# Generated by pormake.
# Topology whd, (6)-cn, num edge types: 1
# Building blocks:
#     Node 0, Type 0, BuildingBlock: IZENUY_clean_sbu_0, # of connection points: 6
#     Node 1, Type 0, BuildingBlock: IZENUY_clean_sbu_0, # of connection points: 6
#     Node 2, Type 0, BuildingBlock: IZENUY_clean_sbu_0, # of connection points: 6
#     Node 3, Type 0, BuildingBlock: IZENUY_clean_sbu_0, # of connection points: 6
#     Node 4, Type 0, BuildingBlock: IZENUY_clean_sbu_0, # of connection points: 6
#     Node 5, Type 0, BuildingBlock: IZENUY_clean_sbu_0, # of connection points: 6
#     Node 6, Type 0, BuildingBlock: IZENUY_clean_sbu_0, # of connection points: 6
#     Node 7, Type 0, BuildingBlock: IZENUY_clean_sbu_0, # of connection points: 6
#     Node 8, Type 0, BuildingBlock: IZENUY_clean_sbu_0, # of connection points: 6
#     Node 9, Type 0, BuildingBlock: IZENUY_clean_sbu_0, # of connection points: 6
#     Node 10, Type 0, BuildingBlock: IZENUY_clean_sbu_0, # of connection points: 6
#     Node 11, Type 0, BuildingBlock: IZENUY_clean_sbu_0, # of connection points: 6
#     Node 12, Type 0, BuildingBlock: IZENUY_clean_sbu_0, # of connection points: 6
#     Node 13, Type 0, BuildingBlock: IZENUY_clean_sbu_0, # of connection points: 6
#     Node 14, Type 0, BuildingBlock: IZENUY_clean_sbu_0, # of connection points: 6
#     Node 15, Type 0, BuildingBlock: IZENUY_clean_sbu_0, # of connection points: 6
#     Edge 16, Type (0, 0), BuildingBlock: CIFDUS_clean_linker_0, # of connection points: 2
#     Edge 17, Type (0, 0), BuildingBlock: CIFDUS_clean_linker_0, # of connection points: 2
#     Edge 18, Type (0, 0), BuildingBlock: CIFDUS_clean_linker_0, # of connection points: 2
#     Edge 19, Type (0, 0), BuildingBlock: CIFDUS_clean_linker_0, # of connection points: 2
#     Edge 20, Type (0, 0), BuildingBlock: CIFDUS_clean_linker_0, # of connection points: 2
#     Edge 21, Type (0, 0), BuildingBlock: CIFDUS_clean_linker_0, # of connection points: 2
#     Edge 22, Type (0, 0), BuildingBlock: CIFDUS_clean_linker_0, # of connection points: 2
#     Edge 23, Type (0, 0), BuildingBlock: CIFDUS_clean_linker_0, # of connection points: 2
#     Edge 24, Type (0, 0), BuildingBlock: CIFDUS_clean_linker_0, # of connection points: 2
#     Edge 25, Type (0, 0), BuildingBlock: CIFDUS_clean_linker_0, # of connection points: 2
#     Edge 26, Type (0, 0), BuildingBlock: CIFDUS_clean_linker_0, # of connection points: 2
#     Edge 27, Type (0, 0), BuildingBlock: CIFDUS_clean_linker_0, # of connection points: 2
#     Edge 28, Type (0, 0), BuildingBlock: CIFDUS_clean_linker_0, # of connection points: 2
#     Edge 29, Type (0, 0), BuildingBlock: CIFDUS_clean_linker_0, # of connection points: 2
#     Edge 30, Type (0, 0), BuildingBlock: CIFDUS_clean_linker_0, # of connection points: 2
#     Edge 31, Type (0, 0), BuildingBlock: CIFDUS_clean_linker_0, # of connection points: 2
#     Edge 32, Type (0, 0), BuildingBlock: CIFDUS_clean_linker_0, # of connection points: 2
#     Edge 33, Type (0, 0), BuildingBlock: CIFDUS_clean_linker_0, # of connection points: 2
#     Edge 34, Type (0, 0), BuildingBlock: CIFDUS_clean_linker_0, # of connection points: 2
#     Edge 35, Type (0, 0), BuildingBlock: CIFDUS_clean_linker_0, # of connection points: 2
#     Edge 36, Type (0, 0), BuildingBlock: CIFDUS_clean_linker_0, # of connection points: 2
#     Edge 37, Type (0, 0), BuildingBlock: CIFDUS_clean_linker_0, # of connection points: 2
#     Edge 38, Type (0, 0), BuildingBlock: CIFDUS_clean_linker_0, # of connection points: 2
#     Edge 39, Type (0, 0), BuildingBlock: CIFDUS_clean_linker_0, # of connection points: 2
#     Edge 40, Type (0, 0), BuildingBlock: CIFDUS_clean_linker_0, # of connection points: 2
#     Edge 41, Type (0, 0), BuildingBlock: CIFDUS_clean_linker_0, # of connection points: 2
#     Edge 42, Type (0, 0), BuildingBlock: CIFDUS_clean_linker_0, # of connection points: 2
#     Edge 43, Type (0, 0), BuildingBlock: CIFDUS_clean_linker_0, # of connection points: 2
#     Edge 44, Type (0, 0), BuildingBlock: CIFDUS_clean_linker_0, # of connection points: 2
#     Edge 45, Type (0, 0), BuildingBlock: CIFDUS_clean_linker_0, # of connection points: 2
#     Edge 46, Type (0, 0), BuildingBlock: CIFDUS_clean_linker_0, # of connection points: 2
#     Edge 47, Type (0, 0), BuildingBlock: CIFDUS_clean_linker_0, # of connection points: 2
#     Edge 48, Type (0, 0), BuildingBlock: CIFDUS_clean_linker_0, # of connection points: 2
#     Edge 49, Type (0, 0), BuildingBlock: CIFDUS_clean_linker_0, # of connection points: 2
#     Edge 50, Type (0, 0), BuildingBlock: CIFDUS_clean_linker_0, # of connection points: 2
#     Edge 51, Type (0, 0), BuildingBlock: CIFDUS_clean_linker_0, # of connection points: 2
#     Edge 52, Type (0, 0), BuildingBlock: CIFDUS_clean_linker_0, # of connection points: 2
#     Edge 53, Type (0, 0), BuildingBlock: CIFDUS_clean_linker_0, # of connection points: 2
#     Edge 54, Type (0, 0), BuildingBlock: CIFDUS_clean_linker_0, # of connection points: 2
#     Edge 55, Type (0, 0), BuildingBlock: CIFDUS_clean_linker_0, # of connection points: 2
#     Edge 56, Type (0, 0), BuildingBlock: CIFDUS_clean_linker_0, # of connection points: 2
#     Edge 57, Type (0, 0), BuildingBlock: CIFDUS_clean_linker_0, # of connection points: 2
#     Edge 58, Type (0, 0), BuildingBlock: CIFDUS_clean_linker_0, # of connection points: 2
#     Edge 59, Type (0, 0), BuildingBlock: CIFDUS_clean_linker_0, # of connection points: 2
#     Edge 60, Type (0, 0), BuildingBlock: CIFDUS_clean_linker_0, # of connection points: 2
#     Edge 61, Type (0, 0), BuildingBlock: CIFDUS_clean_linker_0, # of connection points: 2
#     Edge 62, Type (0, 0), BuildingBlock: CIFDUS_clean_linker_0, # of connection points: 2
#     Edge 63, Type (0, 0), BuildingBlock: CIFDUS_clean_linker_0, # of connection points: 2
# Relax obj value: 0.274
# Max RMSD: 0.227
# Mean RMSD: 0.227
data_MOF--net-whd--node1-IZENUY_clean_sbu_0--edge1-CIFDUS_clean_linker_0
_symmetry_space_group_name_H-M    P1
_symmetry_Int_Tables_number       1
_symmetry_cell_setting            triclinic
loop_
_symmetry_equiv_pos_as_xyz
'x, y, z'
_cell_length_a     44.865029
_cell_length_b     45.187082
_cell_length_c     25.608784
_cell_angle_alpha  89.990553
_cell_angle_beta   90.067332
_cell_angle_gamma 89.757443
loop_
_atom_site_label
_atom_site_type_symbol
_atom_site_fract_x
_atom_site_fract_y
_atom_site_fract_z
_atom_type_partial_charge
Fe0 Fe 0.17874 0.35477 0.34037 0.0
Fe1 Fe 0.1564 0.41516 0.37751 0.0
O2 O 0.18342 0.39346 0.34514 0.0
Fe3 Fe 0.21507 0.41043 0.31654 0.0
O4 O 0.20334 0.39815 0.25213 0.0
O5 O 0.19617 0.3521 0.2756 0.0
O6 O 0.144 0.3588 0.30646 0.0
C7 C 0.1217 0.37243 0.32384 0.0
C8 C 0.23831 0.35624 0.35735 0.0
O9 O 0.12443 0.39174 0.35939 0.0
C10 C 0.21152 0.44064 0.40835 0.0
O11 O 0.15999 0.3507 0.40383 0.0
O12 O 0.1623 0.39527 0.43804 0.0
O13 O 0.24013 0.37788 0.32571 0.0
O14 O 0.21332 0.34824 0.37426 0.0
C15 C 0.16835 0.45146 0.29569 0.0
O16 O 0.18356 0.44235 0.40147 0.0
O17 O 0.2277 0.42433 0.37972 0.0
C18 C 0.15955 0.36767 0.44313 0.0
O19 O 0.14887 0.43639 0.31888 0.0
O20 O 0.19587 0.44577 0.30195 0.0
C21 C 0.19675 0.37184 0.24046 0.0
Fe22 Fe 0.35339 0.84834 0.6624 0.0
Fe23 Fe 0.40536 0.80568 0.68385 0.0
O24 O 0.3919 0.83976 0.65812 0.0
Fe25 Fe 0.41693 0.8649 0.62857 0.0
O26 O 0.39695 0.89867 0.64987 0.0
O27 O 0.36027 0.88185 0.69825 0.0
O28 O 0.34875 0.83013 0.72594 0.0
C29 C 0.36818 0.82592 0.76118 0.0
C30 C 0.36901 0.86844 0.56155 0.0
O31 O 0.39396 0.81673 0.74935 0.0
C32 C 0.43607 0.80869 0.59202 0.0
O33 O 0.34328 0.81537 0.62647 0.0
O34 O 0.37046 0.78488 0.67293 0.0
O35 O 0.39653 0.86355 0.56721 0.0
O36 O 0.35148 0.86844 0.60015 0.0
C37 C 0.45225 0.84552 0.70853 0.0
O38 O 0.4181 0.79363 0.61936 0.0
O39 O 0.44096 0.83574 0.60171 0.0
C40 C 0.34883 0.78951 0.64199 0.0
O41 O 0.44262 0.81965 0.70012 0.0
O42 O 0.43956 0.86761 0.68768 0.0
C43 C 0.37648 0.9028 0.68324 0.0
Fe44 Fe 0.80655 0.60274 0.29584 0.0
Fe45 Fe 0.84511 0.65375 0.33969 0.0
O46 O 0.8363 0.61561 0.33554 0.0
Fe47 Fe 0.85783 0.58992 0.37137 0.0
O48 O 0.85256 0.55911 0.32656 0.0
O49 O 0.83135 0.57878 0.25792 0.0
O50 O 0.81171 0.63089 0.24493 0.0
C51 C 0.83362 0.64765 0.23555 0.0
C52 C 0.80256 0.56817 0.38878 0.0
O53 O 0.85118 0.65576 0.2709 0.0
C54 C 0.85314 0.63739 0.44042 0.0
O55 O 0.77938 0.62563 0.32957 0.0
O56 O 0.80611 0.66646 0.33345 0.0
O57 O 0.82551 0.57948 0.40901 0.0
O58 O 0.79654 0.57218 0.34073 0.0
C59 C 0.90152 0.62509 0.33145 0.0
O60 O 0.83957 0.65438 0.40964 0.0
O61 O 0.86743 0.61534 0.4237 0.0
C62 C 0.78123 0.65323 0.33638 0.0
O63 O 0.886 0.64745 0.34529 0.0
O64 O 0.89092 0.59933 0.33481 0.0
C65 C 0.84666 0.55843 0.27847 0.0
Fe66 Fe 0.60588 0.21118 0.68782 0.0
Fe67 Fe 0.60372 0.15276 0.62703 0.0
O68 O 0.62386 0.17889 0.66389 0.0
Fe69 Fe 0.66193 0.17236 0.67801 0.0
O70 O 0.66084 0.19055 0.74264 0.0
O71 O 0.61331 0.19973 0.75428 0.0
O72 O 0.56904 0.1935 0.69564 0.0
C73 C 0.56222 0.16639 0.7008 0.0
C74 C 0.66345 0.23138 0.6575 0.0
O75 O 0.57803 0.14647 0.68019 0.0
C76 C 0.65586 0.15399 0.57268 0.0
O77 O 0.59666 0.22377 0.62228 0.0
O78 O 0.57924 0.18049 0.59685 0.0
O79 O 0.67244 0.20589 0.64514 0.0
O80 O 0.63979 0.23466 0.68435 0.0
C81 C 0.63908 0.11737 0.69322 0.0
O82 O 0.62807 0.15778 0.57175 0.0
O83 O 0.66987 0.15275 0.61578 0.0
C84 C 0.58241 0.20808 0.59008 0.0
O85 O 0.62475 0.1202 0.65085 0.0
O86 O 0.65331 0.13868 0.71216 0.0
C87 C 0.63849 0.19298 0.77259 0.0
Fe88 Fe 0.16994 0.65582 0.66552 0.0
Fe89 Fe 0.15279 0.59556 0.61902 0.0
O90 O 0.17734 0.61756 0.65658 0.0
Fe91 Fe 0.20925 0.60122 0.686 0.0
O92 O 0.19517 0.61038 0.75082 0.0
O93 O 0.1849 0.65677 0.73202 0.0
O94 O 0.13398 0.64842 0.69479 0.0
C95 C 0.11336 0.63378 0.67387 0.0
C96 C 0.23049 0.65784 0.65522 0.0
O97 O 0.11873 0.61619 0.63654 0.0
C98 C 0.21018 0.57477 0.59011 0.0
O99 O 0.15331 0.66144 0.60062 0.0
O100 O 0.15896 0.61832 0.56182 0.0
O101 O 0.23221 0.63484 0.68339 0.0
O102 O 0.20562 0.66619 0.63724 0.0
C103 C 0.16575 0.55615 0.69628 0.0
O104 O 0.1823 0.57131 0.59416 0.0
O105 O 0.22456 0.59045 0.62247 0.0
C106 C 0.15525 0.64595 0.55961 0.0
O107 O 0.14532 0.57075 0.67389 0.0
O108 O 0.19252 0.5647 0.69414 0.0
C109 C 0.18675 0.6359 0.76484 0.0
Fe110 Fe 0.59187 0.85976 0.36372 0.0
Fe111 Fe 0.65544 0.83815 0.3407 0.0
O112 O 0.6165 0.83266 0.33854 0.0
Fe113 Fe 0.60157 0.79983 0.31096 0.0
O114 O 0.56623 0.8176 0.28943 0.0
O115 O 0.5749 0.86491 0.30027 0.0
O116 O 0.61542 0.89204 0.34922 0.0
C117 C 0.63763 0.89489 0.31935 0.0
C118 C 0.56667 0.80559 0.39676 0.0
O119 O 0.65315 0.87289 0.30675 0.0
C120 C 0.65575 0.7788 0.35722 0.0
O121 O 0.6074 0.8558 0.42785 0.0
O122 O 0.65499 0.8558 0.40618 0.0
O123 O 0.58545 0.78919 0.37368 0.0
O124 O 0.56365 0.83262 0.38424 0.0
C125 C 0.64311 0.81666 0.23841 0.0
O126 O 0.66148 0.80393 0.37512 0.0
O127 O 0.63437 0.77572 0.32524 0.0
C128 C 0.63451 0.85644 0.44054 0.0
O129 O 0.66166 0.82148 0.27522 0.0
O130 O 0.61651 0.80949 0.24807 0.0
C131 C 0.56086 0.84448 0.27781 0.0
Fe132 Fe 0.83975 0.36138 0.67184 0.0
Fe133 Fe 0.85537 0.42018 0.61996 0.0
O134 O 0.83265 0.39961 0.66295 0.0
Fe135 Fe 0.80325 0.4175 0.69731 0.0
O136 O 0.80604 0.39406 0.75566 0.0
O137 O 0.84572 0.36658 0.74115 0.0
O138 O 0.88064 0.36425 0.66438 0.0
C139 C 0.89743 0.38655 0.6703 0.0
C140 C 0.77653 0.3654 0.66987 0.0
O141 O 0.88834 0.41205 0.65814 0.0
C142 C 0.80157 0.44455 0.59682 0.0
O143 O 0.83392 0.35362 0.60285 0.0
O144 O 0.86251 0.38946 0.57511 0.0
O145 O 0.77528 0.39335 0.66855 0.0
O146 O 0.80049 0.3519 0.68123 0.0
C147 C 0.84757 0.45891 0.70471 0.0
O148 O 0.82348 0.42988 0.5797 0.0
O149 O 0.79538 0.44443 0.64514 0.0
C150 C 0.84764 0.36629 0.5663 0.0
O151 O 0.85279 0.45467 0.65684 0.0
O152 O 0.82931 0.4427 0.7289 0.0
C153 C 0.82748 0.37843 0.77234 0.0
Fe154 Fe 0.42477 0.21257 0.3067 0.0
Fe155 Fe 0.42868 0.15679 0.37339 0.0
O156 O 0.40695 0.18175 0.33589 0.0
Fe157 Fe 0.36815 0.17579 0.32734 0.0
O158 O 0.36804 0.1884 0.25833 0.0
O159 O 0.41521 0.19929 0.24289 0.0
O160 O 0.46079 0.19371 0.29811 0.0
C161 C 0.46663 0.16639 0.2933 0.0
C162 C 0.36833 0.23647 0.33429 0.0
O163 O 0.45145 0.14736 0.31733 0.0
C164 C 0.3793 0.16465 0.43489 0.0
O165 O 0.43583 0.2274 0.37001 0.0
O166 O 0.45505 0.18499 0.3956 0.0
O167 O 0.35867 0.21236 0.35208 0.0
O168 O 0.39216 0.23716 0.30813 0.0
C169 C 0.38907 0.11826 0.32192 0.0
O170 O 0.40726 0.1652 0.43064 0.0
O171 O 0.36243 0.16225 0.3951 0.0
C172 C 0.45205 0.21268 0.40094 0.0
O173 O 0.40663 0.12371 0.35917 0.0
O174 O 0.37396 0.13873 0.30138 0.0
C175 C 0.38973 0.1919 0.22693 0.0
Fe176 Fe 0.6697 0.85695 0.83687 0.0
Fe177 Fe 0.65319 0.91681 0.88352 0.0
O178 O 0.67751 0.89489 0.8454 0.0
Fe179 Fe 0.70914 0.91124 0.81579 0.0
O180 O 0.70811 0.88778 0.75687 0.0
O181 O 0.66729 0.86158 0.76695 0.0
O182 O 0.62852 0.86188 0.83759 0.0
C183 C 0.61296 0.88487 0.82763 0.0
C184 C 0.73311 0.85856 0.8469 0.0
O185 O 0.62262 0.91022 0.8391 0.0
C186 C 0.70694 0.93652 0.91735 0.0
O187 O 0.67175 0.85007 0.90693 0.0
O188 O 0.64157 0.88657 0.92685 0.0
O189 O 0.73462 0.88636 0.84872 0.0
O190 O 0.70916 0.84565 0.83369 0.0
C191 C 0.66816 0.95497 0.80086 0.0
O192 O 0.68272 0.92425 0.92934 0.0
O193 O 0.71549 0.93773 0.87004 0.0
C194 C 0.65557 0.86334 0.93965 0.0
O195 O 0.66001 0.9514 0.84769 0.0
O196 O 0.68594 0.93701 0.77992 0.0
C197 C 0.68667 0.87311 0.73777 0.0
Fe198 Fe 0.92445 0.35742 0.1387 0.0
Fe199 Fe 0.86171 0.33678 0.16802 0.0
O200 O 0.90068 0.33127 0.16821 0.0
Fe201 Fe 0.91638 0.29956 0.19849 0.0
O202 O 0.9515 0.31792 0.21621 0.0
O203 O 0.9426 0.36483 0.20038 0.0
O204 O 0.9006 0.39008 0.1513 0.0
C205 C 0.88021 0.39353 0.18483 0.0
C206 C 0.94936 0.30211 0.11053 0.0
O207 O 0.86497 0.372 0.20009 0.0
C208 C 0.86372 0.27712 0.15329 0.0
O209 O 0.90775 0.3511 0.0763 0.0
O210 O 0.86085 0.35335 0.10169 0.0
O211 O 0.93141 0.28667 0.13673 0.0
O212 O 0.95252 0.32955 0.11956 0.0
C213 C 0.87598 0.3187 0.27071 0.0
O214 O 0.85551 0.30184 0.13597 0.0
O215 O 0.88406 0.27543 0.1874 0.0
C216 C 0.88039 0.35213 0.06575 0.0
O217 O 0.85663 0.32125 0.23456 0.0
O218 O 0.90249 0.31153 0.26065 0.0
C219 C 0.95663 0.34506 0.22497 0.0
Fe220 Fe 0.36306 0.10702 0.87092 0.0
Fe221 Fe 0.30475 0.10588 0.80662 0.0
O222 O 0.33528 0.12555 0.83415 0.0
Fe223 Fe 0.33833 0.16433 0.8254 0.0
O224 O 0.37925 0.16526 0.82776 0.0
O225 O 0.39224 0.11857 0.82625 0.0
O226 O 0.36137 0.07244 0.83413 0.0
C227 C 0.35051 0.06619 0.79003 0.0
C228 C 0.3525 0.15909 0.92832 0.0
O229 O 0.32914 0.08085 0.77101 0.0
C230 C 0.27659 0.15706 0.83783 0.0
O231 O 0.3358 0.09427 0.9176 0.0
O232 O 0.30153 0.07951 0.86154 0.0
O233 O 0.33502 0.17067 0.89543 0.0
O234 O 0.36981 0.13822 0.91504 0.0
C235 C 0.32329 0.14558 0.72697 0.0
O236 O 0.27727 0.12917 0.83995 0.0
O237 O 0.29852 0.17132 0.82056 0.0
C238 C 0.31251 0.07985 0.90727 0.0
O239 O 0.30363 0.12871 0.7467 0.0
O240 O 0.34143 0.15954 0.75559 0.0
C241 C 0.39805 0.1453 0.81674 0.0
Fe242 Fe 0.10618 0.71142 0.18581 0.0
Fe243 Fe 0.0961 0.6506 0.13539 0.0
O244 O 0.12052 0.6774 0.16161 0.0
Fe245 Fe 0.15936 0.67049 0.16427 0.0
O246 O 0.16457 0.6907 0.22573 0.0
O247 O 0.11926 0.70224 0.25101 0.0
O248 O 0.06976 0.69637 0.20526 0.0
C249 C 0.06132 0.67029 0.21563 0.0
C250 C 0.16103 0.72878 0.13907 0.0
O251 O 0.07472 0.64835 0.19579 0.0
C252 C 0.14272 0.64725 0.06613 0.0
O253 O 0.09183 0.72161 0.12161 0.0
O254 O 0.07044 0.6783 0.10785 0.0
O255 O 0.16729 0.7028 0.12495 0.0
O256 O 0.14 0.73324 0.17127 0.0
C257 C 0.1388 0.61588 0.19165 0.0
O258 O 0.11521 0.65135 0.073 0.0
O259 O 0.16091 0.64867 0.10377 0.0
C260 C 0.074 0.70537 0.0963 0.0
O261 O 0.11791 0.61814 0.15831 0.0
O262 O 0.15437 0.63793 0.20358 0.0
C263 C 0.1457 0.69474 0.26182 0.0
Fe264 Fe 0.66251 0.09599 0.13214 0.0
Fe265 Fe 0.71925 0.09546 0.19969 0.0
O266 O 0.69028 0.11541 0.16737 0.0
Fe267 Fe 0.6896 0.1545 0.17099 0.0
O268 O 0.65276 0.1551 0.19869 0.0
O269 O 0.63203 0.12147 0.14834 0.0
O270 O 0.65185 0.07478 0.18949 0.0
C271 C 0.66953 0.05796 0.2137 0.0
C272 C 0.6728 0.14302 0.06592 0.0
O273 O 0.69733 0.06188 0.21048 0.0
C274 C 0.74939 0.14617 0.16374 0.0
O275 O 0.6886 0.06736 0.10975 0.0
O276 O 0.7331 0.0812 0.13774 0.0
O277 O 0.67543 0.1603 0.10449 0.0
O278 O 0.67057 0.11544 0.07191 0.0
C279 C 0.70238 0.13563 0.27406 0.0
O280 O 0.74719 0.12501 0.19569 0.0
O281 O 0.72642 0.15699 0.14308 0.0
C282 C 0.71679 0.06739 0.10568 0.0
O283 O 0.70633 0.10863 0.2629 0.0
O284 O 0.70342 0.1554 0.23879 0.0
C285 C 0.63005 0.14203 0.18168 0.0
Fe286 Fe 0.15283 0.34734 0.84337 0.0
Fe287 Fe 0.10319 0.30299 0.81883 0.0
O288 O 0.11501 0.33667 0.84792 0.0
Fe289 Fe 0.08914 0.35956 0.88101 0.0
O290 O 0.1067 0.39474 0.8619 0.0
O291 O 0.14305 0.38113 0.80957 0.0
O292 O 0.15836 0.33059 0.77915 0.0
C293 C 0.13929 0.32651 0.74353 0.0
C294 C 0.13765 0.36368 0.94624 0.0
O295 O 0.11378 0.31648 0.75437 0.0
C296 C 0.0738 0.30151 0.91184 0.0
O297 O 0.16506 0.31398 0.87672 0.0
O298 O 0.13906 0.28359 0.82798 0.0
O299 O 0.11047 0.35715 0.94155 0.0
O300 O 0.15411 0.36637 0.90656 0.0
C301 C 0.05424 0.34162 0.79937 0.0
O302 O 0.09171 0.28817 0.88182 0.0
O303 O 0.0672 0.32853 0.90544 0.0
C304 C 0.16012 0.28816 0.86001 0.0
O305 O 0.06512 0.31586 0.80437 0.0
O306 O 0.06577 0.36324 0.82312 0.0
C307 C 0.12492 0.40049 0.82551 0.0
Fe308 Fe 0.30038 0.9162 0.18453 0.0
Fe309 Fe 0.33699 0.86 0.16405 0.0
O310 O 0.33268 0.89892 0.15819 0.0
Fe311 Fe 0.36019 0.92067 0.12697 0.0
O312 O 0.36555 0.94436 0.18453 0.0
O313 O 0.31787 0.95194 0.19681 0.0
O314 O 0.31176 0.9052 0.25006 0.0
C315 C 0.3185 0.87899 0.263 0.0
C316 C 0.30497 0.94417 0.09058 0.0
O317 O 0.31961 0.85866 0.2289 0.0
C318 C 0.35804 0.8719 0.06193 0.0
O319 O 0.27589 0.88386 0.17778 0.0
O320 O 0.30196 0.853 0.13057 0.0
O321 O 0.33278 0.94634 0.0989 0.0
O322 O 0.28842 0.9286 0.11978 0.0
C323 C 0.39452 0.87753 0.18282 0.0
O324 O 0.35566 0.85487 0.10087 0.0
O325 O 0.35669 0.89962 0.06689 0.0
C326 C 0.27713 0.86168 0.14774 0.0
O327 O 0.37196 0.8635 0.1978 0.0
O328 O 0.39228 0.89813 0.14932 0.0
C329 C 0.34458 0.95978 0.20345 0.0
Fe330 Fe 0.91096 0.71098 0.81558 0.0
Fe331 Fe 0.91432 0.65557 0.88542 0.0
O332 O 0.8941 0.67923 0.84368 0.0
Fe333 Fe 0.85634 0.67109 0.83004 0.0
O334 O 0.86537 0.66598 0.76259 0.0
O335 O 0.88954 0.70816 0.75399 0.0
O336 O 0.93985 0.68875 0.78398 0.0
C337 C 0.95689 0.67094 0.80783 0.0
C338 C 0.85543 0.73225 0.84039 0.0
O339 O 0.95003 0.66065 0.85215 0.0
C340 C 0.85839 0.6619 0.93389 0.0
O341 O 0.93578 0.71846 0.87179 0.0
O342 O 0.92192 0.68553 0.93006 0.0
O343 O 0.84543 0.7093 0.81889 0.0
O344 O 0.88322 0.7356 0.84593 0.0
C345 C 0.88197 0.6142 0.83374 0.0
O346 O 0.88215 0.64719 0.92666 0.0
O347 O 0.84597 0.67598 0.89746 0.0
C348 C 0.9352 0.70913 0.91851 0.0
O349 O 0.90786 0.62351 0.84344 0.0
O350 O 0.85971 0.63109 0.83853 0.0
C351 C 0.87692 0.68562 0.73417 0.0
H352 H 0.199 0.50272 0.29148 0.0
H353 H 0.11634 0.46272 0.24358 0.0
H354 H 0.09972 0.50987 0.2058 0.0
H355 H 0.10844 0.56313 0.18842 0.0
H356 H 0.19025 0.60279 0.24294 0.0
H357 H 0.20716 0.55537 0.27629 0.0
C358 C 0.17751 0.50423 0.27218 0.0
C359 C 0.15907 0.47925 0.26974 0.0
C360 C 0.16776 0.53152 0.25216 0.0
C361 C 0.13097 0.48169 0.2457 0.0
C362 C 0.12145 0.50864 0.22423 0.0
C363 C 0.12995 0.56135 0.20754 0.0
C364 C 0.14797 0.58661 0.21286 0.0
C365 C 0.13957 0.53384 0.2276 0.0
C366 C 0.17575 0.58387 0.23821 0.0
C367 C 0.1856 0.55666 0.25726 0.0
H368 H 0.4849 0.89607 0.7244 0.0
H369 H 0.48547 0.80204 0.75456 0.0
H370 H 0.53478 0.80567 0.79358 0.0
H371 H 0.57877 0.83511 0.81721 0.0
H372 H 0.57813 0.9292 0.7882 0.0
H373 H 0.52825 0.92584 0.75093 0.0
C374 C 0.49568 0.87641 0.73986 0.0
C375 C 0.48132 0.84883 0.73615 0.0
C376 C 0.52431 0.87855 0.76235 0.0
C377 C 0.49583 0.82362 0.75655 0.0
C378 C 0.52418 0.82561 0.77889 0.0
C379 C 0.56773 0.85488 0.80279 0.0
C380 C 0.58235 0.88233 0.80561 0.0
C381 C 0.53881 0.85289 0.78156 0.0
C382 C 0.5675 0.90774 0.78684 0.0
C383 C 0.53889 0.90587 0.76538 0.0
H384 H 0.88179 0.4482 0.13764 0.0
H385 H 0.86359 0.40413 0.28364 0.0
H386 H 0.85204 0.45119 0.32475 0.0
H387 H 0.8468 0.50429 0.31991 0.0
H388 H 0.86026 0.55012 0.17427 0.0
H389 H 0.87354 0.50293 0.1318 0.0
C390 C 0.87546 0.44911 0.17846 0.0
C391 C 0.87393 0.4228 0.20785 0.0
C392 C 0.86774 0.47641 0.20164 0.0
C393 C 0.86515 0.42407 0.26041 0.0
C394 C 0.85845 0.45096 0.28393 0.0
C395 C 0.85263 0.50406 0.27879 0.0
C396 C 0.85286 0.53059 0.25029 0.0
C397 C 0.85962 0.47715 0.25496 0.0
C398 C 0.85994 0.52987 0.19691 0.0
C399 C 0.86765 0.50296 0.17282 0.0
H400 H 0.44539 0.10926 0.79398 0.0
H401 H 0.41771 0.20092 0.79424 0.0
H402 H 0.46617 0.2156 0.76047 0.0
H403 H 0.51616 0.20256 0.72905 0.0
H404 H 0.54381 0.11093 0.72781 0.0
H405 H 0.49581 0.09629 0.76399 0.0
C406 C 0.44996 0.13246 0.78681 0.0
C407 C 0.42784 0.15389 0.79679 0.0
C408 C 0.47796 0.14085 0.7672 0.0
C409 C 0.43424 0.18387 0.78708 0.0
C410 C 0.462 0.19235 0.76772 0.0
C411 C 0.51179 0.17941 0.73701 0.0
C412 C 0.53359 0.15792 0.72549 0.0
C413 C 0.48401 0.17105 0.75747 0.0
C414 C 0.52742 0.12798 0.73596 0.0
C415 C 0.49994 0.11955 0.75668 0.0
H416 H 0.11738 0.53431 0.74988 0.0
H417 H 0.20253 0.50956 0.68452 0.0
H418 H 0.19679 0.45938 0.71666 0.0
H419 H 0.16899 0.42286 0.7656 0.0
H420 H 0.08503 0.44649 0.83651 0.0
H421 H 0.08894 0.49659 0.80041 0.0
C422 C 0.13447 0.51779 0.74256 0.0
C423 C 0.16035 0.52567 0.71494 0.0
C424 C 0.13142 0.48882 0.76252 0.0
C425 C 0.18249 0.50415 0.70598 0.0
C426 C 0.17926 0.47539 0.72432 0.0
C427 C 0.15143 0.43886 0.77317 0.0
C428 C 0.1268 0.43089 0.80385 0.0
C429 C 0.15403 0.46756 0.75308 0.0
C430 C 0.10436 0.45208 0.81328 0.0
C431 C 0.10655 0.48073 0.79253 0.0
H432 H 0.50822 0.81572 0.28022 0.0
H433 H 0.55133 0.89234 0.21511 0.0
H434 H 0.50379 0.90929 0.17819 0.0
H435 H 0.44923 0.90348 0.16852 0.0
H436 H 0.40652 0.82814 0.24005 0.0
H437 H 0.45438 0.80989 0.27064 0.0
C438 C 0.50729 0.83582 0.25707 0.0
C439 C 0.53322 0.85257 0.24975 0.0
C440 C 0.47978 0.84597 0.2378 0.0
C441 C 0.5316 0.87898 0.22086 0.0
C442 C 0.50442 0.88875 0.20004 0.0
C443 C 0.45042 0.88306 0.1907 0.0
C444 C 0.42415 0.86734 0.20182 0.0
C445 C 0.47821 0.87267 0.20899 0.0
C446 C 0.42621 0.84092 0.2309 0.0
C447 C 0.45366 0.83028 0.24835 0.0
H448 H 0.91181 0.57758 0.7674 0.0
H449 H 0.8384 0.58092 0.87567 0.0
H450 H 0.82281 0.53143 0.84937 0.0
H451 H 0.82685 0.48941 0.78911 0.0
H452 H 0.89813 0.48744 0.67626 0.0
H453 H 0.91776 0.53377 0.71074 0.0
C454 C 0.89284 0.56709 0.78588 0.0
C455 C 0.87627 0.58269 0.82327 0.0
C456 C 0.88333 0.53899 0.76921 0.0
C457 C 0.85141 0.56921 0.84655 0.0
C458 C 0.84243 0.54098 0.83148 0.0
C459 C 0.84691 0.49893 0.77263 0.0
C460 C 0.86079 0.48521 0.72989 0.0
C461 C 0.8577 0.52598 0.7918 0.0
C462 C 0.88676 0.49784 0.70878 0.0
C463 C 0.89807 0.52431 0.72851 0.0
H464 H 0.57947 0.10935 0.18592 0.0
H465 H 0.61484 0.19584 0.2208 0.0
H466 H 0.56676 0.2113 0.25593 0.0
H467 H 0.51548 0.19988 0.2793 0.0
H468 H 0.48037 0.11265 0.25046 0.0
H469 H 0.52763 0.09777 0.21011 0.0
C470 C 0.57649 0.13166 0.20073 0.0
C471 C 0.60054 0.1515 0.20054 0.0
C472 C 0.54897 0.14019 0.22203 0.0
C473 C 0.59663 0.18018 0.22061 0.0
C474 C 0.56917 0.18905 0.24065 0.0
C475 C 0.51805 0.17768 0.26375 0.0
C476 C 0.49453 0.1574 0.26751 0.0
C477 C 0.54531 0.16918 0.2419 0.0
C478 C 0.49829 0.12858 0.24801 0.0
C479 C 0.52523 0.12011 0.22495 0.0
H480 H 0.65532 0.00837 0.84288 0.0
H481 H 0.66349 0.96269 0.69571 0.0
H482 H 0.6525 0.00865 0.6487 0.0
H483 H 0.64318 0.06257 0.64965 0.0
H484 H 0.63958 0.10839 0.79723 0.0
H485 H 0.64589 0.06171 0.84396 0.0
C486 C 0.65438 0.00845 0.80054 0.0
C487 C 0.66014 0.9823 0.77273 0.0
C488 C 0.64894 0.03502 0.7739 0.0
C489 C 0.65927 0.9827 0.71787 0.0
C490 C 0.65295 0.00891 0.69102 0.0
C491 C 0.64345 0.06214 0.692 0.0
C492 C 0.6409 0.08868 0.7201 0.0
C493 C 0.64812 0.03531 0.71861 0.0
C494 C 0.64166 0.08811 0.77493 0.0
C495 C 0.64525 0.06148 0.80165 0.0
H496 H 0.06907 0.40258 0.33093 0.0
H497 H 0.10791 0.32032 0.27759 0.0
H498 H 0.05952 0.30368 0.24719 0.0
H499 H 1.00695 0.31304 0.23193 0.0
H500 H 0.96769 0.39626 0.27811 0.0
H501 H 0.01539 0.41186 0.3159 0.0
C502 C 0.06681 0.38097 0.31295 0.0
C503 C 0.092 0.36278 0.30649 0.0
C504 C 0.0389 0.37165 0.2945 0.0
C505 C 0.08889 0.33489 0.28273 0.0
C506 C 0.06122 0.32524 0.26548 0.0
C507 C 0.00868 0.33439 0.25106 0.0
C508 C 0.98398 0.35343 0.25271 0.0
C509 C 0.03618 0.34351 0.27079 0.0
C510 C 0.98659 0.38128 0.27659 0.0
C511 C 0.0138 0.3902 0.29797 0.0
H512 H 0.41244 0.94974 0.70642 0.0
H513 H 0.32038 0.92348 0.69435 0.0
H514 H 0.30417 0.97277 0.72086 0.0
H515 H 0.3159 0.02272 0.75166 0.0
H516 H 0.40751 0.04791 0.77371 0.0
H517 H 0.42425 1.00009 0.73881 0.0
C518 C 0.38889 0.955 0.70938 0.0
C519 C 0.36765 0.93308 0.69856 0.0
C520 C 0.37965 0.98325 0.72633 0.0
C521 C 0.33716 0.93996 0.70296 0.0
C522 C 0.32784 0.96816 0.71791 0.0
C523 C 0.3395 0.01782 0.74794 0.0
C524 C 0.36049 0.03874 0.76435 0.0
C525 C 0.34884 0.9899 0.73016 0.0
C526 C 0.39103 0.03203 0.76083 0.0
C527 C 0.40056 1.00472 0.74108 0.0
H528 H 0.03137 0.61856 0.23467 0.0
H529 H 0.0261 0.71289 0.25996 0.0
H530 H 0.97696 0.7074 0.29909 0.0
H531 H 0.9341 0.67619 0.3227 0.0
H532 H 0.93948 0.58187 0.29717 0.0
H533 H 0.98955 0.58712 0.26197 0.0
C534 C 0.01964 0.63791 0.24917 0.0
C535 C 0.03259 0.66611 0.24397 0.0
C536 C 0.99111 0.63468 0.27149 0.0
C537 C 0.01684 0.69087 0.26313 0.0
C538 C 0.98859 0.6878 0.28551 0.0
C539 C 0.94628 0.65675 0.3098 0.0
C540 C 0.93279 0.62869 0.31273 0.0
C541 C 0.97529 0.65986 0.28931 0.0
C542 C 0.94909 0.60379 0.29563 0.0
C543 C 0.97785 0.60674 0.27532 0.0
H544 H 0.70151 0.00885 0.2354 0.0
H545 H 0.61247 0.0448 0.24534 0.0
H546 H 0.5946 0.99781 0.28154 0.0
H547 H 0.60439 0.94563 0.30771 0.0
H548 H 0.69358 0.91044 0.29177 0.0
H549 H 0.71118 0.95803 0.26066 0.0
C550 C 0.67821 1.00662 0.24592 0.0
C551 C 0.6584 0.03037 0.23796 0.0
C552 C 0.66807 0.97955 0.26543 0.0
C553 C 0.6282 0.02684 0.25111 0.0
C554 C 0.61798 0.99998 0.27178 0.0
C555 C 0.62768 0.94854 0.29773 0.0
C556 C 0.6476 0.92449 0.30206 0.0
C557 C 0.63771 0.97605 0.27874 0.0
C558 C 0.67769 0.92847 0.2885 0.0
C559 C 0.68785 0.95573 0.2708 0.0
H560 H 0.92809 0.3351 0.68896 0.0
H561 H 0.93596 0.43009 0.69984 0.0
H562 H 0.98515 0.4248 0.73932 0.0
H563 H 0.02553 0.39325 0.77371 0.0
H564 H 0.01792 0.29828 0.76146 0.0
H565 H 0.96942 0.30364 0.71962 0.0
C566 C 0.94061 0.35466 0.69966 0.0
C567 C 0.92818 0.38293 0.69132 0.0
C568 C 0.96907 0.35152 0.72237 0.0
C569 C 0.94489 0.40801 0.70546 0.0
C570 C 0.97308 0.40504 0.72828 0.0
C571 C 0.01333 0.37372 0.76171 0.0
C572 C 0.02546 0.34541 0.77112 0.0
C573 C 0.98532 0.3769 0.73735 0.0
C574 C 0.00929 0.32039 0.75486 0.0
C575 C 0.98142 0.32339 0.73095 0.0
H576 H 0.34131 0.09399 0.27292 0.0
H577 H 0.42951 0.0729 0.32887 0.0
H578 H 0.42463 0.02223 0.29597 0.0
H579 H 0.39481 0.98343 0.25069 0.0
H580 H 0.3052 1.00517 0.20171 0.0
H581 H 0.31127 0.05553 0.2319 0.0
C582 C 0.35948 0.07832 0.27794 0.0
C583 C 0.3857 0.08728 0.30327 0.0
C584 C 0.35632 0.04909 0.25991 0.0
C585 C 0.40894 0.06655 0.30981 0.0
C586 C 0.40622 0.03755 0.29081 0.0
C587 C 0.3767 0.99923 0.24667 0.0
C588 C 0.34968 0.99031 0.22355 0.0
C589 C 0.37995 0.02848 0.2657 0.0
C590 C 0.32632 0.01115 0.2192 0.0
C591 C 0.32969 0.04015 0.2365 0.0
H592 H 0.09419 0.65132 0.76917 0.0
H593 H 0.06263 0.62868 0.61525 0.0
H594 H 0.01134 0.63975 0.64177 0.0
H595 H 0.97521 0.65588 0.70953 0.0
H596 H 1.00721 0.67437 0.86492 0.0
H597 H 0.05844 0.66531 0.83707 0.0
C598 C 0.07608 0.64887 0.74141 0.0
C599 C 0.0822 0.63936 0.6903 0.0
C600 C 0.04668 0.65469 0.75722 0.0
C601 C 0.05847 0.63586 0.65494 0.0
C602 C 0.02915 0.64231 0.67001 0.0
C603 C 0.99351 0.65803 0.73698 0.0
C604 C 0.98758 0.66594 0.78901 0.0
C605 C 0.02295 0.65179 0.72108 0.0
C606 C 0.01132 0.66827 0.82463 0.0
C607 C 0.0406 0.66309 0.80878 0.0
H608 H 0.23081 0.5193 0.60411 0.0
H609 H 0.21947 0.58755 0.48853 0.0
H610 H 0.22442 0.55092 0.41865 0.0
H611 H 0.22117 0.49859 0.39208 0.0
H612 H 0.22894 0.42999 0.50797 0.0
H613 H 0.23648 0.46729 0.57622 0.0
C614 C 0.23091 0.52621 0.56357 0.0
C615 C 0.22533 0.55605 0.55126 0.0
C616 C 0.23244 0.50476 0.52378 0.0
C617 C 0.22448 0.56479 0.49872 0.0
C618 C 0.22683 0.54375 0.45883 0.0
C619 C 0.22577 0.49191 0.43201 0.0
C620 C 0.22494 0.46174 0.44521 0.0
C621 C 0.22928 0.51354 0.47102 0.0
C622 C 0.23008 0.45312 0.49705 0.0
C623 C 0.23409 0.47447 0.53605 0.0
H624 H 0.49262 0.78861 0.59968 0.0
H625 H 0.42057 0.80188 0.49098 0.0
H626 H 0.45528 0.79772 0.41762 0.0
H627 H 0.50723 0.79981 0.38628 0.0
H628 H 0.57949 0.78657 0.49465 0.0
H629 H 0.54384 0.78071 0.56641 0.0
C630 C 0.48445 0.78914 0.55979 0.0
C631 C 0.45412 0.79512 0.55042 0.0
C632 C 0.50471 0.78728 0.51795 0.0
C633 C 0.44374 0.79672 0.49883 0.0
C634 C 0.46366 0.79472 0.45698 0.0
C635 C 0.51499 0.7945 0.42534 0.0
C636 C 0.54578 0.79346 0.43547 0.0
C637 C 0.49435 0.79137 0.46624 0.0
C638 C 0.55583 0.78705 0.4861 0.0
C639 C 0.53545 0.78398 0.52712 0.0
H640 H 0.79382 0.44478 0.49131 0.0
H641 H 0.78377 0.49902 0.62889 0.0
H642 H 0.77766 0.54293 0.57472 0.0
H643 H 0.78513 0.56673 0.48944 0.0
H644 H 0.79306 0.5129 0.3513 0.0
H645 H 0.78941 0.46799 0.40416 0.0
C646 C 0.78938 0.4661 0.50922 0.0
C647 C 0.78976 0.46874 0.56391 0.0
C648 C 0.78578 0.49136 0.47777 0.0
C649 C 0.78364 0.49639 0.58684 0.0
C650 C 0.78036 0.5216 0.5559 0.0
C651 C 0.7848 0.54514 0.47087 0.0
C652 C 0.78962 0.54296 0.4169 0.0
C653 C 0.78277 0.5195 0.5015 0.0
C654 C 0.78924 0.51501 0.3929 0.0
C655 C 0.7875 0.48934 0.42318 0.0
H656 H 0.5106 0.21774 0.38605 0.0
H657 H 0.44058 0.23785 0.49528 0.0
H658 H 0.47748 0.24469 0.56495 0.0
H659 H 0.52832 0.23383 0.59748 0.0
H660 H 0.59724 0.20983 0.4884 0.0
H661 H 0.56256 0.21626 0.4155 0.0
C662 C 0.50367 0.22494 0.42464 0.0
C663 C 0.47316 0.22746 0.4359 0.0
C664 C 0.52489 0.2277 0.46452 0.0
C665 C 0.46406 0.23617 0.48594 0.0
C666 C 0.48514 0.23972 0.52579 0.0
C667 C 0.53591 0.23139 0.55749 0.0
C668 C 0.56519 0.22175 0.54779 0.0
C669 C 0.51545 0.23399 0.51607 0.0
C670 C 0.57485 0.21771 0.49627 0.0
C671 C 0.55495 0.22109 0.45476 0.0
H672 H 0.72404 0.0093 0.11973 0.0
H673 H 0.73549 0.0791 0.00738 0.0
H674 H 0.73994 0.0426 0.93691 0.0
H675 H 0.72977 0.9918 0.90636 0.0
H676 H 0.71367 0.92298 0.01937 0.0
H677 H 0.72259 0.9577 0.09062 0.0
C678 C 0.72887 0.01628 0.08007 0.0
C679 C 0.72988 0.04654 0.06839 0.0
C680 C 0.73005 0.99527 0.03984 0.0
C681 C 0.73525 0.05574 0.01698 0.0
C682 C 0.7374 0.0349 0.97674 0.0
C683 C 0.72938 0.98425 0.94657 0.0
C684 C 0.72088 0.95504 0.95783 0.0
C685 C 0.73331 1.0047 0.98741 0.0
C686 C 0.72002 0.94548 0.01001 0.0
C687 C 0.72495 0.96534 0.05071 0.0
H688 H 0.00853 0.29448 0.11949 0.0
H689 H 0.93429 0.28014 0.01603 0.0
H690 H 0.96854 0.2711 0.9432 0.0
H691 H 0.01887 0.27844 0.90682 0.0
H692 H 0.09284 0.29347 0.01041 0.0
H693 H 0.05981 0.28998 0.08604 0.0
C694 C 1.00005 0.28824 0.08135 0.0
C695 C 0.96922 0.28816 0.07243 0.0
C696 C 0.01987 0.28328 0.03993 0.0
C697 C 0.95809 0.28025 0.02326 0.0
C698 C 0.97764 0.27526 0.98172 0.0
C699 C 0.02786 0.27928 0.94616 0.0
C700 C 0.05807 0.286 0.95354 0.0
C701 C 0.00851 0.27817 0.98914 0.0
C702 C 0.06965 0.28786 0.00428 0.0
C703 C 0.05068 0.28633 0.04736 0.0
H704 H 0.29059 0.02401 0.89489 0.0
H705 H 0.31041 0.09015 0.01118 0.0
H706 H 0.30283 0.05395 0.08055 0.0
H707 H 0.2998 1.00209 0.10673 0.0
H708 H 0.28485 0.93454 0.99149 0.0
H709 H 0.28057 0.97248 0.9231 0.0
C710 C 0.2923 0.03062 0.93549 0.0
C711 C 0.3012 0.05963 0.94801 0.0
C712 C 0.28898 0.00931 0.97526 0.0
C713 C 0.30376 0.06789 1.0007 0.0
C714 C 0.2995 0.04719 0.04035 0.0
C715 C 0.29432 0.99588 0.06697 0.0
C716 C 0.29209 0.96581 0.05404 0.0
C717 C 0.29337 0.01763 0.02796 0.0
C718 C 0.28592 0.95769 0.0023 0.0
C719 C 0.28393 0.97937 0.9632 0.0
H720 H 0.99237 0.7266 0.90326 0.0
H721 H 0.92537 0.71574 0.02218 0.0
H722 H 0.96339 0.71906 0.09013 0.0
H723 H 0.01618 0.71519 0.11422 0.0
H724 H 0.08379 0.72246 0.99591 0.0
H725 H 0.04532 0.73069 0.92909 0.0
C726 C 0.98604 0.72614 0.94412 0.0
C727 C 0.95618 0.72074 0.95784 0.0
C728 C 1.00827 0.72688 0.98296 0.0
C729 C 0.94825 0.71972 0.01084 0.0
C730 C 0.97001 0.72143 0.04965 0.0
C731 C 0.02239 0.71969 0.07404 0.0
C732 C 0.05253 0.71855 0.05968 0.0
C733 C 1.00018 0.72352 0.03602 0.0
C734 C 0.06062 0.72376 0.00763 0.0
C735 C 0.03862 0.72817 0.96949 0.0
H736 H 0.20547 0.40339 0.15077 0.0
H737 H 0.16317 0.32471 0.21032 0.0
H738 H 0.13971 0.31621 0.12571 0.0
H739 H 0.13 0.33179 0.03491 0.0
H740 H 0.17514 0.40813 0.9733 0.0
H741 H 0.19839 0.41709 0.05838 0.0
C742 C 0.19143 0.38418 0.14503 0.0
C743 C 0.18622 0.36471 0.18693 0.0
C744 C 0.17814 0.37923 0.09599 0.0
C745 C 0.16791 0.33991 0.17872 0.0
C746 C 0.15422 0.33515 0.1304 0.0
C747 C 0.14475 0.35048 0.04042 0.0
C748 C 0.15051 0.36956 0.99834 0.0
C749 C 0.15888 0.35483 0.08891 0.0
C750 C 0.17024 0.3933 0.00538 0.0
C751 C 0.18359 0.39836 0.05392 0.0
H752 H 0.3308 0.88772 0.97222 0.0
H753 H 0.39583 0.82698 0.03502 0.0
H754 H 0.4047 0.80662 0.94751 0.0
H755 H 0.3947 0.80725 0.85221 0.0
H756 H 0.32615 0.86539 0.79222 0.0
H757 H 0.31769 0.88528 0.87925 0.0
C758 C 0.34692 0.87003 0.96658 0.0
C759 C 0.36296 0.8591 0.00957 0.0
C760 C 0.35112 0.85783 0.91665 0.0
C761 C 0.38334 0.83578 0.00224 0.0
C762 C 0.38839 0.82417 0.95228 0.0
C763 C 0.3777 0.82401 0.85839 0.0
C764 C 0.36113 0.83477 0.81561 0.0
C765 C 0.37249 0.83511 0.90906 0.0
C766 C 0.33908 0.85645 0.82436 0.0
C767 C 0.33433 0.86806 0.87415 0.0
H768 H 0.88872 0.67559 0.01835 0.0
H769 H 0.80129 0.65057 0.96545 0.0
H770 H 0.78445 0.64603 0.05658 0.0
H771 H 0.79702 0.64456 0.15067 0.0
H772 H 0.88506 0.67138 0.20037 0.0
H773 H 0.89921 0.68052 0.11057 0.0
C774 C 0.86587 0.66959 0.02697 0.0
C775 C 0.84628 0.66295 0.98637 0.0
C776 C 0.8566 0.66733 0.07851 0.0
C777 C 0.8166 0.65558 0.99695 0.0
C778 C 0.80712 0.6529 0.04873 0.0
C779 C 0.81914 0.65272 0.14174 0.0
C780 C 0.84008 0.65682 0.18189 0.0
C781 C 0.82726 0.65798 0.08981 0.0
C782 C 0.86854 0.66788 0.17012 0.0
C783 C 0.87676 0.67303 0.1188 0.0
H784 H 0.62923 0.1338 0.99508 0.0
H785 H 0.7116 0.18051 0.01867 0.0
H786 H 0.70906 0.20004 0.92926 0.0
H787 H 0.68335 0.20308 0.84331 0.0
H788 H 0.59821 0.16037 0.82467 0.0
H789 H 0.60171 0.14016 0.91276 0.0
C790 C 0.64655 0.14829 0.98047 0.0
C791 C 0.67069 0.15554 0.01283 0.0
C792 C 0.64436 0.16021 0.9299 0.0
C793 C 0.69283 0.17468 0.99413 0.0
C794 C 0.69139 0.18578 0.94308 0.0
C795 C 0.66554 0.18955 0.8589 0.0
C796 C 0.64055 0.18327 0.82765 0.0
C797 C 0.66727 0.17864 0.91046 0.0
C798 C 0.61751 0.16582 0.84824 0.0
C799 C 0.61956 0.15407 0.8985 0.0
H800 H 0.20484 0.60839 0.8551 0.0
H801 H 0.14552 0.67592 0.79571 0.0
H802 H 0.12535 0.68392 0.88274 0.0
H803 H 0.12442 0.67207 0.97601 0.0
H804 H 0.18677 0.60846 0.03844 0.0
H805 H 0.20591 0.59856 0.95042 0.0
C806 C 0.18765 0.62494 0.86144 0.0
C807 C 0.17673 0.64151 0.81899 0.0
C808 C 0.17661 0.63007 0.91216 0.0
C809 C 0.15452 0.66302 0.82775 0.0
C810 C 0.14283 0.66754 0.87751 0.0
C811 C 0.14207 0.6559 0.97016 0.0
C812 C 0.15394 0.64071 0.01324 0.0
C813 C 0.15364 0.65118 0.91996 0.0
C814 C 0.17725 0.62031 0.00559 0.0
C815 C 0.18818 0.61468 0.95535 0.0
H816 H 0.60598 0.82119 0.15574 0.0
H817 H 0.69937 0.82295 0.19617 0.0
H818 H 0.71189 0.83466 0.10521 0.0
H819 H 0.69562 0.84789 0.01506 0.0
H820 H 0.60172 0.85022 0.97944 0.0
H821 H 0.59003 0.83309 0.06755 0.0
C822 C 0.62919 0.82366 0.14477 0.0
C823 C 0.65172 0.82098 0.18287 0.0
C824 C 0.63606 0.83123 0.09311 0.0
C825 C 0.68157 0.82479 0.16772 0.0
C826 C 0.68872 0.83155 0.11571 0.0
C827 C 0.6727 0.8441 0.02663 0.0
C828 C 0.64949 0.84995 0.99099 0.0
C829 C 0.66609 0.83528 0.07818 0.0
C830 C 0.61984 0.84568 0.00636 0.0
C831 C 0.61318 0.83598 0.05667 0.0
H832 H 0.87245 0.34958 0.82127 0.0
H833 H 0.79039 0.39675 0.85133 0.0
H834 H 0.79816 0.39122 0.94538 0.0
H835 H 0.82998 0.37508 0.01955 0.0
H836 H 0.91273 0.32968 0.98651 0.0
H837 H 0.90276 0.33222 0.89355 0.0
C838 C 0.85607 0.35847 0.84825 0.0
C839 C 0.83095 0.37359 0.82919 0.0
C840 C 0.86083 0.3556 0.90202 0.0
C841 C 0.81003 0.38503 0.86491 0.0
C842 C 0.81444 0.38191 0.91875 0.0
C843 C 0.84558 0.36555 0.9919 0.0
C844 C 0.87213 0.35245 0.00994 0.0
C845 C 0.84 0.36753 0.93785 0.0
C846 C 0.89226 0.34021 0.97369 0.0
C847 C 0.88661 0.34159 0.9204 0.0
H848 H 0.40071 0.15781 0.99022 0.0
H849 H 0.30864 0.18533 0.98744 0.0
H850 H 0.31134 0.19786 0.08076 0.0
H851 H 0.33996 0.19859 0.16452 0.0
H852 H 0.43255 0.17197 0.16265 0.0
H853 H 0.42944 0.16125 0.07003 0.0
C854 C 0.38124 0.16675 0.00989 0.0
C855 C 0.3545 0.17049 0.98224 0.0
C856 C 0.383 0.1738 0.06294 0.0
C857 C 0.32956 0.18243 0.00801 0.0
C858 C 0.33105 0.18935 0.06139 0.0
C859 C 0.35934 0.19046 0.14363 0.0
C860 C 0.38641 0.18606 0.17047 0.0
C861 C 0.3576 0.1847 0.08954 0.0
C862 C 0.41149 0.17576 0.14291 0.0
C863 C 0.40978 0.16955 0.08989 0.0
H864 H 0.68679 0.87295 0.48968 0.0
H865 H 0.59759 0.84127 0.51911 0.0
H866 H 0.60665 0.84216 0.61223 0.0
H867 H 0.63859 0.85301 0.68574 0.0
H868 H 0.72722 0.88679 0.66058 0.0
H869 H 0.7197 0.88389 0.5658 0.0
C870 C 0.66945 0.86622 0.51657 0.0
C871 C 0.6415 0.85729 0.49714 0.0
C872 C 0.67462 0.86711 0.57097 0.0
C873 C 0.61923 0.84861 0.53264 0.0
C874 C 0.62436 0.84897 0.58614 0.0
C875 C 0.65649 0.85949 0.65972 0.0
C876 C 0.68349 0.86991 0.68037 0.0
C877 C 0.65182 0.85833 0.60572 0.0
C878 C 0.7062 0.87858 0.64577 0.0
C879 C 0.70188 0.87698 0.59155 0.0
H880 H 0.88118 0.38435 0.48516 0.0
H881 H 0.81484 0.31973 0.52712 0.0
H882 H 0.81564 0.30014 0.43771 0.0
H883 H 0.83661 0.3009 0.34715 0.0
H884 H 0.90458 0.36478 0.31029 0.0
H885 H 0.90134 0.38545 0.39778 0.0
C886 C 0.86681 0.36596 0.47503 0.0
C887 C 0.8481 0.35348 0.51296 0.0
C888 C 0.86751 0.35484 0.4241 0.0
C889 C 0.82968 0.32964 0.49879 0.0
C890 C 0.83003 0.31851 0.4476 0.0
C891 C 0.85029 0.31956 0.35845 0.0
C892 C 0.87056 0.33161 0.3225 0.0
C893 C 0.84896 0.3309 0.40981 0.0
C894 C 0.88871 0.35537 0.33749 0.0
C895 C 0.88697 0.36713 0.38748 0.0
H896 H 0.35831 0.18374 0.67389 0.0
H897 H 0.2939 0.11436 0.65033 0.0
H898 H 0.30294 0.11602 0.55603 0.0
H899 H 0.33306 0.13424 0.48081 0.0
H900 H 0.39877 0.20189 0.50836 0.0
H901 H 0.38512 0.20403 0.60014 0.0
C902 C 0.34593 0.16914 0.64826 0.0
C903 C 0.32562 0.14882 0.66939 0.0
C904 C 0.35162 0.16983 0.5945 0.0
C905 C 0.30971 0.13024 0.63523 0.0
C906 C 0.31496 0.1311 0.58125 0.0
C907 C 0.34389 0.14975 0.50691 0.0
C908 C 0.36703 0.16774 0.48807 0.0
C909 C 0.33639 0.15037 0.56047 0.0
C910 C 0.3811 0.18763 0.5222 0.0
C911 C 0.37334 0.18887 0.57469 0.0
H912 H 0.18632 0.63483 0.47189 0.0
H913 H 0.11525 0.68895 0.53323 0.0
H914 H 0.10675 0.71043 0.4465 0.0
H915 H 0.118 0.71159 0.35209 0.0
H916 H 0.19158 0.65958 0.2931 0.0
H917 H 0.20092 0.63987 0.38005 0.0
C918 C 0.16906 0.6514 0.46612 0.0
C919 C 0.15115 0.66007 0.50831 0.0
C920 C 0.16487 0.66413 0.41669 0.0
C921 C 0.12922 0.68195 0.50098 0.0
C922 C 0.12435 0.69417 0.4515 0.0
C923 C 0.13635 0.69631 0.3585 0.0
C924 C 0.15396 0.68703 0.31609 0.0
C925 C 0.14185 0.68518 0.4089 0.0
C926 C 0.17777 0.6673 0.32504 0.0
C927 C 0.18303 0.65578 0.37472 0.0
H928 H 0.64792 0.18445 0.48382 0.0
H929 H 0.69762 0.11155 0.54903 0.0
H930 H 0.71739 0.09944 0.46206 0.0
H931 H 0.71758 0.10797 0.36601 0.0
H932 H 0.66976 0.1832 0.30368 0.0
H933 H 0.65229 0.19608 0.39079 0.0
C934 C 0.66334 0.16609 0.47897 0.0
C935 C 0.67115 0.14874 0.52242 0.0
C936 C 0.67481 0.15963 0.42929 0.0
C937 C 0.69141 0.12525 0.51603 0.0
C938 C 0.70253 0.11826 0.4663 0.0
C939 C 0.70361 0.12734 0.37172 0.0
C940 C 0.69492 0.14453 0.32828 0.0
C941 C 0.69396 0.13501 0.42241 0.0
C942 C 0.67697 0.1697 0.33634 0.0
C943 C 0.66682 0.17703 0.38616 0.0
H944 H 0.11784 0.30479 0.65094 0.0
H945 H 0.17765 0.36963 0.71626 0.0
H946 H 0.1887 0.38838 0.62948 0.0
H947 H 0.18091 0.38723 0.53506 0.0
H948 H 0.12447 0.32043 0.46747 0.0
H949 H 0.11272 0.30146 0.5547 0.0
C950 C 0.1334 0.32287 0.64594 0.0
C951 C 0.14687 0.33577 0.68991 0.0
C952 C 0.14026 0.33324 0.59554 0.0
C953 C 0.16715 0.35911 0.68301 0.0
C954 C 0.17342 0.36999 0.6334 0.0
C955 C 0.16604 0.36851 0.53955 0.0
C956 C 0.15335 0.35539 0.49526 0.0
C957 C 0.16001 0.35735 0.58945 0.0
C958 C 0.13451 0.33085 0.50125 0.0
C959 C 0.12774 0.32006 0.55104 0.0
H960 H 0.38085 0.8389 0.47248 0.0
H961 H 0.32932 0.91149 0.53409 0.0
H962 H 0.30852 0.92134 0.44713 0.0
H963 H 0.30554 0.90934 0.35291 0.0
H964 H 0.35397 0.83358 0.2943 0.0
H965 H 0.37512 0.82473 0.38047 0.0
C966 C 0.36521 0.85695 0.46662 0.0
C967 C 0.35694 0.87475 0.50911 0.0
C968 C 0.35256 0.86171 0.41711 0.0
C969 C 0.3361 0.89765 0.50162 0.0
C970 C 0.3242 0.90323 0.45201 0.0
C971 C 0.32046 0.89074 0.35922 0.0
C972 C 0.32808 0.87218 0.31713 0.0
C973 C 0.33224 0.88537 0.40939 0.0
C974 C 0.34743 0.84809 0.326 0.0
C975 C 0.35977 0.84309 0.37526 0.0
H976 H 0.86308 0.63614 0.6827 0.0
H977 H 0.88242 0.72863 0.65861 0.0
H978 H 0.87438 0.72253 0.56438 0.0
H979 H 0.86269 0.69004 0.48889 0.0
H980 H 0.84596 0.59734 0.51604 0.0
H981 H 0.85148 0.60453 0.6098 0.0
C982 C 0.86537 0.65511 0.65702 0.0
C983 C 0.87311 0.68282 0.67742 0.0
C984 C 0.86093 0.6514 0.60367 0.0
C985 C 0.8765 0.70704 0.64358 0.0
C986 C 0.87178 0.70359 0.58989 0.0
C987 C 0.85991 0.67167 0.5157 0.0
C988 C 0.85389 0.64328 0.49633 0.0
C989 C 0.864 0.67581 0.56953 0.0
C990 C 0.85071 0.61934 0.53066 0.0
C991 C 0.85391 0.62341 0.58403 0.0
H992 H 0.32262 0.24749 0.40161 0.0
H993 H 0.37189 0.28656 0.27469 0.0
H994 H 0.33791 0.3289 0.27386 0.0
H995 H 0.29124 0.35267 0.30379 0.0
H996 H 0.24271 0.31345 0.4316 0.0
H997 H 0.27946 0.27387 0.43778 0.0
C998 C 0.32608 0.26538 0.37405 0.0
C999 C 0.34957 0.26358 0.33787 0.0
C1000 C 0.30648 0.28977 0.3738 0.0
C1001 C 0.35395 0.28723 0.30294 0.0
C1002 C 0.33445 0.31149 0.3023 0.0
C1003 C 0.28904 0.33582 0.33366 0.0
C1004 C 0.26394 0.33592 0.36661 0.0
C1005 C 0.31024 0.31273 0.33683 0.0
C1006 C 0.26155 0.31382 0.40518 0.0
C1007 C 0.28255 0.29104 0.40874 0.0
H1008 H 0.23542 0.71012 0.60159 0.0
H1009 H 0.28544 0.6499 0.69938 0.0
H1010 H 0.32726 0.6841 0.70059 0.0
H1011 H 0.34838 0.73281 0.67972 0.0
H1012 H 0.2984 0.79312 0.58204 0.0
H1013 H 0.25828 0.75715 0.5747 0.0
C1014 C 0.25556 0.70431 0.62278 0.0
C1015 C 0.25696 0.6775 0.65082 0.0
C1016 C 0.27966 0.72422 0.6236 0.0
C1017 C 0.28347 0.67038 0.67766 0.0
C1018 C 0.30749 0.68999 0.67849 0.0
C1019 C 0.32891 0.73799 0.65626 0.0
C1020 C 0.32645 0.76588 0.63201 0.0
C1021 C 0.30564 0.71724 0.65247 0.0
C1022 C 0.30097 0.77199 0.60156 0.0
C1023 C 0.27789 0.75142 0.59738 0.0
H1024 H 0.65894 0.72278 0.31377 0.0
H1025 H 0.70431 0.78126 0.42078 0.0
H1026 H 0.74641 0.74754 0.42483 0.0
H1027 H 0.77279 0.70353 0.39256 0.0
H1028 H 0.72728 0.6429 0.29039 0.0
H1029 H 0.68316 0.67504 0.2902 0.0
C1030 C 0.67777 0.72788 0.3387 0.0
C1031 C 0.67836 0.75494 0.36615 0.0
C1032 C 0.70225 0.70809 0.34138 0.0
C1033 C 0.70308 0.76091 0.39856 0.0
C1034 C 0.7274 0.74162 0.40091 0.0
C1035 C 0.75309 0.69724 0.37068 0.0
C1036 C 0.75345 0.67104 0.34116 0.0
C1037 C 0.72761 0.71555 0.37148 0.0
C1038 C 0.72759 0.66296 0.31354 0.0
C1039 C 0.70236 0.6814 0.31325 0.0
H1040 H 0.77209 0.31516 0.61538 0.0
H1041 H 0.72071 0.37501 0.7106 0.0
H1042 H 0.67926 0.33958 0.71217 0.0
H1043 H 0.66025 0.28887 0.69397 0.0
H1044 H 0.71273 0.23062 0.59631 0.0
H1045 H 0.75081 0.26817 0.58784 0.0
C1046 C 0.75157 0.32063 0.63573 0.0
C1047 C 0.74942 0.34739 0.66318 0.0
C1048 C 0.72812 0.30027 0.63646 0.0
C1049 C 0.72273 0.35449 0.689 0.0
C1050 C 0.69918 0.33414 0.69022 0.0
C1051 C 0.67979 0.28459 0.67022 0.0
C1052 C 0.68378 0.25658 0.64687 0.0
C1053 C 0.70195 0.30653 0.66525 0.0
C1054 C 0.70917 0.25165 0.61568 0.0
C1055 C 0.73107 0.27316 0.61066 0.0
H1056 H 0.73742 0.80216 0.88052 0.0
H1057 H 0.79065 0.8753 0.82714 0.0
H1058 H 0.83512 0.84363 0.82632 0.0
H1059 H 0.85757 0.79311 0.83128 0.0
H1060 H 0.80295 0.72097 0.8853 0.0
H1061 H 0.76078 0.75422 0.89636 0.0
C1062 C 0.75883 0.81123 0.86928 0.0
C1063 C 0.76067 0.84081 0.85319 0.0
C1064 C 0.78419 0.79299 0.86897 0.0
C1065 C 0.78865 0.85248 0.83957 0.0
C1066 C 0.81408 0.83435 0.83889 0.0
C1067 C 0.83664 0.78498 0.84669 0.0
C1068 C 0.83324 0.7546 0.8568 0.0
C1069 C 0.812 0.8043 0.85225 0.0
C1070 C 0.80598 0.74424 0.87661 0.0
C1071 C 0.78177 0.7632 0.88283 0.0
H1072 H 0.7628 0.18851 0.09303 0.0
H1073 H 0.79906 0.14155 0.22563 0.0
H1074 H 0.84065 0.17621 0.22969 0.0
H1075 H 0.8623 0.22395 0.20363 0.0
H1076 H 0.82427 0.27162 0.07322 0.0
H1077 H 0.78795 0.23244 0.06013 0.0
C1078 C 0.78004 0.18556 0.12236 0.0
C1079 C 0.77752 0.16289 0.15962 0.0
C1080 C 0.80341 0.20592 0.12528 0.0
C1081 C 0.80034 0.15899 0.19671 0.0
C1082 C 0.82404 0.17892 0.19927 0.0
C1083 C 0.84643 0.22549 0.17175 0.0
C1084 C 0.84559 0.25095 0.14018 0.0
C1085 C 0.82515 0.20312 0.16501 0.0
C1086 C 0.82504 0.2525 0.09873 0.0
C1087 C 0.80425 0.23011 0.09116 0.0
H1088 H 0.15687 0.22954 0.83323 0.0
H1089 H 0.2138 0.29326 0.90943 0.0
H1090 H 0.25358 0.2566 0.9148 0.0
H1091 H 0.27426 0.20868 0.88879 0.0
H1092 H 0.21841 0.14428 0.81309 0.0
H1093 H 0.17594 0.17875 0.81742 0.0
C1094 C 0.17784 0.2353 0.85161 0.0
C1095 C 0.18243 0.26439 0.87 0.0
C1096 C 0.20084 0.21402 0.85453 0.0
C1097 C 0.20963 0.27125 0.89443 0.0
C1098 C 0.23248 0.25028 0.89747 0.0
C1099 C 0.25259 0.202 0.87415 0.0
C1100 C 0.24941 0.17419 0.85025 0.0
C1101 C 0.22862 0.22195 0.8763 0.0
C1102 C 0.22128 0.16556 0.83187 0.0
C1103 C 0.19713 0.18538 0.83391 0.0
H1104 H 0.16013 0.78608 0.17355 0.0
H1105 H 0.21056 0.72568 0.077 0.0
H1106 H 0.24977 0.76242 0.06727 0.0
H1107 H 0.27215 0.80981 0.09316 0.0
H1108 H 0.22186 0.87006 0.19022 0.0
H1109 H 0.18034 0.83548 0.1921 0.0
C1110 C 0.17947 0.78107 0.14973 0.0
C1111 C 0.18242 0.75289 0.1267 0.0
C1112 C 0.20223 0.80225 0.14464 0.0
C1113 C 0.20767 0.74701 0.09567 0.0
C1114 C 0.23023 0.76802 0.09013 0.0
C1115 C 0.25198 0.81559 0.11417 0.0
C1116 C 0.25045 0.84243 0.14207 0.0
C1117 C 0.22814 0.79543 0.11557 0.0
C1118 C 0.22391 0.84953 0.16867 0.0
C1119 C 0.20009 0.82969 0.16993 0.0
loop_
_geom_bond_atom_site_label_1
_geom_bond_atom_site_label_2
_geom_bond_distance
_geom_bond_site_symmetry_2
_ccdc_geom_bond_type
Fe0 O2 1.918 . S
Fe0 O5 1.997 . S
Fe0 O6 2.002 . S
Fe0 O11 1.976 . S
Fe0 O14 1.996 . S
Fe1 O2 1.918 . S
Fe1 O9 1.997 . S
Fe1 O12 1.996 . S
Fe1 O16 1.976 . S
Fe1 O19 2.002 . S
O2 Fe0 1.918 . S
O2 Fe1 1.918 . S
O2 Fe3 1.918 . S
Fe3 O2 1.918 . S
Fe3 O4 2.002 . S
Fe3 O13 1.976 . S
Fe3 O17 1.996 . S
Fe3 O20 1.997 . S
O4 Fe3 2.002 . S
O4 C21 1.295 . S
O5 Fe0 1.997 . S
O5 C21 1.235 . S
O6 Fe0 2.002 . S
O6 C7 1.295 . S
C7 O6 1.295 . S
C7 O9 1.235 . S
C8 O13 1.287 . S
C8 O14 1.255 . S
O9 Fe1 1.997 . S
O9 C7 1.235 . S
C10 O16 1.287 . S
C10 O17 1.255 . S
O11 Fe0 1.976 . S
O11 C18 1.287 . S
O12 Fe1 1.996 . S
O12 C18 1.255 . S
O13 Fe3 1.976 . S
O13 C8 1.287 . S
O14 Fe0 1.996 . S
O14 C8 1.255 . S
C15 O19 1.295 . S
C15 O20 1.235 . S
O16 Fe1 1.976 . S
O16 C10 1.287 . S
O17 Fe3 1.996 . S
O17 C10 1.255 . S
C18 O11 1.287 . S
C18 O12 1.255 . S
O19 Fe1 2.002 . S
O19 C15 1.295 . S
O20 Fe3 1.997 . S
O20 C15 1.235 . S
C21 O4 1.295 . S
C21 O5 1.235 . S
Fe22 O24 1.918 . S
Fe22 O27 1.997 . S
Fe22 O28 2.002 . S
Fe22 O33 1.976 . S
Fe22 O36 1.996 . S
Fe23 O24 1.918 . S
Fe23 O31 1.997 . S
Fe23 O34 1.996 . S
Fe23 O38 1.976 . S
Fe23 O41 2.002 . S
O24 Fe22 1.918 . S
O24 Fe23 1.918 . S
O24 Fe25 1.918 . S
Fe25 O24 1.918 . S
Fe25 O26 2.002 . S
Fe25 O35 1.976 . S
Fe25 O39 1.996 . S
Fe25 O42 1.997 . S
O26 Fe25 2.002 . S
O26 C43 1.295 . S
O27 Fe22 1.997 . S
O27 C43 1.235 . S
O28 Fe22 2.002 . S
O28 C29 1.295 . S
C29 O28 1.295 . S
C29 O31 1.235 . S
C30 O35 1.287 . S
C30 O36 1.255 . S
O31 Fe23 1.997 . S
O31 C29 1.235 . S
C32 O38 1.287 . S
C32 O39 1.255 . S
O33 Fe22 1.976 . S
O33 C40 1.287 . S
O34 Fe23 1.996 . S
O34 C40 1.255 . S
O35 Fe25 1.976 . S
O35 C30 1.287 . S
O36 Fe22 1.996 . S
O36 C30 1.255 . S
C37 O41 1.295 . S
C37 O42 1.235 . S
O38 Fe23 1.976 . S
O38 C32 1.287 . S
O39 Fe25 1.996 . S
O39 C32 1.255 . S
C40 O33 1.287 . S
C40 O34 1.255 . S
O41 Fe23 2.002 . S
O41 C37 1.295 . S
O42 Fe25 1.997 . S
O42 C37 1.235 . S
C43 O26 1.295 . S
C43 O27 1.235 . S
Fe44 O46 1.918 . S
Fe44 O49 1.997 . S
Fe44 O50 2.002 . S
Fe44 O55 1.976 . S
Fe44 O58 1.996 . S
Fe45 O46 1.918 . S
Fe45 O53 1.997 . S
Fe45 O56 1.996 . S
Fe45 O60 1.976 . S
Fe45 O63 2.002 . S
O46 Fe44 1.918 . S
O46 Fe45 1.918 . S
O46 Fe47 1.918 . S
Fe47 O46 1.918 . S
Fe47 O48 2.002 . S
Fe47 O57 1.976 . S
Fe47 O61 1.996 . S
Fe47 O64 1.997 . S
O48 Fe47 2.002 . S
O48 C65 1.295 . S
O49 Fe44 1.997 . S
O49 C65 1.235 . S
O50 Fe44 2.002 . S
O50 C51 1.295 . S
C51 O50 1.295 . S
C51 O53 1.235 . S
C52 O57 1.287 . S
C52 O58 1.255 . S
O53 Fe45 1.997 . S
O53 C51 1.235 . S
C54 O60 1.287 . S
C54 O61 1.255 . S
O55 Fe44 1.976 . S
O55 C62 1.287 . S
O56 Fe45 1.996 . S
O56 C62 1.255 . S
O57 Fe47 1.976 . S
O57 C52 1.287 . S
O58 Fe44 1.996 . S
O58 C52 1.255 . S
C59 O63 1.295 . S
C59 O64 1.235 . S
O60 Fe45 1.976 . S
O60 C54 1.287 . S
O61 Fe47 1.996 . S
O61 C54 1.255 . S
C62 O55 1.287 . S
C62 O56 1.255 . S
O63 Fe45 2.002 . S
O63 C59 1.295 . S
O64 Fe47 1.997 . S
O64 C59 1.235 . S
C65 O48 1.295 . S
C65 O49 1.235 . S
Fe66 O68 1.918 . S
Fe66 O71 1.997 . S
Fe66 O72 2.002 . S
Fe66 O77 1.976 . S
Fe66 O80 1.996 . S
Fe67 O68 1.918 . S
Fe67 O75 1.997 . S
Fe67 O78 1.996 . S
Fe67 O82 1.976 . S
Fe67 O85 2.002 . S
O68 Fe66 1.918 . S
O68 Fe67 1.918 . S
O68 Fe69 1.918 . S
Fe69 O68 1.918 . S
Fe69 O70 2.002 . S
Fe69 O79 1.976 . S
Fe69 O83 1.996 . S
Fe69 O86 1.997 . S
O70 Fe69 2.002 . S
O70 C87 1.295 . S
O71 Fe66 1.997 . S
O71 C87 1.235 . S
O72 Fe66 2.002 . S
O72 C73 1.295 . S
C73 O72 1.295 . S
C73 O75 1.235 . S
C74 O79 1.287 . S
C74 O80 1.255 . S
O75 Fe67 1.997 . S
O75 C73 1.235 . S
C76 O82 1.287 . S
C76 O83 1.255 . S
O77 Fe66 1.976 . S
O77 C84 1.287 . S
O78 Fe67 1.996 . S
O78 C84 1.255 . S
O79 Fe69 1.976 . S
O79 C74 1.287 . S
O80 Fe66 1.996 . S
O80 C74 1.255 . S
C81 O85 1.295 . S
C81 O86 1.235 . S
O82 Fe67 1.976 . S
O82 C76 1.287 . S
O83 Fe69 1.996 . S
O83 C76 1.255 . S
C84 O77 1.287 . S
C84 O78 1.255 . S
O85 Fe67 2.002 . S
O85 C81 1.295 . S
O86 Fe69 1.997 . S
O86 C81 1.235 . S
C87 O70 1.295 . S
C87 O71 1.235 . S
Fe88 O90 1.918 . S
Fe88 O93 1.997 . S
Fe88 O94 2.002 . S
Fe88 O99 1.976 . S
Fe88 O102 1.996 . S
Fe89 O90 1.918 . S
Fe89 O97 1.997 . S
Fe89 O100 1.996 . S
Fe89 O104 1.976 . S
Fe89 O107 2.002 . S
O90 Fe88 1.918 . S
O90 Fe89 1.918 . S
O90 Fe91 1.918 . S
Fe91 O90 1.918 . S
Fe91 O92 2.002 . S
Fe91 O101 1.976 . S
Fe91 O105 1.996 . S
Fe91 O108 1.997 . S
O92 Fe91 2.002 . S
O92 C109 1.295 . S
O93 Fe88 1.997 . S
O93 C109 1.235 . S
O94 Fe88 2.002 . S
O94 C95 1.295 . S
C95 O94 1.295 . S
C95 O97 1.235 . S
C96 O101 1.287 . S
C96 O102 1.255 . S
O97 Fe89 1.997 . S
O97 C95 1.235 . S
C98 O104 1.287 . S
C98 O105 1.255 . S
O99 Fe88 1.976 . S
O99 C106 1.287 . S
O100 Fe89 1.996 . S
O100 C106 1.255 . S
O101 Fe91 1.976 . S
O101 C96 1.287 . S
O102 Fe88 1.996 . S
O102 C96 1.255 . S
C103 O107 1.295 . S
C103 O108 1.235 . S
O104 Fe89 1.976 . S
O104 C98 1.287 . S
O105 Fe91 1.996 . S
O105 C98 1.255 . S
C106 O99 1.287 . S
C106 O100 1.255 . S
O107 Fe89 2.002 . S
O107 C103 1.295 . S
O108 Fe91 1.997 . S
O108 C103 1.235 . S
C109 O92 1.295 . S
C109 O93 1.235 . S
Fe110 O112 1.918 . S
Fe110 O115 1.997 . S
Fe110 O116 2.002 . S
Fe110 O121 1.976 . S
Fe110 O124 1.996 . S
Fe111 O112 1.918 . S
Fe111 O119 1.997 . S
Fe111 O122 1.996 . S
Fe111 O126 1.976 . S
Fe111 O129 2.002 . S
O112 Fe110 1.918 . S
O112 Fe111 1.918 . S
O112 Fe113 1.918 . S
Fe113 O112 1.918 . S
Fe113 O114 2.002 . S
Fe113 O123 1.976 . S
Fe113 O127 1.996 . S
Fe113 O130 1.997 . S
O114 Fe113 2.002 . S
O114 C131 1.295 . S
O115 Fe110 1.997 . S
O115 C131 1.235 . S
O116 Fe110 2.002 . S
O116 C117 1.295 . S
C117 O116 1.295 . S
C117 O119 1.235 . S
C118 O123 1.287 . S
C118 O124 1.255 . S
O119 Fe111 1.997 . S
O119 C117 1.235 . S
C120 O126 1.287 . S
C120 O127 1.255 . S
O121 Fe110 1.976 . S
O121 C128 1.287 . S
O122 Fe111 1.996 . S
O122 C128 1.255 . S
O123 Fe113 1.976 . S
O123 C118 1.287 . S
O124 Fe110 1.996 . S
O124 C118 1.255 . S
C125 O129 1.295 . S
C125 O130 1.235 . S
O126 Fe111 1.976 . S
O126 C120 1.287 . S
O127 Fe113 1.996 . S
O127 C120 1.255 . S
C128 O121 1.287 . S
C128 O122 1.255 . S
O129 Fe111 2.002 . S
O129 C125 1.295 . S
O130 Fe113 1.997 . S
O130 C125 1.235 . S
C131 O114 1.295 . S
C131 O115 1.235 . S
Fe132 O134 1.918 . S
Fe132 O137 1.997 . S
Fe132 O138 2.002 . S
Fe132 O143 1.976 . S
Fe132 O146 1.996 . S
Fe133 O134 1.918 . S
Fe133 O141 1.997 . S
Fe133 O144 1.996 . S
Fe133 O148 1.976 . S
Fe133 O151 2.002 . S
O134 Fe132 1.918 . S
O134 Fe133 1.918 . S
O134 Fe135 1.918 . S
Fe135 O134 1.918 . S
Fe135 O136 2.002 . S
Fe135 O145 1.976 . S
Fe135 O149 1.996 . S
Fe135 O152 1.997 . S
O136 Fe135 2.002 . S
O136 C153 1.295 . S
O137 Fe132 1.997 . S
O137 C153 1.235 . S
O138 Fe132 2.002 . S
O138 C139 1.295 . S
C139 O138 1.295 . S
C139 O141 1.235 . S
C140 O145 1.287 . S
C140 O146 1.255 . S
O141 Fe133 1.997 . S
O141 C139 1.235 . S
C142 O148 1.287 . S
C142 O149 1.255 . S
O143 Fe132 1.976 . S
O143 C150 1.287 . S
O144 Fe133 1.996 . S
O144 C150 1.255 . S
O145 Fe135 1.976 . S
O145 C140 1.287 . S
O146 Fe132 1.996 . S
O146 C140 1.255 . S
C147 O151 1.295 . S
C147 O152 1.235 . S
O148 Fe133 1.976 . S
O148 C142 1.287 . S
O149 Fe135 1.996 . S
O149 C142 1.255 . S
C150 O143 1.287 . S
C150 O144 1.255 . S
O151 Fe133 2.002 . S
O151 C147 1.295 . S
O152 Fe135 1.997 . S
O152 C147 1.235 . S
C153 O136 1.295 . S
C153 O137 1.235 . S
Fe154 O156 1.918 . S
Fe154 O159 1.997 . S
Fe154 O160 2.002 . S
Fe154 O165 1.976 . S
Fe154 O168 1.996 . S
Fe155 O156 1.918 . S
Fe155 O163 1.997 . S
Fe155 O166 1.996 . S
Fe155 O170 1.976 . S
Fe155 O173 2.002 . S
O156 Fe154 1.918 . S
O156 Fe155 1.918 . S
O156 Fe157 1.918 . S
Fe157 O156 1.918 . S
Fe157 O158 2.002 . S
Fe157 O167 1.976 . S
Fe157 O171 1.996 . S
Fe157 O174 1.997 . S
O158 Fe157 2.002 . S
O158 C175 1.295 . S
O159 Fe154 1.997 . S
O159 C175 1.235 . S
O160 Fe154 2.002 . S
O160 C161 1.295 . S
C161 O160 1.295 . S
C161 O163 1.235 . S
C162 O167 1.287 . S
C162 O168 1.255 . S
O163 Fe155 1.997 . S
O163 C161 1.235 . S
C164 O170 1.287 . S
C164 O171 1.255 . S
O165 Fe154 1.976 . S
O165 C172 1.287 . S
O166 Fe155 1.996 . S
O166 C172 1.255 . S
O167 Fe157 1.976 . S
O167 C162 1.287 . S
O168 Fe154 1.996 . S
O168 C162 1.255 . S
C169 O173 1.295 . S
C169 O174 1.235 . S
O170 Fe155 1.976 . S
O170 C164 1.287 . S
O171 Fe157 1.996 . S
O171 C164 1.255 . S
C172 O165 1.287 . S
C172 O166 1.255 . S
O173 Fe155 2.002 . S
O173 C169 1.295 . S
O174 Fe157 1.997 . S
O174 C169 1.235 . S
C175 O158 1.295 . S
C175 O159 1.235 . S
Fe176 O178 1.918 . S
Fe176 O181 1.997 . S
Fe176 O182 2.002 . S
Fe176 O187 1.976 . S
Fe176 O190 1.996 . S
Fe177 O178 1.918 . S
Fe177 O185 1.997 . S
Fe177 O188 1.996 . S
Fe177 O192 1.976 . S
Fe177 O195 2.002 . S
O178 Fe176 1.918 . S
O178 Fe177 1.918 . S
O178 Fe179 1.918 . S
Fe179 O178 1.918 . S
Fe179 O180 2.002 . S
Fe179 O189 1.976 . S
Fe179 O193 1.996 . S
Fe179 O196 1.997 . S
O180 Fe179 2.002 . S
O180 C197 1.295 . S
O181 Fe176 1.997 . S
O181 C197 1.235 . S
O182 Fe176 2.002 . S
O182 C183 1.295 . S
C183 O182 1.295 . S
C183 O185 1.235 . S
C184 O189 1.287 . S
C184 O190 1.255 . S
O185 Fe177 1.997 . S
O185 C183 1.235 . S
C186 O192 1.287 . S
C186 O193 1.255 . S
O187 Fe176 1.976 . S
O187 C194 1.287 . S
O188 Fe177 1.996 . S
O188 C194 1.255 . S
O189 Fe179 1.976 . S
O189 C184 1.287 . S
O190 Fe176 1.996 . S
O190 C184 1.255 . S
C191 O195 1.295 . S
C191 O196 1.235 . S
O192 Fe177 1.976 . S
O192 C186 1.287 . S
O193 Fe179 1.996 . S
O193 C186 1.255 . S
C194 O187 1.287 . S
C194 O188 1.255 . S
O195 Fe177 2.002 . S
O195 C191 1.295 . S
O196 Fe179 1.997 . S
O196 C191 1.235 . S
C197 O180 1.295 . S
C197 O181 1.235 . S
Fe198 O200 1.918 . S
Fe198 O203 1.997 . S
Fe198 O204 2.002 . S
Fe198 O209 1.976 . S
Fe198 O212 1.996 . S
Fe199 O200 1.918 . S
Fe199 O207 1.997 . S
Fe199 O210 1.996 . S
Fe199 O214 1.976 . S
Fe199 O217 2.002 . S
O200 Fe198 1.918 . S
O200 Fe199 1.918 . S
O200 Fe201 1.918 . S
Fe201 O200 1.918 . S
Fe201 O202 2.002 . S
Fe201 O211 1.976 . S
Fe201 O215 1.996 . S
Fe201 O218 1.997 . S
O202 Fe201 2.002 . S
O202 C219 1.295 . S
O203 Fe198 1.997 . S
O203 C219 1.235 . S
O204 Fe198 2.002 . S
O204 C205 1.295 . S
C205 O204 1.295 . S
C205 O207 1.235 . S
C206 O211 1.287 . S
C206 O212 1.255 . S
O207 Fe199 1.997 . S
O207 C205 1.235 . S
C208 O214 1.287 . S
C208 O215 1.255 . S
O209 Fe198 1.976 . S
O209 C216 1.287 . S
O210 Fe199 1.996 . S
O210 C216 1.255 . S
O211 Fe201 1.976 . S
O211 C206 1.287 . S
O212 Fe198 1.996 . S
O212 C206 1.255 . S
C213 O217 1.295 . S
C213 O218 1.235 . S
O214 Fe199 1.976 . S
O214 C208 1.287 . S
O215 Fe201 1.996 . S
O215 C208 1.255 . S
C216 O209 1.287 . S
C216 O210 1.255 . S
O217 Fe199 2.002 . S
O217 C213 1.295 . S
O218 Fe201 1.997 . S
O218 C213 1.235 . S
C219 O202 1.295 . S
C219 O203 1.235 . S
Fe220 O222 1.918 . S
Fe220 O225 1.997 . S
Fe220 O226 2.002 . S
Fe220 O231 1.976 . S
Fe220 O234 1.996 . S
Fe221 O222 1.918 . S
Fe221 O229 1.997 . S
Fe221 O232 1.996 . S
Fe221 O236 1.976 . S
Fe221 O239 2.002 . S
O222 Fe220 1.918 . S
O222 Fe221 1.918 . S
O222 Fe223 1.918 . S
Fe223 O222 1.918 . S
Fe223 O224 2.002 . S
Fe223 O233 1.976 . S
Fe223 O237 1.996 . S
Fe223 O240 1.997 . S
O224 Fe223 2.002 . S
O224 C241 1.295 . S
O225 Fe220 1.997 . S
O225 C241 1.235 . S
O226 Fe220 2.002 . S
O226 C227 1.295 . S
C227 O226 1.295 . S
C227 O229 1.235 . S
C228 O233 1.287 . S
C228 O234 1.255 . S
O229 Fe221 1.997 . S
O229 C227 1.235 . S
C230 O236 1.287 . S
C230 O237 1.255 . S
O231 Fe220 1.976 . S
O231 C238 1.287 . S
O232 Fe221 1.996 . S
O232 C238 1.255 . S
O233 Fe223 1.976 . S
O233 C228 1.287 . S
O234 Fe220 1.996 . S
O234 C228 1.255 . S
C235 O239 1.295 . S
C235 O240 1.235 . S
O236 Fe221 1.976 . S
O236 C230 1.287 . S
O237 Fe223 1.996 . S
O237 C230 1.255 . S
C238 O231 1.287 . S
C238 O232 1.255 . S
O239 Fe221 2.002 . S
O239 C235 1.295 . S
O240 Fe223 1.997 . S
O240 C235 1.235 . S
C241 O224 1.295 . S
C241 O225 1.235 . S
Fe242 O244 1.918 . S
Fe242 O247 1.997 . S
Fe242 O248 2.002 . S
Fe242 O253 1.976 . S
Fe242 O256 1.996 . S
Fe243 O244 1.918 . S
Fe243 O251 1.997 . S
Fe243 O254 1.996 . S
Fe243 O258 1.976 . S
Fe243 O261 2.002 . S
O244 Fe242 1.918 . S
O244 Fe243 1.918 . S
O244 Fe245 1.918 . S
Fe245 O244 1.918 . S
Fe245 O246 2.002 . S
Fe245 O255 1.976 . S
Fe245 O259 1.996 . S
Fe245 O262 1.997 . S
O246 Fe245 2.002 . S
O246 C263 1.295 . S
O247 Fe242 1.997 . S
O247 C263 1.235 . S
O248 Fe242 2.002 . S
O248 C249 1.295 . S
C249 O248 1.295 . S
C249 O251 1.235 . S
C250 O255 1.287 . S
C250 O256 1.255 . S
O251 Fe243 1.997 . S
O251 C249 1.235 . S
C252 O258 1.287 . S
C252 O259 1.255 . S
O253 Fe242 1.976 . S
O253 C260 1.287 . S
O254 Fe243 1.996 . S
O254 C260 1.255 . S
O255 Fe245 1.976 . S
O255 C250 1.287 . S
O256 Fe242 1.996 . S
O256 C250 1.255 . S
C257 O261 1.295 . S
C257 O262 1.235 . S
O258 Fe243 1.976 . S
O258 C252 1.287 . S
O259 Fe245 1.996 . S
O259 C252 1.255 . S
C260 O253 1.287 . S
C260 O254 1.255 . S
O261 Fe243 2.002 . S
O261 C257 1.295 . S
O262 Fe245 1.997 . S
O262 C257 1.235 . S
C263 O246 1.295 . S
C263 O247 1.235 . S
Fe264 O266 1.918 . S
Fe264 O269 1.997 . S
Fe264 O270 2.002 . S
Fe264 O275 1.976 . S
Fe264 O278 1.996 . S
Fe265 O266 1.918 . S
Fe265 O273 1.997 . S
Fe265 O276 1.996 . S
Fe265 O280 1.976 . S
Fe265 O283 2.002 . S
O266 Fe264 1.918 . S
O266 Fe265 1.918 . S
O266 Fe267 1.918 . S
Fe267 O266 1.918 . S
Fe267 O268 2.002 . S
Fe267 O277 1.976 . S
Fe267 O281 1.996 . S
Fe267 O284 1.997 . S
O268 Fe267 2.002 . S
O268 C285 1.295 . S
O269 Fe264 1.997 . S
O269 C285 1.235 . S
O270 Fe264 2.002 . S
O270 C271 1.295 . S
C271 O270 1.295 . S
C271 O273 1.235 . S
C272 O277 1.287 . S
C272 O278 1.255 . S
O273 Fe265 1.997 . S
O273 C271 1.235 . S
C274 O280 1.287 . S
C274 O281 1.255 . S
O275 Fe264 1.976 . S
O275 C282 1.287 . S
O276 Fe265 1.996 . S
O276 C282 1.255 . S
O277 Fe267 1.976 . S
O277 C272 1.287 . S
O278 Fe264 1.996 . S
O278 C272 1.255 . S
C279 O283 1.295 . S
C279 O284 1.235 . S
O280 Fe265 1.976 . S
O280 C274 1.287 . S
O281 Fe267 1.996 . S
O281 C274 1.255 . S
C282 O275 1.287 . S
C282 O276 1.255 . S
O283 Fe265 2.002 . S
O283 C279 1.295 . S
O284 Fe267 1.997 . S
O284 C279 1.235 . S
C285 O268 1.295 . S
C285 O269 1.235 . S
Fe286 O288 1.918 . S
Fe286 O291 1.997 . S
Fe286 O292 2.002 . S
Fe286 O297 1.976 . S
Fe286 O300 1.996 . S
Fe287 O288 1.918 . S
Fe287 O295 1.997 . S
Fe287 O298 1.996 . S
Fe287 O302 1.976 . S
Fe287 O305 2.002 . S
O288 Fe286 1.918 . S
O288 Fe287 1.918 . S
O288 Fe289 1.918 . S
Fe289 O288 1.918 . S
Fe289 O290 2.002 . S
Fe289 O299 1.976 . S
Fe289 O303 1.996 . S
Fe289 O306 1.997 . S
O290 Fe289 2.002 . S
O290 C307 1.295 . S
O291 Fe286 1.997 . S
O291 C307 1.235 . S
O292 Fe286 2.002 . S
O292 C293 1.295 . S
C293 O292 1.295 . S
C293 O295 1.235 . S
C294 O299 1.287 . S
C294 O300 1.255 . S
O295 Fe287 1.997 . S
O295 C293 1.235 . S
C296 O302 1.287 . S
C296 O303 1.255 . S
O297 Fe286 1.976 . S
O297 C304 1.287 . S
O298 Fe287 1.996 . S
O298 C304 1.255 . S
O299 Fe289 1.976 . S
O299 C294 1.287 . S
O300 Fe286 1.996 . S
O300 C294 1.255 . S
C301 O305 1.295 . S
C301 O306 1.235 . S
O302 Fe287 1.976 . S
O302 C296 1.287 . S
O303 Fe289 1.996 . S
O303 C296 1.255 . S
C304 O297 1.287 . S
C304 O298 1.255 . S
O305 Fe287 2.002 . S
O305 C301 1.295 . S
O306 Fe289 1.997 . S
O306 C301 1.235 . S
C307 O290 1.295 . S
C307 O291 1.235 . S
Fe308 O310 1.918 . S
Fe308 O313 1.997 . S
Fe308 O314 2.002 . S
Fe308 O319 1.976 . S
Fe308 O322 1.996 . S
Fe309 O310 1.918 . S
Fe309 O317 1.997 . S
Fe309 O320 1.996 . S
Fe309 O324 1.976 . S
Fe309 O327 2.002 . S
O310 Fe308 1.918 . S
O310 Fe309 1.918 . S
O310 Fe311 1.918 . S
Fe311 O310 1.918 . S
Fe311 O312 2.002 . S
Fe311 O321 1.976 . S
Fe311 O325 1.996 . S
Fe311 O328 1.997 . S
O312 Fe311 2.002 . S
O312 C329 1.295 . S
O313 Fe308 1.997 . S
O313 C329 1.235 . S
O314 Fe308 2.002 . S
O314 C315 1.295 . S
C315 O314 1.295 . S
C315 O317 1.235 . S
C316 O321 1.287 . S
C316 O322 1.255 . S
O317 Fe309 1.997 . S
O317 C315 1.235 . S
C318 O324 1.287 . S
C318 O325 1.255 . S
O319 Fe308 1.976 . S
O319 C326 1.287 . S
O320 Fe309 1.996 . S
O320 C326 1.255 . S
O321 Fe311 1.976 . S
O321 C316 1.287 . S
O322 Fe308 1.996 . S
O322 C316 1.255 . S
C323 O327 1.295 . S
C323 O328 1.235 . S
O324 Fe309 1.976 . S
O324 C318 1.287 . S
O325 Fe311 1.996 . S
O325 C318 1.255 . S
C326 O319 1.287 . S
C326 O320 1.255 . S
O327 Fe309 2.002 . S
O327 C323 1.295 . S
O328 Fe311 1.997 . S
O328 C323 1.235 . S
C329 O312 1.295 . S
C329 O313 1.235 . S
Fe330 O332 1.918 . S
Fe330 O335 1.997 . S
Fe330 O336 2.002 . S
Fe330 O341 1.976 . S
Fe330 O344 1.996 . S
Fe331 O332 1.918 . S
Fe331 O339 1.997 . S
Fe331 O342 1.996 . S
Fe331 O346 1.976 . S
Fe331 O349 2.002 . S
O332 Fe330 1.918 . S
O332 Fe331 1.918 . S
O332 Fe333 1.918 . S
Fe333 O332 1.918 . S
Fe333 O334 2.002 . S
Fe333 O343 1.976 . S
Fe333 O347 1.996 . S
Fe333 O350 1.997 . S
O334 Fe333 2.002 . S
O334 C351 1.295 . S
O335 Fe330 1.997 . S
O335 C351 1.235 . S
O336 Fe330 2.002 . S
O336 C337 1.295 . S
C337 O336 1.295 . S
C337 O339 1.235 . S
C338 O343 1.287 . S
C338 O344 1.255 . S
O339 Fe331 1.997 . S
O339 C337 1.235 . S
C340 O346 1.287 . S
C340 O347 1.255 . S
O341 Fe330 1.976 . S
O341 C348 1.287 . S
O342 Fe331 1.996 . S
O342 C348 1.255 . S
O343 Fe333 1.976 . S
O343 C338 1.287 . S
O344 Fe330 1.996 . S
O344 C338 1.255 . S
C345 O349 1.295 . S
C345 O350 1.235 . S
O346 Fe331 1.976 . S
O346 C340 1.287 . S
O347 Fe333 1.996 . S
O347 C340 1.255 . S
C348 O341 1.287 . S
C348 O342 1.255 . S
O349 Fe331 2.002 . S
O349 C345 1.295 . S
O350 Fe333 1.997 . S
O350 C345 1.235 . S
C351 O334 1.295 . S
C351 O335 1.235 . S
H352 C358 0.930 . S
H353 C361 0.930 . S
H354 C362 0.930 . S
H355 C363 0.930 . S
H356 C366 0.930 . S
H357 C367 0.930 . S
C358 H352 0.930 . S
C358 C359 1.355 . S
C358 C360 1.415 . S
C359 C358 1.355 . S
C359 C361 1.419 . S
C360 C358 1.415 . S
C360 C365 1.425 . S
C360 C367 1.409 . S
C361 H353 0.930 . S
C361 C359 1.419 . S
C361 C362 1.362 . S
C362 H354 0.930 . S
C362 C361 1.362 . S
C362 C365 1.409 . S
C363 H355 0.930 . S
C363 C364 1.355 . S
C363 C365 1.415 . S
C364 C363 1.355 . S
C364 C366 1.419 . S
C365 C360 1.425 . S
C365 C362 1.409 . S
C365 C363 1.415 . S
C366 H356 0.930 . S
C366 C364 1.419 . S
C366 C367 1.362 . S
C367 H357 0.930 . S
C367 C360 1.409 . S
C367 C366 1.362 . S
H368 C374 0.930 . S
H369 C377 0.930 . S
H370 C378 0.930 . S
H371 C379 0.930 . S
H372 C382 0.930 . S
H373 C383 0.930 . S
C374 H368 0.930 . S
C374 C375 1.355 . S
C374 C376 1.415 . S
C375 C374 1.355 . S
C375 C377 1.419 . S
C376 C374 1.415 . S
C376 C381 1.425 . S
C376 C383 1.409 . S
C377 H369 0.930 . S
C377 C375 1.419 . S
C377 C378 1.362 . S
C378 H370 0.930 . S
C378 C377 1.362 . S
C378 C381 1.409 . S
C379 H371 0.930 . S
C379 C380 1.355 . S
C379 C381 1.415 . S
C380 C379 1.355 . S
C380 C382 1.419 . S
C381 C376 1.425 . S
C381 C378 1.409 . S
C381 C379 1.415 . S
C382 H372 0.930 . S
C382 C380 1.419 . S
C382 C383 1.362 . S
C383 H373 0.930 . S
C383 C376 1.409 . S
C383 C382 1.362 . S
H384 C390 0.930 . S
H385 C393 0.930 . S
H386 C394 0.930 . S
H387 C395 0.930 . S
H388 C398 0.930 . S
H389 C399 0.930 . S
C390 H384 0.930 . S
C390 C391 1.355 . S
C390 C392 1.415 . S
C391 C390 1.355 . S
C391 C393 1.419 . S
C392 C390 1.415 . S
C392 C397 1.425 . S
C392 C399 1.409 . S
C393 H385 0.930 . S
C393 C391 1.419 . S
C393 C394 1.362 . S
C394 H386 0.930 . S
C394 C393 1.362 . S
C394 C397 1.409 . S
C395 H387 0.930 . S
C395 C396 1.355 . S
C395 C397 1.415 . S
C396 C395 1.355 . S
C396 C398 1.419 . S
C397 C392 1.425 . S
C397 C394 1.409 . S
C397 C395 1.415 . S
C398 H388 0.930 . S
C398 C396 1.419 . S
C398 C399 1.362 . S
C399 H389 0.930 . S
C399 C392 1.409 . S
C399 C398 1.362 . S
H400 C406 0.930 . S
H401 C409 0.930 . S
H402 C410 0.930 . S
H403 C411 0.930 . S
H404 C414 0.930 . S
H405 C415 0.930 . S
C406 H400 0.930 . S
C406 C407 1.355 . S
C406 C408 1.415 . S
C407 C406 1.355 . S
C407 C409 1.419 . S
C408 C406 1.415 . S
C408 C413 1.425 . S
C408 C415 1.409 . S
C409 H401 0.930 . S
C409 C407 1.419 . S
C409 C410 1.362 . S
C410 H402 0.930 . S
C410 C409 1.362 . S
C410 C413 1.409 . S
C411 H403 0.930 . S
C411 C412 1.355 . S
C411 C413 1.415 . S
C412 C411 1.355 . S
C412 C414 1.419 . S
C413 C408 1.425 . S
C413 C410 1.409 . S
C413 C411 1.415 . S
C414 H404 0.930 . S
C414 C412 1.419 . S
C414 C415 1.362 . S
C415 H405 0.930 . S
C415 C408 1.409 . S
C415 C414 1.362 . S
H416 C422 0.930 . S
H417 C425 0.930 . S
H418 C426 0.930 . S
H419 C427 0.930 . S
H420 C430 0.930 . S
H421 C431 0.930 . S
C422 H416 0.930 . S
C422 C423 1.355 . S
C422 C424 1.415 . S
C423 C422 1.355 . S
C423 C425 1.419 . S
C424 C422 1.415 . S
C424 C429 1.425 . S
C424 C431 1.409 . S
C425 H417 0.930 . S
C425 C423 1.419 . S
C425 C426 1.362 . S
C426 H418 0.930 . S
C426 C425 1.362 . S
C426 C429 1.409 . S
C427 H419 0.930 . S
C427 C428 1.355 . S
C427 C429 1.415 . S
C428 C427 1.355 . S
C428 C430 1.419 . S
C429 C424 1.425 . S
C429 C426 1.409 . S
C429 C427 1.415 . S
C430 H420 0.930 . S
C430 C428 1.419 . S
C430 C431 1.362 . S
C431 H421 0.930 . S
C431 C424 1.409 . S
C431 C430 1.362 . S
H432 C438 0.930 . S
H433 C441 0.930 . S
H434 C442 0.930 . S
H435 C443 0.930 . S
H436 C446 0.930 . S
H437 C447 0.930 . S
C438 H432 0.930 . S
C438 C439 1.355 . S
C438 C440 1.415 . S
C439 C438 1.355 . S
C439 C441 1.419 . S
C440 C438 1.415 . S
C440 C445 1.425 . S
C440 C447 1.409 . S
C441 H433 0.930 . S
C441 C439 1.419 . S
C441 C442 1.362 . S
C442 H434 0.930 . S
C442 C441 1.362 . S
C442 C445 1.409 . S
C443 H435 0.930 . S
C443 C444 1.355 . S
C443 C445 1.415 . S
C444 C443 1.355 . S
C444 C446 1.419 . S
C445 C440 1.425 . S
C445 C442 1.409 . S
C445 C443 1.415 . S
C446 H436 0.930 . S
C446 C444 1.419 . S
C446 C447 1.362 . S
C447 H437 0.930 . S
C447 C440 1.409 . S
C447 C446 1.362 . S
H448 C454 0.930 . S
H449 C457 0.930 . S
H450 C458 0.930 . S
H451 C459 0.930 . S
H452 C462 0.930 . S
H453 C463 0.930 . S
C454 H448 0.930 . S
C454 C455 1.355 . S
C454 C456 1.415 . S
C455 C454 1.355 . S
C455 C457 1.419 . S
C456 C454 1.415 . S
C456 C461 1.425 . S
C456 C463 1.409 . S
C457 H449 0.930 . S
C457 C455 1.419 . S
C457 C458 1.362 . S
C458 H450 0.930 . S
C458 C457 1.362 . S
C458 C461 1.409 . S
C459 H451 0.930 . S
C459 C460 1.355 . S
C459 C461 1.415 . S
C460 C459 1.355 . S
C460 C462 1.419 . S
C461 C456 1.425 . S
C461 C458 1.409 . S
C461 C459 1.415 . S
C462 H452 0.930 . S
C462 C460 1.419 . S
C462 C463 1.362 . S
C463 H453 0.930 . S
C463 C456 1.409 . S
C463 C462 1.362 . S
H464 C470 0.930 . S
H465 C473 0.930 . S
H466 C474 0.930 . S
H467 C475 0.930 . S
H468 C478 0.930 . S
H469 C479 0.930 . S
C470 H464 0.930 . S
C470 C471 1.355 . S
C470 C472 1.415 . S
C471 C470 1.355 . S
C471 C473 1.419 . S
C472 C470 1.415 . S
C472 C477 1.425 . S
C472 C479 1.409 . S
C473 H465 0.930 . S
C473 C471 1.419 . S
C473 C474 1.362 . S
C474 H466 0.930 . S
C474 C473 1.362 . S
C474 C477 1.409 . S
C475 H467 0.930 . S
C475 C476 1.355 . S
C475 C477 1.415 . S
C476 C475 1.355 . S
C476 C478 1.419 . S
C477 C472 1.425 . S
C477 C474 1.409 . S
C477 C475 1.415 . S
C478 H468 0.930 . S
C478 C476 1.419 . S
C478 C479 1.362 . S
C479 H469 0.930 . S
C479 C472 1.409 . S
C479 C478 1.362 . S
H480 C486 0.930 . S
H481 C489 0.930 . S
H482 C490 0.930 . S
H483 C491 0.930 . S
H484 C494 0.930 . S
H485 C495 0.930 . S
C486 H480 0.930 . S
C486 C487 1.355 1_545 S
C486 C488 1.415 . S
C487 C486 1.355 1_565 S
C487 C489 1.419 . S
C488 C486 1.415 . S
C488 C493 1.425 . S
C488 C495 1.409 . S
C489 H481 0.930 . S
C489 C487 1.419 . S
C489 C490 1.362 1_565 S
C490 H482 0.930 . S
C490 C489 1.362 1_545 S
C490 C493 1.409 . S
C491 H483 0.930 . S
C491 C492 1.355 . S
C491 C493 1.415 . S
C492 C491 1.355 . S
C492 C494 1.419 . S
C493 C488 1.425 . S
C493 C490 1.409 . S
C493 C491 1.415 . S
C494 H484 0.930 . S
C494 C492 1.419 . S
C494 C495 1.362 . S
C495 H485 0.930 . S
C495 C488 1.409 . S
C495 C494 1.362 . S
H496 C502 0.930 . S
H497 C505 0.930 . S
H498 C506 0.930 . S
H499 C507 0.930 . S
H500 C510 0.930 . S
H501 C511 0.930 . S
C502 H496 0.930 . S
C502 C503 1.355 . S
C502 C504 1.415 . S
C503 C502 1.355 . S
C503 C505 1.419 . S
C504 C502 1.415 . S
C504 C509 1.425 . S
C504 C511 1.409 . S
C505 H497 0.930 . S
C505 C503 1.419 . S
C505 C506 1.362 . S
C506 H498 0.930 . S
C506 C505 1.362 . S
C506 C509 1.409 . S
C507 H499 0.930 . S
C507 C508 1.355 1_455 S
C507 C509 1.415 . S
C508 C507 1.355 1_655 S
C508 C510 1.419 . S
C509 C504 1.425 . S
C509 C506 1.409 . S
C509 C507 1.415 . S
C510 H500 0.930 . S
C510 C508 1.419 . S
C510 C511 1.362 1_655 S
C511 H501 0.930 . S
C511 C504 1.409 . S
C511 C510 1.362 1_455 S
H512 C518 0.930 . S
H513 C521 0.930 . S
H514 C522 0.930 . S
H515 C523 0.930 1_545 S
H516 C526 0.930 . S
H517 C527 0.930 . S
C518 H512 0.930 . S
C518 C519 1.355 . S
C518 C520 1.415 . S
C519 C518 1.355 . S
C519 C521 1.419 . S
C520 C518 1.415 . S
C520 C525 1.425 . S
C520 C527 1.409 . S
C521 H513 0.930 . S
C521 C519 1.419 . S
C521 C522 1.362 . S
C522 H514 0.930 . S
C522 C521 1.362 . S
C522 C525 1.409 . S
C523 H515 0.930 1_565 S
C523 C524 1.355 1_565 S
C523 C525 1.415 . S
C524 C523 1.355 1_545 S
C524 C526 1.419 . S
C525 C520 1.425 . S
C525 C522 1.409 . S
C525 C523 1.415 . S
C526 H516 0.930 . S
C526 C524 1.419 . S
C526 C527 1.362 1_545 S
C527 H517 0.930 . S
C527 C520 1.409 . S
C527 C526 1.362 1_565 S
H528 C534 0.930 . S
H529 C537 0.930 . S
H530 C538 0.930 . S
H531 C539 0.930 . S
H532 C542 0.930 . S
H533 C543 0.930 . S
C534 H528 0.930 . S
C534 C535 1.355 1_655 S
C534 C536 1.415 . S
C535 C534 1.355 1_455 S
C535 C537 1.419 . S
C536 C534 1.415 . S
C536 C541 1.425 . S
C536 C543 1.409 . S
C537 H529 0.930 . S
C537 C535 1.419 . S
C537 C538 1.362 1_455 S
C538 H530 0.930 . S
C538 C537 1.362 1_655 S
C538 C541 1.409 . S
C539 H531 0.930 . S
C539 C540 1.355 . S
C539 C541 1.415 . S
C540 C539 1.355 . S
C540 C542 1.419 . S
C541 C536 1.425 . S
C541 C538 1.409 . S
C541 C539 1.415 . S
C542 H532 0.930 . S
C542 C540 1.419 . S
C542 C543 1.362 . S
C543 H533 0.930 . S
C543 C536 1.409 . S
C543 C542 1.362 . S
H544 C550 0.941 . S
H545 C553 0.930 . S
H546 C554 0.930 . S
H547 C555 0.930 . S
H548 C558 0.930 . S
H549 C559 0.930 . S
C550 H544 0.941 . S
C550 C551 1.355 1_565 S
C550 C552 1.415 . S
C551 C550 1.355 1_545 S
C551 C553 1.419 . S
C552 C550 1.415 . S
C552 C557 1.425 . S
C552 C559 1.409 . S
C553 H545 0.930 . S
C553 C551 1.419 . S
C553 C554 1.362 1_545 S
C554 H546 0.930 . S
C554 C553 1.362 1_565 S
C554 C557 1.409 . S
C555 H547 0.930 . S
C555 C556 1.355 . S
C555 C557 1.415 . S
C556 C555 1.355 . S
C556 C558 1.419 . S
C557 C552 1.425 . S
C557 C554 1.409 . S
C557 C555 1.415 . S
C558 H548 0.930 . S
C558 C556 1.419 . S
C558 C559 1.362 . S
C559 H549 0.930 . S
C559 C552 1.409 . S
C559 C558 1.362 . S
H560 C566 0.930 . S
H561 C569 0.930 . S
H562 C570 0.930 . S
H563 C571 0.930 . S
H564 C574 0.930 . S
H565 C575 0.930 . S
C566 H560 0.930 . S
C566 C567 1.355 . S
C566 C568 1.415 . S
C567 C566 1.355 . S
C567 C569 1.419 . S
C568 C566 1.415 . S
C568 C573 1.425 . S
C568 C575 1.409 . S
C569 H561 0.930 . S
C569 C567 1.419 . S
C569 C570 1.362 . S
C570 H562 0.930 . S
C570 C569 1.362 . S
C570 C573 1.409 . S
C571 H563 0.930 . S
C571 C572 1.355 . S
C571 C573 1.415 1_455 S
C572 C571 1.355 . S
C572 C574 1.419 1_455 S
C573 C568 1.425 . S
C573 C570 1.409 . S
C573 C571 1.415 1_655 S
C574 H564 0.930 . S
C574 C572 1.419 1_655 S
C574 C575 1.362 . S
C575 H565 0.930 . S
C575 C568 1.409 . S
C575 C574 1.362 . S
H576 C582 0.930 . S
H577 C585 0.930 . S
H578 C586 0.930 . S
H579 C587 0.930 . S
H580 C590 0.930 . S
H581 C591 0.930 . S
C582 H576 0.930 . S
C582 C583 1.355 . S
C582 C584 1.415 . S
C583 C582 1.355 . S
C583 C585 1.419 . S
C584 C582 1.415 . S
C584 C589 1.425 . S
C584 C591 1.409 . S
C585 H577 0.930 . S
C585 C583 1.419 . S
C585 C586 1.362 . S
C586 H578 0.930 . S
C586 C585 1.362 . S
C586 C589 1.409 . S
C587 H579 0.930 . S
C587 C588 1.355 . S
C587 C589 1.415 1_565 S
C588 C587 1.355 . S
C588 C590 1.419 1_565 S
C589 C584 1.425 . S
C589 C586 1.409 . S
C589 C587 1.415 1_545 S
C590 H580 0.930 . S
C590 C588 1.419 1_545 S
C590 C591 1.362 . S
C591 H581 0.930 . S
C591 C584 1.409 . S
C591 C590 1.362 . S
H592 C598 0.930 . S
H593 C601 0.930 . S
H594 C602 0.930 . S
H595 C603 0.925 1_655 S
H596 C606 0.930 . S
H597 C607 0.930 . S
C598 H592 0.930 . S
C598 C599 1.355 . S
C598 C600 1.415 . S
C599 C598 1.355 . S
C599 C601 1.419 . S
C600 C598 1.415 . S
C600 C605 1.425 . S
C600 C607 1.409 . S
C601 H593 0.930 . S
C601 C599 1.419 . S
C601 C602 1.362 . S
C602 H594 0.930 . S
C602 C601 1.362 . S
C602 C605 1.409 . S
C603 H595 0.925 1_455 S
C603 C604 1.352 1_455 S
C603 C605 1.422 . S
C604 C603 1.352 1_655 S
C604 C606 1.419 1_655 S
C605 C600 1.425 . S
C605 C602 1.409 . S
C605 C603 1.422 . S
C606 H596 0.930 . S
C606 C604 1.419 1_455 S
C606 C607 1.362 . S
C607 H597 0.930 . S
C607 C600 1.409 . S
C607 C606 1.362 . S
H608 C614 0.930 . S
H609 C617 0.930 . S
H610 C618 0.930 . S
H611 C619 0.930 . S
H612 C622 0.930 . S
H613 C623 0.930 . S
C614 H608 0.930 . S
C614 C615 1.355 . S
C614 C616 1.415 . S
C615 C614 1.355 . S
C615 C617 1.419 . S
C616 C614 1.415 . S
C616 C621 1.425 . S
C616 C623 1.409 . S
C617 H609 0.930 . S
C617 C615 1.419 . S
C617 C618 1.362 . S
C618 H610 0.930 . S
C618 C617 1.362 . S
C618 C621 1.409 . S
C619 H611 0.930 . S
C619 C620 1.355 . S
C619 C621 1.415 . S
C620 C619 1.355 . S
C620 C622 1.419 . S
C621 C616 1.425 . S
C621 C618 1.409 . S
C621 C619 1.415 . S
C622 H612 0.930 . S
C622 C620 1.419 . S
C622 C623 1.362 . S
C623 H613 0.930 . S
C623 C616 1.409 . S
C623 C622 1.362 . S
H624 C630 0.930 . S
H625 C633 0.930 . S
H626 C634 0.930 . S
H627 C635 0.930 . S
H628 C638 0.930 . S
H629 C639 0.930 . S
C630 H624 0.930 . S
C630 C631 1.355 . S
C630 C632 1.415 . S
C631 C630 1.355 . S
C631 C633 1.419 . S
C632 C630 1.415 . S
C632 C637 1.425 . S
C632 C639 1.409 . S
C633 H625 0.930 . S
C633 C631 1.419 . S
C633 C634 1.362 . S
C634 H626 0.930 . S
C634 C633 1.362 . S
C634 C637 1.409 . S
C635 H627 0.930 . S
C635 C636 1.355 . S
C635 C637 1.415 . S
C636 C635 1.355 . S
C636 C638 1.419 . S
C637 C632 1.425 . S
C637 C634 1.409 . S
C637 C635 1.415 . S
C638 H628 0.930 . S
C638 C636 1.419 . S
C638 C639 1.362 . S
C639 H629 0.930 . S
C639 C632 1.409 . S
C639 C638 1.362 . S
H640 C646 0.930 . S
H641 C649 0.930 . S
H642 C650 0.930 . S
H643 C651 0.930 . S
H644 C654 0.930 . S
H645 C655 0.930 . S
C646 H640 0.930 . S
C646 C647 1.355 . S
C646 C648 1.415 . S
C647 C646 1.355 . S
C647 C649 1.419 . S
C648 C646 1.415 . S
C648 C653 1.425 . S
C648 C655 1.409 . S
C649 H641 0.930 . S
C649 C647 1.419 . S
C649 C650 1.362 . S
C650 H642 0.930 . S
C650 C649 1.362 . S
C650 C653 1.409 . S
C651 H643 0.930 . S
C651 C652 1.355 . S
C651 C653 1.415 . S
C652 C651 1.355 . S
C652 C654 1.419 . S
C653 C648 1.425 . S
C653 C650 1.409 . S
C653 C651 1.415 . S
C654 H644 0.930 . S
C654 C652 1.419 . S
C654 C655 1.362 . S
C655 H645 0.930 . S
C655 C648 1.409 . S
C655 C654 1.362 . S
H656 C662 0.930 . S
H657 C665 0.930 . S
H658 C666 0.930 . S
H659 C667 0.930 . S
H660 C670 0.930 . S
H661 C671 0.930 . S
C662 H656 0.930 . S
C662 C663 1.355 . S
C662 C664 1.415 . S
C663 C662 1.355 . S
C663 C665 1.419 . S
C664 C662 1.415 . S
C664 C669 1.425 . S
C664 C671 1.409 . S
C665 H657 0.930 . S
C665 C663 1.419 . S
C665 C666 1.362 . S
C666 H658 0.930 . S
C666 C665 1.362 . S
C666 C669 1.409 . S
C667 H659 0.930 . S
C667 C668 1.355 . S
C667 C669 1.415 . S
C668 C667 1.355 . S
C668 C670 1.419 . S
C669 C664 1.425 . S
C669 C666 1.409 . S
C669 C667 1.415 . S
C670 H660 0.930 . S
C670 C668 1.419 . S
C670 C671 1.362 . S
C671 H661 0.930 . S
C671 C664 1.409 . S
C671 C670 1.362 . S
H672 C678 0.930 . S
H673 C681 0.930 . S
H674 C682 0.930 1_556 S
H675 C683 0.930 . S
H676 C686 0.930 . S
H677 C687 0.930 1_554 S
C678 H672 0.930 . S
C678 C679 1.355 . S
C678 C680 1.397 1_545 S
C679 C678 1.355 . S
C679 C681 1.419 . S
C680 C678 1.397 1_565 S
C680 C685 1.424 1_564 S
C680 C687 1.428 1_554 S
C681 H673 0.930 . S
C681 C679 1.419 . S
C681 C682 1.362 . S
C682 H674 0.930 1_554 S
C682 C681 1.362 . S
C682 C685 1.428 1_554 S
C683 H675 0.930 . S
C683 C684 1.355 . S
C683 C685 1.397 1_565 S
C684 C683 1.355 . S
C684 C686 1.419 . S
C685 C680 1.424 1_546 S
C685 C682 1.428 1_556 S
C685 C683 1.397 1_545 S
C686 H676 0.930 . S
C686 C684 1.419 . S
C686 C687 1.362 . S
C687 H677 0.930 1_556 S
C687 C680 1.428 1_556 S
C687 C686 1.362 . S
H688 C694 0.930 . S
H689 C697 0.930 . S
H690 C698 0.930 . S
H691 C699 0.930 . S
H692 C702 0.930 . S
H693 C703 0.930 . S
C694 H688 0.930 . S
C694 C695 1.355 . S
C694 C696 1.415 1_655 S
C695 C694 1.355 . S
C695 C697 1.419 . S
C696 C694 1.415 1_455 S
C696 C701 1.425 1_454 S
C696 C703 1.409 . S
C697 H689 0.930 . S
C697 C695 1.419 . S
C697 C698 1.362 1_554 S
C698 H690 0.930 . S
C698 C697 1.362 1_556 S
C698 C701 1.409 . S
C699 H691 0.930 . S
C699 C700 1.355 . S
C699 C701 1.415 1_455 S
C700 C699 1.355 . S
C700 C702 1.419 . S
C701 C696 1.425 1_656 S
C701 C698 1.409 . S
C701 C699 1.415 1_655 S
C702 H692 0.930 . S
C702 C700 1.419 . S
C702 C703 1.362 1_556 S
C703 H693 0.930 . S
C703 C696 1.409 . S
C703 C702 1.362 1_554 S
H704 C710 0.930 . S
H705 C713 0.930 . S
H706 C714 0.930 . S
H707 C715 0.930 . S
H708 C718 0.930 . S
H709 C719 0.930 . S
C710 H704 0.930 . S
C710 C711 1.355 . S
C710 C712 1.415 1_545 S
C711 C710 1.355 . S
C711 C713 1.419 . S
C712 C710 1.415 1_565 S
C712 C717 1.425 1_566 S
C712 C719 1.409 . S
C713 H705 0.930 . S
C713 C711 1.419 . S
C713 C714 1.362 1_556 S
C714 H706 0.930 . S
C714 C713 1.362 1_554 S
C714 C717 1.409 . S
C715 H707 0.930 . S
C715 C716 1.355 . S
C715 C717 1.415 1_565 S
C716 C715 1.355 . S
C716 C718 1.419 . S
C717 C712 1.425 1_544 S
C717 C714 1.409 . S
C717 C715 1.415 1_545 S
C718 H708 0.930 . S
C718 C716 1.419 . S
C718 C719 1.362 1_554 S
C719 H709 0.930 . S
C719 C712 1.409 . S
C719 C718 1.362 1_556 S
H720 C726 0.919 1_455 S
H721 C729 0.930 . S
H722 C730 0.930 . S
H723 C731 0.920 1_655 S
H724 C734 0.930 . S
H725 C735 0.930 . S
C726 H720 0.919 1_655 S
C726 C727 1.355 . S
C726 C728 1.415 1_655 S
C727 C726 1.355 . S
C727 C729 1.419 . S
C728 C726 1.415 1_455 S
C728 C733 1.425 1_456 S
C728 C735 1.409 . S
C729 H721 0.930 . S
C729 C727 1.419 . S
C729 C730 1.362 1_556 S
C730 H722 0.930 . S
C730 C729 1.362 1_554 S
C730 C733 1.409 . S
C731 H723 0.920 1_455 S
C731 C732 1.355 . S
C731 C733 1.415 1_455 S
C732 C731 1.355 . S
C732 C734 1.419 . S
C733 C728 1.425 1_654 S
C733 C730 1.409 . S
C733 C731 1.415 1_655 S
C734 H724 0.930 . S
C734 C732 1.419 . S
C734 C735 1.362 1_554 S
C735 H725 0.930 . S
C735 C728 1.409 . S
C735 C734 1.362 1_556 S
H736 C742 0.930 . S
H737 C745 0.930 . S
H738 C746 0.930 . S
H739 C747 0.930 . S
H740 C750 0.930 . S
H741 C751 0.930 . S
C742 H736 0.930 . S
C742 C743 1.355 . S
C742 C744 1.415 . S
C743 C742 1.355 . S
C743 C745 1.419 . S
C744 C742 1.415 . S
C744 C749 1.425 . S
C744 C751 1.409 . S
C745 H737 0.930 . S
C745 C743 1.419 . S
C745 C746 1.362 . S
C746 H738 0.930 . S
C746 C745 1.362 . S
C746 C749 1.409 . S
C747 H739 0.930 . S
C747 C748 1.355 1_554 S
C747 C749 1.415 . S
C748 C747 1.355 1_556 S
C748 C750 1.419 . S
C749 C744 1.425 . S
C749 C746 1.409 . S
C749 C747 1.415 . S
C750 H740 0.930 . S
C750 C748 1.419 . S
C750 C751 1.362 1_556 S
C751 H741 0.930 . S
C751 C744 1.409 . S
C751 C750 1.362 1_554 S
H752 C758 0.930 . S
H753 C761 0.930 . S
H754 C762 0.930 . S
H755 C763 0.930 . S
H756 C766 0.930 . S
H757 C767 0.930 . S
C758 H752 0.930 . S
C758 C759 1.355 1_556 S
C758 C760 1.415 . S
C759 C758 1.355 1_554 S
C759 C761 1.419 . S
C760 C758 1.415 . S
C760 C765 1.425 . S
C760 C767 1.409 . S
C761 H753 0.930 . S
C761 C759 1.419 . S
C761 C762 1.362 1_554 S
C762 H754 0.930 . S
C762 C761 1.362 1_556 S
C762 C765 1.409 . S
C763 H755 0.930 . S
C763 C764 1.355 . S
C763 C765 1.415 . S
C764 C763 1.355 . S
C764 C766 1.419 . S
C765 C760 1.425 . S
C765 C762 1.409 . S
C765 C763 1.415 . S
C766 H756 0.930 . S
C766 C764 1.419 . S
C766 C767 1.362 . S
C767 H757 0.930 . S
C767 C760 1.409 . S
C767 C766 1.362 . S
H768 C774 0.930 1_556 S
H769 C777 0.930 1_556 S
H770 C778 0.930 . S
H771 C779 0.930 . S
H772 C782 0.930 . S
H773 C783 0.930 . S
C774 H768 0.930 1_554 S
C774 C775 1.355 1_554 S
C774 C776 1.415 . S
C775 C774 1.355 1_556 S
C775 C777 1.419 1_556 S
C776 C774 1.415 . S
C776 C781 1.425 . S
C776 C783 1.409 . S
C777 H769 0.930 1_554 S
C777 C775 1.419 1_554 S
C777 C778 1.362 . S
C778 H770 0.930 . S
C778 C777 1.362 . S
C778 C781 1.409 . S
C779 H771 0.930 . S
C779 C780 1.355 . S
C779 C781 1.415 . S
C780 C779 1.355 . S
C780 C782 1.419 . S
C781 C776 1.425 . S
C781 C778 1.409 . S
C781 C779 1.415 . S
C782 H772 0.930 . S
C782 C780 1.419 . S
C782 C783 1.362 . S
C783 H773 0.930 . S
C783 C776 1.409 . S
C783 C782 1.362 . S
H784 C790 0.930 . S
H785 C793 0.930 . S
H786 C794 0.930 . S
H787 C795 0.930 . S
H788 C798 0.930 . S
H789 C799 0.930 . S
C790 H784 0.930 . S
C790 C791 1.355 1_556 S
C790 C792 1.415 . S
C791 C790 1.355 1_554 S
C791 C793 1.419 . S
C792 C790 1.415 . S
C792 C797 1.425 . S
C792 C799 1.409 . S
C793 H785 0.930 . S
C793 C791 1.419 . S
C793 C794 1.362 1_554 S
C794 H786 0.930 . S
C794 C793 1.362 1_556 S
C794 C797 1.409 . S
C795 H787 0.930 . S
C795 C796 1.355 . S
C795 C797 1.415 . S
C796 C795 1.355 . S
C796 C798 1.419 . S
C797 C792 1.425 . S
C797 C794 1.409 . S
C797 C795 1.415 . S
C798 H788 0.930 . S
C798 C796 1.419 . S
C798 C799 1.362 . S
C799 H789 0.930 . S
C799 C792 1.409 . S
C799 C798 1.362 . S
H800 C806 0.930 . S
H801 C809 0.930 . S
H802 C810 0.930 . S
H803 C811 0.930 . S
H804 C814 0.930 . S
H805 C815 0.930 . S
C806 H800 0.930 . S
C806 C807 1.355 . S
C806 C808 1.415 . S
C807 C806 1.355 . S
C807 C809 1.419 . S
C808 C806 1.415 . S
C808 C813 1.425 . S
C808 C815 1.409 . S
C809 H801 0.930 . S
C809 C807 1.419 . S
C809 C810 1.362 . S
C810 H802 0.930 . S
C810 C809 1.362 . S
C810 C813 1.409 . S
C811 H803 0.930 . S
C811 C812 1.355 1_556 S
C811 C813 1.415 . S
C812 C811 1.355 1_554 S
C812 C814 1.419 . S
C813 C808 1.425 . S
C813 C810 1.409 . S
C813 C811 1.415 . S
C814 H804 0.930 . S
C814 C812 1.419 . S
C814 C815 1.362 1_554 S
C815 H805 0.930 . S
C815 C808 1.409 . S
C815 C814 1.362 1_556 S
H816 C822 0.930 . S
H817 C825 0.930 . S
H818 C826 0.930 . S
H819 C827 0.930 . S
H820 C830 0.930 . S
H821 C831 0.930 . S
C822 H816 0.930 . S
C822 C823 1.355 . S
C822 C824 1.415 . S
C823 C822 1.355 . S
C823 C825 1.419 . S
C824 C822 1.415 . S
C824 C829 1.425 . S
C824 C831 1.409 . S
C825 H817 0.930 . S
C825 C823 1.419 . S
C825 C826 1.362 . S
C826 H818 0.930 . S
C826 C825 1.362 . S
C826 C829 1.409 . S
C827 H819 0.930 . S
C827 C828 1.355 1_554 S
C827 C829 1.415 . S
C828 C827 1.355 1_556 S
C828 C830 1.419 . S
C829 C824 1.425 . S
C829 C826 1.409 . S
C829 C827 1.415 . S
C830 H820 0.930 . S
C830 C828 1.419 . S
C830 C831 1.362 1_556 S
C831 H821 0.930 . S
C831 C824 1.409 . S
C831 C830 1.362 1_554 S
H832 C838 0.930 . S
H833 C841 0.930 . S
H834 C842 0.930 . S
H835 C843 0.930 . S
H836 C846 0.930 . S
H837 C847 0.930 . S
C838 H832 0.930 . S
C838 C839 1.355 . S
C838 C840 1.415 . S
C839 C838 1.355 . S
C839 C841 1.419 . S
C840 C838 1.415 . S
C840 C845 1.425 . S
C840 C847 1.409 . S
C841 H833 0.930 . S
C841 C839 1.419 . S
C841 C842 1.362 . S
C842 H834 0.930 . S
C842 C841 1.362 . S
C842 C845 1.409 . S
C843 H835 0.930 . S
C843 C844 1.355 . S
C843 C845 1.415 1_554 S
C844 C843 1.355 . S
C844 C846 1.419 1_554 S
C845 C840 1.425 . S
C845 C842 1.409 . S
C845 C843 1.415 1_556 S
C846 H836 0.930 . S
C846 C844 1.419 1_556 S
C846 C847 1.362 . S
C847 H837 0.930 . S
C847 C840 1.409 . S
C847 C846 1.362 . S
H848 C854 0.930 . S
H849 C857 0.930 . S
H850 C858 0.930 . S
H851 C859 0.930 . S
H852 C862 0.930 . S
H853 C863 0.930 . S
C854 H848 0.930 . S
C854 C855 1.355 1_554 S
C854 C856 1.415 . S
C855 C854 1.355 1_556 S
C855 C857 1.419 . S
C856 C854 1.415 . S
C856 C861 1.425 . S
C856 C863 1.409 . S
C857 H849 0.930 . S
C857 C855 1.419 . S
C857 C858 1.362 1_556 S
C858 H850 0.930 . S
C858 C857 1.362 1_554 S
C858 C861 1.409 . S
C859 H851 0.930 . S
C859 C860 1.355 . S
C859 C861 1.415 . S
C860 C859 1.355 . S
C860 C862 1.419 . S
C861 C856 1.425 . S
C861 C858 1.409 . S
C861 C859 1.415 . S
C862 H852 0.930 . S
C862 C860 1.419 . S
C862 C863 1.362 . S
C863 H853 0.930 . S
C863 C856 1.409 . S
C863 C862 1.362 . S
H864 C870 0.930 . S
H865 C873 0.930 . S
H866 C874 0.930 . S
H867 C875 0.930 . S
H868 C878 0.930 . S
H869 C879 0.930 . S
C870 H864 0.930 . S
C870 C871 1.355 . S
C870 C872 1.415 . S
C871 C870 1.355 . S
C871 C873 1.419 . S
C872 C870 1.415 . S
C872 C877 1.425 . S
C872 C879 1.409 . S
C873 H865 0.930 . S
C873 C871 1.419 . S
C873 C874 1.362 . S
C874 H866 0.930 . S
C874 C873 1.362 . S
C874 C877 1.409 . S
C875 H867 0.930 . S
C875 C876 1.355 . S
C875 C877 1.415 . S
C876 C875 1.355 . S
C876 C878 1.419 . S
C877 C872 1.425 . S
C877 C874 1.409 . S
C877 C875 1.415 . S
C878 H868 0.930 . S
C878 C876 1.419 . S
C878 C879 1.362 . S
C879 H869 0.930 . S
C879 C872 1.409 . S
C879 C878 1.362 . S
H880 C886 0.930 . S
H881 C889 0.930 . S
H882 C890 0.930 . S
H883 C891 0.930 . S
H884 C894 0.930 . S
H885 C895 0.930 . S
C886 H880 0.930 . S
C886 C887 1.355 . S
C886 C888 1.415 . S
C887 C886 1.355 . S
C887 C889 1.419 . S
C888 C886 1.415 . S
C888 C893 1.425 . S
C888 C895 1.409 . S
C889 H881 0.930 . S
C889 C887 1.419 . S
C889 C890 1.362 . S
C890 H882 0.930 . S
C890 C889 1.362 . S
C890 C893 1.409 . S
C891 H883 0.930 . S
C891 C892 1.355 . S
C891 C893 1.415 . S
C892 C891 1.355 . S
C892 C894 1.419 . S
C893 C888 1.425 . S
C893 C890 1.409 . S
C893 C891 1.415 . S
C894 H884 0.930 . S
C894 C892 1.419 . S
C894 C895 1.362 . S
C895 H885 0.930 . S
C895 C888 1.409 . S
C895 C894 1.362 . S
H896 C902 0.930 . S
H897 C905 0.930 . S
H898 C906 0.930 . S
H899 C907 0.930 . S
H900 C910 0.930 . S
H901 C911 0.930 . S
C902 H896 0.930 . S
C902 C903 1.355 . S
C902 C904 1.415 . S
C903 C902 1.355 . S
C903 C905 1.419 . S
C904 C902 1.415 . S
C904 C909 1.425 . S
C904 C911 1.409 . S
C905 H897 0.930 . S
C905 C903 1.419 . S
C905 C906 1.362 . S
C906 H898 0.930 . S
C906 C905 1.362 . S
C906 C909 1.409 . S
C907 H899 0.930 . S
C907 C908 1.355 . S
C907 C909 1.415 . S
C908 C907 1.355 . S
C908 C910 1.419 . S
C909 C904 1.425 . S
C909 C906 1.409 . S
C909 C907 1.415 . S
C910 H900 0.930 . S
C910 C908 1.419 . S
C910 C911 1.362 . S
C911 H901 0.930 . S
C911 C904 1.409 . S
C911 C910 1.362 . S
H912 C918 0.930 . S
H913 C921 0.930 . S
H914 C922 0.930 . S
H915 C923 0.930 . S
H916 C926 0.930 . S
H917 C927 0.930 . S
C918 H912 0.930 . S
C918 C919 1.355 . S
C918 C920 1.415 . S
C919 C918 1.355 . S
C919 C921 1.419 . S
C920 C918 1.415 . S
C920 C925 1.425 . S
C920 C927 1.409 . S
C921 H913 0.930 . S
C921 C919 1.419 . S
C921 C922 1.362 . S
C922 H914 0.930 . S
C922 C921 1.362 . S
C922 C925 1.409 . S
C923 H915 0.930 . S
C923 C924 1.355 . S
C923 C925 1.415 . S
C924 C923 1.355 . S
C924 C926 1.419 . S
C925 C920 1.425 . S
C925 C922 1.409 . S
C925 C923 1.415 . S
C926 H916 0.930 . S
C926 C924 1.419 . S
C926 C927 1.362 . S
C927 H917 0.930 . S
C927 C920 1.409 . S
C927 C926 1.362 . S
H928 C934 0.930 . S
H929 C937 0.930 . S
H930 C938 0.930 . S
H931 C939 0.930 . S
H932 C942 0.930 . S
H933 C943 0.930 . S
C934 H928 0.930 . S
C934 C935 1.355 . S
C934 C936 1.415 . S
C935 C934 1.355 . S
C935 C937 1.419 . S
C936 C934 1.415 . S
C936 C941 1.425 . S
C936 C943 1.409 . S
C937 H929 0.930 . S
C937 C935 1.419 . S
C937 C938 1.362 . S
C938 H930 0.930 . S
C938 C937 1.362 . S
C938 C941 1.409 . S
C939 H931 0.930 . S
C939 C940 1.355 . S
C939 C941 1.415 . S
C940 C939 1.355 . S
C940 C942 1.419 . S
C941 C936 1.425 . S
C941 C938 1.409 . S
C941 C939 1.415 . S
C942 H932 0.930 . S
C942 C940 1.419 . S
C942 C943 1.362 . S
C943 H933 0.930 . S
C943 C936 1.409 . S
C943 C942 1.362 . S
H944 C950 0.930 . S
H945 C953 0.930 . S
H946 C954 0.930 . S
H947 C955 0.930 . S
H948 C958 0.930 . S
H949 C959 0.930 . S
C950 H944 0.930 . S
C950 C951 1.355 . S
C950 C952 1.415 . S
C951 C950 1.355 . S
C951 C953 1.419 . S
C952 C950 1.415 . S
C952 C957 1.425 . S
C952 C959 1.409 . S
C953 H945 0.930 . S
C953 C951 1.419 . S
C953 C954 1.362 . S
C954 H946 0.930 . S
C954 C953 1.362 . S
C954 C957 1.409 . S
C955 H947 0.930 . S
C955 C956 1.355 . S
C955 C957 1.415 . S
C956 C955 1.355 . S
C956 C958 1.419 . S
C957 C952 1.425 . S
C957 C954 1.409 . S
C957 C955 1.415 . S
C958 H948 0.930 . S
C958 C956 1.419 . S
C958 C959 1.362 . S
C959 H949 0.930 . S
C959 C952 1.409 . S
C959 C958 1.362 . S
H960 C966 0.930 . S
H961 C969 0.930 . S
H962 C970 0.930 . S
H963 C971 0.930 . S
H964 C974 0.930 . S
H965 C975 0.930 . S
C966 H960 0.930 . S
C966 C967 1.355 . S
C966 C968 1.415 . S
C967 C966 1.355 . S
C967 C969 1.419 . S
C968 C966 1.415 . S
C968 C973 1.425 . S
C968 C975 1.409 . S
C969 H961 0.930 . S
C969 C967 1.419 . S
C969 C970 1.362 . S
C970 H962 0.930 . S
C970 C969 1.362 . S
C970 C973 1.409 . S
C971 H963 0.930 . S
C971 C972 1.355 . S
C971 C973 1.415 . S
C972 C971 1.355 . S
C972 C974 1.419 . S
C973 C968 1.425 . S
C973 C970 1.409 . S
C973 C971 1.415 . S
C974 H964 0.930 . S
C974 C972 1.419 . S
C974 C975 1.362 . S
C975 H965 0.930 . S
C975 C968 1.409 . S
C975 C974 1.362 . S
H976 C982 0.930 . S
H977 C985 0.930 . S
H978 C986 0.930 . S
H979 C987 0.930 . S
H980 C990 0.930 . S
H981 C991 0.930 . S
C982 H976 0.930 . S
C982 C983 1.355 . S
C982 C984 1.415 . S
C983 C982 1.355 . S
C983 C985 1.419 . S
C984 C982 1.415 . S
C984 C989 1.425 . S
C984 C991 1.409 . S
C985 H977 0.930 . S
C985 C983 1.419 . S
C985 C986 1.362 . S
C986 H978 0.930 . S
C986 C985 1.362 . S
C986 C989 1.409 . S
C987 H979 0.930 . S
C987 C988 1.355 . S
C987 C989 1.415 . S
C988 C987 1.355 . S
C988 C990 1.419 . S
C989 C984 1.425 . S
C989 C986 1.409 . S
C989 C987 1.415 . S
C990 H980 0.930 . S
C990 C988 1.419 . S
C990 C991 1.362 . S
C991 H981 0.930 . S
C991 C984 1.409 . S
C991 C990 1.362 . S
H992 C998 0.930 . S
H993 C1001 0.930 . S
H994 C1002 0.930 . S
H995 C1003 0.930 . S
H996 C1006 0.930 . S
H997 C1007 0.930 . S
C998 H992 0.930 . S
C998 C999 1.355 . S
C998 C1000 1.415 . S
C999 C998 1.355 . S
C999 C1001 1.419 . S
C1000 C998 1.415 . S
C1000 C1005 1.425 . S
C1000 C1007 1.409 . S
C1001 H993 0.930 . S
C1001 C999 1.419 . S
C1001 C1002 1.362 . S
C1002 H994 0.930 . S
C1002 C1001 1.362 . S
C1002 C1005 1.409 . S
C1003 H995 0.930 . S
C1003 C1004 1.355 . S
C1003 C1005 1.415 . S
C1004 C1003 1.355 . S
C1004 C1006 1.419 . S
C1005 C1000 1.425 . S
C1005 C1002 1.409 . S
C1005 C1003 1.415 . S
C1006 H996 0.930 . S
C1006 C1004 1.419 . S
C1006 C1007 1.362 . S
C1007 H997 0.930 . S
C1007 C1000 1.409 . S
C1007 C1006 1.362 . S
H1008 C1014 0.930 . S
H1009 C1017 0.930 . S
H1010 C1018 0.930 . S
H1011 C1019 0.930 . S
H1012 C1022 0.930 . S
H1013 C1023 0.930 . S
C1014 H1008 0.930 . S
C1014 C1015 1.355 . S
C1014 C1016 1.415 . S
C1015 C1014 1.355 . S
C1015 C1017 1.419 . S
C1016 C1014 1.415 . S
C1016 C1021 1.425 . S
C1016 C1023 1.409 . S
C1017 H1009 0.930 . S
C1017 C1015 1.419 . S
C1017 C1018 1.362 . S
C1018 H1010 0.930 . S
C1018 C1017 1.362 . S
C1018 C1021 1.409 . S
C1019 H1011 0.930 . S
C1019 C1020 1.355 . S
C1019 C1021 1.415 . S
C1020 C1019 1.355 . S
C1020 C1022 1.419 . S
C1021 C1016 1.425 . S
C1021 C1018 1.409 . S
C1021 C1019 1.415 . S
C1022 H1012 0.930 . S
C1022 C1020 1.419 . S
C1022 C1023 1.362 . S
C1023 H1013 0.930 . S
C1023 C1016 1.409 . S
C1023 C1022 1.362 . S
H1024 C1030 0.930 . S
H1025 C1033 0.930 . S
H1026 C1034 0.930 . S
H1027 C1035 0.930 . S
H1028 C1038 0.930 . S
H1029 C1039 0.930 . S
C1030 H1024 0.930 . S
C1030 C1031 1.355 . S
C1030 C1032 1.415 . S
C1031 C1030 1.355 . S
C1031 C1033 1.419 . S
C1032 C1030 1.415 . S
C1032 C1037 1.425 . S
C1032 C1039 1.409 . S
C1033 H1025 0.930 . S
C1033 C1031 1.419 . S
C1033 C1034 1.362 . S
C1034 H1026 0.930 . S
C1034 C1033 1.362 . S
C1034 C1037 1.409 . S
C1035 H1027 0.930 . S
C1035 C1036 1.355 . S
C1035 C1037 1.415 . S
C1036 C1035 1.355 . S
C1036 C1038 1.419 . S
C1037 C1032 1.425 . S
C1037 C1034 1.409 . S
C1037 C1035 1.415 . S
C1038 H1028 0.930 . S
C1038 C1036 1.419 . S
C1038 C1039 1.362 . S
C1039 H1029 0.930 . S
C1039 C1032 1.409 . S
C1039 C1038 1.362 . S
H1040 C1046 0.930 . S
H1041 C1049 0.930 . S
H1042 C1050 0.930 . S
H1043 C1051 0.930 . S
H1044 C1054 0.930 . S
H1045 C1055 0.930 . S
C1046 H1040 0.930 . S
C1046 C1047 1.355 . S
C1046 C1048 1.415 . S
C1047 C1046 1.355 . S
C1047 C1049 1.419 . S
C1048 C1046 1.415 . S
C1048 C1053 1.425 . S
C1048 C1055 1.409 . S
C1049 H1041 0.930 . S
C1049 C1047 1.419 . S
C1049 C1050 1.362 . S
C1050 H1042 0.930 . S
C1050 C1049 1.362 . S
C1050 C1053 1.409 . S
C1051 H1043 0.930 . S
C1051 C1052 1.355 . S
C1051 C1053 1.415 . S
C1052 C1051 1.355 . S
C1052 C1054 1.419 . S
C1053 C1048 1.425 . S
C1053 C1050 1.409 . S
C1053 C1051 1.415 . S
C1054 H1044 0.930 . S
C1054 C1052 1.419 . S
C1054 C1055 1.362 . S
C1055 H1045 0.930 . S
C1055 C1048 1.409 . S
C1055 C1054 1.362 . S
H1056 C1062 0.930 . S
H1057 C1065 0.930 . S
H1058 C1066 0.930 . S
H1059 C1067 0.930 . S
H1060 C1070 0.930 . S
H1061 C1071 0.930 . S
C1062 H1056 0.930 . S
C1062 C1063 1.355 . S
C1062 C1064 1.415 . S
C1063 C1062 1.355 . S
C1063 C1065 1.419 . S
C1064 C1062 1.415 . S
C1064 C1069 1.425 . S
C1064 C1071 1.409 . S
C1065 H1057 0.930 . S
C1065 C1063 1.419 . S
C1065 C1066 1.362 . S
C1066 H1058 0.930 . S
C1066 C1065 1.362 . S
C1066 C1069 1.409 . S
C1067 H1059 0.930 . S
C1067 C1068 1.355 . S
C1067 C1069 1.415 . S
C1068 C1067 1.355 . S
C1068 C1070 1.419 . S
C1069 C1064 1.425 . S
C1069 C1066 1.409 . S
C1069 C1067 1.415 . S
C1070 H1060 0.930 . S
C1070 C1068 1.419 . S
C1070 C1071 1.362 . S
C1071 H1061 0.930 . S
C1071 C1064 1.409 . S
C1071 C1070 1.362 . S
H1072 C1078 0.930 . S
H1073 C1081 0.930 . S
H1074 C1082 0.930 . S
H1075 C1083 0.930 . S
H1076 C1086 0.930 . S
H1077 C1087 0.930 . S
C1078 H1072 0.930 . S
C1078 C1079 1.355 . S
C1078 C1080 1.415 . S
C1079 C1078 1.355 . S
C1079 C1081 1.419 . S
C1080 C1078 1.415 . S
C1080 C1085 1.425 . S
C1080 C1087 1.409 . S
C1081 H1073 0.930 . S
C1081 C1079 1.419 . S
C1081 C1082 1.362 . S
C1082 H1074 0.930 . S
C1082 C1081 1.362 . S
C1082 C1085 1.409 . S
C1083 H1075 0.930 . S
C1083 C1084 1.355 . S
C1083 C1085 1.415 . S
C1084 C1083 1.355 . S
C1084 C1086 1.419 . S
C1085 C1080 1.425 . S
C1085 C1082 1.409 . S
C1085 C1083 1.415 . S
C1086 H1076 0.930 . S
C1086 C1084 1.419 . S
C1086 C1087 1.362 . S
C1087 H1077 0.930 . S
C1087 C1080 1.409 . S
C1087 C1086 1.362 . S
H1088 C1094 0.930 . S
H1089 C1097 0.930 . S
H1090 C1098 0.930 . S
H1091 C1099 0.930 . S
H1092 C1102 0.930 . S
H1093 C1103 0.930 . S
C1094 H1088 0.930 . S
C1094 C1095 1.355 . S
C1094 C1096 1.415 . S
C1095 C1094 1.355 . S
C1095 C1097 1.419 . S
C1096 C1094 1.415 . S
C1096 C1101 1.425 . S
C1096 C1103 1.409 . S
C1097 H1089 0.930 . S
C1097 C1095 1.419 . S
C1097 C1098 1.362 . S
C1098 H1090 0.930 . S
C1098 C1097 1.362 . S
C1098 C1101 1.409 . S
C1099 H1091 0.930 . S
C1099 C1100 1.355 . S
C1099 C1101 1.415 . S
C1100 C1099 1.355 . S
C1100 C1102 1.419 . S
C1101 C1096 1.425 . S
C1101 C1098 1.409 . S
C1101 C1099 1.415 . S
C1102 H1092 0.930 . S
C1102 C1100 1.419 . S
C1102 C1103 1.362 . S
C1103 H1093 0.930 . S
C1103 C1096 1.409 . S
C1103 C1102 1.362 . S
H1104 C1110 0.930 . S
H1105 C1113 0.930 . S
H1106 C1114 0.930 . S
H1107 C1115 0.930 . S
H1108 C1118 0.930 . S
H1109 C1119 0.930 . S
C1110 H1104 0.930 . S
C1110 C1111 1.355 . S
C1110 C1112 1.415 . S
C1111 C1110 1.355 . S
C1111 C1113 1.419 . S
C1112 C1110 1.415 . S
C1112 C1117 1.425 . S
C1112 C1119 1.409 . S
C1113 H1105 0.930 . S
C1113 C1111 1.419 . S
C1113 C1114 1.362 . S
C1114 H1106 0.930 . S
C1114 C1113 1.362 . S
C1114 C1117 1.409 . S
C1115 H1107 0.930 . S
C1115 C1116 1.355 . S
C1115 C1117 1.415 . S
C1116 C1115 1.355 . S
C1116 C1118 1.419 . S
C1117 C1112 1.425 . S
C1117 C1114 1.409 . S
C1117 C1115 1.415 . S
C1118 H1108 0.930 . S
C1118 C1116 1.419 . S
C1118 C1119 1.362 . S
C1119 H1109 0.930 . S
C1119 C1112 1.409 . S
C1119 C1118 1.362 . S
C359 C15 1.447 . S
C364 C257 1.447 . S
C375 C37 1.449 . S
C380 C183 1.474 . S
C391 C205 1.469 . S
C396 C65 1.450 . S
C407 C241 1.453 . S
C412 C73 1.425 . S
C423 C103 1.417 . S
C428 C307 1.454 . S
C439 C131 1.456 . S
C444 C323 1.445 . S
C455 C345 1.446 . S
C460 C147 1.442 . S
C471 C285 1.449 . S
C476 C161 1.464 . S
C487 C191 1.460 . S
C492 C81 1.454 . S
C503 C7 1.444 . S
C508 C219 1.449 . S
C519 C43 1.444 . S
C524 C227 1.433 . S
C535 C249 1.459 . S
C540 C59 1.472 . S
C551 C271 1.421 . S
C556 C117 1.446 . S
C567 C139 1.470 . S
C572 C301 1.433 . S
C583 C169 1.458 . S
C588 C329 1.421 . S
C599 C95 1.461 . S
C604 C337 1.424 . S
C615 C98 1.166 . S
C620 C10 1.164 . S
C631 C32 1.168 . S
C636 C118 1.100 . S
C647 C142 1.194 . S
C652 C52 1.135 . S
C663 C172 1.106 . S
C668 C84 1.163 . S
C679 C282 1.134 . S
C684 C186 1.195 . S
C695 C206 1.140 . S
C700 C296 1.128 . S
C711 C238 1.198 . S
C716 C316 1.131 . S
C727 C348 1.119 . S
C732 C260 1.149 . S
C743 C21 1.476 . S
C748 C294 1.491 . S
C759 C318 1.500 . S
C764 C29 1.462 . S
C775 C340 1.502 . S
C780 C51 1.473 . S
C791 C272 1.499 . S
C796 C87 1.466 . S
C807 C109 1.465 . S
C812 C252 1.494 . S
C823 C125 1.448 . S
C828 C194 1.499 . S
C839 C153 1.498 . S
C844 C216 1.496 . S
C855 C228 1.499 . S
C860 C175 1.466 . S
C871 C128 1.490 . S
C876 C197 1.496 . S
C887 C150 1.498 . S
C892 C213 1.470 . S
C903 C235 1.500 . S
C908 C164 1.495 . S
C919 C106 1.487 . S
C924 C263 1.457 . S
C935 C76 1.494 . S
C940 C279 1.464 . S
C951 C293 1.461 . S
C956 C18 1.485 . S
C967 C30 1.491 . S
C972 C315 1.475 . S
C983 C351 1.489 . S
C988 C54 1.480 . S
C999 C162 1.234 . S
C1004 C8 1.184 . S
C1015 C96 1.217 . S
C1020 C40 1.212 . S
C1031 C120 1.199 . S
C1036 C62 1.232 . S
C1047 C140 1.228 . S
C1052 C74 1.198 . S
C1063 C184 1.234 . S
C1068 C338 1.196 . S
C1079 C274 1.232 . S
C1084 C208 1.199 . S
C1095 C304 1.205 . S
C1100 C230 1.226 . S
C1111 C250 1.201 . S
C1116 C326 1.230 . S
