# Generated by pormake.
# Topology som, (6)-cn, num edge types: 1
# Building blocks:
#     Node 0, Type 0, BuildingBlock: INOVEN_clean_sbu_0, # of connection points: 6
#     Node 1, Type 0, BuildingBlock: INOVEN_clean_sbu_0, # of connection points: 6
#     Node 2, Type 0, BuildingBlock: INOVEN_clean_sbu_0, # of connection points: 6
#     Node 3, Type 0, BuildingBlock: INOVEN_clean_sbu_0, # of connection points: 6
#     Node 4, Type 0, BuildingBlock: INOVEN_clean_sbu_0, # of connection points: 6
#     Node 5, Type 0, BuildingBlock: INOVEN_clean_sbu_0, # of connection points: 6
#     Node 6, Type 0, BuildingBlock: INOVEN_clean_sbu_0, # of connection points: 6
#     Node 7, Type 0, BuildingBlock: INOVEN_clean_sbu_0, # of connection points: 6
#     Node 8, Type 0, BuildingBlock: INOVEN_clean_sbu_0, # of connection points: 6
#     Node 9, Type 0, BuildingBlock: INOVEN_clean_sbu_0, # of connection points: 6
#     Node 10, Type 0, BuildingBlock: INOVEN_clean_sbu_0, # of connection points: 6
#     Node 11, Type 0, BuildingBlock: INOVEN_clean_sbu_0, # of connection points: 6
#     Node 12, Type 0, BuildingBlock: INOVEN_clean_sbu_0, # of connection points: 6
#     Node 13, Type 0, BuildingBlock: INOVEN_clean_sbu_0, # of connection points: 6
#     Node 14, Type 0, BuildingBlock: INOVEN_clean_sbu_0, # of connection points: 6
#     Node 15, Type 0, BuildingBlock: INOVEN_clean_sbu_0, # of connection points: 6
#     Node 16, Type 0, BuildingBlock: INOVEN_clean_sbu_0, # of connection points: 6
#     Node 17, Type 0, BuildingBlock: INOVEN_clean_sbu_0, # of connection points: 6
#     Node 18, Type 0, BuildingBlock: INOVEN_clean_sbu_0, # of connection points: 6
#     Node 19, Type 0, BuildingBlock: INOVEN_clean_sbu_0, # of connection points: 6
#     Node 20, Type 0, BuildingBlock: INOVEN_clean_sbu_0, # of connection points: 6
#     Node 21, Type 0, BuildingBlock: INOVEN_clean_sbu_0, # of connection points: 6
#     Node 22, Type 0, BuildingBlock: INOVEN_clean_sbu_0, # of connection points: 6
#     Node 23, Type 0, BuildingBlock: INOVEN_clean_sbu_0, # of connection points: 6
#     Node 24, Type 0, BuildingBlock: INOVEN_clean_sbu_0, # of connection points: 6
#     Node 25, Type 0, BuildingBlock: INOVEN_clean_sbu_0, # of connection points: 6
#     Node 26, Type 0, BuildingBlock: INOVEN_clean_sbu_0, # of connection points: 6
#     Node 27, Type 0, BuildingBlock: INOVEN_clean_sbu_0, # of connection points: 6
#     Node 28, Type 0, BuildingBlock: INOVEN_clean_sbu_0, # of connection points: 6
#     Node 29, Type 0, BuildingBlock: INOVEN_clean_sbu_0, # of connection points: 6
#     Node 30, Type 0, BuildingBlock: INOVEN_clean_sbu_0, # of connection points: 6
#     Node 31, Type 0, BuildingBlock: INOVEN_clean_sbu_0, # of connection points: 6
#     Edge 32, Type (0, 0), None
#     Edge 33, Type (0, 0), None
#     Edge 34, Type (0, 0), None
#     Edge 35, Type (0, 0), None
#     Edge 36, Type (0, 0), None
#     Edge 37, Type (0, 0), None
#     Edge 38, Type (0, 0), None
#     Edge 39, Type (0, 0), None
#     Edge 40, Type (0, 0), None
#     Edge 41, Type (0, 0), None
#     Edge 42, Type (0, 0), None
#     Edge 43, Type (0, 0), None
#     Edge 44, Type (0, 0), None
#     Edge 45, Type (0, 0), None
#     Edge 46, Type (0, 0), None
#     Edge 47, Type (0, 0), None
#     Edge 48, Type (0, 0), None
#     Edge 49, Type (0, 0), None
#     Edge 50, Type (0, 0), None
#     Edge 51, Type (0, 0), None
#     Edge 52, Type (0, 0), None
#     Edge 53, Type (0, 0), None
#     Edge 54, Type (0, 0), None
#     Edge 55, Type (0, 0), None
#     Edge 56, Type (0, 0), None
#     Edge 57, Type (0, 0), None
#     Edge 58, Type (0, 0), None
#     Edge 59, Type (0, 0), None
#     Edge 60, Type (0, 0), None
#     Edge 61, Type (0, 0), None
#     Edge 62, Type (0, 0), None
#     Edge 63, Type (0, 0), None
#     Edge 64, Type (0, 0), None
#     Edge 65, Type (0, 0), None
#     Edge 66, Type (0, 0), None
#     Edge 67, Type (0, 0), None
#     Edge 68, Type (0, 0), None
#     Edge 69, Type (0, 0), None
#     Edge 70, Type (0, 0), None
#     Edge 71, Type (0, 0), None
#     Edge 72, Type (0, 0), None
#     Edge 73, Type (0, 0), None
#     Edge 74, Type (0, 0), None
#     Edge 75, Type (0, 0), None
#     Edge 76, Type (0, 0), None
#     Edge 77, Type (0, 0), None
#     Edge 78, Type (0, 0), None
#     Edge 79, Type (0, 0), None
#     Edge 80, Type (0, 0), None
#     Edge 81, Type (0, 0), None
#     Edge 82, Type (0, 0), None
#     Edge 83, Type (0, 0), None
#     Edge 84, Type (0, 0), None
#     Edge 85, Type (0, 0), None
#     Edge 86, Type (0, 0), None
#     Edge 87, Type (0, 0), None
#     Edge 88, Type (0, 0), None
#     Edge 89, Type (0, 0), None
#     Edge 90, Type (0, 0), None
#     Edge 91, Type (0, 0), None
#     Edge 92, Type (0, 0), None
#     Edge 93, Type (0, 0), None
#     Edge 94, Type (0, 0), None
#     Edge 95, Type (0, 0), None
#     Edge 96, Type (0, 0), None
#     Edge 97, Type (0, 0), None
#     Edge 98, Type (0, 0), None
#     Edge 99, Type (0, 0), None
#     Edge 100, Type (0, 0), None
#     Edge 101, Type (0, 0), None
#     Edge 102, Type (0, 0), None
#     Edge 103, Type (0, 0), None
#     Edge 104, Type (0, 0), None
#     Edge 105, Type (0, 0), None
#     Edge 106, Type (0, 0), None
#     Edge 107, Type (0, 0), None
#     Edge 108, Type (0, 0), None
#     Edge 109, Type (0, 0), None
#     Edge 110, Type (0, 0), None
#     Edge 111, Type (0, 0), None
#     Edge 112, Type (0, 0), None
#     Edge 113, Type (0, 0), None
#     Edge 114, Type (0, 0), None
#     Edge 115, Type (0, 0), None
#     Edge 116, Type (0, 0), None
#     Edge 117, Type (0, 0), None
#     Edge 118, Type (0, 0), None
#     Edge 119, Type (0, 0), None
#     Edge 120, Type (0, 0), None
#     Edge 121, Type (0, 0), None
#     Edge 122, Type (0, 0), None
#     Edge 123, Type (0, 0), None
#     Edge 124, Type (0, 0), None
#     Edge 125, Type (0, 0), None
#     Edge 126, Type (0, 0), None
#     Edge 127, Type (0, 0), None
# Relax obj value: 0.084
# Max RMSD: 0.174
# Mean RMSD: 0.174
data_MOF--net-som--node1-INOVEN_clean_sbu_0--edge1-none
_symmetry_space_group_name_H-M    P1
_symmetry_Int_Tables_number       1
_symmetry_cell_setting            triclinic
loop_
_symmetry_equiv_pos_as_xyz
'x, y, z'
_cell_length_a     16.128768
_cell_length_b     23.444723
_cell_length_c     45.456079
_cell_angle_alpha  90.000665
_cell_angle_beta   90.000004
_cell_angle_gamma 89.997872
loop_
_atom_site_label
_atom_site_type_symbol
_atom_site_fract_x
_atom_site_fract_y
_atom_site_fract_z
_atom_type_partial_charge
Gd0 Gd 1.02117 0.47285 0.10279 0.0
Gd1 Gd 0.16543 0.39199 0.08526 0.0
C2 C 0.97823 0.33713 0.09609 0.0
C3 C 0.87742 0.51606 0.10284 0.0
C4 C 0.7968 0.49037 0.09549 0.0
C5 C 0.73217 0.50371 0.11388 0.0
C6 C 0.78306 0.45167 0.07223 0.0
C7 C 0.63863 0.44149 0.08774 0.0
C8 C 0.70395 0.42685 0.06849 0.0
C9 C 0.65347 0.48199 0.10954 0.0
C10 C 0.15158 0.46215 0.14245 0.0
C11 C 0.17282 0.53626 0.07905 0.0
C12 C 0.30875 0.34594 0.08877 0.0
C13 C 0.39271 0.37064 0.08787 0.0
C14 C 0.43305 0.38162 0.06098 0.0
C15 C 0.43465 0.38132 0.11428 0.0
C16 C 0.55549 0.41439 0.08712 0.0
C17 C 0.51512 0.40231 0.11392 0.0
C18 C 0.51411 0.40274 0.06066 0.0
C19 C 0.08877 0.42559 0.03653 0.0
O20 O 0.95171 0.38949 0.10024 0.0
O21 O 1.05932 0.32596 0.09204 0.0
O22 O 0.91243 0.49764 0.12727 0.0
O23 O 0.92888 0.5239 0.0809 0.0
O24 O 0.10728 0.5081 0.13873 0.0
O25 O 0.11802 0.42321 0.12707 0.0
O26 O 0.21304 0.48638 0.08301 0.0
O27 O 0.09218 0.53998 0.08076 0.0
O28 O 0.2662 0.34674 0.06431 0.0
O29 O 0.26412 0.35766 0.11204 0.0
O30 O 0.15006 0.39002 0.03575 0.0
O31 O 0.07138 0.43776 0.06271 0.0
H32 H 0.74432 0.53191 0.13168 0.0
H33 H 0.83318 0.43972 0.05762 0.0
H34 H 0.69462 0.39566 0.05124 0.0
H35 H 0.60357 0.49643 0.12351 0.0
H36 H 0.40275 0.37287 0.0402 0.0
H37 H 0.40602 0.37212 0.13529 0.0
H38 H 0.54617 0.40841 0.13481 0.0
H39 H 0.54396 0.40974 0.03981 0.0
Gd40 Gd 0.37027 0.65445 0.10279 0.0
Gd41 Gd 0.22601 0.73531 0.08526 0.0
C42 C 0.41321 0.79016 0.09609 0.0
C43 C 0.51401 0.61123 0.10284 0.0
C44 C 0.59463 0.63695 0.0955 0.0
C45 C 0.65923 0.62367 0.11393 0.0
C46 C 0.60841 0.67559 0.07222 0.0
C47 C 0.75281 0.68584 0.08777 0.0
C48 C 0.68752 0.70042 0.06849 0.0
C49 C 0.73793 0.64539 0.10959 0.0
C50 C 0.23985 0.66515 0.14245 0.0
C51 C 0.21862 0.59104 0.07904 0.0
C52 C 0.0827 0.78137 0.08877 0.0
C53 C 0.99874 0.75666 0.08788 0.0
C54 C 0.9584 0.74566 0.06099 0.0
C55 C 0.9568 0.74601 0.11429 0.0
C56 C 0.83596 0.71292 0.08714 0.0
C57 C 0.87633 0.72504 0.11393 0.0
C58 C 0.87734 0.72454 0.06068 0.0
C59 C 0.30267 0.70171 0.03653 0.0
O60 O 0.43973 0.7378 0.10024 0.0
O61 O 0.33213 0.80133 0.09204 0.0
O62 O 0.47899 0.62963 0.12727 0.0
O63 O 0.46257 0.60341 0.08089 0.0
O64 O 0.28415 0.6192 0.13872 0.0
O65 O 0.27342 0.70408 0.12707 0.0
O66 O 0.17839 0.64092 0.08301 0.0
O67 O 0.29926 0.58731 0.08075 0.0
O68 O 0.12524 0.78055 0.06431 0.0
O69 O 0.12733 0.76966 0.11204 0.0
O70 O 0.24139 0.73728 0.03575 0.0
O71 O 0.32007 0.68954 0.06271 0.0
H72 H 0.64706 0.59549 0.13173 0.0
H73 H 0.55832 0.68751 0.0576 0.0
H74 H 0.69688 0.73158 0.05122 0.0
H75 H 0.78779 0.631 0.12359 0.0
H76 H 0.9887 0.75439 0.04021 0.0
H77 H 0.98543 0.75524 0.1353 0.0
H78 H 0.84528 0.71896 0.13483 0.0
H79 H 0.84749 0.71751 0.03983 0.0
Gd80 Gd 1.02124 0.65447 0.19464 0.0
Gd81 Gd 0.16546 0.73532 0.21221 0.0
C82 C 0.97825 0.79017 0.20137 0.0
C83 C 0.87749 0.61126 0.19456 0.0
C84 C 0.79687 0.63695 0.20191 0.0
C85 C 0.73221 0.62358 0.18353 0.0
C86 C 0.78314 0.67565 0.22517 0.0
C87 C 0.63869 0.68582 0.20968 0.0
C88 C 0.70404 0.70047 0.22892 0.0
C89 C 0.65351 0.6453 0.18789 0.0
C90 C 0.15176 0.66514 0.15504 0.0
C91 C 0.17283 0.59104 0.21842 0.0
C92 C 0.30879 0.78136 0.20871 0.0
C93 C 0.39275 0.75665 0.20959 0.0
C94 C 0.43314 0.74568 0.23647 0.0
C95 C 0.43465 0.74596 0.18318 0.0
C96 C 0.55554 0.71291 0.21032 0.0
C97 C 0.51512 0.72498 0.18353 0.0
C98 C 0.51421 0.72457 0.23678 0.0
C99 C 0.08877 0.70172 0.26092 0.0
O100 O 0.95176 0.73781 0.19721 0.0
O101 O 1.05933 0.80135 0.20542 0.0
O102 O 0.91251 0.62973 0.17014 0.0
O103 O 0.92894 0.60337 0.21649 0.0
O104 O 0.1074 0.61921 0.15871 0.0
O105 O 0.11814 0.7041 0.17038 0.0
O106 O 0.21306 0.64092 0.21446 0.0
O107 O 0.09218 0.58733 0.2167 0.0
O108 O 0.26625 0.7805 0.23318 0.0
O109 O 0.26415 0.76971 0.18544 0.0
O110 O 0.15003 0.7373 0.26171 0.0
O111 O 0.07138 0.68955 0.23474 0.0
H112 H 0.74434 0.59537 0.16574 0.0
H113 H 0.83328 0.68762 0.23977 0.0
H114 H 0.69471 0.73167 0.24617 0.0
H115 H 0.6036 0.63086 0.17392 0.0
H116 H 0.40287 0.75444 0.25726 0.0
H117 H 0.40598 0.75517 0.16217 0.0
H118 H 0.54613 0.71887 0.16262 0.0
H119 H 0.5441 0.71758 0.25763 0.0
Gd120 Gd 0.3702 0.47284 0.19465 0.0
Gd121 Gd 0.22599 0.39198 0.21221 0.0
C122 C 0.41319 0.33713 0.20137 0.0
C123 C 0.51394 0.51604 0.19456 0.0
C124 C 0.59456 0.49034 0.2019 0.0
C125 C 0.65918 0.50364 0.18349 0.0
C126 C 0.60832 0.45168 0.22518 0.0
C127 C 0.75274 0.44145 0.20965 0.0
C128 C 0.68743 0.42686 0.22892 0.0
C129 C 0.73788 0.48191 0.18784 0.0
C130 C 0.23967 0.46217 0.15504 0.0
C131 C 0.21861 0.53625 0.21843 0.0
C132 C 0.08266 0.34593 0.20871 0.0
C133 C 0.99869 0.37065 0.20959 0.0
C134 C 0.95831 0.38164 0.23646 0.0
C135 C 0.9568 0.3813 0.18317 0.0
C136 C 0.8359 0.41438 0.2103 0.0
C137 C 0.87633 0.40228 0.18351 0.0
C138 C 0.87724 0.40275 0.23677 0.0
C139 C 0.30268 0.42558 0.26092 0.0
O140 O 0.43969 0.38949 0.1972 0.0
O141 O 0.33212 0.32595 0.20542 0.0
O142 O 0.47891 0.49759 0.17014 0.0
O143 O 0.46251 0.52393 0.2165 0.0
O144 O 0.28403 0.5081 0.15872 0.0
O145 O 0.2733 0.42321 0.17039 0.0
O146 O 0.17838 0.48637 0.21446 0.0
O147 O 0.29925 0.53997 0.2167 0.0
O148 O 0.12519 0.34681 0.23318 0.0
O149 O 0.12731 0.35757 0.18544 0.0
O150 O 0.24142 0.38999 0.26171 0.0
O151 O 0.32006 0.43775 0.23474 0.0
H152 H 0.64703 0.53183 0.16569 0.0
H153 H 0.55821 0.43975 0.23979 0.0
H154 H 0.69678 0.39569 0.24618 0.0
H155 H 0.78776 0.49632 0.17384 0.0
H156 H 0.98857 0.37291 0.25725 0.0
H157 H 0.98547 0.37208 0.16216 0.0
H158 H 0.84532 0.40836 0.1626 0.0
H159 H 0.84735 0.40976 0.25761 0.0
Gd160 Gd 0.97594 0.4853 0.96207 0.0
Gd161 Gd 0.12045 0.40441 0.94465 0.0
C162 C 0.96861 0.34104 0.96834 0.0
C163 C 0.8327 0.5314 0.95848 0.0
C164 C 0.74875 0.50669 0.95944 0.0
C165 C 0.70855 0.4957 0.98636 0.0
C166 C 0.70671 0.496 0.93306 0.0
C167 C 0.58602 0.4629 0.96029 0.0
C168 C 0.62626 0.475 0.93347 0.0
C169 C 0.62751 0.47456 0.98673 0.0
C170 C 1.05248 0.45168 1.01083 0.0
C171 C 0.16323 0.54015 0.95127 0.0
C172 C 0.26413 0.36113 0.94469 0.0
C173 C 0.34475 0.38685 0.95202 0.0
C174 C 0.40932 0.37356 0.93358 0.0
C175 C 0.35855 0.42552 0.97529 0.0
C176 C 0.50291 0.43577 0.95971 0.0
C177 C 0.43765 0.45036 0.979 0.0
C178 C 0.48802 0.39529 0.93791 0.0
C179 C 0.98993 0.41515 0.90495 0.0
O180 O 0.92837 0.39091 0.96435 0.0
O181 O 1.04927 0.33733 0.96666 0.0
O182 O 0.87528 0.53079 0.98294 0.0
O183 O 0.87729 0.51949 0.93523 0.0
O184 O 0.99112 0.48721 1.0116 0.0
O185 O 1.07005 0.43968 0.98465 0.0
O186 O 0.18982 0.48779 0.94716 0.0
O187 O 0.08212 0.5513 0.95528 0.0
O188 O 0.22919 0.37942 0.92022 0.0
O189 O 0.21263 0.35343 0.96663 0.0
O190 O 1.0342 0.36918 0.90868 0.0
O191 O 1.02372 0.45397 0.92034 0.0
H192 H 0.73896 0.50445 1.00712 0.0
H193 H 0.73524 0.50521 0.91203 0.0
H194 H 0.59513 0.46889 0.91259 0.0
H195 H 0.59776 0.46754 1.0076 0.0
H196 H 0.39713 0.3454 0.91577 0.0
H197 H 0.30847 0.43744 0.98992 0.0
H198 H 0.44703 0.48154 0.99625 0.0
H199 H 0.53788 0.38088 0.92391 0.0
Gd200 Gd 0.91551 0.142 0.96207 0.0
Gd201 Gd 0.77101 0.22289 0.94465 0.0
C202 C 0.92283 0.28625 0.96835 0.0
C203 C 1.05875 0.09589 0.95848 0.0
C204 C 0.14269 0.1206 0.95944 0.0
C205 C 0.18289 0.13161 0.98635 0.0
C206 C 0.18472 0.13127 0.93305 0.0
C207 C 0.30543 0.16439 0.96027 0.0
C208 C 0.26518 0.15226 0.93345 0.0
C209 C 0.26394 0.15275 0.98671 0.0
C210 C 0.83892 0.17557 1.01083 0.0
C211 C 0.72822 0.08715 0.95127 0.0
C212 C 0.62732 0.26616 0.94469 0.0
C213 C 0.5467 0.24044 0.952 0.0
C214 C 0.48217 0.25366 0.93354 0.0
C215 C 0.53288 0.20181 0.97529 0.0
C216 C 0.38855 0.1915 0.95968 0.0
C217 C 0.45378 0.17695 0.97899 0.0
C218 C 0.40347 0.23194 0.93786 0.0
C219 C 0.90153 0.21216 0.90495 0.0
O220 O 0.96308 0.23639 0.96435 0.0
O221 O 0.84217 0.28997 0.96667 0.0
O222 O 1.01617 0.09652 0.98294 0.0
O223 O 1.01415 0.10777 0.93523 0.0
O224 O 0.90031 0.14009 1.0116 0.0
O225 O 0.82137 0.1876 0.98465 0.0
O226 O 0.70163 0.13951 0.94715 0.0
O227 O 0.80933 0.076 0.95528 0.0
O228 O 0.66228 0.24789 0.92022 0.0
O229 O 0.6788 0.27386 0.96663 0.0
O230 O 0.85726 0.25812 0.90869 0.0
O231 O 0.86773 0.17334 0.92034 0.0
H232 H 0.1525 0.12288 1.00711 0.0
H233 H 0.15619 0.12203 0.91202 0.0
H234 H 0.2963 0.15834 0.91257 0.0
H235 H 0.29369 0.15979 1.00758 0.0
H236 H 0.49437 0.28181 0.91573 0.0
H237 H 0.58293 0.18992 0.98993 0.0
H238 H 0.44438 0.14581 0.99626 0.0
H239 H 0.35363 0.24631 0.92384 0.0
Gd240 Gd 0.97592 0.14199 0.83536 0.0
Gd241 Gd 0.12037 0.22288 0.85283 0.0
C242 C 0.96861 0.28625 0.82909 0.0
C243 C 0.83266 0.0959 0.83893 0.0
C244 C 0.74871 0.12062 0.83799 0.0
C245 C 0.70846 0.1316 0.81109 0.0
C246 C 0.70672 0.13132 0.86438 0.0
C247 C 0.58597 0.1644 0.83718 0.0
C248 C 0.62626 0.15232 0.86399 0.0
C249 C 0.6274 0.15273 0.81073 0.0
C250 C 1.05254 0.17556 0.78662 0.0
C251 C 0.16321 0.08714 0.84617 0.0
C252 C 0.26406 0.26614 0.85282 0.0
C253 C 0.34468 0.24043 0.84549 0.0
C254 C 0.40928 0.25374 0.86391 0.0
C255 C 0.35846 0.20175 0.82222 0.0
C256 C 0.50284 0.19152 0.83778 0.0
C257 C 0.43756 0.17691 0.8185 0.0
C258 C 0.48798 0.23201 0.85957 0.0
C259 C 0.98973 0.21217 0.89246 0.0
O260 O 0.92836 0.23639 0.83307 0.0
O261 O 1.04927 0.28995 0.83077 0.0
O262 O 0.87523 0.09658 0.81447 0.0
O263 O 0.87727 0.10773 0.86219 0.0
O264 O 0.99117 0.14006 0.78584 0.0
O265 O 1.07007 0.1876 0.8128 0.0
O266 O 0.18978 0.1395 0.8503 0.0
O267 O 0.0821 0.07598 0.84215 0.0
O268 O 0.2291 0.24779 0.87728 0.0
O269 O 0.21258 0.27391 0.83088 0.0
O270 O 1.03407 0.25812 0.88877 0.0
O271 O 1.02359 0.17333 0.8771 0.0
H272 H 0.73882 0.12284 0.79032 0.0
H273 H 0.73529 0.1221 0.8854 0.0
H274 H 0.59517 0.15843 0.88488 0.0
H275 H 0.59761 0.15974 0.78987 0.0
H276 H 0.3971 0.28192 0.88171 0.0
H277 H 0.30836 0.18982 0.8076 0.0
H278 H 0.44692 0.14573 0.80125 0.0
H279 H 0.53785 0.24643 0.87356 0.0
Gd280 Gd 0.91554 0.48531 0.83536 0.0
Gd281 Gd 0.77108 0.40442 0.85282 0.0
C282 C 0.92284 0.34105 0.82908 0.0
C283 C 1.05879 0.53141 0.83893 0.0
C284 C 0.14273 0.50669 0.838 0.0
C285 C 0.18299 0.49568 0.8111 0.0
C286 C 0.18472 0.49601 0.86439 0.0
C287 C 0.30548 0.46291 0.8372 0.0
C288 C 0.26518 0.47502 0.86401 0.0
C289 C 0.26404 0.47455 0.81075 0.0
C290 C 0.83891 0.45174 0.78662 0.0
C291 C 0.72824 0.54015 0.84617 0.0
C292 C 0.62739 0.36116 0.85283 0.0
C293 C 0.54678 0.38688 0.8455 0.0
C294 C 0.48222 0.37363 0.86394 0.0
C295 C 0.53297 0.42552 0.82222 0.0
C296 C 0.38862 0.43581 0.8378 0.0
C297 C 0.45387 0.45036 0.8185 0.0
C298 C 0.40352 0.39536 0.85962 0.0
C299 C 0.90173 0.41513 0.89245 0.0
O300 O 0.9631 0.39092 0.83307 0.0
O301 O 0.84219 0.33734 0.83077 0.0
O302 O 1.01623 0.53071 0.81447 0.0
O303 O 1.01417 0.5196 0.86219 0.0
O304 O 0.90027 0.48724 0.78584 0.0
O305 O 0.82138 0.4397 0.8128 0.0
O306 O 0.70168 0.48779 0.8503 0.0
O307 O 0.80934 0.55131 0.84215 0.0
O308 O 0.66238 0.3795 0.87728 0.0
O309 O 0.67887 0.3534 0.83088 0.0
O310 O 0.8574 0.36918 0.88877 0.0
O311 O 0.86787 0.45397 0.8771 0.0
H312 H 0.15263 0.50442 0.79032 0.0
H313 H 0.15615 0.50525 0.88541 0.0
H314 H 0.29627 0.46893 0.8849 0.0
H315 H 0.29384 0.46753 0.78989 0.0
H316 H 0.4944 0.34547 0.88176 0.0
H317 H 0.58304 0.43742 0.80758 0.0
H318 H 0.44449 0.48152 0.80124 0.0
H319 H 0.35367 0.38097 0.87363 0.0
Gd320 Gd 1.02117 -0.02716 0.60279 0.0
Gd321 Gd 0.16543 0.89199 0.58526 0.0
C322 C 0.97824 0.83713 0.59609 0.0
C323 C 0.87743 0.01606 0.60284 0.0
C324 C 0.79681 -0.00963 0.59549 0.0
C325 C 0.73217 0.00372 0.61388 0.0
C326 C 0.78307 -0.04833 0.57223 0.0
C327 C 0.63863 -0.05851 0.58774 0.0
C328 C 0.70396 0.92685 0.56849 0.0
C329 C 0.65347 -0.018 0.60954 0.0
C330 C 0.15159 -0.03785 0.64245 0.0
C331 C 0.17282 0.03626 0.57905 0.0
C332 C 0.30876 0.84594 0.58877 0.0
C333 C 0.39272 0.87065 0.58787 0.0
C334 C 0.43306 0.88162 0.56098 0.0
C335 C 0.43465 0.88133 0.61427 0.0
C336 C 0.5555 0.91439 0.58712 0.0
C337 C 0.51512 0.90231 0.61391 0.0
C338 C 0.51412 0.90274 0.56066 0.0
C339 C 0.08877 0.92559 0.53653 0.0
O340 O 0.95172 0.88949 0.60024 0.0
O341 O 1.05932 0.82596 0.59204 0.0
O342 O 0.91243 -0.00236 0.62727 0.0
O343 O 0.92889 0.0239 0.5809 0.0
O344 O 0.10729 0.0081 0.63873 0.0
O345 O 0.11803 0.92321 0.62707 0.0
O346 O 0.21304 -0.01362 0.58301 0.0
O347 O 0.09218 0.03998 0.58076 0.0
O348 O 0.2662 0.84675 0.56431 0.0
O349 O 0.26413 0.85765 0.61204 0.0
O350 O 0.15006 0.89002 0.53575 0.0
O351 O 0.07138 0.93776 0.56271 0.0
H352 H 0.74432 0.03192 0.63168 0.0
H353 H 0.83319 -0.06029 0.55763 0.0
H354 H 0.69462 0.89565 0.55124 0.0
H355 H 0.60357 -0.00357 0.62351 0.0
H356 H 0.40276 0.87287 0.5402 0.0
H357 H 0.40602 0.87212 0.63529 0.0
H358 H 0.54617 0.90842 0.63481 0.0
H359 H 0.54397 0.90974 0.53981 0.0
Gd360 Gd 0.37026 0.15445 0.60279 0.0
Gd361 Gd 0.22601 0.23531 0.58526 0.0
C362 C 0.41321 0.29016 0.59609 0.0
C363 C 0.51401 0.11124 0.60284 0.0
C364 C 0.59463 0.13695 0.5955 0.0
C365 C 0.65922 0.12367 0.61393 0.0
C366 C 0.60841 0.17559 0.57223 0.0
C367 C 0.7528 0.18584 0.58777 0.0
C368 C 0.68751 0.20042 0.56849 0.0
C369 C 0.73792 0.14539 0.60959 0.0
C370 C 0.23984 0.16515 0.64245 0.0
C371 C 0.21862 0.09104 0.57904 0.0
C372 C 0.08269 0.28137 0.58877 0.0
C373 C 0.99873 0.25666 0.58788 0.0
C374 C 0.95839 0.24566 0.56099 0.0
C375 C 0.9568 0.24601 0.61428 0.0
C376 C 0.83595 0.21292 0.58714 0.0
C377 C 0.87633 0.22503 0.61393 0.0
C378 C 0.87733 0.22454 0.56068 0.0
C379 C 0.30267 0.20171 0.53653 0.0
O380 O 0.43972 0.2378 0.60024 0.0
O381 O 0.33213 0.30133 0.59204 0.0
O382 O 0.47898 0.12964 0.62727 0.0
O383 O 0.46256 0.10341 0.5809 0.0
O384 O 0.28414 0.1192 0.63872 0.0
O385 O 0.27341 0.20409 0.62707 0.0
O386 O 0.17839 0.14092 0.58301 0.0
O387 O 0.29926 0.08731 0.58075 0.0
O388 O 0.12524 0.28055 0.56431 0.0
O389 O 0.12733 0.26967 0.61204 0.0
O390 O 0.24139 0.23729 0.53575 0.0
O391 O 0.32007 0.18955 0.5627 0.0
H392 H 0.64706 0.09549 0.63174 0.0
H393 H 0.55831 0.18751 0.5576 0.0
H394 H 0.69687 0.23158 0.55123 0.0
H395 H 0.78779 0.131 0.62359 0.0
H396 H 0.98869 0.25439 0.54021 0.0
H397 H 0.98544 0.25524 0.6353 0.0
H398 H 0.84529 0.21896 0.63483 0.0
H399 H 0.84748 0.21752 0.53983 0.0
Gd400 Gd 1.02123 0.15447 0.69464 0.0
Gd401 Gd 0.16545 0.23532 0.71221 0.0
C402 C 0.97824 0.29017 0.70138 0.0
C403 C 0.87749 0.11126 0.69456 0.0
C404 C 0.79687 0.13694 0.70192 0.0
C405 C 0.73221 0.12358 0.68354 0.0
C406 C 0.78314 0.17565 0.72518 0.0
C407 C 0.63869 0.18582 0.70968 0.0
C408 C 0.70403 0.20047 0.72893 0.0
C409 C 0.65351 0.1453 0.68789 0.0
C410 C 0.15175 0.16514 0.65503 0.0
C411 C 0.17283 0.09104 0.71841 0.0
C412 C 0.30879 0.28136 0.70871 0.0
C413 C 0.39275 0.25664 0.70959 0.0
C414 C 0.43313 0.24567 0.73647 0.0
C415 C 0.43465 0.24596 0.68318 0.0
C416 C 0.55554 0.2129 0.71032 0.0
C417 C 0.51512 0.22498 0.68353 0.0
C418 C 0.5142 0.22456 0.73678 0.0
C419 C 0.08882 0.20167 0.76092 0.0
O420 O 0.95175 0.23781 0.69721 0.0
O421 O 1.05932 0.30135 0.70542 0.0
O422 O 0.91251 0.12972 0.67014 0.0
O423 O 0.92894 0.10337 0.7165 0.0
O424 O 0.10739 0.11921 0.65871 0.0
O425 O 0.11813 0.2041 0.67038 0.0
O426 O 0.21305 0.14093 0.71446 0.0
O427 O 0.09219 0.08733 0.71669 0.0
O428 O 0.26625 0.28051 0.73317 0.0
O429 O 0.26414 0.2697 0.68544 0.0
O430 O 0.15004 0.2373 0.76171 0.0
O431 O 0.07141 0.18952 0.73475 0.0
H432 H 0.74434 0.09537 0.66574 0.0
H433 H 0.83327 0.18762 0.73977 0.0
H434 H 0.6947 0.23167 0.74617 0.0
H435 H 0.6036 0.13086 0.67392 0.0
H436 H 0.40286 0.25443 0.75726 0.0
H437 H 0.40599 0.25517 0.66217 0.0
H438 H 0.54614 0.21887 0.66262 0.0
H439 H 0.54409 0.21757 0.75763 0.0
Gd440 Gd 0.37021 -0.02716 0.69465 0.0
Gd441 Gd 0.226 0.89198 0.71221 0.0
C442 C 0.4132 0.83714 0.70137 0.0
C443 C 0.51395 0.01604 0.69456 0.0
C444 C 0.59457 -0.00966 0.7019 0.0
C445 C 0.65919 0.00364 0.68349 0.0
C446 C 0.60834 -0.04832 0.72518 0.0
C447 C 0.75275 -0.05855 0.70965 0.0
C448 C 0.68744 0.92686 0.72892 0.0
C449 C 0.73789 -0.01809 0.68783 0.0
C450 C 0.23968 -0.03783 0.65504 0.0
C451 C 0.21862 0.03625 0.71842 0.0
C452 C 0.08267 0.84593 0.70871 0.0
C453 C 0.9987 0.87065 0.70958 0.0
C454 C 0.95832 0.88165 0.73646 0.0
C455 C 0.95681 0.8813 0.68317 0.0
C456 C 0.83591 0.91438 0.71029 0.0
C457 C 0.87633 0.90228 0.68351 0.0
C458 C 0.87725 0.90276 0.73676 0.0
C459 C 0.30268 0.92558 0.76092 0.0
O460 O 0.4397 0.8895 0.6972 0.0
O461 O 0.33213 0.82596 0.70542 0.0
O462 O 0.47892 -0.0024 0.67014 0.0
O463 O 0.46252 0.02392 0.7165 0.0
O464 O 0.28404 0.0081 0.65872 0.0
O465 O 0.27331 0.92321 0.67038 0.0
O466 O 0.17839 -0.01363 0.71446 0.0
O467 O 0.29926 0.03998 0.7167 0.0
O468 O 0.1252 0.84681 0.73317 0.0
O469 O 0.12732 0.85757 0.68544 0.0
O470 O 0.24142 0.88999 0.76171 0.0
O471 O 0.32006 0.93776 0.73474 0.0
H472 H 0.64704 0.03183 0.66569 0.0
H473 H 0.55823 -0.06024 0.73979 0.0
H474 H 0.69679 0.8957 0.74618 0.0
H475 H 0.78777 -0.00369 0.67384 0.0
H476 H 0.98859 0.87291 0.75725 0.0
H477 H 0.98547 0.87207 0.66216 0.0
H478 H 0.84532 0.90835 0.6626 0.0
H479 H 0.84736 0.90977 0.75761 0.0
Gd480 Gd 0.97594 -0.0147 0.46207 0.0
Gd481 Gd 0.12044 0.90441 0.44464 0.0
C482 C 0.96861 0.84104 0.46834 0.0
C483 C 0.83269 0.0314 0.45848 0.0
C484 C 0.74875 0.00669 0.45944 0.0
C485 C 0.70854 -0.0043 0.48636 0.0
C486 C 0.70671 -0.00401 0.43307 0.0
C487 C 0.58601 -0.0371 0.46029 0.0
C488 C 0.62626 -0.02501 0.43347 0.0
C489 C 0.6275 -0.02544 0.48673 0.0
C490 C 1.05247 -0.04831 0.51083 0.0
C491 C 0.16323 0.04015 0.45127 0.0
C492 C 0.26413 0.86113 0.44469 0.0
C493 C 0.34475 0.88685 0.45202 0.0
C494 C 0.40932 0.87356 0.43358 0.0
C495 C 0.35854 0.92552 0.47528 0.0
C496 C 0.5029 0.93577 0.45971 0.0
C497 C 0.43764 -0.04963 0.479 0.0
C498 C 0.48802 0.89528 0.43791 0.0
C499 C 0.98992 0.91515 0.40495 0.0
O500 O 0.92837 0.89091 0.46435 0.0
O501 O 1.04927 0.83733 0.46667 0.0
O502 O 0.87527 0.03079 0.48294 0.0
O503 O 0.87728 0.0195 0.43523 0.0
O504 O 0.99112 -0.01279 0.5116 0.0
O505 O 1.07005 -0.06032 0.48465 0.0
O506 O 0.18981 -0.01221 0.44716 0.0
O507 O 0.08211 0.05131 0.45528 0.0
O508 O 0.22918 0.87943 0.42022 0.0
O509 O 0.21263 0.85343 0.46663 0.0
O510 O 1.03419 0.86918 0.40868 0.0
O511 O 1.02371 -0.04603 0.42034 0.0
H512 H 0.73894 0.00445 0.50712 0.0
H513 H 0.73524 0.00521 0.41203 0.0
H514 H 0.59513 -0.03112 0.41259 0.0
H515 H 0.59775 -0.03246 0.5076 0.0
H516 H 0.39713 0.84539 0.41578 0.0
H517 H 0.30846 0.93745 0.48991 0.0
H518 H 0.44702 -0.01845 0.49625 0.0
H519 H 0.53788 0.88087 0.42391 0.0
Gd520 Gd 0.91551 0.642 0.46207 0.0
Gd521 Gd 0.77101 0.72289 0.44464 0.0
C522 C 0.92284 0.78625 0.46835 0.0
C523 C 1.05875 0.59589 0.45849 0.0
C524 C 0.14269 0.6206 0.45944 0.0
C525 C 0.1829 0.63161 0.48635 0.0
C526 C 0.18472 0.63127 0.43306 0.0
C527 C 0.30543 0.66439 0.46027 0.0
C528 C 0.26518 0.65227 0.43345 0.0
C529 C 0.26395 0.65275 0.48671 0.0
C530 C 0.83891 0.67557 0.51083 0.0
C531 C 0.72822 0.58715 0.45127 0.0
C532 C 0.62733 0.76616 0.44468 0.0
C533 C 0.54671 0.74043 0.452 0.0
C534 C 0.48217 0.75366 0.43354 0.0
C535 C 0.53288 0.7018 0.47528 0.0
C536 C 0.38855 0.6915 0.45968 0.0
C537 C 0.45379 0.67695 0.47899 0.0
C538 C 0.40347 0.73193 0.43786 0.0
C539 C 0.90155 0.71215 0.40496 0.0
O540 O 0.96308 0.73638 0.46435 0.0
O541 O 0.84217 0.78997 0.46667 0.0
O542 O 1.01618 0.59653 0.48295 0.0
O543 O 1.01415 0.60777 0.43523 0.0
O544 O 0.90031 0.64009 0.5116 0.0
O545 O 0.82137 0.6876 0.48465 0.0
O546 O 0.70164 0.63951 0.44715 0.0
O547 O 0.80933 0.576 0.45528 0.0
O548 O 0.66229 0.74788 0.42021 0.0
O549 O 0.67881 0.77386 0.46663 0.0
O550 O 0.85728 0.75812 0.40869 0.0
O551 O 0.86774 0.67333 0.42034 0.0
H552 H 0.15251 0.62288 0.50711 0.0
H553 H 0.15618 0.62204 0.41203 0.0
H554 H 0.2963 0.65835 0.41257 0.0
H555 H 0.2937 0.65979 0.50758 0.0
H556 H 0.49438 0.78181 0.41572 0.0
H557 H 0.58294 0.68992 0.48993 0.0
H558 H 0.44439 0.64581 0.49626 0.0
H559 H 0.35364 0.74631 0.42384 0.0
Gd560 Gd 0.97592 0.64198 0.33536 0.0
Gd561 Gd 0.12038 0.72288 0.35282 0.0
C562 C 0.9686 0.78625 0.32909 0.0
C563 C 0.83266 0.5959 0.33893 0.0
C564 C 0.74872 0.62062 0.33799 0.0
C565 C 0.70847 0.63161 0.31109 0.0
C566 C 0.70672 0.63132 0.36438 0.0
C567 C 0.58597 0.66441 0.33718 0.0
C568 C 0.62626 0.65232 0.36399 0.0
C569 C 0.62741 0.65274 0.31073 0.0
C570 C 1.05249 0.67561 0.28662 0.0
C571 C 0.16322 0.58714 0.34617 0.0
C572 C 0.26407 0.76614 0.35282 0.0
C573 C 0.34469 0.74044 0.34548 0.0
C574 C 0.40928 0.75374 0.3639 0.0
C575 C 0.35846 0.70176 0.32222 0.0
C576 C 0.50285 0.69152 0.33777 0.0
C577 C 0.43757 0.67691 0.31849 0.0
C578 C 0.48798 0.73202 0.35957 0.0
C579 C 0.98975 0.71216 0.39246 0.0
O580 O 0.92836 0.73638 0.33307 0.0
O581 O 1.04926 0.78996 0.33078 0.0
O582 O 0.87523 0.59657 0.31447 0.0
O583 O 0.87727 0.60774 0.36219 0.0
O584 O 0.99116 0.64007 0.28584 0.0
O585 O 1.07005 0.68762 0.3128 0.0
O586 O 0.18978 0.6395 0.3503 0.0
O587 O 0.08211 0.57598 0.34215 0.0
O588 O 0.2291 0.7478 0.37727 0.0
O589 O 0.21258 0.7739 0.33088 0.0
O590 O 1.03408 0.75811 0.38878 0.0
O591 O 1.0236 0.67332 0.37711 0.0
H592 H 0.73883 0.62285 0.29032 0.0
H593 H 0.73528 0.6221 0.38541 0.0
H594 H 0.59516 0.65843 0.38488 0.0
H595 H 0.59762 0.65974 0.28987 0.0
H596 H 0.3971 0.78193 0.38171 0.0
H597 H 0.30837 0.68982 0.3076 0.0
H598 H 0.44693 0.64573 0.30124 0.0
H599 H 0.53785 0.74644 0.37356 0.0
Gd600 Gd 0.91553 -0.01469 0.33536 0.0
Gd601 Gd 0.77108 0.90442 0.35283 0.0
C602 C 0.92284 0.84105 0.32908 0.0
C603 C 1.05878 0.03141 0.33893 0.0
C604 C 0.14272 0.00669 0.338 0.0
C605 C 0.18298 -0.00432 0.3111 0.0
C606 C 0.18471 -0.00398 0.36439 0.0
C607 C 0.30547 -0.03709 0.3372 0.0
C608 C 0.26517 -0.02498 0.36401 0.0
C609 C 0.26403 -0.02546 0.31075 0.0
C610 C 0.8389 -0.04826 0.28662 0.0
C611 C 0.72823 0.04015 0.34617 0.0
C612 C 0.62739 0.86116 0.35282 0.0
C613 C 0.54677 0.88688 0.3455 0.0
C614 C 0.48221 0.87363 0.36395 0.0
C615 C 0.53296 0.92551 0.32222 0.0
C616 C 0.38861 0.93581 0.3378 0.0
C617 C 0.45386 -0.04964 0.3185 0.0
C618 C 0.40351 0.89536 0.35962 0.0
C619 C 0.90172 0.91513 0.39246 0.0
O620 O 0.96309 0.89092 0.33307 0.0
O621 O 0.84218 0.83734 0.33077 0.0
O622 O 1.01622 0.03071 0.31447 0.0
O623 O 1.01416 0.01959 0.36219 0.0
O624 O 0.90027 -0.01276 0.28584 0.0
O625 O 0.82137 -0.0603 0.3128 0.0
O626 O 0.70167 -0.01221 0.3503 0.0
O627 O 0.80933 0.05131 0.34215 0.0
O628 O 0.66237 0.87949 0.37728 0.0
O629 O 0.67886 0.8534 0.33088 0.0
O630 O 0.85739 0.86918 0.38877 0.0
O631 O 0.86786 -0.04603 0.37711 0.0
H632 H 0.15262 0.00441 0.29033 0.0
H633 H 0.15614 0.00525 0.38541 0.0
H634 H 0.29626 -0.03106 0.3849 0.0
H635 H 0.29382 -0.03248 0.28989 0.0
H636 H 0.4944 0.84547 0.38176 0.0
H637 H 0.58303 0.93741 0.30758 0.0
H638 H 0.44447 -0.01849 0.30124 0.0
H639 H 0.35367 0.88098 0.37364 0.0
Gd640 Gd 0.52116 0.47284 0.60279 0.0
Gd641 Gd 0.66542 0.39199 0.58526 0.0
C642 C 0.47823 0.33713 0.59609 0.0
C643 C 0.37742 0.51606 0.60284 0.0
C644 C 0.2968 0.49037 0.59549 0.0
C645 C 0.23216 0.50372 0.61388 0.0
C646 C 0.28306 0.45167 0.57223 0.0
C647 C 0.13863 0.44149 0.58774 0.0
C648 C 0.20395 0.42685 0.56849 0.0
C649 C 0.15346 0.482 0.60953 0.0
C650 C 0.65158 0.46215 0.64245 0.0
C651 C 0.67282 0.53626 0.57906 0.0
C652 C 0.80875 0.34594 0.58877 0.0
C653 C 0.89271 0.37065 0.58787 0.0
C654 C 0.93305 0.38162 0.56098 0.0
C655 C 0.93465 0.38133 0.61428 0.0
C656 C 1.05549 0.4144 0.58712 0.0
C657 C 1.01512 0.40231 0.61391 0.0
C658 C 1.01411 0.40274 0.56066 0.0
C659 C 0.58877 0.42559 0.53653 0.0
O660 O 0.45171 0.38949 0.60024 0.0
O661 O 0.55931 0.32596 0.59205 0.0
O662 O 0.41242 0.49764 0.62727 0.0
O663 O 0.42888 0.5239 0.5809 0.0
O664 O 0.60728 0.50809 0.63873 0.0
O665 O 0.61801 0.42321 0.62708 0.0
O666 O 0.71303 0.48638 0.58301 0.0
O667 O 0.59217 0.53998 0.58076 0.0
O668 O 0.76619 0.34674 0.56431 0.0
O669 O 0.76412 0.35765 0.61204 0.0
O670 O 0.65006 0.39002 0.53575 0.0
O671 O 0.57137 0.43776 0.56271 0.0
H672 H 0.24431 0.53192 0.63168 0.0
H673 H 0.33319 0.43971 0.55763 0.0
H674 H 0.19462 0.39565 0.55124 0.0
H675 H 0.10356 0.49644 0.62351 0.0
H676 H 0.90274 0.37287 0.5402 0.0
H677 H 0.90602 0.37212 0.63529 0.0
H678 H 1.04616 0.40842 0.63481 0.0
H679 H 1.04396 0.40974 0.53981 0.0
Gd680 Gd 0.87027 0.65445 0.60279 0.0
Gd681 Gd 0.72602 0.73531 0.58526 0.0
C682 C 0.91322 0.79016 0.59609 0.0
C683 C 1.01401 0.61123 0.60283 0.0
C684 C 0.09463 0.63695 0.5955 0.0
C685 C 0.15922 0.62367 0.61393 0.0
C686 C 0.10842 0.67559 0.57222 0.0
C687 C 0.25281 0.68584 0.58777 0.0
C688 C 0.18752 0.70042 0.56848 0.0
C689 C 0.23792 0.6454 0.60959 0.0
C690 C 0.73985 0.66515 0.64245 0.0
C691 C 0.71861 0.59104 0.57905 0.0
C692 C 0.5827 0.78137 0.58878 0.0
C693 C 0.49874 0.75666 0.58788 0.0
C694 C 0.4584 0.74565 0.561 0.0
C695 C 0.4568 0.74601 0.61429 0.0
C696 C 0.33596 0.71292 0.58714 0.0
C697 C 0.37633 0.72504 0.61393 0.0
C698 C 0.37734 0.72454 0.56068 0.0
C699 C 0.80262 0.70167 0.53653 0.0
O700 O 0.93973 0.7378 0.60024 0.0
O701 O 0.83214 0.80133 0.59204 0.0
O702 O 0.97899 0.62962 0.62727 0.0
O703 O 0.96257 0.60341 0.58089 0.0
O704 O 0.78415 0.6192 0.63873 0.0
O705 O 0.77343 0.70409 0.62707 0.0
O706 O 0.67839 0.64093 0.58302 0.0
O707 O 0.79926 0.58731 0.58076 0.0
O708 O 0.62524 0.78055 0.56431 0.0
O709 O 0.62733 0.76966 0.61204 0.0
O710 O 0.74138 0.73728 0.53575 0.0
O711 O 0.82004 0.68952 0.5627 0.0
H712 H 0.14705 0.5955 0.63174 0.0
H713 H 1.05833 0.6875 0.55759 0.0
H714 H 0.19689 0.73157 0.55122 0.0
H715 H 0.28778 0.63101 0.6236 0.0
H716 H 0.48871 0.75438 0.54021 0.0
H717 H 0.48543 0.75524 0.6353 0.0
H718 H 0.34528 0.71897 0.63483 0.0
H719 H 0.34749 0.71751 0.53983 0.0
Gd720 Gd 0.52124 0.65447 0.69464 0.0
Gd721 Gd 0.66545 0.73532 0.71221 0.0
C722 C 0.47825 0.79017 0.70137 0.0
C723 C 0.37749 0.61126 0.69455 0.0
C724 C 0.29687 0.63695 0.70191 0.0
C725 C 0.2322 0.62357 0.68354 0.0
C726 C 0.28315 0.67566 0.72517 0.0
C727 C 0.13869 0.68582 0.70968 0.0
C728 C 0.20404 0.70047 0.72892 0.0
C729 C 0.1535 0.64529 0.68789 0.0
C730 C 0.65176 0.66514 0.65504 0.0
C731 C 0.67282 0.59104 0.71842 0.0
C732 C 0.80879 0.78136 0.70871 0.0
C733 C 0.89275 0.75664 0.70959 0.0
C734 C 0.93314 0.74568 0.73648 0.0
C735 C 0.93464 0.74596 0.68318 0.0
C736 C 1.05554 0.7129 0.71032 0.0
C737 C 1.01512 0.72498 0.68353 0.0
C738 C 1.01421 0.72457 0.73678 0.0
C739 C 0.58876 0.70172 0.76092 0.0
O740 O 0.45175 0.73781 0.6972 0.0
O741 O 0.55933 0.80135 0.70542 0.0
O742 O 0.41251 0.62974 0.67014 0.0
O743 O 0.42894 0.60337 0.71649 0.0
O744 O 0.6074 0.61921 0.65871 0.0
O745 O 0.61814 0.7041 0.67038 0.0
O746 O 0.71305 0.64092 0.71446 0.0
O747 O 0.59218 0.58733 0.71669 0.0
O748 O 0.76625 0.7805 0.73318 0.0
O749 O 0.76414 0.76971 0.68544 0.0
O750 O 0.65003 0.73731 0.76171 0.0
O751 O 0.57138 0.68955 0.73474 0.0
H752 H 0.24433 0.59536 0.66574 0.0
H753 H 0.33329 0.68763 0.73976 0.0
H754 H 0.19472 0.73168 0.74616 0.0
H755 H 0.10359 0.63085 0.67393 0.0
H756 H 0.90287 0.75444 0.75726 0.0
H757 H 0.90598 0.75516 0.66217 0.0
H758 H 1.04613 0.71886 0.66262 0.0
H759 H 1.0441 0.71758 0.75763 0.0
Gd760 Gd 0.8702 0.47284 0.69465 0.0
Gd761 Gd 0.72599 0.39197 0.71221 0.0
C762 C 0.9132 0.33713 0.70138 0.0
C763 C 1.01394 0.51604 0.69456 0.0
C764 C 0.09456 0.49034 0.7019 0.0
C765 C 0.15917 0.50363 0.68349 0.0
C766 C 0.10833 0.45169 0.72518 0.0
C767 C 0.25274 0.44145 0.70965 0.0
C768 C 0.18744 0.42686 0.72892 0.0
C769 C 0.23787 0.4819 0.68783 0.0
C770 C 0.73967 0.46216 0.65504 0.0
C771 C 0.71861 0.53625 0.71842 0.0
C772 C 0.58266 0.34593 0.70871 0.0
C773 C 0.4987 0.37065 0.70959 0.0
C774 C 0.45831 0.38165 0.73646 0.0
C775 C 0.4568 0.3813 0.68317 0.0
C776 C 0.3359 0.41438 0.7103 0.0
C777 C 0.37632 0.40228 0.68351 0.0
C778 C 0.37724 0.40276 0.73677 0.0
C779 C 0.80262 0.42562 0.76092 0.0
O780 O 0.93969 0.38949 0.69721 0.0
O781 O 0.83212 0.32595 0.70543 0.0
O782 O 0.9789 0.4976 0.67014 0.0
O783 O 0.96251 0.52392 0.7165 0.0
O784 O 0.78403 0.50809 0.65871 0.0
O785 O 0.7733 0.4232 0.67039 0.0
O786 O 0.67838 0.48637 0.71446 0.0
O787 O 0.79925 0.53998 0.7167 0.0
O788 O 0.62519 0.34681 0.73318 0.0
O789 O 0.62731 0.35758 0.68544 0.0
O790 O 0.74141 0.39 0.76171 0.0
O791 O 0.82003 0.43778 0.73475 0.0
H792 H 0.14702 0.53182 0.66569 0.0
H793 H 1.05822 0.43976 0.7398 0.0
H794 H 0.19679 0.39571 0.74619 0.0
H795 H 0.28775 0.49631 0.67384 0.0
H796 H 0.48858 0.37291 0.75725 0.0
H797 H 0.48547 0.37208 0.66216 0.0
H798 H 0.34531 0.40835 0.6626 0.0
H799 H 0.34735 0.40977 0.75761 0.0
Gd800 Gd 0.47595 0.4853 0.46207 0.0
Gd801 Gd 0.62045 0.40441 0.44464 0.0
C802 C 0.46861 0.34104 0.46833 0.0
C803 C 0.3327 0.5314 0.45848 0.0
C804 C 0.24876 0.50669 0.45944 0.0
C805 C 0.20856 0.4957 0.48636 0.0
C806 C 0.20672 0.49599 0.43306 0.0
C807 C 0.08602 0.4629 0.46029 0.0
C808 C 0.12627 0.47499 0.43347 0.0
C809 C 0.12751 0.47456 0.48673 0.0
C810 C 0.55248 0.45168 0.51083 0.0
C811 C 0.66323 0.54015 0.45127 0.0
C812 C 0.76414 0.36113 0.44469 0.0
C813 C 0.84475 0.38685 0.45202 0.0
C814 C 0.90932 0.37356 0.43358 0.0
C815 C 0.85855 0.42552 0.47528 0.0
C816 C 1.00291 0.43577 0.45971 0.0
C817 C 0.93765 0.45037 0.479 0.0
C818 C 0.98803 0.39528 0.43791 0.0
C819 C 0.48993 0.41515 0.40495 0.0
O820 O 0.42838 0.39091 0.46435 0.0
O821 O 0.54928 0.33733 0.46666 0.0
O822 O 0.37528 0.53079 0.48294 0.0
O823 O 0.37729 0.5195 0.43523 0.0
O824 O 0.49113 0.48721 0.5116 0.0
O825 O 0.57005 0.43967 0.48465 0.0
O826 O 0.68982 0.48779 0.44715 0.0
O827 O 0.58212 0.55131 0.45528 0.0
O828 O 0.72919 0.37943 0.42022 0.0
O829 O 0.71264 0.35343 0.46663 0.0
O830 O 0.5342 0.36919 0.40868 0.0
O831 O 0.52373 0.45397 0.42034 0.0
H832 H 0.23896 0.50445 0.50712 0.0
H833 H 0.23525 0.50521 0.41203 0.0
H834 H 0.09513 0.46889 0.41259 0.0
H835 H 0.09776 0.46754 0.5076 0.0
H836 H 0.89713 0.34539 0.41577 0.0
H837 H 0.80847 0.43745 0.48991 0.0
H838 H 0.94703 0.48155 0.49625 0.0
H839 H 1.03789 0.38087 0.42391 0.0
Gd840 Gd 0.4155 0.14199 0.46207 0.0
Gd841 Gd 0.27101 0.22289 0.44465 0.0
C842 C 0.42284 0.28625 0.46834 0.0
C843 C 0.55875 0.09589 0.45848 0.0
C844 C 0.64269 0.1206 0.45944 0.0
C845 C 0.68289 0.13162 0.48635 0.0
C846 C 0.68472 0.13127 0.43305 0.0
C847 C 0.80543 0.16439 0.46027 0.0
C848 C 0.76518 0.15226 0.43345 0.0
C849 C 0.76394 0.15276 0.48671 0.0
C850 C 0.33897 0.17561 0.51083 0.0
C851 C 0.22821 0.08715 0.45127 0.0
C852 C 0.12732 0.26617 0.44469 0.0
C853 C 1.0467 0.24044 0.452 0.0
C854 C 0.98217 0.25366 0.43354 0.0
C855 C 1.03287 0.20181 0.47529 0.0
C856 C 0.88855 0.1915 0.45968 0.0
C857 C 0.95378 0.17696 0.479 0.0
C858 C 0.90347 0.23193 0.43786 0.0
C859 C 0.40153 0.21215 0.40495 0.0
O860 O 0.46308 0.23638 0.46435 0.0
O861 O 0.34218 0.28997 0.46667 0.0
O862 O 0.51617 0.09652 0.48294 0.0
O863 O 0.51415 0.10778 0.43523 0.0
O864 O 0.40032 0.14009 0.5116 0.0
O865 O 0.3214 0.18762 0.48465 0.0
O866 O 0.20163 0.13951 0.44715 0.0
O867 O 0.30932 0.076 0.45528 0.0
O868 O 0.16228 0.24789 0.42022 0.0
O869 O 0.17881 0.27386 0.46664 0.0
O870 O 0.35726 0.25812 0.40869 0.0
O871 O 0.36773 0.17333 0.42034 0.0
H872 H 0.65249 0.12289 0.50711 0.0
H873 H 0.65619 0.12203 0.41202 0.0
H874 H 0.79631 0.15834 0.41257 0.0
H875 H 0.79369 0.1598 0.50758 0.0
H876 H 0.99438 0.28181 0.41573 0.0
H877 H 0.08293 0.18992 0.48994 0.0
H878 H 0.94438 0.14582 0.49626 0.0
H879 H 0.85364 0.24631 0.42384 0.0
Gd880 Gd 0.47592 0.14199 0.33536 0.0
Gd881 Gd 0.62037 0.22287 0.35283 0.0
C882 C 0.46861 0.28625 0.32909 0.0
C883 C 0.33266 0.0959 0.33893 0.0
C884 C 0.24872 0.12062 0.33799 0.0
C885 C 0.20846 0.1316 0.31109 0.0
C886 C 0.20672 0.13132 0.36438 0.0
C887 C 0.08597 0.1644 0.33718 0.0
C888 C 0.12627 0.15232 0.36399 0.0
C889 C 0.12741 0.15273 0.31073 0.0
C890 C 0.55254 0.17556 0.28662 0.0
C891 C 0.66321 0.08714 0.34617 0.0
C892 C 0.76406 0.26614 0.35283 0.0
C893 C 0.84468 0.24043 0.34549 0.0
C894 C 0.90928 0.25374 0.3639 0.0
C895 C 0.85846 0.20175 0.32222 0.0
C896 C 1.00285 0.19152 0.33778 0.0
C897 C 0.93756 0.17691 0.3185 0.0
C898 C 0.98798 0.23202 0.35957 0.0
C899 C 0.48973 0.21216 0.39246 0.0
O900 O 0.42836 0.23639 0.33307 0.0
O901 O 0.54927 0.28996 0.33078 0.0
O902 O 0.37523 0.09658 0.31447 0.0
O903 O 0.37727 0.10772 0.36219 0.0
O904 O 0.49117 0.14006 0.28584 0.0
O905 O 0.57008 0.1876 0.3128 0.0
O906 O 0.68978 0.1395 0.3503 0.0
O907 O 0.58211 0.07598 0.34215 0.0
O908 O 0.7291 0.24778 0.37728 0.0
O909 O 0.71258 0.27391 0.33089 0.0
O910 O 0.53407 0.25811 0.38878 0.0
O911 O 0.52359 0.17332 0.37711 0.0
H912 H 0.23882 0.12285 0.29032 0.0
H913 H 0.23529 0.1221 0.3854 0.0
H914 H 0.09518 0.15844 0.38488 0.0
H915 H 0.09761 0.15974 0.28987 0.0
H916 H 0.89711 0.28193 0.38171 0.0
H917 H 0.80836 0.18981 0.30761 0.0
H918 H 0.94692 0.14572 0.30125 0.0
H919 H 1.03786 0.24644 0.37356 0.0
Gd920 Gd 0.41553 0.48532 0.33536 0.0
Gd921 Gd 0.27109 0.40442 0.35282 0.0
C922 C 0.42285 0.34105 0.32908 0.0
C923 C 0.55879 0.53141 0.33893 0.0
C924 C 0.64273 0.50669 0.338 0.0
C925 C 0.68299 0.49568 0.3111 0.0
C926 C 0.68472 0.49601 0.36439 0.0
C927 C 0.80548 0.46291 0.3372 0.0
C928 C 0.76518 0.47502 0.364 0.0
C929 C 0.76404 0.47455 0.31075 0.0
C930 C 0.33896 0.45169 0.28662 0.0
C931 C 0.22823 0.54015 0.34617 0.0
C932 C 0.1274 0.36116 0.35282 0.0
C933 C 1.04678 0.38688 0.3455 0.0
C934 C 0.98222 0.37363 0.36394 0.0
C935 C 1.03297 0.42551 0.32222 0.0
C936 C 0.88862 0.4358 0.3378 0.0
C937 C 0.95387 0.45036 0.3185 0.0
C938 C 0.90352 0.39536 0.35962 0.0
C939 C 0.40172 0.41514 0.39245 0.0
O940 O 0.4631 0.39092 0.33307 0.0
O941 O 0.34219 0.33734 0.33078 0.0
O942 O 0.51623 0.53072 0.31447 0.0
O943 O 0.51417 0.51959 0.36219 0.0
O944 O 0.40028 0.48723 0.28584 0.0
O945 O 0.3214 0.43968 0.3128 0.0
O946 O 0.20167 0.48779 0.3503 0.0
O947 O 0.30934 0.55132 0.34215 0.0
O948 O 0.16238 0.37949 0.37728 0.0
O949 O 0.17887 0.3534 0.33088 0.0
O950 O 0.3574 0.36918 0.38877 0.0
O951 O 0.36786 0.45398 0.3771 0.0
H952 H 0.65263 0.50442 0.29032 0.0
H953 H 0.65615 0.50525 0.38541 0.0
H954 H 0.79627 0.46893 0.3849 0.0
H955 H 0.79384 0.46752 0.28989 0.0
H956 H 0.99441 0.34547 0.38176 0.0
H957 H 0.08304 0.43741 0.30758 0.0
H958 H 0.94448 0.48151 0.30123 0.0
H959 H 0.85368 0.38098 0.37363 0.0
Gd960 Gd 0.52117 -0.02716 0.10279 0.0
Gd961 Gd 0.66543 0.89199 0.08526 0.0
C962 C 0.47824 0.83713 0.09609 0.0
C963 C 0.37743 0.01606 0.10284 0.0
C964 C 0.29681 -0.00963 0.09549 0.0
C965 C 0.23216 0.00372 0.11388 0.0
C966 C 0.28307 -0.04833 0.07223 0.0
C967 C 0.13863 -0.05851 0.08774 0.0
C968 C 0.20396 0.92684 0.06849 0.0
C969 C 0.15346 -0.01799 0.10953 0.0
C970 C 0.65159 -0.03785 0.14245 0.0
C971 C 0.67282 0.03626 0.07905 0.0
C972 C 0.80876 0.84594 0.08877 0.0
C973 C 0.89272 0.87065 0.08787 0.0
C974 C 0.93306 0.88162 0.06098 0.0
C975 C 0.93465 0.88133 0.11427 0.0
C976 C 1.05549 0.9144 0.08712 0.0
C977 C 1.01512 0.90231 0.11391 0.0
C978 C 1.01412 0.90274 0.06066 0.0
C979 C 0.58877 0.92559 0.03653 0.0
O980 O 0.45172 0.88949 0.10024 0.0
O981 O 0.55932 0.82596 0.09205 0.0
O982 O 0.41243 -0.00236 0.12727 0.0
O983 O 0.42889 0.0239 0.0809 0.0
O984 O 0.60729 0.00809 0.13873 0.0
O985 O 0.61802 0.92321 0.12707 0.0
O986 O 0.71304 -0.01362 0.08301 0.0
O987 O 0.59217 0.03998 0.08076 0.0
O988 O 0.7662 0.84675 0.06431 0.0
O989 O 0.76413 0.85765 0.11204 0.0
O990 O 0.65006 0.89002 0.03575 0.0
O991 O 0.57137 0.93776 0.06271 0.0
H992 H 0.24431 0.03193 0.13168 0.0
H993 H 0.3332 -0.0603 0.05763 0.0
H994 H 0.19463 0.89564 0.05125 0.0
H995 H 0.10356 -0.00356 0.1235 0.0
H996 H 0.90275 0.87287 0.0402 0.0
H997 H 0.90602 0.87213 0.13529 0.0
H998 H 1.04616 0.90842 0.13481 0.0
H999 H 1.04397 0.90974 0.03981 0.0
Gd1000 Gd 0.87026 0.15445 0.10279 0.0
Gd1001 Gd 0.72601 0.23531 0.08526 0.0
C1002 C 0.91321 0.29016 0.09609 0.0
C1003 C 1.01401 0.11123 0.10284 0.0
C1004 C 0.09462 0.13695 0.0955 0.0
C1005 C 0.15922 0.12368 0.11393 0.0
C1006 C 0.10841 0.17559 0.07222 0.0
C1007 C 0.2528 0.18584 0.08777 0.0
C1008 C 0.18751 0.20042 0.06849 0.0
C1009 C 0.23792 0.1454 0.1096 0.0
C1010 C 0.73984 0.16516 0.14245 0.0
C1011 C 0.71861 0.09104 0.07905 0.0
C1012 C 0.58269 0.28137 0.08877 0.0
C1013 C 0.49873 0.25666 0.08788 0.0
C1014 C 0.45839 0.24565 0.06099 0.0
C1015 C 0.4568 0.24601 0.11429 0.0
C1016 C 0.33595 0.21292 0.08714 0.0
C1017 C 0.37633 0.22504 0.11393 0.0
C1018 C 0.37733 0.22454 0.06068 0.0
C1019 C 0.80262 0.20167 0.03653 0.0
O1020 O 0.93973 0.2378 0.10024 0.0
O1021 O 0.83213 0.30134 0.09204 0.0
O1022 O 0.97898 0.12963 0.12727 0.0
O1023 O 0.96256 0.10341 0.08089 0.0
O1024 O 0.78414 0.11921 0.13873 0.0
O1025 O 0.77342 0.20409 0.12707 0.0
O1026 O 0.67839 0.14093 0.08301 0.0
O1027 O 0.79926 0.08731 0.08076 0.0
O1028 O 0.62524 0.28055 0.06431 0.0
O1029 O 0.62733 0.26966 0.11204 0.0
O1030 O 0.74138 0.23728 0.03575 0.0
O1031 O 0.82004 0.18952 0.0627 0.0
H1032 H 0.14705 0.0955 0.13174 0.0
H1033 H 1.05832 0.1875 0.05759 0.0
H1034 H 0.19688 0.23157 0.05122 0.0
H1035 H 0.28778 0.13101 0.1236 0.0
H1036 H 0.48869 0.25438 0.04021 0.0
H1037 H 0.48544 0.25524 0.1353 0.0
H1038 H 0.34529 0.21897 0.13483 0.0
H1039 H 0.34748 0.21751 0.03983 0.0
Gd1040 Gd 0.52123 0.15447 0.19464 0.0
Gd1041 Gd 0.66544 0.23533 0.21221 0.0
C1042 C 0.47824 0.29017 0.20137 0.0
C1043 C 0.37749 0.11126 0.19456 0.0
C1044 C 0.29686 0.13695 0.20192 0.0
C1045 C 0.2322 0.12357 0.18354 0.0
C1046 C 0.28314 0.17565 0.22517 0.0
C1047 C 0.13868 0.18582 0.20968 0.0
C1048 C 0.20403 0.20047 0.22893 0.0
C1049 C 0.1535 0.14529 0.18789 0.0
C1050 C 0.65175 0.16515 0.15503 0.0
C1051 C 0.67283 0.09104 0.21841 0.0
C1052 C 0.80879 0.28136 0.20871 0.0
C1053 C 0.89275 0.25664 0.20959 0.0
C1054 C 0.93313 0.24567 0.23647 0.0
C1055 C 0.93465 0.24596 0.18318 0.0
C1056 C 1.05554 0.2129 0.21032 0.0
C1057 C 1.01512 0.22498 0.18353 0.0
C1058 C 1.0142 0.22456 0.23678 0.0
C1059 C 0.58882 0.20167 0.26092 0.0
O1060 O 0.45175 0.23781 0.19721 0.0
O1061 O 0.55932 0.30135 0.20542 0.0
O1062 O 0.4125 0.12973 0.17014 0.0
O1063 O 0.42893 0.10337 0.2165 0.0
O1064 O 0.60739 0.11922 0.15871 0.0
O1065 O 0.61813 0.2041 0.17038 0.0
O1066 O 0.71305 0.14093 0.21446 0.0
O1067 O 0.59218 0.08732 0.21669 0.0
O1068 O 0.76624 0.2805 0.23317 0.0
O1069 O 0.76414 0.2697 0.18544 0.0
O1070 O 0.65004 0.2373 0.26171 0.0
O1071 O 0.57141 0.18952 0.23474 0.0
H1072 H 0.24433 0.09536 0.16575 0.0
H1073 H 0.33328 0.18763 0.23977 0.0
H1074 H 0.19471 0.23168 0.24617 0.0
H1075 H 0.10359 0.13085 0.17393 0.0
H1076 H 0.90285 0.25443 0.25726 0.0
H1077 H 0.90599 0.25516 0.16217 0.0
H1078 H 1.04614 0.21886 0.16263 0.0
H1079 H 1.04408 0.21757 0.25763 0.0
Gd1080 Gd 0.87021 -0.02716 0.19465 0.0
Gd1081 Gd 0.726 0.89197 0.21221 0.0
C1082 C 0.91321 0.83714 0.20137 0.0
C1083 C 1.01395 0.01605 0.19456 0.0
C1084 C 0.09457 -0.00966 0.2019 0.0
C1085 C 0.15918 0.00363 0.18349 0.0
C1086 C 0.10834 -0.04831 0.22518 0.0
C1087 C 0.25275 -0.05855 0.20965 0.0
C1088 C 0.18745 0.92686 0.22893 0.0
C1089 C 0.23788 -0.0181 0.18783 0.0
C1090 C 0.73969 -0.03784 0.15504 0.0
C1091 C 0.71861 0.03625 0.21842 0.0
C1092 C 0.58267 0.84593 0.20871 0.0
C1093 C 0.4987 0.87065 0.20958 0.0
C1094 C 0.45832 0.88165 0.23646 0.0
C1095 C 0.45681 0.8813 0.18317 0.0
C1096 C 0.33591 0.91438 0.21029 0.0
C1097 C 0.37633 0.90227 0.18351 0.0
C1098 C 0.37725 0.90276 0.23676 0.0
C1099 C 0.80263 0.92562 0.26092 0.0
O1100 O 0.9397 0.8895 0.1972 0.0
O1101 O 0.83213 0.82595 0.20542 0.0
O1102 O 0.97891 -0.00239 0.17014 0.0
O1103 O 0.96252 0.02392 0.2165 0.0
O1104 O 0.78404 0.00809 0.15871 0.0
O1105 O 0.77331 0.9232 0.17038 0.0
O1106 O 0.67839 -0.01363 0.21446 0.0
O1107 O 0.79926 0.03998 0.21669 0.0
O1108 O 0.6252 0.8468 0.23317 0.0
O1109 O 0.62732 0.85758 0.18544 0.0
O1110 O 0.74141 0.89 0.26171 0.0
O1111 O 0.82004 0.93778 0.23475 0.0
H1112 H 0.14703 0.03182 0.16568 0.0
H1113 H 1.05823 -0.06023 0.2398 0.0
H1114 H 0.1968 0.89571 0.24619 0.0
H1115 H 0.28776 -0.0037 0.17383 0.0
H1116 H 0.4886 0.87292 0.25725 0.0
H1117 H 0.48547 0.87207 0.16216 0.0
H1118 H 0.34532 0.90835 0.1626 0.0
H1119 H 0.34737 0.90978 0.25761 0.0
Gd1120 Gd 0.47594 -0.0147 0.96207 0.0
Gd1121 Gd 0.62044 0.90441 0.94464 0.0
C1122 C 0.46861 0.84104 0.96833 0.0
C1123 C 0.33269 0.0314 0.95848 0.0
C1124 C 0.24875 0.00669 0.95944 0.0
C1125 C 0.20855 -0.0043 0.98636 0.0
C1126 C 0.20671 -0.00401 0.93307 0.0
C1127 C 0.08602 -0.03711 0.96029 0.0
C1128 C 0.12626 -0.02501 0.93347 0.0
C1129 C 0.1275 -0.02544 0.98673 0.0
C1130 C 0.55248 -0.04831 1.01083 0.0
C1131 C 0.66323 0.04015 0.95127 0.0
C1132 C 0.76413 0.86114 0.94469 0.0
C1133 C 0.84475 0.88685 0.95201 0.0
C1134 C 0.90932 0.87356 0.93358 0.0
C1135 C 0.85854 0.92552 0.97528 0.0
C1136 C 1.00291 0.93577 0.95971 0.0
C1137 C 0.93764 -0.04963 0.979 0.0
C1138 C 0.98802 0.89528 0.93791 0.0
C1139 C 0.48992 0.91515 0.90495 0.0
O1140 O 0.42837 0.89091 0.96435 0.0
O1141 O 0.54928 0.83733 0.96666 0.0
O1142 O 0.37528 0.03078 0.98294 0.0
O1143 O 0.37729 0.0195 0.93523 0.0
O1144 O 0.49113 -0.01279 1.0116 0.0
O1145 O 0.57005 -0.06033 0.98465 0.0
O1146 O 0.68982 -0.01221 0.94715 0.0
O1147 O 0.58212 0.05131 0.95528 0.0
O1148 O 0.72919 0.87943 0.92022 0.0
O1149 O 0.71263 0.85343 0.96663 0.0
O1150 O 0.53419 0.86919 0.90868 0.0
O1151 O 0.52372 -0.04603 0.92034 0.0
H1152 H 0.23895 0.00445 1.00712 0.0
H1153 H 0.23525 0.00521 0.91203 0.0
H1154 H 0.09513 -0.03112 0.91259 0.0
H1155 H 0.09775 -0.03246 1.0076 0.0
H1156 H 0.89714 0.84538 0.91578 0.0
H1157 H 0.80846 0.93745 0.98991 0.0
H1158 H 0.94701 -0.01845 0.99624 0.0
H1159 H 1.03789 0.88086 0.92391 0.0
Gd1160 Gd 0.41551 0.64199 0.96207 0.0
Gd1161 Gd 0.27101 0.72289 0.94464 0.0
C1162 C 0.42284 0.78625 0.96834 0.0
C1163 C 0.55875 0.59589 0.95849 0.0
C1164 C 0.64269 0.6206 0.95944 0.0
C1165 C 0.6829 0.63162 0.98635 0.0
C1166 C 0.68472 0.63127 0.93306 0.0
C1167 C 0.80543 0.66439 0.96027 0.0
C1168 C 0.76518 0.65227 0.93345 0.0
C1169 C 0.76395 0.65276 0.98671 0.0
C1170 C 0.33897 0.67561 1.01083 0.0
C1171 C 0.22822 0.58715 0.95127 0.0
C1172 C 0.12733 0.76616 0.94469 0.0
C1173 C 1.04671 0.74043 0.952 0.0
C1174 C 0.98218 0.75366 0.93354 0.0
C1175 C 1.03288 0.70181 0.97529 0.0
C1176 C 0.88855 0.6915 0.95968 0.0
C1177 C 0.95378 0.67696 0.97899 0.0
C1178 C 0.90348 0.73193 0.93785 0.0
C1179 C 0.40154 0.71215 0.90496 0.0
O1180 O 0.46308 0.73638 0.96435 0.0
O1181 O 0.34218 0.78997 0.96667 0.0
O1182 O 0.51618 0.59652 0.98295 0.0
O1183 O 0.51415 0.60777 0.93523 0.0
O1184 O 0.40032 0.64009 1.0116 0.0
O1185 O 0.3214 0.68762 0.98465 0.0
O1186 O 0.20163 0.63951 0.94715 0.0
O1187 O 0.30933 0.57599 0.95529 0.0
O1188 O 0.16229 0.74789 0.92022 0.0
O1189 O 0.17881 0.77386 0.96663 0.0
O1190 O 0.35727 0.75811 0.90869 0.0
O1191 O 0.36774 0.67333 0.92034 0.0
H1192 H 0.65251 0.62289 1.00711 0.0
H1193 H 0.65618 0.62204 0.91203 0.0
H1194 H 0.7963 0.65834 0.91257 0.0
H1195 H 0.7937 0.6598 1.00758 0.0
H1196 H 0.99439 0.7818 0.91572 0.0
H1197 H 0.08294 0.68992 0.98993 0.0
H1198 H 0.94438 0.64582 0.99626 0.0
H1199 H 0.85365 0.7463 0.92383 0.0
Gd1200 Gd 0.47593 0.64198 0.83536 0.0
Gd1201 Gd 0.62038 0.72287 0.85283 0.0
C1202 C 0.46861 0.78625 0.8291 0.0
C1203 C 0.33266 0.5959 0.83893 0.0
C1204 C 0.24872 0.62062 0.83799 0.0
C1205 C 0.20847 0.63161 0.81109 0.0
C1206 C 0.20672 0.63132 0.86438 0.0
C1207 C 0.08597 0.66441 0.83718 0.0
C1208 C 0.12626 0.65232 0.86399 0.0
C1209 C 0.12742 0.65274 0.81073 0.0
C1210 C 0.55249 0.67561 0.78662 0.0
C1211 C 0.66322 0.58714 0.84617 0.0
C1212 C 0.76407 0.76614 0.85282 0.0
C1213 C 0.84469 0.74044 0.84548 0.0
C1214 C 0.90928 0.75375 0.8639 0.0
C1215 C 0.85846 0.70175 0.82222 0.0
C1216 C 1.00285 0.69152 0.83777 0.0
C1217 C 0.93757 0.67691 0.8185 0.0
C1218 C 0.98798 0.73202 0.85957 0.0
C1219 C 0.48975 0.71216 0.89246 0.0
O1220 O 0.42836 0.73638 0.83308 0.0
O1221 O 0.54927 0.78996 0.83078 0.0
O1222 O 0.37523 0.59657 0.81447 0.0
O1223 O 0.37727 0.60774 0.86219 0.0
O1224 O 0.49116 0.64007 0.78584 0.0
O1225 O 0.57005 0.68762 0.8128 0.0
O1226 O 0.68979 0.6395 0.8503 0.0
O1227 O 0.58212 0.57598 0.84215 0.0
O1228 O 0.72911 0.74779 0.87728 0.0
O1229 O 0.71258 0.7739 0.83088 0.0
O1230 O 0.53408 0.75811 0.88878 0.0
O1231 O 0.5236 0.67332 0.87711 0.0
H1232 H 0.23884 0.62285 0.79032 0.0
H1233 H 0.23529 0.6221 0.88541 0.0
H1234 H 0.09517 0.65843 0.88488 0.0
H1235 H 0.09763 0.65974 0.78987 0.0
H1236 H 0.89711 0.78193 0.8817 0.0
H1237 H 0.80837 0.68981 0.8076 0.0
H1238 H 0.94693 0.64572 0.80125 0.0
H1239 H 1.03786 0.74644 0.87356 0.0
Gd1240 Gd 0.41552 -0.01468 0.83536 0.0
Gd1241 Gd 0.27108 0.90442 0.85282 0.0
C1242 C 0.42284 0.84105 0.82909 0.0
C1243 C 0.55878 0.03141 0.83893 0.0
C1244 C 0.64272 0.00669 0.838 0.0
C1245 C 0.68298 -0.00433 0.8111 0.0
C1246 C 0.68472 -0.00398 0.86439 0.0
C1247 C 0.80547 -0.03709 0.8372 0.0
C1248 C 0.76517 -0.02498 0.86401 0.0
C1249 C 0.76403 -0.02546 0.81075 0.0
C1250 C 0.33896 -0.04831 0.78662 0.0
C1251 C 0.22822 0.04015 0.84617 0.0
C1252 C 0.12739 0.86116 0.85282 0.0
C1253 C 1.04677 0.88688 0.8455 0.0
C1254 C 0.98222 0.87364 0.86395 0.0
C1255 C 1.03296 0.92551 0.82222 0.0
C1256 C 0.88861 0.9358 0.8378 0.0
C1257 C 0.95385 -0.04964 0.8185 0.0
C1258 C 0.90352 0.89537 0.85962 0.0
C1259 C 0.40171 0.91514 0.89246 0.0
O1260 O 0.46309 0.89092 0.83308 0.0
O1261 O 0.34218 0.83734 0.83078 0.0
O1262 O 0.51622 0.03072 0.81447 0.0
O1263 O 0.51416 0.01959 0.86219 0.0
O1264 O 0.40028 -0.01277 0.78584 0.0
O1265 O 0.3214 -0.06032 0.8128 0.0
O1266 O 0.20166 -0.01221 0.8503 0.0
O1267 O 0.30933 0.05131 0.84215 0.0
O1268 O 0.16237 0.87948 0.87728 0.0
O1269 O 0.17886 0.85341 0.83088 0.0
O1270 O 0.35739 0.86918 0.88877 0.0
O1271 O 0.36785 -0.04602 0.8771 0.0
H1272 H 0.65261 0.00441 0.79033 0.0
H1273 H 0.65615 0.00525 0.88541 0.0
H1274 H 0.79627 -0.03106 0.8849 0.0
H1275 H 0.79382 -0.03249 0.78989 0.0
H1276 H 0.99441 0.84548 0.88176 0.0
H1277 H 0.08302 0.9374 0.80757 0.0
H1278 H 0.94447 -0.0185 0.80123 0.0
H1279 H 0.85367 0.88099 0.87364 0.0
loop_
_geom_bond_atom_site_label_1
_geom_bond_atom_site_label_2
_geom_bond_distance
_geom_bond_site_symmetry_2
_ccdc_geom_bond_type
Gd0 C3 2.818 . S
Gd0 O20 2.377 . S
Gd0 O22 2.448 . S
Gd0 O23 2.506 . S
Gd0 O24 2.435 . S
Gd0 O25 2.717 1_655 S
Gd0 O27 2.395 1_655 S
Gd0 O31 2.327 . S
Gd1 C12 2.818 . S
Gd1 O21 2.395 . S
Gd1 O25 2.327 . S
Gd1 O26 2.377 . S
Gd1 O28 2.448 . S
Gd1 O29 2.506 . S
Gd1 O30 2.435 . S
Gd1 O31 2.717 1_455 S
C2 O20 1.240 . S
C2 O21 1.240 1_655 S
C3 Gd0 2.818 . S
C3 C4 1.510 . S
C3 O22 1.249 . S
C3 O23 1.252 . S
C4 C3 1.510 . S
C4 C5 1.404 . S
C4 C6 1.352 . S
C5 C4 1.404 . S
C5 C9 1.389 . S
C5 H32 0.930 . S
C6 C4 1.352 . S
C6 C8 1.374 . S
C6 H33 0.931 . S
C7 C8 1.359 . S
C7 C9 1.364 . S
C8 C6 1.374 . S
C8 C7 1.359 . S
C8 H34 0.931 . S
C9 C5 1.389 . S
C9 C7 1.364 . S
C9 H35 0.931 . S
C10 O24 1.256 1_455 S
C10 O25 1.257 . S
C11 O26 1.240 . S
C11 O27 1.240 . S
C12 Gd1 2.818 . S
C12 C13 1.510 . S
C12 O28 1.249 . S
C12 O29 1.252 . S
C13 C12 1.510 . S
C13 C14 1.404 . S
C13 C15 1.352 . S
C14 C13 1.404 . S
C14 C18 1.389 . S
C14 H36 0.930 . S
C15 C13 1.352 . S
C15 C17 1.374 . S
C15 H37 0.931 . S
C16 C17 1.359 . S
C16 C18 1.364 . S
C17 C15 1.374 . S
C17 C16 1.359 . S
C17 H38 0.931 . S
C18 C14 1.389 . S
C18 C16 1.364 . S
C18 H39 0.931 . S
C19 O30 1.256 . S
C19 O31 1.257 1_455 S
O20 Gd0 2.377 . S
O20 C2 1.240 . S
O21 Gd1 2.395 . S
O21 C2 1.240 1_455 S
O22 Gd0 2.448 . S
O22 C3 1.249 . S
O23 Gd0 2.506 . S
O23 C3 1.252 . S
O24 Gd0 2.435 . S
O24 C10 1.256 1_655 S
O25 Gd0 2.717 1_455 S
O25 Gd1 2.327 . S
O25 C10 1.257 . S
O26 Gd1 2.377 . S
O26 C11 1.240 . S
O27 Gd0 2.395 1_455 S
O27 C11 1.240 . S
O28 Gd1 2.448 . S
O28 C12 1.249 . S
O29 Gd1 2.506 . S
O29 C12 1.252 . S
O30 Gd1 2.435 . S
O30 C19 1.256 . S
O31 Gd0 2.327 . S
O31 Gd1 2.717 1_655 S
O31 C19 1.257 1_655 S
H32 C5 0.930 . S
H33 C6 0.931 . S
H34 C8 0.931 . S
H35 C9 0.931 . S
H36 C14 0.930 . S
H37 C15 0.931 . S
H38 C17 0.931 . S
H39 C18 0.931 . S
Gd40 C43 2.818 . S
Gd40 O60 2.377 . S
Gd40 O62 2.448 . S
Gd40 O63 2.506 . S
Gd40 O64 2.435 . S
Gd40 O65 2.717 . S
Gd40 O67 2.395 . S
Gd40 O71 2.327 . S
Gd41 C52 2.818 1_455 S
Gd41 O61 2.395 . S
Gd41 O65 2.327 . S
Gd41 O66 2.377 . S
Gd41 O68 2.448 . S
Gd41 O69 2.506 . S
Gd41 O70 2.435 . S
Gd41 O71 2.717 . S
C42 O60 1.240 . S
C42 O61 1.240 . S
C43 Gd40 2.818 . S
C43 C44 1.510 . S
C43 O62 1.249 . S
C43 O63 1.252 . S
C44 C43 1.510 . S
C44 C45 1.404 . S
C44 C46 1.352 . S
C45 C44 1.404 . S
C45 C49 1.389 . S
C45 H72 0.930 . S
C46 C44 1.352 . S
C46 C48 1.374 . S
C46 H73 0.931 . S
C47 C48 1.359 . S
C47 C49 1.364 . S
C48 C46 1.374 . S
C48 C47 1.359 . S
C48 H74 0.931 . S
C49 C45 1.389 . S
C49 C47 1.364 . S
C49 H75 0.931 . S
C50 O64 1.256 . S
C50 O65 1.257 . S
C51 O66 1.240 . S
C51 O67 1.240 . S
C52 Gd41 2.818 1_655 S
C52 C53 1.510 . S
C52 O68 1.249 1_655 S
C52 O69 1.252 1_655 S
C53 C52 1.510 . S
C53 C54 1.404 . S
C53 C55 1.352 . S
C54 C53 1.404 . S
C54 C58 1.389 . S
C54 H76 0.930 . S
C55 C53 1.352 . S
C55 C57 1.374 . S
C55 H77 0.931 . S
C56 C57 1.359 . S
C56 C58 1.364 . S
C57 C55 1.374 . S
C57 C56 1.359 . S
C57 H78 0.931 . S
C58 C54 1.389 . S
C58 C56 1.364 . S
C58 H79 0.931 . S
C59 O70 1.256 . S
C59 O71 1.257 . S
O60 Gd40 2.377 . S
O60 C42 1.240 . S
O61 Gd41 2.395 . S
O61 C42 1.240 . S
O62 Gd40 2.448 . S
O62 C43 1.249 . S
O63 Gd40 2.506 . S
O63 C43 1.252 . S
O64 Gd40 2.435 . S
O64 C50 1.256 . S
O65 Gd40 2.717 . S
O65 Gd41 2.327 . S
O65 C50 1.257 . S
O66 Gd41 2.377 . S
O66 C51 1.240 . S
O67 Gd40 2.395 . S
O67 C51 1.240 . S
O68 Gd41 2.448 . S
O68 C52 1.249 1_455 S
O69 Gd41 2.506 . S
O69 C52 1.252 1_455 S
O70 Gd41 2.435 . S
O70 C59 1.256 . S
O71 Gd40 2.327 . S
O71 Gd41 2.717 . S
O71 C59 1.257 . S
H72 C45 0.930 . S
H73 C46 0.931 . S
H74 C48 0.931 . S
H75 C49 0.931 . S
H76 C54 0.930 . S
H77 C55 0.931 . S
H78 C57 0.931 . S
H79 C58 0.931 . S
Gd80 C83 2.818 . S
Gd80 O100 2.377 . S
Gd80 O102 2.448 . S
Gd80 O103 2.506 . S
Gd80 O104 2.435 . S
Gd80 O105 2.717 1_655 S
Gd80 O107 2.395 1_655 S
Gd80 O111 2.327 . S
Gd81 C92 2.818 . S
Gd81 O101 2.395 . S
Gd81 O105 2.327 . S
Gd81 O106 2.377 . S
Gd81 O108 2.448 . S
Gd81 O109 2.506 . S
Gd81 O110 2.435 . S
Gd81 O111 2.717 1_455 S
C82 O100 1.240 . S
C82 O101 1.240 1_655 S
C83 Gd80 2.818 . S
C83 C84 1.510 . S
C83 O102 1.249 . S
C83 O103 1.252 . S
C84 C83 1.510 . S
C84 C85 1.404 . S
C84 C86 1.352 . S
C85 C84 1.404 . S
C85 C89 1.389 . S
C85 H112 0.930 . S
C86 C84 1.352 . S
C86 C88 1.374 . S
C86 H113 0.931 . S
C87 C88 1.359 . S
C87 C89 1.364 . S
C88 C86 1.374 . S
C88 C87 1.359 . S
C88 H114 0.931 . S
C89 C85 1.389 . S
C89 C87 1.364 . S
C89 H115 0.931 . S
C90 O104 1.256 1_455 S
C90 O105 1.257 . S
C91 O106 1.240 . S
C91 O107 1.240 . S
C92 Gd81 2.818 . S
C92 C93 1.510 . S
C92 O108 1.249 . S
C92 O109 1.252 . S
C93 C92 1.510 . S
C93 C94 1.404 . S
C93 C95 1.352 . S
C94 C93 1.404 . S
C94 C98 1.389 . S
C94 H116 0.930 . S
C95 C93 1.352 . S
C95 C97 1.374 . S
C95 H117 0.931 . S
C96 C97 1.359 . S
C96 C98 1.364 . S
C97 C95 1.374 . S
C97 C96 1.359 . S
C97 H118 0.931 . S
C98 C94 1.389 . S
C98 C96 1.364 . S
C98 H119 0.931 . S
C99 O110 1.256 . S
C99 O111 1.257 1_455 S
O100 Gd80 2.377 . S
O100 C82 1.240 . S
O101 Gd81 2.395 . S
O101 C82 1.240 1_455 S
O102 Gd80 2.448 . S
O102 C83 1.249 . S
O103 Gd80 2.506 . S
O103 C83 1.252 . S
O104 Gd80 2.435 . S
O104 C90 1.256 1_655 S
O105 Gd80 2.717 1_455 S
O105 Gd81 2.327 . S
O105 C90 1.257 . S
O106 Gd81 2.377 . S
O106 C91 1.240 . S
O107 Gd80 2.395 1_455 S
O107 C91 1.240 . S
O108 Gd81 2.448 . S
O108 C92 1.249 . S
O109 Gd81 2.506 . S
O109 C92 1.252 . S
O110 Gd81 2.435 . S
O110 C99 1.256 . S
O111 Gd80 2.327 . S
O111 Gd81 2.717 1_655 S
O111 C99 1.257 1_655 S
H112 C85 0.930 . S
H113 C86 0.931 . S
H114 C88 0.931 . S
H115 C89 0.931 . S
H116 C94 0.930 . S
H117 C95 0.931 . S
H118 C97 0.931 . S
H119 C98 0.931 . S
Gd120 C123 2.818 . S
Gd120 O140 2.377 . S
Gd120 O142 2.448 . S
Gd120 O143 2.506 . S
Gd120 O144 2.435 . S
Gd120 O145 2.717 . S
Gd120 O147 2.395 . S
Gd120 O151 2.327 . S
Gd121 C132 2.818 1_455 S
Gd121 O141 2.395 . S
Gd121 O145 2.327 . S
Gd121 O146 2.377 . S
Gd121 O148 2.448 . S
Gd121 O149 2.506 . S
Gd121 O150 2.435 . S
Gd121 O151 2.717 . S
C122 O140 1.240 . S
C122 O141 1.240 . S
C123 Gd120 2.818 . S
C123 C124 1.510 . S
C123 O142 1.249 . S
C123 O143 1.252 . S
C124 C123 1.510 . S
C124 C125 1.404 . S
C124 C126 1.352 . S
C125 C124 1.404 . S
C125 C129 1.389 . S
C125 H152 0.930 . S
C126 C124 1.352 . S
C126 C128 1.374 . S
C126 H153 0.931 . S
C127 C128 1.359 . S
C127 C129 1.364 . S
C128 C126 1.374 . S
C128 C127 1.359 . S
C128 H154 0.931 . S
C129 C125 1.389 . S
C129 C127 1.364 . S
C129 H155 0.931 . S
C130 O144 1.256 . S
C130 O145 1.257 . S
C131 O146 1.240 . S
C131 O147 1.240 . S
C132 Gd121 2.818 1_655 S
C132 C133 1.510 . S
C132 O148 1.249 1_655 S
C132 O149 1.252 1_655 S
C133 C132 1.510 . S
C133 C134 1.404 . S
C133 C135 1.352 . S
C134 C133 1.404 . S
C134 C138 1.389 . S
C134 H156 0.930 . S
C135 C133 1.352 . S
C135 C137 1.374 . S
C135 H157 0.931 . S
C136 C137 1.359 . S
C136 C138 1.364 . S
C137 C135 1.374 . S
C137 C136 1.359 . S
C137 H158 0.931 . S
C138 C134 1.389 . S
C138 C136 1.364 . S
C138 H159 0.931 . S
C139 O150 1.256 . S
C139 O151 1.257 . S
O140 Gd120 2.377 . S
O140 C122 1.240 . S
O141 Gd121 2.395 . S
O141 C122 1.240 . S
O142 Gd120 2.448 . S
O142 C123 1.249 . S
O143 Gd120 2.506 . S
O143 C123 1.252 . S
O144 Gd120 2.435 . S
O144 C130 1.256 . S
O145 Gd120 2.717 . S
O145 Gd121 2.327 . S
O145 C130 1.257 . S
O146 Gd121 2.377 . S
O146 C131 1.240 . S
O147 Gd120 2.395 . S
O147 C131 1.240 . S
O148 Gd121 2.448 . S
O148 C132 1.249 1_455 S
O149 Gd121 2.506 . S
O149 C132 1.252 1_455 S
O150 Gd121 2.435 . S
O150 C139 1.256 . S
O151 Gd120 2.327 . S
O151 Gd121 2.717 . S
O151 C139 1.257 . S
H152 C125 0.930 . S
H153 C126 0.931 . S
H154 C128 0.931 . S
H155 C129 0.931 . S
H156 C134 0.930 . S
H157 C135 0.931 . S
H158 C137 0.931 . S
H159 C138 0.931 . S
Gd160 C163 2.818 . S
Gd160 O180 2.377 . S
Gd160 O182 2.448 . S
Gd160 O183 2.506 . S
Gd160 O184 2.435 . S
Gd160 O185 2.717 1_655 S
Gd160 O187 2.395 . S
Gd160 O191 2.327 . S
Gd161 C172 2.818 . S
Gd161 O181 2.395 1_455 S
Gd161 O185 2.327 . S
Gd161 O186 2.377 . S
Gd161 O188 2.448 . S
Gd161 O189 2.506 . S
Gd161 O190 2.435 . S
Gd161 O191 2.717 1_455 S
C162 O180 1.240 . S
C162 O181 1.240 . S
C163 Gd160 2.818 . S
C163 C164 1.510 . S
C163 O182 1.249 . S
C163 O183 1.252 . S
C164 C163 1.510 . S
C164 C165 1.404 . S
C164 C166 1.352 . S
C165 C164 1.404 . S
C165 C169 1.389 . S
C165 H192 0.930 . S
C166 C164 1.352 . S
C166 C168 1.374 . S
C166 H193 0.931 . S
C167 C168 1.359 . S
C167 C169 1.364 . S
C168 C166 1.374 . S
C168 C167 1.359 . S
C168 H194 0.931 . S
C169 C165 1.389 . S
C169 C167 1.364 . S
C169 H195 0.931 . S
C170 O184 1.256 . S
C170 O185 1.257 1_655 S
C171 O186 1.240 . S
C171 O187 1.240 1_455 S
C172 Gd161 2.818 . S
C172 C173 1.510 . S
C172 O188 1.249 . S
C172 O189 1.252 . S
C173 C172 1.510 . S
C173 C174 1.404 . S
C173 C175 1.352 . S
C174 C173 1.404 . S
C174 C178 1.389 . S
C174 H196 0.930 . S
C175 C173 1.352 . S
C175 C177 1.374 . S
C175 H197 0.931 . S
C176 C177 1.359 . S
C176 C178 1.364 . S
C177 C175 1.374 . S
C177 C176 1.359 . S
C177 H198 0.931 . S
C178 C174 1.389 . S
C178 C176 1.364 . S
C178 H199 0.931 . S
C179 O190 1.256 1_655 S
C179 O191 1.257 . S
O180 Gd160 2.377 . S
O180 C162 1.240 . S
O181 Gd161 2.395 1_655 S
O181 C162 1.240 . S
O182 Gd160 2.448 . S
O182 C163 1.249 . S
O183 Gd160 2.506 . S
O183 C163 1.252 . S
O184 Gd160 2.435 . S
O184 C170 1.256 . S
O185 Gd160 2.717 1_455 S
O185 Gd161 2.327 . S
O185 C170 1.257 1_455 S
O186 Gd161 2.377 . S
O186 C171 1.240 . S
O187 Gd160 2.395 . S
O187 C171 1.240 1_655 S
O188 Gd161 2.448 . S
O188 C172 1.249 . S
O189 Gd161 2.506 . S
O189 C172 1.252 . S
O190 Gd161 2.435 . S
O190 C179 1.256 1_455 S
O191 Gd160 2.327 . S
O191 Gd161 2.717 1_655 S
O191 C179 1.257 . S
H192 C165 0.930 . S
H193 C166 0.931 . S
H194 C168 0.931 . S
H195 C169 0.931 . S
H196 C174 0.930 . S
H197 C175 0.931 . S
H198 C177 0.931 . S
H199 C178 0.931 . S
Gd200 C203 2.818 1_655 S
Gd200 O220 2.377 . S
Gd200 O222 2.448 . S
Gd200 O223 2.506 . S
Gd200 O224 2.435 . S
Gd200 O225 2.717 . S
Gd200 O227 2.395 . S
Gd200 O231 2.327 . S
Gd201 C212 2.818 . S
Gd201 O221 2.395 . S
Gd201 O225 2.327 . S
Gd201 O226 2.377 . S
Gd201 O228 2.448 . S
Gd201 O229 2.506 . S
Gd201 O230 2.435 . S
Gd201 O231 2.717 . S
C202 O220 1.240 . S
C202 O221 1.240 . S
C203 Gd200 2.818 1_455 S
C203 C204 1.510 . S
C203 O222 1.249 1_455 S
C203 O223 1.252 1_455 S
C204 C203 1.510 . S
C204 C205 1.404 . S
C204 C206 1.352 . S
C205 C204 1.404 . S
C205 C209 1.389 . S
C205 H232 0.930 . S
C206 C204 1.352 . S
C206 C208 1.374 . S
C206 H233 0.931 . S
C207 C208 1.359 . S
C207 C209 1.364 . S
C208 C206 1.374 . S
C208 C207 1.359 . S
C208 H234 0.931 . S
C209 C205 1.389 . S
C209 C207 1.364 . S
C209 H235 0.931 . S
C210 O224 1.256 . S
C210 O225 1.257 . S
C211 O226 1.240 . S
C211 O227 1.240 . S
C212 Gd201 2.818 . S
C212 C213 1.510 . S
C212 O228 1.249 . S
C212 O229 1.252 . S
C213 C212 1.510 . S
C213 C214 1.404 . S
C213 C215 1.352 . S
C214 C213 1.404 . S
C214 C218 1.389 . S
C214 H236 0.930 . S
C215 C213 1.352 . S
C215 C217 1.374 . S
C215 H237 0.931 . S
C216 C217 1.359 . S
C216 C218 1.364 . S
C217 C215 1.374 . S
C217 C216 1.359 . S
C217 H238 0.931 . S
C218 C214 1.389 . S
C218 C216 1.364 . S
C218 H239 0.931 . S
C219 O230 1.256 . S
C219 O231 1.257 . S
O220 Gd200 2.377 . S
O220 C202 1.240 . S
O221 Gd201 2.395 . S
O221 C202 1.240 . S
O222 Gd200 2.448 . S
O222 C203 1.249 1_655 S
O223 Gd200 2.506 . S
O223 C203 1.252 1_655 S
O224 Gd200 2.435 . S
O224 C210 1.256 . S
O225 Gd200 2.717 . S
O225 Gd201 2.327 . S
O225 C210 1.257 . S
O226 Gd201 2.377 . S
O226 C211 1.240 . S
O227 Gd200 2.395 . S
O227 C211 1.240 . S
O228 Gd201 2.448 . S
O228 C212 1.249 . S
O229 Gd201 2.506 . S
O229 C212 1.252 . S
O230 Gd201 2.435 . S
O230 C219 1.256 . S
O231 Gd200 2.327 . S
O231 Gd201 2.717 . S
O231 C219 1.257 . S
H232 C205 0.930 . S
H233 C206 0.931 . S
H234 C208 0.931 . S
H235 C209 0.931 . S
H236 C214 0.930 . S
H237 C215 0.931 . S
H238 C217 0.931 . S
H239 C218 0.931 . S
Gd240 C243 2.818 . S
Gd240 O260 2.377 . S
Gd240 O262 2.448 . S
Gd240 O263 2.506 . S
Gd240 O264 2.435 . S
Gd240 O265 2.717 1_655 S
Gd240 O267 2.395 . S
Gd240 O271 2.327 . S
Gd241 C252 2.818 . S
Gd241 O261 2.395 1_455 S
Gd241 O265 2.327 . S
Gd241 O266 2.377 . S
Gd241 O268 2.448 . S
Gd241 O269 2.506 . S
Gd241 O270 2.435 . S
Gd241 O271 2.717 1_455 S
C242 O260 1.240 . S
C242 O261 1.240 . S
C243 Gd240 2.818 . S
C243 C244 1.510 . S
C243 O262 1.249 . S
C243 O263 1.252 . S
C244 C243 1.510 . S
C244 C245 1.404 . S
C244 C246 1.352 . S
C245 C244 1.404 . S
C245 C249 1.389 . S
C245 H272 0.930 . S
C246 C244 1.352 . S
C246 C248 1.374 . S
C246 H273 0.931 . S
C247 C248 1.359 . S
C247 C249 1.364 . S
C248 C246 1.374 . S
C248 C247 1.359 . S
C248 H274 0.931 . S
C249 C245 1.389 . S
C249 C247 1.364 . S
C249 H275 0.931 . S
C250 O264 1.256 . S
C250 O265 1.257 1_655 S
C251 O266 1.240 . S
C251 O267 1.240 1_455 S
C252 Gd241 2.818 . S
C252 C253 1.510 . S
C252 O268 1.249 . S
C252 O269 1.252 . S
C253 C252 1.510 . S
C253 C254 1.404 . S
C253 C255 1.352 . S
C254 C253 1.404 . S
C254 C258 1.389 . S
C254 H276 0.930 . S
C255 C253 1.352 . S
C255 C257 1.374 . S
C255 H277 0.931 . S
C256 C257 1.359 . S
C256 C258 1.364 . S
C257 C255 1.374 . S
C257 C256 1.359 . S
C257 H278 0.931 . S
C258 C254 1.389 . S
C258 C256 1.364 . S
C258 H279 0.931 . S
C259 O270 1.256 1_655 S
C259 O271 1.257 . S
O260 Gd240 2.377 . S
O260 C242 1.240 . S
O261 Gd241 2.395 1_655 S
O261 C242 1.240 . S
O262 Gd240 2.448 . S
O262 C243 1.249 . S
O263 Gd240 2.506 . S
O263 C243 1.252 . S
O264 Gd240 2.435 . S
O264 C250 1.256 . S
O265 Gd240 2.717 1_455 S
O265 Gd241 2.327 . S
O265 C250 1.257 1_455 S
O266 Gd241 2.377 . S
O266 C251 1.240 . S
O267 Gd240 2.395 . S
O267 C251 1.240 1_655 S
O268 Gd241 2.448 . S
O268 C252 1.249 . S
O269 Gd241 2.506 . S
O269 C252 1.252 . S
O270 Gd241 2.435 . S
O270 C259 1.256 1_455 S
O271 Gd240 2.327 . S
O271 Gd241 2.717 1_655 S
O271 C259 1.257 . S
H272 C245 0.930 . S
H273 C246 0.931 . S
H274 C248 0.931 . S
H275 C249 0.931 . S
H276 C254 0.930 . S
H277 C255 0.931 . S
H278 C257 0.931 . S
H279 C258 0.931 . S
Gd280 C283 2.818 1_655 S
Gd280 O300 2.377 . S
Gd280 O302 2.448 . S
Gd280 O303 2.506 . S
Gd280 O304 2.435 . S
Gd280 O305 2.717 . S
Gd280 O307 2.395 . S
Gd280 O311 2.327 . S
Gd281 C292 2.818 . S
Gd281 O301 2.395 . S
Gd281 O305 2.327 . S
Gd281 O306 2.377 . S
Gd281 O308 2.448 . S
Gd281 O309 2.506 . S
Gd281 O310 2.435 . S
Gd281 O311 2.717 . S
C282 O300 1.240 . S
C282 O301 1.240 . S
C283 Gd280 2.818 1_455 S
C283 C284 1.510 . S
C283 O302 1.249 1_455 S
C283 O303 1.252 1_455 S
C284 C283 1.510 . S
C284 C285 1.404 . S
C284 C286 1.352 . S
C285 C284 1.404 . S
C285 C289 1.389 . S
C285 H312 0.930 . S
C286 C284 1.352 . S
C286 C288 1.374 . S
C286 H313 0.931 . S
C287 C288 1.359 . S
C287 C289 1.364 . S
C288 C286 1.374 . S
C288 C287 1.359 . S
C288 H314 0.931 . S
C289 C285 1.389 . S
C289 C287 1.364 . S
C289 H315 0.931 . S
C290 O304 1.256 . S
C290 O305 1.257 . S
C291 O306 1.240 . S
C291 O307 1.240 . S
C292 Gd281 2.818 . S
C292 C293 1.510 . S
C292 O308 1.249 . S
C292 O309 1.252 . S
C293 C292 1.510 . S
C293 C294 1.404 . S
C293 C295 1.352 . S
C294 C293 1.404 . S
C294 C298 1.389 . S
C294 H316 0.930 . S
C295 C293 1.352 . S
C295 C297 1.374 . S
C295 H317 0.931 . S
C296 C297 1.359 . S
C296 C298 1.364 . S
C297 C295 1.374 . S
C297 C296 1.359 . S
C297 H318 0.931 . S
C298 C294 1.389 . S
C298 C296 1.364 . S
C298 H319 0.931 . S
C299 O310 1.256 . S
C299 O311 1.257 . S
O300 Gd280 2.377 . S
O300 C282 1.240 . S
O301 Gd281 2.395 . S
O301 C282 1.240 . S
O302 Gd280 2.448 . S
O302 C283 1.249 1_655 S
O303 Gd280 2.506 . S
O303 C283 1.252 1_655 S
O304 Gd280 2.435 . S
O304 C290 1.256 . S
O305 Gd280 2.717 . S
O305 Gd281 2.327 . S
O305 C290 1.257 . S
O306 Gd281 2.377 . S
O306 C291 1.240 . S
O307 Gd280 2.395 . S
O307 C291 1.240 . S
O308 Gd281 2.448 . S
O308 C292 1.249 . S
O309 Gd281 2.506 . S
O309 C292 1.252 . S
O310 Gd281 2.435 . S
O310 C299 1.256 . S
O311 Gd280 2.327 . S
O311 Gd281 2.717 . S
O311 C299 1.257 . S
H312 C285 0.930 . S
H313 C286 0.931 . S
H314 C288 0.931 . S
H315 C289 0.931 . S
H316 C294 0.930 . S
H317 C295 0.931 . S
H318 C297 0.931 . S
H319 C298 0.931 . S
Gd320 C323 2.818 . S
Gd320 O340 2.377 1_545 S
Gd320 O342 2.448 . S
Gd320 O343 2.506 . S
Gd320 O344 2.435 . S
Gd320 O345 2.717 1_645 S
Gd320 O347 2.395 1_655 S
Gd320 O351 2.327 1_545 S
Gd321 C332 2.818 . S
Gd321 O341 2.395 . S
Gd321 O345 2.327 . S
Gd321 O346 2.377 1_565 S
Gd321 O348 2.448 . S
Gd321 O349 2.506 . S
Gd321 O350 2.435 . S
Gd321 O351 2.717 1_455 S
C322 O340 1.240 . S
C322 O341 1.240 1_655 S
C323 Gd320 2.818 . S
C323 C324 1.510 . S
C323 O342 1.249 . S
C323 O343 1.252 . S
C324 C323 1.510 . S
C324 C325 1.404 . S
C324 C326 1.352 1_545 S
C325 C324 1.404 . S
C325 C329 1.389 . S
C325 H352 0.930 . S
C326 C324 1.352 1_565 S
C326 C328 1.374 . S
C326 H353 0.931 . S
C327 C328 1.359 . S
C327 C329 1.364 1_565 S
C328 C326 1.374 . S
C328 C327 1.359 . S
C328 H354 0.931 . S
C329 C325 1.389 . S
C329 C327 1.364 1_545 S
C329 H355 0.931 . S
C330 O344 1.256 1_465 S
C330 O345 1.257 . S
C331 O346 1.240 . S
C331 O347 1.240 . S
C332 Gd321 2.818 . S
C332 C333 1.510 . S
C332 O348 1.249 . S
C332 O349 1.252 . S
C333 C332 1.510 . S
C333 C334 1.404 . S
C333 C335 1.352 . S
C334 C333 1.404 . S
C334 C338 1.389 . S
C334 H356 0.930 . S
C335 C333 1.352 . S
C335 C337 1.374 . S
C335 H357 0.931 . S
C336 C337 1.359 . S
C336 C338 1.364 . S
C337 C335 1.374 . S
C337 C336 1.359 . S
C337 H358 0.931 . S
C338 C334 1.389 . S
C338 C336 1.364 . S
C338 H359 0.931 . S
C339 O350 1.256 . S
C339 O351 1.257 1_455 S
O340 Gd320 2.377 1_565 S
O340 C322 1.240 . S
O341 Gd321 2.395 . S
O341 C322 1.240 1_455 S
O342 Gd320 2.448 . S
O342 C323 1.249 . S
O343 Gd320 2.506 . S
O343 C323 1.252 . S
O344 Gd320 2.435 . S
O344 C330 1.256 1_645 S
O345 Gd320 2.717 1_465 S
O345 Gd321 2.327 . S
O345 C330 1.257 . S
O346 Gd321 2.377 1_545 S
O346 C331 1.240 . S
O347 Gd320 2.395 1_455 S
O347 C331 1.240 . S
O348 Gd321 2.448 . S
O348 C332 1.249 . S
O349 Gd321 2.506 . S
O349 C332 1.252 . S
O350 Gd321 2.435 . S
O350 C339 1.256 . S
O351 Gd320 2.327 1_565 S
O351 Gd321 2.717 1_655 S
O351 C339 1.257 1_655 S
H352 C325 0.930 . S
H353 C326 0.931 . S
H354 C328 0.931 . S
H355 C329 0.931 . S
H356 C334 0.930 . S
H357 C335 0.931 . S
H358 C337 0.931 . S
H359 C338 0.931 . S
Gd360 C363 2.818 . S
Gd360 O380 2.377 . S
Gd360 O382 2.448 . S
Gd360 O383 2.506 . S
Gd360 O384 2.435 . S
Gd360 O385 2.717 . S
Gd360 O387 2.395 . S
Gd360 O391 2.327 . S
Gd361 C372 2.818 1_455 S
Gd361 O381 2.395 . S
Gd361 O385 2.327 . S
Gd361 O386 2.377 . S
Gd361 O388 2.448 . S
Gd361 O389 2.506 . S
Gd361 O390 2.435 . S
Gd361 O391 2.717 . S
C362 O380 1.240 . S
C362 O381 1.240 . S
C363 Gd360 2.818 . S
C363 C364 1.510 . S
C363 O382 1.249 . S
C363 O383 1.252 . S
C364 C363 1.510 . S
C364 C365 1.404 . S
C364 C366 1.352 . S
C365 C364 1.404 . S
C365 C369 1.389 . S
C365 H392 0.930 . S
C366 C364 1.352 . S
C366 C368 1.374 . S
C366 H393 0.931 . S
C367 C368 1.359 . S
C367 C369 1.364 . S
C368 C366 1.374 . S
C368 C367 1.359 . S
C368 H394 0.931 . S
C369 C365 1.389 . S
C369 C367 1.364 . S
C369 H395 0.931 . S
C370 O384 1.256 . S
C370 O385 1.257 . S
C371 O386 1.240 . S
C371 O387 1.240 . S
C372 Gd361 2.818 1_655 S
C372 C373 1.510 . S
C372 O388 1.249 1_655 S
C372 O389 1.252 1_655 S
C373 C372 1.510 . S
C373 C374 1.404 . S
C373 C375 1.352 . S
C374 C373 1.404 . S
C374 C378 1.389 . S
C374 H396 0.930 . S
C375 C373 1.352 . S
C375 C377 1.374 . S
C375 H397 0.931 . S
C376 C377 1.359 . S
C376 C378 1.364 . S
C377 C375 1.374 . S
C377 C376 1.359 . S
C377 H398 0.931 . S
C378 C374 1.389 . S
C378 C376 1.364 . S
C378 H399 0.931 . S
C379 O390 1.256 . S
C379 O391 1.257 . S
O380 Gd360 2.377 . S
O380 C362 1.240 . S
O381 Gd361 2.395 . S
O381 C362 1.240 . S
O382 Gd360 2.448 . S
O382 C363 1.249 . S
O383 Gd360 2.506 . S
O383 C363 1.252 . S
O384 Gd360 2.435 . S
O384 C370 1.256 . S
O385 Gd360 2.717 . S
O385 Gd361 2.327 . S
O385 C370 1.257 . S
O386 Gd361 2.377 . S
O386 C371 1.240 . S
O387 Gd360 2.395 . S
O387 C371 1.240 . S
O388 Gd361 2.448 . S
O388 C372 1.249 1_455 S
O389 Gd361 2.506 . S
O389 C372 1.252 1_455 S
O390 Gd361 2.435 . S
O390 C379 1.256 . S
O391 Gd360 2.327 . S
O391 Gd361 2.717 . S
O391 C379 1.257 . S
H392 C365 0.930 . S
H393 C366 0.931 . S
H394 C368 0.931 . S
H395 C369 0.931 . S
H396 C374 0.930 . S
H397 C375 0.931 . S
H398 C377 0.931 . S
H399 C378 0.931 . S
Gd400 C403 2.818 . S
Gd400 O420 2.377 . S
Gd400 O422 2.448 . S
Gd400 O423 2.506 . S
Gd400 O424 2.435 . S
Gd400 O425 2.717 1_655 S
Gd400 O427 2.395 1_655 S
Gd400 O431 2.327 . S
Gd401 C412 2.818 . S
Gd401 O421 2.395 . S
Gd401 O425 2.327 . S
Gd401 O426 2.377 . S
Gd401 O428 2.448 . S
Gd401 O429 2.506 . S
Gd401 O430 2.435 . S
Gd401 O431 2.717 1_455 S
C402 O420 1.240 . S
C402 O421 1.240 1_655 S
C403 Gd400 2.818 . S
C403 C404 1.510 . S
C403 O422 1.249 . S
C403 O423 1.252 . S
C404 C403 1.510 . S
C404 C405 1.404 . S
C404 C406 1.352 . S
C405 C404 1.404 . S
C405 C409 1.389 . S
C405 H432 0.930 . S
C406 C404 1.352 . S
C406 C408 1.374 . S
C406 H433 0.931 . S
C407 C408 1.359 . S
C407 C409 1.364 . S
C408 C406 1.374 . S
C408 C407 1.359 . S
C408 H434 0.931 . S
C409 C405 1.389 . S
C409 C407 1.364 . S
C409 H435 0.931 . S
C410 O424 1.256 1_455 S
C410 O425 1.257 . S
C411 O426 1.240 . S
C411 O427 1.240 . S
C412 Gd401 2.818 . S
C412 C413 1.510 . S
C412 O428 1.249 . S
C412 O429 1.252 . S
C413 C412 1.510 . S
C413 C414 1.404 . S
C413 C415 1.352 . S
C414 C413 1.404 . S
C414 C418 1.389 . S
C414 H436 0.930 . S
C415 C413 1.352 . S
C415 C417 1.374 . S
C415 H437 0.931 . S
C416 C417 1.359 . S
C416 C418 1.364 . S
C417 C415 1.374 . S
C417 C416 1.359 . S
C417 H438 0.931 . S
C418 C414 1.389 . S
C418 C416 1.364 . S
C418 H439 0.931 . S
C419 O430 1.256 . S
C419 O431 1.257 1_455 S
O420 Gd400 2.377 . S
O420 C402 1.240 . S
O421 Gd401 2.395 . S
O421 C402 1.240 1_455 S
O422 Gd400 2.448 . S
O422 C403 1.249 . S
O423 Gd400 2.506 . S
O423 C403 1.252 . S
O424 Gd400 2.435 . S
O424 C410 1.256 1_655 S
O425 Gd400 2.717 1_455 S
O425 Gd401 2.327 . S
O425 C410 1.257 . S
O426 Gd401 2.377 . S
O426 C411 1.240 . S
O427 Gd400 2.395 1_455 S
O427 C411 1.240 . S
O428 Gd401 2.448 . S
O428 C412 1.249 . S
O429 Gd401 2.506 . S
O429 C412 1.252 . S
O430 Gd401 2.435 . S
O430 C419 1.256 . S
O431 Gd400 2.327 . S
O431 Gd401 2.717 1_655 S
O431 C419 1.257 1_655 S
H432 C405 0.930 . S
H433 C406 0.931 . S
H434 C408 0.931 . S
H435 C409 0.931 . S
H436 C414 0.930 . S
H437 C415 0.931 . S
H438 C417 0.931 . S
H439 C418 0.931 . S
Gd440 C443 2.818 . S
Gd440 O460 2.377 1_545 S
Gd440 O462 2.448 . S
Gd440 O463 2.506 . S
Gd440 O464 2.435 . S
Gd440 O465 2.717 1_545 S
Gd440 O467 2.395 . S
Gd440 O471 2.327 1_545 S
Gd441 C452 2.818 1_455 S
Gd441 O461 2.395 . S
Gd441 O465 2.327 . S
Gd441 O466 2.377 1_565 S
Gd441 O468 2.448 . S
Gd441 O469 2.506 . S
Gd441 O470 2.435 . S
Gd441 O471 2.717 . S
C442 O460 1.240 . S
C442 O461 1.240 . S
C443 Gd440 2.818 . S
C443 C444 1.510 . S
C443 O462 1.249 . S
C443 O463 1.252 . S
C444 C443 1.510 . S
C444 C445 1.404 . S
C444 C446 1.352 1_545 S
C445 C444 1.404 . S
C445 C449 1.389 . S
C445 H472 0.930 . S
C446 C444 1.352 1_565 S
C446 C448 1.374 . S
C446 H473 0.931 . S
C447 C448 1.359 . S
C447 C449 1.364 1_565 S
C448 C446 1.374 . S
C448 C447 1.359 . S
C448 H474 0.931 . S
C449 C445 1.389 . S
C449 C447 1.364 1_545 S
C449 H475 0.931 . S
C450 O464 1.256 1_565 S
C450 O465 1.257 . S
C451 O466 1.240 . S
C451 O467 1.240 . S
C452 Gd441 2.818 1_655 S
C452 C453 1.510 . S
C452 O468 1.249 1_655 S
C452 O469 1.252 1_655 S
C453 C452 1.510 . S
C453 C454 1.404 . S
C453 C455 1.352 . S
C454 C453 1.404 . S
C454 C458 1.389 . S
C454 H476 0.930 . S
C455 C453 1.352 . S
C455 C457 1.374 . S
C455 H477 0.931 . S
C456 C457 1.359 . S
C456 C458 1.364 . S
C457 C455 1.374 . S
C457 C456 1.359 . S
C457 H478 0.931 . S
C458 C454 1.389 . S
C458 C456 1.364 . S
C458 H479 0.931 . S
C459 O470 1.256 . S
C459 O471 1.257 . S
O460 Gd440 2.377 1_565 S
O460 C442 1.240 . S
O461 Gd441 2.395 . S
O461 C442 1.240 . S
O462 Gd440 2.448 . S
O462 C443 1.249 . S
O463 Gd440 2.506 . S
O463 C443 1.252 . S
O464 Gd440 2.435 . S
O464 C450 1.256 1_545 S
O465 Gd440 2.717 1_565 S
O465 Gd441 2.327 . S
O465 C450 1.257 . S
O466 Gd441 2.377 1_545 S
O466 C451 1.240 . S
O467 Gd440 2.395 . S
O467 C451 1.240 . S
O468 Gd441 2.448 . S
O468 C452 1.249 1_455 S
O469 Gd441 2.506 . S
O469 C452 1.252 1_455 S
O470 Gd441 2.435 . S
O470 C459 1.256 . S
O471 Gd440 2.327 1_565 S
O471 Gd441 2.717 . S
O471 C459 1.257 . S
H472 C445 0.930 . S
H473 C446 0.931 . S
H474 C448 0.931 . S
H475 C449 0.931 . S
H476 C454 0.930 . S
H477 C455 0.931 . S
H478 C457 0.931 . S
H479 C458 0.931 . S
Gd480 C483 2.818 . S
Gd480 O500 2.377 1_545 S
Gd480 O502 2.448 . S
Gd480 O503 2.506 . S
Gd480 O504 2.435 . S
Gd480 O505 2.717 1_655 S
Gd480 O507 2.395 . S
Gd480 O511 2.327 . S
Gd481 C492 2.818 . S
Gd481 O501 2.395 1_455 S
Gd481 O505 2.327 1_565 S
Gd481 O506 2.377 1_565 S
Gd481 O508 2.448 . S
Gd481 O509 2.506 . S
Gd481 O510 2.435 . S
Gd481 O511 2.717 1_465 S
C482 O500 1.240 . S
C482 O501 1.240 . S
C483 Gd480 2.818 . S
C483 C484 1.510 . S
C483 O502 1.249 . S
C483 O503 1.252 . S
C484 C483 1.510 . S
C484 C485 1.404 . S
C484 C486 1.352 . S
C485 C484 1.404 . S
C485 C489 1.389 . S
C485 H512 0.930 . S
C486 C484 1.352 . S
C486 C488 1.374 . S
C486 H513 0.931 . S
C487 C488 1.359 . S
C487 C489 1.364 . S
C488 C486 1.374 . S
C488 C487 1.359 . S
C488 H514 0.931 . S
C489 C485 1.389 . S
C489 C487 1.364 . S
C489 H515 0.931 . S
C490 O504 1.256 . S
C490 O505 1.257 1_655 S
C491 O506 1.240 . S
C491 O507 1.240 1_455 S
C492 Gd481 2.818 . S
C492 C493 1.510 . S
C492 O508 1.249 . S
C492 O509 1.252 . S
C493 C492 1.510 . S
C493 C494 1.404 . S
C493 C495 1.352 1_565 S
C494 C493 1.404 . S
C494 C498 1.389 . S
C494 H516 0.930 . S
C495 C493 1.352 1_545 S
C495 C497 1.374 . S
C495 H517 0.931 . S
C496 C497 1.359 . S
C496 C498 1.364 1_545 S
C497 C495 1.374 . S
C497 C496 1.359 . S
C497 H518 0.931 . S
C498 C494 1.389 . S
C498 C496 1.364 1_565 S
C498 H519 0.931 . S
C499 O510 1.256 1_645 S
C499 O511 1.257 . S
O500 Gd480 2.377 1_565 S
O500 C482 1.240 . S
O501 Gd481 2.395 1_655 S
O501 C482 1.240 . S
O502 Gd480 2.448 . S
O502 C483 1.249 . S
O503 Gd480 2.506 . S
O503 C483 1.252 . S
O504 Gd480 2.435 . S
O504 C490 1.256 . S
O505 Gd480 2.717 1_455 S
O505 Gd481 2.327 1_545 S
O505 C490 1.257 1_455 S
O506 Gd481 2.377 1_545 S
O506 C491 1.240 . S
O507 Gd480 2.395 . S
O507 C491 1.240 1_655 S
O508 Gd481 2.448 . S
O508 C492 1.249 . S
O509 Gd481 2.506 . S
O509 C492 1.252 . S
O510 Gd481 2.435 . S
O510 C499 1.256 1_465 S
O511 Gd480 2.327 . S
O511 Gd481 2.717 1_645 S
O511 C499 1.257 . S
H512 C485 0.930 . S
H513 C486 0.931 . S
H514 C488 0.931 . S
H515 C489 0.931 . S
H516 C494 0.930 . S
H517 C495 0.931 . S
H518 C497 0.931 . S
H519 C498 0.931 . S
Gd520 C523 2.818 1_655 S
Gd520 O540 2.377 . S
Gd520 O542 2.448 . S
Gd520 O543 2.506 . S
Gd520 O544 2.435 . S
Gd520 O545 2.717 . S
Gd520 O547 2.395 . S
Gd520 O551 2.327 . S
Gd521 C532 2.818 . S
Gd521 O541 2.395 . S
Gd521 O545 2.327 . S
Gd521 O546 2.377 . S
Gd521 O548 2.448 . S
Gd521 O549 2.506 . S
Gd521 O550 2.435 . S
Gd521 O551 2.717 . S
C522 O540 1.240 . S
C522 O541 1.240 . S
C523 Gd520 2.818 1_455 S
C523 C524 1.510 . S
C523 O542 1.249 1_455 S
C523 O543 1.252 1_455 S
C524 C523 1.510 . S
C524 C525 1.404 . S
C524 C526 1.352 . S
C525 C524 1.404 . S
C525 C529 1.389 . S
C525 H552 0.930 . S
C526 C524 1.352 . S
C526 C528 1.374 . S
C526 H553 0.931 . S
C527 C528 1.359 . S
C527 C529 1.364 . S
C528 C526 1.374 . S
C528 C527 1.359 . S
C528 H554 0.931 . S
C529 C525 1.389 . S
C529 C527 1.364 . S
C529 H555 0.931 . S
C530 O544 1.256 . S
C530 O545 1.257 . S
C531 O546 1.240 . S
C531 O547 1.240 . S
C532 Gd521 2.818 . S
C532 C533 1.510 . S
C532 O548 1.249 . S
C532 O549 1.252 . S
C533 C532 1.510 . S
C533 C534 1.404 . S
C533 C535 1.352 . S
C534 C533 1.404 . S
C534 C538 1.389 . S
C534 H556 0.930 . S
C535 C533 1.352 . S
C535 C537 1.374 . S
C535 H557 0.931 . S
C536 C537 1.359 . S
C536 C538 1.364 . S
C537 C535 1.374 . S
C537 C536 1.359 . S
C537 H558 0.931 . S
C538 C534 1.389 . S
C538 C536 1.364 . S
C538 H559 0.931 . S
C539 O550 1.256 . S
C539 O551 1.257 . S
O540 Gd520 2.377 . S
O540 C522 1.240 . S
O541 Gd521 2.395 . S
O541 C522 1.240 . S
O542 Gd520 2.448 . S
O542 C523 1.249 1_655 S
O543 Gd520 2.506 . S
O543 C523 1.252 1_655 S
O544 Gd520 2.435 . S
O544 C530 1.256 . S
O545 Gd520 2.717 . S
O545 Gd521 2.327 . S
O545 C530 1.257 . S
O546 Gd521 2.377 . S
O546 C531 1.240 . S
O547 Gd520 2.395 . S
O547 C531 1.240 . S
O548 Gd521 2.448 . S
O548 C532 1.249 . S
O549 Gd521 2.506 . S
O549 C532 1.252 . S
O550 Gd521 2.435 . S
O550 C539 1.256 . S
O551 Gd520 2.327 . S
O551 Gd521 2.717 . S
O551 C539 1.257 . S
H552 C525 0.930 . S
H553 C526 0.931 . S
H554 C528 0.931 . S
H555 C529 0.931 . S
H556 C534 0.930 . S
H557 C535 0.931 . S
H558 C537 0.931 . S
H559 C538 0.931 . S
Gd560 C563 2.818 . S
Gd560 O580 2.377 . S
Gd560 O582 2.448 . S
Gd560 O583 2.506 . S
Gd560 O584 2.435 . S
Gd560 O585 2.717 1_655 S
Gd560 O587 2.395 . S
Gd560 O591 2.327 . S
Gd561 C572 2.818 . S
Gd561 O581 2.395 1_455 S
Gd561 O585 2.327 . S
Gd561 O586 2.377 . S
Gd561 O588 2.448 . S
Gd561 O589 2.506 . S
Gd561 O590 2.435 . S
Gd561 O591 2.717 1_455 S
C562 O580 1.240 . S
C562 O581 1.240 . S
C563 Gd560 2.818 . S
C563 C564 1.510 . S
C563 O582 1.249 . S
C563 O583 1.252 . S
C564 C563 1.510 . S
C564 C565 1.404 . S
C564 C566 1.352 . S
C565 C564 1.404 . S
C565 C569 1.389 . S
C565 H592 0.930 . S
C566 C564 1.352 . S
C566 C568 1.374 . S
C566 H593 0.931 . S
C567 C568 1.359 . S
C567 C569 1.364 . S
C568 C566 1.374 . S
C568 C567 1.359 . S
C568 H594 0.931 . S
C569 C565 1.389 . S
C569 C567 1.364 . S
C569 H595 0.931 . S
C570 O584 1.256 . S
C570 O585 1.257 1_655 S
C571 O586 1.240 . S
C571 O587 1.240 1_455 S
C572 Gd561 2.818 . S
C572 C573 1.510 . S
C572 O588 1.249 . S
C572 O589 1.252 . S
C573 C572 1.510 . S
C573 C574 1.404 . S
C573 C575 1.352 . S
C574 C573 1.404 . S
C574 C578 1.389 . S
C574 H596 0.930 . S
C575 C573 1.352 . S
C575 C577 1.374 . S
C575 H597 0.931 . S
C576 C577 1.359 . S
C576 C578 1.364 . S
C577 C575 1.374 . S
C577 C576 1.359 . S
C577 H598 0.931 . S
C578 C574 1.389 . S
C578 C576 1.364 . S
C578 H599 0.931 . S
C579 O590 1.256 1_655 S
C579 O591 1.257 . S
O580 Gd560 2.377 . S
O580 C562 1.240 . S
O581 Gd561 2.395 1_655 S
O581 C562 1.240 . S
O582 Gd560 2.448 . S
O582 C563 1.249 . S
O583 Gd560 2.506 . S
O583 C563 1.252 . S
O584 Gd560 2.435 . S
O584 C570 1.256 . S
O585 Gd560 2.717 1_455 S
O585 Gd561 2.327 . S
O585 C570 1.257 1_455 S
O586 Gd561 2.377 . S
O586 C571 1.240 . S
O587 Gd560 2.395 . S
O587 C571 1.240 1_655 S
O588 Gd561 2.448 . S
O588 C572 1.249 . S
O589 Gd561 2.506 . S
O589 C572 1.252 . S
O590 Gd561 2.435 . S
O590 C579 1.256 1_455 S
O591 Gd560 2.327 . S
O591 Gd561 2.717 1_655 S
O591 C579 1.257 . S
H592 C565 0.930 . S
H593 C566 0.931 . S
H594 C568 0.931 . S
H595 C569 0.931 . S
H596 C574 0.930 . S
H597 C575 0.931 . S
H598 C577 0.931 . S
H599 C578 0.931 . S
Gd600 C603 2.818 1_655 S
Gd600 O620 2.377 1_545 S
Gd600 O622 2.448 . S
Gd600 O623 2.506 . S
Gd600 O624 2.435 . S
Gd600 O625 2.717 . S
Gd600 O627 2.395 . S
Gd600 O631 2.327 . S
Gd601 C612 2.818 . S
Gd601 O621 2.395 . S
Gd601 O625 2.327 1_565 S
Gd601 O626 2.377 1_565 S
Gd601 O628 2.448 . S
Gd601 O629 2.506 . S
Gd601 O630 2.435 . S
Gd601 O631 2.717 1_565 S
C602 O620 1.240 . S
C602 O621 1.240 . S
C603 Gd600 2.818 1_455 S
C603 C604 1.510 . S
C603 O622 1.249 1_455 S
C603 O623 1.252 1_455 S
C604 C603 1.510 . S
C604 C605 1.404 . S
C604 C606 1.352 . S
C605 C604 1.404 . S
C605 C609 1.389 . S
C605 H632 0.930 . S
C606 C604 1.352 . S
C606 C608 1.374 . S
C606 H633 0.931 . S
C607 C608 1.359 . S
C607 C609 1.364 . S
C608 C606 1.374 . S
C608 C607 1.359 . S
C608 H634 0.931 . S
C609 C605 1.389 . S
C609 C607 1.364 . S
C609 H635 0.931 . S
C610 O624 1.256 . S
C610 O625 1.257 . S
C611 O626 1.240 . S
C611 O627 1.240 . S
C612 Gd601 2.818 . S
C612 C613 1.510 . S
C612 O628 1.249 . S
C612 O629 1.252 . S
C613 C612 1.510 . S
C613 C614 1.404 . S
C613 C615 1.352 1_565 S
C614 C613 1.404 . S
C614 C618 1.389 . S
C614 H636 0.930 . S
C615 C613 1.352 1_545 S
C615 C617 1.374 . S
C615 H637 0.931 . S
C616 C617 1.359 . S
C616 C618 1.364 1_545 S
C617 C615 1.374 . S
C617 C616 1.359 . S
C617 H638 0.931 . S
C618 C614 1.389 . S
C618 C616 1.364 1_565 S
C618 H639 0.931 . S
C619 O630 1.256 1_545 S
C619 O631 1.257 . S
O620 Gd600 2.377 1_565 S
O620 C602 1.240 . S
O621 Gd601 2.395 . S
O621 C602 1.240 . S
O622 Gd600 2.448 . S
O622 C603 1.249 1_655 S
O623 Gd600 2.506 . S
O623 C603 1.252 1_655 S
O624 Gd600 2.435 . S
O624 C610 1.256 . S
O625 Gd600 2.717 . S
O625 Gd601 2.327 1_545 S
O625 C610 1.257 . S
O626 Gd601 2.377 1_545 S
O626 C611 1.240 . S
O627 Gd600 2.395 . S
O627 C611 1.240 . S
O628 Gd601 2.448 . S
O628 C612 1.249 . S
O629 Gd601 2.506 . S
O629 C612 1.252 . S
O630 Gd601 2.435 . S
O630 C619 1.256 1_565 S
O631 Gd600 2.327 . S
O631 Gd601 2.717 1_545 S
O631 C619 1.257 . S
H632 C605 0.930 . S
H633 C606 0.931 . S
H634 C608 0.931 . S
H635 C609 0.931 . S
H636 C614 0.930 . S
H637 C615 0.931 . S
H638 C617 0.931 . S
H639 C618 0.931 . S
Gd640 C643 2.818 . S
Gd640 O660 2.377 . S
Gd640 O662 2.448 . S
Gd640 O663 2.506 . S
Gd640 O664 2.435 . S
Gd640 O665 2.717 . S
Gd640 O667 2.395 . S
Gd640 O671 2.327 . S
Gd641 C652 2.818 . S
Gd641 O661 2.395 . S
Gd641 O665 2.327 . S
Gd641 O666 2.377 . S
Gd641 O668 2.448 . S
Gd641 O669 2.506 . S
Gd641 O670 2.435 . S
Gd641 O671 2.717 . S
C642 O660 1.240 . S
C642 O661 1.240 . S
C643 Gd640 2.818 . S
C643 C644 1.510 . S
C643 O662 1.249 . S
C643 O663 1.252 . S
C644 C643 1.510 . S
C644 C645 1.404 . S
C644 C646 1.352 . S
C645 C644 1.404 . S
C645 C649 1.389 . S
C645 H672 0.930 . S
C646 C644 1.352 . S
C646 C648 1.374 . S
C646 H673 0.931 . S
C647 C648 1.359 . S
C647 C649 1.364 . S
C648 C646 1.374 . S
C648 C647 1.359 . S
C648 H674 0.931 . S
C649 C645 1.389 . S
C649 C647 1.364 . S
C649 H675 0.931 . S
C650 O664 1.256 . S
C650 O665 1.257 . S
C651 O666 1.240 . S
C651 O667 1.240 . S
C652 Gd641 2.818 . S
C652 C653 1.510 . S
C652 O668 1.249 . S
C652 O669 1.252 . S
C653 C652 1.510 . S
C653 C654 1.404 . S
C653 C655 1.352 . S
C654 C653 1.404 . S
C654 C658 1.389 . S
C654 H676 0.930 . S
C655 C653 1.352 . S
C655 C657 1.374 . S
C655 H677 0.931 . S
C656 C657 1.359 . S
C656 C658 1.364 . S
C657 C655 1.374 . S
C657 C656 1.359 . S
C657 H678 0.931 . S
C658 C654 1.389 . S
C658 C656 1.364 . S
C658 H679 0.931 . S
C659 O670 1.256 . S
C659 O671 1.257 . S
O660 Gd640 2.377 . S
O660 C642 1.240 . S
O661 Gd641 2.395 . S
O661 C642 1.240 . S
O662 Gd640 2.448 . S
O662 C643 1.249 . S
O663 Gd640 2.506 . S
O663 C643 1.252 . S
O664 Gd640 2.435 . S
O664 C650 1.256 . S
O665 Gd640 2.717 . S
O665 Gd641 2.327 . S
O665 C650 1.257 . S
O666 Gd641 2.377 . S
O666 C651 1.240 . S
O667 Gd640 2.395 . S
O667 C651 1.240 . S
O668 Gd641 2.448 . S
O668 C652 1.249 . S
O669 Gd641 2.506 . S
O669 C652 1.252 . S
O670 Gd641 2.435 . S
O670 C659 1.256 . S
O671 Gd640 2.327 . S
O671 Gd641 2.717 . S
O671 C659 1.257 . S
H672 C645 0.930 . S
H673 C646 0.931 . S
H674 C648 0.931 . S
H675 C649 0.931 . S
H676 C654 0.930 . S
H677 C655 0.931 . S
H678 C657 0.931 . S
H679 C658 0.931 . S
Gd680 C683 2.818 . S
Gd680 O700 2.377 . S
Gd680 O702 2.448 . S
Gd680 O703 2.506 . S
Gd680 O704 2.435 . S
Gd680 O705 2.717 . S
Gd680 O707 2.395 . S
Gd680 O711 2.327 . S
Gd681 C692 2.818 . S
Gd681 O701 2.395 . S
Gd681 O705 2.327 . S
Gd681 O706 2.377 . S
Gd681 O708 2.448 . S
Gd681 O709 2.506 . S
Gd681 O710 2.435 . S
Gd681 O711 2.717 . S
C682 O700 1.240 . S
C682 O701 1.240 . S
C683 Gd680 2.818 . S
C683 C684 1.510 1_655 S
C683 O702 1.249 . S
C683 O703 1.252 . S
C684 C683 1.510 1_455 S
C684 C685 1.404 . S
C684 C686 1.352 . S
C685 C684 1.404 . S
C685 C689 1.389 . S
C685 H712 0.930 . S
C686 C684 1.352 . S
C686 C688 1.374 . S
C686 H713 0.931 . S
C687 C688 1.359 . S
C687 C689 1.364 . S
C688 C686 1.374 . S
C688 C687 1.359 . S
C688 H714 0.931 . S
C689 C685 1.389 . S
C689 C687 1.364 . S
C689 H715 0.931 . S
C690 O704 1.256 . S
C690 O705 1.257 . S
C691 O706 1.240 . S
C691 O707 1.240 . S
C692 Gd681 2.818 . S
C692 C693 1.510 . S
C692 O708 1.249 . S
C692 O709 1.252 . S
C693 C692 1.510 . S
C693 C694 1.404 . S
C693 C695 1.352 . S
C694 C693 1.404 . S
C694 C698 1.389 . S
C694 H716 0.930 . S
C695 C693 1.352 . S
C695 C697 1.374 . S
C695 H717 0.931 . S
C696 C697 1.359 . S
C696 C698 1.364 . S
C697 C695 1.374 . S
C697 C696 1.359 . S
C697 H718 0.931 . S
C698 C694 1.389 . S
C698 C696 1.364 . S
C698 H719 0.931 . S
C699 O710 1.256 . S
C699 O711 1.257 . S
O700 Gd680 2.377 . S
O700 C682 1.240 . S
O701 Gd681 2.395 . S
O701 C682 1.240 . S
O702 Gd680 2.448 . S
O702 C683 1.249 . S
O703 Gd680 2.506 . S
O703 C683 1.252 . S
O704 Gd680 2.435 . S
O704 C690 1.256 . S
O705 Gd680 2.717 . S
O705 Gd681 2.327 . S
O705 C690 1.257 . S
O706 Gd681 2.377 . S
O706 C691 1.240 . S
O707 Gd680 2.395 . S
O707 C691 1.240 . S
O708 Gd681 2.448 . S
O708 C692 1.249 . S
O709 Gd681 2.506 . S
O709 C692 1.252 . S
O710 Gd681 2.435 . S
O710 C699 1.256 . S
O711 Gd680 2.327 . S
O711 Gd681 2.717 . S
O711 C699 1.257 . S
H712 C685 0.930 . S
H713 C686 0.931 . S
H714 C688 0.931 . S
H715 C689 0.931 . S
H716 C694 0.930 . S
H717 C695 0.931 . S
H718 C697 0.931 . S
H719 C698 0.931 . S
Gd720 C723 2.818 . S
Gd720 O740 2.377 . S
Gd720 O742 2.448 . S
Gd720 O743 2.506 . S
Gd720 O744 2.435 . S
Gd720 O745 2.717 . S
Gd720 O747 2.395 . S
Gd720 O751 2.327 . S
Gd721 C732 2.818 . S
Gd721 O741 2.395 . S
Gd721 O745 2.327 . S
Gd721 O746 2.377 . S
Gd721 O748 2.448 . S
Gd721 O749 2.506 . S
Gd721 O750 2.435 . S
Gd721 O751 2.717 . S
C722 O740 1.240 . S
C722 O741 1.240 . S
C723 Gd720 2.818 . S
C723 C724 1.510 . S
C723 O742 1.249 . S
C723 O743 1.252 . S
C724 C723 1.510 . S
C724 C725 1.404 . S
C724 C726 1.352 . S
C725 C724 1.404 . S
C725 C729 1.389 . S
C725 H752 0.930 . S
C726 C724 1.352 . S
C726 C728 1.374 . S
C726 H753 0.931 . S
C727 C728 1.359 . S
C727 C729 1.364 . S
C728 C726 1.374 . S
C728 C727 1.359 . S
C728 H754 0.931 . S
C729 C725 1.389 . S
C729 C727 1.364 . S
C729 H755 0.931 . S
C730 O744 1.256 . S
C730 O745 1.257 . S
C731 O746 1.240 . S
C731 O747 1.240 . S
C732 Gd721 2.818 . S
C732 C733 1.510 . S
C732 O748 1.249 . S
C732 O749 1.252 . S
C733 C732 1.510 . S
C733 C734 1.404 . S
C733 C735 1.352 . S
C734 C733 1.404 . S
C734 C738 1.389 . S
C734 H756 0.930 . S
C735 C733 1.352 . S
C735 C737 1.374 . S
C735 H757 0.931 . S
C736 C737 1.359 . S
C736 C738 1.364 . S
C737 C735 1.374 . S
C737 C736 1.359 . S
C737 H758 0.931 . S
C738 C734 1.389 . S
C738 C736 1.364 . S
C738 H759 0.931 . S
C739 O750 1.256 . S
C739 O751 1.257 . S
O740 Gd720 2.377 . S
O740 C722 1.240 . S
O741 Gd721 2.395 . S
O741 C722 1.240 . S
O742 Gd720 2.448 . S
O742 C723 1.249 . S
O743 Gd720 2.506 . S
O743 C723 1.252 . S
O744 Gd720 2.435 . S
O744 C730 1.256 . S
O745 Gd720 2.717 . S
O745 Gd721 2.327 . S
O745 C730 1.257 . S
O746 Gd721 2.377 . S
O746 C731 1.240 . S
O747 Gd720 2.395 . S
O747 C731 1.240 . S
O748 Gd721 2.448 . S
O748 C732 1.249 . S
O749 Gd721 2.506 . S
O749 C732 1.252 . S
O750 Gd721 2.435 . S
O750 C739 1.256 . S
O751 Gd720 2.327 . S
O751 Gd721 2.717 . S
O751 C739 1.257 . S
H752 C725 0.930 . S
H753 C726 0.931 . S
H754 C728 0.931 . S
H755 C729 0.931 . S
H756 C734 0.930 . S
H757 C735 0.931 . S
H758 C737 0.931 . S
H759 C738 0.931 . S
Gd760 C763 2.818 . S
Gd760 O780 2.377 . S
Gd760 O782 2.448 . S
Gd760 O783 2.506 . S
Gd760 O784 2.435 . S
Gd760 O785 2.717 . S
Gd760 O787 2.395 . S
Gd760 O791 2.327 . S
Gd761 C772 2.818 . S
Gd761 O781 2.395 . S
Gd761 O785 2.327 . S
Gd761 O786 2.377 . S
Gd761 O788 2.448 . S
Gd761 O789 2.506 . S
Gd761 O790 2.435 . S
Gd761 O791 2.717 . S
C762 O780 1.240 . S
C762 O781 1.240 . S
C763 Gd760 2.818 . S
C763 C764 1.510 1_655 S
C763 O782 1.249 . S
C763 O783 1.252 . S
C764 C763 1.510 1_455 S
C764 C765 1.404 . S
C764 C766 1.352 . S
C765 C764 1.404 . S
C765 C769 1.389 . S
C765 H792 0.930 . S
C766 C764 1.352 . S
C766 C768 1.374 . S
C766 H793 0.931 . S
C767 C768 1.359 . S
C767 C769 1.364 . S
C768 C766 1.374 . S
C768 C767 1.359 . S
C768 H794 0.931 . S
C769 C765 1.389 . S
C769 C767 1.364 . S
C769 H795 0.931 . S
C770 O784 1.256 . S
C770 O785 1.257 . S
C771 O786 1.240 . S
C771 O787 1.240 . S
C772 Gd761 2.818 . S
C772 C773 1.510 . S
C772 O788 1.249 . S
C772 O789 1.252 . S
C773 C772 1.510 . S
C773 C774 1.404 . S
C773 C775 1.352 . S
C774 C773 1.404 . S
C774 C778 1.389 . S
C774 H796 0.930 . S
C775 C773 1.352 . S
C775 C777 1.374 . S
C775 H797 0.931 . S
C776 C777 1.359 . S
C776 C778 1.364 . S
C777 C775 1.374 . S
C777 C776 1.359 . S
C777 H798 0.931 . S
C778 C774 1.389 . S
C778 C776 1.364 . S
C778 H799 0.931 . S
C779 O790 1.256 . S
C779 O791 1.257 . S
O780 Gd760 2.377 . S
O780 C762 1.240 . S
O781 Gd761 2.395 . S
O781 C762 1.240 . S
O782 Gd760 2.448 . S
O782 C763 1.249 . S
O783 Gd760 2.506 . S
O783 C763 1.252 . S
O784 Gd760 2.435 . S
O784 C770 1.256 . S
O785 Gd760 2.717 . S
O785 Gd761 2.327 . S
O785 C770 1.257 . S
O786 Gd761 2.377 . S
O786 C771 1.240 . S
O787 Gd760 2.395 . S
O787 C771 1.240 . S
O788 Gd761 2.448 . S
O788 C772 1.249 . S
O789 Gd761 2.506 . S
O789 C772 1.252 . S
O790 Gd761 2.435 . S
O790 C779 1.256 . S
O791 Gd760 2.327 . S
O791 Gd761 2.717 . S
O791 C779 1.257 . S
H792 C765 0.930 . S
H793 C766 0.931 . S
H794 C768 0.931 . S
H795 C769 0.931 . S
H796 C774 0.930 . S
H797 C775 0.931 . S
H798 C777 0.931 . S
H799 C778 0.931 . S
Gd800 C803 2.818 . S
Gd800 O820 2.377 . S
Gd800 O822 2.448 . S
Gd800 O823 2.506 . S
Gd800 O824 2.435 . S
Gd800 O825 2.717 . S
Gd800 O827 2.395 . S
Gd800 O831 2.327 . S
Gd801 C812 2.818 . S
Gd801 O821 2.395 . S
Gd801 O825 2.327 . S
Gd801 O826 2.377 . S
Gd801 O828 2.448 . S
Gd801 O829 2.506 . S
Gd801 O830 2.435 . S
Gd801 O831 2.717 . S
C802 O820 1.240 . S
C802 O821 1.240 . S
C803 Gd800 2.818 . S
C803 C804 1.510 . S
C803 O822 1.249 . S
C803 O823 1.252 . S
C804 C803 1.510 . S
C804 C805 1.404 . S
C804 C806 1.352 . S
C805 C804 1.404 . S
C805 C809 1.389 . S
C805 H832 0.930 . S
C806 C804 1.352 . S
C806 C808 1.374 . S
C806 H833 0.931 . S
C807 C808 1.359 . S
C807 C809 1.364 . S
C808 C806 1.374 . S
C808 C807 1.359 . S
C808 H834 0.931 . S
C809 C805 1.389 . S
C809 C807 1.364 . S
C809 H835 0.931 . S
C810 O824 1.256 . S
C810 O825 1.257 . S
C811 O826 1.240 . S
C811 O827 1.240 . S
C812 Gd801 2.818 . S
C812 C813 1.510 . S
C812 O828 1.249 . S
C812 O829 1.252 . S
C813 C812 1.510 . S
C813 C814 1.404 . S
C813 C815 1.352 . S
C814 C813 1.404 . S
C814 C818 1.389 . S
C814 H836 0.930 . S
C815 C813 1.352 . S
C815 C817 1.374 . S
C815 H837 0.931 . S
C816 C817 1.359 . S
C816 C818 1.364 . S
C817 C815 1.374 . S
C817 C816 1.359 . S
C817 H838 0.931 . S
C818 C814 1.389 . S
C818 C816 1.364 . S
C818 H839 0.931 . S
C819 O830 1.256 . S
C819 O831 1.257 . S
O820 Gd800 2.377 . S
O820 C802 1.240 . S
O821 Gd801 2.395 . S
O821 C802 1.240 . S
O822 Gd800 2.448 . S
O822 C803 1.249 . S
O823 Gd800 2.506 . S
O823 C803 1.252 . S
O824 Gd800 2.435 . S
O824 C810 1.256 . S
O825 Gd800 2.717 . S
O825 Gd801 2.327 . S
O825 C810 1.257 . S
O826 Gd801 2.377 . S
O826 C811 1.240 . S
O827 Gd800 2.395 . S
O827 C811 1.240 . S
O828 Gd801 2.448 . S
O828 C812 1.249 . S
O829 Gd801 2.506 . S
O829 C812 1.252 . S
O830 Gd801 2.435 . S
O830 C819 1.256 . S
O831 Gd800 2.327 . S
O831 Gd801 2.717 . S
O831 C819 1.257 . S
H832 C805 0.930 . S
H833 C806 0.931 . S
H834 C808 0.931 . S
H835 C809 0.931 . S
H836 C814 0.930 . S
H837 C815 0.931 . S
H838 C817 0.931 . S
H839 C818 0.931 . S
Gd840 C843 2.818 . S
Gd840 O860 2.377 . S
Gd840 O862 2.448 . S
Gd840 O863 2.506 . S
Gd840 O864 2.435 . S
Gd840 O865 2.717 . S
Gd840 O867 2.395 . S
Gd840 O871 2.327 . S
Gd841 C852 2.818 . S
Gd841 O861 2.395 . S
Gd841 O865 2.327 . S
Gd841 O866 2.377 . S
Gd841 O868 2.448 . S
Gd841 O869 2.506 . S
Gd841 O870 2.435 . S
Gd841 O871 2.717 . S
C842 O860 1.240 . S
C842 O861 1.240 . S
C843 Gd840 2.818 . S
C843 C844 1.510 . S
C843 O862 1.249 . S
C843 O863 1.252 . S
C844 C843 1.510 . S
C844 C845 1.404 . S
C844 C846 1.352 . S
C845 C844 1.404 . S
C845 C849 1.389 . S
C845 H872 0.930 . S
C846 C844 1.352 . S
C846 C848 1.374 . S
C846 H873 0.931 . S
C847 C848 1.359 . S
C847 C849 1.364 . S
C848 C846 1.374 . S
C848 C847 1.359 . S
C848 H874 0.931 . S
C849 C845 1.389 . S
C849 C847 1.364 . S
C849 H875 0.931 . S
C850 O864 1.256 . S
C850 O865 1.257 . S
C851 O866 1.240 . S
C851 O867 1.240 . S
C852 Gd841 2.818 . S
C852 C853 1.510 1_455 S
C852 O868 1.249 . S
C852 O869 1.252 . S
C853 C852 1.510 1_655 S
C853 C854 1.404 . S
C853 C855 1.352 . S
C854 C853 1.404 . S
C854 C858 1.389 . S
C854 H876 0.930 . S
C855 C853 1.352 . S
C855 C857 1.374 . S
C855 H877 0.931 . S
C856 C857 1.359 . S
C856 C858 1.364 . S
C857 C855 1.374 . S
C857 C856 1.359 . S
C857 H878 0.931 . S
C858 C854 1.389 . S
C858 C856 1.364 . S
C858 H879 0.931 . S
C859 O870 1.256 . S
C859 O871 1.257 . S
O860 Gd840 2.377 . S
O860 C842 1.240 . S
O861 Gd841 2.395 . S
O861 C842 1.240 . S
O862 Gd840 2.448 . S
O862 C843 1.249 . S
O863 Gd840 2.506 . S
O863 C843 1.252 . S
O864 Gd840 2.435 . S
O864 C850 1.256 . S
O865 Gd840 2.717 . S
O865 Gd841 2.327 . S
O865 C850 1.257 . S
O866 Gd841 2.377 . S
O866 C851 1.240 . S
O867 Gd840 2.395 . S
O867 C851 1.240 . S
O868 Gd841 2.448 . S
O868 C852 1.249 . S
O869 Gd841 2.506 . S
O869 C852 1.252 . S
O870 Gd841 2.435 . S
O870 C859 1.256 . S
O871 Gd840 2.327 . S
O871 Gd841 2.717 . S
O871 C859 1.257 . S
H872 C845 0.930 . S
H873 C846 0.931 . S
H874 C848 0.931 . S
H875 C849 0.931 . S
H876 C854 0.930 . S
H877 C855 0.931 . S
H878 C857 0.931 . S
H879 C858 0.931 . S
Gd880 C883 2.818 . S
Gd880 O900 2.377 . S
Gd880 O902 2.448 . S
Gd880 O903 2.506 . S
Gd880 O904 2.435 . S
Gd880 O905 2.717 . S
Gd880 O907 2.395 . S
Gd880 O911 2.327 . S
Gd881 C892 2.818 . S
Gd881 O901 2.395 . S
Gd881 O905 2.327 . S
Gd881 O906 2.377 . S
Gd881 O908 2.448 . S
Gd881 O909 2.506 . S
Gd881 O910 2.435 . S
Gd881 O911 2.717 . S
C882 O900 1.240 . S
C882 O901 1.240 . S
C883 Gd880 2.818 . S
C883 C884 1.510 . S
C883 O902 1.249 . S
C883 O903 1.252 . S
C884 C883 1.510 . S
C884 C885 1.404 . S
C884 C886 1.352 . S
C885 C884 1.404 . S
C885 C889 1.389 . S
C885 H912 0.930 . S
C886 C884 1.352 . S
C886 C888 1.374 . S
C886 H913 0.931 . S
C887 C888 1.359 . S
C887 C889 1.364 . S
C888 C886 1.374 . S
C888 C887 1.359 . S
C888 H914 0.931 . S
C889 C885 1.389 . S
C889 C887 1.364 . S
C889 H915 0.931 . S
C890 O904 1.256 . S
C890 O905 1.257 . S
C891 O906 1.240 . S
C891 O907 1.240 . S
C892 Gd881 2.818 . S
C892 C893 1.510 . S
C892 O908 1.249 . S
C892 O909 1.252 . S
C893 C892 1.510 . S
C893 C894 1.404 . S
C893 C895 1.352 . S
C894 C893 1.404 . S
C894 C898 1.389 . S
C894 H916 0.930 . S
C895 C893 1.352 . S
C895 C897 1.374 . S
C895 H917 0.931 . S
C896 C897 1.359 . S
C896 C898 1.364 . S
C897 C895 1.374 . S
C897 C896 1.359 . S
C897 H918 0.931 . S
C898 C894 1.389 . S
C898 C896 1.364 . S
C898 H919 0.931 . S
C899 O910 1.256 . S
C899 O911 1.257 . S
O900 Gd880 2.377 . S
O900 C882 1.240 . S
O901 Gd881 2.395 . S
O901 C882 1.240 . S
O902 Gd880 2.448 . S
O902 C883 1.249 . S
O903 Gd880 2.506 . S
O903 C883 1.252 . S
O904 Gd880 2.435 . S
O904 C890 1.256 . S
O905 Gd880 2.717 . S
O905 Gd881 2.327 . S
O905 C890 1.257 . S
O906 Gd881 2.377 . S
O906 C891 1.240 . S
O907 Gd880 2.395 . S
O907 C891 1.240 . S
O908 Gd881 2.448 . S
O908 C892 1.249 . S
O909 Gd881 2.506 . S
O909 C892 1.252 . S
O910 Gd881 2.435 . S
O910 C899 1.256 . S
O911 Gd880 2.327 . S
O911 Gd881 2.717 . S
O911 C899 1.257 . S
H912 C885 0.930 . S
H913 C886 0.931 . S
H914 C888 0.931 . S
H915 C889 0.931 . S
H916 C894 0.930 . S
H917 C895 0.931 . S
H918 C897 0.931 . S
H919 C898 0.931 . S
Gd920 C923 2.818 . S
Gd920 O940 2.377 . S
Gd920 O942 2.448 . S
Gd920 O943 2.506 . S
Gd920 O944 2.435 . S
Gd920 O945 2.717 . S
Gd920 O947 2.395 . S
Gd920 O951 2.327 . S
Gd921 C932 2.818 . S
Gd921 O941 2.395 . S
Gd921 O945 2.327 . S
Gd921 O946 2.377 . S
Gd921 O948 2.448 . S
Gd921 O949 2.506 . S
Gd921 O950 2.435 . S
Gd921 O951 2.717 . S
C922 O940 1.240 . S
C922 O941 1.240 . S
C923 Gd920 2.818 . S
C923 C924 1.510 . S
C923 O942 1.249 . S
C923 O943 1.252 . S
C924 C923 1.510 . S
C924 C925 1.404 . S
C924 C926 1.352 . S
C925 C924 1.404 . S
C925 C929 1.389 . S
C925 H952 0.930 . S
C926 C924 1.352 . S
C926 C928 1.374 . S
C926 H953 0.931 . S
C927 C928 1.359 . S
C927 C929 1.364 . S
C928 C926 1.374 . S
C928 C927 1.359 . S
C928 H954 0.931 . S
C929 C925 1.389 . S
C929 C927 1.364 . S
C929 H955 0.931 . S
C930 O944 1.256 . S
C930 O945 1.257 . S
C931 O946 1.240 . S
C931 O947 1.240 . S
C932 Gd921 2.818 . S
C932 C933 1.510 1_455 S
C932 O948 1.249 . S
C932 O949 1.252 . S
C933 C932 1.510 1_655 S
C933 C934 1.404 . S
C933 C935 1.352 . S
C934 C933 1.404 . S
C934 C938 1.389 . S
C934 H956 0.930 . S
C935 C933 1.352 . S
C935 C937 1.374 . S
C935 H957 0.931 . S
C936 C937 1.359 . S
C936 C938 1.364 . S
C937 C935 1.374 . S
C937 C936 1.359 . S
C937 H958 0.931 . S
C938 C934 1.389 . S
C938 C936 1.364 . S
C938 H959 0.931 . S
C939 O950 1.256 . S
C939 O951 1.257 . S
O940 Gd920 2.377 . S
O940 C922 1.240 . S
O941 Gd921 2.395 . S
O941 C922 1.240 . S
O942 Gd920 2.448 . S
O942 C923 1.249 . S
O943 Gd920 2.506 . S
O943 C923 1.252 . S
O944 Gd920 2.435 . S
O944 C930 1.256 . S
O945 Gd920 2.717 . S
O945 Gd921 2.327 . S
O945 C930 1.257 . S
O946 Gd921 2.377 . S
O946 C931 1.240 . S
O947 Gd920 2.395 . S
O947 C931 1.240 . S
O948 Gd921 2.448 . S
O948 C932 1.249 . S
O949 Gd921 2.506 . S
O949 C932 1.252 . S
O950 Gd921 2.435 . S
O950 C939 1.256 . S
O951 Gd920 2.327 . S
O951 Gd921 2.717 . S
O951 C939 1.257 . S
H952 C925 0.930 . S
H953 C926 0.931 . S
H954 C928 0.931 . S
H955 C929 0.931 . S
H956 C934 0.930 . S
H957 C935 0.931 . S
H958 C937 0.931 . S
H959 C938 0.931 . S
Gd960 C963 2.818 . S
Gd960 O980 2.377 1_545 S
Gd960 O982 2.448 . S
Gd960 O983 2.506 . S
Gd960 O984 2.435 . S
Gd960 O985 2.717 1_545 S
Gd960 O987 2.395 . S
Gd960 O991 2.327 1_545 S
Gd961 C972 2.818 . S
Gd961 O981 2.395 . S
Gd961 O985 2.327 . S
Gd961 O986 2.377 1_565 S
Gd961 O988 2.448 . S
Gd961 O989 2.506 . S
Gd961 O990 2.435 . S
Gd961 O991 2.717 . S
C962 O980 1.240 . S
C962 O981 1.240 . S
C963 Gd960 2.818 . S
C963 C964 1.510 . S
C963 O982 1.249 . S
C963 O983 1.252 . S
C964 C963 1.510 . S
C964 C965 1.404 . S
C964 C966 1.352 1_545 S
C965 C964 1.404 . S
C965 C969 1.389 . S
C965 H992 0.930 . S
C966 C964 1.352 1_565 S
C966 C968 1.374 . S
C966 H993 0.931 . S
C967 C968 1.359 . S
C967 C969 1.364 1_565 S
C968 C966 1.374 . S
C968 C967 1.359 . S
C968 H994 0.931 . S
C969 C965 1.389 . S
C969 C967 1.364 1_545 S
C969 H995 0.931 . S
C970 O984 1.256 1_565 S
C970 O985 1.257 . S
C971 O986 1.240 . S
C971 O987 1.240 . S
C972 Gd961 2.818 . S
C972 C973 1.510 . S
C972 O988 1.249 . S
C972 O989 1.252 . S
C973 C972 1.510 . S
C973 C974 1.404 . S
C973 C975 1.352 . S
C974 C973 1.404 . S
C974 C978 1.389 . S
C974 H996 0.930 . S
C975 C973 1.352 . S
C975 C977 1.374 . S
C975 H997 0.931 . S
C976 C977 1.359 . S
C976 C978 1.364 . S
C977 C975 1.374 . S
C977 C976 1.359 . S
C977 H998 0.931 . S
C978 C974 1.389 . S
C978 C976 1.364 . S
C978 H999 0.931 . S
C979 O990 1.256 . S
C979 O991 1.257 . S
O980 Gd960 2.377 1_565 S
O980 C962 1.240 . S
O981 Gd961 2.395 . S
O981 C962 1.240 . S
O982 Gd960 2.448 . S
O982 C963 1.249 . S
O983 Gd960 2.506 . S
O983 C963 1.252 . S
O984 Gd960 2.435 . S
O984 C970 1.256 1_545 S
O985 Gd960 2.717 1_565 S
O985 Gd961 2.327 . S
O985 C970 1.257 . S
O986 Gd961 2.377 1_545 S
O986 C971 1.240 . S
O987 Gd960 2.395 . S
O987 C971 1.240 . S
O988 Gd961 2.448 . S
O988 C972 1.249 . S
O989 Gd961 2.506 . S
O989 C972 1.252 . S
O990 Gd961 2.435 . S
O990 C979 1.256 . S
O991 Gd960 2.327 1_565 S
O991 Gd961 2.717 . S
O991 C979 1.257 . S
H992 C965 0.930 . S
H993 C966 0.931 . S
H994 C968 0.931 . S
H995 C969 0.931 . S
H996 C974 0.930 . S
H997 C975 0.931 . S
H998 C977 0.931 . S
H999 C978 0.931 . S
Gd1000 C1003 2.818 . S
Gd1000 O1020 2.377 . S
Gd1000 O1022 2.448 . S
Gd1000 O1023 2.506 . S
Gd1000 O1024 2.435 . S
Gd1000 O1025 2.717 . S
Gd1000 O1027 2.395 . S
Gd1000 O1031 2.327 . S
Gd1001 C1012 2.818 . S
Gd1001 O1021 2.395 . S
Gd1001 O1025 2.327 . S
Gd1001 O1026 2.377 . S
Gd1001 O1028 2.448 . S
Gd1001 O1029 2.506 . S
Gd1001 O1030 2.435 . S
Gd1001 O1031 2.717 . S
C1002 O1020 1.240 . S
C1002 O1021 1.240 . S
C1003 Gd1000 2.818 . S
C1003 C1004 1.510 1_655 S
C1003 O1022 1.249 . S
C1003 O1023 1.252 . S
C1004 C1003 1.510 1_455 S
C1004 C1005 1.404 . S
C1004 C1006 1.352 . S
C1005 C1004 1.404 . S
C1005 C1009 1.389 . S
C1005 H1032 0.930 . S
C1006 C1004 1.352 . S
C1006 C1008 1.374 . S
C1006 H1033 0.931 . S
C1007 C1008 1.359 . S
C1007 C1009 1.364 . S
C1008 C1006 1.374 . S
C1008 C1007 1.359 . S
C1008 H1034 0.931 . S
C1009 C1005 1.389 . S
C1009 C1007 1.364 . S
C1009 H1035 0.931 . S
C1010 O1024 1.256 . S
C1010 O1025 1.257 . S
C1011 O1026 1.240 . S
C1011 O1027 1.240 . S
C1012 Gd1001 2.818 . S
C1012 C1013 1.510 . S
C1012 O1028 1.249 . S
C1012 O1029 1.252 . S
C1013 C1012 1.510 . S
C1013 C1014 1.404 . S
C1013 C1015 1.352 . S
C1014 C1013 1.404 . S
C1014 C1018 1.389 . S
C1014 H1036 0.930 . S
C1015 C1013 1.352 . S
C1015 C1017 1.374 . S
C1015 H1037 0.931 . S
C1016 C1017 1.359 . S
C1016 C1018 1.364 . S
C1017 C1015 1.374 . S
C1017 C1016 1.359 . S
C1017 H1038 0.931 . S
C1018 C1014 1.389 . S
C1018 C1016 1.364 . S
C1018 H1039 0.931 . S
C1019 O1030 1.256 . S
C1019 O1031 1.257 . S
O1020 Gd1000 2.377 . S
O1020 C1002 1.240 . S
O1021 Gd1001 2.395 . S
O1021 C1002 1.240 . S
O1022 Gd1000 2.448 . S
O1022 C1003 1.249 . S
O1023 Gd1000 2.506 . S
O1023 C1003 1.252 . S
O1024 Gd1000 2.435 . S
O1024 C1010 1.256 . S
O1025 Gd1000 2.717 . S
O1025 Gd1001 2.327 . S
O1025 C1010 1.257 . S
O1026 Gd1001 2.377 . S
O1026 C1011 1.240 . S
O1027 Gd1000 2.395 . S
O1027 C1011 1.240 . S
O1028 Gd1001 2.448 . S
O1028 C1012 1.249 . S
O1029 Gd1001 2.506 . S
O1029 C1012 1.252 . S
O1030 Gd1001 2.435 . S
O1030 C1019 1.256 . S
O1031 Gd1000 2.327 . S
O1031 Gd1001 2.717 . S
O1031 C1019 1.257 . S
H1032 C1005 0.930 . S
H1033 C1006 0.931 . S
H1034 C1008 0.931 . S
H1035 C1009 0.931 . S
H1036 C1014 0.930 . S
H1037 C1015 0.931 . S
H1038 C1017 0.931 . S
H1039 C1018 0.931 . S
Gd1040 C1043 2.818 . S
Gd1040 O1060 2.377 . S
Gd1040 O1062 2.448 . S
Gd1040 O1063 2.506 . S
Gd1040 O1064 2.435 . S
Gd1040 O1065 2.717 . S
Gd1040 O1067 2.395 . S
Gd1040 O1071 2.327 . S
Gd1041 C1052 2.818 . S
Gd1041 O1061 2.395 . S
Gd1041 O1065 2.327 . S
Gd1041 O1066 2.377 . S
Gd1041 O1068 2.448 . S
Gd1041 O1069 2.506 . S
Gd1041 O1070 2.435 . S
Gd1041 O1071 2.717 . S
C1042 O1060 1.240 . S
C1042 O1061 1.240 . S
C1043 Gd1040 2.818 . S
C1043 C1044 1.510 . S
C1043 O1062 1.249 . S
C1043 O1063 1.252 . S
C1044 C1043 1.510 . S
C1044 C1045 1.404 . S
C1044 C1046 1.352 . S
C1045 C1044 1.404 . S
C1045 C1049 1.389 . S
C1045 H1072 0.930 . S
C1046 C1044 1.352 . S
C1046 C1048 1.374 . S
C1046 H1073 0.931 . S
C1047 C1048 1.359 . S
C1047 C1049 1.364 . S
C1048 C1046 1.374 . S
C1048 C1047 1.359 . S
C1048 H1074 0.931 . S
C1049 C1045 1.389 . S
C1049 C1047 1.364 . S
C1049 H1075 0.931 . S
C1050 O1064 1.256 . S
C1050 O1065 1.257 . S
C1051 O1066 1.240 . S
C1051 O1067 1.240 . S
C1052 Gd1041 2.818 . S
C1052 C1053 1.510 . S
C1052 O1068 1.249 . S
C1052 O1069 1.252 . S
C1053 C1052 1.510 . S
C1053 C1054 1.404 . S
C1053 C1055 1.352 . S
C1054 C1053 1.404 . S
C1054 C1058 1.389 . S
C1054 H1076 0.930 . S
C1055 C1053 1.352 . S
C1055 C1057 1.374 . S
C1055 H1077 0.931 . S
C1056 C1057 1.359 . S
C1056 C1058 1.364 . S
C1057 C1055 1.374 . S
C1057 C1056 1.359 . S
C1057 H1078 0.931 . S
C1058 C1054 1.389 . S
C1058 C1056 1.364 . S
C1058 H1079 0.931 . S
C1059 O1070 1.256 . S
C1059 O1071 1.257 . S
O1060 Gd1040 2.377 . S
O1060 C1042 1.240 . S
O1061 Gd1041 2.395 . S
O1061 C1042 1.240 . S
O1062 Gd1040 2.448 . S
O1062 C1043 1.249 . S
O1063 Gd1040 2.506 . S
O1063 C1043 1.252 . S
O1064 Gd1040 2.435 . S
O1064 C1050 1.256 . S
O1065 Gd1040 2.717 . S
O1065 Gd1041 2.327 . S
O1065 C1050 1.257 . S
O1066 Gd1041 2.377 . S
O1066 C1051 1.240 . S
O1067 Gd1040 2.395 . S
O1067 C1051 1.240 . S
O1068 Gd1041 2.448 . S
O1068 C1052 1.249 . S
O1069 Gd1041 2.506 . S
O1069 C1052 1.252 . S
O1070 Gd1041 2.435 . S
O1070 C1059 1.256 . S
O1071 Gd1040 2.327 . S
O1071 Gd1041 2.717 . S
O1071 C1059 1.257 . S
H1072 C1045 0.930 . S
H1073 C1046 0.931 . S
H1074 C1048 0.931 . S
H1075 C1049 0.931 . S
H1076 C1054 0.930 . S
H1077 C1055 0.931 . S
H1078 C1057 0.931 . S
H1079 C1058 0.931 . S
Gd1080 C1083 2.818 . S
Gd1080 O1100 2.377 1_545 S
Gd1080 O1102 2.448 . S
Gd1080 O1103 2.506 . S
Gd1080 O1104 2.435 . S
Gd1080 O1105 2.717 1_545 S
Gd1080 O1107 2.395 . S
Gd1080 O1111 2.327 1_545 S
Gd1081 C1092 2.818 . S
Gd1081 O1101 2.395 . S
Gd1081 O1105 2.327 . S
Gd1081 O1106 2.377 1_565 S
Gd1081 O1108 2.448 . S
Gd1081 O1109 2.506 . S
Gd1081 O1110 2.435 . S
Gd1081 O1111 2.717 . S
C1082 O1100 1.240 . S
C1082 O1101 1.240 . S
C1083 Gd1080 2.818 . S
C1083 C1084 1.510 1_655 S
C1083 O1102 1.249 . S
C1083 O1103 1.252 . S
C1084 C1083 1.510 1_455 S
C1084 C1085 1.404 . S
C1084 C1086 1.352 1_545 S
C1085 C1084 1.404 . S
C1085 C1089 1.389 . S
C1085 H1112 0.930 . S
C1086 C1084 1.352 1_565 S
C1086 C1088 1.374 . S
C1086 H1113 0.931 . S
C1087 C1088 1.359 . S
C1087 C1089 1.364 1_565 S
C1088 C1086 1.374 . S
C1088 C1087 1.359 . S
C1088 H1114 0.931 . S
C1089 C1085 1.389 . S
C1089 C1087 1.364 1_545 S
C1089 H1115 0.931 . S
C1090 O1104 1.256 1_565 S
C1090 O1105 1.257 . S
C1091 O1106 1.240 . S
C1091 O1107 1.240 . S
C1092 Gd1081 2.818 . S
C1092 C1093 1.510 . S
C1092 O1108 1.249 . S
C1092 O1109 1.252 . S
C1093 C1092 1.510 . S
C1093 C1094 1.404 . S
C1093 C1095 1.352 . S
C1094 C1093 1.404 . S
C1094 C1098 1.389 . S
C1094 H1116 0.930 . S
C1095 C1093 1.352 . S
C1095 C1097 1.374 . S
C1095 H1117 0.931 . S
C1096 C1097 1.359 . S
C1096 C1098 1.364 . S
C1097 C1095 1.374 . S
C1097 C1096 1.359 . S
C1097 H1118 0.931 . S
C1098 C1094 1.389 . S
C1098 C1096 1.364 . S
C1098 H1119 0.931 . S
C1099 O1110 1.256 . S
C1099 O1111 1.257 . S
O1100 Gd1080 2.377 1_565 S
O1100 C1082 1.240 . S
O1101 Gd1081 2.395 . S
O1101 C1082 1.240 . S
O1102 Gd1080 2.448 . S
O1102 C1083 1.249 . S
O1103 Gd1080 2.506 . S
O1103 C1083 1.252 . S
O1104 Gd1080 2.435 . S
O1104 C1090 1.256 1_545 S
O1105 Gd1080 2.717 1_565 S
O1105 Gd1081 2.327 . S
O1105 C1090 1.257 . S
O1106 Gd1081 2.377 1_545 S
O1106 C1091 1.240 . S
O1107 Gd1080 2.395 . S
O1107 C1091 1.240 . S
O1108 Gd1081 2.448 . S
O1108 C1092 1.249 . S
O1109 Gd1081 2.506 . S
O1109 C1092 1.252 . S
O1110 Gd1081 2.435 . S
O1110 C1099 1.256 . S
O1111 Gd1080 2.327 1_565 S
O1111 Gd1081 2.717 . S
O1111 C1099 1.257 . S
H1112 C1085 0.930 . S
H1113 C1086 0.931 . S
H1114 C1088 0.931 . S
H1115 C1089 0.931 . S
H1116 C1094 0.930 . S
H1117 C1095 0.931 . S
H1118 C1097 0.931 . S
H1119 C1098 0.931 . S
Gd1120 C1123 2.818 . S
Gd1120 O1140 2.377 1_545 S
Gd1120 O1142 2.448 . S
Gd1120 O1143 2.506 . S
Gd1120 O1144 2.435 . S
Gd1120 O1145 2.717 . S
Gd1120 O1147 2.395 . S
Gd1120 O1151 2.327 . S
Gd1121 C1132 2.818 . S
Gd1121 O1141 2.395 . S
Gd1121 O1145 2.327 1_565 S
Gd1121 O1146 2.377 1_565 S
Gd1121 O1148 2.448 . S
Gd1121 O1149 2.506 . S
Gd1121 O1150 2.435 . S
Gd1121 O1151 2.717 1_565 S
C1122 O1140 1.240 . S
C1122 O1141 1.240 . S
C1123 Gd1120 2.818 . S
C1123 C1124 1.510 . S
C1123 O1142 1.249 . S
C1123 O1143 1.252 . S
C1124 C1123 1.510 . S
C1124 C1125 1.404 . S
C1124 C1126 1.352 . S
C1125 C1124 1.404 . S
C1125 C1129 1.389 . S
C1125 H1152 0.930 . S
C1126 C1124 1.352 . S
C1126 C1128 1.374 . S
C1126 H1153 0.931 . S
C1127 C1128 1.359 . S
C1127 C1129 1.364 . S
C1128 C1126 1.374 . S
C1128 C1127 1.359 . S
C1128 H1154 0.931 . S
C1129 C1125 1.389 . S
C1129 C1127 1.364 . S
C1129 H1155 0.931 . S
C1130 O1144 1.256 . S
C1130 O1145 1.257 . S
C1131 O1146 1.240 . S
C1131 O1147 1.240 . S
C1132 Gd1121 2.818 . S
C1132 C1133 1.510 . S
C1132 O1148 1.249 . S
C1132 O1149 1.252 . S
C1133 C1132 1.510 . S
C1133 C1134 1.404 . S
C1133 C1135 1.352 1_565 S
C1134 C1133 1.404 . S
C1134 C1138 1.389 . S
C1134 H1156 0.930 . S
C1135 C1133 1.352 1_545 S
C1135 C1137 1.374 . S
C1135 H1157 0.931 . S
C1136 C1137 1.359 . S
C1136 C1138 1.364 1_545 S
C1137 C1135 1.374 . S
C1137 C1136 1.359 . S
C1137 H1158 0.931 . S
C1138 C1134 1.389 . S
C1138 C1136 1.364 1_565 S
C1138 H1159 0.931 . S
C1139 O1150 1.256 1_545 S
C1139 O1151 1.257 . S
O1140 Gd1120 2.377 1_565 S
O1140 C1122 1.240 . S
O1141 Gd1121 2.395 . S
O1141 C1122 1.240 . S
O1142 Gd1120 2.448 . S
O1142 C1123 1.249 . S
O1143 Gd1120 2.506 . S
O1143 C1123 1.252 . S
O1144 Gd1120 2.435 . S
O1144 C1130 1.256 . S
O1145 Gd1120 2.717 . S
O1145 Gd1121 2.327 1_545 S
O1145 C1130 1.257 . S
O1146 Gd1121 2.377 1_545 S
O1146 C1131 1.240 . S
O1147 Gd1120 2.395 . S
O1147 C1131 1.240 . S
O1148 Gd1121 2.448 . S
O1148 C1132 1.249 . S
O1149 Gd1121 2.506 . S
O1149 C1132 1.252 . S
O1150 Gd1121 2.435 . S
O1150 C1139 1.256 1_565 S
O1151 Gd1120 2.327 . S
O1151 Gd1121 2.717 1_545 S
O1151 C1139 1.257 . S
H1152 C1125 0.930 . S
H1153 C1126 0.931 . S
H1154 C1128 0.931 . S
H1155 C1129 0.931 . S
H1156 C1134 0.930 . S
H1157 C1135 0.931 . S
H1158 C1137 0.931 . S
H1159 C1138 0.931 . S
Gd1160 C1163 2.818 . S
Gd1160 O1180 2.377 . S
Gd1160 O1182 2.448 . S
Gd1160 O1183 2.506 . S
Gd1160 O1184 2.435 . S
Gd1160 O1185 2.717 . S
Gd1160 O1187 2.395 . S
Gd1160 O1191 2.327 . S
Gd1161 C1172 2.818 . S
Gd1161 O1181 2.395 . S
Gd1161 O1185 2.327 . S
Gd1161 O1186 2.377 . S
Gd1161 O1188 2.448 . S
Gd1161 O1189 2.506 . S
Gd1161 O1190 2.435 . S
Gd1161 O1191 2.717 . S
C1162 O1180 1.240 . S
C1162 O1181 1.240 . S
C1163 Gd1160 2.818 . S
C1163 C1164 1.510 . S
C1163 O1182 1.249 . S
C1163 O1183 1.252 . S
C1164 C1163 1.510 . S
C1164 C1165 1.404 . S
C1164 C1166 1.352 . S
C1165 C1164 1.404 . S
C1165 C1169 1.389 . S
C1165 H1192 0.930 . S
C1166 C1164 1.352 . S
C1166 C1168 1.374 . S
C1166 H1193 0.931 . S
C1167 C1168 1.359 . S
C1167 C1169 1.364 . S
C1168 C1166 1.374 . S
C1168 C1167 1.359 . S
C1168 H1194 0.931 . S
C1169 C1165 1.389 . S
C1169 C1167 1.364 . S
C1169 H1195 0.931 . S
C1170 O1184 1.256 . S
C1170 O1185 1.257 . S
C1171 O1186 1.240 . S
C1171 O1187 1.240 . S
C1172 Gd1161 2.818 . S
C1172 C1173 1.510 1_455 S
C1172 O1188 1.249 . S
C1172 O1189 1.252 . S
C1173 C1172 1.510 1_655 S
C1173 C1174 1.404 . S
C1173 C1175 1.352 . S
C1174 C1173 1.404 . S
C1174 C1178 1.389 . S
C1174 H1196 0.930 . S
C1175 C1173 1.352 . S
C1175 C1177 1.374 . S
C1175 H1197 0.931 . S
C1176 C1177 1.359 . S
C1176 C1178 1.364 . S
C1177 C1175 1.374 . S
C1177 C1176 1.359 . S
C1177 H1198 0.931 . S
C1178 C1174 1.389 . S
C1178 C1176 1.364 . S
C1178 H1199 0.931 . S
C1179 O1190 1.256 . S
C1179 O1191 1.257 . S
O1180 Gd1160 2.377 . S
O1180 C1162 1.240 . S
O1181 Gd1161 2.395 . S
O1181 C1162 1.240 . S
O1182 Gd1160 2.448 . S
O1182 C1163 1.249 . S
O1183 Gd1160 2.506 . S
O1183 C1163 1.252 . S
O1184 Gd1160 2.435 . S
O1184 C1170 1.256 . S
O1185 Gd1160 2.717 . S
O1185 Gd1161 2.327 . S
O1185 C1170 1.257 . S
O1186 Gd1161 2.377 . S
O1186 C1171 1.240 . S
O1187 Gd1160 2.395 . S
O1187 C1171 1.240 . S
O1188 Gd1161 2.448 . S
O1188 C1172 1.249 . S
O1189 Gd1161 2.506 . S
O1189 C1172 1.252 . S
O1190 Gd1161 2.435 . S
O1190 C1179 1.256 . S
O1191 Gd1160 2.327 . S
O1191 Gd1161 2.717 . S
O1191 C1179 1.257 . S
H1192 C1165 0.930 . S
H1193 C1166 0.931 . S
H1194 C1168 0.931 . S
H1195 C1169 0.931 . S
H1196 C1174 0.930 . S
H1197 C1175 0.931 . S
H1198 C1177 0.931 . S
H1199 C1178 0.931 . S
Gd1200 C1203 2.818 . S
Gd1200 O1220 2.377 . S
Gd1200 O1222 2.448 . S
Gd1200 O1223 2.506 . S
Gd1200 O1224 2.435 . S
Gd1200 O1225 2.717 . S
Gd1200 O1227 2.395 . S
Gd1200 O1231 2.327 . S
Gd1201 C1212 2.818 . S
Gd1201 O1221 2.395 . S
Gd1201 O1225 2.327 . S
Gd1201 O1226 2.377 . S
Gd1201 O1228 2.448 . S
Gd1201 O1229 2.506 . S
Gd1201 O1230 2.435 . S
Gd1201 O1231 2.717 . S
C1202 O1220 1.240 . S
C1202 O1221 1.240 . S
C1203 Gd1200 2.818 . S
C1203 C1204 1.510 . S
C1203 O1222 1.249 . S
C1203 O1223 1.252 . S
C1204 C1203 1.510 . S
C1204 C1205 1.404 . S
C1204 C1206 1.352 . S
C1205 C1204 1.404 . S
C1205 C1209 1.389 . S
C1205 H1232 0.930 . S
C1206 C1204 1.352 . S
C1206 C1208 1.374 . S
C1206 H1233 0.931 . S
C1207 C1208 1.359 . S
C1207 C1209 1.364 . S
C1208 C1206 1.374 . S
C1208 C1207 1.359 . S
C1208 H1234 0.931 . S
C1209 C1205 1.389 . S
C1209 C1207 1.364 . S
C1209 H1235 0.931 . S
C1210 O1224 1.256 . S
C1210 O1225 1.257 . S
C1211 O1226 1.240 . S
C1211 O1227 1.240 . S
C1212 Gd1201 2.818 . S
C1212 C1213 1.510 . S
C1212 O1228 1.249 . S
C1212 O1229 1.252 . S
C1213 C1212 1.510 . S
C1213 C1214 1.404 . S
C1213 C1215 1.352 . S
C1214 C1213 1.404 . S
C1214 C1218 1.389 . S
C1214 H1236 0.930 . S
C1215 C1213 1.352 . S
C1215 C1217 1.374 . S
C1215 H1237 0.931 . S
C1216 C1217 1.359 . S
C1216 C1218 1.364 . S
C1217 C1215 1.374 . S
C1217 C1216 1.359 . S
C1217 H1238 0.931 . S
C1218 C1214 1.389 . S
C1218 C1216 1.364 . S
C1218 H1239 0.931 . S
C1219 O1230 1.256 . S
C1219 O1231 1.257 . S
O1220 Gd1200 2.377 . S
O1220 C1202 1.240 . S
O1221 Gd1201 2.395 . S
O1221 C1202 1.240 . S
O1222 Gd1200 2.448 . S
O1222 C1203 1.249 . S
O1223 Gd1200 2.506 . S
O1223 C1203 1.252 . S
O1224 Gd1200 2.435 . S
O1224 C1210 1.256 . S
O1225 Gd1200 2.717 . S
O1225 Gd1201 2.327 . S
O1225 C1210 1.257 . S
O1226 Gd1201 2.377 . S
O1226 C1211 1.240 . S
O1227 Gd1200 2.395 . S
O1227 C1211 1.240 . S
O1228 Gd1201 2.448 . S
O1228 C1212 1.249 . S
O1229 Gd1201 2.506 . S
O1229 C1212 1.252 . S
O1230 Gd1201 2.435 . S
O1230 C1219 1.256 . S
O1231 Gd1200 2.327 . S
O1231 Gd1201 2.717 . S
O1231 C1219 1.257 . S
H1232 C1205 0.930 . S
H1233 C1206 0.931 . S
H1234 C1208 0.931 . S
H1235 C1209 0.931 . S
H1236 C1214 0.930 . S
H1237 C1215 0.931 . S
H1238 C1217 0.931 . S
H1239 C1218 0.931 . S
Gd1240 C1243 2.818 . S
Gd1240 O1260 2.377 1_545 S
Gd1240 O1262 2.448 . S
Gd1240 O1263 2.506 . S
Gd1240 O1264 2.435 . S
Gd1240 O1265 2.717 . S
Gd1240 O1267 2.395 . S
Gd1240 O1271 2.327 . S
Gd1241 C1252 2.818 . S
Gd1241 O1261 2.395 . S
Gd1241 O1265 2.327 1_565 S
Gd1241 O1266 2.377 1_565 S
Gd1241 O1268 2.448 . S
Gd1241 O1269 2.506 . S
Gd1241 O1270 2.435 . S
Gd1241 O1271 2.717 1_565 S
C1242 O1260 1.240 . S
C1242 O1261 1.240 . S
C1243 Gd1240 2.818 . S
C1243 C1244 1.510 . S
C1243 O1262 1.249 . S
C1243 O1263 1.252 . S
C1244 C1243 1.510 . S
C1244 C1245 1.404 . S
C1244 C1246 1.352 . S
C1245 C1244 1.404 . S
C1245 C1249 1.389 . S
C1245 H1272 0.930 . S
C1246 C1244 1.352 . S
C1246 C1248 1.374 . S
C1246 H1273 0.931 . S
C1247 C1248 1.359 . S
C1247 C1249 1.364 . S
C1248 C1246 1.374 . S
C1248 C1247 1.359 . S
C1248 H1274 0.931 . S
C1249 C1245 1.389 . S
C1249 C1247 1.364 . S
C1249 H1275 0.931 . S
C1250 O1264 1.256 . S
C1250 O1265 1.257 . S
C1251 O1266 1.240 . S
C1251 O1267 1.240 . S
C1252 Gd1241 2.818 . S
C1252 C1253 1.510 1_455 S
C1252 O1268 1.249 . S
C1252 O1269 1.252 . S
C1253 C1252 1.510 1_655 S
C1253 C1254 1.404 . S
C1253 C1255 1.352 1_565 S
C1254 C1253 1.404 . S
C1254 C1258 1.389 . S
C1254 H1276 0.930 . S
C1255 C1253 1.352 1_545 S
C1255 C1257 1.374 . S
C1255 H1277 0.931 . S
C1256 C1257 1.359 . S
C1256 C1258 1.364 1_545 S
C1257 C1255 1.374 . S
C1257 C1256 1.359 . S
C1257 H1278 0.931 . S
C1258 C1254 1.389 . S
C1258 C1256 1.364 1_565 S
C1258 H1279 0.931 . S
C1259 O1270 1.256 1_545 S
C1259 O1271 1.257 . S
O1260 Gd1240 2.377 1_565 S
O1260 C1242 1.240 . S
O1261 Gd1241 2.395 . S
O1261 C1242 1.240 . S
O1262 Gd1240 2.448 . S
O1262 C1243 1.249 . S
O1263 Gd1240 2.506 . S
O1263 C1243 1.252 . S
O1264 Gd1240 2.435 . S
O1264 C1250 1.256 . S
O1265 Gd1240 2.717 . S
O1265 Gd1241 2.327 1_545 S
O1265 C1250 1.257 . S
O1266 Gd1241 2.377 1_545 S
O1266 C1251 1.240 . S
O1267 Gd1240 2.395 . S
O1267 C1251 1.240 . S
O1268 Gd1241 2.448 . S
O1268 C1252 1.249 . S
O1269 Gd1241 2.506 . S
O1269 C1252 1.252 . S
O1270 Gd1241 2.435 . S
O1270 C1259 1.256 1_565 S
O1271 Gd1240 2.327 . S
O1271 Gd1241 2.717 1_545 S
O1271 C1259 1.257 . S
H1272 C1245 0.930 . S
H1273 C1246 0.931 . S
H1274 C1248 0.931 . S
H1275 C1249 0.931 . S
H1276 C1254 0.930 . S
H1277 C1255 0.931 . S
H1278 C1257 0.931 . S
H1279 C1258 0.931 . S
C2 C1002 2.490 . S
C962 C42 2.490 . S
C1082 C82 2.490 . S
C122 C1042 2.490 . S
C171 C1171 2.490 . S
C211 C1131 2.490 . S
C251 C1251 2.490 . S
C1211 C291 2.490 . S
C322 C682 2.490 . S
C362 C642 2.490 . S
C402 C762 2.490 . S
C722 C442 2.490 . S
C491 C851 2.490 . S
C531 C811 2.490 . S
C931 C571 2.490 . S
C611 C891 2.490 . S
C10 C130 2.805 . S
C50 C90 2.805 . S
C299 C179 2.805 . S
C259 C219 2.805 . S
C330 C450 2.806 . S
C370 C410 2.805 . S
C499 C619 2.806 . S
C579 C539 2.805 . S
C650 C770 2.805 . S
C690 C730 2.805 . S
C939 C819 2.805 . S
C859 C899 2.805 . S
C1090 C970 2.806 . S
C1010 C1050 2.805 . S
C1259 C1139 2.806 . S
C1219 C1179 2.805 . S
C51 C11 1.616 . S
C91 C131 1.616 . S
C202 C162 1.616 . S
C282 C242 1.616 . S
C331 C371 1.616 . S
C411 C451 1.616 . S
C522 C482 1.616 . S
C562 C602 1.616 . S
C651 C691 1.616 . S
C771 C731 1.616 . S
C802 C842 1.616 . S
C882 C922 1.616 . S
C971 C1011 1.616 . S
C1051 C1091 1.616 . S
C1162 C1122 1.616 . S
C1202 C1242 1.616 . S
C7 C16 2.445 . S
C47 C56 2.445 . S
C87 C96 2.445 . S
C136 C127 2.445 . S
C167 C176 2.445 . S
C216 C207 2.445 . S
C247 C256 2.445 . S
C287 C296 2.445 . S
C336 C327 2.445 . S
C367 C376 2.445 . S
C407 C416 2.445 . S
C456 C447 2.445 . S
C487 C496 2.445 . S
C536 C527 2.445 . S
C576 C567 2.445 . S
C607 C616 2.445 . S
C647 C656 2.445 1_455 S
C696 C687 2.445 . S
C736 C727 2.445 1_655 S
C767 C776 2.445 . S
C816 C807 2.445 1_655 S
C856 C847 2.445 . S
C887 C896 2.445 1_455 S
C936 C927 2.445 . S
C976 C967 2.445 1_655 S
C1007 C1016 2.445 . S
C1056 C1047 2.445 1_655 S
C1096 C1087 2.445 . S
C1136 C1127 2.445 1_655 S
C1176 C1167 2.445 . S
C1207 C1216 2.445 1_455 S
C1247 C1256 2.445 . S
C19 C170 1.570 1_454 S
C1170 C59 1.570 1_556 S
C570 C99 1.570 1_655 S
C139 C930 1.570 . S
C210 C1019 1.570 1_556 S
C250 C419 1.570 1_655 S
C290 C779 1.570 . S
C339 C490 1.570 1_465 S
C850 C379 1.570 . S
C1250 C459 1.570 1_545 S
C530 C699 1.570 . S
C1099 C610 1.570 1_565 S
C659 C810 1.570 . S
C1210 C739 1.570 . S
C890 C1059 1.570 . S
C979 C1130 1.570 1_564 S
