# Generated by pormake.
# Topology wfv, (7)-cn, num edge types: 1
# Building blocks:
#     Node 0, Type 0, BuildingBlock: NUHQUE_clean_sbu_2, # of connection points: 7
#     Node 1, Type 0, BuildingBlock: NUHQUE_clean_sbu_2, # of connection points: 7
#     Node 2, Type 0, BuildingBlock: NUHQUE_clean_sbu_2, # of connection points: 7
#     Node 3, Type 0, BuildingBlock: NUHQUE_clean_sbu_2, # of connection points: 7
#     Node 4, Type 0, BuildingBlock: NUHQUE_clean_sbu_2, # of connection points: 7
#     Node 5, Type 0, BuildingBlock: NUHQUE_clean_sbu_2, # of connection points: 7
#     Node 6, Type 0, BuildingBlock: NUHQUE_clean_sbu_2, # of connection points: 7
#     Node 7, Type 0, BuildingBlock: NUHQUE_clean_sbu_2, # of connection points: 7
#     Node 8, Type 0, BuildingBlock: NUHQUE_clean_sbu_2, # of connection points: 7
#     Node 9, Type 0, BuildingBlock: NUHQUE_clean_sbu_2, # of connection points: 7
#     Node 10, Type 0, BuildingBlock: NUHQUE_clean_sbu_2, # of connection points: 7
#     Node 11, Type 0, BuildingBlock: NUHQUE_clean_sbu_2, # of connection points: 7
#     Node 12, Type 0, BuildingBlock: NUHQUE_clean_sbu_2, # of connection points: 7
#     Node 13, Type 0, BuildingBlock: NUHQUE_clean_sbu_2, # of connection points: 7
#     Node 14, Type 0, BuildingBlock: NUHQUE_clean_sbu_2, # of connection points: 7
#     Node 15, Type 0, BuildingBlock: NUHQUE_clean_sbu_2, # of connection points: 7
#     Edge 16, Type (0, 0), BuildingBlock: EZIPEK_clean_linker_0, # of connection points: 2
#     Edge 17, Type (0, 0), BuildingBlock: EZIPEK_clean_linker_0, # of connection points: 2
#     Edge 18, Type (0, 0), BuildingBlock: EZIPEK_clean_linker_0, # of connection points: 2
#     Edge 19, Type (0, 0), BuildingBlock: EZIPEK_clean_linker_0, # of connection points: 2
#     Edge 20, Type (0, 0), BuildingBlock: EZIPEK_clean_linker_0, # of connection points: 2
#     Edge 21, Type (0, 0), BuildingBlock: EZIPEK_clean_linker_0, # of connection points: 2
#     Edge 22, Type (0, 0), BuildingBlock: EZIPEK_clean_linker_0, # of connection points: 2
#     Edge 23, Type (0, 0), BuildingBlock: EZIPEK_clean_linker_0, # of connection points: 2
#     Edge 24, Type (0, 0), BuildingBlock: EZIPEK_clean_linker_0, # of connection points: 2
#     Edge 25, Type (0, 0), BuildingBlock: EZIPEK_clean_linker_0, # of connection points: 2
#     Edge 26, Type (0, 0), BuildingBlock: EZIPEK_clean_linker_0, # of connection points: 2
#     Edge 27, Type (0, 0), BuildingBlock: EZIPEK_clean_linker_0, # of connection points: 2
#     Edge 28, Type (0, 0), BuildingBlock: EZIPEK_clean_linker_0, # of connection points: 2
#     Edge 29, Type (0, 0), BuildingBlock: EZIPEK_clean_linker_0, # of connection points: 2
#     Edge 30, Type (0, 0), BuildingBlock: EZIPEK_clean_linker_0, # of connection points: 2
#     Edge 31, Type (0, 0), BuildingBlock: EZIPEK_clean_linker_0, # of connection points: 2
#     Edge 32, Type (0, 0), BuildingBlock: EZIPEK_clean_linker_0, # of connection points: 2
#     Edge 33, Type (0, 0), BuildingBlock: EZIPEK_clean_linker_0, # of connection points: 2
#     Edge 34, Type (0, 0), BuildingBlock: EZIPEK_clean_linker_0, # of connection points: 2
#     Edge 35, Type (0, 0), BuildingBlock: EZIPEK_clean_linker_0, # of connection points: 2
#     Edge 36, Type (0, 0), BuildingBlock: EZIPEK_clean_linker_0, # of connection points: 2
#     Edge 37, Type (0, 0), BuildingBlock: EZIPEK_clean_linker_0, # of connection points: 2
#     Edge 38, Type (0, 0), BuildingBlock: EZIPEK_clean_linker_0, # of connection points: 2
#     Edge 39, Type (0, 0), BuildingBlock: EZIPEK_clean_linker_0, # of connection points: 2
#     Edge 40, Type (0, 0), BuildingBlock: EZIPEK_clean_linker_0, # of connection points: 2
#     Edge 41, Type (0, 0), BuildingBlock: EZIPEK_clean_linker_0, # of connection points: 2
#     Edge 42, Type (0, 0), BuildingBlock: EZIPEK_clean_linker_0, # of connection points: 2
#     Edge 43, Type (0, 0), BuildingBlock: EZIPEK_clean_linker_0, # of connection points: 2
#     Edge 44, Type (0, 0), BuildingBlock: EZIPEK_clean_linker_0, # of connection points: 2
#     Edge 45, Type (0, 0), BuildingBlock: EZIPEK_clean_linker_0, # of connection points: 2
#     Edge 46, Type (0, 0), BuildingBlock: EZIPEK_clean_linker_0, # of connection points: 2
#     Edge 47, Type (0, 0), BuildingBlock: EZIPEK_clean_linker_0, # of connection points: 2
#     Edge 48, Type (0, 0), BuildingBlock: EZIPEK_clean_linker_0, # of connection points: 2
#     Edge 49, Type (0, 0), BuildingBlock: EZIPEK_clean_linker_0, # of connection points: 2
#     Edge 50, Type (0, 0), BuildingBlock: EZIPEK_clean_linker_0, # of connection points: 2
#     Edge 51, Type (0, 0), BuildingBlock: EZIPEK_clean_linker_0, # of connection points: 2
#     Edge 52, Type (0, 0), BuildingBlock: EZIPEK_clean_linker_0, # of connection points: 2
#     Edge 53, Type (0, 0), BuildingBlock: EZIPEK_clean_linker_0, # of connection points: 2
#     Edge 54, Type (0, 0), BuildingBlock: EZIPEK_clean_linker_0, # of connection points: 2
#     Edge 55, Type (0, 0), BuildingBlock: EZIPEK_clean_linker_0, # of connection points: 2
#     Edge 56, Type (0, 0), BuildingBlock: EZIPEK_clean_linker_0, # of connection points: 2
#     Edge 57, Type (0, 0), BuildingBlock: EZIPEK_clean_linker_0, # of connection points: 2
#     Edge 58, Type (0, 0), BuildingBlock: EZIPEK_clean_linker_0, # of connection points: 2
#     Edge 59, Type (0, 0), BuildingBlock: EZIPEK_clean_linker_0, # of connection points: 2
#     Edge 60, Type (0, 0), BuildingBlock: EZIPEK_clean_linker_0, # of connection points: 2
#     Edge 61, Type (0, 0), BuildingBlock: EZIPEK_clean_linker_0, # of connection points: 2
#     Edge 62, Type (0, 0), BuildingBlock: EZIPEK_clean_linker_0, # of connection points: 2
#     Edge 63, Type (0, 0), BuildingBlock: EZIPEK_clean_linker_0, # of connection points: 2
#     Edge 64, Type (0, 0), BuildingBlock: EZIPEK_clean_linker_0, # of connection points: 2
#     Edge 65, Type (0, 0), BuildingBlock: EZIPEK_clean_linker_0, # of connection points: 2
#     Edge 66, Type (0, 0), BuildingBlock: EZIPEK_clean_linker_0, # of connection points: 2
#     Edge 67, Type (0, 0), BuildingBlock: EZIPEK_clean_linker_0, # of connection points: 2
#     Edge 68, Type (0, 0), BuildingBlock: EZIPEK_clean_linker_0, # of connection points: 2
#     Edge 69, Type (0, 0), BuildingBlock: EZIPEK_clean_linker_0, # of connection points: 2
#     Edge 70, Type (0, 0), BuildingBlock: EZIPEK_clean_linker_0, # of connection points: 2
#     Edge 71, Type (0, 0), BuildingBlock: EZIPEK_clean_linker_0, # of connection points: 2
# Relax obj value: 0.189
# Max RMSD: 0.259
# Mean RMSD: 0.259
data_MOF--net-wfv--node1-NUHQUE_clean_sbu_2--edge1-EZIPEK_clean_linker_0
_symmetry_space_group_name_H-M    P1
_symmetry_Int_Tables_number       1
_symmetry_cell_setting            triclinic
loop_
_symmetry_equiv_pos_as_xyz
'x, y, z'
_cell_length_a     37.086364
_cell_length_b     37.214183
_cell_length_c     31.472966
_cell_angle_alpha  90.140234
_cell_angle_beta   90.180347
_cell_angle_gamma 89.958515
loop_
_atom_site_label
_atom_site_type_symbol
_atom_site_fract_x
_atom_site_fract_y
_atom_site_fract_z
_atom_type_partial_charge
O0 O 0.64898 0.14563 0.09689 0.0
Tb1 Tb 0.69916 0.11904 0.11385 0.0
Eu2 Eu 0.71331 -0.00144 0.11116 0.0
C3 C 0.63193 0.138 0.06141 0.0
O4 O 0.64031 0.10837 0.04098 0.0
C5 C 0.74324 0.05942 0.06141 0.0
O6 O 0.75206 0.96061 0.1426 0.0
C7 C 0.66152 0.96714 0.06941 0.0
C8 C 0.78231 0.97264 0.15891 0.0
O9 O 0.78755 0.00744 0.15878 0.0
C10 C 0.70589 0.06277 0.18217 0.0
C11 C 0.62269 0.95801 0.07234 0.0
C12 C 0.59579 0.97803 0.05082 0.0
C13 C 0.55976 0.96569 0.04993 0.0
C14 C 0.55106 0.93328 0.06977 0.0
C15 C 0.57764 0.91337 0.09062 0.0
C16 C 0.61289 0.92613 0.09292 0.0
O17 O 0.7134 0.06955 0.08111 0.0
O18 O 0.75079 0.02528 0.0653 0.0
O19 O 0.73164 0.15744 0.14844 0.0
O20 O 0.74 0.15124 0.08247 0.0
C21 C 0.75027 0.16863 0.11629 0.0
O22 O 0.69005 0.04102 0.15463 0.0
O23 O 0.69888 0.09709 0.17786 0.0
O24 O 0.68358 0.95037 0.09547 0.0
O25 O 0.67045 0.0008 0.06325 0.0
H26 H 0.60284 0.00236 0.03394 0.0
H27 H 0.52371 0.92301 0.06797 0.0
H28 H 0.63302 0.90976 0.10876 0.0
O29 O 0.3779 0.64368 0.07309 0.0
Tb30 Tb 0.39418 0.68901 0.11324 0.0
Eu31 Eu 0.47822 0.7109 0.09688 0.0
C32 C 0.37123 0.64702 0.0321 0.0
O33 O 0.38707 0.67269 0.01074 0.0
C34 C 0.41984 0.74421 0.03904 0.0
O35 O 0.52352 0.74949 0.10687 0.0
C36 C 0.50052 0.64611 0.09247 0.0
C37 C 0.51498 0.78124 0.12189 0.0
O38 O 0.48066 0.78938 0.12497 0.0
C39 C 0.44547 0.70641 0.18648 0.0
C40 C 0.51597 0.61001 0.09177 0.0
C41 C 0.49789 0.58178 0.07122 0.0
C42 C 0.51598 0.5493 0.06359 0.0
C43 C 0.5515 0.54482 0.07762 0.0
C44 C 0.56941 0.57295 0.09818 0.0
C45 C 0.55152 0.60526 0.10589 0.0
O46 O 0.3962 0.73458 0.0683 0.0
O47 O 0.45271 0.73173 0.03843 0.0
O48 O 0.34328 0.67141 0.14034 0.0
O49 O 0.35547 0.72701 0.13948 0.0
C50 C 0.3315 0.70325 0.14981 0.0
O51 O 0.45938 0.72932 0.1603 0.0
O52 O 0.42719 0.67959 0.17016 0.0
O53 O 0.52174 0.67406 0.08697 0.0
O54 O 0.46622 0.65304 0.09998 0.0
H55 H 0.47104 0.58589 0.05836 0.0
H56 H 0.56601 0.52033 0.06994 0.0
H57 H 0.56612 0.62739 0.12039 0.0
O58 O 0.84538 0.36775 0.08716 0.0
Tb59 Tb 0.79631 0.38055 0.12204 0.0
Eu60 Eu 0.78925 0.49552 0.10064 0.0
C61 C 0.84469 0.36483 0.04554 0.0
O62 O 0.81973 0.38231 0.02441 0.0
C63 C 0.75035 0.42995 0.05894 0.0
O64 O 0.74422 0.53575 0.10716 0.0
C65 C 0.84734 0.5257 0.07233 0.0
C66 C 0.71153 0.5242 0.11472 0.0
O67 O 0.70591 0.48972 0.1198 0.0
C68 C 0.79999 0.43813 0.18686 0.0
C69 C 0.88647 0.5326 0.07771 0.0
C70 C 0.91334 0.51217 0.05687 0.0
C71 C 0.94934 0.52475 0.05551 0.0
C72 C 0.95798 0.55781 0.07446 0.0
C73 C 0.93123 0.57817 0.09447 0.0
C74 C 0.89625 0.56496 0.0974 0.0
O75 O 0.75557 0.41874 0.09832 0.0
O76 O 0.75981 0.46332 0.05049 0.0
O77 O 0.75855 0.33974 0.10121 0.0
O78 O 0.78869 0.33119 0.15719 0.0
C79 C 0.76463 0.31735 0.13197 0.0
O80 O 0.80025 0.45239 0.14872 0.0
O81 O 0.80399 0.40333 0.18539 0.0
O82 O 0.82578 0.54023 0.10075 0.0
O83 O 0.83586 0.49459 0.05771 0.0
H84 H 0.90612 0.48783 0.03991 0.0
H85 H 0.98488 0.56883 0.07105 0.0
H86 H 0.87581 0.58213 0.11141 0.0
O87 O 0.16134 0.85399 0.10834 0.0
Tb88 Tb 0.13675 0.80411 0.12738 0.0
Eu89 Eu 0.01495 0.78634 0.1161 0.0
C90 C 0.15176 0.86866 0.07227 0.0
O91 O 0.1214 0.85854 0.05427 0.0
C92 C 0.07964 0.76214 0.06589 0.0
O93 O 0.99099 0.73204 0.13228 0.0
C94 C 0.96922 0.83255 0.08639 0.0
C95 C 0.95604 0.72668 0.12896 0.0
O96 O 0.99085 0.73114 0.13253 0.0
C97 C 0.07653 0.80702 0.19117 0.0
C98 C 0.95909 0.87108 0.08872 0.0
C99 C 0.97623 0.89777 0.06403 0.0
C100 C 0.96335 0.93349 0.06445 0.0
C101 C 0.93286 0.94206 0.08865 0.0
C102 C 0.91525 0.91556 0.11226 0.0
C103 C 0.929 0.8806 0.11319 0.0
O104 O 0.08925 0.78798 0.09206 0.0
O105 O 0.04489 0.75684 0.06417 0.0
O106 O 0.18103 0.77065 0.10576 0.0
O107 O 0.16542 0.76895 0.17084 0.0
C108 C 0.18867 0.75776 0.1432 0.0
O109 O 0.05836 0.81358 0.15581 0.0
O110 O 0.11126 0.81328 0.18835 0.0
O111 O 0.96324 0.81308 0.12063 0.0
O112 O -0.00096 0.82372 0.06627 0.0
H113 H -0.00099 0.89089 0.04412 0.0
H114 H 0.92205 0.96915 0.08789 0.0
H115 H 0.91478 0.86034 0.13132 0.0
O116 O 0.64529 0.35146 0.41583 0.0
Tb117 Tb 0.69517 0.37161 0.38872 0.0
Eu118 Eu 0.7147 0.49573 0.40058 0.0
C119 C 0.64558 0.34545 0.45717 0.0
O120 O 0.66951 0.36241 0.48063 0.0
C121 C 0.73669 0.42845 0.44908 0.0
O122 O 0.76337 0.53095 0.39298 0.0
C123 C 0.66083 0.53238 0.42911 0.0
C124 C 0.78499 0.53199 0.36004 0.0
O125 O 0.77528 0.51721 0.32398 0.0
C126 C 0.71113 0.43402 0.32698 0.0
C127 C 0.62145 0.53808 0.42591 0.0
C128 C 0.59608 0.51584 0.44643 0.0
C129 C 0.56066 0.5285 0.45409 0.0
C130 C 0.55038 0.56177 0.43654 0.0
C131 C 0.5742 0.58141 0.41127 0.0
C132 C 0.60965 0.56975 0.4066 0.0
O133 O 0.71082 0.41972 0.42251 0.0
O134 O 0.74308 0.463 0.45147 0.0
O135 O 0.73315 0.33362 0.4157 0.0
O136 O 0.71077 0.32397 0.35457 0.0
C137 C 0.73216 0.31121 0.38368 0.0
O138 O 0.69359 0.45341 0.35519 0.0
O139 O 0.707 0.3988 0.32836 0.0
O140 O 0.68037 0.54243 0.39634 0.0
O141 O 0.67311 0.50357 0.44857 0.0
H142 H 0.60429 0.48954 0.45744 0.0
H143 H 0.52339 0.57214 0.44172 0.0
H144 H 0.62847 0.58648 0.38926 0.0
O145 O 0.13388 0.62835 0.41871 0.0
Tb146 Tb 0.10847 0.67626 0.3909 0.0
Eu147 Eu 0.01331 0.70318 0.39865 0.0
C148 C 0.13485 0.62353 0.46032 0.0
O149 O 0.11026 0.63873 0.48419 0.0
C150 C 0.07672 0.73161 0.45657 0.0
O151 O 0.97277 0.74723 0.39074 0.0
C152 C 0.99203 0.64831 0.44187 0.0
C153 C 0.97715 0.7703 0.35955 0.0
O154 O 0.00176 0.7641 0.33072 0.0
C155 C 0.05364 0.69442 0.31419 0.0
C156 C 0.97717 0.61207 0.4339 0.0
C157 C 0.99432 0.58224 0.45246 0.0
C158 C 0.97966 0.54774 0.44777 0.0
C159 C 0.94882 0.54281 0.42302 0.0
C160 C 0.93008 0.57239 0.40647 0.0
C161 C 0.94459 0.60703 0.41133 0.0
O162 O 0.09092 0.6995 0.45204 0.0
O163 O 0.05117 0.74166 0.43065 0.0
O164 O 0.1424 0.7238 0.39036 0.0
O165 O 0.16038 0.67715 0.35891 0.0
C166 C 0.16825 0.71028 0.36768 0.0
O167 O 0.02171 0.6908 0.33085 0.0
O168 O 0.08131 0.67539 0.32837 0.0
O169 O 0.97102 0.67592 0.43317 0.0
O170 O 0.02607 0.65333 0.43145 0.0
H171 H 0.01802 0.58602 0.47223 0.0
H172 H 0.93711 0.51615 0.42062 0.0
H173 H 0.92963 0.62991 0.39937 0.0
O174 O 0.84867 0.15277 0.41701 0.0
Tb175 Tb 0.80569 0.11734 0.39452 0.0
Eu176 Eu 0.78182 0.99377 0.38671 0.0
C177 C 0.86394 0.14725 0.45426 0.0
O178 O 0.86228 0.11478 0.47048 0.0
C179 C 0.76728 0.05602 0.44766 0.0
O180 O 0.73065 0.96396 0.37253 0.0
C181 C 0.83379 0.95257 0.41061 0.0
C182 C 0.70154 0.9808 0.35981 0.0
O183 O 0.70345 0.01494 0.34963 0.0
C184 C 0.80222 0.06383 0.32055 0.0
C185 C 0.87324 0.94982 0.40997 0.0
C186 C 0.89619 0.97317 0.43289 0.0
C187 C 0.93352 0.96613 0.43436 0.0
C188 C 0.94761 0.93731 0.41118 0.0
C189 C 0.92452 0.91307 0.39078 0.0
C190 C 0.88768 0.91982 0.38944 0.0
O191 O 0.79663 0.06693 0.42796 0.0
O192 O 0.75785 0.02239 0.44254 0.0
O193 O 0.76356 0.14844 0.36388 0.0
O194 O 0.76738 0.14899 0.43054 0.0
C195 C 0.75007 0.16225 0.39828 0.0
O196 O 0.80161 0.04435 0.35518 0.0
O197 O 0.8099 0.09793 0.32824 0.0
O198 O 0.81754 0.94919 0.37354 0.0
O199 O 0.81892 0.97637 0.43605 0.0
H200 H 0.88515 0.99515 0.45137 0.0
H201 H 0.97614 0.93105 0.4136 0.0
H202 H 0.8699 0.90015 0.37485 0.0
O203 O 0.33557 0.84236 0.40551 0.0
Tb204 Tb 0.36431 0.79244 0.3929 0.0
Eu205 Eu 0.4873 0.78112 0.40671 0.0
C206 C 0.33497 0.85733 0.44335 0.0
O207 O 0.35703 0.84559 0.47286 0.0
C208 C 0.42226 0.74945 0.45046 0.0
O209 O 0.52466 0.74076 0.37735 0.0
C210 C 0.52176 0.83265 0.44556 0.0
C211 C 0.51229 0.71114 0.36006 0.0
O212 O 0.47731 0.70674 0.35882 0.0
C213 C 0.42665 0.7891 0.33215 0.0
C214 C 0.52836 0.87198 0.44199 0.0
C215 C 0.50675 0.89769 0.46338 0.0
C216 C 0.51503 0.93465 0.46043 0.0
C217 C 0.54361 0.94568 0.43494 0.0
C218 C 0.56702 0.92053 0.41691 0.0
C219 C 0.55922 0.88385 0.42014 0.0
O220 O 0.41215 0.77896 0.43013 0.0
O221 O 0.45719 0.74379 0.45064 0.0
O222 O 0.32878 0.7593 0.35437 0.0
O223 O 0.33084 0.75106 0.42068 0.0
C224 C 0.31582 0.74045 0.38539 0.0
O225 O 0.44469 0.80429 0.36356 0.0
O226 O 0.3917 0.79437 0.33199 0.0
O227 O 0.53601 0.8123 0.41583 0.0
O228 O 0.48963 0.82165 0.45726 0.0
H229 H 0.48457 0.88911 0.48323 0.0
H230 H 0.55015 0.97407 0.43309 0.0
H231 H 0.57805 0.8646 0.40684 0.0
O232 O 0.36379 0.87754 0.91073 0.0
Tb233 Tb 0.31191 0.89624 0.88611 0.0
Eu234 Eu 0.27696 0.99658 0.91358 0.0
C235 C 0.36315 0.86042 0.94738 0.0
O236 O 0.33378 0.86151 0.97028 0.0
C237 C 0.2569 0.92172 0.9551 0.0
O238 O 0.22891 0.03375 0.91582 0.0
C239 C 0.3338 0.01423 0.95717 0.0
C240 C 0.20972 0.03984 0.88123 0.0
O241 O 0.22201 0.02922 0.84418 0.0
C242 C 0.28294 0.95786 0.82944 0.0
C243 C 0.37046 0.02904 0.95034 0.0
C244 C 0.40067 0.01201 0.96881 0.0
C245 C 0.43533 0.02709 0.96483 0.0
C246 C 0.43964 0.05925 0.9425 0.0
C247 C 0.40979 0.07679 0.92482 0.0
C248 C 0.3754 0.0614 0.928 0.0
O249 O 0.29071 0.91269 0.94841 0.0
O250 O 0.24363 0.95125 0.93866 0.0
O251 O 0.31776 0.84527 0.85245 0.0
O252 O 0.26728 0.8587 0.87784 0.0
C253 C 0.28478 0.83433 0.85663 0.0
O254 O 0.28712 0.99012 0.84514 0.0
O255 O 0.30957 0.93473 0.83401 0.0
O256 O 0.30634 0.03609 0.95071 0.0
O257 O 0.32785 0.98126 0.94363 0.0
H258 H 0.39718 0.98757 0.98703 0.0
H259 H 0.46609 0.07157 0.94065 0.0
H260 H 0.3525 0.0755 0.91453 0.0
O261 O 0.63013 0.35449 0.91911 0.0
Tb262 Tb 0.60975 0.30523 0.88745 0.0
Eu263 Eu 0.5107 0.27894 0.89749 0.0
C264 C 0.64686 0.35141 0.95638 0.0
O265 O 0.64524 0.32076 0.97657 0.0
C266 C 0.57705 0.25115 0.95288 0.0
O267 O 0.46224 0.2436 0.88953 0.0
C268 C 0.49532 0.34095 0.93026 0.0
C269 C 0.4687 0.20975 0.88062 0.0
O270 O 0.50234 0.19998 0.87463 0.0
C271 C 0.55541 0.28535 0.81231 0.0
C272 C 0.47573 0.37529 0.92584 0.0
C273 C 0.48706 0.40384 0.9517 0.0
C274 C 0.4677 0.43604 0.9526 0.0
C275 C 0.43693 0.44006 0.92757 0.0
C276 C 0.42482 0.41194 0.90162 0.0
C277 C 0.44455 0.37939 0.90028 0.0
O278 O 0.58958 0.28389 0.94798 0.0
O279 O 0.54712 0.24163 0.93377 0.0
O280 O 0.66474 0.31172 0.86594 0.0
O281 O 0.6443 0.25869 0.87254 0.0
C282 C 0.67256 0.27789 0.86289 0.0
O283 O 0.52476 0.27559 0.82934 0.0
O284 O 0.57608 0.31063 0.82979 0.0
O285 O 0.47594 0.31189 0.93664 0.0
O286 O 0.52435 0.33555 0.907 0.0
H287 H 0.51058 0.40079 0.97198 0.0
H288 H 0.42185 0.46505 0.92908 0.0
H289 H 0.43511 0.35729 0.88073 0.0
O290 O 0.17547 0.66357 0.93785 0.0
Tb291 Tb 0.21555 0.63197 0.90313 0.0
Eu292 Eu 0.21955 0.50373 0.90502 0.0
C293 C 0.15087 0.65259 0.96482 0.0
O294 O 0.14423 0.61809 0.96885 0.0
C295 C 0.25224 0.56561 0.95811 0.0
O296 O 0.26155 0.4684 0.87415 0.0
C297 C 0.16764 0.46469 0.93643 0.0
C298 C 0.29499 0.4788 0.86853 0.0
O299 O 0.30351 0.51206 0.87847 0.0
C300 C 0.21373 0.57053 0.83928 0.0
C301 C 0.1286 0.45525 0.93368 0.0
C302 C 0.10181 0.4739 0.95692 0.0
C303 C 0.06593 0.46106 0.95773 0.0
C304 C 0.05715 0.42936 0.93597 0.0
C305 C 0.08354 0.41032 0.91361 0.0
C306 C 0.11879 0.42372 0.9117 0.0
O307 O 0.22738 0.57975 0.93287 0.0
O308 O 0.25489 0.53044 0.95464 0.0
O309 O 0.22651 0.67331 0.85711 0.0
O310 O 0.26451 0.66477 0.90694 0.0
C311 C 0.25646 0.68456 0.87389 0.0
O312 O 0.19719 0.5496 0.86672 0.0
O313 O 0.20636 0.60504 0.84213 0.0
O314 O 0.18813 0.45468 0.90456 0.0
O315 O 0.17753 0.49557 0.95309 0.0
H316 H 0.10884 0.49761 0.97517 0.0
H317 H 0.02996 0.41873 0.93779 0.0
H318 H 0.13904 0.40814 0.89504 0.0
O319 O 0.85027 0.14582 0.9226 0.0
Tb320 Tb 0.87548 0.19253 0.89127 0.0
Eu321 Eu 0.98039 0.21278 0.90966 0.0
C322 C 0.84482 0.14485 0.96426 0.0
O323 O 0.86061 0.1683 0.98916 0.0
C324 C 0.91138 0.24555 0.95524 0.0
O325 O 0.02825 0.24818 0.89783 0.0
C326 C 0.9939 0.15282 0.94904 0.0
C327 C 0.02309 0.27581 0.87248 0.0
O328 O 0.99054 0.28009 0.85667 0.0
C329 C 0.93665 0.21148 0.82604 0.0
C330 C 0.01282 0.11773 0.94552 0.0
C331 C -0.00111 0.08785 0.96749 0.0
C332 C 0.01798 0.05516 0.96866 0.0
C333 C 0.05125 0.05257 0.94806 0.0
C334 C 0.06568 0.08193 0.92594 0.0
C335 C 0.04595 0.11432 0.92391 0.0
O336 O 0.89983 0.21257 0.95029 0.0
O337 O 0.94352 0.25346 0.94068 0.0
O338 O 0.84587 0.24226 0.87948 0.0
O339 O 0.82277 0.1931 0.86036 0.0
C340 C 0.81822 0.2277 0.86065 0.0
O341 O 0.96961 0.20784 0.84035 0.0
O342 O 0.91207 0.18726 0.8367 0.0
O343 O 0.01412 0.18178 0.95251 0.0
O344 O 0.96465 0.15779 0.92587 0.0
H345 H 0.97363 0.09021 0.98453 0.0
H346 H 0.06631 0.02761 0.94982 0.0
H347 H 0.05706 0.13709 0.90701 0.0
O348 O 0.33821 0.65196 0.59342 0.0
Tb349 Tb 0.29269 0.63596 0.63413 0.0
Eu350 Eu 0.29166 0.51613 0.6242 0.0
C351 C 0.34191 0.64538 0.5524 0.0
O352 O 0.32502 0.61804 0.53498 0.0
C353 C 0.25243 0.58033 0.57231 0.0
O354 O 0.24809 0.47523 0.63447 0.0
C355 C 0.35363 0.48826 0.60788 0.0
C356 C 0.21611 0.48553 0.64739 0.0
O357 O 0.21202 0.51775 0.66387 0.0
C358 C 0.29974 0.58004 0.70046 0.0
C359 C 0.38906 0.47234 0.59853 0.0
C360 C 0.41405 0.49065 0.57279 0.0
C361 C 0.44669 0.47394 0.56134 0.0
C362 C 0.45447 0.43963 0.57694 0.0
C363 C 0.43041 0.42183 0.60354 0.0
C364 C 0.39769 0.43816 0.6145 0.0
O365 O 0.25259 0.59666 0.60972 0.0
O366 O 0.26613 0.54739 0.56919 0.0
O367 O 0.24717 0.67247 0.62658 0.0
O368 O 0.29213 0.68897 0.66339 0.0
C369 C 0.26092 0.69858 0.64873 0.0
O370 O 0.29859 0.56545 0.66268 0.0
O371 O 0.30191 0.61491 0.69793 0.0
O372 O 0.33859 0.48553 0.64555 0.0
O373 O 0.33462 0.50526 0.57881 0.0
H374 H 0.40792 0.51736 0.56113 0.0
H375 H 0.47943 0.42644 0.56793 0.0
H376 H 0.37857 0.42373 0.63407 0.0
O377 O 0.82987 0.33127 0.584 0.0
Tb378 Tb 0.86656 0.29902 0.62229 0.0
Eu379 Eu 0.99292 0.28359 0.61209 0.0
C380 C 0.83999 0.35488 0.55554 0.0
O381 O 0.87444 0.36149 0.5499 0.0
C382 C 0.92668 0.25684 0.56317 0.0
O383 O 0.02693 0.23584 0.62933 0.0
C384 C 0.03503 0.33199 0.58066 0.0
C385 C 0.01295 0.2036 0.63028 0.0
O386 O 0.97793 0.19977 0.62617 0.0
C387 C 0.92822 0.31084 0.68344 0.0
C388 C 0.04173 0.37106 0.57935 0.0
C389 C 0.02061 0.39484 0.55475 0.0
C390 C 0.03101 0.43108 0.55094 0.0
C391 C 0.06161 0.44351 0.57229 0.0
C392 C 0.08267 0.42002 0.59621 0.0
C393 C 0.0727 0.38406 0.59999 0.0
O394 O 0.91567 0.28039 0.59158 0.0
O395 O 0.96178 0.25304 0.56137 0.0
O396 O 0.84192 0.2466 0.62964 0.0
O397 O 0.83449 0.28641 0.67733 0.0
C398 C 0.82717 0.25361 0.66644 0.0
O399 O 0.948 0.31157 0.64861 0.0
O400 O 0.89496 0.32186 0.67688 0.0
O401 O 0.04085 0.31622 0.61743 0.0
O402 O 0.00732 0.31881 0.55957 0.0
H403 H 0.99724 0.38517 0.53744 0.0
H404 H 0.0702 0.47119 0.5684 0.0
H405 H 0.0902 0.36585 0.61732 0.0
O406 O 0.12599 0.86048 0.59353 0.0
Tb407 Tb 0.17294 0.89313 0.61093 0.0
Eu408 Eu 0.20052 0.9783 0.60014 0.0
C409 C 0.11557 0.85657 0.55369 0.0
O410 O 0.12548 0.88052 0.52555 0.0
C411 C 0.21709 0.92173 0.5272 0.0
O412 O 0.23392 0.02839 0.59749 0.0
C413 C 0.13107 0.98689 0.59983 0.0
C414 C 0.26391 0.02715 0.61991 0.0
O415 O 0.26937 -0.00021 0.64525 0.0
C416 C 0.19795 0.93874 0.68213 0.0
C417 C 0.10197 0.0106 0.58421 0.0
C418 C 0.07436 0.99624 0.5585 0.0
C419 C 0.04482 0.01767 0.54676 0.0
C420 C 0.04239 0.05292 0.56141 0.0
C421 C 0.06958 0.06757 0.58687 0.0
C422 C 0.09973 0.04671 0.59761 0.0
O423 O 0.19435 0.89914 0.54573 0.0
O424 O 0.22533 0.95286 0.5439 0.0
O425 O 0.18152 0.84184 0.64165 0.0
O426 O 0.22707 0.87355 0.62609 0.0
C427 C 0.2164 0.84365 0.64321 0.0
O428 O 0.22198 0.94685 0.65397 0.0
O429 O 0.16692 0.9266 0.66792 0.0
O430 O 0.14782 0.96635 0.57208 0.0
O431 O 0.15252 0.00013 0.62923 0.0
H432 H 0.07564 0.96851 0.54794 0.0
H433 H 0.01923 0.06918 0.55265 0.0
H434 H 0.1207 0.05846 0.61726 0.0
O435 O 0.66523 0.14865 0.57192 0.0
Tb436 Tb 0.63611 0.19205 0.60262 0.0
Eu437 Eu 0.51021 0.20573 0.60479 0.0
C438 C 0.65448 0.12919 0.53954 0.0
O439 O 0.62051 0.12981 0.52756 0.0
C440 C 0.57095 0.23205 0.5464 0.0
O441 O 0.48197 0.25336 0.63324 0.0
C442 C 0.46528 0.15827 0.57559 0.0
C443 C 0.49571 0.28552 0.62819 0.0
O444 O 0.52824 0.28885 0.61246 0.0
C445 C 0.57821 0.19021 0.6688 0.0
C446 C 0.45453 0.11999 0.5753 0.0
C447 C 0.47563 0.09203 0.55745 0.0
C448 C 0.46162 0.0567 0.55528 0.0
C449 C 0.42744 0.04965 0.57182 0.0
C450 C 0.40587 0.07755 0.58729 0.0
C451 C 0.41957 0.11238 0.58934 0.0
O452 O 0.58492 0.21024 0.57516 0.0
O453 O 0.53606 0.23635 0.55095 0.0
O454 O 0.66857 0.20279 0.65743 0.0
O455 O 0.67606 0.23515 0.60208 0.0
C456 C 0.68747 0.22824 0.64076 0.0
O457 O 0.55615 0.17898 0.6388 0.0
O458 O 0.61197 0.18116 0.66414 0.0
O459 O 0.46031 0.17604 0.6113 0.0
O460 O 0.49416 0.16828 0.55466 0.0
H461 H 0.50179 0.0978 0.54385 0.0
H462 H 0.41624 0.02279 0.56912 0.0
H463 H 0.40217 0.13397 0.6002 0.0
C464 C 0.74692 0.26294 0.09076 0.0
C465 C 0.75671 0.27847 0.13025 0.0
C466 C 0.77524 0.21946 0.15651 0.0
C467 C 0.76625 0.20474 0.11645 0.0
N468 N 0.75939 0.21465 0.04152 0.0
N469 N 0.77028 0.27033 0.20448 0.0
C470 C 0.75743 0.22729 0.08215 0.0
C471 C 0.76844 0.2564 0.16432 0.0
N472 N 0.72542 0.28113 0.06286 0.0
N473 N 0.79023 0.19764 0.1866 0.0
H474 H 0.76067 0.29599 0.21169 0.0
H475 H 0.77761 0.25567 0.23122 0.0
H476 H 0.79628 0.1708 0.18001 0.0
H477 H 0.7994 0.2064 0.21612 0.0
H478 H 0.71592 0.26975 0.03468 0.0
H479 H 0.71279 0.30524 0.07085 0.0
H480 H 0.75404 0.23045 0.01496 0.0
H481 H 0.77088 0.18972 0.03462 0.0
C482 C 0.23278 0.71156 0.12305 0.0
C483 C 0.22193 0.73768 0.15283 0.0
C484 C 0.28082 0.73306 0.18817 0.0
C485 C 0.29311 0.71201 0.1537 0.0
N486 N 0.28242 0.68793 0.08337 0.0
N487 N 0.23664 0.77591 0.21318 0.0
C488 C 0.2695 0.70256 0.12007 0.0
C489 C 0.24588 0.74877 0.18593 0.0
N490 N 0.20789 0.69559 0.09718 0.0
N491 N 0.30274 0.73836 0.22259 0.0
H492 H 0.21173 0.78866 0.21322 0.0
H493 H 0.25473 0.7878 0.23428 0.0
H494 H 0.32857 0.72734 0.22464 0.0
H495 H 0.29434 0.75096 0.25042 0.0
H496 H 0.21395 0.67407 0.07717 0.0
H497 H 0.18049 0.70126 0.09965 0.0
H498 H 0.26643 0.68507 0.05642 0.0
H499 H 0.30956 0.68273 0.0779 0.0
C500 C 0.74972 0.25722 0.42615 0.0
C501 C 0.74123 0.2725 0.38617 0.0
C502 C 0.72429 0.21324 0.35895 0.0
C503 C 0.73354 0.19829 0.39859 0.0
N504 N 0.7397 0.20729 0.47379 0.0
N505 N 0.73254 0.26312 0.31097 0.0
C506 C 0.74117 0.22079 0.43358 0.0
C507 C 0.73164 0.24999 0.35144 0.0
N508 N 0.76849 0.27657 0.45567 0.0
N509 N 0.70822 0.19205 0.32893 0.0
H510 H 0.74269 0.28859 0.3041 0.0
H511 H 0.72781 0.24744 0.2841 0.0
H512 H 0.70151 0.16533 0.33527 0.0
H513 H 0.69821 0.20177 0.30022 0.0
H514 H 0.77757 0.26582 0.4843 0.0
H515 H 0.77952 0.30157 0.44873 0.0
H516 H 0.74354 0.22289 0.50095 0.0
H517 H 0.7301 0.18142 0.47976 0.0
C518 C 0.21951 0.73782 0.40489 0.0
C519 C 0.20558 0.7237 0.36674 0.0
C520 C 0.26715 0.71133 0.34249 0.0
C521 C 0.28002 0.72348 0.38243 0.0
N522 N 0.26646 0.72945 0.45652 0.0
N523 N 0.21528 0.70144 0.29601 0.0
C524 C 0.25565 0.73091 0.41526 0.0
C525 C 0.22926 0.71138 0.33448 0.0
N526 N 0.19865 0.75829 0.43099 0.0
N527 N 0.29125 0.6982 0.31369 0.0
H528 H 0.18778 0.70373 0.28927 0.0
H529 H 0.2306 0.69322 0.27014 0.0
H530 H 0.31867 0.69625 0.32082 0.0
H531 H 0.28428 0.68705 0.2845 0.0
H532 H 0.2079 0.76796 0.45997 0.0
H533 H 0.1744 0.76972 0.42108 0.0
H534 H 0.248 0.73106 0.4811 0.0
H535 H 0.29179 0.71988 0.46545 0.0
C536 C 0.29554 0.7711 0.82964 0.0
C537 C 0.27307 0.79634 0.851 0.0
C538 C 0.24401 0.74817 0.8899 0.0
C539 C 0.26647 0.72263 0.86946 0.0
N540 N 0.3087 0.70819 0.81418 0.0
N541 N 0.21466 0.80564 0.88261 0.0
C542 C 0.29091 0.7336 0.83754 0.0
C543 C 0.24372 0.78395 0.87533 0.0
N544 N 0.32039 0.783 0.80105 0.0
N545 N 0.22293 0.73834 0.92343 0.0
H546 H 0.21156 0.83035 0.86752 0.0
H547 H 0.19147 0.79689 0.89809 0.0
H548 H 0.22337 0.7126 0.93626 0.0
H549 H 0.20807 0.75669 0.94127 0.0
H550 H 0.34067 0.76697 0.78832 0.0
H551 H 0.32014 0.80925 0.7895 0.0
H552 H 0.32418 0.71392 0.78753 0.0
H553 H 0.30656 0.68077 0.82052 0.0
C554 C 0.73685 0.28127 0.88498 0.0
C555 C 0.71008 0.26472 0.8593 0.0
C556 C 0.75698 0.22822 0.8253 0.0
C557 C 0.78335 0.24579 0.85094 0.0
N558 N 0.79854 0.301 0.88744 0.0
N559 N 0.69492 0.22698 0.79959 0.0
C560 C 0.77346 0.27626 0.87499 0.0
C561 C 0.72015 0.23936 0.82777 0.0
N562 N 0.72756 0.30014 0.92055 0.0
N563 N 0.76742 0.20163 0.79801 0.0
H564 H 0.66789 0.23469 0.80081 0.0
H565 H 0.70096 0.21097 0.77342 0.0
H566 H 0.79447 0.19683 0.79094 0.0
H567 H 0.74954 0.18467 0.78219 0.0
H568 H 0.74659 0.31001 0.94207 0.0
H569 H 0.70109 0.30198 0.93117 0.0
H570 H 0.79167 0.32455 0.90354 0.0
H571 H 0.82488 0.30079 0.87606 0.0
C572 C 0.24013 0.79335 0.68675 0.0
C573 C 0.23825 0.81102 0.64706 0.0
C574 C 0.24483 0.75436 0.60973 0.0
C575 C 0.24832 0.73614 0.64895 0.0
N576 N 0.25164 0.73796 0.72547 0.0
N577 N 0.2494 0.80894 0.57131 0.0
C578 C 0.24701 0.75564 0.68783 0.0
C579 C 0.24463 0.79197 0.60916 0.0
N580 N 0.23476 0.81283 0.72298 0.0
N581 N 0.24139 0.73633 0.57223 0.0
H582 H 0.25097 0.83675 0.56774 0.0
H583 H 0.25097 0.83675 0.56774 0.0
H584 H 0.2388 0.70871 0.56942 0.0
H585 H 0.23808 0.75 0.54376 0.0
H586 H 0.23205 0.80174 0.75311 0.0
H587 H 0.2328 0.8408 0.72227 0.0
H588 H 0.25377 0.75076 0.75474 0.0
H589 H 0.25392 0.71007 0.72736 0.0
C590 C 0.73321 0.2535 0.6907 0.0
C591 C 0.72482 0.23186 0.65474 0.0
C592 C 0.78471 0.20514 0.65796 0.0
C593 C 0.79557 0.23436 0.68253 0.0
N594 N 0.78063 0.2751 0.7385 0.0
N595 N 0.74259 0.18487 0.60506 0.0
C596 C 0.76963 0.25454 0.70497 0.0
C597 C 0.75036 0.20644 0.63904 0.0
N598 N 0.70676 0.27312 0.71011 0.0
N599 N 0.80813 0.17751 0.65136 0.0
H600 H 0.71827 0.18604 0.58867 0.0
H601 H 0.76159 0.16815 0.59075 0.0
H602 H 0.83385 0.17779 0.66504 0.0
H603 H 0.8006 0.15347 0.63678 0.0
H604 H 0.71084 0.28903 0.73689 0.0
H605 H 0.68007 0.27314 0.69945 0.0
H606 H 0.76388 0.29185 0.75609 0.0
H607 H 0.80721 0.2738 0.74957 0.0
C608 C 0.58071 0.17747 0.03689 0.0
C609 C 0.61788 0.16885 0.03668 0.0
C610 C 0.63 0.21895 0.98804 0.0
C611 C 0.59229 0.22645 0.98605 0.0
N612 N 0.53425 0.2211 0.0199 0.0
N613 N 0.6782 0.1796 0.01149 0.0
C614 C 0.56828 0.20793 0.01367 0.0
C615 C 0.64264 0.18951 0.01264 0.0
N616 N 0.55716 0.15581 0.05817 0.0
N617 N 0.65405 0.24025 0.96719 0.0
H618 H 0.68889 0.15896 0.02985 0.0
H619 H 0.6971 0.18995 0.99054 0.0
H620 H 0.64648 0.26077 0.94717 0.0
H621 H 0.6818 0.23979 0.97189 0.0
H622 H 0.52924 0.15789 0.05551 0.0
H623 H 0.56562 0.13391 0.07631 0.0
H624 H 0.51631 0.21082 0.04213 0.0
H625 H 0.52531 0.2451 0.0064 0.0
C626 C 0.30821 0.56875 0.00576 0.0
C627 C 0.2796 0.58655 0.98398 0.0
C628 C 0.30966 0.64434 0.99653 0.0
C629 C 0.34069 0.62614 0.01286 0.0
N630 N 0.37061 0.57022 0.02892 0.0
N631 N 0.24499 0.64065 0.98608 0.0
C632 C 0.34015 0.58811 0.01655 0.0
C633 C 0.27792 0.62433 0.98674 0.0
N634 N 0.30321 0.53478 0.02104 0.0
N635 N 0.30988 0.68076 0.99081 0.0
H636 H 0.22118 0.6258 0.98606 0.0
H637 H 0.24113 0.66801 0.99139 0.0
H638 H 0.33067 0.69758 1.00064 0.0
H639 H 0.28931 0.6945 0.97515 0.0
H640 H 0.32203 0.52141 0.03986 0.0
H641 H 0.27802 0.52241 0.02148 0.0
H642 H 0.37311 0.54234 0.02762 0.0
H643 H 0.39466 0.58332 0.03648 0.0
C644 C 0.83907 0.30492 0.0088 0.0
C645 C 0.86159 0.33242 0.02576 0.0
C646 C 0.91455 0.29499 0.01046 0.0
C647 C 0.89298 0.27141 0.98532 0.0
N648 N 0.83268 0.25143 0.96609 0.0
N649 N 0.92123 0.35418 0.04195 0.0
C650 C 0.85464 0.27542 0.98638 0.0
C651 C 0.89946 0.32748 0.02664 0.0
N652 N 0.80269 0.30604 0.01592 0.0
N653 N 0.94882 0.28507 0.02144 0.0
H654 H 0.91113 0.37815 0.0544 0.0
H655 H 0.94921 0.35371 0.03913 0.0
H656 H 0.95931 0.25977 0.01418 0.0
H657 H 0.96489 0.29965 0.04249 0.0
H658 H 0.78498 0.28543 0.00826 0.0
H659 H 0.78996 0.32634 0.03291 0.0
H660 H 0.80563 0.25617 0.95929 0.0
H661 H 0.84098 0.22663 0.95499 0.0
C662 C 0.2225 0.92978 0.02298 0.0
C663 C 0.23661 0.90623 0.99144 0.0
C664 C 0.19775 0.85761 0.01643 0.0
C665 C 0.18123 0.88199 0.04521 0.0
N666 N 0.17941 0.93941 0.08035 0.0
N667 N 0.24749 0.84506 0.96948 0.0
C668 C 0.19432 0.91755 0.0501 0.0
C669 C 0.22722 0.86931 0.99152 0.0
N670 N 0.23705 0.96339 0.02742 0.0
N671 N 0.18487 0.82328 0.01235 0.0
H672 H 0.27035 0.85235 0.95289 0.0
H673 H 0.24452 0.81732 0.97171 0.0
H674 H 0.16558 0.81219 0.03241 0.0
H675 H 0.19179 0.80618 0.98748 0.0
H676 H 0.22787 0.98297 0.04832 0.0
H677 H 0.26015 0.97135 0.01107 0.0
H678 H 0.18703 0.96583 0.08608 0.0
H679 H 0.15871 0.93094 0.10033 0.0
C680 C 0.64721 0.2851 0.49452 0.0
C681 C 0.62683 0.31325 0.47493 0.0
C682 C 0.57168 0.27859 0.48748 0.0
C683 C 0.5911 0.25489 0.51468 0.0
N684 N 0.64721 0.22381 0.52045 0.0
N685 N 0.56889 0.33715 0.45433 0.0
C686 C 0.62904 0.25478 0.51197 0.0
C687 C 0.58887 0.30987 0.47136 0.0
N688 N 0.68394 0.2871 0.49664 0.0
N689 N 0.53807 0.26931 0.47337 0.0
H690 H 0.58033 0.36056 0.44223 0.0
H691 H 0.54081 0.33782 0.45555 0.0
H692 H 0.52717 0.24387 0.47849 0.0
H693 H 0.52371 0.28418 0.45099 0.0
H694 H 0.6994 0.2707 0.51634 0.0
H695 H 0.69902 0.30596 0.48009 0.0
H696 H 0.6747 0.22031 0.51542 0.0
H697 H 0.63352 0.20004 0.5266 0.0
C698 C 0.16363 0.57755 0.50776 0.0
C699 C 0.16737 0.60841 0.48207 0.0
C700 C 0.22599 0.62137 0.51592 0.0
C701 C 0.22278 0.59021 0.54142 0.0
N702 N 0.18385 0.54426 0.5691 0.0
N703 N 0.20567 0.65538 0.45515 0.0
C704 C 0.1905 0.56943 0.53886 0.0
C705 C 0.19978 0.62873 0.4839 0.0
N706 N 0.13467 0.5554 0.50147 0.0
N707 N 0.25201 0.64606 0.52523 0.0
H708 H 0.18626 0.66393 0.43363 0.0
H709 H 0.23107 0.66631 0.44998 0.0
H710 H 0.26763 0.64433 0.5526 0.0
H711 H 0.25484 0.67047 0.50962 0.0
H712 H 0.13196 0.53031 0.51566 0.0
H713 H 0.11482 0.56071 0.47874 0.0
H714 H 0.15922 0.53131 0.57297 0.0
H715 H 0.20215 0.5391 0.59319 0.0
C716 C 0.86865 0.17811 0.52586 0.0
C717 C 0.87618 0.17839 0.48151 0.0
C718 C 0.90442 0.23785 0.49145 0.0
C719 C 0.90331 0.23347 0.53617 0.0
N720 N 0.89064 0.19466 0.59549 0.0
N721 N 0.90608 0.20803 0.42301 0.0
C722 C 0.88709 0.20233 0.55333 0.0
C723 C 0.89498 0.20841 0.46432 0.0
N724 N 0.84254 0.15615 0.54183 0.0
N725 N 0.91491 0.27009 0.47494 0.0
H726 H 0.90201 0.18625 0.40274 0.0
H727 H 0.92271 0.22774 0.41016 0.0
H728 H 0.92189 0.29194 0.49416 0.0
H729 H 0.91309 0.27618 0.4427 0.0
H730 H 0.83501 0.15668 0.57364 0.0
H731 H 0.82509 0.14125 0.52266 0.0
H732 H 0.8829 0.17003 0.60829 0.0
H733 H 0.90369 0.21178 0.61686 0.0
C734 C 0.29968 0.91412 0.45854 0.0
C735 C 0.30148 0.87605 0.45639 0.0
C736 C 0.23839 0.87247 0.4786 0.0
C737 C 0.23935 0.90897 0.49022 0.0
N738 N 0.26144 0.96665 0.46829 0.0
N739 N 0.27282 0.81853 0.46742 0.0
C740 C 0.26731 0.93072 0.47336 0.0
C741 C 0.27072 0.85511 0.46652 0.0
N742 N 0.32923 0.93414 0.44828 0.0
N743 N 0.20613 0.85521 0.47573 0.0
H744 H 0.29575 0.80419 0.4586 0.0
H745 H 0.25285 0.80293 0.48137 0.0
H746 H 0.1818 0.86887 0.4796 0.0
H747 H 0.20358 0.82948 0.46312 0.0
H748 H 0.33101 0.96172 0.4536 0.0
H749 H 0.35288 0.92264 0.43654 0.0
H750 H 0.27919 0.98367 0.45256 0.0
H751 H 0.23651 0.97835 0.47505 0.0
C752 C 0.40462 0.84065 1.00316 0.0
C753 C 0.39152 0.83515 0.96163 0.0
C754 C 0.40681 0.77105 0.96711 0.0
C755 C 0.41173 0.77554 0.01155 0.0
N756 N 0.41432 0.81504 0.07266 0.0
N757 N 0.38189 0.79565 0.90203 0.0
C758 C 0.41083 0.81055 0.02976 0.0
C759 C 0.39388 0.80058 0.94263 0.0
N760 N 0.41017 0.87497 0.01715 0.0
N761 N 0.41433 0.73874 0.9484 0.0
H762 H 0.37551 0.81715 0.88229 0.0
H763 H 0.37758 0.77048 0.8884 0.0
H764 H 0.42383 0.71669 0.96542 0.0
H765 H 0.41414 0.73467 0.91566 0.0
H766 H 0.42262 0.88115 0.04597 0.0
H767 H 0.40558 0.8971 0.99748 0.0
H768 H 0.41028 0.83954 0.08798 0.0
H769 H 0.41841 0.79376 0.09354 0.0
C770 C 0.68661 0.40476 0.04698 0.0
C771 C 0.7217 0.4133 0.03097 0.0
C772 C 0.70293 0.39057 0.96052 0.0
C773 C 0.66883 0.38042 0.97701 0.0
N774 N 0.62456 0.38742 0.03153 0.0
N775 N 0.76123 0.4178 0.97001 0.0
C776 C 0.65972 0.39043 0.01902 0.0
C777 C 0.7289 0.40772 0.987 0.0
N778 N 0.67867 0.4098 0.08893 0.0
N779 N 0.71188 0.38395 0.91939 0.0
H780 H 0.78148 0.43058 0.98735 0.0
H781 H 0.76765 0.41364 0.9381 0.0
H782 H 0.69446 0.3723 0.89726 0.0
H783 H 0.69446 0.3723 0.89726 0.0
H784 H 0.65612 0.39878 0.10357 0.0
H785 H 0.69496 0.42376 0.11009 0.0
H786 H 0.61454 0.39766 0.05994 0.0
H787 H 0.60441 0.37786 0.01118 0.0
C788 C 0.12101 0.71326 0.97328 0.0
C789 C 0.13254 0.68036 0.99202 0.0
C790 C 0.11229 0.70302 0.06173 0.0
C791 C 0.10412 0.73684 0.04333 0.0
N792 N 0.10672 0.77641 0.98325 0.0
N793 N 0.14524 0.64687 0.05621 0.0
C794 C 0.11072 0.74268 0.99966 0.0
C795 C 0.12972 0.67592 0.03687 0.0
N796 N 0.11743 0.71565 0.93015 0.0
N797 N 0.10303 0.69668 0.10303 0.0
H798 H 0.16058 0.62779 0.04015 0.0
H799 H 0.14635 0.64356 0.08902 0.0
H800 H 0.09258 0.71663 0.12287 0.0
H801 H 0.10392 0.67133 0.11691 0.0
H802 H 0.10595 0.73771 0.91492 0.0
H803 H 0.12194 0.69396 0.90981 0.0
H804 H 0.1146 0.78329 0.95258 0.0
H805 H 0.09887 0.79833 1.00181 0.0
C806 C 0.80622 0.08074 0.04514 0.0
C807 C 0.76844 0.08335 0.03737 0.0
C808 C 0.78078 0.12494 0.97835 0.0
C809 C 0.81847 0.11994 0.98432 0.0
N810 N 0.86683 0.08718 0.01734 0.0
N811 N 0.72063 0.10139 0.98971 0.0
C812 C 0.83105 0.09599 0.01591 0.0
C813 C 0.7559 0.10368 1.00205 0.0
N814 N 0.81852 0.06476 0.08139 0.0
N815 N 0.76862 0.15092 0.95124 0.0
H816 H 0.70173 0.08572 0.00555 0.0
H817 H 0.7108 0.11258 0.96166 0.0
H818 H 0.7858 0.1669 0.93319 0.0
H819 H 0.74163 0.15838 0.94889 0.0
H820 H 0.84538 0.06539 0.09111 0.0
H821 H 0.80133 0.05397 0.10401 0.0
H822 H 0.87725 0.06696 0.03666 0.0
H823 H 0.88558 0.09758 0.99596 0.0
C824 C 0.35279 0.70945 0.52753 0.0
C825 C 0.36125 0.6721 0.52481 0.0
C826 C 0.40191 0.68571 0.46538 0.0
C827 C 0.39755 0.72332 0.47238 0.0
N828 N 0.37361 0.77041 0.51698 0.0
N829 N 0.39893 0.62567 0.495 0.0
C830 C 0.37414 0.73506 0.50521 0.0
C831 C 0.38711 0.66047 0.49462 0.0
N832 N 0.32344 0.72063 0.55006 0.0
N833 N 0.41943 0.67397 0.42996 0.0
H834 H 0.38966 0.60666 0.51666 0.0
H835 H 0.42051 0.6166 0.47674 0.0
H836 H 0.42909 0.69169 0.40728 0.0
H837 H 0.42063 0.64707 0.42082 0.0
H838 H 0.31401 0.74701 0.54935 0.0
H839 H 0.30615 0.70296 0.56546 0.0
H840 H 0.35984 0.7798 0.5436 0.0
H841 H 0.38981 0.78979 0.50283 0.0
C842 C 0.78785 0.38395 0.45648 0.0
C843 C 0.75851 0.40282 0.47489 0.0
C844 C 0.78274 0.39068 0.54611 0.0
C845 C 0.81211 0.37164 0.52772 0.0
N846 N 0.83869 0.34357 0.46611 0.0
N847 N 0.72318 0.41688 0.53655 0.0
C848 C 0.8137 0.36657 0.48303 0.0
C849 C 0.75445 0.40375 0.51958 0.0
N850 N 0.7909 0.38257 0.41342 0.0
N851 N 0.78291 0.39814 0.58866 0.0
H852 H 0.70203 0.42646 0.51773 0.0
H853 H 0.71669 0.41511 0.56863 0.0
H854 H 0.8036 0.39003 0.609 0.0
H855 H 0.76433 0.41507 0.60328 0.0
H856 H 0.81416 0.37462 0.39751 0.0
H857 H 0.76931 0.38904 0.39369 0.0
H858 H 0.83931 0.33607 0.43425 0.0
H859 H 0.85711 0.32918 0.48447 0.0
C860 C 0.13187 0.79448 0.52829 0.0
C861 C 0.10469 0.82017 0.53818 0.0
C862 C 0.05877 0.77902 0.50994 0.0
C863 C 0.08634 0.75664 0.49276 0.0
N864 N 0.14757 0.73514 0.50193 0.0
N865 N 0.04212 0.83672 0.54086 0.0
C866 C 0.12251 0.76177 0.50693 0.0
C867 C 0.068 0.81214 0.53021 0.0
N868 N 0.16706 0.80228 0.53745 0.0
N869 N 0.02386 0.76726 0.50907 0.0
H870 H 0.04807 0.86054 0.55698 0.0
H871 H 0.01509 0.83439 0.5323 0.0
H872 H 0.01685 0.74187 0.49756 0.0
H873 H 0.00259 0.7806 0.52376 0.0
H874 H 0.18879 0.78744 0.5264 0.0
H875 H 0.17497 0.82506 0.55438 0.0
H876 H 0.17288 0.73542 0.51625 0.0
H877 H 0.14248 0.71061 0.48745 0.0
C878 C 0.71124 0.09382 0.44695 0.0
C879 C 0.7415 0.08011 0.46926 0.0
C880 C 0.71148 0.09271 0.53658 0.0
C881 C 0.68276 0.11007 0.51458 0.0
N882 N 0.66195 0.1362 0.44836 0.0
N883 N 0.77407 0.07387 0.53492 0.0
C884 C 0.68427 0.11308 0.46954 0.0
C885 C 0.74285 0.0822 0.514 0.0
N886 N 0.7083 0.08864 0.40412 0.0
N887 N 0.70802 0.08437 0.57862 0.0
H888 H 0.7975 0.06618 0.51897 0.0
H889 H 0.77768 0.07822 0.56738 0.0
H890 H 0.68439 0.08905 0.59564 0.0
H891 H 0.72691 0.06905 0.59517 0.0
H892 H 0.68484 0.09446 0.38714 0.0
H893 H 0.72873 0.07685 0.38612 0.0
H894 H 0.66468 0.14176 0.4161 0.0
H895 H 0.64358 0.15304 0.46349 0.0
C896 C 0.7939 0.07567 0.24194 0.0
C897 C 0.78783 0.05289 0.27733 0.0
C898 C 0.73558 0.02641 0.24071 0.0
C899 C 0.73772 0.05327 0.20918 0.0
N900 N 0.77663 0.09295 0.17031 0.0
N901 N 0.76655 0.99334 0.29424 0.0
C902 C 0.76935 0.07486 0.20695 0.0
C903 C 0.76287 0.02432 0.27225 0.0
N904 N 0.82339 0.09763 0.24176 0.0
N905 N 0.70781 0.0025 0.24085 0.0
H906 H 0.78924 0.98782 0.31268 0.0
H907 H 0.78924 0.98782 0.31268 0.0
H908 H 0.6873 0.00252 0.21813 0.0
H909 H 0.70551 0.98294 0.26425 0.0
H910 H 0.82729 0.11841 0.22021 0.0
H911 H 0.84447 0.09449 0.2635 0.0
H912 H 0.80052 0.10666 0.16449 0.0
H913 H 0.76004 0.09091 0.14365 0.0
C914 C 0.47718 0.73722 0.24645 0.0
C915 C 0.44821 0.7147 0.23303 0.0
C916 C 0.41789 0.72823 0.29998 0.0
C917 C 0.44029 0.75891 0.30531 0.0
N918 N 0.49525 0.78977 0.28714 0.0
N919 N 0.39362 0.68306 0.25274 0.0
C920 C 0.47166 0.76222 0.28016 0.0
C921 C 0.41965 0.70786 0.2618 0.0
N922 N 0.50986 0.73427 0.22687 0.0
N923 N 0.39624 0.71765 0.3326 0.0
H924 H 0.39622 0.66357 0.22927 0.0
H925 H 0.36937 0.68162 0.26927 0.0
H926 H 0.39593 0.73126 0.3616 0.0
H927 H 0.38258 0.69321 0.3329 0.0
H928 H 0.53285 0.74801 0.23681 0.0
H929 H 0.51467 0.71483 0.20357 0.0
H930 H 0.51706 0.79527 0.26748 0.0
H931 H 0.49238 0.80801 0.31204 0.0
C932 C 0.79817 0.44022 0.26652 0.0
C933 C 0.78576 0.45417 0.22725 0.0
C934 C 0.72701 0.46698 0.25929 0.0
C935 C 0.738 0.44926 0.29682 0.0
N936 N 0.78842 0.43826 0.34249 0.0
N937 N 0.74597 0.49789 0.1969 0.0
C938 C 0.77503 0.44133 0.30244 0.0
C939 C 0.7527 0.47294 0.22685 0.0
N940 N 0.83174 0.42538 0.26918 0.0
N941 N 0.69232 0.47827 0.25426 0.0
H942 H 0.76582 0.50639 0.17583 0.0
H943 H 0.76582 0.50639 0.17583 0.0
H944 H 0.6729 0.47522 0.2779 0.0
H945 H 0.68336 0.48989 0.22599 0.0
H946 H 0.84073 0.41119 0.2957 0.0
H947 H 0.84998 0.42664 0.24401 0.0
H948 H 0.8158 0.43535 0.3492 0.0
H949 H 0.77224 0.44421 0.36863 0.0
C950 C 0.03483 0.76106 0.22512 0.0
C951 C 0.06451 0.78444 0.22812 0.0
C952 C 0.08069 0.75436 0.29503 0.0
C953 C 0.05885 0.72452 0.28342 0.0
N954 N 0.01388 0.7004 0.23582 0.0
N955 N 0.11053 0.80927 0.27427 0.0
C956 C 0.03549 0.72815 0.24798 0.0
C957 C 0.0862 0.78271 0.26551 0.0
N958 N 0.004 0.77251 0.20613 0.0
N959 N 0.09238 0.75787 0.33593 0.0
H960 H 0.11002 0.8341 0.25895 0.0
H961 H 0.13088 0.80658 0.29698 0.0
H962 H 0.08483 0.73984 0.35945 0.0
H963 H 0.10529 0.78069 0.34767 0.0
H964 H 0.97981 0.75847 0.20933 0.0
H965 H 0.00178 0.79824 0.19329 0.0
H966 H -0.00115 0.70149 0.20793 0.0
H967 H 0.01387 0.67556 0.25114 0.0
C968 C 0.20751 0.92133 0.75883 0.0
C969 C 0.20677 0.94783 0.72678 0.0
C970 C 0.25576 0.98032 0.76135 0.0
C971 C 0.25727 0.95388 0.7935 0.0
N972 N 0.2234 0.90916 0.83195 0.0
N973 N 0.21678 0.01013 0.7111 0.0
C974 C 0.22981 0.92713 0.7951 0.0
C975 C 0.2263 0.98003 0.73293 0.0
N976 N 0.18771 0.89067 0.75457 0.0
N977 N 0.28303 0.00457 0.75634 0.0
H978 H 0.19468 0.01029 0.69058 0.0
H979 H 0.22827 0.03518 0.71725 0.0
H980 H 0.30675 0.00383 0.7742 0.0
H981 H 0.28371 0.02269 0.73118 0.0
H982 H 0.19013 0.869 0.77533 0.0
H983 H 0.17001 0.88648 0.72926 0.0
H984 H 0.20173 0.89166 0.83578 0.0
H985 H 0.23703 0.91539 0.86001 0.0
C986 C 0.57291 0.27762 0.73431 0.0
C987 C 0.56672 0.26301 0.77511 0.0
C988 C 0.56119 0.20262 0.74375 0.0
C989 C 0.56922 0.21654 0.70311 0.0
N990 N 0.59256 0.26623 0.66219 0.0
N991 N 0.56812 0.21043 0.81959 0.0
C992 C 0.57799 0.25379 0.69904 0.0
C993 C 0.5648 0.2251 0.78002 0.0
N994 N 0.57315 0.31401 0.72891 0.0
N995 N 0.55029 0.16773 0.7479 0.0
H996 H 0.57276 0.22604 0.84666 0.0
H997 H 0.57041 0.18289 0.82485 0.0
H998 H 0.54741 0.15041 0.72198 0.0
H999 H 0.54085 0.15713 0.77641 0.0
H1000 H 0.57371 0.3262 0.69915 0.0
H1001 H 0.57025 0.33197 0.75416 0.0
H1002 H 0.60315 0.29199 0.65895 0.0
H1003 H 0.59652 0.24985 0.63584 0.0
C1004 C 0.26876 0.53352 0.74748 0.0
C1005 C 0.29233 0.563 0.74292 0.0
C1006 C 0.27786 0.58141 0.81571 0.0
C1007 C 0.24627 0.55967 0.81391 0.0
N1008 N 0.21822 0.50699 0.78238 0.0
N1009 N 0.33134 0.60405 0.77932 0.0
C1010 C 0.24405 0.53287 0.78184 0.0
C1011 C 0.30106 0.58315 0.7797 0.0
N1012 N 0.27109 0.50527 0.72039 0.0
N1013 N 0.28548 0.59995 0.85199 0.0
H1014 H 0.34961 0.60291 0.75415 0.0
H1015 H 0.33921 0.6213 0.80364 0.0
H1016 H 0.26996 0.59695 0.87908 0.0
H1017 H 0.30787 0.61631 0.85649 0.0
H1018 H 0.25567 0.48206 0.72424 0.0
H1019 H 0.29122 0.50413 0.69753 0.0
H1020 H 0.19921 0.50429 0.80651 0.0
H1021 H 0.19921 0.50429 0.80651 0.0
C1022 C 0.95923 0.25982 0.72374 0.0
C1023 C 0.9351 0.28912 0.72334 0.0
C1024 C 0.91488 0.2698 0.79456 0.0
C1025 C 0.93194 0.23591 0.7887 0.0
N1026 N 0.96837 0.19796 0.74404 0.0
N1027 N 0.89327 0.32542 0.76402 0.0
C1028 C 0.95327 0.23066 0.75199 0.0
C1029 C 0.91351 0.2949 0.76029 0.0
N1030 N 0.99071 0.262 0.70212 0.0
N1031 N 0.90315 0.27957 0.83404 0.0
H1032 H 0.89723 0.34792 0.74491 0.0
H1033 H 0.87272 0.32828 0.78628 0.0
H1034 H 0.90647 0.26322 0.86058 0.0
H1035 H 0.89382 0.3052 0.84154 0.0
H1036 H 0.01137 0.24348 0.70712 0.0
H1037 H 0.99839 0.28544 0.68656 0.0
H1038 H 0.98111 0.19242 0.71532 0.0
H1039 H 0.96461 0.17587 0.76392 0.0
C1040 C 0.48912 0.98572 0.96538 0.0
C1041 C 0.46724 0.01126 0.98681 0.0
C1042 C 0.5078 0.0092 0.04869 0.0
C1043 C 0.53055 0.98489 0.02653 0.0
N1044 N 0.54614 0.95346 0.96223 0.0
N1045 N 0.45771 0.05123 0.04615 0.0
C1046 C 0.52217 0.97425 0.9843 0.0
C1047 C 0.47721 0.02417 0.02771 0.0
N1048 N 0.47777 0.97184 0.92737 0.0
N1049 N 0.51481 0.01695 0.09039 0.0
H1050 H 0.43418 0.06171 0.03279 0.0
H1051 H 0.4659 0.06491 0.07339 0.0
H1052 H 0.53782 0.00782 0.10619 0.0
H1053 H 0.49699 0.0307 0.11008 0.0
H1054 H 0.49026 0.95042 0.91204 0.0
H1055 H 0.4541 0.98017 0.91232 0.0
H1056 H 0.54364 0.94745 0.93006 0.0
H1057 H 0.57032 0.94431 0.97537 0.0
C1058 C 0.50374 0.49161 0.96571 0.0
C1059 C 0.47898 0.46569 0.98086 0.0
C1060 C 0.47702 0.49539 0.05032 0.0
C1061 C 0.50059 0.52212 0.03453 0.0
N1062 N 0.53137 0.55002 0.9758 0.0
N1063 N 0.4375 0.44514 0.03447 0.0
C1064 C 0.51244 0.52153 0.99172 0.0
C1065 C 0.46415 0.4683 0.02227 0.0
N1066 N 0.51953 0.4871 0.92684 0.0
N1067 N 0.46806 0.49524 0.09241 0.0
H1068 H 0.4283 0.42412 0.01531 0.0
H1069 H 0.42275 0.44809 0.06235 0.0
H1070 H 0.47628 0.51529 0.11353 0.0
H1071 H 0.45441 0.47424 0.10705 0.0
H1072 H 0.54097 0.50263 0.9161 0.0
H1073 H 0.51291 0.46611 0.90623 0.0
H1074 H 0.53773 0.55296 0.94382 0.0
H1075 H 0.53818 0.57253 0.99393 0.0
C1076 C 0.01333 0.50357 0.96412 0.0
C1077 C 0.03727 0.47878 0.98367 0.0
C1078 C 0.00287 0.48314 0.05024 0.0
C1079 C 0.97772 0.50625 0.02993 0.0
N1080 N 0.95605 0.53536 0.9665 0.0
N1081 N 0.05265 0.44107 0.04317 0.0
C1082 C 0.98211 0.51552 0.98649 0.0
C1083 C 0.03144 0.46751 0.02619 0.0
N1084 N 0.02099 0.51623 0.92442 0.0
N1085 N -0.0001 0.47685 0.09286 0.0
H1086 H 0.07466 0.43001 0.02724 0.0
H1087 H 0.04725 0.42845 0.07193 0.0
H1088 H 0.97843 0.48642 0.111 0.0
H1089 H 0.01965 0.46396 0.11079 0.0
H1090 H 0.00696 0.53707 0.90983 0.0
H1091 H 0.04333 0.50768 0.90705 0.0
H1092 H 0.95547 0.54006 0.93394 0.0
H1093 H 0.93321 0.54508 0.98199 0.0
C1094 C 0.02023 0.01433 0.03239 0.0
C1095 C 0.00416 0.02353 0.99283 0.0
C1096 C 0.96278 0.97218 0.99891 0.0
C1097 C 0.97978 0.96218 0.03764 0.0
N1098 N 0.02805 0.96991 0.08816 0.0
N1099 N 0.96471 0.00811 0.93465 0.0
C1100 C 0.00966 0.98206 0.05333 0.0
C1101 C 0.97666 0.00158 0.97504 0.0
N1102 N 0.04464 0.03722 0.05068 0.0
N1103 N 0.93284 0.95394 0.98538 0.0
H1104 H 0.97393 0.02958 0.91642 0.0
H1105 H 0.94772 0.99087 0.91792 0.0
H1106 H 0.92324 0.93092 1.00044 0.0
H1107 H 0.91634 0.96259 0.96062 0.0
H1108 H 0.05466 0.0342 0.08138 0.0
H1109 H 0.05294 0.06108 0.0364 0.0
H1110 H 0.05239 0.98074 0.0986 0.0
H1111 H 0.02042 0.94702 0.10493 0.0
C1112 C 0.5091 0.49654 0.55096 0.0
C1113 C 0.47423 0.49121 0.53373 0.0
C1114 C 0.49781 0.50362 0.4624 0.0
C1115 C 0.53304 0.50858 0.47995 0.0
N1116 N 0.57302 0.49655 0.53974 0.0
N1117 N 0.43375 0.49268 0.47374 0.0
C1118 C 0.53906 0.501 0.52371 0.0
C1119 C 0.46803 0.49572 0.48956 0.0
N1120 N 0.51335 0.49931 0.59402 0.0
N1121 N 0.49364 0.50434 0.41921 0.0
H1122 H 0.41178 0.48496 0.49205 0.0
H1123 H 0.42626 0.49935 0.44292 0.0
H1124 H 0.51554 0.50658 0.39866 0.0
H1125 H 0.46948 0.49996 0.40323 0.0
H1126 H 0.53751 0.50707 0.60835 0.0
H1127 H 0.49171 0.49783 0.61507 0.0
H1128 H 0.57776 0.48462 0.5692 0.0
H1129 H 0.59659 0.50176 0.52335 0.0
C1130 C 0.01467 0.49043 0.4557 0.0
C1131 C 0.99249 0.51729 0.47411 0.0
C1132 C 0.99015 0.48369 0.54104 0.0
C1133 C 0.01222 0.45677 0.52258 0.0
N1134 N 0.04155 0.43102 0.4615 0.0
N1135 N 0.95547 0.53841 0.53201 0.0
C1136 C 0.02307 0.459 0.47946 0.0
C1137 C 0.97912 0.51356 0.51615 0.0
N1138 N 0.0287 0.49579 0.41608 0.0
N1139 N 0.98098 0.48118 0.58299 0.0
H1140 H 0.94902 0.56218 0.51631 0.0
H1141 H 0.94095 0.53504 0.55994 0.0
H1142 H 0.98663 0.45849 0.60126 0.0
H1143 H 0.96906 0.50184 0.6003 0.0
H1144 H 0.04785 0.47918 0.40207 0.0
H1145 H 0.02295 0.51853 0.39796 0.0
H1146 H 0.04755 0.42915 0.42932 0.0
H1147 H 0.04885 0.40803 0.47832 0.0
C1148 C 0.95771 0.97433 0.50842 0.0
C1149 C 0.9582 0.9843 0.46481 0.0
C1150 C 0.01744 0.01242 0.47451 0.0
C1151 C 0.01598 0.00414 0.51839 0.0
N1152 N 0.98242 0.98338 0.57901 0.0
N1153 N 0.98465 0.01841 0.4081 0.0
C1154 C 0.98536 0.987 0.53594 0.0
C1155 C 0.98694 0.00518 0.44847 0.0
N1156 N 0.93201 0.95117 0.52314 0.0
N1157 N 0.04833 0.02642 0.45764 0.0
H1158 H 0.96231 0.01379 0.38859 0.0
H1159 H 0.00305 0.03652 0.3954 0.0
H1160 H 0.07111 0.03235 0.47591 0.0
H1161 H 0.05254 0.02953 0.42518 0.0
H1162 H 0.9331 0.93932 0.55305 0.0
H1163 H 0.91072 0.9417 0.50461 0.0
H1164 H 0.95883 0.97518 0.594 0.0
H1165 H 0.00277 0.99105 0.60011 0.0
C1166 C 0.47428 0.98787 0.46774 0.0
C1167 C 0.49782 0.96286 0.48734 0.0
C1168 C 0.50025 0.00097 0.55137 0.0
C1169 C 0.47895 0.02722 0.53039 0.0
N1170 N 0.45012 0.04851 0.46656 0.0
N1171 N 0.53686 0.94704 0.54582 0.0
C1172 C 0.46733 0.02147 0.48788 0.0
C1173 C 0.51171 0.96973 0.52875 0.0
N1174 N 0.45809 0.97901 0.43009 0.0
N1175 N 0.50882 0.00558 0.59328 0.0
H1176 H 0.54455 0.92301 0.53134 0.0
H1177 H 0.55157 0.95285 0.57321 0.0
H1178 H 0.50253 0.02899 0.61001 0.0
H1179 H 0.52045 0.98564 0.612 0.0
H1180 H 0.43795 0.99435 0.41586 0.0
H1181 H 0.46252 0.95441 0.41497 0.0
H1182 H 0.44389 0.04747 0.43432 0.0
H1183 H 0.44488 0.07352 0.48023 0.0
C1184 C 0.53244 0.84011 0.15386 0.0
C1185 C 0.54201 0.81001 0.12852 0.0
C1186 C 0.58187 0.8464 0.08575 0.0
C1187 C 0.56906 0.87744 0.10729 0.0
N1188 N 0.54107 0.90371 0.16899 0.0
N1189 N 0.59052 0.78211 0.08985 0.0
C1190 C 0.54736 0.87422 0.14407 0.0
C1191 C 0.57172 0.81222 0.10087 0.0
N1192 N 0.50852 0.83577 0.18635 0.0
N1193 N 0.60177 0.84941 0.04945 0.0
H1194 H 0.58595 0.75738 0.10437 0.0
H1195 H 0.61387 0.78284 0.07153 0.0
H1196 H 0.60914 0.87399 0.0363 0.0
H1197 H 0.60829 0.82739 0.03043 0.0
H1198 H 0.49719 0.85677 0.20363 0.0
H1199 H 0.49994 0.81034 0.19587 0.0
H1200 H 0.52712 0.90303 0.19758 0.0
H1201 H 0.55201 0.92889 0.1623 0.0
C1202 C 0.66703 0.55895 0.07203 0.0
C1203 C 0.68037 0.5485 0.11228 0.0
C1204 C 0.62265 0.56202 0.14551 0.0
C1205 C 0.60861 0.57031 0.1049 0.0
N1206 N 0.61948 0.58897 0.03279 0.0
N1207 N 0.67664 0.55445 0.18803 0.0
C1208 C 0.63163 0.57305 0.0692 0.0
C1209 C 0.65996 0.55467 0.1494 0.0
N1210 N 0.68724 0.55342 0.03637 0.0
N1211 N 0.60025 0.55967 0.17976 0.0
H1212 H 0.70455 0.55193 0.19064 0.0
H1213 H 0.66371 0.5611 0.21631 0.0
H1214 H 0.5728 0.56569 0.17802 0.0
H1215 H 0.60852 0.54978 0.20916 0.0
H1216 H 0.67716 0.55633 0.00566 0.0
H1217 H 0.71376 0.54415 0.0374 0.0
H1218 H 0.63602 0.5946 0.00698 0.0
H1219 H 0.5936 0.59974 0.03006 0.0
C1220 C 0.93874 0.66606 0.15501 0.0
C1221 C 0.94258 0.69033 0.12092 0.0
C1222 C 0.93446 0.64165 0.06982 0.0
C1223 C 0.93683 0.61664 0.10377 0.0
N1224 N 0.94294 0.60419 0.17857 0.0
N1225 N 0.94439 0.70263 0.04589 0.0
C1226 C 0.93926 0.6286 0.14649 0.0
C1227 C 0.94018 0.67856 0.07828 0.0
N1228 N 0.93362 0.67903 0.19515 0.0
N1229 N 0.92542 0.63028 0.02981 0.0
H1230 H 0.94622 0.73031 0.0509 0.0
H1231 H 0.94785 0.6951 0.01428 0.0
H1232 H 0.9212 0.6034 0.02192 0.0
H1233 H 0.91916 0.64773 0.00506 0.0
H1234 H 0.92778 0.66283 0.22115 0.0
H1235 H 0.93217 0.70656 0.20146 0.0
H1236 H 0.94825 0.61138 0.20997 0.0
H1237 H 0.94343 0.57651 0.17316 0.0
C1238 C 0.8155 0.91669 0.1392 0.0
C1239 C 0.81402 0.9483 0.16398 0.0
C1240 C 0.88004 0.94797 0.16863 0.0
C1241 C 0.88068 0.92388 0.13361 0.0
N1242 N 0.84795 0.88642 0.0835 0.0
N1243 N 0.84414 0.98784 0.21292 0.0
C1244 C 0.84819 0.90796 0.11872 0.0
C1245 C 0.84623 0.96172 0.18256 0.0
N1246 N 0.78611 0.89484 0.13585 0.0
N1247 N 0.91156 0.95727 0.18839 0.0
H1248 H 0.81954 0.99502 0.2264 0.0
H1249 H 0.86616 0.00214 0.22457 0.0
H1250 H 0.93651 0.94709 0.17893 0.0
H1251 H 0.91293 0.9728 0.21587 0.0
H1252 H 0.78671 0.87027 0.11988 0.0
H1253 H 0.76312 0.89889 0.15429 0.0
H1254 H 0.82417 0.87728 0.06944 0.0
H1255 H 0.871 0.8805 0.06596 0.0
C1256 C 0.53653 0.61338 0.35666 0.0
C1257 C 0.56241 0.61489 0.39007 0.0
C1258 C 0.56916 0.67917 0.37826 0.0
C1259 C 0.53626 0.6792 0.35575 0.0
N1260 N 0.49494 0.64647 0.31129 0.0
N1261 N 0.60225 0.65042 0.43456 0.0
C1262 C 0.52205 0.64615 0.34069 0.0
C1263 C 0.5789 0.64805 0.40103 0.0
N1264 N 0.52662 0.5809 0.33991 0.0
N1265 N 0.59123 0.70844 0.37718 0.0
H1266 H 0.6088 0.6286 0.45382 0.0
H1267 H 0.61227 0.6749 0.44564 0.0
H1268 H 0.5859 0.7302 0.35723 0.0
H1269 H 0.61675 0.70873 0.3912 0.0
H1270 H 0.50968 0.57791 0.31375 0.0
H1271 H 0.53757 0.55663 0.35032 0.0
H1272 H 0.48015 0.62394 0.3023 0.0
H1273 H 0.48757 0.67003 0.2956 0.0
C1274 C 0.86878 0.55015 0.42261 0.0
C1275 C 0.89202 0.56672 0.39307 0.0
C1276 C 0.84345 0.56409 0.34 0.0
C1277 C 0.82304 0.54228 0.36821 0.0
N1278 N 0.82513 0.50324 0.4297 0.0
N1279 N 0.90324 0.5855 0.321 0.0
C1280 C 0.83831 0.53189 0.40758 0.0
C1281 C 0.87994 0.57269 0.35081 0.0
N1282 N 0.87562 0.55201 0.46516 0.0
N1283 N 0.82795 0.57751 0.304 0.0
H1284 H 0.92993 0.59207 0.3281 0.0
H1285 H 0.8968 0.58703 0.2888 0.0
H1286 H 0.80123 0.57242 0.29563 0.0
H1287 H 0.84073 0.59613 0.2845 0.0
H1288 H 0.85787 0.54179 0.48777 0.0
H1289 H 0.89645 0.56767 0.47754 0.0
H1290 H 0.83738 0.49371 0.45735 0.0
H1291 H 0.8054 0.48618 0.41736 0.0
C1292 C 0.93519 0.86221 0.33907 0.0
C1293 C 0.93749 0.87664 0.3808 0.0
C1294 C 0.97127 0.82482 0.40399 0.0
C1295 C 0.96398 0.80731 0.36511 0.0
N1296 N 0.93641 0.80814 0.29559 0.0
N1297 N 0.9475 0.8654 0.45581 0.0
C1298 C 0.94521 0.82566 0.33234 0.0
C1299 C 0.95226 0.85601 0.4142 0.0
N1300 N 0.9244 0.88349 0.3061 0.0
N1301 N 0.99842 0.8135 0.42986 0.0
H1302 H 0.93123 0.88678 0.46532 0.0
H1303 H 0.95627 0.84915 0.48077 0.0
H1304 H 0.01609 0.79339 0.42063 0.0
H1305 H 0.00661 0.82801 0.45657 0.0
H1306 H 0.92524 0.8753 0.27445 0.0
H1307 H 0.91738 0.91044 0.31017 0.0
H1308 H 0.91986 0.81923 0.27226 0.0
H1309 H 0.94354 0.78143 0.28991 0.0
C1310 C 0.6246 0.95307 0.43004 0.0
C1311 C 0.60266 0.93305 0.40166 0.0
C1312 C 0.6484 0.94026 0.34642 0.0
C1313 C 0.66666 0.96545 0.37263 0.0
N1314 N 0.66907 -0.00212 0.43994 0.0
N1315 N 0.5913 0.91157 0.33037 0.0
C1316 C 0.65376 0.97274 0.41412 0.0
C1317 C 0.61387 0.92759 0.35905 0.0
N1318 N 0.61779 0.9534 0.4727 0.0
N1319 N 0.6645 0.92732 0.3106 0.0
H1320 H 0.5656 0.90251 0.33831 0.0
H1321 H 0.59694 0.91016 0.29799 0.0
H1322 H 0.69064 0.93446 0.30201 0.0
H1323 H 0.65356 0.90663 0.2923 0.0
H1324 H 0.63325 0.96831 0.49419 0.0
H1325 H 0.59875 0.93666 0.48678 0.0
H1326 H 0.68995 0.01487 0.43084 0.0
H1327 H 0.68995 0.01487 0.43084 0.0
C1328 C 0.42806 0.11803 0.86586 0.0
C1329 C 0.4146 0.11349 0.90754 0.0
C1330 C 0.41916 0.1783 0.92002 0.0
C1331 C 0.44064 0.18125 0.88303 0.0
N1332 N 0.46015 0.15649 0.81631 0.0
N1333 N 0.39749 0.13877 0.97523 0.0
C1334 C 0.44285 0.1519 0.85419 0.0
C1335 C 0.40954 0.14358 0.93463 0.0
N1336 N 0.42697 0.08984 0.83797 0.0
N1337 N 0.40768 0.20834 0.941 0.0
H1338 H 0.38929 0.11392 0.98699 0.0
H1339 H 0.39797 0.15897 0.99819 0.0
H1340 H 0.41155 0.2342 0.92943 0.0
H1341 H 0.38993 0.20757 0.96655 0.0
H1342 H 0.43408 0.09169 0.80611 0.0
H1343 H 0.41633 0.06485 0.84618 0.0
H1344 H 0.46673 0.13563 0.79567 0.0
H1345 H 0.46845 0.18177 0.80585 0.0
C1346 C 0.38952 0.44568 0.847 0.0
C1347 C 0.39044 0.41804 0.878 0.0
C1348 C 0.32443 0.41808 0.87917 0.0
C1349 C 0.32449 0.45229 0.8593 0.0
N1350 N 0.35513 0.49392 0.81376 0.0
N1351 N 0.3582 0.37708 0.92356 0.0
C1352 C 0.35651 0.46431 0.83929 0.0
C1353 C 0.3577 0.40335 0.89334 0.0
N1354 N 0.42055 0.45444 0.82617 0.0
N1355 N 0.2931 0.39929 0.88369 0.0
H1356 H 0.38188 0.36511 0.93442 0.0
H1357 H 0.33515 0.36881 0.93968 0.0
H1358 H 0.26911 0.40714 0.86917 0.0
H1359 H 0.2922 0.3733 0.8959 0.0
H1360 H 0.42198 0.47311 0.8017 0.0
H1361 H 0.44469 0.44067 0.83154 0.0
H1362 H 0.3777 0.50678 0.8015 0.0
H1363 H 0.33067 0.50566 0.80491 0.0
C1364 C 0.05308 0.37143 0.85862 0.0
C1365 C 0.07492 0.37436 0.89564 0.0
C1366 C 0.07745 0.30873 0.90077 0.0
C1367 C 0.04919 0.30644 0.87075 0.0
N1368 N 0.02424 0.3318 0.80703 0.0
N1369 N 0.10695 0.34567 0.95349 0.0
C1370 C 0.04128 0.33677 0.84514 0.0
C1371 C 0.08749 0.34295 0.91668 0.0
N1372 N 0.04274 0.40183 0.8375 0.0
N1373 N 0.09587 0.27851 0.91228 0.0
H1374 H 0.11441 0.37014 0.96705 0.0
H1375 H 0.11306 0.32359 0.97249 0.0
H1376 H 0.09166 0.2539 0.89711 0.0
H1377 H 0.11857 0.27896 0.93187 0.0
H1378 H 0.02372 0.40219 0.81314 0.0
H1379 H 0.05242 0.4273 0.84546 0.0
H1380 H 0.01897 0.3522 0.78536 0.0
H1381 H 0.01891 0.30614 0.79507 0.0
C1382 C 0.16761 0.08743 0.90797 0.0
C1383 C 0.17276 0.05506 0.885 0.0
C1384 C 0.10723 0.05004 0.87579 0.0
C1385 C 0.10213 0.07769 0.9063 0.0
N1386 N 0.12842 0.12106 0.95468 0.0
N1387 N 0.14654 0.00276 0.85075 0.0
C1388 C 0.13253 0.09643 0.92281 0.0
C1389 C 0.14237 0.03583 0.86917 0.0
N1390 N 0.19622 0.10975 0.91526 0.0
N1391 N 0.07829 0.03711 0.85357 0.0
H1392 H 0.17141 0.99021 0.84679 0.0
H1393 H 0.1249 0.98611 0.84301 0.0
H1394 H 0.05229 0.04735 0.8576 0.0
H1395 H 0.08069 0.01914 0.8283 0.0
H1396 H 0.19347 0.13537 0.92829 0.0
H1397 H 0.22211 0.10413 0.90413 0.0
H1398 H 0.15011 0.13238 0.97099 0.0
H1399 H 0.10348 0.1281 0.96734 0.0
C1400 C 0.47486 0.34339 0.6598 0.0
C1401 C 0.47162 0.31707 0.62756 0.0
C1402 C 0.43153 0.35647 0.58663 0.0
C1403 C 0.439 0.38447 0.61604 0.0
N1404 N 0.4672 0.4059 0.68028 0.0
N1405 N 0.44458 0.29568 0.5624 0.0
C1406 C 0.46004 0.37815 0.65298 0.0
C1407 C 0.44874 0.32255 0.59184 0.0
N1408 N 0.4916 0.33467 0.69712 0.0
N1409 N 0.40907 0.36314 0.55293 0.0
H1410 H 0.45704 0.27068 0.5649 0.0
H1411 H 0.42901 0.2975 0.53502 0.0
H1412 H 0.39596 0.38768 0.54865 0.0
H1413 H 0.40213 0.34459 0.52962 0.0
H1414 H 0.49284 0.35157 0.72346 0.0
H1415 H 0.50155 0.30891 0.70298 0.0
H1416 H 0.48569 0.40439 0.70514 0.0
H1417 H 0.45559 0.43129 0.67689 0.0
C1418 C 0.14622 0.43576 0.58116 0.0
C1419 C 0.11829 0.43209 0.61128 0.0
C1420 C 0.15739 0.45667 0.66683 0.0
C1421 C 0.18383 0.4644 0.63556 0.0
N1422 N 0.20116 0.46248 0.56045 0.0
N1423 N 0.09509 0.44115 0.68184 0.0
C1424 C 0.17799 0.45402 0.59246 0.0
C1425 C 0.12328 0.4429 0.65401 0.0
N1426 N 0.14201 0.42296 0.54065 0.0
N1427 N 0.16547 0.46116 0.70886 0.0
H1428 H 0.07008 0.4303 0.67362 0.0
H1429 H 0.09567 0.45246 0.71212 0.0
H1430 H 0.19072 0.46982 0.71915 0.0
H1431 H 0.14871 0.45299 0.73347 0.0
H1432 H 0.16192 0.42554 0.51749 0.0
H1433 H 0.11933 0.40866 0.53063 0.0
H1434 H 0.22444 0.47792 0.56368 0.0
H1435 H 0.22444 0.47792 0.56368 0.0
C1436 C 0.04699 0.14933 0.65416 0.0
C1437 C 0.03651 0.17274 0.62113 0.0
C1438 C 0.06355 0.13225 0.56913 0.0
C1439 C 0.06566 0.10537 0.60083 0.0
N1440 N 0.05805 0.08763 0.67415 0.0
N1441 N 0.03531 0.18764 0.54651 0.0
C1442 C 0.05768 0.1138 0.64379 0.0
C1443 C 0.04547 0.16484 0.57839 0.0
N1444 N 0.0474 0.16132 0.69512 0.0
N1445 N 0.07864 0.12625 0.5302 0.0
H1446 H 0.02322 0.2125 0.5521 0.0
H1447 H 0.03707 0.18104 0.51441 0.0
H1448 H 0.09244 0.10256 0.52299 0.0
H1449 H 0.08057 0.1459 0.50682 0.0
H1450 H 0.05735 0.14617 0.72037 0.0
H1451 H 0.04201 0.18807 0.70269 0.0
H1452 H 0.04852 0.09175 0.70489 0.0
H1453 H 0.06543 0.06112 0.66794 0.0
C1454 C 0.31239 0.04214 0.56822 0.0
C1455 C 0.2957 0.04841 0.608 0.0
C1456 C 0.35124 0.07571 0.63495 0.0
C1457 C 0.367 0.07104 0.59433 0.0
N1458 N 0.35803 0.06157 0.51908 0.0
N1459 N 0.29568 0.07921 0.67523 0.0
C1460 C 0.34599 0.05825 0.55986 0.0
C1461 C 0.31399 0.06805 0.64005 0.0
N1462 N 0.29798 0.01853 0.53959 0.0
N1463 N 0.37205 0.08544 0.66897 0.0
H1464 H 0.26811 0.07456 0.6788 0.0
H1465 H 0.30685 0.09599 0.69831 0.0
H1466 H 0.39963 0.09044 0.6666 0.0
H1467 H 0.36255 0.08563 0.70008 0.0
H1468 H 0.31221 0.00959 0.51309 0.0
H1469 H 0.27361 0.0053 0.54411 0.0
H1470 H 0.34224 0.05496 0.49274 0.0
H1471 H 0.38201 0.07466 0.51149 0.0
loop_
_geom_bond_atom_site_label_1
_geom_bond_atom_site_label_2
_geom_bond_distance
_geom_bond_site_symmetry_2
_ccdc_geom_bond_type
O0 Tb1 2.292 . S
O0 C3 1.255 . S
Tb1 O0 2.292 . S
Tb1 O17 2.326 . S
Tb1 O19 2.500 . S
Tb1 O20 2.473 . S
Tb1 O23 2.324 . S
Eu2 O6 2.292 1_545 S
Eu2 C7 2.852 1_545 S
Eu2 O18 2.324 . S
Eu2 O22 2.326 . S
Eu2 O24 2.500 1_545 S
Eu2 O25 2.473 . S
C3 O0 1.255 . S
C3 O4 1.247 . S
O4 C3 1.247 . S
C5 O17 1.242 . S
C5 O18 1.258 . S
O6 Eu2 2.292 1_565 S
O6 C8 1.254 1_565 S
C7 Eu2 2.852 1_565 S
C7 C11 1.503 . S
C7 O24 1.273 . S
C7 O25 1.257 1_565 S
C8 O6 1.254 1_545 S
C8 O9 1.255 . S
O9 C8 1.255 . S
C10 O22 1.242 . S
C10 O23 1.258 . S
C11 C7 1.503 . S
C11 C12 1.368 1_565 S
C11 C16 1.392 . S
C12 C11 1.368 1_545 S
C12 C13 1.395 1_545 S
C12 H26 0.950 . S
C13 C12 1.395 1_565 S
C13 C14 1.389 . S
C14 C13 1.389 . S
C14 C15 1.399 . S
C14 H27 0.931 . S
C15 C14 1.399 . S
C15 C16 1.390 . S
C16 C11 1.392 . S
C16 C15 1.390 . S
C16 H28 0.929 . S
O17 Tb1 2.326 . S
O17 C5 1.242 . S
O18 Eu2 2.324 . S
O18 C5 1.258 . S
O19 Tb1 2.500 . S
O19 C21 1.273 . S
O20 Tb1 2.473 . S
O20 C21 1.257 . S
C21 O19 1.273 . S
C21 O20 1.257 . S
O22 Eu2 2.326 . S
O22 C10 1.242 . S
O23 Tb1 2.324 . S
O23 C10 1.258 . S
O24 Eu2 2.500 1_565 S
O24 C7 1.273 . S
O25 Eu2 2.473 . S
O25 C7 1.257 1_545 S
H26 C12 0.950 . S
H27 C14 0.931 . S
H28 C16 0.929 . S
O29 Tb30 2.292 . S
O29 C32 1.255 . S
Tb30 O29 2.292 . S
Tb30 O46 2.326 . S
Tb30 O48 2.500 . S
Tb30 O49 2.473 . S
Tb30 O52 2.324 . S
Eu31 O35 2.292 . S
Eu31 C36 2.852 . S
Eu31 O47 2.324 . S
Eu31 O51 2.326 . S
Eu31 O53 2.500 . S
Eu31 O54 2.473 . S
C32 O29 1.255 . S
C32 O33 1.247 . S
O33 C32 1.247 . S
C34 O46 1.242 . S
C34 O47 1.258 . S
O35 Eu31 2.292 . S
O35 C37 1.255 . S
C36 Eu31 2.852 . S
C36 C40 1.503 . S
C36 O53 1.273 . S
C36 O54 1.257 . S
C37 O35 1.255 . S
C37 O38 1.247 . S
O38 C37 1.247 . S
C39 O51 1.242 . S
C39 O52 1.258 . S
C40 C36 1.503 . S
C40 C41 1.379 . S
C40 C45 1.392 . S
C41 C40 1.379 . S
C41 C42 1.404 . S
C41 H55 0.929 . S
C42 C41 1.404 . S
C42 C43 1.389 . S
C43 C42 1.389 . S
C43 C44 1.399 . S
C43 H56 0.931 . S
C44 C43 1.399 . S
C44 C45 1.390 . S
C45 C40 1.392 . S
C45 C44 1.390 . S
C45 H57 0.929 . S
O46 Tb30 2.326 . S
O46 C34 1.242 . S
O47 Eu31 2.324 . S
O47 C34 1.258 . S
O48 Tb30 2.500 . S
O48 C50 1.273 . S
O49 Tb30 2.473 . S
O49 C50 1.257 . S
C50 O48 1.273 . S
C50 O49 1.257 . S
O51 Eu31 2.326 . S
O51 C39 1.242 . S
O52 Tb30 2.324 . S
O52 C39 1.258 . S
O53 Eu31 2.500 . S
O53 C36 1.273 . S
O54 Eu31 2.473 . S
O54 C36 1.257 . S
H55 C41 0.929 . S
H56 C43 0.931 . S
H57 C45 0.929 . S
O58 Tb59 2.292 . S
O58 C61 1.255 . S
Tb59 O58 2.292 . S
Tb59 O75 2.326 . S
Tb59 O77 2.500 . S
Tb59 O78 2.473 . S
Tb59 O81 2.324 . S
Eu60 O64 2.292 . S
Eu60 C65 2.852 . S
Eu60 O76 2.324 . S
Eu60 O80 2.326 . S
Eu60 O82 2.500 . S
Eu60 O83 2.473 . S
C61 O58 1.255 . S
C61 O62 1.247 . S
O62 C61 1.247 . S
C63 O75 1.242 . S
C63 O76 1.258 . S
O64 Eu60 2.292 . S
O64 C66 1.255 . S
C65 Eu60 2.852 . S
C65 C69 1.503 . S
C65 O82 1.273 . S
C65 O83 1.257 . S
C66 O64 1.255 . S
C66 O67 1.247 . S
O67 C66 1.247 . S
C68 O80 1.242 . S
C68 O81 1.258 . S
C69 C65 1.503 . S
C69 C70 1.379 . S
C69 C74 1.392 . S
C70 C69 1.379 . S
C70 C71 1.404 . S
C70 H84 0.929 . S
C71 C70 1.404 . S
C71 C72 1.389 . S
C72 C71 1.389 . S
C72 C73 1.399 . S
C72 H85 0.931 . S
C73 C72 1.399 . S
C73 C74 1.390 . S
C74 C69 1.392 . S
C74 C73 1.390 . S
C74 H86 0.929 . S
O75 Tb59 2.326 . S
O75 C63 1.242 . S
O76 Eu60 2.324 . S
O76 C63 1.258 . S
O77 Tb59 2.500 . S
O77 C79 1.273 . S
O78 Tb59 2.473 . S
O78 C79 1.257 . S
C79 O77 1.273 . S
C79 O78 1.257 . S
O80 Eu60 2.326 . S
O80 C68 1.242 . S
O81 Tb59 2.324 . S
O81 C68 1.258 . S
O82 Eu60 2.500 . S
O82 C65 1.273 . S
O83 Eu60 2.473 . S
O83 C65 1.257 . S
H84 C70 0.929 . S
H85 C72 0.931 . S
H86 C74 0.929 . S
O87 Tb88 2.292 . S
O87 C90 1.255 . S
Tb88 O87 2.292 . S
Tb88 O104 2.326 . S
Tb88 O106 2.500 . S
Tb88 O107 2.473 . S
Tb88 O110 2.324 . S
Eu89 O93 2.292 1_455 S
Eu89 C94 2.852 1_455 S
Eu89 O105 2.324 . S
Eu89 O109 2.326 . S
Eu89 O111 2.500 1_455 S
Eu89 O112 2.473 . S
C90 O87 1.255 . S
C90 O91 1.247 . S
O91 C90 1.247 . S
C92 O104 1.242 . S
C92 O105 1.258 . S
O93 Eu89 2.292 1_655 S
O93 C95 1.254 1_655 S
C94 Eu89 2.852 1_655 S
C94 C98 1.503 . S
C94 O111 1.273 . S
C94 O112 1.257 1_655 S
C95 O93 1.254 1_455 S
C95 O96 1.255 . S
O96 C95 1.255 . S
C97 O109 1.242 . S
C97 O110 1.258 . S
C98 C94 1.503 . S
C98 C99 1.368 1_655 S
C98 C103 1.392 . S
C99 C98 1.368 1_455 S
C99 C100 1.395 1_455 S
C99 H113 0.950 . S
C100 C99 1.395 1_655 S
C100 C101 1.389 . S
C101 C100 1.389 . S
C101 C102 1.399 . S
C101 H114 0.931 . S
C102 C101 1.399 . S
C102 C103 1.390 . S
C103 C98 1.392 . S
C103 C102 1.390 . S
C103 H115 0.929 . S
O104 Tb88 2.326 . S
O104 C92 1.242 . S
O105 Eu89 2.324 . S
O105 C92 1.258 . S
O106 Tb88 2.500 . S
O106 C108 1.273 . S
O107 Tb88 2.473 . S
O107 C108 1.257 . S
C108 O106 1.273 . S
C108 O107 1.257 . S
O109 Eu89 2.326 . S
O109 C97 1.242 . S
O110 Tb88 2.324 . S
O110 C97 1.258 . S
O111 Eu89 2.500 1_655 S
O111 C94 1.273 . S
O112 Eu89 2.473 . S
O112 C94 1.257 1_455 S
H113 C99 0.950 . S
H114 C101 0.931 . S
H115 C103 0.929 . S
O116 Tb117 2.292 . S
O116 C119 1.255 . S
Tb117 O116 2.292 . S
Tb117 O133 2.326 . S
Tb117 O135 2.500 . S
Tb117 O136 2.473 . S
Tb117 O139 2.324 . S
Eu118 O122 2.292 . S
Eu118 C123 2.852 . S
Eu118 O134 2.324 . S
Eu118 O138 2.326 . S
Eu118 O140 2.500 . S
Eu118 O141 2.473 . S
C119 O116 1.255 . S
C119 O120 1.247 . S
O120 C119 1.247 . S
C121 O133 1.242 . S
C121 O134 1.258 . S
O122 Eu118 2.292 . S
O122 C124 1.255 . S
C123 Eu118 2.852 . S
C123 C127 1.503 . S
C123 O140 1.273 . S
C123 O141 1.257 . S
C124 O122 1.255 . S
C124 O125 1.247 . S
O125 C124 1.247 . S
C126 O138 1.242 . S
C126 O139 1.258 . S
C127 C123 1.503 . S
C127 C128 1.379 . S
C127 C132 1.392 . S
C128 C127 1.379 . S
C128 C129 1.404 . S
C128 H142 0.929 . S
C129 C128 1.404 . S
C129 C130 1.389 . S
C130 C129 1.389 . S
C130 C131 1.399 . S
C130 H143 0.931 . S
C131 C130 1.399 . S
C131 C132 1.390 . S
C132 C127 1.392 . S
C132 C131 1.390 . S
C132 H144 0.929 . S
O133 Tb117 2.326 . S
O133 C121 1.242 . S
O134 Eu118 2.324 . S
O134 C121 1.258 . S
O135 Tb117 2.500 . S
O135 C137 1.273 . S
O136 Tb117 2.473 . S
O136 C137 1.257 . S
C137 O135 1.273 . S
C137 O136 1.257 . S
O138 Eu118 2.326 . S
O138 C126 1.242 . S
O139 Tb117 2.324 . S
O139 C126 1.258 . S
O140 Eu118 2.500 . S
O140 C123 1.273 . S
O141 Eu118 2.473 . S
O141 C123 1.257 . S
H142 C128 0.929 . S
H143 C130 0.931 . S
H144 C132 0.929 . S
O145 Tb146 2.292 . S
O145 C148 1.255 . S
Tb146 O145 2.292 . S
Tb146 O162 2.326 . S
Tb146 O164 2.500 . S
Tb146 O165 2.473 . S
Tb146 O168 2.324 . S
Eu147 O151 2.292 1_455 S
Eu147 C152 2.852 1_455 S
Eu147 O163 2.324 . S
Eu147 O167 2.326 . S
Eu147 O169 2.500 1_455 S
Eu147 O170 2.473 . S
C148 O145 1.255 . S
C148 O149 1.247 . S
O149 C148 1.247 . S
C150 O162 1.242 . S
C150 O163 1.258 . S
O151 Eu147 2.292 1_655 S
O151 C153 1.254 1_655 S
C152 Eu147 2.852 1_655 S
C152 C156 1.503 . S
C152 O169 1.273 . S
C152 O170 1.257 1_655 S
C153 O151 1.254 1_455 S
C153 O154 1.255 . S
O154 C153 1.255 . S
C155 O167 1.242 . S
C155 O168 1.258 . S
C156 C152 1.503 . S
C156 C157 1.368 1_655 S
C156 C161 1.392 . S
C157 C156 1.368 1_455 S
C157 C158 1.395 1_455 S
C157 H171 0.950 . S
C158 C157 1.395 1_655 S
C158 C159 1.389 . S
C159 C158 1.389 . S
C159 C160 1.399 . S
C159 H172 0.931 . S
C160 C159 1.399 . S
C160 C161 1.390 . S
C161 C156 1.392 . S
C161 C160 1.390 . S
C161 H173 0.929 . S
O162 Tb146 2.326 . S
O162 C150 1.242 . S
O163 Eu147 2.324 . S
O163 C150 1.258 . S
O164 Tb146 2.500 . S
O164 C166 1.273 . S
O165 Tb146 2.473 . S
O165 C166 1.257 . S
C166 O164 1.273 . S
C166 O165 1.257 . S
O167 Eu147 2.326 . S
O167 C155 1.242 . S
O168 Tb146 2.324 . S
O168 C155 1.258 . S
O169 Eu147 2.500 1_655 S
O169 C152 1.273 . S
O170 Eu147 2.473 . S
O170 C152 1.257 1_455 S
H171 C157 0.950 . S
H172 C159 0.931 . S
H173 C161 0.929 . S
O174 Tb175 2.292 . S
O174 C177 1.255 . S
Tb175 O174 2.292 . S
Tb175 O191 2.326 . S
Tb175 O193 2.500 . S
Tb175 O194 2.473 . S
Tb175 O197 2.324 . S
Eu176 O180 2.292 1_545 S
Eu176 C181 2.852 1_545 S
Eu176 O192 2.324 . S
Eu176 O196 2.326 . S
Eu176 O198 2.500 1_545 S
Eu176 O199 2.473 . S
C177 O174 1.255 . S
C177 O178 1.247 . S
O178 C177 1.247 . S
C179 O191 1.242 . S
C179 O192 1.258 . S
O180 Eu176 2.292 1_565 S
O180 C182 1.254 1_565 S
C181 Eu176 2.852 1_565 S
C181 C185 1.503 . S
C181 O198 1.273 . S
C181 O199 1.257 1_565 S
C182 O180 1.254 1_545 S
C182 O183 1.255 . S
O183 C182 1.255 . S
C184 O196 1.242 . S
C184 O197 1.258 . S
C185 C181 1.503 . S
C185 C186 1.368 1_565 S
C185 C190 1.392 . S
C186 C185 1.368 1_545 S
C186 C187 1.395 1_545 S
C186 H200 0.950 . S
C187 C186 1.395 1_565 S
C187 C188 1.389 . S
C188 C187 1.389 . S
C188 C189 1.399 . S
C188 H201 0.931 . S
C189 C188 1.399 . S
C189 C190 1.390 . S
C190 C185 1.392 . S
C190 C189 1.390 . S
C190 H202 0.929 . S
O191 Tb175 2.326 . S
O191 C179 1.242 . S
O192 Eu176 2.324 . S
O192 C179 1.258 . S
O193 Tb175 2.500 . S
O193 C195 1.273 . S
O194 Tb175 2.473 . S
O194 C195 1.257 . S
C195 O193 1.273 . S
C195 O194 1.257 . S
O196 Eu176 2.326 . S
O196 C184 1.242 . S
O197 Tb175 2.324 . S
O197 C184 1.258 . S
O198 Eu176 2.500 1_565 S
O198 C181 1.273 . S
O199 Eu176 2.473 . S
O199 C181 1.257 1_545 S
H200 C186 0.950 . S
H201 C188 0.931 . S
H202 C190 0.929 . S
O203 Tb204 2.292 . S
O203 C206 1.255 . S
Tb204 O203 2.292 . S
Tb204 O220 2.326 . S
Tb204 O222 2.500 . S
Tb204 O223 2.473 . S
Tb204 O226 2.324 . S
Eu205 O209 2.292 . S
Eu205 C210 2.852 . S
Eu205 O221 2.324 . S
Eu205 O225 2.326 . S
Eu205 O227 2.500 . S
Eu205 O228 2.473 . S
C206 O203 1.255 . S
C206 O207 1.247 . S
O207 C206 1.247 . S
C208 O220 1.242 . S
C208 O221 1.258 . S
O209 Eu205 2.292 . S
O209 C211 1.255 . S
C210 Eu205 2.852 . S
C210 C214 1.503 . S
C210 O227 1.273 . S
C210 O228 1.257 . S
C211 O209 1.255 . S
C211 O212 1.247 . S
O212 C211 1.247 . S
C213 O225 1.242 . S
C213 O226 1.258 . S
C214 C210 1.503 . S
C214 C215 1.379 . S
C214 C219 1.392 . S
C215 C214 1.379 . S
C215 C216 1.404 . S
C215 H229 0.929 . S
C216 C215 1.404 . S
C216 C217 1.389 . S
C217 C216 1.389 . S
C217 C218 1.399 . S
C217 H230 0.931 . S
C218 C217 1.399 . S
C218 C219 1.390 . S
C219 C214 1.392 . S
C219 C218 1.390 . S
C219 H231 0.929 . S
O220 Tb204 2.326 . S
O220 C208 1.242 . S
O221 Eu205 2.324 . S
O221 C208 1.258 . S
O222 Tb204 2.500 . S
O222 C224 1.273 . S
O223 Tb204 2.473 . S
O223 C224 1.257 . S
C224 O222 1.273 . S
C224 O223 1.257 . S
O225 Eu205 2.326 . S
O225 C213 1.242 . S
O226 Tb204 2.324 . S
O226 C213 1.258 . S
O227 Eu205 2.500 . S
O227 C210 1.273 . S
O228 Eu205 2.473 . S
O228 C210 1.257 . S
H229 C215 0.929 . S
H230 C217 0.931 . S
H231 C219 0.929 . S
O232 Tb233 2.292 . S
O232 C235 1.255 . S
Tb233 O232 2.292 . S
Tb233 O249 2.326 . S
Tb233 O251 2.500 . S
Tb233 O252 2.473 . S
Tb233 O255 2.324 . S
Eu234 O238 2.292 1_565 S
Eu234 C239 2.852 1_565 S
Eu234 O250 2.324 . S
Eu234 O254 2.326 . S
Eu234 O256 2.500 1_565 S
Eu234 O257 2.473 . S
C235 O232 1.255 . S
C235 O236 1.247 . S
O236 C235 1.247 . S
C237 O249 1.242 . S
C237 O250 1.258 . S
O238 Eu234 2.292 1_545 S
O238 C240 1.254 1_545 S
C239 Eu234 2.852 1_545 S
C239 C243 1.503 . S
C239 O256 1.273 . S
C239 O257 1.257 1_545 S
C240 O238 1.254 1_565 S
C240 O241 1.255 . S
O241 C240 1.255 . S
C242 O254 1.242 . S
C242 O255 1.258 . S
C243 C239 1.503 . S
C243 C244 1.368 1_545 S
C243 C248 1.392 . S
C244 C243 1.368 1_565 S
C244 C245 1.395 1_565 S
C244 H258 0.950 . S
C245 C244 1.395 1_545 S
C245 C246 1.389 . S
C246 C245 1.389 . S
C246 C247 1.399 . S
C246 H259 0.931 . S
C247 C246 1.399 . S
C247 C248 1.390 . S
C248 C243 1.392 . S
C248 C247 1.390 . S
C248 H260 0.929 . S
O249 Tb233 2.326 . S
O249 C237 1.242 . S
O250 Eu234 2.324 . S
O250 C237 1.258 . S
O251 Tb233 2.500 . S
O251 C253 1.273 . S
O252 Tb233 2.473 . S
O252 C253 1.257 . S
C253 O251 1.273 . S
C253 O252 1.257 . S
O254 Eu234 2.326 . S
O254 C242 1.242 . S
O255 Tb233 2.324 . S
O255 C242 1.258 . S
O256 Eu234 2.500 1_545 S
O256 C239 1.273 . S
O257 Eu234 2.473 . S
O257 C239 1.257 1_565 S
H258 C244 0.950 . S
H259 C246 0.931 . S
H260 C248 0.929 . S
O261 Tb262 2.292 . S
O261 C264 1.255 . S
Tb262 O261 2.292 . S
Tb262 O278 2.326 . S
Tb262 O280 2.500 . S
Tb262 O281 2.473 . S
Tb262 O284 2.324 . S
Eu263 O267 2.292 . S
Eu263 C268 2.852 . S
Eu263 O279 2.324 . S
Eu263 O283 2.326 . S
Eu263 O285 2.500 . S
Eu263 O286 2.473 . S
C264 O261 1.255 . S
C264 O265 1.247 . S
O265 C264 1.247 . S
C266 O278 1.242 . S
C266 O279 1.258 . S
O267 Eu263 2.292 . S
O267 C269 1.255 . S
C268 Eu263 2.852 . S
C268 C272 1.503 . S
C268 O285 1.273 . S
C268 O286 1.257 . S
C269 O267 1.255 . S
C269 O270 1.247 . S
O270 C269 1.247 . S
C271 O283 1.242 . S
C271 O284 1.258 . S
C272 C268 1.503 . S
C272 C273 1.379 . S
C272 C277 1.392 . S
C273 C272 1.379 . S
C273 C274 1.404 . S
C273 H287 0.929 . S
C274 C273 1.404 . S
C274 C275 1.389 . S
C275 C274 1.389 . S
C275 C276 1.399 . S
C275 H288 0.931 . S
C276 C275 1.399 . S
C276 C277 1.390 . S
C277 C272 1.392 . S
C277 C276 1.390 . S
C277 H289 0.929 . S
O278 Tb262 2.326 . S
O278 C266 1.242 . S
O279 Eu263 2.324 . S
O279 C266 1.258 . S
O280 Tb262 2.500 . S
O280 C282 1.273 . S
O281 Tb262 2.473 . S
O281 C282 1.257 . S
C282 O280 1.273 . S
C282 O281 1.257 . S
O283 Eu263 2.326 . S
O283 C271 1.242 . S
O284 Tb262 2.324 . S
O284 C271 1.258 . S
O285 Eu263 2.500 . S
O285 C268 1.273 . S
O286 Eu263 2.473 . S
O286 C268 1.257 . S
H287 C273 0.929 . S
H288 C275 0.931 . S
H289 C277 0.929 . S
O290 Tb291 2.292 . S
O290 C293 1.255 . S
Tb291 O290 2.292 . S
Tb291 O307 2.326 . S
Tb291 O309 2.500 . S
Tb291 O310 2.473 . S
Tb291 O313 2.324 . S
Eu292 O296 2.292 . S
Eu292 C297 2.852 . S
Eu292 O308 2.324 . S
Eu292 O312 2.326 . S
Eu292 O314 2.500 . S
Eu292 O315 2.473 . S
C293 O290 1.255 . S
C293 O294 1.247 . S
O294 C293 1.247 . S
C295 O307 1.242 . S
C295 O308 1.258 . S
O296 Eu292 2.292 . S
O296 C298 1.255 . S
C297 Eu292 2.852 . S
C297 C301 1.503 . S
C297 O314 1.273 . S
C297 O315 1.257 . S
C298 O296 1.255 . S
C298 O299 1.247 . S
O299 C298 1.247 . S
C300 O312 1.242 . S
C300 O313 1.258 . S
C301 C297 1.503 . S
C301 C302 1.379 . S
C301 C306 1.392 . S
C302 C301 1.379 . S
C302 C303 1.404 . S
C302 H316 0.929 . S
C303 C302 1.404 . S
C303 C304 1.389 . S
C304 C303 1.389 . S
C304 C305 1.399 . S
C304 H317 0.931 . S
C305 C304 1.399 . S
C305 C306 1.390 . S
C306 C301 1.392 . S
C306 C305 1.390 . S
C306 H318 0.929 . S
O307 Tb291 2.326 . S
O307 C295 1.242 . S
O308 Eu292 2.324 . S
O308 C295 1.258 . S
O309 Tb291 2.500 . S
O309 C311 1.273 . S
O310 Tb291 2.473 . S
O310 C311 1.257 . S
C311 O309 1.273 . S
C311 O310 1.257 . S
O312 Eu292 2.326 . S
O312 C300 1.242 . S
O313 Tb291 2.324 . S
O313 C300 1.258 . S
O314 Eu292 2.500 . S
O314 C297 1.273 . S
O315 Eu292 2.473 . S
O315 C297 1.257 . S
H316 C302 0.929 . S
H317 C304 0.931 . S
H318 C306 0.929 . S
O319 Tb320 2.292 . S
O319 C322 1.255 . S
Tb320 O319 2.292 . S
Tb320 O336 2.326 . S
Tb320 O338 2.500 . S
Tb320 O339 2.473 . S
Tb320 O342 2.324 . S
Eu321 O325 2.292 1_655 S
Eu321 C326 2.852 1_655 S
Eu321 O337 2.324 . S
Eu321 O341 2.326 . S
Eu321 O343 2.500 1_655 S
Eu321 O344 2.473 . S
C322 O319 1.255 . S
C322 O323 1.247 . S
O323 C322 1.247 . S
C324 O336 1.242 . S
C324 O337 1.258 . S
O325 Eu321 2.292 1_455 S
O325 C327 1.254 1_455 S
C326 Eu321 2.852 1_455 S
C326 C330 1.503 . S
C326 O343 1.273 . S
C326 O344 1.257 1_455 S
C327 O325 1.254 1_655 S
C327 O328 1.255 . S
O328 C327 1.255 . S
C329 O341 1.242 . S
C329 O342 1.258 . S
C330 C326 1.503 . S
C330 C331 1.368 1_455 S
C330 C335 1.392 . S
C331 C330 1.368 1_655 S
C331 C332 1.395 1_655 S
C331 H345 0.950 . S
C332 C331 1.395 1_455 S
C332 C333 1.389 . S
C333 C332 1.389 . S
C333 C334 1.399 . S
C333 H346 0.931 . S
C334 C333 1.399 . S
C334 C335 1.390 . S
C335 C330 1.392 . S
C335 C334 1.390 . S
C335 H347 0.929 . S
O336 Tb320 2.326 . S
O336 C324 1.242 . S
O337 Eu321 2.324 . S
O337 C324 1.258 . S
O338 Tb320 2.500 . S
O338 C340 1.273 . S
O339 Tb320 2.473 . S
O339 C340 1.257 . S
C340 O338 1.273 . S
C340 O339 1.257 . S
O341 Eu321 2.326 . S
O341 C329 1.242 . S
O342 Tb320 2.324 . S
O342 C329 1.258 . S
O343 Eu321 2.500 1_455 S
O343 C326 1.273 . S
O344 Eu321 2.473 . S
O344 C326 1.257 1_655 S
H345 C331 0.950 . S
H346 C333 0.931 . S
H347 C335 0.929 . S
O348 Tb349 2.292 . S
O348 C351 1.255 . S
Tb349 O348 2.292 . S
Tb349 O365 2.326 . S
Tb349 O367 2.500 . S
Tb349 O368 2.473 . S
Tb349 O371 2.324 . S
Eu350 O354 2.292 . S
Eu350 C355 2.852 . S
Eu350 O366 2.324 . S
Eu350 O370 2.326 . S
Eu350 O372 2.500 . S
Eu350 O373 2.473 . S
C351 O348 1.255 . S
C351 O352 1.247 . S
O352 C351 1.247 . S
C353 O365 1.242 . S
C353 O366 1.258 . S
O354 Eu350 2.292 . S
O354 C356 1.255 . S
C355 Eu350 2.852 . S
C355 C359 1.503 . S
C355 O372 1.273 . S
C355 O373 1.257 . S
C356 O354 1.255 . S
C356 O357 1.247 . S
O357 C356 1.247 . S
C358 O370 1.242 . S
C358 O371 1.258 . S
C359 C355 1.503 . S
C359 C360 1.379 . S
C359 C364 1.392 . S
C360 C359 1.379 . S
C360 C361 1.404 . S
C360 H374 0.929 . S
C361 C360 1.404 . S
C361 C362 1.389 . S
C362 C361 1.389 . S
C362 C363 1.399 . S
C362 H375 0.931 . S
C363 C362 1.399 . S
C363 C364 1.390 . S
C364 C359 1.392 . S
C364 C363 1.390 . S
C364 H376 0.929 . S
O365 Tb349 2.326 . S
O365 C353 1.242 . S
O366 Eu350 2.324 . S
O366 C353 1.258 . S
O367 Tb349 2.500 . S
O367 C369 1.273 . S
O368 Tb349 2.473 . S
O368 C369 1.257 . S
C369 O367 1.273 . S
C369 O368 1.257 . S
O370 Eu350 2.326 . S
O370 C358 1.242 . S
O371 Tb349 2.324 . S
O371 C358 1.258 . S
O372 Eu350 2.500 . S
O372 C355 1.273 . S
O373 Eu350 2.473 . S
O373 C355 1.257 . S
H374 C360 0.929 . S
H375 C362 0.931 . S
H376 C364 0.929 . S
O377 Tb378 2.292 . S
O377 C380 1.255 . S
Tb378 O377 2.292 . S
Tb378 O394 2.326 . S
Tb378 O396 2.500 . S
Tb378 O397 2.473 . S
Tb378 O400 2.324 . S
Eu379 O383 2.292 1_655 S
Eu379 C384 2.852 1_655 S
Eu379 O395 2.324 . S
Eu379 O399 2.326 . S
Eu379 O401 2.500 1_655 S
Eu379 O402 2.473 . S
C380 O377 1.255 . S
C380 O381 1.247 . S
O381 C380 1.247 . S
C382 O394 1.242 . S
C382 O395 1.258 . S
O383 Eu379 2.292 1_455 S
O383 C385 1.254 1_455 S
C384 Eu379 2.852 1_455 S
C384 C388 1.503 . S
C384 O401 1.273 . S
C384 O402 1.257 1_455 S
C385 O383 1.254 1_655 S
C385 O386 1.255 . S
O386 C385 1.255 . S
C387 O399 1.242 . S
C387 O400 1.258 . S
C388 C384 1.503 . S
C388 C389 1.368 1_455 S
C388 C393 1.392 . S
C389 C388 1.368 1_655 S
C389 C390 1.395 1_655 S
C389 H403 0.950 . S
C390 C389 1.395 1_455 S
C390 C391 1.389 . S
C391 C390 1.389 . S
C391 C392 1.399 . S
C391 H404 0.931 . S
C392 C391 1.399 . S
C392 C393 1.390 . S
C393 C388 1.392 . S
C393 C392 1.390 . S
C393 H405 0.929 . S
O394 Tb378 2.326 . S
O394 C382 1.242 . S
O395 Eu379 2.324 . S
O395 C382 1.258 . S
O396 Tb378 2.500 . S
O396 C398 1.273 . S
O397 Tb378 2.473 . S
O397 C398 1.257 . S
C398 O396 1.273 . S
C398 O397 1.257 . S
O399 Eu379 2.326 . S
O399 C387 1.242 . S
O400 Tb378 2.324 . S
O400 C387 1.258 . S
O401 Eu379 2.500 1_455 S
O401 C384 1.273 . S
O402 Eu379 2.473 . S
O402 C384 1.257 1_655 S
H403 C389 0.950 . S
H404 C391 0.931 . S
H405 C393 0.929 . S
O406 Tb407 2.292 . S
O406 C409 1.255 . S
Tb407 O406 2.292 . S
Tb407 O423 2.326 . S
Tb407 O425 2.500 . S
Tb407 O426 2.473 . S
Tb407 O429 2.324 . S
Eu408 O412 2.292 1_565 S
Eu408 C413 2.852 1_565 S
Eu408 O424 2.324 . S
Eu408 O428 2.326 . S
Eu408 O430 2.500 1_565 S
Eu408 O431 2.473 . S
C409 O406 1.255 . S
C409 O410 1.247 . S
O410 C409 1.247 . S
C411 O423 1.242 . S
C411 O424 1.258 . S
O412 Eu408 2.292 1_545 S
O412 C414 1.254 1_545 S
C413 Eu408 2.852 1_545 S
C413 C417 1.503 . S
C413 O430 1.273 . S
C413 O431 1.257 1_545 S
C414 O412 1.254 1_565 S
C414 O415 1.255 . S
O415 C414 1.255 . S
C416 O428 1.242 . S
C416 O429 1.258 . S
C417 C413 1.503 . S
C417 C418 1.368 1_545 S
C417 C422 1.392 . S
C418 C417 1.368 1_565 S
C418 C419 1.395 1_565 S
C418 H432 0.950 . S
C419 C418 1.395 1_545 S
C419 C420 1.389 . S
C420 C419 1.389 . S
C420 C421 1.399 . S
C420 H433 0.931 . S
C421 C420 1.399 . S
C421 C422 1.390 . S
C422 C417 1.392 . S
C422 C421 1.390 . S
C422 H434 0.929 . S
O423 Tb407 2.326 . S
O423 C411 1.242 . S
O424 Eu408 2.324 . S
O424 C411 1.258 . S
O425 Tb407 2.500 . S
O425 C427 1.273 . S
O426 Tb407 2.473 . S
O426 C427 1.257 . S
C427 O425 1.273 . S
C427 O426 1.257 . S
O428 Eu408 2.326 . S
O428 C416 1.242 . S
O429 Tb407 2.324 . S
O429 C416 1.258 . S
O430 Eu408 2.500 1_545 S
O430 C413 1.273 . S
O431 Eu408 2.473 . S
O431 C413 1.257 1_565 S
H432 C418 0.950 . S
H433 C420 0.931 . S
H434 C422 0.929 . S
O435 Tb436 2.292 . S
O435 C438 1.255 . S
Tb436 O435 2.292 . S
Tb436 O452 2.326 . S
Tb436 O454 2.500 . S
Tb436 O455 2.473 . S
Tb436 O458 2.324 . S
Eu437 O441 2.292 . S
Eu437 C442 2.852 . S
Eu437 O453 2.324 . S
Eu437 O457 2.326 . S
Eu437 O459 2.500 . S
Eu437 O460 2.473 . S
C438 O435 1.255 . S
C438 O439 1.247 . S
O439 C438 1.247 . S
C440 O452 1.242 . S
C440 O453 1.258 . S
O441 Eu437 2.292 . S
O441 C443 1.255 . S
C442 Eu437 2.852 . S
C442 C446 1.503 . S
C442 O459 1.273 . S
C442 O460 1.257 . S
C443 O441 1.255 . S
C443 O444 1.247 . S
O444 C443 1.247 . S
C445 O457 1.242 . S
C445 O458 1.258 . S
C446 C442 1.503 . S
C446 C447 1.379 . S
C446 C451 1.392 . S
C447 C446 1.379 . S
C447 C448 1.404 . S
C447 H461 0.929 . S
C448 C447 1.404 . S
C448 C449 1.389 . S
C449 C448 1.389 . S
C449 C450 1.399 . S
C449 H462 0.931 . S
C450 C449 1.399 . S
C450 C451 1.390 . S
C451 C446 1.392 . S
C451 C450 1.390 . S
C451 H463 0.929 . S
O452 Tb436 2.326 . S
O452 C440 1.242 . S
O453 Eu437 2.324 . S
O453 C440 1.258 . S
O454 Tb436 2.500 . S
O454 C456 1.273 . S
O455 Tb436 2.473 . S
O455 C456 1.257 . S
C456 O454 1.273 . S
C456 O455 1.257 . S
O457 Eu437 2.326 . S
O457 C445 1.242 . S
O458 Tb436 2.324 . S
O458 C445 1.258 . S
O459 Eu437 2.500 . S
O459 C442 1.273 . S
O460 Eu437 2.473 . S
O460 C442 1.257 . S
H461 C447 0.929 . S
H462 C449 0.931 . S
H463 C451 0.929 . S
C464 C465 1.363 . S
C464 C470 1.379 . S
C464 N472 1.356 . S
C465 C464 1.363 . S
C465 C471 1.363 . S
C466 C467 1.363 . S
C466 C471 1.379 . S
C466 N473 1.356 . S
C467 C466 1.363 . S
C467 C470 1.363 . S
N468 C470 1.356 . S
N468 H480 0.984 . S
N468 H481 0.985 . S
N469 C471 1.356 . S
N469 H474 0.984 . S
N469 H475 0.985 . S
C470 C464 1.379 . S
C470 C467 1.363 . S
C470 N468 1.356 . S
C471 C465 1.363 . S
C471 C466 1.379 . S
C471 N469 1.356 . S
N472 C464 1.356 . S
N472 H478 0.984 . S
N472 H479 0.984 . S
N473 C466 1.356 . S
N473 H476 0.984 . S
N473 H477 0.985 . S
H474 N469 0.984 . S
H475 N469 0.985 . S
H476 N473 0.984 . S
H477 N473 0.985 . S
H478 N472 0.984 . S
H479 N472 0.984 . S
H480 N468 0.984 . S
H481 N468 0.985 . S
C482 C483 1.363 . S
C482 C488 1.379 . S
C482 N490 1.356 . S
C483 C482 1.363 . S
C483 C489 1.363 . S
C484 C485 1.363 . S
C484 C489 1.379 . S
C484 N491 1.356 . S
C485 C484 1.363 . S
C485 C488 1.363 . S
N486 C488 1.356 . S
N486 H498 0.984 . S
N486 H499 0.985 . S
N487 C489 1.356 . S
N487 H492 0.984 . S
N487 H493 0.985 . S
C488 C482 1.379 . S
C488 C485 1.363 . S
C488 N486 1.356 . S
C489 C483 1.363 . S
C489 C484 1.379 . S
C489 N487 1.356 . S
N490 C482 1.356 . S
N490 H496 0.984 . S
N490 H497 0.984 . S
N491 C484 1.356 . S
N491 H494 0.984 . S
N491 H495 0.985 . S
H492 N487 0.984 . S
H493 N487 0.985 . S
H494 N491 0.984 . S
H495 N491 0.985 . S
H496 N490 0.984 . S
H497 N490 0.984 . S
H498 N486 0.984 . S
H499 N486 0.985 . S
C500 C501 1.363 . S
C500 C506 1.379 . S
C500 N508 1.356 . S
C501 C500 1.363 . S
C501 C507 1.363 . S
C502 C503 1.363 . S
C502 C507 1.379 . S
C502 N509 1.356 . S
C503 C502 1.363 . S
C503 C506 1.363 . S
N504 C506 1.356 . S
N504 H516 0.984 . S
N504 H517 0.985 . S
N505 C507 1.356 . S
N505 H510 0.984 . S
N505 H511 0.985 . S
C506 C500 1.379 . S
C506 C503 1.363 . S
C506 N504 1.356 . S
C507 C501 1.363 . S
C507 C502 1.379 . S
C507 N505 1.356 . S
N508 C500 1.356 . S
N508 H514 0.984 . S
N508 H515 0.984 . S
N509 C502 1.356 . S
N509 H512 0.984 . S
N509 H513 0.985 . S
H510 N505 0.984 . S
H511 N505 0.985 . S
H512 N509 0.984 . S
H513 N509 0.985 . S
H514 N508 0.984 . S
H515 N508 0.984 . S
H516 N504 0.984 . S
H517 N504 0.985 . S
C518 C519 1.363 . S
C518 C524 1.379 . S
C518 N526 1.356 . S
C519 C518 1.363 . S
C519 C525 1.363 . S
C520 C521 1.363 . S
C520 C525 1.379 . S
C520 N527 1.356 . S
C521 C520 1.363 . S
C521 C524 1.363 . S
N522 C524 1.356 . S
N522 H534 0.984 . S
N522 H535 0.985 . S
N523 C525 1.356 . S
N523 H528 0.984 . S
N523 H529 0.985 . S
C524 C518 1.379 . S
C524 C521 1.363 . S
C524 N522 1.356 . S
C525 C519 1.363 . S
C525 C520 1.379 . S
C525 N523 1.356 . S
N526 C518 1.356 . S
N526 H532 0.984 . S
N526 H533 0.984 . S
N527 C520 1.356 . S
N527 H530 0.984 . S
N527 H531 0.985 . S
H528 N523 0.984 . S
H529 N523 0.985 . S
H530 N527 0.984 . S
H531 N527 0.985 . S
H532 N526 0.984 . S
H533 N526 0.984 . S
H534 N522 0.984 . S
H535 N522 0.985 . S
C536 C537 1.363 . S
C536 C542 1.379 . S
C536 N544 1.356 . S
C537 C536 1.363 . S
C537 C543 1.363 . S
C538 C539 1.363 . S
C538 C543 1.379 . S
C538 N545 1.356 . S
C539 C538 1.363 . S
C539 C542 1.363 . S
N540 C542 1.356 . S
N540 H552 0.984 . S
N540 H553 0.985 . S
N541 C543 1.356 . S
N541 H546 0.984 . S
N541 H547 0.985 . S
C542 C536 1.379 . S
C542 C539 1.363 . S
C542 N540 1.356 . S
C543 C537 1.363 . S
C543 C538 1.379 . S
C543 N541 1.356 . S
N544 C536 1.356 . S
N544 H550 0.984 . S
N544 H551 0.984 . S
N545 C538 1.356 . S
N545 H548 0.984 . S
N545 H549 0.985 . S
H546 N541 0.984 . S
H547 N541 0.985 . S
H548 N545 0.984 . S
H549 N545 0.985 . S
H550 N544 0.984 . S
H551 N544 0.984 . S
H552 N540 0.984 . S
H553 N540 0.985 . S
C554 C555 1.363 . S
C554 C560 1.379 . S
C554 N562 1.356 . S
C555 C554 1.363 . S
C555 C561 1.363 . S
C556 C557 1.363 . S
C556 C561 1.379 . S
C556 N563 1.356 . S
C557 C556 1.363 . S
C557 C560 1.363 . S
N558 C560 1.356 . S
N558 H570 0.984 . S
N558 H571 0.985 . S
N559 C561 1.356 . S
N559 H564 0.984 . S
N559 H565 0.985 . S
C560 C554 1.379 . S
C560 C557 1.363 . S
C560 N558 1.356 . S
C561 C555 1.363 . S
C561 C556 1.379 . S
C561 N559 1.356 . S
N562 C554 1.356 . S
N562 H568 0.984 . S
N562 H569 0.984 . S
N563 C556 1.356 . S
N563 H566 0.984 . S
N563 H567 0.985 . S
H564 N559 0.984 . S
H565 N559 0.985 . S
H566 N563 0.984 . S
H567 N563 0.985 . S
H568 N562 0.984 . S
H569 N562 0.984 . S
H570 N558 0.984 . S
H571 N558 0.985 . S
C572 C573 1.363 . S
C572 C578 1.379 . S
C572 N580 1.356 . S
C573 C572 1.363 . S
C573 C579 1.363 . S
C574 C575 1.363 . S
C574 C579 1.379 . S
C574 N581 1.356 . S
C575 C574 1.363 . S
C575 C578 1.363 . S
N576 C578 1.356 . S
N576 H588 0.984 . S
N576 H589 0.985 . S
N577 C579 1.356 . S
N577 H582 0.984 . S
N577 H583 0.985 . S
C578 C572 1.379 . S
C578 C575 1.363 . S
C578 N576 1.356 . S
C579 C573 1.363 . S
C579 C574 1.379 . S
C579 N577 1.356 . S
N580 C572 1.356 . S
N580 H586 0.984 . S
N580 H587 0.984 . S
N581 C574 1.356 . S
N581 H584 0.984 . S
N581 H585 0.985 . S
H582 N577 0.984 . S
H583 N577 0.985 . S
H584 N581 0.984 . S
H585 N581 0.985 . S
H586 N580 0.984 . S
H587 N580 0.984 . S
H588 N576 0.984 . S
H589 N576 0.985 . S
C590 C591 1.363 . S
C590 C596 1.379 . S
C590 N598 1.356 . S
C591 C590 1.363 . S
C591 C597 1.363 . S
C592 C593 1.363 . S
C592 C597 1.379 . S
C592 N599 1.356 . S
C593 C592 1.363 . S
C593 C596 1.363 . S
N594 C596 1.356 . S
N594 H606 0.984 . S
N594 H607 0.985 . S
N595 C597 1.356 . S
N595 H600 0.984 . S
N595 H601 0.985 . S
C596 C590 1.379 . S
C596 C593 1.363 . S
C596 N594 1.356 . S
C597 C591 1.363 . S
C597 C592 1.379 . S
C597 N595 1.356 . S
N598 C590 1.356 . S
N598 H604 0.984 . S
N598 H605 0.984 . S
N599 C592 1.356 . S
N599 H602 0.984 . S
N599 H603 0.985 . S
H600 N595 0.984 . S
H601 N595 0.985 . S
H602 N599 0.984 . S
H603 N599 0.985 . S
H604 N598 0.984 . S
H605 N598 0.984 . S
H606 N594 0.984 . S
H607 N594 0.985 . S
C608 C609 1.363 . S
C608 C614 1.379 . S
C608 N616 1.356 . S
C609 C608 1.363 . S
C609 C615 1.363 . S
C610 C611 1.363 . S
C610 C615 1.379 1_556 S
C610 N617 1.356 . S
C611 C610 1.363 . S
C611 C614 1.363 1_556 S
N612 C614 1.356 1_556 S
N612 H624 0.983 1_556 S
N612 H625 0.985 . S
N613 C615 1.356 . S
N613 H618 0.984 . S
N613 H619 0.985 . S
C614 C608 1.379 . S
C614 C611 1.363 1_554 S
C614 N612 1.356 1_554 S
C615 C609 1.363 . S
C615 C610 1.379 1_554 S
C615 N613 1.356 . S
N616 C608 1.356 . S
N616 H622 0.984 . S
N616 H623 0.984 . S
N617 C610 1.356 . S
N617 H620 0.984 . S
N617 H621 0.985 . S
H618 N613 0.984 . S
H619 N613 0.985 . S
H620 N617 0.984 . S
H621 N617 0.985 . S
H622 N616 0.984 . S
H623 N616 0.984 . S
H624 N612 0.983 1_554 S
H625 N612 0.985 . S
C626 C627 1.363 1_554 S
C626 C632 1.379 . S
C626 N634 1.356 . S
C627 C626 1.363 1_556 S
C627 C633 1.363 . S
C628 C629 1.363 . S
C628 C633 1.379 1_554 S
C628 N635 1.356 . S
C629 C628 1.363 . S
C629 C632 1.363 . S
N630 C632 1.356 . S
N630 H642 0.984 . S
N630 H643 0.985 . S
N631 C633 1.356 . S
N631 H636 0.984 . S
N631 H637 0.985 . S
C632 C626 1.379 . S
C632 C629 1.363 . S
C632 N630 1.356 . S
C633 C627 1.363 . S
C633 C628 1.379 1_556 S
C633 N631 1.356 . S
N634 C626 1.356 . S
N634 H640 0.984 . S
N634 H641 0.984 1_554 S
N635 C628 1.356 . S
N635 H638 0.984 . S
N635 H639 0.985 1_554 S
H636 N631 0.984 . S
H637 N631 0.985 . S
H638 N635 0.984 . S
H639 N635 0.985 1_556 S
H640 N634 0.984 . S
H641 N634 0.984 1_556 S
H642 N630 0.984 . S
H643 N630 0.985 . S
C644 C645 1.363 . S
C644 C650 1.379 1_554 S
C644 N652 1.356 . S
C645 C644 1.363 . S
C645 C651 1.363 . S
C646 C647 1.363 1_554 S
C646 C651 1.379 . S
C646 N653 1.356 1_554 S
C647 C646 1.363 1_556 S
C647 C650 1.363 . S
N648 C650 1.356 . S
N648 H660 0.984 . S
N648 H661 0.985 . S
N649 C651 1.356 . S
N649 H654 0.984 . S
N649 H655 0.985 . S
C650 C644 1.379 1_556 S
C650 C647 1.363 . S
C650 N648 1.356 . S
C651 C645 1.363 . S
C651 C646 1.379 . S
C651 N649 1.356 . S
N652 C644 1.356 . S
N652 H658 0.984 . S
N652 H659 0.984 . S
N653 C646 1.356 1_556 S
N653 H656 0.984 . S
N653 H657 0.983 1_556 S
H654 N649 0.984 . S
H655 N649 0.985 . S
H656 N653 0.984 . S
H657 N653 0.983 1_554 S
H658 N652 0.984 . S
H659 N652 0.984 . S
H660 N648 0.984 . S
H661 N648 0.985 . S
C662 C663 1.363 1_554 S
C662 C668 1.379 . S
C662 N670 1.356 . S
C663 C662 1.363 1_556 S
C663 C669 1.363 . S
C664 C665 1.363 . S
C664 C669 1.379 1_554 S
C664 N671 1.356 . S
C665 C664 1.363 . S
C665 C668 1.363 . S
N666 C668 1.356 . S
N666 H678 0.984 . S
N666 H679 0.985 . S
N667 C669 1.356 . S
N667 H672 0.984 . S
N667 H673 0.985 . S
C668 C662 1.379 . S
C668 C665 1.363 . S
C668 N666 1.356 . S
C669 C663 1.363 . S
C669 C664 1.379 1_556 S
C669 N667 1.356 . S
N670 C662 1.356 . S
N670 H676 0.984 . S
N670 H677 0.984 1_554 S
N671 C664 1.356 . S
N671 H674 0.984 . S
N671 H675 0.985 1_554 S
H672 N667 0.984 . S
H673 N667 0.985 . S
H674 N671 0.984 . S
H675 N671 0.985 1_556 S
H676 N670 0.984 . S
H677 N670 0.984 1_556 S
H678 N666 0.984 . S
H679 N666 0.985 . S
C680 C681 1.363 . S
C680 C686 1.379 . S
C680 N688 1.356 . S
C681 C680 1.363 . S
C681 C687 1.363 . S
C682 C683 1.363 . S
C682 C687 1.379 . S
C682 N689 1.356 . S
C683 C682 1.363 . S
C683 C686 1.363 . S
N684 C686 1.356 . S
N684 H696 0.984 . S
N684 H697 0.985 . S
N685 C687 1.356 . S
N685 H690 0.984 . S
N685 H691 0.985 . S
C686 C680 1.379 . S
C686 C683 1.363 . S
C686 N684 1.356 . S
C687 C681 1.363 . S
C687 C682 1.379 . S
C687 N685 1.356 . S
N688 C680 1.356 . S
N688 H694 0.984 . S
N688 H695 0.984 . S
N689 C682 1.356 . S
N689 H692 0.984 . S
N689 H693 0.985 . S
H690 N685 0.984 . S
H691 N685 0.985 . S
H692 N689 0.984 . S
H693 N689 0.985 . S
H694 N688 0.984 . S
H695 N688 0.984 . S
H696 N684 0.984 . S
H697 N684 0.985 . S
C698 C699 1.363 . S
C698 C704 1.379 . S
C698 N706 1.356 . S
C699 C698 1.363 . S
C699 C705 1.363 . S
C700 C701 1.363 . S
C700 C705 1.379 . S
C700 N707 1.356 . S
C701 C700 1.363 . S
C701 C704 1.363 . S
N702 C704 1.356 . S
N702 H714 0.984 . S
N702 H715 0.985 . S
N703 C705 1.356 . S
N703 H708 0.984 . S
N703 H709 0.985 . S
C704 C698 1.379 . S
C704 C701 1.363 . S
C704 N702 1.356 . S
C705 C699 1.363 . S
C705 C700 1.379 . S
C705 N703 1.356 . S
N706 C698 1.356 . S
N706 H712 0.984 . S
N706 H713 0.984 . S
N707 C700 1.356 . S
N707 H710 0.984 . S
N707 H711 0.985 . S
H708 N703 0.984 . S
H709 N703 0.985 . S
H710 N707 0.984 . S
H711 N707 0.985 . S
H712 N706 0.984 . S
H713 N706 0.984 . S
H714 N702 0.984 . S
H715 N702 0.985 . S
C716 C717 1.363 . S
C716 C722 1.379 . S
C716 N724 1.356 . S
C717 C716 1.363 . S
C717 C723 1.363 . S
C718 C719 1.363 . S
C718 C723 1.379 . S
C718 N725 1.356 . S
C719 C718 1.363 . S
C719 C722 1.363 . S
N720 C722 1.356 . S
N720 H732 0.984 . S
N720 H733 0.985 . S
N721 C723 1.356 . S
N721 H726 0.984 . S
N721 H727 0.985 . S
C722 C716 1.379 . S
C722 C719 1.363 . S
C722 N720 1.356 . S
C723 C717 1.363 . S
C723 C718 1.379 . S
C723 N721 1.356 . S
N724 C716 1.356 . S
N724 H730 0.984 . S
N724 H731 0.984 . S
N725 C718 1.356 . S
N725 H728 0.984 . S
N725 H729 0.985 . S
H726 N721 0.984 . S
H727 N721 0.985 . S
H728 N725 0.984 . S
H729 N725 0.985 . S
H730 N724 0.984 . S
H731 N724 0.984 . S
H732 N720 0.984 . S
H733 N720 0.985 . S
C734 C735 1.363 . S
C734 C740 1.379 . S
C734 N742 1.356 . S
C735 C734 1.363 . S
C735 C741 1.363 . S
C736 C737 1.363 . S
C736 C741 1.379 . S
C736 N743 1.356 . S
C737 C736 1.363 . S
C737 C740 1.363 . S
N738 C740 1.356 . S
N738 H750 0.984 . S
N738 H751 0.985 . S
N739 C741 1.356 . S
N739 H744 0.984 . S
N739 H745 0.985 . S
C740 C734 1.379 . S
C740 C737 1.363 . S
C740 N738 1.356 . S
C741 C735 1.363 . S
C741 C736 1.379 . S
C741 N739 1.356 . S
N742 C734 1.356 . S
N742 H748 0.984 . S
N742 H749 0.984 . S
N743 C736 1.356 . S
N743 H746 0.984 . S
N743 H747 0.985 . S
H744 N739 0.984 . S
H745 N739 0.985 . S
H746 N743 0.984 . S
H747 N743 0.985 . S
H748 N742 0.984 . S
H749 N742 0.984 . S
H750 N738 0.984 . S
H751 N738 0.985 . S
C752 C753 1.363 . S
C752 C758 1.379 1_556 S
C752 N760 1.356 . S
C753 C752 1.363 . S
C753 C759 1.363 . S
C754 C755 1.363 1_556 S
C754 C759 1.379 . S
C754 N761 1.356 . S
C755 C754 1.363 1_554 S
C755 C758 1.363 . S
N756 C758 1.356 . S
N756 H768 0.984 . S
N756 H769 0.985 . S
N757 C759 1.356 . S
N757 H762 0.984 . S
N757 H763 0.985 . S
C758 C752 1.379 1_554 S
C758 C755 1.363 . S
C758 N756 1.356 . S
C759 C753 1.363 . S
C759 C754 1.379 . S
C759 N757 1.356 . S
N760 C752 1.356 . S
N760 H766 0.984 1_556 S
N760 H767 0.984 . S
N761 C754 1.356 . S
N761 H764 0.984 1_556 S
N761 H765 0.985 . S
H762 N757 0.984 . S
H763 N757 0.985 . S
H764 N761 0.984 1_554 S
H765 N761 0.985 . S
H766 N760 0.984 1_554 S
H767 N760 0.984 . S
H768 N756 0.984 . S
H769 N756 0.985 . S
C770 C771 1.363 . S
C770 C776 1.379 1_554 S
C770 N778 1.356 . S
C771 C770 1.363 . S
C771 C777 1.363 1_554 S
C772 C773 1.363 . S
C772 C777 1.379 . S
C772 N779 1.356 . S
C773 C772 1.363 . S
C773 C776 1.363 . S
N774 C776 1.356 . S
N774 H786 0.984 1_556 S
N774 H787 0.985 . S
N775 C777 1.356 . S
N775 H780 0.984 1_556 S
N775 H781 0.985 . S
C776 C770 1.379 1_556 S
C776 C773 1.363 . S
C776 N774 1.356 . S
C777 C771 1.363 1_556 S
C777 C772 1.379 . S
C777 N775 1.356 . S
N778 C770 1.356 . S
N778 H784 0.984 . S
N778 H785 0.984 . S
N779 C772 1.356 . S
N779 H782 0.984 . S
N779 H783 0.985 . S
H780 N775 0.984 1_554 S
H781 N775 0.985 . S
H782 N779 0.984 . S
H783 N779 0.985 . S
H784 N778 0.984 . S
H785 N778 0.984 . S
H786 N774 0.984 1_554 S
H787 N774 0.985 . S
C788 C789 1.363 . S
C788 C794 1.379 . S
C788 N796 1.356 . S
C789 C788 1.363 . S
C789 C795 1.363 1_556 S
C790 C791 1.363 . S
C790 C795 1.379 . S
C790 N797 1.356 . S
C791 C790 1.363 . S
C791 C794 1.363 1_554 S
N792 C794 1.356 . S
N792 H804 0.984 . S
N792 H805 0.985 1_556 S
N793 C795 1.356 . S
N793 H798 0.984 1_554 S
N793 H799 0.985 . S
C794 C788 1.379 . S
C794 C791 1.363 1_556 S
C794 N792 1.356 . S
C795 C789 1.363 1_554 S
C795 C790 1.379 . S
C795 N793 1.356 . S
N796 C788 1.356 . S
N796 H802 0.984 . S
N796 H803 0.984 . S
N797 C790 1.356 . S
N797 H800 0.984 . S
N797 H801 0.985 . S
H798 N793 0.984 1_556 S
H799 N793 0.985 . S
H800 N797 0.984 . S
H801 N797 0.985 . S
H802 N796 0.984 . S
H803 N796 0.984 . S
H804 N792 0.984 . S
H805 N792 0.985 1_554 S
C806 C807 1.363 . S
C806 C812 1.379 1_554 S
C806 N814 1.356 . S
C807 C806 1.363 . S
C807 C813 1.363 1_554 S
C808 C809 1.363 . S
C808 C813 1.379 . S
C808 N815 1.356 . S
C809 C808 1.363 . S
C809 C812 1.363 . S
N810 C812 1.356 . S
N810 H822 0.990 . S
N810 H823 0.985 . S
N811 C813 1.356 . S
N811 H816 0.984 1_556 S
N811 H817 0.985 . S
C812 C806 1.379 1_556 S
C812 C809 1.363 . S
C812 N810 1.356 . S
C813 C807 1.363 1_556 S
C813 C808 1.379 . S
C813 N811 1.356 . S
N814 C806 1.356 . S
N814 H820 0.984 . S
N814 H821 0.984 . S
N815 C808 1.356 . S
N815 H818 0.984 . S
N815 H819 0.985 . S
H816 N811 0.984 1_554 S
H817 N811 0.985 . S
H818 N815 0.984 . S
H819 N815 0.985 . S
H820 N814 0.984 . S
H821 N814 0.984 . S
H822 N810 0.990 . S
H823 N810 0.985 . S
C824 C825 1.363 . S
C824 C830 1.379 . S
C824 N832 1.356 . S
C825 C824 1.363 . S
C825 C831 1.363 . S
C826 C827 1.363 . S
C826 C831 1.379 . S
C826 N833 1.356 . S
C827 C826 1.363 . S
C827 C830 1.363 . S
N828 C830 1.356 . S
N828 H840 0.984 . S
N828 H841 0.985 . S
N829 C831 1.356 . S
N829 H834 0.984 . S
N829 H835 0.985 . S
C830 C824 1.379 . S
C830 C827 1.363 . S
C830 N828 1.356 . S
C831 C825 1.363 . S
C831 C826 1.379 . S
C831 N829 1.356 . S
N832 C824 1.356 . S
N832 H838 0.984 . S
N832 H839 0.984 . S
N833 C826 1.356 . S
N833 H836 0.984 . S
N833 H837 0.985 . S
H834 N829 0.984 . S
H835 N829 0.985 . S
H836 N833 0.984 . S
H837 N833 0.985 . S
H838 N832 0.984 . S
H839 N832 0.984 . S
H840 N828 0.984 . S
H841 N828 0.985 . S
C842 C843 1.363 . S
C842 C848 1.379 . S
C842 N850 1.356 . S
C843 C842 1.363 . S
C843 C849 1.363 . S
C844 C845 1.363 . S
C844 C849 1.379 . S
C844 N851 1.356 . S
C845 C844 1.363 . S
C845 C848 1.363 . S
N846 C848 1.356 . S
N846 H858 0.984 . S
N846 H859 0.985 . S
N847 C849 1.356 . S
N847 H852 0.984 . S
N847 H853 0.985 . S
C848 C842 1.379 . S
C848 C845 1.363 . S
C848 N846 1.356 . S
C849 C843 1.363 . S
C849 C844 1.379 . S
C849 N847 1.356 . S
N850 C842 1.356 . S
N850 H856 0.984 . S
N850 H857 0.984 . S
N851 C844 1.356 . S
N851 H854 0.984 . S
N851 H855 0.985 . S
H852 N847 0.984 . S
H853 N847 0.985 . S
H854 N851 0.984 . S
H855 N851 0.985 . S
H856 N850 0.984 . S
H857 N850 0.984 . S
H858 N846 0.984 . S
H859 N846 0.985 . S
C860 C861 1.363 . S
C860 C866 1.379 . S
C860 N868 1.356 . S
C861 C860 1.363 . S
C861 C867 1.363 . S
C862 C863 1.363 . S
C862 C867 1.379 . S
C862 N869 1.356 . S
C863 C862 1.363 . S
C863 C866 1.363 . S
N864 C866 1.356 . S
N864 H876 0.984 . S
N864 H877 0.985 . S
N865 C867 1.356 . S
N865 H870 0.984 . S
N865 H871 0.985 . S
C866 C860 1.379 . S
C866 C863 1.363 . S
C866 N864 1.356 . S
C867 C861 1.363 . S
C867 C862 1.379 . S
C867 N865 1.356 . S
N868 C860 1.356 . S
N868 H874 0.984 . S
N868 H875 0.984 . S
N869 C862 1.356 . S
N869 H872 0.984 . S
N869 H873 0.985 . S
H870 N865 0.984 . S
H871 N865 0.985 . S
H872 N869 0.984 . S
H873 N869 0.985 . S
H874 N868 0.984 . S
H875 N868 0.984 . S
H876 N864 0.984 . S
H877 N864 0.985 . S
C878 C879 1.363 . S
C878 C884 1.379 . S
C878 N886 1.356 . S
C879 C878 1.363 . S
C879 C885 1.363 . S
C880 C881 1.363 . S
C880 C885 1.379 . S
C880 N887 1.356 . S
C881 C880 1.363 . S
C881 C884 1.363 . S
N882 C884 1.356 . S
N882 H894 0.984 . S
N882 H895 0.985 . S
N883 C885 1.356 . S
N883 H888 0.984 . S
N883 H889 0.985 . S
C884 C878 1.379 . S
C884 C881 1.363 . S
C884 N882 1.356 . S
C885 C879 1.363 . S
C885 C880 1.379 . S
C885 N883 1.356 . S
N886 C878 1.356 . S
N886 H892 0.984 . S
N886 H893 0.984 . S
N887 C880 1.356 . S
N887 H890 0.984 . S
N887 H891 0.985 . S
H888 N883 0.984 . S
H889 N883 0.985 . S
H890 N887 0.984 . S
H891 N887 0.985 . S
H892 N886 0.984 . S
H893 N886 0.984 . S
H894 N882 0.984 . S
H895 N882 0.985 . S
C896 C897 1.363 . S
C896 C902 1.379 . S
C896 N904 1.356 . S
C897 C896 1.363 . S
C897 C903 1.363 . S
C898 C899 1.363 . S
C898 C903 1.379 . S
C898 N905 1.356 . S
C899 C898 1.363 . S
C899 C902 1.363 . S
N900 C902 1.356 . S
N900 H912 0.984 . S
N900 H913 0.985 . S
N901 C903 1.356 . S
N901 H906 0.984 . S
N901 H907 0.985 . S
C902 C896 1.379 . S
C902 C899 1.363 . S
C902 N900 1.356 . S
C903 C897 1.363 . S
C903 C898 1.379 . S
C903 N901 1.356 . S
N904 C896 1.356 . S
N904 H910 0.984 . S
N904 H911 0.984 . S
N905 C898 1.356 . S
N905 H908 0.984 . S
N905 H909 0.985 . S
H906 N901 0.984 . S
H907 N901 0.985 . S
H908 N905 0.984 . S
H909 N905 0.985 . S
H910 N904 0.984 . S
H911 N904 0.984 . S
H912 N900 0.984 . S
H913 N900 0.985 . S
C914 C915 1.363 . S
C914 C920 1.379 . S
C914 N922 1.356 . S
C915 C914 1.363 . S
C915 C921 1.363 . S
C916 C917 1.363 . S
C916 C921 1.379 . S
C916 N923 1.356 . S
C917 C916 1.363 . S
C917 C920 1.363 . S
N918 C920 1.356 . S
N918 H930 0.984 . S
N918 H931 0.985 . S
N919 C921 1.356 . S
N919 H924 0.984 . S
N919 H925 0.985 . S
C920 C914 1.379 . S
C920 C917 1.363 . S
C920 N918 1.356 . S
C921 C915 1.363 . S
C921 C916 1.379 . S
C921 N919 1.356 . S
N922 C914 1.356 . S
N922 H928 0.984 . S
N922 H929 0.984 . S
N923 C916 1.356 . S
N923 H926 0.984 . S
N923 H927 0.985 . S
H924 N919 0.984 . S
H925 N919 0.985 . S
H926 N923 0.984 . S
H927 N923 0.985 . S
H928 N922 0.984 . S
H929 N922 0.984 . S
H930 N918 0.984 . S
H931 N918 0.985 . S
C932 C933 1.363 . S
C932 C938 1.379 . S
C932 N940 1.356 . S
C933 C932 1.363 . S
C933 C939 1.363 . S
C934 C935 1.363 . S
C934 C939 1.379 . S
C934 N941 1.356 . S
C935 C934 1.363 . S
C935 C938 1.363 . S
N936 C938 1.356 . S
N936 H948 0.984 . S
N936 H949 0.985 . S
N937 C939 1.356 . S
N937 H942 0.984 . S
N937 H943 0.985 . S
C938 C932 1.379 . S
C938 C935 1.363 . S
C938 N936 1.356 . S
C939 C933 1.363 . S
C939 C934 1.379 . S
C939 N937 1.356 . S
N940 C932 1.356 . S
N940 H946 0.984 . S
N940 H947 0.984 . S
N941 C934 1.356 . S
N941 H944 0.984 . S
N941 H945 0.985 . S
H942 N937 0.984 . S
H943 N937 0.985 . S
H944 N941 0.984 . S
H945 N941 0.985 . S
H946 N940 0.984 . S
H947 N940 0.984 . S
H948 N936 0.984 . S
H949 N936 0.985 . S
C950 C951 1.363 . S
C950 C956 1.379 . S
C950 N958 1.356 . S
C951 C950 1.363 . S
C951 C957 1.363 . S
C952 C953 1.363 . S
C952 C957 1.379 . S
C952 N959 1.356 . S
C953 C952 1.363 . S
C953 C956 1.363 . S
N954 C956 1.356 . S
N954 H966 0.984 . S
N954 H967 0.985 . S
N955 C957 1.356 . S
N955 H960 0.984 . S
N955 H961 0.985 . S
C956 C950 1.379 . S
C956 C953 1.363 . S
C956 N954 1.356 . S
C957 C951 1.363 . S
C957 C952 1.379 . S
C957 N955 1.356 . S
N958 C950 1.356 . S
N958 H964 0.984 . S
N958 H965 0.984 . S
N959 C952 1.356 . S
N959 H962 0.984 . S
N959 H963 0.985 . S
H960 N955 0.984 . S
H961 N955 0.985 . S
H962 N959 0.984 . S
H963 N959 0.985 . S
H964 N958 0.984 . S
H965 N958 0.984 . S
H966 N954 0.984 . S
H967 N954 0.985 . S
C968 C969 1.363 . S
C968 C974 1.379 . S
C968 N976 1.356 . S
C969 C968 1.363 . S
C969 C975 1.363 . S
C970 C971 1.363 . S
C970 C975 1.379 . S
C970 N977 1.356 . S
C971 C970 1.363 . S
C971 C974 1.363 . S
N972 C974 1.356 . S
N972 H984 0.984 . S
N972 H985 0.985 . S
N973 C975 1.356 . S
N973 H978 0.984 . S
N973 H979 0.985 1_565 S
C974 C968 1.379 . S
C974 C971 1.363 . S
C974 N972 1.356 . S
C975 C969 1.363 . S
C975 C970 1.379 . S
C975 N973 1.356 . S
N976 C968 1.356 . S
N976 H982 0.984 . S
N976 H983 0.984 . S
N977 C970 1.356 . S
N977 H980 0.984 . S
N977 H981 0.985 1_565 S
H978 N973 0.984 . S
H979 N973 0.985 1_545 S
H980 N977 0.984 . S
H981 N977 0.985 1_545 S
H982 N976 0.984 . S
H983 N976 0.984 . S
H984 N972 0.984 . S
H985 N972 0.985 . S
C986 C987 1.363 . S
C986 C992 1.379 . S
C986 N994 1.356 . S
C987 C986 1.363 . S
C987 C993 1.363 . S
C988 C989 1.363 . S
C988 C993 1.379 . S
C988 N995 1.356 . S
C989 C988 1.363 . S
C989 C992 1.363 . S
N990 C992 1.356 . S
N990 H1002 0.984 . S
N990 H1003 0.985 . S
N991 C993 1.356 . S
N991 H996 0.984 . S
N991 H997 0.985 . S
C992 C986 1.379 . S
C992 C989 1.363 . S
C992 N990 1.356 . S
C993 C987 1.363 . S
C993 C988 1.379 . S
C993 N991 1.356 . S
N994 C986 1.356 . S
N994 H1000 0.984 . S
N994 H1001 0.984 . S
N995 C988 1.356 . S
N995 H998 0.984 . S
N995 H999 0.985 . S
H996 N991 0.984 . S
H997 N991 0.985 . S
H998 N995 0.984 . S
H999 N995 0.985 . S
H1000 N994 0.984 . S
H1001 N994 0.984 . S
H1002 N990 0.984 . S
H1003 N990 0.985 . S
C1004 C1005 1.363 . S
C1004 C1010 1.379 . S
C1004 N1012 1.356 . S
C1005 C1004 1.363 . S
C1005 C1011 1.363 . S
C1006 C1007 1.363 . S
C1006 C1011 1.379 . S
C1006 N1013 1.356 . S
C1007 C1006 1.363 . S
C1007 C1010 1.363 . S
N1008 C1010 1.356 . S
N1008 H1020 0.984 . S
N1008 H1021 0.985 . S
N1009 C1011 1.356 . S
N1009 H1014 0.984 . S
N1009 H1015 0.985 . S
C1010 C1004 1.379 . S
C1010 C1007 1.363 . S
C1010 N1008 1.356 . S
C1011 C1005 1.363 . S
C1011 C1006 1.379 . S
C1011 N1009 1.356 . S
N1012 C1004 1.356 . S
N1012 H1018 0.984 . S
N1012 H1019 0.984 . S
N1013 C1006 1.356 . S
N1013 H1016 0.984 . S
N1013 H1017 0.985 . S
H1014 N1009 0.984 . S
H1015 N1009 0.985 . S
H1016 N1013 0.984 . S
H1017 N1013 0.985 . S
H1018 N1012 0.984 . S
H1019 N1012 0.984 . S
H1020 N1008 0.984 . S
H1021 N1008 0.985 . S
C1022 C1023 1.363 . S
C1022 C1028 1.379 . S
C1022 N1030 1.356 . S
C1023 C1022 1.363 . S
C1023 C1029 1.363 . S
C1024 C1025 1.363 . S
C1024 C1029 1.379 . S
C1024 N1031 1.356 . S
C1025 C1024 1.363 . S
C1025 C1028 1.363 . S
N1026 C1028 1.356 . S
N1026 H1038 0.984 . S
N1026 H1039 0.985 . S
N1027 C1029 1.356 . S
N1027 H1032 0.984 . S
N1027 H1033 0.985 . S
C1028 C1022 1.379 . S
C1028 C1025 1.363 . S
C1028 N1026 1.356 . S
C1029 C1023 1.363 . S
C1029 C1024 1.379 . S
C1029 N1027 1.356 . S
N1030 C1022 1.356 . S
N1030 H1036 0.984 . S
N1030 H1037 0.984 . S
N1031 C1024 1.356 . S
N1031 H1034 0.984 . S
N1031 H1035 0.985 . S
H1032 N1027 0.984 . S
H1033 N1027 0.985 . S
H1034 N1031 0.984 . S
H1035 N1031 0.985 . S
H1036 N1030 0.984 . S
H1037 N1030 0.984 . S
H1038 N1026 0.984 . S
H1039 N1026 0.985 . S
C1040 C1041 1.363 1_565 S
C1040 C1046 1.379 . S
C1040 N1048 1.356 . S
C1041 C1040 1.363 1_545 S
C1041 C1047 1.363 1_556 S
C1042 C1043 1.363 1_545 S
C1042 C1047 1.379 . S
C1042 N1049 1.356 . S
C1043 C1042 1.363 1_565 S
C1043 C1046 1.363 1_554 S
N1044 C1046 1.356 1_554 S
N1044 H1056 0.984 1_554 S
N1044 H1057 0.985 . S
N1045 C1047 1.356 1_556 S
N1045 H1050 0.984 . S
N1045 H1051 0.985 1_556 S
C1046 C1040 1.379 . S
C1046 C1043 1.363 1_556 S
C1046 N1044 1.356 1_556 S
C1047 C1041 1.363 1_554 S
C1047 C1042 1.379 . S
C1047 N1045 1.356 1_554 S
N1048 C1040 1.356 . S
N1048 H1054 0.984 . S
N1048 H1055 0.984 . S
N1049 C1042 1.356 . S
N1049 H1052 0.984 . S
N1049 H1053 0.985 . S
H1050 N1045 0.984 . S
H1051 N1045 0.985 1_554 S
H1052 N1049 0.984 . S
H1053 N1049 0.985 . S
H1054 N1048 0.984 . S
H1055 N1048 0.984 . S
H1056 N1044 0.984 1_556 S
H1057 N1044 0.985 . S
C1058 C1059 1.363 . S
C1058 C1064 1.373 1_556 S
C1058 N1066 1.356 . S
C1059 C1058 1.363 . S
C1059 C1065 1.369 . S
C1060 C1061 1.363 . S
C1060 C1065 1.373 1_554 S
C1060 N1067 1.356 . S
C1061 C1060 1.363 . S
C1061 C1064 1.369 . S
N1062 C1064 1.358 . S
N1062 H1074 0.984 1_554 S
N1062 H1075 0.985 . S
N1063 C1065 1.358 . S
N1063 H1068 0.984 . S
N1063 H1069 0.985 1_556 S
C1064 C1058 1.373 1_554 S
C1064 C1061 1.369 . S
C1064 N1062 1.358 . S
C1065 C1059 1.369 . S
C1065 C1060 1.373 1_556 S
C1065 N1063 1.358 . S
N1066 C1058 1.356 . S
N1066 H1072 0.984 . S
N1066 H1073 0.984 . S
N1067 C1060 1.356 . S
N1067 H1070 0.984 . S
N1067 H1071 0.985 . S
H1068 N1063 0.984 . S
H1069 N1063 0.985 1_554 S
H1070 N1067 0.984 . S
H1071 N1067 0.985 . S
H1072 N1066 0.984 . S
H1073 N1066 0.984 . S
H1074 N1062 0.984 1_556 S
H1075 N1062 0.985 . S
C1076 C1077 1.363 1_655 S
C1076 C1082 1.379 . S
C1076 N1084 1.356 . S
C1077 C1076 1.363 1_455 S
C1077 C1083 1.363 1_556 S
C1078 C1079 1.363 1_455 S
C1078 C1083 1.379 . S
C1078 N1085 1.356 . S
C1079 C1078 1.363 1_655 S
C1079 C1082 1.363 1_554 S
N1080 C1082 1.356 1_554 S
N1080 H1092 0.984 1_554 S
N1080 H1093 0.985 . S
N1081 C1083 1.356 1_556 S
N1081 H1086 0.984 . S
N1081 H1087 0.985 1_556 S
C1082 C1076 1.379 . S
C1082 C1079 1.363 1_556 S
C1082 N1080 1.356 1_556 S
C1083 C1077 1.363 1_554 S
C1083 C1078 1.379 . S
C1083 N1081 1.356 1_554 S
N1084 C1076 1.356 . S
N1084 H1090 0.984 . S
N1084 H1091 0.984 1_655 S
N1085 C1078 1.356 . S
N1085 H1088 0.984 1_455 S
N1085 H1089 0.985 . S
H1086 N1081 0.984 . S
H1087 N1081 0.985 1_554 S
H1088 N1085 0.984 1_655 S
H1089 N1085 0.985 . S
H1090 N1084 0.984 . S
H1091 N1084 0.984 1_455 S
H1092 N1080 0.984 1_556 S
H1093 N1080 0.985 . S
C1094 C1095 1.363 . S
C1094 C1100 1.379 1_546 S
C1094 N1102 1.356 . S
C1095 C1094 1.363 . S
C1095 C1101 1.363 1_455 S
C1096 C1097 1.363 . S
C1096 C1101 1.379 1_564 S
C1096 N1103 1.356 . S
C1097 C1096 1.363 . S
C1097 C1100 1.363 1_655 S
N1098 C1100 1.356 . S
N1098 H1110 0.984 . S
N1098 H1111 0.985 . S
N1099 C1101 1.356 . S
N1099 H1104 0.984 . S
N1099 H1105 0.985 . S
C1100 C1094 1.379 1_564 S
C1100 C1097 1.363 1_455 S
C1100 N1098 1.356 . S
C1101 C1095 1.363 1_655 S
C1101 C1096 1.379 1_546 S
C1101 N1099 1.356 . S
N1102 C1094 1.356 . S
N1102 H1108 0.984 . S
N1102 H1109 0.984 . S
N1103 C1096 1.356 . S
N1103 H1106 0.984 . S
N1103 H1107 0.985 . S
H1104 N1099 0.984 . S
H1105 N1099 0.985 . S
H1106 N1103 0.984 . S
H1107 N1103 0.985 . S
H1108 N1102 0.984 . S
H1109 N1102 0.984 . S
H1110 N1098 0.984 . S
H1111 N1098 0.985 . S
C1112 C1113 1.363 . S
C1112 C1118 1.379 . S
C1112 N1120 1.356 . S
C1113 C1112 1.363 . S
C1113 C1119 1.363 . S
C1114 C1115 1.363 . S
C1114 C1119 1.379 . S
C1114 N1121 1.356 . S
C1115 C1114 1.363 . S
C1115 C1118 1.363 . S
N1116 C1118 1.356 . S
N1116 H1128 0.984 . S
N1116 H1129 0.985 . S
N1117 C1119 1.356 . S
N1117 H1122 0.984 . S
N1117 H1123 0.985 . S
C1118 C1112 1.379 . S
C1118 C1115 1.363 . S
C1118 N1116 1.356 . S
C1119 C1113 1.363 . S
C1119 C1114 1.379 . S
C1119 N1117 1.356 . S
N1120 C1112 1.356 . S
N1120 H1126 0.984 . S
N1120 H1127 0.984 . S
N1121 C1114 1.356 . S
N1121 H1124 0.984 . S
N1121 H1125 0.985 . S
H1122 N1117 0.984 . S
H1123 N1117 0.985 . S
H1124 N1121 0.984 . S
H1125 N1121 0.985 . S
H1126 N1120 0.984 . S
H1127 N1120 0.984 . S
H1128 N1116 0.984 . S
H1129 N1116 0.985 . S
C1130 C1131 1.363 1_455 S
C1130 C1136 1.379 . S
C1130 N1138 1.356 . S
C1131 C1130 1.363 1_655 S
C1131 C1137 1.363 . S
C1132 C1133 1.363 1_655 S
C1132 C1137 1.379 . S
C1132 N1139 1.356 . S
C1133 C1132 1.363 1_455 S
C1133 C1136 1.363 . S
N1134 C1136 1.356 . S
N1134 H1146 0.984 . S
N1134 H1147 0.985 . S
N1135 C1137 1.356 . S
N1135 H1140 0.984 . S
N1135 H1141 0.985 . S
C1136 C1130 1.379 . S
C1136 C1133 1.363 . S
C1136 N1134 1.356 . S
C1137 C1131 1.363 . S
C1137 C1132 1.379 . S
C1137 N1135 1.356 . S
N1138 C1130 1.356 . S
N1138 H1144 0.984 . S
N1138 H1145 0.984 . S
N1139 C1132 1.356 . S
N1139 H1142 0.984 . S
N1139 H1143 0.985 . S
H1140 N1135 0.984 . S
H1141 N1135 0.985 . S
H1142 N1139 0.984 . S
H1143 N1139 0.985 . S
H1144 N1138 0.984 . S
H1145 N1138 0.984 . S
H1146 N1134 0.984 . S
H1147 N1134 0.985 . S
C1148 C1149 1.363 1_545 S
C1148 C1154 1.379 . S
C1148 N1156 1.356 . S
C1149 C1148 1.363 1_565 S
C1149 C1155 1.363 1_655 S
C1150 C1151 1.363 1_565 S
C1150 C1155 1.379 . S
C1150 N1157 1.356 . S
C1151 C1150 1.363 1_545 S
C1151 C1154 1.363 1_455 S
N1152 C1154 1.356 . S
N1152 H1164 0.984 . S
N1152 H1165 0.985 1_655 S
N1153 C1155 1.356 . S
N1153 H1158 0.984 1_455 S
N1153 H1159 0.985 . S
C1154 C1148 1.379 . S
C1154 C1151 1.363 1_655 S
C1154 N1152 1.356 . S
C1155 C1149 1.363 1_455 S
C1155 C1150 1.379 . S
C1155 N1153 1.356 . S
N1156 C1148 1.356 . S
N1156 H1162 0.984 . S
N1156 H1163 0.984 . S
N1157 C1150 1.356 . S
N1157 H1160 0.984 . S
N1157 H1161 0.985 . S
H1158 N1153 0.984 1_655 S
H1159 N1153 0.985 . S
H1160 N1157 0.984 . S
H1161 N1157 0.985 . S
H1162 N1156 0.984 . S
H1163 N1156 0.984 . S
H1164 N1152 0.984 . S
H1165 N1152 0.985 1_455 S
C1166 C1167 1.370 . S
C1166 C1172 1.372 1_565 S
C1166 N1174 1.359 . S
C1167 C1166 1.370 . S
C1167 C1173 1.363 . S
C1168 C1169 1.370 . S
C1168 C1173 1.372 1_545 S
C1168 N1175 1.359 . S
C1169 C1168 1.370 . S
C1169 C1172 1.363 . S
N1170 C1172 1.356 . S
N1170 H1182 0.984 . S
N1170 H1183 0.985 . S
N1171 C1173 1.356 . S
N1171 H1176 0.984 . S
N1171 H1177 0.985 . S
C1172 C1166 1.372 1_545 S
C1172 C1169 1.363 . S
C1172 N1170 1.356 . S
C1173 C1167 1.363 . S
C1173 C1168 1.372 1_565 S
C1173 N1171 1.356 . S
N1174 C1166 1.359 . S
N1174 H1180 0.984 1_565 S
N1174 H1181 0.984 . S
N1175 C1168 1.359 . S
N1175 H1178 0.984 . S
N1175 H1179 0.985 1_545 S
H1176 N1171 0.984 . S
H1177 N1171 0.985 . S
H1178 N1175 0.984 . S
H1179 N1175 0.985 1_565 S
H1180 N1174 0.984 1_545 S
H1181 N1174 0.984 . S
H1182 N1170 0.984 . S
H1183 N1170 0.985 . S
C1184 C1185 1.363 . S
C1184 C1190 1.379 . S
C1184 N1192 1.356 . S
C1185 C1184 1.363 . S
C1185 C1191 1.363 . S
C1186 C1187 1.363 . S
C1186 C1191 1.379 . S
C1186 N1193 1.356 . S
C1187 C1186 1.363 . S
C1187 C1190 1.363 . S
N1188 C1190 1.356 . S
N1188 H1200 0.984 . S
N1188 H1201 0.985 . S
N1189 C1191 1.356 . S
N1189 H1194 0.984 . S
N1189 H1195 0.985 . S
C1190 C1184 1.379 . S
C1190 C1187 1.363 . S
C1190 N1188 1.356 . S
C1191 C1185 1.363 . S
C1191 C1186 1.379 . S
C1191 N1189 1.356 . S
N1192 C1184 1.356 . S
N1192 H1198 0.984 . S
N1192 H1199 0.984 . S
N1193 C1186 1.356 . S
N1193 H1196 0.984 . S
N1193 H1197 0.985 . S
H1194 N1189 0.984 . S
H1195 N1189 0.985 . S
H1196 N1193 0.984 . S
H1197 N1193 0.985 . S
H1198 N1192 0.984 . S
H1199 N1192 0.984 . S
H1200 N1188 0.984 . S
H1201 N1188 0.985 . S
C1202 C1203 1.363 . S
C1202 C1208 1.379 . S
C1202 N1210 1.356 . S
C1203 C1202 1.363 . S
C1203 C1209 1.363 . S
C1204 C1205 1.363 . S
C1204 C1209 1.379 . S
C1204 N1211 1.356 . S
C1205 C1204 1.363 . S
C1205 C1208 1.363 . S
N1206 C1208 1.356 . S
N1206 H1218 0.984 . S
N1206 H1219 0.985 . S
N1207 C1209 1.356 . S
N1207 H1212 0.984 . S
N1207 H1213 0.985 . S
C1208 C1202 1.379 . S
C1208 C1205 1.363 . S
C1208 N1206 1.356 . S
C1209 C1203 1.363 . S
C1209 C1204 1.379 . S
C1209 N1207 1.356 . S
N1210 C1202 1.356 . S
N1210 H1216 0.984 . S
N1210 H1217 0.984 . S
N1211 C1204 1.356 . S
N1211 H1214 0.984 . S
N1211 H1215 0.985 . S
H1212 N1207 0.984 . S
H1213 N1207 0.985 . S
H1214 N1211 0.984 . S
H1215 N1211 0.985 . S
H1216 N1210 0.984 . S
H1217 N1210 0.984 . S
H1218 N1206 0.984 . S
H1219 N1206 0.985 . S
C1220 C1221 1.363 . S
C1220 C1226 1.379 . S
C1220 N1228 1.356 . S
C1221 C1220 1.363 . S
C1221 C1227 1.363 . S
C1222 C1223 1.363 . S
C1222 C1227 1.379 . S
C1222 N1229 1.356 . S
C1223 C1222 1.363 . S
C1223 C1226 1.363 . S
N1224 C1226 1.356 . S
N1224 H1236 0.984 . S
N1224 H1237 0.985 . S
N1225 C1227 1.356 . S
N1225 H1230 0.984 . S
N1225 H1231 0.985 . S
C1226 C1220 1.379 . S
C1226 C1223 1.363 . S
C1226 N1224 1.356 . S
C1227 C1221 1.363 . S
C1227 C1222 1.379 . S
C1227 N1225 1.356 . S
N1228 C1220 1.356 . S
N1228 H1234 0.984 . S
N1228 H1235 0.984 . S
N1229 C1222 1.356 . S
N1229 H1232 0.984 . S
N1229 H1233 0.985 . S
H1230 N1225 0.984 . S
H1231 N1225 0.985 . S
H1232 N1229 0.984 . S
H1233 N1229 0.985 . S
H1234 N1228 0.984 . S
H1235 N1228 0.984 . S
H1236 N1224 0.984 . S
H1237 N1224 0.985 . S
C1238 C1239 1.363 . S
C1238 C1244 1.379 . S
C1238 N1246 1.356 . S
C1239 C1238 1.363 . S
C1239 C1245 1.363 . S
C1240 C1241 1.363 . S
C1240 C1245 1.379 . S
C1240 N1247 1.356 . S
C1241 C1240 1.363 . S
C1241 C1244 1.363 . S
N1242 C1244 1.356 . S
N1242 H1254 0.984 . S
N1242 H1255 0.985 . S
N1243 C1245 1.356 . S
N1243 H1248 0.984 1_565 S
N1243 H1249 0.976 1_565 S
C1244 C1238 1.379 . S
C1244 C1241 1.363 . S
C1244 N1242 1.356 . S
C1245 C1239 1.363 . S
C1245 C1240 1.379 . S
C1245 N1243 1.356 . S
N1246 C1238 1.356 . S
N1246 H1252 0.984 . S
N1246 H1253 0.984 . S
N1247 C1240 1.356 . S
N1247 H1250 0.984 . S
N1247 H1251 0.985 . S
H1248 N1243 0.984 1_545 S
H1249 N1243 0.976 1_545 S
H1250 N1247 0.984 . S
H1251 N1247 0.985 . S
H1252 N1246 0.984 . S
H1253 N1246 0.984 . S
H1254 N1242 0.984 . S
H1255 N1242 0.985 . S
C1256 C1257 1.363 . S
C1256 C1262 1.379 . S
C1256 N1264 1.356 . S
C1257 C1256 1.363 . S
C1257 C1263 1.363 . S
C1258 C1259 1.363 . S
C1258 C1263 1.379 . S
C1258 N1265 1.356 . S
C1259 C1258 1.363 . S
C1259 C1262 1.363 . S
N1260 C1262 1.356 . S
N1260 H1272 0.984 . S
N1260 H1273 0.985 . S
N1261 C1263 1.356 . S
N1261 H1266 0.984 . S
N1261 H1267 0.985 . S
C1262 C1256 1.379 . S
C1262 C1259 1.363 . S
C1262 N1260 1.356 . S
C1263 C1257 1.363 . S
C1263 C1258 1.379 . S
C1263 N1261 1.356 . S
N1264 C1256 1.356 . S
N1264 H1270 0.984 . S
N1264 H1271 0.984 . S
N1265 C1258 1.356 . S
N1265 H1268 0.984 . S
N1265 H1269 0.985 . S
H1266 N1261 0.984 . S
H1267 N1261 0.985 . S
H1268 N1265 0.984 . S
H1269 N1265 0.985 . S
H1270 N1264 0.984 . S
H1271 N1264 0.984 . S
H1272 N1260 0.984 . S
H1273 N1260 0.985 . S
C1274 C1275 1.363 . S
C1274 C1280 1.379 . S
C1274 N1282 1.356 . S
C1275 C1274 1.363 . S
C1275 C1281 1.363 . S
C1276 C1277 1.363 . S
C1276 C1281 1.379 . S
C1276 N1283 1.356 . S
C1277 C1276 1.363 . S
C1277 C1280 1.363 . S
N1278 C1280 1.356 . S
N1278 H1290 0.984 . S
N1278 H1291 0.985 . S
N1279 C1281 1.356 . S
N1279 H1284 0.984 . S
N1279 H1285 0.985 . S
C1280 C1274 1.379 . S
C1280 C1277 1.363 . S
C1280 N1278 1.356 . S
C1281 C1275 1.363 . S
C1281 C1276 1.379 . S
C1281 N1279 1.356 . S
N1282 C1274 1.356 . S
N1282 H1288 0.984 . S
N1282 H1289 0.984 . S
N1283 C1276 1.356 . S
N1283 H1286 0.984 . S
N1283 H1287 0.985 . S
H1284 N1279 0.984 . S
H1285 N1279 0.985 . S
H1286 N1283 0.984 . S
H1287 N1283 0.985 . S
H1288 N1282 0.984 . S
H1289 N1282 0.984 . S
H1290 N1278 0.984 . S
H1291 N1278 0.985 . S
C1292 C1293 1.363 . S
C1292 C1298 1.379 . S
C1292 N1300 1.356 . S
C1293 C1292 1.363 . S
C1293 C1299 1.363 . S
C1294 C1295 1.363 . S
C1294 C1299 1.379 . S
C1294 N1301 1.356 1_655 S
C1295 C1294 1.363 . S
C1295 C1298 1.363 . S
N1296 C1298 1.356 . S
N1296 H1308 0.984 . S
N1296 H1309 0.985 . S
N1297 C1299 1.356 . S
N1297 H1302 0.984 . S
N1297 H1303 0.985 . S
C1298 C1292 1.379 . S
C1298 C1295 1.363 . S
C1298 N1296 1.356 . S
C1299 C1293 1.363 . S
C1299 C1294 1.379 . S
C1299 N1297 1.356 . S
N1300 C1292 1.356 . S
N1300 H1306 0.984 . S
N1300 H1307 0.984 . S
N1301 C1294 1.356 1_455 S
N1301 H1304 0.984 . S
N1301 H1305 0.985 . S
H1302 N1297 0.984 . S
H1303 N1297 0.985 . S
H1304 N1301 0.984 . S
H1305 N1301 0.985 . S
H1306 N1300 0.984 . S
H1307 N1300 0.984 . S
H1308 N1296 0.984 . S
H1309 N1296 0.985 . S
C1310 C1311 1.363 . S
C1310 C1316 1.379 . S
C1310 N1318 1.356 . S
C1311 C1310 1.363 . S
C1311 C1317 1.363 . S
C1312 C1313 1.363 . S
C1312 C1317 1.379 . S
C1312 N1319 1.356 . S
C1313 C1312 1.363 . S
C1313 C1316 1.363 . S
N1314 C1316 1.356 1_545 S
N1314 H1326 0.984 . S
N1314 H1327 0.985 . S
N1315 C1317 1.356 . S
N1315 H1320 0.984 . S
N1315 H1321 0.985 . S
C1316 C1310 1.379 . S
C1316 C1313 1.363 . S
C1316 N1314 1.356 1_565 S
C1317 C1311 1.363 . S
C1317 C1312 1.379 . S
C1317 N1315 1.356 . S
N1318 C1310 1.356 . S
N1318 H1324 0.984 . S
N1318 H1325 0.984 . S
N1319 C1312 1.356 . S
N1319 H1322 0.984 . S
N1319 H1323 0.985 . S
H1320 N1315 0.984 . S
H1321 N1315 0.985 . S
H1322 N1319 0.984 . S
H1323 N1319 0.985 . S
H1324 N1318 0.984 . S
H1325 N1318 0.984 . S
H1326 N1314 0.984 . S
H1327 N1314 0.985 . S
C1328 C1329 1.363 . S
C1328 C1334 1.379 . S
C1328 N1336 1.356 . S
C1329 C1328 1.363 . S
C1329 C1335 1.363 . S
C1330 C1331 1.363 . S
C1330 C1335 1.379 . S
C1330 N1337 1.356 . S
C1331 C1330 1.363 . S
C1331 C1334 1.363 . S
N1332 C1334 1.356 . S
N1332 H1344 0.984 . S
N1332 H1345 0.985 . S
N1333 C1335 1.356 . S
N1333 H1338 0.984 . S
N1333 H1339 0.985 . S
C1334 C1328 1.379 . S
C1334 C1331 1.363 . S
C1334 N1332 1.356 . S
C1335 C1329 1.363 . S
C1335 C1330 1.379 . S
C1335 N1333 1.356 . S
N1336 C1328 1.356 . S
N1336 H1342 0.984 . S
N1336 H1343 0.984 . S
N1337 C1330 1.356 . S
N1337 H1340 0.984 . S
N1337 H1341 0.985 . S
H1338 N1333 0.984 . S
H1339 N1333 0.985 . S
H1340 N1337 0.984 . S
H1341 N1337 0.985 . S
H1342 N1336 0.984 . S
H1343 N1336 0.984 . S
H1344 N1332 0.984 . S
H1345 N1332 0.985 . S
C1346 C1347 1.363 . S
C1346 C1352 1.379 . S
C1346 N1354 1.356 . S
C1347 C1346 1.363 . S
C1347 C1353 1.363 . S
C1348 C1349 1.363 . S
C1348 C1353 1.379 . S
C1348 N1355 1.356 . S
C1349 C1348 1.363 . S
C1349 C1352 1.363 . S
N1350 C1352 1.356 . S
N1350 H1362 0.984 . S
N1350 H1363 0.985 . S
N1351 C1353 1.356 . S
N1351 H1356 0.984 . S
N1351 H1357 0.985 . S
C1352 C1346 1.379 . S
C1352 C1349 1.363 . S
C1352 N1350 1.356 . S
C1353 C1347 1.363 . S
C1353 C1348 1.379 . S
C1353 N1351 1.356 . S
N1354 C1346 1.356 . S
N1354 H1360 0.984 . S
N1354 H1361 0.984 . S
N1355 C1348 1.356 . S
N1355 H1358 0.984 . S
N1355 H1359 0.985 . S
H1356 N1351 0.984 . S
H1357 N1351 0.985 . S
H1358 N1355 0.984 . S
H1359 N1355 0.985 . S
H1360 N1354 0.984 . S
H1361 N1354 0.984 . S
H1362 N1350 0.984 . S
H1363 N1350 0.985 . S
C1364 C1365 1.363 . S
C1364 C1370 1.379 . S
C1364 N1372 1.356 . S
C1365 C1364 1.363 . S
C1365 C1371 1.363 . S
C1366 C1367 1.363 . S
C1366 C1371 1.379 . S
C1366 N1373 1.356 . S
C1367 C1366 1.363 . S
C1367 C1370 1.363 . S
N1368 C1370 1.356 . S
N1368 H1380 0.984 . S
N1368 H1381 0.985 . S
N1369 C1371 1.356 . S
N1369 H1374 0.984 . S
N1369 H1375 0.985 . S
C1370 C1364 1.379 . S
C1370 C1367 1.363 . S
C1370 N1368 1.356 . S
C1371 C1365 1.363 . S
C1371 C1366 1.379 . S
C1371 N1369 1.356 . S
N1372 C1364 1.356 . S
N1372 H1378 0.984 . S
N1372 H1379 0.984 . S
N1373 C1366 1.356 . S
N1373 H1376 0.984 . S
N1373 H1377 0.985 . S
H1374 N1369 0.984 . S
H1375 N1369 0.985 . S
H1376 N1373 0.984 . S
H1377 N1373 0.985 . S
H1378 N1372 0.984 . S
H1379 N1372 0.984 . S
H1380 N1368 0.984 . S
H1381 N1368 0.985 . S
C1382 C1383 1.363 . S
C1382 C1388 1.379 . S
C1382 N1390 1.356 . S
C1383 C1382 1.363 . S
C1383 C1389 1.363 . S
C1384 C1385 1.363 . S
C1384 C1389 1.379 . S
C1384 N1391 1.356 . S
C1385 C1384 1.363 . S
C1385 C1388 1.363 . S
N1386 C1388 1.356 . S
N1386 H1398 0.984 . S
N1386 H1399 0.985 . S
N1387 C1389 1.356 1_565 S
N1387 H1392 0.984 . S
N1387 H1393 0.985 . S
C1388 C1382 1.379 . S
C1388 C1385 1.363 . S
C1388 N1386 1.356 . S
C1389 C1383 1.363 . S
C1389 C1384 1.379 . S
C1389 N1387 1.356 1_545 S
N1390 C1382 1.356 . S
N1390 H1396 0.984 . S
N1390 H1397 0.984 . S
N1391 C1384 1.356 . S
N1391 H1394 0.984 . S
N1391 H1395 0.985 . S
H1392 N1387 0.984 . S
H1393 N1387 0.985 . S
H1394 N1391 0.984 . S
H1395 N1391 0.985 . S
H1396 N1390 0.984 . S
H1397 N1390 0.984 . S
H1398 N1386 0.984 . S
H1399 N1386 0.985 . S
C1400 C1401 1.363 . S
C1400 C1406 1.379 . S
C1400 N1408 1.356 . S
C1401 C1400 1.363 . S
C1401 C1407 1.363 . S
C1402 C1403 1.363 . S
C1402 C1407 1.379 . S
C1402 N1409 1.356 . S
C1403 C1402 1.363 . S
C1403 C1406 1.363 . S
N1404 C1406 1.356 . S
N1404 H1416 0.984 . S
N1404 H1417 0.985 . S
N1405 C1407 1.356 . S
N1405 H1410 0.984 . S
N1405 H1411 0.985 . S
C1406 C1400 1.379 . S
C1406 C1403 1.363 . S
C1406 N1404 1.356 . S
C1407 C1401 1.363 . S
C1407 C1402 1.379 . S
C1407 N1405 1.356 . S
N1408 C1400 1.356 . S
N1408 H1414 0.984 . S
N1408 H1415 0.984 . S
N1409 C1402 1.356 . S
N1409 H1412 0.984 . S
N1409 H1413 0.985 . S
H1410 N1405 0.984 . S
H1411 N1405 0.985 . S
H1412 N1409 0.984 . S
H1413 N1409 0.985 . S
H1414 N1408 0.984 . S
H1415 N1408 0.984 . S
H1416 N1404 0.984 . S
H1417 N1404 0.985 . S
C1418 C1419 1.363 . S
C1418 C1424 1.379 . S
C1418 N1426 1.356 . S
C1419 C1418 1.363 . S
C1419 C1425 1.363 . S
C1420 C1421 1.363 . S
C1420 C1425 1.379 . S
C1420 N1427 1.356 . S
C1421 C1420 1.363 . S
C1421 C1424 1.363 . S
N1422 C1424 1.356 . S
N1422 H1434 0.984 . S
N1422 H1435 0.985 . S
N1423 C1425 1.356 . S
N1423 H1428 0.984 . S
N1423 H1429 0.985 . S
C1424 C1418 1.379 . S
C1424 C1421 1.363 . S
C1424 N1422 1.356 . S
C1425 C1419 1.363 . S
C1425 C1420 1.379 . S
C1425 N1423 1.356 . S
N1426 C1418 1.356 . S
N1426 H1432 0.984 . S
N1426 H1433 0.984 . S
N1427 C1420 1.356 . S
N1427 H1430 0.984 . S
N1427 H1431 0.985 . S
H1428 N1423 0.984 . S
H1429 N1423 0.985 . S
H1430 N1427 0.984 . S
H1431 N1427 0.985 . S
H1432 N1426 0.984 . S
H1433 N1426 0.984 . S
H1434 N1422 0.984 . S
H1435 N1422 0.985 . S
C1436 C1437 1.363 . S
C1436 C1442 1.379 . S
C1436 N1444 1.356 . S
C1437 C1436 1.363 . S
C1437 C1443 1.363 . S
C1438 C1439 1.363 . S
C1438 C1443 1.379 . S
C1438 N1445 1.356 . S
C1439 C1438 1.363 . S
C1439 C1442 1.363 . S
N1440 C1442 1.356 . S
N1440 H1452 0.984 . S
N1440 H1453 0.985 . S
N1441 C1443 1.356 1_655 S
N1441 H1446 0.984 . S
N1441 H1447 0.985 . S
C1442 C1436 1.379 . S
C1442 C1439 1.363 . S
C1442 N1440 1.356 . S
C1443 C1437 1.363 . S
C1443 C1438 1.379 . S
C1443 N1441 1.356 1_455 S
N1444 C1436 1.356 . S
N1444 H1450 0.984 . S
N1444 H1451 0.984 . S
N1445 C1438 1.356 . S
N1445 H1448 0.984 . S
N1445 H1449 0.985 . S
H1446 N1441 0.984 . S
H1447 N1441 0.985 . S
H1448 N1445 0.984 . S
H1449 N1445 0.985 . S
H1450 N1444 0.984 . S
H1451 N1444 0.984 . S
H1452 N1440 0.984 . S
H1453 N1440 0.985 . S
C1454 C1455 1.363 . S
C1454 C1460 1.379 . S
C1454 N1462 1.356 1_545 S
C1455 C1454 1.363 . S
C1455 C1461 1.363 . S
C1456 C1457 1.363 . S
C1456 C1461 1.379 . S
C1456 N1463 1.356 . S
C1457 C1456 1.363 . S
C1457 C1460 1.363 . S
N1458 C1460 1.356 . S
N1458 H1470 0.984 . S
N1458 H1471 0.985 . S
N1459 C1461 1.356 . S
N1459 H1464 0.984 . S
N1459 H1465 0.985 . S
C1460 C1454 1.379 . S
C1460 C1457 1.363 . S
C1460 N1458 1.356 . S
C1461 C1455 1.363 . S
C1461 C1456 1.379 . S
C1461 N1459 1.356 . S
N1462 C1454 1.356 1_565 S
N1462 H1468 0.984 . S
N1462 H1469 0.984 . S
N1463 C1456 1.356 . S
N1463 H1466 0.984 . S
N1463 H1467 0.985 . S
H1464 N1459 0.984 . S
H1465 N1459 0.985 . S
H1466 N1463 0.984 . S
H1467 N1463 0.985 . S
H1468 N1462 0.984 . S
H1469 N1462 0.984 . S
H1470 N1458 0.984 . S
H1471 N1458 0.985 . S
C465 C79 1.350 . S
C467 C21 1.350 . S
C483 C108 1.350 . S
C485 C50 1.350 . S
C501 C137 1.350 . S
C503 C195 1.350 . S
C519 C166 1.350 . S
C521 C224 1.350 . S
C537 C253 1.350 . S
C539 C311 1.350 . S
C555 C282 1.350 . S
C557 C340 1.350 . S
C573 C427 1.350 . S
C575 C369 1.350 . S
C591 C456 1.350 . S
C593 C398 1.350 . S
C609 C3 1.307 . S
C611 C266 1.183 . S
C627 C295 1.183 . S
C629 C32 1.307 . S
C645 C61 1.307 . S
C647 C324 1.183 . S
C663 C237 1.183 . S
C665 C90 1.307 . S
C681 C119 1.307 . S
C683 C440 1.183 . S
C699 C148 1.307 . S
C701 C353 1.183 . S
C717 C177 1.307 . S
C719 C382 1.183 . S
C735 C206 1.307 . S
C737 C411 1.183 . S
C753 C235 1.307 . S
C755 C34 1.183 . S
C771 C63 1.183 . S
C773 C264 1.307 . S
C789 C293 1.307 . S
C791 C92 1.183 . S
C807 C5 1.183 . S
C809 C322 1.307 . S
C825 C351 1.307 . S
C827 C208 1.183 . S
C843 C121 1.183 . S
C845 C380 1.307 . S
C861 C409 1.307 . S
C863 C150 1.183 . S
C879 C179 1.183 . S
C881 C438 1.307 . S
C897 C184 1.546 . S
C899 C10 1.546 . S
C915 C39 1.546 . S
C917 C213 1.546 . S
C933 C68 1.546 . S
C935 C126 1.546 . S
C951 C97 1.546 . S
C953 C155 1.546 . S
C969 C416 1.546 . S
C971 C242 1.546 . S
C987 C271 1.546 . S
C989 C445 1.546 . S
C1005 C358 1.546 . S
C1007 C300 1.546 . S
C1023 C387 1.546 . S
C1025 C329 1.546 . S
C1041 C245 2.352 . S
C1043 C13 2.352 . S
C1059 C274 2.352 . S
C1061 C42 2.352 . S
C1077 C303 2.352 . S
C1079 C71 2.352 . S
C1095 C332 2.352 . S
C1097 C100 2.352 . S
C1113 C361 2.352 . S
C1115 C129 2.352 . S
C1131 C158 2.352 . S
C1133 C390 2.352 . S
C1149 C187 2.352 . S
C1151 C419 2.352 . S
C1167 C216 2.352 . S
C1169 C448 2.352 . S
C1185 C37 1.815 . S
C1187 C15 2.062 . S
C1203 C66 1.815 . S
C1205 C44 2.062 . S
C1221 C95 1.809 1_655 S
C1223 C73 2.062 . S
C1239 C8 1.809 1_565 S
C1241 C102 2.062 . S
C1257 C131 2.062 . S
C1259 C211 1.815 . S
C1275 C160 2.062 . S
C1277 C124 1.815 . S
C1293 C189 2.062 . S
C1295 C153 1.809 1_655 S
C1311 C218 2.062 . S
C1313 C182 1.809 1_565 S
C1329 C247 2.062 . S
C1331 C269 1.815 . S
C1347 C276 2.062 . S
C1349 C298 1.815 . S
C1365 C305 2.062 . S
C1367 C327 1.809 1_455 S
C1383 C240 1.809 1_545 S
C1385 C334 2.062 . S
C1401 C443 1.815 . S
C1403 C363 2.062 . S
C1419 C392 2.062 . S
C1421 C356 1.815 . S
C1437 C385 1.809 1_455 S
C1439 C421 2.062 . S
C1455 C414 1.809 1_545 S
C1457 C450 2.062 . S
