# Generated by pormake.
# Topology lta, (4)-cn, num edge types: 1
# Building blocks:
#     Node 0, Type 0, BuildingBlock: CEKHIL_clean_sbu_0, # of connection points: 4
#     Node 1, Type 0, BuildingBlock: CEKHIL_clean_sbu_0, # of connection points: 4
#     Node 2, Type 0, BuildingBlock: CEKHIL_clean_sbu_0, # of connection points: 4
#     Node 3, Type 0, BuildingBlock: CEKHIL_clean_sbu_0, # of connection points: 4
#     Node 4, Type 0, BuildingBlock: CEKHIL_clean_sbu_0, # of connection points: 4
#     Node 5, Type 0, BuildingBlock: CEKHIL_clean_sbu_0, # of connection points: 4
#     Node 6, Type 0, BuildingBlock: CEKHIL_clean_sbu_0, # of connection points: 4
#     Node 7, Type 0, BuildingBlock: CEKHIL_clean_sbu_0, # of connection points: 4
#     Node 8, Type 0, BuildingBlock: CEKHIL_clean_sbu_0, # of connection points: 4
#     Node 9, Type 0, BuildingBlock: CEKHIL_clean_sbu_0, # of connection points: 4
#     Node 10, Type 0, BuildingBlock: CEKHIL_clean_sbu_0, # of connection points: 4
#     Node 11, Type 0, BuildingBlock: CEKHIL_clean_sbu_0, # of connection points: 4
#     Node 12, Type 0, BuildingBlock: CEKHIL_clean_sbu_0, # of connection points: 4
#     Node 13, Type 0, BuildingBlock: CEKHIL_clean_sbu_0, # of connection points: 4
#     Node 14, Type 0, BuildingBlock: CEKHIL_clean_sbu_0, # of connection points: 4
#     Node 15, Type 0, BuildingBlock: CEKHIL_clean_sbu_0, # of connection points: 4
#     Node 16, Type 0, BuildingBlock: CEKHIL_clean_sbu_0, # of connection points: 4
#     Node 17, Type 0, BuildingBlock: CEKHIL_clean_sbu_0, # of connection points: 4
#     Node 18, Type 0, BuildingBlock: CEKHIL_clean_sbu_0, # of connection points: 4
#     Node 19, Type 0, BuildingBlock: CEKHIL_clean_sbu_0, # of connection points: 4
#     Node 20, Type 0, BuildingBlock: CEKHIL_clean_sbu_0, # of connection points: 4
#     Node 21, Type 0, BuildingBlock: CEKHIL_clean_sbu_0, # of connection points: 4
#     Node 22, Type 0, BuildingBlock: CEKHIL_clean_sbu_0, # of connection points: 4
#     Node 23, Type 0, BuildingBlock: CEKHIL_clean_sbu_0, # of connection points: 4
#     Edge 24, Type (0, 0), BuildingBlock: UVAHIK_clean_linker_0, # of connection points: 2
#     Edge 25, Type (0, 0), BuildingBlock: UVAHIK_clean_linker_0, # of connection points: 2
#     Edge 26, Type (0, 0), BuildingBlock: UVAHIK_clean_linker_0, # of connection points: 2
#     Edge 27, Type (0, 0), BuildingBlock: UVAHIK_clean_linker_0, # of connection points: 2
#     Edge 28, Type (0, 0), BuildingBlock: UVAHIK_clean_linker_0, # of connection points: 2
#     Edge 29, Type (0, 0), BuildingBlock: UVAHIK_clean_linker_0, # of connection points: 2
#     Edge 30, Type (0, 0), BuildingBlock: UVAHIK_clean_linker_0, # of connection points: 2
#     Edge 31, Type (0, 0), BuildingBlock: UVAHIK_clean_linker_0, # of connection points: 2
#     Edge 32, Type (0, 0), BuildingBlock: UVAHIK_clean_linker_0, # of connection points: 2
#     Edge 33, Type (0, 0), BuildingBlock: UVAHIK_clean_linker_0, # of connection points: 2
#     Edge 34, Type (0, 0), BuildingBlock: UVAHIK_clean_linker_0, # of connection points: 2
#     Edge 35, Type (0, 0), BuildingBlock: UVAHIK_clean_linker_0, # of connection points: 2
#     Edge 36, Type (0, 0), BuildingBlock: UVAHIK_clean_linker_0, # of connection points: 2
#     Edge 37, Type (0, 0), BuildingBlock: UVAHIK_clean_linker_0, # of connection points: 2
#     Edge 38, Type (0, 0), BuildingBlock: UVAHIK_clean_linker_0, # of connection points: 2
#     Edge 39, Type (0, 0), BuildingBlock: UVAHIK_clean_linker_0, # of connection points: 2
#     Edge 40, Type (0, 0), BuildingBlock: UVAHIK_clean_linker_0, # of connection points: 2
#     Edge 41, Type (0, 0), BuildingBlock: UVAHIK_clean_linker_0, # of connection points: 2
#     Edge 42, Type (0, 0), BuildingBlock: UVAHIK_clean_linker_0, # of connection points: 2
#     Edge 43, Type (0, 0), BuildingBlock: UVAHIK_clean_linker_0, # of connection points: 2
#     Edge 44, Type (0, 0), BuildingBlock: UVAHIK_clean_linker_0, # of connection points: 2
#     Edge 45, Type (0, 0), BuildingBlock: UVAHIK_clean_linker_0, # of connection points: 2
#     Edge 46, Type (0, 0), BuildingBlock: UVAHIK_clean_linker_0, # of connection points: 2
#     Edge 47, Type (0, 0), BuildingBlock: UVAHIK_clean_linker_0, # of connection points: 2
#     Edge 48, Type (0, 0), BuildingBlock: UVAHIK_clean_linker_0, # of connection points: 2
#     Edge 49, Type (0, 0), BuildingBlock: UVAHIK_clean_linker_0, # of connection points: 2
#     Edge 50, Type (0, 0), BuildingBlock: UVAHIK_clean_linker_0, # of connection points: 2
#     Edge 51, Type (0, 0), BuildingBlock: UVAHIK_clean_linker_0, # of connection points: 2
#     Edge 52, Type (0, 0), BuildingBlock: UVAHIK_clean_linker_0, # of connection points: 2
#     Edge 53, Type (0, 0), BuildingBlock: UVAHIK_clean_linker_0, # of connection points: 2
#     Edge 54, Type (0, 0), BuildingBlock: UVAHIK_clean_linker_0, # of connection points: 2
#     Edge 55, Type (0, 0), BuildingBlock: UVAHIK_clean_linker_0, # of connection points: 2
#     Edge 56, Type (0, 0), BuildingBlock: UVAHIK_clean_linker_0, # of connection points: 2
#     Edge 57, Type (0, 0), BuildingBlock: UVAHIK_clean_linker_0, # of connection points: 2
#     Edge 58, Type (0, 0), BuildingBlock: UVAHIK_clean_linker_0, # of connection points: 2
#     Edge 59, Type (0, 0), BuildingBlock: UVAHIK_clean_linker_0, # of connection points: 2
#     Edge 60, Type (0, 0), BuildingBlock: UVAHIK_clean_linker_0, # of connection points: 2
#     Edge 61, Type (0, 0), BuildingBlock: UVAHIK_clean_linker_0, # of connection points: 2
#     Edge 62, Type (0, 0), BuildingBlock: UVAHIK_clean_linker_0, # of connection points: 2
#     Edge 63, Type (0, 0), BuildingBlock: UVAHIK_clean_linker_0, # of connection points: 2
#     Edge 64, Type (0, 0), BuildingBlock: UVAHIK_clean_linker_0, # of connection points: 2
#     Edge 65, Type (0, 0), BuildingBlock: UVAHIK_clean_linker_0, # of connection points: 2
#     Edge 66, Type (0, 0), BuildingBlock: UVAHIK_clean_linker_0, # of connection points: 2
#     Edge 67, Type (0, 0), BuildingBlock: UVAHIK_clean_linker_0, # of connection points: 2
#     Edge 68, Type (0, 0), BuildingBlock: UVAHIK_clean_linker_0, # of connection points: 2
#     Edge 69, Type (0, 0), BuildingBlock: UVAHIK_clean_linker_0, # of connection points: 2
#     Edge 70, Type (0, 0), BuildingBlock: UVAHIK_clean_linker_0, # of connection points: 2
#     Edge 71, Type (0, 0), BuildingBlock: UVAHIK_clean_linker_0, # of connection points: 2
# Relax obj value: 0.296
# Max RMSD: 0.166
# Mean RMSD: 0.166
data_MOF--net-lta--node1-CEKHIL_clean_sbu_0--edge1-UVAHIK_clean_linker_0
_symmetry_space_group_name_H-M    P1
_symmetry_Int_Tables_number       1
_symmetry_cell_setting            triclinic
loop_
_symmetry_equiv_pos_as_xyz
'x, y, z'
_cell_length_a     72.429594
_cell_length_b     72.472377
_cell_length_c     72.477364
_cell_angle_alpha  90.00265
_cell_angle_beta   90.045514
_cell_angle_gamma 90.021327
loop_
_atom_site_label
_atom_site_type_symbol
_atom_site_fract_x
_atom_site_fract_y
_atom_site_fract_z
_atom_type_partial_charge
Co0 Co 0.1332 0.31521 0.48171 0.0
O1 O 0.15846 0.30721 0.48012 0.0
O2 O 0.13549 0.29035 0.49118 0.0
C3 C 0.13157 0.3271 0.45293 0.0
O4 O 0.10545 0.31853 0.48505 0.0
Co5 Co 0.12338 0.35704 0.4783 0.0
O6 O 0.09755 0.34817 0.48003 0.0
C7 C 0.1416 0.34284 0.51177 0.0
C8 C 0.15292 0.29167 0.4871 0.0
C9 C 0.09334 0.3315 0.48381 0.0
O10 O 0.13798 0.32608 0.50704 0.0
O11 O 0.13896 0.3567 0.50115 0.0
O12 O 0.12953 0.30946 0.45541 0.0
O13 O 0.13606 0.33641 0.46737 0.0
Co14 Co 0.67863 0.13276 0.48458 0.0
O15 O 0.68702 0.15786 0.48489 0.0
O16 O 0.70412 0.13388 0.49292 0.0
C17 C 0.66548 0.13485 0.45634 0.0
O18 O 0.67478 0.10486 0.48545 0.0
Co19 Co 0.63675 0.12372 0.48166 0.0
O20 O 0.64554 0.09816 0.47737 0.0
C21 C 0.65247 0.13792 0.5166 0.0
C22 C 0.70285 0.15164 0.49045 0.0
C23 C 0.66195 0.09322 0.48138 0.0
O24 O 0.66905 0.13539 0.51067 0.0
O25 O 0.63809 0.13588 0.50651 0.0
O26 O 0.68302 0.13139 0.45783 0.0
O27 O 0.65693 0.13782 0.47162 0.0
Co28 Co 0.86583 0.68098 0.48503 0.0
O29 O 0.83986 0.6863 0.48749 0.0
O30 O 0.86246 0.70592 0.49371 0.0
C31 C 0.86371 0.66774 0.45684 0.0
O32 O 0.89397 0.68123 0.48374 0.0
Co33 Co 0.8815 0.64127 0.48065 0.0
O34 O 0.90483 0.65388 0.47406 0.0
C35 C 0.87099 0.65519 0.51775 0.0
C36 C 0.84483 0.70277 0.49256 0.0
C37 C 0.90727 0.67072 0.47843 0.0
O38 O 0.86687 0.67122 0.5112 0.0
O39 O 0.87604 0.64155 0.50772 0.0
O40 O 0.8642 0.68559 0.45838 0.0
O41 O 0.86322 0.65868 0.47215 0.0
Co42 Co 0.32131 0.86117 0.4854 0.0
O43 O 0.31457 0.8357 0.48849 0.0
O44 O 0.29594 0.85935 0.49363 0.0
C45 C 0.33481 0.85693 0.45762 0.0
O46 O 0.32297 0.88923 0.4833 0.0
Co47 Co 0.362 0.87382 0.48116 0.0
O48 O 0.35104 0.89752 0.47314 0.0
C49 C 0.34677 0.8658 0.5184 0.0
C50 C 0.2983 0.84156 0.49315 0.0
C51 C 0.33445 0.90145 0.47739 0.0
O52 O 0.33066 0.8623 0.51169 0.0
O53 O 0.36086 0.8698 0.5085 0.0
O54 O 0.31707 0.85926 0.45873 0.0
O55 O 0.34356 0.85636 0.47311 0.0
Co56 Co 0.13759 0.67938 0.51267 0.0
O57 O 0.16345 0.68515 0.51026 0.0
O58 O 0.14057 0.70434 0.50377 0.0
C59 C 0.1403 0.66656 0.54099 0.0
O60 O 0.10948 0.67912 0.51391 0.0
Co61 Co 0.12255 0.63966 0.51789 0.0
O62 O 0.09897 0.65191 0.52426 0.0
C63 C 0.13273 0.65309 0.48043 0.0
C64 C 0.15824 0.70149 0.50504 0.0
C65 C 0.0963 0.6686 0.51948 0.0
O66 O 0.13688 0.66923 0.48666 0.0
O67 O 0.12765 0.63964 0.49071 0.0
O68 O 0.13888 0.68434 0.53925 0.0
O69 O 0.1409 0.65732 0.5258 0.0
Co70 Co 0.3161 0.13357 0.51384 0.0
O71 O 0.3076 0.15863 0.51261 0.0
O72 O 0.2906 0.13419 0.50569 0.0
C73 C 0.32964 0.13665 0.54182 0.0
O74 O 0.31995 0.1057 0.51385 0.0
Co75 Co 0.35798 0.12453 0.51652 0.0
O76 O 0.34935 0.09897 0.52118 0.0
C77 C 0.34182 0.13751 0.48136 0.0
C78 C 0.29184 0.15204 0.50724 0.0
C79 C 0.33281 0.09405 0.51767 0.0
O80 O 0.32532 0.13528 0.48756 0.0
O81 O 0.35636 0.13575 0.49126 0.0
O82 O 0.31206 0.13317 0.54068 0.0
O83 O 0.33798 0.13909 0.52633 0.0
Co84 Co 0.86172 0.31538 0.5088 0.0
O85 O 0.83642 0.30788 0.50543 0.0
O86 O 0.8606 0.28939 0.50284 0.0
C87 C 0.85697 0.33148 0.53514 0.0
O88 O 0.88968 0.31766 0.51187 0.0
Co89 Co 0.8736 0.3567 0.50923 0.0
O90 O 0.89715 0.3469 0.51894 0.0
C91 C 0.86671 0.33775 0.47361 0.0
C92 C 0.84276 0.2914 0.50242 0.0
C93 C 0.90148 0.32999 0.51688 0.0
O94 O 0.8636 0.32225 0.48174 0.0
O95 O 0.87003 0.35286 0.48214 0.0
O96 O 0.85884 0.31365 0.53568 0.0
O97 O 0.85657 0.33864 0.51886 0.0
Co98 Co 0.67841 0.85923 0.51144 0.0
O99 O 0.68674 0.83416 0.51004 0.0
O100 O 0.70442 0.85856 0.50498 0.0
C101 C 0.66306 0.85529 0.53828 0.0
O102 O 0.67467 0.88715 0.51208 0.0
Co103 Co 0.63644 0.86838 0.51174 0.0
O104 O 0.64493 0.8936 0.51822 0.0
C105 C 0.65472 0.85608 0.47736 0.0
C106 C 0.7029 0.84068 0.50596 0.0
C107 C 0.66162 0.89863 0.5158 0.0
O108 O 0.67083 0.85837 0.48458 0.0
O109 O 0.63965 0.85749 0.48649 0.0
O110 O 0.68066 0.85879 0.53854 0.0
O111 O 0.6558 0.85345 0.52218 0.0
Co112 Co 0.48632 0.13401 0.31634 0.0
O113 O 0.48798 0.15815 0.30565 0.0
O114 O 0.49424 0.13217 0.29083 0.0
C115 C 0.45859 0.1387 0.32971 0.0
O116 O 0.48568 0.10663 0.32274 0.0
Co117 Co 0.48412 0.1292 0.3589 0.0
O118 O 0.47977 0.10283 0.35295 0.0
C119 C 0.51921 0.14007 0.34128 0.0
C120 C 0.4931 0.1501 0.29053 0.0
C121 C 0.48241 0.0963 0.33683 0.0
O122 O 0.51276 0.13601 0.32521 0.0
O123 O 0.50935 0.14018 0.35593 0.0
O124 O 0.45942 0.13365 0.31253 0.0
O125 O 0.47418 0.14179 0.33766 0.0
Co126 Co 0.86453 0.48553 0.31922 0.0
O127 O 0.8392 0.48764 0.31168 0.0
O128 O 0.86313 0.49421 0.29391 0.0
C129 C 0.86114 0.4572 0.332 0.0
O130 O 0.89265 0.48455 0.32206 0.0
Co131 Co 0.87495 0.48111 0.36068 0.0
O132 O 0.89999 0.47615 0.351 0.0
C133 C 0.86622 0.5182 0.34553 0.0
C134 C 0.8453 0.49285 0.2957 0.0
C135 C 0.90459 0.48016 0.33451 0.0
O136 O 0.86422 0.5117 0.32909 0.0
O137 O 0.86944 0.50815 0.35971 0.0
O138 O 0.86393 0.45886 0.31438 0.0
O139 O 0.85941 0.47247 0.34094 0.0
Co140 Co 0.51346 0.86291 0.31731 0.0
O141 O 0.51334 0.83859 0.30688 0.0
O142 O 0.50494 0.86389 0.29192 0.0
C143 C 0.54177 0.86034 0.33023 0.0
O144 O 0.51221 0.89033 0.32349 0.0
Co145 Co 0.51606 0.86813 0.35984 0.0
O146 O 0.51774 0.89474 0.35371 0.0
C147 C 0.4815 0.85475 0.34285 0.0
C148 C 0.50738 0.84609 0.29176 0.0
C149 C 0.51453 0.90094 0.33756 0.0
O150 O 0.48739 0.85913 0.32666 0.0
O151 O 0.4916 0.8554 0.35734 0.0
O152 O 0.54018 0.86507 0.313 0.0
O153 O 0.52656 0.85628 0.33847 0.0
Co154 Co 0.13825 0.50847 0.31706 0.0
O155 O 0.16333 0.50764 0.3086 0.0
O156 O 0.13899 0.50159 0.29115 0.0
C157 C 0.14113 0.53584 0.33184 0.0
O158 O 0.11033 0.50854 0.32099 0.0
Co159 Co 0.13003 0.50877 0.3592 0.0
O160 O 0.10424 0.51326 0.35106 0.0
C161 C 0.14226 0.47448 0.34104 0.0
C162 C 0.15684 0.50324 0.29252 0.0
C163 C 0.09894 0.51121 0.33439 0.0
O164 O 0.13971 0.48173 0.32501 0.0
O165 O 0.14115 0.48361 0.35613 0.0
O166 O 0.13789 0.53545 0.31421 0.0
O167 O 0.1438 0.52 0.33944 0.0
Co168 Co 0.48118 0.86442 0.6848 0.0
O169 O 0.48147 0.83995 0.69494 0.0
O170 O 0.49179 0.86486 0.70936 0.0
C171 C 0.45191 0.86321 0.67424 0.0
O172 O 0.48268 0.8919 0.67887 0.0
Co173 Co 0.47541 0.87011 0.64252 0.0
O174 O 0.47574 0.89671 0.64897 0.0
C175 C 0.51067 0.85552 0.6567 0.0
C176 C 0.48882 0.84715 0.70959 0.0
C177 C 0.48 0.90267 0.66497 0.0
O178 O 0.50629 0.86014 0.67329 0.0
O179 O 0.49941 0.85636 0.6431 0.0
O180 O 0.45501 0.86724 0.69143 0.0
O181 O 0.46614 0.85868 0.66466 0.0
Co182 Co 0.13038 0.48813 0.67932 0.0
O183 O 0.1554 0.49129 0.68752 0.0
O184 O 0.13085 0.49346 0.70555 0.0
C185 C 0.13632 0.46234 0.6628 0.0
O186 O 0.10246 0.48525 0.676 0.0
Co187 Co 0.12 0.48837 0.63768 0.0
O188 O 0.09594 0.47889 0.64638 0.0
C189 C 0.12642 0.52369 0.65748 0.0
C190 C 0.14874 0.494 0.7039 0.0
C191 C 0.09102 0.48071 0.66315 0.0
O192 O 0.12883 0.51532 0.67299 0.0
O193 O 0.12367 0.51537 0.64213 0.0
O194 O 0.13315 0.46115 0.68041 0.0
O195 O 0.13663 0.47879 0.65611 0.0
Co196 Co 0.51062 0.13644 0.67998 0.0
O197 O 0.51039 0.16115 0.68945 0.0
O198 O 0.50333 0.13636 0.70579 0.0
C199 C 0.53828 0.13921 0.66574 0.0
O200 O 0.50997 0.10873 0.67498 0.0
Co201 Co 0.51158 0.12955 0.6376 0.0
O202 O 0.51532 0.10344 0.64487 0.0
C203 C 0.47736 0.14257 0.65549 0.0
C204 C 0.50555 0.15418 0.70519 0.0
C205 C 0.51273 0.0977 0.66129 0.0
O206 O 0.48405 0.13911 0.67161 0.0
O207 O 0.48685 0.14157 0.64062 0.0
O208 O 0.53757 0.13518 0.6832 0.0
O209 O 0.52261 0.14252 0.65802 0.0
Co210 Co 0.85831 0.51267 0.67869 0.0
O211 O 0.83344 0.51257 0.68782 0.0
O212 O 0.85794 0.50409 0.70403 0.0
C213 C 0.85664 0.541 0.66571 0.0
O214 O 0.88603 0.51136 0.6741 0.0
Co215 Co 0.86577 0.51518 0.6365 0.0
O216 O 0.89214 0.51592 0.644 0.0
C217 C 0.85165 0.48068 0.65269 0.0
C218 C 0.84016 0.5066 0.7033 0.0
C219 C 0.89741 0.51304 0.66055 0.0
O220 O 0.85517 0.48664 0.66907 0.0
O221 O 0.85282 0.49076 0.63823 0.0
O222 O 0.86028 0.53936 0.6832 0.0
O223 O 0.85293 0.52584 0.65722 0.0
Co224 Co 0.31891 0.48604 0.13181 0.0
O225 O 0.31165 0.48852 0.15723 0.0
O226 O 0.29303 0.49253 0.13334 0.0
C227 C 0.33447 0.45928 0.13592 0.0
O228 O 0.321 0.48422 0.10373 0.0
Co229 Co 0.36002 0.48485 0.11948 0.0
O230 O 0.34977 0.47576 0.09586 0.0
C231 C 0.34221 0.5207 0.12827 0.0
C232 C 0.29519 0.49218 0.15115 0.0
C233 C 0.33298 0.47892 0.09171 0.0
O234 O 0.32646 0.51292 0.13108 0.0
O235 O 0.35702 0.5119 0.12437 0.0
O236 O 0.31666 0.45909 0.13367 0.0
O237 O 0.34195 0.4754 0.13659 0.0
Co238 Co 0.31595 0.51144 0.85868 0.0
O239 O 0.30696 0.51084 0.83377 0.0
O240 O 0.29044 0.50323 0.85828 0.0
C241 C 0.32919 0.53952 0.85584 0.0
O242 O 0.32026 0.5109 0.88648 0.0
Co243 Co 0.35783 0.51443 0.86729 0.0
O244 O 0.34955 0.51877 0.893 0.0
C245 C 0.34198 0.47933 0.85358 0.0
C246 C 0.29126 0.50549 0.84048 0.0
C247 C 0.33316 0.51488 0.89806 0.0
O248 O 0.32541 0.48526 0.85619 0.0
O249 O 0.35636 0.48947 0.85542 0.0
O250 O 0.31174 0.53825 0.85979 0.0
O251 O 0.33764 0.52417 0.85296 0.0
Co252 Co 0.4839 0.31609 0.86392 0.0
O253 O 0.48654 0.30724 0.83907 0.0
O254 O 0.49125 0.29034 0.86407 0.0
C255 C 0.45654 0.33031 0.85886 0.0
O256 O 0.48214 0.32022 0.89177 0.0
Co257 Co 0.48149 0.35806 0.87263 0.0
O258 O 0.47476 0.34973 0.89772 0.0
C259 C 0.51794 0.34057 0.86587 0.0
C260 C 0.49085 0.29137 0.84615 0.0
C261 C 0.47785 0.33327 0.90306 0.0
O262 O 0.51058 0.32448 0.8641 0.0
O263 O 0.50868 0.35539 0.86844 0.0
O264 O 0.457 0.31277 0.86254 0.0
O265 O 0.47237 0.33828 0.85736 0.0
Co266 Co 0.67956 0.48456 0.86466 0.0
O267 O 0.68681 0.48587 0.83919 0.0
O268 O 0.70525 0.49178 0.86284 0.0
C269 C 0.66498 0.45709 0.86188 0.0
O270 O 0.67736 0.4842 0.89275 0.0
Co271 Co 0.63842 0.4828 0.87662 0.0
O272 O 0.64864 0.47598 0.90102 0.0
C273 C 0.65521 0.51861 0.86602 0.0
C274 C 0.70313 0.49036 0.84507 0.0
C275 C 0.66537 0.47962 0.90504 0.0
O276 O 0.67123 0.51118 0.86397 0.0
O277 O 0.64057 0.5096 0.87007 0.0
O278 O 0.68274 0.45768 0.86437 0.0
O279 O 0.65691 0.47285 0.86023 0.0
Co280 Co 0.5118 0.68242 0.86435 0.0
O281 O 0.51214 0.69247 0.83992 0.0
O282 O 0.50373 0.70802 0.8648 0.0
C283 C 0.53991 0.66923 0.86223 0.0
O284 O 0.51031 0.67662 0.89186 0.0
Co285 Co 0.51377 0.63996 0.87 0.0
O286 O 0.51581 0.64642 0.89651 0.0
C287 C 0.47951 0.65724 0.85638 0.0
C288 C 0.50656 0.70787 0.84706 0.0
C289 C 0.5127 0.66264 0.90259 0.0
O290 O 0.48561 0.67342 0.86051 0.0
O291 O 0.48933 0.64259 0.85724 0.0
O292 O 0.5385 0.6865 0.86678 0.0
O293 O 0.52473 0.66101 0.85799 0.0
Co294 Co 0.68134 0.51392 0.13703 0.0
O295 O 0.68883 0.51134 0.16238 0.0
O296 O 0.70696 0.50635 0.13833 0.0
C297 C 0.66711 0.54136 0.14127 0.0
O298 O 0.67899 0.51559 0.109 0.0
Co299 Co 0.64028 0.51692 0.12515 0.0
O300 O 0.65051 0.52492 0.10113 0.0
C301 C 0.65653 0.48031 0.13382 0.0
C302 C 0.70504 0.50695 0.15616 0.0
C303 C 0.66713 0.52106 0.09694 0.0
O304 O 0.67262 0.48739 0.13656 0.0
O305 O 0.6421 0.48975 0.12999 0.0
O306 O 0.68483 0.54075 0.13854 0.0
O307 O 0.65886 0.52563 0.14216 0.0
Co308 Co 0.48634 0.68142 0.13688 0.0
O309 O 0.48641 0.69136 0.16138 0.0
O310 O 0.49552 0.70662 0.13655 0.0
C311 C 0.45768 0.66947 0.13871 0.0
O312 O 0.48751 0.67577 0.10932 0.0
Co313 Co 0.48259 0.63914 0.13087 0.0
O314 O 0.47994 0.64606 0.10453 0.0
C315 C 0.51772 0.6548 0.14439 0.0
C316 C 0.49261 0.70656 0.15428 0.0
C317 C 0.48393 0.66211 0.09851 0.0
O318 O 0.51212 0.67126 0.14069 0.0
O319 O 0.50733 0.64054 0.14323 0.0
O320 O 0.4599 0.68671 0.13442 0.0
O321 O 0.47243 0.66052 0.14301 0.0
Co322 Co 0.51364 0.31414 0.13548 0.0
O323 O 0.51415 0.30416 0.15997 0.0
O324 O 0.50642 0.28833 0.13502 0.0
C325 C 0.54127 0.32831 0.13763 0.0
O326 O 0.51215 0.31963 0.10792 0.0
Co327 Co 0.5142 0.35655 0.12926 0.0
O328 O 0.51731 0.3498 0.10293 0.0
C329 C 0.47987 0.33821 0.14134 0.0
C330 C 0.50915 0.28856 0.15278 0.0
C331 C 0.51451 0.33347 0.09702 0.0
O332 O 0.4871 0.32217 0.13892 0.0
O333 O 0.48879 0.35336 0.13972 0.0
O334 O 0.54043 0.31095 0.13329 0.0
O335 O 0.52583 0.3361 0.14174 0.0
C336 C 0.13319 0.44215 0.33309 0.0
C337 C 0.14474 0.45436 0.34278 0.0
C338 C 0.13217 0.42355 0.3383 0.0
C339 C 0.12106 0.39419 0.36681 0.0
H340 H 0.16201 0.36442 0.38425 0.0
C341 C 0.12167 0.35406 0.43431 0.0
C342 C 0.12924 0.33626 0.43494 0.0
C343 C 0.12173 0.36412 0.41792 0.0
C344 C 0.1504 0.37232 0.3791 0.0
H345 H 0.16541 0.45655 0.36426 0.0
H346 H 0.16407 0.4241 0.37296 0.0
H347 H 0.16782 0.39025 0.36326 0.0
H348 H 0.14235 0.31472 0.41894 0.0
H349 H 0.14316 0.33278 0.39016 0.0
H350 H 0.10384 0.37722 0.38387 0.0
C351 C 0.1557 0.42878 0.36149 0.0
C352 C 0.15373 0.38714 0.36718 0.0
C353 C 0.15642 0.44738 0.35657 0.0
C354 C 0.13629 0.32838 0.41871 0.0
C355 C 0.13682 0.33869 0.40233 0.0
C356 C 0.11776 0.37957 0.37894 0.0
C357 C 0.14299 0.41685 0.35297 0.0
C358 C 0.13918 0.39864 0.36149 0.0
C359 C 0.12976 0.35676 0.40191 0.0
C360 C 0.13249 0.36895 0.38573 0.0
H361 H 0.12393 0.44725 0.32252 0.0
H362 H 0.12227 0.41463 0.33151 0.0
H363 H 0.10958 0.40291 0.3628 0.0
H364 H 0.11612 0.36042 0.44663 0.0
H365 H 0.1164 0.37809 0.41805 0.0
C366 C 0.66231 0.12804 0.42236 0.0
C367 C 0.65578 0.13658 0.4385 0.0
C368 C 0.65237 0.12966 0.40578 0.0
C369 C 0.61852 0.15896 0.38218 0.0
H370 H 0.59605 0.11439 0.36292 0.0
C371 C 0.5448 0.15623 0.3573 0.0
C372 C 0.53912 0.1437 0.34368 0.0
C373 C 0.56326 0.15726 0.36258 0.0
C374 C 0.60258 0.12697 0.36766 0.0
H375 H 0.63418 0.15388 0.44991 0.0
H376 H 0.61728 0.15704 0.42113 0.0
H377 H 0.6218 0.11212 0.38465 0.0
H378 H 0.54839 0.12314 0.32409 0.0
H379 H 0.58095 0.12473 0.33356 0.0
H380 H 0.59875 0.17385 0.36609 0.0
C381 C 0.62991 0.14902 0.4212 0.0
C382 C 0.61731 0.12564 0.38013 0.0
C383 C 0.63951 0.14707 0.43772 0.0
C384 C 0.55247 0.13299 0.33456 0.0
C385 C 0.57103 0.13382 0.34007 0.0
C386 C 0.60395 0.1603 0.36964 0.0
C387 C 0.63614 0.14029 0.4051 0.0
C388 C 0.62471 0.14162 0.38821 0.0
C389 C 0.57651 0.14561 0.35451 0.0
C390 C 0.59513 0.14431 0.36306 0.0
H391 H 0.67481 0.11985 0.42264 0.0
H392 H 0.65733 0.12269 0.39353 0.0
H393 H 0.62417 0.17148 0.3881 0.0
H394 H 0.53478 0.16466 0.36452 0.0
H395 H 0.56688 0.16632 0.3739 0.0
C396 C 0.87342 0.64084 0.43799 0.0
C397 C 0.86471 0.6581 0.43895 0.0
C398 C 0.87355 0.63088 0.42156 0.0
C399 C 0.84727 0.6171 0.3844 0.0
H400 H 0.89369 0.60073 0.36342 0.0
C401 C 0.85334 0.55017 0.34048 0.0
C402 C 0.86642 0.53833 0.34854 0.0
C403 C 0.85283 0.56892 0.34548 0.0
C404 C 0.88056 0.60534 0.36888 0.0
H405 H 0.84928 0.67854 0.42353 0.0
H406 H 0.84884 0.66048 0.39463 0.0
H407 H 0.89323 0.62716 0.38432 0.0
H408 H 0.88981 0.53684 0.36714 0.0
H409 H 0.88913 0.56916 0.37556 0.0
H410 H 0.83485 0.59413 0.37044 0.0
C411 C 0.85591 0.65503 0.40663 0.0
C412 C 0.88032 0.62051 0.38074 0.0
C413 C 0.85622 0.66532 0.42305 0.0
C414 C 0.87949 0.54564 0.36082 0.0
C415 C 0.87921 0.56424 0.3655 0.0
C416 C 0.84753 0.60176 0.37263 0.0
C417 C 0.86461 0.63774 0.40584 0.0
C418 C 0.86382 0.62596 0.38925 0.0
C419 C 0.8657 0.57607 0.35819 0.0
C420 C 0.86437 0.59514 0.36559 0.0
H421 H 0.88009 0.63492 0.44996 0.0
H422 H 0.88022 0.61749 0.42128 0.0
H423 H 0.83442 0.62099 0.39099 0.0
H424 H 0.8431 0.5448 0.331 0.0
H425 H 0.84223 0.57773 0.3397 0.0
C426 C 0.33765 0.86136 0.42327 0.0
C427 C 0.34468 0.85446 0.43999 0.0
C428 C 0.34778 0.85934 0.40688 0.0
C429 C 0.38387 0.83124 0.38534 0.0
H430 H 0.40294 0.87609 0.36331 0.0
C431 C 0.45713 0.83769 0.35981 0.0
C432 C 0.46189 0.84992 0.34559 0.0
C433 C 0.43881 0.83566 0.36524 0.0
C434 C 0.39737 0.86337 0.36883 0.0
H435 H 0.36737 0.83962 0.45266 0.0
H436 H 0.38466 0.8357 0.42418 0.0
H437 H 0.37707 0.87776 0.38488 0.0
H438 H 0.45112 0.8688 0.32507 0.0
H439 H 0.41879 0.8654 0.33476 0.0
H440 H 0.40468 0.81689 0.37011 0.0
C441 C 0.37148 0.84275 0.42367 0.0
C442 C 0.38258 0.86436 0.38122 0.0
C443 C 0.36165 0.84514 0.43999 0.0
C444 C 0.44779 0.85921 0.33604 0.0
C445 C 0.42934 0.85737 0.34167 0.0
C446 C 0.3985 0.83022 0.37286 0.0
C447 C 0.36475 0.84993 0.40699 0.0
C448 C 0.37638 0.8484 0.39028 0.0
C449 C 0.42475 0.84595 0.3567 0.0
C450 C 0.4061 0.84638 0.36528 0.0
H451 H 0.3246 0.86865 0.42295 0.0
H452 H 0.34242 0.86509 0.39417 0.0
H453 H 0.37916 0.81872 0.39202 0.0
H454 H 0.46773 0.8303 0.36736 0.0
H455 H 0.43588 0.82693 0.37701 0.0
C456 C 0.11305 0.55305 0.64644 0.0
C457 C 0.12674 0.54397 0.65668 0.0
C458 C 0.11519 0.57149 0.64147 0.0
C459 C 0.12147 0.61183 0.63328 0.0
H460 H 0.16817 0.61544 0.60746 0.0
C461 C 0.1353 0.66581 0.57538 0.0
C462 C 0.14099 0.65708 0.55902 0.0
C463 C 0.13541 0.65613 0.59216 0.0
C464 C 0.15517 0.61481 0.61482 0.0
H465 H 0.15279 0.54722 0.67094 0.0
H466 H 0.1568 0.57969 0.66194 0.0
H467 H 0.16374 0.59129 0.63038 0.0
H468 H 0.15177 0.63168 0.54745 0.0
H469 H 0.15216 0.61502 0.5765 0.0
H470 H 0.11251 0.63456 0.6166 0.0
C471 C 0.14432 0.57251 0.65787 0.0
C472 C 0.15269 0.60109 0.62811 0.0
C473 C 0.14201 0.55402 0.66312 0.0
C474 C 0.14724 0.63877 0.55981 0.0
C475 C 0.14764 0.62927 0.5765 0.0
C476 C 0.124 0.62564 0.62002 0.0
C477 C 0.13125 0.58121 0.64639 0.0
C478 C 0.13549 0.59884 0.63679 0.0
C479 C 0.1416 0.63774 0.59284 0.0
C480 C 0.14056 0.62663 0.61 0.0
H481 H 0.10116 0.54553 0.64131 0.0
H482 H 0.10495 0.57761 0.63246 0.0
H483 H 0.10813 0.61056 0.63991 0.0
H484 H 0.13039 0.67993 0.57514 0.0
H485 H 0.1306 0.66295 0.60455 0.0
C486 C 0.33332 0.13077 0.57593 0.0
C487 C 0.33963 0.13881 0.55945 0.0
C488 C 0.34358 0.1327 0.59228 0.0
C489 C 0.37826 0.16219 0.61449 0.0
H490 H 0.40003 0.11785 0.63499 0.0
C491 C 0.45204 0.15904 0.63943 0.0
C492 C 0.45754 0.1467 0.65328 0.0
C493 C 0.43358 0.16025 0.63416 0.0
C494 C 0.39371 0.1304 0.62989 0.0
H495 H 0.36122 0.15555 0.54721 0.0
H496 H 0.37869 0.15927 0.57559 0.0
H497 H 0.37409 0.11537 0.61352 0.0
H498 H 0.44797 0.1267 0.67331 0.0
H499 H 0.41541 0.12864 0.66389 0.0
H500 H 0.3984 0.17723 0.63001 0.0
C501 C 0.36597 0.1514 0.57596 0.0
C502 C 0.37888 0.12894 0.61756 0.0
C503 C 0.35604 0.14913 0.55967 0.0
C504 C 0.44403 0.13643 0.66266 0.0
C505 C 0.42547 0.13743 0.65717 0.0
C506 C 0.39295 0.16366 0.62689 0.0
C507 C 0.35995 0.14315 0.59239 0.0
C508 C 0.37169 0.14479 0.60905 0.0
C509 C 0.42015 0.14898 0.64247 0.0
C510 C 0.4015 0.14773 0.63394 0.0
H511 H 0.32072 0.1227 0.57608 0.0
H512 H 0.33875 0.12611 0.60479 0.0
H513 H 0.37279 0.17463 0.60824 0.0
H514 H 0.46219 0.16712 0.63199 0.0
H515 H 0.4301 0.16912 0.62264 0.0
C516 C 0.86059 0.44775 0.65685 0.0
C517 C 0.84829 0.46088 0.64964 0.0
C518 C 0.86075 0.42974 0.64984 0.0
C519 C 0.86801 0.40409 0.61664 0.0
H520 H 0.82617 0.37248 0.60564 0.0
C521 C 0.85972 0.36225 0.55023 0.0
C522 C 0.85674 0.34316 0.55186 0.0
C523 C 0.85938 0.37357 0.56576 0.0
C524 C 0.83802 0.38101 0.60888 0.0
H525 H 0.82554 0.46526 0.63077 0.0
H526 H 0.82527 0.43362 0.61911 0.0
H527 H 0.82283 0.39763 0.62816 0.0
H528 H 0.85087 0.32097 0.57104 0.0
H529 H 0.84963 0.34114 0.59837 0.0
H530 H 0.88274 0.3885 0.59628 0.0
C531 C 0.8349 0.43724 0.62997 0.0
C532 C 0.83611 0.39536 0.62168 0.0
C533 C 0.83507 0.45532 0.63661 0.0
C534 C 0.85329 0.33563 0.56941 0.0
C535 C 0.85254 0.3471 0.58498 0.0
C536 C 0.86979 0.39003 0.60359 0.0
C537 C 0.84828 0.42453 0.63591 0.0
C538 C 0.85099 0.40726 0.62536 0.0
C539 C 0.8557 0.36615 0.58324 0.0
C540 C 0.8547 0.37866 0.5993 0.0
H541 H 0.87108 0.4518 0.66672 0.0
H542 H 0.87122 0.42018 0.65457 0.0
H543 H 0.8796 0.41324 0.61902 0.0
H544 H 0.86235 0.36851 0.53693 0.0
H545 H 0.86165 0.38826 0.56408 0.0
C546 C 0.5447 0.86153 0.65832 0.0
C547 C 0.52988 0.85056 0.65222 0.0
C548 C 0.56202 0.86012 0.64975 0.0
C549 C 0.57776 0.85003 0.60358 0.0
H550 H 0.62794 0.85076 0.62228 0.0
C551 C 0.63671 0.8405 0.55392 0.0
C552 C 0.65167 0.85273 0.55491 0.0
C553 C 0.62421 0.83917 0.56838 0.0
C554 C 0.61398 0.85074 0.61693 0.0
H555 H 0.52193 0.82821 0.63407 0.0
H556 H 0.55211 0.82539 0.61956 0.0
H557 H 0.60178 0.84952 0.64402 0.0
H558 H 0.66598 0.87248 0.57217 0.0
H559 H 0.64346 0.87063 0.59761 0.0
H560 H 0.58947 0.85161 0.5767 0.0
C561 C 0.55034 0.83539 0.63053 0.0
C562 C 0.59907 0.84996 0.62933 0.0
C563 C 0.5331 0.83693 0.63888 0.0
C564 C 0.65448 0.86298 0.57112 0.0
C565 C 0.64166 0.86187 0.58564 0.0
C566 C 0.59247 0.85092 0.59133 0.0
C567 C 0.56464 0.84766 0.63511 0.0
C568 C 0.58083 0.84917 0.62267 0.0
C569 C 0.62606 0.85036 0.5841 0.0
C570 C 0.61077 0.85083 0.59776 0.0
H571 H 0.54248 0.87223 0.66852 0.0
H572 H 0.57283 0.86974 0.65355 0.0
H573 H 0.56386 0.85006 0.59804 0.0
H574 H 0.63443 0.83216 0.54171 0.0
H575 H 0.61268 0.82974 0.56698 0.0
C576 C 0.34203 0.12801 0.44835 0.0
C577 C 0.34476 0.1417 0.46178 0.0
C578 C 0.34999 0.12989 0.43082 0.0
C579 C 0.39144 0.15137 0.41236 0.0
H580 H 0.37458 0.13441 0.36449 0.0
C581 C 0.4397 0.15689 0.35136 0.0
C582 C 0.44125 0.14145 0.33985 0.0
C583 C 0.42484 0.15861 0.36338 0.0
C584 C 0.37947 0.13911 0.3778 0.0
H585 H 0.35636 0.16863 0.46725 0.0
H586 H 0.36958 0.17235 0.43652 0.0
H587 H 0.35307 0.13486 0.39071 0.0
H588 H 0.42821 0.11607 0.33107 0.0
H589 H 0.40233 0.1186 0.35289 0.0
H590 H 0.41785 0.15499 0.40008 0.0
C591 C 0.36175 0.15996 0.43952 0.0
C592 C 0.36716 0.13942 0.39277 0.0
C593 C 0.35406 0.15795 0.45703 0.0
C594 C 0.42718 0.12814 0.33982 0.0
C595 C 0.41239 0.12964 0.35227 0.0
C596 C 0.40366 0.15096 0.39759 0.0
C597 C 0.36071 0.14553 0.42658 0.0
C598 C 0.37303 0.14571 0.41018 0.0
C599 C 0.41144 0.14462 0.36464 0.0
C600 C 0.39787 0.14499 0.38006 0.0
H601 H 0.3351 0.11524 0.45189 0.0
H602 H 0.34899 0.11851 0.42119 0.0
H603 H 0.39664 0.15569 0.4257 0.0
H604 H 0.45031 0.16744 0.35141 0.0
H605 H 0.42426 0.17063 0.37225 0.0
C606 C 0.88137 0.34806 0.44463 0.0
C607 C 0.86679 0.33878 0.45333 0.0
C608 C 0.87989 0.35348 0.42625 0.0
C609 C 0.87477 0.36317 0.38609 0.0
H610 H 0.8299 0.39204 0.38232 0.0
C611 C 0.86526 0.4227 0.33285 0.0
C612 C 0.85995 0.43921 0.34153 0.0
C613 C 0.86427 0.40588 0.3424 0.0
C614 C 0.8424 0.38387 0.38301 0.0
H615 H 0.83978 0.32664 0.44949 0.0
H616 H 0.83696 0.33642 0.41712 0.0
H617 H 0.83244 0.36839 0.40602 0.0
H618 H 0.84912 0.45104 0.36679 0.0
H619 H 0.84732 0.42194 0.38326 0.0
H620 H 0.88518 0.37971 0.36388 0.0
C621 C 0.8496 0.3394 0.42454 0.0
C622 C 0.8438 0.37015 0.39647 0.0
C623 C 0.85123 0.3337 0.44297 0.0
C624 C 0.85335 0.43857 0.35972 0.0
C625 C 0.85213 0.42185 0.36911 0.0
C626 C 0.87335 0.37688 0.37256 0.0
C627 C 0.86364 0.35001 0.41623 0.0
C628 C 0.86034 0.36029 0.39877 0.0
C629 C 0.85764 0.40532 0.36063 0.0
C630 C 0.85749 0.38798 0.37153 0.0
H631 H 0.8935 0.35212 0.4524 0.0
H632 H 0.89089 0.36178 0.42043 0.0
H633 H 0.88762 0.35563 0.38738 0.0
H634 H 0.8704 0.42281 0.31882 0.0
H635 H 0.86868 0.39334 0.33557 0.0
C636 C 0.56074 0.84737 0.35556 0.0
C637 C 0.55963 0.8587 0.33989 0.0
C638 C 0.57725 0.84565 0.36523 0.0
C639 C 0.61732 0.8705 0.37907 0.0
H640 H 0.63254 0.82243 0.39707 0.0
C641 C 0.66222 0.8633 0.44438 0.0
C642 C 0.6529 0.85244 0.45746 0.0
C643 C 0.65709 0.86254 0.42572 0.0
C644 C 0.62867 0.83596 0.39201 0.0
H645 H 0.57491 0.87713 0.32199 0.0
H646 H 0.60397 0.87464 0.33958 0.0
H647 H 0.61086 0.82456 0.37135 0.0
H648 H 0.63209 0.83136 0.46131 0.0
H649 H 0.62345 0.82971 0.42899 0.0
H650 H 0.63394 0.8819 0.40072 0.0
C651 C 0.59201 0.86685 0.34402 0.0
C652 C 0.61631 0.83716 0.37728 0.0
C653 C 0.57545 0.86827 0.33401 0.0
C654 C 0.63948 0.83984 0.45146 0.0
C655 C 0.63462 0.83885 0.4329 0.0
C656 C 0.62965 0.8693 0.39392 0.0
C657 C 0.59301 0.85544 0.35969 0.0
C658 C 0.6098 0.85441 0.37131 0.0
C659 C 0.64287 0.85064 0.4199 0.0
C660 C 0.63465 0.85198 0.40116 0.0
H661 H 0.5488 0.83977 0.36039 0.0
H662 H 0.57754 0.83701 0.37743 0.0
H663 H 0.61246 0.88396 0.37476 0.0
H664 H 0.67251 0.87324 0.44875 0.0
H665 H 0.6637 0.87176 0.41599 0.0
C666 C 0.14798 0.65555 0.44936 0.0
C667 C 0.13328 0.64946 0.46041 0.0
C668 C 0.14966 0.64922 0.43113 0.0
C669 C 0.15646 0.61886 0.40227 0.0
H670 H 0.11432 0.60867 0.37077 0.0
C671 C 0.14938 0.55264 0.36062 0.0
C672 C 0.14194 0.55306 0.34273 0.0
C673 C 0.15014 0.56861 0.3713 0.0
C674 C 0.12633 0.61169 0.37917 0.0
H675 H 0.1081 0.63331 0.46081 0.0
H676 H 0.11082 0.6226 0.42919 0.0
H677 H 0.11145 0.63105 0.39585 0.0
H678 H 0.12955 0.57059 0.3219 0.0
H679 H 0.13043 0.59866 0.34093 0.0
H680 H 0.17103 0.59877 0.38623 0.0
C681 C 0.12113 0.6321 0.43442 0.0
C682 C 0.12466 0.62442 0.39358 0.0
C683 C 0.11965 0.6381 0.45261 0.0
C684 C 0.13536 0.56988 0.33566 0.0
C685 C 0.13586 0.58591 0.34652 0.0
C686 C 0.15808 0.60606 0.38795 0.0
C687 C 0.13643 0.63709 0.42363 0.0
C688 C 0.13948 0.62755 0.40576 0.0
C689 C 0.14328 0.5854 0.36446 0.0
C690 C 0.1428 0.60177 0.37675 0.0
H691 H 0.15867 0.66429 0.4551 0.0
H692 H 0.16159 0.6533 0.4231 0.0
H693 H 0.1681 0.62089 0.41145 0.0
H694 H 0.15462 0.53991 0.36645 0.0
H695 H 0.15562 0.56769 0.38518 0.0
C696 C 0.36051 0.88004 0.54628 0.0
C697 C 0.34945 0.86612 0.53856 0.0
C698 C 0.36502 0.87972 0.56495 0.0
C699 C 0.37508 0.8476 0.60112 0.0
H700 H 0.37882 0.89197 0.63083 0.0
C701 C 0.4218 0.84945 0.66527 0.0
C702 C 0.43368 0.86472 0.66558 0.0
C703 C 0.40625 0.84943 0.65378 0.0
C704 C 0.37785 0.87942 0.62276 0.0
H705 H 0.33391 0.84126 0.54432 0.0
H706 H 0.34243 0.84032 0.57725 0.0
H707 H 0.36034 0.89222 0.60264 0.0
H708 H 0.4386 0.8921 0.65489 0.0
H709 H 0.41168 0.89217 0.63471 0.0
H710 H 0.3936 0.83513 0.62042 0.0
C711 C 0.34732 0.85161 0.56876 0.0
C712 C 0.36718 0.87955 0.60669 0.0
C713 C 0.34242 0.85217 0.55002 0.0
C714 C 0.42944 0.88028 0.65498 0.0
C715 C 0.41395 0.8803 0.64351 0.0
C716 C 0.38588 0.8475 0.61713 0.0
C717 C 0.35887 0.8653 0.57632 0.0
C718 C 0.36628 0.86386 0.59534 0.0
C719 C 0.40244 0.86467 0.64234 0.0
C720 C 0.38799 0.86364 0.62774 0.0
H721 H 0.36602 0.891 0.53774 0.0
H722 H 0.37413 0.89032 0.57029 0.0
H723 H 0.37477 0.83535 0.59255 0.0
H724 H 0.42504 0.83721 0.67322 0.0
H725 H 0.39761 0.83724 0.65336 0.0
C726 C 0.1494 0.44887 0.63433 0.0
C727 C 0.1395 0.44626 0.65073 0.0
C728 C 0.15154 0.4345 0.62181 0.0
C729 C 0.1473 0.38416 0.61414 0.0
H730 H 0.14159 0.40063 0.56354 0.0
C731 C 0.13722 0.34029 0.54592 0.0
C732 C 0.14726 0.34716 0.53082 0.0
C733 C 0.13848 0.34901 0.56318 0.0
C734 C 0.14337 0.39582 0.57759 0.0
H735 H 0.1247 0.42634 0.66738 0.0
H736 H 0.1279 0.40103 0.64493 0.0
H737 H 0.13835 0.42262 0.58846 0.0
H738 H 0.16801 0.36688 0.52226 0.0
H739 H 0.17048 0.38177 0.55229 0.0
H740 H 0.15185 0.35704 0.60277 0.0
C741 C 0.13424 0.41423 0.64196 0.0
C742 C 0.14156 0.40844 0.5919 0.0
C743 C 0.13234 0.42869 0.65476 0.0
C744 C 0.16005 0.36141 0.53368 0.0
C745 C 0.16142 0.36996 0.55083 0.0
C746 C 0.14893 0.37136 0.59965 0.0
C747 C 0.14348 0.41718 0.62512 0.0
C748 C 0.14397 0.40294 0.61034 0.0
C749 C 0.14986 0.36457 0.56541 0.0
C750 C 0.14741 0.37725 0.58123 0.0
H751 H 0.15541 0.46217 0.63103 0.0
H752 H 0.15926 0.43712 0.60929 0.0
H753 H 0.14915 0.37949 0.62821 0.0
H754 H 0.12714 0.3294 0.54398 0.0
H755 H 0.12942 0.34463 0.57423 0.0
C756 C 0.55565 0.15061 0.63856 0.0
C757 C 0.55565 0.1407 0.6552 0.0
C758 C 0.57171 0.15226 0.62816 0.0
C759 C 0.6132 0.12866 0.61557 0.0
H760 H 0.62498 0.17577 0.59304 0.0
C761 C 0.65889 0.13353 0.55036 0.0
C762 C 0.64927 0.14257 0.53615 0.0
C763 C 0.65303 0.13529 0.56873 0.0
C764 C 0.62205 0.16254 0.59935 0.0
H765 H 0.57245 0.12464 0.67402 0.0
H766 H 0.60074 0.12702 0.65526 0.0
H767 H 0.60353 0.17457 0.61896 0.0
H768 H 0.62699 0.1615 0.52999 0.0
H769 H 0.61703 0.16487 0.56178 0.0
H770 H 0.63066 0.11649 0.59505 0.0
C771 C 0.58824 0.13375 0.65057 0.0
C772 C 0.6098 0.16186 0.61418 0.0
C773 C 0.57212 0.13241 0.66126 0.0
C774 C 0.63463 0.15437 0.54069 0.0
C775 C 0.62901 0.15638 0.55895 0.0
C776 C 0.62543 0.12933 0.60061 0.0
C777 C 0.58815 0.1438 0.63397 0.0
C778 C 0.60458 0.14484 0.62184 0.0
C779 C 0.63773 0.14643 0.57313 0.0
C780 C 0.62923 0.1462 0.59178 0.0
H781 H 0.5432 0.1572 0.63354 0.0
H782 H 0.57115 0.15981 0.61527 0.0
H783 H 0.60935 0.11536 0.6212 0.0
H784 H 0.67015 0.12423 0.54716 0.0
H785 H 0.66003 0.12749 0.57939 0.0
C786 C 0.84756 0.55998 0.63868 0.0
C787 C 0.85647 0.55883 0.65584 0.0
C788 C 0.84772 0.57636 0.62865 0.0
C789 C 0.87622 0.61615 0.61993 0.0
H790 H 0.8343 0.63028 0.5897 0.0
C791 C 0.85695 0.66017 0.54917 0.0
C792 C 0.8704 0.65197 0.53787 0.0
C793 C 0.85523 0.65479 0.5677 0.0
C794 C 0.84606 0.62692 0.59831 0.0
H795 H 0.87227 0.57402 0.67619 0.0
H796 H 0.87301 0.60283 0.65823 0.0
H797 H 0.82988 0.60916 0.61552 0.0
H798 H 0.89347 0.63292 0.53737 0.0
H799 H 0.89061 0.62373 0.56938 0.0
H800 H 0.89257 0.63311 0.60208 0.0
C801 C 0.86571 0.59099 0.65273 0.0
C802 C 0.84355 0.61468 0.613 0.0
C803 C 0.86529 0.57456 0.66298 0.0
C804 C 0.88283 0.63932 0.54569 0.0
C805 C 0.88132 0.63421 0.56414 0.0
C806 C 0.87874 0.62835 0.60519 0.0
C807 C 0.85697 0.59199 0.63541 0.0
C808 C 0.85876 0.60846 0.62336 0.0
C809 C 0.86721 0.64147 0.57525 0.0
C810 C 0.86384 0.63312 0.59367 0.0
H811 H 0.84056 0.54811 0.63285 0.0
H812 H 0.84115 0.57655 0.61521 0.0
H813 H 0.88819 0.61163 0.62766 0.0
H814 H 0.84721 0.66998 0.54346 0.0
H815 H 0.84424 0.66063 0.57597 0.0
C816 C 0.36499 0.44416 0.13995 0.0
C817 C 0.34581 0.44241 0.13779 0.0
C818 C 0.376 0.42868 0.14276 0.0
C819 C 0.37903 0.37881 0.13597 0.0
H820 H 0.41946 0.38464 0.17057 0.0
C821 C 0.45303 0.34413 0.16178 0.0
C822 C 0.45991 0.33989 0.14424 0.0
C823 C 0.43519 0.35125 0.16373 0.0
C824 C 0.40806 0.38241 0.16116 0.0
H825 H 0.32312 0.42294 0.13646 0.0
H826 H 0.34259 0.39557 0.14134 0.0
H827 H 0.3957 0.40803 0.16886 0.0
H828 H 0.45359 0.33869 0.11512 0.0
H829 H 0.42272 0.35157 0.11829 0.0
H830 H 0.39161 0.35323 0.1281 0.0
C831 C 0.349 0.40906 0.14087 0.0
C832 C 0.39454 0.39605 0.16 0.0
C833 C 0.33788 0.4247 0.1381 0.0
C834 C 0.44836 0.34159 0.12882 0.0
C835 C 0.43063 0.34897 0.1307 0.0
C836 C 0.39257 0.36504 0.1372 0.0
C837 C 0.36816 0.41097 0.14351 0.0
C838 C 0.38031 0.3948 0.14688 0.0
C839 C 0.42415 0.35475 0.14808 0.0
C840 C 0.40765 0.36702 0.14935 0.0
H841 H 0.37159 0.45757 0.13966 0.0
H842 H 0.39076 0.4306 0.14426 0.0
H843 H 0.36817 0.37742 0.12579 0.0
H844 H 0.46185 0.34307 0.17381 0.0
H845 H 0.43051 0.35512 0.17738 0.0
C846 C 0.45537 0.64489 0.83568 0.0
C847 C 0.45994 0.65461 0.85175 0.0
C848 C 0.43784 0.63722 0.8336 0.0
C849 C 0.39089 0.63197 0.85401 0.0
H850 H 0.39867 0.58109 0.83946 0.0
C851 C 0.33882 0.57114 0.86635 0.0
C852 C 0.3389 0.5571 0.85301 0.0
C853 C 0.35101 0.58615 0.86469 0.0
C854 C 0.39606 0.59532 0.84322 0.0
H855 H 0.44961 0.66515 0.87769 0.0
H856 H 0.41892 0.65124 0.87434 0.0
H857 H 0.42413 0.60251 0.83843 0.0
H858 H 0.35026 0.5483 0.82686 0.0
H859 H 0.37069 0.57468 0.82347 0.0
H860 H 0.36265 0.62432 0.85918 0.0
C861 C 0.42872 0.64989 0.86314 0.0
C862 C 0.41073 0.60767 0.8426 0.0
C863 C 0.44625 0.65788 0.86506 0.0
C864 C 0.35017 0.55889 0.83742 0.0
C865 C 0.36194 0.57394 0.83557 0.0
C866 C 0.37603 0.6195 0.85458 0.0
C867 C 0.42469 0.63865 0.84782 0.0
C868 C 0.40838 0.62617 0.84785 0.0
C869 C 0.36318 0.58731 0.84957 0.0
C870 C 0.37847 0.60104 0.84905 0.0
H871 H 0.46575 0.6422 0.82526 0.0
H872 H 0.43501 0.62904 0.82141 0.0
H873 H 0.38868 0.64612 0.85827 0.0
H874 H 0.33026 0.56992 0.87853 0.0
H875 H 0.35163 0.59621 0.87572 0.0
C876 C 0.42234 0.33471 0.86349 0.0
C877 C 0.43927 0.34081 0.85623 0.0
C878 C 0.40634 0.34543 0.8613 0.0
C879 C 0.38621 0.38182 0.83226 0.0
H880 H 0.36329 0.40114 0.87654 0.0
C881 C 0.36008 0.45509 0.83763 0.0
C882 C 0.34525 0.45972 0.84918 0.0
C883 C 0.36592 0.43686 0.83604 0.0
C884 C 0.3691 0.39553 0.86397 0.0
H885 H 0.45268 0.36252 0.84061 0.0
H886 H 0.4249 0.38085 0.83645 0.0
H887 H 0.38464 0.37509 0.87877 0.0
H888 H 0.32423 0.44883 0.8674 0.0
H889 H 0.33465 0.41665 0.8648 0.0
H890 H 0.37147 0.40272 0.81752 0.0
C891 C 0.42391 0.36792 0.84389 0.0
C892 C 0.38136 0.38064 0.86527 0.0
C893 C 0.43985 0.35749 0.84641 0.0
C894 C 0.33563 0.44558 0.8583 0.0
C895 C 0.34168 0.42723 0.85693 0.0
C896 C 0.37389 0.39656 0.83093 0.0
C897 C 0.40702 0.3621 0.85138 0.0
C898 C 0.39069 0.37427 0.84953 0.0
C899 C 0.35721 0.42277 0.84613 0.0
C900 C 0.36594 0.40421 0.84688 0.0
H901 H 0.42156 0.32191 0.87117 0.0
H902 H 0.39347 0.34074 0.86729 0.0
H903 H 0.39306 0.37698 0.81988 0.0
H904 H 0.36773 0.46574 0.83043 0.0
H905 H 0.37807 0.43403 0.8278 0.0
C906 C 0.66211 0.42268 0.86593 0.0
C907 C 0.6544 0.43969 0.86067 0.0
C908 C 0.6516 0.40645 0.86484 0.0
C909 C 0.61003 0.38674 0.84261 0.0
H910 H 0.60371 0.35868 0.88768 0.0
C911 C 0.54648 0.3524 0.88028 0.0
C912 C 0.53814 0.34255 0.86586 0.0
C913 C 0.56485 0.35793 0.87902 0.0
C914 C 0.60555 0.36617 0.87488 0.0
H915 H 0.62986 0.453 0.84984 0.0
H916 H 0.61174 0.42488 0.84783 0.0
H917 H 0.62837 0.38166 0.88564 0.0
H918 H 0.54253 0.32978 0.83925 0.0
H919 H 0.57489 0.33988 0.83675 0.0
H920 H 0.5865 0.37223 0.83225 0.0
C921 C 0.62585 0.42397 0.8527 0.0
C922 C 0.61972 0.37924 0.87369 0.0
C923 C 0.63619 0.44012 0.85404 0.0
C924 C 0.54878 0.33728 0.85058 0.0
C925 C 0.5672 0.34313 0.84914 0.0
C926 C 0.59596 0.37361 0.84375 0.0
C927 C 0.63337 0.40696 0.85815 0.0
C928 C 0.62152 0.39026 0.85785 0.0
C929 C 0.57523 0.35401 0.86312 0.0
C930 C 0.59301 0.36381 0.86022 0.0
H931 H 0.67613 0.42197 0.87109 0.0
H932 H 0.6577 0.39352 0.8692 0.0
H933 H 0.61128 0.39489 0.83014 0.0
H934 H 0.53847 0.35663 0.89218 0.0
H935 H 0.57047 0.36649 0.88992 0.0
C936 C 0.65227 0.54666 0.84648 0.0
C937 C 0.65315 0.53864 0.86406 0.0
C938 C 0.64541 0.56459 0.84438 0.0
C939 C 0.63129 0.6073 0.86873 0.0
H940 H 0.58851 0.60479 0.83672 0.0
C941 C 0.56891 0.65666 0.87597 0.0
C942 C 0.55764 0.65962 0.86055 0.0
C943 C 0.5842 0.64488 0.87469 0.0
C944 C 0.60063 0.60612 0.84535 0.0
H945 H 0.64881 0.54307 0.89324 0.0
H946 H 0.63727 0.57457 0.88966 0.0
H947 H 0.6103 0.57953 0.83709 0.0
H948 H 0.55388 0.65393 0.83152 0.0
H949 H 0.58112 0.63447 0.82883 0.0
H950 H 0.62152 0.63389 0.87715 0.0
C951 C 0.64188 0.56716 0.87753 0.0
C952 C 0.61315 0.59151 0.84557 0.0
C953 C 0.64844 0.54916 0.87959 0.0
C954 C 0.5624 0.65167 0.84361 0.0
C955 C 0.5779 0.64036 0.84217 0.0
C956 C 0.6189 0.62214 0.8683 0.0
C957 C 0.63954 0.57476 0.85985 0.0
C958 C 0.62836 0.59174 0.85755 0.0
C959 C 0.58862 0.63617 0.85784 0.0
C960 C 0.60314 0.62156 0.8569 0.0
H961 H 0.6556 0.53862 0.83433 0.0
H962 H 0.64377 0.57016 0.8306 0.0
H963 H 0.64295 0.60781 0.87809 0.0
H964 H 0.5653 0.66258 0.88921 0.0
H965 H 0.59192 0.6419 0.88713 0.0
C966 C 0.66314 0.57566 0.13699 0.0
C967 C 0.65671 0.55869 0.14384 0.0
C968 C 0.65248 0.59171 0.13914 0.0
C969 C 0.61548 0.61166 0.16747 0.0
H970 H 0.59676 0.6346 0.12291 0.0
C971 C 0.5419 0.63665 0.16056 0.0
C972 C 0.5373 0.65153 0.14905 0.0
C973 C 0.5602 0.63107 0.16252 0.0
C974 C 0.6022 0.62879 0.13556 0.0
H975 H 0.63449 0.54524 0.1587 0.0
H976 H 0.61628 0.57308 0.16279 0.0
H977 H 0.6231 0.61356 0.12111 0.0
H978 H 0.54833 0.67291 0.13132 0.0
H979 H 0.5806 0.66293 0.13455 0.0
H980 H 0.59408 0.62604 0.18183 0.0
C981 C 0.62941 0.57408 0.1557 0.0
C982 C 0.61726 0.61672 0.13451 0.0
C983 C 0.63978 0.5581 0.15321 0.0
C984 C 0.55153 0.66144 0.14035 0.0
C985 C 0.56994 0.65565 0.1421 0.0
C986 C 0.60055 0.62379 0.16855 0.0
C987 C 0.63555 0.59101 0.14861 0.0
C988 C 0.6234 0.60735 0.15032 0.0
C989 C 0.57439 0.64011 0.15286 0.0
C990 C 0.59311 0.6317 0.15248 0.0
H991 H 0.67615 0.57644 0.12966 0.0
H992 H 0.65742 0.60462 0.13345 0.0
H993 H 0.62013 0.60477 0.1799 0.0
H994 H 0.53122 0.62879 0.16748 0.0
H995 H 0.56304 0.6189 0.17072 0.0
C996 C 0.34153 0.54979 0.14659 0.0
C997 C 0.34389 0.54085 0.1296 0.0
C998 C 0.34796 0.56787 0.14898 0.0
C999 C 0.36604 0.60937 0.12524 0.0
H1000 H 0.40386 0.6084 0.16305 0.0
C1001 C 0.43019 0.65645 0.1227 0.0
C1002 C 0.43958 0.66044 0.1391 0.0
C1003 C 0.41446 0.64522 0.123 0.0
C1004 C 0.39309 0.60932 0.15274 0.0
H1005 H 0.35339 0.54388 0.10148 0.0
H1006 H 0.36404 0.5756 0.10541 0.0
H1007 H 0.3818 0.58337 0.16111 0.0
H1008 H 0.4397 0.65698 0.16871 0.0
H1009 H 0.41165 0.63839 0.16953 0.0
H1010 H 0.37743 0.63525 0.11669 0.0
C1011 C 0.35735 0.56878 0.1169 0.0
C1012 C 0.38041 0.59486 0.15164 0.0
C1013 C 0.35131 0.55063 0.11465 0.0
C1014 C 0.43259 0.65397 0.1559 0.0
C1015 C 0.41664 0.64316 0.15629 0.0
C1016 C 0.37854 0.62407 0.12653 0.0
C1017 C 0.35649 0.57729 0.13429 0.0
C1018 C 0.36713 0.59445 0.13755 0.0
C1019 C 0.4077 0.63804 0.13979 0.0
C1020 C 0.39262 0.62396 0.13995 0.0
H1021 H 0.33605 0.54236 0.15835 0.0
H1022 H 0.34715 0.57415 0.16252 0.0
H1023 H 0.35587 0.6094 0.11427 0.0
H1024 H 0.43559 0.66117 0.10958 0.0
H1025 H 0.40823 0.64143 0.10996 0.0
C1026 C 0.65496 0.45103 0.15178 0.0
C1027 C 0.65406 0.46022 0.13479 0.0
C1028 C 0.64794 0.43309 0.15345 0.0
C1029 C 0.63114 0.39212 0.12801 0.0
H1030 H 0.59122 0.39256 0.16355 0.0
C1031 C 0.56867 0.34275 0.12265 0.0
C1032 C 0.55869 0.33858 0.13865 0.0
C1033 C 0.58379 0.35478 0.1235 0.0
C1034 C 0.60256 0.3918 0.15387 0.0
H1035 H 0.64638 0.45783 0.10604 0.0
H1036 H 0.63467 0.42632 0.10877 0.0
H1037 H 0.61307 0.41784 0.16296 0.0
H1038 H 0.55694 0.34259 0.16814 0.0
H1039 H 0.58397 0.36253 0.16998 0.0
H1040 H 0.62062 0.36609 0.11882 0.0
C1041 C 0.64071 0.43284 0.1208 0.0
C1042 C 0.6151 0.40641 0.15353 0.0
C1043 C 0.64737 0.45085 0.11923 0.0
C1044 C 0.56449 0.34575 0.15562 0.0
C1045 C 0.57986 0.35734 0.15659 0.0
C1046 C 0.61877 0.37727 0.12855 0.0
C1047 C 0.64022 0.42407 0.13806 0.0
C1048 C 0.62923 0.40696 0.14033 0.0
C1049 C 0.58938 0.36256 0.14047 0.0
C1050 C 0.60399 0.37712 0.14119 0.0
H1051 H 0.65984 0.45816 0.16399 0.0
H1052 H 0.64771 0.42661 0.16691 0.0
H1053 H 0.64196 0.39221 0.1177 0.0
H1054 H 0.56421 0.33747 0.10938 0.0
H1055 H 0.5905 0.35859 0.11073 0.0
C1056 C 0.06699 0.30918 0.48818 0.0
C1057 C 0.07382 0.32737 0.4883 0.0
C1058 C 0.04868 0.30554 0.4933 0.0
C1059 C 0.01141 0.32384 0.52161 0.0
H1060 H 0.97703 0.30116 0.48743 0.0
C1061 C 0.93412 0.33824 0.52451 0.0
C1062 C 0.92129 0.325 0.51847 0.0
C1063 C 0.95302 0.33478 0.52357 0.0
C1064 C 0.98649 0.3071 0.49737 0.0
H1065 H 0.06674 0.35594 0.49397 0.0
H1066 H 0.03512 0.3495 0.50315 0.0
H1067 H 0.00997 0.30189 0.48006 0.0
H1068 H 0.91835 0.29722 0.50767 0.0
H1069 H 0.95151 0.29105 0.50632 0.0
H1070 H 0.98815 0.3293 0.53887 0.0
C1071 C 0.04387 0.3381 0.49902 0.0
C1072 C 0.00533 0.30757 0.49308 0.0
C1073 C 0.06196 0.34178 0.4936 0.0
C1074 C 0.92785 0.30777 0.51239 0.0
C1075 C 0.94686 0.30428 0.51147 0.0
C1076 C 0.99268 0.32316 0.52602 0.0
C1077 C 0.03708 0.31998 0.49902 0.0
C1078 C 0.01782 0.31653 0.50487 0.0
C1079 C 0.95968 0.31792 0.51667 0.0
C1080 C 0.97986 0.31543 0.51363 0.0
H1081 H 0.07579 0.29779 0.48415 0.0
H1082 H 0.04368 0.29145 0.49315 0.0
H1083 H 0.02085 0.3306 0.53104 0.0
H1084 H 0.92963 0.35165 0.52935 0.0
H1085 H 0.9624 0.34575 0.52745 0.0
C1086 C 0.65393 0.06041 0.4743 0.0
C1087 C 0.66571 0.07317 0.48293 0.0
C1088 C 0.65579 0.04153 0.47762 0.0
C1089 C 0.65298 0.00536 0.49756 0.0
H1090 H 0.69947 0.98001 0.50523 0.0
C1091 C 0.6534 0.9311 0.52409 0.0
C1092 C 0.66554 0.9187 0.51546 0.0
C1093 C 0.65535 0.9501 0.52156 0.0
C1094 C 0.68637 0.98686 0.50303 0.0
H1095 H 0.68925 0.07602 0.50121 0.0
H1096 H 0.69224 0.04302 0.50739 0.0
H1097 H 0.69947 0.0125 0.49617 0.0
H1098 H 0.68983 0.91658 0.49812 0.0
H1099 H 0.69297 0.94976 0.49329 0.0
H1100 H 0.63982 0.97978 0.50373 0.0
C1101 C 0.68171 0.0476 0.49782 0.0
C1102 C 0.68637 0.00555 0.49801 0.0
C1103 C 0.67998 0.06653 0.4943 0.0
C1104 C 0.68028 0.92578 0.50501 0.0
C1105 C 0.6821 0.94483 0.50227 0.0
C1106 C 0.65298 0.98675 0.50246 0.0
C1107 C 0.66931 0.0349 0.48988 0.0
C1108 C 0.66965 0.01501 0.49513 0.0
C1109 C 0.66932 0.9572 0.51009 0.0
C1110 C 0.66965 0.97722 0.50531 0.0
H1111 H 0.64296 0.06504 0.46524 0.0
H1112 H 0.64633 0.03215 0.47084 0.0
H1113 H 0.63981 0.01222 0.49582 0.0
H1114 H 0.64206 0.9261 0.53244 0.0
H1115 H 0.64559 0.95921 0.52826 0.0
C1116 C 0.94082 0.66823 0.47061 0.0
C1117 C 0.9265 0.67753 0.47981 0.0
C1118 C 0.95925 0.67251 0.47433 0.0
C1119 C 0.99754 0.68909 0.48048 0.0
H1120 H 0.00913 0.68664 0.5327 0.0
C1121 C 0.07265 0.69043 0.50675 0.0
C1122 C 0.07702 0.6753 0.51812 0.0
C1123 C 0.05423 0.6949 0.50304 0.0
C1124 C 0.00609 0.68752 0.51809 0.0
H1125 H 0.92029 0.69927 0.49943 0.0
H1126 H 0.95258 0.70657 0.50609 0.0
H1127 H 0.97689 0.68727 0.52272 0.0
H1128 H 0.06546 0.65383 0.53548 0.0
H1129 H 0.03338 0.6618 0.52918 0.0
H1130 H 0.02672 0.68866 0.47582 0.0
C1131 C 0.94947 0.69599 0.49599 0.0
C1132 C 0.98766 0.68803 0.51238 0.0
C1133 C 0.931 0.69189 0.49207 0.0
C1134 C 0.06258 0.6655 0.5266 0.0
C1135 C 0.04419 0.67012 0.52307 0.0
C1136 C 0.01597 0.6888 0.4862 0.0
C1137 C 0.96376 0.68603 0.48749 0.0
C1138 C 0.9832 0.68834 0.4935 0.0
C1139 C 0.03983 0.68453 0.51084 0.0
C1140 C 0.02042 0.68753 0.50504 0.0
H1141 H 0.9378 0.65714 0.46104 0.0
H1142 H 0.96997 0.66452 0.46765 0.0
H1143 H 0.99448 0.6894 0.46585 0.0
H1144 H 0.08342 0.69827 0.49998 0.0
H1145 H 0.05125 0.70617 0.49369 0.0
C1146 C 0.31383 0.06761 0.50567 0.0
C1147 C 0.32892 0.07403 0.5161 0.0
C1148 C 0.31191 0.04878 0.50173 0.0
C1149 C 0.30771 0.00667 0.50043 0.0
H1150 H 0.35396 0.98228 0.48907 0.0
C1151 C 0.31541 0.92743 0.49008 0.0
C1152 C 0.32924 0.92121 0.47798 0.0
C1153 C 0.31308 0.94632 0.49342 0.0
C1154 C 0.34086 0.98889 0.49193 0.0
H1155 H 0.35297 0.06553 0.53179 0.0
H1156 H 0.34935 0.03279 0.5254 0.0
H1157 H 0.35415 0.01429 0.49862 0.0
H1158 H 0.35028 0.92996 0.4586 0.0
H1159 H 0.34584 0.96281 0.46392 0.0
H1160 H 0.29445 0.98117 0.49326 0.0
C1161 C 0.33933 0.04232 0.5197 0.0
C1162 C 0.341 0.00722 0.49776 0.0
C1163 C 0.34134 0.0611 0.52348 0.0
C1164 C 0.33968 0.93429 0.46821 0.0
C1165 C 0.33723 0.95313 0.47138 0.0
C1166 C 0.30756 0.98825 0.49452 0.0
C1167 C 0.32497 0.03598 0.50826 0.0
C1168 C 0.32447 0.01634 0.50221 0.0
C1169 C 0.32444 0.95936 0.48458 0.0
C1170 C 0.32417 0.97914 0.49019 0.0
H1171 H 0.30403 0.07721 0.49973 0.0
H1172 H 0.30072 0.04441 0.49284 0.0
H1173 H 0.29473 0.01326 0.5038 0.0
H1174 H 0.30716 0.9177 0.49787 0.0
H1175 H 0.30313 0.9506 0.5037 0.0
C1176 C 0.51031 0.93247 0.35103 0.0
C1177 C 0.51195 0.92114 0.33534 0.0
C1178 C 0.50616 0.95117 0.34925 0.0
C1179 C 0.50802 0.99082 0.3184 0.0
H1180 H 0.46896 0.00964 0.34977 0.0
C1181 C 0.48611 0.06781 0.31725 0.0
C1182 C 0.48298 0.07594 0.3346 0.0
C1183 C 0.48807 0.04865 0.31558 0.0
C1184 C 0.48 0.00468 0.34102 0.0
H1185 H 0.51114 0.9209 0.30541 0.0
H1186 H 0.50418 0.95385 0.30235 0.0
H1187 H 0.47635 0.97687 0.35024 0.0
H1188 H 0.4791 0.07012 0.36374 0.0
H1189 H 0.48284 0.03705 0.36089 0.0
H1190 H 0.51216 0.01874 0.30965 0.0
C1191 C 0.50599 0.94804 0.316 0.0
C1192 C 0.48419 0.98589 0.34126 0.0
C1193 C 0.50994 0.92919 0.31778 0.0
C1194 C 0.48142 0.06441 0.35013 0.0
C1195 C 0.48346 0.04535 0.34847 0.0
C1196 C 0.50396 0.00972 0.31828 0.0
C1197 C 0.50371 0.95911 0.33176 0.0
C1198 C 0.49844 0.97882 0.33021 0.0
C1199 C 0.48697 0.0372 0.33122 0.0
C1200 C 0.49012 0.01693 0.32987 0.0
H1201 H 0.51177 0.92682 0.36479 0.0
H1202 H 0.50476 0.95945 0.36162 0.0
H1203 H 0.51912 0.98572 0.30979 0.0
H1204 H 0.48733 0.07624 0.30498 0.0
H1205 H 0.49052 0.04283 0.30204 0.0
C1206 C 0.93111 0.48613 0.31259 0.0
C1207 C 0.92464 0.48186 0.33042 0.0
C1208 C 0.94989 0.48996 0.3096 0.0
C1209 C 0.98849 0.51055 0.33278 0.0
H1210 H 0.02229 0.48158 0.30314 0.0
C1211 C 0.06623 0.51296 0.34541 0.0
C1212 C 0.07873 0.51074 0.33074 0.0
C1213 C 0.04727 0.51113 0.34258 0.0
C1214 C 0.013 0.49008 0.31116 0.0
H1215 H 0.93316 0.47758 0.35889 0.0
H1216 H 0.9655 0.4846 0.35364 0.0
H1217 H 0.98918 0.47444 0.30271 0.0
H1218 H 0.08086 0.50531 0.30137 0.0
H1219 H 0.04756 0.50243 0.29637 0.0
H1220 H 0.01194 0.52622 0.34134 0.0
C1221 C 0.95607 0.48493 0.34203 0.0
C1222 C 0.99407 0.48593 0.31093 0.0
C1223 C 0.9375 0.48084 0.34497 0.0
C1224 C 0.07166 0.50709 0.31301 0.0
C1225 C 0.05257 0.50531 0.31016 0.0
C1226 C 0.00726 0.51487 0.33282 0.0
C1227 C 0.96237 0.48986 0.32444 0.0
C1228 C 0.98179 0.49579 0.32219 0.0
C1229 C 0.04014 0.50717 0.32497 0.0
C1230 C 0.01988 0.50429 0.32254 0.0
H1231 H 0.92162 0.48701 0.30107 0.0
H1232 H 0.95451 0.4937 0.29589 0.0
H1233 H 0.9792 0.51847 0.34141 0.0
H1234 H 0.07107 0.51571 0.35928 0.0
H1235 H 0.03825 0.51228 0.35443 0.0
C1236 C 0.48545 0.93085 0.6847 0.0
C1237 C 0.48314 0.9228 0.66717 0.0
C1238 C 0.48957 0.94969 0.68639 0.0
C1239 C 0.51143 0.98729 0.66093 0.0
H1240 H 0.48287 0.02076 0.69134 0.0
C1241 C 0.51342 0.0653 0.64931 0.0
C1242 C 0.51184 0.07744 0.66437 0.0
C1243 C 0.51144 0.04632 0.65172 0.0
C1244 C 0.49123 0.01156 0.68305 0.0
H1245 H 0.48308 0.92841 0.63771 0.0
H1246 H 0.49044 0.96097 0.64073 0.0
H1247 H 0.47615 0.98765 0.692 0.0
H1248 H 0.50732 0.07893 0.69393 0.0
H1249 H 0.50418 0.0456 0.69817 0.0
H1250 H 0.52656 0.01093 0.65194 0.0
C1251 C 0.4891 0.95273 0.65314 0.0
C1252 C 0.48732 0.99262 0.68341 0.0
C1253 C 0.48475 0.93407 0.65144 0.0
C1254 C 0.50859 0.07 0.68201 0.0
C1255 C 0.50667 0.0509 0.68443 0.0
C1256 C 0.51547 0.00611 0.66072 0.0
C1257 C 0.49175 0.9607 0.67058 0.0
C1258 C 0.49708 0.9804 0.67197 0.0
C1259 C 0.50796 0.03884 0.66927 0.0
C1260 C 0.5051 0.01858 0.67137 0.0
H1261 H 0.48426 0.92259 0.69709 0.0
H1262 H 0.49154 0.95553 0.70001 0.0
H1263 H 0.5194 0.9781 0.65223 0.0
H1264 H 0.51582 0.07045 0.63549 0.0
H1265 H 0.51216 0.03755 0.63964 0.0
C1266 C 0.92474 0.51001 0.68193 0.0
C1267 C 0.91738 0.50992 0.66394 0.0
C1268 C 0.94333 0.50556 0.68499 0.0
C1269 C 0.98066 0.4784 0.66522 0.0
H1270 H 0.01481 0.51136 0.68996 0.0
C1271 C 0.05852 0.47415 0.65345 0.0
C1272 C 0.07097 0.47955 0.66733 0.0
C1273 C 0.03951 0.4756 0.65614 0.0
C1274 C 0.00542 0.50176 0.68339 0.0
H1275 H 0.92396 0.5053 0.63507 0.0
H1276 H 0.95612 0.49729 0.6405 0.0
H1277 H 0.98192 0.51899 0.68891 0.0
H1278 H 0.07304 0.48975 0.6954 0.0
H1279 H 0.0397 0.49192 0.70024 0.0
H1280 H 0.00389 0.46114 0.65964 0.0
C1281 C 0.94752 0.50084 0.6522 0.0
C1282 C 0.9866 0.50621 0.68273 0.0
C1283 C 0.92911 0.50558 0.6491 0.0
C1284 C 0.06386 0.48551 0.68438 0.0
C1285 C 0.04474 0.48692 0.6871 0.0
C1286 C -0.00064 0.47382 0.6661 0.0
C1287 C 0.95477 0.50058 0.67016 0.0
C1288 C 0.97418 0.49484 0.67313 0.0
C1289 C 0.03234 0.48236 0.67284 0.0
C1290 C 0.0121 0.48574 0.67464 0.0
H1291 H 0.91609 0.51331 0.69366 0.0
H1292 H 0.94864 0.50549 0.69897 0.0
H1293 H 0.97128 0.46924 0.65801 0.0
H1294 H 0.06342 0.46944 0.64014 0.0
H1295 H 0.0305 0.47219 0.64471 0.0
C1296 C 0.34182 0.52081 0.93098 0.0
C1297 C 0.32941 0.51327 0.91811 0.0
C1298 C 0.33972 0.51734 0.94981 0.0
C1299 C 0.34096 0.49641 0.98555 0.0
H1300 H 0.29406 0.49249 0.011 0.0
C1301 C 0.33878 0.46895 0.05924 0.0
C1302 C 0.32801 0.47893 0.07189 0.0
C1303 C 0.33659 0.4716 0.04029 0.0
C1304 C 0.30727 0.4936 0.0041 0.0
H1305 H 0.30452 0.49687 0.91506 0.0
H1306 H 0.30109 0.4905 0.94794 0.0
H1307 H 0.29476 0.50213 0.97866 0.0
H1308 H 0.30568 0.49866 0.07455 0.0
H1309 H 0.30212 0.50362 0.04142 0.0
H1310 H 0.3536 0.48852 0.01092 0.0
C1311 C 0.31232 0.49929 0.94348 0.0
C1312 C 0.30766 0.49898 0.98552 0.0
C1313 C 0.31432 0.50291 0.92461 0.0
C1314 C 0.31415 0.49072 0.06514 0.0
C1315 C 0.3121 0.49355 0.04613 0.0
C1316 C 0.34058 0.49112 0.00404 0.0
C1317 C 0.32529 0.50607 0.95626 0.0
C1318 C 0.32455 0.50053 0.97605 0.0
C1319 C 0.32376 0.4845 0.03351 0.0
C1320 C 0.32376 0.48959 0.01358 0.0
H1321 H 0.35344 0.52907 0.92648 0.0
H1322 H 0.34968 0.52321 0.95929 0.0
H1323 H 0.35421 0.49712 0.97866 0.0
H1324 H 0.34941 0.45958 0.06401 0.0
H1325 H 0.34542 0.46397 0.03097 0.0
C1326 C 0.48354 0.31237 0.93036 0.0
C1327 C 0.47887 0.32985 0.92326 0.0
C1328 C 0.48732 0.31012 0.94922 0.0
C1329 C 0.50677 0.33597 0.98697 0.0
H1330 H 0.48257 0.30259 0.02103 0.0
C1331 C 0.51264 0.34605 0.06492 0.0
C1332 C 0.51271 0.33071 0.07679 0.0
C1333 C 0.50965 0.34388 0.04604 0.0
C1334 C 0.48973 0.31173 0.01164 0.0
H1335 H 0.47346 0.3584 0.93075 0.0
H1336 H 0.48033 0.35443 0.9633 0.0
H1337 H 0.47422 0.30205 0.98823 0.0
H1338 H 0.51007 0.3009 0.07789 0.0
H1339 H 0.50527 0.29706 0.04471 0.0
H1340 H 0.52244 0.34561 0.00997 0.0
C1341 C 0.48113 0.34254 0.95428 0.0
C1342 C 0.48487 0.31145 0.99291 0.0
C1343 C 0.47713 0.34475 0.9356 0.0
C1344 C 0.51008 0.31304 0.06917 0.0
C1345 C 0.50719 0.31084 0.05016 0.0
C1346 C 0.51181 0.33608 0.00553 0.0
C1347 C 0.48671 0.32535 0.96118 0.0
C1348 C 0.49302 0.32394 0.98055 0.0
C1349 C 0.50682 0.32627 0.03837 0.0
C1350 C 0.50299 0.32436 0.01825 0.0
H1351 H 0.48496 0.30059 0.92128 0.0
H1352 H 0.49156 0.29671 0.95429 0.0
H1353 H 0.51347 0.34551 0.97761 0.0
H1354 H 0.51447 0.35991 0.07023 0.0
H1355 H 0.50907 0.35615 0.03754 0.0
C1356 C 0.68507 0.49212 0.9307 0.0
C1357 C 0.67033 0.48091 0.92484 0.0
C1358 C 0.68752 0.49609 0.94946 0.0
C1359 C 0.69288 0.49789 0.9915 0.0
H1360 H 0.64669 0.50728 0.0168 0.0
C1361 C 0.68622 0.5088 0.07078 0.0
C1362 C 0.672 0.52041 0.0771 0.0
C1363 C 0.68837 0.50535 0.05189 0.0
C1364 C 0.65976 0.50497 0.00993 0.0
H1365 H 0.64763 0.46378 0.93419 0.0
H1366 H 0.65219 0.47028 0.96679 0.0
H1367 H 0.64625 0.49725 0.98494 0.0
H1368 H 0.65005 0.53883 0.06848 0.0
H1369 H 0.65414 0.53327 0.03563 0.0
H1370 H 0.70634 0.50606 0.0166 0.0
C1371 C 0.66149 0.47653 0.95691 0.0
C1372 C 0.65949 0.49887 0.9917 0.0
C1373 C 0.65895 0.47269 0.93821 0.0
C1374 C 0.66095 0.5296 0.06408 0.0
C1375 C 0.66322 0.5263 0.04524 0.0
C1376 C 0.69315 0.50405 0.00984 0.0
C1377 C 0.67534 0.48883 0.96271 0.0
C1378 C 0.67601 0.49513 0.98226 0.0
C1379 C 0.67644 0.51356 0.03895 0.0
C1380 C 0.67656 0.50768 0.01926 0.0
H1381 H 0.69407 0.4987 0.92074 0.0
H1382 H 0.69831 0.50565 0.95344 0.0
H1383 H 0.70586 0.4951 0.98464 0.0
H1384 H 0.69495 0.50148 0.08046 0.0
H1385 H 0.69866 0.49543 0.04755 0.0
C1386 C 0.50907 0.68266 0.93085 0.0
C1387 C 0.51046 0.66502 0.92282 0.0
C1388 C 0.50571 0.68458 0.94981 0.0
C1389 C 0.48423 0.65998 0.98819 0.0
H1390 H 0.51452 0.68989 0.02063 0.0
C1391 C 0.48323 0.64949 0.06636 0.0
C1392 C 0.48526 0.66471 0.07822 0.0
C1393 C 0.48522 0.6515 0.04734 0.0
C1394 C 0.5057 0.68174 0.01173 0.0
H1395 H 0.50975 0.63561 0.9286 0.0
H1396 H 0.50371 0.63902 0.96138 0.0
H1397 H 0.5204 0.69005 0.98736 0.0
H1398 H 0.49074 0.69414 0.07918 0.0
H1399 H 0.4939 0.6977 0.04578 0.0
H1400 H 0.46945 0.65165 0.01227 0.0
C1401 C 0.50517 0.65134 0.95303 0.0
C1402 C 0.50912 0.6818 0.9927 0.0
C1403 C 0.50876 0.64942 0.93423 0.0
C1404 C 0.48911 0.6821 0.07048 0.0
C1405 C 0.49103 0.68413 0.05133 0.0
C1406 C 0.48068 0.66006 0.0071 0.0
C1407 C 0.50338 0.6689 0.96099 0.0
C1408 C 0.4987 0.67055 0.98083 0.0
C1409 C 0.48915 0.66882 0.03953 0.0
C1410 C 0.49168 0.67054 0.0192 0.0
H1411 H 0.51036 0.69497 0.92248 0.0
H1412 H 0.5044 0.69828 0.95564 0.0
H1413 H 0.47576 0.65144 0.97929 0.0
H1414 H 0.48038 0.63585 0.07176 0.0
H1415 H 0.48406 0.6393 0.03878 0.0
C1416 C 0.1849 0.27891 0.48697 0.0
C1417 C 0.1659 0.2761 0.48954 0.0
C1418 C 0.19725 0.26419 0.48817 0.0
C1419 C 0.20258 0.21642 0.50558 0.0
H1420 H 0.24402 0.2164 0.47171 0.0
C1421 C 0.25794 0.15796 0.50248 0.0
C1422 C 0.27618 0.16453 0.50333 0.0
C1423 C 0.24324 0.17024 0.49974 0.0
C1424 C 0.23252 0.21622 0.48125 0.0
H1425 H 0.14493 0.25566 0.49569 0.0
H1426 H 0.16653 0.22976 0.4975 0.0
H1427 H 0.22056 0.24032 0.46923 0.0
H1428 H 0.29337 0.18899 0.50159 0.0
H1429 H 0.26788 0.21023 0.49652 0.0
H1430 H 0.21474 0.19219 0.51754 0.0
C1431 C 0.1719 0.24344 0.49477 0.0
C1432 C 0.21912 0.22998 0.47992 0.0
C1433 C 0.15952 0.25826 0.49369 0.0
C1434 C 0.27947 0.18349 0.50102 0.0
C1435 C 0.26488 0.19566 0.49802 0.0
C1436 C 0.21596 0.20251 0.5068 0.0
C1437 C 0.19091 0.2462 0.4918 0.0
C1438 C 0.20421 0.23054 0.49235 0.0
C1439 C 0.24661 0.18922 0.49747 0.0
C1440 C 0.23127 0.20254 0.4949 0.0
H1441 H 0.19029 0.29252 0.48392 0.0
H1442 H 0.21182 0.26695 0.48628 0.0
H1443 H 0.19136 0.21647 0.51544 0.0
H1444 H 0.25501 0.14341 0.50428 0.0
H1445 H 0.22927 0.16492 0.4993 0.0
C1446 C 0.71578 0.18346 0.49113 0.0
C1447 C 0.71867 0.16437 0.49278 0.0
C1448 C 0.73059 0.19573 0.49167 0.0
C1449 C 0.77907 0.20143 0.50593 0.0
H1450 H 0.77711 0.242 0.47105 0.0
C1451 C 0.83664 0.25735 0.49989 0.0
C1452 C 0.83013 0.27562 0.49943 0.0
C1453 C 0.82436 0.2425 0.49811 0.0
C1454 C 0.77784 0.23079 0.48092 0.0
H1455 H 0.73939 0.14319 0.49689 0.0
H1456 H 0.7655 0.16479 0.49778 0.0
H1457 H 0.75337 0.21824 0.47025 0.0
H1458 H 0.80569 0.29265 0.49647 0.0
H1459 H 0.78438 0.26689 0.49323 0.0
H1460 H 0.80355 0.21424 0.51668 0.0
C1461 C 0.75166 0.1702 0.49612 0.0
C1462 C 0.76421 0.21719 0.4805 0.0
C1463 C 0.73673 0.15784 0.49559 0.0
C1464 C 0.81117 0.27875 0.49684 0.0
C1465 C 0.79896 0.26397 0.4949 0.0
C1466 C 0.7928 0.21508 0.50632 0.0
C1467 C 0.74875 0.18927 0.4938 0.0
C1468 C 0.76438 0.20259 0.49328 0.0
C1469 C 0.80537 0.24568 0.49561 0.0
C1470 C 0.79206 0.23013 0.49408 0.0
H1471 H 0.70203 0.189 0.48914 0.0
H1472 H 0.72778 0.21035 0.49032 0.0
H1473 H 0.77957 0.19039 0.51599 0.0
H1474 H 0.85118 0.2545 0.50192 0.0
H1475 H 0.82971 0.22856 0.4986 0.0
C1476 C 0.81213 0.71375 0.4941 0.0
C1477 C 0.83109 0.71759 0.49546 0.0
C1478 C 0.79916 0.72798 0.49508 0.0
C1479 C 0.79244 0.77662 0.50943 0.0
H1480 H 0.75103 0.77375 0.4756 0.0
C1481 C 0.73695 0.83447 0.50263 0.0
C1482 C 0.71864 0.82803 0.50298 0.0
C1483 C 0.75166 0.822 0.50086 0.0
C1484 C 0.76248 0.77473 0.48518 0.0
H1485 H 0.85129 0.73933 0.49945 0.0
H1486 H 0.82863 0.76422 0.50099 0.0
H1487 H 0.77467 0.7499 0.47497 0.0
H1488 H 0.70139 0.80359 0.50135 0.0
H1489 H 0.72686 0.78206 0.49816 0.0
H1490 H 0.78007 0.80151 0.51963 0.0
C1491 C 0.82378 0.75018 0.49932 0.0
C1492 C 0.77599 0.76101 0.48489 0.0
C1493 C 0.83677 0.73592 0.49839 0.0
C1494 C 0.71533 0.80902 0.50115 0.0
C1495 C 0.72993 0.79666 0.4992 0.0
C1496 C 0.77891 0.79043 0.50967 0.0
C1497 C 0.80483 0.74641 0.49736 0.0
C1498 C 0.79098 0.76159 0.49722 0.0
C1499 C 0.74827 0.80296 0.49915 0.0
C1500 C 0.76362 0.78944 0.49776 0.0
H1501 H 0.8073 0.69977 0.49195 0.0
H1502 H 0.78466 0.72452 0.49394 0.0
H1503 H 0.80375 0.77745 0.51918 0.0
H1504 H 0.73991 0.84905 0.50406 0.0
H1505 H 0.76566 0.82725 0.50076 0.0
C1506 C 0.19082 0.71265 0.50307 0.0
C1507 C 0.17183 0.71646 0.5022 0.0
C1508 C 0.20374 0.72694 0.50229 0.0
C1509 C 0.21007 0.77608 0.48956 0.0
H1510 H 0.25212 0.7722 0.5225 0.0
C1511 C 0.26464 0.83435 0.49748 0.0
C1512 C 0.28309 0.82839 0.49663 0.0
C1513 C 0.25027 0.82151 0.49917 0.0
C1514 C 0.24051 0.77345 0.51317 0.0
H1515 H 0.1515 0.73822 0.4993 0.0
H1516 H 0.17408 0.76324 0.49814 0.0
H1517 H 0.22862 0.74818 0.52263 0.0
H1518 H 0.30097 0.8044 0.49739 0.0
H1519 H 0.27603 0.78213 0.50045 0.0
H1520 H 0.22209 0.80142 0.48013 0.0
C1521 C 0.179 0.74917 0.49925 0.0
C1522 C 0.22706 0.75964 0.51317 0.0
C1523 C 0.16605 0.73484 0.49995 0.0
C1524 C 0.2869 0.80944 0.49802 0.0
C1525 C 0.2726 0.79667 0.49986 0.0
C1526 C 0.22352 0.78997 0.48962 0.0
C1527 C 0.19799 0.74541 0.50074 0.0
C1528 C 0.21182 0.76062 0.50117 0.0
C1529 C 0.25411 0.80251 0.50025 0.0
C1530 C 0.23902 0.78865 0.50123 0.0
H1531 H 0.19574 0.69863 0.50468 0.0
H1532 H 0.21827 0.72349 0.50304 0.0
H1533 H 0.19858 0.77722 0.48006 0.0
H1534 H 0.26128 0.84887 0.49639 0.0
H1535 H 0.23616 0.82643 0.49959 0.0
C1536 C 0.49709 0.15342 0.25616 0.0
C1537 C 0.49733 0.16117 0.27395 0.0
C1538 C 0.50001 0.16458 0.24061 0.0
C1539 C 0.52071 0.20873 0.22661 0.0
H1540 H 0.48337 0.2108 0.18826 0.0
C1541 C 0.51062 0.27338 0.18353 0.0
C1542 C 0.50761 0.27187 0.16444 0.0
C1543 C 0.51049 0.25778 0.19473 0.0
C1544 C 0.4941 0.21015 0.19866 0.0
H1545 H 0.50128 0.18648 0.28944 0.0
H1546 H 0.50668 0.20571 0.26254 0.0
H1547 H 0.48193 0.18653 0.21182 0.0
H1548 H 0.50161 0.25279 0.14219 0.0
H1549 H 0.50132 0.22526 0.162 0.0
H1550 H 0.53265 0.2325 0.21392 0.0
C1551 C 0.50418 0.19111 0.26052 0.0
C1552 C 0.49328 0.19626 0.21212 0.0
C1553 C 0.50097 0.18009 0.27593 0.0
C1554 C 0.50398 0.25437 0.15686 0.0
C1555 C 0.50381 0.23864 0.16818 0.0
C1556 C 0.52157 0.22248 0.2132 0.0
C1557 C 0.50361 0.18354 0.2427 0.0
C1558 C 0.50623 0.19585 0.22657 0.0
C1559 C 0.50738 0.24019 0.1872 0.0
C1560 C 0.50791 0.22378 0.19948 0.0
H1561 H 0.49422 0.13887 0.25426 0.0
H1562 H 0.49951 0.15843 0.227 0.0
H1563 H 0.53105 0.20853 0.23742 0.0
H1564 H 0.51331 0.28664 0.18988 0.0
H1565 H 0.51283 0.25952 0.2094 0.0
C1566 C 0.83862 0.49747 0.26189 0.0
C1567 C 0.83234 0.49577 0.28016 0.0
C1568 C 0.82599 0.49824 0.24722 0.0
C1569 C 0.77778 0.48524 0.2362 0.0
H1570 H 0.78299 0.51849 0.19463 0.0
C1571 C 0.71732 0.50232 0.18801 0.0
C1572 C 0.72062 0.5036 0.16896 0.0
C1573 C 0.73194 0.50019 0.20038 0.0
C1574 C 0.7815 0.50894 0.20602 0.0
H1575 H 0.80791 0.49446 0.29742 0.0
H1576 H 0.78607 0.49615 0.27207 0.0
H1577 H 0.80685 0.51778 0.21857 0.0
H1578 H 0.74187 0.50349 0.14791 0.0
H1579 H 0.76755 0.49982 0.16966 0.0
H1580 H 0.75234 0.47663 0.22392 0.0
C1581 C 0.80069 0.4964 0.26893 0.0
C1582 C 0.79515 0.50854 0.21974 0.0
C1583 C 0.81324 0.49557 0.2835 0.0
C1584 C 0.73889 0.5025 0.16252 0.0
C1585 C 0.75359 0.50052 0.17496 0.0
C1586 C 0.76417 0.48568 0.22257 0.0
C1587 C 0.80687 0.49734 0.25058 0.0
C1588 C 0.79324 0.49695 0.23519 0.0
C1589 C 0.75026 0.49939 0.19404 0.0
C1590 C 0.76568 0.49777 0.2075 0.0
H1591 H 0.85327 0.49761 0.25889 0.0
H1592 H 0.83121 0.49895 0.23324 0.0
H1593 H 0.7761 0.47578 0.24765 0.0
H1594 H 0.70342 0.50316 0.19344 0.0
H1595 H 0.72891 0.4996 0.215 0.0
C1596 C 0.498 0.7407 0.15846 0.0
C1597 C 0.49507 0.72308 0.16603 0.0
C1598 C 0.49838 0.75634 0.16991 0.0
C1599 C 0.48173 0.77143 0.21565 0.0
H1600 H 0.5192 0.80955 0.2129 0.0
C1601 C 0.50158 0.81544 0.27754 0.0
C1602 C 0.5037 0.83457 0.27535 0.0
C1603 C 0.49883 0.80408 0.26229 0.0
C1604 C 0.50846 0.79917 0.2136 0.0
H1605 H 0.49119 0.70793 0.19157 0.0
H1606 H 0.4921 0.73487 0.21133 0.0
H1607 H 0.51831 0.78514 0.18942 0.0
H1608 H 0.5046 0.85686 0.25544 0.0
H1609 H 0.50011 0.83672 0.22844 0.0
H1610 H 0.47232 0.78491 0.24014 0.0
C1611 C 0.49363 0.7368 0.19659 0.0
C1612 C 0.50796 0.78521 0.20019 0.0
C1613 C 0.49325 0.72131 0.18524 0.0
C1614 C 0.50292 0.84216 0.25751 0.0
C1615 C 0.50046 0.83067 0.2421 0.0
C1616 C 0.48229 0.78525 0.22901 0.0
C1617 C 0.49578 0.75454 0.18907 0.0
C1618 C 0.49495 0.77085 0.20147 0.0
C1619 C 0.49834 0.81152 0.24441 0.0
C1620 C 0.49599 0.79892 0.22846 0.0
H1621 H 0.49945 0.74248 0.14369 0.0
H1622 H 0.50012 0.76983 0.16374 0.0
H1623 H 0.47123 0.76084 0.21674 0.0
H1624 H 0.50209 0.80917 0.2911 0.0
H1625 H 0.49746 0.78935 0.26447 0.0
C1626 C 0.16275 0.49962 0.25842 0.0
C1627 C 0.16944 0.50119 0.27657 0.0
C1628 C 0.17505 0.49926 0.24346 0.0
C1629 C 0.22279 0.51309 0.23153 0.0
H1630 H 0.21768 0.47935 0.19034 0.0
C1631 C 0.28308 0.49657 0.18309 0.0
C1632 C 0.27964 0.49512 0.16407 0.0
C1633 C 0.26852 0.49849 0.19555 0.0
C1634 C 0.21914 0.48904 0.20162 0.0
H1635 H 0.19426 0.5028 0.29329 0.0
H1636 H 0.2155 0.50188 0.26746 0.0
H1637 H 0.19407 0.47991 0.21451 0.0
H1638 H 0.25822 0.49465 0.14317 0.0
H1639 H 0.23265 0.49797 0.16507 0.0
H1640 H 0.24796 0.52198 0.21895 0.0
C1641 C 0.20082 0.50139 0.26464 0.0
C1642 C 0.20563 0.48935 0.21546 0.0
C1643 C 0.18861 0.50178 0.27948 0.0
C1644 C 0.26129 0.49579 0.15775 0.0
C1645 C 0.24666 0.49757 0.17028 0.0
C1646 C 0.23626 0.51274 0.21779 0.0
C1647 C 0.19423 0.50048 0.24643 0.0
C1648 C 0.20753 0.50111 0.23079 0.0
C1649 C 0.25014 0.49892 0.18933 0.0
C1650 C 0.23481 0.50046 0.20287 0.0
H1651 H 0.14805 0.49915 0.25575 0.0
H1652 H 0.16954 0.49855 0.22959 0.0
H1653 H 0.22445 0.52266 0.2429 0.0
H1654 H 0.29704 0.49606 0.18843 0.0
H1655 H 0.27166 0.49925 0.21014 0.0
C1656 C 0.50585 0.72246 0.81604 0.0
C1657 C 0.50444 0.7244 0.83526 0.0
C1658 C 0.5055 0.73786 0.80457 0.0
C1659 C 0.49174 0.78649 0.80112 0.0
H1660 H 0.5254 0.78517 0.75951 0.0
C1661 C 0.49525 0.84305 0.74347 0.0
C1662 C 0.49328 0.83549 0.72571 0.0
C1663 C 0.49829 0.83152 0.75872 0.0
C1664 C 0.51599 0.78578 0.77111 0.0
H1665 H 0.50095 0.74405 0.85754 0.0
H1666 H 0.50037 0.77126 0.83728 0.0
H1667 H 0.5272 0.76131 0.78309 0.0
H1668 H 0.49341 0.81009 0.7099 0.0
H1669 H 0.4991 0.79014 0.73629 0.0
H1670 H 0.48039 0.81093 0.78874 0.0
C1671 C 0.50174 0.75769 0.83118 0.0
C1672 C 0.51694 0.77209 0.78457 0.0
C1673 C 0.50207 0.74214 0.84276 0.0
C1674 C 0.49484 0.81632 0.72341 0.0
C1675 C 0.49819 0.8049 0.73851 0.0
C1676 C 0.49087 0.80034 0.78763 0.0
C1677 C 0.50382 0.75569 0.81197 0.0
C1678 C 0.5044 0.77188 0.79938 0.0
C1679 C 0.49981 0.81233 0.75633 0.0
C1680 C 0.50261 0.79973 0.7722 0.0
H1681 H 0.50748 0.70899 0.80977 0.0
H1682 H 0.50661 0.73576 0.78981 0.0
H1683 H 0.4819 0.78671 0.81236 0.0
H1684 H 0.494 0.85779 0.74562 0.0
H1685 H 0.49951 0.83756 0.77233 0.0
C1686 C 0.25723 0.50017 0.83541 0.0
C1687 C 0.27502 0.50323 0.82827 0.0
C1688 C 0.24186 0.49974 0.82361 0.0
C1689 C 0.22737 0.51636 0.77765 0.0
H1690 H 0.1889 0.47926 0.78059 0.0
C1691 C 0.18008 0.50018 0.71665 0.0
C1692 C 0.16122 0.49701 0.71979 0.0
C1693 C 0.1923 0.50218 0.73138 0.0
C1694 C 0.19939 0.48989 0.7798 0.0
H1695 H 0.2907 0.50742 0.80312 0.0
H1696 H 0.26416 0.50645 0.78272 0.0
H1697 H 0.21357 0.47975 0.80377 0.0
H1698 H 0.14032 0.49354 0.7409 0.0
H1699 H 0.16187 0.49697 0.76686 0.0
H1700 H 0.21355 0.52627 0.75354 0.0
C1701 C 0.26193 0.5048 0.79741 0.0
C1702 C 0.21351 0.49015 0.79305 0.0
C1703 C 0.27719 0.50522 0.80912 0.0
C1704 C 0.15478 0.49604 0.73807 0.0
C1705 C 0.16711 0.49788 0.7529 0.0
C1706 C 0.21334 0.51608 0.76447 0.0
C1707 C 0.24404 0.50242 0.80451 0.0
C1708 C 0.22792 0.50311 0.79181 0.0
C1709 C 0.18602 0.50098 0.74967 0.0
C1710 C 0.19945 0.50257 0.7651 0.0
H1711 H 0.25513 0.4986 0.85012 0.0
H1712 H 0.22824 0.49786 0.82948 0.0
H1713 H 0.238 0.52683 0.77658 0.0
H1714 H 0.18551 0.50097 0.70274 0.0
H1715 H 0.20681 0.50428 0.72841 0.0
C1716 C 0.50084 0.1589 0.73937 0.0
C1717 C 0.50363 0.1662 0.7216 0.0
C1718 C 0.50046 0.17059 0.75482 0.0
C1719 C 0.51641 0.21687 0.7694 0.0
H1720 H 0.47914 0.21344 0.80762 0.0
C1721 C 0.49753 0.27815 0.81514 0.0
C1722 C 0.49461 0.27534 0.83409 0.0
C1723 C 0.50021 0.26322 0.80331 0.0
C1724 C 0.48982 0.21436 0.79721 0.0
H1725 H 0.50751 0.19151 0.70608 0.0
H1726 H 0.50665 0.21169 0.73273 0.0
H1727 H 0.48031 0.19002 0.78322 0.0
H1728 H 0.49229 0.25462 0.85554 0.0
H1729 H 0.4968 0.2283 0.83464 0.0
H1730 H 0.5256 0.24142 0.78296 0.0
C1731 C 0.50516 0.19697 0.73489 0.0
C1732 C 0.49048 0.20098 0.78324 0.0
C1733 C 0.50551 0.18538 0.71956 0.0
C1734 C 0.49458 0.2572 0.841 0.0
C1735 C 0.49705 0.24216 0.82905 0.0
C1736 C 0.51571 0.2302 0.78325 0.0
C1737 C 0.50295 0.18974 0.75273 0.0
C1738 C 0.50347 0.20241 0.76889 0.0
C1739 C 0.4999 0.24506 0.81007 0.0
C1740 C 0.50211 0.2294 0.79702 0.0
H1741 H 0.49934 0.14416 0.74137 0.0
H1742 H 0.49871 0.16461 0.7684 0.0
H1743 H 0.52689 0.2181 0.75882 0.0
H1744 H 0.49762 0.29193 0.80937 0.0
H1745 H 0.50211 0.26591 0.78873 0.0
C1746 C 0.73696 0.49422 0.83821 0.0
C1747 C 0.71862 0.49273 0.83199 0.0
C1748 C 0.75157 0.49493 0.82555 0.0
C1749 C 0.76225 0.48268 0.77708 0.0
H1750 H 0.80389 0.51585 0.7827 0.0
C1751 C 0.80869 0.5027 0.71655 0.0
C1752 C 0.82789 0.50313 0.71923 0.0
C1753 C 0.79679 0.50006 0.73142 0.0
C1754 C 0.79248 0.50633 0.78111 0.0
H1755 H 0.70119 0.49159 0.80767 0.0
H1756 H 0.72645 0.4932 0.78575 0.0
H1757 H 0.78019 0.51451 0.80676 0.0
H1758 H 0.84972 0.50114 0.73962 0.0
H1759 H 0.82871 0.4967 0.76585 0.0
H1760 H 0.77419 0.47486 0.75126 0.0
C1761 C 0.72968 0.49332 0.80034 0.0
C1762 C 0.77891 0.50556 0.79486 0.0
C1763 C 0.71516 0.49255 0.81293 0.0
C1764 C 0.83497 0.5008 0.73715 0.0
C1765 C 0.82298 0.49837 0.75214 0.0
C1766 C 0.7757 0.48352 0.76335 0.0
C1767 C 0.74809 0.49418 0.80646 0.0
C1768 C 0.76341 0.49401 0.79279 0.0
C1769 C 0.80376 0.49794 0.74938 0.0
C1770 C 0.79075 0.49563 0.76502 0.0
H1771 H 0.74005 0.49436 0.85283 0.0
H1772 H 0.76559 0.49554 0.83072 0.0
H1773 H 0.75078 0.47325 0.77527 0.0
H1774 H 0.80279 0.50446 0.70293 0.0
H1775 H 0.78204 0.50003 0.72889 0.0
loop_
_geom_bond_atom_site_label_1
_geom_bond_atom_site_label_2
_geom_bond_distance
_geom_bond_site_symmetry_2
_ccdc_geom_bond_type
Co0 O1 2.216 . S
Co0 O2 2.091 . S
Co0 O4 2.004 . S
Co0 O10 2.021 . S
Co0 O12 2.137 . S
Co0 O13 2.244 . S
O1 Co0 2.216 . S
O1 C8 1.247 . S
O2 Co0 2.091 . S
O2 C8 1.261 . S
C3 O12 1.247 . S
C3 O13 1.272 . S
O4 Co0 2.004 . S
O4 C9 1.259 . S
Co5 O6 2.061 . S
Co5 O11 2.052 . S
Co5 O13 2.135 . S
O6 Co5 2.061 . S
O6 C9 1.235 . S
C7 O10 1.238 . S
C7 O11 1.241 . S
C8 O1 1.247 . S
C8 O2 1.261 . S
C9 O4 1.259 . S
C9 O6 1.235 . S
O10 Co0 2.021 . S
O10 C7 1.238 . S
O11 Co5 2.052 . S
O11 C7 1.241 . S
O12 Co0 2.137 . S
O12 C3 1.247 . S
O13 Co0 2.244 . S
O13 C3 1.272 . S
O13 Co5 2.135 . S
Co14 O15 2.216 . S
Co14 O16 2.091 . S
Co14 O18 2.004 . S
Co14 O24 2.021 . S
Co14 O26 2.137 . S
Co14 O27 2.244 . S
O15 Co14 2.216 . S
O15 C22 1.247 . S
O16 Co14 2.091 . S
O16 C22 1.261 . S
C17 O26 1.247 . S
C17 O27 1.272 . S
O18 Co14 2.004 . S
O18 C23 1.259 . S
Co19 O20 2.061 . S
Co19 O25 2.052 . S
Co19 O27 2.135 . S
O20 Co19 2.061 . S
O20 C23 1.235 . S
C21 O24 1.238 . S
C21 O25 1.241 . S
C22 O15 1.247 . S
C22 O16 1.261 . S
C23 O18 1.259 . S
C23 O20 1.235 . S
O24 Co14 2.021 . S
O24 C21 1.238 . S
O25 Co19 2.052 . S
O25 C21 1.241 . S
O26 Co14 2.137 . S
O26 C17 1.247 . S
O27 Co14 2.244 . S
O27 C17 1.272 . S
O27 Co19 2.135 . S
Co28 O29 2.216 . S
Co28 O30 2.091 . S
Co28 O32 2.004 . S
Co28 O38 2.021 . S
Co28 O40 2.137 . S
Co28 O41 2.244 . S
O29 Co28 2.216 . S
O29 C36 1.247 . S
O30 Co28 2.091 . S
O30 C36 1.261 . S
C31 O40 1.247 . S
C31 O41 1.272 . S
O32 Co28 2.004 . S
O32 C37 1.259 . S
Co33 O34 2.061 . S
Co33 O39 2.052 . S
Co33 O41 2.135 . S
O34 Co33 2.061 . S
O34 C37 1.235 . S
C35 O38 1.238 . S
C35 O39 1.241 . S
C36 O29 1.247 . S
C36 O30 1.261 . S
C37 O32 1.259 . S
C37 O34 1.235 . S
O38 Co28 2.021 . S
O38 C35 1.238 . S
O39 Co33 2.052 . S
O39 C35 1.241 . S
O40 Co28 2.137 . S
O40 C31 1.247 . S
O41 Co28 2.244 . S
O41 C31 1.272 . S
O41 Co33 2.135 . S
Co42 O43 2.216 . S
Co42 O44 2.091 . S
Co42 O46 2.004 . S
Co42 O52 2.021 . S
Co42 O54 2.137 . S
Co42 O55 2.244 . S
O43 Co42 2.216 . S
O43 C50 1.247 . S
O44 Co42 2.091 . S
O44 C50 1.261 . S
C45 O54 1.247 . S
C45 O55 1.272 . S
O46 Co42 2.004 . S
O46 C51 1.259 . S
Co47 O48 2.061 . S
Co47 O53 2.052 . S
Co47 O55 2.135 . S
O48 Co47 2.061 . S
O48 C51 1.235 . S
C49 O52 1.238 . S
C49 O53 1.241 . S
C50 O43 1.247 . S
C50 O44 1.261 . S
C51 O46 1.259 . S
C51 O48 1.235 . S
O52 Co42 2.021 . S
O52 C49 1.238 . S
O53 Co47 2.052 . S
O53 C49 1.241 . S
O54 Co42 2.137 . S
O54 C45 1.247 . S
O55 Co42 2.244 . S
O55 C45 1.272 . S
O55 Co47 2.135 . S
Co56 O57 2.216 . S
Co56 O58 2.091 . S
Co56 O60 2.004 . S
Co56 O66 2.021 . S
Co56 O68 2.137 . S
Co56 O69 2.244 . S
O57 Co56 2.216 . S
O57 C64 1.247 . S
O58 Co56 2.091 . S
O58 C64 1.261 . S
C59 O68 1.247 . S
C59 O69 1.272 . S
O60 Co56 2.004 . S
O60 C65 1.259 . S
Co61 O62 2.061 . S
Co61 O67 2.052 . S
Co61 O69 2.135 . S
O62 Co61 2.061 . S
O62 C65 1.235 . S
C63 O66 1.238 . S
C63 O67 1.241 . S
C64 O57 1.247 . S
C64 O58 1.261 . S
C65 O60 1.259 . S
C65 O62 1.235 . S
O66 Co56 2.021 . S
O66 C63 1.238 . S
O67 Co61 2.052 . S
O67 C63 1.241 . S
O68 Co56 2.137 . S
O68 C59 1.247 . S
O69 Co56 2.244 . S
O69 C59 1.272 . S
O69 Co61 2.135 . S
Co70 O71 2.216 . S
Co70 O72 2.091 . S
Co70 O74 2.004 . S
Co70 O80 2.021 . S
Co70 O82 2.137 . S
Co70 O83 2.244 . S
O71 Co70 2.216 . S
O71 C78 1.247 . S
O72 Co70 2.091 . S
O72 C78 1.261 . S
C73 O82 1.247 . S
C73 O83 1.272 . S
O74 Co70 2.004 . S
O74 C79 1.259 . S
Co75 O76 2.061 . S
Co75 O81 2.052 . S
Co75 O83 2.135 . S
O76 Co75 2.061 . S
O76 C79 1.235 . S
C77 O80 1.238 . S
C77 O81 1.241 . S
C78 O71 1.247 . S
C78 O72 1.261 . S
C79 O74 1.259 . S
C79 O76 1.235 . S
O80 Co70 2.021 . S
O80 C77 1.238 . S
O81 Co75 2.052 . S
O81 C77 1.241 . S
O82 Co70 2.137 . S
O82 C73 1.247 . S
O83 Co70 2.244 . S
O83 C73 1.272 . S
O83 Co75 2.135 . S
Co84 O85 2.216 . S
Co84 O86 2.091 . S
Co84 O88 2.004 . S
Co84 O94 2.021 . S
Co84 O96 2.137 . S
Co84 O97 2.244 . S
O85 Co84 2.216 . S
O85 C92 1.247 . S
O86 Co84 2.091 . S
O86 C92 1.261 . S
C87 O96 1.247 . S
C87 O97 1.272 . S
O88 Co84 2.004 . S
O88 C93 1.259 . S
Co89 O90 2.061 . S
Co89 O95 2.052 . S
Co89 O97 2.135 . S
O90 Co89 2.061 . S
O90 C93 1.235 . S
C91 O94 1.238 . S
C91 O95 1.241 . S
C92 O85 1.247 . S
C92 O86 1.261 . S
C93 O88 1.259 . S
C93 O90 1.235 . S
O94 Co84 2.021 . S
O94 C91 1.238 . S
O95 Co89 2.052 . S
O95 C91 1.241 . S
O96 Co84 2.137 . S
O96 C87 1.247 . S
O97 Co84 2.244 . S
O97 C87 1.272 . S
O97 Co89 2.135 . S
Co98 O99 2.216 . S
Co98 O100 2.091 . S
Co98 O102 2.004 . S
Co98 O108 2.021 . S
Co98 O110 2.137 . S
Co98 O111 2.244 . S
O99 Co98 2.216 . S
O99 C106 1.247 . S
O100 Co98 2.091 . S
O100 C106 1.261 . S
C101 O110 1.247 . S
C101 O111 1.272 . S
O102 Co98 2.004 . S
O102 C107 1.259 . S
Co103 O104 2.061 . S
Co103 O109 2.052 . S
Co103 O111 2.135 . S
O104 Co103 2.061 . S
O104 C107 1.235 . S
C105 O108 1.238 . S
C105 O109 1.241 . S
C106 O99 1.247 . S
C106 O100 1.261 . S
C107 O102 1.259 . S
C107 O104 1.235 . S
O108 Co98 2.021 . S
O108 C105 1.238 . S
O109 Co103 2.052 . S
O109 C105 1.241 . S
O110 Co98 2.137 . S
O110 C101 1.247 . S
O111 Co98 2.244 . S
O111 C101 1.272 . S
O111 Co103 2.135 . S
Co112 O113 2.216 . S
Co112 O114 2.091 . S
Co112 O116 2.004 . S
Co112 O122 2.021 . S
Co112 O124 2.137 . S
Co112 O125 2.244 . S
O113 Co112 2.216 . S
O113 C120 1.247 . S
O114 Co112 2.091 . S
O114 C120 1.261 . S
C115 O124 1.247 . S
C115 O125 1.272 . S
O116 Co112 2.004 . S
O116 C121 1.259 . S
Co117 O118 2.061 . S
Co117 O123 2.052 . S
Co117 O125 2.135 . S
O118 Co117 2.061 . S
O118 C121 1.235 . S
C119 O122 1.238 . S
C119 O123 1.241 . S
C120 O113 1.247 . S
C120 O114 1.261 . S
C121 O116 1.259 . S
C121 O118 1.235 . S
O122 Co112 2.021 . S
O122 C119 1.238 . S
O123 Co117 2.052 . S
O123 C119 1.241 . S
O124 Co112 2.137 . S
O124 C115 1.247 . S
O125 Co112 2.244 . S
O125 C115 1.272 . S
O125 Co117 2.135 . S
Co126 O127 2.216 . S
Co126 O128 2.091 . S
Co126 O130 2.004 . S
Co126 O136 2.021 . S
Co126 O138 2.137 . S
Co126 O139 2.244 . S
O127 Co126 2.216 . S
O127 C134 1.247 . S
O128 Co126 2.091 . S
O128 C134 1.261 . S
C129 O138 1.247 . S
C129 O139 1.272 . S
O130 Co126 2.004 . S
O130 C135 1.259 . S
Co131 O132 2.061 . S
Co131 O137 2.052 . S
Co131 O139 2.135 . S
O132 Co131 2.061 . S
O132 C135 1.235 . S
C133 O136 1.238 . S
C133 O137 1.241 . S
C134 O127 1.247 . S
C134 O128 1.261 . S
C135 O130 1.259 . S
C135 O132 1.235 . S
O136 Co126 2.021 . S
O136 C133 1.238 . S
O137 Co131 2.052 . S
O137 C133 1.241 . S
O138 Co126 2.137 . S
O138 C129 1.247 . S
O139 Co126 2.244 . S
O139 C129 1.272 . S
O139 Co131 2.135 . S
Co140 O141 2.216 . S
Co140 O142 2.091 . S
Co140 O144 2.004 . S
Co140 O150 2.021 . S
Co140 O152 2.137 . S
Co140 O153 2.244 . S
O141 Co140 2.216 . S
O141 C148 1.247 . S
O142 Co140 2.091 . S
O142 C148 1.261 . S
C143 O152 1.247 . S
C143 O153 1.272 . S
O144 Co140 2.004 . S
O144 C149 1.259 . S
Co145 O146 2.061 . S
Co145 O151 2.052 . S
Co145 O153 2.135 . S
O146 Co145 2.061 . S
O146 C149 1.235 . S
C147 O150 1.238 . S
C147 O151 1.241 . S
C148 O141 1.247 . S
C148 O142 1.261 . S
C149 O144 1.259 . S
C149 O146 1.235 . S
O150 Co140 2.021 . S
O150 C147 1.238 . S
O151 Co145 2.052 . S
O151 C147 1.241 . S
O152 Co140 2.137 . S
O152 C143 1.247 . S
O153 Co140 2.244 . S
O153 C143 1.272 . S
O153 Co145 2.135 . S
Co154 O155 2.216 . S
Co154 O156 2.091 . S
Co154 O158 2.004 . S
Co154 O164 2.021 . S
Co154 O166 2.137 . S
Co154 O167 2.244 . S
O155 Co154 2.216 . S
O155 C162 1.247 . S
O156 Co154 2.091 . S
O156 C162 1.261 . S
C157 O166 1.247 . S
C157 O167 1.272 . S
O158 Co154 2.004 . S
O158 C163 1.259 . S
Co159 O160 2.061 . S
Co159 O165 2.052 . S
Co159 O167 2.135 . S
O160 Co159 2.061 . S
O160 C163 1.235 . S
C161 O164 1.238 . S
C161 O165 1.241 . S
C162 O155 1.247 . S
C162 O156 1.261 . S
C163 O158 1.259 . S
C163 O160 1.235 . S
O164 Co154 2.021 . S
O164 C161 1.238 . S
O165 Co159 2.052 . S
O165 C161 1.241 . S
O166 Co154 2.137 . S
O166 C157 1.247 . S
O167 Co154 2.244 . S
O167 C157 1.272 . S
O167 Co159 2.135 . S
Co168 O169 2.216 . S
Co168 O170 2.091 . S
Co168 O172 2.004 . S
Co168 O178 2.021 . S
Co168 O180 2.137 . S
Co168 O181 2.244 . S
O169 Co168 2.216 . S
O169 C176 1.247 . S
O170 Co168 2.091 . S
O170 C176 1.261 . S
C171 O180 1.247 . S
C171 O181 1.272 . S
O172 Co168 2.004 . S
O172 C177 1.259 . S
Co173 O174 2.061 . S
Co173 O179 2.052 . S
Co173 O181 2.135 . S
O174 Co173 2.061 . S
O174 C177 1.235 . S
C175 O178 1.238 . S
C175 O179 1.241 . S
C176 O169 1.247 . S
C176 O170 1.261 . S
C177 O172 1.259 . S
C177 O174 1.235 . S
O178 Co168 2.021 . S
O178 C175 1.238 . S
O179 Co173 2.052 . S
O179 C175 1.241 . S
O180 Co168 2.137 . S
O180 C171 1.247 . S
O181 Co168 2.244 . S
O181 C171 1.272 . S
O181 Co173 2.135 . S
Co182 O183 2.216 . S
Co182 O184 2.091 . S
Co182 O186 2.004 . S
Co182 O192 2.021 . S
Co182 O194 2.137 . S
Co182 O195 2.244 . S
O183 Co182 2.216 . S
O183 C190 1.247 . S
O184 Co182 2.091 . S
O184 C190 1.261 . S
C185 O194 1.247 . S
C185 O195 1.272 . S
O186 Co182 2.004 . S
O186 C191 1.259 . S
Co187 O188 2.061 . S
Co187 O193 2.052 . S
Co187 O195 2.135 . S
O188 Co187 2.061 . S
O188 C191 1.235 . S
C189 O192 1.238 . S
C189 O193 1.241 . S
C190 O183 1.247 . S
C190 O184 1.261 . S
C191 O186 1.259 . S
C191 O188 1.235 . S
O192 Co182 2.021 . S
O192 C189 1.238 . S
O193 Co187 2.052 . S
O193 C189 1.241 . S
O194 Co182 2.137 . S
O194 C185 1.247 . S
O195 Co182 2.244 . S
O195 C185 1.272 . S
O195 Co187 2.135 . S
Co196 O197 2.216 . S
Co196 O198 2.091 . S
Co196 O200 2.004 . S
Co196 O206 2.021 . S
Co196 O208 2.137 . S
Co196 O209 2.244 . S
O197 Co196 2.216 . S
O197 C204 1.247 . S
O198 Co196 2.091 . S
O198 C204 1.261 . S
C199 O208 1.247 . S
C199 O209 1.272 . S
O200 Co196 2.004 . S
O200 C205 1.259 . S
Co201 O202 2.061 . S
Co201 O207 2.052 . S
Co201 O209 2.135 . S
O202 Co201 2.061 . S
O202 C205 1.235 . S
C203 O206 1.238 . S
C203 O207 1.241 . S
C204 O197 1.247 . S
C204 O198 1.261 . S
C205 O200 1.259 . S
C205 O202 1.235 . S
O206 Co196 2.021 . S
O206 C203 1.238 . S
O207 Co201 2.052 . S
O207 C203 1.241 . S
O208 Co196 2.137 . S
O208 C199 1.247 . S
O209 Co196 2.244 . S
O209 C199 1.272 . S
O209 Co201 2.135 . S
Co210 O211 2.216 . S
Co210 O212 2.091 . S
Co210 O214 2.004 . S
Co210 O220 2.021 . S
Co210 O222 2.137 . S
Co210 O223 2.244 . S
O211 Co210 2.216 . S
O211 C218 1.247 . S
O212 Co210 2.091 . S
O212 C218 1.261 . S
C213 O222 1.247 . S
C213 O223 1.272 . S
O214 Co210 2.004 . S
O214 C219 1.259 . S
Co215 O216 2.061 . S
Co215 O221 2.052 . S
Co215 O223 2.135 . S
O216 Co215 2.061 . S
O216 C219 1.235 . S
C217 O220 1.238 . S
C217 O221 1.241 . S
C218 O211 1.247 . S
C218 O212 1.261 . S
C219 O214 1.259 . S
C219 O216 1.235 . S
O220 Co210 2.021 . S
O220 C217 1.238 . S
O221 Co215 2.052 . S
O221 C217 1.241 . S
O222 Co210 2.137 . S
O222 C213 1.247 . S
O223 Co210 2.244 . S
O223 C213 1.272 . S
O223 Co215 2.135 . S
Co224 O225 2.216 . S
Co224 O226 2.091 . S
Co224 O228 2.004 . S
Co224 O234 2.021 . S
Co224 O236 2.137 . S
Co224 O237 2.244 . S
O225 Co224 2.216 . S
O225 C232 1.247 . S
O226 Co224 2.091 . S
O226 C232 1.261 . S
C227 O236 1.247 . S
C227 O237 1.272 . S
O228 Co224 2.004 . S
O228 C233 1.259 . S
Co229 O230 2.061 . S
Co229 O235 2.052 . S
Co229 O237 2.135 . S
O230 Co229 2.061 . S
O230 C233 1.235 . S
C231 O234 1.238 . S
C231 O235 1.241 . S
C232 O225 1.247 . S
C232 O226 1.261 . S
C233 O228 1.259 . S
C233 O230 1.235 . S
O234 Co224 2.021 . S
O234 C231 1.238 . S
O235 Co229 2.052 . S
O235 C231 1.241 . S
O236 Co224 2.137 . S
O236 C227 1.247 . S
O237 Co224 2.244 . S
O237 C227 1.272 . S
O237 Co229 2.135 . S
Co238 O239 2.216 . S
Co238 O240 2.091 . S
Co238 O242 2.004 . S
Co238 O248 2.021 . S
Co238 O250 2.137 . S
Co238 O251 2.244 . S
O239 Co238 2.216 . S
O239 C246 1.247 . S
O240 Co238 2.091 . S
O240 C246 1.261 . S
C241 O250 1.247 . S
C241 O251 1.272 . S
O242 Co238 2.004 . S
O242 C247 1.259 . S
Co243 O244 2.061 . S
Co243 O249 2.052 . S
Co243 O251 2.135 . S
O244 Co243 2.061 . S
O244 C247 1.235 . S
C245 O248 1.238 . S
C245 O249 1.241 . S
C246 O239 1.247 . S
C246 O240 1.261 . S
C247 O242 1.259 . S
C247 O244 1.235 . S
O248 Co238 2.021 . S
O248 C245 1.238 . S
O249 Co243 2.052 . S
O249 C245 1.241 . S
O250 Co238 2.137 . S
O250 C241 1.247 . S
O251 Co238 2.244 . S
O251 C241 1.272 . S
O251 Co243 2.135 . S
Co252 O253 2.216 . S
Co252 O254 2.091 . S
Co252 O256 2.004 . S
Co252 O262 2.021 . S
Co252 O264 2.137 . S
Co252 O265 2.244 . S
O253 Co252 2.216 . S
O253 C260 1.247 . S
O254 Co252 2.091 . S
O254 C260 1.261 . S
C255 O264 1.247 . S
C255 O265 1.272 . S
O256 Co252 2.004 . S
O256 C261 1.259 . S
Co257 O258 2.061 . S
Co257 O263 2.052 . S
Co257 O265 2.135 . S
O258 Co257 2.061 . S
O258 C261 1.235 . S
C259 O262 1.238 . S
C259 O263 1.241 . S
C260 O253 1.247 . S
C260 O254 1.261 . S
C261 O256 1.259 . S
C261 O258 1.235 . S
O262 Co252 2.021 . S
O262 C259 1.238 . S
O263 Co257 2.052 . S
O263 C259 1.241 . S
O264 Co252 2.137 . S
O264 C255 1.247 . S
O265 Co252 2.244 . S
O265 C255 1.272 . S
O265 Co257 2.135 . S
Co266 O267 2.216 . S
Co266 O268 2.091 . S
Co266 O270 2.004 . S
Co266 O276 2.021 . S
Co266 O278 2.137 . S
Co266 O279 2.244 . S
O267 Co266 2.216 . S
O267 C274 1.247 . S
O268 Co266 2.091 . S
O268 C274 1.261 . S
C269 O278 1.247 . S
C269 O279 1.272 . S
O270 Co266 2.004 . S
O270 C275 1.259 . S
Co271 O272 2.061 . S
Co271 O277 2.052 . S
Co271 O279 2.135 . S
O272 Co271 2.061 . S
O272 C275 1.235 . S
C273 O276 1.238 . S
C273 O277 1.241 . S
C274 O267 1.247 . S
C274 O268 1.261 . S
C275 O270 1.259 . S
C275 O272 1.235 . S
O276 Co266 2.021 . S
O276 C273 1.238 . S
O277 Co271 2.052 . S
O277 C273 1.241 . S
O278 Co266 2.137 . S
O278 C269 1.247 . S
O279 Co266 2.244 . S
O279 C269 1.272 . S
O279 Co271 2.135 . S
Co280 O281 2.216 . S
Co280 O282 2.091 . S
Co280 O284 2.004 . S
Co280 O290 2.021 . S
Co280 O292 2.137 . S
Co280 O293 2.244 . S
O281 Co280 2.216 . S
O281 C288 1.247 . S
O282 Co280 2.091 . S
O282 C288 1.261 . S
C283 O292 1.247 . S
C283 O293 1.272 . S
O284 Co280 2.004 . S
O284 C289 1.259 . S
Co285 O286 2.061 . S
Co285 O291 2.052 . S
Co285 O293 2.135 . S
O286 Co285 2.061 . S
O286 C289 1.235 . S
C287 O290 1.238 . S
C287 O291 1.241 . S
C288 O281 1.247 . S
C288 O282 1.261 . S
C289 O284 1.259 . S
C289 O286 1.235 . S
O290 Co280 2.021 . S
O290 C287 1.238 . S
O291 Co285 2.052 . S
O291 C287 1.241 . S
O292 Co280 2.137 . S
O292 C283 1.247 . S
O293 Co280 2.244 . S
O293 C283 1.272 . S
O293 Co285 2.135 . S
Co294 O295 2.216 . S
Co294 O296 2.091 . S
Co294 O298 2.004 . S
Co294 O304 2.021 . S
Co294 O306 2.137 . S
Co294 O307 2.244 . S
O295 Co294 2.216 . S
O295 C302 1.247 . S
O296 Co294 2.091 . S
O296 C302 1.261 . S
C297 O306 1.247 . S
C297 O307 1.272 . S
O298 Co294 2.004 . S
O298 C303 1.259 . S
Co299 O300 2.061 . S
Co299 O305 2.052 . S
Co299 O307 2.135 . S
O300 Co299 2.061 . S
O300 C303 1.235 . S
C301 O304 1.238 . S
C301 O305 1.241 . S
C302 O295 1.247 . S
C302 O296 1.261 . S
C303 O298 1.259 . S
C303 O300 1.235 . S
O304 Co294 2.021 . S
O304 C301 1.238 . S
O305 Co299 2.052 . S
O305 C301 1.241 . S
O306 Co294 2.137 . S
O306 C297 1.247 . S
O307 Co294 2.244 . S
O307 C297 1.272 . S
O307 Co299 2.135 . S
Co308 O309 2.216 . S
Co308 O310 2.091 . S
Co308 O312 2.004 . S
Co308 O318 2.021 . S
Co308 O320 2.137 . S
Co308 O321 2.244 . S
O309 Co308 2.216 . S
O309 C316 1.247 . S
O310 Co308 2.091 . S
O310 C316 1.261 . S
C311 O320 1.247 . S
C311 O321 1.272 . S
O312 Co308 2.004 . S
O312 C317 1.259 . S
Co313 O314 2.061 . S
Co313 O319 2.052 . S
Co313 O321 2.135 . S
O314 Co313 2.061 . S
O314 C317 1.235 . S
C315 O318 1.238 . S
C315 O319 1.241 . S
C316 O309 1.247 . S
C316 O310 1.261 . S
C317 O312 1.259 . S
C317 O314 1.235 . S
O318 Co308 2.021 . S
O318 C315 1.238 . S
O319 Co313 2.052 . S
O319 C315 1.241 . S
O320 Co308 2.137 . S
O320 C311 1.247 . S
O321 Co308 2.244 . S
O321 C311 1.272 . S
O321 Co313 2.135 . S
Co322 O323 2.216 . S
Co322 O324 2.091 . S
Co322 O326 2.004 . S
Co322 O332 2.021 . S
Co322 O334 2.137 . S
Co322 O335 2.244 . S
O323 Co322 2.216 . S
O323 C330 1.247 . S
O324 Co322 2.091 . S
O324 C330 1.261 . S
C325 O334 1.247 . S
C325 O335 1.272 . S
O326 Co322 2.004 . S
O326 C331 1.259 . S
Co327 O328 2.061 . S
Co327 O333 2.052 . S
Co327 O335 2.135 . S
O328 Co327 2.061 . S
O328 C331 1.235 . S
C329 O332 1.238 . S
C329 O333 1.241 . S
C330 O323 1.247 . S
C330 O324 1.261 . S
C331 O326 1.259 . S
C331 O328 1.235 . S
O332 Co322 2.021 . S
O332 C329 1.238 . S
O333 Co327 2.052 . S
O333 C329 1.241 . S
O334 Co322 2.137 . S
O334 C325 1.247 . S
O335 Co322 2.244 . S
O335 C325 1.272 . S
O335 Co327 2.135 . S
C336 C337 1.349 . S
C336 C338 1.327 . S
C336 H361 0.950 . S
C337 C336 1.349 . S
C337 C353 1.349 . S
C338 C336 1.327 . S
C338 C357 1.429 . S
C338 H362 0.950 . S
C339 C356 1.574 . S
C339 C358 1.368 . S
C339 H363 0.949 . S
H340 C344 0.949 . S
C341 C342 1.349 . S
C341 C343 1.327 . S
C341 H364 0.950 . S
C342 C341 1.349 . S
C342 C354 1.349 . S
C343 C341 1.327 . S
C343 C359 1.429 . S
C343 H365 0.950 . S
C344 H340 0.949 . S
C344 C352 1.574 . S
C344 C360 1.368 . S
H345 C353 0.950 . S
H346 C351 0.950 . S
H347 C352 0.949 . S
H348 C354 0.950 . S
H349 C355 0.950 . S
H350 C356 0.949 . S
C351 H346 0.950 . S
C351 C353 1.327 . S
C351 C357 1.429 . S
C352 C344 1.574 . S
C352 H347 0.949 . S
C352 C358 1.368 . S
C353 C337 1.349 . S
C353 H345 0.950 . S
C353 C351 1.327 . S
C354 C342 1.349 . S
C354 H348 0.950 . S
C354 C355 1.327 . S
C355 H349 0.950 . S
C355 C354 1.327 . S
C355 C359 1.429 . S
C356 C339 1.574 . S
C356 H350 0.949 . S
C356 C360 1.368 . S
C357 C338 1.429 . S
C357 C351 1.429 . S
C357 C358 1.523 . S
C358 C339 1.368 . S
C358 C352 1.368 . S
C358 C357 1.523 . S
C359 C343 1.429 . S
C359 C355 1.429 . S
C359 C360 1.523 . S
C360 C344 1.368 . S
C360 C356 1.368 . S
C360 C359 1.523 . S
H361 C336 0.950 . S
H362 C338 0.950 . S
H363 C339 0.949 . S
H364 C341 0.950 . S
H365 C343 0.950 . S
C366 C367 1.349 . S
C366 C368 1.327 . S
C366 H391 0.950 . S
C367 C366 1.349 . S
C367 C383 1.349 . S
C368 C366 1.327 . S
C368 C387 1.429 . S
C368 H392 0.950 . S
C369 C386 1.574 . S
C369 C388 1.368 . S
C369 H393 0.949 . S
H370 C374 0.949 . S
C371 C372 1.349 . S
C371 C373 1.327 . S
C371 H394 0.950 . S
C372 C371 1.349 . S
C372 C384 1.349 . S
C373 C371 1.327 . S
C373 C389 1.429 . S
C373 H395 0.950 . S
C374 H370 0.949 . S
C374 C382 1.574 . S
C374 C390 1.368 . S
H375 C383 0.950 . S
H376 C381 0.950 . S
H377 C382 0.949 . S
H378 C384 0.950 . S
H379 C385 0.950 . S
H380 C386 0.949 . S
C381 H376 0.950 . S
C381 C383 1.327 . S
C381 C387 1.429 . S
C382 C374 1.574 . S
C382 H377 0.949 . S
C382 C388 1.368 . S
C383 C367 1.349 . S
C383 H375 0.950 . S
C383 C381 1.327 . S
C384 C372 1.349 . S
C384 H378 0.950 . S
C384 C385 1.327 . S
C385 H379 0.950 . S
C385 C384 1.327 . S
C385 C389 1.429 . S
C386 C369 1.574 . S
C386 H380 0.949 . S
C386 C390 1.368 . S
C387 C368 1.429 . S
C387 C381 1.429 . S
C387 C388 1.523 . S
C388 C369 1.368 . S
C388 C382 1.368 . S
C388 C387 1.523 . S
C389 C373 1.429 . S
C389 C385 1.429 . S
C389 C390 1.523 . S
C390 C374 1.368 . S
C390 C386 1.368 . S
C390 C389 1.523 . S
H391 C366 0.950 . S
H392 C368 0.950 . S
H393 C369 0.949 . S
H394 C371 0.950 . S
H395 C373 0.950 . S
C396 C397 1.349 . S
C396 C398 1.327 . S
C396 H421 0.950 . S
C397 C396 1.349 . S
C397 C413 1.349 . S
C398 C396 1.327 . S
C398 C417 1.429 . S
C398 H422 0.950 . S
C399 C416 1.574 . S
C399 C418 1.368 . S
C399 H423 0.949 . S
H400 C404 0.949 . S
C401 C402 1.349 . S
C401 C403 1.327 . S
C401 H424 0.950 . S
C402 C401 1.349 . S
C402 C414 1.349 . S
C403 C401 1.327 . S
C403 C419 1.429 . S
C403 H425 0.950 . S
C404 H400 0.949 . S
C404 C412 1.574 . S
C404 C420 1.368 . S
H405 C413 0.950 . S
H406 C411 0.950 . S
H407 C412 0.949 . S
H408 C414 0.950 . S
H409 C415 0.950 . S
H410 C416 0.949 . S
C411 H406 0.950 . S
C411 C413 1.327 . S
C411 C417 1.429 . S
C412 C404 1.574 . S
C412 H407 0.949 . S
C412 C418 1.368 . S
C413 C397 1.349 . S
C413 H405 0.950 . S
C413 C411 1.327 . S
C414 C402 1.349 . S
C414 H408 0.950 . S
C414 C415 1.327 . S
C415 H409 0.950 . S
C415 C414 1.327 . S
C415 C419 1.429 . S
C416 C399 1.574 . S
C416 H410 0.949 . S
C416 C420 1.368 . S
C417 C398 1.429 . S
C417 C411 1.429 . S
C417 C418 1.523 . S
C418 C399 1.368 . S
C418 C412 1.368 . S
C418 C417 1.523 . S
C419 C403 1.429 . S
C419 C415 1.429 . S
C419 C420 1.523 . S
C420 C404 1.368 . S
C420 C416 1.368 . S
C420 C419 1.523 . S
H421 C396 0.950 . S
H422 C398 0.950 . S
H423 C399 0.949 . S
H424 C401 0.950 . S
H425 C403 0.950 . S
C426 C427 1.349 . S
C426 C428 1.327 . S
C426 H451 0.950 . S
C427 C426 1.349 . S
C427 C443 1.349 . S
C428 C426 1.327 . S
C428 C447 1.429 . S
C428 H452 0.950 . S
C429 C446 1.574 . S
C429 C448 1.368 . S
C429 H453 0.949 . S
H430 C434 0.949 . S
C431 C432 1.349 . S
C431 C433 1.327 . S
C431 H454 0.950 . S
C432 C431 1.349 . S
C432 C444 1.349 . S
C433 C431 1.327 . S
C433 C449 1.429 . S
C433 H455 0.950 . S
C434 H430 0.949 . S
C434 C442 1.574 . S
C434 C450 1.368 . S
H435 C443 0.950 . S
H436 C441 0.950 . S
H437 C442 0.949 . S
H438 C444 0.950 . S
H439 C445 0.950 . S
H440 C446 0.949 . S
C441 H436 0.950 . S
C441 C443 1.327 . S
C441 C447 1.429 . S
C442 C434 1.574 . S
C442 H437 0.949 . S
C442 C448 1.368 . S
C443 C427 1.349 . S
C443 H435 0.950 . S
C443 C441 1.327 . S
C444 C432 1.349 . S
C444 H438 0.950 . S
C444 C445 1.327 . S
C445 H439 0.950 . S
C445 C444 1.327 . S
C445 C449 1.429 . S
C446 C429 1.574 . S
C446 H440 0.949 . S
C446 C450 1.368 . S
C447 C428 1.429 . S
C447 C441 1.429 . S
C447 C448 1.523 . S
C448 C429 1.368 . S
C448 C442 1.368 . S
C448 C447 1.523 . S
C449 C433 1.429 . S
C449 C445 1.429 . S
C449 C450 1.523 . S
C450 C434 1.368 . S
C450 C446 1.368 . S
C450 C449 1.523 . S
H451 C426 0.950 . S
H452 C428 0.950 . S
H453 C429 0.949 . S
H454 C431 0.950 . S
H455 C433 0.950 . S
C456 C457 1.349 . S
C456 C458 1.327 . S
C456 H481 0.950 . S
C457 C456 1.349 . S
C457 C473 1.349 . S
C458 C456 1.327 . S
C458 C477 1.429 . S
C458 H482 0.950 . S
C459 C476 1.574 . S
C459 C478 1.368 . S
C459 H483 0.949 . S
H460 C464 0.949 . S
C461 C462 1.349 . S
C461 C463 1.327 . S
C461 H484 0.950 . S
C462 C461 1.349 . S
C462 C474 1.349 . S
C463 C461 1.327 . S
C463 C479 1.429 . S
C463 H485 0.950 . S
C464 H460 0.949 . S
C464 C472 1.574 . S
C464 C480 1.368 . S
H465 C473 0.950 . S
H466 C471 0.950 . S
H467 C472 0.949 . S
H468 C474 0.950 . S
H469 C475 0.950 . S
H470 C476 0.949 . S
C471 H466 0.950 . S
C471 C473 1.327 . S
C471 C477 1.429 . S
C472 C464 1.574 . S
C472 H467 0.949 . S
C472 C478 1.368 . S
C473 C457 1.349 . S
C473 H465 0.950 . S
C473 C471 1.327 . S
C474 C462 1.349 . S
C474 H468 0.950 . S
C474 C475 1.327 . S
C475 H469 0.950 . S
C475 C474 1.327 . S
C475 C479 1.429 . S
C476 C459 1.574 . S
C476 H470 0.949 . S
C476 C480 1.368 . S
C477 C458 1.429 . S
C477 C471 1.429 . S
C477 C478 1.523 . S
C478 C459 1.368 . S
C478 C472 1.368 . S
C478 C477 1.523 . S
C479 C463 1.429 . S
C479 C475 1.429 . S
C479 C480 1.523 . S
C480 C464 1.368 . S
C480 C476 1.368 . S
C480 C479 1.523 . S
H481 C456 0.950 . S
H482 C458 0.950 . S
H483 C459 0.949 . S
H484 C461 0.950 . S
H485 C463 0.950 . S
C486 C487 1.349 . S
C486 C488 1.327 . S
C486 H511 0.950 . S
C487 C486 1.349 . S
C487 C503 1.349 . S
C488 C486 1.327 . S
C488 C507 1.429 . S
C488 H512 0.950 . S
C489 C506 1.574 . S
C489 C508 1.368 . S
C489 H513 0.949 . S
H490 C494 0.949 . S
C491 C492 1.349 . S
C491 C493 1.327 . S
C491 H514 0.950 . S
C492 C491 1.349 . S
C492 C504 1.349 . S
C493 C491 1.327 . S
C493 C509 1.429 . S
C493 H515 0.950 . S
C494 H490 0.949 . S
C494 C502 1.574 . S
C494 C510 1.368 . S
H495 C503 0.950 . S
H496 C501 0.950 . S
H497 C502 0.949 . S
H498 C504 0.950 . S
H499 C505 0.950 . S
H500 C506 0.949 . S
C501 H496 0.950 . S
C501 C503 1.327 . S
C501 C507 1.429 . S
C502 C494 1.574 . S
C502 H497 0.949 . S
C502 C508 1.368 . S
C503 C487 1.349 . S
C503 H495 0.950 . S
C503 C501 1.327 . S
C504 C492 1.349 . S
C504 H498 0.950 . S
C504 C505 1.327 . S
C505 H499 0.950 . S
C505 C504 1.327 . S
C505 C509 1.429 . S
C506 C489 1.574 . S
C506 H500 0.949 . S
C506 C510 1.368 . S
C507 C488 1.429 . S
C507 C501 1.429 . S
C507 C508 1.523 . S
C508 C489 1.368 . S
C508 C502 1.368 . S
C508 C507 1.523 . S
C509 C493 1.429 . S
C509 C505 1.429 . S
C509 C510 1.523 . S
C510 C494 1.368 . S
C510 C506 1.368 . S
C510 C509 1.523 . S
H511 C486 0.950 . S
H512 C488 0.950 . S
H513 C489 0.949 . S
H514 C491 0.950 . S
H515 C493 0.950 . S
C516 C517 1.349 . S
C516 C518 1.327 . S
C516 H541 0.950 . S
C517 C516 1.349 . S
C517 C533 1.349 . S
C518 C516 1.327 . S
C518 C537 1.429 . S
C518 H542 0.950 . S
C519 C536 1.574 . S
C519 C538 1.368 . S
C519 H543 0.949 . S
H520 C524 0.949 . S
C521 C522 1.349 . S
C521 C523 1.327 . S
C521 H544 0.950 . S
C522 C521 1.349 . S
C522 C534 1.349 . S
C523 C521 1.327 . S
C523 C539 1.429 . S
C523 H545 0.950 . S
C524 H520 0.949 . S
C524 C532 1.574 . S
C524 C540 1.368 . S
H525 C533 0.950 . S
H526 C531 0.950 . S
H527 C532 0.949 . S
H528 C534 0.950 . S
H529 C535 0.950 . S
H530 C536 0.949 . S
C531 H526 0.950 . S
C531 C533 1.327 . S
C531 C537 1.429 . S
C532 C524 1.574 . S
C532 H527 0.949 . S
C532 C538 1.368 . S
C533 C517 1.349 . S
C533 H525 0.950 . S
C533 C531 1.327 . S
C534 C522 1.349 . S
C534 H528 0.950 . S
C534 C535 1.327 . S
C535 H529 0.950 . S
C535 C534 1.327 . S
C535 C539 1.429 . S
C536 C519 1.574 . S
C536 H530 0.949 . S
C536 C540 1.368 . S
C537 C518 1.429 . S
C537 C531 1.429 . S
C537 C538 1.523 . S
C538 C519 1.368 . S
C538 C532 1.368 . S
C538 C537 1.523 . S
C539 C523 1.429 . S
C539 C535 1.429 . S
C539 C540 1.523 . S
C540 C524 1.368 . S
C540 C536 1.368 . S
C540 C539 1.523 . S
H541 C516 0.950 . S
H542 C518 0.950 . S
H543 C519 0.949 . S
H544 C521 0.950 . S
H545 C523 0.950 . S
C546 C547 1.349 . S
C546 C548 1.327 . S
C546 H571 0.950 . S
C547 C546 1.349 . S
C547 C563 1.349 . S
C548 C546 1.327 . S
C548 C567 1.429 . S
C548 H572 0.950 . S
C549 C566 1.574 . S
C549 C568 1.368 . S
C549 H573 0.949 . S
H550 C554 0.949 . S
C551 C552 1.349 . S
C551 C553 1.327 . S
C551 H574 0.950 . S
C552 C551 1.349 . S
C552 C564 1.349 . S
C553 C551 1.327 . S
C553 C569 1.429 . S
C553 H575 0.950 . S
C554 H550 0.949 . S
C554 C562 1.574 . S
C554 C570 1.368 . S
H555 C563 0.950 . S
H556 C561 0.950 . S
H557 C562 0.949 . S
H558 C564 0.950 . S
H559 C565 0.950 . S
H560 C566 0.949 . S
C561 H556 0.950 . S
C561 C563 1.327 . S
C561 C567 1.429 . S
C562 C554 1.574 . S
C562 H557 0.949 . S
C562 C568 1.368 . S
C563 C547 1.349 . S
C563 H555 0.950 . S
C563 C561 1.327 . S
C564 C552 1.349 . S
C564 H558 0.950 . S
C564 C565 1.327 . S
C565 H559 0.950 . S
C565 C564 1.327 . S
C565 C569 1.429 . S
C566 C549 1.574 . S
C566 H560 0.949 . S
C566 C570 1.368 . S
C567 C548 1.429 . S
C567 C561 1.429 . S
C567 C568 1.523 . S
C568 C549 1.368 . S
C568 C562 1.368 . S
C568 C567 1.523 . S
C569 C553 1.429 . S
C569 C565 1.429 . S
C569 C570 1.523 . S
C570 C554 1.368 . S
C570 C566 1.368 . S
C570 C569 1.523 . S
H571 C546 0.950 . S
H572 C548 0.950 . S
H573 C549 0.949 . S
H574 C551 0.950 . S
H575 C553 0.950 . S
C576 C577 1.349 . S
C576 C578 1.327 . S
C576 H601 0.950 . S
C577 C576 1.349 . S
C577 C593 1.349 . S
C578 C576 1.327 . S
C578 C597 1.429 . S
C578 H602 0.950 . S
C579 C596 1.574 . S
C579 C598 1.368 . S
C579 H603 0.949 . S
H580 C584 0.949 . S
C581 C582 1.349 . S
C581 C583 1.327 . S
C581 H604 0.950 . S
C582 C581 1.349 . S
C582 C594 1.349 . S
C583 C581 1.327 . S
C583 C599 1.429 . S
C583 H605 0.950 . S
C584 H580 0.949 . S
C584 C592 1.574 . S
C584 C600 1.368 . S
H585 C593 0.950 . S
H586 C591 0.950 . S
H587 C592 0.949 . S
H588 C594 0.950 . S
H589 C595 0.950 . S
H590 C596 0.949 . S
C591 H586 0.950 . S
C591 C593 1.327 . S
C591 C597 1.429 . S
C592 C584 1.574 . S
C592 H587 0.949 . S
C592 C598 1.368 . S
C593 C577 1.349 . S
C593 H585 0.950 . S
C593 C591 1.327 . S
C594 C582 1.349 . S
C594 H588 0.950 . S
C594 C595 1.327 . S
C595 H589 0.950 . S
C595 C594 1.327 . S
C595 C599 1.429 . S
C596 C579 1.574 . S
C596 H590 0.949 . S
C596 C600 1.368 . S
C597 C578 1.429 . S
C597 C591 1.429 . S
C597 C598 1.523 . S
C598 C579 1.368 . S
C598 C592 1.368 . S
C598 C597 1.523 . S
C599 C583 1.429 . S
C599 C595 1.429 . S
C599 C600 1.523 . S
C600 C584 1.368 . S
C600 C596 1.368 . S
C600 C599 1.523 . S
H601 C576 0.950 . S
H602 C578 0.950 . S
H603 C579 0.949 . S
H604 C581 0.950 . S
H605 C583 0.950 . S
C606 C607 1.349 . S
C606 C608 1.327 . S
C606 H631 0.950 . S
C607 C606 1.349 . S
C607 C623 1.349 . S
C608 C606 1.327 . S
C608 C627 1.429 . S
C608 H632 0.950 . S
C609 C626 1.574 . S
C609 C628 1.368 . S
C609 H633 0.949 . S
H610 C614 0.949 . S
C611 C612 1.349 . S
C611 C613 1.327 . S
C611 H634 0.950 . S
C612 C611 1.349 . S
C612 C624 1.349 . S
C613 C611 1.327 . S
C613 C629 1.429 . S
C613 H635 0.950 . S
C614 H610 0.949 . S
C614 C622 1.574 . S
C614 C630 1.368 . S
H615 C623 0.950 . S
H616 C621 0.950 . S
H617 C622 0.949 . S
H618 C624 0.950 . S
H619 C625 0.950 . S
H620 C626 0.949 . S
C621 H616 0.950 . S
C621 C623 1.327 . S
C621 C627 1.429 . S
C622 C614 1.574 . S
C622 H617 0.949 . S
C622 C628 1.368 . S
C623 C607 1.349 . S
C623 H615 0.950 . S
C623 C621 1.327 . S
C624 C612 1.349 . S
C624 H618 0.950 . S
C624 C625 1.327 . S
C625 H619 0.950 . S
C625 C624 1.327 . S
C625 C629 1.429 . S
C626 C609 1.574 . S
C626 H620 0.949 . S
C626 C630 1.368 . S
C627 C608 1.429 . S
C627 C621 1.429 . S
C627 C628 1.523 . S
C628 C609 1.368 . S
C628 C622 1.368 . S
C628 C627 1.523 . S
C629 C613 1.429 . S
C629 C625 1.429 . S
C629 C630 1.523 . S
C630 C614 1.368 . S
C630 C626 1.368 . S
C630 C629 1.523 . S
H631 C606 0.950 . S
H632 C608 0.950 . S
H633 C609 0.949 . S
H634 C611 0.950 . S
H635 C613 0.950 . S
C636 C637 1.349 . S
C636 C638 1.327 . S
C636 H661 0.950 . S
C637 C636 1.349 . S
C637 C653 1.349 . S
C638 C636 1.327 . S
C638 C657 1.429 . S
C638 H662 0.950 . S
C639 C656 1.574 . S
C639 C658 1.368 . S
C639 H663 0.949 . S
H640 C644 0.949 . S
C641 C642 1.349 . S
C641 C643 1.327 . S
C641 H664 0.950 . S
C642 C641 1.349 . S
C642 C654 1.349 . S
C643 C641 1.327 . S
C643 C659 1.429 . S
C643 H665 0.950 . S
C644 H640 0.949 . S
C644 C652 1.574 . S
C644 C660 1.368 . S
H645 C653 0.950 . S
H646 C651 0.950 . S
H647 C652 0.949 . S
H648 C654 0.950 . S
H649 C655 0.950 . S
H650 C656 0.949 . S
C651 H646 0.950 . S
C651 C653 1.327 . S
C651 C657 1.429 . S
C652 C644 1.574 . S
C652 H647 0.949 . S
C652 C658 1.368 . S
C653 C637 1.349 . S
C653 H645 0.950 . S
C653 C651 1.327 . S
C654 C642 1.349 . S
C654 H648 0.950 . S
C654 C655 1.327 . S
C655 H649 0.950 . S
C655 C654 1.327 . S
C655 C659 1.429 . S
C656 C639 1.574 . S
C656 H650 0.949 . S
C656 C660 1.368 . S
C657 C638 1.429 . S
C657 C651 1.429 . S
C657 C658 1.523 . S
C658 C639 1.368 . S
C658 C652 1.368 . S
C658 C657 1.523 . S
C659 C643 1.429 . S
C659 C655 1.429 . S
C659 C660 1.523 . S
C660 C644 1.368 . S
C660 C656 1.368 . S
C660 C659 1.523 . S
H661 C636 0.950 . S
H662 C638 0.950 . S
H663 C639 0.949 . S
H664 C641 0.950 . S
H665 C643 0.950 . S
C666 C667 1.349 . S
C666 C668 1.327 . S
C666 H691 0.950 . S
C667 C666 1.349 . S
C667 C683 1.349 . S
C668 C666 1.327 . S
C668 C687 1.429 . S
C668 H692 0.950 . S
C669 C686 1.574 . S
C669 C688 1.368 . S
C669 H693 0.949 . S
H670 C674 0.949 . S
C671 C672 1.349 . S
C671 C673 1.327 . S
C671 H694 0.950 . S
C672 C671 1.349 . S
C672 C684 1.349 . S
C673 C671 1.327 . S
C673 C689 1.429 . S
C673 H695 0.950 . S
C674 H670 0.949 . S
C674 C682 1.574 . S
C674 C690 1.368 . S
H675 C683 0.950 . S
H676 C681 0.950 . S
H677 C682 0.949 . S
H678 C684 0.950 . S
H679 C685 0.950 . S
H680 C686 0.949 . S
C681 H676 0.950 . S
C681 C683 1.327 . S
C681 C687 1.429 . S
C682 C674 1.574 . S
C682 H677 0.949 . S
C682 C688 1.368 . S
C683 C667 1.349 . S
C683 H675 0.950 . S
C683 C681 1.327 . S
C684 C672 1.349 . S
C684 H678 0.950 . S
C684 C685 1.327 . S
C685 H679 0.950 . S
C685 C684 1.327 . S
C685 C689 1.429 . S
C686 C669 1.574 . S
C686 H680 0.949 . S
C686 C690 1.368 . S
C687 C668 1.429 . S
C687 C681 1.429 . S
C687 C688 1.523 . S
C688 C669 1.368 . S
C688 C682 1.368 . S
C688 C687 1.523 . S
C689 C673 1.429 . S
C689 C685 1.429 . S
C689 C690 1.523 . S
C690 C674 1.368 . S
C690 C686 1.368 . S
C690 C689 1.523 . S
H691 C666 0.950 . S
H692 C668 0.950 . S
H693 C669 0.949 . S
H694 C671 0.950 . S
H695 C673 0.950 . S
C696 C697 1.349 . S
C696 C698 1.327 . S
C696 H721 0.950 . S
C697 C696 1.349 . S
C697 C713 1.349 . S
C698 C696 1.327 . S
C698 C717 1.429 . S
C698 H722 0.950 . S
C699 C716 1.574 . S
C699 C718 1.368 . S
C699 H723 0.949 . S
H700 C704 0.949 . S
C701 C702 1.349 . S
C701 C703 1.327 . S
C701 H724 0.950 . S
C702 C701 1.349 . S
C702 C714 1.349 . S
C703 C701 1.327 . S
C703 C719 1.429 . S
C703 H725 0.950 . S
C704 H700 0.949 . S
C704 C712 1.574 . S
C704 C720 1.368 . S
H705 C713 0.950 . S
H706 C711 0.950 . S
H707 C712 0.949 . S
H708 C714 0.950 . S
H709 C715 0.950 . S
H710 C716 0.949 . S
C711 H706 0.950 . S
C711 C713 1.327 . S
C711 C717 1.429 . S
C712 C704 1.574 . S
C712 H707 0.949 . S
C712 C718 1.368 . S
C713 C697 1.349 . S
C713 H705 0.950 . S
C713 C711 1.327 . S
C714 C702 1.349 . S
C714 H708 0.950 . S
C714 C715 1.327 . S
C715 H709 0.950 . S
C715 C714 1.327 . S
C715 C719 1.429 . S
C716 C699 1.574 . S
C716 H710 0.949 . S
C716 C720 1.368 . S
C717 C698 1.429 . S
C717 C711 1.429 . S
C717 C718 1.523 . S
C718 C699 1.368 . S
C718 C712 1.368 . S
C718 C717 1.523 . S
C719 C703 1.429 . S
C719 C715 1.429 . S
C719 C720 1.523 . S
C720 C704 1.368 . S
C720 C716 1.368 . S
C720 C719 1.523 . S
H721 C696 0.950 . S
H722 C698 0.950 . S
H723 C699 0.949 . S
H724 C701 0.950 . S
H725 C703 0.950 . S
C726 C727 1.349 . S
C726 C728 1.327 . S
C726 H751 0.950 . S
C727 C726 1.349 . S
C727 C743 1.349 . S
C728 C726 1.327 . S
C728 C747 1.429 . S
C728 H752 0.950 . S
C729 C746 1.574 . S
C729 C748 1.368 . S
C729 H753 0.949 . S
H730 C734 0.949 . S
C731 C732 1.349 . S
C731 C733 1.327 . S
C731 H754 0.950 . S
C732 C731 1.349 . S
C732 C744 1.349 . S
C733 C731 1.327 . S
C733 C749 1.429 . S
C733 H755 0.950 . S
C734 H730 0.949 . S
C734 C742 1.574 . S
C734 C750 1.368 . S
H735 C743 0.950 . S
H736 C741 0.950 . S
H737 C742 0.949 . S
H738 C744 0.950 . S
H739 C745 0.950 . S
H740 C746 0.949 . S
C741 H736 0.950 . S
C741 C743 1.327 . S
C741 C747 1.429 . S
C742 C734 1.574 . S
C742 H737 0.949 . S
C742 C748 1.368 . S
C743 C727 1.349 . S
C743 H735 0.950 . S
C743 C741 1.327 . S
C744 C732 1.349 . S
C744 H738 0.950 . S
C744 C745 1.327 . S
C745 H739 0.950 . S
C745 C744 1.327 . S
C745 C749 1.429 . S
C746 C729 1.574 . S
C746 H740 0.949 . S
C746 C750 1.368 . S
C747 C728 1.429 . S
C747 C741 1.429 . S
C747 C748 1.523 . S
C748 C729 1.368 . S
C748 C742 1.368 . S
C748 C747 1.523 . S
C749 C733 1.429 . S
C749 C745 1.429 . S
C749 C750 1.523 . S
C750 C734 1.368 . S
C750 C746 1.368 . S
C750 C749 1.523 . S
H751 C726 0.950 . S
H752 C728 0.950 . S
H753 C729 0.949 . S
H754 C731 0.950 . S
H755 C733 0.950 . S
C756 C757 1.349 . S
C756 C758 1.327 . S
C756 H781 0.950 . S
C757 C756 1.349 . S
C757 C773 1.349 . S
C758 C756 1.327 . S
C758 C777 1.429 . S
C758 H782 0.950 . S
C759 C776 1.574 . S
C759 C778 1.368 . S
C759 H783 0.949 . S
H760 C764 0.949 . S
C761 C762 1.349 . S
C761 C763 1.327 . S
C761 H784 0.950 . S
C762 C761 1.349 . S
C762 C774 1.349 . S
C763 C761 1.327 . S
C763 C779 1.429 . S
C763 H785 0.950 . S
C764 H760 0.949 . S
C764 C772 1.574 . S
C764 C780 1.368 . S
H765 C773 0.950 . S
H766 C771 0.950 . S
H767 C772 0.949 . S
H768 C774 0.950 . S
H769 C775 0.950 . S
H770 C776 0.949 . S
C771 H766 0.950 . S
C771 C773 1.327 . S
C771 C777 1.429 . S
C772 C764 1.574 . S
C772 H767 0.949 . S
C772 C778 1.368 . S
C773 C757 1.349 . S
C773 H765 0.950 . S
C773 C771 1.327 . S
C774 C762 1.349 . S
C774 H768 0.950 . S
C774 C775 1.327 . S
C775 H769 0.950 . S
C775 C774 1.327 . S
C775 C779 1.429 . S
C776 C759 1.574 . S
C776 H770 0.949 . S
C776 C780 1.368 . S
C777 C758 1.429 . S
C777 C771 1.429 . S
C777 C778 1.523 . S
C778 C759 1.368 . S
C778 C772 1.368 . S
C778 C777 1.523 . S
C779 C763 1.429 . S
C779 C775 1.429 . S
C779 C780 1.523 . S
C780 C764 1.368 . S
C780 C776 1.368 . S
C780 C779 1.523 . S
H781 C756 0.950 . S
H782 C758 0.950 . S
H783 C759 0.949 . S
H784 C761 0.950 . S
H785 C763 0.950 . S
C786 C787 1.349 . S
C786 C788 1.327 . S
C786 H811 0.950 . S
C787 C786 1.349 . S
C787 C803 1.349 . S
C788 C786 1.327 . S
C788 C807 1.429 . S
C788 H812 0.950 . S
C789 C806 1.574 . S
C789 C808 1.368 . S
C789 H813 0.949 . S
H790 C794 0.949 . S
C791 C792 1.349 . S
C791 C793 1.327 . S
C791 H814 0.950 . S
C792 C791 1.349 . S
C792 C804 1.349 . S
C793 C791 1.327 . S
C793 C809 1.429 . S
C793 H815 0.950 . S
C794 H790 0.949 . S
C794 C802 1.574 . S
C794 C810 1.368 . S
H795 C803 0.950 . S
H796 C801 0.950 . S
H797 C802 0.949 . S
H798 C804 0.950 . S
H799 C805 0.950 . S
H800 C806 0.949 . S
C801 H796 0.950 . S
C801 C803 1.327 . S
C801 C807 1.429 . S
C802 C794 1.574 . S
C802 H797 0.949 . S
C802 C808 1.368 . S
C803 C787 1.349 . S
C803 H795 0.950 . S
C803 C801 1.327 . S
C804 C792 1.349 . S
C804 H798 0.950 . S
C804 C805 1.327 . S
C805 H799 0.950 . S
C805 C804 1.327 . S
C805 C809 1.429 . S
C806 C789 1.574 . S
C806 H800 0.949 . S
C806 C810 1.368 . S
C807 C788 1.429 . S
C807 C801 1.429 . S
C807 C808 1.523 . S
C808 C789 1.368 . S
C808 C802 1.368 . S
C808 C807 1.523 . S
C809 C793 1.429 . S
C809 C805 1.429 . S
C809 C810 1.523 . S
C810 C794 1.368 . S
C810 C806 1.368 . S
C810 C809 1.523 . S
H811 C786 0.950 . S
H812 C788 0.950 . S
H813 C789 0.949 . S
H814 C791 0.950 . S
H815 C793 0.950 . S
C816 C817 1.349 . S
C816 C818 1.327 . S
C816 H841 0.950 . S
C817 C816 1.349 . S
C817 C833 1.349 . S
C818 C816 1.327 . S
C818 C837 1.429 . S
C818 H842 0.950 . S
C819 C836 1.574 . S
C819 C838 1.368 . S
C819 H843 0.949 . S
H820 C824 0.949 . S
C821 C822 1.349 . S
C821 C823 1.327 . S
C821 H844 0.950 . S
C822 C821 1.349 . S
C822 C834 1.349 . S
C823 C821 1.327 . S
C823 C839 1.429 . S
C823 H845 0.950 . S
C824 H820 0.949 . S
C824 C832 1.574 . S
C824 C840 1.368 . S
H825 C833 0.950 . S
H826 C831 0.950 . S
H827 C832 0.949 . S
H828 C834 0.950 . S
H829 C835 0.950 . S
H830 C836 0.949 . S
C831 H826 0.950 . S
C831 C833 1.327 . S
C831 C837 1.429 . S
C832 C824 1.574 . S
C832 H827 0.949 . S
C832 C838 1.368 . S
C833 C817 1.349 . S
C833 H825 0.950 . S
C833 C831 1.327 . S
C834 C822 1.349 . S
C834 H828 0.950 . S
C834 C835 1.327 . S
C835 H829 0.950 . S
C835 C834 1.327 . S
C835 C839 1.429 . S
C836 C819 1.574 . S
C836 H830 0.949 . S
C836 C840 1.368 . S
C837 C818 1.429 . S
C837 C831 1.429 . S
C837 C838 1.523 . S
C838 C819 1.368 . S
C838 C832 1.368 . S
C838 C837 1.523 . S
C839 C823 1.429 . S
C839 C835 1.429 . S
C839 C840 1.523 . S
C840 C824 1.368 . S
C840 C836 1.368 . S
C840 C839 1.523 . S
H841 C816 0.950 . S
H842 C818 0.950 . S
H843 C819 0.949 . S
H844 C821 0.950 . S
H845 C823 0.950 . S
C846 C847 1.349 . S
C846 C848 1.327 . S
C846 H871 0.950 . S
C847 C846 1.349 . S
C847 C863 1.349 . S
C848 C846 1.327 . S
C848 C867 1.429 . S
C848 H872 0.950 . S
C849 C866 1.574 . S
C849 C868 1.368 . S
C849 H873 0.949 . S
H850 C854 0.949 . S
C851 C852 1.349 . S
C851 C853 1.327 . S
C851 H874 0.950 . S
C852 C851 1.349 . S
C852 C864 1.349 . S
C853 C851 1.327 . S
C853 C869 1.429 . S
C853 H875 0.950 . S
C854 H850 0.949 . S
C854 C862 1.574 . S
C854 C870 1.368 . S
H855 C863 0.950 . S
H856 C861 0.950 . S
H857 C862 0.949 . S
H858 C864 0.950 . S
H859 C865 0.950 . S
H860 C866 0.949 . S
C861 H856 0.950 . S
C861 C863 1.327 . S
C861 C867 1.429 . S
C862 C854 1.574 . S
C862 H857 0.949 . S
C862 C868 1.368 . S
C863 C847 1.349 . S
C863 H855 0.950 . S
C863 C861 1.327 . S
C864 C852 1.349 . S
C864 H858 0.950 . S
C864 C865 1.327 . S
C865 H859 0.950 . S
C865 C864 1.327 . S
C865 C869 1.429 . S
C866 C849 1.574 . S
C866 H860 0.949 . S
C866 C870 1.368 . S
C867 C848 1.429 . S
C867 C861 1.429 . S
C867 C868 1.523 . S
C868 C849 1.368 . S
C868 C862 1.368 . S
C868 C867 1.523 . S
C869 C853 1.429 . S
C869 C865 1.429 . S
C869 C870 1.523 . S
C870 C854 1.368 . S
C870 C866 1.368 . S
C870 C869 1.523 . S
H871 C846 0.950 . S
H872 C848 0.950 . S
H873 C849 0.949 . S
H874 C851 0.950 . S
H875 C853 0.950 . S
C876 C877 1.349 . S
C876 C878 1.327 . S
C876 H901 0.950 . S
C877 C876 1.349 . S
C877 C893 1.349 . S
C878 C876 1.327 . S
C878 C897 1.429 . S
C878 H902 0.950 . S
C879 C896 1.574 . S
C879 C898 1.368 . S
C879 H903 0.949 . S
H880 C884 0.949 . S
C881 C882 1.349 . S
C881 C883 1.327 . S
C881 H904 0.950 . S
C882 C881 1.349 . S
C882 C894 1.349 . S
C883 C881 1.327 . S
C883 C899 1.429 . S
C883 H905 0.950 . S
C884 H880 0.949 . S
C884 C892 1.574 . S
C884 C900 1.368 . S
H885 C893 0.950 . S
H886 C891 0.950 . S
H887 C892 0.949 . S
H888 C894 0.950 . S
H889 C895 0.950 . S
H890 C896 0.949 . S
C891 H886 0.950 . S
C891 C893 1.327 . S
C891 C897 1.429 . S
C892 C884 1.574 . S
C892 H887 0.949 . S
C892 C898 1.368 . S
C893 C877 1.349 . S
C893 H885 0.950 . S
C893 C891 1.327 . S
C894 C882 1.349 . S
C894 H888 0.950 . S
C894 C895 1.327 . S
C895 H889 0.950 . S
C895 C894 1.327 . S
C895 C899 1.429 . S
C896 C879 1.574 . S
C896 H890 0.949 . S
C896 C900 1.368 . S
C897 C878 1.429 . S
C897 C891 1.429 . S
C897 C898 1.523 . S
C898 C879 1.368 . S
C898 C892 1.368 . S
C898 C897 1.523 . S
C899 C883 1.429 . S
C899 C895 1.429 . S
C899 C900 1.523 . S
C900 C884 1.368 . S
C900 C896 1.368 . S
C900 C899 1.523 . S
H901 C876 0.950 . S
H902 C878 0.950 . S
H903 C879 0.949 . S
H904 C881 0.950 . S
H905 C883 0.950 . S
C906 C907 1.349 . S
C906 C908 1.327 . S
C906 H931 0.950 . S
C907 C906 1.349 . S
C907 C923 1.349 . S
C908 C906 1.327 . S
C908 C927 1.429 . S
C908 H932 0.950 . S
C909 C926 1.574 . S
C909 C928 1.368 . S
C909 H933 0.949 . S
H910 C914 0.949 . S
C911 C912 1.349 . S
C911 C913 1.327 . S
C911 H934 0.950 . S
C912 C911 1.349 . S
C912 C924 1.349 . S
C913 C911 1.327 . S
C913 C929 1.429 . S
C913 H935 0.950 . S
C914 H910 0.949 . S
C914 C922 1.574 . S
C914 C930 1.368 . S
H915 C923 0.950 . S
H916 C921 0.950 . S
H917 C922 0.949 . S
H918 C924 0.950 . S
H919 C925 0.950 . S
H920 C926 0.949 . S
C921 H916 0.950 . S
C921 C923 1.327 . S
C921 C927 1.429 . S
C922 C914 1.574 . S
C922 H917 0.949 . S
C922 C928 1.368 . S
C923 C907 1.349 . S
C923 H915 0.950 . S
C923 C921 1.327 . S
C924 C912 1.349 . S
C924 H918 0.950 . S
C924 C925 1.327 . S
C925 H919 0.950 . S
C925 C924 1.327 . S
C925 C929 1.429 . S
C926 C909 1.574 . S
C926 H920 0.949 . S
C926 C930 1.368 . S
C927 C908 1.429 . S
C927 C921 1.429 . S
C927 C928 1.523 . S
C928 C909 1.368 . S
C928 C922 1.368 . S
C928 C927 1.523 . S
C929 C913 1.429 . S
C929 C925 1.429 . S
C929 C930 1.523 . S
C930 C914 1.368 . S
C930 C926 1.368 . S
C930 C929 1.523 . S
H931 C906 0.950 . S
H932 C908 0.950 . S
H933 C909 0.949 . S
H934 C911 0.950 . S
H935 C913 0.950 . S
C936 C937 1.349 . S
C936 C938 1.327 . S
C936 H961 0.950 . S
C937 C936 1.349 . S
C937 C953 1.349 . S
C938 C936 1.327 . S
C938 C957 1.429 . S
C938 H962 0.950 . S
C939 C956 1.574 . S
C939 C958 1.368 . S
C939 H963 0.949 . S
H940 C944 0.949 . S
C941 C942 1.349 . S
C941 C943 1.327 . S
C941 H964 0.950 . S
C942 C941 1.349 . S
C942 C954 1.349 . S
C943 C941 1.327 . S
C943 C959 1.429 . S
C943 H965 0.950 . S
C944 H940 0.949 . S
C944 C952 1.574 . S
C944 C960 1.368 . S
H945 C953 0.950 . S
H946 C951 0.950 . S
H947 C952 0.949 . S
H948 C954 0.950 . S
H949 C955 0.950 . S
H950 C956 0.949 . S
C951 H946 0.950 . S
C951 C953 1.327 . S
C951 C957 1.429 . S
C952 C944 1.574 . S
C952 H947 0.949 . S
C952 C958 1.368 . S
C953 C937 1.349 . S
C953 H945 0.950 . S
C953 C951 1.327 . S
C954 C942 1.349 . S
C954 H948 0.950 . S
C954 C955 1.327 . S
C955 H949 0.950 . S
C955 C954 1.327 . S
C955 C959 1.429 . S
C956 C939 1.574 . S
C956 H950 0.949 . S
C956 C960 1.368 . S
C957 C938 1.429 . S
C957 C951 1.429 . S
C957 C958 1.523 . S
C958 C939 1.368 . S
C958 C952 1.368 . S
C958 C957 1.523 . S
C959 C943 1.429 . S
C959 C955 1.429 . S
C959 C960 1.523 . S
C960 C944 1.368 . S
C960 C956 1.368 . S
C960 C959 1.523 . S
H961 C936 0.950 . S
H962 C938 0.950 . S
H963 C939 0.949 . S
H964 C941 0.950 . S
H965 C943 0.950 . S
C966 C967 1.349 . S
C966 C968 1.327 . S
C966 H991 0.950 . S
C967 C966 1.349 . S
C967 C983 1.349 . S
C968 C966 1.327 . S
C968 C987 1.429 . S
C968 H992 0.950 . S
C969 C986 1.574 . S
C969 C988 1.368 . S
C969 H993 0.949 . S
H970 C974 0.949 . S
C971 C972 1.349 . S
C971 C973 1.327 . S
C971 H994 0.950 . S
C972 C971 1.349 . S
C972 C984 1.349 . S
C973 C971 1.327 . S
C973 C989 1.429 . S
C973 H995 0.950 . S
C974 H970 0.949 . S
C974 C982 1.574 . S
C974 C990 1.368 . S
H975 C983 0.950 . S
H976 C981 0.950 . S
H977 C982 0.949 . S
H978 C984 0.950 . S
H979 C985 0.950 . S
H980 C986 0.949 . S
C981 H976 0.950 . S
C981 C983 1.327 . S
C981 C987 1.429 . S
C982 C974 1.574 . S
C982 H977 0.949 . S
C982 C988 1.368 . S
C983 C967 1.349 . S
C983 H975 0.950 . S
C983 C981 1.327 . S
C984 C972 1.349 . S
C984 H978 0.950 . S
C984 C985 1.327 . S
C985 H979 0.950 . S
C985 C984 1.327 . S
C985 C989 1.429 . S
C986 C969 1.574 . S
C986 H980 0.949 . S
C986 C990 1.368 . S
C987 C968 1.429 . S
C987 C981 1.429 . S
C987 C988 1.523 . S
C988 C969 1.368 . S
C988 C982 1.368 . S
C988 C987 1.523 . S
C989 C973 1.429 . S
C989 C985 1.429 . S
C989 C990 1.523 . S
C990 C974 1.368 . S
C990 C986 1.368 . S
C990 C989 1.523 . S
H991 C966 0.950 . S
H992 C968 0.950 . S
H993 C969 0.949 . S
H994 C971 0.950 . S
H995 C973 0.950 . S
C996 C997 1.349 . S
C996 C998 1.327 . S
C996 H1021 0.950 . S
C997 C996 1.349 . S
C997 C1013 1.349 . S
C998 C996 1.327 . S
C998 C1017 1.429 . S
C998 H1022 0.950 . S
C999 C1016 1.574 . S
C999 C1018 1.368 . S
C999 H1023 0.949 . S
H1000 C1004 0.949 . S
C1001 C1002 1.349 . S
C1001 C1003 1.327 . S
C1001 H1024 0.950 . S
C1002 C1001 1.349 . S
C1002 C1014 1.349 . S
C1003 C1001 1.327 . S
C1003 C1019 1.429 . S
C1003 H1025 0.950 . S
C1004 H1000 0.949 . S
C1004 C1012 1.574 . S
C1004 C1020 1.368 . S
H1005 C1013 0.950 . S
H1006 C1011 0.950 . S
H1007 C1012 0.949 . S
H1008 C1014 0.950 . S
H1009 C1015 0.950 . S
H1010 C1016 0.949 . S
C1011 H1006 0.950 . S
C1011 C1013 1.327 . S
C1011 C1017 1.429 . S
C1012 C1004 1.574 . S
C1012 H1007 0.949 . S
C1012 C1018 1.368 . S
C1013 C997 1.349 . S
C1013 H1005 0.950 . S
C1013 C1011 1.327 . S
C1014 C1002 1.349 . S
C1014 H1008 0.950 . S
C1014 C1015 1.327 . S
C1015 H1009 0.950 . S
C1015 C1014 1.327 . S
C1015 C1019 1.429 . S
C1016 C999 1.574 . S
C1016 H1010 0.949 . S
C1016 C1020 1.368 . S
C1017 C998 1.429 . S
C1017 C1011 1.429 . S
C1017 C1018 1.523 . S
C1018 C999 1.368 . S
C1018 C1012 1.368 . S
C1018 C1017 1.523 . S
C1019 C1003 1.429 . S
C1019 C1015 1.429 . S
C1019 C1020 1.523 . S
C1020 C1004 1.368 . S
C1020 C1016 1.368 . S
C1020 C1019 1.523 . S
H1021 C996 0.950 . S
H1022 C998 0.950 . S
H1023 C999 0.949 . S
H1024 C1001 0.950 . S
H1025 C1003 0.950 . S
C1026 C1027 1.349 . S
C1026 C1028 1.327 . S
C1026 H1051 0.950 . S
C1027 C1026 1.349 . S
C1027 C1043 1.349 . S
C1028 C1026 1.327 . S
C1028 C1047 1.429 . S
C1028 H1052 0.950 . S
C1029 C1046 1.574 . S
C1029 C1048 1.368 . S
C1029 H1053 0.949 . S
H1030 C1034 0.949 . S
C1031 C1032 1.349 . S
C1031 C1033 1.327 . S
C1031 H1054 0.950 . S
C1032 C1031 1.349 . S
C1032 C1044 1.349 . S
C1033 C1031 1.327 . S
C1033 C1049 1.429 . S
C1033 H1055 0.950 . S
C1034 H1030 0.949 . S
C1034 C1042 1.574 . S
C1034 C1050 1.368 . S
H1035 C1043 0.950 . S
H1036 C1041 0.950 . S
H1037 C1042 0.949 . S
H1038 C1044 0.950 . S
H1039 C1045 0.950 . S
H1040 C1046 0.949 . S
C1041 H1036 0.950 . S
C1041 C1043 1.327 . S
C1041 C1047 1.429 . S
C1042 C1034 1.574 . S
C1042 H1037 0.949 . S
C1042 C1048 1.368 . S
C1043 C1027 1.349 . S
C1043 H1035 0.950 . S
C1043 C1041 1.327 . S
C1044 C1032 1.349 . S
C1044 H1038 0.950 . S
C1044 C1045 1.327 . S
C1045 H1039 0.950 . S
C1045 C1044 1.327 . S
C1045 C1049 1.429 . S
C1046 C1029 1.574 . S
C1046 H1040 0.949 . S
C1046 C1050 1.368 . S
C1047 C1028 1.429 . S
C1047 C1041 1.429 . S
C1047 C1048 1.523 . S
C1048 C1029 1.368 . S
C1048 C1042 1.368 . S
C1048 C1047 1.523 . S
C1049 C1033 1.429 . S
C1049 C1045 1.429 . S
C1049 C1050 1.523 . S
C1050 C1034 1.368 . S
C1050 C1046 1.368 . S
C1050 C1049 1.523 . S
H1051 C1026 0.950 . S
H1052 C1028 0.950 . S
H1053 C1029 0.949 . S
H1054 C1031 0.950 . S
H1055 C1033 0.950 . S
C1056 C1057 1.349 . S
C1056 C1058 1.327 . S
C1056 H1081 0.950 . S
C1057 C1056 1.349 . S
C1057 C1073 1.349 . S
C1058 C1056 1.327 . S
C1058 C1077 1.429 . S
C1058 H1082 0.950 . S
C1059 C1076 1.574 1_455 S
C1059 C1078 1.368 . S
C1059 H1083 0.949 . S
H1060 C1064 0.949 . S
C1061 C1062 1.349 . S
C1061 C1063 1.327 . S
C1061 H1084 0.950 . S
C1062 C1061 1.349 . S
C1062 C1074 1.349 . S
C1063 C1061 1.327 . S
C1063 C1079 1.429 . S
C1063 H1085 0.950 . S
C1064 H1060 0.949 . S
C1064 C1072 1.574 1_655 S
C1064 C1080 1.368 . S
H1065 C1073 0.950 . S
H1066 C1071 0.950 . S
H1067 C1072 0.949 . S
H1068 C1074 0.950 . S
H1069 C1075 0.950 . S
H1070 C1076 0.949 . S
C1071 H1066 0.950 . S
C1071 C1073 1.327 . S
C1071 C1077 1.429 . S
C1072 C1064 1.574 1_455 S
C1072 H1067 0.949 . S
C1072 C1078 1.368 . S
C1073 C1057 1.349 . S
C1073 H1065 0.950 . S
C1073 C1071 1.327 . S
C1074 C1062 1.349 . S
C1074 H1068 0.950 . S
C1074 C1075 1.327 . S
C1075 H1069 0.950 . S
C1075 C1074 1.327 . S
C1075 C1079 1.429 . S
C1076 C1059 1.574 1_655 S
C1076 H1070 0.949 . S
C1076 C1080 1.368 . S
C1077 C1058 1.429 . S
C1077 C1071 1.429 . S
C1077 C1078 1.523 . S
C1078 C1059 1.368 . S
C1078 C1072 1.368 . S
C1078 C1077 1.523 . S
C1079 C1063 1.429 . S
C1079 C1075 1.429 . S
C1079 C1080 1.523 . S
C1080 C1064 1.368 . S
C1080 C1076 1.368 . S
C1080 C1079 1.523 . S
H1081 C1056 0.950 . S
H1082 C1058 0.950 . S
H1083 C1059 0.949 . S
H1084 C1061 0.950 . S
H1085 C1063 0.950 . S
C1086 C1087 1.349 . S
C1086 C1088 1.327 . S
C1086 H1111 0.950 . S
C1087 C1086 1.349 . S
C1087 C1103 1.349 . S
C1088 C1086 1.327 . S
C1088 C1107 1.429 . S
C1088 H1112 0.950 . S
C1089 C1106 1.574 1_545 S
C1089 C1108 1.368 . S
C1089 H1113 0.949 . S
H1090 C1094 0.949 . S
C1091 C1092 1.349 . S
C1091 C1093 1.327 . S
C1091 H1114 0.950 . S
C1092 C1091 1.349 . S
C1092 C1104 1.349 . S
C1093 C1091 1.327 . S
C1093 C1109 1.429 . S
C1093 H1115 0.950 . S
C1094 H1090 0.949 . S
C1094 C1102 1.574 1_565 S
C1094 C1110 1.368 . S
H1095 C1103 0.950 . S
H1096 C1101 0.950 . S
H1097 C1102 0.949 . S
H1098 C1104 0.950 . S
H1099 C1105 0.950 . S
H1100 C1106 0.949 . S
C1101 H1096 0.950 . S
C1101 C1103 1.327 . S
C1101 C1107 1.429 . S
C1102 C1094 1.574 1_545 S
C1102 H1097 0.949 . S
C1102 C1108 1.368 . S
C1103 C1087 1.349 . S
C1103 H1095 0.950 . S
C1103 C1101 1.327 . S
C1104 C1092 1.349 . S
C1104 H1098 0.950 . S
C1104 C1105 1.327 . S
C1105 H1099 0.950 . S
C1105 C1104 1.327 . S
C1105 C1109 1.429 . S
C1106 C1089 1.574 1_565 S
C1106 H1100 0.949 . S
C1106 C1110 1.368 . S
C1107 C1088 1.429 . S
C1107 C1101 1.429 . S
C1107 C1108 1.523 . S
C1108 C1089 1.368 . S
C1108 C1102 1.368 . S
C1108 C1107 1.523 . S
C1109 C1093 1.429 . S
C1109 C1105 1.429 . S
C1109 C1110 1.523 . S
C1110 C1094 1.368 . S
C1110 C1106 1.368 . S
C1110 C1109 1.523 . S
H1111 C1086 0.950 . S
H1112 C1088 0.950 . S
H1113 C1089 0.949 . S
H1114 C1091 0.950 . S
H1115 C1093 0.950 . S
C1116 C1117 1.349 . S
C1116 C1118 1.327 . S
C1116 H1141 0.950 . S
C1117 C1116 1.349 . S
C1117 C1133 1.349 . S
C1118 C1116 1.327 . S
C1118 C1137 1.429 . S
C1118 H1142 0.950 . S
C1119 C1136 1.574 1_655 S
C1119 C1138 1.368 . S
C1119 H1143 0.949 . S
H1120 C1124 0.949 . S
C1121 C1122 1.349 . S
C1121 C1123 1.327 . S
C1121 H1144 0.950 . S
C1122 C1121 1.349 . S
C1122 C1134 1.349 . S
C1123 C1121 1.327 . S
C1123 C1139 1.429 . S
C1123 H1145 0.950 . S
C1124 H1120 0.949 . S
C1124 C1132 1.574 1_455 S
C1124 C1140 1.368 . S
H1125 C1133 0.950 . S
H1126 C1131 0.950 . S
H1127 C1132 0.949 . S
H1128 C1134 0.950 . S
H1129 C1135 0.950 . S
H1130 C1136 0.949 . S
C1131 H1126 0.950 . S
C1131 C1133 1.327 . S
C1131 C1137 1.429 . S
C1132 C1124 1.574 1_655 S
C1132 H1127 0.949 . S
C1132 C1138 1.368 . S
C1133 C1117 1.349 . S
C1133 H1125 0.950 . S
C1133 C1131 1.327 . S
C1134 C1122 1.349 . S
C1134 H1128 0.950 . S
C1134 C1135 1.327 . S
C1135 H1129 0.950 . S
C1135 C1134 1.327 . S
C1135 C1139 1.429 . S
C1136 C1119 1.574 1_455 S
C1136 H1130 0.949 . S
C1136 C1140 1.368 . S
C1137 C1118 1.429 . S
C1137 C1131 1.429 . S
C1137 C1138 1.523 . S
C1138 C1119 1.368 . S
C1138 C1132 1.368 . S
C1138 C1137 1.523 . S
C1139 C1123 1.429 . S
C1139 C1135 1.429 . S
C1139 C1140 1.523 . S
C1140 C1124 1.368 . S
C1140 C1136 1.368 . S
C1140 C1139 1.523 . S
H1141 C1116 0.950 . S
H1142 C1118 0.950 . S
H1143 C1119 0.949 . S
H1144 C1121 0.950 . S
H1145 C1123 0.950 . S
C1146 C1147 1.349 . S
C1146 C1148 1.327 . S
C1146 H1171 0.950 . S
C1147 C1146 1.349 . S
C1147 C1163 1.349 . S
C1148 C1146 1.327 . S
C1148 C1167 1.429 . S
C1148 H1172 0.950 . S
C1149 C1166 1.574 1_545 S
C1149 C1168 1.368 . S
C1149 H1173 0.949 . S
H1150 C1154 0.949 . S
C1151 C1152 1.349 . S
C1151 C1153 1.327 . S
C1151 H1174 0.950 . S
C1152 C1151 1.349 . S
C1152 C1164 1.349 . S
C1153 C1151 1.327 . S
C1153 C1169 1.429 . S
C1153 H1175 0.950 . S
C1154 H1150 0.949 . S
C1154 C1162 1.574 1_565 S
C1154 C1170 1.368 . S
H1155 C1163 0.950 . S
H1156 C1161 0.950 . S
H1157 C1162 0.949 . S
H1158 C1164 0.950 . S
H1159 C1165 0.950 . S
H1160 C1166 0.949 . S
C1161 H1156 0.950 . S
C1161 C1163 1.327 . S
C1161 C1167 1.429 . S
C1162 C1154 1.574 1_545 S
C1162 H1157 0.949 . S
C1162 C1168 1.368 . S
C1163 C1147 1.349 . S
C1163 H1155 0.950 . S
C1163 C1161 1.327 . S
C1164 C1152 1.349 . S
C1164 H1158 0.950 . S
C1164 C1165 1.327 . S
C1165 H1159 0.950 . S
C1165 C1164 1.327 . S
C1165 C1169 1.429 . S
C1166 C1149 1.574 1_565 S
C1166 H1160 0.949 . S
C1166 C1170 1.368 . S
C1167 C1148 1.429 . S
C1167 C1161 1.429 . S
C1167 C1168 1.523 . S
C1168 C1149 1.368 . S
C1168 C1162 1.368 . S
C1168 C1167 1.523 . S
C1169 C1153 1.429 . S
C1169 C1165 1.429 . S
C1169 C1170 1.523 . S
C1170 C1154 1.368 . S
C1170 C1166 1.368 . S
C1170 C1169 1.523 . S
H1171 C1146 0.950 . S
H1172 C1148 0.950 . S
H1173 C1149 0.949 . S
H1174 C1151 0.950 . S
H1175 C1153 0.950 . S
C1176 C1177 1.349 . S
C1176 C1178 1.327 . S
C1176 H1201 0.950 . S
C1177 C1176 1.349 . S
C1177 C1193 1.349 . S
C1178 C1176 1.327 . S
C1178 C1197 1.429 . S
C1178 H1202 0.950 . S
C1179 C1196 1.574 1_565 S
C1179 C1198 1.368 . S
C1179 H1203 0.949 . S
H1180 C1184 0.949 . S
C1181 C1182 1.349 . S
C1181 C1183 1.327 . S
C1181 H1204 0.950 . S
C1182 C1181 1.349 . S
C1182 C1194 1.349 . S
C1183 C1181 1.327 . S
C1183 C1199 1.429 . S
C1183 H1205 0.950 . S
C1184 H1180 0.949 . S
C1184 C1192 1.574 1_545 S
C1184 C1200 1.368 . S
H1185 C1193 0.950 . S
H1186 C1191 0.950 . S
H1187 C1192 0.949 . S
H1188 C1194 0.950 . S
H1189 C1195 0.950 . S
H1190 C1196 0.949 . S
C1191 H1186 0.950 . S
C1191 C1193 1.327 . S
C1191 C1197 1.429 . S
C1192 C1184 1.574 1_565 S
C1192 H1187 0.949 . S
C1192 C1198 1.368 . S
C1193 C1177 1.349 . S
C1193 H1185 0.950 . S
C1193 C1191 1.327 . S
C1194 C1182 1.349 . S
C1194 H1188 0.950 . S
C1194 C1195 1.327 . S
C1195 H1189 0.950 . S
C1195 C1194 1.327 . S
C1195 C1199 1.429 . S
C1196 C1179 1.574 1_545 S
C1196 H1190 0.949 . S
C1196 C1200 1.368 . S
C1197 C1178 1.429 . S
C1197 C1191 1.429 . S
C1197 C1198 1.523 . S
C1198 C1179 1.368 . S
C1198 C1192 1.368 . S
C1198 C1197 1.523 . S
C1199 C1183 1.429 . S
C1199 C1195 1.429 . S
C1199 C1200 1.523 . S
C1200 C1184 1.368 . S
C1200 C1196 1.368 . S
C1200 C1199 1.523 . S
H1201 C1176 0.950 . S
H1202 C1178 0.950 . S
H1203 C1179 0.949 . S
H1204 C1181 0.950 . S
H1205 C1183 0.950 . S
C1206 C1207 1.349 . S
C1206 C1208 1.327 . S
C1206 H1231 0.950 . S
C1207 C1206 1.349 . S
C1207 C1223 1.349 . S
C1208 C1206 1.327 . S
C1208 C1227 1.429 . S
C1208 H1232 0.950 . S
C1209 C1226 1.574 1_655 S
C1209 C1228 1.368 . S
C1209 H1233 0.949 . S
H1210 C1214 0.949 . S
C1211 C1212 1.349 . S
C1211 C1213 1.327 . S
C1211 H1234 0.950 . S
C1212 C1211 1.349 . S
C1212 C1224 1.349 . S
C1213 C1211 1.327 . S
C1213 C1229 1.429 . S
C1213 H1235 0.950 . S
C1214 H1210 0.949 . S
C1214 C1222 1.574 1_455 S
C1214 C1230 1.368 . S
H1215 C1223 0.950 . S
H1216 C1221 0.950 . S
H1217 C1222 0.949 . S
H1218 C1224 0.950 . S
H1219 C1225 0.950 . S
H1220 C1226 0.949 . S
C1221 H1216 0.950 . S
C1221 C1223 1.327 . S
C1221 C1227 1.429 . S
C1222 C1214 1.574 1_655 S
C1222 H1217 0.949 . S
C1222 C1228 1.368 . S
C1223 C1207 1.349 . S
C1223 H1215 0.950 . S
C1223 C1221 1.327 . S
C1224 C1212 1.349 . S
C1224 H1218 0.950 . S
C1224 C1225 1.327 . S
C1225 H1219 0.950 . S
C1225 C1224 1.327 . S
C1225 C1229 1.429 . S
C1226 C1209 1.574 1_455 S
C1226 H1220 0.949 . S
C1226 C1230 1.368 . S
C1227 C1208 1.429 . S
C1227 C1221 1.429 . S
C1227 C1228 1.523 . S
C1228 C1209 1.368 . S
C1228 C1222 1.368 . S
C1228 C1227 1.523 . S
C1229 C1213 1.429 . S
C1229 C1225 1.429 . S
C1229 C1230 1.523 . S
C1230 C1214 1.368 . S
C1230 C1226 1.368 . S
C1230 C1229 1.523 . S
H1231 C1206 0.950 . S
H1232 C1208 0.950 . S
H1233 C1209 0.949 . S
H1234 C1211 0.950 . S
H1235 C1213 0.950 . S
C1236 C1237 1.349 . S
C1236 C1238 1.327 . S
C1236 H1261 0.950 . S
C1237 C1236 1.349 . S
C1237 C1253 1.349 . S
C1238 C1236 1.327 . S
C1238 C1257 1.429 . S
C1238 H1262 0.950 . S
C1239 C1256 1.574 1_565 S
C1239 C1258 1.368 . S
C1239 H1263 0.949 . S
H1240 C1244 0.949 . S
C1241 C1242 1.349 . S
C1241 C1243 1.327 . S
C1241 H1264 0.950 . S
C1242 C1241 1.349 . S
C1242 C1254 1.349 . S
C1243 C1241 1.327 . S
C1243 C1259 1.429 . S
C1243 H1265 0.950 . S
C1244 H1240 0.949 . S
C1244 C1252 1.574 1_545 S
C1244 C1260 1.368 . S
H1245 C1253 0.950 . S
H1246 C1251 0.950 . S
H1247 C1252 0.949 . S
H1248 C1254 0.950 . S
H1249 C1255 0.950 . S
H1250 C1256 0.949 . S
C1251 H1246 0.950 . S
C1251 C1253 1.327 . S
C1251 C1257 1.429 . S
C1252 C1244 1.574 1_565 S
C1252 H1247 0.949 . S
C1252 C1258 1.368 . S
C1253 C1237 1.349 . S
C1253 H1245 0.950 . S
C1253 C1251 1.327 . S
C1254 C1242 1.349 . S
C1254 H1248 0.950 . S
C1254 C1255 1.327 . S
C1255 H1249 0.950 . S
C1255 C1254 1.327 . S
C1255 C1259 1.429 . S
C1256 C1239 1.574 1_545 S
C1256 H1250 0.949 . S
C1256 C1260 1.368 . S
C1257 C1238 1.429 . S
C1257 C1251 1.429 . S
C1257 C1258 1.523 . S
C1258 C1239 1.368 . S
C1258 C1252 1.368 . S
C1258 C1257 1.523 . S
C1259 C1243 1.429 . S
C1259 C1255 1.429 . S
C1259 C1260 1.523 . S
C1260 C1244 1.368 . S
C1260 C1256 1.368 . S
C1260 C1259 1.523 . S
H1261 C1236 0.950 . S
H1262 C1238 0.950 . S
H1263 C1239 0.949 . S
H1264 C1241 0.950 . S
H1265 C1243 0.950 . S
C1266 C1267 1.349 . S
C1266 C1268 1.327 . S
C1266 H1291 0.950 . S
C1267 C1266 1.349 . S
C1267 C1283 1.349 . S
C1268 C1266 1.327 . S
C1268 C1287 1.429 . S
C1268 H1292 0.950 . S
C1269 C1286 1.574 1_655 S
C1269 C1288 1.368 . S
C1269 H1293 0.949 . S
H1270 C1274 0.949 . S
C1271 C1272 1.349 . S
C1271 C1273 1.327 . S
C1271 H1294 0.950 . S
C1272 C1271 1.349 . S
C1272 C1284 1.349 . S
C1273 C1271 1.327 . S
C1273 C1289 1.429 . S
C1273 H1295 0.950 . S
C1274 H1270 0.949 . S
C1274 C1282 1.574 1_455 S
C1274 C1290 1.368 . S
H1275 C1283 0.950 . S
H1276 C1281 0.950 . S
H1277 C1282 0.949 . S
H1278 C1284 0.950 . S
H1279 C1285 0.950 . S
H1280 C1286 0.949 . S
C1281 H1276 0.950 . S
C1281 C1283 1.327 . S
C1281 C1287 1.429 . S
C1282 C1274 1.574 1_655 S
C1282 H1277 0.949 . S
C1282 C1288 1.368 . S
C1283 C1267 1.349 . S
C1283 H1275 0.950 . S
C1283 C1281 1.327 . S
C1284 C1272 1.349 . S
C1284 H1278 0.950 . S
C1284 C1285 1.327 . S
C1285 H1279 0.950 . S
C1285 C1284 1.327 . S
C1285 C1289 1.429 . S
C1286 C1269 1.574 1_455 S
C1286 H1280 0.949 . S
C1286 C1290 1.368 . S
C1287 C1268 1.429 . S
C1287 C1281 1.429 . S
C1287 C1288 1.523 . S
C1288 C1269 1.368 . S
C1288 C1282 1.368 . S
C1288 C1287 1.523 . S
C1289 C1273 1.429 . S
C1289 C1285 1.429 . S
C1289 C1290 1.523 . S
C1290 C1274 1.368 . S
C1290 C1286 1.368 . S
C1290 C1289 1.523 . S
H1291 C1266 0.950 . S
H1292 C1268 0.950 . S
H1293 C1269 0.949 . S
H1294 C1271 0.950 . S
H1295 C1273 0.950 . S
C1296 C1297 1.349 . S
C1296 C1298 1.327 . S
C1296 H1321 0.950 . S
C1297 C1296 1.349 . S
C1297 C1313 1.349 . S
C1298 C1296 1.327 . S
C1298 C1317 1.429 . S
C1298 H1322 0.950 . S
C1299 C1316 1.574 1_556 S
C1299 C1318 1.368 . S
C1299 H1323 0.949 . S
H1300 C1304 0.949 . S
C1301 C1302 1.349 . S
C1301 C1303 1.327 . S
C1301 H1324 0.950 . S
C1302 C1301 1.349 . S
C1302 C1314 1.349 . S
C1303 C1301 1.327 . S
C1303 C1319 1.429 . S
C1303 H1325 0.950 . S
C1304 H1300 0.949 . S
C1304 C1312 1.574 1_554 S
C1304 C1320 1.368 . S
H1305 C1313 0.950 . S
H1306 C1311 0.950 . S
H1307 C1312 0.949 . S
H1308 C1314 0.950 . S
H1309 C1315 0.950 . S
H1310 C1316 0.949 . S
C1311 H1306 0.950 . S
C1311 C1313 1.327 . S
C1311 C1317 1.429 . S
C1312 C1304 1.574 1_556 S
C1312 H1307 0.949 . S
C1312 C1318 1.368 . S
C1313 C1297 1.349 . S
C1313 H1305 0.950 . S
C1313 C1311 1.327 . S
C1314 C1302 1.349 . S
C1314 H1308 0.950 . S
C1314 C1315 1.327 . S
C1315 H1309 0.950 . S
C1315 C1314 1.327 . S
C1315 C1319 1.429 . S
C1316 C1299 1.574 1_554 S
C1316 H1310 0.949 . S
C1316 C1320 1.368 . S
C1317 C1298 1.429 . S
C1317 C1311 1.429 . S
C1317 C1318 1.523 . S
C1318 C1299 1.368 . S
C1318 C1312 1.368 . S
C1318 C1317 1.523 . S
C1319 C1303 1.429 . S
C1319 C1315 1.429 . S
C1319 C1320 1.523 . S
C1320 C1304 1.368 . S
C1320 C1316 1.368 . S
C1320 C1319 1.523 . S
H1321 C1296 0.950 . S
H1322 C1298 0.950 . S
H1323 C1299 0.949 . S
H1324 C1301 0.950 . S
H1325 C1303 0.950 . S
C1326 C1327 1.349 . S
C1326 C1328 1.327 . S
C1326 H1351 0.950 . S
C1327 C1326 1.349 . S
C1327 C1343 1.349 . S
C1328 C1326 1.327 . S
C1328 C1347 1.429 . S
C1328 H1352 0.950 . S
C1329 C1346 1.574 1_556 S
C1329 C1348 1.368 . S
C1329 H1353 0.949 . S
H1330 C1334 0.949 . S
C1331 C1332 1.349 . S
C1331 C1333 1.327 . S
C1331 H1354 0.950 . S
C1332 C1331 1.349 . S
C1332 C1344 1.349 . S
C1333 C1331 1.327 . S
C1333 C1349 1.429 . S
C1333 H1355 0.950 . S
C1334 H1330 0.949 . S
C1334 C1342 1.574 1_554 S
C1334 C1350 1.368 . S
H1335 C1343 0.950 . S
H1336 C1341 0.950 . S
H1337 C1342 0.949 . S
H1338 C1344 0.950 . S
H1339 C1345 0.950 . S
H1340 C1346 0.949 . S
C1341 H1336 0.950 . S
C1341 C1343 1.327 . S
C1341 C1347 1.429 . S
C1342 C1334 1.574 1_556 S
C1342 H1337 0.949 . S
C1342 C1348 1.368 . S
C1343 C1327 1.349 . S
C1343 H1335 0.950 . S
C1343 C1341 1.327 . S
C1344 C1332 1.349 . S
C1344 H1338 0.950 . S
C1344 C1345 1.327 . S
C1345 H1339 0.950 . S
C1345 C1344 1.327 . S
C1345 C1349 1.429 . S
C1346 C1329 1.574 1_554 S
C1346 H1340 0.949 . S
C1346 C1350 1.368 . S
C1347 C1328 1.429 . S
C1347 C1341 1.429 . S
C1347 C1348 1.523 . S
C1348 C1329 1.368 . S
C1348 C1342 1.368 . S
C1348 C1347 1.523 . S
C1349 C1333 1.429 . S
C1349 C1345 1.429 . S
C1349 C1350 1.523 . S
C1350 C1334 1.368 . S
C1350 C1346 1.368 . S
C1350 C1349 1.523 . S
H1351 C1326 0.950 . S
H1352 C1328 0.950 . S
H1353 C1329 0.949 . S
H1354 C1331 0.950 . S
H1355 C1333 0.950 . S
C1356 C1357 1.349 . S
C1356 C1358 1.327 . S
C1356 H1381 0.950 . S
C1357 C1356 1.349 . S
C1357 C1373 1.349 . S
C1358 C1356 1.327 . S
C1358 C1377 1.429 . S
C1358 H1382 0.950 . S
C1359 C1376 1.574 1_556 S
C1359 C1378 1.368 . S
C1359 H1383 0.949 . S
H1360 C1364 0.949 . S
C1361 C1362 1.349 . S
C1361 C1363 1.327 . S
C1361 H1384 0.950 . S
C1362 C1361 1.349 . S
C1362 C1374 1.349 . S
C1363 C1361 1.327 . S
C1363 C1379 1.429 . S
C1363 H1385 0.950 . S
C1364 H1360 0.949 . S
C1364 C1372 1.574 1_554 S
C1364 C1380 1.368 . S
H1365 C1373 0.950 . S
H1366 C1371 0.950 . S
H1367 C1372 0.949 . S
H1368 C1374 0.950 . S
H1369 C1375 0.950 . S
H1370 C1376 0.949 . S
C1371 H1366 0.950 . S
C1371 C1373 1.327 . S
C1371 C1377 1.429 . S
C1372 C1364 1.574 1_556 S
C1372 H1367 0.949 . S
C1372 C1378 1.368 . S
C1373 C1357 1.349 . S
C1373 H1365 0.950 . S
C1373 C1371 1.327 . S
C1374 C1362 1.349 . S
C1374 H1368 0.950 . S
C1374 C1375 1.327 . S
C1375 H1369 0.950 . S
C1375 C1374 1.327 . S
C1375 C1379 1.429 . S
C1376 C1359 1.574 1_554 S
C1376 H1370 0.949 . S
C1376 C1380 1.368 . S
C1377 C1358 1.429 . S
C1377 C1371 1.429 . S
C1377 C1378 1.523 . S
C1378 C1359 1.368 . S
C1378 C1372 1.368 . S
C1378 C1377 1.523 . S
C1379 C1363 1.429 . S
C1379 C1375 1.429 . S
C1379 C1380 1.523 . S
C1380 C1364 1.368 . S
C1380 C1376 1.368 . S
C1380 C1379 1.523 . S
H1381 C1356 0.950 . S
H1382 C1358 0.950 . S
H1383 C1359 0.949 . S
H1384 C1361 0.950 . S
H1385 C1363 0.950 . S
C1386 C1387 1.349 . S
C1386 C1388 1.327 . S
C1386 H1411 0.950 . S
C1387 C1386 1.349 . S
C1387 C1403 1.349 . S
C1388 C1386 1.327 . S
C1388 C1407 1.429 . S
C1388 H1412 0.950 . S
C1389 C1406 1.574 1_556 S
C1389 C1408 1.368 . S
C1389 H1413 0.949 . S
H1390 C1394 0.949 . S
C1391 C1392 1.349 . S
C1391 C1393 1.327 . S
C1391 H1414 0.950 . S
C1392 C1391 1.349 . S
C1392 C1404 1.349 . S
C1393 C1391 1.327 . S
C1393 C1409 1.429 . S
C1393 H1415 0.950 . S
C1394 H1390 0.949 . S
C1394 C1402 1.574 1_554 S
C1394 C1410 1.368 . S
H1395 C1403 0.950 . S
H1396 C1401 0.950 . S
H1397 C1402 0.949 . S
H1398 C1404 0.950 . S
H1399 C1405 0.950 . S
H1400 C1406 0.949 . S
C1401 H1396 0.950 . S
C1401 C1403 1.327 . S
C1401 C1407 1.429 . S
C1402 C1394 1.574 1_556 S
C1402 H1397 0.949 . S
C1402 C1408 1.368 . S
C1403 C1387 1.349 . S
C1403 H1395 0.950 . S
C1403 C1401 1.327 . S
C1404 C1392 1.349 . S
C1404 H1398 0.950 . S
C1404 C1405 1.327 . S
C1405 H1399 0.950 . S
C1405 C1404 1.327 . S
C1405 C1409 1.429 . S
C1406 C1389 1.574 1_554 S
C1406 H1400 0.949 . S
C1406 C1410 1.368 . S
C1407 C1388 1.429 . S
C1407 C1401 1.429 . S
C1407 C1408 1.523 . S
C1408 C1389 1.368 . S
C1408 C1402 1.368 . S
C1408 C1407 1.523 . S
C1409 C1393 1.429 . S
C1409 C1405 1.429 . S
C1409 C1410 1.523 . S
C1410 C1394 1.368 . S
C1410 C1406 1.368 . S
C1410 C1409 1.523 . S
H1411 C1386 0.950 . S
H1412 C1388 0.950 . S
H1413 C1389 0.949 . S
H1414 C1391 0.950 . S
H1415 C1393 0.950 . S
C1416 C1417 1.349 . S
C1416 C1418 1.327 . S
C1416 H1441 0.950 . S
C1417 C1416 1.349 . S
C1417 C1433 1.349 . S
C1418 C1416 1.327 . S
C1418 C1437 1.429 . S
C1418 H1442 0.950 . S
C1419 C1436 1.574 . S
C1419 C1438 1.368 . S
C1419 H1443 0.949 . S
H1420 C1424 0.949 . S
C1421 C1422 1.349 . S
C1421 C1423 1.327 . S
C1421 H1444 0.950 . S
C1422 C1421 1.349 . S
C1422 C1434 1.349 . S
C1423 C1421 1.327 . S
C1423 C1439 1.429 . S
C1423 H1445 0.950 . S
C1424 H1420 0.949 . S
C1424 C1432 1.574 . S
C1424 C1440 1.368 . S
H1425 C1433 0.950 . S
H1426 C1431 0.950 . S
H1427 C1432 0.949 . S
H1428 C1434 0.950 . S
H1429 C1435 0.950 . S
H1430 C1436 0.949 . S
C1431 H1426 0.950 . S
C1431 C1433 1.327 . S
C1431 C1437 1.429 . S
C1432 C1424 1.574 . S
C1432 H1427 0.949 . S
C1432 C1438 1.368 . S
C1433 C1417 1.349 . S
C1433 H1425 0.950 . S
C1433 C1431 1.327 . S
C1434 C1422 1.349 . S
C1434 H1428 0.950 . S
C1434 C1435 1.327 . S
C1435 H1429 0.950 . S
C1435 C1434 1.327 . S
C1435 C1439 1.429 . S
C1436 C1419 1.574 . S
C1436 H1430 0.949 . S
C1436 C1440 1.368 . S
C1437 C1418 1.429 . S
C1437 C1431 1.429 . S
C1437 C1438 1.523 . S
C1438 C1419 1.368 . S
C1438 C1432 1.368 . S
C1438 C1437 1.523 . S
C1439 C1423 1.429 . S
C1439 C1435 1.429 . S
C1439 C1440 1.523 . S
C1440 C1424 1.368 . S
C1440 C1436 1.368 . S
C1440 C1439 1.523 . S
H1441 C1416 0.950 . S
H1442 C1418 0.950 . S
H1443 C1419 0.949 . S
H1444 C1421 0.950 . S
H1445 C1423 0.950 . S
C1446 C1447 1.349 . S
C1446 C1448 1.327 . S
C1446 H1471 0.950 . S
C1447 C1446 1.349 . S
C1447 C1463 1.349 . S
C1448 C1446 1.327 . S
C1448 C1467 1.429 . S
C1448 H1472 0.950 . S
C1449 C1466 1.574 . S
C1449 C1468 1.368 . S
C1449 H1473 0.949 . S
H1450 C1454 0.949 . S
C1451 C1452 1.349 . S
C1451 C1453 1.327 . S
C1451 H1474 0.950 . S
C1452 C1451 1.349 . S
C1452 C1464 1.349 . S
C1453 C1451 1.327 . S
C1453 C1469 1.429 . S
C1453 H1475 0.950 . S
C1454 H1450 0.949 . S
C1454 C1462 1.574 . S
C1454 C1470 1.368 . S
H1455 C1463 0.950 . S
H1456 C1461 0.950 . S
H1457 C1462 0.949 . S
H1458 C1464 0.950 . S
H1459 C1465 0.950 . S
H1460 C1466 0.949 . S
C1461 H1456 0.950 . S
C1461 C1463 1.327 . S
C1461 C1467 1.429 . S
C1462 C1454 1.574 . S
C1462 H1457 0.949 . S
C1462 C1468 1.368 . S
C1463 C1447 1.349 . S
C1463 H1455 0.950 . S
C1463 C1461 1.327 . S
C1464 C1452 1.349 . S
C1464 H1458 0.950 . S
C1464 C1465 1.327 . S
C1465 H1459 0.950 . S
C1465 C1464 1.327 . S
C1465 C1469 1.429 . S
C1466 C1449 1.574 . S
C1466 H1460 0.949 . S
C1466 C1470 1.368 . S
C1467 C1448 1.429 . S
C1467 C1461 1.429 . S
C1467 C1468 1.523 . S
C1468 C1449 1.368 . S
C1468 C1462 1.368 . S
C1468 C1467 1.523 . S
C1469 C1453 1.429 . S
C1469 C1465 1.429 . S
C1469 C1470 1.523 . S
C1470 C1454 1.368 . S
C1470 C1466 1.368 . S
C1470 C1469 1.523 . S
H1471 C1446 0.950 . S
H1472 C1448 0.950 . S
H1473 C1449 0.949 . S
H1474 C1451 0.950 . S
H1475 C1453 0.950 . S
C1476 C1477 1.349 . S
C1476 C1478 1.327 . S
C1476 H1501 0.950 . S
C1477 C1476 1.349 . S
C1477 C1493 1.349 . S
C1478 C1476 1.327 . S
C1478 C1497 1.429 . S
C1478 H1502 0.950 . S
C1479 C1496 1.574 . S
C1479 C1498 1.368 . S
C1479 H1503 0.949 . S
H1480 C1484 0.949 . S
C1481 C1482 1.349 . S
C1481 C1483 1.327 . S
C1481 H1504 0.950 . S
C1482 C1481 1.349 . S
C1482 C1494 1.349 . S
C1483 C1481 1.327 . S
C1483 C1499 1.429 . S
C1483 H1505 0.950 . S
C1484 H1480 0.949 . S
C1484 C1492 1.574 . S
C1484 C1500 1.368 . S
H1485 C1493 0.950 . S
H1486 C1491 0.950 . S
H1487 C1492 0.949 . S
H1488 C1494 0.950 . S
H1489 C1495 0.950 . S
H1490 C1496 0.949 . S
C1491 H1486 0.950 . S
C1491 C1493 1.327 . S
C1491 C1497 1.429 . S
C1492 C1484 1.574 . S
C1492 H1487 0.949 . S
C1492 C1498 1.368 . S
C1493 C1477 1.349 . S
C1493 H1485 0.950 . S
C1493 C1491 1.327 . S
C1494 C1482 1.349 . S
C1494 H1488 0.950 . S
C1494 C1495 1.327 . S
C1495 H1489 0.950 . S
C1495 C1494 1.327 . S
C1495 C1499 1.429 . S
C1496 C1479 1.574 . S
C1496 H1490 0.949 . S
C1496 C1500 1.368 . S
C1497 C1478 1.429 . S
C1497 C1491 1.429 . S
C1497 C1498 1.523 . S
C1498 C1479 1.368 . S
C1498 C1492 1.368 . S
C1498 C1497 1.523 . S
C1499 C1483 1.429 . S
C1499 C1495 1.429 . S
C1499 C1500 1.523 . S
C1500 C1484 1.368 . S
C1500 C1496 1.368 . S
C1500 C1499 1.523 . S
H1501 C1476 0.950 . S
H1502 C1478 0.950 . S
H1503 C1479 0.949 . S
H1504 C1481 0.950 . S
H1505 C1483 0.950 . S
C1506 C1507 1.349 . S
C1506 C1508 1.327 . S
C1506 H1531 0.950 . S
C1507 C1506 1.349 . S
C1507 C1523 1.349 . S
C1508 C1506 1.327 . S
C1508 C1527 1.429 . S
C1508 H1532 0.950 . S
C1509 C1526 1.574 . S
C1509 C1528 1.368 . S
C1509 H1533 0.949 . S
H1510 C1514 0.949 . S
C1511 C1512 1.349 . S
C1511 C1513 1.327 . S
C1511 H1534 0.950 . S
C1512 C1511 1.349 . S
C1512 C1524 1.349 . S
C1513 C1511 1.327 . S
C1513 C1529 1.429 . S
C1513 H1535 0.950 . S
C1514 H1510 0.949 . S
C1514 C1522 1.574 . S
C1514 C1530 1.368 . S
H1515 C1523 0.950 . S
H1516 C1521 0.950 . S
H1517 C1522 0.949 . S
H1518 C1524 0.950 . S
H1519 C1525 0.950 . S
H1520 C1526 0.949 . S
C1521 H1516 0.950 . S
C1521 C1523 1.327 . S
C1521 C1527 1.429 . S
C1522 C1514 1.574 . S
C1522 H1517 0.949 . S
C1522 C1528 1.368 . S
C1523 C1507 1.349 . S
C1523 H1515 0.950 . S
C1523 C1521 1.327 . S
C1524 C1512 1.349 . S
C1524 H1518 0.950 . S
C1524 C1525 1.327 . S
C1525 H1519 0.950 . S
C1525 C1524 1.327 . S
C1525 C1529 1.429 . S
C1526 C1509 1.574 . S
C1526 H1520 0.949 . S
C1526 C1530 1.368 . S
C1527 C1508 1.429 . S
C1527 C1521 1.429 . S
C1527 C1528 1.523 . S
C1528 C1509 1.368 . S
C1528 C1522 1.368 . S
C1528 C1527 1.523 . S
C1529 C1513 1.429 . S
C1529 C1525 1.429 . S
C1529 C1530 1.523 . S
C1530 C1514 1.368 . S
C1530 C1526 1.368 . S
C1530 C1529 1.523 . S
H1531 C1506 0.950 . S
H1532 C1508 0.950 . S
H1533 C1509 0.949 . S
H1534 C1511 0.950 . S
H1535 C1513 0.950 . S
C1536 C1537 1.349 . S
C1536 C1538 1.327 . S
C1536 H1561 0.950 . S
C1537 C1536 1.349 . S
C1537 C1553 1.349 . S
C1538 C1536 1.327 . S
C1538 C1557 1.429 . S
C1538 H1562 0.950 . S
C1539 C1556 1.574 . S
C1539 C1558 1.368 . S
C1539 H1563 0.949 . S
H1540 C1544 0.949 . S
C1541 C1542 1.349 . S
C1541 C1543 1.327 . S
C1541 H1564 0.950 . S
C1542 C1541 1.349 . S
C1542 C1554 1.349 . S
C1543 C1541 1.327 . S
C1543 C1559 1.429 . S
C1543 H1565 0.950 . S
C1544 H1540 0.949 . S
C1544 C1552 1.574 . S
C1544 C1560 1.368 . S
H1545 C1553 0.950 . S
H1546 C1551 0.950 . S
H1547 C1552 0.949 . S
H1548 C1554 0.950 . S
H1549 C1555 0.950 . S
H1550 C1556 0.949 . S
C1551 H1546 0.950 . S
C1551 C1553 1.327 . S
C1551 C1557 1.429 . S
C1552 C1544 1.574 . S
C1552 H1547 0.949 . S
C1552 C1558 1.368 . S
C1553 C1537 1.349 . S
C1553 H1545 0.950 . S
C1553 C1551 1.327 . S
C1554 C1542 1.349 . S
C1554 H1548 0.950 . S
C1554 C1555 1.327 . S
C1555 H1549 0.950 . S
C1555 C1554 1.327 . S
C1555 C1559 1.429 . S
C1556 C1539 1.574 . S
C1556 H1550 0.949 . S
C1556 C1560 1.368 . S
C1557 C1538 1.429 . S
C1557 C1551 1.429 . S
C1557 C1558 1.523 . S
C1558 C1539 1.368 . S
C1558 C1552 1.368 . S
C1558 C1557 1.523 . S
C1559 C1543 1.429 . S
C1559 C1555 1.429 . S
C1559 C1560 1.523 . S
C1560 C1544 1.368 . S
C1560 C1556 1.368 . S
C1560 C1559 1.523 . S
H1561 C1536 0.950 . S
H1562 C1538 0.950 . S
H1563 C1539 0.949 . S
H1564 C1541 0.950 . S
H1565 C1543 0.950 . S
C1566 C1567 1.349 . S
C1566 C1568 1.327 . S
C1566 H1591 0.950 . S
C1567 C1566 1.349 . S
C1567 C1583 1.349 . S
C1568 C1566 1.327 . S
C1568 C1587 1.429 . S
C1568 H1592 0.950 . S
C1569 C1586 1.574 . S
C1569 C1588 1.368 . S
C1569 H1593 0.949 . S
H1570 C1574 0.949 . S
C1571 C1572 1.349 . S
C1571 C1573 1.327 . S
C1571 H1594 0.950 . S
C1572 C1571 1.349 . S
C1572 C1584 1.349 . S
C1573 C1571 1.327 . S
C1573 C1589 1.429 . S
C1573 H1595 0.950 . S
C1574 H1570 0.949 . S
C1574 C1582 1.574 . S
C1574 C1590 1.368 . S
H1575 C1583 0.950 . S
H1576 C1581 0.950 . S
H1577 C1582 0.949 . S
H1578 C1584 0.950 . S
H1579 C1585 0.950 . S
H1580 C1586 0.949 . S
C1581 H1576 0.950 . S
C1581 C1583 1.327 . S
C1581 C1587 1.429 . S
C1582 C1574 1.574 . S
C1582 H1577 0.949 . S
C1582 C1588 1.368 . S
C1583 C1567 1.349 . S
C1583 H1575 0.950 . S
C1583 C1581 1.327 . S
C1584 C1572 1.349 . S
C1584 H1578 0.950 . S
C1584 C1585 1.327 . S
C1585 H1579 0.950 . S
C1585 C1584 1.327 . S
C1585 C1589 1.429 . S
C1586 C1569 1.574 . S
C1586 H1580 0.949 . S
C1586 C1590 1.368 . S
C1587 C1568 1.429 . S
C1587 C1581 1.429 . S
C1587 C1588 1.523 . S
C1588 C1569 1.368 . S
C1588 C1582 1.368 . S
C1588 C1587 1.523 . S
C1589 C1573 1.429 . S
C1589 C1585 1.429 . S
C1589 C1590 1.523 . S
C1590 C1574 1.368 . S
C1590 C1586 1.368 . S
C1590 C1589 1.523 . S
H1591 C1566 0.950 . S
H1592 C1568 0.950 . S
H1593 C1569 0.949 . S
H1594 C1571 0.950 . S
H1595 C1573 0.950 . S
C1596 C1597 1.349 . S
C1596 C1598 1.327 . S
C1596 H1621 0.950 . S
C1597 C1596 1.349 . S
C1597 C1613 1.349 . S
C1598 C1596 1.327 . S
C1598 C1617 1.429 . S
C1598 H1622 0.950 . S
C1599 C1616 1.574 . S
C1599 C1618 1.368 . S
C1599 H1623 0.949 . S
H1600 C1604 0.949 . S
C1601 C1602 1.349 . S
C1601 C1603 1.327 . S
C1601 H1624 0.950 . S
C1602 C1601 1.349 . S
C1602 C1614 1.349 . S
C1603 C1601 1.327 . S
C1603 C1619 1.429 . S
C1603 H1625 0.950 . S
C1604 H1600 0.949 . S
C1604 C1612 1.574 . S
C1604 C1620 1.368 . S
H1605 C1613 0.950 . S
H1606 C1611 0.950 . S
H1607 C1612 0.949 . S
H1608 C1614 0.950 . S
H1609 C1615 0.950 . S
H1610 C1616 0.949 . S
C1611 H1606 0.950 . S
C1611 C1613 1.327 . S
C1611 C1617 1.429 . S
C1612 C1604 1.574 . S
C1612 H1607 0.949 . S
C1612 C1618 1.368 . S
C1613 C1597 1.349 . S
C1613 H1605 0.950 . S
C1613 C1611 1.327 . S
C1614 C1602 1.349 . S
C1614 H1608 0.950 . S
C1614 C1615 1.327 . S
C1615 H1609 0.950 . S
C1615 C1614 1.327 . S
C1615 C1619 1.429 . S
C1616 C1599 1.574 . S
C1616 H1610 0.949 . S
C1616 C1620 1.368 . S
C1617 C1598 1.429 . S
C1617 C1611 1.429 . S
C1617 C1618 1.523 . S
C1618 C1599 1.368 . S
C1618 C1612 1.368 . S
C1618 C1617 1.523 . S
C1619 C1603 1.429 . S
C1619 C1615 1.429 . S
C1619 C1620 1.523 . S
C1620 C1604 1.368 . S
C1620 C1616 1.368 . S
C1620 C1619 1.523 . S
H1621 C1596 0.950 . S
H1622 C1598 0.950 . S
H1623 C1599 0.949 . S
H1624 C1601 0.950 . S
H1625 C1603 0.950 . S
C1626 C1627 1.349 . S
C1626 C1628 1.327 . S
C1626 H1651 0.950 . S
C1627 C1626 1.349 . S
C1627 C1643 1.349 . S
C1628 C1626 1.327 . S
C1628 C1647 1.429 . S
C1628 H1652 0.950 . S
C1629 C1646 1.574 . S
C1629 C1648 1.368 . S
C1629 H1653 0.949 . S
H1630 C1634 0.949 . S
C1631 C1632 1.349 . S
C1631 C1633 1.327 . S
C1631 H1654 0.950 . S
C1632 C1631 1.349 . S
C1632 C1644 1.349 . S
C1633 C1631 1.327 . S
C1633 C1649 1.429 . S
C1633 H1655 0.950 . S
C1634 H1630 0.949 . S
C1634 C1642 1.574 . S
C1634 C1650 1.368 . S
H1635 C1643 0.950 . S
H1636 C1641 0.950 . S
H1637 C1642 0.949 . S
H1638 C1644 0.950 . S
H1639 C1645 0.950 . S
H1640 C1646 0.949 . S
C1641 H1636 0.950 . S
C1641 C1643 1.327 . S
C1641 C1647 1.429 . S
C1642 C1634 1.574 . S
C1642 H1637 0.949 . S
C1642 C1648 1.368 . S
C1643 C1627 1.349 . S
C1643 H1635 0.950 . S
C1643 C1641 1.327 . S
C1644 C1632 1.349 . S
C1644 H1638 0.950 . S
C1644 C1645 1.327 . S
C1645 H1639 0.950 . S
C1645 C1644 1.327 . S
C1645 C1649 1.429 . S
C1646 C1629 1.574 . S
C1646 H1640 0.949 . S
C1646 C1650 1.368 . S
C1647 C1628 1.429 . S
C1647 C1641 1.429 . S
C1647 C1648 1.523 . S
C1648 C1629 1.368 . S
C1648 C1642 1.368 . S
C1648 C1647 1.523 . S
C1649 C1633 1.429 . S
C1649 C1645 1.429 . S
C1649 C1650 1.523 . S
C1650 C1634 1.368 . S
C1650 C1646 1.368 . S
C1650 C1649 1.523 . S
H1651 C1626 0.950 . S
H1652 C1628 0.950 . S
H1653 C1629 0.949 . S
H1654 C1631 0.950 . S
H1655 C1633 0.950 . S
C1656 C1657 1.349 . S
C1656 C1658 1.327 . S
C1656 H1681 0.950 . S
C1657 C1656 1.349 . S
C1657 C1673 1.349 . S
C1658 C1656 1.327 . S
C1658 C1677 1.429 . S
C1658 H1682 0.950 . S
C1659 C1676 1.574 . S
C1659 C1678 1.368 . S
C1659 H1683 0.949 . S
H1660 C1664 0.949 . S
C1661 C1662 1.349 . S
C1661 C1663 1.327 . S
C1661 H1684 0.950 . S
C1662 C1661 1.349 . S
C1662 C1674 1.349 . S
C1663 C1661 1.327 . S
C1663 C1679 1.429 . S
C1663 H1685 0.950 . S
C1664 H1660 0.949 . S
C1664 C1672 1.574 . S
C1664 C1680 1.368 . S
H1665 C1673 0.950 . S
H1666 C1671 0.950 . S
H1667 C1672 0.949 . S
H1668 C1674 0.950 . S
H1669 C1675 0.950 . S
H1670 C1676 0.949 . S
C1671 H1666 0.950 . S
C1671 C1673 1.327 . S
C1671 C1677 1.429 . S
C1672 C1664 1.574 . S
C1672 H1667 0.949 . S
C1672 C1678 1.368 . S
C1673 C1657 1.349 . S
C1673 H1665 0.950 . S
C1673 C1671 1.327 . S
C1674 C1662 1.349 . S
C1674 H1668 0.950 . S
C1674 C1675 1.327 . S
C1675 H1669 0.950 . S
C1675 C1674 1.327 . S
C1675 C1679 1.429 . S
C1676 C1659 1.574 . S
C1676 H1670 0.949 . S
C1676 C1680 1.368 . S
C1677 C1658 1.429 . S
C1677 C1671 1.429 . S
C1677 C1678 1.523 . S
C1678 C1659 1.368 . S
C1678 C1672 1.368 . S
C1678 C1677 1.523 . S
C1679 C1663 1.429 . S
C1679 C1675 1.429 . S
C1679 C1680 1.523 . S
C1680 C1664 1.368 . S
C1680 C1676 1.368 . S
C1680 C1679 1.523 . S
H1681 C1656 0.950 . S
H1682 C1658 0.950 . S
H1683 C1659 0.949 . S
H1684 C1661 0.950 . S
H1685 C1663 0.950 . S
C1686 C1687 1.349 . S
C1686 C1688 1.327 . S
C1686 H1711 0.950 . S
C1687 C1686 1.349 . S
C1687 C1703 1.349 . S
C1688 C1686 1.327 . S
C1688 C1707 1.429 . S
C1688 H1712 0.950 . S
C1689 C1706 1.574 . S
C1689 C1708 1.368 . S
C1689 H1713 0.949 . S
H1690 C1694 0.949 . S
C1691 C1692 1.349 . S
C1691 C1693 1.327 . S
C1691 H1714 0.950 . S
C1692 C1691 1.349 . S
C1692 C1704 1.349 . S
C1693 C1691 1.327 . S
C1693 C1709 1.429 . S
C1693 H1715 0.950 . S
C1694 H1690 0.949 . S
C1694 C1702 1.574 . S
C1694 C1710 1.368 . S
H1695 C1703 0.950 . S
H1696 C1701 0.950 . S
H1697 C1702 0.949 . S
H1698 C1704 0.950 . S
H1699 C1705 0.950 . S
H1700 C1706 0.949 . S
C1701 H1696 0.950 . S
C1701 C1703 1.327 . S
C1701 C1707 1.429 . S
C1702 C1694 1.574 . S
C1702 H1697 0.949 . S
C1702 C1708 1.368 . S
C1703 C1687 1.349 . S
C1703 H1695 0.950 . S
C1703 C1701 1.327 . S
C1704 C1692 1.349 . S
C1704 H1698 0.950 . S
C1704 C1705 1.327 . S
C1705 H1699 0.950 . S
C1705 C1704 1.327 . S
C1705 C1709 1.429 . S
C1706 C1689 1.574 . S
C1706 H1700 0.949 . S
C1706 C1710 1.368 . S
C1707 C1688 1.429 . S
C1707 C1701 1.429 . S
C1707 C1708 1.523 . S
C1708 C1689 1.368 . S
C1708 C1702 1.368 . S
C1708 C1707 1.523 . S
C1709 C1693 1.429 . S
C1709 C1705 1.429 . S
C1709 C1710 1.523 . S
C1710 C1694 1.368 . S
C1710 C1706 1.368 . S
C1710 C1709 1.523 . S
H1711 C1686 0.950 . S
H1712 C1688 0.950 . S
H1713 C1689 0.949 . S
H1714 C1691 0.950 . S
H1715 C1693 0.950 . S
C1716 C1717 1.349 . S
C1716 C1718 1.327 . S
C1716 H1741 0.950 . S
C1717 C1716 1.349 . S
C1717 C1733 1.349 . S
C1718 C1716 1.327 . S
C1718 C1737 1.429 . S
C1718 H1742 0.950 . S
C1719 C1736 1.574 . S
C1719 C1738 1.368 . S
C1719 H1743 0.949 . S
H1720 C1724 0.949 . S
C1721 C1722 1.349 . S
C1721 C1723 1.327 . S
C1721 H1744 0.950 . S
C1722 C1721 1.349 . S
C1722 C1734 1.349 . S
C1723 C1721 1.327 . S
C1723 C1739 1.429 . S
C1723 H1745 0.950 . S
C1724 H1720 0.949 . S
C1724 C1732 1.574 . S
C1724 C1740 1.368 . S
H1725 C1733 0.950 . S
H1726 C1731 0.950 . S
H1727 C1732 0.949 . S
H1728 C1734 0.950 . S
H1729 C1735 0.950 . S
H1730 C1736 0.949 . S
C1731 H1726 0.950 . S
C1731 C1733 1.327 . S
C1731 C1737 1.429 . S
C1732 C1724 1.574 . S
C1732 H1727 0.949 . S
C1732 C1738 1.368 . S
C1733 C1717 1.349 . S
C1733 H1725 0.950 . S
C1733 C1731 1.327 . S
C1734 C1722 1.349 . S
C1734 H1728 0.950 . S
C1734 C1735 1.327 . S
C1735 H1729 0.950 . S
C1735 C1734 1.327 . S
C1735 C1739 1.429 . S
C1736 C1719 1.574 . S
C1736 H1730 0.949 . S
C1736 C1740 1.368 . S
C1737 C1718 1.429 . S
C1737 C1731 1.429 . S
C1737 C1738 1.523 . S
C1738 C1719 1.368 . S
C1738 C1732 1.368 . S
C1738 C1737 1.523 . S
C1739 C1723 1.429 . S
C1739 C1735 1.429 . S
C1739 C1740 1.523 . S
C1740 C1724 1.368 . S
C1740 C1736 1.368 . S
C1740 C1739 1.523 . S
H1741 C1716 0.950 . S
H1742 C1718 0.950 . S
H1743 C1719 0.949 . S
H1744 C1721 0.950 . S
H1745 C1723 0.950 . S
C1746 C1747 1.349 . S
C1746 C1748 1.327 . S
C1746 H1771 0.950 . S
C1747 C1746 1.349 . S
C1747 C1763 1.349 . S
C1748 C1746 1.327 . S
C1748 C1767 1.429 . S
C1748 H1772 0.950 . S
C1749 C1766 1.574 . S
C1749 C1768 1.368 . S
C1749 H1773 0.949 . S
H1750 C1754 0.949 . S
C1751 C1752 1.349 . S
C1751 C1753 1.327 . S
C1751 H1774 0.950 . S
C1752 C1751 1.349 . S
C1752 C1764 1.349 . S
C1753 C1751 1.327 . S
C1753 C1769 1.429 . S
C1753 H1775 0.950 . S
C1754 H1750 0.949 . S
C1754 C1762 1.574 . S
C1754 C1770 1.368 . S
H1755 C1763 0.950 . S
H1756 C1761 0.950 . S
H1757 C1762 0.949 . S
H1758 C1764 0.950 . S
H1759 C1765 0.950 . S
H1760 C1766 0.949 . S
C1761 H1756 0.950 . S
C1761 C1763 1.327 . S
C1761 C1767 1.429 . S
C1762 C1754 1.574 . S
C1762 H1757 0.949 . S
C1762 C1768 1.368 . S
C1763 C1747 1.349 . S
C1763 H1755 0.950 . S
C1763 C1761 1.327 . S
C1764 C1752 1.349 . S
C1764 H1758 0.950 . S
C1764 C1765 1.327 . S
C1765 H1759 0.950 . S
C1765 C1764 1.327 . S
C1765 C1769 1.429 . S
C1766 C1749 1.574 . S
C1766 H1760 0.949 . S
C1766 C1770 1.368 . S
C1767 C1748 1.429 . S
C1767 C1761 1.429 . S
C1767 C1768 1.523 . S
C1768 C1749 1.368 . S
C1768 C1762 1.368 . S
C1768 C1767 1.523 . S
C1769 C1753 1.429 . S
C1769 C1765 1.429 . S
C1769 C1770 1.523 . S
C1770 C1754 1.368 . S
C1770 C1766 1.368 . S
C1770 C1769 1.523 . S
H1771 C1746 0.950 . S
H1772 C1748 0.950 . S
H1773 C1749 0.949 . S
H1774 C1751 0.950 . S
H1775 C1753 0.950 . S
C337 C161 1.285 . S
C342 C3 1.368 . S
C367 C17 1.368 . S
C372 C119 1.285 . S
C397 C31 1.368 . S
C402 C133 1.285 . S
C427 C45 1.368 . S
C432 C147 1.285 . S
C457 C189 1.285 . S
C462 C59 1.368 . S
C487 C73 1.368 . S
C492 C203 1.285 . S
C517 C217 1.285 . S
C522 C87 1.368 . S
C547 C175 1.285 . S
C552 C101 1.368 . S
C577 C77 1.285 . S
C582 C115 1.368 . S
C607 C91 1.285 . S
C612 C129 1.368 . S
C637 C143 1.368 . S
C642 C105 1.285 . S
C667 C63 1.285 . S
C672 C157 1.368 . S
C697 C49 1.285 . S
C702 C171 1.368 . S
C727 C185 1.368 . S
C732 C7 1.285 . S
C757 C199 1.368 . S
C762 C21 1.285 . S
C787 C213 1.368 . S
C792 C35 1.285 . S
C817 C227 1.368 . S
C822 C329 1.285 . S
C847 C287 1.285 . S
C852 C241 1.368 . S
C877 C255 1.368 . S
C882 C245 1.285 . S
C907 C269 1.368 . S
C912 C259 1.285 . S
C937 C273 1.285 . S
C942 C283 1.368 . S
C967 C297 1.368 . S
C972 C315 1.285 . S
C997 C231 1.285 . S
C1002 C311 1.368 . S
C1027 C301 1.285 . S
C1032 C325 1.368 . S
C1057 C9 1.525 . S
C1062 C93 1.525 . S
C1087 C23 1.525 . S
C1092 C107 1.525 . S
C1117 C37 1.525 . S
C1122 C65 1.525 . S
C1147 C79 1.525 . S
C1152 C51 1.525 . S
C1177 C149 1.525 . S
C1182 C121 1.525 . S
C1207 C135 1.525 . S
C1212 C163 1.525 . S
C1237 C177 1.525 . S
C1242 C205 1.525 . S
C1267 C219 1.525 . S
C1272 C191 1.525 . S
C1297 C247 1.525 . S
C1302 C233 1.525 . S
C1327 C261 1.525 . S
C1332 C331 1.525 . S
C1357 C275 1.525 . S
C1362 C303 1.525 . S
C1387 C289 1.525 . S
C1392 C317 1.525 . S
C1417 C8 0.890 . S
C1422 C78 0.890 . S
C1447 C22 0.890 . S
C1452 C92 0.890 . S
C1477 C36 0.890 . S
C1482 C106 0.890 . S
C1507 C64 0.890 . S
C1512 C50 0.890 . S
C1537 C120 0.890 . S
C1542 C330 0.890 . S
C1567 C134 0.890 . S
C1572 C302 0.890 . S
C1597 C316 0.890 . S
C1602 C148 0.890 . S
C1627 C162 0.890 . S
C1632 C232 0.890 . S
C1657 C288 0.890 . S
C1662 C176 0.890 . S
C1687 C246 0.890 . S
C1692 C190 0.890 . S
C1717 C204 0.890 . S
C1722 C260 0.890 . S
C1747 C274 0.890 . S
C1752 C218 0.890 . S
