# Generated by pormake.
# Topology whp, (6)-cn, num edge types: 1
# Building blocks:
#     Node 0, Type 0, BuildingBlock: OJICUG_clean_sbu_0, # of connection points: 6
#     Node 1, Type 0, BuildingBlock: OJICUG_clean_sbu_0, # of connection points: 6
#     Node 2, Type 0, BuildingBlock: OJICUG_clean_sbu_0, # of connection points: 6
#     Node 3, Type 0, BuildingBlock: OJICUG_clean_sbu_0, # of connection points: 6
#     Node 4, Type 0, BuildingBlock: OJICUG_clean_sbu_0, # of connection points: 6
#     Node 5, Type 0, BuildingBlock: OJICUG_clean_sbu_0, # of connection points: 6
#     Node 6, Type 0, BuildingBlock: OJICUG_clean_sbu_0, # of connection points: 6
#     Node 7, Type 0, BuildingBlock: OJICUG_clean_sbu_0, # of connection points: 6
#     Node 8, Type 0, BuildingBlock: OJICUG_clean_sbu_0, # of connection points: 6
#     Node 9, Type 0, BuildingBlock: OJICUG_clean_sbu_0, # of connection points: 6
#     Node 10, Type 0, BuildingBlock: OJICUG_clean_sbu_0, # of connection points: 6
#     Node 11, Type 0, BuildingBlock: OJICUG_clean_sbu_0, # of connection points: 6
#     Node 12, Type 0, BuildingBlock: OJICUG_clean_sbu_0, # of connection points: 6
#     Node 13, Type 0, BuildingBlock: OJICUG_clean_sbu_0, # of connection points: 6
#     Node 14, Type 0, BuildingBlock: OJICUG_clean_sbu_0, # of connection points: 6
#     Node 15, Type 0, BuildingBlock: OJICUG_clean_sbu_0, # of connection points: 6
#     Edge 16, Type (0, 0), BuildingBlock: XIVTED_clean_linker_0, # of connection points: 2
#     Edge 17, Type (0, 0), BuildingBlock: XIVTED_clean_linker_0, # of connection points: 2
#     Edge 18, Type (0, 0), BuildingBlock: XIVTED_clean_linker_0, # of connection points: 2
#     Edge 19, Type (0, 0), BuildingBlock: XIVTED_clean_linker_0, # of connection points: 2
#     Edge 20, Type (0, 0), BuildingBlock: XIVTED_clean_linker_0, # of connection points: 2
#     Edge 21, Type (0, 0), BuildingBlock: XIVTED_clean_linker_0, # of connection points: 2
#     Edge 22, Type (0, 0), BuildingBlock: XIVTED_clean_linker_0, # of connection points: 2
#     Edge 23, Type (0, 0), BuildingBlock: XIVTED_clean_linker_0, # of connection points: 2
#     Edge 24, Type (0, 0), BuildingBlock: XIVTED_clean_linker_0, # of connection points: 2
#     Edge 25, Type (0, 0), BuildingBlock: XIVTED_clean_linker_0, # of connection points: 2
#     Edge 26, Type (0, 0), BuildingBlock: XIVTED_clean_linker_0, # of connection points: 2
#     Edge 27, Type (0, 0), BuildingBlock: XIVTED_clean_linker_0, # of connection points: 2
#     Edge 28, Type (0, 0), BuildingBlock: XIVTED_clean_linker_0, # of connection points: 2
#     Edge 29, Type (0, 0), BuildingBlock: XIVTED_clean_linker_0, # of connection points: 2
#     Edge 30, Type (0, 0), BuildingBlock: XIVTED_clean_linker_0, # of connection points: 2
#     Edge 31, Type (0, 0), BuildingBlock: XIVTED_clean_linker_0, # of connection points: 2
#     Edge 32, Type (0, 0), BuildingBlock: XIVTED_clean_linker_0, # of connection points: 2
#     Edge 33, Type (0, 0), BuildingBlock: XIVTED_clean_linker_0, # of connection points: 2
#     Edge 34, Type (0, 0), BuildingBlock: XIVTED_clean_linker_0, # of connection points: 2
#     Edge 35, Type (0, 0), BuildingBlock: XIVTED_clean_linker_0, # of connection points: 2
#     Edge 36, Type (0, 0), BuildingBlock: XIVTED_clean_linker_0, # of connection points: 2
#     Edge 37, Type (0, 0), BuildingBlock: XIVTED_clean_linker_0, # of connection points: 2
#     Edge 38, Type (0, 0), BuildingBlock: XIVTED_clean_linker_0, # of connection points: 2
#     Edge 39, Type (0, 0), BuildingBlock: XIVTED_clean_linker_0, # of connection points: 2
#     Edge 40, Type (0, 0), BuildingBlock: XIVTED_clean_linker_0, # of connection points: 2
#     Edge 41, Type (0, 0), BuildingBlock: XIVTED_clean_linker_0, # of connection points: 2
#     Edge 42, Type (0, 0), BuildingBlock: XIVTED_clean_linker_0, # of connection points: 2
#     Edge 43, Type (0, 0), BuildingBlock: XIVTED_clean_linker_0, # of connection points: 2
#     Edge 44, Type (0, 0), BuildingBlock: XIVTED_clean_linker_0, # of connection points: 2
#     Edge 45, Type (0, 0), BuildingBlock: XIVTED_clean_linker_0, # of connection points: 2
#     Edge 46, Type (0, 0), BuildingBlock: XIVTED_clean_linker_0, # of connection points: 2
#     Edge 47, Type (0, 0), BuildingBlock: XIVTED_clean_linker_0, # of connection points: 2
#     Edge 48, Type (0, 0), BuildingBlock: XIVTED_clean_linker_0, # of connection points: 2
#     Edge 49, Type (0, 0), BuildingBlock: XIVTED_clean_linker_0, # of connection points: 2
#     Edge 50, Type (0, 0), BuildingBlock: XIVTED_clean_linker_0, # of connection points: 2
#     Edge 51, Type (0, 0), BuildingBlock: XIVTED_clean_linker_0, # of connection points: 2
#     Edge 52, Type (0, 0), BuildingBlock: XIVTED_clean_linker_0, # of connection points: 2
#     Edge 53, Type (0, 0), BuildingBlock: XIVTED_clean_linker_0, # of connection points: 2
#     Edge 54, Type (0, 0), BuildingBlock: XIVTED_clean_linker_0, # of connection points: 2
#     Edge 55, Type (0, 0), BuildingBlock: XIVTED_clean_linker_0, # of connection points: 2
#     Edge 56, Type (0, 0), BuildingBlock: XIVTED_clean_linker_0, # of connection points: 2
#     Edge 57, Type (0, 0), BuildingBlock: XIVTED_clean_linker_0, # of connection points: 2
#     Edge 58, Type (0, 0), BuildingBlock: XIVTED_clean_linker_0, # of connection points: 2
#     Edge 59, Type (0, 0), BuildingBlock: XIVTED_clean_linker_0, # of connection points: 2
#     Edge 60, Type (0, 0), BuildingBlock: XIVTED_clean_linker_0, # of connection points: 2
#     Edge 61, Type (0, 0), BuildingBlock: XIVTED_clean_linker_0, # of connection points: 2
#     Edge 62, Type (0, 0), BuildingBlock: XIVTED_clean_linker_0, # of connection points: 2
#     Edge 63, Type (0, 0), BuildingBlock: XIVTED_clean_linker_0, # of connection points: 2
# Relax obj value: 0.276
# Max RMSD: 0.243
# Mean RMSD: 0.243
data_MOF--net-whp--node1-OJICUG_clean_sbu_0--edge1-XIVTED_clean_linker_0
_symmetry_space_group_name_H-M    P1
_symmetry_Int_Tables_number       1
_symmetry_cell_setting            triclinic
loop_
_symmetry_equiv_pos_as_xyz
'x, y, z'
_cell_length_a     48.415998
_cell_length_b     48.389191
_cell_length_c     31.024803
_cell_angle_alpha  89.925842
_cell_angle_beta   89.969161
_cell_angle_gamma 89.984406
loop_
_atom_site_label
_atom_site_type_symbol
_atom_site_fract_x
_atom_site_fract_y
_atom_site_fract_z
_atom_type_partial_charge
Sc0 Sc 0.30058 0.56024 0.35822 0.0
Sc1 Sc 0.33781 0.51309 0.29491 0.0
Sc2 Sc 0.26851 0.49867 0.3245 0.0
O3 O 0.30229 0.52398 0.32577 0.0
C4 C 0.26662 0.51992 0.42074 0.0
C5 C 0.36035 0.53841 0.38302 0.0
C6 C 0.31794 0.45567 0.3348 0.0
C7 C 0.33715 0.57756 0.27632 0.0
C8 C 0.24166 0.559 0.31378 0.0
C9 C 0.29096 0.49438 0.22829 0.0
O10 O 0.27954 0.54212 0.41232 0.0
O11 O 0.36397 0.52462 0.34859 0.0
O12 O 0.29239 0.46158 0.33665 0.0
O13 O 0.32208 0.58313 0.30874 0.0
O14 O 0.24048 0.53272 0.31217 0.0
O15 O 0.31581 0.50067 0.2374 0.0
O16 O 0.26253 0.572 0.32804 0.0
O17 O 0.34371 0.55303 0.26603 0.0
O18 O 0.27189 0.49326 0.25636 0.0
O19 O 0.33831 0.55154 0.39145 0.0
O20 O 0.26152 0.50158 0.39266 0.0
O21 O 0.33629 0.47228 0.32133 0.0
Sc22 Sc 0.93777 0.29614 0.86789 0.0
Sc23 Sc 0.97934 0.33474 0.79933 0.0
Sc24 Sc -0.00166 0.26692 0.8277 0.0
O25 O 0.97194 0.2992 0.83132 0.0
C26 C 0.98046 0.26082 0.92365 0.0
C27 C 0.95775 0.35512 0.89189 0.0
C28 C 0.0387 0.31887 0.83444 0.0
C29 C 0.9157 0.33381 0.79009 0.0
C30 C 0.93774 0.23939 0.82029 0.0
C31 C -0.00109 0.28879 0.73154 0.0
O32 O 0.95632 0.26959 0.91552 0.0
O33 O 0.96547 0.35996 0.85326 0.0
O34 O 0.03483 0.29285 0.83326 0.0
O35 O 0.91315 0.3225 0.82686 0.0
O36 O 0.96412 0.2377 0.8215 0.0
O37 O 0.99362 0.31373 0.74176 0.0
O38 O 0.92453 0.26087 0.8319 0.0
O39 O 0.93881 0.33587 0.77103 0.0
O40 O -0.0004 0.26927 0.75893 0.0
O41 O 0.95032 0.3313 0.90488 0.0
O42 O -4e-05 0.2618 0.89644 0.0
O43 O 0.02015 0.33654 0.82551 0.0
Sc44 Sc 0.23008 0.00157 0.31672 0.0
Sc45 Sc 0.1614 0.98192 0.29487 0.0
Sc46 Sc 0.20187 0.94132 0.36316 0.0
O47 O 0.19791 0.97497 0.32473 0.0
C48 C 0.25782 0.9411 0.31114 0.0
C49 C 0.2047 0.00025 0.22215 0.0
C50 C 0.1632 0.9176 0.28759 0.0
C51 C 0.17857 0.04196 0.32707 0.0
C52 C 0.2384 0.98526 0.41467 0.0
C53 C 0.14257 0.96141 0.38871 0.0
O54 O 0.25838 0.96732 0.30646 0.0
O55 O 0.18065 0.99361 0.2349 0.0
O56 O 0.17648 0.91513 0.32274 0.0
O57 O 0.20453 0.03792 0.32585 0.0
O58 O 0.22731 0.96174 0.40991 0.0
O59 O 0.13729 0.97006 0.35081 0.0
O60 O 0.23916 0.00331 0.38495 0.0
O61 O 0.16076 0.02357 0.3181 0.0
O62 O 0.16631 0.95293 0.40018 0.0
O63 O 0.22493 0.00333 0.24775 0.0
O64 O 0.238 0.92813 0.32897 0.0
O65 O 0.15888 0.94076 0.26961 0.0
Sc66 Sc 0.49869 0.22921 0.82992 0.0
Sc67 Sc 0.51735 0.16145 0.80196 0.0
Sc68 Sc 0.55887 0.19966 0.87105 0.0
O69 O 0.5249 0.19683 0.83403 0.0
C70 C 0.55922 0.25693 0.82458 0.0
C71 C 0.49885 0.20782 0.73391 0.0
C72 C 0.58102 0.16276 0.79244 0.0
C73 C 0.45795 0.1775 0.83578 0.0
C74 C 0.51524 0.23396 0.92662 0.0
C75 C 0.53902 0.14035 0.89412 0.0
O76 O 0.53285 0.25857 0.82548 0.0
O77 O 0.50307 0.18272 0.74448 0.0
O78 O 0.5837 0.1738 0.82938 0.0
O79 O 0.462 0.20346 0.83343 0.0
O80 O 0.53961 0.22557 0.91899 0.0
O81 O 0.53124 0.13582 0.85548 0.0
O82 O 0.49615 0.2334 0.89868 0.0
O83 O 0.47658 0.15962 0.82837 0.0
O84 O 0.5464 0.16409 0.90741 0.0
O85 O 0.49871 0.22742 0.76111 0.0
O86 O 0.57235 0.23533 0.83594 0.0
O87 O 0.55784 0.1606 0.77367 0.0
Sc88 Sc 0.79489 0.43931 0.11797 0.0
Sc89 Sc 0.83355 0.48146 0.1875 0.0
Sc90 Sc 0.76509 0.50004 0.16003 0.0
O91 O 0.79781 0.4736 0.15525 0.0
C92 C 0.76132 0.48316 0.06162 0.0
C93 C 0.85561 0.45927 0.09669 0.0
C94 C 0.81628 0.54092 0.15165 0.0
C95 C 0.83032 0.41658 0.19801 0.0
C96 C 0.73673 0.44035 0.16562 0.0
C97 C 0.78807 0.50011 0.25607 0.0
O98 O 0.77439 0.46069 0.06669 0.0
O99 O 0.85955 0.47042 0.13329 0.0
O100 O 0.79048 0.5362 0.14924 0.0
O101 O 0.81633 0.41329 0.16368 0.0
O102 O 0.73692 0.46634 0.17192 0.0
O103 O 0.81248 0.49283 0.24623 0.0
O104 O 0.7562 0.4274 0.14687 0.0
O105 O 0.8366 0.44019 0.2129 0.0
O106 O 0.76918 0.50339 0.22827 0.0
O107 O 0.83282 0.44849 0.08554 0.0
O108 O 0.75639 0.49984 0.09214 0.0
O109 O 0.83393 0.52324 0.16431 0.0
Sc110 Sc -0.00113 0.76597 0.6615 0.0
Sc111 Sc 0.01916 0.8349 0.68262 0.0
Sc112 Sc 0.05813 0.79452 0.61156 0.0
O113 O 0.02539 0.79839 0.65199 0.0
C114 C 0.0585 0.73726 0.66252 0.0
C115 C 0.00228 0.79164 0.75592 0.0
C116 C 0.08417 0.83083 0.6877 0.0
C117 C 0.95835 0.81755 0.65298 0.0
C118 C 0.01189 0.76052 0.56119 0.0
C119 C 0.0385 0.85532 0.58946 0.0
O120 O 0.03296 0.7379 0.67244 0.0
O121 O 0.01006 0.8153 0.7431 0.0
O122 O 0.08623 0.81601 0.65401 0.0
O123 O 0.96255 0.79157 0.65202 0.0
O124 O 0.03425 0.77402 0.56341 0.0
O125 O 0.02831 0.85979 0.62655 0.0
O126 O 0.99677 0.75546 0.59373 0.0
O127 O 0.97675 0.83509 0.66321 0.0
O128 O 0.04877 0.83225 0.57844 0.0
O129 O 0.99728 0.77181 0.73033 0.0
O130 O 0.07041 0.75601 0.64057 0.0
O131 O 0.06117 0.83797 0.70391 0.0
Sc132 Sc 0.73016 0.99758 0.16411 0.0
Sc133 Sc 0.66048 0.012 0.19039 0.0
Sc134 Sc 0.69809 0.05779 0.12435 0.0
O135 O 0.69621 0.02244 0.1596 0.0
C136 C 0.75631 0.0579 0.17215 0.0
C137 C 0.70603 0.99567 0.25991 0.0
C138 C 0.66081 0.07739 0.20362 0.0
C139 C 0.68195 0.95367 0.15508 0.0
C140 C 0.73317 0.01649 0.06599 0.0
C141 C 0.63823 0.03468 0.10055 0.0
O142 O 0.75649 0.03206 0.17973 0.0
O143 O 0.68171 0.00343 0.25017 0.0
O144 O 0.67764 0.0823 0.17305 0.0
O145 O 0.70703 0.96056 0.14964 0.0
O146 O 0.71792 0.03755 0.07122 0.0
O147 O 0.63507 0.02011 0.13436 0.0
O148 O 0.74001 0.00045 0.09658 0.0
O149 O 0.66359 0.96976 0.17008 0.0
O150 O 0.65962 0.0491 0.09309 0.0
O151 O 0.72481 0.99191 0.23199 0.0
O152 O 0.73707 0.07 0.15165 0.0
O153 O 0.65299 0.05314 0.21348 0.0
Sc154 Sc 0.43868 0.70109 0.61753 0.0
Sc155 Sc 0.48183 0.66248 0.68376 0.0
Sc156 Sc 0.50013 0.7302 0.65432 0.0
O157 O 0.47363 0.69798 0.6522 0.0
C158 C 0.48061 0.73557 0.55908 0.0
C159 C 0.45841 0.64204 0.59252 0.0
C160 C 0.54044 0.67834 0.64599 0.0
C161 C 0.41838 0.66364 0.69689 0.0
C162 C 0.43989 0.75809 0.66423 0.0
C163 C 0.50224 0.70869 0.75048 0.0
O164 O 0.45648 0.7273 0.56857 0.0
O165 O 0.46699 0.63715 0.63065 0.0
O166 O 0.53656 0.70433 0.64793 0.0
O167 O 0.41486 0.67498 0.66032 0.0
O168 O 0.46621 0.75961 0.66135 0.0
O169 O 0.4972 0.68367 0.74046 0.0
O170 O 0.42631 0.73658 0.65387 0.0
O171 O 0.44198 0.66135 0.71428 0.0
O172 O 0.50226 0.72821 0.72305 0.0
O173 O 0.45033 0.66578 0.58015 0.0
O174 O 0.50058 0.73464 0.58544 0.0
O175 O 0.52202 0.66063 0.65534 0.0
Sc176 Sc 0.72924 0.49992 0.66029 0.0
Sc177 Sc 0.65975 0.48515 0.68751 0.0
Sc178 Sc 0.69767 0.43885 0.62303 0.0
O179 O 0.69555 0.47462 0.65701 0.0
C180 C 0.73202 0.4798 0.56293 0.0
C181 C 0.68046 0.54313 0.64972 0.0
C182 C 0.63758 0.46117 0.59872 0.0
C183 C 0.70527 0.50307 0.75602 0.0
C184 C 0.75635 0.44002 0.66955 0.0
C185 C 0.66076 0.41996 0.70337 0.0
O186 O 0.73865 0.49644 0.59276 0.0
O187 O 0.66224 0.52699 0.66498 0.0
O188 O 0.65909 0.44688 0.59154 0.0
O189 O 0.72413 0.50626 0.72803 0.0
O190 O 0.73693 0.42736 0.65034 0.0
O191 O 0.65281 0.44428 0.71258 0.0
O192 O 0.75625 0.46596 0.67616 0.0
O193 O 0.68099 0.49511 0.7466 0.0
O194 O 0.67748 0.41485 0.67273 0.0
O195 O 0.70569 0.53658 0.64515 0.0
O196 O 0.71721 0.45853 0.56913 0.0
O197 O 0.63432 0.47595 0.63218 0.0
Sc198 Sc 0.99568 0.72938 0.16068 0.0
Sc199 Sc 0.01355 0.66034 0.18522 0.0
Sc200 Sc 0.05812 0.70118 0.12238 0.0
O201 O 0.02247 0.697 0.15624 0.0
C202 C 0.01597 0.7358 0.06411 0.0
C203 C 0.95491 0.67843 0.14809 0.0
C204 C 0.03848 0.64133 0.0945 0.0
C205 C 0.9934 0.70433 0.25563 0.0
C206 C 0.0552 0.75825 0.17161 0.0
C207 C 0.07798 0.66269 0.201 0.0
O208 O 0.99716 0.7379 0.09246 0.0
O209 O 0.97259 0.66053 0.15962 0.0
O210 O 0.0499 0.66436 0.08616 0.0
O211 O 0.99124 0.72412 0.22889 0.0
O212 O 0.06897 0.73858 0.15509 0.0
O213 O 0.05385 0.65577 0.21281 0.0
O214 O 0.02892 0.7582 0.17445 0.0
O215 O 0.00059 0.68004 0.24457 0.0
O216 O 0.08249 0.67828 0.1687 0.0
O217 O 0.95948 0.70429 0.14828 0.0
O218 O 0.03913 0.72441 0.0713 0.0
O219 O 0.02599 0.63625 0.12974 0.0
Sc220 Sc 0.79755 0.05601 0.62551 0.0
Sc221 Sc 0.83603 0.01071 0.69088 0.0
Sc222 Sc 0.76669 0.99481 0.66432 0.0
O223 O 0.80011 0.02051 0.66024 0.0
C224 C 0.7391 0.05464 0.67253 0.0
C225 C 0.83457 0.07589 0.70511 0.0
C226 C 0.7905 0.99328 0.76016 0.0
C227 C 0.85787 0.03446 0.60141 0.0
C228 C 0.7635 0.01409 0.5665 0.0
C229 C 0.81608 0.95208 0.65485 0.0
O230 O 0.75851 0.06747 0.65353 0.0
O231 O 0.84239 0.0517 0.71535 0.0
O232 O 0.77161 0.98976 0.73237 0.0
O233 O 0.83599 0.04803 0.59357 0.0
O234 O 0.75751 0.99725 0.5965 0.0
O235 O 0.83417 0.96881 0.66881 0.0
O236 O 0.77767 0.03581 0.57245 0.0
O237 O 0.86142 0.02023 0.63544 0.0
O238 O 0.79064 0.95805 0.65106 0.0
O239 O 0.81802 0.08062 0.6741 0.0
O240 O 0.73925 0.02866 0.67879 0.0
O241 O 0.81486 0.00084 0.75028 0.0
Sc242 Sc 0.4397 0.7983 0.11027 0.0
Sc243 Sc 0.48007 0.83692 0.18106 0.0
Sc244 Sc 0.49939 0.76827 0.15567 0.0
O245 O 0.47308 0.80107 0.14915 0.0
C246 C 0.43934 0.73996 0.15686 0.0
C247 C 0.41546 0.83417 0.18851 0.0
C248 C 0.49706 0.79143 0.25127 0.0
C249 C 0.45959 0.85875 0.08916 0.0
C250 C 0.48514 0.76493 0.05643 0.0
C251 C 0.54026 0.81987 0.14968 0.0
O252 O 0.42669 0.76056 0.14073 0.0
O253 O 0.43867 0.83934 0.20572 0.0
O254 O 0.49989 0.77161 0.22481 0.0
O255 O 0.45026 0.83557 0.07675 0.0
O256 O 0.50196 0.76107 0.08722 0.0
O257 O 0.52186 0.83772 0.15851 0.0
O258 O 0.46187 0.77658 0.06114 0.0
O259 O 0.46901 0.86286 0.12686 0.0
O260 O 0.53596 0.79392 0.15002 0.0
O261 O 0.413 0.82098 0.15331 0.0
O262 O 0.46548 0.73928 0.16194 0.0
O263 O 0.49115 0.81591 0.23968 0.0
Sc264 Sc 0.23117 0.49669 0.82368 0.0
Sc265 Sc 0.16344 0.51758 0.79609 0.0
Sc266 Sc 0.20275 0.55763 0.86742 0.0
O267 O 0.19917 0.52396 0.82899 0.0
C268 C 0.23483 0.51198 0.92267 0.0
C269 C 0.1786 0.45722 0.83 0.0
C270 C 0.14148 0.53923 0.88732 0.0
C271 C 0.20887 0.49884 0.72742 0.0
C272 C 0.26115 0.5558 0.8207 0.0
C273 C 0.1683 0.5823 0.78767 0.0
O274 O 0.23907 0.4953 0.89187 0.0
O275 O 0.16155 0.47579 0.81857 0.0
O276 O 0.16462 0.54875 0.89953 0.0
O277 O 0.22774 0.49511 0.75512 0.0
O278 O 0.24167 0.56908 0.83885 0.0
O279 O 0.16199 0.55905 0.77148 0.0
O280 O 0.2605 0.52981 0.81427 0.0
O281 O 0.18443 0.50594 0.73745 0.0
O282 O 0.18179 0.58477 0.82264 0.0
O283 O 0.20461 0.46094 0.83186 0.0
O284 O 0.22283 0.53508 0.91792 0.0
O285 O 0.13744 0.5291 0.85003 0.0
Sc286 Sc 0.9373 0.20214 0.37148 0.0
Sc287 Sc 0.97771 0.16137 0.3028 0.0
Sc288 Sc 0.99786 0.23022 0.32484 0.0
O289 O 0.97096 0.19798 0.33296 0.0
C290 C 0.93859 0.2596 0.32109 0.0
C291 C 0.91281 0.16621 0.29374 0.0
C292 C 0.99626 0.20458 0.23045 0.0
C293 C 0.95617 0.14118 0.39489 0.0
C294 C 0.98285 0.23549 0.42437 0.0
C295 C 0.03804 0.17849 0.33468 0.0
O296 O 0.92595 0.24085 0.34206 0.0
O297 O 0.93612 0.15857 0.27922 0.0
O298 O 0.00053 0.22447 0.25624 0.0
O299 O 0.94554 0.16425 0.40508 0.0
O300 O -0.00124 0.24036 0.3927 0.0
O301 O 0.01976 0.16089 0.32422 0.0
O302 O 0.96031 0.22238 0.42089 0.0
O303 O 0.96732 0.13665 0.3585 0.0
O304 O 0.03387 0.20446 0.33535 0.0
O305 O 0.91007 0.18112 0.32721 0.0
O306 O 0.96433 0.25869 0.31267 0.0
O307 O 0.9883 0.18089 0.24284 0.0
Sc308 Sc 0.29627 0.94105 0.85972 0.0
Sc309 Sc 0.33655 0.98538 0.79566 0.0
Sc310 Sc 0.26651 0.00162 0.8161 0.0
O311 O 0.29974 0.97602 0.82378 0.0
C312 C 0.23987 0.94105 0.80794 0.0
C313 C 0.33615 0.92028 0.78374 0.0
C314 C 0.29338 0.00212 0.72202 0.0
C315 C 0.35529 0.9634 0.88811 0.0
C316 C 0.25941 0.98327 0.91414 0.0
C317 C 0.31563 0.04443 0.8281 0.0
O318 O 0.25923 0.92859 0.82758 0.0
O319 O 0.34341 0.94433 0.77196 0.0
O320 O 0.27312 0.00562 0.74755 0.0
O321 O 0.33286 0.95065 0.89574 0.0
O322 O 0.25618 0.00081 0.88403 0.0
O323 O 0.33423 0.02738 0.81701 0.0
O324 O 0.27258 0.96081 0.90936 0.0
O325 O 0.36012 0.97608 0.85298 0.0
O326 O 0.29004 0.03868 0.82905 0.0
O327 O 0.31956 0.91604 0.81484 0.0
O328 O 0.23942 0.9671 0.80187 0.0
O329 O 0.31727 0.99492 0.73482 0.0
Sc330 Sc 0.49699 0.26715 0.32767 0.0
Sc331 Sc 0.51439 0.33651 0.30295 0.0
Sc332 Sc 0.55747 0.29756 0.36967 0.0
O333 O 0.52291 0.30033 0.33331 0.0
C334 C 0.51403 0.26309 0.42591 0.0
C335 C 0.45524 0.31778 0.33705 0.0
C336 C 0.53653 0.35729 0.3943 0.0
C337 C 0.49695 0.29154 0.23249 0.0
C338 C 0.55737 0.23974 0.32177 0.0
C339 C 0.57898 0.33471 0.29096 0.0
O340 O 0.49646 0.25914 0.39616 0.0
O341 O 0.47298 0.33605 0.32718 0.0
O342 O 0.5474 0.33435 0.40465 0.0
O343 O 0.49468 0.27142 0.25863 0.0
O344 O 0.57014 0.26029 0.33771 0.0
O345 O 0.5552 0.34043 0.27625 0.0
O346 O 0.53114 0.23878 0.3183 0.0
O347 O 0.50284 0.31595 0.24437 0.0
O348 O 0.58269 0.32072 0.32516 0.0
O349 O 0.4601 0.29195 0.33656 0.0
O350 O 0.53694 0.27517 0.41981 0.0
O351 O 0.52562 0.36181 0.35768 0.0
H352 H 0.4133 0.55347 0.365 0.0
H353 H 0.44313 0.58913 0.61161 0.0
H354 H 0.35876 0.53245 0.46988 0.0
H355 H 0.46446 0.6425 0.5052 0.0
H356 H 0.42713 0.55422 0.56 0.0
H357 H 0.44679 0.57156 0.41745 0.0
C358 C 0.40891 0.5517 0.39914 0.0
C359 C 0.38331 0.54177 0.41342 0.0
C360 C 0.43605 0.57329 0.54809 0.0
C361 C 0.42116 0.5621 0.47295 0.0
C362 C 0.44523 0.59313 0.5774 0.0
C363 C 0.45465 0.61883 0.56247 0.0
C364 C 0.43682 0.57912 0.50378 0.0
C365 C 0.45687 0.62307 0.51788 0.0
C366 C 0.42786 0.56213 0.4289 0.0
C367 C 0.37828 0.54019 0.45783 0.0
N368 N 0.44774 0.6035 0.49002 0.0
N369 N 0.39696 0.55054 0.48612 0.0
H370 H 0.90819 0.44387 0.11691 0.0
H371 H 0.94234 0.40785 0.87181 0.0
H372 H 0.85574 0.46501 0.00953 0.0
H373 H 0.96307 0.35525 0.97943 0.0
H374 H 0.92524 0.44277 0.92249 0.0
H375 H 0.94264 0.42574 0.06607 0.0
C376 C 0.90441 0.44561 0.08259 0.0
C377 C 0.87908 0.45557 0.06718 0.0
C378 C 0.93426 0.42388 0.9349 0.0
C379 C 0.91812 0.43518 0.00941 0.0
C380 C 0.9441 0.40403 0.90611 0.0
C381 C 0.95366 0.37851 0.92158 0.0
C382 C 0.93447 0.41824 0.97928 0.0
C383 C 0.9554 0.37452 0.96629 0.0
C384 C 0.92394 0.43515 0.05374 0.0
C385 C 0.87496 0.45717 0.02253 0.0
N386 N 0.94559 0.39409 -0.00636 0.0
N387 N 0.89419 0.44678 -0.00487 0.0
H388 H 0.03397 0.85466 0.50201 0.0
H389 H 0.14371 0.96534 0.4764 0.0
H390 H 0.05246 0.90837 0.60897 0.0
H391 H 0.08955 0.94686 0.36992 0.0
H392 H 0.10878 0.94751 0.52619 0.0
H393 H 0.05129 0.89001 0.45247 0.0
C394 C 0.04101 0.87423 0.51489 0.0
C395 C 0.04209 0.87861 0.55949 0.0
C396 C 0.10421 0.94809 0.49203 0.0
C397 C 0.0626 0.91863 0.5034 0.0
C398 C 0.12416 0.95815 0.46365 0.0
C399 C 0.11957 0.95722 0.41908 0.0
C400 C 0.07997 0.93623 0.4755 0.0
C401 C 0.09389 0.94784 0.40412 0.0
C402 C 0.05081 0.89441 0.48668 0.0
C403 C 0.05135 0.90427 0.57472 0.0
N404 N 0.0753 0.93695 0.43223 0.0
N405 N 0.06203 0.92308 0.54674 0.0
H406 H 0.55495 0.0879 0.87344 0.0
H407 H 0.58502 0.04847 0.11879 0.0
H408 H 0.53305 0.13942 0.98158 0.0
H409 H 0.64001 0.02979 0.01349 0.0
H410 H 0.55149 0.06719 0.06688 0.0
H411 H 0.57147 0.05245 0.92385 0.0
C412 C 0.55282 0.09138 0.90777 0.0
C413 C 0.54305 0.11673 0.92351 0.0
C414 C 0.57052 0.05812 0.05517 0.0
C415 C 0.56153 0.07636 0.98089 0.0
C416 C 0.58949 0.04728 0.08461 0.0
C417 C 0.61522 0.03781 0.07013 0.0
C418 C 0.57732 0.05896 0.01118 0.0
C419 C 0.62035 0.03708 0.0257 0.0
C420 C 0.56233 0.07123 0.9364 0.0
C421 C 0.54086 0.12028 0.96825 0.0
N422 N 0.60166 0.04781 -0.00228 0.0
N423 N 0.5503 0.1004 -0.00455 0.0
H424 H 0.53168 0.35556 0.4816 0.0
H425 H 0.63975 0.46599 0.51174 0.0
H426 H 0.54966 0.41081 0.37611 0.0
H427 H 0.58422 0.4478 0.6166 0.0
H428 H 0.60517 0.44897 0.4608 0.0
H429 H 0.54776 0.39079 0.53221 0.0
C430 C 0.53837 0.37543 0.46926 0.0
C431 C 0.53968 0.38031 0.42478 0.0
C432 C 0.60015 0.44951 0.49482 0.0
C433 C 0.55871 0.42022 0.4821 0.0
C434 C 0.61987 0.45915 0.5238 0.0
C435 C 0.61469 0.45811 0.56817 0.0
C436 C 0.57563 0.43778 0.51061 0.0
C437 C 0.58881 0.44895 0.58248 0.0
C438 C 0.54741 0.39554 0.49808 0.0
C439 C 0.54841 0.40633 0.41026 0.0
N440 N 0.57045 0.43832 0.55379 0.0
N441 N 0.5584 0.4251 0.43883 0.0
H442 H 0.08969 0.55659 0.86624 0.0
H443 H 0.05054 0.58735 0.11135 0.0
H444 H 0.14017 0.53235 0.97435 0.0
H445 H 0.03667 0.64465 0.00699 0.0
H446 H 0.06802 0.55342 0.05916 0.0
H447 H 0.05502 0.57471 0.9167 0.0
C448 C 0.09298 0.55419 0.90058 0.0
C449 C 0.11784 0.54333 0.91638 0.0
C450 C 0.06036 0.57314 0.04772 0.0
C451 C 0.07849 0.56361 0.9737 0.0
C452 C 0.05031 0.59241 0.07732 0.0
C453 C 0.04256 0.61884 0.06329 0.0
C454 C 0.06205 0.58032 0.00396 0.0
C455 C 0.04283 0.62454 0.01898 0.0
C456 C 0.07333 0.56463 0.92922 0.0
C457 C 0.12133 0.5409 0.96108 0.0
N458 N 0.05269 0.60549 0.99082 0.0
N459 N 0.10195 0.55124 0.98828 0.0
H460 H 0.94425 0.0875 0.37593 0.0
H461 H 0.91035 0.05 0.62075 0.0
H462 H 0.95909 0.14262 0.48258 0.0
H463 H 0.85706 0.02951 0.51425 0.0
H464 H 0.94392 0.06947 0.56953 0.0
H465 H 0.92808 0.0522 0.42701 0.0
C466 C 0.94495 0.09182 0.41017 0.0
C467 C 0.9526 0.11804 0.42522 0.0
C468 C 0.92528 0.05983 0.55744 0.0
C469 C 0.93466 0.0779 0.48329 0.0
C470 C 0.90629 0.04859 0.58648 0.0
C471 C 0.881 0.03838 0.57143 0.0
C472 C 0.91898 0.06026 0.51329 0.0
C473 C 0.87636 0.03738 0.52689 0.0
C474 C 0.93566 0.07176 0.43914 0.0
C475 C 0.95297 0.12273 0.4698 0.0
N476 N 0.8951 0.04845 0.49928 0.0
N477 N 0.94386 0.1029 0.49735 0.0
H478 H 0.35138 0.96459 0.97559 0.0
H479 H 0.46581 0.86002 0.00195 0.0
H480 H 0.40967 0.95351 0.87193 0.0
H481 H 0.44313 0.91077 0.11051 0.0
H482 H 0.44808 0.8957 0.95331 0.0
H483 H 0.38609 0.94772 0.02655 0.0
C484 C 0.37178 0.95928 0.96383 0.0
C485 C 0.37771 0.96015 0.91965 0.0
C486 C 0.44775 0.89941 0.98773 0.0
C487 C 0.41705 0.94016 0.97723 0.0
C488 C 0.45776 0.87904 0.01542 0.0
C489 C 0.45565 0.88246 0.06013 0.0
C490 C 0.43468 0.9228 0.00504 0.0
C491 C 0.44509 0.90742 0.07614 0.0
C492 C 0.39158 0.94977 -0.00716 0.0
C493 C 0.40438 0.95309 0.90584 0.0
N494 N 0.43421 0.92637 0.04858 0.0
N495 N 0.42289 0.94258 0.93443 0.0
H496 H 0.30681 0.40519 0.2995 0.0
H497 H 0.44386 0.34858 0.407 0.0
H498 H 0.35235 0.44526 0.40093 0.0
H499 H 0.40569 0.31097 0.29631 0.0
H500 H 0.40193 0.3754 0.41947 0.0
H501 H 0.33403 0.36292 0.31154 0.0
C502 C 0.32184 0.40466 0.32534 0.0
C503 C 0.32762 0.42851 0.34921 0.0
C504 C 0.40235 0.36087 0.39296 0.0
C505 C 0.35888 0.3809 0.36268 0.0
C506 C 0.42622 0.3455 0.38604 0.0
C507 C 0.42803 0.32782 0.35054 0.0
C508 C 0.38049 0.35918 0.36328 0.0
C509 C 0.40486 0.32448 0.32408 0.0
C510 C 0.33748 0.38069 0.33202 0.0
C511 C 0.34747 0.42717 0.38185 0.0
N512 N 0.38213 0.34056 0.33039 0.0
N513 N 0.36263 0.40388 0.38729 0.0
H514 H 0.0492 0.35216 0.90182 0.0
H515 H 0.18901 0.40571 0.7969 0.0
H516 H 0.08867 0.31153 0.79478 0.0
H517 H 0.14061 0.44898 0.89185 0.0
H518 H 0.1605 0.36421 0.80896 0.0
H519 H 0.09068 0.37981 0.91288 0.0
C520 C 0.06701 0.34866 0.88133 0.0
C521 C 0.06568 0.32983 0.84725 0.0
C522 C 0.15662 0.38258 0.82791 0.0
C523 C 0.11276 0.36211 0.85835 0.0
C524 C 0.17294 0.40611 0.82119 0.0
C525 C 0.1668 0.43062 0.84322 0.0
C526 C 0.13433 0.38384 0.85697 0.0
C527 C 0.14571 0.43043 0.87403 0.0
C528 C 0.09063 0.36451 0.88744 0.0
C529 C 0.08911 0.32594 0.82145 0.0
N530 N 0.13008 0.40751 0.8797 0.0
N531 N 0.11161 0.34246 0.82689 0.0
H532 H 0.14846 0.05183 0.39819 0.0
H533 H 0.08857 0.19126 0.30028 0.0
H534 H 0.18321 0.09206 0.28676 0.0
H535 H 0.04851 0.1399 0.39506 0.0
H536 H 0.13108 0.16386 0.30927 0.0
H537 H 0.12064 0.09286 0.41251 0.0
C538 C 0.15067 0.06973 0.37742 0.0
C539 C 0.16783 0.06875 0.3412 0.0
C540 C 0.1132 0.15911 0.3289 0.0
C541 C 0.13538 0.11526 0.35615 0.0
C542 C 0.08909 0.17479 0.32395 0.0
C543 C 0.06518 0.16747 0.34672 0.0
C544 C 0.11314 0.13627 0.35701 0.0
C545 C 0.06658 0.14591 0.37668 0.0
C546 C 0.13474 0.09308 0.3854 0.0
C547 C 0.1701 0.09225 0.31504 0.0
N548 N 0.09005 0.1309 0.38065 0.0
N549 N 0.15351 0.11447 0.32248 0.0
H550 H 0.34082 0.05679 0.90287 0.0
H551 H 0.40805 0.19183 0.80068 0.0
H552 H 0.31368 0.09284 0.7832 0.0
H553 H 0.44586 0.13869 0.89534 0.0
H554 H 0.36449 0.1661 0.80937 0.0
H555 H 0.36915 0.09767 0.91649 0.0
C556 C 0.34016 0.07386 0.88024 0.0
C557 C 0.3251 0.0717 0.84196 0.0
C558 C 0.38215 0.16061 0.829 0.0
C559 C 0.35812 0.11784 0.85623 0.0
C560 C 0.40687 0.1753 0.82418 0.0
C561 C 0.43044 0.16697 0.84697 0.0
C562 C 0.3812 0.13784 0.85718 0.0
C563 C 0.42812 0.14541 0.87683 0.0
C564 C 0.35643 0.09706 0.88779 0.0
C565 C 0.32504 0.09402 0.8132 0.0
N566 N 0.40401 0.13143 0.88081 0.0
N567 N 0.34184 0.11607 0.82048 0.0
H568 H 0.90386 0.69074 0.18071 0.0
H569 H 0.84802 0.5504 0.08205 0.0
H570 H 0.94549 0.64115 0.08549 0.0
H571 H 0.81004 0.5913 0.19009 0.0
H572 H 0.87529 0.59182 0.06771 0.0
H573 H 0.8618 0.66301 0.16989 0.0
C574 C 0.90375 0.67465 0.15647 0.0
C575 C 0.92799 0.66787 0.13417 0.0
C576 C 0.8606 0.59209 0.09406 0.0
C577 C 0.88059 0.63617 0.12198 0.0
C578 C 0.845 0.5685 0.10205 0.0
C579 C 0.82707 0.56765 0.13733 0.0
C580 C 0.85883 0.61465 0.12243 0.0
C581 C 0.82378 0.5914 0.16255 0.0
C582 C 0.87991 0.65874 0.1505 0.0
C583 C 0.92715 0.64674 0.10349 0.0
N584 N 0.84003 0.61387 0.15518 0.0
N585 N 0.90394 0.63143 0.09865 0.0
H586 H 0.90669 0.79953 0.67734 0.0
H587 H 0.80786 0.90265 0.69514 0.0
H588 H 0.94867 0.8612 0.60134 0.0
H589 H 0.84843 0.94059 0.58669 0.0
H590 H 0.83643 0.86139 0.68535 0.0
H591 H 0.86319 0.825 0.66741 0.0
C592 C 0.90655 0.81815 0.65794 0.0
C593 C 0.93121 0.82874 0.6409 0.0
C594 C 0.83838 0.87812 0.66243 0.0
C595 C 0.88212 0.85816 0.63007 0.0
C596 C 0.82199 0.90167 0.66808 0.0
C597 C 0.82601 0.9248 0.64165 0.0
C598 C 0.85891 0.87808 0.63023 0.0
C599 C 0.84486 0.92303 0.60765 0.0
C600 C 0.88184 0.83288 0.65266 0.0
C601 C 0.93012 0.85274 0.61577 0.0
N602 N 0.86091 0.90026 0.60334 0.0
N603 N 0.90608 0.86672 0.61145 0.0
H604 H 0.5901 0.80594 0.18521 0.0
H605 H 0.65834 0.93965 0.07958 0.0
H606 H 0.55224 0.85842 0.08972 0.0
H607 H 0.68263 0.90652 0.20273 0.0
H608 H 0.63004 0.8985 0.06703 0.0
H609 H 0.63359 0.83181 0.17634 0.0
C610 C 0.59128 0.82234 0.16149 0.0
C611 C 0.56773 0.83044 0.13847 0.0
C612 C 0.6422 0.8998 0.09626 0.0
C613 C 0.61685 0.85969 0.12803 0.0
C614 C 0.65846 0.92312 0.10319 0.0
C615 C 0.67269 0.92616 0.14209 0.0
C616 C 0.63985 0.87977 0.12888 0.0
C617 C 0.67196 0.90461 0.17222 0.0
C618 C 0.61593 0.83711 0.15656 0.0
C619 C 0.57 0.85186 0.10834 0.0
N620 N 0.65533 0.88241 0.16533 0.0
N621 N 0.59407 0.86592 0.10424 0.0
H622 H 0.5914 0.69229 0.67742 0.0
H623 H 0.65339 0.5547 0.5761 0.0
H624 H 0.55044 0.63925 0.58611 0.0
H625 H 0.68421 0.59209 0.69239 0.0
H626 H 0.62556 0.59598 0.56239 0.0
H627 H 0.63427 0.66575 0.66668 0.0
C628 C 0.59175 0.67562 0.65415 0.0
C629 C 0.5675 0.66755 0.63298 0.0
C630 C 0.63897 0.59555 0.59031 0.0
C631 C 0.61592 0.63744 0.62054 0.0
C632 C 0.65494 0.57212 0.59791 0.0
C633 C 0.67091 0.57028 0.63532 0.0
C634 C 0.63854 0.6169 0.62098 0.0
C635 C 0.67212 0.59302 0.66308 0.0
C636 C 0.61607 0.66045 0.64818 0.0
C637 C 0.56874 0.64579 0.60338 0.0
N638 N 0.65564 0.61532 0.6558 0.0
N639 N 0.59247 0.63131 0.59835 0.0
H640 H 0.28122 0.48365 0.94787 0.0
H641 H 0.23904 0.48762 0.19579 0.0
H642 H 0.20746 0.52266 -0.00325 0.0
H643 H 0.32467 0.49175 0.15668 0.0
H644 H 0.22548 0.48675 0.1204 0.0
H645 H 0.29565 0.47399 0.02264 0.0
C646 C 0.26799 0.48986 0.97431 0.0
C647 C 0.24329 0.50416 0.96648 0.0
C648 C 0.24725 0.48757 0.1284 0.0
C649 C 0.25922 0.4928 0.05091 0.0
C650 C 0.25508 0.488 0.17144 0.0
C651 C 0.28309 0.49023 0.1827 0.0
C652 C 0.26747 0.48913 0.09621 0.0
C653 C 0.30284 0.4904 0.14947 0.0
C654 C 0.27625 0.48446 0.01669 0.0
C655 C 0.22682 0.51188 0.00157 0.0
N656 N 0.29463 0.49006 0.10753 0.0
N657 N 0.23504 0.50602 0.04228 0.0
H658 H 0.00729 0.23754 0.69729 0.0
H659 H 0.0075 0.28395 0.45037 0.0
H660 H -9e-05 0.32347 0.66081 0.0
H661 H 0.97672 0.20586 0.49733 0.0
H662 H 0.01676 0.29798 0.52551 0.0
H663 H 0.00903 0.22503 0.62154 0.0
C664 C 0.00628 0.25387 0.67344 0.0
C665 C 0.00296 0.28162 0.68559 0.0
C666 C 0.00822 0.27772 0.51905 0.0
C667 C 0.00502 0.26723 0.59852 0.0
C668 C 0.00308 0.26971 0.47643 0.0
C669 C 0.99111 0.24388 0.46801 0.0
C670 C 0.00195 0.2594 0.55284 0.0
C671 C 0.98564 0.2261 0.50263 0.0
C672 C 0.00725 0.24665 0.63015 0.0
C673 C 0.00211 0.3018 0.65294 0.0
N674 N 0.99113 0.23418 0.54348 0.0
N675 N 0.00292 0.29418 0.61073 0.0
H676 H 0.23129 0.94721 0.96448 0.0
H677 H 0.24527 0.02937 0.17996 0.0
H678 H 0.26083 0.03123 0.96108 0.0
H679 H 0.17592 0.97523 0.15749 0.0
H680 H 0.25549 0.0285 0.10235 0.0
H681 H 0.21479 0.95462 0.03817 0.0
C682 C 0.23408 0.96729 0.97927 0.0
C683 C 0.24733 0.98869 0.95688 0.0
C684 C 0.23784 0.01717 0.11452 0.0
C685 C 0.22918 0.99706 0.04124 0.0
C686 C 0.23208 0.01753 0.15869 0.0
C687 C 0.20975 0.00229 0.1752 0.0
C688 C 0.22162 0.00087 0.08702 0.0
C689 C 0.19327 0.98736 0.14618 0.0
C690 C 0.22461 0.97152 0.02114 0.0
C691 C 0.2505 0.01433 0.97734 0.0
N692 N 0.19981 0.98665 0.10363 0.0
N693 N 0.24189 0.01771 0.01882 0.0
H694 H 0.52638 0.29165 0.49786 0.0
H695 H 0.49442 0.17289 0.66395 0.0
H696 H 0.48669 0.21674 0.4551 0.0
H697 H 0.49592 0.25937 0.69852 0.0
H698 H 0.49365 0.1863 0.58756 0.0
H699 H 0.51821 0.2781 0.57232 0.0
C700 C 0.51586 0.27231 0.50429 0.0
C701 C 0.50733 0.25516 0.47048 0.0
C702 C 0.49377 0.20221 0.61208 0.0
C703 C 0.49809 0.23938 0.5557 0.0
C704 C 0.49432 0.19463 0.65561 0.0
C705 C 0.49557 0.21502 0.6878 0.0
C706 C 0.4949 0.2303 0.60089 0.0
C707 C 0.4952 0.24286 0.67503 0.0
C708 C 0.51105 0.26466 0.54675 0.0
C709 C 0.49352 0.23047 0.48046 0.0
N710 N 0.49526 0.24963 0.63266 0.0
N711 N 0.48965 0.22304 0.52242 0.0
H712 H 0.73614 0.50362 0.28952 0.0
H713 H 0.77896 0.50672 0.5366 0.0
H714 H 0.82204 0.5015 0.32732 0.0
H715 H 0.70554 0.46656 0.48874 0.0
H716 H 0.79345 0.5155 0.46175 0.0
H717 H 0.72291 0.50184 0.36506 0.0
C718 C 0.75229 0.50317 0.31366 0.0
C719 C 0.78031 0.50243 0.30197 0.0
C720 C 0.77418 0.50483 0.46791 0.0
C721 C 0.76509 0.50037 0.38858 0.0
C722 C 0.76588 0.4999 0.51037 0.0
C723 C 0.74114 0.48575 0.51865 0.0
C724 C 0.7572 0.49613 0.43393 0.0
C725 C 0.72491 0.47727 0.4837 0.0
C726 C 0.74466 0.50199 0.35677 0.0
C727 C 0.80022 0.50184 0.3349 0.0
N728 N 0.73316 0.48274 0.44285 0.0
N729 N 0.79222 0.50073 0.37691 0.0
H730 H 0.03021 0.81879 0.81925 0.0
H731 H 0.96789 0.73527 0.01754 0.0
H732 H 0.97164 0.75276 0.79933 0.0
H733 H 0.053 0.76139 0.01194 0.0
H734 H 0.96173 0.75115 0.94264 0.0
H735 H 0.03111 0.80767 0.89611 0.0
C736 C 0.01723 0.80221 0.83111 0.0
C737 C 0.00093 0.78654 0.80283 0.0
C738 C 0.98163 0.75352 0.95813 0.0
C739 C 0.00175 0.774 0.89065 0.0
C740 C 0.98511 0.74466 0.00071 0.0
C741 C 0.01102 0.74696 0.02062 0.0
C742 C 0.00402 0.76539 0.93611 0.0
C743 C 0.03277 0.75907 -0.00249 0.0
C744 C 0.01788 0.79583 0.87488 0.0
C745 C 0.98466 0.76517 0.82002 0.0
N746 N 0.02875 0.76798 0.95652 0.0
N747 N 0.98543 0.75951 0.86297 0.0
H748 H 0.758 0.99149 0.29291 0.0
H749 H 0.71647 0.98711 0.54062 0.0
H750 H 0.67228 0.99462 0.33163 0.0
H751 H 0.78977 0.02728 0.49207 0.0
H752 H 0.7015 0.97892 0.46582 0.0
H753 H 0.77153 0.99265 0.3683 0.0
C754 C 0.74194 0.99205 0.31722 0.0
C755 C 0.7139 0.99322 0.30581 0.0
C756 C 0.72086 0.98943 0.47183 0.0
C757 C 0.72948 0.99453 0.39233 0.0
C758 C 0.72944 0.994 0.51426 0.0
C759 C 0.75428 0.00803 0.52232 0.0
C760 C 0.73765 0.99833 0.43767 0.0
C761 C 0.77035 0.01664 0.4872 0.0
C762 C 0.74976 0.99286 0.36026 0.0
C763 C 0.69413 0.99394 0.33898 0.0
N764 N 0.76182 0.01151 0.44641 0.0
N765 N 0.70231 0.99466 0.38093 0.0
H766 H 0.47596 0.79427 0.98396 0.0
H767 H 0.50533 0.67399 0.82098 0.0
H768 H 0.51205 0.71804 0.02906 0.0
H769 H 0.50845 0.76022 0.78481 0.0
H770 H 0.5065 0.68778 0.89707 0.0
H771 H 0.48567 0.78055 0.91 0.0
C772 C 0.48607 0.77464 0.97814 0.0
C773 C 0.4931 0.75714 0.01239 0.0
C774 C 0.50735 0.70354 0.87228 0.0
C775 C 0.50399 0.74114 0.92786 0.0
C776 C 0.50658 0.69574 0.82891 0.0
C777 C 0.50637 0.71598 0.79635 0.0
C778 C 0.50749 0.73171 0.88295 0.0
C779 C 0.50824 0.74384 0.80861 0.0
C780 C 0.49175 0.76689 0.93599 0.0
C781 C 0.50639 0.73205 0.0033 0.0
N782 N 0.50832 0.75086 0.85086 0.0
N783 N 0.51104 0.7245 0.96163 0.0
H784 H 0.75698 0.50985 0.7891 0.0
H785 H 0.71454 0.51086 0.03662 0.0
H786 H 0.6713 0.50393 0.82734 0.0
H787 H 0.78827 0.47199 0.98726 0.0
H788 H 0.69998 0.52064 0.96199 0.0
H789 H 0.77031 0.50948 0.86463 0.0
C790 C 0.74088 0.50886 0.81331 0.0
C791 C 0.71294 0.50651 0.80177 0.0
C792 C 0.71938 0.51012 0.96781 0.0
C793 C 0.72827 0.50616 0.88833 0.0
C794 C 0.7277 0.50463 0.0101 0.0
C795 C 0.75247 0.49041 0.01778 0.0
C796 C 0.73641 0.50197 0.93352 0.0
C797 C 0.76886 0.4827 0.98257 0.0
C798 C 0.74858 0.50854 0.85641 0.0
C799 C 0.69309 0.50542 0.8348 0.0
N800 N 0.76058 0.48869 0.94194 0.0
N801 N 0.70116 0.5051 0.87679 0.0
H802 H 0.99658 0.66907 0.32557 0.0
H803 H 0.01243 0.79174 0.48936 0.0
H804 H 0.98092 0.75429 0.2916 0.0
H805 H 0.9913 0.71024 0.53499 0.0
H806 H 0.0021 0.77728 0.41596 0.0
H807 H 0.99533 0.6821 0.402 0.0
C808 C 0.99254 0.6904 0.33406 0.0
C809 C 0.98927 0.71067 0.30194 0.0
C810 C -0.00064 0.76257 0.44195 0.0
C811 C 0.98804 0.72559 0.38902 0.0
C812 C 0.00537 0.77079 0.48378 0.0
C813 C 0.00277 0.75207 0.51799 0.0
C814 C 0.99135 0.73518 0.43399 0.0
C815 C 0.99343 0.72522 0.50926 0.0
C816 C 0.99175 0.69776 0.37766 0.0
C817 C 0.98391 0.73794 0.31498 0.0
N818 N 0.98847 0.71735 0.4678 0.0
N819 N 0.98385 0.74462 0.35738 0.0
H820 H 0.78077 0.99015 0.04105 0.0
H821 H 0.7386 0.98859 0.79356 0.0
H822 H 0.70664 0.02797 0.99104 0.0
H823 H 0.82433 0.99338 0.8317 0.0
H824 H 0.72515 0.99103 0.86894 0.0
H825 H 0.79567 0.98052 0.96666 0.0
C826 C 0.76762 0.99628 0.01446 0.0
C827 C 0.74255 0.01003 0.022 0.0
C828 C 0.74691 0.99131 0.86077 0.0
C829 C 0.75909 -0.00135 0.93779 0.0
C830 C 0.75469 0.98976 0.81774 0.0
C831 C 0.7827 0.99108 0.80613 0.0
C832 C 0.76722 0.99389 0.89264 0.0
C833 C 0.8025 0.99256 0.83916 0.0
C834 C 0.77615 0.99086 0.97225 0.0
C835 C 0.72625 0.01759 0.98658 0.0
N836 N 0.79437 0.99403 0.8811 0.0
N837 N 0.73474 0.01166 0.94601 0.0
H838 H 0.52484 0.74931 0.29172 0.0
H839 H 0.44463 0.76488 0.50986 0.0
H840 H 0.47243 0.81973 0.31668 0.0
H841 H 0.52706 0.73095 0.50924 0.0
H842 H 0.45153 0.78096 0.43585 0.0
H843 H 0.52358 0.73794 0.36889 0.0
C844 C 0.51327 0.76246 0.31345 0.0
C845 C 0.49866 0.78545 0.29784 0.0
C846 C 0.46817 0.77019 0.45207 0.0
C847 C 0.49681 0.77232 0.38538 0.0
C848 C 0.46421 0.76091 0.4941 0.0
C849 C 0.48532 0.74659 0.51546 0.0
C850 C 0.49313 0.76447 0.43093 0.0
C851 C 0.51036 0.74206 0.49378 0.0
C852 C 0.51268 0.75604 0.35734 0.0
C853 C 0.48407 0.80188 0.32736 0.0
N854 N 0.51347 0.75064 0.4523 0.0
N855 N 0.48317 0.79475 0.36964 0.0
H856 H 0.17489 0.49403 0.65669 0.0
H857 H 0.2912 0.53909 0.49348 0.0
H858 H 0.26065 0.50121 0.69347 0.0
H859 H 0.22253 0.4896 0.44982 0.0
H860 H 0.27697 0.53091 0.56789 0.0
H861 H 0.18886 0.49685 0.58064 0.0
C862 C 0.1966 0.49592 0.64881 0.0
C863 C 0.21662 0.49746 0.68146 0.0
C864 C 0.26508 0.52177 0.542 0.0
C865 C 0.23248 0.50118 0.5952 0.0
C866 C 0.27305 0.52658 0.4996 0.0
C867 C 0.25796 0.51502 0.46558 0.0
C868 C 0.24155 0.50575 0.55044 0.0
C869 C 0.23475 0.49877 0.47528 0.0
C870 C 0.20451 0.49746 0.60555 0.0
C871 C 0.24449 0.49986 0.66946 0.0
N872 N 0.22702 0.4948 0.51699 0.0
N873 N 0.25154 0.50202 0.62734 0.0
H874 H 0.02595 0.24507 0.18928 0.0
H875 H 0.94495 0.23075 0.97235 0.0
H876 H 0.97149 0.17611 0.1653 0.0
H877 H 0.02747 0.26439 0.97242 0.0
H878 H 0.95226 0.21378 0.04568 0.0
H879 H 0.0254 0.25579 0.11195 0.0
C880 C 0.01411 0.23206 0.16774 0.0
C881 C -0.00138 0.20977 0.18372 0.0
C882 C 0.96886 0.22463 0.02948 0.0
C883 C 0.99763 0.22215 0.0959 0.0
C884 C 0.96466 0.23443 0.98784 0.0
C885 C 0.98563 0.24902 0.96658 0.0
C886 C 0.99394 0.23008 0.05038 0.0
C887 C 0.01086 0.25312 0.98785 0.0
C888 C 0.01394 0.23811 0.12372 0.0
C889 C 0.98376 0.19348 0.15439 0.0
N890 N 0.0142 0.24406 0.02905 0.0
N891 N 0.98328 0.20026 0.11196 0.0
H892 H 0.27018 0.95111 0.46277 0.0
H893 H 0.25228 0.03074 0.68026 0.0
H894 H 0.23426 0.03265 0.46273 0.0
H895 H 0.32308 0.97861 0.6568 0.0
H896 H 0.24225 0.03037 0.60269 0.0
H897 H 0.28695 0.95889 0.5361 0.0
C898 C 0.26608 0.97077 0.4782 0.0
C899 C 0.25089 0.99131 0.45689 0.0
C900 C 0.26018 0.01938 0.61461 0.0
C901 C 0.26941 8e-05 0.54093 0.0
C902 C 0.26585 0.01944 0.6588 0.0
C903 C 0.28848 0.00456 0.67507 0.0
C904 C 0.27687 0.00378 0.58678 0.0
C905 C 0.30544 0.99039 0.64575 0.0
C906 C 0.27571 0.97523 0.51989 0.0
C907 C 0.24609 0.01642 0.47815 0.0
N908 N 0.29903 0.98998 0.60315 0.0
N909 N 0.25492 0.01998 0.51947 0.0
H910 H 0.4677 0.22824 0.97357 0.0
H911 H 0.51988 0.3216 0.16743 0.0
H912 H 0.54918 0.26423 0.97762 0.0
H913 H 0.4705 0.24884 0.19127 0.0
H914 H 0.52137 0.30974 0.09099 0.0
H915 H 0.4597 0.2444 0.04782 0.0
C916 C 0.48372 0.2398 0.98994 0.0
C917 C 0.50918 0.24485 0.96982 0.0
C918 C 0.50997 0.29659 0.11298 0.0
C919 C 0.50001 0.26362 0.05346 0.0
C920 C 0.50895 0.30337 0.15652 0.0
C921 C 0.49519 0.28604 0.18579 0.0
C922 C 0.49673 0.27262 0.09847 0.0
C923 C 0.48154 0.26259 0.16979 0.0
C924 C 0.47919 0.24884 0.03212 0.0
C925 C 0.52937 0.25975 0.99227 0.0
N926 N 0.48264 0.25651 0.12703 0.0
N927 N 0.5243 0.26876 0.03287 0.0
H928 H 0.24067 0.61342 0.28971 0.0
H929 H 0.07752 0.61837 0.25585 0.0
H930 H 0.18804 0.54194 0.30387 0.0
H931 H 0.13283 0.67704 0.196 0.0
H932 H 0.11732 0.59387 0.28529 0.0
H933 H 0.20073 0.64029 0.26571 0.0
C934 C 0.22071 0.60338 0.28788 0.0
C935 C 0.2177 0.57534 0.29874 0.0
C936 C 0.12071 0.6122 0.26591 0.0
C937 C 0.17196 0.6061 0.27176 0.0
C938 C 0.098 0.62636 0.24933 0.0
C939 C 0.10181 0.64978 0.22317 0.0
C940 C 0.14745 0.62165 0.25677 0.0
C941 C 0.12891 0.65901 0.21577 0.0
C942 C 0.19798 0.61873 0.27409 0.0
C943 C 0.19135 0.56343 0.29557 0.0
N944 N 0.15072 0.64489 0.23246 0.0
N945 N 0.16946 0.57891 0.28257 0.0
H946 H 0.87908 0.07517 0.75949 0.0
H947 H 0.88386 0.23853 0.79368 0.0
H948 H 0.82008 0.13084 0.70132 0.0
H949 H 0.95456 0.18541 0.81232 0.0
H950 H 0.85724 0.19867 0.76914 0.0
H951 H 0.9035 0.1148 0.78949 0.0
C952 C 0.871 0.09569 0.75342 0.0
C953 C 0.84749 0.09962 0.72758 0.0
C954 C 0.87857 0.19577 0.77862 0.0
C955 C 0.87557 0.14512 0.76183 0.0
C956 C 0.8938 0.21848 0.79274 0.0
C957 C 0.92156 0.21534 0.80504 0.0
C958 C 0.89102 0.16961 0.77728 0.0
C959 C 0.9333 0.18885 0.80294 0.0
C960 C 0.88513 0.11831 0.77034 0.0
C961 C 0.83816 0.12678 0.72082 0.0
N962 N 0.91793 0.16698 0.78948 0.0
N963 N 0.85226 0.1485 0.73779 0.0
H964 H 0.28147 0.8958 0.34809 0.0
H965 H 0.3705 0.85383 0.146 0.0
H966 H 0.28681 0.94905 0.23677 0.0
H967 H 0.40437 0.84407 0.27377 0.0
H968 H 0.33173 0.87975 0.1767 0.0
H969 H 0.31969 0.86796 0.31912 0.0
C970 C 0.2907 0.90156 0.31755 0.0
C971 C 0.28118 0.92473 0.29474 0.0
C972 C 0.34758 0.87169 0.19791 0.0
C973 C 0.324 0.89279 0.26129 0.0
C974 C 0.3695 0.85671 0.18059 0.0
C975 C 0.39058 0.8468 0.20749 0.0
C976 C 0.34641 0.87615 0.24248 0.0
C977 C 0.38851 0.85145 0.25202 0.0
C978 C 0.31243 0.88578 0.30123 0.0
C979 C 0.29377 0.93144 0.25541 0.0
N980 N 0.36664 0.86569 0.26827 0.0
N981 N 0.31438 0.91531 0.23959 0.0
H982 H 0.61341 0.25822 0.79923 0.0
H983 H 0.61593 0.42106 0.75725 0.0
H984 H 0.54202 0.31073 0.81544 0.0
H985 H 0.67601 0.36518 0.7025 0.0
H986 H 0.59208 0.38168 0.78935 0.0
H987 H 0.63966 0.29808 0.77349 0.0
C988 C 0.60325 0.27814 0.79758 0.0
C989 C 0.57539 0.28108 0.80945 0.0
C990 C 0.61057 0.37807 0.7705 0.0
C991 C 0.60549 0.32683 0.78024 0.0
C992 C 0.62435 0.40057 0.75236 0.0
C993 C 0.64801 0.39648 0.72686 0.0
C994 C 0.6206 0.35125 0.76357 0.0
C995 C 0.65779 0.36935 0.72166 0.0
C996 C 0.61827 0.30086 0.78275 0.0
C997 C 0.56337 0.30743 0.80642 0.0
N998 N 0.64402 0.34776 0.73979 0.0
N999 N 0.57852 0.32929 0.79223 0.0
H1000 H 0.70922 0.4488 0.24079 0.0
H1001 H 0.58687 0.34566 0.20504 0.0
H1002 H 0.71139 0.39544 0.12952 0.0
H1003 H 0.62586 0.35295 0.32957 0.0
H1004 H 0.62621 0.37042 0.17264 0.0
H1005 H 0.67139 0.42096 0.27048 0.0
C1006 C 0.70153 0.43136 0.22249 0.0
C1007 C 0.71333 0.42431 0.18274 0.0
C1008 C 0.62611 0.36629 0.20696 0.0
C1009 C 0.67009 0.39286 0.21608 0.0
C1010 C 0.60378 0.35228 0.22541 0.0
C1011 C 0.60327 0.3472 0.26995 0.0
C1012 C 0.64741 0.37597 0.23357 0.0
C1013 C 0.62561 0.35624 0.29504 0.0
C1014 C 0.68018 0.41545 0.23953 0.0
C1015 C 0.70284 0.40139 0.1604 0.0
N1016 N 0.6466 0.37059 0.2766 0.0
N1017 N 0.68151 0.38656 0.17719 0.0
H1018 H 0.10175 0.71171 0.62234 0.0
H1019 H 0.15147 0.62922 0.82826 0.0
H1020 H 0.05436 0.71116 0.74014 0.0
H1021 H 0.15701 0.59179 0.70235 0.0
H1022 H 0.12536 0.66762 0.79672 0.0
H1023 H 0.13107 0.67469 0.65177 0.0
C1024 C 0.09755 0.70377 0.65434 0.0
C1025 C 0.07555 0.71428 0.67883 0.0
C1026 C 0.1326 0.65111 0.77605 0.0
C1027 C 0.10929 0.6729 0.71279 0.0
C1028 C 0.14771 0.62938 0.79384 0.0
C1029 C 0.15638 0.60733 0.76781 0.0
C1030 C 0.12672 0.65108 0.73182 0.0
C1031 C 0.1506 0.60839 0.72349 0.0
C1032 C 0.1142 0.68274 0.67097 0.0
C1033 C 0.07094 0.70337 0.72011 0.0
N1034 N 0.13617 0.63001 0.70676 0.0
N1035 N 0.08789 0.68345 0.73604 0.0
H1036 H 0.78272 0.05185 0.24898 0.0
H1037 H 0.90399 0.15507 0.20841 0.0
H1038 H 0.7811 0.10252 0.13447 0.0
H1039 H 0.86554 0.14992 0.33366 0.0
H1040 H 0.86439 0.13018 0.17747 0.0
H1041 H 0.81945 0.0813 0.27826 0.0
C1042 C 0.79028 0.06905 0.22993 0.0
C1043 C 0.77901 0.07485 0.18931 0.0
C1044 C 0.8646 0.13487 0.2116 0.0
C1045 C 0.82094 0.10813 0.22222 0.0
C1046 C 0.88707 0.14898 0.22921 0.0
C1047 C 0.88786 0.1546 0.27354 0.0
C1048 C 0.84342 0.12559 0.23885 0.0
C1049 C 0.86554 0.14621 0.29924 0.0
C1050 C 0.81098 0.08589 0.24675 0.0
C1051 C 0.78928 0.09751 0.166 0.0
N1052 N 0.8444 0.13165 0.28164 0.0
N1053 N 0.80999 0.11321 0.18258 0.0
H1054 H 0.32134 0.86553 0.78881 0.0
H1055 H 0.45783 0.81166 0.67211 0.0
H1056 H 0.38136 0.92013 0.73072 0.0
H1057 H 0.3864 0.75986 0.69289 0.0
H1058 H 0.43149 0.85129 0.69862 0.0
H1059 H 0.34603 0.82603 0.75813 0.0
C1060 C 0.33957 0.86926 0.7694 0.0
C1061 C 0.34928 0.89624 0.76242 0.0
C1062 C 0.42158 0.83125 0.69719 0.0
C1063 C 0.3778 0.85111 0.72775 0.0
C1064 C 0.43664 0.80859 0.68227 0.0
C1065 C 0.42433 0.78237 0.68021 0.0
C1066 C 0.39412 0.82763 0.71071 0.0
C1067 C 0.39673 0.77969 0.6937 0.0
C1068 C 0.35363 0.8467 0.75188 0.0
C1069 C 0.37302 0.89976 0.7369 0.0
N1070 N 0.38262 0.802 0.70859 0.0
N1071 N 0.38658 0.87746 0.72084 0.0
H1072 H 0.87285 0.35711 0.83325 0.0
H1073 H 0.77966 0.39414 0.6332 0.0
H1074 H 0.90339 0.34234 0.70458 0.0
H1075 H 0.78651 0.44889 0.74235 0.0
H1076 H 0.81883 0.36718 0.66127 0.0
H1077 H 0.83399 0.38282 0.80281 0.0
C1078 C 0.87118 0.35897 0.79854 0.0
C1079 C 0.89132 0.34757 0.77131 0.0
C1080 C 0.81169 0.38515 0.67884 0.0
C1081 C 0.84688 0.37673 0.73654 0.0
C1082 C 0.78937 0.4004 0.66308 0.0
C1083 C 0.77997 0.42375 0.68554 0.0
C1084 C 0.82401 0.39289 0.71789 0.0
C1085 C 0.79328 0.43112 0.72396 0.0
C1086 C 0.84916 0.37381 0.78132 0.0
C1087 C 0.88831 0.35091 0.72661 0.0
N1088 N 0.81446 0.41553 0.73923 0.0
N1089 N 0.86631 0.36506 0.71048 0.0
H1090 H 0.15494 0.90523 0.20254 0.0
H1091 H 0.04443 0.78875 0.24382 0.0
H1092 H 0.13985 0.87472 0.33114 0.0
H1093 H 0.10126 0.78182 0.13723 0.0
H1094 H 0.07221 0.82715 0.2724 0.0
H1095 H 0.12866 0.86595 0.1735 0.0
C1096 C 0.14627 0.89015 0.22455 0.0
C1097 C 0.14972 0.89298 0.26921 0.0
C1098 C 0.07846 0.81717 0.24272 0.0
C1099 C 0.11908 0.84893 0.23648 0.0
C1100 C 0.06259 0.7955 0.22631 0.0
C1101 C 0.07069 0.78217 0.18825 0.0
C1102 C 0.10202 0.82597 0.22017 0.0
C1103 C 0.09448 0.79151 0.16684 0.0
C1104 C 0.13134 0.86786 0.20803 0.0
C1105 C 0.13794 0.87303 0.29646 0.0
N1106 N 0.10921 0.81306 0.18288 0.0
N1107 N 0.12278 0.852 0.27969 0.0
H1108 H 0.70936 0.04495 0.74552 0.0
H1109 H 0.59266 0.15546 0.7066 0.0
H1110 H 0.7157 0.10101 0.63767 0.0
H1111 H 0.62416 0.13877 0.83413 0.0
H1112 H 0.6319 0.12971 0.67601 0.0
H1113 H 0.67132 0.07287 0.77423 0.0
C1114 C 0.70258 0.06301 0.72776 0.0
C1115 C 0.71562 0.07078 0.68926 0.0
C1116 C 0.63018 0.13196 0.71064 0.0
C1117 C 0.67213 0.10238 0.72151 0.0
C1118 C 0.60789 0.14653 0.72805 0.0
C1119 C 0.60532 0.14933 0.77289 0.0
C1120 C 0.64937 0.11946 0.73839 0.0
C1121 C 0.62554 0.13733 0.79937 0.0
C1122 C 0.68107 0.07897 0.74426 0.0
C1123 C 0.70621 0.09448 0.66761 0.0
N1124 N 0.64653 0.12258 0.78173 0.0
N1125 N 0.68478 0.10937 0.68384 0.0
H1126 H 0.38403 0.73806 0.1751 0.0
H1127 H 0.382 0.57594 0.22267 0.0
H1128 H 0.45697 0.68679 0.17011 0.0
H1129 H 0.32137 0.63206 0.27523 0.0
H1130 H 0.40586 0.61519 0.18991 0.0
H1131 H 0.35731 0.69806 0.19951 0.0
C1132 C 0.3944 0.71837 0.17889 0.0
C1133 C 0.42283 0.7158 0.17073 0.0
C1134 C 0.38722 0.61884 0.20837 0.0
C1135 C 0.39229 0.66999 0.1982 0.0
C1136 C 0.37345 0.59645 0.22683 0.0
C1137 C 0.34971 0.60072 0.25201 0.0
C1138 C 0.37702 0.64567 0.21461 0.0
C1139 C 0.33971 0.62782 0.25638 0.0
C1140 C 0.37914 0.69561 0.19293 0.0
C1141 C 0.43517 0.68978 0.17634 0.0
N1142 N 0.35344 0.6493 0.23792 0.0
N1143 N 0.4198 0.66786 0.18961 0.0
H1144 H 0.40846 0.65574 0.78324 0.0
H1145 H 0.29108 0.54547 0.74825 0.0
H1146 H 0.37456 0.63971 0.6571 0.0
H1147 H 0.28528 0.60184 0.85555 0.0
H1148 H 0.32923 0.57304 0.71908 0.0
H1149 H 0.3698 0.62978 0.81542 0.0
C1150 C 0.39283 0.64691 0.76243 0.0
C1151 C 0.39454 0.64998 0.71752 0.0
C1152 C 0.31961 0.57925 0.74909 0.0
C1153 C 0.35119 0.61985 0.75378 0.0
C1154 C 0.29805 0.56348 0.76587 0.0
C1155 C 0.28507 0.57147 0.80429 0.0
C1156 C 0.32869 0.60272 0.77145 0.0
C1157 C 0.29472 0.59513 0.82569 0.0
C1158 C 0.37088 0.63221 0.78075 0.0
C1159 C 0.37384 0.63808 0.6919 0.0
N1160 N 0.31619 0.60987 0.80915 0.0
N1161 N 0.35322 0.62321 0.71036 0.0
H1162 H 0.84155 0.40824 0.28368 0.0
H1163 H 0.9453 0.28634 0.2445 0.0
H1164 H 0.84807 0.3696 0.15881 0.0
H1165 H 0.8947 0.28559 0.35901 0.0
H1166 H 0.91654 0.32365 0.21518 0.0
H1167 H 0.86703 0.36911 0.31525 0.0
C1168 C 0.84809 0.3914 0.26307 0.0
C1169 C 0.8426 0.39199 0.21867 0.0
C1170 C 0.91184 0.31529 0.24675 0.0
C1171 C 0.87231 0.34807 0.25411 0.0
C1172 C 0.9283 0.29423 0.26359 0.0
C1173 C 0.92229 0.28296 0.30417 0.0
C1174 C 0.88975 0.3256 0.27118 0.0
C1175 C 0.89988 0.29372 0.32749 0.0
C1176 C 0.86255 0.3692 0.28105 0.0
C1177 C 0.85162 0.36977 0.19327 0.0
N1178 N 0.88452 0.31472 0.31085 0.0
N1179 N 0.86645 0.3489 0.21124 0.0
H1180 H 0.12963 0.84877 0.64435 0.0
H1181 H 0.2158 0.89678 0.84676 0.0
H1182 H 0.0953 0.84186 0.77229 0.0
H1183 H 0.2124 0.94663 0.7315 0.0
H1184 H 0.17868 0.86763 0.81787 0.0
H1185 H 0.1683 0.87545 0.674 0.0
C1186 C 0.13057 0.85236 0.67878 0.0
C1187 C 0.10937 0.84311 0.70604 0.0
C1188 C 0.18612 0.88497 0.79905 0.0
C1189 C 0.1533 0.87333 0.73979 0.0
C1190 C 0.20722 0.90153 0.81536 0.0
C1191 C 0.21695 0.92414 0.79145 0.0
C1192 C 0.17537 0.89063 0.75807 0.0
C1193 C 0.20521 0.92951 0.751 0.0
C1194 C 0.1524 0.86779 0.69548 0.0
C1195 C 0.11129 0.84869 0.75029 0.0
N1196 N 0.18516 0.91263 0.73528 0.0
N1197 N 0.133 0.86336 0.76593 0.0
H1198 H 0.61535 0.07639 0.25597 0.0
H1199 H 0.61234 0.23859 0.30081 0.0
H1200 H 0.67602 0.1322 0.20245 0.0
H1201 H 0.54002 0.18658 0.30811 0.0
H1202 H 0.63913 0.19893 0.27533 0.0
H1203 H 0.59109 0.11579 0.28697 0.0
C1204 C 0.62381 0.09689 0.25111 0.0
C1205 C 0.64775 0.10096 0.2263 0.0
C1206 C 0.61741 0.19626 0.28257 0.0
C1207 C 0.61988 0.14618 0.26176 0.0
C1208 C 0.6021 0.21883 0.29723 0.0
C1209 C 0.57384 0.21591 0.30653 0.0
C1210 C 0.60448 0.17051 0.27783 0.0
C1211 C 0.56168 0.18983 0.30109 0.0
C1212 C 0.60978 0.11938 0.26861 0.0
C1213 C 0.65757 0.12808 0.2211 0.0
N1214 N 0.5771 0.16811 0.28728 0.0
N1215 N 0.64357 0.14969 0.23867 0.0
loop_
_geom_bond_atom_site_label_1
_geom_bond_atom_site_label_2
_geom_bond_distance
_geom_bond_site_symmetry_2
_ccdc_geom_bond_type
Sc0 O3 2.025 . S
Sc0 O10 2.105 . S
Sc0 O13 2.105 . S
Sc0 O16 2.105 . S
Sc0 O19 2.105 . S
Sc1 O3 2.025 . S
Sc1 O11 2.105 . S
Sc1 O15 2.105 . S
Sc1 O17 2.105 . S
Sc1 O21 2.105 . S
Sc2 O3 2.025 . S
Sc2 O12 2.105 . S
Sc2 O14 2.105 . S
Sc2 O18 2.105 . S
Sc2 O20 2.105 . S
O3 Sc0 2.025 . S
O3 Sc1 2.025 . S
O3 Sc2 2.025 . S
C4 O10 1.268 . S
C4 O20 1.268 . S
C5 O11 1.268 . S
C5 O19 1.268 . S
C6 O12 1.268 . S
C6 O21 1.268 . S
C7 O13 1.268 . S
C7 O17 1.268 . S
C8 O14 1.268 . S
C8 O16 1.268 . S
C9 O15 1.268 . S
C9 O18 1.268 . S
O10 Sc0 2.105 . S
O10 C4 1.268 . S
O11 Sc1 2.105 . S
O11 C5 1.268 . S
O12 Sc2 2.105 . S
O12 C6 1.268 . S
O13 Sc0 2.105 . S
O13 C7 1.268 . S
O14 Sc2 2.105 . S
O14 C8 1.268 . S
O15 Sc1 2.105 . S
O15 C9 1.268 . S
O16 Sc0 2.105 . S
O16 C8 1.268 . S
O17 Sc1 2.105 . S
O17 C7 1.268 . S
O18 Sc2 2.105 . S
O18 C9 1.268 . S
O19 Sc0 2.105 . S
O19 C5 1.268 . S
O20 Sc2 2.105 . S
O20 C4 1.268 . S
O21 Sc1 2.105 . S
O21 C6 1.268 . S
Sc22 O25 2.025 . S
Sc22 O32 2.105 . S
Sc22 O35 2.105 . S
Sc22 O38 2.105 . S
Sc22 O41 2.105 . S
Sc23 O25 2.025 . S
Sc23 O33 2.105 . S
Sc23 O37 2.105 . S
Sc23 O39 2.105 . S
Sc23 O43 2.105 1_655 S
Sc24 O25 2.025 . S
Sc24 O34 2.105 1_655 S
Sc24 O36 2.105 . S
Sc24 O40 2.105 . S
Sc24 O42 2.105 . S
O25 Sc22 2.025 . S
O25 Sc23 2.025 . S
O25 Sc24 2.025 . S
C26 O32 1.268 . S
C26 O42 1.268 . S
C27 O33 1.268 . S
C27 O41 1.268 . S
C28 O34 1.268 . S
C28 O43 1.268 . S
C29 O35 1.268 . S
C29 O39 1.268 . S
C30 O36 1.268 . S
C30 O38 1.268 . S
C31 O37 1.268 . S
C31 O40 1.268 . S
O32 Sc22 2.105 . S
O32 C26 1.268 . S
O33 Sc23 2.105 . S
O33 C27 1.268 . S
O34 Sc24 2.105 1_455 S
O34 C28 1.268 . S
O35 Sc22 2.105 . S
O35 C29 1.268 . S
O36 Sc24 2.105 . S
O36 C30 1.268 . S
O37 Sc23 2.105 . S
O37 C31 1.268 . S
O38 Sc22 2.105 . S
O38 C30 1.268 . S
O39 Sc23 2.105 . S
O39 C29 1.268 . S
O40 Sc24 2.105 . S
O40 C31 1.268 . S
O41 Sc22 2.105 . S
O41 C27 1.268 . S
O42 Sc24 2.105 . S
O42 C26 1.268 . S
O43 Sc23 2.105 1_455 S
O43 C28 1.268 . S
Sc44 O47 2.025 . S
Sc44 O54 2.105 . S
Sc44 O57 2.105 1_565 S
Sc44 O60 2.105 . S
Sc44 O63 2.105 . S
Sc45 O47 2.025 . S
Sc45 O55 2.105 . S
Sc45 O59 2.105 . S
Sc45 O61 2.105 1_565 S
Sc45 O65 2.105 . S
Sc46 O47 2.025 . S
Sc46 O56 2.105 . S
Sc46 O58 2.105 . S
Sc46 O62 2.105 . S
Sc46 O64 2.105 . S
O47 Sc44 2.025 . S
O47 Sc45 2.025 . S
O47 Sc46 2.025 . S
C48 O54 1.268 . S
C48 O64 1.268 . S
C49 O55 1.268 . S
C49 O63 1.268 . S
C50 O56 1.268 . S
C50 O65 1.268 . S
C51 O57 1.268 . S
C51 O61 1.268 . S
C52 O58 1.268 . S
C52 O60 1.268 . S
C53 O59 1.268 . S
C53 O62 1.268 . S
O54 Sc44 2.105 . S
O54 C48 1.268 . S
O55 Sc45 2.105 . S
O55 C49 1.268 . S
O56 Sc46 2.105 . S
O56 C50 1.268 . S
O57 Sc44 2.105 1_545 S
O57 C51 1.268 . S
O58 Sc46 2.105 . S
O58 C52 1.268 . S
O59 Sc45 2.105 . S
O59 C53 1.268 . S
O60 Sc44 2.105 . S
O60 C52 1.268 . S
O61 Sc45 2.105 1_545 S
O61 C51 1.268 . S
O62 Sc46 2.105 . S
O62 C53 1.268 . S
O63 Sc44 2.105 . S
O63 C49 1.268 . S
O64 Sc46 2.105 . S
O64 C48 1.268 . S
O65 Sc45 2.105 . S
O65 C50 1.268 . S
Sc66 O69 2.025 . S
Sc66 O76 2.105 . S
Sc66 O79 2.105 . S
Sc66 O82 2.105 . S
Sc66 O85 2.105 . S
Sc67 O69 2.025 . S
Sc67 O77 2.105 . S
Sc67 O81 2.105 . S
Sc67 O83 2.105 . S
Sc67 O87 2.105 . S
Sc68 O69 2.025 . S
Sc68 O78 2.105 . S
Sc68 O80 2.105 . S
Sc68 O84 2.105 . S
Sc68 O86 2.105 . S
O69 Sc66 2.025 . S
O69 Sc67 2.025 . S
O69 Sc68 2.025 . S
C70 O76 1.268 . S
C70 O86 1.268 . S
C71 O77 1.268 . S
C71 O85 1.268 . S
C72 O78 1.268 . S
C72 O87 1.268 . S
C73 O79 1.268 . S
C73 O83 1.268 . S
C74 O80 1.268 . S
C74 O82 1.268 . S
C75 O81 1.268 . S
C75 O84 1.268 . S
O76 Sc66 2.105 . S
O76 C70 1.268 . S
O77 Sc67 2.105 . S
O77 C71 1.268 . S
O78 Sc68 2.105 . S
O78 C72 1.268 . S
O79 Sc66 2.105 . S
O79 C73 1.268 . S
O80 Sc68 2.105 . S
O80 C74 1.268 . S
O81 Sc67 2.105 . S
O81 C75 1.268 . S
O82 Sc66 2.105 . S
O82 C74 1.268 . S
O83 Sc67 2.105 . S
O83 C73 1.268 . S
O84 Sc68 2.105 . S
O84 C75 1.268 . S
O85 Sc66 2.105 . S
O85 C71 1.268 . S
O86 Sc68 2.105 . S
O86 C70 1.268 . S
O87 Sc67 2.105 . S
O87 C72 1.268 . S
Sc88 O91 2.025 . S
Sc88 O98 2.105 . S
Sc88 O101 2.105 . S
Sc88 O104 2.105 . S
Sc88 O107 2.105 . S
Sc89 O91 2.025 . S
Sc89 O99 2.105 . S
Sc89 O103 2.105 . S
Sc89 O105 2.105 . S
Sc89 O109 2.105 . S
Sc90 O91 2.025 . S
Sc90 O100 2.105 . S
Sc90 O102 2.105 . S
Sc90 O106 2.105 . S
Sc90 O108 2.105 . S
O91 Sc88 2.025 . S
O91 Sc89 2.025 . S
O91 Sc90 2.025 . S
C92 O98 1.268 . S
C92 O108 1.268 . S
C93 O99 1.268 . S
C93 O107 1.268 . S
C94 O100 1.268 . S
C94 O109 1.268 . S
C95 O101 1.268 . S
C95 O105 1.268 . S
C96 O102 1.268 . S
C96 O104 1.268 . S
C97 O103 1.268 . S
C97 O106 1.268 . S
O98 Sc88 2.105 . S
O98 C92 1.268 . S
O99 Sc89 2.105 . S
O99 C93 1.268 . S
O100 Sc90 2.105 . S
O100 C94 1.268 . S
O101 Sc88 2.105 . S
O101 C95 1.268 . S
O102 Sc90 2.105 . S
O102 C96 1.268 . S
O103 Sc89 2.105 . S
O103 C97 1.268 . S
O104 Sc88 2.105 . S
O104 C96 1.268 . S
O105 Sc89 2.105 . S
O105 C95 1.268 . S
O106 Sc90 2.105 . S
O106 C97 1.268 . S
O107 Sc88 2.105 . S
O107 C93 1.268 . S
O108 Sc90 2.105 . S
O108 C92 1.268 . S
O109 Sc89 2.105 . S
O109 C94 1.268 . S
Sc110 O113 2.025 . S
Sc110 O120 2.105 . S
Sc110 O123 2.105 1_455 S
Sc110 O126 2.105 . S
Sc110 O129 2.105 . S
Sc111 O113 2.025 . S
Sc111 O121 2.105 . S
Sc111 O125 2.105 . S
Sc111 O127 2.105 1_455 S
Sc111 O131 2.105 . S
Sc112 O113 2.025 . S
Sc112 O122 2.105 . S
Sc112 O124 2.105 . S
Sc112 O128 2.105 . S
Sc112 O130 2.105 . S
O113 Sc110 2.025 . S
O113 Sc111 2.025 . S
O113 Sc112 2.025 . S
C114 O120 1.268 . S
C114 O130 1.268 . S
C115 O121 1.268 . S
C115 O129 1.268 . S
C116 O122 1.268 . S
C116 O131 1.268 . S
C117 O123 1.268 . S
C117 O127 1.268 . S
C118 O124 1.268 . S
C118 O126 1.268 . S
C119 O125 1.268 . S
C119 O128 1.268 . S
O120 Sc110 2.105 . S
O120 C114 1.268 . S
O121 Sc111 2.105 . S
O121 C115 1.268 . S
O122 Sc112 2.105 . S
O122 C116 1.268 . S
O123 Sc110 2.105 1_655 S
O123 C117 1.268 . S
O124 Sc112 2.105 . S
O124 C118 1.268 . S
O125 Sc111 2.105 . S
O125 C119 1.268 . S
O126 Sc110 2.105 . S
O126 C118 1.268 . S
O127 Sc111 2.105 1_655 S
O127 C117 1.268 . S
O128 Sc112 2.105 . S
O128 C119 1.268 . S
O129 Sc110 2.105 . S
O129 C115 1.268 . S
O130 Sc112 2.105 . S
O130 C114 1.268 . S
O131 Sc111 2.105 . S
O131 C116 1.268 . S
Sc132 O135 2.025 . S
Sc132 O142 2.105 . S
Sc132 O145 2.105 1_545 S
Sc132 O148 2.105 . S
Sc132 O151 2.105 . S
Sc133 O135 2.025 . S
Sc133 O143 2.105 . S
Sc133 O147 2.105 . S
Sc133 O149 2.105 1_545 S
Sc133 O153 2.105 . S
Sc134 O135 2.025 . S
Sc134 O144 2.105 . S
Sc134 O146 2.105 . S
Sc134 O150 2.105 . S
Sc134 O152 2.105 . S
O135 Sc132 2.025 . S
O135 Sc133 2.025 . S
O135 Sc134 2.025 . S
C136 O142 1.268 . S
C136 O152 1.268 . S
C137 O143 1.268 . S
C137 O151 1.268 . S
C138 O144 1.268 . S
C138 O153 1.268 . S
C139 O145 1.268 . S
C139 O149 1.268 . S
C140 O146 1.268 . S
C140 O148 1.268 . S
C141 O147 1.268 . S
C141 O150 1.268 . S
O142 Sc132 2.105 . S
O142 C136 1.268 . S
O143 Sc133 2.105 . S
O143 C137 1.268 . S
O144 Sc134 2.105 . S
O144 C138 1.268 . S
O145 Sc132 2.105 1_565 S
O145 C139 1.268 . S
O146 Sc134 2.105 . S
O146 C140 1.268 . S
O147 Sc133 2.105 . S
O147 C141 1.268 . S
O148 Sc132 2.105 . S
O148 C140 1.268 . S
O149 Sc133 2.105 1_565 S
O149 C139 1.268 . S
O150 Sc134 2.105 . S
O150 C141 1.268 . S
O151 Sc132 2.105 . S
O151 C137 1.268 . S
O152 Sc134 2.105 . S
O152 C136 1.268 . S
O153 Sc133 2.105 . S
O153 C138 1.268 . S
Sc154 O157 2.025 . S
Sc154 O164 2.105 . S
Sc154 O167 2.105 . S
Sc154 O170 2.105 . S
Sc154 O173 2.105 . S
Sc155 O157 2.025 . S
Sc155 O165 2.105 . S
Sc155 O169 2.105 . S
Sc155 O171 2.105 . S
Sc155 O175 2.105 . S
Sc156 O157 2.025 . S
Sc156 O166 2.105 . S
Sc156 O168 2.105 . S
Sc156 O172 2.105 . S
Sc156 O174 2.105 . S
O157 Sc154 2.025 . S
O157 Sc155 2.025 . S
O157 Sc156 2.025 . S
C158 O164 1.268 . S
C158 O174 1.268 . S
C159 O165 1.268 . S
C159 O173 1.268 . S
C160 O166 1.268 . S
C160 O175 1.268 . S
C161 O167 1.268 . S
C161 O171 1.268 . S
C162 O168 1.268 . S
C162 O170 1.268 . S
C163 O169 1.268 . S
C163 O172 1.268 . S
O164 Sc154 2.105 . S
O164 C158 1.268 . S
O165 Sc155 2.105 . S
O165 C159 1.268 . S
O166 Sc156 2.105 . S
O166 C160 1.268 . S
O167 Sc154 2.105 . S
O167 C161 1.268 . S
O168 Sc156 2.105 . S
O168 C162 1.268 . S
O169 Sc155 2.105 . S
O169 C163 1.268 . S
O170 Sc154 2.105 . S
O170 C162 1.268 . S
O171 Sc155 2.105 . S
O171 C161 1.268 . S
O172 Sc156 2.105 . S
O172 C163 1.268 . S
O173 Sc154 2.105 . S
O173 C159 1.268 . S
O174 Sc156 2.105 . S
O174 C158 1.268 . S
O175 Sc155 2.105 . S
O175 C160 1.268 . S
Sc176 O179 2.025 . S
Sc176 O186 2.105 . S
Sc176 O189 2.105 . S
Sc176 O192 2.105 . S
Sc176 O195 2.105 . S
Sc177 O179 2.025 . S
Sc177 O187 2.105 . S
Sc177 O191 2.105 . S
Sc177 O193 2.105 . S
Sc177 O197 2.105 . S
Sc178 O179 2.025 . S
Sc178 O188 2.105 . S
Sc178 O190 2.105 . S
Sc178 O194 2.105 . S
Sc178 O196 2.105 . S
O179 Sc176 2.025 . S
O179 Sc177 2.025 . S
O179 Sc178 2.025 . S
C180 O186 1.268 . S
C180 O196 1.268 . S
C181 O187 1.268 . S
C181 O195 1.268 . S
C182 O188 1.268 . S
C182 O197 1.268 . S
C183 O189 1.268 . S
C183 O193 1.268 . S
C184 O190 1.268 . S
C184 O192 1.268 . S
C185 O191 1.268 . S
C185 O194 1.268 . S
O186 Sc176 2.105 . S
O186 C180 1.268 . S
O187 Sc177 2.105 . S
O187 C181 1.268 . S
O188 Sc178 2.105 . S
O188 C182 1.268 . S
O189 Sc176 2.105 . S
O189 C183 1.268 . S
O190 Sc178 2.105 . S
O190 C184 1.268 . S
O191 Sc177 2.105 . S
O191 C185 1.268 . S
O192 Sc176 2.105 . S
O192 C184 1.268 . S
O193 Sc177 2.105 . S
O193 C183 1.268 . S
O194 Sc178 2.105 . S
O194 C185 1.268 . S
O195 Sc176 2.105 . S
O195 C181 1.268 . S
O196 Sc178 2.105 . S
O196 C180 1.268 . S
O197 Sc177 2.105 . S
O197 C182 1.268 . S
Sc198 O201 2.025 . S
Sc198 O208 2.105 . S
Sc198 O211 2.105 . S
Sc198 O214 2.105 . S
Sc198 O217 2.105 1_455 S
Sc199 O201 2.025 . S
Sc199 O209 2.105 1_455 S
Sc199 O213 2.105 . S
Sc199 O215 2.105 . S
Sc199 O219 2.105 . S
Sc200 O201 2.025 . S
Sc200 O210 2.105 . S
Sc200 O212 2.105 . S
Sc200 O216 2.105 . S
Sc200 O218 2.105 . S
O201 Sc198 2.025 . S
O201 Sc199 2.025 . S
O201 Sc200 2.025 . S
C202 O208 1.268 . S
C202 O218 1.268 . S
C203 O209 1.268 . S
C203 O217 1.268 . S
C204 O210 1.268 . S
C204 O219 1.268 . S
C205 O211 1.268 . S
C205 O215 1.268 . S
C206 O212 1.268 . S
C206 O214 1.268 . S
C207 O213 1.268 . S
C207 O216 1.268 . S
O208 Sc198 2.105 . S
O208 C202 1.268 . S
O209 Sc199 2.105 1_655 S
O209 C203 1.268 . S
O210 Sc200 2.105 . S
O210 C204 1.268 . S
O211 Sc198 2.105 . S
O211 C205 1.268 . S
O212 Sc200 2.105 . S
O212 C206 1.268 . S
O213 Sc199 2.105 . S
O213 C207 1.268 . S
O214 Sc198 2.105 . S
O214 C206 1.268 . S
O215 Sc199 2.105 . S
O215 C205 1.268 . S
O216 Sc200 2.105 . S
O216 C207 1.268 . S
O217 Sc198 2.105 1_655 S
O217 C203 1.268 . S
O218 Sc200 2.105 . S
O218 C202 1.268 . S
O219 Sc199 2.105 . S
O219 C204 1.268 . S
Sc220 O223 2.025 . S
Sc220 O230 2.105 . S
Sc220 O233 2.105 . S
Sc220 O236 2.105 . S
Sc220 O239 2.105 . S
Sc221 O223 2.025 . S
Sc221 O231 2.105 . S
Sc221 O235 2.105 1_545 S
Sc221 O237 2.105 . S
Sc221 O241 2.105 . S
Sc222 O223 2.025 . S
Sc222 O232 2.105 . S
Sc222 O234 2.105 . S
Sc222 O238 2.105 1_545 S
Sc222 O240 2.105 . S
O223 Sc220 2.025 . S
O223 Sc221 2.025 . S
O223 Sc222 2.025 . S
C224 O230 1.268 . S
C224 O240 1.268 . S
C225 O231 1.268 . S
C225 O239 1.268 . S
C226 O232 1.268 . S
C226 O241 1.268 . S
C227 O233 1.268 . S
C227 O237 1.268 . S
C228 O234 1.268 . S
C228 O236 1.268 . S
C229 O235 1.268 . S
C229 O238 1.268 . S
O230 Sc220 2.105 . S
O230 C224 1.268 . S
O231 Sc221 2.105 . S
O231 C225 1.268 . S
O232 Sc222 2.105 . S
O232 C226 1.268 . S
O233 Sc220 2.105 . S
O233 C227 1.268 . S
O234 Sc222 2.105 . S
O234 C228 1.268 . S
O235 Sc221 2.105 1_565 S
O235 C229 1.268 . S
O236 Sc220 2.105 . S
O236 C228 1.268 . S
O237 Sc221 2.105 . S
O237 C227 1.268 . S
O238 Sc222 2.105 1_565 S
O238 C229 1.268 . S
O239 Sc220 2.105 . S
O239 C225 1.268 . S
O240 Sc222 2.105 . S
O240 C224 1.268 . S
O241 Sc221 2.105 . S
O241 C226 1.268 . S
Sc242 O245 2.025 . S
Sc242 O252 2.105 . S
Sc242 O255 2.105 . S
Sc242 O258 2.105 . S
Sc242 O261 2.105 . S
Sc243 O245 2.025 . S
Sc243 O253 2.105 . S
Sc243 O257 2.105 . S
Sc243 O259 2.105 . S
Sc243 O263 2.105 . S
Sc244 O245 2.025 . S
Sc244 O254 2.105 . S
Sc244 O256 2.105 . S
Sc244 O260 2.105 . S
Sc244 O262 2.105 . S
O245 Sc242 2.025 . S
O245 Sc243 2.025 . S
O245 Sc244 2.025 . S
C246 O252 1.268 . S
C246 O262 1.268 . S
C247 O253 1.268 . S
C247 O261 1.268 . S
C248 O254 1.268 . S
C248 O263 1.268 . S
C249 O255 1.268 . S
C249 O259 1.268 . S
C250 O256 1.268 . S
C250 O258 1.268 . S
C251 O257 1.268 . S
C251 O260 1.268 . S
O252 Sc242 2.105 . S
O252 C246 1.268 . S
O253 Sc243 2.105 . S
O253 C247 1.268 . S
O254 Sc244 2.105 . S
O254 C248 1.268 . S
O255 Sc242 2.105 . S
O255 C249 1.268 . S
O256 Sc244 2.105 . S
O256 C250 1.268 . S
O257 Sc243 2.105 . S
O257 C251 1.268 . S
O258 Sc242 2.105 . S
O258 C250 1.268 . S
O259 Sc243 2.105 . S
O259 C249 1.268 . S
O260 Sc244 2.105 . S
O260 C251 1.268 . S
O261 Sc242 2.105 . S
O261 C247 1.268 . S
O262 Sc244 2.105 . S
O262 C246 1.268 . S
O263 Sc243 2.105 . S
O263 C248 1.268 . S
Sc264 O267 2.025 . S
Sc264 O274 2.105 . S
Sc264 O277 2.105 . S
Sc264 O280 2.105 . S
Sc264 O283 2.105 . S
Sc265 O267 2.025 . S
Sc265 O275 2.105 . S
Sc265 O279 2.105 . S
Sc265 O281 2.105 . S
Sc265 O285 2.105 . S
Sc266 O267 2.025 . S
Sc266 O276 2.105 . S
Sc266 O278 2.105 . S
Sc266 O282 2.105 . S
Sc266 O284 2.105 . S
O267 Sc264 2.025 . S
O267 Sc265 2.025 . S
O267 Sc266 2.025 . S
C268 O274 1.268 . S
C268 O284 1.268 . S
C269 O275 1.268 . S
C269 O283 1.268 . S
C270 O276 1.268 . S
C270 O285 1.268 . S
C271 O277 1.268 . S
C271 O281 1.268 . S
C272 O278 1.268 . S
C272 O280 1.268 . S
C273 O279 1.268 . S
C273 O282 1.268 . S
O274 Sc264 2.105 . S
O274 C268 1.268 . S
O275 Sc265 2.105 . S
O275 C269 1.268 . S
O276 Sc266 2.105 . S
O276 C270 1.268 . S
O277 Sc264 2.105 . S
O277 C271 1.268 . S
O278 Sc266 2.105 . S
O278 C272 1.268 . S
O279 Sc265 2.105 . S
O279 C273 1.268 . S
O280 Sc264 2.105 . S
O280 C272 1.268 . S
O281 Sc265 2.105 . S
O281 C271 1.268 . S
O282 Sc266 2.105 . S
O282 C273 1.268 . S
O283 Sc264 2.105 . S
O283 C269 1.268 . S
O284 Sc266 2.105 . S
O284 C268 1.268 . S
O285 Sc265 2.105 . S
O285 C270 1.268 . S
Sc286 O289 2.025 . S
Sc286 O296 2.105 . S
Sc286 O299 2.105 . S
Sc286 O302 2.105 . S
Sc286 O305 2.105 . S
Sc287 O289 2.025 . S
Sc287 O297 2.105 . S
Sc287 O301 2.105 1_655 S
Sc287 O303 2.105 . S
Sc287 O307 2.105 . S
Sc288 O289 2.025 . S
Sc288 O298 2.105 . S
Sc288 O300 2.105 . S
Sc288 O304 2.105 1_655 S
Sc288 O306 2.105 . S
O289 Sc286 2.025 . S
O289 Sc287 2.025 . S
O289 Sc288 2.025 . S
C290 O296 1.268 . S
C290 O306 1.268 . S
C291 O297 1.268 . S
C291 O305 1.268 . S
C292 O298 1.268 . S
C292 O307 1.268 . S
C293 O299 1.268 . S
C293 O303 1.268 . S
C294 O300 1.268 . S
C294 O302 1.268 . S
C295 O301 1.268 . S
C295 O304 1.268 . S
O296 Sc286 2.105 . S
O296 C290 1.268 . S
O297 Sc287 2.105 . S
O297 C291 1.268 . S
O298 Sc288 2.105 . S
O298 C292 1.268 . S
O299 Sc286 2.105 . S
O299 C293 1.268 . S
O300 Sc288 2.105 . S
O300 C294 1.268 . S
O301 Sc287 2.105 1_455 S
O301 C295 1.268 . S
O302 Sc286 2.105 . S
O302 C294 1.268 . S
O303 Sc287 2.105 . S
O303 C293 1.268 . S
O304 Sc288 2.105 1_455 S
O304 C295 1.268 . S
O305 Sc286 2.105 . S
O305 C291 1.268 . S
O306 Sc288 2.105 . S
O306 C290 1.268 . S
O307 Sc287 2.105 . S
O307 C292 1.268 . S
Sc308 O311 2.025 . S
Sc308 O318 2.105 . S
Sc308 O321 2.105 . S
Sc308 O324 2.105 . S
Sc308 O327 2.105 . S
Sc309 O311 2.025 . S
Sc309 O319 2.105 . S
Sc309 O323 2.105 1_565 S
Sc309 O325 2.105 . S
Sc309 O329 2.105 . S
Sc310 O311 2.025 . S
Sc310 O320 2.105 . S
Sc310 O322 2.105 . S
Sc310 O326 2.105 1_565 S
Sc310 O328 2.105 . S
O311 Sc308 2.025 . S
O311 Sc309 2.025 . S
O311 Sc310 2.025 . S
C312 O318 1.268 . S
C312 O328 1.268 . S
C313 O319 1.268 . S
C313 O327 1.268 . S
C314 O320 1.268 . S
C314 O329 1.268 . S
C315 O321 1.268 . S
C315 O325 1.268 . S
C316 O322 1.268 . S
C316 O324 1.268 . S
C317 O323 1.268 . S
C317 O326 1.268 . S
O318 Sc308 2.105 . S
O318 C312 1.268 . S
O319 Sc309 2.105 . S
O319 C313 1.268 . S
O320 Sc310 2.105 . S
O320 C314 1.268 . S
O321 Sc308 2.105 . S
O321 C315 1.268 . S
O322 Sc310 2.105 . S
O322 C316 1.268 . S
O323 Sc309 2.105 1_545 S
O323 C317 1.268 . S
O324 Sc308 2.105 . S
O324 C316 1.268 . S
O325 Sc309 2.105 . S
O325 C315 1.268 . S
O326 Sc310 2.105 1_545 S
O326 C317 1.268 . S
O327 Sc308 2.105 . S
O327 C313 1.268 . S
O328 Sc310 2.105 . S
O328 C312 1.268 . S
O329 Sc309 2.105 . S
O329 C314 1.268 . S
Sc330 O333 2.025 . S
Sc330 O340 2.105 . S
Sc330 O343 2.105 . S
Sc330 O346 2.105 . S
Sc330 O349 2.105 . S
Sc331 O333 2.025 . S
Sc331 O341 2.105 . S
Sc331 O345 2.105 . S
Sc331 O347 2.105 . S
Sc331 O351 2.105 . S
Sc332 O333 2.025 . S
Sc332 O342 2.105 . S
Sc332 O344 2.105 . S
Sc332 O348 2.105 . S
Sc332 O350 2.105 . S
O333 Sc330 2.025 . S
O333 Sc331 2.025 . S
O333 Sc332 2.025 . S
C334 O340 1.268 . S
C334 O350 1.268 . S
C335 O341 1.268 . S
C335 O349 1.268 . S
C336 O342 1.268 . S
C336 O351 1.268 . S
C337 O343 1.268 . S
C337 O347 1.268 . S
C338 O344 1.268 . S
C338 O346 1.268 . S
C339 O345 1.268 . S
C339 O348 1.268 . S
O340 Sc330 2.105 . S
O340 C334 1.268 . S
O341 Sc331 2.105 . S
O341 C335 1.268 . S
O342 Sc332 2.105 . S
O342 C336 1.268 . S
O343 Sc330 2.105 . S
O343 C337 1.268 . S
O344 Sc332 2.105 . S
O344 C338 1.268 . S
O345 Sc331 2.105 . S
O345 C339 1.268 . S
O346 Sc330 2.105 . S
O346 C338 1.268 . S
O347 Sc331 2.105 . S
O347 C337 1.268 . S
O348 Sc332 2.105 . S
O348 C339 1.268 . S
O349 Sc330 2.105 . S
O349 C335 1.268 . S
O350 Sc332 2.105 . S
O350 C334 1.268 . S
O351 Sc331 2.105 . S
O351 C336 1.268 . S
H352 C358 0.930 . S
H353 C362 0.930 . S
H354 C367 0.929 . S
H355 C365 0.929 . S
H356 C360 0.929 . S
H357 C366 0.929 . S
C358 H352 0.930 . S
C358 C359 1.367 . S
C358 C366 1.378 . S
C359 C358 1.367 . S
C359 C367 1.433 . S
C360 H356 0.929 . S
C360 C362 1.378 . S
C360 C364 1.350 . S
C361 C364 1.463 . S
C361 C366 1.350 . S
C361 N369 1.427 . S
C362 H353 0.930 . S
C362 C360 1.378 . S
C362 C363 1.367 . S
C363 C362 1.367 . S
C363 C365 1.433 . S
C364 C360 1.350 . S
C364 C361 1.463 . S
C364 N368 1.427 . S
C365 H355 0.929 . S
C365 C363 1.433 . S
C365 N368 1.384 . S
C366 H357 0.929 . S
C366 C358 1.378 . S
C366 C361 1.350 . S
C367 H354 0.929 . S
C367 C359 1.433 . S
C367 N369 1.384 . S
N368 C364 1.427 . S
N368 C365 1.384 . S
N369 C361 1.427 . S
N369 C367 1.384 . S
H370 C376 0.930 . S
H371 C380 0.930 . S
H372 C385 0.929 . S
H373 C383 0.929 . S
H374 C378 0.929 . S
H375 C384 0.929 . S
C376 H370 0.930 . S
C376 C377 1.367 . S
C376 C384 1.378 . S
C377 C376 1.367 . S
C377 C385 1.433 . S
C378 H374 0.929 . S
C378 C380 1.378 . S
C378 C382 1.350 . S
C379 C382 1.463 1_554 S
C379 C384 1.350 . S
C379 N387 1.427 . S
C380 H371 0.930 . S
C380 C378 1.378 . S
C380 C381 1.367 . S
C381 C380 1.367 . S
C381 C383 1.433 . S
C382 C378 1.350 . S
C382 C379 1.463 1_556 S
C382 N386 1.427 . S
C383 H373 0.929 . S
C383 C381 1.433 . S
C383 N386 1.384 . S
C384 H375 0.929 . S
C384 C376 1.378 . S
C384 C379 1.350 . S
C385 H372 0.929 . S
C385 C377 1.433 . S
C385 N387 1.384 . S
N386 C382 1.427 . S
N386 C383 1.384 . S
N387 C379 1.427 . S
N387 C385 1.384 . S
H388 C394 0.930 . S
H389 C398 0.930 . S
H390 C403 0.929 . S
H391 C401 0.929 . S
H392 C396 0.929 . S
H393 C402 0.929 . S
C394 H388 0.930 . S
C394 C395 1.367 . S
C394 C402 1.378 . S
C395 C394 1.367 . S
C395 C403 1.433 . S
C396 H392 0.929 . S
C396 C398 1.378 . S
C396 C400 1.350 . S
C397 C400 1.463 . S
C397 C402 1.350 . S
C397 N405 1.427 . S
C398 H389 0.930 . S
C398 C396 1.378 . S
C398 C399 1.367 . S
C399 C398 1.367 . S
C399 C401 1.433 . S
C400 C396 1.350 . S
C400 C397 1.463 . S
C400 N404 1.427 . S
C401 H391 0.929 . S
C401 C399 1.433 . S
C401 N404 1.384 . S
C402 H393 0.929 . S
C402 C394 1.378 . S
C402 C397 1.350 . S
C403 H390 0.929 . S
C403 C395 1.433 . S
C403 N405 1.384 . S
N404 C400 1.427 . S
N404 C401 1.384 . S
N405 C397 1.427 . S
N405 C403 1.384 . S
H406 C412 0.930 . S
H407 C416 0.930 . S
H408 C421 0.929 . S
H409 C419 0.929 . S
H410 C414 0.929 . S
H411 C420 0.929 . S
C412 H406 0.930 . S
C412 C413 1.367 . S
C412 C420 1.378 . S
C413 C412 1.367 . S
C413 C421 1.433 . S
C414 H410 0.929 . S
C414 C416 1.378 . S
C414 C418 1.350 . S
C415 C418 1.463 1_556 S
C415 C420 1.350 . S
C415 N423 1.427 . S
C416 H407 0.930 . S
C416 C414 1.378 . S
C416 C417 1.367 . S
C417 C416 1.367 . S
C417 C419 1.433 . S
C418 C414 1.350 . S
C418 C415 1.463 1_554 S
C418 N422 1.427 . S
C419 H409 0.929 . S
C419 C417 1.433 . S
C419 N422 1.384 . S
C420 H411 0.929 . S
C420 C412 1.378 . S
C420 C415 1.350 . S
C421 H408 0.929 . S
C421 C413 1.433 . S
C421 N423 1.384 . S
N422 C418 1.427 . S
N422 C419 1.384 . S
N423 C415 1.427 . S
N423 C421 1.384 . S
H424 C430 0.930 . S
H425 C434 0.930 . S
H426 C439 0.929 . S
H427 C437 0.929 . S
H428 C432 0.929 . S
H429 C438 0.929 . S
C430 H424 0.930 . S
C430 C431 1.367 . S
C430 C438 1.378 . S
C431 C430 1.367 . S
C431 C439 1.433 . S
C432 H428 0.929 . S
C432 C434 1.378 . S
C432 C436 1.350 . S
C433 C436 1.463 . S
C433 C438 1.350 . S
C433 N441 1.427 . S
C434 H425 0.930 . S
C434 C432 1.378 . S
C434 C435 1.367 . S
C435 C434 1.367 . S
C435 C437 1.433 . S
C436 C432 1.350 . S
C436 C433 1.463 . S
C436 N440 1.427 . S
C437 H427 0.929 . S
C437 C435 1.433 . S
C437 N440 1.384 . S
C438 H429 0.929 . S
C438 C430 1.378 . S
C438 C433 1.350 . S
C439 H426 0.929 . S
C439 C431 1.433 . S
C439 N441 1.384 . S
N440 C436 1.427 . S
N440 C437 1.384 . S
N441 C433 1.427 . S
N441 C439 1.384 . S
H442 C448 0.930 . S
H443 C452 0.930 . S
H444 C457 0.929 . S
H445 C455 0.929 . S
H446 C450 0.929 . S
H447 C456 0.929 . S
C448 H442 0.930 . S
C448 C449 1.367 . S
C448 C456 1.378 . S
C449 C448 1.367 . S
C449 C457 1.433 . S
C450 H446 0.929 . S
C450 C452 1.378 . S
C450 C454 1.350 . S
C451 C454 1.463 1_556 S
C451 C456 1.350 . S
C451 N459 1.435 . S
C452 H443 0.930 . S
C452 C450 1.378 . S
C452 C453 1.367 . S
C453 C452 1.367 . S
C453 C455 1.433 . S
C454 C450 1.350 . S
C454 C451 1.463 1_554 S
C454 N458 1.435 . S
C455 H445 0.929 . S
C455 C453 1.433 . S
C455 N458 1.397 . S
C456 H447 0.929 . S
C456 C448 1.378 . S
C456 C451 1.350 . S
C457 H444 0.929 . S
C457 C449 1.433 . S
C457 N459 1.398 . S
N458 C454 1.435 . S
N458 C455 1.397 . S
N459 C451 1.435 . S
N459 C457 1.398 . S
H460 C466 0.930 . S
H461 C470 0.930 . S
H462 C475 0.929 . S
H463 C473 0.929 . S
H464 C468 0.929 . S
H465 C474 0.929 . S
C466 H460 0.930 . S
C466 C467 1.367 . S
C466 C474 1.378 . S
C467 C466 1.367 . S
C467 C475 1.433 . S
C468 H464 0.929 . S
C468 C470 1.378 . S
C468 C472 1.350 . S
C469 C472 1.463 . S
C469 C474 1.350 . S
C469 N477 1.427 . S
C470 H461 0.930 . S
C470 C468 1.378 . S
C470 C471 1.367 . S
C471 C470 1.367 . S
C471 C473 1.433 . S
C472 C468 1.350 . S
C472 C469 1.463 . S
C472 N476 1.427 . S
C473 H463 0.929 . S
C473 C471 1.433 . S
C473 N476 1.384 . S
C474 H465 0.929 . S
C474 C466 1.378 . S
C474 C469 1.350 . S
C475 H462 0.929 . S
C475 C467 1.433 . S
C475 N477 1.384 . S
N476 C472 1.427 . S
N476 C473 1.384 . S
N477 C469 1.427 . S
N477 C475 1.384 . S
H478 C484 0.930 . S
H479 C488 0.930 . S
H480 C493 0.929 . S
H481 C491 0.929 . S
H482 C486 0.929 1_556 S
H483 C492 0.929 1_554 S
C484 H478 0.930 . S
C484 C485 1.367 . S
C484 C492 1.378 . S
C485 C484 1.367 . S
C485 C493 1.433 . S
C486 H482 0.929 1_554 S
C486 C488 1.378 . S
C486 C490 1.350 . S
C487 C490 1.463 1_556 S
C487 C492 1.350 . S
C487 N495 1.427 . S
C488 H479 0.930 . S
C488 C486 1.378 . S
C488 C489 1.367 . S
C489 C488 1.367 . S
C489 C491 1.433 . S
C490 C486 1.350 . S
C490 C487 1.463 1_554 S
C490 N494 1.427 . S
C491 H481 0.929 . S
C491 C489 1.433 . S
C491 N494 1.384 . S
C492 H483 0.929 1_556 S
C492 C484 1.378 . S
C492 C487 1.350 . S
C493 H480 0.929 . S
C493 C485 1.433 . S
C493 N495 1.384 . S
N494 C490 1.427 . S
N494 C491 1.384 . S
N495 C487 1.427 . S
N495 C493 1.384 . S
H496 C502 0.930 . S
H497 C506 0.930 . S
H498 C511 0.929 . S
H499 C509 0.929 . S
H500 C504 0.929 . S
H501 C510 0.929 . S
C502 H496 0.930 . S
C502 C503 1.367 . S
C502 C510 1.378 . S
C503 C502 1.367 . S
C503 C511 1.433 . S
C504 H500 0.929 . S
C504 C506 1.378 . S
C504 C508 1.350 . S
C505 C508 1.463 . S
C505 C510 1.350 . S
C505 N513 1.427 . S
C506 H497 0.930 . S
C506 C504 1.378 . S
C506 C507 1.367 . S
C507 C506 1.367 . S
C507 C509 1.433 . S
C508 C504 1.350 . S
C508 C505 1.463 . S
C508 N512 1.427 . S
C509 H499 0.929 . S
C509 C507 1.433 . S
C509 N512 1.384 . S
C510 H501 0.929 . S
C510 C502 1.378 . S
C510 C505 1.350 . S
C511 H498 0.929 . S
C511 C503 1.433 . S
C511 N513 1.384 . S
N512 C508 1.427 . S
N512 C509 1.384 . S
N513 C505 1.427 . S
N513 C511 1.384 . S
H514 C520 0.930 . S
H515 C524 0.930 . S
H516 C529 0.929 . S
H517 C527 0.929 . S
H518 C522 0.929 . S
H519 C528 0.929 . S
C520 H514 0.930 . S
C520 C521 1.367 . S
C520 C528 1.378 . S
C521 C520 1.367 . S
C521 C529 1.433 . S
C522 H518 0.929 . S
C522 C524 1.378 . S
C522 C526 1.350 . S
C523 C526 1.463 . S
C523 C528 1.350 . S
C523 N531 1.427 . S
C524 H515 0.930 . S
C524 C522 1.378 . S
C524 C525 1.367 . S
C525 C524 1.367 . S
C525 C527 1.433 . S
C526 C522 1.350 . S
C526 C523 1.463 . S
C526 N530 1.427 . S
C527 H517 0.929 . S
C527 C525 1.433 . S
C527 N530 1.384 . S
C528 H519 0.929 . S
C528 C520 1.378 . S
C528 C523 1.350 . S
C529 H516 0.929 . S
C529 C521 1.433 . S
C529 N531 1.384 . S
N530 C526 1.427 . S
N530 C527 1.384 . S
N531 C523 1.427 . S
N531 C529 1.384 . S
H532 C538 0.930 . S
H533 C542 0.930 . S
H534 C547 0.929 . S
H535 C545 0.929 . S
H536 C540 0.929 . S
H537 C546 0.929 . S
C538 H532 0.930 . S
C538 C539 1.367 . S
C538 C546 1.378 . S
C539 C538 1.367 . S
C539 C547 1.433 . S
C540 H536 0.929 . S
C540 C542 1.378 . S
C540 C544 1.350 . S
C541 C544 1.463 . S
C541 C546 1.350 . S
C541 N549 1.427 . S
C542 H533 0.930 . S
C542 C540 1.378 . S
C542 C543 1.367 . S
C543 C542 1.367 . S
C543 C545 1.433 . S
C544 C540 1.350 . S
C544 C541 1.463 . S
C544 N548 1.427 . S
C545 H535 0.929 . S
C545 C543 1.433 . S
C545 N548 1.384 . S
C546 H537 0.929 . S
C546 C538 1.378 . S
C546 C541 1.350 . S
C547 H534 0.929 . S
C547 C539 1.433 . S
C547 N549 1.384 . S
N548 C544 1.427 . S
N548 C545 1.384 . S
N549 C541 1.427 . S
N549 C547 1.384 . S
H550 C556 0.930 . S
H551 C560 0.930 . S
H552 C565 0.929 . S
H553 C563 0.929 . S
H554 C558 0.929 . S
H555 C564 0.929 . S
C556 H550 0.930 . S
C556 C557 1.367 . S
C556 C564 1.378 . S
C557 C556 1.367 . S
C557 C565 1.433 . S
C558 H554 0.929 . S
C558 C560 1.378 . S
C558 C562 1.350 . S
C559 C562 1.463 . S
C559 C564 1.350 . S
C559 N567 1.427 . S
C560 H551 0.930 . S
C560 C558 1.378 . S
C560 C561 1.367 . S
C561 C560 1.367 . S
C561 C563 1.433 . S
C562 C558 1.350 . S
C562 C559 1.463 . S
C562 N566 1.427 . S
C563 H553 0.929 . S
C563 C561 1.433 . S
C563 N566 1.384 . S
C564 H555 0.929 . S
C564 C556 1.378 . S
C564 C559 1.350 . S
C565 H552 0.929 . S
C565 C557 1.433 . S
C565 N567 1.384 . S
N566 C562 1.427 . S
N566 C563 1.384 . S
N567 C559 1.427 . S
N567 C565 1.384 . S
H568 C574 0.930 . S
H569 C578 0.930 . S
H570 C583 0.929 . S
H571 C581 0.929 . S
H572 C576 0.929 . S
H573 C582 0.929 . S
C574 H568 0.930 . S
C574 C575 1.367 . S
C574 C582 1.378 . S
C575 C574 1.367 . S
C575 C583 1.433 . S
C576 H572 0.929 . S
C576 C578 1.378 . S
C576 C580 1.350 . S
C577 C580 1.463 . S
C577 C582 1.350 . S
C577 N585 1.427 . S
C578 H569 0.930 . S
C578 C576 1.378 . S
C578 C579 1.367 . S
C579 C578 1.367 . S
C579 C581 1.433 . S
C580 C576 1.350 . S
C580 C577 1.463 . S
C580 N584 1.427 . S
C581 H571 0.929 . S
C581 C579 1.433 . S
C581 N584 1.384 . S
C582 H573 0.929 . S
C582 C574 1.378 . S
C582 C577 1.350 . S
C583 H570 0.929 . S
C583 C575 1.433 . S
C583 N585 1.384 . S
N584 C580 1.427 . S
N584 C581 1.384 . S
N585 C577 1.427 . S
N585 C583 1.384 . S
H586 C592 0.930 . S
H587 C596 0.930 . S
H588 C601 0.929 . S
H589 C599 0.929 . S
H590 C594 0.929 . S
H591 C600 0.929 . S
C592 H586 0.930 . S
C592 C593 1.367 . S
C592 C600 1.378 . S
C593 C592 1.367 . S
C593 C601 1.433 . S
C594 H590 0.929 . S
C594 C596 1.378 . S
C594 C598 1.350 . S
C595 C598 1.463 . S
C595 C600 1.350 . S
C595 N603 1.427 . S
C596 H587 0.930 . S
C596 C594 1.378 . S
C596 C597 1.367 . S
C597 C596 1.367 . S
C597 C599 1.433 . S
C598 C594 1.350 . S
C598 C595 1.463 . S
C598 N602 1.427 . S
C599 H589 0.929 . S
C599 C597 1.433 . S
C599 N602 1.384 . S
C600 H591 0.929 . S
C600 C592 1.378 . S
C600 C595 1.350 . S
C601 H588 0.929 . S
C601 C593 1.433 . S
C601 N603 1.384 . S
N602 C598 1.427 . S
N602 C599 1.384 . S
N603 C595 1.427 . S
N603 C601 1.384 . S
H604 C610 0.930 . S
H605 C614 0.930 . S
H606 C619 0.929 . S
H607 C617 0.929 . S
H608 C612 0.929 . S
H609 C618 0.929 . S
C610 H604 0.930 . S
C610 C611 1.367 . S
C610 C618 1.378 . S
C611 C610 1.367 . S
C611 C619 1.433 . S
C612 H608 0.929 . S
C612 C614 1.378 . S
C612 C616 1.350 . S
C613 C616 1.463 . S
C613 C618 1.350 . S
C613 N621 1.427 . S
C614 H605 0.930 . S
C614 C612 1.378 . S
C614 C615 1.367 . S
C615 C614 1.367 . S
C615 C617 1.433 . S
C616 C612 1.350 . S
C616 C613 1.463 . S
C616 N620 1.427 . S
C617 H607 0.929 . S
C617 C615 1.433 . S
C617 N620 1.384 . S
C618 H609 0.929 . S
C618 C610 1.378 . S
C618 C613 1.350 . S
C619 H606 0.929 . S
C619 C611 1.433 . S
C619 N621 1.384 . S
N620 C616 1.427 . S
N620 C617 1.384 . S
N621 C613 1.427 . S
N621 C619 1.384 . S
H622 C628 0.930 . S
H623 C632 0.930 . S
H624 C637 0.929 . S
H625 C635 0.929 . S
H626 C630 0.929 . S
H627 C636 0.929 . S
C628 H622 0.930 . S
C628 C629 1.367 . S
C628 C636 1.378 . S
C629 C628 1.367 . S
C629 C637 1.433 . S
C630 H626 0.929 . S
C630 C632 1.378 . S
C630 C634 1.350 . S
C631 C634 1.463 . S
C631 C636 1.350 . S
C631 N639 1.427 . S
C632 H623 0.930 . S
C632 C630 1.378 . S
C632 C633 1.367 . S
C633 C632 1.367 . S
C633 C635 1.433 . S
C634 C630 1.350 . S
C634 C631 1.463 . S
C634 N638 1.427 . S
C635 H625 0.929 . S
C635 C633 1.433 . S
C635 N638 1.384 . S
C636 H627 0.929 . S
C636 C628 1.378 . S
C636 C631 1.350 . S
C637 H624 0.929 . S
C637 C629 1.433 . S
C637 N639 1.384 . S
N638 C634 1.427 . S
N638 C635 1.384 . S
N639 C631 1.427 . S
N639 C637 1.384 . S
H640 C646 0.930 . S
H641 C650 0.930 . S
H642 C655 0.929 . S
H643 C653 0.929 . S
H644 C648 0.929 . S
H645 C654 0.929 . S
C646 H640 0.930 . S
C646 C647 1.367 . S
C646 C654 1.378 1_556 S
C647 C646 1.367 . S
C647 C655 1.433 1_556 S
C648 H644 0.929 . S
C648 C650 1.378 . S
C648 C652 1.350 . S
C649 C652 1.463 . S
C649 C654 1.350 . S
C649 N657 1.427 . S
C650 H641 0.930 . S
C650 C648 1.378 . S
C650 C651 1.367 . S
C651 C650 1.367 . S
C651 C653 1.433 . S
C652 C648 1.350 . S
C652 C649 1.463 . S
C652 N656 1.427 . S
C653 H643 0.929 . S
C653 C651 1.433 . S
C653 N656 1.384 . S
C654 H645 0.929 . S
C654 C646 1.378 1_554 S
C654 C649 1.350 . S
C655 H642 0.929 . S
C655 C647 1.433 1_554 S
C655 N657 1.384 . S
N656 C652 1.427 . S
N656 C653 1.384 . S
N657 C649 1.427 . S
N657 C655 1.384 . S
H658 C664 0.930 . S
H659 C668 0.930 1_455 S
H660 C673 0.922 1_455 S
H661 C671 0.929 . S
H662 C666 0.929 1_455 S
H663 C672 0.929 . S
C664 H658 0.930 . S
C664 C665 1.367 . S
C664 C672 1.378 . S
C665 C664 1.367 . S
C665 C673 1.440 . S
C666 H662 0.929 1_655 S
C666 C668 1.378 . S
C666 C670 1.350 . S
C667 C670 1.463 . S
C667 C672 1.350 . S
C667 N675 1.427 . S
C668 H659 0.930 1_655 S
C668 C666 1.378 . S
C668 C669 1.367 . S
C669 C668 1.367 . S
C669 C671 1.433 . S
C670 C666 1.350 . S
C670 C667 1.463 . S
C670 N674 1.427 . S
C671 H661 0.929 . S
C671 C669 1.433 . S
C671 N674 1.384 . S
C672 H663 0.929 . S
C672 C664 1.378 . S
C672 C667 1.350 . S
C673 H660 0.922 1_655 S
C673 C665 1.440 . S
C673 N675 1.384 . S
N674 C670 1.427 . S
N674 C671 1.384 . S
N675 C667 1.427 . S
N675 C673 1.384 . S
H676 C682 0.930 . S
H677 C686 0.930 . S
H678 C691 0.930 . S
H679 C689 0.929 . S
H680 C684 0.929 . S
H681 C690 0.929 . S
C682 H676 0.930 . S
C682 C683 1.367 . S
C682 C690 1.378 1_556 S
C683 C682 1.367 . S
C683 C691 1.434 1_565 S
C684 H680 0.929 . S
C684 C686 1.378 . S
C684 C688 1.350 1_545 S
C685 C688 1.463 . S
C685 C690 1.350 . S
C685 N693 1.427 1_565 S
C686 H677 0.930 . S
C686 C684 1.378 . S
C686 C687 1.367 1_545 S
C687 C686 1.367 1_565 S
C687 C689 1.433 . S
C688 C684 1.350 1_565 S
C688 C685 1.463 . S
C688 N692 1.427 . S
C689 H679 0.929 . S
C689 C687 1.433 . S
C689 N692 1.384 . S
C690 H681 0.929 . S
C690 C682 1.378 1_554 S
C690 C685 1.350 . S
C691 H678 0.930 . S
C691 C683 1.434 1_545 S
C691 N693 1.381 1_556 S
N692 C688 1.427 . S
N692 C689 1.384 . S
N693 C685 1.427 1_545 S
N693 C691 1.381 1_554 S
H694 C700 0.930 . S
H695 C704 0.930 . S
H696 C709 0.929 . S
H697 C707 0.929 . S
H698 C702 0.929 . S
H699 C708 0.929 . S
C700 H694 0.930 . S
C700 C701 1.367 . S
C700 C708 1.378 . S
C701 C700 1.367 . S
C701 C709 1.433 . S
C702 H698 0.929 . S
C702 C704 1.378 . S
C702 C706 1.350 . S
C703 C706 1.463 . S
C703 C708 1.350 . S
C703 N711 1.427 . S
C704 H695 0.930 . S
C704 C702 1.378 . S
C704 C705 1.367 . S
C705 C704 1.367 . S
C705 C707 1.433 . S
C706 C702 1.350 . S
C706 C703 1.463 . S
C706 N710 1.427 . S
C707 H697 0.929 . S
C707 C705 1.433 . S
C707 N710 1.384 . S
C708 H699 0.929 . S
C708 C700 1.378 . S
C708 C703 1.350 . S
C709 H696 0.929 . S
C709 C701 1.433 . S
C709 N711 1.384 . S
N710 C706 1.427 . S
N710 C707 1.384 . S
N711 C703 1.427 . S
N711 C709 1.384 . S
H712 C718 0.930 . S
H713 C722 0.930 . S
H714 C727 0.929 . S
H715 C725 0.929 . S
H716 C720 0.929 . S
H717 C726 0.929 . S
C718 H712 0.930 . S
C718 C719 1.367 . S
C718 C726 1.378 . S
C719 C718 1.367 . S
C719 C727 1.433 . S
C720 H716 0.929 . S
C720 C722 1.378 . S
C720 C724 1.350 . S
C721 C724 1.463 . S
C721 C726 1.350 . S
C721 N729 1.427 . S
C722 H713 0.930 . S
C722 C720 1.378 . S
C722 C723 1.367 . S
C723 C722 1.367 . S
C723 C725 1.433 . S
C724 C720 1.350 . S
C724 C721 1.463 . S
C724 N728 1.427 . S
C725 H715 0.929 . S
C725 C723 1.433 . S
C725 N728 1.384 . S
C726 H717 0.929 . S
C726 C718 1.378 . S
C726 C721 1.350 . S
C727 H714 0.929 . S
C727 C719 1.433 . S
C727 N729 1.384 . S
N728 C724 1.427 . S
N728 C725 1.384 . S
N729 C721 1.427 . S
N729 C727 1.384 . S
H730 C736 0.930 . S
H731 C740 0.930 . S
H732 C745 0.929 . S
H733 C743 0.929 1_554 S
H734 C738 0.929 . S
H735 C744 0.929 . S
C736 H730 0.930 . S
C736 C737 1.367 . S
C736 C744 1.378 . S
C737 C736 1.367 . S
C737 C745 1.433 1_455 S
C738 H734 0.929 . S
C738 C740 1.378 1_556 S
C738 C742 1.350 1_655 S
C739 C742 1.463 . S
C739 C744 1.350 . S
C739 N747 1.427 1_455 S
C740 H731 0.930 . S
C740 C738 1.378 1_554 S
C740 C741 1.367 1_655 S
C741 C740 1.367 1_455 S
C741 C743 1.433 1_554 S
C742 C738 1.350 1_455 S
C742 C739 1.463 . S
C742 N746 1.427 . S
C743 H733 0.929 1_556 S
C743 C741 1.433 1_556 S
C743 N746 1.384 . S
C744 H735 0.929 . S
C744 C736 1.378 . S
C744 C739 1.350 . S
C745 H732 0.929 . S
C745 C737 1.433 1_655 S
C745 N747 1.384 . S
N746 C742 1.427 . S
N746 C743 1.384 . S
N747 C739 1.427 1_655 S
N747 C745 1.384 . S
H748 C754 0.930 . S
H749 C758 0.930 . S
H750 C763 0.929 . S
H751 C761 0.929 . S
H752 C756 0.929 . S
H753 C762 0.929 . S
C754 H748 0.930 . S
C754 C755 1.367 . S
C754 C762 1.378 . S
C755 C754 1.367 . S
C755 C763 1.433 1_545 S
C756 H752 0.929 . S
C756 C758 1.378 . S
C756 C760 1.350 1_565 S
C757 C760 1.463 . S
C757 C762 1.350 . S
C757 N765 1.427 1_545 S
C758 H749 0.930 . S
C758 C756 1.378 . S
C758 C759 1.367 1_565 S
C759 C758 1.367 1_545 S
C759 C761 1.433 . S
C760 C756 1.350 1_545 S
C760 C757 1.463 . S
C760 N764 1.427 . S
C761 H751 0.929 . S
C761 C759 1.433 . S
C761 N764 1.384 . S
C762 H753 0.929 . S
C762 C754 1.378 . S
C762 C757 1.350 . S
C763 H750 0.929 . S
C763 C755 1.433 1_565 S
C763 N765 1.384 . S
N764 C760 1.427 . S
N764 C761 1.384 . S
N765 C757 1.427 1_565 S
N765 C763 1.384 . S
H766 C772 0.930 . S
H767 C776 0.930 . S
H768 C781 0.929 . S
H769 C779 0.929 . S
H770 C774 0.929 . S
H771 C780 0.929 . S
C772 H766 0.930 . S
C772 C773 1.367 1_556 S
C772 C780 1.378 . S
C773 C772 1.367 1_554 S
C773 C781 1.433 . S
C774 H770 0.929 . S
C774 C776 1.378 . S
C774 C778 1.350 . S
C775 C778 1.463 . S
C775 C780 1.350 . S
C775 N783 1.427 . S
C776 H767 0.930 . S
C776 C774 1.378 . S
C776 C777 1.367 . S
C777 C776 1.367 . S
C777 C779 1.433 . S
C778 C774 1.350 . S
C778 C775 1.463 . S
C778 N782 1.427 . S
C779 H769 0.929 . S
C779 C777 1.433 . S
C779 N782 1.384 . S
C780 H771 0.929 . S
C780 C772 1.378 . S
C780 C775 1.350 . S
C781 H768 0.929 . S
C781 C773 1.433 . S
C781 N783 1.384 1_554 S
N782 C778 1.427 . S
N782 C779 1.384 . S
N783 C775 1.427 . S
N783 C781 1.384 1_556 S
H784 C790 0.930 . S
H785 C794 0.930 . S
H786 C799 0.929 . S
H787 C797 0.926 1_554 S
H788 C792 0.929 . S
H789 C798 0.929 . S
C790 H784 0.930 . S
C790 C791 1.367 . S
C790 C798 1.378 . S
C791 C790 1.367 . S
C791 C799 1.433 . S
C792 H788 0.929 . S
C792 C794 1.378 1_556 S
C792 C796 1.350 . S
C793 C796 1.463 . S
C793 C798 1.350 . S
C793 N801 1.427 . S
C794 H785 0.930 . S
C794 C792 1.378 1_554 S
C794 C795 1.367 . S
C795 C794 1.367 . S
C795 C797 1.433 1_554 S
C796 C792 1.350 . S
C796 C793 1.463 . S
C796 N800 1.427 . S
C797 H787 0.926 1_556 S
C797 C795 1.433 1_556 S
C797 N800 1.384 . S
C798 H789 0.929 . S
C798 C790 1.378 . S
C798 C793 1.350 . S
C799 H786 0.929 . S
C799 C791 1.433 . S
C799 N801 1.384 . S
N800 C796 1.427 . S
N800 C797 1.384 . S
N801 C793 1.427 . S
N801 C799 1.384 . S
H802 C808 0.930 . S
H803 C812 0.930 1_655 S
H804 C817 0.922 1_655 S
H805 C815 0.929 . S
H806 C810 0.929 1_655 S
H807 C816 0.929 . S
C808 H802 0.930 . S
C808 C809 1.367 . S
C808 C816 1.378 . S
C809 C808 1.367 . S
C809 C817 1.441 . S
C810 H806 0.929 1_455 S
C810 C812 1.378 . S
C810 C814 1.350 . S
C811 C814 1.463 . S
C811 C816 1.350 . S
C811 N819 1.427 . S
C812 H803 0.930 1_455 S
C812 C810 1.378 . S
C812 C813 1.367 . S
C813 C812 1.367 . S
C813 C815 1.433 . S
C814 C810 1.350 . S
C814 C811 1.463 . S
C814 N818 1.427 . S
C815 H805 0.929 . S
C815 C813 1.433 . S
C815 N818 1.384 . S
C816 H807 0.929 . S
C816 C808 1.378 . S
C816 C811 1.350 . S
C817 H804 0.922 1_455 S
C817 C809 1.441 . S
C817 N819 1.384 . S
N818 C814 1.427 . S
N818 C815 1.384 . S
N819 C811 1.427 . S
N819 C817 1.384 . S
H820 C826 0.930 . S
H821 C830 0.930 . S
H822 C835 0.929 . S
H823 C833 0.929 . S
H824 C828 0.929 . S
H825 C834 0.929 . S
C826 H820 0.930 . S
C826 C827 1.367 . S
C826 C834 1.378 1_554 S
C827 C826 1.367 . S
C827 C835 1.433 1_554 S
C828 H824 0.929 . S
C828 C830 1.378 . S
C828 C832 1.350 . S
C829 C832 1.463 . S
C829 C834 1.350 . S
C829 N837 1.427 . S
C830 H821 0.930 . S
C830 C828 1.378 . S
C830 C831 1.367 . S
C831 C830 1.367 . S
C831 C833 1.433 . S
C832 C828 1.350 . S
C832 C829 1.463 . S
C832 N836 1.427 . S
C833 H823 0.929 . S
C833 C831 1.433 . S
C833 N836 1.384 . S
C834 H825 0.929 . S
C834 C826 1.378 1_556 S
C834 C829 1.350 . S
C835 H822 0.929 . S
C835 C827 1.433 1_556 S
C835 N837 1.384 . S
N836 C832 1.427 . S
N836 C833 1.384 . S
N837 C829 1.427 . S
N837 C835 1.384 . S
H838 C844 0.930 . S
H839 C848 0.930 . S
H840 C853 0.929 . S
H841 C851 0.929 . S
H842 C846 0.929 . S
H843 C852 0.929 . S
C844 H838 0.930 . S
C844 C845 1.367 . S
C844 C852 1.378 . S
C845 C844 1.367 . S
C845 C853 1.433 . S
C846 H842 0.929 . S
C846 C848 1.378 . S
C846 C850 1.350 . S
C847 C850 1.463 . S
C847 C852 1.350 . S
C847 N855 1.427 . S
C848 H839 0.930 . S
C848 C846 1.378 . S
C848 C849 1.367 . S
C849 C848 1.367 . S
C849 C851 1.433 . S
C850 C846 1.350 . S
C850 C847 1.463 . S
C850 N854 1.427 . S
C851 H841 0.929 . S
C851 C849 1.433 . S
C851 N854 1.384 . S
C852 H843 0.929 . S
C852 C844 1.378 . S
C852 C847 1.350 . S
C853 H840 0.929 . S
C853 C845 1.433 . S
C853 N855 1.384 . S
N854 C850 1.427 . S
N854 C851 1.384 . S
N855 C847 1.427 . S
N855 C853 1.384 . S
H856 C862 0.930 . S
H857 C866 0.930 . S
H858 C871 0.929 . S
H859 C869 0.929 . S
H860 C864 0.929 . S
H861 C870 0.929 . S
C862 H856 0.930 . S
C862 C863 1.367 . S
C862 C870 1.378 . S
C863 C862 1.367 . S
C863 C871 1.433 . S
C864 H860 0.929 . S
C864 C866 1.378 . S
C864 C868 1.350 . S
C865 C868 1.463 . S
C865 C870 1.350 . S
C865 N873 1.427 . S
C866 H857 0.930 . S
C866 C864 1.378 . S
C866 C867 1.367 . S
C867 C866 1.367 . S
C867 C869 1.433 . S
C868 C864 1.350 . S
C868 C865 1.463 . S
C868 N872 1.427 . S
C869 H859 0.929 . S
C869 C867 1.433 . S
C869 N872 1.384 . S
C870 H861 0.929 . S
C870 C862 1.378 . S
C870 C865 1.350 . S
C871 H858 0.929 . S
C871 C863 1.433 . S
C871 N873 1.384 . S
N872 C868 1.427 . S
N872 C869 1.384 . S
N873 C865 1.427 . S
N873 C871 1.384 . S
H874 C880 0.930 . S
H875 C884 0.930 . S
H876 C889 0.929 . S
H877 C887 0.929 . S
H878 C882 0.929 . S
H879 C888 0.929 . S
C880 H874 0.930 . S
C880 C881 1.367 1_455 S
C880 C888 1.378 . S
C881 C880 1.367 1_655 S
C881 C889 1.433 . S
C882 H878 0.929 . S
C882 C884 1.378 1_554 S
C882 C886 1.350 . S
C883 C886 1.463 . S
C883 C888 1.350 1_655 S
C883 N891 1.427 . S
C884 H875 0.930 . S
C884 C882 1.378 1_556 S
C884 C885 1.367 . S
C885 C884 1.367 . S
C885 C887 1.433 1_656 S
C886 C882 1.350 . S
C886 C883 1.463 . S
C886 N890 1.427 1_655 S
C887 H877 0.929 . S
C887 C885 1.433 1_454 S
C887 N890 1.384 . S
C888 H879 0.929 . S
C888 C880 1.378 . S
C888 C883 1.350 1_455 S
C889 H876 0.929 . S
C889 C881 1.433 . S
C889 N891 1.384 . S
N890 C886 1.427 1_455 S
N890 C887 1.384 . S
N891 C883 1.427 . S
N891 C889 1.384 . S
H892 C898 0.930 . S
H893 C902 0.930 . S
H894 C907 0.929 . S
H895 C905 0.929 . S
H896 C900 0.929 . S
H897 C906 0.929 . S
C898 H892 0.930 . S
C898 C899 1.367 . S
C898 C906 1.378 . S
C899 C898 1.367 . S
C899 C907 1.433 1_565 S
C900 H896 0.929 . S
C900 C902 1.378 . S
C900 C904 1.350 1_545 S
C901 C904 1.463 . S
C901 C906 1.350 . S
C901 N909 1.427 1_565 S
C902 H893 0.930 . S
C902 C900 1.378 . S
C902 C903 1.367 1_545 S
C903 C902 1.367 1_565 S
C903 C905 1.433 . S
C904 C900 1.350 1_565 S
C904 C901 1.463 . S
C904 N908 1.427 . S
C905 H895 0.929 . S
C905 C903 1.433 . S
C905 N908 1.384 . S
C906 H897 0.929 . S
C906 C898 1.378 . S
C906 C901 1.350 . S
C907 H894 0.929 . S
C907 C899 1.433 1_545 S
C907 N909 1.384 . S
N908 C904 1.427 . S
N908 C905 1.384 . S
N909 C901 1.427 1_545 S
N909 C907 1.384 . S
H910 C916 0.930 1_556 S
H911 C920 0.930 . S
H912 C925 0.929 . S
H913 C923 0.929 . S
H914 C918 0.929 . S
H915 C924 0.929 . S
C916 H910 0.930 1_554 S
C916 C917 1.367 1_554 S
C916 C924 1.378 . S
C917 C916 1.367 1_556 S
C917 C925 1.433 . S
C918 H914 0.929 . S
C918 C920 1.378 . S
C918 C922 1.350 . S
C919 C922 1.463 . S
C919 C924 1.350 . S
C919 N927 1.427 . S
C920 H911 0.930 . S
C920 C918 1.378 . S
C920 C921 1.367 . S
C921 C920 1.367 . S
C921 C923 1.433 . S
C922 C918 1.350 . S
C922 C919 1.463 . S
C922 N926 1.427 . S
C923 H913 0.929 . S
C923 C921 1.433 . S
C923 N926 1.384 . S
C924 H915 0.929 . S
C924 C916 1.378 . S
C924 C919 1.350 . S
C925 H912 0.929 . S
C925 C917 1.433 . S
C925 N927 1.384 1_556 S
N926 C922 1.427 . S
N926 C923 1.384 . S
N927 C919 1.427 . S
N927 C925 1.384 1_554 S
H928 C934 0.930 . S
H929 C938 0.930 . S
H930 C943 0.929 . S
H931 C941 0.929 . S
H932 C936 0.929 . S
H933 C942 0.929 . S
C934 H928 0.930 . S
C934 C935 1.367 . S
C934 C942 1.378 . S
C935 C934 1.367 . S
C935 C943 1.433 . S
C936 H932 0.929 . S
C936 C938 1.378 . S
C936 C940 1.350 . S
C937 C940 1.463 . S
C937 C942 1.350 . S
C937 N945 1.427 . S
C938 H929 0.930 . S
C938 C936 1.378 . S
C938 C939 1.367 . S
C939 C938 1.367 . S
C939 C941 1.433 . S
C940 C936 1.350 . S
C940 C937 1.463 . S
C940 N944 1.427 . S
C941 H931 0.929 . S
C941 C939 1.433 . S
C941 N944 1.384 . S
C942 H933 0.929 . S
C942 C934 1.378 . S
C942 C937 1.350 . S
C943 H930 0.929 . S
C943 C935 1.433 . S
C943 N945 1.384 . S
N944 C940 1.427 . S
N944 C941 1.384 . S
N945 C937 1.427 . S
N945 C943 1.384 . S
H946 C952 0.930 . S
H947 C956 0.930 . S
H948 C961 0.929 . S
H949 C959 0.929 . S
H950 C954 0.929 . S
H951 C960 0.929 . S
C952 H946 0.930 . S
C952 C953 1.367 . S
C952 C960 1.378 . S
C953 C952 1.367 . S
C953 C961 1.433 . S
C954 H950 0.929 . S
C954 C956 1.378 . S
C954 C958 1.350 . S
C955 C958 1.463 . S
C955 C960 1.350 . S
C955 N963 1.427 . S
C956 H947 0.930 . S
C956 C954 1.378 . S
C956 C957 1.367 . S
C957 C956 1.367 . S
C957 C959 1.433 . S
C958 C954 1.350 . S
C958 C955 1.463 . S
C958 N962 1.427 . S
C959 H949 0.929 . S
C959 C957 1.433 . S
C959 N962 1.384 . S
C960 H951 0.929 . S
C960 C952 1.378 . S
C960 C955 1.350 . S
C961 H948 0.929 . S
C961 C953 1.433 . S
C961 N963 1.384 . S
N962 C958 1.427 . S
N962 C959 1.384 . S
N963 C955 1.427 . S
N963 C961 1.384 . S
H964 C970 0.930 . S
H965 C974 0.930 . S
H966 C979 0.929 . S
H967 C977 0.929 . S
H968 C972 0.929 . S
H969 C978 0.929 . S
C970 H964 0.930 . S
C970 C971 1.367 . S
C970 C978 1.378 . S
C971 C970 1.367 . S
C971 C979 1.433 . S
C972 H968 0.929 . S
C972 C974 1.378 . S
C972 C976 1.350 . S
C973 C976 1.463 . S
C973 C978 1.350 . S
C973 N981 1.427 . S
C974 H965 0.930 . S
C974 C972 1.378 . S
C974 C975 1.367 . S
C975 C974 1.367 . S
C975 C977 1.433 . S
C976 C972 1.350 . S
C976 C973 1.463 . S
C976 N980 1.427 . S
C977 H967 0.929 . S
C977 C975 1.433 . S
C977 N980 1.384 . S
C978 H969 0.929 . S
C978 C970 1.378 . S
C978 C973 1.350 . S
C979 H966 0.929 . S
C979 C971 1.433 . S
C979 N981 1.384 . S
N980 C976 1.427 . S
N980 C977 1.384 . S
N981 C973 1.427 . S
N981 C979 1.384 . S
H982 C988 0.930 . S
H983 C992 0.930 . S
H984 C997 0.929 . S
H985 C995 0.929 . S
H986 C990 0.929 . S
H987 C996 0.929 . S
C988 H982 0.930 . S
C988 C989 1.367 . S
C988 C996 1.378 . S
C989 C988 1.367 . S
C989 C997 1.433 . S
C990 H986 0.929 . S
C990 C992 1.378 . S
C990 C994 1.350 . S
C991 C994 1.463 . S
C991 C996 1.350 . S
C991 N999 1.427 . S
C992 H983 0.930 . S
C992 C990 1.378 . S
C992 C993 1.367 . S
C993 C992 1.367 . S
C993 C995 1.433 . S
C994 C990 1.350 . S
C994 C991 1.463 . S
C994 N998 1.427 . S
C995 H985 0.929 . S
C995 C993 1.433 . S
C995 N998 1.384 . S
C996 H987 0.929 . S
C996 C988 1.378 . S
C996 C991 1.350 . S
C997 H984 0.929 . S
C997 C989 1.433 . S
C997 N999 1.384 . S
N998 C994 1.427 . S
N998 C995 1.384 . S
N999 C991 1.427 . S
N999 C997 1.384 . S
H1000 C1006 0.930 . S
H1001 C1010 0.930 . S
H1002 C1015 0.929 . S
H1003 C1013 0.929 . S
H1004 C1008 0.929 . S
H1005 C1014 0.929 . S
C1006 H1000 0.930 . S
C1006 C1007 1.367 . S
C1006 C1014 1.378 . S
C1007 C1006 1.367 . S
C1007 C1015 1.433 . S
C1008 H1004 0.929 . S
C1008 C1010 1.378 . S
C1008 C1012 1.350 . S
C1009 C1012 1.463 . S
C1009 C1014 1.350 . S
C1009 N1017 1.427 . S
C1010 H1001 0.930 . S
C1010 C1008 1.378 . S
C1010 C1011 1.367 . S
C1011 C1010 1.367 . S
C1011 C1013 1.433 . S
C1012 C1008 1.350 . S
C1012 C1009 1.463 . S
C1012 N1016 1.427 . S
C1013 H1003 0.929 . S
C1013 C1011 1.433 . S
C1013 N1016 1.384 . S
C1014 H1005 0.929 . S
C1014 C1006 1.378 . S
C1014 C1009 1.350 . S
C1015 H1002 0.929 . S
C1015 C1007 1.433 . S
C1015 N1017 1.384 . S
N1016 C1012 1.427 . S
N1016 C1013 1.384 . S
N1017 C1009 1.427 . S
N1017 C1015 1.384 . S
H1018 C1024 0.930 . S
H1019 C1028 0.930 . S
H1020 C1033 0.929 . S
H1021 C1031 0.929 . S
H1022 C1026 0.929 . S
H1023 C1032 0.929 . S
C1024 H1018 0.930 . S
C1024 C1025 1.367 . S
C1024 C1032 1.378 . S
C1025 C1024 1.367 . S
C1025 C1033 1.433 . S
C1026 H1022 0.929 . S
C1026 C1028 1.378 . S
C1026 C1030 1.350 . S
C1027 C1030 1.463 . S
C1027 C1032 1.350 . S
C1027 N1035 1.427 . S
C1028 H1019 0.930 . S
C1028 C1026 1.378 . S
C1028 C1029 1.367 . S
C1029 C1028 1.367 . S
C1029 C1031 1.433 . S
C1030 C1026 1.350 . S
C1030 C1027 1.463 . S
C1030 N1034 1.427 . S
C1031 H1021 0.929 . S
C1031 C1029 1.433 . S
C1031 N1034 1.384 . S
C1032 H1023 0.929 . S
C1032 C1024 1.378 . S
C1032 C1027 1.350 . S
C1033 H1020 0.929 . S
C1033 C1025 1.433 . S
C1033 N1035 1.384 . S
N1034 C1030 1.427 . S
N1034 C1031 1.384 . S
N1035 C1027 1.427 . S
N1035 C1033 1.384 . S
H1036 C1042 0.930 . S
H1037 C1046 0.930 . S
H1038 C1051 0.929 . S
H1039 C1049 0.929 . S
H1040 C1044 0.929 . S
H1041 C1050 0.929 . S
C1042 H1036 0.930 . S
C1042 C1043 1.367 . S
C1042 C1050 1.378 . S
C1043 C1042 1.367 . S
C1043 C1051 1.433 . S
C1044 H1040 0.929 . S
C1044 C1046 1.378 . S
C1044 C1048 1.350 . S
C1045 C1048 1.463 . S
C1045 C1050 1.350 . S
C1045 N1053 1.427 . S
C1046 H1037 0.930 . S
C1046 C1044 1.378 . S
C1046 C1047 1.367 . S
C1047 C1046 1.367 . S
C1047 C1049 1.433 . S
C1048 C1044 1.350 . S
C1048 C1045 1.463 . S
C1048 N1052 1.427 . S
C1049 H1039 0.929 . S
C1049 C1047 1.433 . S
C1049 N1052 1.384 . S
C1050 H1041 0.929 . S
C1050 C1042 1.378 . S
C1050 C1045 1.350 . S
C1051 H1038 0.929 . S
C1051 C1043 1.433 . S
C1051 N1053 1.384 . S
N1052 C1048 1.427 . S
N1052 C1049 1.384 . S
N1053 C1045 1.427 . S
N1053 C1051 1.384 . S
H1054 C1060 0.930 . S
H1055 C1064 0.930 . S
H1056 C1069 0.929 . S
H1057 C1067 0.929 . S
H1058 C1062 0.929 . S
H1059 C1068 0.929 . S
C1060 H1054 0.930 . S
C1060 C1061 1.367 . S
C1060 C1068 1.378 . S
C1061 C1060 1.367 . S
C1061 C1069 1.433 . S
C1062 H1058 0.929 . S
C1062 C1064 1.378 . S
C1062 C1066 1.350 . S
C1063 C1066 1.463 . S
C1063 C1068 1.350 . S
C1063 N1071 1.427 . S
C1064 H1055 0.930 . S
C1064 C1062 1.378 . S
C1064 C1065 1.367 . S
C1065 C1064 1.367 . S
C1065 C1067 1.433 . S
C1066 C1062 1.350 . S
C1066 C1063 1.463 . S
C1066 N1070 1.427 . S
C1067 H1057 0.929 . S
C1067 C1065 1.433 . S
C1067 N1070 1.384 . S
C1068 H1059 0.929 . S
C1068 C1060 1.378 . S
C1068 C1063 1.350 . S
C1069 H1056 0.929 . S
C1069 C1061 1.433 . S
C1069 N1071 1.384 . S
N1070 C1066 1.427 . S
N1070 C1067 1.384 . S
N1071 C1063 1.427 . S
N1071 C1069 1.384 . S
H1072 C1078 0.930 . S
H1073 C1082 0.930 . S
H1074 C1087 0.929 . S
H1075 C1085 0.929 . S
H1076 C1080 0.929 . S
H1077 C1086 0.929 . S
C1078 H1072 0.930 . S
C1078 C1079 1.367 . S
C1078 C1086 1.378 . S
C1079 C1078 1.367 . S
C1079 C1087 1.433 . S
C1080 H1076 0.929 . S
C1080 C1082 1.378 . S
C1080 C1084 1.350 . S
C1081 C1084 1.463 . S
C1081 C1086 1.350 . S
C1081 N1089 1.427 . S
C1082 H1073 0.930 . S
C1082 C1080 1.378 . S
C1082 C1083 1.367 . S
C1083 C1082 1.367 . S
C1083 C1085 1.433 . S
C1084 C1080 1.350 . S
C1084 C1081 1.463 . S
C1084 N1088 1.427 . S
C1085 H1075 0.929 . S
C1085 C1083 1.433 . S
C1085 N1088 1.384 . S
C1086 H1077 0.929 . S
C1086 C1078 1.378 . S
C1086 C1081 1.350 . S
C1087 H1074 0.929 . S
C1087 C1079 1.433 . S
C1087 N1089 1.384 . S
N1088 C1084 1.427 . S
N1088 C1085 1.384 . S
N1089 C1081 1.427 . S
N1089 C1087 1.384 . S
H1090 C1096 0.930 . S
H1091 C1100 0.930 . S
H1092 C1105 0.929 . S
H1093 C1103 0.929 . S
H1094 C1098 0.929 . S
H1095 C1104 0.929 . S
C1096 H1090 0.930 . S
C1096 C1097 1.367 . S
C1096 C1104 1.378 . S
C1097 C1096 1.367 . S
C1097 C1105 1.433 . S
C1098 H1094 0.929 . S
C1098 C1100 1.378 . S
C1098 C1102 1.350 . S
C1099 C1102 1.463 . S
C1099 C1104 1.350 . S
C1099 N1107 1.427 . S
C1100 H1091 0.930 . S
C1100 C1098 1.378 . S
C1100 C1101 1.367 . S
C1101 C1100 1.367 . S
C1101 C1103 1.433 . S
C1102 C1098 1.350 . S
C1102 C1099 1.463 . S
C1102 N1106 1.427 . S
C1103 H1093 0.929 . S
C1103 C1101 1.433 . S
C1103 N1106 1.384 . S
C1104 H1095 0.929 . S
C1104 C1096 1.378 . S
C1104 C1099 1.350 . S
C1105 H1092 0.929 . S
C1105 C1097 1.433 . S
C1105 N1107 1.384 . S
N1106 C1102 1.427 . S
N1106 C1103 1.384 . S
N1107 C1099 1.427 . S
N1107 C1105 1.384 . S
H1108 C1114 0.930 . S
H1109 C1118 0.930 . S
H1110 C1123 0.929 . S
H1111 C1121 0.929 . S
H1112 C1116 0.929 . S
H1113 C1122 0.929 . S
C1114 H1108 0.930 . S
C1114 C1115 1.367 . S
C1114 C1122 1.378 . S
C1115 C1114 1.367 . S
C1115 C1123 1.433 . S
C1116 H1112 0.929 . S
C1116 C1118 1.378 . S
C1116 C1120 1.350 . S
C1117 C1120 1.463 . S
C1117 C1122 1.350 . S
C1117 N1125 1.427 . S
C1118 H1109 0.930 . S
C1118 C1116 1.378 . S
C1118 C1119 1.367 . S
C1119 C1118 1.367 . S
C1119 C1121 1.433 . S
C1120 C1116 1.350 . S
C1120 C1117 1.463 . S
C1120 N1124 1.427 . S
C1121 H1111 0.929 . S
C1121 C1119 1.433 . S
C1121 N1124 1.384 . S
C1122 H1113 0.929 . S
C1122 C1114 1.378 . S
C1122 C1117 1.350 . S
C1123 H1110 0.929 . S
C1123 C1115 1.433 . S
C1123 N1125 1.384 . S
N1124 C1120 1.427 . S
N1124 C1121 1.384 . S
N1125 C1117 1.427 . S
N1125 C1123 1.384 . S
H1126 C1132 0.930 . S
H1127 C1136 0.930 . S
H1128 C1141 0.929 . S
H1129 C1139 0.929 . S
H1130 C1134 0.929 . S
H1131 C1140 0.929 . S
C1132 H1126 0.930 . S
C1132 C1133 1.367 . S
C1132 C1140 1.378 . S
C1133 C1132 1.367 . S
C1133 C1141 1.433 . S
C1134 H1130 0.929 . S
C1134 C1136 1.378 . S
C1134 C1138 1.350 . S
C1135 C1138 1.463 . S
C1135 C1140 1.350 . S
C1135 N1143 1.427 . S
C1136 H1127 0.930 . S
C1136 C1134 1.378 . S
C1136 C1137 1.367 . S
C1137 C1136 1.367 . S
C1137 C1139 1.433 . S
C1138 C1134 1.350 . S
C1138 C1135 1.463 . S
C1138 N1142 1.427 . S
C1139 H1129 0.929 . S
C1139 C1137 1.433 . S
C1139 N1142 1.384 . S
C1140 H1131 0.929 . S
C1140 C1132 1.378 . S
C1140 C1135 1.350 . S
C1141 H1128 0.929 . S
C1141 C1133 1.433 . S
C1141 N1143 1.384 . S
N1142 C1138 1.427 . S
N1142 C1139 1.384 . S
N1143 C1135 1.427 . S
N1143 C1141 1.384 . S
H1144 C1150 0.930 . S
H1145 C1154 0.930 . S
H1146 C1159 0.929 . S
H1147 C1157 0.929 . S
H1148 C1152 0.929 . S
H1149 C1158 0.929 . S
C1150 H1144 0.930 . S
C1150 C1151 1.367 . S
C1150 C1158 1.378 . S
C1151 C1150 1.367 . S
C1151 C1159 1.433 . S
C1152 H1148 0.929 . S
C1152 C1154 1.378 . S
C1152 C1156 1.350 . S
C1153 C1156 1.463 . S
C1153 C1158 1.350 . S
C1153 N1161 1.427 . S
C1154 H1145 0.930 . S
C1154 C1152 1.378 . S
C1154 C1155 1.367 . S
C1155 C1154 1.367 . S
C1155 C1157 1.433 . S
C1156 C1152 1.350 . S
C1156 C1153 1.463 . S
C1156 N1160 1.427 . S
C1157 H1147 0.929 . S
C1157 C1155 1.433 . S
C1157 N1160 1.384 . S
C1158 H1149 0.929 . S
C1158 C1150 1.378 . S
C1158 C1153 1.350 . S
C1159 H1146 0.929 . S
C1159 C1151 1.433 . S
C1159 N1161 1.384 . S
N1160 C1156 1.427 . S
N1160 C1157 1.384 . S
N1161 C1153 1.427 . S
N1161 C1159 1.384 . S
H1162 C1168 0.930 . S
H1163 C1172 0.930 . S
H1164 C1177 0.929 . S
H1165 C1175 0.929 . S
H1166 C1170 0.929 . S
H1167 C1176 0.929 . S
C1168 H1162 0.930 . S
C1168 C1169 1.367 . S
C1168 C1176 1.378 . S
C1169 C1168 1.367 . S
C1169 C1177 1.433 . S
C1170 H1166 0.929 . S
C1170 C1172 1.378 . S
C1170 C1174 1.350 . S
C1171 C1174 1.463 . S
C1171 C1176 1.350 . S
C1171 N1179 1.427 . S
C1172 H1163 0.930 . S
C1172 C1170 1.378 . S
C1172 C1173 1.367 . S
C1173 C1172 1.367 . S
C1173 C1175 1.433 . S
C1174 C1170 1.350 . S
C1174 C1171 1.463 . S
C1174 N1178 1.427 . S
C1175 H1165 0.929 . S
C1175 C1173 1.433 . S
C1175 N1178 1.384 . S
C1176 H1167 0.929 . S
C1176 C1168 1.378 . S
C1176 C1171 1.350 . S
C1177 H1164 0.929 . S
C1177 C1169 1.433 . S
C1177 N1179 1.384 . S
N1178 C1174 1.427 . S
N1178 C1175 1.384 . S
N1179 C1171 1.427 . S
N1179 C1177 1.384 . S
H1180 C1186 0.930 . S
H1181 C1190 0.930 . S
H1182 C1195 0.929 . S
H1183 C1193 0.929 . S
H1184 C1188 0.929 . S
H1185 C1194 0.929 . S
C1186 H1180 0.930 . S
C1186 C1187 1.367 . S
C1186 C1194 1.378 . S
C1187 C1186 1.367 . S
C1187 C1195 1.433 . S
C1188 H1184 0.929 . S
C1188 C1190 1.378 . S
C1188 C1192 1.350 . S
C1189 C1192 1.463 . S
C1189 C1194 1.350 . S
C1189 N1197 1.427 . S
C1190 H1181 0.930 . S
C1190 C1188 1.378 . S
C1190 C1191 1.367 . S
C1191 C1190 1.367 . S
C1191 C1193 1.433 . S
C1192 C1188 1.350 . S
C1192 C1189 1.463 . S
C1192 N1196 1.427 . S
C1193 H1183 0.929 . S
C1193 C1191 1.433 . S
C1193 N1196 1.384 . S
C1194 H1185 0.929 . S
C1194 C1186 1.378 . S
C1194 C1189 1.350 . S
C1195 H1182 0.929 . S
C1195 C1187 1.433 . S
C1195 N1197 1.384 . S
N1196 C1192 1.427 . S
N1196 C1193 1.384 . S
N1197 C1189 1.427 . S
N1197 C1195 1.384 . S
H1198 C1204 0.930 . S
H1199 C1208 0.930 . S
H1200 C1213 0.929 . S
H1201 C1211 0.929 . S
H1202 C1206 0.929 . S
H1203 C1212 0.929 . S
C1204 H1198 0.930 . S
C1204 C1205 1.367 . S
C1204 C1212 1.378 . S
C1205 C1204 1.367 . S
C1205 C1213 1.433 . S
C1206 H1202 0.929 . S
C1206 C1208 1.378 . S
C1206 C1210 1.350 . S
C1207 C1210 1.463 . S
C1207 C1212 1.350 . S
C1207 N1215 1.427 . S
C1208 H1199 0.930 . S
C1208 C1206 1.378 . S
C1208 C1209 1.367 . S
C1209 C1208 1.367 . S
C1209 C1211 1.433 . S
C1210 C1206 1.350 . S
C1210 C1207 1.463 . S
C1210 N1214 1.427 . S
C1211 H1201 0.929 . S
C1211 C1209 1.433 . S
C1211 N1214 1.384 . S
C1212 H1203 0.929 . S
C1212 C1204 1.378 . S
C1212 C1207 1.350 . S
C1213 H1200 0.929 . S
C1213 C1205 1.433 . S
C1213 N1215 1.384 . S
N1214 C1210 1.427 . S
N1214 C1211 1.384 . S
N1215 C1207 1.427 . S
N1215 C1213 1.384 . S
C359 C5 0.889 . S
C363 C159 0.911 . S
C377 C93 0.896 . S
C381 C27 0.892 . S
C395 C119 0.899 . S
C399 C53 0.912 . S
C413 C75 0.898 . S
C417 C141 0.890 . S
C431 C336 0.913 . S
C435 C182 0.893 . S
C449 C270 0.893 . S
C453 C204 0.894 . S
C467 C293 0.911 . S
C471 C227 0.888 . S
C485 C315 0.905 . S
C489 C249 0.909 . S
C503 C6 1.353 . S
C507 C335 1.366 . S
C521 C28 1.366 . S
C525 C269 1.353 . S
C539 C51 1.366 . S
C543 C295 1.354 . S
C557 C317 1.362 . S
C561 C73 1.357 . S
C575 C203 1.366 . S
C579 C94 1.353 . S
C593 C117 1.367 . S
C597 C229 1.353 . S
C611 C251 1.353 . S
C615 C139 1.366 . S
C629 C160 1.358 . S
C633 C181 1.362 . S
C647 C268 1.589 . S
C651 C9 1.616 . S
C665 C31 1.616 . S
C669 C294 1.587 . S
C683 C316 1.583 . S
C687 C49 1.618 . S
C701 C334 1.591 . S
C705 C71 1.621 . S
C719 C97 1.616 . S
C723 C180 1.589 . S
C737 C115 1.617 . S
C741 C202 1.591 . S
C755 C137 1.617 . S
C759 C228 1.591 . S
C773 C250 1.591 . S
C777 C163 1.621 . S
C791 C183 1.617 . S
C795 C92 1.590 . S
C809 C205 1.621 . S
C813 C118 1.593 . S
C827 C140 1.585 . S
C831 C226 1.616 . S
C845 C248 1.616 . S
C849 C158 1.583 . S
C863 C271 1.620 . S
C867 C4 1.586 . S
C881 C292 1.616 . S
C885 C26 1.583 . S
C899 C52 1.582 . S
C903 C314 1.617 . S
C917 C74 1.594 . S
C921 C337 1.620 . S
C935 C8 1.475 . S
C939 C207 1.392 . S
C953 C225 1.393 . S
C957 C30 1.475 . S
C971 C48 1.473 . S
C975 C247 1.389 . S
C989 C70 1.477 . S
C993 C185 1.397 . S
C1007 C96 1.481 . S
C1011 C339 1.408 . S
C1025 C114 1.475 . S
C1029 C273 1.394 . S
C1043 C136 1.480 . S
C1047 C291 1.407 . S
C1061 C313 1.394 . S
C1065 C162 1.475 . S
C1079 C29 1.393 . S
C1083 C184 1.475 . S
C1097 C50 1.405 . S
C1101 C206 1.480 . S
C1115 C224 1.480 . S
C1119 C72 1.405 . S
C1133 C246 1.478 . S
C1137 C7 1.401 . S
C1151 C161 1.409 . S
C1155 C272 1.481 . S
C1169 C95 1.404 . S
C1173 C290 1.479 . S
C1187 C116 1.391 . S
C1191 C312 1.474 . S
C1205 C138 1.397 . S
C1209 C338 1.477 . S
