# Generated by pormake.
# Topology uoa, (4)-cn, num edge types: 1
# Building blocks:
#     Node 0, Type 0, BuildingBlock: NAWXER_clean_sbu_0, # of connection points: 4
#     Node 1, Type 0, BuildingBlock: NAWXER_clean_sbu_0, # of connection points: 4
#     Node 2, Type 0, BuildingBlock: NAWXER_clean_sbu_0, # of connection points: 4
#     Node 3, Type 0, BuildingBlock: NAWXER_clean_sbu_0, # of connection points: 4
#     Node 4, Type 0, BuildingBlock: NAWXER_clean_sbu_0, # of connection points: 4
#     Node 5, Type 0, BuildingBlock: NAWXER_clean_sbu_0, # of connection points: 4
#     Node 6, Type 0, BuildingBlock: NAWXER_clean_sbu_0, # of connection points: 4
#     Node 7, Type 0, BuildingBlock: NAWXER_clean_sbu_0, # of connection points: 4
#     Node 8, Type 0, BuildingBlock: NAWXER_clean_sbu_0, # of connection points: 4
#     Node 9, Type 0, BuildingBlock: NAWXER_clean_sbu_0, # of connection points: 4
#     Node 10, Type 0, BuildingBlock: NAWXER_clean_sbu_0, # of connection points: 4
#     Node 11, Type 0, BuildingBlock: NAWXER_clean_sbu_0, # of connection points: 4
#     Node 12, Type 0, BuildingBlock: NAWXER_clean_sbu_0, # of connection points: 4
#     Node 13, Type 0, BuildingBlock: NAWXER_clean_sbu_0, # of connection points: 4
#     Node 14, Type 0, BuildingBlock: NAWXER_clean_sbu_0, # of connection points: 4
#     Node 15, Type 0, BuildingBlock: NAWXER_clean_sbu_0, # of connection points: 4
#     Node 16, Type 0, BuildingBlock: NAWXER_clean_sbu_0, # of connection points: 4
#     Node 17, Type 0, BuildingBlock: NAWXER_clean_sbu_0, # of connection points: 4
#     Node 18, Type 0, BuildingBlock: NAWXER_clean_sbu_0, # of connection points: 4
#     Node 19, Type 0, BuildingBlock: NAWXER_clean_sbu_0, # of connection points: 4
#     Node 20, Type 0, BuildingBlock: NAWXER_clean_sbu_0, # of connection points: 4
#     Node 21, Type 0, BuildingBlock: NAWXER_clean_sbu_0, # of connection points: 4
#     Node 22, Type 0, BuildingBlock: NAWXER_clean_sbu_0, # of connection points: 4
#     Node 23, Type 0, BuildingBlock: NAWXER_clean_sbu_0, # of connection points: 4
#     Node 24, Type 0, BuildingBlock: NAWXER_clean_sbu_0, # of connection points: 4
#     Node 25, Type 0, BuildingBlock: NAWXER_clean_sbu_0, # of connection points: 4
#     Node 26, Type 0, BuildingBlock: NAWXER_clean_sbu_0, # of connection points: 4
#     Node 27, Type 0, BuildingBlock: NAWXER_clean_sbu_0, # of connection points: 4
#     Node 28, Type 0, BuildingBlock: NAWXER_clean_sbu_0, # of connection points: 4
#     Node 29, Type 0, BuildingBlock: NAWXER_clean_sbu_0, # of connection points: 4
#     Node 30, Type 0, BuildingBlock: NAWXER_clean_sbu_0, # of connection points: 4
#     Node 31, Type 0, BuildingBlock: NAWXER_clean_sbu_0, # of connection points: 4
#     Edge 32, Type (0, 0), BuildingBlock: MIFKUJ_clean_linker_0, # of connection points: 2
#     Edge 33, Type (0, 0), BuildingBlock: MIFKUJ_clean_linker_0, # of connection points: 2
#     Edge 34, Type (0, 0), BuildingBlock: MIFKUJ_clean_linker_0, # of connection points: 2
#     Edge 35, Type (0, 0), BuildingBlock: MIFKUJ_clean_linker_0, # of connection points: 2
#     Edge 36, Type (0, 0), BuildingBlock: MIFKUJ_clean_linker_0, # of connection points: 2
#     Edge 37, Type (0, 0), BuildingBlock: MIFKUJ_clean_linker_0, # of connection points: 2
#     Edge 38, Type (0, 0), BuildingBlock: MIFKUJ_clean_linker_0, # of connection points: 2
#     Edge 39, Type (0, 0), BuildingBlock: MIFKUJ_clean_linker_0, # of connection points: 2
#     Edge 40, Type (0, 0), BuildingBlock: MIFKUJ_clean_linker_0, # of connection points: 2
#     Edge 41, Type (0, 0), BuildingBlock: MIFKUJ_clean_linker_0, # of connection points: 2
#     Edge 42, Type (0, 0), BuildingBlock: MIFKUJ_clean_linker_0, # of connection points: 2
#     Edge 43, Type (0, 0), BuildingBlock: MIFKUJ_clean_linker_0, # of connection points: 2
#     Edge 44, Type (0, 0), BuildingBlock: MIFKUJ_clean_linker_0, # of connection points: 2
#     Edge 45, Type (0, 0), BuildingBlock: MIFKUJ_clean_linker_0, # of connection points: 2
#     Edge 46, Type (0, 0), BuildingBlock: MIFKUJ_clean_linker_0, # of connection points: 2
#     Edge 47, Type (0, 0), BuildingBlock: MIFKUJ_clean_linker_0, # of connection points: 2
#     Edge 48, Type (0, 0), BuildingBlock: MIFKUJ_clean_linker_0, # of connection points: 2
#     Edge 49, Type (0, 0), BuildingBlock: MIFKUJ_clean_linker_0, # of connection points: 2
#     Edge 50, Type (0, 0), BuildingBlock: MIFKUJ_clean_linker_0, # of connection points: 2
#     Edge 51, Type (0, 0), BuildingBlock: MIFKUJ_clean_linker_0, # of connection points: 2
#     Edge 52, Type (0, 0), BuildingBlock: MIFKUJ_clean_linker_0, # of connection points: 2
#     Edge 53, Type (0, 0), BuildingBlock: MIFKUJ_clean_linker_0, # of connection points: 2
#     Edge 54, Type (0, 0), BuildingBlock: MIFKUJ_clean_linker_0, # of connection points: 2
#     Edge 55, Type (0, 0), BuildingBlock: MIFKUJ_clean_linker_0, # of connection points: 2
#     Edge 56, Type (0, 0), BuildingBlock: MIFKUJ_clean_linker_0, # of connection points: 2
#     Edge 57, Type (0, 0), BuildingBlock: MIFKUJ_clean_linker_0, # of connection points: 2
#     Edge 58, Type (0, 0), BuildingBlock: MIFKUJ_clean_linker_0, # of connection points: 2
#     Edge 59, Type (0, 0), BuildingBlock: MIFKUJ_clean_linker_0, # of connection points: 2
#     Edge 60, Type (0, 0), BuildingBlock: MIFKUJ_clean_linker_0, # of connection points: 2
#     Edge 61, Type (0, 0), BuildingBlock: MIFKUJ_clean_linker_0, # of connection points: 2
#     Edge 62, Type (0, 0), BuildingBlock: MIFKUJ_clean_linker_0, # of connection points: 2
#     Edge 63, Type (0, 0), BuildingBlock: MIFKUJ_clean_linker_0, # of connection points: 2
#     Edge 64, Type (0, 0), BuildingBlock: MIFKUJ_clean_linker_0, # of connection points: 2
#     Edge 65, Type (0, 0), BuildingBlock: MIFKUJ_clean_linker_0, # of connection points: 2
#     Edge 66, Type (0, 0), BuildingBlock: MIFKUJ_clean_linker_0, # of connection points: 2
#     Edge 67, Type (0, 0), BuildingBlock: MIFKUJ_clean_linker_0, # of connection points: 2
#     Edge 68, Type (0, 0), BuildingBlock: MIFKUJ_clean_linker_0, # of connection points: 2
#     Edge 69, Type (0, 0), BuildingBlock: MIFKUJ_clean_linker_0, # of connection points: 2
#     Edge 70, Type (0, 0), BuildingBlock: MIFKUJ_clean_linker_0, # of connection points: 2
#     Edge 71, Type (0, 0), BuildingBlock: MIFKUJ_clean_linker_0, # of connection points: 2
#     Edge 72, Type (0, 0), BuildingBlock: MIFKUJ_clean_linker_0, # of connection points: 2
#     Edge 73, Type (0, 0), BuildingBlock: MIFKUJ_clean_linker_0, # of connection points: 2
#     Edge 74, Type (0, 0), BuildingBlock: MIFKUJ_clean_linker_0, # of connection points: 2
#     Edge 75, Type (0, 0), BuildingBlock: MIFKUJ_clean_linker_0, # of connection points: 2
#     Edge 76, Type (0, 0), BuildingBlock: MIFKUJ_clean_linker_0, # of connection points: 2
#     Edge 77, Type (0, 0), BuildingBlock: MIFKUJ_clean_linker_0, # of connection points: 2
#     Edge 78, Type (0, 0), BuildingBlock: MIFKUJ_clean_linker_0, # of connection points: 2
#     Edge 79, Type (0, 0), BuildingBlock: MIFKUJ_clean_linker_0, # of connection points: 2
#     Edge 80, Type (0, 0), BuildingBlock: MIFKUJ_clean_linker_0, # of connection points: 2
#     Edge 81, Type (0, 0), BuildingBlock: MIFKUJ_clean_linker_0, # of connection points: 2
#     Edge 82, Type (0, 0), BuildingBlock: MIFKUJ_clean_linker_0, # of connection points: 2
#     Edge 83, Type (0, 0), BuildingBlock: MIFKUJ_clean_linker_0, # of connection points: 2
#     Edge 84, Type (0, 0), BuildingBlock: MIFKUJ_clean_linker_0, # of connection points: 2
#     Edge 85, Type (0, 0), BuildingBlock: MIFKUJ_clean_linker_0, # of connection points: 2
#     Edge 86, Type (0, 0), BuildingBlock: MIFKUJ_clean_linker_0, # of connection points: 2
#     Edge 87, Type (0, 0), BuildingBlock: MIFKUJ_clean_linker_0, # of connection points: 2
#     Edge 88, Type (0, 0), BuildingBlock: MIFKUJ_clean_linker_0, # of connection points: 2
#     Edge 89, Type (0, 0), BuildingBlock: MIFKUJ_clean_linker_0, # of connection points: 2
#     Edge 90, Type (0, 0), BuildingBlock: MIFKUJ_clean_linker_0, # of connection points: 2
#     Edge 91, Type (0, 0), BuildingBlock: MIFKUJ_clean_linker_0, # of connection points: 2
#     Edge 92, Type (0, 0), BuildingBlock: MIFKUJ_clean_linker_0, # of connection points: 2
#     Edge 93, Type (0, 0), BuildingBlock: MIFKUJ_clean_linker_0, # of connection points: 2
#     Edge 94, Type (0, 0), BuildingBlock: MIFKUJ_clean_linker_0, # of connection points: 2
#     Edge 95, Type (0, 0), BuildingBlock: MIFKUJ_clean_linker_0, # of connection points: 2
# Relax obj value: 0.037
# Max RMSD: 0.224
# Mean RMSD: 0.224
data_MOF--net-uoa--node1-NAWXER_clean_sbu_0--edge1-MIFKUJ_clean_linker_0
_symmetry_space_group_name_H-M    P1
_symmetry_Int_Tables_number       1
_symmetry_cell_setting            triclinic
loop_
_symmetry_equiv_pos_as_xyz
'x, y, z'
_cell_length_a     97.869442
_cell_length_b     97.854762
_cell_length_c     38.12588
_cell_angle_alpha  90.018363
_cell_angle_beta   90.004117
_cell_angle_gamma 90.006171
loop_
_atom_site_label
_atom_site_type_symbol
_atom_site_fract_x
_atom_site_fract_y
_atom_site_fract_z
_atom_type_partial_charge
C0 C 0.0139 0.10211 0.00656 0.0
C1 C 0.00989 0.0955 0.13283 0.0
O2 O 0.02464 0.09649 0.01944 0.0
Zn3 Zn 0.03152 0.09 0.07073 0.0
O4 O 0.00415 0.10541 0.02682 0.0
Zn5 Zn 0.01209 0.09885 0.06974 0.0
O6 O 0.0288 0.11296 0.07974 0.0
O7 O 0.04758 0.10053 0.07835 0.0
O8 O 0.00125 0.10056 0.11166 0.0
O9 O 0.0214 0.09119 0.12103 0.0
O10 O 0.03428 0.07083 0.06443 0.0
O11 O 0.01265 0.07697 0.06079 0.0
C12 C 0.04185 0.11204 0.08251 0.0
C13 C 0.02188 0.06764 0.05939 0.0
C14 C 0.1813 0.7675 0.30463 0.0
C15 C 0.13809 0.79043 0.3229 0.0
O16 O 0.17136 0.75891 0.30401 0.0
Zn17 Zn 0.14928 0.75986 0.31043 0.0
O18 O 0.17886 0.78003 0.31039 0.0
Zn19 Zn 0.15951 0.77859 0.31351 0.0
O20 O 0.15644 0.76837 0.36302 0.0
O21 O 0.14621 0.74879 0.35151 0.0
O22 O 0.15001 0.79535 0.31983 0.0
O23 O 0.1363 0.77748 0.31992 0.0
O24 O 0.14269 0.75292 0.26623 0.0
O25 O 0.15401 0.7723 0.26115 0.0
C26 C 0.15124 0.75706 0.37367 0.0
C27 C 0.14761 0.76228 0.24695 0.0
C28 C 0.48969 0.90188 0.62851 0.0
C29 C 0.48801 0.89762 0.50149 0.0
O30 O 0.47838 0.90634 0.61598 0.0
Zn31 Zn 0.46926 0.90865 0.5649 0.0
O32 O 0.49875 0.8973 0.60779 0.0
Zn33 Zn 0.4887 0.89968 0.56492 0.0
O34 O 0.48838 0.92163 0.55798 0.0
O35 O 0.46679 0.92798 0.56091 0.0
O36 O 0.49737 0.89379 0.52235 0.0
O37 O 0.47713 0.90313 0.51385 0.0
O38 O 0.45305 0.89802 0.56855 0.0
O39 O 0.47178 0.88551 0.57065 0.0
C40 C 0.47929 0.93107 0.55696 0.0
C41 C 0.45869 0.8864 0.57156 0.0
C42 C 0.31882 0.23174 0.80453 0.0
C43 C 0.36223 0.20821 0.81238 0.0
O44 O 0.3288 0.24024 0.80382 0.0
Zn45 Zn 0.35086 0.23909 0.80712 0.0
O46 O 0.32126 0.2191 0.80842 0.0
Zn47 Zn 0.34074 0.22031 0.80937 0.0
O48 O 0.34516 0.22936 0.85977 0.0
O49 O 0.35504 0.24917 0.84915 0.0
O50 O 0.35019 0.2034 0.81193 0.0
O51 O 0.36403 0.2212 0.81067 0.0
O52 O 0.35616 0.24723 0.7634 0.0
O53 O 0.34556 0.22749 0.7571 0.0
C54 C 0.35065 0.24043 0.871 0.0
C55 C 0.35138 0.23798 0.74351 0.0
C56 C 0.03909 0.89032 0.42305 0.0
C57 C 0.01638 0.9337 0.4409 0.0
O58 O 0.02616 0.88861 0.42655 0.0
Zn59 Zn 0.00863 0.90168 0.4353 0.0
O60 O 0.04404 0.90228 0.42471 0.0
Zn61 Zn 0.02731 0.91189 0.43132 0.0
O62 O 0.02129 0.90641 0.48409 0.0
O63 O 0.00179 0.89524 0.47967 0.0
O64 O 0.02886 0.93121 0.43455 0.0
O65 O 0.00775 0.9238 0.44174 0.0
O66 O 0.99755 0.89824 0.39449 0.0
O67 O 0.01679 0.90889 0.38216 0.0
C68 C 0.0113 0.90007 0.49863 0.0
C69 C 0.00553 0.90347 0.37195 0.0
C70 C 0.3508 0.75974 0.7522 0.0
C71 C 0.3445 0.75603 0.62593 0.0
O72 O 0.34512 0.77046 0.73943 0.0
Zn73 Zn 0.33861 0.7774 0.68831 0.0
O74 O 0.35414 0.75002 0.73188 0.0
Zn75 Zn 0.34753 0.75799 0.68909 0.0
O76 O 0.36153 0.77484 0.67917 0.0
O77 O 0.34897 0.79355 0.68131 0.0
O78 O 0.34921 0.7472 0.6471 0.0
O79 O 0.34023 0.76754 0.63779 0.0
O80 O 0.31939 0.77994 0.69437 0.0
O81 O 0.3257 0.75837 0.69817 0.0
C82 C 0.3605 0.78791 0.67674 0.0
C83 C 0.31631 0.76752 0.69955 0.0
C84 C 0.48964 0.09984 0.99634 0.0
C85 C 0.49277 0.09572 0.86901 0.0
O86 O 0.47914 0.09394 0.98309 0.0
Zn87 Zn 0.47191 0.08844 0.9316 0.0
O88 O 0.49897 0.10424 0.97611 0.0
Zn89 Zn 0.49111 0.09792 0.93255 0.0
O90 O 0.47393 0.11155 0.92389 0.0
O91 O 0.45547 0.09866 0.92684 0.0
O92 O 0.50166 0.10029 0.89028 0.0
O93 O 0.48141 0.09108 0.88088 0.0
O94 O 0.46989 0.06908 0.93556 0.0
O95 O 0.49129 0.07596 0.93962 0.0
C96 C 0.46087 0.11032 0.92236 0.0
C97 C 0.48241 0.06629 0.9403 0.0
C98 C 0.15208 0.24468 0.1385 0.0
C99 C 0.14721 0.24199 0.26521 0.0
O100 O 0.15671 0.23336 0.15064 0.0
Zn101 Zn 0.15909 0.224 0.20159 0.0
O102 O 0.14734 0.25357 0.15947 0.0
Zn103 Zn 0.14977 0.24323 0.20181 0.0
O104 O 0.17172 0.24343 0.20863 0.0
O105 O 0.17842 0.22194 0.20644 0.0
O106 O 0.14352 0.2515 0.24467 0.0
O107 O 0.15296 0.23128 0.2526 0.0
O108 O 0.14897 0.20756 0.1967 0.0
O109 O 0.136 0.22598 0.19434 0.0
C110 C 0.18132 0.2345 0.20996 0.0
C111 C 0.13725 0.21291 0.19297 0.0
C112 C 0.98651 0.89933 0.99879 0.0
C113 C 0.99374 0.90371 0.87274 0.0
O114 O 0.99616 0.89451 0.98028 0.0
Zn115 Zn 0.98996 0.90138 0.93566 0.0
O116 O 0.97684 0.90598 0.9838 0.0
Zn117 Zn 0.97163 0.91225 0.93117 0.0
O118 O 0.9547 0.90328 0.92231 0.0
O119 O 0.9721 0.88901 0.92466 0.0
O120 O 0.98263 0.90949 0.88269 0.0
O121 O 0.00127 0.89782 0.89526 0.0
O122 O 0.99153 0.9234 0.94308 0.0
O123 O 0.97072 0.93159 0.93567 0.0
C124 C 0.95928 0.89119 0.92009 0.0
C125 C 0.98325 0.9336 0.94247 0.0
C126 C 0.85254 0.24042 0.75315 0.0
C127 C 0.84599 0.2426 0.6266 0.0
O128 O 0.8558 0.24992 0.73208 0.0
Zn129 Zn 0.84918 0.24137 0.68992 0.0
O130 O 0.84693 0.22951 0.74122 0.0
Zn131 Zn 0.84036 0.22193 0.69069 0.0
O132 O 0.85077 0.20574 0.68512 0.0
O133 O 0.86327 0.22444 0.68113 0.0
O134 O 0.84186 0.23117 0.63928 0.0
O135 O 0.85064 0.25169 0.64713 0.0
O136 O 0.82738 0.24098 0.69951 0.0
O137 O 0.82117 0.21935 0.6973 0.0
C138 C 0.86229 0.21134 0.67995 0.0
C139 C 0.81804 0.23181 0.70177 0.0
C140 C 0.50874 0.09369 0.37032 0.0
C141 C 0.51241 0.10158 0.49618 0.0
O142 O 0.50028 0.09939 0.39087 0.0
Zn143 Zn 0.51067 0.09748 0.43352 0.0
O144 O 0.51985 0.08875 0.38288 0.0
Zn145 Zn 0.52944 0.08732 0.43372 0.0
O146 O 0.5308 0.06812 0.44159 0.0
O147 O 0.50966 0.07579 0.44543 0.0
O148 O 0.52274 0.09498 0.48417 0.0
O149 O 0.503 0.10531 0.47533 0.0
O150 O 0.52841 0.11027 0.42356 0.0
O151 O 0.54628 0.0966 0.42653 0.0
C152 C 0.51825 0.06591 0.44765 0.0
C153 C 0.54139 0.10844 0.42162 0.0
C154 C 0.63652 0.7899 0.18111 0.0
C155 C 0.68127 0.76931 0.19328 0.0
O156 O 0.64814 0.7956 0.18321 0.0
Zn157 Zn 0.65873 0.77939 0.18676 0.0
O158 O 0.63563 0.77682 0.18284 0.0
Zn159 Zn 0.64986 0.75991 0.18824 0.0
O160 O 0.64449 0.75152 0.2315 0.0
O161 O 0.65371 0.77192 0.23853 0.0
O162 O 0.67181 0.76024 0.19348 0.0
O163 O 0.67815 0.78177 0.18887 0.0
O164 O 0.65533 0.77017 0.13619 0.0
O165 O 0.64694 0.74959 0.14593 0.0
C166 C 0.64841 0.76107 0.25169 0.0
C167 C 0.65077 0.75875 0.12451 0.0
C168 C 0.96052 0.11169 0.5787 0.0
C169 C 0.98151 0.06715 0.56722 0.0
O170 O 0.95512 0.09993 0.57733 0.0
Zn171 Zn 0.97146 0.08957 0.57344 0.0
O172 O 0.97356 0.11285 0.57634 0.0
Zn173 Zn 0.99063 0.09882 0.57029 0.0
O174 O 0.99843 0.10413 0.52603 0.0
O175 O 0.97851 0.09382 0.5207 0.0
O176 O 0.99056 0.07665 0.56608 0.0
O177 O 0.96909 0.07025 0.57232 0.0
O178 O 0.98132 0.09309 0.62331 0.0
O179 O 0.00144 0.10213 0.61166 0.0
C180 C 0.98903 0.09938 0.50656 0.0
C181 C 0.99278 0.09794 0.63396 0.0
C182 C 0.65072 0.24372 0.37209 0.0
C183 C 0.64873 0.23738 0.24542 0.0
O184 O 0.64497 0.25124 0.34933 0.0
Zn185 Zn 0.64952 0.24035 0.30878 0.0
O186 O 0.65696 0.23285 0.36226 0.0
Zn187 Zn 0.66084 0.22229 0.31375 0.0
O188 O 0.68026 0.22199 0.31174 0.0
O189 O 0.67156 0.24257 0.30379 0.0
O190 O 0.6554 0.22778 0.26067 0.0
O191 O 0.64326 0.24672 0.26382 0.0
O192 O 0.63749 0.22209 0.31718 0.0
O193 O 0.65216 0.20506 0.32063 0.0
C194 C 0.68198 0.23461 0.30546 0.0
C195 C 0.63992 0.2093 0.32138 0.0
C196 C 0.50831 0.90274 0.12876 0.0
C197 C 0.50921 0.89865 0.00178 0.0
O198 O 0.49886 0.8988 0.10829 0.0
Zn199 Zn 0.50879 0.90084 0.06521 0.0
O200 O 0.51975 0.90676 0.11596 0.0
Zn201 Zn 0.52857 0.90911 0.06442 0.0
O202 O 0.53151 0.92843 0.0602 0.0
O203 O 0.50975 0.92268 0.05864 0.0
O204 O 0.52036 0.9037 0.01382 0.0
O205 O 0.4997 0.89535 0.0228 0.0
O206 O 0.52528 0.88614 0.07061 0.0
O207 O 0.54445 0.89796 0.06719 0.0
C208 C 0.51907 0.93187 0.05707 0.0
C209 C 0.5384 0.88657 0.07081 0.0
C210 C 0.8462 0.75897 0.88601 0.0
C211 C 0.84783 0.7621 0.7584 0.0
O212 O 0.85081 0.75031 0.8642 0.0
Zn213 Zn 0.84715 0.76066 0.82218 0.0
O214 O 0.84088 0.77012 0.87476 0.0
Zn215 Zn 0.8369 0.77944 0.82459 0.0
O216 O 0.81742 0.78061 0.82313 0.0
O217 O 0.82513 0.75955 0.81744 0.0
O218 O 0.84174 0.77239 0.77229 0.0
O219 O 0.85294 0.75296 0.77809 0.0
O220 O 0.86022 0.77847 0.82769 0.0
O221 O 0.84647 0.79632 0.82791 0.0
C222 C 0.8151 0.768 0.81821 0.0
C223 C 0.85847 0.79146 0.82949 0.0
C224 C 0.50984 0.6044 0.48953 0.0
C225 C 0.50414 0.59838 0.6156 0.0
O226 O 0.5197 0.59761 0.50319 0.0
Zn227 Zn 0.52573 0.59103 0.5548 0.0
O228 O 0.50045 0.60909 0.50914 0.0
Zn229 Zn 0.50717 0.60168 0.55275 0.0
O230 O 0.52488 0.61418 0.56389 0.0
O231 O 0.54259 0.60028 0.56307 0.0
O232 O 0.49621 0.6044 0.59423 0.0
O233 O 0.51526 0.59303 0.60424 0.0
O234 O 0.52687 0.57177 0.54911 0.0
O235 O 0.50584 0.57968 0.54425 0.0
C236 C 0.53779 0.61221 0.56717 0.0
C237 C 0.51427 0.56961 0.54361 0.0
C238 C 0.63712 0.28924 0.82141 0.0
C239 C 0.68135 0.26832 0.80237 0.0
O240 O 0.636 0.27622 0.81852 0.0
Zn241 Zn 0.64971 0.25929 0.80894 0.0
O242 O 0.64878 0.29476 0.81833 0.0
Zn243 Zn 0.65912 0.27845 0.81157 0.0
O244 O 0.65349 0.27194 0.75945 0.0
O245 O 0.64322 0.252 0.76508 0.0
O246 O 0.67837 0.28078 0.80748 0.0
O247 O 0.6718 0.2593 0.80229 0.0
O248 O 0.64711 0.24824 0.85008 0.0
O249 O 0.65703 0.268 0.86124 0.0
C250 C 0.64745 0.26163 0.74558 0.0
C251 C 0.65222 0.25655 0.87206 0.0
C252 C 0.99069 0.39553 0.99007 0.0
C253 C 0.99191 0.40068 0.11689 0.0
O254 O 0.97966 0.40086 0.00204 0.0
Zn255 Zn 0.97164 0.4068 0.05236 0.0
O256 O 0.0002 0.39228 0.01114 0.0
Zn257 Zn 0.9913 0.39828 0.05344 0.0
O258 O 0.97463 0.38384 0.05991 0.0
O259 O 0.95562 0.39589 0.05621 0.0
O260 O 0.0012 0.39626 0.09658 0.0
O261 O 0.98058 0.4049 0.10389 0.0
O262 O 0.96887 0.42604 0.04696 0.0
O263 O 0.99062 0.42017 0.04621 0.0
C264 C 0.96152 0.38445 0.0604 0.0
C265 C 0.98134 0.42941 0.04409 0.0
C266 C 0.84387 0.74296 0.38402 0.0
C267 C 0.85203 0.73918 0.25845 0.0
O268 O 0.83916 0.73172 0.37161 0.0
Zn269 Zn 0.83792 0.72203 0.32095 0.0
O270 O 0.8494 0.75149 0.36338 0.0
Zn271 Zn 0.84772 0.74097 0.32087 0.0
O272 O 0.82605 0.74155 0.30845 0.0
O273 O 0.81877 0.7203 0.31282 0.0
O274 O 0.85548 0.74873 0.27919 0.0
O275 O 0.84559 0.72875 0.27048 0.0
O276 O 0.84744 0.70538 0.32836 0.0
O277 O 0.86088 0.72345 0.33062 0.0
C278 C 0.81633 0.73276 0.30629 0.0
C279 C 0.85925 0.71045 0.33274 0.0
C280 C 0.5101 0.39561 0.01615 0.0
C281 C 0.50763 0.4 0.88926 0.0
O282 O 0.52087 0.40122 0.00351 0.0
Zn283 Zn 0.52825 0.40708 0.95238 0.0
O284 O 0.5006 0.39186 0.99562 0.0
Zn285 Zn 0.50891 0.39797 0.95276 0.0
O286 O 0.52602 0.38404 0.94527 0.0
O287 O 0.54458 0.39682 0.9477 0.0
O288 O 0.49855 0.39565 0.91024 0.0
O289 O 0.519 0.4045 0.90143 0.0
O290 O 0.53049 0.42642 0.95668 0.0
O291 O 0.50898 0.4199 0.95997 0.0
C292 C 0.53909 0.38517 0.94377 0.0
C293 C 0.51799 0.42941 0.96096 0.0
C294 C 0.84566 0.2593 0.12638 0.0
C295 C 0.85183 0.26171 0.25309 0.0
O296 O 0.84183 0.27087 0.13881 0.0
Zn297 Zn 0.84048 0.28035 0.18974 0.0
O298 O 0.84985 0.2501 0.14724 0.0
Zn299 Zn 0.8485 0.26053 0.19002 0.0
O300 O 0.82672 0.26191 0.19971 0.0
O301 O 0.82136 0.28373 0.1955 0.0
O302 O 0.8548 0.25198 0.2324 0.0
O303 O 0.8466 0.27274 0.24069 0.0
O304 O 0.85168 0.29605 0.18378 0.0
O305 O 0.8633 0.27674 0.18162 0.0
C306 C 0.81776 0.27147 0.20106 0.0
C307 C 0.86295 0.28985 0.1797 0.0
C308 C 0.95785 0.60982 0.43036 0.0
C309 C 0.98026 0.56614 0.44676 0.0
O310 O 0.97087 0.61133 0.43229 0.0
Zn311 Zn 0.98835 0.59794 0.43984 0.0
O312 O 0.95271 0.59799 0.43352 0.0
Zn313 Zn 0.96935 0.58814 0.43852 0.0
O314 O 0.97636 0.59393 0.49012 0.0
O315 O 0.99619 0.60428 0.48307 0.0
O316 O 0.96769 0.56874 0.44216 0.0
O317 O 0.98897 0.57596 0.44644 0.0
O318 O 0.99885 0.60078 0.39781 0.0
O319 O 0.97888 0.59103 0.38807 0.0
C320 C 0.98682 0.59997 0.50327 0.0
C321 C 0.99014 0.59598 0.37641 0.0
C322 C 0.65273 0.7408 0.62465 0.0
C323 C 0.64833 0.73836 0.75148 0.0
O324 O 0.65725 0.72942 0.63666 0.0
Zn325 Zn 0.6596 0.72003 0.68754 0.0
O326 O 0.64807 0.7497 0.64572 0.0
Zn327 Zn 0.6504 0.73928 0.68798 0.0
O328 O 0.67238 0.73921 0.69502 0.0
O329 O 0.67892 0.71769 0.69141 0.0
O330 O 0.64428 0.74765 0.7307 0.0
O331 O 0.65405 0.72761 0.73895 0.0
O332 O 0.64928 0.70368 0.68313 0.0
O333 O 0.63646 0.72219 0.68084 0.0
C334 C 0.68191 0.73019 0.69571 0.0
C335 C 0.6376 0.70911 0.67955 0.0
C336 C 0.48796 0.39832 0.51558 0.0
C337 C 0.48997 0.40322 0.38875 0.0
O338 O 0.49764 0.39538 0.49476 0.0
Zn339 Zn 0.4888 0.40086 0.45204 0.0
O340 O 0.47675 0.40312 0.5032 0.0
Zn341 Zn 0.46875 0.40832 0.45217 0.0
O342 O 0.45335 0.39648 0.44781 0.0
O343 O 0.47304 0.38558 0.44421 0.0
O344 O 0.47827 0.40679 0.40093 0.0
O345 O 0.49927 0.39936 0.40975 0.0
O346 O 0.48689 0.42272 0.45847 0.0
O347 O 0.46487 0.42745 0.45656 0.0
C348 C 0.45992 0.38544 0.44329 0.0
C349 C 0.47713 0.43148 0.4597 0.0
C350 C 0.31663 0.72934 0.19713 0.0
C351 C 0.36101 0.70865 0.17963 0.0
O352 O 0.31973 0.71689 0.19248 0.0
Zn353 Zn 0.339 0.71937 0.18792 0.0
O354 O 0.32606 0.73845 0.19625 0.0
Zn355 Zn 0.34802 0.73873 0.18897 0.0
O356 O 0.35034 0.74925 0.14678 0.0
O357 O 0.34129 0.72896 0.13725 0.0
O358 O 0.36208 0.72173 0.18146 0.0
O359 O 0.34936 0.70312 0.1828 0.0
O360 O 0.34487 0.72656 0.23937 0.0
O361 O 0.35405 0.74695 0.2321 0.0
C362 C 0.34578 0.74039 0.12545 0.0
C363 C 0.35041 0.73731 0.25236 0.0
C364 C 0.03824 0.61109 0.93294 0.0
C365 C 0.01789 0.56624 0.94552 0.0
O366 O 0.04397 0.5995 0.93565 0.0
Zn367 Zn 0.02779 0.58888 0.93873 0.0
O368 O 0.02514 0.61191 0.93384 0.0
Zn369 Zn 0.00827 0.59756 0.93963 0.0
O370 O -0.00024 0.60304 0.98284 0.0
O371 O 0.02028 0.59417 0.99017 0.0
O372 O 0.00871 0.5756 0.94496 0.0
O373 O 0.03035 0.56952 0.94192 0.0
O374 O 0.01857 0.59196 0.88773 0.0
O375 O 0.99791 0.60018 0.89743 0.0
C376 C 0.00939 0.59944 0.00314 0.0
C377 C 0.00707 0.59632 0.87605 0.0
C378 C 0.13807 0.29232 0.69228 0.0
C379 C 0.18279 0.27195 0.70816 0.0
O380 O 0.14962 0.29808 0.69553 0.0
Zn381 Zn 0.16025 0.28193 0.70057 0.0
O382 O 0.13723 0.27924 0.69436 0.0
Zn383 Zn 0.15144 0.26242 0.70172 0.0
O384 O 0.14569 0.25421 0.74497 0.0
O385 O 0.15468 0.27469 0.75207 0.0
O386 O 0.17338 0.26282 0.70762 0.0
O387 O 0.17961 0.28442 0.70417 0.0
O388 O 0.1575 0.27241 0.64994 0.0
O389 O 0.14889 0.25192 0.6596 0.0
C390 C 0.1493 0.26387 0.76516 0.0
C391 C 0.15302 0.26097 0.63821 0.0
C392 C 0.49219 0.59817 0.11684 0.0
C393 C 0.4864 0.59949 0.9901 0.0
O394 O 0.50022 0.60301 0.09383 0.0
Zn395 Zn 0.48908 0.59884 0.05369 0.0
O396 O 0.48092 0.5926 0.10722 0.0
Zn397 Zn 0.47029 0.58892 0.05837 0.0
O398 O 0.46853 0.56959 0.05766 0.0
O399 O 0.48978 0.57662 0.05072 0.0
O400 O 0.47627 0.59357 0.00516 0.0
O401 O 0.49599 0.60435 0.00871 0.0
O402 O 0.47174 0.6122 0.06224 0.0
O403 O 0.45369 0.59876 0.0646 0.0
C404 C 0.48104 0.56684 0.0527 0.0
C405 C 0.4588 0.61066 0.06616 0.0
C406 C 0.15069 0.74192 0.87298 0.0
C407 C 0.14616 0.73695 0.74653 0.0
O408 O 0.14528 0.75008 0.85115 0.0
Zn409 Zn 0.14832 0.73919 0.80988 0.0
O410 O 0.15586 0.73064 0.86206 0.0
Zn411 Zn 0.158 0.72018 0.81243 0.0
O412 O 0.17727 0.71815 0.80806 0.0
O413 O 0.1704 0.73954 0.80342 0.0
O414 O 0.15202 0.72652 0.76029 0.0
O415 O 0.14215 0.74664 0.76612 0.0
O416 O 0.13483 0.72198 0.81903 0.0
O417 O 0.14805 0.70374 0.81998 0.0
C418 C 0.18007 0.73067 0.80321 0.0
C419 C 0.13626 0.70901 0.82262 0.0
C420 C 0.03973 0.38544 0.56068 0.0
C421 C 0.01884 0.42991 0.54498 0.0
O422 O 0.04536 0.397 0.55628 0.0
Zn423 Zn 0.02907 0.4075 0.5527 0.0
O424 O 0.02664 0.3845 0.56012 0.0
Zn425 Zn 0.00962 0.39855 0.55346 0.0
O426 O 0.00088 0.3925 0.51118 0.0
O427 O 0.0212 0.4016 0.50209 0.0
O428 O 0.0098 0.42043 0.54644 0.0
O429 O 0.03136 0.42687 0.54837 0.0
O430 O 0.02021 0.40498 0.60417 0.0
O431 O -0.00036 0.39626 0.59636 0.0
C432 C 0.01026 0.39607 0.49012 0.0
C433 C 0.00891 0.40055 0.6169 0.0
C434 C 0.35287 0.26087 0.24406 0.0
C435 C 0.34679 0.25863 0.37049 0.0
O436 O 0.35572 0.25115 0.26487 0.0
Zn437 Zn 0.34982 0.25988 0.30746 0.0
O438 O 0.34795 0.27203 0.25637 0.0
Zn439 Zn 0.34225 0.27993 0.30698 0.0
O440 O 0.35399 0.29537 0.3122 0.0
O441 O 0.36492 0.27572 0.31668 0.0
O442 O 0.34335 0.27036 0.35818 0.0
O443 O 0.35083 0.24932 0.34973 0.0
O444 O 0.32808 0.26168 0.29952 0.0
O445 O 0.32313 0.28365 0.30111 0.0
C446 C 0.36498 0.28884 0.31765 0.0
C447 C 0.31925 0.27135 0.29757 0.0
H448 H 0.01751 0.1018 0.66611 0.0
H449 H 0.02203 0.10367 0.7292 0.0
H450 H 0.97908 0.0986 0.75067 0.0
H451 H 0.97448 0.09651 0.68781 0.0
H452 H 0.99209 0.12094 0.78731 0.0
H453 H 0.99814 0.07268 0.7638 0.0
H454 H 0.00824 0.05293 0.73308 0.0
H455 H 0.0483 0.0653 0.76633 0.0
H456 H 0.03844 0.08524 0.79685 0.0
H457 H 0.99061 0.10681 0.96896 0.0
H458 H 0.98811 0.1075 0.90533 0.0
H459 H 0.03167 0.10229 0.89346 0.0
H460 H 0.03414 0.10102 0.9572 0.0
H461 H 0.01966 0.08624 0.85046 0.0
H462 H 0.01457 0.13357 0.87632 0.0
H463 H 0.00545 0.15401 0.90601 0.0
H464 H 0.96525 0.14486 0.86744 0.0
H465 H 0.97409 0.12424 0.8379 0.0
C466 C 0.00903 0.10106 0.68427 0.0
C467 C 0.99564 0.09896 0.672 0.0
C468 C 0.01164 0.10212 0.72026 0.0
C469 C 0.00088 0.10126 0.7445 0.0
C470 C 0.9875 0.09931 0.73233 0.0
C471 C 0.98492 0.09805 0.69643 0.0
C472 C 0.00355 0.10227 0.78266 0.0
C473 C 0.99801 0.11331 0.8013 0.0
C474 C 0.01165 0.09254 0.80049 0.0
C475 C 0.01757 0.08053 0.78225 0.0
C476 C 0.00912 0.07126 0.76428 0.0
C477 C 0.01479 0.06002 0.74697 0.0
C478 C 0.02891 0.05789 0.74766 0.0
C479 C 0.03737 0.06697 0.76576 0.0
C480 C 0.03174 0.07824 0.78309 0.0
C481 C -0.00031 0.10597 0.95283 0.0
C482 C 0.01258 0.10387 0.96814 0.0
C483 C 0.99825 0.10643 0.91637 0.0
C484 C 0.00972 0.10513 0.89443 0.0
C485 C 0.02265 0.10331 0.90975 0.0
C486 C 0.02407 0.10264 0.94621 0.0
C487 C 0.00812 0.10492 0.85559 0.0
C488 C 0.01384 0.09399 0.83668 0.0
C489 C 0.00035 0.11489 0.83743 0.0
C490 C 0.99498 0.12729 0.85514 0.0
C491 C 0.00376 0.13585 0.87439 0.0
C492 C 0.99865 0.14748 0.89115 0.0
C493 C 0.98477 0.15071 0.88868 0.0
C494 C 0.97599 0.14233 0.86936 0.0
C495 C 0.98106 0.13068 0.85257 0.0
H496 H 0.98083 0.15972 0.90168 0.0
H497 H 0.03328 0.04917 0.73425 0.0
H498 H 0.13379 0.75944 0.90809 0.0
H499 H 0.13273 0.76343 0.97132 0.0
H500 H 0.16655 0.73574 0.98659 0.0
H501 H 0.16719 0.73123 0.9236 0.0
H502 H 0.14908 0.73076 0.03355 0.0
H503 H 0.16951 0.77201 0.99186 0.0
H504 H 0.17166 0.79277 0.95559 0.0
H505 H 0.13407 0.80821 0.99807 0.0
H506 H 0.13161 0.78746 0.03428 0.0
H507 H 0.16342 0.7755 0.19899 0.0
H508 H 0.16355 0.7725 0.13551 0.0
H509 H 0.12985 0.74421 0.14368 0.0
H510 H 0.13012 0.7467 0.20756 0.0
H511 H 0.14751 0.77729 0.08498 0.0
H512 H 0.13146 0.72023 0.08012 0.0
H513 H 0.1331 0.69947 0.1166 0.0
H514 H 0.16868 0.71566 0.16779 0.0
H515 H 0.16736 0.73642 0.1313 0.0
C516 C 0.14106 0.75428 0.92494 0.0
C517 C 0.1506 0.74505 0.91091 0.0
C518 C 0.14048 0.75661 0.9611 0.0
C519 C 0.14967 0.75003 0.98384 0.0
C520 C 0.15931 0.74091 0.96971 0.0
C521 C 0.15971 0.73838 0.93366 0.0
C522 C 0.14909 0.75235 0.0224 0.0
C523 C 0.14875 0.74095 0.04474 0.0
C524 C 0.14886 0.76563 0.03723 0.0
C525 C 0.15031 0.77812 0.01551 0.0
C526 C 0.16165 0.77979 0.99327 0.0
C527 C 0.16293 0.79156 0.97276 0.0
C528 C 0.15299 0.80178 0.97445 0.0
C529 C 0.14176 0.80027 0.99674 0.0
C530 C 0.14042 0.78851 0.01729 0.0
C531 C 0.15598 0.76868 0.18727 0.0
C532 C 0.14682 0.76126 0.20829 0.0
C533 C 0.15605 0.76699 0.15091 0.0
C534 C 0.14686 0.75796 0.13469 0.0
C535 C 0.13729 0.75097 0.15556 0.0
C536 C 0.13739 0.75246 0.19206 0.0
C537 C 0.14755 0.7557 0.09612 0.0
C538 C 0.14783 0.76711 0.07377 0.0
C539 C 0.14827 0.74243 0.08133 0.0
C540 C 0.1492 0.72995 0.10327 0.0
C541 C 0.13965 0.71934 0.09911 0.0
C542 C 0.14052 0.70758 0.11979 0.0
C543 C 0.15095 0.70627 0.1446 0.0
C544 C 0.16057 0.71671 0.14868 0.0
C545 C 0.15976 0.72848 0.12802 0.0
H546 H 0.1516 0.69716 0.1606 0.0
H547 H 0.154 0.81089 0.95856 0.0
H548 H 0.48421 0.90276 0.16486 0.0
H549 H 0.48108 0.90166 0.22859 0.0
H550 H 0.52476 0.90016 0.24283 0.0
H551 H 0.528 0.90153 0.17921 0.0
H552 H 0.50915 0.87979 0.28122 0.0
H553 H 0.51108 0.92822 0.2607 0.0
H554 H 0.5045 0.94991 0.2325 0.0
H555 H 0.46334 0.94498 0.26941 0.0
H556 H 0.46963 0.92313 0.29738 0.0
H557 H 0.51136 0.89104 0.46573 0.0
H558 H 0.51485 0.89124 0.40228 0.0
H559 H 0.47247 0.90187 0.38697 0.0
H560 H 0.469 0.90205 0.45037 0.0
H561 H 0.48783 0.91761 0.34846 0.0
H562 H 0.48533 0.86941 0.36895 0.0
H563 H 0.4913 0.84738 0.39634 0.0
H564 H 0.53249 0.8512 0.35884 0.0
H565 H 0.52682 0.87336 0.33165 0.0
C566 C 0.49314 0.90224 0.18159 0.0
C567 C 0.50635 0.90229 0.16713 0.0
C568 C 0.49134 0.90164 0.21791 0.0
C569 C 0.5027 0.90087 0.24026 0.0
C570 C 0.51589 0.90077 0.22592 0.0
C571 C 0.51771 0.90162 0.18964 0.0
C572 C 0.50078 0.9001 0.27866 0.0
C573 C 0.50465 0.8881 0.29612 0.0
C574 C 0.4946 0.91084 0.29768 0.0
C575 C 0.49079 0.92395 0.28077 0.0
C576 C 0.50059 0.93168 0.26248 0.0
C577 C 0.49692 0.94402 0.24661 0.0
C578 C 0.4835 0.9488 0.24906 0.0
C579 C 0.47373 0.94126 0.26747 0.0
C580 C 0.47734 0.92889 0.28335 0.0
C581 C 0.50274 0.89327 0.44885 0.0
C582 C 0.4899 0.89653 0.4631 0.0
C583 C 0.50474 0.89334 0.41255 0.0
C584 C 0.49389 0.89646 0.3898 0.0
C585 C 0.481 0.89946 0.40399 0.0
C586 C 0.47902 0.89951 0.44025 0.0
C587 C 0.49608 0.8972 0.35132 0.0
C588 C 0.4923 0.90924 0.33374 0.0
C589 C 0.50223 0.88643 0.33216 0.0
C590 C 0.50568 0.87313 0.34861 0.0
C591 C 0.49569 0.86562 0.36682 0.0
C592 C 0.49902 0.85309 0.38226 0.0
C593 C 0.51227 0.84791 0.37942 0.0
C594 C 0.52223 0.85524 0.36107 0.0
C595 C 0.51897 0.86778 0.34563 0.0
H596 H 0.51483 0.83821 0.39137 0.0
H597 H 0.48069 0.95836 0.23678 0.0
H598 H 0.3466 0.23411 0.40484 0.0
H599 H 0.3472 0.23027 0.46838 0.0
H600 H 0.34767 0.2738 0.4859 0.0
H601 H 0.34681 0.27774 0.42253 0.0
H602 H 0.36845 0.25801 0.52306 0.0
H603 H 0.31986 0.25918 0.50149 0.0
H604 H 0.29864 0.25204 0.47185 0.0
H605 H 0.30458 0.21089 0.50777 0.0
H606 H 0.32598 0.21774 0.53716 0.0
H607 H 0.35751 0.261 0.70611 0.0
H608 H 0.35684 0.26397 0.64258 0.0
H609 H 0.34585 0.22153 0.63001 0.0
H610 H 0.34603 0.21862 0.69368 0.0
H611 H 0.33064 0.23618 0.58923 0.0
H612 H 0.37862 0.23403 0.61085 0.0
H613 H 0.40054 0.24001 0.63884 0.0
H614 H 0.39682 0.28123 0.60148 0.0
H615 H 0.37478 0.27555 0.57366 0.0
C616 C 0.34675 0.24285 0.42225 0.0
C617 C 0.34663 0.25622 0.40874 0.0
C618 C 0.34707 0.24065 0.45846 0.0
C619 C 0.34747 0.25176 0.48168 0.0
C620 C 0.34737 0.26511 0.46831 0.0
C621 C 0.34681 0.26733 0.43215 0.0
C622 C 0.34822 0.24948 0.51996 0.0
C623 C 0.36014 0.25339 0.53772 0.0
C624 C 0.33753 0.24305 0.53861 0.0
C625 C 0.32461 0.23894 0.52118 0.0
C626 C 0.31672 0.24858 0.50278 0.0
C627 C 0.30464 0.24459 0.48608 0.0
C628 C 0.30028 0.23101 0.48783 0.0
C629 C 0.30798 0.2214 0.50638 0.0
C630 C 0.32008 0.22533 0.52308 0.0
C631 C 0.35507 0.25227 0.68982 0.0
C632 C 0.35187 0.23956 0.70494 0.0
C633 C 0.35473 0.25396 0.65345 0.0
C634 C 0.35147 0.24293 0.63139 0.0
C635 C 0.34839 0.2302 0.64645 0.0
C636 C 0.34855 0.22854 0.68285 0.0
C637 C 0.35091 0.24476 0.59271 0.0
C638 C 0.33902 0.24076 0.57475 0.0
C639 C 0.36172 0.25093 0.57375 0.0
C640 C 0.37498 0.2544 0.59045 0.0
C641 C 0.38242 0.2444 0.60883 0.0
C642 C 0.39488 0.24773 0.62463 0.0
C643 C 0.40005 0.261 0.62202 0.0
C644 C 0.39279 0.27096 0.60353 0.0
C645 C 0.38033 0.26769 0.58771 0.0
H646 H 0.4097 0.26355 0.63426 0.0
H647 H 0.29093 0.22795 0.47487 0.0
H648 H 0.98418 0.92036 0.82097 0.0
H649 H 0.98847 0.91864 0.75806 0.0
H650 H 0.01495 0.88406 0.77596 0.0
H651 H 0.01112 0.88612 0.8392 0.0
H652 H 0.02532 0.89864 0.72656 0.0
H653 H 0.98115 0.88023 0.74759 0.0
H654 H 0.95761 0.87962 0.77058 0.0
H655 H 0.94709 0.91435 0.70729 0.0
H656 H 0.97063 0.91529 0.6843 0.0
H657 H 0.99592 0.88243 0.53786 0.0
H658 H 0.99434 0.88126 0.60184 0.0
H659 H 0.02289 0.91473 0.6105 0.0
H660 H 0.02494 0.91552 0.54678 0.0
H661 H 0.98516 0.89775 0.64719 0.0
H662 H 0.04059 0.91379 0.68531 0.0
H663 H 0.06406 0.91094 0.66288 0.0
H664 H 0.05198 0.87449 0.60832 0.0
H665 H 0.02849 0.87701 0.63081 0.0
C666 C 0.99101 0.91246 0.81154 0.0
C667 C 0.99724 0.90331 0.83501 0.0
C668 C 0.99339 0.91143 0.77552 0.0
C669 C 0.00177 0.90101 0.7621 0.0
C670 C 0.00839 0.89215 0.78561 0.0
C671 C 0.00619 0.89333 0.82176 0.0
C672 C 0.00335 0.8992 0.72355 0.0
C673 C 0.01654 0.89843 0.70921 0.0
C674 C 0.9919 0.89847 0.70087 0.0
C675 C 0.97769 0.8979 0.71444 0.0
C676 C 0.97384 0.88779 0.73874 0.0
C677 C 0.96049 0.88738 0.75176 0.0
C678 C 0.95087 0.89696 0.74046 0.0
C679 C 0.95456 0.90695 0.71604 0.0
C680 C 0.9679 0.90742 0.70298 0.0
C681 C 0.00196 0.88943 0.55346 0.0
C682 C 0.01062 0.899 0.5373 0.0
C683 C 0.00103 0.88879 0.59004 0.0
C684 C 0.00862 0.89779 0.61117 0.0
C685 C 0.0172 0.90742 0.59496 0.0
C686 C 0.01831 0.90791 0.55845 0.0
C687 C 0.00715 0.89751 0.65004 0.0
C688 C 0.99396 0.8979 0.66448 0.0
C689 C 0.01859 0.89735 0.67283 0.0
C690 C 0.03275 0.89567 0.65951 0.0
C691 C 0.04296 0.90513 0.66866 0.0
C692 C 0.05626 0.90358 0.65591 0.0
C693 C 0.0595 0.89256 0.63411 0.0
C694 C 0.04945 0.88305 0.62511 0.0
C695 C 0.03613 0.88454 0.63782 0.0
H696 H 0.0698 0.89139 0.62424 0.0
H697 H 0.94054 0.89662 0.75057 0.0
H698 H 0.35406 0.73622 0.78974 0.0
H699 H 0.3539 0.73368 0.85362 0.0
H700 H 0.35086 0.77739 0.86539 0.0
H701 H 0.35073 0.78003 0.80145 0.0
H702 H 0.37045 0.76288 0.91266 0.0
H703 H 0.32349 0.76258 0.87341 0.0
H704 H 0.30451 0.75463 0.83611 0.0
H705 H 0.30964 0.71381 0.87523 0.0
H706 H 0.32884 0.72148 0.91232 0.0
H707 H 0.35075 0.76457 0.09155 0.0
H708 H 0.35206 0.76847 0.0283 0.0
H709 H 0.34345 0.72583 0.00964 0.0
H710 H 0.34168 0.72196 0.07272 0.0
H711 H 0.32982 0.74039 0.96504 0.0
H712 H 0.37643 0.73964 0.00337 0.0
H713 H 0.39634 0.7464 0.03901 0.0
H714 H 0.39302 0.78755 1.00088 0.0
H715 H 0.37296 0.78107 0.96535 0.0
C716 C 0.35355 0.74531 0.8059 0.0
C717 C 0.35235 0.75832 0.7906 0.0
C718 C 0.35342 0.74383 0.84235 0.0
C719 C 0.35229 0.75535 0.86407 0.0
C720 C 0.35174 0.7684 0.84897 0.0
C721 C 0.35163 0.76987 0.81249 0.0
C722 C 0.35089 0.75368 0.90245 0.0
C723 C 0.36151 0.75814 0.92428 0.0
C724 C 0.33936 0.74718 0.91727 0.0
C725 C 0.3277 0.74258 0.89536 0.0
C726 C 0.32066 0.75189 0.87383 0.0
C727 C 0.30984 0.74743 0.85276 0.0
C728 C 0.30589 0.73371 0.85323 0.0
C729 C 0.31273 0.72443 0.87486 0.0
C730 C 0.32357 0.72883 0.89592 0.0
C731 C 0.34908 0.75603 0.07396 0.0
C732 C 0.34615 0.74295 0.08718 0.0
C733 C 0.34991 0.75826 0.03779 0.0
C734 C 0.34808 0.74739 0.01414 0.0
C735 C 0.34492 0.73437 0.02731 0.0
C736 C 0.34393 0.73218 0.06343 0.0
C737 C 0.34945 0.74954 0.97568 0.0
C738 C 0.33879 0.74517 0.95367 0.0
C739 C 0.36105 0.75597 0.96068 0.0
C740 C 0.37311 0.7599 0.98199 0.0
C741 C 0.37988 0.75015 0.0028 0.0
C742 C 0.3912 0.75393 0.02294 0.0
C743 C 0.39592 0.76741 0.02229 0.0
C744 C 0.38934 0.77712 0.00141 0.0
C745 C 0.378 0.7734 0.98124 0.0
H746 H 0.40469 0.77031 0.0379 0.0
H747 H 0.29752 0.73029 0.8369 0.0
H748 H 0.51041 0.11167 0.03407 0.0
H749 H 0.51394 0.11073 0.09765 0.0
H750 H 0.47624 0.08839 0.10945 0.0
H751 H 0.47263 0.08924 0.04616 0.0
H752 H 0.49911 0.11972 0.15402 0.0
H753 H 0.48133 0.06354 0.17175 0.0
H754 H 0.48046 0.04213 0.13757 0.0
H755 H 0.514 0.05587 0.07414 0.0
H756 H 0.51522 0.07724 0.10828 0.0
H757 H 0.48787 0.10582 0.33393 0.0
H758 H 0.48486 0.10683 0.27029 0.0
H759 H 0.52105 0.0823 0.25617 0.0
H760 H 0.52411 0.08116 0.31974 0.0
H761 H 0.50081 0.07434 0.21206 0.0
H762 H 0.52296 0.11596 0.24495 0.0
H763 H 0.52608 0.13727 0.27852 0.0
H764 H 0.48792 0.15254 0.23912 0.0
H765 H 0.48447 0.13122 0.20571 0.0
C766 C 0.50281 0.10667 0.05022 0.0
C767 C 0.49127 0.10047 0.03497 0.0
C768 C 0.50484 0.10615 0.08655 0.0
C769 C 0.49545 0.09933 0.10819 0.0
C770 C 0.48371 0.09354 0.09317 0.0
C771 C 0.48164 0.0941 0.05696 0.0
C772 C 0.49804 0.09794 0.14637 0.0
C773 C 0.49945 0.1098 0.16672 0.0
C774 C 0.49879 0.08498 0.16281 0.0
C775 C 0.49826 0.07206 0.14238 0.0
C776 C 0.48855 0.06197 0.1506 0.0
C777 C 0.488 0.04984 0.13122 0.0
C778 C 0.49714 0.04766 0.10363 0.0
C779 C 0.50689 0.05759 0.09544 0.0
C780 C 0.5075 0.06972 0.11477 0.0
C781 C 0.49513 0.10053 0.31733 0.0
C782 C 0.50627 0.09346 0.33196 0.0
C783 C 0.49343 0.10117 0.28094 0.0
C784 C 0.50283 0.09477 0.25848 0.0
C785 C 0.51369 0.08733 0.27301 0.0
C786 C 0.51544 0.08672 0.30938 0.0
C787 C 0.50153 0.09613 0.21983 0.0
C788 C 0.5004 0.08426 0.19938 0.0
C789 C 0.50133 0.10907 0.20319 0.0
C790 C 0.5034 0.12193 0.22309 0.0
C791 C 0.51518 0.12382 0.24366 0.0
C792 C 0.51702 0.13591 0.26263 0.0
C793 C 0.50719 0.14624 0.26102 0.0
C794 C 0.49552 0.14452 0.24037 0.0
C795 C 0.49362 0.13244 0.2214 0.0
H796 H 0.50863 0.1556 0.27572 0.0
H797 H 0.49669 0.03827 0.08865 0.0
H798 H 0.15033 0.23661 0.60365 0.0
H799 H 0.1483 0.23302 0.54023 0.0
H800 H 0.15108 0.27651 0.52324 0.0
H801 H 0.15328 0.28018 0.58646 0.0
H802 H 0.12963 0.26353 0.48557 0.0
H803 H 0.17794 0.25844 0.50706 0.0
H804 H 0.19822 0.2487 0.53619 0.0
H805 H 0.18704 0.20861 0.50043 0.0
H806 H 0.16658 0.21809 0.4715 0.0
H807 H 0.14252 0.26542 0.30237 0.0
H808 H 0.1422 0.26811 0.36604 0.0
H809 H 0.14783 0.22463 0.37848 0.0
H810 H 0.14868 0.22196 0.31482 0.0
H811 H 0.16441 0.23709 0.41956 0.0
H812 H 0.11667 0.24157 0.39631 0.0
H813 H 0.09592 0.25066 0.36801 0.0
H814 H 0.10497 0.29072 0.40767 0.0
H815 H 0.12589 0.28192 0.43581 0.0
C816 C 0.15055 0.2454 0.58638 0.0
C817 C 0.15207 0.25866 0.59998 0.0
C818 C 0.1494 0.24333 0.55022 0.0
C819 C 0.1496 0.2545 0.52714 0.0
C820 C 0.15092 0.26776 0.54066 0.0
C821 C 0.15228 0.26982 0.57674 0.0
C822 C 0.14853 0.25237 0.48882 0.0
C823 C 0.13728 0.25787 0.47095 0.0
C824 C 0.15834 0.24466 0.47014 0.0
C825 C 0.17065 0.23896 0.48746 0.0
C826 C 0.17974 0.24753 0.50569 0.0
C827 C 0.19128 0.24206 0.5221 0.0
C828 C 0.1939 0.22804 0.52025 0.0
C829 C 0.18499 0.21947 0.50189 0.0
C830 C 0.17342 0.22488 0.48547 0.0
C831 C 0.14352 0.25641 0.31868 0.0
C832 C 0.14564 0.24348 0.30359 0.0
C833 C 0.14328 0.25795 0.35512 0.0
C834 C 0.14485 0.24656 0.37718 0.0
C835 C 0.14663 0.23359 0.36207 0.0
C836 C 0.14708 0.23207 0.32566 0.0
C837 C 0.14544 0.24823 0.41591 0.0
C838 C 0.15665 0.24267 0.43398 0.0
C839 C 0.1355 0.25577 0.4348 0.0
C840 C 0.12293 0.2611 0.41787 0.0
C841 C 0.1143 0.25234 0.39875 0.0
C842 C 0.10249 0.25744 0.38278 0.0
C843 C 0.09915 0.27127 0.38596 0.0
C844 C 0.10759 0.28002 0.40519 0.0
C845 C 0.11941 0.27498 0.42118 0.0
H846 H 0.09 0.27519 0.37358 0.0
H847 H 0.20284 0.22383 0.53296 0.0
H848 H 0.01952 0.91522 0.31776 0.0
H849 H 0.01444 0.91379 0.25516 0.0
H850 H 0.979 0.88909 0.27745 0.0
H851 H 0.98404 0.89041 0.34027 0.0
H852 H 0.99404 0.8786 0.22336 0.0
H853 H 0.97478 0.92176 0.25546 0.0
H854 H 0.9746 0.94476 0.28186 0.0
H855 H 0.00662 0.95743 0.21209 0.0
H856 H 0.00714 0.93443 0.1856 0.0
H857 H 0.96802 0.90952 0.04568 0.0
H858 H 0.96934 0.90913 0.10961 0.0
H859 H 0.00703 0.8864 0.10382 0.0
H860 H 0.00574 0.88662 0.03974 0.0
H861 H 0.98837 0.92029 0.15075 0.0
H862 H 0.00953 0.86588 0.17642 0.0
H863 H 0.00818 0.84281 0.15051 0.0
H864 H 0.96916 0.85251 0.10548 0.0
H865 H 0.97018 0.87555 0.13153 0.0
C866 C 0.01061 0.90952 0.30943 0.0
C867 C 0.00216 0.90296 0.33407 0.0
C868 C 0.00771 0.90874 0.27361 0.0
C869 C 0.99629 0.90141 0.26166 0.0
C870 C 0.98786 0.8948 0.28613 0.0
C871 C 0.99072 0.89562 0.32202 0.0
C872 C 0.99325 0.90059 0.22358 0.0
C873 C 0.99278 0.8877 0.20746 0.0
C874 C 0.99139 0.91247 0.20297 0.0
C875 C 0.99108 0.92633 0.21875 0.0
C876 C 0.98186 0.92942 0.24593 0.0
C877 C 0.98168 0.94246 0.26088 0.0
C878 C 0.99061 0.95254 0.24872 0.0
C879 C -0.00028 0.94961 0.22151 0.0
C880 C -5e-05 0.93657 0.2065 0.0
C881 C 0.97653 0.9043 0.05794 0.0
C882 C 0.98679 0.89811 0.03754 0.0
C883 C 0.97728 0.90413 0.09453 0.0
C884 C 0.98825 0.8977 0.11152 0.0
C885 C 0.99838 0.89128 0.09129 0.0
C886 C 0.99765 0.89145 0.05464 0.0
C887 C 0.98941 0.89829 0.15033 0.0
C888 C 0.98958 0.91116 0.16661 0.0
C889 C 0.9908 0.88639 0.17111 0.0
C890 C 0.99 0.87249 0.15567 0.0
C891 C 0.00064 0.86307 0.16111 0.0
C892 C -7e-05 0.85 0.14638 0.0
C893 C 0.98861 0.84621 0.12627 0.0
C894 C 0.97794 0.85547 0.12095 0.0
C895 C 0.97859 0.86854 0.13565 0.0
H896 H 0.98809 0.83609 0.11487 0.0
H897 H 0.99046 0.96264 0.26032 0.0
H898 H 0.85244 0.23591 0.09084 0.0
H899 H 0.85424 0.23283 0.02737 0.0
H900 H 0.8418 0.27466 0.0114 0.0
H901 H 0.83972 0.27776 0.07475 0.0
H902 H 0.82956 0.2586 0.96513 0.0
H903 H 0.87521 0.26555 0.00418 0.0
H904 H 0.89575 0.2618 0.04039 0.0
H905 H 0.89856 0.22054 0.00268 0.0
H906 H 0.87791 0.22399 0.96659 0.0
H907 H 0.85423 0.26445 0.78925 0.0
H908 H 0.85385 0.26755 0.85303 0.0
H909 H 0.85391 0.22386 0.86732 0.0
H910 H 0.85392 0.22064 0.80352 0.0
H911 H 0.87281 0.24128 0.91358 0.0
H912 H 0.82584 0.23556 0.87464 0.0
H913 H 0.80621 0.24116 0.83673 0.0
H914 H 0.80704 0.28264 0.8734 0.0
H915 H 0.82686 0.27734 0.91106 0.0
C916 C 0.84999 0.24443 0.07384 0.0
C917 C 0.84596 0.25709 0.08792 0.0
C918 C 0.85111 0.24268 0.03755 0.0
C919 C 0.84834 0.25357 0.01461 0.0
C920 C 0.844 0.26611 0.02856 0.0
C921 C 0.84283 0.26786 0.06483 0.0
C922 C 0.85011 0.25192 0.97612 0.0
C923 C 0.83907 0.25495 0.95392 0.0
C924 C 0.8625 0.24711 0.96136 0.0
C925 C 0.87493 0.24498 0.98297 0.0
C926 C 0.88014 0.25564 0.00383 0.0
C927 C 0.89181 0.25358 0.02429 0.0
C928 C 0.89843 0.24093 0.02391 0.0
C929 C 0.89341 0.23033 0.00299 0.0
C930 C 0.88173 0.23233 0.9825 0.0
C931 C 0.85437 0.2555 0.80596 0.0
C932 C 0.85406 0.2423 0.79142 0.0
C933 C 0.85412 0.2573 0.84233 0.0
C934 C 0.8538 0.24593 0.86472 0.0
C935 C 0.85416 0.23274 0.85037 0.0
C936 C 0.85413 0.23093 0.81399 0.0
C937 C 0.85224 0.24782 0.903 0.0
C938 C 0.86332 0.24489 0.92501 0.0
C939 C 0.83998 0.25294 0.91755 0.0
C940 C 0.82793 0.25609 0.89535 0.0
C941 C 0.82192 0.2459 0.87437 0.0
C942 C 0.81075 0.24902 0.85297 0.0
C943 C 0.8054 0.26226 0.85257 0.0
C944 C 0.8112 0.2724 0.87368 0.0
C945 C 0.8224 0.26934 0.89507 0.0
H946 H 0.79675 0.26465 0.83598 0.0
H947 H 0.90747 0.23935 0.03976 0.0
H948 H 0.5172 0.09731 0.83433 0.0
H949 H 0.52086 0.09898 0.771 0.0
H950 H 0.47725 0.098 0.75416 0.0
H951 H 0.4736 0.09563 0.81721 0.0
H952 H 0.48827 0.0837 0.70647 0.0
H953 H 0.49724 0.12849 0.75091 0.0
H954 H 0.50801 0.1459 0.78866 0.0
H955 H 0.54748 0.13526 0.74774 0.0
H956 H 0.53696 0.11766 0.71006 0.0
H957 H 0.48953 0.10923 0.53246 0.0
H958 H 0.48657 0.10978 0.5962 0.0
H959 H 0.52903 0.09937 0.61013 0.0
H960 H 0.53209 0.09868 0.54646 0.0
H961 H 0.51853 0.11981 0.65831 0.0
H962 H 0.50715 0.07569 0.60903 0.0
H963 H 0.49434 0.06109 0.56794 0.0
H964 H 0.4567 0.07233 0.61802 0.0
H965 H 0.46919 0.08767 0.65808 0.0
C966 C 0.50841 0.09739 0.81706 0.0
C967 C 0.49512 0.09636 0.83072 0.0
C968 C 0.5105 0.09844 0.78086 0.0
C969 C 0.49932 0.0989 0.75768 0.0
C970 C 0.48605 0.09767 0.77136 0.0
C971 C 0.48398 0.09633 0.80746 0.0
C972 C 0.50141 0.10069 0.71923 0.0
C973 C 0.49475 0.09172 0.69603 0.0
C974 C 0.50996 0.11107 0.70536 0.0
C975 C 0.51632 0.12167 0.72793 0.0
C976 C 0.50823 0.1298 0.75014 0.0
C977 C 0.51429 0.13971 0.7715 0.0
C978 C 0.52843 0.14166 0.77067 0.0
C979 C 0.53653 0.13373 0.7484 0.0
C980 C 0.53053 0.12379 0.72701 0.0
C981 C 0.4983 0.10729 0.54906 0.0
C982 C 0.51102 0.10378 0.53442 0.0
C983 C 0.49658 0.1076 0.58545 0.0
C984 C 0.50755 0.10448 0.60776 0.0
C985 C 0.52044 0.10179 0.59329 0.0
C986 C 0.52214 0.10133 0.55692 0.0
C987 C 0.50535 0.10289 0.64596 0.0
C988 C 0.51203 0.11184 0.66897 0.0
C989 C 0.49656 0.0927 0.65958 0.0
C990 C 0.48912 0.08302 0.63633 0.0
C991 C 0.49613 0.07523 0.61102 0.0
C992 C 0.48891 0.06684 0.58781 0.0
C993 C 0.47472 0.06576 0.59042 0.0
C994 C 0.4677 0.07317 0.61604 0.0
C995 C 0.47484 0.08179 0.63885 0.0
H996 H 0.46917 0.05916 0.57262 0.0
H997 H 0.5331 0.14934 0.78722 0.0
H998 H 0.65467 0.72199 0.57218 0.0
H999 H 0.65384 0.72603 0.5091 0.0
H1000 H 0.65023 0.76942 0.52756 0.0
H1001 H 0.65046 0.76534 0.59087 0.0
H1002 H 0.63349 0.76278 0.4789 0.0
H1003 H 0.68074 0.7537 0.49813 0.0
H1004 H 0.701 0.7412 0.51925 0.0
H1005 H 0.69033 0.70686 0.45468 0.0
H1006 H 0.66988 0.71908 0.43353 0.0
H1007 H 0.65112 0.78088 0.3017 0.0
H1008 H 0.65144 0.77787 0.36544 0.0
H1009 H 0.64478 0.7346 0.35239 0.0
H1010 H 0.64427 0.73752 0.28864 0.0
H1011 H 0.6672 0.742 0.39762 0.0
H1012 H 0.61938 0.75238 0.37945 0.0
H1013 H 0.60022 0.76634 0.3575 0.0
H1014 H 0.61382 0.80028 0.41982 0.0
H1015 H 0.63318 0.78657 0.44177 0.0
C1016 C 0.65377 0.7324 0.56281 0.0
C1017 C 0.65268 0.74336 0.58646 0.0
C1018 C 0.65337 0.73471 0.52669 0.0
C1019 C 0.65222 0.74806 0.51345 0.0
C1020 C 0.65114 0.75903 0.53709 0.0
C1021 C 0.6513 0.7567 0.57326 0.0
C1022 C 0.65175 0.75052 0.475 0.0
C1023 C 0.641 0.75839 0.46126 0.0
C1024 C 0.66143 0.74467 0.45176 0.0
C1025 C 0.6737 0.73726 0.46451 0.0
C1026 C 0.68265 0.74344 0.48865 0.0
C1027 C 0.69418 0.73641 0.50059 0.0
C1028 C 0.69693 0.72323 0.48838 0.0
C1029 C 0.68817 0.71706 0.46415 0.0
C1030 C 0.67662 0.72404 0.45215 0.0
C1031 C 0.6496 0.77074 0.3124 0.0
C1032 C 0.64765 0.75944 0.29016 0.0
C1033 C 0.64978 0.76905 0.34878 0.0
C1034 C 0.64812 0.75602 0.36348 0.0
C1035 C 0.64608 0.74474 0.34143 0.0
C1036 C 0.64572 0.74644 0.30507 0.0
C1037 C 0.64892 0.7541 0.40188 0.0
C1038 C 0.65975 0.74637 0.41548 0.0
C1039 C 0.63948 0.76028 0.42499 0.0
C1040 C 0.6278 0.76849 0.41197 0.0
C1041 C 0.61835 0.76286 0.38824 0.0
C1042 C 0.60744 0.77072 0.37585 0.0
C1043 C 0.60583 0.7842 0.38718 0.0
C1044 C 0.61509 0.78984 0.41102 0.0
C1045 C 0.62603 0.78203 0.42347 0.0
H1046 H 0.59738 0.79027 0.37756 0.0
H1047 H 0.70587 0.71781 0.49765 0.0
H1048 H 0.97386 0.08535 0.45829 0.0
H1049 H 0.97718 0.08452 0.39475 0.0
H1050 H 0.01091 0.11267 0.40371 0.0
H1051 H 0.00771 0.11353 0.46735 0.0
H1052 H 0.99404 0.11925 0.34916 0.0
H1053 H 0.01728 0.07992 0.39311 0.0
H1054 H 0.02052 0.05822 0.42487 0.0
H1055 H 0.98969 0.0392 0.36132 0.0
H1056 H 0.98607 0.06087 0.32957 0.0
H1057 H 0.02627 0.08542 0.1848 0.0
H1058 H 0.02227 0.08605 0.24799 0.0
H1059 H 0.98315 0.10519 0.23075 0.0
H1060 H 0.98713 0.10477 0.1674 0.0
H1061 H 0.00336 0.07509 0.28978 0.0
H1062 H 0.97756 0.12819 0.29705 0.0
H1063 H 0.97743 0.15 0.26456 0.0
H1064 H 0.01795 0.14192 0.22665 0.0
H1065 H 0.01839 0.12017 0.25929 0.0
C1066 C 0.98193 0.09146 0.44675 0.0
C1067 C 0.99053 0.09951 0.4679 0.0
C1068 C 0.98385 0.0909 0.41044 0.0
C1069 C 0.99436 0.09845 0.39456 0.0
C1070 C 0.00275 0.10676 0.41547 0.0
C1071 C 0.00092 0.10722 0.45183 0.0
C1072 C 0.9967 0.09757 0.35618 0.0
C1073 C 0.99602 0.10958 0.33616 0.0
C1074 C 0.99951 0.08499 0.3393 0.0
C1075 C 0.00131 0.07207 0.35918 0.0
C1076 C 0.01105 0.07117 0.3862 0.0
C1077 C 0.013 0.05886 0.40413 0.0
C1078 C 0.00534 0.04734 0.39504 0.0
C1079 C 0.99564 0.04813 0.36823 0.0
C1080 C 0.99363 0.06043 0.35031 0.0
C1081 C 0.01677 0.08971 0.19437 0.0
C1082 C 0.00705 0.09511 0.171 0.0
C1083 C 0.0145 0.09002 0.23054 0.0
C1084 C 0.00249 0.0958 0.24413 0.0
C1085 C 0.99259 0.10087 0.22086 0.0
C1086 C 0.99486 0.10056 0.18464 0.0
C1087 C 0.00049 0.09673 0.28268 0.0
C1088 C 0.00124 0.08473 0.30274 0.0
C1089 C 0.99802 0.10935 0.2997 0.0
C1090 C 0.99793 0.12249 0.28031 0.0
C1091 C 0.98646 0.1311 0.28187 0.0
C1092 C 0.98633 0.14345 0.26342 0.0
C1093 C 0.99766 0.14732 0.24345 0.0
C1094 C 0.00916 0.13889 0.24201 0.0
C1095 C 0.00935 0.12654 0.26044 0.0
H1096 H 0.99753 0.15688 0.22917 0.0
H1097 H 0.00696 0.03779 0.40872 0.0
H1098 H 0.63529 0.25596 0.20415 0.0
H1099 H 0.63563 0.25754 0.14012 0.0
H1100 H 0.66123 0.22172 0.13491 0.0
H1101 H 0.66104 0.22011 0.19882 0.0
H1102 H 0.67101 0.24168 0.094 0.0
H1103 H 0.62787 0.21984 0.11251 0.0
H1104 H 0.6049 0.21695 0.13803 0.0
H1105 H 0.59218 0.25501 0.09253 0.0
H1106 H 0.61514 0.25823 0.06714 0.0
H1107 H 0.64108 0.23425 0.90475 0.0
H1108 H 0.64061 0.22935 0.96766 0.0
H1109 H 0.66277 0.26661 0.98814 0.0
H1110 H 0.66338 0.27155 0.92536 0.0
H1111 H 0.62918 0.24368 0.02065 0.0
H1112 H 0.68383 0.26113 0.06008 0.0
H1113 H 0.70691 0.2624 0.03433 0.0
H1114 H 0.69687 0.22997 0.96295 0.0
H1115 H 0.67382 0.22832 0.98869 0.0
C1116 C 0.6409 0.24835 0.18938 0.0
C1117 C 0.64812 0.2379 0.20663 0.0
C1118 C 0.64106 0.24925 0.15278 0.0
C1119 C 0.6484 0.2397 0.13274 0.0
C1120 C 0.65551 0.2292 0.14987 0.0
C1121 C 0.65534 0.22827 0.18642 0.0
C1122 C 0.64902 0.2409 0.09398 0.0
C1123 C 0.66187 0.24211 0.07793 0.0
C1124 C 0.63709 0.24125 0.07301 0.0
C1125 C 0.62327 0.23934 0.0882 0.0
C1126 C 0.62021 0.22765 0.10818 0.0
C1127 C 0.60718 0.22594 0.12258 0.0
C1128 C 0.5971 0.2358 0.11698 0.0
C1129 C 0.6 0.24739 0.09689 0.0
C1130 C 0.61302 0.24915 0.08246 0.0
C1131 C 0.64593 0.24137 0.9226 0.0
C1132 C 0.65229 0.25328 0.91 0.0
C1133 C 0.6456 0.23857 0.95856 0.0
C1134 C 0.65173 0.24756 0.98255 0.0
C1135 C 0.65813 0.25944 0.97005 0.0
C1136 C 0.65843 0.26227 0.93414 0.0
C1137 C 0.65117 0.2447 0.02073 0.0
C1138 C 0.63833 0.24323 0.03668 0.0
C1139 C 0.66312 0.24392 0.04155 0.0
C1140 C 0.67702 0.24473 0.02605 0.0
C1141 C 0.68655 0.25424 0.03896 0.0
C1142 C 0.69964 0.25503 0.02437 0.0
C1143 C 0.70333 0.24632 0.99691 0.0
C1144 C 0.69397 0.23676 0.9841 0.0
C1145 C 0.68089 0.23591 0.99866 0.0
H1146 H 0.71346 0.24695 0.98562 0.0
H1147 H 0.58702 0.23446 0.12814 0.0
H1148 H 0.51339 0.89632 0.66388 0.0
H1149 H 0.51678 0.89552 0.72737 0.0
H1150 H 0.47438 0.90587 0.74335 0.0
H1151 H 0.47101 0.90707 0.67999 0.0
H1152 H 0.48955 0.91961 0.78752 0.0
H1153 H 0.48637 0.8727 0.75277 0.0
H1154 H 0.49214 0.85206 0.71874 0.0
H1155 H 0.53329 0.85358 0.75759 0.0
H1156 H 0.52782 0.87435 0.79149 0.0
H1157 H 0.48509 0.89755 0.96587 0.0
H1158 H 0.48194 0.89783 0.90208 0.0
H1159 H 0.52563 0.89747 0.88761 0.0
H1160 H 0.52889 0.89747 0.95131 0.0
H1161 H 0.50979 0.87855 0.84348 0.0
H1162 H 0.51219 0.92583 0.87874 0.0
H1163 H 0.50558 0.94606 0.91337 0.0
H1164 H 0.46457 0.94313 0.87408 0.0
H1165 H 0.47088 0.92271 0.83967 0.0
C1166 C 0.5048 0.89846 0.68091 0.0
C1167 C 0.49192 0.90171 0.66689 0.0
C1168 C 0.50673 0.89793 0.71721 0.0
C1169 C 0.49578 0.90042 0.74015 0.0
C1170 C 0.48298 0.90389 0.72619 0.0
C1171 C 0.48106 0.90455 0.68993 0.0
C1172 C 0.49764 0.8994 0.77871 0.0
C1173 C 0.49381 0.91055 0.79974 0.0
C1174 C 0.50339 0.88767 0.7947 0.0
C1175 C 0.50672 0.87516 0.77439 0.0
C1176 C 0.49668 0.8687 0.75384 0.0
C1177 C 0.49989 0.85696 0.73461 0.0
C1178 C 0.51308 0.85153 0.73593 0.0
C1179 C 0.52308 0.85781 0.75655 0.0
C1180 C 0.51993 0.86956 0.7758 0.0
C1181 C 0.49402 0.89738 0.94909 0.0
C1182 C 0.50723 0.89752 0.96351 0.0
C1183 C 0.4922 0.89761 0.91274 0.0
C1184 C 0.50356 0.89776 0.89033 0.0
C1185 C 0.51676 0.89737 0.90459 0.0
C1186 C 0.51859 0.89741 0.94091 0.0
C1187 C 0.50169 0.89871 0.85196 0.0
C1188 C 0.50552 0.88757 0.83109 0.0
C1189 C 0.4958 0.91038 0.83617 0.0
C1190 C 0.49197 0.92263 0.85695 0.0
C1191 C 0.50172 0.92939 0.87779 0.0
C1192 C 0.49804 0.94092 0.89732 0.0
C1193 C 0.48466 0.94586 0.896 0.0
C1194 C 0.47493 0.93928 0.87512 0.0
C1195 C 0.47856 0.92773 0.8556 0.0
H1196 H 0.48183 0.9548 0.91108 0.0
H1197 H 0.51555 0.84245 0.72103 0.0
H1198 H 0.83462 0.77776 0.70972 0.0
H1199 H 0.83395 0.77451 0.64624 0.0
H1200 H 0.86078 0.73974 0.65581 0.0
H1201 H 0.86154 0.74293 0.71949 0.0
H1202 H 0.86811 0.75602 0.60122 0.0
H1203 H 0.82754 0.73459 0.64377 0.0
H1204 H 0.80561 0.73222 0.675 0.0
H1205 H 0.78842 0.76454 0.61297 0.0
H1206 H 0.81033 0.76724 0.58164 0.0
H1207 H 0.83279 0.72676 0.43503 0.0
H1208 H 0.83359 0.73019 0.49844 0.0
H1209 H 0.85483 0.76836 0.48338 0.0
H1210 H 0.85423 0.76494 0.41984 0.0
H1211 H 0.82363 0.74934 0.54113 0.0
H1212 H 0.8781 0.77215 0.54996 0.0
H1213 H 0.89994 0.77123 0.51766 0.0
H1214 H 0.88959 0.7315 0.47785 0.0
H1215 H 0.8678 0.7321 0.51028 0.0
C1216 C 0.84047 0.76947 0.69837 0.0
C1217 C 0.84812 0.76059 0.71972 0.0
C1218 C 0.84001 0.76759 0.66206 0.0
C1219 C 0.8472 0.7568 0.64634 0.0
C1220 C 0.85514 0.74812 0.66743 0.0
C1221 C 0.85554 0.74995 0.70382 0.0
C1222 C 0.84631 0.7545 0.60794 0.0
C1223 C 0.85838 0.7546 0.58807 0.0
C1224 C 0.83364 0.75241 0.59085 0.0
C1225 C 0.82062 0.75119 0.61055 0.0
C1226 C 0.81915 0.74131 0.63707 0.0
C1227 C 0.8067 0.73988 0.65471 0.0
C1228 C 0.79563 0.74819 0.64587 0.0
C1229 C 0.79701 0.75807 0.61968 0.0
C1230 C 0.80943 0.75956 0.60198 0.0
C1231 C 0.83757 0.73593 0.44514 0.0
C1232 C 0.84351 0.74554 0.42232 0.0
C1233 C 0.83799 0.73789 0.48142 0.0
C1234 C 0.8444 0.74945 0.49568 0.0
C1235 C 0.85001 0.75926 0.47298 0.0
C1236 C 0.84959 0.75732 0.43664 0.0
C1237 C 0.84539 0.7511 0.53432 0.0
C1238 C 0.83334 0.75087 0.55425 0.0
C1239 C 0.85811 0.75278 0.55153 0.0
C1240 C 0.87126 0.75225 0.53225 0.0
C1241 C 0.88052 0.7632 0.5344 0.0
C1242 C 0.89288 0.76273 0.51606 0.0
C1243 C 0.89613 0.75133 0.49562 0.0
C1244 C 0.88704 0.74035 0.49358 0.0
C1245 C 0.87468 0.74075 0.5119 0.0
H1246 H 0.9057 0.751 0.48142 0.0
H1247 H 0.78595 0.74692 0.65917 0.0
H1248 H 0.48124 0.58375 0.17116 0.0
H1249 H 0.48524 0.58708 0.23376 0.0
H1250 H 0.51364 0.61961 0.21065 0.0
H1251 H 0.5101 0.61591 0.14783 0.0
H1252 H 0.52321 0.60597 0.26181 0.0
H1253 H 0.48019 0.626 0.23923 0.0
H1254 H 0.45667 0.6277 0.21647 0.0
H1255 H 0.44415 0.59487 0.2839 0.0
H1256 H 0.46765 0.59283 0.3067 0.0
H1257 H 0.49492 0.62303 0.45191 0.0
H1258 H 0.49322 0.62491 0.38798 0.0
H1259 H 0.5206 0.5906 0.37665 0.0
H1260 H 0.52284 0.58914 0.44013 0.0
H1261 H 0.48336 0.60948 0.34173 0.0
H1262 H 0.53815 0.591 0.30268 0.0
H1263 H 0.56178 0.59316 0.32446 0.0
H1264 H 0.55105 0.63003 0.37895 0.0
H1265 H 0.52741 0.62821 0.35712 0.0
C1266 C 0.4884 0.59156 0.17941 0.0
C1267 C 0.49531 0.59961 0.15459 0.0
C1268 C 0.49061 0.59352 0.21523 0.0
C1269 C 0.4995 0.60382 0.22704 0.0
C1270 C 0.50669 0.61164 0.20225 0.0
C1271 C 0.50466 0.60951 0.16634 0.0
C1272 C 0.50125 0.60639 0.26524 0.0
C1273 C 0.5145 0.60679 0.27927 0.0
C1274 C 0.48991 0.60799 0.28798 0.0
C1275 C 0.47572 0.6092 0.27449 0.0
C1276 C 0.47244 0.61908 0.24904 0.0
C1277 C 0.45911 0.62011 0.23615 0.0
C1278 C 0.44893 0.61138 0.24869 0.0
C1279 C 0.45205 0.60162 0.2742 0.0
C1280 C 0.46538 0.60053 0.28715 0.0
C1281 C 0.5007 0.61602 0.43569 0.0
C1282 C 0.50909 0.60601 0.45102 0.0
C1283 C 0.4997 0.61707 0.39917 0.0
C1284 C 0.50693 0.60803 0.37731 0.0
C1285 C 0.51522 0.59797 0.39274 0.0
C1286 C 0.51644 0.59709 0.42913 0.0
C1287 C 0.50534 0.6086 0.3385 0.0
C1288 C 0.4921 0.6088 0.3243 0.0
C1289 C 0.51671 0.60815 0.3155 0.0
C1290 C 0.53096 0.60939 0.32846 0.0
C1291 C 0.54084 0.5996 0.31916 0.0
C1292 C 0.55424 0.60076 0.33155 0.0
C1293 C 0.5579 0.61171 0.35315 0.0
C1294 C 0.54819 0.62154 0.36232 0.0
C1295 C 0.53478 0.62043 0.34998 0.0
H1296 H 0.56828 0.61258 0.36273 0.0
H1297 H 0.43861 0.6122 0.23867 0.0
H1298 H 0.66707 0.2344 0.42467 0.0
H1299 H 0.66474 0.23854 0.48748 0.0
H1300 H 0.62956 0.26404 0.46806 0.0
H1301 H 0.63223 0.26038 0.40488 0.0
H1302 H 0.64355 0.27489 0.51766 0.0
H1303 H 0.62647 0.23026 0.49734 0.0
H1304 H 0.62641 0.20664 0.47481 0.0
H1305 H 0.6613 0.19709 0.53853 0.0
H1306 H 0.66169 0.22072 0.56108 0.0
H1307 H 0.62992 0.24548 0.70803 0.0
H1308 H 0.62801 0.24371 0.64419 0.0
H1309 H 0.6603 0.27343 0.6325 0.0
H1310 H 0.66177 0.27569 0.69607 0.0
H1311 H 0.64409 0.23497 0.59783 0.0
H1312 H 0.65823 0.29079 0.55774 0.0
H1313 H 0.65476 0.31425 0.57971 0.0
H1314 H 0.61917 0.30118 0.63636 0.0
H1315 H 0.62231 0.2777 0.61435 0.0
C1316 C 0.65889 0.24096 0.43375 0.0
C1317 C 0.64978 0.247 0.40987 0.0
C1318 C 0.65751 0.24325 0.46971 0.0
C1319 C 0.64677 0.25133 0.48266 0.0
C1320 C 0.63789 0.25771 0.45877 0.0
C1321 C 0.63942 0.25561 0.42266 0.0
C1322 C 0.64478 0.25296 0.52112 0.0
C1323 C 0.64363 0.26617 0.53519 0.0
C1324 C 0.6444 0.24156 0.54401 0.0
C1325 C 0.64417 0.2273 0.5307 0.0
C1326 C 0.63418 0.22315 0.50639 0.0
C1327 C 0.63408 0.20975 0.49362 0.0
C1328 C 0.64386 0.20038 0.50518 0.0
C1329 C 0.65374 0.20437 0.52958 0.0
C1330 C 0.6539 0.21776 0.54239 0.0
C1331 C 0.6365 0.25174 0.69178 0.0
C1332 C 0.64594 0.26078 0.70705 0.0
C1333 C 0.63543 0.2507 0.65529 0.0
C1334 C 0.64388 0.25856 0.63335 0.0
C1335 C 0.65338 0.26752 0.64868 0.0
C1336 C 0.65428 0.26875 0.68511 0.0
C1337 C 0.64325 0.25695 0.59455 0.0
C1338 C 0.64391 0.24372 0.58037 0.0
C1339 C 0.64263 0.26831 0.57154 0.0
C1340 C 0.64058 0.28245 0.58461 0.0
C1341 C 0.64963 0.29294 0.57474 0.0
C1342 C 0.64773 0.30624 0.58724 0.0
C1343 C 0.63678 0.3092 0.60949 0.0
C1344 C 0.62768 0.29887 0.61922 0.0
C1345 C 0.62952 0.28556 0.60678 0.0
H1346 H 0.63533 0.3195 0.61915 0.0
H1347 H 0.64377 0.19001 0.49526 0.0
H1348 H 0.98493 0.39791 0.65303 0.0
H1349 H 0.98196 0.3963 0.71669 0.0
H1350 H 0.02554 0.39969 0.73095 0.0
H1351 H 0.02861 0.40147 0.66741 0.0
H1352 H 0.01313 0.37826 0.76997 0.0
H1353 H 0.00748 0.42635 0.74766 0.0
H1354 H 0.99749 0.44653 0.71869 0.0
H1355 H 0.95771 0.43537 0.75656 0.0
H1356 H 0.96744 0.41499 0.78532 0.0
H1357 H 0.01447 0.39132 0.9539 0.0
H1358 H 0.01753 0.39105 0.89026 0.0
H1359 H 0.97402 0.39569 0.87623 0.0
H1360 H 0.97096 0.39644 0.93972 0.0
H1361 H 0.98652 0.41283 0.83626 0.0
H1362 H 0.99161 0.36505 0.85944 0.0
H1363 H 0.00103 0.3444 0.88747 0.0
H1364 H 0.04088 0.35403 0.84736 0.0
H1365 H 0.03174 0.37486 0.81952 0.0
C1366 C 0.99387 0.39836 0.66974 0.0
C1367 C 0.00699 0.3999 0.65527 0.0
C1368 C 0.99216 0.39746 0.70604 0.0
C1369 C 0.00354 0.39794 0.7284 0.0
C1370 C 0.01665 0.39932 0.71405 0.0
C1371 C 0.01836 0.40042 0.6778 0.0
C1372 C 0.00174 0.39703 0.76683 0.0
C1373 C 0.00746 0.38588 0.78467 0.0
C1374 C 0.99404 0.40681 0.7856 0.0
C1375 C 0.98817 0.41906 0.76831 0.0
C1376 C 0.99658 0.42812 0.74952 0.0
C1377 C 0.99097 0.43962 0.7332 0.0
C1378 C 0.97697 0.44221 0.73569 0.0
C1379 C 0.96855 0.43333 0.7546 0.0
C1380 C 0.97411 0.42181 0.77093 0.0
C1381 C 0.00555 0.39211 0.93723 0.0
C1382 C 0.99248 0.39394 0.9518 0.0
C1383 C 0.0073 0.39191 0.90084 0.0
C1384 C 0.99599 0.39325 0.87839 0.0
C1385 C 0.9829 0.39469 0.89298 0.0
C1386 C 0.98117 0.39508 0.9293 0.0
C1387 C 0.99782 0.39395 0.83976 0.0
C1388 C 0.99216 0.40512 0.82177 0.0
C1389 C 0.00547 0.3841 0.82085 0.0
C1390 C 0.01101 0.37161 0.83773 0.0
C1391 C 0.00241 0.36284 0.85687 0.0
C1392 C 0.00769 0.35108 0.87268 0.0
C1393 C 0.02156 0.34793 0.86929 0.0
C1394 C 0.03015 0.3565 0.85002 0.0
C1395 C 0.02492 0.36828 0.83422 0.0
H1396 H 0.02563 0.33882 0.88153 0.0
H1397 H 0.97264 0.45112 0.72305 0.0
H1398 H 0.85952 0.76206 0.22204 0.0
H1399 H 0.8603 0.76487 0.15829 0.0
H1400 H 0.85059 0.72221 0.14476 0.0
H1401 H 0.84967 0.7193 0.20847 0.0
H1402 H 0.87101 0.73307 0.09664 0.0
H1403 H 0.82656 0.74343 0.14519 0.0
H1404 H 0.81162 0.75588 0.1862 0.0
H1405 H 0.82213 0.79382 0.13659 0.0
H1406 H 0.83781 0.78171 0.09662 0.0
H1407 H 0.84884 0.73447 0.91992 0.0
H1408 H 0.8507 0.7306 0.98313 0.0
H1409 H 0.84857 0.77411 0.00117 0.0
H1410 H 0.84598 0.77794 0.93826 0.0
H1411 H 0.83441 0.76262 0.04804 0.0
H1412 H 0.87958 0.7546 0.00448 0.0
H1413 H 0.89731 0.74418 0.96706 0.0
H1414 H 0.8872 0.70447 0.0073 0.0
H1415 H 0.86929 0.71463 0.04465 0.0
C1416 C 0.85779 0.75321 0.20554 0.0
C1417 C 0.85439 0.74049 0.22028 0.0
C1418 C 0.85823 0.75485 0.16915 0.0
C1419 C 0.85537 0.74377 0.14695 0.0
C1420 C 0.85281 0.73087 0.16153 0.0
C1421 C 0.85222 0.72926 0.19791 0.0
C1422 C 0.8538 0.74589 0.10874 0.0
C1423 C 0.86294 0.73941 0.08586 0.0
C1424 C 0.84345 0.75445 0.095 0.0
C1425 C 0.83354 0.76165 0.11814 0.0
C1426 C 0.82586 0.75445 0.14329 0.0
C1427 C 0.81729 0.76145 0.16646 0.0
C1428 C 0.81591 0.77562 0.16397 0.0
C1429 C 0.8232 0.78283 0.13849 0.0
C1430 C 0.83201 0.77591 0.11572 0.0
C1431 C 0.84875 0.74319 0.93743 0.0
C1432 C 0.84729 0.7565 0.92417 0.0
C1433 C 0.8499 0.74098 0.97357 0.0
C1434 C 0.85005 0.75207 0.99705 0.0
C1435 C 0.84849 0.76537 0.98373 0.0
C1436 C 0.84703 0.76755 0.94772 0.0
C1437 C 0.85174 0.74989 0.03548 0.0
C1438 C 0.84254 0.7563 0.05856 0.0
C1439 C 0.86223 0.74151 0.04947 0.0
C1440 C 0.873 0.73536 0.02708 0.0
C1441 C 0.88107 0.74363 0.00516 0.0
C1442 C 0.89116 0.73778 0.98399 0.0
C1443 C 0.89335 0.72367 0.98473 0.0
C1444 C 0.88548 0.71539 0.00671 0.0
C1445 C 0.87536 0.7212 0.02791 0.0
H1446 H 0.90117 0.71916 0.96833 0.0
H1447 H 0.80916 0.781 0.18172 0.0
H1448 H 0.48634 0.39248 0.05284 0.0
H1449 H 0.48336 0.39338 0.11658 0.0
H1450 H 0.52693 0.39726 0.12998 0.0
H1451 H 0.53001 0.39663 0.06623 0.0
H1452 H 0.51302 0.37815 0.17764 0.0
H1453 H 0.51087 0.42444 0.13469 0.0
H1454 H 0.50224 0.44266 0.09591 0.0
H1455 H 0.4617 0.43678 0.13615 0.0
H1456 H 0.47002 0.41828 0.1746 0.0
H1457 H 0.51428 0.39986 0.35437 0.0
H1458 H 0.51801 0.39842 0.29111 0.0
H1459 H 0.47486 0.40423 0.27325 0.0
H1460 H 0.47111 0.40608 0.33642 0.0
H1461 H 0.4888 0.41835 0.2271 0.0
H1462 H 0.49011 0.37218 0.26895 0.0
H1463 H 0.49782 0.35309 0.30621 0.0
H1464 H 0.53875 0.35785 0.26752 0.0
H1465 H 0.53131 0.37711 0.23036 0.0
C1466 C 0.4953 0.39334 0.06936 0.0
C1467 C 0.5084 0.39454 0.05456 0.0
C1468 C 0.49357 0.3939 0.1057 0.0
C1469 C 0.50492 0.39548 0.12781 0.0
C1470 C 0.51806 0.39605 0.11325 0.0
C1471 C 0.51979 0.39572 0.07688 0.0
C1472 C 0.50302 0.39719 0.16602 0.0
C1473 C 0.50788 0.387 0.1886 0.0
C1474 C 0.49603 0.40861 0.17999 0.0
C1475 C 0.49104 0.41987 0.15725 0.0
C1476 C 0.50009 0.42694 0.13504 0.0
C1477 C 0.49526 0.43734 0.11317 0.0
C1478 C 0.48143 0.44087 0.11355 0.0
C1479 C 0.47241 0.43403 0.13586 0.0
C1480 C 0.47717 0.42358 0.15769 0.0
C1481 C 0.50559 0.4009 0.33697 0.0
C1482 C 0.49238 0.40301 0.35043 0.0
C1483 C 0.50773 0.40001 0.30081 0.0
C1484 C 0.49668 0.40097 0.27741 0.0
C1485 C 0.48354 0.40342 0.29077 0.0
C1486 C 0.48141 0.40446 0.32691 0.0
C1487 C 0.49878 0.39926 0.23907 0.0
C1488 C 0.49395 0.40947 0.21633 0.0
C1489 C 0.50569 0.38778 0.22492 0.0
C1490 C 0.51018 0.37617 0.24714 0.0
C1491 C 0.50077 0.36922 0.26858 0.0
C1492 C 0.50509 0.35836 0.28965 0.0
C1493 C 0.51877 0.35428 0.2893 0.0
C1494 C 0.52816 0.36103 0.2678 0.0
C1495 C 0.5239 0.37192 0.24671 0.0
H1496 H 0.52209 0.34587 0.30563 0.0
H1497 H 0.47772 0.44893 0.09659 0.0
H1498 H 0.85699 0.23819 0.28955 0.0
H1499 H 0.85694 0.23515 0.35328 0.0
H1500 H 0.85012 0.27834 0.36714 0.0
H1501 H 0.85007 0.28149 0.30349 0.0
H1502 H 0.86951 0.26657 0.4149 0.0
H1503 H 0.82469 0.25807 0.36679 0.0
H1504 H 0.80904 0.24626 0.32626 0.0
H1505 H 0.81773 0.208 0.37652 0.0
H1506 H 0.83411 0.21942 0.41598 0.0
H1507 H 0.84789 0.26688 0.59134 0.0
H1508 H 0.84905 0.27034 0.52791 0.0
H1509 H 0.84596 0.22679 0.51173 0.0
H1510 H 0.84418 0.22334 0.57501 0.0
H1511 H 0.83178 0.23868 0.46428 0.0
H1512 H 0.87726 0.24491 0.50731 0.0
H1513 H 0.89544 0.25465 0.54449 0.0
H1514 H 0.887 0.29467 0.50371 0.0
H1515 H 0.86864 0.28519 0.46661 0.0
C1516 C 0.85568 0.24707 0.30614 0.0
C1517 C 0.85342 0.26007 0.29146 0.0
C1518 C 0.85563 0.24531 0.34253 0.0
C1519 C 0.85339 0.2565 0.36481 0.0
C1520 C 0.85185 0.26958 0.35033 0.0
C1521 C 0.85176 0.27134 0.31396 0.0
C1522 C 0.85175 0.25448 0.40308 0.0
C1523 C 0.86119 0.2606 0.42581 0.0
C1524 C 0.84107 0.24638 0.41704 0.0
C1525 C 0.83079 0.2396 0.39413 0.0
C1526 C 0.82342 0.24711 0.36896 0.0
C1527 C 0.81443 0.24048 0.34612 0.0
C1528 C 0.81234 0.22641 0.34892 0.0
C1529 C 0.81935 0.21891 0.37439 0.0
C1530 C 0.82856 0.22545 0.39686 0.0
C1531 C 0.84737 0.25805 0.57423 0.0
C1532 C 0.84601 0.24483 0.58819 0.0
C1533 C 0.84812 0.26003 0.53796 0.0
C1534 C 0.84789 0.2488 0.51493 0.0
C1535 C 0.84619 0.23562 0.52885 0.0
C1536 C 0.84519 0.23366 0.56508 0.0
C1537 C 0.84961 0.25074 0.47643 0.0
C1538 C 0.84014 0.24465 0.45354 0.0
C1539 C 0.86043 0.25863 0.46222 0.0
C1540 C 0.87148 0.26436 0.48446 0.0
C1541 C 0.87921 0.25581 0.50647 0.0
C1542 C 0.88956 0.26127 0.5275 0.0
C1543 C 0.89235 0.27527 0.52654 0.0
C1544 C 0.88482 0.28383 0.50447 0.0
C1545 C 0.87444 0.27841 0.48341 0.0
H1546 H 0.90037 0.27949 0.54283 0.0
H1547 H 0.8053 0.22132 0.33136 0.0
H1548 H 0.02591 0.60055 0.8246 0.0
H1549 H 0.02178 0.60244 0.76129 0.0
H1550 H 0.97878 0.5955 0.7782 0.0
H1551 H 0.98275 0.59408 0.84167 0.0
H1552 H 0.99352 0.57845 0.72327 0.0
H1553 H 0.98526 0.6243 0.76309 0.0
H1554 H 0.99049 0.64618 0.79207 0.0
H1555 H 0.02409 0.65257 0.72156 0.0
H1556 H 0.01944 0.63043 0.69313 0.0
H1557 H 0.96848 0.59214 0.55343 0.0
H1558 H 0.97156 0.59239 0.61696 0.0
H1559 H 0.01153 0.61029 0.60405 0.0
H1560 H 0.00846 0.61029 0.54038 0.0
H1561 H 0.99816 0.62197 0.65755 0.0
H1562 H 0.00812 0.57647 0.62006 0.0
H1563 H 0.00394 0.5546 0.58976 0.0
H1564 H 0.96859 0.5476 0.65397 0.0
H1565 H 0.97244 0.56954 0.68431 0.0
C1566 C 0.01558 0.59942 0.81478 0.0
C1567 C 0.00463 0.59715 0.83793 0.0
C1568 C 0.01324 0.60056 0.77872 0.0
C1569 C -2e-05 0.59914 0.76527 0.0
C1570 C 0.98907 0.59665 0.78824 0.0
C1571 C 0.99135 0.59587 0.82437 0.0
C1572 C 0.99755 0.60002 0.72709 0.0
C1573 C 0.99435 0.58798 0.7089 0.0
C1574 C 0.99905 0.61242 0.70844 0.0
C1575 C 0.00214 0.62554 0.72636 0.0
C1576 C 0.99395 0.6302 0.75424 0.0
C1577 C 0.9968 0.64268 0.77054 0.0
C1578 C 0.00767 0.65072 0.75883 0.0
C1579 C 0.01571 0.6463 0.73076 0.0
C1580 C 0.01302 0.63375 0.71466 0.0
C1581 C 0.9779 0.59624 0.56406 0.0
C1582 C 0.98827 0.60112 0.5418 0.0
C1583 C 0.97966 0.59631 0.60039 0.0
C1584 C 0.99187 0.60115 0.6152 0.0
C1585 C 0.00205 0.60646 0.59315 0.0
C1586 C 0.00028 0.60643 0.55677 0.0
C1587 C 0.99412 0.6004 0.65362 0.0
C1588 C 0.99732 0.61243 0.67188 0.0
C1589 C 0.99282 0.58796 0.67231 0.0
C1590 C 0.99049 0.57473 0.65421 0.0
C1591 C 0.99939 0.57032 0.62753 0.0
C1592 C 0.99709 0.5579 0.61038 0.0
C1593 C 0.98599 0.54973 0.61987 0.0
C1594 C 0.97718 0.55395 0.64661 0.0
C1595 C 0.97941 0.56638 0.66381 0.0
H1596 H 0.98423 0.54011 0.60657 0.0
H1597 H 0.00983 0.66041 0.77138 0.0
H1598 H 0.6482 0.77808 0.07356 0.0
H1599 H 0.64634 0.77445 0.01014 0.0
H1600 H 0.64909 0.73089 0.02582 0.0
H1601 H 0.65061 0.73442 0.08943 0.0
H1602 H 0.66802 0.74374 0.97378 0.0
H1603 H 0.62007 0.74129 0.0063 0.0
H1604 H 0.59899 0.7501 0.03356 0.0
H1605 H 0.6007 0.78569 0.96786 0.0
H1606 H 0.62191 0.77717 0.94054 0.0
H1607 H 0.65495 0.72008 0.80294 0.0
H1608 H 0.65456 0.72371 0.86627 0.0
H1609 H 0.63936 0.76464 0.85048 0.0
H1610 H 0.63943 0.76098 0.78707 0.0
H1611 H 0.62661 0.75378 0.90326 0.0
H1612 H 0.67289 0.75874 0.87108 0.0
H1613 H 0.69565 0.75392 0.84629 0.0
H1614 H 0.69914 0.7183 0.91137 0.0
H1615 H 0.67629 0.72277 0.93619 0.0
C1616 C 0.6484 0.76773 0.06348 0.0
C1617 C 0.64963 0.75652 0.08634 0.0
C1618 C 0.64726 0.76568 0.02734 0.0
C1619 C 0.64755 0.75241 0.01348 0.0
C1620 C 0.64882 0.7412 0.03617 0.0
C1621 C 0.64967 0.74323 0.0724 0.0
C1622 C 0.64706 0.75027 0.97515 0.0
C1623 C 0.65891 0.74567 0.95831 0.0
C1624 C 0.63536 0.7535 0.95508 0.0
C1625 C 0.62263 0.75864 0.97157 0.0
C1626 C 0.61602 0.75105 0.99788 0.0
C1627 C 0.60402 0.75597 0.01326 0.0
C1628 C 0.59849 0.76843 0.00239 0.0
C1629 C 0.60496 0.77601 0.97615 0.0
C1630 C 0.61697 0.77114 0.96072 0.0
C1631 C 0.65144 0.72983 0.81291 0.0
C1632 C 0.64727 0.74026 0.78992 0.0
C1633 C 0.65131 0.73192 0.84915 0.0
C1634 C 0.64715 0.74453 0.86315 0.0
C1635 C 0.64264 0.75484 0.8403 0.0
C1636 C 0.6427 0.75273 0.80404 0.0
C1637 C 0.64756 0.74695 0.9016 0.0
C1638 C 0.63573 0.7517 0.91855 0.0
C1639 C 0.65944 0.74427 0.92171 0.0
C1640 C 0.67281 0.74103 0.90528 0.0
C1641 C 0.67841 0.74976 0.87973 0.0
C1642 C 0.69135 0.74712 0.86578 0.0
C1643 C 0.69885 0.73585 0.87738 0.0
C1644 C 0.69333 0.72705 0.90251 0.0
C1645 C 0.68038 0.72963 0.91651 0.0
H1646 H 0.70897 0.73399 0.86708 0.0
H1647 H 0.58922 0.77224 0.01438 0.0
H1648 H 0.52701 0.39898 0.83817 0.0
H1649 H 0.52354 0.39757 0.77491 0.0
H1650 H 0.47985 0.39869 0.79038 0.0
H1651 H 0.48331 0.39942 0.85398 0.0
H1652 H 0.48527 0.38109 0.74213 0.0
H1653 H 0.49915 0.42741 0.762 0.0
H1654 H 0.51385 0.44593 0.78442 0.0
H1655 H 0.54733 0.43104 0.72246 0.0
H1656 H 0.53287 0.41233 0.69999 0.0
H1657 H 0.46853 0.40089 0.56668 0.0
H1658 H 0.47184 0.40001 0.6302 0.0
H1659 H 0.51475 0.3919 0.61497 0.0
H1660 H 0.51154 0.39274 0.55136 0.0
H1661 H 0.50967 0.41288 0.66246 0.0
H1662 H 0.49457 0.36678 0.64141 0.0
H1663 H 0.47895 0.34913 0.61848 0.0
H1664 H 0.44647 0.36494 0.68238 0.0
H1665 H 0.46184 0.38282 0.70533 0.0
C1666 C 0.51666 0.39899 0.82807 0.0
C1667 C 0.50542 0.39945 0.85096 0.0
C1668 C 0.51469 0.39823 0.79187 0.0
C1669 C 0.50143 0.39832 0.77771 0.0
C1670 C 0.49018 0.39864 0.80061 0.0
C1671 C 0.49215 0.39911 0.83693 0.0
C1672 C 0.49932 0.39803 0.73908 0.0
C1673 C 0.49047 0.38818 0.7248 0.0
C1674 C 0.50627 0.4071 0.71626 0.0
C1675 C 0.51496 0.4184 0.72956 0.0
C1676 C 0.50967 0.42804 0.75333 0.0
C1677 C 0.51796 0.43857 0.76602 0.0
C1678 C 0.53152 0.43964 0.75494 0.0
C1679 C 0.53682 0.43019 0.73105 0.0
C1680 C 0.52858 0.41963 0.7183 0.0
C1681 C 0.47865 0.39881 0.5768 0.0
C1682 C 0.48977 0.39689 0.55395 0.0
C1683 C 0.48052 0.39827 0.61312 0.0
C1684 C 0.49353 0.39583 0.62724 0.0
C1685 C 0.50462 0.39378 0.60454 0.0
C1686 C 0.50275 0.39421 0.56822 0.0
C1687 C 0.49566 0.39597 0.66571 0.0
C1688 C 0.5045 0.40581 0.6799 0.0
C1689 C 0.48855 0.38703 0.68842 0.0
C1690 C 0.47933 0.37622 0.67484 0.0
C1691 C 0.48407 0.36656 0.65036 0.0
C1692 C 0.47526 0.3565 0.6374 0.0
C1693 C 0.46172 0.35594 0.64889 0.0
C1694 C 0.45696 0.3654 0.67347 0.0
C1695 C 0.46572 0.37549 0.68649 0.0
H1696 H 0.45492 0.34814 0.63881 0.0
H1697 H 0.53792 0.4478 0.7648 0.0
H1698 H 0.34967 0.71712 0.30167 0.0
H1699 H 0.34966 0.71973 0.36539 0.0
H1700 H 0.35313 0.76347 0.35375 0.0
H1701 H 0.35375 0.76085 0.29 0.0
H1702 H 0.36781 0.75606 0.40645 0.0
H1703 H 0.32191 0.74698 0.37086 0.0
H1704 H 0.30325 0.73449 0.34146 0.0
H1705 H 0.3113 0.69924 0.40523 0.0
H1706 H 0.33014 0.71146 0.43468 0.0
H1707 H 0.34123 0.77467 0.57341 0.0
H1708 H 0.34292 0.77078 0.51023 0.0
H1709 H 0.34975 0.72784 0.52844 0.0
H1710 H 0.34825 0.73164 0.59191 0.0
H1711 H 0.3301 0.73445 0.47353 0.0
H1712 H 0.37606 0.74559 0.51051 0.0
H1713 H 0.39324 0.75991 0.54032 0.0
H1714 H 0.38304 0.7937 0.47342 0.0
H1715 H 0.36564 0.77963 0.44356 0.0
C1716 C 0.35057 0.72728 0.31271 0.0
C1717 C 0.35162 0.73879 0.29083 0.0
C1718 C 0.35047 0.72877 0.34915 0.0
C1719 C 0.35106 0.74183 0.36445 0.0
C1720 C 0.35261 0.75329 0.34263 0.0
C1721 C 0.35295 0.75179 0.30617 0.0
C1722 C 0.3497 0.74357 0.40305 0.0
C1723 C 0.35948 0.75143 0.42097 0.0
C1724 C 0.3389 0.73746 0.42225 0.0
C1725 C 0.32753 0.73009 0.40472 0.0
C1726 C 0.31976 0.73653 0.37844 0.0
C1727 C 0.30915 0.7295 0.36179 0.0
C1728 C 0.30612 0.71607 0.37141 0.0
C1729 C 0.31368 0.70964 0.39777 0.0
C1730 C 0.32432 0.71661 0.41447 0.0
C1731 C 0.34299 0.76437 0.56403 0.0
C1732 C 0.34464 0.75346 0.58768 0.0
C1733 C 0.344 0.76219 0.52793 0.0
C1734 C 0.34656 0.74905 0.51478 0.0
C1735 C 0.3478 0.73805 0.53817 0.0
C1736 C 0.34697 0.74026 0.57437 0.0
C1737 C 0.34819 0.74688 0.47659 0.0
C1738 C 0.33845 0.73898 0.45885 0.0
C1739 C 0.35883 0.7532 0.45747 0.0
C1740 C 0.36946 0.76159 0.47501 0.0
C1741 C 0.37741 0.7561 0.50233 0.0
C1742 C 0.3872 0.76417 0.5192 0.0
C1743 C 0.38921 0.77772 0.50883 0.0
C1744 C 0.38146 0.78321 0.48146 0.0
C1745 C 0.37164 0.77519 0.46452 0.0
H1746 H 0.39678 0.78395 0.52196 0.0
H1747 H 0.2979 0.71064 0.35849 0.0
H1748 H 0.98589 0.60307 0.04067 0.0
H1749 H 0.98333 0.60338 0.10437 0.0
H1750 H 0.02701 0.59925 0.11622 0.0
H1751 H 0.02955 0.59837 0.05251 0.0
H1752 H 0.0153 0.58281 0.15897 0.0
H1753 H 0.00927 0.63011 0.13273 0.0
H1754 H -0.00043 0.65026 0.10294 0.0
H1755 H 0.95973 0.64027 0.14255 0.0
H1756 H 0.96916 0.61994 0.17221 0.0
H1757 H 0.01452 0.59982 0.34258 0.0
H1758 H 0.01841 0.60107 0.27911 0.0
H1759 H 0.97537 0.59494 0.26072 0.0
H1760 H 0.97141 0.59346 0.32394 0.0
H1761 H 0.98762 0.61733 0.22251 0.0
H1762 H 0.99458 0.56938 0.24735 0.0
H1763 H 0.00517 0.5499 0.27806 0.0
H1764 H 0.04477 0.56247 0.24185 0.0
H1765 H 0.03442 0.58216 0.21134 0.0
C1766 C 0.99496 0.60236 0.05685 0.0
C1767 C 0.00792 0.60071 0.04159 0.0
C1768 C 0.9935 0.6026 0.0933 0.0
C1769 C 0.005 0.60153 0.11521 0.0
C1770 C 0.01798 0.60009 0.09993 0.0
C1771 C 0.01942 0.59962 0.0635 0.0
C1772 C 0.00345 0.6013 0.15399 0.0
C1773 C 0.00944 0.59052 0.17285 0.0
C1774 C 0.99562 0.61121 0.1722 0.0
C1775 C 0.98991 0.62343 0.15444 0.0
C1776 C 0.99842 0.63215 0.13488 0.0
C1777 C 0.99297 0.64361 0.11805 0.0
C1778 C 0.97904 0.64652 0.12078 0.0
C1779 C 0.97052 0.63799 0.14043 0.0
C1780 C 0.97591 0.62651 0.15728 0.0
C1781 C 0.0059 0.5987 0.325 0.0
C1782 C 0.99267 0.5965 0.33822 0.0
C1783 C 0.00814 0.5994 0.28882 0.0
C1784 C 0.99717 0.59808 0.26537 0.0
C1785 C 0.98395 0.596 0.27847 0.0
C1786 C 0.98173 0.59508 0.31457 0.0
C1787 C 0.99943 0.59887 0.22707 0.0
C1788 C 0.99356 0.60974 0.20844 0.0
C1789 C 0.00752 0.58917 0.20914 0.0
C1790 C 0.01374 0.57733 0.22742 0.0
C1791 C 0.00556 0.56807 0.24623 0.0
C1792 C 0.01151 0.55697 0.26353 0.0
C1793 C 0.02564 0.55497 0.262 0.0
C1794 C 0.03383 0.56405 0.24307 0.0
C1795 C 0.02793 0.57517 0.22575 0.0
H1796 H 0.03023 0.54637 0.27541 0.0
H1797 H 0.97484 0.6554 0.10774 0.0
H1798 H 0.14496 0.24049 0.80262 0.0
H1799 H 0.14477 0.23788 0.86628 0.0
H1800 H 0.15043 0.28137 0.87838 0.0
H1801 H 0.15116 0.28396 0.81465 0.0
H1802 H 0.16665 0.26889 0.92081 0.0
H1803 H 0.11906 0.26485 0.89514 0.0
H1804 H 0.09849 0.256 0.86548 0.0
H1805 H 0.10697 0.21573 0.90456 0.0
H1806 H 0.1277 0.22431 0.93408 0.0
H1807 H 0.14933 0.26907 0.10416 0.0
H1808 H 0.14848 0.27282 0.04061 0.0
H1809 H 0.15307 0.22953 0.02309 0.0
H1810 H 0.15417 0.2257 0.08645 0.0
H1811 H 0.13111 0.24264 0.98457 0.0
H1812 H 0.17924 0.2475 0.00931 0.0
H1813 H 0.19917 0.25719 0.04009 0.0
H1814 H 0.18851 0.2973 0.00361 0.0
H1815 H 0.16838 0.28787 0.97305 0.0
C1816 C 0.14603 0.24952 0.81883 0.0
C1817 C 0.14805 0.26244 0.80362 0.0
C1818 C 0.14586 0.24802 0.85527 0.0
C1819 C 0.1474 0.25946 0.87723 0.0
C1820 C 0.14922 0.2724 0.86203 0.0
C1821 C 0.14959 0.27387 0.82559 0.0
C1822 C 0.14766 0.25784 0.91598 0.0
C1823 C 0.15874 0.26334 0.93474 0.0
C1824 C 0.13748 0.2504 0.93424 0.0
C1825 C 0.12501 0.2452 0.91657 0.0
C1826 C 0.1166 0.25409 0.8972 0.0
C1827 C 0.1049 0.24912 0.88045 0.0
C1828 C 0.10144 0.2353 0.88307 0.0
C1829 C 0.10967 0.22643 0.90252 0.0
C1830 C 0.12138 0.23134 0.9193 0.0
C1831 C 0.15021 0.26036 0.08676 0.0
C1832 C 0.15185 0.24709 0.10026 0.0
C1833 C 0.14974 0.26253 0.05053 0.0
C1834 C 0.15073 0.25145 0.02731 0.0
C1835 C 0.15228 0.2382 0.04068 0.0
C1836 C 0.15298 0.23605 0.07684 0.0
C1837 C 0.15005 0.25365 0.98899 0.0
C1838 C 0.13893 0.24825 0.97044 0.0
C1839 C 0.16007 0.26132 0.97101 0.0
C1840 C 0.17221 0.267 0.98924 0.0
C1841 C 0.18107 0.2584 0.00813 0.0
C1842 C 0.19242 0.26384 0.02548 0.0
C1843 C 0.19508 0.27786 0.0239 0.0
C1844 C 0.18642 0.28645 0.00487 0.0
C1845 C 0.17504 0.28106 0.98751 0.0
H1846 H 0.20388 0.28205 0.03735 0.0
H1847 H 0.09238 0.23148 0.87008 0.0
H1848 H 0.48336 0.61133 0.65072 0.0
H1849 H 0.47919 0.61147 0.71409 0.0
H1850 H 0.51371 0.58474 0.72959 0.0
H1851 H 0.51788 0.58445 0.66653 0.0
H1852 H 0.49267 0.57699 0.76966 0.0
H1853 H 0.51688 0.61829 0.74435 0.0
H1854 H 0.52128 0.6402 0.71452 0.0
H1855 H 0.48338 0.65618 0.7538 0.0
H1856 H 0.47867 0.63426 0.78347 0.0
H1857 H 0.50624 0.61139 0.94981 0.0
H1858 H 0.5082 0.61111 0.88594 0.0
H1859 H 0.47037 0.58868 0.8786 0.0
H1860 H 0.46838 0.58877 0.94252 0.0
H1861 H 0.4929 0.62102 0.83428 0.0
H1862 H 0.47301 0.56587 0.80995 0.0
H1863 H 0.47266 0.54333 0.83902 0.0
H1864 H 0.50771 0.55454 0.90033 0.0
H1865 H 0.50839 0.57705 0.87134 0.0
C1866 C 0.48999 0.6054 0.6676 0.0
C1867 C 0.50099 0.59793 0.65357 0.0
C1868 C 0.48763 0.60553 0.7038 0.0
C1869 C 0.49621 0.59821 0.72657 0.0
C1870 C 0.50695 0.59046 0.71251 0.0
C1871 C 0.50935 0.59035 0.67643 0.0
C1872 C 0.4943 0.59886 0.76513 0.0
C1873 C 0.4926 0.58662 0.78378 0.0
C1874 C 0.49456 0.61141 0.78362 0.0
C1875 C 0.49735 0.62458 0.76578 0.0
C1876 C 0.50943 0.62643 0.74636 0.0
C1877 C 0.51199 0.63886 0.72953 0.0
C1878 C 0.50259 0.64956 0.73217 0.0
C1879 C 0.49064 0.64787 0.75172 0.0
C1880 C 0.48802 0.63545 0.76856 0.0
C1881 C 0.49829 0.60645 0.93464 0.0
C1882 C 0.48718 0.60006 0.95131 0.0
C1883 C 0.49941 0.60633 0.89811 0.0
C1884 C 0.4895 0.59976 0.87751 0.0
C1885 C 0.47823 0.59365 0.894 0.0
C1886 C 0.47709 0.59377 0.93055 0.0
C1887 C 0.49111 0.59914 0.83883 0.0
C1888 C 0.49276 0.61139 0.82014 0.0
C1889 C 0.4912 0.58657 0.82041 0.0
C1890 C 0.49065 0.5732 0.83872 0.0
C1891 C 0.48063 0.56352 0.82966 0.0
C1892 C 0.48039 0.55075 0.84608 0.0
C1893 C 0.49017 0.54751 0.87146 0.0
C1894 C 0.50014 0.55707 0.88069 0.0
C1895 C 0.50043 0.56985 0.86434 0.0
H1896 H 0.49006 0.53757 0.88387 0.0
H1897 H 0.5046 0.65918 0.71914 0.0
H1898 H 0.15419 0.77502 0.42765 0.0
H1899 H 0.1529 0.77035 0.4903 0.0
H1900 H 0.14625 0.72756 0.46865 0.0
H1901 H 0.14696 0.73232 0.40556 0.0
H1902 H 0.13018 0.73483 0.51889 0.0
H1903 H 0.17777 0.74032 0.49883 0.0
H1904 H 0.19885 0.75124 0.47714 0.0
H1905 H 0.19125 0.78617 0.54249 0.0
H1906 H 0.17002 0.77554 0.56422 0.0
H1907 H 0.14796 0.71648 0.69786 0.0
H1908 H 0.14803 0.71881 0.63381 0.0
H1909 H 0.1425 0.76233 0.64406 0.0
H1910 H 0.14214 0.76009 0.70799 0.0
H1911 H 0.16545 0.753 0.59995 0.0
H1912 H 0.11688 0.74626 0.61799 0.0
H1913 H 0.09677 0.73375 0.64004 0.0
H1914 H 0.10803 0.69874 0.57858 0.0
H1915 H 0.12833 0.71099 0.55656 0.0
C1916 C 0.15252 0.7646 0.43618 0.0
C1917 C 0.15078 0.75402 0.41166 0.0
C1918 C 0.15184 0.76192 0.47208 0.0
C1919 C 0.14976 0.74855 0.48434 0.0
C1920 C 0.14792 0.73796 0.45988 0.0
C1921 C 0.14836 0.74067 0.42384 0.0
C1922 C 0.14928 0.74575 0.52268 0.0
C1923 C 0.13803 0.73862 0.53648 0.0
C1924 C 0.15945 0.75075 0.54585 0.0
C1925 C 0.17224 0.75718 0.53293 0.0
C1926 C 0.18054 0.75037 0.50839 0.0
C1927 C 0.19253 0.7565 0.49612 0.0
C1928 C 0.19637 0.7694 0.50837 0.0
C1929 C 0.18825 0.77618 0.533 0.0
C1930 C 0.17625 0.7701 0.54533 0.0
C1931 C 0.1466 0.72652 0.68645 0.0
C1932 C 0.14504 0.73811 0.70795 0.0
C1933 C 0.14663 0.72782 0.64992 0.0
C1934 C 0.14529 0.74074 0.63436 0.0
C1935 C 0.14355 0.75229 0.65569 0.0
C1936 C 0.14328 0.75097 0.69216 0.0
C1937 C 0.1463 0.74233 0.59586 0.0
C1938 C 0.15769 0.74918 0.58215 0.0
C1939 C 0.13643 0.73683 0.5728 0.0
C1940 C 0.12421 0.72948 0.58595 0.0
C1941 C 0.11515 0.73585 0.60945 0.0
C1942 C 0.10369 0.72882 0.62188 0.0
C1943 C 0.10115 0.71544 0.6108 0.0
C1944 C 0.11003 0.70909 0.58719 0.0
C1945 C 0.1215 0.71608 0.5747 0.0
H1946 H 0.09227 0.71002 0.62045 0.0
H1947 H 0.20565 0.77413 0.49884 0.0
H1948 H 0.01532 0.39494 0.15329 0.0
H1949 H 0.01817 0.39362 0.21687 0.0
H1950 H 0.9757 0.40411 0.23107 0.0
H1951 H 0.97285 0.40576 0.16758 0.0
H1952 H 0.99077 0.41744 0.27688 0.0
H1953 H 0.98686 0.37115 0.23964 0.0
H1954 H 0.99212 0.35057 0.20477 0.0
H1955 H 0.03312 0.35049 0.24486 0.0
H1956 H 0.02816 0.37118 0.2796 0.0
H1957 H 0.98618 0.39417 0.4544 0.0
H1958 H 0.98296 0.39437 0.39064 0.0
H1959 H 0.02662 0.39517 0.37586 0.0
H1960 H 0.02995 0.3953 0.43957 0.0
H1961 H 0.01039 0.37574 0.33126 0.0
H1962 H 0.01328 0.42309 0.36793 0.0
H1963 H 0.00661 0.44297 0.40385 0.0
H1964 H 0.96548 0.43996 0.36545 0.0
H1965 H 0.97185 0.4199 0.32977 0.0
C1966 C 0.0066 0.39702 0.16994 0.0
C1967 C 0.99385 0.40042 0.15536 0.0
C1968 C 0.00822 0.3962 0.20628 0.0
C1969 C 0.99709 0.39857 0.22872 0.0
C1970 C 0.98443 0.40222 0.21426 0.0
C1971 C 0.98282 0.40315 0.17794 0.0
C1972 C 0.99865 0.3972 0.26728 0.0
C1973 C 0.9949 0.40824 0.28873 0.0
C1974 C 0.00414 0.38524 0.28281 0.0
C1975 C 0.00718 0.37279 0.26197 0.0
C1976 C 0.99703 0.3668 0.24081 0.0
C1977 C -5e-05 0.35511 0.22111 0.0
C1978 C 0.01296 0.34925 0.22255 0.0
C1979 C 0.02306 0.35505 0.24375 0.0
C1980 C 0.0202 0.36676 0.26347 0.0
C1981 C 0.99509 0.39422 0.43756 0.0
C1982 C 0.00831 0.39476 0.45189 0.0
C1983 C 0.99323 0.39438 0.40124 0.0
C1984 C 0.00456 0.39485 0.37876 0.0
C1985 C 0.01778 0.39481 0.39292 0.0
C1986 C 0.01964 0.39492 0.42923 0.0
C1987 C 0.00261 0.39598 0.34047 0.0
C1988 C 0.00626 0.38489 0.3192 0.0
C1989 C 0.99684 0.40779 0.32516 0.0
C1990 C 0.99301 0.41989 0.3465 0.0
C1991 C 0.00278 0.42658 0.36743 0.0
C1992 C 0.99906 0.43789 0.38769 0.0
C1993 C 0.98562 0.4427 0.38701 0.0
C1994 C 0.97588 0.43621 0.36601 0.0
C1995 C 0.97954 0.42487 0.34575 0.0
H1996 H 0.98277 0.45148 0.40268 0.0
H1997 H 0.0152 0.3402 0.20728 0.0
H1998 H 0.35176 0.28062 0.19358 0.0
H1999 H 0.35255 0.27754 0.13006 0.0
H2000 H 0.35757 0.23407 0.14419 0.0
H2001 H 0.35723 0.23714 0.20781 0.0
H2002 H 0.37339 0.24236 0.09366 0.0
H2003 H 0.32624 0.24873 0.12217 0.0
H2004 H 0.30631 0.26033 0.14821 0.0
H2005 H 0.31368 0.29551 0.08362 0.0
H2006 H 0.33379 0.28419 0.05754 0.0
H2007 H 0.35003 0.22151 0.9235 0.0
H2008 H 0.35209 0.22552 0.98668 0.0
H2009 H 0.35612 0.26879 0.96801 0.0
H2010 H 0.35434 0.26484 0.90464 0.0
H2011 H 0.336 0.26103 0.02002 0.0
H2012 H 0.38338 0.25367 0.99163 0.0
H2013 H 0.40376 0.24183 0.9689 0.0
H2014 H 0.39499 0.20717 0.03419 0.0
H2015 H 0.3745 0.2188 0.05721 0.0
C2016 C 0.35313 0.27042 0.18318 0.0
C2017 C 0.35436 0.25911 0.20573 0.0
C2018 C 0.35349 0.26866 0.14684 0.0
C2019 C 0.35483 0.25554 0.1323 0.0
C2020 C 0.35647 0.24429 0.15478 0.0
C2021 C 0.35627 0.24606 0.19115 0.0
C2022 C 0.35442 0.25351 0.0937 0.0
C2023 C 0.36511 0.24628 0.07766 0.0
C2024 C 0.34374 0.25885 0.07267 0.0
C2025 C 0.33161 0.26566 0.08816 0.0
C2026 C 0.32368 0.25898 0.1137 0.0
C2027 C 0.31234 0.2655 0.12844 0.0
C2028 C 0.30875 0.27866 0.11764 0.0
C2029 C 0.31648 0.28532 0.092 0.0
C2030 C 0.32785 0.27885 0.07721 0.0
C2031 C 0.35139 0.23188 0.93283 0.0
C2032 C 0.35198 0.24287 0.90914 0.0
C2033 C 0.35263 0.23413 0.96889 0.0
C2034 C 0.35431 0.24744 0.98191 0.0
C2035 C 0.35486 0.25844 0.95838 0.0
C2036 C 0.35386 0.25617 0.92225 0.0
C2037 C 0.35495 0.24987 0.02019 0.0
C2038 C 0.34427 0.25714 0.03613 0.0
C2039 C 0.3655 0.24438 0.0412 0.0
C2040 C 0.37734 0.23706 0.02588 0.0
C2041 C 0.38568 0.24345 1.00076 0.0
C2042 C 0.3973 0.2368 0.98796 0.0
C2043 C 0.40068 0.22376 1.00013 0.0
C2044 C 0.39237 0.21728 0.02485 0.0
C2045 C 0.38077 0.22391 0.0378 0.0
H2046 H 0.40975 0.21868 0.99054 0.0
H2047 H 0.29997 0.28369 0.12908 0.0
H2048 H 0.99665 0.05772 0.04205 0.0
H2049 H 0.99085 0.03457 0.02337 0.0
H2050 H 0.03282 0.02223 0.03726 0.0
H2051 H 0.03877 0.04543 0.05543 0.0
H2052 H 0.02311 0.01327 0.97604 0.0
H2053 H 0.00824 0.01237 0.09543 0.0
H2054 H 0.99595 0.02041 0.14797 0.0
H2055 H 0.95767 0.01596 0.09416 0.0
H2056 H 0.96974 0.00806 0.0411 0.0
H2057 H 0.0091 0.94157 0.96112 0.0
H2058 H 0.01636 0.96419 0.98123 0.0
H2059 H 0.97549 0.97951 0.96562 0.0
H2060 H 0.96812 0.95698 0.94577 0.0
H2061 H 0.98551 0.98641 0.02956 0.0
H2062 H 0.00074 0.98794 0.9095 0.0
H2063 H 0.01323 0.97974 0.85742 0.0
H2064 H 0.05116 0.98275 0.91353 0.0
H2065 H 0.03886 0.99079 0.96614 0.0
C2066 C 0.00463 0.05007 0.04142 0.0
C2067 C 0.01817 0.05342 0.05027 0.0
C2068 C 0.00129 0.03682 0.03083 0.0
C2069 C 0.01139 0.02664 0.02921 0.0
C2070 C 0.02488 0.02993 0.03832 0.0
C2071 C 0.02824 0.04318 0.04882 0.0
C2072 C 0.00792 0.01268 0.01696 0.0
C2073 C 0.01503 0.0073 0.98809 0.0
C2074 C 0.99722 0.00501 0.03229 0.0
C2075 C 0.98992 0.00974 0.06418 0.0
C2076 C 0.99721 0.01321 0.0947 0.0
C2077 C 0.99028 0.01772 0.12459 0.0
C2078 C 0.97604 0.01873 0.12437 0.0
C2079 C 0.9687 0.01519 0.09428 0.0
C2080 C 0.97558 0.01068 0.0643 0.0
C2081 C 0.00169 0.94979 0.96163 0.0
C2082 C 0.98803 0.94747 0.95187 0.0
C2083 C 0.00586 0.96271 0.97308 0.0
C2084 C 0.99646 0.97352 0.97483 0.0
C2085 C 0.98289 0.97128 0.96456 0.0
C2086 C 0.97872 0.95841 0.95308 0.0
C2087 C 0.0006 0.98708 0.98845 0.0
C2088 C 0.99363 0.99237 0.01762 0.0
C2089 C 0.01145 0.99463 0.97349 0.0
C2090 C 0.01886 0.98983 0.94187 0.0
C2091 C 0.01173 0.98674 0.91083 0.0
C2092 C 0.01878 0.98215 0.8812 0.0
C2093 C 0.03297 0.98069 0.8822 0.0
C2094 C 0.04016 0.98386 0.91281 0.0
C2095 C 0.03316 0.98845 0.94253 0.0
H2096 H 0.03841 0.97714 0.85922 0.0
H2097 H 0.97069 0.02223 0.14755 0.0
H2098 H 0.19016 0.74171 0.28824 0.0
H2099 H 0.21318 0.73486 0.2705 0.0
H2100 H 0.22727 0.77627 0.28474 0.0
H2101 H 0.20431 0.78324 0.3022 0.0
H2102 H 0.23529 0.76591 0.22233 0.0
H2103 H 0.23575 0.75176 0.34294 0.0
H2104 H 0.22729 0.73967 0.39535 0.0
H2105 H 0.23159 0.70122 0.34222 0.0
H2106 H 0.2399 0.7131 0.28927 0.0
H2107 H 0.30683 0.75473 0.2134 0.0
H2108 H 0.28363 0.76075 0.23129 0.0
H2109 H 0.27106 0.71881 0.2181 0.0
H2110 H 0.29428 0.71263 0.20068 0.0
H2111 H 0.26204 0.729 0.27921 0.0
H2112 H 0.26181 0.74307 0.15881 0.0
H2113 H 0.27026 0.75512 0.10634 0.0
H2114 H 0.26543 0.79365 0.1588 0.0
H2115 H 0.25713 0.78181 0.2118 0.0
C2116 C 0.19818 0.74934 0.28793 0.0
C2117 C 0.19539 0.76303 0.2966 0.0
C2118 C 0.21134 0.7454 0.27785 0.0
C2119 C 0.22193 0.75506 0.27643 0.0
C2120 C 0.21922 0.76867 0.28559 0.0
C2121 C 0.2061 0.77261 0.29569 0.0
C2122 C 0.23574 0.75113 0.26416 0.0
C2123 C 0.24122 0.75796 0.23503 0.0
C2124 C 0.24329 0.7405 0.28019 0.0
C2125 C 0.23831 0.73333 0.31201 0.0
C2126 C 0.23478 0.74074 0.34232 0.0
C2127 C 0.23003 0.73392 0.37215 0.0
C2128 C 0.22887 0.71969 0.37208 0.0
C2129 C 0.23248 0.71224 0.34221 0.0
C2130 C 0.23722 0.71901 0.31229 0.0
C2131 C 0.29911 0.7468 0.21399 0.0
C2132 C 0.3024 0.7332 0.20554 0.0
C2133 C 0.28585 0.75027 0.22416 0.0
C2134 C 0.2756 0.74024 0.22577 0.0
C2135 C 0.27882 0.72669 0.21705 0.0
C2136 C 0.29208 0.7232 0.20695 0.0
C2137 C 0.26162 0.74383 0.23745 0.0
C2138 C 0.2561 0.73693 0.26645 0.0
C2139 C 0.25401 0.75438 0.22127 0.0
C2140 C 0.25897 0.76154 0.18939 0.0
C2141 C 0.26265 0.7541 0.15926 0.0
C2142 C 0.2674 0.7609 0.1294 0.0
C2143 C 0.26842 0.77514 0.12926 0.0
C2144 C 0.26465 0.78262 0.15896 0.0
C2145 C 0.25991 0.77587 0.1889 0.0
H2146 H 0.27209 0.78039 0.10612 0.0
H2147 H 0.2252 0.71443 0.3952 0.0
H2148 H 0.49425 0.05889 0.4798 0.0
H2149 H 0.4874 0.03623 0.50066 0.0
H2150 H 0.52524 0.01933 0.46213 0.0
H2151 H 0.53219 0.04191 0.44138 0.0
H2152 H 0.50349 0.00376 0.44372 0.0
H2153 H 0.52143 0.02444 0.54692 0.0
H2154 H 0.52449 0.04085 0.59533 0.0
H2155 H 0.48293 0.03457 0.62751 0.0
H2156 H 0.47953 0.01829 0.57886 0.0
H2157 H 0.50386 0.94016 0.53248 0.0
H2158 H 0.50987 0.96343 0.51503 0.0
H2159 H 0.46985 0.97743 0.54577 0.0
H2160 H 0.46367 0.95413 0.56309 0.0
H2161 H 0.49195 0.99449 0.5682 0.0
H2162 H 0.47494 0.97279 0.46355 0.0
H2163 H 0.47391 0.95453 0.41904 0.0
H2164 H 0.51586 0.96187 0.39197 0.0
H2165 H 0.5172 0.98004 0.43674 0.0
C2166 C 0.50107 0.05033 0.47558 0.0
C2167 C 0.51374 0.05217 0.45884 0.0
C2168 C 0.49718 0.03742 0.48775 0.0
C2169 C 0.50586 0.02614 0.48313 0.0
C2170 C 0.51841 0.02792 0.46597 0.0
C2171 C 0.52236 0.04082 0.45416 0.0
C2172 C 0.50179 0.01239 0.49556 0.0
C2173 C 0.50108 0.00172 0.47101 0.0
C2174 C 0.49846 0.00979 0.53108 0.0
C2175 C 0.50018 0.02024 0.55896 0.0
C2176 C 0.51287 0.02672 0.56395 0.0
C2177 C 0.51469 0.03593 0.59158 0.0
C2178 C 0.50394 0.03867 0.61462 0.0
C2179 C 0.49128 0.03236 0.60977 0.0
C2180 C 0.48939 0.02316 0.58211 0.0
C2181 C 0.49637 0.9482 0.53584 0.0
C2182 C 0.48327 0.9453 0.54904 0.0
C2183 C 0.4998 0.96146 0.52571 0.0
C2184 C 0.49025 0.97207 0.52882 0.0
C2185 C 0.47733 0.96934 0.54311 0.0
C2186 C 0.47382 0.95603 0.5529 0.0
C2187 C 0.49366 0.98596 0.5164 0.0
C2188 C 0.49424 0.99662 0.5409 0.0
C2189 C 0.49704 0.98853 0.48095 0.0
C2190 C 0.49621 0.9777 0.45375 0.0
C2191 C 0.48398 0.97044 0.44831 0.0
C2192 C 0.48333 0.96012 0.423 0.0
C2193 C 0.49482 0.95702 0.40274 0.0
C2194 C 0.50697 0.96427 0.4077 0.0
C2195 C 0.50768 0.97459 0.43303 0.0
H2196 H 0.4943 0.94902 0.38316 0.0
H2197 H 0.50539 0.04576 0.63611 0.0
H2198 H 0.29564 0.21623 0.80091 0.0
H2199 H 0.2727 0.22373 0.78468 0.0
H2200 H 0.28699 0.26531 0.77675 0.0
H2201 H 0.31 0.25793 0.79324 0.0
H2202 H 0.26189 0.26354 0.80899 0.0
H2203 H 0.28322 0.24704 0.704 0.0
H2204 H 0.29567 0.23045 0.66727 0.0
H2205 H 0.26314 0.20142 0.68 0.0
H2206 H 0.25058 0.21778 0.71724 0.0
H2207 H 0.20509 0.28871 0.71331 0.0
H2208 H 0.22841 0.28231 0.72932 0.0
H2209 H 0.21621 0.24003 0.73598 0.0
H2210 H 0.19291 0.2463 0.71959 0.0
H2211 H 0.24062 0.24279 0.70344 0.0
H2212 H 0.21954 0.25907 0.80949 0.0
H2213 H 0.20711 0.27561 0.8464 0.0
H2214 H 0.23916 0.30503 0.83171 0.0
H2215 H 0.2517 0.28871 0.79429 0.0
C2216 C 0.2939 0.227 0.79606 0.0
C2217 C 0.30468 0.23647 0.79813 0.0
C2218 C 0.28079 0.23125 0.78664 0.0
C2219 C 0.27822 0.24503 0.77898 0.0
C2220 C 0.2888 0.25461 0.78242 0.0
C2221 C 0.30194 0.25037 0.7918 0.0
C2222 C 0.26457 0.24934 0.76637 0.0
C2223 C 0.25731 0.25915 0.78565 0.0
C2224 C 0.25853 0.24343 0.73625 0.0
C2225 C 0.26602 0.23359 0.71369 0.0
C2226 C 0.27877 0.23708 0.6992 0.0
C2227 C 0.28584 0.22773 0.67824 0.0
C2228 C 0.28021 0.21488 0.67137 0.0
C2229 C 0.26749 0.21137 0.68537 0.0
C2230 C 0.26039 0.22068 0.70638 0.0
C2231 C 0.20738 0.27804 0.71793 0.0
C2232 C 0.19712 0.26802 0.71537 0.0
C2233 C 0.2207 0.27441 0.72723 0.0
C2234 C 0.22398 0.26073 0.73434 0.0
C2235 C 0.21388 0.25066 0.73071 0.0
C2236 C 0.20056 0.25427 0.72139 0.0
C2237 C 0.23789 0.25691 0.7462 0.0
C2238 C 0.24521 0.2472 0.72674 0.0
C2239 C 0.24398 0.26292 0.77615 0.0
C2240 C 0.23649 0.27272 0.7988 0.0
C2241 C 0.22389 0.2691 0.81391 0.0
C2242 C 0.21683 0.27843 0.83496 0.0
C2243 C 0.22233 0.29137 0.84132 0.0
C2244 C 0.23491 0.295 0.82672 0.0
C2245 C 0.242 0.28572 0.80561 0.0
H2246 H 0.21685 0.29858 0.85763 0.0
H2247 H 0.2857 0.20765 0.65515 0.0
H2248 H 0.03258 0.95627 0.44712 0.0
H2249 H 0.02611 0.97879 0.46887 0.0
H2250 H 0.98422 0.96559 0.47802 0.0
H2251 H 0.9906 0.94291 0.45622 0.0
H2252 H 0.98711 0.99222 0.45063 0.0
H2253 H 0.00264 0.96569 0.54861 0.0
H2254 H 0.0187 0.95081 0.58063 0.0
H2255 H 0.04942 0.98209 0.57598 0.0
H2256 H 0.03361 0.99708 0.54339 0.0
H2257 H 0.96454 0.04506 0.56248 0.0
H2258 H 0.97033 0.02211 0.54222 0.0
H2259 H 0.01266 0.03385 0.53326 0.0
H2260 H 0.00699 0.05688 0.55361 0.0
H2261 H 0.00917 0.00773 0.56099 0.0
H2262 H 0.99316 0.03467 0.46482 0.0
H2263 H 0.977 0.04948 0.43305 0.0
H2264 H 0.94707 0.0174 0.4336 0.0
H2265 H 0.96291 0.00251 0.46632 0.0
C2266 C 0.02195 0.95816 0.45334 0.0
C2267 C 0.01212 0.94774 0.4502 0.0
C2268 C 0.01829 0.97104 0.46588 0.0
C2269 C 0.00473 0.97376 0.47549 0.0
C2270 C 0.99475 0.96364 0.47083 0.0
C2271 C 0.99842 0.95069 0.45844 0.0
C2272 C 0.00117 0.987 0.49191 0.0
C2273 C 0.99176 0.99556 0.47501 0.0
C2274 C 0.00749 0.99139 0.52335 0.0
C2275 C 0.01698 0.98245 0.54325 0.0
C2276 C 0.01286 0.96935 0.55416 0.0
C2277 C 0.02191 0.96091 0.57245 0.0
C2278 C 0.03508 0.96549 0.58027 0.0
C2279 C 0.03922 0.97855 0.56988 0.0
C2280 C 0.03022 0.98703 0.55151 0.0
C2281 C 0.97512 0.04273 0.55668 0.0
C2282 C 0.9853 0.05284 0.55936 0.0
C2283 C 0.97839 0.02962 0.54501 0.0
C2284 C 0.99188 0.02637 0.53578 0.0
C2285 C 0.00218 0.03619 0.54017 0.0
C2286 C 0.99892 0.04935 0.55173 0.0
C2287 C 0.99509 0.01298 0.51975 0.0
C2288 C 0.00446 0.0044 0.53668 0.0
C2289 C 0.98872 0.00858 0.48834 0.0
C2290 C 0.9792 0.0175 0.46838 0.0
C2291 C 0.98309 0.0308 0.45848 0.0
C2292 C 0.97399 0.03921 0.44027 0.0
C2293 C 0.96102 0.03438 0.43129 0.0
C2294 C 0.95712 0.02113 0.44058 0.0
C2295 C 0.96615 0.01271 0.45902 0.0
H2296 H 0.95401 0.0409 0.41711 0.0
H2297 H 0.04208 0.95894 0.59443 0.0
H2298 H 0.20279 0.71447 0.80177 0.0
H2299 H 0.22603 0.72103 0.78581 0.0
H2300 H 0.21281 0.76267 0.77062 0.0
H2301 H 0.18953 0.75624 0.78703 0.0
H2302 H 0.2351 0.73099 0.72467 0.0
H2303 H 0.23935 0.7842 0.78996 0.0
H2304 H 0.23055 0.79643 0.84187 0.0
H2305 H 0.2254 0.7583 0.896 0.0
H2306 H 0.23433 0.74587 0.84463 0.0
H2307 H 0.29391 0.78416 0.70261 0.0
H2308 H 0.27071 0.77801 0.72034 0.0
H2309 H 0.28354 0.73629 0.7363 0.0
H2310 H 0.30671 0.74229 0.71812 0.0
H2311 H 0.26142 0.76817 0.78181 0.0
H2312 H 0.25717 0.71496 0.71653 0.0
H2313 H 0.26595 0.70273 0.6646 0.0
H2314 H 0.27105 0.74086 0.61045 0.0
H2315 H 0.26212 0.75329 0.66185 0.0
C2316 C 0.20483 0.72506 0.79535 0.0
C2317 C 0.1943 0.73484 0.79567 0.0
C2318 C 0.21812 0.72877 0.78613 0.0
C2319 C 0.22117 0.74233 0.77719 0.0
C2320 C 0.21072 0.75217 0.77789 0.0
C2321 C 0.19741 0.74847 0.78718 0.0
C2322 C 0.23517 0.74605 0.76592 0.0
C2323 C 0.24093 0.73899 0.73748 0.0
C2324 C 0.24262 0.75672 0.78207 0.0
C2325 C 0.23737 0.7641 0.81328 0.0
C2326 C 0.23638 0.77843 0.81299 0.0
C2327 C 0.23136 0.7854 0.84231 0.0
C2328 C 0.22737 0.77814 0.87216 0.0
C2329 C 0.22844 0.76391 0.8728 0.0
C2330 C 0.23345 0.75689 0.84357 0.0
C2331 C 0.29178 0.77365 0.70964 0.0
C2332 C 0.30214 0.7637 0.70878 0.0
C2333 C 0.27853 0.77017 0.7199 0.0
C2334 C 0.27538 0.75669 0.72937 0.0
C2335 C 0.2857 0.74673 0.72857 0.0
C2336 C 0.29894 0.75018 0.71822 0.0
C2337 C 0.26135 0.75309 0.74063 0.0
C2338 C 0.25558 0.76017 0.76902 0.0
C2339 C 0.25388 0.74244 0.72444 0.0
C2340 C 0.25911 0.73506 0.6932 0.0
C2341 C 0.26012 0.72072 0.6935 0.0
C2342 C 0.26513 0.71376 0.66416 0.0
C2343 C 0.2691 0.72102 0.63429 0.0
C2344 C 0.26802 0.73526 0.63365 0.0
C2345 C 0.26301 0.74227 0.6629 0.0
H2346 H 0.27298 0.71561 0.61162 0.0
H2347 H 0.22348 0.78356 0.89482 0.0
H2348 H 0.53609 0.95399 0.05132 0.0
H2349 H 0.53001 0.97712 0.03266 0.0
H2350 H 0.48765 0.96521 0.02579 0.0
H2351 H 0.49362 0.94208 0.04415 0.0
H2352 H 0.49616 0.97803 0.9671 0.0
H2353 H 0.49861 0.98567 0.09125 0.0
H2354 H 0.50916 0.98545 0.14997 0.0
H2355 H 0.54146 0.01143 0.11306 0.0
H2356 H 0.53121 0.01164 0.05395 0.0
H2357 H 0.4662 0.04365 0.94616 0.0
H2358 H 0.47292 0.02086 0.96566 0.0
H2359 H 0.5148 0.0342 0.97417 0.0
H2360 H 0.50815 0.0571 0.95516 0.0
H2361 H 0.507 0.02069 0.03166 0.0
H2362 H 0.50429 0.01342 0.90766 0.0
H2363 H 0.49379 0.01351 0.84889 0.0
H2364 H 0.46212 0.98664 0.88516 0.0
H2365 H 0.47228 0.98658 0.94435 0.0
C2366 C 0.52546 0.95634 0.04625 0.0
C2367 C 0.51534 0.94619 0.04915 0.0
C2368 C 0.522 0.96956 0.03568 0.0
C2369 C 0.50837 0.97287 0.02796 0.0
C2370 C 0.49823 0.96285 0.03158 0.0
C2371 C 0.50166 0.94965 0.04221 0.0
C2372 C 0.50476 0.98656 0.01428 0.0
C2373 C 0.49835 0.98736 0.98141 0.0
C2374 C 0.508 0.99872 0.03255 0.0
C2375 C 0.51422 0.99853 0.06805 0.0
C2376 C 0.50804 0.99122 0.09555 0.0
C2377 C 0.51395 0.99113 0.12893 0.0
C2378 C 0.526 0.99839 0.13521 0.0
C2379 C 0.53214 0.00579 0.10814 0.0
C2380 C 0.52628 0.00591 0.0747 0.0
C2381 C 0.47687 0.04171 0.9518 0.0
C2382 C 0.48664 0.05219 0.94906 0.0
C2383 C 0.4807 0.02866 0.96286 0.0
C2384 C 0.49438 0.02581 0.97112 0.0
C2385 C 0.50419 0.03619 0.96792 0.0
C2386 C 0.50037 0.04926 0.95689 0.0
C2387 C 0.49835 0.01217 0.98449 0.0
C2388 C 0.50483 0.01137 0.01729 0.0
C2389 C 0.49518 -0.0 0.96613 0.0
C2390 C 0.48897 0.00013 0.93059 0.0
C2391 C 0.495 0.00765 0.90323 0.0
C2392 C 0.48912 0.00768 0.86981 0.0
C2393 C 0.47727 0.00013 0.86333 0.0
C2394 C 0.47128 0.99251 0.89024 0.0
C2395 C 0.4771 0.99248 0.92373 0.0
H2396 H 0.47275 0.00015 0.83742 0.0
H2397 H 0.53055 0.9983 0.16108 0.0
H2398 H 0.19126 0.26052 0.21669 0.0
H2399 H 0.21459 0.26739 0.23138 0.0
H2400 H 0.22688 0.22507 0.23418 0.0
H2401 H 0.20359 0.21809 0.21972 0.0
H2402 H 0.23589 0.2392 0.29135 0.0
H2403 H 0.2357 0.24481 0.16612 0.0
H2404 H 0.22704 0.2535 0.10963 0.0
H2405 H 0.23349 0.29475 0.14431 0.0
H2406 H 0.242 0.2863 0.20125 0.0
H2407 H 0.3077 0.24614 0.28998 0.0
H2408 H 0.28402 0.24077 0.2755 0.0
H2409 H 0.27432 0.28376 0.27339 0.0
H2410 H 0.29809 0.28927 0.28756 0.0
H2411 H 0.26365 0.27025 0.21711 0.0
H2412 H 0.26446 0.26466 0.34175 0.0
H2413 H 0.27318 0.25598 0.39817 0.0
H2414 H 0.26552 0.21477 0.36483 0.0
H2415 H 0.25694 0.2232 0.30796 0.0
C2416 C 0.19894 0.25267 0.22022 0.0
C2417 C 0.19556 0.23875 0.21702 0.0
C2418 C 0.21227 0.25662 0.22853 0.0
C2419 C 0.22247 0.24674 0.23371 0.0
C2420 C 0.21915 0.23286 0.23034 0.0
C2421 C 0.20584 0.22889 0.22192 0.0
C2422 C 0.23654 0.25083 0.24341 0.0
C2423 C 0.24203 0.24586 0.27493 0.0
C2424 C 0.24437 0.25982 0.22242 0.0
C2425 C 0.23934 0.26492 0.18811 0.0
C2426 C 0.23516 0.25573 0.16182 0.0
C2427 C 0.2303 0.26062 0.1297 0.0
C2428 C 0.22968 0.27467 0.12343 0.0
C2429 C 0.23396 0.28387 0.14923 0.0
C2430 C 0.23881 0.27904 0.18143 0.0
C2431 C 0.30054 0.25447 0.28661 0.0
C2432 C 0.30478 0.26814 0.29006 0.0
C2433 C 0.28699 0.25138 0.27841 0.0
C2434 C 0.27739 0.26187 0.2737 0.0
C2435 C 0.28158 0.27552 0.27698 0.0
C2436 C 0.29514 0.27864 0.28523 0.0
C2437 C 0.26303 0.25852 0.26491 0.0
C2438 C 0.25749 0.26364 0.23361 0.0
C2439 C 0.25513 0.24967 0.28612 0.0
C2440 C 0.26017 0.24457 0.32045 0.0
C2441 C 0.26473 0.25374 0.34634 0.0
C2442 C 0.26963 0.24887 0.37842 0.0
C2443 C 0.26994 0.23483 0.38505 0.0
C2444 C 0.26529 0.22564 0.35965 0.0
C2445 C 0.26039 0.23046 0.32749 0.0
H2446 H 0.27375 0.23108 0.4099 0.0
H2447 H 0.2259 0.27843 0.09854 0.0
H2448 H 0.79582 0.21502 0.70771 0.0
H2449 H 0.77268 0.22125 0.72569 0.0
H2450 H 0.78519 0.26332 0.73651 0.0
H2451 H 0.80832 0.25722 0.71812 0.0
H2452 H 0.76348 0.23228 0.78646 0.0
H2453 H 0.7585 0.28392 0.71405 0.0
H2454 H 0.76711 0.29518 0.66055 0.0
H2455 H 0.77259 0.25608 0.61139 0.0
H2456 H 0.76384 0.2446 0.66439 0.0
H2457 H 0.70369 0.285 0.79906 0.0
H2458 H 0.72711 0.2787 0.78412 0.0
H2459 H 0.71486 0.23655 0.77356 0.0
H2460 H 0.69139 0.24273 0.78884 0.0
H2461 H 0.73654 0.2677 0.72411 0.0
H2462 H 0.7418 0.2161 0.79732 0.0
H2463 H 0.73311 0.20496 0.85091 0.0
H2464 H 0.727 0.24419 0.89887 0.0
H2465 H 0.73584 0.25556 0.84579 0.0
C2466 C 0.79364 0.22562 0.71368 0.0
C2467 C 0.8039 0.23564 0.71126 0.0
C2468 C 0.78043 0.22914 0.72412 0.0
C2469 C 0.7772 0.24275 0.73218 0.0
C2470 C 0.78742 0.25278 0.72991 0.0
C2471 C 0.80063 0.24927 0.71941 0.0
C2472 C 0.76315 0.24643 0.74317 0.0
C2473 C 0.75751 0.2399 0.77257 0.0
C2474 C 0.75552 0.2566 0.72554 0.0
C2475 C 0.76065 0.2634 0.69334 0.0
C2476 C 0.7615 0.27773 0.69177 0.0
C2477 C 0.76641 0.28415 0.66154 0.0
C2478 C 0.77044 0.27635 0.63264 0.0
C2479 C 0.76952 0.26211 0.63385 0.0
C2480 C 0.7646 0.25564 0.664 0.0
C2481 C 0.70598 0.27436 0.79384 0.0
C2482 C 0.69566 0.26436 0.79514 0.0
C2483 C 0.71936 0.2708 0.7852 0.0
C2484 C 0.72273 0.25716 0.77791 0.0
C2485 C 0.71251 0.24712 0.77954 0.0
C2486 C 0.69909 0.25067 0.78817 0.0
C2487 C 0.73685 0.25355 0.76739 0.0
C2488 C 0.74251 0.2601 0.73805 0.0
C2489 C 0.74449 0.24341 0.78512 0.0
C2490 C 0.73934 0.23667 0.81739 0.0
C2491 C 0.73865 0.22234 0.81935 0.0
C2492 C 0.73369 0.21599 0.84963 0.0
C2493 C 0.72946 0.22386 0.87822 0.0
C2494 C 0.73023 0.23811 0.87665 0.0
C2495 C 0.73519 0.24451 0.84645 0.0
H2496 H 0.72561 0.21893 0.90163 0.0
H2497 H 0.77425 0.28134 0.60927 0.0
H2498 H 0.6906 0.74467 0.21675 0.0
H2499 H 0.7139 0.73881 0.23421 0.0
H2500 H 0.72756 0.77908 0.20456 0.0
H2501 H 0.70424 0.78509 0.18714 0.0
H2502 H 0.74507 0.75736 0.1826 0.0
H2503 H 0.7222 0.77345 0.28691 0.0
H2504 H 0.70352 0.77369 0.3303 0.0
H2505 H 0.71174 0.73178 0.35607 0.0
H2506 H 0.73034 0.73122 0.31238 0.0
H2507 H 0.80893 0.75651 0.27344 0.0
H2508 H 0.78623 0.76274 0.25152 0.0
H2509 H 0.77004 0.72459 0.29008 0.0
H2510 H 0.79264 0.71828 0.31193 0.0
H2511 H 0.75375 0.74571 0.30729 0.0
H2512 H 0.77551 0.72845 0.20513 0.0
H2513 H 0.7922 0.72571 0.15724 0.0
H2514 H 0.78518 0.76711 0.12465 0.0
H2515 H 0.76861 0.77019 0.17278 0.0
C2516 C 0.69857 0.75225 0.21357 0.0
C2517 C 0.69556 0.76538 0.20072 0.0
C2518 C 0.71186 0.74889 0.22371 0.0
C2519 C 0.72237 0.75857 0.22102 0.0
C2520 C 0.71954 0.7715 0.20692 0.0
C2521 C 0.70622 0.77491 0.19706 0.0
C2522 C 0.73624 0.75532 0.23397 0.0
C2523 C 0.74707 0.75505 0.20995 0.0
C2524 C 0.73864 0.75187 0.26945 0.0
C2525 C 0.72759 0.75226 0.29612 0.0
C2526 C 0.71996 0.76425 0.30163 0.0
C2527 C 0.70939 0.76445 0.32631 0.0
C2528 C 0.70642 0.75275 0.34586 0.0
C2529 C 0.71405 0.74084 0.34087 0.0
C2530 C 0.72461 0.74057 0.31617 0.0
C2531 C 0.80051 0.7495 0.27745 0.0
C2532 C 0.80255 0.73693 0.29453 0.0
C2533 C 0.78758 0.75302 0.26466 0.0
C2534 C 0.77648 0.74408 0.26897 0.0
C2535 C 0.77847 0.73163 0.28646 0.0
C2536 C 0.79139 0.72804 0.29891 0.0
C2537 C 0.76271 0.74778 0.25591 0.0
C2538 C 0.75185 0.74814 0.27995 0.0
C2539 C 0.76026 0.7511 0.22031 0.0
C2540 C 0.77091 0.7496 0.19285 0.0
C2541 C 0.77768 0.73705 0.18813 0.0
C2542 C 0.78706 0.7354 0.16079 0.0
C2543 C 0.78966 0.74619 0.13776 0.0
C2544 C 0.78306 0.75873 0.14236 0.0
C2545 C 0.77371 0.76044 0.16973 0.0
H2546 H 0.79687 0.74487 0.11649 0.0
H2547 H 0.69823 0.75292 0.36493 0.0
H2548 H 0.68903 0.25942 0.27771 0.0
H2549 H 0.71192 0.26717 0.26094 0.0
H2550 H 0.72903 0.22936 0.29905 0.0
H2551 H 0.70626 0.22154 0.31588 0.0
H2552 H 0.74402 0.25203 0.31887 0.0
H2553 H 0.72357 0.23334 0.21401 0.0
H2554 H 0.70588 0.23147 0.16818 0.0
H2555 H 0.71274 0.27326 0.13873 0.0
H2556 H 0.73032 0.27544 0.18481 0.0
H2557 H 0.80816 0.24849 0.23326 0.0
H2558 H 0.7848 0.24394 0.25285 0.0
H2559 H 0.77182 0.28283 0.21137 0.0
H2560 H 0.79521 0.28754 0.19198 0.0
H2561 H 0.7543 0.26159 0.19382 0.0
H2562 H 0.77565 0.28012 0.29501 0.0
H2563 H 0.79238 0.28302 0.34273 0.0
H2564 H 0.78333 0.24271 0.38058 0.0
H2565 H 0.7668 0.23941 0.33251 0.0
C2566 C 0.69769 0.25282 0.28284 0.0
C2567 C 0.69584 0.23985 0.29799 0.0
C2568 C 0.71073 0.25723 0.27308 0.0
C2569 C 0.72211 0.24876 0.27844 0.0
C2570 C 0.72035 0.23603 0.29464 0.0
C2571 C 0.70733 0.23157 0.30416 0.0
C2572 C 0.73587 0.25297 0.26653 0.0
C2573 C 0.74634 0.25397 0.2915 0.0
C2574 C 0.7387 0.25592 0.23093 0.0
C2575 C 0.72815 0.2546 0.20316 0.0
C2576 C 0.72121 0.24217 0.19799 0.0
C2577 C 0.71122 0.24104 0.17192 0.0
C2578 C 0.70816 0.25225 0.15062 0.0
C2579 C 0.7151 0.26459 0.1553 0.0
C2580 C 0.72508 0.26578 0.18138 0.0
C2581 C 0.80032 0.25603 0.22808 0.0
C2582 C 0.80351 0.26836 0.21103 0.0
C2583 C 0.78701 0.25346 0.2395 0.0
C2584 C 0.77663 0.26311 0.2338 0.0
C2585 C 0.77971 0.27528 0.21608 0.0
C2586 C 0.79306 0.27795 0.20507 0.0
C2587 C 0.76255 0.2604 0.24612 0.0
C2588 C 0.75201 0.25969 0.22124 0.0
C2589 C 0.75964 0.25778 0.28186 0.0
C2590 C 0.77007 0.25946 0.30986 0.0
C2591 C 0.77737 0.27178 0.31314 0.0
C2592 C 0.78679 0.27352 0.34037 0.0
C2593 C 0.78888 0.26308 0.36475 0.0
C2594 C 0.78165 0.25082 0.36177 0.0
C2595 C 0.7723 0.24899 0.33445 0.0
H2596 H 0.79613 0.26446 0.38588 0.0
H2597 H 0.70043 0.25135 0.13042 0.0
H2598 H 0.70487 0.71432 0.69252 0.0
H2599 H 0.72791 0.72038 0.71177 0.0
H2600 H 0.71402 0.76098 0.7378 0.0
H2601 H 0.69104 0.75511 0.71788 0.0
H2602 H 0.73899 0.76139 0.70722 0.0
H2603 H 0.71624 0.73536 0.79806 0.0
H2604 H 0.70433 0.715 0.82084 0.0
H2605 H 0.73972 0.69042 0.79997 0.0
H2606 H 0.75168 0.7105 0.77582 0.0
H2607 H 0.79149 0.78292 0.81963 0.0
H2608 H 0.76893 0.77584 0.79919 0.0
H2609 H 0.78448 0.7355 0.77705 0.0
H2610 H 0.80705 0.74242 0.79796 0.0
H2611 H 0.75914 0.73425 0.80426 0.0
H2612 H 0.78211 0.75876 0.71464 0.0
H2613 H 0.7945 0.77778 0.68673 0.0
H2614 H 0.75984 0.80402 0.70199 0.0
H2615 H 0.74729 0.78517 0.73041 0.0
C2616 C 0.70675 0.72458 0.70199 0.0
C2617 C 0.6961 0.7342 0.70397 0.0
C2618 C 0.71991 0.72801 0.71307 0.0
C2619 C 0.7226 0.74104 0.72683 0.0
C2620 C 0.71214 0.75084 0.7274 0.0
C2621 C 0.699 0.74746 0.71605 0.0
C2622 C 0.73613 0.74433 0.74208 0.0
C2623 C 0.74332 0.75558 0.72874 0.0
C2624 C 0.74194 0.73643 0.76941 0.0
C2625 C 0.73482 0.72443 0.78479 0.0
C2626 C 0.72145 0.7256 0.79804 0.0
C2627 C 0.71468 0.7141 0.81118 0.0
C2628 C 0.72127 0.70144 0.81191 0.0
C2629 C 0.73463 0.70023 0.7994 0.0
C2630 C 0.74139 0.71166 0.78588 0.0
C2631 C 0.79008 0.77249 0.81088 0.0
C2632 C 0.8011 0.76327 0.81012 0.0
C2633 C 0.77719 0.76848 0.7991 0.0
C2634 C 0.77511 0.75523 0.78604 0.0
C2635 C 0.78589 0.74579 0.78693 0.0
C2636 C 0.79879 0.74978 0.79884 0.0
C2637 C 0.7619 0.75145 0.76976 0.0
C2638 C 0.75479 0.74009 0.78282 0.0
C2639 C 0.75624 0.75913 0.74183 0.0
C2640 C 0.76378 0.77054 0.72489 0.0
C2641 C 0.77715 0.76859 0.71222 0.0
C2642 C 0.7842 0.77935 0.69629 0.0
C2643 C 0.77796 0.79211 0.69262 0.0
C2644 C 0.76466 0.79413 0.70486 0.0
C2645 C 0.75757 0.78341 0.72087 0.0
H2646 H 0.78344 0.80042 0.68026 0.0
H2647 H 0.71602 0.69257 0.82219 0.0
H2648 H 0.48822 0.56128 0.52792 0.0
H2649 H 0.4807 0.53825 0.51186 0.0
H2650 H 0.5219 0.52338 0.52456 0.0
H2651 H 0.52952 0.54631 0.54021 0.0
H2652 H 0.51066 0.51442 0.46417 0.0
H2653 H 0.49756 0.51711 0.5861 0.0
H2654 H 0.48581 0.52715 0.63721 0.0
H2655 H 0.44708 0.52196 0.58598 0.0
H2656 H 0.45862 0.51205 0.53434 0.0
H2657 H 0.502 0.44309 0.4726 0.0
H2658 H 0.50697 0.46706 0.48458 0.0
H2659 H 0.46429 0.47701 0.47231 0.0
H2660 H 0.45916 0.45294 0.46094 0.0
H2661 H 0.47465 0.48922 0.52899 0.0
H2662 H 0.48745 0.48523 0.40858 0.0
H2663 H 0.49906 0.47519 0.35728 0.0
H2664 H 0.53809 0.48302 0.40464 0.0
H2665 H 0.52671 0.49293 0.45648 0.0
C2666 C 0.49566 0.55309 0.52747 0.0
C2667 C 0.50947 0.55563 0.53536 0.0
C2668 C 0.49134 0.53994 0.51836 0.0
C2669 C 0.50073 0.5291 0.51719 0.0
C2670 C 0.51449 0.53161 0.52522 0.0
C2671 C 0.51882 0.54472 0.53429 0.0
C2672 C 0.49637 0.51515 0.50707 0.0
C2673 C 0.50288 0.50885 0.47854 0.0
C2674 C 0.48591 0.50807 0.52515 0.0
C2675 C 0.47897 0.51398 0.55622 0.0
C2676 C 0.48655 0.51821 0.58562 0.0
C2677 C 0.47992 0.52386 0.6147 0.0
C2678 C 0.46571 0.52523 0.6148 0.0
C2679 C 0.45809 0.52092 0.58584 0.0
C2680 C 0.46466 0.51528 0.55668 0.0
C2681 C 0.49366 0.45037 0.47225 0.0
C2682 C 0.48018 0.4461 0.46571 0.0
C2683 C 0.49654 0.46409 0.47898 0.0
C2684 C 0.48603 0.47386 0.47889 0.0
C2685 C 0.47256 0.46964 0.47242 0.0
C2686 C 0.46966 0.45589 0.46583 0.0
C2687 C 0.48913 0.4884 0.48644 0.0
C2688 C 0.48236 0.49482 0.51442 0.0
C2689 C 0.49933 0.49562 0.46778 0.0
C2690 C 0.50622 0.48973 0.43655 0.0
C2691 C 0.49851 0.48472 0.40818 0.0
C2692 C 0.50505 0.47907 0.37898 0.0
C2693 C 0.5193 0.47845 0.37773 0.0
C2694 C 0.52705 0.4835 0.40565 0.0
C2695 C 0.52056 0.48916 0.43493 0.0
H2696 H 0.52435 0.47407 0.35511 0.0
H2697 H 0.4606 0.5296 0.63734 0.0
H2698 H 0.96422 0.45094 0.03152 0.0
H2699 H 0.97052 0.47419 0.01467 0.0
H2700 H 0.0132 0.46355 0.02186 0.0
H2701 H 0.00701 0.44027 0.03891 0.0
H2702 H 0.00767 0.48861 0.05116 0.0
H2703 H 0.99849 0.46492 0.94354 0.0
H2704 H 0.98495 0.45086 0.90263 0.0
H2705 H 0.95323 0.48118 0.90225 0.0
H2706 H 0.96651 0.49534 0.94359 0.0
H2707 H 0.03492 0.54452 0.95664 0.0
H2708 H 0.02853 0.52125 0.97307 0.0
H2709 H 0.9859 0.53218 0.96731 0.0
H2710 H 0.99217 0.5555 0.95077 0.0
H2711 H 0.99138 0.507 0.93725 0.0
H2712 H 0.00063 0.53069 0.0449 0.0
H2713 H 0.01423 0.54474 0.08569 0.0
H2714 H 0.0459 0.51438 0.08588 0.0
H2715 H 0.03257 0.50023 0.04465 0.0
C2716 C 0.97495 0.45356 0.02979 0.0
C2717 C 0.98512 0.44373 0.03638 0.0
C2718 C 0.97853 0.46683 0.02001 0.0
C2719 C 0.99232 0.47052 0.01659 0.0
C2720 C 0.00249 0.46088 0.02426 0.0
C2721 C 0.99893 0.44758 0.03392 0.0
C2722 C 0.99612 0.48437 0.00433 0.0
C2723 C 0.00426 0.49258 0.02607 0.0
C2724 C 0.99142 0.4896 0.97189 0.0
C2725 C 0.98343 0.48113 0.94695 0.0
C2726 C 0.98858 0.46854 0.93497 0.0
C2727 C 0.98096 0.46056 0.91166 0.0
C2728 C 0.96822 0.46511 0.89992 0.0
C2729 C 0.96309 0.47766 0.91141 0.0
C2730 C 0.97066 0.48568 0.93476 0.0
C2731 C 0.02417 0.54196 0.95855 0.0
C2732 C 0.01405 0.55189 0.95259 0.0
C2733 C 0.02056 0.52867 0.96809 0.0
C2734 C 0.00676 0.52507 0.97182 0.0
C2735 C 0.99661 0.53479 0.96466 0.0
C2736 C 0.00022 0.54811 0.95529 0.0
C2737 C 0.00293 0.51123 0.98407 0.0
C2738 C 0.99479 0.50303 0.96234 0.0
C2739 C 0.00763 0.506 0.0165 0.0
C2740 C 0.01566 0.51446 0.0414 0.0
C2741 C 0.01054 0.52706 0.0534 0.0
C2742 C 0.0182 0.53503 0.07664 0.0
C2743 C 0.03094 0.53047 0.08829 0.0
C2744 C 0.03604 0.51791 0.07679 0.0
C2745 C 0.02843 0.5099 0.0535 0.0
H2746 H 0.03685 0.53666 0.1063 0.0
H2747 H 0.96234 0.45892 0.88186 0.0
H2748 H 0.53426 0.45211 0.96197 0.0
H2749 H 0.52786 0.47532 0.97884 0.0
H2750 H 0.48635 0.46209 0.996 0.0
H2751 H 0.4926 0.43887 0.9786 0.0
H2752 H 0.48695 0.48614 0.96261 0.0
H2753 H 0.50755 0.46702 0.06492 0.0
H2754 H 0.52533 0.45521 0.09934 0.0
H2755 H 0.55397 0.48706 0.07497 0.0
H2756 H 0.53641 0.49897 0.04001 0.0
H2757 H 0.46532 0.54391 0.05865 0.0
H2758 H 0.47179 0.52042 0.04505 0.0
H2759 H 0.51271 0.5337 0.02056 0.0
H2760 H 0.50639 0.55729 0.03455 0.0
H2761 H 0.51214 0.50953 0.05837 0.0
H2762 H 0.48959 0.52908 0.95746 0.0
H2763 H 0.47041 0.54061 0.92774 0.0
H2764 H 0.44397 0.507 0.95263 0.0
H2765 H 0.46282 0.49548 0.98375 0.0
C2766 C 0.52375 0.45414 0.96913 0.0
C2767 C 0.51395 0.44363 0.96905 0.0
C2768 C 0.52013 0.4674 0.97894 0.0
C2769 C 0.50668 0.47038 0.98917 0.0
C2770 C 0.49679 0.46 0.98826 0.0
C2771 C 0.50039 0.44673 0.97832 0.0
C2772 C 0.50297 0.48431 1.00107 0.0
C2773 C 0.49235 0.4912 0.98383 0.0
C2774 C 0.51012 0.49094 0.02851 0.0
C2775 C 0.5207 0.48382 0.04955 0.0
C2776 C 0.51767 0.47145 0.06666 0.0
C2777 C 0.5277 0.46474 0.08631 0.0
C2778 C 0.54077 0.47036 0.08925 0.0
C2779 C 0.54384 0.48271 0.07262 0.0
C2780 C 0.53385 0.48945 0.05292 0.0
C2781 C 0.47574 0.54185 0.05066 0.0
C2782 C 0.48532 0.55249 0.04736 0.0
C2783 C 0.4794 0.52842 0.04283 0.0
C2784 C 0.49265 0.52538 0.03126 0.0
C2785 C 0.50241 0.53587 0.02932 0.0
C2786 C 0.49877 0.54933 0.03726 0.0
C2787 C 0.49618 0.51136 0.01982 0.0
C2788 C 0.50677 0.50447 0.03713 0.0
C2789 C 0.48885 0.50465 0.99278 0.0
C2790 C 0.47761 0.51146 0.97326 0.0
C2791 C 0.47966 0.52418 0.95687 0.0
C2792 C 0.46885 0.53072 0.93976 0.0
C2793 C 0.45601 0.52453 0.9382 0.0
C2794 C 0.45393 0.51179 0.95385 0.0
C2795 C 0.46466 0.50527 0.97132 0.0
H2796 H 0.44767 0.5296 0.92487 0.0
H2797 H 0.54852 0.46516 0.10448 0.0
H2798 H 0.03477 0.45287 0.54705 0.0
H2799 H 0.0282 0.47616 0.53097 0.0
H2800 H 0.98717 0.46242 0.50938 0.0
H2801 H 0.99363 0.43911 0.52535 0.0
H2802 H 0.99763 0.47811 0.45639 0.0
H2803 H 0.99336 0.48053 0.58141 0.0
H2804 H 0.00082 0.47818 0.64287 0.0
H2805 H 0.03324 0.5069 0.62482 0.0
H2806 H 0.02609 0.50927 0.56305 0.0
H2807 H 0.96492 0.54282 0.44429 0.0
H2808 H 0.97197 0.5197 0.46029 0.0
H2809 H 0.01263 0.53432 0.48257 0.0
H2810 H 0.00566 0.55752 0.46679 0.0
H2811 H 0.0027 0.51822 0.53497 0.0
H2812 H 0.00665 0.51612 0.41002 0.0
H2813 H 0.99912 0.51842 0.3486 0.0
H2814 H 0.9673 0.48901 0.36639 0.0
H2815 H 0.97449 0.48671 0.42812 0.0
C2816 C 0.02432 0.45482 0.53915 0.0
C2817 C 0.01472 0.44415 0.5375 0.0
C2818 C 0.02058 0.46813 0.53007 0.0
C2819 C 0.00719 0.471 0.51916 0.0
C2820 C 0.99756 0.4604 0.51776 0.0
C2821 C 0.00126 0.44711 0.52705 0.0
C2822 C 0.00335 0.48497 0.50802 0.0
C2823 C 0.99855 0.48687 0.4737 0.0
C2824 C 0.00492 0.4964 0.53038 0.0
C2825 C 0.00929 0.49495 0.56748 0.0
C2826 C 0.00217 0.48624 0.59044 0.0
C2827 C 0.00632 0.48493 0.62536 0.0
C2828 C 0.01752 0.49236 0.63771 0.0
C2829 C 0.02458 0.50114 0.61519 0.0
C2830 C 0.02047 0.50247 0.58023 0.0
C2831 C 0.97539 0.54112 0.45233 0.0
C2832 C 0.98474 0.55201 0.45424 0.0
C2833 C 0.97941 0.52789 0.46136 0.0
C2834 C 0.99284 0.5253 0.4724 0.0
C2835 C 0.00222 0.53612 0.47408 0.0
C2836 C 0.99823 0.54935 0.4649 0.0
C2837 C 0.99695 0.51137 0.48333 0.0
C2838 C 0.0018 0.50948 0.51762 0.0
C2839 C 0.99541 0.49994 0.46093 0.0
C2840 C 0.99101 0.50137 0.42384 0.0
C2841 C 0.99795 0.51025 0.40096 0.0
C2842 C 0.99376 0.51153 0.36606 0.0
C2843 C 0.98271 0.5039 0.35363 0.0
C2844 C 0.97584 0.49494 0.37607 0.0
C2845 C 0.97997 0.49364 0.41102 0.0
H2846 H 0.97949 0.50489 0.32659 0.0
H2847 H 0.02072 0.49134 0.66477 0.0
H2848 H 0.03371 0.13882 0.08751 0.0
H2849 H 0.04733 0.15828 0.10833 0.0
H2850 H 0.08206 0.13171 0.12225 0.0
H2851 H 0.06868 0.11235 0.10133 0.0
H2852 H 0.07597 0.14815 0.1812 0.0
H2853 H 0.08158 0.15208 0.05485 0.0
H2854 H 0.07319 0.15477 0.99426 0.0
H2855 H 0.05422 0.19283 0.02214 0.0
H2856 H 0.06235 0.19025 0.08307 0.0
H2857 H 0.13649 0.18509 0.19217 0.0
H2858 H 0.11736 0.17042 0.17661 0.0
H2859 H 0.09181 0.20583 0.16123 0.0
H2860 H 0.11108 0.22073 0.17645 0.0
H2861 H 0.08928 0.18778 0.10759 0.0
H2862 H 0.08641 0.18577 0.23143 0.0
H2863 H 0.09464 0.18339 0.29223 0.0
H2864 H 0.10758 0.14231 0.27071 0.0
H2865 H 0.09962 0.1445 0.2096 0.0
C2866 C 0.04428 0.13716 0.09475 0.0
C2867 C 0.05011 0.12404 0.09277 0.0
C2868 C 0.05202 0.14827 0.10662 0.0
C2869 C 0.06566 0.14638 0.1169 0.0
C2870 C 0.07152 0.13334 0.11458 0.0
C2871 C 0.06387 0.12231 0.10242 0.0
C2872 C 0.07392 0.15782 0.13078 0.0
C2873 C 0.07893 0.15681 0.16513 0.0
C2874 C 0.07729 0.16935 0.11019 0.0
C2875 C 0.07241 0.17088 0.0736 0.0
C2876 C 0.0755 0.16095 0.04814 0.0
C2877 C 0.07082 0.16247 0.01372 0.0
C2878 C 0.06313 0.17394 0.00438 0.0
C2879 C 0.06015 0.18393 0.02943 0.0
C2880 C 0.06479 0.18245 0.0639 0.0
C2881 C 0.12679 0.18981 0.18577 0.0
C2882 C 0.12531 0.2041 0.18562 0.0
C2883 C 0.11583 0.18138 0.17703 0.0
C2884 C 0.10311 0.18702 0.16819 0.0
C2885 C 0.10153 0.20128 0.16813 0.0
C2886 C 0.11253 0.20976 0.17696 0.0
C2887 C 0.09176 0.17787 0.15768 0.0
C2888 C 0.08612 0.1793 0.12401 0.0
C2889 C 0.0877 0.16675 0.17901 0.0
C2890 C 0.09248 0.16534 0.21583 0.0
C2891 C 0.0911 0.17626 0.23958 0.0
C2892 C 0.0957 0.17493 0.27412 0.0
C2893 C 0.10164 0.16271 0.28531 0.0
C2894 C 0.10297 0.15177 0.262 0.0
C2895 C 0.0984 0.15304 0.22741 0.0
H2896 H 0.1052 0.16171 0.31207 0.0
H2897 H 0.05952 0.1751 0.97771 0.0
H2898 H 0.11114 0.78357 0.33247 0.0
H2899 H 0.09256 0.79862 0.35168 0.0
H2900 H 0.12044 0.83275 0.35351 0.0
H2901 H 0.13899 0.81789 0.33451 0.0
H2902 H 0.10537 0.83064 0.41401 0.0
H2903 H 0.09771 0.82944 0.2883 0.0
H2904 H 0.09328 0.81804 0.23174 0.0
H2905 H 0.05609 0.8011 0.27276 0.0
H2906 H 0.06041 0.81227 0.32976 0.0
H2907 H 0.06677 0.89063 0.41511 0.0
H2908 H 0.08173 0.87149 0.40123 0.0
H2909 H 0.04712 0.84418 0.40121 0.0
H2910 H 0.03195 0.8634 0.4147 0.0
H2911 H 0.06341 0.83988 0.34493 0.0
H2912 H 0.06949 0.84313 0.46821 0.0
H2913 H 0.07365 0.85446 0.52498 0.0
H2914 H 0.11344 0.86694 0.49006 0.0
H2915 H 0.10945 0.85587 0.43285 0.0
C2916 C 0.11328 0.7943 0.33668 0.0
C2917 C 0.12655 0.79953 0.332 0.0
C2918 C 0.10266 0.80287 0.34763 0.0
C2919 C 0.10516 0.81678 0.35403 0.0
C2920 C 0.11833 0.82203 0.34888 0.0
C2921 C 0.12891 0.81352 0.33785 0.0
C2922 C 0.09421 0.82594 0.36685 0.0
C2923 C 0.09623 0.83274 0.39884 0.0
C2924 C 0.08206 0.82824 0.34766 0.0
C2925 C 0.07947 0.82155 0.31341 0.0
C2926 C 0.08865 0.82319 0.28536 0.0
C2927 C 0.08615 0.81679 0.2532 0.0
C2928 C 0.07443 0.80881 0.2487 0.0
C2929 C 0.06517 0.80726 0.27631 0.0
C2930 C 0.06764 0.81362 0.30854 0.0
C2931 C 0.06231 0.88055 0.41238 0.0
C2932 C 0.04817 0.87854 0.4161 0.0
C2933 C 0.0709 0.8696 0.40458 0.0
C2934 C 0.06556 0.85638 0.40063 0.0
C2935 C 0.05144 0.8543 0.40429 0.0
C2936 C 0.04281 0.86528 0.41211 0.0
C2937 C 0.07479 0.84492 0.39158 0.0
C2938 C 0.07244 0.83765 0.36042 0.0
C2939 C 0.08663 0.84211 0.41164 0.0
C2940 C 0.08912 0.84874 0.44612 0.0
C2941 C 0.07909 0.84837 0.47253 0.0
C2942 C 0.08143 0.85474 0.50481 0.0
C2943 C 0.09379 0.86143 0.5111 0.0
C2944 C 0.10387 0.86176 0.48514 0.0
C2945 C 0.10158 0.85542 0.45279 0.0
H2946 H 0.09558 0.86636 0.53611 0.0
H2947 H 0.07251 0.80387 0.22378 0.0
H2948 H 0.38717 0.77979 0.66825 0.0
H2949 H 0.40632 0.79369 0.6468 0.0
H2950 H 0.37967 0.82865 0.63925 0.0
H2951 H 0.36062 0.81501 0.66074 0.0
H2952 H 0.3952 0.82361 0.57823 0.0
H2953 H 0.40104 0.82672 0.70504 0.0
H2954 H 0.40474 0.817 0.76395 0.0
H2955 H 0.4423 0.79879 0.72921 0.0
H2956 H 0.43871 0.80827 0.66991 0.0
H2957 H 0.4309 0.88495 0.57325 0.0
H2958 H 0.41679 0.86514 0.58638 0.0
H2959 H 0.4529 0.84015 0.59641 0.0
H2960 H 0.46722 0.86011 0.58372 0.0
H2961 H 0.43566 0.8359 0.65006 0.0
H2962 H 0.43203 0.83582 0.5264 0.0
H2963 H 0.4287 0.84523 0.46706 0.0
H2964 H 0.38766 0.85676 0.49365 0.0
H2965 H 0.3908 0.84761 0.55335 0.0
C2966 C 0.38544 0.79047 0.66228 0.0
C2967 C 0.37238 0.7963 0.66622 0.0
C2968 C 0.39637 0.79837 0.65002 0.0
C2969 C 0.39435 0.81216 0.64135 0.0
C2970 C 0.38139 0.818 0.64563 0.0
C2971 C 0.37053 0.81019 0.65812 0.0
C2972 C 0.40559 0.82065 0.6274 0.0
C2973 C 0.40405 0.82635 0.59389 0.0
C2974 C 0.41737 0.82371 0.64734 0.0
C2975 C 0.41951 0.81804 0.68296 0.0
C2976 C 0.41001 0.82053 0.70988 0.0
C2977 C 0.41211 0.81509 0.74335 0.0
C2978 C 0.42372 0.80724 0.75028 0.0
C2979 C 0.43329 0.80485 0.72378 0.0
C2980 C 0.43123 0.81025 0.69024 0.0
C2981 C 0.43588 0.87524 0.57794 0.0
C2982 C 0.45019 0.87412 0.57741 0.0
C2983 C 0.42778 0.86388 0.58526 0.0
C2984 C 0.43378 0.85112 0.5919 0.0
C2985 C 0.44807 0.8499 0.59118 0.0
C2986 C 0.45622 0.8613 0.58383 0.0
C2987 C 0.425 0.83935 0.60135 0.0
C2988 C 0.427 0.83298 0.63396 0.0
C2989 C 0.41367 0.83556 0.58041 0.0
C2990 C 0.41169 0.84108 0.54447 0.0
C2991 C 0.42233 0.84045 0.5197 0.0
C2992 C 0.42046 0.84573 0.48597 0.0
C2993 C 0.40798 0.85161 0.4766 0.0
C2994 C 0.39732 0.8522 0.50094 0.0
C2995 C 0.39913 0.84695 0.53472 0.0
H2996 H 0.40656 0.85569 0.45048 0.0
H2997 H 0.42532 0.80304 0.77622 0.0
H2998 H 0.43305 0.1114 0.92098 0.0
H2999 H 0.41875 0.12968 0.8978 0.0
H3000 H 0.45459 0.15401 0.87703 0.0
H3001 H 0.46907 0.13575 0.90063 0.0
H3002 H 0.43328 0.16948 0.90279 0.0
H3003 H 0.44057 0.13754 0.81093 0.0
H3004 H 0.44179 0.11478 0.78334 0.0
H3005 H 0.39885 0.10897 0.80098 0.0
H3006 H 0.39741 0.13161 0.82922 0.0
H3007 H 0.38953 0.21406 0.80566 0.0
H3008 H 0.40881 0.19875 0.81749 0.0
H3009 H 0.38064 0.16624 0.8424 0.0
H3010 H 0.36146 0.18122 0.82946 0.0
H3011 H 0.4016 0.1565 0.80667 0.0
H3012 H 0.39575 0.18807 0.90538 0.0
H3013 H 0.39489 0.21149 0.92914 0.0
H3014 H 0.4362 0.21842 0.89562 0.0
H3015 H 0.43718 0.19515 0.87081 0.0
C3016 C 0.43792 0.12069 0.91186 0.0
C3017 C 0.45221 0.12207 0.91234 0.0
C3018 C 0.42973 0.1311 0.89849 0.0
C3019 C 0.43565 0.14306 0.88504 0.0
C3020 C 0.44985 0.14481 0.88708 0.0
C3021 C 0.45809 0.13437 0.90057 0.0
C3022 C 0.4269 0.15342 0.86778 0.0
C3023 C 0.42651 0.16672 0.88139 0.0
C3024 C 0.41814 0.14983 0.83972 0.0
C3025 C 0.4189 0.13625 0.8224 0.0
C3026 C 0.4314 0.13137 0.80914 0.0
C3027 C 0.43214 0.1185 0.79336 0.0
C3028 C 0.42041 0.11043 0.79045 0.0
C3029 C 0.40793 0.11523 0.80326 0.0
C3030 C 0.40714 0.12809 0.81912 0.0
C3031 C 0.38747 0.2036 0.81331 0.0
C3032 C 0.37397 0.19888 0.81691 0.0
C3033 C 0.39849 0.19488 0.82014 0.0
C3034 C 0.39616 0.18141 0.83141 0.0
C3035 C 0.3827 0.17658 0.83376 0.0
C3036 C 0.37172 0.1852 0.82648 0.0
C3037 C 0.40754 0.1724 0.84267 0.0
C3038 C 0.40849 0.15932 0.82778 0.0
C3039 C 0.41687 0.17625 0.86933 0.0
C3040 C 0.41648 0.18994 0.88592 0.0
C3041 C 0.40464 0.19461 0.90302 0.0
C3042 C 0.40412 0.20787 0.91658 0.0
C3043 C 0.41547 0.21646 0.91376 0.0
C3044 C 0.42741 0.21177 0.89766 0.0
C3045 C 0.42794 0.19855 0.8838 0.0
H3046 H 0.41505 0.22674 0.92408 0.0
H3047 H 0.421 0.10046 0.77824 0.0
H3048 H 0.85809 0.81928 0.83365 0.0
H3049 H 0.8772 0.83455 0.8454 0.0
H3050 H 0.90464 0.80009 0.84908 0.0
H3051 H 0.88545 0.78461 0.83777 0.0
H3052 H 0.90888 0.81718 0.90347 0.0
H3053 H 0.90542 0.8216 0.77961 0.0
H3054 H 0.89401 0.82509 0.72266 0.0
H3055 H 0.88168 0.86533 0.75451 0.0
H3056 H 0.89284 0.86201 0.81188 0.0
H3057 H 0.96556 0.86404 0.91226 0.0
H3058 H 0.95021 0.84559 0.89401 0.0
H3059 H 0.91676 0.87422 0.88841 0.0
H3060 H 0.93198 0.89268 0.9063 0.0
H3061 H 0.91818 0.85808 0.8304 0.0
H3062 H 0.91967 0.85231 0.95656 0.0
H3063 H 0.93114 0.84867 0.01339 0.0
H3064 H 0.9476 0.81067 0.97609 0.0
H3065 H 0.93636 0.81418 0.91884 0.0
C3066 C 0.86819 0.81491 0.83669 0.0
C3067 C 0.87025 0.80072 0.83471 0.0
C3068 C 0.87913 0.82368 0.84325 0.0
C3069 C 0.89237 0.81847 0.84769 0.0
C3070 C 0.8945 0.80431 0.84561 0.0
C3071 C 0.88354 0.7955 0.83904 0.0
C3072 C 0.90381 0.82789 0.85584 0.0
C3073 C 0.91112 0.82597 0.88713 0.0
C3074 C 0.9066 0.83944 0.83472 0.0
C3075 C 0.8999 0.84151 0.80017 0.0
C3076 C 0.90019 0.83116 0.77459 0.0
C3077 C 0.89378 0.83311 0.7422 0.0
C3078 C 0.8871 0.84541 0.735 0.0
C3079 C 0.88685 0.8558 0.76014 0.0
C3080 C 0.89323 0.8539 0.79258 0.0
C3081 C 0.95492 0.86639 0.90733 0.0
C3082 C 0.94999 0.87983 0.91077 0.0
C3083 C 0.94617 0.85584 0.89695 0.0
C3084 C 0.93235 0.85855 0.88996 0.0
C3085 C 0.92741 0.87193 0.89356 0.0
C3086 C 0.93612 0.88245 0.90396 0.0
C3087 C 0.92295 0.84756 0.87846 0.0
C3088 C 0.91606 0.84918 0.84646 0.0
C3089 C 0.9206 0.83572 0.89886 0.0
C3090 C 0.92731 0.83359 0.93329 0.0
C3091 C 0.92583 0.84324 0.96038 0.0
C3092 C 0.93227 0.84119 0.99268 0.0
C3093 C 0.94013 0.82947 0.99831 0.0
C3094 C 0.94153 0.81976 0.97167 0.0
C3095 C 0.93512 0.82177 0.9393 0.0
H3096 H 0.94511 0.8279 0.02334 0.0
H3097 H 0.88215 0.8469 0.70991 0.0
H3098 H 0.93303 0.11213 0.5895 0.0
H3099 H 0.91865 0.13175 0.60215 0.0
H3100 H 0.95356 0.15847 0.59376 0.0
H3101 H 0.96824 0.13868 0.5818 0.0
H3102 H 0.9386 0.16482 0.65008 0.0
H3103 H 0.92921 0.15821 0.52931 0.0
H3104 H 0.92366 0.14545 0.47538 0.0
H3105 H 0.88501 0.13367 0.5192 0.0
H3106 H 0.8904 0.14618 0.57361 0.0
H3107 H 0.88843 0.21962 0.66418 0.0
H3108 H 0.90734 0.20527 0.64339 0.0
H3109 H 0.88179 0.16954 0.65261 0.0
H3110 H 0.86297 0.18366 0.67326 0.0
H3111 H 0.89455 0.17158 0.58807 0.0
H3112 H 0.90615 0.17574 0.71193 0.0
H3113 H 0.912 0.1887 0.76536 0.0
H3114 H 0.9469 0.20593 0.71334 0.0
H3115 H 0.94114 0.19319 0.65943 0.0
C3116 C 0.93769 0.12217 0.59004 0.0
C3117 C 0.95179 0.12383 0.58449 0.0
C3118 C 0.92942 0.13341 0.59712 0.0
C3119 C 0.93498 0.14662 0.59831 0.0
C3120 C 0.94905 0.14837 0.59277 0.0
C3121 C 0.9574 0.13706 0.58583 0.0
C3122 C 0.92601 0.15839 0.6067 0.0
C3123 C 0.92911 0.16651 0.63602 0.0
C3124 C 0.9136 0.16058 0.58845 0.0
C3125 C 0.91025 0.1531 0.55564 0.0
C3126 C 0.91956 0.15283 0.52754 0.0
C3127 C 0.91644 0.14565 0.49687 0.0
C3128 C 0.904 0.13874 0.49388 0.0
C3129 C 0.89464 0.13903 0.52154 0.0
C3130 C 0.89772 0.14619 0.55229 0.0
C3131 C 0.8869 0.20869 0.6621 0.0
C3132 C 0.87417 0.20279 0.67028 0.0
C3133 C 0.8977 0.20052 0.65023 0.0
C3134 C 0.89592 0.18637 0.64636 0.0
C3135 C 0.88333 0.18046 0.6552 0.0
C3136 C 0.8726 0.18856 0.66715 0.0
C3137 C 0.9069 0.17755 0.6322 0.0
C3138 C 0.90418 0.17005 0.60165 0.0
C3139 C 0.91967 0.17604 0.64913 0.0
C3140 C 0.92312 0.18366 0.68154 0.0
C3141 C 0.915 0.18239 0.71179 0.0
C3142 C 0.91832 0.18967 0.74218 0.0
C3143 C 0.92979 0.19817 0.74271 0.0
C3144 C 0.938 0.19936 0.71287 0.0
C3145 C 0.93472 0.19211 0.68241 0.0
H3146 H 0.93234 0.20379 0.76626 0.0
H3147 H 0.9016 0.13318 0.47012 0.0
H3148 H 0.64181 0.1819 0.33365 0.0
H3149 H 0.62339 0.16609 0.34782 0.0
H3150 H 0.59405 0.19881 0.33917 0.0
H3151 H 0.61252 0.21484 0.32549 0.0
H3152 H 0.58958 0.18377 0.39705 0.0
H3153 H 0.5961 0.17467 0.27548 0.0
H3154 H 0.60903 0.16956 0.22156 0.0
H3155 H 0.62259 0.13159 0.26594 0.0
H3156 H 0.60989 0.13656 0.32035 0.0
H3157 H 0.53448 0.13501 0.40704 0.0
H3158 H 0.54974 0.1534 0.38795 0.0
H3159 H 0.58419 0.12606 0.39544 0.0
H3160 H 0.56908 0.10766 0.41422 0.0
H3161 H 0.58382 0.13988 0.33358 0.0
H3162 H 0.57878 0.15025 0.45701 0.0
H3163 H 0.56581 0.15554 0.51078 0.0
H3164 H 0.54908 0.19132 0.46173 0.0
H3165 H 0.56183 0.18614 0.40748 0.0
C3166 C 0.63144 0.18575 0.33452 0.0
C3167 C 0.62863 0.19963 0.32833 0.0
C3168 C 0.62091 0.17668 0.34249 0.0
C3169 C 0.60733 0.18124 0.3441 0.0
C3170 C 0.60446 0.19508 0.33794 0.0
C3171 C 0.61502 0.20421 0.33002 0.0
C3172 C 0.59626 0.17155 0.35325 0.0
C3173 C 0.58813 0.17429 0.38277 0.0
C3174 C 0.5945 0.1591 0.33487 0.0
C3175 C 0.60211 0.15604 0.30211 0.0
C3176 C 0.60191 0.16527 0.27385 0.0
C3177 C 0.60919 0.1624 0.24317 0.0
C3178 C 0.61665 0.15027 0.24035 0.0
C3179 C 0.61681 0.14098 0.26817 0.0
C3180 C 0.60956 0.14381 0.29892 0.0
C3181 C 0.54532 0.13295 0.40486 0.0
C3182 C 0.55057 0.11986 0.41212 0.0
C3183 C 0.55402 0.14347 0.394 0.0
C3184 C 0.56809 0.14108 0.39036 0.0
C3185 C 0.57335 0.12809 0.39797 0.0
C3186 C 0.56469 0.1176 0.40884 0.0
C3187 C 0.57741 0.15195 0.37784 0.0
C3188 C 0.58517 0.14943 0.34759 0.0
C3189 C 0.57878 0.1646 0.39546 0.0
C3190 C 0.57113 0.16772 0.42806 0.0
C3191 C 0.57224 0.15918 0.45759 0.0
C3192 C 0.56495 0.16217 0.48817 0.0
C3193 C 0.55659 0.17373 0.48963 0.0
C3194 C 0.55554 0.18235 0.46054 0.0
C3195 C 0.5628 0.1794 0.42988 0.0
H3196 H 0.55095 0.17603 0.51333 0.0
H3197 H 0.62228 0.14806 0.21658 0.0
H3198 H 0.52915 0.86156 0.09264 0.0
H3199 H 0.54297 0.84169 0.10909 0.0
H3200 H 0.57959 0.86353 0.08046 0.0
H3201 H 0.56592 0.88335 0.06391 0.0
H3202 H 0.58034 0.83657 0.05964 0.0
H3203 H 0.56908 0.86317 0.1636 0.0
H3204 H 0.55309 0.87387 0.20539 0.0
H3205 H 0.5355 0.83465 0.22798 0.0
H3206 H 0.55126 0.82375 0.18585 0.0
H3207 H 0.6358 0.81649 0.16042 0.0
H3208 H 0.61598 0.82949 0.14085 0.0
H3209 H 0.5897 0.79539 0.16474 0.0
H3210 H 0.60962 0.78207 0.18394 0.0
H3211 H 0.5803 0.82401 0.18583 0.0
H3212 H 0.59528 0.79704 0.0894 0.0
H3213 H 0.61262 0.78699 0.05038 0.0
H3214 H 0.62344 0.82695 0.0132 0.0
H3215 H 0.60661 0.83733 0.0533 0.0
C3216 C 0.54013 0.86205 0.08938 0.0
C3217 C 0.54646 0.87406 0.07727 0.0
C3218 C 0.54799 0.85071 0.09885 0.0
C3219 C 0.56229 0.85121 0.09625 0.0
C3220 C 0.56856 0.86294 0.08262 0.0
C3221 C 0.56074 0.87429 0.07336 0.0
C3222 C 0.57091 0.84 0.10993 0.0
C3223 C 0.5803 0.83377 0.08717 0.0
C3224 C 0.57061 0.83614 0.14572 0.0
C3225 C 0.56122 0.84267 0.17125 0.0
C3226 C 0.56173 0.85685 0.17727 0.0
C3227 C 0.55271 0.86295 0.20103 0.0
C3228 C 0.54325 0.85495 0.21924 0.0
C3229 C 0.54281 0.84083 0.21379 0.0
C3230 C 0.55178 0.83469 0.18997 0.0
C3231 C 0.62581 0.81177 0.16202 0.0
C3232 C 0.62429 0.79822 0.1735 0.0
C3233 C 0.61451 0.81922 0.15075 0.0
C3234 C 0.60147 0.81332 0.15112 0.0
C3235 C 0.59974 0.80006 0.16426 0.0
C3236 C 0.61111 0.79248 0.17509 0.0
C3237 C 0.58993 0.82092 0.1357 0.0
C3238 C 0.58005 0.8265 0.1581 0.0
C3239 C 0.58979 0.82419 0.09957 0.0
C3240 C 0.59973 0.81799 0.07468 0.0
C3241 C 0.60145 0.80372 0.07322 0.0
C3242 C 0.61118 0.79795 0.05086 0.0
C3243 C 0.61908 0.80631 0.0292 0.0
C3244 C 0.6173 0.82048 0.02998 0.0
C3245 C 0.60768 0.82632 0.05263 0.0
H3246 H 0.62658 0.80181 0.01182 0.0
H3247 H 0.53628 0.85969 0.23764 0.0
H3248 H 0.53128 0.63927 0.57567 0.0
H3249 H 0.54621 0.65758 0.59706 0.0
H3250 H 0.57965 0.62903 0.60452 0.0
H3251 H 0.5649 0.61073 0.58321 0.0
H3252 H 0.57608 0.64449 0.66483 0.0
H3253 H 0.57869 0.65134 0.53896 0.0
H3254 H 0.56902 0.65565 0.48026 0.0
H3255 H 0.55188 0.69349 0.51657 0.0
H3256 H 0.5613 0.6893 0.57566 0.0
H3257 H 0.6369 0.68134 0.67528 0.0
H3258 H 0.61763 0.66689 0.65955 0.0
H3259 H 0.59175 0.70243 0.65137 0.0
H3260 H 0.61118 0.71711 0.66661 0.0
H3261 H 0.58832 0.68575 0.59608 0.0
H3262 H 0.58788 0.68052 0.71977 0.0
H3263 H 0.59733 0.67648 0.7788 0.0
H3264 H 0.60965 0.63609 0.74825 0.0
H3265 H 0.60045 0.63994 0.68885 0.0
C3266 C 0.54184 0.63692 0.5816 0.0
C3267 C 0.5469 0.62354 0.57775 0.0
C3268 C 0.55035 0.64739 0.59379 0.0
C3269 C 0.56401 0.64463 0.60237 0.0
C3270 C 0.56911 0.63134 0.59816 0.0
C3271 C 0.56067 0.62091 0.58581 0.0
C3272 C 0.57305 0.65543 0.61648 0.0
C3273 C 0.57884 0.65348 0.64976 0.0
C3274 C 0.57618 0.66741 0.59733 0.0
C3275 C 0.57055 0.66992 0.56182 0.0
C3276 C 0.57275 0.66052 0.53451 0.0
C3277 C 0.56734 0.66295 0.50115 0.0
C3278 C 0.5598 0.67481 0.49472 0.0
C3279 C 0.55769 0.68429 0.52161 0.0
C3280 C 0.56307 0.68189 0.55503 0.0
C3281 C 0.6271 0.68612 0.67045 0.0
C3282 C 0.62558 0.70039 0.67227 0.0
C3283 C 0.61606 0.67782 0.66161 0.0
C3284 C 0.6032 0.68356 0.65474 0.0
C3285 C 0.60158 0.6978 0.65672 0.0
C3286 C 0.61267 0.70615 0.66555 0.0
C3287 C 0.59172 0.6746 0.64405 0.0
C3288 C 0.58542 0.6769 0.61148 0.0
C3289 C 0.58803 0.66297 0.66398 0.0
C3290 C 0.59354 0.66056 0.69975 0.0
C3291 C 0.59269 0.67081 0.72555 0.0
C3292 C 0.59799 0.66855 0.7591 0.0
C3293 C 0.6041 0.65604 0.76725 0.0
C3294 C 0.60491 0.64577 0.74189 0.0
C3295 C 0.59963 0.64798 0.70829 0.0
H3296 H 0.6082 0.65431 0.79324 0.0
H3297 H 0.55563 0.67668 0.46887 0.0
H3298 H 0.56641 0.38513 0.93037 0.0
H3299 H 0.58018 0.36631 0.90807 0.0
H3300 H 0.54529 0.33949 0.91324 0.0
H3301 H 0.53124 0.35841 0.9354 0.0
H3302 H 0.57192 0.32818 0.93799 0.0
H3303 H 0.55111 0.3496 0.83895 0.0
H3304 H 0.54384 0.36921 0.8029 0.0
H3305 H 0.58573 0.38102 0.7886 0.0
H3306 H 0.59324 0.36163 0.82517 0.0
H3307 H 0.61112 0.28063 0.83646 0.0
H3308 H 0.59173 0.29473 0.85487 0.0
H3309 H 0.61656 0.33095 0.84482 0.0
H3310 H 0.63588 0.31702 0.82611 0.0
H3311 H 0.59117 0.33495 0.81876 0.0
H3312 H 0.6116 0.31589 0.92386 0.0
H3313 H 0.61931 0.29709 0.96212 0.0
H3314 H 0.57843 0.28121 0.96589 0.0
H3315 H 0.57052 0.29983 0.92721 0.0
C3316 C 0.56165 0.37521 0.92723 0.0
C3317 C 0.54769 0.3733 0.93441 0.0
C3318 C 0.56954 0.36448 0.91441 0.0
C3319 C 0.56368 0.35161 0.90869 0.0
C3320 C 0.54994 0.3494 0.91745 0.0
C3321 C 0.54195 0.36021 0.93002 0.0
C3322 C 0.57191 0.34081 0.8918 0.0
C3323 C 0.5759 0.32944 0.91163 0.0
C3324 C 0.57717 0.34264 0.85759 0.0
C3325 C 0.57273 0.3542 0.83503 0.0
C3326 C 0.55877 0.35643 0.82835 0.0
C3327 C 0.5546 0.3675 0.80779 0.0
C3328 C 0.56431 0.37636 0.79351 0.0
C3329 C 0.57821 0.37415 0.79969 0.0
C3330 C 0.58243 0.36311 0.82031 0.0
C3331 C 0.61241 0.29161 0.83784 0.0
C3332 C 0.62507 0.29771 0.83003 0.0
C3333 C 0.60133 0.29964 0.84848 0.0
C3334 C 0.60276 0.31386 0.85153 0.0
C3335 C 0.61524 0.31999 0.84262 0.0
C3336 C 0.6263 0.312 0.83205 0.0
C3337 C 0.59151 0.32245 0.86527 0.0
C3338 C 0.58696 0.33346 0.84481 0.0
C3339 C 0.58577 0.32028 0.89892 0.0
C3340 C 0.59051 0.30914 0.9223 0.0
C3341 C 0.60428 0.30832 0.93262 0.0
C3342 C 0.60868 0.29771 0.95441 0.0
C3343 C 0.59937 0.28793 0.96634 0.0
C3344 C 0.58563 0.28877 0.95657 0.0
C3345 C 0.58119 0.29935 0.93472 0.0
H3346 H 0.6028 0.27973 0.98322 0.0
H3347 H 0.56107 0.38493 0.77761 0.0
H3348 H 0.86437 0.31655 0.16021 0.0
H3349 H 0.88422 0.32888 0.13814 0.0
H3350 H 0.90943 0.29334 0.15472 0.0
H3351 H 0.88945 0.28071 0.17648 0.0
H3352 H 0.92046 0.32138 0.17737 0.0
H3353 H 0.90337 0.29638 0.07919 0.0
H3354 H 0.88536 0.2873 0.04044 0.0
H3355 H 0.87356 0.32814 0.01261 0.0
H3356 H 0.89133 0.33748 0.05175 0.0
H3357 H 0.97062 0.35916 0.08067 0.0
H3358 H 0.95669 0.33949 0.09811 0.0
H3359 H 0.92006 0.36228 0.07493 0.0
H3360 H 0.93382 0.38186 0.05724 0.0
H3361 H 0.91815 0.3359 0.05272 0.0
H3362 H 0.93227 0.36049 0.15774 0.0
H3363 H 0.94932 0.37008 0.19856 0.0
H3364 H 0.96643 0.33013 0.21409 0.0
H3365 H 0.94956 0.32034 0.17297 0.0
C3366 C 0.87414 0.31135 0.1596 0.0
C3367 C 0.87532 0.29762 0.16994 0.0
C3368 C 0.88546 0.31841 0.14691 0.0
C3369 C 0.8982 0.31195 0.14462 0.0
C3370 C 0.89963 0.29844 0.15631 0.0
C3371 C 0.88822 0.29127 0.16862 0.0
C3372 C 0.90972 0.31934 0.12838 0.0
C3373 C 0.92022 0.32428 0.1499 0.0
C3374 C 0.90921 0.32318 0.09268 0.0
C3375 C 0.89864 0.31763 0.06862 0.0
C3376 C 0.89687 0.30343 0.06503 0.0
C3377 C 0.88671 0.29823 0.04296 0.0
C3378 C 0.87831 0.30713 0.02411 0.0
C3379 C 0.88007 0.32125 0.02724 0.0
C3380 C 0.8902 0.32651 0.04934 0.0
C3381 C 0.9596 0.35992 0.07886 0.0
C3382 C 0.95331 0.37211 0.06782 0.0
C3383 C 0.95167 0.34869 0.08893 0.0
C3384 C 0.93736 0.34949 0.0881 0.0
C3385 C 0.9311 0.36145 0.07572 0.0
C3386 C 0.93898 0.37266 0.06578 0.0
C3387 C 0.92873 0.3383 0.10191 0.0
C3388 C 0.9187 0.33268 0.07991 0.0
C3389 C 0.92969 0.33384 0.13718 0.0
C3390 C 0.93977 0.33971 0.162 0.0
C3391 C 0.93973 0.35377 0.16966 0.0
C3392 C 0.94935 0.35924 0.19287 0.0
C3393 C 0.95897 0.35072 0.20885 0.0
C3394 C 0.95898 0.33672 0.20166 0.0
C3395 C 0.9494 0.3312 0.17841 0.0
H3396 H 0.96637 0.35496 0.2269 0.0
H3397 H 0.87044 0.30309 0.00705 0.0
H3398 H 0.96516 0.63671 0.42209 0.0
H3399 H 0.95037 0.65573 0.40444 0.0
H3400 H 0.91571 0.62852 0.4025 0.0
H3401 H 0.93031 0.60954 0.42 0.0
H3402 H 0.91819 0.64386 0.34214 0.0
H3403 H 0.91955 0.65075 0.46821 0.0
H3404 H 0.93106 0.65475 0.52484 0.0
H3405 H 0.94832 0.692 0.4851 0.0
H3406 H 0.93705 0.68812 0.42804 0.0
H3407 H 0.85875 0.6828 0.34097 0.0
H3408 H 0.8777 0.66775 0.35558 0.0
H3409 H 0.90515 0.70224 0.35758 0.0
H3410 H 0.88607 0.71754 0.34346 0.0
H3411 H 0.90943 0.68551 0.41292 0.0
H3412 H 0.90623 0.68024 0.28941 0.0
H3413 H 0.89495 0.67657 0.23236 0.0
H3414 H 0.88193 0.63671 0.2655 0.0
H3415 H 0.89296 0.64022 0.32297 0.0
C3416 C 0.95437 0.63482 0.4182 0.0
C3417 C 0.94892 0.62161 0.42237 0.0
C3418 C 0.94594 0.64569 0.40817 0.0
C3419 C 0.93196 0.6435 0.40214 0.0
C3420 C 0.92649 0.63039 0.40688 0.0
C3421 C 0.93485 0.61957 0.41703 0.0
C3422 C 0.92298 0.65467 0.38978 0.0
C3423 C 0.9162 0.65294 0.35769 0.0
C3424 C 0.92085 0.66674 0.40945 0.0
C3425 C 0.92761 0.66906 0.44373 0.0
C3426 C 0.92591 0.65973 0.47144 0.0
C3427 C 0.93236 0.66199 0.50364 0.0
C3428 C 0.94045 0.6736 0.50853 0.0
C3429 C 0.94207 0.683 0.48125 0.0
C3430 C 0.93565 0.68078 0.44899 0.0
C3431 C 0.86881 0.68723 0.34435 0.0
C3432 C 0.87091 0.70138 0.34087 0.0
C3433 C 0.87965 0.67859 0.35257 0.0
C3434 C 0.89287 0.68385 0.35712 0.0
C3435 C 0.89503 0.69798 0.35399 0.0
C3436 C 0.88414 0.70668 0.34583 0.0
C3437 C 0.90426 0.67447 0.36581 0.0
C3438 C 0.91156 0.67655 0.39708 0.0
C3439 C 0.90697 0.66274 0.34525 0.0
C3440 C 0.90036 0.66054 0.31062 0.0
C3441 C 0.90088 0.67073 0.28464 0.0
C3442 C 0.89455 0.66867 0.25221 0.0
C3443 C 0.88771 0.65642 0.24533 0.0
C3444 C 0.88723 0.64619 0.27087 0.0
C3445 C 0.89354 0.6482 0.30336 0.0
H3446 H 0.88281 0.65485 0.22021 0.0
H3447 H 0.94544 0.67533 0.53348 0.0
H3448 H 0.37075 0.31573 0.30622 0.0
H3449 H 0.39052 0.32859 0.32733 0.0
H3450 H 0.40711 0.29192 0.37337 0.0
H3451 H 0.3874 0.27889 0.35188 0.0
H3452 H 0.40551 0.31454 0.41985 0.0
H3453 H 0.42319 0.3036 0.30695 0.0
H3454 H 0.42284 0.30142 0.24253 0.0
H3455 H 0.4178 0.34483 0.23248 0.0
H3456 H 0.41792 0.34725 0.29687 0.0
H3457 H 0.4702 0.36214 0.41376 0.0
H3458 H 0.45734 0.34206 0.39403 0.0
H3459 H 0.4201 0.36003 0.43319 0.0
H3460 H 0.43281 0.38013 0.45268 0.0
H3461 H 0.43617 0.34247 0.34496 0.0
H3462 H 0.39985 0.33409 0.46357 0.0
H3463 H 0.40049 0.33602 0.52805 0.0
H3464 H 0.44396 0.33009 0.52698 0.0
H3465 H 0.44356 0.32791 0.46257 0.0
C3466 C 0.37869 0.31036 0.32044 0.0
C3467 C 0.37753 0.29631 0.32743 0.0
C3468 C 0.38999 0.31771 0.33237 0.0
C3469 C 0.40026 0.31118 0.35179 0.0
C3470 C 0.39928 0.29711 0.35833 0.0
C3471 C 0.38806 0.28969 0.34592 0.0
C3472 C 0.41153 0.31933 0.36694 0.0
C3473 C 0.41232 0.32055 0.40355 0.0
C3474 C 0.42052 0.32698 0.34556 0.0
C3475 C 0.42048 0.32559 0.30678 0.0
C3476 C 0.4219 0.31267 0.29102 0.0
C3477 C 0.42176 0.31139 0.2545 0.0
C3478 C 0.42028 0.32298 0.23343 0.0
C3479 C 0.41895 0.33586 0.24884 0.0
C3480 C 0.41907 0.3372 0.28535 0.0
C3481 C 0.4593 0.36172 0.41863 0.0
C3482 C 0.4525 0.37273 0.43469 0.0
C3483 C 0.45198 0.35028 0.40723 0.0
C3484 C 0.43781 0.34956 0.41232 0.0
C3485 C 0.43107 0.36033 0.42935 0.0
C3486 C 0.43833 0.37183 0.44034 0.0
C3487 C 0.4298 0.33804 0.39783 0.0
C3488 C 0.42956 0.33625 0.36132 0.0
C3489 C 0.42136 0.32983 0.41933 0.0
C3490 C 0.42167 0.33093 0.45817 0.0
C3491 C 0.40954 0.33311 0.47709 0.0
C3492 C 0.40986 0.33427 0.51364 0.0
C3493 C 0.42226 0.33321 0.53159 0.0
C3494 C 0.43436 0.33095 0.51304 0.0
C3495 C 0.43409 0.32978 0.4765 0.0
H3496 H 0.42249 0.33412 0.55988 0.0
H3497 H 0.42017 0.32197 0.20516 0.0
H3498 H 0.3619 0.6809 0.17526 0.0
H3499 H 0.38124 0.66662 0.15933 0.0
H3500 H 0.40689 0.70234 0.15122 0.0
H3501 H 0.38737 0.71687 0.16668 0.0
H3502 H 0.41028 0.68576 0.09568 0.0
H3503 H 0.41121 0.68033 0.21909 0.0
H3504 H 0.40213 0.67623 0.27847 0.0
H3505 H 0.38967 0.63584 0.24821 0.0
H3506 H 0.39848 0.63975 0.18847 0.0
H3507 H 0.46621 0.63759 0.07273 0.0
H3508 H 0.45198 0.65648 0.094 0.0
H3509 H 0.41758 0.62913 0.10253 0.0
H3510 H 0.4316 0.61028 0.08135 0.0
H3511 H 0.42246 0.64418 0.1632 0.0
H3512 H 0.41893 0.65154 0.03735 0.0
H3513 H 0.42829 0.65592 0.97837 0.0
H3514 H 0.44654 0.69318 0.01511 0.0
H3515 H 0.43743 0.68892 0.07447 0.0
C3516 C 0.37166 0.68577 0.17042 0.0
C3517 C 0.37309 0.70004 0.1723 0.0
C3518 C 0.38275 0.67756 0.16147 0.0
C3519 C 0.39556 0.68339 0.15456 0.0
C3520 C 0.3971 0.69763 0.15663 0.0
C3521 C 0.38596 0.7059 0.16558 0.0
C3522 C 0.40704 0.6745 0.14357 0.0
C3523 C 0.41318 0.67684 0.11082 0.0
C3524 C 0.41076 0.66281 0.16322 0.0
C3525 C 0.40545 0.66037 0.19919 0.0
C3526 C 0.40645 0.6706 0.225 0.0
C3527 C 0.40136 0.66831 0.25875 0.0
C3528 C 0.39531 0.65579 0.26709 0.0
C3529 C 0.39436 0.64553 0.24171 0.0
C3530 C 0.39942 0.64778 0.20791 0.0
C3531 C 0.45557 0.63564 0.07874 0.0
C3532 C 0.45004 0.62242 0.07544 0.0
C3533 C 0.44748 0.64644 0.09088 0.0
C3534 C 0.43377 0.64415 0.09993 0.0
C3535 C 0.42817 0.63106 0.09585 0.0
C3536 C 0.4362 0.62032 0.08358 0.0
C3537 C 0.42523 0.65518 0.11484 0.0
C3538 C 0.41972 0.65325 0.14843 0.0
C3539 C 0.42219 0.66727 0.09609 0.0
C3540 C 0.42765 0.66982 0.06043 0.0
C3541 C 0.42505 0.6606 0.03293 0.0
C3542 C 0.43029 0.66308 0.99942 0.0
C3543 C 0.43805 0.6748 0.99302 0.0
C3544 C 0.44055 0.68409 0.02011 0.0
C3545 C 0.43535 0.68165 0.05369 0.0
H3546 H 0.44209 0.67671 0.96706 0.0
H3547 H 0.39138 0.65403 0.29324 0.0
H3548 H 0.0298 0.63631 0.91063 0.0
H3549 H 0.04427 0.65584 0.89503 0.0
H3550 H 0.08007 0.63309 0.92572 0.0
H3551 H 0.06576 0.61361 0.94134 0.0
H3552 H 0.08134 0.66008 0.94656 0.0
H3553 H 0.0715 0.63369 0.84277 0.0
H3554 H 0.05621 0.62246 0.80017 0.0
H3555 H 0.03806 0.66121 0.77516 0.0
H3556 H 0.05309 0.67262 0.81809 0.0
H3557 H 0.13691 0.6829 0.84706 0.0
H3558 H 0.11779 0.6692 0.86816 0.0
H3559 H 0.08983 0.70165 0.84178 0.0
H3560 H 0.10903 0.71565 0.82097 0.0
H3561 H 0.08195 0.67324 0.82079 0.0
H3562 H 0.09545 0.69978 0.92052 0.0
H3563 H 0.11189 0.70977 0.96229 0.0
H3564 H 0.12437 0.66958 0.99408 0.0
H3565 H 0.10817 0.65934 0.95204 0.0
C3566 C 0.04074 0.63555 0.91453 0.0
C3567 C 0.04667 0.62339 0.92692 0.0
C3568 C 0.04897 0.64669 0.90554 0.0
C3569 C 0.06323 0.64584 0.909 0.0
C3570 C 0.06909 0.63395 0.92292 0.0
C3571 C 0.0609 0.6228 0.93163 0.0
C3572 C 0.07221 0.65686 0.89583 0.0
C3573 C 0.08146 0.66298 0.9191 0.0
C3574 C 0.07221 0.66076 0.86008 0.0
C3575 C 0.06328 0.65398 0.83393 0.0
C3576 C 0.06416 0.63979 0.82838 0.0
C3577 C 0.05556 0.63339 0.80417 0.0
C3578 C 0.04613 0.6411 0.78506 0.0
C3579 C 0.04533 0.65523 0.79004 0.0
C3580 C 0.05389 0.66168 0.81432 0.0
C3581 C 0.1267 0.68712 0.84541 0.0
C3582 C 0.12448 0.70038 0.83244 0.0
C3583 C 0.1158 0.67929 0.85761 0.0
C3584 C 0.10247 0.6845 0.85677 0.0
C3585 C 0.10009 0.69752 0.84269 0.0
C3586 C 0.11105 0.70548 0.83089 0.0
C3587 C 0.09119 0.67629 0.87145 0.0
C3588 C 0.08157 0.67062 0.84842 0.0
C3589 C 0.09096 0.67269 0.90736 0.0
C3590 C 0.10065 0.67879 0.93292 0.0
C3591 C 0.10178 0.69307 0.9362 0.0
C3592 C 0.11104 0.69878 0.95996 0.0
C3593 C 0.11919 0.69031 0.98078 0.0
C3594 C 0.11806 0.67612 0.97792 0.0
C3595 C 0.10882 0.67036 0.95415 0.0
H3596 H 0.12635 0.69475 0.99918 0.0
H3597 H 0.03951 0.6361 0.76633 0.0
H3598 H 0.03121 0.36028 0.58339 0.0
H3599 H 0.04557 0.3414 0.60391 0.0
H3600 H 0.08168 0.36464 0.57846 0.0
H3601 H 0.06749 0.38344 0.55771 0.0
H3602 H 0.08447 0.33789 0.56063 0.0
H3603 H 0.06912 0.36449 0.66045 0.0
H3604 H 0.05172 0.37476 0.69912 0.0
H3605 H 0.03558 0.33494 0.7219 0.0
H3606 H 0.05276 0.32444 0.68285 0.0
H3607 H 0.13755 0.31898 0.67194 0.0
H3608 H 0.11816 0.33173 0.64876 0.0
H3609 H 0.09177 0.29721 0.66725 0.0
H3610 H 0.11126 0.28415 0.69011 0.0
H3611 H 0.08135 0.3257 0.68679 0.0
H3612 H 0.09913 0.29904 0.5918 0.0
H3613 H 0.11742 0.28942 0.55482 0.0
H3614 H 0.12952 0.32985 0.52401 0.0
H3615 H 0.11146 0.33973 0.56136 0.0
C3616 C 0.04221 0.36128 0.58166 0.0
C3617 C 0.04822 0.3734 0.56918 0.0
C3618 C 0.05038 0.35051 0.59353 0.0
C3619 C 0.06467 0.35171 0.59307 0.0
C3620 C 0.07067 0.36352 0.57906 0.0
C3621 C 0.06253 0.37428 0.56733 0.0
C3622 C 0.0735 0.3411 0.60893 0.0
C3623 C 0.08377 0.3352 0.58818 0.0
C3624 C 0.07237 0.33739 0.64474 0.0
C3625 C 0.0621 0.34369 0.66836 0.0
C3626 C 0.06178 0.35793 0.67345 0.0
C3627 C 0.05197 0.36379 0.69548 0.0
C3628 C 0.04252 0.35551 0.71287 0.0
C3629 C 0.04289 0.34134 0.70834 0.0
C3630 C 0.05265 0.33543 0.68626 0.0
C3631 C 0.12761 0.31411 0.67161 0.0
C3632 C 0.12596 0.30051 0.68267 0.0
C3633 C 0.11655 0.32142 0.65827 0.0
C3634 C 0.10362 0.31533 0.65609 0.0
C3635 C 0.10172 0.30202 0.66875 0.0
C3636 C 0.11285 0.2946 0.6817 0.0
C3637 C 0.09243 0.32278 0.63861 0.0
C3638 C 0.08179 0.32812 0.65905 0.0
C3639 C 0.09322 0.32603 0.60255 0.0
C3640 C 0.10399 0.32013 0.57963 0.0
C3641 C 0.10576 0.30589 0.57739 0.0
C3642 C 0.11608 0.30038 0.55632 0.0
C3643 C 0.12464 0.30901 0.53713 0.0
C3644 C 0.12288 0.32317 0.53891 0.0
C3645 C 0.11259 0.32873 0.56001 0.0
H3646 H 0.13262 0.30473 0.52083 0.0
H3647 H 0.03495 0.36007 0.72993 0.0
loop_
_geom_bond_atom_site_label_1
_geom_bond_atom_site_label_2
_geom_bond_distance
_geom_bond_site_symmetry_2
_ccdc_geom_bond_type
C0 O2 1.247 1_556 S
C0 O4 1.317 1_556 S
C1 O8 1.247 1_455 S
C1 O9 1.258 . S
O2 C0 1.247 1_554 S
O2 Zn3 2.028 . S
Zn3 O2 2.028 . S
Zn3 O7 2.035 . S
Zn3 O9 2.035 . S
Zn3 O10 2.028 . S
O4 C0 1.317 1_554 S
O4 Zn5 2.022 1_455 S
Zn5 O4 2.022 1_655 S
Zn5 O6 2.028 1_655 S
Zn5 O8 2.028 . S
Zn5 O11 2.035 . S
O6 Zn5 2.028 1_455 S
O6 C12 1.247 . S
O7 Zn3 2.035 . S
O7 C12 1.258 . S
O8 C1 1.247 1_655 S
O8 Zn5 2.028 . S
O9 C1 1.258 . S
O9 Zn3 2.035 . S
O10 Zn3 2.028 . S
O10 C13 1.181 1_455 S
O11 Zn5 2.035 . S
O11 C13 1.300 . S
C12 O6 1.247 . S
C12 O7 1.258 . S
C13 O10 1.181 1_655 S
C13 O11 1.300 . S
C14 O16 1.247 . S
C14 O18 1.258 . S
C15 O22 1.247 . S
C15 O23 1.258 . S
O16 C14 1.247 . S
O16 Zn17 2.028 . S
Zn17 O16 2.028 . S
Zn17 O21 2.035 . S
Zn17 O23 2.035 . S
Zn17 O24 2.028 . S
O18 C14 1.258 . S
O18 Zn19 2.035 . S
Zn19 O18 2.035 . S
Zn19 O20 2.028 . S
Zn19 O22 2.028 . S
Zn19 O25 2.035 . S
O20 Zn19 2.028 . S
O20 C26 1.247 . S
O21 Zn17 2.035 . S
O21 C26 1.258 . S
O22 C15 1.247 . S
O22 Zn19 2.028 . S
O23 C15 1.258 . S
O23 Zn17 2.035 . S
O24 Zn17 2.028 . S
O24 C27 1.247 . S
O25 Zn19 2.035 . S
O25 C27 1.258 . S
C26 O20 1.247 . S
C26 O21 1.258 . S
C27 O24 1.247 . S
C27 O25 1.258 . S
C28 O30 1.247 . S
C28 O32 1.258 . S
C29 O36 1.247 . S
C29 O37 1.258 . S
O30 C28 1.247 . S
O30 Zn31 2.028 . S
Zn31 O30 2.028 . S
Zn31 O35 2.035 . S
Zn31 O37 2.035 . S
Zn31 O38 2.028 . S
O32 C28 1.258 . S
O32 Zn33 2.035 . S
Zn33 O32 2.035 . S
Zn33 O34 2.028 . S
Zn33 O36 2.028 . S
Zn33 O39 2.035 . S
O34 Zn33 2.028 . S
O34 C40 1.247 . S
O35 Zn31 2.035 . S
O35 C40 1.258 . S
O36 C29 1.247 . S
O36 Zn33 2.028 . S
O37 C29 1.258 . S
O37 Zn31 2.035 . S
O38 Zn31 2.028 . S
O38 C41 1.247 . S
O39 Zn33 2.035 . S
O39 C41 1.258 . S
C40 O34 1.247 . S
C40 O35 1.258 . S
C41 O38 1.247 . S
C41 O39 1.258 . S
C42 O44 1.247 . S
C42 O46 1.258 . S
C43 O50 1.247 . S
C43 O51 1.258 . S
O44 C42 1.247 . S
O44 Zn45 2.028 . S
Zn45 O44 2.028 . S
Zn45 O49 2.035 . S
Zn45 O51 2.035 . S
Zn45 O52 2.028 . S
O46 C42 1.258 . S
O46 Zn47 2.035 . S
Zn47 O46 2.035 . S
Zn47 O48 2.028 . S
Zn47 O50 2.028 . S
Zn47 O53 2.035 . S
O48 Zn47 2.028 . S
O48 C54 1.247 . S
O49 Zn45 2.035 . S
O49 C54 1.258 . S
O50 C43 1.247 . S
O50 Zn47 2.028 . S
O51 C43 1.258 . S
O51 Zn45 2.035 . S
O52 Zn45 2.028 . S
O52 C55 1.247 . S
O53 Zn47 2.035 . S
O53 C55 1.258 . S
C54 O48 1.247 . S
C54 O49 1.258 . S
C55 O52 1.247 . S
C55 O53 1.258 . S
C56 O58 1.247 . S
C56 O60 1.258 . S
C57 O64 1.180 1_655 S
C57 O65 1.301 . S
O58 C56 1.247 . S
O58 Zn59 2.028 1_455 S
Zn59 O58 2.028 1_655 S
Zn59 O63 2.022 1_655 S
Zn59 O65 2.035 . S
Zn59 O66 2.028 . S
O60 C56 1.258 . S
O60 Zn61 2.035 . S
Zn61 O60 2.035 . S
Zn61 O62 2.028 . S
Zn61 O64 2.028 . S
Zn61 O67 2.035 . S
O62 Zn61 2.028 . S
O62 C68 1.247 . S
O63 Zn59 2.022 1_455 S
O63 C68 1.317 . S
O64 C57 1.180 1_455 S
O64 Zn61 2.028 . S
O65 C57 1.301 . S
O65 Zn59 2.035 . S
O66 Zn59 2.028 . S
O66 C69 1.247 1_655 S
O67 Zn61 2.035 . S
O67 C69 1.258 . S
C68 O62 1.247 . S
C68 O63 1.317 . S
C69 O66 1.247 1_455 S
C69 O67 1.258 . S
C70 O72 1.247 . S
C70 O74 1.258 . S
C71 O78 1.247 . S
C71 O79 1.258 . S
O72 C70 1.247 . S
O72 Zn73 2.028 . S
Zn73 O72 2.028 . S
Zn73 O77 2.035 . S
Zn73 O79 2.035 . S
Zn73 O80 2.028 . S
O74 C70 1.258 . S
O74 Zn75 2.035 . S
Zn75 O74 2.035 . S
Zn75 O76 2.028 . S
Zn75 O78 2.028 . S
Zn75 O81 2.035 . S
O76 Zn75 2.028 . S
O76 C82 1.247 . S
O77 Zn73 2.035 . S
O77 C82 1.258 . S
O78 C71 1.247 . S
O78 Zn75 2.028 . S
O79 C71 1.258 . S
O79 Zn73 2.035 . S
O80 Zn73 2.028 . S
O80 C83 1.247 . S
O81 Zn75 2.035 . S
O81 C83 1.258 . S
C82 O76 1.247 . S
C82 O77 1.258 . S
C83 O80 1.247 . S
C83 O81 1.258 . S
C84 O86 1.247 1_554 S
C84 O88 1.258 1_554 S
C85 O92 1.247 . S
C85 O93 1.258 . S
O86 C84 1.247 1_556 S
O86 Zn87 2.028 . S
Zn87 O86 2.028 . S
Zn87 O91 2.035 . S
Zn87 O93 2.035 . S
Zn87 O94 2.028 . S
O88 C84 1.258 1_556 S
O88 Zn89 2.035 . S
Zn89 O88 2.035 . S
Zn89 O90 2.028 . S
Zn89 O92 2.028 . S
Zn89 O95 2.035 . S
O90 Zn89 2.028 . S
O90 C96 1.247 . S
O91 Zn87 2.035 . S
O91 C96 1.258 . S
O92 C85 1.247 . S
O92 Zn89 2.028 . S
O93 C85 1.258 . S
O93 Zn87 2.035 . S
O94 Zn87 2.028 . S
O94 C97 1.247 . S
O95 Zn89 2.035 . S
O95 C97 1.258 . S
C96 O90 1.247 . S
C96 O91 1.258 . S
C97 O94 1.247 . S
C97 O95 1.258 . S
C98 O100 1.247 . S
C98 O102 1.258 . S
C99 O106 1.247 . S
C99 O107 1.258 . S
O100 C98 1.247 . S
O100 Zn101 2.028 . S
Zn101 O100 2.028 . S
Zn101 O105 2.035 . S
Zn101 O107 2.035 . S
Zn101 O108 2.028 . S
O102 C98 1.258 . S
O102 Zn103 2.035 . S
Zn103 O102 2.035 . S
Zn103 O104 2.028 . S
Zn103 O106 2.028 . S
Zn103 O109 2.035 . S
O104 Zn103 2.028 . S
O104 C110 1.247 . S
O105 Zn101 2.035 . S
O105 C110 1.258 . S
O106 C99 1.247 . S
O106 Zn103 2.028 . S
O107 C99 1.258 . S
O107 Zn101 2.035 . S
O108 Zn101 2.028 . S
O108 C111 1.247 . S
O109 Zn103 2.035 . S
O109 C111 1.258 . S
C110 O104 1.247 . S
C110 O105 1.258 . S
C111 O108 1.247 . S
C111 O109 1.258 . S
C112 O114 1.310 1_554 S
C112 O116 1.258 1_554 S
C113 O120 1.247 . S
C113 O121 1.258 1_655 S
O114 C112 1.310 1_556 S
O114 Zn115 2.013 1_655 S
Zn115 O114 2.013 1_455 S
Zn115 O119 2.035 1_455 S
Zn115 O121 2.035 . S
Zn115 O122 2.028 . S
O116 C112 1.258 1_556 S
O116 Zn117 2.035 . S
Zn117 O116 2.035 . S
Zn117 O118 2.028 . S
Zn117 O120 2.028 . S
Zn117 O123 2.035 . S
O118 Zn117 2.028 . S
O118 C124 1.247 . S
O119 Zn115 2.035 1_655 S
O119 C124 1.258 . S
O120 C113 1.247 . S
O120 Zn117 2.028 . S
O121 C113 1.258 1_455 S
O121 Zn115 2.035 . S
O122 Zn115 2.028 . S
O122 C125 1.295 . S
O123 Zn117 2.035 . S
O123 C125 1.183 1_655 S
C124 O118 1.247 . S
C124 O119 1.258 . S
C125 O122 1.295 . S
C125 O123 1.183 1_455 S
C126 O128 1.247 . S
C126 O130 1.258 . S
C127 O134 1.247 . S
C127 O135 1.258 . S
O128 C126 1.247 . S
O128 Zn129 2.028 . S
Zn129 O128 2.028 . S
Zn129 O133 2.035 . S
Zn129 O135 2.035 . S
Zn129 O136 2.028 . S
O130 C126 1.258 . S
O130 Zn131 2.035 . S
Zn131 O130 2.035 . S
Zn131 O132 2.028 . S
Zn131 O134 2.028 . S
Zn131 O137 2.035 . S
O132 Zn131 2.028 . S
O132 C138 1.247 . S
O133 Zn129 2.035 . S
O133 C138 1.258 . S
O134 C127 1.247 . S
O134 Zn131 2.028 . S
O135 C127 1.258 . S
O135 Zn129 2.035 . S
O136 Zn129 2.028 . S
O136 C139 1.247 . S
O137 Zn131 2.035 . S
O137 C139 1.258 . S
C138 O132 1.247 . S
C138 O133 1.258 . S
C139 O136 1.247 . S
C139 O137 1.258 . S
C140 O142 1.247 . S
C140 O144 1.258 . S
C141 O148 1.247 . S
C141 O149 1.258 . S
O142 C140 1.247 . S
O142 Zn143 2.028 . S
Zn143 O142 2.028 . S
Zn143 O147 2.035 . S
Zn143 O149 2.035 . S
Zn143 O150 2.028 . S
O144 C140 1.258 . S
O144 Zn145 2.035 . S
Zn145 O144 2.035 . S
Zn145 O146 2.028 . S
Zn145 O148 2.028 . S
Zn145 O151 2.035 . S
O146 Zn145 2.028 . S
O146 C152 1.247 . S
O147 Zn143 2.035 . S
O147 C152 1.258 . S
O148 C141 1.247 . S
O148 Zn145 2.028 . S
O149 C141 1.258 . S
O149 Zn143 2.035 . S
O150 Zn143 2.028 . S
O150 C153 1.247 . S
O151 Zn145 2.035 . S
O151 C153 1.258 . S
C152 O146 1.247 . S
C152 O147 1.258 . S
C153 O150 1.247 . S
C153 O151 1.258 . S
C154 O156 1.247 . S
C154 O158 1.258 . S
C155 O162 1.247 . S
C155 O163 1.258 . S
O156 C154 1.247 . S
O156 Zn157 2.028 . S
Zn157 O156 2.028 . S
Zn157 O161 2.035 . S
Zn157 O163 2.035 . S
Zn157 O164 2.028 . S
O158 C154 1.258 . S
O158 Zn159 2.035 . S
Zn159 O158 2.035 . S
Zn159 O160 2.028 . S
Zn159 O162 2.028 . S
Zn159 O165 2.035 . S
O160 Zn159 2.028 . S
O160 C166 1.247 . S
O161 Zn157 2.035 . S
O161 C166 1.258 . S
O162 C155 1.247 . S
O162 Zn159 2.028 . S
O163 C155 1.258 . S
O163 Zn157 2.035 . S
O164 Zn157 2.028 . S
O164 C167 1.247 . S
O165 Zn159 2.035 . S
O165 C167 1.258 . S
C166 O160 1.247 . S
C166 O161 1.258 . S
C167 O164 1.247 . S
C167 O165 1.258 . S
C168 O170 1.247 . S
C168 O172 1.258 . S
C169 O176 1.295 . S
C169 O177 1.183 1_455 S
O170 C168 1.247 . S
O170 Zn171 2.028 . S
Zn171 O170 2.028 . S
Zn171 O175 2.035 . S
Zn171 O177 2.035 . S
Zn171 O178 2.028 . S
O172 C168 1.258 . S
O172 Zn173 2.035 1_655 S
Zn173 O172 2.035 1_455 S
Zn173 O174 2.013 1_455 S
Zn173 O176 2.028 . S
Zn173 O179 2.035 . S
O174 Zn173 2.013 1_655 S
O174 C180 1.309 . S
O175 Zn171 2.035 . S
O175 C180 1.258 . S
O176 C169 1.295 . S
O176 Zn173 2.028 . S
O177 C169 1.183 1_655 S
O177 Zn171 2.035 . S
O178 Zn171 2.028 . S
O178 C181 1.247 . S
O179 Zn173 2.035 . S
O179 C181 1.258 1_455 S
C180 O174 1.309 . S
C180 O175 1.258 . S
C181 O178 1.247 . S
C181 O179 1.258 1_655 S
C182 O184 1.247 . S
C182 O186 1.258 . S
C183 O190 1.247 . S
C183 O191 1.258 . S
O184 C182 1.247 . S
O184 Zn185 2.028 . S
Zn185 O184 2.028 . S
Zn185 O189 2.035 . S
Zn185 O191 2.035 . S
Zn185 O192 2.028 . S
O186 C182 1.258 . S
O186 Zn187 2.035 . S
Zn187 O186 2.035 . S
Zn187 O188 2.028 . S
Zn187 O190 2.028 . S
Zn187 O193 2.035 . S
O188 Zn187 2.028 . S
O188 C194 1.247 . S
O189 Zn185 2.035 . S
O189 C194 1.258 . S
O190 C183 1.247 . S
O190 Zn187 2.028 . S
O191 C183 1.258 . S
O191 Zn185 2.035 . S
O192 Zn185 2.028 . S
O192 C195 1.247 . S
O193 Zn187 2.035 . S
O193 C195 1.258 . S
C194 O188 1.247 . S
C194 O189 1.258 . S
C195 O192 1.247 . S
C195 O193 1.258 . S
C196 O198 1.247 . S
C196 O200 1.258 . S
C197 O204 1.247 1_556 S
C197 O205 1.258 1_556 S
O198 C196 1.247 . S
O198 Zn199 2.028 . S
Zn199 O198 2.028 . S
Zn199 O203 2.035 . S
Zn199 O205 2.035 . S
Zn199 O206 2.028 . S
O200 C196 1.258 . S
O200 Zn201 2.035 . S
Zn201 O200 2.035 . S
Zn201 O202 2.028 . S
Zn201 O204 2.028 . S
Zn201 O207 2.035 . S
O202 Zn201 2.028 . S
O202 C208 1.247 . S
O203 Zn199 2.035 . S
O203 C208 1.258 . S
O204 C197 1.247 1_554 S
O204 Zn201 2.028 . S
O205 C197 1.258 1_554 S
O205 Zn199 2.035 . S
O206 Zn199 2.028 . S
O206 C209 1.247 . S
O207 Zn201 2.035 . S
O207 C209 1.258 . S
C208 O202 1.247 . S
C208 O203 1.258 . S
C209 O206 1.247 . S
C209 O207 1.258 . S
C210 O212 1.247 . S
C210 O214 1.258 . S
C211 O218 1.247 . S
C211 O219 1.258 . S
O212 C210 1.247 . S
O212 Zn213 2.028 . S
Zn213 O212 2.028 . S
Zn213 O217 2.035 . S
Zn213 O219 2.035 . S
Zn213 O220 2.028 . S
O214 C210 1.258 . S
O214 Zn215 2.035 . S
Zn215 O214 2.035 . S
Zn215 O216 2.028 . S
Zn215 O218 2.028 . S
Zn215 O221 2.035 . S
O216 Zn215 2.028 . S
O216 C222 1.247 . S
O217 Zn213 2.035 . S
O217 C222 1.258 . S
O218 C211 1.247 . S
O218 Zn215 2.028 . S
O219 C211 1.258 . S
O219 Zn213 2.035 . S
O220 Zn213 2.028 . S
O220 C223 1.247 . S
O221 Zn215 2.035 . S
O221 C223 1.258 . S
C222 O216 1.247 . S
C222 O217 1.258 . S
C223 O220 1.247 . S
C223 O221 1.258 . S
C224 O226 1.247 . S
C224 O228 1.258 . S
C225 O232 1.247 . S
C225 O233 1.258 . S
O226 C224 1.247 . S
O226 Zn227 2.028 . S
Zn227 O226 2.028 . S
Zn227 O231 2.035 . S
Zn227 O233 2.035 . S
Zn227 O234 2.028 . S
O228 C224 1.258 . S
O228 Zn229 2.035 . S
Zn229 O228 2.035 . S
Zn229 O230 2.028 . S
Zn229 O232 2.028 . S
Zn229 O235 2.035 . S
O230 Zn229 2.028 . S
O230 C236 1.247 . S
O231 Zn227 2.035 . S
O231 C236 1.258 . S
O232 C225 1.247 . S
O232 Zn229 2.028 . S
O233 C225 1.258 . S
O233 Zn227 2.035 . S
O234 Zn227 2.028 . S
O234 C237 1.247 . S
O235 Zn229 2.035 . S
O235 C237 1.258 . S
C236 O230 1.247 . S
C236 O231 1.258 . S
C237 O234 1.247 . S
C237 O235 1.258 . S
C238 O240 1.247 . S
C238 O242 1.258 . S
C239 O246 1.247 . S
C239 O247 1.258 . S
O240 C238 1.247 . S
O240 Zn241 2.028 . S
Zn241 O240 2.028 . S
Zn241 O245 2.035 . S
Zn241 O247 2.035 . S
Zn241 O248 2.028 . S
O242 C238 1.258 . S
O242 Zn243 2.035 . S
Zn243 O242 2.035 . S
Zn243 O244 2.028 . S
Zn243 O246 2.028 . S
Zn243 O249 2.035 . S
O244 Zn243 2.028 . S
O244 C250 1.247 . S
O245 Zn241 2.035 . S
O245 C250 1.258 . S
O246 C239 1.247 . S
O246 Zn243 2.028 . S
O247 C239 1.258 . S
O247 Zn241 2.035 . S
O248 Zn241 2.028 . S
O248 C251 1.247 . S
O249 Zn243 2.035 . S
O249 C251 1.258 . S
C250 O244 1.247 . S
C250 O245 1.258 . S
C251 O248 1.247 . S
C251 O249 1.258 . S
C252 O254 1.247 1_556 S
C252 O256 1.317 1_556 S
C253 O260 1.247 1_655 S
C253 O261 1.258 . S
O254 C252 1.247 1_554 S
O254 Zn255 2.028 . S
Zn255 O254 2.028 . S
Zn255 O259 2.035 . S
Zn255 O261 2.035 . S
Zn255 O262 2.028 . S
O256 C252 1.317 1_554 S
O256 Zn257 2.022 1_655 S
Zn257 O256 2.022 1_455 S
Zn257 O258 2.028 1_455 S
Zn257 O260 2.028 . S
Zn257 O263 2.035 . S
O258 Zn257 2.028 1_655 S
O258 C264 1.247 . S
O259 Zn255 2.035 . S
O259 C264 1.258 . S
O260 C253 1.247 1_455 S
O260 Zn257 2.028 . S
O261 C253 1.258 . S
O261 Zn255 2.035 . S
O262 Zn255 2.028 . S
O262 C265 1.181 1_655 S
O263 Zn257 2.035 . S
O263 C265 1.301 . S
C264 O258 1.247 . S
C264 O259 1.258 . S
C265 O262 1.181 1_455 S
C265 O263 1.301 . S
C266 O268 1.247 . S
C266 O270 1.258 . S
C267 O274 1.247 . S
C267 O275 1.258 . S
O268 C266 1.247 . S
O268 Zn269 2.028 . S
Zn269 O268 2.028 . S
Zn269 O273 2.035 . S
Zn269 O275 2.035 . S
Zn269 O276 2.028 . S
O270 C266 1.258 . S
O270 Zn271 2.035 . S
Zn271 O270 2.035 . S
Zn271 O272 2.028 . S
Zn271 O274 2.028 . S
Zn271 O277 2.035 . S
O272 Zn271 2.028 . S
O272 C278 1.247 . S
O273 Zn269 2.035 . S
O273 C278 1.258 . S
O274 C267 1.247 . S
O274 Zn271 2.028 . S
O275 C267 1.258 . S
O275 Zn269 2.035 . S
O276 Zn269 2.028 . S
O276 C279 1.247 . S
O277 Zn271 2.035 . S
O277 C279 1.258 . S
C278 O272 1.247 . S
C278 O273 1.258 . S
C279 O276 1.247 . S
C279 O277 1.258 . S
C280 O282 1.247 1_554 S
C280 O284 1.258 1_554 S
C281 O288 1.247 . S
C281 O289 1.258 . S
O282 C280 1.247 1_556 S
O282 Zn283 2.028 . S
Zn283 O282 2.028 . S
Zn283 O287 2.035 . S
Zn283 O289 2.035 . S
Zn283 O290 2.028 . S
O284 C280 1.258 1_556 S
O284 Zn285 2.035 . S
Zn285 O284 2.035 . S
Zn285 O286 2.028 . S
Zn285 O288 2.028 . S
Zn285 O291 2.035 . S
O286 Zn285 2.028 . S
O286 C292 1.247 . S
O287 Zn283 2.035 . S
O287 C292 1.258 . S
O288 C281 1.247 . S
O288 Zn285 2.028 . S
O289 C281 1.258 . S
O289 Zn283 2.035 . S
O290 Zn283 2.028 . S
O290 C293 1.247 . S
O291 Zn285 2.035 . S
O291 C293 1.258 . S
C292 O286 1.247 . S
C292 O287 1.258 . S
C293 O290 1.247 . S
C293 O291 1.258 . S
C294 O296 1.247 . S
C294 O298 1.258 . S
C295 O302 1.247 . S
C295 O303 1.258 . S
O296 C294 1.247 . S
O296 Zn297 2.028 . S
Zn297 O296 2.028 . S
Zn297 O301 2.035 . S
Zn297 O303 2.035 . S
Zn297 O304 2.028 . S
O298 C294 1.258 . S
O298 Zn299 2.035 . S
Zn299 O298 2.035 . S
Zn299 O300 2.028 . S
Zn299 O302 2.028 . S
Zn299 O305 2.035 . S
O300 Zn299 2.028 . S
O300 C306 1.247 . S
O301 Zn297 2.035 . S
O301 C306 1.258 . S
O302 C295 1.247 . S
O302 Zn299 2.028 . S
O303 C295 1.258 . S
O303 Zn297 2.035 . S
O304 Zn297 2.028 . S
O304 C307 1.247 . S
O305 Zn299 2.035 . S
O305 C307 1.258 . S
C306 O300 1.247 . S
C306 O301 1.258 . S
C307 O304 1.247 . S
C307 O305 1.258 . S
C308 O310 1.247 . S
C308 O312 1.258 . S
C309 O316 1.181 1_455 S
C309 O317 1.300 . S
O310 C308 1.247 . S
O310 Zn311 2.028 1_655 S
Zn311 O310 2.028 1_455 S
Zn311 O315 2.022 1_455 S
Zn311 O317 2.035 . S
Zn311 O318 2.028 . S
O312 C308 1.258 . S
O312 Zn313 2.035 . S
Zn313 O312 2.035 . S
Zn313 O314 2.028 . S
Zn313 O316 2.028 . S
Zn313 O319 2.035 . S
O314 Zn313 2.028 . S
O314 C320 1.247 . S
O315 Zn311 2.022 1_655 S
O315 C320 1.317 . S
O316 C309 1.181 1_655 S
O316 Zn313 2.028 . S
O317 C309 1.300 . S
O317 Zn311 2.035 . S
O318 Zn311 2.028 . S
O318 C321 1.247 1_455 S
O319 Zn313 2.035 . S
O319 C321 1.258 . S
C320 O314 1.247 . S
C320 O315 1.317 . S
C321 O318 1.247 1_655 S
C321 O319 1.258 . S
C322 O324 1.247 . S
C322 O326 1.258 . S
C323 O330 1.247 . S
C323 O331 1.258 . S
O324 C322 1.247 . S
O324 Zn325 2.028 . S
Zn325 O324 2.028 . S
Zn325 O329 2.035 . S
Zn325 O331 2.035 . S
Zn325 O332 2.028 . S
O326 C322 1.258 . S
O326 Zn327 2.035 . S
Zn327 O326 2.035 . S
Zn327 O328 2.028 . S
Zn327 O330 2.028 . S
Zn327 O333 2.035 . S
O328 Zn327 2.028 . S
O328 C334 1.247 . S
O329 Zn325 2.035 . S
O329 C334 1.258 . S
O330 C323 1.247 . S
O330 Zn327 2.028 . S
O331 C323 1.258 . S
O331 Zn325 2.035 . S
O332 Zn325 2.028 . S
O332 C335 1.247 . S
O333 Zn327 2.035 . S
O333 C335 1.258 . S
C334 O328 1.247 . S
C334 O329 1.258 . S
C335 O332 1.247 . S
C335 O333 1.258 . S
C336 O338 1.247 . S
C336 O340 1.258 . S
C337 O344 1.247 . S
C337 O345 1.258 . S
O338 C336 1.247 . S
O338 Zn339 2.028 . S
Zn339 O338 2.028 . S
Zn339 O343 2.035 . S
Zn339 O345 2.035 . S
Zn339 O346 2.028 . S
O340 C336 1.258 . S
O340 Zn341 2.035 . S
Zn341 O340 2.035 . S
Zn341 O342 2.028 . S
Zn341 O344 2.028 . S
Zn341 O347 2.035 . S
O342 Zn341 2.028 . S
O342 C348 1.247 . S
O343 Zn339 2.035 . S
O343 C348 1.258 . S
O344 C337 1.247 . S
O344 Zn341 2.028 . S
O345 C337 1.258 . S
O345 Zn339 2.035 . S
O346 Zn339 2.028 . S
O346 C349 1.247 . S
O347 Zn341 2.035 . S
O347 C349 1.258 . S
C348 O342 1.247 . S
C348 O343 1.258 . S
C349 O346 1.247 . S
C349 O347 1.258 . S
C350 O352 1.247 . S
C350 O354 1.258 . S
C351 O358 1.247 . S
C351 O359 1.258 . S
O352 C350 1.247 . S
O352 Zn353 2.028 . S
Zn353 O352 2.028 . S
Zn353 O357 2.035 . S
Zn353 O359 2.035 . S
Zn353 O360 2.028 . S
O354 C350 1.258 . S
O354 Zn355 2.035 . S
Zn355 O354 2.035 . S
Zn355 O356 2.028 . S
Zn355 O358 2.028 . S
Zn355 O361 2.035 . S
O356 Zn355 2.028 . S
O356 C362 1.247 . S
O357 Zn353 2.035 . S
O357 C362 1.258 . S
O358 C351 1.247 . S
O358 Zn355 2.028 . S
O359 C351 1.258 . S
O359 Zn353 2.035 . S
O360 Zn353 2.028 . S
O360 C363 1.247 . S
O361 Zn355 2.035 . S
O361 C363 1.258 . S
C362 O356 1.247 . S
C362 O357 1.258 . S
C363 O360 1.247 . S
C363 O361 1.258 . S
C364 O366 1.247 . S
C364 O368 1.258 . S
C365 O372 1.295 . S
C365 O373 1.183 1_655 S
O366 C364 1.247 . S
O366 Zn367 2.028 . S
Zn367 O366 2.028 . S
Zn367 O371 2.035 . S
Zn367 O373 2.035 . S
Zn367 O374 2.028 . S
O368 C364 1.258 . S
O368 Zn369 2.035 1_455 S
Zn369 O368 2.035 1_655 S
Zn369 O370 2.013 1_655 S
Zn369 O372 2.028 . S
Zn369 O375 2.035 . S
O370 Zn369 2.013 1_455 S
O370 C376 1.310 1_556 S
O371 Zn367 2.035 . S
O371 C376 1.258 1_556 S
O372 C365 1.295 . S
O372 Zn369 2.028 . S
O373 C365 1.183 1_455 S
O373 Zn367 2.035 . S
O374 Zn367 2.028 . S
O374 C377 1.247 . S
O375 Zn369 2.035 . S
O375 C377 1.258 1_655 S
C376 O370 1.310 1_554 S
C376 O371 1.258 1_554 S
C377 O374 1.247 . S
C377 O375 1.258 1_455 S
C378 O380 1.247 . S
C378 O382 1.258 . S
C379 O386 1.247 . S
C379 O387 1.258 . S
O380 C378 1.247 . S
O380 Zn381 2.028 . S
Zn381 O380 2.028 . S
Zn381 O385 2.035 . S
Zn381 O387 2.035 . S
Zn381 O388 2.028 . S
O382 C378 1.258 . S
O382 Zn383 2.035 . S
Zn383 O382 2.035 . S
Zn383 O384 2.028 . S
Zn383 O386 2.028 . S
Zn383 O389 2.035 . S
O384 Zn383 2.028 . S
O384 C390 1.247 . S
O385 Zn381 2.035 . S
O385 C390 1.258 . S
O386 C379 1.247 . S
O386 Zn383 2.028 . S
O387 C379 1.258 . S
O387 Zn381 2.035 . S
O388 Zn381 2.028 . S
O388 C391 1.247 . S
O389 Zn383 2.035 . S
O389 C391 1.258 . S
C390 O384 1.247 . S
C390 O385 1.258 . S
C391 O388 1.247 . S
C391 O389 1.258 . S
C392 O394 1.247 . S
C392 O396 1.258 . S
C393 O400 1.247 1_556 S
C393 O401 1.258 1_556 S
O394 C392 1.247 . S
O394 Zn395 2.028 . S
Zn395 O394 2.028 . S
Zn395 O399 2.035 . S
Zn395 O401 2.035 . S
Zn395 O402 2.028 . S
O396 C392 1.258 . S
O396 Zn397 2.035 . S
Zn397 O396 2.035 . S
Zn397 O398 2.028 . S
Zn397 O400 2.028 . S
Zn397 O403 2.035 . S
O398 Zn397 2.028 . S
O398 C404 1.247 . S
O399 Zn395 2.035 . S
O399 C404 1.258 . S
O400 C393 1.247 1_554 S
O400 Zn397 2.028 . S
O401 C393 1.258 1_554 S
O401 Zn395 2.035 . S
O402 Zn395 2.028 . S
O402 C405 1.247 . S
O403 Zn397 2.035 . S
O403 C405 1.258 . S
C404 O398 1.247 . S
C404 O399 1.258 . S
C405 O402 1.247 . S
C405 O403 1.258 . S
C406 O408 1.247 . S
C406 O410 1.258 . S
C407 O414 1.247 . S
C407 O415 1.258 . S
O408 C406 1.247 . S
O408 Zn409 2.028 . S
Zn409 O408 2.028 . S
Zn409 O413 2.035 . S
Zn409 O415 2.035 . S
Zn409 O416 2.028 . S
O410 C406 1.258 . S
O410 Zn411 2.035 . S
Zn411 O410 2.035 . S
Zn411 O412 2.028 . S
Zn411 O414 2.028 . S
Zn411 O417 2.035 . S
O412 Zn411 2.028 . S
O412 C418 1.247 . S
O413 Zn409 2.035 . S
O413 C418 1.258 . S
O414 C407 1.247 . S
O414 Zn411 2.028 . S
O415 C407 1.258 . S
O415 Zn409 2.035 . S
O416 Zn409 2.028 . S
O416 C419 1.247 . S
O417 Zn411 2.035 . S
O417 C419 1.258 . S
C418 O412 1.247 . S
C418 O413 1.258 . S
C419 O416 1.247 . S
C419 O417 1.258 . S
C420 O422 1.247 . S
C420 O424 1.258 . S
C421 O428 1.295 . S
C421 O429 1.183 1_655 S
O422 C420 1.247 . S
O422 Zn423 2.028 . S
Zn423 O422 2.028 . S
Zn423 O427 2.035 . S
Zn423 O429 2.035 . S
Zn423 O430 2.028 . S
O424 C420 1.258 . S
O424 Zn425 2.035 1_455 S
Zn425 O424 2.035 1_655 S
Zn425 O426 2.013 1_655 S
Zn425 O428 2.028 . S
Zn425 O431 2.035 . S
O426 Zn425 2.013 1_455 S
O426 C432 1.309 . S
O427 Zn423 2.035 . S
O427 C432 1.258 . S
O428 C421 1.295 . S
O428 Zn425 2.028 . S
O429 C421 1.183 1_455 S
O429 Zn423 2.035 . S
O430 Zn423 2.028 . S
O430 C433 1.247 . S
O431 Zn425 2.035 . S
O431 C433 1.258 1_655 S
C432 O426 1.309 . S
C432 O427 1.258 . S
C433 O430 1.247 . S
C433 O431 1.258 1_455 S
C434 O436 1.247 . S
C434 O438 1.258 . S
C435 O442 1.247 . S
C435 O443 1.258 . S
O436 C434 1.247 . S
O436 Zn437 2.028 . S
Zn437 O436 2.028 . S
Zn437 O441 2.035 . S
Zn437 O443 2.035 . S
Zn437 O444 2.028 . S
O438 C434 1.258 . S
O438 Zn439 2.035 . S
Zn439 O438 2.035 . S
Zn439 O440 2.028 . S
Zn439 O442 2.028 . S
Zn439 O445 2.035 . S
O440 Zn439 2.028 . S
O440 C446 1.247 . S
O441 Zn437 2.035 . S
O441 C446 1.258 . S
O442 C435 1.247 . S
O442 Zn439 2.028 . S
O443 C435 1.258 . S
O443 Zn437 2.035 . S
O444 Zn437 2.028 . S
O444 C447 1.247 . S
O445 Zn439 2.035 . S
O445 C447 1.258 . S
C446 O440 1.247 . S
C446 O441 1.258 . S
C447 O444 1.247 . S
C447 O445 1.258 . S
H448 C466 0.951 . S
H449 C468 0.951 . S
H450 C470 0.950 . S
H451 C471 0.950 . S
H452 C473 0.950 . S
H453 C476 0.950 1_655 S
H454 C477 0.950 . S
H455 C479 0.950 . S
H456 C480 0.950 . S
H457 C481 0.951 . S
H458 C483 0.951 . S
H459 C485 0.950 . S
H460 C486 0.950 . S
H461 C488 0.950 . S
H462 C491 0.950 1_455 S
H463 C492 0.950 . S
H464 C494 0.950 . S
H465 C495 0.950 . S
C466 H448 0.951 . S
C466 C467 1.366 1_455 S
C466 C468 1.388 . S
C467 C466 1.366 1_655 S
C467 C471 1.385 . S
C468 H449 0.951 . S
C468 C466 1.388 . S
C468 C469 1.366 1_455 S
C469 C468 1.366 1_655 S
C469 C470 1.414 . S
C469 C472 1.499 . S
C470 H450 0.950 . S
C470 C469 1.414 . S
C470 C471 1.374 . S
C471 H451 0.950 . S
C471 C467 1.385 . S
C471 C470 1.374 . S
C472 C469 1.499 . S
C472 C473 1.373 . S
C472 C474 1.389 1_655 S
C473 H452 0.950 . S
C473 C472 1.373 . S
C473 C489 1.377 . S
C474 C472 1.389 1_455 S
C474 C475 1.524 . S
C474 C488 1.377 . S
C475 C474 1.524 . S
C475 C476 1.397 . S
C475 C480 1.363 . S
C476 H453 0.950 1_455 S
C476 C475 1.397 . S
C476 C477 1.334 . S
C477 H454 0.950 . S
C477 C476 1.334 . S
C477 C478 1.287 . S
C478 C477 1.287 . S
C478 C479 1.524 . S
C478 H497 0.913 . S
C479 H455 0.950 . S
C479 C478 1.524 . S
C479 C480 1.415 . S
C480 H456 0.950 . S
C480 C475 1.363 . S
C480 C479 1.415 . S
C481 H457 0.951 . S
C481 C482 1.366 1_655 S
C481 C483 1.388 . S
C482 C481 1.366 1_455 S
C482 C486 1.385 . S
C483 H458 0.951 . S
C483 C481 1.388 . S
C483 C484 1.366 1_655 S
C484 C483 1.366 1_455 S
C484 C485 1.414 . S
C484 C487 1.499 . S
C485 H459 0.950 . S
C485 C484 1.414 . S
C485 C486 1.374 . S
C486 H460 0.950 . S
C486 C482 1.385 . S
C486 C485 1.374 . S
C487 C484 1.499 . S
C487 C488 1.373 . S
C487 C489 1.389 1_455 S
C488 H461 0.950 . S
C488 C474 1.377 . S
C488 C487 1.373 . S
C489 C473 1.377 . S
C489 C487 1.389 1_655 S
C489 C490 1.524 . S
C490 C489 1.524 . S
C490 C491 1.397 . S
C490 C495 1.363 . S
C491 H462 0.950 1_655 S
C491 C490 1.397 . S
C491 C492 1.334 . S
C492 H463 0.950 . S
C492 C491 1.334 . S
C492 C493 1.287 . S
C493 C492 1.287 . S
C493 C494 1.524 . S
C493 H496 0.999 . S
C494 H464 0.950 . S
C494 C493 1.524 . S
C494 C495 1.415 . S
C495 H465 0.950 . S
C495 C490 1.363 . S
C495 C494 1.415 . S
H496 C493 0.999 . S
H497 C478 0.913 . S
H498 C516 0.951 . S
H499 C518 0.951 . S
H500 C520 0.950 . S
H501 C521 0.950 . S
H502 C523 0.950 . S
H503 C526 0.950 . S
H504 C527 0.950 . S
H505 C529 0.950 . S
H506 C530 0.950 . S
H507 C531 0.951 . S
H508 C533 0.951 . S
H509 C535 0.950 . S
H510 C536 0.950 . S
H511 C538 0.950 . S
H512 C541 0.950 . S
H513 C542 0.950 . S
H514 C544 0.950 . S
H515 C545 0.950 . S
C516 H498 0.951 . S
C516 C517 1.366 . S
C516 C518 1.388 . S
C517 C516 1.366 . S
C517 C521 1.385 . S
C518 H499 0.951 . S
C518 C516 1.388 . S
C518 C519 1.366 . S
C519 C518 1.366 . S
C519 C520 1.414 . S
C519 C522 1.499 1_556 S
C520 H500 0.950 . S
C520 C519 1.414 . S
C520 C521 1.374 . S
C521 H501 0.950 . S
C521 C517 1.385 . S
C521 C520 1.374 . S
C522 C519 1.499 1_554 S
C522 C523 1.373 . S
C522 C524 1.389 . S
C523 H502 0.950 . S
C523 C522 1.373 . S
C523 C539 1.377 . S
C524 C522 1.389 . S
C524 C525 1.524 . S
C524 C538 1.377 . S
C525 C524 1.524 . S
C525 C526 1.397 1_554 S
C525 C530 1.363 . S
C526 H503 0.950 . S
C526 C525 1.397 1_556 S
C526 C527 1.334 . S
C527 H504 0.950 . S
C527 C526 1.334 . S
C527 C528 1.287 . S
C528 C527 1.287 . S
C528 C529 1.524 1_556 S
C528 H547 0.913 . S
C529 H505 0.950 . S
C529 C528 1.524 1_554 S
C529 C530 1.415 . S
C530 H506 0.950 . S
C530 C525 1.363 . S
C530 C529 1.415 . S
C531 H507 0.951 . S
C531 C532 1.366 . S
C531 C533 1.388 . S
C532 C531 1.366 . S
C532 C536 1.385 . S
C533 H508 0.951 . S
C533 C531 1.388 . S
C533 C534 1.366 . S
C534 C533 1.366 . S
C534 C535 1.414 . S
C534 C537 1.499 . S
C535 H509 0.950 . S
C535 C534 1.414 . S
C535 C536 1.374 . S
C536 H510 0.950 . S
C536 C532 1.385 . S
C536 C535 1.374 . S
C537 C534 1.499 . S
C537 C538 1.373 . S
C537 C539 1.389 . S
C538 H511 0.950 . S
C538 C524 1.377 . S
C538 C537 1.373 . S
C539 C523 1.377 . S
C539 C537 1.389 . S
C539 C540 1.524 . S
C540 C539 1.524 . S
C540 C541 1.397 . S
C540 C545 1.363 . S
C541 H512 0.950 . S
C541 C540 1.397 . S
C541 C542 1.334 . S
C542 H513 0.950 . S
C542 C541 1.334 . S
C542 C543 1.287 . S
C543 C542 1.287 . S
C543 C544 1.524 . S
C543 H546 0.999 . S
C544 H514 0.950 . S
C544 C543 1.524 . S
C544 C545 1.415 . S
C545 H515 0.950 . S
C545 C540 1.363 . S
C545 C544 1.415 . S
H546 C543 0.999 . S
H547 C528 0.913 . S
H548 C566 0.951 . S
H549 C568 0.951 . S
H550 C570 0.950 . S
H551 C571 0.950 . S
H552 C573 0.950 . S
H553 C576 0.950 . S
H554 C577 0.950 . S
H555 C579 0.950 . S
H556 C580 0.950 . S
H557 C581 0.951 . S
H558 C583 0.951 . S
H559 C585 0.950 . S
H560 C586 0.950 . S
H561 C588 0.950 . S
H562 C591 0.950 . S
H563 C592 0.950 . S
H564 C594 0.950 . S
H565 C595 0.950 . S
C566 H548 0.951 . S
C566 C567 1.366 . S
C566 C568 1.388 . S
C567 C566 1.366 . S
C567 C571 1.385 . S
C568 H549 0.951 . S
C568 C566 1.388 . S
C568 C569 1.366 . S
C569 C568 1.366 . S
C569 C570 1.414 . S
C569 C572 1.499 . S
C570 H550 0.950 . S
C570 C569 1.414 . S
C570 C571 1.374 . S
C571 H551 0.950 . S
C571 C567 1.385 . S
C571 C570 1.374 . S
C572 C569 1.499 . S
C572 C573 1.373 . S
C572 C574 1.389 . S
C573 H552 0.950 . S
C573 C572 1.373 . S
C573 C589 1.377 . S
C574 C572 1.389 . S
C574 C575 1.524 . S
C574 C588 1.377 . S
C575 C574 1.524 . S
C575 C576 1.397 . S
C575 C580 1.363 . S
C576 H553 0.950 . S
C576 C575 1.397 . S
C576 C577 1.334 . S
C577 H554 0.950 . S
C577 C576 1.334 . S
C577 C578 1.287 . S
C578 C577 1.287 . S
C578 C579 1.524 . S
C578 H597 0.913 . S
C579 H555 0.950 . S
C579 C578 1.524 . S
C579 C580 1.415 . S
C580 H556 0.950 . S
C580 C575 1.363 . S
C580 C579 1.415 . S
C581 H557 0.951 . S
C581 C582 1.366 . S
C581 C583 1.388 . S
C582 C581 1.366 . S
C582 C586 1.385 . S
C583 H558 0.951 . S
C583 C581 1.388 . S
C583 C584 1.366 . S
C584 C583 1.366 . S
C584 C585 1.414 . S
C584 C587 1.499 . S
C585 H559 0.950 . S
C585 C584 1.414 . S
C585 C586 1.374 . S
C586 H560 0.950 . S
C586 C582 1.385 . S
C586 C585 1.374 . S
C587 C584 1.499 . S
C587 C588 1.373 . S
C587 C589 1.389 . S
C588 H561 0.950 . S
C588 C574 1.377 . S
C588 C587 1.373 . S
C589 C573 1.377 . S
C589 C587 1.389 . S
C589 C590 1.524 . S
C590 C589 1.524 . S
C590 C591 1.397 . S
C590 C595 1.363 . S
C591 H562 0.950 . S
C591 C590 1.397 . S
C591 C592 1.334 . S
C592 H563 0.950 . S
C592 C591 1.334 . S
C592 C593 1.287 . S
C593 C592 1.287 . S
C593 C594 1.524 . S
C593 H596 0.999 . S
C594 H564 0.950 . S
C594 C593 1.524 . S
C594 C595 1.415 . S
C595 H565 0.950 . S
C595 C590 1.363 . S
C595 C594 1.415 . S
H596 C593 0.999 . S
H597 C578 0.913 . S
H598 C616 0.951 . S
H599 C618 0.951 . S
H600 C620 0.950 . S
H601 C621 0.950 . S
H602 C623 0.950 . S
H603 C626 0.950 . S
H604 C627 0.950 . S
H605 C629 0.950 . S
H606 C630 0.950 . S
H607 C631 0.951 . S
H608 C633 0.951 . S
H609 C635 0.950 . S
H610 C636 0.950 . S
H611 C638 0.950 . S
H612 C641 0.950 . S
H613 C642 0.950 . S
H614 C644 0.950 . S
H615 C645 0.950 . S
C616 H598 0.951 . S
C616 C617 1.366 . S
C616 C618 1.388 . S
C617 C616 1.366 . S
C617 C621 1.385 . S
C618 H599 0.951 . S
C618 C616 1.388 . S
C618 C619 1.366 . S
C619 C618 1.366 . S
C619 C620 1.414 . S
C619 C622 1.499 . S
C620 H600 0.950 . S
C620 C619 1.414 . S
C620 C621 1.374 . S
C621 H601 0.950 . S
C621 C617 1.385 . S
C621 C620 1.374 . S
C622 C619 1.499 . S
C622 C623 1.373 . S
C622 C624 1.389 . S
C623 H602 0.950 . S
C623 C622 1.373 . S
C623 C639 1.377 . S
C624 C622 1.389 . S
C624 C625 1.524 . S
C624 C638 1.377 . S
C625 C624 1.524 . S
C625 C626 1.397 . S
C625 C630 1.363 . S
C626 H603 0.950 . S
C626 C625 1.397 . S
C626 C627 1.334 . S
C627 H604 0.950 . S
C627 C626 1.334 . S
C627 C628 1.287 . S
C628 C627 1.287 . S
C628 C629 1.524 . S
C628 H647 0.913 . S
C629 H605 0.950 . S
C629 C628 1.524 . S
C629 C630 1.415 . S
C630 H606 0.950 . S
C630 C625 1.363 . S
C630 C629 1.415 . S
C631 H607 0.951 . S
C631 C632 1.366 . S
C631 C633 1.388 . S
C632 C631 1.366 . S
C632 C636 1.385 . S
C633 H608 0.951 . S
C633 C631 1.388 . S
C633 C634 1.366 . S
C634 C633 1.366 . S
C634 C635 1.414 . S
C634 C637 1.499 . S
C635 H609 0.950 . S
C635 C634 1.414 . S
C635 C636 1.374 . S
C636 H610 0.950 . S
C636 C632 1.385 . S
C636 C635 1.374 . S
C637 C634 1.499 . S
C637 C638 1.373 . S
C637 C639 1.389 . S
C638 H611 0.950 . S
C638 C624 1.377 . S
C638 C637 1.373 . S
C639 C623 1.377 . S
C639 C637 1.389 . S
C639 C640 1.524 . S
C640 C639 1.524 . S
C640 C641 1.397 . S
C640 C645 1.363 . S
C641 H612 0.950 . S
C641 C640 1.397 . S
C641 C642 1.334 . S
C642 H613 0.950 . S
C642 C641 1.334 . S
C642 C643 1.287 . S
C643 C642 1.287 . S
C643 C644 1.524 . S
C643 H646 0.999 . S
C644 H614 0.950 . S
C644 C643 1.524 . S
C644 C645 1.415 . S
C645 H615 0.950 . S
C645 C640 1.363 . S
C645 C644 1.415 . S
H646 C643 0.999 . S
H647 C628 0.913 . S
H648 C666 0.951 . S
H649 C668 0.964 . S
H650 C670 0.950 . S
H651 C671 0.950 . S
H652 C673 0.950 . S
H653 C676 0.950 . S
H654 C677 0.950 . S
H655 C679 0.950 . S
H656 C680 0.950 . S
H657 C681 0.951 . S
H658 C683 0.951 . S
H659 C685 0.950 . S
H660 C686 0.950 . S
H661 C688 0.950 . S
H662 C691 0.950 . S
H663 C692 0.950 . S
H664 C694 0.950 . S
H665 C695 0.950 . S
C666 H648 0.951 . S
C666 C667 1.366 . S
C666 C668 1.388 . S
C667 C666 1.366 . S
C667 C671 1.385 . S
C668 H649 0.964 . S
C668 C666 1.388 . S
C668 C669 1.366 . S
C669 C668 1.366 . S
C669 C670 1.414 . S
C669 C672 1.499 . S
C670 H650 0.950 . S
C670 C669 1.414 . S
C670 C671 1.374 . S
C671 H651 0.950 . S
C671 C667 1.385 . S
C671 C670 1.374 . S
C672 C669 1.499 . S
C672 C673 1.373 1_655 S
C672 C674 1.389 . S
C673 H652 0.950 . S
C673 C672 1.373 1_455 S
C673 C689 1.377 . S
C674 C672 1.389 . S
C674 C675 1.524 . S
C674 C688 1.377 . S
C675 C674 1.524 . S
C675 C676 1.397 . S
C675 C680 1.363 . S
C676 H653 0.950 . S
C676 C675 1.397 . S
C676 C677 1.334 . S
C677 H654 0.950 . S
C677 C676 1.334 . S
C677 C678 1.287 . S
C678 C677 1.287 . S
C678 C679 1.524 . S
C678 H697 0.913 . S
C679 H655 0.950 . S
C679 C678 1.524 . S
C679 C680 1.415 . S
C680 H656 0.950 . S
C680 C675 1.363 . S
C680 C679 1.415 . S
C681 H657 0.951 . S
C681 C682 1.366 . S
C681 C683 1.388 . S
C682 C681 1.366 . S
C682 C686 1.385 . S
C683 H658 0.951 . S
C683 C681 1.388 . S
C683 C684 1.366 . S
C684 C683 1.366 . S
C684 C685 1.414 . S
C684 C687 1.499 . S
C685 H659 0.950 . S
C685 C684 1.414 . S
C685 C686 1.374 . S
C686 H660 0.950 . S
C686 C682 1.385 . S
C686 C685 1.374 . S
C687 C684 1.499 . S
C687 C688 1.373 1_455 S
C687 C689 1.389 . S
C688 H661 0.950 . S
C688 C674 1.377 . S
C688 C687 1.373 1_655 S
C689 C673 1.377 . S
C689 C687 1.389 . S
C689 C690 1.524 . S
C690 C689 1.524 . S
C690 C691 1.397 . S
C690 C695 1.363 . S
C691 H662 0.950 . S
C691 C690 1.397 . S
C691 C692 1.334 . S
C692 H663 0.950 . S
C692 C691 1.334 . S
C692 C693 1.287 . S
C693 C692 1.287 . S
C693 C694 1.524 . S
C693 H696 0.999 . S
C694 H664 0.950 . S
C694 C693 1.524 . S
C694 C695 1.415 . S
C695 H665 0.950 . S
C695 C690 1.363 . S
C695 C694 1.415 . S
H696 C693 0.999 . S
H697 C678 0.913 . S
H698 C716 0.951 . S
H699 C718 0.951 . S
H700 C720 0.950 . S
H701 C721 0.950 . S
H702 C723 0.950 . S
H703 C726 0.950 . S
H704 C727 0.950 . S
H705 C729 0.950 . S
H706 C730 0.950 . S
H707 C731 0.951 . S
H708 C733 0.951 . S
H709 C735 0.950 . S
H710 C736 0.950 . S
H711 C738 0.950 . S
H712 C741 0.950 . S
H713 C742 0.950 . S
H714 C744 0.950 . S
H715 C745 0.950 . S
C716 H698 0.951 . S
C716 C717 1.366 . S
C716 C718 1.388 . S
C717 C716 1.366 . S
C717 C721 1.385 . S
C718 H699 0.951 . S
C718 C716 1.388 . S
C718 C719 1.366 . S
C719 C718 1.366 . S
C719 C720 1.414 . S
C719 C722 1.499 . S
C720 H700 0.950 . S
C720 C719 1.414 . S
C720 C721 1.374 . S
C721 H701 0.950 . S
C721 C717 1.385 . S
C721 C720 1.374 . S
C722 C719 1.499 . S
C722 C723 1.373 . S
C722 C724 1.389 . S
C723 H702 0.950 . S
C723 C722 1.373 . S
C723 C739 1.377 . S
C724 C722 1.389 . S
C724 C725 1.524 . S
C724 C738 1.377 . S
C725 C724 1.524 . S
C725 C726 1.397 . S
C725 C730 1.363 . S
C726 H703 0.950 . S
C726 C725 1.397 . S
C726 C727 1.334 . S
C727 H704 0.950 . S
C727 C726 1.334 . S
C727 C728 1.287 . S
C728 C727 1.287 . S
C728 C729 1.524 . S
C728 H747 0.913 . S
C729 H705 0.950 . S
C729 C728 1.524 . S
C729 C730 1.415 . S
C730 H706 0.950 . S
C730 C725 1.363 . S
C730 C729 1.415 . S
C731 H707 0.951 . S
C731 C732 1.366 . S
C731 C733 1.388 . S
C732 C731 1.366 . S
C732 C736 1.385 . S
C733 H708 0.951 . S
C733 C731 1.388 . S
C733 C734 1.366 . S
C734 C733 1.366 . S
C734 C735 1.414 . S
C734 C737 1.499 1_554 S
C735 H709 0.950 . S
C735 C734 1.414 . S
C735 C736 1.374 . S
C736 H710 0.950 . S
C736 C732 1.385 . S
C736 C735 1.374 . S
C737 C734 1.499 1_556 S
C737 C738 1.373 . S
C737 C739 1.389 . S
C738 H711 0.950 . S
C738 C724 1.377 . S
C738 C737 1.373 . S
C739 C723 1.377 . S
C739 C737 1.389 . S
C739 C740 1.524 . S
C740 C739 1.524 . S
C740 C741 1.397 . S
C740 C745 1.363 . S
C741 H712 0.950 . S
C741 C740 1.397 . S
C741 C742 1.334 1_556 S
C742 H713 0.950 . S
C742 C741 1.334 1_554 S
C742 C743 1.287 . S
C743 C742 1.287 . S
C743 C744 1.524 1_554 S
C743 H746 0.999 . S
C744 H714 0.950 . S
C744 C743 1.524 1_556 S
C744 C745 1.415 . S
C745 H715 0.950 . S
C745 C740 1.363 . S
C745 C744 1.415 . S
H746 C743 0.999 . S
H747 C728 0.913 . S
H748 C766 0.951 . S
H749 C768 0.951 . S
H750 C770 0.950 . S
H751 C771 0.950 . S
H752 C773 0.950 . S
H753 C776 0.950 . S
H754 C777 0.950 . S
H755 C779 0.950 . S
H756 C780 0.950 . S
H757 C781 0.951 . S
H758 C783 0.951 . S
H759 C785 0.950 . S
H760 C786 0.950 . S
H761 C788 0.950 . S
H762 C791 0.950 . S
H763 C792 0.950 . S
H764 C794 0.950 . S
H765 C795 0.950 . S
C766 H748 0.951 . S
C766 C767 1.366 . S
C766 C768 1.388 . S
C767 C766 1.366 . S
C767 C771 1.385 . S
C768 H749 0.951 . S
C768 C766 1.388 . S
C768 C769 1.366 . S
C769 C768 1.366 . S
C769 C770 1.414 . S
C769 C772 1.499 . S
C770 H750 0.950 . S
C770 C769 1.414 . S
C770 C771 1.374 . S
C771 H751 0.950 . S
C771 C767 1.385 . S
C771 C770 1.374 . S
C772 C769 1.499 . S
C772 C773 1.373 . S
C772 C774 1.389 . S
C773 H752 0.950 . S
C773 C772 1.373 . S
C773 C789 1.377 . S
C774 C772 1.389 . S
C774 C775 1.524 . S
C774 C788 1.377 . S
C775 C774 1.524 . S
C775 C776 1.397 . S
C775 C780 1.363 . S
C776 H753 0.950 . S
C776 C775 1.397 . S
C776 C777 1.334 . S
C777 H754 0.950 . S
C777 C776 1.334 . S
C777 C778 1.287 . S
C778 C777 1.287 . S
C778 C779 1.524 . S
C778 H797 0.913 . S
C779 H755 0.950 . S
C779 C778 1.524 . S
C779 C780 1.415 . S
C780 H756 0.950 . S
C780 C775 1.363 . S
C780 C779 1.415 . S
C781 H757 0.951 . S
C781 C782 1.366 . S
C781 C783 1.388 . S
C782 C781 1.366 . S
C782 C786 1.385 . S
C783 H758 0.951 . S
C783 C781 1.388 . S
C783 C784 1.366 . S
C784 C783 1.366 . S
C784 C785 1.414 . S
C784 C787 1.499 . S
C785 H759 0.950 . S
C785 C784 1.414 . S
C785 C786 1.374 . S
C786 H760 0.950 . S
C786 C782 1.385 . S
C786 C785 1.374 . S
C787 C784 1.499 . S
C787 C788 1.373 . S
C787 C789 1.389 . S
C788 H761 0.950 . S
C788 C774 1.377 . S
C788 C787 1.373 . S
C789 C773 1.377 . S
C789 C787 1.389 . S
C789 C790 1.524 . S
C790 C789 1.524 . S
C790 C791 1.397 . S
C790 C795 1.363 . S
C791 H762 0.950 . S
C791 C790 1.397 . S
C791 C792 1.334 . S
C792 H763 0.950 . S
C792 C791 1.334 . S
C792 C793 1.287 . S
C793 C792 1.287 . S
C793 C794 1.524 . S
C793 H796 0.999 . S
C794 H764 0.950 . S
C794 C793 1.524 . S
C794 C795 1.415 . S
C795 H765 0.950 . S
C795 C790 1.363 . S
C795 C794 1.415 . S
H796 C793 0.999 . S
H797 C778 0.913 . S
H798 C816 0.951 . S
H799 C818 0.951 . S
H800 C820 0.950 . S
H801 C821 0.950 . S
H802 C823 0.950 . S
H803 C826 0.950 . S
H804 C827 0.950 . S
H805 C829 0.950 . S
H806 C830 0.950 . S
H807 C831 0.951 . S
H808 C833 0.951 . S
H809 C835 0.950 . S
H810 C836 0.950 . S
H811 C838 0.950 . S
H812 C841 0.950 . S
H813 C842 0.950 . S
H814 C844 0.950 . S
H815 C845 0.950 . S
C816 H798 0.951 . S
C816 C817 1.366 . S
C816 C818 1.388 . S
C817 C816 1.366 . S
C817 C821 1.385 . S
C818 H799 0.951 . S
C818 C816 1.388 . S
C818 C819 1.366 . S
C819 C818 1.366 . S
C819 C820 1.414 . S
C819 C822 1.499 . S
C820 H800 0.950 . S
C820 C819 1.414 . S
C820 C821 1.374 . S
C821 H801 0.950 . S
C821 C817 1.385 . S
C821 C820 1.374 . S
C822 C819 1.499 . S
C822 C823 1.373 . S
C822 C824 1.389 . S
C823 H802 0.950 . S
C823 C822 1.373 . S
C823 C839 1.377 . S
C824 C822 1.389 . S
C824 C825 1.524 . S
C824 C838 1.377 . S
C825 C824 1.524 . S
C825 C826 1.397 . S
C825 C830 1.363 . S
C826 H803 0.950 . S
C826 C825 1.397 . S
C826 C827 1.334 . S
C827 H804 0.950 . S
C827 C826 1.334 . S
C827 C828 1.287 . S
C828 C827 1.287 . S
C828 C829 1.524 . S
C828 H847 0.913 . S
C829 H805 0.950 . S
C829 C828 1.524 . S
C829 C830 1.415 . S
C830 H806 0.950 . S
C830 C825 1.363 . S
C830 C829 1.415 . S
C831 H807 0.951 . S
C831 C832 1.366 . S
C831 C833 1.388 . S
C832 C831 1.366 . S
C832 C836 1.385 . S
C833 H808 0.951 . S
C833 C831 1.388 . S
C833 C834 1.366 . S
C834 C833 1.366 . S
C834 C835 1.414 . S
C834 C837 1.499 . S
C835 H809 0.950 . S
C835 C834 1.414 . S
C835 C836 1.374 . S
C836 H810 0.950 . S
C836 C832 1.385 . S
C836 C835 1.374 . S
C837 C834 1.499 . S
C837 C838 1.373 . S
C837 C839 1.389 . S
C838 H811 0.950 . S
C838 C824 1.377 . S
C838 C837 1.373 . S
C839 C823 1.377 . S
C839 C837 1.389 . S
C839 C840 1.524 . S
C840 C839 1.524 . S
C840 C841 1.397 . S
C840 C845 1.363 . S
C841 H812 0.950 . S
C841 C840 1.397 . S
C841 C842 1.334 . S
C842 H813 0.950 . S
C842 C841 1.334 . S
C842 C843 1.287 . S
C843 C842 1.287 . S
C843 C844 1.524 . S
C843 H846 0.999 . S
C844 H814 0.950 . S
C844 C843 1.524 . S
C844 C845 1.415 . S
C845 H815 0.950 . S
C845 C840 1.363 . S
C845 C844 1.415 . S
H846 C843 0.999 . S
H847 C828 0.913 . S
H848 C866 0.951 . S
H849 C868 0.951 . S
H850 C870 0.950 . S
H851 C871 0.950 1_655 S
H852 C873 0.950 . S
H853 C876 0.950 . S
H854 C877 0.950 . S
H855 C879 0.950 . S
H856 C880 0.915 1_455 S
H857 C881 0.951 . S
H858 C883 0.951 . S
H859 C885 0.933 1_455 S
H860 C886 0.945 1_455 S
H861 C888 0.950 . S
H862 C891 0.950 . S
H863 C892 0.950 . S
H864 C894 0.950 . S
H865 C895 0.950 1_655 S
C866 H848 0.951 . S
C866 C867 1.366 . S
C866 C868 1.388 . S
C867 C866 1.366 . S
C867 C871 1.385 . S
C868 H849 0.951 . S
C868 C866 1.388 . S
C868 C869 1.366 . S
C869 C868 1.366 . S
C869 C870 1.414 1_455 S
C869 C872 1.505 . S
C870 H850 0.950 . S
C870 C869 1.414 1_655 S
C870 C871 1.374 1_655 S
C871 H851 0.950 1_455 S
C871 C867 1.385 . S
C871 C870 1.374 1_455 S
C872 C869 1.505 . S
C872 C873 1.383 . S
C872 C874 1.377 1_455 S
C873 H852 0.950 . S
C873 C872 1.383 . S
C873 C889 1.377 . S
C874 C872 1.377 1_655 S
C874 C875 1.524 . S
C874 C888 1.377 . S
C875 C874 1.524 . S
C875 C876 1.397 . S
C875 C880 1.363 . S
C876 H853 0.950 . S
C876 C875 1.397 . S
C876 C877 1.334 . S
C877 H854 0.950 . S
C877 C876 1.334 . S
C877 C878 1.287 . S
C878 C877 1.287 . S
C878 C879 1.524 . S
C878 H897 0.913 . S
C879 H855 0.950 . S
C879 C878 1.524 . S
C879 C880 1.415 . S
C880 H856 0.915 1_655 S
C880 C875 1.363 . S
C880 C879 1.415 . S
C881 H857 0.951 . S
C881 C882 1.366 . S
C881 C883 1.388 . S
C882 C881 1.366 . S
C882 C886 1.385 . S
C883 H858 0.951 . S
C883 C881 1.388 . S
C883 C884 1.366 . S
C884 C883 1.366 . S
C884 C885 1.426 . S
C884 C887 1.499 . S
C885 H859 0.933 1_655 S
C885 C884 1.426 . S
C885 C886 1.381 . S
C886 H860 0.945 1_655 S
C886 C882 1.385 . S
C886 C885 1.381 . S
C887 C884 1.499 . S
C887 C888 1.373 . S
C887 C889 1.389 1_655 S
C888 H861 0.950 . S
C888 C874 1.377 . S
C888 C887 1.373 . S
C889 C873 1.377 . S
C889 C887 1.389 1_455 S
C889 C890 1.524 . S
C890 C889 1.524 . S
C890 C891 1.397 . S
C890 C895 1.363 . S
C891 H862 0.950 . S
C891 C890 1.397 . S
C891 C892 1.334 . S
C892 H863 0.950 . S
C892 C891 1.334 . S
C892 C893 1.287 . S
C893 C892 1.287 . S
C893 C894 1.524 . S
C893 H896 0.999 . S
C894 H864 0.950 . S
C894 C893 1.524 . S
C894 C895 1.415 . S
C895 H865 0.950 1_455 S
C895 C890 1.363 . S
C895 C894 1.415 . S
H896 C893 0.999 . S
H897 C878 0.913 . S
H898 C916 0.951 . S
H899 C918 0.951 . S
H900 C920 0.950 . S
H901 C921 0.950 . S
H902 C923 0.950 . S
H903 C926 0.950 . S
H904 C927 0.950 . S
H905 C929 0.950 . S
H906 C930 0.950 . S
H907 C931 0.951 . S
H908 C933 0.951 . S
H909 C935 0.950 . S
H910 C936 0.950 . S
H911 C938 0.950 . S
H912 C941 0.950 . S
H913 C942 0.950 . S
H914 C944 0.950 . S
H915 C945 0.950 . S
C916 H898 0.951 . S
C916 C917 1.366 . S
C916 C918 1.388 . S
C917 C916 1.366 . S
C917 C921 1.385 . S
C918 H899 0.951 . S
C918 C916 1.388 . S
C918 C919 1.366 . S
C919 C918 1.366 . S
C919 C920 1.414 . S
C919 C922 1.499 1_554 S
C920 H900 0.950 . S
C920 C919 1.414 . S
C920 C921 1.374 . S
C921 H901 0.950 . S
C921 C917 1.385 . S
C921 C920 1.374 . S
C922 C919 1.499 1_556 S
C922 C923 1.373 . S
C922 C924 1.389 . S
C923 H902 0.950 . S
C923 C922 1.373 . S
C923 C939 1.377 . S
C924 C922 1.389 . S
C924 C925 1.524 . S
C924 C938 1.377 . S
C925 C924 1.524 . S
C925 C926 1.397 . S
C925 C930 1.363 . S
C926 H903 0.950 . S
C926 C925 1.397 . S
C926 C927 1.334 1_556 S
C927 H904 0.950 . S
C927 C926 1.334 1_554 S
C927 C928 1.291 . S
C928 C927 1.291 . S
C928 C929 1.510 1_554 S
C928 H947 0.929 . S
C929 H905 0.950 . S
C929 C928 1.510 1_556 S
C929 C930 1.415 . S
C930 H906 0.950 . S
C930 C925 1.363 . S
C930 C929 1.415 . S
C931 H907 0.951 . S
C931 C932 1.366 . S
C931 C933 1.388 . S
C932 C931 1.366 . S
C932 C936 1.385 . S
C933 H908 0.951 . S
C933 C931 1.388 . S
C933 C934 1.366 . S
C934 C933 1.366 . S
C934 C935 1.414 . S
C934 C937 1.499 . S
C935 H909 0.950 . S
C935 C934 1.414 . S
C935 C936 1.374 . S
C936 H910 0.950 . S
C936 C932 1.385 . S
C936 C935 1.374 . S
C937 C934 1.499 . S
C937 C938 1.373 . S
C937 C939 1.389 . S
C938 H911 0.950 . S
C938 C924 1.377 . S
C938 C937 1.373 . S
C939 C923 1.377 . S
C939 C937 1.389 . S
C939 C940 1.524 . S
C940 C939 1.524 . S
C940 C941 1.397 . S
C940 C945 1.363 . S
C941 H912 0.950 . S
C941 C940 1.397 . S
C941 C942 1.334 . S
C942 H913 0.950 . S
C942 C941 1.334 . S
C942 C943 1.287 . S
C943 C942 1.287 . S
C943 C944 1.524 . S
C943 H946 0.999 . S
C944 H914 0.950 . S
C944 C943 1.524 . S
C944 C945 1.415 . S
C945 H915 0.950 . S
C945 C940 1.363 . S
C945 C944 1.415 . S
H946 C943 0.999 . S
H947 C928 0.929 . S
H948 C966 0.951 . S
H949 C968 0.951 . S
H950 C970 0.950 . S
H951 C971 0.950 . S
H952 C973 0.950 . S
H953 C976 0.950 . S
H954 C977 0.950 . S
H955 C979 0.950 . S
H956 C980 0.950 . S
H957 C981 0.951 . S
H958 C983 0.951 . S
H959 C985 0.950 . S
H960 C986 0.950 . S
H961 C988 0.950 . S
H962 C991 0.950 . S
H963 C992 0.950 . S
H964 C994 0.950 . S
H965 C995 0.950 . S
C966 H948 0.951 . S
C966 C967 1.366 . S
C966 C968 1.388 . S
C967 C966 1.366 . S
C967 C971 1.385 . S
C968 H949 0.951 . S
C968 C966 1.388 . S
C968 C969 1.366 . S
C969 C968 1.366 . S
C969 C970 1.414 . S
C969 C972 1.499 . S
C970 H950 0.950 . S
C970 C969 1.414 . S
C970 C971 1.374 . S
C971 H951 0.950 . S
C971 C967 1.385 . S
C971 C970 1.374 . S
C972 C969 1.499 . S
C972 C973 1.373 . S
C972 C974 1.389 . S
C973 H952 0.950 . S
C973 C972 1.373 . S
C973 C989 1.377 . S
C974 C972 1.389 . S
C974 C975 1.524 . S
C974 C988 1.377 . S
C975 C974 1.524 . S
C975 C976 1.397 . S
C975 C980 1.363 . S
C976 H953 0.950 . S
C976 C975 1.397 . S
C976 C977 1.334 . S
C977 H954 0.950 . S
C977 C976 1.334 . S
C977 C978 1.287 . S
C978 C977 1.287 . S
C978 C979 1.524 . S
C978 H997 0.913 . S
C979 H955 0.950 . S
C979 C978 1.524 . S
C979 C980 1.415 . S
C980 H956 0.950 . S
C980 C975 1.363 . S
C980 C979 1.415 . S
C981 H957 0.951 . S
C981 C982 1.366 . S
C981 C983 1.388 . S
C982 C981 1.366 . S
C982 C986 1.385 . S
C983 H958 0.951 . S
C983 C981 1.388 . S
C983 C984 1.366 . S
C984 C983 1.366 . S
C984 C985 1.414 . S
C984 C987 1.499 . S
C985 H959 0.950 . S
C985 C984 1.414 . S
C985 C986 1.374 . S
C986 H960 0.950 . S
C986 C982 1.385 . S
C986 C985 1.374 . S
C987 C984 1.499 . S
C987 C988 1.373 . S
C987 C989 1.389 . S
C988 H961 0.950 . S
C988 C974 1.377 . S
C988 C987 1.373 . S
C989 C973 1.377 . S
C989 C987 1.389 . S
C989 C990 1.524 . S
C990 C989 1.524 . S
C990 C991 1.397 . S
C990 C995 1.363 . S
C991 H962 0.950 . S
C991 C990 1.397 . S
C991 C992 1.334 . S
C992 H963 0.950 . S
C992 C991 1.334 . S
C992 C993 1.287 . S
C993 C992 1.287 . S
C993 C994 1.524 . S
C993 H996 0.999 . S
C994 H964 0.950 . S
C994 C993 1.524 . S
C994 C995 1.415 . S
C995 H965 0.950 . S
C995 C990 1.363 . S
C995 C994 1.415 . S
H996 C993 0.999 . S
H997 C978 0.913 . S
H998 C1016 0.951 . S
H999 C1018 0.951 . S
H1000 C1020 0.950 . S
H1001 C1021 0.950 . S
H1002 C1023 0.950 . S
H1003 C1026 0.950 . S
H1004 C1027 0.950 . S
H1005 C1029 0.950 . S
H1006 C1030 0.950 . S
H1007 C1031 0.951 . S
H1008 C1033 0.951 . S
H1009 C1035 0.950 . S
H1010 C1036 0.950 . S
H1011 C1038 0.950 . S
H1012 C1041 0.950 . S
H1013 C1042 0.950 . S
H1014 C1044 0.950 . S
H1015 C1045 0.950 . S
C1016 H998 0.951 . S
C1016 C1017 1.366 . S
C1016 C1018 1.388 . S
C1017 C1016 1.366 . S
C1017 C1021 1.385 . S
C1018 H999 0.951 . S
C1018 C1016 1.388 . S
C1018 C1019 1.366 . S
C1019 C1018 1.366 . S
C1019 C1020 1.414 . S
C1019 C1022 1.499 . S
C1020 H1000 0.950 . S
C1020 C1019 1.414 . S
C1020 C1021 1.374 . S
C1021 H1001 0.950 . S
C1021 C1017 1.385 . S
C1021 C1020 1.374 . S
C1022 C1019 1.499 . S
C1022 C1023 1.373 . S
C1022 C1024 1.389 . S
C1023 H1002 0.950 . S
C1023 C1022 1.373 . S
C1023 C1039 1.377 . S
C1024 C1022 1.389 . S
C1024 C1025 1.524 . S
C1024 C1038 1.377 . S
C1025 C1024 1.524 . S
C1025 C1026 1.397 . S
C1025 C1030 1.363 . S
C1026 H1003 0.950 . S
C1026 C1025 1.397 . S
C1026 C1027 1.334 . S
C1027 H1004 0.950 . S
C1027 C1026 1.334 . S
C1027 C1028 1.287 . S
C1028 C1027 1.287 . S
C1028 C1029 1.524 . S
C1028 H1047 0.913 . S
C1029 H1005 0.950 . S
C1029 C1028 1.524 . S
C1029 C1030 1.415 . S
C1030 H1006 0.950 . S
C1030 C1025 1.363 . S
C1030 C1029 1.415 . S
C1031 H1007 0.951 . S
C1031 C1032 1.366 . S
C1031 C1033 1.388 . S
C1032 C1031 1.366 . S
C1032 C1036 1.385 . S
C1033 H1008 0.951 . S
C1033 C1031 1.388 . S
C1033 C1034 1.366 . S
C1034 C1033 1.366 . S
C1034 C1035 1.414 . S
C1034 C1037 1.499 . S
C1035 H1009 0.950 . S
C1035 C1034 1.414 . S
C1035 C1036 1.374 . S
C1036 H1010 0.950 . S
C1036 C1032 1.385 . S
C1036 C1035 1.374 . S
C1037 C1034 1.499 . S
C1037 C1038 1.373 . S
C1037 C1039 1.389 . S
C1038 H1011 0.950 . S
C1038 C1024 1.377 . S
C1038 C1037 1.373 . S
C1039 C1023 1.377 . S
C1039 C1037 1.389 . S
C1039 C1040 1.524 . S
C1040 C1039 1.524 . S
C1040 C1041 1.397 . S
C1040 C1045 1.363 . S
C1041 H1012 0.950 . S
C1041 C1040 1.397 . S
C1041 C1042 1.334 . S
C1042 H1013 0.950 . S
C1042 C1041 1.334 . S
C1042 C1043 1.287 . S
C1043 C1042 1.287 . S
C1043 C1044 1.524 . S
C1043 H1046 0.999 . S
C1044 H1014 0.950 . S
C1044 C1043 1.524 . S
C1044 C1045 1.415 . S
C1045 H1015 0.950 . S
C1045 C1040 1.363 . S
C1045 C1044 1.415 . S
H1046 C1043 0.999 . S
H1047 C1028 0.913 . S
H1048 C1066 0.951 . S
H1049 C1068 0.951 . S
H1050 C1070 0.946 1_455 S
H1051 C1071 0.950 . S
H1052 C1073 0.950 . S
H1053 C1076 0.950 . S
H1054 C1077 0.950 . S
H1055 C1079 0.950 . S
H1056 C1080 0.950 . S
H1057 C1081 0.951 . S
H1058 C1083 0.951 . S
H1059 C1085 0.950 1_655 S
H1060 C1086 0.950 . S
H1061 C1088 0.950 . S
H1062 C1091 0.950 . S
H1063 C1092 0.950 . S
H1064 C1094 0.950 . S
H1065 C1095 0.950 . S
C1066 H1048 0.951 . S
C1066 C1067 1.366 . S
C1066 C1068 1.388 . S
C1067 C1066 1.366 . S
C1067 C1071 1.385 . S
C1068 H1049 0.951 . S
C1068 C1066 1.388 . S
C1068 C1069 1.366 . S
C1069 C1068 1.366 . S
C1069 C1070 1.414 . S
C1069 C1072 1.499 . S
C1070 H1050 0.946 1_655 S
C1070 C1069 1.414 . S
C1070 C1071 1.374 . S
C1071 H1051 0.950 . S
C1071 C1067 1.385 . S
C1071 C1070 1.374 . S
C1072 C1069 1.499 . S
C1072 C1073 1.373 . S
C1072 C1074 1.389 1_655 S
C1073 H1052 0.950 . S
C1073 C1072 1.373 . S
C1073 C1089 1.377 . S
C1074 C1072 1.389 1_455 S
C1074 C1075 1.524 . S
C1074 C1088 1.377 . S
C1075 C1074 1.524 . S
C1075 C1076 1.397 . S
C1075 C1080 1.363 . S
C1076 H1053 0.950 . S
C1076 C1075 1.397 . S
C1076 C1077 1.334 . S
C1077 H1054 0.950 . S
C1077 C1076 1.334 . S
C1077 C1078 1.287 . S
C1078 C1077 1.287 . S
C1078 C1079 1.524 . S
C1078 H1097 0.913 . S
C1079 H1055 0.950 . S
C1079 C1078 1.524 . S
C1079 C1080 1.415 . S
C1080 H1056 0.950 . S
C1080 C1075 1.363 . S
C1080 C1079 1.415 . S
C1081 H1057 0.951 . S
C1081 C1082 1.366 . S
C1081 C1083 1.388 . S
C1082 C1081 1.366 . S
C1082 C1086 1.385 . S
C1083 H1058 0.951 . S
C1083 C1081 1.388 . S
C1083 C1084 1.366 . S
C1084 C1083 1.366 . S
C1084 C1085 1.414 . S
C1084 C1087 1.506 . S
C1085 H1059 0.950 1_455 S
C1085 C1084 1.414 . S
C1085 C1086 1.374 . S
C1086 H1060 0.950 . S
C1086 C1082 1.385 . S
C1086 C1085 1.374 . S
C1087 C1084 1.506 . S
C1087 C1088 1.389 . S
C1087 C1089 1.371 1_455 S
C1088 H1061 0.950 . S
C1088 C1074 1.377 . S
C1088 C1087 1.389 . S
C1089 C1073 1.377 . S
C1089 C1087 1.371 1_655 S
C1089 C1090 1.524 . S
C1090 C1089 1.524 . S
C1090 C1091 1.397 . S
C1090 C1095 1.363 . S
C1091 H1062 0.950 . S
C1091 C1090 1.397 . S
C1091 C1092 1.334 . S
C1092 H1063 0.950 . S
C1092 C1091 1.334 . S
C1092 C1093 1.287 . S
C1093 C1092 1.287 . S
C1093 C1094 1.524 . S
C1093 H1096 0.999 . S
C1094 H1064 0.950 . S
C1094 C1093 1.524 . S
C1094 C1095 1.415 . S
C1095 H1065 0.950 . S
C1095 C1090 1.363 . S
C1095 C1094 1.415 . S
H1096 C1093 0.999 . S
H1097 C1078 0.913 . S
H1098 C1116 0.951 . S
H1099 C1118 0.951 . S
H1100 C1120 0.950 . S
H1101 C1121 0.950 . S
H1102 C1123 0.950 . S
H1103 C1126 0.950 . S
H1104 C1127 0.950 . S
H1105 C1129 0.950 . S
H1106 C1130 0.950 . S
H1107 C1131 0.951 . S
H1108 C1133 0.951 . S
H1109 C1135 0.950 . S
H1110 C1136 0.950 . S
H1111 C1138 0.950 . S
H1112 C1141 0.950 . S
H1113 C1142 0.950 1_556 S
H1114 C1144 0.950 . S
H1115 C1145 0.950 . S
C1116 H1098 0.951 . S
C1116 C1117 1.366 . S
C1116 C1118 1.388 . S
C1117 C1116 1.366 . S
C1117 C1121 1.385 . S
C1118 H1099 0.951 . S
C1118 C1116 1.388 . S
C1118 C1119 1.366 . S
C1119 C1118 1.366 . S
C1119 C1120 1.414 . S
C1119 C1122 1.499 . S
C1120 H1100 0.950 . S
C1120 C1119 1.414 . S
C1120 C1121 1.374 . S
C1121 H1101 0.950 . S
C1121 C1117 1.385 . S
C1121 C1120 1.374 . S
C1122 C1119 1.499 . S
C1122 C1123 1.373 . S
C1122 C1124 1.389 . S
C1123 H1102 0.950 . S
C1123 C1122 1.373 . S
C1123 C1139 1.377 . S
C1124 C1122 1.389 . S
C1124 C1125 1.524 . S
C1124 C1138 1.377 . S
C1125 C1124 1.524 . S
C1125 C1126 1.397 . S
C1125 C1130 1.363 . S
C1126 H1103 0.950 . S
C1126 C1125 1.397 . S
C1126 C1127 1.334 . S
C1127 H1104 0.950 . S
C1127 C1126 1.334 . S
C1127 C1128 1.287 . S
C1128 C1127 1.287 . S
C1128 C1129 1.524 . S
C1128 H1147 0.913 . S
C1129 H1105 0.950 . S
C1129 C1128 1.524 . S
C1129 C1130 1.415 . S
C1130 H1106 0.950 . S
C1130 C1125 1.363 . S
C1130 C1129 1.415 . S
C1131 H1107 0.951 . S
C1131 C1132 1.366 . S
C1131 C1133 1.388 . S
C1132 C1131 1.366 . S
C1132 C1136 1.385 . S
C1133 H1108 0.951 . S
C1133 C1131 1.388 . S
C1133 C1134 1.366 . S
C1134 C1133 1.366 . S
C1134 C1135 1.414 . S
C1134 C1137 1.499 1_556 S
C1135 H1109 0.950 . S
C1135 C1134 1.414 . S
C1135 C1136 1.374 . S
C1136 H1110 0.950 . S
C1136 C1132 1.385 . S
C1136 C1135 1.374 . S
C1137 C1134 1.499 1_554 S
C1137 C1138 1.373 . S
C1137 C1139 1.389 . S
C1138 H1111 0.950 . S
C1138 C1124 1.377 . S
C1138 C1137 1.373 . S
C1139 C1123 1.377 . S
C1139 C1137 1.389 . S
C1139 C1140 1.524 . S
C1140 C1139 1.524 . S
C1140 C1141 1.397 . S
C1140 C1145 1.363 . S
C1141 H1112 0.950 . S
C1141 C1140 1.397 . S
C1141 C1142 1.334 . S
C1142 H1113 0.950 1_554 S
C1142 C1141 1.334 . S
C1142 C1143 1.287 . S
C1143 C1142 1.287 . S
C1143 C1144 1.524 . S
C1143 H1146 0.999 . S
C1144 H1114 0.950 . S
C1144 C1143 1.524 . S
C1144 C1145 1.415 . S
C1145 H1115 0.950 . S
C1145 C1140 1.363 . S
C1145 C1144 1.415 . S
H1146 C1143 0.999 . S
H1147 C1128 0.913 . S
H1148 C1166 0.951 . S
H1149 C1168 0.951 . S
H1150 C1170 0.950 . S
H1151 C1171 0.950 . S
H1152 C1173 0.950 . S
H1153 C1176 0.950 . S
H1154 C1177 0.950 . S
H1155 C1179 0.950 . S
H1156 C1180 0.950 . S
H1157 C1181 0.951 . S
H1158 C1183 0.951 . S
H1159 C1185 0.950 . S
H1160 C1186 0.950 . S
H1161 C1188 0.950 . S
H1162 C1191 0.950 . S
H1163 C1192 0.950 . S
H1164 C1194 0.950 . S
H1165 C1195 0.950 . S
C1166 H1148 0.951 . S
C1166 C1167 1.366 . S
C1166 C1168 1.388 . S
C1167 C1166 1.366 . S
C1167 C1171 1.385 . S
C1168 H1149 0.951 . S
C1168 C1166 1.388 . S
C1168 C1169 1.366 . S
C1169 C1168 1.366 . S
C1169 C1170 1.414 . S
C1169 C1172 1.499 . S
C1170 H1150 0.950 . S
C1170 C1169 1.414 . S
C1170 C1171 1.374 . S
C1171 H1151 0.950 . S
C1171 C1167 1.385 . S
C1171 C1170 1.374 . S
C1172 C1169 1.499 . S
C1172 C1173 1.373 . S
C1172 C1174 1.389 . S
C1173 H1152 0.950 . S
C1173 C1172 1.373 . S
C1173 C1189 1.377 . S
C1174 C1172 1.389 . S
C1174 C1175 1.524 . S
C1174 C1188 1.377 . S
C1175 C1174 1.524 . S
C1175 C1176 1.397 . S
C1175 C1180 1.363 . S
C1176 H1153 0.950 . S
C1176 C1175 1.397 . S
C1176 C1177 1.334 . S
C1177 H1154 0.950 . S
C1177 C1176 1.334 . S
C1177 C1178 1.287 . S
C1178 C1177 1.287 . S
C1178 C1179 1.524 . S
C1178 H1197 0.913 . S
C1179 H1155 0.950 . S
C1179 C1178 1.524 . S
C1179 C1180 1.415 . S
C1180 H1156 0.950 . S
C1180 C1175 1.363 . S
C1180 C1179 1.415 . S
C1181 H1157 0.951 . S
C1181 C1182 1.366 . S
C1181 C1183 1.388 . S
C1182 C1181 1.366 . S
C1182 C1186 1.385 . S
C1183 H1158 0.951 . S
C1183 C1181 1.388 . S
C1183 C1184 1.366 . S
C1184 C1183 1.366 . S
C1184 C1185 1.414 . S
C1184 C1187 1.499 . S
C1185 H1159 0.950 . S
C1185 C1184 1.414 . S
C1185 C1186 1.374 . S
C1186 H1160 0.950 . S
C1186 C1182 1.385 . S
C1186 C1185 1.374 . S
C1187 C1184 1.499 . S
C1187 C1188 1.373 . S
C1187 C1189 1.389 . S
C1188 H1161 0.950 . S
C1188 C1174 1.377 . S
C1188 C1187 1.373 . S
C1189 C1173 1.377 . S
C1189 C1187 1.389 . S
C1189 C1190 1.524 . S
C1190 C1189 1.524 . S
C1190 C1191 1.397 . S
C1190 C1195 1.363 . S
C1191 H1162 0.950 . S
C1191 C1190 1.397 . S
C1191 C1192 1.334 . S
C1192 H1163 0.950 . S
C1192 C1191 1.334 . S
C1192 C1193 1.287 . S
C1193 C1192 1.287 . S
C1193 C1194 1.524 . S
C1193 H1196 0.999 . S
C1194 H1164 0.950 . S
C1194 C1193 1.524 . S
C1194 C1195 1.415 . S
C1195 H1165 0.950 . S
C1195 C1190 1.363 . S
C1195 C1194 1.415 . S
H1196 C1193 0.999 . S
H1197 C1178 0.913 . S
H1198 C1216 0.951 . S
H1199 C1218 0.951 . S
H1200 C1220 0.950 . S
H1201 C1221 0.950 . S
H1202 C1223 0.950 . S
H1203 C1226 0.950 . S
H1204 C1227 0.950 . S
H1205 C1229 0.950 . S
H1206 C1230 0.950 . S
H1207 C1231 0.951 . S
H1208 C1233 0.951 . S
H1209 C1235 0.950 . S
H1210 C1236 0.950 . S
H1211 C1238 0.950 . S
H1212 C1241 0.950 . S
H1213 C1242 0.950 . S
H1214 C1244 0.950 . S
H1215 C1245 0.950 . S
C1216 H1198 0.951 . S
C1216 C1217 1.366 . S
C1216 C1218 1.388 . S
C1217 C1216 1.366 . S
C1217 C1221 1.385 . S
C1218 H1199 0.951 . S
C1218 C1216 1.388 . S
C1218 C1219 1.366 . S
C1219 C1218 1.366 . S
C1219 C1220 1.414 . S
C1219 C1222 1.499 . S
C1220 H1200 0.950 . S
C1220 C1219 1.414 . S
C1220 C1221 1.374 . S
C1221 H1201 0.950 . S
C1221 C1217 1.385 . S
C1221 C1220 1.374 . S
C1222 C1219 1.499 . S
C1222 C1223 1.373 . S
C1222 C1224 1.389 . S
C1223 H1202 0.950 . S
C1223 C1222 1.373 . S
C1223 C1239 1.377 . S
C1224 C1222 1.389 . S
C1224 C1225 1.524 . S
C1224 C1238 1.377 . S
C1225 C1224 1.524 . S
C1225 C1226 1.397 . S
C1225 C1230 1.363 . S
C1226 H1203 0.950 . S
C1226 C1225 1.397 . S
C1226 C1227 1.334 . S
C1227 H1204 0.950 . S
C1227 C1226 1.334 . S
C1227 C1228 1.287 . S
C1228 C1227 1.287 . S
C1228 C1229 1.524 . S
C1228 H1247 0.913 . S
C1229 H1205 0.950 . S
C1229 C1228 1.524 . S
C1229 C1230 1.415 . S
C1230 H1206 0.950 . S
C1230 C1225 1.363 . S
C1230 C1229 1.415 . S
C1231 H1207 0.951 . S
C1231 C1232 1.366 . S
C1231 C1233 1.388 . S
C1232 C1231 1.366 . S
C1232 C1236 1.385 . S
C1233 H1208 0.951 . S
C1233 C1231 1.388 . S
C1233 C1234 1.366 . S
C1234 C1233 1.366 . S
C1234 C1235 1.414 . S
C1234 C1237 1.499 . S
C1235 H1209 0.950 . S
C1235 C1234 1.414 . S
C1235 C1236 1.374 . S
C1236 H1210 0.950 . S
C1236 C1232 1.385 . S
C1236 C1235 1.374 . S
C1237 C1234 1.499 . S
C1237 C1238 1.373 . S
C1237 C1239 1.389 . S
C1238 H1211 0.950 . S
C1238 C1224 1.377 . S
C1238 C1237 1.373 . S
C1239 C1223 1.377 . S
C1239 C1237 1.389 . S
C1239 C1240 1.524 . S
C1240 C1239 1.524 . S
C1240 C1241 1.397 . S
C1240 C1245 1.363 . S
C1241 H1212 0.950 . S
C1241 C1240 1.397 . S
C1241 C1242 1.334 . S
C1242 H1213 0.950 . S
C1242 C1241 1.334 . S
C1242 C1243 1.287 . S
C1243 C1242 1.287 . S
C1243 C1244 1.524 . S
C1243 H1246 0.999 . S
C1244 H1214 0.950 . S
C1244 C1243 1.524 . S
C1244 C1245 1.415 . S
C1245 H1215 0.950 . S
C1245 C1240 1.363 . S
C1245 C1244 1.415 . S
H1246 C1243 0.999 . S
H1247 C1228 0.913 . S
H1248 C1266 0.951 . S
H1249 C1268 0.951 . S
H1250 C1270 0.950 . S
H1251 C1271 0.950 . S
H1252 C1273 0.950 . S
H1253 C1276 0.950 . S
H1254 C1277 0.950 . S
H1255 C1279 0.950 . S
H1256 C1280 0.950 . S
H1257 C1281 0.951 . S
H1258 C1283 0.951 . S
H1259 C1285 0.950 . S
H1260 C1286 0.950 . S
H1261 C1288 0.950 . S
H1262 C1291 0.950 . S
H1263 C1292 0.950 . S
H1264 C1294 0.950 . S
H1265 C1295 0.950 . S
C1266 H1248 0.951 . S
C1266 C1267 1.366 . S
C1266 C1268 1.388 . S
C1267 C1266 1.366 . S
C1267 C1271 1.385 . S
C1268 H1249 0.951 . S
C1268 C1266 1.388 . S
C1268 C1269 1.366 . S
C1269 C1268 1.366 . S
C1269 C1270 1.414 . S
C1269 C1272 1.499 . S
C1270 H1250 0.950 . S
C1270 C1269 1.414 . S
C1270 C1271 1.374 . S
C1271 H1251 0.950 . S
C1271 C1267 1.385 . S
C1271 C1270 1.374 . S
C1272 C1269 1.499 . S
C1272 C1273 1.373 . S
C1272 C1274 1.389 . S
C1273 H1252 0.950 . S
C1273 C1272 1.373 . S
C1273 C1289 1.377 . S
C1274 C1272 1.389 . S
C1274 C1275 1.524 . S
C1274 C1288 1.377 . S
C1275 C1274 1.524 . S
C1275 C1276 1.397 . S
C1275 C1280 1.363 . S
C1276 H1253 0.950 . S
C1276 C1275 1.397 . S
C1276 C1277 1.334 . S
C1277 H1254 0.950 . S
C1277 C1276 1.334 . S
C1277 C1278 1.287 . S
C1278 C1277 1.287 . S
C1278 C1279 1.524 . S
C1278 H1297 0.913 . S
C1279 H1255 0.950 . S
C1279 C1278 1.524 . S
C1279 C1280 1.415 . S
C1280 H1256 0.950 . S
C1280 C1275 1.363 . S
C1280 C1279 1.415 . S
C1281 H1257 0.951 . S
C1281 C1282 1.366 . S
C1281 C1283 1.388 . S
C1282 C1281 1.366 . S
C1282 C1286 1.385 . S
C1283 H1258 0.951 . S
C1283 C1281 1.388 . S
C1283 C1284 1.366 . S
C1284 C1283 1.366 . S
C1284 C1285 1.414 . S
C1284 C1287 1.499 . S
C1285 H1259 0.950 . S
C1285 C1284 1.414 . S
C1285 C1286 1.374 . S
C1286 H1260 0.950 . S
C1286 C1282 1.385 . S
C1286 C1285 1.374 . S
C1287 C1284 1.499 . S
C1287 C1288 1.373 . S
C1287 C1289 1.389 . S
C1288 H1261 0.950 . S
C1288 C1274 1.377 . S
C1288 C1287 1.373 . S
C1289 C1273 1.377 . S
C1289 C1287 1.389 . S
C1289 C1290 1.524 . S
C1290 C1289 1.524 . S
C1290 C1291 1.397 . S
C1290 C1295 1.363 . S
C1291 H1262 0.950 . S
C1291 C1290 1.397 . S
C1291 C1292 1.334 . S
C1292 H1263 0.950 . S
C1292 C1291 1.334 . S
C1292 C1293 1.287 . S
C1293 C1292 1.287 . S
C1293 C1294 1.524 . S
C1293 H1296 0.999 . S
C1294 H1264 0.950 . S
C1294 C1293 1.524 . S
C1294 C1295 1.415 . S
C1295 H1265 0.950 . S
C1295 C1290 1.363 . S
C1295 C1294 1.415 . S
H1296 C1293 0.999 . S
H1297 C1278 0.913 . S
H1298 C1316 0.951 . S
H1299 C1318 0.951 . S
H1300 C1320 0.950 . S
H1301 C1321 0.950 . S
H1302 C1323 0.950 . S
H1303 C1326 0.950 . S
H1304 C1327 0.950 . S
H1305 C1329 0.950 . S
H1306 C1330 0.950 . S
H1307 C1331 0.951 . S
H1308 C1333 0.951 . S
H1309 C1335 0.950 . S
H1310 C1336 0.950 . S
H1311 C1338 0.950 . S
H1312 C1341 0.950 . S
H1313 C1342 0.950 . S
H1314 C1344 0.950 . S
H1315 C1345 0.950 . S
C1316 H1298 0.951 . S
C1316 C1317 1.366 . S
C1316 C1318 1.388 . S
C1317 C1316 1.366 . S
C1317 C1321 1.385 . S
C1318 H1299 0.951 . S
C1318 C1316 1.388 . S
C1318 C1319 1.366 . S
C1319 C1318 1.366 . S
C1319 C1320 1.414 . S
C1319 C1322 1.499 . S
C1320 H1300 0.950 . S
C1320 C1319 1.414 . S
C1320 C1321 1.374 . S
C1321 H1301 0.950 . S
C1321 C1317 1.385 . S
C1321 C1320 1.374 . S
C1322 C1319 1.499 . S
C1322 C1323 1.373 . S
C1322 C1324 1.389 . S
C1323 H1302 0.950 . S
C1323 C1322 1.373 . S
C1323 C1339 1.377 . S
C1324 C1322 1.389 . S
C1324 C1325 1.524 . S
C1324 C1338 1.377 . S
C1325 C1324 1.524 . S
C1325 C1326 1.397 . S
C1325 C1330 1.363 . S
C1326 H1303 0.950 . S
C1326 C1325 1.397 . S
C1326 C1327 1.334 . S
C1327 H1304 0.950 . S
C1327 C1326 1.334 . S
C1327 C1328 1.287 . S
C1328 C1327 1.287 . S
C1328 C1329 1.524 . S
C1328 H1347 0.913 . S
C1329 H1305 0.950 . S
C1329 C1328 1.524 . S
C1329 C1330 1.415 . S
C1330 H1306 0.950 . S
C1330 C1325 1.363 . S
C1330 C1329 1.415 . S
C1331 H1307 0.951 . S
C1331 C1332 1.366 . S
C1331 C1333 1.388 . S
C1332 C1331 1.366 . S
C1332 C1336 1.385 . S
C1333 H1308 0.951 . S
C1333 C1331 1.388 . S
C1333 C1334 1.366 . S
C1334 C1333 1.366 . S
C1334 C1335 1.414 . S
C1334 C1337 1.499 . S
C1335 H1309 0.950 . S
C1335 C1334 1.414 . S
C1335 C1336 1.374 . S
C1336 H1310 0.950 . S
C1336 C1332 1.385 . S
C1336 C1335 1.374 . S
C1337 C1334 1.499 . S
C1337 C1338 1.373 . S
C1337 C1339 1.389 . S
C1338 H1311 0.950 . S
C1338 C1324 1.377 . S
C1338 C1337 1.373 . S
C1339 C1323 1.377 . S
C1339 C1337 1.389 . S
C1339 C1340 1.524 . S
C1340 C1339 1.524 . S
C1340 C1341 1.397 . S
C1340 C1345 1.363 . S
C1341 H1312 0.950 . S
C1341 C1340 1.397 . S
C1341 C1342 1.334 . S
C1342 H1313 0.950 . S
C1342 C1341 1.334 . S
C1342 C1343 1.287 . S
C1343 C1342 1.287 . S
C1343 C1344 1.524 . S
C1343 H1346 0.999 . S
C1344 H1314 0.950 . S
C1344 C1343 1.524 . S
C1344 C1345 1.415 . S
C1345 H1315 0.950 . S
C1345 C1340 1.363 . S
C1345 C1344 1.415 . S
H1346 C1343 0.999 . S
H1347 C1328 0.913 . S
H1348 C1366 0.951 . S
H1349 C1368 0.951 . S
H1350 C1370 0.950 . S
H1351 C1371 0.950 . S
H1352 C1373 0.950 . S
H1353 C1376 0.950 . S
H1354 C1377 0.950 . S
H1355 C1379 0.950 . S
H1356 C1380 0.950 . S
H1357 C1381 0.951 . S
H1358 C1383 0.951 . S
H1359 C1385 0.950 . S
H1360 C1386 0.950 . S
H1361 C1388 0.950 . S
H1362 C1391 0.898 1_655 S
H1363 C1392 0.950 . S
H1364 C1394 0.950 . S
H1365 C1395 0.950 . S
C1366 H1348 0.951 . S
C1366 C1367 1.366 1_655 S
C1366 C1368 1.388 . S
C1367 C1366 1.366 1_455 S
C1367 C1371 1.385 . S
C1368 H1349 0.951 . S
C1368 C1366 1.388 . S
C1368 C1369 1.366 1_655 S
C1369 C1368 1.366 1_455 S
C1369 C1370 1.414 . S
C1369 C1372 1.499 . S
C1370 H1350 0.950 . S
C1370 C1369 1.414 . S
C1370 C1371 1.374 . S
C1371 H1351 0.950 . S
C1371 C1367 1.385 . S
C1371 C1370 1.374 . S
C1372 C1369 1.499 . S
C1372 C1373 1.373 . S
C1372 C1374 1.389 1_455 S
C1373 H1352 0.950 . S
C1373 C1372 1.373 . S
C1373 C1389 1.377 . S
C1374 C1372 1.389 1_655 S
C1374 C1375 1.524 . S
C1374 C1388 1.377 . S
C1375 C1374 1.524 . S
C1375 C1376 1.397 . S
C1375 C1380 1.363 . S
C1376 H1353 0.950 . S
C1376 C1375 1.397 . S
C1376 C1377 1.334 . S
C1377 H1354 0.950 . S
C1377 C1376 1.334 . S
C1377 C1378 1.287 . S
C1378 C1377 1.287 . S
C1378 C1379 1.524 . S
C1378 H1397 0.913 . S
C1379 H1355 0.950 . S
C1379 C1378 1.524 . S
C1379 C1380 1.415 . S
C1380 H1356 0.950 . S
C1380 C1375 1.363 . S
C1380 C1379 1.415 . S
C1381 H1357 0.951 . S
C1381 C1382 1.366 1_455 S
C1381 C1383 1.388 . S
C1382 C1381 1.366 1_655 S
C1382 C1386 1.385 . S
C1383 H1358 0.951 . S
C1383 C1381 1.388 . S
C1383 C1384 1.366 1_455 S
C1384 C1383 1.366 1_655 S
C1384 C1385 1.414 . S
C1384 C1387 1.499 . S
C1385 H1359 0.950 . S
C1385 C1384 1.414 . S
C1385 C1386 1.374 . S
C1386 H1360 0.950 . S
C1386 C1382 1.385 . S
C1386 C1385 1.374 . S
C1387 C1384 1.499 . S
C1387 C1388 1.373 . S
C1387 C1389 1.389 1_655 S
C1388 H1361 0.950 . S
C1388 C1374 1.377 . S
C1388 C1387 1.373 . S
C1389 C1373 1.377 . S
C1389 C1387 1.389 1_455 S
C1389 C1390 1.524 . S
C1390 C1389 1.524 . S
C1390 C1391 1.397 . S
C1390 C1395 1.363 . S
C1391 H1362 0.898 1_455 S
C1391 C1390 1.397 . S
C1391 C1392 1.334 . S
C1392 H1363 0.950 . S
C1392 C1391 1.334 . S
C1392 C1393 1.287 . S
C1393 C1392 1.287 . S
C1393 C1394 1.524 . S
C1393 H1396 0.999 . S
C1394 H1364 0.950 . S
C1394 C1393 1.524 . S
C1394 C1395 1.415 . S
C1395 H1365 0.950 . S
C1395 C1390 1.363 . S
C1395 C1394 1.415 . S
H1396 C1393 0.999 . S
H1397 C1378 0.913 . S
H1398 C1416 0.951 . S
H1399 C1418 0.951 . S
H1400 C1420 0.950 . S
H1401 C1421 0.950 . S
H1402 C1423 0.950 . S
H1403 C1426 0.950 . S
H1404 C1427 0.950 . S
H1405 C1429 0.950 . S
H1406 C1430 0.950 . S
H1407 C1431 0.951 . S
H1408 C1433 0.951 . S
H1409 C1435 0.950 . S
H1410 C1436 0.950 . S
H1411 C1438 0.950 . S
H1412 C1441 0.950 . S
H1413 C1442 0.950 . S
H1414 C1444 0.950 . S
H1415 C1445 0.950 . S
C1416 H1398 0.951 . S
C1416 C1417 1.366 . S
C1416 C1418 1.388 . S
C1417 C1416 1.366 . S
C1417 C1421 1.385 . S
C1418 H1399 0.951 . S
C1418 C1416 1.388 . S
C1418 C1419 1.366 . S
C1419 C1418 1.366 . S
C1419 C1420 1.414 . S
C1419 C1422 1.499 . S
C1420 H1400 0.950 . S
C1420 C1419 1.414 . S
C1420 C1421 1.374 . S
C1421 H1401 0.950 . S
C1421 C1417 1.385 . S
C1421 C1420 1.374 . S
C1422 C1419 1.499 . S
C1422 C1423 1.373 . S
C1422 C1424 1.389 . S
C1423 H1402 0.950 . S
C1423 C1422 1.373 . S
C1423 C1439 1.377 . S
C1424 C1422 1.389 . S
C1424 C1425 1.524 . S
C1424 C1438 1.377 . S
C1425 C1424 1.524 . S
C1425 C1426 1.397 . S
C1425 C1430 1.363 . S
C1426 H1403 0.950 . S
C1426 C1425 1.397 . S
C1426 C1427 1.334 . S
C1427 H1404 0.950 . S
C1427 C1426 1.334 . S
C1427 C1428 1.287 . S
C1428 C1427 1.287 . S
C1428 C1429 1.524 . S
C1428 H1447 0.913 . S
C1429 H1405 0.950 . S
C1429 C1428 1.524 . S
C1429 C1430 1.415 . S
C1430 H1406 0.950 . S
C1430 C1425 1.363 . S
C1430 C1429 1.415 . S
C1431 H1407 0.951 . S
C1431 C1432 1.366 . S
C1431 C1433 1.388 . S
C1432 C1431 1.366 . S
C1432 C1436 1.385 . S
C1433 H1408 0.951 . S
C1433 C1431 1.388 . S
C1433 C1434 1.366 . S
C1434 C1433 1.366 . S
C1434 C1435 1.414 . S
C1434 C1437 1.499 1_556 S
C1435 H1409 0.950 . S
C1435 C1434 1.414 . S
C1435 C1436 1.374 . S
C1436 H1410 0.950 . S
C1436 C1432 1.385 . S
C1436 C1435 1.374 . S
C1437 C1434 1.499 1_554 S
C1437 C1438 1.373 . S
C1437 C1439 1.389 . S
C1438 H1411 0.950 . S
C1438 C1424 1.377 . S
C1438 C1437 1.373 . S
C1439 C1423 1.377 . S
C1439 C1437 1.389 . S
C1439 C1440 1.524 . S
C1440 C1439 1.524 . S
C1440 C1441 1.397 1_554 S
C1440 C1445 1.363 . S
C1441 H1412 0.950 . S
C1441 C1440 1.397 1_556 S
C1441 C1442 1.334 . S
C1442 H1413 0.950 . S
C1442 C1441 1.334 . S
C1442 C1443 1.287 . S
C1443 C1442 1.287 . S
C1443 C1444 1.524 1_556 S
C1443 H1446 0.999 . S
C1444 H1414 0.950 . S
C1444 C1443 1.524 1_554 S
C1444 C1445 1.415 . S
C1445 H1415 0.950 . S
C1445 C1440 1.363 . S
C1445 C1444 1.415 . S
H1446 C1443 0.999 . S
H1447 C1428 0.913 . S
H1448 C1466 0.951 . S
H1449 C1468 0.951 . S
H1450 C1470 0.950 . S
H1451 C1471 0.950 . S
H1452 C1473 0.950 . S
H1453 C1476 0.950 . S
H1454 C1477 0.950 . S
H1455 C1479 0.950 . S
H1456 C1480 0.950 . S
H1457 C1481 0.951 . S
H1458 C1483 0.951 . S
H1459 C1485 0.950 . S
H1460 C1486 0.950 . S
H1461 C1488 0.950 . S
H1462 C1491 0.950 . S
H1463 C1492 0.950 . S
H1464 C1494 0.950 . S
H1465 C1495 0.950 . S
C1466 H1448 0.951 . S
C1466 C1467 1.366 . S
C1466 C1468 1.388 . S
C1467 C1466 1.366 . S
C1467 C1471 1.385 . S
C1468 H1449 0.951 . S
C1468 C1466 1.388 . S
C1468 C1469 1.366 . S
C1469 C1468 1.366 . S
C1469 C1470 1.414 . S
C1469 C1472 1.499 . S
C1470 H1450 0.950 . S
C1470 C1469 1.414 . S
C1470 C1471 1.374 . S
C1471 H1451 0.950 . S
C1471 C1467 1.385 . S
C1471 C1470 1.374 . S
C1472 C1469 1.499 . S
C1472 C1473 1.373 . S
C1472 C1474 1.389 . S
C1473 H1452 0.950 . S
C1473 C1472 1.373 . S
C1473 C1489 1.377 . S
C1474 C1472 1.389 . S
C1474 C1475 1.524 . S
C1474 C1488 1.377 . S
C1475 C1474 1.524 . S
C1475 C1476 1.397 . S
C1475 C1480 1.363 . S
C1476 H1453 0.950 . S
C1476 C1475 1.397 . S
C1476 C1477 1.334 . S
C1477 H1454 0.950 . S
C1477 C1476 1.334 . S
C1477 C1478 1.287 . S
C1478 C1477 1.287 . S
C1478 C1479 1.524 . S
C1478 H1497 0.913 . S
C1479 H1455 0.950 . S
C1479 C1478 1.524 . S
C1479 C1480 1.415 . S
C1480 H1456 0.950 . S
C1480 C1475 1.363 . S
C1480 C1479 1.415 . S
C1481 H1457 0.951 . S
C1481 C1482 1.366 . S
C1481 C1483 1.388 . S
C1482 C1481 1.366 . S
C1482 C1486 1.385 . S
C1483 H1458 0.951 . S
C1483 C1481 1.388 . S
C1483 C1484 1.366 . S
C1484 C1483 1.366 . S
C1484 C1485 1.414 . S
C1484 C1487 1.499 . S
C1485 H1459 0.950 . S
C1485 C1484 1.414 . S
C1485 C1486 1.374 . S
C1486 H1460 0.950 . S
C1486 C1482 1.385 . S
C1486 C1485 1.374 . S
C1487 C1484 1.499 . S
C1487 C1488 1.373 . S
C1487 C1489 1.389 . S
C1488 H1461 0.950 . S
C1488 C1474 1.377 . S
C1488 C1487 1.373 . S
C1489 C1473 1.377 . S
C1489 C1487 1.389 . S
C1489 C1490 1.524 . S
C1490 C1489 1.524 . S
C1490 C1491 1.397 . S
C1490 C1495 1.363 . S
C1491 H1462 0.950 . S
C1491 C1490 1.397 . S
C1491 C1492 1.334 . S
C1492 H1463 0.950 . S
C1492 C1491 1.334 . S
C1492 C1493 1.287 . S
C1493 C1492 1.287 . S
C1493 C1494 1.524 . S
C1493 H1496 0.999 . S
C1494 H1464 0.950 . S
C1494 C1493 1.524 . S
C1494 C1495 1.415 . S
C1495 H1465 0.950 . S
C1495 C1490 1.363 . S
C1495 C1494 1.415 . S
H1496 C1493 0.999 . S
H1497 C1478 0.913 . S
H1498 C1516 0.951 . S
H1499 C1518 0.951 . S
H1500 C1520 0.950 . S
H1501 C1521 0.950 . S
H1502 C1523 0.950 . S
H1503 C1526 0.950 . S
H1504 C1527 0.950 . S
H1505 C1529 0.950 . S
H1506 C1530 0.950 . S
H1507 C1531 0.951 . S
H1508 C1533 0.951 . S
H1509 C1535 0.950 . S
H1510 C1536 0.950 . S
H1511 C1538 0.950 . S
H1512 C1541 0.950 . S
H1513 C1542 0.950 . S
H1514 C1544 0.950 . S
H1515 C1545 0.950 . S
C1516 H1498 0.951 . S
C1516 C1517 1.366 . S
C1516 C1518 1.388 . S
C1517 C1516 1.366 . S
C1517 C1521 1.385 . S
C1518 H1499 0.951 . S
C1518 C1516 1.388 . S
C1518 C1519 1.366 . S
C1519 C1518 1.366 . S
C1519 C1520 1.414 . S
C1519 C1522 1.499 . S
C1520 H1500 0.950 . S
C1520 C1519 1.414 . S
C1520 C1521 1.374 . S
C1521 H1501 0.950 . S
C1521 C1517 1.385 . S
C1521 C1520 1.374 . S
C1522 C1519 1.499 . S
C1522 C1523 1.373 . S
C1522 C1524 1.389 . S
C1523 H1502 0.950 . S
C1523 C1522 1.373 . S
C1523 C1539 1.377 . S
C1524 C1522 1.389 . S
C1524 C1525 1.524 . S
C1524 C1538 1.377 . S
C1525 C1524 1.524 . S
C1525 C1526 1.397 . S
C1525 C1530 1.363 . S
C1526 H1503 0.950 . S
C1526 C1525 1.397 . S
C1526 C1527 1.334 . S
C1527 H1504 0.950 . S
C1527 C1526 1.334 . S
C1527 C1528 1.287 . S
C1528 C1527 1.287 . S
C1528 C1529 1.524 . S
C1528 H1547 0.913 . S
C1529 H1505 0.950 . S
C1529 C1528 1.524 . S
C1529 C1530 1.415 . S
C1530 H1506 0.950 . S
C1530 C1525 1.363 . S
C1530 C1529 1.415 . S
C1531 H1507 0.951 . S
C1531 C1532 1.366 . S
C1531 C1533 1.388 . S
C1532 C1531 1.366 . S
C1532 C1536 1.385 . S
C1533 H1508 0.951 . S
C1533 C1531 1.388 . S
C1533 C1534 1.366 . S
C1534 C1533 1.366 . S
C1534 C1535 1.414 . S
C1534 C1537 1.499 . S
C1535 H1509 0.950 . S
C1535 C1534 1.414 . S
C1535 C1536 1.374 . S
C1536 H1510 0.950 . S
C1536 C1532 1.385 . S
C1536 C1535 1.374 . S
C1537 C1534 1.499 . S
C1537 C1538 1.373 . S
C1537 C1539 1.389 . S
C1538 H1511 0.950 . S
C1538 C1524 1.377 . S
C1538 C1537 1.373 . S
C1539 C1523 1.377 . S
C1539 C1537 1.389 . S
C1539 C1540 1.524 . S
C1540 C1539 1.524 . S
C1540 C1541 1.397 . S
C1540 C1545 1.363 . S
C1541 H1512 0.950 . S
C1541 C1540 1.397 . S
C1541 C1542 1.334 . S
C1542 H1513 0.950 . S
C1542 C1541 1.334 . S
C1542 C1543 1.287 . S
C1543 C1542 1.287 . S
C1543 C1544 1.524 . S
C1543 H1546 0.999 . S
C1544 H1514 0.950 . S
C1544 C1543 1.524 . S
C1544 C1545 1.415 . S
C1545 H1515 0.950 . S
C1545 C1540 1.363 . S
C1545 C1544 1.415 . S
H1546 C1543 0.999 . S
H1547 C1528 0.913 . S
H1548 C1566 0.951 . S
H1549 C1568 0.951 . S
H1550 C1570 0.950 . S
H1551 C1571 0.964 . S
H1552 C1573 0.950 . S
H1553 C1576 0.950 . S
H1554 C1577 0.950 . S
H1555 C1579 0.929 1_455 S
H1556 C1580 0.946 . S
H1557 C1581 0.951 . S
H1558 C1583 0.951 . S
H1559 C1585 0.950 . S
H1560 C1586 0.950 1_455 S
H1561 C1588 0.950 . S
H1562 C1591 0.950 . S
H1563 C1592 0.950 . S
H1564 C1594 0.950 1_655 S
H1565 C1595 0.950 . S
C1566 H1548 0.951 . S
C1566 C1567 1.366 . S
C1566 C1568 1.388 . S
C1567 C1566 1.366 . S
C1567 C1571 1.366 1_455 S
C1568 H1549 0.951 . S
C1568 C1566 1.388 . S
C1568 C1569 1.366 . S
C1569 C1568 1.366 . S
C1569 C1570 1.414 1_455 S
C1569 C1572 1.506 . S
C1570 H1550 0.950 . S
C1570 C1569 1.414 1_655 S
C1570 C1571 1.379 . S
C1571 H1551 0.964 . S
C1571 C1567 1.366 1_655 S
C1571 C1570 1.379 . S
C1572 C1569 1.506 . S
C1572 C1573 1.378 . S
C1572 C1574 1.382 1_455 S
C1573 H1552 0.950 . S
C1573 C1572 1.378 . S
C1573 C1589 1.386 . S
C1574 C1572 1.382 1_655 S
C1574 C1575 1.524 . S
C1574 C1588 1.377 . S
C1575 C1574 1.524 . S
C1575 C1576 1.397 . S
C1575 C1580 1.366 1_655 S
C1576 H1553 0.950 . S
C1576 C1575 1.397 . S
C1576 C1577 1.334 . S
C1577 H1554 0.950 . S
C1577 C1576 1.334 . S
C1577 C1578 1.287 . S
C1578 C1577 1.287 . S
C1578 C1579 1.524 . S
C1578 H1597 0.913 . S
C1579 H1555 0.929 1_655 S
C1579 C1578 1.524 . S
C1579 C1580 1.417 1_655 S
C1580 H1556 0.946 . S
C1580 C1575 1.366 1_455 S
C1580 C1579 1.417 1_455 S
C1581 H1557 0.951 . S
C1581 C1582 1.366 . S
C1581 C1583 1.388 . S
C1582 C1581 1.366 . S
C1582 C1586 1.385 . S
C1583 H1558 0.951 . S
C1583 C1581 1.388 . S
C1583 C1584 1.366 . S
C1584 C1583 1.366 . S
C1584 C1585 1.414 1_655 S
C1584 C1587 1.499 . S
C1585 H1559 0.950 . S
C1585 C1584 1.414 1_455 S
C1585 C1586 1.374 1_455 S
C1586 H1560 0.950 1_655 S
C1586 C1582 1.385 . S
C1586 C1585 1.374 1_655 S
C1587 C1584 1.499 . S
C1587 C1588 1.373 . S
C1587 C1589 1.374 1_655 S
C1588 H1561 0.950 . S
C1588 C1574 1.377 . S
C1588 C1587 1.373 . S
C1589 C1573 1.386 . S
C1589 C1587 1.374 1_455 S
C1589 C1590 1.543 . S
C1590 C1589 1.543 . S
C1590 C1591 1.397 . S
C1590 C1595 1.363 1_455 S
C1591 H1562 0.950 . S
C1591 C1590 1.397 . S
C1591 C1592 1.334 . S
C1592 H1563 0.950 . S
C1592 C1591 1.334 . S
C1592 C1593 1.287 . S
C1593 C1592 1.287 . S
C1593 C1594 1.524 . S
C1593 H1596 0.999 . S
C1594 H1564 0.950 1_455 S
C1594 C1593 1.524 . S
C1594 C1595 1.415 1_455 S
C1595 H1565 0.950 . S
C1595 C1590 1.363 1_655 S
C1595 C1594 1.415 1_655 S
H1596 C1593 0.999 . S
H1597 C1578 0.913 . S
H1598 C1616 0.951 . S
H1599 C1618 0.951 . S
H1600 C1620 0.950 . S
H1601 C1621 0.950 . S
H1602 C1623 0.950 . S
H1603 C1626 0.950 1_554 S
H1604 C1627 0.950 . S
H1605 C1629 0.950 . S
H1606 C1630 0.950 . S
H1607 C1631 0.951 . S
H1608 C1633 0.951 . S
H1609 C1635 0.950 . S
H1610 C1636 0.950 . S
H1611 C1638 0.950 . S
H1612 C1641 0.950 . S
H1613 C1642 0.950 . S
H1614 C1644 0.950 . S
H1615 C1645 0.950 . S
C1616 H1598 0.951 . S
C1616 C1617 1.366 . S
C1616 C1618 1.388 . S
C1617 C1616 1.366 . S
C1617 C1621 1.385 . S
C1618 H1599 0.951 . S
C1618 C1616 1.388 . S
C1618 C1619 1.366 . S
C1619 C1618 1.366 . S
C1619 C1620 1.414 . S
C1619 C1622 1.499 1_554 S
C1620 H1600 0.950 . S
C1620 C1619 1.414 . S
C1620 C1621 1.374 . S
C1621 H1601 0.950 . S
C1621 C1617 1.385 . S
C1621 C1620 1.374 . S
C1622 C1619 1.499 1_556 S
C1622 C1623 1.373 . S
C1622 C1624 1.389 . S
C1623 H1602 0.950 . S
C1623 C1622 1.373 . S
C1623 C1639 1.377 . S
C1624 C1622 1.389 . S
C1624 C1625 1.524 . S
C1624 C1638 1.377 . S
C1625 C1624 1.524 . S
C1625 C1626 1.397 . S
C1625 C1630 1.363 . S
C1626 H1603 0.950 1_556 S
C1626 C1625 1.397 . S
C1626 C1627 1.334 1_556 S
C1627 H1604 0.950 . S
C1627 C1626 1.334 1_554 S
C1627 C1628 1.297 . S
C1628 C1627 1.297 . S
C1628 C1629 1.504 1_554 S
C1628 H1647 0.927 . S
C1629 H1605 0.950 . S
C1629 C1628 1.504 1_556 S
C1629 C1630 1.415 . S
C1630 H1606 0.950 . S
C1630 C1625 1.363 . S
C1630 C1629 1.415 . S
C1631 H1607 0.951 . S
C1631 C1632 1.366 . S
C1631 C1633 1.388 . S
C1632 C1631 1.366 . S
C1632 C1636 1.385 . S
C1633 H1608 0.951 . S
C1633 C1631 1.388 . S
C1633 C1634 1.366 . S
C1634 C1633 1.366 . S
C1634 C1635 1.414 . S
C1634 C1637 1.499 . S
C1635 H1609 0.950 . S
C1635 C1634 1.414 . S
C1635 C1636 1.374 . S
C1636 H1610 0.950 . S
C1636 C1632 1.385 . S
C1636 C1635 1.374 . S
C1637 C1634 1.499 . S
C1637 C1638 1.373 . S
C1637 C1639 1.389 . S
C1638 H1611 0.950 . S
C1638 C1624 1.377 . S
C1638 C1637 1.373 . S
C1639 C1623 1.377 . S
C1639 C1637 1.389 . S
C1639 C1640 1.524 . S
C1640 C1639 1.524 . S
C1640 C1641 1.397 . S
C1640 C1645 1.363 . S
C1641 H1612 0.950 . S
C1641 C1640 1.397 . S
C1641 C1642 1.334 . S
C1642 H1613 0.950 . S
C1642 C1641 1.334 . S
C1642 C1643 1.287 . S
C1643 C1642 1.287 . S
C1643 C1644 1.524 . S
C1643 H1646 0.999 . S
C1644 H1614 0.950 . S
C1644 C1643 1.524 . S
C1644 C1645 1.415 . S
C1645 H1615 0.950 . S
C1645 C1640 1.363 . S
C1645 C1644 1.415 . S
H1646 C1643 0.999 . S
H1647 C1628 0.927 . S
H1648 C1666 0.951 . S
H1649 C1668 0.951 . S
H1650 C1670 0.950 . S
H1651 C1671 0.950 . S
H1652 C1673 0.950 . S
H1653 C1676 0.950 . S
H1654 C1677 0.950 . S
H1655 C1679 0.950 . S
H1656 C1680 0.950 . S
H1657 C1681 0.951 . S
H1658 C1683 0.951 . S
H1659 C1685 0.950 . S
H1660 C1686 0.950 . S
H1661 C1688 0.950 . S
H1662 C1691 0.950 . S
H1663 C1692 0.950 . S
H1664 C1694 0.950 . S
H1665 C1695 0.950 . S
C1666 H1648 0.951 . S
C1666 C1667 1.366 . S
C1666 C1668 1.388 . S
C1667 C1666 1.366 . S
C1667 C1671 1.385 . S
C1668 H1649 0.951 . S
C1668 C1666 1.388 . S
C1668 C1669 1.366 . S
C1669 C1668 1.366 . S
C1669 C1670 1.414 . S
C1669 C1672 1.499 . S
C1670 H1650 0.950 . S
C1670 C1669 1.414 . S
C1670 C1671 1.374 . S
C1671 H1651 0.950 . S
C1671 C1667 1.385 . S
C1671 C1670 1.374 . S
C1672 C1669 1.499 . S
C1672 C1673 1.373 . S
C1672 C1674 1.389 . S
C1673 H1652 0.950 . S
C1673 C1672 1.373 . S
C1673 C1689 1.377 . S
C1674 C1672 1.389 . S
C1674 C1675 1.524 . S
C1674 C1688 1.377 . S
C1675 C1674 1.524 . S
C1675 C1676 1.397 . S
C1675 C1680 1.363 . S
C1676 H1653 0.950 . S
C1676 C1675 1.397 . S
C1676 C1677 1.334 . S
C1677 H1654 0.950 . S
C1677 C1676 1.334 . S
C1677 C1678 1.287 . S
C1678 C1677 1.287 . S
C1678 C1679 1.524 . S
C1678 H1697 0.913 . S
C1679 H1655 0.950 . S
C1679 C1678 1.524 . S
C1679 C1680 1.415 . S
C1680 H1656 0.950 . S
C1680 C1675 1.363 . S
C1680 C1679 1.415 . S
C1681 H1657 0.951 . S
C1681 C1682 1.366 . S
C1681 C1683 1.388 . S
C1682 C1681 1.366 . S
C1682 C1686 1.385 . S
C1683 H1658 0.951 . S
C1683 C1681 1.388 . S
C1683 C1684 1.366 . S
C1684 C1683 1.366 . S
C1684 C1685 1.414 . S
C1684 C1687 1.499 . S
C1685 H1659 0.950 . S
C1685 C1684 1.414 . S
C1685 C1686 1.374 . S
C1686 H1660 0.950 . S
C1686 C1682 1.385 . S
C1686 C1685 1.374 . S
C1687 C1684 1.499 . S
C1687 C1688 1.373 . S
C1687 C1689 1.389 . S
C1688 H1661 0.950 . S
C1688 C1674 1.377 . S
C1688 C1687 1.373 . S
C1689 C1673 1.377 . S
C1689 C1687 1.389 . S
C1689 C1690 1.524 . S
C1690 C1689 1.524 . S
C1690 C1691 1.397 . S
C1690 C1695 1.363 . S
C1691 H1662 0.950 . S
C1691 C1690 1.397 . S
C1691 C1692 1.334 . S
C1692 H1663 0.950 . S
C1692 C1691 1.334 . S
C1692 C1693 1.287 . S
C1693 C1692 1.287 . S
C1693 C1694 1.524 . S
C1693 H1696 0.999 . S
C1694 H1664 0.950 . S
C1694 C1693 1.524 . S
C1694 C1695 1.415 . S
C1695 H1665 0.950 . S
C1695 C1690 1.363 . S
C1695 C1694 1.415 . S
H1696 C1693 0.999 . S
H1697 C1678 0.913 . S
H1698 C1716 0.951 . S
H1699 C1718 0.951 . S
H1700 C1720 0.950 . S
H1701 C1721 0.950 . S
H1702 C1723 0.950 . S
H1703 C1726 0.950 . S
H1704 C1727 0.950 . S
H1705 C1729 0.950 . S
H1706 C1730 0.950 . S
H1707 C1731 0.951 . S
H1708 C1733 0.951 . S
H1709 C1735 0.950 . S
H1710 C1736 0.950 . S
H1711 C1738 0.950 . S
H1712 C1741 0.950 . S
H1713 C1742 0.950 . S
H1714 C1744 0.950 . S
H1715 C1745 0.950 . S
C1716 H1698 0.951 . S
C1716 C1717 1.366 . S
C1716 C1718 1.388 . S
C1717 C1716 1.366 . S
C1717 C1721 1.385 . S
C1718 H1699 0.951 . S
C1718 C1716 1.388 . S
C1718 C1719 1.366 . S
C1719 C1718 1.366 . S
C1719 C1720 1.414 . S
C1719 C1722 1.499 . S
C1720 H1700 0.950 . S
C1720 C1719 1.414 . S
C1720 C1721 1.374 . S
C1721 H1701 0.950 . S
C1721 C1717 1.385 . S
C1721 C1720 1.374 . S
C1722 C1719 1.499 . S
C1722 C1723 1.373 . S
C1722 C1724 1.389 . S
C1723 H1702 0.950 . S
C1723 C1722 1.373 . S
C1723 C1739 1.377 . S
C1724 C1722 1.389 . S
C1724 C1725 1.524 . S
C1724 C1738 1.377 . S
C1725 C1724 1.524 . S
C1725 C1726 1.397 . S
C1725 C1730 1.363 . S
C1726 H1703 0.950 . S
C1726 C1725 1.397 . S
C1726 C1727 1.334 . S
C1727 H1704 0.950 . S
C1727 C1726 1.334 . S
C1727 C1728 1.287 . S
C1728 C1727 1.287 . S
C1728 C1729 1.524 . S
C1728 H1747 0.913 . S
C1729 H1705 0.950 . S
C1729 C1728 1.524 . S
C1729 C1730 1.415 . S
C1730 H1706 0.950 . S
C1730 C1725 1.363 . S
C1730 C1729 1.415 . S
C1731 H1707 0.951 . S
C1731 C1732 1.366 . S
C1731 C1733 1.388 . S
C1732 C1731 1.366 . S
C1732 C1736 1.385 . S
C1733 H1708 0.951 . S
C1733 C1731 1.388 . S
C1733 C1734 1.366 . S
C1734 C1733 1.366 . S
C1734 C1735 1.414 . S
C1734 C1737 1.499 . S
C1735 H1709 0.950 . S
C1735 C1734 1.414 . S
C1735 C1736 1.374 . S
C1736 H1710 0.950 . S
C1736 C1732 1.385 . S
C1736 C1735 1.374 . S
C1737 C1734 1.499 . S
C1737 C1738 1.373 . S
C1737 C1739 1.389 . S
C1738 H1711 0.950 . S
C1738 C1724 1.377 . S
C1738 C1737 1.373 . S
C1739 C1723 1.377 . S
C1739 C1737 1.389 . S
C1739 C1740 1.524 . S
C1740 C1739 1.524 . S
C1740 C1741 1.397 . S
C1740 C1745 1.363 . S
C1741 H1712 0.950 . S
C1741 C1740 1.397 . S
C1741 C1742 1.334 . S
C1742 H1713 0.950 . S
C1742 C1741 1.334 . S
C1742 C1743 1.287 . S
C1743 C1742 1.287 . S
C1743 C1744 1.524 . S
C1743 H1746 0.999 . S
C1744 H1714 0.950 . S
C1744 C1743 1.524 . S
C1744 C1745 1.415 . S
C1745 H1715 0.950 . S
C1745 C1740 1.363 . S
C1745 C1744 1.415 . S
H1746 C1743 0.999 . S
H1747 C1728 0.913 . S
H1748 C1766 0.951 . S
H1749 C1768 0.951 . S
H1750 C1770 0.950 . S
H1751 C1771 0.950 . S
H1752 C1773 0.950 . S
H1753 C1776 0.950 . S
H1754 C1777 0.950 . S
H1755 C1779 0.950 . S
H1756 C1780 0.950 . S
H1757 C1781 0.951 . S
H1758 C1783 0.951 . S
H1759 C1785 0.950 . S
H1760 C1786 0.950 . S
H1761 C1788 0.950 . S
H1762 C1791 0.950 . S
H1763 C1792 0.950 . S
H1764 C1794 0.950 . S
H1765 C1795 0.950 . S
C1766 H1748 0.951 . S
C1766 C1767 1.366 1_655 S
C1766 C1768 1.388 . S
C1767 C1766 1.366 1_455 S
C1767 C1771 1.385 . S
C1768 H1749 0.951 . S
C1768 C1766 1.388 . S
C1768 C1769 1.366 1_655 S
C1769 C1768 1.366 1_455 S
C1769 C1770 1.414 . S
C1769 C1772 1.499 . S
C1770 H1750 0.950 . S
C1770 C1769 1.414 . S
C1770 C1771 1.374 . S
C1771 H1751 0.950 . S
C1771 C1767 1.385 . S
C1771 C1770 1.374 . S
C1772 C1769 1.499 . S
C1772 C1773 1.373 . S
C1772 C1774 1.389 1_455 S
C1773 H1752 0.950 . S
C1773 C1772 1.373 . S
C1773 C1789 1.377 . S
C1774 C1772 1.389 1_655 S
C1774 C1775 1.524 . S
C1774 C1788 1.377 . S
C1775 C1774 1.524 . S
C1775 C1776 1.397 . S
C1775 C1780 1.363 . S
C1776 H1753 0.950 . S
C1776 C1775 1.397 . S
C1776 C1777 1.334 . S
C1777 H1754 0.950 . S
C1777 C1776 1.334 . S
C1777 C1778 1.287 . S
C1778 C1777 1.287 . S
C1778 C1779 1.524 . S
C1778 H1797 0.913 . S
C1779 H1755 0.950 . S
C1779 C1778 1.524 . S
C1779 C1780 1.415 . S
C1780 H1756 0.950 . S
C1780 C1775 1.363 . S
C1780 C1779 1.415 . S
C1781 H1757 0.951 . S
C1781 C1782 1.366 1_455 S
C1781 C1783 1.388 . S
C1782 C1781 1.366 1_655 S
C1782 C1786 1.385 . S
C1783 H1758 0.951 . S
C1783 C1781 1.388 . S
C1783 C1784 1.366 1_455 S
C1784 C1783 1.366 1_655 S
C1784 C1785 1.414 . S
C1784 C1787 1.499 . S
C1785 H1759 0.950 . S
C1785 C1784 1.414 . S
C1785 C1786 1.374 . S
C1786 H1760 0.950 . S
C1786 C1782 1.385 . S
C1786 C1785 1.374 . S
C1787 C1784 1.499 . S
C1787 C1788 1.373 . S
C1787 C1789 1.389 1_655 S
C1788 H1761 0.950 . S
C1788 C1774 1.377 . S
C1788 C1787 1.373 . S
C1789 C1773 1.377 . S
C1789 C1787 1.389 1_455 S
C1789 C1790 1.524 . S
C1790 C1789 1.524 . S
C1790 C1791 1.397 . S
C1790 C1795 1.363 . S
C1791 H1762 0.950 . S
C1791 C1790 1.397 . S
C1791 C1792 1.334 . S
C1792 H1763 0.950 . S
C1792 C1791 1.334 . S
C1792 C1793 1.287 . S
C1793 C1792 1.287 . S
C1793 C1794 1.524 . S
C1793 H1796 0.999 . S
C1794 H1764 0.950 . S
C1794 C1793 1.524 . S
C1794 C1795 1.415 . S
C1795 H1765 0.950 . S
C1795 C1790 1.363 . S
C1795 C1794 1.415 . S
H1796 C1793 0.999 . S
H1797 C1778 0.913 . S
H1798 C1816 0.951 . S
H1799 C1818 0.951 . S
H1800 C1820 0.950 . S
H1801 C1821 0.950 . S
H1802 C1823 0.950 . S
H1803 C1826 0.950 . S
H1804 C1827 0.950 . S
H1805 C1829 0.950 . S
H1806 C1830 0.950 . S
H1807 C1831 0.951 . S
H1808 C1833 0.951 . S
H1809 C1835 0.950 . S
H1810 C1836 0.950 . S
H1811 C1838 0.950 . S
H1812 C1841 0.950 . S
H1813 C1842 0.950 . S
H1814 C1844 0.950 . S
H1815 C1845 0.950 . S
C1816 H1798 0.951 . S
C1816 C1817 1.366 . S
C1816 C1818 1.388 . S
C1817 C1816 1.366 . S
C1817 C1821 1.385 . S
C1818 H1799 0.951 . S
C1818 C1816 1.388 . S
C1818 C1819 1.366 . S
C1819 C1818 1.366 . S
C1819 C1820 1.414 . S
C1819 C1822 1.499 . S
C1820 H1800 0.950 . S
C1820 C1819 1.414 . S
C1820 C1821 1.374 . S
C1821 H1801 0.950 . S
C1821 C1817 1.385 . S
C1821 C1820 1.374 . S
C1822 C1819 1.499 . S
C1822 C1823 1.373 . S
C1822 C1824 1.389 . S
C1823 H1802 0.950 . S
C1823 C1822 1.373 . S
C1823 C1839 1.377 . S
C1824 C1822 1.389 . S
C1824 C1825 1.524 . S
C1824 C1838 1.377 . S
C1825 C1824 1.524 . S
C1825 C1826 1.397 . S
C1825 C1830 1.363 . S
C1826 H1803 0.950 . S
C1826 C1825 1.397 . S
C1826 C1827 1.334 . S
C1827 H1804 0.950 . S
C1827 C1826 1.334 . S
C1827 C1828 1.287 . S
C1828 C1827 1.287 . S
C1828 C1829 1.524 . S
C1828 H1847 0.913 . S
C1829 H1805 0.950 . S
C1829 C1828 1.524 . S
C1829 C1830 1.415 . S
C1830 H1806 0.950 . S
C1830 C1825 1.363 . S
C1830 C1829 1.415 . S
C1831 H1807 0.951 . S
C1831 C1832 1.366 . S
C1831 C1833 1.388 . S
C1832 C1831 1.366 . S
C1832 C1836 1.385 . S
C1833 H1808 0.951 . S
C1833 C1831 1.388 . S
C1833 C1834 1.366 . S
C1834 C1833 1.366 . S
C1834 C1835 1.414 . S
C1834 C1837 1.499 1_554 S
C1835 H1809 0.950 . S
C1835 C1834 1.414 . S
C1835 C1836 1.374 . S
C1836 H1810 0.950 . S
C1836 C1832 1.385 . S
C1836 C1835 1.374 . S
C1837 C1834 1.499 1_556 S
C1837 C1838 1.373 . S
C1837 C1839 1.389 . S
C1838 H1811 0.950 . S
C1838 C1824 1.377 . S
C1838 C1837 1.373 . S
C1839 C1823 1.377 . S
C1839 C1837 1.389 . S
C1839 C1840 1.524 . S
C1840 C1839 1.524 . S
C1840 C1841 1.397 . S
C1840 C1845 1.363 . S
C1841 H1812 0.950 . S
C1841 C1840 1.397 . S
C1841 C1842 1.334 1_556 S
C1842 H1813 0.950 . S
C1842 C1841 1.334 1_554 S
C1842 C1843 1.287 . S
C1843 C1842 1.287 . S
C1843 C1844 1.524 1_554 S
C1843 H1846 0.999 . S
C1844 H1814 0.950 . S
C1844 C1843 1.524 1_556 S
C1844 C1845 1.415 . S
C1845 H1815 0.950 . S
C1845 C1840 1.363 . S
C1845 C1844 1.415 . S
H1846 C1843 0.999 . S
H1847 C1828 0.913 . S
H1848 C1866 0.951 . S
H1849 C1868 0.951 . S
H1850 C1870 0.950 . S
H1851 C1871 0.950 . S
H1852 C1873 0.950 . S
H1853 C1876 0.950 . S
H1854 C1877 0.950 . S
H1855 C1879 0.950 . S
H1856 C1880 0.950 . S
H1857 C1881 0.951 . S
H1858 C1883 0.951 . S
H1859 C1885 0.950 . S
H1860 C1886 0.950 . S
H1861 C1888 0.950 . S
H1862 C1891 0.950 . S
H1863 C1892 0.950 . S
H1864 C1894 0.950 . S
H1865 C1895 0.950 . S
C1866 H1848 0.951 . S
C1866 C1867 1.366 . S
C1866 C1868 1.388 . S
C1867 C1866 1.366 . S
C1867 C1871 1.385 . S
C1868 H1849 0.951 . S
C1868 C1866 1.388 . S
C1868 C1869 1.366 . S
C1869 C1868 1.366 . S
C1869 C1870 1.414 . S
C1869 C1872 1.499 . S
C1870 H1850 0.950 . S
C1870 C1869 1.414 . S
C1870 C1871 1.374 . S
C1871 H1851 0.950 . S
C1871 C1867 1.385 . S
C1871 C1870 1.374 . S
C1872 C1869 1.499 . S
C1872 C1873 1.373 . S
C1872 C1874 1.389 . S
C1873 H1852 0.950 . S
C1873 C1872 1.373 . S
C1873 C1889 1.377 . S
C1874 C1872 1.389 . S
C1874 C1875 1.524 . S
C1874 C1888 1.377 . S
C1875 C1874 1.524 . S
C1875 C1876 1.397 . S
C1875 C1880 1.363 . S
C1876 H1853 0.950 . S
C1876 C1875 1.397 . S
C1876 C1877 1.334 . S
C1877 H1854 0.950 . S
C1877 C1876 1.334 . S
C1877 C1878 1.287 . S
C1878 C1877 1.287 . S
C1878 C1879 1.524 . S
C1878 H1897 0.913 . S
C1879 H1855 0.950 . S
C1879 C1878 1.524 . S
C1879 C1880 1.415 . S
C1880 H1856 0.950 . S
C1880 C1875 1.363 . S
C1880 C1879 1.415 . S
C1881 H1857 0.951 . S
C1881 C1882 1.366 . S
C1881 C1883 1.388 . S
C1882 C1881 1.366 . S
C1882 C1886 1.385 . S
C1883 H1858 0.951 . S
C1883 C1881 1.388 . S
C1883 C1884 1.366 . S
C1884 C1883 1.366 . S
C1884 C1885 1.414 . S
C1884 C1887 1.499 . S
C1885 H1859 0.950 . S
C1885 C1884 1.414 . S
C1885 C1886 1.374 . S
C1886 H1860 0.950 . S
C1886 C1882 1.385 . S
C1886 C1885 1.374 . S
C1887 C1884 1.499 . S
C1887 C1888 1.373 . S
C1887 C1889 1.389 . S
C1888 H1861 0.950 . S
C1888 C1874 1.377 . S
C1888 C1887 1.373 . S
C1889 C1873 1.377 . S
C1889 C1887 1.389 . S
C1889 C1890 1.524 . S
C1890 C1889 1.524 . S
C1890 C1891 1.397 . S
C1890 C1895 1.363 . S
C1891 H1862 0.950 . S
C1891 C1890 1.397 . S
C1891 C1892 1.334 . S
C1892 H1863 0.950 . S
C1892 C1891 1.334 . S
C1892 C1893 1.287 . S
C1893 C1892 1.287 . S
C1893 C1894 1.524 . S
C1893 H1896 0.999 . S
C1894 H1864 0.950 . S
C1894 C1893 1.524 . S
C1894 C1895 1.415 . S
C1895 H1865 0.950 . S
C1895 C1890 1.363 . S
C1895 C1894 1.415 . S
H1896 C1893 0.999 . S
H1897 C1878 0.913 . S
H1898 C1916 0.951 . S
H1899 C1918 0.951 . S
H1900 C1920 0.950 . S
H1901 C1921 0.950 . S
H1902 C1923 0.950 . S
H1903 C1926 0.950 . S
H1904 C1927 0.950 . S
H1905 C1929 0.950 . S
H1906 C1930 0.950 . S
H1907 C1931 0.951 . S
H1908 C1933 0.951 . S
H1909 C1935 0.950 . S
H1910 C1936 0.950 . S
H1911 C1938 0.950 . S
H1912 C1941 0.950 . S
H1913 C1942 0.950 . S
H1914 C1944 0.950 . S
H1915 C1945 0.950 . S
C1916 H1898 0.951 . S
C1916 C1917 1.366 . S
C1916 C1918 1.388 . S
C1917 C1916 1.366 . S
C1917 C1921 1.385 . S
C1918 H1899 0.951 . S
C1918 C1916 1.388 . S
C1918 C1919 1.366 . S
C1919 C1918 1.366 . S
C1919 C1920 1.414 . S
C1919 C1922 1.499 . S
C1920 H1900 0.950 . S
C1920 C1919 1.414 . S
C1920 C1921 1.374 . S
C1921 H1901 0.950 . S
C1921 C1917 1.385 . S
C1921 C1920 1.374 . S
C1922 C1919 1.499 . S
C1922 C1923 1.373 . S
C1922 C1924 1.389 . S
C1923 H1902 0.950 . S
C1923 C1922 1.373 . S
C1923 C1939 1.377 . S
C1924 C1922 1.389 . S
C1924 C1925 1.524 . S
C1924 C1938 1.377 . S
C1925 C1924 1.524 . S
C1925 C1926 1.397 . S
C1925 C1930 1.363 . S
C1926 H1903 0.950 . S
C1926 C1925 1.397 . S
C1926 C1927 1.334 . S
C1927 H1904 0.950 . S
C1927 C1926 1.334 . S
C1927 C1928 1.287 . S
C1928 C1927 1.287 . S
C1928 C1929 1.524 . S
C1928 H1947 0.913 . S
C1929 H1905 0.950 . S
C1929 C1928 1.524 . S
C1929 C1930 1.415 . S
C1930 H1906 0.950 . S
C1930 C1925 1.363 . S
C1930 C1929 1.415 . S
C1931 H1907 0.951 . S
C1931 C1932 1.366 . S
C1931 C1933 1.388 . S
C1932 C1931 1.366 . S
C1932 C1936 1.385 . S
C1933 H1908 0.951 . S
C1933 C1931 1.388 . S
C1933 C1934 1.366 . S
C1934 C1933 1.366 . S
C1934 C1935 1.414 . S
C1934 C1937 1.499 . S
C1935 H1909 0.950 . S
C1935 C1934 1.414 . S
C1935 C1936 1.374 . S
C1936 H1910 0.950 . S
C1936 C1932 1.385 . S
C1936 C1935 1.374 . S
C1937 C1934 1.499 . S
C1937 C1938 1.373 . S
C1937 C1939 1.389 . S
C1938 H1911 0.950 . S
C1938 C1924 1.377 . S
C1938 C1937 1.373 . S
C1939 C1923 1.377 . S
C1939 C1937 1.389 . S
C1939 C1940 1.524 . S
C1940 C1939 1.524 . S
C1940 C1941 1.397 . S
C1940 C1945 1.363 . S
C1941 H1912 0.950 . S
C1941 C1940 1.397 . S
C1941 C1942 1.334 . S
C1942 H1913 0.950 . S
C1942 C1941 1.334 . S
C1942 C1943 1.287 . S
C1943 C1942 1.287 . S
C1943 C1944 1.524 . S
C1943 H1946 0.999 . S
C1944 H1914 0.950 . S
C1944 C1943 1.524 . S
C1944 C1945 1.415 . S
C1945 H1915 0.950 . S
C1945 C1940 1.363 . S
C1945 C1944 1.415 . S
H1946 C1943 0.999 . S
H1947 C1928 0.913 . S
H1948 C1966 0.961 . S
H1949 C1968 0.951 . S
H1950 C1970 0.950 . S
H1951 C1971 0.950 . S
H1952 C1973 0.950 . S
H1953 C1976 0.950 . S
H1954 C1977 0.950 . S
H1955 C1979 0.950 . S
H1956 C1980 0.950 . S
H1957 C1981 0.951 1_655 S
H1958 C1983 0.951 . S
H1959 C1985 0.950 . S
H1960 C1986 0.950 . S
H1961 C1988 0.950 . S
H1962 C1991 0.950 . S
H1963 C1992 0.950 . S
H1964 C1994 0.950 . S
H1965 C1995 0.950 . S
C1966 H1948 0.961 . S
C1966 C1967 1.352 1_455 S
C1966 C1968 1.392 . S
C1967 C1966 1.352 1_655 S
C1967 C1971 1.385 . S
C1968 H1949 0.951 . S
C1968 C1966 1.392 . S
C1968 C1969 1.366 1_455 S
C1969 C1968 1.366 1_655 S
C1969 C1970 1.414 . S
C1969 C1972 1.499 . S
C1970 H1950 0.950 . S
C1970 C1969 1.414 . S
C1970 C1971 1.374 . S
C1971 H1951 0.950 . S
C1971 C1967 1.385 . S
C1971 C1970 1.374 . S
C1972 C1969 1.499 . S
C1972 C1973 1.373 . S
C1972 C1974 1.389 1_655 S
C1973 H1952 0.950 . S
C1973 C1972 1.373 . S
C1973 C1989 1.377 . S
C1974 C1972 1.389 1_455 S
C1974 C1975 1.524 . S
C1974 C1988 1.377 . S
C1975 C1974 1.524 . S
C1975 C1976 1.397 . S
C1975 C1980 1.363 . S
C1976 H1953 0.950 . S
C1976 C1975 1.397 . S
C1976 C1977 1.334 . S
C1977 H1954 0.950 . S
C1977 C1976 1.334 . S
C1977 C1978 1.287 . S
C1978 C1977 1.287 . S
C1978 C1979 1.524 . S
C1978 H1997 0.913 . S
C1979 H1955 0.950 . S
C1979 C1978 1.524 . S
C1979 C1980 1.415 . S
C1980 H1956 0.950 . S
C1980 C1975 1.363 . S
C1980 C1979 1.415 . S
C1981 H1957 0.951 1_455 S
C1981 C1982 1.366 . S
C1981 C1983 1.388 1_455 S
C1982 C1981 1.366 . S
C1982 C1986 1.385 . S
C1983 H1958 0.951 . S
C1983 C1981 1.388 1_655 S
C1983 C1984 1.366 1_655 S
C1984 C1983 1.366 1_455 S
C1984 C1985 1.414 . S
C1984 C1987 1.499 . S
C1985 H1959 0.950 . S
C1985 C1984 1.414 . S
C1985 C1986 1.374 . S
C1986 H1960 0.950 . S
C1986 C1982 1.385 . S
C1986 C1985 1.374 . S
C1987 C1984 1.499 . S
C1987 C1988 1.373 . S
C1987 C1989 1.389 1_455 S
C1988 H1961 0.950 . S
C1988 C1974 1.377 . S
C1988 C1987 1.373 . S
C1989 C1973 1.377 . S
C1989 C1987 1.389 1_655 S
C1989 C1990 1.524 . S
C1990 C1989 1.524 . S
C1990 C1991 1.397 . S
C1990 C1995 1.363 . S
C1991 H1962 0.950 . S
C1991 C1990 1.397 . S
C1991 C1992 1.334 . S
C1992 H1963 0.950 . S
C1992 C1991 1.334 . S
C1992 C1993 1.287 . S
C1993 C1992 1.287 . S
C1993 C1994 1.524 . S
C1993 H1996 0.999 . S
C1994 H1964 0.950 . S
C1994 C1993 1.524 . S
C1994 C1995 1.415 . S
C1995 H1965 0.950 . S
C1995 C1990 1.363 . S
C1995 C1994 1.415 . S
H1996 C1993 0.999 . S
H1997 C1978 0.913 . S
H1998 C2016 0.951 . S
H1999 C2018 0.951 . S
H2000 C2020 0.950 . S
H2001 C2021 0.950 . S
H2002 C2023 0.950 . S
H2003 C2026 0.950 . S
H2004 C2027 0.950 . S
H2005 C2029 0.950 . S
H2006 C2030 0.950 . S
H2007 C2031 0.951 . S
H2008 C2033 0.951 . S
H2009 C2035 0.950 . S
H2010 C2036 0.950 . S
H2011 C2038 0.950 . S
H2012 C2041 0.950 . S
H2013 C2042 0.950 1_556 S
H2014 C2044 0.950 . S
H2015 C2045 0.950 . S
C2016 H1998 0.951 . S
C2016 C2017 1.366 . S
C2016 C2018 1.388 . S
C2017 C2016 1.366 . S
C2017 C2021 1.385 . S
C2018 H1999 0.951 . S
C2018 C2016 1.388 . S
C2018 C2019 1.366 . S
C2019 C2018 1.366 . S
C2019 C2020 1.414 . S
C2019 C2022 1.499 . S
C2020 H2000 0.950 . S
C2020 C2019 1.414 . S
C2020 C2021 1.374 . S
C2021 H2001 0.950 . S
C2021 C2017 1.385 . S
C2021 C2020 1.374 . S
C2022 C2019 1.499 . S
C2022 C2023 1.373 . S
C2022 C2024 1.389 . S
C2023 H2002 0.950 . S
C2023 C2022 1.373 . S
C2023 C2039 1.377 . S
C2024 C2022 1.389 . S
C2024 C2025 1.524 . S
C2024 C2038 1.377 . S
C2025 C2024 1.524 . S
C2025 C2026 1.397 . S
C2025 C2030 1.363 . S
C2026 H2003 0.950 . S
C2026 C2025 1.397 . S
C2026 C2027 1.334 . S
C2027 H2004 0.950 . S
C2027 C2026 1.334 . S
C2027 C2028 1.287 . S
C2028 C2027 1.287 . S
C2028 C2029 1.524 . S
C2028 H2047 0.913 . S
C2029 H2005 0.950 . S
C2029 C2028 1.524 . S
C2029 C2030 1.415 . S
C2030 H2006 0.950 . S
C2030 C2025 1.363 . S
C2030 C2029 1.415 . S
C2031 H2007 0.951 . S
C2031 C2032 1.366 . S
C2031 C2033 1.388 . S
C2032 C2031 1.366 . S
C2032 C2036 1.385 . S
C2033 H2008 0.951 . S
C2033 C2031 1.388 . S
C2033 C2034 1.366 . S
C2034 C2033 1.366 . S
C2034 C2035 1.414 . S
C2034 C2037 1.499 1_556 S
C2035 H2009 0.950 . S
C2035 C2034 1.414 . S
C2035 C2036 1.374 . S
C2036 H2010 0.950 . S
C2036 C2032 1.385 . S
C2036 C2035 1.374 . S
C2037 C2034 1.499 1_554 S
C2037 C2038 1.373 . S
C2037 C2039 1.389 . S
C2038 H2011 0.950 . S
C2038 C2024 1.377 . S
C2038 C2037 1.373 . S
C2039 C2023 1.377 . S
C2039 C2037 1.389 . S
C2039 C2040 1.524 . S
C2040 C2039 1.524 . S
C2040 C2041 1.397 . S
C2040 C2045 1.363 . S
C2041 H2012 0.950 . S
C2041 C2040 1.397 . S
C2041 C2042 1.334 . S
C2042 H2013 0.950 1_554 S
C2042 C2041 1.334 . S
C2042 C2043 1.287 . S
C2043 C2042 1.287 . S
C2043 C2044 1.524 . S
C2043 H2046 0.999 . S
C2044 H2014 0.950 . S
C2044 C2043 1.524 . S
C2044 C2045 1.415 . S
C2045 H2015 0.950 . S
C2045 C2040 1.363 . S
C2045 C2044 1.415 . S
H2046 C2043 0.999 . S
H2047 C2028 0.913 . S
H2048 C2066 0.951 . S
H2049 C2068 0.951 . S
H2050 C2070 0.950 . S
H2051 C2071 0.950 . S
H2052 C2073 0.950 . S
H2053 C2076 1.027 . S
H2054 C2077 0.950 . S
H2055 C2079 0.950 . S
H2056 C2080 0.950 1_565 S
H2057 C2081 0.951 . S
H2058 C2083 0.951 . S
H2059 C2085 0.950 . S
H2060 C2086 0.950 . S
H2061 C2088 0.950 . S
H2062 C2091 1.027 . S
H2063 C2092 0.950 . S
H2064 C2094 0.950 . S
H2065 C2095 0.950 1_545 S
C2066 H2048 0.951 . S
C2066 C2067 1.366 . S
C2066 C2068 1.388 . S
C2067 C2066 1.366 . S
C2067 C2071 1.385 1_655 S
C2068 H2049 0.951 . S
C2068 C2066 1.388 . S
C2068 C2069 1.366 . S
C2069 C2068 1.366 . S
C2069 C2070 1.414 1_655 S
C2069 C2072 1.501 . S
C2070 H2050 0.950 . S
C2070 C2069 1.414 1_455 S
C2070 C2071 1.374 . S
C2071 H2051 0.950 . S
C2071 C2067 1.385 1_455 S
C2071 C2070 1.374 . S
C2072 C2069 1.501 . S
C2072 C2073 1.359 1_654 S
C2072 C2074 1.403 . S
C2073 H2052 0.950 . S
C2073 C2072 1.359 1_456 S
C2073 C2089 1.377 1_545 S
C2074 C2072 1.403 . S
C2074 C2075 1.524 . S
C2074 C2088 1.377 1_545 S
C2075 C2074 1.524 . S
C2075 C2076 1.397 . S
C2075 C2080 1.363 . S
C2076 H2053 1.027 . S
C2076 C2075 1.397 . S
C2076 C2077 1.334 . S
C2077 H2054 0.950 . S
C2077 C2076 1.334 . S
C2077 C2078 1.287 . S
C2078 C2077 1.287 . S
C2078 C2079 1.524 . S
C2078 H2097 0.913 . S
C2079 H2055 0.950 . S
C2079 C2078 1.524 . S
C2079 C2080 1.415 . S
C2080 H2056 0.950 1_545 S
C2080 C2075 1.363 . S
C2080 C2079 1.415 . S
C2081 H2057 0.951 . S
C2081 C2082 1.366 . S
C2081 C2083 1.388 . S
C2082 C2081 1.366 . S
C2082 C2086 1.385 1_455 S
C2083 H2058 0.951 . S
C2083 C2081 1.388 . S
C2083 C2084 1.366 . S
C2084 C2083 1.366 . S
C2084 C2085 1.414 1_455 S
C2084 C2087 1.501 . S
C2085 H2059 0.950 . S
C2085 C2084 1.414 1_655 S
C2085 C2086 1.374 . S
C2086 H2060 0.950 . S
C2086 C2082 1.385 1_655 S
C2086 C2085 1.374 . S
C2087 C2084 1.501 . S
C2087 C2088 1.359 1_456 S
C2087 C2089 1.403 . S
C2088 H2061 0.950 . S
C2088 C2074 1.377 1_565 S
C2088 C2087 1.359 1_654 S
C2089 C2073 1.377 1_565 S
C2089 C2087 1.403 . S
C2089 C2090 1.524 . S
C2090 C2089 1.524 . S
C2090 C2091 1.397 . S
C2090 C2095 1.363 . S
C2091 H2062 1.027 . S
C2091 C2090 1.397 . S
C2091 C2092 1.334 . S
C2092 H2063 0.950 . S
C2092 C2091 1.334 . S
C2092 C2093 1.287 . S
C2093 C2092 1.287 . S
C2093 C2094 1.524 . S
C2093 H2096 0.999 . S
C2094 H2064 0.950 . S
C2094 C2093 1.524 . S
C2094 C2095 1.415 . S
C2095 H2065 0.950 1_565 S
C2095 C2090 1.363 . S
C2095 C2094 1.415 . S
H2096 C2093 0.999 . S
H2097 C2078 0.913 . S
H2098 C2116 0.951 . S
H2099 C2118 0.951 . S
H2100 C2120 0.950 . S
H2101 C2121 0.950 . S
H2102 C2123 0.950 . S
H2103 C2126 0.950 . S
H2104 C2127 0.950 . S
H2105 C2129 0.950 . S
H2106 C2130 0.950 . S
H2107 C2131 0.951 . S
H2108 C2133 0.951 . S
H2109 C2135 0.950 . S
H2110 C2136 0.950 . S
H2111 C2138 0.950 . S
H2112 C2141 0.950 . S
H2113 C2142 0.950 . S
H2114 C2144 0.950 . S
H2115 C2145 0.950 . S
C2116 H2098 0.951 . S
C2116 C2117 1.366 . S
C2116 C2118 1.388 . S
C2117 C2116 1.366 . S
C2117 C2121 1.385 . S
C2118 H2099 0.951 . S
C2118 C2116 1.388 . S
C2118 C2119 1.366 . S
C2119 C2118 1.366 . S
C2119 C2120 1.414 . S
C2119 C2122 1.499 . S
C2120 H2100 0.950 . S
C2120 C2119 1.414 . S
C2120 C2121 1.374 . S
C2121 H2101 0.950 . S
C2121 C2117 1.385 . S
C2121 C2120 1.374 . S
C2122 C2119 1.499 . S
C2122 C2123 1.373 . S
C2122 C2124 1.389 . S
C2123 H2102 0.950 . S
C2123 C2122 1.373 . S
C2123 C2139 1.377 . S
C2124 C2122 1.389 . S
C2124 C2125 1.524 . S
C2124 C2138 1.377 . S
C2125 C2124 1.524 . S
C2125 C2126 1.397 . S
C2125 C2130 1.363 . S
C2126 H2103 0.950 . S
C2126 C2125 1.397 . S
C2126 C2127 1.334 . S
C2127 H2104 0.950 . S
C2127 C2126 1.334 . S
C2127 C2128 1.287 . S
C2128 C2127 1.287 . S
C2128 C2129 1.524 . S
C2128 H2147 0.913 . S
C2129 H2105 0.950 . S
C2129 C2128 1.524 . S
C2129 C2130 1.415 . S
C2130 H2106 0.950 . S
C2130 C2125 1.363 . S
C2130 C2129 1.415 . S
C2131 H2107 0.951 . S
C2131 C2132 1.366 . S
C2131 C2133 1.388 . S
C2132 C2131 1.366 . S
C2132 C2136 1.385 . S
C2133 H2108 0.951 . S
C2133 C2131 1.388 . S
C2133 C2134 1.366 . S
C2134 C2133 1.366 . S
C2134 C2135 1.414 . S
C2134 C2137 1.499 . S
C2135 H2109 0.950 . S
C2135 C2134 1.414 . S
C2135 C2136 1.374 . S
C2136 H2110 0.950 . S
C2136 C2132 1.385 . S
C2136 C2135 1.374 . S
C2137 C2134 1.499 . S
C2137 C2138 1.373 . S
C2137 C2139 1.389 . S
C2138 H2111 0.950 . S
C2138 C2124 1.377 . S
C2138 C2137 1.373 . S
C2139 C2123 1.377 . S
C2139 C2137 1.389 . S
C2139 C2140 1.524 . S
C2140 C2139 1.524 . S
C2140 C2141 1.397 . S
C2140 C2145 1.363 . S
C2141 H2112 0.950 . S
C2141 C2140 1.397 . S
C2141 C2142 1.334 . S
C2142 H2113 0.950 . S
C2142 C2141 1.334 . S
C2142 C2143 1.287 . S
C2143 C2142 1.287 . S
C2143 C2144 1.524 . S
C2143 H2146 0.999 . S
C2144 H2114 0.950 . S
C2144 C2143 1.524 . S
C2144 C2145 1.415 . S
C2145 H2115 0.950 . S
C2145 C2140 1.363 . S
C2145 C2144 1.415 . S
H2146 C2143 0.999 . S
H2147 C2128 0.913 . S
H2148 C2166 0.951 . S
H2149 C2168 0.951 . S
H2150 C2170 0.950 . S
H2151 C2171 0.950 . S
H2152 C2173 0.950 . S
H2153 C2176 0.950 . S
H2154 C2177 0.950 . S
H2155 C2179 0.950 . S
H2156 C2180 0.950 . S
H2157 C2181 0.951 . S
H2158 C2183 0.951 . S
H2159 C2185 0.950 . S
H2160 C2186 0.950 . S
H2161 C2188 0.950 . S
H2162 C2191 0.950 . S
H2163 C2192 0.950 . S
H2164 C2194 0.950 . S
H2165 C2195 0.950 . S
C2166 H2148 0.951 . S
C2166 C2167 1.366 . S
C2166 C2168 1.388 . S
C2167 C2166 1.366 . S
C2167 C2171 1.385 . S
C2168 H2149 0.951 . S
C2168 C2166 1.388 . S
C2168 C2169 1.366 . S
C2169 C2168 1.366 . S
C2169 C2170 1.414 . S
C2169 C2172 1.499 . S
C2170 H2150 0.950 . S
C2170 C2169 1.414 . S
C2170 C2171 1.374 . S
C2171 H2151 0.950 . S
C2171 C2167 1.385 . S
C2171 C2170 1.374 . S
C2172 C2169 1.499 . S
C2172 C2173 1.373 . S
C2172 C2174 1.389 . S
C2173 H2152 0.950 . S
C2173 C2172 1.373 . S
C2173 C2189 1.377 1_545 S
C2174 C2172 1.389 . S
C2174 C2175 1.524 . S
C2174 C2188 1.377 1_545 S
C2175 C2174 1.524 . S
C2175 C2176 1.397 . S
C2175 C2180 1.363 . S
C2176 H2153 0.950 . S
C2176 C2175 1.397 . S
C2176 C2177 1.334 . S
C2177 H2154 0.950 . S
C2177 C2176 1.334 . S
C2177 C2178 1.287 . S
C2178 C2177 1.287 . S
C2178 C2179 1.524 . S
C2178 H2197 0.913 . S
C2179 H2155 0.950 . S
C2179 C2178 1.524 . S
C2179 C2180 1.415 . S
C2180 H2156 0.950 . S
C2180 C2175 1.363 . S
C2180 C2179 1.415 . S
C2181 H2157 0.951 . S
C2181 C2182 1.366 . S
C2181 C2183 1.388 . S
C2182 C2181 1.366 . S
C2182 C2186 1.385 . S
C2183 H2158 0.951 . S
C2183 C2181 1.388 . S
C2183 C2184 1.366 . S
C2184 C2183 1.366 . S
C2184 C2185 1.414 . S
C2184 C2187 1.499 . S
C2185 H2159 0.950 . S
C2185 C2184 1.414 . S
C2185 C2186 1.374 . S
C2186 H2160 0.950 . S
C2186 C2182 1.385 . S
C2186 C2185 1.374 . S
C2187 C2184 1.499 . S
C2187 C2188 1.373 . S
C2187 C2189 1.389 . S
C2188 H2161 0.950 . S
C2188 C2174 1.377 1_565 S
C2188 C2187 1.373 . S
C2189 C2173 1.377 1_565 S
C2189 C2187 1.389 . S
C2189 C2190 1.524 . S
C2190 C2189 1.524 . S
C2190 C2191 1.397 . S
C2190 C2195 1.363 . S
C2191 H2162 0.950 . S
C2191 C2190 1.397 . S
C2191 C2192 1.334 . S
C2192 H2163 0.950 . S
C2192 C2191 1.334 . S
C2192 C2193 1.287 . S
C2193 C2192 1.287 . S
C2193 C2194 1.524 . S
C2193 H2196 0.999 . S
C2194 H2164 0.950 . S
C2194 C2193 1.524 . S
C2194 C2195 1.415 . S
C2195 H2165 0.950 . S
C2195 C2190 1.363 . S
C2195 C2194 1.415 . S
H2196 C2193 0.999 . S
H2197 C2178 0.913 . S
H2198 C2216 0.951 . S
H2199 C2218 0.951 . S
H2200 C2220 0.950 . S
H2201 C2221 0.950 . S
H2202 C2223 0.950 . S
H2203 C2226 0.950 . S
H2204 C2227 0.950 . S
H2205 C2229 0.950 . S
H2206 C2230 0.950 . S
H2207 C2231 0.951 . S
H2208 C2233 0.951 . S
H2209 C2235 0.950 . S
H2210 C2236 0.950 . S
H2211 C2238 0.950 . S
H2212 C2241 0.950 . S
H2213 C2242 0.950 . S
H2214 C2244 0.950 . S
H2215 C2245 0.950 . S
C2216 H2198 0.951 . S
C2216 C2217 1.366 . S
C2216 C2218 1.388 . S
C2217 C2216 1.366 . S
C2217 C2221 1.385 . S
C2218 H2199 0.951 . S
C2218 C2216 1.388 . S
C2218 C2219 1.366 . S
C2219 C2218 1.366 . S
C2219 C2220 1.414 . S
C2219 C2222 1.499 . S
C2220 H2200 0.950 . S
C2220 C2219 1.414 . S
C2220 C2221 1.374 . S
C2221 H2201 0.950 . S
C2221 C2217 1.385 . S
C2221 C2220 1.374 . S
C2222 C2219 1.499 . S
C2222 C2223 1.373 . S
C2222 C2224 1.389 . S
C2223 H2202 0.950 . S
C2223 C2222 1.373 . S
C2223 C2239 1.377 . S
C2224 C2222 1.389 . S
C2224 C2225 1.524 . S
C2224 C2238 1.377 . S
C2225 C2224 1.524 . S
C2225 C2226 1.397 . S
C2225 C2230 1.363 . S
C2226 H2203 0.950 . S
C2226 C2225 1.397 . S
C2226 C2227 1.334 . S
C2227 H2204 0.950 . S
C2227 C2226 1.334 . S
C2227 C2228 1.287 . S
C2228 C2227 1.287 . S
C2228 C2229 1.524 . S
C2228 H2247 0.913 . S
C2229 H2205 0.950 . S
C2229 C2228 1.524 . S
C2229 C2230 1.415 . S
C2230 H2206 0.950 . S
C2230 C2225 1.363 . S
C2230 C2229 1.415 . S
C2231 H2207 0.951 . S
C2231 C2232 1.366 . S
C2231 C2233 1.388 . S
C2232 C2231 1.366 . S
C2232 C2236 1.385 . S
C2233 H2208 0.951 . S
C2233 C2231 1.388 . S
C2233 C2234 1.366 . S
C2234 C2233 1.366 . S
C2234 C2235 1.414 . S
C2234 C2237 1.499 . S
C2235 H2209 0.950 . S
C2235 C2234 1.414 . S
C2235 C2236 1.374 . S
C2236 H2210 0.950 . S
C2236 C2232 1.385 . S
C2236 C2235 1.374 . S
C2237 C2234 1.499 . S
C2237 C2238 1.373 . S
C2237 C2239 1.389 . S
C2238 H2211 0.950 . S
C2238 C2224 1.377 . S
C2238 C2237 1.373 . S
C2239 C2223 1.377 . S
C2239 C2237 1.389 . S
C2239 C2240 1.524 . S
C2240 C2239 1.524 . S
C2240 C2241 1.397 . S
C2240 C2245 1.363 . S
C2241 H2212 0.950 . S
C2241 C2240 1.397 . S
C2241 C2242 1.334 . S
C2242 H2213 0.950 . S
C2242 C2241 1.334 . S
C2242 C2243 1.287 . S
C2243 C2242 1.287 . S
C2243 C2244 1.524 . S
C2243 H2246 0.999 . S
C2244 H2214 0.950 . S
C2244 C2243 1.524 . S
C2244 C2245 1.415 . S
C2245 H2215 0.950 . S
C2245 C2240 1.363 . S
C2245 C2244 1.415 . S
H2246 C2243 0.999 . S
H2247 C2228 0.913 . S
H2248 C2266 0.951 . S
H2249 C2268 0.951 . S
H2250 C2270 0.950 . S
H2251 C2271 0.950 . S
H2252 C2273 0.950 . S
H2253 C2276 0.950 . S
H2254 C2277 0.950 . S
H2255 C2279 0.950 . S
H2256 C2280 0.950 . S
H2257 C2281 0.951 . S
H2258 C2283 0.951 . S
H2259 C2285 0.950 . S
H2260 C2286 0.950 . S
H2261 C2288 0.950 . S
H2262 C2291 0.950 . S
H2263 C2292 0.950 . S
H2264 C2294 0.950 . S
H2265 C2295 0.950 . S
C2266 H2248 0.951 . S
C2266 C2267 1.366 1_455 S
C2266 C2268 1.388 . S
C2267 C2266 1.366 1_655 S
C2267 C2271 1.385 . S
C2268 H2249 0.951 . S
C2268 C2266 1.388 . S
C2268 C2269 1.366 1_455 S
C2269 C2268 1.366 1_655 S
C2269 C2270 1.414 . S
C2269 C2272 1.499 . S
C2270 H2250 0.950 . S
C2270 C2269 1.414 . S
C2270 C2271 1.374 . S
C2271 H2251 0.950 . S
C2271 C2267 1.385 . S
C2271 C2270 1.374 . S
C2272 C2269 1.499 . S
C2272 C2273 1.373 . S
C2272 C2274 1.389 1_655 S
C2273 H2252 0.950 . S
C2273 C2272 1.373 . S
C2273 C2289 1.377 1_565 S
C2274 C2272 1.389 1_455 S
C2274 C2275 1.524 . S
C2274 C2288 1.377 1_565 S
C2275 C2274 1.524 . S
C2275 C2276 1.397 . S
C2275 C2280 1.363 . S
C2276 H2253 0.950 . S
C2276 C2275 1.397 . S
C2276 C2277 1.334 . S
C2277 H2254 0.950 . S
C2277 C2276 1.334 . S
C2277 C2278 1.287 . S
C2278 C2277 1.287 . S
C2278 C2279 1.524 . S
C2278 H2297 0.913 . S
C2279 H2255 0.950 . S
C2279 C2278 1.524 . S
C2279 C2280 1.415 . S
C2280 H2256 0.950 . S
C2280 C2275 1.363 . S
C2280 C2279 1.415 . S
C2281 H2257 0.951 . S
C2281 C2282 1.366 1_655 S
C2281 C2283 1.388 . S
C2282 C2281 1.366 1_455 S
C2282 C2286 1.385 . S
C2283 H2258 0.951 . S
C2283 C2281 1.388 . S
C2283 C2284 1.366 1_655 S
C2284 C2283 1.366 1_455 S
C2284 C2285 1.414 . S
C2284 C2287 1.499 . S
C2285 H2259 0.950 . S
C2285 C2284 1.414 . S
C2285 C2286 1.374 . S
C2286 H2260 0.950 . S
C2286 C2282 1.385 . S
C2286 C2285 1.374 . S
C2287 C2284 1.499 . S
C2287 C2288 1.373 . S
C2287 C2289 1.389 1_455 S
C2288 H2261 0.950 . S
C2288 C2274 1.377 1_545 S
C2288 C2287 1.373 . S
C2289 C2273 1.377 1_545 S
C2289 C2287 1.389 1_655 S
C2289 C2290 1.524 . S
C2290 C2289 1.524 . S
C2290 C2291 1.397 . S
C2290 C2295 1.363 . S
C2291 H2262 0.950 . S
C2291 C2290 1.397 . S
C2291 C2292 1.334 . S
C2292 H2263 0.950 . S
C2292 C2291 1.334 . S
C2292 C2293 1.287 . S
C2293 C2292 1.287 . S
C2293 C2294 1.524 . S
C2293 H2296 0.999 . S
C2294 H2264 0.950 . S
C2294 C2293 1.524 . S
C2294 C2295 1.415 . S
C2295 H2265 0.950 . S
C2295 C2290 1.363 . S
C2295 C2294 1.415 . S
H2296 C2293 0.999 . S
H2297 C2278 0.913 . S
H2298 C2316 0.951 . S
H2299 C2318 0.951 . S
H2300 C2320 0.950 . S
H2301 C2321 0.950 . S
H2302 C2323 0.950 . S
H2303 C2326 0.950 . S
H2304 C2327 0.950 . S
H2305 C2329 0.950 . S
H2306 C2330 0.950 . S
H2307 C2331 0.951 . S
H2308 C2333 0.951 . S
H2309 C2335 0.950 . S
H2310 C2336 0.950 . S
H2311 C2338 0.950 . S
H2312 C2341 0.950 . S
H2313 C2342 0.950 . S
H2314 C2344 0.950 . S
H2315 C2345 0.950 . S
C2316 H2298 0.951 . S
C2316 C2317 1.366 . S
C2316 C2318 1.388 . S
C2317 C2316 1.366 . S
C2317 C2321 1.385 . S
C2318 H2299 0.951 . S
C2318 C2316 1.388 . S
C2318 C2319 1.366 . S
C2319 C2318 1.366 . S
C2319 C2320 1.414 . S
C2319 C2322 1.499 . S
C2320 H2300 0.950 . S
C2320 C2319 1.414 . S
C2320 C2321 1.374 . S
C2321 H2301 0.950 . S
C2321 C2317 1.385 . S
C2321 C2320 1.374 . S
C2322 C2319 1.499 . S
C2322 C2323 1.373 . S
C2322 C2324 1.389 . S
C2323 H2302 0.950 . S
C2323 C2322 1.373 . S
C2323 C2339 1.377 . S
C2324 C2322 1.389 . S
C2324 C2325 1.524 . S
C2324 C2338 1.377 . S
C2325 C2324 1.524 . S
C2325 C2326 1.397 . S
C2325 C2330 1.363 . S
C2326 H2303 0.950 . S
C2326 C2325 1.397 . S
C2326 C2327 1.334 . S
C2327 H2304 0.950 . S
C2327 C2326 1.334 . S
C2327 C2328 1.287 . S
C2328 C2327 1.287 . S
C2328 C2329 1.524 . S
C2328 H2347 0.913 . S
C2329 H2305 0.950 . S
C2329 C2328 1.524 . S
C2329 C2330 1.415 . S
C2330 H2306 0.950 . S
C2330 C2325 1.363 . S
C2330 C2329 1.415 . S
C2331 H2307 0.951 . S
C2331 C2332 1.366 . S
C2331 C2333 1.388 . S
C2332 C2331 1.366 . S
C2332 C2336 1.385 . S
C2333 H2308 0.951 . S
C2333 C2331 1.388 . S
C2333 C2334 1.366 . S
C2334 C2333 1.366 . S
C2334 C2335 1.414 . S
C2334 C2337 1.499 . S
C2335 H2309 0.950 . S
C2335 C2334 1.414 . S
C2335 C2336 1.374 . S
C2336 H2310 0.950 . S
C2336 C2332 1.385 . S
C2336 C2335 1.374 . S
C2337 C2334 1.499 . S
C2337 C2338 1.373 . S
C2337 C2339 1.389 . S
C2338 H2311 0.950 . S
C2338 C2324 1.377 . S
C2338 C2337 1.373 . S
C2339 C2323 1.377 . S
C2339 C2337 1.389 . S
C2339 C2340 1.524 . S
C2340 C2339 1.524 . S
C2340 C2341 1.397 . S
C2340 C2345 1.363 . S
C2341 H2312 0.950 . S
C2341 C2340 1.397 . S
C2341 C2342 1.334 . S
C2342 H2313 0.950 . S
C2342 C2341 1.334 . S
C2342 C2343 1.287 . S
C2343 C2342 1.287 . S
C2343 C2344 1.524 . S
C2343 H2346 0.999 . S
C2344 H2314 0.950 . S
C2344 C2343 1.524 . S
C2344 C2345 1.415 . S
C2345 H2315 0.950 . S
C2345 C2340 1.363 . S
C2345 C2344 1.415 . S
H2346 C2343 0.999 . S
H2347 C2328 0.913 . S
H2348 C2366 0.951 1_556 S
H2349 C2368 0.951 . S
H2350 C2370 0.950 . S
H2351 C2371 0.950 . S
H2352 C2373 0.950 . S
H2353 C2376 0.950 . S
H2354 C2377 0.950 . S
H2355 C2379 0.950 . S
H2356 C2380 0.950 . S
H2357 C2381 0.951 1_554 S
H2358 C2383 0.951 . S
H2359 C2385 0.950 . S
H2360 C2386 0.950 . S
H2361 C2388 0.950 . S
H2362 C2391 0.950 . S
H2363 C2392 0.950 . S
H2364 C2394 0.950 . S
H2365 C2395 0.950 . S
C2366 H2348 0.951 1_554 S
C2366 C2367 1.366 . S
C2366 C2368 1.388 1_554 S
C2367 C2366 1.366 . S
C2367 C2371 1.385 . S
C2368 H2349 0.951 . S
C2368 C2366 1.388 1_556 S
C2368 C2369 1.366 1_556 S
C2369 C2368 1.366 1_554 S
C2369 C2370 1.414 . S
C2369 C2372 1.499 . S
C2370 H2350 0.950 . S
C2370 C2369 1.414 . S
C2370 C2371 1.374 . S
C2371 H2351 0.950 . S
C2371 C2367 1.385 . S
C2371 C2370 1.374 . S
C2372 C2369 1.499 . S
C2372 C2373 1.373 . S
C2372 C2374 1.389 1_554 S
C2373 H2352 0.950 . S
C2373 C2372 1.373 . S
C2373 C2389 1.377 1_565 S
C2374 C2372 1.389 1_556 S
C2374 C2375 1.524 . S
C2374 C2388 1.377 1_565 S
C2375 C2374 1.524 . S
C2375 C2376 1.397 1_556 S
C2375 C2380 1.363 . S
C2376 H2353 0.950 . S
C2376 C2375 1.397 1_554 S
C2376 C2377 1.334 . S
C2377 H2354 0.950 . S
C2377 C2376 1.334 . S
C2377 C2378 1.287 . S
C2378 C2377 1.287 . S
C2378 C2379 1.524 1_554 S
C2378 H2397 0.913 . S
C2379 H2355 0.950 . S
C2379 C2378 1.524 1_556 S
C2379 C2380 1.415 . S
C2380 H2356 0.950 . S
C2380 C2375 1.363 . S
C2380 C2379 1.415 . S
C2381 H2357 0.951 1_556 S
C2381 C2382 1.366 . S
C2381 C2383 1.388 1_556 S
C2382 C2381 1.366 . S
C2382 C2386 1.385 . S
C2383 H2358 0.951 . S
C2383 C2381 1.388 1_554 S
C2383 C2384 1.366 1_554 S
C2384 C2383 1.366 1_556 S
C2384 C2385 1.414 . S
C2384 C2387 1.499 . S
C2385 H2359 0.950 . S
C2385 C2384 1.414 . S
C2385 C2386 1.374 . S
C2386 H2360 0.950 . S
C2386 C2382 1.385 . S
C2386 C2385 1.374 . S
C2387 C2384 1.499 . S
C2387 C2388 1.373 . S
C2387 C2389 1.389 1_556 S
C2388 H2361 0.950 . S
C2388 C2374 1.377 1_545 S
C2388 C2387 1.373 . S
C2389 C2373 1.377 1_545 S
C2389 C2387 1.389 1_554 S
C2389 C2390 1.524 . S
C2390 C2389 1.524 . S
C2390 C2391 1.397 1_554 S
C2390 C2395 1.363 . S
C2391 H2362 0.950 . S
C2391 C2390 1.397 1_556 S
C2391 C2392 1.334 . S
C2392 H2363 0.950 . S
C2392 C2391 1.334 . S
C2392 C2393 1.287 . S
C2393 C2392 1.287 . S
C2393 C2394 1.524 1_556 S
C2393 H2396 0.999 . S
C2394 H2364 0.950 . S
C2394 C2393 1.524 1_554 S
C2394 C2395 1.415 . S
C2395 H2365 0.950 . S
C2395 C2390 1.363 . S
C2395 C2394 1.415 . S
H2396 C2393 0.999 . S
H2397 C2378 0.913 . S
H2398 C2416 0.951 . S
H2399 C2418 0.951 . S
H2400 C2420 0.950 . S
H2401 C2421 0.950 . S
H2402 C2423 0.950 . S
H2403 C2426 0.950 . S
H2404 C2427 0.950 . S
H2405 C2429 0.950 . S
H2406 C2430 0.950 . S
H2407 C2431 0.951 . S
H2408 C2433 0.951 . S
H2409 C2435 0.950 . S
H2410 C2436 0.950 . S
H2411 C2438 0.950 . S
H2412 C2441 0.950 . S
H2413 C2442 0.950 . S
H2414 C2444 0.950 . S
H2415 C2445 0.950 . S
C2416 H2398 0.951 . S
C2416 C2417 1.366 . S
C2416 C2418 1.388 . S
C2417 C2416 1.366 . S
C2417 C2421 1.385 . S
C2418 H2399 0.951 . S
C2418 C2416 1.388 . S
C2418 C2419 1.366 . S
C2419 C2418 1.366 . S
C2419 C2420 1.414 . S
C2419 C2422 1.499 . S
C2420 H2400 0.950 . S
C2420 C2419 1.414 . S
C2420 C2421 1.374 . S
C2421 H2401 0.950 . S
C2421 C2417 1.385 . S
C2421 C2420 1.374 . S
C2422 C2419 1.499 . S
C2422 C2423 1.373 . S
C2422 C2424 1.389 . S
C2423 H2402 0.950 . S
C2423 C2422 1.373 . S
C2423 C2439 1.377 . S
C2424 C2422 1.389 . S
C2424 C2425 1.524 . S
C2424 C2438 1.377 . S
C2425 C2424 1.524 . S
C2425 C2426 1.397 . S
C2425 C2430 1.363 . S
C2426 H2403 0.950 . S
C2426 C2425 1.397 . S
C2426 C2427 1.334 . S
C2427 H2404 0.950 . S
C2427 C2426 1.334 . S
C2427 C2428 1.287 . S
C2428 C2427 1.287 . S
C2428 C2429 1.524 . S
C2428 H2447 0.913 . S
C2429 H2405 0.950 . S
C2429 C2428 1.524 . S
C2429 C2430 1.415 . S
C2430 H2406 0.950 . S
C2430 C2425 1.363 . S
C2430 C2429 1.415 . S
C2431 H2407 0.951 . S
C2431 C2432 1.366 . S
C2431 C2433 1.388 . S
C2432 C2431 1.366 . S
C2432 C2436 1.385 . S
C2433 H2408 0.951 . S
C2433 C2431 1.388 . S
C2433 C2434 1.366 . S
C2434 C2433 1.366 . S
C2434 C2435 1.414 . S
C2434 C2437 1.499 . S
C2435 H2409 0.950 . S
C2435 C2434 1.414 . S
C2435 C2436 1.374 . S
C2436 H2410 0.950 . S
C2436 C2432 1.385 . S
C2436 C2435 1.374 . S
C2437 C2434 1.499 . S
C2437 C2438 1.373 . S
C2437 C2439 1.389 . S
C2438 H2411 0.950 . S
C2438 C2424 1.377 . S
C2438 C2437 1.373 . S
C2439 C2423 1.377 . S
C2439 C2437 1.389 . S
C2439 C2440 1.524 . S
C2440 C2439 1.524 . S
C2440 C2441 1.397 . S
C2440 C2445 1.363 . S
C2441 H2412 0.950 . S
C2441 C2440 1.397 . S
C2441 C2442 1.334 . S
C2442 H2413 0.950 . S
C2442 C2441 1.334 . S
C2442 C2443 1.287 . S
C2443 C2442 1.287 . S
C2443 C2444 1.524 . S
C2443 H2446 0.999 . S
C2444 H2414 0.950 . S
C2444 C2443 1.524 . S
C2444 C2445 1.415 . S
C2445 H2415 0.950 . S
C2445 C2440 1.363 . S
C2445 C2444 1.415 . S
H2446 C2443 0.999 . S
H2447 C2428 0.913 . S
H2448 C2466 0.951 . S
H2449 C2468 0.951 . S
H2450 C2470 0.950 . S
H2451 C2471 0.950 . S
H2452 C2473 0.950 . S
H2453 C2476 0.950 . S
H2454 C2477 0.950 . S
H2455 C2479 0.950 . S
H2456 C2480 0.950 . S
H2457 C2481 0.951 . S
H2458 C2483 0.951 . S
H2459 C2485 0.950 . S
H2460 C2486 0.950 . S
H2461 C2488 0.950 . S
H2462 C2491 0.950 . S
H2463 C2492 0.950 . S
H2464 C2494 0.950 . S
H2465 C2495 0.950 . S
C2466 H2448 0.951 . S
C2466 C2467 1.366 . S
C2466 C2468 1.388 . S
C2467 C2466 1.366 . S
C2467 C2471 1.385 . S
C2468 H2449 0.951 . S
C2468 C2466 1.388 . S
C2468 C2469 1.366 . S
C2469 C2468 1.366 . S
C2469 C2470 1.414 . S
C2469 C2472 1.499 . S
C2470 H2450 0.950 . S
C2470 C2469 1.414 . S
C2470 C2471 1.374 . S
C2471 H2451 0.950 . S
C2471 C2467 1.385 . S
C2471 C2470 1.374 . S
C2472 C2469 1.499 . S
C2472 C2473 1.373 . S
C2472 C2474 1.389 . S
C2473 H2452 0.950 . S
C2473 C2472 1.373 . S
C2473 C2489 1.377 . S
C2474 C2472 1.389 . S
C2474 C2475 1.524 . S
C2474 C2488 1.377 . S
C2475 C2474 1.524 . S
C2475 C2476 1.397 . S
C2475 C2480 1.363 . S
C2476 H2453 0.950 . S
C2476 C2475 1.397 . S
C2476 C2477 1.334 . S
C2477 H2454 0.950 . S
C2477 C2476 1.334 . S
C2477 C2478 1.287 . S
C2478 C2477 1.287 . S
C2478 C2479 1.524 . S
C2478 H2497 0.913 . S
C2479 H2455 0.950 . S
C2479 C2478 1.524 . S
C2479 C2480 1.415 . S
C2480 H2456 0.950 . S
C2480 C2475 1.363 . S
C2480 C2479 1.415 . S
C2481 H2457 0.951 . S
C2481 C2482 1.366 . S
C2481 C2483 1.388 . S
C2482 C2481 1.366 . S
C2482 C2486 1.385 . S
C2483 H2458 0.951 . S
C2483 C2481 1.388 . S
C2483 C2484 1.366 . S
C2484 C2483 1.366 . S
C2484 C2485 1.414 . S
C2484 C2487 1.499 . S
C2485 H2459 0.950 . S
C2485 C2484 1.414 . S
C2485 C2486 1.374 . S
C2486 H2460 0.950 . S
C2486 C2482 1.385 . S
C2486 C2485 1.374 . S
C2487 C2484 1.499 . S
C2487 C2488 1.373 . S
C2487 C2489 1.389 . S
C2488 H2461 0.950 . S
C2488 C2474 1.377 . S
C2488 C2487 1.373 . S
C2489 C2473 1.377 . S
C2489 C2487 1.389 . S
C2489 C2490 1.524 . S
C2490 C2489 1.524 . S
C2490 C2491 1.397 . S
C2490 C2495 1.363 . S
C2491 H2462 0.950 . S
C2491 C2490 1.397 . S
C2491 C2492 1.334 . S
C2492 H2463 0.950 . S
C2492 C2491 1.334 . S
C2492 C2493 1.287 . S
C2493 C2492 1.287 . S
C2493 C2494 1.524 . S
C2493 H2496 0.999 . S
C2494 H2464 0.950 . S
C2494 C2493 1.524 . S
C2494 C2495 1.415 . S
C2495 H2465 0.950 . S
C2495 C2490 1.363 . S
C2495 C2494 1.415 . S
H2496 C2493 0.999 . S
H2497 C2478 0.913 . S
H2498 C2516 0.951 . S
H2499 C2518 0.951 . S
H2500 C2520 0.950 . S
H2501 C2521 0.950 . S
H2502 C2523 0.950 . S
H2503 C2526 0.950 . S
H2504 C2527 0.950 . S
H2505 C2529 0.950 . S
H2506 C2530 0.950 . S
H2507 C2531 0.951 . S
H2508 C2533 0.951 . S
H2509 C2535 0.950 . S
H2510 C2536 0.950 . S
H2511 C2538 0.950 . S
H2512 C2541 0.950 . S
H2513 C2542 0.950 . S
H2514 C2544 0.950 . S
H2515 C2545 0.950 . S
C2516 H2498 0.951 . S
C2516 C2517 1.366 . S
C2516 C2518 1.388 . S
C2517 C2516 1.366 . S
C2517 C2521 1.385 . S
C2518 H2499 0.951 . S
C2518 C2516 1.388 . S
C2518 C2519 1.366 . S
C2519 C2518 1.366 . S
C2519 C2520 1.414 . S
C2519 C2522 1.499 . S
C2520 H2500 0.950 . S
C2520 C2519 1.414 . S
C2520 C2521 1.374 . S
C2521 H2501 0.950 . S
C2521 C2517 1.385 . S
C2521 C2520 1.374 . S
C2522 C2519 1.499 . S
C2522 C2523 1.373 . S
C2522 C2524 1.389 . S
C2523 H2502 0.950 . S
C2523 C2522 1.373 . S
C2523 C2539 1.377 . S
C2524 C2522 1.389 . S
C2524 C2525 1.524 . S
C2524 C2538 1.377 . S
C2525 C2524 1.524 . S
C2525 C2526 1.397 . S
C2525 C2530 1.363 . S
C2526 H2503 0.950 . S
C2526 C2525 1.397 . S
C2526 C2527 1.334 . S
C2527 H2504 0.950 . S
C2527 C2526 1.334 . S
C2527 C2528 1.287 . S
C2528 C2527 1.287 . S
C2528 C2529 1.524 . S
C2528 H2547 0.913 . S
C2529 H2505 0.950 . S
C2529 C2528 1.524 . S
C2529 C2530 1.415 . S
C2530 H2506 0.950 . S
C2530 C2525 1.363 . S
C2530 C2529 1.415 . S
C2531 H2507 0.951 . S
C2531 C2532 1.366 . S
C2531 C2533 1.388 . S
C2532 C2531 1.366 . S
C2532 C2536 1.385 . S
C2533 H2508 0.951 . S
C2533 C2531 1.388 . S
C2533 C2534 1.366 . S
C2534 C2533 1.366 . S
C2534 C2535 1.414 . S
C2534 C2537 1.499 . S
C2535 H2509 0.950 . S
C2535 C2534 1.414 . S
C2535 C2536 1.374 . S
C2536 H2510 0.950 . S
C2536 C2532 1.385 . S
C2536 C2535 1.374 . S
C2537 C2534 1.499 . S
C2537 C2538 1.373 . S
C2537 C2539 1.389 . S
C2538 H2511 0.950 . S
C2538 C2524 1.377 . S
C2538 C2537 1.373 . S
C2539 C2523 1.377 . S
C2539 C2537 1.389 . S
C2539 C2540 1.524 . S
C2540 C2539 1.524 . S
C2540 C2541 1.397 . S
C2540 C2545 1.363 . S
C2541 H2512 0.950 . S
C2541 C2540 1.397 . S
C2541 C2542 1.334 . S
C2542 H2513 0.950 . S
C2542 C2541 1.334 . S
C2542 C2543 1.287 . S
C2543 C2542 1.287 . S
C2543 C2544 1.524 . S
C2543 H2546 0.999 . S
C2544 H2514 0.950 . S
C2544 C2543 1.524 . S
C2544 C2545 1.415 . S
C2545 H2515 0.950 . S
C2545 C2540 1.363 . S
C2545 C2544 1.415 . S
H2546 C2543 0.999 . S
H2547 C2528 0.913 . S
H2548 C2566 0.951 . S
H2549 C2568 0.951 . S
H2550 C2570 0.950 . S
H2551 C2571 0.950 . S
H2552 C2573 0.950 . S
H2553 C2576 0.950 . S
H2554 C2577 0.950 . S
H2555 C2579 0.950 . S
H2556 C2580 0.950 . S
H2557 C2581 0.951 . S
H2558 C2583 0.951 . S
H2559 C2585 0.950 . S
H2560 C2586 0.950 . S
H2561 C2588 0.950 . S
H2562 C2591 0.950 . S
H2563 C2592 0.950 . S
H2564 C2594 0.950 . S
H2565 C2595 0.950 . S
C2566 H2548 0.951 . S
C2566 C2567 1.366 . S
C2566 C2568 1.388 . S
C2567 C2566 1.366 . S
C2567 C2571 1.385 . S
C2568 H2549 0.951 . S
C2568 C2566 1.388 . S
C2568 C2569 1.366 . S
C2569 C2568 1.366 . S
C2569 C2570 1.414 . S
C2569 C2572 1.499 . S
C2570 H2550 0.950 . S
C2570 C2569 1.414 . S
C2570 C2571 1.374 . S
C2571 H2551 0.950 . S
C2571 C2567 1.385 . S
C2571 C2570 1.374 . S
C2572 C2569 1.499 . S
C2572 C2573 1.373 . S
C2572 C2574 1.389 . S
C2573 H2552 0.950 . S
C2573 C2572 1.373 . S
C2573 C2589 1.377 . S
C2574 C2572 1.389 . S
C2574 C2575 1.524 . S
C2574 C2588 1.377 . S
C2575 C2574 1.524 . S
C2575 C2576 1.397 . S
C2575 C2580 1.363 . S
C2576 H2553 0.950 . S
C2576 C2575 1.397 . S
C2576 C2577 1.334 . S
C2577 H2554 0.950 . S
C2577 C2576 1.334 . S
C2577 C2578 1.287 . S
C2578 C2577 1.287 . S
C2578 C2579 1.524 . S
C2578 H2597 0.913 . S
C2579 H2555 0.950 . S
C2579 C2578 1.524 . S
C2579 C2580 1.415 . S
C2580 H2556 0.950 . S
C2580 C2575 1.363 . S
C2580 C2579 1.415 . S
C2581 H2557 0.951 . S
C2581 C2582 1.366 . S
C2581 C2583 1.388 . S
C2582 C2581 1.366 . S
C2582 C2586 1.385 . S
C2583 H2558 0.951 . S
C2583 C2581 1.388 . S
C2583 C2584 1.366 . S
C2584 C2583 1.366 . S
C2584 C2585 1.414 . S
C2584 C2587 1.499 . S
C2585 H2559 0.950 . S
C2585 C2584 1.414 . S
C2585 C2586 1.374 . S
C2586 H2560 0.950 . S
C2586 C2582 1.385 . S
C2586 C2585 1.374 . S
C2587 C2584 1.499 . S
C2587 C2588 1.373 . S
C2587 C2589 1.389 . S
C2588 H2561 0.950 . S
C2588 C2574 1.377 . S
C2588 C2587 1.373 . S
C2589 C2573 1.377 . S
C2589 C2587 1.389 . S
C2589 C2590 1.524 . S
C2590 C2589 1.524 . S
C2590 C2591 1.397 . S
C2590 C2595 1.363 . S
C2591 H2562 0.950 . S
C2591 C2590 1.397 . S
C2591 C2592 1.334 . S
C2592 H2563 0.950 . S
C2592 C2591 1.334 . S
C2592 C2593 1.287 . S
C2593 C2592 1.287 . S
C2593 C2594 1.524 . S
C2593 H2596 0.999 . S
C2594 H2564 0.950 . S
C2594 C2593 1.524 . S
C2594 C2595 1.415 . S
C2595 H2565 0.950 . S
C2595 C2590 1.363 . S
C2595 C2594 1.415 . S
H2596 C2593 0.999 . S
H2597 C2578 0.913 . S
H2598 C2616 0.951 . S
H2599 C2618 0.951 . S
H2600 C2620 0.950 . S
H2601 C2621 0.950 . S
H2602 C2623 0.950 . S
H2603 C2626 0.950 . S
H2604 C2627 0.950 . S
H2605 C2629 0.950 . S
H2606 C2630 0.950 . S
H2607 C2631 0.951 . S
H2608 C2633 0.951 . S
H2609 C2635 0.950 . S
H2610 C2636 0.950 . S
H2611 C2638 0.950 . S
H2612 C2641 0.950 . S
H2613 C2642 0.950 . S
H2614 C2644 0.950 . S
H2615 C2645 0.950 . S
C2616 H2598 0.951 . S
C2616 C2617 1.366 . S
C2616 C2618 1.388 . S
C2617 C2616 1.366 . S
C2617 C2621 1.385 . S
C2618 H2599 0.951 . S
C2618 C2616 1.388 . S
C2618 C2619 1.366 . S
C2619 C2618 1.366 . S
C2619 C2620 1.414 . S
C2619 C2622 1.499 . S
C2620 H2600 0.950 . S
C2620 C2619 1.414 . S
C2620 C2621 1.374 . S
C2621 H2601 0.950 . S
C2621 C2617 1.385 . S
C2621 C2620 1.374 . S
C2622 C2619 1.499 . S
C2622 C2623 1.373 . S
C2622 C2624 1.389 . S
C2623 H2602 0.950 . S
C2623 C2622 1.373 . S
C2623 C2639 1.377 . S
C2624 C2622 1.389 . S
C2624 C2625 1.524 . S
C2624 C2638 1.377 . S
C2625 C2624 1.524 . S
C2625 C2626 1.397 . S
C2625 C2630 1.363 . S
C2626 H2603 0.950 . S
C2626 C2625 1.397 . S
C2626 C2627 1.334 . S
C2627 H2604 0.950 . S
C2627 C2626 1.334 . S
C2627 C2628 1.287 . S
C2628 C2627 1.287 . S
C2628 C2629 1.524 . S
C2628 H2647 0.913 . S
C2629 H2605 0.950 . S
C2629 C2628 1.524 . S
C2629 C2630 1.415 . S
C2630 H2606 0.950 . S
C2630 C2625 1.363 . S
C2630 C2629 1.415 . S
C2631 H2607 0.951 . S
C2631 C2632 1.366 . S
C2631 C2633 1.388 . S
C2632 C2631 1.366 . S
C2632 C2636 1.385 . S
C2633 H2608 0.951 . S
C2633 C2631 1.388 . S
C2633 C2634 1.366 . S
C2634 C2633 1.366 . S
C2634 C2635 1.414 . S
C2634 C2637 1.499 . S
C2635 H2609 0.950 . S
C2635 C2634 1.414 . S
C2635 C2636 1.374 . S
C2636 H2610 0.950 . S
C2636 C2632 1.385 . S
C2636 C2635 1.374 . S
C2637 C2634 1.499 . S
C2637 C2638 1.373 . S
C2637 C2639 1.389 . S
C2638 H2611 0.950 . S
C2638 C2624 1.377 . S
C2638 C2637 1.373 . S
C2639 C2623 1.377 . S
C2639 C2637 1.389 . S
C2639 C2640 1.524 . S
C2640 C2639 1.524 . S
C2640 C2641 1.397 . S
C2640 C2645 1.363 . S
C2641 H2612 0.950 . S
C2641 C2640 1.397 . S
C2641 C2642 1.334 . S
C2642 H2613 0.950 . S
C2642 C2641 1.334 . S
C2642 C2643 1.287 . S
C2643 C2642 1.287 . S
C2643 C2644 1.524 . S
C2643 H2646 0.999 . S
C2644 H2614 0.950 . S
C2644 C2643 1.524 . S
C2644 C2645 1.415 . S
C2645 H2615 0.950 . S
C2645 C2640 1.363 . S
C2645 C2644 1.415 . S
H2646 C2643 0.999 . S
H2647 C2628 0.913 . S
H2648 C2666 0.951 . S
H2649 C2668 0.951 . S
H2650 C2670 0.950 . S
H2651 C2671 0.950 . S
H2652 C2673 0.950 . S
H2653 C2676 0.950 . S
H2654 C2677 0.950 . S
H2655 C2679 0.950 . S
H2656 C2680 0.950 . S
H2657 C2681 0.951 . S
H2658 C2683 0.951 . S
H2659 C2685 0.950 . S
H2660 C2686 0.950 . S
H2661 C2688 0.950 . S
H2662 C2691 0.950 . S
H2663 C2692 0.950 . S
H2664 C2694 0.950 . S
H2665 C2695 0.950 . S
C2666 H2648 0.951 . S
C2666 C2667 1.366 . S
C2666 C2668 1.388 . S
C2667 C2666 1.366 . S
C2667 C2671 1.385 . S
C2668 H2649 0.951 . S
C2668 C2666 1.388 . S
C2668 C2669 1.366 . S
C2669 C2668 1.366 . S
C2669 C2670 1.414 . S
C2669 C2672 1.499 . S
C2670 H2650 0.950 . S
C2670 C2669 1.414 . S
C2670 C2671 1.374 . S
C2671 H2651 0.950 . S
C2671 C2667 1.385 . S
C2671 C2670 1.374 . S
C2672 C2669 1.499 . S
C2672 C2673 1.373 . S
C2672 C2674 1.389 . S
C2673 H2652 0.950 . S
C2673 C2672 1.373 . S
C2673 C2689 1.377 . S
C2674 C2672 1.389 . S
C2674 C2675 1.524 . S
C2674 C2688 1.377 . S
C2675 C2674 1.524 . S
C2675 C2676 1.397 . S
C2675 C2680 1.363 . S
C2676 H2653 0.950 . S
C2676 C2675 1.397 . S
C2676 C2677 1.334 . S
C2677 H2654 0.950 . S
C2677 C2676 1.334 . S
C2677 C2678 1.287 . S
C2678 C2677 1.287 . S
C2678 C2679 1.524 . S
C2678 H2697 0.913 . S
C2679 H2655 0.950 . S
C2679 C2678 1.524 . S
C2679 C2680 1.415 . S
C2680 H2656 0.950 . S
C2680 C2675 1.363 . S
C2680 C2679 1.415 . S
C2681 H2657 0.951 . S
C2681 C2682 1.366 . S
C2681 C2683 1.388 . S
C2682 C2681 1.366 . S
C2682 C2686 1.385 . S
C2683 H2658 0.951 . S
C2683 C2681 1.388 . S
C2683 C2684 1.366 . S
C2684 C2683 1.366 . S
C2684 C2685 1.414 . S
C2684 C2687 1.499 . S
C2685 H2659 0.950 . S
C2685 C2684 1.414 . S
C2685 C2686 1.374 . S
C2686 H2660 0.950 . S
C2686 C2682 1.385 . S
C2686 C2685 1.374 . S
C2687 C2684 1.499 . S
C2687 C2688 1.373 . S
C2687 C2689 1.389 . S
C2688 H2661 0.950 . S
C2688 C2674 1.377 . S
C2688 C2687 1.373 . S
C2689 C2673 1.377 . S
C2689 C2687 1.389 . S
C2689 C2690 1.524 . S
C2690 C2689 1.524 . S
C2690 C2691 1.397 . S
C2690 C2695 1.363 . S
C2691 H2662 0.950 . S
C2691 C2690 1.397 . S
C2691 C2692 1.334 . S
C2692 H2663 0.950 . S
C2692 C2691 1.334 . S
C2692 C2693 1.287 . S
C2693 C2692 1.287 . S
C2693 C2694 1.524 . S
C2693 H2696 0.999 . S
C2694 H2664 0.950 . S
C2694 C2693 1.524 . S
C2694 C2695 1.415 . S
C2695 H2665 0.950 . S
C2695 C2690 1.363 . S
C2695 C2694 1.415 . S
H2696 C2693 0.999 . S
H2697 C2678 0.913 . S
H2698 C2716 0.951 . S
H2699 C2718 0.951 . S
H2700 C2720 0.950 . S
H2701 C2721 0.950 . S
H2702 C2723 0.950 . S
H2703 C2726 0.923 1_455 S
H2704 C2727 0.950 . S
H2705 C2729 0.950 . S
H2706 C2730 0.950 . S
H2707 C2731 0.951 . S
H2708 C2733 0.951 . S
H2709 C2735 0.950 . S
H2710 C2736 0.950 . S
H2711 C2738 0.950 . S
H2712 C2741 0.923 1_655 S
H2713 C2742 0.950 . S
H2714 C2744 0.950 . S
H2715 C2745 0.950 . S
C2716 H2698 0.951 . S
C2716 C2717 1.366 1_655 S
C2716 C2718 1.388 . S
C2717 C2716 1.366 1_455 S
C2717 C2721 1.385 . S
C2718 H2699 0.951 . S
C2718 C2716 1.388 . S
C2718 C2719 1.366 1_655 S
C2719 C2718 1.366 1_455 S
C2719 C2720 1.414 . S
C2719 C2722 1.499 . S
C2720 H2700 0.950 . S
C2720 C2719 1.414 . S
C2720 C2721 1.374 . S
C2721 H2701 0.950 . S
C2721 C2717 1.385 . S
C2721 C2720 1.374 . S
C2722 C2719 1.499 . S
C2722 C2723 1.373 . S
C2722 C2724 1.389 1_454 S
C2723 H2702 0.950 . S
C2723 C2722 1.373 . S
C2723 C2739 1.377 . S
C2724 C2722 1.389 1_656 S
C2724 C2725 1.524 . S
C2724 C2738 1.377 . S
C2725 C2724 1.524 . S
C2725 C2726 1.397 . S
C2725 C2730 1.363 . S
C2726 H2703 0.923 1_655 S
C2726 C2725 1.397 . S
C2726 C2727 1.334 . S
C2727 H2704 0.950 . S
C2727 C2726 1.334 . S
C2727 C2728 1.287 . S
C2728 C2727 1.287 . S
C2728 C2729 1.524 . S
C2728 H2747 0.913 . S
C2729 H2705 0.950 . S
C2729 C2728 1.524 . S
C2729 C2730 1.415 . S
C2730 H2706 0.950 . S
C2730 C2725 1.363 . S
C2730 C2729 1.415 . S
C2731 H2707 0.951 . S
C2731 C2732 1.366 1_455 S
C2731 C2733 1.388 . S
C2732 C2731 1.366 1_655 S
C2732 C2736 1.385 . S
C2733 H2708 0.951 . S
C2733 C2731 1.388 . S
C2733 C2734 1.366 1_455 S
C2734 C2733 1.366 1_655 S
C2734 C2735 1.414 . S
C2734 C2737 1.499 . S
C2735 H2709 0.950 . S
C2735 C2734 1.414 . S
C2735 C2736 1.374 . S
C2736 H2710 0.950 . S
C2736 C2732 1.385 . S
C2736 C2735 1.374 . S
C2737 C2734 1.499 . S
C2737 C2738 1.373 . S
C2737 C2739 1.389 1_656 S
C2738 H2711 0.950 . S
C2738 C2724 1.377 . S
C2738 C2737 1.373 . S
C2739 C2723 1.377 . S
C2739 C2737 1.389 1_454 S
C2739 C2740 1.524 . S
C2740 C2739 1.524 . S
C2740 C2741 1.397 . S
C2740 C2745 1.363 . S
C2741 H2712 0.923 1_455 S
C2741 C2740 1.397 . S
C2741 C2742 1.334 . S
C2742 H2713 0.950 . S
C2742 C2741 1.334 . S
C2742 C2743 1.287 . S
C2743 C2742 1.287 . S
C2743 C2744 1.524 . S
C2743 H2746 0.999 . S
C2744 H2714 0.950 . S
C2744 C2743 1.524 . S
C2744 C2745 1.415 . S
C2745 H2715 0.950 . S
C2745 C2740 1.363 . S
C2745 C2744 1.415 . S
H2746 C2743 0.999 . S
H2747 C2728 0.913 . S
H2748 C2766 0.951 . S
H2749 C2768 0.951 . S
H2750 C2770 0.950 . S
H2751 C2771 0.950 . S
H2752 C2773 0.950 . S
H2753 C2776 0.950 . S
H2754 C2777 0.950 . S
H2755 C2779 0.950 . S
H2756 C2780 0.950 . S
H2757 C2781 0.951 . S
H2758 C2783 0.951 . S
H2759 C2785 0.950 . S
H2760 C2786 0.950 . S
H2761 C2788 0.950 . S
H2762 C2791 0.950 . S
H2763 C2792 0.950 . S
H2764 C2794 0.950 . S
H2765 C2795 0.950 . S
C2766 H2748 0.951 . S
C2766 C2767 1.366 . S
C2766 C2768 1.388 . S
C2767 C2766 1.366 . S
C2767 C2771 1.385 . S
C2768 H2749 0.951 . S
C2768 C2766 1.388 . S
C2768 C2769 1.366 . S
C2769 C2768 1.366 . S
C2769 C2770 1.414 . S
C2769 C2772 1.499 . S
C2770 H2750 0.950 . S
C2770 C2769 1.414 . S
C2770 C2771 1.374 . S
C2771 H2751 0.950 . S
C2771 C2767 1.385 . S
C2771 C2770 1.374 . S
C2772 C2769 1.499 . S
C2772 C2773 1.373 . S
C2772 C2774 1.389 1_556 S
C2773 H2752 0.950 . S
C2773 C2772 1.373 . S
C2773 C2789 1.377 . S
C2774 C2772 1.389 1_554 S
C2774 C2775 1.524 . S
C2774 C2788 1.377 . S
C2775 C2774 1.524 . S
C2775 C2776 1.397 . S
C2775 C2780 1.363 . S
C2776 H2753 0.950 . S
C2776 C2775 1.397 . S
C2776 C2777 1.334 . S
C2777 H2754 0.950 . S
C2777 C2776 1.334 . S
C2777 C2778 1.287 . S
C2778 C2777 1.287 . S
C2778 C2779 1.524 . S
C2778 H2797 0.913 . S
C2779 H2755 0.950 . S
C2779 C2778 1.524 . S
C2779 C2780 1.415 . S
C2780 H2756 0.950 . S
C2780 C2775 1.363 . S
C2780 C2779 1.415 . S
C2781 H2757 0.951 . S
C2781 C2782 1.366 . S
C2781 C2783 1.388 . S
C2782 C2781 1.366 . S
C2782 C2786 1.385 . S
C2783 H2758 0.951 . S
C2783 C2781 1.388 . S
C2783 C2784 1.366 . S
C2784 C2783 1.366 . S
C2784 C2785 1.414 . S
C2784 C2787 1.499 . S
C2785 H2759 0.950 . S
C2785 C2784 1.414 . S
C2785 C2786 1.374 . S
C2786 H2760 0.950 . S
C2786 C2782 1.385 . S
C2786 C2785 1.374 . S
C2787 C2784 1.499 . S
C2787 C2788 1.373 . S
C2787 C2789 1.389 1_554 S
C2788 H2761 0.950 . S
C2788 C2774 1.377 . S
C2788 C2787 1.373 . S
C2789 C2773 1.377 . S
C2789 C2787 1.389 1_556 S
C2789 C2790 1.524 . S
C2790 C2789 1.524 . S
C2790 C2791 1.397 . S
C2790 C2795 1.363 . S
C2791 H2762 0.950 . S
C2791 C2790 1.397 . S
C2791 C2792 1.334 . S
C2792 H2763 0.950 . S
C2792 C2791 1.334 . S
C2792 C2793 1.287 . S
C2793 C2792 1.287 . S
C2793 C2794 1.524 . S
C2793 H2796 0.999 . S
C2794 H2764 0.950 . S
C2794 C2793 1.524 . S
C2794 C2795 1.415 . S
C2795 H2765 0.950 . S
C2795 C2790 1.363 . S
C2795 C2794 1.415 . S
H2796 C2793 0.999 . S
H2797 C2778 0.913 . S
H2798 C2816 0.951 . S
H2799 C2818 0.951 . S
H2800 C2820 0.950 . S
H2801 C2821 0.950 . S
H2802 C2823 0.950 . S
H2803 C2826 0.950 . S
H2804 C2827 0.950 . S
H2805 C2829 0.950 . S
H2806 C2830 0.950 1_455 S
H2807 C2831 0.951 . S
H2808 C2833 0.951 . S
H2809 C2835 0.950 . S
H2810 C2836 0.950 . S
H2811 C2838 0.950 . S
H2812 C2841 0.950 . S
H2813 C2842 0.950 . S
H2814 C2844 0.950 . S
H2815 C2845 0.950 1_655 S
C2816 H2798 0.951 . S
C2816 C2817 1.366 1_455 S
C2816 C2818 1.388 . S
C2817 C2816 1.366 1_655 S
C2817 C2821 1.385 . S
C2818 H2799 0.951 . S
C2818 C2816 1.388 . S
C2818 C2819 1.366 1_455 S
C2819 C2818 1.366 1_655 S
C2819 C2820 1.414 . S
C2819 C2822 1.499 . S
C2820 H2800 0.950 . S
C2820 C2819 1.414 . S
C2820 C2821 1.374 . S
C2821 H2801 0.950 . S
C2821 C2817 1.385 . S
C2821 C2820 1.374 . S
C2822 C2819 1.499 . S
C2822 C2823 1.373 1_655 S
C2822 C2824 1.389 . S
C2823 H2802 0.950 . S
C2823 C2822 1.373 1_455 S
C2823 C2839 1.377 . S
C2824 C2822 1.389 . S
C2824 C2825 1.524 . S
C2824 C2838 1.377 . S
C2825 C2824 1.524 . S
C2825 C2826 1.397 . S
C2825 C2830 1.363 . S
C2826 H2803 0.950 . S
C2826 C2825 1.397 . S
C2826 C2827 1.334 . S
C2827 H2804 0.950 . S
C2827 C2826 1.334 . S
C2827 C2828 1.287 . S
C2828 C2827 1.287 . S
C2828 C2829 1.524 . S
C2828 H2847 0.913 . S
C2829 H2805 0.950 . S
C2829 C2828 1.524 . S
C2829 C2830 1.415 . S
C2830 H2806 0.950 1_655 S
C2830 C2825 1.363 . S
C2830 C2829 1.415 . S
C2831 H2807 0.951 . S
C2831 C2832 1.366 1_655 S
C2831 C2833 1.388 . S
C2832 C2831 1.366 1_455 S
C2832 C2836 1.385 . S
C2833 H2808 0.951 . S
C2833 C2831 1.388 . S
C2833 C2834 1.366 1_655 S
C2834 C2833 1.366 1_455 S
C2834 C2835 1.414 . S
C2834 C2837 1.499 . S
C2835 H2809 0.950 . S
C2835 C2834 1.414 . S
C2835 C2836 1.374 . S
C2836 H2810 0.950 . S
C2836 C2832 1.385 . S
C2836 C2835 1.374 . S
C2837 C2834 1.499 . S
C2837 C2838 1.373 1_455 S
C2837 C2839 1.389 . S
C2838 H2811 0.950 . S
C2838 C2824 1.377 . S
C2838 C2837 1.373 1_655 S
C2839 C2823 1.377 . S
C2839 C2837 1.389 . S
C2839 C2840 1.524 . S
C2840 C2839 1.524 . S
C2840 C2841 1.397 . S
C2840 C2845 1.363 . S
C2841 H2812 0.950 . S
C2841 C2840 1.397 . S
C2841 C2842 1.334 . S
C2842 H2813 0.950 . S
C2842 C2841 1.334 . S
C2842 C2843 1.287 . S
C2843 C2842 1.287 . S
C2843 C2844 1.524 . S
C2843 H2846 0.999 . S
C2844 H2814 0.950 . S
C2844 C2843 1.524 . S
C2844 C2845 1.415 . S
C2845 H2815 0.950 1_455 S
C2845 C2840 1.363 . S
C2845 C2844 1.415 . S
H2846 C2843 0.999 . S
H2847 C2828 0.913 . S
H2848 C2866 0.951 . S
H2849 C2868 0.951 . S
H2850 C2870 0.950 . S
H2851 C2871 0.950 . S
H2852 C2873 0.950 . S
H2853 C2876 0.950 . S
H2854 C2877 0.950 . S
H2855 C2879 0.935 1_556 S
H2856 C2880 0.950 . S
H2857 C2881 0.951 . S
H2858 C2883 0.951 . S
H2859 C2885 0.950 . S
H2860 C2886 0.950 . S
H2861 C2888 0.950 . S
H2862 C2891 0.950 . S
H2863 C2892 0.950 . S
H2864 C2894 0.950 . S
H2865 C2895 0.950 . S
C2866 H2848 0.951 . S
C2866 C2867 1.366 . S
C2866 C2868 1.388 . S
C2867 C2866 1.366 . S
C2867 C2871 1.385 . S
C2868 H2849 0.951 . S
C2868 C2866 1.388 . S
C2868 C2869 1.366 . S
C2869 C2868 1.366 . S
C2869 C2870 1.414 . S
C2869 C2872 1.499 . S
C2870 H2850 0.950 . S
C2870 C2869 1.414 . S
C2870 C2871 1.374 . S
C2871 H2851 0.950 . S
C2871 C2867 1.385 . S
C2871 C2870 1.374 . S
C2872 C2869 1.499 . S
C2872 C2873 1.373 . S
C2872 C2874 1.389 . S
C2873 H2852 0.950 . S
C2873 C2872 1.373 . S
C2873 C2889 1.377 . S
C2874 C2872 1.389 . S
C2874 C2875 1.524 . S
C2874 C2888 1.377 . S
C2875 C2874 1.524 . S
C2875 C2876 1.397 . S
C2875 C2880 1.363 . S
C2876 H2853 0.950 . S
C2876 C2875 1.397 . S
C2876 C2877 1.334 . S
C2877 H2854 0.950 . S
C2877 C2876 1.334 . S
C2877 C2878 1.287 . S
C2878 C2877 1.287 . S
C2878 C2879 1.527 . S
C2878 H2897 0.913 1_554 S
C2879 H2855 0.935 1_554 S
C2879 C2878 1.527 . S
C2879 C2880 1.428 . S
C2880 H2856 0.950 . S
C2880 C2875 1.363 . S
C2880 C2879 1.428 . S
C2881 H2857 0.951 . S
C2881 C2882 1.366 . S
C2881 C2883 1.388 . S
C2882 C2881 1.366 . S
C2882 C2886 1.385 . S
C2883 H2858 0.951 . S
C2883 C2881 1.388 . S
C2883 C2884 1.366 . S
C2884 C2883 1.366 . S
C2884 C2885 1.414 . S
C2884 C2887 1.499 . S
C2885 H2859 0.950 . S
C2885 C2884 1.414 . S
C2885 C2886 1.374 . S
C2886 H2860 0.950 . S
C2886 C2882 1.385 . S
C2886 C2885 1.374 . S
C2887 C2884 1.499 . S
C2887 C2888 1.373 . S
C2887 C2889 1.389 . S
C2888 H2861 0.950 . S
C2888 C2874 1.377 . S
C2888 C2887 1.373 . S
C2889 C2873 1.377 . S
C2889 C2887 1.389 . S
C2889 C2890 1.524 . S
C2890 C2889 1.524 . S
C2890 C2891 1.397 . S
C2890 C2895 1.363 . S
C2891 H2862 0.950 . S
C2891 C2890 1.397 . S
C2891 C2892 1.334 . S
C2892 H2863 0.950 . S
C2892 C2891 1.334 . S
C2892 C2893 1.287 . S
C2893 C2892 1.287 . S
C2893 C2894 1.524 . S
C2893 H2896 0.999 . S
C2894 H2864 0.950 . S
C2894 C2893 1.524 . S
C2894 C2895 1.415 . S
C2895 H2865 0.950 . S
C2895 C2890 1.363 . S
C2895 C2894 1.415 . S
H2896 C2893 0.999 . S
H2897 C2878 0.913 1_556 S
H2898 C2916 0.951 . S
H2899 C2918 0.951 . S
H2900 C2920 0.950 . S
H2901 C2921 0.950 . S
H2902 C2923 0.950 . S
H2903 C2926 0.950 . S
H2904 C2927 0.950 . S
H2905 C2929 0.950 . S
H2906 C2930 0.950 . S
H2907 C2931 0.951 . S
H2908 C2933 0.951 . S
H2909 C2935 0.950 . S
H2910 C2936 0.950 . S
H2911 C2938 0.950 . S
H2912 C2941 0.950 . S
H2913 C2942 0.950 . S
H2914 C2944 0.950 . S
H2915 C2945 0.950 . S
C2916 H2898 0.951 . S
C2916 C2917 1.366 . S
C2916 C2918 1.388 . S
C2917 C2916 1.366 . S
C2917 C2921 1.385 . S
C2918 H2899 0.951 . S
C2918 C2916 1.388 . S
C2918 C2919 1.366 . S
C2919 C2918 1.366 . S
C2919 C2920 1.414 . S
C2919 C2922 1.499 . S
C2920 H2900 0.950 . S
C2920 C2919 1.414 . S
C2920 C2921 1.374 . S
C2921 H2901 0.950 . S
C2921 C2917 1.385 . S
C2921 C2920 1.374 . S
C2922 C2919 1.499 . S
C2922 C2923 1.373 . S
C2922 C2924 1.389 . S
C2923 H2902 0.950 . S
C2923 C2922 1.373 . S
C2923 C2939 1.377 . S
C2924 C2922 1.389 . S
C2924 C2925 1.524 . S
C2924 C2938 1.377 . S
C2925 C2924 1.524 . S
C2925 C2926 1.397 . S
C2925 C2930 1.363 . S
C2926 H2903 0.950 . S
C2926 C2925 1.397 . S
C2926 C2927 1.334 . S
C2927 H2904 0.950 . S
C2927 C2926 1.334 . S
C2927 C2928 1.287 . S
C2928 C2927 1.287 . S
C2928 C2929 1.524 . S
C2928 H2947 0.913 . S
C2929 H2905 0.950 . S
C2929 C2928 1.524 . S
C2929 C2930 1.415 . S
C2930 H2906 0.950 . S
C2930 C2925 1.363 . S
C2930 C2929 1.415 . S
C2931 H2907 0.951 . S
C2931 C2932 1.366 . S
C2931 C2933 1.388 . S
C2932 C2931 1.366 . S
C2932 C2936 1.385 . S
C2933 H2908 0.951 . S
C2933 C2931 1.388 . S
C2933 C2934 1.366 . S
C2934 C2933 1.366 . S
C2934 C2935 1.414 . S
C2934 C2937 1.499 . S
C2935 H2909 0.950 . S
C2935 C2934 1.414 . S
C2935 C2936 1.374 . S
C2936 H2910 0.950 . S
C2936 C2932 1.385 . S
C2936 C2935 1.374 . S
C2937 C2934 1.499 . S
C2937 C2938 1.373 . S
C2937 C2939 1.389 . S
C2938 H2911 0.950 . S
C2938 C2924 1.377 . S
C2938 C2937 1.373 . S
C2939 C2923 1.377 . S
C2939 C2937 1.389 . S
C2939 C2940 1.524 . S
C2940 C2939 1.524 . S
C2940 C2941 1.397 . S
C2940 C2945 1.363 . S
C2941 H2912 0.950 . S
C2941 C2940 1.397 . S
C2941 C2942 1.334 . S
C2942 H2913 0.950 . S
C2942 C2941 1.334 . S
C2942 C2943 1.287 . S
C2943 C2942 1.287 . S
C2943 C2944 1.524 . S
C2943 H2946 0.999 . S
C2944 H2914 0.950 . S
C2944 C2943 1.524 . S
C2944 C2945 1.415 . S
C2945 H2915 0.950 . S
C2945 C2940 1.363 . S
C2945 C2944 1.415 . S
H2946 C2943 0.999 . S
H2947 C2928 0.913 . S
H2948 C2966 0.951 . S
H2949 C2968 0.951 . S
H2950 C2970 0.950 . S
H2951 C2971 0.950 . S
H2952 C2973 0.950 . S
H2953 C2976 0.950 . S
H2954 C2977 0.950 . S
H2955 C2979 0.950 . S
H2956 C2980 0.950 . S
H2957 C2981 0.951 . S
H2958 C2983 0.951 . S
H2959 C2985 0.950 . S
H2960 C2986 0.950 . S
H2961 C2988 0.950 . S
H2962 C2991 0.950 . S
H2963 C2992 0.950 . S
H2964 C2994 0.950 . S
H2965 C2995 0.950 . S
C2966 H2948 0.951 . S
C2966 C2967 1.366 . S
C2966 C2968 1.388 . S
C2967 C2966 1.366 . S
C2967 C2971 1.385 . S
C2968 H2949 0.951 . S
C2968 C2966 1.388 . S
C2968 C2969 1.366 . S
C2969 C2968 1.366 . S
C2969 C2970 1.414 . S
C2969 C2972 1.499 . S
C2970 H2950 0.950 . S
C2970 C2969 1.414 . S
C2970 C2971 1.374 . S
C2971 H2951 0.950 . S
C2971 C2967 1.385 . S
C2971 C2970 1.374 . S
C2972 C2969 1.499 . S
C2972 C2973 1.373 . S
C2972 C2974 1.389 . S
C2973 H2952 0.950 . S
C2973 C2972 1.373 . S
C2973 C2989 1.377 . S
C2974 C2972 1.389 . S
C2974 C2975 1.524 . S
C2974 C2988 1.377 . S
C2975 C2974 1.524 . S
C2975 C2976 1.397 . S
C2975 C2980 1.363 . S
C2976 H2953 0.950 . S
C2976 C2975 1.397 . S
C2976 C2977 1.334 . S
C2977 H2954 0.950 . S
C2977 C2976 1.334 . S
C2977 C2978 1.287 . S
C2978 C2977 1.287 . S
C2978 C2979 1.524 . S
C2978 H2997 0.913 . S
C2979 H2955 0.950 . S
C2979 C2978 1.524 . S
C2979 C2980 1.415 . S
C2980 H2956 0.950 . S
C2980 C2975 1.363 . S
C2980 C2979 1.415 . S
C2981 H2957 0.951 . S
C2981 C2982 1.366 . S
C2981 C2983 1.388 . S
C2982 C2981 1.366 . S
C2982 C2986 1.385 . S
C2983 H2958 0.951 . S
C2983 C2981 1.388 . S
C2983 C2984 1.366 . S
C2984 C2983 1.366 . S
C2984 C2985 1.414 . S
C2984 C2987 1.499 . S
C2985 H2959 0.950 . S
C2985 C2984 1.414 . S
C2985 C2986 1.374 . S
C2986 H2960 0.950 . S
C2986 C2982 1.385 . S
C2986 C2985 1.374 . S
C2987 C2984 1.499 . S
C2987 C2988 1.373 . S
C2987 C2989 1.389 . S
C2988 H2961 0.950 . S
C2988 C2974 1.377 . S
C2988 C2987 1.373 . S
C2989 C2973 1.377 . S
C2989 C2987 1.389 . S
C2989 C2990 1.524 . S
C2990 C2989 1.524 . S
C2990 C2991 1.397 . S
C2990 C2995 1.363 . S
C2991 H2962 0.950 . S
C2991 C2990 1.397 . S
C2991 C2992 1.334 . S
C2992 H2963 0.950 . S
C2992 C2991 1.334 . S
C2992 C2993 1.287 . S
C2993 C2992 1.287 . S
C2993 C2994 1.524 . S
C2993 H2996 0.999 . S
C2994 H2964 0.950 . S
C2994 C2993 1.524 . S
C2994 C2995 1.415 . S
C2995 H2965 0.950 . S
C2995 C2990 1.363 . S
C2995 C2994 1.415 . S
H2996 C2993 0.999 . S
H2997 C2978 0.913 . S
H2998 C3016 0.951 . S
H2999 C3018 0.951 . S
H3000 C3020 0.950 . S
H3001 C3021 0.950 . S
H3002 C3023 0.950 . S
H3003 C3026 0.950 . S
H3004 C3027 0.950 . S
H3005 C3029 0.950 . S
H3006 C3030 0.950 . S
H3007 C3031 0.951 . S
H3008 C3033 0.951 . S
H3009 C3035 0.950 . S
H3010 C3036 0.950 . S
H3011 C3038 0.950 . S
H3012 C3041 0.950 . S
H3013 C3042 0.950 . S
H3014 C3044 0.950 . S
H3015 C3045 0.950 . S
C3016 H2998 0.951 . S
C3016 C3017 1.366 . S
C3016 C3018 1.388 . S
C3017 C3016 1.366 . S
C3017 C3021 1.385 . S
C3018 H2999 0.951 . S
C3018 C3016 1.388 . S
C3018 C3019 1.366 . S
C3019 C3018 1.366 . S
C3019 C3020 1.414 . S
C3019 C3022 1.499 . S
C3020 H3000 0.950 . S
C3020 C3019 1.414 . S
C3020 C3021 1.374 . S
C3021 H3001 0.950 . S
C3021 C3017 1.385 . S
C3021 C3020 1.374 . S
C3022 C3019 1.499 . S
C3022 C3023 1.373 . S
C3022 C3024 1.389 . S
C3023 H3002 0.950 . S
C3023 C3022 1.373 . S
C3023 C3039 1.377 . S
C3024 C3022 1.389 . S
C3024 C3025 1.524 . S
C3024 C3038 1.377 . S
C3025 C3024 1.524 . S
C3025 C3026 1.397 . S
C3025 C3030 1.363 . S
C3026 H3003 0.950 . S
C3026 C3025 1.397 . S
C3026 C3027 1.334 . S
C3027 H3004 0.950 . S
C3027 C3026 1.334 . S
C3027 C3028 1.287 . S
C3028 C3027 1.287 . S
C3028 C3029 1.524 . S
C3028 H3047 0.913 . S
C3029 H3005 0.950 . S
C3029 C3028 1.524 . S
C3029 C3030 1.415 . S
C3030 H3006 0.950 . S
C3030 C3025 1.363 . S
C3030 C3029 1.415 . S
C3031 H3007 0.951 . S
C3031 C3032 1.366 . S
C3031 C3033 1.388 . S
C3032 C3031 1.366 . S
C3032 C3036 1.385 . S
C3033 H3008 0.951 . S
C3033 C3031 1.388 . S
C3033 C3034 1.366 . S
C3034 C3033 1.366 . S
C3034 C3035 1.414 . S
C3034 C3037 1.499 . S
C3035 H3009 0.950 . S
C3035 C3034 1.414 . S
C3035 C3036 1.374 . S
C3036 H3010 0.950 . S
C3036 C3032 1.385 . S
C3036 C3035 1.374 . S
C3037 C3034 1.499 . S
C3037 C3038 1.373 . S
C3037 C3039 1.389 . S
C3038 H3011 0.950 . S
C3038 C3024 1.377 . S
C3038 C3037 1.373 . S
C3039 C3023 1.377 . S
C3039 C3037 1.389 . S
C3039 C3040 1.524 . S
C3040 C3039 1.524 . S
C3040 C3041 1.397 . S
C3040 C3045 1.363 . S
C3041 H3012 0.950 . S
C3041 C3040 1.397 . S
C3041 C3042 1.334 . S
C3042 H3013 0.950 . S
C3042 C3041 1.334 . S
C3042 C3043 1.287 . S
C3043 C3042 1.287 . S
C3043 C3044 1.524 . S
C3043 H3046 0.999 . S
C3044 H3014 0.950 . S
C3044 C3043 1.524 . S
C3044 C3045 1.415 . S
C3045 H3015 0.950 . S
C3045 C3040 1.363 . S
C3045 C3044 1.415 . S
H3046 C3043 0.999 . S
H3047 C3028 0.913 . S
H3048 C3066 0.951 . S
H3049 C3068 0.951 . S
H3050 C3070 0.950 . S
H3051 C3071 0.950 . S
H3052 C3073 0.950 . S
H3053 C3076 0.950 . S
H3054 C3077 0.950 . S
H3055 C3079 0.950 . S
H3056 C3080 0.950 . S
H3057 C3081 0.951 . S
H3058 C3083 0.951 . S
H3059 C3085 0.950 . S
H3060 C3086 0.950 . S
H3061 C3088 0.950 . S
H3062 C3091 0.950 . S
H3063 C3092 0.950 . S
H3064 C3094 0.950 . S
H3065 C3095 0.950 . S
C3066 H3048 0.951 . S
C3066 C3067 1.366 . S
C3066 C3068 1.388 . S
C3067 C3066 1.366 . S
C3067 C3071 1.385 . S
C3068 H3049 0.951 . S
C3068 C3066 1.388 . S
C3068 C3069 1.366 . S
C3069 C3068 1.366 . S
C3069 C3070 1.414 . S
C3069 C3072 1.499 . S
C3070 H3050 0.950 . S
C3070 C3069 1.414 . S
C3070 C3071 1.374 . S
C3071 H3051 0.950 . S
C3071 C3067 1.385 . S
C3071 C3070 1.374 . S
C3072 C3069 1.499 . S
C3072 C3073 1.373 . S
C3072 C3074 1.389 . S
C3073 H3052 0.950 . S
C3073 C3072 1.373 . S
C3073 C3089 1.377 . S
C3074 C3072 1.389 . S
C3074 C3075 1.524 . S
C3074 C3088 1.377 . S
C3075 C3074 1.524 . S
C3075 C3076 1.397 . S
C3075 C3080 1.363 . S
C3076 H3053 0.950 . S
C3076 C3075 1.397 . S
C3076 C3077 1.334 . S
C3077 H3054 0.950 . S
C3077 C3076 1.334 . S
C3077 C3078 1.287 . S
C3078 C3077 1.287 . S
C3078 C3079 1.524 . S
C3078 H3097 0.913 . S
C3079 H3055 0.950 . S
C3079 C3078 1.524 . S
C3079 C3080 1.415 . S
C3080 H3056 0.950 . S
C3080 C3075 1.363 . S
C3080 C3079 1.415 . S
C3081 H3057 0.951 . S
C3081 C3082 1.366 . S
C3081 C3083 1.388 . S
C3082 C3081 1.366 . S
C3082 C3086 1.385 . S
C3083 H3058 0.951 . S
C3083 C3081 1.388 . S
C3083 C3084 1.366 . S
C3084 C3083 1.366 . S
C3084 C3085 1.414 . S
C3084 C3087 1.499 . S
C3085 H3059 0.950 . S
C3085 C3084 1.414 . S
C3085 C3086 1.374 . S
C3086 H3060 0.950 . S
C3086 C3082 1.385 . S
C3086 C3085 1.374 . S
C3087 C3084 1.499 . S
C3087 C3088 1.373 . S
C3087 C3089 1.389 . S
C3088 H3061 0.950 . S
C3088 C3074 1.377 . S
C3088 C3087 1.373 . S
C3089 C3073 1.377 . S
C3089 C3087 1.389 . S
C3089 C3090 1.524 . S
C3090 C3089 1.524 . S
C3090 C3091 1.397 . S
C3090 C3095 1.363 . S
C3091 H3062 0.950 . S
C3091 C3090 1.397 . S
C3091 C3092 1.334 . S
C3092 H3063 0.950 . S
C3092 C3091 1.334 . S
C3092 C3093 1.287 . S
C3093 C3092 1.287 . S
C3093 C3094 1.524 . S
C3093 H3096 0.999 . S
C3094 H3064 0.950 . S
C3094 C3093 1.524 . S
C3094 C3095 1.415 . S
C3095 H3065 0.950 . S
C3095 C3090 1.363 . S
C3095 C3094 1.415 . S
H3096 C3093 0.999 . S
H3097 C3078 0.913 . S
H3098 C3116 0.951 . S
H3099 C3118 0.951 . S
H3100 C3120 0.950 . S
H3101 C3121 0.950 . S
H3102 C3123 0.950 . S
H3103 C3126 0.950 . S
H3104 C3127 0.950 . S
H3105 C3129 0.950 . S
H3106 C3130 0.950 . S
H3107 C3131 0.951 . S
H3108 C3133 0.951 . S
H3109 C3135 0.950 . S
H3110 C3136 0.950 . S
H3111 C3138 0.950 . S
H3112 C3141 0.950 . S
H3113 C3142 0.950 . S
H3114 C3144 0.950 . S
H3115 C3145 0.950 . S
C3116 H3098 0.951 . S
C3116 C3117 1.366 . S
C3116 C3118 1.388 . S
C3117 C3116 1.366 . S
C3117 C3121 1.385 . S
C3118 H3099 0.951 . S
C3118 C3116 1.388 . S
C3118 C3119 1.366 . S
C3119 C3118 1.366 . S
C3119 C3120 1.414 . S
C3119 C3122 1.499 . S
C3120 H3100 0.950 . S
C3120 C3119 1.414 . S
C3120 C3121 1.374 . S
C3121 H3101 0.950 . S
C3121 C3117 1.385 . S
C3121 C3120 1.374 . S
C3122 C3119 1.499 . S
C3122 C3123 1.373 . S
C3122 C3124 1.389 . S
C3123 H3102 0.950 . S
C3123 C3122 1.373 . S
C3123 C3139 1.377 . S
C3124 C3122 1.389 . S
C3124 C3125 1.524 . S
C3124 C3138 1.377 . S
C3125 C3124 1.524 . S
C3125 C3126 1.397 . S
C3125 C3130 1.363 . S
C3126 H3103 0.950 . S
C3126 C3125 1.397 . S
C3126 C3127 1.334 . S
C3127 H3104 0.950 . S
C3127 C3126 1.334 . S
C3127 C3128 1.287 . S
C3128 C3127 1.287 . S
C3128 C3129 1.524 . S
C3128 H3147 0.913 . S
C3129 H3105 0.950 . S
C3129 C3128 1.524 . S
C3129 C3130 1.415 . S
C3130 H3106 0.950 . S
C3130 C3125 1.363 . S
C3130 C3129 1.415 . S
C3131 H3107 0.951 . S
C3131 C3132 1.366 . S
C3131 C3133 1.388 . S
C3132 C3131 1.366 . S
C3132 C3136 1.385 . S
C3133 H3108 0.951 . S
C3133 C3131 1.388 . S
C3133 C3134 1.366 . S
C3134 C3133 1.366 . S
C3134 C3135 1.414 . S
C3134 C3137 1.499 . S
C3135 H3109 0.950 . S
C3135 C3134 1.414 . S
C3135 C3136 1.374 . S
C3136 H3110 0.950 . S
C3136 C3132 1.385 . S
C3136 C3135 1.374 . S
C3137 C3134 1.499 . S
C3137 C3138 1.373 . S
C3137 C3139 1.389 . S
C3138 H3111 0.950 . S
C3138 C3124 1.377 . S
C3138 C3137 1.373 . S
C3139 C3123 1.377 . S
C3139 C3137 1.389 . S
C3139 C3140 1.524 . S
C3140 C3139 1.524 . S
C3140 C3141 1.397 . S
C3140 C3145 1.363 . S
C3141 H3112 0.950 . S
C3141 C3140 1.397 . S
C3141 C3142 1.334 . S
C3142 H3113 0.950 . S
C3142 C3141 1.334 . S
C3142 C3143 1.287 . S
C3143 C3142 1.287 . S
C3143 C3144 1.524 . S
C3143 H3146 0.999 . S
C3144 H3114 0.950 . S
C3144 C3143 1.524 . S
C3144 C3145 1.415 . S
C3145 H3115 0.950 . S
C3145 C3140 1.363 . S
C3145 C3144 1.415 . S
H3146 C3143 0.999 . S
H3147 C3128 0.913 . S
H3148 C3166 0.951 . S
H3149 C3168 0.951 . S
H3150 C3170 0.950 . S
H3151 C3171 0.950 . S
H3152 C3173 0.950 . S
H3153 C3176 0.950 . S
H3154 C3177 0.950 . S
H3155 C3179 0.950 . S
H3156 C3180 0.950 . S
H3157 C3181 0.951 . S
H3158 C3183 0.951 . S
H3159 C3185 0.950 . S
H3160 C3186 0.950 . S
H3161 C3188 0.950 . S
H3162 C3191 0.950 . S
H3163 C3192 0.950 . S
H3164 C3194 0.950 . S
H3165 C3195 0.950 . S
C3166 H3148 0.951 . S
C3166 C3167 1.366 . S
C3166 C3168 1.388 . S
C3167 C3166 1.366 . S
C3167 C3171 1.385 . S
C3168 H3149 0.951 . S
C3168 C3166 1.388 . S
C3168 C3169 1.366 . S
C3169 C3168 1.366 . S
C3169 C3170 1.414 . S
C3169 C3172 1.499 . S
C3170 H3150 0.950 . S
C3170 C3169 1.414 . S
C3170 C3171 1.374 . S
C3171 H3151 0.950 . S
C3171 C3167 1.385 . S
C3171 C3170 1.374 . S
C3172 C3169 1.499 . S
C3172 C3173 1.373 . S
C3172 C3174 1.389 . S
C3173 H3152 0.950 . S
C3173 C3172 1.373 . S
C3173 C3189 1.377 . S
C3174 C3172 1.389 . S
C3174 C3175 1.524 . S
C3174 C3188 1.377 . S
C3175 C3174 1.524 . S
C3175 C3176 1.397 . S
C3175 C3180 1.363 . S
C3176 H3153 0.950 . S
C3176 C3175 1.397 . S
C3176 C3177 1.334 . S
C3177 H3154 0.950 . S
C3177 C3176 1.334 . S
C3177 C3178 1.287 . S
C3178 C3177 1.287 . S
C3178 C3179 1.524 . S
C3178 H3197 0.913 . S
C3179 H3155 0.950 . S
C3179 C3178 1.524 . S
C3179 C3180 1.415 . S
C3180 H3156 0.950 . S
C3180 C3175 1.363 . S
C3180 C3179 1.415 . S
C3181 H3157 0.951 . S
C3181 C3182 1.366 . S
C3181 C3183 1.388 . S
C3182 C3181 1.366 . S
C3182 C3186 1.385 . S
C3183 H3158 0.951 . S
C3183 C3181 1.388 . S
C3183 C3184 1.366 . S
C3184 C3183 1.366 . S
C3184 C3185 1.414 . S
C3184 C3187 1.499 . S
C3185 H3159 0.950 . S
C3185 C3184 1.414 . S
C3185 C3186 1.374 . S
C3186 H3160 0.950 . S
C3186 C3182 1.385 . S
C3186 C3185 1.374 . S
C3187 C3184 1.499 . S
C3187 C3188 1.373 . S
C3187 C3189 1.389 . S
C3188 H3161 0.950 . S
C3188 C3174 1.377 . S
C3188 C3187 1.373 . S
C3189 C3173 1.377 . S
C3189 C3187 1.389 . S
C3189 C3190 1.524 . S
C3190 C3189 1.524 . S
C3190 C3191 1.397 . S
C3190 C3195 1.363 . S
C3191 H3162 0.950 . S
C3191 C3190 1.397 . S
C3191 C3192 1.334 . S
C3192 H3163 0.950 . S
C3192 C3191 1.334 . S
C3192 C3193 1.287 . S
C3193 C3192 1.287 . S
C3193 C3194 1.524 . S
C3193 H3196 0.999 . S
C3194 H3164 0.950 . S
C3194 C3193 1.524 . S
C3194 C3195 1.415 . S
C3195 H3165 0.950 . S
C3195 C3190 1.363 . S
C3195 C3194 1.415 . S
H3196 C3193 0.999 . S
H3197 C3178 0.913 . S
H3198 C3216 0.951 . S
H3199 C3218 0.951 . S
H3200 C3220 0.950 . S
H3201 C3221 0.950 . S
H3202 C3223 0.950 . S
H3203 C3226 0.950 . S
H3204 C3227 0.950 . S
H3205 C3229 0.950 . S
H3206 C3230 0.950 . S
H3207 C3231 0.951 . S
H3208 C3233 0.951 . S
H3209 C3235 0.950 . S
H3210 C3236 0.950 . S
H3211 C3238 0.950 . S
H3212 C3241 0.950 . S
H3213 C3242 0.950 . S
H3214 C3244 0.950 1_556 S
H3215 C3245 0.950 . S
C3216 H3198 0.951 . S
C3216 C3217 1.366 . S
C3216 C3218 1.388 . S
C3217 C3216 1.366 . S
C3217 C3221 1.385 . S
C3218 H3199 0.951 . S
C3218 C3216 1.388 . S
C3218 C3219 1.366 . S
C3219 C3218 1.366 . S
C3219 C3220 1.414 . S
C3219 C3222 1.499 . S
C3220 H3200 0.950 . S
C3220 C3219 1.414 . S
C3220 C3221 1.374 . S
C3221 H3201 0.950 . S
C3221 C3217 1.385 . S
C3221 C3220 1.374 . S
C3222 C3219 1.499 . S
C3222 C3223 1.373 . S
C3222 C3224 1.389 . S
C3223 H3202 0.950 . S
C3223 C3222 1.373 . S
C3223 C3239 1.377 . S
C3224 C3222 1.389 . S
C3224 C3225 1.524 . S
C3224 C3238 1.377 . S
C3225 C3224 1.524 . S
C3225 C3226 1.397 . S
C3225 C3230 1.363 . S
C3226 H3203 0.950 . S
C3226 C3225 1.397 . S
C3226 C3227 1.334 . S
C3227 H3204 0.950 . S
C3227 C3226 1.334 . S
C3227 C3228 1.287 . S
C3228 C3227 1.287 . S
C3228 C3229 1.524 . S
C3228 H3247 0.913 . S
C3229 H3205 0.950 . S
C3229 C3228 1.524 . S
C3229 C3230 1.415 . S
C3230 H3206 0.950 . S
C3230 C3225 1.363 . S
C3230 C3229 1.415 . S
C3231 H3207 0.951 . S
C3231 C3232 1.366 . S
C3231 C3233 1.388 . S
C3232 C3231 1.366 . S
C3232 C3236 1.385 . S
C3233 H3208 0.951 . S
C3233 C3231 1.388 . S
C3233 C3234 1.366 . S
C3234 C3233 1.366 . S
C3234 C3235 1.414 . S
C3234 C3237 1.499 . S
C3235 H3209 0.950 . S
C3235 C3234 1.414 . S
C3235 C3236 1.374 . S
C3236 H3210 0.950 . S
C3236 C3232 1.385 . S
C3236 C3235 1.374 . S
C3237 C3234 1.499 . S
C3237 C3238 1.373 . S
C3237 C3239 1.389 . S
C3238 H3211 0.950 . S
C3238 C3224 1.377 . S
C3238 C3237 1.373 . S
C3239 C3223 1.377 . S
C3239 C3237 1.389 . S
C3239 C3240 1.524 . S
C3240 C3239 1.524 . S
C3240 C3241 1.397 . S
C3240 C3245 1.363 . S
C3241 H3212 0.950 . S
C3241 C3240 1.397 . S
C3241 C3242 1.334 . S
C3242 H3213 0.950 . S
C3242 C3241 1.334 . S
C3242 C3243 1.287 . S
C3243 C3242 1.287 . S
C3243 C3244 1.524 . S
C3243 H3246 0.999 . S
C3244 H3214 0.950 1_554 S
C3244 C3243 1.524 . S
C3244 C3245 1.415 . S
C3245 H3215 0.950 . S
C3245 C3240 1.363 . S
C3245 C3244 1.415 . S
H3246 C3243 0.999 . S
H3247 C3228 0.913 . S
H3248 C3266 0.951 . S
H3249 C3268 0.951 . S
H3250 C3270 0.950 . S
H3251 C3271 0.950 . S
H3252 C3273 0.950 . S
H3253 C3276 0.950 . S
H3254 C3277 0.950 . S
H3255 C3279 0.950 . S
H3256 C3280 0.950 . S
H3257 C3281 0.951 . S
H3258 C3283 0.951 . S
H3259 C3285 0.950 . S
H3260 C3286 0.950 . S
H3261 C3288 0.950 . S
H3262 C3291 0.950 . S
H3263 C3292 0.950 . S
H3264 C3294 0.950 . S
H3265 C3295 0.950 . S
C3266 H3248 0.951 . S
C3266 C3267 1.366 . S
C3266 C3268 1.388 . S
C3267 C3266 1.366 . S
C3267 C3271 1.385 . S
C3268 H3249 0.951 . S
C3268 C3266 1.388 . S
C3268 C3269 1.366 . S
C3269 C3268 1.366 . S
C3269 C3270 1.414 . S
C3269 C3272 1.499 . S
C3270 H3250 0.950 . S
C3270 C3269 1.414 . S
C3270 C3271 1.374 . S
C3271 H3251 0.950 . S
C3271 C3267 1.385 . S
C3271 C3270 1.374 . S
C3272 C3269 1.499 . S
C3272 C3273 1.373 . S
C3272 C3274 1.389 . S
C3273 H3252 0.950 . S
C3273 C3272 1.373 . S
C3273 C3289 1.377 . S
C3274 C3272 1.389 . S
C3274 C3275 1.524 . S
C3274 C3288 1.377 . S
C3275 C3274 1.524 . S
C3275 C3276 1.397 . S
C3275 C3280 1.363 . S
C3276 H3253 0.950 . S
C3276 C3275 1.397 . S
C3276 C3277 1.334 . S
C3277 H3254 0.950 . S
C3277 C3276 1.334 . S
C3277 C3278 1.287 . S
C3278 C3277 1.287 . S
C3278 C3279 1.524 . S
C3278 H3297 0.913 . S
C3279 H3255 0.950 . S
C3279 C3278 1.524 . S
C3279 C3280 1.415 . S
C3280 H3256 0.950 . S
C3280 C3275 1.363 . S
C3280 C3279 1.415 . S
C3281 H3257 0.951 . S
C3281 C3282 1.366 . S
C3281 C3283 1.388 . S
C3282 C3281 1.366 . S
C3282 C3286 1.385 . S
C3283 H3258 0.951 . S
C3283 C3281 1.388 . S
C3283 C3284 1.366 . S
C3284 C3283 1.366 . S
C3284 C3285 1.414 . S
C3284 C3287 1.499 . S
C3285 H3259 0.950 . S
C3285 C3284 1.414 . S
C3285 C3286 1.374 . S
C3286 H3260 0.950 . S
C3286 C3282 1.385 . S
C3286 C3285 1.374 . S
C3287 C3284 1.499 . S
C3287 C3288 1.373 . S
C3287 C3289 1.389 . S
C3288 H3261 0.950 . S
C3288 C3274 1.377 . S
C3288 C3287 1.373 . S
C3289 C3273 1.377 . S
C3289 C3287 1.389 . S
C3289 C3290 1.524 . S
C3290 C3289 1.524 . S
C3290 C3291 1.397 . S
C3290 C3295 1.363 . S
C3291 H3262 0.950 . S
C3291 C3290 1.397 . S
C3291 C3292 1.334 . S
C3292 H3263 0.950 . S
C3292 C3291 1.334 . S
C3292 C3293 1.287 . S
C3293 C3292 1.287 . S
C3293 C3294 1.524 . S
C3293 H3296 0.999 . S
C3294 H3264 0.950 . S
C3294 C3293 1.524 . S
C3294 C3295 1.415 . S
C3295 H3265 0.950 . S
C3295 C3290 1.363 . S
C3295 C3294 1.415 . S
H3296 C3293 0.999 . S
H3297 C3278 0.913 . S
H3298 C3316 0.951 . S
H3299 C3318 0.951 . S
H3300 C3320 0.950 . S
H3301 C3321 0.950 . S
H3302 C3323 0.950 . S
H3303 C3326 0.950 . S
H3304 C3327 0.950 . S
H3305 C3329 0.950 . S
H3306 C3330 0.950 . S
H3307 C3331 0.951 . S
H3308 C3333 0.951 . S
H3309 C3335 0.950 . S
H3310 C3336 0.950 . S
H3311 C3338 0.950 . S
H3312 C3341 0.950 . S
H3313 C3342 0.950 . S
H3314 C3344 0.950 . S
H3315 C3345 0.950 . S
C3316 H3298 0.951 . S
C3316 C3317 1.366 . S
C3316 C3318 1.388 . S
C3317 C3316 1.366 . S
C3317 C3321 1.385 . S
C3318 H3299 0.951 . S
C3318 C3316 1.388 . S
C3318 C3319 1.366 . S
C3319 C3318 1.366 . S
C3319 C3320 1.414 . S
C3319 C3322 1.499 . S
C3320 H3300 0.950 . S
C3320 C3319 1.414 . S
C3320 C3321 1.374 . S
C3321 H3301 0.950 . S
C3321 C3317 1.385 . S
C3321 C3320 1.374 . S
C3322 C3319 1.499 . S
C3322 C3323 1.373 . S
C3322 C3324 1.389 . S
C3323 H3302 0.950 . S
C3323 C3322 1.373 . S
C3323 C3339 1.377 . S
C3324 C3322 1.389 . S
C3324 C3325 1.524 . S
C3324 C3338 1.377 . S
C3325 C3324 1.524 . S
C3325 C3326 1.397 . S
C3325 C3330 1.363 . S
C3326 H3303 0.950 . S
C3326 C3325 1.397 . S
C3326 C3327 1.334 . S
C3327 H3304 0.950 . S
C3327 C3326 1.334 . S
C3327 C3328 1.287 . S
C3328 C3327 1.287 . S
C3328 C3329 1.524 . S
C3328 H3347 0.913 . S
C3329 H3305 0.950 . S
C3329 C3328 1.524 . S
C3329 C3330 1.415 . S
C3330 H3306 0.950 . S
C3330 C3325 1.363 . S
C3330 C3329 1.415 . S
C3331 H3307 0.951 . S
C3331 C3332 1.366 . S
C3331 C3333 1.388 . S
C3332 C3331 1.366 . S
C3332 C3336 1.385 . S
C3333 H3308 0.951 . S
C3333 C3331 1.388 . S
C3333 C3334 1.366 . S
C3334 C3333 1.366 . S
C3334 C3335 1.414 . S
C3334 C3337 1.499 . S
C3335 H3309 0.950 . S
C3335 C3334 1.414 . S
C3335 C3336 1.374 . S
C3336 H3310 0.950 . S
C3336 C3332 1.385 . S
C3336 C3335 1.374 . S
C3337 C3334 1.499 . S
C3337 C3338 1.373 . S
C3337 C3339 1.389 . S
C3338 H3311 0.950 . S
C3338 C3324 1.377 . S
C3338 C3337 1.373 . S
C3339 C3323 1.377 . S
C3339 C3337 1.389 . S
C3339 C3340 1.524 . S
C3340 C3339 1.524 . S
C3340 C3341 1.397 . S
C3340 C3345 1.363 . S
C3341 H3312 0.950 . S
C3341 C3340 1.397 . S
C3341 C3342 1.334 . S
C3342 H3313 0.950 . S
C3342 C3341 1.334 . S
C3342 C3343 1.287 . S
C3343 C3342 1.287 . S
C3343 C3344 1.524 . S
C3343 H3346 0.999 1_556 S
C3344 H3314 0.950 . S
C3344 C3343 1.524 . S
C3344 C3345 1.415 . S
C3345 H3315 0.950 . S
C3345 C3340 1.363 . S
C3345 C3344 1.415 . S
H3346 C3343 0.999 1_554 S
H3347 C3328 0.913 . S
H3348 C3366 0.951 . S
H3349 C3368 0.951 . S
H3350 C3370 0.950 . S
H3351 C3371 0.950 . S
H3352 C3373 0.950 . S
H3353 C3376 0.950 . S
H3354 C3377 0.950 . S
H3355 C3379 0.950 . S
H3356 C3380 0.950 . S
H3357 C3381 0.951 . S
H3358 C3383 0.951 . S
H3359 C3385 0.950 . S
H3360 C3386 0.950 . S
H3361 C3388 0.950 . S
H3362 C3391 0.950 . S
H3363 C3392 0.950 . S
H3364 C3394 0.950 . S
H3365 C3395 0.950 . S
C3366 H3348 0.951 . S
C3366 C3367 1.366 . S
C3366 C3368 1.388 . S
C3367 C3366 1.366 . S
C3367 C3371 1.385 . S
C3368 H3349 0.951 . S
C3368 C3366 1.388 . S
C3368 C3369 1.366 . S
C3369 C3368 1.366 . S
C3369 C3370 1.414 . S
C3369 C3372 1.499 . S
C3370 H3350 0.950 . S
C3370 C3369 1.414 . S
C3370 C3371 1.374 . S
C3371 H3351 0.950 . S
C3371 C3367 1.385 . S
C3371 C3370 1.374 . S
C3372 C3369 1.499 . S
C3372 C3373 1.373 . S
C3372 C3374 1.389 . S
C3373 H3352 0.950 . S
C3373 C3372 1.373 . S
C3373 C3389 1.377 . S
C3374 C3372 1.389 . S
C3374 C3375 1.524 . S
C3374 C3388 1.377 . S
C3375 C3374 1.524 . S
C3375 C3376 1.397 . S
C3375 C3380 1.363 . S
C3376 H3353 0.950 . S
C3376 C3375 1.397 . S
C3376 C3377 1.334 . S
C3377 H3354 0.950 . S
C3377 C3376 1.334 . S
C3377 C3378 1.287 . S
C3378 C3377 1.287 . S
C3378 C3379 1.524 . S
C3378 H3397 0.913 . S
C3379 H3355 0.950 . S
C3379 C3378 1.524 . S
C3379 C3380 1.415 . S
C3380 H3356 0.950 . S
C3380 C3375 1.363 . S
C3380 C3379 1.415 . S
C3381 H3357 0.951 . S
C3381 C3382 1.366 . S
C3381 C3383 1.388 . S
C3382 C3381 1.366 . S
C3382 C3386 1.385 . S
C3383 H3358 0.951 . S
C3383 C3381 1.388 . S
C3383 C3384 1.366 . S
C3384 C3383 1.366 . S
C3384 C3385 1.414 . S
C3384 C3387 1.499 . S
C3385 H3359 0.950 . S
C3385 C3384 1.414 . S
C3385 C3386 1.374 . S
C3386 H3360 0.950 . S
C3386 C3382 1.385 . S
C3386 C3385 1.374 . S
C3387 C3384 1.499 . S
C3387 C3388 1.373 . S
C3387 C3389 1.389 . S
C3388 H3361 0.950 . S
C3388 C3374 1.377 . S
C3388 C3387 1.373 . S
C3389 C3373 1.377 . S
C3389 C3387 1.389 . S
C3389 C3390 1.524 . S
C3390 C3389 1.524 . S
C3390 C3391 1.397 . S
C3390 C3395 1.363 . S
C3391 H3362 0.950 . S
C3391 C3390 1.397 . S
C3391 C3392 1.334 . S
C3392 H3363 0.950 . S
C3392 C3391 1.334 . S
C3392 C3393 1.287 . S
C3393 C3392 1.287 . S
C3393 C3394 1.524 . S
C3393 H3396 0.999 . S
C3394 H3364 0.950 . S
C3394 C3393 1.524 . S
C3394 C3395 1.415 . S
C3395 H3365 0.950 . S
C3395 C3390 1.363 . S
C3395 C3394 1.415 . S
H3396 C3393 0.999 . S
H3397 C3378 0.913 . S
H3398 C3416 0.951 . S
H3399 C3418 0.951 . S
H3400 C3420 0.950 . S
H3401 C3421 0.950 . S
H3402 C3423 0.950 . S
H3403 C3426 0.950 . S
H3404 C3427 0.950 . S
H3405 C3429 0.950 . S
H3406 C3430 0.950 . S
H3407 C3431 0.951 . S
H3408 C3433 0.951 . S
H3409 C3435 0.950 . S
H3410 C3436 0.950 . S
H3411 C3438 0.950 . S
H3412 C3441 0.950 . S
H3413 C3442 0.950 . S
H3414 C3444 0.950 . S
H3415 C3445 0.950 . S
C3416 H3398 0.951 . S
C3416 C3417 1.366 . S
C3416 C3418 1.388 . S
C3417 C3416 1.366 . S
C3417 C3421 1.385 . S
C3418 H3399 0.951 . S
C3418 C3416 1.388 . S
C3418 C3419 1.366 . S
C3419 C3418 1.366 . S
C3419 C3420 1.414 . S
C3419 C3422 1.499 . S
C3420 H3400 0.950 . S
C3420 C3419 1.414 . S
C3420 C3421 1.374 . S
C3421 H3401 0.950 . S
C3421 C3417 1.385 . S
C3421 C3420 1.374 . S
C3422 C3419 1.499 . S
C3422 C3423 1.373 . S
C3422 C3424 1.389 . S
C3423 H3402 0.950 . S
C3423 C3422 1.373 . S
C3423 C3439 1.377 . S
C3424 C3422 1.389 . S
C3424 C3425 1.524 . S
C3424 C3438 1.377 . S
C3425 C3424 1.524 . S
C3425 C3426 1.397 . S
C3425 C3430 1.363 . S
C3426 H3403 0.950 . S
C3426 C3425 1.397 . S
C3426 C3427 1.334 . S
C3427 H3404 0.950 . S
C3427 C3426 1.334 . S
C3427 C3428 1.287 . S
C3428 C3427 1.287 . S
C3428 C3429 1.524 . S
C3428 H3447 0.913 . S
C3429 H3405 0.950 . S
C3429 C3428 1.524 . S
C3429 C3430 1.415 . S
C3430 H3406 0.950 . S
C3430 C3425 1.363 . S
C3430 C3429 1.415 . S
C3431 H3407 0.951 . S
C3431 C3432 1.366 . S
C3431 C3433 1.388 . S
C3432 C3431 1.366 . S
C3432 C3436 1.385 . S
C3433 H3408 0.951 . S
C3433 C3431 1.388 . S
C3433 C3434 1.366 . S
C3434 C3433 1.366 . S
C3434 C3435 1.414 . S
C3434 C3437 1.499 . S
C3435 H3409 0.950 . S
C3435 C3434 1.414 . S
C3435 C3436 1.374 . S
C3436 H3410 0.950 . S
C3436 C3432 1.385 . S
C3436 C3435 1.374 . S
C3437 C3434 1.499 . S
C3437 C3438 1.373 . S
C3437 C3439 1.389 . S
C3438 H3411 0.950 . S
C3438 C3424 1.377 . S
C3438 C3437 1.373 . S
C3439 C3423 1.377 . S
C3439 C3437 1.389 . S
C3439 C3440 1.524 . S
C3440 C3439 1.524 . S
C3440 C3441 1.397 . S
C3440 C3445 1.363 . S
C3441 H3412 0.950 . S
C3441 C3440 1.397 . S
C3441 C3442 1.334 . S
C3442 H3413 0.950 . S
C3442 C3441 1.334 . S
C3442 C3443 1.287 . S
C3443 C3442 1.287 . S
C3443 C3444 1.524 . S
C3443 H3446 0.999 . S
C3444 H3414 0.950 . S
C3444 C3443 1.524 . S
C3444 C3445 1.415 . S
C3445 H3415 0.950 . S
C3445 C3440 1.363 . S
C3445 C3444 1.415 . S
H3446 C3443 0.999 . S
H3447 C3428 0.913 . S
H3448 C3466 0.951 . S
H3449 C3468 0.951 . S
H3450 C3470 0.950 . S
H3451 C3471 0.950 . S
H3452 C3473 0.950 . S
H3453 C3476 0.950 . S
H3454 C3477 0.950 . S
H3455 C3479 0.950 . S
H3456 C3480 0.950 . S
H3457 C3481 0.951 . S
H3458 C3483 0.951 . S
H3459 C3485 0.950 . S
H3460 C3486 0.950 . S
H3461 C3488 0.950 . S
H3462 C3491 0.950 . S
H3463 C3492 0.950 . S
H3464 C3494 0.950 . S
H3465 C3495 0.950 . S
C3466 H3448 0.951 . S
C3466 C3467 1.366 . S
C3466 C3468 1.388 . S
C3467 C3466 1.366 . S
C3467 C3471 1.385 . S
C3468 H3449 0.951 . S
C3468 C3466 1.388 . S
C3468 C3469 1.366 . S
C3469 C3468 1.366 . S
C3469 C3470 1.414 . S
C3469 C3472 1.499 . S
C3470 H3450 0.950 . S
C3470 C3469 1.414 . S
C3470 C3471 1.374 . S
C3471 H3451 0.950 . S
C3471 C3467 1.385 . S
C3471 C3470 1.374 . S
C3472 C3469 1.499 . S
C3472 C3473 1.373 . S
C3472 C3474 1.389 . S
C3473 H3452 0.950 . S
C3473 C3472 1.373 . S
C3473 C3489 1.377 . S
C3474 C3472 1.389 . S
C3474 C3475 1.524 . S
C3474 C3488 1.377 . S
C3475 C3474 1.524 . S
C3475 C3476 1.397 . S
C3475 C3480 1.363 . S
C3476 H3453 0.950 . S
C3476 C3475 1.397 . S
C3476 C3477 1.334 . S
C3477 H3454 0.950 . S
C3477 C3476 1.334 . S
C3477 C3478 1.287 . S
C3478 C3477 1.287 . S
C3478 C3479 1.524 . S
C3478 H3497 0.913 . S
C3479 H3455 0.950 . S
C3479 C3478 1.524 . S
C3479 C3480 1.415 . S
C3480 H3456 0.950 . S
C3480 C3475 1.363 . S
C3480 C3479 1.415 . S
C3481 H3457 0.951 . S
C3481 C3482 1.366 . S
C3481 C3483 1.388 . S
C3482 C3481 1.366 . S
C3482 C3486 1.385 . S
C3483 H3458 0.951 . S
C3483 C3481 1.388 . S
C3483 C3484 1.366 . S
C3484 C3483 1.366 . S
C3484 C3485 1.414 . S
C3484 C3487 1.499 . S
C3485 H3459 0.950 . S
C3485 C3484 1.414 . S
C3485 C3486 1.374 . S
C3486 H3460 0.950 . S
C3486 C3482 1.385 . S
C3486 C3485 1.374 . S
C3487 C3484 1.499 . S
C3487 C3488 1.373 . S
C3487 C3489 1.389 . S
C3488 H3461 0.950 . S
C3488 C3474 1.377 . S
C3488 C3487 1.373 . S
C3489 C3473 1.377 . S
C3489 C3487 1.389 . S
C3489 C3490 1.524 . S
C3490 C3489 1.524 . S
C3490 C3491 1.397 . S
C3490 C3495 1.363 . S
C3491 H3462 0.950 . S
C3491 C3490 1.397 . S
C3491 C3492 1.334 . S
C3492 H3463 0.950 . S
C3492 C3491 1.334 . S
C3492 C3493 1.287 . S
C3493 C3492 1.287 . S
C3493 C3494 1.524 . S
C3493 H3496 0.999 . S
C3494 H3464 0.950 . S
C3494 C3493 1.524 . S
C3494 C3495 1.415 . S
C3495 H3465 0.950 . S
C3495 C3490 1.363 . S
C3495 C3494 1.415 . S
H3496 C3493 0.999 . S
H3497 C3478 0.913 . S
H3498 C3516 0.951 . S
H3499 C3518 0.951 . S
H3500 C3520 0.950 . S
H3501 C3521 0.950 . S
H3502 C3523 0.950 . S
H3503 C3526 0.950 . S
H3504 C3527 0.950 . S
H3505 C3529 0.950 . S
H3506 C3530 0.950 . S
H3507 C3531 0.951 . S
H3508 C3533 0.951 . S
H3509 C3535 0.950 . S
H3510 C3536 0.950 . S
H3511 C3538 0.950 . S
H3512 C3541 0.950 . S
H3513 C3542 0.950 . S
H3514 C3544 0.950 . S
H3515 C3545 0.950 . S
C3516 H3498 0.951 . S
C3516 C3517 1.366 . S
C3516 C3518 1.388 . S
C3517 C3516 1.366 . S
C3517 C3521 1.385 . S
C3518 H3499 0.951 . S
C3518 C3516 1.388 . S
C3518 C3519 1.366 . S
C3519 C3518 1.366 . S
C3519 C3520 1.414 . S
C3519 C3522 1.499 . S
C3520 H3500 0.950 . S
C3520 C3519 1.414 . S
C3520 C3521 1.374 . S
C3521 H3501 0.950 . S
C3521 C3517 1.385 . S
C3521 C3520 1.374 . S
C3522 C3519 1.499 . S
C3522 C3523 1.373 . S
C3522 C3524 1.389 . S
C3523 H3502 0.950 . S
C3523 C3522 1.373 . S
C3523 C3539 1.377 . S
C3524 C3522 1.389 . S
C3524 C3525 1.524 . S
C3524 C3538 1.377 . S
C3525 C3524 1.524 . S
C3525 C3526 1.397 . S
C3525 C3530 1.363 . S
C3526 H3503 0.950 . S
C3526 C3525 1.397 . S
C3526 C3527 1.334 . S
C3527 H3504 0.950 . S
C3527 C3526 1.334 . S
C3527 C3528 1.287 . S
C3528 C3527 1.287 . S
C3528 C3529 1.524 . S
C3528 H3547 0.913 . S
C3529 H3505 0.950 . S
C3529 C3528 1.524 . S
C3529 C3530 1.415 . S
C3530 H3506 0.950 . S
C3530 C3525 1.363 . S
C3530 C3529 1.415 . S
C3531 H3507 0.951 . S
C3531 C3532 1.366 . S
C3531 C3533 1.388 . S
C3532 C3531 1.366 . S
C3532 C3536 1.385 . S
C3533 H3508 0.951 . S
C3533 C3531 1.388 . S
C3533 C3534 1.366 . S
C3534 C3533 1.366 . S
C3534 C3535 1.414 . S
C3534 C3537 1.499 . S
C3535 H3509 0.950 . S
C3535 C3534 1.414 . S
C3535 C3536 1.374 . S
C3536 H3510 0.950 . S
C3536 C3532 1.385 . S
C3536 C3535 1.374 . S
C3537 C3534 1.499 . S
C3537 C3538 1.373 . S
C3537 C3539 1.389 . S
C3538 H3511 0.950 . S
C3538 C3524 1.377 . S
C3538 C3537 1.373 . S
C3539 C3523 1.377 . S
C3539 C3537 1.389 . S
C3539 C3540 1.524 . S
C3540 C3539 1.524 . S
C3540 C3541 1.397 . S
C3540 C3545 1.363 . S
C3541 H3512 0.950 . S
C3541 C3540 1.397 . S
C3541 C3542 1.334 . S
C3542 H3513 0.950 . S
C3542 C3541 1.334 . S
C3542 C3543 1.287 . S
C3543 C3542 1.287 . S
C3543 C3544 1.524 . S
C3543 H3546 0.999 . S
C3544 H3514 0.950 . S
C3544 C3543 1.524 . S
C3544 C3545 1.415 . S
C3545 H3515 0.950 . S
C3545 C3540 1.363 . S
C3545 C3544 1.415 . S
H3546 C3543 0.999 . S
H3547 C3528 0.913 . S
H3548 C3566 0.951 . S
H3549 C3568 0.951 . S
H3550 C3570 0.950 . S
H3551 C3571 0.950 . S
H3552 C3573 0.950 . S
H3553 C3576 0.950 . S
H3554 C3577 0.950 . S
H3555 C3579 0.950 . S
H3556 C3580 0.950 . S
H3557 C3581 0.951 . S
H3558 C3583 0.951 . S
H3559 C3585 0.950 . S
H3560 C3586 0.950 . S
H3561 C3588 0.950 . S
H3562 C3591 0.950 . S
H3563 C3592 0.950 . S
H3564 C3594 0.950 1_554 S
H3565 C3595 0.950 . S
C3566 H3548 0.951 . S
C3566 C3567 1.366 . S
C3566 C3568 1.388 . S
C3567 C3566 1.366 . S
C3567 C3571 1.385 . S
C3568 H3549 0.951 . S
C3568 C3566 1.388 . S
C3568 C3569 1.366 . S
C3569 C3568 1.366 . S
C3569 C3570 1.414 . S
C3569 C3572 1.499 . S
C3570 H3550 0.950 . S
C3570 C3569 1.414 . S
C3570 C3571 1.374 . S
C3571 H3551 0.950 . S
C3571 C3567 1.385 . S
C3571 C3570 1.374 . S
C3572 C3569 1.499 . S
C3572 C3573 1.373 . S
C3572 C3574 1.389 . S
C3573 H3552 0.950 . S
C3573 C3572 1.373 . S
C3573 C3589 1.377 . S
C3574 C3572 1.389 . S
C3574 C3575 1.524 . S
C3574 C3588 1.377 . S
C3575 C3574 1.524 . S
C3575 C3576 1.397 . S
C3575 C3580 1.363 . S
C3576 H3553 0.950 . S
C3576 C3575 1.397 . S
C3576 C3577 1.334 . S
C3577 H3554 0.950 . S
C3577 C3576 1.334 . S
C3577 C3578 1.287 . S
C3578 C3577 1.287 . S
C3578 C3579 1.524 . S
C3578 H3597 0.913 . S
C3579 H3555 0.950 . S
C3579 C3578 1.524 . S
C3579 C3580 1.415 . S
C3580 H3556 0.950 . S
C3580 C3575 1.363 . S
C3580 C3579 1.415 . S
C3581 H3557 0.951 . S
C3581 C3582 1.366 . S
C3581 C3583 1.388 . S
C3582 C3581 1.366 . S
C3582 C3586 1.385 . S
C3583 H3558 0.951 . S
C3583 C3581 1.388 . S
C3583 C3584 1.366 . S
C3584 C3583 1.366 . S
C3584 C3585 1.414 . S
C3584 C3587 1.499 . S
C3585 H3559 0.950 . S
C3585 C3584 1.414 . S
C3585 C3586 1.374 . S
C3586 H3560 0.950 . S
C3586 C3582 1.385 . S
C3586 C3585 1.374 . S
C3587 C3584 1.499 . S
C3587 C3588 1.373 . S
C3587 C3589 1.389 . S
C3588 H3561 0.950 . S
C3588 C3574 1.377 . S
C3588 C3587 1.373 . S
C3589 C3573 1.377 . S
C3589 C3587 1.389 . S
C3589 C3590 1.524 . S
C3590 C3589 1.524 . S
C3590 C3591 1.397 . S
C3590 C3595 1.363 . S
C3591 H3562 0.950 . S
C3591 C3590 1.397 . S
C3591 C3592 1.334 . S
C3592 H3563 0.950 . S
C3592 C3591 1.334 . S
C3592 C3593 1.287 . S
C3593 C3592 1.287 . S
C3593 C3594 1.524 . S
C3593 H3596 0.999 . S
C3594 H3564 0.950 1_556 S
C3594 C3593 1.524 . S
C3594 C3595 1.415 . S
C3595 H3565 0.950 . S
C3595 C3590 1.363 . S
C3595 C3594 1.415 . S
H3596 C3593 0.999 . S
H3597 C3578 0.913 . S
H3598 C3616 0.951 . S
H3599 C3618 0.951 . S
H3600 C3620 0.950 . S
H3601 C3621 0.950 . S
H3602 C3623 0.950 . S
H3603 C3626 0.950 . S
H3604 C3627 0.950 . S
H3605 C3629 0.950 . S
H3606 C3630 0.950 . S
H3607 C3631 0.951 . S
H3608 C3633 0.951 . S
H3609 C3635 0.950 . S
H3610 C3636 0.950 . S
H3611 C3638 0.950 . S
H3612 C3641 0.950 . S
H3613 C3642 0.950 . S
H3614 C3644 0.950 . S
H3615 C3645 0.950 . S
C3616 H3598 0.951 . S
C3616 C3617 1.366 . S
C3616 C3618 1.388 . S
C3617 C3616 1.366 . S
C3617 C3621 1.385 . S
C3618 H3599 0.951 . S
C3618 C3616 1.388 . S
C3618 C3619 1.366 . S
C3619 C3618 1.366 . S
C3619 C3620 1.414 . S
C3619 C3622 1.499 . S
C3620 H3600 0.950 . S
C3620 C3619 1.414 . S
C3620 C3621 1.374 . S
C3621 H3601 0.950 . S
C3621 C3617 1.385 . S
C3621 C3620 1.374 . S
C3622 C3619 1.499 . S
C3622 C3623 1.373 . S
C3622 C3624 1.389 . S
C3623 H3602 0.950 . S
C3623 C3622 1.373 . S
C3623 C3639 1.377 . S
C3624 C3622 1.389 . S
C3624 C3625 1.524 . S
C3624 C3638 1.377 . S
C3625 C3624 1.524 . S
C3625 C3626 1.397 . S
C3625 C3630 1.363 . S
C3626 H3603 0.950 . S
C3626 C3625 1.397 . S
C3626 C3627 1.334 . S
C3627 H3604 0.950 . S
C3627 C3626 1.334 . S
C3627 C3628 1.287 . S
C3628 C3627 1.287 . S
C3628 C3629 1.524 . S
C3628 H3647 0.913 . S
C3629 H3605 0.950 . S
C3629 C3628 1.524 . S
C3629 C3630 1.415 . S
C3630 H3606 0.950 . S
C3630 C3625 1.363 . S
C3630 C3629 1.415 . S
C3631 H3607 0.951 . S
C3631 C3632 1.366 . S
C3631 C3633 1.388 . S
C3632 C3631 1.366 . S
C3632 C3636 1.385 . S
C3633 H3608 0.951 . S
C3633 C3631 1.388 . S
C3633 C3634 1.366 . S
C3634 C3633 1.366 . S
C3634 C3635 1.414 . S
C3634 C3637 1.499 . S
C3635 H3609 0.950 . S
C3635 C3634 1.414 . S
C3635 C3636 1.374 . S
C3636 H3610 0.950 . S
C3636 C3632 1.385 . S
C3636 C3635 1.374 . S
C3637 C3634 1.499 . S
C3637 C3638 1.373 . S
C3637 C3639 1.389 . S
C3638 H3611 0.950 . S
C3638 C3624 1.377 . S
C3638 C3637 1.373 . S
C3639 C3623 1.377 . S
C3639 C3637 1.389 . S
C3639 C3640 1.524 . S
C3640 C3639 1.524 . S
C3640 C3641 1.397 . S
C3640 C3645 1.363 . S
C3641 H3612 0.950 . S
C3641 C3640 1.397 . S
C3641 C3642 1.334 . S
C3642 H3613 0.950 . S
C3642 C3641 1.334 . S
C3642 C3643 1.287 . S
C3643 C3642 1.287 . S
C3643 C3644 1.524 . S
C3643 H3646 0.999 . S
C3644 H3614 0.950 . S
C3644 C3643 1.524 . S
C3644 C3645 1.415 . S
C3645 H3615 0.950 . S
C3645 C3640 1.363 . S
C3645 C3644 1.415 . S
H3646 C3643 0.999 . S
H3647 C3628 0.913 . S
C467 C181 1.395 . S
C482 C0 1.396 . S
C517 C406 1.394 . S
C532 C27 1.395 . S
C567 C196 1.394 . S
C582 C29 1.395 . S
C617 C435 1.394 . S
C632 C55 1.395 . S
C667 C113 1.394 . S
C682 C68 1.396 . S
C717 C70 1.396 . S
C732 C362 1.394 . S
C767 C84 1.396 . S
C782 C140 1.394 . S
C817 C391 1.395 . S
C832 C99 1.395 . S
C867 C69 1.394 . S
C882 C112 1.395 . S
C917 C294 1.394 . S
C932 C126 1.395 . S
C967 C85 1.394 . S
C982 C141 1.396 . S
C1017 C322 1.394 . S
C1032 C166 1.395 . S
C1067 C180 1.395 . S
C1082 C1 1.394 . S
C1117 C183 1.396 . S
C1132 C251 1.394 . S
C1167 C28 1.394 . S
C1182 C197 1.396 . S
C1217 C211 1.396 . S
C1232 C266 1.395 . S
C1267 C392 1.394 . S
C1282 C224 1.396 . S
C1317 C182 1.394 . S
C1332 C250 1.396 . S
C1367 C433 1.395 . S
C1382 C252 1.396 . S
C1417 C267 1.395 . S
C1432 C210 1.394 . S
C1467 C280 1.396 . S
C1482 C337 1.395 . S
C1517 C295 1.395 . S
C1532 C127 1.395 . S
C1567 C377 1.395 . S
C1582 C320 1.396 . S
C1617 C167 1.395 . S
C1632 C323 1.395 . S
C1667 C281 1.394 . S
C1682 C336 1.395 . S
C1717 C363 1.396 . S
C1732 C71 1.394 . S
C1767 C376 1.395 . S
C1782 C321 1.394 . S
C1817 C390 1.395 . S
C1832 C98 1.395 . S
C1867 C225 1.394 . S
C1882 C393 1.396 . S
C1917 C26 1.394 . S
C1932 C407 1.396 . S
C1967 C253 1.394 . S
C1982 C432 1.395 . S
C2017 C434 1.395 . S
C2032 C54 1.394 . S
C2067 C13 2.000 . S
C2082 C125 2.004 . S
C2117 C14 1.994 . S
C2132 C350 1.991 . S
C2167 C152 1.991 . S
C2182 C40 1.994 . S
C2217 C42 1.994 . S
C2232 C379 1.994 . S
C2267 C57 2.000 . S
C2282 C169 2.004 . S
C2317 C418 1.991 . S
C2332 C83 1.991 . S
C2367 C208 1.991 . S
C2382 C97 1.991 . S
C2417 C110 1.994 . S
C2432 C447 1.994 . S
C2467 C139 1.994 . S
C2482 C239 1.991 . S
C2517 C155 1.994 . S
C2532 C278 1.994 . S
C2567 C194 1.991 . S
C2582 C306 1.994 . S
C2617 C334 1.994 . S
C2632 C222 1.992 . S
C2667 C237 1.991 . S
C2682 C349 1.994 . S
C2717 C265 2.000 . S
C2732 C365 2.004 . S
C2767 C293 1.991 . S
C2782 C404 1.991 . S
C2817 C421 2.004 . S
C2832 C309 2.000 . S
C2867 C12 1.950 . S
C2882 C111 1.947 . S
C2917 C15 1.947 . S
C2932 C56 1.950 . S
C2967 C82 1.949 . S
C2982 C41 1.947 . S
C3017 C96 1.950 . S
C3032 C43 1.947 . S
C3067 C223 1.950 . S
C3082 C124 1.947 . S
C3117 C168 1.948 . S
C3132 C138 1.947 . S
C3167 C195 1.950 . S
C3182 C153 1.949 . S
C3217 C209 1.949 . S
C3232 C154 1.947 . S
C3267 C236 1.949 . S
C3282 C335 1.948 . S
C3317 C292 1.949 . S
C3332 C238 1.949 . S
C3367 C307 1.947 . S
C3382 C264 1.949 . S
C3417 C308 1.949 . S
C3432 C279 1.947 . S
C3467 C446 1.947 . S
C3482 C348 1.948 . S
C3517 C351 1.950 . S
C3532 C405 1.949 . S
C3567 C364 1.948 . S
C3582 C419 1.949 . S
C3617 C420 1.947 . S
C3632 C378 1.947 . S
