# Generated by pormake.
# Topology unh, (4)-cn, num edge types: 1
# Building blocks:
#     Node 0, Type 0, BuildingBlock: MUDLON_clean_sbu_0, # of connection points: 4
#     Node 1, Type 0, BuildingBlock: MUDLON_clean_sbu_0, # of connection points: 4
#     Node 2, Type 0, BuildingBlock: MUDLON_clean_sbu_0, # of connection points: 4
#     Node 3, Type 0, BuildingBlock: MUDLON_clean_sbu_0, # of connection points: 4
#     Node 4, Type 0, BuildingBlock: MUDLON_clean_sbu_0, # of connection points: 4
#     Node 5, Type 0, BuildingBlock: MUDLON_clean_sbu_0, # of connection points: 4
#     Edge 6, Type (0, 0), BuildingBlock: XUDNAN_clean_linker_2, # of connection points: 2
#     Edge 7, Type (0, 0), BuildingBlock: XUDNAN_clean_linker_2, # of connection points: 2
#     Edge 8, Type (0, 0), BuildingBlock: XUDNAN_clean_linker_2, # of connection points: 2
#     Edge 9, Type (0, 0), BuildingBlock: XUDNAN_clean_linker_2, # of connection points: 2
#     Edge 10, Type (0, 0), BuildingBlock: XUDNAN_clean_linker_2, # of connection points: 2
#     Edge 11, Type (0, 0), BuildingBlock: XUDNAN_clean_linker_2, # of connection points: 2
#     Edge 12, Type (0, 0), BuildingBlock: XUDNAN_clean_linker_2, # of connection points: 2
#     Edge 13, Type (0, 0), BuildingBlock: XUDNAN_clean_linker_2, # of connection points: 2
#     Edge 14, Type (0, 0), BuildingBlock: XUDNAN_clean_linker_2, # of connection points: 2
#     Edge 15, Type (0, 0), BuildingBlock: XUDNAN_clean_linker_2, # of connection points: 2
#     Edge 16, Type (0, 0), BuildingBlock: XUDNAN_clean_linker_2, # of connection points: 2
#     Edge 17, Type (0, 0), BuildingBlock: XUDNAN_clean_linker_2, # of connection points: 2
# Relax obj value: 0.034
# Max RMSD: 0.245
# Mean RMSD: 0.245
data_MOF--net-unh--node1-MUDLON_clean_sbu_0--edge1-XUDNAN_clean_linker_2
_symmetry_space_group_name_H-M    P1
_symmetry_Int_Tables_number       1
_symmetry_cell_setting            triclinic
loop_
_symmetry_equiv_pos_as_xyz
'x, y, z'
_cell_length_a     44.636882
_cell_length_b     44.635557
_cell_length_c     23.350143
_cell_angle_alpha  89.89394
_cell_angle_beta   90.176741
_cell_angle_gamma 119.95181
loop_
_atom_site_label
_atom_site_type_symbol
_atom_site_fract_x
_atom_site_fract_y
_atom_site_fract_z
_atom_type_partial_charge
Mg0 Mg 0.14556 0.58337 0.11572 0.0
C1 C 0.20391 0.63282 0.04324 0.0
O2 O 0.20612 0.60462 0.03923 0.0
C3 C 0.08963 0.56373 0.20147 0.0
O4 O 0.07727 0.53558 0.17013 0.0
C5 C 0.20432 0.58455 0.17545 0.0
O6 O 0.21123 0.61679 0.17833 0.0
O7 O 0.17687 0.56255 0.14987 0.0
O8 O 0.18011 0.63219 0.07391 0.0
O9 O 0.10763 0.55111 0.05195 0.0
C10 C 0.10839 0.52764 0.02235 0.0
O11 O 0.13327 0.52052 0.03096 0.0
O12 O 0.11859 0.58964 0.1879 0.0
Mg13 Mg 0.58174 0.14724 0.26583 0.0
C14 C 0.57109 0.19436 0.1872 0.0
O15 O 0.5941 0.19048 0.15818 0.0
C16 C 0.56245 0.0953 0.35747 0.0
O17 O 0.59276 0.10043 0.34086 0.0
C18 C 0.63752 0.20828 0.3267 0.0
O19 O 0.61227 0.21537 0.32656 0.0
O20 O 0.63271 0.18077 0.30227 0.0
O21 O 0.56042 0.17868 0.23475 0.0
O22 O 0.58214 0.11547 0.19588 0.0
C23 C 0.55258 0.09518 0.17445 0.0
O24 O 0.5255 0.09563 0.19533 0.0
O25 O 0.55005 0.11221 0.33304 0.0
Mg26 Mg 0.44296 0.56368 0.44371 0.0
C27 C 0.39237 0.57277 0.37419 0.0
O28 O 0.42041 0.6033 0.37065 0.0
C29 C 0.46763 0.53364 0.53211 0.0
O30 O 0.49626 0.56098 0.51494 0.0
C31 C 0.43888 0.61826 0.50977 0.0
O32 O 0.40661 0.59294 0.50971 0.0
O33 O 0.46154 0.61372 0.4846 0.0
O34 O 0.39348 0.54929 0.40347 0.0
O35 O 0.47777 0.56503 0.37745 0.0
C36 C 0.46401 0.54375 0.33637 0.0
O37 O 0.4303 0.52323 0.33613 0.0
O38 O 0.4392 0.52722 0.509 0.0
Mg39 Mg 0.89153 0.4413 0.61157 0.0
C40 C 0.83069 0.38997 0.54652 0.0
O41 O 0.8273 0.41757 0.54567 0.0
C42 C 0.93505 0.46049 0.7168 0.0
O43 O 0.92313 0.48208 0.71846 0.0
C44 C 0.83629 0.43773 0.6852 0.0
O45 O 0.83313 0.40699 0.69117 0.0
O46 O 0.85991 0.45957 0.65261 0.0
O47 O 0.85634 0.39146 0.57303 0.0
O48 O 0.92278 0.47403 0.5418 0.0
C49 C 0.94849 0.50431 0.54804 0.0
O50 O 0.95618 0.5182 0.59935 0.0
O51 O 0.92567 0.43885 0.67587 0.0
Mg52 Mg 0.45244 0.87683 0.76639 0.0
C53 C 0.4464 0.81773 0.70089 0.0
O54 O 0.41581 0.81493 0.6949 0.0
C55 C 0.47166 0.92413 0.8639 0.0
O56 O 0.43947 0.91555 0.85281 0.0
C57 C 0.39787 0.81821 0.83191 0.0
O58 O 0.42393 0.8124 0.83494 0.0
O59 O 0.40172 0.84445 0.80419 0.0
O60 O 0.46923 0.84269 0.73035 0.0
O61 O 0.4523 0.90952 0.69766 0.0
C62 C 0.48026 0.92481 0.66928 0.0
O63 O 0.50557 0.91913 0.68307 0.0
O64 O 0.48575 0.91097 0.83349 0.0
Mg65 Mg 0.58614 0.44442 0.93583 0.0
C66 C 0.64448 0.43815 0.88856 0.0
O67 O 0.61989 0.40569 0.89273 0.0
C68 C 0.5559 0.47589 1.01155 0.0
O69 O 0.53014 0.45706 0.97663 0.0
C70 C 0.5467 0.38073 1.0128 0.0
O71 O 0.53538 0.39983 0.03654 0.0
O72 O 0.5662 0.39218 0.96914 0.0
O73 O 0.63833 0.46166 0.90527 0.0
O74 O 0.55784 0.44805 0.86273 0.0
C75 C 0.52617 0.42787 0.85061 0.0
O76 O 0.50749 0.401 0.88352 0.0
O77 O 0.58455 0.47675 1.00427 0.0
H78 H 0.05822 0.54175 0.98723 0.0
H79 H 0.10019 0.47441 0.95255 0.0
H80 H 0.05845 0.44756 0.87284 0.0
H81 H 0.96851 0.47979 0.95493 0.0
H82 H 0.96074 0.51194 0.92238 0.0
H83 H 0.99251 0.52413 0.97849 0.0
H84 H 0.03901 0.57042 0.91189 0.0
H85 H 1.00743 0.55835 0.85559 0.0
H86 H 0.0469 0.55767 0.84289 0.0
H87 H 0.01311 0.42979 0.7939 0.0
H88 H 0.96911 0.42337 0.7226 0.0
H89 H 0.9582 0.50315 0.80995 0.0
C90 C 0.05848 0.5211 0.96339 0.0
C91 C 0.08244 0.51011 0.97633 0.0
C92 C 0.08203 0.48322 0.94355 0.0
C93 C 0.05839 0.46779 0.89823 0.0
C94 C 0.03536 0.47955 0.88631 0.0
C95 C 0.03527 0.5056 0.91808 0.0
C96 C 1.00898 0.51465 0.89546 0.0
C97 C 0.98103 0.50716 0.9405 0.0
C98 C 0.02665 0.55251 0.87525 0.0
C99 C 0.99444 0.48986 0.84557 0.0
C100 C 1.00975 0.46964 0.84104 0.0
C101 C 1.00085 0.44538 0.79727 0.0
C102 C 0.97583 0.44191 0.75698 0.0
C103 C 0.96017 0.46273 0.76064 0.0
C104 C 0.96957 0.48676 0.80589 0.0
H105 H 0.44589 0.95157 0.94023 0.0
H106 H 0.54087 0.95417 0.89122 0.0
H107 H 0.57256 0.99824 0.96607 0.0
H108 H 0.4824 0.04141 0.96679 0.0
H109 H 0.45484 0.03547 0.02707 0.0
H110 H 0.43993 1.0037 0.9708 0.0
H111 H 0.42814 0.95583 0.04514 0.0
H112 H 0.44289 0.98745 0.10171 0.0
H113 H 0.46248 0.96094 0.09218 0.0
H114 H 0.59385 0.0437 0.04565 0.0
H115 H 0.60232 0.08478 0.12367 0.0
H116 H 0.49273 0.0509 0.11886 0.0
C117 C 0.47335 0.96124 0.9452 0.0
C118 C 0.49093 0.94945 0.90979 0.0
C119 C 0.52686 0.96278 0.91795 0.0
C120 C 0.54506 0.98785 0.96028 0.0
C121 C 0.52688 0.99911 0.99413 0.0
C122 C 0.49176 0.98602 0.9871 0.0
C123 C 0.47806 1.00229 0.02849 0.0
C124 C 0.46293 0.02188 0.99635 0.0
C125 C 0.45132 0.975 0.0693 0.0
C126 C 0.51097 0.02685 0.05977 0.0
C127 C 0.53893 0.02475 0.03955 0.0
C128 C 0.57208 0.04543 0.06188 0.0
C129 C 0.57665 0.06871 0.10611 0.0
C130 C 0.5482 0.07105 0.12746 0.0
C131 C 0.51504 0.04977 0.10371 0.0
H132 H 0.44093 0.50488 0.23912 0.0
H133 H 0.53501 0.5757 0.32992 0.0
H134 H 0.56963 0.56803 0.25471 0.0
H135 H 0.4676 0.44603 0.19525 0.0
H136 H 0.44639 0.43752 0.12654 0.0
H137 H 0.42955 0.44992 0.18623 0.0
H138 H 0.43355 0.50104 0.12717 0.0
H139 H 0.45038 0.48877 0.06722 0.0
H140 H 0.47427 0.53201 0.09568 0.0
H141 H 0.59355 0.54945 0.17117 0.0
H142 H 0.60442 0.52331 0.08586 0.0
H143 H 0.49423 0.46632 0.05052 0.0
C144 C 0.46883 0.51902 0.24317 0.0
C145 C 0.48526 0.54088 0.29046 0.0
C146 C 0.52185 0.55887 0.29397 0.0
C147 C 0.54172 0.55464 0.2515 0.0
C148 C 0.52458 0.53256 0.20568 0.0
C149 C 0.48894 0.51526 0.20122 0.0
C150 C 0.47655 0.49252 0.1486 0.0
C151 C 0.45368 0.45424 0.16517 0.0
C152 C 0.45758 0.50431 0.10722 0.0
C153 C 0.51075 0.49945 0.12421 0.0
C154 C 0.53823 0.52252 0.15762 0.0
C155 C 0.57221 0.53162 0.14445 0.0
C156 C 0.57815 0.51663 0.096 0.0
C157 C 0.55023 0.49299 0.06128 0.0
C158 C 0.51622 0.48462 0.07566 0.0
H159 H 0.94458 0.47837 0.44046 0.0
H160 H 1.00466 0.57004 0.54421 0.0
H161 H 0.04532 0.59745 0.4637 0.0
H162 H 0.01496 0.47724 0.37784 0.0
H163 H 0.99471 0.46224 0.30888 0.0
H164 H 0.96855 0.45151 0.37229 0.0
H165 H 0.93415 0.47849 0.32777 0.0
H166 H 0.96017 0.48922 0.26402 0.0
H167 H 0.95702 0.52252 0.30245 0.0
H168 H 0.0817 0.61306 0.37351 0.0
H169 H 0.11089 0.61508 0.28251 0.0
H170 H 0.02688 0.51263 0.23968 0.0
C171 C 0.96592 0.50446 0.44608 0.0
C172 C 0.97132 0.52213 0.49863 0.0
C173 C 0.9999 0.55604 0.50429 0.0
C174 C 0.0231 0.57184 0.45876 0.0
C175 C 0.01731 0.55341 0.40787 0.0
C176 C 0.98933 0.52048 0.40133 0.0
C177 C 0.98996 0.50522 0.34385 0.0
C178 C 0.99219 0.47211 0.35119 0.0
C179 C 0.95845 0.49848 0.30737 0.0
C180 C 0.02304 0.53443 0.31936 0.0
C181 C 0.03831 0.56217 0.35656 0.0
C182 C 0.06978 0.5916 0.34386 0.0
C183 C 0.08618 0.59251 0.29207 0.0
C184 C 0.07118 0.56404 0.25389 0.0
C185 C 0.039 0.53489 0.26773 0.0
H186 H 0.58434 0.05817 0.42032 0.0
H187 H 0.49748 0.07542 0.39897 0.0
H188 H 0.4661 0.03291 0.47583 0.0
H189 H 0.53492 0.96697 0.44673 0.0
H190 H 0.56497 0.96751 0.49903 0.0
H191 H 0.58015 0.99904 0.44229 0.0
H192 H 0.60678 0.04849 0.51718 0.0
H193 H 0.59174 0.01711 0.57414 0.0
H194 H 0.57976 0.05015 0.57286 0.0
H195 H 0.4444 0.98802 0.55594 0.0
H196 H 0.43494 0.94588 0.63278 0.0
H197 H 0.53661 0.95926 0.60016 0.0
C198 C 0.5587 0.05305 0.43161 0.0
C199 C 0.54335 0.07011 0.40355 0.0
C200 C 0.50977 0.06267 0.4199 0.0
C201 C 0.49174 0.03854 0.46345 0.0
C202 C 0.50769 0.02217 0.49017 0.0
C203 C 0.54046 0.02922 0.47485 0.0
C204 C 0.55217 0.00854 0.51029 0.0
C205 C 0.55841 0.98406 0.47231 0.0
C206 C 0.58452 0.03251 0.54572 0.0
C207 C 0.52088 0.98869 0.54811 0.0
C208 C 0.49541 0.99675 0.53594 0.0
C209 C 0.4642 0.98154 0.56577 0.0
C210 C 0.45904 0.95762 0.60928 0.0
C211 C 0.48502 0.94926 0.62254 0.0
C212 C 0.5162 0.96504 0.59121 0.0
H213 H 0.55859 0.48108 0.77427 0.0
H214 H 0.45794 0.39402 0.81668 0.0
H215 H 0.43169 0.4104 0.73788 0.0
H216 H 0.53025 0.54046 0.7427 0.0
H217 H 0.56021 0.56089 0.68462 0.0
H218 H 0.57101 0.54122 0.74242 0.0
H219 H 0.58075 0.50304 0.66982 0.0
H220 H 0.5701 0.5227 0.61173 0.0
H221 H 0.54675 0.47637 0.62025 0.0
H222 H 0.41634 0.43828 0.65599 0.0
H223 H 0.41356 0.47445 0.57791 0.0
H224 H 0.52459 0.54257 0.5907 0.0
C225 C 0.53105 0.46521 0.76687 0.0
C226 C 0.51033 0.43622 0.80171 0.0
C227 C 0.47438 0.41629 0.79049 0.0
C228 C 0.45923 0.42541 0.74585 0.0
C229 C 0.48043 0.45442 0.71275 0.0
C230 C 0.5156 0.47388 0.72267 0.0
C231 C 0.53271 0.50426 0.68204 0.0
C232 C 0.54952 0.53874 0.71492 0.0
C233 C 0.55913 0.5014 0.64369 0.0
C234 C 0.50166 0.49914 0.64795 0.0
C235 C 0.4717 0.47025 0.66604 0.0
C236 C 0.4397 0.46085 0.64133 0.0
C237 C 0.43836 0.48157 0.59707 0.0
C238 C 0.46884 0.51132 0.57808 0.0
C239 C 0.5008 0.51996 0.60397 0.0
H240 H 0.26988 0.62773 0.21346 0.0
H241 H 0.19272 0.51906 0.1986 0.0
H242 H 0.23239 0.50356 0.24789 0.0
H243 H 0.34404 0.61767 0.18794 0.0
H244 H 0.371 0.65116 0.23797 0.0
H245 H 0.3365 0.65313 0.20123 0.0
H246 H 0.31102 0.65694 0.29881 0.0
H247 H 0.34535 0.65483 0.33584 0.0
H248 H 0.30092 0.62394 0.35202 0.0
H249 H 0.28045 0.50065 0.30317 0.0
H250 H 0.33347 0.5104 0.3538 0.0
H251 H 0.3787 0.62097 0.32848 0.0
C252 C 0.26125 0.60062 0.2204 0.0
C253 C 0.22814 0.57459 0.20243 0.0
C254 C 0.21801 0.53943 0.21197 0.0
C255 C 0.24033 0.53041 0.24004 0.0
C256 C 0.27273 0.55685 0.25772 0.0
C257 C 0.28321 0.59122 0.24772 0.0
C258 C 0.31929 0.61484 0.27038 0.0
C259 C 0.34417 0.6354 0.22146 0.0
C260 C 0.31911 0.63905 0.31703 0.0
C261 C 0.32751 0.58847 0.29523 0.0
C262 C 0.30036 0.55514 0.28787 0.0
C263 C 0.30192 0.52664 0.30878 0.0
C264 C 0.33207 0.53242 0.33761 0.0
C265 C 0.36028 0.56641 0.34482 0.0
C266 C 0.35775 0.59464 0.32326 0.0
H267 H 0.65766 0.27201 0.37177 0.0
H268 H 0.69115 0.19656 0.35137 0.0
H269 H 0.74431 0.23438 0.40659 0.0
H270 H 0.74175 0.34763 0.35704 0.0
H271 H 0.7332 0.37206 0.40934 0.0
H272 H 0.69818 0.33896 0.36816 0.0
H273 H 0.66628 0.30909 0.46204 0.0
H274 H 0.7013 0.34199 0.50351 0.0
H275 H 0.68795 0.29709 0.51484 0.0
H276 H 0.79336 0.28047 0.46715 0.0
H277 H 0.83513 0.33192 0.52249 0.0
H278 H 0.76902 0.37667 0.50038 0.0
C279 C 0.67617 0.26338 0.3787 0.0
C280 C 0.6702 0.23128 0.35732 0.0
C281 C 0.6952 0.2211 0.36722 0.0
C282 C 0.72542 0.24236 0.39869 0.0
C283 C 0.73029 0.27374 0.41962 0.0
C284 C 0.70641 0.28428 0.40959 0.0
C285 C 0.71768 0.31921 0.43611 0.0
C286 C 0.72303 0.34605 0.3899 0.0
C287 C 0.69176 0.31667 0.48184 0.0
C288 C 0.75163 0.32676 0.46285 0.0
C289 C 0.75848 0.30022 0.45326 0.0
C290 C 0.78829 0.30144 0.47467 0.0
C291 C 0.8118 0.3307 0.50619 0.0
C292 C 0.80542 0.35837 0.51559 0.0
C293 C 0.77481 0.35608 0.49373 0.0
H294 H 0.39914 0.75538 0.65607 0.0
H295 H 0.50923 0.8212 0.68571 0.0
H296 H 0.51997 0.7776 0.63907 0.0
H297 H 0.39616 0.67497 0.6847 0.0
H298 H 0.36395 0.65171 0.63051 0.0
H299 H 0.36548 0.68838 0.66541 0.0
H300 H 0.37054 0.71717 0.56664 0.0
H301 H 0.36911 0.68063 0.53143 0.0
H302 H 0.40475 0.72355 0.51853 0.0
H303 H 0.51815 0.72656 0.5862 0.0
H304 H 0.50374 0.67176 0.53711 0.0
H305 H 0.39472 0.63976 0.54624 0.0
C306 C 0.42557 0.76076 0.65272 0.0
C307 C 0.45339 0.79177 0.67426 0.0
C308 C 0.48752 0.79758 0.6695 0.0
C309 C 0.49385 0.77301 0.64297 0.0
C310 C 0.46574 0.74272 0.62194 0.0
C311 C 0.43227 0.73649 0.627 0.0
C312 C 0.4064 0.70178 0.60205 0.0
C313 C 0.38154 0.6778 0.64844 0.0
C314 C 0.38654 0.70606 0.55167 0.0
C315 C 0.43048 0.68937 0.58184 0.0
C316 C 0.46464 0.71333 0.59326 0.0
C317 C 0.49146 0.70757 0.57736 0.0
C318 C 0.48305 0.67644 0.5494 0.0
C319 C 0.44812 0.65141 0.53814 0.0
C320 C 0.42167 0.6582 0.55463 0.0
H321 H 0.66735 0.39348 0.86234 0.0
H322 H 0.69664 0.50183 0.85284 0.0
H323 H 0.75012 0.51438 0.80133 0.0
H324 H 0.75385 0.40711 0.88449 0.0
H325 H 0.74561 0.37013 0.84186 0.0
H326 H 0.71071 0.37046 0.87982 0.0
H327 H 0.67636 0.35838 0.7848 0.0
H328 H 0.7112 0.35821 0.74651 0.0
H329 H 0.69591 0.38701 0.72471 0.0
H330 H 0.79899 0.5139 0.74531 0.0
H331 H 0.8399 0.50096 0.69459 0.0
H332 H 0.77802 0.39313 0.74375 0.0
C333 C 0.68508 0.41994 0.8499 0.0
C334 C 0.67779 0.44668 0.86153 0.0
C335 C 0.70177 0.48095 0.84455 0.0
C336 C 0.73216 0.4883 0.81517 0.0
C337 C 0.73825 0.46113 0.80363 0.0
C338 C 0.71547 0.42771 0.82101 0.0
C339 C 0.7275 0.40294 0.80291 0.0
C340 C 0.73486 0.38672 0.8554 0.0
C341 C 0.70118 0.375 0.76232 0.0
C342 C 0.76046 0.4275 0.7719 0.0
C343 C 0.76632 0.46097 0.77259 0.0
C344 C 0.79476 0.48783 0.74497 0.0
C345 C 0.8178 0.48023 0.71614 0.0
C346 C 0.81226 0.44608 0.71541 0.0
C347 C 0.7832 0.41956 0.74385 0.0
H348 H 0.37737 0.75358 0.87283 0.0
H349 H 0.34426 0.82961 0.85741 0.0
H350 H 0.29062 0.79059 0.91033 0.0
H351 H 0.29307 0.67857 0.85289 0.0
H352 H 0.30106 0.65266 0.9032 0.0
H353 H 0.33648 0.68669 0.86418 0.0
H354 H 0.36782 0.71399 0.95987 0.0
H355 H 0.33244 0.68014 0.99919 0.0
H356 H 0.34592 0.72476 1.01379 0.0
H357 H 0.24149 0.74353 0.96897 0.0
H358 H 0.19965 0.69123 0.02229 0.0
H359 H 0.26496 0.64612 0.99513 0.0
C360 C 0.35886 0.76209 0.88047 0.0
C361 C 0.36503 0.79469 0.86126 0.0
C362 C 0.33999 0.80468 0.8717 0.0
C363 C 0.30953 0.78275 0.90184 0.0
C364 C 0.30443 0.75084 0.92065 0.0
C365 C 0.3283 0.74046 0.90982 0.0
C366 C 0.31669 0.70483 0.93379 0.0
C367 C 0.31151 0.67918 0.88564 0.0
C368 C 0.34224 0.70603 0.97937 0.0
C369 C 0.28262 0.69678 0.96028 0.0
C370 C 0.27599 0.72365 0.95265 0.0
C371 C 0.24634 0.72226 0.97482 0.0
C372 C 0.22278 0.69253 1.00516 0.0
C373 C 0.22895 0.66454 1.01256 0.0
C374 C 0.25932 0.66692 0.98978 0.0
H375 H 0.57595 0.34109 0.9862 0.0
H376 H 0.50488 0.34803 0.10467 0.0
H377 H 0.50006 0.29814 0.15851 0.0
H378 H 0.53532 0.24586 0.98765 0.0
H379 H 0.57647 0.24754 0.98437 0.0
H380 H 0.57128 0.28129 0.95171 0.0
H381 H 0.62283 0.32709 1.01141 0.0
H382 H 0.62804 0.29355 0.04453 0.0
H383 H 0.6219 0.32325 0.08836 0.0
H384 H 0.50694 0.25075 0.20425 0.0
H385 H 0.5244 0.20907 0.23743 0.0
H386 H 0.59122 0.23353 0.0893 0.0
C387 C 0.55876 0.33168 0.02271 0.0
C388 C 0.54065 0.34841 0.04102 0.0
C389 C 0.51891 0.33558 0.08964 0.0
C390 C 0.51597 0.30723 0.12051 0.0
C391 C 0.53483 0.29188 0.10209 0.0
C392 C 0.55563 0.30351 0.05409 0.0
C393 C 0.57484 0.28391 0.04532 0.0
C394 C 0.5638 0.26343 0.98892 0.0
C395 C 0.61423 0.30842 0.04757 0.0
C396 C 0.56225 0.25999 0.09666 0.0
C397 C 0.53895 0.26474 0.1286 0.0
C398 C 0.52488 0.24653 0.17923 0.0
C399 C 0.535 0.22296 0.19779 0.0
C400 C 0.55911 0.21793 0.16595 0.0
C401 C 0.57258 0.23657 0.11448 0.0
loop_
_geom_bond_atom_site_label_1
_geom_bond_atom_site_label_2
_geom_bond_distance
_geom_bond_site_symmetry_2
_ccdc_geom_bond_type
Mg0 O7 2.141 . S
Mg0 O8 2.048 . S
Mg0 O9 2.048 . S
Mg0 O12 2.141 . S
C1 O2 1.313 . S
C1 O8 1.195 . S
O2 C1 1.313 . S
C3 O4 1.245 . S
C3 O12 1.289 . S
O4 C3 1.245 . S
C5 O6 1.245 . S
C5 O7 1.289 . S
O6 C5 1.245 . S
O7 Mg0 2.141 . S
O7 C5 1.289 . S
O8 Mg0 2.048 . S
O8 C1 1.195 . S
O9 Mg0 2.048 . S
O9 C10 1.195 . S
C10 O9 1.195 . S
C10 O11 1.313 . S
O11 C10 1.313 . S
O12 Mg0 2.141 . S
O12 C3 1.289 . S
Mg13 O20 2.141 . S
Mg13 O21 2.048 . S
Mg13 O22 2.048 . S
Mg13 O25 2.141 . S
C14 O15 1.313 . S
C14 O21 1.195 . S
O15 C14 1.313 . S
C16 O17 1.245 . S
C16 O25 1.289 . S
O17 C16 1.245 . S
C18 O19 1.245 . S
C18 O20 1.289 . S
O19 C18 1.245 . S
O20 Mg13 2.141 . S
O20 C18 1.289 . S
O21 Mg13 2.048 . S
O21 C14 1.195 . S
O22 Mg13 2.048 . S
O22 C23 1.195 . S
C23 O22 1.195 . S
C23 O24 1.313 . S
O24 C23 1.313 . S
O25 Mg13 2.141 . S
O25 C16 1.289 . S
Mg26 O33 2.141 . S
Mg26 O34 2.048 . S
Mg26 O35 2.048 . S
Mg26 O38 2.141 . S
C27 O28 1.313 . S
C27 O34 1.195 . S
O28 C27 1.313 . S
C29 O30 1.245 . S
C29 O38 1.289 . S
O30 C29 1.245 . S
C31 O32 1.245 . S
C31 O33 1.289 . S
O32 C31 1.245 . S
O33 Mg26 2.141 . S
O33 C31 1.289 . S
O34 Mg26 2.048 . S
O34 C27 1.195 . S
O35 Mg26 2.048 . S
O35 C36 1.195 . S
C36 O35 1.195 . S
C36 O37 1.313 . S
O37 C36 1.313 . S
O38 Mg26 2.141 . S
O38 C29 1.289 . S
Mg39 O46 2.141 . S
Mg39 O47 2.048 . S
Mg39 O48 2.048 . S
Mg39 O51 2.141 . S
C40 O41 1.313 . S
C40 O47 1.195 . S
O41 C40 1.313 . S
C42 O43 1.245 . S
C42 O51 1.289 . S
O43 C42 1.245 . S
C44 O45 1.245 . S
C44 O46 1.289 . S
O45 C44 1.245 . S
O46 Mg39 2.141 . S
O46 C44 1.289 . S
O47 Mg39 2.048 . S
O47 C40 1.195 . S
O48 Mg39 2.048 . S
O48 C49 1.195 . S
C49 O48 1.195 . S
C49 O50 1.313 . S
O50 C49 1.313 . S
O51 Mg39 2.141 . S
O51 C42 1.289 . S
Mg52 O59 2.141 . S
Mg52 O60 2.048 . S
Mg52 O61 2.048 . S
Mg52 O64 2.141 . S
C53 O54 1.313 . S
C53 O60 1.195 . S
O54 C53 1.313 . S
C55 O56 1.245 . S
C55 O64 1.289 . S
O56 C55 1.245 . S
C57 O58 1.245 . S
C57 O59 1.289 . S
O58 C57 1.245 . S
O59 Mg52 2.141 . S
O59 C57 1.289 . S
O60 Mg52 2.048 . S
O60 C53 1.195 . S
O61 Mg52 2.048 . S
O61 C62 1.195 . S
C62 O61 1.195 . S
C62 O63 1.313 . S
O63 C62 1.313 . S
O64 Mg52 2.141 . S
O64 C55 1.289 . S
Mg65 O72 2.141 . S
Mg65 O73 2.048 . S
Mg65 O74 2.048 . S
Mg65 O77 2.141 . S
C66 O67 1.313 . S
C66 O73 1.195 . S
O67 C66 1.313 . S
C68 O69 1.246 . S
C68 O77 1.284 1_554 S
O69 C68 1.246 . S
C70 O71 1.244 1_556 S
C70 O72 1.295 . S
O71 C70 1.244 1_554 S
O72 Mg65 2.141 . S
O72 C70 1.295 . S
O73 Mg65 2.048 . S
O73 C66 1.195 . S
O74 Mg65 2.048 . S
O74 C75 1.195 . S
C75 O74 1.195 . S
C75 O76 1.313 . S
O76 C75 1.313 . S
O77 Mg65 2.141 . S
O77 C68 1.284 1_556 S
H78 C90 0.930 . S
H79 C92 0.930 1_554 S
H80 C93 0.930 . S
H81 C97 0.959 . S
H82 C97 0.959 . S
H83 C97 0.961 . S
H84 C98 0.960 . S
H85 C98 0.961 . S
H86 C98 0.959 . S
H87 C101 0.929 . S
H88 C102 0.931 . S
H89 C104 0.930 . S
C90 H78 0.930 . S
C90 C91 1.399 . S
C90 C95 1.399 . S
C91 C90 1.399 . S
C91 C92 1.376 . S
C92 H79 0.930 1_556 S
C92 C91 1.376 . S
C92 C93 1.388 1_455 S
C93 H80 0.930 . S
C93 C92 1.388 1_655 S
C93 C94 1.392 . S
C94 C93 1.392 . S
C94 C95 1.387 1_655 S
C94 C100 1.469 . S
C95 C90 1.399 . S
C95 C94 1.387 1_455 S
C95 C96 1.516 . S
C96 C95 1.516 . S
C96 C97 1.502 . S
C96 C98 1.561 . S
C96 C99 1.526 1_455 S
C97 H81 0.959 . S
C97 H82 0.959 . S
C97 H83 0.961 . S
C97 C96 1.502 . S
C98 H84 0.960 . S
C98 H85 0.961 . S
C98 H86 0.959 . S
C98 C96 1.561 . S
C99 C96 1.526 1_655 S
C99 C100 1.396 . S
C99 C104 1.390 . S
C100 C94 1.469 . S
C100 C99 1.396 . S
C100 C101 1.399 . S
C101 H87 0.929 . S
C101 C100 1.399 . S
C101 C102 1.385 . S
C102 H88 0.931 . S
C102 C101 1.385 . S
C102 C103 1.389 . S
C103 C102 1.389 . S
C103 C104 1.387 . S
C104 H89 0.930 . S
C104 C99 1.390 . S
C104 C103 1.387 . S
H105 C117 0.930 . S
H106 C119 0.930 . S
H107 C120 0.930 . S
H108 C124 0.959 . S
H109 C124 0.959 . S
H110 C124 0.961 . S
H111 C125 0.960 . S
H112 C125 0.961 . S
H113 C125 0.959 . S
H114 C128 0.929 1_556 S
H115 C129 0.931 . S
H116 C131 0.930 . S
C117 H105 0.930 . S
C117 C118 1.399 . S
C117 C122 1.399 . S
C118 C117 1.399 . S
C118 C119 1.376 . S
C119 H106 0.930 . S
C119 C118 1.376 . S
C119 C120 1.388 1_565 S
C120 H107 0.930 . S
C120 C119 1.388 1_545 S
C120 C121 1.390 . S
C121 C120 1.390 . S
C121 C122 1.394 1_545 S
C121 C127 1.465 1_556 S
C122 C117 1.399 . S
C122 C121 1.394 1_565 S
C122 C123 1.516 1_556 S
C123 C122 1.516 1_554 S
C123 C124 1.502 . S
C123 C125 1.561 . S
C123 C126 1.526 1_565 S
C124 H108 0.959 . S
C124 H109 0.959 . S
C124 H110 0.961 . S
C124 C123 1.502 . S
C125 H111 0.960 . S
C125 H112 0.961 . S
C125 H113 0.959 . S
C125 C123 1.561 . S
C126 C123 1.526 1_545 S
C126 C127 1.396 . S
C126 C131 1.390 . S
C127 C121 1.465 1_554 S
C127 C126 1.396 . S
C127 C128 1.399 . S
C128 H114 0.929 1_554 S
C128 C127 1.399 . S
C128 C129 1.385 . S
C129 H115 0.931 . S
C129 C128 1.385 . S
C129 C130 1.389 . S
C130 C129 1.389 . S
C130 C131 1.387 . S
C131 H116 0.930 . S
C131 C126 1.390 . S
C131 C130 1.387 . S
H132 C144 0.930 . S
H133 C146 0.930 . S
H134 C147 0.930 . S
H135 C151 0.959 . S
H136 C151 0.959 . S
H137 C151 0.961 . S
H138 C152 0.960 . S
H139 C152 0.961 . S
H140 C152 0.959 . S
H141 C155 0.929 . S
H142 C156 0.950 . S
H143 C158 0.930 . S
C144 H132 0.930 . S
C144 C145 1.399 . S
C144 C149 1.399 . S
C145 C144 1.399 . S
C145 C146 1.376 . S
C146 H133 0.930 . S
C146 C145 1.376 . S
C146 C147 1.388 . S
C147 H134 0.930 . S
C147 C146 1.388 . S
C147 C148 1.390 . S
C148 C147 1.390 . S
C148 C149 1.394 . S
C148 C154 1.465 . S
C149 C144 1.399 . S
C149 C148 1.394 . S
C149 C150 1.516 . S
C150 C149 1.516 . S
C150 C151 1.502 . S
C150 C152 1.561 . S
C150 C153 1.526 . S
C151 H135 0.959 . S
C151 H136 0.959 . S
C151 H137 0.961 . S
C151 C150 1.502 . S
C152 H138 0.960 . S
C152 H139 0.961 . S
C152 H140 0.959 . S
C152 C150 1.561 . S
C153 C150 1.526 . S
C153 C154 1.396 . S
C153 C158 1.390 . S
C154 C148 1.465 . S
C154 C153 1.396 . S
C154 C155 1.399 . S
C155 H141 0.929 . S
C155 C154 1.399 . S
C155 C156 1.385 . S
C156 H142 0.950 . S
C156 C155 1.385 . S
C156 C157 1.389 . S
C157 C156 1.389 . S
C157 C158 1.387 . S
C158 H143 0.930 . S
C158 C153 1.390 . S
C158 C157 1.387 . S
H159 C171 0.930 . S
H160 C173 0.930 . S
H161 C174 0.930 . S
H162 C178 0.959 . S
H163 C178 0.959 . S
H164 C178 0.961 . S
H165 C179 0.960 . S
H166 C179 0.961 . S
H167 C179 0.959 . S
H168 C182 0.929 . S
H169 C183 0.931 . S
H170 C185 0.930 . S
C171 H159 0.930 . S
C171 C172 1.399 . S
C171 C176 1.399 . S
C172 C171 1.399 . S
C172 C173 1.376 . S
C173 H160 0.930 . S
C173 C172 1.376 . S
C173 C174 1.388 . S
C174 H161 0.930 . S
C174 C173 1.388 . S
C174 C175 1.390 . S
C175 C174 1.390 . S
C175 C176 1.394 . S
C175 C181 1.465 1_655 S
C176 C171 1.399 . S
C176 C175 1.394 . S
C176 C177 1.516 1_655 S
C177 C176 1.516 1_455 S
C177 C178 1.502 1_455 S
C177 C179 1.561 . S
C177 C180 1.526 . S
C178 H162 0.959 . S
C178 H163 0.959 . S
C178 H164 0.961 . S
C178 C177 1.502 1_655 S
C179 H165 0.960 . S
C179 H166 0.961 . S
C179 H167 0.959 . S
C179 C177 1.561 . S
C180 C177 1.526 . S
C180 C181 1.396 . S
C180 C185 1.390 . S
C181 C175 1.465 1_455 S
C181 C180 1.396 . S
C181 C182 1.399 . S
C182 H168 0.929 . S
C182 C181 1.399 . S
C182 C183 1.385 . S
C183 H169 0.931 . S
C183 C182 1.385 . S
C183 C184 1.389 . S
C184 C183 1.389 . S
C184 C185 1.387 . S
C185 H170 0.930 . S
C185 C180 1.390 . S
C185 C184 1.387 . S
H186 C198 0.930 . S
H187 C200 0.930 . S
H188 C201 0.930 . S
H189 C205 0.959 . S
H190 C205 0.959 . S
H191 C205 0.961 1_545 S
H192 C206 0.960 . S
H193 C206 0.961 . S
H194 C206 0.959 . S
H195 C209 0.929 . S
H196 C210 0.931 . S
H197 C212 0.930 . S
C198 H186 0.930 . S
C198 C199 1.399 . S
C198 C203 1.399 . S
C199 C198 1.399 . S
C199 C200 1.376 . S
C200 H187 0.930 . S
C200 C199 1.376 . S
C200 C201 1.388 . S
C201 H188 0.930 . S
C201 C200 1.388 . S
C201 C202 1.390 . S
C202 C201 1.390 . S
C202 C203 1.394 . S
C202 C208 1.465 1_545 S
C203 C198 1.399 . S
C203 C202 1.394 . S
C203 C204 1.516 . S
C204 C203 1.516 . S
C204 C205 1.502 1_545 S
C204 C206 1.561 . S
C204 C207 1.526 1_545 S
C205 H189 0.959 . S
C205 H190 0.959 . S
C205 H191 0.961 1_565 S
C205 C204 1.502 1_565 S
C206 H192 0.960 . S
C206 H193 0.961 . S
C206 H194 0.959 . S
C206 C204 1.561 . S
C207 C204 1.526 1_565 S
C207 C208 1.396 . S
C207 C212 1.390 . S
C208 C202 1.465 1_565 S
C208 C207 1.396 . S
C208 C209 1.399 . S
C209 H195 0.929 . S
C209 C208 1.399 . S
C209 C210 1.385 . S
C210 H196 0.931 . S
C210 C209 1.385 . S
C210 C211 1.389 . S
C211 C210 1.389 . S
C211 C212 1.387 . S
C212 H197 0.930 . S
C212 C207 1.390 . S
C212 C211 1.387 . S
H213 C225 0.930 . S
H214 C227 0.930 . S
H215 C228 0.930 . S
H216 C232 0.959 . S
H217 C232 0.959 . S
H218 C232 0.961 . S
H219 C233 0.960 . S
H220 C233 0.961 . S
H221 C233 0.959 . S
H222 C236 0.929 . S
H223 C237 0.931 . S
H224 C239 0.930 . S
C225 H213 0.930 . S
C225 C226 1.399 . S
C225 C230 1.399 . S
C226 C225 1.399 . S
C226 C227 1.376 . S
C227 H214 0.930 . S
C227 C226 1.376 . S
C227 C228 1.388 . S
C228 H215 0.930 . S
C228 C227 1.388 . S
C228 C229 1.390 . S
C229 C228 1.390 . S
C229 C230 1.394 . S
C229 C235 1.465 . S
C230 C225 1.399 . S
C230 C229 1.394 . S
C230 C231 1.516 . S
C231 C230 1.516 . S
C231 C232 1.502 . S
C231 C233 1.561 . S
C231 C234 1.526 . S
C232 H216 0.959 . S
C232 H217 0.959 . S
C232 H218 0.961 . S
C232 C231 1.502 . S
C233 H219 0.960 . S
C233 H220 0.961 . S
C233 H221 0.959 . S
C233 C231 1.561 . S
C234 C231 1.526 . S
C234 C235 1.396 . S
C234 C239 1.390 . S
C235 C229 1.465 . S
C235 C234 1.396 . S
C235 C236 1.399 . S
C236 H222 0.929 . S
C236 C235 1.399 . S
C236 C237 1.385 . S
C237 H223 0.931 . S
C237 C236 1.385 . S
C237 C238 1.389 . S
C238 C237 1.389 . S
C238 C239 1.387 . S
C239 H224 0.930 . S
C239 C234 1.390 . S
C239 C238 1.387 . S
H240 C252 0.930 . S
H241 C254 0.930 . S
H242 C255 0.930 . S
H243 C259 0.959 . S
H244 C259 0.959 . S
H245 C259 0.961 . S
H246 C260 0.960 . S
H247 C260 0.961 . S
H248 C260 0.959 . S
H249 C263 0.929 . S
H250 C264 0.931 . S
H251 C266 0.930 . S
C252 H240 0.930 . S
C252 C253 1.399 . S
C252 C257 1.399 . S
C253 C252 1.399 . S
C253 C254 1.376 . S
C254 H241 0.930 . S
C254 C253 1.376 . S
C254 C255 1.388 . S
C255 H242 0.930 . S
C255 C254 1.388 . S
C255 C256 1.390 . S
C256 C255 1.390 . S
C256 C257 1.394 . S
C256 C262 1.465 . S
C257 C252 1.399 . S
C257 C256 1.394 . S
C257 C258 1.516 . S
C258 C257 1.516 . S
C258 C259 1.502 . S
C258 C260 1.561 . S
C258 C261 1.526 . S
C259 H243 0.959 . S
C259 H244 0.959 . S
C259 H245 0.961 . S
C259 C258 1.502 . S
C260 H246 0.960 . S
C260 H247 0.961 . S
C260 H248 0.959 . S
C260 C258 1.561 . S
C261 C258 1.526 . S
C261 C262 1.396 . S
C261 C266 1.390 . S
C262 C256 1.465 . S
C262 C261 1.396 . S
C262 C263 1.399 . S
C263 H249 0.929 . S
C263 C262 1.399 . S
C263 C264 1.385 . S
C264 H250 0.931 . S
C264 C263 1.385 . S
C264 C265 1.389 . S
C265 C264 1.389 . S
C265 C266 1.387 . S
C266 H251 0.930 . S
C266 C261 1.390 . S
C266 C265 1.387 . S
H267 C279 0.930 . S
H268 C281 0.930 . S
H269 C282 0.930 . S
H270 C286 0.959 . S
H271 C286 0.959 . S
H272 C286 0.961 . S
H273 C287 0.960 . S
H274 C287 0.961 . S
H275 C287 0.959 . S
H276 C290 0.929 . S
H277 C291 0.931 . S
H278 C293 0.930 . S
C279 H267 0.930 . S
C279 C280 1.399 . S
C279 C284 1.399 . S
C280 C279 1.399 . S
C280 C281 1.376 . S
C281 H268 0.930 . S
C281 C280 1.376 . S
C281 C282 1.388 . S
C282 H269 0.930 . S
C282 C281 1.388 . S
C282 C283 1.390 . S
C283 C282 1.390 . S
C283 C284 1.394 . S
C283 C289 1.465 . S
C284 C279 1.399 . S
C284 C283 1.394 . S
C284 C285 1.516 . S
C285 C284 1.516 . S
C285 C286 1.502 . S
C285 C287 1.561 . S
C285 C288 1.526 . S
C286 H270 0.959 . S
C286 H271 0.959 . S
C286 H272 0.961 . S
C286 C285 1.502 . S
C287 H273 0.960 . S
C287 H274 0.961 . S
C287 H275 0.959 . S
C287 C285 1.561 . S
C288 C285 1.526 . S
C288 C289 1.396 . S
C288 C293 1.390 . S
C289 C283 1.465 . S
C289 C288 1.396 . S
C289 C290 1.399 . S
C290 H276 0.929 . S
C290 C289 1.399 . S
C290 C291 1.385 . S
C291 H277 0.931 . S
C291 C290 1.385 . S
C291 C292 1.389 . S
C292 C291 1.389 . S
C292 C293 1.387 . S
C293 H278 0.930 . S
C293 C288 1.390 . S
C293 C292 1.387 . S
H294 C306 0.930 . S
H295 C308 0.930 . S
H296 C309 0.930 . S
H297 C313 0.959 . S
H298 C313 0.959 . S
H299 C313 0.961 . S
H300 C314 0.960 . S
H301 C314 0.961 . S
H302 C314 0.959 . S
H303 C317 0.929 . S
H304 C318 0.931 . S
H305 C320 0.930 . S
C306 H294 0.930 . S
C306 C307 1.399 . S
C306 C311 1.399 . S
C307 C306 1.399 . S
C307 C308 1.376 . S
C308 H295 0.930 . S
C308 C307 1.376 . S
C308 C309 1.388 . S
C309 H296 0.930 . S
C309 C308 1.388 . S
C309 C310 1.390 . S
C310 C309 1.390 . S
C310 C311 1.394 . S
C310 C316 1.465 . S
C311 C306 1.399 . S
C311 C310 1.394 . S
C311 C312 1.516 . S
C312 C311 1.516 . S
C312 C313 1.502 . S
C312 C314 1.561 . S
C312 C315 1.526 . S
C313 H297 0.959 . S
C313 H298 0.959 . S
C313 H299 0.961 . S
C313 C312 1.502 . S
C314 H300 0.960 . S
C314 H301 0.961 . S
C314 H302 0.959 . S
C314 C312 1.561 . S
C315 C312 1.526 . S
C315 C316 1.396 . S
C315 C320 1.390 . S
C316 C310 1.465 . S
C316 C315 1.396 . S
C316 C317 1.399 . S
C317 H303 0.929 . S
C317 C316 1.399 . S
C317 C318 1.385 . S
C318 H304 0.931 . S
C318 C317 1.385 . S
C318 C319 1.389 . S
C319 C318 1.389 . S
C319 C320 1.387 . S
C320 H305 0.930 . S
C320 C315 1.390 . S
C320 C319 1.387 . S
H321 C333 0.930 . S
H322 C335 0.930 . S
H323 C336 0.930 . S
H324 C340 0.959 . S
H325 C340 0.959 . S
H326 C340 0.961 . S
H327 C341 0.960 . S
H328 C341 0.961 . S
H329 C341 0.959 . S
H330 C344 0.929 . S
H331 C345 0.931 . S
H332 C347 0.930 . S
C333 H321 0.930 . S
C333 C334 1.399 . S
C333 C338 1.399 . S
C334 C333 1.399 . S
C334 C335 1.376 . S
C335 H322 0.930 . S
C335 C334 1.376 . S
C335 C336 1.388 . S
C336 H323 0.930 . S
C336 C335 1.388 . S
C336 C337 1.390 . S
C337 C336 1.390 . S
C337 C338 1.394 . S
C337 C343 1.465 . S
C338 C333 1.399 . S
C338 C337 1.394 . S
C338 C339 1.516 . S
C339 C338 1.516 . S
C339 C340 1.502 . S
C339 C341 1.561 . S
C339 C342 1.526 . S
C340 H324 0.959 . S
C340 H325 0.959 . S
C340 H326 0.961 . S
C340 C339 1.502 . S
C341 H327 0.960 . S
C341 H328 0.961 . S
C341 H329 0.959 . S
C341 C339 1.561 . S
C342 C339 1.526 . S
C342 C343 1.396 . S
C342 C347 1.390 . S
C343 C337 1.465 . S
C343 C342 1.396 . S
C343 C344 1.399 . S
C344 H330 0.929 . S
C344 C343 1.399 . S
C344 C345 1.385 . S
C345 H331 0.931 . S
C345 C344 1.385 . S
C345 C346 1.389 . S
C346 C345 1.389 . S
C346 C347 1.387 . S
C347 H332 0.930 . S
C347 C342 1.390 . S
C347 C346 1.387 . S
H348 C360 0.930 . S
H349 C362 0.930 . S
H350 C363 0.930 . S
H351 C367 0.959 1_556 S
H352 C367 0.959 . S
H353 C367 0.961 . S
H354 C368 0.960 . S
H355 C368 0.961 . S
H356 C368 0.959 . S
H357 C371 0.929 . S
H358 C372 0.931 . S
H359 C374 0.930 1_554 S
C360 H348 0.930 . S
C360 C361 1.399 . S
C360 C365 1.399 . S
C361 C360 1.399 . S
C361 C362 1.376 . S
C362 H349 0.930 . S
C362 C361 1.376 . S
C362 C363 1.388 . S
C363 H350 0.930 . S
C363 C362 1.388 . S
C363 C364 1.390 . S
C364 C363 1.390 . S
C364 C365 1.394 . S
C364 C370 1.465 . S
C365 C360 1.399 . S
C365 C364 1.394 . S
C365 C366 1.516 . S
C366 C365 1.516 . S
C366 C367 1.502 1_556 S
C366 C368 1.561 1_556 S
C366 C369 1.526 . S
C367 H351 0.959 1_554 S
C367 H352 0.959 . S
C367 H353 0.961 . S
C367 C366 1.502 1_554 S
C368 H354 0.960 . S
C368 H355 0.961 . S
C368 H356 0.959 . S
C368 C366 1.561 1_554 S
C369 C366 1.526 . S
C369 C370 1.396 . S
C369 C374 1.390 . S
C370 C364 1.465 . S
C370 C369 1.396 . S
C370 C371 1.399 . S
C371 H357 0.929 . S
C371 C370 1.399 . S
C371 C372 1.385 . S
C372 H358 0.931 . S
C372 C371 1.385 . S
C372 C373 1.389 . S
C373 C372 1.389 . S
C373 C374 1.387 . S
C374 H359 0.930 1_556 S
C374 C369 1.390 . S
C374 C373 1.387 . S
H375 C387 0.930 . S
H376 C389 0.930 . S
H377 C390 0.930 . S
H378 C394 0.959 . S
H379 C394 0.959 . S
H380 C394 0.961 . S
H381 C395 0.960 . S
H382 C395 0.961 . S
H383 C395 0.959 . S
H384 C398 0.929 . S
H385 C399 0.931 . S
H386 C401 0.930 . S
C387 H375 0.930 . S
C387 C388 1.399 . S
C387 C392 1.399 . S
C388 C387 1.399 . S
C388 C389 1.376 . S
C389 H376 0.930 . S
C389 C388 1.376 . S
C389 C390 1.388 . S
C390 H377 0.930 . S
C390 C389 1.388 . S
C390 C391 1.390 . S
C391 C390 1.390 . S
C391 C392 1.394 . S
C391 C397 1.465 . S
C392 C387 1.399 . S
C392 C391 1.394 . S
C392 C393 1.516 . S
C393 C392 1.516 . S
C393 C394 1.502 . S
C393 C395 1.561 . S
C393 C396 1.526 . S
C394 H378 0.959 . S
C394 H379 0.959 . S
C394 H380 0.961 . S
C394 C393 1.502 . S
C395 H381 0.960 . S
C395 H382 0.961 . S
C395 H383 0.959 . S
C395 C393 1.561 . S
C396 C393 1.526 . S
C396 C397 1.396 . S
C396 C401 1.390 . S
C397 C391 1.465 . S
C397 C396 1.396 . S
C397 C398 1.399 . S
C398 H384 0.929 . S
C398 C397 1.399 . S
C398 C399 1.385 . S
C399 H385 0.931 . S
C399 C398 1.385 . S
C399 C400 1.389 . S
C400 C399 1.389 . S
C400 C401 1.387 . S
C401 H386 0.930 . S
C401 C396 1.390 . S
C401 C400 1.387 . S
C91 C10 1.906 1_556 S
C103 C42 1.829 . S
C118 C55 1.846 . S
C130 C23 1.886 . S
C145 C36 1.885 . S
C157 C68 1.846 . S
C172 C49 1.901 . S
C184 C3 1.861 . S
C199 C16 1.806 . S
C211 C62 1.894 . S
C226 C75 1.906 . S
C238 C29 1.822 . S
C253 C5 1.600 . S
C265 C27 1.504 . S
C280 C18 1.584 . S
C292 C40 1.548 . S
C307 C53 1.532 . S
C319 C31 1.590 . S
C334 C66 1.535 . S
C346 C44 1.589 . S
C361 C57 1.583 . S
C373 C1 1.551 1_556 S
C388 C70 1.577 1_554 S
C400 C14 1.570 . S
