# Generated by pormake.
# Topology wns, (7)-cn, num edge types: 1
# Building blocks:
#     Node 0, Type 0, BuildingBlock: NUHQUE_clean_sbu_2, # of connection points: 7
#     Node 1, Type 0, BuildingBlock: NUHQUE_clean_sbu_2, # of connection points: 7
#     Node 2, Type 0, BuildingBlock: NUHQUE_clean_sbu_2, # of connection points: 7
#     Node 3, Type 0, BuildingBlock: NUHQUE_clean_sbu_2, # of connection points: 7
#     Node 4, Type 0, BuildingBlock: NUHQUE_clean_sbu_2, # of connection points: 7
#     Node 5, Type 0, BuildingBlock: NUHQUE_clean_sbu_2, # of connection points: 7
#     Node 6, Type 0, BuildingBlock: NUHQUE_clean_sbu_2, # of connection points: 7
#     Node 7, Type 0, BuildingBlock: NUHQUE_clean_sbu_2, # of connection points: 7
#     Node 8, Type 0, BuildingBlock: NUHQUE_clean_sbu_2, # of connection points: 7
#     Node 9, Type 0, BuildingBlock: NUHQUE_clean_sbu_2, # of connection points: 7
#     Node 10, Type 0, BuildingBlock: NUHQUE_clean_sbu_2, # of connection points: 7
#     Node 11, Type 0, BuildingBlock: NUHQUE_clean_sbu_2, # of connection points: 7
#     Edge 12, Type (0, 0), BuildingBlock: XIVTED_clean_linker_0, # of connection points: 2
#     Edge 13, Type (0, 0), BuildingBlock: XIVTED_clean_linker_0, # of connection points: 2
#     Edge 14, Type (0, 0), BuildingBlock: XIVTED_clean_linker_0, # of connection points: 2
#     Edge 15, Type (0, 0), BuildingBlock: XIVTED_clean_linker_0, # of connection points: 2
#     Edge 16, Type (0, 0), BuildingBlock: XIVTED_clean_linker_0, # of connection points: 2
#     Edge 17, Type (0, 0), BuildingBlock: XIVTED_clean_linker_0, # of connection points: 2
#     Edge 18, Type (0, 0), BuildingBlock: XIVTED_clean_linker_0, # of connection points: 2
#     Edge 19, Type (0, 0), BuildingBlock: XIVTED_clean_linker_0, # of connection points: 2
#     Edge 20, Type (0, 0), BuildingBlock: XIVTED_clean_linker_0, # of connection points: 2
#     Edge 21, Type (0, 0), BuildingBlock: XIVTED_clean_linker_0, # of connection points: 2
#     Edge 22, Type (0, 0), BuildingBlock: XIVTED_clean_linker_0, # of connection points: 2
#     Edge 23, Type (0, 0), BuildingBlock: XIVTED_clean_linker_0, # of connection points: 2
#     Edge 24, Type (0, 0), BuildingBlock: XIVTED_clean_linker_0, # of connection points: 2
#     Edge 25, Type (0, 0), BuildingBlock: XIVTED_clean_linker_0, # of connection points: 2
#     Edge 26, Type (0, 0), BuildingBlock: XIVTED_clean_linker_0, # of connection points: 2
#     Edge 27, Type (0, 0), BuildingBlock: XIVTED_clean_linker_0, # of connection points: 2
#     Edge 28, Type (0, 0), BuildingBlock: XIVTED_clean_linker_0, # of connection points: 2
#     Edge 29, Type (0, 0), BuildingBlock: XIVTED_clean_linker_0, # of connection points: 2
#     Edge 30, Type (0, 0), BuildingBlock: XIVTED_clean_linker_0, # of connection points: 2
#     Edge 31, Type (0, 0), BuildingBlock: XIVTED_clean_linker_0, # of connection points: 2
#     Edge 32, Type (0, 0), BuildingBlock: XIVTED_clean_linker_0, # of connection points: 2
#     Edge 33, Type (0, 0), BuildingBlock: XIVTED_clean_linker_0, # of connection points: 2
#     Edge 34, Type (0, 0), BuildingBlock: XIVTED_clean_linker_0, # of connection points: 2
#     Edge 35, Type (0, 0), BuildingBlock: XIVTED_clean_linker_0, # of connection points: 2
#     Edge 36, Type (0, 0), BuildingBlock: XIVTED_clean_linker_0, # of connection points: 2
#     Edge 37, Type (0, 0), BuildingBlock: XIVTED_clean_linker_0, # of connection points: 2
#     Edge 38, Type (0, 0), BuildingBlock: XIVTED_clean_linker_0, # of connection points: 2
#     Edge 39, Type (0, 0), BuildingBlock: XIVTED_clean_linker_0, # of connection points: 2
#     Edge 40, Type (0, 0), BuildingBlock: XIVTED_clean_linker_0, # of connection points: 2
#     Edge 41, Type (0, 0), BuildingBlock: XIVTED_clean_linker_0, # of connection points: 2
#     Edge 42, Type (0, 0), BuildingBlock: XIVTED_clean_linker_0, # of connection points: 2
#     Edge 43, Type (0, 0), BuildingBlock: XIVTED_clean_linker_0, # of connection points: 2
#     Edge 44, Type (0, 0), BuildingBlock: XIVTED_clean_linker_0, # of connection points: 2
#     Edge 45, Type (0, 0), BuildingBlock: XIVTED_clean_linker_0, # of connection points: 2
#     Edge 46, Type (0, 0), BuildingBlock: XIVTED_clean_linker_0, # of connection points: 2
#     Edge 47, Type (0, 0), BuildingBlock: XIVTED_clean_linker_0, # of connection points: 2
#     Edge 48, Type (0, 0), BuildingBlock: XIVTED_clean_linker_0, # of connection points: 2
#     Edge 49, Type (0, 0), BuildingBlock: XIVTED_clean_linker_0, # of connection points: 2
#     Edge 50, Type (0, 0), BuildingBlock: XIVTED_clean_linker_0, # of connection points: 2
#     Edge 51, Type (0, 0), BuildingBlock: XIVTED_clean_linker_0, # of connection points: 2
#     Edge 52, Type (0, 0), BuildingBlock: XIVTED_clean_linker_0, # of connection points: 2
#     Edge 53, Type (0, 0), BuildingBlock: XIVTED_clean_linker_0, # of connection points: 2
# Relax obj value: 0.185
# Max RMSD: 0.260
# Mean RMSD: 0.260
data_MOF--net-wns--node1-NUHQUE_clean_sbu_2--edge1-XIVTED_clean_linker_0
_symmetry_space_group_name_H-M    P1
_symmetry_Int_Tables_number       1
_symmetry_cell_setting            triclinic
loop_
_symmetry_equiv_pos_as_xyz
'x, y, z'
_cell_length_a     48.619301
_cell_length_b     48.534055
_cell_length_c     36.307616
_cell_angle_alpha  89.937982
_cell_angle_beta   90.063699
_cell_angle_gamma 120.28
loop_
_atom_site_label
_atom_site_type_symbol
_atom_site_fract_x
_atom_site_fract_y
_atom_site_fract_z
_atom_type_partial_charge
O0 O 0.48099 0.23379 0.96564 0.0
Tb1 Tb 0.49585 0.24382 0.02296 0.0
Eu2 Eu 0.437 0.25941 0.08199 0.0
C3 C 0.49469 0.25734 0.94178 0.0
O4 O 0.51615 0.28568 0.95383 0.0
C5 C 0.42865 0.19354 0.04946 0.0
O6 O 0.43275 0.24263 0.14049 0.0
C7 C 0.40037 0.28357 0.07258 0.0
C8 C 0.45543 0.23986 0.15665 0.0
O9 O 0.4813 0.24669 0.1381 0.0
C10 C 0.50755 0.30492 0.05846 0.0
C11 C 0.39385 0.30887 0.08433 0.0
C12 C 0.3771 0.3178 0.06006 0.0
C13 C 0.36595 0.33785 0.07208 0.0
C14 C 0.37284 0.3501 0.10791 0.0
C15 C 0.38949 0.34164 0.13264 0.0
C16 C 0.39998 0.32082 0.12069 0.0
O17 O 0.45901 0.20256 0.05169 0.0
O18 O 0.41899 0.21452 0.04701 0.0
O19 O 0.53715 0.24263 0.00151 0.0
O20 O 0.53568 0.25144 0.05853 0.0
C21 C 0.5522 0.24792 0.03265 0.0
O22 O 0.48878 0.29825 0.08702 0.0
O23 O 0.49577 0.28794 0.02863 0.0
O24 O 0.39491 0.26136 0.09693 0.0
O25 O 0.42551 0.29152 0.05192 0.0
H26 H 0.37098 0.30754 0.03267 0.0
H27 H 0.36335 0.36489 0.11721 0.0
H28 H 0.41193 0.31319 0.13985 0.0
O29 O 0.78029 0.23867 0.94957 0.0
Tb30 Tb 0.77999 0.24387 0.00884 0.0
Eu31 Eu 0.7795 0.18487 0.08451 0.0
C32 C 0.79674 0.22712 0.93399 0.0
O33 O 0.81275 0.2179 0.95479 0.0
C34 C 0.84335 0.24671 0.04231 0.0
O35 O 0.7815 0.18689 0.14641 0.0
C36 C 0.76222 0.12724 0.06291 0.0
C37 C 0.78692 0.21326 0.16285 0.0
O38 O 0.79202 0.23779 0.14246 0.0
C39 C 0.72701 0.19703 0.05537 0.0
C40 C 0.73618 0.09381 0.06837 0.0
C41 C 0.72464 0.07284 0.03806 0.0
C42 C 0.7007 0.0409 0.04307 0.0
C43 C 0.68842 0.02998 0.0783 0.0
C44 C 0.70099 0.04968 0.10934 0.0
C45 C 0.7245 0.08194 0.10397 0.0
O46 O 0.82868 0.25682 0.02013 0.0
O47 O 0.8296 0.2222 0.06551 0.0
O48 O 0.76859 0.28067 0.99426 0.0
O49 O 0.78046 0.27737 0.04973 0.0
C50 C 0.77296 0.29326 0.0269 0.0
O51 O 0.73789 0.19342 0.08681 0.0
O52 O 0.74286 0.19784 0.02609 0.0
O53 O 0.78095 0.14126 0.0913 0.0
O54 O 0.75564 0.14641 0.04405 0.0
H55 H 0.73447 0.08122 0.01083 0.0
H56 H 0.66959 1.00538 0.08143 0.0
H57 H 0.73466 0.09757 0.12749 0.0
O58 O 0.78898 0.53995 0.9502 0.0
Tb59 Tb 0.7854 0.5389 0.01006 0.0
Eu60 Eu 0.81893 0.57669 0.09824 0.0
C61 C 0.80209 0.56659 0.93099 0.0
O62 O 0.81515 0.59409 0.94826 0.0
C63 C 0.77325 0.58984 0.04514 0.0
O64 O 0.81641 0.57146 0.16005 0.0
C65 C 0.87561 0.62273 0.08077 0.0
C66 C 0.80952 0.58934 0.18085 0.0
O67 O 0.80359 0.61018 0.1651 0.0
C68 C 0.81941 0.51788 0.06114 0.0
C69 C 0.90966 0.63395 0.08834 0.0
C70 C 0.93161 0.64514 0.059 0.0
C71 C 0.96415 0.65732 0.06579 0.0
C72 C 0.9748 0.65854 0.10189 0.0
C73 C 0.95357 0.64802 0.13166 0.0
C74 C 0.92086 0.63554 0.12467 0.0
O75 O 0.78558 0.58334 0.01655 0.0
O76 O 0.77856 0.58425 0.07927 0.0
O77 O 0.74584 0.49125 0.99828 0.0
O78 O 0.74533 0.5134 0.04846 0.0
C79 C 0.72997 0.48784 0.02834 0.0
O80 O 0.81219 0.52716 0.09184 0.0
O81 O 0.82473 0.53517 0.03142 0.0
O82 O 0.85879 0.62426 0.10817 0.0
O83 O 0.85966 0.59695 0.06048 0.0
H84 H 0.92346 0.64462 0.03106 0.0
H85 H 1.00013 0.66894 0.10681 0.0
H86 H 0.90424 0.62733 0.14749 0.0
O87 O 0.27661 0.49467 0.54615 0.0
Tb88 Tb 0.27067 0.49453 0.48723 0.0
Eu89 Eu 0.27065 0.45832 0.40838 0.0
C90 C 0.27257 0.46914 0.56344 0.0
O91 O 0.26585 0.44343 0.54452 0.0
C92 C 0.20964 0.43701 0.45753 0.0
O93 O 0.26498 0.4594 0.34747 0.0
C94 C 0.28296 0.41335 0.4251 0.0
C95 C 0.25692 0.47917 0.33322 0.0
O96 O 0.25477 0.49976 0.35473 0.0
C97 C 0.3311 0.51795 0.44151 0.0
C98 C 0.30721 0.40336 0.42183 0.0
C99 C 0.31273 0.3885 0.45214 0.0
C100 C 0.33258 0.37536 0.44836 0.0
C101 C 0.34679 0.37705 0.41438 0.0
C102 C 0.34039 0.39007 0.38337 0.0
C103 C 0.32129 0.4041 0.38745 0.0
O104 O 0.22884 0.44724 0.48595 0.0
O105 O 0.22083 0.44646 0.4242 0.0
O106 O 0.26576 0.53497 0.50384 0.0
O107 O 0.25889 0.52156 0.44747 0.0
C108 C 0.25905 0.54164 0.47156 0.0
O109 O 0.31423 0.50768 0.41111 0.0
O110 O 0.31817 0.50485 0.47316 0.0
O111 O 0.26888 0.41409 0.39453 0.0
O112 O 0.2882 0.43647 0.44812 0.0
H113 H 0.30064 0.38601 0.47806 0.0
H114 H 0.36161 0.36632 0.41165 0.0
H115 H 0.31584 0.41379 0.36346 0.0
O116 O 0.57003 0.80321 0.54201 0.0
Tb117 Tb 0.5635 0.79522 0.4829 0.0
Eu118 Eu 0.58677 0.82114 0.39528 0.0
C119 C 0.5467 0.79974 0.56348 0.0
O120 O 0.51954 0.79352 0.54853 0.0
C121 C 0.61591 0.79003 0.44477 0.0
O122 O 0.58083 0.81865 0.33355 0.0
C123 C 0.62864 0.8794 0.41371 0.0
C124 C 0.60004 0.81375 0.31266 0.0
O125 O 0.62225 0.80995 0.32843 0.0
C126 C 0.52593 0.81626 0.43544 0.0
C127 C 0.63688 0.91283 0.40704 0.0
C128 C 0.64633 0.93419 0.4369 0.0
C129 C 0.65527 0.96622 0.43108 0.0
C130 C 0.65479 0.97682 0.39537 0.0
C131 C 0.64799 0.95674 0.36476 0.0
C132 C 0.6382 0.92438 0.37098 0.0
O133 O 0.61167 0.80639 0.47063 0.0
O134 O 0.6012 0.78565 0.41311 0.0
O135 O 0.53018 0.74669 0.50134 0.0
O136 O 0.53753 0.75579 0.44395 0.0
C137 C 0.52211 0.73402 0.46876 0.0
O138 O 0.53562 0.80788 0.40583 0.0
O139 O 0.54235 0.82342 0.46628 0.0
O140 O 0.63217 0.86417 0.38591 0.0
O141 O 0.60318 0.8613 0.43358 0.0
H142 H 0.64716 0.92604 0.46447 0.0
H143 H 0.66144 1.00155 0.39146 0.0
H144 H 0.63292 0.90845 0.34782 0.0
O145 O 0.25055 0.77049 0.55351 0.0
Tb146 Tb 0.25063 0.76837 0.49409 0.0
Eu147 Eu 0.19029 0.76743 0.41923 0.0
C148 C 0.22604 0.74956 0.57283 0.0
O149 O 0.20179 0.72579 0.55595 0.0
C150 C 0.24838 0.8309 0.46702 0.0
O151 O 0.19519 0.77429 0.35813 0.0
C152 C 0.13169 0.75011 0.43628 0.0
C153 C 0.22072 0.77811 0.34122 0.0
O154 O 0.24336 0.7776 0.36047 0.0
C155 C 0.2043 0.71551 0.4457 0.0
C156 C 0.09781 0.7266 0.42789 0.0
C157 C 0.07539 0.71493 0.45685 0.0
C158 C 0.04267 0.69628 0.44915 0.0
C159 C 0.0324 0.68929 0.41264 0.0
C160 C 0.05404 0.70096 0.38334 0.0
C161 C 0.08688 0.71911 0.39107 0.0
O162 O 0.25762 0.81596 0.48996 0.0
O163 O 0.2263 0.81732 0.44091 0.0
O164 O 0.28507 0.75187 0.49549 0.0
O165 O 0.29013 0.78598 0.45513 0.0
C166 C 0.30246 0.76963 0.46828 0.0
O167 O 0.19893 0.72569 0.41473 0.0
O168 O 0.20512 0.73123 0.47517 0.0
O169 O 0.14802 0.77061 0.41014 0.0
O170 O 0.14868 0.74082 0.45531 0.0
H171 H 0.08325 0.72128 0.48512 0.0
H172 H 1.00706 0.67508 0.40701 0.0
H173 H 0.10367 0.72869 0.36846 0.0
O174 O 0.54396 0.7949 0.0232 0.0
Tb175 Tb 0.52464 0.77526 0.96927 0.0
Eu176 Eu 0.58261 0.75865 0.9111 0.0
C177 C 0.56505 0.78946 0.03921 0.0
O178 O 0.57646 0.77408 0.02092 0.0
C179 C 0.58897 0.8254 0.93741 0.0
O180 O 0.58238 0.76872 0.85045 0.0
C181 C 0.62015 0.73605 0.92459 0.0
C182 C 0.5603 0.77372 0.83645 0.0
O183 O 0.53835 0.7728 0.85834 0.0
C184 C 0.51329 0.71221 0.94086 0.0
C185 C 0.62604 0.70937 0.91722 0.0
C186 C 0.63486 0.69632 0.94663 0.0
C187 C 0.64335 0.67302 0.93995 0.0
C188 C 0.6436 0.66343 0.90364 0.0
C189 C 0.63627 0.67697 0.87388 0.0
C190 C 0.62666 0.69938 0.88084 0.0
O191 O 0.55814 0.81293 0.9335 0.0
O192 O 0.60193 0.80717 0.93889 0.0
O193 O 0.48272 0.77428 0.99238 0.0
O194 O 0.48397 0.76703 0.93494 0.0
C195 C 0.46733 0.76936 0.96154 0.0
O196 O 0.53077 0.71891 0.91102 0.0
O197 O 0.52511 0.73111 0.96927 0.0
O198 O 0.62411 0.75528 0.89701 0.0
O199 O 0.59628 0.73074 0.94628 0.0
H200 H 0.6356 0.70464 0.97452 0.0
H201 H 0.65091 0.64607 0.89831 0.0
H202 H 0.62129 0.71016 0.85787 0.0
O203 O 0.24777 0.78326 0.04833 0.0
Tb204 Tb 0.24476 0.77931 0.98903 0.0
Eu205 Eu 0.24 0.83227 0.91378 0.0
C206 C 0.23328 0.79566 0.06647 0.0
O207 O 0.21729 0.80644 0.04821 0.0
C208 C 0.1788 0.77333 0.96164 0.0
O209 O 0.23491 0.82367 0.85297 0.0
C210 C 0.25487 0.8906 0.92833 0.0
C211 C 0.21921 0.79423 0.84069 0.0
O212 O 0.20566 0.77062 0.8644 0.0
C213 C 0.29639 0.82614 0.94194 0.0
C214 C 0.27851 0.92448 0.92052 0.0
C215 C 0.28889 0.94686 0.9495 0.0
C216 C 0.30764 0.97963 0.942 0.0
C217 C 0.31637 0.98991 0.9057 0.0
C218 C 0.30631 0.96819 0.87645 0.0
C219 C 0.28777 0.93535 0.88402 0.0
O220 O 0.1952 0.76555 0.98407 0.0
O221 O 0.19092 0.79573 0.93582 0.0
O222 O 0.25898 0.74399 0.99923 0.0
O223 O 0.24111 0.74567 0.94635 0.0
C224 C 0.25166 0.73089 0.96678 0.0
O225 O 0.28322 0.82645 0.91073 0.0
O226 O 0.28103 0.82563 0.97151 0.0
O227 O 0.23626 0.87378 0.90092 0.0
O228 O 0.26342 0.87424 0.94972 0.0
H229 H 0.28136 0.93893 0.97753 0.0
H230 H 0.33097 0.01528 0.90021 0.0
H231 H 0.27935 0.91849 0.8614 0.0
O232 O 0.22324 0.48568 0.04656 0.0
Tb233 Tb 0.23065 0.48319 0.98834 0.0
Eu234 Eu 0.20357 0.44615 0.90765 0.0
C235 C 0.20499 0.45999 0.06595 0.0
O236 O 0.18925 0.4322 0.04941 0.0
C237 C 0.24146 0.42879 0.96467 0.0
O238 O 0.21272 0.44665 0.84731 0.0
C239 C 0.14626 0.40068 0.92388 0.0
C240 C 0.23921 0.47013 0.83374 0.0
O241 O 0.25894 0.49323 0.85567 0.0
C242 C 0.19959 0.50543 0.93449 0.0
C243 C 0.11221 0.38986 0.9171 0.0
C244 C 0.09036 0.37799 0.94652 0.0
C245 C 0.05764 0.36491 0.93986 0.0
C246 C 0.04675 0.36346 0.9038 0.0
C247 C 0.06799 0.37464 0.87404 0.0
C248 C 0.10081 0.38831 0.88099 0.0
O249 O 0.22866 0.43761 0.99046 0.0
O250 O 0.24186 0.43752 0.93035 0.0
O251 O 0.27313 0.52794 0.00282 0.0
O252 O 0.27106 0.50804 0.95009 0.0
C253 C 0.28838 0.53182 0.97213 0.0
O254 O 0.20914 0.49536 0.90645 0.0
O255 O 0.1934 0.4897 0.96552 0.0
O256 O 0.16272 0.39986 0.89564 0.0
O257 O 0.16263 0.42564 0.94525 0.0
H258 H 0.09867 0.37834 0.97433 0.0
H259 H 0.02133 0.35217 0.89887 0.0
H260 H 0.11739 0.39704 0.85814 0.0
O261 O 0.79236 0.53569 0.4701 0.0
Tb262 Tb 0.77461 0.51652 0.52467 0.0
Eu263 Eu 0.75978 0.57444 0.57856 0.0
C264 C 0.78607 0.55644 0.45471 0.0
O265 O 0.7707 0.56743 0.47378 0.0
C266 C 0.82595 0.58133 0.55297 0.0
O267 O 0.77064 0.57637 0.63924 0.0
C268 C 0.7386 0.6131 0.56472 0.0
C269 C 0.77088 0.55262 0.65644 0.0
O270 O 0.76483 0.52698 0.63779 0.0
C271 C 0.70957 0.50452 0.55042 0.0
C272 C 0.71417 0.62165 0.57362 0.0
C273 C 0.70758 0.63909 0.5476 0.0
C274 C 0.68924 0.65282 0.55752 0.0
C275 C 0.6767 0.64823 0.59315 0.0
C276 C 0.68283 0.63086 0.61954 0.0
C277 C 0.70149 0.61737 0.60946 0.0
O278 O 0.81354 0.5507 0.55859 0.0
O279 O 0.80736 0.59358 0.54941 0.0
O280 O 0.77774 0.4766 0.50201 0.0
O281 O 0.76574 0.47534 0.55849 0.0
C282 C 0.771 0.46021 0.53235 0.0
O283 O 0.71921 0.52278 0.5799 0.0
O284 O 0.72809 0.51221 0.52151 0.0
O285 O 0.75915 0.6177 0.59087 0.0
O286 O 0.73043 0.58741 0.54492 0.0
H287 H 0.71844 0.64378 0.52054 0.0
H288 H 0.66368 0.66005 0.60092 0.0
H289 H 0.70725 0.60471 0.62983 0.0
O290 O 0.46346 0.22471 0.44846 0.0
Tb291 Tb 0.46315 0.23262 0.50721 0.0
Eu292 Eu 0.43234 0.19882 0.59147 0.0
C293 C 0.43703 0.20898 0.42932 0.0
O294 O 0.40946 0.19636 0.4463 0.0
C295 C 0.41032 0.23888 0.54409 0.0
O296 O 0.43698 0.20016 0.65323 0.0
C297 C 0.38887 0.14166 0.57059 0.0
C298 C 0.45564 0.22787 0.66893 0.0
O299 O 0.47065 0.25326 0.64788 0.0
C300 C 0.4928 0.20215 0.55394 0.0
C301 C 0.37831 0.10767 0.5786 0.0
C302 C 0.36706 0.08478 0.54999 0.0
C303 C 0.35501 0.05227 0.55814 0.0
C304 C 0.35389 0.04279 0.59478 0.0
C305 C 0.36448 0.06497 0.62361 0.0
C306 C 0.37707 0.09746 0.61527 0.0
O307 O 0.41602 0.22624 0.51529 0.0
O308 O 0.42223 0.23814 0.57633 0.0
O309 O 0.49824 0.28045 0.48871 0.0
O310 O 0.49417 0.27064 0.54605 0.0
C311 C 0.50935 0.29243 0.52101 0.0
O312 O 0.4829 0.20911 0.58434 0.0
O313 O 0.47774 0.19873 0.52273 0.0
O314 O 0.38491 0.15771 0.59716 0.0
O315 O 0.41585 0.1587 0.55278 0.0
H316 H 0.36738 0.09214 0.52173 0.0
H317 H 0.34346 0.01758 0.60087 0.0
H318 H 0.3854 0.11475 0.63745 0.0
O319 O 0.76403 0.2081 0.4597 0.0
Tb320 Tb 0.75925 0.21736 0.51709 0.0
Eu321 Eu 0.84372 0.23885 0.58125 0.0
C322 C 0.76137 0.22673 0.43543 0.0
O323 O 0.75514 0.24853 0.44745 0.0
C324 C 0.7812 0.17608 0.55365 0.0
O325 O 0.8382 0.23471 0.64279 0.0
C326 C 0.90324 0.26182 0.56378 0.0
C327 C 0.81253 0.2319 0.65837 0.0
O328 O 0.79021 0.23144 0.6375 0.0
C329 C 0.81258 0.27848 0.55002 0.0
C330 C 0.93593 0.28764 0.57262 0.0
C331 C 0.95929 0.29903 0.54472 0.0
C332 C 0.99142 0.3199 0.55349 0.0
C333 C 1.0 0.32965 0.58996 0.0
C334 C 0.97735 0.31805 0.61824 0.0
C335 C 0.94511 0.2976 0.60938 0.0
O336 O 0.76792 0.19301 0.56129 0.0
O337 O 0.81225 0.18922 0.5573 0.0
O338 O 0.70756 0.19159 0.51671 0.0
O339 O 0.73231 0.24084 0.53207 0.0
C340 C 0.70431 0.21544 0.52717 0.0
O341 O 0.82854 0.27621 0.57807 0.0
O342 O 0.80593 0.25928 0.52194 0.0
O343 O 0.88846 0.2402 0.58946 0.0
O344 O 0.88437 0.2692 0.54565 0.0
H345 H 0.95277 0.29037 0.51673 0.0
H346 H 0.02496 0.34534 0.59661 0.0
H347 H 0.92757 0.28791 0.63125 0.0
H348 H 0.35275 0.99543 0.99544 0.0
H349 H 0.36607 0.16498 0.02708 0.0
H350 H 0.28644 0.02114 0.95148 0.0
H351 H 0.43899 0.14342 0.05782 0.0
H352 H 0.33112 0.10886 0.01072 0.0
H353 H 0.37855 0.04548 0.03065 0.0
C354 C 0.343 0.01116 0.99428 0.0
C355 C 0.31744 1.00428 0.97084 0.0
C356 C 0.35467 0.11638 0.02141 0.0
C357 C 0.34716 0.06176 0.00989 0.0
C358 C 0.37464 0.14844 0.03079 0.0
C359 C 0.40576 0.15913 0.04325 0.0
C360 C 0.36582 0.09478 0.02463 0.0
C361 C 0.41541 0.13645 0.04774 0.0
C362 C 0.35789 0.03986 0.01397 0.0
C363 C 0.30603 0.02566 0.96953 0.0
N364 N 0.39565 0.10548 0.03813 0.0
N365 N 0.32117 0.0536 0.98841 0.0
H366 H 0.88585 0.22488 0.04662 0.0
H367 H 0.02846 0.39245 0.97491 0.0
H368 H 0.88084 0.31044 0.03207 0.0
H369 H 0.03084 0.3051 0.9691 0.0
H370 H 0.9793 0.3649 0.01092 0.0
H371 H 0.94319 0.2557 0.03235 0.0
C372 C 0.89694 0.25022 0.04119 0.0
C373 C 0.87855 0.26507 0.04 0.0
C374 C 0.99085 0.35181 0.00253 0.0
C375 C 0.94377 0.30032 0.02383 0.0
C376 C 0.01906 0.36767 0.98234 0.0
C377 C 0.03368 0.35101 0.96951 0.0
C378 C 0.97684 0.31889 0.00934 0.0
C379 C 0.02031 0.31874 0.97903 0.0
C380 C 0.92957 0.26775 0.03288 0.0
C381 C 0.89403 0.29793 0.03269 0.0
N382 N 0.99235 0.30354 0.99799 0.0
N383 N 0.92557 0.31433 0.02467 0.0
H384 H 0.72773 0.56698 0.99285 0.0
H385 H 0.69152 0.7059 0.99013 0.0
H386 H 0.7664 0.63676 0.07991 0.0
H387 H 0.62296 0.6107 0.95483 0.0
H388 H 0.72019 0.68407 0.02416 0.0
H389 H 0.691 0.58547 0.97696 0.0
C390 C 0.72838 0.58622 0.0087 0.0
C391 C 0.75017 0.60049 0.03759 0.0
C392 C 0.69837 0.66794 0.00979 0.0
C393 C 0.70835 0.62214 0.01923 0.0
C394 C 0.68188 0.68033 0.99063 0.0
C395 C 0.65504 0.66008 0.96932 0.0
C396 C 0.68806 0.63526 0.007 0.0
C397 C 0.64378 0.62718 0.97053 0.0
C398 C 0.70725 0.59661 -0.0002 0.0
C399 C 0.74986 0.62516 0.05745 0.0
N400 N 0.66069 0.61591 0.98829 0.0
N401 N 0.72961 0.63569 0.04747 0.0
H402 H 0.15899 0.43124 0.41732 0.0
H403 H 0.03105 0.29638 0.55067 0.0
H404 H 0.18217 0.39322 0.51215 0.0
H405 H 0.01222 0.36489 0.49842 0.0
H406 H 0.08291 0.32086 0.52008 0.0
H407 H 0.10197 0.39736 0.43229 0.0
C408 C 0.15205 0.41545 0.44092 0.0
C409 C 0.17524 0.41512 0.46373 0.0
C410 C 0.06716 0.3301 0.51458 0.0
C411 C 0.11056 0.37617 0.48036 0.0
C412 C 0.0375 0.31594 0.53167 0.0
C413 C 0.01746 0.32862 0.5268 0.0
C414 C 0.07693 0.35721 0.49248 0.0
C415 C 0.027 0.35433 0.50247 0.0
C416 C 0.11964 0.39629 0.44945 0.0
C417 C 0.16508 0.39441 0.49405 0.0
N418 N 0.05635 0.36811 0.48642 0.0
N419 N 0.13354 0.37574 0.50141 0.0
H420 H 0.71424 0.71592 0.56905 0.0
H421 H 0.61246 0.73788 0.41028 0.0
H422 H 0.65681 0.64135 0.49191 0.0
H423 H 0.65811 0.80304 0.50062 0.0
H424 H 0.636 0.70625 0.43177 0.0
H425 H 0.70213 0.75223 0.53574 0.0
C426 C 0.69947 0.70744 0.54459 0.0
C427 C 0.68635 0.6757 0.53319 0.0
C428 C 0.64113 0.72769 0.44655 0.0
C429 C 0.67173 0.71685 0.49527 0.0
C430 C 0.62785 0.74583 0.43423 0.0
C431 C 0.63313 0.77299 0.4539 0.0
C432 C 0.66003 0.73702 0.47852 0.0
C433 C 0.65313 0.78211 0.48481 0.0
C434 C 0.69241 0.72807 0.52568 0.0
C435 C 0.66737 0.66575 0.50141 0.0
N436 N 0.66567 0.76412 0.49622 0.0
N437 N 0.66025 0.68619 0.48372 0.0
H438 H 0.31011 0.86957 0.48657 0.0
H439 H 0.29631 0.02306 0.52527 0.0
H440 H 0.22596 0.87285 0.45663 0.0
H441 H 0.38401 0.02162 0.53042 0.0
H442 H 0.2707 0.97057 0.49482 0.0
H443 H 0.33787 0.92661 0.49849 0.0
C444 C 0.29744 0.88237 0.48239 0.0
C445 C 0.26548 0.86624 0.47099 0.0
C446 C 0.29578 0.98213 0.50162 0.0
C447 C 0.29735 0.93219 0.48496 0.0
C448 C 0.31046 0.01224 0.51858 0.0
C449 C 0.34243 0.02683 0.52976 0.0
C450 C 0.31312 0.9664 0.49647 0.0
C451 C 0.35947 0.01137 0.52168 0.0
C452 C 0.31342 0.91511 0.48903 0.0
C453 C 0.25056 0.88431 0.46548 0.0
N454 N 0.34455 0.98192 0.506 0.0
N455 N 0.26646 0.91626 0.47308 0.0
H456 H 0.56994 0.86948 0.93239 0.0
H457 H 0.73206 0.01308 0.01338 0.0
H458 H 0.65262 0.86141 0.9562 0.0
H459 H 0.64327 0.01244 0.00846 0.0
H460 H 0.70741 0.96239 0.9794 0.0
H461 H 0.60028 0.9259 0.94781 0.0
C462 C 0.59458 0.87956 0.94063 0.0
C463 C 0.60857 0.8604 0.94346 0.0
C464 C 0.69355 0.97374 0.9849 0.0
C465 C 0.64363 0.92549 0.96124 0.0
C466 C 0.70774 1.00285 0.00378 0.0
C467 C 0.68971 0.01702 0.01316 0.0
C468 C 0.6611 0.95878 0.97551 0.0
C469 C 0.65803 1.00242 0.00121 0.0
C470 C 0.61193 0.91192 0.94941 0.0
C471 C 0.64076 0.87514 0.95388 0.0
N472 N 0.64465 0.97397 0.9833 0.0
N473 N 0.65712 0.90675 0.96274 0.0
H474 H 0.13471 0.79268 0.95174 0.0
H475 H 0.99479 0.62914 0.03603 0.0
H476 H 0.14317 0.71132 0.98214 0.0
H477 H 0.98969 0.71509 0.03128 0.0
H478 H 0.04433 0.65562 0.00068 0.0
H479 H 0.07751 0.76178 0.96678 0.0
C480 C 0.12446 0.76823 0.96102 0.0
C481 C 0.14377 0.75468 0.96626 0.0
C482 C 0.03212 0.66859 0.00662 0.0
C483 C 0.07868 0.71928 0.98302 0.0
C484 C 1.00369 0.65333 0.02642 0.0
C485 C 0.98821 0.66996 0.03616 0.0
C486 C 0.04547 0.70094 0.99706 0.0
C487 C 1.0009 0.70146 0.02379 0.0
C488 C 0.09191 0.75067 0.96967 0.0
C489 C 0.12931 0.72292 0.97833 0.0
N490 N 0.02912 0.71617 0.00528 0.0
N491 N 0.09779 0.70643 0.98641 0.0
H492 H 0.30593 0.3222 0.09 0.0
H493 H 0.28514 0.42026 0.92565 0.0
H494 H 0.37591 0.36666 0.00409 0.0
H495 H 0.23246 0.39487 0.02768 0.0
H496 H 0.31281 0.39243 0.94672 0.0
H497 H 0.27234 0.3392 0.05933 0.0
C498 C 0.31396 0.33523 0.06429 0.0
C499 C 0.34379 0.34343 0.04969 0.0
C500 C 0.29499 0.39279 0.96425 0.0
C501 C 0.30572 0.36344 0.01461 0.0
C502 C 0.27914 0.40855 0.95225 0.0
C503 C 0.25666 0.4101 0.9751 0.0
C504 C 0.28792 0.37818 0.99908 0.0
C505 C 0.24984 0.39458 0.00929 0.0
C506 C 0.29487 0.34505 0.04686 0.0
C507 C 0.35304 0.36002 0.01616 0.0
N508 N 0.26542 0.37937 0.02021 0.0
N509 N 0.3342 0.36991 -0.00012 0.0
H510 H 0.87085 0.56325 0.55829 0.0
H511 H 1.00994 0.72502 0.47092 0.0
H512 H 0.86075 0.64454 0.53247 0.0
H513 H 0.01717 0.64125 0.48906 0.0
H514 H 0.95892 0.69953 0.50374 0.0
H515 H 0.9272 0.59446 0.54249 0.0
C516 C 0.88048 0.58776 0.54954 0.0
C517 C 0.8608 0.60113 0.54635 0.0
C518 C 0.97196 0.68696 0.50139 0.0
C519 C 0.92569 0.63715 0.52811 0.0
C520 C 1.00125 0.70168 0.48311 0.0
C521 C 0.01789 0.68535 0.47796 0.0
C522 C 0.95903 0.65548 0.51417 0.0
C523 C 1.00526 0.65478 0.49313 0.0
C524 C 0.91277 0.6056 0.54055 0.0
C525 C 0.87487 0.63313 0.53513 0.0
N526 N 0.97641 0.64068 0.51023 0.0
N527 N 0.90635 0.64994 0.52613 0.0
H528 H 0.418 0.29089 0.58269 0.0
H529 H 0.29423 0.3119 0.45752 0.0
H530 H 0.36459 0.22808 0.49327 0.0
H531 H 0.37934 0.39263 0.50027 0.0
H532 H 0.30884 0.27609 0.48834 0.0
H533 H 0.39376 0.32366 0.56868 0.0
C534 C 0.40075 0.28367 0.56059 0.0
C535 C 0.39338 0.25683 0.53895 0.0
C536 C 0.32383 0.30163 0.4919 0.0
C537 C 0.36531 0.29375 0.52335 0.0
C538 C 0.31527 0.32201 0.47483 0.0
C539 C 0.33538 0.35517 0.47694 0.0
C540 C 0.35268 0.31452 0.51134 0.0
C541 C 0.36296 0.36717 0.49862 0.0
C542 C 0.38707 0.30242 0.55257 0.0
C543 C 0.37109 0.2487 0.51045 0.0
N544 N 0.37099 0.34684 0.51481 0.0
N545 N 0.35782 0.26704 0.50352 0.0
H546 H 0.70916 0.98378 0.47091 0.0
H547 H 0.71705 0.14379 0.54157 0.0
H548 H 0.63401 1.00517 0.45564 0.0
H549 H 0.79943 0.13238 0.53588 0.0
H550 H 0.68394 0.0893 0.51977 0.0
H551 H 0.73944 0.03351 0.50603 0.0
C552 C 0.6986 0.99843 0.47611 0.0
C553 C 0.66905 0.99043 0.46063 0.0
C554 C 0.70924 0.09864 0.5233 0.0
C555 C 0.7037 0.0475 0.49971 0.0
C556 C 0.72827 0.1299 0.53559 0.0
C557 C 0.76123 0.14294 0.54007 0.0
C558 C 0.72311 0.08 0.51553 0.0
C559 C 0.7742 0.12344 0.53244 0.0
C560 C 0.71604 0.02699 0.49564 0.0
C561 C 0.65667 0.01051 0.46735 0.0
N562 N 0.75512 0.09295 0.52043 0.0
N563 N 0.67415 0.03824 0.48611 0.0
H564 H 0.3764 0.30471 0.19454 0.0
H565 H 0.36666 0.43268 0.32546 0.0
H566 H 0.4056 0.40064 0.15983 0.0
H567 H 0.3374 0.33601 0.35717 0.0
H568 H 0.38457 0.42319 0.26591 0.0
H569 H 0.36788 0.31817 0.2567 0.0
C570 C 0.38181 0.32885 0.2002 0.0
C571 C 0.39146 0.35147 0.17183 0.0
C572 C 0.37443 0.40418 0.28609 0.0
C573 C 0.38081 0.36687 0.24277 0.0
C574 C 0.36401 0.40953 0.31993 0.0
C575 C 0.35085 0.38527 0.34655 0.0
C576 C 0.37145 0.37428 0.27881 0.0
C577 C 0.34803 0.3557 0.33789 0.0
C578 C 0.37653 0.33645 0.23563 0.0
C579 C 0.39769 0.38231 0.18078 0.0
N580 N 0.3582 0.35109 0.30493 0.0
N581 N 0.39188 0.38899 0.2153 0.0
H582 H 0.6827 0.98854 0.13216 0.0
H583 H 0.69342 0.0172 0.3425 0.0
H584 H 0.69699 0.07841 0.17362 0.0
H585 H 0.61712 0.92817 0.29932 0.0
H586 H 0.7027 0.03994 0.28111 0.0
H587 H 0.66603 0.96565 0.19322 0.0
C588 C 0.68188 1.0035 0.1537 0.0
C589 C 0.69089 0.03561 0.14704 0.0
C590 C 0.68374 0.01554 0.28529 0.0
C591 C 0.67322 0.00941 0.21781 0.0
C592 C 0.67808 1.00242 0.32048 0.0
C593 C 0.65381 0.97062 0.32679 0.0
C594 C 0.66593 0.99659 0.25565 0.0
C595 C 0.63619 0.9526 0.29615 0.0
C596 C 0.67254 0.99027 0.1887 0.0
C597 C 0.69066 0.05377 0.1771 0.0
N598 N 0.64283 0.96574 0.26183 0.0
N599 N 0.68232 0.04051 0.21126 0.0
H600 H 1.00013 0.63673 0.15749 0.0
H601 H 1.00671 0.70997 0.35703 0.0
H602 H 0.93712 0.66998 0.19266 0.0
H603 H 0.07186 0.67917 0.32286 0.0
H604 H 0.98125 0.69542 0.29675 0.0
H605 H 0.02596 0.65077 0.21786 0.0
C606 C 0.99159 0.64683 0.17799 0.0
C607 C 0.96648 0.65235 0.16982 0.0
C608 C 1.00114 0.69186 0.30224 0.0
C609 C 0.9961 0.66855 0.23914 0.0
C610 C 0.01573 0.70019 0.33669 0.0
C611 C 0.04126 0.69546 0.34512 0.0
C612 C 0.01204 0.67862 0.27571 0.0
C613 C 0.05228 0.68324 0.31749 0.0
C614 C 1.0064 0.65486 0.21246 0.0
C615 C 0.95616 0.66503 0.19771 0.0
N616 N 0.03746 0.67502 0.28406 0.0
N617 N 0.97112 0.67286 0.23097 0.0
H618 H 0.71788 0.6401 0.68228 0.0
H619 H 0.59729 0.66206 0.81291 0.0
H620 H 0.62623 0.62322 0.64537 0.0
H621 H 0.68762 0.67453 0.8483 0.0
H622 H 0.60642 0.64674 0.75154 0.0
H623 H 0.70528 0.64948 0.74434 0.0
C624 C 0.69481 0.63769 0.68734 0.0
C625 C 0.67318 0.63102 0.65842 0.0
C626 C 0.62415 0.65273 0.77285 0.0
C627 C 0.6589 0.64272 0.72945 0.0
C628 C 0.61904 0.6617 0.80772 0.0
C629 C 0.64155 0.66925 0.83584 0.0
C630 C 0.65206 0.65157 0.76609 0.0
C631 C 0.66932 0.66831 0.82767 0.0
C632 C 0.68776 0.64345 0.72277 0.0
C633 C 0.64384 0.62877 0.6667 0.0
N634 N 0.67374 0.65962 0.79369 0.0
N635 N 0.63768 0.6349 0.70133 0.0
H636 H 0.34312 0.08456 0.68217 0.0
H637 H 0.32911 0.94816 0.81917 0.0
H638 H 0.37416 0.01831 0.65313 0.0
H639 H 0.30102 0.01689 0.84683 0.0
H640 H 0.34549 0.97282 0.75794 0.0
H641 H 0.32924 0.06081 0.74346 0.0
C642 C 0.34751 0.06536 0.68885 0.0
C643 C 0.35972 0.05337 0.66234 0.0
C644 C 0.33574 0.98246 0.77747 0.0
C645 C 0.3431 0.02542 0.73238 0.0
C646 C 0.32617 0.96823 0.81224 0.0
C647 C 0.314 0.98069 0.83821 0.0
C648 C 0.33291 0.00918 0.76867 0.0
C649 C 0.31081 1.00686 0.8279 0.0
C650 C 0.33924 0.05153 0.72377 0.0
C651 C 0.36436 0.02802 0.67251 0.0
N652 N 0.32027 0.02023 0.79407 0.0
N653 N 0.35589 0.01478 0.70662 0.0
H654 H 0.02505 0.31202 0.64856 0.0
H655 H 0.01905 0.38159 0.84627 0.0
H656 H 0.95556 0.33905 0.67589 0.0
H657 H 0.08749 0.35418 0.81469 0.0
H658 H 0.99533 0.36685 0.78469 0.0
H659 H 0.04739 0.3271 0.7101 0.0
C660 C 0.0145 0.32121 0.66765 0.0
C661 C 0.98869 0.32473 0.65695 0.0
C662 C 0.01563 0.36424 0.79123 0.0
C663 C 0.0142 0.34204 0.72793 0.0
C664 C 0.0292 0.37263 0.82636 0.0
C665 C 0.05536 0.36914 0.83574 0.0
C666 C 0.02826 0.35219 0.76528 0.0
C667 C 0.06769 0.35774 0.80867 0.0
C668 C 0.02726 0.3298 0.70286 0.0
C669 C 0.97551 0.33605 0.68307 0.0
N670 N 0.05397 0.34958 0.77485 0.0
N671 N 0.98856 0.34453 0.71739 0.0
H672 H 0.58059 0.24648 0.09755 0.0
H673 H 0.70732 0.21444 0.99397 0.0
H674 H 0.58966 0.24452 0.97961 0.0
H675 H 0.69373 0.20526 0.11176 0.0
H676 H 0.66811 0.23131 0.98959 0.0
H677 H 0.62572 0.23737 0.10465 0.0
C678 C 0.59235 0.24453 0.0732 0.0
C679 C 0.58135 0.24608 0.03794 0.0
C680 C 0.67366 0.22571 0.01648 0.0
C681 C 0.63266 0.23555 0.04577 0.0
C682 C 0.69613 0.21603 0.01903 0.0
C683 C 0.70376 0.20823 0.0533 0.0
C684 C 0.65835 0.22749 0.0484 0.0
C685 C 0.68848 0.21093 0.08476 0.0
C686 C 0.61796 0.2392 0.07725 0.0
C687 C 0.59729 0.24332 0.00729 0.0
N688 N 0.66636 0.2202 0.08155 0.0
N689 N 0.622 0.23808 0.01192 0.0
H690 H 0.78546 0.32493 0.09292 0.0
H691 H 0.81525 0.48596 0.99757 0.0
H692 H 0.76655 0.3324 0.97839 0.0
H693 H 0.80818 0.47377 0.11564 0.0
H694 H 0.80109 0.43049 0.99073 0.0
H695 H 0.79599 0.37954 0.10282 0.0
C696 C 0.78312 0.33792 0.07 0.0
C697 C 0.77521 0.32422 0.03476 0.0
C698 C 0.80263 0.43986 0.01819 0.0
C699 C 0.78778 0.38667 0.04567 0.0
C700 C 0.81098 0.47172 0.02217 0.0
C701 C 0.81301 0.48469 0.0573 0.0
C702 C 0.79653 0.42066 0.04952 0.0
C703 C 0.80693 0.4648 0.08804 0.0
C704 C 0.78922 0.36907 0.07563 0.0
C705 C 0.77261 0.34206 0.00599 0.0
N706 N 0.79907 0.43378 0.08346 0.0
N707 N 0.77917 0.37241 0.012 0.0
H708 H 0.70051 0.43203 0.99097 0.0
H709 H 0.53817 0.35533 0.10703 0.0
H710 H 0.68857 0.47947 0.08472 0.0
H711 H 0.55426 0.31271 0.01138 0.0
H712 H 0.59385 0.39922 0.10338 0.0
H713 H 0.64779 0.38632 0.00195 0.0
C714 C 0.68674 0.43273 0.01402 0.0
C715 C 0.69877 0.4596 0.03683 0.0
C716 C 0.58512 0.38013 0.08334 0.0
C717 C 0.63799 0.40724 0.04957 0.0
C718 C 0.55341 0.35508 0.08546 0.0
C719 C 0.54141 0.33057 0.05911 0.0
C720 C 0.60484 0.3804 0.05483 0.0
C721 C 0.5622 0.33136 0.03184 0.0
C722 C 0.65657 0.40659 0.02032 0.0
C723 C 0.68002 0.45916 0.06646 0.0
N724 N 0.59271 0.35583 0.03036 0.0
N725 N 0.65037 0.43343 0.07187 0.0
H726 H 0.22243 0.69571 0.50642 0.0
H727 H 0.24233 0.55923 0.40633 0.0
H728 H 0.2079 0.6787 0.38953 0.0
H729 H 0.26013 0.58363 0.52144 0.0
H730 H 0.2301 0.60243 0.39796 0.0
H731 H 0.23685 0.65471 0.51087 0.0
C732 C 0.22234 0.68341 0.48153 0.0
C733 C 0.21395 0.69086 0.44751 0.0
C734 C 0.23678 0.59832 0.42498 0.0
C735 C 0.23033 0.64302 0.4525 0.0
C736 C 0.24375 0.57369 0.42975 0.0
C737 C 0.2522 0.56777 0.46466 0.0
C738 C 0.23826 0.61704 0.45537 0.0
C739 C 0.25367 0.58722 0.49405 0.0
C740 C 0.23061 0.65983 0.48411 0.0
C741 C 0.21427 0.67383 0.41633 0.0
N742 N 0.24675 0.61078 0.48875 0.0
N743 N 0.22221 0.65062 0.41956 0.0
H744 H 0.49469 0.70637 0.40273 0.0
H745 H 0.3741 0.53915 0.49763 0.0
H746 H 0.49374 0.68585 0.51845 0.0
H747 H 0.36153 0.56223 0.38633 0.0
H748 H 0.42357 0.58996 0.50185 0.0
H749 H 0.45108 0.65132 0.39282 0.0
C750 C 0.4855 0.69016 0.42593 0.0
C751 C 0.49763 0.70057 0.46148 0.0
C752 C 0.41019 0.58391 0.47635 0.0
C753 C 0.4481 0.6379 0.45042 0.0
C754 C 0.38191 0.55479 0.47386 0.0
C755 C 0.36339 0.54654 0.44169 0.0
C756 C 0.42018 0.60522 0.44654 0.0
C757 C 0.375 0.56768 0.41169 0.0
C758 C 0.46062 0.65885 0.42029 0.0
C759 C 0.48494 0.67878 0.49064 0.0
N760 N 0.40254 0.59627 0.41496 0.0
N761 N 0.46085 0.64855 0.48448 0.0
H762 H 0.50547 0.85371 0.46764 0.0
H763 H 0.32454 0.72788 0.47385 0.0
H764 H 0.47225 0.7663 0.4068 0.0
H765 H 0.35288 0.82424 0.44216 0.0
H766 H 0.37942 0.73965 0.46238 0.0
H767 H 0.45005 0.84221 0.47209 0.0
C768 C 0.48652 0.83227 0.45506 0.0
C769 C 0.49332 0.81112 0.43642 0.0
C770 C 0.3734 0.75804 0.45772 0.0
C771 C 0.43035 0.79735 0.44259 0.0
C772 C 0.34227 0.75138 0.46424 0.0
C773 C 0.3343 0.77509 0.45864 0.0
C774 C 0.39677 0.78889 0.44691 0.0
C775 C 0.35809 0.80525 0.44641 0.0
C776 C 0.45509 0.82576 0.45756 0.0
C777 C 0.46796 0.78344 0.42088 0.0
N778 N 0.38845 0.81151 0.44155 0.0
N779 N 0.43747 0.77706 0.4248 0.0
H780 H 0.31966 0.81313 0.00367 0.0
H781 H 0.43825 0.77112 0.89745 0.0
H782 H 0.32643 0.81391 0.8851 0.0
H783 H 0.43113 0.77376 0.01561 0.0
H784 H 0.39437 0.78219 0.89145 0.0
H785 H 0.35778 0.79481 0.00767 0.0
C786 C 0.32919 0.80947 0.97838 0.0
C787 C 0.31985 0.8152 0.94396 0.0
C788 C 0.40223 0.78005 0.91867 0.0
C789 C 0.36393 0.79418 0.94841 0.0
C790 C 0.42713 0.77358 0.92209 0.0
C791 C 0.43837 0.77169 0.95708 0.0
C792 C 0.38856 0.78463 0.9505 0.0
C793 C 0.42327 0.77516 0.98811 0.0
C794 C 0.35098 0.79891 0.98071 0.0
C795 C 0.33302 0.80989 0.91221 0.0
N796 N 0.39932 0.78164 0.98409 0.0
N797 N 0.3545 0.79978 0.91519 0.0
H798 H 0.26544 0.69477 0.01157 0.0
H799 H 0.21294 0.54738 0.87665 0.0
H800 H 0.23169 0.6967 0.90221 0.0
H801 H 0.20067 0.53927 0.99472 0.0
H802 H 0.22859 0.60415 0.88129 0.0
H803 H 0.25316 0.64007 0.00103 0.0
C804 C 0.25588 0.68382 0.9851 0.0
C805 C 0.24926 0.7001 0.95785 0.0
C806 C 0.22224 0.58969 0.90599 0.0
C807 C 0.23495 0.63742 0.94569 0.0
C808 C 0.21322 0.55737 0.9034 0.0
C809 C 0.20542 0.53848 0.93532 0.0
C810 C 0.22413 0.60315 0.9408 0.0
C811 C 0.20635 0.55272 0.9693 0.0
C812 C 0.24865 0.65253 0.9792 0.0
C813 C 0.23697 0.6848 0.92397 0.0
N814 N 0.21585 0.58417 0.97114 0.0
N815 N 0.23002 0.65412 0.91883 0.0
H816 H 0.32254 0.58338 0.01543 0.0
H817 H 0.47971 0.6644 0.88974 0.0
H818 H 0.3276 0.54205 0.91238 0.0
H819 H 0.47015 0.69964 0.99526 0.0
H820 H 0.42405 0.62059 0.89481 0.0
H821 H 0.37635 0.62744 0.00571 0.0
C822 C 0.33504 0.58363 0.99063 0.0
C823 C 0.32066 0.55896 0.96477 0.0
C824 C 0.43425 0.638 0.91674 0.0
C825 C 0.3828 0.60958 0.95337 0.0
C826 C 0.46597 0.66298 0.91387 0.0
C827 C 0.47975 0.68565 0.94221 0.0
C828 C 0.41628 0.63586 0.94809 0.0
C829 C 0.4608 0.68268 0.9728 0.0
C830 C 0.36587 0.60886 0.98506 0.0
C831 C 0.33794 0.56065 0.93303 0.0
N832 N 0.43024 0.65836 0.97486 0.0
N833 N 0.36825 0.58551 0.92825 0.0
H834 H 0.77083 0.43 0.5964 0.0
H835 H 0.79323 0.29809 0.49025 0.0
H836 H 0.77552 0.42414 0.47828 0.0
H837 H 0.81158 0.31588 0.60662 0.0
H838 H 0.77938 0.33966 0.48715 0.0
H839 H 0.77859 0.38385 0.60232 0.0
C840 C 0.77313 0.41876 0.57175 0.0
C841 C 0.77262 0.43084 0.53679 0.0
C842 C 0.78632 0.33449 0.51345 0.0
C843 C 0.78148 0.37837 0.54331 0.0
C844 C 0.79408 0.31057 0.51529 0.0
C845 C 0.8035 0.30338 0.54877 0.0
C846 C 0.78794 0.35158 0.54532 0.0
C847 C 0.80455 0.32074 0.5802 0.0
C848 C 0.77772 0.3926 0.57515 0.0
C849 C 0.77586 0.4156 0.50575 0.0
N850 N 0.79687 0.34409 0.57773 0.0
N851 N 0.78017 0.39022 0.50974 0.0
H852 H 0.54169 0.33768 0.4693 0.0
H853 H 0.66882 0.46979 0.60736 0.0
H854 H 0.53876 0.32154 0.58641 0.0
H855 H 0.67766 0.47215 0.48899 0.0
H856 H 0.61805 0.41889 0.60205 0.0
H857 H 0.58815 0.39045 0.47784 0.0
C858 C 0.55078 0.34535 0.49693 0.0
C859 C 0.53643 0.32513 0.52716 0.0
C860 C 0.63112 0.43074 0.57732 0.0
C861 C 0.59005 0.38586 0.53727 0.0
C862 C 0.65997 0.45984 0.58031 0.0
C863 C 0.67762 0.47525 0.54859 0.0
C864 C 0.61977 0.41727 0.54235 0.0
C865 C 0.6651 0.46115 0.51427 0.0
C866 C 0.57742 0.37554 0.50181 0.0
C867 C 0.54921 0.33642 0.56235 0.0
N868 N 0.63711 0.43312 0.51213 0.0
N869 N 0.57542 0.36605 0.56648 0.0
H870 H 0.64696 0.16841 0.50299 0.0
H871 H 0.54318 0.23179 0.60175 0.0
H872 H 0.69084 0.25726 0.56283 0.0
H873 H 0.51182 0.17294 0.50431 0.0
H874 H 0.59527 0.23536 0.59636 0.0
H875 H 0.59502 0.16398 0.51141 0.0
C876 C 0.64561 0.18699 0.51798 0.0
C877 C 0.67317 0.2133 0.53215 0.0
C878 C 0.57687 0.22157 0.57633 0.0
C879 C 0.61374 0.20813 0.54232 0.0
C880 C 0.5471 0.21927 0.57955 0.0
C881 C 0.52314 0.20199 0.55344 0.0
C882 C 0.58243 0.20597 0.54723 0.0
C883 C 0.52962 0.18656 0.52498 0.0
C884 C 0.61599 0.18446 0.5227 0.0
C885 C 0.6701 0.23669 0.55134 0.0
N886 N 0.55858 0.1888 0.52273 0.0
N887 N 0.64081 0.23347 0.5561 0.0
H888 H 0.42879 0.18061 0.72156 0.0
H889 H 0.51801 0.30227 0.88761 0.0
H890 H 0.49227 0.28198 0.70867 0.0
H891 H 0.45483 0.20138 0.90488 0.0
H892 H 0.50759 0.29452 0.8219 0.0
H893 H 0.4369 0.18691 0.78847 0.0
C894 C 0.4444 0.20416 0.73275 0.0
C895 C 0.4599 0.23081 0.70943 0.0
C896 C 0.4959 0.27399 0.83993 0.0
C897 C 0.46923 0.23815 0.78582 0.0
C898 C 0.50185 0.27841 0.8776 0.0
C899 C 0.48733 0.25242 0.90189 0.0
C900 C 0.47527 0.2433 0.82609 0.0
C901 C 0.46655 0.22209 0.88715 0.0
C902 C 0.44899 0.20772 0.77093 0.0
C903 C 0.47982 0.26073 0.72547 0.0
N904 N 0.46118 0.21833 0.85014 0.0
N905 N 0.48389 0.26354 0.76254 0.0
H906 H 0.76588 0.23253 0.69986 0.0
H907 H 0.83485 0.21288 0.89222 0.0
H908 H 0.85117 0.22641 0.70921 0.0
H909 H 0.76192 0.2384 0.88324 0.0
H910 H 0.83802 0.21272 0.825 0.0
H911 H 0.76101 0.22983 0.76692 0.0
C912 C 0.78355 0.23054 0.71599 0.0
C913 C 0.80902 0.22977 0.69889 0.0
C914 C 0.8213 0.21831 0.83776 0.0
C915 C 0.80353 0.22658 0.77568 0.0
C916 C 0.8194 0.21831 0.87613 0.0
C917 C 0.79815 0.22576 0.89339 0.0
C918 C 0.80164 0.22559 0.81648 0.0
C919 C 0.77874 0.23265 0.87113 0.0
C920 C 0.78078 0.22906 0.7543 0.0
C921 C 0.83121 0.22719 0.72122 0.0
N922 N 0.78095 0.23238 0.83385 0.0
N923 N 0.82793 0.22565 0.75846 0.0
H924 H 0.81945 0.61619 0.8827 0.0
H925 H 0.76686 0.50582 0.70246 0.0
H926 H 0.78038 0.51422 0.88613 0.0
H927 H 0.78947 0.604 0.70206 0.0
H928 H 0.77637 0.50947 0.76894 0.0
H929 H 0.81352 0.61319 0.81571 0.0
C930 C 0.8098 0.59318 0.86939 0.0
C931 C 0.80031 0.5654 0.89017 0.0
C932 C 0.77929 0.53022 0.75429 0.0
C933 C 0.79341 0.56181 0.81333 0.0
C934 C 0.77392 0.52818 0.71629 0.0
C935 C 0.77727 0.55462 0.69659 0.0
C936 C 0.78829 0.55898 0.77278 0.0
C937 C 0.78647 0.58296 0.71607 0.0
C938 C 0.80632 0.59148 0.83111 0.0
C939 C 0.78792 0.53626 0.8713 0.0
N940 N 0.79166 0.58439 0.75302 0.0
N941 N 0.78481 0.53523 0.834 0.0
H942 H 0.24798 0.41706 0.60888 0.0
H943 H 0.28557 0.5193 0.7936 0.0
H944 H 0.29615 0.51999 0.61012 0.0
H945 H 0.21086 0.42076 0.78498 0.0
H946 H 0.29754 0.5187 0.72825 0.0
H947 H 0.2426 0.41687 0.67594 0.0
C948 C 0.25778 0.43961 0.6233 0.0
C949 C 0.27227 0.46858 0.60398 0.0
C950 C 0.2786 0.49722 0.74077 0.0
C951 C 0.2662 0.46849 0.68033 0.0
C952 C 0.27177 0.49753 0.77799 0.0
C953 C 0.24703 0.47011 0.79458 0.0
C954 C 0.26081 0.46918 0.72022 0.0
C955 C 0.22995 0.44252 0.77315 0.0
C956 C 0.25453 0.43946 0.66147 0.0
C957 C 0.28452 0.49711 0.62397 0.0
N958 N 0.23718 0.44274 0.73702 0.0
N959 N 0.28113 0.49635 0.6611 0.0
H960 H 0.50399 0.79454 0.61626 0.0
H961 H 0.6035 0.7801 0.78368 0.0
H962 H 0.59662 0.804 0.60344 0.0
H963 H 0.5159 0.78111 0.79794 0.0
H964 H 0.60151 0.78903 0.71766 0.0
H965 H 0.50816 0.79017 0.68289 0.0
C966 C 0.52531 0.79592 0.62744 0.0
C967 C 0.54995 0.79956 0.60412 0.0
C968 C 0.58278 0.78741 0.73524 0.0
C969 C 0.55477 0.79429 0.68052 0.0
C970 C 0.58387 0.78225 0.77298 0.0
C971 C 0.55979 0.77976 0.79645 0.0
C972 C 0.55733 0.78996 0.72074 0.0
C973 C 0.53497 0.78283 0.78094 0.0
C974 C 0.52766 0.79339 0.66553 0.0
C975 C 0.57701 0.80121 0.62028 0.0
N976 N 0.53433 0.78763 0.7441 0.0
N977 N 0.57861 0.79837 0.6574 0.0
H978 H 0.25256 0.83676 0.78604 0.0
H979 H 0.18215 0.70902 0.62318 0.0
H980 H 0.18544 0.73693 0.80497 0.0
H981 H 0.26694 0.80167 0.61325 0.0
H982 H 0.17948 0.71952 0.6887 0.0
H983 H 0.25402 0.82527 0.72094 0.0
C984 C 0.23798 0.81243 0.77648 0.0
C985 C 0.2189 0.78774 0.80097 0.0
C986 C 0.19871 0.73744 0.67213 0.0
C987 C 0.22054 0.77442 0.72648 0.0
C988 C 0.20025 0.73148 0.63479 0.0
C989 C 0.22481 0.7545 0.61274 0.0
C990 C 0.22167 0.76675 0.68731 0.0
C991 C 0.24763 0.78319 0.62919 0.0
C992 C 0.23896 0.80587 0.73933 0.0
C993 C 0.20056 0.75666 0.78702 0.0
N994 N 0.2454 0.78856 0.66542 0.0
N995 N 0.2018 0.75087 0.75063 0.0
H996 H 0.5405 0.81496 0.08751 0.0
H997 H 0.6336 0.80062 0.26209 0.0
H998 H 0.60745 0.78145 0.08114 0.0
H999 H 0.55916 0.82402 0.27042 0.0
H1000 H 0.6274 0.79773 0.19521 0.0
H1001 H 0.55047 0.82311 0.15373 0.0
C1002 C 0.55752 0.80957 0.09993 0.0
C1003 C 0.57304 0.79733 0.07868 0.0
C1004 C 0.61245 0.80355 0.21163 0.0
C1005 C 0.58443 0.80647 0.15465 0.0
C1006 C 0.61597 0.80521 0.24988 0.0
C1007 C 0.59676 0.81242 0.27199 0.0
C1008 C 0.58959 0.80924 0.1952 0.0
C1009 C 0.57438 0.81823 0.25451 0.0
C1010 C 0.5631 0.81413 0.13782 0.0
C1011 C 0.59482 0.7908 0.09639 0.0
N1012 N 0.57139 0.81646 0.21719 0.0
N1013 N 0.59976 0.79533 0.13331 0.0
H1014 H 0.26935 0.78171 0.11203 0.0
H1015 H 0.18159 0.78708 0.29496 0.0
H1016 H 0.19783 0.8095 0.11337 0.0
H1017 H 0.26631 0.77942 0.29577 0.0
H1018 H 0.18601 0.79352 0.2282 0.0
H1019 H 0.26762 0.77918 0.17918 0.0
C1020 C 0.25337 0.78741 0.12646 0.0
C1021 C 0.23362 0.79574 0.10709 0.0
C1022 C 0.20371 0.79058 0.24299 0.0
C1023 C 0.23141 0.79271 0.18392 0.0
C1024 C 0.20117 0.7868 0.2811 0.0
C1025 C 0.2236 0.78264 0.30094 0.0
C1026 C 0.22872 0.78994 0.22451 0.0
C1027 C 0.2485 0.78257 0.28155 0.0
C1028 C 0.25244 0.78601 0.1648 0.0
C1029 C 0.21347 0.80299 0.12721 0.0
N1030 N 0.2503 0.78601 0.24434 0.0
N1031 N 0.21273 0.8011 0.16456 0.0
H1032 H 0.2254 0.51318 0.10831 0.0
H1033 H 0.24444 0.4303 0.28654 0.0
H1034 H 0.18894 0.41176 0.11544 0.0
H1035 H 0.24752 0.52072 0.29136 0.0
H1036 H 0.22715 0.42447 0.22254 0.0
H1037 H 0.23547 0.51758 0.17462 0.0
C1038 C 0.21914 0.49178 0.12394 0.0
C1039 C 0.20653 0.46208 0.1064 0.0
C1040 C 0.23147 0.44551 0.23764 0.0
C1041 C 0.21847 0.46706 0.18191 0.0
C1042 C 0.24161 0.44901 0.27408 0.0
C1043 C 0.24754 0.47612 0.2942 0.0
C1044 C 0.22767 0.46949 0.22105 0.0
C1045 C 0.24322 0.49947 0.27676 0.0
C1046 C 0.22488 0.49432 0.16173 0.0
C1047 C 0.1987 0.4351 0.1279 0.0
N1048 N 0.23374 0.49573 0.241 0.0
N1049 N 0.20523 0.43831 0.16453 0.0
H1050 H 0.7759 0.59803 0.4138 0.0
H1051 H 0.82363 0.55097 0.22264 0.0
H1052 H 0.81218 0.53339 0.40531 0.0
H1053 H 0.79301 0.62012 0.23185 0.0
H1054 H 0.82083 0.5452 0.28963 0.0
H1055 H 0.78368 0.6078 0.34754 0.0
C1056 C 0.78573 0.58606 0.39808 0.0
C1057 C 0.79325 0.56472 0.41519 0.0
C1058 C 0.8148 0.56171 0.27703 0.0
C1059 C 0.802 0.57563 0.33911 0.0
C1060 C 0.81633 0.56497 0.23872 0.0
C1061 C 0.80841 0.58596 0.22151 0.0
C1062 C 0.80515 0.57947 0.29839 0.0
C1063 C 0.79926 0.60358 0.24387 0.0
C1064 C 0.79012 0.59161 0.36019 0.0
C1065 C 0.80596 0.54996 0.39334 0.0
N1066 N 0.79777 0.59985 0.28108 0.0
N1067 N 0.80974 0.55554 0.35645 0.0
H1068 H 0.38767 0.187 0.38004 0.0
H1069 H 0.501 0.24134 0.20263 0.0
H1070 H 0.48981 0.22925 0.38594 0.0
H1071 H 0.4027 0.21777 0.20027 0.0
H1072 H 0.49586 0.22951 0.26867 0.0
H1073 H 0.39138 0.19041 0.31288 0.0
C1074 C 0.41085 0.19672 0.36723 0.0
C1075 C 0.4385 0.20812 0.38867 0.0
C1076 C 0.47539 0.22678 0.25362 0.0
C1077 C 0.44291 0.21215 0.31182 0.0
C1078 C 0.47828 0.23345 0.21591 0.0
C1079 C 0.45231 0.23079 0.19596 0.0
C1080 C 0.44627 0.21717 0.27141 0.0
C1081 C 0.42344 0.22041 0.21461 0.0
C1082 C 0.41295 0.19876 0.32888 0.0
C1083 C 0.46789 0.22042 0.37052 0.0
N1084 N 0.42123 0.21408 0.25127 0.0
N1085 N 0.46933 0.22224 0.33316 0.0
H1086 H 0.7662 0.26798 0.38165 0.0
H1087 H 0.77696 0.16725 0.21401 0.0
H1088 H 0.76768 0.18065 0.39827 0.0
H1089 H 0.79311 0.26296 0.20428 0.0
H1090 H 0.77194 0.17016 0.28094 0.0
H1091 H 0.77403 0.2648 0.31605 0.0
C1092 C 0.76812 0.24804 0.37149 0.0
C1093 C 0.76619 0.22448 0.39555 0.0
C1094 C 0.77675 0.19054 0.26411 0.0
C1095 C 0.7752 0.22069 0.31998 0.0
C1096 C 0.77961 0.18891 0.22592 0.0
C1097 C 0.78538 0.21489 0.20346 0.0
C1098 C 0.77946 0.21824 0.27984 0.0
C1099 C 0.7886 0.24232 0.22041 0.0
C1100 C 0.77272 0.24631 0.33393 0.0
C1101 C 0.76904 0.19932 0.38069 0.0
N1102 N 0.78545 0.24319 0.25746 0.0
N1103 N 0.77326 0.19799 0.34376 0.0
loop_
_geom_bond_atom_site_label_1
_geom_bond_atom_site_label_2
_geom_bond_distance
_geom_bond_site_symmetry_2
_ccdc_geom_bond_type
O0 Tb1 2.292 1_556 S
O0 C3 1.255 . S
Tb1 O0 2.292 1_554 S
Tb1 O17 2.326 . S
Tb1 O19 2.500 . S
Tb1 O20 2.473 . S
Tb1 O23 2.324 . S
Eu2 O6 2.292 . S
Eu2 C7 2.852 . S
Eu2 O18 2.324 . S
Eu2 O22 2.326 . S
Eu2 O24 2.500 . S
Eu2 O25 2.473 . S
C3 O0 1.255 . S
C3 O4 1.247 . S
O4 C3 1.247 . S
C5 O17 1.242 . S
C5 O18 1.258 . S
O6 Eu2 2.292 . S
O6 C8 1.255 . S
C7 Eu2 2.852 . S
C7 C11 1.503 . S
C7 O24 1.273 . S
C7 O25 1.257 . S
C8 O6 1.255 . S
C8 O9 1.247 . S
O9 C8 1.247 . S
C10 O22 1.242 . S
C10 O23 1.258 . S
C11 C7 1.503 . S
C11 C12 1.379 . S
C11 C16 1.392 . S
C12 C11 1.379 . S
C12 C13 1.404 . S
C12 H26 0.929 . S
C13 C12 1.404 . S
C13 C14 1.389 . S
C14 C13 1.389 . S
C14 C15 1.399 . S
C14 H27 0.931 . S
C15 C14 1.399 . S
C15 C16 1.390 . S
C16 C11 1.392 . S
C16 C15 1.390 . S
C16 H28 0.929 . S
O17 Tb1 2.326 . S
O17 C5 1.242 . S
O18 Eu2 2.324 . S
O18 C5 1.258 . S
O19 Tb1 2.500 . S
O19 C21 1.273 . S
O20 Tb1 2.473 . S
O20 C21 1.257 . S
C21 O19 1.273 . S
C21 O20 1.257 . S
O22 Eu2 2.326 . S
O22 C10 1.242 . S
O23 Tb1 2.324 . S
O23 C10 1.258 . S
O24 Eu2 2.500 . S
O24 C7 1.273 . S
O25 Eu2 2.473 . S
O25 C7 1.257 . S
H26 C12 0.929 . S
H27 C14 0.931 . S
H28 C16 0.929 . S
O29 Tb30 2.292 1_556 S
O29 C32 1.255 . S
Tb30 O29 2.292 1_554 S
Tb30 O46 2.326 . S
Tb30 O48 2.500 . S
Tb30 O49 2.473 . S
Tb30 O52 2.324 . S
Eu31 O35 2.292 . S
Eu31 C36 2.852 . S
Eu31 O47 2.324 . S
Eu31 O51 2.326 . S
Eu31 O53 2.500 . S
Eu31 O54 2.473 . S
C32 O29 1.255 . S
C32 O33 1.247 . S
O33 C32 1.247 . S
C34 O46 1.242 . S
C34 O47 1.258 . S
O35 Eu31 2.292 . S
O35 C37 1.255 . S
C36 Eu31 2.852 . S
C36 C40 1.503 . S
C36 O53 1.273 . S
C36 O54 1.257 . S
C37 O35 1.255 . S
C37 O38 1.247 . S
O38 C37 1.247 . S
C39 O51 1.242 . S
C39 O52 1.258 . S
C40 C36 1.503 . S
C40 C41 1.379 . S
C40 C45 1.392 . S
C41 C40 1.379 . S
C41 C42 1.404 . S
C41 H55 0.929 . S
C42 C41 1.404 . S
C42 C43 1.389 . S
C43 C42 1.389 . S
C43 C44 1.399 . S
C43 H56 0.931 . S
C44 C43 1.399 . S
C44 C45 1.390 . S
C45 C40 1.392 . S
C45 C44 1.390 . S
C45 H57 0.929 . S
O46 Tb30 2.326 . S
O46 C34 1.242 . S
O47 Eu31 2.324 . S
O47 C34 1.258 . S
O48 Tb30 2.500 . S
O48 C50 1.273 . S
O49 Tb30 2.473 . S
O49 C50 1.257 . S
C50 O48 1.273 . S
C50 O49 1.257 . S
O51 Eu31 2.326 . S
O51 C39 1.242 . S
O52 Tb30 2.324 . S
O52 C39 1.258 . S
O53 Eu31 2.500 . S
O53 C36 1.273 . S
O54 Eu31 2.473 . S
O54 C36 1.257 . S
H55 C41 0.929 . S
H56 C43 0.931 . S
H57 C45 0.929 . S
O58 Tb59 2.292 1_556 S
O58 C61 1.255 . S
Tb59 O58 2.292 1_554 S
Tb59 O75 2.326 . S
Tb59 O77 2.500 . S
Tb59 O78 2.473 . S
Tb59 O81 2.324 . S
Eu60 O64 2.292 . S
Eu60 C65 2.852 . S
Eu60 O76 2.324 . S
Eu60 O80 2.326 . S
Eu60 O82 2.500 . S
Eu60 O83 2.473 . S
C61 O58 1.255 . S
C61 O62 1.247 . S
O62 C61 1.247 . S
C63 O75 1.242 . S
C63 O76 1.258 . S
O64 Eu60 2.292 . S
O64 C66 1.255 . S
C65 Eu60 2.852 . S
C65 C69 1.503 . S
C65 O82 1.273 . S
C65 O83 1.257 . S
C66 O64 1.255 . S
C66 O67 1.247 . S
O67 C66 1.247 . S
C68 O80 1.242 . S
C68 O81 1.258 . S
C69 C65 1.503 . S
C69 C70 1.379 . S
C69 C74 1.392 . S
C70 C69 1.379 . S
C70 C71 1.404 . S
C70 H84 0.929 . S
C71 C70 1.404 . S
C71 C72 1.389 . S
C72 C71 1.389 . S
C72 C73 1.399 . S
C72 H85 0.931 . S
C73 C72 1.399 . S
C73 C74 1.390 . S
C74 C69 1.392 . S
C74 C73 1.390 . S
C74 H86 0.929 . S
O75 Tb59 2.326 . S
O75 C63 1.242 . S
O76 Eu60 2.324 . S
O76 C63 1.258 . S
O77 Tb59 2.500 . S
O77 C79 1.273 . S
O78 Tb59 2.473 . S
O78 C79 1.257 . S
C79 O77 1.273 . S
C79 O78 1.257 . S
O80 Eu60 2.326 . S
O80 C68 1.242 . S
O81 Tb59 2.324 . S
O81 C68 1.258 . S
O82 Eu60 2.500 . S
O82 C65 1.273 . S
O83 Eu60 2.473 . S
O83 C65 1.257 . S
H84 C70 0.929 . S
H85 C72 0.931 . S
H86 C74 0.929 . S
O87 Tb88 2.292 . S
O87 C90 1.255 . S
Tb88 O87 2.292 . S
Tb88 O104 2.326 . S
Tb88 O106 2.500 . S
Tb88 O107 2.473 . S
Tb88 O110 2.324 . S
Eu89 O93 2.292 . S
Eu89 C94 2.852 . S
Eu89 O105 2.324 . S
Eu89 O109 2.326 . S
Eu89 O111 2.500 . S
Eu89 O112 2.473 . S
C90 O87 1.255 . S
C90 O91 1.247 . S
O91 C90 1.247 . S
C92 O104 1.242 . S
C92 O105 1.258 . S
O93 Eu89 2.292 . S
O93 C95 1.255 . S
C94 Eu89 2.852 . S
C94 C98 1.503 . S
C94 O111 1.273 . S
C94 O112 1.257 . S
C95 O93 1.255 . S
C95 O96 1.247 . S
O96 C95 1.247 . S
C97 O109 1.242 . S
C97 O110 1.258 . S
C98 C94 1.503 . S
C98 C99 1.379 . S
C98 C103 1.392 . S
C99 C98 1.379 . S
C99 C100 1.404 . S
C99 H113 0.929 . S
C100 C99 1.404 . S
C100 C101 1.389 . S
C101 C100 1.389 . S
C101 C102 1.399 . S
C101 H114 0.931 . S
C102 C101 1.399 . S
C102 C103 1.390 . S
C103 C98 1.392 . S
C103 C102 1.390 . S
C103 H115 0.929 . S
O104 Tb88 2.326 . S
O104 C92 1.242 . S
O105 Eu89 2.324 . S
O105 C92 1.258 . S
O106 Tb88 2.500 . S
O106 C108 1.273 . S
O107 Tb88 2.473 . S
O107 C108 1.257 . S
C108 O106 1.273 . S
C108 O107 1.257 . S
O109 Eu89 2.326 . S
O109 C97 1.242 . S
O110 Tb88 2.324 . S
O110 C97 1.258 . S
O111 Eu89 2.500 . S
O111 C94 1.273 . S
O112 Eu89 2.473 . S
O112 C94 1.257 . S
H113 C99 0.929 . S
H114 C101 0.931 . S
H115 C103 0.929 . S
O116 Tb117 2.292 . S
O116 C119 1.255 . S
Tb117 O116 2.292 . S
Tb117 O133 2.326 . S
Tb117 O135 2.500 . S
Tb117 O136 2.473 . S
Tb117 O139 2.324 . S
Eu118 O122 2.292 . S
Eu118 C123 2.852 . S
Eu118 O134 2.324 . S
Eu118 O138 2.326 . S
Eu118 O140 2.500 . S
Eu118 O141 2.473 . S
C119 O116 1.255 . S
C119 O120 1.247 . S
O120 C119 1.247 . S
C121 O133 1.242 . S
C121 O134 1.258 . S
O122 Eu118 2.292 . S
O122 C124 1.255 . S
C123 Eu118 2.852 . S
C123 C127 1.503 . S
C123 O140 1.273 . S
C123 O141 1.257 . S
C124 O122 1.255 . S
C124 O125 1.247 . S
O125 C124 1.247 . S
C126 O138 1.242 . S
C126 O139 1.258 . S
C127 C123 1.503 . S
C127 C128 1.379 . S
C127 C132 1.392 . S
C128 C127 1.379 . S
C128 C129 1.404 . S
C128 H142 0.929 . S
C129 C128 1.404 . S
C129 C130 1.389 . S
C130 C129 1.389 . S
C130 C131 1.399 . S
C130 H143 0.931 . S
C131 C130 1.399 . S
C131 C132 1.390 . S
C132 C127 1.392 . S
C132 C131 1.390 . S
C132 H144 0.929 . S
O133 Tb117 2.326 . S
O133 C121 1.242 . S
O134 Eu118 2.324 . S
O134 C121 1.258 . S
O135 Tb117 2.500 . S
O135 C137 1.273 . S
O136 Tb117 2.473 . S
O136 C137 1.257 . S
C137 O135 1.273 . S
C137 O136 1.257 . S
O138 Eu118 2.326 . S
O138 C126 1.242 . S
O139 Tb117 2.324 . S
O139 C126 1.258 . S
O140 Eu118 2.500 . S
O140 C123 1.273 . S
O141 Eu118 2.473 . S
O141 C123 1.257 . S
H142 C128 0.929 . S
H143 C130 0.931 . S
H144 C132 0.929 . S
O145 Tb146 2.292 . S
O145 C148 1.255 . S
Tb146 O145 2.292 . S
Tb146 O162 2.326 . S
Tb146 O164 2.500 . S
Tb146 O165 2.473 . S
Tb146 O168 2.324 . S
Eu147 O151 2.292 . S
Eu147 C152 2.852 . S
Eu147 O163 2.324 . S
Eu147 O167 2.326 . S
Eu147 O169 2.500 . S
Eu147 O170 2.473 . S
C148 O145 1.255 . S
C148 O149 1.247 . S
O149 C148 1.247 . S
C150 O162 1.242 . S
C150 O163 1.258 . S
O151 Eu147 2.292 . S
O151 C153 1.255 . S
C152 Eu147 2.852 . S
C152 C156 1.503 . S
C152 O169 1.273 . S
C152 O170 1.257 . S
C153 O151 1.255 . S
C153 O154 1.247 . S
O154 C153 1.247 . S
C155 O167 1.242 . S
C155 O168 1.258 . S
C156 C152 1.503 . S
C156 C157 1.379 . S
C156 C161 1.392 . S
C157 C156 1.379 . S
C157 C158 1.404 . S
C157 H171 0.929 . S
C158 C157 1.404 . S
C158 C159 1.389 . S
C159 C158 1.389 . S
C159 C160 1.399 . S
C159 H172 0.931 . S
C160 C159 1.399 . S
C160 C161 1.390 . S
C161 C156 1.392 . S
C161 C160 1.390 . S
C161 H173 0.929 . S
O162 Tb146 2.326 . S
O162 C150 1.242 . S
O163 Eu147 2.324 . S
O163 C150 1.258 . S
O164 Tb146 2.500 . S
O164 C166 1.273 . S
O165 Tb146 2.473 . S
O165 C166 1.257 . S
C166 O164 1.273 . S
C166 O165 1.257 . S
O167 Eu147 2.326 . S
O167 C155 1.242 . S
O168 Tb146 2.324 . S
O168 C155 1.258 . S
O169 Eu147 2.500 . S
O169 C152 1.273 . S
O170 Eu147 2.473 . S
O170 C152 1.257 . S
H171 C157 0.929 . S
H172 C159 0.931 . S
H173 C161 0.929 . S
O174 Tb175 2.292 1_554 S
O174 C177 1.255 . S
Tb175 O174 2.292 1_556 S
Tb175 O191 2.326 . S
Tb175 O193 2.500 . S
Tb175 O194 2.473 . S
Tb175 O197 2.324 . S
Eu176 O180 2.292 . S
Eu176 C181 2.852 . S
Eu176 O192 2.324 . S
Eu176 O196 2.326 . S
Eu176 O198 2.500 . S
Eu176 O199 2.473 . S
C177 O174 1.255 . S
C177 O178 1.247 . S
O178 C177 1.247 . S
C179 O191 1.242 . S
C179 O192 1.258 . S
O180 Eu176 2.292 . S
O180 C182 1.255 . S
C181 Eu176 2.852 . S
C181 C185 1.503 . S
C181 O198 1.273 . S
C181 O199 1.257 . S
C182 O180 1.255 . S
C182 O183 1.247 . S
O183 C182 1.247 . S
C184 O196 1.242 . S
C184 O197 1.258 . S
C185 C181 1.503 . S
C185 C186 1.379 . S
C185 C190 1.392 . S
C186 C185 1.379 . S
C186 C187 1.404 . S
C186 H200 0.929 . S
C187 C186 1.404 . S
C187 C188 1.389 . S
C188 C187 1.389 . S
C188 C189 1.399 . S
C188 H201 0.931 . S
C189 C188 1.399 . S
C189 C190 1.390 . S
C190 C185 1.392 . S
C190 C189 1.390 . S
C190 H202 0.929 . S
O191 Tb175 2.326 . S
O191 C179 1.242 . S
O192 Eu176 2.324 . S
O192 C179 1.258 . S
O193 Tb175 2.500 . S
O193 C195 1.273 . S
O194 Tb175 2.473 . S
O194 C195 1.257 . S
C195 O193 1.273 . S
C195 O194 1.257 . S
O196 Eu176 2.326 . S
O196 C184 1.242 . S
O197 Tb175 2.324 . S
O197 C184 1.258 . S
O198 Eu176 2.500 . S
O198 C181 1.273 . S
O199 Eu176 2.473 . S
O199 C181 1.257 . S
H200 C186 0.929 . S
H201 C188 0.931 . S
H202 C190 0.929 . S
O203 Tb204 2.292 1_554 S
O203 C206 1.255 . S
Tb204 O203 2.292 1_556 S
Tb204 O220 2.326 . S
Tb204 O222 2.500 . S
Tb204 O223 2.473 . S
Tb204 O226 2.324 . S
Eu205 O209 2.292 . S
Eu205 C210 2.852 . S
Eu205 O221 2.324 . S
Eu205 O225 2.326 . S
Eu205 O227 2.500 . S
Eu205 O228 2.473 . S
C206 O203 1.255 . S
C206 O207 1.247 . S
O207 C206 1.247 . S
C208 O220 1.242 . S
C208 O221 1.258 . S
O209 Eu205 2.292 . S
O209 C211 1.255 . S
C210 Eu205 2.852 . S
C210 C214 1.503 . S
C210 O227 1.273 . S
C210 O228 1.257 . S
C211 O209 1.255 . S
C211 O212 1.247 . S
O212 C211 1.247 . S
C213 O225 1.242 . S
C213 O226 1.258 . S
C214 C210 1.503 . S
C214 C215 1.379 . S
C214 C219 1.392 . S
C215 C214 1.379 . S
C215 C216 1.404 . S
C215 H229 0.929 . S
C216 C215 1.404 . S
C216 C217 1.389 . S
C217 C216 1.389 . S
C217 C218 1.399 . S
C217 H230 0.931 . S
C218 C217 1.399 . S
C218 C219 1.390 . S
C219 C214 1.392 . S
C219 C218 1.390 . S
C219 H231 0.929 . S
O220 Tb204 2.326 . S
O220 C208 1.242 . S
O221 Eu205 2.324 . S
O221 C208 1.258 . S
O222 Tb204 2.500 . S
O222 C224 1.273 . S
O223 Tb204 2.473 . S
O223 C224 1.257 . S
C224 O222 1.273 . S
C224 O223 1.257 . S
O225 Eu205 2.326 . S
O225 C213 1.242 . S
O226 Tb204 2.324 . S
O226 C213 1.258 . S
O227 Eu205 2.500 . S
O227 C210 1.273 . S
O228 Eu205 2.473 . S
O228 C210 1.257 . S
H229 C215 0.929 . S
H230 C217 0.931 . S
H231 C219 0.929 . S
O232 Tb233 2.292 1_554 S
O232 C235 1.255 . S
Tb233 O232 2.292 1_556 S
Tb233 O249 2.326 . S
Tb233 O251 2.500 . S
Tb233 O252 2.473 . S
Tb233 O255 2.324 . S
Eu234 O238 2.292 . S
Eu234 C239 2.852 . S
Eu234 O250 2.324 . S
Eu234 O254 2.326 . S
Eu234 O256 2.500 . S
Eu234 O257 2.473 . S
C235 O232 1.255 . S
C235 O236 1.247 . S
O236 C235 1.247 . S
C237 O249 1.242 . S
C237 O250 1.258 . S
O238 Eu234 2.292 . S
O238 C240 1.255 . S
C239 Eu234 2.852 . S
C239 C243 1.503 . S
C239 O256 1.273 . S
C239 O257 1.257 . S
C240 O238 1.255 . S
C240 O241 1.247 . S
O241 C240 1.247 . S
C242 O254 1.242 . S
C242 O255 1.258 . S
C243 C239 1.503 . S
C243 C244 1.379 . S
C243 C248 1.392 . S
C244 C243 1.379 . S
C244 C245 1.404 . S
C244 H258 0.929 . S
C245 C244 1.404 . S
C245 C246 1.389 . S
C246 C245 1.389 . S
C246 C247 1.399 . S
C246 H259 0.931 . S
C247 C246 1.399 . S
C247 C248 1.390 . S
C248 C243 1.392 . S
C248 C247 1.390 . S
C248 H260 0.929 . S
O249 Tb233 2.326 . S
O249 C237 1.242 . S
O250 Eu234 2.324 . S
O250 C237 1.258 . S
O251 Tb233 2.500 . S
O251 C253 1.273 . S
O252 Tb233 2.473 . S
O252 C253 1.257 . S
C253 O251 1.273 . S
C253 O252 1.257 . S
O254 Eu234 2.326 . S
O254 C242 1.242 . S
O255 Tb233 2.324 . S
O255 C242 1.258 . S
O256 Eu234 2.500 . S
O256 C239 1.273 . S
O257 Eu234 2.473 . S
O257 C239 1.257 . S
H258 C244 0.929 . S
H259 C246 0.931 . S
H260 C248 0.929 . S
O261 Tb262 2.292 . S
O261 C264 1.255 . S
Tb262 O261 2.292 . S
Tb262 O278 2.326 . S
Tb262 O280 2.500 . S
Tb262 O281 2.473 . S
Tb262 O284 2.324 . S
Eu263 O267 2.292 . S
Eu263 C268 2.852 . S
Eu263 O279 2.324 . S
Eu263 O283 2.326 . S
Eu263 O285 2.500 . S
Eu263 O286 2.473 . S
C264 O261 1.255 . S
C264 O265 1.247 . S
O265 C264 1.247 . S
C266 O278 1.242 . S
C266 O279 1.258 . S
O267 Eu263 2.292 . S
O267 C269 1.255 . S
C268 Eu263 2.852 . S
C268 C272 1.503 . S
C268 O285 1.273 . S
C268 O286 1.257 . S
C269 O267 1.255 . S
C269 O270 1.247 . S
O270 C269 1.247 . S
C271 O283 1.242 . S
C271 O284 1.258 . S
C272 C268 1.503 . S
C272 C273 1.379 . S
C272 C277 1.392 . S
C273 C272 1.379 . S
C273 C274 1.404 . S
C273 H287 0.929 . S
C274 C273 1.404 . S
C274 C275 1.389 . S
C275 C274 1.389 . S
C275 C276 1.399 . S
C275 H288 0.931 . S
C276 C275 1.399 . S
C276 C277 1.390 . S
C277 C272 1.392 . S
C277 C276 1.390 . S
C277 H289 0.929 . S
O278 Tb262 2.326 . S
O278 C266 1.242 . S
O279 Eu263 2.324 . S
O279 C266 1.258 . S
O280 Tb262 2.500 . S
O280 C282 1.273 . S
O281 Tb262 2.473 . S
O281 C282 1.257 . S
C282 O280 1.273 . S
C282 O281 1.257 . S
O283 Eu263 2.326 . S
O283 C271 1.242 . S
O284 Tb262 2.324 . S
O284 C271 1.258 . S
O285 Eu263 2.500 . S
O285 C268 1.273 . S
O286 Eu263 2.473 . S
O286 C268 1.257 . S
H287 C273 0.929 . S
H288 C275 0.931 . S
H289 C277 0.929 . S
O290 Tb291 2.292 . S
O290 C293 1.255 . S
Tb291 O290 2.292 . S
Tb291 O307 2.326 . S
Tb291 O309 2.500 . S
Tb291 O310 2.473 . S
Tb291 O313 2.324 . S
Eu292 O296 2.292 . S
Eu292 C297 2.852 . S
Eu292 O308 2.324 . S
Eu292 O312 2.326 . S
Eu292 O314 2.500 . S
Eu292 O315 2.473 . S
C293 O290 1.255 . S
C293 O294 1.247 . S
O294 C293 1.247 . S
C295 O307 1.242 . S
C295 O308 1.258 . S
O296 Eu292 2.292 . S
O296 C298 1.255 . S
C297 Eu292 2.852 . S
C297 C301 1.503 . S
C297 O314 1.273 . S
C297 O315 1.257 . S
C298 O296 1.255 . S
C298 O299 1.247 . S
O299 C298 1.247 . S
C300 O312 1.242 . S
C300 O313 1.258 . S
C301 C297 1.503 . S
C301 C302 1.379 . S
C301 C306 1.392 . S
C302 C301 1.379 . S
C302 C303 1.404 . S
C302 H316 0.929 . S
C303 C302 1.404 . S
C303 C304 1.389 . S
C304 C303 1.389 . S
C304 C305 1.399 . S
C304 H317 0.931 . S
C305 C304 1.399 . S
C305 C306 1.390 . S
C306 C301 1.392 . S
C306 C305 1.390 . S
C306 H318 0.929 . S
O307 Tb291 2.326 . S
O307 C295 1.242 . S
O308 Eu292 2.324 . S
O308 C295 1.258 . S
O309 Tb291 2.500 . S
O309 C311 1.273 . S
O310 Tb291 2.473 . S
O310 C311 1.257 . S
C311 O309 1.273 . S
C311 O310 1.257 . S
O312 Eu292 2.326 . S
O312 C300 1.242 . S
O313 Tb291 2.324 . S
O313 C300 1.258 . S
O314 Eu292 2.500 . S
O314 C297 1.273 . S
O315 Eu292 2.473 . S
O315 C297 1.257 . S
H316 C302 0.929 . S
H317 C304 0.931 . S
H318 C306 0.929 . S
O319 Tb320 2.292 . S
O319 C322 1.255 . S
Tb320 O319 2.292 . S
Tb320 O336 2.326 . S
Tb320 O338 2.500 . S
Tb320 O339 2.473 . S
Tb320 O342 2.324 . S
Eu321 O325 2.292 . S
Eu321 C326 2.852 . S
Eu321 O337 2.324 . S
Eu321 O341 2.326 . S
Eu321 O343 2.500 . S
Eu321 O344 2.473 . S
C322 O319 1.255 . S
C322 O323 1.247 . S
O323 C322 1.247 . S
C324 O336 1.242 . S
C324 O337 1.258 . S
O325 Eu321 2.292 . S
O325 C327 1.255 . S
C326 Eu321 2.852 . S
C326 C330 1.503 . S
C326 O343 1.273 . S
C326 O344 1.257 . S
C327 O325 1.255 . S
C327 O328 1.247 . S
O328 C327 1.247 . S
C329 O341 1.242 . S
C329 O342 1.258 . S
C330 C326 1.503 . S
C330 C331 1.379 . S
C330 C335 1.392 . S
C331 C330 1.379 . S
C331 C332 1.404 . S
C331 H345 0.929 . S
C332 C331 1.404 . S
C332 C333 1.389 . S
C333 C332 1.389 . S
C333 C334 1.399 . S
C333 H346 0.931 . S
C334 C333 1.399 . S
C334 C335 1.390 . S
C335 C330 1.392 . S
C335 C334 1.390 . S
C335 H347 0.929 . S
O336 Tb320 2.326 . S
O336 C324 1.242 . S
O337 Eu321 2.324 . S
O337 C324 1.258 . S
O338 Tb320 2.500 . S
O338 C340 1.273 . S
O339 Tb320 2.473 . S
O339 C340 1.257 . S
C340 O338 1.273 . S
C340 O339 1.257 . S
O341 Eu321 2.326 . S
O341 C329 1.242 . S
O342 Tb320 2.324 . S
O342 C329 1.258 . S
O343 Eu321 2.500 . S
O343 C326 1.273 . S
O344 Eu321 2.473 . S
O344 C326 1.257 . S
H345 C331 0.929 . S
H346 C333 0.931 . S
H347 C335 0.929 . S
H348 C354 0.930 . S
H349 C358 0.930 . S
H350 C363 0.929 . S
H351 C361 0.929 . S
H352 C356 0.929 1_556 S
H353 C362 0.929 1_554 S
C354 H348 0.930 . S
C354 C355 1.367 . S
C354 C362 1.378 1_565 S
C355 C354 1.367 . S
C355 C363 1.459 . S
C356 H352 0.929 1_554 S
C356 C358 1.378 . S
C356 C360 1.350 . S
C357 C360 1.463 1_556 S
C357 C362 1.350 . S
C357 N365 1.427 . S
C358 H349 0.930 . S
C358 C356 1.378 . S
C358 C359 1.367 . S
C359 C358 1.367 . S
C359 C361 1.433 . S
C360 C356 1.350 . S
C360 C357 1.463 1_554 S
C360 N364 1.427 . S
C361 H351 0.929 . S
C361 C359 1.433 . S
C361 N364 1.384 . S
C362 H353 0.929 1_556 S
C362 C354 1.378 1_545 S
C362 C357 1.350 . S
C363 H350 0.929 . S
C363 C355 1.459 . S
C363 N365 1.359 1_565 S
N364 C360 1.427 . S
N364 C361 1.384 . S
N365 C357 1.427 . S
N365 C363 1.359 1_545 S
H366 C372 0.930 . S
H367 C376 0.930 1_455 S
H368 C381 0.932 . S
H369 C379 0.929 . S
H370 C374 0.929 . S
H371 C380 0.929 . S
C372 H366 0.930 . S
C372 C373 1.367 . S
C372 C380 1.378 . S
C373 C372 1.367 . S
C373 C381 1.433 . S
C374 H370 0.929 . S
C374 C376 1.378 . S
C374 C378 1.350 . S
C375 C378 1.463 1_554 S
C375 C380 1.350 . S
C375 N383 1.427 1_554 S
C376 H367 0.930 1_655 S
C376 C374 1.378 . S
C376 C377 1.367 1_655 S
C377 C376 1.367 1_455 S
C377 C379 1.433 . S
C378 C374 1.350 . S
C378 C375 1.463 1_556 S
C378 N382 1.427 1_556 S
C379 H369 0.929 . S
C379 C377 1.433 . S
C379 N382 1.384 1_456 S
C380 H371 0.929 . S
C380 C372 1.378 . S
C380 C375 1.350 . S
C381 H368 0.932 . S
C381 C373 1.433 . S
C381 N383 1.384 1_554 S
N382 C378 1.427 1_554 S
N382 C379 1.384 1_654 S
N383 C375 1.427 1_556 S
N383 C381 1.384 1_556 S
H384 C390 0.930 . S
H385 C394 0.930 . S
H386 C399 0.929 . S
H387 C397 0.929 . S
H388 C392 0.929 . S
H389 C398 0.929 . S
C390 H384 0.930 . S
C390 C391 1.367 . S
C390 C398 1.378 . S
C391 C390 1.367 . S
C391 C399 1.433 . S
C392 H388 0.929 . S
C392 C394 1.378 . S
C392 C396 1.350 . S
C393 C396 1.463 1_554 S
C393 C398 1.350 . S
C393 N401 1.427 . S
C394 H385 0.930 . S
C394 C392 1.378 . S
C394 C395 1.367 . S
C395 C394 1.367 . S
C395 C397 1.433 . S
C396 C392 1.350 . S
C396 C393 1.463 1_556 S
C396 N400 1.427 . S
C397 H387 0.929 . S
C397 C395 1.433 . S
C397 N400 1.384 . S
C398 H389 0.929 . S
C398 C390 1.378 . S
C398 C393 1.350 . S
C399 H386 0.929 . S
C399 C391 1.433 . S
C399 N401 1.384 . S
N400 C396 1.427 . S
N400 C397 1.384 . S
N401 C393 1.427 . S
N401 C399 1.384 . S
H402 C408 0.930 . S
H403 C412 0.930 . S
H404 C417 0.929 . S
H405 C415 0.929 . S
H406 C410 0.929 . S
H407 C416 0.929 . S
C408 H402 0.930 . S
C408 C409 1.367 . S
C408 C416 1.378 . S
C409 C408 1.367 . S
C409 C417 1.433 . S
C410 H406 0.929 . S
C410 C412 1.378 . S
C410 C414 1.350 . S
C411 C414 1.463 . S
C411 C416 1.350 . S
C411 N419 1.427 . S
C412 H403 0.930 . S
C412 C410 1.378 . S
C412 C413 1.367 1_455 S
C413 C412 1.367 1_655 S
C413 C415 1.433 . S
C414 C410 1.350 . S
C414 C411 1.463 . S
C414 N418 1.427 . S
C415 H405 0.929 . S
C415 C413 1.433 . S
C415 N418 1.384 1_655 S
C416 H407 0.929 . S
C416 C408 1.378 . S
C416 C411 1.350 . S
C417 H404 0.929 . S
C417 C409 1.433 . S
C417 N419 1.384 . S
N418 C414 1.427 . S
N418 C415 1.384 1_455 S
N419 C411 1.427 . S
N419 C417 1.384 . S
H420 C426 0.930 . S
H421 C430 0.930 . S
H422 C435 0.929 . S
H423 C433 0.929 . S
H424 C428 0.929 . S
H425 C434 0.929 . S
C426 H420 0.930 . S
C426 C427 1.367 . S
C426 C434 1.378 . S
C427 C426 1.367 . S
C427 C435 1.433 . S
C428 H424 0.929 . S
C428 C430 1.378 . S
C428 C432 1.350 . S
C429 C432 1.463 . S
C429 C434 1.350 . S
C429 N437 1.427 . S
C430 H421 0.930 . S
C430 C428 1.378 . S
C430 C431 1.367 . S
C431 C430 1.367 . S
C431 C433 1.433 . S
C432 C428 1.350 . S
C432 C429 1.463 . S
C432 N436 1.427 . S
C433 H423 0.929 . S
C433 C431 1.433 . S
C433 N436 1.384 . S
C434 H425 0.929 . S
C434 C426 1.378 . S
C434 C429 1.350 . S
C435 H422 0.929 . S
C435 C427 1.433 . S
C435 N437 1.384 . S
N436 C432 1.427 . S
N436 C433 1.384 . S
N437 C429 1.427 . S
N437 C435 1.384 . S
H438 C444 0.930 . S
H439 C448 0.930 . S
H440 C453 0.929 . S
H441 C451 0.929 1_545 S
H442 C446 0.929 . S
H443 C452 0.929 . S
C444 H438 0.930 . S
C444 C445 1.367 . S
C444 C452 1.378 . S
C445 C444 1.367 . S
C445 C453 1.433 . S
C446 H442 0.929 . S
C446 C448 1.378 1_565 S
C446 C450 1.350 . S
C447 C450 1.463 . S
C447 C452 1.350 . S
C447 N455 1.427 . S
C448 H439 0.930 . S
C448 C446 1.378 1_545 S
C448 C449 1.367 . S
C449 C448 1.367 . S
C449 C451 1.433 1_545 S
C450 C446 1.350 . S
C450 C447 1.463 . S
C450 N454 1.427 . S
C451 H441 0.929 1_565 S
C451 C449 1.433 1_565 S
C451 N454 1.384 . S
C452 H443 0.929 . S
C452 C444 1.378 . S
C452 C447 1.350 . S
C453 H440 0.929 . S
C453 C445 1.433 . S
C453 N455 1.384 . S
N454 C450 1.427 . S
N454 C451 1.384 . S
N455 C447 1.427 . S
N455 C453 1.384 . S
H456 C462 0.930 . S
H457 C466 0.930 1_545 S
H458 C471 0.929 . S
H459 C469 0.929 . S
H460 C464 0.929 . S
H461 C470 0.929 . S
C462 H456 0.930 . S
C462 C463 1.367 . S
C462 C470 1.378 . S
C463 C462 1.367 . S
C463 C471 1.433 . S
C464 H460 0.929 . S
C464 C466 1.378 . S
C464 C468 1.350 . S
C465 C468 1.463 1_556 S
C465 C470 1.350 . S
C465 N473 1.427 1_556 S
C466 H457 0.930 1_565 S
C466 C464 1.378 . S
C466 C467 1.367 1_565 S
C467 C466 1.367 1_545 S
C467 C469 1.433 . S
C468 C464 1.350 . S
C468 C465 1.463 1_554 S
C468 N472 1.427 1_554 S
C469 H459 0.929 . S
C469 C467 1.433 . S
C469 N472 1.384 1_544 S
C470 H461 0.929 . S
C470 C462 1.378 . S
C470 C465 1.350 . S
C471 H458 0.929 . S
C471 C463 1.433 . S
C471 N473 1.384 1_556 S
N472 C468 1.427 1_556 S
N472 C469 1.384 1_566 S
N473 C465 1.427 1_554 S
N473 C471 1.384 1_554 S
H474 C480 0.930 . S
H475 C484 0.930 . S
H476 C489 0.929 . S
H477 C487 0.907 1_655 S
H478 C482 0.944 . S
H479 C488 0.929 . S
C480 H474 0.930 . S
C480 C481 1.367 . S
C480 C488 1.378 1_556 S
C481 C480 1.367 . S
C481 C489 1.433 . S
C482 H478 0.944 . S
C482 C484 1.369 1_456 S
C482 C486 1.345 1_556 S
C483 C486 1.463 1_556 S
C483 C488 1.350 1_556 S
C483 N491 1.427 . S
C484 H475 0.930 . S
C484 C482 1.369 1_654 S
C484 C485 1.367 . S
C485 C484 1.367 . S
C485 C487 1.432 1_655 S
C486 C482 1.345 1_554 S
C486 C483 1.463 1_554 S
C486 N490 1.427 . S
C487 H477 0.907 1_455 S
C487 C485 1.432 1_455 S
C487 N490 1.408 . S
C488 H479 0.929 . S
C488 C480 1.378 1_554 S
C488 C483 1.350 1_554 S
C489 H476 0.929 . S
C489 C481 1.433 . S
C489 N491 1.384 . S
N490 C486 1.427 . S
N490 C487 1.408 . S
N491 C483 1.427 . S
N491 C489 1.384 . S
H492 C498 0.930 . S
H493 C502 0.930 . S
H494 C507 0.929 . S
H495 C505 0.929 . S
H496 C500 0.929 . S
H497 C506 0.929 . S
C498 H492 0.930 . S
C498 C499 1.367 . S
C498 C506 1.378 . S
C499 C498 1.367 . S
C499 C507 1.433 1_554 S
C500 H496 0.929 . S
C500 C502 1.378 . S
C500 C504 1.350 . S
C501 C504 1.463 1_554 S
C501 C506 1.350 . S
C501 N509 1.427 1_554 S
C502 H493 0.930 . S
C502 C500 1.378 . S
C502 C503 1.367 . S
C503 C502 1.367 . S
C503 C505 1.433 1_556 S
C504 C500 1.350 . S
C504 C501 1.463 1_556 S
C504 N508 1.427 1_556 S
C505 H495 0.929 . S
C505 C503 1.433 1_554 S
C505 N508 1.384 . S
C506 H497 0.929 . S
C506 C498 1.378 . S
C506 C501 1.350 . S
C507 H494 0.929 . S
C507 C499 1.433 1_556 S
C507 N509 1.384 . S
N508 C504 1.427 1_554 S
N508 C505 1.384 . S
N509 C501 1.427 1_556 S
N509 C507 1.384 . S
H510 C516 0.930 . S
H511 C520 0.930 1_455 S
H512 C525 0.929 . S
H513 C523 0.929 . S
H514 C518 0.929 . S
H515 C524 0.929 . S
C516 H510 0.930 . S
C516 C517 1.367 . S
C516 C524 1.378 . S
C517 C516 1.367 . S
C517 C525 1.433 . S
C518 H514 0.929 . S
C518 C520 1.378 . S
C518 C522 1.350 . S
C519 C522 1.463 . S
C519 C524 1.350 . S
C519 N527 1.427 . S
C520 H511 0.930 1_655 S
C520 C518 1.378 . S
C520 C521 1.367 1_655 S
C521 C520 1.367 1_455 S
C521 C523 1.433 . S
C522 C518 1.350 . S
C522 C519 1.463 . S
C522 N526 1.427 . S
C523 H513 0.929 . S
C523 C521 1.433 . S
C523 N526 1.384 1_455 S
C524 H515 0.929 . S
C524 C516 1.378 . S
C524 C519 1.350 . S
C525 H512 0.929 . S
C525 C517 1.433 . S
C525 N527 1.384 . S
N526 C522 1.427 . S
N526 C523 1.384 1_655 S
N527 C519 1.427 . S
N527 C525 1.384 . S
H528 C534 0.930 . S
H529 C538 0.930 . S
H530 C543 0.929 . S
H531 C541 0.929 . S
H532 C536 0.929 . S
H533 C542 0.929 . S
C534 H528 0.930 . S
C534 C535 1.367 . S
C534 C542 1.378 . S
C535 C534 1.367 . S
C535 C543 1.433 . S
C536 H532 0.929 . S
C536 C538 1.378 . S
C536 C540 1.350 . S
C537 C540 1.463 . S
C537 C542 1.350 . S
C537 N545 1.427 . S
C538 H529 0.930 . S
C538 C536 1.378 . S
C538 C539 1.367 . S
C539 C538 1.367 . S
C539 C541 1.433 . S
C540 C536 1.350 . S
C540 C537 1.463 . S
C540 N544 1.427 . S
C541 H531 0.929 . S
C541 C539 1.433 . S
C541 N544 1.384 . S
C542 H533 0.929 . S
C542 C534 1.378 . S
C542 C537 1.350 . S
C543 H530 0.929 . S
C543 C535 1.433 . S
C543 N545 1.384 . S
N544 C540 1.427 . S
N544 C541 1.384 . S
N545 C537 1.427 . S
N545 C543 1.384 . S
H546 C552 0.928 1_565 S
H547 C556 0.930 . S
H548 C561 0.929 . S
H549 C559 0.929 . S
H550 C554 0.929 . S
H551 C560 0.929 . S
C552 H546 0.928 1_545 S
C552 C553 1.367 1_545 S
C552 C560 1.380 . S
C553 C552 1.367 1_565 S
C553 C561 1.433 . S
C554 H550 0.929 . S
C554 C556 1.378 . S
C554 C558 1.350 . S
C555 C558 1.463 . S
C555 C560 1.350 . S
C555 N563 1.427 . S
C556 H547 0.930 . S
C556 C554 1.378 . S
C556 C557 1.367 . S
C557 C556 1.367 . S
C557 C559 1.433 . S
C558 C554 1.350 . S
C558 C555 1.463 . S
C558 N562 1.427 . S
C559 H549 0.929 . S
C559 C557 1.433 . S
C559 N562 1.384 . S
C560 H551 0.929 . S
C560 C552 1.380 . S
C560 C555 1.350 . S
C561 H548 0.929 . S
C561 C553 1.433 . S
C561 N563 1.384 1_565 S
N562 C558 1.427 . S
N562 C559 1.384 . S
N563 C555 1.427 . S
N563 C561 1.384 1_545 S
H564 C570 0.930 . S
H565 C574 0.930 . S
H566 C579 0.929 . S
H567 C577 0.929 . S
H568 C572 0.929 . S
H569 C578 0.929 . S
C570 H564 0.930 . S
C570 C571 1.367 . S
C570 C578 1.378 . S
C571 C570 1.367 . S
C571 C579 1.433 . S
C572 H568 0.929 . S
C572 C574 1.378 . S
C572 C576 1.350 . S
C573 C576 1.463 . S
C573 C578 1.350 . S
C573 N581 1.427 . S
C574 H565 0.930 . S
C574 C572 1.378 . S
C574 C575 1.367 . S
C575 C574 1.367 . S
C575 C577 1.433 . S
C576 C572 1.350 . S
C576 C573 1.463 . S
C576 N580 1.427 . S
C577 H567 0.929 . S
C577 C575 1.433 . S
C577 N580 1.384 . S
C578 H569 0.929 . S
C578 C570 1.378 . S
C578 C573 1.350 . S
C579 H566 0.929 . S
C579 C571 1.433 . S
C579 N581 1.384 . S
N580 C576 1.427 . S
N580 C577 1.384 . S
N581 C573 1.427 . S
N581 C579 1.384 . S
H582 C588 0.930 1_565 S
H583 C592 0.930 1_545 S
H584 C597 0.929 . S
H585 C595 0.929 . S
H586 C590 0.929 . S
H587 C596 0.929 . S
C588 H582 0.930 1_545 S
C588 C589 1.367 . S
C588 C596 1.378 1_545 S
C589 C588 1.367 . S
C589 C597 1.433 . S
C590 H586 0.929 . S
C590 C592 1.378 1_545 S
C590 C594 1.350 1_545 S
C591 C594 1.463 1_545 S
C591 C596 1.350 1_545 S
C591 N599 1.427 . S
C592 H583 0.930 1_565 S
C592 C590 1.378 1_565 S
C592 C593 1.367 . S
C593 C592 1.367 . S
C593 C595 1.433 . S
C594 C590 1.350 1_565 S
C594 C591 1.463 1_565 S
C594 N598 1.427 . S
C595 H585 0.929 . S
C595 C593 1.433 . S
C595 N598 1.384 . S
C596 H587 0.929 . S
C596 C588 1.378 1_565 S
C596 C591 1.350 1_565 S
C597 H584 0.929 . S
C597 C589 1.433 . S
C597 N599 1.384 . S
N598 C594 1.427 . S
N598 C595 1.384 . S
N599 C591 1.427 . S
N599 C597 1.384 . S
H600 C606 0.930 . S
H601 C610 0.930 . S
H602 C615 0.929 . S
H603 C613 0.929 . S
H604 C608 0.929 1_655 S
H605 C614 0.929 1_455 S
C606 H600 0.930 . S
C606 C607 1.367 . S
C606 C614 1.378 . S
C607 C606 1.367 . S
C607 C615 1.433 . S
C608 H604 0.929 1_455 S
C608 C610 1.378 . S
C608 C612 1.350 . S
C609 C612 1.463 1_655 S
C609 C614 1.350 . S
C609 N617 1.427 . S
C610 H601 0.930 . S
C610 C608 1.378 . S
C610 C611 1.367 . S
C611 C610 1.367 . S
C611 C613 1.433 . S
C612 C608 1.350 . S
C612 C609 1.463 1_455 S
C612 N616 1.427 . S
C613 H603 0.929 . S
C613 C611 1.433 . S
C613 N616 1.384 . S
C614 H605 0.929 1_655 S
C614 C606 1.378 . S
C614 C609 1.350 . S
C615 H602 0.929 . S
C615 C607 1.433 . S
C615 N617 1.384 . S
N616 C612 1.427 . S
N616 C613 1.384 . S
N617 C609 1.427 . S
N617 C615 1.384 . S
H618 C624 0.930 . S
H619 C628 0.930 . S
H620 C633 0.929 . S
H621 C631 0.929 . S
H622 C626 0.929 . S
H623 C632 0.929 . S
C624 H618 0.930 . S
C624 C625 1.367 . S
C624 C632 1.378 . S
C625 C624 1.367 . S
C625 C633 1.433 . S
C626 H622 0.929 . S
C626 C628 1.378 . S
C626 C630 1.350 . S
C627 C630 1.463 . S
C627 C632 1.350 . S
C627 N635 1.427 . S
C628 H619 0.930 . S
C628 C626 1.378 . S
C628 C629 1.367 . S
C629 C628 1.367 . S
C629 C631 1.433 . S
C630 C626 1.350 . S
C630 C627 1.463 . S
C630 N634 1.427 . S
C631 H621 0.929 . S
C631 C629 1.433 . S
C631 N634 1.384 . S
C632 H623 0.929 . S
C632 C624 1.378 . S
C632 C627 1.350 . S
C633 H620 0.929 . S
C633 C625 1.433 . S
C633 N635 1.384 . S
N634 C630 1.427 . S
N634 C631 1.384 . S
N635 C627 1.427 . S
N635 C633 1.384 . S
H636 C642 0.930 . S
H637 C646 0.930 . S
H638 C651 0.929 1_565 S
H639 C649 0.929 1_545 S
H640 C644 0.929 . S
H641 C650 0.929 . S
C642 H636 0.930 . S
C642 C643 1.367 . S
C642 C650 1.378 . S
C643 C642 1.367 . S
C643 C651 1.433 . S
C644 H640 0.929 . S
C644 C646 1.378 . S
C644 C648 1.350 . S
C645 C648 1.463 1_545 S
C645 C650 1.350 . S
C645 N653 1.427 1_545 S
C646 H637 0.930 . S
C646 C644 1.378 . S
C646 C647 1.367 . S
C647 C646 1.367 . S
C647 C649 1.433 . S
C648 C644 1.350 . S
C648 C645 1.463 1_565 S
C648 N652 1.427 1_565 S
C649 H639 0.929 1_565 S
C649 C647 1.433 . S
C649 N652 1.384 1_565 S
C650 H641 0.929 . S
C650 C642 1.378 . S
C650 C645 1.350 . S
C651 H638 0.929 1_545 S
C651 C643 1.433 . S
C651 N653 1.384 1_545 S
N652 C648 1.427 1_545 S
N652 C649 1.384 1_545 S
N653 C645 1.427 1_565 S
N653 C651 1.384 1_565 S
H654 C660 0.930 . S
H655 C664 0.930 . S
H656 C669 0.929 . S
H657 C667 0.929 . S
H658 C662 0.929 1_655 S
H659 C668 0.929 1_455 S
C660 H654 0.930 . S
C660 C661 1.367 . S
C660 C668 1.378 . S
C661 C660 1.367 . S
C661 C669 1.433 . S
C662 H658 0.929 1_455 S
C662 C664 1.378 . S
C662 C666 1.350 . S
C663 C666 1.463 1_655 S
C663 C668 1.350 . S
C663 N671 1.427 . S
C664 H655 0.930 . S
C664 C662 1.378 . S
C664 C665 1.367 . S
C665 C664 1.367 . S
C665 C667 1.433 . S
C666 C662 1.350 . S
C666 C663 1.463 1_455 S
C666 N670 1.427 . S
C667 H657 0.929 . S
C667 C665 1.433 . S
C667 N670 1.384 . S
C668 H659 0.929 1_655 S
C668 C660 1.378 . S
C668 C663 1.350 . S
C669 H656 0.929 . S
C669 C661 1.433 . S
C669 N671 1.384 . S
N670 C666 1.427 . S
N670 C667 1.384 . S
N671 C663 1.427 . S
N671 C669 1.384 . S
H672 C678 0.930 . S
H673 C682 0.930 . S
H674 C687 0.929 . S
H675 C685 0.929 . S
H676 C680 0.929 . S
H677 C686 0.929 . S
C678 H672 0.930 . S
C678 C679 1.367 . S
C678 C686 1.378 . S
C679 C678 1.367 . S
C679 C687 1.433 . S
C680 H676 0.929 . S
C680 C682 1.378 . S
C680 C684 1.350 . S
C681 C684 1.463 . S
C681 C686 1.350 . S
C681 N689 1.427 . S
C682 H673 0.930 . S
C682 C680 1.378 . S
C682 C683 1.367 . S
C683 C682 1.367 . S
C683 C685 1.433 . S
C684 C680 1.350 . S
C684 C681 1.463 . S
C684 N688 1.427 . S
C685 H675 0.929 . S
C685 C683 1.433 . S
C685 N688 1.384 . S
C686 H677 0.929 . S
C686 C678 1.378 . S
C686 C681 1.350 . S
C687 H674 0.929 . S
C687 C679 1.433 . S
C687 N689 1.384 . S
N688 C684 1.427 . S
N688 C685 1.384 . S
N689 C681 1.427 . S
N689 C687 1.384 . S
H690 C696 0.930 . S
H691 C700 0.930 . S
H692 C705 0.929 . S
H693 C703 0.929 . S
H694 C698 0.929 . S
H695 C704 0.929 . S
C696 H690 0.930 . S
C696 C697 1.367 . S
C696 C704 1.378 . S
C697 C696 1.367 . S
C697 C705 1.433 . S
C698 H694 0.929 . S
C698 C700 1.378 . S
C698 C702 1.350 . S
C699 C702 1.463 . S
C699 C704 1.350 . S
C699 N707 1.427 . S
C700 H691 0.930 . S
C700 C698 1.378 . S
C700 C701 1.367 . S
C701 C700 1.367 . S
C701 C703 1.433 . S
C702 C698 1.350 . S
C702 C699 1.463 . S
C702 N706 1.427 . S
C703 H693 0.929 . S
C703 C701 1.433 . S
C703 N706 1.384 . S
C704 H695 0.929 . S
C704 C696 1.378 . S
C704 C699 1.350 . S
C705 H692 0.929 . S
C705 C697 1.433 . S
C705 N707 1.384 . S
N706 C702 1.427 . S
N706 C703 1.384 . S
N707 C699 1.427 . S
N707 C705 1.384 . S
H708 C714 0.930 . S
H709 C718 0.930 . S
H710 C723 0.929 . S
H711 C721 0.929 . S
H712 C716 0.929 . S
H713 C722 0.929 . S
C714 H708 0.930 . S
C714 C715 1.367 . S
C714 C722 1.378 . S
C715 C714 1.367 . S
C715 C723 1.433 . S
C716 H712 0.929 . S
C716 C718 1.378 . S
C716 C720 1.350 . S
C717 C720 1.463 . S
C717 C722 1.350 . S
C717 N725 1.427 . S
C718 H709 0.930 . S
C718 C716 1.378 . S
C718 C719 1.367 . S
C719 C718 1.367 . S
C719 C721 1.433 . S
C720 C716 1.350 . S
C720 C717 1.463 . S
C720 N724 1.427 . S
C721 H711 0.929 . S
C721 C719 1.433 . S
C721 N724 1.384 . S
C722 H713 0.929 . S
C722 C714 1.378 . S
C722 C717 1.350 . S
C723 H710 0.929 . S
C723 C715 1.433 . S
C723 N725 1.384 . S
N724 C720 1.427 . S
N724 C721 1.384 . S
N725 C717 1.427 . S
N725 C723 1.384 . S
H726 C732 0.930 . S
H727 C736 0.930 . S
H728 C741 0.929 . S
H729 C739 0.929 . S
H730 C734 0.929 . S
H731 C740 0.929 . S
C732 H726 0.930 . S
C732 C733 1.367 . S
C732 C740 1.378 . S
C733 C732 1.367 . S
C733 C741 1.433 . S
C734 H730 0.929 . S
C734 C736 1.378 . S
C734 C738 1.350 . S
C735 C738 1.463 . S
C735 C740 1.350 . S
C735 N743 1.427 . S
C736 H727 0.930 . S
C736 C734 1.378 . S
C736 C737 1.367 . S
C737 C736 1.367 . S
C737 C739 1.433 . S
C738 C734 1.350 . S
C738 C735 1.463 . S
C738 N742 1.427 . S
C739 H729 0.929 . S
C739 C737 1.433 . S
C739 N742 1.384 . S
C740 H731 0.929 . S
C740 C732 1.378 . S
C740 C735 1.350 . S
C741 H728 0.929 . S
C741 C733 1.433 . S
C741 N743 1.384 . S
N742 C738 1.427 . S
N742 C739 1.384 . S
N743 C735 1.427 . S
N743 C741 1.384 . S
H744 C750 0.930 . S
H745 C754 0.930 . S
H746 C759 0.929 . S
H747 C757 0.929 . S
H748 C752 0.929 . S
H749 C758 0.929 . S
C750 H744 0.930 . S
C750 C751 1.367 . S
C750 C758 1.378 . S
C751 C750 1.367 . S
C751 C759 1.433 . S
C752 H748 0.929 . S
C752 C754 1.378 . S
C752 C756 1.350 . S
C753 C756 1.463 . S
C753 C758 1.350 . S
C753 N761 1.427 . S
C754 H745 0.930 . S
C754 C752 1.378 . S
C754 C755 1.367 . S
C755 C754 1.367 . S
C755 C757 1.433 . S
C756 C752 1.350 . S
C756 C753 1.463 . S
C756 N760 1.427 . S
C757 H747 0.929 . S
C757 C755 1.433 . S
C757 N760 1.384 . S
C758 H749 0.929 . S
C758 C750 1.378 . S
C758 C753 1.350 . S
C759 H746 0.929 . S
C759 C751 1.433 . S
C759 N761 1.384 . S
N760 C756 1.427 . S
N760 C757 1.384 . S
N761 C753 1.427 . S
N761 C759 1.384 . S
H762 C768 0.930 . S
H763 C772 0.930 . S
H764 C777 0.929 . S
H765 C775 0.929 . S
H766 C770 0.929 . S
H767 C776 0.929 . S
C768 H762 0.930 . S
C768 C769 1.367 . S
C768 C776 1.378 . S
C769 C768 1.367 . S
C769 C777 1.433 . S
C770 H766 0.929 . S
C770 C772 1.378 . S
C770 C774 1.350 . S
C771 C774 1.463 . S
C771 C776 1.350 . S
C771 N779 1.427 . S
C772 H763 0.930 . S
C772 C770 1.378 . S
C772 C773 1.367 . S
C773 C772 1.367 . S
C773 C775 1.433 . S
C774 C770 1.350 . S
C774 C771 1.463 . S
C774 N778 1.427 . S
C775 H765 0.929 . S
C775 C773 1.433 . S
C775 N778 1.384 . S
C776 H767 0.929 . S
C776 C768 1.378 . S
C776 C771 1.350 . S
C777 H764 0.929 . S
C777 C769 1.433 . S
C777 N779 1.384 . S
N778 C774 1.427 . S
N778 C775 1.384 . S
N779 C771 1.427 . S
N779 C777 1.384 . S
H780 C786 0.930 . S
H781 C790 0.930 . S
H782 C795 0.929 . S
H783 C793 0.929 . S
H784 C788 0.929 . S
H785 C794 0.929 . S
C786 H780 0.930 . S
C786 C787 1.367 . S
C786 C794 1.378 . S
C787 C786 1.367 . S
C787 C795 1.433 . S
C788 H784 0.929 . S
C788 C790 1.378 . S
C788 C792 1.350 . S
C789 C792 1.463 . S
C789 C794 1.350 . S
C789 N797 1.427 . S
C790 H781 0.930 . S
C790 C788 1.378 . S
C790 C791 1.367 . S
C791 C790 1.367 . S
C791 C793 1.433 . S
C792 C788 1.350 . S
C792 C789 1.463 . S
C792 N796 1.427 . S
C793 H783 0.929 . S
C793 C791 1.433 . S
C793 N796 1.384 . S
C794 H785 0.929 . S
C794 C786 1.378 . S
C794 C789 1.350 . S
C795 H782 0.929 . S
C795 C787 1.433 . S
C795 N797 1.384 . S
N796 C792 1.427 . S
N796 C793 1.384 . S
N797 C789 1.427 . S
N797 C795 1.384 . S
H798 C804 0.930 . S
H799 C808 0.930 . S
H800 C813 0.929 . S
H801 C811 0.929 . S
H802 C806 0.929 . S
H803 C812 0.929 . S
C804 H798 0.930 . S
C804 C805 1.367 . S
C804 C812 1.378 . S
C805 C804 1.367 . S
C805 C813 1.433 . S
C806 H802 0.929 . S
C806 C808 1.378 . S
C806 C810 1.350 . S
C807 C810 1.463 . S
C807 C812 1.350 . S
C807 N815 1.427 . S
C808 H799 0.930 . S
C808 C806 1.378 . S
C808 C809 1.367 . S
C809 C808 1.367 . S
C809 C811 1.433 . S
C810 C806 1.350 . S
C810 C807 1.463 . S
C810 N814 1.427 . S
C811 H801 0.929 . S
C811 C809 1.433 . S
C811 N814 1.384 . S
C812 H803 0.929 . S
C812 C804 1.378 . S
C812 C807 1.350 . S
C813 H800 0.929 . S
C813 C805 1.433 . S
C813 N815 1.384 . S
N814 C810 1.427 . S
N814 C811 1.384 . S
N815 C807 1.427 . S
N815 C813 1.384 . S
H816 C822 0.930 . S
H817 C826 0.930 . S
H818 C831 0.929 . S
H819 C829 0.929 . S
H820 C824 0.929 . S
H821 C830 0.929 . S
C822 H816 0.930 . S
C822 C823 1.367 . S
C822 C830 1.378 . S
C823 C822 1.367 . S
C823 C831 1.433 . S
C824 H820 0.929 . S
C824 C826 1.378 . S
C824 C828 1.350 . S
C825 C828 1.463 . S
C825 C830 1.350 . S
C825 N833 1.427 . S
C826 H817 0.930 . S
C826 C824 1.378 . S
C826 C827 1.367 . S
C827 C826 1.367 . S
C827 C829 1.433 . S
C828 C824 1.350 . S
C828 C825 1.463 . S
C828 N832 1.427 . S
C829 H819 0.929 . S
C829 C827 1.433 . S
C829 N832 1.384 . S
C830 H821 0.929 . S
C830 C822 1.378 . S
C830 C825 1.350 . S
C831 H818 0.929 . S
C831 C823 1.433 . S
C831 N833 1.384 . S
N832 C828 1.427 . S
N832 C829 1.384 . S
N833 C825 1.427 . S
N833 C831 1.384 . S
H834 C840 0.930 . S
H835 C844 0.930 . S
H836 C849 0.929 . S
H837 C847 0.929 . S
H838 C842 0.929 . S
H839 C848 0.929 . S
C840 H834 0.930 . S
C840 C841 1.367 . S
C840 C848 1.378 . S
C841 C840 1.367 . S
C841 C849 1.433 . S
C842 H838 0.929 . S
C842 C844 1.378 . S
C842 C846 1.350 . S
C843 C846 1.463 . S
C843 C848 1.350 . S
C843 N851 1.427 . S
C844 H835 0.930 . S
C844 C842 1.378 . S
C844 C845 1.367 . S
C845 C844 1.367 . S
C845 C847 1.433 . S
C846 C842 1.350 . S
C846 C843 1.463 . S
C846 N850 1.427 . S
C847 H837 0.929 . S
C847 C845 1.433 . S
C847 N850 1.384 . S
C848 H839 0.929 . S
C848 C840 1.378 . S
C848 C843 1.350 . S
C849 H836 0.929 . S
C849 C841 1.433 . S
C849 N851 1.384 . S
N850 C846 1.427 . S
N850 C847 1.384 . S
N851 C843 1.427 . S
N851 C849 1.384 . S
H852 C858 0.930 . S
H853 C862 0.930 . S
H854 C867 0.929 . S
H855 C865 0.929 . S
H856 C860 0.929 . S
H857 C866 0.929 . S
C858 H852 0.930 . S
C858 C859 1.367 . S
C858 C866 1.378 . S
C859 C858 1.367 . S
C859 C867 1.433 . S
C860 H856 0.929 . S
C860 C862 1.378 . S
C860 C864 1.350 . S
C861 C864 1.463 . S
C861 C866 1.350 . S
C861 N869 1.427 . S
C862 H853 0.930 . S
C862 C860 1.378 . S
C862 C863 1.367 . S
C863 C862 1.367 . S
C863 C865 1.433 . S
C864 C860 1.350 . S
C864 C861 1.463 . S
C864 N868 1.427 . S
C865 H855 0.929 . S
C865 C863 1.433 . S
C865 N868 1.384 . S
C866 H857 0.929 . S
C866 C858 1.378 . S
C866 C861 1.350 . S
C867 H854 0.929 . S
C867 C859 1.433 . S
C867 N869 1.384 . S
N868 C864 1.427 . S
N868 C865 1.384 . S
N869 C861 1.427 . S
N869 C867 1.384 . S
H870 C876 0.930 . S
H871 C880 0.930 . S
H872 C885 0.929 . S
H873 C883 0.929 . S
H874 C878 0.929 . S
H875 C884 0.929 . S
C876 H870 0.930 . S
C876 C877 1.367 . S
C876 C884 1.378 . S
C877 C876 1.367 . S
C877 C885 1.433 . S
C878 H874 0.929 . S
C878 C880 1.378 . S
C878 C882 1.350 . S
C879 C882 1.463 . S
C879 C884 1.350 . S
C879 N887 1.427 . S
C880 H871 0.930 . S
C880 C878 1.378 . S
C880 C881 1.367 . S
C881 C880 1.367 . S
C881 C883 1.433 . S
C882 C878 1.350 . S
C882 C879 1.463 . S
C882 N886 1.427 . S
C883 H873 0.929 . S
C883 C881 1.433 . S
C883 N886 1.384 . S
C884 H875 0.929 . S
C884 C876 1.378 . S
C884 C879 1.350 . S
C885 H872 0.929 . S
C885 C877 1.433 . S
C885 N887 1.384 . S
N886 C882 1.427 . S
N886 C883 1.384 . S
N887 C879 1.427 . S
N887 C885 1.384 . S
H888 C894 0.930 . S
H889 C898 0.930 . S
H890 C903 0.929 . S
H891 C901 0.929 . S
H892 C896 0.929 . S
H893 C902 0.929 . S
C894 H888 0.930 . S
C894 C895 1.367 . S
C894 C902 1.378 . S
C895 C894 1.367 . S
C895 C903 1.433 . S
C896 H892 0.929 . S
C896 C898 1.378 . S
C896 C900 1.350 . S
C897 C900 1.463 . S
C897 C902 1.350 . S
C897 N905 1.427 . S
C898 H889 0.930 . S
C898 C896 1.378 . S
C898 C899 1.367 . S
C899 C898 1.367 . S
C899 C901 1.433 . S
C900 C896 1.350 . S
C900 C897 1.463 . S
C900 N904 1.427 . S
C901 H891 0.929 . S
C901 C899 1.433 . S
C901 N904 1.384 . S
C902 H893 0.929 . S
C902 C894 1.378 . S
C902 C897 1.350 . S
C903 H890 0.929 . S
C903 C895 1.433 . S
C903 N905 1.384 . S
N904 C900 1.427 . S
N904 C901 1.384 . S
N905 C897 1.427 . S
N905 C903 1.384 . S
H906 C912 0.930 . S
H907 C916 0.930 . S
H908 C921 0.929 . S
H909 C919 0.929 . S
H910 C914 0.929 . S
H911 C920 0.929 . S
C912 H906 0.930 . S
C912 C913 1.367 . S
C912 C920 1.378 . S
C913 C912 1.367 . S
C913 C921 1.433 . S
C914 H910 0.929 . S
C914 C916 1.378 . S
C914 C918 1.350 . S
C915 C918 1.463 . S
C915 C920 1.350 . S
C915 N923 1.427 . S
C916 H907 0.930 . S
C916 C914 1.378 . S
C916 C917 1.367 . S
C917 C916 1.367 . S
C917 C919 1.433 . S
C918 C914 1.350 . S
C918 C915 1.463 . S
C918 N922 1.427 . S
C919 H909 0.929 . S
C919 C917 1.433 . S
C919 N922 1.384 . S
C920 H911 0.929 . S
C920 C912 1.378 . S
C920 C915 1.350 . S
C921 H908 0.929 . S
C921 C913 1.433 . S
C921 N923 1.384 . S
N922 C918 1.427 . S
N922 C919 1.384 . S
N923 C915 1.427 . S
N923 C921 1.384 . S
H924 C930 0.930 . S
H925 C934 0.930 . S
H926 C939 0.929 . S
H927 C937 0.929 . S
H928 C932 0.929 . S
H929 C938 0.929 . S
C930 H924 0.930 . S
C930 C931 1.367 . S
C930 C938 1.378 . S
C931 C930 1.367 . S
C931 C939 1.433 . S
C932 H928 0.929 . S
C932 C934 1.378 . S
C932 C936 1.350 . S
C933 C936 1.463 . S
C933 C938 1.350 . S
C933 N941 1.427 . S
C934 H925 0.930 . S
C934 C932 1.378 . S
C934 C935 1.367 . S
C935 C934 1.367 . S
C935 C937 1.433 . S
C936 C932 1.350 . S
C936 C933 1.463 . S
C936 N940 1.427 . S
C937 H927 0.929 . S
C937 C935 1.433 . S
C937 N940 1.384 . S
C938 H929 0.929 . S
C938 C930 1.378 . S
C938 C933 1.350 . S
C939 H926 0.929 . S
C939 C931 1.433 . S
C939 N941 1.384 . S
N940 C936 1.427 . S
N940 C937 1.384 . S
N941 C933 1.427 . S
N941 C939 1.384 . S
H942 C948 0.930 . S
H943 C952 0.930 . S
H944 C957 0.929 . S
H945 C955 0.929 . S
H946 C950 0.929 . S
H947 C956 0.929 . S
C948 H942 0.930 . S
C948 C949 1.367 . S
C948 C956 1.378 . S
C949 C948 1.367 . S
C949 C957 1.433 . S
C950 H946 0.929 . S
C950 C952 1.378 . S
C950 C954 1.350 . S
C951 C954 1.463 . S
C951 C956 1.350 . S
C951 N959 1.427 . S
C952 H943 0.930 . S
C952 C950 1.378 . S
C952 C953 1.367 . S
C953 C952 1.367 . S
C953 C955 1.433 . S
C954 C950 1.350 . S
C954 C951 1.463 . S
C954 N958 1.427 . S
C955 H945 0.929 . S
C955 C953 1.433 . S
C955 N958 1.384 . S
C956 H947 0.929 . S
C956 C948 1.378 . S
C956 C951 1.350 . S
C957 H944 0.929 . S
C957 C949 1.433 . S
C957 N959 1.384 . S
N958 C954 1.427 . S
N958 C955 1.384 . S
N959 C951 1.427 . S
N959 C957 1.384 . S
H960 C966 0.930 . S
H961 C970 0.930 . S
H962 C975 0.929 . S
H963 C973 0.929 . S
H964 C968 0.929 . S
H965 C974 0.929 . S
C966 H960 0.930 . S
C966 C967 1.367 . S
C966 C974 1.378 . S
C967 C966 1.367 . S
C967 C975 1.433 . S
C968 H964 0.929 . S
C968 C970 1.378 . S
C968 C972 1.350 . S
C969 C972 1.463 . S
C969 C974 1.350 . S
C969 N977 1.427 . S
C970 H961 0.930 . S
C970 C968 1.378 . S
C970 C971 1.367 . S
C971 C970 1.367 . S
C971 C973 1.433 . S
C972 C968 1.350 . S
C972 C969 1.463 . S
C972 N976 1.427 . S
C973 H963 0.929 . S
C973 C971 1.433 . S
C973 N976 1.384 . S
C974 H965 0.929 . S
C974 C966 1.378 . S
C974 C969 1.350 . S
C975 H962 0.929 . S
C975 C967 1.433 . S
C975 N977 1.384 . S
N976 C972 1.427 . S
N976 C973 1.384 . S
N977 C969 1.427 . S
N977 C975 1.384 . S
H978 C984 0.930 . S
H979 C988 0.930 . S
H980 C993 0.929 . S
H981 C991 0.929 . S
H982 C986 0.929 . S
H983 C992 0.929 . S
C984 H978 0.930 . S
C984 C985 1.367 . S
C984 C992 1.378 . S
C985 C984 1.367 . S
C985 C993 1.433 . S
C986 H982 0.929 . S
C986 C988 1.378 . S
C986 C990 1.350 . S
C987 C990 1.463 . S
C987 C992 1.350 . S
C987 N995 1.427 . S
C988 H979 0.930 . S
C988 C986 1.378 . S
C988 C989 1.367 . S
C989 C988 1.367 . S
C989 C991 1.433 . S
C990 C986 1.350 . S
C990 C987 1.463 . S
C990 N994 1.427 . S
C991 H981 0.929 . S
C991 C989 1.433 . S
C991 N994 1.384 . S
C992 H983 0.929 . S
C992 C984 1.378 . S
C992 C987 1.350 . S
C993 H980 0.929 . S
C993 C985 1.433 . S
C993 N995 1.384 . S
N994 C990 1.427 . S
N994 C991 1.384 . S
N995 C987 1.427 . S
N995 C993 1.384 . S
H996 C1002 0.930 . S
H997 C1006 0.930 . S
H998 C1011 0.929 . S
H999 C1009 0.929 . S
H1000 C1004 0.929 . S
H1001 C1010 0.929 . S
C1002 H996 0.930 . S
C1002 C1003 1.367 . S
C1002 C1010 1.378 . S
C1003 C1002 1.367 . S
C1003 C1011 1.433 . S
C1004 H1000 0.929 . S
C1004 C1006 1.378 . S
C1004 C1008 1.350 . S
C1005 C1008 1.463 . S
C1005 C1010 1.350 . S
C1005 N1013 1.427 . S
C1006 H997 0.930 . S
C1006 C1004 1.378 . S
C1006 C1007 1.367 . S
C1007 C1006 1.367 . S
C1007 C1009 1.433 . S
C1008 C1004 1.350 . S
C1008 C1005 1.463 . S
C1008 N1012 1.427 . S
C1009 H999 0.929 . S
C1009 C1007 1.433 . S
C1009 N1012 1.384 . S
C1010 H1001 0.929 . S
C1010 C1002 1.378 . S
C1010 C1005 1.350 . S
C1011 H998 0.929 . S
C1011 C1003 1.433 . S
C1011 N1013 1.384 . S
N1012 C1008 1.427 . S
N1012 C1009 1.384 . S
N1013 C1005 1.427 . S
N1013 C1011 1.384 . S
H1014 C1020 0.930 . S
H1015 C1024 0.930 . S
H1016 C1029 0.929 . S
H1017 C1027 0.929 . S
H1018 C1022 0.929 . S
H1019 C1028 0.929 . S
C1020 H1014 0.930 . S
C1020 C1021 1.367 . S
C1020 C1028 1.378 . S
C1021 C1020 1.367 . S
C1021 C1029 1.433 . S
C1022 H1018 0.929 . S
C1022 C1024 1.378 . S
C1022 C1026 1.350 . S
C1023 C1026 1.463 . S
C1023 C1028 1.350 . S
C1023 N1031 1.427 . S
C1024 H1015 0.930 . S
C1024 C1022 1.378 . S
C1024 C1025 1.367 . S
C1025 C1024 1.367 . S
C1025 C1027 1.433 . S
C1026 C1022 1.350 . S
C1026 C1023 1.463 . S
C1026 N1030 1.427 . S
C1027 H1017 0.929 . S
C1027 C1025 1.433 . S
C1027 N1030 1.384 . S
C1028 H1019 0.929 . S
C1028 C1020 1.378 . S
C1028 C1023 1.350 . S
C1029 H1016 0.929 . S
C1029 C1021 1.433 . S
C1029 N1031 1.384 . S
N1030 C1026 1.427 . S
N1030 C1027 1.384 . S
N1031 C1023 1.427 . S
N1031 C1029 1.384 . S
H1032 C1038 0.930 . S
H1033 C1042 0.930 . S
H1034 C1047 0.929 . S
H1035 C1045 0.929 . S
H1036 C1040 0.929 . S
H1037 C1046 0.929 . S
C1038 H1032 0.930 . S
C1038 C1039 1.367 . S
C1038 C1046 1.378 . S
C1039 C1038 1.367 . S
C1039 C1047 1.433 . S
C1040 H1036 0.929 . S
C1040 C1042 1.378 . S
C1040 C1044 1.350 . S
C1041 C1044 1.463 . S
C1041 C1046 1.350 . S
C1041 N1049 1.427 . S
C1042 H1033 0.930 . S
C1042 C1040 1.378 . S
C1042 C1043 1.367 . S
C1043 C1042 1.367 . S
C1043 C1045 1.433 . S
C1044 C1040 1.350 . S
C1044 C1041 1.463 . S
C1044 N1048 1.427 . S
C1045 H1035 0.929 . S
C1045 C1043 1.433 . S
C1045 N1048 1.384 . S
C1046 H1037 0.929 . S
C1046 C1038 1.378 . S
C1046 C1041 1.350 . S
C1047 H1034 0.929 . S
C1047 C1039 1.433 . S
C1047 N1049 1.384 . S
N1048 C1044 1.427 . S
N1048 C1045 1.384 . S
N1049 C1041 1.427 . S
N1049 C1047 1.384 . S
H1050 C1056 0.930 . S
H1051 C1060 0.930 . S
H1052 C1065 0.929 . S
H1053 C1063 0.929 . S
H1054 C1058 0.929 . S
H1055 C1064 0.929 . S
C1056 H1050 0.930 . S
C1056 C1057 1.367 . S
C1056 C1064 1.378 . S
C1057 C1056 1.367 . S
C1057 C1065 1.433 . S
C1058 H1054 0.929 . S
C1058 C1060 1.378 . S
C1058 C1062 1.350 . S
C1059 C1062 1.463 . S
C1059 C1064 1.350 . S
C1059 N1067 1.427 . S
C1060 H1051 0.930 . S
C1060 C1058 1.378 . S
C1060 C1061 1.367 . S
C1061 C1060 1.367 . S
C1061 C1063 1.433 . S
C1062 C1058 1.350 . S
C1062 C1059 1.463 . S
C1062 N1066 1.427 . S
C1063 H1053 0.929 . S
C1063 C1061 1.433 . S
C1063 N1066 1.384 . S
C1064 H1055 0.929 . S
C1064 C1056 1.378 . S
C1064 C1059 1.350 . S
C1065 H1052 0.929 . S
C1065 C1057 1.433 . S
C1065 N1067 1.384 . S
N1066 C1062 1.427 . S
N1066 C1063 1.384 . S
N1067 C1059 1.427 . S
N1067 C1065 1.384 . S
H1068 C1074 0.930 . S
H1069 C1078 0.930 . S
H1070 C1083 0.929 . S
H1071 C1081 0.929 . S
H1072 C1076 0.929 . S
H1073 C1082 0.929 . S
C1074 H1068 0.930 . S
C1074 C1075 1.367 . S
C1074 C1082 1.378 . S
C1075 C1074 1.367 . S
C1075 C1083 1.433 . S
C1076 H1072 0.929 . S
C1076 C1078 1.378 . S
C1076 C1080 1.350 . S
C1077 C1080 1.463 . S
C1077 C1082 1.350 . S
C1077 N1085 1.427 . S
C1078 H1069 0.930 . S
C1078 C1076 1.378 . S
C1078 C1079 1.367 . S
C1079 C1078 1.367 . S
C1079 C1081 1.433 . S
C1080 C1076 1.350 . S
C1080 C1077 1.463 . S
C1080 N1084 1.427 . S
C1081 H1071 0.929 . S
C1081 C1079 1.433 . S
C1081 N1084 1.384 . S
C1082 H1073 0.929 . S
C1082 C1074 1.378 . S
C1082 C1077 1.350 . S
C1083 H1070 0.929 . S
C1083 C1075 1.433 . S
C1083 N1085 1.384 . S
N1084 C1080 1.427 . S
N1084 C1081 1.384 . S
N1085 C1077 1.427 . S
N1085 C1083 1.384 . S
H1086 C1092 0.930 . S
H1087 C1096 0.930 . S
H1088 C1101 0.929 . S
H1089 C1099 0.929 . S
H1090 C1094 0.929 . S
H1091 C1100 0.929 . S
C1092 H1086 0.930 . S
C1092 C1093 1.367 . S
C1092 C1100 1.378 . S
C1093 C1092 1.367 . S
C1093 C1101 1.433 . S
C1094 H1090 0.929 . S
C1094 C1096 1.378 . S
C1094 C1098 1.350 . S
C1095 C1098 1.463 . S
C1095 C1100 1.350 . S
C1095 N1103 1.427 . S
C1096 H1087 0.930 . S
C1096 C1094 1.378 . S
C1096 C1097 1.367 . S
C1097 C1096 1.367 . S
C1097 C1099 1.433 . S
C1098 C1094 1.350 . S
C1098 C1095 1.463 . S
C1098 N1102 1.427 . S
C1099 H1089 0.929 . S
C1099 C1097 1.433 . S
C1099 N1102 1.384 . S
C1100 H1091 0.929 . S
C1100 C1092 1.378 . S
C1100 C1095 1.350 . S
C1101 H1088 0.929 . S
C1101 C1093 1.433 . S
C1101 N1103 1.384 . S
N1102 C1098 1.427 . S
N1102 C1099 1.384 . S
N1103 C1095 1.427 . S
N1103 C1101 1.384 . S
C355 C216 2.442 . S
C359 C5 2.637 . S
C373 C34 2.635 . S
C377 C245 2.437 . S
C391 C63 2.635 . S
C395 C187 2.441 . S
C409 C92 2.634 . S
C413 C332 2.434 . S
C427 C274 2.433 . S
C431 C121 2.633 . S
C445 C150 2.636 . S
C449 C303 2.443 . S
C463 C179 2.634 . S
C467 C42 2.437 . S
C481 C208 2.638 . S
C485 C71 2.443 . S
C499 C13 2.434 . S
C503 C237 2.633 . S
C517 C266 2.633 . S
C521 C158 2.436 . S
C535 C295 2.633 . S
C539 C100 2.435 . S
C553 C129 2.438 . S
C557 C324 2.634 . S
C571 C15 1.439 . S
C575 C102 1.441 . S
C589 C44 1.447 . S
C593 C131 1.447 . S
C607 C73 1.450 . S
C611 C160 1.440 . S
C625 C276 1.437 . S
C629 C189 1.445 . S
C643 C305 1.437 . S
C647 C218 1.443 . S
C661 C334 1.440 . S
C665 C247 1.449 . S
C679 C21 1.728 . S
C683 C39 1.555 . S
C697 C50 1.731 . S
C701 C68 1.557 . S
C715 C79 1.731 . S
C719 C10 1.568 . S
C733 C155 1.565 . S
C737 C108 1.719 . S
C751 C137 1.732 . S
C755 C97 1.559 . S
C769 C126 1.571 . S
C773 C166 1.718 . S
C787 C213 1.555 . S
C791 C195 1.728 . S
C805 C224 1.731 . S
C809 C242 1.566 . S
C823 C253 1.719 . S
C827 C184 1.576 . S
C841 C282 1.731 . S
C845 C329 1.557 . S
C859 C311 1.719 . S
C863 C271 1.574 . S
C877 C340 1.729 . S
C881 C300 1.572 . S
C895 C298 1.135 . S
C899 C3 1.161 . S
C913 C327 1.135 . S
C917 C32 1.171 . S
C931 C61 1.173 . S
C935 C269 1.132 . S
C949 C90 1.168 . S
C953 C240 1.138 . S
C967 C119 1.161 . S
C971 C182 1.136 . S
C985 C211 1.139 . S
C989 C148 1.164 . S
C1003 C177 1.168 . S
C1007 C124 1.115 . S
C1021 C206 1.164 . S
C1025 C153 1.116 . S
C1039 C235 1.161 . S
C1043 C95 1.119 . S
C1057 C264 1.163 . S
C1061 C66 1.138 . S
C1075 C293 1.167 . S
C1079 C8 1.138 . S
C1093 C322 1.161 . S
C1097 C37 1.137 . S
