# Generated by pormake.
# Topology acs-h, (5)-cn, num edge types: 1
# Building blocks:
#     Node 0, Type 0, BuildingBlock: XOMCOT_clean_sbu_1, # of connection points: 5
#     Node 1, Type 0, BuildingBlock: XOMCOT_clean_sbu_1, # of connection points: 5
#     Node 2, Type 0, BuildingBlock: XOMCOT_clean_sbu_1, # of connection points: 5
#     Node 3, Type 0, BuildingBlock: XOMCOT_clean_sbu_1, # of connection points: 5
#     Node 4, Type 0, BuildingBlock: XOMCOT_clean_sbu_1, # of connection points: 5
#     Node 5, Type 0, BuildingBlock: XOMCOT_clean_sbu_1, # of connection points: 5
#     Node 6, Type 0, BuildingBlock: XOMCOT_clean_sbu_1, # of connection points: 5
#     Node 7, Type 0, BuildingBlock: XOMCOT_clean_sbu_1, # of connection points: 5
#     Node 8, Type 0, BuildingBlock: XOMCOT_clean_sbu_1, # of connection points: 5
#     Node 9, Type 0, BuildingBlock: XOMCOT_clean_sbu_1, # of connection points: 5
#     Node 10, Type 0, BuildingBlock: XOMCOT_clean_sbu_1, # of connection points: 5
#     Node 11, Type 0, BuildingBlock: XOMCOT_clean_sbu_1, # of connection points: 5
#     Edge 12, Type (0, 0), BuildingBlock: MIFKUJ_clean_linker_0, # of connection points: 2
#     Edge 13, Type (0, 0), BuildingBlock: MIFKUJ_clean_linker_0, # of connection points: 2
#     Edge 14, Type (0, 0), BuildingBlock: MIFKUJ_clean_linker_0, # of connection points: 2
#     Edge 15, Type (0, 0), BuildingBlock: MIFKUJ_clean_linker_0, # of connection points: 2
#     Edge 16, Type (0, 0), BuildingBlock: MIFKUJ_clean_linker_0, # of connection points: 2
#     Edge 17, Type (0, 0), BuildingBlock: MIFKUJ_clean_linker_0, # of connection points: 2
#     Edge 18, Type (0, 0), BuildingBlock: MIFKUJ_clean_linker_0, # of connection points: 2
#     Edge 19, Type (0, 0), BuildingBlock: MIFKUJ_clean_linker_0, # of connection points: 2
#     Edge 20, Type (0, 0), BuildingBlock: MIFKUJ_clean_linker_0, # of connection points: 2
#     Edge 21, Type (0, 0), BuildingBlock: MIFKUJ_clean_linker_0, # of connection points: 2
#     Edge 22, Type (0, 0), BuildingBlock: MIFKUJ_clean_linker_0, # of connection points: 2
#     Edge 23, Type (0, 0), BuildingBlock: MIFKUJ_clean_linker_0, # of connection points: 2
#     Edge 24, Type (0, 0), BuildingBlock: MIFKUJ_clean_linker_0, # of connection points: 2
#     Edge 25, Type (0, 0), BuildingBlock: MIFKUJ_clean_linker_0, # of connection points: 2
#     Edge 26, Type (0, 0), BuildingBlock: MIFKUJ_clean_linker_0, # of connection points: 2
#     Edge 27, Type (0, 0), BuildingBlock: MIFKUJ_clean_linker_0, # of connection points: 2
#     Edge 28, Type (0, 0), BuildingBlock: MIFKUJ_clean_linker_0, # of connection points: 2
#     Edge 29, Type (0, 0), BuildingBlock: MIFKUJ_clean_linker_0, # of connection points: 2
#     Edge 30, Type (0, 0), BuildingBlock: MIFKUJ_clean_linker_0, # of connection points: 2
#     Edge 31, Type (0, 0), BuildingBlock: MIFKUJ_clean_linker_0, # of connection points: 2
#     Edge 32, Type (0, 0), BuildingBlock: MIFKUJ_clean_linker_0, # of connection points: 2
#     Edge 33, Type (0, 0), BuildingBlock: MIFKUJ_clean_linker_0, # of connection points: 2
#     Edge 34, Type (0, 0), BuildingBlock: MIFKUJ_clean_linker_0, # of connection points: 2
#     Edge 35, Type (0, 0), BuildingBlock: MIFKUJ_clean_linker_0, # of connection points: 2
#     Edge 36, Type (0, 0), BuildingBlock: MIFKUJ_clean_linker_0, # of connection points: 2
#     Edge 37, Type (0, 0), BuildingBlock: MIFKUJ_clean_linker_0, # of connection points: 2
#     Edge 38, Type (0, 0), BuildingBlock: MIFKUJ_clean_linker_0, # of connection points: 2
#     Edge 39, Type (0, 0), BuildingBlock: MIFKUJ_clean_linker_0, # of connection points: 2
#     Edge 40, Type (0, 0), BuildingBlock: MIFKUJ_clean_linker_0, # of connection points: 2
#     Edge 41, Type (0, 0), BuildingBlock: MIFKUJ_clean_linker_0, # of connection points: 2
# Relax obj value: 0.901
# Max RMSD: 0.275
# Mean RMSD: 0.275
data_MOF--net-acs-h--node1-XOMCOT_clean_sbu_1--edge1-MIFKUJ_clean_linker_0
_symmetry_space_group_name_H-M    P1
_symmetry_Int_Tables_number       1
_symmetry_cell_setting            triclinic
loop_
_symmetry_equiv_pos_as_xyz
'x, y, z'
_cell_length_a     59.2581
_cell_length_b     59.213769
_cell_length_c     49.922765
_cell_angle_alpha  90.02411
_cell_angle_beta   89.95148
_cell_angle_gamma 120.04852
loop_
_atom_site_label
_atom_site_type_symbol
_atom_site_fract_x
_atom_site_fract_y
_atom_site_fract_z
_atom_type_partial_charge
C0 C 0.5013 0.17844 0.04562 0.0
C1 C 0.52727 0.18655 0.04197 0.0
N2 N 0.53664 0.18236 0.0649 0.0
N3 N 0.49437 0.16929 0.07073 0.0
C4 C 0.51623 0.17179 0.08196 0.0
H5 H 0.48827 0.17921 0.03097 0.0
Co6 Co 0.46129 0.15601 0.08488 0.0
C7 C 0.46665 0.14674 0.14299 0.0
O8 O 0.44266 0.12714 0.14498 0.0
N9 N 0.42746 0.14279 0.09871 0.0
C10 C 0.38519 0.11912 0.10879 0.0
C11 C 0.40532 0.11983 0.09429 0.0
C12 C 0.42012 0.15567 0.11571 0.0
N13 N 0.39463 0.14182 0.12206 0.0
O14 O 0.46813 0.19065 0.0896 0.0
H15 H 0.40358 0.10434 0.08151 0.0
H16 H 0.43343 0.17464 0.12407 0.0
O17 O 0.47513 0.15828 0.12058 0.0
C18 C 0.46289 0.203 0.0722 0.0
O19 O 0.45041 0.19091 0.05029 0.0
N20 N 0.45574 0.12247 0.07868 0.0
C21 C 0.45551 0.07872 0.05779 0.0
C22 C 0.46577 0.08815 0.08331 0.0
C23 C 0.46603 0.11026 0.09327 0.0
C24 C 0.44519 0.11324 0.05409 0.0
C25 C 0.44457 0.09119 0.04336 0.0
H26 H 0.47636 0.11835 0.11167 0.0
H27 H 0.43817 0.12378 0.04229 0.0
H28 H 0.51713 0.16559 0.1021 0.0
H29 H 0.53845 0.1953 0.02396 0.0
H30 H 0.36519 0.1033 0.10937 0.0
H31 H 0.47526 0.07968 0.09471 0.0
H32 H 0.43654 0.0846 0.02354 0.0
C33 C 0.8514 0.35425 0.06177 0.0
C34 C 0.84265 0.37122 0.05569 0.0
N35 N 0.8327 0.37547 0.07815 0.0
N36 N 0.84724 0.3481 0.08798 0.0
C37 C 0.83554 0.36106 0.09735 0.0
H38 H 0.86064 0.34717 0.0481 0.0
Co39 Co 0.85727 0.32721 0.10605 0.0
C40 C 0.87058 0.3504 0.16093 0.0
O41 O 0.89136 0.34784 0.16194 0.0
N42 N 0.86663 0.30512 0.12366 0.0
C43 C 0.8773 0.27469 0.1324 0.0
C44 C 0.8794 0.29315 0.11424 0.0
C45 C 0.85652 0.29311 0.14724 0.0
N46 N 0.86305 0.27496 0.15318 0.0
O47 O 0.82174 0.30191 0.11103 0.0
H48 H 0.88816 0.29599 0.09472 0.0
H49 H 0.84303 0.29629 0.15905 0.0
O50 O 0.85614 0.34298 0.14009 0.0
C51 C 0.8095 0.28592 0.09229 0.0
O52 O 0.82223 0.28652 0.07049 0.0
N53 N 0.89227 0.35276 0.09975 0.0
C54 C 0.9388 0.39283 0.07846 0.0
C55 C 0.92587 0.39781 0.09911 0.0
C56 C 0.90247 0.37772 0.10905 0.0
C57 C 0.90462 0.34756 0.07967 0.0
C58 C 0.92821 0.36715 0.06916 0.0
H59 H 0.89154 0.38311 0.12221 0.0
H60 H 0.89502 0.32882 0.06989 0.0
H61 H 0.82984 0.36054 0.11799 0.0
H62 H 0.84355 0.37976 0.03627 0.0
H63 H 0.88471 0.2614 0.13004 0.0
H64 H 0.9324 0.41752 0.1059 0.0
H65 H 0.93712 0.36253 0.0527 0.0
C66 C 0.67111 0.51307 0.05372 0.0
C67 C 0.65365 0.48833 0.04498 0.0
N68 N 0.63452 0.47678 0.06342 0.0
N69 N 0.66311 0.51713 0.07755 0.0
C70 C 0.64068 0.49489 0.08279 0.0
H71 H 0.68867 0.52719 0.0435 0.0
Co72 Co 0.68082 0.54741 0.09735 0.0
C73 C 0.65573 0.53331 0.15292 0.0
O74 O 0.66469 0.55754 0.1606 0.0
N75 N 0.69961 0.57847 0.11613 0.0
C76 C 0.72195 0.6206 0.12705 0.0
C77 C 0.70483 0.60261 0.10889 0.0
C78 C 0.71411 0.5823 0.13822 0.0
N79 N 0.72737 0.60753 0.14556 0.0
O80 O 0.70534 0.5371 0.10708 0.0
H81 H 0.69726 0.60702 0.09119 0.0
H82 H 0.71515 0.56683 0.14868 0.0
O83 O 0.66054 0.52846 0.12928 0.0
C84 C 0.72665 0.54447 0.09472 0.0
O85 O 0.7336 0.56197 0.07562 0.0
N86 N 0.65643 0.55679 0.0864 0.0
C87 C 0.61548 0.55762 0.0602 0.0
C88 C 0.61466 0.55376 0.08798 0.0
C89 C 0.63539 0.5535 0.10073 0.0
C90 C 0.6589 0.56354 0.06002 0.0
C91 C 0.63859 0.56405 0.04645 0.0
H92 H 0.63327 0.5489 0.12162 0.0
H93 H 0.6759 0.56651 0.049 0.0
H94 H 0.62935 0.49191 0.10071 0.0
H95 H 0.65517 0.47961 0.02653 0.0
H96 H 0.72983 0.6415 0.12668 0.0
H97 H 0.59727 0.54867 0.09952 0.0
H98 H 0.64031 0.56774 0.02509 0.0
C99 C 0.83764 0.49469 0.45111 0.0
C100 C 0.83021 0.46913 0.45644 0.0
N101 N 0.82662 0.45654 0.43295 0.0
N102 N 0.83879 0.49829 0.42441 0.0
C103 C 0.83195 0.47471 0.41383 0.0
H104 H 0.8419 0.50977 0.46575 0.0
Co105 Co 0.84844 0.53025 0.40872 0.0
C106 C 0.86114 0.52574 0.35168 0.0
O107 O 0.88025 0.5501 0.35126 0.0
N108 N 0.85777 0.56283 0.39376 0.0
C109 C 0.87535 0.60498 0.38376 0.0
C110 C 0.87666 0.58718 0.40046 0.0
C111 C 0.84499 0.56648 0.37339 0.0
N112 N 0.85536 0.59184 0.36674 0.0
O113 O 0.81272 0.51938 0.40374 0.0
H114 H 0.89059 0.59209 0.41643 0.0
H115 H 0.82882 0.55058 0.36301 0.0
O116 O 0.84812 0.51613 0.37322 0.0
C117 C 0.79921 0.52102 0.42258 0.0
O118 O 0.81064 0.53186 0.44534 0.0
N119 N 0.88324 0.54007 0.41517 0.0
C120 C 0.92841 0.5448 0.43757 0.0
C121 C 0.91919 0.53232 0.41288 0.0
C122 C 0.89626 0.5296 0.40233 0.0
C123 C 0.89248 0.5531 0.43875 0.0
C124 C 0.91523 0.55598 0.4502 0.0
H125 H 0.88801 0.51683 0.38539 0.0
H126 H 0.88106 0.55967 0.44969 0.0
H127 H 0.83116 0.47097 0.39257 0.0
H128 H 0.82716 0.46042 0.47612 0.0
H129 H 0.888 0.62594 0.3843 0.0
H130 H 0.9281 0.52238 0.4031 0.0
H131 H 0.92146 0.56532 0.46957 0.0
C132 C 0.48523 0.31448 0.42084 0.0
C133 C 0.51085 0.32824 0.42886 0.0
N134 N 0.52467 0.34557 0.40951 0.0
N135 N 0.48296 0.32317 0.39665 0.0
C136 C 0.50734 0.34202 0.39013 0.0
H137 H 0.4691 0.29951 0.43216 0.0
Co138 Co 0.45132 0.31181 0.38002 0.0
C139 C 0.46316 0.3417 0.32895 0.0
O140 O 0.44186 0.34319 0.33154 0.0
N141 N 0.41864 0.29916 0.36393 0.0
C142 C 0.37582 0.27996 0.35675 0.0
C143 C 0.39565 0.29419 0.37471 0.0
C144 C 0.41222 0.28769 0.33963 0.0
N145 N 0.38652 0.27623 0.33468 0.0
O146 O 0.45242 0.28197 0.36761 0.0
H147 H 0.39295 0.29901 0.39484 0.0
H148 H 0.42598 0.28632 0.32639 0.0
O149 O 0.46902 0.33011 0.34694 0.0
C150 C 0.43821 0.25995 0.37874 0.0
O151 O 0.42148 0.25785 0.39723 0.0
N152 N 0.45091 0.341 0.39422 0.0
C153 C 0.45822 0.38221 0.4272 0.0
C154 C 0.47091 0.387 0.40244 0.0
C155 C 0.46746 0.36621 0.38655 0.0
C156 C 0.43801 0.33599 0.41805 0.0
C157 C 0.44114 0.3563 0.43475 0.0
H158 H 0.48017 0.37085 0.36957 0.0
H159 H 0.42676 0.31611 0.42511 0.0
H160 H 0.51217 0.35374 0.37215 0.0
H161 H 0.51866 0.32582 0.44754 0.0
H162 H 0.35516 0.2721 0.36003 0.0
H163 H 0.48518 0.40663 0.39636 0.0
H164 H 0.43132 0.35174 0.45396 0.0
C165 C 0.63848 0.17385 0.42102 0.0
C166 C 0.61839 0.17855 0.4255 0.0
N167 N 0.59744 0.16096 0.41155 0.0
N168 N 0.63028 0.15316 0.40451 0.0
C169 C 0.60518 0.14568 0.39914 0.0
H170 H 0.65793 0.18523 0.42906 0.0
Co171 Co 0.64925 0.13843 0.3912 0.0
C172 C 0.62809 0.13113 0.34127 0.0
O173 O 0.61571 0.10709 0.35042 0.0
N174 N 0.66817 0.12345 0.37733 0.0
C175 C 0.68313 0.09717 0.3647 0.0
C176 C 0.66407 0.09885 0.37898 0.0
C177 C 0.68923 0.13598 0.36137 0.0
N178 N 0.69904 0.12076 0.35413 0.0
O179 O 0.68115 0.17185 0.39533 0.0
H180 H 0.6482 0.08289 0.38951 0.0
H181 H 0.69719 0.15596 0.35477 0.0
O182 O 0.64566 0.14883 0.35585 0.0
C183 C 0.70446 0.18016 0.40332 0.0
O184 O 0.7115 0.16388 0.41274 0.0
N185 N 0.65045 0.12698 0.42593 0.0
C186 C 0.63624 0.10567 0.47709 0.0
C187 C 0.62397 0.0906 0.45439 0.0
C188 C 0.63097 0.10185 0.42911 0.0
C189 C 0.66334 0.14175 0.44782 0.0
C190 C 0.65653 0.13137 0.47364 0.0
H191 H 0.6194 0.09107 0.412 0.0
H192 H 0.67726 0.16221 0.44606 0.0
H193 H 0.59319 0.12988 0.38562 0.0
H194 H 0.6194 0.19401 0.43789 0.0
H195 H 0.68531 0.08017 0.36246 0.0
H196 H 0.60749 0.071 0.45625 0.0
H197 H 0.66585 0.1438 0.4908 0.0
C198 C 0.49479 0.80593 0.94024 0.0
C199 C 0.46878 0.79792 0.94391 0.0
N200 N 0.46196 0.81055 0.92604 0.0
N201 N 0.50415 0.82331 0.92003 0.0
C202 C 0.48384 0.82592 0.91205 0.0
H203 H 0.50604 0.79922 0.95123 0.0
Co204 Co 0.53729 0.8394 0.90544 0.0
C205 C 0.52842 0.85012 0.84781 0.0
O206 O 0.55286 0.86645 0.84165 0.0
N207 N 0.5711 0.85576 0.89098 0.0
C208 C 0.61214 0.88481 0.88013 0.0
C209 C 0.59132 0.87993 0.89622 0.0
C210 C 0.58046 0.84614 0.87223 0.0
N211 N 0.60519 0.86344 0.86527 0.0
O212 O 0.53132 0.80592 0.8954 0.0
H213 H 0.59106 0.89358 0.91038 0.0
H214 H 0.56895 0.82736 0.86263 0.0
O215 O 0.52232 0.84044 0.87128 0.0
C216 C 0.53932 0.79223 0.90719 0.0
O217 O 0.55708 0.80273 0.92603 0.0
N218 N 0.54167 0.8714 0.91669 0.0
C219 C 0.53901 0.91164 0.94257 0.0
C220 C 0.53485 0.90795 0.91485 0.0
C221 C 0.53637 0.88776 0.90224 0.0
C222 C 0.54726 0.87559 0.94329 0.0
C223 C 0.54623 0.89573 0.95664 0.0
H224 H 0.53182 0.88473 0.88127 0.0
H225 H 0.55134 0.86236 0.95442 0.0
H226 H 0.48493 0.83842 0.89574 0.0
H227 H 0.45595 0.78384 0.95853 0.0
H228 H 0.63076 0.90271 0.87914 0.0
H229 H 0.52889 0.91948 0.90318 0.0
H230 H 0.55009 0.89815 0.97796 0.0
C231 C 0.17711 0.67659 0.92497 0.0
C232 C 0.18621 0.6601 0.93229 0.0
N233 N 0.18077 0.64287 0.91229 0.0
N234 N 0.16636 0.66991 0.90036 0.0
C235 C 0.16893 0.64933 0.89329 0.0
H236 H 0.17802 0.69226 0.93692 0.0
Co237 Co 0.15052 0.68532 0.88146 0.0
C238 C 0.15398 0.67189 0.82529 0.0
O239 O 0.1627 0.69617 0.8179 0.0
N240 N 0.13426 0.70085 0.86279 0.0
C241 C 0.10637 0.70673 0.83811 0.0
C242 C 0.11013 0.68882 0.85196 0.0
C243 C 0.14458 0.72604 0.85542 0.0
N244 N 0.12821 0.7302 0.84011 0.0
O245 O 0.18426 0.71181 0.8702 0.0
H246 H 0.09644 0.66812 0.85299 0.0
H247 H 0.16442 0.7408 0.85959 0.0
O248 O 0.14825 0.66539 0.84977 0.0
C249 C 0.19738 0.73113 0.88565 0.0
O250 O 0.18587 0.73418 0.90673 0.0
N251 N 0.11839 0.65939 0.89418 0.0
C252 C 0.07692 0.62153 0.92379 0.0
C253 C 0.08605 0.61468 0.90101 0.0
C254 C 0.10684 0.63388 0.88648 0.0
C255 C 0.10896 0.66669 0.91531 0.0
C256 C 0.08806 0.64803 0.93038 0.0
H257 H 0.1145 0.62778 0.87018 0.0
H258 H 0.11864 0.68697 0.92131 0.0
H259 H 0.16239 0.63918 0.87454 0.0
H260 H 0.1956 0.66043 0.95099 0.0
H261 H 0.08923 0.70245 0.82658 0.0
H262 H 0.07854 0.59447 0.89547 0.0
H263 H 0.0815 0.65419 0.9477 0.0
C264 C 0.31248 0.48838 0.93364 0.0
C265 C 0.32996 0.51365 0.94102 0.0
N266 N 0.35117 0.52247 0.92521 0.0
N267 N 0.32254 0.48148 0.91311 0.0
C268 C 0.34624 0.5025 0.90868 0.0
H269 H 0.29341 0.47602 0.94228 0.0
Co270 Co 0.30579 0.45025 0.89454 0.0
C271 C 0.3352 0.46185 0.84183 0.0
O272 O 0.32994 0.43775 0.83793 0.0
N273 N 0.28822 0.41854 0.87635 0.0
C274 C 0.26904 0.37671 0.86447 0.0
C275 C 0.28284 0.39453 0.88432 0.0
C276 C 0.27694 0.41469 0.85206 0.0
N277 N 0.26571 0.38962 0.84412 0.0
O278 O 0.28152 0.45974 0.88176 0.0
H279 H 0.28853 0.39011 0.90326 0.0
H280 H 0.2773 0.43016 0.84019 0.0
O281 O 0.32718 0.46774 0.86305 0.0
C282 C 0.25984 0.45225 0.89339 0.0
O283 O 0.25256 0.4348 0.9126 0.0
N284 N 0.32969 0.44163 0.90881 0.0
C285 C 0.36584 0.4376 0.94102 0.0
C286 C 0.37211 0.44678 0.91467 0.0
C287 C 0.35392 0.44897 0.89901 0.0
C288 C 0.32274 0.4313 0.93388 0.0
C289 C 0.34053 0.42905 0.95039 0.0
H290 H 0.36053 0.45853 0.88007 0.0
H291 H 0.30373 0.42625 0.94165 0.0
H292 H 0.35934 0.5035 0.89305 0.0
H293 H 0.32713 0.52474 0.95657 0.0
H294 H 0.26247 0.35605 0.86474 0.0
H295 H 0.39167 0.45439 0.9069 0.0
H296 H 0.33497 0.42198 0.9707 0.0
C297 C 0.15715 0.50047 0.54554 0.0
C298 C 0.16554 0.52644 0.54101 0.0
N299 N 0.17745 0.54006 0.56337 0.0
N300 N 0.1635 0.49763 0.57071 0.0
C301 C 0.17631 0.52206 0.58079 0.0
H302 H 0.14609 0.48457 0.5318 0.0
Co303 Co 0.15341 0.46667 0.58919 0.0
C304 C 0.1594 0.48492 0.64527 0.0
O305 O 0.17149 0.47237 0.65241 0.0
N306 N 0.14313 0.43568 0.60776 0.0
C307 C 0.12233 0.4018 0.63514 0.0
C308 C 0.12159 0.42224 0.623 0.0
C309 C 0.15646 0.42289 0.61072 0.0
N310 N 0.14442 0.40239 0.62753 0.0
O311 O 0.18901 0.47842 0.59664 0.0
H312 H 0.10693 0.42773 0.62626 0.0
H313 H 0.17526 0.42911 0.6017 0.0
O314 O 0.15113 0.48311 0.62142 0.0
C315 C 0.20222 0.47674 0.57747 0.0
O316 O 0.19029 0.46594 0.55489 0.0
N317 N 0.11888 0.45533 0.58046 0.0
C318 C 0.07179 0.44315 0.55685 0.0
C319 C 0.08121 0.46013 0.57882 0.0
C320 C 0.10501 0.46626 0.59018 0.0
C321 C 0.10919 0.43736 0.56038 0.0
C322 C 0.08561 0.43104 0.5481 0.0
H323 H 0.11284 0.48105 0.60554 0.0
H324 H 0.1207 0.42922 0.55275 0.0
H325 H 0.18414 0.52635 0.60086 0.0
H326 H 0.16196 0.53431 0.52302 0.0
H327 H 0.10872 0.38879 0.65001 0.0
H328 H 0.07141 0.47036 0.58572 0.0
H329 H 0.079 0.41801 0.53102 0.0
C330 C 0.51946 0.66379 0.56983 0.0
C331 C 0.49452 0.64804 0.56029 0.0
N332 N 0.47928 0.63434 0.58105 0.0
N333 N 0.51979 0.66008 0.59645 0.0
C334 C 0.49514 0.64179 0.6025 0.0
H335 H 0.53629 0.67706 0.55812 0.0
Co336 Co 0.5487 0.6765 0.61868 0.0
C337 C 0.52722 0.66425 0.67394 0.0
O338 O 0.54426 0.68765 0.68254 0.0
N339 N 0.57838 0.69324 0.64022 0.0
C340 C 0.61006 0.70169 0.66922 0.0
C341 C 0.58962 0.68245 0.65498 0.0
C342 C 0.5926 0.71902 0.64548 0.0
N343 N 0.61177 0.72472 0.6634 0.0
O344 O 0.54015 0.70299 0.62571 0.0
H345 H 0.5828 0.66179 0.65627 0.0
H346 H 0.58797 0.73321 0.63764 0.0
O347 O 0.52758 0.65781 0.6496 0.0
C348 C 0.54401 0.72021 0.60829 0.0
O349 O 0.55696 0.72165 0.58637 0.0
N350 N 0.5562 0.65024 0.61063 0.0
C351 C 0.56147 0.6106 0.58703 0.0
C352 C 0.54553 0.60555 0.60958 0.0
C353 C 0.54297 0.62559 0.62099 0.0
C354 C 0.57318 0.65596 0.58993 0.0
C355 C 0.57614 0.63636 0.57776 0.0
H356 H 0.52911 0.62065 0.63705 0.0
H357 H 0.58321 0.67552 0.58179 0.0
H358 H 0.48897 0.63338 0.62204 0.0
H359 H 0.48807 0.64706 0.53983 0.0
H360 H 0.62201 0.6987 0.68356 0.0
H361 H 0.53351 0.58589 0.61711 0.0
H362 H 0.58874 0.64107 0.56044 0.0
C363 C 0.33942 0.82602 0.57659 0.0
C364 C 0.35493 0.81519 0.57255 0.0
N365 N 0.37093 0.82102 0.59381 0.0
N366 N 0.34551 0.83855 0.60029 0.0
C367 C 0.36491 0.83534 0.61024 0.0
H368 H 0.32451 0.82471 0.56316 0.0
Co369 Co 0.32919 0.85553 0.61467 0.0
C370 C 0.33275 0.83617 0.66912 0.0
O371 O 0.30917 0.8158 0.66788 0.0
N372 N 0.31265 0.87243 0.62811 0.0
C373 C 0.29222 0.89525 0.62846 0.0
C374 C 0.30744 0.88845 0.61354 0.0
C375 C 0.30066 0.86985 0.65177 0.0
N376 N 0.28816 0.88361 0.65252 0.0
O377 O 0.29832 0.82261 0.61906 0.0
H378 H 0.31336 0.89383 0.59294 0.0
H379 H 0.29943 0.85668 0.66744 0.0
O380 O 0.34139 0.85275 0.65005 0.0
C381 C 0.2808 0.81303 0.60108 0.0
O382 O 0.28256 0.82753 0.58038 0.0
N383 N 0.35928 0.88762 0.60911 0.0
C384 C 0.4054 0.93317 0.59628 0.0
C385 C 0.39794 0.92639 0.62313 0.0
C386 C 0.37456 0.90372 0.62912 0.0
C387 C 0.36542 0.89445 0.58299 0.0
C388 C 0.38833 0.91719 0.5761 0.0
H389 H 0.36903 0.89909 0.64987 0.0
H390 H 0.3526 0.8819 0.5674 0.0
H391 H 0.37466 0.84358 0.62902 0.0
H392 H 0.35404 0.80343 0.55555 0.0
H393 H 0.28384 0.90686 0.6218 0.0
H394 H 0.41031 0.93801 0.63946 0.0
H395 H 0.39267 0.92199 0.55511 0.0
H396 H 0.64422 0.17963 0.31952 0.0
H397 H 0.62387 0.18999 0.28232 0.0
H398 H 0.5699 0.10791 0.27079 0.0
H399 H 0.59032 0.09747 0.30725 0.0
H400 H 0.58286 0.13084 0.22391 0.0
H401 H 0.55629 0.14854 0.30963 0.0
H402 H 0.56249 0.17036 0.35308 0.0
H403 H 0.59442 0.24458 0.31393 0.0
H404 H 0.5891 0.22326 0.27003 0.0
H405 H 0.462 0.11482 0.18461 0.0
H406 H 0.49612 0.1206 0.21606 0.0
H407 H 0.54825 0.19608 0.18205 0.0
H408 H 0.51441 0.19024 0.14995 0.0
H409 H 0.54311 0.1849 0.24696 0.0
H410 H 0.56448 0.16449 0.15971 0.0
H411 H 0.54928 0.13939 0.11768 0.0
H412 H 0.52211 0.06796 0.16136 0.0
H413 H 0.53631 0.09257 0.20382 0.0
C414 C 0.62831 0.1638 0.30872 0.0
C415 C 0.6187 0.13772 0.31658 0.0
C416 C 0.61662 0.16975 0.28754 0.0
C417 C 0.59503 0.14975 0.27399 0.0
C418 C 0.58647 0.12372 0.28089 0.0
C419 C 0.59814 0.11777 0.3019 0.0
C420 C 0.57995 0.15551 0.25399 0.0
C421 C 0.57444 0.14289 0.22895 0.0
C422 C 0.56906 0.17148 0.26022 0.0
C423 C 0.57275 0.18436 0.2866 0.0
C424 C 0.56495 0.16955 0.31028 0.0
C425 C 0.56824 0.18183 0.33501 0.0
C426 C 0.57885 0.20883 0.33637 0.0
C427 C 0.58627 0.22366 0.3129 0.0
C428 C 0.58321 0.21151 0.28807 0.0
C429 C 0.48051 0.13288 0.18414 0.0
C430 C 0.48559 0.152 0.1647 0.0
C431 C 0.49997 0.13613 0.2021 0.0
C432 C 0.52461 0.1587 0.20119 0.0
C433 C 0.52927 0.17858 0.183 0.0
C434 C 0.50997 0.17514 0.16467 0.0
C435 C 0.54602 0.16002 0.21752 0.0
C436 C 0.55244 0.17373 0.24173 0.0
C437 C 0.55766 0.14503 0.21063 0.0
C438 C 0.55118 0.13036 0.18499 0.0
C439 C 0.55507 0.14342 0.1604 0.0
C440 C 0.54655 0.12929 0.13651 0.0
C441 C 0.53455 0.10211 0.13689 0.0
C442 C 0.53131 0.08902 0.16113 0.0
C443 C 0.53957 0.10305 0.18512 0.0
H444 H 0.52785 0.09122 0.1184 0.0
H445 H 0.58126 0.21823 0.3556 0.0
H446 H 0.82885 0.35798 0.1662 0.0
H447 H 0.824 0.38685 0.19772 0.0
H448 H 0.89725 0.40585 0.23451 0.0
H449 H 0.90229 0.37703 0.20307 0.0
H450 H 0.86069 0.39873 0.27163 0.0
H451 H 0.89409 0.44606 0.18869 0.0
H452 H 0.89309 0.45216 0.13993 0.0
H453 H 0.81969 0.44965 0.14775 0.0
H454 H 0.82004 0.44307 0.19644 0.0
H455 H 0.8921 0.53664 0.30736 0.0
H456 H 0.88957 0.50598 0.27308 0.0
H457 H 0.81953 0.44491 0.30968 0.0
H458 H 0.82207 0.47533 0.34425 0.0
H459 H 0.854 0.47323 0.23532 0.0
H460 H 0.8242 0.39034 0.31057 0.0
H461 H 0.82419 0.38453 0.35932 0.0
H462 H 0.89291 0.45998 0.36675 0.0
H463 H 0.89357 0.46598 0.31778 0.0
C464 C 0.84391 0.36823 0.18103 0.0
C465 C 0.86617 0.3655 0.18184 0.0
C466 C 0.84109 0.38472 0.19903 0.0
C467 C 0.86048 0.39882 0.21815 0.0
C468 C 0.88211 0.39522 0.21983 0.0
C469 C 0.88496 0.37874 0.20182 0.0
C470 C 0.85874 0.418 0.23585 0.0
C471 C 0.85916 0.41497 0.26366 0.0
C472 C 0.85688 0.43928 0.22545 0.0
C473 C 0.85699 0.44386 0.1962 0.0
C474 C 0.87767 0.44667 0.17998 0.0
C475 C 0.87723 0.45022 0.15233 0.0
C476 C 0.85634 0.45127 0.14071 0.0
C477 C 0.83588 0.44883 0.15672 0.0
C478 C 0.83619 0.4452 0.18435 0.0
C479 C 0.87593 0.51679 0.30792 0.0
C480 C 0.85758 0.50829 0.32886 0.0
C481 C 0.87445 0.49932 0.28821 0.0
C482 C 0.85461 0.4731 0.28909 0.0
C483 C 0.83524 0.465 0.30889 0.0
C484 C 0.83677 0.4824 0.32868 0.0
C485 C 0.85574 0.45378 0.27104 0.0
C486 C 0.85533 0.45687 0.24321 0.0
C487 C 0.85784 0.43265 0.28137 0.0
C488 C 0.85878 0.42866 0.31057 0.0
C489 C 0.83946 0.40557 0.32258 0.0
C490 C 0.83932 0.40229 0.35028 0.0
C491 C 0.85848 0.42194 0.36623 0.0
C492 C 0.87804 0.44479 0.3544 0.0
C493 C 0.87832 0.44813 0.32665 0.0
H494 H 0.8582 0.41949 0.38773 0.0
H495 H 0.85606 0.45404 0.11931 0.0
H496 H 0.63408 0.48042 0.14516 0.0
H497 H 0.60139 0.44517 0.17302 0.0
H498 H 0.60258 0.50194 0.22806 0.0
H499 H 0.63503 0.53715 0.20039 0.0
H500 H 0.6031 0.46415 0.25479 0.0
H501 H 0.55586 0.47114 0.18102 0.0
H502 H 0.5407 0.47002 0.13484 0.0
H503 H 0.5177 0.38899 0.12856 0.0
H504 H 0.534 0.38993 0.17414 0.0
H505 H 0.45852 0.37185 0.2905 0.0
H506 H 0.49177 0.40149 0.25923 0.0
H507 H 0.54452 0.37666 0.28807 0.0
H508 H 0.51142 0.34723 0.31995 0.0
H509 H 0.5174 0.3971 0.21889 0.0
H510 H 0.607 0.43045 0.28821 0.0
H511 H 0.61692 0.43368 0.33644 0.0
H512 H 0.54879 0.43907 0.35385 0.0
H513 H 0.5388 0.43649 0.30564 0.0
C514 C 0.62728 0.48542 0.16309 0.0
C515 C 0.63698 0.51168 0.17032 0.0
C516 C 0.60859 0.46522 0.17903 0.0
C517 C 0.59931 0.47089 0.20251 0.0
C518 C 0.60943 0.49706 0.21004 0.0
C519 C 0.628 0.5172 0.19414 0.0
C520 C 0.57912 0.44978 0.21946 0.0
C521 C 0.58445 0.44937 0.24683 0.0
C522 C 0.55456 0.43069 0.20921 0.0
C523 C 0.5466 0.43073 0.18098 0.0
C524 C 0.54821 0.45324 0.1696 0.0
C525 C 0.53934 0.45263 0.14351 0.0
C526 C 0.5283 0.42947 0.12877 0.0
C527 C 0.52634 0.40695 0.13998 0.0
C528 C 0.5356 0.40758 0.16585 0.0
C529 C 0.4771 0.37248 0.2901 0.0
C530 C 0.48238 0.35736 0.30797 0.0
C531 C 0.49609 0.3894 0.2721 0.0
C532 C 0.52078 0.39159 0.27152 0.0
C533 C 0.52575 0.37562 0.28846 0.0
C534 C 0.50676 0.35873 0.3066 0.0
C535 C 0.54151 0.41144 0.25399 0.0
C536 C 0.53628 0.41163 0.22661 0.0
C537 C 0.56586 0.43077 0.26428 0.0
C538 C 0.57197 0.43288 0.29332 0.0
C539 C 0.5942 0.43243 0.30232 0.0
C540 C 0.59985 0.43418 0.32967 0.0
C541 C 0.58343 0.43646 0.34824 0.0
C542 C 0.56143 0.4372 0.33946 0.0
C543 C 0.55578 0.4356 0.31211 0.0
H544 H 0.58774 0.43771 0.36942 0.0
H545 H 0.52113 0.4289 0.10871 0.0
H546 H 0.53178 0.87846 0.8031 0.0
H547 H 0.4957 0.87449 0.77572 0.0
H548 H 0.44113 0.80895 0.82334 0.0
H549 H 0.477 0.81276 0.85083 0.0
H550 H 0.43053 0.8013 0.76871 0.0
H551 H 0.44395 0.86272 0.83583 0.0
H552 H 0.46856 0.90103 0.86493 0.0
H553 H 0.49198 0.95141 0.79623 0.0
H554 H 0.4679 0.91329 0.7666 0.0
H555 H 0.32157 0.80451 0.71303 0.0
H556 H 0.3522 0.80578 0.74664 0.0
H557 H 0.41471 0.87352 0.70835 0.0
H558 H 0.38437 0.8726 0.67484 0.0
H559 H 0.41773 0.87784 0.76288 0.0
H560 H 0.40382 0.81092 0.69627 0.0
H561 H 0.37583 0.77036 0.67119 0.0
H562 H 0.34846 0.72802 0.74497 0.0
H563 H 0.37603 0.76833 0.77053 0.0
C564 C 0.51215 0.86303 0.80757 0.0
C565 C 0.50722 0.84611 0.82931 0.0
C566 C 0.49155 0.86086 0.792 0.0
C567 C 0.46575 0.84162 0.79775 0.0
C568 C 0.46089 0.82397 0.81865 0.0
C569 C 0.48142 0.82627 0.83438 0.0
C570 C 0.44384 0.84049 0.78235 0.0
C571 C 0.42752 0.81791 0.76766 0.0
C572 C 0.43975 0.86205 0.7813 0.0
C573 C 0.45435 0.8851 0.79894 0.0
C574 C 0.45458 0.88194 0.82687 0.0
C575 C 0.46839 0.90362 0.84348 0.0
C576 C 0.48187 0.92864 0.83243 0.0
C577 C 0.48155 0.93201 0.80475 0.0
C578 C 0.46782 0.91036 0.78803 0.0
C579 C 0.34177 0.81988 0.71193 0.0
C580 C 0.3505 0.83839 0.69113 0.0
C581 C 0.35924 0.82052 0.73114 0.0
C582 C 0.38577 0.83954 0.72982 0.0
C583 C 0.39432 0.85865 0.70975 0.0
C584 C 0.3769 0.85808 0.69058 0.0
C585 C 0.40497 0.83898 0.74847 0.0
C586 C 0.42072 0.86123 0.76394 0.0
C587 C 0.4081 0.81686 0.75076 0.0
C588 C 0.39188 0.79263 0.73529 0.0
C589 C 0.39176 0.79297 0.70713 0.0
C590 C 0.37599 0.77004 0.69283 0.0
C591 C 0.36041 0.74666 0.70646 0.0
C592 C 0.36056 0.74614 0.73444 0.0
C593 C 0.37627 0.76899 0.74884 0.0
H594 H 0.34827 0.72894 0.69534 0.0
H595 H 0.4925 0.94541 0.84533 0.0
H596 H 0.16575 0.4883 0.69989 0.0
H597 H 0.16333 0.51991 0.72997 0.0
H598 H 0.147 0.55492 0.66253 0.0
H599 H 0.14848 0.52316 0.63263 0.0
H600 H 0.18829 0.59076 0.69871 0.0
H601 H 0.09991 0.51945 0.69756 0.0
H602 H 0.06523 0.47366 0.70303 0.0
H603 H 0.08467 0.47639 0.78625 0.0
H604 H 0.11971 0.52211 0.7812 0.0
H605 H 0.15901 0.67662 0.77064 0.0
H606 H 0.15808 0.6448 0.73876 0.0
H607 H 0.14619 0.59208 0.80401 0.0
H608 H 0.14445 0.62242 0.8352 0.0
H609 H 0.11885 0.56501 0.76701 0.0
H610 H 0.2083 0.63555 0.76895 0.0
H611 H 0.2449 0.68043 0.76351 0.0
H612 H 0.22578 0.67924 0.68038 0.0
H613 H 0.18882 0.63441 0.68538 0.0
C614 C 0.16151 0.50266 0.69154 0.0
C615 C 0.15733 0.50322 0.6639 0.0
C616 C 0.16015 0.52065 0.7087 0.0
C617 C 0.15503 0.53969 0.69837 0.0
C618 C 0.15103 0.54039 0.67082 0.0
C619 C 0.15181 0.52214 0.6538 0.0
C620 C 0.15383 0.55899 0.71618 0.0
C621 C 0.17304 0.5853 0.71357 0.0
C622 C 0.13413 0.55157 0.73573 0.0
C623 C 0.11287 0.52409 0.73884 0.0
C624 C 0.09706 0.5102 0.71694 0.0
C625 C 0.07724 0.48427 0.71999 0.0
C626 C 0.07285 0.47207 0.74493 0.0
C627 C 0.08818 0.48582 0.76691 0.0
C628 C 0.10804 0.51175 0.76395 0.0
C629 C 0.15603 0.65816 0.77812 0.0
C630 C 0.15242 0.65239 0.80565 0.0
C631 C 0.15579 0.64006 0.75989 0.0
C632 C 0.15286 0.61624 0.76895 0.0
C633 C 0.1487 0.61032 0.79637 0.0
C634 C 0.14804 0.62796 0.81438 0.0
C635 C 0.15374 0.59715 0.75015 0.0
C636 C 0.13433 0.57073 0.75239 0.0
C637 C 0.17353 0.6045 0.73048 0.0
C638 C 0.19558 0.63164 0.72763 0.0
C639 C 0.21175 0.64487 0.74956 0.0
C640 C 0.2326 0.67032 0.74654 0.0
C641 C 0.23763 0.6827 0.72164 0.0
C642 C 0.22184 0.66965 0.69968 0.0
C643 C 0.20093 0.64422 0.7026 0.0
H644 H 0.25381 0.70239 0.71934 0.0
H645 H 0.05749 0.45199 0.74726 0.0
H646 H 0.5331 0.65595 0.72668 0.0
H647 H 0.50026 0.6224 0.75634 0.0
H648 H 0.44397 0.59643 0.69221 0.0
H649 H 0.47615 0.63022 0.66328 0.0
H650 H 0.42198 0.59781 0.73752 0.0
H651 H 0.47564 0.56369 0.70705 0.0
H652 H 0.51685 0.56384 0.69962 0.0
H653 H 0.52982 0.5674 0.78452 0.0
H654 H 0.48884 0.56768 0.79244 0.0
H655 H 0.35874 0.45713 0.79667 0.0
H656 H 0.39097 0.49218 0.76835 0.0
H657 H 0.38678 0.54919 0.81853 0.0
H658 H 0.35395 0.5144 0.84645 0.0
H659 H 0.43885 0.53185 0.77974 0.0
H660 H 0.39497 0.60061 0.77822 0.0
H661 H 0.35197 0.59763 0.77962 0.0
H662 H 0.31577 0.51908 0.74998 0.0
H663 H 0.35861 0.52179 0.74774 0.0
C664 C 0.51365 0.64313 0.71908 0.0
C665 C 0.50737 0.64515 0.69239 0.0
C666 C 0.49498 0.62393 0.73593 0.0
C667 C 0.46978 0.60663 0.72633 0.0
C668 C 0.46333 0.60937 0.69999 0.0
C669 C 0.48193 0.62842 0.68324 0.0
C670 C 0.45007 0.58531 0.74333 0.0
C671 C 0.42573 0.5835 0.74694 0.0
C672 C 0.45474 0.56625 0.75499 0.0
C673 C 0.47933 0.56601 0.75032 0.0
C674 C 0.48739 0.56473 0.72413 0.0
C675 C 0.51069 0.5647 0.71983 0.0
C676 C 0.52598 0.56571 0.74158 0.0
C677 C 0.51797 0.56668 0.76769 0.0
C678 C 0.49471 0.56676 0.77209 0.0
C679 C 0.36449 0.47711 0.80158 0.0
C680 C 0.35377 0.48291 0.82388 0.0
C681 C 0.38302 0.49712 0.78545 0.0
C682 C 0.39112 0.52328 0.79125 0.0
C683 C 0.38045 0.52913 0.81346 0.0
C684 C 0.3618 0.50917 0.82949 0.0
C685 C 0.41084 0.54452 0.77418 0.0
C686 C 0.43519 0.54632 0.77058 0.0
C687 C 0.40591 0.56316 0.76188 0.0
C688 C 0.38 0.56129 0.76323 0.0
C689 C 0.37785 0.58272 0.77194 0.0
C690 C 0.35349 0.58108 0.77288 0.0
C691 C 0.33112 0.55811 0.76512 0.0
C692 C 0.33308 0.53679 0.75619 0.0
C693 C 0.35741 0.53837 0.7551 0.0
H694 H 0.31228 0.55688 0.76589 0.0
H695 H 0.54401 0.56567 0.73822 0.0
H696 H 0.44895 0.03378 0.08065 0.0
H697 H 0.46143 0.00348 0.06165 0.0
H698 H 0.48358 0.04736 0.9879 0.0
H699 H 0.47126 0.07768 0.0067 0.0
H700 H 0.45997 0.99582 0.9781 0.0
H701 H 0.52904 0.05797 0.03389 0.0
H702 H 0.54915 0.0827 0.07521 0.0
H703 H 0.52763 0.01135 0.117 0.0
H704 H 0.50706 0.98613 0.07594 0.0
H705 H 0.54859 0.95985 0.92594 0.0
H706 H 0.53295 0.98688 0.94671 0.0
H707 H 0.50115 0.93272 0.01254 0.0
H708 H 0.51566 0.90498 0.99152 0.0
H709 H 0.52856 0.9878 0.02703 0.0
H710 H 0.4609 0.92624 0.96829 0.0
H711 H 0.44417 0.90376 0.9251 0.0
H712 H 0.46628 0.97698 0.88706 0.0
H713 H 0.48354 -3e-05 0.92996 0.0
C714 C 0.45622 0.03678 0.06029 0.0
C715 C 0.45924 0.05817 0.04522 0.0
C716 C 0.46334 0.01949 0.04948 0.0
C717 C 0.4738 0.02346 0.02353 0.0
C718 C 0.47553 0.04396 0.00795 0.0
C719 C 0.46836 0.0612 0.01871 0.0
C720 C 0.48446 0.0073 0.01316 0.0
C721 C 0.47508 0.99421 0.98871 0.0
C722 C 0.50405 0.00508 0.02715 0.0
C723 C 0.51627 0.02015 0.05192 0.0
C724 C 0.52839 0.04753 0.05195 0.0
C725 C 0.53993 0.06164 0.07531 0.0
C726 C 0.53965 0.04861 0.09874 0.0
C727 C 0.52782 0.02142 0.09884 0.0
C728 C 0.51623 0.0072 0.07553 0.0
C729 C 0.53832 0.95368 0.94486 0.0
C730 C 0.53321 0.93011 0.95693 0.0
C731 C 0.52954 0.96921 0.95673 0.0
C732 C 0.51574 0.96156 0.98096 0.0
C733 C 0.51183 0.93888 0.99383 0.0
C734 C 0.52032 0.92317 0.98184 0.0
C735 C 0.50407 0.97645 0.99207 0.0
C736 C 0.51329 0.98929 0.0166 0.0
C737 C 0.48459 0.97871 0.978 0.0
C738 C 0.47373 0.96486 0.9523 0.0
C739 C 0.46237 0.93758 0.95068 0.0
C740 C 0.45276 0.92474 0.92626 0.0
C741 C 0.4542 0.93895 0.90335 0.0
C742 C 0.46519 0.96601 0.90483 0.0
C743 C 0.47487 0.97895 0.9292 0.0
H744 H 0.44673 0.92898 0.88446 0.0
H745 H 0.54866 0.05957 0.11679 0.0
H746 H 0.97872 0.43811 0.09931 0.0
H747 H 0.00551 0.47877 0.07483 0.0
H748 H 0.97395 0.43877 0.00012 0.0
H749 H 0.94646 0.39837 0.02429 0.0
H750 H 0.02792 0.47866 0.9977 0.0
H751 H 0.94389 0.46425 0.0265 0.0
H752 H 0.90948 0.45436 0.05991 0.0
H753 H 0.96193 0.52288 0.10444 0.0
H754 H 0.99683 0.5329 0.07151 0.0
H755 H 0.03475 0.57416 0.91089 0.0
H756 H 0.0126 0.53636 0.94045 0.0
H757 H 0.05509 0.58394 0.00807 0.0
H758 H 0.07826 0.62163 0.9786 0.0
H759 H 0.99819 0.54208 0.01646 0.0
H760 H 0.08194 0.55726 0.98541 0.0
H761 H 0.11498 0.56691 0.95044 0.0
H762 H 0.06183 0.49648 0.90903 0.0
H763 H 0.02825 0.48669 0.94349 0.0
C764 C 0.97788 0.43785 0.07763 0.0
C765 C 0.96011 0.41509 0.0638 0.0
C766 C 0.99326 0.46104 0.06372 0.0
C767 C 0.99129 0.46171 0.03579 0.0
C768 C 0.97566 0.43853 0.02172 0.0
C769 C 0.96005 0.4154 0.03562 0.0
C770 C 0.0026 0.48688 0.02159 0.0
C771 C 0.02142 0.4925 0.00175 0.0
C772 C 0.99411 0.50492 0.02709 0.0
C773 C 0.97307 0.49915 0.04673 0.0
C774 C 0.94817 0.47708 0.04355 0.0
C775 C 0.92856 0.47146 0.06238 0.0
C776 C 0.93354 0.48794 0.08433 0.0
C777 C 0.95812 0.5101 0.08745 0.0
C778 C 0.97783 0.51576 0.06872 0.0
C779 C 0.03912 0.57672 0.93211 0.0
C780 C 0.05866 0.60079 0.94228 0.0
C781 C 0.02633 0.55516 0.94895 0.0
C782 C 0.03259 0.55745 0.97624 0.0
C783 C 0.0501 0.58193 0.98699 0.0
C784 C 0.0632 0.60347 0.9701 0.0
C785 C 0.02344 0.53377 0.99262 0.0
C786 C 0.00495 0.5284 0.01273 0.0
C787 C 0.03214 0.5159 0.98732 0.0
C788 C 0.05249 0.52138 0.96689 0.0
C789 C 0.07721 0.54394 0.96872 0.0
C790 C 0.09605 0.54943 0.94901 0.0
C791 C 0.09049 0.53235 0.92749 0.0
C792 C 0.0661 0.50971 0.92569 0.0
C793 C 0.04716 0.50418 0.94532 0.0
H794 H 0.10509 0.53664 0.91224 0.0
H795 H 0.91833 0.48359 0.09886 0.0
H796 H 0.3748 0.45759 0.99161 0.0
H797 H 0.41565 0.47525 0.01641 0.0
H798 H 0.44646 0.4459 0.95598 0.0
H799 H 0.40526 0.42731 0.93158 0.0
H800 H 0.46565 0.44537 0.0048 0.0
H801 H 0.45451 0.5063 0.95004 0.0
H802 H 0.43227 0.52977 0.93495 0.0
H803 H 0.43964 0.56194 0.01371 0.0
H804 H 0.46171 0.53839 0.02934 0.0
H805 H 0.5992 0.53133 0.01279 0.0
H806 H 0.55536 0.5105 0.99431 0.0
H807 H 0.53157 0.54435 0.05698 0.0
H808 H 0.57594 0.56664 0.07479 0.0
H809 H 0.50754 0.5418 0.01073 0.0
H810 H 0.52528 0.48377 0.06272 0.0
H811 H 0.54965 0.46139 0.07409 0.0
H812 H 0.53066 0.42336 0.99749 0.0
H813 H 0.50705 0.44626 0.98519 0.0
C814 C 0.38983 0.4539 0.98418 0.0
C815 C 0.38703 0.44142 0.95943 0.0
C816 C 0.41327 0.46427 0.99823 0.0
C817 C 0.43426 0.46252 0.98758 0.0
C818 C 0.43056 0.4477 0.96437 0.0
C819 C 0.40708 0.43719 0.9504 0.0
C820 C 0.46081 0.47864 0.99853 0.0
C821 C 0.4749 0.46645 0.00604 0.0
C822 C 0.47268 0.50614 0.0003 0.0
C823 C 0.45947 0.52035 0.99093 0.0
C824 C 0.4512 0.51823 0.96419 0.0
C825 C 0.43865 0.53157 0.95553 0.0
C826 C 0.43443 0.54727 0.97339 0.0
C827 C 0.44286 0.54973 -8e-05 0.0
C828 C 0.45541 0.5364 0.00869 0.0
C829 C 0.58501 0.53525 0.02211 0.0
C830 C 0.59102 0.55039 0.04555 0.0
C831 C 0.5598 0.52294 0.01173 0.0
C832 C 0.54007 0.52515 0.02488 0.0
C833 C 0.54647 0.54205 0.04684 0.0
C834 C 0.57179 0.55466 0.05705 0.0
C835 C 0.51255 0.50857 0.01681 0.0
C836 C 0.49826 0.52069 0.00984 0.0
C837 C 0.50064 0.48103 0.01525 0.0
C838 C 0.51453 0.46693 0.02294 0.0
C839 C 0.52645 0.4708 0.0482 0.0
C840 C 0.54015 0.45801 0.05482 0.0
C841 C 0.54161 0.44091 0.03655 0.0
C842 C 0.52949 0.43661 0.01161 0.0
C843 C 0.51602 0.44955 0.00478 0.0
H844 H 0.55212 0.43095 0.04163 0.0
H845 H 0.42472 0.5576 0.96669 0.0
H846 H 0.02462 0.43566 0.5736 0.0
H847 H 0.99752 0.44913 0.54914 0.0
H848 H 0.04571 0.46453 0.47906 0.0
H849 H 0.0728 0.45111 0.50333 0.0
H850 H 0.04597 0.50828 0.50058 0.0
H851 H 0.9848 0.42171 0.47337 0.0
H852 H 0.9539 0.37461 0.4781 0.0
H853 H 0.90553 0.39073 0.52946 0.0
H854 H 0.93638 0.43796 0.52546 0.0
H855 H 0.97439 0.55081 0.41846 0.0
H856 H -0.0003 0.53282 0.43862 0.0
H857 H 0.95112 0.51132 0.50912 0.0
H858 H 0.92562 0.52887 0.48904 0.0
H859 H 0.95114 0.46969 0.48483 0.0
H860 H 0.01312 0.55569 0.51439 0.0
H861 H 0.04443 0.60284 0.51108 0.0
H862 H 0.09136 0.58778 0.45647 0.0
H863 H 0.0601 0.54053 0.45911 0.0
C864 C 0.02874 0.44092 0.55265 0.0
C865 C 0.05086 0.44258 0.54039 0.0
C866 C 0.01326 0.44855 0.53871 0.0
C867 C 0.01986 0.45801 0.51244 0.0
C868 C 0.0404 0.45726 0.49935 0.0
C869 C 0.05571 0.44941 0.51318 0.0
C870 C 0.00855 0.47294 0.50067 0.0
C871 C 0.02529 0.49978 0.49656 0.0
C872 C 0.98151 0.46187 0.49647 0.0
C873 C 0.96312 0.43342 0.49937 0.0
C874 C 0.96777 0.41523 0.48597 0.0
C875 C 0.95021 0.3885 0.48846 0.0
C876 C 0.92784 0.37968 0.50418 0.0
C877 C 0.92293 0.39759 0.51737 0.0
C878 C 0.94044 0.42435 0.51498 0.0
C879 C 0.96966 0.54294 0.43858 0.0
C880 C 0.948 0.5411 0.45213 0.0
C881 C 0.98411 0.53273 0.45007 0.0
C882 C 0.97704 0.52058 0.47521 0.0
C883 C 0.95675 0.52057 0.48963 0.0
C884 C 0.9424 0.53087 0.47825 0.0
C885 C 0.98854 0.50506 0.48495 0.0
C886 C 0.97184 0.47814 0.48868 0.0
C887 C 0.01561 0.51607 0.48893 0.0
C888 C 0.03404 0.54456 0.48666 0.0
C889 C 0.02991 0.56244 0.50137 0.0
C890 C 0.0477 0.58919 0.49969 0.0
C891 C 0.0698 0.59831 0.48348 0.0
C892 C 0.07418 0.58069 0.46894 0.0
C893 C 0.05643 0.55392 0.47053 0.0
H894 H 0.08361 0.61902 0.4823 0.0
H895 H 0.91426 0.35898 0.50605 0.0
H896 H 0.46908 0.38325 0.48049 0.0
H897 H 0.48887 0.42135 0.50988 0.0
H898 H 0.48585 0.46891 0.44611 0.0
H899 H 0.46578 0.4308 0.41664 0.0
H900 H 0.53456 0.48957 0.46816 0.0
H901 H 0.44591 0.45348 0.49922 0.0
H902 H 0.40398 0.41917 0.51755 0.0
H903 H 0.44288 0.41451 0.58808 0.0
H904 H 0.48512 0.44858 0.56999 0.0
H905 H 0.55662 0.60449 0.53296 0.0
H906 H 0.54358 0.5647 0.50772 0.0
H907 H 0.54704 0.52624 0.57971 0.0
H908 H 0.56014 0.56626 0.60526 0.0
H909 H 0.50115 0.49896 0.55612 0.0
H910 H 0.58922 0.53766 0.52739 0.0
H911 H 0.63139 0.57189 0.50948 0.0
H912 H 0.59463 0.57141 0.43523 0.0
H913 H 0.55215 0.53744 0.45282 0.0
C914 C 0.4719 0.40164 0.47296 0.0
C915 C 0.46588 0.40405 0.44624 0.0
C916 C 0.48338 0.42343 0.48973 0.0
C917 C 0.48891 0.44792 0.4801 0.0
C918 C 0.48191 0.45017 0.45382 0.0
C919 C 0.47041 0.42841 0.43706 0.0
C920 C 0.50329 0.47152 0.49685 0.0
C921 C 0.52717 0.4918 0.48728 0.0
C922 C 0.49409 0.47385 0.52224 0.0
C923 C 0.46871 0.45336 0.53311 0.0
C924 C 0.44556 0.44497 0.51853 0.0
C925 C 0.42173 0.42561 0.5289 0.0
C926 C 0.42078 0.41461 0.55393 0.0
C927 C 0.44365 0.42301 0.56867 0.0
C928 C 0.46753 0.44236 0.55838 0.0
C929 C 0.55556 0.58791 0.54329 0.0
C930 C 0.55936 0.58849 0.57113 0.0
C931 C 0.54801 0.56509 0.52882 0.0
C932 C 0.54437 0.5425 0.54182 0.0
C933 C 0.54966 0.54345 0.56932 0.0
C934 C 0.55715 0.56629 0.58386 0.0
C935 C 0.53225 0.51735 0.52722 0.0
C936 C 0.50878 0.4967 0.53717 0.0
C937 C 0.5419 0.51464 0.50223 0.0
C938 C 0.56744 0.5351 0.49152 0.0
C939 C 0.59008 0.54499 0.50732 0.0
C940 C 0.61405 0.56433 0.49721 0.0
C941 C 0.61568 0.57385 0.47125 0.0
C942 C 0.59334 0.56402 0.45534 0.0
C943 C 0.56931 0.54469 0.46536 0.0
H944 H 0.63426 0.58882 0.46346 0.0
H945 H 0.40231 0.39963 0.56193 0.0
H946 H 0.62316 0.05912 0.50062 0.0
H947 H 0.58909 0.0373 0.53445 0.0
H948 H 0.58605 0.10792 0.54568 0.0
H949 H 0.62017 0.12986 0.51199 0.0
H950 H 0.57147 0.04494 0.58909 0.0
H951 H 0.52576 0.08995 0.52738 0.0
H952 H 0.53298 0.11385 0.48474 0.0
H953 H 0.56141 0.06712 0.44849 0.0
H954 H 0.55429 0.04295 0.49086 0.0
H955 H 0.4327 0.9803 0.62276 0.0
H956 H 0.47639 0.01639 0.61231 0.0
H957 H 0.47985 0.9745 0.5433 0.0
H958 H 0.43715 0.93782 0.55424 0.0
H959 H 0.49479 0.02981 0.53496 0.0
H960 H 0.50923 0.97142 0.5931 0.0
H961 H 0.50375 0.94789 0.63554 0.0
H962 H 0.53816 0.02032 0.67873 0.0
H963 H 0.54348 0.04423 0.63653 0.0
C964 C 0.61614 0.07032 0.51132 0.0
C965 C 0.62397 0.096 0.50353 0.0
C966 C 0.5968 0.05791 0.53072 0.0
C967 C 0.58493 0.07097 0.54222 0.0
C968 C 0.59509 0.09761 0.53701 0.0
C969 C 0.6146 0.11011 0.51778 0.0
C970 C 0.55843 0.05533 0.55336 0.0
C971 C 0.55467 0.04199 0.57761 0.0
C972 C 0.53659 0.05139 0.53818 0.0
C973 C 0.53961 0.06479 0.51225 0.0
C974 C 0.53336 0.08469 0.51022 0.0
C975 C 0.5375 0.09831 0.48615 0.0
C976 C 0.54768 0.09203 0.46395 0.0
C977 C 0.55359 0.07201 0.46572 0.0
C978 C 0.54952 0.05835 0.48974 0.0
C979 C 0.4428 0.97859 0.6055 0.0
C980 C 0.43123 0.95602 0.58934 0.0
C981 C 0.46767 0.99934 0.59948 0.0
C982 C 0.48115 0.99802 0.57702 0.0
C983 C 0.46954 0.97589 0.56059 0.0
C984 C 0.44499 0.95501 0.56681 0.0
C985 C 0.50772 0.01922 0.57068 0.0
C986 C 0.51149 0.03345 0.54706 0.0
C987 C 0.52945 0.02393 0.5865 0.0
C988 C 0.52644 0.00956 0.61175 0.0
C989 C 0.5154 0.98229 0.61168 0.0
C990 C 0.51237 0.96889 0.63568 0.0
C991 C 0.52052 0.98259 0.65983 0.0
C992 C 0.5318 0.00973 0.66002 0.0
C993 C 0.53483 0.02321 0.63607 0.0
H994 H 0.51816 0.97219 0.67839 0.0
H995 H 0.55098 0.10268 0.44538 0.0
H996 H 0.34494 0.22749 0.33555 0.0
H997 H 0.32948 0.19663 0.29779 0.0
H998 H 0.38441 0.25751 0.24559 0.0
H999 H 0.4 0.28802 0.2833 0.0
H1000 H 0.33612 0.22317 0.22048 0.0
H1001 H 0.40405 0.22211 0.27526 0.0
H1002 H 0.42241 0.21625 0.31727 0.0
H1003 H 0.35761 0.13831 0.32474 0.0
H1004 H 0.33874 0.14383 0.28284 0.0
H1005 H 0.40308 0.19052 0.12891 0.0
H1006 H 0.38451 0.20528 0.16363 0.0
H1007 H 0.33674 0.12596 0.19102 0.0
H1008 H 0.35574 0.11112 0.15627 0.0
H1009 H 0.36556 0.15858 0.23077 0.0
H1010 H 0.30712 0.15781 0.16584 0.0
H1011 H 0.29315 0.16537 0.12188 0.0
H1012 H 0.34276 0.24805 0.13162 0.0
H1013 H 0.35733 0.24101 0.17547 0.0
C1014 C 0.35299 0.23434 0.31578 0.0
C1015 C 0.37363 0.25994 0.31209 0.0
C1016 C 0.34427 0.21678 0.29433 0.0
C1017 C 0.35592 0.22484 0.26901 0.0
C1018 C 0.37509 0.25098 0.26495 0.0
C1019 C 0.38405 0.26833 0.28641 0.0
C1020 C 0.35121 0.20575 0.24763 0.0
C1021 C 0.34225 0.20881 0.22267 0.0
C1022 C 0.3587 0.18667 0.25082 0.0
C1023 C 0.36977 0.18353 0.27622 0.0
C1024 C 0.39357 0.20384 0.28605 0.0
C1025 C 0.4041 0.20057 0.30979 0.0
C1026 C 0.39109 0.17698 0.32375 0.0
C1027 C 0.36758 0.1566 0.31396 0.0
C1028 C 0.35696 0.15979 0.29023 0.0
C1029 C 0.38838 0.1762 0.14212 0.0
C1030 C 0.38103 0.14975 0.14015 0.0
C1031 C 0.37751 0.18458 0.16172 0.0
C1032 C 0.35901 0.16667 0.17972 0.0
C1033 C 0.35081 0.14004 0.17715 0.0
C1034 C 0.3616 0.1316 0.15732 0.0
C1035 C 0.35132 0.17657 0.20318 0.0
C1036 C 0.35817 0.17196 0.22864 0.0
C1037 C 0.34218 0.1944 0.2003 0.0
C1038 C 0.33334 0.19885 0.17399 0.0
C1039 C 0.31516 0.1776 0.15857 0.0
C1040 C 0.30712 0.1818 0.13366 0.0
C1041 C 0.31706 0.20717 0.12397 0.0
C1042 C 0.33504 0.2284 0.13918 0.0
C1043 C 0.34314 0.22432 0.1641 0.0
H1044 H 0.31083 0.21037 0.10467 0.0
H1045 H 0.39928 0.1744 0.34206 0.0
H1046 H 0.74534 0.16304 0.36303 0.0
H1047 H 0.78083 0.18402 0.33056 0.0
H1048 H 0.73952 0.11905 0.27665 0.0
H1049 H 0.70406 0.09771 0.30968 0.0
H1050 H 0.80038 0.14981 0.27478 0.0
H1051 H 0.72268 0.15883 0.26773 0.0
H1052 H 0.68911 0.16564 0.28942 0.0
H1053 H 0.74854 0.23977 0.31944 0.0
H1054 H 0.78249 0.2332 0.29819 0.0
H1055 H 0.84432 0.22297 0.15225 0.0
H1056 H 0.82183 0.19234 0.18898 0.0
H1057 H 0.83801 0.25697 0.24111 0.0
H1058 H 0.85945 0.28733 0.20403 0.0
H1059 H 0.78954 0.22345 0.2436 0.0
H1060 H 0.86735 0.21761 0.24805 0.0
H1061 H 0.90234 0.21057 0.23078 0.0
H1062 H 0.84578 0.1321 0.20877 0.0
H1063 H 0.81039 0.13878 0.2256 0.0
C1064 C 0.74443 0.15284 0.34469 0.0
C1065 C 0.72207 0.12909 0.33846 0.0
C1066 C 0.76469 0.16469 0.32629 0.0
C1067 C 0.76254 0.15315 0.3012 0.0
C1068 C 0.74149 0.1281 0.29603 0.0
C1069 C 0.72127 0.11602 0.31474 0.0
C1070 C 0.77864 0.16977 0.27896 0.0
C1071 C 0.79795 0.16575 0.26758 0.0
C1072 C 0.77556 0.19074 0.27015 0.0
C1073 C 0.7551 0.19548 0.28146 0.0
C1074 C 0.72857 0.17658 0.27895 0.0
C1075 C 0.70949 0.18037 0.29118 0.0
C1076 C 0.71669 0.20312 0.30579 0.0
C1077 C 0.74299 0.22218 0.30807 0.0
C1078 C 0.76216 0.21845 0.29589 0.0
C1079 C 0.84348 0.23053 0.17175 0.0
C1080 C 0.85342 0.25737 0.17547 0.0
C1081 C 0.83072 0.21308 0.19274 0.0
C1082 C 0.82829 0.22234 0.21788 0.0
C1083 C 0.83949 0.24934 0.22186 0.0
C1084 C 0.85174 0.26666 0.20079 0.0
C1085 C 0.81199 0.20403 0.23927 0.0
C1086 C 0.79226 0.20761 0.25051 0.0
C1087 C 0.81495 0.18286 0.24795 0.0
C1088 C 0.83619 0.17879 0.23784 0.0
C1089 C 0.86235 0.19892 0.23933 0.0
C1090 C 0.88226 0.19498 0.22966 0.0
C1091 C 0.87628 0.17093 0.21862 0.0
C1092 C 0.85038 0.15074 0.2173 0.0
C1093 C 0.83039 0.15458 0.22692 0.0
H1094 H 0.89173 0.16792 0.21115 0.0
H1095 H 0.7019 0.20597 0.31533 0.0
H1096 H 0.88496 0.63707 0.33937 0.0
H1097 H 0.87167 0.65215 0.29981 0.0
H1098 H 0.79463 0.58475 0.30501 0.0
H1099 H 0.8073 0.57007 0.34476 0.0
H1100 H 0.82157 0.59317 0.25391 0.0
H1101 H 0.80079 0.63855 0.32355 0.0
H1102 H 0.81282 0.67031 0.36038 0.0
H1103 H 0.8664 0.7317 0.30848 0.0
H1104 H 0.85491 0.70017 0.27143 0.0
H1105 H 0.71744 0.58661 0.19454 0.0
H1106 H 0.74883 0.5979 0.23086 0.0
H1107 H 0.80694 0.66216 0.18433 0.0
H1108 H 0.77515 0.65084 0.14766 0.0
H1109 H 0.80342 0.66634 0.24906 0.0
H1110 H 0.81803 0.62125 0.17674 0.0
H1111 H 0.80293 0.58881 0.14024 0.0
H1112 H 0.76142 0.52711 0.19698 0.0
H1113 H 0.77582 0.55921 0.23379 0.0
C1114 C 0.86506 0.62574 0.33238 0.0
C1115 C 0.84729 0.60213 0.345 0.0
C1116 C 0.85759 0.63433 0.30974 0.0
C1117 C 0.83231 0.61936 0.29948 0.0
C1118 C 0.81435 0.59636 0.31255 0.0
C1119 C 0.82168 0.58792 0.33517 0.0
C1120 C 0.82437 0.6265 0.2744 0.0
C1121 C 0.818 0.60941 0.25265 0.0
C1122 C 0.82047 0.64813 0.2726 0.0
C1123 C 0.82729 0.66697 0.29487 0.0
C1124 C 0.81534 0.65877 0.32008 0.0
C1125 C 0.82201 0.67673 0.34097 0.0
C1126 C 0.84045 0.70299 0.3368 0.0
C1127 C 0.85218 0.71135 0.3117 0.0
C1128 C 0.8456 0.69344 0.29076 0.0
C1129 C 0.73671 0.60352 0.19237 0.0
C1130 C 0.74416 0.61765 0.16835 0.0
C1131 C 0.75451 0.61006 0.2131 0.0
C1132 C 0.78013 0.63068 0.21003 0.0
C1133 C 0.78715 0.64627 0.18696 0.0
C1134 C 0.7691 0.63978 0.16613 0.0
C1135 C 0.79985 0.63244 0.22913 0.0
C1136 C 0.80824 0.65093 0.24978 0.0
C1137 C 0.8059 0.6122 0.22991 0.0
C1138 C 0.79792 0.59268 0.208 0.0
C1139 C 0.80554 0.60078 0.18142 0.0
C1140 C 0.79707 0.58247 0.16068 0.0
C1141 C 0.78113 0.55596 0.16631 0.0
C1142 C 0.77372 0.54767 0.19268 0.0
C1143 C 0.78206 0.56592 0.21349 0.0
H1144 H 0.77475 0.54184 0.15026 0.0
H1145 H 0.84557 0.71688 0.353 0.0
H1146 H 0.63054 0.89753 0.82543 0.0
H1147 H 0.6487 0.88888 0.78492 0.0
H1148 H 0.63038 0.81396 0.81703 0.0
H1149 H 0.61155 0.82228 0.85698 0.0
H1150 H 0.68159 0.84489 0.78558 0.0
H1151 H 0.58535 0.8099 0.78344 0.0
H1152 H 0.54848 0.81798 0.78785 0.0
H1153 H 0.58213 0.87743 0.72743 0.0
H1154 H 0.61936 0.86986 0.72292 0.0
H1155 H 0.63138 0.73154 0.7137 0.0
H1156 H 0.64762 0.77051 0.74076 0.0
H1157 H 0.64136 0.81254 0.67327 0.0
H1158 H 0.62513 0.77328 0.64571 0.0
H1159 H 0.61487 0.81514 0.71376 0.0
H1160 H 0.7011 0.83441 0.70387 0.0
H1161 H 0.73855 0.82728 0.70034 0.0
H1162 H 0.72724 0.80088 0.78192 0.0
H1163 H 0.68946 0.80743 0.78587 0.0
C1164 C 0.63113 0.87958 0.82401 0.0
C1165 C 0.61966 0.86043 0.844 0.0
C1166 C 0.64152 0.87472 0.80103 0.0
C1167 C 0.64098 0.85089 0.79822 0.0
C1168 C 0.63121 0.83258 0.81908 0.0
C1169 C 0.62031 0.83719 0.84168 0.0
C1170 C 0.64613 0.84275 0.77213 0.0
C1171 C 0.66732 0.8386 0.7696 0.0
C1172 C 0.62795 0.83562 0.75105 0.0
C1173 C 0.60517 0.83949 0.75301 0.0
C1174 C 0.58489 0.82474 0.77116 0.0
C1175 C 0.56395 0.82922 0.77369 0.0
C1176 C 0.563 0.84825 0.75797 0.0
C1177 C 0.58294 0.86276 0.73964 0.0
C1178 C 0.60394 0.85836 0.73706 0.0
C1179 C 0.63429 0.74921 0.70418 0.0
C1180 C 0.62648 0.74906 0.67758 0.0
C1181 C 0.64373 0.77166 0.71975 0.0
C1182 C 0.64582 0.79455 0.70906 0.0
C1183 C 0.63987 0.79508 0.68195 0.0
C1184 C 0.63042 0.77256 0.6663 0.0
C1185 C 0.64981 0.81588 0.72749 0.0
C1186 C 0.63011 0.82245 0.72882 0.0
C1187 C 0.66962 0.82549 0.74724 0.0
C1188 C 0.69236 0.82142 0.74514 0.0
C1189 C 0.70647 0.82693 0.72103 0.0
C1190 C 0.72779 0.823 0.71896 0.0
C1191 C 0.73527 0.81363 0.74089 0.0
C1192 C 0.72145 0.80818 0.76496 0.0
C1193 C 0.70011 0.81206 0.76714 0.0
H1194 H 0.75178 0.81061 0.73925 0.0
H1195 H 0.54678 0.85171 0.75996 0.0
H1196 H 0.16741 0.77956 0.85012 0.0
H1197 H 0.18631 0.81511 0.81813 0.0
H1198 H 0.12307 0.77032 0.76331 0.0
H1199 H 0.10504 0.73386 0.79441 0.0
H1200 H 0.16562 0.78307 0.73981 0.0
H1201 H 0.13705 0.83215 0.78918 0.0
H1202 H 0.12855 0.85178 0.82868 0.0
H1203 H 0.21074 0.89774 0.84385 0.0
H1204 H 0.21977 0.87813 0.80468 0.0
H1205 H 0.24018 0.87667 0.64413 0.0
H1206 H 0.20525 0.86145 0.67751 0.0
H1207 H 0.25951 0.86939 0.73936 0.0
H1208 H 0.29435 0.88408 0.70587 0.0
H1209 H 0.21376 0.87885 0.75447 0.0
H1210 H 0.23761 0.81706 0.71444 0.0
H1211 H 0.24706 0.79853 0.67459 0.0
H1212 H 0.17182 0.77697 0.64212 0.0
H1213 H 0.1622 0.79594 0.68159 0.0
C1214 C 0.15731 0.77725 0.83139 0.0
C1215 C 0.1352 0.75335 0.82455 0.0
C1216 C 0.16791 0.79793 0.81324 0.0
C1217 C 0.1562 0.79544 0.78816 0.0
C1218 C 0.13256 0.77265 0.78247 0.0
C1219 C 0.12219 0.75177 0.80043 0.0
C1220 C 0.17106 0.8142 0.76646 0.0
C1221 C 0.17535 0.80402 0.7428 0.0
C1222 C 0.18433 0.84161 0.77037 0.0
C1223 C 0.17907 0.85356 0.79398 0.0
C1224 C 0.15332 0.84631 0.80103 0.0
C1225 C 0.14841 0.85746 0.82335 0.0
C1226 C 0.16909 0.87598 0.83877 0.0
C1227 C 0.19474 0.88341 0.83187 0.0
C1228 C 0.19977 0.87232 0.80956 0.0
C1229 C 0.24483 0.87617 0.66501 0.0
C1230 C 0.26975 0.88119 0.67256 0.0
C1231 C 0.22493 0.86759 0.68402 0.0
C1232 C 0.22992 0.86435 0.71078 0.0
C1233 C 0.25543 0.87205 0.71881 0.0
C1234 C 0.27519 0.88015 0.69972 0.0
C1235 C 0.20817 0.8474 0.72866 0.0
C1236 C 0.20299 0.8579 0.75142 0.0
C1237 C 0.19389 0.82024 0.72406 0.0
C1238 C 0.19932 0.80816 0.70075 0.0
C1239 C 0.22317 0.80853 0.6987 0.0
C1240 C 0.22856 0.79795 0.6762 0.0
C1241 C 0.21007 0.78662 0.6558 0.0
C1242 C 0.18614 0.78579 0.65791 0.0
C1243 C 0.18072 0.79647 0.68033 0.0
H1244 H 0.21426 0.77843 0.63839 0.0
H1245 H 0.16524 0.88458 0.85605 0.0
H1246 H 0.11898 0.35283 0.64621 0.0
H1247 H 0.13706 0.33314 0.67627 0.0
H1248 H 0.21316 0.4017 0.66846 0.0
H1249 H 0.19542 0.42096 0.6382 0.0
H1250 H 0.21841 0.36051 0.6766 0.0
H1251 H 0.16802 0.39702 0.71658 0.0
H1252 H 0.12782 0.39908 0.72324 0.0
H1253 H 0.08737 0.31905 0.74875 0.0
H1254 H 0.12731 0.31647 0.74189 0.0
H1255 H 0.28054 0.41418 0.7966 0.0
H1256 H 0.25762 0.39931 0.75409 0.0
H1257 H 0.20092 0.32694 0.79102 0.0
H1258 H 0.22386 0.3421 0.83403 0.0
H1259 H 0.17886 0.35178 0.76637 0.0
H1260 H 0.239 0.32515 0.74088 0.0
H1261 H 0.282 0.32856 0.73596 0.0
H1262 H 0.30743 0.39537 0.68496 0.0
H1263 H 0.26475 0.39263 0.68985 0.0
C1264 C 0.13968 0.36331 0.65042 0.0
C1265 C 0.1557 0.38856 0.64023 0.0
C1266 C 0.14999 0.35206 0.66751 0.0
C1267 C 0.17633 0.36621 0.67509 0.0
C1268 C 0.19277 0.39039 0.66293 0.0
C1269 C 0.18257 0.40144 0.6456 0.0
C1270 C 0.18613 0.3584 0.69857 0.0
C1271 C 0.20969 0.35832 0.69624 0.0
C1272 C 0.17438 0.35487 0.7241 0.0
C1273 C 0.15047 0.35644 0.72839 0.0
C1274 C 0.15049 0.37983 0.72347 0.0
C1275 C 0.12777 0.3811 0.72728 0.0
C1276 C 0.10503 0.35918 0.73633 0.0
C1277 C 0.10498 0.33598 0.74167 0.0
C1278 C 0.12763 0.3346 0.73781 0.0
C1279 C 0.26333 0.39501 0.7956 0.0
C1280 C 0.25371 0.37942 0.81862 0.0
C1281 C 0.25047 0.38633 0.77121 0.0
C1282 C 0.22774 0.36186 0.7693 0.0
C1283 C 0.2186 0.34577 0.79204 0.0
C1284 C 0.23165 0.35441 0.81652 0.0
C1285 C 0.21188 0.35527 0.74462 0.0
C1286 C 0.18711 0.3527 0.7467 0.0
C1287 C 0.22288 0.35699 0.71901 0.0
C1288 C 0.24859 0.35864 0.71574 0.0
C1289 C 0.25378 0.34064 0.7287 0.0
C1290 C 0.27812 0.34246 0.72591 0.0
C1291 C 0.29743 0.36216 0.71015 0.0
C1292 C 0.29243 0.38008 0.69711 0.0
C1293 C 0.26814 0.37836 0.69984 0.0
H1294 H 0.31626 0.36354 0.70803 0.0
H1295 H 0.08746 0.36019 0.73928 0.0
H1296 H 0.4898 0.23336 0.11486 0.0
H1297 H 0.51427 0.28091 0.1169 0.0
H1298 H 0.48704 0.28489 0.03789 0.0
H1299 H 0.46227 0.23724 0.03574 0.0
H1300 H 0.55388 0.31093 0.08519 0.0
H1301 H 0.48665 0.34279 0.032 0.0
H1302 H 0.43983 0.32845 0.02886 0.0
H1303 H 0.42614 0.2894 0.10464 0.0
H1304 H 0.47291 0.30384 0.10844 0.0
H1305 H 0.6298 0.43639 0.03302 0.0
H1306 H 0.59634 0.39074 0.03664 0.0
H1307 H 0.55846 0.40974 0.09902 0.0
H1308 H 0.59096 0.45571 0.09489 0.0
H1309 H 0.5231 0.37323 0.06564 0.0
H1310 H 0.59716 0.387 0.11605 0.0
H1311 H 0.64378 0.40267 0.1238 0.0
H1312 H 0.6427 0.35109 0.0627 0.0
H1313 H 0.5961 0.3354 0.05425 0.0
C1314 C 0.48862 0.24432 0.09808 0.0
C1315 C 0.47429 0.23152 0.075 0.0
C1316 C 0.50267 0.2715 0.09928 0.0
C1317 C 0.50255 0.28643 0.07754 0.0
C1318 C 0.48721 0.27374 0.05501 0.0
C1319 C 0.47312 0.2465 0.05378 0.0
C1320 C 0.52033 0.31506 0.07739 0.0
C1321 C 0.54709 0.32451 0.08098 0.0
C1322 C 0.51145 0.33284 0.07239 0.0
C1323 C 0.48328 0.32416 0.07033 0.0
C1324 C 0.47367 0.33121 0.04803 0.0
C1325 C 0.44713 0.32306 0.04614 0.0
C1326 C 0.43001 0.30794 0.06649 0.0
C1327 C 0.4394 0.30101 0.08883 0.0
C1328 C 0.46592 0.30914 0.09083 0.0
C1329 C 0.61417 0.43117 0.0472 0.0
C1330 C 0.61351 0.45002 0.06389 0.0
C1331 C 0.59511 0.40491 0.04937 0.0
C1332 C 0.57516 0.39688 0.06843 0.0
C1333 C 0.57378 0.4156 0.08436 0.0
C1334 C 0.59267 0.44191 0.08209 0.0
C1335 C 0.55654 0.36881 0.07265 0.0
C1336 C 0.52974 0.35953 0.06986 0.0
C1337 C 0.56528 0.35119 0.07905 0.0
C1338 C 0.59319 0.3602 0.08435 0.0
C1339 C 0.60689 0.37911 0.10414 0.0
C1340 C 0.63331 0.38799 0.10866 0.0
C1341 C 0.6462 0.37794 0.09369 0.0
C1342 C 0.63268 0.35888 0.07424 0.0
C1343 C 0.60625 0.34998 0.06959 0.0
H1344 H 0.66667 0.38491 0.09719 0.0
H1345 H 0.40947 0.30165 0.06498 0.0
H1346 H 0.7765 0.25801 0.05169 0.0
H1347 H 0.72899 0.23663 0.05175 0.0
H1348 H 0.72987 0.25572 0.13523 0.0
H1349 H 0.7776 0.27747 0.13537 0.0
H1350 H 0.68767 0.20321 0.11852 0.0
H1351 H 0.72479 0.2941 0.09841 0.0
H1352 H 0.75564 0.335 0.07547 0.0
H1353 H 0.72286 0.3002 0.99941 0.0
H1354 H 0.69206 0.25893 0.02189 0.0
H1355 H 0.56057 0.19193 0.11344 0.0
H1356 H 0.60606 0.20499 0.12205 0.0
H1357 H 0.61841 0.20067 0.03749 0.0
H1358 H 0.57287 0.18708 0.02873 0.0
H1359 H 0.65423 0.24706 0.05908 0.0
H1360 H 0.61786 0.15535 0.08015 0.0
H1361 H 0.58974 0.11384 0.10363 0.0
H1362 H 0.62082 0.15091 0.17928 0.0
H1363 H 0.64921 0.19264 0.15623 0.0
C1364 C 0.76663 0.25729 0.07021 0.0
C1365 C 0.78081 0.26969 0.09345 0.0
C1366 C 0.73949 0.24506 0.0702 0.0
C1367 C 0.72607 0.24484 0.09343 0.0
C1368 C 0.73997 0.25572 0.11713 0.0
C1369 C 0.7672 0.26821 0.11711 0.0
C1370 C 0.69786 0.23557 0.09198 0.0
C1371 C 0.68026 0.21293 0.10588 0.0
C1372 C 0.6884 0.24831 0.07538 0.0
C1373 C 0.70631 0.27333 0.06181 0.0
C1374 C 0.72428 0.29511 0.07678 0.0
C1375 C 0.74176 0.31836 0.06387 0.0
C1376 C 0.74133 0.32012 0.03599 0.0
C1377 C 0.72323 0.29875 0.021 0.0
C1378 C 0.70574 0.27544 0.03382 0.0
C1379 C 0.57279 0.19329 0.09669 0.0
C1380 C 0.56305 0.18863 0.07031 0.0
C1381 C 0.59882 0.20077 0.10168 0.0
C1382 C 0.61558 0.20379 0.08041 0.0
C1383 C 0.6058 0.19857 0.05418 0.0
C1384 C 0.57979 0.19098 0.04919 0.0
C1385 C 0.64375 0.21416 0.08506 0.0
C1386 C 0.66148 0.23728 0.07187 0.0
C1387 C 0.65321 0.20196 0.10255 0.0
C1388 C 0.63553 0.17714 0.11648 0.0
C1389 C 0.61856 0.15469 0.1018 0.0
C1390 C 0.60271 0.13109 0.11501 0.0
C1391 C 0.60364 0.12971 0.1429 0.0
C1392 C 0.62028 0.15197 0.15766 0.0
C1393 C 0.63629 0.17558 0.14453 0.0
H1394 H 0.59136 0.11142 0.15308 0.0
H1395 H 0.75496 0.33809 0.02602 0.0
H1396 H 0.79551 0.37031 0.11318 0.0
H1397 H 0.77883 0.4003 0.1194 0.0
H1398 H 0.82982 0.44979 0.05681 0.0
H1399 H 0.84695 0.42012 0.05086 0.0
H1400 H 0.8306 0.47754 0.10149 0.0
H1401 H 0.76613 0.41204 0.04317 0.0
H1402 H 0.73418 0.36725 0.02919 0.0
H1403 H 0.69067 0.35611 0.1016 0.0
H1404 H 0.7223 0.40098 0.11592 0.0
H1405 H 0.77207 0.55363 0.07085 0.0
H1406 H 0.79201 0.52623 0.07291 0.0
H1407 H 0.73381 0.47586 0.13007 0.0
H1408 H 0.71349 0.50289 0.12777 0.0
H1409 H 0.73665 0.44807 0.09074 0.0
H1410 H 0.79945 0.5132 0.14926 0.0
H1411 H 0.83181 0.55733 0.16484 0.0
H1412 H 0.87832 0.56855 0.09477 0.0
H1413 H 0.84637 0.5244 0.07889 0.0
C1414 C 0.80324 0.38763 0.10083 0.0
C1415 C 0.82244 0.39279 0.08143 0.0
C1416 C 0.79354 0.40462 0.10425 0.0
C1417 C 0.80291 0.42711 0.08837 0.0
C1418 C 0.82226 0.43246 0.06917 0.0
C1419 C 0.83185 0.41539 0.06564 0.0
C1420 C 0.79269 0.44518 0.09194 0.0
C1421 C 0.81011 0.47121 0.09889 0.0
C1422 C 0.76585 0.43668 0.08931 0.0
C1423 C 0.74672 0.40975 0.08074 0.0
C1424 C 0.74983 0.39998 0.05618 0.0
C1425 C 0.73175 0.37461 0.04817 0.0
C1426 C 0.71051 0.35877 0.06458 0.0
C1427 C 0.70718 0.36837 0.08894 0.0
C1428 C 0.72511 0.39382 0.09696 0.0
C1429 C 0.76376 0.53698 0.0842 0.0
C1430 C 0.74108 0.53035 0.09897 0.0
C1431 C 0.77529 0.52139 0.0855 0.0
C1432 C 0.76446 0.49899 0.10172 0.0
C1433 C 0.74246 0.49298 0.11735 0.0
C1434 C 0.73091 0.50853 0.11605 0.0
C1435 C 0.77457 0.48058 0.10038 0.0
C1436 C 0.75712 0.45444 0.09368 0.0
C1437 C 0.80134 0.48893 0.10354 0.0
C1438 C 0.82039 0.51562 0.11276 0.0
C1439 C 0.81647 0.52517 0.13707 0.0
C1440 C 0.83477 0.55014 0.14599 0.0
C1441 C 0.85698 0.5658 0.1307 0.0
C1442 C 0.86106 0.55643 0.10656 0.0
C1443 C 0.84293 0.53139 0.09764 0.0
H1444 H 0.87108 0.58514 0.13762 0.0
H1445 H 0.69659 0.33908 0.05839 0.0
H1446 H 0.76996 0.49972 0.37754 0.0
H1447 H 0.7225 0.47291 0.37468 0.0
H1448 H 0.71617 0.48483 0.45896 0.0
H1449 H 0.76362 0.51165 0.46206 0.0
H1450 H 0.69011 0.43293 0.44434 0.0
H1451 H 0.69687 0.51322 0.41386 0.0
H1452 H 0.71302 0.55223 0.38523 0.0
H1453 H 0.68198 0.50358 0.31567 0.0
H1454 H 0.66608 0.46428 0.34382 0.0
H1455 H 0.55322 0.37072 0.45307 0.0
H1456 H 0.59966 0.40304 0.45436 0.0
H1457 H 0.60449 0.39614 0.36878 0.0
H1458 H 0.55773 0.36431 0.36732 0.0
H1459 H 0.63143 0.44623 0.38388 0.0
H1460 H 0.62638 0.36655 0.41165 0.0
H1461 H 0.61086 0.32642 0.43835 0.0
H1462 H 0.63952 0.37209 0.51012 0.0
H1463 H 0.65491 0.4125 0.48388 0.0
C1464 C 0.75845 0.49695 0.3954 0.0
C1465 C 0.77054 0.50768 0.42007 0.0
C1466 C 0.73134 0.48171 0.39369 0.0
C1467 C 0.71587 0.47694 0.41661 0.0
C1468 C 0.72782 0.4883 0.44106 0.0
C1469 C 0.75491 0.50369 0.44276 0.0
C1470 C 0.68744 0.45854 0.41551 0.0
C1471 C 0.67718 0.43601 0.43142 0.0
C1472 C 0.67084 0.46215 0.39789 0.0
C1473 C 0.68048 0.4858 0.38094 0.0
C1474 C 0.69371 0.51084 0.39243 0.0
C1475 C 0.70279 0.53301 0.37629 0.0
C1476 C 0.69859 0.53039 0.34864 0.0
C1477 C 0.68525 0.50559 0.33708 0.0
C1478 C 0.67619 0.48336 0.35312 0.0
C1479 C 0.56421 0.37603 0.43456 0.0
C1480 C 0.55195 0.36484 0.41013 0.0
C1481 C 0.59073 0.39451 0.4353 0.0
C1482 C 0.60562 0.40179 0.4117 0.0
C1483 C 0.59334 0.39091 0.38721 0.0
C1484 C 0.56669 0.3727 0.3864 0.0
C1485 C 0.63403 0.42058 0.4127 0.0
C1486 C 0.64432 0.44312 0.39677 0.0
C1487 C 0.65078 0.4168 0.42997 0.0
C1488 C 0.64156 0.39254 0.44582 0.0
C1489 C 0.62919 0.36803 0.43315 0.0
C1490 C 0.62045 0.34523 0.4482 0.0
C1491 C 0.62414 0.3467 0.47592 0.0
C1492 C 0.63664 0.37098 0.48865 0.0
C1493 C 0.6454 0.39384 0.47369 0.0
H1494 H 0.61736 0.32904 0.48753 0.0
H1495 H 0.70563 0.54758 0.33619 0.0
H1496 H 0.58872 0.20116 0.42012 0.0
H1497 H 0.54873 0.20181 0.41244 0.0
H1498 H 0.51059 0.12167 0.38641 0.0
H1499 H 0.55073 0.12035 0.39509 0.0
H1500 H 0.50806 0.16136 0.35024 0.0
H1501 H 0.48588 0.12596 0.43769 0.0
H1502 H 0.49378 0.12107 0.48524 0.0
H1503 H 0.51254 0.19993 0.50065 0.0
H1504 H 0.50493 0.20538 0.45314 0.0
H1505 H 0.41088 0.21017 0.39815 0.0
H1506 H 0.42451 0.17747 0.398 0.0
H1507 H 0.49159 0.22857 0.35006 0.0
H1508 H 0.47776 0.26095 0.34958 0.0
H1509 H 0.46538 0.18466 0.42197 0.0
H1510 H 0.51797 0.19672 0.31835 0.0
H1511 H 0.50994 0.20041 0.27062 0.0
H1512 H 0.42785 0.16517 0.28603 0.0
H1513 H 0.43523 0.16056 0.33378 0.0
C1514 C 0.57182 0.18335 0.41345 0.0
C1515 C 0.57309 0.16065 0.40835 0.0
C1516 C 0.54894 0.18386 0.4089 0.0
C1517 C 0.5268 0.16179 0.39896 0.0
C1518 C 0.52759 0.13888 0.39411 0.0
C1519 C 0.55056 0.13824 0.39898 0.0
C1520 C 0.5036 0.16389 0.39266 0.0
C1521 C 0.49823 0.16604 0.36575 0.0
C1522 C 0.49049 0.16924 0.41309 0.0
C1523 C 0.49484 0.16607 0.44181 0.0
C1524 C 0.4918 0.1423 0.45119 0.0
C1525 C 0.49623 0.13943 0.47814 0.0
C1526 C 0.50372 0.16019 0.49595 0.0
C1527 C 0.50671 0.18385 0.48684 0.0
C1528 C 0.50225 0.18682 0.45991 0.0
C1529 C 0.42818 0.21416 0.387 0.0
C1530 C 0.44348 0.23832 0.37424 0.0
C1531 C 0.43593 0.19542 0.38691 0.0
C1532 C 0.45908 0.20047 0.37404 0.0
C1533 C 0.47339 0.22389 0.35973 0.0
C1534 C 0.46557 0.24257 0.35968 0.0
C1535 C 0.47067 0.18371 0.37927 0.0
C1536 C 0.47416 0.17907 0.40614 0.0
C1537 C 0.48182 0.17589 0.35868 0.0
C1538 C 0.4772 0.17845 0.32983 0.0
C1539 C 0.49816 0.18956 0.31161 0.0
C1540 C 0.49372 0.19183 0.2845 0.0
C1541 C 0.46841 0.18311 0.27531 0.0
C1542 C 0.44746 0.172 0.29319 0.0
C1543 C 0.45177 0.16956 0.3203 0.0
H1544 H 0.46503 0.18492 0.25432 0.0
H1545 H 0.50717 0.15793 0.5168 0.0
H1546 H 0.83234 0.42441 0.46756 0.0
H1547 H 0.81492 0.37759 0.46275 0.0
H1548 H 0.7843 0.37969 0.38499 0.0
H1549 H 0.80085 0.42635 0.39011 0.0
H1550 H 0.74883 0.34098 0.41322 0.0
H1551 H 0.8415 0.37083 0.39457 0.0
H1552 H 0.88815 0.39577 0.40659 0.0
H1553 H 0.87176 0.35314 0.48043 0.0
H1554 H 0.82501 0.32835 0.46887 0.0
H1555 H 0.70854 0.21621 0.36736 0.0
H1556 H 0.73414 0.26363 0.37167 0.0
H1557 H 0.76501 0.25536 0.44701 0.0
H1558 H 0.74052 0.20776 0.44183 0.0
H1559 H 0.80074 0.29679 0.42321 0.0
H1560 H 0.71179 0.26476 0.44406 0.0
H1561 H 0.66427 0.23912 0.43709 0.0
H1562 H 0.67143 0.28457 0.36727 0.0
H1563 H 0.71911 0.31025 0.37358 0.0
C1564 C 0.8219 0.41494 0.44943 0.0
C1565 C 0.81794 0.42921 0.42927 0.0
C1566 C 0.81224 0.38817 0.44654 0.0
C1567 C 0.79869 0.37511 0.42328 0.0
C1568 C 0.79489 0.38935 0.40304 0.0
C1569 C 0.80453 0.41611 0.40591 0.0
C1570 C 0.78706 0.34639 0.42057 0.0
C1571 C 0.76031 0.33141 0.41494 0.0
C1572 C 0.80165 0.33361 0.42431 0.0
C1573 C 0.8298 0.34809 0.43098 0.0
C1574 C 0.84788 0.36704 0.41344 0.0
C1575 C 0.87433 0.38108 0.42015 0.0
C1576 C 0.88293 0.37613 0.44433 0.0
C1577 C 0.8651 0.35702 0.46174 0.0
C1578 C 0.83864 0.34296 0.45508 0.0
C1579 C 0.72117 0.22458 0.38458 0.0
C1580 C 0.72244 0.20848 0.40441 0.0
C1581 C 0.73567 0.25164 0.38713 0.0
C1582 C 0.75088 0.26309 0.4101 0.0
C1583 C 0.75328 0.247 0.42922 0.0
C1584 C 0.73929 0.21985 0.42628 0.0
C1585 C 0.76274 0.29158 0.41486 0.0
C1586 C 0.78934 0.30641 0.42124 0.0
C1587 C 0.74784 0.30418 0.41266 0.0
C1588 C 0.71907 0.2893 0.40917 0.0
C1589 C 0.70325 0.26922 0.42715 0.0
C1590 C 0.67629 0.25467 0.42331 0.0
C1591 C 0.66484 0.26016 0.40171 0.0
C1592 C 0.68034 0.28032 0.38398 0.0
C1593 C 0.70734 0.2949 0.38769 0.0
H1594 H 0.64396 0.24882 0.39874 0.0
H1595 H 0.9034 0.38703 0.44954 0.0
H1596 H 0.3519 0.56734 0.93756 0.0
H1597 H 0.38842 0.61175 0.93192 0.0
H1598 H 0.43688 0.58135 0.90414 0.0
H1599 H 0.40027 0.53674 0.90949 0.0
H1600 H 0.45924 0.62645 0.9453 0.0
H1601 H 0.41444 0.59829 0.85915 0.0
H1602 H 0.37419 0.57947 0.83216 0.0
H1603 H 0.36153 0.64189 0.85583 0.0
H1604 H 0.40117 0.66068 0.88369 0.0
H1605 H 0.55574 0.75636 0.91031 0.0
H1606 H 0.52821 0.70862 0.90897 0.0
H1607 H 0.46003 0.71665 0.89975 0.0
H1608 H 0.4875 0.76367 0.89865 0.0
H1609 H 0.45136 0.67927 0.87272 0.0
H1610 H 0.48411 0.70295 0.96297 0.0
H1611 H 0.51764 0.722 0.99828 0.0
H1612 H 0.54642 0.67099 0.97584 0.0
H1613 H 0.51322 0.65185 0.94018 0.0
C1614 C 0.37042 0.57005 0.9307 0.0
C1615 C 0.37322 0.54853 0.92399 0.0
C1616 C 0.39121 0.59542 0.92737 0.0
C1617 C 0.4152 0.5997 0.91753 0.0
C1618 C 0.41845 0.57834 0.91173 0.0
C1619 C 0.39752 0.55294 0.91467 0.0
C1620 C 0.43634 0.62656 0.91199 0.0
C1621 C 0.45789 0.63801 0.92918 0.0
C1622 C 0.43395 0.64161 0.89144 0.0
C1623 C 0.41073 0.63081 0.87369 0.0
C1624 C 0.40302 0.60793 0.85875 0.0
C1625 C 0.38031 0.59727 0.84329 0.0
C1626 C 0.36536 0.60947 0.84227 0.0
C1627 C 0.37313 0.63245 0.85663 0.0
C1628 C 0.39569 0.6431 0.87229 0.0
C1629 C 0.53491 0.74773 0.90753 0.0
C1630 C 0.52375 0.76363 0.90448 0.0
C1631 C 0.51912 0.72048 0.90705 0.0
C1632 C 0.49182 0.70878 0.9048 0.0
C1633 C 0.48094 0.7249 0.90131 0.0
C1634 C 0.49671 0.75192 0.90076 0.0
C1635 C 0.47415 0.67998 0.9068 0.0
C1636 C 0.45319 0.6679 0.88872 0.0
C1637 C 0.47644 0.6647 0.92738 0.0
C1638 C 0.49645 0.67624 0.9487 0.0
C1639 C 0.49772 0.69595 0.96545 0.0
C1640 C 0.51664 0.70673 0.98554 0.0
C1641 C 0.53421 0.69778 0.98923 0.0
C1642 C 0.53285 0.67796 0.9729 0.0
C1643 C 0.51399 0.66713 0.95275 0.0
H1644 H 0.54884 0.70615 0.0048 0.0
H1645 H 0.34773 0.60111 0.83039 0.0
H1646 H 0.22994 0.77738 0.91011 0.0
H1647 H 0.27748 0.79941 0.91209 0.0
H1648 H 0.27684 0.7423 0.85786 0.0
H1649 H 0.22941 0.7207 0.85517 0.0
H1650 H 0.30223 0.77873 0.93339 0.0
H1651 H 0.33615 0.76521 0.82788 0.0
H1652 H 0.32546 0.76644 0.78039 0.0
H1653 H 0.29422 0.81598 0.80012 0.0
H1654 H 0.30503 0.81535 0.84769 0.0
H1655 H 0.41522 0.76843 0.93865 0.0
H1656 H 0.37212 0.76204 0.9287 0.0
H1657 H 0.40729 0.83798 0.89166 0.0
H1658 H 0.45051 0.84484 0.90201 0.0
H1659 H 0.36744 0.80023 0.86118 0.0
H1660 H 0.38124 0.83112 0.95135 0.0
H1661 H 0.39305 0.83245 0.99891 0.0
H1662 H 0.33018 0.7539 0.00949 0.0
H1663 H 0.31822 0.75196 0.96188 0.0
C1664 C 0.23999 0.76993 0.89806 0.0
C1665 C 0.22596 0.7472 0.88268 0.0
C1666 C 0.26716 0.78251 0.89923 0.0
C1667 C 0.28079 0.77251 0.8852 0.0
C1668 C 0.26687 0.75067 0.86856 0.0
C1669 C 0.23969 0.73826 0.86712 0.0
C1670 C 0.30887 0.78269 0.89071 0.0
C1671 C 0.31648 0.78365 0.91753 0.0
C1672 C 0.32761 0.78934 0.87009 0.0
C1673 C 0.32118 0.79001 0.84145 0.0
C1674 C 0.32709 0.77645 0.8221 0.0
C1675 C 0.32098 0.77702 0.79516 0.0
C1676 C 0.30906 0.79119 0.78726 0.0
C1677 C 0.30333 0.80491 0.80628 0.0
C1678 C 0.3094 0.80441 0.83326 0.0
C1679 C 0.41388 0.78396 0.92876 0.0
C1680 C 0.43644 0.80715 0.92121 0.0
C1681 C 0.3892 0.78021 0.92294 0.0
C1682 C 0.38656 0.79959 0.90954 0.0
C1683 C 0.40894 0.82274 0.90191 0.0
C1684 C 0.43365 0.82657 0.90782 0.0
C1685 C 0.36032 0.79556 0.90366 0.0
C1686 C 0.35313 0.79563 0.87689 0.0
C1687 C 0.34197 0.7902 0.92428 0.0
C1688 C 0.34895 0.79134 0.953 0.0
C1689 C 0.37004 0.81407 0.96378 0.0
C1690 C 0.37675 0.81494 0.99075 0.0
C1691 C 0.3624 0.79325 0.0072 0.0
C1692 C 0.34128 0.77067 0.99672 0.0
C1693 C 0.33451 0.76969 0.96975 0.0
H1694 H 0.36763 0.79396 0.02808 0.0
H1695 H 0.30432 0.7916 0.7664 0.0
H1696 H 0.22276 0.64229 0.93255 0.0
H1697 H 0.23383 0.60787 0.92681 0.0
H1698 H 0.16211 0.56141 0.88337 0.0
H1699 H 0.15131 0.59595 0.88869 0.0
H1700 H 0.21313 0.55994 0.94208 0.0
H1701 H 0.17233 0.52494 0.83406 0.0
H1702 H 0.16565 0.54249 0.79191 0.0
H1703 H 0.2227 0.62006 0.81584 0.0
H1704 H 0.23053 0.60297 0.85769 0.0
H1705 H 0.21517 0.44459 0.9178 0.0
H1706 H 0.19804 0.47454 0.91806 0.0
H1707 H 0.25742 0.5245 0.86172 0.0
H1708 H 0.27432 0.49448 0.8609 0.0
H1709 H 0.21325 0.52452 0.85201 0.0
H1710 H 0.26731 0.53626 0.92771 0.0
H1711 H 0.28168 0.52236 0.96761 0.0
H1712 H 0.20846 0.49926 0.00614 0.0
H1713 H 0.19348 0.51265 0.96623 0.0
C1714 C 0.20932 0.62463 0.922 0.0
C1715 C 0.18636 0.62189 0.91082 0.0
C1716 C 0.21564 0.60501 0.91866 0.0
C1717 C 0.19902 0.58223 0.90423 0.0
C1718 C 0.17556 0.57906 0.89397 0.0
C1719 C 0.16939 0.59878 0.89706 0.0
C1720 C 0.20628 0.56186 0.89996 0.0
C1721 C 0.21302 0.55217 0.92237 0.0
C1722 C 0.20664 0.55198 0.87415 0.0
C1723 C 0.20172 0.56265 0.84928 0.0
C1724 C 0.18347 0.54575 0.83037 0.0
C1725 C 0.1795 0.55561 0.8065 0.0
C1726 C 0.19359 0.58236 0.80132 0.0
C1727 C 0.21172 0.59934 0.81996 0.0
C1728 C 0.21595 0.58957 0.84376 0.0
C1729 C 0.22422 0.46164 0.905 0.0
C1730 C 0.24633 0.46733 0.88963 0.0
C1731 C 0.21447 0.4788 0.90526 0.0
C1732 C 0.22682 0.50202 0.89036 0.0
C1733 C 0.24767 0.50676 0.87347 0.0
C1734 C 0.25734 0.48956 0.87308 0.0
C1735 C 0.21958 0.52245 0.89414 0.0
C1736 C 0.21297 0.53215 0.87169 0.0
C1737 C 0.22013 0.53299 0.91974 0.0
C1738 C 0.22917 0.5252 0.94389 0.0
C1739 C 0.25421 0.52805 0.94462 0.0
C1740 C 0.26247 0.52028 0.96724 0.0
C1741 C 0.24597 0.50987 0.98937 0.0
C1742 C 0.2212 0.50729 0.98896 0.0
C1743 C 0.21281 0.51497 0.96635 0.0
H1744 H 0.2524 0.50387 0.00687 0.0
H1745 H 0.19057 0.58986 0.78277 0.0
H1746 H 0.45026 0.60346 0.54 0.0
H1747 H 0.40318 0.57297 0.54016 0.0
H1748 H 0.39881 0.59364 0.62212 0.0
H1749 H 0.44565 0.624 0.62207 0.0
H1750 H 0.3693 0.54226 0.61536 0.0
H1751 H 0.38074 0.61918 0.57136 0.0
H1752 H 0.39881 0.65477 0.53811 0.0
H1753 H 0.36717 0.59877 0.47427 0.0
H1754 H 0.34913 0.56282 0.50717 0.0
H1755 H 0.2334 0.5027 0.62025 0.0
H1756 H 0.28107 0.52553 0.62185 0.0
H1757 H 0.28304 0.49979 0.54147 0.0
H1758 H 0.23553 0.47713 0.5396 0.0
H1759 H 0.31388 0.55206 0.54726 0.0
H1760 H 0.29862 0.47483 0.59452 0.0
H1761 H 0.27971 0.44126 0.62982 0.0
H1762 H 0.31768 0.5001 0.69019 0.0
H1763 H 0.33648 0.5341 0.65528 0.0
C1764 C 0.43922 0.60156 0.55798 0.0
C1765 C 0.45167 0.61615 0.58099 0.0
C1766 C 0.41237 0.58409 0.55809 0.0
C1767 C 0.39748 0.58119 0.58111 0.0
C1768 C 0.40994 0.59545 0.60421 0.0
C1769 C 0.43674 0.61278 0.60414 0.0
C1770 C 0.3688 0.56396 0.58094 0.0
C1771 C 0.35712 0.54449 0.60062 0.0
C1772 C 0.353 0.56677 0.56155 0.0
C1773 C 0.36384 0.58832 0.54171 0.0
C1774 C 0.37782 0.61446 0.55022 0.0
C1775 C 0.38802 0.63469 0.53145 0.0
C1776 C 0.38422 0.62903 0.5041 0.0
C1777 C 0.37014 0.60312 0.49547 0.0
C1778 C 0.3599 0.58281 0.51417 0.0
C1779 C 0.24398 0.50162 0.60306 0.0
C1780 C 0.23073 0.48828 0.57972 0.0
C1781 C 0.2712 0.51457 0.60405 0.0
C1782 C 0.28554 0.51426 0.5818 0.0
C1783 C 0.2723 0.50027 0.55884 0.0
C1784 C 0.24515 0.48732 0.55783 0.0
C1785 C 0.31433 0.5302 0.58156 0.0
C1786 C 0.32604 0.54958 0.56186 0.0
C1787 C 0.33002 0.52753 0.60122 0.0
C1788 C 0.31877 0.50706 0.62225 0.0
C1789 C 0.30275 0.48065 0.61533 0.0
C1790 C 0.29209 0.46153 0.63527 0.0
C1791 C 0.29744 0.46854 0.66223 0.0
C1792 C 0.31352 0.49469 0.6693 0.0
C1793 C 0.3242 0.5139 0.64944 0.0
H1794 H 0.28917 0.45371 0.67763 0.0
H1795 H 0.39212 0.64472 0.48959 0.0
H1796 H 0.39616 0.80922 0.55607 0.0
H1797 H 0.42659 0.79351 0.56339 0.0
H1798 H 0.41986 0.7992 0.64882 0.0
H1799 H 0.38898 0.81469 0.64168 0.0
H1800 H 0.4695 0.81586 0.6352 0.0
H1801 H 0.38787 0.74071 0.61913 0.0
H1802 H 0.34601 0.71212 0.59666 0.0
H1803 H 0.38665 0.71059 0.52608 0.0
H1804 H 0.42881 0.73946 0.54796 0.0
H1805 H 0.52166 0.72755 0.653 0.0
H1806 H 0.49383 0.7473 0.65501 0.0
H1807 H 0.50657 0.76515 0.57074 0.0
H1808 H 0.53471 0.74603 0.5686 0.0
H1809 H 0.4517 0.73397 0.58979 0.0
H1810 H 0.53406 0.81301 0.60848 0.0
H1811 H 0.57439 0.83859 0.63455 0.0
H1812 H 0.52923 0.82849 0.70548 0.0
H1813 H 0.48859 0.80249 0.67987 0.0
C1814 C 0.40093 0.80695 0.57643 0.0
C1815 C 0.38987 0.81294 0.59826 0.0
C1816 C 0.41841 0.79804 0.5806 0.0
C1817 C 0.42507 0.79468 0.60668 0.0
C1818 C 0.41481 0.80148 0.62855 0.0
C1819 C 0.39726 0.81042 0.6244 0.0
C1820 C 0.44233 0.78355 0.61079 0.0
C1821 C 0.4654 0.79775 0.62561 0.0
C1822 C 0.4369 0.75981 0.59847 0.0
C1823 C 0.41155 0.74247 0.58513 0.0
C1824 C 0.38791 0.73448 0.59873 0.0
C1825 C 0.36412 0.7182 0.5861 0.0
C1826 C 0.36367 0.70965 0.55993 0.0
C1827 C 0.38703 0.71728 0.54634 0.0
C1828 C 0.41089 0.73358 0.55885 0.0
C1829 C 0.5189 0.73613 0.63502 0.0
C1830 C 0.53032 0.73521 0.61062 0.0
C1831 C 0.50302 0.74736 0.63622 0.0
C1832 C 0.49813 0.75751 0.61299 0.0
C1833 C 0.51014 0.75735 0.58885 0.0
C1834 C 0.52632 0.74654 0.58771 0.0
C1835 C 0.47917 0.76677 0.61325 0.0
C1836 C 0.45564 0.75201 0.59945 0.0
C1837 C 0.48392 0.78958 0.62703 0.0
C1838 C 0.5083 0.80555 0.64233 0.0
C1839 C 0.53272 0.81604 0.62968 0.0
C1840 C 0.55564 0.83066 0.64436 0.0
C1841 C 0.55437 0.83508 0.67167 0.0
C1842 C 0.53018 0.825 0.68433 0.0
C1843 C 0.5072 0.81035 0.66974 0.0
H1844 H 0.57215 0.84637 0.68296 0.0
H1845 H 0.34522 0.69703 0.5502 0.0
H1846 H 0.26823 0.77802 0.64205 0.0
H1847 H 0.24603 0.73054 0.63837 0.0
H1848 H 0.23149 0.73585 0.55459 0.0
H1849 H 0.25312 0.7833 0.55828 0.0
H1850 H 0.19168 0.69326 0.57602 0.0
H1851 H 0.28498 0.73186 0.57389 0.0
H1852 H 0.32987 0.75959 0.5905 0.0
H1853 H 0.31023 0.71488 0.66313 0.0
H1854 H 0.2652 0.68688 0.64698 0.0
H1855 H 0.18703 0.57818 0.52691 0.0
H1856 H 0.20044 0.6236 0.53612 0.0
H1857 H 0.20332 0.6104 0.6206 0.0
H1858 H 0.18923 0.56486 0.61193 0.0
H1859 H 0.24743 0.65603 0.60113 0.0
H1860 H 0.15391 0.61438 0.59888 0.0
H1861 H 0.11034 0.58676 0.57923 0.0
H1862 H 0.13177 0.63785 0.51125 0.0
H1863 H 0.17565 0.66561 0.53033 0.0
C1864 C 0.25989 0.76908 0.62296 0.0
C1865 C 0.26285 0.78447 0.60035 0.0
C1866 C 0.24727 0.74192 0.62086 0.0
C1867 C 0.23773 0.72969 0.59602 0.0
C1868 C 0.23886 0.74487 0.57392 0.0
C1869 C 0.25125 0.77203 0.57608 0.0
C1870 C 0.22862 0.7015 0.5925 0.0
C1871 C 0.20393 0.68516 0.58133 0.0
C1872 C 0.24453 0.69085 0.59966 0.0
C1873 C 0.27166 0.70744 0.60934 0.0
C1874 C 0.29021 0.72804 0.59347 0.0
C1875 C 0.31568 0.7438 0.60279 0.0
C1876 C 0.32286 0.73911 0.62791 0.0
C1877 C 0.30463 0.71854 0.6437 0.0
C1878 C 0.27915 0.70267 0.63445 0.0
C1879 C 0.19026 0.58468 0.5475 0.0
C1880 C 0.18679 0.56742 0.56859 0.0
C1881 C 0.19801 0.61078 0.5527 0.0
C1882 C 0.20265 0.62028 0.57905 0.0
C1883 C 0.19984 0.60343 0.6001 0.0
C1884 C 0.19184 0.57728 0.59499 0.0
C1885 C 0.21054 0.64785 0.58459 0.0
C1886 C 0.23507 0.66409 0.59607 0.0
C1887 C 0.19464 0.65844 0.57733 0.0
C1888 C 0.16817 0.64195 0.56594 0.0
C1889 C 0.14942 0.61963 0.57965 0.0
C1890 C 0.12464 0.60396 0.56863 0.0
C1891 C 0.11831 0.61051 0.54397 0.0
C1892 C 0.13672 0.63279 0.53034 0.0
C1893 C 0.16153 0.64852 0.54126 0.0
H1894 H 0.09913 0.59834 0.53547 0.0
H1895 H 0.3426 0.75132 0.63503 0.0
loop_
_geom_bond_atom_site_label_1
_geom_bond_atom_site_label_2
_geom_bond_distance
_geom_bond_site_symmetry_2
_ccdc_geom_bond_type
C0 C1 1.351 . S
C0 N3 1.368 . S
C0 H5 0.931 . S
C1 C0 1.351 . S
C1 N2 1.373 . S
C1 H29 0.930 . S
N2 C1 1.373 . S
N2 C4 1.340 . S
N3 C0 1.368 . S
N3 C4 1.321 . S
N3 Co6 2.135 . S
C4 N2 1.340 . S
C4 N3 1.321 . S
C4 H28 0.930 . S
H5 C0 0.931 . S
Co6 N3 2.135 . S
Co6 N9 2.121 . S
Co6 O14 2.055 . S
Co6 O17 2.039 . S
Co6 N20 2.140 . S
C7 O8 1.227 . S
C7 O17 1.265 . S
O8 C7 1.227 . S
N9 Co6 2.121 . S
N9 C11 1.375 . S
N9 C12 1.313 . S
C10 C11 1.338 . S
C10 N13 1.377 . S
C10 H30 0.930 . S
C11 N9 1.375 . S
C11 C10 1.338 . S
C11 H15 0.931 . S
C12 N9 1.313 . S
C12 N13 1.344 . S
C12 H16 0.930 . S
N13 C10 1.377 . S
N13 C12 1.344 . S
O14 Co6 2.055 . S
O14 C18 1.253 . S
H15 C11 0.931 . S
H16 C12 0.930 . S
O17 Co6 2.039 . S
O17 C7 1.265 . S
C18 O14 1.253 . S
C18 O19 1.227 . S
O19 C18 1.227 . S
N20 Co6 2.140 . S
N20 C23 1.346 . S
N20 C24 1.345 . S
C21 C22 1.387 . S
C21 C25 1.391 . S
C22 C21 1.387 . S
C22 C23 1.369 . S
C22 H31 0.929 . S
C23 N20 1.346 . S
C23 C22 1.369 . S
C23 H26 0.928 . S
C24 N20 1.345 . S
C24 C25 1.371 . S
C24 H27 0.931 . S
C25 C21 1.391 . S
C25 C24 1.371 . S
C25 H32 0.930 . S
H26 C23 0.928 . S
H27 C24 0.931 . S
H28 C4 0.930 . S
H29 C1 0.930 . S
H30 C10 0.930 . S
H31 C22 0.929 . S
H32 C25 0.930 . S
C33 C34 1.351 . S
C33 N36 1.368 . S
C33 H38 0.931 . S
C34 C33 1.351 . S
C34 N35 1.373 . S
C34 H62 0.930 . S
N35 C34 1.373 . S
N35 C37 1.340 . S
N36 C33 1.368 . S
N36 C37 1.321 . S
N36 Co39 2.135 . S
C37 N35 1.340 . S
C37 N36 1.321 . S
C37 H61 0.930 . S
H38 C33 0.931 . S
Co39 N36 2.135 . S
Co39 N42 2.121 . S
Co39 O47 2.055 . S
Co39 O50 2.039 . S
Co39 N53 2.140 . S
C40 O41 1.227 . S
C40 O50 1.265 . S
O41 C40 1.227 . S
N42 Co39 2.121 . S
N42 C44 1.375 . S
N42 C45 1.313 . S
C43 C44 1.338 . S
C43 N46 1.377 . S
C43 H63 0.930 . S
C44 N42 1.375 . S
C44 C43 1.338 . S
C44 H48 0.931 . S
C45 N42 1.313 . S
C45 N46 1.344 . S
C45 H49 0.930 . S
N46 C43 1.377 . S
N46 C45 1.344 . S
O47 Co39 2.055 . S
O47 C51 1.253 . S
H48 C44 0.931 . S
H49 C45 0.930 . S
O50 Co39 2.039 . S
O50 C40 1.265 . S
C51 O47 1.253 . S
C51 O52 1.227 . S
O52 C51 1.227 . S
N53 Co39 2.140 . S
N53 C56 1.346 . S
N53 C57 1.345 . S
C54 C55 1.387 . S
C54 C58 1.391 . S
C55 C54 1.387 . S
C55 C56 1.369 . S
C55 H64 0.929 . S
C56 N53 1.346 . S
C56 C55 1.369 . S
C56 H59 0.928 . S
C57 N53 1.345 . S
C57 C58 1.371 . S
C57 H60 0.931 . S
C58 C54 1.391 . S
C58 C57 1.371 . S
C58 H65 0.930 . S
H59 C56 0.928 . S
H60 C57 0.931 . S
H61 C37 0.930 . S
H62 C34 0.930 . S
H63 C43 0.930 . S
H64 C55 0.929 . S
H65 C58 0.930 . S
C66 C67 1.351 . S
C66 N69 1.368 . S
C66 H71 0.931 . S
C67 C66 1.351 . S
C67 N68 1.373 . S
C67 H95 0.930 . S
N68 C67 1.373 . S
N68 C70 1.340 . S
N69 C66 1.368 . S
N69 C70 1.321 . S
N69 Co72 2.135 . S
C70 N68 1.340 . S
C70 N69 1.321 . S
C70 H94 0.930 . S
H71 C66 0.931 . S
Co72 N69 2.135 . S
Co72 N75 2.121 . S
Co72 O80 2.055 . S
Co72 O83 2.039 . S
Co72 N86 2.140 . S
C73 O74 1.227 . S
C73 O83 1.265 . S
O74 C73 1.227 . S
N75 Co72 2.121 . S
N75 C77 1.375 . S
N75 C78 1.313 . S
C76 C77 1.338 . S
C76 N79 1.377 . S
C76 H96 0.930 . S
C77 N75 1.375 . S
C77 C76 1.338 . S
C77 H81 0.931 . S
C78 N75 1.313 . S
C78 N79 1.344 . S
C78 H82 0.930 . S
N79 C76 1.377 . S
N79 C78 1.344 . S
O80 Co72 2.055 . S
O80 C84 1.253 . S
H81 C77 0.931 . S
H82 C78 0.930 . S
O83 Co72 2.039 . S
O83 C73 1.265 . S
C84 O80 1.253 . S
C84 O85 1.227 . S
O85 C84 1.227 . S
N86 Co72 2.140 . S
N86 C89 1.346 . S
N86 C90 1.345 . S
C87 C88 1.387 . S
C87 C91 1.391 . S
C88 C87 1.387 . S
C88 C89 1.369 . S
C88 H97 0.929 . S
C89 N86 1.346 . S
C89 C88 1.369 . S
C89 H92 0.928 . S
C90 N86 1.345 . S
C90 C91 1.371 . S
C90 H93 0.931 . S
C91 C87 1.391 . S
C91 C90 1.371 . S
C91 H98 0.930 . S
H92 C89 0.928 . S
H93 C90 0.931 . S
H94 C70 0.930 . S
H95 C67 0.930 . S
H96 C76 0.930 . S
H97 C88 0.929 . S
H98 C91 0.930 . S
C99 C100 1.351 . S
C99 N102 1.368 . S
C99 H104 0.931 . S
C100 C99 1.351 . S
C100 N101 1.373 . S
C100 H128 0.930 . S
N101 C100 1.373 . S
N101 C103 1.340 . S
N102 C99 1.368 . S
N102 C103 1.321 . S
N102 Co105 2.135 . S
C103 N101 1.340 . S
C103 N102 1.321 . S
C103 H127 0.930 . S
H104 C99 0.931 . S
Co105 N102 2.135 . S
Co105 N108 2.121 . S
Co105 O113 2.055 . S
Co105 O116 2.039 . S
Co105 N119 2.140 . S
C106 O107 1.227 . S
C106 O116 1.265 . S
O107 C106 1.227 . S
N108 Co105 2.121 . S
N108 C110 1.375 . S
N108 C111 1.313 . S
C109 C110 1.338 . S
C109 N112 1.377 . S
C109 H129 0.930 . S
C110 N108 1.375 . S
C110 C109 1.338 . S
C110 H114 0.931 . S
C111 N108 1.313 . S
C111 N112 1.344 . S
C111 H115 0.930 . S
N112 C109 1.377 . S
N112 C111 1.344 . S
O113 Co105 2.055 . S
O113 C117 1.253 . S
H114 C110 0.931 . S
H115 C111 0.930 . S
O116 Co105 2.039 . S
O116 C106 1.265 . S
C117 O113 1.253 . S
C117 O118 1.227 . S
O118 C117 1.227 . S
N119 Co105 2.140 . S
N119 C122 1.346 . S
N119 C123 1.345 . S
C120 C121 1.387 . S
C120 C124 1.391 . S
C121 C120 1.387 . S
C121 C122 1.369 . S
C121 H130 0.929 . S
C122 N119 1.346 . S
C122 C121 1.369 . S
C122 H125 0.928 . S
C123 N119 1.345 . S
C123 C124 1.371 . S
C123 H126 0.931 . S
C124 C120 1.391 . S
C124 C123 1.371 . S
C124 H131 0.930 . S
H125 C122 0.928 . S
H126 C123 0.931 . S
H127 C103 0.930 . S
H128 C100 0.930 . S
H129 C109 0.930 . S
H130 C121 0.929 . S
H131 C124 0.930 . S
C132 C133 1.351 . S
C132 N135 1.368 . S
C132 H137 0.931 . S
C133 C132 1.351 . S
C133 N134 1.373 . S
C133 H161 0.930 . S
N134 C133 1.373 . S
N134 C136 1.340 . S
N135 C132 1.368 . S
N135 C136 1.321 . S
N135 Co138 2.135 . S
C136 N134 1.340 . S
C136 N135 1.321 . S
C136 H160 0.930 . S
H137 C132 0.931 . S
Co138 N135 2.135 . S
Co138 N141 2.121 . S
Co138 O146 2.055 . S
Co138 O149 2.039 . S
Co138 N152 2.140 . S
C139 O140 1.227 . S
C139 O149 1.265 . S
O140 C139 1.227 . S
N141 Co138 2.121 . S
N141 C143 1.375 . S
N141 C144 1.313 . S
C142 C143 1.338 . S
C142 N145 1.377 . S
C142 H162 0.930 . S
C143 N141 1.375 . S
C143 C142 1.338 . S
C143 H147 0.931 . S
C144 N141 1.313 . S
C144 N145 1.344 . S
C144 H148 0.930 . S
N145 C142 1.377 . S
N145 C144 1.344 . S
O146 Co138 2.055 . S
O146 C150 1.253 . S
H147 C143 0.931 . S
H148 C144 0.930 . S
O149 Co138 2.039 . S
O149 C139 1.265 . S
C150 O146 1.253 . S
C150 O151 1.227 . S
O151 C150 1.227 . S
N152 Co138 2.140 . S
N152 C155 1.346 . S
N152 C156 1.345 . S
C153 C154 1.387 . S
C153 C157 1.391 . S
C154 C153 1.387 . S
C154 C155 1.369 . S
C154 H163 0.929 . S
C155 N152 1.346 . S
C155 C154 1.369 . S
C155 H158 0.928 . S
C156 N152 1.345 . S
C156 C157 1.371 . S
C156 H159 0.931 . S
C157 C153 1.391 . S
C157 C156 1.371 . S
C157 H164 0.930 . S
H158 C155 0.928 . S
H159 C156 0.931 . S
H160 C136 0.930 . S
H161 C133 0.930 . S
H162 C142 0.930 . S
H163 C154 0.929 . S
H164 C157 0.930 . S
C165 C166 1.351 . S
C165 N168 1.368 . S
C165 H170 0.931 . S
C166 C165 1.351 . S
C166 N167 1.373 . S
C166 H194 0.930 . S
N167 C166 1.373 . S
N167 C169 1.340 . S
N168 C165 1.368 . S
N168 C169 1.321 . S
N168 Co171 2.135 . S
C169 N167 1.340 . S
C169 N168 1.321 . S
C169 H193 0.930 . S
H170 C165 0.931 . S
Co171 N168 2.135 . S
Co171 N174 2.121 . S
Co171 O179 2.055 . S
Co171 O182 2.039 . S
Co171 N185 2.140 . S
C172 O173 1.227 . S
C172 O182 1.265 . S
O173 C172 1.227 . S
N174 Co171 2.121 . S
N174 C176 1.375 . S
N174 C177 1.313 . S
C175 C176 1.338 . S
C175 N178 1.377 . S
C175 H195 0.930 . S
C176 N174 1.375 . S
C176 C175 1.338 . S
C176 H180 0.931 . S
C177 N174 1.313 . S
C177 N178 1.344 . S
C177 H181 0.930 . S
N178 C175 1.377 . S
N178 C177 1.344 . S
O179 Co171 2.055 . S
O179 C183 1.253 . S
H180 C176 0.931 . S
H181 C177 0.930 . S
O182 Co171 2.039 . S
O182 C172 1.265 . S
C183 O179 1.253 . S
C183 O184 1.227 . S
O184 C183 1.227 . S
N185 Co171 2.140 . S
N185 C188 1.346 . S
N185 C189 1.345 . S
C186 C187 1.387 . S
C186 C190 1.391 . S
C187 C186 1.387 . S
C187 C188 1.369 . S
C187 H196 0.929 . S
C188 N185 1.346 . S
C188 C187 1.369 . S
C188 H191 0.928 . S
C189 N185 1.345 . S
C189 C190 1.371 . S
C189 H192 0.931 . S
C190 C186 1.391 . S
C190 C189 1.371 . S
C190 H197 0.930 . S
H191 C188 0.928 . S
H192 C189 0.931 . S
H193 C169 0.930 . S
H194 C166 0.930 . S
H195 C175 0.930 . S
H196 C187 0.929 . S
H197 C190 0.930 . S
C198 C199 1.351 . S
C198 N201 1.368 . S
C198 H203 0.931 . S
C199 C198 1.351 . S
C199 N200 1.373 . S
C199 H227 0.930 . S
N200 C199 1.373 . S
N200 C202 1.340 . S
N201 C198 1.368 . S
N201 C202 1.321 . S
N201 Co204 2.135 . S
C202 N200 1.340 . S
C202 N201 1.321 . S
C202 H226 0.930 . S
H203 C198 0.931 . S
Co204 N201 2.135 . S
Co204 N207 2.121 . S
Co204 O212 2.055 . S
Co204 O215 2.039 . S
Co204 N218 2.140 . S
C205 O206 1.227 . S
C205 O215 1.265 . S
O206 C205 1.227 . S
N207 Co204 2.121 . S
N207 C209 1.375 . S
N207 C210 1.313 . S
C208 C209 1.338 . S
C208 N211 1.377 . S
C208 H228 0.930 . S
C209 N207 1.375 . S
C209 C208 1.338 . S
C209 H213 0.931 . S
C210 N207 1.313 . S
C210 N211 1.344 . S
C210 H214 0.930 . S
N211 C208 1.377 . S
N211 C210 1.344 . S
O212 Co204 2.055 . S
O212 C216 1.253 . S
H213 C209 0.931 . S
H214 C210 0.930 . S
O215 Co204 2.039 . S
O215 C205 1.265 . S
C216 O212 1.253 . S
C216 O217 1.227 . S
O217 C216 1.227 . S
N218 Co204 2.140 . S
N218 C221 1.346 . S
N218 C222 1.345 . S
C219 C220 1.387 . S
C219 C223 1.391 . S
C220 C219 1.387 . S
C220 C221 1.369 . S
C220 H229 0.929 . S
C221 N218 1.346 . S
C221 C220 1.369 . S
C221 H224 0.928 . S
C222 N218 1.345 . S
C222 C223 1.371 . S
C222 H225 0.931 . S
C223 C219 1.391 . S
C223 C222 1.371 . S
C223 H230 0.930 . S
H224 C221 0.928 . S
H225 C222 0.931 . S
H226 C202 0.930 . S
H227 C199 0.930 . S
H228 C208 0.930 . S
H229 C220 0.929 . S
H230 C223 0.930 . S
C231 C232 1.351 . S
C231 N234 1.368 . S
C231 H236 0.931 . S
C232 C231 1.351 . S
C232 N233 1.373 . S
C232 H260 0.930 . S
N233 C232 1.373 . S
N233 C235 1.340 . S
N234 C231 1.368 . S
N234 C235 1.321 . S
N234 Co237 2.135 . S
C235 N233 1.340 . S
C235 N234 1.321 . S
C235 H259 0.930 . S
H236 C231 0.931 . S
Co237 N234 2.135 . S
Co237 N240 2.121 . S
Co237 O245 2.055 . S
Co237 O248 2.039 . S
Co237 N251 2.140 . S
C238 O239 1.227 . S
C238 O248 1.265 . S
O239 C238 1.227 . S
N240 Co237 2.121 . S
N240 C242 1.375 . S
N240 C243 1.313 . S
C241 C242 1.338 . S
C241 N244 1.377 . S
C241 H261 0.930 . S
C242 N240 1.375 . S
C242 C241 1.338 . S
C242 H246 0.931 . S
C243 N240 1.313 . S
C243 N244 1.344 . S
C243 H247 0.930 . S
N244 C241 1.377 . S
N244 C243 1.344 . S
O245 Co237 2.055 . S
O245 C249 1.253 . S
H246 C242 0.931 . S
H247 C243 0.930 . S
O248 Co237 2.039 . S
O248 C238 1.265 . S
C249 O245 1.253 . S
C249 O250 1.227 . S
O250 C249 1.227 . S
N251 Co237 2.140 . S
N251 C254 1.346 . S
N251 C255 1.345 . S
C252 C253 1.387 . S
C252 C256 1.391 . S
C253 C252 1.387 . S
C253 C254 1.369 . S
C253 H262 0.929 . S
C254 N251 1.346 . S
C254 C253 1.369 . S
C254 H257 0.928 . S
C255 N251 1.345 . S
C255 C256 1.371 . S
C255 H258 0.931 . S
C256 C252 1.391 . S
C256 C255 1.371 . S
C256 H263 0.930 . S
H257 C254 0.928 . S
H258 C255 0.931 . S
H259 C235 0.930 . S
H260 C232 0.930 . S
H261 C241 0.930 . S
H262 C253 0.929 . S
H263 C256 0.930 . S
C264 C265 1.351 . S
C264 N267 1.368 . S
C264 H269 0.931 . S
C265 C264 1.351 . S
C265 N266 1.373 . S
C265 H293 0.930 . S
N266 C265 1.373 . S
N266 C268 1.340 . S
N267 C264 1.368 . S
N267 C268 1.321 . S
N267 Co270 2.135 . S
C268 N266 1.340 . S
C268 N267 1.321 . S
C268 H292 0.930 . S
H269 C264 0.931 . S
Co270 N267 2.135 . S
Co270 N273 2.121 . S
Co270 O278 2.055 . S
Co270 O281 2.039 . S
Co270 N284 2.140 . S
C271 O272 1.227 . S
C271 O281 1.265 . S
O272 C271 1.227 . S
N273 Co270 2.121 . S
N273 C275 1.375 . S
N273 C276 1.313 . S
C274 C275 1.338 . S
C274 N277 1.377 . S
C274 H294 0.930 . S
C275 N273 1.375 . S
C275 C274 1.338 . S
C275 H279 0.931 . S
C276 N273 1.313 . S
C276 N277 1.344 . S
C276 H280 0.930 . S
N277 C274 1.377 . S
N277 C276 1.344 . S
O278 Co270 2.055 . S
O278 C282 1.253 . S
H279 C275 0.931 . S
H280 C276 0.930 . S
O281 Co270 2.039 . S
O281 C271 1.265 . S
C282 O278 1.253 . S
C282 O283 1.227 . S
O283 C282 1.227 . S
N284 Co270 2.140 . S
N284 C287 1.346 . S
N284 C288 1.345 . S
C285 C286 1.387 . S
C285 C289 1.391 . S
C286 C285 1.387 . S
C286 C287 1.369 . S
C286 H295 0.929 . S
C287 N284 1.346 . S
C287 C286 1.369 . S
C287 H290 0.928 . S
C288 N284 1.345 . S
C288 C289 1.371 . S
C288 H291 0.931 . S
C289 C285 1.391 . S
C289 C288 1.371 . S
C289 H296 0.930 . S
H290 C287 0.928 . S
H291 C288 0.931 . S
H292 C268 0.930 . S
H293 C265 0.930 . S
H294 C274 0.930 . S
H295 C286 0.929 . S
H296 C289 0.930 . S
C297 C298 1.351 . S
C297 N300 1.368 . S
C297 H302 0.931 . S
C298 C297 1.351 . S
C298 N299 1.373 . S
C298 H326 0.930 . S
N299 C298 1.373 . S
N299 C301 1.340 . S
N300 C297 1.368 . S
N300 C301 1.321 . S
N300 Co303 2.135 . S
C301 N299 1.340 . S
C301 N300 1.321 . S
C301 H325 0.930 . S
H302 C297 0.931 . S
Co303 N300 2.135 . S
Co303 N306 2.121 . S
Co303 O311 2.055 . S
Co303 O314 2.039 . S
Co303 N317 2.140 . S
C304 O305 1.227 . S
C304 O314 1.265 . S
O305 C304 1.227 . S
N306 Co303 2.121 . S
N306 C308 1.375 . S
N306 C309 1.313 . S
C307 C308 1.338 . S
C307 N310 1.377 . S
C307 H327 0.930 . S
C308 N306 1.375 . S
C308 C307 1.338 . S
C308 H312 0.931 . S
C309 N306 1.313 . S
C309 N310 1.344 . S
C309 H313 0.930 . S
N310 C307 1.377 . S
N310 C309 1.344 . S
O311 Co303 2.055 . S
O311 C315 1.253 . S
H312 C308 0.931 . S
H313 C309 0.930 . S
O314 Co303 2.039 . S
O314 C304 1.265 . S
C315 O311 1.253 . S
C315 O316 1.227 . S
O316 C315 1.227 . S
N317 Co303 2.140 . S
N317 C320 1.346 . S
N317 C321 1.345 . S
C318 C319 1.387 . S
C318 C322 1.391 . S
C319 C318 1.387 . S
C319 C320 1.369 . S
C319 H328 0.929 . S
C320 N317 1.346 . S
C320 C319 1.369 . S
C320 H323 0.928 . S
C321 N317 1.345 . S
C321 C322 1.371 . S
C321 H324 0.931 . S
C322 C318 1.391 . S
C322 C321 1.371 . S
C322 H329 0.930 . S
H323 C320 0.928 . S
H324 C321 0.931 . S
H325 C301 0.930 . S
H326 C298 0.930 . S
H327 C307 0.930 . S
H328 C319 0.929 . S
H329 C322 0.930 . S
C330 C331 1.351 . S
C330 N333 1.368 . S
C330 H335 0.931 . S
C331 C330 1.351 . S
C331 N332 1.373 . S
C331 H359 0.930 . S
N332 C331 1.373 . S
N332 C334 1.340 . S
N333 C330 1.368 . S
N333 C334 1.321 . S
N333 Co336 2.135 . S
C334 N332 1.340 . S
C334 N333 1.321 . S
C334 H358 0.930 . S
H335 C330 0.931 . S
Co336 N333 2.135 . S
Co336 N339 2.121 . S
Co336 O344 2.055 . S
Co336 O347 2.039 . S
Co336 N350 2.140 . S
C337 O338 1.227 . S
C337 O347 1.265 . S
O338 C337 1.227 . S
N339 Co336 2.121 . S
N339 C341 1.375 . S
N339 C342 1.313 . S
C340 C341 1.338 . S
C340 N343 1.377 . S
C340 H360 0.930 . S
C341 N339 1.375 . S
C341 C340 1.338 . S
C341 H345 0.931 . S
C342 N339 1.313 . S
C342 N343 1.344 . S
C342 H346 0.930 . S
N343 C340 1.377 . S
N343 C342 1.344 . S
O344 Co336 2.055 . S
O344 C348 1.253 . S
H345 C341 0.931 . S
H346 C342 0.930 . S
O347 Co336 2.039 . S
O347 C337 1.265 . S
C348 O344 1.253 . S
C348 O349 1.227 . S
O349 C348 1.227 . S
N350 Co336 2.140 . S
N350 C353 1.346 . S
N350 C354 1.345 . S
C351 C352 1.387 . S
C351 C355 1.391 . S
C352 C351 1.387 . S
C352 C353 1.369 . S
C352 H361 0.929 . S
C353 N350 1.346 . S
C353 C352 1.369 . S
C353 H356 0.928 . S
C354 N350 1.345 . S
C354 C355 1.371 . S
C354 H357 0.931 . S
C355 C351 1.391 . S
C355 C354 1.371 . S
C355 H362 0.930 . S
H356 C353 0.928 . S
H357 C354 0.931 . S
H358 C334 0.930 . S
H359 C331 0.930 . S
H360 C340 0.930 . S
H361 C352 0.929 . S
H362 C355 0.930 . S
C363 C364 1.351 . S
C363 N366 1.368 . S
C363 H368 0.931 . S
C364 C363 1.351 . S
C364 N365 1.373 . S
C364 H392 0.930 . S
N365 C364 1.373 . S
N365 C367 1.340 . S
N366 C363 1.368 . S
N366 C367 1.321 . S
N366 Co369 2.135 . S
C367 N365 1.340 . S
C367 N366 1.321 . S
C367 H391 0.930 . S
H368 C363 0.931 . S
Co369 N366 2.135 . S
Co369 N372 2.121 . S
Co369 O377 2.055 . S
Co369 O380 2.039 . S
Co369 N383 2.140 . S
C370 O371 1.227 . S
C370 O380 1.265 . S
O371 C370 1.227 . S
N372 Co369 2.121 . S
N372 C374 1.375 . S
N372 C375 1.313 . S
C373 C374 1.338 . S
C373 N376 1.377 . S
C373 H393 0.930 . S
C374 N372 1.375 . S
C374 C373 1.338 . S
C374 H378 0.931 . S
C375 N372 1.313 . S
C375 N376 1.344 . S
C375 H379 0.930 . S
N376 C373 1.377 . S
N376 C375 1.344 . S
O377 Co369 2.055 . S
O377 C381 1.253 . S
H378 C374 0.931 . S
H379 C375 0.930 . S
O380 Co369 2.039 . S
O380 C370 1.265 . S
C381 O377 1.253 . S
C381 O382 1.227 . S
O382 C381 1.227 . S
N383 Co369 2.140 . S
N383 C386 1.346 . S
N383 C387 1.345 . S
C384 C385 1.387 . S
C384 C388 1.391 . S
C385 C384 1.387 . S
C385 C386 1.369 . S
C385 H394 0.929 . S
C386 N383 1.346 . S
C386 C385 1.369 . S
C386 H389 0.928 . S
C387 N383 1.345 . S
C387 C388 1.371 . S
C387 H390 0.931 . S
C388 C384 1.391 . S
C388 C387 1.371 . S
C388 H395 0.930 . S
H389 C386 0.928 . S
H390 C387 0.931 . S
H391 C367 0.930 . S
H392 C364 0.930 . S
H393 C373 0.930 . S
H394 C385 0.929 . S
H395 C388 0.930 . S
H396 C414 0.951 . S
H397 C416 0.951 . S
H398 C418 0.950 . S
H399 C419 0.950 . S
H400 C421 0.950 . S
H401 C424 0.950 . S
H402 C425 0.950 . S
H403 C427 0.950 . S
H404 C428 0.950 . S
H405 C429 0.951 . S
H406 C431 0.951 . S
H407 C433 0.950 . S
H408 C434 0.950 . S
H409 C436 0.950 . S
H410 C439 0.950 . S
H411 C440 0.950 . S
H412 C442 0.950 . S
H413 C443 0.950 . S
C414 H396 0.951 . S
C414 C415 1.366 . S
C414 C416 1.388 . S
C415 C414 1.366 . S
C415 C419 1.385 . S
C416 H397 0.951 . S
C416 C414 1.388 . S
C416 C417 1.366 . S
C417 C416 1.366 . S
C417 C418 1.414 . S
C417 C420 1.499 . S
C418 H398 0.950 . S
C418 C417 1.414 . S
C418 C419 1.374 . S
C419 H399 0.950 . S
C419 C415 1.385 . S
C419 C418 1.374 . S
C420 C417 1.499 . S
C420 C421 1.373 . S
C420 C422 1.389 . S
C421 H400 0.950 . S
C421 C420 1.373 . S
C421 C437 1.377 . S
C422 C420 1.389 . S
C422 C423 1.524 . S
C422 C436 1.377 . S
C423 C422 1.524 . S
C423 C424 1.397 . S
C423 C428 1.363 . S
C424 H401 0.950 . S
C424 C423 1.397 . S
C424 C425 1.334 . S
C425 H402 0.950 . S
C425 C424 1.334 . S
C425 C426 1.287 . S
C426 C425 1.287 . S
C426 C427 1.524 . S
C426 H445 0.913 . S
C427 H403 0.950 . S
C427 C426 1.524 . S
C427 C428 1.415 . S
C428 H404 0.950 . S
C428 C423 1.363 . S
C428 C427 1.415 . S
C429 H405 0.951 . S
C429 C430 1.366 . S
C429 C431 1.388 . S
C430 C429 1.366 . S
C430 C434 1.385 . S
C431 H406 0.951 . S
C431 C429 1.388 . S
C431 C432 1.366 . S
C432 C431 1.366 . S
C432 C433 1.414 . S
C432 C435 1.499 . S
C433 H407 0.950 . S
C433 C432 1.414 . S
C433 C434 1.374 . S
C434 H408 0.950 . S
C434 C430 1.385 . S
C434 C433 1.374 . S
C435 C432 1.499 . S
C435 C436 1.373 . S
C435 C437 1.389 . S
C436 H409 0.950 . S
C436 C422 1.377 . S
C436 C435 1.373 . S
C437 C421 1.377 . S
C437 C435 1.389 . S
C437 C438 1.524 . S
C438 C437 1.524 . S
C438 C439 1.397 . S
C438 C443 1.363 . S
C439 H410 0.950 . S
C439 C438 1.397 . S
C439 C440 1.334 . S
C440 H411 0.950 . S
C440 C439 1.334 . S
C440 C441 1.287 . S
C441 C440 1.287 . S
C441 C442 1.524 . S
C441 H444 0.999 . S
C442 H412 0.950 . S
C442 C441 1.524 . S
C442 C443 1.415 . S
C443 H413 0.950 . S
C443 C438 1.363 . S
C443 C442 1.415 . S
H444 C441 0.999 . S
H445 C426 0.913 . S
H446 C464 0.951 . S
H447 C466 0.951 . S
H448 C468 0.950 . S
H449 C469 0.950 . S
H450 C471 0.950 . S
H451 C474 0.950 . S
H452 C475 0.950 . S
H453 C477 0.950 . S
H454 C478 0.950 . S
H455 C479 0.951 . S
H456 C481 0.951 . S
H457 C483 0.950 . S
H458 C484 0.950 . S
H459 C486 0.950 . S
H460 C489 0.950 . S
H461 C490 0.950 . S
H462 C492 0.950 . S
H463 C493 0.950 . S
C464 H446 0.951 . S
C464 C465 1.366 . S
C464 C466 1.388 . S
C465 C464 1.366 . S
C465 C469 1.385 . S
C466 H447 0.951 . S
C466 C464 1.388 . S
C466 C467 1.366 . S
C467 C466 1.366 . S
C467 C468 1.414 . S
C467 C470 1.499 . S
C468 H448 0.950 . S
C468 C467 1.414 . S
C468 C469 1.374 . S
C469 H449 0.950 . S
C469 C465 1.385 . S
C469 C468 1.374 . S
C470 C467 1.499 . S
C470 C471 1.373 . S
C470 C472 1.389 . S
C471 H450 0.950 . S
C471 C470 1.373 . S
C471 C487 1.377 . S
C472 C470 1.389 . S
C472 C473 1.524 . S
C472 C486 1.377 . S
C473 C472 1.524 . S
C473 C474 1.397 . S
C473 C478 1.363 . S
C474 H451 0.950 . S
C474 C473 1.397 . S
C474 C475 1.334 . S
C475 H452 0.950 . S
C475 C474 1.334 . S
C475 C476 1.287 . S
C476 C475 1.287 . S
C476 C477 1.524 . S
C476 H495 0.913 . S
C477 H453 0.950 . S
C477 C476 1.524 . S
C477 C478 1.415 . S
C478 H454 0.950 . S
C478 C473 1.363 . S
C478 C477 1.415 . S
C479 H455 0.951 . S
C479 C480 1.366 . S
C479 C481 1.388 . S
C480 C479 1.366 . S
C480 C484 1.385 . S
C481 H456 0.951 . S
C481 C479 1.388 . S
C481 C482 1.366 . S
C482 C481 1.366 . S
C482 C483 1.414 . S
C482 C485 1.499 . S
C483 H457 0.950 . S
C483 C482 1.414 . S
C483 C484 1.374 . S
C484 H458 0.950 . S
C484 C480 1.385 . S
C484 C483 1.374 . S
C485 C482 1.499 . S
C485 C486 1.373 . S
C485 C487 1.389 . S
C486 H459 0.950 . S
C486 C472 1.377 . S
C486 C485 1.373 . S
C487 C471 1.377 . S
C487 C485 1.389 . S
C487 C488 1.524 . S
C488 C487 1.524 . S
C488 C489 1.397 . S
C488 C493 1.363 . S
C489 H460 0.950 . S
C489 C488 1.397 . S
C489 C490 1.334 . S
C490 H461 0.950 . S
C490 C489 1.334 . S
C490 C491 1.287 . S
C491 C490 1.287 . S
C491 C492 1.524 . S
C491 H494 0.999 . S
C492 H462 0.950 . S
C492 C491 1.524 . S
C492 C493 1.415 . S
C493 H463 0.950 . S
C493 C488 1.363 . S
C493 C492 1.415 . S
H494 C491 0.999 . S
H495 C476 0.913 . S
H496 C514 0.951 . S
H497 C516 0.951 . S
H498 C518 0.950 . S
H499 C519 0.950 . S
H500 C521 0.950 . S
H501 C524 0.950 . S
H502 C525 0.950 . S
H503 C527 0.950 . S
H504 C528 0.950 . S
H505 C529 0.951 . S
H506 C531 0.951 . S
H507 C533 0.950 . S
H508 C534 0.950 . S
H509 C536 0.950 . S
H510 C539 0.950 . S
H511 C540 0.950 . S
H512 C542 0.950 . S
H513 C543 0.950 . S
C514 H496 0.951 . S
C514 C515 1.366 . S
C514 C516 1.388 . S
C515 C514 1.366 . S
C515 C519 1.385 . S
C516 H497 0.951 . S
C516 C514 1.388 . S
C516 C517 1.366 . S
C517 C516 1.366 . S
C517 C518 1.414 . S
C517 C520 1.499 . S
C518 H498 0.950 . S
C518 C517 1.414 . S
C518 C519 1.374 . S
C519 H499 0.950 . S
C519 C515 1.385 . S
C519 C518 1.374 . S
C520 C517 1.499 . S
C520 C521 1.373 . S
C520 C522 1.389 . S
C521 H500 0.950 . S
C521 C520 1.373 . S
C521 C537 1.377 . S
C522 C520 1.389 . S
C522 C523 1.524 . S
C522 C536 1.377 . S
C523 C522 1.524 . S
C523 C524 1.397 . S
C523 C528 1.363 . S
C524 H501 0.950 . S
C524 C523 1.397 . S
C524 C525 1.334 . S
C525 H502 0.950 . S
C525 C524 1.334 . S
C525 C526 1.287 . S
C526 C525 1.287 . S
C526 C527 1.524 . S
C526 H545 0.913 . S
C527 H503 0.950 . S
C527 C526 1.524 . S
C527 C528 1.415 . S
C528 H504 0.950 . S
C528 C523 1.363 . S
C528 C527 1.415 . S
C529 H505 0.951 . S
C529 C530 1.366 . S
C529 C531 1.388 . S
C530 C529 1.366 . S
C530 C534 1.385 . S
C531 H506 0.951 . S
C531 C529 1.388 . S
C531 C532 1.366 . S
C532 C531 1.366 . S
C532 C533 1.414 . S
C532 C535 1.499 . S
C533 H507 0.950 . S
C533 C532 1.414 . S
C533 C534 1.374 . S
C534 H508 0.950 . S
C534 C530 1.385 . S
C534 C533 1.374 . S
C535 C532 1.499 . S
C535 C536 1.373 . S
C535 C537 1.389 . S
C536 H509 0.950 . S
C536 C522 1.377 . S
C536 C535 1.373 . S
C537 C521 1.377 . S
C537 C535 1.389 . S
C537 C538 1.524 . S
C538 C537 1.524 . S
C538 C539 1.397 . S
C538 C543 1.363 . S
C539 H510 0.950 . S
C539 C538 1.397 . S
C539 C540 1.334 . S
C540 H511 0.950 . S
C540 C539 1.334 . S
C540 C541 1.287 . S
C541 C540 1.287 . S
C541 C542 1.524 . S
C541 H544 0.999 . S
C542 H512 0.950 . S
C542 C541 1.524 . S
C542 C543 1.415 . S
C543 H513 0.950 . S
C543 C538 1.363 . S
C543 C542 1.415 . S
H544 C541 0.999 . S
H545 C526 0.913 . S
H546 C564 0.951 . S
H547 C566 0.951 . S
H548 C568 0.950 . S
H549 C569 0.950 . S
H550 C571 0.950 . S
H551 C574 0.950 . S
H552 C575 0.950 . S
H553 C577 0.950 . S
H554 C578 0.950 . S
H555 C579 0.951 . S
H556 C581 0.951 . S
H557 C583 0.950 . S
H558 C584 0.950 . S
H559 C586 0.950 . S
H560 C589 0.950 . S
H561 C590 0.950 . S
H562 C592 0.950 . S
H563 C593 0.950 . S
C564 H546 0.951 . S
C564 C565 1.366 . S
C564 C566 1.388 . S
C565 C564 1.366 . S
C565 C569 1.385 . S
C566 H547 0.951 . S
C566 C564 1.388 . S
C566 C567 1.366 . S
C567 C566 1.366 . S
C567 C568 1.414 . S
C567 C570 1.499 . S
C568 H548 0.950 . S
C568 C567 1.414 . S
C568 C569 1.374 . S
C569 H549 0.950 . S
C569 C565 1.385 . S
C569 C568 1.374 . S
C570 C567 1.499 . S
C570 C571 1.373 . S
C570 C572 1.389 . S
C571 H550 0.950 . S
C571 C570 1.373 . S
C571 C587 1.377 . S
C572 C570 1.389 . S
C572 C573 1.524 . S
C572 C586 1.377 . S
C573 C572 1.524 . S
C573 C574 1.397 . S
C573 C578 1.363 . S
C574 H551 0.950 . S
C574 C573 1.397 . S
C574 C575 1.334 . S
C575 H552 0.950 . S
C575 C574 1.334 . S
C575 C576 1.287 . S
C576 C575 1.287 . S
C576 C577 1.524 . S
C576 H595 0.913 . S
C577 H553 0.950 . S
C577 C576 1.524 . S
C577 C578 1.415 . S
C578 H554 0.950 . S
C578 C573 1.363 . S
C578 C577 1.415 . S
C579 H555 0.951 . S
C579 C580 1.366 . S
C579 C581 1.388 . S
C580 C579 1.366 . S
C580 C584 1.385 . S
C581 H556 0.951 . S
C581 C579 1.388 . S
C581 C582 1.366 . S
C582 C581 1.366 . S
C582 C583 1.414 . S
C582 C585 1.499 . S
C583 H557 0.950 . S
C583 C582 1.414 . S
C583 C584 1.374 . S
C584 H558 0.950 . S
C584 C580 1.385 . S
C584 C583 1.374 . S
C585 C582 1.499 . S
C585 C586 1.373 . S
C585 C587 1.389 . S
C586 H559 0.950 . S
C586 C572 1.377 . S
C586 C585 1.373 . S
C587 C571 1.377 . S
C587 C585 1.389 . S
C587 C588 1.524 . S
C588 C587 1.524 . S
C588 C589 1.397 . S
C588 C593 1.363 . S
C589 H560 0.950 . S
C589 C588 1.397 . S
C589 C590 1.334 . S
C590 H561 0.950 . S
C590 C589 1.334 . S
C590 C591 1.287 . S
C591 C590 1.287 . S
C591 C592 1.524 . S
C591 H594 0.999 . S
C592 H562 0.950 . S
C592 C591 1.524 . S
C592 C593 1.415 . S
C593 H563 0.950 . S
C593 C588 1.363 . S
C593 C592 1.415 . S
H594 C591 0.999 . S
H595 C576 0.913 . S
H596 C614 0.951 . S
H597 C616 0.951 . S
H598 C618 0.950 . S
H599 C619 0.950 . S
H600 C621 0.950 . S
H601 C624 0.950 . S
H602 C625 0.950 . S
H603 C627 0.950 . S
H604 C628 0.950 . S
H605 C629 0.951 . S
H606 C631 0.951 . S
H607 C633 0.950 . S
H608 C634 0.950 . S
H609 C636 0.950 . S
H610 C639 0.950 . S
H611 C640 0.950 . S
H612 C642 0.950 . S
H613 C643 0.950 . S
C614 H596 0.951 . S
C614 C615 1.366 . S
C614 C616 1.388 . S
C615 C614 1.366 . S
C615 C619 1.385 . S
C616 H597 0.951 . S
C616 C614 1.388 . S
C616 C617 1.366 . S
C617 C616 1.366 . S
C617 C618 1.414 . S
C617 C620 1.499 . S
C618 H598 0.950 . S
C618 C617 1.414 . S
C618 C619 1.374 . S
C619 H599 0.950 . S
C619 C615 1.385 . S
C619 C618 1.374 . S
C620 C617 1.499 . S
C620 C621 1.373 . S
C620 C622 1.389 . S
C621 H600 0.950 . S
C621 C620 1.373 . S
C621 C637 1.377 . S
C622 C620 1.389 . S
C622 C623 1.524 . S
C622 C636 1.377 . S
C623 C622 1.524 . S
C623 C624 1.397 . S
C623 C628 1.363 . S
C624 H601 0.950 . S
C624 C623 1.397 . S
C624 C625 1.334 . S
C625 H602 0.950 . S
C625 C624 1.334 . S
C625 C626 1.287 . S
C626 C625 1.287 . S
C626 C627 1.524 . S
C626 H645 0.913 . S
C627 H603 0.950 . S
C627 C626 1.524 . S
C627 C628 1.415 . S
C628 H604 0.950 . S
C628 C623 1.363 . S
C628 C627 1.415 . S
C629 H605 0.951 . S
C629 C630 1.366 . S
C629 C631 1.388 . S
C630 C629 1.366 . S
C630 C634 1.385 . S
C631 H606 0.951 . S
C631 C629 1.388 . S
C631 C632 1.366 . S
C632 C631 1.366 . S
C632 C633 1.414 . S
C632 C635 1.499 . S
C633 H607 0.950 . S
C633 C632 1.414 . S
C633 C634 1.374 . S
C634 H608 0.950 . S
C634 C630 1.385 . S
C634 C633 1.374 . S
C635 C632 1.499 . S
C635 C636 1.373 . S
C635 C637 1.389 . S
C636 H609 0.950 . S
C636 C622 1.377 . S
C636 C635 1.373 . S
C637 C621 1.377 . S
C637 C635 1.389 . S
C637 C638 1.524 . S
C638 C637 1.524 . S
C638 C639 1.397 . S
C638 C643 1.363 . S
C639 H610 0.950 . S
C639 C638 1.397 . S
C639 C640 1.334 . S
C640 H611 0.950 . S
C640 C639 1.334 . S
C640 C641 1.287 . S
C641 C640 1.287 . S
C641 C642 1.524 . S
C641 H644 0.999 . S
C642 H612 0.950 . S
C642 C641 1.524 . S
C642 C643 1.415 . S
C643 H613 0.950 . S
C643 C638 1.363 . S
C643 C642 1.415 . S
H644 C641 0.999 . S
H645 C626 0.913 . S
H646 C664 0.951 . S
H647 C666 0.951 . S
H648 C668 0.950 . S
H649 C669 0.950 . S
H650 C671 0.950 . S
H651 C674 0.950 . S
H652 C675 0.950 . S
H653 C677 0.950 . S
H654 C678 0.950 . S
H655 C679 0.951 . S
H656 C681 0.951 . S
H657 C683 0.950 . S
H658 C684 0.950 . S
H659 C686 0.950 . S
H660 C689 0.950 . S
H661 C690 0.950 . S
H662 C692 0.950 . S
H663 C693 0.950 . S
C664 H646 0.951 . S
C664 C665 1.366 . S
C664 C666 1.388 . S
C665 C664 1.366 . S
C665 C669 1.385 . S
C666 H647 0.951 . S
C666 C664 1.388 . S
C666 C667 1.366 . S
C667 C666 1.366 . S
C667 C668 1.414 . S
C667 C670 1.499 . S
C668 H648 0.950 . S
C668 C667 1.414 . S
C668 C669 1.374 . S
C669 H649 0.950 . S
C669 C665 1.385 . S
C669 C668 1.374 . S
C670 C667 1.499 . S
C670 C671 1.373 . S
C670 C672 1.389 . S
C671 H650 0.950 . S
C671 C670 1.373 . S
C671 C687 1.377 . S
C672 C670 1.389 . S
C672 C673 1.524 . S
C672 C686 1.377 . S
C673 C672 1.524 . S
C673 C674 1.397 . S
C673 C678 1.363 . S
C674 H651 0.950 . S
C674 C673 1.397 . S
C674 C675 1.334 . S
C675 H652 0.950 . S
C675 C674 1.334 . S
C675 C676 1.287 . S
C676 C675 1.287 . S
C676 C677 1.524 . S
C676 H695 0.913 . S
C677 H653 0.950 . S
C677 C676 1.524 . S
C677 C678 1.415 . S
C678 H654 0.950 . S
C678 C673 1.363 . S
C678 C677 1.415 . S
C679 H655 0.951 . S
C679 C680 1.366 . S
C679 C681 1.388 . S
C680 C679 1.366 . S
C680 C684 1.385 . S
C681 H656 0.951 . S
C681 C679 1.388 . S
C681 C682 1.366 . S
C682 C681 1.366 . S
C682 C683 1.414 . S
C682 C685 1.499 . S
C683 H657 0.950 . S
C683 C682 1.414 . S
C683 C684 1.374 . S
C684 H658 0.950 . S
C684 C680 1.385 . S
C684 C683 1.374 . S
C685 C682 1.499 . S
C685 C686 1.373 . S
C685 C687 1.389 . S
C686 H659 0.950 . S
C686 C672 1.377 . S
C686 C685 1.373 . S
C687 C671 1.377 . S
C687 C685 1.389 . S
C687 C688 1.524 . S
C688 C687 1.524 . S
C688 C689 1.397 . S
C688 C693 1.363 . S
C689 H660 0.950 . S
C689 C688 1.397 . S
C689 C690 1.334 . S
C690 H661 0.950 . S
C690 C689 1.334 . S
C690 C691 1.287 . S
C691 C690 1.287 . S
C691 C692 1.524 . S
C691 H694 0.999 . S
C692 H662 0.950 . S
C692 C691 1.524 . S
C692 C693 1.415 . S
C693 H663 0.950 . S
C693 C688 1.363 . S
C693 C692 1.415 . S
H694 C691 0.999 . S
H695 C676 0.913 . S
H696 C714 0.951 . S
H697 C716 0.915 1_565 S
H698 C718 0.950 . S
H699 C719 0.950 . S
H700 C721 0.950 . S
H701 C724 0.950 1_545 S
H702 C725 0.950 . S
H703 C727 0.950 . S
H704 C728 0.950 . S
H705 C729 0.951 . S
H706 C731 0.915 1_545 S
H707 C733 0.950 . S
H708 C734 0.950 . S
H709 C736 0.950 . S
H710 C739 0.950 1_565 S
H711 C740 0.950 . S
H712 C742 0.950 . S
H713 C743 0.950 . S
C714 H696 0.951 . S
C714 C715 1.366 . S
C714 C716 1.388 . S
C715 C714 1.366 . S
C715 C719 1.385 . S
C716 H697 0.915 1_545 S
C716 C714 1.388 . S
C716 C717 1.366 . S
C717 C716 1.366 . S
C717 C718 1.414 . S
C717 C720 1.499 . S
C718 H698 0.950 . S
C718 C717 1.414 . S
C718 C719 1.374 . S
C719 H699 0.950 . S
C719 C715 1.385 . S
C719 C718 1.374 . S
C720 C717 1.499 . S
C720 C721 1.373 1_554 S
C720 C722 1.389 1_545 S
C721 H700 0.950 . S
C721 C720 1.373 1_556 S
C721 C737 1.377 . S
C722 C720 1.389 1_565 S
C722 C723 1.524 . S
C722 C736 1.377 . S
C723 C722 1.524 . S
C723 C724 1.397 . S
C723 C728 1.363 . S
C724 H701 0.950 1_565 S
C724 C723 1.397 . S
C724 C725 1.334 . S
C725 H702 0.950 . S
C725 C724 1.334 . S
C725 C726 1.287 . S
C726 C725 1.287 . S
C726 C727 1.524 . S
C726 H745 0.913 . S
C727 H703 0.950 . S
C727 C726 1.524 . S
C727 C728 1.415 . S
C728 H704 0.950 . S
C728 C723 1.363 . S
C728 C727 1.415 . S
C729 H705 0.951 . S
C729 C730 1.366 . S
C729 C731 1.388 . S
C730 C729 1.366 . S
C730 C734 1.385 . S
C731 H706 0.915 1_565 S
C731 C729 1.388 . S
C731 C732 1.366 . S
C732 C731 1.366 . S
C732 C733 1.414 . S
C732 C735 1.499 . S
C733 H707 0.950 . S
C733 C732 1.414 . S
C733 C734 1.374 . S
C734 H708 0.950 . S
C734 C730 1.385 . S
C734 C733 1.374 . S
C735 C732 1.499 . S
C735 C736 1.373 1_556 S
C735 C737 1.389 1_565 S
C736 H709 0.950 . S
C736 C722 1.377 . S
C736 C735 1.373 1_554 S
C737 C721 1.377 . S
C737 C735 1.389 1_545 S
C737 C738 1.524 . S
C738 C737 1.524 . S
C738 C739 1.397 . S
C738 C743 1.363 . S
C739 H710 0.950 1_545 S
C739 C738 1.397 . S
C739 C740 1.334 . S
C740 H711 0.950 . S
C740 C739 1.334 . S
C740 C741 1.287 . S
C741 C740 1.287 . S
C741 C742 1.524 . S
C741 H744 0.999 . S
C742 H712 0.950 . S
C742 C741 1.524 . S
C742 C743 1.415 . S
C743 H713 0.950 . S
C743 C738 1.363 . S
C743 C742 1.415 . S
H744 C741 0.999 . S
H745 C726 0.913 . S
H746 C764 0.951 . S
H747 C766 0.951 . S
H748 C768 0.950 . S
H749 C769 0.950 1_556 S
H750 C771 0.950 . S
H751 C774 0.950 . S
H752 C775 0.950 . S
H753 C777 0.950 . S
H754 C778 0.950 . S
H755 C779 0.951 . S
H756 C781 0.951 . S
H757 C783 0.950 . S
H758 C784 0.950 1_554 S
H759 C786 0.950 . S
H760 C789 0.950 . S
H761 C790 0.950 . S
H762 C792 0.950 . S
H763 C793 0.950 . S
C764 H746 0.951 . S
C764 C765 1.366 . S
C764 C766 1.388 . S
C765 C764 1.366 . S
C765 C769 1.385 . S
C766 H747 0.951 . S
C766 C764 1.388 . S
C766 C767 1.366 . S
C767 C766 1.366 . S
C767 C768 1.414 1_554 S
C767 C770 1.499 . S
C768 H748 0.950 . S
C768 C767 1.414 1_556 S
C768 C769 1.374 1_556 S
C769 H749 0.950 1_554 S
C769 C765 1.385 . S
C769 C768 1.374 1_554 S
C770 C767 1.499 . S
C770 C771 1.373 1_654 S
C770 C772 1.389 . S
C771 H750 0.950 . S
C771 C770 1.373 1_456 S
C771 C787 1.377 . S
C772 C770 1.389 . S
C772 C773 1.524 . S
C772 C786 1.377 . S
C773 C772 1.524 . S
C773 C774 1.397 . S
C773 C778 1.363 . S
C774 H751 0.950 . S
C774 C773 1.397 . S
C774 C775 1.334 . S
C775 H752 0.950 . S
C775 C774 1.334 . S
C775 C776 1.287 . S
C776 C775 1.287 . S
C776 C777 1.524 . S
C776 H795 0.913 . S
C777 H753 0.950 . S
C777 C776 1.524 . S
C777 C778 1.415 . S
C778 H754 0.950 . S
C778 C773 1.363 . S
C778 C777 1.415 . S
C779 H755 0.951 . S
C779 C780 1.366 . S
C779 C781 1.388 . S
C780 C779 1.366 . S
C780 C784 1.385 . S
C781 H756 0.951 . S
C781 C779 1.388 . S
C781 C782 1.366 . S
C782 C781 1.366 . S
C782 C783 1.414 1_556 S
C782 C785 1.499 . S
C783 H757 0.950 . S
C783 C782 1.414 1_554 S
C783 C784 1.374 1_554 S
C784 H758 0.950 1_556 S
C784 C780 1.385 . S
C784 C783 1.374 1_556 S
C785 C782 1.499 . S
C785 C786 1.373 1_456 S
C785 C787 1.389 . S
C786 H759 0.950 . S
C786 C772 1.377 . S
C786 C785 1.373 1_654 S
C787 C771 1.377 . S
C787 C785 1.389 . S
C787 C788 1.524 . S
C788 C787 1.524 . S
C788 C789 1.397 . S
C788 C793 1.363 . S
C789 H760 0.950 . S
C789 C788 1.397 . S
C789 C790 1.334 . S
C790 H761 0.950 . S
C790 C789 1.334 . S
C790 C791 1.287 . S
C791 C790 1.287 . S
C791 C792 1.524 . S
C791 H794 0.999 . S
C792 H762 0.950 . S
C792 C791 1.524 . S
C792 C793 1.415 . S
C793 H763 0.950 . S
C793 C788 1.363 . S
C793 C792 1.415 . S
H794 C791 0.999 . S
H795 C776 0.913 . S
H796 C814 0.957 . S
H797 C816 0.951 1_554 S
H798 C818 0.950 . S
H799 C819 0.950 . S
H800 C821 0.950 . S
H801 C824 0.950 . S
H802 C825 0.950 . S
H803 C827 0.950 . S
H804 C828 0.950 . S
H805 C829 0.957 . S
H806 C831 0.951 1_556 S
H807 C833 0.950 . S
H808 C834 0.950 . S
H809 C836 0.950 . S
H810 C839 0.950 . S
H811 C840 0.950 . S
H812 C842 0.950 . S
H813 C843 0.950 . S
C814 H796 0.957 . S
C814 C815 1.366 . S
C814 C816 1.388 . S
C815 C814 1.366 . S
C815 C819 1.385 . S
C816 H797 0.951 1_556 S
C816 C814 1.388 . S
C816 C817 1.366 . S
C817 C816 1.366 . S
C817 C818 1.414 . S
C817 C820 1.499 . S
C818 H798 0.950 . S
C818 C817 1.414 . S
C818 C819 1.374 . S
C819 H799 0.950 . S
C819 C815 1.385 . S
C819 C818 1.374 . S
C820 C817 1.499 . S
C820 C821 1.373 . S
C820 C822 1.389 . S
C821 H800 0.950 . S
C821 C820 1.373 . S
C821 C837 1.377 1_556 S
C822 C820 1.389 . S
C822 C823 1.524 . S
C822 C836 1.377 1_556 S
C823 C822 1.524 . S
C823 C824 1.397 . S
C823 C828 1.363 1_556 S
C824 H801 0.950 . S
C824 C823 1.397 . S
C824 C825 1.334 . S
C825 H802 0.950 . S
C825 C824 1.334 . S
C825 C826 1.287 . S
C826 C825 1.287 . S
C826 C827 1.524 1_556 S
C826 H845 0.913 . S
C827 H803 0.950 . S
C827 C826 1.524 1_554 S
C827 C828 1.415 . S
C828 H804 0.950 . S
C828 C823 1.363 1_554 S
C828 C827 1.415 . S
C829 H805 0.957 . S
C829 C830 1.366 . S
C829 C831 1.388 . S
C830 C829 1.366 . S
C830 C834 1.385 . S
C831 H806 0.951 1_554 S
C831 C829 1.388 . S
C831 C832 1.366 . S
C832 C831 1.366 . S
C832 C833 1.414 . S
C832 C835 1.499 . S
C833 H807 0.950 . S
C833 C832 1.414 . S
C833 C834 1.374 . S
C834 H808 0.950 . S
C834 C830 1.385 . S
C834 C833 1.374 . S
C835 C832 1.499 . S
C835 C836 1.373 . S
C835 C837 1.389 . S
C836 H809 0.950 . S
C836 C822 1.377 1_554 S
C836 C835 1.373 . S
C837 C821 1.377 1_554 S
C837 C835 1.389 . S
C837 C838 1.524 . S
C838 C837 1.524 . S
C838 C839 1.397 . S
C838 C843 1.363 1_554 S
C839 H810 0.950 . S
C839 C838 1.397 . S
C839 C840 1.334 . S
C840 H811 0.950 . S
C840 C839 1.334 . S
C840 C841 1.287 . S
C841 C840 1.287 . S
C841 C842 1.524 1_554 S
C841 H844 0.999 . S
C842 H812 0.950 . S
C842 C841 1.524 1_556 S
C842 C843 1.415 . S
C843 H813 0.950 . S
C843 C838 1.363 1_556 S
C843 C842 1.415 . S
H844 C841 0.999 . S
H845 C826 0.913 . S
H846 C864 0.951 . S
H847 C866 0.993 . S
H848 C868 0.950 . S
H849 C869 0.950 . S
H850 C871 0.950 . S
H851 C874 0.950 1_455 S
H852 C875 0.950 . S
H853 C877 0.950 . S
H854 C878 0.950 . S
H855 C879 0.951 . S
H856 C881 0.993 . S
H857 C883 0.950 . S
H858 C884 0.950 . S
H859 C886 0.950 . S
H860 C889 0.950 1_655 S
H861 C890 0.950 . S
H862 C892 0.950 . S
H863 C893 0.950 . S
C864 H846 0.951 . S
C864 C865 1.366 . S
C864 C866 1.388 . S
C865 C864 1.366 . S
C865 C869 1.385 . S
C866 H847 0.993 . S
C866 C864 1.388 . S
C866 C867 1.366 . S
C867 C866 1.366 . S
C867 C868 1.414 . S
C867 C870 1.499 . S
C868 H848 0.950 . S
C868 C867 1.414 . S
C868 C869 1.374 . S
C869 H849 0.950 . S
C869 C865 1.385 . S
C869 C868 1.374 . S
C870 C867 1.499 . S
C870 C871 1.373 . S
C870 C872 1.389 1_455 S
C871 H850 0.950 . S
C871 C870 1.373 . S
C871 C887 1.377 . S
C872 C870 1.389 1_655 S
C872 C873 1.524 . S
C872 C886 1.377 . S
C873 C872 1.524 . S
C873 C874 1.397 . S
C873 C878 1.363 . S
C874 H851 0.950 1_655 S
C874 C873 1.397 . S
C874 C875 1.334 . S
C875 H852 0.950 . S
C875 C874 1.334 . S
C875 C876 1.287 . S
C876 C875 1.287 . S
C876 C877 1.524 . S
C876 H895 0.913 . S
C877 H853 0.950 . S
C877 C876 1.524 . S
C877 C878 1.415 . S
C878 H854 0.950 . S
C878 C873 1.363 . S
C878 C877 1.415 . S
C879 H855 0.951 . S
C879 C880 1.366 . S
C879 C881 1.388 . S
C880 C879 1.366 . S
C880 C884 1.385 . S
C881 H856 0.993 . S
C881 C879 1.388 . S
C881 C882 1.366 . S
C882 C881 1.366 . S
C882 C883 1.414 . S
C882 C885 1.499 . S
C883 H857 0.950 . S
C883 C882 1.414 . S
C883 C884 1.374 . S
C884 H858 0.950 . S
C884 C880 1.385 . S
C884 C883 1.374 . S
C885 C882 1.499 . S
C885 C886 1.373 . S
C885 C887 1.389 1_655 S
C886 H859 0.950 . S
C886 C872 1.377 . S
C886 C885 1.373 . S
C887 C871 1.377 . S
C887 C885 1.389 1_455 S
C887 C888 1.524 . S
C888 C887 1.524 . S
C888 C889 1.397 . S
C888 C893 1.363 . S
C889 H860 0.950 1_455 S
C889 C888 1.397 . S
C889 C890 1.334 . S
C890 H861 0.950 . S
C890 C889 1.334 . S
C890 C891 1.287 . S
C891 C890 1.287 . S
C891 C892 1.524 . S
C891 H894 0.999 . S
C892 H862 0.950 . S
C892 C891 1.524 . S
C892 C893 1.415 . S
C893 H863 0.950 . S
C893 C888 1.363 . S
C893 C892 1.415 . S
H894 C891 0.999 . S
H895 C876 0.913 . S
H896 C914 0.951 . S
H897 C916 0.951 . S
H898 C918 0.950 . S
H899 C919 0.950 . S
H900 C921 0.950 . S
H901 C924 0.950 . S
H902 C925 0.950 . S
H903 C927 0.950 . S
H904 C928 0.950 . S
H905 C929 0.951 . S
H906 C931 0.951 . S
H907 C933 0.950 . S
H908 C934 0.950 . S
H909 C936 0.950 . S
H910 C939 0.950 . S
H911 C940 0.950 . S
H912 C942 0.950 . S
H913 C943 0.950 . S
C914 H896 0.951 . S
C914 C915 1.366 . S
C914 C916 1.388 . S
C915 C914 1.366 . S
C915 C919 1.385 . S
C916 H897 0.951 . S
C916 C914 1.388 . S
C916 C917 1.366 . S
C917 C916 1.366 . S
C917 C918 1.414 . S
C917 C920 1.499 . S
C918 H898 0.950 . S
C918 C917 1.414 . S
C918 C919 1.374 . S
C919 H899 0.950 . S
C919 C915 1.385 . S
C919 C918 1.374 . S
C920 C917 1.499 . S
C920 C921 1.373 . S
C920 C922 1.389 . S
C921 H900 0.950 . S
C921 C920 1.373 . S
C921 C937 1.377 . S
C922 C920 1.389 . S
C922 C923 1.524 . S
C922 C936 1.377 . S
C923 C922 1.524 . S
C923 C924 1.397 . S
C923 C928 1.363 . S
C924 H901 0.950 . S
C924 C923 1.397 . S
C924 C925 1.334 . S
C925 H902 0.950 . S
C925 C924 1.334 . S
C925 C926 1.287 . S
C926 C925 1.287 . S
C926 C927 1.524 . S
C926 H945 0.913 . S
C927 H903 0.950 . S
C927 C926 1.524 . S
C927 C928 1.415 . S
C928 H904 0.950 . S
C928 C923 1.363 . S
C928 C927 1.415 . S
C929 H905 0.951 . S
C929 C930 1.366 . S
C929 C931 1.388 . S
C930 C929 1.366 . S
C930 C934 1.385 . S
C931 H906 0.951 . S
C931 C929 1.388 . S
C931 C932 1.366 . S
C932 C931 1.366 . S
C932 C933 1.414 . S
C932 C935 1.499 . S
C933 H907 0.950 . S
C933 C932 1.414 . S
C933 C934 1.374 . S
C934 H908 0.950 . S
C934 C930 1.385 . S
C934 C933 1.374 . S
C935 C932 1.499 . S
C935 C936 1.373 . S
C935 C937 1.389 . S
C936 H909 0.950 . S
C936 C922 1.377 . S
C936 C935 1.373 . S
C937 C921 1.377 . S
C937 C935 1.389 . S
C937 C938 1.524 . S
C938 C937 1.524 . S
C938 C939 1.397 . S
C938 C943 1.363 . S
C939 H910 0.950 . S
C939 C938 1.397 . S
C939 C940 1.334 . S
C940 H911 0.950 . S
C940 C939 1.334 . S
C940 C941 1.287 . S
C941 C940 1.287 . S
C941 C942 1.524 . S
C941 H944 0.999 . S
C942 H912 0.950 . S
C942 C941 1.524 . S
C942 C943 1.415 . S
C943 H913 0.950 . S
C943 C938 1.363 . S
C943 C942 1.415 . S
H944 C941 0.999 . S
H945 C926 0.913 . S
H946 C964 0.951 . S
H947 C966 0.951 . S
H948 C968 0.950 . S
H949 C969 0.950 . S
H950 C971 0.950 . S
H951 C974 0.950 . S
H952 C975 0.950 . S
H953 C977 0.950 . S
H954 C978 0.950 . S
H955 C979 0.951 . S
H956 C981 0.951 . S
H957 C983 0.950 . S
H958 C984 0.950 . S
H959 C986 0.950 . S
H960 C989 0.950 . S
H961 C990 0.950 . S
H962 C992 0.950 . S
H963 C993 0.950 . S
C964 H946 0.951 . S
C964 C965 1.366 . S
C964 C966 1.388 . S
C965 C964 1.366 . S
C965 C969 1.385 . S
C966 H947 0.951 . S
C966 C964 1.388 . S
C966 C967 1.366 . S
C967 C966 1.366 . S
C967 C968 1.414 . S
C967 C970 1.499 . S
C968 H948 0.950 . S
C968 C967 1.414 . S
C968 C969 1.374 . S
C969 H949 0.950 . S
C969 C965 1.385 . S
C969 C968 1.374 . S
C970 C967 1.499 . S
C970 C971 1.373 . S
C970 C972 1.389 1_545 S
C971 H950 0.950 . S
C971 C970 1.373 . S
C971 C987 1.377 . S
C972 C970 1.389 1_565 S
C972 C973 1.524 . S
C972 C986 1.377 . S
C973 C972 1.524 . S
C973 C974 1.397 . S
C973 C978 1.363 . S
C974 H951 0.950 . S
C974 C973 1.397 . S
C974 C975 1.334 . S
C975 H952 0.950 . S
C975 C974 1.334 . S
C975 C976 1.287 . S
C976 C975 1.287 . S
C976 C977 1.524 . S
C976 H995 0.913 . S
C977 H953 0.950 . S
C977 C976 1.524 . S
C977 C978 1.415 . S
C978 H954 0.950 . S
C978 C973 1.363 . S
C978 C977 1.415 . S
C979 H955 0.951 . S
C979 C980 1.366 . S
C979 C981 1.388 . S
C980 C979 1.366 . S
C980 C984 1.385 . S
C981 H956 0.951 . S
C981 C979 1.388 . S
C981 C982 1.366 . S
C982 C981 1.366 . S
C982 C983 1.414 . S
C982 C985 1.499 . S
C983 H957 0.950 . S
C983 C982 1.414 . S
C983 C984 1.374 . S
C984 H958 0.950 . S
C984 C980 1.385 . S
C984 C983 1.374 . S
C985 C982 1.499 . S
C985 C986 1.373 . S
C985 C987 1.389 1_565 S
C986 H959 0.950 . S
C986 C972 1.377 . S
C986 C985 1.373 . S
C987 C971 1.377 . S
C987 C985 1.389 1_545 S
C987 C988 1.524 . S
C988 C987 1.524 . S
C988 C989 1.397 . S
C988 C993 1.363 . S
C989 H960 0.950 . S
C989 C988 1.397 . S
C989 C990 1.334 . S
C990 H961 0.950 . S
C990 C989 1.334 . S
C990 C991 1.287 . S
C991 C990 1.287 . S
C991 C992 1.524 . S
C991 H994 0.999 . S
C992 H962 0.950 . S
C992 C991 1.524 . S
C992 C993 1.415 . S
C993 H963 0.950 . S
C993 C988 1.363 . S
C993 C992 1.415 . S
H994 C991 0.999 . S
H995 C976 0.913 . S
H996 C1014 0.951 . S
H997 C1016 0.951 . S
H998 C1018 0.950 . S
H999 C1019 0.950 . S
H1000 C1021 0.950 . S
H1001 C1024 0.950 . S
H1002 C1025 0.950 . S
H1003 C1027 0.950 . S
H1004 C1028 0.950 . S
H1005 C1029 0.951 . S
H1006 C1031 0.951 . S
H1007 C1033 0.950 . S
H1008 C1034 0.950 . S
H1009 C1036 0.950 . S
H1010 C1039 0.950 . S
H1011 C1040 0.950 . S
H1012 C1042 0.950 . S
H1013 C1043 0.950 . S
C1014 H996 0.951 . S
C1014 C1015 1.366 . S
C1014 C1016 1.388 . S
C1015 C1014 1.366 . S
C1015 C1019 1.385 . S
C1016 H997 0.951 . S
C1016 C1014 1.388 . S
C1016 C1017 1.366 . S
C1017 C1016 1.366 . S
C1017 C1018 1.414 . S
C1017 C1020 1.499 . S
C1018 H998 0.950 . S
C1018 C1017 1.414 . S
C1018 C1019 1.374 . S
C1019 H999 0.950 . S
C1019 C1015 1.385 . S
C1019 C1018 1.374 . S
C1020 C1017 1.499 . S
C1020 C1021 1.373 . S
C1020 C1022 1.389 . S
C1021 H1000 0.950 . S
C1021 C1020 1.373 . S
C1021 C1037 1.377 . S
C1022 C1020 1.389 . S
C1022 C1023 1.524 . S
C1022 C1036 1.377 . S
C1023 C1022 1.524 . S
C1023 C1024 1.397 . S
C1023 C1028 1.363 . S
C1024 H1001 0.950 . S
C1024 C1023 1.397 . S
C1024 C1025 1.334 . S
C1025 H1002 0.950 . S
C1025 C1024 1.334 . S
C1025 C1026 1.287 . S
C1026 C1025 1.287 . S
C1026 C1027 1.524 . S
C1026 H1045 0.913 . S
C1027 H1003 0.950 . S
C1027 C1026 1.524 . S
C1027 C1028 1.415 . S
C1028 H1004 0.950 . S
C1028 C1023 1.363 . S
C1028 C1027 1.415 . S
C1029 H1005 0.951 . S
C1029 C1030 1.366 . S
C1029 C1031 1.388 . S
C1030 C1029 1.366 . S
C1030 C1034 1.385 . S
C1031 H1006 0.951 . S
C1031 C1029 1.388 . S
C1031 C1032 1.366 . S
C1032 C1031 1.366 . S
C1032 C1033 1.414 . S
C1032 C1035 1.499 . S
C1033 H1007 0.950 . S
C1033 C1032 1.414 . S
C1033 C1034 1.374 . S
C1034 H1008 0.950 . S
C1034 C1030 1.385 . S
C1034 C1033 1.374 . S
C1035 C1032 1.499 . S
C1035 C1036 1.373 . S
C1035 C1037 1.389 . S
C1036 H1009 0.950 . S
C1036 C1022 1.377 . S
C1036 C1035 1.373 . S
C1037 C1021 1.377 . S
C1037 C1035 1.389 . S
C1037 C1038 1.524 . S
C1038 C1037 1.524 . S
C1038 C1039 1.397 . S
C1038 C1043 1.363 . S
C1039 H1010 0.950 . S
C1039 C1038 1.397 . S
C1039 C1040 1.334 . S
C1040 H1011 0.950 . S
C1040 C1039 1.334 . S
C1040 C1041 1.287 . S
C1041 C1040 1.287 . S
C1041 C1042 1.524 . S
C1041 H1044 0.999 . S
C1042 H1012 0.950 . S
C1042 C1041 1.524 . S
C1042 C1043 1.415 . S
C1043 H1013 0.950 . S
C1043 C1038 1.363 . S
C1043 C1042 1.415 . S
H1044 C1041 0.999 . S
H1045 C1026 0.913 . S
H1046 C1064 0.951 . S
H1047 C1066 0.951 . S
H1048 C1068 0.950 . S
H1049 C1069 0.950 . S
H1050 C1071 0.950 . S
H1051 C1074 0.950 . S
H1052 C1075 0.950 . S
H1053 C1077 0.950 . S
H1054 C1078 0.950 . S
H1055 C1079 0.951 . S
H1056 C1081 0.951 . S
H1057 C1083 0.950 . S
H1058 C1084 0.950 . S
H1059 C1086 0.950 . S
H1060 C1089 0.950 . S
H1061 C1090 0.950 . S
H1062 C1092 0.950 . S
H1063 C1093 0.950 . S
C1064 H1046 0.951 . S
C1064 C1065 1.366 . S
C1064 C1066 1.388 . S
C1065 C1064 1.366 . S
C1065 C1069 1.385 . S
C1066 H1047 0.951 . S
C1066 C1064 1.388 . S
C1066 C1067 1.366 . S
C1067 C1066 1.366 . S
C1067 C1068 1.414 . S
C1067 C1070 1.499 . S
C1068 H1048 0.950 . S
C1068 C1067 1.414 . S
C1068 C1069 1.374 . S
C1069 H1049 0.950 . S
C1069 C1065 1.385 . S
C1069 C1068 1.374 . S
C1070 C1067 1.499 . S
C1070 C1071 1.373 . S
C1070 C1072 1.389 . S
C1071 H1050 0.950 . S
C1071 C1070 1.373 . S
C1071 C1087 1.377 . S
C1072 C1070 1.389 . S
C1072 C1073 1.524 . S
C1072 C1086 1.377 . S
C1073 C1072 1.524 . S
C1073 C1074 1.397 . S
C1073 C1078 1.363 . S
C1074 H1051 0.950 . S
C1074 C1073 1.397 . S
C1074 C1075 1.334 . S
C1075 H1052 0.950 . S
C1075 C1074 1.334 . S
C1075 C1076 1.287 . S
C1076 C1075 1.287 . S
C1076 C1077 1.524 . S
C1076 H1095 0.913 . S
C1077 H1053 0.950 . S
C1077 C1076 1.524 . S
C1077 C1078 1.415 . S
C1078 H1054 0.950 . S
C1078 C1073 1.363 . S
C1078 C1077 1.415 . S
C1079 H1055 0.951 . S
C1079 C1080 1.366 . S
C1079 C1081 1.388 . S
C1080 C1079 1.366 . S
C1080 C1084 1.385 . S
C1081 H1056 0.951 . S
C1081 C1079 1.388 . S
C1081 C1082 1.366 . S
C1082 C1081 1.366 . S
C1082 C1083 1.414 . S
C1082 C1085 1.499 . S
C1083 H1057 0.950 . S
C1083 C1082 1.414 . S
C1083 C1084 1.374 . S
C1084 H1058 0.950 . S
C1084 C1080 1.385 . S
C1084 C1083 1.374 . S
C1085 C1082 1.499 . S
C1085 C1086 1.373 . S
C1085 C1087 1.389 . S
C1086 H1059 0.950 . S
C1086 C1072 1.377 . S
C1086 C1085 1.373 . S
C1087 C1071 1.377 . S
C1087 C1085 1.389 . S
C1087 C1088 1.524 . S
C1088 C1087 1.524 . S
C1088 C1089 1.397 . S
C1088 C1093 1.363 . S
C1089 H1060 0.950 . S
C1089 C1088 1.397 . S
C1089 C1090 1.334 . S
C1090 H1061 0.950 . S
C1090 C1089 1.334 . S
C1090 C1091 1.287 . S
C1091 C1090 1.287 . S
C1091 C1092 1.524 . S
C1091 H1094 0.999 . S
C1092 H1062 0.950 . S
C1092 C1091 1.524 . S
C1092 C1093 1.415 . S
C1093 H1063 0.950 . S
C1093 C1088 1.363 . S
C1093 C1092 1.415 . S
H1094 C1091 0.999 . S
H1095 C1076 0.913 . S
H1096 C1114 0.951 . S
H1097 C1116 0.951 . S
H1098 C1118 0.950 . S
H1099 C1119 0.950 . S
H1100 C1121 0.950 . S
H1101 C1124 0.950 . S
H1102 C1125 0.950 . S
H1103 C1127 0.950 . S
H1104 C1128 0.950 . S
H1105 C1129 0.951 . S
H1106 C1131 0.951 . S
H1107 C1133 0.950 . S
H1108 C1134 0.950 . S
H1109 C1136 0.950 . S
H1110 C1139 0.950 . S
H1111 C1140 0.950 . S
H1112 C1142 0.950 . S
H1113 C1143 0.950 . S
C1114 H1096 0.951 . S
C1114 C1115 1.366 . S
C1114 C1116 1.388 . S
C1115 C1114 1.366 . S
C1115 C1119 1.385 . S
C1116 H1097 0.951 . S
C1116 C1114 1.388 . S
C1116 C1117 1.366 . S
C1117 C1116 1.366 . S
C1117 C1118 1.414 . S
C1117 C1120 1.499 . S
C1118 H1098 0.950 . S
C1118 C1117 1.414 . S
C1118 C1119 1.374 . S
C1119 H1099 0.950 . S
C1119 C1115 1.385 . S
C1119 C1118 1.374 . S
C1120 C1117 1.499 . S
C1120 C1121 1.373 . S
C1120 C1122 1.389 . S
C1121 H1100 0.950 . S
C1121 C1120 1.373 . S
C1121 C1137 1.377 . S
C1122 C1120 1.389 . S
C1122 C1123 1.524 . S
C1122 C1136 1.377 . S
C1123 C1122 1.524 . S
C1123 C1124 1.397 . S
C1123 C1128 1.363 . S
C1124 H1101 0.950 . S
C1124 C1123 1.397 . S
C1124 C1125 1.334 . S
C1125 H1102 0.950 . S
C1125 C1124 1.334 . S
C1125 C1126 1.287 . S
C1126 C1125 1.287 . S
C1126 C1127 1.524 . S
C1126 H1145 0.913 . S
C1127 H1103 0.950 . S
C1127 C1126 1.524 . S
C1127 C1128 1.415 . S
C1128 H1104 0.950 . S
C1128 C1123 1.363 . S
C1128 C1127 1.415 . S
C1129 H1105 0.951 . S
C1129 C1130 1.366 . S
C1129 C1131 1.388 . S
C1130 C1129 1.366 . S
C1130 C1134 1.385 . S
C1131 H1106 0.951 . S
C1131 C1129 1.388 . S
C1131 C1132 1.366 . S
C1132 C1131 1.366 . S
C1132 C1133 1.414 . S
C1132 C1135 1.499 . S
C1133 H1107 0.950 . S
C1133 C1132 1.414 . S
C1133 C1134 1.374 . S
C1134 H1108 0.950 . S
C1134 C1130 1.385 . S
C1134 C1133 1.374 . S
C1135 C1132 1.499 . S
C1135 C1136 1.373 . S
C1135 C1137 1.389 . S
C1136 H1109 0.950 . S
C1136 C1122 1.377 . S
C1136 C1135 1.373 . S
C1137 C1121 1.377 . S
C1137 C1135 1.389 . S
C1137 C1138 1.524 . S
C1138 C1137 1.524 . S
C1138 C1139 1.397 . S
C1138 C1143 1.363 . S
C1139 H1110 0.950 . S
C1139 C1138 1.397 . S
C1139 C1140 1.334 . S
C1140 H1111 0.950 . S
C1140 C1139 1.334 . S
C1140 C1141 1.287 . S
C1141 C1140 1.287 . S
C1141 C1142 1.524 . S
C1141 H1144 0.999 . S
C1142 H1112 0.950 . S
C1142 C1141 1.524 . S
C1142 C1143 1.415 . S
C1143 H1113 0.950 . S
C1143 C1138 1.363 . S
C1143 C1142 1.415 . S
H1144 C1141 0.999 . S
H1145 C1126 0.913 . S
H1146 C1164 0.951 . S
H1147 C1166 0.951 . S
H1148 C1168 0.950 . S
H1149 C1169 0.950 . S
H1150 C1171 0.950 . S
H1151 C1174 0.950 . S
H1152 C1175 0.950 . S
H1153 C1177 0.950 . S
H1154 C1178 0.950 . S
H1155 C1179 0.951 . S
H1156 C1181 0.951 . S
H1157 C1183 0.950 . S
H1158 C1184 0.950 . S
H1159 C1186 0.950 . S
H1160 C1189 0.950 . S
H1161 C1190 0.950 . S
H1162 C1192 0.950 . S
H1163 C1193 0.950 . S
C1164 H1146 0.951 . S
C1164 C1165 1.366 . S
C1164 C1166 1.388 . S
C1165 C1164 1.366 . S
C1165 C1169 1.385 . S
C1166 H1147 0.951 . S
C1166 C1164 1.388 . S
C1166 C1167 1.366 . S
C1167 C1166 1.366 . S
C1167 C1168 1.414 . S
C1167 C1170 1.499 . S
C1168 H1148 0.950 . S
C1168 C1167 1.414 . S
C1168 C1169 1.374 . S
C1169 H1149 0.950 . S
C1169 C1165 1.385 . S
C1169 C1168 1.374 . S
C1170 C1167 1.499 . S
C1170 C1171 1.373 . S
C1170 C1172 1.389 . S
C1171 H1150 0.950 . S
C1171 C1170 1.373 . S
C1171 C1187 1.377 . S
C1172 C1170 1.389 . S
C1172 C1173 1.524 . S
C1172 C1186 1.377 . S
C1173 C1172 1.524 . S
C1173 C1174 1.397 . S
C1173 C1178 1.363 . S
C1174 H1151 0.950 . S
C1174 C1173 1.397 . S
C1174 C1175 1.334 . S
C1175 H1152 0.950 . S
C1175 C1174 1.334 . S
C1175 C1176 1.287 . S
C1176 C1175 1.287 . S
C1176 C1177 1.524 . S
C1176 H1195 0.913 . S
C1177 H1153 0.950 . S
C1177 C1176 1.524 . S
C1177 C1178 1.415 . S
C1178 H1154 0.950 . S
C1178 C1173 1.363 . S
C1178 C1177 1.415 . S
C1179 H1155 0.951 . S
C1179 C1180 1.366 . S
C1179 C1181 1.388 . S
C1180 C1179 1.366 . S
C1180 C1184 1.385 . S
C1181 H1156 0.951 . S
C1181 C1179 1.388 . S
C1181 C1182 1.366 . S
C1182 C1181 1.366 . S
C1182 C1183 1.414 . S
C1182 C1185 1.499 . S
C1183 H1157 0.950 . S
C1183 C1182 1.414 . S
C1183 C1184 1.374 . S
C1184 H1158 0.950 . S
C1184 C1180 1.385 . S
C1184 C1183 1.374 . S
C1185 C1182 1.499 . S
C1185 C1186 1.373 . S
C1185 C1187 1.389 . S
C1186 H1159 0.950 . S
C1186 C1172 1.377 . S
C1186 C1185 1.373 . S
C1187 C1171 1.377 . S
C1187 C1185 1.389 . S
C1187 C1188 1.524 . S
C1188 C1187 1.524 . S
C1188 C1189 1.397 . S
C1188 C1193 1.363 . S
C1189 H1160 0.950 . S
C1189 C1188 1.397 . S
C1189 C1190 1.334 . S
C1190 H1161 0.950 . S
C1190 C1189 1.334 . S
C1190 C1191 1.287 . S
C1191 C1190 1.287 . S
C1191 C1192 1.524 . S
C1191 H1194 0.999 . S
C1192 H1162 0.950 . S
C1192 C1191 1.524 . S
C1192 C1193 1.415 . S
C1193 H1163 0.950 . S
C1193 C1188 1.363 . S
C1193 C1192 1.415 . S
H1194 C1191 0.999 . S
H1195 C1176 0.913 . S
H1196 C1214 0.951 . S
H1197 C1216 0.951 . S
H1198 C1218 0.950 . S
H1199 C1219 0.950 . S
H1200 C1221 0.950 . S
H1201 C1224 0.950 . S
H1202 C1225 0.950 . S
H1203 C1227 0.950 . S
H1204 C1228 0.950 . S
H1205 C1229 0.951 . S
H1206 C1231 0.951 . S
H1207 C1233 0.950 . S
H1208 C1234 0.950 . S
H1209 C1236 0.950 . S
H1210 C1239 0.950 . S
H1211 C1240 0.950 . S
H1212 C1242 0.950 . S
H1213 C1243 0.950 . S
C1214 H1196 0.951 . S
C1214 C1215 1.366 . S
C1214 C1216 1.388 . S
C1215 C1214 1.366 . S
C1215 C1219 1.385 . S
C1216 H1197 0.951 . S
C1216 C1214 1.388 . S
C1216 C1217 1.366 . S
C1217 C1216 1.366 . S
C1217 C1218 1.414 . S
C1217 C1220 1.499 . S
C1218 H1198 0.950 . S
C1218 C1217 1.414 . S
C1218 C1219 1.374 . S
C1219 H1199 0.950 . S
C1219 C1215 1.385 . S
C1219 C1218 1.374 . S
C1220 C1217 1.499 . S
C1220 C1221 1.373 . S
C1220 C1222 1.389 . S
C1221 H1200 0.950 . S
C1221 C1220 1.373 . S
C1221 C1237 1.377 . S
C1222 C1220 1.389 . S
C1222 C1223 1.524 . S
C1222 C1236 1.377 . S
C1223 C1222 1.524 . S
C1223 C1224 1.397 . S
C1223 C1228 1.363 . S
C1224 H1201 0.950 . S
C1224 C1223 1.397 . S
C1224 C1225 1.334 . S
C1225 H1202 0.950 . S
C1225 C1224 1.334 . S
C1225 C1226 1.287 . S
C1226 C1225 1.287 . S
C1226 C1227 1.524 . S
C1226 H1245 0.913 . S
C1227 H1203 0.950 . S
C1227 C1226 1.524 . S
C1227 C1228 1.415 . S
C1228 H1204 0.950 . S
C1228 C1223 1.363 . S
C1228 C1227 1.415 . S
C1229 H1205 0.951 . S
C1229 C1230 1.366 . S
C1229 C1231 1.388 . S
C1230 C1229 1.366 . S
C1230 C1234 1.385 . S
C1231 H1206 0.951 . S
C1231 C1229 1.388 . S
C1231 C1232 1.366 . S
C1232 C1231 1.366 . S
C1232 C1233 1.414 . S
C1232 C1235 1.499 . S
C1233 H1207 0.950 . S
C1233 C1232 1.414 . S
C1233 C1234 1.374 . S
C1234 H1208 0.950 . S
C1234 C1230 1.385 . S
C1234 C1233 1.374 . S
C1235 C1232 1.499 . S
C1235 C1236 1.373 . S
C1235 C1237 1.389 . S
C1236 H1209 0.950 . S
C1236 C1222 1.377 . S
C1236 C1235 1.373 . S
C1237 C1221 1.377 . S
C1237 C1235 1.389 . S
C1237 C1238 1.524 . S
C1238 C1237 1.524 . S
C1238 C1239 1.397 . S
C1238 C1243 1.363 . S
C1239 H1210 0.950 . S
C1239 C1238 1.397 . S
C1239 C1240 1.334 . S
C1240 H1211 0.950 . S
C1240 C1239 1.334 . S
C1240 C1241 1.287 . S
C1241 C1240 1.287 . S
C1241 C1242 1.524 . S
C1241 H1244 0.999 . S
C1242 H1212 0.950 . S
C1242 C1241 1.524 . S
C1242 C1243 1.415 . S
C1243 H1213 0.950 . S
C1243 C1238 1.363 . S
C1243 C1242 1.415 . S
H1244 C1241 0.999 . S
H1245 C1226 0.913 . S
H1246 C1264 0.951 . S
H1247 C1266 0.951 . S
H1248 C1268 0.950 . S
H1249 C1269 0.950 . S
H1250 C1271 0.950 . S
H1251 C1274 0.950 . S
H1252 C1275 0.950 . S
H1253 C1277 0.950 . S
H1254 C1278 0.950 . S
H1255 C1279 0.951 . S
H1256 C1281 0.951 . S
H1257 C1283 0.950 . S
H1258 C1284 0.950 . S
H1259 C1286 0.950 . S
H1260 C1289 0.950 . S
H1261 C1290 0.950 . S
H1262 C1292 0.950 . S
H1263 C1293 0.950 . S
C1264 H1246 0.951 . S
C1264 C1265 1.366 . S
C1264 C1266 1.388 . S
C1265 C1264 1.366 . S
C1265 C1269 1.385 . S
C1266 H1247 0.951 . S
C1266 C1264 1.388 . S
C1266 C1267 1.366 . S
C1267 C1266 1.366 . S
C1267 C1268 1.414 . S
C1267 C1270 1.499 . S
C1268 H1248 0.950 . S
C1268 C1267 1.414 . S
C1268 C1269 1.374 . S
C1269 H1249 0.950 . S
C1269 C1265 1.385 . S
C1269 C1268 1.374 . S
C1270 C1267 1.499 . S
C1270 C1271 1.373 . S
C1270 C1272 1.389 . S
C1271 H1250 0.950 . S
C1271 C1270 1.373 . S
C1271 C1287 1.377 . S
C1272 C1270 1.389 . S
C1272 C1273 1.524 . S
C1272 C1286 1.377 . S
C1273 C1272 1.524 . S
C1273 C1274 1.397 . S
C1273 C1278 1.363 . S
C1274 H1251 0.950 . S
C1274 C1273 1.397 . S
C1274 C1275 1.334 . S
C1275 H1252 0.950 . S
C1275 C1274 1.334 . S
C1275 C1276 1.287 . S
C1276 C1275 1.287 . S
C1276 C1277 1.524 . S
C1276 H1295 0.913 . S
C1277 H1253 0.950 . S
C1277 C1276 1.524 . S
C1277 C1278 1.415 . S
C1278 H1254 0.950 . S
C1278 C1273 1.363 . S
C1278 C1277 1.415 . S
C1279 H1255 0.951 . S
C1279 C1280 1.366 . S
C1279 C1281 1.388 . S
C1280 C1279 1.366 . S
C1280 C1284 1.385 . S
C1281 H1256 0.951 . S
C1281 C1279 1.388 . S
C1281 C1282 1.366 . S
C1282 C1281 1.366 . S
C1282 C1283 1.414 . S
C1282 C1285 1.499 . S
C1283 H1257 0.950 . S
C1283 C1282 1.414 . S
C1283 C1284 1.374 . S
C1284 H1258 0.950 . S
C1284 C1280 1.385 . S
C1284 C1283 1.374 . S
C1285 C1282 1.499 . S
C1285 C1286 1.373 . S
C1285 C1287 1.389 . S
C1286 H1259 0.950 . S
C1286 C1272 1.377 . S
C1286 C1285 1.373 . S
C1287 C1271 1.377 . S
C1287 C1285 1.389 . S
C1287 C1288 1.524 . S
C1288 C1287 1.524 . S
C1288 C1289 1.397 . S
C1288 C1293 1.363 . S
C1289 H1260 0.950 . S
C1289 C1288 1.397 . S
C1289 C1290 1.334 . S
C1290 H1261 0.950 . S
C1290 C1289 1.334 . S
C1290 C1291 1.287 . S
C1291 C1290 1.287 . S
C1291 C1292 1.524 . S
C1291 H1294 0.999 . S
C1292 H1262 0.950 . S
C1292 C1291 1.524 . S
C1292 C1293 1.415 . S
C1293 H1263 0.950 . S
C1293 C1288 1.363 . S
C1293 C1292 1.415 . S
H1294 C1291 0.999 . S
H1295 C1276 0.913 . S
H1296 C1314 0.951 . S
H1297 C1316 0.951 . S
H1298 C1318 0.950 . S
H1299 C1319 0.950 . S
H1300 C1321 0.950 . S
H1301 C1324 0.950 . S
H1302 C1325 0.950 . S
H1303 C1327 0.950 . S
H1304 C1328 0.950 . S
H1305 C1329 0.951 . S
H1306 C1331 0.951 . S
H1307 C1333 0.950 . S
H1308 C1334 0.950 . S
H1309 C1336 0.950 . S
H1310 C1339 0.950 . S
H1311 C1340 0.950 . S
H1312 C1342 0.950 . S
H1313 C1343 0.950 . S
C1314 H1296 0.951 . S
C1314 C1315 1.366 . S
C1314 C1316 1.388 . S
C1315 C1314 1.366 . S
C1315 C1319 1.385 . S
C1316 H1297 0.951 . S
C1316 C1314 1.388 . S
C1316 C1317 1.366 . S
C1317 C1316 1.366 . S
C1317 C1318 1.414 . S
C1317 C1320 1.499 . S
C1318 H1298 0.950 . S
C1318 C1317 1.414 . S
C1318 C1319 1.374 . S
C1319 H1299 0.950 . S
C1319 C1315 1.385 . S
C1319 C1318 1.374 . S
C1320 C1317 1.499 . S
C1320 C1321 1.373 . S
C1320 C1322 1.389 . S
C1321 H1300 0.950 . S
C1321 C1320 1.373 . S
C1321 C1337 1.377 . S
C1322 C1320 1.389 . S
C1322 C1323 1.524 . S
C1322 C1336 1.377 . S
C1323 C1322 1.524 . S
C1323 C1324 1.397 . S
C1323 C1328 1.363 . S
C1324 H1301 0.950 . S
C1324 C1323 1.397 . S
C1324 C1325 1.334 . S
C1325 H1302 0.950 . S
C1325 C1324 1.334 . S
C1325 C1326 1.287 . S
C1326 C1325 1.287 . S
C1326 C1327 1.524 . S
C1326 H1345 0.913 . S
C1327 H1303 0.950 . S
C1327 C1326 1.524 . S
C1327 C1328 1.415 . S
C1328 H1304 0.950 . S
C1328 C1323 1.363 . S
C1328 C1327 1.415 . S
C1329 H1305 0.951 . S
C1329 C1330 1.366 . S
C1329 C1331 1.388 . S
C1330 C1329 1.366 . S
C1330 C1334 1.385 . S
C1331 H1306 0.951 . S
C1331 C1329 1.388 . S
C1331 C1332 1.366 . S
C1332 C1331 1.366 . S
C1332 C1333 1.414 . S
C1332 C1335 1.499 . S
C1333 H1307 0.950 . S
C1333 C1332 1.414 . S
C1333 C1334 1.374 . S
C1334 H1308 0.950 . S
C1334 C1330 1.385 . S
C1334 C1333 1.374 . S
C1335 C1332 1.499 . S
C1335 C1336 1.373 . S
C1335 C1337 1.389 . S
C1336 H1309 0.950 . S
C1336 C1322 1.377 . S
C1336 C1335 1.373 . S
C1337 C1321 1.377 . S
C1337 C1335 1.389 . S
C1337 C1338 1.524 . S
C1338 C1337 1.524 . S
C1338 C1339 1.397 . S
C1338 C1343 1.363 . S
C1339 H1310 0.950 . S
C1339 C1338 1.397 . S
C1339 C1340 1.334 . S
C1340 H1311 0.950 . S
C1340 C1339 1.334 . S
C1340 C1341 1.287 . S
C1341 C1340 1.287 . S
C1341 C1342 1.524 . S
C1341 H1344 0.999 . S
C1342 H1312 0.950 . S
C1342 C1341 1.524 . S
C1342 C1343 1.415 . S
C1343 H1313 0.950 . S
C1343 C1338 1.363 . S
C1343 C1342 1.415 . S
H1344 C1341 0.999 . S
H1345 C1326 0.913 . S
H1346 C1364 0.951 . S
H1347 C1366 0.951 . S
H1348 C1368 0.950 . S
H1349 C1369 0.950 . S
H1350 C1371 0.950 . S
H1351 C1374 0.950 . S
H1352 C1375 0.950 . S
H1353 C1377 0.950 . S
H1354 C1378 0.950 . S
H1355 C1379 0.951 . S
H1356 C1381 0.951 . S
H1357 C1383 0.950 . S
H1358 C1384 0.950 . S
H1359 C1386 0.950 . S
H1360 C1389 0.950 . S
H1361 C1390 0.950 . S
H1362 C1392 0.950 . S
H1363 C1393 0.950 . S
C1364 H1346 0.951 . S
C1364 C1365 1.366 . S
C1364 C1366 1.388 . S
C1365 C1364 1.366 . S
C1365 C1369 1.385 . S
C1366 H1347 0.951 . S
C1366 C1364 1.388 . S
C1366 C1367 1.366 . S
C1367 C1366 1.366 . S
C1367 C1368 1.414 . S
C1367 C1370 1.499 . S
C1368 H1348 0.950 . S
C1368 C1367 1.414 . S
C1368 C1369 1.374 . S
C1369 H1349 0.950 . S
C1369 C1365 1.385 . S
C1369 C1368 1.374 . S
C1370 C1367 1.499 . S
C1370 C1371 1.373 . S
C1370 C1372 1.389 . S
C1371 H1350 0.950 . S
C1371 C1370 1.373 . S
C1371 C1387 1.377 . S
C1372 C1370 1.389 . S
C1372 C1373 1.524 . S
C1372 C1386 1.377 . S
C1373 C1372 1.524 . S
C1373 C1374 1.397 . S
C1373 C1378 1.363 . S
C1374 H1351 0.950 . S
C1374 C1373 1.397 . S
C1374 C1375 1.334 1_554 S
C1375 H1352 0.950 . S
C1375 C1374 1.334 1_556 S
C1375 C1376 1.287 . S
C1376 C1375 1.287 . S
C1376 C1377 1.524 . S
C1376 H1395 0.913 . S
C1377 H1353 0.950 . S
C1377 C1376 1.524 . S
C1377 C1378 1.415 1_556 S
C1378 H1354 0.950 . S
C1378 C1373 1.363 . S
C1378 C1377 1.415 1_554 S
C1379 H1355 0.951 . S
C1379 C1380 1.366 . S
C1379 C1381 1.388 . S
C1380 C1379 1.366 . S
C1380 C1384 1.385 . S
C1381 H1356 0.951 . S
C1381 C1379 1.388 . S
C1381 C1382 1.366 . S
C1382 C1381 1.366 . S
C1382 C1383 1.414 . S
C1382 C1385 1.499 . S
C1383 H1357 0.950 . S
C1383 C1382 1.414 . S
C1383 C1384 1.374 . S
C1384 H1358 0.950 . S
C1384 C1380 1.385 . S
C1384 C1383 1.374 . S
C1385 C1382 1.499 . S
C1385 C1386 1.373 . S
C1385 C1387 1.389 . S
C1386 H1359 0.950 . S
C1386 C1372 1.377 . S
C1386 C1385 1.373 . S
C1387 C1371 1.377 . S
C1387 C1385 1.389 . S
C1387 C1388 1.524 . S
C1388 C1387 1.524 . S
C1388 C1389 1.397 . S
C1388 C1393 1.363 . S
C1389 H1360 0.950 . S
C1389 C1388 1.397 . S
C1389 C1390 1.334 . S
C1390 H1361 0.950 . S
C1390 C1389 1.334 . S
C1390 C1391 1.287 . S
C1391 C1390 1.287 . S
C1391 C1392 1.524 . S
C1391 H1394 0.999 . S
C1392 H1362 0.950 . S
C1392 C1391 1.524 . S
C1392 C1393 1.415 . S
C1393 H1363 0.950 . S
C1393 C1388 1.363 . S
C1393 C1392 1.415 . S
H1394 C1391 0.999 . S
H1395 C1376 0.913 . S
H1396 C1414 0.951 . S
H1397 C1416 0.951 . S
H1398 C1418 0.950 . S
H1399 C1419 0.950 . S
H1400 C1421 0.950 . S
H1401 C1424 0.950 . S
H1402 C1425 0.950 . S
H1403 C1427 0.950 . S
H1404 C1428 0.950 . S
H1405 C1429 0.951 . S
H1406 C1431 0.951 . S
H1407 C1433 0.950 . S
H1408 C1434 0.950 . S
H1409 C1436 0.950 . S
H1410 C1439 0.950 . S
H1411 C1440 0.950 . S
H1412 C1442 0.950 . S
H1413 C1443 0.950 . S
C1414 H1396 0.951 . S
C1414 C1415 1.366 . S
C1414 C1416 1.388 . S
C1415 C1414 1.366 . S
C1415 C1419 1.385 . S
C1416 H1397 0.951 . S
C1416 C1414 1.388 . S
C1416 C1417 1.366 . S
C1417 C1416 1.366 . S
C1417 C1418 1.414 . S
C1417 C1420 1.499 . S
C1418 H1398 0.950 . S
C1418 C1417 1.414 . S
C1418 C1419 1.374 . S
C1419 H1399 0.950 . S
C1419 C1415 1.385 . S
C1419 C1418 1.374 . S
C1420 C1417 1.499 . S
C1420 C1421 1.373 . S
C1420 C1422 1.389 . S
C1421 H1400 0.950 . S
C1421 C1420 1.373 . S
C1421 C1437 1.377 . S
C1422 C1420 1.389 . S
C1422 C1423 1.524 . S
C1422 C1436 1.377 . S
C1423 C1422 1.524 . S
C1423 C1424 1.397 . S
C1423 C1428 1.363 . S
C1424 H1401 0.950 . S
C1424 C1423 1.397 . S
C1424 C1425 1.334 1_554 S
C1425 H1402 0.950 . S
C1425 C1424 1.334 1_556 S
C1425 C1426 1.287 . S
C1426 C1425 1.287 . S
C1426 C1427 1.524 1_556 S
C1426 H1445 0.913 . S
C1427 H1403 0.950 . S
C1427 C1426 1.524 1_554 S
C1427 C1428 1.415 . S
C1428 H1404 0.950 . S
C1428 C1423 1.363 . S
C1428 C1427 1.415 . S
C1429 H1405 0.951 . S
C1429 C1430 1.366 . S
C1429 C1431 1.388 . S
C1430 C1429 1.366 . S
C1430 C1434 1.385 . S
C1431 H1406 0.951 . S
C1431 C1429 1.388 . S
C1431 C1432 1.366 . S
C1432 C1431 1.366 . S
C1432 C1433 1.414 . S
C1432 C1435 1.499 . S
C1433 H1407 0.950 . S
C1433 C1432 1.414 . S
C1433 C1434 1.374 . S
C1434 H1408 0.950 . S
C1434 C1430 1.385 . S
C1434 C1433 1.374 . S
C1435 C1432 1.499 . S
C1435 C1436 1.373 . S
C1435 C1437 1.389 . S
C1436 H1409 0.950 . S
C1436 C1422 1.377 . S
C1436 C1435 1.373 . S
C1437 C1421 1.377 . S
C1437 C1435 1.389 . S
C1437 C1438 1.524 . S
C1438 C1437 1.524 . S
C1438 C1439 1.397 . S
C1438 C1443 1.363 . S
C1439 H1410 0.950 . S
C1439 C1438 1.397 . S
C1439 C1440 1.334 . S
C1440 H1411 0.950 . S
C1440 C1439 1.334 . S
C1440 C1441 1.287 . S
C1441 C1440 1.287 . S
C1441 C1442 1.524 . S
C1441 H1444 0.999 . S
C1442 H1412 0.950 . S
C1442 C1441 1.524 . S
C1442 C1443 1.415 . S
C1443 H1413 0.950 . S
C1443 C1438 1.363 . S
C1443 C1442 1.415 . S
H1444 C1441 0.999 . S
H1445 C1426 0.913 . S
H1446 C1464 0.951 . S
H1447 C1466 0.951 . S
H1448 C1468 0.950 . S
H1449 C1469 0.950 . S
H1450 C1471 0.950 . S
H1451 C1474 0.950 . S
H1452 C1475 0.950 . S
H1453 C1477 0.950 . S
H1454 C1478 0.950 . S
H1455 C1479 0.951 . S
H1456 C1481 0.951 . S
H1457 C1483 0.950 . S
H1458 C1484 0.950 . S
H1459 C1486 0.950 . S
H1460 C1489 0.950 . S
H1461 C1490 0.950 . S
H1462 C1492 0.950 . S
H1463 C1493 0.950 . S
C1464 H1446 0.951 . S
C1464 C1465 1.366 . S
C1464 C1466 1.388 . S
C1465 C1464 1.366 . S
C1465 C1469 1.385 . S
C1466 H1447 0.951 . S
C1466 C1464 1.388 . S
C1466 C1467 1.366 . S
C1467 C1466 1.366 . S
C1467 C1468 1.414 . S
C1467 C1470 1.499 . S
C1468 H1448 0.950 . S
C1468 C1467 1.414 . S
C1468 C1469 1.374 . S
C1469 H1449 0.950 . S
C1469 C1465 1.385 . S
C1469 C1468 1.374 . S
C1470 C1467 1.499 . S
C1470 C1471 1.373 . S
C1470 C1472 1.389 . S
C1471 H1450 0.950 . S
C1471 C1470 1.373 . S
C1471 C1487 1.377 . S
C1472 C1470 1.389 . S
C1472 C1473 1.524 . S
C1472 C1486 1.377 . S
C1473 C1472 1.524 . S
C1473 C1474 1.397 . S
C1473 C1478 1.363 . S
C1474 H1451 0.950 . S
C1474 C1473 1.397 . S
C1474 C1475 1.334 . S
C1475 H1452 0.950 . S
C1475 C1474 1.334 . S
C1475 C1476 1.287 . S
C1476 C1475 1.287 . S
C1476 C1477 1.524 . S
C1476 H1495 0.913 . S
C1477 H1453 0.950 . S
C1477 C1476 1.524 . S
C1477 C1478 1.415 . S
C1478 H1454 0.950 . S
C1478 C1473 1.363 . S
C1478 C1477 1.415 . S
C1479 H1455 0.951 . S
C1479 C1480 1.366 . S
C1479 C1481 1.388 . S
C1480 C1479 1.366 . S
C1480 C1484 1.385 . S
C1481 H1456 0.951 . S
C1481 C1479 1.388 . S
C1481 C1482 1.366 . S
C1482 C1481 1.366 . S
C1482 C1483 1.414 . S
C1482 C1485 1.499 . S
C1483 H1457 0.950 . S
C1483 C1482 1.414 . S
C1483 C1484 1.374 . S
C1484 H1458 0.950 . S
C1484 C1480 1.385 . S
C1484 C1483 1.374 . S
C1485 C1482 1.499 . S
C1485 C1486 1.373 . S
C1485 C1487 1.389 . S
C1486 H1459 0.950 . S
C1486 C1472 1.377 . S
C1486 C1485 1.373 . S
C1487 C1471 1.377 . S
C1487 C1485 1.389 . S
C1487 C1488 1.524 . S
C1488 C1487 1.524 . S
C1488 C1489 1.397 . S
C1488 C1493 1.363 . S
C1489 H1460 0.950 . S
C1489 C1488 1.397 . S
C1489 C1490 1.334 . S
C1490 H1461 0.950 . S
C1490 C1489 1.334 . S
C1490 C1491 1.287 . S
C1491 C1490 1.287 . S
C1491 C1492 1.524 . S
C1491 H1494 0.999 . S
C1492 H1462 0.950 . S
C1492 C1491 1.524 . S
C1492 C1493 1.415 . S
C1493 H1463 0.950 . S
C1493 C1488 1.363 . S
C1493 C1492 1.415 . S
H1494 C1491 0.999 . S
H1495 C1476 0.913 . S
H1496 C1514 0.951 . S
H1497 C1516 0.951 . S
H1498 C1518 0.950 . S
H1499 C1519 0.950 . S
H1500 C1521 0.950 . S
H1501 C1524 0.950 . S
H1502 C1525 0.950 . S
H1503 C1527 0.950 . S
H1504 C1528 0.950 . S
H1505 C1529 0.951 . S
H1506 C1531 0.951 . S
H1507 C1533 0.950 . S
H1508 C1534 0.950 . S
H1509 C1536 0.950 . S
H1510 C1539 0.950 . S
H1511 C1540 0.950 . S
H1512 C1542 0.950 . S
H1513 C1543 0.950 . S
C1514 H1496 0.951 . S
C1514 C1515 1.366 . S
C1514 C1516 1.388 . S
C1515 C1514 1.366 . S
C1515 C1519 1.385 . S
C1516 H1497 0.951 . S
C1516 C1514 1.388 . S
C1516 C1517 1.366 . S
C1517 C1516 1.366 . S
C1517 C1518 1.414 . S
C1517 C1520 1.499 . S
C1518 H1498 0.950 . S
C1518 C1517 1.414 . S
C1518 C1519 1.374 . S
C1519 H1499 0.950 . S
C1519 C1515 1.385 . S
C1519 C1518 1.374 . S
C1520 C1517 1.499 . S
C1520 C1521 1.373 . S
C1520 C1522 1.389 . S
C1521 H1500 0.950 . S
C1521 C1520 1.373 . S
C1521 C1537 1.377 . S
C1522 C1520 1.389 . S
C1522 C1523 1.524 . S
C1522 C1536 1.377 . S
C1523 C1522 1.524 . S
C1523 C1524 1.397 . S
C1523 C1528 1.363 . S
C1524 H1501 0.950 . S
C1524 C1523 1.397 . S
C1524 C1525 1.334 . S
C1525 H1502 0.950 . S
C1525 C1524 1.334 . S
C1525 C1526 1.287 . S
C1526 C1525 1.287 . S
C1526 C1527 1.524 . S
C1526 H1545 0.913 . S
C1527 H1503 0.950 . S
C1527 C1526 1.524 . S
C1527 C1528 1.415 . S
C1528 H1504 0.950 . S
C1528 C1523 1.363 . S
C1528 C1527 1.415 . S
C1529 H1505 0.951 . S
C1529 C1530 1.366 . S
C1529 C1531 1.388 . S
C1530 C1529 1.366 . S
C1530 C1534 1.385 . S
C1531 H1506 0.951 . S
C1531 C1529 1.388 . S
C1531 C1532 1.366 . S
C1532 C1531 1.366 . S
C1532 C1533 1.414 . S
C1532 C1535 1.499 . S
C1533 H1507 0.950 . S
C1533 C1532 1.414 . S
C1533 C1534 1.374 . S
C1534 H1508 0.950 . S
C1534 C1530 1.385 . S
C1534 C1533 1.374 . S
C1535 C1532 1.499 . S
C1535 C1536 1.373 . S
C1535 C1537 1.389 . S
C1536 H1509 0.950 . S
C1536 C1522 1.377 . S
C1536 C1535 1.373 . S
C1537 C1521 1.377 . S
C1537 C1535 1.389 . S
C1537 C1538 1.524 . S
C1538 C1537 1.524 . S
C1538 C1539 1.397 . S
C1538 C1543 1.363 . S
C1539 H1510 0.950 . S
C1539 C1538 1.397 . S
C1539 C1540 1.334 . S
C1540 H1511 0.950 . S
C1540 C1539 1.334 . S
C1540 C1541 1.287 . S
C1541 C1540 1.287 . S
C1541 C1542 1.524 . S
C1541 H1544 0.999 . S
C1542 H1512 0.950 . S
C1542 C1541 1.524 . S
C1542 C1543 1.415 . S
C1543 H1513 0.950 . S
C1543 C1538 1.363 . S
C1543 C1542 1.415 . S
H1544 C1541 0.999 . S
H1545 C1526 0.913 . S
H1546 C1564 0.951 . S
H1547 C1566 0.951 . S
H1548 C1568 0.950 . S
H1549 C1569 0.950 . S
H1550 C1571 0.950 . S
H1551 C1574 0.950 . S
H1552 C1575 0.950 . S
H1553 C1577 0.950 . S
H1554 C1578 0.950 . S
H1555 C1579 0.951 . S
H1556 C1581 0.951 . S
H1557 C1583 0.950 . S
H1558 C1584 0.950 . S
H1559 C1586 0.950 . S
H1560 C1589 0.950 . S
H1561 C1590 0.950 . S
H1562 C1592 0.950 . S
H1563 C1593 0.950 . S
C1564 H1546 0.951 . S
C1564 C1565 1.366 . S
C1564 C1566 1.388 . S
C1565 C1564 1.366 . S
C1565 C1569 1.385 . S
C1566 H1547 0.951 . S
C1566 C1564 1.388 . S
C1566 C1567 1.366 . S
C1567 C1566 1.366 . S
C1567 C1568 1.414 . S
C1567 C1570 1.499 . S
C1568 H1548 0.950 . S
C1568 C1567 1.414 . S
C1568 C1569 1.374 . S
C1569 H1549 0.950 . S
C1569 C1565 1.385 . S
C1569 C1568 1.374 . S
C1570 C1567 1.499 . S
C1570 C1571 1.373 . S
C1570 C1572 1.389 . S
C1571 H1550 0.950 . S
C1571 C1570 1.373 . S
C1571 C1587 1.377 . S
C1572 C1570 1.389 . S
C1572 C1573 1.524 . S
C1572 C1586 1.377 . S
C1573 C1572 1.524 . S
C1573 C1574 1.397 . S
C1573 C1578 1.363 . S
C1574 H1551 0.950 . S
C1574 C1573 1.397 . S
C1574 C1575 1.334 . S
C1575 H1552 0.950 . S
C1575 C1574 1.334 . S
C1575 C1576 1.287 . S
C1576 C1575 1.287 . S
C1576 C1577 1.524 . S
C1576 H1595 0.913 . S
C1577 H1553 0.950 . S
C1577 C1576 1.524 . S
C1577 C1578 1.415 . S
C1578 H1554 0.950 . S
C1578 C1573 1.363 . S
C1578 C1577 1.415 . S
C1579 H1555 0.951 . S
C1579 C1580 1.366 . S
C1579 C1581 1.388 . S
C1580 C1579 1.366 . S
C1580 C1584 1.385 . S
C1581 H1556 0.951 . S
C1581 C1579 1.388 . S
C1581 C1582 1.366 . S
C1582 C1581 1.366 . S
C1582 C1583 1.414 . S
C1582 C1585 1.499 . S
C1583 H1557 0.950 . S
C1583 C1582 1.414 . S
C1583 C1584 1.374 . S
C1584 H1558 0.950 . S
C1584 C1580 1.385 . S
C1584 C1583 1.374 . S
C1585 C1582 1.499 . S
C1585 C1586 1.373 . S
C1585 C1587 1.389 . S
C1586 H1559 0.950 . S
C1586 C1572 1.377 . S
C1586 C1585 1.373 . S
C1587 C1571 1.377 . S
C1587 C1585 1.389 . S
C1587 C1588 1.524 . S
C1588 C1587 1.524 . S
C1588 C1589 1.397 . S
C1588 C1593 1.363 . S
C1589 H1560 0.950 . S
C1589 C1588 1.397 . S
C1589 C1590 1.334 . S
C1590 H1561 0.950 . S
C1590 C1589 1.334 . S
C1590 C1591 1.287 . S
C1591 C1590 1.287 . S
C1591 C1592 1.524 . S
C1591 H1594 0.999 . S
C1592 H1562 0.950 . S
C1592 C1591 1.524 . S
C1592 C1593 1.415 . S
C1593 H1563 0.950 . S
C1593 C1588 1.363 . S
C1593 C1592 1.415 . S
H1594 C1591 0.999 . S
H1595 C1576 0.913 . S
H1596 C1614 0.951 . S
H1597 C1616 0.951 . S
H1598 C1618 0.950 . S
H1599 C1619 0.950 . S
H1600 C1621 0.950 . S
H1601 C1624 0.950 . S
H1602 C1625 0.950 . S
H1603 C1627 0.950 . S
H1604 C1628 0.950 . S
H1605 C1629 0.951 . S
H1606 C1631 0.951 . S
H1607 C1633 0.950 . S
H1608 C1634 0.950 . S
H1609 C1636 0.950 . S
H1610 C1639 0.950 . S
H1611 C1640 0.950 1_554 S
H1612 C1642 0.950 . S
H1613 C1643 0.950 . S
C1614 H1596 0.951 . S
C1614 C1615 1.366 . S
C1614 C1616 1.388 . S
C1615 C1614 1.366 . S
C1615 C1619 1.385 . S
C1616 H1597 0.951 . S
C1616 C1614 1.388 . S
C1616 C1617 1.366 . S
C1617 C1616 1.366 . S
C1617 C1618 1.414 . S
C1617 C1620 1.499 . S
C1618 H1598 0.950 . S
C1618 C1617 1.414 . S
C1618 C1619 1.374 . S
C1619 H1599 0.950 . S
C1619 C1615 1.385 . S
C1619 C1618 1.374 . S
C1620 C1617 1.499 . S
C1620 C1621 1.373 . S
C1620 C1622 1.389 . S
C1621 H1600 0.950 . S
C1621 C1620 1.373 . S
C1621 C1637 1.377 . S
C1622 C1620 1.389 . S
C1622 C1623 1.524 . S
C1622 C1636 1.377 . S
C1623 C1622 1.524 . S
C1623 C1624 1.397 . S
C1623 C1628 1.363 . S
C1624 H1601 0.950 . S
C1624 C1623 1.397 . S
C1624 C1625 1.334 . S
C1625 H1602 0.950 . S
C1625 C1624 1.334 . S
C1625 C1626 1.287 . S
C1626 C1625 1.287 . S
C1626 C1627 1.524 . S
C1626 H1645 0.913 . S
C1627 H1603 0.950 . S
C1627 C1626 1.524 . S
C1627 C1628 1.415 . S
C1628 H1604 0.950 . S
C1628 C1623 1.363 . S
C1628 C1627 1.415 . S
C1629 H1605 0.951 . S
C1629 C1630 1.366 . S
C1629 C1631 1.388 . S
C1630 C1629 1.366 . S
C1630 C1634 1.385 . S
C1631 H1606 0.951 . S
C1631 C1629 1.388 . S
C1631 C1632 1.366 . S
C1632 C1631 1.366 . S
C1632 C1633 1.414 . S
C1632 C1635 1.499 . S
C1633 H1607 0.950 . S
C1633 C1632 1.414 . S
C1633 C1634 1.374 . S
C1634 H1608 0.950 . S
C1634 C1630 1.385 . S
C1634 C1633 1.374 . S
C1635 C1632 1.499 . S
C1635 C1636 1.373 . S
C1635 C1637 1.389 . S
C1636 H1609 0.950 . S
C1636 C1622 1.377 . S
C1636 C1635 1.373 . S
C1637 C1621 1.377 . S
C1637 C1635 1.389 . S
C1637 C1638 1.524 . S
C1638 C1637 1.524 . S
C1638 C1639 1.397 . S
C1638 C1643 1.363 . S
C1639 H1610 0.950 . S
C1639 C1638 1.397 . S
C1639 C1640 1.334 . S
C1640 H1611 0.950 1_556 S
C1640 C1639 1.334 . S
C1640 C1641 1.287 . S
C1641 C1640 1.287 . S
C1641 C1642 1.524 . S
C1641 H1644 0.999 1_556 S
C1642 H1612 0.950 . S
C1642 C1641 1.524 . S
C1642 C1643 1.415 . S
C1643 H1613 0.950 . S
C1643 C1638 1.363 . S
C1643 C1642 1.415 . S
H1644 C1641 0.999 1_554 S
H1645 C1626 0.913 . S
H1646 C1664 0.951 . S
H1647 C1666 0.951 . S
H1648 C1668 0.950 . S
H1649 C1669 0.950 . S
H1650 C1671 0.950 . S
H1651 C1674 0.950 . S
H1652 C1675 0.950 . S
H1653 C1677 0.950 . S
H1654 C1678 0.950 . S
H1655 C1679 0.951 . S
H1656 C1681 0.951 . S
H1657 C1683 0.950 . S
H1658 C1684 0.950 . S
H1659 C1686 0.950 . S
H1660 C1689 0.950 . S
H1661 C1690 0.950 . S
H1662 C1692 0.962 . S
H1663 C1693 0.950 . S
C1664 H1646 0.951 . S
C1664 C1665 1.366 . S
C1664 C1666 1.388 . S
C1665 C1664 1.366 . S
C1665 C1669 1.385 . S
C1666 H1647 0.951 . S
C1666 C1664 1.388 . S
C1666 C1667 1.366 . S
C1667 C1666 1.366 . S
C1667 C1668 1.414 . S
C1667 C1670 1.499 . S
C1668 H1648 0.950 . S
C1668 C1667 1.414 . S
C1668 C1669 1.374 . S
C1669 H1649 0.950 . S
C1669 C1665 1.385 . S
C1669 C1668 1.374 . S
C1670 C1667 1.499 . S
C1670 C1671 1.373 . S
C1670 C1672 1.389 . S
C1671 H1650 0.950 . S
C1671 C1670 1.373 . S
C1671 C1687 1.377 . S
C1672 C1670 1.389 . S
C1672 C1673 1.524 . S
C1672 C1686 1.377 . S
C1673 C1672 1.524 . S
C1673 C1674 1.397 . S
C1673 C1678 1.363 . S
C1674 H1651 0.950 . S
C1674 C1673 1.397 . S
C1674 C1675 1.334 . S
C1675 H1652 0.950 . S
C1675 C1674 1.334 . S
C1675 C1676 1.287 . S
C1676 C1675 1.287 . S
C1676 C1677 1.524 . S
C1676 H1695 0.913 . S
C1677 H1653 0.950 . S
C1677 C1676 1.524 . S
C1677 C1678 1.415 . S
C1678 H1654 0.950 . S
C1678 C1673 1.363 . S
C1678 C1677 1.415 . S
C1679 H1655 0.951 . S
C1679 C1680 1.366 . S
C1679 C1681 1.388 . S
C1680 C1679 1.366 . S
C1680 C1684 1.385 . S
C1681 H1656 0.951 . S
C1681 C1679 1.388 . S
C1681 C1682 1.366 . S
C1682 C1681 1.366 . S
C1682 C1683 1.414 . S
C1682 C1685 1.499 . S
C1683 H1657 0.950 . S
C1683 C1682 1.414 . S
C1683 C1684 1.374 . S
C1684 H1658 0.950 . S
C1684 C1680 1.385 . S
C1684 C1683 1.374 . S
C1685 C1682 1.499 . S
C1685 C1686 1.373 . S
C1685 C1687 1.389 . S
C1686 H1659 0.950 . S
C1686 C1672 1.377 . S
C1686 C1685 1.373 . S
C1687 C1671 1.377 . S
C1687 C1685 1.389 . S
C1687 C1688 1.524 . S
C1688 C1687 1.524 . S
C1688 C1689 1.397 . S
C1688 C1693 1.363 . S
C1689 H1660 0.950 . S
C1689 C1688 1.397 . S
C1689 C1690 1.334 1_556 S
C1690 H1661 0.950 . S
C1690 C1689 1.334 1_554 S
C1690 C1691 1.287 . S
C1691 C1690 1.287 . S
C1691 C1692 1.547 . S
C1691 H1694 0.999 . S
C1692 H1662 0.962 . S
C1692 C1691 1.547 . S
C1692 C1693 1.380 1_554 S
C1693 H1663 0.950 . S
C1693 C1688 1.363 . S
C1693 C1692 1.380 1_556 S
H1694 C1691 0.999 . S
H1695 C1676 0.913 . S
H1696 C1714 0.951 . S
H1697 C1716 0.951 . S
H1698 C1718 0.950 . S
H1699 C1719 0.950 . S
H1700 C1721 0.950 . S
H1701 C1724 0.950 . S
H1702 C1725 0.950 . S
H1703 C1727 0.950 . S
H1704 C1728 0.950 . S
H1705 C1729 0.951 . S
H1706 C1731 0.951 . S
H1707 C1733 0.950 . S
H1708 C1734 0.950 . S
H1709 C1736 0.950 . S
H1710 C1739 0.950 . S
H1711 C1740 0.950 . S
H1712 C1742 0.950 . S
H1713 C1743 0.950 . S
C1714 H1696 0.951 . S
C1714 C1715 1.366 . S
C1714 C1716 1.388 . S
C1715 C1714 1.366 . S
C1715 C1719 1.385 . S
C1716 H1697 0.951 . S
C1716 C1714 1.388 . S
C1716 C1717 1.366 . S
C1717 C1716 1.366 . S
C1717 C1718 1.414 . S
C1717 C1720 1.499 . S
C1718 H1698 0.950 . S
C1718 C1717 1.414 . S
C1718 C1719 1.374 . S
C1719 H1699 0.950 . S
C1719 C1715 1.385 . S
C1719 C1718 1.374 . S
C1720 C1717 1.499 . S
C1720 C1721 1.373 . S
C1720 C1722 1.389 . S
C1721 H1700 0.950 . S
C1721 C1720 1.373 . S
C1721 C1737 1.377 . S
C1722 C1720 1.389 . S
C1722 C1723 1.524 . S
C1722 C1736 1.377 . S
C1723 C1722 1.524 . S
C1723 C1724 1.397 . S
C1723 C1728 1.363 . S
C1724 H1701 0.950 . S
C1724 C1723 1.397 . S
C1724 C1725 1.334 . S
C1725 H1702 0.950 . S
C1725 C1724 1.334 . S
C1725 C1726 1.287 . S
C1726 C1725 1.287 . S
C1726 C1727 1.524 . S
C1726 H1745 0.913 . S
C1727 H1703 0.950 . S
C1727 C1726 1.524 . S
C1727 C1728 1.415 . S
C1728 H1704 0.950 . S
C1728 C1723 1.363 . S
C1728 C1727 1.415 . S
C1729 H1705 0.951 . S
C1729 C1730 1.366 . S
C1729 C1731 1.388 . S
C1730 C1729 1.366 . S
C1730 C1734 1.385 . S
C1731 H1706 0.951 . S
C1731 C1729 1.388 . S
C1731 C1732 1.366 . S
C1732 C1731 1.366 . S
C1732 C1733 1.414 . S
C1732 C1735 1.499 . S
C1733 H1707 0.950 . S
C1733 C1732 1.414 . S
C1733 C1734 1.374 . S
C1734 H1708 0.950 . S
C1734 C1730 1.385 . S
C1734 C1733 1.374 . S
C1735 C1732 1.499 . S
C1735 C1736 1.373 . S
C1735 C1737 1.389 . S
C1736 H1709 0.950 . S
C1736 C1722 1.377 . S
C1736 C1735 1.373 . S
C1737 C1721 1.377 . S
C1737 C1735 1.389 . S
C1737 C1738 1.524 . S
C1738 C1737 1.524 . S
C1738 C1739 1.397 . S
C1738 C1743 1.363 . S
C1739 H1710 0.950 . S
C1739 C1738 1.397 . S
C1739 C1740 1.334 . S
C1740 H1711 0.950 . S
C1740 C1739 1.334 . S
C1740 C1741 1.287 . S
C1741 C1740 1.287 . S
C1741 C1742 1.524 . S
C1741 H1744 0.999 . S
C1742 H1712 0.950 . S
C1742 C1741 1.524 . S
C1742 C1743 1.415 . S
C1743 H1713 0.950 . S
C1743 C1738 1.363 . S
C1743 C1742 1.415 . S
H1744 C1741 0.999 . S
H1745 C1726 0.913 . S
H1746 C1764 0.951 . S
H1747 C1766 0.951 . S
H1748 C1768 0.950 . S
H1749 C1769 0.950 . S
H1750 C1771 0.950 . S
H1751 C1774 0.950 . S
H1752 C1775 0.950 . S
H1753 C1777 0.950 . S
H1754 C1778 0.950 . S
H1755 C1779 0.951 . S
H1756 C1781 0.951 . S
H1757 C1783 0.950 . S
H1758 C1784 0.950 . S
H1759 C1786 0.950 . S
H1760 C1789 0.950 . S
H1761 C1790 0.950 . S
H1762 C1792 0.950 . S
H1763 C1793 0.950 . S
C1764 H1746 0.951 . S
C1764 C1765 1.366 . S
C1764 C1766 1.388 . S
C1765 C1764 1.366 . S
C1765 C1769 1.385 . S
C1766 H1747 0.951 . S
C1766 C1764 1.388 . S
C1766 C1767 1.366 . S
C1767 C1766 1.366 . S
C1767 C1768 1.414 . S
C1767 C1770 1.499 . S
C1768 H1748 0.950 . S
C1768 C1767 1.414 . S
C1768 C1769 1.374 . S
C1769 H1749 0.950 . S
C1769 C1765 1.385 . S
C1769 C1768 1.374 . S
C1770 C1767 1.499 . S
C1770 C1771 1.373 . S
C1770 C1772 1.389 . S
C1771 H1750 0.950 . S
C1771 C1770 1.373 . S
C1771 C1787 1.377 . S
C1772 C1770 1.389 . S
C1772 C1773 1.524 . S
C1772 C1786 1.377 . S
C1773 C1772 1.524 . S
C1773 C1774 1.397 . S
C1773 C1778 1.363 . S
C1774 H1751 0.950 . S
C1774 C1773 1.397 . S
C1774 C1775 1.334 . S
C1775 H1752 0.950 . S
C1775 C1774 1.334 . S
C1775 C1776 1.287 . S
C1776 C1775 1.287 . S
C1776 C1777 1.524 . S
C1776 H1795 0.913 . S
C1777 H1753 0.950 . S
C1777 C1776 1.524 . S
C1777 C1778 1.415 . S
C1778 H1754 0.950 . S
C1778 C1773 1.363 . S
C1778 C1777 1.415 . S
C1779 H1755 0.951 . S
C1779 C1780 1.366 . S
C1779 C1781 1.388 . S
C1780 C1779 1.366 . S
C1780 C1784 1.385 . S
C1781 H1756 0.951 . S
C1781 C1779 1.388 . S
C1781 C1782 1.366 . S
C1782 C1781 1.366 . S
C1782 C1783 1.414 . S
C1782 C1785 1.499 . S
C1783 H1757 0.950 . S
C1783 C1782 1.414 . S
C1783 C1784 1.374 . S
C1784 H1758 0.950 . S
C1784 C1780 1.385 . S
C1784 C1783 1.374 . S
C1785 C1782 1.499 . S
C1785 C1786 1.373 . S
C1785 C1787 1.389 . S
C1786 H1759 0.950 . S
C1786 C1772 1.377 . S
C1786 C1785 1.373 . S
C1787 C1771 1.377 . S
C1787 C1785 1.389 . S
C1787 C1788 1.524 . S
C1788 C1787 1.524 . S
C1788 C1789 1.397 . S
C1788 C1793 1.363 . S
C1789 H1760 0.950 . S
C1789 C1788 1.397 . S
C1789 C1790 1.334 . S
C1790 H1761 0.950 . S
C1790 C1789 1.334 . S
C1790 C1791 1.287 . S
C1791 C1790 1.287 . S
C1791 C1792 1.524 . S
C1791 H1794 0.999 . S
C1792 H1762 0.950 . S
C1792 C1791 1.524 . S
C1792 C1793 1.415 . S
C1793 H1763 0.950 . S
C1793 C1788 1.363 . S
C1793 C1792 1.415 . S
H1794 C1791 0.999 . S
H1795 C1776 0.913 . S
H1796 C1814 0.951 . S
H1797 C1816 0.951 . S
H1798 C1818 0.950 . S
H1799 C1819 0.950 . S
H1800 C1821 0.950 . S
H1801 C1824 0.950 . S
H1802 C1825 0.950 . S
H1803 C1827 0.950 . S
H1804 C1828 0.950 . S
H1805 C1829 0.951 . S
H1806 C1831 0.951 . S
H1807 C1833 0.950 . S
H1808 C1834 0.950 . S
H1809 C1836 0.950 . S
H1810 C1839 0.950 . S
H1811 C1840 0.950 . S
H1812 C1842 0.950 . S
H1813 C1843 0.950 . S
C1814 H1796 0.951 . S
C1814 C1815 1.366 . S
C1814 C1816 1.388 . S
C1815 C1814 1.366 . S
C1815 C1819 1.385 . S
C1816 H1797 0.951 . S
C1816 C1814 1.388 . S
C1816 C1817 1.366 . S
C1817 C1816 1.366 . S
C1817 C1818 1.414 . S
C1817 C1820 1.499 . S
C1818 H1798 0.950 . S
C1818 C1817 1.414 . S
C1818 C1819 1.374 . S
C1819 H1799 0.950 . S
C1819 C1815 1.385 . S
C1819 C1818 1.374 . S
C1820 C1817 1.499 . S
C1820 C1821 1.373 . S
C1820 C1822 1.389 . S
C1821 H1800 0.950 . S
C1821 C1820 1.373 . S
C1821 C1837 1.377 . S
C1822 C1820 1.389 . S
C1822 C1823 1.524 . S
C1822 C1836 1.377 . S
C1823 C1822 1.524 . S
C1823 C1824 1.397 . S
C1823 C1828 1.363 . S
C1824 H1801 0.950 . S
C1824 C1823 1.397 . S
C1824 C1825 1.334 . S
C1825 H1802 0.950 . S
C1825 C1824 1.334 . S
C1825 C1826 1.287 . S
C1826 C1825 1.287 . S
C1826 C1827 1.524 . S
C1826 H1845 0.913 . S
C1827 H1803 0.950 . S
C1827 C1826 1.524 . S
C1827 C1828 1.415 . S
C1828 H1804 0.950 . S
C1828 C1823 1.363 . S
C1828 C1827 1.415 . S
C1829 H1805 0.951 . S
C1829 C1830 1.366 . S
C1829 C1831 1.388 . S
C1830 C1829 1.366 . S
C1830 C1834 1.385 . S
C1831 H1806 0.951 . S
C1831 C1829 1.388 . S
C1831 C1832 1.366 . S
C1832 C1831 1.366 . S
C1832 C1833 1.414 . S
C1832 C1835 1.499 . S
C1833 H1807 0.950 . S
C1833 C1832 1.414 . S
C1833 C1834 1.374 . S
C1834 H1808 0.950 . S
C1834 C1830 1.385 . S
C1834 C1833 1.374 . S
C1835 C1832 1.499 . S
C1835 C1836 1.373 . S
C1835 C1837 1.389 . S
C1836 H1809 0.950 . S
C1836 C1822 1.377 . S
C1836 C1835 1.373 . S
C1837 C1821 1.377 . S
C1837 C1835 1.389 . S
C1837 C1838 1.524 . S
C1838 C1837 1.524 . S
C1838 C1839 1.397 . S
C1838 C1843 1.363 . S
C1839 H1810 0.950 . S
C1839 C1838 1.397 . S
C1839 C1840 1.334 . S
C1840 H1811 0.950 . S
C1840 C1839 1.334 . S
C1840 C1841 1.287 . S
C1841 C1840 1.287 . S
C1841 C1842 1.524 . S
C1841 H1844 0.999 . S
C1842 H1812 0.950 . S
C1842 C1841 1.524 . S
C1842 C1843 1.415 . S
C1843 H1813 0.950 . S
C1843 C1838 1.363 . S
C1843 C1842 1.415 . S
H1844 C1841 0.999 . S
H1845 C1826 0.913 . S
H1846 C1864 0.951 . S
H1847 C1866 0.951 . S
H1848 C1868 0.950 . S
H1849 C1869 0.950 . S
H1850 C1871 0.950 . S
H1851 C1874 0.950 . S
H1852 C1875 0.950 . S
H1853 C1877 0.950 . S
H1854 C1878 0.950 . S
H1855 C1879 0.951 . S
H1856 C1881 0.951 . S
H1857 C1883 0.950 . S
H1858 C1884 0.950 . S
H1859 C1886 0.950 . S
H1860 C1889 0.950 . S
H1861 C1890 0.950 . S
H1862 C1892 0.950 . S
H1863 C1893 0.950 . S
C1864 H1846 0.951 . S
C1864 C1865 1.366 . S
C1864 C1866 1.388 . S
C1865 C1864 1.366 . S
C1865 C1869 1.385 . S
C1866 H1847 0.951 . S
C1866 C1864 1.388 . S
C1866 C1867 1.366 . S
C1867 C1866 1.366 . S
C1867 C1868 1.414 . S
C1867 C1870 1.499 . S
C1868 H1848 0.950 . S
C1868 C1867 1.414 . S
C1868 C1869 1.374 . S
C1869 H1849 0.950 . S
C1869 C1865 1.385 . S
C1869 C1868 1.374 . S
C1870 C1867 1.499 . S
C1870 C1871 1.373 . S
C1870 C1872 1.389 . S
C1871 H1850 0.950 . S
C1871 C1870 1.373 . S
C1871 C1887 1.377 . S
C1872 C1870 1.389 . S
C1872 C1873 1.524 . S
C1872 C1886 1.377 . S
C1873 C1872 1.524 . S
C1873 C1874 1.397 . S
C1873 C1878 1.363 . S
C1874 H1851 0.950 . S
C1874 C1873 1.397 . S
C1874 C1875 1.334 . S
C1875 H1852 0.950 . S
C1875 C1874 1.334 . S
C1875 C1876 1.287 . S
C1876 C1875 1.287 . S
C1876 C1877 1.524 . S
C1876 H1895 0.913 . S
C1877 H1853 0.950 . S
C1877 C1876 1.524 . S
C1877 C1878 1.415 . S
C1878 H1854 0.950 . S
C1878 C1873 1.363 . S
C1878 C1877 1.415 . S
C1879 H1855 0.951 . S
C1879 C1880 1.366 . S
C1879 C1881 1.388 . S
C1880 C1879 1.366 . S
C1880 C1884 1.385 . S
C1881 H1856 0.951 . S
C1881 C1879 1.388 . S
C1881 C1882 1.366 . S
C1882 C1881 1.366 . S
C1882 C1883 1.414 . S
C1882 C1885 1.499 . S
C1883 H1857 0.950 . S
C1883 C1882 1.414 . S
C1883 C1884 1.374 . S
C1884 H1858 0.950 . S
C1884 C1880 1.385 . S
C1884 C1883 1.374 . S
C1885 C1882 1.499 . S
C1885 C1886 1.373 . S
C1885 C1887 1.389 . S
C1886 H1859 0.950 . S
C1886 C1872 1.377 . S
C1886 C1885 1.373 . S
C1887 C1871 1.377 . S
C1887 C1885 1.389 . S
C1887 C1888 1.524 . S
C1888 C1887 1.524 . S
C1888 C1889 1.397 . S
C1888 C1893 1.363 . S
C1889 H1860 0.950 . S
C1889 C1888 1.397 . S
C1889 C1890 1.334 . S
C1890 H1861 0.950 . S
C1890 C1889 1.334 . S
C1890 C1891 1.287 . S
C1891 C1890 1.287 . S
C1891 C1892 1.524 . S
C1891 H1894 0.999 . S
C1892 H1862 0.950 . S
C1892 C1891 1.524 . S
C1892 C1893 1.415 . S
C1893 H1863 0.950 . S
C1893 C1888 1.363 . S
C1893 C1892 1.415 . S
H1894 C1891 0.999 . S
H1895 C1876 0.913 . S
C415 C172 0.618 . S
C430 C7 0.617 . S
C465 C40 0.618 . S
C480 C106 0.617 . S
C515 C73 0.618 . S
C530 C139 0.618 . S
C565 C205 0.617 . S
C580 C370 0.618 . S
C615 C304 0.617 . S
C630 C238 0.617 . S
C665 C337 0.617 . S
C680 C271 0.618 . S
C715 C21 1.872 . S
C730 C219 1.872 . S
C765 C54 1.873 . S
C780 C252 1.873 . S
C815 C285 1.873 . S
C830 C87 1.873 . S
C865 C318 1.871 . S
C880 C120 1.871 . S
C915 C153 1.872 . S
C930 C351 1.872 . S
C965 C186 1.872 . S
C980 C384 1.872 . S
C1015 N145 1.202 . S
C1030 N13 1.200 . S
C1065 N178 1.202 . S
C1080 N46 1.200 . S
C1115 N112 1.200 . S
C1130 N79 1.202 . S
C1165 N211 1.202 . S
C1180 N343 1.200 . S
C1215 N244 1.200 . S
C1230 N376 1.201 . S
C1265 N310 1.201 . S
C1280 N277 1.202 . S
C1315 C18 0.549 . S
C1330 N68 0.604 . S
C1365 C51 0.550 . S
C1380 N2 0.602 . S
C1415 N35 0.602 . S
C1430 C84 0.550 . S
C1465 C117 0.549 . S
C1480 N134 0.604 . S
C1515 N167 0.601 . S
C1530 C150 0.551 . S
C1565 N101 0.600 . S
C1580 C183 0.551 . S
C1615 N266 0.603 . S
C1630 C216 0.549 . S
C1665 C249 0.550 . S
C1680 N200 0.602 . S
C1715 N233 0.604 . S
C1730 C282 0.549 . S
C1765 N332 0.603 . S
C1780 C315 0.550 . S
C1815 N365 0.603 . S
C1830 C348 0.550 . S
C1865 C381 0.551 . S
C1880 N299 0.600 . S
