# Generated by pormake.
# Topology wmt, (6)-cn, num edge types: 1
# Building blocks:
#     Node 0, Type 0, BuildingBlock: BETDIP_clean_sbu_0, # of connection points: 6
#     Node 1, Type 0, BuildingBlock: BETDIP_clean_sbu_0, # of connection points: 6
#     Node 2, Type 0, BuildingBlock: BETDIP_clean_sbu_0, # of connection points: 6
#     Node 3, Type 0, BuildingBlock: BETDIP_clean_sbu_0, # of connection points: 6
#     Node 4, Type 0, BuildingBlock: BETDIP_clean_sbu_0, # of connection points: 6
#     Node 5, Type 0, BuildingBlock: BETDIP_clean_sbu_0, # of connection points: 6
#     Node 6, Type 0, BuildingBlock: BETDIP_clean_sbu_0, # of connection points: 6
#     Node 7, Type 0, BuildingBlock: BETDIP_clean_sbu_0, # of connection points: 6
#     Node 8, Type 0, BuildingBlock: BETDIP_clean_sbu_0, # of connection points: 6
#     Node 9, Type 0, BuildingBlock: BETDIP_clean_sbu_0, # of connection points: 6
#     Node 10, Type 0, BuildingBlock: BETDIP_clean_sbu_0, # of connection points: 6
#     Node 11, Type 0, BuildingBlock: BETDIP_clean_sbu_0, # of connection points: 6
#     Node 12, Type 0, BuildingBlock: BETDIP_clean_sbu_0, # of connection points: 6
#     Node 13, Type 0, BuildingBlock: BETDIP_clean_sbu_0, # of connection points: 6
#     Node 14, Type 0, BuildingBlock: BETDIP_clean_sbu_0, # of connection points: 6
#     Node 15, Type 0, BuildingBlock: BETDIP_clean_sbu_0, # of connection points: 6
#     Node 16, Type 0, BuildingBlock: BETDIP_clean_sbu_0, # of connection points: 6
#     Node 17, Type 0, BuildingBlock: BETDIP_clean_sbu_0, # of connection points: 6
#     Node 18, Type 0, BuildingBlock: BETDIP_clean_sbu_0, # of connection points: 6
#     Node 19, Type 0, BuildingBlock: BETDIP_clean_sbu_0, # of connection points: 6
#     Node 20, Type 0, BuildingBlock: BETDIP_clean_sbu_0, # of connection points: 6
#     Node 21, Type 0, BuildingBlock: BETDIP_clean_sbu_0, # of connection points: 6
#     Node 22, Type 0, BuildingBlock: BETDIP_clean_sbu_0, # of connection points: 6
#     Node 23, Type 0, BuildingBlock: BETDIP_clean_sbu_0, # of connection points: 6
#     Node 24, Type 0, BuildingBlock: BETDIP_clean_sbu_0, # of connection points: 6
#     Node 25, Type 0, BuildingBlock: BETDIP_clean_sbu_0, # of connection points: 6
#     Node 26, Type 0, BuildingBlock: BETDIP_clean_sbu_0, # of connection points: 6
#     Node 27, Type 0, BuildingBlock: BETDIP_clean_sbu_0, # of connection points: 6
#     Node 28, Type 0, BuildingBlock: BETDIP_clean_sbu_0, # of connection points: 6
#     Node 29, Type 0, BuildingBlock: BETDIP_clean_sbu_0, # of connection points: 6
#     Node 30, Type 0, BuildingBlock: BETDIP_clean_sbu_0, # of connection points: 6
#     Node 31, Type 0, BuildingBlock: BETDIP_clean_sbu_0, # of connection points: 6
#     Node 32, Type 0, BuildingBlock: BETDIP_clean_sbu_0, # of connection points: 6
#     Node 33, Type 0, BuildingBlock: BETDIP_clean_sbu_0, # of connection points: 6
#     Node 34, Type 0, BuildingBlock: BETDIP_clean_sbu_0, # of connection points: 6
#     Node 35, Type 0, BuildingBlock: BETDIP_clean_sbu_0, # of connection points: 6
#     Edge 36, Type (0, 0), BuildingBlock: CIFDUS_clean_linker_0, # of connection points: 2
#     Edge 37, Type (0, 0), BuildingBlock: CIFDUS_clean_linker_0, # of connection points: 2
#     Edge 38, Type (0, 0), BuildingBlock: CIFDUS_clean_linker_0, # of connection points: 2
#     Edge 39, Type (0, 0), BuildingBlock: CIFDUS_clean_linker_0, # of connection points: 2
#     Edge 40, Type (0, 0), BuildingBlock: CIFDUS_clean_linker_0, # of connection points: 2
#     Edge 41, Type (0, 0), BuildingBlock: CIFDUS_clean_linker_0, # of connection points: 2
#     Edge 42, Type (0, 0), BuildingBlock: CIFDUS_clean_linker_0, # of connection points: 2
#     Edge 43, Type (0, 0), BuildingBlock: CIFDUS_clean_linker_0, # of connection points: 2
#     Edge 44, Type (0, 0), BuildingBlock: CIFDUS_clean_linker_0, # of connection points: 2
#     Edge 45, Type (0, 0), BuildingBlock: CIFDUS_clean_linker_0, # of connection points: 2
#     Edge 46, Type (0, 0), BuildingBlock: CIFDUS_clean_linker_0, # of connection points: 2
#     Edge 47, Type (0, 0), BuildingBlock: CIFDUS_clean_linker_0, # of connection points: 2
#     Edge 48, Type (0, 0), BuildingBlock: CIFDUS_clean_linker_0, # of connection points: 2
#     Edge 49, Type (0, 0), BuildingBlock: CIFDUS_clean_linker_0, # of connection points: 2
#     Edge 50, Type (0, 0), BuildingBlock: CIFDUS_clean_linker_0, # of connection points: 2
#     Edge 51, Type (0, 0), BuildingBlock: CIFDUS_clean_linker_0, # of connection points: 2
#     Edge 52, Type (0, 0), BuildingBlock: CIFDUS_clean_linker_0, # of connection points: 2
#     Edge 53, Type (0, 0), BuildingBlock: CIFDUS_clean_linker_0, # of connection points: 2
#     Edge 54, Type (0, 0), BuildingBlock: CIFDUS_clean_linker_0, # of connection points: 2
#     Edge 55, Type (0, 0), BuildingBlock: CIFDUS_clean_linker_0, # of connection points: 2
#     Edge 56, Type (0, 0), BuildingBlock: CIFDUS_clean_linker_0, # of connection points: 2
#     Edge 57, Type (0, 0), BuildingBlock: CIFDUS_clean_linker_0, # of connection points: 2
#     Edge 58, Type (0, 0), BuildingBlock: CIFDUS_clean_linker_0, # of connection points: 2
#     Edge 59, Type (0, 0), BuildingBlock: CIFDUS_clean_linker_0, # of connection points: 2
#     Edge 60, Type (0, 0), BuildingBlock: CIFDUS_clean_linker_0, # of connection points: 2
#     Edge 61, Type (0, 0), BuildingBlock: CIFDUS_clean_linker_0, # of connection points: 2
#     Edge 62, Type (0, 0), BuildingBlock: CIFDUS_clean_linker_0, # of connection points: 2
#     Edge 63, Type (0, 0), BuildingBlock: CIFDUS_clean_linker_0, # of connection points: 2
#     Edge 64, Type (0, 0), BuildingBlock: CIFDUS_clean_linker_0, # of connection points: 2
#     Edge 65, Type (0, 0), BuildingBlock: CIFDUS_clean_linker_0, # of connection points: 2
#     Edge 66, Type (0, 0), BuildingBlock: CIFDUS_clean_linker_0, # of connection points: 2
#     Edge 67, Type (0, 0), BuildingBlock: CIFDUS_clean_linker_0, # of connection points: 2
#     Edge 68, Type (0, 0), BuildingBlock: CIFDUS_clean_linker_0, # of connection points: 2
#     Edge 69, Type (0, 0), BuildingBlock: CIFDUS_clean_linker_0, # of connection points: 2
#     Edge 70, Type (0, 0), BuildingBlock: CIFDUS_clean_linker_0, # of connection points: 2
#     Edge 71, Type (0, 0), BuildingBlock: CIFDUS_clean_linker_0, # of connection points: 2
#     Edge 72, Type (0, 0), BuildingBlock: CIFDUS_clean_linker_0, # of connection points: 2
#     Edge 73, Type (0, 0), BuildingBlock: CIFDUS_clean_linker_0, # of connection points: 2
#     Edge 74, Type (0, 0), BuildingBlock: CIFDUS_clean_linker_0, # of connection points: 2
#     Edge 75, Type (0, 0), BuildingBlock: CIFDUS_clean_linker_0, # of connection points: 2
#     Edge 76, Type (0, 0), BuildingBlock: CIFDUS_clean_linker_0, # of connection points: 2
#     Edge 77, Type (0, 0), BuildingBlock: CIFDUS_clean_linker_0, # of connection points: 2
#     Edge 78, Type (0, 0), BuildingBlock: CIFDUS_clean_linker_0, # of connection points: 2
#     Edge 79, Type (0, 0), BuildingBlock: CIFDUS_clean_linker_0, # of connection points: 2
#     Edge 80, Type (0, 0), BuildingBlock: CIFDUS_clean_linker_0, # of connection points: 2
#     Edge 81, Type (0, 0), BuildingBlock: CIFDUS_clean_linker_0, # of connection points: 2
#     Edge 82, Type (0, 0), BuildingBlock: CIFDUS_clean_linker_0, # of connection points: 2
#     Edge 83, Type (0, 0), BuildingBlock: CIFDUS_clean_linker_0, # of connection points: 2
#     Edge 84, Type (0, 0), BuildingBlock: CIFDUS_clean_linker_0, # of connection points: 2
#     Edge 85, Type (0, 0), BuildingBlock: CIFDUS_clean_linker_0, # of connection points: 2
#     Edge 86, Type (0, 0), BuildingBlock: CIFDUS_clean_linker_0, # of connection points: 2
#     Edge 87, Type (0, 0), BuildingBlock: CIFDUS_clean_linker_0, # of connection points: 2
#     Edge 88, Type (0, 0), BuildingBlock: CIFDUS_clean_linker_0, # of connection points: 2
#     Edge 89, Type (0, 0), BuildingBlock: CIFDUS_clean_linker_0, # of connection points: 2
#     Edge 90, Type (0, 0), BuildingBlock: CIFDUS_clean_linker_0, # of connection points: 2
#     Edge 91, Type (0, 0), BuildingBlock: CIFDUS_clean_linker_0, # of connection points: 2
#     Edge 92, Type (0, 0), BuildingBlock: CIFDUS_clean_linker_0, # of connection points: 2
#     Edge 93, Type (0, 0), BuildingBlock: CIFDUS_clean_linker_0, # of connection points: 2
#     Edge 94, Type (0, 0), BuildingBlock: CIFDUS_clean_linker_0, # of connection points: 2
#     Edge 95, Type (0, 0), BuildingBlock: CIFDUS_clean_linker_0, # of connection points: 2
#     Edge 96, Type (0, 0), BuildingBlock: CIFDUS_clean_linker_0, # of connection points: 2
#     Edge 97, Type (0, 0), BuildingBlock: CIFDUS_clean_linker_0, # of connection points: 2
#     Edge 98, Type (0, 0), BuildingBlock: CIFDUS_clean_linker_0, # of connection points: 2
#     Edge 99, Type (0, 0), BuildingBlock: CIFDUS_clean_linker_0, # of connection points: 2
#     Edge 100, Type (0, 0), BuildingBlock: CIFDUS_clean_linker_0, # of connection points: 2
#     Edge 101, Type (0, 0), BuildingBlock: CIFDUS_clean_linker_0, # of connection points: 2
#     Edge 102, Type (0, 0), BuildingBlock: CIFDUS_clean_linker_0, # of connection points: 2
#     Edge 103, Type (0, 0), BuildingBlock: CIFDUS_clean_linker_0, # of connection points: 2
#     Edge 104, Type (0, 0), BuildingBlock: CIFDUS_clean_linker_0, # of connection points: 2
#     Edge 105, Type (0, 0), BuildingBlock: CIFDUS_clean_linker_0, # of connection points: 2
#     Edge 106, Type (0, 0), BuildingBlock: CIFDUS_clean_linker_0, # of connection points: 2
#     Edge 107, Type (0, 0), BuildingBlock: CIFDUS_clean_linker_0, # of connection points: 2
#     Edge 108, Type (0, 0), BuildingBlock: CIFDUS_clean_linker_0, # of connection points: 2
#     Edge 109, Type (0, 0), BuildingBlock: CIFDUS_clean_linker_0, # of connection points: 2
#     Edge 110, Type (0, 0), BuildingBlock: CIFDUS_clean_linker_0, # of connection points: 2
#     Edge 111, Type (0, 0), BuildingBlock: CIFDUS_clean_linker_0, # of connection points: 2
#     Edge 112, Type (0, 0), BuildingBlock: CIFDUS_clean_linker_0, # of connection points: 2
#     Edge 113, Type (0, 0), BuildingBlock: CIFDUS_clean_linker_0, # of connection points: 2
#     Edge 114, Type (0, 0), BuildingBlock: CIFDUS_clean_linker_0, # of connection points: 2
#     Edge 115, Type (0, 0), BuildingBlock: CIFDUS_clean_linker_0, # of connection points: 2
#     Edge 116, Type (0, 0), BuildingBlock: CIFDUS_clean_linker_0, # of connection points: 2
#     Edge 117, Type (0, 0), BuildingBlock: CIFDUS_clean_linker_0, # of connection points: 2
#     Edge 118, Type (0, 0), BuildingBlock: CIFDUS_clean_linker_0, # of connection points: 2
#     Edge 119, Type (0, 0), BuildingBlock: CIFDUS_clean_linker_0, # of connection points: 2
#     Edge 120, Type (0, 0), BuildingBlock: CIFDUS_clean_linker_0, # of connection points: 2
#     Edge 121, Type (0, 0), BuildingBlock: CIFDUS_clean_linker_0, # of connection points: 2
#     Edge 122, Type (0, 0), BuildingBlock: CIFDUS_clean_linker_0, # of connection points: 2
#     Edge 123, Type (0, 0), BuildingBlock: CIFDUS_clean_linker_0, # of connection points: 2
#     Edge 124, Type (0, 0), BuildingBlock: CIFDUS_clean_linker_0, # of connection points: 2
#     Edge 125, Type (0, 0), BuildingBlock: CIFDUS_clean_linker_0, # of connection points: 2
#     Edge 126, Type (0, 0), BuildingBlock: CIFDUS_clean_linker_0, # of connection points: 2
#     Edge 127, Type (0, 0), BuildingBlock: CIFDUS_clean_linker_0, # of connection points: 2
#     Edge 128, Type (0, 0), BuildingBlock: CIFDUS_clean_linker_0, # of connection points: 2
#     Edge 129, Type (0, 0), BuildingBlock: CIFDUS_clean_linker_0, # of connection points: 2
#     Edge 130, Type (0, 0), BuildingBlock: CIFDUS_clean_linker_0, # of connection points: 2
#     Edge 131, Type (0, 0), BuildingBlock: CIFDUS_clean_linker_0, # of connection points: 2
#     Edge 132, Type (0, 0), BuildingBlock: CIFDUS_clean_linker_0, # of connection points: 2
#     Edge 133, Type (0, 0), BuildingBlock: CIFDUS_clean_linker_0, # of connection points: 2
#     Edge 134, Type (0, 0), BuildingBlock: CIFDUS_clean_linker_0, # of connection points: 2
#     Edge 135, Type (0, 0), BuildingBlock: CIFDUS_clean_linker_0, # of connection points: 2
#     Edge 136, Type (0, 0), BuildingBlock: CIFDUS_clean_linker_0, # of connection points: 2
#     Edge 137, Type (0, 0), BuildingBlock: CIFDUS_clean_linker_0, # of connection points: 2
#     Edge 138, Type (0, 0), BuildingBlock: CIFDUS_clean_linker_0, # of connection points: 2
#     Edge 139, Type (0, 0), BuildingBlock: CIFDUS_clean_linker_0, # of connection points: 2
#     Edge 140, Type (0, 0), BuildingBlock: CIFDUS_clean_linker_0, # of connection points: 2
#     Edge 141, Type (0, 0), BuildingBlock: CIFDUS_clean_linker_0, # of connection points: 2
#     Edge 142, Type (0, 0), BuildingBlock: CIFDUS_clean_linker_0, # of connection points: 2
#     Edge 143, Type (0, 0), BuildingBlock: CIFDUS_clean_linker_0, # of connection points: 2
# Relax obj value: 0.424
# Max RMSD: 0.195
# Mean RMSD: 0.195
data_MOF--net-wmt--node1-BETDIP_clean_sbu_0--edge1-CIFDUS_clean_linker_0
_symmetry_space_group_name_H-M    P1
_symmetry_Int_Tables_number       1
_symmetry_cell_setting            triclinic
loop_
_symmetry_equiv_pos_as_xyz
'x, y, z'
_cell_length_a     69.86524
_cell_length_b     69.954552
_cell_length_c     31.051399
_cell_angle_alpha  90.009149
_cell_angle_beta   90.125773
_cell_angle_gamma 119.99951
loop_
_atom_site_label
_atom_site_type_symbol
_atom_site_fract_x
_atom_site_fract_y
_atom_site_fract_z
_atom_type_partial_charge
Tb0 Tb 0.06907 0.47956 0.24301 0.0
Tb1 Tb 0.03275 0.43769 0.20259 0.0
C2 C 0.08717 0.5133 0.29163 0.0
C3 C 0.08142 0.52172 0.33149 0.0
C4 C 0.08778 0.5442 0.33442 0.0
C5 C 0.08261 0.55279 0.37084 0.0
C6 C 0.07075 0.53921 0.406 0.0
C7 C 0.0644 0.51659 0.403 0.0
C8 C 0.06962 0.508 0.36641 0.0
C9 C 0.08425 0.45821 0.19451 0.0
C10 C 0.03484 0.43898 0.30427 0.0
C11 C 0.00981 0.4022 0.16264 0.0
C12 C 0.00894 0.39207 0.12119 0.0
C13 C 0.0201 0.40505 0.08543 0.0
C14 C 0.01815 0.39507 0.0456 0.0
C15 C 0.00507 0.37212 1.04132 0.0
C16 C 0.99367 0.35918 0.07689 0.0
C17 C 0.99585 0.36912 0.11691 0.0
C18 C 0.01971 0.46455 0.23488 0.0
C19 C 0.05947 0.48158 0.14357 0.0
O20 O 0.07606 0.51194 0.25664 0.0
O21 O 0.09048 0.49646 0.2951 0.0
O22 O 0.06678 0.44923 0.21782 0.0
O23 O 0.09541 0.47892 0.20574 0.0
O24 O 0.05093 0.45967 0.2998 0.0
O25 O 0.02612 0.42611 0.27009 0.0
O26 O 0.02633 0.40586 0.18791 0.0
O27 O 0.00604 0.41875 0.16182 0.0
O28 O 0.03755 0.46903 0.21731 0.0
O29 O 0.0079 0.44318 0.23471 0.0
O30 O 0.04648 0.45957 0.14468 0.0
O31 O 0.06863 0.49305 0.17944 0.0
H32 H 0.09691 0.55529 0.30831 0.0
H33 H 0.08827 0.57029 0.37154 0.0
H34 H 0.05504 0.50534 0.4287 0.0
H35 H 0.0643 0.49058 0.36543 0.0
H36 H 0.03005 0.42283 0.08817 0.0
H37 H 0.02658 0.40528 1.01797 0.0
H38 H 0.98305 0.34149 0.07358 0.0
H39 H 0.98701 0.35896 0.14433 0.0
Tb40 Tb 0.53626 0.58942 0.23671 0.0
Tb41 Tb 0.58123 0.6038 0.19864 0.0
C42 C 0.50285 0.57375 0.28648 0.0
C43 C 0.49605 0.56311 0.33043 0.0
C44 C 0.47384 0.54714 0.33841 0.0
C45 C 0.46672 0.5376 0.37962 0.0
C46 C 0.48157 0.54361 0.41473 0.0
C47 C 0.50396 0.5594 0.4063 0.0
C48 C 0.51102 0.569 0.3651 0.0
C49 C 0.55461 0.62748 0.19116 0.0
C50 C 0.57615 0.59638 0.30013 0.0
C51 C 0.62072 0.62884 0.17694 0.0
C52 C 0.63126 0.63914 0.13579 0.0
C53 C 0.63223 0.65875 0.12239 0.0
C54 C 0.63761 0.66591 0.08006 0.0
C55 C 0.6435 0.6544 0.05099 0.0
C56 C 0.64453 0.63589 0.0657 0.0
C57 C 0.63843 0.62832 0.10768 0.0
C58 C 0.55646 0.56144 0.1993 0.0
C59 C 0.5391 0.58367 0.13566 0.0
O60 O 0.5055 0.56242 0.25578 0.0
O61 O 0.51804 0.59473 0.28464 0.0
O62 O 0.56408 0.62047 0.2166 0.0
O63 O 0.53359 0.6137 0.19472 0.0
O64 O 0.55654 0.59487 0.29589 0.0
O65 O 0.58838 0.59903 0.26571 0.0
O66 O 0.60825 0.63582 0.19424 0.0
O67 O 0.61145 0.60734 0.17866 0.0
O68 O 0.55623 0.57435 0.22812 0.0
O69 O 0.57204 0.57217 0.17131 0.0
O70 O 0.56097 0.59754 0.13912 0.0
O71 O 0.52627 0.5762 0.17059 0.0
H72 H 0.46177 0.54222 0.3127 0.0
H73 H 0.44934 0.52586 0.38404 0.0
H74 H 0.51625 0.56439 0.43155 0.0
H75 H 0.52824 0.58118 0.36057 0.0
H76 H 0.62795 0.66806 0.14415 0.0
H77 H 0.63645 0.68004 0.06983 0.0
H78 H 0.64862 0.62632 1.0441 0.0
H79 H 0.63827 0.61337 0.11738 0.0
Tb80 Tb 0.41431 0.93549 0.23618 0.0
Tb81 Tb 0.40875 0.9725 0.19566 0.0
C82 C 0.42947 0.91799 0.28731 0.0
C83 C 0.44089 0.92349 0.33087 0.0
C84 C 0.46385 0.93827 0.33502 0.0
C85 C 0.47465 0.94255 0.37541 0.0
C86 C 0.46297 0.9322 0.4134 0.0
C87 C 0.44 0.91737 0.40905 0.0
C88 C 0.42922 0.91309 0.3687 0.0
C89 C 0.37788 0.92188 0.18761 0.0
C90 C 0.40778 0.97001 0.29721 0.0
C91 C 0.3932 0.99188 0.15256 0.0
C92 C 0.38079 0.98696 0.11219 0.0
C93 C 0.36979 0.9984 0.10149 0.0
C94 C 0.35831 0.99408 0.06259 0.0
C95 C 0.35761 0.97818 1.03384 0.0
C96 C 0.36826 0.96637 0.04544 0.0
C97 C 0.37977 0.97076 0.08422 0.0
C98 C 0.44882 0.98511 0.22728 0.0
C99 C 0.42665 0.94573 0.13763 0.0
O100 O 0.44055 0.93069 0.25485 0.0
O101 O 0.40844 0.91223 0.28541 0.0
O102 O 0.38693 0.93875 0.21233 0.0
O103 O 0.38754 0.91036 0.19531 0.0
O104 O 0.41135 0.95321 0.29251 0.0
O105 O 0.40495 0.97988 0.26326 0.0
O106 O 0.38266 0.97844 0.18441 0.0
O107 O 0.41368 0.99618 0.14917 0.0
O108 O 0.43465 0.96712 0.21145 0.0
O109 O 0.44054 0.99804 0.22276 0.0
O110 O 0.41694 0.95812 0.13867 0.0
O111 O 0.42928 0.93674 0.17344 0.0
H112 H 0.47364 0.94655 0.3069 0.0
H113 H 0.4922 0.95424 0.37679 0.0
H114 H 0.43023 0.90862 0.43685 0.0
H115 H 0.41167 0.90137 0.36712 0.0
H116 H 0.37033 0.01088 0.12294 0.0
H117 H 0.35041 0.00355 0.05461 0.0
H118 H 0.36857 0.95438 1.02383 0.0
H119 H 0.38806 0.96165 0.09207 0.0
Tb120 Tb 0.47156 0.05953 0.59618 0.0
Tb121 Tb 0.42832 0.02554 0.63585 0.0
C122 C 0.50502 0.0772 0.54725 0.0
C123 C 0.51147 0.07335 0.5032 0.0
C124 C 0.53243 0.07556 0.49676 0.0
C125 C 0.53934 0.07297 0.45557 0.0
C126 C 0.52552 0.06806 0.41911 0.0
C127 C 0.50431 0.06545 0.4259 0.0
C128 C 0.49743 0.06807 0.46713 0.0
C129 C 0.45296 0.07653 0.64837 0.0
C130 C 0.43166 0.02942 0.53258 0.0
C131 C 0.38916 0.00556 0.6625 0.0
C132 C 0.37974 1.00051 0.70574 0.0
C133 C 0.35682 0.98788 0.71186 0.0
C134 C 0.34803 0.98486 0.75342 0.0
C135 C 0.36217 0.99501 0.7886 0.0
C136 C 0.3851 0.00667 0.7824 0.0
C137 C 0.39383 0.00924 0.74132 0.0
C138 C 0.45585 0.01156 0.62619 0.0
C139 C 0.4718 0.04838 0.69498 0.0
O140 O 0.50204 0.06278 0.57728 0.0
O141 O 0.4903 0.08364 0.54973 0.0
O142 O 0.44299 0.06 0.62302 0.0
O143 O 0.47386 0.08581 0.63915 0.0
O144 O 0.45046 0.0481 0.53836 0.0
O145 O 0.42042 0.01728 0.56626 0.0
O146 O 0.4002 0.02661 0.65322 0.0
O147 O 0.39985 0.99552 0.65113 0.0
O148 O 0.4535 0.02437 0.60041 0.0
O149 O 0.44114 0.00497 0.65657 0.0
O150 O 0.4497 0.03892 0.69455 0.0
O151 O 0.48343 0.0551 0.65867 0.0
H152 H 0.5437 0.07965 0.5237 0.0
H153 H 0.55583 0.07542 0.45225 0.0
H154 H 0.49285 0.06127 0.39929 0.0
H155 H 0.48114 0.06611 0.47065 0.0
H156 H 0.34577 0.98083 0.68456 0.0
H157 H 0.3303 0.97536 0.75795 0.0
H158 H 0.39629 0.01406 0.80943 0.0
H159 H 0.41158 0.01849 0.73726 0.0
Tb160 Tb 0.9403 0.4115 0.60273 0.0
Tb161 Tb 0.97184 0.39819 0.63746 0.0
C162 C 0.92205 0.42711 0.55404 0.0
C163 C 0.92546 0.43723 0.50963 0.0
C164 C 0.92182 0.45505 0.50233 0.0
C165 C 0.92403 0.46428 0.46083 0.0
C166 C 0.93002 0.45607 0.42479 0.0
C167 C 0.93402 0.43841 0.4325 0.0
C168 C 0.93171 0.42914 0.47398 0.0
C169 C 0.92173 0.37358 0.64894 0.0
C170 C 0.97144 0.40345 0.53625 0.0
C171 C 0.98615 0.37387 0.66341 0.0
C172 C 0.98493 0.36474 0.70667 0.0
C173 C 0.96436 0.35072 0.72575 0.0
C174 C 0.96301 0.34509 0.76896 0.0
C175 C 0.98218 0.35365 0.79442 0.0
C176 C 0.00289 0.36674 0.77468 0.0
C177 C 0.00423 0.37206 0.73109 0.0
C178 C 0.98901 0.44047 0.63694 0.0
C179 C 0.95057 0.41836 0.70225 0.0
O180 O 0.93673 0.43859 0.58368 0.0
O181 O 0.91573 0.40604 0.55683 0.0
O182 O 0.93758 0.38053 0.62212 0.0
O183 O 0.91448 0.38742 0.64721 0.0
O184 O 0.95317 0.40442 0.54288 0.0
O185 O 0.98261 0.40203 0.56945 0.0
O186 O 0.96731 0.36648 0.64302 0.0
O187 O 0.99858 0.3953 0.66027 0.0
O188 O 0.97562 0.42755 0.60833 0.0
O189 O 0.99437 0.42984 0.66413 0.0
O190 O 0.95861 0.40462 0.69777 0.0
O191 O 0.94457 0.42557 0.66791 0.0
H192 H 0.91691 0.46172 0.52883 0.0
H193 H 0.92047 0.47757 0.45699 0.0
H194 H 0.93909 0.43166 0.40645 0.0
H195 H 0.93468 0.4155 0.478 0.0
H196 H 0.94917 0.34451 0.70771 0.0
H197 H 0.94684 0.33439 0.78252 0.0
H198 H 0.01806 0.37396 0.79318 0.0
H199 H 0.02028 0.38291 0.71708 0.0
Tb200 Tb 0.58967 0.52624 0.60546 0.0
Tb201 Tb 0.5987 0.57024 0.64617 0.0
C202 C 0.57258 0.49282 0.55593 0.0
C203 C 0.55908 0.48551 0.51468 0.0
C204 C 0.53718 0.4815 0.51283 0.0
C205 C 0.52413 0.473 0.47526 0.0
C206 C 0.5323 0.46797 0.43786 0.0
C207 C 0.55438 0.47237 0.43957 0.0
C208 C 0.56744 0.4809 0.47721 0.0
C209 C 0.62721 0.5472 0.65136 0.0
C210 C 0.59692 0.56773 0.54503 0.0
C211 C 0.61479 0.60666 0.68427 0.0
C212 C 0.62437 0.61683 0.7256 0.0
C213 C 0.63652 0.63991 0.72879 0.0
C214 C 0.6453 0.64998 0.76837 0.0
C215 C 0.64185 0.63692 0.80485 0.0
C216 C 0.62934 0.61387 0.80176 0.0
C217 C 0.62066 0.60384 0.76229 0.0
C218 C 0.55802 0.54422 0.61549 0.0
C219 C 0.58005 0.52649 0.70585 0.0
O220 O 0.563 0.49475 0.59065 0.0
O221 O 0.59338 0.50857 0.55374 0.0
O222 O 0.61869 0.55623 0.62832 0.0
O223 O 0.61684 0.52626 0.64169 0.0
O224 O 0.5907 0.5465 0.54902 0.0
O225 O 0.60328 0.58099 0.57893 0.0
O226 O 0.62654 0.60091 0.66031 0.0
O227 O 0.59377 0.59169 0.68498 0.0
O228 O 0.57146 0.53952 0.63162 0.0
O229 O 0.56721 0.56547 0.61965 0.0
O230 O 0.59101 0.54858 0.70355 0.0
O231 O 0.57548 0.51399 0.67041 0.0
H232 H 0.52989 0.48462 0.54074 0.0
H233 H 0.5075 0.4704 0.47573 0.0
H234 H 0.56148 0.46861 0.41218 0.0
H235 H 0.58407 0.48348 0.47725 0.0
H236 H 0.63891 0.65007 0.7008 0.0
H237 H 0.65469 0.66782 0.77056 0.0
H238 H 0.62617 0.60365 0.83006 0.0
H239 H 0.61085 0.58602 0.76053 0.0
Tb240 Tb 0.97001 0.5651 0.1357 0.0
Tb241 Tb 0.93378 0.52124 0.09965 0.0
C242 C 0.99257 0.60141 0.17365 0.0
C243 C 0.99452 0.61132 0.21595 0.0
C244 C 0.00787 0.63422 0.22105 0.0
C245 C 0.01087 0.64374 0.26185 0.0
C246 C 1.0 0.63046 0.29755 0.0
C247 C 0.98676 0.60755 0.29222 0.0
C248 C 0.98416 0.59804 0.25174 0.0
C249 C 0.98339 0.53785 0.10761 0.0
C250 C 0.94404 0.52266 0.1996 0.0
C251 C 0.9166 0.48735 0.05125 0.0
C252 C 0.92134 0.48104 1.0076 0.0
C253 C 0.91839 0.45981 1.00064 0.0
C254 C 0.92236 0.45338 0.95993 0.0
C255 C 0.9295 0.46797 0.92444 0.0
C256 C 0.9328 0.4894 0.9319 0.0
C257 C 0.92871 0.49574 0.97252 0.0
C258 C 0.91876 0.54374 0.14415 0.0
C259 C 0.96592 0.56177 1.03507 0.0
O260 O 0.97448 0.59606 0.15197 0.0
O261 O 0.99802 0.58605 0.17196 0.0
O262 O 0.96562 0.53355 0.12525 0.0
O263 O 0.99495 0.5592 0.10515 0.0
O264 O 0.9566 0.54458 0.19496 0.0
O265 O 0.93463 0.5095 0.16553 0.0
O266 O 0.93073 0.49066 0.08215 0.0
O267 O 0.90987 0.50185 0.05287 0.0
O268 O 0.93586 0.55198 0.11987 0.0
O269 O 0.9077 0.52254 0.1369 0.0
O270 O 0.9505 0.5409 1.04133 0.0
O271 O 0.97495 0.57543 0.06795 0.0
H272 H 0.01619 0.64465 0.19362 0.0
H273 H 0.02148 0.66141 0.26552 0.0
H274 H 0.97888 0.59693 0.31966 0.0
H275 H 0.97446 0.58031 0.24853 0.0
H276 H 0.91275 0.44799 1.02677 0.0
H277 H 0.91931 0.4367 0.95617 0.0
H278 H 0.93871 0.50152 0.90633 0.0
H279 H 0.93126 0.51221 0.97636 0.0
Tb280 Tb 0.42758 0.40512 0.14766 0.0
Tb281 Tb 0.46893 0.4115 0.10367 0.0
C282 C 0.3875 0.38843 0.16878 0.0
C283 C 0.37465 0.38282 0.20844 0.0
C284 C 0.35251 0.37779 0.20715 0.0
C285 C 0.34083 0.37477 0.24548 0.0
C286 C 0.35121 0.37635 0.28501 0.0
C287 C 0.37309 0.38065 0.28602 0.0
C288 C 0.38485 0.3842 0.24804 0.0
C289 C 0.45671 0.44589 0.14 0.0
C290 C 0.4714 0.42245 0.2043 0.0
C291 C 0.50133 0.42474 0.05203 0.0
C292 C 0.50829 0.43574 1.00848 0.0
C293 C 0.53049 0.45197 1.0013 0.0
C294 C 0.5378 0.46204 0.96059 0.0
C295 C 0.52316 0.45628 0.92521 0.0
C296 C 0.50078 0.44019 0.93278 0.0
C297 C 0.4935 0.43011 0.97355 0.0
C298 C 0.44876 0.37534 0.15467 0.0
C299 C 0.42965 0.40691 1.04409 0.0
O300 O 0.39696 0.37687 0.15977 0.0
O301 O 0.40083 0.40948 0.16289 0.0
O302 O 0.45347 0.43124 0.11185 0.0
O303 O 0.44264 0.43797 0.17149 0.0
O304 O 0.44919 0.4113 0.20534 0.0
O305 O 0.48231 0.42655 0.16703 0.0
O306 O 0.50051 0.4366 0.08386 0.0
O307 O 0.48484 0.4043 0.05374 0.0
O308 O 0.43986 0.38375 0.13112 0.0
O309 O 0.46958 0.38571 0.14457 0.0
O310 O 0.44734 0.40474 0.04671 0.0
O311 O 0.42013 0.40853 0.07967 0.0
H312 H 0.34455 0.37693 0.17665 0.0
H313 H 0.32406 0.37181 0.24439 0.0
H314 H 0.38143 0.38238 0.31647 0.0
H315 H 0.4021 0.38887 0.2498 0.0
H316 H 0.54241 0.45673 1.02727 0.0
H317 H 0.55516 0.474 0.95671 0.0
H318 H 0.48868 0.43537 0.90718 0.0
H319 H 0.47626 0.4178 0.97759 0.0
Tb320 Tb 0.5988 0.02915 0.13571 0.0
Tb321 Tb 0.58757 0.06302 0.09763 0.0
C322 C 0.61626 0.01115 0.17757 0.0
C323 C 0.62678 0.01457 0.21981 0.0
C324 C 0.62624 0.02947 0.24917 0.0
C325 C 0.63552 0.03206 0.29001 0.0
C326 C 0.64574 0.0199 0.30218 0.0
C327 C 0.64594 0.00475 0.2726 0.0
C328 C 0.63663 0.0022 0.23166 0.0
C329 C 0.55771 0.0128 0.10611 0.0
C330 C 0.57865 0.05259 0.19714 0.0
C331 C 0.5685 0.07797 0.05008 0.0
C332 C 0.55539 0.07181 1.00846 0.0
C333 C 0.53275 0.05563 1.00749 0.0
C334 C 0.52005 0.05116 0.96955 0.0
C335 C 0.52936 0.06276 0.93092 0.0
C336 C 0.55212 0.07869 0.93173 0.0
C337 C 0.56485 0.08318 0.96978 0.0
C338 C 0.62498 0.08098 0.14439 0.0
C339 C 0.59823 0.03201 1.03431 0.0
O340 O 0.62696 0.02677 0.14911 0.0
O341 O 0.5951 0.00448 0.17842 0.0
O342 O 0.57048 0.0311 0.12264 0.0
O343 O 0.568 0.00167 0.10897 0.0
O344 O 0.59021 0.04213 0.19358 0.0
O345 O 0.57356 0.06051 0.16253 0.0
O346 O 0.55927 0.06513 0.08346 0.0
O347 O 0.58981 0.08499 0.04837 0.0
O348 O 0.61738 0.06366 0.12068 0.0
O349 O 0.61343 0.09039 0.13489 0.0
O350 O 0.5917 0.04668 1.04005 0.0
O351 O 0.60371 0.02375 0.06751 0.0
H352 H 0.61854 0.03903 0.24065 0.0
H353 H 0.63428 0.04333 0.31218 0.0
H354 H 0.65348 0.99497 0.2808 0.0
H355 H 0.63702 0.99049 0.20936 0.0
H356 H 0.52462 0.04653 1.03637 0.0
H357 H 0.50279 0.03851 0.97067 0.0
H358 H 0.56007 0.08828 0.90323 0.0
H359 H 0.58208 0.09594 0.96908 0.0
Tb360 Tb 0.57924 0.97688 0.69443 0.0
Tb361 Tb 0.53408 0.94578 0.73163 0.0
C362 C 0.61877 0.99509 0.67018 0.0
C363 C 0.62872 0.99913 0.62738 0.0
C364 C 0.6517 0.01195 0.62201 0.0
C365 C 0.66103 0.01387 0.58126 0.0
C366 C 0.64732 0.00288 0.546 0.0
C367 C 0.62432 0.9912 0.55121 0.0
C368 C 0.61509 0.98944 0.59153 0.0
C369 C 0.55397 0.99381 0.69934 0.0
C370 C 0.53711 0.9556 0.63155 0.0
C371 C 0.49966 0.93059 0.77804 0.0
C372 C 0.49237 0.93499 0.82101 0.0
C373 C 0.48998 0.95362 0.82788 0.0
C374 C 0.48148 0.95665 0.86687 0.0
C375 C 0.47466 0.94101 0.90057 0.0
C376 C 0.47734 0.92249 0.89382 0.0
C377 C 0.48599 0.91955 0.85483 0.0
C378 C 0.55103 0.92567 0.68339 0.0
C379 C 0.57376 0.97381 0.79755 0.0
O380 O 0.60716 0.97426 0.68121 0.0
O381 O 0.60855 0.00593 0.67899 0.0
O382 O 0.55478 0.98074 0.72674 0.0
O383 O 0.56858 0.99861 0.66933 0.0
O384 O 0.55893 0.96344 0.63492 0.0
O385 O 0.5244 0.95049 0.66648 0.0
O386 O 0.50443 0.94509 0.74711 0.0
O387 O 0.51316 0.92263 0.77804 0.0
O388 O 0.56165 0.94235 0.70819 0.0
O389 O 0.53019 0.9181 0.69116 0.0
O390 O 0.55411 0.9562 0.79107 0.0
O391 O 0.58625 0.98512 0.76427 0.0
H392 H 0.66239 0.02002 0.64936 0.0
H393 H 0.67879 0.02351 0.57738 0.0
H394 H 0.61345 0.98336 0.52392 0.0
H395 H 0.5973 0.98023 0.59478 0.0
H396 H 0.49434 0.96582 0.80284 0.0
H397 H 0.48025 0.97138 0.87037 0.0
H398 H 0.47212 0.90979 0.91816 0.0
H399 H 0.48721 0.90482 0.85078 0.0
Tb400 Tb 0.02644 0.59966 0.69945 0.0
Tb401 Tb 0.05906 0.58879 0.73851 0.0
C402 C 0.00848 0.62119 0.67463 0.0
C403 C 0.00354 0.62733 0.63237 0.0
C404 C 0.01942 0.64657 0.61171 0.0
C405 C 0.0158 0.65141 0.57014 0.0
C406 C 0.99606 0.63733 0.54818 0.0
C407 C 0.97967 0.61858 0.56985 0.0
C408 C 0.98334 0.6137 0.61157 0.0
C409 C 0.01082 0.55779 0.70325 0.0
C410 C 0.04927 0.57937 0.63919 0.0
C411 C 0.07742 0.57351 0.78743 0.0
C412 C 0.07283 0.56179 0.83024 0.0
C413 C 0.05181 0.54396 0.8407 0.0
C414 C 0.04828 0.53197 0.87931 0.0
C415 C 0.06561 0.53735 0.90908 0.0
C416 C 0.08651 0.55558 0.89892 0.0
C417 C 0.09004 0.56751 0.86019 0.0
C418 C 0.0765 0.62607 0.69048 0.0
C419 C 0.02756 0.59659 0.80225 0.0
O420 O 0.0294 0.63013 0.68468 0.0
O421 O 0.99741 0.60028 0.68484 0.0
O422 O 0.02361 0.57137 0.73185 0.0
O423 O 0.00556 0.56752 0.67372 0.0
O424 O 0.04026 0.59245 0.64006 0.0
O425 O 0.05526 0.57364 0.67541 0.0
O426 O 0.0642 0.56261 0.75539 0.0
O427 O 0.08267 0.59434 0.78716 0.0
O428 O 0.06032 0.61867 0.71648 0.0
O429 O 0.0849 0.61328 0.69461 0.0
O430 O 0.04599 0.59592 0.79712 0.0
O431 O 0.01638 0.59719 0.76815 0.0
H432 H 0.03488 0.65777 0.62737 0.0
H433 H 0.02886 0.66592 0.55502 0.0
H434 H 0.9644 0.60695 0.55404 0.0
H435 H 0.97064 0.59885 0.6269 0.0
H436 H 0.03806 0.53902 0.81871 0.0
H437 H 0.03184 0.51841 0.88578 0.0
H438 H 0.10043 0.5603 0.9203 0.0
H439 H 0.10646 0.58101 0.85323 0.0
Tb440 Tb 0.40816 0.43178 0.69654 0.0
Tb441 Tb 0.41761 0.47564 0.73793 0.0
C442 C 0.39152 0.3972 0.65222 0.0
C443 C 0.38081 0.39113 0.61008 0.0
C444 C 0.37457 0.40492 0.58944 0.0
C445 C 0.36374 0.39892 0.54989 0.0
C446 C 0.35959 0.37925 0.52918 0.0
C447 C 0.36677 0.3659 0.54972 0.0
C448 C 0.377 0.37166 0.59004 0.0
C449 C 0.44897 0.45728 0.72613 0.0
C450 C 0.42641 0.47602 0.63768 0.0
C451 C 0.4342 0.50852 0.78894 0.0
C452 C 0.44531 0.51473 0.83292 0.0
C453 C 0.46844 0.52416 0.83767 0.0
C454 C 0.47896 0.53136 0.87827 0.0
C455 C 0.46683 0.52948 0.91596 0.0
C456 C 0.44368 0.52003 0.91101 0.0
C457 C 0.43319 0.51288 0.87047 0.0
C458 C 0.37963 0.45394 0.69317 0.0
C459 C 0.40963 0.4334 0.7974 0.0
O460 O 0.38064 0.40109 0.68211 0.0
O461 O 0.41255 0.41207 0.6515 0.0
O462 O 0.43572 0.46243 0.71055 0.0
O463 O 0.43958 0.43599 0.72175 0.0
O464 O 0.4151 0.45396 0.64012 0.0
O465 O 0.4316 0.48851 0.67321 0.0
O466 O 0.44505 0.50585 0.75725 0.0
O467 O 0.41294 0.49403 0.78677 0.0
O468 O 0.3885 0.44561 0.71697 0.0
O469 O 0.39082 0.47525 0.6991 0.0
O470 O 0.41563 0.45462 0.79379 0.0
O471 O 0.4038 0.42034 0.7632 0.0
H472 H 0.37792 0.42028 0.60414 0.0
H473 H 0.35836 0.40967 0.53639 0.0
H474 H 0.36489 0.35111 0.53472 0.0
H475 H 0.38213 0.36103 0.60538 0.0
H476 H 0.47857 0.52618 0.80979 0.0
H477 H 0.49668 0.53823 0.88006 0.0
H478 H 0.4335 0.51851 0.93847 0.0
H479 H 0.41549 0.50614 0.86853 0.0
Tb480 Tb 0.73774 0.81014 0.57531 0.0
Tb481 Tb 0.70161 0.76634 0.53941 0.0
C482 C 0.75717 0.84399 0.62296 0.0
C483 C 0.75251 0.851 0.66565 0.0
C484 C 0.73087 0.84503 0.67827 0.0
C485 C 0.7269 0.85293 0.71709 0.0
C486 C 0.7444 0.86701 0.74487 0.0
C487 C 0.766 0.87245 0.73261 0.0
C488 C 0.76996 0.86463 0.69362 0.0
C489 C 0.75231 0.78716 0.53068 0.0
C490 C 0.70345 0.7709 0.63991 0.0
C491 C 0.68126 0.72997 0.50114 0.0
C492 C 0.68433 0.72163 0.46032 0.0
C493 C 0.70386 0.73406 0.43735 0.0
C494 C 0.70638 0.72727 0.39685 0.0
C495 C 0.68876 0.7086 0.37714 0.0
C496 C 0.66931 0.69576 0.4011 0.0
C497 C 0.66724 0.70214 0.44266 0.0
C498 C 0.6879 0.79368 0.56632 0.0
C499 C 0.72754 0.80888 0.47607 0.0
O500 O 0.74405 0.842 0.59086 0.0
O501 O 0.76186 0.82799 0.623 0.0
O502 O 0.73567 0.77937 0.55599 0.0
O503 O 0.76288 0.8085 0.53528 0.0
O504 O 0.71932 0.79158 0.63346 0.0
O505 O 0.69494 0.75685 0.60743 0.0
O506 O 0.69667 0.73457 0.53012 0.0
O507 O 0.67616 0.74555 0.49757 0.0
O508 O 0.70588 0.79787 0.54985 0.0
O509 O 0.67585 0.77231 0.56592 0.0
O510 O 0.71585 0.78684 0.48014 0.0
O511 O 0.73586 0.82193 0.51053 0.0
H512 H 0.71697 0.83443 0.65781 0.0
H513 H 0.70999 0.84793 0.72535 0.0
H514 H 0.77999 0.88332 0.75255 0.0
H515 H 0.78682 0.86959 0.68494 0.0
H516 H 0.71688 0.74946 0.45013 0.0
H517 H 0.72198 0.73718 0.38065 0.0
H518 H 0.6552 0.68146 0.38726 0.0
H519 H 0.65195 0.69245 0.46014 0.0
Tb520 Tb 0.20057 0.92312 0.5709 0.0
Tb521 Tb 0.24292 0.93326 0.52685 0.0
C522 C 0.16788 0.90887 0.62169 0.0
C523 C 0.16107 0.89831 0.66534 0.0
C524 C 0.1385 0.88485 0.67491 0.0
C525 C 0.13145 0.87511 0.71583 0.0
C526 C 0.14676 0.87844 0.74884 0.0
C527 C 0.16946 0.89178 0.73889 0.0
C528 C 0.17649 0.90154 0.69788 0.0
C529 C 0.21866 0.95948 0.52013 0.0
C530 C 0.24181 0.92975 0.62961 0.0
C531 C 0.28123 0.95542 0.4972 0.0
C532 C 0.28947 0.96758 0.45674 0.0
C533 C 0.28136 0.98097 0.44106 0.0
C534 C 0.28716 0.99025 0.40018 0.0
C535 C 0.30067 0.98576 0.37345 0.0
C536 C 0.30924 0.97276 0.39001 0.0
C537 C 0.30387 0.96399 0.4314 0.0
C538 C 0.21644 0.89131 0.53748 0.0
C539 C 0.1985 0.9121 0.47176 0.0
O540 O 0.16965 0.89701 0.59084 0.0
O541 O 0.18374 0.9296 0.61987 0.0
O542 O 0.2285 0.95268 0.54485 0.0
O543 O 0.19769 0.94678 0.52693 0.0
O544 O 0.22269 0.92952 0.62759 0.0
O545 O 0.25226 0.93016 0.59359 0.0
O546 O 0.27254 0.96322 0.52434 0.0
O547 O 0.26927 0.93401 0.49303 0.0
O548 O 0.21881 0.90643 0.56319 0.0
O549 O 0.23099 0.89966 0.50688 0.0
O550 O 0.22035 0.92604 0.47064 0.0
O551 O 0.1877 0.90627 0.5091 0.0
H552 H 0.12617 0.88203 0.65069 0.0
H553 H 0.11387 0.86533 0.72178 0.0
H554 H 0.18195 0.89462 0.76271 0.0
H555 H 0.194 0.91168 0.69176 0.0
H556 H 0.27027 0.98405 0.46008 0.0
H557 H 0.28077 1.00071 0.38956 0.0
H558 H 0.31916 0.96822 0.37052 0.0
H559 H 0.31009 0.95347 0.44279 0.0
Tb560 Tb 0.07804 0.26849 0.57985 0.0
Tb561 Tb 0.07538 0.30461 0.53362 0.0
C562 C 0.09007 0.24891 0.63293 0.0
C563 C 0.10263 0.25451 0.67478 0.0
C564 C 0.1174 0.27648 0.68699 0.0
C565 C 0.13015 0.28134 0.72502 0.0
C566 C 0.12859 0.2644 0.75225 0.0
C567 C 0.11341 0.24242 0.74016 0.0
C568 C 0.10071 0.2376 0.7021 0.0
C569 C 0.04178 0.2537 0.53014 0.0
C570 C 0.07585 0.30676 0.63515 0.0
C571 C 0.06539 0.32877 0.49078 0.0
C572 C 0.05509 0.32961 0.45056 0.0
C573 C 0.04588 0.34336 0.44793 0.0
C574 C 0.03634 0.34487 0.40953 0.0
C575 C 0.03537 0.33212 0.37392 0.0
C576 C 0.04508 0.31876 0.37645 0.0
C577 C 0.05481 0.31742 0.41463 0.0
C578 C 0.11508 0.31668 0.56656 0.0
C579 C 0.08936 0.27391 0.48026 0.0
O580 O 0.10134 0.25947 0.59871 0.0
O581 O 0.07037 0.24698 0.63306 0.0
O582 O 0.05093 0.27177 0.5518 0.0
O583 O 0.05054 0.24217 0.54341 0.0
O584 O 0.0793 0.28983 0.63403 0.0
O585 O 0.07149 0.31405 0.59924 0.0
O586 O 0.05227 0.3143 0.51906 0.0
O587 O 0.08445 0.32952 0.48773 0.0
O588 O 0.10111 0.29853 0.5507 0.0
O589 O 0.10621 0.32908 0.5647 0.0
O590 O 0.08143 0.28778 0.47864 0.0
O591 O 0.09143 0.26573 0.51767 0.0
H592 H 0.11931 0.28996 0.66681 0.0
H593 H 0.14124 0.29849 0.73308 0.0
H594 H 0.11172 0.22879 0.7595 0.0
H595 H 0.0896 0.2205 0.69361 0.0
H596 H 0.0462 0.35302 0.4755 0.0
H597 H 0.02943 0.35569 0.40779 0.0
H598 H 0.04526 0.30944 0.34873 0.0
H599 H 0.06215 0.30697 0.41603 0.0
Tb600 Tb 0.14371 0.39855 0.93628 0.0
Tb601 Tb 0.10116 0.36271 0.97706 0.0
C602 C 0.17632 0.41785 0.88539 0.0
C603 C 0.18308 0.41364 0.84173 0.0
C604 C 0.20465 0.41737 0.83525 0.0
C605 C 0.21178 0.41455 0.79435 0.0
C606 C 0.19762 0.40793 0.75811 0.0
C607 C 0.17583 0.40379 0.76497 0.0
C608 C 0.16872 0.4066 0.8059 0.0
C609 C 0.12092 0.4132 0.98241 0.0
C610 C 0.10337 0.36167 0.87617 0.0
C611 C 0.06552 0.34328 1.01767 0.0
C612 C 0.05709 0.34799 0.05673 0.0
C613 C 0.07173 0.36376 0.08598 0.0
C614 C 0.0639 0.3675 0.1243 0.0
C615 C 0.04124 0.35543 0.13415 0.0
C616 C 0.02652 0.34014 0.10389 0.0
C617 C 0.03441 0.33652 0.0653 0.0
C618 C 0.12826 0.34908 0.94882 0.0
C619 C 0.145 0.39054 1.0365 0.0
O620 O 0.17549 0.40518 0.91733 0.0
O621 O 0.15992 0.42198 0.88715 0.0
O622 O 0.11303 0.3961 0.95823 0.0
O623 O 0.14212 0.42415 0.97543 0.0
O624 O 0.1241 0.37806 0.87998 0.0
O625 O 0.09031 0.35418 0.91017 0.0
O626 O 0.06893 0.3567 0.98547 0.0
O627 O 0.08181 0.3393 1.02331 0.0
O628 O 0.13268 0.3674 0.9639 0.0
O629 O 0.10698 0.33656 0.95248 0.0
O630 O 0.12293 0.37849 1.03396 0.0
O631 O 0.15732 0.39846 1.00095 0.0
H632 H 0.21623 0.42283 0.86191 0.0
H633 H 0.22869 0.41819 0.79102 0.0
H634 H 0.16408 0.39825 0.73864 0.0
H635 H 0.15195 0.40341 0.80934 0.0
H636 H 0.08927 0.37291 0.07959 0.0
H637 H 0.07586 0.37903 0.14709 0.0
H638 H 0.009 0.3305 0.11059 0.0
H639 H 0.0229 0.32442 1.04265 0.0
Tb640 Tb 0.60039 0.74146 0.927 0.0
Tb641 Tb 0.63862 0.73941 0.96777 0.0
C642 C 0.57986 0.75309 0.87558 0.0
C643 C 0.58413 0.76397 0.83179 0.0
C644 C 0.59855 0.78686 0.82639 0.0
C645 C 0.60185 0.797 0.78564 0.0
C646 C 0.59071 0.78471 0.74859 0.0
C647 C 0.57612 0.76182 0.75424 0.0
C648 C 0.57292 0.75169 0.79494 0.0
C649 C 0.58833 0.70589 0.97631 0.0
C650 C 0.63617 0.73729 0.86661 0.0
C651 C 0.66358 0.72893 1.00621 0.0
C652 C 0.6679 0.72263 0.04806 0.0
C653 C 0.65856 0.72573 0.08535 0.0
C654 C 0.66487 0.7219 0.12546 0.0
C655 C 0.68064 0.71513 0.12845 0.0
C656 C 0.68941 0.71128 0.09118 0.0
C657 C 0.68296 0.71497 0.05095 0.0
C658 C 0.64902 0.77823 0.93347 0.0
C659 C 0.60994 0.75462 1.02597 0.0
O660 O 0.59198 0.76518 0.9079 0.0
O661 O 0.57647 0.73287 0.87773 0.0
O662 O 0.60538 0.7152 0.95205 0.0
O663 O 0.5758 0.71411 0.9665 0.0
O664 O 0.61929 0.74076 0.87043 0.0
O665 O 0.64534 0.73403 0.90101 0.0
O666 O 0.64533 0.71461 0.98663 0.0
O667 O 0.66733 0.74919 1.00343 0.0
O668 O 0.63159 0.76451 0.95186 0.0
O669 O 0.66188 0.76983 0.9343 0.0
O670 O 0.62439 0.7473 1.02521 0.0
O671 O 0.59995 0.75561 0.98999 0.0
H672 H 0.6073 0.79711 0.85375 0.0
H673 H 0.61341 0.81453 0.78327 0.0
H674 H 0.56675 0.75161 0.72725 0.0
H675 H 0.5614 0.73414 0.79761 0.0
H676 H 0.647 0.73176 0.08346 0.0
H677 H 0.65819 0.72512 0.15425 0.0
H678 H 0.70176 0.70627 0.09329 0.0
H679 H 0.69026 0.71255 1.02218 0.0
Tb680 Tb 0.2577 0.85853 0.92893 0.0
Tb681 Tb 0.2635 0.89971 0.97516 0.0
C682 C 0.24287 0.82637 0.8764 0.0
C683 C 0.2309 0.82007 0.83365 0.0
C684 C 0.214 0.79816 0.82616 0.0
C685 C 0.20289 0.79158 0.78612 0.0
C686 C 0.20824 0.80669 0.75185 0.0
C687 C 0.22499 0.82878 0.75981 0.0
C688 C 0.23611 0.83532 0.79985 0.0
C689 C 0.29414 0.87879 0.97818 0.0
C690 C 0.26342 0.90058 0.87333 0.0
C691 C 0.27735 0.93528 1.01532 0.0
C692 C 0.2885 0.94709 0.0545 0.0
C693 C 0.2881 0.93575 0.09191 0.0
C694 C 0.2976 0.94747 0.1297 0.0
C695 C 0.30742 0.97053 0.13034 0.0
C696 C 0.30769 0.98185 0.09301 0.0
C697 C 0.29853 0.97016 0.055 0.0
C698 C 0.22347 0.87335 0.94128 0.0
C699 C 0.2457 0.85465 1.02926 0.0
O700 O 0.23182 0.82722 0.90968 0.0
O701 O 0.26352 0.84253 0.87719 0.0
O702 O 0.28562 0.88826 0.95638 0.0
O703 O 0.28443 0.85828 0.96564 0.0
O704 O 0.25919 0.8799 0.87458 0.0
O705 O 0.26762 0.91235 0.90906 0.0
O706 O 0.28932 0.93173 0.98752 0.0
O707 O 0.25739 0.9183 1.01984 0.0
O708 O 0.23727 0.86891 0.95663 0.0
O709 O 0.23207 0.8944 0.94758 0.0
O710 O 0.25579 0.87672 1.03051 0.0
O711 O 0.2428 0.84386 0.99196 0.0
H712 H 0.20951 0.78593 0.85131 0.0
H713 H 0.19043 0.77442 0.78183 0.0
H714 H 0.22954 0.84121 0.73509 0.0
H715 H 0.24889 0.85234 0.80422 0.0
H716 H 0.28018 0.9179 0.09208 0.0
H717 H 0.29679 0.93851 0.15875 0.0
H718 H 0.31477 0.99961 0.09344 0.0
H719 H 0.29875 0.97907 1.02628 0.0
Tb720 Tb 0.64278 0.90029 0.4711 0.0
Tb721 Tb 0.60563 0.85887 0.43011 0.0
C722 C 0.66641 0.93671 0.50721 0.0
C723 C 0.66671 0.94948 0.54428 0.0
C724 C 0.6508 0.93983 0.57662 0.0
C725 C 0.65319 0.95136 0.61462 0.0
C726 C 0.6718 0.97238 0.6208 0.0
C727 C 0.68689 0.98253 0.58715 0.0
C728 C 0.68425 0.97112 0.54885 0.0
C729 C 0.65419 0.87113 0.44374 0.0
C730 C 0.61294 0.85786 0.5307 0.0
C731 C 0.58546 0.82609 0.37985 0.0
C732 C 0.59064 0.81876 0.33792 0.0
C733 C 0.61238 0.82448 0.32658 0.0
C734 C 0.61678 0.81649 0.28823 0.0
C735 C 0.59962 0.80249 0.25967 0.0
C736 C 0.57791 0.79717 0.2709 0.0
C737 C 0.57353 0.80513 0.30931 0.0
C738 C 0.59261 0.88343 0.47469 0.0
C739 C 0.64358 0.89776 0.3706 0.0
O740 O 0.65188 0.93352 0.47726 0.0
O741 O 0.6676 0.91897 0.51568 0.0
O742 O 0.63627 0.86797 0.45866 0.0
O743 O 0.66738 0.89227 0.44607 0.0
O744 O 0.62564 0.87986 0.52851 0.0
O745 O 0.60512 0.84556 0.49505 0.0
O746 O 0.59676 0.82628 0.41381 0.0
O747 O 0.58287 0.84344 0.37904 0.0
O748 O 0.60983 0.89034 0.45124 0.0
O749 O 0.58062 0.8623 0.46756 0.0
O750 O 0.62691 0.87725 0.37418 0.0
O751 O 0.65107 0.91084 0.40447 0.0
H752 H 0.63727 0.92303 0.57342 0.0
H753 H 0.6415 0.94312 0.64043 0.0
H754 H 0.7013 0.99873 0.59143 0.0
H755 H 0.69654 0.97874 0.52372 0.0
H756 H 0.62604 0.83502 0.3476 0.0
H757 H 0.63378 0.82143 0.28093 0.0
H758 H 0.5641 0.78632 0.25054 0.0
H759 H 0.55659 0.8003 0.31699 0.0
Tb760 Tb 0.09046 0.73293 0.47444 0.0
Tb761 Tb 0.13526 0.74639 0.434 0.0
C762 C 0.05088 0.71107 0.49827 0.0
C763 C 0.03929 0.7078 0.53908 0.0
C764 C 0.01644 0.69997 0.53959 0.0
C765 C 0.00529 0.69615 0.57887 0.0
C766 C 0.01698 0.69986 0.6176 0.0
C767 C 0.03987 0.708 0.61682 0.0
C768 C 0.05099 0.71214 0.57788 0.0
C769 C 0.1165 0.77512 0.46992 0.0
C770 C 0.13374 0.75395 0.53468 0.0
C771 C 0.16912 0.76378 0.3858 0.0
C772 C 0.17662 0.77551 0.34288 0.0
C773 C 0.1779 0.79596 0.33498 0.0
C774 C 0.18665 0.80755 0.29613 0.0
C775 C 0.1948 0.79936 0.26356 0.0
C776 C 0.19312 0.77866 0.27123 0.0
C777 C 0.18424 0.76701 0.3101 0.0
C778 C 0.11692 0.70859 0.48027 0.0
C779 C 0.09486 0.73756 0.37126 0.0
O780 O 0.06416 0.70292 0.49606 0.0
O781 O 0.05981 0.73103 0.4826 0.0
O782 O 0.11512 0.76112 0.44225 0.0
O783 O 0.10186 0.76551 0.50013 0.0
O784 O 0.11174 0.74079 0.5326 0.0
O785 O 0.14612 0.76074 0.4991 0.0
O786 O 0.16576 0.77415 0.41763 0.0
O787 O 0.15441 0.7426 0.38561 0.0
O788 O 0.10705 0.71574 0.45623 0.0
O789 O 0.13789 0.72125 0.47309 0.0
O790 O 0.11513 0.74071 0.37499 0.0
O791 O 0.08246 0.73421 0.40588 0.0
H792 H 0.00726 0.6966 0.50972 0.0
H793 H 0.98765 0.69 0.57906 0.0
H794 H 0.04918 0.71124 0.64653 0.0
H795 H 0.06865 0.71845 0.57806 0.0
H796 H 0.17245 0.80331 0.3591 0.0
H797 H 0.18706 0.8231 0.29184 0.0
H798 H 0.1993 0.77165 0.24776 0.0
H799 H 0.18382 0.75147 0.31495 0.0
Tb800 Tb 0.26701 0.36554 0.47285 0.0
Tb801 Tb 0.26074 0.40235 0.43663 0.0
C802 C 0.28007 0.34237 0.51033 0.0
C803 C 0.28907 0.33985 0.55129 0.0
C804 C 0.30899 0.3567 0.56811 0.0
C805 C 0.31723 0.35371 0.60692 0.0
C806 C 0.30523 0.33409 0.63062 0.0
C807 C 0.28536 0.31708 0.61299 0.0
C808 C 0.27756 0.31986 0.57354 0.0
C809 C 0.22651 0.35294 0.44404 0.0
C810 C 0.25112 0.39209 0.53625 0.0
C811 C 0.24589 0.4211 0.38773 0.0
C812 C 0.2356 0.41732 0.34337 0.0
C813 C 0.21689 0.41958 0.33648 0.0
C814 C 0.20722 0.41667 0.29519 0.0
C815 C 0.21588 0.41134 0.25896 0.0
C816 C 0.23453 0.40882 0.26619 0.0
C817 C 0.24421 0.41181 0.30749 0.0
C818 C 0.29766 0.4164 0.48296 0.0
C819 C 0.26743 0.36914 0.37211 0.0
O820 O 0.29286 0.35947 0.48622 0.0
O821 O 0.2596 0.33819 0.51128 0.0
O822 O 0.2402 0.37063 0.46178 0.0
O823 O 0.23594 0.34103 0.44204 0.0
O824 O 0.26032 0.37934 0.53207 0.0
O825 O 0.24767 0.40156 0.50194 0.0
O826 O 0.23418 0.40685 0.41775 0.0
O827 O 0.26691 0.42701 0.39069 0.0
O828 O 0.28893 0.39954 0.45798 0.0
O829 O 0.28788 0.42777 0.47543 0.0
O830 O 0.26293 0.38523 0.3782 0.0
O831 O 0.27156 0.35981 0.40509 0.0
H832 H 0.31802 0.37227 0.55154 0.0
H833 H 0.33268 0.36708 0.61882 0.0
H834 H 0.27517 0.3019 0.63031 0.0
H835 H 0.26215 0.30655 0.56093 0.0
H836 H 0.20979 0.42387 0.36317 0.0
H837 H 0.19318 0.41911 0.29166 0.0
H838 H 0.24168 0.40435 0.23993 0.0
H839 H 0.25854 0.40986 0.31124 0.0
Tb840 Tb 0.23372 0.30657 1.04029 0.0
Tb841 Tb 0.19421 0.26771 0.08178 0.0
C842 C 0.26828 0.33143 0.99937 0.0
C843 C 0.27933 0.33415 0.95785 0.0
C844 C 0.28564 0.31913 0.94341 0.0
C845 C 0.29674 0.32266 0.90442 0.0
C846 C 0.30188 0.34126 0.87911 0.0
C847 C 0.2956 0.35633 0.89403 0.0
C848 C 0.28459 0.35286 0.93308 0.0
C849 C 0.20437 0.31581 0.0745 0.0
C850 C 0.18973 0.27637 0.983 0.0
C851 C 0.16209 0.24657 0.13268 0.0
C852 C 0.15502 0.25166 0.17471 0.0
C853 C 0.16282 0.27356 0.18819 0.0
C854 C 0.15476 0.27818 0.22604 0.0
C855 C 0.13873 0.26105 0.25193 0.0
C856 C 0.13145 0.23913 0.2389 0.0
C857 C 0.13941 0.23454 0.20082 0.0
C858 C 0.21832 0.25649 1.0324 0.0
C859 C 0.23375 0.30471 0.14176 0.0
O860 O 0.26625 0.31552 1.02478 0.0
O861 O 0.25066 0.33352 0.99904 0.0
O862 O 0.20132 0.29846 0.0568 0.0
O863 O 0.22547 0.3295 0.07217 0.0
O864 O 0.21144 0.29105 0.98333 0.0
O865 O 0.17905 0.26657 1.01917 0.0
O866 O 0.1615 0.25765 0.09918 0.0
O867 O 0.17994 0.24481 0.13273 0.0
O868 O 0.22567 0.27365 0.05625 0.0
O869 O 0.19779 0.2434 1.04296 0.0
O870 O 0.21377 0.28722 0.13789 0.0
O871 O 0.24589 0.31438 0.10727 0.0
H872 H 0.28204 0.30464 0.96207 0.0
H873 H 0.30097 0.31058 0.89397 0.0
H874 H 0.29851 0.37051 0.87509 0.0
H875 H 0.28001 0.36477 0.94381 0.0
H876 H 0.17497 0.28716 0.1691 0.0
H877 H 0.16114 0.29526 0.23503 0.0
H878 H 0.11906 0.22544 0.25746 0.0
H879 H 0.13302 0.2175 0.19133 0.0
Tb880 Tb 0.70297 0.92753 1.03262 0.0
Tb881 Tb 0.73942 0.92483 0.07803 0.0
C882 C 0.68177 0.93921 0.98518 0.0
C883 C 0.68607 0.94912 0.94271 0.0
C884 C 0.70719 0.95825 0.92488 0.0
C885 C 0.71152 0.9681 0.88455 0.0
C886 C 0.69447 0.96816 0.86044 0.0
C887 C 0.67295 0.95786 0.87814 0.0
C888 C 0.66893 0.94882 0.91925 0.0
C889 C 0.69089 0.88784 0.06392 0.0
C890 C 0.7339 0.9137 0.97871 0.0
C891 C 0.75972 0.91407 0.13192 0.0
C892 C 0.75477 0.90248 0.1749 0.0
C893 C 0.75875 0.88482 0.18132 0.0
C894 C 0.75489 0.87409 0.22155 0.0
C895 C 0.74693 0.88065 0.25705 0.0
C896 C 0.74256 0.89812 0.2502 0.0
C897 C 0.74645 0.90885 0.20998 0.0
C898 C 0.7523 0.96175 1.03113 0.0
C899 C 0.70028 0.92618 0.13287 0.0
O900 O 0.69535 0.95181 1.01544 0.0
O901 O 0.67838 0.91906 0.98604 0.0
O902 O 0.70924 0.90183 0.04876 0.0
O903 O 0.67814 0.89635 0.06108 0.0
O904 O 0.72021 0.92184 0.97789 0.0
O905 O 0.74209 0.91131 1.01586 0.0
O906 O 0.7489 0.902 0.09854 0.0
O907 O 0.76175 0.93377 0.13013 0.0
O908 O 0.73506 0.95157 0.05436 0.0
O909 O 0.76426 0.95262 1.03858 0.0
O910 O 0.71709 0.92243 0.1315 0.0
O911 O 0.69315 0.93111 0.09746 0.0
H912 H 0.72032 0.95773 0.9422 0.0
H913 H 0.72829 0.97579 0.87287 0.0
H914 H 0.65892 0.95626 0.86034 0.0
H915 H 0.65238 0.94128 0.93241 0.0
H916 H 0.76516 0.87943 0.15515 0.0
H917 H 0.75875 0.86098 0.22503 0.0
H918 H 0.73602 0.90358 0.276 0.0
H919 H 0.74304 0.92225 0.20649 0.0
Tb920 Tb 0.07185 0.76539 1.02576 0.0
Tb921 Tb 0.08254 0.8091 0.06932 0.0
C922 C 0.05493 0.73013 0.98351 0.0
C923 C 0.04322 0.72146 0.94276 0.0
C924 C 0.04618 0.73559 0.90828 0.0
C925 C 0.03614 0.7269 0.86867 0.0
C926 C 0.02289 0.70392 0.863 0.0
C927 C 0.02001 0.6899 0.89779 0.0
C928 C 0.02992 0.69863 0.9375 0.0
C929 C 0.11307 0.78991 0.05521 0.0
C930 C 0.09048 0.80965 0.96854 0.0
C931 C 0.10037 0.84239 0.11897 0.0
C932 C 0.11366 0.84955 0.16031 0.0
C933 C 0.13634 0.85617 0.1611 0.0
C934 C 0.14913 0.86477 0.19885 0.0
C935 C 0.13984 0.86721 0.23739 0.0
C936 C 0.11703 0.86015 0.23677 0.0
C937 C 0.10423 0.85158 0.19893 0.0
C938 C 0.04469 0.7901 1.02397 0.0
C939 C 0.07423 0.76662 0.12713 0.0
O940 O 0.0443 0.73424 1.01353 0.0
O941 O 0.07568 0.74563 0.98029 0.0
O942 O 0.10008 0.79561 1.04048 0.0
O943 O 0.10308 0.76868 0.05003 0.0
O944 O 0.0785 0.78763 0.96998 0.0
O945 O 0.09641 0.8218 1.00455 0.0
O946 O 0.10991 0.84003 0.08464 0.0
O947 O 0.0794 0.82708 0.12098 0.0
O948 O 0.05275 0.78011 0.04547 0.0
O949 O 0.05608 0.81083 1.03478 0.0
O950 O 0.08085 0.78797 0.1244 0.0
O951 O 0.06771 0.7538 0.09254 0.0
H952 H 0.05653 0.75329 0.91176 0.0
H953 H 0.03925 0.73817 0.84224 0.0
H954 H 0.01031 0.67217 0.89416 0.0
H955 H 0.0276 0.68751 0.96383 0.0
H956 H 0.14442 0.85507 0.13226 0.0
H957 H 0.16645 0.86957 0.19765 0.0
H958 H 0.1091 0.86188 0.26523 0.0
H959 H 0.08695 0.84697 0.19971 0.0
Tb960 Tb 0.39281 0.13554 0.90966 0.0
Tb961 Tb 0.3582 0.09377 0.86677 0.0
C962 C 0.41187 0.16792 0.961 0.0
C963 C 0.40773 0.17424 1.00522 0.0
C964 C 0.39768 0.1873 1.01018 0.0
C965 C 0.39494 0.19432 0.05124 0.0
C966 C 0.40221 0.18864 0.08908 0.0
C967 C 0.4122 0.17549 0.08396 0.0
C968 C 0.41494 0.16849 1.04294 0.0
C969 C 0.40864 0.11513 0.85855 0.0
C970 C 0.35746 0.09609 0.96914 0.0
C971 C 0.33817 0.05438 0.84224 0.0
C972 C 0.33957 0.0452 0.80143 0.0
C973 C 0.32454 0.02332 0.7904 0.0
C974 C 0.32504 0.01574 0.74908 0.0
C975 C 0.34077 0.03 0.71909 0.0
C976 C 0.35608 0.05175 0.73115 0.0
C977 C 0.35538 0.05928 0.77187 0.0
C978 C 0.34573 0.12258 0.87665 0.0
C979 C 0.38356 0.13731 0.8102 0.0
O980 O 0.39881 0.16688 0.92946 0.0
O981 O 0.41671 0.15204 0.95821 0.0
O982 O 0.39199 0.10641 0.8835 0.0
O983 O 0.4184 0.13624 0.86584 0.0
O984 O 0.37722 0.11409 0.9667 0.0
O985 O 0.34648 0.08616 0.9336 0.0
O986 O 0.35635 0.06301 0.86509 0.0
O987 O 0.32991 0.06746 0.83937 0.0
O988 O 0.35781 0.11926 0.90265 0.0
O989 O 0.33862 0.10792 0.84603 0.0
O990 O 0.37399 0.11522 0.80946 0.0
O991 O 0.38964 0.14844 0.84729 0.0
H992 H 0.39201 0.19229 0.98214 0.0
H993 H 0.38691 0.20411 0.05321 0.0
H994 H 0.41843 0.17092 0.1117 0.0
H995 H 0.42302 0.15875 1.04084 0.0
H996 H 0.31216 0.01239 0.81317 0.0
H997 H 0.31296 0.99895 0.74035 0.0
H998 H 0.36791 0.06343 0.70849 0.0
H999 H 0.36674 0.07638 0.77982 0.0
Tb1000 Tb 0.86342 0.24848 0.89812 0.0
Tb1001 Tb 0.90904 0.26526 0.86131 0.0
C1002 C 0.82979 0.23182 0.94726 0.0
C1003 C 0.82307 0.22133 0.9914 0.0
C1004 C 0.80087 0.20545 0.99977 0.0
C1005 C 0.79382 0.19632 1.04133 0.0
C1006 C 0.80873 0.20265 0.07642 0.0
C1007 C 0.83111 0.2183 0.06756 0.0
C1008 C 0.83809 0.22751 1.02605 0.0
C1009 C 0.88107 0.28713 0.85391 0.0
C1010 C 0.90394 0.25766 0.96266 0.0
C1011 C 0.94738 0.29071 0.83488 0.0
C1012 C 0.95601 0.2951 0.79114 0.0
C1013 C 0.94117 0.28961 0.75674 0.0
C1014 C 0.94894 0.29461 0.71493 0.0
C1015 C 0.9717 0.30519 0.70676 0.0
C1016 C 0.9866 0.30995 0.74099 0.0
C1017 C 0.97873 0.30489 0.78323 0.0
C1018 C 0.88562 0.22261 0.85955 0.0
C1019 C 0.86607 0.24182 0.79849 0.0
O1020 O 0.83307 0.22075 0.91679 0.0
O1021 O 0.84443 0.25297 0.94543 0.0
O1022 O 0.89073 0.28061 0.87993 0.0
O1023 O 0.86026 0.27234 0.85533 0.0
O1024 O 0.88317 0.25297 0.95765 0.0
O1025 O 0.91726 0.26304 0.929 0.0
O1026 O 0.93302 0.29709 0.84297 0.0
O1027 O 0.94087 0.27074 0.84878 0.0
O1028 O 0.88472 0.23496 0.88884 0.0
O1029 O 0.90152 0.23437 0.83281 0.0
O1030 O 0.88781 0.25637 0.80212 0.0
O1031 O 0.85328 0.23403 0.83332 0.0
H1032 H 0.78874 0.20032 0.97413 0.0
H1033 H 0.77645 0.18467 0.04601 0.0
H1034 H 0.84348 0.22354 0.09272 0.0
H1035 H 0.85528 0.23968 1.02129 0.0
H1036 H 0.92358 0.28191 0.76223 0.0
H1037 H 0.93711 0.29039 0.68894 0.0
H1038 H 0.00423 0.31807 0.73516 0.0
H1039 H 0.99031 0.30905 0.80964 0.0
Tb1040 Tb 0.74951 0.60487 0.90335 0.0
Tb1041 Tb 0.74017 0.64027 0.86726 0.0
C1042 C 0.76715 0.58817 0.95038 0.0
C1043 C 0.78047 0.59377 0.99186 0.0
C1044 C 0.8037 0.60733 0.99156 0.0
C1045 C 0.81642 0.61133 1.02938 0.0
C1046 C 0.80657 0.60181 0.06929 0.0
C1047 C 0.78326 0.58848 0.06968 0.0
C1048 C 0.7705 0.58449 1.03175 0.0
C1049 C 0.71143 0.58935 0.85934 0.0
C1050 C 0.74188 0.63758 0.96821 0.0
C1051 C 0.72341 0.65951 0.82721 0.0
C1052 C 0.71177 0.65651 0.78625 0.0
C1053 C 0.70304 0.63658 0.76369 0.0
C1054 C 0.69249 0.63401 0.72417 0.0
C1055 C 0.69177 0.65189 0.70489 0.0
C1056 C 0.70051 0.67188 0.72818 0.0
C1057 C 0.71009 0.67401 0.7687 0.0
C1058 C 0.78113 0.65485 0.8955 0.0
C1059 C 0.75769 0.6151 0.80396 0.0
O1060 O 0.77674 0.60077 0.91689 0.0
O1061 O 0.74608 0.58223 0.95228 0.0
O1062 O 0.7203 0.60618 0.88423 0.0
O1063 O 0.7225 0.57902 0.86419 0.0
O1064 O 0.74737 0.62217 0.96162 0.0
O1065 O 0.73657 0.6463 0.93562 0.0
O1066 O 0.7129 0.64423 0.85636 0.0
O1067 O 0.74424 0.66505 0.82406 0.0
O1068 O 0.76778 0.63683 0.87862 0.0
O1069 O 0.77169 0.66679 0.89346 0.0
O1070 O 0.74681 0.62623 0.80833 0.0
O1071 O 0.76281 0.60696 0.83814 0.0
H1072 H 0.81223 0.61471 0.96178 0.0
H1073 H 0.83414 0.62201 1.02713 0.0
H1074 H 0.77479 0.58051 0.09916 0.0
H1075 H 0.75276 0.57375 1.03358 0.0
H1076 H 0.70489 0.6232 0.77615 0.0
H1077 H 0.68553 0.61813 0.7084 0.0
H1078 H 0.70088 0.6863 0.71468 0.0
H1079 H 0.71693 0.68961 0.78565 0.0
Tb1080 Tb 0.8085 0.72621 0.27001 0.0
Tb1081 Tb 0.76294 0.69536 0.30605 0.0
C1082 C 0.8423 0.74286 0.22141 0.0
C1083 C 0.84889 0.73811 0.17813 0.0
C1084 C 0.84265 0.7165 0.16476 0.0
C1085 C 0.8504 0.71258 0.12557 0.0
C1086 C 0.86466 0.7301 0.09812 0.0
C1087 C 0.87042 0.75167 0.11126 0.0
C1088 C 0.86272 0.75557 0.15051 0.0
C1089 C 0.79073 0.74581 0.31714 0.0
C1090 C 0.76874 0.69735 0.20369 0.0
C1091 C 0.72377 0.68002 0.33097 0.0
C1092 C 0.71207 0.67188 0.37229 0.0
C1093 C 0.71718 0.68611 0.40765 0.0
C1094 C 0.70708 0.67812 0.44728 0.0
C1095 C 0.69192 0.65557 0.45269 0.0
C1096 C 0.68616 0.64134 0.41706 0.0
C1097 C 0.69603 0.6495 0.37701 0.0
C1098 C 0.78731 0.67731 0.30469 0.0
C1099 C 0.80541 0.7156 0.36949 0.0
O1100 O 0.83887 0.72894 0.25267 0.0
O1101 O 0.8278 0.74957 0.22222 0.0
O1102 O 0.78071 0.72953 0.29134 0.0
O1103 O 0.81172 0.75345 0.31148 0.0
O1104 O 0.78878 0.71434 0.21021 0.0
O1105 O 0.75562 0.68693 0.23673 0.0
O1106 O 0.73807 0.70121 0.32835 0.0
O1107 O 0.73117 0.66797 0.3134 0.0
O1108 O 0.78806 0.691 0.27649 0.0
O1109 O 0.77148 0.67231 0.33211 0.0
O1110 O 0.78345 0.7067 0.36584 0.0
O1111 O 0.81847 0.72215 0.33502 0.0
H1112 H 0.83196 0.70256 0.18489 0.0
H1113 H 0.8451 0.69568 0.11681 0.0
H1114 H 0.88147 0.76574 0.0918 0.0
H1115 H 0.86798 0.77243 0.15973 0.0
H1116 H 0.72921 0.70341 0.40499 0.0
H1117 H 0.71204 0.68944 0.47427 0.0
H1118 H 0.67451 0.62387 0.4205 0.0
H1119 H 0.69162 0.63822 0.35007 0.0
Tb1120 Tb 0.2745 0.08433 0.27284 0.0
Tb1121 Tb 0.30947 0.07502 0.31195 0.0
C1122 C 0.25764 0.10055 0.22215 0.0
C1123 C 0.26298 0.11216 0.17889 0.0
C1124 C 0.25788 0.12896 0.17087 0.0
C1125 C 0.26214 0.13971 0.13044 0.0
C1126 C 0.27175 0.13413 0.09617 0.0
C1127 C 0.27718 0.11748 0.10471 0.0
C1128 C 0.27281 0.10669 0.14508 0.0
C1129 C 0.25865 0.0465 0.31741 0.0
C1130 C 0.30845 0.07659 0.2121 0.0
C1131 C 0.32819 0.05758 0.35098 0.0
C1132 C 0.3256 0.0473 0.39272 0.0
C1133 C 0.3111 0.04799 0.42276 0.0
C1134 C 0.309 0.03879 0.46323 0.0
C1135 C 0.32112 0.0284 0.47396 0.0
C1136 C 0.33543 0.02742 0.44336 0.0
C1137 C 0.33772 0.03695 0.4029 0.0
C1138 C 0.32439 0.11573 0.28209 0.0
C1139 C 0.28501 0.09418 0.37274 0.0
O1140 O 0.27065 0.11134 0.2546 0.0
O1141 O 0.2518 0.07953 0.22314 0.0
O1142 O 0.27561 0.05519 0.29304 0.0
O1143 O 0.24838 0.05758 0.31202 0.0
O1144 O 0.29353 0.08293 0.21643 0.0
O1145 O 0.31559 0.07032 0.24551 0.0
O1146 O 0.31159 0.04678 0.32436 0.0
O1147 O 0.33508 0.07878 0.35219 0.0
O1148 O 0.30623 0.10248 0.29841 0.0
O1149 O 0.33633 0.10634 0.28575 0.0
O1150 O 0.29598 0.08309 0.3695 0.0
O1151 O 0.27669 0.09871 0.3378 0.0
H1152 H 0.25028 0.13368 0.19593 0.0
H1153 H 0.25735 0.15208 0.12591 0.0
H1154 H 0.285 0.11272 0.08022 0.0
H1155 H 0.27708 0.09395 0.14966 0.0
H1156 H 0.30169 0.05594 0.41513 0.0
H1157 H 0.29837 0.0404 0.48647 0.0
H1158 H 0.34478 0.01929 0.45067 0.0
H1159 H 0.34885 0.03618 0.3796 0.0
Tb1160 Tb 0.92432 0.19169 0.2676 0.0
Tb1161 Tb 0.93038 0.23374 0.30944 0.0
C1162 C 0.91042 0.15917 0.21624 0.0
C1163 C 0.89836 0.15272 0.17356 0.0
C1164 C 0.88143 0.13081 0.16618 0.0
C1165 C 0.87002 0.12427 0.1264 0.0
C1166 C 0.87506 0.13944 0.09234 0.0
C1167 C 0.89184 0.16152 0.10023 0.0
C1168 C 0.9033 0.16799 0.13992 0.0
C1169 C 0.96123 0.21427 0.31547 0.0
C1170 C 0.92772 0.23204 0.20818 0.0
C1171 C 0.94744 0.26938 0.3498 0.0
C1172 C 0.96112 0.27769 0.38821 0.0
C1173 C 0.97315 0.30041 0.39568 0.0
C1174 C 0.98527 0.30844 0.43356 0.0
C1175 C 0.98575 0.29382 0.46404 0.0
C1176 C 0.97456 0.27109 0.45517 0.0
C1177 C 0.96219 0.26306 0.41757 0.0
C1178 C 0.88998 0.20701 0.2794 0.0
C1179 C 0.91266 0.18926 0.36735 0.0
O1180 O 0.89923 0.15978 0.2495 0.0
O1181 O 0.93092 0.17567 0.21697 0.0
O1182 O 0.95216 0.22214 0.29096 0.0
O1183 O 0.95122 0.19312 0.30798 0.0
O1184 O 0.92423 0.21163 0.21155 0.0
O1185 O 0.93222 0.24472 0.24265 0.0
O1186 O 0.957 0.2657 0.31715 0.0
O1187 O 0.92706 0.25343 0.35603 0.0
O1188 O 0.90391 0.20255 0.29442 0.0
O1189 O 0.89877 0.22831 0.28314 0.0
O1190 O 0.9222 0.21134 0.36656 0.0
O1191 O 0.91007 0.1778 0.33117 0.0
H1192 H 0.87711 0.11856 0.19123 0.0
H1193 H 0.85754 0.10711 0.12215 0.0
H1194 H 0.89617 0.17403 0.07576 0.0
H1195 H 0.9161 0.18501 0.14412 0.0
H1196 H 0.97257 0.31187 0.37295 0.0
H1197 H 0.99331 0.32597 0.44008 0.0
H1198 H 0.97416 0.25936 0.47843 0.0
H1199 H 0.95311 0.24543 0.41192 0.0
Tb1200 Tb 0.31519 0.24946 0.81472 0.0
Tb1201 Tb 0.28425 0.20464 0.77484 0.0
C1202 C 0.33096 0.28883 0.83859 0.0
C1203 C 0.33363 0.29948 0.88034 0.0
C1204 C 0.32099 0.28709 0.91555 0.0
C1205 C 0.32379 0.29713 0.95555 0.0
C1206 C 0.33955 0.31953 0.96107 0.0
C1207 C 0.3522 0.33194 0.92585 0.0
C1208 C 0.34907 0.32197 0.88544 0.0
C1209 C 0.33178 0.22378 0.8103 0.0
C1210 C 0.29295 0.20669 0.87577 0.0
C1211 C 0.26706 0.17108 0.7258 0.0
C1212 C 0.27063 0.16443 0.68155 0.0
C1213 C 0.26678 0.1429 0.67434 0.0
C1214 C 0.26862 0.13572 0.6328 0.0
C1215 C 0.27444 0.14982 0.59665 0.0
C1216 C 0.27872 0.17158 0.60425 0.0
C1217 C 0.27678 0.17871 0.64582 0.0
C1218 C 0.26496 0.22339 0.82047 0.0
C1219 C 0.31633 0.24486 0.71206 0.0
O1220 O 0.31052 0.2763 0.82579 0.0
O1221 O 0.34291 0.27944 0.83286 0.0
O1222 O 0.31908 0.225 0.7826 0.0
O1223 O 0.33666 0.23837 0.84063 0.0
O1224 O 0.3009 0.22855 0.87309 0.0
O1225 O 0.28808 0.1942 0.84028 0.0
O1226 O 0.28168 0.17439 0.75588 0.0
O1227 O 0.26036 0.18558 0.72813 0.0
O1228 O 0.28152 0.23269 0.79547 0.0
O1229 O 0.25741 0.20232 0.81664 0.0
O1230 O 0.29863 0.22497 0.71594 0.0
O1231 O 0.32588 0.2571 0.74677 0.0
H1232 H 0.30903 0.26968 0.91211 0.0
H1233 H 0.31419 0.28719 0.9826 0.0
H1234 H 0.36467 0.34915 0.92982 0.0
H1235 H 0.35893 0.33167 0.85843 0.0
H1236 H 0.26189 0.13138 0.7009 0.0
H1237 H 0.26486 0.11881 0.629 0.0
H1238 H 0.28365 0.18329 0.57804 0.0
H1239 H 0.27991 0.19539 0.64982 0.0
Tb1240 Tb 0.75713 0.06376 0.81337 0.0
Tb1241 Tb 0.8032 0.08213 0.77492 0.0
C1242 C 0.71792 0.03655 0.83456 0.0
C1243 C 0.70483 0.02719 0.87407 0.0
C1244 C 0.71034 0.01551 0.90338 0.0
C1245 C 0.69876 0.00769 0.94168 0.0
C1246 C 0.68134 0.01144 0.95188 0.0
C1247 C 0.67495 0.02213 0.92148 0.0
C1248 C 0.68659 0.02987 0.88277 0.0
C1249 C 0.77924 0.10632 0.81396 0.0
C1250 C 0.8001 0.08772 0.87533 0.0
C1251 C 0.83712 0.1014 0.72696 0.0
C1252 C 0.84428 0.11283 0.68366 0.0
C1253 C 0.84359 0.13216 0.67378 0.0
C1254 C 0.85223 0.14359 0.63461 0.0
C1255 C 0.86196 0.13622 0.60362 0.0
C1256 C 0.86214 0.11657 0.61328 0.0
C1257 C 0.85355 0.10519 0.65248 0.0
C1258 C 0.78815 0.04439 0.8209 0.0
C1259 C 0.76248 0.07086 0.71067 0.0
O1260 O 0.73289 0.03107 0.82563 0.0
O1261 O 0.72508 0.05747 0.82744 0.0
O1262 O 0.78057 0.09413 0.7847 0.0
O1263 O 0.76361 0.09439 0.84115 0.0
O1264 O 0.77839 0.07296 0.87232 0.0
O1265 O 0.81264 0.09603 0.84028 0.0
O1266 O 0.83255 0.11122 0.75808 0.0
O1267 O 0.82364 0.07995 0.72728 0.0
O1268 O 0.77711 0.05001 0.79635 0.0
O1269 O 0.80876 0.05887 0.81445 0.0
O1270 O 0.78309 0.07506 0.71525 0.0
O1271 O 0.7496 0.06657 0.74493 0.0
H1272 H 0.7238 0.0126 0.89708 0.0
H1273 H 0.70435 0.99974 0.96432 0.0
H1274 H 0.66149 0.02515 0.92825 0.0
H1275 H 0.68173 0.03847 0.86018 0.0
H1276 H 0.83661 0.13869 0.69655 0.0
H1277 H 0.85123 0.15832 0.62871 0.0
H1278 H 0.86959 0.11025 0.59111 0.0
H1279 H 0.85463 0.09053 0.65885 0.0
Tb1280 Tb 0.92807 0.69378 0.80477 0.0
Tb1281 Tb 0.9257 0.73233 0.76407 0.0
C1282 C 0.93916 0.67045 0.84739 0.0
C1283 C 0.95057 0.67281 0.88821 0.0
C1284 C 0.96022 0.65982 0.89627 0.0
C1285 C 0.97045 0.66139 0.93579 0.0
C1286 C 0.97163 0.67639 0.96727 0.0
C1287 C 0.96226 0.68968 0.95856 0.0
C1288 C 0.95167 0.68779 0.91945 0.0
C1289 C 0.88907 0.68355 0.77063 0.0
C1290 C 0.91302 0.72273 0.86294 0.0
C1291 C 0.91212 0.75151 0.71352 0.0
C1292 C 0.90086 0.74668 0.67016 0.0
C1293 C 0.88331 0.75078 0.66307 0.0
C1294 C 0.87244 0.74644 0.62281 0.0
C1295 C 0.87871 0.73778 0.58801 0.0
C1296 C 0.89615 0.73339 0.59553 0.0
C1297 C 0.90703 0.7378 0.63576 0.0
C1298 C 0.96127 0.74448 0.81422 0.0
C1299 C 0.93123 0.69715 0.70341 0.0
O1300 O 0.9513 0.68379 0.8166 0.0
O1301 O 0.91971 0.66885 0.85026 0.0
O1302 O 0.90332 0.70099 0.78811 0.0
O1303 O 0.89669 0.67006 0.7739 0.0
O1304 O 0.92103 0.70888 0.8619 0.0
O1305 O 0.91151 0.73248 0.82714 0.0
O1306 O 0.90042 0.7387 0.74529 0.0
O1307 O 0.93278 0.75602 0.71538 0.0
O1308 O 0.95178 0.7274 0.78993 0.0
O1309 O 0.95292 0.75695 0.80442 0.0
O1310 O 0.92865 0.71458 0.70766 0.0
O1311 O 0.93282 0.68672 0.73763 0.0
H1312 H 0.95953 0.64823 0.87232 0.0
H1313 H 0.97738 0.65083 0.94178 0.0
H1314 H 0.96236 0.70097 0.98255 0.0
H1315 H 0.94424 0.69792 0.91377 0.0
H1316 H 0.87803 0.75756 0.68878 0.0
H1317 H 0.8594 0.75037 0.61882 0.0
H1318 H 0.90141 0.72635 0.57035 0.0
H1319 H 0.92031 0.73425 0.63985 0.0
Tb1320 Tb 0.90737 0.63781 0.36682 0.0
Tb1321 Tb 0.86329 0.60618 0.40484 0.0
C1322 C 0.94628 0.65306 0.34058 0.0
C1323 C 0.95429 0.65242 0.29756 0.0
C1324 C 0.9395 0.63733 0.2675 0.0
C1325 C 0.94616 0.63738 0.22547 0.0
C1326 C 0.96775 0.65272 0.21238 0.0
C1327 C 0.98263 0.66784 0.2427 0.0
C1328 C 0.97595 0.66757 0.28525 0.0
C1329 C 0.88269 0.6553 0.37285 0.0
C1330 C 0.86428 0.61709 0.30609 0.0
C1331 C 0.82978 0.58793 0.45396 0.0
C1332 C 0.82319 0.59179 0.4979 0.0
C1333 C 0.80192 0.58883 0.50443 0.0
C1334 C 0.79503 0.59171 0.54545 0.0
C1335 C 0.80918 0.59769 0.58162 0.0
C1336 C 0.83065 0.601 0.5747 0.0
C1337 C 0.83749 0.59806 0.53367 0.0
C1338 C 0.88161 0.58787 0.35492 0.0
C1339 C 0.90352 0.63637 0.46922 0.0
O1340 O 0.93485 0.63381 0.35909 0.0
O1341 O 0.93664 0.66488 0.3439 0.0
O1342 O 0.88264 0.64157 0.40011 0.0
O1343 O 0.89793 0.66065 0.34396 0.0
O1344 O 0.88617 0.62482 0.30738 0.0
O1345 O 0.85244 0.61143 0.34212 0.0
O1346 O 0.83251 0.60217 0.42388 0.0
O1347 O 0.84484 0.58198 0.45155 0.0
O1348 O 0.89101 0.60366 0.38167 0.0
O1349 O 0.86056 0.58037 0.35906 0.0
O1350 O 0.88414 0.61827 0.46336 0.0
O1351 O 0.91537 0.6478 0.43549 0.0
H1352 H 0.92256 0.62584 0.27622 0.0
H1353 H 0.93398 0.62597 0.20284 0.0
H1354 H 0.99936 0.67985 0.23355 0.0
H1355 H 0.98751 0.6794 0.30821 0.0
H1356 H 0.79043 0.58399 0.4777 0.0
H1357 H 0.77833 0.5887 0.54889 0.0
H1358 H 0.84238 0.60602 0.60102 0.0
H1359 H 0.85399 0.60059 0.53007 0.0
Tb1360 Tb 0.36656 0.26634 0.36601 0.0
Tb1361 Tb 0.39915 0.25458 0.40951 0.0
C1362 C 0.35126 0.28582 0.32278 0.0
C1363 C 0.35731 0.29788 0.28205 0.0
C1364 C 0.35143 0.31397 0.27425 0.0
C1365 C 0.35577 0.32439 0.23426 0.0
C1366 C 0.36618 0.31894 0.20166 0.0
C1367 C 0.37284 0.30341 0.21045 0.0
C1368 C 0.36845 0.293 0.2503 0.0
C1369 C 0.34901 0.22517 0.39491 0.0
C1370 C 0.39103 0.24597 0.30907 0.0
C1371 C 0.41431 0.23639 0.45887 0.0
C1372 C 0.40796 0.22299 0.49993 0.0
C1373 C 0.39108 0.20063 0.5006 0.0
C1374 C 0.38659 0.18767 0.53806 0.0
C1375 C 0.39882 0.19647 0.57642 0.0
C1376 C 0.41542 0.21896 0.5759 0.0
C1377 C 0.41995 0.23193 0.53835 0.0
C1378 C 0.418 0.29231 0.36357 0.0
C1379 C 0.36519 0.26341 0.46742 0.0
O1380 O 0.36533 0.29522 0.35452 0.0
O1381 O 0.344 0.26457 0.3198 0.0
O1382 O 0.36792 0.23796 0.38101 0.0
O1383 O 0.33792 0.23531 0.3886 0.0
O1384 O 0.38134 0.25831 0.31039 0.0
O1385 O 0.39721 0.24004 0.3451 0.0
O1386 O 0.40238 0.22703 0.42435 0.0
O1387 O 0.42021 0.25741 0.46124 0.0
O1388 O 0.4003 0.28438 0.38588 0.0
O1389 O 0.42721 0.28068 0.37371 0.0
O1390 O 0.37988 0.25667 0.46458 0.0
O1391 O 0.35887 0.27003 0.43294 0.0
H1392 H 0.34298 0.31805 0.29865 0.0
H1393 H 0.35042 0.33623 0.22853 0.0
H1394 H 0.38056 0.29851 0.18599 0.0
H1395 H 0.37323 0.28072 0.25581 0.0
H1396 H 0.38146 0.19293 0.47188 0.0
H1397 H 0.37343 0.17063 0.53681 0.0
H1398 H 0.42549 0.22649 0.60422 0.0
H1399 H 0.43324 0.24893 0.53917 0.0
Tb1400 Tb 0.74021 0.09298 0.36093 0.0
Tb1401 Tb 0.74545 0.13534 0.40161 0.0
C1402 C 0.72886 0.05908 0.31618 0.0
C1403 C 0.7189 0.05199 0.27326 0.0
C1404 C 0.70306 0.02988 0.26571 0.0
C1405 C 0.69256 0.02339 0.22561 0.0
C1406 C 0.69721 0.03908 0.19305 0.0
C1407 C 0.71384 0.06106 0.20034 0.0
C1408 C 0.7246 0.06741 0.23992 0.0
C1409 C 0.7802 0.121 0.39176 0.0
C1410 C 0.75511 0.13652 0.30152 0.0
C1411 C 0.75971 0.16793 0.4531 0.0
C1412 C 0.77157 0.1745 0.49612 0.0
C1413 C 0.78904 0.19623 0.50296 0.0
C1414 C 0.79997 0.20303 0.54323 0.0
C1415 C 0.79386 0.18834 0.57846 0.0
C1416 C 0.77658 0.16641 0.57111 0.0
C1417 C 0.76564 0.15966 0.53088 0.0
C1418 C 0.70862 0.1129 0.35373 0.0
C1419 C 0.74002 0.09433 0.46212 0.0
O1420 O 0.71616 0.06029 0.34587 0.0
O1421 O 0.74892 0.07612 0.31688 0.0
O1422 O 0.76619 0.1248 0.375 0.0
O1423 O 0.77166 0.09974 0.39051 0.0
O1424 O 0.74557 0.11454 0.30417 0.0
O1425 O 0.75907 0.14892 0.33691 0.0
O1426 O 0.7709 0.16708 0.42006 0.0
O1427 O 0.73913 0.15162 0.45216 0.0
O1428 O 0.71803 0.10475 0.37697 0.0
O1429 O 0.7178 0.13372 0.36405 0.0
O1430 O 0.74473 0.11513 0.45802 0.0
O1431 O 0.73523 0.08139 0.42788 0.0
H1432 H 0.69862 0.01769 0.29094 0.0
H1433 H 0.68042 0.0062 0.22057 0.0
H1434 H 0.71864 0.07346 0.17543 0.0
H1435 H 0.73714 0.08448 0.24461 0.0
H1436 H 0.79413 0.20818 0.47712 0.0
H1437 H 0.81288 0.22006 0.54693 0.0
H1438 H 0.77142 0.15424 0.59651 0.0
H1439 H 0.75241 0.14278 0.52717 0.0
H1440 H 0.14044 0.44131 0.05153 0.0
H1441 H 0.07609 0.39602 1.00036 0.0
H1442 H 0.05891 0.40304 0.0626 0.0
H1443 H 0.06173 0.4245 0.13086 0.0
H1444 H 0.12679 0.47089 0.17806 0.0
H1445 H 0.14344 0.46137 0.11919 0.0
C1446 C 0.12258 0.43299 0.05358 0.0
C1447 C 0.10979 0.41783 1.0205 0.0
C1448 C 0.11261 0.43763 0.08933 0.0
C1449 C 0.08664 0.40748 1.02479 0.0
C1450 C 0.07668 0.41182 0.06048 0.0
C1451 C 0.07951 0.43225 0.12876 0.0
C1452 C 0.09277 0.44842 0.16024 0.0
C1453 C 0.08938 0.42702 0.09314 0.0
C1454 C 0.11589 0.45837 0.15538 0.0
C1455 C 0.12558 0.45299 0.12118 0.0
H1456 H 0.60943 0.7056 0.05358 0.0
H1457 H 0.55119 0.6657 0.97744 0.0
H1458 H 0.53599 0.6383 1.03516 0.0
H1459 H 0.53768 0.62624 0.10973 0.0
H1460 H 0.59497 0.66635 0.18795 0.0
H1461 H 0.61141 0.69294 0.1286 0.0
C1462 C 0.59365 0.6907 0.04913 0.0
C1463 C 0.58185 0.68773 1.00989 0.0
C1464 C 0.58445 0.67505 0.08376 0.0
C1465 C 0.56102 0.66846 1.00626 0.0
C1466 C 0.55214 0.65277 1.03972 0.0
C1467 C 0.55388 0.64069 0.11389 0.0
C1468 C 0.56506 0.64383 0.15389 0.0
C1469 C 0.56345 0.65597 0.07904 0.0
C1470 C 0.58597 0.66298 0.15788 0.0
C1471 C 0.59541 0.67835 0.12367 0.0
H1472 H 0.36836 0.89394 0.11782 0.0
H1473 H 0.3503 0.93925 0.17231 0.0
H1474 H 0.32539 0.93262 0.11143 0.0
H1475 H 0.30595 0.91173 1.04336 0.0
H1476 H 0.32371 0.86546 0.99222 0.0
H1477 H 0.35042 0.87432 0.0501 0.0
C1478 C 0.35889 0.90236 0.11672 0.0
C1479 C 0.36176 0.9174 0.15028 0.0
C1480 C 0.34391 0.89801 0.08167 0.0
C1481 C 0.34905 0.9279 0.14735 0.0
C1482 C 0.33436 0.92382 0.11244 0.0
C1483 C 0.31591 0.90387 1.04438 0.0
C1484 C 0.3126 0.88796 1.01215 0.0
C1485 C 0.33138 0.90877 0.07924 0.0
C1486 C 0.32565 0.87781 1.01559 0.0
C1487 C 0.34103 0.88282 0.04916 0.0
H1488 H 0.42225 0.05531 0.71594 0.0
H1489 H 0.46405 0.11925 0.66003 0.0
H1490 H 0.4542 0.13657 0.71761 0.0
H1491 H 0.43482 0.1343 0.78637 0.0
H1492 H 0.39533 0.07092 0.84617 0.0
H1493 H 0.40291 0.05309 0.78585 0.0
C1494 C 0.42885 0.07294 0.71571 0.0
C1495 C 0.44363 0.0857 0.68212 0.0
C1496 C 0.42362 0.08313 0.75054 0.0
C1497 C 0.45244 0.10874 0.68432 0.0
C1498 C 0.44688 0.11878 0.71774 0.0
C1499 C 0.42781 0.11655 0.78642 0.0
C1500 C 0.41399 0.10412 0.82131 0.0
C1501 C 0.4327 0.10627 0.75149 0.0
C1502 C 0.40547 0.0811 0.81999 0.0
C1503 C 0.40999 0.07081 0.78525 0.0
H1504 H 0.92004 0.37563 0.73885 0.0
H1505 H 0.90738 0.32952 0.6359 0.0
H1506 H 0.89351 0.29919 0.6883 0.0
H1507 H 0.88318 0.28525 0.76368 0.0
H1508 H 0.9019 0.33195 0.86774 0.0
H1509 H 0.91507 0.36223 0.81531 0.0
C1510 C 0.91464 0.35906 0.72769 0.0
C1511 C 0.91492 0.35524 0.68259 0.0
C1512 C 0.90756 0.34159 0.75866 0.0
C1513 C 0.90754 0.33331 0.66977 0.0
C1514 C 0.8995 0.31583 0.70001 0.0
C1515 C 0.89068 0.30199 0.77538 0.0
C1516 C 0.89157 0.30587 0.82067 0.0
C1517 C 0.89925 0.31965 0.74465 0.0
C1518 C 0.90097 0.32807 0.83377 0.0
C1519 C 0.90848 0.34552 0.80348 0.0
H1520 H 0.63293 0.57248 0.72642 0.0
H1521 H 0.66388 0.54334 0.6526 0.0
H1522 H 0.69217 0.5537 0.70833 0.0
H1523 H 0.70767 0.56944 0.78041 0.0
H1524 H 0.67631 0.59734 0.85681 0.0
H1525 H 0.64872 0.58835 0.79966 0.0
C1526 C 0.64606 0.56877 0.72205 0.0
C1527 C 0.64623 0.55747 0.68394 0.0
C1528 C 0.66219 0.57418 0.7557 0.0
C1529 C 0.66328 0.55234 0.68047 0.0
C1530 C 0.6795 0.55814 0.71281 0.0
C1531 C 0.69488 0.57374 0.78464 0.0
C1532 C 0.69446 0.58429 0.82353 0.0
C1533 C 0.67905 0.5688 0.75095 0.0
C1534 C 0.67747 0.58946 0.82768 0.0
C1535 C 0.6616 0.58438 0.79458 0.0
H1536 H 0.86443 0.5699 0.2746 0.0
H1537 H 0.92319 0.59233 0.35154 0.0
H1538 H 0.94069 0.58336 0.29277 0.0
H1539 H 0.93938 0.568 0.21899 0.0
H1540 H 0.87957 0.54309 0.14477 0.0
H1541 H 0.8631 0.55467 0.20125 0.0
C1542 C 0.88115 0.57296 0.27859 0.0
C1543 C 0.89242 0.58222 0.31804 0.0
C1544 C 0.8913 0.56763 0.24419 0.0
C1545 C 0.91409 0.58581 0.32182 0.0
C1546 C 0.9242 0.58061 0.2879 0.0
C1547 C 0.92297 0.56553 0.21466 0.0
C1548 C 0.91113 0.55505 0.17635 0.0
C1549 C 0.91309 0.57152 0.24869 0.0
C1550 C 0.88946 0.55147 0.17286 0.0
C1551 C 0.87987 0.55794 0.20563 0.0
H1552 H 0.40482 0.3223 0.3314 0.0
H1553 H 0.44687 0.29526 0.30231 0.0
H1554 H 0.45945 0.31724 0.23704 0.0
H1555 H 0.45965 0.34509 0.18705 0.0
H1556 H 0.41746 0.37172 0.21404 0.0
H1557 H 0.40398 0.34943 0.27909 0.0
C1558 C 0.41644 0.32088 0.31062 0.0
C1559 C 0.42455 0.3066 0.3228 0.0
C1560 C 0.42378 0.33378 0.27179 0.0
C1561 C 0.44013 0.30586 0.2949 0.0
C1562 C 0.44743 0.31853 0.25698 0.0
C1563 C 0.44728 0.34588 0.20677 0.0
C1564 C 0.43926 0.3601 0.19394 0.0
C1565 C 0.43951 0.33267 0.24491 0.0
C1566 C 0.42345 0.36069 0.22114 0.0
C1567 C 0.41593 0.34799 0.25925 0.0
H1568 H 0.65201 0.06478 0.18139 0.0
H1569 H 0.63411 0.11511 0.19717 0.0
H1570 H 0.65721 0.12886 0.26082 0.0
H1571 H 0.68269 0.12723 0.31417 0.0
H1572 H 0.70026 0.07695 0.30209 0.0
H1573 H 0.67738 0.06268 0.23713 0.0
C1574 C 0.65296 0.07861 0.19874 0.0
C1575 C 0.64068 0.0885 0.18341 0.0
C1576 C 0.66647 0.08665 0.23697 0.0
C1577 C 0.64293 0.10678 0.20712 0.0
C1578 C 0.65628 0.11481 0.24414 0.0
C1579 C 0.68152 0.11304 0.29761 0.0
C1580 C 0.69336 0.10306 0.31438 0.0
C1581 C 0.66811 0.1049 0.25972 0.0
C1582 C 0.69147 0.08491 0.29115 0.0
C1583 C 0.67838 0.07685 0.25335 0.0
H1584 H 0.56157 0.86555 0.5396 0.0
H1585 H 0.61411 0.92821 0.49543 0.0
H1586 H 0.60835 0.9465 0.55736 0.0
H1587 H 0.5867 0.94524 0.62356 0.0
H1588 H 0.53257 0.88248 0.66328 0.0
H1589 H 0.54041 0.86422 0.60466 0.0
C1590 C 0.5718 0.88328 0.54319 0.0
C1591 C 0.58864 0.89524 0.5123 0.0
C1592 C 0.56793 0.89393 0.57872 0.0
C1593 C 0.60139 0.91826 0.51838 0.0
C1594 C 0.59787 0.92887 0.55394 0.0
C1595 C 0.57687 0.92759 0.62003 0.0
C1596 C 0.55914 0.91547 0.64931 0.0
C1597 C 0.58111 0.91697 0.58454 0.0
C1598 C 0.54641 0.89249 0.64234 0.0
C1599 C 0.55083 0.88192 0.60832 0.0
H1600 H 0.09692 0.62953 0.61163 0.0
H1601 H 0.0693 0.6615 0.68702 0.0
H1602 H 0.07655 0.68767 0.62831 0.0
H1603 H 0.09137 0.70227 0.55525 0.0
H1604 H 0.12281 0.67302 0.48316 0.0
H1605 H 0.11307 0.64515 0.53949 0.0
C1606 C 0.0924 0.64217 0.61535 0.0
C1607 C 0.08183 0.6428 0.65408 0.0
C1608 C 0.09711 0.65772 0.58126 0.0
C1609 C 0.07659 0.65975 0.65763 0.0
C1610 C 0.08097 0.67499 0.62388 0.0
C1611 C 0.09594 0.68977 0.5512 0.0
C1612 C 0.10757 0.68987 0.51345 0.0
C1613 C 0.0911 0.67414 0.58523 0.0
C1614 C 0.11355 0.67341 0.51075 0.0
C1615 C 0.1081 0.65744 0.54343 0.0
H1616 H 0.37777 0.47083 0.61398 0.0
H1617 H 0.3437 0.4114 0.68913 0.0
H1618 H 0.31617 0.39393 0.63126 0.0
H1619 H 0.30099 0.39566 0.55836 0.0
H1620 H 0.33613 0.45525 0.48392 0.0
H1621 H 0.36398 0.47187 0.54076 0.0
C1622 C 0.3644 0.45398 0.61778 0.0
C1623 C 0.36302 0.44264 0.65666 0.0
C1624 C 0.34885 0.44373 0.5835 0.0
C1625 C 0.34547 0.4207 0.66008 0.0
C1626 C 0.32965 0.41062 0.62663 0.0
C1627 C 0.31503 0.41204 0.55394 0.0
C1628 C 0.31649 0.42382 0.51547 0.0
C1629 C 0.33109 0.42189 0.5879 0.0
C1630 C 0.33459 0.44543 0.51207 0.0
C1631 C 0.35053 0.45511 0.54504 0.0
H1632 H 0.76691 0.72651 0.3938 0.0
H1633 H 0.79509 0.78665 0.32027 0.0
H1634 H 0.7857 0.8044 0.37799 0.0
H1635 H 0.77104 0.80376 0.45141 0.0
H1636 H 0.7439 0.74401 0.52618 0.0
H1637 H 0.75199 0.72567 0.46726 0.0
C1638 C 0.77076 0.74332 0.38962 0.0
C1639 C 0.78138 0.75481 0.3511 0.0
C1640 C 0.76585 0.75379 0.42415 0.0
C1641 C 0.78655 0.777 0.34838 0.0
C1642 C 0.78132 0.78729 0.38185 0.0
C1643 C 0.76675 0.78665 0.4549 0.0
C1644 C 0.75668 0.7754 0.49385 0.0
C1645 C 0.77121 0.77601 0.42022 0.0
C1646 C 0.75145 0.75322 0.49707 0.0
C1647 C 0.75606 0.74265 0.46301 0.0
H1648 H 0.21563 0.95732 0.43029 0.0
H1649 H 0.24454 0.004 0.53428 0.0
H1650 H 0.259 0.03456 0.48243 0.0
H1651 H 0.26267 0.0485 0.40694 0.0
H1652 H 0.2379 0.00185 0.30235 0.0
H1653 H 0.22298 0.97123 0.35419 0.0
C1654 C 0.22537 0.97413 0.44175 0.0
C1655 C 0.22891 0.97804 0.4869 0.0
C1656 C 0.23452 0.99185 0.41118 0.0
C1657 C 0.24152 1.0002 0.50027 0.0
C1658 C 0.24983 0.01779 0.47037 0.0
C1659 C 0.25452 0.03169 0.39522 0.0
C1660 C 0.25191 0.02783 0.34999 0.0
C1661 C 0.24645 0.01393 0.42563 0.0
C1662 C 0.24058 0.00563 0.33641 0.0
C1663 C 0.23189 0.988 0.36632 0.0
H1664 H 0.96771 0.19571 0.38908 0.0
H1665 H 0.99087 0.2588 0.32871 0.0
H1666 H 0.01567 0.27694 0.38998 0.0
H1667 H 0.03315 0.27528 0.46067 0.0
H1668 H 0.00975 0.21145 0.51852 0.0
H1669 H 0.98359 0.19393 0.45961 0.0
C1670 C 0.97825 0.2135 0.38901 0.0
C1671 C 0.97698 0.22569 0.3535 0.0
C1672 C 0.99293 0.22403 0.42461 0.0
C1673 C 0.99101 0.24876 0.35505 0.0
C1674 C 0.00558 0.25925 0.39022 0.0
C1675 C 0.02206 0.25762 0.46091 0.0
C1676 C 0.02359 0.24497 0.49546 0.0
C1677 C 0.0069 0.24719 0.42546 0.0
C1678 C 0.00914 0.22192 0.49349 0.0
C1679 C 0.99409 0.21172 0.45928 0.0
H1680 H 0.24821 0.20617 0.90062 0.0
H1681 H 0.26794 0.26442 0.82427 0.0
H1682 H 0.25734 0.28076 0.88301 0.0
H1683 H 0.24085 0.27806 0.95663 0.0
H1684 H 0.22081 0.21917 1.03116 0.0
H1685 H 0.23352 0.20412 0.97412 0.0
C1686 C 0.25041 0.22255 0.89679 0.0
C1687 C 0.25916 0.23397 0.85747 0.0
C1688 C 0.24446 0.23205 0.9313 0.0
C1689 C 0.26172 0.25522 0.8539 0.0
C1690 C 0.25559 0.26463 0.8878 0.0
C1691 C 0.23988 0.26225 0.96099 0.0
C1692 C 0.23033 0.25015 0.99948 0.0
C1693 C 0.24688 0.25326 0.9269 0.0
C1694 C 0.22843 0.22919 1.0029 0.0
C1695 C 0.23556 0.22042 0.96986 0.0
H1696 H 0.76132 0.03555 0.8952 0.0
H1697 H 0.79905 0.01221 0.82632 0.0
H1698 H 0.79185 0.98533 0.88349 0.0
H1699 H 0.77578 0.96873 0.95509 0.0
H1700 H 0.73865 0.99258 1.02475 0.0
H1701 H 0.74562 0.01935 0.9672 0.0
C1702 C 0.76778 0.02451 0.89195 0.0
C1703 C 0.78038 0.02597 0.85474 0.0
C1704 C 0.76405 0.00926 0.92625 0.0
C1705 C 0.7889 0.01147 0.85331 0.0
C1706 C 0.78492 0.99608 0.88651 0.0
C1707 C 0.76908 0.9797 0.95775 0.0
C1708 C 0.75655 0.9783 0.99499 0.0
C1709 C 0.77267 0.99486 0.92348 0.0
C1710 C 0.74816 0.99288 0.997 0.0
C1711 C 0.75206 0.00822 0.96363 0.0
H1712 H 0.02402 0.75022 0.97368 0.0
H1713 H 0.02664 0.81272 0.9895 0.0
H1714 H 1.0022 0.80472 0.92819 0.0
H1715 H 0.98015 0.78067 0.86797 0.0
H1716 H 0.9777 0.71874 0.84873 0.0
H1717 H 1.00071 0.72533 0.9128 0.0
C1718 C 0.01923 0.76205 0.96403 0.0
C1719 C 0.02767 0.78225 0.98729 0.0
C1720 C 0.00496 0.75745 0.92727 0.0
C1721 C 0.02083 0.7971 0.9731 0.0
C1722 C 0.00672 0.79256 0.93753 0.0
C1723 C 0.9848 0.76861 0.87727 0.0
C1724 C 0.97681 0.74898 0.85256 0.0
C1725 C 0.99878 0.77293 0.91393 0.0
C1726 C 0.98329 0.73387 0.86622 0.0
C1727 C 0.9968 0.73782 0.90306 0.0
H1728 H 0.9692 0.35863 0.99274 0.0
H1729 H 0.0338 0.36523 0.99452 0.0
H1730 H 0.03038 0.35539 0.91789 0.0
H1731 H 0.01101 0.35013 0.84918 0.0
H1732 H 0.94952 0.35093 0.84696 0.0
H1733 H 0.94907 0.35153 0.92481 0.0
C1734 C 0.98219 0.3573 0.97632 0.0
C1735 C 1.00156 0.36228 0.9985 0.0
C1736 C 0.9806 0.35301 0.93215 0.0
C1737 C 0.01866 0.36109 0.97753 0.0
C1738 C 0.01674 0.35566 0.93388 0.0
C1739 C 0.99753 0.3505 0.86562 0.0
C1740 C 0.98047 0.3507 0.84185 0.0
C1741 C 0.99813 0.35247 0.91054 0.0
C1742 C 0.96276 0.35041 0.86401 0.0
C1743 C 0.96259 0.35106 0.90875 0.0
H1744 H 0.67267 0.65291 0.99539 0.0
H1745 H 0.61979 0.66786 1.00203 0.0
H1746 H 0.61873 0.66926 0.92387 0.0
H1747 H 0.6273 0.6585 0.85432 0.0
H1748 H 0.67372 0.63531 0.84964 0.0
H1749 H 0.68299 0.64464 0.92583 0.0
C1750 C 0.66101 0.65661 0.97973 0.0
C1751 C 0.64614 0.65992 1.00456 0.0
C1752 C 0.65927 0.65566 0.93484 0.0
C1753 C 0.63156 0.66536 0.98384 0.0
C1754 C 0.63073 0.66589 0.93901 0.0
C1755 C 0.63994 0.65625 0.86997 0.0
C1756 C 0.65043 0.64688 0.84698 0.0
C1757 C 0.64371 0.65998 0.91429 0.0
C1758 C 0.66626 0.64327 0.86713 0.0
C1759 C 0.6712 0.64826 0.91057 0.0
H1760 H 0.36072 0.01097 0.98277 0.0
H1761 H 0.33488 0.94058 0.98494 0.0
H1762 H 0.32913 0.93882 0.90718 0.0
H1763 H 0.33902 0.95866 0.83774 0.0
H1764 H 0.3678 0.02932 0.83701 0.0
H1765 H 0.36401 0.02961 0.91504 0.0
C1766 C 0.35304 0.99508 0.9667 0.0
C1767 C 0.34866 0.976 0.98962 0.0
C1768 C 0.35046 0.99433 0.92196 0.0
C1769 C 0.33893 0.95562 0.96789 0.0
C1770 C 0.33562 0.95459 0.9234 0.0
C1771 C 0.34364 0.97392 0.85476 0.0
C1772 C 0.35371 0.99396 0.83226 0.0
C1773 C 0.34247 0.97403 0.89986 0.0
C1774 C 0.35994 0.01377 0.85415 0.0
C1775 C 0.35797 0.01393 0.89867 0.0
H1776 H 0.96848 0.62496 0.35406 0.0
H1777 H 0.03906 0.65644 0.33824 0.0
H1778 H 0.04439 0.66442 0.41545 0.0
H1779 H 0.0285 0.65585 0.48721 0.0
H1780 H 0.95786 0.62677 0.50355 0.0
H1781 H 0.95298 0.62406 0.42579 0.0
C1782 C 0.985 0.63415 0.36753 0.0
C1783 C 0.00334 0.63988 0.3411 0.0
C1784 C 0.98787 0.63855 0.41175 0.0
C1785 C 0.02474 0.65186 0.3583 0.0
C1786 C 0.02776 0.65625 0.40237 0.0
C1787 C 0.01204 0.64973 0.47428 0.0
C1788 C 0.9935 0.64076 0.50168 0.0
C1789 C 0.00937 0.64876 0.42955 0.0
C1790 C 0.97239 0.63286 0.48345 0.0
C1791 C 0.96957 0.63153 0.43887 0.0
H1792 H 0.33147 0.34315 0.3423 0.0
H1793 H 0.35041 0.41106 0.31981 0.0
H1794 H 0.35156 0.41762 0.39724 0.0
H1795 H 0.35729 0.40646 0.46758 0.0
H1796 H 0.33546 0.33765 0.49251 0.0
H1797 H 0.32582 0.32917 0.41703 0.0
C1798 C 0.33467 0.35901 0.35455 0.0
C1799 C 0.34114 0.37671 0.32605 0.0
C1800 C 0.33591 0.36278 0.39906 0.0
C1801 C 0.34535 0.39727 0.34162 0.0
C1802 C 0.34638 0.40109 0.38581 0.0
C1803 C 0.3497 0.38938 0.45771 0.0
C1804 C 0.34862 0.37307 0.48594 0.0
C1805 C 0.34329 0.38435 0.41459 0.0
C1806 C 0.33823 0.35103 0.47125 0.0
C1807 C 0.33223 0.34599 0.42808 0.0
H1808 H 0.64502 0.98748 0.352 0.0
H1809 H 0.6662 0.05701 0.35302 0.0
H1810 H 0.67479 0.05906 0.42914 0.0
H1811 H 0.66854 0.0394 0.4977 0.0
H1812 H 0.64394 0.9694 0.49718 0.0
H1813 H 0.64542 0.96932 0.41859 0.0
C1814 C 0.65224 0.00329 0.36828 0.0
C1815 C 0.65472 0.02202 0.34647 0.0
C1816 C 0.65648 0.0042 0.41254 0.0
C1817 C 0.66381 0.04224 0.36876 0.0
C1818 C 0.66875 0.04345 0.41251 0.0
C1819 C 0.66448 0.0244 0.48021 0.0
C1820 C 0.65611 0.00444 0.50255 0.0
C1821 C 0.66408 0.02431 0.43511 0.0
C1822 C 0.65055 0.98492 0.48012 0.0
C1823 C 0.65109 0.98486 0.4353 0.0
H1824 H 0.71195 0.73877 0.31501 0.0
H1825 H 0.66762 0.66877 0.33308 0.0
H1826 H 0.6634 0.66382 0.25519 0.0
H1827 H 0.66813 0.68074 0.18303 0.0
H1828 H 0.71327 0.75039 0.16758 0.0
H1829 H 0.72248 0.7539 0.2441 0.0
C1830 C 0.70206 0.72216 0.30264 0.0
C1831 C 0.68972 0.7043 0.3305 0.0
C1832 C 0.69995 0.71937 0.25817 0.0
C1833 C 0.67667 0.68307 0.31269 0.0
C1834 C 0.6744 0.68014 0.26808 0.0
C1835 C 0.68043 0.69645 0.19649 0.0
C1836 C 0.68996 0.71536 0.1706 0.0
C1837 C 0.68525 0.69838 0.24063 0.0
C1838 C 0.70587 0.73574 0.18757 0.0
C1839 C 0.71097 0.73774 0.23115 0.0
H1840 H 0.28634 0.9865 0.1759 0.0
H1841 H 0.34346 0.97843 0.17719 0.0
H1842 H 0.35026 0.98955 0.25303 0.0
H1843 H 0.33561 0.99437 0.3209 0.0
H1844 H 0.27257 0.99208 0.32069 0.0
H1845 H 0.2732 0.99397 0.24313 0.0
C1846 C 0.30066 0.98794 0.19269 0.0
C1847 C 0.31465 0.9821 0.17156 0.0
C1848 C 0.30326 0.99247 0.23681 0.0
C1849 C 0.33287 0.98337 0.19316 0.0
C1850 C 0.33654 0.98947 0.23647 0.0
C1851 C 0.32188 0.99411 0.3041 0.0
C1852 C 0.30374 0.99232 0.32725 0.0
C1853 C 0.32113 0.99286 0.2591 0.0
C1854 C 0.28686 0.99345 0.3045 0.0
C1855 C 0.28697 0.99418 0.25972 0.0
H1856 H 0.04558 0.36933 0.33056 0.0
H1857 H 0.00454 0.29858 0.3253 0.0
H1858 H 0.99767 0.30042 0.24864 0.0
H1859 H 0.01134 0.32114 0.18203 0.0
H1860 H 0.05542 0.39164 0.18633 0.0
H1861 H 0.05271 0.3911 0.26458 0.0
C1862 C 0.03448 0.35445 0.31284 0.0
C1863 C 0.02595 0.33381 0.33273 0.0
C1864 C 0.03153 0.35562 0.26854 0.0
C1865 C 0.01157 0.31456 0.30992 0.0
C1866 C 0.00773 0.31564 0.26623 0.0
C1867 C 0.01963 0.33655 0.19978 0.0
C1868 C 0.03395 0.35634 0.17844 0.0
C1869 C 0.01883 0.33595 0.24476 0.0
C1870 C 0.04466 0.3761 0.20216 0.0
C1871 C 0.04318 0.37581 0.24691 0.0
H1872 H 0.70936 0.98354 0.66302 0.0
H1873 H 0.64568 0.97797 0.67726 0.0
H1874 H 0.65181 0.98514 0.75425 0.0
H1875 H 0.67153 0.98458 0.81775 0.0
H1876 H 0.72777 0.97491 0.80292 0.0
H1877 H 0.7295 0.98357 0.72734 0.0
C1878 C 0.69727 0.98475 0.68295 0.0
C1879 C 0.67746 0.98137 0.66459 0.0
C1880 C 0.69968 0.98575 0.72769 0.0
C1881 C 0.66144 0.98191 0.69065 0.0
C1882 C 0.66481 0.98545 0.73472 0.0
C1883 C 0.6839 0.98374 0.79819 0.0
C1884 C 0.69864 0.97781 0.81642 0.0
C1885 C 0.68325 0.986 0.75375 0.0
C1886 C 0.7158 0.97901 0.79058 0.0
C1887 C 0.71673 0.98375 0.74681 0.0
H1888 H 0.01259 0.66971 0.6756 0.0
H1889 H 0.99853 0.7222 0.65397 0.0
H1890 H 0.99471 0.72537 0.73176 0.0
H1891 H 0.00483 0.71928 0.80424 0.0
H1892 H 0.02132 0.66812 0.82435 0.0
H1893 H 0.01447 0.65805 0.74867 0.0
C1894 C 0.00774 0.68113 0.68791 0.0
C1895 C 0.00614 0.6959 0.65971 0.0
C1896 C 0.00662 0.68345 0.73233 0.0
C1897 C 0.99987 0.71074 0.6755 0.0
C1898 C 0.99801 0.71273 0.71988 0.0
C1899 C 0.0063 0.70553 0.79237 0.0
C1900 C 0.01392 0.69475 0.81984 0.0
C1901 C 0.00286 0.70017 0.74852 0.0
C1902 C 0.01552 0.67676 0.80402 0.0
C1903 C 0.01175 0.67106 0.76061 0.0
H1904 H 0.29672 0.30891 0.82269 0.0
H1905 H 0.33009 0.37989 0.8371 0.0
H1906 H 0.33748 0.38422 0.76013 0.0
H1907 H 0.32719 0.36755 0.68894 0.0
H1908 H 0.29799 0.29684 0.67497 0.0
H1909 H 0.2969 0.29292 0.75291 0.0
C1910 C 0.30639 0.32542 0.80977 0.0
C1911 C 0.31181 0.34401 0.83561 0.0
C1912 C 0.31103 0.32787 0.76566 0.0
C1913 C 0.32456 0.36519 0.81765 0.0
C1914 C 0.32901 0.36773 0.77365 0.0
C1915 C 0.32138 0.35128 0.7023 0.0
C1916 C 0.31149 0.3324 0.67575 0.0
C1917 C 0.32114 0.34911 0.7471 0.0
C1918 C 0.30447 0.3116 0.69455 0.0
C1919 C 0.304 0.30932 0.73919 0.0
H1920 H 0.30437 0.00739 0.66946 0.0
H1921 H 0.37539 0.04028 0.66711 0.0
H1922 H 0.37504 0.03734 0.58893 0.0
H1923 H 0.35513 0.03287 0.52232 0.0
H1924 H 0.28463 0.00669 0.52502 0.0
H1925 H 0.28395 0.99952 0.60186 0.0
C1926 C 0.31967 0.01312 0.65188 0.0
C1927 C 0.33995 0.02357 0.67378 0.0
C1928 C 0.31935 0.01307 0.6069 0.0
C1929 C 0.35968 0.03158 0.65063 0.0
C1930 C 0.35946 0.03023 0.60603 0.0
C1931 C 0.33952 0.0249 0.5394 0.0
C1932 C 0.31997 0.02025 0.5181 0.0
C1933 C 0.33946 0.02204 0.58384 0.0
C1934 C 0.29994 0.01053 0.54089 0.0
C1935 C 0.29953 0.00644 0.58481 0.0
H1936 H 0.97762 0.32113 0.5102 0.0
H1937 H 0.00947 0.28204 0.51759 0.0
H1938 H 0.01273 0.28686 0.59584 0.0
H1939 H 0.99929 0.29568 0.66229 0.0
H1940 H 0.9593 0.3264 0.65104 0.0
H1941 H 0.96698 0.3322 0.57468 0.0
C1942 C 0.9861 0.3144 0.52863 0.0
C1943 C 0.99346 0.30141 0.50827 0.0
C1944 C 0.98619 0.31569 0.57335 0.0
C1945 C 0.00376 0.2922 0.53277 0.0
C1946 C 0.00544 0.29479 0.57746 0.0
C1947 C 0.99289 0.3042 0.64308 0.0
C1948 C 0.97937 0.31132 0.66225 0.0
C1949 C 0.9956 0.3055 0.59825 0.0
C1950 C 0.97049 0.32168 0.63715 0.0
C1951 C 0.97458 0.32465 0.59335 0.0
H1952 H 0.69274 0.62587 0.63973 0.0
H1953 H 0.67389 0.67503 0.66571 0.0
H1954 H 0.66907 0.67819 0.58909 0.0
H1955 H 0.67551 0.67093 0.51443 0.0
H1956 H 0.69346 0.62125 0.48969 0.0
H1957 H 0.69195 0.61346 0.56655 0.0
C1958 C 0.68676 0.63674 0.62944 0.0
C1959 C 0.68427 0.65056 0.65925 0.0
C1960 C 0.68375 0.63835 0.58526 0.0
C1961 C 0.67678 0.66467 0.64396 0.0
C1962 C 0.67381 0.6664 0.59995 0.0
C1963 C 0.67853 0.65802 0.52594 0.0
C1964 C 0.68489 0.64689 0.4967 0.0
C1965 C 0.67813 0.65398 0.57025 0.0
C1966 C 0.68848 0.63 0.51165 0.0
C1967 C 0.68788 0.62572 0.55563 0.0
H1968 H 0.37783 0.33432 1.00331 0.0
H1969 H 0.31181 0.32346 1.01706 0.0
H1970 H 0.31631 0.32699 0.09517 0.0
H1971 H 0.33581 0.32487 0.15851 0.0
H1972 H 0.40025 0.33129 0.14461 0.0
H1973 H 0.39977 0.33797 0.06772 0.0
C1974 C 0.36482 0.3336 1.02349 0.0
C1975 C 0.34452 0.32858 1.00495 0.0
C1976 C 0.36708 0.33428 0.06835 0.0
C1977 C 0.32755 0.32732 1.03097 0.0
C1978 C 0.33007 0.32913 0.07557 0.0
C1979 C 0.35007 0.32841 0.13901 0.0
C1980 C 0.36793 0.32732 0.15724 0.0
C1981 C 0.34928 0.33133 0.09461 0.0
C1982 C 0.38612 0.33165 0.13125 0.0
C1983 C 0.38588 0.33551 0.08727 0.0
H1984 H 0.6727 0.03837 1.0008 0.0
H1985 H 0.6717 0.97623 1.00442 0.0
H1986 H 0.67325 0.97768 0.08293 0.0
H1987 H 0.68389 1.00102 0.14752 0.0
H1988 H 0.68379 0.06269 0.1439 0.0
H1989 H 0.67325 0.05675 0.06817 0.0
C1990 C 0.67182 0.02463 1.01865 0.0
C1991 C 0.67304 0.00768 0.99679 0.0
C1992 C 0.67312 0.02579 0.0637 0.0
C1993 C 0.6716 0.98989 1.0206 0.0
C1994 C 0.67256 0.99075 0.06548 0.0
C1995 C 0.68088 0.01285 0.13071 0.0
C1996 C 0.68561 0.03275 0.15087 0.0
C1997 C 0.67484 0.00937 0.08708 0.0
C1998 C 0.68128 0.0477 0.12855 0.0
C1999 C 0.6751 0.04426 0.0853 0.0
H2000 H 0.96388 0.64073 1.01389 0.0
H2001 H 0.99761 0.71186 1.01894 0.0
H2002 H 0.00325 0.71089 0.09652 0.0
H2003 H 0.99202 0.68947 0.16366 0.0
H2004 H 0.95581 0.61833 0.1575 0.0
H2005 H 0.95828 0.61963 0.07938 0.0
C2006 C 0.97315 0.65607 1.03161 0.0
C2007 C 0.97998 0.67631 1.011 0.0
C2008 C 0.97566 0.65534 0.07612 0.0
C2009 C 0.99182 0.69604 1.03447 0.0
C2010 C 0.995 0.69549 0.07875 0.0
C2011 C 0.98534 0.67426 0.14532 0.0
C2012 C 0.97367 0.65379 0.16637 0.0
C2013 C 0.98599 0.67517 0.1002 0.0
C2014 C 0.96486 0.63426 0.14202 0.0
C2015 C 0.96612 0.635 0.09733 0.0
H2016 H 0.08396 0.55108 0.99048 0.0
H2017 H 0.03915 0.49228 0.91996 0.0
H2018 H 0.03332 0.46998 0.98434 0.0
H2019 H 0.04095 0.46671 0.06186 0.0
H2020 H 0.08591 0.52595 0.13129 0.0
H2021 H 0.09161 0.54791 0.06694 0.0
C2022 C 0.07302 0.53337 0.98883 0.0
C2023 C 0.06204 0.52368 0.9496 0.0
C2024 C 0.06971 0.52042 1.02634 0.0
C2025 C 0.04768 0.50058 0.94926 0.0
C2026 C 0.04441 0.48765 0.98629 0.0
C2027 C 0.05209 0.4844 0.06295 0.0
C2028 C 0.06301 0.49438 0.10213 0.0
C2029 C 0.05533 0.49732 1.02521 0.0
C2030 C 0.07723 0.51748 0.10221 0.0
C2031 C 0.08054 0.53023 0.06513 0.0
H2032 H 0.49788 0.54867 0.11404 0.0
H2033 H 0.5566 0.60168 0.05653 0.0
H2034 H 0.54009 0.58996 0.98491 0.0
H2035 H 0.50863 0.56474 0.93755 0.0
H2036 H 0.45048 0.51104 0.99562 0.0
H2037 H 0.46698 0.52295 0.06677 0.0
C2038 C 0.50713 0.55775 0.08594 0.0
C2039 C 0.52864 0.57621 0.09143 0.0
C2040 C 0.49751 0.55076 1.04428 0.0
C2041 C 0.54016 0.58744 0.05398 0.0
C2042 C 0.53064 0.58072 1.0127 0.0
C2043 C 0.49952 0.55545 0.96557 0.0
C2044 C 0.47792 0.53697 0.96012 0.0
C2045 C 0.50929 0.56236 1.00724 0.0
C2046 C 0.46673 0.52555 0.99779 0.0
C2047 C 0.47629 0.5323 1.03895 0.0
H2048 H 0.42438 0.95944 0.05432 0.0
H2049 H 0.45179 0.92614 0.127 0.0
H2050 H 0.46891 0.92207 0.06216 0.0
H2051 H 0.47669 0.92792 0.98433 0.0
H2052 H 0.44851 0.96013 0.91046 0.0
H2053 H 0.43178 0.96479 0.97546 0.0
C2054 C 0.43402 0.95122 0.05605 0.0
C2055 C 0.43648 0.94304 0.09622 0.0
C2056 C 0.44401 0.94879 1.01801 0.0
C2057 C 0.44925 0.93253 0.0971 0.0
C2058 C 0.45921 0.93021 0.05975 0.0
C2059 C 0.46674 0.93579 0.98203 0.0
C2060 C 0.46425 0.94373 0.94158 0.0
C2061 C 0.45673 0.93821 1.01989 0.0
C2062 C 0.45139 0.95416 0.94055 0.0
C2063 C 0.44152 0.9567 0.97799 0.0
H2064 H 0.45849 0.04504 0.78107 0.0
H2065 H 0.51419 0.05687 0.70226 0.0
H2066 H 0.53627 0.0619 0.76621 0.0
H2067 H 0.54072 0.06372 0.84506 0.0
H2068 H 0.48575 0.05267 0.92517 0.0
H2069 H 0.46297 0.04649 0.86122 0.0
C2070 C 0.47544 0.04869 0.77785 0.0
C2071 C 0.48447 0.05075 0.73615 0.0
C2072 C 0.48847 0.05177 0.81547 0.0
C2073 C 0.50658 0.05544 0.73333 0.0
C2074 C 0.51938 0.05829 0.77019 0.0
C2075 C 0.52382 0.06013 0.84881 0.0
C2076 C 0.51527 0.05871 0.89074 0.0
C2077 C 0.51065 0.05672 0.81152 0.0
C2078 C 0.49303 0.05362 0.89395 0.0
C2079 C 0.47989 0.0502 0.85708 0.0
H2080 H 0.93742 0.44833 0.72509 0.0
H2081 H 0.95782 0.40489 0.78103 0.0
H2082 H 0.95336 0.41606 0.85322 0.0
H2083 H 0.94369 0.43834 0.90154 0.0
H2084 H 0.92249 0.48109 0.84488 0.0
H2085 H 0.92759 0.47034 0.77321 0.0
C2086 C 0.94088 0.44122 0.75297 0.0
C2087 C 0.94793 0.42559 0.74685 0.0
C2088 C 0.93827 0.44778 0.79494 0.0
C2089 C 0.9524 0.41688 0.78401 0.0
C2090 C 0.94981 0.42329 0.82564 0.0
C2091 C 0.93997 0.44525 0.87371 0.0
C2092 C 0.9328 0.46084 0.8798 0.0
C2093 C 0.94271 0.43873 0.8317 0.0
C2094 C 0.92846 0.46954 0.84235 0.0
C2095 C 0.9312 0.4632 0.80085 0.0
H2096 H 0.55647 0.49865 0.90335 0.0
H2097 H 0.50841 0.43703 0.84507 0.0
H2098 H 0.52127 0.45269 0.77366 0.0
H2099 H 0.54672 0.4839 0.72626 0.0
H2100 H 0.59476 0.5453 0.78511 0.0
H2101 H 0.58169 0.52966 0.85645 0.0
C2102 C 0.54884 0.48844 0.87524 0.0
C2103 C 0.53125 0.46644 0.8807 0.0
C2104 C 0.5565 0.49757 0.83358 0.0
C2105 C 0.52162 0.45401 0.84291 0.0
C2106 C 0.52915 0.46295 0.80161 0.0
C2107 C 0.55448 0.49384 0.75465 0.0
C2108 C 0.57194 0.5159 0.74959 0.0
C2109 C 0.54667 0.48471 0.79633 0.0
C2110 C 0.58136 0.5284 0.7873 0.0
C2111 C 0.57385 0.5194 0.82847 0.0
H2112 H 0.93065 0.47942 0.22393 0.0
H2113 H 0.95194 0.54393 0.27724 0.0
H2114 H 0.94983 0.52968 0.34975 0.0
H2115 H 0.9425 0.49902 0.39926 0.0
H2116 H 0.92067 0.43423 0.34644 0.0
H2117 H 0.92289 0.44849 0.27392 0.0
C2118 C 0.93474 0.49038 0.25135 0.0
C2119 C 0.94156 0.51293 0.2443 0.0
C2120 C 0.93361 0.482 0.29375 0.0
C2121 C 0.94685 0.52665 0.28086 0.0
C2122 C 0.94559 0.51844 0.32274 0.0
C2123 C 0.93798 0.48783 0.37214 0.0
C2124 C 0.9315 0.46535 0.37951 0.0
C2125 C 0.93907 0.49615 0.32978 0.0
C2126 C 0.92614 0.45159 0.34286 0.0
C2127 C 0.9272 0.45974 0.3009 0.0
H2128 H 0.54392 0.47339 0.35111 0.0
H2129 H 0.48718 0.43874 0.43378 0.0
H2130 H 0.46353 0.42209 0.37095 0.0
H2131 H 0.45846 0.41663 0.29114 0.0
H2132 H 0.51581 0.45115 0.20974 0.0
H2133 H 0.53904 0.4679 0.27251 0.0
C2134 C 0.52643 0.46207 0.35576 0.0
C2135 C 0.51771 0.45768 0.39812 0.0
C2136 C 0.51268 0.45221 0.31906 0.0
C2137 C 0.49472 0.44304 0.40224 0.0
C2138 C 0.48103 0.43326 0.36599 0.0
C2139 C 0.47603 0.42778 0.28705 0.0
C2140 C 0.48507 0.43225 0.2449 0.0
C2141 C 0.48974 0.43764 0.32402 0.0
C2142 C 0.50804 0.44694 0.24111 0.0
C2143 C 0.52153 0.45672 0.27732 0.0
H2144 H 0.5508 0.06862 0.22018 0.0
H2145 H 0.5879 0.04033 0.27477 0.0
H2146 H 0.57499 0.04233 0.34642 0.0
H2147 H 0.55296 0.05181 0.39483 0.0
H2148 H 0.51606 0.08051 0.34107 0.0
H2149 H 0.52868 0.07825 0.26907 0.0
C2150 C 0.55617 0.06296 0.24769 0.0
C2151 C 0.57058 0.05445 0.2413 0.0
C2152 C 0.5485 0.06404 0.28959 0.0
C2153 C 0.57701 0.04707 0.27791 0.0
C2154 C 0.56956 0.04817 0.3193 0.0
C2155 C 0.54776 0.05779 0.36759 0.0
C2156 C 0.53335 0.0663 0.37433 0.0
C2157 C 0.5553 0.05664 0.32571 0.0
C2158 C 0.52673 0.07352 0.3377 0.0
C2159 C 0.53414 0.0724 0.29615 0.0
H2160 H 0.49532 0.94778 0.61046 0.0
H2161 H 0.55503 0.9561 0.55239 0.0
H2162 H 0.53801 0.95003 0.48102 0.0
H2163 H 0.50569 0.94142 0.43429 0.0
H2164 H 0.44641 0.93413 0.49285 0.0
H2165 H 0.46358 0.94046 0.5637 0.0
C2166 C 0.50467 0.94824 0.58228 0.0
C2167 C 0.52658 0.95235 0.58748 0.0
C2168 C 0.49472 0.94477 0.54085 0.0
C2169 C 0.53826 0.95306 0.55 0.0
C2170 C 0.52846 0.94952 0.50889 0.0
C2171 C 0.49648 0.94138 0.46235 0.0
C2172 C 0.47439 0.93692 0.45725 0.0
C2173 C 0.50663 0.94526 0.50375 0.0
C2174 C 0.46307 0.93689 0.49489 0.0
C2175 C 0.473 0.94071 0.53582 0.0
H2176 H 0.0679 0.5272 0.49186 0.0
H2177 H 0.06087 0.573 0.40958 0.0
H2178 H 0.05345 0.58934 0.4723 0.0
H2179 H 0.04932 0.59129 0.55232 0.0
H2180 H 0.05604 0.54452 0.63252 0.0
H2181 H 0.06258 0.52815 0.56975 0.0
C2182 C 0.06449 0.54057 0.48723 0.0
C2183 C 0.06522 0.54871 0.44518 0.0
C2184 C 0.06004 0.54996 0.52375 0.0
C2185 C 0.06097 0.56639 0.44104 0.0
C2186 C 0.05652 0.57576 0.47718 0.0
C2187 C 0.05208 0.57745 0.55606 0.0
C2188 C 0.0522 0.56946 0.59799 0.0
C2189 C 0.05611 0.56782 0.51899 0.0
C2190 C 0.05594 0.55144 0.60139 0.0
C2191 C 0.05972 0.54187 0.56516 0.0
H2192 H 0.44737 0.50199 0.43886 0.0
H2193 H 0.49779 0.56338 0.4941 0.0
H2194 H 0.48564 0.54858 0.56623 0.0
H2195 H 0.4603 0.51811 0.6153 0.0
H2196 H 0.40971 0.45709 0.55941 0.0
H2197 H 0.42196 0.47195 0.48732 0.0
C2198 C 0.45567 0.51237 0.46643 0.0
C2199 C 0.47375 0.53401 0.4598 0.0
C2200 C 0.44838 0.50377 0.50858 0.0
C2201 C 0.4842 0.54663 0.49702 0.0
C2202 C 0.47707 0.53819 0.53879 0.0
C2203 C 0.4518 0.50811 0.5874 0.0
C2204 C 0.4339 0.48637 0.59355 0.0
C2205 C 0.45912 0.51678 0.54521 0.0
C2206 C 0.42349 0.47377 0.55641 0.0
C2207 C 0.43052 0.4823 0.51479 0.0
H2208 H 0.73326 0.83692 0.27819 0.0
H2209 H 0.75422 0.90035 0.33686 0.0
H2210 H 0.75007 0.88417 0.40807 0.0
H2211 H 0.74098 0.85214 0.45499 0.0
H2212 H 0.72018 0.78868 0.39698 0.0
H2213 H 0.72407 0.80473 0.32531 0.0
C2214 C 0.7371 0.84734 0.30641 0.0
C2215 C 0.744 0.87005 0.3012 0.0
C2216 C 0.7348 0.83787 0.348 0.0
C2217 C 0.74851 0.88287 0.33895 0.0
C2218 C 0.74631 0.87361 0.38009 0.0
C2219 C 0.73738 0.84177 0.42674 0.0
C2220 C 0.73035 0.81909 0.43199 0.0
C2221 C 0.73952 0.85115 0.38518 0.0
C2222 C 0.72558 0.8061 0.3945 0.0
C2223 C 0.72783 0.81532 0.35323 0.0
H2224 H 0.12896 0.85711 0.32348 0.0
H2225 H 0.18305 0.90145 0.24212 0.0
H2226 H 0.20595 0.91882 0.30559 0.0
H2227 H 0.21085 0.92218 0.38547 0.0
H2228 H 0.15618 0.87779 0.4658 0.0
H2229 H 0.13381 0.86021 0.40234 0.0
C2230 C 0.14569 0.87067 0.31938 0.0
C2231 C 0.15399 0.8777 0.27727 0.0
C2232 C 0.15894 0.88083 0.35639 0.0
C2233 C 0.17601 0.8952 0.27353 0.0
C2234 C 0.18921 0.90536 0.31011 0.0
C2235 C 0.19405 0.90868 0.38916 0.0
C2236 C 0.18539 0.90168 0.4311 0.0
C2237 C 0.1809 0.8984 0.3519 0.0
C2238 C 0.16348 0.88398 0.43451 0.0
C2239 C 0.15054 0.87374 0.39795 0.0
H2240 H 0.12793 0.24007 0.33106 0.0
H2241 H 0.12775 0.29349 0.26208 0.0
H2242 H 0.11218 0.30185 0.32483 0.0
H2243 H 0.09847 0.29421 0.40025 0.0
H2244 H 0.09955 0.24124 0.46932 0.0
H2245 H 0.11446 0.23256 0.40616 0.0
C2246 C 0.12438 0.25347 0.32951 0.0
C2247 C 0.12921 0.26609 0.29131 0.0
C2248 C 0.11541 0.25832 0.36611 0.0
C2249 C 0.12463 0.28358 0.29079 0.0
C2250 C 0.11553 0.28833 0.32679 0.0
C2251 C 0.10181 0.28066 0.40146 0.0
C2252 C 0.09764 0.26838 0.43998 0.0
C2253 C 0.11082 0.27584 0.36477 0.0
C2254 C 0.10244 0.25106 0.44054 0.0
C2255 C 0.11105 0.24604 0.40423 0.0
H2256 H 0.17204 0.39565 0.23498 0.0
H2257 H 0.23704 0.42171 0.17993 0.0
H2258 H 0.22156 0.41788 0.10787 0.0
H2259 H 0.18934 0.40719 0.05892 0.0
H2260 H 0.12465 0.38176 0.11502 0.0
H2261 H 0.14024 0.38569 0.18678 0.0
C2262 C 0.183 0.40075 0.20747 0.0
C2263 C 0.20592 0.40891 0.21402 0.0
C2264 C 0.17396 0.3987 0.16545 0.0
C2265 C 0.21939 0.41498 0.17692 0.0
C2266 C 0.21051 0.41297 0.13524 0.0
C2267 C 0.17862 0.40262 0.08679 0.0
C2268 C 0.15564 0.39415 0.08067 0.0
C2269 C 0.18778 0.40483 0.12888 0.0
C2270 C 0.14228 0.38826 0.11783 0.0
C2271 C 0.15123 0.3905 0.15933 0.0
H2272 H 0.6306 0.76215 0.1064 0.0
H2273 H 0.57881 0.76673 1.0395 0.0
H2274 H 0.57118 0.78153 0.10394 0.0
H2275 H 0.57913 0.79393 0.17957 0.0
H2276 H 0.63073 0.78955 0.2475 0.0
H2277 H 0.63842 0.77448 0.18315 0.0
C2278 C 0.61757 0.76629 0.10586 0.0
C2279 C 0.60536 0.76312 0.06736 0.0
C2280 C 0.61321 0.77512 0.1436 0.0
C2281 C 0.58863 0.76883 0.06801 0.0
C2282 C 0.58419 0.77739 0.10515 0.0
C2283 C 0.59197 0.78955 0.1807 0.0
C2284 C 0.60428 0.79315 0.21918 0.0
C2285 C 0.59636 0.7807 0.14321 0.0
C2286 C 0.62107 0.78749 0.21878 0.0
C2287 C 0.62543 0.77863 0.18178 0.0
H2288 H 0.19521 0.78482 0.17996 0.0
H2289 H 0.21958 0.84469 0.25449 0.0
H2290 H 0.23696 0.86662 0.19049 0.0
H2291 H 0.24588 0.86942 0.11251 0.0
H2292 H 0.22219 0.80958 1.03838 0.0
H2293 H 0.20457 0.78758 0.10239 0.0
C2294 C 0.20445 0.80265 0.18259 0.0
C2295 C 0.20564 0.81275 0.22296 0.0
C2296 C 0.21483 0.81547 0.14521 0.0
C2297 C 0.21767 0.83606 0.22444 0.0
C2298 C 0.22791 0.84879 0.18758 0.0
C2299 C 0.23697 0.85157 0.11023 0.0
C2300 C 0.23567 0.84141 0.06996 0.0
C2301 C 0.22666 0.83875 0.14765 0.0
C2302 C 0.22379 0.81813 0.06841 0.0
C2303 C 0.21357 0.80541 0.10527 0.0
H2304 H 0.59991 0.82719 0.72741 0.0
H2305 H 0.59006 0.76695 0.66872 0.0
H2306 H 0.59494 0.78343 0.59763 0.0
H2307 H 0.60244 0.81519 0.55076 0.0
H2308 H 0.61419 0.87599 0.60952 0.0
H2309 H 0.60845 0.85922 0.68087 0.0
C2310 C 0.59901 0.81761 0.69929 0.0
C2311 C 0.5943 0.79551 0.70445 0.0
C2312 C 0.60219 0.82738 0.65783 0.0
C2313 C 0.59307 0.78367 0.6667 0.0
C2314 C 0.59606 0.7932 0.62561 0.0
C2315 C 0.60357 0.82475 0.57912 0.0
C2316 C 0.60862 0.84691 0.57424 0.0
C2317 C 0.60055 0.81503 0.6206 0.0
C2318 C 0.61036 0.85898 0.61182 0.0
C2319 C 0.60705 0.84935 0.65287 0.0
H2320 H 0.17659 0.78657 0.55437 0.0
H2321 H 0.11554 0.73891 0.61452 0.0
H2322 H 0.13258 0.75077 0.68552 0.0
H2323 H 0.16491 0.77465 0.73164 0.0
H2324 H 0.22611 0.82201 0.67132 0.0
H2325 H 0.2089 0.81058 0.60059 0.0
C2326 C 0.16696 0.77868 0.58293 0.0
C2327 C 0.14464 0.76166 0.57837 0.0
C2328 C 0.17693 0.78568 0.62428 0.0
C2329 C 0.13263 0.75199 0.61634 0.0
C2330 C 0.14243 0.75878 0.65728 0.0
C2331 C 0.17466 0.78244 0.70317 0.0
C2332 C 0.19704 0.79942 0.70789 0.0
C2333 C 0.16462 0.77559 0.66183 0.0
C2334 C 0.2089 0.80927 0.66977 0.0
C2335 C 0.19905 0.80257 0.62884 0.0
H2336 H 0.2219 0.4065 0.55881 0.0
H2337 H 0.26309 0.38321 0.61458 0.0
H2338 H 0.2506 0.3859 0.68653 0.0
H2339 H 0.22755 0.39437 0.73474 0.0
H2340 H 0.18607 0.41741 0.67908 0.0
H2341 H 0.19866 0.41486 0.60725 0.0
C2342 C 0.22826 0.4021 0.58665 0.0
C2343 C 0.24361 0.39468 0.58055 0.0
C2344 C 0.22071 0.40342 0.62858 0.0
C2345 C 0.25132 0.38892 0.61758 0.0
C2346 C 0.24414 0.39047 0.65908 0.0
C2347 C 0.22131 0.39905 0.7071 0.0
C2348 C 0.20562 0.40604 0.71339 0.0
C2349 C 0.22877 0.39764 0.66517 0.0
C2350 C 0.19776 0.4116 0.67621 0.0
C2351 C 0.20515 0.41033 0.6347 0.0
H2352 H 0.11842 0.24298 0.83111 0.0
H2353 H 0.17186 0.29761 0.76435 0.0
H2354 H 0.19538 0.30604 0.82796 0.0
H2355 H 0.20123 0.29798 0.90367 0.0
H2356 H 0.14738 0.24317 0.96937 0.0
H2357 H 0.12422 0.23481 0.90564 0.0
C2358 C 0.13525 0.25664 0.83007 0.0
C2359 C 0.14303 0.26957 0.79221 0.0
C2360 C 0.14892 0.26144 0.86707 0.0
C2361 C 0.16497 0.28743 0.79267 0.0
C2362 C 0.17863 0.29221 0.82921 0.0
C2363 C 0.18448 0.28412 0.90403 0.0
C2364 C 0.17632 0.27127 0.94195 0.0
C2365 C 0.17086 0.27935 0.86677 0.0
C2366 C 0.15438 0.2535 0.94124 0.0
C2367 C 0.14097 0.24863 0.90454 0.0
H2368 H 0.71475 0.90798 0.89802 0.0
H2369 H 0.76457 0.9007 0.96633 0.0
H2370 H 0.77232 0.8861 0.90141 0.0
H2371 H 0.76467 0.8745 0.82496 0.0
H2372 H 0.71451 0.88127 0.75681 0.0
H2373 H 0.70722 0.89651 0.82132 0.0
C2374 C 0.7274 0.90333 0.89876 0.0
C2375 C 0.73905 0.90563 0.93761 0.0
C2376 C 0.73168 0.89457 0.86102 0.0
C2377 C 0.75526 0.89925 0.93738 0.0
C2378 C 0.75973 0.89082 0.90004 0.0
C2379 C 0.75223 0.87942 0.82395 0.0
C2380 C 0.74015 0.87646 0.7854 0.0
C2381 C 0.74801 0.88827 0.86161 0.0
C2382 C 0.72392 0.88285 0.78567 0.0
C2383 C 0.7198 0.89178 0.82271 0.0
H2384 H 0.12658 0.85038 0.9478 0.0
H2385 H 0.07157 0.79299 0.89041 0.0
H2386 H 0.08388 0.80862 0.81883 0.0
H2387 H 0.11047 0.8383 0.77144 0.0
H2388 H 0.16557 0.89599 0.82804 0.0
H2389 H 0.15332 0.88045 0.8998 0.0
C2390 C 0.11716 0.84138 0.91968 0.0
C2391 C 0.09801 0.82043 0.92506 0.0
C2392 C 0.12452 0.85047 0.8779 0.0
C2393 C 0.08635 0.80901 0.88778 0.0
C2394 C 0.0934 0.818 0.84654 0.0
C2395 C 0.11977 0.8477 0.79932 0.0
C2396 C 0.13909 0.86849 0.79339 0.0
C2397 C 0.1125 0.83869 0.84104 0.0
C2398 C 0.15089 0.87989 0.83068 0.0
C2399 C 0.14375 0.87105 0.87214 0.0
H2400 H 0.37994 0.12448 0.72372 0.0
H2401 H 0.39397 0.18029 0.80446 0.0
H2402 H 0.39955 0.20288 0.74127 0.0
H2403 H 0.40091 0.20764 0.6626 0.0
H2404 H 0.38744 0.15253 0.58051 0.0
H2405 H 0.38111 0.12935 0.64374 0.0
C2406 C 0.38422 0.14158 0.72753 0.0
C2407 C 0.38669 0.15046 0.76953 0.0
C2408 C 0.38754 0.15488 0.69037 0.0
C2409 C 0.39219 0.17277 0.77312 0.0
C2410 C 0.39535 0.18586 0.73672 0.0
C2411 C 0.39676 0.19062 0.65827 0.0
C2412 C 0.3947 0.18213 0.61606 0.0
C2413 C 0.39323 0.17722 0.6951 0.0
C2414 C 0.3889 0.15975 0.61204 0.0
C2415 C 0.38539 0.14638 0.64847 0.0
H2416 H 0.8233 0.20973 0.77701 0.0
H2417 H 0.88573 0.25557 0.71892 0.0
H2418 H 0.86952 0.24345 0.64731 0.0
H2419 H 0.83742 0.21982 0.59998 0.0
H2420 H 0.77497 0.17429 0.65868 0.0
H2421 H 0.79142 0.18599 0.72987 0.0
C2422 C 0.83344 0.21718 0.74879 0.0
C2423 C 0.85587 0.23386 0.75419 0.0
C2424 C 0.82396 0.21 0.7071 0.0
C2425 C 0.8685 0.24288 0.71657 0.0
C2426 C 0.85918 0.2359 0.67523 0.0
C2427 C 0.82724 0.21248 0.62817 0.0
C2428 C 0.80471 0.19589 0.62279 0.0
C2429 C 0.83686 0.2195 0.6699 0.0
C2430 C 0.7923 0.18667 0.66066 0.0
C2431 C 0.80172 0.19353 0.70189 0.0
H2432 H 0.78038 0.61254 0.6053 0.0
H2433 H 0.82021 0.58734 0.66019 0.0
H2434 H 0.80822 0.59045 0.73216 0.0
H2435 H 0.78613 0.60002 0.78082 0.0
H2436 H 0.74586 0.62466 0.72598 0.0
H2437 H 0.75797 0.6217 0.65381 0.0
C2438 C 0.78637 0.60751 0.63281 0.0
C2439 C 0.80147 0.5998 0.62633 0.0
C2440 C 0.77918 0.60915 0.67479 0.0
C2441 C 0.80903 0.59376 0.66328 0.0
C2442 C 0.80198 0.59535 0.70484 0.0
C2443 C 0.77988 0.60467 0.75315 0.0
C2444 C 0.76495 0.61256 0.75952 0.0
C2445 C 0.78704 0.60301 0.71117 0.0
C2446 C 0.75732 0.61858 0.72273 0.0
C2447 C 0.76428 0.61689 0.68113 0.0
H2448 H 0.83492 0.72445 0.56724 0.0
H2449 H 0.8976 0.74273 0.50789 0.0
H2450 H 0.88075 0.73699 0.43686 0.0
H2451 H 0.84843 0.72753 0.39028 0.0
H2452 H 0.78582 0.70987 0.44893 0.0
H2453 H 0.80243 0.71487 0.52044 0.0
C2454 C 0.84504 0.72739 0.53892 0.0
C2455 C 0.86774 0.73399 0.54393 0.0
C2456 C 0.8352 0.72423 0.4974 0.0
C2457 C 0.88014 0.73728 0.50604 0.0
C2458 C 0.8705 0.73417 0.46497 0.0
C2459 C 0.83834 0.72478 0.41861 0.0
C2460 C 0.81574 0.71833 0.41356 0.0
C2461 C 0.84807 0.72771 0.46009 0.0
C2462 C 0.80315 0.71476 0.4512 0.0
C2463 C 0.81271 0.71768 0.49239 0.0
H2464 H 0.27248 0.12498 0.39623 0.0
H2465 H 0.29418 0.0822 0.4505 0.0
H2466 H 0.29317 0.09535 0.52236 0.0
H2467 H 0.28664 0.11925 0.57126 0.0
H2468 H 0.26438 0.16188 0.51844 0.0
H2469 H 0.26556 0.14897 0.44602 0.0
C2470 C 0.27683 0.11839 0.42374 0.0
C2471 C 0.28328 0.10234 0.41704 0.0
C2472 C 0.27637 0.12624 0.46596 0.0
C2473 C 0.2891 0.09442 0.45372 0.0
C2474 C 0.28856 0.102 0.49531 0.0
C2475 C 0.28179 0.12566 0.54418 0.0
C2476 C 0.27545 0.14176 0.55144 0.0
C2477 C 0.28225 0.11794 0.50203 0.0
C2478 C 0.26972 0.14986 0.51485 0.0
C2479 C 0.27019 0.14229 0.47299 0.0
H2480 H 0.86397 0.12108 0.52153 0.0
H2481 H 0.88432 0.18148 0.59187 0.0
H2482 H 0.90157 0.2029 0.52708 0.0
H2483 H 0.91145 0.20504 0.44938 0.0
H2484 H 0.89107 0.14446 0.37966 0.0
H2485 H 0.87388 0.12316 0.44446 0.0
C2486 C 0.87229 0.13893 0.52308 0.0
C2487 C 0.87249 0.14932 0.56252 0.0
C2488 C 0.88246 0.15142 0.48523 0.0
C2489 C 0.88328 0.17263 0.56256 0.0
C2490 C 0.89342 0.18506 0.52525 0.0
C2491 C 0.90336 0.18718 0.44827 0.0
C2492 C 0.9029 0.17663 0.40889 0.0
C2493 C 0.89319 0.17471 0.48623 0.0
C2494 C 0.89205 0.15335 0.40889 0.0
C2495 C 0.88205 0.141 0.44624 0.0
H2496 H 0.28395 0.16436 0.89733 0.0
H2497 H 0.29423 0.2249 0.95496 0.0
H2498 H 0.28887 0.20848 1.02651 0.0
H2499 H 0.28141 0.1769 0.07399 0.0
H2500 H 0.27035 0.11608 1.016 0.0
H2501 H 0.27621 0.13267 0.94487 0.0
C2502 C 0.28497 0.17402 0.92544 0.0
C2503 C 0.28953 0.19605 0.91991 0.0
C2504 C 0.28188 0.16439 0.9672 0.0
C2505 C 0.29088 0.20805 0.95743 0.0
C2506 C 0.28775 0.19859 0.99873 0.0
C2507 C 0.28005 0.16706 0.04599 0.0
C2508 C 0.27549 0.14499 0.0517 0.0
C2509 C 0.28323 0.17674 1.00423 0.0
C2510 C 0.27423 0.13309 1.01397 0.0
C2511 C 0.27741 0.14258 0.97269 0.0
H2512 H 0.83169 0.10701 0.07244 0.0
H2513 H 0.89235 0.1554 1.01182 0.0
H2514 H 0.87477 0.14453 0.94143 0.0
H2515 H 0.84246 0.1208 0.89552 0.0
H2516 H 0.78197 0.07171 0.95517 0.0
H2517 H 0.7992 0.08314 1.02627 0.0
C2518 C 0.84124 0.11515 1.04398 0.0
C2519 C 0.86357 0.1323 0.04858 0.0
C2520 C 0.83099 0.10858 1.00271 0.0
C2521 C 0.87516 0.14256 1.01045 0.0
C2522 C 0.86511 0.13618 0.96968 0.0
C2523 C 0.83295 0.11251 0.92397 0.0
C2524 C 0.81075 0.09524 0.91927 0.0
C2525 C 0.84305 0.11917 0.96523 0.0
C2526 C 0.79895 0.08501 0.95712 0.0
C2527 C 0.80887 0.09155 0.99809 0.0
H2528 H 0.90479 0.70084 0.94173 0.0
H2529 H 0.90147 0.75411 0.87884 0.0
H2530 H 0.88658 0.76101 0.94412 0.0
H2531 H 0.87385 0.75199 1.01948 0.0
H2532 H 0.87686 0.6987 0.08298 0.0
H2533 H 0.89196 0.6918 1.01782 0.0
C2534 C 0.90094 0.71405 0.94227 0.0
C2535 C 0.9045 0.72694 0.90469 0.0
C2536 C 0.89202 0.71793 0.98041 0.0
C2537 C 0.89907 0.74382 0.90665 0.0
C2538 C 0.89047 0.74783 0.94427 0.0
C2539 C 0.87793 0.73895 1.01945 0.0
C2540 C 0.87394 0.72593 0.05698 0.0
C2541 C 0.8868 0.735 0.98144 0.0
C2542 C 0.87922 0.70891 0.05506 0.0
C2543 C 0.8881 0.705 1.01759 0.0
H2544 H 0.87641 0.61624 0.21994 0.0
H2545 H 0.82369 0.613 0.29759 0.0
H2546 H 0.80189 0.60843 0.23355 0.0
H2547 H 0.79679 0.60478 0.15493 0.0
H2548 H 0.84844 0.6068 0.07581 0.0
H2549 H 0.87108 0.61249 0.13976 0.0
C2550 C 0.86021 0.61465 0.22286 0.0
C2551 C 0.85198 0.61501 0.26441 0.0
C2552 C 0.84724 0.61172 0.1851 0.0
C2553 C 0.83075 0.61275 0.26676 0.0
C2554 C 0.81808 0.6101 0.2298 0.0
C2555 C 0.8129 0.60627 0.15135 0.0
C2556 C 0.82057 0.60537 0.10961 0.0
C2557 C 0.82599 0.60938 0.18871 0.0
C2558 C 0.84186 0.60775 0.10676 0.0
C2559 C 0.85493 0.61088 0.14369 0.0
H2560 H 0.4041 0.2279 0.11278 0.0
H2561 H 0.39375 0.16661 0.16685 0.0
H2562 H 0.39035 0.17886 0.23854 0.0
H2563 H 0.39018 0.2071 0.28726 0.0
H2564 H 0.39882 0.2675 0.23232 0.0
H2565 H 0.4028 0.25546 0.16071 0.0
C2566 C 0.40091 0.21703 0.14 0.0
C2567 C 0.39948 0.19628 0.13347 0.0
C2568 C 0.39871 0.22412 0.1817 0.0
C2569 C 0.39551 0.18282 0.17008 0.0
C2570 C 0.3934 0.18979 0.21147 0.0
C2571 C 0.39313 0.21772 0.25967 0.0
C2572 C 0.39428 0.23834 0.26568 0.0
C2573 C 0.39511 0.21048 0.21789 0.0
C2574 C 0.39771 0.25157 0.22908 0.0
C2575 C 0.40005 0.24467 0.18788 0.0
H2576 H 0.77417 0.1615 0.10205 0.0
H2577 H 0.82553 0.22297 0.15527 0.0
H2578 H 0.81377 0.20876 0.22788 0.0
H2579 H 0.78861 0.17866 0.27801 0.0
H2580 H 0.73698 0.11774 0.22405 0.0
H2581 H 0.74872 0.13207 0.15149 0.0
C2582 C 0.78276 0.17204 0.12926 0.0
C2583 C 0.80102 0.1935 0.12187 0.0
C2584 C 0.77568 0.16381 0.17171 0.0
C2585 C 0.8118 0.20633 0.15871 0.0
C2586 C 0.8049 0.19824 0.20078 0.0
C2587 C 0.77982 0.16857 0.25042 0.0
C2588 C 0.76191 0.1469 0.25724 0.0
C2589 C 0.78682 0.17698 0.20792 0.0
C2590 C 0.75096 0.13424 0.2205 0.0
C2591 C 0.75766 0.14251 0.17862 0.0
H2592 H 0.99144 0.41199 0.3327 0.0
H2593 H 0.05846 0.4492 0.37915 0.0
H2594 H 0.04546 0.4404 0.45345 0.0
H2595 H 0.01483 0.42372 0.50692 0.0
H2596 H 0.94761 0.38909 0.46104 0.0
H2597 H 0.96068 0.39517 0.38648 0.0
C2598 C 0.00325 0.41786 0.35901 0.0
C2599 C 0.02613 0.43106 0.34953 0.0
C2600 C 0.9955 0.4133 0.40254 0.0
C2601 C 0.04088 0.4389 0.38476 0.0
C2602 C 0.0334 0.4339 0.42762 0.0
C2603 C 0.003 0.41719 0.48069 0.0
C2604 C 0.98008 0.40572 0.4904 0.0
C2605 C 0.01072 0.42131 0.43719 0.0
C2606 C 0.96525 0.39795 0.45527 0.0
C2607 C 0.97278 0.40144 0.41226 0.0
H2608 H 0.60467 0.55874 0.46139 0.0
H2609 H 0.58091 0.59571 0.53196 0.0
H2610 H 0.5719 0.60749 0.4644 0.0
H2611 H 0.56974 0.60675 0.38395 0.0
H2612 H 0.59747 0.57327 0.3136 0.0
H2613 H 0.60595 0.5611 0.38112 0.0
C2614 C 0.59773 0.56955 0.46204 0.0
C2615 C 0.59354 0.57623 0.50236 0.0
C2616 C 0.59321 0.57701 0.42252 0.0
C2617 C 0.58458 0.59036 0.50189 0.0
C2618 C 0.57928 0.59708 0.46301 0.0
C2619 C 0.5778 0.59695 0.38334 0.0
C2620 C 0.58286 0.59102 0.34302 0.0
C2621 C 0.58338 0.59046 0.42291 0.0
C2622 C 0.59347 0.57837 0.3436 0.0
C2623 C 0.59827 0.57123 0.38248 0.0
H2624 H 0.42127 0.01248 0.32839 0.0
H2625 H 0.39526 0.94529 0.37052 0.0
H2626 H 0.39816 0.9569 0.44551 0.0
H2627 H 0.41026 0.98647 0.50089 0.0
H2628 H 0.43901 0.05403 0.45944 0.0
H2629 H 0.43284 0.04212 0.38411 0.0
C2630 C 0.41588 1.00031 0.35388 0.0
C2631 C 0.40778 0.97784 0.34295 0.0
C2632 C 0.41822 0.00726 0.39788 0.0
C2633 C 0.40144 0.96261 0.3772 0.0
C2634 C 0.40314 0.96928 0.42049 0.0
C2635 C 0.41477 0.99859 0.47548 0.0
C2636 C 0.42487 0.02125 0.48663 0.0
C2637 C 0.41177 0.9916 0.43151 0.0
C2638 C 0.43108 0.03653 0.45252 0.0
C2639 C 0.4276 0.02969 0.40907 0.0
H2640 H 0.00852 0.58944 1.00529 0.0
H2641 H 0.94136 0.55024 0.96088 0.0
H2642 H 0.95375 0.55865 0.88606 0.0
H2643 H 0.98409 0.57567 0.83176 0.0
H2644 H 0.05147 0.61244 0.87649 0.0
H2645 H 0.03876 0.60678 0.95115 0.0
C2646 C 0.99653 0.58302 0.9793 0.0
C2647 C 0.97386 0.56921 0.98938 0.0
C2648 C 0.00393 0.58752 0.93569 0.0
C2649 C 0.95883 0.56078 0.95467 0.0
C2650 C 0.96596 0.56564 0.91157 0.0
C2651 C 0.996 0.58279 0.85777 0.0
C2652 C 0.01887 0.59482 0.84776 0.0
C2653 C 0.98852 0.5788 0.90141 0.0
C2654 C 0.03385 0.6033 0.88256 0.0
C2655 C 0.02655 0.59999 0.9256 0.0
H2656 H 0.40479 0.44574 0.88 0.0
H2657 H 0.42054 0.40149 0.81277 0.0
H2658 H 0.42816 0.38933 0.88134 0.0
H2659 H 0.43189 0.39213 0.96159 0.0
H2660 H 0.4124 0.43362 1.0287 0.0
H2661 H 0.40474 0.44562 0.9602 0.0
C2662 C 0.40966 0.43326 0.88028 0.0
C2663 C 0.41205 0.42467 0.84059 0.0
C2664 C 0.41347 0.42576 0.92038 0.0
C2665 C 0.41833 0.40839 0.8423 0.0
C2666 C 0.42284 0.40146 0.88178 0.0
C2667 C 0.42572 0.4036 0.9613 0.0
C2668 C 0.42281 0.41186 1.00098 0.0
C2669 C 0.42067 0.41011 0.92121 0.0
C2670 C 0.41469 0.4267 0.99927 0.0
C2671 C 0.41039 0.43374 0.9598 0.0
H2672 H 0.58435 0.98975 1.00216 0.0
H2673 H 0.6114 0.05728 0.96168 0.0
H2674 H 0.60855 0.04604 0.88626 0.0
H2675 H 0.59604 0.01665 0.83012 0.0
H2676 H 0.5654 0.94874 0.87027 0.0
H2677 H 0.57201 0.96031 0.94584 0.0
C2678 C 0.59001 0.00207 0.97691 0.0
C2679 C 0.59846 0.02454 0.98837 0.0
C2680 C 0.58751 0.99531 0.93276 0.0
C2681 C 0.60504 0.03998 0.9545 0.0
C2682 C 0.60333 0.0335 0.91101 0.0
C2683 C 0.59118 0.00437 0.85532 0.0
C2684 C 0.5805 0.98171 0.84371 0.0
C2685 C 0.5943 0.01117 0.89945 0.0
C2686 C 0.57382 0.96623 0.87754 0.0
C2687 C 0.57755 0.97288 0.92111 0.0
H2688 H 0.68003 0.75876 0.84129 0.0
H2689 H 0.61393 0.72075 0.7908 0.0
H2690 H 0.62856 0.72588 0.71744 0.0
H2691 H 0.66022 0.74292 0.66614 0.0
H2692 H 0.72588 0.78455 0.71631 0.0
H2693 H 0.7116 0.77634 0.78996 0.0
C2694 C 0.66884 0.75127 0.81431 0.0
C2695 C 0.64578 0.73893 0.82217 0.0
C2696 C 0.6774 0.75512 0.77153 0.0
C2697 C 0.63167 0.73004 0.78624 0.0
C2698 C 0.64008 0.73307 0.74402 0.0
C2699 C 0.67147 0.74994 0.69318 0.0
C2700 C 0.69432 0.76412 0.68509 0.0
C2701 C 0.66293 0.74579 0.736 0.0
C2702 C 0.70835 0.77346 0.72102 0.0
C2703 C 0.70013 0.76878 0.76342 0.0
H2704 H 0.27253 0.8934 0.78952 0.0
H2705 H 0.24694 0.92838 0.8614 0.0
H2706 H 0.23797 0.94051 0.79421 0.0
H2707 H 0.2358 0.94009 0.71373 0.0
H2708 H 0.26465 0.90797 0.64229 0.0
H2709 H 0.27381 0.89615 0.70943 0.0
C2710 C 0.26517 0.90384 0.79058 0.0
C2711 C 0.26044 0.90981 0.83116 0.0
C2712 C 0.26051 0.91135 0.75132 0.0
C2713 C 0.25103 0.92356 0.83118 0.0
C2714 C 0.24573 0.93045 0.79248 0.0
C2715 C 0.24433 0.93073 0.71277 0.0
C2716 C 0.24943 0.92505 0.6722 0.0
C2717 C 0.25018 0.92433 0.75214 0.0
C2718 C 0.26059 0.91291 0.67241 0.0
C2719 C 0.26577 0.90596 0.71109 0.0
H2720 H 0.1095 0.37686 0.79089 0.0
H2721 H 0.07969 0.31712 0.86604 0.0
H2722 H 0.06881 0.29498 0.80017 0.0
H2723 H 0.06844 0.29206 0.72009 0.0
H2724 H 0.09427 0.35149 0.6446 0.0
H2725 H 0.10567 0.37378 0.71045 0.0
C2726 C 0.10047 0.359 0.79291 0.0
C2727 C 0.09555 0.34886 0.83411 0.0
C2728 C 0.09342 0.34609 0.75427 0.0
C2729 C 0.08366 0.32559 0.83534 0.0
C2730 C 0.07746 0.3128 0.7974 0.0
C2731 C 0.0763 0.30988 0.71796 0.0
C2732 C 0.08033 0.31987 0.67671 0.0
C2733 C 0.08229 0.32278 0.75651 0.0
C2734 C 0.09061 0.3431 0.67535 0.0
C2735 C 0.09731 0.35597 0.71329 0.0
H2736 H 0.71442 0.93268 0.21797 0.0
H2737 H 0.65556 0.90799 0.14034 0.0
H2738 H 0.63271 0.89635 0.20524 0.0
H2739 H 0.62901 0.89207 0.2853 0.0
H2740 H 0.68821 0.92038 0.36268 0.0
H2741 H 0.71092 0.93137 0.29774 0.0
C2742 C 0.69661 0.92488 0.21521 0.0
C2743 C 0.6869 0.92127 0.17378 0.0
C2744 C 0.68342 0.91868 0.25313 0.0
C2745 C 0.66369 0.91126 0.17141 0.0
C2746 C 0.65051 0.90443 0.20874 0.0
C2747 C 0.64687 0.90078 0.28794 0.0
C2748 C 0.65674 0.90531 0.32934 0.0
C2749 C 0.6601 0.90788 0.24995 0.0
C2750 C 0.68001 0.91676 0.33164 0.0
C2751 C 0.69311 0.92303 0.2943 0.0
H2752 H 0.10194 0.72779 0.28751 0.0
H2753 H 0.07145 0.75857 0.358 0.0
H2754 H 0.06262 0.7705 0.29058 0.0
H2755 H 0.06478 0.77382 0.21051 0.0
H2756 H 0.09109 0.73928 0.13945 0.0
H2757 H 0.10005 0.72732 0.20693 0.0
C2758 C 0.0931 0.73685 0.28814 0.0
C2759 C 0.08743 0.74217 0.32847 0.0
C2760 C 0.08732 0.74317 0.24861 0.0
C2761 C 0.0759 0.75393 0.32798 0.0
C2762 C 0.07093 0.76095 0.28916 0.0
C2763 C 0.07223 0.76345 0.20974 0.0
C2764 C 0.07721 0.75756 0.16937 0.0
C2765 C 0.07671 0.75589 0.24913 0.0
C2766 C 0.08682 0.744 0.16959 0.0
C2767 C 0.09209 0.73721 0.20843 0.0
H2768 H 0.25982 0.34838 0.16939 0.0
H2769 H 0.22448 0.28161 0.21686 0.0
H2770 H 0.23329 0.29509 0.29089 0.0
H2771 H 0.24911 0.32597 0.34378 0.0
H2772 H 0.28167 0.39284 0.29713 0.0
H2773 H 0.2761 0.37945 0.22266 0.0
C2774 C 0.25437 0.33674 0.19586 0.0
C2775 C 0.24164 0.31381 0.18679 0.0
C2776 C 0.25892 0.34474 0.23922 0.0
C2777 C 0.23436 0.29924 0.22218 0.0
C2778 C 0.23938 0.30699 0.26488 0.0
C2779 C 0.25534 0.33765 0.31737 0.0
C2780 C 0.26602 0.36054 0.32667 0.0
C2781 C 0.2514 0.32972 0.27406 0.0
C2782 C 0.27341 0.37521 0.29148 0.0
C2783 C 0.2702 0.3675 0.2486 0.0
H2784 H 0.29142 0.06811 0.12904 0.0
H2785 H 0.35241 0.0931 0.19987 0.0
H2786 H 0.37314 0.10154 0.13253 0.0
H2787 H 0.37435 0.10287 0.05242 0.0
H2788 H 0.31292 0.07458 0.98188 0.0
H2789 H 0.29236 0.06647 0.04912 0.0
C2790 C 0.30922 0.07529 0.12972 0.0
C2791 C 0.32023 0.07996 0.16984 0.0
C2792 C 0.32114 0.07956 0.09047 0.0
C2793 C 0.34336 0.0891 0.16974 0.0
C2794 C 0.35531 0.09406 0.13106 0.0
C2795 C 0.35646 0.09469 0.05173 0.0
C2796 C 0.34538 0.08936 1.01157 0.0
C2797 C 0.34446 0.08947 0.09105 0.0
C2798 C 0.32209 0.07875 1.01188 0.0
C2799 C 0.3102 0.07417 0.05055 0.0
H2800 H 0.89471 0.26541 0.04649 0.0
H2801 H 0.92996 0.23945 0.97665 0.0
H2802 H 0.94005 0.22884 1.04433 0.0
H2803 H 0.93834 0.2259 0.12457 0.0
H2804 H 0.90649 0.25535 0.19479 0.0
H2805 H 0.89588 0.26547 0.12705 0.0
C2806 C 0.90473 0.25758 0.04601 0.0
C2807 C 0.91145 0.2533 1.00575 0.0
C2808 C 0.91118 0.25203 0.08573 0.0
C2809 C 0.92462 0.24324 1.00657 0.0
C2810 C 0.93035 0.23701 0.04556 0.0
C2811 C 0.92922 0.23468 0.12514 0.0
C2812 C 0.92329 0.23975 0.16545 0.0
C2813 C 0.92367 0.24118 0.08552 0.0
C2814 C 0.91156 0.25132 0.16481 0.0
C2815 C 0.90534 0.25706 0.12578 0.0
H2816 H 0.75666 0.68011 0.9996 0.0
H2817 H 0.72998 0.61285 1.04163 0.0
H2818 H 0.73369 0.62464 0.11684 0.0
H2819 H 0.74647 0.6544 0.17223 0.0
H2820 H 0.77696 0.72203 0.13048 0.0
H2821 H 0.76978 0.70997 0.05518 0.0
C2822 C 0.75131 0.66797 1.02516 0.0
C2823 C 0.74265 0.64541 1.01421 0.0
C2824 C 0.75431 0.67505 0.06913 0.0
C2825 C 0.73649 0.63021 0.04843 0.0
C2826 C 0.73867 0.637 0.09178 0.0
C2827 C 0.7512 0.6665 0.14673 0.0
C2828 C 0.76194 0.68923 0.15774 0.0
C2829 C 0.74779 0.65941 0.1028 0.0
C2830 C 0.76848 0.7045 0.1236 0.0
C2831 C 0.76442 0.69757 0.08021 0.0
H2832 H 0.38214 0.27344 0.55076 0.0
H2833 H 0.32093 0.2462 0.48008 0.0
H2834 H 0.30026 0.23774 0.5477 0.0
H2835 H 0.29918 0.23692 0.6283 0.0
H2836 H 0.36078 0.26806 0.69832 0.0
H2837 H 0.38127 0.27622 0.63079 0.0
C2838 C 0.3643 0.26589 0.55009 0.0
C2839 C 0.35325 0.26054 0.50977 0.0
C2840 C 0.35239 0.26171 0.58955 0.0
C2841 C 0.33005 0.25077 0.51015 0.0
C2842 C 0.31813 0.2458 0.54908 0.0
C2843 C 0.31709 0.2457 0.62883 0.0
C2844 C 0.32824 0.25179 0.6691 0.0
C2845 C 0.32904 0.25104 0.58919 0.0
C2846 C 0.35155 0.26328 0.66839 0.0
C2847 C 0.36339 0.26788 0.6295 0.0
H2848 H 0.77066 0.06095 0.62764 0.0
H2849 H 0.73722 0.0898 0.69438 0.0
H2850 H 0.72752 0.09982 0.62554 0.0
H2851 H 0.72946 0.10179 0.54504 0.0
H2852 H 0.75909 0.06916 0.47815 0.0
H2853 H 0.7689 0.05923 0.547 0.0
C2854 C 0.76102 0.0692 0.62721 0.0
C2855 C 0.75479 0.07454 0.66701 0.0
C2856 C 0.75473 0.07437 0.58683 0.0
C2857 C 0.74219 0.0852 0.66493 0.0
C2858 C 0.73669 0.0911 0.62524 0.0
C2859 C 0.73789 0.09233 0.54543 0.0
C2860 C 0.7435 0.08639 0.50562 0.0
C2861 C 0.74298 0.08597 0.58577 0.0
C2862 C 0.7543 0.07392 0.50762 0.0
C2863 C 0.76008 0.0683 0.54732 0.0
H2864 H 0.91388 0.65408 0.67304 0.0
H2865 H 0.94774 0.72168 0.6302 0.0
H2866 H 0.94403 0.70947 0.55532 0.0
H2867 H 0.92883 0.67942 0.50023 0.0
H2868 H 0.89344 0.61182 0.54297 0.0
H2869 H 0.9001 0.62402 0.61802 0.0
C2870 C 0.9208 0.66618 0.64743 0.0
C2871 C 0.93115 0.68894 0.65801 0.0
C2872 C 0.91814 0.65895 0.60362 0.0
C2873 C 0.93959 0.70413 0.62368 0.0
C2874 C 0.93747 0.69711 0.58049 0.0
C2875 C 0.9229 0.66731 0.52588 0.0
C2876 C 0.91057 0.64455 0.51513 0.0
C2877 C 0.92644 0.67454 0.56975 0.0
C2878 C 0.90283 0.62937 0.54954 0.0
C2879 C 0.90666 0.63638 0.59285 0.0
H2880 H 0.04068 0.50585 0.20287 0.0
H2881 H 0.97592 0.45241 0.23645 0.0
H2882 H 0.95892 0.46905 0.19277 0.0
H2883 H 0.96271 0.49699 0.14124 0.0
H2884 H 0.0274 0.55048 0.10747 0.0
H2885 H 0.04447 0.53395 0.15147 0.0
C2886 C 0.02283 0.49794 0.2011 0.0
C2887 C 0.00955 0.47773 0.22225 0.0
C2888 C 0.01331 0.50683 0.17399 0.0
C2889 C 0.98647 0.46796 0.22045 0.0
C2890 C 0.97679 0.47721 0.19478 0.0
C2891 C 0.98056 0.50497 0.14308 0.0
C2892 C 0.99379 0.52507 0.12156 0.0
C2893 C 0.99009 0.49619 0.17036 0.0
C2894 C 0.01688 0.53498 0.12366 0.0
C2895 C 0.0266 0.52581 0.14952 0.0
H2896 H 0.51193 0.54109 0.20452 0.0
H2897 H 0.56565 0.52966 0.17714 0.0
H2898 H 0.53949 0.49285 0.14923 0.0
H2899 H 0.50122 0.46466 0.13184 0.0
H2900 H 0.4486 0.47888 0.15161 0.0
H2901 H 0.47489 0.51528 0.17979 0.0
C2902 C 0.51796 0.5307 0.19263 0.0
C2903 C 0.54054 0.53799 0.19317 0.0
C2904 C 0.50319 0.51067 0.17325 0.0
C2905 C 0.54813 0.52411 0.17758 0.0
C2906 C 0.53329 0.50333 0.16088 0.0
C2907 C 0.49567 0.47601 0.14052 0.0
C2908 C 0.47315 0.46929 0.13932 0.0
C2909 C 0.5108 0.49666 0.15768 0.0
C2910 C 0.46604 0.48399 0.15183 0.0
C2911 C 0.48093 0.50454 0.16877 0.0
H2912 H 0.54149 0.99712 0.18355 0.0
H2913 H 0.52368 0.00945 0.05796 0.0
H2914 H 0.48864 0.00415 0.08675 0.0
H2915 H 0.46454 0.9983 0.14867 0.0
H2916 H 0.48226 0.9861 0.27445 0.0
H2917 H 0.51687 0.99032 0.24527 0.0
C2918 C 0.5295 0.99786 0.16233 0.0
C2919 C 0.53457 0.00292 0.11853 0.0
C2920 C 0.51018 0.99601 0.17965 0.0
C2921 C 0.5196 0.00483 0.09141 0.0
C2922 C 0.4999 0.00229 0.10809 0.0
C2923 C 0.47633 0.99716 0.16978 0.0
C2924 C 0.47152 0.99274 0.21382 0.0
C2925 C 0.4954 0.99852 0.15235 0.0
C2926 C 0.48621 0.9903 0.24081 0.0
C2927 C 0.50566 0.99226 0.22394 0.0
H2928 H 0.54271 0.0061 0.62622 0.0
H2929 H 0.52479 0.99119 0.75991 0.0
H2930 H 0.49229 0.9953 0.74801 0.0
H2931 H 0.46894 0.00169 0.69919 0.0
H2932 H 0.48699 0.01762 0.56567 0.0
H2933 H 0.52003 0.01432 0.57774 0.0
C2934 C 0.53178 0.00393 0.65284 0.0
C2935 C 0.53566 0.99799 0.69383 0.0
C2936 C 0.51335 0.00626 0.64557 0.0
C2937 C 0.52159 0.99529 0.72808 0.0
C2938 C 0.5032 0.99768 0.72123 0.0
C2939 C 0.48005 0.0044 0.67256 0.0
C2940 C 0.47569 0.00978 0.6315 0.0
C2941 C 0.49882 0.00281 0.67998 0.0
C2942 C 0.49025 0.01352 0.59748 0.0
C2943 C 0.509 0.01165 0.60444 0.0
H2944 H 0.96574 0.46208 0.63373 0.0
H2945 H 0.03048 0.47117 0.65739 0.0
H2946 H 0.04255 0.50769 0.68781 0.0
H2947 H 0.03402 0.53623 0.70955 0.0
H2948 H 0.96906 0.52674 0.68669 0.0
H2949 H 0.95689 0.49003 0.65733 0.0
C2950 C 0.9825 0.47211 0.64475 0.0
C2951 C 0.99721 0.46408 0.6429 0.0
C2952 C 0.98888 0.49244 0.66439 0.0
C2953 C 0.01896 0.47728 0.65795 0.0
C2954 C 0.02574 0.49792 0.67607 0.0
C2955 C 0.01715 0.52597 0.69926 0.0
C2956 C 1.00246 0.53405 0.70054 0.0
C2957 C 0.01066 0.50544 0.68037 0.0
C2958 C 0.98057 0.52061 0.68645 0.0
C2959 C 0.97374 0.49986 0.66888 0.0
H2960 H 0.54201 0.53832 0.69446 0.0
H2961 H 0.52405 0.5166 0.56323 0.0
H2962 H 0.48918 0.48493 0.58792 0.0
H2963 H 0.46504 0.46302 0.64729 0.0
H2964 H 0.48281 0.48503 0.77845 0.0
H2965 H 0.51779 0.51652 0.7538 0.0
C2966 C 0.53008 0.52692 0.67133 0.0
C2967 C 0.53501 0.52979 0.62715 0.0
C2968 C 0.51093 0.50839 0.68598 0.0
C2969 C 0.52007 0.5148 0.59722 0.0
C2970 C 0.5005 0.49657 0.61144 0.0
C2971 C 0.47698 0.47442 0.67042 0.0
C2972 C 0.47201 0.47158 0.71459 0.0
C2973 C 0.49612 0.49296 0.65577 0.0
C2974 C 0.48689 0.48667 0.7445 0.0
C2975 C 0.5065 0.50485 0.7303 0.0
H2976 H 0.65709 0.8618 0.5256 0.0
H2977 H 0.66798 0.84753 0.39583 0.0
H2978 H 0.67779 0.82055 0.42347 0.0
H2979 H 0.68261 0.80111 0.48452 0.0
H2980 H 0.67275 0.81611 0.61443 0.0
H2981 H 0.66176 0.84221 0.5867 0.0
C2982 C 0.66164 0.85273 0.50348 0.0
C2983 C 0.662 0.85646 0.4589 0.0
C2984 C 0.66676 0.8372 0.51957 0.0
C2985 C 0.66789 0.84489 0.43023 0.0
C2986 C 0.67324 0.82943 0.44602 0.0
C2987 C 0.67795 0.81008 0.50666 0.0
C2988 C 0.67833 0.80688 0.5513 0.0
C2989 C 0.67256 0.82541 0.49055 0.0
C2990 C 0.67226 0.81831 0.57998 0.0
C2991 C 0.66628 0.83331 0.56413 0.0
H2992 H 0.2029 0.86715 0.4657 0.0
H2993 H 0.18592 0.86707 0.59926 0.0
H2994 H 0.15256 0.83084 0.58926 0.0
H2995 H 0.1289 0.79949 0.5423 0.0
H2996 H 0.14558 0.80053 0.40842 0.0
H2997 H 0.17875 0.83678 0.41847 0.0
C2998 C 0.19198 0.85916 0.49277 0.0
C2999 C 0.19675 0.86948 0.53327 0.0
C3000 C 0.17292 0.83883 0.48648 0.0
C3001 C 0.1824 0.85924 0.56788 0.0
C3002 C 0.16342 0.83867 0.5621 0.0
C3003 C 0.13972 0.80777 0.51527 0.0
C3004 C 0.13524 0.79748 0.47471 0.0
C3005 C 0.15856 0.82839 0.52148 0.0
C3006 C 0.1492 0.80819 0.43992 0.0
C3007 C 0.168 0.8288 0.44571 0.0
H3008 H 0.20712 0.37365 0.48141 0.0
H3009 H 0.19387 0.30957 0.43782 0.0
H3010 H 0.15901 0.29218 0.47787 0.0
H3011 H 0.13392 0.29531 0.5286 0.0
H3012 H 0.14811 0.3595 0.57371 0.0
H3013 H 0.18261 0.37674 0.53297 0.0
C3014 C 0.19662 0.35588 0.4804 0.0
C3015 C 0.20319 0.34288 0.45707 0.0
C3016 C 0.17753 0.34603 0.50555 0.0
C3017 C 0.18913 0.31991 0.45544 0.0
C3018 C 0.16947 0.30997 0.479 0.0
C3019 C 0.14467 0.31305 0.53003 0.0
C3020 C 0.13835 0.32617 0.55373 0.0
C3021 C 0.1639 0.32286 0.50512 0.0
C3022 C 0.15264 0.34908 0.55575 0.0
C3023 C 0.17213 0.35895 0.53187 0.0
H3024 H 0.20983 0.34298 1.00964 0.0
H3025 H 0.16369 0.3025 0.10749 0.0
H3026 H 0.13444 0.30664 0.07257 0.0
H3027 H 0.12216 0.32122 1.01323 0.0
H3028 H 0.16831 0.36125 0.91495 0.0
H3029 H 0.19746 0.35697 0.94983 0.0
C3030 C 0.19354 0.33571 1.02406 0.0
C3031 C 0.18897 0.32321 0.06195 0.0
C3032 C 0.17673 0.33721 1.00259 0.0
C3033 C 0.16763 0.31289 0.07927 0.0
C3034 C 0.15088 0.31487 0.05881 0.0
C3035 C 0.13841 0.32832 0.9987 0.0
C3036 C 0.14309 0.34094 0.96095 0.0
C3037 C 0.15517 0.32662 1.02 0.0
C3038 C 0.16435 0.35092 0.94329 0.0
C3039 C 0.18103 0.34884 0.96368 0.0
H3040 H 0.65929 0.86589 1.00497 0.0
H3041 H 0.7058 0.86045 0.08823 0.0
H3042 H 0.69924 0.82705 0.04986 0.0
H3043 H 0.68097 0.80029 0.99161 0.0
H3044 H 0.6346 0.80585 0.90837 0.0
H3045 H 0.64123 0.83931 0.9465 0.0
C3046 C 0.66744 0.85696 1.0156 0.0
C3047 C 0.68245 0.86503 0.05019 0.0
C3048 C 0.66441 0.8386 0.99212 0.0
C3049 C 0.69365 0.85398 0.06253 0.0
C3050 C 0.69025 0.83523 1.04008 0.0
C3051 C 0.67293 0.8093 0.98089 0.0
C3052 C 0.65785 0.80121 0.94639 0.0
C3053 C 0.67604 0.82773 1.00427 0.0
C3054 C 0.64676 0.81234 0.93395 0.0
C3055 C 0.65022 0.83111 0.9563 0.0
H3056 H 0.12965 0.79302 0.97714 0.0
H3057 H 0.14667 0.81928 0.10585 0.0
H3058 H 0.18213 0.84952 0.07983 0.0
H3059 H 0.20708 0.86907 1.01974 0.0
H3060 H 0.19017 0.84293 0.89091 0.0
H3061 H 0.1549 0.81235 0.91708 0.0
C3062 C 0.14154 0.80503 0.99955 0.0
C3063 C 0.1362 0.80375 1.04346 0.0
C3064 C 0.16113 0.82276 0.98394 0.0
C3065 C 0.151 0.81972 0.07224 0.0
C3066 C 0.17094 0.83715 0.05719 0.0
C3067 C 0.19532 0.85693 0.99735 0.0
C3068 C 0.20057 0.85841 0.95337 0.0
C3069 C 0.17586 0.83907 1.01299 0.0
C3070 C 0.18591 0.84232 0.92461 0.0
C3071 C 0.16607 0.82472 0.93973 0.0
H3072 H 0.34487 0.21185 0.88189 0.0
H3073 H 0.32715 0.1943 0.74855 0.0
H3074 H 0.33007 0.16114 0.75823 0.0
H3075 H 0.33598 0.13682 0.80503 0.0
H3076 H 0.35392 0.15384 0.9384 0.0
H3077 H 0.35243 0.18794 0.92848 0.0
C3078 C 0.3419 0.20086 0.85487 0.0
C3079 C 0.33564 0.20519 0.81463 0.0
C3080 C 0.34337 0.18185 0.86088 0.0
C3081 C 0.33176 0.19098 0.77983 0.0
C3082 C 0.3334 0.17211 0.78539 0.0
C3083 C 0.33948 0.14793 0.83207 0.0
C3084 C 0.34489 0.14295 0.87249 0.0
C3085 C 0.33881 0.16727 0.82591 0.0
C3086 C 0.34973 0.15753 0.90707 0.0
C3087 C 0.34889 0.17692 0.90133 0.0
H3088 H 0.84857 0.19452 0.90434 0.0
H3089 H 0.88323 0.20141 0.78541 0.0
H3090 H 0.85265 0.16707 0.75858 0.0
H3091 H 0.81543 0.13517 0.76802 0.0
H3092 H 0.78116 0.12778 0.88758 0.0
H3093 H 0.8114 0.16255 0.91383 0.0
C3094 C 0.84929 0.18846 0.87262 0.0
C3095 C 0.86791 0.20053 0.84688 0.0
C3096 C 0.8315 0.16875 0.85698 0.0
C3097 C 0.86899 0.19236 0.80603 0.0
C3098 C 0.85144 0.1728 0.79035 0.0
C3099 C 0.8148 0.14113 0.79987 0.0
C3100 C 0.79645 0.12875 0.82601 0.0
C3101 C 0.83253 0.16091 0.81539 0.0
C3102 C 0.79527 0.13699 0.86674 0.0
C3103 C 0.81262 0.1568 0.88208 0.0
H3104 H 0.87099 0.66376 0.84432 0.0
H3105 H 0.85839 0.68979 0.72876 0.0
H3106 H 0.8247 0.68629 0.76111 0.0
H3107 H 0.79951 0.67628 0.82292 0.0
H3108 H 0.81251 0.65063 0.93853 0.0
H3109 H 0.84643 0.65468 0.90653 0.0
C3110 C 0.86041 0.66798 0.82583 0.0
C3111 C 0.86639 0.67611 0.7837 0.0
C3112 C 0.84199 0.66705 0.84546 0.0
C3113 C 0.85342 0.68265 0.76058 0.0
C3114 C 0.83454 0.6811 0.77942 0.0
C3115 C 0.81029 0.67239 0.84154 0.0
C3116 C 0.80419 0.66391 0.88342 0.0
C3117 C 0.82895 0.67371 0.82209 0.0
C3118 C 0.8175 0.65789 0.90681 0.0
C3119 C 0.83651 0.65975 0.88817 0.0
H3120 H 0.83787 0.63278 0.38061 0.0
H3121 H 0.89362 0.69686 0.35408 0.0
H3122 H 0.86911 0.70888 0.32381 0.0
H3123 H 0.83225 0.69996 0.30034 0.0
H3124 H 0.77634 0.63614 0.3274 0.0
H3125 H 0.80074 0.62425 0.35897 0.0
C3126 C 0.84459 0.64942 0.36925 0.0
C3127 C 0.86742 0.66385 0.36963 0.0
C3128 C 0.83053 0.65578 0.34983 0.0
C3129 C 0.87595 0.68551 0.35439 0.0
C3130 C 0.86204 0.69225 0.33631 0.0
C3131 C 0.82544 0.68346 0.31229 0.0
C3132 C 0.80264 0.66899 0.31112 0.0
C3133 C 0.83939 0.67724 0.33251 0.0
C3134 C 0.79401 0.6475 0.32743 0.0
C3135 C 0.80785 0.64084 0.34623 0.0
H3136 H 0.33689 0.20884 0.31635 0.0
H3137 H 0.3438 0.19152 0.44628 0.0
H3138 H 0.33993 0.15654 0.42058 0.0
H3139 H 0.3363 0.13212 0.36059 0.0
H3140 H 0.32924 0.14931 0.23064 0.0
H3141 H 0.33311 0.18431 0.25633 0.0
C3142 C 0.33677 0.19697 0.33904 0.0
C3143 C 0.3398 0.20208 0.38318 0.0
C3144 C 0.33585 0.17776 0.3237 0.0
C3145 C 0.34067 0.18733 0.41241 0.0
C3146 C 0.33899 0.1677 0.39758 0.0
C3147 C 0.33629 0.14393 0.33789 0.0
C3148 C 0.33324 0.13878 0.29378 0.0
C3149 C 0.33717 0.1631 0.35322 0.0
C3150 C 0.33235 0.15351 0.26451 0.0
C3151 C 0.33402 0.17314 0.27934 0.0
H3152 H 0.8711 0.16404 0.3 0.0
H3153 H 0.85692 0.21709 0.28561 0.0
H3154 H 0.82285 0.196 0.32685 0.0
H3155 H 0.79879 0.16377 0.37021 0.0
H3156 H 0.8134 0.11108 0.38587 0.0
H3157 H 0.84746 0.13216 0.34454 0.0
C3158 C 0.86049 0.17094 0.30547 0.0
C3159 C 0.86667 0.19222 0.2904 0.0
C3160 C 0.84186 0.15943 0.33134 0.0
C3161 C 0.85248 0.20073 0.29686 0.0
C3162 C 0.83329 0.18889 0.32115 0.0
C3163 C 0.80955 0.157 0.36521 0.0
C3164 C 0.80348 0.13581 0.38062 0.0
C3165 C 0.82826 0.16858 0.33958 0.0
C3166 C 0.81776 0.12738 0.3744 0.0
C3167 C 0.83692 0.13919 0.35001 0.0
loop_
_geom_bond_atom_site_label_1
_geom_bond_atom_site_label_2
_geom_bond_distance
_geom_bond_site_symmetry_2
_ccdc_geom_bond_type
Tb0 C2 2.809 . S
Tb0 O20 2.484 . S
Tb0 O21 2.440 . S
Tb0 O22 2.658 . S
Tb0 O23 2.409 . S
Tb0 O24 2.378 . S
Tb0 O28 2.325 . S
Tb0 O31 2.341 . S
Tb1 C11 2.809 . S
Tb1 O22 2.325 . S
Tb1 O25 2.341 . S
Tb1 O26 2.484 . S
Tb1 O27 2.440 . S
Tb1 O28 2.658 . S
Tb1 O29 2.409 . S
Tb1 O30 2.378 . S
C2 Tb0 2.809 . S
C2 C3 1.514 . S
C2 O20 1.248 . S
C2 O21 1.266 . S
C3 C2 1.514 . S
C3 C4 1.359 . S
C3 C8 1.348 . S
C4 C3 1.359 . S
C4 C5 1.380 . S
C4 H32 0.929 . S
C5 C4 1.380 . S
C5 C6 1.347 . S
C5 H33 0.931 . S
C6 C5 1.347 . S
C6 C7 1.369 . S
C7 C6 1.369 . S
C7 C8 1.408 . S
C7 H34 0.930 . S
C8 C3 1.348 . S
C8 C7 1.408 . S
C8 H35 0.930 . S
C9 O22 1.281 . S
C9 O23 1.254 . S
C10 O24 1.236 . S
C10 O25 1.266 . S
C11 Tb1 2.809 . S
C11 C12 1.514 . S
C11 O26 1.248 . S
C11 O27 1.266 . S
C12 C11 1.514 . S
C12 C13 1.359 1_554 S
C12 C17 1.348 1_554 S
C13 C12 1.359 1_556 S
C13 C14 1.380 . S
C13 H36 0.919 1_556 S
C14 C13 1.380 . S
C14 C15 1.347 . S
C14 H37 0.931 . S
C15 C14 1.347 . S
C15 C16 1.369 . S
C16 C15 1.369 . S
C16 C17 1.408 . S
C16 H38 0.930 1_455 S
C17 C12 1.348 1_556 S
C17 C16 1.408 . S
C17 H39 0.930 1_456 S
C18 O28 1.281 . S
C18 O29 1.254 . S
C19 O30 1.236 . S
C19 O31 1.266 . S
O20 Tb0 2.484 . S
O20 C2 1.248 . S
O21 Tb0 2.440 . S
O21 C2 1.266 . S
O22 Tb0 2.658 . S
O22 Tb1 2.325 . S
O22 C9 1.281 . S
O23 Tb0 2.409 . S
O23 C9 1.254 . S
O24 Tb0 2.378 . S
O24 C10 1.236 . S
O25 Tb1 2.341 . S
O25 C10 1.266 . S
O26 Tb1 2.484 . S
O26 C11 1.248 . S
O27 Tb1 2.440 . S
O27 C11 1.266 . S
O28 Tb0 2.325 . S
O28 Tb1 2.658 . S
O28 C18 1.281 . S
O29 Tb1 2.409 . S
O29 C18 1.254 . S
O30 Tb1 2.378 . S
O30 C19 1.236 . S
O31 Tb0 2.341 . S
O31 C19 1.266 . S
H32 C4 0.929 . S
H33 C5 0.931 . S
H34 C7 0.930 . S
H35 C8 0.930 . S
H36 C13 0.919 1_554 S
H37 C14 0.931 . S
H38 C16 0.930 1_655 S
H39 C17 0.930 1_654 S
Tb40 C42 2.809 . S
Tb40 O60 2.484 . S
Tb40 O61 2.440 . S
Tb40 O62 2.658 . S
Tb40 O63 2.409 . S
Tb40 O64 2.378 . S
Tb40 O68 2.325 . S
Tb40 O71 2.341 . S
Tb41 C51 2.809 . S
Tb41 O62 2.325 . S
Tb41 O65 2.341 . S
Tb41 O66 2.484 . S
Tb41 O67 2.440 . S
Tb41 O68 2.658 . S
Tb41 O69 2.409 . S
Tb41 O70 2.378 . S
C42 Tb40 2.809 . S
C42 C43 1.514 . S
C42 O60 1.248 . S
C42 O61 1.266 . S
C43 C42 1.514 . S
C43 C44 1.359 . S
C43 C48 1.348 . S
C44 C43 1.359 . S
C44 C45 1.380 . S
C44 H72 0.929 . S
C45 C44 1.380 . S
C45 C46 1.347 . S
C45 H73 0.931 . S
C46 C45 1.347 . S
C46 C47 1.369 . S
C47 C46 1.369 . S
C47 C48 1.408 . S
C47 H74 0.930 . S
C48 C43 1.348 . S
C48 C47 1.408 . S
C48 H75 0.930 . S
C49 O62 1.281 . S
C49 O63 1.254 . S
C50 O64 1.236 . S
C50 O65 1.266 . S
C51 Tb41 2.809 . S
C51 C52 1.514 . S
C51 O66 1.248 . S
C51 O67 1.266 . S
C52 C51 1.514 . S
C52 C53 1.359 1_554 S
C52 C57 1.348 1_554 S
C53 C52 1.359 1_556 S
C53 C54 1.380 . S
C53 H76 0.919 1_556 S
C54 C53 1.380 . S
C54 C55 1.347 . S
C54 H77 0.931 . S
C55 C54 1.347 . S
C55 C56 1.369 . S
C56 C55 1.369 . S
C56 C57 1.408 . S
C56 H78 0.930 . S
C57 C52 1.348 1_556 S
C57 C56 1.408 . S
C57 H79 0.930 1_556 S
C58 O68 1.281 . S
C58 O69 1.254 . S
C59 O70 1.236 . S
C59 O71 1.266 . S
O60 Tb40 2.484 . S
O60 C42 1.248 . S
O61 Tb40 2.440 . S
O61 C42 1.266 . S
O62 Tb40 2.658 . S
O62 Tb41 2.325 . S
O62 C49 1.281 . S
O63 Tb40 2.409 . S
O63 C49 1.254 . S
O64 Tb40 2.378 . S
O64 C50 1.236 . S
O65 Tb41 2.341 . S
O65 C50 1.266 . S
O66 Tb41 2.484 . S
O66 C51 1.248 . S
O67 Tb41 2.440 . S
O67 C51 1.266 . S
O68 Tb40 2.325 . S
O68 Tb41 2.658 . S
O68 C58 1.281 . S
O69 Tb41 2.409 . S
O69 C58 1.254 . S
O70 Tb41 2.378 . S
O70 C59 1.236 . S
O71 Tb40 2.341 . S
O71 C59 1.266 . S
H72 C44 0.929 . S
H73 C45 0.931 . S
H74 C47 0.930 . S
H75 C48 0.930 . S
H76 C53 0.919 1_554 S
H77 C54 0.931 . S
H78 C56 0.930 . S
H79 C57 0.930 1_554 S
Tb80 C82 2.809 . S
Tb80 O100 2.484 . S
Tb80 O101 2.440 . S
Tb80 O102 2.658 . S
Tb80 O103 2.409 . S
Tb80 O104 2.378 . S
Tb80 O108 2.325 . S
Tb80 O111 2.341 . S
Tb81 C91 2.809 . S
Tb81 O102 2.325 . S
Tb81 O105 2.341 . S
Tb81 O106 2.484 . S
Tb81 O107 2.440 . S
Tb81 O108 2.658 . S
Tb81 O109 2.409 . S
Tb81 O110 2.378 . S
C82 Tb80 2.809 . S
C82 C83 1.514 . S
C82 O100 1.248 . S
C82 O101 1.266 . S
C83 C82 1.514 . S
C83 C84 1.359 . S
C83 C88 1.348 . S
C84 C83 1.359 . S
C84 C85 1.380 . S
C84 H112 0.929 . S
C85 C84 1.380 . S
C85 C86 1.347 . S
C85 H113 0.931 . S
C86 C85 1.347 . S
C86 C87 1.369 . S
C87 C86 1.369 . S
C87 C88 1.408 . S
C87 H114 0.930 . S
C88 C83 1.348 . S
C88 C87 1.408 . S
C88 H115 0.930 . S
C89 O102 1.281 . S
C89 O103 1.254 . S
C90 O104 1.236 . S
C90 O105 1.266 . S
C91 Tb81 2.809 . S
C91 C92 1.514 . S
C91 O106 1.248 . S
C91 O107 1.266 . S
C92 C91 1.514 . S
C92 C93 1.359 1_554 S
C92 C97 1.348 1_554 S
C93 C92 1.359 1_556 S
C93 C94 1.380 . S
C93 H116 0.918 1_556 S
C94 C93 1.380 . S
C94 C95 1.347 . S
C94 H117 0.931 . S
C95 C94 1.347 . S
C95 C96 1.369 . S
C96 C95 1.369 . S
C96 C97 1.408 . S
C96 H118 0.930 1_565 S
C97 C92 1.348 1_556 S
C97 C96 1.408 . S
C97 H119 0.930 1_566 S
C98 O108 1.281 . S
C98 O109 1.254 . S
C99 O110 1.236 . S
C99 O111 1.266 . S
O100 Tb80 2.484 . S
O100 C82 1.248 . S
O101 Tb80 2.440 . S
O101 C82 1.266 . S
O102 Tb80 2.658 . S
O102 Tb81 2.325 . S
O102 C89 1.281 . S
O103 Tb80 2.409 . S
O103 C89 1.254 . S
O104 Tb80 2.378 . S
O104 C90 1.236 . S
O105 Tb81 2.341 . S
O105 C90 1.266 . S
O106 Tb81 2.484 . S
O106 C91 1.248 . S
O107 Tb81 2.440 . S
O107 C91 1.266 . S
O108 Tb80 2.325 . S
O108 Tb81 2.658 . S
O108 C98 1.281 . S
O109 Tb81 2.409 . S
O109 C98 1.254 . S
O110 Tb81 2.378 . S
O110 C99 1.236 . S
O111 Tb80 2.341 . S
O111 C99 1.266 . S
H112 C84 0.929 . S
H113 C85 0.931 . S
H114 C87 0.930 . S
H115 C88 0.930 . S
H116 C93 0.918 1_554 S
H117 C94 0.931 . S
H118 C96 0.930 1_545 S
H119 C97 0.930 1_544 S
Tb120 C122 2.809 . S
Tb120 O140 2.484 . S
Tb120 O141 2.440 . S
Tb120 O142 2.658 . S
Tb120 O143 2.409 . S
Tb120 O144 2.378 . S
Tb120 O148 2.325 . S
Tb120 O151 2.341 . S
Tb121 C131 2.809 . S
Tb121 O142 2.325 . S
Tb121 O145 2.341 . S
Tb121 O146 2.484 . S
Tb121 O147 2.440 . S
Tb121 O148 2.658 . S
Tb121 O149 2.409 . S
Tb121 O150 2.378 . S
C122 Tb120 2.809 . S
C122 C123 1.514 . S
C122 O140 1.248 . S
C122 O141 1.266 . S
C123 C122 1.514 . S
C123 C124 1.359 . S
C123 C128 1.348 . S
C124 C123 1.359 . S
C124 C125 1.380 . S
C124 H152 0.929 . S
C125 C124 1.380 . S
C125 C126 1.347 . S
C125 H153 0.931 . S
C126 C125 1.347 . S
C126 C127 1.369 . S
C127 C126 1.369 . S
C127 C128 1.408 . S
C127 H154 0.930 . S
C128 C123 1.348 . S
C128 C127 1.408 . S
C128 H155 0.930 . S
C129 O142 1.281 . S
C129 O143 1.254 . S
C130 O144 1.236 . S
C130 O145 1.266 . S
C131 Tb121 2.809 . S
C131 C132 1.514 . S
C131 O146 1.248 . S
C131 O147 1.266 . S
C132 C131 1.514 . S
C132 C133 1.359 . S
C132 C137 1.348 . S
C133 C132 1.359 . S
C133 C134 1.380 . S
C133 H156 0.929 . S
C134 C133 1.380 . S
C134 C135 1.347 . S
C134 H157 0.931 . S
C135 C134 1.347 . S
C135 C136 1.369 . S
C136 C135 1.369 . S
C136 C137 1.408 . S
C136 H158 0.930 1_545 S
C137 C132 1.348 . S
C137 C136 1.408 . S
C137 H159 0.930 1_545 S
C138 O148 1.281 . S
C138 O149 1.254 . S
C139 O150 1.236 . S
C139 O151 1.266 . S
O140 Tb120 2.484 . S
O140 C122 1.248 . S
O141 Tb120 2.440 . S
O141 C122 1.266 . S
O142 Tb120 2.658 . S
O142 Tb121 2.325 . S
O142 C129 1.281 . S
O143 Tb120 2.409 . S
O143 C129 1.254 . S
O144 Tb120 2.378 . S
O144 C130 1.236 . S
O145 Tb121 2.341 . S
O145 C130 1.266 . S
O146 Tb121 2.484 . S
O146 C131 1.248 . S
O147 Tb121 2.440 . S
O147 C131 1.266 . S
O148 Tb120 2.325 . S
O148 Tb121 2.658 . S
O148 C138 1.281 . S
O149 Tb121 2.409 . S
O149 C138 1.254 . S
O150 Tb121 2.378 . S
O150 C139 1.236 . S
O151 Tb120 2.341 . S
O151 C139 1.266 . S
H152 C124 0.929 . S
H153 C125 0.931 . S
H154 C127 0.930 . S
H155 C128 0.930 . S
H156 C133 0.929 . S
H157 C134 0.931 . S
H158 C136 0.930 1_565 S
H159 C137 0.930 1_565 S
Tb160 C162 2.809 . S
Tb160 O180 2.484 . S
Tb160 O181 2.440 . S
Tb160 O182 2.658 . S
Tb160 O183 2.409 . S
Tb160 O184 2.378 . S
Tb160 O188 2.325 . S
Tb160 O191 2.341 . S
Tb161 C171 2.809 . S
Tb161 O182 2.325 . S
Tb161 O185 2.341 . S
Tb161 O186 2.484 . S
Tb161 O187 2.440 . S
Tb161 O188 2.658 . S
Tb161 O189 2.409 . S
Tb161 O190 2.378 . S
C162 Tb160 2.809 . S
C162 C163 1.514 . S
C162 O180 1.248 . S
C162 O181 1.266 . S
C163 C162 1.514 . S
C163 C164 1.359 . S
C163 C168 1.348 . S
C164 C163 1.359 . S
C164 C165 1.380 . S
C164 H192 0.929 . S
C165 C164 1.380 . S
C165 C166 1.347 . S
C165 H193 0.931 . S
C166 C165 1.347 . S
C166 C167 1.369 . S
C167 C166 1.369 . S
C167 C168 1.408 . S
C167 H194 0.930 . S
C168 C163 1.348 . S
C168 C167 1.408 . S
C168 H195 0.930 . S
C169 O182 1.281 . S
C169 O183 1.254 . S
C170 O184 1.236 . S
C170 O185 1.266 . S
C171 Tb161 2.809 . S
C171 C172 1.514 . S
C171 O186 1.248 . S
C171 O187 1.266 . S
C172 C171 1.514 . S
C172 C173 1.359 . S
C172 C177 1.348 . S
C173 C172 1.359 . S
C173 C174 1.380 . S
C173 H196 0.929 . S
C174 C173 1.380 . S
C174 C175 1.347 . S
C174 H197 0.931 . S
C175 C174 1.347 . S
C175 C176 1.369 . S
C176 C175 1.369 . S
C176 C177 1.408 . S
C176 H198 0.930 1_655 S
C177 C172 1.348 . S
C177 C176 1.408 . S
C177 H199 0.930 1_655 S
C178 O188 1.281 . S
C178 O189 1.254 . S
C179 O190 1.236 . S
C179 O191 1.266 . S
O180 Tb160 2.484 . S
O180 C162 1.248 . S
O181 Tb160 2.440 . S
O181 C162 1.266 . S
O182 Tb160 2.658 . S
O182 Tb161 2.325 . S
O182 C169 1.281 . S
O183 Tb160 2.409 . S
O183 C169 1.254 . S
O184 Tb160 2.378 . S
O184 C170 1.236 . S
O185 Tb161 2.341 . S
O185 C170 1.266 . S
O186 Tb161 2.484 . S
O186 C171 1.248 . S
O187 Tb161 2.440 . S
O187 C171 1.266 . S
O188 Tb160 2.325 . S
O188 Tb161 2.658 . S
O188 C178 1.281 . S
O189 Tb161 2.409 . S
O189 C178 1.254 . S
O190 Tb161 2.378 . S
O190 C179 1.236 . S
O191 Tb160 2.341 . S
O191 C179 1.266 . S
H192 C164 0.929 . S
H193 C165 0.931 . S
H194 C167 0.930 . S
H195 C168 0.930 . S
H196 C173 0.929 . S
H197 C174 0.931 . S
H198 C176 0.930 1_455 S
H199 C177 0.930 1_455 S
Tb200 C202 2.809 . S
Tb200 O220 2.484 . S
Tb200 O221 2.440 . S
Tb200 O222 2.658 . S
Tb200 O223 2.409 . S
Tb200 O224 2.378 . S
Tb200 O228 2.325 . S
Tb200 O231 2.341 . S
Tb201 C211 2.809 . S
Tb201 O222 2.325 . S
Tb201 O225 2.341 . S
Tb201 O226 2.484 . S
Tb201 O227 2.440 . S
Tb201 O228 2.658 . S
Tb201 O229 2.409 . S
Tb201 O230 2.378 . S
C202 Tb200 2.809 . S
C202 C203 1.514 . S
C202 O220 1.248 . S
C202 O221 1.266 . S
C203 C202 1.514 . S
C203 C204 1.359 . S
C203 C208 1.348 . S
C204 C203 1.359 . S
C204 C205 1.380 . S
C204 H232 0.929 . S
C205 C204 1.380 . S
C205 C206 1.347 . S
C205 H233 0.931 . S
C206 C205 1.347 . S
C206 C207 1.369 . S
C207 C206 1.369 . S
C207 C208 1.408 . S
C207 H234 0.930 . S
C208 C203 1.348 . S
C208 C207 1.408 . S
C208 H235 0.930 . S
C209 O222 1.281 . S
C209 O223 1.254 . S
C210 O224 1.236 . S
C210 O225 1.266 . S
C211 Tb201 2.809 . S
C211 C212 1.514 . S
C211 O226 1.248 . S
C211 O227 1.266 . S
C212 C211 1.514 . S
C212 C213 1.359 . S
C212 C217 1.348 . S
C213 C212 1.359 . S
C213 C214 1.380 . S
C213 H236 0.929 . S
C214 C213 1.380 . S
C214 C215 1.347 . S
C214 H237 0.931 . S
C215 C214 1.347 . S
C215 C216 1.369 . S
C216 C215 1.369 . S
C216 C217 1.408 . S
C216 H238 0.930 . S
C217 C212 1.348 . S
C217 C216 1.408 . S
C217 H239 0.930 . S
C218 O228 1.281 . S
C218 O229 1.254 . S
C219 O230 1.236 . S
C219 O231 1.266 . S
O220 Tb200 2.484 . S
O220 C202 1.248 . S
O221 Tb200 2.440 . S
O221 C202 1.266 . S
O222 Tb200 2.658 . S
O222 Tb201 2.325 . S
O222 C209 1.281 . S
O223 Tb200 2.409 . S
O223 C209 1.254 . S
O224 Tb200 2.378 . S
O224 C210 1.236 . S
O225 Tb201 2.341 . S
O225 C210 1.266 . S
O226 Tb201 2.484 . S
O226 C211 1.248 . S
O227 Tb201 2.440 . S
O227 C211 1.266 . S
O228 Tb200 2.325 . S
O228 Tb201 2.658 . S
O228 C218 1.281 . S
O229 Tb201 2.409 . S
O229 C218 1.254 . S
O230 Tb201 2.378 . S
O230 C219 1.236 . S
O231 Tb200 2.341 . S
O231 C219 1.266 . S
H232 C204 0.929 . S
H233 C205 0.931 . S
H234 C207 0.930 . S
H235 C208 0.930 . S
H236 C213 0.929 . S
H237 C214 0.931 . S
H238 C216 0.930 . S
H239 C217 0.930 . S
Tb240 C242 2.809 . S
Tb240 O260 2.484 . S
Tb240 O261 2.440 . S
Tb240 O262 2.658 . S
Tb240 O263 2.409 . S
Tb240 O264 2.378 . S
Tb240 O268 2.325 . S
Tb240 O271 2.341 . S
Tb241 C251 2.809 1_554 S
Tb241 O262 2.325 . S
Tb241 O265 2.341 . S
Tb241 O266 2.484 1_554 S
Tb241 O267 2.440 1_554 S
Tb241 O268 2.658 . S
Tb241 O269 2.409 . S
Tb241 O270 2.378 . S
C242 Tb240 2.809 . S
C242 C243 1.514 . S
C242 O260 1.248 . S
C242 O261 1.266 . S
C243 C242 1.514 . S
C243 C244 1.359 . S
C243 C248 1.348 . S
C244 C243 1.359 . S
C244 C245 1.380 . S
C244 H272 0.929 . S
C245 C244 1.380 . S
C245 C246 1.347 . S
C245 H273 0.931 . S
C246 C245 1.347 . S
C246 C247 1.369 . S
C247 C246 1.369 . S
C247 C248 1.408 . S
C247 H274 0.930 1_655 S
C248 C243 1.348 . S
C248 C247 1.408 . S
C248 H275 0.930 1_655 S
C249 O262 1.281 . S
C249 O263 1.254 . S
C250 O264 1.236 . S
C250 O265 1.266 . S
C251 Tb241 2.809 1_556 S
C251 C252 1.514 . S
C251 O266 1.248 . S
C251 O267 1.266 . S
C252 C251 1.514 . S
C252 C253 1.359 . S
C252 C257 1.348 . S
C253 C252 1.359 . S
C253 C254 1.380 . S
C253 H276 0.929 . S
C254 C253 1.380 . S
C254 C255 1.347 . S
C254 H277 0.931 . S
C255 C254 1.347 . S
C255 C256 1.369 . S
C256 C255 1.369 . S
C256 C257 1.408 . S
C256 H278 0.930 . S
C257 C252 1.348 . S
C257 C256 1.408 . S
C257 H279 0.930 . S
C258 O268 1.281 . S
C258 O269 1.254 . S
C259 O270 1.236 . S
C259 O271 1.266 . S
O260 Tb240 2.484 . S
O260 C242 1.248 . S
O261 Tb240 2.440 . S
O261 C242 1.266 . S
O262 Tb240 2.658 . S
O262 Tb241 2.325 . S
O262 C249 1.281 . S
O263 Tb240 2.409 . S
O263 C249 1.254 . S
O264 Tb240 2.378 . S
O264 C250 1.236 . S
O265 Tb241 2.341 . S
O265 C250 1.266 . S
O266 Tb241 2.484 1_556 S
O266 C251 1.248 . S
O267 Tb241 2.440 1_556 S
O267 C251 1.266 . S
O268 Tb240 2.325 . S
O268 Tb241 2.658 . S
O268 C258 1.281 . S
O269 Tb241 2.409 . S
O269 C258 1.254 . S
O270 Tb241 2.378 . S
O270 C259 1.236 . S
O271 Tb240 2.341 . S
O271 C259 1.266 . S
H272 C244 0.929 . S
H273 C245 0.931 . S
H274 C247 0.930 1_455 S
H275 C248 0.930 1_455 S
H276 C253 0.929 . S
H277 C254 0.931 . S
H278 C256 0.930 . S
H279 C257 0.930 . S
Tb280 C282 2.809 . S
Tb280 O300 2.484 . S
Tb280 O301 2.440 . S
Tb280 O302 2.658 . S
Tb280 O303 2.409 . S
Tb280 O304 2.378 . S
Tb280 O308 2.325 . S
Tb280 O311 2.341 . S
Tb281 C291 2.809 1_554 S
Tb281 O302 2.325 . S
Tb281 O305 2.341 . S
Tb281 O306 2.484 1_554 S
Tb281 O307 2.440 1_554 S
Tb281 O308 2.658 . S
Tb281 O309 2.409 . S
Tb281 O310 2.378 . S
C282 Tb280 2.809 . S
C282 C283 1.514 . S
C282 O300 1.248 . S
C282 O301 1.266 . S
C283 C282 1.514 . S
C283 C284 1.359 . S
C283 C288 1.348 . S
C284 C283 1.359 . S
C284 C285 1.380 . S
C284 H312 0.929 . S
C285 C284 1.380 . S
C285 C286 1.347 . S
C285 H313 0.931 . S
C286 C285 1.347 . S
C286 C287 1.369 . S
C287 C286 1.369 . S
C287 C288 1.408 . S
C287 H314 0.930 . S
C288 C283 1.348 . S
C288 C287 1.408 . S
C288 H315 0.930 . S
C289 O302 1.281 . S
C289 O303 1.254 . S
C290 O304 1.236 . S
C290 O305 1.266 . S
C291 Tb281 2.809 1_556 S
C291 C292 1.514 . S
C291 O306 1.248 . S
C291 O307 1.266 . S
C292 C291 1.514 . S
C292 C293 1.359 . S
C292 C297 1.348 . S
C293 C292 1.359 . S
C293 C294 1.380 . S
C293 H316 0.929 . S
C294 C293 1.380 . S
C294 C295 1.347 . S
C294 H317 0.931 . S
C295 C294 1.347 . S
C295 C296 1.369 . S
C296 C295 1.369 . S
C296 C297 1.408 . S
C296 H318 0.930 . S
C297 C292 1.348 . S
C297 C296 1.408 . S
C297 H319 0.930 . S
C298 O308 1.281 . S
C298 O309 1.254 . S
C299 O310 1.236 . S
C299 O311 1.266 . S
O300 Tb280 2.484 . S
O300 C282 1.248 . S
O301 Tb280 2.440 . S
O301 C282 1.266 . S
O302 Tb280 2.658 . S
O302 Tb281 2.325 . S
O302 C289 1.281 . S
O303 Tb280 2.409 . S
O303 C289 1.254 . S
O304 Tb280 2.378 . S
O304 C290 1.236 . S
O305 Tb281 2.341 . S
O305 C290 1.266 . S
O306 Tb281 2.484 1_556 S
O306 C291 1.248 . S
O307 Tb281 2.440 1_556 S
O307 C291 1.266 . S
O308 Tb280 2.325 . S
O308 Tb281 2.658 . S
O308 C298 1.281 . S
O309 Tb281 2.409 . S
O309 C298 1.254 . S
O310 Tb281 2.378 . S
O310 C299 1.236 . S
O311 Tb280 2.341 . S
O311 C299 1.266 . S
H312 C284 0.929 . S
H313 C285 0.931 . S
H314 C287 0.930 . S
H315 C288 0.930 . S
H316 C293 0.929 . S
H317 C294 0.931 . S
H318 C296 0.930 . S
H319 C297 0.930 . S
Tb320 C322 2.809 . S
Tb320 O340 2.484 . S
Tb320 O341 2.440 . S
Tb320 O342 2.658 . S
Tb320 O343 2.409 . S
Tb320 O344 2.378 . S
Tb320 O348 2.325 . S
Tb320 O351 2.341 . S
Tb321 C331 2.809 1_554 S
Tb321 O342 2.325 . S
Tb321 O345 2.341 . S
Tb321 O346 2.484 1_554 S
Tb321 O347 2.440 1_554 S
Tb321 O348 2.658 . S
Tb321 O349 2.409 . S
Tb321 O350 2.378 . S
C322 Tb320 2.809 . S
C322 C323 1.514 . S
C322 O340 1.248 . S
C322 O341 1.266 . S
C323 C322 1.514 . S
C323 C324 1.359 . S
C323 C328 1.348 . S
C324 C323 1.359 . S
C324 C325 1.380 . S
C324 H352 0.929 . S
C325 C324 1.380 . S
C325 C326 1.347 . S
C325 H353 0.931 . S
C326 C325 1.347 . S
C326 C327 1.369 . S
C327 C326 1.369 . S
C327 C328 1.408 . S
C327 H354 0.930 1_545 S
C328 C323 1.348 . S
C328 C327 1.408 . S
C328 H355 0.930 1_545 S
C329 O342 1.281 . S
C329 O343 1.254 . S
C330 O344 1.236 . S
C330 O345 1.266 . S
C331 Tb321 2.809 1_556 S
C331 C332 1.514 . S
C331 O346 1.248 . S
C331 O347 1.266 . S
C332 C331 1.514 . S
C332 C333 1.359 . S
C332 C337 1.348 . S
C333 C332 1.359 . S
C333 C334 1.380 . S
C333 H356 0.929 . S
C334 C333 1.380 . S
C334 C335 1.347 . S
C334 H357 0.931 . S
C335 C334 1.347 . S
C335 C336 1.369 . S
C336 C335 1.369 . S
C336 C337 1.408 . S
C336 H358 0.930 . S
C337 C332 1.348 . S
C337 C336 1.408 . S
C337 H359 0.930 . S
C338 O348 1.281 . S
C338 O349 1.254 . S
C339 O350 1.236 . S
C339 O351 1.266 . S
O340 Tb320 2.484 . S
O340 C322 1.248 . S
O341 Tb320 2.440 . S
O341 C322 1.266 . S
O342 Tb320 2.658 . S
O342 Tb321 2.325 . S
O342 C329 1.281 . S
O343 Tb320 2.409 . S
O343 C329 1.254 . S
O344 Tb320 2.378 . S
O344 C330 1.236 . S
O345 Tb321 2.341 . S
O345 C330 1.266 . S
O346 Tb321 2.484 1_556 S
O346 C331 1.248 . S
O347 Tb321 2.440 1_556 S
O347 C331 1.266 . S
O348 Tb320 2.325 . S
O348 Tb321 2.658 . S
O348 C338 1.281 . S
O349 Tb321 2.409 . S
O349 C338 1.254 . S
O350 Tb321 2.378 . S
O350 C339 1.236 . S
O351 Tb320 2.341 . S
O351 C339 1.266 . S
H352 C324 0.929 . S
H353 C325 0.931 . S
H354 C327 0.930 1_565 S
H355 C328 0.930 1_565 S
H356 C333 0.929 . S
H357 C334 0.931 . S
H358 C336 0.930 . S
H359 C337 0.930 . S
Tb360 C362 2.809 . S
Tb360 O380 2.484 . S
Tb360 O381 2.440 . S
Tb360 O382 2.658 . S
Tb360 O383 2.409 . S
Tb360 O384 2.378 . S
Tb360 O388 2.325 . S
Tb360 O391 2.341 . S
Tb361 C371 2.809 . S
Tb361 O382 2.325 . S
Tb361 O385 2.341 . S
Tb361 O386 2.484 . S
Tb361 O387 2.440 . S
Tb361 O388 2.658 . S
Tb361 O389 2.409 . S
Tb361 O390 2.378 . S
C362 Tb360 2.809 . S
C362 C363 1.514 . S
C362 O380 1.248 . S
C362 O381 1.266 . S
C363 C362 1.514 . S
C363 C364 1.359 . S
C363 C368 1.348 . S
C364 C363 1.359 . S
C364 C365 1.380 . S
C364 H392 0.929 . S
C365 C364 1.380 . S
C365 C366 1.347 . S
C365 H393 0.931 . S
C366 C365 1.347 . S
C366 C367 1.369 . S
C367 C366 1.369 . S
C367 C368 1.408 . S
C367 H394 0.930 1_565 S
C368 C363 1.348 . S
C368 C367 1.408 . S
C368 H395 0.930 1_565 S
C369 O382 1.281 . S
C369 O383 1.254 . S
C370 O384 1.236 . S
C370 O385 1.266 . S
C371 Tb361 2.809 . S
C371 C372 1.514 . S
C371 O386 1.248 . S
C371 O387 1.266 . S
C372 C371 1.514 . S
C372 C373 1.359 . S
C372 C377 1.348 . S
C373 C372 1.359 . S
C373 C374 1.380 . S
C373 H396 0.929 . S
C374 C373 1.380 . S
C374 C375 1.347 . S
C374 H397 0.931 . S
C375 C374 1.347 . S
C375 C376 1.369 . S
C376 C375 1.369 . S
C376 C377 1.408 . S
C376 H398 0.930 . S
C377 C372 1.348 . S
C377 C376 1.408 . S
C377 H399 0.930 . S
C378 O388 1.281 . S
C378 O389 1.254 . S
C379 O390 1.236 . S
C379 O391 1.266 . S
O380 Tb360 2.484 . S
O380 C362 1.248 . S
O381 Tb360 2.440 . S
O381 C362 1.266 . S
O382 Tb360 2.658 . S
O382 Tb361 2.325 . S
O382 C369 1.281 . S
O383 Tb360 2.409 . S
O383 C369 1.254 . S
O384 Tb360 2.378 . S
O384 C370 1.236 . S
O385 Tb361 2.341 . S
O385 C370 1.266 . S
O386 Tb361 2.484 . S
O386 C371 1.248 . S
O387 Tb361 2.440 . S
O387 C371 1.266 . S
O388 Tb360 2.325 . S
O388 Tb361 2.658 . S
O388 C378 1.281 . S
O389 Tb361 2.409 . S
O389 C378 1.254 . S
O390 Tb361 2.378 . S
O390 C379 1.236 . S
O391 Tb360 2.341 . S
O391 C379 1.266 . S
H392 C364 0.929 . S
H393 C365 0.931 . S
H394 C367 0.930 1_545 S
H395 C368 0.930 1_545 S
H396 C373 0.929 . S
H397 C374 0.931 . S
H398 C376 0.930 . S
H399 C377 0.930 . S
Tb400 C402 2.809 . S
Tb400 O420 2.484 . S
Tb400 O421 2.440 . S
Tb400 O422 2.658 . S
Tb400 O423 2.409 . S
Tb400 O424 2.378 . S
Tb400 O428 2.325 . S
Tb400 O431 2.341 . S
Tb401 C411 2.809 . S
Tb401 O422 2.325 . S
Tb401 O425 2.341 . S
Tb401 O426 2.484 . S
Tb401 O427 2.440 . S
Tb401 O428 2.658 . S
Tb401 O429 2.409 . S
Tb401 O430 2.378 . S
C402 Tb400 2.809 . S
C402 C403 1.514 . S
C402 O420 1.248 . S
C402 O421 1.266 . S
C403 C402 1.514 . S
C403 C404 1.359 . S
C403 C408 1.348 . S
C404 C403 1.359 . S
C404 C405 1.380 . S
C404 H432 0.929 . S
C405 C404 1.380 . S
C405 C406 1.347 . S
C405 H433 0.931 . S
C406 C405 1.347 . S
C406 C407 1.369 . S
C407 C406 1.369 . S
C407 C408 1.408 . S
C407 H434 0.930 1_455 S
C408 C403 1.348 . S
C408 C407 1.408 . S
C408 H435 0.930 1_455 S
C409 O422 1.281 . S
C409 O423 1.254 . S
C410 O424 1.236 . S
C410 O425 1.266 . S
C411 Tb401 2.809 . S
C411 C412 1.514 . S
C411 O426 1.248 . S
C411 O427 1.266 . S
C412 C411 1.514 . S
C412 C413 1.359 . S
C412 C417 1.348 . S
C413 C412 1.359 . S
C413 C414 1.380 . S
C413 H436 0.929 . S
C414 C413 1.380 . S
C414 C415 1.347 . S
C414 H437 0.931 . S
C415 C414 1.347 . S
C415 C416 1.369 . S
C416 C415 1.369 . S
C416 C417 1.408 . S
C416 H438 0.930 . S
C417 C412 1.348 . S
C417 C416 1.408 . S
C417 H439 0.930 . S
C418 O428 1.281 . S
C418 O429 1.254 . S
C419 O430 1.236 . S
C419 O431 1.266 . S
O420 Tb400 2.484 . S
O420 C402 1.248 . S
O421 Tb400 2.440 . S
O421 C402 1.266 . S
O422 Tb400 2.658 . S
O422 Tb401 2.325 . S
O422 C409 1.281 . S
O423 Tb400 2.409 . S
O423 C409 1.254 . S
O424 Tb400 2.378 . S
O424 C410 1.236 . S
O425 Tb401 2.341 . S
O425 C410 1.266 . S
O426 Tb401 2.484 . S
O426 C411 1.248 . S
O427 Tb401 2.440 . S
O427 C411 1.266 . S
O428 Tb400 2.325 . S
O428 Tb401 2.658 . S
O428 C418 1.281 . S
O429 Tb401 2.409 . S
O429 C418 1.254 . S
O430 Tb401 2.378 . S
O430 C419 1.236 . S
O431 Tb400 2.341 . S
O431 C419 1.266 . S
H432 C404 0.929 . S
H433 C405 0.931 . S
H434 C407 0.930 1_655 S
H435 C408 0.930 1_655 S
H436 C413 0.929 . S
H437 C414 0.931 . S
H438 C416 0.930 . S
H439 C417 0.930 . S
Tb440 C442 2.809 . S
Tb440 O460 2.484 . S
Tb440 O461 2.440 . S
Tb440 O462 2.658 . S
Tb440 O463 2.409 . S
Tb440 O464 2.378 . S
Tb440 O468 2.325 . S
Tb440 O471 2.341 . S
Tb441 C451 2.809 . S
Tb441 O462 2.325 . S
Tb441 O465 2.341 . S
Tb441 O466 2.484 . S
Tb441 O467 2.440 . S
Tb441 O468 2.658 . S
Tb441 O469 2.409 . S
Tb441 O470 2.378 . S
C442 Tb440 2.809 . S
C442 C443 1.514 . S
C442 O460 1.248 . S
C442 O461 1.266 . S
C443 C442 1.514 . S
C443 C444 1.359 . S
C443 C448 1.348 . S
C444 C443 1.359 . S
C444 C445 1.380 . S
C444 H472 0.929 . S
C445 C444 1.380 . S
C445 C446 1.347 . S
C445 H473 0.931 . S
C446 C445 1.347 . S
C446 C447 1.369 . S
C447 C446 1.369 . S
C447 C448 1.408 . S
C447 H474 0.930 . S
C448 C443 1.348 . S
C448 C447 1.408 . S
C448 H475 0.930 . S
C449 O462 1.281 . S
C449 O463 1.254 . S
C450 O464 1.236 . S
C450 O465 1.266 . S
C451 Tb441 2.809 . S
C451 C452 1.514 . S
C451 O466 1.248 . S
C451 O467 1.266 . S
C452 C451 1.514 . S
C452 C453 1.359 . S
C452 C457 1.348 . S
C453 C452 1.359 . S
C453 C454 1.380 . S
C453 H476 0.929 . S
C454 C453 1.380 . S
C454 C455 1.347 . S
C454 H477 0.931 . S
C455 C454 1.347 . S
C455 C456 1.369 . S
C456 C455 1.369 . S
C456 C457 1.408 . S
C456 H478 0.930 . S
C457 C452 1.348 . S
C457 C456 1.408 . S
C457 H479 0.930 . S
C458 O468 1.281 . S
C458 O469 1.254 . S
C459 O470 1.236 . S
C459 O471 1.266 . S
O460 Tb440 2.484 . S
O460 C442 1.248 . S
O461 Tb440 2.440 . S
O461 C442 1.266 . S
O462 Tb440 2.658 . S
O462 Tb441 2.325 . S
O462 C449 1.281 . S
O463 Tb440 2.409 . S
O463 C449 1.254 . S
O464 Tb440 2.378 . S
O464 C450 1.236 . S
O465 Tb441 2.341 . S
O465 C450 1.266 . S
O466 Tb441 2.484 . S
O466 C451 1.248 . S
O467 Tb441 2.440 . S
O467 C451 1.266 . S
O468 Tb440 2.325 . S
O468 Tb441 2.658 . S
O468 C458 1.281 . S
O469 Tb441 2.409 . S
O469 C458 1.254 . S
O470 Tb441 2.378 . S
O470 C459 1.236 . S
O471 Tb440 2.341 . S
O471 C459 1.266 . S
H472 C444 0.929 . S
H473 C445 0.931 . S
H474 C447 0.930 . S
H475 C448 0.930 . S
H476 C453 0.929 . S
H477 C454 0.931 . S
H478 C456 0.930 . S
H479 C457 0.930 . S
Tb480 C482 2.809 . S
Tb480 O500 2.484 . S
Tb480 O501 2.440 . S
Tb480 O502 2.658 . S
Tb480 O503 2.409 . S
Tb480 O504 2.378 . S
Tb480 O508 2.325 . S
Tb480 O511 2.341 . S
Tb481 C491 2.809 . S
Tb481 O502 2.325 . S
Tb481 O505 2.341 . S
Tb481 O506 2.484 . S
Tb481 O507 2.440 . S
Tb481 O508 2.658 . S
Tb481 O509 2.409 . S
Tb481 O510 2.378 . S
C482 Tb480 2.809 . S
C482 C483 1.514 . S
C482 O500 1.248 . S
C482 O501 1.266 . S
C483 C482 1.514 . S
C483 C484 1.359 . S
C483 C488 1.348 . S
C484 C483 1.359 . S
C484 C485 1.380 . S
C484 H512 0.929 . S
C485 C484 1.380 . S
C485 C486 1.347 . S
C485 H513 0.931 . S
C486 C485 1.347 . S
C486 C487 1.369 . S
C487 C486 1.369 . S
C487 C488 1.408 . S
C487 H514 0.930 . S
C488 C483 1.348 . S
C488 C487 1.408 . S
C488 H515 0.930 . S
C489 O502 1.281 . S
C489 O503 1.254 . S
C490 O504 1.236 . S
C490 O505 1.266 . S
C491 Tb481 2.809 . S
C491 C492 1.514 . S
C491 O506 1.248 . S
C491 O507 1.266 . S
C492 C491 1.514 . S
C492 C493 1.359 . S
C492 C497 1.348 . S
C493 C492 1.359 . S
C493 C494 1.380 . S
C493 H516 0.929 . S
C494 C493 1.380 . S
C494 C495 1.347 . S
C494 H517 0.931 . S
C495 C494 1.347 . S
C495 C496 1.369 . S
C496 C495 1.369 . S
C496 C497 1.408 . S
C496 H518 0.930 . S
C497 C492 1.348 . S
C497 C496 1.408 . S
C497 H519 0.930 . S
C498 O508 1.281 . S
C498 O509 1.254 . S
C499 O510 1.236 . S
C499 O511 1.266 . S
O500 Tb480 2.484 . S
O500 C482 1.248 . S
O501 Tb480 2.440 . S
O501 C482 1.266 . S
O502 Tb480 2.658 . S
O502 Tb481 2.325 . S
O502 C489 1.281 . S
O503 Tb480 2.409 . S
O503 C489 1.254 . S
O504 Tb480 2.378 . S
O504 C490 1.236 . S
O505 Tb481 2.341 . S
O505 C490 1.266 . S
O506 Tb481 2.484 . S
O506 C491 1.248 . S
O507 Tb481 2.440 . S
O507 C491 1.266 . S
O508 Tb480 2.325 . S
O508 Tb481 2.658 . S
O508 C498 1.281 . S
O509 Tb481 2.409 . S
O509 C498 1.254 . S
O510 Tb481 2.378 . S
O510 C499 1.236 . S
O511 Tb480 2.341 . S
O511 C499 1.266 . S
H512 C484 0.929 . S
H513 C485 0.931 . S
H514 C487 0.930 . S
H515 C488 0.930 . S
H516 C493 0.929 . S
H517 C494 0.931 . S
H518 C496 0.930 . S
H519 C497 0.930 . S
Tb520 C522 2.809 . S
Tb520 O540 2.484 . S
Tb520 O541 2.440 . S
Tb520 O542 2.658 . S
Tb520 O543 2.409 . S
Tb520 O544 2.378 . S
Tb520 O548 2.325 . S
Tb520 O551 2.341 . S
Tb521 C531 2.809 . S
Tb521 O542 2.325 . S
Tb521 O545 2.341 . S
Tb521 O546 2.484 . S
Tb521 O547 2.440 . S
Tb521 O548 2.658 . S
Tb521 O549 2.409 . S
Tb521 O550 2.378 . S
C522 Tb520 2.809 . S
C522 C523 1.514 . S
C522 O540 1.248 . S
C522 O541 1.266 . S
C523 C522 1.514 . S
C523 C524 1.359 . S
C523 C528 1.348 . S
C524 C523 1.359 . S
C524 C525 1.380 . S
C524 H552 0.929 . S
C525 C524 1.380 . S
C525 C526 1.347 . S
C525 H553 0.931 . S
C526 C525 1.347 . S
C526 C527 1.369 . S
C527 C526 1.369 . S
C527 C528 1.408 . S
C527 H554 0.930 . S
C528 C523 1.348 . S
C528 C527 1.408 . S
C528 H555 0.930 . S
C529 O542 1.281 . S
C529 O543 1.254 . S
C530 O544 1.236 . S
C530 O545 1.266 . S
C531 Tb521 2.809 . S
C531 C532 1.514 . S
C531 O546 1.248 . S
C531 O547 1.266 . S
C532 C531 1.514 . S
C532 C533 1.359 . S
C532 C537 1.348 . S
C533 C532 1.359 . S
C533 C534 1.380 . S
C533 H556 0.929 . S
C534 C533 1.380 . S
C534 C535 1.347 . S
C534 H557 0.931 . S
C535 C534 1.347 . S
C535 C536 1.369 . S
C536 C535 1.369 . S
C536 C537 1.408 . S
C536 H558 0.930 . S
C537 C532 1.348 . S
C537 C536 1.408 . S
C537 H559 0.930 . S
C538 O548 1.281 . S
C538 O549 1.254 . S
C539 O550 1.236 . S
C539 O551 1.266 . S
O540 Tb520 2.484 . S
O540 C522 1.248 . S
O541 Tb520 2.440 . S
O541 C522 1.266 . S
O542 Tb520 2.658 . S
O542 Tb521 2.325 . S
O542 C529 1.281 . S
O543 Tb520 2.409 . S
O543 C529 1.254 . S
O544 Tb520 2.378 . S
O544 C530 1.236 . S
O545 Tb521 2.341 . S
O545 C530 1.266 . S
O546 Tb521 2.484 . S
O546 C531 1.248 . S
O547 Tb521 2.440 . S
O547 C531 1.266 . S
O548 Tb520 2.325 . S
O548 Tb521 2.658 . S
O548 C538 1.281 . S
O549 Tb521 2.409 . S
O549 C538 1.254 . S
O550 Tb521 2.378 . S
O550 C539 1.236 . S
O551 Tb520 2.341 . S
O551 C539 1.266 . S
H552 C524 0.929 . S
H553 C525 0.931 . S
H554 C527 0.930 . S
H555 C528 0.930 . S
H556 C533 0.929 . S
H557 C534 0.931 . S
H558 C536 0.930 . S
H559 C537 0.930 . S
Tb560 C562 2.809 . S
Tb560 O580 2.484 . S
Tb560 O581 2.440 . S
Tb560 O582 2.658 . S
Tb560 O583 2.409 . S
Tb560 O584 2.378 . S
Tb560 O588 2.325 . S
Tb560 O591 2.341 . S
Tb561 C571 2.809 . S
Tb561 O582 2.325 . S
Tb561 O585 2.341 . S
Tb561 O586 2.484 . S
Tb561 O587 2.440 . S
Tb561 O588 2.658 . S
Tb561 O589 2.409 . S
Tb561 O590 2.378 . S
C562 Tb560 2.809 . S
C562 C563 1.514 . S
C562 O580 1.248 . S
C562 O581 1.266 . S
C563 C562 1.514 . S
C563 C564 1.359 . S
C563 C568 1.348 . S
C564 C563 1.359 . S
C564 C565 1.380 . S
C564 H592 0.929 . S
C565 C564 1.380 . S
C565 C566 1.347 . S
C565 H593 0.931 . S
C566 C565 1.347 . S
C566 C567 1.369 . S
C567 C566 1.369 . S
C567 C568 1.408 . S
C567 H594 0.930 . S
C568 C563 1.348 . S
C568 C567 1.408 . S
C568 H595 0.930 . S
C569 O582 1.281 . S
C569 O583 1.254 . S
C570 O584 1.236 . S
C570 O585 1.266 . S
C571 Tb561 2.809 . S
C571 C572 1.514 . S
C571 O586 1.248 . S
C571 O587 1.266 . S
C572 C571 1.514 . S
C572 C573 1.359 . S
C572 C577 1.348 . S
C573 C572 1.359 . S
C573 C574 1.380 . S
C573 H596 0.929 . S
C574 C573 1.380 . S
C574 C575 1.347 . S
C574 H597 0.931 . S
C575 C574 1.347 . S
C575 C576 1.369 . S
C576 C575 1.369 . S
C576 C577 1.408 . S
C576 H598 0.930 . S
C577 C572 1.348 . S
C577 C576 1.408 . S
C577 H599 0.930 . S
C578 O588 1.281 . S
C578 O589 1.254 . S
C579 O590 1.236 . S
C579 O591 1.266 . S
O580 Tb560 2.484 . S
O580 C562 1.248 . S
O581 Tb560 2.440 . S
O581 C562 1.266 . S
O582 Tb560 2.658 . S
O582 Tb561 2.325 . S
O582 C569 1.281 . S
O583 Tb560 2.409 . S
O583 C569 1.254 . S
O584 Tb560 2.378 . S
O584 C570 1.236 . S
O585 Tb561 2.341 . S
O585 C570 1.266 . S
O586 Tb561 2.484 . S
O586 C571 1.248 . S
O587 Tb561 2.440 . S
O587 C571 1.266 . S
O588 Tb560 2.325 . S
O588 Tb561 2.658 . S
O588 C578 1.281 . S
O589 Tb561 2.409 . S
O589 C578 1.254 . S
O590 Tb561 2.378 . S
O590 C579 1.236 . S
O591 Tb560 2.341 . S
O591 C579 1.266 . S
H592 C564 0.929 . S
H593 C565 0.931 . S
H594 C567 0.930 . S
H595 C568 0.930 . S
H596 C573 0.929 . S
H597 C574 0.931 . S
H598 C576 0.930 . S
H599 C577 0.930 . S
Tb600 C602 2.809 . S
Tb600 O620 2.484 . S
Tb600 O621 2.440 . S
Tb600 O622 2.658 . S
Tb600 O623 2.409 . S
Tb600 O624 2.378 . S
Tb600 O628 2.325 . S
Tb600 O631 2.341 . S
Tb601 C611 2.809 1_556 S
Tb601 O622 2.325 . S
Tb601 O625 2.341 . S
Tb601 O626 2.484 1_556 S
Tb601 O627 2.440 1_556 S
Tb601 O628 2.658 . S
Tb601 O629 2.409 . S
Tb601 O630 2.378 . S
C602 Tb600 2.809 . S
C602 C603 1.514 . S
C602 O620 1.248 . S
C602 O621 1.266 . S
C603 C602 1.514 . S
C603 C604 1.359 . S
C603 C608 1.348 . S
C604 C603 1.359 . S
C604 C605 1.380 . S
C604 H632 0.929 . S
C605 C604 1.380 . S
C605 C606 1.347 . S
C605 H633 0.931 . S
C606 C605 1.347 . S
C606 C607 1.369 . S
C607 C606 1.369 . S
C607 C608 1.408 . S
C607 H634 0.930 . S
C608 C603 1.348 . S
C608 C607 1.408 . S
C608 H635 0.930 . S
C609 O622 1.281 . S
C609 O623 1.254 . S
C610 O624 1.236 . S
C610 O625 1.266 . S
C611 Tb601 2.809 1_554 S
C611 C612 1.514 . S
C611 O626 1.248 . S
C611 O627 1.266 . S
C612 C611 1.514 . S
C612 C613 1.359 . S
C612 C617 1.348 . S
C613 C612 1.359 . S
C613 C614 1.380 . S
C613 H636 0.929 . S
C614 C613 1.380 . S
C614 C615 1.347 . S
C614 H637 0.931 . S
C615 C614 1.347 . S
C615 C616 1.369 . S
C616 C615 1.369 . S
C616 C617 1.408 . S
C616 H638 0.930 . S
C617 C612 1.348 . S
C617 C616 1.408 . S
C617 H639 0.930 . S
C618 O628 1.281 . S
C618 O629 1.254 . S
C619 O630 1.236 . S
C619 O631 1.266 . S
O620 Tb600 2.484 . S
O620 C602 1.248 . S
O621 Tb600 2.440 . S
O621 C602 1.266 . S
O622 Tb600 2.658 . S
O622 Tb601 2.325 . S
O622 C609 1.281 . S
O623 Tb600 2.409 . S
O623 C609 1.254 . S
O624 Tb600 2.378 . S
O624 C610 1.236 . S
O625 Tb601 2.341 . S
O625 C610 1.266 . S
O626 Tb601 2.484 1_554 S
O626 C611 1.248 . S
O627 Tb601 2.440 1_554 S
O627 C611 1.266 . S
O628 Tb600 2.325 . S
O628 Tb601 2.658 . S
O628 C618 1.281 . S
O629 Tb601 2.409 . S
O629 C618 1.254 . S
O630 Tb601 2.378 . S
O630 C619 1.236 . S
O631 Tb600 2.341 . S
O631 C619 1.266 . S
H632 C604 0.929 . S
H633 C605 0.931 . S
H634 C607 0.930 . S
H635 C608 0.930 . S
H636 C613 0.929 . S
H637 C614 0.931 . S
H638 C616 0.930 . S
H639 C617 0.930 . S
Tb640 C642 2.809 . S
Tb640 O660 2.484 . S
Tb640 O661 2.440 . S
Tb640 O662 2.658 . S
Tb640 O663 2.409 . S
Tb640 O664 2.378 . S
Tb640 O668 2.325 . S
Tb640 O671 2.341 . S
Tb641 C651 2.809 1_556 S
Tb641 O662 2.325 . S
Tb641 O665 2.341 . S
Tb641 O666 2.484 1_556 S
Tb641 O667 2.440 1_556 S
Tb641 O668 2.658 . S
Tb641 O669 2.409 . S
Tb641 O670 2.378 . S
C642 Tb640 2.809 . S
C642 C643 1.514 . S
C642 O660 1.248 . S
C642 O661 1.266 . S
C643 C642 1.514 . S
C643 C644 1.359 . S
C643 C648 1.348 . S
C644 C643 1.359 . S
C644 C645 1.380 . S
C644 H672 0.929 . S
C645 C644 1.380 . S
C645 C646 1.347 . S
C645 H673 0.931 . S
C646 C645 1.347 . S
C646 C647 1.369 . S
C647 C646 1.369 . S
C647 C648 1.408 . S
C647 H674 0.930 . S
C648 C643 1.348 . S
C648 C647 1.408 . S
C648 H675 0.930 . S
C649 O662 1.281 . S
C649 O663 1.254 . S
C650 O664 1.236 . S
C650 O665 1.266 . S
C651 Tb641 2.809 1_554 S
C651 C652 1.514 . S
C651 O666 1.248 . S
C651 O667 1.266 . S
C652 C651 1.514 . S
C652 C653 1.359 . S
C652 C657 1.348 . S
C653 C652 1.359 . S
C653 C654 1.380 . S
C653 H676 0.929 . S
C654 C653 1.380 . S
C654 C655 1.347 . S
C654 H677 0.931 . S
C655 C654 1.347 . S
C655 C656 1.369 . S
C656 C655 1.369 . S
C656 C657 1.408 . S
C656 H678 0.930 . S
C657 C652 1.348 . S
C657 C656 1.408 . S
C657 H679 0.930 . S
C658 O668 1.281 . S
C658 O669 1.254 . S
C659 O670 1.236 . S
C659 O671 1.266 . S
O660 Tb640 2.484 . S
O660 C642 1.248 . S
O661 Tb640 2.440 . S
O661 C642 1.266 . S
O662 Tb640 2.658 . S
O662 Tb641 2.325 . S
O662 C649 1.281 . S
O663 Tb640 2.409 . S
O663 C649 1.254 . S
O664 Tb640 2.378 . S
O664 C650 1.236 . S
O665 Tb641 2.341 . S
O665 C650 1.266 . S
O666 Tb641 2.484 1_554 S
O666 C651 1.248 . S
O667 Tb641 2.440 1_554 S
O667 C651 1.266 . S
O668 Tb640 2.325 . S
O668 Tb641 2.658 . S
O668 C658 1.281 . S
O669 Tb641 2.409 . S
O669 C658 1.254 . S
O670 Tb641 2.378 . S
O670 C659 1.236 . S
O671 Tb640 2.341 . S
O671 C659 1.266 . S
H672 C644 0.929 . S
H673 C645 0.931 . S
H674 C647 0.930 . S
H675 C648 0.930 . S
H676 C653 0.929 . S
H677 C654 0.931 . S
H678 C656 0.930 . S
H679 C657 0.930 . S
Tb680 C682 2.809 . S
Tb680 O700 2.484 . S
Tb680 O701 2.440 . S
Tb680 O702 2.658 . S
Tb680 O703 2.409 . S
Tb680 O704 2.378 . S
Tb680 O708 2.325 . S
Tb680 O711 2.341 . S
Tb681 C691 2.809 1_556 S
Tb681 O702 2.325 . S
Tb681 O705 2.341 . S
Tb681 O706 2.484 1_556 S
Tb681 O707 2.440 1_556 S
Tb681 O708 2.658 . S
Tb681 O709 2.409 . S
Tb681 O710 2.378 . S
C682 Tb680 2.809 . S
C682 C683 1.514 . S
C682 O700 1.248 . S
C682 O701 1.266 . S
C683 C682 1.514 . S
C683 C684 1.359 . S
C683 C688 1.348 . S
C684 C683 1.359 . S
C684 C685 1.380 . S
C684 H712 0.929 . S
C685 C684 1.380 . S
C685 C686 1.347 . S
C685 H713 0.931 . S
C686 C685 1.347 . S
C686 C687 1.369 . S
C687 C686 1.369 . S
C687 C688 1.408 . S
C687 H714 0.930 . S
C688 C683 1.348 . S
C688 C687 1.408 . S
C688 H715 0.930 . S
C689 O702 1.281 . S
C689 O703 1.254 . S
C690 O704 1.236 . S
C690 O705 1.266 . S
C691 Tb681 2.809 1_554 S
C691 C692 1.514 . S
C691 O706 1.248 . S
C691 O707 1.266 . S
C692 C691 1.514 . S
C692 C693 1.359 . S
C692 C697 1.348 . S
C693 C692 1.359 . S
C693 C694 1.380 . S
C693 H716 0.929 . S
C694 C693 1.380 . S
C694 C695 1.347 . S
C694 H717 0.931 . S
C695 C694 1.347 . S
C695 C696 1.369 . S
C696 C695 1.369 . S
C696 C697 1.408 . S
C696 H718 0.930 . S
C697 C692 1.348 . S
C697 C696 1.408 . S
C697 H719 0.930 . S
C698 O708 1.281 . S
C698 O709 1.254 . S
C699 O710 1.236 . S
C699 O711 1.266 . S
O700 Tb680 2.484 . S
O700 C682 1.248 . S
O701 Tb680 2.440 . S
O701 C682 1.266 . S
O702 Tb680 2.658 . S
O702 Tb681 2.325 . S
O702 C689 1.281 . S
O703 Tb680 2.409 . S
O703 C689 1.254 . S
O704 Tb680 2.378 . S
O704 C690 1.236 . S
O705 Tb681 2.341 . S
O705 C690 1.266 . S
O706 Tb681 2.484 1_554 S
O706 C691 1.248 . S
O707 Tb681 2.440 1_554 S
O707 C691 1.266 . S
O708 Tb680 2.325 . S
O708 Tb681 2.658 . S
O708 C698 1.281 . S
O709 Tb681 2.409 . S
O709 C698 1.254 . S
O710 Tb681 2.378 . S
O710 C699 1.236 . S
O711 Tb680 2.341 . S
O711 C699 1.266 . S
H712 C684 0.929 . S
H713 C685 0.931 . S
H714 C687 0.930 . S
H715 C688 0.930 . S
H716 C693 0.929 . S
H717 C694 0.931 . S
H718 C696 0.930 . S
H719 C697 0.930 . S
Tb720 C722 2.809 . S
Tb720 O740 2.484 . S
Tb720 O741 2.440 . S
Tb720 O742 2.658 . S
Tb720 O743 2.409 . S
Tb720 O744 2.378 . S
Tb720 O748 2.325 . S
Tb720 O751 2.341 . S
Tb721 C731 2.809 . S
Tb721 O742 2.325 . S
Tb721 O745 2.341 . S
Tb721 O746 2.484 . S
Tb721 O747 2.440 . S
Tb721 O748 2.658 . S
Tb721 O749 2.409 . S
Tb721 O750 2.378 . S
C722 Tb720 2.809 . S
C722 C723 1.514 . S
C722 O740 1.248 . S
C722 O741 1.266 . S
C723 C722 1.514 . S
C723 C724 1.359 . S
C723 C728 1.348 . S
C724 C723 1.359 . S
C724 C725 1.380 . S
C724 H752 0.929 . S
C725 C724 1.380 . S
C725 C726 1.347 . S
C725 H753 0.931 . S
C726 C725 1.347 . S
C726 C727 1.369 . S
C727 C726 1.369 . S
C727 C728 1.408 . S
C727 H754 0.930 . S
C728 C723 1.348 . S
C728 C727 1.408 . S
C728 H755 0.930 . S
C729 O742 1.281 . S
C729 O743 1.254 . S
C730 O744 1.236 . S
C730 O745 1.266 . S
C731 Tb721 2.809 . S
C731 C732 1.514 . S
C731 O746 1.248 . S
C731 O747 1.266 . S
C732 C731 1.514 . S
C732 C733 1.359 . S
C732 C737 1.348 . S
C733 C732 1.359 . S
C733 C734 1.380 . S
C733 H756 0.929 . S
C734 C733 1.380 . S
C734 C735 1.347 . S
C734 H757 0.931 . S
C735 C734 1.347 . S
C735 C736 1.369 . S
C736 C735 1.369 . S
C736 C737 1.408 . S
C736 H758 0.930 . S
C737 C732 1.348 . S
C737 C736 1.408 . S
C737 H759 0.930 . S
C738 O748 1.281 . S
C738 O749 1.254 . S
C739 O750 1.236 . S
C739 O751 1.266 . S
O740 Tb720 2.484 . S
O740 C722 1.248 . S
O741 Tb720 2.440 . S
O741 C722 1.266 . S
O742 Tb720 2.658 . S
O742 Tb721 2.325 . S
O742 C729 1.281 . S
O743 Tb720 2.409 . S
O743 C729 1.254 . S
O744 Tb720 2.378 . S
O744 C730 1.236 . S
O745 Tb721 2.341 . S
O745 C730 1.266 . S
O746 Tb721 2.484 . S
O746 C731 1.248 . S
O747 Tb721 2.440 . S
O747 C731 1.266 . S
O748 Tb720 2.325 . S
O748 Tb721 2.658 . S
O748 C738 1.281 . S
O749 Tb721 2.409 . S
O749 C738 1.254 . S
O750 Tb721 2.378 . S
O750 C739 1.236 . S
O751 Tb720 2.341 . S
O751 C739 1.266 . S
H752 C724 0.929 . S
H753 C725 0.931 . S
H754 C727 0.930 . S
H755 C728 0.930 . S
H756 C733 0.929 . S
H757 C734 0.931 . S
H758 C736 0.930 . S
H759 C737 0.930 . S
Tb760 C762 2.809 . S
Tb760 O780 2.484 . S
Tb760 O781 2.440 . S
Tb760 O782 2.658 . S
Tb760 O783 2.409 . S
Tb760 O784 2.378 . S
Tb760 O788 2.325 . S
Tb760 O791 2.341 . S
Tb761 C771 2.809 . S
Tb761 O782 2.325 . S
Tb761 O785 2.341 . S
Tb761 O786 2.484 . S
Tb761 O787 2.440 . S
Tb761 O788 2.658 . S
Tb761 O789 2.409 . S
Tb761 O790 2.378 . S
C762 Tb760 2.809 . S
C762 C763 1.514 . S
C762 O780 1.248 . S
C762 O781 1.266 . S
C763 C762 1.514 . S
C763 C764 1.359 . S
C763 C768 1.348 . S
C764 C763 1.359 . S
C764 C765 1.380 . S
C764 H792 0.929 . S
C765 C764 1.380 . S
C765 C766 1.347 . S
C765 H793 0.931 . S
C766 C765 1.347 . S
C766 C767 1.369 . S
C767 C766 1.369 . S
C767 C768 1.408 . S
C767 H794 0.930 . S
C768 C763 1.348 . S
C768 C767 1.408 . S
C768 H795 0.930 . S
C769 O782 1.281 . S
C769 O783 1.254 . S
C770 O784 1.236 . S
C770 O785 1.266 . S
C771 Tb761 2.809 . S
C771 C772 1.514 . S
C771 O786 1.248 . S
C771 O787 1.266 . S
C772 C771 1.514 . S
C772 C773 1.359 . S
C772 C777 1.348 . S
C773 C772 1.359 . S
C773 C774 1.380 . S
C773 H796 0.929 . S
C774 C773 1.380 . S
C774 C775 1.347 . S
C774 H797 0.931 . S
C775 C774 1.347 . S
C775 C776 1.369 . S
C776 C775 1.369 . S
C776 C777 1.408 . S
C776 H798 0.930 . S
C777 C772 1.348 . S
C777 C776 1.408 . S
C777 H799 0.930 . S
C778 O788 1.281 . S
C778 O789 1.254 . S
C779 O790 1.236 . S
C779 O791 1.266 . S
O780 Tb760 2.484 . S
O780 C762 1.248 . S
O781 Tb760 2.440 . S
O781 C762 1.266 . S
O782 Tb760 2.658 . S
O782 Tb761 2.325 . S
O782 C769 1.281 . S
O783 Tb760 2.409 . S
O783 C769 1.254 . S
O784 Tb760 2.378 . S
O784 C770 1.236 . S
O785 Tb761 2.341 . S
O785 C770 1.266 . S
O786 Tb761 2.484 . S
O786 C771 1.248 . S
O787 Tb761 2.440 . S
O787 C771 1.266 . S
O788 Tb760 2.325 . S
O788 Tb761 2.658 . S
O788 C778 1.281 . S
O789 Tb761 2.409 . S
O789 C778 1.254 . S
O790 Tb761 2.378 . S
O790 C779 1.236 . S
O791 Tb760 2.341 . S
O791 C779 1.266 . S
H792 C764 0.929 . S
H793 C765 0.931 . S
H794 C767 0.930 . S
H795 C768 0.930 . S
H796 C773 0.929 . S
H797 C774 0.931 . S
H798 C776 0.930 . S
H799 C777 0.930 . S
Tb800 C802 2.809 . S
Tb800 O820 2.484 . S
Tb800 O821 2.440 . S
Tb800 O822 2.658 . S
Tb800 O823 2.409 . S
Tb800 O824 2.378 . S
Tb800 O828 2.325 . S
Tb800 O831 2.341 . S
Tb801 C811 2.809 . S
Tb801 O822 2.325 . S
Tb801 O825 2.341 . S
Tb801 O826 2.484 . S
Tb801 O827 2.440 . S
Tb801 O828 2.658 . S
Tb801 O829 2.409 . S
Tb801 O830 2.378 . S
C802 Tb800 2.809 . S
C802 C803 1.514 . S
C802 O820 1.248 . S
C802 O821 1.266 . S
C803 C802 1.514 . S
C803 C804 1.359 . S
C803 C808 1.348 . S
C804 C803 1.359 . S
C804 C805 1.380 . S
C804 H832 0.929 . S
C805 C804 1.380 . S
C805 C806 1.347 . S
C805 H833 0.931 . S
C806 C805 1.347 . S
C806 C807 1.369 . S
C807 C806 1.369 . S
C807 C808 1.408 . S
C807 H834 0.930 . S
C808 C803 1.348 . S
C808 C807 1.408 . S
C808 H835 0.930 . S
C809 O822 1.281 . S
C809 O823 1.254 . S
C810 O824 1.236 . S
C810 O825 1.266 . S
C811 Tb801 2.809 . S
C811 C812 1.514 . S
C811 O826 1.248 . S
C811 O827 1.266 . S
C812 C811 1.514 . S
C812 C813 1.359 . S
C812 C817 1.348 . S
C813 C812 1.359 . S
C813 C814 1.380 . S
C813 H836 0.929 . S
C814 C813 1.380 . S
C814 C815 1.347 . S
C814 H837 0.931 . S
C815 C814 1.347 . S
C815 C816 1.369 . S
C816 C815 1.369 . S
C816 C817 1.408 . S
C816 H838 0.930 . S
C817 C812 1.348 . S
C817 C816 1.408 . S
C817 H839 0.930 . S
C818 O828 1.281 . S
C818 O829 1.254 . S
C819 O830 1.236 . S
C819 O831 1.266 . S
O820 Tb800 2.484 . S
O820 C802 1.248 . S
O821 Tb800 2.440 . S
O821 C802 1.266 . S
O822 Tb800 2.658 . S
O822 Tb801 2.325 . S
O822 C809 1.281 . S
O823 Tb800 2.409 . S
O823 C809 1.254 . S
O824 Tb800 2.378 . S
O824 C810 1.236 . S
O825 Tb801 2.341 . S
O825 C810 1.266 . S
O826 Tb801 2.484 . S
O826 C811 1.248 . S
O827 Tb801 2.440 . S
O827 C811 1.266 . S
O828 Tb800 2.325 . S
O828 Tb801 2.658 . S
O828 C818 1.281 . S
O829 Tb801 2.409 . S
O829 C818 1.254 . S
O830 Tb801 2.378 . S
O830 C819 1.236 . S
O831 Tb800 2.341 . S
O831 C819 1.266 . S
H832 C804 0.929 . S
H833 C805 0.931 . S
H834 C807 0.930 . S
H835 C808 0.930 . S
H836 C813 0.929 . S
H837 C814 0.931 . S
H838 C816 0.930 . S
H839 C817 0.930 . S
Tb840 C842 2.809 . S
Tb840 O860 2.484 . S
Tb840 O861 2.440 . S
Tb840 O862 2.658 1_556 S
Tb840 O863 2.409 . S
Tb840 O864 2.378 . S
Tb840 O868 2.325 . S
Tb840 O871 2.341 1_556 S
Tb841 C851 2.809 . S
Tb841 O862 2.325 . S
Tb841 O865 2.341 1_554 S
Tb841 O866 2.484 . S
Tb841 O867 2.440 . S
Tb841 O868 2.658 1_554 S
Tb841 O869 2.409 . S
Tb841 O870 2.378 . S
C842 Tb840 2.809 . S
C842 C843 1.514 . S
C842 O860 1.248 . S
C842 O861 1.266 . S
C843 C842 1.514 . S
C843 C844 1.359 . S
C843 C848 1.348 . S
C844 C843 1.359 . S
C844 C845 1.380 . S
C844 H872 0.929 . S
C845 C844 1.380 . S
C845 C846 1.347 . S
C845 H873 0.931 . S
C846 C845 1.347 . S
C846 C847 1.369 . S
C847 C846 1.369 . S
C847 C848 1.408 . S
C847 H874 0.930 . S
C848 C843 1.348 . S
C848 C847 1.408 . S
C848 H875 0.930 . S
C849 O862 1.284 . S
C849 O863 1.248 1_554 S
C850 O864 1.236 . S
C850 O865 1.266 . S
C851 Tb841 2.809 . S
C851 C852 1.514 . S
C851 O866 1.248 . S
C851 O867 1.266 . S
C852 C851 1.514 . S
C852 C853 1.359 . S
C852 C857 1.348 . S
C853 C852 1.359 . S
C853 C854 1.380 . S
C853 H876 0.929 . S
C854 C853 1.380 . S
C854 C855 1.347 . S
C854 H877 0.931 . S
C855 C854 1.347 . S
C855 C856 1.369 . S
C856 C855 1.369 . S
C856 C857 1.408 . S
C856 H878 0.930 . S
C857 C852 1.348 . S
C857 C856 1.408 . S
C857 H879 0.930 . S
C858 O868 1.281 . S
C858 O869 1.254 1_556 S
C859 O870 1.236 . S
C859 O871 1.266 . S
O860 Tb840 2.484 . S
O860 C842 1.248 . S
O861 Tb840 2.440 . S
O861 C842 1.266 . S
O862 Tb840 2.658 1_554 S
O862 Tb841 2.325 . S
O862 C849 1.284 . S
O863 Tb840 2.409 . S
O863 C849 1.248 1_556 S
O864 Tb840 2.378 . S
O864 C850 1.236 . S
O865 Tb841 2.341 1_556 S
O865 C850 1.266 . S
O866 Tb841 2.484 . S
O866 C851 1.248 . S
O867 Tb841 2.440 . S
O867 C851 1.266 . S
O868 Tb840 2.325 . S
O868 Tb841 2.658 1_556 S
O868 C858 1.281 . S
O869 Tb841 2.409 . S
O869 C858 1.254 1_554 S
O870 Tb841 2.378 . S
O870 C859 1.236 . S
O871 Tb840 2.341 1_554 S
O871 C859 1.266 . S
H872 C844 0.929 . S
H873 C845 0.931 . S
H874 C847 0.930 . S
H875 C848 0.930 . S
H876 C853 0.929 . S
H877 C854 0.931 . S
H878 C856 0.930 . S
H879 C857 0.930 . S
Tb880 C882 2.809 . S
Tb880 O900 2.484 . S
Tb880 O901 2.440 . S
Tb880 O902 2.658 1_556 S
Tb880 O903 2.409 . S
Tb880 O904 2.378 . S
Tb880 O908 2.325 . S
Tb880 O911 2.341 1_556 S
Tb881 C891 2.809 . S
Tb881 O902 2.325 . S
Tb881 O905 2.341 1_554 S
Tb881 O906 2.484 . S
Tb881 O907 2.440 . S
Tb881 O908 2.658 1_554 S
Tb881 O909 2.409 . S
Tb881 O910 2.378 . S
C882 Tb880 2.809 . S
C882 C883 1.514 . S
C882 O900 1.248 . S
C882 O901 1.266 . S
C883 C882 1.514 . S
C883 C884 1.359 . S
C883 C888 1.348 . S
C884 C883 1.359 . S
C884 C885 1.380 . S
C884 H912 0.929 . S
C885 C884 1.380 . S
C885 C886 1.347 . S
C885 H913 0.931 . S
C886 C885 1.347 . S
C886 C887 1.369 . S
C887 C886 1.369 . S
C887 C888 1.408 . S
C887 H914 0.930 . S
C888 C883 1.348 . S
C888 C887 1.408 . S
C888 H915 0.930 . S
C889 O902 1.284 . S
C889 O903 1.248 1_554 S
C890 O904 1.236 . S
C890 O905 1.266 . S
C891 Tb881 2.809 . S
C891 C892 1.514 . S
C891 O906 1.248 . S
C891 O907 1.266 . S
C892 C891 1.514 . S
C892 C893 1.359 . S
C892 C897 1.348 . S
C893 C892 1.359 . S
C893 C894 1.380 . S
C893 H916 0.929 . S
C894 C893 1.380 . S
C894 C895 1.347 . S
C894 H917 0.931 . S
C895 C894 1.347 . S
C895 C896 1.369 . S
C896 C895 1.369 . S
C896 C897 1.408 . S
C896 H918 0.930 . S
C897 C892 1.348 . S
C897 C896 1.408 . S
C897 H919 0.930 . S
C898 O908 1.281 . S
C898 O909 1.254 1_556 S
C899 O910 1.236 . S
C899 O911 1.266 . S
O900 Tb880 2.484 . S
O900 C882 1.248 . S
O901 Tb880 2.440 . S
O901 C882 1.266 . S
O902 Tb880 2.658 1_554 S
O902 Tb881 2.325 . S
O902 C889 1.284 . S
O903 Tb880 2.409 . S
O903 C889 1.248 1_556 S
O904 Tb880 2.378 . S
O904 C890 1.236 . S
O905 Tb881 2.341 1_556 S
O905 C890 1.266 . S
O906 Tb881 2.484 . S
O906 C891 1.248 . S
O907 Tb881 2.440 . S
O907 C891 1.266 . S
O908 Tb880 2.325 . S
O908 Tb881 2.658 1_556 S
O908 C898 1.281 . S
O909 Tb881 2.409 . S
O909 C898 1.254 1_554 S
O910 Tb881 2.378 . S
O910 C899 1.236 . S
O911 Tb880 2.341 1_554 S
O911 C899 1.266 . S
H912 C884 0.929 . S
H913 C885 0.931 . S
H914 C887 0.930 . S
H915 C888 0.930 . S
H916 C893 0.929 . S
H917 C894 0.931 . S
H918 C896 0.930 . S
H919 C897 0.930 . S
Tb920 C922 2.809 . S
Tb920 O940 2.484 . S
Tb920 O941 2.440 . S
Tb920 O942 2.658 1_556 S
Tb920 O943 2.409 . S
Tb920 O944 2.378 . S
Tb920 O948 2.325 . S
Tb920 O951 2.341 1_556 S
Tb921 C931 2.809 . S
Tb921 O942 2.325 . S
Tb921 O945 2.341 1_554 S
Tb921 O946 2.484 . S
Tb921 O947 2.440 . S
Tb921 O948 2.658 1_554 S
Tb921 O949 2.409 . S
Tb921 O950 2.378 . S
C922 Tb920 2.809 . S
C922 C923 1.514 . S
C922 O940 1.248 . S
C922 O941 1.266 . S
C923 C922 1.514 . S
C923 C924 1.359 . S
C923 C928 1.348 . S
C924 C923 1.359 . S
C924 C925 1.380 . S
C924 H952 0.929 . S
C925 C924 1.380 . S
C925 C926 1.347 . S
C925 H953 0.931 . S
C926 C925 1.347 . S
C926 C927 1.369 . S
C927 C926 1.369 . S
C927 C928 1.408 . S
C927 H954 0.930 . S
C928 C923 1.348 . S
C928 C927 1.408 . S
C928 H955 0.930 . S
C929 O942 1.284 . S
C929 O943 1.248 1_554 S
C930 O944 1.236 . S
C930 O945 1.266 . S
C931 Tb921 2.809 . S
C931 C932 1.514 . S
C931 O946 1.248 . S
C931 O947 1.266 . S
C932 C931 1.514 . S
C932 C933 1.359 . S
C932 C937 1.348 . S
C933 C932 1.359 . S
C933 C934 1.380 . S
C933 H956 0.929 . S
C934 C933 1.380 . S
C934 C935 1.347 . S
C934 H957 0.931 . S
C935 C934 1.347 . S
C935 C936 1.369 . S
C936 C935 1.369 . S
C936 C937 1.408 . S
C936 H958 0.930 . S
C937 C932 1.348 . S
C937 C936 1.408 . S
C937 H959 0.930 . S
C938 O948 1.281 . S
C938 O949 1.254 1_556 S
C939 O950 1.236 . S
C939 O951 1.266 . S
O940 Tb920 2.484 . S
O940 C922 1.248 . S
O941 Tb920 2.440 . S
O941 C922 1.266 . S
O942 Tb920 2.658 1_554 S
O942 Tb921 2.325 . S
O942 C929 1.284 . S
O943 Tb920 2.409 . S
O943 C929 1.248 1_556 S
O944 Tb920 2.378 . S
O944 C930 1.236 . S
O945 Tb921 2.341 1_556 S
O945 C930 1.266 . S
O946 Tb921 2.484 . S
O946 C931 1.248 . S
O947 Tb921 2.440 . S
O947 C931 1.266 . S
O948 Tb920 2.325 . S
O948 Tb921 2.658 1_556 S
O948 C938 1.281 . S
O949 Tb921 2.409 . S
O949 C938 1.254 1_554 S
O950 Tb921 2.378 . S
O950 C939 1.236 . S
O951 Tb920 2.341 1_554 S
O951 C939 1.266 . S
H952 C924 0.929 . S
H953 C925 0.931 . S
H954 C927 0.930 . S
H955 C928 0.930 . S
H956 C933 0.929 . S
H957 C934 0.931 . S
H958 C936 0.930 . S
H959 C937 0.930 . S
Tb960 C962 2.809 . S
Tb960 O980 2.484 . S
Tb960 O981 2.440 . S
Tb960 O982 2.658 . S
Tb960 O983 2.409 . S
Tb960 O984 2.378 . S
Tb960 O988 2.325 . S
Tb960 O991 2.341 . S
Tb961 C971 2.809 . S
Tb961 O982 2.325 . S
Tb961 O985 2.341 . S
Tb961 O986 2.484 . S
Tb961 O987 2.440 . S
Tb961 O988 2.658 . S
Tb961 O989 2.409 . S
Tb961 O990 2.378 . S
C962 Tb960 2.809 . S
C962 C963 1.514 . S
C962 O980 1.248 . S
C962 O981 1.266 . S
C963 C962 1.514 . S
C963 C964 1.359 1_556 S
C963 C968 1.348 . S
C964 C963 1.359 1_554 S
C964 C965 1.380 . S
C964 H992 0.929 1_554 S
C965 C964 1.380 . S
C965 C966 1.347 . S
C965 H993 0.931 . S
C966 C965 1.347 . S
C966 C967 1.369 . S
C967 C966 1.369 . S
C967 C968 1.408 1_554 S
C967 H994 0.930 . S
C968 C963 1.348 . S
C968 C967 1.408 1_556 S
C968 H995 0.930 . S
C969 O982 1.281 . S
C969 O983 1.254 . S
C970 O984 1.236 . S
C970 O985 1.266 . S
C971 Tb961 2.809 . S
C971 C972 1.514 . S
C971 O986 1.248 . S
C971 O987 1.266 . S
C972 C971 1.514 . S
C972 C973 1.359 . S
C972 C977 1.348 . S
C973 C972 1.359 . S
C973 C974 1.380 . S
C973 H996 0.929 . S
C974 C973 1.380 . S
C974 C975 1.347 . S
C974 H997 0.931 . S
C975 C974 1.347 . S
C975 C976 1.369 . S
C976 C975 1.369 . S
C976 C977 1.408 . S
C976 H998 0.930 . S
C977 C972 1.348 . S
C977 C976 1.408 . S
C977 H999 0.930 . S
C978 O988 1.281 . S
C978 O989 1.254 . S
C979 O990 1.236 . S
C979 O991 1.266 . S
O980 Tb960 2.484 . S
O980 C962 1.248 . S
O981 Tb960 2.440 . S
O981 C962 1.266 . S
O982 Tb960 2.658 . S
O982 Tb961 2.325 . S
O982 C969 1.281 . S
O983 Tb960 2.409 . S
O983 C969 1.254 . S
O984 Tb960 2.378 . S
O984 C970 1.236 . S
O985 Tb961 2.341 . S
O985 C970 1.266 . S
O986 Tb961 2.484 . S
O986 C971 1.248 . S
O987 Tb961 2.440 . S
O987 C971 1.266 . S
O988 Tb960 2.325 . S
O988 Tb961 2.658 . S
O988 C978 1.281 . S
O989 Tb961 2.409 . S
O989 C978 1.254 . S
O990 Tb961 2.378 . S
O990 C979 1.236 . S
O991 Tb960 2.341 . S
O991 C979 1.266 . S
H992 C964 0.929 1_556 S
H993 C965 0.931 . S
H994 C967 0.930 . S
H995 C968 0.930 . S
H996 C973 0.929 . S
H997 C974 0.931 . S
H998 C976 0.930 . S
H999 C977 0.930 . S
Tb1000 C1002 2.809 . S
Tb1000 O1020 2.484 . S
Tb1000 O1021 2.440 . S
Tb1000 O1022 2.658 . S
Tb1000 O1023 2.409 . S
Tb1000 O1024 2.378 . S
Tb1000 O1028 2.325 . S
Tb1000 O1031 2.341 . S
Tb1001 C1011 2.809 . S
Tb1001 O1022 2.325 . S
Tb1001 O1025 2.341 . S
Tb1001 O1026 2.484 . S
Tb1001 O1027 2.440 . S
Tb1001 O1028 2.658 . S
Tb1001 O1029 2.409 . S
Tb1001 O1030 2.378 . S
C1002 Tb1000 2.809 . S
C1002 C1003 1.514 . S
C1002 O1020 1.248 . S
C1002 O1021 1.266 . S
C1003 C1002 1.514 . S
C1003 C1004 1.359 1_556 S
C1003 C1008 1.348 . S
C1004 C1003 1.359 1_554 S
C1004 C1005 1.380 . S
C1004 H1032 0.929 1_554 S
C1005 C1004 1.380 . S
C1005 C1006 1.347 . S
C1005 H1033 0.931 . S
C1006 C1005 1.347 . S
C1006 C1007 1.369 . S
C1007 C1006 1.369 . S
C1007 C1008 1.408 1_554 S
C1007 H1034 0.930 . S
C1008 C1003 1.348 . S
C1008 C1007 1.408 1_556 S
C1008 H1035 0.930 . S
C1009 O1022 1.281 . S
C1009 O1023 1.254 . S
C1010 O1024 1.236 . S
C1010 O1025 1.266 . S
C1011 Tb1001 2.809 . S
C1011 C1012 1.514 . S
C1011 O1026 1.248 . S
C1011 O1027 1.266 . S
C1012 C1011 1.514 . S
C1012 C1013 1.359 . S
C1012 C1017 1.348 . S
C1013 C1012 1.359 . S
C1013 C1014 1.380 . S
C1013 H1036 0.929 . S
C1014 C1013 1.380 . S
C1014 C1015 1.347 . S
C1014 H1037 0.931 . S
C1015 C1014 1.347 . S
C1015 C1016 1.369 . S
C1016 C1015 1.369 . S
C1016 C1017 1.408 . S
C1016 H1038 0.930 . S
C1017 C1012 1.348 . S
C1017 C1016 1.408 . S
C1017 H1039 0.930 . S
C1018 O1028 1.281 . S
C1018 O1029 1.254 . S
C1019 O1030 1.236 . S
C1019 O1031 1.266 . S
O1020 Tb1000 2.484 . S
O1020 C1002 1.248 . S
O1021 Tb1000 2.440 . S
O1021 C1002 1.266 . S
O1022 Tb1000 2.658 . S
O1022 Tb1001 2.325 . S
O1022 C1009 1.281 . S
O1023 Tb1000 2.409 . S
O1023 C1009 1.254 . S
O1024 Tb1000 2.378 . S
O1024 C1010 1.236 . S
O1025 Tb1001 2.341 . S
O1025 C1010 1.266 . S
O1026 Tb1001 2.484 . S
O1026 C1011 1.248 . S
O1027 Tb1001 2.440 . S
O1027 C1011 1.266 . S
O1028 Tb1000 2.325 . S
O1028 Tb1001 2.658 . S
O1028 C1018 1.281 . S
O1029 Tb1001 2.409 . S
O1029 C1018 1.254 . S
O1030 Tb1001 2.378 . S
O1030 C1019 1.236 . S
O1031 Tb1000 2.341 . S
O1031 C1019 1.266 . S
H1032 C1004 0.929 1_556 S
H1033 C1005 0.931 . S
H1034 C1007 0.930 . S
H1035 C1008 0.930 . S
H1036 C1013 0.929 . S
H1037 C1014 0.931 . S
H1038 C1016 0.930 . S
H1039 C1017 0.930 . S
Tb1040 C1042 2.809 . S
Tb1040 O1060 2.484 . S
Tb1040 O1061 2.440 . S
Tb1040 O1062 2.658 . S
Tb1040 O1063 2.409 . S
Tb1040 O1064 2.378 . S
Tb1040 O1068 2.325 . S
Tb1040 O1071 2.341 . S
Tb1041 C1051 2.809 . S
Tb1041 O1062 2.325 . S
Tb1041 O1065 2.341 . S
Tb1041 O1066 2.484 . S
Tb1041 O1067 2.440 . S
Tb1041 O1068 2.658 . S
Tb1041 O1069 2.409 . S
Tb1041 O1070 2.378 . S
C1042 Tb1040 2.809 . S
C1042 C1043 1.514 . S
C1042 O1060 1.248 . S
C1042 O1061 1.266 . S
C1043 C1042 1.514 . S
C1043 C1044 1.359 1_556 S
C1043 C1048 1.348 . S
C1044 C1043 1.359 1_554 S
C1044 C1045 1.380 . S
C1044 H1072 0.929 1_554 S
C1045 C1044 1.380 . S
C1045 C1046 1.347 . S
C1045 H1073 0.931 . S
C1046 C1045 1.347 . S
C1046 C1047 1.369 . S
C1047 C1046 1.369 . S
C1047 C1048 1.408 1_554 S
C1047 H1074 0.930 . S
C1048 C1043 1.348 . S
C1048 C1047 1.408 1_556 S
C1048 H1075 0.930 . S
C1049 O1062 1.281 . S
C1049 O1063 1.254 . S
C1050 O1064 1.236 . S
C1050 O1065 1.266 . S
C1051 Tb1041 2.809 . S
C1051 C1052 1.514 . S
C1051 O1066 1.248 . S
C1051 O1067 1.266 . S
C1052 C1051 1.514 . S
C1052 C1053 1.359 . S
C1052 C1057 1.348 . S
C1053 C1052 1.359 . S
C1053 C1054 1.380 . S
C1053 H1076 0.929 . S
C1054 C1053 1.380 . S
C1054 C1055 1.347 . S
C1054 H1077 0.931 . S
C1055 C1054 1.347 . S
C1055 C1056 1.369 . S
C1056 C1055 1.369 . S
C1056 C1057 1.408 . S
C1056 H1078 0.930 . S
C1057 C1052 1.348 . S
C1057 C1056 1.408 . S
C1057 H1079 0.930 . S
C1058 O1068 1.281 . S
C1058 O1069 1.254 . S
C1059 O1070 1.236 . S
C1059 O1071 1.266 . S
O1060 Tb1040 2.484 . S
O1060 C1042 1.248 . S
O1061 Tb1040 2.440 . S
O1061 C1042 1.266 . S
O1062 Tb1040 2.658 . S
O1062 Tb1041 2.325 . S
O1062 C1049 1.281 . S
O1063 Tb1040 2.409 . S
O1063 C1049 1.254 . S
O1064 Tb1040 2.378 . S
O1064 C1050 1.236 . S
O1065 Tb1041 2.341 . S
O1065 C1050 1.266 . S
O1066 Tb1041 2.484 . S
O1066 C1051 1.248 . S
O1067 Tb1041 2.440 . S
O1067 C1051 1.266 . S
O1068 Tb1040 2.325 . S
O1068 Tb1041 2.658 . S
O1068 C1058 1.281 . S
O1069 Tb1041 2.409 . S
O1069 C1058 1.254 . S
O1070 Tb1041 2.378 . S
O1070 C1059 1.236 . S
O1071 Tb1040 2.341 . S
O1071 C1059 1.266 . S
H1072 C1044 0.929 1_556 S
H1073 C1045 0.931 . S
H1074 C1047 0.930 . S
H1075 C1048 0.930 . S
H1076 C1053 0.929 . S
H1077 C1054 0.931 . S
H1078 C1056 0.930 . S
H1079 C1057 0.930 . S
Tb1080 C1082 2.809 . S
Tb1080 O1100 2.484 . S
Tb1080 O1101 2.440 . S
Tb1080 O1102 2.658 . S
Tb1080 O1103 2.409 . S
Tb1080 O1104 2.378 . S
Tb1080 O1108 2.325 . S
Tb1080 O1111 2.341 . S
Tb1081 C1091 2.809 . S
Tb1081 O1102 2.325 . S
Tb1081 O1105 2.341 . S
Tb1081 O1106 2.484 . S
Tb1081 O1107 2.440 . S
Tb1081 O1108 2.658 . S
Tb1081 O1109 2.409 . S
Tb1081 O1110 2.378 . S
C1082 Tb1080 2.809 . S
C1082 C1083 1.514 . S
C1082 O1100 1.248 . S
C1082 O1101 1.266 . S
C1083 C1082 1.514 . S
C1083 C1084 1.359 . S
C1083 C1088 1.348 . S
C1084 C1083 1.359 . S
C1084 C1085 1.380 . S
C1084 H1112 0.929 . S
C1085 C1084 1.380 . S
C1085 C1086 1.347 . S
C1085 H1113 0.931 . S
C1086 C1085 1.347 . S
C1086 C1087 1.369 . S
C1087 C1086 1.369 . S
C1087 C1088 1.408 . S
C1087 H1114 0.930 . S
C1088 C1083 1.348 . S
C1088 C1087 1.408 . S
C1088 H1115 0.930 . S
C1089 O1102 1.281 . S
C1089 O1103 1.254 . S
C1090 O1104 1.236 . S
C1090 O1105 1.266 . S
C1091 Tb1081 2.809 . S
C1091 C1092 1.514 . S
C1091 O1106 1.248 . S
C1091 O1107 1.266 . S
C1092 C1091 1.514 . S
C1092 C1093 1.359 . S
C1092 C1097 1.348 . S
C1093 C1092 1.359 . S
C1093 C1094 1.380 . S
C1093 H1116 0.929 . S
C1094 C1093 1.380 . S
C1094 C1095 1.347 . S
C1094 H1117 0.931 . S
C1095 C1094 1.347 . S
C1095 C1096 1.369 . S
C1096 C1095 1.369 . S
C1096 C1097 1.408 . S
C1096 H1118 0.930 . S
C1097 C1092 1.348 . S
C1097 C1096 1.408 . S
C1097 H1119 0.930 . S
C1098 O1108 1.281 . S
C1098 O1109 1.254 . S
C1099 O1110 1.236 . S
C1099 O1111 1.266 . S
O1100 Tb1080 2.484 . S
O1100 C1082 1.248 . S
O1101 Tb1080 2.440 . S
O1101 C1082 1.266 . S
O1102 Tb1080 2.658 . S
O1102 Tb1081 2.325 . S
O1102 C1089 1.281 . S
O1103 Tb1080 2.409 . S
O1103 C1089 1.254 . S
O1104 Tb1080 2.378 . S
O1104 C1090 1.236 . S
O1105 Tb1081 2.341 . S
O1105 C1090 1.266 . S
O1106 Tb1081 2.484 . S
O1106 C1091 1.248 . S
O1107 Tb1081 2.440 . S
O1107 C1091 1.266 . S
O1108 Tb1080 2.325 . S
O1108 Tb1081 2.658 . S
O1108 C1098 1.281 . S
O1109 Tb1081 2.409 . S
O1109 C1098 1.254 . S
O1110 Tb1081 2.378 . S
O1110 C1099 1.236 . S
O1111 Tb1080 2.341 . S
O1111 C1099 1.266 . S
H1112 C1084 0.929 . S
H1113 C1085 0.931 . S
H1114 C1087 0.930 . S
H1115 C1088 0.930 . S
H1116 C1093 0.929 . S
H1117 C1094 0.931 . S
H1118 C1096 0.930 . S
H1119 C1097 0.930 . S
Tb1120 C1122 2.809 . S
Tb1120 O1140 2.484 . S
Tb1120 O1141 2.440 . S
Tb1120 O1142 2.658 . S
Tb1120 O1143 2.409 . S
Tb1120 O1144 2.378 . S
Tb1120 O1148 2.325 . S
Tb1120 O1151 2.341 . S
Tb1121 C1131 2.809 . S
Tb1121 O1142 2.325 . S
Tb1121 O1145 2.341 . S
Tb1121 O1146 2.484 . S
Tb1121 O1147 2.440 . S
Tb1121 O1148 2.658 . S
Tb1121 O1149 2.409 . S
Tb1121 O1150 2.378 . S
C1122 Tb1120 2.809 . S
C1122 C1123 1.514 . S
C1122 O1140 1.248 . S
C1122 O1141 1.266 . S
C1123 C1122 1.514 . S
C1123 C1124 1.359 . S
C1123 C1128 1.348 . S
C1124 C1123 1.359 . S
C1124 C1125 1.380 . S
C1124 H1152 0.929 . S
C1125 C1124 1.380 . S
C1125 C1126 1.347 . S
C1125 H1153 0.931 . S
C1126 C1125 1.347 . S
C1126 C1127 1.369 . S
C1127 C1126 1.369 . S
C1127 C1128 1.408 . S
C1127 H1154 0.930 . S
C1128 C1123 1.348 . S
C1128 C1127 1.408 . S
C1128 H1155 0.930 . S
C1129 O1142 1.281 . S
C1129 O1143 1.254 . S
C1130 O1144 1.236 . S
C1130 O1145 1.266 . S
C1131 Tb1121 2.809 . S
C1131 C1132 1.514 . S
C1131 O1146 1.248 . S
C1131 O1147 1.266 . S
C1132 C1131 1.514 . S
C1132 C1133 1.359 . S
C1132 C1137 1.348 . S
C1133 C1132 1.359 . S
C1133 C1134 1.380 . S
C1133 H1156 0.929 . S
C1134 C1133 1.380 . S
C1134 C1135 1.347 . S
C1134 H1157 0.931 . S
C1135 C1134 1.347 . S
C1135 C1136 1.369 . S
C1136 C1135 1.369 . S
C1136 C1137 1.408 . S
C1136 H1158 0.930 . S
C1137 C1132 1.348 . S
C1137 C1136 1.408 . S
C1137 H1159 0.930 . S
C1138 O1148 1.281 . S
C1138 O1149 1.254 . S
C1139 O1150 1.236 . S
C1139 O1151 1.266 . S
O1140 Tb1120 2.484 . S
O1140 C1122 1.248 . S
O1141 Tb1120 2.440 . S
O1141 C1122 1.266 . S
O1142 Tb1120 2.658 . S
O1142 Tb1121 2.325 . S
O1142 C1129 1.281 . S
O1143 Tb1120 2.409 . S
O1143 C1129 1.254 . S
O1144 Tb1120 2.378 . S
O1144 C1130 1.236 . S
O1145 Tb1121 2.341 . S
O1145 C1130 1.266 . S
O1146 Tb1121 2.484 . S
O1146 C1131 1.248 . S
O1147 Tb1121 2.440 . S
O1147 C1131 1.266 . S
O1148 Tb1120 2.325 . S
O1148 Tb1121 2.658 . S
O1148 C1138 1.281 . S
O1149 Tb1121 2.409 . S
O1149 C1138 1.254 . S
O1150 Tb1121 2.378 . S
O1150 C1139 1.236 . S
O1151 Tb1120 2.341 . S
O1151 C1139 1.266 . S
H1152 C1124 0.929 . S
H1153 C1125 0.931 . S
H1154 C1127 0.930 . S
H1155 C1128 0.930 . S
H1156 C1133 0.929 . S
H1157 C1134 0.931 . S
H1158 C1136 0.930 . S
H1159 C1137 0.930 . S
Tb1160 C1162 2.809 . S
Tb1160 O1180 2.484 . S
Tb1160 O1181 2.440 . S
Tb1160 O1182 2.658 . S
Tb1160 O1183 2.409 . S
Tb1160 O1184 2.378 . S
Tb1160 O1188 2.325 . S
Tb1160 O1191 2.341 . S
Tb1161 C1171 2.809 . S
Tb1161 O1182 2.325 . S
Tb1161 O1185 2.341 . S
Tb1161 O1186 2.484 . S
Tb1161 O1187 2.440 . S
Tb1161 O1188 2.658 . S
Tb1161 O1189 2.409 . S
Tb1161 O1190 2.378 . S
C1162 Tb1160 2.809 . S
C1162 C1163 1.514 . S
C1162 O1180 1.248 . S
C1162 O1181 1.266 . S
C1163 C1162 1.514 . S
C1163 C1164 1.359 . S
C1163 C1168 1.348 . S
C1164 C1163 1.359 . S
C1164 C1165 1.380 . S
C1164 H1192 0.929 . S
C1165 C1164 1.380 . S
C1165 C1166 1.347 . S
C1165 H1193 0.931 . S
C1166 C1165 1.347 . S
C1166 C1167 1.369 . S
C1167 C1166 1.369 . S
C1167 C1168 1.408 . S
C1167 H1194 0.930 . S
C1168 C1163 1.348 . S
C1168 C1167 1.408 . S
C1168 H1195 0.930 . S
C1169 O1182 1.281 . S
C1169 O1183 1.254 . S
C1170 O1184 1.236 . S
C1170 O1185 1.266 . S
C1171 Tb1161 2.809 . S
C1171 C1172 1.514 . S
C1171 O1186 1.248 . S
C1171 O1187 1.266 . S
C1172 C1171 1.514 . S
C1172 C1173 1.359 . S
C1172 C1177 1.348 . S
C1173 C1172 1.359 . S
C1173 C1174 1.380 . S
C1173 H1196 0.929 . S
C1174 C1173 1.380 . S
C1174 C1175 1.347 . S
C1174 H1197 0.931 . S
C1175 C1174 1.347 . S
C1175 C1176 1.369 . S
C1176 C1175 1.369 . S
C1176 C1177 1.408 . S
C1176 H1198 0.930 . S
C1177 C1172 1.348 . S
C1177 C1176 1.408 . S
C1177 H1199 0.930 . S
C1178 O1188 1.281 . S
C1178 O1189 1.254 . S
C1179 O1190 1.236 . S
C1179 O1191 1.266 . S
O1180 Tb1160 2.484 . S
O1180 C1162 1.248 . S
O1181 Tb1160 2.440 . S
O1181 C1162 1.266 . S
O1182 Tb1160 2.658 . S
O1182 Tb1161 2.325 . S
O1182 C1169 1.281 . S
O1183 Tb1160 2.409 . S
O1183 C1169 1.254 . S
O1184 Tb1160 2.378 . S
O1184 C1170 1.236 . S
O1185 Tb1161 2.341 . S
O1185 C1170 1.266 . S
O1186 Tb1161 2.484 . S
O1186 C1171 1.248 . S
O1187 Tb1161 2.440 . S
O1187 C1171 1.266 . S
O1188 Tb1160 2.325 . S
O1188 Tb1161 2.658 . S
O1188 C1178 1.281 . S
O1189 Tb1161 2.409 . S
O1189 C1178 1.254 . S
O1190 Tb1161 2.378 . S
O1190 C1179 1.236 . S
O1191 Tb1160 2.341 . S
O1191 C1179 1.266 . S
H1192 C1164 0.929 . S
H1193 C1165 0.931 . S
H1194 C1167 0.930 . S
H1195 C1168 0.930 . S
H1196 C1173 0.929 . S
H1197 C1174 0.931 . S
H1198 C1176 0.930 . S
H1199 C1177 0.930 . S
Tb1200 C1202 2.809 . S
Tb1200 O1220 2.484 . S
Tb1200 O1221 2.440 . S
Tb1200 O1222 2.658 . S
Tb1200 O1223 2.409 . S
Tb1200 O1224 2.378 . S
Tb1200 O1228 2.325 . S
Tb1200 O1231 2.341 . S
Tb1201 C1211 2.809 . S
Tb1201 O1222 2.325 . S
Tb1201 O1225 2.341 . S
Tb1201 O1226 2.484 . S
Tb1201 O1227 2.440 . S
Tb1201 O1228 2.658 . S
Tb1201 O1229 2.409 . S
Tb1201 O1230 2.378 . S
C1202 Tb1200 2.809 . S
C1202 C1203 1.514 . S
C1202 O1220 1.248 . S
C1202 O1221 1.266 . S
C1203 C1202 1.514 . S
C1203 C1204 1.359 . S
C1203 C1208 1.348 . S
C1204 C1203 1.359 . S
C1204 C1205 1.380 . S
C1204 H1232 0.929 . S
C1205 C1204 1.380 . S
C1205 C1206 1.347 . S
C1205 H1233 0.931 . S
C1206 C1205 1.347 . S
C1206 C1207 1.369 . S
C1207 C1206 1.369 . S
C1207 C1208 1.408 . S
C1207 H1234 0.930 . S
C1208 C1203 1.348 . S
C1208 C1207 1.408 . S
C1208 H1235 0.930 . S
C1209 O1222 1.281 . S
C1209 O1223 1.254 . S
C1210 O1224 1.236 . S
C1210 O1225 1.266 . S
C1211 Tb1201 2.809 . S
C1211 C1212 1.514 . S
C1211 O1226 1.248 . S
C1211 O1227 1.266 . S
C1212 C1211 1.514 . S
C1212 C1213 1.359 . S
C1212 C1217 1.348 . S
C1213 C1212 1.359 . S
C1213 C1214 1.380 . S
C1213 H1236 0.929 . S
C1214 C1213 1.380 . S
C1214 C1215 1.347 . S
C1214 H1237 0.931 . S
C1215 C1214 1.347 . S
C1215 C1216 1.369 . S
C1216 C1215 1.369 . S
C1216 C1217 1.408 . S
C1216 H1238 0.930 . S
C1217 C1212 1.348 . S
C1217 C1216 1.408 . S
C1217 H1239 0.930 . S
C1218 O1228 1.281 . S
C1218 O1229 1.254 . S
C1219 O1230 1.236 . S
C1219 O1231 1.266 . S
O1220 Tb1200 2.484 . S
O1220 C1202 1.248 . S
O1221 Tb1200 2.440 . S
O1221 C1202 1.266 . S
O1222 Tb1200 2.658 . S
O1222 Tb1201 2.325 . S
O1222 C1209 1.281 . S
O1223 Tb1200 2.409 . S
O1223 C1209 1.254 . S
O1224 Tb1200 2.378 . S
O1224 C1210 1.236 . S
O1225 Tb1201 2.341 . S
O1225 C1210 1.266 . S
O1226 Tb1201 2.484 . S
O1226 C1211 1.248 . S
O1227 Tb1201 2.440 . S
O1227 C1211 1.266 . S
O1228 Tb1200 2.325 . S
O1228 Tb1201 2.658 . S
O1228 C1218 1.281 . S
O1229 Tb1201 2.409 . S
O1229 C1218 1.254 . S
O1230 Tb1201 2.378 . S
O1230 C1219 1.236 . S
O1231 Tb1200 2.341 . S
O1231 C1219 1.266 . S
H1232 C1204 0.929 . S
H1233 C1205 0.931 . S
H1234 C1207 0.930 . S
H1235 C1208 0.930 . S
H1236 C1213 0.929 . S
H1237 C1214 0.931 . S
H1238 C1216 0.930 . S
H1239 C1217 0.930 . S
Tb1240 C1242 2.809 . S
Tb1240 O1260 2.484 . S
Tb1240 O1261 2.440 . S
Tb1240 O1262 2.658 . S
Tb1240 O1263 2.409 . S
Tb1240 O1264 2.378 . S
Tb1240 O1268 2.325 . S
Tb1240 O1271 2.341 . S
Tb1241 C1251 2.809 . S
Tb1241 O1262 2.325 . S
Tb1241 O1265 2.341 . S
Tb1241 O1266 2.484 . S
Tb1241 O1267 2.440 . S
Tb1241 O1268 2.658 . S
Tb1241 O1269 2.409 . S
Tb1241 O1270 2.378 . S
C1242 Tb1240 2.809 . S
C1242 C1243 1.514 . S
C1242 O1260 1.248 . S
C1242 O1261 1.266 . S
C1243 C1242 1.514 . S
C1243 C1244 1.359 . S
C1243 C1248 1.348 . S
C1244 C1243 1.359 . S
C1244 C1245 1.380 . S
C1244 H1272 0.929 . S
C1245 C1244 1.380 . S
C1245 C1246 1.347 . S
C1245 H1273 0.931 . S
C1246 C1245 1.347 . S
C1246 C1247 1.369 . S
C1247 C1246 1.369 . S
C1247 C1248 1.408 . S
C1247 H1274 0.930 . S
C1248 C1243 1.348 . S
C1248 C1247 1.408 . S
C1248 H1275 0.930 . S
C1249 O1262 1.281 . S
C1249 O1263 1.254 . S
C1250 O1264 1.236 . S
C1250 O1265 1.266 . S
C1251 Tb1241 2.809 . S
C1251 C1252 1.514 . S
C1251 O1266 1.248 . S
C1251 O1267 1.266 . S
C1252 C1251 1.514 . S
C1252 C1253 1.359 . S
C1252 C1257 1.348 . S
C1253 C1252 1.359 . S
C1253 C1254 1.380 . S
C1253 H1276 0.929 . S
C1254 C1253 1.380 . S
C1254 C1255 1.347 . S
C1254 H1277 0.931 . S
C1255 C1254 1.347 . S
C1255 C1256 1.369 . S
C1256 C1255 1.369 . S
C1256 C1257 1.408 . S
C1256 H1278 0.930 . S
C1257 C1252 1.348 . S
C1257 C1256 1.408 . S
C1257 H1279 0.930 . S
C1258 O1268 1.281 . S
C1258 O1269 1.254 . S
C1259 O1270 1.236 . S
C1259 O1271 1.266 . S
O1260 Tb1240 2.484 . S
O1260 C1242 1.248 . S
O1261 Tb1240 2.440 . S
O1261 C1242 1.266 . S
O1262 Tb1240 2.658 . S
O1262 Tb1241 2.325 . S
O1262 C1249 1.281 . S
O1263 Tb1240 2.409 . S
O1263 C1249 1.254 . S
O1264 Tb1240 2.378 . S
O1264 C1250 1.236 . S
O1265 Tb1241 2.341 . S
O1265 C1250 1.266 . S
O1266 Tb1241 2.484 . S
O1266 C1251 1.248 . S
O1267 Tb1241 2.440 . S
O1267 C1251 1.266 . S
O1268 Tb1240 2.325 . S
O1268 Tb1241 2.658 . S
O1268 C1258 1.281 . S
O1269 Tb1241 2.409 . S
O1269 C1258 1.254 . S
O1270 Tb1241 2.378 . S
O1270 C1259 1.236 . S
O1271 Tb1240 2.341 . S
O1271 C1259 1.266 . S
H1272 C1244 0.929 . S
H1273 C1245 0.931 . S
H1274 C1247 0.930 . S
H1275 C1248 0.930 . S
H1276 C1253 0.929 . S
H1277 C1254 0.931 . S
H1278 C1256 0.930 . S
H1279 C1257 0.930 . S
Tb1280 C1282 2.809 . S
Tb1280 O1300 2.484 . S
Tb1280 O1301 2.440 . S
Tb1280 O1302 2.658 . S
Tb1280 O1303 2.409 . S
Tb1280 O1304 2.378 . S
Tb1280 O1308 2.325 . S
Tb1280 O1311 2.341 . S
Tb1281 C1291 2.809 . S
Tb1281 O1302 2.325 . S
Tb1281 O1305 2.341 . S
Tb1281 O1306 2.484 . S
Tb1281 O1307 2.440 . S
Tb1281 O1308 2.658 . S
Tb1281 O1309 2.409 . S
Tb1281 O1310 2.378 . S
C1282 Tb1280 2.809 . S
C1282 C1283 1.514 . S
C1282 O1300 1.248 . S
C1282 O1301 1.266 . S
C1283 C1282 1.514 . S
C1283 C1284 1.359 . S
C1283 C1288 1.348 . S
C1284 C1283 1.359 . S
C1284 C1285 1.380 . S
C1284 H1312 0.929 . S
C1285 C1284 1.380 . S
C1285 C1286 1.347 . S
C1285 H1313 0.931 . S
C1286 C1285 1.347 . S
C1286 C1287 1.369 . S
C1287 C1286 1.369 . S
C1287 C1288 1.408 . S
C1287 H1314 0.930 . S
C1288 C1283 1.348 . S
C1288 C1287 1.408 . S
C1288 H1315 0.930 . S
C1289 O1302 1.281 . S
C1289 O1303 1.254 . S
C1290 O1304 1.236 . S
C1290 O1305 1.266 . S
C1291 Tb1281 2.809 . S
C1291 C1292 1.514 . S
C1291 O1306 1.248 . S
C1291 O1307 1.266 . S
C1292 C1291 1.514 . S
C1292 C1293 1.359 . S
C1292 C1297 1.348 . S
C1293 C1292 1.359 . S
C1293 C1294 1.380 . S
C1293 H1316 0.929 . S
C1294 C1293 1.380 . S
C1294 C1295 1.347 . S
C1294 H1317 0.931 . S
C1295 C1294 1.347 . S
C1295 C1296 1.369 . S
C1296 C1295 1.369 . S
C1296 C1297 1.408 . S
C1296 H1318 0.930 . S
C1297 C1292 1.348 . S
C1297 C1296 1.408 . S
C1297 H1319 0.930 . S
C1298 O1308 1.281 . S
C1298 O1309 1.254 . S
C1299 O1310 1.236 . S
C1299 O1311 1.266 . S
O1300 Tb1280 2.484 . S
O1300 C1282 1.248 . S
O1301 Tb1280 2.440 . S
O1301 C1282 1.266 . S
O1302 Tb1280 2.658 . S
O1302 Tb1281 2.325 . S
O1302 C1289 1.281 . S
O1303 Tb1280 2.409 . S
O1303 C1289 1.254 . S
O1304 Tb1280 2.378 . S
O1304 C1290 1.236 . S
O1305 Tb1281 2.341 . S
O1305 C1290 1.266 . S
O1306 Tb1281 2.484 . S
O1306 C1291 1.248 . S
O1307 Tb1281 2.440 . S
O1307 C1291 1.266 . S
O1308 Tb1280 2.325 . S
O1308 Tb1281 2.658 . S
O1308 C1298 1.281 . S
O1309 Tb1281 2.409 . S
O1309 C1298 1.254 . S
O1310 Tb1281 2.378 . S
O1310 C1299 1.236 . S
O1311 Tb1280 2.341 . S
O1311 C1299 1.266 . S
H1312 C1284 0.929 . S
H1313 C1285 0.931 . S
H1314 C1287 0.930 . S
H1315 C1288 0.930 . S
H1316 C1293 0.929 . S
H1317 C1294 0.931 . S
H1318 C1296 0.930 . S
H1319 C1297 0.930 . S
Tb1320 C1322 2.809 . S
Tb1320 O1340 2.484 . S
Tb1320 O1341 2.440 . S
Tb1320 O1342 2.658 . S
Tb1320 O1343 2.409 . S
Tb1320 O1344 2.378 . S
Tb1320 O1348 2.325 . S
Tb1320 O1351 2.341 . S
Tb1321 C1331 2.809 . S
Tb1321 O1342 2.325 . S
Tb1321 O1345 2.341 . S
Tb1321 O1346 2.484 . S
Tb1321 O1347 2.440 . S
Tb1321 O1348 2.658 . S
Tb1321 O1349 2.409 . S
Tb1321 O1350 2.378 . S
C1322 Tb1320 2.809 . S
C1322 C1323 1.514 . S
C1322 O1340 1.248 . S
C1322 O1341 1.266 . S
C1323 C1322 1.514 . S
C1323 C1324 1.359 . S
C1323 C1328 1.348 . S
C1324 C1323 1.359 . S
C1324 C1325 1.380 . S
C1324 H1352 0.929 . S
C1325 C1324 1.380 . S
C1325 C1326 1.347 . S
C1325 H1353 0.931 . S
C1326 C1325 1.347 . S
C1326 C1327 1.369 . S
C1327 C1326 1.369 . S
C1327 C1328 1.408 . S
C1327 H1354 0.930 . S
C1328 C1323 1.348 . S
C1328 C1327 1.408 . S
C1328 H1355 0.930 . S
C1329 O1342 1.281 . S
C1329 O1343 1.254 . S
C1330 O1344 1.236 . S
C1330 O1345 1.266 . S
C1331 Tb1321 2.809 . S
C1331 C1332 1.514 . S
C1331 O1346 1.248 . S
C1331 O1347 1.266 . S
C1332 C1331 1.514 . S
C1332 C1333 1.359 . S
C1332 C1337 1.348 . S
C1333 C1332 1.359 . S
C1333 C1334 1.380 . S
C1333 H1356 0.929 . S
C1334 C1333 1.380 . S
C1334 C1335 1.347 . S
C1334 H1357 0.931 . S
C1335 C1334 1.347 . S
C1335 C1336 1.369 . S
C1336 C1335 1.369 . S
C1336 C1337 1.408 . S
C1336 H1358 0.930 . S
C1337 C1332 1.348 . S
C1337 C1336 1.408 . S
C1337 H1359 0.930 . S
C1338 O1348 1.281 . S
C1338 O1349 1.254 . S
C1339 O1350 1.236 . S
C1339 O1351 1.266 . S
O1340 Tb1320 2.484 . S
O1340 C1322 1.248 . S
O1341 Tb1320 2.440 . S
O1341 C1322 1.266 . S
O1342 Tb1320 2.658 . S
O1342 Tb1321 2.325 . S
O1342 C1329 1.281 . S
O1343 Tb1320 2.409 . S
O1343 C1329 1.254 . S
O1344 Tb1320 2.378 . S
O1344 C1330 1.236 . S
O1345 Tb1321 2.341 . S
O1345 C1330 1.266 . S
O1346 Tb1321 2.484 . S
O1346 C1331 1.248 . S
O1347 Tb1321 2.440 . S
O1347 C1331 1.266 . S
O1348 Tb1320 2.325 . S
O1348 Tb1321 2.658 . S
O1348 C1338 1.281 . S
O1349 Tb1321 2.409 . S
O1349 C1338 1.254 . S
O1350 Tb1321 2.378 . S
O1350 C1339 1.236 . S
O1351 Tb1320 2.341 . S
O1351 C1339 1.266 . S
H1352 C1324 0.929 . S
H1353 C1325 0.931 . S
H1354 C1327 0.930 . S
H1355 C1328 0.930 . S
H1356 C1333 0.929 . S
H1357 C1334 0.931 . S
H1358 C1336 0.930 . S
H1359 C1337 0.930 . S
Tb1360 C1362 2.809 . S
Tb1360 O1380 2.484 . S
Tb1360 O1381 2.440 . S
Tb1360 O1382 2.658 . S
Tb1360 O1383 2.409 . S
Tb1360 O1384 2.378 . S
Tb1360 O1388 2.325 . S
Tb1360 O1391 2.341 . S
Tb1361 C1371 2.809 . S
Tb1361 O1382 2.325 . S
Tb1361 O1385 2.341 . S
Tb1361 O1386 2.484 . S
Tb1361 O1387 2.440 . S
Tb1361 O1388 2.658 . S
Tb1361 O1389 2.409 . S
Tb1361 O1390 2.378 . S
C1362 Tb1360 2.809 . S
C1362 C1363 1.514 . S
C1362 O1380 1.248 . S
C1362 O1381 1.266 . S
C1363 C1362 1.514 . S
C1363 C1364 1.359 . S
C1363 C1368 1.348 . S
C1364 C1363 1.359 . S
C1364 C1365 1.380 . S
C1364 H1392 0.929 . S
C1365 C1364 1.380 . S
C1365 C1366 1.347 . S
C1365 H1393 0.931 . S
C1366 C1365 1.347 . S
C1366 C1367 1.369 . S
C1367 C1366 1.369 . S
C1367 C1368 1.408 . S
C1367 H1394 0.930 . S
C1368 C1363 1.348 . S
C1368 C1367 1.408 . S
C1368 H1395 0.930 . S
C1369 O1382 1.281 . S
C1369 O1383 1.254 . S
C1370 O1384 1.236 . S
C1370 O1385 1.266 . S
C1371 Tb1361 2.809 . S
C1371 C1372 1.514 . S
C1371 O1386 1.248 . S
C1371 O1387 1.266 . S
C1372 C1371 1.514 . S
C1372 C1373 1.359 . S
C1372 C1377 1.348 . S
C1373 C1372 1.359 . S
C1373 C1374 1.380 . S
C1373 H1396 0.929 . S
C1374 C1373 1.380 . S
C1374 C1375 1.347 . S
C1374 H1397 0.931 . S
C1375 C1374 1.347 . S
C1375 C1376 1.369 . S
C1376 C1375 1.369 . S
C1376 C1377 1.408 . S
C1376 H1398 0.930 . S
C1377 C1372 1.348 . S
C1377 C1376 1.408 . S
C1377 H1399 0.930 . S
C1378 O1388 1.281 . S
C1378 O1389 1.254 . S
C1379 O1390 1.236 . S
C1379 O1391 1.266 . S
O1380 Tb1360 2.484 . S
O1380 C1362 1.248 . S
O1381 Tb1360 2.440 . S
O1381 C1362 1.266 . S
O1382 Tb1360 2.658 . S
O1382 Tb1361 2.325 . S
O1382 C1369 1.281 . S
O1383 Tb1360 2.409 . S
O1383 C1369 1.254 . S
O1384 Tb1360 2.378 . S
O1384 C1370 1.236 . S
O1385 Tb1361 2.341 . S
O1385 C1370 1.266 . S
O1386 Tb1361 2.484 . S
O1386 C1371 1.248 . S
O1387 Tb1361 2.440 . S
O1387 C1371 1.266 . S
O1388 Tb1360 2.325 . S
O1388 Tb1361 2.658 . S
O1388 C1378 1.281 . S
O1389 Tb1361 2.409 . S
O1389 C1378 1.254 . S
O1390 Tb1361 2.378 . S
O1390 C1379 1.236 . S
O1391 Tb1360 2.341 . S
O1391 C1379 1.266 . S
H1392 C1364 0.929 . S
H1393 C1365 0.931 . S
H1394 C1367 0.930 . S
H1395 C1368 0.930 . S
H1396 C1373 0.929 . S
H1397 C1374 0.931 . S
H1398 C1376 0.930 . S
H1399 C1377 0.930 . S
Tb1400 C1402 2.809 . S
Tb1400 O1420 2.484 . S
Tb1400 O1421 2.440 . S
Tb1400 O1422 2.658 . S
Tb1400 O1423 2.409 . S
Tb1400 O1424 2.378 . S
Tb1400 O1428 2.325 . S
Tb1400 O1431 2.341 . S
Tb1401 C1411 2.809 . S
Tb1401 O1422 2.325 . S
Tb1401 O1425 2.341 . S
Tb1401 O1426 2.484 . S
Tb1401 O1427 2.440 . S
Tb1401 O1428 2.658 . S
Tb1401 O1429 2.409 . S
Tb1401 O1430 2.378 . S
C1402 Tb1400 2.809 . S
C1402 C1403 1.514 . S
C1402 O1420 1.248 . S
C1402 O1421 1.266 . S
C1403 C1402 1.514 . S
C1403 C1404 1.359 . S
C1403 C1408 1.348 . S
C1404 C1403 1.359 . S
C1404 C1405 1.380 . S
C1404 H1432 0.929 . S
C1405 C1404 1.380 . S
C1405 C1406 1.347 . S
C1405 H1433 0.931 . S
C1406 C1405 1.347 . S
C1406 C1407 1.369 . S
C1407 C1406 1.369 . S
C1407 C1408 1.408 . S
C1407 H1434 0.930 . S
C1408 C1403 1.348 . S
C1408 C1407 1.408 . S
C1408 H1435 0.930 . S
C1409 O1422 1.281 . S
C1409 O1423 1.254 . S
C1410 O1424 1.236 . S
C1410 O1425 1.266 . S
C1411 Tb1401 2.809 . S
C1411 C1412 1.514 . S
C1411 O1426 1.248 . S
C1411 O1427 1.266 . S
C1412 C1411 1.514 . S
C1412 C1413 1.359 . S
C1412 C1417 1.348 . S
C1413 C1412 1.359 . S
C1413 C1414 1.380 . S
C1413 H1436 0.929 . S
C1414 C1413 1.380 . S
C1414 C1415 1.347 . S
C1414 H1437 0.931 . S
C1415 C1414 1.347 . S
C1415 C1416 1.369 . S
C1416 C1415 1.369 . S
C1416 C1417 1.408 . S
C1416 H1438 0.930 . S
C1417 C1412 1.348 . S
C1417 C1416 1.408 . S
C1417 H1439 0.930 . S
C1418 O1428 1.281 . S
C1418 O1429 1.254 . S
C1419 O1430 1.236 . S
C1419 O1431 1.266 . S
O1420 Tb1400 2.484 . S
O1420 C1402 1.248 . S
O1421 Tb1400 2.440 . S
O1421 C1402 1.266 . S
O1422 Tb1400 2.658 . S
O1422 Tb1401 2.325 . S
O1422 C1409 1.281 . S
O1423 Tb1400 2.409 . S
O1423 C1409 1.254 . S
O1424 Tb1400 2.378 . S
O1424 C1410 1.236 . S
O1425 Tb1401 2.341 . S
O1425 C1410 1.266 . S
O1426 Tb1401 2.484 . S
O1426 C1411 1.248 . S
O1427 Tb1401 2.440 . S
O1427 C1411 1.266 . S
O1428 Tb1400 2.325 . S
O1428 Tb1401 2.658 . S
O1428 C1418 1.281 . S
O1429 Tb1401 2.409 . S
O1429 C1418 1.254 . S
O1430 Tb1401 2.378 . S
O1430 C1419 1.236 . S
O1431 Tb1400 2.341 . S
O1431 C1419 1.266 . S
H1432 C1404 0.929 . S
H1433 C1405 0.931 . S
H1434 C1407 0.930 . S
H1435 C1408 0.930 . S
H1436 C1413 0.929 . S
H1437 C1414 0.931 . S
H1438 C1416 0.930 . S
H1439 C1417 0.930 . S
H1440 C1446 0.925 1_556 S
H1441 C1449 0.930 . S
H1442 C1450 0.930 . S
H1443 C1451 0.930 . S
H1444 C1454 0.930 . S
H1445 C1455 0.930 . S
C1446 H1440 0.925 1_554 S
C1446 C1447 1.335 1_554 S
C1446 C1448 1.440 . S
C1447 C1446 1.335 1_556 S
C1447 C1449 1.419 . S
C1448 C1446 1.440 . S
C1448 C1453 1.425 . S
C1448 C1455 1.409 . S
C1449 H1441 0.930 . S
C1449 C1447 1.419 . S
C1449 C1450 1.362 1_556 S
C1450 H1442 0.930 . S
C1450 C1449 1.362 1_554 S
C1450 C1453 1.409 . S
C1451 H1443 0.930 . S
C1451 C1452 1.355 . S
C1451 C1453 1.415 . S
C1452 C1451 1.355 . S
C1452 C1454 1.419 . S
C1453 C1448 1.425 . S
C1453 C1450 1.409 . S
C1453 C1451 1.415 . S
C1454 H1444 0.930 . S
C1454 C1452 1.419 . S
C1454 C1455 1.362 . S
C1455 H1445 0.930 . S
C1455 C1448 1.409 . S
C1455 C1454 1.362 . S
H1456 C1462 0.930 . S
H1457 C1465 0.930 . S
H1458 C1466 0.930 . S
H1459 C1467 0.930 . S
H1460 C1470 0.930 . S
H1461 C1471 0.930 . S
C1462 H1456 0.930 . S
C1462 C1463 1.355 1_554 S
C1462 C1464 1.415 . S
C1463 C1462 1.355 1_556 S
C1463 C1465 1.419 . S
C1464 C1462 1.415 . S
C1464 C1469 1.425 . S
C1464 C1471 1.409 . S
C1465 H1457 0.930 . S
C1465 C1463 1.419 . S
C1465 C1466 1.362 1_556 S
C1466 H1458 0.930 . S
C1466 C1465 1.362 1_554 S
C1466 C1469 1.409 . S
C1467 H1459 0.930 . S
C1467 C1468 1.355 . S
C1467 C1469 1.415 . S
C1468 C1467 1.355 . S
C1468 C1470 1.419 . S
C1469 C1464 1.425 . S
C1469 C1466 1.409 . S
C1469 C1467 1.415 . S
C1470 H1460 0.930 . S
C1470 C1468 1.419 . S
C1470 C1471 1.362 . S
C1471 H1461 0.930 . S
C1471 C1464 1.409 . S
C1471 C1470 1.362 . S
H1472 C1478 0.930 . S
H1473 C1481 0.930 . S
H1474 C1482 0.930 . S
H1475 C1483 0.930 . S
H1476 C1486 0.930 1_556 S
H1477 C1487 0.930 . S
C1478 H1472 0.930 . S
C1478 C1479 1.355 . S
C1478 C1480 1.415 . S
C1479 C1478 1.355 . S
C1479 C1481 1.419 . S
C1480 C1478 1.415 . S
C1480 C1485 1.425 . S
C1480 C1487 1.409 . S
C1481 H1473 0.930 . S
C1481 C1479 1.419 . S
C1481 C1482 1.362 . S
C1482 H1474 0.930 . S
C1482 C1481 1.362 . S
C1482 C1485 1.409 . S
C1483 H1475 0.930 . S
C1483 C1484 1.355 . S
C1483 C1485 1.415 1_556 S
C1484 C1483 1.355 . S
C1484 C1486 1.419 1_556 S
C1485 C1480 1.425 . S
C1485 C1482 1.409 . S
C1485 C1483 1.415 1_554 S
C1486 H1476 0.930 1_554 S
C1486 C1484 1.419 1_554 S
C1486 C1487 1.362 . S
C1487 H1477 0.930 . S
C1487 C1480 1.409 . S
C1487 C1486 1.362 . S
H1488 C1494 0.930 . S
H1489 C1497 0.930 . S
H1490 C1498 0.930 . S
H1491 C1499 0.930 . S
H1492 C1502 0.930 . S
H1493 C1503 0.930 . S
C1494 H1488 0.930 . S
C1494 C1495 1.355 . S
C1494 C1496 1.415 . S
C1495 C1494 1.355 . S
C1495 C1497 1.419 . S
C1496 C1494 1.415 . S
C1496 C1501 1.425 . S
C1496 C1503 1.409 . S
C1497 H1489 0.930 . S
C1497 C1495 1.419 . S
C1497 C1498 1.362 . S
C1498 H1490 0.930 . S
C1498 C1497 1.362 . S
C1498 C1501 1.409 . S
C1499 H1491 0.930 . S
C1499 C1500 1.355 . S
C1499 C1501 1.415 . S
C1500 C1499 1.355 . S
C1500 C1502 1.419 . S
C1501 C1496 1.425 . S
C1501 C1498 1.409 . S
C1501 C1499 1.415 . S
C1502 H1492 0.930 . S
C1502 C1500 1.419 . S
C1502 C1503 1.362 . S
C1503 H1493 0.930 . S
C1503 C1496 1.409 . S
C1503 C1502 1.362 . S
H1504 C1510 0.930 . S
H1505 C1513 0.930 . S
H1506 C1514 0.930 . S
H1507 C1515 0.930 . S
H1508 C1518 0.930 . S
H1509 C1519 0.930 . S
C1510 H1504 0.930 . S
C1510 C1511 1.355 . S
C1510 C1512 1.415 . S
C1511 C1510 1.355 . S
C1511 C1513 1.419 . S
C1512 C1510 1.415 . S
C1512 C1517 1.425 . S
C1512 C1519 1.409 . S
C1513 H1505 0.930 . S
C1513 C1511 1.419 . S
C1513 C1514 1.362 . S
C1514 H1506 0.930 . S
C1514 C1513 1.362 . S
C1514 C1517 1.409 . S
C1515 H1507 0.930 . S
C1515 C1516 1.355 . S
C1515 C1517 1.415 . S
C1516 C1515 1.355 . S
C1516 C1518 1.419 . S
C1517 C1512 1.425 . S
C1517 C1514 1.409 . S
C1517 C1515 1.415 . S
C1518 H1508 0.930 . S
C1518 C1516 1.419 . S
C1518 C1519 1.362 . S
C1519 H1509 0.930 . S
C1519 C1512 1.409 . S
C1519 C1518 1.362 . S
H1520 C1526 0.930 . S
H1521 C1529 0.930 . S
H1522 C1530 0.930 . S
H1523 C1531 0.930 . S
H1524 C1534 0.930 . S
H1525 C1535 0.930 . S
C1526 H1520 0.930 . S
C1526 C1527 1.355 . S
C1526 C1528 1.415 . S
C1527 C1526 1.355 . S
C1527 C1529 1.419 . S
C1528 C1526 1.415 . S
C1528 C1533 1.425 . S
C1528 C1535 1.409 . S
C1529 H1521 0.930 . S
C1529 C1527 1.419 . S
C1529 C1530 1.362 . S
C1530 H1522 0.930 . S
C1530 C1529 1.362 . S
C1530 C1533 1.409 . S
C1531 H1523 0.930 . S
C1531 C1532 1.355 . S
C1531 C1533 1.415 . S
C1532 C1531 1.355 . S
C1532 C1534 1.419 . S
C1533 C1528 1.425 . S
C1533 C1530 1.409 . S
C1533 C1531 1.415 . S
C1534 H1524 0.930 . S
C1534 C1532 1.419 . S
C1534 C1535 1.362 . S
C1535 H1525 0.930 . S
C1535 C1528 1.409 . S
C1535 C1534 1.362 . S
H1536 C1542 0.930 . S
H1537 C1545 0.930 . S
H1538 C1546 0.930 . S
H1539 C1547 0.930 . S
H1540 C1550 0.930 . S
H1541 C1551 0.930 . S
C1542 H1536 0.930 . S
C1542 C1543 1.355 . S
C1542 C1544 1.415 . S
C1543 C1542 1.355 . S
C1543 C1545 1.419 . S
C1544 C1542 1.415 . S
C1544 C1549 1.425 . S
C1544 C1551 1.409 . S
C1545 H1537 0.930 . S
C1545 C1543 1.419 . S
C1545 C1546 1.362 . S
C1546 H1538 0.930 . S
C1546 C1545 1.362 . S
C1546 C1549 1.409 . S
C1547 H1539 0.930 . S
C1547 C1548 1.355 . S
C1547 C1549 1.415 . S
C1548 C1547 1.355 . S
C1548 C1550 1.419 . S
C1549 C1544 1.425 . S
C1549 C1546 1.409 . S
C1549 C1547 1.415 . S
C1550 H1540 0.930 . S
C1550 C1548 1.419 . S
C1550 C1551 1.362 . S
C1551 H1541 0.930 . S
C1551 C1544 1.409 . S
C1551 C1550 1.362 . S
H1552 C1558 0.930 . S
H1553 C1561 0.930 . S
H1554 C1562 0.930 . S
H1555 C1563 0.930 . S
H1556 C1566 0.930 . S
H1557 C1567 0.930 . S
C1558 H1552 0.930 . S
C1558 C1559 1.355 . S
C1558 C1560 1.415 . S
C1559 C1558 1.355 . S
C1559 C1561 1.419 . S
C1560 C1558 1.415 . S
C1560 C1565 1.425 . S
C1560 C1567 1.409 . S
C1561 H1553 0.930 . S
C1561 C1559 1.419 . S
C1561 C1562 1.362 . S
C1562 H1554 0.930 . S
C1562 C1561 1.362 . S
C1562 C1565 1.409 . S
C1563 H1555 0.930 . S
C1563 C1564 1.355 . S
C1563 C1565 1.415 . S
C1564 C1563 1.355 . S
C1564 C1566 1.419 . S
C1565 C1560 1.425 . S
C1565 C1562 1.409 . S
C1565 C1563 1.415 . S
C1566 H1556 0.930 . S
C1566 C1564 1.419 . S
C1566 C1567 1.362 . S
C1567 H1557 0.930 . S
C1567 C1560 1.409 . S
C1567 C1566 1.362 . S
H1568 C1574 0.930 . S
H1569 C1577 0.930 . S
H1570 C1578 0.930 . S
H1571 C1579 0.930 . S
H1572 C1582 0.930 . S
H1573 C1583 0.930 . S
C1574 H1568 0.930 . S
C1574 C1575 1.355 . S
C1574 C1576 1.415 . S
C1575 C1574 1.355 . S
C1575 C1577 1.419 . S
C1576 C1574 1.415 . S
C1576 C1581 1.425 . S
C1576 C1583 1.409 . S
C1577 H1569 0.930 . S
C1577 C1575 1.419 . S
C1577 C1578 1.362 . S
C1578 H1570 0.930 . S
C1578 C1577 1.362 . S
C1578 C1581 1.409 . S
C1579 H1571 0.930 . S
C1579 C1580 1.355 . S
C1579 C1581 1.415 . S
C1580 C1579 1.355 . S
C1580 C1582 1.419 . S
C1581 C1576 1.425 . S
C1581 C1578 1.409 . S
C1581 C1579 1.415 . S
C1582 H1572 0.930 . S
C1582 C1580 1.419 . S
C1582 C1583 1.362 . S
C1583 H1573 0.930 . S
C1583 C1576 1.409 . S
C1583 C1582 1.362 . S
H1584 C1590 0.930 . S
H1585 C1593 0.930 . S
H1586 C1594 0.930 . S
H1587 C1595 0.930 . S
H1588 C1598 0.930 . S
H1589 C1599 0.930 . S
C1590 H1584 0.930 . S
C1590 C1591 1.355 . S
C1590 C1592 1.415 . S
C1591 C1590 1.355 . S
C1591 C1593 1.419 . S
C1592 C1590 1.415 . S
C1592 C1597 1.425 . S
C1592 C1599 1.409 . S
C1593 H1585 0.930 . S
C1593 C1591 1.419 . S
C1593 C1594 1.362 . S
C1594 H1586 0.930 . S
C1594 C1593 1.362 . S
C1594 C1597 1.409 . S
C1595 H1587 0.930 . S
C1595 C1596 1.355 . S
C1595 C1597 1.415 . S
C1596 C1595 1.355 . S
C1596 C1598 1.419 . S
C1597 C1592 1.425 . S
C1597 C1594 1.409 . S
C1597 C1595 1.415 . S
C1598 H1588 0.930 . S
C1598 C1596 1.419 . S
C1598 C1599 1.362 . S
C1599 H1589 0.930 . S
C1599 C1592 1.409 . S
C1599 C1598 1.362 . S
H1600 C1606 0.930 . S
H1601 C1609 0.930 . S
H1602 C1610 0.930 . S
H1603 C1611 0.930 . S
H1604 C1614 0.930 . S
H1605 C1615 0.930 . S
C1606 H1600 0.930 . S
C1606 C1607 1.355 . S
C1606 C1608 1.415 . S
C1607 C1606 1.355 . S
C1607 C1609 1.419 . S
C1608 C1606 1.415 . S
C1608 C1613 1.425 . S
C1608 C1615 1.409 . S
C1609 H1601 0.930 . S
C1609 C1607 1.419 . S
C1609 C1610 1.362 . S
C1610 H1602 0.930 . S
C1610 C1609 1.362 . S
C1610 C1613 1.409 . S
C1611 H1603 0.930 . S
C1611 C1612 1.355 . S
C1611 C1613 1.415 . S
C1612 C1611 1.355 . S
C1612 C1614 1.419 . S
C1613 C1608 1.425 . S
C1613 C1610 1.409 . S
C1613 C1611 1.415 . S
C1614 H1604 0.930 . S
C1614 C1612 1.419 . S
C1614 C1615 1.362 . S
C1615 H1605 0.930 . S
C1615 C1608 1.409 . S
C1615 C1614 1.362 . S
H1616 C1622 0.930 . S
H1617 C1625 0.930 . S
H1618 C1626 0.930 . S
H1619 C1627 0.930 . S
H1620 C1630 0.930 . S
H1621 C1631 0.930 . S
C1622 H1616 0.930 . S
C1622 C1623 1.355 . S
C1622 C1624 1.415 . S
C1623 C1622 1.355 . S
C1623 C1625 1.419 . S
C1624 C1622 1.415 . S
C1624 C1629 1.425 . S
C1624 C1631 1.409 . S
C1625 H1617 0.930 . S
C1625 C1623 1.419 . S
C1625 C1626 1.362 . S
C1626 H1618 0.930 . S
C1626 C1625 1.362 . S
C1626 C1629 1.409 . S
C1627 H1619 0.930 . S
C1627 C1628 1.355 . S
C1627 C1629 1.415 . S
C1628 C1627 1.355 . S
C1628 C1630 1.419 . S
C1629 C1624 1.425 . S
C1629 C1626 1.409 . S
C1629 C1627 1.415 . S
C1630 H1620 0.930 . S
C1630 C1628 1.419 . S
C1630 C1631 1.362 . S
C1631 H1621 0.930 . S
C1631 C1624 1.409 . S
C1631 C1630 1.362 . S
H1632 C1638 0.930 . S
H1633 C1641 0.930 . S
H1634 C1642 0.930 . S
H1635 C1643 0.930 . S
H1636 C1646 0.930 . S
H1637 C1647 0.930 . S
C1638 H1632 0.930 . S
C1638 C1639 1.355 . S
C1638 C1640 1.415 . S
C1639 C1638 1.355 . S
C1639 C1641 1.419 . S
C1640 C1638 1.415 . S
C1640 C1645 1.425 . S
C1640 C1647 1.409 . S
C1641 H1633 0.930 . S
C1641 C1639 1.419 . S
C1641 C1642 1.362 . S
C1642 H1634 0.930 . S
C1642 C1641 1.362 . S
C1642 C1645 1.409 . S
C1643 H1635 0.930 . S
C1643 C1644 1.355 . S
C1643 C1645 1.415 . S
C1644 C1643 1.355 . S
C1644 C1646 1.419 . S
C1645 C1640 1.425 . S
C1645 C1642 1.409 . S
C1645 C1643 1.415 . S
C1646 H1636 0.930 . S
C1646 C1644 1.419 . S
C1646 C1647 1.362 . S
C1647 H1637 0.930 . S
C1647 C1640 1.409 . S
C1647 C1646 1.362 . S
H1648 C1654 0.938 . S
H1649 C1657 0.930 . S
H1650 C1658 0.930 . S
H1651 C1659 0.937 . S
H1652 C1662 0.930 . S
H1653 C1663 0.930 . S
C1654 H1648 0.938 . S
C1654 C1655 1.355 . S
C1654 C1656 1.415 1_565 S
C1655 C1654 1.355 . S
C1655 C1657 1.419 . S
C1656 C1654 1.415 1_545 S
C1656 C1661 1.425 1_545 S
C1656 C1663 1.409 . S
C1657 H1649 0.930 . S
C1657 C1655 1.419 . S
C1657 C1658 1.362 . S
C1658 H1650 0.930 . S
C1658 C1657 1.362 . S
C1658 C1661 1.409 . S
C1659 H1651 0.937 . S
C1659 C1660 1.355 . S
C1659 C1661 1.415 1_545 S
C1660 C1659 1.355 . S
C1660 C1662 1.419 . S
C1661 C1656 1.425 1_565 S
C1661 C1658 1.409 . S
C1661 C1659 1.415 1_565 S
C1662 H1652 0.930 . S
C1662 C1660 1.419 . S
C1662 C1663 1.362 . S
C1663 H1653 0.930 . S
C1663 C1656 1.409 . S
C1663 C1662 1.362 . S
H1664 C1670 0.930 . S
H1665 C1673 0.930 . S
H1666 C1674 0.930 . S
H1667 C1675 0.930 . S
H1668 C1678 0.930 . S
H1669 C1679 0.930 . S
C1670 H1664 0.930 . S
C1670 C1671 1.355 . S
C1670 C1672 1.415 . S
C1671 C1670 1.355 . S
C1671 C1673 1.419 1_655 S
C1672 C1670 1.415 . S
C1672 C1677 1.425 1_655 S
C1672 C1679 1.409 . S
C1673 H1665 0.930 . S
C1673 C1671 1.419 1_455 S
C1673 C1674 1.362 . S
C1674 H1666 0.930 . S
C1674 C1673 1.362 . S
C1674 C1677 1.409 . S
C1675 H1667 0.930 . S
C1675 C1676 1.355 . S
C1675 C1677 1.415 . S
C1676 C1675 1.355 . S
C1676 C1678 1.419 1_455 S
C1677 C1672 1.425 1_455 S
C1677 C1674 1.409 . S
C1677 C1675 1.415 . S
C1678 H1668 0.930 . S
C1678 C1676 1.419 1_655 S
C1678 C1679 1.362 . S
C1679 H1669 0.930 . S
C1679 C1672 1.409 . S
C1679 C1678 1.362 . S
H1680 C1686 0.930 . S
H1681 C1689 0.930 . S
H1682 C1690 0.930 . S
H1683 C1691 0.930 . S
H1684 C1694 0.930 . S
H1685 C1695 0.930 . S
C1686 H1680 0.930 . S
C1686 C1687 1.355 . S
C1686 C1688 1.415 . S
C1687 C1686 1.355 . S
C1687 C1689 1.419 . S
C1688 C1686 1.415 . S
C1688 C1693 1.425 . S
C1688 C1695 1.409 . S
C1689 H1681 0.930 . S
C1689 C1687 1.419 . S
C1689 C1690 1.362 . S
C1690 H1682 0.930 . S
C1690 C1689 1.362 . S
C1690 C1693 1.409 . S
C1691 H1683 0.930 . S
C1691 C1692 1.355 . S
C1691 C1693 1.415 . S
C1692 C1691 1.355 . S
C1692 C1694 1.419 . S
C1693 C1688 1.425 . S
C1693 C1690 1.409 . S
C1693 C1691 1.415 . S
C1694 H1684 0.930 . S
C1694 C1692 1.419 . S
C1694 C1695 1.362 . S
C1695 H1685 0.930 . S
C1695 C1688 1.409 . S
C1695 C1694 1.362 . S
H1696 C1702 0.930 1_565 S
H1697 C1705 0.930 . S
H1698 C1706 0.930 . S
H1699 C1707 0.930 1_545 S
H1700 C1710 0.930 . S
H1701 C1711 0.930 . S
C1702 H1696 0.930 1_545 S
C1702 C1703 1.355 . S
C1702 C1704 1.415 1_545 S
C1703 C1702 1.355 . S
C1703 C1705 1.419 . S
C1704 C1702 1.415 1_565 S
C1704 C1709 1.425 1_565 S
C1704 C1711 1.409 . S
C1705 H1697 0.930 . S
C1705 C1703 1.419 . S
C1705 C1706 1.362 . S
C1706 H1698 0.930 . S
C1706 C1705 1.362 . S
C1706 C1709 1.409 . S
C1707 H1699 0.930 1_565 S
C1707 C1708 1.355 . S
C1707 C1709 1.415 1_565 S
C1708 C1707 1.355 . S
C1708 C1710 1.419 . S
C1709 C1704 1.425 1_545 S
C1709 C1706 1.409 . S
C1709 C1707 1.415 1_545 S
C1710 H1700 0.930 . S
C1710 C1708 1.419 . S
C1710 C1711 1.362 . S
C1711 H1701 0.930 . S
C1711 C1704 1.409 . S
C1711 C1710 1.362 . S
H1712 C1718 0.930 . S
H1713 C1721 0.930 . S
H1714 C1722 0.930 . S
H1715 C1723 0.930 . S
H1716 C1726 0.930 . S
H1717 C1727 0.930 . S
C1718 H1712 0.930 . S
C1718 C1719 1.355 1_655 S
C1718 C1720 1.415 . S
C1719 C1718 1.355 1_455 S
C1719 C1721 1.419 . S
C1720 C1718 1.415 . S
C1720 C1725 1.425 1_655 S
C1720 C1727 1.409 . S
C1721 H1713 0.930 . S
C1721 C1719 1.419 . S
C1721 C1722 1.362 . S
C1722 H1714 0.930 . S
C1722 C1721 1.362 . S
C1722 C1725 1.409 . S
C1723 H1715 0.930 . S
C1723 C1724 1.355 1_455 S
C1723 C1725 1.415 . S
C1724 C1723 1.355 1_655 S
C1724 C1726 1.419 . S
C1725 C1720 1.425 1_455 S
C1725 C1722 1.409 . S
C1725 C1723 1.415 . S
C1726 H1716 0.930 . S
C1726 C1724 1.419 . S
C1726 C1727 1.362 . S
C1727 H1717 0.930 . S
C1727 C1720 1.409 . S
C1727 C1726 1.362 . S
H1728 C1734 0.930 . S
H1729 C1737 0.930 . S
H1730 C1738 0.930 . S
H1731 C1739 0.930 . S
H1732 C1742 0.930 . S
H1733 C1743 0.930 . S
C1734 H1728 0.930 . S
C1734 C1735 1.355 . S
C1734 C1736 1.415 . S
C1735 C1734 1.355 . S
C1735 C1737 1.419 . S
C1736 C1734 1.415 . S
C1736 C1741 1.425 1_455 S
C1736 C1743 1.409 1_455 S
C1737 H1729 0.930 . S
C1737 C1735 1.419 . S
C1737 C1738 1.362 . S
C1738 H1730 0.930 . S
C1738 C1737 1.362 . S
C1738 C1741 1.409 1_455 S
C1739 H1731 0.930 . S
C1739 C1740 1.355 . S
C1739 C1741 1.415 . S
C1740 C1739 1.355 . S
C1740 C1742 1.419 . S
C1741 C1736 1.425 1_655 S
C1741 C1738 1.409 1_655 S
C1741 C1739 1.415 . S
C1742 H1732 0.930 . S
C1742 C1740 1.419 . S
C1742 C1743 1.362 . S
C1743 H1733 0.930 . S
C1743 C1736 1.409 1_655 S
C1743 C1742 1.362 . S
H1744 C1750 0.930 . S
H1745 C1753 0.930 . S
H1746 C1754 0.930 . S
H1747 C1755 0.930 . S
H1748 C1758 0.930 . S
H1749 C1759 0.930 . S
C1750 H1744 0.930 . S
C1750 C1751 1.355 . S
C1750 C1752 1.415 . S
C1751 C1750 1.355 . S
C1751 C1753 1.419 . S
C1752 C1750 1.415 . S
C1752 C1757 1.425 . S
C1752 C1759 1.409 . S
C1753 H1745 0.930 . S
C1753 C1751 1.419 . S
C1753 C1754 1.362 . S
C1754 H1746 0.930 . S
C1754 C1753 1.362 . S
C1754 C1757 1.409 . S
C1755 H1747 0.930 . S
C1755 C1756 1.355 . S
C1755 C1757 1.415 . S
C1756 C1755 1.355 . S
C1756 C1758 1.419 . S
C1757 C1752 1.425 . S
C1757 C1754 1.409 . S
C1757 C1755 1.415 . S
C1758 H1748 0.930 . S
C1758 C1756 1.419 . S
C1758 C1759 1.362 . S
C1759 H1749 0.930 . S
C1759 C1752 1.409 . S
C1759 C1758 1.362 . S
H1760 C1766 0.930 1_545 S
H1761 C1769 0.930 . S
H1762 C1770 0.930 . S
H1763 C1771 0.930 1_565 S
H1764 C1774 0.930 . S
H1765 C1775 0.930 . S
C1766 H1760 0.930 1_565 S
C1766 C1767 1.355 . S
C1766 C1768 1.415 1_565 S
C1767 C1766 1.355 . S
C1767 C1769 1.419 . S
C1768 C1766 1.415 1_545 S
C1768 C1773 1.425 1_545 S
C1768 C1775 1.409 . S
C1769 H1761 0.930 . S
C1769 C1767 1.419 . S
C1769 C1770 1.362 . S
C1770 H1762 0.930 . S
C1770 C1769 1.362 . S
C1770 C1773 1.409 . S
C1771 H1763 0.930 1_545 S
C1771 C1772 1.355 . S
C1771 C1773 1.415 1_545 S
C1772 C1771 1.355 . S
C1772 C1774 1.419 . S
C1773 C1768 1.425 1_565 S
C1773 C1770 1.409 . S
C1773 C1771 1.415 1_565 S
C1774 H1764 0.930 . S
C1774 C1772 1.419 . S
C1774 C1775 1.362 . S
C1775 H1765 0.930 . S
C1775 C1768 1.409 . S
C1775 C1774 1.362 . S
H1776 C1782 0.930 . S
H1777 C1785 0.930 . S
H1778 C1786 0.930 . S
H1779 C1787 0.930 . S
H1780 C1790 0.930 . S
H1781 C1791 0.930 . S
C1782 H1776 0.930 . S
C1782 C1783 1.355 . S
C1782 C1784 1.415 . S
C1783 C1782 1.355 . S
C1783 C1785 1.419 1_655 S
C1784 C1782 1.415 . S
C1784 C1789 1.425 1_655 S
C1784 C1791 1.409 . S
C1785 H1777 0.930 . S
C1785 C1783 1.419 1_455 S
C1785 C1786 1.362 . S
C1786 H1778 0.930 . S
C1786 C1785 1.362 . S
C1786 C1789 1.409 . S
C1787 H1779 0.930 . S
C1787 C1788 1.355 . S
C1787 C1789 1.415 . S
C1788 C1787 1.355 . S
C1788 C1790 1.419 1_455 S
C1789 C1784 1.425 1_455 S
C1789 C1786 1.409 . S
C1789 C1787 1.415 . S
C1790 H1780 0.930 . S
C1790 C1788 1.419 1_655 S
C1790 C1791 1.362 . S
C1791 H1781 0.930 . S
C1791 C1784 1.409 . S
C1791 C1790 1.362 . S
H1792 C1798 0.930 . S
H1793 C1801 0.930 . S
H1794 C1802 0.930 . S
H1795 C1803 0.930 . S
H1796 C1806 0.930 . S
H1797 C1807 0.930 . S
C1798 H1792 0.930 . S
C1798 C1799 1.355 . S
C1798 C1800 1.415 . S
C1799 C1798 1.355 . S
C1799 C1801 1.419 . S
C1800 C1798 1.415 . S
C1800 C1805 1.425 . S
C1800 C1807 1.409 . S
C1801 H1793 0.930 . S
C1801 C1799 1.419 . S
C1801 C1802 1.362 . S
C1802 H1794 0.930 . S
C1802 C1801 1.362 . S
C1802 C1805 1.409 . S
C1803 H1795 0.930 . S
C1803 C1804 1.355 . S
C1803 C1805 1.415 . S
C1804 C1803 1.355 . S
C1804 C1806 1.419 . S
C1805 C1800 1.425 . S
C1805 C1802 1.409 . S
C1805 C1803 1.415 . S
C1806 H1796 0.930 . S
C1806 C1804 1.419 . S
C1806 C1807 1.362 . S
C1807 H1797 0.930 . S
C1807 C1800 1.409 . S
C1807 C1806 1.362 . S
H1808 C1814 0.930 . S
H1809 C1817 0.930 . S
H1810 C1818 0.930 . S
H1811 C1819 0.930 . S
H1812 C1822 0.930 . S
H1813 C1823 0.930 . S
C1814 H1808 0.930 . S
C1814 C1815 1.355 . S
C1814 C1816 1.415 1_545 S
C1815 C1814 1.355 . S
C1815 C1817 1.419 . S
C1816 C1814 1.415 1_565 S
C1816 C1821 1.425 1_565 S
C1816 C1823 1.409 . S
C1817 H1809 0.930 . S
C1817 C1815 1.419 . S
C1817 C1818 1.362 . S
C1818 H1810 0.930 . S
C1818 C1817 1.362 . S
C1818 C1821 1.409 . S
C1819 H1811 0.930 . S
C1819 C1820 1.355 . S
C1819 C1821 1.415 1_565 S
C1820 C1819 1.355 . S
C1820 C1822 1.419 . S
C1821 C1816 1.425 1_545 S
C1821 C1818 1.409 . S
C1821 C1819 1.415 1_545 S
C1822 H1812 0.930 . S
C1822 C1820 1.419 . S
C1822 C1823 1.362 . S
C1823 H1813 0.930 . S
C1823 C1816 1.409 . S
C1823 C1822 1.362 . S
H1824 C1830 0.930 . S
H1825 C1833 0.930 . S
H1826 C1834 0.930 . S
H1827 C1835 0.930 . S
H1828 C1838 0.930 . S
H1829 C1839 0.930 . S
C1830 H1824 0.930 . S
C1830 C1831 1.355 . S
C1830 C1832 1.415 . S
C1831 C1830 1.355 . S
C1831 C1833 1.419 . S
C1832 C1830 1.415 . S
C1832 C1837 1.425 . S
C1832 C1839 1.409 . S
C1833 H1825 0.930 . S
C1833 C1831 1.419 . S
C1833 C1834 1.362 . S
C1834 H1826 0.930 . S
C1834 C1833 1.362 . S
C1834 C1837 1.409 . S
C1835 H1827 0.930 . S
C1835 C1836 1.355 . S
C1835 C1837 1.415 . S
C1836 C1835 1.355 . S
C1836 C1838 1.419 . S
C1837 C1832 1.425 . S
C1837 C1834 1.409 . S
C1837 C1835 1.415 . S
C1838 H1828 0.930 . S
C1838 C1836 1.419 . S
C1838 C1839 1.362 . S
C1839 H1829 0.930 . S
C1839 C1832 1.409 . S
C1839 C1838 1.362 . S
H1840 C1846 0.930 . S
H1841 C1849 0.930 . S
H1842 C1850 0.930 . S
H1843 C1851 0.930 . S
H1844 C1854 0.930 . S
H1845 C1855 0.930 . S
C1846 H1840 0.930 . S
C1846 C1847 1.355 . S
C1846 C1848 1.415 . S
C1847 C1846 1.355 . S
C1847 C1849 1.419 . S
C1848 C1846 1.415 . S
C1848 C1853 1.425 . S
C1848 C1855 1.409 . S
C1849 H1841 0.930 . S
C1849 C1847 1.419 . S
C1849 C1850 1.362 . S
C1850 H1842 0.930 . S
C1850 C1849 1.362 . S
C1850 C1853 1.409 . S
C1851 H1843 0.930 . S
C1851 C1852 1.355 . S
C1851 C1853 1.415 . S
C1852 C1851 1.355 . S
C1852 C1854 1.419 . S
C1853 C1848 1.425 . S
C1853 C1850 1.409 . S
C1853 C1851 1.415 . S
C1854 H1844 0.930 . S
C1854 C1852 1.419 . S
C1854 C1855 1.362 . S
C1855 H1845 0.930 . S
C1855 C1848 1.409 . S
C1855 C1854 1.362 . S
H1856 C1862 0.930 . S
H1857 C1865 0.930 . S
H1858 C1866 0.930 . S
H1859 C1867 0.930 . S
H1860 C1870 0.930 . S
H1861 C1871 0.930 . S
C1862 H1856 0.930 . S
C1862 C1863 1.355 . S
C1862 C1864 1.415 . S
C1863 C1862 1.355 . S
C1863 C1865 1.419 . S
C1864 C1862 1.415 . S
C1864 C1869 1.425 . S
C1864 C1871 1.409 . S
C1865 H1857 0.930 . S
C1865 C1863 1.419 . S
C1865 C1866 1.362 . S
C1866 H1858 0.930 . S
C1866 C1865 1.362 . S
C1866 C1869 1.409 . S
C1867 H1859 0.930 . S
C1867 C1868 1.355 . S
C1867 C1869 1.415 . S
C1868 C1867 1.355 . S
C1868 C1870 1.419 . S
C1869 C1864 1.425 . S
C1869 C1866 1.409 . S
C1869 C1867 1.415 . S
C1870 H1860 0.930 . S
C1870 C1868 1.419 . S
C1870 C1871 1.362 . S
C1871 H1861 0.930 . S
C1871 C1864 1.409 . S
C1871 C1870 1.362 . S
H1872 C1878 0.930 . S
H1873 C1881 0.930 . S
H1874 C1882 0.930 . S
H1875 C1883 0.930 . S
H1876 C1886 0.930 . S
H1877 C1887 0.930 . S
C1878 H1872 0.930 . S
C1878 C1879 1.355 . S
C1878 C1880 1.415 . S
C1879 C1878 1.355 . S
C1879 C1881 1.419 . S
C1880 C1878 1.415 . S
C1880 C1885 1.425 . S
C1880 C1887 1.409 . S
C1881 H1873 0.930 . S
C1881 C1879 1.419 . S
C1881 C1882 1.362 . S
C1882 H1874 0.930 . S
C1882 C1881 1.362 . S
C1882 C1885 1.409 . S
C1883 H1875 0.930 . S
C1883 C1884 1.355 . S
C1883 C1885 1.415 . S
C1884 C1883 1.355 . S
C1884 C1886 1.419 . S
C1885 C1880 1.425 . S
C1885 C1882 1.409 . S
C1885 C1883 1.415 . S
C1886 H1876 0.930 . S
C1886 C1884 1.419 . S
C1886 C1887 1.362 . S
C1887 H1877 0.930 . S
C1887 C1880 1.409 . S
C1887 C1886 1.362 . S
H1888 C1894 0.930 . S
H1889 C1897 0.930 . S
H1890 C1898 0.930 . S
H1891 C1899 0.930 . S
H1892 C1902 0.930 . S
H1893 C1903 0.930 . S
C1894 H1888 0.930 . S
C1894 C1895 1.355 . S
C1894 C1896 1.415 . S
C1895 C1894 1.355 . S
C1895 C1897 1.419 . S
C1896 C1894 1.415 . S
C1896 C1901 1.425 . S
C1896 C1903 1.409 . S
C1897 H1889 0.930 . S
C1897 C1895 1.419 . S
C1897 C1898 1.362 . S
C1898 H1890 0.930 . S
C1898 C1897 1.362 . S
C1898 C1901 1.409 . S
C1899 H1891 0.930 . S
C1899 C1900 1.355 . S
C1899 C1901 1.415 . S
C1900 C1899 1.355 . S
C1900 C1902 1.419 . S
C1901 C1896 1.425 . S
C1901 C1898 1.409 . S
C1901 C1899 1.415 . S
C1902 H1892 0.930 . S
C1902 C1900 1.419 . S
C1902 C1903 1.362 . S
C1903 H1893 0.930 . S
C1903 C1896 1.409 . S
C1903 C1902 1.362 . S
H1904 C1910 0.930 . S
H1905 C1913 0.930 . S
H1906 C1914 0.930 . S
H1907 C1915 0.930 . S
H1908 C1918 0.930 . S
H1909 C1919 0.930 . S
C1910 H1904 0.930 . S
C1910 C1911 1.355 . S
C1910 C1912 1.415 . S
C1911 C1910 1.355 . S
C1911 C1913 1.419 . S
C1912 C1910 1.415 . S
C1912 C1917 1.425 . S
C1912 C1919 1.409 . S
C1913 H1905 0.930 . S
C1913 C1911 1.419 . S
C1913 C1914 1.362 . S
C1914 H1906 0.930 . S
C1914 C1913 1.362 . S
C1914 C1917 1.409 . S
C1915 H1907 0.930 . S
C1915 C1916 1.355 . S
C1915 C1917 1.415 . S
C1916 C1915 1.355 . S
C1916 C1918 1.419 . S
C1917 C1912 1.425 . S
C1917 C1914 1.409 . S
C1917 C1915 1.415 . S
C1918 H1908 0.930 . S
C1918 C1916 1.419 . S
C1918 C1919 1.362 . S
C1919 H1909 0.930 . S
C1919 C1912 1.409 . S
C1919 C1918 1.362 . S
H1920 C1926 0.930 . S
H1921 C1929 0.930 . S
H1922 C1930 0.930 . S
H1923 C1931 0.930 . S
H1924 C1934 0.930 . S
H1925 C1935 0.930 . S
C1926 H1920 0.930 . S
C1926 C1927 1.355 . S
C1926 C1928 1.415 . S
C1927 C1926 1.355 . S
C1927 C1929 1.419 . S
C1928 C1926 1.415 . S
C1928 C1933 1.425 . S
C1928 C1935 1.409 . S
C1929 H1921 0.930 . S
C1929 C1927 1.419 . S
C1929 C1930 1.362 . S
C1930 H1922 0.930 . S
C1930 C1929 1.362 . S
C1930 C1933 1.409 . S
C1931 H1923 0.930 . S
C1931 C1932 1.355 . S
C1931 C1933 1.415 . S
C1932 C1931 1.355 . S
C1932 C1934 1.419 . S
C1933 C1928 1.425 . S
C1933 C1930 1.409 . S
C1933 C1931 1.415 . S
C1934 H1924 0.930 . S
C1934 C1932 1.419 . S
C1934 C1935 1.362 . S
C1935 H1925 0.930 . S
C1935 C1928 1.409 . S
C1935 C1934 1.362 . S
H1936 C1942 0.930 . S
H1937 C1945 0.930 . S
H1938 C1946 0.930 . S
H1939 C1947 0.930 . S
H1940 C1950 0.930 . S
H1941 C1951 0.930 . S
C1942 H1936 0.930 . S
C1942 C1943 1.355 . S
C1942 C1944 1.415 . S
C1943 C1942 1.355 . S
C1943 C1945 1.419 . S
C1944 C1942 1.415 . S
C1944 C1949 1.425 . S
C1944 C1951 1.409 . S
C1945 H1937 0.930 . S
C1945 C1943 1.419 . S
C1945 C1946 1.362 . S
C1946 H1938 0.930 . S
C1946 C1945 1.362 . S
C1946 C1949 1.409 . S
C1947 H1939 0.930 . S
C1947 C1948 1.355 . S
C1947 C1949 1.415 . S
C1948 C1947 1.355 . S
C1948 C1950 1.419 . S
C1949 C1944 1.425 . S
C1949 C1946 1.409 . S
C1949 C1947 1.415 . S
C1950 H1940 0.930 . S
C1950 C1948 1.419 . S
C1950 C1951 1.362 . S
C1951 H1941 0.930 . S
C1951 C1944 1.409 . S
C1951 C1950 1.362 . S
H1952 C1958 0.930 . S
H1953 C1961 0.930 . S
H1954 C1962 0.930 . S
H1955 C1963 0.930 . S
H1956 C1966 0.930 . S
H1957 C1967 0.930 . S
C1958 H1952 0.930 . S
C1958 C1959 1.355 . S
C1958 C1960 1.415 . S
C1959 C1958 1.355 . S
C1959 C1961 1.419 . S
C1960 C1958 1.415 . S
C1960 C1965 1.425 . S
C1960 C1967 1.409 . S
C1961 H1953 0.930 . S
C1961 C1959 1.419 . S
C1961 C1962 1.362 . S
C1962 H1954 0.930 . S
C1962 C1961 1.362 . S
C1962 C1965 1.409 . S
C1963 H1955 0.930 . S
C1963 C1964 1.355 . S
C1963 C1965 1.415 . S
C1964 C1963 1.355 . S
C1964 C1966 1.419 . S
C1965 C1960 1.425 . S
C1965 C1962 1.409 . S
C1965 C1963 1.415 . S
C1966 H1956 0.930 . S
C1966 C1964 1.419 . S
C1966 C1967 1.362 . S
C1967 H1957 0.930 . S
C1967 C1960 1.409 . S
C1967 C1966 1.362 . S
H1968 C1974 0.930 . S
H1969 C1977 0.930 . S
H1970 C1978 0.930 . S
H1971 C1979 0.930 . S
H1972 C1982 0.930 . S
H1973 C1983 0.930 . S
C1974 H1968 0.930 . S
C1974 C1975 1.355 1_554 S
C1974 C1976 1.415 . S
C1975 C1974 1.355 1_556 S
C1975 C1977 1.419 . S
C1976 C1974 1.415 . S
C1976 C1981 1.425 . S
C1976 C1983 1.409 . S
C1977 H1969 0.930 . S
C1977 C1975 1.419 . S
C1977 C1978 1.362 1_556 S
C1978 H1970 0.930 . S
C1978 C1977 1.362 1_554 S
C1978 C1981 1.409 . S
C1979 H1971 0.930 . S
C1979 C1980 1.355 . S
C1979 C1981 1.415 . S
C1980 C1979 1.355 . S
C1980 C1982 1.419 . S
C1981 C1976 1.425 . S
C1981 C1978 1.409 . S
C1981 C1979 1.415 . S
C1982 H1972 0.930 . S
C1982 C1980 1.419 . S
C1982 C1983 1.362 . S
C1983 H1973 0.930 . S
C1983 C1976 1.409 . S
C1983 C1982 1.362 . S
H1984 C1990 0.930 . S
H1985 C1993 0.930 . S
H1986 C1994 0.930 . S
H1987 C1995 0.930 . S
H1988 C1998 0.930 . S
H1989 C1999 0.930 . S
C1990 H1984 0.930 . S
C1990 C1991 1.355 1_554 S
C1990 C1992 1.415 . S
C1991 C1990 1.355 1_556 S
C1991 C1993 1.419 . S
C1992 C1990 1.415 . S
C1992 C1997 1.425 . S
C1992 C1999 1.409 . S
C1993 H1985 0.930 . S
C1993 C1991 1.419 . S
C1993 C1994 1.362 1_556 S
C1994 H1986 0.930 . S
C1994 C1993 1.362 1_554 S
C1994 C1997 1.409 . S
C1995 H1987 0.930 . S
C1995 C1996 1.355 . S
C1995 C1997 1.415 . S
C1996 C1995 1.355 . S
C1996 C1998 1.419 . S
C1997 C1992 1.425 . S
C1997 C1994 1.409 . S
C1997 C1995 1.415 . S
C1998 H1988 0.930 . S
C1998 C1996 1.419 . S
C1998 C1999 1.362 . S
C1999 H1989 0.930 . S
C1999 C1992 1.409 . S
C1999 C1998 1.362 . S
H2000 C2006 0.930 . S
H2001 C2009 0.930 . S
H2002 C2010 0.930 . S
H2003 C2011 0.930 . S
H2004 C2014 0.930 . S
H2005 C2015 0.930 . S
C2006 H2000 0.930 . S
C2006 C2007 1.355 1_554 S
C2006 C2008 1.415 . S
C2007 C2006 1.355 1_556 S
C2007 C2009 1.419 . S
C2008 C2006 1.415 . S
C2008 C2013 1.425 . S
C2008 C2015 1.409 . S
C2009 H2001 0.930 . S
C2009 C2007 1.419 . S
C2009 C2010 1.362 1_556 S
C2010 H2002 0.930 . S
C2010 C2009 1.362 1_554 S
C2010 C2013 1.409 . S
C2011 H2003 0.930 . S
C2011 C2012 1.355 . S
C2011 C2013 1.415 . S
C2012 C2011 1.355 . S
C2012 C2014 1.419 . S
C2013 C2008 1.425 . S
C2013 C2010 1.409 . S
C2013 C2011 1.415 . S
C2014 H2004 0.930 . S
C2014 C2012 1.419 . S
C2014 C2015 1.362 . S
C2015 H2005 0.930 . S
C2015 C2008 1.409 . S
C2015 C2014 1.362 . S
H2016 C2022 0.930 . S
H2017 C2025 0.930 . S
H2018 C2026 0.930 . S
H2019 C2027 0.930 . S
H2020 C2030 0.930 . S
H2021 C2031 0.930 . S
C2022 H2016 0.930 . S
C2022 C2023 1.355 . S
C2022 C2024 1.415 . S
C2023 C2022 1.355 . S
C2023 C2025 1.419 . S
C2024 C2022 1.415 . S
C2024 C2029 1.425 . S
C2024 C2031 1.409 1_556 S
C2025 H2017 0.930 . S
C2025 C2023 1.419 . S
C2025 C2026 1.362 . S
C2026 H2018 0.930 . S
C2026 C2025 1.362 . S
C2026 C2029 1.409 . S
C2027 H2019 0.930 . S
C2027 C2028 1.355 . S
C2027 C2029 1.415 1_554 S
C2028 C2027 1.355 . S
C2028 C2030 1.419 . S
C2029 C2024 1.425 . S
C2029 C2026 1.409 . S
C2029 C2027 1.415 1_556 S
C2030 H2020 0.930 . S
C2030 C2028 1.419 . S
C2030 C2031 1.362 . S
C2031 H2021 0.930 . S
C2031 C2024 1.409 1_554 S
C2031 C2030 1.362 . S
H2032 C2038 0.930 . S
H2033 C2041 0.930 . S
H2034 C2042 0.930 . S
H2035 C2043 0.930 . S
H2036 C2046 0.930 . S
H2037 C2047 0.930 . S
C2038 H2032 0.930 . S
C2038 C2039 1.355 . S
C2038 C2040 1.415 . S
C2039 C2038 1.355 . S
C2039 C2041 1.419 . S
C2040 C2038 1.415 . S
C2040 C2045 1.425 1_554 S
C2040 C2047 1.409 . S
C2041 H2033 0.930 . S
C2041 C2039 1.419 . S
C2041 C2042 1.362 1_554 S
C2042 H2034 0.930 . S
C2042 C2041 1.362 1_556 S
C2042 C2045 1.409 . S
C2043 H2035 0.930 . S
C2043 C2044 1.355 . S
C2043 C2045 1.415 . S
C2044 C2043 1.355 . S
C2044 C2046 1.419 . S
C2045 C2040 1.425 1_556 S
C2045 C2042 1.409 . S
C2045 C2043 1.415 . S
C2046 H2036 0.930 . S
C2046 C2044 1.419 . S
C2046 C2047 1.362 1_556 S
C2047 H2037 0.930 . S
C2047 C2040 1.409 . S
C2047 C2046 1.362 1_554 S
H2048 C2054 0.930 . S
H2049 C2057 0.930 . S
H2050 C2058 0.930 . S
H2051 C2059 0.930 . S
H2052 C2062 0.930 . S
H2053 C2063 0.930 . S
C2054 H2048 0.930 . S
C2054 C2055 1.355 . S
C2054 C2056 1.415 1_554 S
C2055 C2054 1.355 . S
C2055 C2057 1.419 . S
C2056 C2054 1.415 1_556 S
C2056 C2061 1.425 . S
C2056 C2063 1.409 . S
C2057 H2049 0.930 . S
C2057 C2055 1.419 . S
C2057 C2058 1.362 . S
C2058 H2050 0.930 . S
C2058 C2057 1.362 . S
C2058 C2061 1.409 1_554 S
C2059 H2051 0.930 . S
C2059 C2060 1.355 . S
C2059 C2061 1.415 . S
C2060 C2059 1.355 . S
C2060 C2062 1.419 . S
C2061 C2056 1.425 . S
C2061 C2058 1.409 1_556 S
C2061 C2059 1.415 . S
C2062 H2052 0.930 . S
C2062 C2060 1.419 . S
C2062 C2063 1.362 . S
C2063 H2053 0.930 . S
C2063 C2056 1.409 . S
C2063 C2062 1.362 . S
H2064 C2070 0.930 . S
H2065 C2073 0.930 . S
H2066 C2074 0.930 . S
H2067 C2075 0.930 . S
H2068 C2078 0.930 . S
H2069 C2079 0.930 . S
C2070 H2064 0.930 . S
C2070 C2071 1.355 . S
C2070 C2072 1.415 . S
C2071 C2070 1.355 . S
C2071 C2073 1.419 . S
C2072 C2070 1.415 . S
C2072 C2077 1.425 . S
C2072 C2079 1.409 . S
C2073 H2065 0.930 . S
C2073 C2071 1.419 . S
C2073 C2074 1.362 . S
C2074 H2066 0.930 . S
C2074 C2073 1.362 . S
C2074 C2077 1.409 . S
C2075 H2067 0.930 . S
C2075 C2076 1.355 . S
C2075 C2077 1.415 . S
C2076 C2075 1.355 . S
C2076 C2078 1.419 . S
C2077 C2072 1.425 . S
C2077 C2074 1.409 . S
C2077 C2075 1.415 . S
C2078 H2068 0.930 . S
C2078 C2076 1.419 . S
C2078 C2079 1.362 . S
C2079 H2069 0.930 . S
C2079 C2072 1.409 . S
C2079 C2078 1.362 . S
H2080 C2086 0.930 . S
H2081 C2089 0.930 . S
H2082 C2090 0.930 . S
H2083 C2091 0.930 . S
H2084 C2094 0.930 . S
H2085 C2095 0.930 . S
C2086 H2080 0.930 . S
C2086 C2087 1.355 . S
C2086 C2088 1.415 . S
C2087 C2086 1.355 . S
C2087 C2089 1.419 . S
C2088 C2086 1.415 . S
C2088 C2093 1.425 . S
C2088 C2095 1.409 . S
C2089 H2081 0.930 . S
C2089 C2087 1.419 . S
C2089 C2090 1.362 . S
C2090 H2082 0.930 . S
C2090 C2089 1.362 . S
C2090 C2093 1.409 . S
C2091 H2083 0.930 . S
C2091 C2092 1.355 . S
C2091 C2093 1.415 . S
C2092 C2091 1.355 . S
C2092 C2094 1.419 . S
C2093 C2088 1.425 . S
C2093 C2090 1.409 . S
C2093 C2091 1.415 . S
C2094 H2084 0.930 . S
C2094 C2092 1.419 . S
C2094 C2095 1.362 . S
C2095 H2085 0.930 . S
C2095 C2088 1.409 . S
C2095 C2094 1.362 . S
H2096 C2102 0.930 . S
H2097 C2105 0.930 . S
H2098 C2106 0.930 . S
H2099 C2107 0.930 . S
H2100 C2110 0.930 . S
H2101 C2111 0.930 . S
C2102 H2096 0.930 . S
C2102 C2103 1.355 . S
C2102 C2104 1.415 . S
C2103 C2102 1.355 . S
C2103 C2105 1.419 . S
C2104 C2102 1.415 . S
C2104 C2109 1.425 . S
C2104 C2111 1.409 . S
C2105 H2097 0.930 . S
C2105 C2103 1.419 . S
C2105 C2106 1.362 . S
C2106 H2098 0.930 . S
C2106 C2105 1.362 . S
C2106 C2109 1.409 . S
C2107 H2099 0.930 . S
C2107 C2108 1.355 . S
C2107 C2109 1.415 . S
C2108 C2107 1.355 . S
C2108 C2110 1.419 . S
C2109 C2104 1.425 . S
C2109 C2106 1.409 . S
C2109 C2107 1.415 . S
C2110 H2100 0.930 . S
C2110 C2108 1.419 . S
C2110 C2111 1.362 . S
C2111 H2101 0.930 . S
C2111 C2104 1.409 . S
C2111 C2110 1.362 . S
H2112 C2118 0.930 . S
H2113 C2121 0.930 . S
H2114 C2122 0.930 . S
H2115 C2123 0.930 . S
H2116 C2126 0.930 . S
H2117 C2127 0.930 . S
C2118 H2112 0.930 . S
C2118 C2119 1.355 . S
C2118 C2120 1.415 . S
C2119 C2118 1.355 . S
C2119 C2121 1.419 . S
C2120 C2118 1.415 . S
C2120 C2125 1.425 . S
C2120 C2127 1.409 . S
C2121 H2113 0.930 . S
C2121 C2119 1.419 . S
C2121 C2122 1.362 . S
C2122 H2114 0.930 . S
C2122 C2121 1.362 . S
C2122 C2125 1.409 . S
C2123 H2115 0.930 . S
C2123 C2124 1.355 . S
C2123 C2125 1.415 . S
C2124 C2123 1.355 . S
C2124 C2126 1.419 . S
C2125 C2120 1.425 . S
C2125 C2122 1.409 . S
C2125 C2123 1.415 . S
C2126 H2116 0.930 . S
C2126 C2124 1.419 . S
C2126 C2127 1.362 . S
C2127 H2117 0.930 . S
C2127 C2120 1.409 . S
C2127 C2126 1.362 . S
H2128 C2134 0.930 . S
H2129 C2137 0.930 . S
H2130 C2138 0.930 . S
H2131 C2139 0.930 . S
H2132 C2142 0.930 . S
H2133 C2143 0.930 . S
C2134 H2128 0.930 . S
C2134 C2135 1.355 . S
C2134 C2136 1.415 . S
C2135 C2134 1.355 . S
C2135 C2137 1.419 . S
C2136 C2134 1.415 . S
C2136 C2141 1.425 . S
C2136 C2143 1.409 . S
C2137 H2129 0.930 . S
C2137 C2135 1.419 . S
C2137 C2138 1.362 . S
C2138 H2130 0.930 . S
C2138 C2137 1.362 . S
C2138 C2141 1.409 . S
C2139 H2131 0.930 . S
C2139 C2140 1.355 . S
C2139 C2141 1.415 . S
C2140 C2139 1.355 . S
C2140 C2142 1.419 . S
C2141 C2136 1.425 . S
C2141 C2138 1.409 . S
C2141 C2139 1.415 . S
C2142 H2132 0.930 . S
C2142 C2140 1.419 . S
C2142 C2143 1.362 . S
C2143 H2133 0.930 . S
C2143 C2136 1.409 . S
C2143 C2142 1.362 . S
H2144 C2150 0.930 . S
H2145 C2153 0.930 . S
H2146 C2154 0.930 . S
H2147 C2155 0.930 . S
H2148 C2158 0.930 . S
H2149 C2159 0.930 . S
C2150 H2144 0.930 . S
C2150 C2151 1.355 . S
C2150 C2152 1.415 . S
C2151 C2150 1.355 . S
C2151 C2153 1.419 . S
C2152 C2150 1.415 . S
C2152 C2157 1.425 . S
C2152 C2159 1.409 . S
C2153 H2145 0.930 . S
C2153 C2151 1.419 . S
C2153 C2154 1.362 . S
C2154 H2146 0.930 . S
C2154 C2153 1.362 . S
C2154 C2157 1.409 . S
C2155 H2147 0.930 . S
C2155 C2156 1.355 . S
C2155 C2157 1.415 . S
C2156 C2155 1.355 . S
C2156 C2158 1.419 . S
C2157 C2152 1.425 . S
C2157 C2154 1.409 . S
C2157 C2155 1.415 . S
C2158 H2148 0.930 . S
C2158 C2156 1.419 . S
C2158 C2159 1.362 . S
C2159 H2149 0.930 . S
C2159 C2152 1.409 . S
C2159 C2158 1.362 . S
H2160 C2166 0.930 . S
H2161 C2169 0.930 . S
H2162 C2170 0.930 . S
H2163 C2171 0.930 . S
H2164 C2174 0.930 . S
H2165 C2175 0.930 . S
C2166 H2160 0.930 . S
C2166 C2167 1.355 . S
C2166 C2168 1.415 . S
C2167 C2166 1.355 . S
C2167 C2169 1.419 . S
C2168 C2166 1.415 . S
C2168 C2173 1.425 . S
C2168 C2175 1.409 . S
C2169 H2161 0.930 . S
C2169 C2167 1.419 . S
C2169 C2170 1.362 . S
C2170 H2162 0.930 . S
C2170 C2169 1.362 . S
C2170 C2173 1.409 . S
C2171 H2163 0.930 . S
C2171 C2172 1.355 . S
C2171 C2173 1.415 . S
C2172 C2171 1.355 . S
C2172 C2174 1.419 . S
C2173 C2168 1.425 . S
C2173 C2170 1.409 . S
C2173 C2171 1.415 . S
C2174 H2164 0.930 . S
C2174 C2172 1.419 . S
C2174 C2175 1.362 . S
C2175 H2165 0.930 . S
C2175 C2168 1.409 . S
C2175 C2174 1.362 . S
H2176 C2182 0.930 . S
H2177 C2185 0.930 . S
H2178 C2186 0.930 . S
H2179 C2187 0.930 . S
H2180 C2190 0.930 . S
H2181 C2191 0.930 . S
C2182 H2176 0.930 . S
C2182 C2183 1.355 . S
C2182 C2184 1.415 . S
C2183 C2182 1.355 . S
C2183 C2185 1.419 . S
C2184 C2182 1.415 . S
C2184 C2189 1.425 . S
C2184 C2191 1.409 . S
C2185 H2177 0.930 . S
C2185 C2183 1.419 . S
C2185 C2186 1.362 . S
C2186 H2178 0.930 . S
C2186 C2185 1.362 . S
C2186 C2189 1.409 . S
C2187 H2179 0.930 . S
C2187 C2188 1.355 . S
C2187 C2189 1.415 . S
C2188 C2187 1.355 . S
C2188 C2190 1.419 . S
C2189 C2184 1.425 . S
C2189 C2186 1.409 . S
C2189 C2187 1.415 . S
C2190 H2180 0.930 . S
C2190 C2188 1.419 . S
C2190 C2191 1.362 . S
C2191 H2181 0.930 . S
C2191 C2184 1.409 . S
C2191 C2190 1.362 . S
H2192 C2198 0.930 . S
H2193 C2201 0.930 . S
H2194 C2202 0.930 . S
H2195 C2203 0.930 . S
H2196 C2206 0.930 . S
H2197 C2207 0.930 . S
C2198 H2192 0.930 . S
C2198 C2199 1.355 . S
C2198 C2200 1.415 . S
C2199 C2198 1.355 . S
C2199 C2201 1.419 . S
C2200 C2198 1.415 . S
C2200 C2205 1.425 . S
C2200 C2207 1.409 . S
C2201 H2193 0.930 . S
C2201 C2199 1.419 . S
C2201 C2202 1.362 . S
C2202 H2194 0.930 . S
C2202 C2201 1.362 . S
C2202 C2205 1.409 . S
C2203 H2195 0.930 . S
C2203 C2204 1.355 . S
C2203 C2205 1.415 . S
C2204 C2203 1.355 . S
C2204 C2206 1.419 . S
C2205 C2200 1.425 . S
C2205 C2202 1.409 . S
C2205 C2203 1.415 . S
C2206 H2196 0.930 . S
C2206 C2204 1.419 . S
C2206 C2207 1.362 . S
C2207 H2197 0.930 . S
C2207 C2200 1.409 . S
C2207 C2206 1.362 . S
H2208 C2214 0.930 . S
H2209 C2217 0.930 . S
H2210 C2218 0.930 . S
H2211 C2219 0.930 . S
H2212 C2222 0.930 . S
H2213 C2223 0.930 . S
C2214 H2208 0.930 . S
C2214 C2215 1.355 . S
C2214 C2216 1.415 . S
C2215 C2214 1.355 . S
C2215 C2217 1.419 . S
C2216 C2214 1.415 . S
C2216 C2221 1.425 . S
C2216 C2223 1.409 . S
C2217 H2209 0.930 . S
C2217 C2215 1.419 . S
C2217 C2218 1.362 . S
C2218 H2210 0.930 . S
C2218 C2217 1.362 . S
C2218 C2221 1.409 . S
C2219 H2211 0.930 . S
C2219 C2220 1.355 . S
C2219 C2221 1.415 . S
C2220 C2219 1.355 . S
C2220 C2222 1.419 . S
C2221 C2216 1.425 . S
C2221 C2218 1.409 . S
C2221 C2219 1.415 . S
C2222 H2212 0.930 . S
C2222 C2220 1.419 . S
C2222 C2223 1.362 . S
C2223 H2213 0.930 . S
C2223 C2216 1.409 . S
C2223 C2222 1.362 . S
H2224 C2230 0.930 . S
H2225 C2233 0.930 . S
H2226 C2234 0.930 . S
H2227 C2235 0.930 . S
H2228 C2238 0.930 . S
H2229 C2239 0.930 . S
C2230 H2224 0.930 . S
C2230 C2231 1.355 . S
C2230 C2232 1.415 . S
C2231 C2230 1.355 . S
C2231 C2233 1.419 . S
C2232 C2230 1.415 . S
C2232 C2237 1.425 . S
C2232 C2239 1.409 . S
C2233 H2225 0.930 . S
C2233 C2231 1.419 . S
C2233 C2234 1.362 . S
C2234 H2226 0.930 . S
C2234 C2233 1.362 . S
C2234 C2237 1.409 . S
C2235 H2227 0.930 . S
C2235 C2236 1.355 . S
C2235 C2237 1.415 . S
C2236 C2235 1.355 . S
C2236 C2238 1.419 . S
C2237 C2232 1.425 . S
C2237 C2234 1.409 . S
C2237 C2235 1.415 . S
C2238 H2228 0.930 . S
C2238 C2236 1.419 . S
C2238 C2239 1.362 . S
C2239 H2229 0.930 . S
C2239 C2232 1.409 . S
C2239 C2238 1.362 . S
H2240 C2246 0.930 . S
H2241 C2249 0.930 . S
H2242 C2250 0.930 . S
H2243 C2251 0.930 . S
H2244 C2254 0.930 . S
H2245 C2255 0.930 . S
C2246 H2240 0.930 . S
C2246 C2247 1.355 . S
C2246 C2248 1.415 . S
C2247 C2246 1.355 . S
C2247 C2249 1.419 . S
C2248 C2246 1.415 . S
C2248 C2253 1.425 . S
C2248 C2255 1.409 . S
C2249 H2241 0.930 . S
C2249 C2247 1.419 . S
C2249 C2250 1.362 . S
C2250 H2242 0.930 . S
C2250 C2249 1.362 . S
C2250 C2253 1.409 . S
C2251 H2243 0.930 . S
C2251 C2252 1.355 . S
C2251 C2253 1.415 . S
C2252 C2251 1.355 . S
C2252 C2254 1.419 . S
C2253 C2248 1.425 . S
C2253 C2250 1.409 . S
C2253 C2251 1.415 . S
C2254 H2244 0.930 . S
C2254 C2252 1.419 . S
C2254 C2255 1.362 . S
C2255 H2245 0.930 . S
C2255 C2248 1.409 . S
C2255 C2254 1.362 . S
H2256 C2262 0.930 . S
H2257 C2265 0.930 . S
H2258 C2266 0.930 . S
H2259 C2267 0.930 . S
H2260 C2270 0.930 . S
H2261 C2271 0.930 . S
C2262 H2256 0.930 . S
C2262 C2263 1.355 . S
C2262 C2264 1.415 . S
C2263 C2262 1.355 . S
C2263 C2265 1.419 . S
C2264 C2262 1.415 . S
C2264 C2269 1.425 . S
C2264 C2271 1.409 . S
C2265 H2257 0.930 . S
C2265 C2263 1.419 . S
C2265 C2266 1.362 . S
C2266 H2258 0.930 . S
C2266 C2265 1.362 . S
C2266 C2269 1.409 . S
C2267 H2259 0.930 . S
C2267 C2268 1.355 . S
C2267 C2269 1.415 . S
C2268 C2267 1.355 . S
C2268 C2270 1.419 . S
C2269 C2264 1.425 . S
C2269 C2266 1.409 . S
C2269 C2267 1.415 . S
C2270 H2260 0.930 . S
C2270 C2268 1.419 . S
C2270 C2271 1.362 . S
C2271 H2261 0.930 . S
C2271 C2264 1.409 . S
C2271 C2270 1.362 . S
H2272 C2278 0.930 . S
H2273 C2281 0.930 . S
H2274 C2282 0.930 . S
H2275 C2283 0.930 . S
H2276 C2286 0.930 . S
H2277 C2287 0.930 . S
C2278 H2272 0.930 . S
C2278 C2279 1.355 . S
C2278 C2280 1.415 . S
C2279 C2278 1.355 . S
C2279 C2281 1.419 . S
C2280 C2278 1.415 . S
C2280 C2285 1.425 . S
C2280 C2287 1.409 . S
C2281 H2273 0.930 . S
C2281 C2279 1.419 . S
C2281 C2282 1.362 . S
C2282 H2274 0.930 . S
C2282 C2281 1.362 . S
C2282 C2285 1.409 . S
C2283 H2275 0.930 . S
C2283 C2284 1.355 . S
C2283 C2285 1.415 . S
C2284 C2283 1.355 . S
C2284 C2286 1.419 . S
C2285 C2280 1.425 . S
C2285 C2282 1.409 . S
C2285 C2283 1.415 . S
C2286 H2276 0.930 . S
C2286 C2284 1.419 . S
C2286 C2287 1.362 . S
C2287 H2277 0.930 . S
C2287 C2280 1.409 . S
C2287 C2286 1.362 . S
H2288 C2294 0.930 . S
H2289 C2297 0.930 . S
H2290 C2298 0.930 . S
H2291 C2299 0.930 . S
H2292 C2302 0.930 . S
H2293 C2303 0.930 . S
C2294 H2288 0.930 . S
C2294 C2295 1.355 . S
C2294 C2296 1.415 . S
C2295 C2294 1.355 . S
C2295 C2297 1.419 . S
C2296 C2294 1.415 . S
C2296 C2301 1.425 . S
C2296 C2303 1.409 . S
C2297 H2289 0.930 . S
C2297 C2295 1.419 . S
C2297 C2298 1.362 . S
C2298 H2290 0.930 . S
C2298 C2297 1.362 . S
C2298 C2301 1.409 . S
C2299 H2291 0.930 . S
C2299 C2300 1.355 . S
C2299 C2301 1.415 . S
C2300 C2299 1.355 . S
C2300 C2302 1.419 . S
C2301 C2296 1.425 . S
C2301 C2298 1.409 . S
C2301 C2299 1.415 . S
C2302 H2292 0.930 . S
C2302 C2300 1.419 . S
C2302 C2303 1.362 . S
C2303 H2293 0.930 . S
C2303 C2296 1.409 . S
C2303 C2302 1.362 . S
H2304 C2310 0.930 . S
H2305 C2313 0.930 . S
H2306 C2314 0.930 . S
H2307 C2315 0.930 . S
H2308 C2318 0.930 . S
H2309 C2319 0.930 . S
C2310 H2304 0.930 . S
C2310 C2311 1.355 . S
C2310 C2312 1.415 . S
C2311 C2310 1.355 . S
C2311 C2313 1.419 . S
C2312 C2310 1.415 . S
C2312 C2317 1.425 . S
C2312 C2319 1.409 . S
C2313 H2305 0.930 . S
C2313 C2311 1.419 . S
C2313 C2314 1.362 . S
C2314 H2306 0.930 . S
C2314 C2313 1.362 . S
C2314 C2317 1.409 . S
C2315 H2307 0.930 . S
C2315 C2316 1.355 . S
C2315 C2317 1.415 . S
C2316 C2315 1.355 . S
C2316 C2318 1.419 . S
C2317 C2312 1.425 . S
C2317 C2314 1.409 . S
C2317 C2315 1.415 . S
C2318 H2308 0.930 . S
C2318 C2316 1.419 . S
C2318 C2319 1.362 . S
C2319 H2309 0.930 . S
C2319 C2312 1.409 . S
C2319 C2318 1.362 . S
H2320 C2326 0.930 . S
H2321 C2329 0.930 . S
H2322 C2330 0.930 . S
H2323 C2331 0.930 . S
H2324 C2334 0.930 . S
H2325 C2335 0.930 . S
C2326 H2320 0.930 . S
C2326 C2327 1.355 . S
C2326 C2328 1.415 . S
C2327 C2326 1.355 . S
C2327 C2329 1.419 . S
C2328 C2326 1.415 . S
C2328 C2333 1.425 . S
C2328 C2335 1.409 . S
C2329 H2321 0.930 . S
C2329 C2327 1.419 . S
C2329 C2330 1.362 . S
C2330 H2322 0.930 . S
C2330 C2329 1.362 . S
C2330 C2333 1.409 . S
C2331 H2323 0.930 . S
C2331 C2332 1.355 . S
C2331 C2333 1.415 . S
C2332 C2331 1.355 . S
C2332 C2334 1.419 . S
C2333 C2328 1.425 . S
C2333 C2330 1.409 . S
C2333 C2331 1.415 . S
C2334 H2324 0.930 . S
C2334 C2332 1.419 . S
C2334 C2335 1.362 . S
C2335 H2325 0.930 . S
C2335 C2328 1.409 . S
C2335 C2334 1.362 . S
H2336 C2342 0.930 . S
H2337 C2345 0.930 . S
H2338 C2346 0.930 . S
H2339 C2347 0.930 . S
H2340 C2350 0.930 . S
H2341 C2351 0.930 . S
C2342 H2336 0.930 . S
C2342 C2343 1.355 . S
C2342 C2344 1.415 . S
C2343 C2342 1.355 . S
C2343 C2345 1.419 . S
C2344 C2342 1.415 . S
C2344 C2349 1.425 . S
C2344 C2351 1.409 . S
C2345 H2337 0.930 . S
C2345 C2343 1.419 . S
C2345 C2346 1.362 . S
C2346 H2338 0.930 . S
C2346 C2345 1.362 . S
C2346 C2349 1.409 . S
C2347 H2339 0.930 . S
C2347 C2348 1.355 . S
C2347 C2349 1.415 . S
C2348 C2347 1.355 . S
C2348 C2350 1.419 . S
C2349 C2344 1.425 . S
C2349 C2346 1.409 . S
C2349 C2347 1.415 . S
C2350 H2340 0.930 . S
C2350 C2348 1.419 . S
C2350 C2351 1.362 . S
C2351 H2341 0.930 . S
C2351 C2344 1.409 . S
C2351 C2350 1.362 . S
H2352 C2358 0.930 . S
H2353 C2361 0.930 . S
H2354 C2362 0.930 . S
H2355 C2363 0.930 . S
H2356 C2366 0.930 . S
H2357 C2367 0.930 . S
C2358 H2352 0.930 . S
C2358 C2359 1.355 . S
C2358 C2360 1.415 . S
C2359 C2358 1.355 . S
C2359 C2361 1.419 . S
C2360 C2358 1.415 . S
C2360 C2365 1.425 . S
C2360 C2367 1.409 . S
C2361 H2353 0.930 . S
C2361 C2359 1.419 . S
C2361 C2362 1.362 . S
C2362 H2354 0.930 . S
C2362 C2361 1.362 . S
C2362 C2365 1.409 . S
C2363 H2355 0.930 . S
C2363 C2364 1.355 . S
C2363 C2365 1.415 . S
C2364 C2363 1.355 . S
C2364 C2366 1.419 . S
C2365 C2360 1.425 . S
C2365 C2362 1.409 . S
C2365 C2363 1.415 . S
C2366 H2356 0.930 . S
C2366 C2364 1.419 . S
C2366 C2367 1.362 . S
C2367 H2357 0.930 . S
C2367 C2360 1.409 . S
C2367 C2366 1.362 . S
H2368 C2374 0.930 . S
H2369 C2377 0.930 . S
H2370 C2378 0.930 . S
H2371 C2379 0.930 . S
H2372 C2382 0.930 . S
H2373 C2383 0.930 . S
C2374 H2368 0.930 . S
C2374 C2375 1.355 . S
C2374 C2376 1.415 . S
C2375 C2374 1.355 . S
C2375 C2377 1.419 . S
C2376 C2374 1.415 . S
C2376 C2381 1.425 . S
C2376 C2383 1.409 . S
C2377 H2369 0.930 . S
C2377 C2375 1.419 . S
C2377 C2378 1.362 . S
C2378 H2370 0.930 . S
C2378 C2377 1.362 . S
C2378 C2381 1.409 . S
C2379 H2371 0.930 . S
C2379 C2380 1.355 . S
C2379 C2381 1.415 . S
C2380 C2379 1.355 . S
C2380 C2382 1.419 . S
C2381 C2376 1.425 . S
C2381 C2378 1.409 . S
C2381 C2379 1.415 . S
C2382 H2372 0.930 . S
C2382 C2380 1.419 . S
C2382 C2383 1.362 . S
C2383 H2373 0.930 . S
C2383 C2376 1.409 . S
C2383 C2382 1.362 . S
H2384 C2390 0.930 . S
H2385 C2393 0.930 . S
H2386 C2394 0.930 . S
H2387 C2395 0.930 . S
H2388 C2398 0.930 . S
H2389 C2399 0.930 . S
C2390 H2384 0.930 . S
C2390 C2391 1.355 . S
C2390 C2392 1.415 . S
C2391 C2390 1.355 . S
C2391 C2393 1.419 . S
C2392 C2390 1.415 . S
C2392 C2397 1.425 . S
C2392 C2399 1.409 . S
C2393 H2385 0.930 . S
C2393 C2391 1.419 . S
C2393 C2394 1.362 . S
C2394 H2386 0.930 . S
C2394 C2393 1.362 . S
C2394 C2397 1.409 . S
C2395 H2387 0.930 . S
C2395 C2396 1.355 . S
C2395 C2397 1.415 . S
C2396 C2395 1.355 . S
C2396 C2398 1.419 . S
C2397 C2392 1.425 . S
C2397 C2394 1.409 . S
C2397 C2395 1.415 . S
C2398 H2388 0.930 . S
C2398 C2396 1.419 . S
C2398 C2399 1.362 . S
C2399 H2389 0.930 . S
C2399 C2392 1.409 . S
C2399 C2398 1.362 . S
H2400 C2406 0.930 . S
H2401 C2409 0.930 . S
H2402 C2410 0.930 . S
H2403 C2411 0.930 . S
H2404 C2414 0.930 . S
H2405 C2415 0.930 . S
C2406 H2400 0.930 . S
C2406 C2407 1.355 . S
C2406 C2408 1.415 . S
C2407 C2406 1.355 . S
C2407 C2409 1.419 . S
C2408 C2406 1.415 . S
C2408 C2413 1.425 . S
C2408 C2415 1.409 . S
C2409 H2401 0.930 . S
C2409 C2407 1.419 . S
C2409 C2410 1.362 . S
C2410 H2402 0.930 . S
C2410 C2409 1.362 . S
C2410 C2413 1.409 . S
C2411 H2403 0.930 . S
C2411 C2412 1.355 . S
C2411 C2413 1.415 . S
C2412 C2411 1.355 . S
C2412 C2414 1.419 . S
C2413 C2408 1.425 . S
C2413 C2410 1.409 . S
C2413 C2411 1.415 . S
C2414 H2404 0.930 . S
C2414 C2412 1.419 . S
C2414 C2415 1.362 . S
C2415 H2405 0.930 . S
C2415 C2408 1.409 . S
C2415 C2414 1.362 . S
H2416 C2422 0.930 . S
H2417 C2425 0.930 . S
H2418 C2426 0.930 . S
H2419 C2427 0.930 . S
H2420 C2430 0.930 . S
H2421 C2431 0.930 . S
C2422 H2416 0.930 . S
C2422 C2423 1.355 . S
C2422 C2424 1.415 . S
C2423 C2422 1.355 . S
C2423 C2425 1.419 . S
C2424 C2422 1.415 . S
C2424 C2429 1.425 . S
C2424 C2431 1.409 . S
C2425 H2417 0.930 . S
C2425 C2423 1.419 . S
C2425 C2426 1.362 . S
C2426 H2418 0.930 . S
C2426 C2425 1.362 . S
C2426 C2429 1.409 . S
C2427 H2419 0.930 . S
C2427 C2428 1.355 . S
C2427 C2429 1.415 . S
C2428 C2427 1.355 . S
C2428 C2430 1.419 . S
C2429 C2424 1.425 . S
C2429 C2426 1.409 . S
C2429 C2427 1.415 . S
C2430 H2420 0.930 . S
C2430 C2428 1.419 . S
C2430 C2431 1.362 . S
C2431 H2421 0.930 . S
C2431 C2424 1.409 . S
C2431 C2430 1.362 . S
H2432 C2438 0.930 . S
H2433 C2441 0.930 . S
H2434 C2442 0.930 . S
H2435 C2443 0.930 . S
H2436 C2446 0.930 . S
H2437 C2447 0.930 . S
C2438 H2432 0.930 . S
C2438 C2439 1.355 . S
C2438 C2440 1.415 . S
C2439 C2438 1.355 . S
C2439 C2441 1.419 . S
C2440 C2438 1.415 . S
C2440 C2445 1.425 . S
C2440 C2447 1.409 . S
C2441 H2433 0.930 . S
C2441 C2439 1.419 . S
C2441 C2442 1.362 . S
C2442 H2434 0.930 . S
C2442 C2441 1.362 . S
C2442 C2445 1.409 . S
C2443 H2435 0.930 . S
C2443 C2444 1.355 . S
C2443 C2445 1.415 . S
C2444 C2443 1.355 . S
C2444 C2446 1.419 . S
C2445 C2440 1.425 . S
C2445 C2442 1.409 . S
C2445 C2443 1.415 . S
C2446 H2436 0.930 . S
C2446 C2444 1.419 . S
C2446 C2447 1.362 . S
C2447 H2437 0.930 . S
C2447 C2440 1.409 . S
C2447 C2446 1.362 . S
H2448 C2454 0.930 . S
H2449 C2457 0.930 . S
H2450 C2458 0.930 . S
H2451 C2459 0.930 . S
H2452 C2462 0.930 . S
H2453 C2463 0.930 . S
C2454 H2448 0.930 . S
C2454 C2455 1.355 . S
C2454 C2456 1.415 . S
C2455 C2454 1.355 . S
C2455 C2457 1.419 . S
C2456 C2454 1.415 . S
C2456 C2461 1.425 . S
C2456 C2463 1.409 . S
C2457 H2449 0.930 . S
C2457 C2455 1.419 . S
C2457 C2458 1.362 . S
C2458 H2450 0.930 . S
C2458 C2457 1.362 . S
C2458 C2461 1.409 . S
C2459 H2451 0.930 . S
C2459 C2460 1.355 . S
C2459 C2461 1.415 . S
C2460 C2459 1.355 . S
C2460 C2462 1.419 . S
C2461 C2456 1.425 . S
C2461 C2458 1.409 . S
C2461 C2459 1.415 . S
C2462 H2452 0.930 . S
C2462 C2460 1.419 . S
C2462 C2463 1.362 . S
C2463 H2453 0.930 . S
C2463 C2456 1.409 . S
C2463 C2462 1.362 . S
H2464 C2470 0.930 . S
H2465 C2473 0.930 . S
H2466 C2474 0.930 . S
H2467 C2475 0.930 . S
H2468 C2478 0.930 . S
H2469 C2479 0.930 . S
C2470 H2464 0.930 . S
C2470 C2471 1.355 . S
C2470 C2472 1.415 . S
C2471 C2470 1.355 . S
C2471 C2473 1.419 . S
C2472 C2470 1.415 . S
C2472 C2477 1.425 . S
C2472 C2479 1.409 . S
C2473 H2465 0.930 . S
C2473 C2471 1.419 . S
C2473 C2474 1.362 . S
C2474 H2466 0.930 . S
C2474 C2473 1.362 . S
C2474 C2477 1.409 . S
C2475 H2467 0.930 . S
C2475 C2476 1.355 . S
C2475 C2477 1.415 . S
C2476 C2475 1.355 . S
C2476 C2478 1.419 . S
C2477 C2472 1.425 . S
C2477 C2474 1.409 . S
C2477 C2475 1.415 . S
C2478 H2468 0.930 . S
C2478 C2476 1.419 . S
C2478 C2479 1.362 . S
C2479 H2469 0.930 . S
C2479 C2472 1.409 . S
C2479 C2478 1.362 . S
H2480 C2486 0.930 . S
H2481 C2489 0.930 . S
H2482 C2490 0.930 . S
H2483 C2491 0.930 . S
H2484 C2494 0.930 . S
H2485 C2495 0.930 . S
C2486 H2480 0.930 . S
C2486 C2487 1.355 . S
C2486 C2488 1.415 . S
C2487 C2486 1.355 . S
C2487 C2489 1.419 . S
C2488 C2486 1.415 . S
C2488 C2493 1.425 . S
C2488 C2495 1.409 . S
C2489 H2481 0.930 . S
C2489 C2487 1.419 . S
C2489 C2490 1.362 . S
C2490 H2482 0.930 . S
C2490 C2489 1.362 . S
C2490 C2493 1.409 . S
C2491 H2483 0.930 . S
C2491 C2492 1.355 . S
C2491 C2493 1.415 . S
C2492 C2491 1.355 . S
C2492 C2494 1.419 . S
C2493 C2488 1.425 . S
C2493 C2490 1.409 . S
C2493 C2491 1.415 . S
C2494 H2484 0.930 . S
C2494 C2492 1.419 . S
C2494 C2495 1.362 . S
C2495 H2485 0.930 . S
C2495 C2488 1.409 . S
C2495 C2494 1.362 . S
H2496 C2502 0.930 . S
H2497 C2505 0.930 . S
H2498 C2506 0.930 . S
H2499 C2507 0.930 . S
H2500 C2510 0.930 . S
H2501 C2511 0.930 . S
C2502 H2496 0.930 . S
C2502 C2503 1.355 . S
C2502 C2504 1.415 . S
C2503 C2502 1.355 . S
C2503 C2505 1.419 . S
C2504 C2502 1.415 . S
C2504 C2509 1.425 . S
C2504 C2511 1.409 . S
C2505 H2497 0.930 . S
C2505 C2503 1.419 . S
C2505 C2506 1.362 . S
C2506 H2498 0.930 . S
C2506 C2505 1.362 . S
C2506 C2509 1.409 . S
C2507 H2499 0.930 . S
C2507 C2508 1.355 . S
C2507 C2509 1.415 . S
C2508 C2507 1.355 . S
C2508 C2510 1.419 . S
C2509 C2504 1.425 . S
C2509 C2506 1.409 . S
C2509 C2507 1.415 . S
C2510 H2500 0.930 . S
C2510 C2508 1.419 . S
C2510 C2511 1.362 . S
C2511 H2501 0.930 . S
C2511 C2504 1.409 . S
C2511 C2510 1.362 . S
H2512 C2518 0.930 . S
H2513 C2521 0.930 . S
H2514 C2522 0.930 . S
H2515 C2523 0.930 . S
H2516 C2526 0.930 . S
H2517 C2527 0.930 . S
C2518 H2512 0.930 . S
C2518 C2519 1.355 . S
C2518 C2520 1.415 . S
C2519 C2518 1.355 . S
C2519 C2521 1.419 . S
C2520 C2518 1.415 . S
C2520 C2525 1.425 . S
C2520 C2527 1.409 . S
C2521 H2513 0.930 . S
C2521 C2519 1.419 . S
C2521 C2522 1.362 . S
C2522 H2514 0.930 . S
C2522 C2521 1.362 . S
C2522 C2525 1.409 . S
C2523 H2515 0.930 . S
C2523 C2524 1.355 . S
C2523 C2525 1.415 . S
C2524 C2523 1.355 . S
C2524 C2526 1.419 . S
C2525 C2520 1.425 . S
C2525 C2522 1.409 . S
C2525 C2523 1.415 . S
C2526 H2516 0.930 . S
C2526 C2524 1.419 . S
C2526 C2527 1.362 . S
C2527 H2517 0.930 . S
C2527 C2520 1.409 . S
C2527 C2526 1.362 . S
H2528 C2534 0.930 . S
H2529 C2537 0.930 . S
H2530 C2538 0.930 . S
H2531 C2539 0.930 . S
H2532 C2542 0.930 1_554 S
H2533 C2543 0.930 . S
C2534 H2528 0.930 . S
C2534 C2535 1.355 . S
C2534 C2536 1.415 . S
C2535 C2534 1.355 . S
C2535 C2537 1.419 . S
C2536 C2534 1.415 . S
C2536 C2541 1.425 . S
C2536 C2543 1.409 . S
C2537 H2529 0.930 . S
C2537 C2535 1.419 . S
C2537 C2538 1.362 . S
C2538 H2530 0.930 . S
C2538 C2537 1.362 . S
C2538 C2541 1.409 . S
C2539 H2531 0.930 . S
C2539 C2540 1.355 . S
C2539 C2541 1.415 . S
C2540 C2539 1.355 . S
C2540 C2542 1.419 . S
C2541 C2536 1.425 . S
C2541 C2538 1.409 . S
C2541 C2539 1.415 . S
C2542 H2532 0.930 1_556 S
C2542 C2540 1.419 . S
C2542 C2543 1.362 . S
C2543 H2533 0.930 . S
C2543 C2536 1.409 . S
C2543 C2542 1.362 . S
H2544 C2550 0.930 . S
H2545 C2553 0.930 . S
H2546 C2554 0.930 . S
H2547 C2555 0.930 . S
H2548 C2558 0.930 . S
H2549 C2559 0.930 . S
C2550 H2544 0.930 . S
C2550 C2551 1.355 . S
C2550 C2552 1.415 . S
C2551 C2550 1.355 . S
C2551 C2553 1.419 . S
C2552 C2550 1.415 . S
C2552 C2557 1.425 . S
C2552 C2559 1.409 . S
C2553 H2545 0.930 . S
C2553 C2551 1.419 . S
C2553 C2554 1.362 . S
C2554 H2546 0.930 . S
C2554 C2553 1.362 . S
C2554 C2557 1.409 . S
C2555 H2547 0.930 . S
C2555 C2556 1.355 . S
C2555 C2557 1.415 . S
C2556 C2555 1.355 . S
C2556 C2558 1.419 . S
C2557 C2552 1.425 . S
C2557 C2554 1.409 . S
C2557 C2555 1.415 . S
C2558 H2548 0.930 . S
C2558 C2556 1.419 . S
C2558 C2559 1.362 . S
C2559 H2549 0.930 . S
C2559 C2552 1.409 . S
C2559 C2558 1.362 . S
H2560 C2566 0.930 . S
H2561 C2569 0.930 . S
H2562 C2570 0.930 . S
H2563 C2571 0.930 . S
H2564 C2574 0.930 . S
H2565 C2575 0.930 . S
C2566 H2560 0.930 . S
C2566 C2567 1.355 . S
C2566 C2568 1.415 . S
C2567 C2566 1.355 . S
C2567 C2569 1.419 . S
C2568 C2566 1.415 . S
C2568 C2573 1.425 . S
C2568 C2575 1.409 . S
C2569 H2561 0.930 . S
C2569 C2567 1.419 . S
C2569 C2570 1.362 . S
C2570 H2562 0.930 . S
C2570 C2569 1.362 . S
C2570 C2573 1.409 . S
C2571 H2563 0.930 . S
C2571 C2572 1.355 . S
C2571 C2573 1.415 . S
C2572 C2571 1.355 . S
C2572 C2574 1.419 . S
C2573 C2568 1.425 . S
C2573 C2570 1.409 . S
C2573 C2571 1.415 . S
C2574 H2564 0.930 . S
C2574 C2572 1.419 . S
C2574 C2575 1.362 . S
C2575 H2565 0.930 . S
C2575 C2568 1.409 . S
C2575 C2574 1.362 . S
H2576 C2582 0.930 . S
H2577 C2585 0.930 . S
H2578 C2586 0.930 . S
H2579 C2587 0.930 . S
H2580 C2590 0.930 . S
H2581 C2591 0.930 . S
C2582 H2576 0.930 . S
C2582 C2583 1.355 . S
C2582 C2584 1.415 . S
C2583 C2582 1.355 . S
C2583 C2585 1.419 . S
C2584 C2582 1.415 . S
C2584 C2589 1.425 . S
C2584 C2591 1.409 . S
C2585 H2577 0.930 . S
C2585 C2583 1.419 . S
C2585 C2586 1.362 . S
C2586 H2578 0.930 . S
C2586 C2585 1.362 . S
C2586 C2589 1.409 . S
C2587 H2579 0.930 . S
C2587 C2588 1.355 . S
C2587 C2589 1.415 . S
C2588 C2587 1.355 . S
C2588 C2590 1.419 . S
C2589 C2584 1.425 . S
C2589 C2586 1.409 . S
C2589 C2587 1.415 . S
C2590 H2580 0.930 . S
C2590 C2588 1.419 . S
C2590 C2591 1.362 . S
C2591 H2581 0.930 . S
C2591 C2584 1.409 . S
C2591 C2590 1.362 . S
H2592 C2598 0.930 1_655 S
H2593 C2601 0.930 . S
H2594 C2602 0.930 . S
H2595 C2603 0.930 1_455 S
H2596 C2606 0.930 . S
H2597 C2607 0.930 . S
C2598 H2592 0.930 1_455 S
C2598 C2599 1.355 . S
C2598 C2600 1.415 1_455 S
C2599 C2598 1.355 . S
C2599 C2601 1.419 . S
C2600 C2598 1.415 1_655 S
C2600 C2605 1.425 1_655 S
C2600 C2607 1.409 . S
C2601 H2593 0.930 . S
C2601 C2599 1.419 . S
C2601 C2602 1.362 . S
C2602 H2594 0.930 . S
C2602 C2601 1.362 . S
C2602 C2605 1.409 . S
C2603 H2595 0.930 1_655 S
C2603 C2604 1.355 . S
C2603 C2605 1.415 1_655 S
C2604 C2603 1.355 . S
C2604 C2606 1.419 . S
C2605 C2600 1.425 1_455 S
C2605 C2602 1.409 . S
C2605 C2603 1.415 1_455 S
C2606 H2596 0.930 . S
C2606 C2604 1.419 . S
C2606 C2607 1.362 . S
C2607 H2597 0.930 . S
C2607 C2600 1.409 . S
C2607 C2606 1.362 . S
H2608 C2614 0.930 . S
H2609 C2617 0.930 . S
H2610 C2618 0.930 . S
H2611 C2619 0.930 . S
H2612 C2622 0.930 . S
H2613 C2623 0.930 . S
C2614 H2608 0.930 . S
C2614 C2615 1.355 . S
C2614 C2616 1.415 . S
C2615 C2614 1.355 . S
C2615 C2617 1.419 . S
C2616 C2614 1.415 . S
C2616 C2621 1.425 . S
C2616 C2623 1.409 . S
C2617 H2609 0.930 . S
C2617 C2615 1.419 . S
C2617 C2618 1.362 . S
C2618 H2610 0.930 . S
C2618 C2617 1.362 . S
C2618 C2621 1.409 . S
C2619 H2611 0.930 . S
C2619 C2620 1.355 . S
C2619 C2621 1.415 . S
C2620 C2619 1.355 . S
C2620 C2622 1.419 . S
C2621 C2616 1.425 . S
C2621 C2618 1.409 . S
C2621 C2619 1.415 . S
C2622 H2612 0.930 . S
C2622 C2620 1.419 . S
C2622 C2623 1.362 . S
C2623 H2613 0.930 . S
C2623 C2616 1.409 . S
C2623 C2622 1.362 . S
H2624 C2630 0.930 1_545 S
H2625 C2633 0.930 . S
H2626 C2634 0.930 . S
H2627 C2635 0.930 1_565 S
H2628 C2638 0.930 . S
H2629 C2639 0.930 . S
C2630 H2624 0.930 1_565 S
C2630 C2631 1.355 . S
C2630 C2632 1.415 1_565 S
C2631 C2630 1.355 . S
C2631 C2633 1.419 . S
C2632 C2630 1.415 1_545 S
C2632 C2637 1.425 1_545 S
C2632 C2639 1.409 . S
C2633 H2625 0.930 . S
C2633 C2631 1.419 . S
C2633 C2634 1.362 . S
C2634 H2626 0.930 . S
C2634 C2633 1.362 . S
C2634 C2637 1.409 . S
C2635 H2627 0.930 1_545 S
C2635 C2636 1.355 . S
C2635 C2637 1.415 1_545 S
C2636 C2635 1.355 . S
C2636 C2638 1.419 . S
C2637 C2632 1.425 1_565 S
C2637 C2634 1.409 . S
C2637 C2635 1.415 1_565 S
C2638 H2628 0.930 . S
C2638 C2636 1.419 . S
C2638 C2639 1.362 . S
C2639 H2629 0.930 . S
C2639 C2632 1.409 . S
C2639 C2638 1.362 . S
H2640 C2646 0.930 1_455 S
H2641 C2649 0.930 . S
H2642 C2650 0.930 . S
H2643 C2651 0.930 1_655 S
H2644 C2654 0.930 . S
H2645 C2655 0.930 . S
C2646 H2640 0.930 1_655 S
C2646 C2647 1.355 . S
C2646 C2648 1.415 1_655 S
C2647 C2646 1.355 . S
C2647 C2649 1.419 . S
C2648 C2646 1.415 1_455 S
C2648 C2653 1.425 1_455 S
C2648 C2655 1.409 . S
C2649 H2641 0.930 . S
C2649 C2647 1.419 . S
C2649 C2650 1.362 . S
C2650 H2642 0.930 . S
C2650 C2649 1.362 . S
C2650 C2653 1.409 . S
C2651 H2643 0.930 1_455 S
C2651 C2652 1.355 . S
C2651 C2653 1.415 1_455 S
C2652 C2651 1.355 . S
C2652 C2654 1.419 . S
C2653 C2648 1.425 1_655 S
C2653 C2650 1.409 . S
C2653 C2651 1.415 1_655 S
C2654 H2644 0.930 . S
C2654 C2652 1.419 . S
C2654 C2655 1.362 . S
C2655 H2645 0.930 . S
C2655 C2648 1.409 . S
C2655 C2654 1.362 . S
H2656 C2662 0.930 . S
H2657 C2665 0.930 . S
H2658 C2666 0.930 . S
H2659 C2667 0.930 . S
H2660 C2670 0.930 . S
H2661 C2671 0.930 . S
C2662 H2656 0.930 . S
C2662 C2663 1.355 . S
C2662 C2664 1.415 . S
C2663 C2662 1.355 . S
C2663 C2665 1.419 . S
C2664 C2662 1.415 . S
C2664 C2669 1.425 . S
C2664 C2671 1.409 . S
C2665 H2657 0.930 . S
C2665 C2663 1.419 . S
C2665 C2666 1.362 . S
C2666 H2658 0.930 . S
C2666 C2665 1.362 . S
C2666 C2669 1.409 . S
C2667 H2659 0.930 . S
C2667 C2668 1.355 . S
C2667 C2669 1.415 . S
C2668 C2667 1.355 . S
C2668 C2670 1.419 . S
C2669 C2664 1.425 . S
C2669 C2666 1.409 . S
C2669 C2667 1.415 . S
C2670 H2660 0.930 . S
C2670 C2668 1.419 . S
C2670 C2671 1.362 . S
C2671 H2661 0.930 . S
C2671 C2664 1.409 . S
C2671 C2670 1.362 . S
H2672 C2678 0.930 1_565 S
H2673 C2681 0.930 . S
H2674 C2682 0.930 . S
H2675 C2683 0.930 1_545 S
H2676 C2686 0.930 . S
H2677 C2687 0.930 . S
C2678 H2672 0.930 1_545 S
C2678 C2679 1.355 . S
C2678 C2680 1.415 1_545 S
C2679 C2678 1.355 . S
C2679 C2681 1.419 . S
C2680 C2678 1.415 1_565 S
C2680 C2685 1.425 1_565 S
C2680 C2687 1.409 . S
C2681 H2673 0.930 . S
C2681 C2679 1.419 . S
C2681 C2682 1.362 . S
C2682 H2674 0.930 . S
C2682 C2681 1.362 . S
C2682 C2685 1.409 . S
C2683 H2675 0.930 1_565 S
C2683 C2684 1.355 . S
C2683 C2685 1.415 1_565 S
C2684 C2683 1.355 . S
C2684 C2686 1.419 . S
C2685 C2680 1.425 1_545 S
C2685 C2682 1.409 . S
C2685 C2683 1.415 1_545 S
C2686 H2676 0.930 . S
C2686 C2684 1.419 . S
C2686 C2687 1.362 . S
C2687 H2677 0.930 . S
C2687 C2680 1.409 . S
C2687 C2686 1.362 . S
H2688 C2694 0.930 . S
H2689 C2697 0.930 . S
H2690 C2698 0.930 . S
H2691 C2699 0.930 . S
H2692 C2702 0.930 . S
H2693 C2703 0.930 . S
C2694 H2688 0.930 . S
C2694 C2695 1.355 . S
C2694 C2696 1.415 . S
C2695 C2694 1.355 . S
C2695 C2697 1.419 . S
C2696 C2694 1.415 . S
C2696 C2701 1.425 . S
C2696 C2703 1.409 . S
C2697 H2689 0.930 . S
C2697 C2695 1.419 . S
C2697 C2698 1.362 . S
C2698 H2690 0.930 . S
C2698 C2697 1.362 . S
C2698 C2701 1.409 . S
C2699 H2691 0.930 . S
C2699 C2700 1.355 . S
C2699 C2701 1.415 . S
C2700 C2699 1.355 . S
C2700 C2702 1.419 . S
C2701 C2696 1.425 . S
C2701 C2698 1.409 . S
C2701 C2699 1.415 . S
C2702 H2692 0.930 . S
C2702 C2700 1.419 . S
C2702 C2703 1.362 . S
C2703 H2693 0.930 . S
C2703 C2696 1.409 . S
C2703 C2702 1.362 . S
H2704 C2710 0.930 . S
H2705 C2713 0.930 . S
H2706 C2714 0.930 . S
H2707 C2715 0.930 . S
H2708 C2718 0.930 . S
H2709 C2719 0.930 . S
C2710 H2704 0.930 . S
C2710 C2711 1.355 . S
C2710 C2712 1.415 . S
C2711 C2710 1.355 . S
C2711 C2713 1.419 . S
C2712 C2710 1.415 . S
C2712 C2717 1.425 . S
C2712 C2719 1.409 . S
C2713 H2705 0.930 . S
C2713 C2711 1.419 . S
C2713 C2714 1.362 . S
C2714 H2706 0.930 . S
C2714 C2713 1.362 . S
C2714 C2717 1.409 . S
C2715 H2707 0.930 . S
C2715 C2716 1.355 . S
C2715 C2717 1.415 . S
C2716 C2715 1.355 . S
C2716 C2718 1.419 . S
C2717 C2712 1.425 . S
C2717 C2714 1.409 . S
C2717 C2715 1.415 . S
C2718 H2708 0.930 . S
C2718 C2716 1.419 . S
C2718 C2719 1.362 . S
C2719 H2709 0.930 . S
C2719 C2712 1.409 . S
C2719 C2718 1.362 . S
H2720 C2726 0.930 . S
H2721 C2729 0.930 . S
H2722 C2730 0.930 . S
H2723 C2731 0.930 . S
H2724 C2734 0.930 . S
H2725 C2735 0.930 . S
C2726 H2720 0.930 . S
C2726 C2727 1.355 . S
C2726 C2728 1.415 . S
C2727 C2726 1.355 . S
C2727 C2729 1.419 . S
C2728 C2726 1.415 . S
C2728 C2733 1.425 . S
C2728 C2735 1.409 . S
C2729 H2721 0.930 . S
C2729 C2727 1.419 . S
C2729 C2730 1.362 . S
C2730 H2722 0.930 . S
C2730 C2729 1.362 . S
C2730 C2733 1.409 . S
C2731 H2723 0.930 . S
C2731 C2732 1.355 . S
C2731 C2733 1.415 . S
C2732 C2731 1.355 . S
C2732 C2734 1.419 . S
C2733 C2728 1.425 . S
C2733 C2730 1.409 . S
C2733 C2731 1.415 . S
C2734 H2724 0.930 . S
C2734 C2732 1.419 . S
C2734 C2735 1.362 . S
C2735 H2725 0.930 . S
C2735 C2728 1.409 . S
C2735 C2734 1.362 . S
H2736 C2742 0.930 . S
H2737 C2745 0.930 . S
H2738 C2746 0.930 . S
H2739 C2747 0.930 . S
H2740 C2750 0.930 . S
H2741 C2751 0.930 . S
C2742 H2736 0.930 . S
C2742 C2743 1.355 . S
C2742 C2744 1.415 . S
C2743 C2742 1.355 . S
C2743 C2745 1.419 . S
C2744 C2742 1.415 . S
C2744 C2749 1.425 . S
C2744 C2751 1.409 . S
C2745 H2737 0.930 . S
C2745 C2743 1.419 . S
C2745 C2746 1.362 . S
C2746 H2738 0.930 . S
C2746 C2745 1.362 . S
C2746 C2749 1.409 . S
C2747 H2739 0.930 . S
C2747 C2748 1.355 . S
C2747 C2749 1.415 . S
C2748 C2747 1.355 . S
C2748 C2750 1.419 . S
C2749 C2744 1.425 . S
C2749 C2746 1.409 . S
C2749 C2747 1.415 . S
C2750 H2740 0.930 . S
C2750 C2748 1.419 . S
C2750 C2751 1.362 . S
C2751 H2741 0.930 . S
C2751 C2744 1.409 . S
C2751 C2750 1.362 . S
H2752 C2758 0.930 . S
H2753 C2761 0.930 . S
H2754 C2762 0.930 . S
H2755 C2763 0.930 . S
H2756 C2766 0.930 . S
H2757 C2767 0.930 . S
C2758 H2752 0.930 . S
C2758 C2759 1.355 . S
C2758 C2760 1.415 . S
C2759 C2758 1.355 . S
C2759 C2761 1.419 . S
C2760 C2758 1.415 . S
C2760 C2765 1.425 . S
C2760 C2767 1.409 . S
C2761 H2753 0.930 . S
C2761 C2759 1.419 . S
C2761 C2762 1.362 . S
C2762 H2754 0.930 . S
C2762 C2761 1.362 . S
C2762 C2765 1.409 . S
C2763 H2755 0.930 . S
C2763 C2764 1.355 . S
C2763 C2765 1.415 . S
C2764 C2763 1.355 . S
C2764 C2766 1.419 . S
C2765 C2760 1.425 . S
C2765 C2762 1.409 . S
C2765 C2763 1.415 . S
C2766 H2756 0.930 . S
C2766 C2764 1.419 . S
C2766 C2767 1.362 . S
C2767 H2757 0.930 . S
C2767 C2760 1.409 . S
C2767 C2766 1.362 . S
H2768 C2774 0.930 . S
H2769 C2777 0.930 . S
H2770 C2778 0.930 . S
H2771 C2779 0.930 . S
H2772 C2782 0.930 . S
H2773 C2783 0.930 . S
C2774 H2768 0.930 . S
C2774 C2775 1.355 . S
C2774 C2776 1.415 . S
C2775 C2774 1.355 . S
C2775 C2777 1.419 . S
C2776 C2774 1.415 . S
C2776 C2781 1.425 . S
C2776 C2783 1.409 . S
C2777 H2769 0.930 . S
C2777 C2775 1.419 . S
C2777 C2778 1.362 . S
C2778 H2770 0.930 . S
C2778 C2777 1.362 . S
C2778 C2781 1.409 . S
C2779 H2771 0.930 . S
C2779 C2780 1.355 . S
C2779 C2781 1.415 . S
C2780 C2779 1.355 . S
C2780 C2782 1.419 . S
C2781 C2776 1.425 . S
C2781 C2778 1.409 . S
C2781 C2779 1.415 . S
C2782 H2772 0.930 . S
C2782 C2780 1.419 . S
C2782 C2783 1.362 . S
C2783 H2773 0.930 . S
C2783 C2776 1.409 . S
C2783 C2782 1.362 . S
H2784 C2790 0.930 . S
H2785 C2793 0.930 . S
H2786 C2794 0.930 . S
H2787 C2795 0.930 . S
H2788 C2798 0.930 . S
H2789 C2799 0.930 . S
C2790 H2784 0.930 . S
C2790 C2791 1.355 . S
C2790 C2792 1.415 . S
C2791 C2790 1.355 . S
C2791 C2793 1.419 . S
C2792 C2790 1.415 . S
C2792 C2797 1.425 . S
C2792 C2799 1.409 . S
C2793 H2785 0.930 . S
C2793 C2791 1.419 . S
C2793 C2794 1.362 . S
C2794 H2786 0.930 . S
C2794 C2793 1.362 . S
C2794 C2797 1.409 . S
C2795 H2787 0.930 . S
C2795 C2796 1.355 . S
C2795 C2797 1.415 1_556 S
C2796 C2795 1.355 . S
C2796 C2798 1.419 . S
C2797 C2792 1.425 . S
C2797 C2794 1.409 . S
C2797 C2795 1.415 1_554 S
C2798 H2788 0.930 . S
C2798 C2796 1.419 . S
C2798 C2799 1.362 1_556 S
C2799 H2789 0.930 . S
C2799 C2792 1.409 . S
C2799 C2798 1.362 1_554 S
H2800 C2806 0.930 . S
H2801 C2809 0.930 . S
H2802 C2810 0.930 . S
H2803 C2811 0.930 . S
H2804 C2814 0.930 . S
H2805 C2815 0.930 . S
C2806 H2800 0.930 . S
C2806 C2807 1.355 1_554 S
C2806 C2808 1.415 . S
C2807 C2806 1.355 1_556 S
C2807 C2809 1.419 . S
C2808 C2806 1.415 . S
C2808 C2813 1.425 . S
C2808 C2815 1.409 . S
C2809 H2801 0.930 . S
C2809 C2807 1.419 . S
C2809 C2810 1.362 . S
C2810 H2802 0.930 . S
C2810 C2809 1.362 . S
C2810 C2813 1.409 1_556 S
C2811 H2803 0.930 . S
C2811 C2812 1.355 . S
C2811 C2813 1.415 . S
C2812 C2811 1.355 . S
C2812 C2814 1.419 . S
C2813 C2808 1.425 . S
C2813 C2810 1.409 1_554 S
C2813 C2811 1.415 . S
C2814 H2804 0.930 . S
C2814 C2812 1.419 . S
C2814 C2815 1.362 . S
C2815 H2805 0.930 . S
C2815 C2808 1.409 . S
C2815 C2814 1.362 . S
H2816 C2822 0.930 . S
H2817 C2825 0.929 1_556 S
H2818 C2826 0.930 . S
H2819 C2827 0.930 . S
H2820 C2830 0.930 . S
H2821 C2831 0.930 . S
C2822 H2816 0.930 . S
C2822 C2823 1.355 . S
C2822 C2824 1.415 1_556 S
C2823 C2822 1.355 . S
C2823 C2825 1.419 1_556 S
C2824 C2822 1.415 1_554 S
C2824 C2829 1.425 . S
C2824 C2831 1.409 . S
C2825 H2817 0.929 1_554 S
C2825 C2823 1.419 1_554 S
C2825 C2826 1.362 . S
C2826 H2818 0.930 . S
C2826 C2825 1.362 . S
C2826 C2829 1.409 . S
C2827 H2819 0.930 . S
C2827 C2828 1.355 . S
C2827 C2829 1.415 . S
C2828 C2827 1.355 . S
C2828 C2830 1.419 . S
C2829 C2824 1.425 . S
C2829 C2826 1.409 . S
C2829 C2827 1.415 . S
C2830 H2820 0.930 . S
C2830 C2828 1.419 . S
C2830 C2831 1.362 . S
C2831 H2821 0.930 . S
C2831 C2824 1.409 . S
C2831 C2830 1.362 . S
H2832 C2838 0.930 . S
H2833 C2841 0.930 . S
H2834 C2842 0.930 . S
H2835 C2843 0.930 . S
H2836 C2846 0.930 . S
H2837 C2847 0.930 . S
C2838 H2832 0.930 . S
C2838 C2839 1.355 . S
C2838 C2840 1.415 . S
C2839 C2838 1.355 . S
C2839 C2841 1.419 . S
C2840 C2838 1.415 . S
C2840 C2845 1.425 . S
C2840 C2847 1.409 . S
C2841 H2833 0.930 . S
C2841 C2839 1.419 . S
C2841 C2842 1.362 . S
C2842 H2834 0.930 . S
C2842 C2841 1.362 . S
C2842 C2845 1.409 . S
C2843 H2835 0.930 . S
C2843 C2844 1.355 . S
C2843 C2845 1.415 . S
C2844 C2843 1.355 . S
C2844 C2846 1.419 . S
C2845 C2840 1.425 . S
C2845 C2842 1.409 . S
C2845 C2843 1.415 . S
C2846 H2836 0.930 . S
C2846 C2844 1.419 . S
C2846 C2847 1.362 . S
C2847 H2837 0.930 . S
C2847 C2840 1.409 . S
C2847 C2846 1.362 . S
H2848 C2854 0.930 . S
H2849 C2857 0.930 . S
H2850 C2858 0.930 . S
H2851 C2859 0.930 . S
H2852 C2862 0.930 . S
H2853 C2863 0.930 . S
C2854 H2848 0.930 . S
C2854 C2855 1.355 . S
C2854 C2856 1.415 . S
C2855 C2854 1.355 . S
C2855 C2857 1.419 . S
C2856 C2854 1.415 . S
C2856 C2861 1.425 . S
C2856 C2863 1.409 . S
C2857 H2849 0.930 . S
C2857 C2855 1.419 . S
C2857 C2858 1.362 . S
C2858 H2850 0.930 . S
C2858 C2857 1.362 . S
C2858 C2861 1.409 . S
C2859 H2851 0.930 . S
C2859 C2860 1.355 . S
C2859 C2861 1.415 . S
C2860 C2859 1.355 . S
C2860 C2862 1.419 . S
C2861 C2856 1.425 . S
C2861 C2858 1.409 . S
C2861 C2859 1.415 . S
C2862 H2852 0.930 . S
C2862 C2860 1.419 . S
C2862 C2863 1.362 . S
C2863 H2853 0.930 . S
C2863 C2856 1.409 . S
C2863 C2862 1.362 . S
H2864 C2870 0.930 . S
H2865 C2873 0.930 . S
H2866 C2874 0.930 . S
H2867 C2875 0.930 . S
H2868 C2878 0.930 . S
H2869 C2879 0.930 . S
C2870 H2864 0.930 . S
C2870 C2871 1.355 . S
C2870 C2872 1.415 . S
C2871 C2870 1.355 . S
C2871 C2873 1.419 . S
C2872 C2870 1.415 . S
C2872 C2877 1.425 . S
C2872 C2879 1.409 . S
C2873 H2865 0.930 . S
C2873 C2871 1.419 . S
C2873 C2874 1.362 . S
C2874 H2866 0.930 . S
C2874 C2873 1.362 . S
C2874 C2877 1.409 . S
C2875 H2867 0.930 . S
C2875 C2876 1.355 . S
C2875 C2877 1.415 . S
C2876 C2875 1.355 . S
C2876 C2878 1.419 . S
C2877 C2872 1.425 . S
C2877 C2874 1.409 . S
C2877 C2875 1.415 . S
C2878 H2868 0.930 . S
C2878 C2876 1.419 . S
C2878 C2879 1.362 . S
C2879 H2869 0.930 . S
C2879 C2872 1.409 . S
C2879 C2878 1.362 . S
H2880 C2886 0.930 . S
H2881 C2889 0.930 . S
H2882 C2890 0.930 . S
H2883 C2891 0.930 . S
H2884 C2894 0.930 . S
H2885 C2895 0.930 . S
C2886 H2880 0.930 . S
C2886 C2887 1.355 . S
C2886 C2888 1.415 1_455 S
C2887 C2886 1.355 . S
C2887 C2889 1.419 . S
C2888 C2886 1.415 1_655 S
C2888 C2893 1.425 1_655 S
C2888 C2895 1.409 . S
C2889 H2881 0.930 . S
C2889 C2887 1.419 . S
C2889 C2890 1.362 . S
C2890 H2882 0.930 . S
C2890 C2889 1.362 . S
C2890 C2893 1.409 . S
C2891 H2883 0.930 . S
C2891 C2892 1.355 . S
C2891 C2893 1.415 1_655 S
C2892 C2891 1.355 . S
C2892 C2894 1.419 . S
C2893 C2888 1.425 1_455 S
C2893 C2890 1.409 . S
C2893 C2891 1.415 1_455 S
C2894 H2884 0.930 . S
C2894 C2892 1.419 . S
C2894 C2895 1.362 . S
C2895 H2885 0.930 . S
C2895 C2888 1.409 . S
C2895 C2894 1.362 . S
H2896 C2902 0.930 . S
H2897 C2905 0.930 . S
H2898 C2906 0.930 . S
H2899 C2907 0.930 . S
H2900 C2910 0.930 . S
H2901 C2911 0.930 . S
C2902 H2896 0.930 . S
C2902 C2903 1.355 . S
C2902 C2904 1.415 . S
C2903 C2902 1.355 . S
C2903 C2905 1.419 . S
C2904 C2902 1.415 . S
C2904 C2909 1.425 . S
C2904 C2911 1.409 . S
C2905 H2897 0.930 . S
C2905 C2903 1.419 . S
C2905 C2906 1.362 . S
C2906 H2898 0.930 . S
C2906 C2905 1.362 . S
C2906 C2909 1.409 . S
C2907 H2899 0.930 . S
C2907 C2908 1.355 . S
C2907 C2909 1.415 . S
C2908 C2907 1.355 . S
C2908 C2910 1.419 . S
C2909 C2904 1.425 . S
C2909 C2906 1.409 . S
C2909 C2907 1.415 . S
C2910 H2900 0.930 . S
C2910 C2908 1.419 . S
C2910 C2911 1.362 . S
C2911 H2901 0.930 . S
C2911 C2904 1.409 . S
C2911 C2910 1.362 . S
H2912 C2918 0.930 . S
H2913 C2921 0.930 . S
H2914 C2922 0.930 . S
H2915 C2923 0.930 . S
H2916 C2926 0.930 . S
H2917 C2927 0.930 . S
C2918 H2912 0.930 . S
C2918 C2919 1.355 . S
C2918 C2920 1.415 . S
C2919 C2918 1.355 . S
C2919 C2921 1.419 . S
C2920 C2918 1.415 . S
C2920 C2925 1.425 1_545 S
C2920 C2927 1.409 1_545 S
C2921 H2913 0.930 . S
C2921 C2919 1.419 . S
C2921 C2922 1.362 . S
C2922 H2914 0.930 . S
C2922 C2921 1.362 . S
C2922 C2925 1.409 1_545 S
C2923 H2915 0.930 . S
C2923 C2924 1.355 . S
C2923 C2925 1.415 . S
C2924 C2923 1.355 . S
C2924 C2926 1.419 . S
C2925 C2920 1.425 1_565 S
C2925 C2922 1.409 1_565 S
C2925 C2923 1.415 . S
C2926 H2916 0.930 . S
C2926 C2924 1.419 . S
C2926 C2927 1.362 . S
C2927 H2917 0.930 . S
C2927 C2920 1.409 1_565 S
C2927 C2926 1.362 . S
H2928 C2934 0.930 . S
H2929 C2937 0.930 . S
H2930 C2938 0.930 . S
H2931 C2939 0.930 . S
H2932 C2942 0.930 . S
H2933 C2943 0.930 . S
C2934 H2928 0.930 . S
C2934 C2935 1.355 . S
C2934 C2936 1.415 1_565 S
C2935 C2934 1.355 . S
C2935 C2937 1.419 . S
C2936 C2934 1.415 1_545 S
C2936 C2941 1.425 1_545 S
C2936 C2943 1.409 . S
C2937 H2929 0.930 . S
C2937 C2935 1.419 . S
C2937 C2938 1.362 . S
C2938 H2930 0.930 . S
C2938 C2937 1.362 . S
C2938 C2941 1.409 . S
C2939 H2931 0.930 . S
C2939 C2940 1.355 . S
C2939 C2941 1.415 1_545 S
C2940 C2939 1.355 . S
C2940 C2942 1.419 . S
C2941 C2936 1.425 1_565 S
C2941 C2938 1.409 . S
C2941 C2939 1.415 1_565 S
C2942 H2932 0.930 . S
C2942 C2940 1.419 . S
C2942 C2943 1.362 . S
C2943 H2933 0.930 . S
C2943 C2936 1.409 . S
C2943 C2942 1.362 . S
H2944 C2950 0.930 . S
H2945 C2953 0.930 . S
H2946 C2954 0.930 . S
H2947 C2955 0.930 . S
H2948 C2958 0.930 . S
H2949 C2959 0.930 . S
C2950 H2944 0.930 . S
C2950 C2951 1.355 . S
C2950 C2952 1.415 . S
C2951 C2950 1.355 . S
C2951 C2953 1.419 . S
C2952 C2950 1.415 . S
C2952 C2957 1.425 1_655 S
C2952 C2959 1.409 . S
C2953 H2945 0.930 . S
C2953 C2951 1.419 . S
C2953 C2954 1.362 1_655 S
C2954 H2946 0.930 . S
C2954 C2953 1.362 1_455 S
C2954 C2957 1.409 . S
C2955 H2947 0.930 . S
C2955 C2956 1.355 . S
C2955 C2957 1.415 . S
C2956 C2955 1.355 . S
C2956 C2958 1.419 . S
C2957 C2952 1.425 1_455 S
C2957 C2954 1.409 . S
C2957 C2955 1.415 . S
C2958 H2948 0.930 . S
C2958 C2956 1.419 . S
C2958 C2959 1.362 1_455 S
C2959 H2949 0.930 . S
C2959 C2952 1.409 . S
C2959 C2958 1.362 1_655 S
H2960 C2966 0.930 . S
H2961 C2969 0.930 . S
H2962 C2970 0.930 . S
H2963 C2971 0.930 . S
H2964 C2974 0.930 . S
H2965 C2975 0.930 . S
C2966 H2960 0.930 . S
C2966 C2967 1.355 . S
C2966 C2968 1.415 . S
C2967 C2966 1.355 . S
C2967 C2969 1.419 . S
C2968 C2966 1.415 . S
C2968 C2973 1.425 . S
C2968 C2975 1.409 . S
C2969 H2961 0.930 . S
C2969 C2967 1.419 . S
C2969 C2970 1.362 . S
C2970 H2962 0.930 . S
C2970 C2969 1.362 . S
C2970 C2973 1.409 . S
C2971 H2963 0.930 . S
C2971 C2972 1.355 . S
C2971 C2973 1.415 . S
C2972 C2971 1.355 . S
C2972 C2974 1.419 . S
C2973 C2968 1.425 . S
C2973 C2970 1.409 . S
C2973 C2971 1.415 . S
C2974 H2964 0.930 . S
C2974 C2972 1.419 . S
C2974 C2975 1.362 . S
C2975 H2965 0.930 . S
C2975 C2968 1.409 . S
C2975 C2974 1.362 . S
H2976 C2982 0.930 . S
H2977 C2985 0.930 . S
H2978 C2986 0.930 . S
H2979 C2987 0.930 . S
H2980 C2990 0.930 . S
H2981 C2991 0.930 . S
C2982 H2976 0.930 . S
C2982 C2983 1.355 . S
C2982 C2984 1.415 . S
C2983 C2982 1.355 . S
C2983 C2985 1.419 . S
C2984 C2982 1.415 . S
C2984 C2989 1.425 . S
C2984 C2991 1.409 . S
C2985 H2977 0.930 . S
C2985 C2983 1.419 . S
C2985 C2986 1.362 . S
C2986 H2978 0.930 . S
C2986 C2985 1.362 . S
C2986 C2989 1.409 . S
C2987 H2979 0.930 . S
C2987 C2988 1.355 . S
C2987 C2989 1.415 . S
C2988 C2987 1.355 . S
C2988 C2990 1.419 . S
C2989 C2984 1.425 . S
C2989 C2986 1.409 . S
C2989 C2987 1.415 . S
C2990 H2980 0.930 . S
C2990 C2988 1.419 . S
C2990 C2991 1.362 . S
C2991 H2981 0.930 . S
C2991 C2984 1.409 . S
C2991 C2990 1.362 . S
H2992 C2998 0.930 . S
H2993 C3001 0.930 . S
H2994 C3002 0.930 . S
H2995 C3003 0.930 . S
H2996 C3006 0.930 . S
H2997 C3007 0.930 . S
C2998 H2992 0.930 . S
C2998 C2999 1.355 . S
C2998 C3000 1.415 . S
C2999 C2998 1.355 . S
C2999 C3001 1.419 . S
C3000 C2998 1.415 . S
C3000 C3005 1.425 . S
C3000 C3007 1.409 . S
C3001 H2993 0.930 . S
C3001 C2999 1.419 . S
C3001 C3002 1.362 . S
C3002 H2994 0.930 . S
C3002 C3001 1.362 . S
C3002 C3005 1.409 . S
C3003 H2995 0.930 . S
C3003 C3004 1.355 . S
C3003 C3005 1.415 . S
C3004 C3003 1.355 . S
C3004 C3006 1.419 . S
C3005 C3000 1.425 . S
C3005 C3002 1.409 . S
C3005 C3003 1.415 . S
C3006 H2996 0.930 . S
C3006 C3004 1.419 . S
C3006 C3007 1.362 . S
C3007 H2997 0.930 . S
C3007 C3000 1.409 . S
C3007 C3006 1.362 . S
H3008 C3014 0.930 . S
H3009 C3017 0.930 . S
H3010 C3018 0.930 . S
H3011 C3019 0.930 . S
H3012 C3022 0.930 . S
H3013 C3023 0.930 . S
C3014 H3008 0.930 . S
C3014 C3015 1.355 . S
C3014 C3016 1.415 . S
C3015 C3014 1.355 . S
C3015 C3017 1.419 . S
C3016 C3014 1.415 . S
C3016 C3021 1.425 . S
C3016 C3023 1.409 . S
C3017 H3009 0.930 . S
C3017 C3015 1.419 . S
C3017 C3018 1.362 . S
C3018 H3010 0.930 . S
C3018 C3017 1.362 . S
C3018 C3021 1.409 . S
C3019 H3011 0.930 . S
C3019 C3020 1.355 . S
C3019 C3021 1.415 . S
C3020 C3019 1.355 . S
C3020 C3022 1.419 . S
C3021 C3016 1.425 . S
C3021 C3018 1.409 . S
C3021 C3019 1.415 . S
C3022 H3012 0.930 . S
C3022 C3020 1.419 . S
C3022 C3023 1.362 . S
C3023 H3013 0.930 . S
C3023 C3016 1.409 . S
C3023 C3022 1.362 . S
H3024 C3030 0.930 . S
H3025 C3033 0.930 . S
H3026 C3034 0.930 . S
H3027 C3035 0.930 . S
H3028 C3038 0.930 . S
H3029 C3039 0.930 . S
C3030 H3024 0.930 . S
C3030 C3031 1.355 1_556 S
C3030 C3032 1.415 . S
C3031 C3030 1.355 1_554 S
C3031 C3033 1.419 . S
C3032 C3030 1.415 . S
C3032 C3037 1.425 . S
C3032 C3039 1.409 . S
C3033 H3025 0.930 . S
C3033 C3031 1.419 . S
C3033 C3034 1.362 . S
C3034 H3026 0.930 . S
C3034 C3033 1.362 . S
C3034 C3037 1.409 1_554 S
C3035 H3027 0.930 . S
C3035 C3036 1.355 . S
C3035 C3037 1.415 . S
C3036 C3035 1.355 . S
C3036 C3038 1.419 . S
C3037 C3032 1.425 . S
C3037 C3034 1.409 1_556 S
C3037 C3035 1.415 . S
C3038 H3028 0.930 . S
C3038 C3036 1.419 . S
C3038 C3039 1.362 . S
C3039 H3029 0.930 . S
C3039 C3032 1.409 . S
C3039 C3038 1.362 . S
H3040 C3046 0.930 . S
H3041 C3049 0.930 . S
H3042 C3050 0.930 . S
H3043 C3051 0.930 . S
H3044 C3054 0.930 . S
H3045 C3055 0.930 . S
C3046 H3040 0.930 . S
C3046 C3047 1.355 1_556 S
C3046 C3048 1.415 . S
C3047 C3046 1.355 1_554 S
C3047 C3049 1.419 . S
C3048 C3046 1.415 . S
C3048 C3053 1.425 . S
C3048 C3055 1.409 . S
C3049 H3041 0.930 . S
C3049 C3047 1.419 . S
C3049 C3050 1.362 . S
C3050 H3042 0.930 . S
C3050 C3049 1.362 . S
C3050 C3053 1.409 1_554 S
C3051 H3043 0.930 . S
C3051 C3052 1.355 . S
C3051 C3053 1.415 . S
C3052 C3051 1.355 . S
C3052 C3054 1.419 . S
C3053 C3048 1.425 . S
C3053 C3050 1.409 1_556 S
C3053 C3051 1.415 . S
C3054 H3044 0.930 . S
C3054 C3052 1.419 . S
C3054 C3055 1.362 . S
C3055 H3045 0.930 . S
C3055 C3048 1.409 . S
C3055 C3054 1.362 . S
H3056 C3062 0.930 . S
H3057 C3065 0.930 . S
H3058 C3066 0.930 . S
H3059 C3067 0.930 . S
H3060 C3070 0.930 . S
H3061 C3071 0.930 1_554 S
C3062 H3056 0.930 . S
C3062 C3063 1.355 1_554 S
C3062 C3064 1.415 1_554 S
C3063 C3062 1.355 1_556 S
C3063 C3065 1.419 . S
C3064 C3062 1.415 1_556 S
C3064 C3069 1.425 . S
C3064 C3071 1.409 . S
C3065 H3057 0.930 . S
C3065 C3063 1.419 . S
C3065 C3066 1.362 . S
C3066 H3058 0.930 . S
C3066 C3065 1.362 . S
C3066 C3069 1.409 . S
C3067 H3059 0.930 . S
C3067 C3068 1.355 . S
C3067 C3069 1.415 . S
C3068 C3067 1.355 . S
C3068 C3070 1.419 . S
C3069 C3064 1.425 . S
C3069 C3066 1.409 . S
C3069 C3067 1.415 . S
C3070 H3060 0.930 . S
C3070 C3068 1.419 . S
C3070 C3071 1.362 . S
C3071 H3061 0.930 1_556 S
C3071 C3064 1.409 . S
C3071 C3070 1.362 . S
H3072 C3078 0.930 . S
H3073 C3081 0.930 . S
H3074 C3082 0.930 . S
H3075 C3083 0.930 . S
H3076 C3086 0.930 . S
H3077 C3087 0.930 . S
C3078 H3072 0.930 . S
C3078 C3079 1.355 . S
C3078 C3080 1.415 . S
C3079 C3078 1.355 . S
C3079 C3081 1.419 . S
C3080 C3078 1.415 . S
C3080 C3085 1.425 . S
C3080 C3087 1.409 . S
C3081 H3073 0.930 . S
C3081 C3079 1.419 . S
C3081 C3082 1.362 . S
C3082 H3074 0.930 . S
C3082 C3081 1.362 . S
C3082 C3085 1.409 . S
C3083 H3075 0.930 . S
C3083 C3084 1.355 . S
C3083 C3085 1.415 . S
C3084 C3083 1.355 . S
C3084 C3086 1.419 . S
C3085 C3080 1.425 . S
C3085 C3082 1.409 . S
C3085 C3083 1.415 . S
C3086 H3076 0.930 . S
C3086 C3084 1.419 . S
C3086 C3087 1.362 . S
C3087 H3077 0.930 . S
C3087 C3080 1.409 . S
C3087 C3086 1.362 . S
H3088 C3094 0.930 . S
H3089 C3097 0.930 . S
H3090 C3098 0.930 . S
H3091 C3099 0.930 . S
H3092 C3102 0.930 . S
H3093 C3103 0.930 . S
C3094 H3088 0.930 . S
C3094 C3095 1.355 . S
C3094 C3096 1.415 . S
C3095 C3094 1.355 . S
C3095 C3097 1.419 . S
C3096 C3094 1.415 . S
C3096 C3101 1.425 . S
C3096 C3103 1.409 . S
C3097 H3089 0.930 . S
C3097 C3095 1.419 . S
C3097 C3098 1.362 . S
C3098 H3090 0.930 . S
C3098 C3097 1.362 . S
C3098 C3101 1.409 . S
C3099 H3091 0.930 . S
C3099 C3100 1.355 . S
C3099 C3101 1.415 . S
C3100 C3099 1.355 . S
C3100 C3102 1.419 . S
C3101 C3096 1.425 . S
C3101 C3098 1.409 . S
C3101 C3099 1.415 . S
C3102 H3092 0.930 . S
C3102 C3100 1.419 . S
C3102 C3103 1.362 . S
C3103 H3093 0.930 . S
C3103 C3096 1.409 . S
C3103 C3102 1.362 . S
H3104 C3110 0.930 . S
H3105 C3113 0.930 . S
H3106 C3114 0.930 . S
H3107 C3115 0.930 . S
H3108 C3118 0.930 . S
H3109 C3119 0.930 . S
C3110 H3104 0.930 . S
C3110 C3111 1.355 . S
C3110 C3112 1.415 . S
C3111 C3110 1.355 . S
C3111 C3113 1.419 . S
C3112 C3110 1.415 . S
C3112 C3117 1.425 . S
C3112 C3119 1.409 . S
C3113 H3105 0.930 . S
C3113 C3111 1.419 . S
C3113 C3114 1.362 . S
C3114 H3106 0.930 . S
C3114 C3113 1.362 . S
C3114 C3117 1.409 . S
C3115 H3107 0.930 . S
C3115 C3116 1.355 . S
C3115 C3117 1.415 . S
C3116 C3115 1.355 . S
C3116 C3118 1.419 . S
C3117 C3112 1.425 . S
C3117 C3114 1.409 . S
C3117 C3115 1.415 . S
C3118 H3108 0.930 . S
C3118 C3116 1.419 . S
C3118 C3119 1.362 . S
C3119 H3109 0.930 . S
C3119 C3112 1.409 . S
C3119 C3118 1.362 . S
H3120 C3126 0.930 . S
H3121 C3129 0.930 . S
H3122 C3130 0.930 . S
H3123 C3131 0.930 . S
H3124 C3134 0.930 . S
H3125 C3135 0.930 . S
C3126 H3120 0.930 . S
C3126 C3127 1.355 . S
C3126 C3128 1.415 . S
C3127 C3126 1.355 . S
C3127 C3129 1.419 . S
C3128 C3126 1.415 . S
C3128 C3133 1.425 . S
C3128 C3135 1.409 . S
C3129 H3121 0.930 . S
C3129 C3127 1.419 . S
C3129 C3130 1.362 . S
C3130 H3122 0.930 . S
C3130 C3129 1.362 . S
C3130 C3133 1.409 . S
C3131 H3123 0.930 . S
C3131 C3132 1.355 . S
C3131 C3133 1.415 . S
C3132 C3131 1.355 . S
C3132 C3134 1.419 . S
C3133 C3128 1.425 . S
C3133 C3130 1.409 . S
C3133 C3131 1.415 . S
C3134 H3124 0.930 . S
C3134 C3132 1.419 . S
C3134 C3135 1.362 . S
C3135 H3125 0.930 . S
C3135 C3128 1.409 . S
C3135 C3134 1.362 . S
H3136 C3142 0.930 . S
H3137 C3145 0.930 . S
H3138 C3146 0.930 . S
H3139 C3147 0.930 . S
H3140 C3150 0.930 . S
H3141 C3151 0.930 . S
C3142 H3136 0.930 . S
C3142 C3143 1.355 . S
C3142 C3144 1.415 . S
C3143 C3142 1.355 . S
C3143 C3145 1.419 . S
C3144 C3142 1.415 . S
C3144 C3149 1.425 . S
C3144 C3151 1.409 . S
C3145 H3137 0.930 . S
C3145 C3143 1.419 . S
C3145 C3146 1.362 . S
C3146 H3138 0.930 . S
C3146 C3145 1.362 . S
C3146 C3149 1.409 . S
C3147 H3139 0.930 . S
C3147 C3148 1.355 . S
C3147 C3149 1.415 . S
C3148 C3147 1.355 . S
C3148 C3150 1.419 . S
C3149 C3144 1.425 . S
C3149 C3146 1.409 . S
C3149 C3147 1.415 . S
C3150 H3140 0.930 . S
C3150 C3148 1.419 . S
C3150 C3151 1.362 . S
C3151 H3141 0.930 . S
C3151 C3144 1.409 . S
C3151 C3150 1.362 . S
H3152 C3158 0.930 . S
H3153 C3161 0.930 . S
H3154 C3162 0.930 . S
H3155 C3163 0.930 . S
H3156 C3166 0.930 . S
H3157 C3167 0.930 . S
C3158 H3152 0.930 . S
C3158 C3159 1.355 . S
C3158 C3160 1.415 . S
C3159 C3158 1.355 . S
C3159 C3161 1.419 . S
C3160 C3158 1.415 . S
C3160 C3165 1.425 . S
C3160 C3167 1.409 . S
C3161 H3153 0.930 . S
C3161 C3159 1.419 . S
C3161 C3162 1.362 . S
C3162 H3154 0.930 . S
C3162 C3161 1.362 . S
C3162 C3165 1.409 . S
C3163 H3155 0.930 . S
C3163 C3164 1.355 . S
C3163 C3165 1.415 . S
C3164 C3163 1.355 . S
C3164 C3166 1.419 . S
C3165 C3160 1.425 . S
C3165 C3162 1.409 . S
C3165 C3163 1.415 . S
C3166 H3156 0.930 . S
C3166 C3164 1.419 . S
C3166 C3167 1.362 . S
C3167 H3157 0.930 . S
C3167 C3160 1.409 . S
C3167 C3166 1.362 . S
C1447 C609 2.194 . S
C1452 C9 2.165 . S
C1463 C649 2.200 . S
C1468 C49 2.216 . S
C1479 C89 2.151 . S
C1484 C689 2.145 . S
C1495 C129 2.216 . S
C1500 C969 2.206 . S
C1511 C169 2.216 . S
C1516 C1009 2.202 . S
C1527 C209 2.184 . S
C1532 C1049 2.209 . S
C1543 C1338 2.212 . S
C1548 C258 2.214 . S
C1559 C1378 2.150 . S
C1564 C298 2.146 . S
C1575 C338 2.145 . S
C1580 C1418 2.153 . S
C1591 C738 2.181 . S
C1596 C378 2.154 . S
C1607 C418 2.208 . S
C1612 C778 2.215 . S
C1623 C458 2.212 . S
C1628 C818 2.214 . S
C1639 C1089 2.213 . S
C1644 C489 2.213 . S
C1655 C529 2.164 . S
C1660 C1129 2.146 . S
C1671 C1169 2.214 . S
C1676 C569 2.193 . S
C1687 C1218 2.194 . S
C1692 C858 2.165 . S
C1703 C1258 2.145 . S
C1708 C898 2.156 . S
C1719 C938 2.150 . S
C1724 C1298 2.146 . S
C1735 C15 0.431 . S
C1740 C175 0.302 . S
C1751 C55 0.460 . S
C1756 C215 0.422 . S
C1767 C95 0.463 . S
C1772 C135 0.413 . S
C1783 C246 0.317 . S
C1788 C406 0.320 . S
C1799 C286 0.331 . S
C1804 C446 0.308 . S
C1815 C326 0.466 . S
C1820 C366 0.399 . S
C1831 C495 0.463 . S
C1836 C655 0.358 . S
C1847 C695 0.440 . S
C1852 C535 0.312 . S
C1863 C575 0.381 . S
C1868 C615 0.467 . S
C1879 C726 0.466 . S
C1884 C886 0.369 . S
C1895 C766 0.303 . S
C1900 C926 0.337 . S
C1911 C846 0.364 . S
C1916 C806 0.289 . S
C1927 C975 0.410 . S
C1932 C1135 0.464 . S
C1943 C1175 0.360 . S
C1948 C1015 0.464 . S
C1959 C1055 0.356 . S
C1964 C1095 0.293 . S
C1975 C1206 0.445 . S
C1980 C1366 0.318 . S
C1991 C1246 0.439 . S
C1996 C1406 0.310 . S
C2007 C1286 0.291 . S
C2012 C1326 0.359 . S
C2023 C415 1.622 . S
C2028 C19 1.690 . S
C2039 C59 1.714 . S
C2044 C455 1.688 . S
C2055 C99 1.686 . S
C2060 C375 1.637 . S
C2071 C139 1.687 . S
C2076 C335 1.628 . S
C2087 C179 1.733 . S
C2092 C255 1.672 . S
C2103 C295 1.642 . S
C2108 C219 1.732 . S
C2119 C250 1.702 . S
C2124 C166 1.681 . S
C2135 C206 1.625 . S
C2140 C290 1.725 . S
C2151 C330 1.735 . S
C2156 C126 1.664 . S
C2167 C370 1.730 . S
C2172 C86 1.636 . S
C2183 C6 1.614 . S
C2188 C410 1.714 . S
C2199 C46 1.647 . S
C2204 C450 1.687 . S
C2215 C895 1.683 . S
C2220 C499 1.704 . S
C2231 C935 1.627 . S
C2236 C539 1.726 . S
C2247 C855 1.619 . S
C2252 C579 1.691 . S
C2263 C815 1.669 . S
C2268 C619 1.734 1_554 S
C2279 C659 1.734 1_554 S
C2284 C735 1.648 . S
C2295 C775 1.667 . S
C2300 C699 1.692 1_554 S
C2311 C646 1.686 . S
C2316 C730 1.725 . S
C2327 C770 1.707 . S
C2332 C686 1.685 . S
C2343 C810 1.719 . S
C2348 C606 1.689 . S
C2359 C566 1.647 . S
C2364 C850 1.733 . S
C2375 C890 1.693 . S
C2380 C486 1.617 . S
C2391 C930 1.720 . S
C2396 C526 1.688 . S
C2407 C979 1.729 . S
C2412 C1375 1.634 . S
C2423 C1019 1.721 . S
C2428 C1415 1.688 . S
C2439 C1335 1.650 . S
C2444 C1059 1.734 . S
C2455 C1295 1.636 . S
C2460 C1099 1.730 . S
C2471 C1139 1.702 . S
C2476 C1215 1.681 . S
C2487 C1255 1.613 . S
C2492 C1179 1.697 . S
C2503 C1210 1.695 . S
C2508 C1126 1.673 1_556 S
C2519 C1166 1.650 1_556 S
C2524 C1250 1.687 . S
C2535 C1290 1.687 . S
C2540 C1086 1.647 1_556 S
C2551 C1330 1.686 . S
C2556 C1046 1.638 . S
C2567 C966 1.673 . S
C2572 C1370 1.733 . S
C2583 C1006 1.676 . S
C2588 C1410 1.698 . S
C2599 C10 3.266 . S
C2604 C170 3.270 . S
C2615 C210 3.256 . S
C2620 C50 3.265 . S
C2631 C90 3.262 . S
C2636 C130 3.270 . S
C2647 C259 3.270 1_556 S
C2652 C419 3.261 . S
C2663 C459 3.255 . S
C2668 C299 3.258 1_556 S
C2679 C339 3.269 1_556 S
C2684 C379 3.268 . S
C2695 C650 3.267 . S
C2700 C490 3.269 . S
C2711 C690 3.259 . S
C2716 C530 3.255 . S
C2727 C610 3.270 . S
C2732 C570 3.261 . S
C2743 C899 3.257 . S
C2748 C739 3.256 . S
C2759 C779 3.254 . S
C2764 C939 3.259 . S
C2775 C859 3.270 . S
C2780 C819 3.261 . S
C2791 C1130 3.270 . S
C2796 C970 3.262 . S
C2807 C1010 3.257 . S
C2812 C1170 3.256 . S
C2823 C1050 3.260 . S
C2828 C1090 3.269 . S
C2839 C1379 3.262 . S
C2844 C1219 3.254 . S
C2855 C1259 3.261 . S
C2860 C1419 3.270 . S
C2871 C1299 3.264 . S
C2876 C1339 3.270 . S
C2887 C18 0.864 . S
C2892 C249 0.864 . S
C2903 C58 0.930 . S
C2908 C289 0.930 . S
C2919 C329 1.044 . S
C2924 C98 1.044 . S
C2935 C369 1.045 . S
C2940 C138 1.045 . S
C2951 C178 0.896 . S
C2956 C409 0.896 . S
C2967 C218 0.918 . S
C2972 C449 0.918 . S
C2983 C729 1.034 . S
C2988 C498 1.034 . S
C2999 C538 0.925 . S
C3004 C769 0.925 . S
C3015 C809 0.888 . S
C3020 C578 0.888 . S
C3031 C849 0.957 . S
C3036 C618 0.956 . S
C3047 C889 1.045 . S
C3052 C658 1.044 . S
C3063 C929 0.934 1_556 S
C3068 C698 0.935 . S
C3079 C1209 1.033 . S
C3084 C978 1.033 . S
C3095 C1018 0.919 . S
C3100 C1249 0.919 . S
C3111 C1289 1.046 . S
C3116 C1058 1.046 . S
C3127 C1329 0.882 . S
C3132 C1098 0.882 . S
C3143 C1369 1.014 . S
C3148 C1138 1.014 . S
C3159 C1178 0.861 . S
C3164 C1409 0.861 . S
