# Generated by pormake.
# Topology fnk, (5)-cn, num edge types: 1
# Building blocks:
#     Node 0, Type 0, BuildingBlock: XOMCOT_clean_sbu_1, # of connection points: 5
#     Node 1, Type 0, BuildingBlock: XOMCOT_clean_sbu_1, # of connection points: 5
#     Node 2, Type 0, BuildingBlock: XOMCOT_clean_sbu_1, # of connection points: 5
#     Node 3, Type 0, BuildingBlock: XOMCOT_clean_sbu_1, # of connection points: 5
#     Node 4, Type 0, BuildingBlock: XOMCOT_clean_sbu_1, # of connection points: 5
#     Node 5, Type 0, BuildingBlock: XOMCOT_clean_sbu_1, # of connection points: 5
#     Node 6, Type 0, BuildingBlock: XOMCOT_clean_sbu_1, # of connection points: 5
#     Node 7, Type 0, BuildingBlock: XOMCOT_clean_sbu_1, # of connection points: 5
#     Node 8, Type 0, BuildingBlock: XOMCOT_clean_sbu_1, # of connection points: 5
#     Node 9, Type 0, BuildingBlock: XOMCOT_clean_sbu_1, # of connection points: 5
#     Node 10, Type 0, BuildingBlock: XOMCOT_clean_sbu_1, # of connection points: 5
#     Node 11, Type 0, BuildingBlock: XOMCOT_clean_sbu_1, # of connection points: 5
#     Node 12, Type 0, BuildingBlock: XOMCOT_clean_sbu_1, # of connection points: 5
#     Node 13, Type 0, BuildingBlock: XOMCOT_clean_sbu_1, # of connection points: 5
#     Node 14, Type 0, BuildingBlock: XOMCOT_clean_sbu_1, # of connection points: 5
#     Node 15, Type 0, BuildingBlock: XOMCOT_clean_sbu_1, # of connection points: 5
#     Edge 16, Type (0, 0), BuildingBlock: MIFKUJ_clean_linker_0, # of connection points: 2
#     Edge 17, Type (0, 0), BuildingBlock: MIFKUJ_clean_linker_0, # of connection points: 2
#     Edge 18, Type (0, 0), BuildingBlock: MIFKUJ_clean_linker_0, # of connection points: 2
#     Edge 19, Type (0, 0), BuildingBlock: MIFKUJ_clean_linker_0, # of connection points: 2
#     Edge 20, Type (0, 0), BuildingBlock: MIFKUJ_clean_linker_0, # of connection points: 2
#     Edge 21, Type (0, 0), BuildingBlock: MIFKUJ_clean_linker_0, # of connection points: 2
#     Edge 22, Type (0, 0), BuildingBlock: MIFKUJ_clean_linker_0, # of connection points: 2
#     Edge 23, Type (0, 0), BuildingBlock: MIFKUJ_clean_linker_0, # of connection points: 2
#     Edge 24, Type (0, 0), BuildingBlock: MIFKUJ_clean_linker_0, # of connection points: 2
#     Edge 25, Type (0, 0), BuildingBlock: MIFKUJ_clean_linker_0, # of connection points: 2
#     Edge 26, Type (0, 0), BuildingBlock: MIFKUJ_clean_linker_0, # of connection points: 2
#     Edge 27, Type (0, 0), BuildingBlock: MIFKUJ_clean_linker_0, # of connection points: 2
#     Edge 28, Type (0, 0), BuildingBlock: MIFKUJ_clean_linker_0, # of connection points: 2
#     Edge 29, Type (0, 0), BuildingBlock: MIFKUJ_clean_linker_0, # of connection points: 2
#     Edge 30, Type (0, 0), BuildingBlock: MIFKUJ_clean_linker_0, # of connection points: 2
#     Edge 31, Type (0, 0), BuildingBlock: MIFKUJ_clean_linker_0, # of connection points: 2
#     Edge 32, Type (0, 0), BuildingBlock: MIFKUJ_clean_linker_0, # of connection points: 2
#     Edge 33, Type (0, 0), BuildingBlock: MIFKUJ_clean_linker_0, # of connection points: 2
#     Edge 34, Type (0, 0), BuildingBlock: MIFKUJ_clean_linker_0, # of connection points: 2
#     Edge 35, Type (0, 0), BuildingBlock: MIFKUJ_clean_linker_0, # of connection points: 2
#     Edge 36, Type (0, 0), BuildingBlock: MIFKUJ_clean_linker_0, # of connection points: 2
#     Edge 37, Type (0, 0), BuildingBlock: MIFKUJ_clean_linker_0, # of connection points: 2
#     Edge 38, Type (0, 0), BuildingBlock: MIFKUJ_clean_linker_0, # of connection points: 2
#     Edge 39, Type (0, 0), BuildingBlock: MIFKUJ_clean_linker_0, # of connection points: 2
#     Edge 40, Type (0, 0), BuildingBlock: MIFKUJ_clean_linker_0, # of connection points: 2
#     Edge 41, Type (0, 0), BuildingBlock: MIFKUJ_clean_linker_0, # of connection points: 2
#     Edge 42, Type (0, 0), BuildingBlock: MIFKUJ_clean_linker_0, # of connection points: 2
#     Edge 43, Type (0, 0), BuildingBlock: MIFKUJ_clean_linker_0, # of connection points: 2
#     Edge 44, Type (0, 0), BuildingBlock: MIFKUJ_clean_linker_0, # of connection points: 2
#     Edge 45, Type (0, 0), BuildingBlock: MIFKUJ_clean_linker_0, # of connection points: 2
#     Edge 46, Type (0, 0), BuildingBlock: MIFKUJ_clean_linker_0, # of connection points: 2
#     Edge 47, Type (0, 0), BuildingBlock: MIFKUJ_clean_linker_0, # of connection points: 2
#     Edge 48, Type (0, 0), BuildingBlock: MIFKUJ_clean_linker_0, # of connection points: 2
#     Edge 49, Type (0, 0), BuildingBlock: MIFKUJ_clean_linker_0, # of connection points: 2
#     Edge 50, Type (0, 0), BuildingBlock: MIFKUJ_clean_linker_0, # of connection points: 2
#     Edge 51, Type (0, 0), BuildingBlock: MIFKUJ_clean_linker_0, # of connection points: 2
#     Edge 52, Type (0, 0), BuildingBlock: MIFKUJ_clean_linker_0, # of connection points: 2
#     Edge 53, Type (0, 0), BuildingBlock: MIFKUJ_clean_linker_0, # of connection points: 2
#     Edge 54, Type (0, 0), BuildingBlock: MIFKUJ_clean_linker_0, # of connection points: 2
#     Edge 55, Type (0, 0), BuildingBlock: MIFKUJ_clean_linker_0, # of connection points: 2
# Relax obj value: 0.619
# Max RMSD: 0.261
# Mean RMSD: 0.261
data_MOF--net-fnk--node1-XOMCOT_clean_sbu_1--edge1-MIFKUJ_clean_linker_0
_symmetry_space_group_name_H-M    P1
_symmetry_Int_Tables_number       1
_symmetry_cell_setting            triclinic
loop_
_symmetry_equiv_pos_as_xyz
'x, y, z'
_cell_length_a     56.431872
_cell_length_b     56.47916
_cell_length_c     61.416644
_cell_angle_alpha  89.984792
_cell_angle_beta   89.928176
_cell_angle_gamma 89.999607
loop_
_atom_site_label
_atom_site_type_symbol
_atom_site_fract_x
_atom_site_fract_y
_atom_site_fract_z
_atom_type_partial_charge
C0 C 0.14438 0.31486 0.15436 0.0
C1 C 0.15909 0.30015 0.16594 0.0
N2 N 0.17329 0.31359 0.1785 0.0
N3 N 0.14922 0.33754 0.15949 0.0
C4 C 0.16713 0.33623 0.1741 0.0
H5 H 0.13018 0.30928 0.14375 0.0
Co6 Co 0.13038 0.36295 0.15066 0.0
C7 C 0.14273 0.40267 0.17892 0.0
O8 O 0.11979 0.40607 0.18083 0.0
N9 N 0.1114 0.38883 0.14098 0.0
C10 C 0.10413 0.42392 0.12577 0.0
C11 C 0.12113 0.40734 0.13022 0.0
C12 C 0.08815 0.39475 0.14272 0.0
N13 N 0.08332 0.41609 0.13367 0.0
O14 O 0.14891 0.36589 0.12447 0.0
H15 H 0.13978 0.40918 0.12653 0.0
H16 H 0.07498 0.38407 0.1508 0.0
O17 O 0.15054 0.38573 0.16696 0.0
C18 C 0.13788 0.35364 0.11023 0.0
O19 O 0.11852 0.34251 0.11633 0.0
N20 N 0.11097 0.35704 0.17496 0.0
C21 C 0.08287 0.33585 0.20701 0.0
C22 C 0.10431 0.3469 0.21249 0.0
C23 C 0.11831 0.35702 0.19619 0.0
C24 C 0.09053 0.3458 0.16934 0.0
C25 C 0.07593 0.33566 0.18509 0.0
H26 H 0.13563 0.36348 0.20062 0.0
H27 H 0.08593 0.34394 0.15234 0.0
H28 H 0.1744 0.3514 0.18252 0.0
H29 H 0.1588 0.28099 0.16567 0.0
H30 H 0.10718 0.44094 0.11818 0.0
H31 H 0.11085 0.3467 0.22906 0.0
H32 H 0.05959 0.3273 0.17999 0.0
C33 C 0.67415 0.1551 0.14494 0.0
C34 C 0.69153 0.1703 0.15205 0.0
N35 N 0.68102 0.1885 0.16233 0.0
N36 N 0.65268 0.16292 0.15156 0.0
C37 C 0.65756 0.18416 0.16083 0.0
H38 H 0.67716 0.13945 0.13522 0.0
Co39 Co 0.6233 0.14751 0.14582 0.0
C40 C 0.60901 0.17591 0.18431 0.0
O41 O 0.62788 0.16778 0.1944 0.0
N42 N 0.59441 0.13248 0.13911 0.0
C43 C 0.55656 0.12667 0.13071 0.0
C44 C 0.57401 0.14339 0.13366 0.0
C45 C 0.589 0.1091 0.1391 0.0
N46 N 0.56597 0.1051 0.13431 0.0
O47 O 0.62051 0.16645 0.12008 0.0
H48 H 0.57185 0.16237 0.13237 0.0
H49 H 0.6016 0.09529 0.143 0.0
O50 O 0.60554 0.17043 0.16426 0.0
C51 C 0.62766 0.15261 0.10499 0.0
O52 O 0.63422 0.13103 0.11025 0.0
N53 N 0.62703 0.1265 0.16951 0.0
C54 C 0.62862 0.08547 0.19468 0.0
C55 C 0.61006 0.1017 0.19726 0.0
C56 C 0.60936 0.12191 0.18424 0.0
C57 C 0.64556 0.1112 0.1675 0.0
C58 C 0.64695 0.09088 0.18016 0.0
H59 H 0.59343 0.13249 0.18456 0.0
H60 H 0.65802 0.11307 0.15442 0.0
H61 H 0.6443 0.1964 0.16656 0.0
H62 H 0.71044 0.1681 0.14984 0.0
H63 H 0.53813 0.13019 0.12707 0.0
H64 H 0.59531 0.09793 0.20802 0.0
H65 H 0.66108 0.07837 0.17694 0.0
C66 C 0.84414 0.69066 0.14974 0.0
C67 C 0.82522 0.70587 0.1514 0.0
N68 N 0.80699 0.6941 0.16058 0.0
N69 N 0.83807 0.66946 0.15814 0.0
C70 C 0.81505 0.67184 0.16373 0.0
H71 H 0.86165 0.69518 0.14392 0.0
Co72 Co 0.85974 0.64511 0.16329 0.0
C73 C 0.82496 0.62816 0.20092 0.0
O74 O 0.81348 0.64686 0.20803 0.0
N75 N 0.88169 0.62061 0.16882 0.0
C76 C 0.90217 0.59463 0.18848 0.0
C77 C 0.88813 0.61432 0.18922 0.0
C78 C 0.8925 0.60443 0.15586 0.0
N79 N 0.90482 0.58831 0.16755 0.0
O80 O 0.84516 0.627 0.14068 0.0
H81 H 0.88227 0.62294 0.20397 0.0
H82 H 0.89071 0.60378 0.13836 0.0
O83 O 0.84019 0.63026 0.18564 0.0
C84 C 0.85624 0.63354 0.12358 0.0
O85 O 0.87403 0.64837 0.12557 0.0
N86 N 0.87547 0.6644 0.18315 0.0
C87 C 0.90557 0.6943 0.20607 0.0
C88 C 0.88518 0.68505 0.21607 0.0
C89 C 0.87 0.67035 0.20411 0.0
C90 C 0.89489 0.67368 0.17319 0.0
C91 C 0.91001 0.68883 0.18422 0.0
H92 H 0.85445 0.6634 0.21194 0.0
H93 H 0.89881 0.66897 0.15652 0.0
H94 H 0.80461 0.6579 0.1709 0.0
H95 H 0.82533 0.7245 0.14727 0.0
H96 H 0.90974 0.5855 0.20226 0.0
H97 H 0.8813 0.6888 0.23299 0.0
H98 H 0.9257 0.69525 0.17596 0.0
C99 C 0.34294 0.80784 0.16138 0.0
C100 C 0.33487 0.78802 0.17217 0.0
N101 N 0.34472 0.78764 0.19211 0.0
N102 N 0.3579 0.81991 0.17442 0.0
C103 C 0.35899 0.80678 0.19281 0.0
H104 H 0.33679 0.81387 0.14568 0.0
Co105 Co 0.36886 0.85093 0.17011 0.0
C106 C 0.41398 0.85305 0.19537 0.0
O107 O 0.40911 0.87486 0.20139 0.0
N108 N 0.3794 0.88258 0.16504 0.0
C109 C 0.3782 0.92122 0.15751 0.0
C110 C 0.36505 0.9016 0.16285 0.0
C111 C 0.4012 0.8911 0.15984 0.0
N112 N 0.40098 0.91462 0.15588 0.0
O113 O 0.3797 0.84312 0.14138 0.0
H114 H 0.34602 0.90126 0.16418 0.0
H115 H 0.41698 0.88028 0.15874 0.0
O116 O 0.39951 0.84183 0.18306 0.0
C117 C 0.3637 0.85133 0.12878 0.0
O118 O 0.34418 0.85971 0.13758 0.0
N119 N 0.35558 0.85965 0.19718 0.0
C120 C 0.33478 0.88521 0.2307 0.0
C121 C 0.35405 0.87017 0.23493 0.0
C122 C 0.3643 0.85751 0.21784 0.0
C123 C 0.33397 0.86976 0.19408 0.0
C124 C 0.3235 0.88326 0.21041 0.0
H125 H 0.37972 0.847 0.22135 0.0
H126 H 0.32594 0.86929 0.17811 0.0
H127 H 0.36896 0.81176 0.20705 0.0
H128 H 0.32117 0.77608 0.16655 0.0
H129 H 0.37156 0.93903 0.1552 0.0
H130 H 0.36241 0.86977 0.25078 0.0
H131 H 0.3082 0.89387 0.20625 0.0
C132 C 0.15849 0.66284 0.34158 0.0
C133 C 0.17627 0.67932 0.33984 0.0
N134 N 0.19721 0.66788 0.3396 0.0
N135 N 0.16801 0.64095 0.34211 0.0
C136 C 0.19168 0.64468 0.34182 0.0
H137 H 0.13968 0.66644 0.34103 0.0
Co138 Co 0.149 0.61375 0.34073 0.0
C139 C 0.19212 0.59254 0.31427 0.0
O140 O 0.20346 0.61154 0.30783 0.0
N141 N 0.1294 0.58668 0.33952 0.0
C142 C 0.11201 0.55416 0.32674 0.0
C143 C 0.12923 0.57081 0.32305 0.0
C144 C 0.11152 0.5796 0.35276 0.0
N145 N 0.10083 0.55976 0.34537 0.0
O146 O 0.15981 0.60481 0.36914 0.0
H147 H 0.14019 0.57182 0.30864 0.0
H148 H 0.10598 0.58898 0.36723 0.0
O149 O 0.17341 0.5944 0.32598 0.0
C150 C 0.14569 0.61497 0.38245 0.0
O151 O 0.12843 0.62802 0.37456 0.0
N152 N 0.13649 0.62417 0.31416 0.0
C153 C 0.11356 0.64745 0.2804 0.0
C154 C 0.13812 0.64442 0.27977 0.0
C155 C 0.14932 0.63251 0.29688 0.0
C156 C 0.11255 0.62727 0.31488 0.0
C157 C 0.10068 0.63843 0.29798 0.0
H158 H 0.1683 0.63168 0.29693 0.0
H159 H 0.10266 0.62209 0.32918 0.0
H160 H 0.2047 0.63071 0.34267 0.0
H161 H 0.17384 0.6981 0.33704 0.0
H162 H 0.10728 0.5397 0.31603 0.0
H163 H 0.14856 0.65183 0.26662 0.0
H164 H 0.08171 0.64116 0.2992 0.0
C165 C 0.33492 0.16541 0.34854 0.0
C166 C 0.31583 0.1797 0.34415 0.0
N167 N 0.32294 0.19689 0.33046 0.0
N168 N 0.35409 0.17301 0.33734 0.0
C169 C 0.34629 0.19288 0.32719 0.0
H170 H 0.33449 0.14955 0.35839 0.0
Co171 Co 0.38257 0.15497 0.3377 0.0
C172 C 0.4026 0.19282 0.30882 0.0
O173 O 0.38563 0.18935 0.29455 0.0
N174 N 0.41059 0.13684 0.33923 0.0
C175 C 0.44746 0.12651 0.34752 0.0
C176 C 0.43137 0.14473 0.34724 0.0
C177 C 0.41445 0.11364 0.33481 0.0
N178 N 0.43683 0.10692 0.33974 0.0
O179 O 0.38632 0.16365 0.36782 0.0
H180 H 0.4344 0.16246 0.35324 0.0
H181 H 0.40092 0.10181 0.32873 0.0
O182 O 0.40207 0.18184 0.32712 0.0
C183 C 0.38057 0.14548 0.37908 0.0
O184 O 0.37504 0.12584 0.36879 0.0
N185 N 0.37739 0.1439 0.3091 0.0
C186 C 0.36842 0.11789 0.2714 0.0
C187 C 0.39072 0.12822 0.27479 0.0
C188 C 0.39494 0.14094 0.29391 0.0
C189 C 0.35556 0.13434 0.30566 0.0
C190 C 0.35056 0.12183 0.28683 0.0
H191 H 0.41267 0.14734 0.29703 0.0
H192 H 0.34228 0.1346 0.31824 0.0
H193 H 0.35702 0.20421 0.31727 0.0
H194 H 0.29793 0.17715 0.35004 0.0
H195 H 0.46557 0.12755 0.35323 0.0
H196 H 0.40517 0.12517 0.26351 0.0
H197 H 0.33344 0.11327 0.28559 0.0
C198 C 0.79932 0.36851 0.34238 0.0
C199 C 0.77977 0.35736 0.33365 0.0
N200 N 0.78744 0.3395 0.32099 0.0
N201 N 0.81931 0.3577 0.33536 0.0
C202 C 0.81129 0.34019 0.32225 0.0
H203 H 0.79899 0.38419 0.35248 0.0
Co204 Co 0.85052 0.36962 0.3386 0.0
C205 C 0.84069 0.40498 0.31227 0.0
O206 O 0.84815 0.38783 0.29951 0.0
N207 N 0.88104 0.38196 0.34058 0.0
C208 C 0.91871 0.38863 0.33222 0.0
C209 C 0.89906 0.37537 0.32747 0.0
C210 C 0.88997 0.39974 0.35284 0.0
N211 N 0.913 0.404 0.34812 0.0
O212 O 0.84596 0.37407 0.37019 0.0
H213 H 0.89785 0.36229 0.3147 0.0
H214 H 0.87972 0.40962 0.36465 0.0
O215 O 0.83894 0.40078 0.33258 0.0
C216 C 0.83502 0.36079 0.38383 0.0
O217 O 0.82357 0.34207 0.3767 0.0
N218 N 0.86352 0.33905 0.34283 0.0
C219 C 0.89728 0.30298 0.34032 0.0
C220 C 0.8831 0.30861 0.32234 0.0
C221 C 0.86692 0.32714 0.32379 0.0
C222 C 0.87602 0.33258 0.361 0.0
C223 C 0.89266 0.3143 0.36015 0.0
H224 H 0.85981 0.3342 0.30882 0.0
H225 H 0.87584 0.34322 0.37553 0.0
H226 H 0.8224 0.32906 0.31239 0.0
H227 H 0.76145 0.36248 0.33588 0.0
H228 H 0.93562 0.38777 0.3239 0.0
H229 H 0.88665 0.30106 0.30646 0.0
H230 H 0.90362 0.31087 0.37428 0.0
C231 C 0.66163 0.81928 0.34998 0.0
C232 C 0.67651 0.80552 0.3376 0.0
N233 N 0.66392 0.79628 0.32105 0.0
N234 N 0.63967 0.81877 0.34132 0.0
C235 C 0.6416 0.80431 0.32384 0.0
H236 H 0.66707 0.83013 0.36354 0.0
Co237 Co 0.61422 0.83864 0.34848 0.0
C238 C 0.57723 0.79966 0.35133 0.0
O239 O 0.5721 0.80101 0.37214 0.0
N240 N 0.58858 0.85885 0.3557 0.0
C241 C 0.55905 0.8757 0.37417 0.0
C242 C 0.57456 0.857 0.37349 0.0
C243 C 0.58105 0.87898 0.34579 0.0
N244 N 0.56308 0.88944 0.3567 0.0
O245 O 0.61793 0.83066 0.37851 0.0
H246 H 0.57587 0.84334 0.38573 0.0
H247 H 0.58903 0.88634 0.33126 0.0
O248 O 0.59283 0.81316 0.34306 0.0
C249 C 0.63058 0.84655 0.38755 0.0
O250 O 0.63828 0.86427 0.3756 0.0
N251 N 0.61199 0.84755 0.31942 0.0
C252 C 0.614 0.86323 0.2766 0.0
C253 C 0.59443 0.85017 0.28398 0.0
C254 C 0.59368 0.84255 0.3056 0.0
C255 C 0.63104 0.86022 0.31254 0.0
C256 C 0.63251 0.86808 0.29119 0.0
H257 H 0.57813 0.83326 0.31125 0.0
H258 H 0.64511 0.86436 0.32387 0.0
H259 H 0.62745 0.80144 0.31226 0.0
H260 H 0.69542 0.80346 0.33993 0.0
H261 H 0.54587 0.87906 0.38663 0.0
H262 H 0.57959 0.84645 0.27334 0.0
H263 H 0.64755 0.87885 0.28649 0.0
C264 C 0.84618 0.67107 0.86726 0.0
C265 C 0.8294 0.68526 0.85754 0.0
N266 N 0.83797 0.69272 0.83822 0.0
N267 N 0.86538 0.66967 0.85427 0.0
C268 C 0.85985 0.68309 0.83672 0.0
H269 H 0.84415 0.66169 0.8825 0.0
Co270 Co 0.89174 0.65023 0.85902 0.0
C271 C 0.92079 0.69029 0.83766 0.0
O272 O 0.91471 0.70896 0.84913 0.0
N273 N 0.91888 0.63096 0.86351 0.0
C274 C 0.95667 0.62313 0.87096 0.0
C275 C 0.93931 0.64006 0.87132 0.0
C276 C 0.9244 0.60815 0.85859 0.0
N277 N 0.94741 0.60304 0.86284 0.0
O278 O 0.89825 0.6669 0.88558 0.0
H279 H 0.94172 0.65825 0.87635 0.0
H280 H 0.91222 0.5958 0.85117 0.0
O281 O 0.91185 0.67016 0.84192 0.0
C282 C 0.89112 0.6532 0.90077 0.0
O283 O 0.88233 0.63243 0.89558 0.0
N284 N 0.88327 0.63279 0.83482 0.0
C285 C 0.85995 0.60596 0.80355 0.0
C286 C 0.87455 0.62498 0.79737 0.0
C287 C 0.8862 0.63821 0.81333 0.0
C288 C 0.86931 0.61442 0.84108 0.0
C289 C 0.85785 0.60052 0.82576 0.0
H290 H 0.89652 0.65334 0.80835 0.0
H291 H 0.86687 0.61077 0.85822 0.0
H292 H 0.87147 0.68541 0.82289 0.0
H293 H 0.81185 0.68892 0.86381 0.0
H294 H 0.97487 0.62556 0.87604 0.0
H295 H 0.87652 0.63 0.78045 0.0
H296 H 0.84747 0.58562 0.83142 0.0
C297 C 0.33167 0.85013 0.86209 0.0
C298 C 0.31781 0.83366 0.85161 0.0
N299 N 0.30624 0.84454 0.83527 0.0
N300 N 0.32891 0.87145 0.85249 0.0
C301 C 0.31322 0.86744 0.83619 0.0
H302 H 0.34367 0.84643 0.87533 0.0
Co303 Co 0.34663 0.89899 0.85849 0.0
C304 C 0.30372 0.93112 0.85406 0.0
O305 O 0.29921 0.93485 0.87475 0.0
N306 N 0.36448 0.92674 0.8644 0.0
C307 C 0.37489 0.96146 0.87853 0.0
C308 C 0.3576 0.9444 0.87774 0.0
C309 C 0.3863 0.93353 0.85737 0.0
N310 N 0.39306 0.95479 0.86564 0.0
O311 O 0.33566 0.89854 0.88799 0.0
H312 H 0.34123 0.94473 0.88683 0.0
H313 H 0.39694 0.92307 0.84633 0.0
O314 O 0.32092 0.91802 0.84833 0.0
C315 C 0.35186 0.88793 0.89869 0.0
O316 O 0.37095 0.88096 0.88821 0.0
N317 N 0.35885 0.89792 0.83073 0.0
C318 C 0.38311 0.89176 0.79189 0.0
C319 C 0.36691 0.91047 0.79424 0.0
C320 C 0.35494 0.91335 0.81399 0.0
C321 C 0.37428 0.87964 0.82865 0.0
C322 C 0.38655 0.87618 0.80941 0.0
H323 H 0.34324 0.92832 0.81596 0.0
H324 H 0.37749 0.86804 0.84235 0.0
H325 H 0.30804 0.88072 0.82445 0.0
H326 H 0.31666 0.815 0.8555 0.0
H327 H 0.37417 0.9773 0.88839 0.0
H328 H 0.36399 0.92306 0.78121 0.0
H329 H 0.3995 0.86206 0.80877 0.0
C330 C 0.17679 0.31346 0.84509 0.0
C331 C 0.18556 0.29322 0.83554 0.0
N332 N 0.17659 0.29145 0.81526 0.0
N333 N 0.16217 0.32452 0.83105 0.0
C334 C 0.16206 0.31039 0.8132 0.0
H335 H 0.18204 0.32038 0.86075 0.0
Co336 Co 0.15105 0.35575 0.83415 0.0
C337 C 0.10437 0.35777 0.81168 0.0
O338 O 0.1088 0.37958 0.80548 0.0
N339 N 0.14048 0.3877 0.8378 0.0
C340 C 0.13881 0.42706 0.83698 0.0
C341 C 0.15264 0.4076 0.83292 0.0
C342 C 0.11965 0.39585 0.84604 0.0
N343 N 0.11782 0.41976 0.845 0.0
O344 O 0.14096 0.34926 0.86355 0.0
H345 H 0.17042 0.40835 0.82659 0.0
H346 H 0.10568 0.38429 0.85178 0.0
O347 O 0.11988 0.34601 0.82244 0.0
C348 C 0.15567 0.35878 0.8767 0.0
O349 O 0.17426 0.36962 0.86848 0.0
N350 N 0.16337 0.36271 0.80637 0.0
C351 C 0.18501 0.38284 0.77024 0.0
C352 C 0.16374 0.37022 0.76801 0.0
C353 C 0.15319 0.36016 0.78633 0.0
C354 C 0.18593 0.37104 0.80799 0.0
C355 C 0.19694 0.38176 0.79023 0.0
H356 H 0.1368 0.35077 0.78416 0.0
H357 H 0.19447 0.37148 0.82375 0.0
H358 H 0.15288 0.31477 0.79834 0.0
H359 H 0.19845 0.28138 0.8427 0.0
H360 H 0.14368 0.44516 0.83336 0.0
H361 H 0.15457 0.36942 0.75254 0.0
H362 H 0.21355 0.39094 0.7928 0.0
C363 C 0.67462 0.18689 0.84369 0.0
C364 C 0.68887 0.20388 0.83441 0.0
N365 N 0.70297 0.19334 0.81963 0.0
N366 N 0.67891 0.16559 0.83446 0.0
C367 C 0.69732 0.17009 0.82075 0.0
H368 H 0.66148 0.19018 0.85613 0.0
Co369 Co 0.66049 0.13767 0.84068 0.0
C370 C 0.68498 0.11906 0.80076 0.0
O371 O 0.67784 0.13736 0.78925 0.0
N372 N 0.64257 0.11013 0.84731 0.0
C373 C 0.63482 0.07209 0.85342 0.0
C374 C 0.65237 0.08881 0.85138 0.0
C375 C 0.61884 0.10595 0.84745 0.0
N376 N 0.61367 0.08276 0.85076 0.0
O377 O 0.68036 0.13153 0.86526 0.0
H378 H 0.67121 0.08548 0.85225 0.0
H379 H 0.60567 0.1194 0.84412 0.0
O380 O 0.6802 0.11799 0.82115 0.0
C381 C 0.66901 0.14104 0.88098 0.0
O382 O 0.64865 0.15139 0.8769 0.0
N383 N 0.63881 0.1451 0.81873 0.0
C384 C 0.59872 0.15699 0.7946 0.0
C385 C 0.61179 0.13648 0.78969 0.0
C386 C 0.63123 0.13037 0.80252 0.0
C387 C 0.62626 0.16496 0.82365 0.0
C388 C 0.60642 0.17136 0.81177 0.0
H389 H 0.63923 0.11319 0.80019 0.0
H390 H 0.63028 0.1749 0.8381 0.0
H391 H 0.70663 0.15683 0.81158 0.0
H392 H 0.68855 0.22262 0.83806 0.0
H393 H 0.6375 0.05339 0.85641 0.0
H394 H 0.60644 0.12457 0.7768 0.0
H395 H 0.5963 0.18654 0.81717 0.0
C396 C 0.83916 0.35312 0.63719 0.0
C397 C 0.82014 0.33903 0.64257 0.0
N398 N 0.82831 0.31906 0.65199 0.0
N399 N 0.85937 0.34235 0.64336 0.0
C400 C 0.85219 0.32109 0.6511 0.0
H401 H 0.83815 0.37121 0.63147 0.0
Co402 Co 0.8874 0.35976 0.64815 0.0
C403 C 0.90262 0.31916 0.68186 0.0
O404 O 0.88358 0.30969 0.69057 0.0
N405 N 0.9154 0.37788 0.6534 0.0
C406 C 0.94488 0.39387 0.67255 0.0
C407 C 0.9261 0.37854 0.67309 0.0
C408 C 0.92787 0.39375 0.64128 0.0
N409 N 0.94604 0.40354 0.65258 0.0
O410 O 0.90145 0.34521 0.62312 0.0
H411 H 0.92012 0.36914 0.6874 0.0
H412 H 0.92363 0.39837 0.62465 0.0
O413 O 0.90071 0.33591 0.66793 0.0
C414 C 0.89659 0.35906 0.60731 0.0
O415 O 0.88509 0.37878 0.61149 0.0
N416 N 0.87223 0.37566 0.67055 0.0
C417 C 0.84118 0.40328 0.69477 0.0
C418 C 0.8456 0.37974 0.70078 0.0
C419 C 0.8611 0.36604 0.68821 0.0
C420 C 0.86851 0.39862 0.66488 0.0
C421 C 0.85325 0.41278 0.67682 0.0
H422 H 0.86302 0.34757 0.69198 0.0
H423 H 0.87673 0.40571 0.65037 0.0
H424 H 0.86406 0.30794 0.65735 0.0
H425 H 0.8017 0.34411 0.64134 0.0
H426 H 0.95622 0.39836 0.68614 0.0
H427 H 0.83662 0.37183 0.71458 0.0
H428 H 0.85091 0.43106 0.67195 0.0
C429 C 0.70588 0.85033 0.6486 0.0
C430 C 0.72023 0.83333 0.65766 0.0
N431 N 0.71113 0.82707 0.67707 0.0
N432 N 0.68743 0.85503 0.66202 0.0
C433 C 0.69121 0.84024 0.67919 0.0
H434 H 0.7096 0.85935 0.63347 0.0
Co435 Co 0.66423 0.87974 0.65743 0.0
C436 C 0.70009 0.90319 0.68569 0.0
O437 O 0.70281 0.8838 0.69716 0.0
N438 N 0.64195 0.90454 0.65253 0.0
C439 C 0.62942 0.94093 0.64466 0.0
C440 C 0.64875 0.92631 0.64594 0.0
C441 C 0.61798 0.90626 0.65458 0.0
N442 N 0.61001 0.92843 0.65008 0.0
O443 O 0.67528 0.8841 0.62829 0.0
H444 H 0.66677 0.93131 0.64215 0.0
H445 H 0.60672 0.8918 0.65975 0.0
O446 O 0.68617 0.90323 0.66928 0.0
C447 C 0.66091 0.87125 0.61744 0.0
O448 O 0.64504 0.85891 0.62829 0.0
N449 N 0.65052 0.87415 0.68426 0.0
C450 C 0.61277 0.86716 0.71212 0.0
C451 C 0.62681 0.88749 0.71414 0.0
C452 C 0.64578 0.8908 0.6998 0.0
C453 C 0.63813 0.85349 0.68347 0.0
C454 C 0.61964 0.84928 0.69776 0.0
H455 H 0.65439 0.90788 0.69936 0.0
H456 H 0.64124 0.84112 0.67034 0.0
H457 H 0.68041 0.84002 0.69369 0.0
H458 H 0.73683 0.82711 0.65093 0.0
H459 H 0.62956 0.95936 0.63981 0.0
H460 H 0.62136 0.90186 0.72468 0.0
H461 H 0.60884 0.83359 0.69559 0.0
C462 C 0.156 0.70638 0.64432 0.0
C463 C 0.1658 0.72533 0.65511 0.0
N464 N 0.16795 0.71959 0.67624 0.0
N465 N 0.1521 0.68838 0.65844 0.0
C466 C 0.15925 0.69736 0.67791 0.0
H467 H 0.15278 0.70588 0.62703 0.0
Co468 Co 0.14261 0.6568 0.65125 0.0
C469 C 0.0989 0.6487 0.67832 0.0
O470 O 0.10468 0.62637 0.68114 0.0
N471 N 0.13371 0.62538 0.64329 0.0
C472 C 0.13656 0.58769 0.6329 0.0
C473 C 0.14894 0.60755 0.63891 0.0
C474 C 0.11215 0.61606 0.63844 0.0
N475 N 0.1133 0.59287 0.63299 0.0
O476 O 0.12907 0.66693 0.62411 0.0
H477 H 0.16799 0.60876 0.63959 0.0
H478 H 0.09579 0.62602 0.6391 0.0
O479 O 0.11243 0.66228 0.66709 0.0
C480 C 0.14558 0.66397 0.6101 0.0
O481 O 0.16691 0.65872 0.61722 0.0
N482 N 0.15842 0.64538 0.67611 0.0
C483 C 0.18238 0.614 0.70276 0.0
C484 C 0.16204 0.62568 0.71041 0.0
C485 C 0.15042 0.64174 0.69684 0.0
C486 C 0.18058 0.63812 0.67046 0.0
C487 C 0.19278 0.62196 0.68337 0.0
H488 H 0.1347 0.65034 0.70283 0.0
H489 H 0.18756 0.64263 0.65459 0.0
H490 H 0.15929 0.68755 0.69298 0.0
H491 H 0.17141 0.74188 0.64785 0.0
H492 H 0.14416 0.57062 0.6292 0.0
H493 H 0.15421 0.62109 0.72597 0.0
H494 H 0.20874 0.61393 0.67695 0.0
C495 C 0.32389 0.15054 0.6284 0.0
C496 C 0.30843 0.1682 0.63444 0.0
N497 N 0.29259 0.15906 0.64851 0.0
N498 N 0.31871 0.13036 0.63925 0.0
C499 C 0.29845 0.13591 0.6501 0.0
H500 H 0.33823 0.15252 0.61687 0.0
Co501 Co 0.3372 0.10181 0.63748 0.0
C502 C 0.31133 0.09146 0.67884 0.0
O503 O 0.31757 0.11244 0.68617 0.0
N504 N 0.3551 0.07363 0.63497 0.0
C505 C 0.36368 0.0354 0.63158 0.0
C506 C 0.34573 0.05179 0.63298 0.0
C507 C 0.37889 0.07006 0.63465 0.0
N508 N 0.38461 0.04684 0.63268 0.0
O509 O 0.31805 0.09247 0.61332 0.0
H510 H 0.32695 0.048 0.63269 0.0
H511 H 0.39174 0.08423 0.63583 0.0
O512 O 0.31679 0.08545 0.6593 0.0
C513 C 0.33077 0.09863 0.59705 0.0
O514 O 0.35195 0.10743 0.60066 0.0
N515 N 0.35808 0.1124 0.65906 0.0
C516 C 0.39027 0.13236 0.68767 0.0
C517 C 0.37976 0.11055 0.69256 0.0
C518 C 0.36428 0.10036 0.67754 0.0
C519 C 0.37002 0.13241 0.65335 0.0
C520 C 0.38581 0.143 0.66759 0.0
H521 H 0.35719 0.08294 0.6808 0.0
H522 H 0.36789 0.13992 0.6374 0.0
H523 H 0.28801 0.12339 0.65919 0.0
H524 H 0.30907 0.18644 0.62908 0.0
H525 H 0.36143 0.01641 0.63035 0.0
H526 H 0.38397 0.10125 0.70749 0.0
H527 H 0.39458 0.15928 0.66287 0.0
H528 H 0.90451 0.54509 0.18576 0.0
H529 H 0.93082 0.51202 0.1771 0.0
H530 H 0.96084 0.5523 0.12409 0.0
H531 H 0.93404 0.58542 0.13266 0.0
H532 H 0.95706 0.50536 0.11382 0.0
H533 H 0.98696 0.55139 0.17402 0.0
H534 H 0.98493 0.57031 0.21016 0.0
H535 H 0.97335 0.50256 0.24006 0.0
H536 H 0.97487 0.48327 0.20404 0.0
H537 H 0.06967 0.45089 0.10596 0.0
H538 H 0.03533 0.47662 0.10949 0.0
H539 H 0.01191 0.4367 0.16542 0.0
H540 H 0.04706 0.4116 0.1627 0.0
H541 H 0.01032 0.4816 0.17423 0.0
H542 H 0.98257 0.43487 0.1148 0.0
H543 H 0.98443 0.41548 0.07887 0.0
H544 H 0.99159 0.48322 0.04781 0.0
H545 H 0.99011 0.50302 0.08358 0.0
C546 C 0.91657 0.54673 0.17213 0.0
C547 C 0.91762 0.56786 0.16009 0.0
C548 C 0.93157 0.52787 0.16718 0.0
C549 C 0.94822 0.5299 0.15029 0.0
C550 C 0.94823 0.55042 0.13729 0.0
C551 C 0.93296 0.56928 0.14213 0.0
C552 C 0.96661 0.51137 0.14728 0.0
C553 C 0.96888 0.50028 0.12694 0.0
C554 C 0.9816 0.50432 0.1646 0.0
C555 C 0.98083 0.51591 0.1863 0.0
C556 C 0.98382 0.54054 0.18828 0.0
C557 C 0.98278 0.55133 0.20875 0.0
C558 C 0.97905 0.53764 0.22739 0.0
C559 C 0.9763 0.51313 0.22561 0.0
C560 C 0.97722 0.50227 0.20517 0.0
C561 C 0.05726 0.44751 0.11903 0.0
C562 C 0.06136 0.42926 0.13418 0.0
C563 C 0.03738 0.46209 0.12085 0.0
C564 C 0.02083 0.45853 0.1376 0.0
C565 C 0.0244 0.4398 0.15232 0.0
C566 C 0.04444 0.42529 0.15062 0.0
C567 C 1.00089 0.47545 0.14072 0.0
C568 C 0.99838 0.48639 0.16112 0.0
C569 C 0.98565 0.48225 0.12347 0.0
C570 C 0.98641 0.47041 0.10191 0.0
C571 C 0.98471 0.44563 0.10032 0.0
C572 C 0.98567 0.43456 0.07998 0.0
C573 C 0.98817 0.4481 0.06108 0.0
C574 C 0.98966 0.47275 0.06247 0.0
C575 C 0.98873 0.48391 0.08277 0.0
H576 H 0.98892 0.4395 0.04535 0.0
H577 H 0.97823 0.54602 0.24322 0.0
H578 H 0.52897 0.09199 0.10923 0.0
H579 H 0.50445 0.05662 0.11333 0.0
H580 H 0.54882 0.03294 0.16621 0.0
H581 H 0.57392 0.06811 0.16149 0.0
H582 H 0.53446 0.9956 0.14409 0.0
H583 H 0.49554 0.0613 0.17601 0.0
H584 H 0.47955 0.10182 0.17866 0.0
H585 H 0.43177 0.0875 0.12593 0.0
H586 H 0.44771 0.04697 0.12275 0.0
H587 H 0.44179 0.91565 0.17871 0.0
H588 H 0.47281 0.94596 0.17653 0.0
H589 H 0.43592 0.97895 0.12294 0.0
H590 H 0.4043 0.94947 0.12616 0.0
H591 H 0.44816 0.01109 0.15023 0.0
H592 H 0.49368 0.94486 0.1173 0.0
H593 H 0.50769 0.90351 0.11975 0.0
H594 H 0.54062 0.91859 0.18121 0.0
H595 H 0.52723 0.96013 0.17885 0.0
C596 C 0.53359 0.07915 0.1216 0.0
C597 C 0.55317 0.08298 0.13525 0.0
C598 C 0.51954 0.05894 0.12401 0.0
C599 C 0.52431 0.04233 0.1405 0.0
C600 C 0.5446 0.0455 0.15346 0.0
C601 C 0.55895 0.0656 0.15078 0.0
C602 C 0.50735 0.02254 0.14476 0.0
C603 C 0.51562 0.99905 0.14559 0.0
C604 C 0.48272 0.02682 0.14713 0.0
C605 C 0.47297 0.05115 0.14903 0.0
C606 C 0.48173 0.06684 0.16488 0.0
C607 C 0.47266 0.0898 0.16649 0.0
C608 C 0.45469 0.09725 0.15244 0.0
C609 C 0.44571 0.08172 0.13679 0.0
C610 C 0.45474 0.05873 0.13509 0.0
C611 C 0.44066 0.92916 0.16624 0.0
C612 C 0.42081 0.93022 0.1525 0.0
C613 C 0.45843 0.94646 0.16491 0.0
C614 C 0.45706 0.9647 0.14932 0.0
C615 C 0.43749 0.96518 0.13515 0.0
C616 C 0.41948 0.94829 0.13687 0.0
C617 C 0.47505 0.98412 0.14834 0.0
C618 C 0.46698 0.00763 0.14849 0.0
C619 C 0.49979 0.97984 0.1474 0.0
C620 C 0.50947 0.95551 0.1479 0.0
C621 C 0.50412 0.93937 0.13121 0.0
C622 C 0.51192 0.91592 0.13259 0.0
C623 C 0.52498 0.90841 0.15064 0.0
C624 C 0.53048 0.92441 0.16725 0.0
C625 C 0.52302 0.94797 0.16578 0.0
H626 H 0.5309 0.89023 0.15172 0.0
H627 H 0.44769 0.11504 0.15371 0.0
H628 H 0.90083 0.44896 0.35916 0.0
H629 H 0.92835 0.48142 0.3678 0.0
H630 H 0.98712 0.43273 0.36347 0.0
H631 H 0.95979 0.40052 0.35529 0.0
H632 H 0.99377 0.46305 0.3961 0.0
H633 H 0.96923 0.46716 0.32005 0.0
H634 H 0.94056 0.47202 0.29009 0.0
H635 H 0.92048 0.5401 0.31515 0.0
H636 H 0.94885 0.53549 0.34544 0.0
H637 H 0.0945 0.51283 0.34824 0.0
H638 H 0.05802 0.4921 0.35826 0.0
H639 H 0.02385 0.55903 0.37091 0.0
H640 H 0.06076 0.57987 0.36112 0.0
H641 H 0.99876 0.52792 0.34181 0.0
H642 H 0.0319 0.52631 0.41273 0.0
H643 H 0.06313 0.5209 0.44031 0.0
H644 H 0.06884 0.44741 0.42322 0.0
H645 H 0.03791 0.45244 0.3953 0.0
C646 C 0.91957 0.44519 0.3606 0.0
C647 C 0.92827 0.42232 0.35637 0.0
C648 C 0.93528 0.46374 0.36534 0.0
C649 C 0.95984 0.45957 0.36599 0.0
C650 C 0.96828 0.43643 0.36302 0.0
C651 C 0.95269 0.41804 0.35821 0.0
C652 C 0.97723 0.47918 0.3682 0.0
C653 C 0.99479 0.47732 0.38431 0.0
C654 C 0.9782 0.49823 0.3532 0.0
C655 C 0.96088 0.50081 0.3352 0.0
C656 C 0.95851 0.48305 0.3193 0.0
C657 C 0.94236 0.48578 0.30223 0.0
C658 C 0.92863 0.50631 0.30076 0.0
C659 C 0.93106 0.52417 0.31635 0.0
C660 C 0.94717 0.5215 0.33348 0.0
C661 C 0.07931 0.52305 0.35353 0.0
C662 C 0.08035 0.54786 0.35397 0.0
C663 C 0.05853 0.51125 0.35931 0.0
C664 C 0.03827 0.52404 0.36542 0.0
C665 C 0.03935 0.54886 0.36635 0.0
C666 C 0.06039 0.5607 0.36091 0.0
C667 C 0.01574 0.51112 0.36912 0.0
C668 C 0.99728 0.51419 0.3541 0.0
C669 C 0.01406 0.49302 0.38494 0.0
C670 C 0.0326 0.4898 0.40184 0.0
C671 C 0.03991 0.50903 0.41474 0.0
C672 C 0.05756 0.50602 0.43046 0.0
C673 C 0.06797 0.48383 0.43351 0.0
C674 C 0.06074 0.46458 0.42086 0.0
C675 C 0.04312 0.4675 0.40511 0.0
H676 H 0.08164 0.48154 0.44568 0.0
H677 H 0.91617 0.50843 0.28751 0.0
H678 H 0.54607 0.90312 0.31748 0.0
H679 H 0.52194 0.93841 0.30992 0.0
H680 H 0.52967 0.96034 0.37691 0.0
H681 H 0.55245 0.92452 0.38454 0.0
H682 H 0.48666 0.96548 0.36662 0.0
H683 H 0.56037 0.98659 0.32925 0.0
H684 H 0.5919 0.97869 0.30229 0.0
H685 H 0.54026 0.97769 0.25103 0.0
H686 H 0.50842 0.98542 0.27769 0.0
H687 H 0.46841 0.08796 0.36761 0.0
H688 H 0.48737 0.04922 0.36526 0.0
H689 H 0.44818 0.03391 0.30673 0.0
H690 H 0.42884 0.07304 0.30911 0.0
H691 H 0.502 0.02303 0.3072 0.0
H692 H 0.42924 0.00477 0.34375 0.0
H693 H 0.39725 0.01203 0.37036 0.0
H694 H 0.44732 0.00675 0.42275 0.0
H695 H 0.47964 0.99997 0.39634 0.0
C696 C 0.54272 0.9157 0.33043 0.0
C697 C 0.55102 0.91119 0.35158 0.0
C698 C 0.52902 0.9359 0.32613 0.0
C699 C 0.52405 0.95233 0.34278 0.0
C700 C 0.53301 0.94799 0.36376 0.0
C701 C 0.54612 0.92758 0.36814 0.0
C702 C 0.50885 0.97363 0.33897 0.0
C703 C 0.49026 0.97806 0.35368 0.0
C704 C 0.51269 0.98977 0.32159 0.0
C705 C 0.532 0.98633 0.30549 0.0
C706 C 0.55576 0.98467 0.31223 0.0
C707 C 0.57367 0.9802 0.29701 0.0
C708 C 0.56804 0.9775 0.27499 0.0
C709 C 0.54456 0.97968 0.2681 0.0
C710 C 0.52659 0.98416 0.28325 0.0
C711 C 0.46388 0.07645 0.35416 0.0
C712 C 0.44718 0.08358 0.33851 0.0
C713 C 0.47472 0.05429 0.35285 0.0
C714 C 0.46931 0.03876 0.33576 0.0
C715 C 0.45271 0.04574 0.31997 0.0
C716 C 0.44153 0.06792 0.32146 0.0
C717 C 0.48066 0.01501 0.33533 0.0
C718 C 0.49841 0.01018 0.31991 0.0
C719 C 0.47616 0.99843 0.35204 0.0
C720 C 0.45683 0.00213 0.36806 0.0
C721 C 0.43341 0.00543 0.36093 0.0
C722 C 0.41523 0.0094 0.37597 0.0
C723 C 0.42026 0.00991 0.39824 0.0
C724 C 0.44346 0.00638 0.40549 0.0
C725 C 0.46171 0.00246 0.39049 0.0
H726 H 0.40617 0.01298 0.40988 0.0
H727 H 0.58185 0.97369 0.26327 0.0
H728 H 0.93103 0.55767 0.86435 0.0
H729 H 0.95455 0.52132 0.85938 0.0
H730 H 0.01667 0.56368 0.84665 0.0
H731 H 0.99334 0.59956 0.85114 0.0
H732 H 0.01473 0.52732 0.81911 0.0
H733 H 0.00538 0.53883 0.89717 0.0
H734 H 0.98208 0.54289 0.93097 0.0
H735 H 0.95122 0.47435 0.92041 0.0
H736 H 0.97414 0.47004 0.88638 0.0
H737 H 0.11699 0.46724 0.85212 0.0
H738 H 0.08245 0.49298 0.85272 0.0
H739 H 0.03653 0.43236 0.84734 0.0
H740 H 0.07124 0.40622 0.84561 0.0
H741 H 0.02397 0.47129 0.88077 0.0
H742 H 0.03859 0.45749 0.80543 0.0
H743 H 0.06208 0.45386 0.77177 0.0
H744 H 0.08282 0.52679 0.77682 0.0
H745 H 0.05985 0.53074 0.81083 0.0
C746 C 0.94963 0.55912 0.86022 0.0
C747 C 0.96039 0.58151 0.85842 0.0
C748 C 0.9631 0.53837 0.85754 0.0
C749 C 0.98751 0.53971 0.85289 0.0
C750 C 0.99794 0.56208 0.85029 0.0
C751 C 0.9846 0.58265 0.85306 0.0
C752 C 0.00272 0.51817 0.85132 0.0
C753 C 0.01671 0.51508 0.8326 0.0
C754 C 0.00488 0.5017 0.86863 0.0
C755 C 0.99123 0.50425 0.88911 0.0
C756 C 0.99349 0.52471 0.90198 0.0
C757 C 0.98037 0.52704 0.92119 0.0
C758 C 0.96511 0.50892 0.9278 0.0
C759 C 0.963 0.4884 0.91524 0.0
C760 C 0.97605 0.486 0.896 0.0
C761 C 0.09966 0.4592 0.85093 0.0
C762 C 0.09712 0.43452 0.84846 0.0
C763 C 0.07987 0.47402 0.85141 0.0
C764 C 0.05696 0.46462 0.84983 0.0
C765 C 0.0541 0.43997 0.84853 0.0
C766 C 0.07401 0.42504 0.84768 0.0
C767 C 0.03638 0.48101 0.84884 0.0
C768 C 0.02153 0.48319 0.86708 0.0
C769 C 0.03342 0.4967 0.83109 0.0
C770 C 0.04766 0.49434 0.81084 0.0
C771 C 0.04841 0.47268 0.79955 0.0
C772 C 0.06159 0.47058 0.78035 0.0
C773 C 0.07398 0.49007 0.77217 0.0
C774 C 0.07324 0.5117 0.78319 0.0
C775 C 0.06014 0.51387 0.80244 0.0
H776 H 0.0841 0.48844 0.75726 0.0
H777 H 0.95497 0.51076 0.94267 0.0
H778 H 0.40178 1.00131 0.87462 0.0
H779 H 0.43877 0.02261 0.87069 0.0
H780 H 0.47173 0.96035 0.84364 0.0
H781 H 0.4348 0.93827 0.84856 0.0
H782 H 0.50072 0.98072 0.872 0.0
H783 H 0.45522 0.00932 0.81141 0.0
H784 H 0.41966 0.02619 0.79397 0.0
H785 H 0.42637 0.08897 0.8329 0.0
H786 H 0.46165 0.07224 0.85093 0.0
H787 H 0.60455 0.0383 0.83659 0.0
H788 H 0.56683 0.01734 0.83724 0.0
H789 H 0.53275 0.07919 0.864 0.0
H790 H 0.57072 0.10056 0.8629 0.0
H791 H 0.50432 0.05873 0.83506 0.0
H792 H 0.54869 0.03036 0.89629 0.0
H793 H 0.58327 0.01333 0.91516 0.0
H794 H 0.57792 0.95039 0.87626 0.0
H795 H 0.54348 0.96719 0.85695 0.0
C796 C 0.4168 0.99184 0.86802 0.0
C797 C 0.415 0.96777 0.8621 0.0
C798 C 0.43804 0.00431 0.86548 0.0
C799 C 0.45813 0.99331 0.85656 0.0
C800 C 0.4565 0.96934 0.8505 0.0
C801 C 0.43521 0.95673 0.85318 0.0
C802 C 0.48086 0.00677 0.85411 0.0
C803 C 0.50154 0.99759 0.86359 0.0
C804 C 0.48196 0.02918 0.84371 0.0
C805 C 0.46103 0.03949 0.83257 0.0
C806 C 0.44905 0.02668 0.81631 0.0
C807 C 0.42893 0.0362 0.80634 0.0
C808 C 0.42075 0.05862 0.81234 0.0
C809 C 0.43269 0.07158 0.8283 0.0
C810 C 0.45274 0.06208 0.83842 0.0
C811 C 0.58909 0.04748 0.84272 0.0
C812 C 0.59082 0.07104 0.85007 0.0
C813 C 0.56744 0.03542 0.84309 0.0
C814 C 0.54688 0.04638 0.85117 0.0
C815 C 0.54831 0.07022 0.85778 0.0
C816 C 0.57003 0.08245 0.85717 0.0
C817 C 0.52416 0.03273 0.85299 0.0
C818 C 0.50348 0.04186 0.84341 0.0
C819 C 0.52301 0.01032 0.8634 0.0
C820 C 0.54364 1.00013 0.87505 0.0
C821 C 0.55498 0.01296 0.89167 0.0
C822 C 0.57454 0.00333 0.90245 0.0
C823 C 0.58282 0.98081 0.89688 0.0
C824 C 0.5715 0.96784 0.88055 0.0
C825 C 0.55195 0.9774 0.86969 0.0
H826 H 0.59796 0.9734 0.90525 0.0
H827 H 0.40517 0.06596 0.8046 0.0
H828 H 0.93747 0.44205 0.62715 0.0
H829 H 0.96452 0.4755 0.62076 0.0
H830 H 0.01906 0.43946 0.65715 0.0
H831 H 0.99199 0.40657 0.66389 0.0
H832 H 0.01733 0.48215 0.67056 0.0
H833 H 0.02009 0.44622 0.59986 0.0
H834 H 0.00369 0.43039 0.56563 0.0
H835 H 0.97423 0.49852 0.55049 0.0
H836 H 0.9902 0.51469 0.58479 0.0
H837 H 0.11269 0.55288 0.60856 0.0
H838 H 0.08258 0.5217 0.60903 0.0
H839 H 0.04027 0.56312 0.65341 0.0
H840 H 0.07048 0.59428 0.65317 0.0
H841 H 0.03548 0.51852 0.59895 0.0
H842 H 0.01726 0.52371 0.69191 0.0
H843 H 0.03782 0.53511 0.72578 0.0
H844 H 0.10512 0.52204 0.69538 0.0
H845 H 0.08495 0.51017 0.6615 0.0
C846 C 0.95538 0.44117 0.6334 0.0
C847 C 0.96259 0.42174 0.64608 0.0
C848 C 0.97085 0.4603 0.6298 0.0
C849 C 0.99396 0.46015 0.6385 0.0
C850 C 1.00133 0.44027 0.65045 0.0
C851 C 0.98586 0.42139 0.65423 0.0
C852 C 0.0103 0.48089 0.63608 0.0
C853 C 0.02113 0.49013 0.65487 0.0
C854 C 0.01569 0.49125 0.61564 0.0
C855 C 0.00612 0.48159 0.595 0.0
C856 C 0.00996 0.45778 0.58931 0.0
C857 C 1.00077 0.44875 0.56988 0.0
C858 C 0.98787 0.46342 0.55592 0.0
C859 C 0.98419 0.48717 0.56134 0.0
C860 C 0.99332 0.49628 0.58076 0.0
C861 C 0.09687 0.55547 0.61825 0.0
C862 C 0.09408 0.57607 0.63089 0.0
C863 C 0.07959 0.53767 0.6184 0.0
C864 C 0.05922 0.53991 0.6314 0.0
C865 C 0.0559 0.56088 0.64336 0.0
C866 C 0.07311 0.5788 0.64307 0.0
C867 C 0.04226 0.51974 0.63342 0.0
C868 C 0.03137 0.51066 0.61462 0.0
C869 C 0.03727 0.50906 0.65379 0.0
C870 C 0.04958 0.51638 0.67406 0.0
C871 C 0.03644 0.52327 0.69246 0.0
C872 C 0.04803 0.52978 0.71167 0.0
C873 C 0.07276 0.52939 0.7127 0.0
C874 C 0.08597 0.52244 0.69454 0.0
C875 C 0.07447 0.51585 0.67532 0.0
H876 H 0.08169 0.5344 0.7276 0.0
H877 H 0.98077 0.4564 0.54089 0.0
H878 H 0.42466 0.0627 0.65263 0.0
H879 H 0.46298 0.04237 0.65477 0.0
H880 H 0.43567 0.98588 0.61474 0.0
H881 H 0.39746 0.00598 0.61277 0.0
H882 H 0.45782 0.96752 0.64762 0.0
H883 H 0.47706 0.02779 0.59572 0.0
H884 H 0.48022 0.06854 0.58158 0.0
H885 H 0.52617 0.08715 0.63456 0.0
H886 H 0.52304 0.04658 0.64918 0.0
H887 H 0.56985 0.90848 0.63396 0.0
H888 H 0.53116 0.92789 0.62977 0.0
H889 H 0.55778 0.98926 0.6638 0.0
H890 H 0.59658 0.97046 0.6665 0.0
H891 H 0.53548 0.00484 0.63206 0.0
H892 H 0.51244 0.94603 0.68595 0.0
H893 H 0.50827 0.90584 0.70058 0.0
H894 H 0.46939 0.88461 0.64382 0.0
H895 H 0.47309 0.92506 0.62887 0.0
C896 C 0.42694 0.04614 0.64403 0.0
C897 C 0.40788 0.03596 0.63261 0.0
C898 C 0.44891 0.03447 0.64525 0.0
C899 C 0.45242 0.01253 0.63482 0.0
C900 C 0.43351 0.00266 0.62306 0.0
C901 C 0.41158 0.01419 0.62197 0.0
C902 C 0.47535 0.9993 0.63684 0.0
C903 C 0.47477 0.97565 0.64392 0.0
C904 C 0.49764 0.00982 0.63245 0.0
C905 C 0.49963 0.0342 0.62365 0.0
C906 C 0.4877 0.04062 0.60444 0.0
C907 C 0.48951 0.06368 0.59633 0.0
C908 C 0.50333 0.08044 0.6072 0.0
C909 C 0.51544 0.07416 0.62617 0.0
C910 C 0.51367 0.05113 0.63437 0.0
C911 C 0.56718 0.92592 0.64086 0.0
C912 C 0.58619 0.93789 0.65068 0.0
C913 C 0.545 0.93708 0.63854 0.0
C914 C 0.54114 0.96018 0.64662 0.0
C915 C 0.56003 0.97161 0.6572 0.0
C916 C 0.58223 0.96075 0.65898 0.0
C917 C 0.51806 0.97309 0.64329 0.0
C918 C 0.51857 0.99669 0.63582 0.0
C919 C 0.49567 0.96256 0.64731 0.0
C920 C 0.49334 0.93838 0.6562 0.0
C921 C 0.50311 0.93276 0.67655 0.0
C922 C 0.50077 0.90992 0.68491 0.0
C923 C 0.48884 0.8925 0.67305 0.0
C924 C 0.47877 0.89806 0.65293 0.0
C925 C 0.48088 0.92097 0.64454 0.0
H926 H 0.48737 0.87471 0.67939 0.0
H927 H 0.50471 0.09829 0.60089 0.0
H928 H 0.21377 0.33463 0.19248 0.0
H929 H 0.24076 0.32005 0.22089 0.0
H930 H 0.19557 0.25941 0.2308 0.0
H931 H 0.16866 0.27389 0.20274 0.0
H932 H 0.20973 0.28012 0.26954 0.0
H933 H 0.24495 0.25394 0.20152 0.0
H934 H 0.26199 0.25999 0.16495 0.0
H935 H 0.31601 0.30468 0.192 0.0
H936 H 0.29907 0.29914 0.22872 0.0
H937 H 0.27673 0.19102 0.31981 0.0
H938 H 0.25266 0.21648 0.29682 0.0
H939 H 0.31104 0.2653 0.29044 0.0
H940 H 0.33543 0.23965 0.3135 0.0
H941 H 0.29242 0.25714 0.25198 0.0
H942 H 0.26079 0.2794 0.3206 0.0
H943 H 0.24403 0.27395 0.35734 0.0
H944 H 0.18366 0.23845 0.33012 0.0
H945 H 0.20023 0.24336 0.29322 0.0
C946 C 0.2096 0.31825 0.20081 0.0
C947 C 0.18922 0.30529 0.19521 0.0
C948 C 0.22505 0.3099 0.21695 0.0
C949 C 0.22022 0.28857 0.22788 0.0
C950 C 0.19966 0.27588 0.22257 0.0
C951 C 0.18441 0.28407 0.20635 0.0
C952 C 0.23658 0.27901 0.24466 0.0
C953 C 0.22779 0.27498 0.26572 0.0
C954 C 0.26038 0.27309 0.23986 0.0
C955 C 0.27057 0.27637 0.21781 0.0
C956 C 0.26033 0.26523 0.19964 0.0
C957 C 0.26999 0.26853 0.17889 0.0
C958 C 0.29002 0.28277 0.17614 0.0
C959 C 0.30047 0.29369 0.19414 0.0
C960 C 0.29085 0.29047 0.21493 0.0
C961 C 0.28437 0.20741 0.31399 0.0
C962 C 0.30806 0.21328 0.31864 0.0
C963 C 0.27053 0.22201 0.30076 0.0
C964 C 0.27988 0.24303 0.29206 0.0
C965 C 0.3034 0.2492 0.29696 0.0
C966 C 0.31734 0.23449 0.31014 0.0
C967 C 0.26542 0.25764 0.27685 0.0
C968 C 0.27453 0.26263 0.25604 0.0
C969 C 0.24193 0.26462 0.28195 0.0
C970 C 0.23186 0.26162 0.30413 0.0
C971 C 0.24403 0.27027 0.32245 0.0
C972 C 0.23455 0.2673 0.34331 0.0
C973 C 0.21282 0.25582 0.34607 0.0
C974 C 0.2005 0.24733 0.32796 0.0
C975 C 0.20992 0.25023 0.30706 0.0
H976 H 0.2055 0.25354 0.36223 0.0
H977 H 0.29748 0.2853 0.16006 0.0
H978 H 0.79779 0.29478 0.30868 0.0
H979 H 0.7777 0.2713 0.2809 0.0
H980 H 0.72611 0.32688 0.27249 0.0
H981 H 0.74623 0.35052 0.30042 0.0
H982 H 0.70571 0.28248 0.27064 0.0
H983 H 0.77122 0.32263 0.23734 0.0
H984 H 0.8129 0.33528 0.23413 0.0
H985 H 0.83486 0.26276 0.22848 0.0
H986 H 0.79333 0.24964 0.23198 0.0
H987 H 0.66432 0.23259 0.17133 0.0
H988 H 0.68108 0.26103 0.19713 0.0
H989 H 0.73949 0.21356 0.20927 0.0
H990 H 0.72299 0.18529 0.18341 0.0
H991 H 0.75497 0.25751 0.20769 0.0
H992 H 0.69025 0.21715 0.24368 0.0
H993 H 0.64875 0.20397 0.24716 0.0
H994 H 0.62538 0.27632 0.24783 0.0
H995 H 0.66676 0.28993 0.2441 0.0
C996 C 0.78212 0.30198 0.30099 0.0
C997 C 0.7738 0.32465 0.30655 0.0
C998 C 0.77063 0.28853 0.28512 0.0
C999 C 0.75068 0.29754 0.27428 0.0
C1000 C 0.74154 0.31963 0.28057 0.0
C1001 C 0.75301 0.3331 0.29658 0.0
C1002 C 0.74022 0.28426 0.25573 0.0
C1003 C 0.71635 0.27732 0.25671 0.0
C1004 C 0.75419 0.27729 0.23765 0.0
C1005 C 0.77916 0.28514 0.23508 0.0
C1006 C 0.78494 0.30937 0.23553 0.0
C1007 C 0.80855 0.31662 0.23365 0.0
C1008 C 0.82652 0.29983 0.23115 0.0
C1009 C 0.82092 0.27574 0.23043 0.0
C1010 C 0.79734 0.26839 0.23233 0.0
C1011 C 0.6808 0.22829 0.1794 0.0
C1012 C 0.69222 0.20657 0.17538 0.0
C1013 C 0.69035 0.24454 0.19418 0.0
C1014 C 0.71133 0.23926 0.20549 0.0
C1015 C 0.72327 0.21806 0.20079 0.0
C1016 C 0.71385 0.20192 0.18589 0.0
C1017 C 0.72056 0.25527 0.22276 0.0
C1018 C 0.74423 0.26279 0.22152 0.0
C1019 C 0.7064 0.2627 0.2406 0.0
C1020 C 0.68158 0.25455 0.24339 0.0
C1021 C 0.67625 0.23025 0.24447 0.0
C1022 C 0.65275 0.2227 0.24649 0.0
C1023 C 0.63443 0.23929 0.24764 0.0
C1024 C 0.63959 0.26348 0.2469 0.0
C1025 C 0.66307 0.27113 0.24486 0.0
H1026 H 0.61624 0.23342 0.24916 0.0
H1027 H 0.84479 0.30548 0.22973 0.0
H1028 H 0.70568 0.80519 0.30136 0.0
H1029 H 0.72166 0.78594 0.26892 0.0
H1030 H 0.65954 0.74169 0.26508 0.0
H1031 H 0.6432 0.76131 0.29768 0.0
H1032 H 0.70644 0.71778 0.26197 0.0
H1033 H 0.66162 0.78002 0.22952 0.0
H1034 H 0.64745 0.82101 0.22493 0.0
H1035 H 0.71827 0.84398 0.2105 0.0
H1036 H 0.73298 0.80323 0.21546 0.0
H1037 H 0.76449 0.6729 0.16781 0.0
H1038 H 0.73175 0.68857 0.18981 0.0
H1039 H 0.77041 0.75376 0.19882 0.0
H1040 H 0.80262 0.73849 0.17666 0.0
H1041 H 0.7258 0.76372 0.1954 0.0
H1042 H 0.77155 0.70605 0.23681 0.0
H1043 H 0.78826 0.66649 0.24421 0.0
H1044 H 0.71835 0.63646 0.24368 0.0
H1045 H 0.70125 0.67586 0.23619 0.0
C1046 C 0.69549 0.79125 0.29372 0.0
C1047 C 0.67331 0.78455 0.30212 0.0
C1048 C 0.70453 0.78043 0.27509 0.0
C1049 C 0.6917 0.76252 0.26458 0.0
C1050 C 0.66963 0.75556 0.27297 0.0
C1051 C 0.66034 0.76674 0.29149 0.0
C1052 C 0.70205 0.75092 0.24516 0.0
C1053 C 0.71014 0.72756 0.24713 0.0
C1054 C 0.70723 0.76393 0.22607 0.0
C1055 C 0.69843 0.78852 0.22297 0.0
C1056 C 0.67422 0.79383 0.22555 0.0
C1057 C 0.66608 0.81703 0.22286 0.0
C1058 C 0.68195 0.83508 0.21742 0.0
C1059 C 0.70599 0.82997 0.2147 0.0
C1060 C 0.71424 0.80681 0.21743 0.0
C1061 C 0.76577 0.6907 0.17423 0.0
C1062 C 0.78622 0.70438 0.17054 0.0
C1063 C 0.7471 0.69962 0.18685 0.0
C1064 C 0.74877 0.72221 0.19635 0.0
C1065 C 0.76861 0.73631 0.19167 0.0
C1066 C 0.78707 0.72755 0.17889 0.0
C1067 C 0.73099 0.73078 0.21246 0.0
C1068 C 0.72154 0.75364 0.20992 0.0
C1069 C 0.72488 0.71745 0.23122 0.0
C1070 C 0.73516 0.6938 0.23567 0.0
C1071 C 0.75977 0.69097 0.23812 0.0
C1072 C 0.76931 0.66859 0.24236 0.0
C1073 C 0.75438 0.64895 0.2443 0.0
C1074 C 0.72989 0.65167 0.24211 0.0
C1075 C 0.72026 0.67402 0.23789 0.0
H1076 H 0.76177 0.63163 0.24759 0.0
H1077 H 0.67561 0.85301 0.21525 0.0
H1078 H 0.21403 0.71196 0.34735 0.0
H1079 H 0.2459 0.73182 0.32736 0.0
H1080 H 0.26117 0.6668 0.29327 0.0
H1081 H 0.23019 0.64681 0.31386 0.0
H1082 H 0.30046 0.69038 0.29726 0.0
H1083 H 0.22207 0.70927 0.27274 0.0
H1084 H 0.18087 0.72328 0.27639 0.0
H1085 H 0.20586 0.79177 0.29621 0.0
H1086 H 0.24724 0.77803 0.293 0.0
H1087 H 0.3321 0.74143 0.19239 0.0
H1088 H 0.31328 0.71981 0.2226 0.0
H1089 H 0.31862 0.78195 0.26303 0.0
H1090 H 0.33767 0.8034 0.23316 0.0
H1091 H 0.27117 0.76101 0.25745 0.0
H1092 H 0.35108 0.74062 0.27746 0.0
H1093 H 0.39114 0.72473 0.27089 0.0
H1094 H 0.36155 0.65678 0.2553 0.0
H1095 H 0.32125 0.67237 0.2615 0.0
C1096 C 0.2246 0.7018 0.33598 0.0
C1097 C 0.21922 0.67791 0.33189 0.0
C1098 C 0.24274 0.71317 0.32447 0.0
C1099 C 0.25544 0.70103 0.30823 0.0
C1100 C 0.25152 0.67666 0.30554 0.0
C1101 C 0.23369 0.66519 0.31736 0.0
C1102 C 0.27091 0.71405 0.2926 0.0
C1103 C 0.29399 0.70576 0.2885 0.0
C1104 C 0.26258 0.73417 0.28109 0.0
C1105 C 0.23773 0.74255 0.28287 0.0
C1106 C 0.21877 0.72727 0.27801 0.0
C1107 C 0.19539 0.73516 0.27999 0.0
C1108 C 0.19075 0.75838 0.28659 0.0
C1109 C 0.20948 0.77378 0.29115 0.0
C1110 C 0.2329 0.76595 0.28925 0.0
C1111 C 0.32963 0.75025 0.20787 0.0
C1112 C 0.33647 0.77401 0.21046 0.0
C1113 C 0.31897 0.73792 0.22509 0.0
C1114 C 0.31465 0.74931 0.24503 0.0
C1115 C 0.32195 0.77284 0.24781 0.0
C1116 C 0.33298 0.785 0.23077 0.0
C1117 C 0.30062 0.73741 0.26227 0.0
C1118 C 0.27771 0.74584 0.26647 0.0
C1119 C 0.30893 0.71716 0.27342 0.0
C1120 C 0.33313 0.70773 0.26974 0.0
C1121 C 0.35309 0.72235 0.27243 0.0
C1122 C 0.37585 0.71338 0.26882 0.0
C1123 C 0.37889 0.68978 0.26262 0.0
C1124 C 0.35917 0.67507 0.26008 0.0
C1125 C 0.33637 0.68396 0.26367 0.0
H1126 H 0.39652 0.68286 0.25984 0.0
H1127 H 0.17263 0.76446 0.28811 0.0
H1128 H 0.70428 0.82738 0.7211 0.0
H1129 H 0.72472 0.80338 0.74816 0.0
H1130 H 0.76444 0.76883 0.69726 0.0
H1131 H 0.74325 0.79199 0.66994 0.0
H1132 H 0.75239 0.73745 0.72726 0.0
H1133 H 0.78834 0.81441 0.72813 0.0
H1134 H 0.78886 0.85798 0.73068 0.0
H1135 H 0.75972 0.85424 0.79521 0.0
H1136 H 0.75871 0.81063 0.79292 0.0
H1137 H 0.84463 0.69189 0.79433 0.0
H1138 H 0.82264 0.71421 0.76687 0.0
H1139 H 0.78047 0.74647 0.8174 0.0
H1140 H 0.80281 0.72466 0.84498 0.0
H1141 H 0.79383 0.77875 0.7875 0.0
H1142 H 0.75862 0.70125 0.78643 0.0
H1143 H 0.75865 0.6577 0.7835 0.0
H1144 H 0.78742 0.66247 0.7189 0.0
H1145 H 0.78788 0.70606 0.72156 0.0
C1146 C 0.71701 0.81443 0.7155 0.0
C1147 C 0.72214 0.81186 0.69317 0.0
C1148 C 0.72895 0.80085 0.73111 0.0
C1149 C 0.74652 0.78457 0.72485 0.0
C1150 C 0.7511 0.78137 0.70257 0.0
C1151 C 0.73908 0.79483 0.68693 0.0
C1152 C 0.76052 0.77135 0.7415 0.0
C1153 C 0.76169 0.74652 0.74027 0.0
C1154 C 0.77239 0.78306 0.75875 0.0
C1155 C 0.77324 0.80927 0.76027 0.0
C1156 C 0.7819 0.82289 0.74281 0.0
C1157 C 0.7823 0.84759 0.74421 0.0
C1158 C 0.77427 0.85888 0.76307 0.0
C1159 C 0.7659 0.84548 0.7806 0.0
C1160 C 0.76543 0.82077 0.77926 0.0
C1161 C 0.83089 0.70393 0.79966 0.0
C1162 C 0.8255 0.70642 0.82193 0.0
C1163 C 0.81813 0.71651 0.78389 0.0
C1164 C 0.79965 0.73182 0.79001 0.0
C1165 C 0.79455 0.7347 0.81224 0.0
C1166 C 0.80725 0.72208 0.828 0.0
C1167 C 0.78564 0.74488 0.7733 0.0
C1168 C 0.78451 0.76968 0.7745 0.0
C1169 C 0.77393 0.73314 0.75598 0.0
C1170 C 0.77351 0.70693 0.75429 0.0
C1171 C 0.76512 0.69301 0.77166 0.0
C1172 C 0.76502 0.66832 0.77004 0.0
C1173 C 0.77309 0.65732 0.75105 0.0
C1174 C 0.78121 0.67101 0.73362 0.0
C1175 C 0.78138 0.69571 0.73516 0.0
H1176 H 0.773 0.6382 0.74983 0.0
H1177 H 0.77458 0.878 0.76412 0.0
H1178 H 0.15623 0.72282 0.71896 0.0
H1179 H 0.1764 0.74637 0.74698 0.0
H1180 H 0.22764 0.76938 0.6992 0.0
H1181 H 0.20687 0.74686 0.67122 0.0
H1182 H 0.21601 0.74526 0.76516 0.0
H1183 H 0.2514 0.82171 0.71007 0.0
H1184 H 0.23877 0.84423 0.67767 0.0
H1185 H 0.16603 0.82767 0.69152 0.0
H1186 H 0.17818 0.80533 0.72415 0.0
H1187 H 0.31068 0.80051 0.81852 0.0
H1188 H 0.28463 0.7811 0.79237 0.0
H1189 H 0.24075 0.84364 0.78999 0.0
H1190 H 0.26753 0.86346 0.81568 0.0
H1191 H 0.24332 0.82744 0.75162 0.0
H1192 H 0.22447 0.79126 0.81895 0.0
H1193 H 0.2315 0.77108 0.85395 0.0
H1194 H 0.26107 0.71138 0.82024 0.0
H1195 H 0.25451 0.73134 0.78503 0.0
C1196 C 0.17171 0.73307 0.71451 0.0
C1197 C 0.17979 0.73325 0.69286 0.0
C1198 C 0.18328 0.74652 0.73051 0.0
C1199 C 0.20339 0.76017 0.72527 0.0
C1200 C 0.21176 0.75977 0.70369 0.0
C1201 C 0.19993 0.74678 0.68766 0.0
C1202 C 0.21606 0.77424 0.74235 0.0
C1203 C 0.22187 0.76325 0.76217 0.0
C1204 C 0.22324 0.79805 0.73894 0.0
C1205 C 0.21574 0.81167 0.71946 0.0
C1206 C 0.2327 0.82297 0.70626 0.0
C1207 C 0.22562 0.83568 0.68784 0.0
C1208 C 0.20162 0.83732 0.68251 0.0
C1209 C 0.18462 0.82632 0.69562 0.0
C1210 C 0.1916 0.81361 0.71407 0.0
C1211 C 0.29542 0.81009 0.81251 0.0
C1212 C 0.29102 0.83343 0.81936 0.0
C1213 C 0.28043 0.79893 0.79759 0.0
C1214 C 0.26025 0.81058 0.7895 0.0
C1215 C 0.25608 0.83413 0.79599 0.0
C1216 C 0.27138 0.84548 0.81068 0.0
C1217 C 0.24381 0.7982 0.77413 0.0
C1218 C 0.23731 0.8095 0.75465 0.0
C1219 C 0.23519 0.77502 0.77822 0.0
C1220 C 0.23916 0.76289 0.79935 0.0
C1221 C 0.23262 0.7739 0.819 0.0
C1222 C 0.2365 0.76249 0.83888 0.0
C1223 C 0.24677 0.73999 0.83932 0.0
C1224 C 0.25313 0.72882 0.81988 0.0
C1225 C 0.24931 0.74016 0.79995 0.0
H1226 H 0.24976 0.73118 0.85473 0.0
H1227 H 0.19618 0.84715 0.66823 0.0
H1228 H 0.25295 0.14191 0.66853 0.0
H1229 H 0.22779 0.16264 0.69479 0.0
H1230 H 0.26952 0.22593 0.68627 0.0
H1231 H 0.29461 0.20544 0.66012 0.0
H1232 H 0.23815 0.18017 0.73293 0.0
H1233 H 0.23737 0.27497 0.69574 0.0
H1234 H 0.23697 0.29381 0.6595 0.0
H1235 H 0.20561 0.23137 0.63198 0.0
H1236 H 0.20551 0.21228 0.66809 0.0
H1237 H 0.21835 0.26744 0.8128 0.0
H1238 H 0.23248 0.24288 0.78301 0.0
H1239 H 0.16725 0.25484 0.74824 0.0
H1240 H 0.1528 0.27954 0.77822 0.0
H1241 H 0.20369 0.26 0.72149 0.0
H1242 H 0.17934 0.20075 0.77164 0.0
H1243 H 0.17641 0.18031 0.80702 0.0
H1244 H 0.25159 0.16856 0.80687 0.0
H1245 H 0.25503 0.18924 0.77163 0.0
C1246 C 0.25669 0.16028 0.67209 0.0
C1247 C 0.27591 0.17191 0.66205 0.0
C1248 C 0.24224 0.17215 0.68714 0.0
C1249 C 0.24657 0.19596 0.69249 0.0
C1250 C 0.26541 0.20774 0.68217 0.0
C1251 C 0.2798 0.19594 0.66709 0.0
C1252 C 0.23235 0.20815 0.70971 0.0
C1253 C 0.23053 0.19757 0.73036 0.0
C1254 C 0.22188 0.23068 0.70637 0.0
C1255 C 0.22162 0.24213 0.68461 0.0
C1256 C 0.23028 0.2653 0.68198 0.0
C1257 C 0.23016 0.27601 0.66145 0.0
C1258 C 0.22133 0.26377 0.64344 0.0
C1259 C 0.21252 0.2408 0.64593 0.0
C1260 C 0.21258 0.23002 0.66642 0.0
C1261 C 0.20669 0.26457 0.7991 0.0
C1262 C 0.18428 0.27551 0.79813 0.0
C1263 C 0.2149 0.25048 0.78195 0.0
C1264 C 0.20089 0.24673 0.76338 0.0
C1265 C 0.17844 0.25745 0.76235 0.0
C1266 C 0.17019 0.27161 0.77954 0.0
C1267 C 0.21018 0.23231 0.74484 0.0
C1268 C 0.21112 0.2425 0.72398 0.0
C1269 C 0.21942 0.20922 0.74787 0.0
C1270 C 0.21745 0.1967 0.76905 0.0
C1271 C 0.19527 0.19396 0.77922 0.0
C1272 C 0.19352 0.18231 0.79924 0.0
C1273 C 0.21381 0.17318 0.80921 0.0
C1274 C 0.23589 0.17565 0.79914 0.0
C1275 C 0.23775 0.18731 0.77913 0.0
H1276 H 0.21241 0.16417 0.82471 0.0
H1277 H 0.22127 0.27209 0.62756 0.0
H1278 H 0.83979 0.27405 0.66411 0.0
H1279 H 0.82037 0.25011 0.69233 0.0
H1280 H 0.76795 0.30479 0.70117 0.0
H1281 H 0.78729 0.3288 0.67352 0.0
H1282 H 0.78696 0.29086 0.73974 0.0
H1283 H 0.75425 0.25304 0.67591 0.0
H1284 H 0.75628 0.232 0.64078 0.0
H1285 H 0.79459 0.17514 0.671 0.0
H1286 H 0.79307 0.19602 0.70627 0.0
H1287 H 0.69844 0.23795 0.80378 0.0
H1288 H 0.72186 0.25672 0.77536 0.0
H1289 H 0.76499 0.19397 0.76992 0.0
H1290 H 0.7413 0.17486 0.79844 0.0
H1291 H 0.75474 0.20977 0.73057 0.0
H1292 H 0.78601 0.24551 0.7945 0.0
H1293 H 0.78509 0.26603 0.82992 0.0
H1294 H 0.75179 0.32622 0.80016 0.0
H1295 H 0.75219 0.30593 0.7646 0.0
C1296 C 0.82398 0.28086 0.67189 0.0
C1297 C 0.81515 0.3034 0.66632 0.0
C1298 C 0.81284 0.2671 0.688 0.0
C1299 C 0.79265 0.27562 0.69894 0.0
C1300 C 0.78349 0.2978 0.69302 0.0
C1301 C 0.79449 0.31145 0.67691 0.0
C1302 C 0.78156 0.26215 0.71724 0.0
C1303 C 0.7797 0.27321 0.73765 0.0
C1304 C 0.77288 0.23877 0.71485 0.0
C1305 C 0.77379 0.22622 0.69367 0.0
C1306 C 0.7633 0.23615 0.67502 0.0
C1307 C 0.76431 0.22424 0.65509 0.0
C1308 C 0.77562 0.20228 0.65364 0.0
C1309 C 0.78588 0.19217 0.67214 0.0
C1310 C 0.78493 0.20403 0.6921 0.0
C1311 C 0.71315 0.2282 0.79691 0.0
C1312 C 0.71804 0.20489 0.80369 0.0
C1313 C 0.72657 0.239 0.78052 0.0
C1314 C 0.74552 0.22698 0.77059 0.0
C1315 C 0.75051 0.20369 0.77728 0.0
C1316 C 0.73694 0.19277 0.79364 0.0
C1317 C 0.75964 0.23872 0.75298 0.0
C1318 C 0.76215 0.22734 0.73274 0.0
C1319 C 0.76917 0.26177 0.75556 0.0
C1320 C 0.76897 0.2741 0.77691 0.0
C1321 C 0.77834 0.26305 0.79554 0.0
C1322 C 0.77793 0.27466 0.81564 0.0
C1323 C 0.76834 0.29739 0.8173 0.0
C1324 C 0.75919 0.3086 0.79885 0.0
C1325 C 0.75953 0.29706 0.77871 0.0
H1326 H 0.76805 0.30634 0.83288 0.0
H1327 H 0.77639 0.19308 0.6382 0.0
H1328 H 0.16602 0.38473 0.08691 0.0
H1329 H 0.17138 0.38547 0.04712 0.0
H1330 H 0.12915 0.32208 0.04142 0.0
H1331 H 0.12427 0.32098 0.08069 0.0
H1332 H 0.16409 0.31994 0.01358 0.0
H1333 H 0.10547 0.37782 0.03377 0.0
H1334 H 0.09042 0.41282 0.05342 0.0
H1335 H 0.14327 0.45626 0.02279 0.0
H1336 H 0.15888 0.42141 0.00321 0.0
H1337 H 0.12812 0.32894 0.90186 0.0
H1338 H 0.12607 0.32785 0.94192 0.0
H1339 H 0.17418 0.38706 0.94534 0.0
H1340 H 0.17635 0.3882 0.90578 0.0
H1341 H 0.13719 0.39171 0.97413 0.0
H1342 H 0.19476 0.33272 0.95316 0.0
H1343 H 0.20862 0.29718 0.9336 0.0
H1344 H 0.1556 0.25523 0.96572 0.0
H1345 H 0.14121 0.29062 0.98524 0.0
C1346 C 0.15835 0.37074 0.07715 0.0
C1347 C 0.14457 0.35293 0.08691 0.0
C1348 C 0.16122 0.37126 0.05442 0.0
C1349 C 0.15031 0.35403 0.04119 0.0
C1350 C 0.13768 0.33561 0.05116 0.0
C1351 C 0.13483 0.33509 0.07369 0.0
C1352 C 0.15077 0.35552 0.01697 0.0
C1353 C 0.15803 0.3356 0.00499 0.0
C1354 C 0.14302 0.37596 0.00565 0.0
C1355 C 0.13351 0.39697 0.01721 0.0
C1356 C 0.11398 0.39481 0.03134 0.0
C1357 C 0.10534 0.41461 0.04245 0.0
C1358 C 0.11592 0.43673 0.0394 0.0
C1359 C 0.13512 0.4391 0.02517 0.0
C1360 C 0.14388 0.41933 0.01406 0.0
C1361 C 0.13806 0.34181 0.9112 0.0
C1362 C 0.15253 0.35851 0.90066 0.0
C1363 C 0.13697 0.34113 0.93405 0.0
C1364 C 0.15015 0.35728 0.94663 0.0
C1365 C 0.16389 0.37442 0.93603 0.0
C1366 C 0.16519 0.37494 0.91336 0.0
C1367 C 0.15039 0.35611 0.97082 0.0
C1368 C 0.14327 0.3761 0.98276 0.0
C1369 C 0.15804 0.33566 0.98211 0.0
C1370 C 0.16675 0.31436 0.97047 0.0
C1371 C 0.18594 0.31596 0.95591 0.0
C1372 C 0.19391 0.29583 0.94486 0.0
C1373 C 0.18295 0.27397 0.94837 0.0
C1374 C 0.16404 0.27218 0.96299 0.0
C1375 C 0.15598 0.29226 0.97406 0.0
H1376 H 0.18915 0.25842 0.9398 0.0
H1377 H 0.10921 0.45205 0.04802 0.0
H1378 H 0.69446 0.1728 0.90421 0.0
H1379 H 0.69115 0.17827 0.94377 0.0
H1380 H 0.65264 0.11254 0.94864 0.0
H1381 H 0.65623 0.10699 0.90922 0.0
H1382 H 0.62744 0.15346 0.96252 0.0
H1383 H 0.70369 0.11619 0.97284 0.0
H1384 H 0.74668 0.11147 0.96709 0.0
H1385 H 0.75871 0.18149 0.99195 0.0
H1386 H 0.71573 0.18676 0.99757 0.0
H1387 H 0.60867 0.12801 0.07216 0.0
H1388 H 0.6183 0.13136 0.03364 0.0
H1389 H 0.65982 0.19391 0.04678 0.0
H1390 H 0.6501 0.1904 0.08584 0.0
H1391 H 0.6848 0.16173 0.02316 0.0
H1392 H 0.60991 0.19836 0.01621 0.0
H1393 H 0.56709 0.20446 0.0218 0.0
H1394 H 0.55234 0.13848 0.98987 0.0
H1395 H 0.59511 0.13178 0.98436 0.0
C1396 C 0.68656 0.15888 0.91397 0.0
C1397 C 0.67615 0.13916 0.90386 0.0
C1398 C 0.68441 0.16215 0.9365 0.0
C1399 C 0.67149 0.14589 0.9491 0.0
C1400 C 0.6627 0.12528 0.93921 0.0
C1401 C 0.66506 0.12192 0.91676 0.0
C1402 C 0.66421 0.15184 0.9717 0.0
C1403 C 0.63995 0.15503 0.97585 0.0
C1404 C 0.68065 0.15513 0.98878 0.0
C1405 C 0.70647 0.15198 0.98537 0.0
C1406 C 0.71548 0.13068 0.97687 0.0
C1407 C 0.73985 0.12788 0.97369 0.0
C1408 C 0.75541 0.14619 0.97908 0.0
C1409 C 0.74663 0.16733 0.98774 0.0
C1410 C 0.72227 0.17023 0.99094 0.0
C1411 C 0.61916 0.14297 0.06672 0.0
C1412 C 0.62835 0.15916 0.08182 0.0
C1413 C 0.62473 0.14486 0.04469 0.0
C1414 C 0.63971 0.16295 0.03721 0.0
C1415 C 0.64814 0.17986 0.05217 0.0
C1416 C 0.64235 0.17806 0.07438 0.0
C1417 C 0.64788 0.16254 0.01416 0.0
C1418 C 0.67228 0.1605 0.00982 0.0
C1419 C 0.63158 0.16059 0.99676 0.0
C1420 C 0.60578 0.16451 -2e-05 0.0
C1421 C 0.59756 0.18505 0.01051 0.0
C1422 C 0.57328 0.18863 0.01364 0.0
C1423 C 0.55701 0.17185 0.00622 0.0
C1424 C 0.56497 0.15146 0.99561 0.0
C1425 C 0.58924 0.14779 0.99244 0.0
H1426 H 0.53822 0.17466 0.00866 0.0
H1427 H 0.77428 0.14398 0.97662 0.0
H1428 H 0.91955 0.63523 0.93166 0.0
H1429 H 0.9099 0.63295 0.97045 0.0
H1430 H 0.85105 0.68046 0.96053 0.0
H1431 H 0.86107 0.68306 0.92165 0.0
H1432 H 0.87216 0.68557 0.00196 0.0
H1433 H 0.84097 0.62375 0.95672 0.0
H1434 H 0.84359 0.59227 0.92901 0.0
H1435 H 0.89177 0.55342 0.9696 0.0
H1436 H 0.88977 0.58488 0.99741 0.0
H1437 H 0.81955 0.65 0.09965 0.0
H1438 H 0.82022 0.65301 0.0598 0.0
H1439 H 0.88115 0.60694 0.05777 0.0
H1440 H 0.88035 0.60389 0.09743 0.0
H1441 H 0.85386 0.60208 0.02114 0.0
H1442 H 0.88843 0.66514 0.06419 0.0
H1443 H 0.88679 0.69635 0.09223 0.0
H1444 H 0.83292 0.73268 0.0559 0.0
H1445 H 0.83394 0.7014 0.02784 0.0
C1446 C 0.90535 0.64616 0.93802 0.0
C1447 C 0.8913 0.65965 0.92388 0.0
C1448 C 0.89963 0.6446 0.96009 0.0
C1449 C 0.87942 0.65609 0.96826 0.0
C1450 C 0.86667 0.6714 0.95455 0.0
C1451 C 0.87254 0.67309 0.93242 0.0
C1452 C 0.87012 0.64975 0.99015 0.0
C1453 C 0.86777 0.6674 0.00605 0.0
C1454 C 0.86452 0.62598 0.99555 0.0
C1455 C 0.86535 0.60676 0.97908 0.0
C1456 C 0.85223 0.60855 0.95969 0.0
C1457 C 0.8536 0.59071 0.94396 0.0
C1458 C 0.86786 0.57087 0.94753 0.0
C1459 C 0.88074 0.5688 0.96686 0.0
C1460 C 0.87947 0.58663 0.98261 0.0
C1461 C 0.83212 0.63938 0.09055 0.0
C1462 C 0.84966 0.62641 0.10147 0.0
C1463 C 0.83275 0.64141 0.06782 0.0
C1464 C 0.85108 0.63063 0.05586 0.0
C1465 C 0.86689 0.61545 0.06664 0.0
C1466 C 0.8663 0.61352 0.0893 0.0
C1467 C 0.85622 0.63782 0.03306 0.0
C1468 C 0.85786 0.62031 0.01695 0.0
C1469 C 0.86123 0.66169 0.02751 0.0
C1470 C 0.86107 0.68082 0.04405 0.0
C1471 C 0.87615 0.67972 0.06224 0.0
C1472 C 0.87533 0.69741 0.07814 0.0
C1473 C 0.85972 0.71645 0.07588 0.0
C1474 C 0.84497 0.71789 0.05766 0.0
C1475 C 0.84565 0.70018 0.04175 0.0
H1476 H 0.85908 0.73012 0.08821 0.0
H1477 H 0.86892 0.55709 0.93533 0.0
H1478 H 0.33032 0.91397 0.93097 0.0
H1479 H 0.33298 0.90663 0.97046 0.0
H1480 H 0.37188 0.84225 0.95814 0.0
H1481 H 0.36951 0.84958 0.91907 0.0
H1482 H 0.33863 0.83725 0.99141 0.0
H1483 H 0.40194 0.88927 0.96979 0.0
H1484 H 0.419 0.92498 0.95281 0.0
H1485 H 0.37991 0.96895 0.99716 0.0
H1486 H 0.36231 0.93347 0.01418 0.0
H1487 H 0.3856 0.82194 0.09897 0.0
H1488 H 0.38554 0.82695 0.05902 0.0
H1489 H 0.34938 0.89381 0.06626 0.0
H1490 H 0.34937 0.88889 0.10561 0.0
H1491 H 0.38306 0.89634 0.03505 0.0
H1492 H 0.31847 0.8449 0.05564 0.0
H1493 H 0.30059 0.80948 0.07243 0.0
H1494 H 0.34141 0.76475 0.03008 0.0
H1495 H 0.3598 0.79995 0.01324 0.0
C1496 C 0.339 0.89807 0.93677 0.0
C1497 C 0.34985 0.88243 0.92208 0.0
C1498 C 0.34064 0.89395 0.95925 0.0
C1499 C 0.35285 0.87399 0.96718 0.0
C1500 C 0.36244 0.85774 0.95239 0.0
C1501 C 0.36114 0.86202 0.93009 0.0
C1502 C 0.35708 0.87062 0.99079 0.0
C1503 C 0.34854 0.85004 0.00092 0.0
C1504 C 0.36992 0.88737 0.00318 0.0
C1505 C 0.3806 0.90872 0.99309 0.0
C1506 C 0.39682 0.90656 0.9758 0.0
C1507 C 0.40661 0.92675 0.96618 0.0
C1508 C 0.40048 0.94922 0.97386 0.0
C1509 C 0.3846 0.95153 0.9912 0.0
C1510 C 0.37472 0.93139 0.00084 0.0
C1511 C 0.37808 0.83783 0.09193 0.0
C1512 C 0.36728 0.8549 0.10524 0.0
C1513 C 0.37791 0.84064 0.06919 0.0
C1514 C 0.3672 0.86066 0.05969 0.0
C1515 C 0.35768 0.87823 0.07318 0.0
C1516 C 0.35758 0.87531 0.09567 0.0
C1517 C 0.3644 0.86306 0.03577 0.0
C1518 C 0.37325 0.88347 0.02553 0.0
C1519 C 0.35177 0.84619 0.02331 0.0
C1520 C 0.34073 0.82503 0.03338 0.0
C1521 C 0.32379 0.8275 0.05004 0.0
C1522 C 0.31354 0.80747 0.05955 0.0
C1523 C 0.31992 0.78487 0.05238 0.0
C1524 C 0.33653 0.78227 0.03565 0.0
C1525 C 0.34687 0.80225 0.02612 0.0
H1526 H 0.31195 0.76939 0.05975 0.0
H1527 H 0.40809 0.96484 0.9664 0.0
H1528 H 0.184 0.62449 0.40824 0.0
H1529 H 0.18296 0.63128 0.44772 0.0
H1530 H 0.11 0.60832 0.44948 0.0
H1531 H 0.11083 0.60265 0.41007 0.0
H1532 H 0.11263 0.64759 0.46952 0.0
H1533 H 0.15784 0.57604 0.47336 0.0
H1534 H 0.19049 0.54863 0.46456 0.0
H1535 H 0.24108 0.59909 0.48846 0.0
H1536 H 0.20874 0.62693 0.49715 0.0
H1537 H 0.10622 0.6488 0.58769 0.0
H1538 H 0.10467 0.63916 0.54863 0.0
H1539 H 0.17508 0.66756 0.54031 0.0
H1540 H 0.17673 0.67689 0.57902 0.0
H1541 H 0.17235 0.6236 0.52434 0.0
H1542 H 0.12617 0.69542 0.51931 0.0
H1543 H 0.09291 0.72197 0.52845 0.0
H1544 H 0.04328 0.66917 0.5073 0.0
H1545 H 0.07625 0.64218 0.4983 0.0
C1546 C 0.16807 0.62015 0.41726 0.0
C1547 C 0.14759 0.61281 0.40627 0.0
C1548 C 0.1674 0.62412 0.43982 0.0
C1549 C 0.14636 0.62032 0.45173 0.0
C1550 C 0.12638 0.61157 0.44076 0.0
C1551 C 0.12693 0.60808 0.41827 0.0
C1552 C 0.14442 0.62724 0.47514 0.0
C1553 C 0.12552 0.64196 0.48155 0.0
C1554 C 0.16138 0.62039 0.49089 0.0
C1555 C 0.18087 0.60366 0.48572 0.0
C1556 C 0.17594 0.58136 0.47659 0.0
C1557 C 0.19439 0.56573 0.47165 0.0
C1558 C 0.21785 0.57214 0.4759 0.0
C1559 C 0.2229 0.59416 0.48516 0.0
C1560 C 0.20452 0.60986 0.49012 0.0
C1561 C 0.12097 0.65368 0.57733 0.0
C1562 C 0.14156 0.66363 0.58633 0.0
C1563 C 0.12018 0.64801 0.55506 0.0
C1564 C 0.13989 0.65244 0.54154 0.0
C1565 C 0.15978 0.66373 0.5504 0.0
C1566 C 0.16062 0.66923 0.57251 0.0
C1567 C 0.14072 0.64402 0.51857 0.0
C1568 C 0.15942 0.62903 0.51227 0.0
C1569 C 0.12347 0.65045 0.50299 0.0
C1570 C 0.10366 0.66669 0.50836 0.0
C1571 C 0.10816 0.6894 0.51678 0.0
C1572 C 0.08936 0.70454 0.5219 0.0
C1573 C 0.066 0.69724 0.51851 0.0
C1574 C 0.06138 0.67479 0.50995 0.0
C1575 C 0.08011 0.65957 0.50482 0.0
H1576 H 0.05147 0.70899 0.52248 0.0
H1577 H 0.23211 0.56001 0.47206 0.0
H1578 H 0.35919 0.17964 0.40419 0.0
H1579 H 0.34438 0.17406 0.44159 0.0
H1580 H 0.37871 0.10584 0.44428 0.0
H1581 H 0.39297 0.1112 0.40712 0.0
H1582 H 0.33329 0.10183 0.45478 0.0
H1583 H 0.39797 0.1541 0.47431 0.0
H1584 H 0.42087 0.19127 0.47298 0.0
H1585 H 0.35975 0.23019 0.49436 0.0
H1586 H 0.3364 0.19325 0.49555 0.0
H1587 H 0.34322 0.06867 0.565 0.0
H1588 H 0.34423 0.07888 0.52639 0.0
H1589 H 0.30351 0.14194 0.53959 0.0
H1590 H 0.30261 0.13159 0.57841 0.0
H1591 H 0.34438 0.15257 0.5198 0.0
H1592 H 0.28157 0.09893 0.50556 0.0
H1593 H 0.2592 0.0615 0.50744 0.0
H1594 H 0.31666 0.02489 0.47631 0.0
H1595 H 0.33955 0.06203 0.47451 0.0
C1596 C 0.36422 0.1639 0.41314 0.0
C1597 C 0.37732 0.14591 0.4029 0.0
C1598 C 0.3556 0.1606 0.43441 0.0
C1599 C 0.3602 0.13938 0.4457 0.0
C1600 C 0.37465 0.12221 0.43586 0.0
C1601 C 0.38301 0.1254 0.41471 0.0
C1602 C 0.34892 0.13396 0.46707 0.0
C1603 C 0.33585 0.11287 0.46904 0.0
C1604 C 0.35135 0.1488 0.48549 0.0
C1605 C 0.36537 0.17097 0.48474 0.0
C1606 C 0.38936 0.17062 0.47853 0.0
C1607 C 0.40243 0.19163 0.47785 0.0
C1608 C 0.39175 0.21309 0.48351 0.0
C1609 C 0.36799 0.21356 0.48993 0.0
C1610 C 0.35483 0.1926 0.49062 0.0
C1611 C 0.33329 0.08394 0.55943 0.0
C1612 C 0.32226 0.09898 0.5745 0.0
C1613 C 0.33406 0.08994 0.53737 0.0
C1614 C 0.32395 0.11123 0.53 0.0
C1615 C 0.31137 0.1254 0.54485 0.0
C1616 C 0.31048 0.11928 0.56695 0.0
C1617 C 0.32948 0.11998 0.50768 0.0
C1618 C 0.34143 0.14172 0.50548 0.0
C1619 C 0.32606 0.10571 0.48903 0.0
C1620 C 0.31234 0.08329 0.49001 0.0
C1621 C 0.28952 0.08288 0.49925 0.0
C1622 C 0.27673 0.06171 0.50028 0.0
C1623 C 0.28651 0.04083 0.49203 0.0
C1624 C 0.3091 0.04108 0.48269 0.0
C1625 C 0.32198 0.0622 0.48163 0.0
H1626 H 0.27658 0.02446 0.49285 0.0
H1627 H 0.4019 0.22934 0.48297 0.0
H1628 H 0.86412 0.39249 0.40495 0.0
H1629 H 0.87736 0.39061 0.44288 0.0
H1630 H 0.83246 0.32991 0.45372 0.0
H1631 H 0.81854 0.33221 0.4163 0.0
H1632 H 0.83161 0.35599 0.4882 0.0
H1633 H 0.8934 0.32524 0.44251 0.0
H1634 H 0.92182 0.32666 0.412 0.0
H1635 H 0.9567 0.38623 0.44129 0.0
H1636 H 0.92823 0.3854 0.47182 0.0
H1637 H 0.88334 0.31878 0.586 0.0
H1638 H 0.87692 0.31576 0.54651 0.0
H1639 H 0.9104 0.3837 0.53744 0.0
H1640 H 0.91654 0.38681 0.57673 0.0
H1641 H 0.91819 0.35202 0.50197 0.0
H1642 H 0.85425 0.38339 0.54641 0.0
H1643 H 0.82599 0.38106 0.577 0.0
H1644 H 0.79526 0.31831 0.54944 0.0
H1645 H 0.8237 0.32002 0.5189 0.0
C1646 C 0.85672 0.37904 0.41553 0.0
C1647 C 0.84039 0.36239 0.40747 0.0
C1648 C 0.8645 0.37781 0.43718 0.0
C1649 C 0.85639 0.35971 0.45108 0.0
C1650 C 0.83915 0.34393 0.44335 0.0
C1651 C 0.8312 0.34528 0.42186 0.0
C1652 C 0.86629 0.35661 0.47343 0.0
C1653 C 0.85054 0.3548 0.49108 0.0
C1654 C 0.89102 0.35524 0.4774 0.0
C1655 C 0.90856 0.35538 0.45936 0.0
C1656 C 0.90707 0.33871 0.4424 0.0
C1657 C 0.92318 0.33941 0.4251 0.0
C1658 C 0.94102 0.35656 0.42468 0.0
C1659 C 0.94285 0.37297 0.44162 0.0
C1660 C 0.92674 0.37238 0.45894 0.0
C1661 C 0.89036 0.33245 0.57543 0.0
C1662 C 0.90056 0.35295 0.58429 0.0
C1663 C 0.88648 0.33086 0.55291 0.0
C1664 C 0.8929 0.34969 0.53907 0.0
C1665 C 0.90533 0.36898 0.54776 0.0
C1666 C 0.90889 0.37071 0.57021 0.0
C1667 C 0.88348 0.35126 0.51651 0.0
C1668 C 0.89929 0.35295 0.49892 0.0
C1669 C 0.8588 0.35232 0.51251 0.0
C1670 C 0.84125 0.35169 0.53051 0.0
C1671 C 0.84155 0.36902 0.54695 0.0
C1672 C 0.82551 0.36781 0.56428 0.0
C1673 C 0.80888 0.34951 0.5652 0.0
C1674 C 0.80819 0.33245 0.54873 0.0
C1675 C 0.82427 0.33352 0.53141 0.0
H1676 H 0.79649 0.34858 0.57864 0.0
H1677 H 0.95345 0.35711 0.41126 0.0
H1678 H 0.60544 0.82678 0.42115 0.0
H1679 H 0.61396 0.83084 0.46025 0.0
H1680 H 0.67833 0.86862 0.44516 0.0
H1681 H 0.66978 0.86498 0.40631 0.0
H1682 H 0.6826 0.8352 0.48051 0.0
H1683 H 0.63471 0.90056 0.45624 0.0
H1684 H 0.60034 0.91866 0.4379 0.0
H1685 H 0.55322 0.88354 0.48236 0.0
H1686 H 0.58733 0.86488 0.50073 0.0
H1687 H 0.69498 0.88631 0.5881 0.0
H1688 H 0.69323 0.88286 0.54809 0.0
H1689 H 0.62404 0.85082 0.55313 0.0
H1690 H 0.62557 0.85421 0.59242 0.0
H1691 H 0.62499 0.88414 0.52183 0.0
H1692 H 0.67197 0.81719 0.54494 0.0
H1693 H 0.70581 0.79776 0.56295 0.0
H1694 H 0.7541 0.83485 0.52097 0.0
H1695 H 0.72051 0.85478 0.50291 0.0
C1696 C 0.62159 0.83555 0.42623 0.0
C1697 C 0.63685 0.84575 0.41081 0.0
C1698 C 0.62641 0.83791 0.44849 0.0
C1699 C 0.6467 0.85018 0.4555 0.0
C1700 C 0.66262 0.85911 0.44006 0.0
C1701 C 0.65762 0.85712 0.4179 0.0
C1702 C 0.65034 0.85549 0.47884 0.0
C1703 C 0.67019 0.84611 0.48954 0.0
C1704 C 0.63408 0.86968 0.49052 0.0
C1705 C 0.61355 0.88113 0.47971 0.0
C1706 C 0.61701 0.89654 0.46199 0.0
C1707 C 0.59758 0.90692 0.4516 0.0
C1708 C 0.57461 0.9022 0.45892 0.0
C1709 C 0.57103 0.88715 0.47669 0.0
C1710 C 0.5904 0.87667 0.4871 0.0
C1711 C 0.67942 0.87867 0.58057 0.0
C1712 C 0.66051 0.87042 0.5934 0.0
C1713 C 0.67846 0.87662 0.55779 0.0
C1714 C 0.65851 0.86648 0.54769 0.0
C1715 C 0.63956 0.85873 0.56055 0.0
C1716 C 0.64057 0.86059 0.58308 0.0
C1717 C 0.657 0.86342 0.52376 0.0
C1718 C 0.63755 0.87335 0.51284 0.0
C1719 C 0.67357 0.84966 0.51196 0.0
C1720 C 0.69376 0.83771 0.52278 0.0
C1721 C 0.68982 0.82138 0.53969 0.0
C1722 C 0.70895 0.81024 0.54988 0.0
C1723 C 0.7321 0.81513 0.54316 0.0
C1724 C 0.73616 0.83113 0.5262 0.0
C1725 C 0.71709 0.84234 0.51598 0.0
H1726 H 0.74689 0.80648 0.55106 0.0
H1727 H 0.55959 0.91025 0.45085 0.0
H1728 H 0.17496 0.54832 0.32435 0.0
H1729 H 0.17735 0.51274 0.30188 0.0
H1730 H 0.22433 0.54884 0.25744 0.0
H1731 H 0.22125 0.58474 0.27934 0.0
H1732 H 0.1897 0.5297 0.23567 0.0
H1733 H 0.24327 0.50122 0.28918 0.0
H1734 H 0.25799 0.49223 0.32605 0.0
H1735 H 0.19955 0.44488 0.33647 0.0
H1736 H 0.18427 0.45383 0.29978 0.0
H1737 H 0.18415 0.42626 0.16941 0.0
H1738 H 0.20433 0.45511 0.1932 0.0
H1739 H 0.15563 0.43825 0.24516 0.0
H1740 H 0.13561 0.40989 0.22161 0.0
H1741 H 0.2004 0.44696 0.26087 0.0
H1742 H 0.14334 0.48255 0.21112 0.0
H1743 H 0.12762 0.49174 0.17462 0.0
H1744 H 0.19302 0.52607 0.15772 0.0
H1745 H 0.20924 0.51674 0.19405 0.0
C1746 C 0.18597 0.54864 0.30991 0.0
C1747 C 0.19744 0.5696 0.30343 0.0
C1748 C 0.18755 0.52815 0.29716 0.0
C1749 C 0.20103 0.52803 0.27788 0.0
C1750 C 0.21372 0.54849 0.27215 0.0
C1751 C 0.21202 0.56901 0.28481 0.0
C1752 C 0.19989 0.50749 0.26265 0.0
C1753 C 0.1927 0.51167 0.24109 0.0
C1754 C 0.2034 0.48386 0.26967 0.0
C1755 C 0.21255 0.47832 0.29175 0.0
C1756 C 0.23346 0.48901 0.29938 0.0
C1757 C 0.24192 0.4839 0.32025 0.0
C1758 C 0.22969 0.46802 0.33361 0.0
C1759 C 0.209 0.45718 0.32611 0.0
C1760 C 0.20045 0.46224 0.30526 0.0
C1761 C 0.17831 0.42831 0.18611 0.0
C1762 C 0.1583 0.41607 0.19371 0.0
C1763 C 0.18972 0.44482 0.19964 0.0
C1764 C 0.18132 0.449 0.22092 0.0
C1765 C 0.16247 0.43535 0.22888 0.0
C1766 C 0.15097 0.41923 0.21537 0.0
C1767 C 0.18986 0.4693 0.2342 0.0
C1768 C 0.1982 0.46508 0.25539 0.0
C1769 C 0.18739 0.49293 0.2269 0.0
C1770 C 0.1776 0.49868 0.20515 0.0
C1771 C 0.15442 0.49189 0.19955 0.0
C1772 C 0.14542 0.49715 0.17891 0.0
C1773 C 0.15935 0.50941 0.16383 0.0
C1774 C 0.18228 0.51651 0.16939 0.0
C1775 C 0.19139 0.51124 0.19 0.0
H1776 H 0.15234 0.51347 0.14786 0.0
H1777 H 0.23627 0.46409 0.34975 0.0
H1778 H 0.56438 0.19006 0.1715 0.0
H1779 H 0.53159 0.20213 0.19542 0.0
H1780 H 0.5779 0.19807 0.25104 0.0
H1781 H 0.61069 0.18667 0.22747 0.0
H1782 H 0.53466 0.16875 0.25204 0.0
H1783 H 0.5618 0.24828 0.24067 0.0
H1784 H 0.57375 0.2827 0.21857 0.0
H1785 H 0.50456 0.28517 0.18962 0.0
H1786 H 0.4923 0.25048 0.21131 0.0
H1787 H 0.44649 0.1931 0.32856 0.0
H1788 H 0.4845 0.19929 0.31027 0.0
H1789 H 0.4479 0.22096 0.25197 0.0
H1790 H 0.41004 0.21541 0.2702 0.0
H1791 H 0.48871 0.24361 0.25434 0.0
H1792 H 0.46266 0.1626 0.26117 0.0
H1793 H 0.45021 0.12623 0.28031 0.0
H1794 H 0.51621 0.12477 0.31494 0.0
H1795 H 0.52897 0.1613 0.2962 0.0
C1796 C 0.56772 0.19233 0.18873 0.0
C1797 C 0.59013 0.18719 0.19756 0.0
C1798 C 0.54898 0.19918 0.20237 0.0
C1799 C 0.55236 0.20081 0.22498 0.0
C1800 C 0.57494 0.19682 0.23365 0.0
C1801 C 0.59367 0.19032 0.22007 0.0
C1802 C 0.53198 0.20437 0.23986 0.0
C1803 C 0.52485 0.18526 0.25287 0.0
C1804 C 0.51894 0.22571 0.24045 0.0
C1805 C 0.5262 0.24662 0.22746 0.0
C1806 C 0.54919 0.256 0.22943 0.0
C1807 C 0.55601 0.2756 0.21702 0.0
C1808 C 0.53994 0.28608 0.20266 0.0
C1809 C 0.517 0.27701 0.20073 0.0
C1810 C 0.5101 0.25739 0.2131 0.0
C1811 C 0.44651 0.19982 0.31208 0.0
C1812 C 0.42516 0.20307 0.30068 0.0
C1813 C 0.46829 0.20326 0.30158 0.0
C1814 C 0.46904 0.20984 0.2795 0.0
C1815 C 0.44782 0.21561 0.26891 0.0
C1816 C 0.42611 0.21233 0.2794 0.0
C1817 C 0.49132 0.20794 0.26663 0.0
C1818 C 0.49872 0.22723 0.25382 0.0
C1819 C 0.50449 0.18658 0.26593 0.0
C1820 C 0.49667 0.16482 0.27745 0.0
C1821 C 0.47443 0.15465 0.27301 0.0
C1822 C 0.46733 0.134 0.28376 0.0
C1823 C 0.48242 0.12323 0.29882 0.0
C1824 C 0.50456 0.13315 0.30327 0.0
C1825 C 0.51174 0.15382 0.29259 0.0
H1826 H 0.47702 0.10713 0.30696 0.0
H1827 H 0.54525 0.30126 0.19306 0.0
H1828 H 0.82252 0.44478 0.33238 0.0
H1829 H 0.81803 0.48452 0.31639 0.0
H1830 H 0.84596 0.45871 0.25549 0.0
H1831 H 0.85023 0.41935 0.27102 0.0
H1832 H 0.86775 0.50034 0.27027 0.0
H1833 H 0.78893 0.46778 0.25979 0.0
H1834 H 0.75127 0.4504 0.27245 0.0
H1835 H 0.73827 0.51161 0.31216 0.0
H1836 H 0.77606 0.52921 0.29996 0.0
H1837 H 0.84389 0.58526 0.18964 0.0
H1838 H 0.84585 0.54939 0.21171 0.0
H1839 H 0.80656 0.58415 0.26282 0.0
H1840 H 0.80452 0.62018 0.24078 0.0
H1841 H 0.79084 0.5407 0.25806 0.0
H1842 H 0.867 0.57521 0.26693 0.0
H1843 H 0.90601 0.59228 0.25788 0.0
H1844 H 0.92526 0.52846 0.22427 0.0
H1845 H 0.88631 0.5111 0.23288 0.0
C1846 C 0.82753 0.4476 0.31555 0.0
C1847 C 0.83671 0.42889 0.30299 0.0
C1848 C 0.82494 0.47026 0.30645 0.0
C1849 C 0.8317 0.47452 0.28475 0.0
C1850 C 0.84071 0.45583 0.27226 0.0
C1851 C 0.84305 0.43328 0.2812 0.0
C1852 C 0.83002 0.49843 0.27484 0.0
C1853 C 0.85094 0.50913 0.26741 0.0
C1854 C 0.80817 0.51022 0.27191 0.0
C1855 C 0.78545 0.49967 0.27918 0.0
C1856 C 0.77816 0.47743 0.27139 0.0
C1857 C 0.75676 0.46756 0.27844 0.0
C1858 C 0.74243 0.47985 0.29316 0.0
C1859 C 0.74942 0.50208 0.3008 0.0
C1860 C 0.77082 0.51201 0.29382 0.0
C1861 C 0.83561 0.58531 0.20556 0.0
C1862 C 0.82414 0.60569 0.21347 0.0
C1863 C 0.83687 0.56479 0.21824 0.0
C1864 C 0.82676 0.56416 0.23915 0.0
C1865 C 0.81461 0.58422 0.24681 0.0
C1866 C 0.81336 0.60479 0.23412 0.0
C1867 C 0.8286 0.54243 0.25279 0.0
C1868 C 0.80774 0.53212 0.26101 0.0
C1869 C 0.8506 0.53106 0.25664 0.0
C1870 C 0.87362 0.54191 0.25044 0.0
C1871 C 0.87944 0.56491 0.2574 0.0
C1872 C 0.90161 0.57458 0.25246 0.0
C1873 C 0.91818 0.56138 0.24068 0.0
C1874 C 0.91252 0.53858 0.23358 0.0
C1875 C 0.89038 0.52883 0.23846 0.0
H1876 H 0.93533 0.56891 0.23688 0.0
H1877 H 0.72586 0.47219 0.2986 0.0
H1878 H 0.52904 0.79898 0.35373 0.0
H1879 H 0.50244 0.79563 0.32257 0.0
H1880 H 0.56118 0.77425 0.28202 0.0
H1881 H 0.58788 0.77824 0.31307 0.0
H1882 H 0.54211 0.81103 0.26541 0.0
H1883 H 0.51145 0.738 0.29002 0.0
H1884 H 0.49506 0.70866 0.31565 0.0
H1885 H 0.43371 0.75233 0.32552 0.0
H1886 H 0.44988 0.78215 0.30022 0.0
H1887 H 0.42415 0.80535 0.19538 0.0
H1888 H 0.4546 0.78511 0.21704 0.0
H1889 H 0.47791 0.85248 0.24228 0.0
H1890 H 0.44838 0.87266 0.22041 0.0
H1891 H 0.45915 0.78271 0.25978 0.0
H1892 H 0.53242 0.85466 0.25395 0.0
H1893 H 0.54834 0.88205 0.22624 0.0
H1894 H 0.52717 0.83446 0.17545 0.0
H1895 H 0.51066 0.80695 0.20276 0.0
C1896 C 0.53605 0.79243 0.33845 0.0
C1897 C 0.5605 0.78893 0.33577 0.0
C1898 C 0.52082 0.79059 0.32055 0.0
C1899 C 0.52979 0.78485 0.29982 0.0
C1900 C 0.55385 0.77888 0.29776 0.0
C1901 C 0.56907 0.78095 0.31556 0.0
C1902 C 0.51516 0.789 0.28003 0.0
C1903 C 0.5241 0.80447 0.26406 0.0
C1904 C 0.49178 0.78021 0.27791 0.0
C1905 C 0.48197 0.7624 0.29327 0.0
C1906 C 0.49455 0.74146 0.29778 0.0
C1907 C 0.48528 0.72472 0.31224 0.0
C1908 C 0.46338 0.72864 0.32223 0.0
C1909 C 0.45068 0.74932 0.31777 0.0
C1910 C 0.45988 0.76613 0.30334 0.0
C1911 C 0.43615 0.81583 0.20518 0.0
C1912 C 0.43386 0.84062 0.20615 0.0
C1913 C 0.45343 0.80424 0.21765 0.0
C1914 C 0.46876 0.81726 0.23112 0.0
C1915 C 0.46672 0.84202 0.23167 0.0
C1916 C 0.44964 0.85356 0.21923 0.0
C1917 C 0.4859 0.80532 0.24583 0.0
C1918 C 0.4774 0.78861 0.26088 0.0
C1919 C 0.50988 0.81251 0.24689 0.0
C1920 C 0.52032 0.82873 0.23042 0.0
C1921 C 0.53131 0.84994 0.23688 0.0
C1922 C 0.54038 0.86552 0.22125 0.0
C1923 C 0.53898 0.85989 0.19915 0.0
C1924 C 0.52828 0.83877 0.19259 0.0
C1925 C 0.51893 0.82325 0.20812 0.0
H1926 H 0.54617 0.87192 0.18713 0.0
H1927 H 0.45623 0.71565 0.33341 0.0
H1928 H 0.87552 0.59332 0.76281 0.0
H1929 H 0.85931 0.56242 0.73966 0.0
H1930 H 0.80183 0.55206 0.78516 0.0
H1931 H 0.81642 0.58465 0.80706 0.0
H1932 H 0.86101 0.52096 0.75218 0.0
H1933 H 0.75815 0.5178 0.76545 0.0
H1934 H 0.72458 0.54573 0.76653 0.0
H1935 H 0.76399 0.59542 0.7279 0.0
H1936 H 0.79764 0.56765 0.72625 0.0
H1937 H 0.83907 0.40756 0.73902 0.0
H1938 H 0.8266 0.44331 0.7581 0.0
H1939 H 0.79713 0.47094 0.69854 0.0
H1940 H 0.80828 0.43465 0.67966 0.0
H1941 H 0.7793 0.49453 0.73484 0.0
H1942 H 0.85463 0.47479 0.70203 0.0
H1943 H 0.88909 0.44882 0.6955 0.0
H1944 H 0.90605 0.45057 0.76362 0.0
H1945 H 0.87155 0.47643 0.77055 0.0
C1946 C 0.85884 0.58527 0.76742 0.0
C1947 C 0.84772 0.59096 0.78721 0.0
C1948 C 0.84967 0.56741 0.75422 0.0
C1949 C 0.82957 0.55456 0.76082 0.0
C1950 C 0.81726 0.5617 0.77954 0.0
C1951 C 0.82599 0.58005 0.79237 0.0
C1952 C 0.82421 0.53141 0.75064 0.0
C1953 C 0.8431 0.51548 0.74823 0.0
C1954 C 0.8009 0.52403 0.74535 0.0
C1955 C 0.78052 0.54067 0.74588 0.0
C1956 C 0.75961 0.53461 0.75706 0.0
C1957 C 0.74057 0.55044 0.75779 0.0
C1958 C 0.74218 0.57236 0.74734 0.0
C1959 C 0.7628 0.57847 0.73605 0.0
C1960 C 0.78187 0.56269 0.73523 0.0
C1961 C 0.82864 0.42056 0.7303 0.0
C1962 C 0.82559 0.41893 0.70768 0.0
C1963 C 0.82151 0.44102 0.74122 0.0
C1964 C 0.81192 0.46007 0.72943 0.0
C1965 C 0.80491 0.45659 0.70782 0.0
C1966 C 0.81159 0.43597 0.69699 0.0
C1967 C 0.81601 0.48449 0.73707 0.0
C1968 C 0.79705 0.50044 0.73886 0.0
C1969 C 0.83939 0.49244 0.74096 0.0
C1970 C 0.86043 0.47733 0.73683 0.0
C1971 C 0.86568 0.46956 0.71561 0.0
C1972 C 0.8852 0.45487 0.71184 0.0
C1973 C 0.89969 0.44797 0.72915 0.0
C1974 C 0.89477 0.45588 0.75024 0.0
C1975 C 0.87526 0.47058 0.7541 0.0
H1976 H 0.91476 0.43656 0.7262 0.0
H1977 H 0.72743 0.5846 0.74797 0.0
H1978 H 0.57547 0.86728 0.68555 0.0
H1979 H 0.53397 0.87061 0.69492 0.0
H1980 H 0.55211 0.87186 0.7633 0.0
H1981 H 0.59443 0.86923 0.75361 0.0
H1982 H 0.5035 0.8473 0.7136 0.0
H1983 H 0.51268 0.9063 0.79075 0.0
H1984 H 0.54039 0.93565 0.80615 0.0
H1985 H 0.56604 0.95193 0.74201 0.0
H1986 H 0.53826 0.92301 0.72622 0.0
H1987 H 0.39833 0.85154 0.77169 0.0
H1988 H 0.43515 0.84788 0.75191 0.0
H1989 H 0.43974 0.92408 0.74683 0.0
H1990 H 0.40429 0.9278 0.76919 0.0
H1991 H 0.47692 0.91167 0.76268 0.0
H1992 H 0.43841 0.88329 0.70058 0.0
H1993 H 0.41067 0.86083 0.67752 0.0
H1994 H 0.44284 0.7956 0.69785 0.0
H1995 H 0.47061 0.81763 0.72127 0.0
C1996 C 0.57057 0.86802 0.70261 0.0
C1997 C 0.5879 0.86783 0.71894 0.0
C1998 C 0.54682 0.86993 0.70797 0.0
C1999 C 0.53985 0.87173 0.72981 0.0
C2000 C 0.55715 0.87088 0.7463 0.0
C2001 C 0.58119 0.8693 0.74086 0.0
C2002 C 0.51453 0.87562 0.73483 0.0
C2003 C 0.49763 0.86132 0.7244 0.0
C2004 C 0.50688 0.89466 0.74802 0.0
C2005 C 0.52358 0.91224 0.75735 0.0
C2006 C 0.5242 0.91619 0.77994 0.0
C2007 C 0.53991 0.93276 0.78873 0.0
C2008 C 0.55503 0.94557 0.77507 0.0
C2009 C 0.55439 0.94193 0.75258 0.0
C2010 C 0.53865 0.92545 0.7437 0.0
C2011 C 0.40696 0.86754 0.76604 0.0
C2012 C 0.39898 0.88992 0.77279 0.0
C2013 C 0.42792 0.86543 0.75432 0.0
C2014 C 0.44058 0.88573 0.74807 0.0
C2015 C 0.43059 0.90814 0.75191 0.0
C2016 C 0.41006 0.91026 0.76442 0.0
C2017 C 0.46568 0.88349 0.74122 0.0
C2018 C 0.48261 0.89782 0.75162 0.0
C2019 C 0.47332 0.86563 0.72669 0.0
C2020 C 0.45648 0.85214 0.71286 0.0
C2021 C 0.43942 0.86414 0.70032 0.0
C2022 C 0.42374 0.85149 0.68713 0.0
C2023 C 0.42495 0.8268 0.68626 0.0
C2024 C 0.44191 0.81472 0.69855 0.0
C2025 C 0.45767 0.82729 0.71175 0.0
H2026 H 0.41279 0.81703 0.67603 0.0
H2027 H 0.5672 0.95837 0.78192 0.0
H2028 H 0.23 0.39629 0.75736 0.0
H2029 H 0.24017 0.43345 0.73893 0.0
H2030 H 0.16585 0.44735 0.72847 0.0
H2031 H 0.15565 0.41089 0.74659 0.0
H2032 H 0.19004 0.46505 0.69649 0.0
H2033 H 0.19531 0.46463 0.77582 0.0
H2034 H 0.21189 0.45074 0.81071 0.0
H2035 H 0.28139 0.4727 0.7905 0.0
H2036 H 0.26521 0.4864 0.75532 0.0
H2037 H 0.15329 0.57894 0.71688 0.0
H2038 H 0.16368 0.53779 0.72327 0.0
H2039 H 0.23763 0.55425 0.71418 0.0
H2040 H 0.22744 0.59602 0.70813 0.0
H2041 H 0.22634 0.52082 0.74924 0.0
H2042 H 0.21087 0.53276 0.67246 0.0
H2043 H 0.18822 0.54548 0.64016 0.0
H2044 H 0.12974 0.50176 0.65977 0.0
H2045 H 0.15174 0.4892 0.6924 0.0
C2046 C 0.21591 0.40701 0.75059 0.0
C2047 C 0.19199 0.40077 0.7538 0.0
C2048 C 0.22175 0.42819 0.74007 0.0
C2049 C 0.20374 0.4434 0.73281 0.0
C2050 C 0.18008 0.43593 0.73395 0.0
C2051 C 0.17426 0.41486 0.74431 0.0
C2052 C 0.20852 0.46836 0.72694 0.0
C2053 C 0.19821 0.47725 0.70788 0.0
C2054 C 0.21946 0.48421 0.74173 0.0
C2055 C 0.22915 0.47622 0.76289 0.0
C2056 C 0.21415 0.46636 0.77879 0.0
C2057 C 0.22347 0.45853 0.7986 0.0
C2058 C 0.2477 0.46077 0.80279 0.0
C2059 C 0.26264 0.47091 0.7872 0.0
C2060 C 0.25342 0.47869 0.76732 0.0
C2061 C 0.17187 0.57413 0.717 0.0
C2062 C 0.18955 0.59081 0.71192 0.0
C2063 C 0.17772 0.55049 0.72033 0.0
C2064 C 0.20131 0.54301 0.71859 0.0
C2065 C 0.21928 0.55976 0.71525 0.0
C2066 C 0.21343 0.58355 0.71184 0.0
C2067 C 0.20667 0.51748 0.71939 0.0
C2068 C 0.21898 0.50858 0.73742 0.0
C2069 C 0.19661 0.50164 0.70413 0.0
C2070 C 0.18304 0.50998 0.68488 0.0
C2071 C 0.1931 0.52605 0.67001 0.0
C2072 C 0.18036 0.53321 0.65162 0.0
C2073 C 0.15762 0.52431 0.64787 0.0
C2074 C 0.14739 0.50856 0.66266 0.0
C2075 C 0.15999 0.50141 0.68109 0.0
H2076 H 0.14793 0.52946 0.63345 0.0
H2077 H 0.25489 0.45471 0.81815 0.0
H2078 H 0.38336 0.14427 0.73019 0.0
H2079 H 0.41224 0.16289 0.75476 0.0
H2080 H 0.46409 0.1625 0.70289 0.0
H2081 H 0.43518 0.145 0.67844 0.0
H2082 H 0.4499 0.14589 0.76936 0.0
H2083 H 0.50372 0.20214 0.70473 0.0
H2084 H 0.49466 0.2306 0.67552 0.0
H2085 H 0.42686 0.24481 0.70448 0.0
H2086 H 0.43562 0.21674 0.7341 0.0
H2087 H 0.56645 0.12464 0.77949 0.0
H2088 H 0.52664 0.13214 0.76692 0.0
H2089 H 0.53659 0.2072 0.77646 0.0
H2090 H 0.57776 0.20014 0.78648 0.0
H2091 H 0.51127 0.2024 0.74387 0.0
H2092 H 0.50261 0.17169 0.8145 0.0
H2093 H 0.51006 0.14538 0.84583 0.0
H2094 H 0.48434 0.08596 0.8092 0.0
H2095 H 0.4767 0.1118 0.7778 0.0
C2096 C 0.40091 0.1485 0.72417 0.0
C2097 C 0.40725 0.14335 0.70259 0.0
C2098 C 0.41726 0.15925 0.73806 0.0
C2099 C 0.44013 0.16469 0.73051 0.0
C2100 C 0.4463 0.15943 0.70889 0.0
C2101 C 0.42993 0.1491 0.695 0.0
C2102 C 0.45888 0.17253 0.7456 0.0
C2103 C 0.46309 0.15865 0.7641 0.0
C2104 C 0.47552 0.19004 0.73943 0.0
C2105 C 0.47038 0.2073 0.72174 0.0
C2106 C 0.48698 0.21151 0.70506 0.0
C2107 C 0.48186 0.22753 0.68836 0.0
C2108 C 0.4602 0.23951 0.68815 0.0
C2109 C 0.44362 0.2355 0.70464 0.0
C2110 C 0.44865 0.21951 0.72139 0.0
C2111 C 0.56064 0.14285 0.77829 0.0
C2112 C 0.57543 0.16175 0.78432 0.0
C2113 C 0.5375 0.14707 0.77168 0.0
C2114 C 0.52823 0.17013 0.77186 0.0
C2115 C 0.54319 0.18919 0.77675 0.0
C2116 C 0.56668 0.18506 0.78265 0.0
C2117 C 0.50312 0.174 0.7661 0.0
C2118 C 0.4977 0.19034 0.74964 0.0
C2119 C 0.48499 0.15937 0.77467 0.0
C2120 C 0.48898 0.14376 0.7938 0.0
C2121 C 0.49849 0.15301 0.81317 0.0
C2122 C 0.50273 0.13817 0.83097 0.0
C2123 C 0.49754 0.11403 0.82959 0.0
C2124 C 0.48813 0.10468 0.8104 0.0
C2125 C 0.48373 0.11944 0.79262 0.0
H2126 H 0.50084 0.10258 0.84339 0.0
H2127 H 0.45626 0.25189 0.67519 0.0
H2128 H 0.70098 0.07708 0.81817 0.0
H2129 H 0.71105 0.0408 0.79812 0.0
H2130 H 0.6996 0.0772 0.73736 0.0
H2131 H 0.69007 0.11344 0.75699 0.0
H2132 H 0.67142 0.03339 0.74622 0.0
H2133 H 0.75156 0.06485 0.74611 0.0
H2134 H 0.78769 0.08001 0.76383 0.0
H2135 H 0.795 0.01479 0.79915 0.0
H2136 H 0.75869 0.99938 0.78187 0.0
H2137 H 0.69456 0.94771 0.66867 0.0
H2138 H 0.69931 0.98518 0.68793 0.0
H2139 H 0.72743 0.94808 0.74357 0.0
H2140 H 0.72303 0.9105 0.72435 0.0
H2141 H 0.74835 0.99147 0.73896 0.0
H2142 H 0.67062 0.96005 0.74407 0.0
H2143 H 0.63335 0.94238 0.73104 0.0
H2144 H 0.61982 0.00392 0.69196 0.0
H2145 H 0.65716 0.02201 0.70476 0.0
C2146 C 0.70111 0.07748 0.80054 0.0
C2147 C 0.69456 0.09813 0.7892 0.0
C2148 C 0.70686 0.05677 0.78914 0.0
C2149 C 0.70595 0.05641 0.7663 0.0
C2150 C 0.70037 0.07719 0.75498 0.0
C2151 C 0.69496 0.0979 0.76629 0.0
C2152 C 0.70858 0.03399 0.75413 0.0
C2153 C 0.6883 0.02441 0.74434 0.0
C2154 C 0.73041 0.02183 0.75256 0.0
C2155 C 0.75226 0.03107 0.76288 0.0
C2156 C 0.76073 0.05384 0.75782 0.0
C2157 C 0.78128 0.06245 0.76775 0.0
C2158 C 0.79359 0.0484 0.78266 0.0
C2159 C 0.78542 0.02567 0.78762 0.0
C2160 C 0.76487 0.01698 0.77775 0.0
C2161 C 0.70224 0.9475 0.6848 0.0
C2162 C 0.70792 0.92603 0.69511 0.0
C2163 C 0.70492 0.96896 0.69581 0.0
C2164 C 0.7132 0.96932 0.71737 0.0
C2165 C 0.72087 0.94817 0.727 0.0
C2166 C 0.71826 0.92669 0.71597 0.0
C2167 C 0.71129 0.99125 0.73052 0.0
C2168 C 0.73153 1.00058 0.74067 0.0
C2169 C 0.68926 0.00293 0.73302 0.0
C2170 C 0.66678 0.99227 0.72521 0.0
C2171 C 0.65979 0.96975 0.73257 0.0
C2172 C 0.63864 0.95966 0.72525 0.0
C2173 C 0.62427 0.97195 0.7106 0.0
C2174 C 0.631 0.99441 0.70329 0.0
C2175 C 0.65213 0.00462 0.71061 0.0
H2176 H 0.60787 0.9641 0.70505 0.0
H2177 H 0.8095 0.0551 0.79032 0.0
H2178 H 0.93925 0.65349 0.81473 0.0
H2179 H 0.96993 0.65414 0.78725 0.0
H2180 H 0.97651 0.72983 0.7942 0.0
H2181 H 0.94462 0.72953 0.82168 0.0
H2182 H 0.9792 0.71486 0.75053 0.0
H2183 H 0.0172 0.69582 0.81744 0.0
H2184 H 0.022 0.67531 0.8526 0.0
H2185 H 0.02701 0.60853 0.81953 0.0
H2186 H 0.02185 0.62858 0.78417 0.0
H2187 H 0.08936 0.69529 0.6888 0.0
H2188 H 0.05977 0.70955 0.7152 0.0
H2189 H 0.03468 0.63807 0.72407 0.0
H2190 H 0.06383 0.62382 0.69797 0.0
H2191 H 0.0462 0.65952 0.76261 0.0
H2192 H 0.00221 0.6781 0.69679 0.0
H2193 H 0.99617 0.69817 0.66156 0.0
H2194 H 0.00282 0.76586 0.69278 0.0
H2195 H 0.00921 0.74616 0.72817 0.0
C2196 C 0.94682 0.67045 0.81034 0.0
C2197 C 0.9393 0.69152 0.82046 0.0
C2198 C 0.96461 0.67072 0.79466 0.0
C2199 C 0.97583 0.69195 0.7889 0.0
C2200 C 0.96814 0.71322 0.79849 0.0
C2201 C 0.95001 0.713 0.81424 0.0
C2202 C 0.99598 0.69119 0.77329 0.0
C2203 C 0.99418 0.70322 0.75334 0.0
C2204 C 0.01546 0.67587 0.7769 0.0
C2205 C 0.01908 0.66374 0.79813 0.0
C2206 C 0.01923 0.67675 0.81765 0.0
C2207 C 0.02201 0.6652 0.83762 0.0
C2208 C 0.02482 0.64064 0.83829 0.0
C2209 C 0.02488 0.62756 0.81898 0.0
C2210 C 0.02206 0.63902 0.79896 0.0
C2211 C 0.07719 0.68273 0.69608 0.0
C2212 C 0.07908 0.65839 0.69144 0.0
C2213 C 0.06036 0.69089 0.71119 0.0
C2214 C 0.04517 0.67483 0.72176 0.0
C2215 C 0.04637 0.65075 0.71631 0.0
C2216 C 0.06305 0.64263 0.70132 0.0
C2217 C 0.0289 0.68236 0.73949 0.0
C2218 C 0.03154 0.67161 0.75995 0.0
C2219 C 0.01034 0.69886 0.73631 0.0
C2220 C 0.00651 0.71066 0.71505 0.0
C2221 C 0.00262 0.69726 0.6961 0.0
C2222 C 0.99908 0.70856 0.67611 0.0
C2223 C 0.9992 0.73327 0.67492 0.0
C2224 C 0.00279 0.74672 0.69372 0.0
C2225 C 0.00636 0.7355 0.71374 0.0
H2226 H 0.99644 0.74199 0.65943 0.0
H2227 H 0.02696 0.63173 0.85377 0.0
H2228 H 0.30529 0.04326 0.67376 0.0
H2229 H 0.2966 0.01443 0.70274 0.0
H2230 H 0.28885 0.07142 0.74886 0.0
H2231 H 0.2969 0.10014 0.72027 0.0
H2232 H 0.32377 0.03528 0.75959 0.0
H2233 H 0.24209 0.04437 0.73645 0.0
H2234 H 0.20968 0.04315 0.70959 0.0
H2235 H 0.223 0.9693 0.69834 0.0
H2236 H 0.25574 0.97017 0.72493 0.0
H2237 H 0.29307 0.97817 0.85638 0.0
H2238 H 0.28725 0.00474 0.82523 0.0
H2239 H 0.28645 0.9447 0.78187 0.0
H2240 H 0.29242 0.9182 0.81284 0.0
H2241 H 0.25555 0.98067 0.76843 0.0
H2242 H 0.33581 0.96942 0.78938 0.0
H2243 H 0.37054 0.96823 0.81366 0.0
H2244 H 0.36364 0.04278 0.82568 0.0
H2245 H 0.32844 0.04434 0.80191 0.0
C2246 C 0.30113 0.04965 0.68995 0.0
C2247 C 0.302 0.074 0.69472 0.0
C2248 C 0.29625 0.03317 0.70648 0.0
C2249 C 0.29231 0.04086 0.72794 0.0
C2250 C 0.292 0.06515 0.73243 0.0
C2251 C 0.29659 0.08154 0.716 0.0
C2252 C 0.29045 0.02382 0.74622 0.0
C2253 C 0.3087 0.02357 0.76171 0.0
C2254 C 0.27123 0.00794 0.74843 0.0
C2255 C 0.25154 0.00741 0.73249 0.0
C2256 C 0.23827 0.02793 0.72809 0.0
C2257 C 0.2198 0.02729 0.71295 0.0
C2258 C 0.21433 0.00618 0.70222 0.0
C2259 C 0.22728 0.98565 0.70664 0.0
C2260 C 0.24578 0.98621 0.72176 0.0
C2261 C 0.29071 0.97062 0.84032 0.0
C2262 C 0.29325 0.94617 0.83697 0.0
C2263 C 0.2876 0.98579 0.82252 0.0
C2264 C 0.28678 0.97667 0.80123 0.0
C2265 C 0.28707 0.95209 0.79814 0.0
C2266 C 0.29047 0.93698 0.81585 0.0
C2267 C 0.28854 0.99268 0.78216 0.0
C2268 C 0.27051 0.99253 0.76642 0.0
C2269 C 0.30828 0.00788 0.77941 0.0
C2270 C 0.32921 0.00694 0.79409 0.0
C2271 C 0.34144 0.98551 0.79745 0.0
C2272 C 0.36126 0.98477 0.81109 0.0
C2273 C 0.36923 0.0054 0.82126 0.0
C2274 C 0.35738 0.0268 0.81784 0.0
C2275 C 0.33747 0.02762 0.80431 0.0
H2276 H 0.38466 0.00484 0.83168 0.0
H2277 H 0.20002 0.00571 0.69051 0.0
H2278 H 0.94683 0.32899 0.6657 0.0
H2279 H 0.98444 0.32763 0.68548 0.0
H2280 H 0.94808 0.30015 0.74199 0.0
H2281 H 0.91089 0.30055 0.72209 0.0
H2282 H 0.99669 0.35214 0.71745 0.0
H2283 H 0.98315 0.2718 0.77649 0.0
H2284 H 0.96676 0.23135 0.7752 0.0
H2285 H 0.97754 0.22921 0.70601 0.0
H2286 H 0.99431 0.26951 0.70691 0.0
H2287 H 0.06018 0.37557 0.80992 0.0
H2288 H 0.0277 0.36178 0.78696 0.0
H2289 H 0.06961 0.30149 0.76737 0.0
H2290 H 0.10188 0.31482 0.79129 0.0
H2291 H 0.02416 0.28958 0.76825 0.0
H2292 H 0.06888 0.35145 0.73632 0.0
H2293 H 0.08896 0.39016 0.73432 0.0
H2294 H 0.02224 0.42566 0.74232 0.0
H2295 H 1.00177 0.38714 0.74471 0.0
C2296 C 0.94701 0.32213 0.68217 0.0
C2297 C 0.92587 0.31497 0.69234 0.0
C2298 C 0.9685 0.32142 0.6935 0.0
C2299 C 0.96925 0.31367 0.71526 0.0
C2300 C 0.94823 0.30567 0.7251 0.0
C2301 C 0.92686 0.30604 0.71369 0.0
C2302 C 0.99125 0.31628 0.72844 0.0
C2303 C 0.00276 0.33832 0.72837 0.0
C2304 C 0.99969 0.29815 0.74241 0.0
C2305 C 0.98985 0.27378 0.74177 0.0
C2306 C 0.98215 0.26266 0.76102 0.0
C2307 C 0.97277 0.23977 0.76035 0.0
C2308 C 0.97106 0.22775 0.74053 0.0
C2309 C 0.9788 0.23857 0.72134 0.0
C2310 C 0.98821 0.26146 0.72192 0.0
C2311 C 0.06212 0.35897 0.80124 0.0
C2312 C 0.08341 0.34622 0.80229 0.0
C2313 C 0.04368 0.35122 0.78797 0.0
C2314 C 0.04651 0.33102 0.7749 0.0
C2315 C 0.06712 0.31724 0.77718 0.0
C2316 C 0.08547 0.32476 0.7909 0.0
C2317 C 0.02875 0.32564 0.75774 0.0
C2318 C 0.01815 0.30318 0.75708 0.0
C2319 C 0.02164 0.3431 0.7425 0.0
C2320 C 0.03381 0.36637 0.74083 0.0
C2321 C 0.0585 0.3675 0.73777 0.0
C2322 C 0.06995 0.38942 0.73656 0.0
C2323 C 0.05688 0.41035 0.7382 0.0
C2324 C 0.03233 0.40942 0.74104 0.0
C2325 C 0.02079 0.38755 0.7423 0.0
H2326 H 0.06578 0.4273 0.73721 0.0
H2327 H 0.96377 0.21003 0.74005 0.0
H2328 H 0.29269 0.90926 0.23807 0.0
H2329 H 0.29025 0.95137 0.24713 0.0
H2330 H 0.36453 0.95145 0.2635 0.0
H2331 H 0.36741 0.91021 0.25409 0.0
H2332 H 0.34083 0.98431 0.28669 0.0
H2333 H 0.34598 0.95769 0.21 0.0
H2334 H 0.32981 0.93691 0.178 0.0
H2335 H 0.26662 0.97901 0.18128 0.0
H2336 H 0.28231 0.99992 0.2135 0.0
H2337 H 0.39947 0.08256 0.26157 0.0
H2338 H 0.38721 0.04278 0.25185 0.0
H2339 H 0.31681 0.06809 0.23776 0.0
H2340 H 0.32932 0.10844 0.24632 0.0
H2341 H 0.32838 0.02529 0.21601 0.0
H2342 H 0.3273 0.05745 0.28849 0.0
H2343 H 0.34464 0.07893 0.31961 0.0
H2344 H 0.39992 0.02704 0.3243 0.0
H2345 H 0.38308 0.00532 0.2931 0.0
C2346 C 0.30835 0.91808 0.2442 0.0
C2347 C 0.33045 0.90644 0.24447 0.0
C2348 C 0.30687 0.94212 0.24945 0.0
C2349 C 0.32741 0.95461 0.25523 0.0
C2350 C 0.3485 0.94218 0.25883 0.0
C2351 C 0.35005 0.91832 0.25349 0.0
C2352 C 0.32864 0.98068 0.25365 0.0
C2353 C 0.33787 0.99332 0.27133 0.0
C2354 C 0.32443 0.99254 0.23367 0.0
C2355 C 0.31516 0.98013 0.21425 0.0
C2356 C 0.32859 0.96242 0.20395 0.0
C2357 C 0.31952 0.95062 0.18579 0.0
C2358 C 0.29719 0.95655 0.17765 0.0
C2359 C 0.28389 0.97438 0.18763 0.0
C2360 C 0.29284 0.98621 0.20585 0.0
C2361 C 0.38183 0.08009 0.25502 0.0
C2362 C 0.36503 0.09845 0.25557 0.0
C2363 C 0.37476 0.0572 0.24971 0.0
C2364 C 0.35085 0.05252 0.24519 0.0
C2365 C 0.33522 0.07139 0.24173 0.0
C2366 C 0.3424 0.09441 0.24665 0.0
C2367 C 0.34149 0.02847 0.24875 0.0
C2368 C 0.33068 0.01643 0.23154 0.0
C2369 C 0.34415 0.01717 0.26921 0.0
C2370 C 0.35394 0.02978 0.28843 0.0
C2371 C 0.34318 0.05063 0.29614 0.0
C2372 C 0.35293 0.06285 0.31379 0.0
C2373 C 0.37335 0.0543 0.32395 0.0
C2374 C 0.38407 0.03355 0.31647 0.0
C2375 C 0.3744 0.02125 0.29884 0.0
H2376 H 0.38085 0.06372 0.33765 0.0
H2377 H 0.29022 0.94737 0.16357 0.0
H2378 H 0.07442 0.34999 0.24905 0.0
H2379 H 0.04836 0.33127 0.2758 0.0
H2380 H 0.03168 0.27612 0.22978 0.0
H2381 H 0.05834 0.29415 0.20318 0.0
H2382 H 0.9923 0.30035 0.24648 0.0
H2383 H 0.06144 0.26094 0.27291 0.0
H2384 H 0.10268 0.25819 0.28585 0.0
H2385 H 0.08581 0.30286 0.34026 0.0
H2386 H 0.04454 0.30619 0.32748 0.0
H2387 H 0.90616 0.26281 0.31647 0.0
H2388 H 0.9438 0.25421 0.2983 0.0
H2389 H 0.97787 0.30885 0.336 0.0
H2390 H 0.94068 0.31735 0.35423 0.0
H2391 H 0.01017 0.27596 0.32237 0.0
H2392 H 0.94865 0.32564 0.29143 0.0
H2393 H 0.90791 0.33422 0.27922 0.0
H2394 H 0.91125 0.27601 0.23435 0.0
H2395 H 0.95205 0.26707 0.24637 0.0
C2396 C 0.06567 0.33358 0.24475 0.0
C2397 C 0.06825 0.32378 0.22383 0.0
C2398 C 0.0508 0.32289 0.26008 0.0
C2399 C 0.03824 0.30226 0.25476 0.0
C2400 C 0.04128 0.29203 0.23417 0.0
C2401 C 0.0563 0.30255 0.21891 0.0
C2402 C 0.01989 0.29306 0.26973 0.0
C2403 C 0.99627 0.2943 0.26286 0.0
C2404 C 0.02511 0.28599 0.2913 0.0
C2405 C 0.04989 0.28392 0.29914 0.0
C2406 C 0.06655 0.27033 0.28755 0.0
C2407 C 0.08994 0.26864 0.29487 0.0
C2408 C 0.09687 0.28037 0.31385 0.0
C2409 C 0.08042 0.29378 0.32556 0.0
C2410 C 0.05701 0.29554 0.3183 0.0
C2411 C 0.92194 0.27218 0.3216 0.0
C2412 C 0.92033 0.2911 0.3364 0.0
C2413 C 0.94343 0.26727 0.31121 0.0
C2414 C 0.96339 0.28143 0.31535 0.0
C2415 C 0.96265 0.29782 0.33246 0.0
C2416 C 0.94125 0.30262 0.34295 0.0
C2417 C 0.98267 0.28332 0.29906 0.0
C2418 C 0.00635 0.28109 0.30572 0.0
C2419 C 0.97763 0.29013 0.27735 0.0
C2420 C 0.95323 0.29553 0.26995 0.0
C2421 C 0.94064 0.31463 0.27902 0.0
C2422 C 0.91758 0.31959 0.2721 0.0
C2423 C 0.90696 0.30561 0.25607 0.0
C2424 C 0.91947 0.28677 0.24681 0.0
C2425 C 0.94258 0.28177 0.25363 0.0
H2426 H 0.88907 0.30942 0.2508 0.0
H2427 H 0.11499 0.27905 0.31949 0.0
H2428 H 0.57695 0.88578 0.25728 0.0
H2429 H 0.58066 0.91794 0.23117 0.0
H2430 H 0.65484 0.90203 0.22316 0.0
H2431 H 0.65094 0.86874 0.24823 0.0
H2432 H 0.63332 0.94383 0.25321 0.0
H2433 H 0.63939 0.90793 0.18404 0.0
H2434 H 0.6288 0.8844 0.15185 0.0
H2435 H 0.57117 0.93164 0.13819 0.0
H2436 H 0.58033 0.95462 0.1712 0.0
H2437 H 0.66401 0.0584 0.21218 0.0
H2438 H 0.66248 0.01583 0.21956 0.0
H2439 H 0.58798 0.01513 0.20387 0.0
H2440 H 0.58937 0.05745 0.19629 0.0
H2441 H 0.61396 0.98031 0.18203 0.0
H2442 H 0.60457 0.01202 0.2542 0.0
H2443 H 0.61503 0.03542 0.28661 0.0
H2444 H 0.67991 0.99637 0.2932 0.0
H2445 H 0.66993 0.97281 0.26066 0.0
C2446 C 0.59365 0.88797 0.24881 0.0
C2447 C 0.61384 0.87519 0.2552 0.0
C2448 C 0.59573 0.90641 0.23384 0.0
C2449 C 0.61804 0.91238 0.22545 0.0
C2450 C 0.63744 0.8975 0.22936 0.0
C2451 C 0.63523 0.8787 0.2439 0.0
C2452 C 0.62244 0.93733 0.22011 0.0
C2453 C 0.62957 0.95179 0.23749 0.0
C2454 C 0.61683 0.94744 0.19976 0.0
C2455 C 0.61029 0.93278 0.18055 0.0
C2456 C 0.62396 0.91292 0.17468 0.0
C2457 C 0.61822 0.89967 0.1562 0.0
C2458 C 0.59912 0.90634 0.14314 0.0
C2459 C 0.58573 0.92628 0.14852 0.0
C2460 C 0.59111 0.93935 0.16721 0.0
C2461 C 0.64725 0.0492 0.2106 0.0
C2462 C 0.62685 0.06122 0.20354 0.0
C2463 C 0.64642 0.02495 0.21476 0.0
C2464 C 0.62518 0.01245 0.21197 0.0
C2465 C 0.60458 0.02454 0.20585 0.0
C2466 C 0.60536 0.04877 0.20182 0.0
C2467 C 0.62442 0.98666 0.21523 0.0
C2468 C 0.6179 0.97218 0.19762 0.0
C2469 C 0.63045 0.97638 0.2354 0.0
C2470 C 0.63661 0.99079 0.25481 0.0
C2471 C 0.62119 0.00855 0.2624 0.0
C2472 C 0.627 0.02181 0.28085 0.0
C2473 C 0.64816 0.01744 0.29192 0.0
C2474 C 0.66353 0.99976 0.28459 0.0
C2475 C 0.65779 0.98642 0.26616 0.0
H2476 H 0.65263 0.02773 0.3062 0.0
H2477 H 0.59482 0.89618 0.12873 0.0
H2478 H 0.92948 0.73472 0.19518 0.0
H2479 H 0.96941 0.74463 0.20767 0.0
H2480 H 0.96443 0.69039 0.25692 0.0
H2481 H 0.92465 0.68051 0.24458 0.0
H2482 H 0.99579 0.72541 0.26884 0.0
H2483 H 0.98003 0.673 0.20625 0.0
H2484 H 0.96285 0.66468 0.1701 0.0
H2485 H 1.00017 0.72418 0.14319 0.0
H2486 H 0.01756 0.73279 0.17924 0.0
H2487 H 0.08161 0.63256 0.2508 0.0
H2488 H 0.05115 0.65717 0.23399 0.0
H2489 H 0.08541 0.71991 0.25884 0.0
H2490 H 0.11609 0.69508 0.27565 0.0
H2491 H 0.04419 0.69534 0.20716 0.0
H2492 H 0.04001 0.75107 0.28385 0.0
H2493 H 0.05553 0.75136 0.32145 0.0
H2494 H 0.05565 0.67531 0.32226 0.0
H2495 H 0.03982 0.67464 0.28483 0.0
C2496 C 0.93653 0.72569 0.20932 0.0
C2497 C 0.92428 0.70648 0.21861 0.0
C2498 C 0.95932 0.73138 0.21644 0.0
C2499 C 0.97005 0.71781 0.23281 0.0
C2500 C 0.95648 0.70103 0.24419 0.0
C2501 C 0.93368 0.69539 0.23713 0.0
C2502 C 0.99616 0.71679 0.23469 0.0
C2503 C 0.0066 0.7196 0.25522 0.0
C2504 C 0.01017 0.70879 0.217 0.0
C2505 C 0.99986 0.70366 0.19537 0.0
C2506 C 0.98449 0.68432 0.1926 0.0
C2507 C 0.97477 0.67953 0.17215 0.0
C2508 C 0.98035 0.69395 0.15437 0.0
C2509 C 0.99581 0.71308 0.15699 0.0
C2510 C 0.00564 0.7179 0.1774 0.0
C2511 C 0.08322 0.65165 0.25171 0.0
C2512 C 0.101 0.66205 0.26438 0.0
C2513 C 0.06586 0.66573 0.24214 0.0
C2514 C 0.06589 0.69033 0.24545 0.0
C2515 C 0.08509 0.70095 0.25618 0.0
C2516 C 0.10262 0.68682 0.26564 0.0
C2517 C 0.0437 0.70349 0.24138 0.0
C2518 C 0.03389 0.70272 0.22047 0.0
C2519 C 0.03011 0.71267 0.25887 0.0
C2520 C 0.03906 0.71284 0.28152 0.0
C2521 C 0.0433 0.73445 0.29212 0.0
C2522 C 0.05213 0.73467 0.31338 0.0
C2523 C 0.05666 0.71337 0.3242 0.0
C2524 C 0.05221 0.6918 0.31384 0.0
C2525 C 0.04329 0.69149 0.29262 0.0
H2526 H 0.06356 0.71358 0.34064 0.0
H2527 H 0.97274 0.69026 0.13857 0.0
loop_
_geom_bond_atom_site_label_1
_geom_bond_atom_site_label_2
_geom_bond_distance
_geom_bond_site_symmetry_2
_ccdc_geom_bond_type
C0 C1 1.351 . S
C0 N3 1.368 . S
C0 H5 0.931 . S
C1 C0 1.351 . S
C1 N2 1.373 . S
C1 H29 0.930 . S
N2 C1 1.373 . S
N2 C4 1.340 . S
N3 C0 1.368 . S
N3 C4 1.321 . S
N3 Co6 2.135 . S
C4 N2 1.340 . S
C4 N3 1.321 . S
C4 H28 0.930 . S
H5 C0 0.931 . S
Co6 N3 2.135 . S
Co6 N9 2.121 . S
Co6 O14 2.055 . S
Co6 O17 2.039 . S
Co6 N20 2.140 . S
C7 O8 1.227 . S
C7 O17 1.265 . S
O8 C7 1.227 . S
N9 Co6 2.121 . S
N9 C11 1.375 . S
N9 C12 1.313 . S
C10 C11 1.338 . S
C10 N13 1.377 . S
C10 H30 0.930 . S
C11 N9 1.375 . S
C11 C10 1.338 . S
C11 H15 0.931 . S
C12 N9 1.313 . S
C12 N13 1.344 . S
C12 H16 0.930 . S
N13 C10 1.377 . S
N13 C12 1.344 . S
O14 Co6 2.055 . S
O14 C18 1.253 . S
H15 C11 0.931 . S
H16 C12 0.930 . S
O17 Co6 2.039 . S
O17 C7 1.265 . S
C18 O14 1.253 . S
C18 O19 1.227 . S
O19 C18 1.227 . S
N20 Co6 2.140 . S
N20 C23 1.346 . S
N20 C24 1.345 . S
C21 C22 1.387 . S
C21 C25 1.391 . S
C22 C21 1.387 . S
C22 C23 1.369 . S
C22 H31 0.929 . S
C23 N20 1.346 . S
C23 C22 1.369 . S
C23 H26 0.928 . S
C24 N20 1.345 . S
C24 C25 1.371 . S
C24 H27 0.931 . S
C25 C21 1.391 . S
C25 C24 1.371 . S
C25 H32 0.930 . S
H26 C23 0.928 . S
H27 C24 0.931 . S
H28 C4 0.930 . S
H29 C1 0.930 . S
H30 C10 0.930 . S
H31 C22 0.929 . S
H32 C25 0.930 . S
C33 C34 1.351 . S
C33 N36 1.368 . S
C33 H38 0.931 . S
C34 C33 1.351 . S
C34 N35 1.373 . S
C34 H62 0.930 . S
N35 C34 1.373 . S
N35 C37 1.340 . S
N36 C33 1.368 . S
N36 C37 1.321 . S
N36 Co39 2.135 . S
C37 N35 1.340 . S
C37 N36 1.321 . S
C37 H61 0.930 . S
H38 C33 0.931 . S
Co39 N36 2.135 . S
Co39 N42 2.121 . S
Co39 O47 2.055 . S
Co39 O50 2.039 . S
Co39 N53 2.140 . S
C40 O41 1.227 . S
C40 O50 1.265 . S
O41 C40 1.227 . S
N42 Co39 2.121 . S
N42 C44 1.375 . S
N42 C45 1.313 . S
C43 C44 1.338 . S
C43 N46 1.377 . S
C43 H63 0.930 . S
C44 N42 1.375 . S
C44 C43 1.338 . S
C44 H48 0.931 . S
C45 N42 1.313 . S
C45 N46 1.344 . S
C45 H49 0.930 . S
N46 C43 1.377 . S
N46 C45 1.344 . S
O47 Co39 2.055 . S
O47 C51 1.253 . S
H48 C44 0.931 . S
H49 C45 0.930 . S
O50 Co39 2.039 . S
O50 C40 1.265 . S
C51 O47 1.253 . S
C51 O52 1.227 . S
O52 C51 1.227 . S
N53 Co39 2.140 . S
N53 C56 1.346 . S
N53 C57 1.345 . S
C54 C55 1.387 . S
C54 C58 1.391 . S
C55 C54 1.387 . S
C55 C56 1.369 . S
C55 H64 0.929 . S
C56 N53 1.346 . S
C56 C55 1.369 . S
C56 H59 0.928 . S
C57 N53 1.345 . S
C57 C58 1.371 . S
C57 H60 0.931 . S
C58 C54 1.391 . S
C58 C57 1.371 . S
C58 H65 0.930 . S
H59 C56 0.928 . S
H60 C57 0.931 . S
H61 C37 0.930 . S
H62 C34 0.930 . S
H63 C43 0.930 . S
H64 C55 0.929 . S
H65 C58 0.930 . S
C66 C67 1.351 . S
C66 N69 1.368 . S
C66 H71 0.931 . S
C67 C66 1.351 . S
C67 N68 1.373 . S
C67 H95 0.930 . S
N68 C67 1.373 . S
N68 C70 1.340 . S
N69 C66 1.368 . S
N69 C70 1.321 . S
N69 Co72 2.135 . S
C70 N68 1.340 . S
C70 N69 1.321 . S
C70 H94 0.930 . S
H71 C66 0.931 . S
Co72 N69 2.135 . S
Co72 N75 2.121 . S
Co72 O80 2.055 . S
Co72 O83 2.039 . S
Co72 N86 2.140 . S
C73 O74 1.227 . S
C73 O83 1.265 . S
O74 C73 1.227 . S
N75 Co72 2.121 . S
N75 C77 1.375 . S
N75 C78 1.313 . S
C76 C77 1.338 . S
C76 N79 1.377 . S
C76 H96 0.930 . S
C77 N75 1.375 . S
C77 C76 1.338 . S
C77 H81 0.931 . S
C78 N75 1.313 . S
C78 N79 1.344 . S
C78 H82 0.930 . S
N79 C76 1.377 . S
N79 C78 1.344 . S
O80 Co72 2.055 . S
O80 C84 1.253 . S
H81 C77 0.931 . S
H82 C78 0.930 . S
O83 Co72 2.039 . S
O83 C73 1.265 . S
C84 O80 1.253 . S
C84 O85 1.227 . S
O85 C84 1.227 . S
N86 Co72 2.140 . S
N86 C89 1.346 . S
N86 C90 1.345 . S
C87 C88 1.387 . S
C87 C91 1.391 . S
C88 C87 1.387 . S
C88 C89 1.369 . S
C88 H97 0.929 . S
C89 N86 1.346 . S
C89 C88 1.369 . S
C89 H92 0.928 . S
C90 N86 1.345 . S
C90 C91 1.371 . S
C90 H93 0.931 . S
C91 C87 1.391 . S
C91 C90 1.371 . S
C91 H98 0.930 . S
H92 C89 0.928 . S
H93 C90 0.931 . S
H94 C70 0.930 . S
H95 C67 0.930 . S
H96 C76 0.930 . S
H97 C88 0.929 . S
H98 C91 0.930 . S
C99 C100 1.351 . S
C99 N102 1.368 . S
C99 H104 0.931 . S
C100 C99 1.351 . S
C100 N101 1.373 . S
C100 H128 0.930 . S
N101 C100 1.373 . S
N101 C103 1.340 . S
N102 C99 1.368 . S
N102 C103 1.321 . S
N102 Co105 2.135 . S
C103 N101 1.340 . S
C103 N102 1.321 . S
C103 H127 0.930 . S
H104 C99 0.931 . S
Co105 N102 2.135 . S
Co105 N108 2.121 . S
Co105 O113 2.055 . S
Co105 O116 2.039 . S
Co105 N119 2.140 . S
C106 O107 1.227 . S
C106 O116 1.265 . S
O107 C106 1.227 . S
N108 Co105 2.121 . S
N108 C110 1.375 . S
N108 C111 1.313 . S
C109 C110 1.338 . S
C109 N112 1.377 . S
C109 H129 0.930 . S
C110 N108 1.375 . S
C110 C109 1.338 . S
C110 H114 0.931 . S
C111 N108 1.313 . S
C111 N112 1.344 . S
C111 H115 0.930 . S
N112 C109 1.377 . S
N112 C111 1.344 . S
O113 Co105 2.055 . S
O113 C117 1.253 . S
H114 C110 0.931 . S
H115 C111 0.930 . S
O116 Co105 2.039 . S
O116 C106 1.265 . S
C117 O113 1.253 . S
C117 O118 1.227 . S
O118 C117 1.227 . S
N119 Co105 2.140 . S
N119 C122 1.346 . S
N119 C123 1.345 . S
C120 C121 1.387 . S
C120 C124 1.391 . S
C121 C120 1.387 . S
C121 C122 1.369 . S
C121 H130 0.929 . S
C122 N119 1.346 . S
C122 C121 1.369 . S
C122 H125 0.928 . S
C123 N119 1.345 . S
C123 C124 1.371 . S
C123 H126 0.931 . S
C124 C120 1.391 . S
C124 C123 1.371 . S
C124 H131 0.930 . S
H125 C122 0.928 . S
H126 C123 0.931 . S
H127 C103 0.930 . S
H128 C100 0.930 . S
H129 C109 0.930 . S
H130 C121 0.929 . S
H131 C124 0.930 . S
C132 C133 1.351 . S
C132 N135 1.368 . S
C132 H137 0.931 . S
C133 C132 1.351 . S
C133 N134 1.373 . S
C133 H161 0.930 . S
N134 C133 1.373 . S
N134 C136 1.340 . S
N135 C132 1.368 . S
N135 C136 1.321 . S
N135 Co138 2.135 . S
C136 N134 1.340 . S
C136 N135 1.321 . S
C136 H160 0.930 . S
H137 C132 0.931 . S
Co138 N135 2.135 . S
Co138 N141 2.121 . S
Co138 O146 2.055 . S
Co138 O149 2.039 . S
Co138 N152 2.140 . S
C139 O140 1.227 . S
C139 O149 1.265 . S
O140 C139 1.227 . S
N141 Co138 2.121 . S
N141 C143 1.375 . S
N141 C144 1.313 . S
C142 C143 1.338 . S
C142 N145 1.377 . S
C142 H162 0.930 . S
C143 N141 1.375 . S
C143 C142 1.338 . S
C143 H147 0.931 . S
C144 N141 1.313 . S
C144 N145 1.344 . S
C144 H148 0.930 . S
N145 C142 1.377 . S
N145 C144 1.344 . S
O146 Co138 2.055 . S
O146 C150 1.253 . S
H147 C143 0.931 . S
H148 C144 0.930 . S
O149 Co138 2.039 . S
O149 C139 1.265 . S
C150 O146 1.253 . S
C150 O151 1.227 . S
O151 C150 1.227 . S
N152 Co138 2.140 . S
N152 C155 1.346 . S
N152 C156 1.345 . S
C153 C154 1.387 . S
C153 C157 1.391 . S
C154 C153 1.387 . S
C154 C155 1.369 . S
C154 H163 0.929 . S
C155 N152 1.346 . S
C155 C154 1.369 . S
C155 H158 0.928 . S
C156 N152 1.345 . S
C156 C157 1.371 . S
C156 H159 0.931 . S
C157 C153 1.391 . S
C157 C156 1.371 . S
C157 H164 0.930 . S
H158 C155 0.928 . S
H159 C156 0.931 . S
H160 C136 0.930 . S
H161 C133 0.930 . S
H162 C142 0.930 . S
H163 C154 0.929 . S
H164 C157 0.930 . S
C165 C166 1.351 . S
C165 N168 1.368 . S
C165 H170 0.931 . S
C166 C165 1.351 . S
C166 N167 1.373 . S
C166 H194 0.930 . S
N167 C166 1.373 . S
N167 C169 1.340 . S
N168 C165 1.368 . S
N168 C169 1.321 . S
N168 Co171 2.135 . S
C169 N167 1.340 . S
C169 N168 1.321 . S
C169 H193 0.930 . S
H170 C165 0.931 . S
Co171 N168 2.135 . S
Co171 N174 2.121 . S
Co171 O179 2.055 . S
Co171 O182 2.039 . S
Co171 N185 2.140 . S
C172 O173 1.227 . S
C172 O182 1.265 . S
O173 C172 1.227 . S
N174 Co171 2.121 . S
N174 C176 1.375 . S
N174 C177 1.313 . S
C175 C176 1.338 . S
C175 N178 1.377 . S
C175 H195 0.930 . S
C176 N174 1.375 . S
C176 C175 1.338 . S
C176 H180 0.931 . S
C177 N174 1.313 . S
C177 N178 1.344 . S
C177 H181 0.930 . S
N178 C175 1.377 . S
N178 C177 1.344 . S
O179 Co171 2.055 . S
O179 C183 1.253 . S
H180 C176 0.931 . S
H181 C177 0.930 . S
O182 Co171 2.039 . S
O182 C172 1.265 . S
C183 O179 1.253 . S
C183 O184 1.227 . S
O184 C183 1.227 . S
N185 Co171 2.140 . S
N185 C188 1.346 . S
N185 C189 1.345 . S
C186 C187 1.387 . S
C186 C190 1.391 . S
C187 C186 1.387 . S
C187 C188 1.369 . S
C187 H196 0.929 . S
C188 N185 1.346 . S
C188 C187 1.369 . S
C188 H191 0.928 . S
C189 N185 1.345 . S
C189 C190 1.371 . S
C189 H192 0.931 . S
C190 C186 1.391 . S
C190 C189 1.371 . S
C190 H197 0.930 . S
H191 C188 0.928 . S
H192 C189 0.931 . S
H193 C169 0.930 . S
H194 C166 0.930 . S
H195 C175 0.930 . S
H196 C187 0.929 . S
H197 C190 0.930 . S
C198 C199 1.351 . S
C198 N201 1.368 . S
C198 H203 0.931 . S
C199 C198 1.351 . S
C199 N200 1.373 . S
C199 H227 0.930 . S
N200 C199 1.373 . S
N200 C202 1.340 . S
N201 C198 1.368 . S
N201 C202 1.321 . S
N201 Co204 2.135 . S
C202 N200 1.340 . S
C202 N201 1.321 . S
C202 H226 0.930 . S
H203 C198 0.931 . S
Co204 N201 2.135 . S
Co204 N207 2.121 . S
Co204 O212 2.055 . S
Co204 O215 2.039 . S
Co204 N218 2.140 . S
C205 O206 1.227 . S
C205 O215 1.265 . S
O206 C205 1.227 . S
N207 Co204 2.121 . S
N207 C209 1.375 . S
N207 C210 1.313 . S
C208 C209 1.338 . S
C208 N211 1.377 . S
C208 H228 0.930 . S
C209 N207 1.375 . S
C209 C208 1.338 . S
C209 H213 0.931 . S
C210 N207 1.313 . S
C210 N211 1.344 . S
C210 H214 0.930 . S
N211 C208 1.377 . S
N211 C210 1.344 . S
O212 Co204 2.055 . S
O212 C216 1.253 . S
H213 C209 0.931 . S
H214 C210 0.930 . S
O215 Co204 2.039 . S
O215 C205 1.265 . S
C216 O212 1.253 . S
C216 O217 1.227 . S
O217 C216 1.227 . S
N218 Co204 2.140 . S
N218 C221 1.346 . S
N218 C222 1.345 . S
C219 C220 1.387 . S
C219 C223 1.391 . S
C220 C219 1.387 . S
C220 C221 1.369 . S
C220 H229 0.929 . S
C221 N218 1.346 . S
C221 C220 1.369 . S
C221 H224 0.928 . S
C222 N218 1.345 . S
C222 C223 1.371 . S
C222 H225 0.931 . S
C223 C219 1.391 . S
C223 C222 1.371 . S
C223 H230 0.930 . S
H224 C221 0.928 . S
H225 C222 0.931 . S
H226 C202 0.930 . S
H227 C199 0.930 . S
H228 C208 0.930 . S
H229 C220 0.929 . S
H230 C223 0.930 . S
C231 C232 1.351 . S
C231 N234 1.368 . S
C231 H236 0.931 . S
C232 C231 1.351 . S
C232 N233 1.373 . S
C232 H260 0.930 . S
N233 C232 1.373 . S
N233 C235 1.340 . S
N234 C231 1.368 . S
N234 C235 1.321 . S
N234 Co237 2.135 . S
C235 N233 1.340 . S
C235 N234 1.321 . S
C235 H259 0.930 . S
H236 C231 0.931 . S
Co237 N234 2.135 . S
Co237 N240 2.121 . S
Co237 O245 2.055 . S
Co237 O248 2.039 . S
Co237 N251 2.140 . S
C238 O239 1.227 . S
C238 O248 1.265 . S
O239 C238 1.227 . S
N240 Co237 2.121 . S
N240 C242 1.375 . S
N240 C243 1.313 . S
C241 C242 1.338 . S
C241 N244 1.377 . S
C241 H261 0.930 . S
C242 N240 1.375 . S
C242 C241 1.338 . S
C242 H246 0.931 . S
C243 N240 1.313 . S
C243 N244 1.344 . S
C243 H247 0.930 . S
N244 C241 1.377 . S
N244 C243 1.344 . S
O245 Co237 2.055 . S
O245 C249 1.253 . S
H246 C242 0.931 . S
H247 C243 0.930 . S
O248 Co237 2.039 . S
O248 C238 1.265 . S
C249 O245 1.253 . S
C249 O250 1.227 . S
O250 C249 1.227 . S
N251 Co237 2.140 . S
N251 C254 1.346 . S
N251 C255 1.345 . S
C252 C253 1.387 . S
C252 C256 1.391 . S
C253 C252 1.387 . S
C253 C254 1.369 . S
C253 H262 0.929 . S
C254 N251 1.346 . S
C254 C253 1.369 . S
C254 H257 0.928 . S
C255 N251 1.345 . S
C255 C256 1.371 . S
C255 H258 0.931 . S
C256 C252 1.391 . S
C256 C255 1.371 . S
C256 H263 0.930 . S
H257 C254 0.928 . S
H258 C255 0.931 . S
H259 C235 0.930 . S
H260 C232 0.930 . S
H261 C241 0.930 . S
H262 C253 0.929 . S
H263 C256 0.930 . S
C264 C265 1.351 . S
C264 N267 1.368 . S
C264 H269 0.931 . S
C265 C264 1.351 . S
C265 N266 1.373 . S
C265 H293 0.930 . S
N266 C265 1.373 . S
N266 C268 1.340 . S
N267 C264 1.368 . S
N267 C268 1.321 . S
N267 Co270 2.135 . S
C268 N266 1.340 . S
C268 N267 1.321 . S
C268 H292 0.930 . S
H269 C264 0.931 . S
Co270 N267 2.135 . S
Co270 N273 2.121 . S
Co270 O278 2.055 . S
Co270 O281 2.039 . S
Co270 N284 2.140 . S
C271 O272 1.227 . S
C271 O281 1.265 . S
O272 C271 1.227 . S
N273 Co270 2.121 . S
N273 C275 1.375 . S
N273 C276 1.313 . S
C274 C275 1.338 . S
C274 N277 1.377 . S
C274 H294 0.930 . S
C275 N273 1.375 . S
C275 C274 1.338 . S
C275 H279 0.931 . S
C276 N273 1.313 . S
C276 N277 1.344 . S
C276 H280 0.930 . S
N277 C274 1.377 . S
N277 C276 1.344 . S
O278 Co270 2.055 . S
O278 C282 1.253 . S
H279 C275 0.931 . S
H280 C276 0.930 . S
O281 Co270 2.039 . S
O281 C271 1.265 . S
C282 O278 1.253 . S
C282 O283 1.227 . S
O283 C282 1.227 . S
N284 Co270 2.140 . S
N284 C287 1.346 . S
N284 C288 1.345 . S
C285 C286 1.387 . S
C285 C289 1.391 . S
C286 C285 1.387 . S
C286 C287 1.369 . S
C286 H295 0.929 . S
C287 N284 1.346 . S
C287 C286 1.369 . S
C287 H290 0.928 . S
C288 N284 1.345 . S
C288 C289 1.371 . S
C288 H291 0.931 . S
C289 C285 1.391 . S
C289 C288 1.371 . S
C289 H296 0.930 . S
H290 C287 0.928 . S
H291 C288 0.931 . S
H292 C268 0.930 . S
H293 C265 0.930 . S
H294 C274 0.930 . S
H295 C286 0.929 . S
H296 C289 0.930 . S
C297 C298 1.351 . S
C297 N300 1.368 . S
C297 H302 0.931 . S
C298 C297 1.351 . S
C298 N299 1.373 . S
C298 H326 0.930 . S
N299 C298 1.373 . S
N299 C301 1.340 . S
N300 C297 1.368 . S
N300 C301 1.321 . S
N300 Co303 2.135 . S
C301 N299 1.340 . S
C301 N300 1.321 . S
C301 H325 0.930 . S
H302 C297 0.931 . S
Co303 N300 2.135 . S
Co303 N306 2.121 . S
Co303 O311 2.055 . S
Co303 O314 2.039 . S
Co303 N317 2.140 . S
C304 O305 1.227 . S
C304 O314 1.265 . S
O305 C304 1.227 . S
N306 Co303 2.121 . S
N306 C308 1.375 . S
N306 C309 1.313 . S
C307 C308 1.338 . S
C307 N310 1.377 . S
C307 H327 0.930 . S
C308 N306 1.375 . S
C308 C307 1.338 . S
C308 H312 0.931 . S
C309 N306 1.313 . S
C309 N310 1.344 . S
C309 H313 0.930 . S
N310 C307 1.377 . S
N310 C309 1.344 . S
O311 Co303 2.055 . S
O311 C315 1.253 . S
H312 C308 0.931 . S
H313 C309 0.930 . S
O314 Co303 2.039 . S
O314 C304 1.265 . S
C315 O311 1.253 . S
C315 O316 1.227 . S
O316 C315 1.227 . S
N317 Co303 2.140 . S
N317 C320 1.346 . S
N317 C321 1.345 . S
C318 C319 1.387 . S
C318 C322 1.391 . S
C319 C318 1.387 . S
C319 C320 1.369 . S
C319 H328 0.929 . S
C320 N317 1.346 . S
C320 C319 1.369 . S
C320 H323 0.928 . S
C321 N317 1.345 . S
C321 C322 1.371 . S
C321 H324 0.931 . S
C322 C318 1.391 . S
C322 C321 1.371 . S
C322 H329 0.930 . S
H323 C320 0.928 . S
H324 C321 0.931 . S
H325 C301 0.930 . S
H326 C298 0.930 . S
H327 C307 0.930 . S
H328 C319 0.929 . S
H329 C322 0.930 . S
C330 C331 1.351 . S
C330 N333 1.368 . S
C330 H335 0.931 . S
C331 C330 1.351 . S
C331 N332 1.373 . S
C331 H359 0.930 . S
N332 C331 1.373 . S
N332 C334 1.340 . S
N333 C330 1.368 . S
N333 C334 1.321 . S
N333 Co336 2.135 . S
C334 N332 1.340 . S
C334 N333 1.321 . S
C334 H358 0.930 . S
H335 C330 0.931 . S
Co336 N333 2.135 . S
Co336 N339 2.121 . S
Co336 O344 2.055 . S
Co336 O347 2.039 . S
Co336 N350 2.140 . S
C337 O338 1.227 . S
C337 O347 1.265 . S
O338 C337 1.227 . S
N339 Co336 2.121 . S
N339 C341 1.375 . S
N339 C342 1.313 . S
C340 C341 1.338 . S
C340 N343 1.377 . S
C340 H360 0.930 . S
C341 N339 1.375 . S
C341 C340 1.338 . S
C341 H345 0.931 . S
C342 N339 1.313 . S
C342 N343 1.344 . S
C342 H346 0.930 . S
N343 C340 1.377 . S
N343 C342 1.344 . S
O344 Co336 2.055 . S
O344 C348 1.253 . S
H345 C341 0.931 . S
H346 C342 0.930 . S
O347 Co336 2.039 . S
O347 C337 1.265 . S
C348 O344 1.253 . S
C348 O349 1.227 . S
O349 C348 1.227 . S
N350 Co336 2.140 . S
N350 C353 1.346 . S
N350 C354 1.345 . S
C351 C352 1.387 . S
C351 C355 1.391 . S
C352 C351 1.387 . S
C352 C353 1.369 . S
C352 H361 0.929 . S
C353 N350 1.346 . S
C353 C352 1.369 . S
C353 H356 0.928 . S
C354 N350 1.345 . S
C354 C355 1.371 . S
C354 H357 0.931 . S
C355 C351 1.391 . S
C355 C354 1.371 . S
C355 H362 0.930 . S
H356 C353 0.928 . S
H357 C354 0.931 . S
H358 C334 0.930 . S
H359 C331 0.930 . S
H360 C340 0.930 . S
H361 C352 0.929 . S
H362 C355 0.930 . S
C363 C364 1.351 . S
C363 N366 1.368 . S
C363 H368 0.931 . S
C364 C363 1.351 . S
C364 N365 1.373 . S
C364 H392 0.930 . S
N365 C364 1.373 . S
N365 C367 1.340 . S
N366 C363 1.368 . S
N366 C367 1.321 . S
N366 Co369 2.135 . S
C367 N365 1.340 . S
C367 N366 1.321 . S
C367 H391 0.930 . S
H368 C363 0.931 . S
Co369 N366 2.135 . S
Co369 N372 2.121 . S
Co369 O377 2.055 . S
Co369 O380 2.039 . S
Co369 N383 2.140 . S
C370 O371 1.227 . S
C370 O380 1.265 . S
O371 C370 1.227 . S
N372 Co369 2.121 . S
N372 C374 1.375 . S
N372 C375 1.313 . S
C373 C374 1.338 . S
C373 N376 1.377 . S
C373 H393 0.930 . S
C374 N372 1.375 . S
C374 C373 1.338 . S
C374 H378 0.931 . S
C375 N372 1.313 . S
C375 N376 1.344 . S
C375 H379 0.930 . S
N376 C373 1.377 . S
N376 C375 1.344 . S
O377 Co369 2.055 . S
O377 C381 1.253 . S
H378 C374 0.931 . S
H379 C375 0.930 . S
O380 Co369 2.039 . S
O380 C370 1.265 . S
C381 O377 1.253 . S
C381 O382 1.227 . S
O382 C381 1.227 . S
N383 Co369 2.140 . S
N383 C386 1.346 . S
N383 C387 1.345 . S
C384 C385 1.387 . S
C384 C388 1.391 . S
C385 C384 1.387 . S
C385 C386 1.369 . S
C385 H394 0.929 . S
C386 N383 1.346 . S
C386 C385 1.369 . S
C386 H389 0.928 . S
C387 N383 1.345 . S
C387 C388 1.371 . S
C387 H390 0.931 . S
C388 C384 1.391 . S
C388 C387 1.371 . S
C388 H395 0.930 . S
H389 C386 0.928 . S
H390 C387 0.931 . S
H391 C367 0.930 . S
H392 C364 0.930 . S
H393 C373 0.930 . S
H394 C385 0.929 . S
H395 C388 0.930 . S
C396 C397 1.351 . S
C396 N399 1.368 . S
C396 H401 0.931 . S
C397 C396 1.351 . S
C397 N398 1.373 . S
C397 H425 0.930 . S
N398 C397 1.373 . S
N398 C400 1.340 . S
N399 C396 1.368 . S
N399 C400 1.321 . S
N399 Co402 2.135 . S
C400 N398 1.340 . S
C400 N399 1.321 . S
C400 H424 0.930 . S
H401 C396 0.931 . S
Co402 N399 2.135 . S
Co402 N405 2.121 . S
Co402 O410 2.055 . S
Co402 O413 2.039 . S
Co402 N416 2.140 . S
C403 O404 1.227 . S
C403 O413 1.265 . S
O404 C403 1.227 . S
N405 Co402 2.121 . S
N405 C407 1.375 . S
N405 C408 1.313 . S
C406 C407 1.338 . S
C406 N409 1.377 . S
C406 H426 0.930 . S
C407 N405 1.375 . S
C407 C406 1.338 . S
C407 H411 0.931 . S
C408 N405 1.313 . S
C408 N409 1.344 . S
C408 H412 0.930 . S
N409 C406 1.377 . S
N409 C408 1.344 . S
O410 Co402 2.055 . S
O410 C414 1.253 . S
H411 C407 0.931 . S
H412 C408 0.930 . S
O413 Co402 2.039 . S
O413 C403 1.265 . S
C414 O410 1.253 . S
C414 O415 1.227 . S
O415 C414 1.227 . S
N416 Co402 2.140 . S
N416 C419 1.346 . S
N416 C420 1.345 . S
C417 C418 1.387 . S
C417 C421 1.391 . S
C418 C417 1.387 . S
C418 C419 1.369 . S
C418 H427 0.929 . S
C419 N416 1.346 . S
C419 C418 1.369 . S
C419 H422 0.928 . S
C420 N416 1.345 . S
C420 C421 1.371 . S
C420 H423 0.931 . S
C421 C417 1.391 . S
C421 C420 1.371 . S
C421 H428 0.930 . S
H422 C419 0.928 . S
H423 C420 0.931 . S
H424 C400 0.930 . S
H425 C397 0.930 . S
H426 C406 0.930 . S
H427 C418 0.929 . S
H428 C421 0.930 . S
C429 C430 1.351 . S
C429 N432 1.368 . S
C429 H434 0.931 . S
C430 C429 1.351 . S
C430 N431 1.373 . S
C430 H458 0.930 . S
N431 C430 1.373 . S
N431 C433 1.340 . S
N432 C429 1.368 . S
N432 C433 1.321 . S
N432 Co435 2.135 . S
C433 N431 1.340 . S
C433 N432 1.321 . S
C433 H457 0.930 . S
H434 C429 0.931 . S
Co435 N432 2.135 . S
Co435 N438 2.121 . S
Co435 O443 2.055 . S
Co435 O446 2.039 . S
Co435 N449 2.140 . S
C436 O437 1.227 . S
C436 O446 1.265 . S
O437 C436 1.227 . S
N438 Co435 2.121 . S
N438 C440 1.375 . S
N438 C441 1.313 . S
C439 C440 1.338 . S
C439 N442 1.377 . S
C439 H459 0.930 . S
C440 N438 1.375 . S
C440 C439 1.338 . S
C440 H444 0.931 . S
C441 N438 1.313 . S
C441 N442 1.344 . S
C441 H445 0.930 . S
N442 C439 1.377 . S
N442 C441 1.344 . S
O443 Co435 2.055 . S
O443 C447 1.253 . S
H444 C440 0.931 . S
H445 C441 0.930 . S
O446 Co435 2.039 . S
O446 C436 1.265 . S
C447 O443 1.253 . S
C447 O448 1.227 . S
O448 C447 1.227 . S
N449 Co435 2.140 . S
N449 C452 1.346 . S
N449 C453 1.345 . S
C450 C451 1.387 . S
C450 C454 1.391 . S
C451 C450 1.387 . S
C451 C452 1.369 . S
C451 H460 0.929 . S
C452 N449 1.346 . S
C452 C451 1.369 . S
C452 H455 0.928 . S
C453 N449 1.345 . S
C453 C454 1.371 . S
C453 H456 0.931 . S
C454 C450 1.391 . S
C454 C453 1.371 . S
C454 H461 0.930 . S
H455 C452 0.928 . S
H456 C453 0.931 . S
H457 C433 0.930 . S
H458 C430 0.930 . S
H459 C439 0.930 . S
H460 C451 0.929 . S
H461 C454 0.930 . S
C462 C463 1.351 . S
C462 N465 1.368 . S
C462 H467 0.931 . S
C463 C462 1.351 . S
C463 N464 1.373 . S
C463 H491 0.930 . S
N464 C463 1.373 . S
N464 C466 1.340 . S
N465 C462 1.368 . S
N465 C466 1.321 . S
N465 Co468 2.135 . S
C466 N464 1.340 . S
C466 N465 1.321 . S
C466 H490 0.930 . S
H467 C462 0.931 . S
Co468 N465 2.135 . S
Co468 N471 2.121 . S
Co468 O476 2.055 . S
Co468 O479 2.039 . S
Co468 N482 2.140 . S
C469 O470 1.227 . S
C469 O479 1.265 . S
O470 C469 1.227 . S
N471 Co468 2.121 . S
N471 C473 1.375 . S
N471 C474 1.313 . S
C472 C473 1.338 . S
C472 N475 1.377 . S
C472 H492 0.930 . S
C473 N471 1.375 . S
C473 C472 1.338 . S
C473 H477 0.931 . S
C474 N471 1.313 . S
C474 N475 1.344 . S
C474 H478 0.930 . S
N475 C472 1.377 . S
N475 C474 1.344 . S
O476 Co468 2.055 . S
O476 C480 1.253 . S
H477 C473 0.931 . S
H478 C474 0.930 . S
O479 Co468 2.039 . S
O479 C469 1.265 . S
C480 O476 1.253 . S
C480 O481 1.227 . S
O481 C480 1.227 . S
N482 Co468 2.140 . S
N482 C485 1.346 . S
N482 C486 1.345 . S
C483 C484 1.387 . S
C483 C487 1.391 . S
C484 C483 1.387 . S
C484 C485 1.369 . S
C484 H493 0.929 . S
C485 N482 1.346 . S
C485 C484 1.369 . S
C485 H488 0.928 . S
C486 N482 1.345 . S
C486 C487 1.371 . S
C486 H489 0.931 . S
C487 C483 1.391 . S
C487 C486 1.371 . S
C487 H494 0.930 . S
H488 C485 0.928 . S
H489 C486 0.931 . S
H490 C466 0.930 . S
H491 C463 0.930 . S
H492 C472 0.930 . S
H493 C484 0.929 . S
H494 C487 0.930 . S
C495 C496 1.351 . S
C495 N498 1.368 . S
C495 H500 0.931 . S
C496 C495 1.351 . S
C496 N497 1.373 . S
C496 H524 0.930 . S
N497 C496 1.373 . S
N497 C499 1.340 . S
N498 C495 1.368 . S
N498 C499 1.321 . S
N498 Co501 2.135 . S
C499 N497 1.340 . S
C499 N498 1.321 . S
C499 H523 0.930 . S
H500 C495 0.931 . S
Co501 N498 2.135 . S
Co501 N504 2.121 . S
Co501 O509 2.055 . S
Co501 O512 2.039 . S
Co501 N515 2.140 . S
C502 O503 1.227 . S
C502 O512 1.265 . S
O503 C502 1.227 . S
N504 Co501 2.121 . S
N504 C506 1.375 . S
N504 C507 1.313 . S
C505 C506 1.338 . S
C505 N508 1.377 . S
C505 H525 0.930 . S
C506 N504 1.375 . S
C506 C505 1.338 . S
C506 H510 0.931 . S
C507 N504 1.313 . S
C507 N508 1.344 . S
C507 H511 0.930 . S
N508 C505 1.377 . S
N508 C507 1.344 . S
O509 Co501 2.055 . S
O509 C513 1.253 . S
H510 C506 0.931 . S
H511 C507 0.930 . S
O512 Co501 2.039 . S
O512 C502 1.265 . S
C513 O509 1.253 . S
C513 O514 1.227 . S
O514 C513 1.227 . S
N515 Co501 2.140 . S
N515 C518 1.346 . S
N515 C519 1.345 . S
C516 C517 1.387 . S
C516 C520 1.391 . S
C517 C516 1.387 . S
C517 C518 1.369 . S
C517 H526 0.929 . S
C518 N515 1.346 . S
C518 C517 1.369 . S
C518 H521 0.928 . S
C519 N515 1.345 . S
C519 C520 1.371 . S
C519 H522 0.931 . S
C520 C516 1.391 . S
C520 C519 1.371 . S
C520 H527 0.930 . S
H521 C518 0.928 . S
H522 C519 0.931 . S
H523 C499 0.930 . S
H524 C496 0.930 . S
H525 C505 0.930 . S
H526 C517 0.929 . S
H527 C520 0.930 . S
H528 C546 0.951 . S
H529 C548 0.951 . S
H530 C550 0.950 . S
H531 C551 0.950 . S
H532 C553 0.950 . S
H533 C556 0.950 . S
H534 C557 0.950 . S
H535 C559 0.950 . S
H536 C560 0.950 . S
H537 C561 0.951 . S
H538 C563 0.951 . S
H539 C565 0.950 . S
H540 C566 0.950 . S
H541 C568 0.950 . S
H542 C571 0.950 . S
H543 C572 0.950 . S
H544 C574 0.950 . S
H545 C575 0.950 . S
C546 H528 0.951 . S
C546 C547 1.366 . S
C546 C548 1.388 . S
C547 C546 1.366 . S
C547 C551 1.385 . S
C548 H529 0.951 . S
C548 C546 1.388 . S
C548 C549 1.366 . S
C549 C548 1.366 . S
C549 C550 1.414 . S
C549 C552 1.499 . S
C550 H530 0.950 . S
C550 C549 1.414 . S
C550 C551 1.374 . S
C551 H531 0.950 . S
C551 C547 1.385 . S
C551 C550 1.374 . S
C552 C549 1.499 . S
C552 C553 1.373 . S
C552 C554 1.389 . S
C553 H532 0.950 . S
C553 C552 1.373 . S
C553 C569 1.377 1_655 S
C554 C552 1.389 . S
C554 C555 1.524 . S
C554 C568 1.377 1_655 S
C555 C554 1.524 . S
C555 C556 1.397 . S
C555 C560 1.363 . S
C556 H533 0.950 . S
C556 C555 1.397 . S
C556 C557 1.334 . S
C557 H534 0.950 . S
C557 C556 1.334 . S
C557 C558 1.287 . S
C558 C557 1.287 . S
C558 C559 1.524 . S
C558 H577 0.913 . S
C559 H535 0.950 . S
C559 C558 1.524 . S
C559 C560 1.415 . S
C560 H536 0.950 . S
C560 C555 1.363 . S
C560 C559 1.415 . S
C561 H537 0.951 . S
C561 C562 1.366 . S
C561 C563 1.388 . S
C562 C561 1.366 . S
C562 C566 1.385 . S
C563 H538 0.951 . S
C563 C561 1.388 . S
C563 C564 1.366 . S
C564 C563 1.366 . S
C564 C565 1.414 . S
C564 C567 1.499 . S
C565 H539 0.950 . S
C565 C564 1.414 . S
C565 C566 1.374 . S
C566 H540 0.950 . S
C566 C562 1.385 . S
C566 C565 1.374 . S
C567 C564 1.499 . S
C567 C568 1.373 . S
C567 C569 1.389 . S
C568 H541 0.950 . S
C568 C554 1.377 1_455 S
C568 C567 1.373 . S
C569 C553 1.377 1_455 S
C569 C567 1.389 . S
C569 C570 1.524 . S
C570 C569 1.524 . S
C570 C571 1.397 . S
C570 C575 1.363 . S
C571 H542 0.950 . S
C571 C570 1.397 . S
C571 C572 1.334 . S
C572 H543 0.950 . S
C572 C571 1.334 . S
C572 C573 1.287 . S
C573 C572 1.287 . S
C573 C574 1.524 . S
C573 H576 0.999 . S
C574 H544 0.950 . S
C574 C573 1.524 . S
C574 C575 1.415 . S
C575 H545 0.950 . S
C575 C570 1.363 . S
C575 C574 1.415 . S
H576 C573 0.999 . S
H577 C558 0.913 . S
H578 C596 0.951 . S
H579 C598 0.951 . S
H580 C600 0.950 . S
H581 C601 0.950 . S
H582 C603 0.952 . S
H583 C606 0.950 . S
H584 C607 0.950 . S
H585 C609 0.950 . S
H586 C610 0.950 . S
H587 C611 0.951 . S
H588 C613 0.951 . S
H589 C615 0.950 . S
H590 C616 0.950 . S
H591 C618 0.952 . S
H592 C621 0.950 . S
H593 C622 0.950 . S
H594 C624 0.950 . S
H595 C625 0.950 . S
C596 H578 0.951 . S
C596 C597 1.366 . S
C596 C598 1.388 . S
C597 C596 1.366 . S
C597 C601 1.385 . S
C598 H579 0.951 . S
C598 C596 1.388 . S
C598 C599 1.366 . S
C599 C598 1.366 . S
C599 C600 1.414 . S
C599 C602 1.499 . S
C600 H580 0.950 . S
C600 C599 1.414 . S
C600 C601 1.374 . S
C601 H581 0.950 . S
C601 C597 1.385 . S
C601 C600 1.374 . S
C602 C599 1.499 . S
C602 C603 1.343 1_545 S
C602 C604 1.389 . S
C603 H582 0.952 . S
C603 C602 1.343 1_565 S
C603 C619 1.405 . S
C604 C602 1.389 . S
C604 C605 1.524 . S
C604 C618 1.405 . S
C605 C604 1.524 . S
C605 C606 1.397 . S
C605 C610 1.363 . S
C606 H583 0.950 . S
C606 C605 1.397 . S
C606 C607 1.334 . S
C607 H584 0.950 . S
C607 C606 1.334 . S
C607 C608 1.287 . S
C608 C607 1.287 . S
C608 C609 1.524 . S
C608 H627 0.913 . S
C609 H585 0.950 . S
C609 C608 1.524 . S
C609 C610 1.415 . S
C610 H586 0.950 . S
C610 C605 1.363 . S
C610 C609 1.415 . S
C611 H587 0.951 . S
C611 C612 1.366 . S
C611 C613 1.388 . S
C612 C611 1.366 . S
C612 C616 1.385 . S
C613 H588 0.951 . S
C613 C611 1.388 . S
C613 C614 1.366 . S
C614 C613 1.366 . S
C614 C615 1.414 . S
C614 C617 1.499 . S
C615 H589 0.950 . S
C615 C614 1.414 . S
C615 C616 1.374 . S
C616 H590 0.950 . S
C616 C612 1.385 . S
C616 C615 1.374 . S
C617 C614 1.499 . S
C617 C618 1.343 1_565 S
C617 C619 1.389 . S
C618 H591 0.952 . S
C618 C604 1.405 . S
C618 C617 1.343 1_545 S
C619 C603 1.405 . S
C619 C617 1.389 . S
C619 C620 1.524 . S
C620 C619 1.524 . S
C620 C621 1.397 . S
C620 C625 1.363 . S
C621 H592 0.950 . S
C621 C620 1.397 . S
C621 C622 1.334 . S
C622 H593 0.950 . S
C622 C621 1.334 . S
C622 C623 1.287 . S
C623 C622 1.287 . S
C623 C624 1.524 . S
C623 H626 0.999 . S
C624 H594 0.950 . S
C624 C623 1.524 . S
C624 C625 1.415 . S
C625 H595 0.950 . S
C625 C620 1.363 . S
C625 C624 1.415 . S
H626 C623 0.999 . S
H627 C608 0.913 . S
H628 C646 0.951 . S
H629 C648 0.951 . S
H630 C650 0.950 . S
H631 C651 0.950 . S
H632 C653 0.950 . S
H633 C656 0.950 . S
H634 C657 0.950 . S
H635 C659 0.950 . S
H636 C660 0.950 . S
H637 C661 0.951 . S
H638 C663 0.951 . S
H639 C665 0.950 . S
H640 C666 0.950 . S
H641 C668 0.950 . S
H642 C671 0.950 . S
H643 C672 0.950 . S
H644 C674 0.950 . S
H645 C675 0.950 . S
C646 H628 0.951 . S
C646 C647 1.366 . S
C646 C648 1.388 . S
C647 C646 1.366 . S
C647 C651 1.385 . S
C648 H629 0.951 . S
C648 C646 1.388 . S
C648 C649 1.366 . S
C649 C648 1.366 . S
C649 C650 1.414 . S
C649 C652 1.499 . S
C650 H630 0.950 . S
C650 C649 1.414 . S
C650 C651 1.374 . S
C651 H631 0.950 . S
C651 C647 1.385 . S
C651 C650 1.374 . S
C652 C649 1.499 . S
C652 C653 1.373 . S
C652 C654 1.389 . S
C653 H632 0.950 . S
C653 C652 1.373 . S
C653 C669 1.377 1_655 S
C654 C652 1.389 . S
C654 C655 1.524 . S
C654 C668 1.377 1_655 S
C655 C654 1.524 . S
C655 C656 1.397 . S
C655 C660 1.363 . S
C656 H633 0.950 . S
C656 C655 1.397 . S
C656 C657 1.334 . S
C657 H634 0.950 . S
C657 C656 1.334 . S
C657 C658 1.287 . S
C658 C657 1.287 . S
C658 C659 1.524 . S
C658 H677 0.913 . S
C659 H635 0.950 . S
C659 C658 1.524 . S
C659 C660 1.415 . S
C660 H636 0.950 . S
C660 C655 1.363 . S
C660 C659 1.415 . S
C661 H637 0.951 . S
C661 C662 1.366 . S
C661 C663 1.388 . S
C662 C661 1.366 . S
C662 C666 1.385 . S
C663 H638 0.951 . S
C663 C661 1.388 . S
C663 C664 1.366 . S
C664 C663 1.366 . S
C664 C665 1.414 . S
C664 C667 1.499 . S
C665 H639 0.950 . S
C665 C664 1.414 . S
C665 C666 1.374 . S
C666 H640 0.950 . S
C666 C662 1.385 . S
C666 C665 1.374 . S
C667 C664 1.499 . S
C667 C668 1.373 . S
C667 C669 1.389 . S
C668 H641 0.950 . S
C668 C654 1.377 1_455 S
C668 C667 1.373 . S
C669 C653 1.377 1_455 S
C669 C667 1.389 . S
C669 C670 1.524 . S
C670 C669 1.524 . S
C670 C671 1.397 . S
C670 C675 1.363 . S
C671 H642 0.950 . S
C671 C670 1.397 . S
C671 C672 1.334 . S
C672 H643 0.950 . S
C672 C671 1.334 . S
C672 C673 1.287 . S
C673 C672 1.287 . S
C673 C674 1.524 . S
C673 H676 0.999 . S
C674 H644 0.950 . S
C674 C673 1.524 . S
C674 C675 1.415 . S
C675 H645 0.950 . S
C675 C670 1.363 . S
C675 C674 1.415 . S
H676 C673 0.999 . S
H677 C658 0.913 . S
H678 C696 0.951 . S
H679 C698 0.951 . S
H680 C700 0.950 . S
H681 C701 0.950 . S
H682 C703 0.950 . S
H683 C706 0.950 . S
H684 C707 0.950 . S
H685 C709 0.950 . S
H686 C710 0.950 . S
H687 C711 0.951 . S
H688 C713 0.951 . S
H689 C715 0.950 . S
H690 C716 0.950 . S
H691 C718 0.950 . S
H692 C721 0.950 . S
H693 C722 0.950 . S
H694 C724 0.950 . S
H695 C725 0.950 . S
C696 H678 0.951 . S
C696 C697 1.366 . S
C696 C698 1.388 . S
C697 C696 1.366 . S
C697 C701 1.385 . S
C698 H679 0.951 . S
C698 C696 1.388 . S
C698 C699 1.366 . S
C699 C698 1.366 . S
C699 C700 1.414 . S
C699 C702 1.499 . S
C700 H680 0.950 . S
C700 C699 1.414 . S
C700 C701 1.374 . S
C701 H681 0.950 . S
C701 C697 1.385 . S
C701 C700 1.374 . S
C702 C699 1.499 . S
C702 C703 1.373 . S
C702 C704 1.389 . S
C703 H682 0.950 . S
C703 C702 1.373 . S
C703 C719 1.377 1_565 S
C704 C702 1.389 . S
C704 C705 1.524 . S
C704 C718 1.377 1_565 S
C705 C704 1.524 . S
C705 C706 1.397 . S
C705 C710 1.363 1_565 S
C706 H683 0.950 . S
C706 C705 1.397 . S
C706 C707 1.334 . S
C707 H684 0.950 . S
C707 C706 1.334 . S
C707 C708 1.287 1_565 S
C708 C707 1.287 1_545 S
C708 C709 1.524 . S
C708 H727 0.913 1_545 S
C709 H685 0.950 . S
C709 C708 1.524 . S
C709 C710 1.415 . S
C710 H686 0.950 . S
C710 C705 1.363 1_545 S
C710 C709 1.415 . S
C711 H687 0.951 . S
C711 C712 1.366 . S
C711 C713 1.388 . S
C712 C711 1.366 . S
C712 C716 1.385 . S
C713 H688 0.951 . S
C713 C711 1.388 . S
C713 C714 1.366 . S
C714 C713 1.366 . S
C714 C715 1.414 . S
C714 C717 1.499 . S
C715 H689 0.950 . S
C715 C714 1.414 . S
C715 C716 1.374 . S
C716 H690 0.950 . S
C716 C712 1.385 . S
C716 C715 1.374 . S
C717 C714 1.499 . S
C717 C718 1.373 . S
C717 C719 1.389 . S
C718 H691 0.950 . S
C718 C704 1.377 1_545 S
C718 C717 1.373 . S
C719 C703 1.377 1_545 S
C719 C717 1.389 . S
C719 C720 1.524 . S
C720 C719 1.524 . S
C720 C721 1.397 . S
C720 C725 1.363 1_545 S
C721 H692 0.950 . S
C721 C720 1.397 . S
C721 C722 1.334 . S
C722 H693 0.950 . S
C722 C721 1.334 . S
C722 C723 1.287 1_545 S
C723 C722 1.287 1_565 S
C723 C724 1.524 . S
C723 H726 0.999 . S
C724 H694 0.950 . S
C724 C723 1.524 . S
C724 C725 1.415 . S
C725 H695 0.950 . S
C725 C720 1.363 1_565 S
C725 C724 1.415 . S
H726 C723 0.999 . S
H727 C708 0.913 1_565 S
H728 C746 0.951 . S
H729 C748 0.951 . S
H730 C750 0.950 . S
H731 C751 0.950 . S
H732 C753 0.950 . S
H733 C756 0.950 . S
H734 C757 0.950 . S
H735 C759 0.950 . S
H736 C760 0.950 . S
H737 C761 0.951 . S
H738 C763 0.951 . S
H739 C765 0.950 . S
H740 C766 0.950 . S
H741 C768 0.950 . S
H742 C771 0.950 . S
H743 C772 0.950 . S
H744 C774 0.950 . S
H745 C775 0.950 . S
C746 H728 0.951 . S
C746 C747 1.366 . S
C746 C748 1.388 . S
C747 C746 1.366 . S
C747 C751 1.385 . S
C748 H729 0.951 . S
C748 C746 1.388 . S
C748 C749 1.366 . S
C749 C748 1.366 . S
C749 C750 1.414 . S
C749 C752 1.499 . S
C750 H730 0.950 . S
C750 C749 1.414 . S
C750 C751 1.374 . S
C751 H731 0.950 . S
C751 C747 1.385 . S
C751 C750 1.374 . S
C752 C749 1.499 . S
C752 C753 1.373 1_655 S
C752 C754 1.389 . S
C753 H732 0.950 . S
C753 C752 1.373 1_455 S
C753 C769 1.377 . S
C754 C752 1.389 . S
C754 C755 1.524 . S
C754 C768 1.377 . S
C755 C754 1.524 . S
C755 C756 1.397 . S
C755 C760 1.363 . S
C756 H733 0.950 . S
C756 C755 1.397 . S
C756 C757 1.334 . S
C757 H734 0.950 . S
C757 C756 1.334 . S
C757 C758 1.287 . S
C758 C757 1.287 . S
C758 C759 1.524 . S
C758 H777 0.913 . S
C759 H735 0.950 . S
C759 C758 1.524 . S
C759 C760 1.415 . S
C760 H736 0.950 . S
C760 C755 1.363 . S
C760 C759 1.415 . S
C761 H737 0.951 . S
C761 C762 1.366 . S
C761 C763 1.388 . S
C762 C761 1.366 . S
C762 C766 1.385 . S
C763 H738 0.951 . S
C763 C761 1.388 . S
C763 C764 1.366 . S
C764 C763 1.366 . S
C764 C765 1.414 . S
C764 C767 1.499 . S
C765 H739 0.950 . S
C765 C764 1.414 . S
C765 C766 1.374 . S
C766 H740 0.950 . S
C766 C762 1.385 . S
C766 C765 1.374 . S
C767 C764 1.499 . S
C767 C768 1.373 1_455 S
C767 C769 1.389 . S
C768 H741 0.950 . S
C768 C754 1.377 . S
C768 C767 1.373 1_655 S
C769 C753 1.377 . S
C769 C767 1.389 . S
C769 C770 1.524 . S
C770 C769 1.524 . S
C770 C771 1.397 . S
C770 C775 1.363 . S
C771 H742 0.950 . S
C771 C770 1.397 . S
C771 C772 1.334 . S
C772 H743 0.950 . S
C772 C771 1.334 . S
C772 C773 1.287 . S
C773 C772 1.287 . S
C773 C774 1.524 . S
C773 H776 0.999 . S
C774 H744 0.950 . S
C774 C773 1.524 . S
C774 C775 1.415 . S
C775 H745 0.950 . S
C775 C770 1.363 . S
C775 C774 1.415 . S
H776 C773 0.999 . S
H777 C758 0.913 . S
H778 C796 0.951 . S
H779 C798 0.951 . S
H780 C800 0.950 . S
H781 C801 0.950 . S
H782 C803 0.950 . S
H783 C806 0.950 1_565 S
H784 C807 0.950 1_565 S
H785 C809 0.950 . S
H786 C810 0.950 . S
H787 C811 0.951 . S
H788 C813 0.951 . S
H789 C815 0.950 . S
H790 C816 0.950 . S
H791 C818 0.950 . S
H792 C821 0.950 1_545 S
H793 C822 0.950 1_545 S
H794 C824 0.950 . S
H795 C825 0.950 . S
C796 H778 0.951 . S
C796 C797 1.366 . S
C796 C798 1.388 . S
C797 C796 1.366 . S
C797 C801 1.385 . S
C798 H779 0.951 . S
C798 C796 1.388 . S
C798 C799 1.366 . S
C799 C798 1.366 . S
C799 C800 1.414 . S
C799 C802 1.499 . S
C800 H780 0.950 . S
C800 C799 1.414 . S
C800 C801 1.374 . S
C801 H781 0.950 . S
C801 C797 1.385 . S
C801 C800 1.374 . S
C802 C799 1.499 . S
C802 C803 1.373 . S
C802 C804 1.389 1_565 S
C803 H782 0.950 . S
C803 C802 1.373 . S
C803 C819 1.377 . S
C804 C802 1.389 1_545 S
C804 C805 1.524 . S
C804 C818 1.377 . S
C805 C804 1.524 . S
C805 C806 1.397 . S
C805 C810 1.363 . S
C806 H783 0.950 1_545 S
C806 C805 1.397 . S
C806 C807 1.334 . S
C807 H784 0.950 1_545 S
C807 C806 1.334 . S
C807 C808 1.287 . S
C808 C807 1.287 . S
C808 C809 1.524 . S
C808 H827 0.913 . S
C809 H785 0.950 . S
C809 C808 1.524 . S
C809 C810 1.415 . S
C810 H786 0.950 . S
C810 C805 1.363 . S
C810 C809 1.415 . S
C811 H787 0.951 . S
C811 C812 1.366 . S
C811 C813 1.388 . S
C812 C811 1.366 . S
C812 C816 1.385 . S
C813 H788 0.951 . S
C813 C811 1.388 . S
C813 C814 1.366 . S
C814 C813 1.366 . S
C814 C815 1.414 . S
C814 C817 1.499 . S
C815 H789 0.950 . S
C815 C814 1.414 . S
C815 C816 1.374 . S
C816 H790 0.950 . S
C816 C812 1.385 . S
C816 C815 1.374 . S
C817 C814 1.499 . S
C817 C818 1.373 . S
C817 C819 1.389 1_545 S
C818 H791 0.950 . S
C818 C804 1.377 . S
C818 C817 1.373 . S
C819 C803 1.377 . S
C819 C817 1.389 1_565 S
C819 C820 1.524 . S
C820 C819 1.524 . S
C820 C821 1.397 . S
C820 C825 1.363 . S
C821 H792 0.950 1_565 S
C821 C820 1.397 . S
C821 C822 1.334 . S
C822 H793 0.950 1_565 S
C822 C821 1.334 . S
C822 C823 1.287 . S
C823 C822 1.287 . S
C823 C824 1.524 . S
C823 H826 0.999 . S
C824 H794 0.950 . S
C824 C823 1.524 . S
C824 C825 1.415 . S
C825 H795 0.950 . S
C825 C820 1.363 . S
C825 C824 1.415 . S
H826 C823 0.999 . S
H827 C808 0.913 . S
H828 C846 0.951 . S
H829 C848 0.951 . S
H830 C850 0.950 . S
H831 C851 0.950 . S
H832 C853 0.950 . S
H833 C856 0.950 . S
H834 C857 0.950 . S
H835 C859 0.950 . S
H836 C860 0.950 1_655 S
H837 C861 0.951 . S
H838 C863 0.951 . S
H839 C865 0.950 . S
H840 C866 0.950 . S
H841 C868 0.950 . S
H842 C871 0.950 . S
H843 C872 0.950 . S
H844 C874 0.950 . S
H845 C875 0.950 1_455 S
C846 H828 0.951 . S
C846 C847 1.366 . S
C846 C848 1.388 . S
C847 C846 1.366 . S
C847 C851 1.385 . S
C848 H829 0.951 . S
C848 C846 1.388 . S
C848 C849 1.366 . S
C849 C848 1.366 . S
C849 C850 1.414 . S
C849 C852 1.499 . S
C850 H830 0.950 . S
C850 C849 1.414 . S
C850 C851 1.374 . S
C851 H831 0.950 . S
C851 C847 1.385 . S
C851 C850 1.374 . S
C852 C849 1.499 . S
C852 C853 1.373 . S
C852 C854 1.389 1_655 S
C853 H832 0.950 . S
C853 C852 1.373 . S
C853 C869 1.377 . S
C854 C852 1.389 1_455 S
C854 C855 1.524 . S
C854 C868 1.377 . S
C855 C854 1.524 . S
C855 C856 1.397 . S
C855 C860 1.363 . S
C856 H833 0.950 . S
C856 C855 1.397 . S
C856 C857 1.334 . S
C857 H834 0.950 . S
C857 C856 1.334 . S
C857 C858 1.287 . S
C858 C857 1.287 . S
C858 C859 1.524 . S
C858 H877 0.913 . S
C859 H835 0.950 . S
C859 C858 1.524 . S
C859 C860 1.415 . S
C860 H836 0.950 1_455 S
C860 C855 1.363 . S
C860 C859 1.415 . S
C861 H837 0.951 . S
C861 C862 1.366 . S
C861 C863 1.388 . S
C862 C861 1.366 . S
C862 C866 1.385 . S
C863 H838 0.951 . S
C863 C861 1.388 . S
C863 C864 1.366 . S
C864 C863 1.366 . S
C864 C865 1.414 . S
C864 C867 1.499 . S
C865 H839 0.950 . S
C865 C864 1.414 . S
C865 C866 1.374 . S
C866 H840 0.950 . S
C866 C862 1.385 . S
C866 C865 1.374 . S
C867 C864 1.499 . S
C867 C868 1.373 . S
C867 C869 1.389 1_455 S
C868 H841 0.950 . S
C868 C854 1.377 . S
C868 C867 1.373 . S
C869 C853 1.377 . S
C869 C867 1.389 1_655 S
C869 C870 1.524 . S
C870 C869 1.524 . S
C870 C871 1.397 . S
C870 C875 1.363 . S
C871 H842 0.950 . S
C871 C870 1.397 . S
C871 C872 1.334 . S
C872 H843 0.950 . S
C872 C871 1.334 . S
C872 C873 1.287 . S
C873 C872 1.287 . S
C873 C874 1.524 . S
C873 H876 0.999 . S
C874 H844 0.950 . S
C874 C873 1.524 . S
C874 C875 1.415 . S
C875 H845 0.950 1_655 S
C875 C870 1.363 . S
C875 C874 1.415 . S
H876 C873 0.999 . S
H877 C858 0.913 . S
H878 C896 0.951 . S
H879 C898 0.951 . S
H880 C900 0.950 . S
H881 C901 0.950 . S
H882 C903 0.950 . S
H883 C906 0.950 . S
H884 C907 0.950 . S
H885 C909 0.950 . S
H886 C910 0.950 . S
H887 C911 0.951 . S
H888 C913 0.951 . S
H889 C915 0.950 . S
H890 C916 0.950 . S
H891 C918 0.950 . S
H892 C921 0.950 . S
H893 C922 0.950 . S
H894 C924 0.950 . S
H895 C925 0.950 . S
C896 H878 0.951 . S
C896 C897 1.366 . S
C896 C898 1.388 . S
C897 C896 1.366 . S
C897 C901 1.385 . S
C898 H879 0.951 . S
C898 C896 1.388 . S
C898 C899 1.366 . S
C899 C898 1.366 . S
C899 C900 1.414 . S
C899 C902 1.499 . S
C900 H880 0.950 . S
C900 C899 1.414 . S
C900 C901 1.374 . S
C901 H881 0.950 . S
C901 C897 1.385 . S
C901 C900 1.374 . S
C902 C899 1.499 . S
C902 C903 1.373 1_545 S
C902 C904 1.389 . S
C903 H882 0.950 . S
C903 C902 1.373 1_565 S
C903 C919 1.377 . S
C904 C902 1.389 . S
C904 C905 1.524 . S
C904 C918 1.377 . S
C905 C904 1.524 . S
C905 C906 1.397 . S
C905 C910 1.363 . S
C906 H883 0.950 . S
C906 C905 1.397 . S
C906 C907 1.334 . S
C907 H884 0.950 . S
C907 C906 1.334 . S
C907 C908 1.287 . S
C908 C907 1.287 . S
C908 C909 1.524 . S
C908 H927 0.913 . S
C909 H885 0.950 . S
C909 C908 1.524 . S
C909 C910 1.415 . S
C910 H886 0.950 . S
C910 C905 1.363 . S
C910 C909 1.415 . S
C911 H887 0.951 . S
C911 C912 1.366 . S
C911 C913 1.388 . S
C912 C911 1.366 . S
C912 C916 1.385 . S
C913 H888 0.951 . S
C913 C911 1.388 . S
C913 C914 1.366 . S
C914 C913 1.366 . S
C914 C915 1.414 . S
C914 C917 1.499 . S
C915 H889 0.950 . S
C915 C914 1.414 . S
C915 C916 1.374 . S
C916 H890 0.950 . S
C916 C912 1.385 . S
C916 C915 1.374 . S
C917 C914 1.499 . S
C917 C918 1.373 1_565 S
C917 C919 1.389 . S
C918 H891 0.950 . S
C918 C904 1.377 . S
C918 C917 1.373 1_545 S
C919 C903 1.377 . S
C919 C917 1.389 . S
C919 C920 1.524 . S
C920 C919 1.524 . S
C920 C921 1.397 . S
C920 C925 1.363 . S
C921 H892 0.950 . S
C921 C920 1.397 . S
C921 C922 1.334 . S
C922 H893 0.950 . S
C922 C921 1.334 . S
C922 C923 1.287 . S
C923 C922 1.287 . S
C923 C924 1.524 . S
C923 H926 0.999 . S
C924 H894 0.950 . S
C924 C923 1.524 . S
C924 C925 1.415 . S
C925 H895 0.950 . S
C925 C920 1.363 . S
C925 C924 1.415 . S
H926 C923 0.999 . S
H927 C908 0.913 . S
H928 C946 0.951 . S
H929 C948 0.951 . S
H930 C950 0.950 . S
H931 C951 0.950 . S
H932 C953 0.950 . S
H933 C956 0.950 . S
H934 C957 0.950 . S
H935 C959 0.950 . S
H936 C960 0.950 . S
H937 C961 0.951 . S
H938 C963 0.951 . S
H939 C965 0.950 . S
H940 C966 0.950 . S
H941 C968 0.950 . S
H942 C971 0.950 . S
H943 C972 0.950 . S
H944 C974 0.950 . S
H945 C975 0.950 . S
C946 H928 0.951 . S
C946 C947 1.366 . S
C946 C948 1.388 . S
C947 C946 1.366 . S
C947 C951 1.385 . S
C948 H929 0.951 . S
C948 C946 1.388 . S
C948 C949 1.366 . S
C949 C948 1.366 . S
C949 C950 1.414 . S
C949 C952 1.499 . S
C950 H930 0.950 . S
C950 C949 1.414 . S
C950 C951 1.374 . S
C951 H931 0.950 . S
C951 C947 1.385 . S
C951 C950 1.374 . S
C952 C949 1.499 . S
C952 C953 1.373 . S
C952 C954 1.389 . S
C953 H932 0.950 . S
C953 C952 1.373 . S
C953 C969 1.377 . S
C954 C952 1.389 . S
C954 C955 1.524 . S
C954 C968 1.377 . S
C955 C954 1.524 . S
C955 C956 1.397 . S
C955 C960 1.363 . S
C956 H933 0.950 . S
C956 C955 1.397 . S
C956 C957 1.334 . S
C957 H934 0.950 . S
C957 C956 1.334 . S
C957 C958 1.287 . S
C958 C957 1.287 . S
C958 C959 1.524 . S
C958 H977 0.913 . S
C959 H935 0.950 . S
C959 C958 1.524 . S
C959 C960 1.415 . S
C960 H936 0.950 . S
C960 C955 1.363 . S
C960 C959 1.415 . S
C961 H937 0.951 . S
C961 C962 1.366 . S
C961 C963 1.388 . S
C962 C961 1.366 . S
C962 C966 1.385 . S
C963 H938 0.951 . S
C963 C961 1.388 . S
C963 C964 1.366 . S
C964 C963 1.366 . S
C964 C965 1.414 . S
C964 C967 1.499 . S
C965 H939 0.950 . S
C965 C964 1.414 . S
C965 C966 1.374 . S
C966 H940 0.950 . S
C966 C962 1.385 . S
C966 C965 1.374 . S
C967 C964 1.499 . S
C967 C968 1.373 . S
C967 C969 1.389 . S
C968 H941 0.950 . S
C968 C954 1.377 . S
C968 C967 1.373 . S
C969 C953 1.377 . S
C969 C967 1.389 . S
C969 C970 1.524 . S
C970 C969 1.524 . S
C970 C971 1.397 . S
C970 C975 1.363 . S
C971 H942 0.950 . S
C971 C970 1.397 . S
C971 C972 1.334 . S
C972 H943 0.950 . S
C972 C971 1.334 . S
C972 C973 1.287 . S
C973 C972 1.287 . S
C973 C974 1.524 . S
C973 H976 0.999 . S
C974 H944 0.950 . S
C974 C973 1.524 . S
C974 C975 1.415 . S
C975 H945 0.950 . S
C975 C970 1.363 . S
C975 C974 1.415 . S
H976 C973 0.999 . S
H977 C958 0.913 . S
H978 C996 0.951 . S
H979 C998 0.951 . S
H980 C1000 0.950 . S
H981 C1001 0.950 . S
H982 C1003 0.950 . S
H983 C1006 0.950 . S
H984 C1007 0.950 . S
H985 C1009 0.950 . S
H986 C1010 0.950 . S
H987 C1011 0.951 . S
H988 C1013 0.951 . S
H989 C1015 0.950 . S
H990 C1016 0.950 . S
H991 C1018 0.950 . S
H992 C1021 0.950 . S
H993 C1022 0.950 . S
H994 C1024 0.950 . S
H995 C1025 0.950 . S
C996 H978 0.951 . S
C996 C997 1.366 . S
C996 C998 1.388 . S
C997 C996 1.366 . S
C997 C1001 1.385 . S
C998 H979 0.951 . S
C998 C996 1.388 . S
C998 C999 1.366 . S
C999 C998 1.366 . S
C999 C1000 1.414 . S
C999 C1002 1.499 . S
C1000 H980 0.950 . S
C1000 C999 1.414 . S
C1000 C1001 1.374 . S
C1001 H981 0.950 . S
C1001 C997 1.385 . S
C1001 C1000 1.374 . S
C1002 C999 1.499 . S
C1002 C1003 1.373 . S
C1002 C1004 1.389 . S
C1003 H982 0.950 . S
C1003 C1002 1.373 . S
C1003 C1019 1.377 . S
C1004 C1002 1.389 . S
C1004 C1005 1.524 . S
C1004 C1018 1.377 . S
C1005 C1004 1.524 . S
C1005 C1006 1.397 . S
C1005 C1010 1.363 . S
C1006 H983 0.950 . S
C1006 C1005 1.397 . S
C1006 C1007 1.334 . S
C1007 H984 0.950 . S
C1007 C1006 1.334 . S
C1007 C1008 1.287 . S
C1008 C1007 1.287 . S
C1008 C1009 1.524 . S
C1008 H1027 0.913 . S
C1009 H985 0.950 . S
C1009 C1008 1.524 . S
C1009 C1010 1.415 . S
C1010 H986 0.950 . S
C1010 C1005 1.363 . S
C1010 C1009 1.415 . S
C1011 H987 0.951 . S
C1011 C1012 1.366 . S
C1011 C1013 1.388 . S
C1012 C1011 1.366 . S
C1012 C1016 1.385 . S
C1013 H988 0.951 . S
C1013 C1011 1.388 . S
C1013 C1014 1.366 . S
C1014 C1013 1.366 . S
C1014 C1015 1.414 . S
C1014 C1017 1.499 . S
C1015 H989 0.950 . S
C1015 C1014 1.414 . S
C1015 C1016 1.374 . S
C1016 H990 0.950 . S
C1016 C1012 1.385 . S
C1016 C1015 1.374 . S
C1017 C1014 1.499 . S
C1017 C1018 1.373 . S
C1017 C1019 1.389 . S
C1018 H991 0.950 . S
C1018 C1004 1.377 . S
C1018 C1017 1.373 . S
C1019 C1003 1.377 . S
C1019 C1017 1.389 . S
C1019 C1020 1.524 . S
C1020 C1019 1.524 . S
C1020 C1021 1.397 . S
C1020 C1025 1.363 . S
C1021 H992 0.950 . S
C1021 C1020 1.397 . S
C1021 C1022 1.334 . S
C1022 H993 0.950 . S
C1022 C1021 1.334 . S
C1022 C1023 1.287 . S
C1023 C1022 1.287 . S
C1023 C1024 1.524 . S
C1023 H1026 0.999 . S
C1024 H994 0.950 . S
C1024 C1023 1.524 . S
C1024 C1025 1.415 . S
C1025 H995 0.950 . S
C1025 C1020 1.363 . S
C1025 C1024 1.415 . S
H1026 C1023 0.999 . S
H1027 C1008 0.913 . S
H1028 C1046 0.951 . S
H1029 C1048 0.951 . S
H1030 C1050 0.950 . S
H1031 C1051 0.950 . S
H1032 C1053 0.950 . S
H1033 C1056 0.950 . S
H1034 C1057 0.950 . S
H1035 C1059 0.950 . S
H1036 C1060 0.950 . S
H1037 C1061 0.951 . S
H1038 C1063 0.951 . S
H1039 C1065 0.950 . S
H1040 C1066 0.950 . S
H1041 C1068 0.950 . S
H1042 C1071 0.950 . S
H1043 C1072 0.950 . S
H1044 C1074 0.950 . S
H1045 C1075 0.950 . S
C1046 H1028 0.951 . S
C1046 C1047 1.366 . S
C1046 C1048 1.388 . S
C1047 C1046 1.366 . S
C1047 C1051 1.385 . S
C1048 H1029 0.951 . S
C1048 C1046 1.388 . S
C1048 C1049 1.366 . S
C1049 C1048 1.366 . S
C1049 C1050 1.414 . S
C1049 C1052 1.499 . S
C1050 H1030 0.950 . S
C1050 C1049 1.414 . S
C1050 C1051 1.374 . S
C1051 H1031 0.950 . S
C1051 C1047 1.385 . S
C1051 C1050 1.374 . S
C1052 C1049 1.499 . S
C1052 C1053 1.373 . S
C1052 C1054 1.389 . S
C1053 H1032 0.950 . S
C1053 C1052 1.373 . S
C1053 C1069 1.377 . S
C1054 C1052 1.389 . S
C1054 C1055 1.524 . S
C1054 C1068 1.377 . S
C1055 C1054 1.524 . S
C1055 C1056 1.397 . S
C1055 C1060 1.363 . S
C1056 H1033 0.950 . S
C1056 C1055 1.397 . S
C1056 C1057 1.334 . S
C1057 H1034 0.950 . S
C1057 C1056 1.334 . S
C1057 C1058 1.287 . S
C1058 C1057 1.287 . S
C1058 C1059 1.524 . S
C1058 H1077 0.913 . S
C1059 H1035 0.950 . S
C1059 C1058 1.524 . S
C1059 C1060 1.415 . S
C1060 H1036 0.950 . S
C1060 C1055 1.363 . S
C1060 C1059 1.415 . S
C1061 H1037 0.951 . S
C1061 C1062 1.366 . S
C1061 C1063 1.388 . S
C1062 C1061 1.366 . S
C1062 C1066 1.385 . S
C1063 H1038 0.951 . S
C1063 C1061 1.388 . S
C1063 C1064 1.366 . S
C1064 C1063 1.366 . S
C1064 C1065 1.414 . S
C1064 C1067 1.499 . S
C1065 H1039 0.950 . S
C1065 C1064 1.414 . S
C1065 C1066 1.374 . S
C1066 H1040 0.950 . S
C1066 C1062 1.385 . S
C1066 C1065 1.374 . S
C1067 C1064 1.499 . S
C1067 C1068 1.373 . S
C1067 C1069 1.389 . S
C1068 H1041 0.950 . S
C1068 C1054 1.377 . S
C1068 C1067 1.373 . S
C1069 C1053 1.377 . S
C1069 C1067 1.389 . S
C1069 C1070 1.524 . S
C1070 C1069 1.524 . S
C1070 C1071 1.397 . S
C1070 C1075 1.363 . S
C1071 H1042 0.950 . S
C1071 C1070 1.397 . S
C1071 C1072 1.334 . S
C1072 H1043 0.950 . S
C1072 C1071 1.334 . S
C1072 C1073 1.287 . S
C1073 C1072 1.287 . S
C1073 C1074 1.524 . S
C1073 H1076 0.999 . S
C1074 H1044 0.950 . S
C1074 C1073 1.524 . S
C1074 C1075 1.415 . S
C1075 H1045 0.950 . S
C1075 C1070 1.363 . S
C1075 C1074 1.415 . S
H1076 C1073 0.999 . S
H1077 C1058 0.913 . S
H1078 C1096 0.951 . S
H1079 C1098 0.951 . S
H1080 C1100 0.950 . S
H1081 C1101 0.950 . S
H1082 C1103 0.950 . S
H1083 C1106 0.950 . S
H1084 C1107 0.950 . S
H1085 C1109 0.950 . S
H1086 C1110 0.950 . S
H1087 C1111 0.951 . S
H1088 C1113 0.951 . S
H1089 C1115 0.950 . S
H1090 C1116 0.950 . S
H1091 C1118 0.950 . S
H1092 C1121 0.950 . S
H1093 C1122 0.950 . S
H1094 C1124 0.950 . S
H1095 C1125 0.950 . S
C1096 H1078 0.951 . S
C1096 C1097 1.366 . S
C1096 C1098 1.388 . S
C1097 C1096 1.366 . S
C1097 C1101 1.385 . S
C1098 H1079 0.951 . S
C1098 C1096 1.388 . S
C1098 C1099 1.366 . S
C1099 C1098 1.366 . S
C1099 C1100 1.414 . S
C1099 C1102 1.499 . S
C1100 H1080 0.950 . S
C1100 C1099 1.414 . S
C1100 C1101 1.374 . S
C1101 H1081 0.950 . S
C1101 C1097 1.385 . S
C1101 C1100 1.374 . S
C1102 C1099 1.499 . S
C1102 C1103 1.373 . S
C1102 C1104 1.389 . S
C1103 H1082 0.950 . S
C1103 C1102 1.373 . S
C1103 C1119 1.377 . S
C1104 C1102 1.389 . S
C1104 C1105 1.524 . S
C1104 C1118 1.377 . S
C1105 C1104 1.524 . S
C1105 C1106 1.397 . S
C1105 C1110 1.363 . S
C1106 H1083 0.950 . S
C1106 C1105 1.397 . S
C1106 C1107 1.334 . S
C1107 H1084 0.950 . S
C1107 C1106 1.334 . S
C1107 C1108 1.287 . S
C1108 C1107 1.287 . S
C1108 C1109 1.524 . S
C1108 H1127 0.913 . S
C1109 H1085 0.950 . S
C1109 C1108 1.524 . S
C1109 C1110 1.415 . S
C1110 H1086 0.950 . S
C1110 C1105 1.363 . S
C1110 C1109 1.415 . S
C1111 H1087 0.951 . S
C1111 C1112 1.366 . S
C1111 C1113 1.388 . S
C1112 C1111 1.366 . S
C1112 C1116 1.385 . S
C1113 H1088 0.951 . S
C1113 C1111 1.388 . S
C1113 C1114 1.366 . S
C1114 C1113 1.366 . S
C1114 C1115 1.414 . S
C1114 C1117 1.499 . S
C1115 H1089 0.950 . S
C1115 C1114 1.414 . S
C1115 C1116 1.374 . S
C1116 H1090 0.950 . S
C1116 C1112 1.385 . S
C1116 C1115 1.374 . S
C1117 C1114 1.499 . S
C1117 C1118 1.373 . S
C1117 C1119 1.389 . S
C1118 H1091 0.950 . S
C1118 C1104 1.377 . S
C1118 C1117 1.373 . S
C1119 C1103 1.377 . S
C1119 C1117 1.389 . S
C1119 C1120 1.524 . S
C1120 C1119 1.524 . S
C1120 C1121 1.397 . S
C1120 C1125 1.363 . S
C1121 H1092 0.950 . S
C1121 C1120 1.397 . S
C1121 C1122 1.334 . S
C1122 H1093 0.950 . S
C1122 C1121 1.334 . S
C1122 C1123 1.287 . S
C1123 C1122 1.287 . S
C1123 C1124 1.524 . S
C1123 H1126 0.999 . S
C1124 H1094 0.950 . S
C1124 C1123 1.524 . S
C1124 C1125 1.415 . S
C1125 H1095 0.950 . S
C1125 C1120 1.363 . S
C1125 C1124 1.415 . S
H1126 C1123 0.999 . S
H1127 C1108 0.913 . S
H1128 C1146 0.951 . S
H1129 C1148 0.951 . S
H1130 C1150 0.950 . S
H1131 C1151 0.950 . S
H1132 C1153 0.950 . S
H1133 C1156 0.950 . S
H1134 C1157 0.950 . S
H1135 C1159 0.950 . S
H1136 C1160 0.950 . S
H1137 C1161 0.951 . S
H1138 C1163 0.951 . S
H1139 C1165 0.950 . S
H1140 C1166 0.950 . S
H1141 C1168 0.950 . S
H1142 C1171 0.950 . S
H1143 C1172 0.950 . S
H1144 C1174 0.950 . S
H1145 C1175 0.950 . S
C1146 H1128 0.951 . S
C1146 C1147 1.366 . S
C1146 C1148 1.388 . S
C1147 C1146 1.366 . S
C1147 C1151 1.385 . S
C1148 H1129 0.951 . S
C1148 C1146 1.388 . S
C1148 C1149 1.366 . S
C1149 C1148 1.366 . S
C1149 C1150 1.414 . S
C1149 C1152 1.499 . S
C1150 H1130 0.950 . S
C1150 C1149 1.414 . S
C1150 C1151 1.374 . S
C1151 H1131 0.950 . S
C1151 C1147 1.385 . S
C1151 C1150 1.374 . S
C1152 C1149 1.499 . S
C1152 C1153 1.373 . S
C1152 C1154 1.389 . S
C1153 H1132 0.950 . S
C1153 C1152 1.373 . S
C1153 C1169 1.377 . S
C1154 C1152 1.389 . S
C1154 C1155 1.524 . S
C1154 C1168 1.377 . S
C1155 C1154 1.524 . S
C1155 C1156 1.397 . S
C1155 C1160 1.363 . S
C1156 H1133 0.950 . S
C1156 C1155 1.397 . S
C1156 C1157 1.334 . S
C1157 H1134 0.950 . S
C1157 C1156 1.334 . S
C1157 C1158 1.287 . S
C1158 C1157 1.287 . S
C1158 C1159 1.524 . S
C1158 H1177 0.913 . S
C1159 H1135 0.950 . S
C1159 C1158 1.524 . S
C1159 C1160 1.415 . S
C1160 H1136 0.950 . S
C1160 C1155 1.363 . S
C1160 C1159 1.415 . S
C1161 H1137 0.951 . S
C1161 C1162 1.366 . S
C1161 C1163 1.388 . S
C1162 C1161 1.366 . S
C1162 C1166 1.385 . S
C1163 H1138 0.951 . S
C1163 C1161 1.388 . S
C1163 C1164 1.366 . S
C1164 C1163 1.366 . S
C1164 C1165 1.414 . S
C1164 C1167 1.499 . S
C1165 H1139 0.950 . S
C1165 C1164 1.414 . S
C1165 C1166 1.374 . S
C1166 H1140 0.950 . S
C1166 C1162 1.385 . S
C1166 C1165 1.374 . S
C1167 C1164 1.499 . S
C1167 C1168 1.373 . S
C1167 C1169 1.389 . S
C1168 H1141 0.950 . S
C1168 C1154 1.377 . S
C1168 C1167 1.373 . S
C1169 C1153 1.377 . S
C1169 C1167 1.389 . S
C1169 C1170 1.524 . S
C1170 C1169 1.524 . S
C1170 C1171 1.397 . S
C1170 C1175 1.363 . S
C1171 H1142 0.950 . S
C1171 C1170 1.397 . S
C1171 C1172 1.334 . S
C1172 H1143 0.950 . S
C1172 C1171 1.334 . S
C1172 C1173 1.287 . S
C1173 C1172 1.287 . S
C1173 C1174 1.524 . S
C1173 H1176 0.999 . S
C1174 H1144 0.950 . S
C1174 C1173 1.524 . S
C1174 C1175 1.415 . S
C1175 H1145 0.950 . S
C1175 C1170 1.363 . S
C1175 C1174 1.415 . S
H1176 C1173 0.999 . S
H1177 C1158 0.913 . S
H1178 C1196 0.951 . S
H1179 C1198 0.951 . S
H1180 C1200 0.950 . S
H1181 C1201 0.950 . S
H1182 C1203 0.950 . S
H1183 C1206 0.950 . S
H1184 C1207 0.950 . S
H1185 C1209 0.950 . S
H1186 C1210 0.950 . S
H1187 C1211 0.951 . S
H1188 C1213 0.951 . S
H1189 C1215 0.950 . S
H1190 C1216 0.950 . S
H1191 C1218 0.950 . S
H1192 C1221 0.950 . S
H1193 C1222 0.950 . S
H1194 C1224 0.950 . S
H1195 C1225 0.950 . S
C1196 H1178 0.951 . S
C1196 C1197 1.366 . S
C1196 C1198 1.388 . S
C1197 C1196 1.366 . S
C1197 C1201 1.385 . S
C1198 H1179 0.951 . S
C1198 C1196 1.388 . S
C1198 C1199 1.366 . S
C1199 C1198 1.366 . S
C1199 C1200 1.414 . S
C1199 C1202 1.499 . S
C1200 H1180 0.950 . S
C1200 C1199 1.414 . S
C1200 C1201 1.374 . S
C1201 H1181 0.950 . S
C1201 C1197 1.385 . S
C1201 C1200 1.374 . S
C1202 C1199 1.499 . S
C1202 C1203 1.373 . S
C1202 C1204 1.389 . S
C1203 H1182 0.950 . S
C1203 C1202 1.373 . S
C1203 C1219 1.377 . S
C1204 C1202 1.389 . S
C1204 C1205 1.524 . S
C1204 C1218 1.377 . S
C1205 C1204 1.524 . S
C1205 C1206 1.397 . S
C1205 C1210 1.363 . S
C1206 H1183 0.950 . S
C1206 C1205 1.397 . S
C1206 C1207 1.334 . S
C1207 H1184 0.950 . S
C1207 C1206 1.334 . S
C1207 C1208 1.287 . S
C1208 C1207 1.287 . S
C1208 C1209 1.524 . S
C1208 H1227 0.913 . S
C1209 H1185 0.950 . S
C1209 C1208 1.524 . S
C1209 C1210 1.415 . S
C1210 H1186 0.950 . S
C1210 C1205 1.363 . S
C1210 C1209 1.415 . S
C1211 H1187 0.951 . S
C1211 C1212 1.366 . S
C1211 C1213 1.388 . S
C1212 C1211 1.366 . S
C1212 C1216 1.385 . S
C1213 H1188 0.951 . S
C1213 C1211 1.388 . S
C1213 C1214 1.366 . S
C1214 C1213 1.366 . S
C1214 C1215 1.414 . S
C1214 C1217 1.499 . S
C1215 H1189 0.950 . S
C1215 C1214 1.414 . S
C1215 C1216 1.374 . S
C1216 H1190 0.950 . S
C1216 C1212 1.385 . S
C1216 C1215 1.374 . S
C1217 C1214 1.499 . S
C1217 C1218 1.373 . S
C1217 C1219 1.389 . S
C1218 H1191 0.950 . S
C1218 C1204 1.377 . S
C1218 C1217 1.373 . S
C1219 C1203 1.377 . S
C1219 C1217 1.389 . S
C1219 C1220 1.524 . S
C1220 C1219 1.524 . S
C1220 C1221 1.397 . S
C1220 C1225 1.363 . S
C1221 H1192 0.950 . S
C1221 C1220 1.397 . S
C1221 C1222 1.334 . S
C1222 H1193 0.950 . S
C1222 C1221 1.334 . S
C1222 C1223 1.287 . S
C1223 C1222 1.287 . S
C1223 C1224 1.524 . S
C1223 H1226 0.999 . S
C1224 H1194 0.950 . S
C1224 C1223 1.524 . S
C1224 C1225 1.415 . S
C1225 H1195 0.950 . S
C1225 C1220 1.363 . S
C1225 C1224 1.415 . S
H1226 C1223 0.999 . S
H1227 C1208 0.913 . S
H1228 C1246 0.951 . S
H1229 C1248 0.951 . S
H1230 C1250 0.950 . S
H1231 C1251 0.950 . S
H1232 C1253 0.950 . S
H1233 C1256 0.950 . S
H1234 C1257 0.950 . S
H1235 C1259 0.950 . S
H1236 C1260 0.950 . S
H1237 C1261 0.951 . S
H1238 C1263 0.951 . S
H1239 C1265 0.950 . S
H1240 C1266 0.950 . S
H1241 C1268 0.950 . S
H1242 C1271 0.950 . S
H1243 C1272 0.950 . S
H1244 C1274 0.950 . S
H1245 C1275 0.950 . S
C1246 H1228 0.951 . S
C1246 C1247 1.366 . S
C1246 C1248 1.388 . S
C1247 C1246 1.366 . S
C1247 C1251 1.385 . S
C1248 H1229 0.951 . S
C1248 C1246 1.388 . S
C1248 C1249 1.366 . S
C1249 C1248 1.366 . S
C1249 C1250 1.414 . S
C1249 C1252 1.499 . S
C1250 H1230 0.950 . S
C1250 C1249 1.414 . S
C1250 C1251 1.374 . S
C1251 H1231 0.950 . S
C1251 C1247 1.385 . S
C1251 C1250 1.374 . S
C1252 C1249 1.499 . S
C1252 C1253 1.373 . S
C1252 C1254 1.389 . S
C1253 H1232 0.950 . S
C1253 C1252 1.373 . S
C1253 C1269 1.377 . S
C1254 C1252 1.389 . S
C1254 C1255 1.524 . S
C1254 C1268 1.377 . S
C1255 C1254 1.524 . S
C1255 C1256 1.397 . S
C1255 C1260 1.363 . S
C1256 H1233 0.950 . S
C1256 C1255 1.397 . S
C1256 C1257 1.334 . S
C1257 H1234 0.950 . S
C1257 C1256 1.334 . S
C1257 C1258 1.287 . S
C1258 C1257 1.287 . S
C1258 C1259 1.524 . S
C1258 H1277 0.913 . S
C1259 H1235 0.950 . S
C1259 C1258 1.524 . S
C1259 C1260 1.415 . S
C1260 H1236 0.950 . S
C1260 C1255 1.363 . S
C1260 C1259 1.415 . S
C1261 H1237 0.951 . S
C1261 C1262 1.366 . S
C1261 C1263 1.388 . S
C1262 C1261 1.366 . S
C1262 C1266 1.385 . S
C1263 H1238 0.951 . S
C1263 C1261 1.388 . S
C1263 C1264 1.366 . S
C1264 C1263 1.366 . S
C1264 C1265 1.414 . S
C1264 C1267 1.499 . S
C1265 H1239 0.950 . S
C1265 C1264 1.414 . S
C1265 C1266 1.374 . S
C1266 H1240 0.950 . S
C1266 C1262 1.385 . S
C1266 C1265 1.374 . S
C1267 C1264 1.499 . S
C1267 C1268 1.373 . S
C1267 C1269 1.389 . S
C1268 H1241 0.950 . S
C1268 C1254 1.377 . S
C1268 C1267 1.373 . S
C1269 C1253 1.377 . S
C1269 C1267 1.389 . S
C1269 C1270 1.524 . S
C1270 C1269 1.524 . S
C1270 C1271 1.397 . S
C1270 C1275 1.363 . S
C1271 H1242 0.950 . S
C1271 C1270 1.397 . S
C1271 C1272 1.334 . S
C1272 H1243 0.950 . S
C1272 C1271 1.334 . S
C1272 C1273 1.287 . S
C1273 C1272 1.287 . S
C1273 C1274 1.524 . S
C1273 H1276 0.999 . S
C1274 H1244 0.950 . S
C1274 C1273 1.524 . S
C1274 C1275 1.415 . S
C1275 H1245 0.950 . S
C1275 C1270 1.363 . S
C1275 C1274 1.415 . S
H1276 C1273 0.999 . S
H1277 C1258 0.913 . S
H1278 C1296 0.951 . S
H1279 C1298 0.951 . S
H1280 C1300 0.950 . S
H1281 C1301 0.950 . S
H1282 C1303 0.950 . S
H1283 C1306 0.950 . S
H1284 C1307 0.950 . S
H1285 C1309 0.950 . S
H1286 C1310 0.950 . S
H1287 C1311 0.951 . S
H1288 C1313 0.951 . S
H1289 C1315 0.950 . S
H1290 C1316 0.950 . S
H1291 C1318 0.950 . S
H1292 C1321 0.950 . S
H1293 C1322 0.950 . S
H1294 C1324 0.950 . S
H1295 C1325 0.950 . S
C1296 H1278 0.951 . S
C1296 C1297 1.366 . S
C1296 C1298 1.388 . S
C1297 C1296 1.366 . S
C1297 C1301 1.385 . S
C1298 H1279 0.951 . S
C1298 C1296 1.388 . S
C1298 C1299 1.366 . S
C1299 C1298 1.366 . S
C1299 C1300 1.414 . S
C1299 C1302 1.499 . S
C1300 H1280 0.950 . S
C1300 C1299 1.414 . S
C1300 C1301 1.374 . S
C1301 H1281 0.950 . S
C1301 C1297 1.385 . S
C1301 C1300 1.374 . S
C1302 C1299 1.499 . S
C1302 C1303 1.373 . S
C1302 C1304 1.389 . S
C1303 H1282 0.950 . S
C1303 C1302 1.373 . S
C1303 C1319 1.377 . S
C1304 C1302 1.389 . S
C1304 C1305 1.524 . S
C1304 C1318 1.377 . S
C1305 C1304 1.524 . S
C1305 C1306 1.397 . S
C1305 C1310 1.363 . S
C1306 H1283 0.950 . S
C1306 C1305 1.397 . S
C1306 C1307 1.334 . S
C1307 H1284 0.950 . S
C1307 C1306 1.334 . S
C1307 C1308 1.287 . S
C1308 C1307 1.287 . S
C1308 C1309 1.524 . S
C1308 H1327 0.913 . S
C1309 H1285 0.950 . S
C1309 C1308 1.524 . S
C1309 C1310 1.415 . S
C1310 H1286 0.950 . S
C1310 C1305 1.363 . S
C1310 C1309 1.415 . S
C1311 H1287 0.951 . S
C1311 C1312 1.366 . S
C1311 C1313 1.388 . S
C1312 C1311 1.366 . S
C1312 C1316 1.385 . S
C1313 H1288 0.951 . S
C1313 C1311 1.388 . S
C1313 C1314 1.366 . S
C1314 C1313 1.366 . S
C1314 C1315 1.414 . S
C1314 C1317 1.499 . S
C1315 H1289 0.950 . S
C1315 C1314 1.414 . S
C1315 C1316 1.374 . S
C1316 H1290 0.950 . S
C1316 C1312 1.385 . S
C1316 C1315 1.374 . S
C1317 C1314 1.499 . S
C1317 C1318 1.373 . S
C1317 C1319 1.389 . S
C1318 H1291 0.950 . S
C1318 C1304 1.377 . S
C1318 C1317 1.373 . S
C1319 C1303 1.377 . S
C1319 C1317 1.389 . S
C1319 C1320 1.524 . S
C1320 C1319 1.524 . S
C1320 C1321 1.397 . S
C1320 C1325 1.363 . S
C1321 H1292 0.950 . S
C1321 C1320 1.397 . S
C1321 C1322 1.334 . S
C1322 H1293 0.950 . S
C1322 C1321 1.334 . S
C1322 C1323 1.287 . S
C1323 C1322 1.287 . S
C1323 C1324 1.524 . S
C1323 H1326 0.999 . S
C1324 H1294 0.950 . S
C1324 C1323 1.524 . S
C1324 C1325 1.415 . S
C1325 H1295 0.950 . S
C1325 C1320 1.363 . S
C1325 C1324 1.415 . S
H1326 C1323 0.999 . S
H1327 C1308 0.913 . S
H1328 C1346 0.951 . S
H1329 C1348 0.951 . S
H1330 C1350 0.950 . S
H1331 C1351 0.950 . S
H1332 C1353 0.950 . S
H1333 C1356 0.950 . S
H1334 C1357 0.950 . S
H1335 C1359 0.950 . S
H1336 C1360 0.950 . S
H1337 C1361 0.951 . S
H1338 C1363 0.951 . S
H1339 C1365 0.950 . S
H1340 C1366 0.950 . S
H1341 C1368 0.950 . S
H1342 C1371 0.950 . S
H1343 C1372 0.950 . S
H1344 C1374 0.950 . S
H1345 C1375 0.950 . S
C1346 H1328 0.951 . S
C1346 C1347 1.366 . S
C1346 C1348 1.388 . S
C1347 C1346 1.366 . S
C1347 C1351 1.385 . S
C1348 H1329 0.951 . S
C1348 C1346 1.388 . S
C1348 C1349 1.366 . S
C1349 C1348 1.366 . S
C1349 C1350 1.414 . S
C1349 C1352 1.499 . S
C1350 H1330 0.950 . S
C1350 C1349 1.414 . S
C1350 C1351 1.374 . S
C1351 H1331 0.950 . S
C1351 C1347 1.385 . S
C1351 C1350 1.374 . S
C1352 C1349 1.499 . S
C1352 C1353 1.373 . S
C1352 C1354 1.389 . S
C1353 H1332 0.950 . S
C1353 C1352 1.373 . S
C1353 C1369 1.377 1_554 S
C1354 C1352 1.389 . S
C1354 C1355 1.524 . S
C1354 C1368 1.377 1_554 S
C1355 C1354 1.524 . S
C1355 C1356 1.397 . S
C1355 C1360 1.363 . S
C1356 H1333 0.950 . S
C1356 C1355 1.397 . S
C1356 C1357 1.334 . S
C1357 H1334 0.950 . S
C1357 C1356 1.334 . S
C1357 C1358 1.287 . S
C1358 C1357 1.287 . S
C1358 C1359 1.524 . S
C1358 H1377 0.913 . S
C1359 H1335 0.950 . S
C1359 C1358 1.524 . S
C1359 C1360 1.415 . S
C1360 H1336 0.950 . S
C1360 C1355 1.363 . S
C1360 C1359 1.415 . S
C1361 H1337 0.951 . S
C1361 C1362 1.366 . S
C1361 C1363 1.388 . S
C1362 C1361 1.366 . S
C1362 C1366 1.385 . S
C1363 H1338 0.951 . S
C1363 C1361 1.388 . S
C1363 C1364 1.366 . S
C1364 C1363 1.366 . S
C1364 C1365 1.414 . S
C1364 C1367 1.499 . S
C1365 H1339 0.950 . S
C1365 C1364 1.414 . S
C1365 C1366 1.374 . S
C1366 H1340 0.950 . S
C1366 C1362 1.385 . S
C1366 C1365 1.374 . S
C1367 C1364 1.499 . S
C1367 C1368 1.373 . S
C1367 C1369 1.389 . S
C1368 H1341 0.950 . S
C1368 C1354 1.377 1_556 S
C1368 C1367 1.373 . S
C1369 C1353 1.377 1_556 S
C1369 C1367 1.389 . S
C1369 C1370 1.524 . S
C1370 C1369 1.524 . S
C1370 C1371 1.397 . S
C1370 C1375 1.363 . S
C1371 H1342 0.950 . S
C1371 C1370 1.397 . S
C1371 C1372 1.334 . S
C1372 H1343 0.950 . S
C1372 C1371 1.334 . S
C1372 C1373 1.287 . S
C1373 C1372 1.287 . S
C1373 C1374 1.524 . S
C1373 H1376 0.999 . S
C1374 H1344 0.950 . S
C1374 C1373 1.524 . S
C1374 C1375 1.415 . S
C1375 H1345 0.950 . S
C1375 C1370 1.363 . S
C1375 C1374 1.415 . S
H1376 C1373 0.999 . S
H1377 C1358 0.913 . S
H1378 C1396 0.951 . S
H1379 C1398 0.951 . S
H1380 C1400 0.950 . S
H1381 C1401 0.950 . S
H1382 C1403 0.950 . S
H1383 C1406 0.950 . S
H1384 C1407 0.950 . S
H1385 C1409 0.950 . S
H1386 C1410 0.950 . S
H1387 C1411 0.951 . S
H1388 C1413 0.951 . S
H1389 C1415 0.950 . S
H1390 C1416 0.950 . S
H1391 C1418 0.950 . S
H1392 C1421 0.950 . S
H1393 C1422 0.950 . S
H1394 C1424 0.950 . S
H1395 C1425 0.950 . S
C1396 H1378 0.951 . S
C1396 C1397 1.366 . S
C1396 C1398 1.388 . S
C1397 C1396 1.366 . S
C1397 C1401 1.385 . S
C1398 H1379 0.951 . S
C1398 C1396 1.388 . S
C1398 C1399 1.366 . S
C1399 C1398 1.366 . S
C1399 C1400 1.414 . S
C1399 C1402 1.499 . S
C1400 H1380 0.950 . S
C1400 C1399 1.414 . S
C1400 C1401 1.374 . S
C1401 H1381 0.950 . S
C1401 C1397 1.385 . S
C1401 C1400 1.374 . S
C1402 C1399 1.499 . S
C1402 C1403 1.373 . S
C1402 C1404 1.389 . S
C1403 H1382 0.950 . S
C1403 C1402 1.373 . S
C1403 C1419 1.377 1_556 S
C1404 C1402 1.389 . S
C1404 C1405 1.524 . S
C1404 C1418 1.377 1_556 S
C1405 C1404 1.524 . S
C1405 C1406 1.397 . S
C1405 C1410 1.363 . S
C1406 H1383 0.950 . S
C1406 C1405 1.397 . S
C1406 C1407 1.334 . S
C1407 H1384 0.950 . S
C1407 C1406 1.334 . S
C1407 C1408 1.287 . S
C1408 C1407 1.287 . S
C1408 C1409 1.524 . S
C1408 H1427 0.913 . S
C1409 H1385 0.950 . S
C1409 C1408 1.524 . S
C1409 C1410 1.415 . S
C1410 H1386 0.950 . S
C1410 C1405 1.363 . S
C1410 C1409 1.415 . S
C1411 H1387 0.951 . S
C1411 C1412 1.366 . S
C1411 C1413 1.388 . S
C1412 C1411 1.366 . S
C1412 C1416 1.385 . S
C1413 H1388 0.951 . S
C1413 C1411 1.388 . S
C1413 C1414 1.366 . S
C1414 C1413 1.366 . S
C1414 C1415 1.414 . S
C1414 C1417 1.499 . S
C1415 H1389 0.950 . S
C1415 C1414 1.414 . S
C1415 C1416 1.374 . S
C1416 H1390 0.950 . S
C1416 C1412 1.385 . S
C1416 C1415 1.374 . S
C1417 C1414 1.499 . S
C1417 C1418 1.373 . S
C1417 C1419 1.389 . S
C1418 H1391 0.950 . S
C1418 C1404 1.377 1_554 S
C1418 C1417 1.373 . S
C1419 C1403 1.377 1_554 S
C1419 C1417 1.389 . S
C1419 C1420 1.524 . S
C1420 C1419 1.524 . S
C1420 C1421 1.397 . S
C1420 C1425 1.363 . S
C1421 H1392 0.950 . S
C1421 C1420 1.397 . S
C1421 C1422 1.334 . S
C1422 H1393 0.950 . S
C1422 C1421 1.334 . S
C1422 C1423 1.287 . S
C1423 C1422 1.287 . S
C1423 C1424 1.524 . S
C1423 H1426 0.999 . S
C1424 H1394 0.950 . S
C1424 C1423 1.524 . S
C1424 C1425 1.415 . S
C1425 H1395 0.950 . S
C1425 C1420 1.363 . S
C1425 C1424 1.415 . S
H1426 C1423 0.999 . S
H1427 C1408 0.913 . S
H1428 C1446 0.951 . S
H1429 C1448 0.951 . S
H1430 C1450 0.950 . S
H1431 C1451 0.950 . S
H1432 C1453 0.950 . S
H1433 C1456 0.950 . S
H1434 C1457 0.950 . S
H1435 C1459 0.950 . S
H1436 C1460 0.950 . S
H1437 C1461 0.951 . S
H1438 C1463 0.951 . S
H1439 C1465 0.950 . S
H1440 C1466 0.950 . S
H1441 C1468 0.950 . S
H1442 C1471 0.950 . S
H1443 C1472 0.950 . S
H1444 C1474 0.950 . S
H1445 C1475 0.950 . S
C1446 H1428 0.951 . S
C1446 C1447 1.366 . S
C1446 C1448 1.388 . S
C1447 C1446 1.366 . S
C1447 C1451 1.385 . S
C1448 H1429 0.951 . S
C1448 C1446 1.388 . S
C1448 C1449 1.366 . S
C1449 C1448 1.366 . S
C1449 C1450 1.414 . S
C1449 C1452 1.499 . S
C1450 H1430 0.950 . S
C1450 C1449 1.414 . S
C1450 C1451 1.374 . S
C1451 H1431 0.950 . S
C1451 C1447 1.385 . S
C1451 C1450 1.374 . S
C1452 C1449 1.499 . S
C1452 C1453 1.373 . S
C1452 C1454 1.389 . S
C1453 H1432 0.950 . S
C1453 C1452 1.373 . S
C1453 C1469 1.377 1_556 S
C1454 C1452 1.389 . S
C1454 C1455 1.524 . S
C1454 C1468 1.377 1_556 S
C1455 C1454 1.524 . S
C1455 C1456 1.397 . S
C1455 C1460 1.363 . S
C1456 H1433 0.950 . S
C1456 C1455 1.397 . S
C1456 C1457 1.334 . S
C1457 H1434 0.950 . S
C1457 C1456 1.334 . S
C1457 C1458 1.287 . S
C1458 C1457 1.287 . S
C1458 C1459 1.524 . S
C1458 H1477 0.913 . S
C1459 H1435 0.950 . S
C1459 C1458 1.524 . S
C1459 C1460 1.415 . S
C1460 H1436 0.950 . S
C1460 C1455 1.363 . S
C1460 C1459 1.415 . S
C1461 H1437 0.951 . S
C1461 C1462 1.366 . S
C1461 C1463 1.388 . S
C1462 C1461 1.366 . S
C1462 C1466 1.385 . S
C1463 H1438 0.951 . S
C1463 C1461 1.388 . S
C1463 C1464 1.366 . S
C1464 C1463 1.366 . S
C1464 C1465 1.414 . S
C1464 C1467 1.499 . S
C1465 H1439 0.950 . S
C1465 C1464 1.414 . S
C1465 C1466 1.374 . S
C1466 H1440 0.950 . S
C1466 C1462 1.385 . S
C1466 C1465 1.374 . S
C1467 C1464 1.499 . S
C1467 C1468 1.373 . S
C1467 C1469 1.389 . S
C1468 H1441 0.950 . S
C1468 C1454 1.377 1_554 S
C1468 C1467 1.373 . S
C1469 C1453 1.377 1_554 S
C1469 C1467 1.389 . S
C1469 C1470 1.524 . S
C1470 C1469 1.524 . S
C1470 C1471 1.397 . S
C1470 C1475 1.363 . S
C1471 H1442 0.950 . S
C1471 C1470 1.397 . S
C1471 C1472 1.334 . S
C1472 H1443 0.950 . S
C1472 C1471 1.334 . S
C1472 C1473 1.287 . S
C1473 C1472 1.287 . S
C1473 C1474 1.524 . S
C1473 H1476 0.999 . S
C1474 H1444 0.950 . S
C1474 C1473 1.524 . S
C1474 C1475 1.415 . S
C1475 H1445 0.950 . S
C1475 C1470 1.363 . S
C1475 C1474 1.415 . S
H1476 C1473 0.999 . S
H1477 C1458 0.913 . S
H1478 C1496 0.951 . S
H1479 C1498 0.951 . S
H1480 C1500 0.950 . S
H1481 C1501 0.950 . S
H1482 C1503 0.950 . S
H1483 C1506 0.950 . S
H1484 C1507 0.950 . S
H1485 C1509 0.950 . S
H1486 C1510 0.950 . S
H1487 C1511 0.951 . S
H1488 C1513 0.951 . S
H1489 C1515 0.950 . S
H1490 C1516 0.950 . S
H1491 C1518 0.950 . S
H1492 C1521 0.950 . S
H1493 C1522 0.950 . S
H1494 C1524 0.950 . S
H1495 C1525 0.950 . S
C1496 H1478 0.951 . S
C1496 C1497 1.366 . S
C1496 C1498 1.388 . S
C1497 C1496 1.366 . S
C1497 C1501 1.385 . S
C1498 H1479 0.951 . S
C1498 C1496 1.388 . S
C1498 C1499 1.366 . S
C1499 C1498 1.366 . S
C1499 C1500 1.414 . S
C1499 C1502 1.499 . S
C1500 H1480 0.950 . S
C1500 C1499 1.414 . S
C1500 C1501 1.374 . S
C1501 H1481 0.950 . S
C1501 C1497 1.385 . S
C1501 C1500 1.374 . S
C1502 C1499 1.499 . S
C1502 C1503 1.373 . S
C1502 C1504 1.389 . S
C1503 H1482 0.950 . S
C1503 C1502 1.373 . S
C1503 C1519 1.377 1_556 S
C1504 C1502 1.389 . S
C1504 C1505 1.524 . S
C1504 C1518 1.377 1_556 S
C1505 C1504 1.524 . S
C1505 C1506 1.397 . S
C1505 C1510 1.363 . S
C1506 H1483 0.950 . S
C1506 C1505 1.397 . S
C1506 C1507 1.334 . S
C1507 H1484 0.950 . S
C1507 C1506 1.334 . S
C1507 C1508 1.287 . S
C1508 C1507 1.287 . S
C1508 C1509 1.524 . S
C1508 H1527 0.913 . S
C1509 H1485 0.950 . S
C1509 C1508 1.524 . S
C1509 C1510 1.415 . S
C1510 H1486 0.950 . S
C1510 C1505 1.363 . S
C1510 C1509 1.415 . S
C1511 H1487 0.951 . S
C1511 C1512 1.366 . S
C1511 C1513 1.388 . S
C1512 C1511 1.366 . S
C1512 C1516 1.385 . S
C1513 H1488 0.951 . S
C1513 C1511 1.388 . S
C1513 C1514 1.366 . S
C1514 C1513 1.366 . S
C1514 C1515 1.414 . S
C1514 C1517 1.499 . S
C1515 H1489 0.950 . S
C1515 C1514 1.414 . S
C1515 C1516 1.374 . S
C1516 H1490 0.950 . S
C1516 C1512 1.385 . S
C1516 C1515 1.374 . S
C1517 C1514 1.499 . S
C1517 C1518 1.373 . S
C1517 C1519 1.389 . S
C1518 H1491 0.950 . S
C1518 C1504 1.377 1_554 S
C1518 C1517 1.373 . S
C1519 C1503 1.377 1_554 S
C1519 C1517 1.389 . S
C1519 C1520 1.524 . S
C1520 C1519 1.524 . S
C1520 C1521 1.397 . S
C1520 C1525 1.363 . S
C1521 H1492 0.950 . S
C1521 C1520 1.397 . S
C1521 C1522 1.334 . S
C1522 H1493 0.950 . S
C1522 C1521 1.334 . S
C1522 C1523 1.287 . S
C1523 C1522 1.287 . S
C1523 C1524 1.524 . S
C1523 H1526 0.999 . S
C1524 H1494 0.950 . S
C1524 C1523 1.524 . S
C1524 C1525 1.415 . S
C1525 H1495 0.950 . S
C1525 C1520 1.363 . S
C1525 C1524 1.415 . S
H1526 C1523 0.999 . S
H1527 C1508 0.913 . S
H1528 C1546 0.951 . S
H1529 C1548 0.951 . S
H1530 C1550 0.950 . S
H1531 C1551 0.950 . S
H1532 C1553 0.950 . S
H1533 C1556 0.950 . S
H1534 C1557 0.950 . S
H1535 C1559 0.950 . S
H1536 C1560 0.950 . S
H1537 C1561 0.951 . S
H1538 C1563 0.951 . S
H1539 C1565 0.950 . S
H1540 C1566 0.950 . S
H1541 C1568 0.950 . S
H1542 C1571 0.950 . S
H1543 C1572 0.950 . S
H1544 C1574 0.950 . S
H1545 C1575 0.950 . S
C1546 H1528 0.951 . S
C1546 C1547 1.366 . S
C1546 C1548 1.388 . S
C1547 C1546 1.366 . S
C1547 C1551 1.385 . S
C1548 H1529 0.951 . S
C1548 C1546 1.388 . S
C1548 C1549 1.366 . S
C1549 C1548 1.366 . S
C1549 C1550 1.414 . S
C1549 C1552 1.499 . S
C1550 H1530 0.950 . S
C1550 C1549 1.414 . S
C1550 C1551 1.374 . S
C1551 H1531 0.950 . S
C1551 C1547 1.385 . S
C1551 C1550 1.374 . S
C1552 C1549 1.499 . S
C1552 C1553 1.373 . S
C1552 C1554 1.389 . S
C1553 H1532 0.950 . S
C1553 C1552 1.373 . S
C1553 C1569 1.377 . S
C1554 C1552 1.389 . S
C1554 C1555 1.524 . S
C1554 C1568 1.377 . S
C1555 C1554 1.524 . S
C1555 C1556 1.397 . S
C1555 C1560 1.363 . S
C1556 H1533 0.950 . S
C1556 C1555 1.397 . S
C1556 C1557 1.334 . S
C1557 H1534 0.950 . S
C1557 C1556 1.334 . S
C1557 C1558 1.287 . S
C1558 C1557 1.287 . S
C1558 C1559 1.524 . S
C1558 H1577 0.913 . S
C1559 H1535 0.950 . S
C1559 C1558 1.524 . S
C1559 C1560 1.415 . S
C1560 H1536 0.950 . S
C1560 C1555 1.363 . S
C1560 C1559 1.415 . S
C1561 H1537 0.951 . S
C1561 C1562 1.366 . S
C1561 C1563 1.388 . S
C1562 C1561 1.366 . S
C1562 C1566 1.385 . S
C1563 H1538 0.951 . S
C1563 C1561 1.388 . S
C1563 C1564 1.366 . S
C1564 C1563 1.366 . S
C1564 C1565 1.414 . S
C1564 C1567 1.499 . S
C1565 H1539 0.950 . S
C1565 C1564 1.414 . S
C1565 C1566 1.374 . S
C1566 H1540 0.950 . S
C1566 C1562 1.385 . S
C1566 C1565 1.374 . S
C1567 C1564 1.499 . S
C1567 C1568 1.373 . S
C1567 C1569 1.389 . S
C1568 H1541 0.950 . S
C1568 C1554 1.377 . S
C1568 C1567 1.373 . S
C1569 C1553 1.377 . S
C1569 C1567 1.389 . S
C1569 C1570 1.524 . S
C1570 C1569 1.524 . S
C1570 C1571 1.397 . S
C1570 C1575 1.363 . S
C1571 H1542 0.950 . S
C1571 C1570 1.397 . S
C1571 C1572 1.334 . S
C1572 H1543 0.950 . S
C1572 C1571 1.334 . S
C1572 C1573 1.287 . S
C1573 C1572 1.287 . S
C1573 C1574 1.524 . S
C1573 H1576 0.999 . S
C1574 H1544 0.950 . S
C1574 C1573 1.524 . S
C1574 C1575 1.415 . S
C1575 H1545 0.950 . S
C1575 C1570 1.363 . S
C1575 C1574 1.415 . S
H1576 C1573 0.999 . S
H1577 C1558 0.913 . S
H1578 C1596 0.951 . S
H1579 C1598 0.951 . S
H1580 C1600 0.950 . S
H1581 C1601 0.950 . S
H1582 C1603 0.950 . S
H1583 C1606 0.950 . S
H1584 C1607 0.950 . S
H1585 C1609 0.950 . S
H1586 C1610 0.950 . S
H1587 C1611 0.951 . S
H1588 C1613 0.951 . S
H1589 C1615 0.950 . S
H1590 C1616 0.950 . S
H1591 C1618 0.950 . S
H1592 C1621 0.950 . S
H1593 C1622 0.950 . S
H1594 C1624 0.950 . S
H1595 C1625 0.950 . S
C1596 H1578 0.951 . S
C1596 C1597 1.366 . S
C1596 C1598 1.388 . S
C1597 C1596 1.366 . S
C1597 C1601 1.385 . S
C1598 H1579 0.951 . S
C1598 C1596 1.388 . S
C1598 C1599 1.366 . S
C1599 C1598 1.366 . S
C1599 C1600 1.414 . S
C1599 C1602 1.499 . S
C1600 H1580 0.950 . S
C1600 C1599 1.414 . S
C1600 C1601 1.374 . S
C1601 H1581 0.950 . S
C1601 C1597 1.385 . S
C1601 C1600 1.374 . S
C1602 C1599 1.499 . S
C1602 C1603 1.373 . S
C1602 C1604 1.389 . S
C1603 H1582 0.950 . S
C1603 C1602 1.373 . S
C1603 C1619 1.377 . S
C1604 C1602 1.389 . S
C1604 C1605 1.524 . S
C1604 C1618 1.377 . S
C1605 C1604 1.524 . S
C1605 C1606 1.397 . S
C1605 C1610 1.363 . S
C1606 H1583 0.950 . S
C1606 C1605 1.397 . S
C1606 C1607 1.334 . S
C1607 H1584 0.950 . S
C1607 C1606 1.334 . S
C1607 C1608 1.287 . S
C1608 C1607 1.287 . S
C1608 C1609 1.524 . S
C1608 H1627 0.913 . S
C1609 H1585 0.950 . S
C1609 C1608 1.524 . S
C1609 C1610 1.415 . S
C1610 H1586 0.950 . S
C1610 C1605 1.363 . S
C1610 C1609 1.415 . S
C1611 H1587 0.951 . S
C1611 C1612 1.366 . S
C1611 C1613 1.388 . S
C1612 C1611 1.366 . S
C1612 C1616 1.385 . S
C1613 H1588 0.951 . S
C1613 C1611 1.388 . S
C1613 C1614 1.366 . S
C1614 C1613 1.366 . S
C1614 C1615 1.414 . S
C1614 C1617 1.499 . S
C1615 H1589 0.950 . S
C1615 C1614 1.414 . S
C1615 C1616 1.374 . S
C1616 H1590 0.950 . S
C1616 C1612 1.385 . S
C1616 C1615 1.374 . S
C1617 C1614 1.499 . S
C1617 C1618 1.373 . S
C1617 C1619 1.389 . S
C1618 H1591 0.950 . S
C1618 C1604 1.377 . S
C1618 C1617 1.373 . S
C1619 C1603 1.377 . S
C1619 C1617 1.389 . S
C1619 C1620 1.524 . S
C1620 C1619 1.524 . S
C1620 C1621 1.397 . S
C1620 C1625 1.363 . S
C1621 H1592 0.950 . S
C1621 C1620 1.397 . S
C1621 C1622 1.334 . S
C1622 H1593 0.950 . S
C1622 C1621 1.334 . S
C1622 C1623 1.287 . S
C1623 C1622 1.287 . S
C1623 C1624 1.524 . S
C1623 H1626 0.999 . S
C1624 H1594 0.950 . S
C1624 C1623 1.524 . S
C1624 C1625 1.415 . S
C1625 H1595 0.950 . S
C1625 C1620 1.363 . S
C1625 C1624 1.415 . S
H1626 C1623 0.999 . S
H1627 C1608 0.913 . S
H1628 C1646 0.951 . S
H1629 C1648 0.951 . S
H1630 C1650 0.950 . S
H1631 C1651 0.950 . S
H1632 C1653 0.950 . S
H1633 C1656 0.950 . S
H1634 C1657 0.950 . S
H1635 C1659 0.950 . S
H1636 C1660 0.950 . S
H1637 C1661 0.951 . S
H1638 C1663 0.951 . S
H1639 C1665 0.950 . S
H1640 C1666 0.950 . S
H1641 C1668 0.950 . S
H1642 C1671 0.950 . S
H1643 C1672 0.950 . S
H1644 C1674 0.950 . S
H1645 C1675 0.950 . S
C1646 H1628 0.951 . S
C1646 C1647 1.366 . S
C1646 C1648 1.388 . S
C1647 C1646 1.366 . S
C1647 C1651 1.385 . S
C1648 H1629 0.951 . S
C1648 C1646 1.388 . S
C1648 C1649 1.366 . S
C1649 C1648 1.366 . S
C1649 C1650 1.414 . S
C1649 C1652 1.499 . S
C1650 H1630 0.950 . S
C1650 C1649 1.414 . S
C1650 C1651 1.374 . S
C1651 H1631 0.950 . S
C1651 C1647 1.385 . S
C1651 C1650 1.374 . S
C1652 C1649 1.499 . S
C1652 C1653 1.373 . S
C1652 C1654 1.389 . S
C1653 H1632 0.950 . S
C1653 C1652 1.373 . S
C1653 C1669 1.377 . S
C1654 C1652 1.389 . S
C1654 C1655 1.524 . S
C1654 C1668 1.377 . S
C1655 C1654 1.524 . S
C1655 C1656 1.397 . S
C1655 C1660 1.363 . S
C1656 H1633 0.950 . S
C1656 C1655 1.397 . S
C1656 C1657 1.334 . S
C1657 H1634 0.950 . S
C1657 C1656 1.334 . S
C1657 C1658 1.287 . S
C1658 C1657 1.287 . S
C1658 C1659 1.524 . S
C1658 H1677 0.913 . S
C1659 H1635 0.950 . S
C1659 C1658 1.524 . S
C1659 C1660 1.415 . S
C1660 H1636 0.950 . S
C1660 C1655 1.363 . S
C1660 C1659 1.415 . S
C1661 H1637 0.951 . S
C1661 C1662 1.366 . S
C1661 C1663 1.388 . S
C1662 C1661 1.366 . S
C1662 C1666 1.385 . S
C1663 H1638 0.951 . S
C1663 C1661 1.388 . S
C1663 C1664 1.366 . S
C1664 C1663 1.366 . S
C1664 C1665 1.414 . S
C1664 C1667 1.499 . S
C1665 H1639 0.950 . S
C1665 C1664 1.414 . S
C1665 C1666 1.374 . S
C1666 H1640 0.950 . S
C1666 C1662 1.385 . S
C1666 C1665 1.374 . S
C1667 C1664 1.499 . S
C1667 C1668 1.373 . S
C1667 C1669 1.389 . S
C1668 H1641 0.950 . S
C1668 C1654 1.377 . S
C1668 C1667 1.373 . S
C1669 C1653 1.377 . S
C1669 C1667 1.389 . S
C1669 C1670 1.524 . S
C1670 C1669 1.524 . S
C1670 C1671 1.397 . S
C1670 C1675 1.363 . S
C1671 H1642 0.950 . S
C1671 C1670 1.397 . S
C1671 C1672 1.334 . S
C1672 H1643 0.950 . S
C1672 C1671 1.334 . S
C1672 C1673 1.287 . S
C1673 C1672 1.287 . S
C1673 C1674 1.524 . S
C1673 H1676 0.999 . S
C1674 H1644 0.950 . S
C1674 C1673 1.524 . S
C1674 C1675 1.415 . S
C1675 H1645 0.950 . S
C1675 C1670 1.363 . S
C1675 C1674 1.415 . S
H1676 C1673 0.999 . S
H1677 C1658 0.913 . S
H1678 C1696 0.951 . S
H1679 C1698 0.951 . S
H1680 C1700 0.950 . S
H1681 C1701 0.950 . S
H1682 C1703 0.950 . S
H1683 C1706 0.950 . S
H1684 C1707 0.950 . S
H1685 C1709 0.950 . S
H1686 C1710 0.950 . S
H1687 C1711 0.951 . S
H1688 C1713 0.951 . S
H1689 C1715 0.950 . S
H1690 C1716 0.950 . S
H1691 C1718 0.950 . S
H1692 C1721 0.950 . S
H1693 C1722 0.950 . S
H1694 C1724 0.950 . S
H1695 C1725 0.950 . S
C1696 H1678 0.951 . S
C1696 C1697 1.366 . S
C1696 C1698 1.388 . S
C1697 C1696 1.366 . S
C1697 C1701 1.385 . S
C1698 H1679 0.951 . S
C1698 C1696 1.388 . S
C1698 C1699 1.366 . S
C1699 C1698 1.366 . S
C1699 C1700 1.414 . S
C1699 C1702 1.499 . S
C1700 H1680 0.950 . S
C1700 C1699 1.414 . S
C1700 C1701 1.374 . S
C1701 H1681 0.950 . S
C1701 C1697 1.385 . S
C1701 C1700 1.374 . S
C1702 C1699 1.499 . S
C1702 C1703 1.373 . S
C1702 C1704 1.389 . S
C1703 H1682 0.950 . S
C1703 C1702 1.373 . S
C1703 C1719 1.377 . S
C1704 C1702 1.389 . S
C1704 C1705 1.524 . S
C1704 C1718 1.377 . S
C1705 C1704 1.524 . S
C1705 C1706 1.397 . S
C1705 C1710 1.363 . S
C1706 H1683 0.950 . S
C1706 C1705 1.397 . S
C1706 C1707 1.334 . S
C1707 H1684 0.950 . S
C1707 C1706 1.334 . S
C1707 C1708 1.287 . S
C1708 C1707 1.287 . S
C1708 C1709 1.524 . S
C1708 H1727 0.913 . S
C1709 H1685 0.950 . S
C1709 C1708 1.524 . S
C1709 C1710 1.415 . S
C1710 H1686 0.950 . S
C1710 C1705 1.363 . S
C1710 C1709 1.415 . S
C1711 H1687 0.951 . S
C1711 C1712 1.366 . S
C1711 C1713 1.388 . S
C1712 C1711 1.366 . S
C1712 C1716 1.385 . S
C1713 H1688 0.951 . S
C1713 C1711 1.388 . S
C1713 C1714 1.366 . S
C1714 C1713 1.366 . S
C1714 C1715 1.414 . S
C1714 C1717 1.499 . S
C1715 H1689 0.950 . S
C1715 C1714 1.414 . S
C1715 C1716 1.374 . S
C1716 H1690 0.950 . S
C1716 C1712 1.385 . S
C1716 C1715 1.374 . S
C1717 C1714 1.499 . S
C1717 C1718 1.373 . S
C1717 C1719 1.389 . S
C1718 H1691 0.950 . S
C1718 C1704 1.377 . S
C1718 C1717 1.373 . S
C1719 C1703 1.377 . S
C1719 C1717 1.389 . S
C1719 C1720 1.524 . S
C1720 C1719 1.524 . S
C1720 C1721 1.397 . S
C1720 C1725 1.363 . S
C1721 H1692 0.950 . S
C1721 C1720 1.397 . S
C1721 C1722 1.334 . S
C1722 H1693 0.950 . S
C1722 C1721 1.334 . S
C1722 C1723 1.287 . S
C1723 C1722 1.287 . S
C1723 C1724 1.524 . S
C1723 H1726 0.999 . S
C1724 H1694 0.950 . S
C1724 C1723 1.524 . S
C1724 C1725 1.415 . S
C1725 H1695 0.950 . S
C1725 C1720 1.363 . S
C1725 C1724 1.415 . S
H1726 C1723 0.999 . S
H1727 C1708 0.913 . S
H1728 C1746 0.951 . S
H1729 C1748 0.951 . S
H1730 C1750 0.950 . S
H1731 C1751 0.950 . S
H1732 C1753 0.950 . S
H1733 C1756 0.950 . S
H1734 C1757 0.950 . S
H1735 C1759 0.950 . S
H1736 C1760 0.950 . S
H1737 C1761 0.951 . S
H1738 C1763 0.951 . S
H1739 C1765 0.950 . S
H1740 C1766 0.950 . S
H1741 C1768 0.950 . S
H1742 C1771 0.950 . S
H1743 C1772 0.950 . S
H1744 C1774 0.950 . S
H1745 C1775 0.950 . S
C1746 H1728 0.951 . S
C1746 C1747 1.366 . S
C1746 C1748 1.388 . S
C1747 C1746 1.366 . S
C1747 C1751 1.385 . S
C1748 H1729 0.951 . S
C1748 C1746 1.388 . S
C1748 C1749 1.366 . S
C1749 C1748 1.366 . S
C1749 C1750 1.414 . S
C1749 C1752 1.499 . S
C1750 H1730 0.950 . S
C1750 C1749 1.414 . S
C1750 C1751 1.374 . S
C1751 H1731 0.950 . S
C1751 C1747 1.385 . S
C1751 C1750 1.374 . S
C1752 C1749 1.499 . S
C1752 C1753 1.373 . S
C1752 C1754 1.389 . S
C1753 H1732 0.950 . S
C1753 C1752 1.373 . S
C1753 C1769 1.377 . S
C1754 C1752 1.389 . S
C1754 C1755 1.524 . S
C1754 C1768 1.377 . S
C1755 C1754 1.524 . S
C1755 C1756 1.397 . S
C1755 C1760 1.363 . S
C1756 H1733 0.950 . S
C1756 C1755 1.397 . S
C1756 C1757 1.334 . S
C1757 H1734 0.950 . S
C1757 C1756 1.334 . S
C1757 C1758 1.287 . S
C1758 C1757 1.287 . S
C1758 C1759 1.524 . S
C1758 H1777 0.913 . S
C1759 H1735 0.950 . S
C1759 C1758 1.524 . S
C1759 C1760 1.415 . S
C1760 H1736 0.950 . S
C1760 C1755 1.363 . S
C1760 C1759 1.415 . S
C1761 H1737 0.951 . S
C1761 C1762 1.366 . S
C1761 C1763 1.388 . S
C1762 C1761 1.366 . S
C1762 C1766 1.385 . S
C1763 H1738 0.951 . S
C1763 C1761 1.388 . S
C1763 C1764 1.366 . S
C1764 C1763 1.366 . S
C1764 C1765 1.414 . S
C1764 C1767 1.499 . S
C1765 H1739 0.950 . S
C1765 C1764 1.414 . S
C1765 C1766 1.374 . S
C1766 H1740 0.950 . S
C1766 C1762 1.385 . S
C1766 C1765 1.374 . S
C1767 C1764 1.499 . S
C1767 C1768 1.373 . S
C1767 C1769 1.389 . S
C1768 H1741 0.950 . S
C1768 C1754 1.377 . S
C1768 C1767 1.373 . S
C1769 C1753 1.377 . S
C1769 C1767 1.389 . S
C1769 C1770 1.524 . S
C1770 C1769 1.524 . S
C1770 C1771 1.397 . S
C1770 C1775 1.363 . S
C1771 H1742 0.950 . S
C1771 C1770 1.397 . S
C1771 C1772 1.334 . S
C1772 H1743 0.950 . S
C1772 C1771 1.334 . S
C1772 C1773 1.287 . S
C1773 C1772 1.287 . S
C1773 C1774 1.524 . S
C1773 H1776 0.999 . S
C1774 H1744 0.950 . S
C1774 C1773 1.524 . S
C1774 C1775 1.415 . S
C1775 H1745 0.950 . S
C1775 C1770 1.363 . S
C1775 C1774 1.415 . S
H1776 C1773 0.999 . S
H1777 C1758 0.913 . S
H1778 C1796 0.951 . S
H1779 C1798 0.951 . S
H1780 C1800 0.950 . S
H1781 C1801 0.950 . S
H1782 C1803 0.950 . S
H1783 C1806 0.950 . S
H1784 C1807 0.950 . S
H1785 C1809 0.950 . S
H1786 C1810 0.950 . S
H1787 C1811 0.951 . S
H1788 C1813 0.951 . S
H1789 C1815 0.950 . S
H1790 C1816 0.950 . S
H1791 C1818 0.950 . S
H1792 C1821 0.950 . S
H1793 C1822 0.950 . S
H1794 C1824 0.950 . S
H1795 C1825 0.950 . S
C1796 H1778 0.951 . S
C1796 C1797 1.366 . S
C1796 C1798 1.388 . S
C1797 C1796 1.366 . S
C1797 C1801 1.385 . S
C1798 H1779 0.951 . S
C1798 C1796 1.388 . S
C1798 C1799 1.366 . S
C1799 C1798 1.366 . S
C1799 C1800 1.414 . S
C1799 C1802 1.499 . S
C1800 H1780 0.950 . S
C1800 C1799 1.414 . S
C1800 C1801 1.374 . S
C1801 H1781 0.950 . S
C1801 C1797 1.385 . S
C1801 C1800 1.374 . S
C1802 C1799 1.499 . S
C1802 C1803 1.373 . S
C1802 C1804 1.389 . S
C1803 H1782 0.950 . S
C1803 C1802 1.373 . S
C1803 C1819 1.377 . S
C1804 C1802 1.389 . S
C1804 C1805 1.524 . S
C1804 C1818 1.377 . S
C1805 C1804 1.524 . S
C1805 C1806 1.397 . S
C1805 C1810 1.363 . S
C1806 H1783 0.950 . S
C1806 C1805 1.397 . S
C1806 C1807 1.334 . S
C1807 H1784 0.950 . S
C1807 C1806 1.334 . S
C1807 C1808 1.287 . S
C1808 C1807 1.287 . S
C1808 C1809 1.524 . S
C1808 H1827 0.913 . S
C1809 H1785 0.950 . S
C1809 C1808 1.524 . S
C1809 C1810 1.415 . S
C1810 H1786 0.950 . S
C1810 C1805 1.363 . S
C1810 C1809 1.415 . S
C1811 H1787 0.951 . S
C1811 C1812 1.366 . S
C1811 C1813 1.388 . S
C1812 C1811 1.366 . S
C1812 C1816 1.385 . S
C1813 H1788 0.951 . S
C1813 C1811 1.388 . S
C1813 C1814 1.366 . S
C1814 C1813 1.366 . S
C1814 C1815 1.414 . S
C1814 C1817 1.499 . S
C1815 H1789 0.950 . S
C1815 C1814 1.414 . S
C1815 C1816 1.374 . S
C1816 H1790 0.950 . S
C1816 C1812 1.385 . S
C1816 C1815 1.374 . S
C1817 C1814 1.499 . S
C1817 C1818 1.373 . S
C1817 C1819 1.389 . S
C1818 H1791 0.950 . S
C1818 C1804 1.377 . S
C1818 C1817 1.373 . S
C1819 C1803 1.377 . S
C1819 C1817 1.389 . S
C1819 C1820 1.524 . S
C1820 C1819 1.524 . S
C1820 C1821 1.397 . S
C1820 C1825 1.363 . S
C1821 H1792 0.950 . S
C1821 C1820 1.397 . S
C1821 C1822 1.334 . S
C1822 H1793 0.950 . S
C1822 C1821 1.334 . S
C1822 C1823 1.287 . S
C1823 C1822 1.287 . S
C1823 C1824 1.524 . S
C1823 H1826 0.999 . S
C1824 H1794 0.950 . S
C1824 C1823 1.524 . S
C1824 C1825 1.415 . S
C1825 H1795 0.950 . S
C1825 C1820 1.363 . S
C1825 C1824 1.415 . S
H1826 C1823 0.999 . S
H1827 C1808 0.913 . S
H1828 C1846 0.951 . S
H1829 C1848 0.951 . S
H1830 C1850 0.950 . S
H1831 C1851 0.950 . S
H1832 C1853 0.950 . S
H1833 C1856 0.950 . S
H1834 C1857 0.950 . S
H1835 C1859 0.950 . S
H1836 C1860 0.950 . S
H1837 C1861 0.951 . S
H1838 C1863 0.951 . S
H1839 C1865 0.950 . S
H1840 C1866 0.950 . S
H1841 C1868 0.950 . S
H1842 C1871 0.950 . S
H1843 C1872 0.950 . S
H1844 C1874 0.950 . S
H1845 C1875 0.950 . S
C1846 H1828 0.951 . S
C1846 C1847 1.366 . S
C1846 C1848 1.388 . S
C1847 C1846 1.366 . S
C1847 C1851 1.385 . S
C1848 H1829 0.951 . S
C1848 C1846 1.388 . S
C1848 C1849 1.366 . S
C1849 C1848 1.366 . S
C1849 C1850 1.414 . S
C1849 C1852 1.499 . S
C1850 H1830 0.950 . S
C1850 C1849 1.414 . S
C1850 C1851 1.374 . S
C1851 H1831 0.950 . S
C1851 C1847 1.385 . S
C1851 C1850 1.374 . S
C1852 C1849 1.499 . S
C1852 C1853 1.373 . S
C1852 C1854 1.389 . S
C1853 H1832 0.950 . S
C1853 C1852 1.373 . S
C1853 C1869 1.377 . S
C1854 C1852 1.389 . S
C1854 C1855 1.524 . S
C1854 C1868 1.377 . S
C1855 C1854 1.524 . S
C1855 C1856 1.397 . S
C1855 C1860 1.363 . S
C1856 H1833 0.950 . S
C1856 C1855 1.397 . S
C1856 C1857 1.334 . S
C1857 H1834 0.950 . S
C1857 C1856 1.334 . S
C1857 C1858 1.287 . S
C1858 C1857 1.287 . S
C1858 C1859 1.524 . S
C1858 H1877 0.913 . S
C1859 H1835 0.950 . S
C1859 C1858 1.524 . S
C1859 C1860 1.415 . S
C1860 H1836 0.950 . S
C1860 C1855 1.363 . S
C1860 C1859 1.415 . S
C1861 H1837 0.951 . S
C1861 C1862 1.366 . S
C1861 C1863 1.388 . S
C1862 C1861 1.366 . S
C1862 C1866 1.385 . S
C1863 H1838 0.951 . S
C1863 C1861 1.388 . S
C1863 C1864 1.366 . S
C1864 C1863 1.366 . S
C1864 C1865 1.414 . S
C1864 C1867 1.499 . S
C1865 H1839 0.950 . S
C1865 C1864 1.414 . S
C1865 C1866 1.374 . S
C1866 H1840 0.950 . S
C1866 C1862 1.385 . S
C1866 C1865 1.374 . S
C1867 C1864 1.499 . S
C1867 C1868 1.373 . S
C1867 C1869 1.389 . S
C1868 H1841 0.950 . S
C1868 C1854 1.377 . S
C1868 C1867 1.373 . S
C1869 C1853 1.377 . S
C1869 C1867 1.389 . S
C1869 C1870 1.524 . S
C1870 C1869 1.524 . S
C1870 C1871 1.397 . S
C1870 C1875 1.363 . S
C1871 H1842 0.950 . S
C1871 C1870 1.397 . S
C1871 C1872 1.334 . S
C1872 H1843 0.950 . S
C1872 C1871 1.334 . S
C1872 C1873 1.287 . S
C1873 C1872 1.287 . S
C1873 C1874 1.524 . S
C1873 H1876 0.999 . S
C1874 H1844 0.950 . S
C1874 C1873 1.524 . S
C1874 C1875 1.415 . S
C1875 H1845 0.950 . S
C1875 C1870 1.363 . S
C1875 C1874 1.415 . S
H1876 C1873 0.999 . S
H1877 C1858 0.913 . S
H1878 C1896 0.951 . S
H1879 C1898 0.951 . S
H1880 C1900 0.950 . S
H1881 C1901 0.950 . S
H1882 C1903 0.950 . S
H1883 C1906 0.950 . S
H1884 C1907 0.950 . S
H1885 C1909 0.950 . S
H1886 C1910 0.950 . S
H1887 C1911 0.951 . S
H1888 C1913 0.951 . S
H1889 C1915 0.950 . S
H1890 C1916 0.950 . S
H1891 C1918 0.950 . S
H1892 C1921 0.950 . S
H1893 C1922 0.950 . S
H1894 C1924 0.950 . S
H1895 C1925 0.950 . S
C1896 H1878 0.951 . S
C1896 C1897 1.366 . S
C1896 C1898 1.388 . S
C1897 C1896 1.366 . S
C1897 C1901 1.385 . S
C1898 H1879 0.951 . S
C1898 C1896 1.388 . S
C1898 C1899 1.366 . S
C1899 C1898 1.366 . S
C1899 C1900 1.414 . S
C1899 C1902 1.499 . S
C1900 H1880 0.950 . S
C1900 C1899 1.414 . S
C1900 C1901 1.374 . S
C1901 H1881 0.950 . S
C1901 C1897 1.385 . S
C1901 C1900 1.374 . S
C1902 C1899 1.499 . S
C1902 C1903 1.373 . S
C1902 C1904 1.389 . S
C1903 H1882 0.950 . S
C1903 C1902 1.373 . S
C1903 C1919 1.377 . S
C1904 C1902 1.389 . S
C1904 C1905 1.524 . S
C1904 C1918 1.377 . S
C1905 C1904 1.524 . S
C1905 C1906 1.397 . S
C1905 C1910 1.363 . S
C1906 H1883 0.950 . S
C1906 C1905 1.397 . S
C1906 C1907 1.334 . S
C1907 H1884 0.950 . S
C1907 C1906 1.334 . S
C1907 C1908 1.287 . S
C1908 C1907 1.287 . S
C1908 C1909 1.524 . S
C1908 H1927 0.913 . S
C1909 H1885 0.950 . S
C1909 C1908 1.524 . S
C1909 C1910 1.415 . S
C1910 H1886 0.950 . S
C1910 C1905 1.363 . S
C1910 C1909 1.415 . S
C1911 H1887 0.951 . S
C1911 C1912 1.366 . S
C1911 C1913 1.388 . S
C1912 C1911 1.366 . S
C1912 C1916 1.385 . S
C1913 H1888 0.951 . S
C1913 C1911 1.388 . S
C1913 C1914 1.366 . S
C1914 C1913 1.366 . S
C1914 C1915 1.414 . S
C1914 C1917 1.499 . S
C1915 H1889 0.950 . S
C1915 C1914 1.414 . S
C1915 C1916 1.374 . S
C1916 H1890 0.950 . S
C1916 C1912 1.385 . S
C1916 C1915 1.374 . S
C1917 C1914 1.499 . S
C1917 C1918 1.373 . S
C1917 C1919 1.389 . S
C1918 H1891 0.950 . S
C1918 C1904 1.377 . S
C1918 C1917 1.373 . S
C1919 C1903 1.377 . S
C1919 C1917 1.389 . S
C1919 C1920 1.524 . S
C1920 C1919 1.524 . S
C1920 C1921 1.397 . S
C1920 C1925 1.363 . S
C1921 H1892 0.950 . S
C1921 C1920 1.397 . S
C1921 C1922 1.334 . S
C1922 H1893 0.950 . S
C1922 C1921 1.334 . S
C1922 C1923 1.287 . S
C1923 C1922 1.287 . S
C1923 C1924 1.524 . S
C1923 H1926 0.999 . S
C1924 H1894 0.950 . S
C1924 C1923 1.524 . S
C1924 C1925 1.415 . S
C1925 H1895 0.950 . S
C1925 C1920 1.363 . S
C1925 C1924 1.415 . S
H1926 C1923 0.999 . S
H1927 C1908 0.913 . S
H1928 C1946 0.951 . S
H1929 C1948 0.951 . S
H1930 C1950 0.950 . S
H1931 C1951 0.950 . S
H1932 C1953 0.950 . S
H1933 C1956 0.950 . S
H1934 C1957 0.950 . S
H1935 C1959 0.950 . S
H1936 C1960 0.950 . S
H1937 C1961 0.951 . S
H1938 C1963 0.951 . S
H1939 C1965 0.950 . S
H1940 C1966 0.950 . S
H1941 C1968 0.950 . S
H1942 C1971 0.950 . S
H1943 C1972 0.950 . S
H1944 C1974 0.950 . S
H1945 C1975 0.950 . S
C1946 H1928 0.951 . S
C1946 C1947 1.366 . S
C1946 C1948 1.388 . S
C1947 C1946 1.366 . S
C1947 C1951 1.385 . S
C1948 H1929 0.951 . S
C1948 C1946 1.388 . S
C1948 C1949 1.366 . S
C1949 C1948 1.366 . S
C1949 C1950 1.414 . S
C1949 C1952 1.499 . S
C1950 H1930 0.950 . S
C1950 C1949 1.414 . S
C1950 C1951 1.374 . S
C1951 H1931 0.950 . S
C1951 C1947 1.385 . S
C1951 C1950 1.374 . S
C1952 C1949 1.499 . S
C1952 C1953 1.373 . S
C1952 C1954 1.389 . S
C1953 H1932 0.950 . S
C1953 C1952 1.373 . S
C1953 C1969 1.377 . S
C1954 C1952 1.389 . S
C1954 C1955 1.524 . S
C1954 C1968 1.377 . S
C1955 C1954 1.524 . S
C1955 C1956 1.397 . S
C1955 C1960 1.363 . S
C1956 H1933 0.950 . S
C1956 C1955 1.397 . S
C1956 C1957 1.334 . S
C1957 H1934 0.950 . S
C1957 C1956 1.334 . S
C1957 C1958 1.287 . S
C1958 C1957 1.287 . S
C1958 C1959 1.524 . S
C1958 H1977 0.913 . S
C1959 H1935 0.950 . S
C1959 C1958 1.524 . S
C1959 C1960 1.415 . S
C1960 H1936 0.950 . S
C1960 C1955 1.363 . S
C1960 C1959 1.415 . S
C1961 H1937 0.951 . S
C1961 C1962 1.366 . S
C1961 C1963 1.388 . S
C1962 C1961 1.366 . S
C1962 C1966 1.385 . S
C1963 H1938 0.951 . S
C1963 C1961 1.388 . S
C1963 C1964 1.366 . S
C1964 C1963 1.366 . S
C1964 C1965 1.414 . S
C1964 C1967 1.499 . S
C1965 H1939 0.950 . S
C1965 C1964 1.414 . S
C1965 C1966 1.374 . S
C1966 H1940 0.950 . S
C1966 C1962 1.385 . S
C1966 C1965 1.374 . S
C1967 C1964 1.499 . S
C1967 C1968 1.373 . S
C1967 C1969 1.389 . S
C1968 H1941 0.950 . S
C1968 C1954 1.377 . S
C1968 C1967 1.373 . S
C1969 C1953 1.377 . S
C1969 C1967 1.389 . S
C1969 C1970 1.524 . S
C1970 C1969 1.524 . S
C1970 C1971 1.397 . S
C1970 C1975 1.363 . S
C1971 H1942 0.950 . S
C1971 C1970 1.397 . S
C1971 C1972 1.334 . S
C1972 H1943 0.950 . S
C1972 C1971 1.334 . S
C1972 C1973 1.287 . S
C1973 C1972 1.287 . S
C1973 C1974 1.524 . S
C1973 H1976 0.999 . S
C1974 H1944 0.950 . S
C1974 C1973 1.524 . S
C1974 C1975 1.415 . S
C1975 H1945 0.950 . S
C1975 C1970 1.363 . S
C1975 C1974 1.415 . S
H1976 C1973 0.999 . S
H1977 C1958 0.913 . S
H1978 C1996 0.951 . S
H1979 C1998 0.951 . S
H1980 C2000 0.950 . S
H1981 C2001 0.950 . S
H1982 C2003 0.950 . S
H1983 C2006 0.950 . S
H1984 C2007 0.950 . S
H1985 C2009 0.950 . S
H1986 C2010 0.950 . S
H1987 C2011 0.951 . S
H1988 C2013 0.951 . S
H1989 C2015 0.950 . S
H1990 C2016 0.950 . S
H1991 C2018 0.950 . S
H1992 C2021 0.950 . S
H1993 C2022 0.950 . S
H1994 C2024 0.950 . S
H1995 C2025 0.950 . S
C1996 H1978 0.951 . S
C1996 C1997 1.366 . S
C1996 C1998 1.388 . S
C1997 C1996 1.366 . S
C1997 C2001 1.385 . S
C1998 H1979 0.951 . S
C1998 C1996 1.388 . S
C1998 C1999 1.366 . S
C1999 C1998 1.366 . S
C1999 C2000 1.414 . S
C1999 C2002 1.499 . S
C2000 H1980 0.950 . S
C2000 C1999 1.414 . S
C2000 C2001 1.374 . S
C2001 H1981 0.950 . S
C2001 C1997 1.385 . S
C2001 C2000 1.374 . S
C2002 C1999 1.499 . S
C2002 C2003 1.373 . S
C2002 C2004 1.389 . S
C2003 H1982 0.950 . S
C2003 C2002 1.373 . S
C2003 C2019 1.377 . S
C2004 C2002 1.389 . S
C2004 C2005 1.524 . S
C2004 C2018 1.377 . S
C2005 C2004 1.524 . S
C2005 C2006 1.397 . S
C2005 C2010 1.363 . S
C2006 H1983 0.950 . S
C2006 C2005 1.397 . S
C2006 C2007 1.334 . S
C2007 H1984 0.950 . S
C2007 C2006 1.334 . S
C2007 C2008 1.287 . S
C2008 C2007 1.287 . S
C2008 C2009 1.524 . S
C2008 H2027 0.913 . S
C2009 H1985 0.950 . S
C2009 C2008 1.524 . S
C2009 C2010 1.415 . S
C2010 H1986 0.950 . S
C2010 C2005 1.363 . S
C2010 C2009 1.415 . S
C2011 H1987 0.951 . S
C2011 C2012 1.366 . S
C2011 C2013 1.388 . S
C2012 C2011 1.366 . S
C2012 C2016 1.385 . S
C2013 H1988 0.951 . S
C2013 C2011 1.388 . S
C2013 C2014 1.366 . S
C2014 C2013 1.366 . S
C2014 C2015 1.414 . S
C2014 C2017 1.499 . S
C2015 H1989 0.950 . S
C2015 C2014 1.414 . S
C2015 C2016 1.374 . S
C2016 H1990 0.950 . S
C2016 C2012 1.385 . S
C2016 C2015 1.374 . S
C2017 C2014 1.499 . S
C2017 C2018 1.373 . S
C2017 C2019 1.389 . S
C2018 H1991 0.950 . S
C2018 C2004 1.377 . S
C2018 C2017 1.373 . S
C2019 C2003 1.377 . S
C2019 C2017 1.389 . S
C2019 C2020 1.524 . S
C2020 C2019 1.524 . S
C2020 C2021 1.397 . S
C2020 C2025 1.363 . S
C2021 H1992 0.950 . S
C2021 C2020 1.397 . S
C2021 C2022 1.334 . S
C2022 H1993 0.950 . S
C2022 C2021 1.334 . S
C2022 C2023 1.287 . S
C2023 C2022 1.287 . S
C2023 C2024 1.524 . S
C2023 H2026 0.999 . S
C2024 H1994 0.950 . S
C2024 C2023 1.524 . S
C2024 C2025 1.415 . S
C2025 H1995 0.950 . S
C2025 C2020 1.363 . S
C2025 C2024 1.415 . S
H2026 C2023 0.999 . S
H2027 C2008 0.913 . S
H2028 C2046 0.951 . S
H2029 C2048 0.951 . S
H2030 C2050 0.950 . S
H2031 C2051 0.950 . S
H2032 C2053 0.950 . S
H2033 C2056 0.950 . S
H2034 C2057 0.950 . S
H2035 C2059 0.950 . S
H2036 C2060 0.950 . S
H2037 C2061 0.951 . S
H2038 C2063 0.951 . S
H2039 C2065 0.950 . S
H2040 C2066 0.950 . S
H2041 C2068 0.950 . S
H2042 C2071 0.950 . S
H2043 C2072 0.950 . S
H2044 C2074 0.950 . S
H2045 C2075 0.950 . S
C2046 H2028 0.951 . S
C2046 C2047 1.366 . S
C2046 C2048 1.388 . S
C2047 C2046 1.366 . S
C2047 C2051 1.385 . S
C2048 H2029 0.951 . S
C2048 C2046 1.388 . S
C2048 C2049 1.366 . S
C2049 C2048 1.366 . S
C2049 C2050 1.414 . S
C2049 C2052 1.499 . S
C2050 H2030 0.950 . S
C2050 C2049 1.414 . S
C2050 C2051 1.374 . S
C2051 H2031 0.950 . S
C2051 C2047 1.385 . S
C2051 C2050 1.374 . S
C2052 C2049 1.499 . S
C2052 C2053 1.373 . S
C2052 C2054 1.389 . S
C2053 H2032 0.950 . S
C2053 C2052 1.373 . S
C2053 C2069 1.377 . S
C2054 C2052 1.389 . S
C2054 C2055 1.524 . S
C2054 C2068 1.377 . S
C2055 C2054 1.524 . S
C2055 C2056 1.397 . S
C2055 C2060 1.363 . S
C2056 H2033 0.950 . S
C2056 C2055 1.397 . S
C2056 C2057 1.334 . S
C2057 H2034 0.950 . S
C2057 C2056 1.334 . S
C2057 C2058 1.287 . S
C2058 C2057 1.287 . S
C2058 C2059 1.524 . S
C2058 H2077 0.913 . S
C2059 H2035 0.950 . S
C2059 C2058 1.524 . S
C2059 C2060 1.415 . S
C2060 H2036 0.950 . S
C2060 C2055 1.363 . S
C2060 C2059 1.415 . S
C2061 H2037 0.951 . S
C2061 C2062 1.366 . S
C2061 C2063 1.388 . S
C2062 C2061 1.366 . S
C2062 C2066 1.385 . S
C2063 H2038 0.951 . S
C2063 C2061 1.388 . S
C2063 C2064 1.366 . S
C2064 C2063 1.366 . S
C2064 C2065 1.414 . S
C2064 C2067 1.499 . S
C2065 H2039 0.950 . S
C2065 C2064 1.414 . S
C2065 C2066 1.374 . S
C2066 H2040 0.950 . S
C2066 C2062 1.385 . S
C2066 C2065 1.374 . S
C2067 C2064 1.499 . S
C2067 C2068 1.373 . S
C2067 C2069 1.389 . S
C2068 H2041 0.950 . S
C2068 C2054 1.377 . S
C2068 C2067 1.373 . S
C2069 C2053 1.377 . S
C2069 C2067 1.389 . S
C2069 C2070 1.524 . S
C2070 C2069 1.524 . S
C2070 C2071 1.397 . S
C2070 C2075 1.363 . S
C2071 H2042 0.950 . S
C2071 C2070 1.397 . S
C2071 C2072 1.334 . S
C2072 H2043 0.950 . S
C2072 C2071 1.334 . S
C2072 C2073 1.287 . S
C2073 C2072 1.287 . S
C2073 C2074 1.524 . S
C2073 H2076 0.999 . S
C2074 H2044 0.950 . S
C2074 C2073 1.524 . S
C2074 C2075 1.415 . S
C2075 H2045 0.950 . S
C2075 C2070 1.363 . S
C2075 C2074 1.415 . S
H2076 C2073 0.999 . S
H2077 C2058 0.913 . S
H2078 C2096 0.951 . S
H2079 C2098 0.951 . S
H2080 C2100 0.950 . S
H2081 C2101 0.950 . S
H2082 C2103 0.950 . S
H2083 C2106 0.950 . S
H2084 C2107 0.950 . S
H2085 C2109 0.950 . S
H2086 C2110 0.950 . S
H2087 C2111 0.951 . S
H2088 C2113 0.951 . S
H2089 C2115 0.950 . S
H2090 C2116 0.950 . S
H2091 C2118 0.950 . S
H2092 C2121 0.950 . S
H2093 C2122 0.950 . S
H2094 C2124 0.950 . S
H2095 C2125 0.950 . S
C2096 H2078 0.951 . S
C2096 C2097 1.366 . S
C2096 C2098 1.388 . S
C2097 C2096 1.366 . S
C2097 C2101 1.385 . S
C2098 H2079 0.951 . S
C2098 C2096 1.388 . S
C2098 C2099 1.366 . S
C2099 C2098 1.366 . S
C2099 C2100 1.414 . S
C2099 C2102 1.499 . S
C2100 H2080 0.950 . S
C2100 C2099 1.414 . S
C2100 C2101 1.374 . S
C2101 H2081 0.950 . S
C2101 C2097 1.385 . S
C2101 C2100 1.374 . S
C2102 C2099 1.499 . S
C2102 C2103 1.373 . S
C2102 C2104 1.389 . S
C2103 H2082 0.950 . S
C2103 C2102 1.373 . S
C2103 C2119 1.377 . S
C2104 C2102 1.389 . S
C2104 C2105 1.524 . S
C2104 C2118 1.377 . S
C2105 C2104 1.524 . S
C2105 C2106 1.397 . S
C2105 C2110 1.363 . S
C2106 H2083 0.950 . S
C2106 C2105 1.397 . S
C2106 C2107 1.334 . S
C2107 H2084 0.950 . S
C2107 C2106 1.334 . S
C2107 C2108 1.287 . S
C2108 C2107 1.287 . S
C2108 C2109 1.524 . S
C2108 H2127 0.913 . S
C2109 H2085 0.950 . S
C2109 C2108 1.524 . S
C2109 C2110 1.415 . S
C2110 H2086 0.950 . S
C2110 C2105 1.363 . S
C2110 C2109 1.415 . S
C2111 H2087 0.951 . S
C2111 C2112 1.366 . S
C2111 C2113 1.388 . S
C2112 C2111 1.366 . S
C2112 C2116 1.385 . S
C2113 H2088 0.951 . S
C2113 C2111 1.388 . S
C2113 C2114 1.366 . S
C2114 C2113 1.366 . S
C2114 C2115 1.414 . S
C2114 C2117 1.499 . S
C2115 H2089 0.950 . S
C2115 C2114 1.414 . S
C2115 C2116 1.374 . S
C2116 H2090 0.950 . S
C2116 C2112 1.385 . S
C2116 C2115 1.374 . S
C2117 C2114 1.499 . S
C2117 C2118 1.373 . S
C2117 C2119 1.389 . S
C2118 H2091 0.950 . S
C2118 C2104 1.377 . S
C2118 C2117 1.373 . S
C2119 C2103 1.377 . S
C2119 C2117 1.389 . S
C2119 C2120 1.524 . S
C2120 C2119 1.524 . S
C2120 C2121 1.397 . S
C2120 C2125 1.363 . S
C2121 H2092 0.950 . S
C2121 C2120 1.397 . S
C2121 C2122 1.334 . S
C2122 H2093 0.950 . S
C2122 C2121 1.334 . S
C2122 C2123 1.287 . S
C2123 C2122 1.287 . S
C2123 C2124 1.524 . S
C2123 H2126 0.999 . S
C2124 H2094 0.950 . S
C2124 C2123 1.524 . S
C2124 C2125 1.415 . S
C2125 H2095 0.950 . S
C2125 C2120 1.363 . S
C2125 C2124 1.415 . S
H2126 C2123 0.999 . S
H2127 C2108 0.913 . S
H2128 C2146 0.951 . S
H2129 C2148 0.951 . S
H2130 C2150 0.950 . S
H2131 C2151 0.950 . S
H2132 C2153 0.950 . S
H2133 C2156 0.950 . S
H2134 C2157 0.950 . S
H2135 C2159 0.950 . S
H2136 C2160 0.950 1_565 S
H2137 C2161 0.951 . S
H2138 C2163 0.951 . S
H2139 C2165 0.950 . S
H2140 C2166 0.950 . S
H2141 C2168 0.950 . S
H2142 C2171 0.950 . S
H2143 C2172 0.950 . S
H2144 C2174 0.950 . S
H2145 C2175 0.950 1_545 S
C2146 H2128 0.951 . S
C2146 C2147 1.366 . S
C2146 C2148 1.388 . S
C2147 C2146 1.366 . S
C2147 C2151 1.385 . S
C2148 H2129 0.951 . S
C2148 C2146 1.388 . S
C2148 C2149 1.366 . S
C2149 C2148 1.366 . S
C2149 C2150 1.414 . S
C2149 C2152 1.499 . S
C2150 H2130 0.950 . S
C2150 C2149 1.414 . S
C2150 C2151 1.374 . S
C2151 H2131 0.950 . S
C2151 C2147 1.385 . S
C2151 C2150 1.374 . S
C2152 C2149 1.499 . S
C2152 C2153 1.373 . S
C2152 C2154 1.389 . S
C2153 H2132 0.950 . S
C2153 C2152 1.373 . S
C2153 C2169 1.377 1_545 S
C2154 C2152 1.389 . S
C2154 C2155 1.524 . S
C2154 C2168 1.377 1_545 S
C2155 C2154 1.524 . S
C2155 C2156 1.397 . S
C2155 C2160 1.363 . S
C2156 H2133 0.950 . S
C2156 C2155 1.397 . S
C2156 C2157 1.334 . S
C2157 H2134 0.950 . S
C2157 C2156 1.334 . S
C2157 C2158 1.287 . S
C2158 C2157 1.287 . S
C2158 C2159 1.524 . S
C2158 H2177 0.913 . S
C2159 H2135 0.950 . S
C2159 C2158 1.524 . S
C2159 C2160 1.415 . S
C2160 H2136 0.950 1_545 S
C2160 C2155 1.363 . S
C2160 C2159 1.415 . S
C2161 H2137 0.951 . S
C2161 C2162 1.366 . S
C2161 C2163 1.388 . S
C2162 C2161 1.366 . S
C2162 C2166 1.385 . S
C2163 H2138 0.951 . S
C2163 C2161 1.388 . S
C2163 C2164 1.366 . S
C2164 C2163 1.366 . S
C2164 C2165 1.414 . S
C2164 C2167 1.499 . S
C2165 H2139 0.950 . S
C2165 C2164 1.414 . S
C2165 C2166 1.374 . S
C2166 H2140 0.950 . S
C2166 C2162 1.385 . S
C2166 C2165 1.374 . S
C2167 C2164 1.499 . S
C2167 C2168 1.373 . S
C2167 C2169 1.389 . S
C2168 H2141 0.950 . S
C2168 C2154 1.377 1_565 S
C2168 C2167 1.373 . S
C2169 C2153 1.377 1_565 S
C2169 C2167 1.389 . S
C2169 C2170 1.524 . S
C2170 C2169 1.524 . S
C2170 C2171 1.397 . S
C2170 C2175 1.363 . S
C2171 H2142 0.950 . S
C2171 C2170 1.397 . S
C2171 C2172 1.334 . S
C2172 H2143 0.950 . S
C2172 C2171 1.334 . S
C2172 C2173 1.287 . S
C2173 C2172 1.287 . S
C2173 C2174 1.524 . S
C2173 H2176 0.999 . S
C2174 H2144 0.950 . S
C2174 C2173 1.524 . S
C2174 C2175 1.415 . S
C2175 H2145 0.950 1_565 S
C2175 C2170 1.363 . S
C2175 C2174 1.415 . S
H2176 C2173 0.999 . S
H2177 C2158 0.913 . S
H2178 C2196 0.951 . S
H2179 C2198 0.951 . S
H2180 C2200 0.950 . S
H2181 C2201 0.950 . S
H2182 C2203 0.950 . S
H2183 C2206 0.950 . S
H2184 C2207 0.950 . S
H2185 C2209 0.950 . S
H2186 C2210 0.950 . S
H2187 C2211 0.951 . S
H2188 C2213 0.951 . S
H2189 C2215 0.950 . S
H2190 C2216 0.950 . S
H2191 C2218 0.950 . S
H2192 C2221 0.950 . S
H2193 C2222 0.950 . S
H2194 C2224 0.950 . S
H2195 C2225 0.950 . S
C2196 H2178 0.951 . S
C2196 C2197 1.366 . S
C2196 C2198 1.388 . S
C2197 C2196 1.366 . S
C2197 C2201 1.385 . S
C2198 H2179 0.951 . S
C2198 C2196 1.388 . S
C2198 C2199 1.366 . S
C2199 C2198 1.366 . S
C2199 C2200 1.414 . S
C2199 C2202 1.499 . S
C2200 H2180 0.950 . S
C2200 C2199 1.414 . S
C2200 C2201 1.374 . S
C2201 H2181 0.950 . S
C2201 C2197 1.385 . S
C2201 C2200 1.374 . S
C2202 C2199 1.499 . S
C2202 C2203 1.373 . S
C2202 C2204 1.389 1_655 S
C2203 H2182 0.950 . S
C2203 C2202 1.373 . S
C2203 C2219 1.377 . S
C2204 C2202 1.389 1_455 S
C2204 C2205 1.524 . S
C2204 C2218 1.377 . S
C2205 C2204 1.524 . S
C2205 C2206 1.397 . S
C2205 C2210 1.363 . S
C2206 H2183 0.950 . S
C2206 C2205 1.397 . S
C2206 C2207 1.334 . S
C2207 H2184 0.950 . S
C2207 C2206 1.334 . S
C2207 C2208 1.287 . S
C2208 C2207 1.287 . S
C2208 C2209 1.524 . S
C2208 H2227 0.913 . S
C2209 H2185 0.950 . S
C2209 C2208 1.524 . S
C2209 C2210 1.415 . S
C2210 H2186 0.950 . S
C2210 C2205 1.363 . S
C2210 C2209 1.415 . S
C2211 H2187 0.951 . S
C2211 C2212 1.366 . S
C2211 C2213 1.388 . S
C2212 C2211 1.366 . S
C2212 C2216 1.385 . S
C2213 H2188 0.951 . S
C2213 C2211 1.388 . S
C2213 C2214 1.366 . S
C2214 C2213 1.366 . S
C2214 C2215 1.414 . S
C2214 C2217 1.499 . S
C2215 H2189 0.950 . S
C2215 C2214 1.414 . S
C2215 C2216 1.374 . S
C2216 H2190 0.950 . S
C2216 C2212 1.385 . S
C2216 C2215 1.374 . S
C2217 C2214 1.499 . S
C2217 C2218 1.373 . S
C2217 C2219 1.389 1_455 S
C2218 H2191 0.950 . S
C2218 C2204 1.377 . S
C2218 C2217 1.373 . S
C2219 C2203 1.377 . S
C2219 C2217 1.389 1_655 S
C2219 C2220 1.524 . S
C2220 C2219 1.524 . S
C2220 C2221 1.397 . S
C2220 C2225 1.363 . S
C2221 H2192 0.950 . S
C2221 C2220 1.397 . S
C2221 C2222 1.334 . S
C2222 H2193 0.950 . S
C2222 C2221 1.334 . S
C2222 C2223 1.287 . S
C2223 C2222 1.287 . S
C2223 C2224 1.524 . S
C2223 H2226 0.999 . S
C2224 H2194 0.950 . S
C2224 C2223 1.524 . S
C2224 C2225 1.415 . S
C2225 H2195 0.950 . S
C2225 C2220 1.363 . S
C2225 C2224 1.415 . S
H2226 C2223 0.999 . S
H2227 C2208 0.913 . S
H2228 C2246 0.951 . S
H2229 C2248 0.951 . S
H2230 C2250 0.950 . S
H2231 C2251 0.950 . S
H2232 C2253 0.950 . S
H2233 C2256 0.950 1_545 S
H2234 C2257 0.950 . S
H2235 C2259 0.950 . S
H2236 C2260 0.950 . S
H2237 C2261 0.951 . S
H2238 C2263 0.951 . S
H2239 C2265 0.950 . S
H2240 C2266 0.950 . S
H2241 C2268 0.950 . S
H2242 C2271 0.950 1_565 S
H2243 C2272 0.950 . S
H2244 C2274 0.950 . S
H2245 C2275 0.950 . S
C2246 H2228 0.951 . S
C2246 C2247 1.366 . S
C2246 C2248 1.388 . S
C2247 C2246 1.366 . S
C2247 C2251 1.385 . S
C2248 H2229 0.951 . S
C2248 C2246 1.388 . S
C2248 C2249 1.366 . S
C2249 C2248 1.366 . S
C2249 C2250 1.414 . S
C2249 C2252 1.499 . S
C2250 H2230 0.950 . S
C2250 C2249 1.414 . S
C2250 C2251 1.374 . S
C2251 H2231 0.950 . S
C2251 C2247 1.385 . S
C2251 C2250 1.374 . S
C2252 C2249 1.499 . S
C2252 C2253 1.373 . S
C2252 C2254 1.389 1_545 S
C2253 H2232 0.950 . S
C2253 C2252 1.373 . S
C2253 C2269 1.377 . S
C2254 C2252 1.389 1_565 S
C2254 C2255 1.524 . S
C2254 C2268 1.377 . S
C2255 C2254 1.524 . S
C2255 C2256 1.397 . S
C2255 C2260 1.363 . S
C2256 H2233 0.950 1_565 S
C2256 C2255 1.397 . S
C2256 C2257 1.334 . S
C2257 H2234 0.950 . S
C2257 C2256 1.334 . S
C2257 C2258 1.287 . S
C2258 C2257 1.287 . S
C2258 C2259 1.524 . S
C2258 H2277 0.913 . S
C2259 H2235 0.950 . S
C2259 C2258 1.524 . S
C2259 C2260 1.415 . S
C2260 H2236 0.950 . S
C2260 C2255 1.363 . S
C2260 C2259 1.415 . S
C2261 H2237 0.951 . S
C2261 C2262 1.366 . S
C2261 C2263 1.388 . S
C2262 C2261 1.366 . S
C2262 C2266 1.385 . S
C2263 H2238 0.951 . S
C2263 C2261 1.388 . S
C2263 C2264 1.366 . S
C2264 C2263 1.366 . S
C2264 C2265 1.414 . S
C2264 C2267 1.499 . S
C2265 H2239 0.950 . S
C2265 C2264 1.414 . S
C2265 C2266 1.374 . S
C2266 H2240 0.950 . S
C2266 C2262 1.385 . S
C2266 C2265 1.374 . S
C2267 C2264 1.499 . S
C2267 C2268 1.373 . S
C2267 C2269 1.389 1_565 S
C2268 H2241 0.950 . S
C2268 C2254 1.377 . S
C2268 C2267 1.373 . S
C2269 C2253 1.377 . S
C2269 C2267 1.389 1_545 S
C2269 C2270 1.524 . S
C2270 C2269 1.524 . S
C2270 C2271 1.397 . S
C2270 C2275 1.363 . S
C2271 H2242 0.950 1_545 S
C2271 C2270 1.397 . S
C2271 C2272 1.334 . S
C2272 H2243 0.950 . S
C2272 C2271 1.334 . S
C2272 C2273 1.287 . S
C2273 C2272 1.287 . S
C2273 C2274 1.524 . S
C2273 H2276 0.999 . S
C2274 H2244 0.950 . S
C2274 C2273 1.524 . S
C2274 C2275 1.415 . S
C2275 H2245 0.950 . S
C2275 C2270 1.363 . S
C2275 C2274 1.415 . S
H2276 C2273 0.999 . S
H2277 C2258 0.913 . S
H2278 C2296 0.951 . S
H2279 C2298 0.951 . S
H2280 C2300 0.950 . S
H2281 C2301 0.950 . S
H2282 C2303 0.950 . S
H2283 C2306 0.950 . S
H2284 C2307 0.950 . S
H2285 C2309 0.950 . S
H2286 C2310 0.950 1_455 S
H2287 C2311 0.951 . S
H2288 C2313 0.951 . S
H2289 C2315 0.950 . S
H2290 C2316 0.950 . S
H2291 C2318 0.950 . S
H2292 C2321 0.950 . S
H2293 C2322 0.950 . S
H2294 C2324 0.950 . S
H2295 C2325 0.950 1_655 S
C2296 H2278 0.951 . S
C2296 C2297 1.366 . S
C2296 C2298 1.388 . S
C2297 C2296 1.366 . S
C2297 C2301 1.385 . S
C2298 H2279 0.951 . S
C2298 C2296 1.388 . S
C2298 C2299 1.366 . S
C2299 C2298 1.366 . S
C2299 C2300 1.414 . S
C2299 C2302 1.499 . S
C2300 H2280 0.950 . S
C2300 C2299 1.414 . S
C2300 C2301 1.374 . S
C2301 H2281 0.950 . S
C2301 C2297 1.385 . S
C2301 C2300 1.374 . S
C2302 C2299 1.499 . S
C2302 C2303 1.373 . S
C2302 C2304 1.389 . S
C2303 H2282 0.950 . S
C2303 C2302 1.373 . S
C2303 C2319 1.377 1_655 S
C2304 C2302 1.389 . S
C2304 C2305 1.524 . S
C2304 C2318 1.377 1_655 S
C2305 C2304 1.524 . S
C2305 C2306 1.397 . S
C2305 C2310 1.363 . S
C2306 H2283 0.950 . S
C2306 C2305 1.397 . S
C2306 C2307 1.334 . S
C2307 H2284 0.950 . S
C2307 C2306 1.334 . S
C2307 C2308 1.287 . S
C2308 C2307 1.287 . S
C2308 C2309 1.524 . S
C2308 H2327 0.913 . S
C2309 H2285 0.950 . S
C2309 C2308 1.524 . S
C2309 C2310 1.415 . S
C2310 H2286 0.950 1_655 S
C2310 C2305 1.363 . S
C2310 C2309 1.415 . S
C2311 H2287 0.951 . S
C2311 C2312 1.366 . S
C2311 C2313 1.388 . S
C2312 C2311 1.366 . S
C2312 C2316 1.385 . S
C2313 H2288 0.951 . S
C2313 C2311 1.388 . S
C2313 C2314 1.366 . S
C2314 C2313 1.366 . S
C2314 C2315 1.414 . S
C2314 C2317 1.499 . S
C2315 H2289 0.950 . S
C2315 C2314 1.414 . S
C2315 C2316 1.374 . S
C2316 H2290 0.950 . S
C2316 C2312 1.385 . S
C2316 C2315 1.374 . S
C2317 C2314 1.499 . S
C2317 C2318 1.373 . S
C2317 C2319 1.389 . S
C2318 H2291 0.950 . S
C2318 C2304 1.377 1_455 S
C2318 C2317 1.373 . S
C2319 C2303 1.377 1_455 S
C2319 C2317 1.389 . S
C2319 C2320 1.524 . S
C2320 C2319 1.524 . S
C2320 C2321 1.397 . S
C2320 C2325 1.363 . S
C2321 H2292 0.950 . S
C2321 C2320 1.397 . S
C2321 C2322 1.334 . S
C2322 H2293 0.950 . S
C2322 C2321 1.334 . S
C2322 C2323 1.287 . S
C2323 C2322 1.287 . S
C2323 C2324 1.524 . S
C2323 H2326 0.999 . S
C2324 H2294 0.950 . S
C2324 C2323 1.524 . S
C2324 C2325 1.415 . S
C2325 H2295 0.950 1_455 S
C2325 C2320 1.363 . S
C2325 C2324 1.415 . S
H2326 C2323 0.999 . S
H2327 C2308 0.913 . S
H2328 C2346 0.951 . S
H2329 C2348 0.951 . S
H2330 C2350 0.950 . S
H2331 C2351 0.950 . S
H2332 C2353 0.950 . S
H2333 C2356 0.950 1_565 S
H2334 C2357 0.950 . S
H2335 C2359 0.950 . S
H2336 C2360 0.950 . S
H2337 C2361 0.951 . S
H2338 C2363 0.951 . S
H2339 C2365 0.950 . S
H2340 C2366 0.950 . S
H2341 C2368 0.950 . S
H2342 C2371 0.950 1_545 S
H2343 C2372 0.950 . S
H2344 C2374 0.950 . S
H2345 C2375 0.950 . S
C2346 H2328 0.951 . S
C2346 C2347 1.366 . S
C2346 C2348 1.388 . S
C2347 C2346 1.366 . S
C2347 C2351 1.385 . S
C2348 H2329 0.951 . S
C2348 C2346 1.388 . S
C2348 C2349 1.366 . S
C2349 C2348 1.366 . S
C2349 C2350 1.414 . S
C2349 C2352 1.499 . S
C2350 H2330 0.950 . S
C2350 C2349 1.414 . S
C2350 C2351 1.374 . S
C2351 H2331 0.950 . S
C2351 C2347 1.385 . S
C2351 C2350 1.374 . S
C2352 C2349 1.499 . S
C2352 C2353 1.373 . S
C2352 C2354 1.389 1_565 S
C2353 H2332 0.950 . S
C2353 C2352 1.373 . S
C2353 C2369 1.377 . S
C2354 C2352 1.389 1_545 S
C2354 C2355 1.524 . S
C2354 C2368 1.377 . S
C2355 C2354 1.524 . S
C2355 C2356 1.397 . S
C2355 C2360 1.363 . S
C2356 H2333 0.950 1_545 S
C2356 C2355 1.397 . S
C2356 C2357 1.334 . S
C2357 H2334 0.950 . S
C2357 C2356 1.334 . S
C2357 C2358 1.287 . S
C2358 C2357 1.287 . S
C2358 C2359 1.524 . S
C2358 H2377 0.913 . S
C2359 H2335 0.950 . S
C2359 C2358 1.524 . S
C2359 C2360 1.415 . S
C2360 H2336 0.950 . S
C2360 C2355 1.363 . S
C2360 C2359 1.415 . S
C2361 H2337 0.951 . S
C2361 C2362 1.366 . S
C2361 C2363 1.388 . S
C2362 C2361 1.366 . S
C2362 C2366 1.385 . S
C2363 H2338 0.951 . S
C2363 C2361 1.388 . S
C2363 C2364 1.366 . S
C2364 C2363 1.366 . S
C2364 C2365 1.414 . S
C2364 C2367 1.499 . S
C2365 H2339 0.950 . S
C2365 C2364 1.414 . S
C2365 C2366 1.374 . S
C2366 H2340 0.950 . S
C2366 C2362 1.385 . S
C2366 C2365 1.374 . S
C2367 C2364 1.499 . S
C2367 C2368 1.373 . S
C2367 C2369 1.389 1_545 S
C2368 H2341 0.950 . S
C2368 C2354 1.377 . S
C2368 C2367 1.373 . S
C2369 C2353 1.377 . S
C2369 C2367 1.389 1_565 S
C2369 C2370 1.524 . S
C2370 C2369 1.524 . S
C2370 C2371 1.397 . S
C2370 C2375 1.363 . S
C2371 H2342 0.950 1_565 S
C2371 C2370 1.397 . S
C2371 C2372 1.334 . S
C2372 H2343 0.950 . S
C2372 C2371 1.334 . S
C2372 C2373 1.287 . S
C2373 C2372 1.287 . S
C2373 C2374 1.524 . S
C2373 H2376 0.999 . S
C2374 H2344 0.950 . S
C2374 C2373 1.524 . S
C2374 C2375 1.415 . S
C2375 H2345 0.950 . S
C2375 C2370 1.363 . S
C2375 C2374 1.415 . S
H2376 C2373 0.999 . S
H2377 C2358 0.913 . S
H2378 C2396 0.951 . S
H2379 C2398 0.951 . S
H2380 C2400 0.950 . S
H2381 C2401 0.950 . S
H2382 C2403 0.952 . S
H2383 C2406 0.950 . S
H2384 C2407 0.950 . S
H2385 C2409 0.950 . S
H2386 C2410 0.950 . S
H2387 C2411 0.951 . S
H2388 C2413 0.951 . S
H2389 C2415 0.950 . S
H2390 C2416 0.950 . S
H2391 C2418 0.952 . S
H2392 C2421 0.950 . S
H2393 C2422 0.950 . S
H2394 C2424 0.950 . S
H2395 C2425 0.950 . S
C2396 H2378 0.951 . S
C2396 C2397 1.366 . S
C2396 C2398 1.388 . S
C2397 C2396 1.366 . S
C2397 C2401 1.385 . S
C2398 H2379 0.951 . S
C2398 C2396 1.388 . S
C2398 C2399 1.366 . S
C2399 C2398 1.366 . S
C2399 C2400 1.414 . S
C2399 C2402 1.499 . S
C2400 H2380 0.950 . S
C2400 C2399 1.414 . S
C2400 C2401 1.374 . S
C2401 H2381 0.950 . S
C2401 C2397 1.385 . S
C2401 C2400 1.374 . S
C2402 C2399 1.499 . S
C2402 C2403 1.347 1_455 S
C2402 C2404 1.389 . S
C2403 H2382 0.952 . S
C2403 C2402 1.347 1_655 S
C2403 C2419 1.402 . S
C2404 C2402 1.389 . S
C2404 C2405 1.524 . S
C2404 C2418 1.402 . S
C2405 C2404 1.524 . S
C2405 C2406 1.397 . S
C2405 C2410 1.363 . S
C2406 H2383 0.950 . S
C2406 C2405 1.397 . S
C2406 C2407 1.334 . S
C2407 H2384 0.950 . S
C2407 C2406 1.334 . S
C2407 C2408 1.287 . S
C2408 C2407 1.287 . S
C2408 C2409 1.524 . S
C2408 H2427 0.913 . S
C2409 H2385 0.950 . S
C2409 C2408 1.524 . S
C2409 C2410 1.415 . S
C2410 H2386 0.950 . S
C2410 C2405 1.363 . S
C2410 C2409 1.415 . S
C2411 H2387 0.951 . S
C2411 C2412 1.366 . S
C2411 C2413 1.388 . S
C2412 C2411 1.366 . S
C2412 C2416 1.385 . S
C2413 H2388 0.951 . S
C2413 C2411 1.388 . S
C2413 C2414 1.366 . S
C2414 C2413 1.366 . S
C2414 C2415 1.414 . S
C2414 C2417 1.499 . S
C2415 H2389 0.950 . S
C2415 C2414 1.414 . S
C2415 C2416 1.374 . S
C2416 H2390 0.950 . S
C2416 C2412 1.385 . S
C2416 C2415 1.374 . S
C2417 C2414 1.499 . S
C2417 C2418 1.347 1_655 S
C2417 C2419 1.389 . S
C2418 H2391 0.952 . S
C2418 C2404 1.402 . S
C2418 C2417 1.347 1_455 S
C2419 C2403 1.402 . S
C2419 C2417 1.389 . S
C2419 C2420 1.524 . S
C2420 C2419 1.524 . S
C2420 C2421 1.397 . S
C2420 C2425 1.363 . S
C2421 H2392 0.950 . S
C2421 C2420 1.397 . S
C2421 C2422 1.334 . S
C2422 H2393 0.950 . S
C2422 C2421 1.334 . S
C2422 C2423 1.287 . S
C2423 C2422 1.287 . S
C2423 C2424 1.524 . S
C2423 H2426 0.999 . S
C2424 H2394 0.950 . S
C2424 C2423 1.524 . S
C2424 C2425 1.415 . S
C2425 H2395 0.950 . S
C2425 C2420 1.363 . S
C2425 C2424 1.415 . S
H2426 C2423 0.999 . S
H2427 C2408 0.913 . S
H2428 C2446 0.951 . S
H2429 C2448 0.951 . S
H2430 C2450 0.950 . S
H2431 C2451 0.950 . S
H2432 C2453 0.950 . S
H2433 C2456 0.950 . S
H2434 C2457 0.950 . S
H2435 C2459 0.950 . S
H2436 C2460 0.950 . S
H2437 C2461 0.951 . S
H2438 C2463 0.951 . S
H2439 C2465 0.950 . S
H2440 C2466 0.950 . S
H2441 C2468 0.950 . S
H2442 C2471 0.950 . S
H2443 C2472 0.950 . S
H2444 C2474 0.950 . S
H2445 C2475 0.950 . S
C2446 H2428 0.951 . S
C2446 C2447 1.366 . S
C2446 C2448 1.388 . S
C2447 C2446 1.366 . S
C2447 C2451 1.385 . S
C2448 H2429 0.951 . S
C2448 C2446 1.388 . S
C2448 C2449 1.366 . S
C2449 C2448 1.366 . S
C2449 C2450 1.414 . S
C2449 C2452 1.499 . S
C2450 H2430 0.950 . S
C2450 C2449 1.414 . S
C2450 C2451 1.374 . S
C2451 H2431 0.950 . S
C2451 C2447 1.385 . S
C2451 C2450 1.374 . S
C2452 C2449 1.499 . S
C2452 C2453 1.373 1_565 S
C2452 C2454 1.389 . S
C2453 H2432 0.950 . S
C2453 C2452 1.373 1_545 S
C2453 C2469 1.377 . S
C2454 C2452 1.389 . S
C2454 C2455 1.524 . S
C2454 C2468 1.377 . S
C2455 C2454 1.524 . S
C2455 C2456 1.397 . S
C2455 C2460 1.363 . S
C2456 H2433 0.950 . S
C2456 C2455 1.397 . S
C2456 C2457 1.334 . S
C2457 H2434 0.950 . S
C2457 C2456 1.334 . S
C2457 C2458 1.287 . S
C2458 C2457 1.287 . S
C2458 C2459 1.524 . S
C2458 H2477 0.913 . S
C2459 H2435 0.950 . S
C2459 C2458 1.524 . S
C2459 C2460 1.415 . S
C2460 H2436 0.950 . S
C2460 C2455 1.363 . S
C2460 C2459 1.415 . S
C2461 H2437 0.951 . S
C2461 C2462 1.366 . S
C2461 C2463 1.388 . S
C2462 C2461 1.366 . S
C2462 C2466 1.385 . S
C2463 H2438 0.951 . S
C2463 C2461 1.388 . S
C2463 C2464 1.366 . S
C2464 C2463 1.366 . S
C2464 C2465 1.414 . S
C2464 C2467 1.499 . S
C2465 H2439 0.950 . S
C2465 C2464 1.414 . S
C2465 C2466 1.374 . S
C2466 H2440 0.950 . S
C2466 C2462 1.385 . S
C2466 C2465 1.374 . S
C2467 C2464 1.499 . S
C2467 C2468 1.373 1_545 S
C2467 C2469 1.389 . S
C2468 H2441 0.950 . S
C2468 C2454 1.377 . S
C2468 C2467 1.373 1_565 S
C2469 C2453 1.377 . S
C2469 C2467 1.389 . S
C2469 C2470 1.524 . S
C2470 C2469 1.524 . S
C2470 C2471 1.397 . S
C2470 C2475 1.363 . S
C2471 H2442 0.950 . S
C2471 C2470 1.397 . S
C2471 C2472 1.334 . S
C2472 H2443 0.950 . S
C2472 C2471 1.334 . S
C2472 C2473 1.287 . S
C2473 C2472 1.287 . S
C2473 C2474 1.524 . S
C2473 H2476 0.999 . S
C2474 H2444 0.950 . S
C2474 C2473 1.524 . S
C2474 C2475 1.415 . S
C2475 H2445 0.950 . S
C2475 C2470 1.363 . S
C2475 C2474 1.415 . S
H2476 C2473 0.999 . S
H2477 C2458 0.913 . S
H2478 C2496 0.951 . S
H2479 C2498 0.951 . S
H2480 C2500 0.950 . S
H2481 C2501 0.950 . S
H2482 C2503 0.950 . S
H2483 C2506 0.950 . S
H2484 C2507 0.950 . S
H2485 C2509 0.950 . S
H2486 C2510 0.950 . S
H2487 C2511 0.951 . S
H2488 C2513 0.951 . S
H2489 C2515 0.950 . S
H2490 C2516 0.950 . S
H2491 C2518 0.950 . S
H2492 C2521 0.950 . S
H2493 C2522 0.950 . S
H2494 C2524 0.950 . S
H2495 C2525 0.950 . S
C2496 H2478 0.951 . S
C2496 C2497 1.366 . S
C2496 C2498 1.388 . S
C2497 C2496 1.366 . S
C2497 C2501 1.385 . S
C2498 H2479 0.951 . S
C2498 C2496 1.388 . S
C2498 C2499 1.366 . S
C2499 C2498 1.366 . S
C2499 C2500 1.414 . S
C2499 C2502 1.499 . S
C2500 H2480 0.950 . S
C2500 C2499 1.414 . S
C2500 C2501 1.374 . S
C2501 H2481 0.950 . S
C2501 C2497 1.385 . S
C2501 C2500 1.374 . S
C2502 C2499 1.499 . S
C2502 C2503 1.373 . S
C2502 C2504 1.389 1_655 S
C2503 H2482 0.950 . S
C2503 C2502 1.373 . S
C2503 C2519 1.377 . S
C2504 C2502 1.389 1_455 S
C2504 C2505 1.524 . S
C2504 C2518 1.377 . S
C2505 C2504 1.524 . S
C2505 C2506 1.397 1_455 S
C2505 C2510 1.363 . S
C2506 H2483 0.950 . S
C2506 C2505 1.397 1_655 S
C2506 C2507 1.334 . S
C2507 H2484 0.950 . S
C2507 C2506 1.334 . S
C2507 C2508 1.287 1_655 S
C2508 C2507 1.287 1_455 S
C2508 C2509 1.524 . S
C2508 H2527 0.913 . S
C2509 H2485 0.950 . S
C2509 C2508 1.524 . S
C2509 C2510 1.415 . S
C2510 H2486 0.950 . S
C2510 C2505 1.363 . S
C2510 C2509 1.415 . S
C2511 H2487 0.951 . S
C2511 C2512 1.366 . S
C2511 C2513 1.388 . S
C2512 C2511 1.366 . S
C2512 C2516 1.385 . S
C2513 H2488 0.951 . S
C2513 C2511 1.388 . S
C2513 C2514 1.366 . S
C2514 C2513 1.366 . S
C2514 C2515 1.414 . S
C2514 C2517 1.499 . S
C2515 H2489 0.950 . S
C2515 C2514 1.414 . S
C2515 C2516 1.374 . S
C2516 H2490 0.950 . S
C2516 C2512 1.385 . S
C2516 C2515 1.374 . S
C2517 C2514 1.499 . S
C2517 C2518 1.373 . S
C2517 C2519 1.389 1_455 S
C2518 H2491 0.950 . S
C2518 C2504 1.377 . S
C2518 C2517 1.373 . S
C2519 C2503 1.377 . S
C2519 C2517 1.389 1_655 S
C2519 C2520 1.524 . S
C2520 C2519 1.524 . S
C2520 C2521 1.397 1_655 S
C2520 C2525 1.363 . S
C2521 H2492 0.950 . S
C2521 C2520 1.397 1_455 S
C2521 C2522 1.334 . S
C2522 H2493 0.950 . S
C2522 C2521 1.334 . S
C2522 C2523 1.287 1_455 S
C2523 C2522 1.287 1_655 S
C2523 C2524 1.524 . S
C2523 H2526 0.999 . S
C2524 H2494 0.950 . S
C2524 C2523 1.524 . S
C2524 C2525 1.415 . S
C2525 H2495 0.950 . S
C2525 C2520 1.363 . S
C2525 C2524 1.415 . S
H2526 C2523 0.999 . S
H2527 C2508 0.913 . S
C547 N79 0.721 . S
C562 N13 0.718 . S
C597 N46 0.721 . S
C612 N112 0.719 . S
C647 N211 0.721 . S
C662 N145 0.718 . S
C697 N244 0.720 . S
C712 N178 0.719 . S
C747 N277 0.718 . S
C762 N343 0.721 . S
C797 N310 0.721 . S
C812 N376 0.718 . S
C847 N409 0.719 . S
C862 N475 0.721 . S
C897 N508 0.718 . S
C912 N442 0.721 . S
C947 N2 1.797 . S
C962 N167 1.797 . S
C997 N200 1.797 . S
C1012 N35 1.797 . S
C1047 N233 1.797 . S
C1062 N68 1.797 . S
C1097 N134 1.797 . S
C1112 N101 1.797 . S
C1147 N431 1.797 . S
C1162 N266 1.797 . S
C1197 N464 1.797 . S
C1212 N299 1.797 . S
C1247 N497 1.797 . S
C1262 N332 1.797 . S
C1297 N398 1.797 . S
C1312 N365 1.797 . S
C1347 C18 1.073 . S
C1362 C348 1.072 . S
C1397 C381 1.073 . S
C1412 C51 1.073 . S
C1447 C282 1.073 . S
C1462 C84 1.073 . S
C1497 C315 1.073 . S
C1512 C117 1.073 . S
C1547 C150 1.073 . S
C1562 C480 1.073 . S
C1597 C183 1.073 . S
C1612 C513 1.073 . S
C1647 C216 1.073 . S
C1662 C414 1.073 . S
C1697 C249 1.073 . S
C1712 C447 1.073 . S
C1747 C139 0.642 . S
C1762 C7 0.645 . S
C1797 C40 0.643 . S
C1812 C172 0.645 . S
C1847 C205 0.643 . S
C1862 C73 0.645 . S
C1897 C238 0.643 . S
C1912 C106 0.645 . S
C1947 C285 0.365 . S
C1962 C417 0.370 . S
C1997 C450 0.370 . S
C2012 C318 0.365 . S
C2047 C351 0.366 . S
C2062 C483 0.370 . S
C2097 C516 0.366 . S
C2112 C384 0.370 . S
C2147 C370 0.643 . S
C2162 C436 0.645 . S
C2197 C271 0.644 . S
C2212 C469 0.643 . S
C2247 C502 0.643 . S
C2262 C304 0.644 . S
C2297 C403 0.643 . S
C2312 C337 0.645 . S
C2347 C120 0.368 . S
C2362 C186 0.368 . S
C2397 C21 0.366 . S
C2412 C219 0.370 . S
C2447 C252 0.368 . S
C2462 C54 0.368 . S
C2497 C87 0.369 . S
C2512 C153 0.366 . S
