# Generated by pormake.
# Topology ukj, (4)-cn, num edge types: 1
# Building blocks:
#     Node 0, Type 0, BuildingBlock: CEKHIL_clean_sbu_0, # of connection points: 4
#     Node 1, Type 0, BuildingBlock: CEKHIL_clean_sbu_0, # of connection points: 4
#     Node 2, Type 0, BuildingBlock: CEKHIL_clean_sbu_0, # of connection points: 4
#     Node 3, Type 0, BuildingBlock: CEKHIL_clean_sbu_0, # of connection points: 4
#     Node 4, Type 0, BuildingBlock: CEKHIL_clean_sbu_0, # of connection points: 4
#     Node 5, Type 0, BuildingBlock: CEKHIL_clean_sbu_0, # of connection points: 4
#     Node 6, Type 0, BuildingBlock: CEKHIL_clean_sbu_0, # of connection points: 4
#     Node 7, Type 0, BuildingBlock: CEKHIL_clean_sbu_0, # of connection points: 4
#     Node 8, Type 0, BuildingBlock: CEKHIL_clean_sbu_0, # of connection points: 4
#     Node 9, Type 0, BuildingBlock: CEKHIL_clean_sbu_0, # of connection points: 4
#     Node 10, Type 0, BuildingBlock: CEKHIL_clean_sbu_0, # of connection points: 4
#     Node 11, Type 0, BuildingBlock: CEKHIL_clean_sbu_0, # of connection points: 4
#     Node 12, Type 0, BuildingBlock: CEKHIL_clean_sbu_0, # of connection points: 4
#     Node 13, Type 0, BuildingBlock: CEKHIL_clean_sbu_0, # of connection points: 4
#     Node 14, Type 0, BuildingBlock: CEKHIL_clean_sbu_0, # of connection points: 4
#     Node 15, Type 0, BuildingBlock: CEKHIL_clean_sbu_0, # of connection points: 4
#     Node 16, Type 0, BuildingBlock: CEKHIL_clean_sbu_0, # of connection points: 4
#     Node 17, Type 0, BuildingBlock: CEKHIL_clean_sbu_0, # of connection points: 4
#     Node 18, Type 0, BuildingBlock: CEKHIL_clean_sbu_0, # of connection points: 4
#     Node 19, Type 0, BuildingBlock: CEKHIL_clean_sbu_0, # of connection points: 4
#     Node 20, Type 0, BuildingBlock: CEKHIL_clean_sbu_0, # of connection points: 4
#     Node 21, Type 0, BuildingBlock: CEKHIL_clean_sbu_0, # of connection points: 4
#     Node 22, Type 0, BuildingBlock: CEKHIL_clean_sbu_0, # of connection points: 4
#     Node 23, Type 0, BuildingBlock: CEKHIL_clean_sbu_0, # of connection points: 4
#     Node 24, Type 0, BuildingBlock: CEKHIL_clean_sbu_0, # of connection points: 4
#     Node 25, Type 0, BuildingBlock: CEKHIL_clean_sbu_0, # of connection points: 4
#     Node 26, Type 0, BuildingBlock: CEKHIL_clean_sbu_0, # of connection points: 4
#     Node 27, Type 0, BuildingBlock: CEKHIL_clean_sbu_0, # of connection points: 4
#     Node 28, Type 0, BuildingBlock: CEKHIL_clean_sbu_0, # of connection points: 4
#     Node 29, Type 0, BuildingBlock: CEKHIL_clean_sbu_0, # of connection points: 4
#     Node 30, Type 0, BuildingBlock: CEKHIL_clean_sbu_0, # of connection points: 4
#     Node 31, Type 0, BuildingBlock: CEKHIL_clean_sbu_0, # of connection points: 4
#     Edge 32, Type (0, 0), BuildingBlock: XUDNAN_clean_linker_2, # of connection points: 2
#     Edge 33, Type (0, 0), BuildingBlock: XUDNAN_clean_linker_2, # of connection points: 2
#     Edge 34, Type (0, 0), BuildingBlock: XUDNAN_clean_linker_2, # of connection points: 2
#     Edge 35, Type (0, 0), BuildingBlock: XUDNAN_clean_linker_2, # of connection points: 2
#     Edge 36, Type (0, 0), BuildingBlock: XUDNAN_clean_linker_2, # of connection points: 2
#     Edge 37, Type (0, 0), BuildingBlock: XUDNAN_clean_linker_2, # of connection points: 2
#     Edge 38, Type (0, 0), BuildingBlock: XUDNAN_clean_linker_2, # of connection points: 2
#     Edge 39, Type (0, 0), BuildingBlock: XUDNAN_clean_linker_2, # of connection points: 2
#     Edge 40, Type (0, 0), BuildingBlock: XUDNAN_clean_linker_2, # of connection points: 2
#     Edge 41, Type (0, 0), BuildingBlock: XUDNAN_clean_linker_2, # of connection points: 2
#     Edge 42, Type (0, 0), BuildingBlock: XUDNAN_clean_linker_2, # of connection points: 2
#     Edge 43, Type (0, 0), BuildingBlock: XUDNAN_clean_linker_2, # of connection points: 2
#     Edge 44, Type (0, 0), BuildingBlock: XUDNAN_clean_linker_2, # of connection points: 2
#     Edge 45, Type (0, 0), BuildingBlock: XUDNAN_clean_linker_2, # of connection points: 2
#     Edge 46, Type (0, 0), BuildingBlock: XUDNAN_clean_linker_2, # of connection points: 2
#     Edge 47, Type (0, 0), BuildingBlock: XUDNAN_clean_linker_2, # of connection points: 2
#     Edge 48, Type (0, 0), BuildingBlock: XUDNAN_clean_linker_2, # of connection points: 2
#     Edge 49, Type (0, 0), BuildingBlock: XUDNAN_clean_linker_2, # of connection points: 2
#     Edge 50, Type (0, 0), BuildingBlock: XUDNAN_clean_linker_2, # of connection points: 2
#     Edge 51, Type (0, 0), BuildingBlock: XUDNAN_clean_linker_2, # of connection points: 2
#     Edge 52, Type (0, 0), BuildingBlock: XUDNAN_clean_linker_2, # of connection points: 2
#     Edge 53, Type (0, 0), BuildingBlock: XUDNAN_clean_linker_2, # of connection points: 2
#     Edge 54, Type (0, 0), BuildingBlock: XUDNAN_clean_linker_2, # of connection points: 2
#     Edge 55, Type (0, 0), BuildingBlock: XUDNAN_clean_linker_2, # of connection points: 2
#     Edge 56, Type (0, 0), BuildingBlock: XUDNAN_clean_linker_2, # of connection points: 2
#     Edge 57, Type (0, 0), BuildingBlock: XUDNAN_clean_linker_2, # of connection points: 2
#     Edge 58, Type (0, 0), BuildingBlock: XUDNAN_clean_linker_2, # of connection points: 2
#     Edge 59, Type (0, 0), BuildingBlock: XUDNAN_clean_linker_2, # of connection points: 2
#     Edge 60, Type (0, 0), BuildingBlock: XUDNAN_clean_linker_2, # of connection points: 2
#     Edge 61, Type (0, 0), BuildingBlock: XUDNAN_clean_linker_2, # of connection points: 2
#     Edge 62, Type (0, 0), BuildingBlock: XUDNAN_clean_linker_2, # of connection points: 2
#     Edge 63, Type (0, 0), BuildingBlock: XUDNAN_clean_linker_2, # of connection points: 2
#     Edge 64, Type (0, 0), BuildingBlock: XUDNAN_clean_linker_2, # of connection points: 2
#     Edge 65, Type (0, 0), BuildingBlock: XUDNAN_clean_linker_2, # of connection points: 2
#     Edge 66, Type (0, 0), BuildingBlock: XUDNAN_clean_linker_2, # of connection points: 2
#     Edge 67, Type (0, 0), BuildingBlock: XUDNAN_clean_linker_2, # of connection points: 2
#     Edge 68, Type (0, 0), BuildingBlock: XUDNAN_clean_linker_2, # of connection points: 2
#     Edge 69, Type (0, 0), BuildingBlock: XUDNAN_clean_linker_2, # of connection points: 2
#     Edge 70, Type (0, 0), BuildingBlock: XUDNAN_clean_linker_2, # of connection points: 2
#     Edge 71, Type (0, 0), BuildingBlock: XUDNAN_clean_linker_2, # of connection points: 2
#     Edge 72, Type (0, 0), BuildingBlock: XUDNAN_clean_linker_2, # of connection points: 2
#     Edge 73, Type (0, 0), BuildingBlock: XUDNAN_clean_linker_2, # of connection points: 2
#     Edge 74, Type (0, 0), BuildingBlock: XUDNAN_clean_linker_2, # of connection points: 2
#     Edge 75, Type (0, 0), BuildingBlock: XUDNAN_clean_linker_2, # of connection points: 2
#     Edge 76, Type (0, 0), BuildingBlock: XUDNAN_clean_linker_2, # of connection points: 2
#     Edge 77, Type (0, 0), BuildingBlock: XUDNAN_clean_linker_2, # of connection points: 2
#     Edge 78, Type (0, 0), BuildingBlock: XUDNAN_clean_linker_2, # of connection points: 2
#     Edge 79, Type (0, 0), BuildingBlock: XUDNAN_clean_linker_2, # of connection points: 2
#     Edge 80, Type (0, 0), BuildingBlock: XUDNAN_clean_linker_2, # of connection points: 2
#     Edge 81, Type (0, 0), BuildingBlock: XUDNAN_clean_linker_2, # of connection points: 2
#     Edge 82, Type (0, 0), BuildingBlock: XUDNAN_clean_linker_2, # of connection points: 2
#     Edge 83, Type (0, 0), BuildingBlock: XUDNAN_clean_linker_2, # of connection points: 2
#     Edge 84, Type (0, 0), BuildingBlock: XUDNAN_clean_linker_2, # of connection points: 2
#     Edge 85, Type (0, 0), BuildingBlock: XUDNAN_clean_linker_2, # of connection points: 2
#     Edge 86, Type (0, 0), BuildingBlock: XUDNAN_clean_linker_2, # of connection points: 2
#     Edge 87, Type (0, 0), BuildingBlock: XUDNAN_clean_linker_2, # of connection points: 2
#     Edge 88, Type (0, 0), BuildingBlock: XUDNAN_clean_linker_2, # of connection points: 2
#     Edge 89, Type (0, 0), BuildingBlock: XUDNAN_clean_linker_2, # of connection points: 2
#     Edge 90, Type (0, 0), BuildingBlock: XUDNAN_clean_linker_2, # of connection points: 2
#     Edge 91, Type (0, 0), BuildingBlock: XUDNAN_clean_linker_2, # of connection points: 2
#     Edge 92, Type (0, 0), BuildingBlock: XUDNAN_clean_linker_2, # of connection points: 2
#     Edge 93, Type (0, 0), BuildingBlock: XUDNAN_clean_linker_2, # of connection points: 2
#     Edge 94, Type (0, 0), BuildingBlock: XUDNAN_clean_linker_2, # of connection points: 2
#     Edge 95, Type (0, 0), BuildingBlock: XUDNAN_clean_linker_2, # of connection points: 2
# Relax obj value: 0.080
# Max RMSD: 0.174
# Mean RMSD: 0.173
data_MOF--net-ukj--node1-CEKHIL_clean_sbu_0--edge1-XUDNAN_clean_linker_2
_symmetry_space_group_name_H-M    P1
_symmetry_Int_Tables_number       1
_symmetry_cell_setting            triclinic
loop_
_symmetry_equiv_pos_as_xyz
'x, y, z'
_cell_length_a     31.073069
_cell_length_b     63.726618
_cell_length_c     55.517373
_cell_angle_alpha  89.999449
_cell_angle_beta   90.001309
_cell_angle_gamma 90.013384
loop_
_atom_site_label
_atom_site_type_symbol
_atom_site_fract_x
_atom_site_fract_y
_atom_site_fract_z
_atom_type_partial_charge
Co0 Co 0.15262 0.32776 0.25084 0.0
O1 O 0.10316 0.31067 0.24477 0.0
O2 O 0.17007 0.29958 0.24091 0.0
C3 C 0.12908 0.3392 0.28664 0.0
O4 O 0.21108 0.34215 0.25662 0.0
Co5 Co 0.13726 0.37542 0.25283 0.0
O6 O 0.19613 0.37568 0.26632 0.0
C7 C 0.14647 0.35532 0.20565 0.0
C8 C 0.129 0.29526 0.24049 0.0
C9 C 0.22272 0.36061 0.26388 0.0
O10 O 0.15288 0.33784 0.21659 0.0
O11 O 0.13668 0.37231 0.21667 0.0
O12 O 0.1488 0.32143 0.28463 0.0
O13 O 0.12001 0.34876 0.26663 0.0
Co14 Co 0.10377 0.9113 0.24437 0.0
O15 O 0.16116 0.92229 0.241 0.0
O16 O 0.10178 0.94134 0.23901 0.0
C17 C 0.11654 0.89257 0.27778 0.0
O18 O 0.0395 0.9051 0.24837 0.0
Co19 Co 0.0895 0.86354 0.23871 0.0
O20 O 0.03022 0.87002 0.24959 0.0
C21 C 0.10034 0.88917 0.19533 0.0
C22 C 0.1437 0.94067 0.23916 0.0
C23 C 0.01565 0.88867 0.25117 0.0
O24 O 0.10018 0.90565 0.2087 0.0
O25 O 0.10019 0.87051 0.20385 0.0
O26 O 0.10896 0.91253 0.27895 0.0
O27 O 0.12117 0.88492 0.25627 0.0
Co28 Co 0.1449 0.92082 0.97804 0.0
O29 O 0.0888 0.92871 0.96741 0.0
O30 O 0.13105 0.94944 0.98865 0.0
C31 C 0.16646 0.90847 0.94214 0.0
O32 O 0.20645 0.91665 0.99088 0.0
Co33 Co 0.16354 0.87368 0.97839 0.0
O34 O 0.22366 0.88342 0.98062 0.0
C35 C 0.11764 0.89154 0.0194 0.0
C36 C 0.0945 0.94674 0.97746 0.0
C37 C 0.23386 0.90153 0.98837 0.0
O38 O 0.12011 0.90934 0.0087 0.0
O39 O 0.13212 0.87457 0.01013 0.0
O40 O 0.16901 0.92824 0.94736 0.0
O41 O 0.1462 0.8969 0.95775 0.0
Co42 Co 0.09919 0.3362 0.99484 0.0
O43 O 0.148 0.31858 0.98928 0.0
O44 O 0.09138 0.30929 0.01095 0.0
C45 C 0.09111 0.34577 0.95624 0.0
O46 O 0.04237 0.35096 0.00323 0.0
Co47 Co 0.11202 0.38334 0.98672 0.0
O48 O 0.04957 0.38493 0.99249 0.0
C49 C 0.14304 0.36525 0.03156 0.0
C50 C 0.12898 0.30442 0.0021 0.0
C51 C 0.02731 0.36971 0.00057 0.0
O52 O 0.12777 0.34765 0.02439 0.0
O53 O 0.14158 0.38201 0.01896 0.0
O54 O 0.07486 0.32842 0.96432 0.0
O55 O 0.11574 0.35596 0.97113 0.0
Co56 Co 0.86958 0.6671 0.74216 0.0
O57 O 0.92445 0.68097 0.74561 0.0
O58 O 0.8619 0.69553 0.75423 0.0
C59 C 0.88358 0.65532 0.70481 0.0
O60 O 0.80635 0.65781 0.73934 0.0
Co61 Co 0.86494 0.61892 0.73468 0.0
O62 O 0.80245 0.62337 0.73028 0.0
C63 C 0.88137 0.63604 0.7833 0.0
C64 C 0.90344 0.69761 0.75197 0.0
C65 C 0.78473 0.64105 0.73419 0.0
O66 O 0.87413 0.6549 0.77582 0.0
O67 O 0.88309 0.62019 0.76919 0.0
O68 O 0.86906 0.67418 0.70805 0.0
O69 O 0.8917 0.64469 0.72408 0.0
Co70 Co 0.87961 0.08965 0.74587 0.0
O71 O 0.82437 0.07586 0.74576 0.0
O72 O 0.88202 0.06371 0.76436 0.0
C73 C 0.88073 0.09537 0.70601 0.0
O74 O 0.9424 0.09965 0.74858 0.0
Co75 Co 0.88455 0.13623 0.73136 0.0
O76 O 0.94728 0.13111 0.73037 0.0
C77 C 0.8609 0.12552 0.78113 0.0
C78 C 0.84195 0.06094 0.75811 0.0
C79 C 0.96463 0.11539 0.74068 0.0
O80 O 0.86447 0.106 0.77565 0.0
O81 O 0.8653 0.14028 0.76568 0.0
O82 O 0.89246 0.07749 0.71494 0.0
O83 O 0.86478 0.10876 0.72117 0.0
Co84 Co 0.854 0.09361 0.99268 0.0
O85 O 0.90967 0.08067 0.99243 0.0
O86 O 0.8527 0.068 0.97356 0.0
C87 C 0.85265 0.09851 0.03268 0.0
O88 O 0.79106 0.10309 0.99014 0.0
Co89 Co 0.84723 0.13967 0.00758 0.0
O90 O 0.78558 0.13291 0.01165 0.0
C91 C 0.86976 0.12982 0.95752 0.0
C92 C 0.89307 0.06585 0.97954 0.0
C93 C 0.76866 0.11765 0.00033 0.0
O94 O 0.86862 0.11034 0.96329 0.0
O95 O 0.86346 0.14455 0.9728 0.0
O96 O 0.84135 0.08081 0.02314 0.0
O97 O 0.86837 0.11239 0.01793 0.0
Co98 Co 0.87968 0.66272 0.00019 0.0
O99 O 0.82297 0.67313 0.99556 0.0
O100 O 0.88136 0.69063 0.9851 0.0
C101 C 0.86893 0.65404 0.03882 0.0
O102 O 0.94377 0.65471 0.00384 0.0
Co103 Co 0.88256 0.61488 0.01008 0.0
O104 O 0.9414 0.62234 0.02038 0.0
C105 C 0.87301 0.62964 0.96028 0.0
C106 C 0.83945 0.69003 0.98686 0.0
C107 C 0.96213 0.6387 0.01399 0.0
O108 O 0.877 0.64856 0.9679 0.0
O109 O 0.87181 0.61375 0.97437 0.0
O110 O 0.87972 0.67294 0.03289 0.0
O111 O 0.8603 0.64151 0.02109 0.0
Co112 Co 0.144 0.84615 0.73961 0.0
O113 O 0.08376 0.83969 0.74075 0.0
O114 O 0.13341 0.81715 0.72919 0.0
C115 C 0.14759 0.86023 0.77669 0.0
O116 O 0.21015 0.84853 0.73769 0.0
Co117 Co 0.16757 0.89388 0.74171 0.0
O118 O 0.22684 0.88275 0.74352 0.0
C119 C 0.13606 0.87578 0.69627 0.0
C120 C 0.09299 0.82083 0.73397 0.0
C121 C 0.23772 0.86366 0.74036 0.0
O122 O 0.13787 0.85722 0.70548 0.0
O123 O 0.14254 0.89249 0.70855 0.0
O124 O 0.14904 0.84007 0.7739 0.0
O125 O 0.13878 0.87089 0.75752 0.0
Co126 Co 0.13084 0.41092 0.75491 0.0
O127 O 0.18994 0.41837 0.75995 0.0
O128 O 0.1408 0.44046 0.74662 0.0
C129 C 0.12247 0.39473 0.79038 0.0
O130 O 0.06575 0.4074 0.74846 0.0
Co131 Co 0.11027 0.36325 0.75158 0.0
O132 O 0.05075 0.37339 0.75646 0.0
C133 C 0.14565 0.38479 0.7092 0.0
C134 C 0.18066 0.43717 0.75301 0.0
C135 C 0.03893 0.3921 0.75189 0.0
O136 O 0.14435 0.40212 0.72101 0.0
O137 O 0.13531 0.36706 0.7184 0.0
O138 O 0.11897 0.41497 0.78887 0.0
O139 O 0.13544 0.38525 0.77108 0.0
Co140 Co 0.14136 0.40714 0.48531 0.0
O141 O 0.08363 0.41584 0.49097 0.0
O142 O 0.13898 0.43723 0.49391 0.0
C143 C 0.12665 0.39055 0.45064 0.0
O144 O 0.20598 0.40112 0.47968 0.0
Co145 Co 0.15271 0.35889 0.48783 0.0
O146 O 0.20765 0.36629 0.47183 0.0
C147 C 0.14899 0.38256 0.53279 0.0
C148 C 0.09737 0.43449 0.49538 0.0
C149 C 0.22571 0.38425 0.47261 0.0
O150 O 0.14765 0.3994 0.52013 0.0
O151 O 0.14788 0.36417 0.52354 0.0
O152 O 0.13384 0.41057 0.45094 0.0
O153 O 0.12346 0.38171 0.47158 0.0
Co154 Co 0.12131 0.8317 0.48246 0.0
O155 O 0.17937 0.82217 0.48532 0.0
O156 O 0.12379 0.80482 0.49991 0.0
C157 C 0.12552 0.83822 0.44265 0.0
O158 O 0.0563 0.83862 0.48125 0.0
Co159 Co 0.11325 0.87877 0.46872 0.0
O160 O 0.0529 0.8704 0.46308 0.0
C161 C 0.13027 0.86746 0.5192 0.0
C162 C 0.16528 0.80575 0.49628 0.0
C163 C 0.03504 0.854 0.47159 0.0
O164 O 0.1274 0.84798 0.51341 0.0
O165 O 0.12835 0.88233 0.5037 0.0
O166 O 0.11717 0.81957 0.45055 0.0
O167 O 0.13588 0.85182 0.45901 0.0
Co168 Co 0.90261 0.1428 0.24074 0.0
O169 O 0.96224 0.15038 0.24178 0.0
O170 O 0.90948 0.17114 0.25374 0.0
C171 C 0.90394 0.13092 0.20259 0.0
O172 O 0.83682 0.13886 0.24157 0.0
Co173 Co 0.88113 0.09532 0.23324 0.0
O174 O 0.8238 0.107 0.22529 0.0
C175 C 0.90084 0.11135 0.28218 0.0
C176 C 0.95059 0.16847 0.25 0.0
C177 C 0.81095 0.12466 0.23326 0.0
O178 O 0.90603 0.13005 0.27391 0.0
O179 O 0.89343 0.09541 0.26873 0.0
O180 O 0.89983 0.15079 0.2069 0.0
O181 O 0.91175 0.11932 0.22116 0.0
Co182 Co 0.88996 0.58423 0.23852 0.0
O183 O 0.8373 0.56884 0.2343 0.0
O184 O 0.89901 0.55469 0.24572 0.0
C185 C 0.88492 0.60164 0.20366 0.0
O186 O 0.95088 0.59594 0.24414 0.0
Co187 Co 0.88615 0.63263 0.24289 0.0
O188 O 0.94871 0.63063 0.2364 0.0
C189 C 0.8639 0.6065 0.28483 0.0
C190 C 0.8585 0.55217 0.24027 0.0
C191 C 0.96955 0.61384 0.24072 0.0
O192 O 0.87417 0.59006 0.27277 0.0
O193 O 0.86447 0.62506 0.27596 0.0
O194 O 0.90106 0.58287 0.20423 0.0
O195 O 0.86928 0.6086 0.22373 0.0
Co196 Co 0.86005 0.58411 0.50993 0.0
O197 O 0.91536 0.57089 0.50561 0.0
O198 O 0.85308 0.55418 0.50456 0.0
C199 C 0.87858 0.60224 0.54277 0.0
O200 O 0.79684 0.59277 0.51458 0.0
Co201 Co 0.85258 0.63192 0.50423 0.0
O202 O 0.7919 0.62804 0.51397 0.0
C203 C 0.85773 0.60589 0.46096 0.0
C204 C 0.89496 0.55328 0.50358 0.0
C205 C 0.77493 0.60996 0.51623 0.0
O206 O 0.85607 0.58961 0.47451 0.0
O207 O 0.86005 0.62458 0.46926 0.0
O208 O 0.86675 0.5828 0.54429 0.0
O209 O 0.88317 0.60979 0.52124 0.0
Co210 Co 0.88124 0.15001 0.49885 0.0
O211 O 0.82831 0.16565 0.49722 0.0
O212 O 0.89165 0.17821 0.48646 0.0
C213 C 0.87099 0.13822 0.53669 0.0
O214 O 0.94263 0.13752 0.49911 0.0
Co215 Co 0.87262 0.10137 0.50544 0.0
O216 O 0.93563 0.10349 0.50982 0.0
C217 C 0.86028 0.1202 0.45734 0.0
C218 C 0.85059 0.18146 0.48972 0.0
C219 C 0.95881 0.11934 0.50442 0.0
O220 O 0.8716 0.13839 0.4653 0.0
O221 O 0.85483 0.10423 0.471 0.0
O222 O 0.88669 0.1568 0.53312 0.0
O223 O 0.85794 0.12858 0.51764 0.0
Co224 Co 0.63823 0.35109 0.75772 0.0
O225 O 0.57965 0.34356 0.76397 0.0
O226 O 0.62893 0.32099 0.75196 0.0
C227 C 0.64634 0.36968 0.79161 0.0
O228 O 0.70304 0.3547 0.75058 0.0
Co229 Co 0.65748 0.39827 0.74986 0.0
O230 O 0.71682 0.38899 0.75726 0.0
C231 C 0.62209 0.37369 0.70981 0.0
C232 C 0.58922 0.32443 0.75859 0.0
C233 C 0.72939 0.37023 0.75374 0.0
O234 O 0.62367 0.35737 0.72333 0.0
O235 O 0.63253 0.39206 0.71711 0.0
O236 O 0.65106 0.34946 0.79173 0.0
O237 O 0.63269 0.37777 0.77162 0.0
Co238 Co 0.63371 0.89982 0.75488 0.0
O239 O 0.68909 0.91258 0.75691 0.0
O240 O 0.63131 0.92982 0.7456 0.0
C241 C 0.63806 0.88559 0.79194 0.0
O242 O 0.57066 0.88937 0.75238 0.0
Co243 Co 0.63709 0.85076 0.75693 0.0
O244 O 0.57505 0.85515 0.76284 0.0
C245 C 0.65652 0.87252 0.71134 0.0
C246 C 0.67204 0.93033 0.75143 0.0
C247 C 0.55303 0.87152 0.75798 0.0
O248 O 0.64593 0.89028 0.72076 0.0
O249 O 0.65859 0.85542 0.7234 0.0
O250 O 0.62509 0.90472 0.78919 0.0
O251 O 0.65191 0.87657 0.77264 0.0
Co252 Co 0.6528 0.9195 0.49829 0.0
O253 O 0.59632 0.92963 0.50521 0.0
O254 O 0.65548 0.94637 0.5158 0.0
C255 C 0.63863 0.91316 0.45926 0.0
O256 O 0.71681 0.91204 0.49259 0.0
Co257 Co 0.65681 0.87251 0.48351 0.0
O258 O 0.71581 0.88042 0.474 0.0
C259 C 0.65003 0.88357 0.53485 0.0
C260 C 0.61349 0.94588 0.5151 0.0
C261 C 0.73564 0.89665 0.48149 0.0
O262 O 0.65264 0.9031 0.52926 0.0
O263 O 0.64852 0.86887 0.51915 0.0
O264 O 0.65009 0.93166 0.4664 0.0
O265 O 0.632 0.89956 0.47618 0.0
Co266 Co 0.6225 0.3352 0.48766 0.0
O267 O 0.68058 0.32601 0.49168 0.0
O268 O 0.62486 0.30527 0.49694 0.0
C269 C 0.63471 0.35016 0.45172 0.0
O270 O 0.55746 0.34109 0.48381 0.0
Co271 Co 0.6112 0.38305 0.48797 0.0
O272 O 0.55063 0.37632 0.48063 0.0
C273 C 0.62045 0.36152 0.53396 0.0
C274 C 0.66665 0.30744 0.49641 0.0
C275 C 0.53463 0.35793 0.48084 0.0
O276 O 0.62021 0.34411 0.52233 0.0
O277 O 0.62073 0.37942 0.52354 0.0
O278 O 0.62603 0.33038 0.4536 0.0
O279 O 0.64051 0.36011 0.47183 0.0
Co280 Co 0.36308 0.67144 0.2487 0.0
O281 O 0.42138 0.68073 0.24602 0.0
O282 O 0.37186 0.69728 0.2673 0.0
C283 C 0.35376 0.66664 0.2089 0.0
O284 O 0.2989 0.66505 0.25436 0.0
Co285 Co 0.34616 0.62545 0.23336 0.0
O286 O 0.28554 0.63489 0.23427 0.0
C287 C 0.38014 0.63393 0.28195 0.0
C288 C 0.41143 0.69651 0.25944 0.0
C289 C 0.27294 0.6509 0.24605 0.0
O290 O 0.37851 0.65369 0.27739 0.0
O291 O 0.37097 0.61987 0.26627 0.0
O292 O 0.34868 0.68497 0.21854 0.0
O293 O 0.36872 0.65226 0.22311 0.0
Co294 Co 0.41438 0.07476 0.23901 0.0
O295 O 0.35483 0.06761 0.23815 0.0
O296 O 0.40498 0.04694 0.25338 0.0
C297 C 0.41819 0.08492 0.2004 0.0
O298 O 0.47988 0.07878 0.24207 0.0
Co299 Co 0.43391 0.12152 0.2334 0.0
O300 O 0.4923 0.11079 0.22624 0.0
C301 C 0.41181 0.10593 0.28119 0.0
C302 C 0.3644 0.05011 0.24848 0.0
C303 C 0.50559 0.09324 0.23427 0.0
O304 O 0.40684 0.0879 0.27139 0.0
O305 O 0.42095 0.12245 0.26913 0.0
O306 O 0.42207 0.0654 0.20647 0.0
O307 O 0.40679 0.09763 0.2176 0.0
Co308 Co 0.36717 0.09079 0.50492 0.0
O309 O 0.42487 0.07983 0.50866 0.0
O310 O 0.36787 0.06075 0.49926 0.0
C311 C 0.36648 0.10948 0.53902 0.0
O312 O 0.30243 0.09663 0.50074 0.0
Co313 Co 0.35197 0.13835 0.49813 0.0
O314 O 0.29094 0.13135 0.50435 0.0
C315 C 0.38246 0.11348 0.45701 0.0
C316 C 0.40877 0.06145 0.50433 0.0
C317 C 0.27696 0.11262 0.50266 0.0
O318 O 0.37875 0.09682 0.46994 0.0
O319 O 0.37531 0.13196 0.46511 0.0
O320 O 0.35868 0.0895 0.53933 0.0
O321 O 0.37872 0.11725 0.51854 0.0
Co322 Co 0.38358 0.65192 0.50087 0.0
O323 O 0.33126 0.66685 0.49404 0.0
O324 O 0.39627 0.68021 0.48948 0.0
C325 C 0.36195 0.64113 0.53738 0.0
O326 O 0.44466 0.64052 0.5076 0.0
Co327 Co 0.37802 0.60384 0.50708 0.0
O328 O 0.43574 0.60756 0.52133 0.0
C329 C 0.37908 0.62165 0.45809 0.0
C330 C 0.35469 0.68306 0.48919 0.0
C331 C 0.4594 0.62353 0.51741 0.0
O332 O 0.38454 0.64008 0.46711 0.0
O333 O 0.37316 0.60528 0.47104 0.0
O334 O 0.37855 0.65955 0.53439 0.0
O335 O 0.35503 0.63036 0.51798 0.0
Co336 Co 0.62328 0.85301 0.25643 0.0
O337 O 0.57061 0.83767 0.25219 0.0
O338 O 0.6354 0.82452 0.24584 0.0
C339 C 0.60622 0.86568 0.29302 0.0
O340 O 0.68464 0.8647 0.26025 0.0
Co341 Co 0.6181 0.90173 0.26137 0.0
O342 O 0.67794 0.89817 0.27283 0.0
C343 C 0.6152 0.88226 0.213 0.0
C344 C 0.59396 0.82146 0.24712 0.0
C345 C 0.70083 0.88202 0.26841 0.0
O346 O 0.62081 0.86387 0.22218 0.0
O347 O 0.61034 0.89885 0.22573 0.0
O348 O 0.62183 0.84693 0.29079 0.0
O349 O 0.59736 0.8752 0.27309 0.0
Co350 Co 0.62476 0.40233 0.24639 0.0
O351 O 0.68314 0.41086 0.24229 0.0
O352 O 0.62766 0.43122 0.23406 0.0
C353 C 0.63445 0.38963 0.28368 0.0
O354 O 0.55962 0.39727 0.24966 0.0
Co355 Co 0.61118 0.35434 0.25145 0.0
O356 O 0.55122 0.36281 0.25813 0.0
C357 C 0.62355 0.37224 0.20328 0.0
C358 C 0.66937 0.42889 0.23512 0.0
C359 C 0.53598 0.38117 0.25492 0.0
O360 O 0.62398 0.39068 0.21269 0.0
O361 O 0.62183 0.35542 0.21582 0.0
O362 O 0.62686 0.4094 0.28033 0.0
O363 O 0.64047 0.37861 0.2644 0.0
Co364 Co 0.63685 0.42842 0.99577 0.0
O365 O 0.58244 0.4427 0.99552 0.0
O366 O 0.64003 0.45365 0.01527 0.0
C367 C 0.64042 0.42364 0.95581 0.0
O368 O 0.69863 0.41758 -0.00088 0.0
Co369 Co 0.63987 0.38197 0.97877 0.0
O370 O 0.7029 0.3862 0.98057 0.0
C371 C 0.61206 0.39159 0.02831 0.0
C372 C 0.60036 0.45702 0.00867 0.0
C373 C 0.7203 0.40156 0.9916 0.0
O374 O 0.61914 0.4112 0.02448 0.0
O375 O 0.61557 0.37755 0.01192 0.0
O376 O 0.65187 0.44136 0.96529 0.0
O377 O 0.623 0.41023 0.97036 0.0
Co378 Co 0.61843 0.83943 0.00128 0.0
O379 O 0.67241 0.82496 0.00225 0.0
O380 O 0.61232 0.81303 0.0186 0.0
C381 C 0.62134 0.84513 0.96142 0.0
O382 O 0.55663 0.85087 0.00283 0.0
Co383 Co 0.61864 0.88592 0.98667 0.0
O384 O 0.55625 0.88127 0.98216 0.0
C385 C 0.63889 0.8744 0.03693 0.0
C386 C 0.65264 0.80987 0.01312 0.0
C387 C 0.53667 0.86649 0.99303 0.0
O388 O 0.63322 0.855 0.03155 0.0
O389 O 0.63663 0.88919 0.02135 0.0
O390 O 0.60663 0.82771 0.97005 0.0
O391 O 0.63721 0.8582 0.977 0.0
Co392 Co 0.35232 0.17477 0.74152 0.0
O393 O 0.40462 0.19046 0.73761 0.0
O394 O 0.34816 0.20178 0.75795 0.0
C395 C 0.34633 0.16567 0.70263 0.0
O396 O 0.29233 0.16218 0.74824 0.0
Co397 Co 0.35789 0.12717 0.73299 0.0
O398 O 0.29493 0.1281 0.73721 0.0
C399 C 0.38649 0.14361 0.77928 0.0
C400 C 0.38724 0.20521 0.75028 0.0
C401 C 0.27454 0.14404 0.74501 0.0
O402 O 0.37564 0.16187 0.77172 0.0
O403 O 0.38347 0.12707 0.76635 0.0
O404 O 0.33252 0.18369 0.71025 0.0
O405 O 0.36744 0.15452 0.71823 0.0
Co406 Co 0.39495 0.5932 0.74274 0.0
O407 O 0.34326 0.57781 0.74928 0.0
O408 O 0.40848 0.56552 0.75601 0.0
C409 C 0.37385 0.60255 0.70537 0.0
O410 O 0.45552 0.60565 0.73682 0.0
Co411 Co 0.38504 0.64109 0.73297 0.0
O412 O 0.44466 0.63785 0.72117 0.0
C413 C 0.38632 0.62538 0.78319 0.0
C414 C 0.367 0.56222 0.75584 0.0
C415 C 0.46956 0.62274 0.72687 0.0
O416 O 0.39304 0.60646 0.77587 0.0
O417 O 0.37963 0.64081 0.76889 0.0
O418 O 0.39219 0.58458 0.70903 0.0
O419 O 0.36592 0.61342 0.72446 0.0
Co420 Co 0.36851 0.60886 0.00381 0.0
O421 O 0.42808 0.60172 0.00637 0.0
O422 O 0.3777 0.57951 0.99472 0.0
C423 C 0.36401 0.62417 0.04015 0.0
O424 O 0.3029 0.61183 0.00071 0.0
Co425 Co 0.34716 0.65665 0.00315 0.0
O426 O 0.28721 0.64637 0.00453 0.0
C427 C 0.38165 0.63664 0.95956 0.0
C428 C 0.418 0.58281 0.00016 0.0
C429 C 0.27588 0.62725 0.00222 0.0
O430 O 0.37736 0.6185 0.96946 0.0
O431 O 0.37537 0.65387 0.97088 0.0
O432 O 0.36108 0.60397 0.03806 0.0
O433 O 0.37449 0.63415 0.02074 0.0
Co434 Co 0.36565 0.15457 0.00249 0.0
O435 O 0.30524 0.16042 0.00279 0.0
O436 O 0.35553 0.18413 0.99552 0.0
C437 C 0.36682 0.13669 0.03724 0.0
O438 O 0.43151 0.15314 0.00141 0.0
Co439 Co 0.39303 0.10779 -0.002 0.0
O440 O 0.44879 0.11942 0.00918 0.0
C441 C 0.37322 0.13169 0.95408 0.0
C442 C 0.31484 0.17982 -0.00145 0.0
C443 C 0.45916 0.1386 0.00623 0.0
O444 O 0.36442 0.14773 0.96722 0.0
O445 O 0.38295 0.11368 0.96273 0.0
O446 O 0.36744 0.15702 0.03721 0.0
O447 O 0.36012 0.1279 0.01652 0.0
H448 H 0.11709 0.38384 0.17167 0.0
H449 H 0.19566 0.32794 0.18026 0.0
H450 H 0.2124 0.32839 0.13708 0.0
H451 H 0.07052 0.36835 0.11649 0.0
H452 H 0.06939 0.39428 0.10352 0.0
H453 H 0.06741 0.39112 0.1357 0.0
H454 H 0.13405 0.41531 0.13993 0.0
H455 H 0.13655 0.41827 0.10766 0.0
H456 H 0.18285 0.4089 0.12399 0.0
H457 H 0.21626 0.33253 0.09329 0.0
H458 H 0.20099 0.33835 0.05022 0.0
H459 H 0.12045 0.39154 0.06841 0.0
C460 C 0.13818 0.37186 0.16446 0.0
C461 C 0.15503 0.35587 0.17941 0.0
C462 C 0.18203 0.34028 0.16922 0.0
C463 C 0.1922 0.34052 0.14471 0.0
C464 C 0.17514 0.35641 0.13047 0.0
C465 C 0.14836 0.3717 0.1398 0.0
C466 C 0.13116 0.38574 0.11991 0.0
C467 C 0.0817 0.3848 0.11884 0.0
C468 C 0.14712 0.4084 0.12307 0.0
C469 C 0.1515 0.37551 0.09798 0.0
C470 C 0.17742 0.35887 0.10466 0.0
C471 C 0.19678 0.34576 0.08778 0.0
C472 C 0.18809 0.34921 0.06339 0.0
C473 C 0.1605 0.36566 0.05614 0.0
C474 C 0.14298 0.37938 0.07355 0.0
H475 H 0.13287 0.86259 0.05547 0.0
H476 H 0.06805 0.92156 0.04053 0.0
H477 H 0.05402 0.92624 0.08376 0.0
H478 H 0.06161 0.84679 0.10708 0.0
H479 H 0.10599 0.83551 0.1235 0.0
H480 H 0.10625 0.83535 0.09103 0.0
H481 H 0.18019 0.85411 0.09133 0.0
H482 H 0.17983 0.8547 0.12374 0.0
H483 H 0.18579 0.87875 0.10698 0.0
H484 H 0.0563 0.92744 0.12823 0.0
H485 H 0.06598 0.92269 0.1719 0.0
H486 H 0.12639 0.86226 0.15911 0.0
C487 C 0.11442 0.8761 0.06121 0.0
C488 C 0.10156 0.89169 0.04454 0.0
C489 C 0.07832 0.9094 0.0529 0.0
C490 C 0.07019 0.91224 0.07746 0.0
C491 C 0.08502 0.89713 0.09351 0.0
C492 C 0.10583 0.87917 0.0858 0.0
C493 C 0.12022 0.86597 0.1071 0.0
C494 C 0.09713 0.84464 0.10718 0.0
C495 C 0.16942 0.86323 0.10729 0.0
C496 C 0.10532 0.87964 0.12788 0.0
C497 C 0.08521 0.89755 0.11953 0.0
C498 C 0.07124 0.91329 0.13504 0.0
C499 C 0.07727 0.91053 0.15982 0.0
C500 C 0.09677 0.89207 0.16894 0.0
C501 C 0.11092 0.87642 0.15268 0.0
H502 H 0.87142 0.66364 0.82151 0.0
H503 H 0.89862 0.59834 0.80463 0.0
H504 H 0.89742 0.5897 0.84766 0.0
H505 H 0.93702 0.66548 0.87605 0.0
H506 H 0.89995 0.68235 0.89182 0.0
H507 H 0.90387 0.68367 0.85948 0.0
H508 H 0.82185 0.67689 0.85614 0.0
H509 H 0.8178 0.67529 0.88846 0.0
H510 H 0.79906 0.65386 0.87004 0.0
H511 H 0.88989 0.58739 0.89217 0.0
H512 H 0.8835 0.59247 0.93607 0.0
H513 H 0.86286 0.65919 0.92465 0.0
C514 C 0.87762 0.64758 0.82686 0.0
C515 C 0.88492 0.63172 0.80951 0.0
C516 C 0.89277 0.61086 0.8174 0.0
C517 C 0.89208 0.60571 0.84188 0.0
C518 C 0.88379 0.62156 0.85841 0.0
C519 C 0.87727 0.64212 0.85134 0.0
C520 C 0.86931 0.6561 0.87298 0.0
C521 C 0.90465 0.67289 0.87521 0.0
C522 C 0.82433 0.66612 0.87183 0.0
C523 C 0.87219 0.64012 0.89316 0.0
C524 C 0.88026 0.62028 0.88431 0.0
C525 C 0.8838 0.60288 0.89939 0.0
C526 C 0.87987 0.60591 0.9243 0.0
C527 C 0.87278 0.62622 0.93388 0.0
C528 C 0.86844 0.64346 0.91796 0.0
H529 H 0.88209 0.10212 0.92072 0.0
H530 H 0.86338 0.1685 0.93504 0.0
H531 H 0.85784 0.17505 0.89114 0.0
H532 H 0.94389 0.10748 0.86558 0.0
H533 H 0.91857 0.0849 0.8521 0.0
H534 H 0.92486 0.0863 0.8843 0.0
H535 H 0.84276 0.08051 0.88935 0.0
H536 H 0.83604 0.07956 0.85717 0.0
H537 H 0.80568 0.09816 0.87475 0.0
H538 H 0.85107 0.17358 0.84495 0.0
H539 H 0.84787 0.16457 0.80158 0.0
H540 H 0.86707 0.09891 0.81951 0.0
C541 C 0.87758 0.11816 0.91479 0.0
C542 C 0.87334 0.13481 0.93146 0.0
C543 C 0.86711 0.15548 0.92267 0.0
C544 C 0.86365 0.15933 0.89776 0.0
C545 C 0.86637 0.14234 0.88195 0.0
C546 C 0.87357 0.1222 0.89023 0.0
C547 C 0.87372 0.10641 0.86994 0.0
C548 C 0.91789 0.09565 0.86786 0.0
C549 C 0.83738 0.09021 0.873 0.0
C550 C 0.86527 0.12073 0.84882 0.0
C551 C 0.86127 0.14142 0.85594 0.0
C552 C 0.85414 0.15741 0.83924 0.0
C553 C 0.85213 0.15213 0.81464 0.0
C554 C 0.85689 0.131 0.80703 0.0
C555 C 0.86277 0.11519 0.82456 0.0
H556 H 0.13625 0.84501 0.66113 0.0
H557 H 0.12273 0.91229 0.67145 0.0
H558 H 0.12077 0.91732 0.62757 0.0
H559 H 0.20547 0.84761 0.6105 0.0
H560 H 0.18175 0.82566 0.5949 0.0
H561 H 0.17981 0.82688 0.62729 0.0
H562 H 0.09674 0.82342 0.62627 0.0
H563 H 0.09848 0.8219 0.59388 0.0
H564 H 0.06567 0.84151 0.60836 0.0
H565 H 0.12439 0.91556 0.58272 0.0
H566 H 0.12715 0.90669 0.53954 0.0
H567 H 0.13763 0.84057 0.55789 0.0
C568 C 0.13218 0.86077 0.6542 0.0
C569 C 0.12974 0.87823 0.66989 0.0
C570 C 0.1248 0.89861 0.65994 0.0
C571 C 0.12372 0.90168 0.63497 0.0
C572 C 0.1274 0.88423 0.62007 0.0
C573 C 0.131 0.86415 0.62923 0.0
C574 C 0.13492 0.84816 0.60911 0.0
C575 C 0.17805 0.83639 0.61054 0.0
C576 C 0.09667 0.83285 0.60943 0.0
C577 C 0.13331 0.86246 0.58729 0.0
C578 C 0.1291 0.8832 0.59405 0.0
C579 C 0.12743 0.89935 0.57716 0.0
C580 C 0.12926 0.89414 0.55264 0.0
C581 C 0.13258 0.87293 0.54518 0.0
C582 C 0.13507 0.85696 0.56289 0.0
H583 H 0.12887 0.35477 0.56956 0.0
H584 H 0.18361 0.41629 0.55538 0.0
H585 H 0.19478 0.42163 0.59869 0.0
H586 H 0.07076 0.37018 0.62181 0.0
H587 H 0.07938 0.34604 0.63802 0.0
H588 H 0.07888 0.34599 0.6056 0.0
H589 H 0.15453 0.3289 0.60525 0.0
H590 H 0.15535 0.32901 0.63772 0.0
H591 H 0.19816 0.34145 0.6211 0.0
H592 H 0.19747 0.4215 0.64286 0.0
H593 H 0.18682 0.41686 0.68639 0.0
H594 H 0.12894 0.35581 0.67339 0.0
C595 C 0.14361 0.36923 0.57562 0.0
C596 C 0.15536 0.38509 0.55904 0.0
C597 C 0.17403 0.40395 0.56768 0.0
C598 C 0.18088 0.4071 0.59227 0.0
C599 C 0.16878 0.3913 0.60813 0.0
C600 C 0.15027 0.37279 0.6003 0.0
C601 C 0.13759 0.35909 0.62152 0.0
C602 C 0.08875 0.3551 0.62174 0.0
C603 C 0.16293 0.33838 0.62138 0.0
C604 C 0.15126 0.37302 0.64236 0.0
C605 C 0.16971 0.39137 0.63409 0.0
C606 C 0.18332 0.40715 0.64963 0.0
C607 C 0.17704 0.40436 0.67435 0.0
C608 C 0.15708 0.38597 0.68336 0.0
C609 C 0.14483 0.36991 0.66711 0.0
H610 H 0.9137 0.14073 0.31817 0.0
H611 H 0.87862 0.07549 0.30617 0.0
H612 H 0.8609 0.0718 0.34904 0.0
H613 H 0.96245 0.13214 0.37755 0.0
H614 H 0.94324 0.15676 0.38936 0.0
H615 H 0.95456 0.15418 0.35768 0.0
H616 H 0.87707 0.16657 0.34797 0.0
H617 H 0.86522 0.16875 0.37964 0.0
H618 H 0.83194 0.15258 0.36059 0.0
H619 H 0.84166 0.0755 0.39193 0.0
H620 H 0.83347 0.08453 0.43461 0.0
H621 H 0.88363 0.14701 0.42027 0.0
C622 C 0.90298 0.12556 0.3246 0.0
C623 C 0.89747 0.10843 0.30862 0.0
C624 C 0.88326 0.08888 0.31789 0.0
C625 C 0.87276 0.08663 0.34225 0.0
C626 C 0.87704 0.10398 0.35724 0.0
C627 C 0.8927 0.12294 0.349 0.0
C628 C 0.89485 0.13893 0.36925 0.0
C629 C 0.94155 0.14591 0.37373 0.0
C630 C 0.86552 0.15782 0.36404 0.0
C631 C 0.87771 0.12594 0.39006 0.0
C632 C 0.86715 0.10594 0.38252 0.0
C633 C 0.85025 0.09104 0.39816 0.0
C634 C 0.84557 0.0964 0.42242 0.0
C635 C 0.85821 0.11646 0.43099 0.0
C636 C 0.87354 0.13158 0.41437 0.0
H637 H 0.86833 0.63571 0.32122 0.0
H638 H 0.83743 0.57045 0.30656 0.0
H639 H 0.82925 0.56394 0.34999 0.0
H640 H 0.93199 0.62634 0.37181 0.0
H641 H 0.91446 0.64892 0.38872 0.0
H642 H 0.91311 0.64944 0.35631 0.0
H643 H 0.83185 0.65852 0.35718 0.0
H644 H 0.83304 0.65831 0.38964 0.0
H645 H 0.7953 0.64192 0.3737 0.0
H646 H 0.83145 0.56338 0.39431 0.0
H647 H 0.83926 0.56923 0.43778 0.0
H648 H 0.86842 0.63497 0.42455 0.0
C649 C 0.85876 0.6202 0.32713 0.0
C650 C 0.85345 0.60359 0.31052 0.0
C651 C 0.84178 0.5834 0.31897 0.0
C652 C 0.83696 0.57954 0.34359 0.0
C653 C 0.84377 0.59605 0.35953 0.0
C654 C 0.85397 0.61603 0.35173 0.0
C655 C 0.86194 0.63061 0.37285 0.0
C656 C 0.90812 0.63933 0.37238 0.0
C657 C 0.82853 0.64839 0.37337 0.0
C658 C 0.85553 0.61554 0.39364 0.0
C659 C 0.84492 0.59573 0.38546 0.0
C660 C 0.8392 0.57888 0.40101 0.0
C661 C 0.844 0.58237 0.42571 0.0
C662 C 0.8544 0.6026 0.43466 0.0
C663 C 0.86021 0.61938 0.41832 0.0
H664 H 0.6395 0.39212 0.56772 0.0
H665 H 0.59085 0.32851 0.56015 0.0
H666 H 0.57951 0.32655 0.60384 0.0
H667 H 0.69801 0.38235 0.62209 0.0
H668 H 0.68678 0.40764 0.6352 0.0
H669 H 0.68853 0.40475 0.60296 0.0
H670 H 0.61159 0.42022 0.59994 0.0
H671 H 0.60945 0.42292 0.63223 0.0
H672 H 0.56839 0.40822 0.61669 0.0
H673 H 0.57414 0.33075 0.64772 0.0
H674 H 0.58272 0.33941 0.69055 0.0
H675 H 0.63714 0.39992 0.67106 0.0
C676 C 0.62633 0.37783 0.57529 0.0
C677 C 0.61603 0.36049 0.56046 0.0
C678 C 0.59927 0.34198 0.57108 0.0
C679 C 0.5923 0.34075 0.59589 0.0
C680 C 0.60248 0.3581 0.60995 0.0
C681 C 0.61965 0.3762 0.6002 0.0
C682 C 0.63035 0.39197 0.6198 0.0
C683 C 0.67879 0.39696 0.62002 0.0
C684 C 0.60332 0.41202 0.61699 0.0
C685 C 0.61703 0.3797 0.64201 0.0
C686 C 0.60039 0.36036 0.63576 0.0
C687 C 0.58705 0.34586 0.65291 0.0
C688 C 0.59211 0.35095 0.67722 0.0
C689 C 0.61074 0.37033 0.68421 0.0
C690 C 0.62237 0.38509 0.66631 0.0
H691 H 0.64509 0.90349 0.67706 0.0
H692 H 0.68153 0.83803 0.68555 0.0
H693 H 0.68342 0.83395 0.64157 0.0
H694 H 0.57582 0.89631 0.62736 0.0
H695 H 0.59124 0.92006 0.61197 0.0
H696 H 0.59509 0.91855 0.64429 0.0
H697 H 0.67587 0.9285 0.64227 0.0
H698 H 0.67211 0.93033 0.60995 0.0
H699 H 0.71165 0.91335 0.62353 0.0
H700 H 0.67607 0.83591 0.59701 0.0
H701 H 0.66734 0.84495 0.55413 0.0
H702 H 0.6375 0.90927 0.57405 0.0
C703 C 0.65419 0.88839 0.66971 0.0
C704 C 0.66302 0.87109 0.68491 0.0
C705 C 0.67451 0.85156 0.67442 0.0
C706 C 0.6756 0.84903 0.6494 0.0
C707 C 0.66549 0.86618 0.635 0.0
C708 C 0.65564 0.88557 0.64469 0.0
C709 C 0.64555 0.90134 0.62503 0.0
C710 C 0.59917 0.90954 0.62731 0.0
C711 C 0.67825 0.91945 0.62521 0.0
C712 C 0.65082 0.88766 0.60289 0.0
C713 C 0.6621 0.86742 0.60909 0.0
C714 C 0.66762 0.85176 0.59187 0.0
C715 C 0.66229 0.85703 0.56755 0.0
C716 C 0.65183 0.87783 0.56067 0.0
C717 C 0.64574 0.89326 0.57868 0.0
H718 H 0.39293 0.65933 0.32126 0.0
H719 H 0.38378 0.59381 0.30022 0.0
H720 H 0.38587 0.58347 0.34305 0.0
H721 H 0.46393 0.6514 0.3739 0.0
H722 H 0.43697 0.67149 0.39106 0.0
H723 H 0.43976 0.67345 0.35872 0.0
H724 H 0.35668 0.67653 0.3569 0.0
H725 H 0.35354 0.67426 0.38916 0.0
H726 H 0.324 0.65628 0.37032 0.0
H727 H 0.38169 0.58051 0.38823 0.0
H728 H 0.37612 0.58493 0.43223 0.0
H729 H 0.38753 0.65248 0.4236 0.0
C730 C 0.39238 0.64275 0.32552 0.0
C731 C 0.38829 0.62739 0.30723 0.0
C732 C 0.38711 0.6059 0.31381 0.0
C733 C 0.38819 0.59986 0.33812 0.0
C734 C 0.39069 0.61547 0.35566 0.0
C735 C 0.39329 0.63646 0.34965 0.0
C736 C 0.39346 0.65022 0.37191 0.0
C737 C 0.43607 0.66235 0.37402 0.0
C738 C 0.3546 0.6652 0.37207 0.0
C739 C 0.38956 0.63372 0.3914 0.0
C740 C 0.38823 0.61377 0.38167 0.0
C741 C 0.38318 0.59604 0.39606 0.0
C742 C 0.37981 0.59876 0.42107 0.0
C743 C 0.3814 0.61907 0.43151 0.0
C744 C 0.38634 0.63673 0.41632 0.0
H745 H 0.36607 0.13981 0.41844 0.0
H746 H 0.42717 0.08089 0.43795 0.0
H747 H 0.44504 0.07461 0.39544 0.0
H748 H 0.31767 0.12118 0.36491 0.0
H749 H 0.32543 0.14487 0.3477 0.0
H750 H 0.32071 0.1462 0.37999 0.0
H751 H 0.39391 0.16549 0.38251 0.0
H752 H 0.3988 0.16431 0.35018 0.0
H753 H 0.44088 0.15379 0.36899 0.0
H754 H 0.45176 0.07294 0.3519 0.0
H755 H 0.44773 0.07574 0.30798 0.0
H756 H 0.38261 0.13581 0.31439 0.0
C757 C 0.3839 0.1258 0.41375 0.0
C758 C 0.39535 0.11084 0.43154 0.0
C759 C 0.41794 0.09251 0.42467 0.0
C760 C 0.42843 0.08884 0.40058 0.0
C761 C 0.41608 0.10363 0.38348 0.0
C762 C 0.39441 0.12177 0.38958 0.0
C763 C 0.3828 0.13431 0.36716 0.0
C764 C 0.33374 0.13678 0.36481 0.0
C765 C 0.40546 0.15575 0.36722 0.0
C766 C 0.40073 0.12012 0.34757 0.0
C767 C 0.41995 0.10262 0.35766 0.0
C768 C 0.43712 0.08661 0.34374 0.0
C769 C 0.43434 0.08832 0.31878 0.0
C770 C 0.41457 0.10592 0.30776 0.0
C771 C 0.39812 0.12227 0.32235 0.0
H772 H 0.62395 0.85168 0.17796 0.0
H773 H 0.61359 0.91917 0.18784 0.0
H774 H 0.62433 0.92442 0.14443 0.0
H775 H 0.7057 0.85293 0.13191 0.0
H776 H 0.68294 0.83157 0.11485 0.0
H777 H 0.67511 0.83279 0.14698 0.0
H778 H 0.59242 0.83119 0.14111 0.0
H779 H 0.60006 0.82964 0.10901 0.0
H780 H 0.56662 0.84998 0.1216 0.0
H781 H 0.63672 0.92271 0.10011 0.0
H782 H 0.64198 0.91375 0.05702 0.0
H783 H 0.64351 0.84748 0.07555 0.0
C784 C 0.62373 0.86756 0.17102 0.0
C785 C 0.61798 0.88498 0.18648 0.0
C786 C 0.61784 0.9055 0.17651 0.0
C787 C 0.62421 0.9087 0.15183 0.0
C788 C 0.63055 0.89127 0.13722 0.0
C789 C 0.62983 0.87108 0.14633 0.0
C790 C 0.63592 0.85507 0.12644 0.0
C791 C 0.67739 0.84234 0.13028 0.0
C792 C 0.5964 0.84063 0.12442 0.0
C793 C 0.63978 0.86945 0.1048 0.0
C794 C 0.63712 0.89027 0.11147 0.0
C795 C 0.6389 0.90645 0.09462 0.0
C796 C 0.64209 0.90119 0.07016 0.0
C797 C 0.64315 0.87991 0.06277 0.0
C798 C 0.64299 0.86391 0.08049 0.0
H799 H 0.61273 0.41589 0.06908 0.0
H800 H 0.59712 0.35152 0.04476 0.0
H801 H 0.59745 0.33951 0.087 0.0
H802 H 0.68605 0.40523 0.11492 0.0
H803 H 0.66522 0.42442 0.13573 0.0
H804 H 0.65916 0.42835 0.10381 0.0
H805 H 0.57651 0.43174 0.10878 0.0
H806 H 0.58237 0.42822 0.14081 0.0
H807 H 0.54707 0.41125 0.12394 0.0
H808 H 0.60577 0.33426 0.1318 0.0
H809 H 0.61527 0.3365 0.17587 0.0
H810 H 0.62631 0.40432 0.17034 0.0
C811 C 0.60837 0.39929 0.07254 0.0
C812 C 0.60481 0.38468 0.05349 0.0
C813 C 0.59972 0.36308 0.05898 0.0
C814 C 0.60003 0.35607 0.08294 0.0
C815 C 0.60526 0.37085 0.10119 0.0
C816 C 0.60876 0.39204 0.09628 0.0
C817 C 0.61581 0.40464 0.11904 0.0
C818 C 0.65913 0.41634 0.11832 0.0
C819 C 0.57819 0.41986 0.1234 0.0
C820 C 0.61636 0.38721 0.1375 0.0
C821 C 0.61018 0.36783 0.1269 0.0
C822 C 0.61027 0.34937 0.14034 0.0
C823 C 0.61597 0.3508 0.16536 0.0
C824 C 0.62153 0.37058 0.17667 0.0
C825 C 0.62212 0.38893 0.16237 0.0
H826 H 0.37101 0.11141 0.8114 0.0
H827 H 0.42847 0.17326 0.80497 0.0
H828 H 0.4348 0.17543 0.84901 0.0
H829 H 0.30724 0.12212 0.86022 0.0
H830 H 0.31376 0.09751 0.87579 0.0
H831 H 0.31994 0.09862 0.84359 0.0
H832 H 0.39634 0.0827 0.84685 0.0
H833 H 0.39008 0.08105 0.87908 0.0
H834 H 0.43546 0.09479 0.86641 0.0
H835 H 0.42318 0.17415 0.89239 0.0
H836 H 0.4051 0.16712 0.93463 0.0
H837 H 0.3583 0.10518 0.91512 0.0
C838 C 0.38657 0.12498 0.81929 0.0
C839 C 0.39945 0.14215 0.8048 0.0
C840 C 0.41848 0.15994 0.81575 0.0
C841 C 0.42217 0.16133 0.84075 0.0
C842 C 0.4071 0.14471 0.85461 0.0
C843 C 0.39062 0.12662 0.84443 0.0
C844 C 0.37425 0.11176 0.86382 0.0
C845 C 0.32593 0.10725 0.86065 0.0
C846 C 0.40062 0.09137 0.86405 0.0
C847 C 0.38263 0.12475 0.88629 0.0
C848 C 0.40151 0.1437 0.88035 0.0
C849 C 0.40927 0.1592 0.89739 0.0
C850 C 0.39832 0.15514 0.92131 0.0
C851 C 0.38017 0.13563 0.92815 0.0
C852 C 0.37239 0.12016 0.91039 0.0
H853 H 0.37887 0.59831 0.82211 0.0
H854 H 0.40134 0.6636 0.80322 0.0
H855 H 0.4085 0.6725 0.84602 0.0
H856 H 0.31404 0.60919 0.87383 0.0
H857 H 0.33463 0.58771 0.89152 0.0
H858 H 0.33397 0.5859 0.85916 0.0
H859 H 0.41588 0.57832 0.85923 0.0
H860 H 0.41682 0.58027 0.89162 0.0
H861 H 0.45199 0.59651 0.87375 0.0
H862 H 0.41158 0.67502 0.89016 0.0
H863 H 0.40473 0.6715 0.93406 0.0
H864 H 0.37864 0.60487 0.92569 0.0
C865 C 0.38554 0.61444 0.82702 0.0
C866 C 0.38948 0.63024 0.80923 0.0
C867 C 0.39781 0.6512 0.81642 0.0
C868 C 0.40231 0.65644 0.84072 0.0
C869 C 0.39824 0.64059 0.85776 0.0
C870 C 0.38968 0.62005 0.85137 0.0
C871 C 0.3844 0.60641 0.8736 0.0
C872 C 0.33906 0.59674 0.87458 0.0
C873 C 0.41936 0.58937 0.8746 0.0
C874 C 0.39077 0.62261 0.89334 0.0
C875 C 0.39927 0.64214 0.88367 0.0
C876 C 0.40507 0.65981 0.89802 0.0
C877 C 0.40106 0.65763 0.92298 0.0
C878 C 0.39107 0.63792 0.93342 0.0
C879 C 0.3867 0.62011 0.91833 0.0
H880 H 0.93883 0.21138 0.24745 0.0
H881 H 0.03648 0.16337 0.25634 0.0
H882 H 0.09335 0.19021 0.25316 0.0
H883 H 0.99502 0.24091 0.20347 0.0
H884 H 0.97818 0.26621 0.21448 0.0
H885 H 0.94455 0.24356 0.2192 0.0
H886 H 0.94475 0.25023 0.26526 0.0
H887 H 0.97756 0.27317 0.2606 0.0
H888 H 0.99537 0.25285 0.28086 0.0
H889 H 0.14026 0.22222 0.24701 0.0
H890 H 0.17263 0.25758 0.24238 0.0
H891 H 0.04461 0.28431 0.23645 0.0
C892 C 0.97212 0.20664 0.24935 0.0
C893 C 0.9832 0.18531 0.25233 0.0
C894 C 0.02723 0.17965 0.25414 0.0
C895 C 0.05983 0.19476 0.25224 0.0
C896 C 0.04802 0.21555 0.24843 0.0
C897 C 0.00524 0.22156 0.24728 0.0
C898 C 1.00138 0.24489 0.24256 0.0
C899 C 0.97842 0.24913 0.2185 0.0
C900 C 0.97842 0.25593 0.26357 0.0
C901 C 0.04852 0.25098 0.24128 0.0
C902 C 0.075 0.23386 0.24459 0.0
C903 C 0.11982 0.23578 0.24441 0.0
C904 C 0.13799 0.25587 0.24156 0.0
C905 C 0.11129 0.2737 0.23896 0.0
C906 C 0.06604 0.27101 0.23829 0.0
H907 H 0.23145 0.94354 0.23439 0.0
H908 H 0.11705 0.98088 0.24774 0.0
H909 H 0.16277 0.01189 0.25537 0.0
H910 H 0.29903 0.96723 0.27917 0.0
H911 H 0.34704 0.96673 0.26096 0.0
H912 H 0.30575 0.94724 0.2565 0.0
H913 H 0.30012 0.95732 0.21139 0.0
H914 H 0.342 0.97651 0.21561 0.0
H915 H 0.29083 0.98433 0.20323 0.0
H916 H 0.22 0.03833 0.26256 0.0
H917 H 0.28481 0.06048 0.26291 0.0
H918 H 0.36345 0.0067 0.2441 0.0
C919 C 0.21599 0.9583 0.2387 0.0
C920 C 0.1706 0.95981 0.24048 0.0
C921 C 0.15165 0.97938 0.24612 0.0
C922 C 0.1774 0.99702 0.25072 0.0
C923 C 0.22201 0.99485 0.24946 0.0
C924 C 0.24122 0.97612 0.24314 0.0
C925 C 0.2899 0.97832 0.24213 0.0
C926 C 0.3117 0.96403 0.2608 0.0
C927 C 0.30669 0.97386 0.21657 0.0
C928 C 0.29509 0.00128 0.24876 0.0
C929 C 0.25538 0.01033 0.25324 0.0
C930 C 0.25122 0.03143 0.25909 0.0
C931 C 0.28828 0.04385 0.25936 0.0
C932 C 0.32912 0.03526 0.25372 0.0
C933 C 0.33279 0.01354 0.24901 0.0
H934 H 0.09285 0.98774 0.99505 0.0
H935 H 0.01846 0.94228 0.95416 0.0
H936 H 0.96103 0.96814 0.94853 0.0
H937 H 1.00226 0.01079 0.02566 0.0
H938 H 0.02309 0.03717 0.02453 0.0
H939 H 0.05956 0.01522 0.02497 0.0
H940 H 0.0951 0.02869 0.98567 0.0
H941 H 0.05852 0.05062 0.98505 0.0
H942 H 0.06218 0.03331 0.95946 0.0
H943 H 0.91018 0.99837 0.94773 0.0
H944 H 0.86873 0.03119 0.95334 0.0
H945 H 0.97516 0.05734 0.9942 0.0
C946 C 0.06451 0.98328 0.98492 0.0
C947 C 0.06042 0.96293 0.97507 0.0
C948 C 0.02264 0.95773 0.96194 0.0
C949 C 0.98967 0.97234 0.95853 0.0
C950 C 0.99462 0.99223 0.96832 0.0
C951 C 0.03093 0.99778 0.98131 0.0
C952 C 0.02731 0.02016 0.99032 0.0
C953 C 0.02809 0.02087 0.01801 0.0
C954 C 0.0629 0.03401 0.97947 0.0
C955 C 0.98334 0.02611 0.9805 0.0
C956 C 0.96512 0.0098 0.96777 0.0
C957 C 0.92415 0.01135 0.95757 0.0
C958 C 0.90085 0.03003 0.96078 0.0
C959 C 0.91867 0.04685 0.97407 0.0
C960 C 0.96069 0.04484 0.98375 0.0
H961 H 0.32195 0.22253 0.99046 0.0
H962 H 0.23025 0.1737 0.00903 0.0
H963 H 0.17344 0.20024 0.01374 0.0
H964 H 0.28203 0.26158 0.03139 0.0
H965 H 0.28983 0.28317 0.01088 0.0
H966 H 0.32386 0.26036 0.00892 0.0
H967 H 0.30316 0.25562 0.96401 0.0
H968 H 0.26947 0.27856 0.96578 0.0
H969 H 0.24715 0.25395 0.95576 0.0
H970 H 0.12643 0.23225 0.01769 0.0
H971 H 0.09172 0.26729 0.01657 0.0
H972 H 0.21314 0.2949 0.99447 0.0
C973 C 0.28988 0.21744 0.99535 0.0
C974 C 0.28069 0.19603 -0.00061 0.0
C975 C 0.23821 0.19 0.00579 0.0
C976 C 0.20563 0.20497 0.00864 0.0
C977 C 0.2158 0.22596 0.0049 0.0
C978 C 0.25672 0.2322 -0.00188 0.0
C979 C 0.25876 0.25574 0.99469 0.0
C980 C 0.2905 0.2658 0.01254 0.0
C981 C 0.2703 0.26129 0.9685 0.0
C982 C 0.21269 0.26166 0.00056 0.0
C983 C 0.18847 0.24431 0.00665 0.0
C984 C 0.14502 0.24598 0.01286 0.0
C985 C 0.12561 0.2659 0.01231 0.0
C986 C 0.14964 0.28374 0.00537 0.0
C987 C 0.19383 0.28152 -0.00025 0.0
H988 H 0.99 0.70568 0.74748 0.0
H989 H 0.86658 0.73647 0.75706 0.0
H990 H 0.90192 0.77096 0.75209 0.0
H991 H 0.05441 0.74523 0.77924 0.0
H992 H 0.09935 0.74266 0.75892 0.0
H993 H 0.06458 0.72055 0.76444 0.0
H994 H 0.05096 0.7172 0.71858 0.0
H995 H 0.08506 0.73953 0.71295 0.0
H996 H 0.03037 0.73943 0.70212 0.0
H997 H 0.94944 0.80176 0.7435 0.0
H998 H 0.00699 0.82753 0.73668 0.0
H999 H 0.10106 0.77724 0.73315 0.0
C1000 C 0.97046 0.71969 0.74896 0.0
C1001 C 0.92538 0.71834 0.75277 0.0
C1002 C 0.90108 0.73706 0.75437 0.0
C1003 C 0.92087 0.75673 0.75139 0.0
C1004 C 0.96507 0.75743 0.74694 0.0
C1005 C 0.98975 0.73945 0.74611 0.0
C1006 C 0.03668 0.74463 0.74101 0.0
C1007 C 0.06545 0.73787 0.76217 0.0
C1008 C 0.05163 0.7346 0.71725 0.0
C1009 C 0.03452 0.76837 0.7389 0.0
C1010 C 0.99276 0.77532 0.74225 0.0
C1011 C 0.98226 0.7965 0.74104 0.0
C1012 C 0.01532 0.81103 0.73704 0.0
C1013 C 0.05873 0.80449 0.73436 0.0
C1014 C 0.06826 0.78276 0.7349 0.0
H1015 H 0.6665 0.97091 0.73109 0.0
H1016 H 0.73603 0.93337 0.78359 0.0
H1017 H 0.78317 0.96301 0.79252 0.0
H1018 H 0.75965 0.99737 0.70816 0.0
H1019 H 0.73388 0.02247 0.7042 0.0
H1020 H 0.70254 0.99873 0.70263 0.0
H1021 H 0.65209 0.01279 0.73606 0.0
H1022 H 0.68334 0.03659 0.73772 0.0
H1023 H 0.67467 0.02107 0.76443 0.0
H1024 H 0.82663 0.99526 0.79455 0.0
H1025 H 0.86343 0.02934 0.78931 0.0
H1026 H 0.76752 0.04739 0.73636 0.0
C1027 C 0.69131 0.9691 0.74462 0.0
C1028 C 0.69753 0.94964 0.75644 0.0
C1029 C 0.73072 0.94792 0.77395 0.0
C1030 C 0.75774 0.96476 0.77935 0.0
C1031 C 0.75157 0.98351 0.76719 0.0
C1032 C 0.71927 0.98595 0.75022 0.0
C1033 C 0.72158 0.00778 0.7392 0.0
C1034 C 0.72991 0.0065 0.71193 0.0
C1035 C 0.68047 0.0203 0.74469 0.0
C1036 C 0.76027 0.01686 0.75249 0.0
C1037 C 0.77688 0.00254 0.7686 0.0
C1038 C 0.81371 0.00677 0.78218 0.0
C1039 C 0.83446 0.02615 0.7791 0.0
C1040 C 0.81824 0.04111 0.76267 0.0
C1041 C 0.78036 0.03641 0.74939 0.0
H1042 H 0.73762 0.80083 0.02005 0.0
H1043 H 0.614 0.7724 0.00427 0.0
H1044 H 0.65086 0.73988 0.99148 0.0
H1045 H 0.79591 0.77996 0.97207 0.0
H1046 H 0.84477 0.77476 0.98851 0.0
H1047 H 0.80936 0.79551 -0.00186 0.0
H1048 H 0.80312 0.77902 0.04066 0.0
H1049 H 0.83994 0.75873 0.03147 0.0
H1050 H 0.788 0.75183 0.04356 0.0
H1051 H 0.70085 0.71266 0.97558 0.0
H1052 H 0.75954 0.68745 0.96881 0.0
H1053 H 0.85163 0.73203 -0.00241 0.0
C1054 C 0.71832 0.78746 0.01471 0.0
C1055 C 0.67294 0.78898 0.01331 0.0
C1056 C 0.64867 0.77137 0.00593 0.0
C1057 C 0.6694 0.753 -0.00178 0.0
C1058 C 0.7143 0.75244 -0.00149 0.0
C1059 C 0.73847 0.76883 0.00747 0.0
C1060 C 0.78627 0.76384 0.00655 0.0
C1061 C 0.81048 0.77945 0.99035 0.0
C1062 C 0.80546 0.76331 0.03208 0.0
C1063 C 0.78523 0.74214 0.99532 0.0
C1064 C 0.74332 0.73618 0.99034 0.0
C1065 C 0.7337 0.71701 0.97971 0.0
C1066 C 0.76737 0.70292 0.97565 0.0
C1067 C 0.8101 0.70783 0.98258 0.0
C1068 C 0.81947 0.72804 0.99163 0.0
H1069 H 0.28135 0.55292 0.75419 0.0
H1070 H 0.40659 0.52421 0.76483 0.0
H1071 H 0.37192 0.48915 0.76547 0.0
H1072 H 0.21927 0.51669 0.79152 0.0
H1073 H 0.17369 0.51709 0.77144 0.0
H1074 H 0.20816 0.53974 0.77377 0.0
H1075 H 0.22046 0.53872 0.72764 0.0
H1076 H 0.18656 0.5159 0.72519 0.0
H1077 H 0.24092 0.51511 0.7139 0.0
H1078 H 0.32385 0.45733 0.76262 0.0
H1079 H 0.26649 0.43098 0.7587 0.0
H1080 H 0.17212 0.48048 0.74893 0.0
C1081 C 0.30159 0.53932 0.75709 0.0
C1082 C 0.34683 0.54134 0.75963 0.0
C1083 C 0.37195 0.52308 0.76308 0.0
C1084 C 0.3525 0.50312 0.76334 0.0
C1085 C 0.30796 0.50173 0.7601 0.0
C1086 C 0.2828 0.51938 0.75724 0.0
C1087 C 0.23586 0.51365 0.75328 0.0
C1088 C 0.20758 0.5223 0.77373 0.0
C1089 C 0.22004 0.5213 0.72853 0.0
C1090 C 0.2384 0.48992 0.75417 0.0
C1091 C 0.28032 0.48342 0.75818 0.0
C1092 C 0.29097 0.46228 0.75961 0.0
C1093 C 0.258 0.44741 0.7573 0.0
C1094 C 0.21462 0.45361 0.7535 0.0
C1095 C 0.20488 0.47522 0.75169 0.0
H1096 H 0.98084 0.54737 0.49346 0.0
H1097 H 0.86355 0.51386 0.51156 0.0
H1098 H 0.90472 0.48079 0.51385 0.0
H1099 H 0.02587 0.50625 0.45556 0.0
H1100 H 0.08052 0.51106 0.46494 0.0
H1101 H 0.042 0.53218 0.46491 0.0
H1102 H 0.05847 0.53919 0.50991 0.0
H1103 H 0.0966 0.51789 0.51018 0.0
H1104 H 0.05274 0.51819 0.53143 0.0
H1105 H 0.95781 0.45211 0.51623 0.0
H1106 H 0.0179 0.42752 0.51267 0.0
H1107 H 0.10252 0.47834 0.49076 0.0
C1108 C 0.96379 0.53303 0.49774 0.0
C1109 C 0.91889 0.53318 0.50242 0.0
C1110 C 0.89775 0.51411 0.50783 0.0
C1111 C 0.92096 0.49529 0.50934 0.0
C1112 C 0.96523 0.49576 0.50515 0.0
C1113 C 0.98643 0.514 0.49901 0.0
C1114 C 0.03406 0.50984 0.49457 0.0
C1115 C 0.04633 0.51514 0.46844 0.0
C1116 C 0.06212 0.52201 0.5126 0.0
C1117 C 0.03627 0.48635 0.49921 0.0
C1118 C 0.99611 0.47879 0.50563 0.0
C1119 C 0.98927 0.4578 0.511 0.0
C1120 C 0.02385 0.44395 0.50893 0.0
C1121 C 0.06505 0.4509 0.50124 0.0
C1122 C 0.07161 0.47256 0.49683 0.0
H1123 H 0.2695 0.69197 0.48189 0.0
H1124 H 0.39299 0.72146 0.49558 0.0
H1125 H 0.35614 0.75539 0.50227 0.0
H1126 H 0.22129 0.73671 0.45024 0.0
H1127 H 0.16863 0.73187 0.46268 0.0
H1128 H 0.2053 0.71037 0.45802 0.0
H1129 H 0.19722 0.70017 0.50296 0.0
H1130 H 0.16149 0.72201 0.50792 0.0
H1131 H 0.20944 0.71926 0.52593 0.0
H1132 H 0.30576 0.78534 0.51005 0.0
H1133 H 0.24685 0.81116 0.51127 0.0
H1134 H 0.15525 0.76267 0.49191 0.0
C1135 C 0.28892 0.70566 0.48583 0.0
C1136 C 0.33425 0.70408 0.48814 0.0
C1137 C 0.35839 0.72232 0.49343 0.0
C1138 C 0.33764 0.7416 0.49755 0.0
C1139 C 0.29279 0.74238 0.49611 0.0
C1140 C 0.26876 0.72502 0.48981 0.0
C1141 C 0.22101 0.7302 0.48904 0.0
C1142 C 0.203 0.72711 0.46347 0.0
C1143 C 0.19582 0.71713 0.50757 0.0
C1144 C 0.22182 0.75321 0.49603 0.0
C1145 C 0.26362 0.75978 0.5003 0.0
C1146 C 0.273 0.78038 0.50666 0.0
C1147 C 0.23922 0.79489 0.50751 0.0
C1148 C 0.19641 0.78888 0.50198 0.0
C1149 C 0.18741 0.7676 0.49684 0.0
H1150 H 0.77224 0.54391 0.24278 0.0
H1151 H 0.89664 0.5137 0.23525 0.0
H1152 H 0.86025 0.4795 0.22955 0.0
H1153 H 0.7228 0.50198 0.27689 0.0
H1154 H 0.67067 0.5054 0.26321 0.0
H1155 H 0.7066 0.52744 0.26603 0.0
H1156 H 0.70098 0.53386 0.22006 0.0
H1157 H 0.66557 0.51161 0.21704 0.0
H1158 H 0.7143 0.51296 0.19948 0.0
H1159 H 0.81094 0.44919 0.22342 0.0
H1160 H 0.75278 0.42312 0.2235 0.0
H1161 H 0.65912 0.47229 0.23697 0.0
C1162 C 0.79182 0.53006 0.24001 0.0
C1163 C 0.83732 0.53141 0.23933 0.0
C1164 C 0.86184 0.51297 0.23593 0.0
C1165 C 0.84141 0.49355 0.23247 0.0
C1166 C 0.7965 0.49285 0.23275 0.0
C1167 C 0.77196 0.51052 0.2369 0.0
C1168 C 0.72427 0.50522 0.23756 0.0
C1169 C 0.70496 0.51031 0.2624 0.0
C1170 C 0.69985 0.51659 0.21733 0.0
C1171 C 0.72577 0.48174 0.23312 0.0
C1172 C 0.76783 0.4751 0.23003 0.0
C1173 C 0.77795 0.45418 0.22594 0.0
C1174 C 0.74454 0.4395 0.22596 0.0
C1175 C 0.70133 0.44564 0.23029 0.0
C1176 C 0.69168 0.46716 0.2333 0.0
H1177 H 0.6546 0.26384 0.49413 0.0
H1178 H 0.7521 0.31205 0.50336 0.0
H1179 H 0.80882 0.2855 0.50061 0.0
H1180 H 0.71251 0.22368 0.52985 0.0
H1181 H 0.69568 0.20239 0.51066 0.0
H1182 H 0.66192 0.22518 0.51405 0.0
H1183 H 0.66178 0.23007 0.46773 0.0
H1184 H 0.69621 0.20753 0.46426 0.0
H1185 H 0.71225 0.23251 0.45195 0.0
H1186 H 0.85612 0.2546 0.49369 0.0
H1187 H 0.89057 0.21978 0.48976 0.0
H1188 H 0.76437 0.19066 0.48713 0.0
C1189 C 0.68781 0.26869 0.49606 0.0
C1190 C 0.69863 0.29015 0.49879 0.0
C1191 C 0.74268 0.2958 0.50106 0.0
C1192 C 0.7754 0.28083 0.49944 0.0
C1193 C 0.76396 0.26001 0.49583 0.0
C1194 C 0.72133 0.25376 0.49472 0.0
C1195 C 0.71849 0.23014 0.4912 0.0
C1196 C 0.69581 0.21974 0.51273 0.0
C1197 C 0.69583 0.22476 0.46737 0.0
C1198 C 0.76599 0.22434 0.49031 0.0
C1199 C 0.79159 0.24189 0.49272 0.0
C1200 C 0.83645 0.24066 0.492 0.0
C1201 C 0.85578 0.22085 0.48954 0.0
C1202 C 0.8303 0.20251 0.48812 0.0
C1203 C 0.78478 0.2044 0.48816 0.0
H1204 H 0.46926 0.2146 0.73596 0.0
H1205 H 0.36081 0.23999 0.77572 0.0
H1206 H 0.40216 0.27262 0.78302 0.0
H1207 H 0.55324 0.23665 0.77353 0.0
H1208 H 0.58876 0.24186 0.74856 0.0
H1209 H 0.55113 0.22039 0.74699 0.0
H1210 H 0.51969 0.23555 0.70745 0.0
H1211 H 0.55718 0.25707 0.70888 0.0
H1212 H 0.50024 0.2622 0.70694 0.0
H1213 H 0.45415 0.30261 0.78483 0.0
H1214 H 0.51276 0.32826 0.78153 0.0
H1215 H 0.58884 0.28348 0.74074 0.0
C1216 C 0.45414 0.22697 0.74631 0.0
C1217 C 0.41166 0.22474 0.7553 0.0
C1218 C 0.39321 0.24133 0.76869 0.0
C1219 C 0.4165 0.2599 0.77292 0.0
C1220 C 0.4582 0.26156 0.7637 0.0
C1221 C 0.47692 0.24554 0.75071 0.0
C1222 C 0.52198 0.25143 0.74245 0.0
C1223 C 0.55577 0.23671 0.75355 0.0
C1224 C 0.52492 0.25157 0.71479 0.0
C1225 C 0.52569 0.27343 0.75266 0.0
C1226 C 0.48846 0.27887 0.76486 0.0
C1227 C 0.48344 0.29848 0.77541 0.0
C1228 C 0.51707 0.31297 0.77334 0.0
C1229 C 0.55559 0.30794 0.76085 0.0
C1230 C 0.56002 0.28776 0.75053 0.0
H1231 H 0.49587 0.05594 0.49714 0.0
H1232 H 0.38026 0.02372 0.5206 0.0
H1233 H 0.42375 0.99272 0.53157 0.0
H1234 H 0.54338 0.01016 0.46938 0.0
H1235 H 0.59776 0.01723 0.47728 0.0
H1236 H 0.5579 0.03737 0.47297 0.0
H1237 H 0.57451 0.0517 0.51564 0.0
H1238 H 0.61374 0.03126 0.52026 0.0
H1239 H 0.57003 0.03448 0.54128 0.0
H1240 H 0.47874 0.96568 0.54059 0.0
H1241 H 0.53922 0.94082 0.53894 0.0
H1242 H 0.62008 0.98872 0.5069 0.0
C1243 C 0.47983 0.0423 0.50455 0.0
C1244 C 0.43468 0.04222 0.50815 0.0
C1245 C 0.4147 0.02406 0.51758 0.0
C1246 C 0.43923 0.00648 0.52413 0.0
C1247 C 0.4837 0.00717 0.5208 0.0
C1248 C 0.50379 0.02434 0.51062 0.0
C1249 C 0.55155 0.0201 0.50693 0.0
C1250 C 0.56333 0.02128 0.48004 0.0
C1251 C 0.57908 0.0353 0.52192 0.0
C1252 C 0.55505 0.9978 0.51648 0.0
C1253 C 0.51557 0.99097 0.52496 0.0
C1254 C 0.50978 0.97084 0.53404 0.0
C1255 C 0.54448 0.95688 0.53321 0.0
C1256 C 0.58449 0.96291 0.52313 0.0
C1257 C 0.59032 0.98388 0.51539 0.0
H1258 H 0.50808 0.81192 0.24765 0.0
H1259 H 0.63475 0.78321 0.24718 0.0
H1260 H 0.60122 0.74841 0.25353 0.0
H1261 H 0.46252 0.78037 0.29379 0.0
H1262 H 0.41004 0.77857 0.2801 0.0
H1263 H 0.44346 0.80116 0.27452 0.0
H1264 H 0.43841 0.79489 0.22849 0.0
H1265 H 0.40413 0.7726 0.23391 0.0
H1266 H 0.45258 0.76956 0.21639 0.0
H1267 H 0.55422 0.71712 0.26135 0.0
H1268 H 0.49679 0.69061 0.2648 0.0
H1269 H 0.40012 0.73952 0.26062 0.0
C1270 C 0.52882 0.79828 0.24852 0.0
C1271 C 0.57415 0.80028 0.24685 0.0
C1272 C 0.60002 0.78205 0.24819 0.0
C1273 C 0.58125 0.76226 0.25203 0.0
C1274 C 0.53659 0.76099 0.25443 0.0
C1275 C 0.51063 0.77845 0.25232 0.0
C1276 C 0.46345 0.77277 0.25526 0.0
C1277 C 0.44372 0.78389 0.27722 0.0
C1278 C 0.43816 0.77775 0.23214 0.0
C1279 C 0.46681 0.74931 0.25942 0.0
C1280 C 0.50939 0.74292 0.25903 0.0
C1281 C 0.52084 0.72196 0.26171 0.0
C1282 C 0.48797 0.70704 0.26383 0.0
C1283 C 0.44407 0.71305 0.26331 0.0
C1284 C 0.43338 0.73455 0.26172 0.0
H1285 H 0.51595 0.46632 -0.00063 0.0
H1286 H 0.63459 0.4935 0.02644 0.0
H1287 H 0.60009 0.52845 0.02705 0.0
H1288 H 0.48805 0.50725 0.96022 0.0
H1289 H 0.43098 0.50615 0.96589 0.0
H1290 H 0.46336 0.48292 0.96938 0.0
H1291 H 0.43689 0.47866 0.01334 0.0
H1292 H 0.40378 0.50167 0.00988 0.0
H1293 H 0.44235 0.50026 0.03408 0.0
H1294 H 0.55559 0.56051 0.02096 0.0
H1295 H 0.50132 0.58768 0.01358 0.0
H1296 H 0.40959 0.53997 0.9914 0.0
C1297 C 0.53445 0.47955 0.00589 0.0
C1298 C 0.57803 0.47719 0.01291 0.0
C1299 C 0.60116 0.4949 0.02117 0.0
C1300 C 0.58188 0.51482 0.02143 0.0
C1301 C 0.53937 0.51668 0.01361 0.0
C1302 C 0.51562 0.4995 0.00641 0.0
C1303 C 0.47069 0.5059 -0.00152 0.0
C1304 C 0.46283 0.50022 0.97192 0.0
C1305 C 0.4364 0.49604 0.01493 0.0
C1306 C 0.47311 0.52947 0.00194 0.0
C1307 C 0.51317 0.53527 0.01057 0.0
C1308 C 0.52397 0.55613 0.01451 0.0
C1309 C 0.49279 0.57148 0.0101 0.0
C1310 C 0.45094 0.56601 0.00196 0.0
C1311 C 0.44118 0.54467 -0.00239 0.0
H1312 H 0.14235 0.4058 0.40588 0.0
H1313 H 0.09601 0.35059 0.44362 0.0
H1314 H 0.0822 0.33326 0.40441 0.0
H1315 H 0.06791 0.40379 0.35528 0.0
H1316 H 0.10795 0.41211 0.3338 0.0
H1317 H 0.11129 0.42071 0.36468 0.0
H1318 H 0.18865 0.40571 0.3679 0.0
H1319 H 0.18576 0.39737 0.337 0.0
H1320 H 0.19821 0.37861 0.36028 0.0
H1321 H 0.07747 0.32152 0.36173 0.0
H1322 H 0.08867 0.31447 0.31853 0.0
H1323 H 0.13751 0.37754 0.30842 0.0
C1324 C 0.12895 0.39011 0.40593 0.0
C1325 C 0.11988 0.37951 0.4277 0.0
C1326 C 0.10307 0.35892 0.42708 0.0
C1327 C 0.09482 0.34908 0.40494 0.0
C1328 C 0.10361 0.36012 0.38379 0.0
C1329 C 0.12071 0.3801 0.3841 0.0
C1330 C 0.13027 0.38799 0.35893 0.0
C1331 C 0.1027 0.40729 0.35282 0.0
C1332 C 0.17858 0.39268 0.35585 0.0
C1333 C 0.11665 0.36913 0.34429 0.0
C1334 C 0.1008 0.35336 0.35902 0.0
C1335 C 0.0892 0.33382 0.35001 0.0
C1336 C 0.09556 0.33 0.32549 0.0
C1337 C 0.11321 0.34564 0.31032 0.0
C1338 C 0.12268 0.36564 0.31961 0.0
H1339 H 0.12034 0.90753 0.32343 0.0
H1340 H 0.11976 0.84959 0.28232 0.0
H1341 H 0.1229 0.82934 0.32045 0.0
H1342 H 0.19437 0.89064 0.36934 0.0
H1343 H 0.167 0.90464 0.39303 0.0
H1344 H 0.16508 0.91434 0.36257 0.0
H1345 H 0.08169 0.91401 0.36401 0.0
H1346 H 0.08332 0.90427 0.39444 0.0
H1347 H 0.05399 0.89006 0.37167 0.0
H1348 H 0.12329 0.8158 0.36295 0.0
H1349 H 0.124 0.80946 0.40669 0.0
H1350 H 0.12642 0.8766 0.41984 0.0
C1351 C 0.12096 0.89056 0.32237 0.0
C1352 C 0.11973 0.88004 0.29998 0.0
C1353 C 0.12078 0.85788 0.29934 0.0
C1354 C 0.12248 0.84631 0.32086 0.0
C1355 C 0.12342 0.85725 0.34265 0.0
C1356 C 0.12294 0.87888 0.34353 0.0
C1357 C 0.12418 0.88692 0.36919 0.0
C1358 C 0.1651 0.8999 0.37379 0.0
C1359 C 0.08336 0.89956 0.37517 0.0
C1360 C 0.12524 0.86639 0.38276 0.0
C1361 C 0.12457 0.84948 0.3671 0.0
C1362 C 0.12411 0.8289 0.37535 0.0
C1363 C 0.1244 0.8255 0.40024 0.0
C1364 C 0.12545 0.84258 0.4166 0.0
C1365 C 0.12601 0.86328 0.40772 0.0
H1366 H 0.13196 0.84419 0.82115 0.0
H1367 H 0.1863 0.8981 0.78443 0.0
H1368 H 0.20681 0.91344 0.8237 0.0
H1369 H 0.08356 0.87365 0.86769 0.0
H1370 H 0.09213 0.85417 0.89075 0.0
H1371 H 0.08697 0.84626 0.85978 0.0
H1372 H 0.1606 0.82728 0.86247 0.0
H1373 H 0.16622 0.83541 0.89342 0.0
H1374 H 0.20757 0.84175 0.87184 0.0
H1375 H 0.21986 0.92311 0.86624 0.0
H1376 H 0.2132 0.93022 0.90954 0.0
H1377 H 0.14469 0.87143 0.91929 0.0
C1378 C 0.14864 0.85912 0.82145 0.0
C1379 C 0.15819 0.86992 0.79991 0.0
C1380 C 0.17896 0.88962 0.80081 0.0
C1381 C 0.19106 0.89831 0.82298 0.0
C1382 C 0.18147 0.88719 0.84394 0.0
C1383 C 0.15992 0.86825 0.84344 0.0
C1384 C 0.14901 0.86075 0.86863 0.0
C1385 C 0.10002 0.8586 0.8719 0.0
C1386 C 0.17225 0.84007 0.87442 0.0
C1387 C 0.16699 0.8787 0.88339 0.0
C1388 C 0.18666 0.89343 0.86874 0.0
C1389 C 0.20454 0.91173 0.8779 0.0
C1390 C 0.20055 0.9156 0.90255 0.0
C1391 C 0.17804 0.90144 0.91771 0.0
C1392 C 0.16231 0.88242 0.90815 0.0
H1393 H 0.12798 0.41095 0.83541 0.0
H1394 H 0.09768 0.35388 0.79631 0.0
H1395 H 0.08176 0.33596 0.83489 0.0
H1396 H 0.18329 0.38562 0.88342 0.0
H1397 H 0.16473 0.40362 0.90621 0.0
H1398 H 0.17035 0.41233 0.87553 0.0
H1399 H 0.09059 0.42424 0.87534 0.0
H1400 H 0.08466 0.41549 0.90603 0.0
H1401 H 0.04902 0.40567 0.88302 0.0
H1402 H 0.06858 0.32469 0.87719 0.0
H1403 H 0.06679 0.31892 0.92092 0.0
H1404 H 0.11138 0.38268 0.93293 0.0
C1405 C 0.11761 0.39472 0.83499 0.0
C1406 C 0.11351 0.38375 0.81303 0.0
C1407 C 0.10082 0.36247 0.81305 0.0
C1408 C 0.09154 0.35226 0.8348 0.0
C1409 C 0.09584 0.36355 0.85619 0.0
C1410 C 0.10916 0.38421 0.8565 0.0
C1411 C 0.11409 0.39235 0.88199 0.0
C1412 C 0.1609 0.39885 0.88708 0.0
C1413 C 0.08271 0.41051 0.88687 0.0
C1414 C 0.10169 0.37295 0.89605 0.0
C1415 C 0.09051 0.35669 0.88075 0.0
C1416 C 0.07741 0.33725 0.88935 0.0
C1417 C 0.07642 0.33419 0.91425 0.0
C1418 C 0.08919 0.35037 0.93028 0.0
C1419 C 0.10166 0.37005 0.92105 0.0
H1420 H 0.8484 0.66752 0.66191 0.0
H1421 H 0.94063 0.62456 0.69371 0.0
H1422 H 0.95834 0.61089 0.65335 0.0
H1423 H 0.80673 0.63137 0.62079 0.0
H1424 H 0.79807 0.65003 0.59687 0.0
H1425 H 0.79744 0.65864 0.6277 0.0
H1426 H 0.8567 0.68598 0.6179 0.0
H1427 H 0.85786 0.67722 0.58702 0.0
H1428 H 0.90662 0.6774 0.60461 0.0
H1429 H 0.96156 0.59972 0.61119 0.0
H1430 H 0.94386 0.58847 0.56988 0.0
H1431 H 0.84834 0.63774 0.56457 0.0
C1432 C 0.87282 0.65548 0.66023 0.0
C1433 C 0.8935 0.64716 0.68074 0.0
C1434 C 0.9245 0.63109 0.67812 0.0
C1435 C 0.9351 0.62342 0.65529 0.0
C1436 C 0.91419 0.63192 0.63536 0.0
C1437 C 0.88328 0.64739 0.63756 0.0
C1438 C 0.86193 0.65193 0.61357 0.0
C1439 C 0.81317 0.64773 0.61482 0.0
C1440 C 0.87136 0.67448 0.60529 0.0
C1441 C 0.88467 0.63607 0.59773 0.0
C1442 C 0.91546 0.62511 0.61064 0.0
C1443 C 0.93821 0.60842 0.60073 0.0
C1444 C 0.92806 0.60218 0.57732 0.0
C1445 C 0.89554 0.61261 0.56418 0.0
C1446 C 0.87438 0.63011 0.57413 0.0
H1447 H 0.88049 0.13253 0.68051 0.0
H1448 H 0.87862 0.06475 0.67244 0.0
H1449 H 0.87517 0.06858 0.62844 0.0
H1450 H 0.80886 0.14471 0.63156 0.0
H1451 H 0.83851 0.16746 0.62172 0.0
H1452 H 0.84008 0.15966 0.6529 0.0
H1453 H 0.92336 0.15798 0.65119 0.0
H1454 H 0.92204 0.16584 0.62002 0.0
H1455 H 0.94906 0.14196 0.62862 0.0
H1456 H 0.86844 0.07923 0.58598 0.0
H1457 H 0.86557 0.09641 0.5463 0.0
H1458 H 0.87713 0.15734 0.58071 0.0
C1459 C 0.87926 0.11857 0.6694 0.0
C1460 C 0.87959 0.09837 0.67978 0.0
C1461 C 0.87851 0.08039 0.6648 0.0
C1462 C 0.87639 0.08237 0.6398 0.0
C1463 C 0.87601 0.10244 0.63005 0.0
C1464 C 0.87799 0.12025 0.64424 0.0
C1465 C 0.87859 0.13989 0.62885 0.0
C1466 C 0.83916 0.15375 0.63407 0.0
C1467 C 0.92078 0.15213 0.63238 0.0
C1468 C 0.87613 0.13024 0.60393 0.0
C1469 C 0.87424 0.10862 0.60515 0.0
C1470 C 0.87033 0.09615 0.58469 0.0
C1471 C 0.86861 0.10605 0.56225 0.0
C1472 C 0.87151 0.12814 0.56049 0.0
C1473 C 0.87532 0.14038 0.5816 0.0
H1474 H 0.90226 0.15205 0.15986 0.0
H1475 H 0.88603 0.09014 0.19124 0.0
H1476 H 0.86702 0.076 0.15129 0.0
H1477 H 0.81676 0.14887 0.11611 0.0
H1478 H 0.84639 0.16233 0.09287 0.0
H1479 H 0.85708 0.16799 0.1241 0.0
H1480 H 0.93771 0.15914 0.11782 0.0
H1481 H 0.92735 0.15362 0.08655 0.0
H1482 H 0.95247 0.13405 0.1053 0.0
H1483 H 0.84804 0.06882 0.10891 0.0
H1484 H 0.83858 0.06752 0.06509 0.0
H1485 H 0.87175 0.13362 0.05993 0.0
C1486 C 0.89463 0.13552 0.15828 0.0
C1487 C 0.89511 0.12218 0.17861 0.0
C1488 C 0.88562 0.10062 0.1759 0.0
C1489 C 0.87461 0.09247 0.15332 0.0
C1490 C 0.87393 0.10608 0.1337 0.0
C1491 C 0.88433 0.12706 0.13581 0.0
C1492 C 0.88323 0.13799 0.11155 0.0
C1493 C 0.84881 0.15532 0.11115 0.0
C1494 C 0.92785 0.14671 0.10492 0.0
C1495 C 0.87074 0.1198 0.09546 0.0
C1496 C 0.86488 0.10168 0.10878 0.0
C1497 C 0.85277 0.08284 0.09823 0.0
C1498 C 0.84739 0.08233 0.07329 0.0
C1499 C 0.85474 0.10047 0.05908 0.0
C1500 C 0.8661 0.11953 0.07035 0.0
H1501 H 0.88435 0.61617 0.06101 0.0
H1502 H 0.84336 0.68029 0.07388 0.0
H1503 H 0.84203 0.67366 0.11754 0.0
H1504 H 0.82301 0.59178 0.11026 0.0
H1505 H 0.86559 0.5737 0.11767 0.0
H1506 H 0.85949 0.58288 0.08716 0.0
H1507 H 0.93862 0.59581 0.08746 0.0
H1508 H 0.94478 0.5869 0.11805 0.0
H1509 H 0.95596 0.61386 0.11051 0.0
H1510 H 0.84798 0.66101 0.15944 0.0
H1511 H 0.85956 0.64231 0.19787 0.0
H1512 H 0.89977 0.58689 0.1583 0.0
C1513 C 0.87421 0.62858 0.07306 0.0
C1514 C 0.86366 0.64865 0.06427 0.0
C1515 C 0.85151 0.66477 0.08044 0.0
C1516 C 0.85062 0.66119 0.10521 0.0
C1517 C 0.86234 0.64145 0.11349 0.0
C1518 C 0.87381 0.62536 0.09801 0.0
C1519 C 0.88724 0.60601 0.11188 0.0
C1520 C 0.85702 0.5875 0.10642 0.0
C1521 C 0.93445 0.60032 0.10666 0.0
C1522 C 0.88157 0.61383 0.13744 0.0
C1523 C 0.867 0.63428 0.13792 0.0
C1524 C 0.85927 0.64495 0.15939 0.0
C1525 C 0.86602 0.63426 0.18108 0.0
C1526 C 0.88058 0.61325 0.18097 0.0
C1527 C 0.88883 0.60301 0.15888 0.0
H1528 H 0.64071 0.38564 0.93301 0.0
H1529 H 0.65327 0.45257 0.92052 0.0
H1530 H 0.66026 0.44614 0.87683 0.0
H1531 H 0.71839 0.36981 0.88681 0.0
H1532 H 0.68804 0.34676 0.87868 0.0
H1533 H 0.68573 0.3567 0.90904 0.0
H1534 H 0.60256 0.35899 0.90613 0.0
H1535 H 0.60463 0.34909 0.8758 0.0
H1536 H 0.57842 0.37375 0.88193 0.0
H1537 H 0.65933 0.43254 0.83424 0.0
H1538 H 0.65498 0.41235 0.79613 0.0
H1539 H 0.6478 0.3545 0.83714 0.0
C1540 C 0.64517 0.3989 0.92107 0.0
C1541 C 0.64623 0.41957 0.92999 0.0
C1542 C 0.65244 0.43657 0.91393 0.0
C1543 C 0.65644 0.4331 0.88913 0.0
C1544 C 0.65492 0.41251 0.88083 0.0
C1545 C 0.64999 0.39569 0.89634 0.0
C1546 C 0.64898 0.37513 0.88283 0.0
C1547 C 0.68759 0.36129 0.88975 0.0
C1548 C 0.60609 0.36357 0.88692 0.0
C1549 C 0.65287 0.38308 0.85728 0.0
C1550 C 0.65626 0.40467 0.85643 0.0
C1551 C 0.6574 0.41559 0.83465 0.0
C1552 C 0.65479 0.40407 0.81316 0.0
C1553 C 0.65149 0.38195 0.8138 0.0
C1554 C 0.65106 0.3714 0.83613 0.0
H1555 H 0.62429 0.8817 0.93514 0.0
H1556 H 0.62855 0.81384 0.92893 0.0
H1557 H 0.63527 0.81679 0.88491 0.0
H1558 H 0.55894 0.88955 0.88264 0.0
H1559 H 0.58542 0.91348 0.8737 0.0
H1560 H 0.58347 0.9062 0.90502 0.0
H1561 H 0.66667 0.90851 0.90748 0.0
H1562 H 0.66885 0.91582 0.87615 0.0
H1563 H 0.69896 0.89347 0.88674 0.0
H1564 H 0.64207 0.82678 0.84181 0.0
H1565 H 0.6441 0.84362 0.80165 0.0
H1566 H 0.63111 0.90471 0.83546 0.0
C1567 C 0.62705 0.86755 0.92445 0.0
C1568 C 0.62612 0.84759 0.9353 0.0
C1569 C 0.62907 0.82931 0.92085 0.0
C1570 C 0.63307 0.83079 0.89587 0.0
C1571 C 0.63356 0.85066 0.88561 0.0
C1572 C 0.63027 0.86872 0.89933 0.0
C1573 C 0.62947 0.88805 0.88354 0.0
C1574 C 0.58678 0.90002 0.8864 0.0
C1575 C 0.66831 0.9023 0.88879 0.0
C1576 C 0.63297 0.87796 0.85893 0.0
C1577 C 0.63572 0.85639 0.86054 0.0
C1578 C 0.6398 0.84367 0.84024 0.0
C1579 C 0.64098 0.85332 0.81757 0.0
C1580 C 0.63749 0.87535 0.81558 0.0
C1581 C 0.63345 0.88777 0.83651 0.0
H1582 H 0.63844 0.8755 0.43502 0.0
H1583 H 0.61727 0.94237 0.42612 0.0
H1584 H 0.60171 0.93703 0.3831 0.0
H1585 H 0.69379 0.86879 0.37941 0.0
H1586 H 0.67165 0.84322 0.3732 0.0
H1587 H 0.6776 0.85193 0.40386 0.0
H1588 H 0.59638 0.84524 0.41136 0.0
H1589 H 0.59018 0.83655 0.38066 0.0
H1590 H 0.55712 0.85756 0.39207 0.0
H1591 H 0.59015 0.92496 0.34122 0.0
H1592 H 0.58818 0.9069 0.30191 0.0
H1593 H 0.61995 0.84809 0.33719 0.0
C1594 C 0.62999 0.8889 0.424 0.0
C1595 C 0.62875 0.90929 0.43379 0.0
C1596 C 0.61843 0.9266 0.41887 0.0
C1597 C 0.6093 0.92374 0.39447 0.0
C1598 C 0.61103 0.90349 0.38524 0.0
C1599 C 0.62145 0.88637 0.39941 0.0
C1600 C 0.6239 0.86653 0.38448 0.0
C1601 C 0.66944 0.85707 0.38529 0.0
C1602 C 0.58986 0.85053 0.39263 0.0
C1603 C 0.61354 0.87529 0.35979 0.0
C1604 C 0.60569 0.89659 0.36072 0.0
C1605 C 0.59611 0.90826 0.34019 0.0
C1606 C 0.59506 0.89789 0.31798 0.0
C1607 C 0.60404 0.87617 0.31656 0.0
C1608 C 0.61294 0.86473 0.33777 0.0
H1609 H 0.60458 0.38375 0.42589 0.0
H1610 H 0.69618 0.33251 0.42483 0.0
H1611 H 0.70911 0.33834 0.38159 0.0
H1612 H 0.55623 0.37247 0.37239 0.0
H1613 H 0.54881 0.39898 0.36184 0.0
H1614 H 0.55198 0.39377 0.39364 0.0
H1615 H 0.61527 0.41995 0.39803 0.0
H1616 H 0.61157 0.42573 0.36631 0.0
H1617 H 0.66198 0.41717 0.37902 0.0
H1618 H 0.702 0.34492 0.33801 0.0
H1619 H 0.68471 0.35644 0.29658 0.0
H1620 H 0.60014 0.40444 0.32538 0.0
C1621 C 0.6288 0.37453 0.41669 0.0
C1622 C 0.64992 0.35792 0.42848 0.0
C1623 C 0.6802 0.34548 0.41592 0.0
C1624 C 0.68762 0.34861 0.39141 0.0
C1625 C 0.66468 0.36436 0.37983 0.0
C1626 C 0.6367 0.37751 0.39206 0.0
C1627 C 0.61397 0.3922 0.3748 0.0
C1628 C 0.56485 0.38916 0.37574 0.0
C1629 C 0.62646 0.41512 0.37984 0.0
C1630 C 0.63239 0.38465 0.35106 0.0
C1631 C 0.66146 0.36854 0.3544 0.0
C1632 C 0.68012 0.35788 0.33511 0.0
C1633 C 0.66977 0.36432 0.3117 0.0
C1634 C 0.64145 0.38135 0.30798 0.0
C1635 C 0.62236 0.39152 0.32788 0.0
H1636 H 0.36002 0.62997 0.18304 0.0
H1637 H 0.334 0.69663 0.17593 0.0
H1638 H 0.33017 0.69282 0.13187 0.0
H1639 H 0.42737 0.62521 0.13282 0.0
H1640 H 0.40766 0.59987 0.12353 0.0
H1641 H 0.40504 0.60739 0.15473 0.0
H1642 H 0.32282 0.60047 0.15504 0.0
H1643 H 0.32524 0.59277 0.12383 0.0
H1644 H 0.28904 0.61333 0.13314 0.0
H1645 H 0.33677 0.68264 0.0885 0.0
H1646 H 0.34751 0.66577 0.04872 0.0
H1647 H 0.36566 0.60573 0.08415 0.0
C1648 C 0.35289 0.64367 0.17221 0.0
C1649 C 0.34748 0.66357 0.18285 0.0
C1650 C 0.33827 0.68119 0.16813 0.0
C1651 C 0.33602 0.67922 0.14307 0.0
C1652 C 0.34245 0.65949 0.13305 0.0
C1653 C 0.35006 0.64195 0.14713 0.0
C1654 C 0.35696 0.62267 0.13174 0.0
C1655 C 0.40193 0.61324 0.13596 0.0
C1656 C 0.32139 0.60635 0.1362 0.0
C1657 C 0.3532 0.63226 0.1069 0.0
C1658 C 0.34485 0.6535 0.108 0.0
C1659 C 0.34263 0.66593 0.08734 0.0
C1660 C 0.34897 0.65629 0.06489 0.0
C1661 C 0.35704 0.63451 0.06347 0.0
C1662 C 0.3589 0.62239 0.08473 0.0
H1663 H 0.39583 0.12255 0.1789 0.0
H1664 H 0.44272 0.05972 0.16366 0.0
H1665 H 0.43536 0.06619 0.12029 0.0
H1666 H 0.31749 0.12444 0.13364 0.0
H1667 H 0.32636 0.15144 0.12535 0.0
H1668 H 0.33828 0.14277 0.15548 0.0
H1669 H 0.41665 0.15624 0.15131 0.0
H1670 H 0.40477 0.16526 0.12128 0.0
H1671 H 0.44906 0.14753 0.1263 0.0
H1672 H 0.41563 0.07769 0.0789 0.0
H1673 H 0.39351 0.09581 0.04143 0.0
H1674 H 0.36298 0.15154 0.08299 0.0
C1675 C 0.40535 0.11036 0.1664 0.0
C1676 C 0.41947 0.09061 0.17467 0.0
C1677 C 0.43148 0.07497 0.15777 0.0
C1678 C 0.42743 0.07844 0.13304 0.0
C1679 C 0.41192 0.09775 0.12543 0.0
C1680 C 0.40189 0.11363 0.1415 0.0
C1681 C 0.38534 0.1328 0.12837 0.0
C1682 C 0.33912 0.13817 0.13618 0.0
C1683 C 0.41578 0.15156 0.13203 0.0
C1684 C 0.38668 0.12494 0.10263 0.0
C1685 C 0.40194 0.10465 0.10132 0.0
C1686 C 0.40424 0.09373 0.07957 0.0
C1687 C 0.39136 0.10404 0.05845 0.0
C1688 C 0.37695 0.12505 0.05937 0.0
C1689 C 0.37434 0.13551 0.08176 0.0
H1690 H 0.36048 0.12752 0.68083 0.0
H1691 H 0.32946 0.19269 0.66604 0.0
H1692 H 0.33171 0.18559 0.62248 0.0
H1693 H 0.43312 0.11977 0.63208 0.0
H1694 H 0.41508 0.09353 0.62535 0.0
H1695 H 0.41069 0.10358 0.65556 0.0
H1696 H 0.32885 0.09562 0.65557 0.0
H1697 H 0.33308 0.0854 0.62541 0.0
H1698 H 0.29547 0.10617 0.63193 0.0
H1699 H 0.34204 0.17209 0.58048 0.0
H1700 H 0.35209 0.15179 0.54278 0.0
H1701 H 0.37156 0.09524 0.58491 0.0
C1702 C 0.35397 0.14022 0.66839 0.0
C1703 C 0.34503 0.16064 0.67676 0.0
C1704 C 0.33632 0.17688 0.66 0.0
C1705 C 0.33767 0.17306 0.63521 0.0
C1706 C 0.34712 0.15284 0.62747 0.0
C1707 C 0.35442 0.1366 0.64352 0.0
C1708 C 0.36294 0.11624 0.63039 0.0
C1709 C 0.40815 0.10779 0.63619 0.0
C1710 C 0.32799 0.0999 0.63617 0.0
C1711 C 0.35989 0.12368 0.60456 0.0
C1712 C 0.35114 0.14488 0.60323 0.0
C1713 C 0.34845 0.15542 0.58124 0.0
C1714 C 0.35438 0.14385 0.55998 0.0
C1715 C 0.36222 0.12203 0.56106 0.0
C1716 C 0.36507 0.1119 0.58362 0.0
H1717 H 0.39532 0.58462 0.66224 0.0
H1718 H 0.32587 0.63691 0.69387 0.0
H1719 H 0.30589 0.6492 0.65324 0.0
H1720 H 0.44023 0.61298 0.61452 0.0
H1721 H 0.43648 0.59207 0.59276 0.0
H1722 H 0.44098 0.586 0.62429 0.0
H1723 H 0.37098 0.56396 0.62179 0.0
H1724 H 0.36607 0.57016 0.59022 0.0
H1725 H 0.32237 0.57589 0.61054 0.0
H1726 H 0.2996 0.65778 0.61015 0.0
H1727 H 0.31128 0.66356 0.56673 0.0
H1728 H 0.38351 0.60556 0.56223 0.0
C1729 C 0.3754 0.59849 0.66058 0.0
C1730 C 0.36189 0.60979 0.68112 0.0
C1731 C 0.33647 0.62803 0.67832 0.0
C1732 C 0.32469 0.63502 0.65536 0.0
C1733 C 0.33851 0.62354 0.63546 0.0
C1734 C 0.36349 0.60573 0.63777 0.0
C1735 C 0.37726 0.59739 0.61339 0.0
C1736 C 0.42666 0.59711 0.61111 0.0
C1737 C 0.35801 0.57555 0.60872 0.0
C1738 C 0.35727 0.61372 0.59703 0.0
C1739 C 0.33448 0.62844 0.6102 0.0
C1740 C 0.31651 0.64615 0.59957 0.0
C1741 C 0.32323 0.64928 0.57496 0.0
C1742 C 0.34741 0.63474 0.56131 0.0
C1743 C 0.36364 0.61645 0.57225 0.0
H1744 H 0.29491 0.338 0.25003 0.0
H1745 H 0.25547 0.39572 0.28533 0.0
H1746 H 0.33054 0.40779 0.28591 0.0
H1747 H 0.3969 0.3325 0.28303 0.0
H1748 H 0.425 0.32226 0.25718 0.0
H1749 H 0.36807 0.31777 0.26047 0.0
H1750 H 0.35526 0.33425 0.2184 0.0
H1751 H 0.41206 0.33912 0.21516 0.0
H1752 H 0.37432 0.36046 0.21241 0.0
H1753 H 0.40978 0.41514 0.27977 0.0
H1754 H 0.48861 0.41452 0.27227 0.0
H1755 H 0.47655 0.35181 0.24264 0.0
C1756 C 0.30213 0.35297 0.25831 0.0
C1757 C 0.26896 0.36588 0.26746 0.0
C1758 C 0.28004 0.3855 0.27798 0.0
C1759 C 0.32271 0.3926 0.27838 0.0
C1760 C 0.35436 0.37988 0.26843 0.0
C1761 C 0.34479 0.3603 0.25901 0.0
C1762 C 0.38499 0.34975 0.24949 0.0
C1763 C 0.39429 0.32937 0.26338 0.0
C1764 C 0.38142 0.34566 0.22225 0.0
C1765 C 0.41835 0.36648 0.25489 0.0
C1766 C 0.40008 0.38386 0.26559 0.0
C1767 C 0.42458 0.40152 0.2716 0.0
C1768 C 0.46918 0.40114 0.26712 0.0
C1769 C 0.48865 0.38312 0.25704 0.0
C1770 C 0.46261 0.36576 0.25061 0.0
H1771 H 0.76653 0.85624 0.25168 0.0
H1772 H 0.74268 0.91397 0.29117 0.0
H1773 H 0.82006 0.92156 0.29147 0.0
H1774 H 0.86877 0.84348 0.28265 0.0
H1775 H 0.89318 0.83317 0.25568 0.0
H1776 H 0.83576 0.83146 0.25978 0.0
H1777 H 0.82434 0.85058 0.2191 0.0
H1778 H 0.88168 0.85259 0.21502 0.0
H1779 H 0.84884 0.87589 0.21434 0.0
H1780 H 0.899 0.92504 0.28416 0.0
H1781 H 0.97609 0.92173 0.27365 0.0
H1782 H 0.95031 0.86122 0.24078 0.0
C1783 C 0.77765 0.87024 0.26081 0.0
C1784 C 0.74818 0.88453 0.27123 0.0
C1785 C 0.76429 0.90279 0.28284 0.0
C1786 C 0.80834 0.9073 0.28314 0.0
C1787 C 0.83632 0.89333 0.27203 0.0
C1788 C 0.82185 0.87498 0.26145 0.0
C1789 C 0.85902 0.86287 0.25047 0.0
C1790 C 0.86451 0.84148 0.26289 0.0
C1791 C 0.8531 0.86034 0.22311 0.0
C1792 C 0.89625 0.87747 0.25624 0.0
C1793 C 0.88237 0.89501 0.26855 0.0
C1794 C 0.91044 0.91122 0.27481 0.0
C1795 C 0.95408 0.9093 0.26864 0.0
C1796 C 0.96926 0.89119 0.25658 0.0
C1797 C 0.93978 0.87514 0.2503 0.0
H1798 H 0.30329 0.90959 0.96039 0.0
H1799 H 0.26442 0.89455 0.03319 0.0
H1800 H 0.33893 0.88363 0.04276 0.0
H1801 H 0.36823 0.86761 0.95141 0.0
H1802 H 0.40989 0.88066 0.93449 0.0
H1803 H 0.35593 0.89088 0.93427 0.0
H1804 H 0.38274 0.92701 0.94947 0.0
H1805 H 0.43711 0.9172 0.94882 0.0
H1806 H 0.41571 0.92835 0.97615 0.0
H1807 H 0.41446 0.86841 0.04189 0.0
H1808 H 0.48933 0.85718 0.0333 0.0
H1809 H 0.47918 0.88343 0.96148 0.0
C1810 C 0.31121 0.9052 0.97872 0.0
C1811 C 0.2787 0.90361 0.99635 0.0
C1812 C 0.28941 0.89664 0.01978 0.0
C1813 C 0.33147 0.8901 0.02523 0.0
C1814 C 0.36241 0.89078 0.00705 0.0
C1815 C 0.35313 0.89882 0.98447 0.0
C1816 C 0.39144 0.89686 0.96774 0.0
C1817 C 0.3807 0.88319 0.94568 0.0
C1818 C 0.40772 0.91865 0.9601 0.0
C1819 C 0.42327 0.88597 0.98418 0.0
C1820 C 0.4059 0.88239 0.00671 0.0
C1821 C 0.42865 0.87149 0.02444 0.0
C1822 C 0.47088 0.86488 0.01931 0.0
C1823 C 0.48993 0.86941 -0.00325 0.0
C1824 C 0.46542 0.8798 0.97892 0.0
H1825 H 0.95364 0.3488 0.98739 0.0
H1826 H 1.00051 0.4029 0.02673 0.0
H1827 H 0.92625 0.41614 0.03087 0.0
H1828 H 0.87914 0.37591 0.95317 0.0
H1829 H 0.8381 0.35591 0.95314 0.0
H1830 H 0.89373 0.34868 0.95657 0.0
H1831 H 0.8763 0.32952 -0.00344 0.0
H1832 H 0.82038 0.33636 0.99304 0.0
H1833 H 0.84861 0.34342 0.02022 0.0
H1834 H 0.84834 0.4256 0.02675 0.0
H1835 H 0.77125 0.42947 0.01663 0.0
H1836 H 0.77532 0.3697 0.97902 0.0
C1837 C 0.94789 0.36297 -0.00233 0.0
C1838 C 0.9825 0.37469 0.00711 0.0
C1839 C 0.97417 0.39362 0.01964 0.0
C1840 C 0.93217 0.40128 0.02203 0.0
C1841 C 0.89878 0.38986 0.0117 0.0
C1842 C 0.90601 0.37099 -1e-05 0.0
C1843 C 0.86487 0.36275 0.98881 0.0
C1844 C 0.86925 0.3607 0.9613 0.0
C1845 C 0.85176 0.34177 0.00035 0.0
C1846 C 0.83385 0.38014 0.99559 0.0
C1847 C 0.85391 0.39554 0.00895 0.0
C1848 C 0.83208 0.41351 0.01653 0.0
C1849 C 0.78836 0.41564 0.01057 0.0
C1850 C 0.767 0.39994 -0.00297 0.0
C1851 C 0.79041 0.38202 0.98945 0.0
H1852 H 0.72517 0.61191 0.74889 0.0
H1853 H 0.73747 0.67244 0.71383 0.0
H1854 H 0.659 0.67274 0.70617 0.0
H1855 H 0.64269 0.59012 0.7114 0.0
H1856 H 0.61369 0.57769 0.73563 0.0
H1857 H 0.6709 0.5818 0.73813 0.0
H1858 H 0.65985 0.60217 0.77801 0.0
H1859 H 0.60268 0.59786 0.77582 0.0
H1860 H 0.62339 0.62417 0.77869 0.0
H1861 H 0.58118 0.66556 0.70013 0.0
H1862 H 0.50568 0.65491 0.70176 0.0
H1863 H 0.5405 0.59999 0.74398 0.0
C1864 C 0.71118 0.62526 0.73971 0.0
C1865 C 0.73731 0.64216 0.73181 0.0
C1866 C 0.71798 0.65945 0.72011 0.0
C1867 C 0.67355 0.65964 0.71553 0.0
C1868 C 0.64881 0.64261 0.72319 0.0
C1869 C 0.66663 0.62596 0.73553 0.0
C1870 C 0.63217 0.61022 0.74291 0.0
C1871 C 0.64037 0.58868 0.73132 0.0
C1872 C 0.62936 0.60851 0.77049 0.0
C1873 C 0.59219 0.62053 0.73249 0.0
C1874 C 0.60296 0.63902 0.7209 0.0
C1875 C 0.57229 0.65128 0.70943 0.0
C1876 C 0.52925 0.64498 0.71049 0.0
C1877 C 0.51655 0.62666 0.7233 0.0
C1878 C 0.54885 0.61404 0.73405 0.0
H1879 H 0.02152 0.14479 0.72348 0.0
H1880 H 0.01506 0.08867 0.76776 0.0
H1881 H 0.09277 0.09219 0.77664 0.0
H1882 H 0.12467 0.13464 0.69775 0.0
H1883 H 0.14074 0.16182 0.69771 0.0
H1884 H 0.08465 0.15503 0.69551 0.0
H1885 H 0.06846 0.17825 0.73273 0.0
H1886 H 0.12467 0.18487 0.73527 0.0
H1887 H 0.09675 0.17348 0.76055 0.0
H1888 H 0.17125 0.1014 0.7799 0.0
H1889 H 0.24596 0.11377 0.77475 0.0
H1890 H 0.20147 0.16429 0.72885 0.0
C1891 C 0.03626 0.13318 0.73508 0.0
C1892 C 0.0119 0.11641 0.74496 0.0
C1893 C 0.03285 0.10158 0.7599 0.0
C1894 C 0.07694 0.10356 0.76519 0.0
C1895 C 0.09965 0.12046 0.75543 0.0
C1896 C 0.08009 0.13491 0.74053 0.0
C1897 C 0.11199 0.15123 0.73165 0.0
C1898 C 0.11574 0.15063 0.70402 0.0
C1899 C 0.09972 0.17326 0.74059 0.0
C1900 C 0.15291 0.14357 0.74363 0.0
C1901 C 0.14487 0.1259 0.75745 0.0
C1902 C 0.17777 0.11532 0.76934 0.0
C1903 C 0.22004 0.12252 0.7664 0.0
C1904 C 0.22925 0.1402 0.75179 0.0
C1905 C 0.19512 0.15115 0.74069 0.0
H1906 H 0.52223 0.12727 0.03764 0.0
H1907 H 0.50005 0.15698 0.96857 0.0
H1908 H 0.57748 0.15345 0.9588 0.0
H1909 H 0.63114 0.15149 0.04767 0.0
H1910 H 0.65058 0.12819 0.06251 0.0
H1911 H 0.59454 0.13521 0.06458 0.0
H1912 H 0.5743 0.09843 0.04826 0.0
H1913 H 0.63023 0.09156 0.04526 0.0
H1914 H 0.59506 0.09004 0.0195 0.0
H1915 H 0.65475 0.14165 0.95431 0.0
H1916 H 0.73052 0.13025 0.95912 0.0
H1917 H 0.70352 0.11065 0.03227 0.0
C1918 C 0.53415 0.13381 0.02091 0.0
C1919 C 0.50557 0.1427 0.00397 0.0
C1920 C 0.52178 0.15063 0.98198 0.0
C1921 C 0.56553 0.14839 0.97617 0.0
C1922 C 0.59256 0.13859 0.99279 0.0
C1923 C 0.57783 0.13215 0.01509 0.0
C1924 C 0.61347 0.12207 0.0297 0.0
C1925 C 0.62301 0.13502 0.05246 0.0
C1926 C 0.60258 0.09917 0.03604 0.0
C1927 C 0.65026 0.12324 0.01187 0.0
C1928 C 0.63738 0.13255 0.99055 0.0
C1929 C 0.66531 0.1346 0.97102 0.0
C1930 C 0.708 0.1278 0.97376 0.0
C1931 C 0.72225 0.11926 0.99586 0.0
C1932 C 0.69297 0.11678 0.01505 0.0
H1933 H 0.21202 0.64852 0.97895 0.0
H1934 H 0.23493 0.59809 0.02978 0.0
H1935 H 0.15719 0.59738 0.03961 0.0
H1936 H 0.13433 0.67597 0.01162 0.0
H1937 H 0.10035 0.68255 0.98641 0.0
H1938 H 0.15711 0.6784 0.98188 0.0
H1939 H 0.14138 0.64975 0.94999 0.0
H1940 H 0.08456 0.65425 0.95388 0.0
H1941 H 0.10626 0.62822 0.95756 0.0
H1942 H 0.08016 0.60536 0.04767 0.0
H1943 H 1.00384 0.61502 0.04702 0.0
H1944 H 0.02787 0.65858 0.98832 0.0
C1945 C 0.20033 0.63693 0.99164 0.0
C1946 C 0.22921 0.62321 0.00354 0.0
C1947 C 0.21314 0.60842 0.02021 0.0
C1948 C 0.1692 0.60812 0.0261 0.0
C1949 C 0.14187 0.62245 0.01478 0.0
C1950 C 0.15644 0.6361 -0.0027 0.0
C1951 C 0.11996 0.64958 0.98757 0.0
C1952 C 0.12847 0.67301 0.99215 0.0
C1953 C 0.1126 0.64518 0.96065 0.0
C1954 C 0.08267 0.64168 0.00272 0.0
C1955 C 0.09646 0.62629 0.01852 0.0
C1956 C 0.0688 0.61703 0.03501 0.0
C1957 C 0.02543 0.62276 0.03453 0.0
C1958 C 0.00951 0.63737 0.01734 0.0
C1959 C 0.03891 0.64744 0.00169 0.0
H1960 H 0.48689 0.89666 0.73883 0.0
H1961 H 0.51041 0.83856 0.7778 0.0
H1962 H 0.43451 0.82924 0.77446 0.0
H1963 H 0.38231 0.90647 0.76728 0.0
H1964 H 0.35862 0.91729 0.74037 0.0
H1965 H 0.41569 0.9196 0.74539 0.0
H1966 H 0.42982 0.90185 0.70415 0.0
H1967 H 0.37276 0.89916 0.69924 0.0
H1968 H 0.40705 0.87637 0.69809 0.0
H1969 H 0.35662 0.82461 0.76556 0.0
H1970 H 0.27864 0.82847 0.75738 0.0
H1971 H 0.30276 0.88985 0.72633 0.0
C1972 C 0.47597 0.88213 0.74687 0.0
C1973 C 0.50536 0.86829 0.75819 0.0
C1974 C 0.48925 0.84942 0.76859 0.0
C1975 C 0.44592 0.84383 0.76679 0.0
C1976 C 0.41821 0.85732 0.75485 0.0
C1977 C 0.43216 0.8763 0.74553 0.0
C1978 C 0.39462 0.88817 0.73453 0.0
C1979 C 0.38738 0.90912 0.74768 0.0
C1980 C 0.40149 0.89159 0.70739 0.0
C1981 C 0.35794 0.87287 0.73921 0.0
C1982 C 0.37244 0.85501 0.7506 0.0
C1983 C 0.3447 0.83858 0.75671 0.0
C1984 C 0.30054 0.84077 0.7518 0.0
C1985 C 0.28461 0.85939 0.74124 0.0
C1986 C 0.31399 0.8754 0.73446 0.0
H1987 H 0.79291 0.37662 0.7867 0.0
H1988 H 0.77028 0.36111 0.71184 0.0
H1989 H 0.84683 0.36857 0.70258 0.0
H1990 H 0.86328 0.41839 0.77804 0.0
H1991 H 0.89915 0.4123 0.80258 0.0
H1992 H 0.84362 0.40428 0.80396 0.0
H1993 H 0.86604 0.36552 0.81023 0.0
H1994 H 0.92162 0.37353 0.80986 0.0
H1995 H 0.90312 0.3535 0.78941 0.0
H1996 H 0.92393 0.38168 0.70093 0.0
H1997 H 1.00021 0.39081 0.70845 0.0
H1998 H 0.97402 0.39552 0.78483 0.0
C1999 C 0.80463 0.37397 0.76857 0.0
C2000 C 0.77611 0.3678 0.75004 0.0
C2001 C 0.79201 0.36518 0.72637 0.0
C2002 C 0.83523 0.36974 0.72091 0.0
C2003 C 0.86215 0.37667 0.73942 0.0
C2004 C 0.84786 0.37803 0.76295 0.0
C2005 C 0.8835 0.38544 0.7796 0.0
C2006 C 0.87165 0.40634 0.79176 0.0
C2007 C 0.89422 0.36849 0.79838 0.0
C2008 C 0.91998 0.38835 0.76174 0.0
C2009 C 0.90673 0.38361 0.73859 0.0
C2010 C 0.93463 0.38533 0.719 0.0
C2011 C 0.9777 0.3909 0.72336 0.0
C2012 C 0.99256 0.39451 0.74709 0.0
C2013 C 0.96309 0.39357 0.76644 0.0
H2014 H 0.29411 0.3991 0.49938 0.0
H2015 H 0.26144 0.36668 0.43326 0.0
H2016 H 0.33681 0.35517 0.4288 0.0
H2017 H 0.40525 0.41562 0.47981 0.0
H2018 H 0.42667 0.41179 0.50966 0.0
H2019 H 0.37136 0.41957 0.50578 0.0
H2020 H 0.34775 0.38751 0.53122 0.0
H2021 H 0.40282 0.3792 0.53445 0.0
H2022 H 0.36349 0.36152 0.5219 0.0
H2023 H 0.41347 0.3429 0.43449 0.0
H2024 H 0.48996 0.33708 0.44566 0.0
H2025 H 0.47393 0.37826 0.50709 0.0
C2026 C 0.30337 0.39048 0.48339 0.0
C2027 C 0.27207 0.38409 0.46642 0.0
C2028 C 0.2851 0.37203 0.44623 0.0
C2029 C 0.32775 0.36521 0.44368 0.0
C2030 C 0.35736 0.37067 0.46141 0.0
C2031 C 0.34614 0.38356 0.4805 0.0
C2032 C 0.38408 0.38657 0.49738 0.0
C2033 C 0.39765 0.40976 0.49819 0.0
C2034 C 0.3739 0.3782 0.52274 0.0
C2035 C 0.41788 0.37313 0.485 0.0
C2036 C 0.40171 0.36387 0.46444 0.0
C2037 C 0.42663 0.35025 0.45044 0.0
C2038 C 0.46979 0.34674 0.45708 0.0
C2039 C 0.48751 0.35696 0.47737 0.0
C2040 C 0.46092 0.37004 0.49164 0.0
H2041 H 0.97542 0.85792 0.50807 0.0
H2042 H 0.98944 0.85324 0.43062 0.0
H2043 H 0.91582 0.8669 0.42523 0.0
H2044 H 0.85737 0.84349 0.50914 0.0
H2045 H 0.84658 0.86141 0.53352 0.0
H2046 H 0.89854 0.84904 0.53112 0.0
H2047 H 0.93411 0.88577 0.53186 0.0
H2048 H 0.8822 0.89829 0.53324 0.0
H2049 H 0.91925 0.90492 0.50944 0.0
H2050 H 0.84528 0.88506 0.42774 0.0
H2051 H 0.7733 0.89867 0.43809 0.0
H2052 H 0.8016 0.89095 0.51397 0.0
C2053 C 0.962 0.85873 0.49009 0.0
C2054 C 0.98765 0.85395 0.46972 0.0
C2055 C 0.96983 0.85621 0.44641 0.0
C2056 C 0.92831 0.8643 0.44317 0.0
C2057 C 0.90473 0.87 0.46347 0.0
C2058 C 0.92012 0.86666 0.48653 0.0
C2059 C 0.88776 0.87435 0.50514 0.0
C2060 C 0.87159 0.85598 0.52064 0.0
C2061 C 0.907 0.89187 0.52085 0.0
C2062 C 0.8523 0.88282 0.4889 0.0
C2063 C 0.8633 0.88039 0.46494 0.0
C2064 C 0.8362 0.88695 0.44643 0.0
C2065 C 0.79567 0.89502 0.45247 0.0
C2066 C 0.78239 0.89647 0.47679 0.0
C2067 C 0.81155 0.89079 0.49528 0.0
H2068 H 0.56955 0.09543 0.20087 0.0
H2069 H 0.54556 0.09154 0.27756 0.0
H2070 H 0.62056 0.10274 0.28565 0.0
H2071 H 0.68289 0.07586 0.20404 0.0
H2072 H 0.69943 0.09281 0.17976 0.0
H2073 H 0.64516 0.08294 0.18075 0.0
H2074 H 0.61715 0.12118 0.17833 0.0
H2075 H 0.67133 0.13121 0.17843 0.0
H2076 H 0.63347 0.13989 0.20092 0.0
H2077 H 0.69534 0.11902 0.285 0.0
H2078 H 0.77045 0.12952 0.27612 0.0
H2079 H 0.74715 0.1202 0.19997 0.0
C2080 C 0.5808 0.09602 0.21933 0.0
C2081 C 0.55227 0.09216 0.23863 0.0
C2082 C 0.56744 0.09379 0.26258 0.0
C2083 C 0.6097 0.10053 0.26731 0.0
C2084 C 0.63645 0.10524 0.24785 0.0
C2085 C 0.62312 0.10226 0.22433 0.0
C2086 C 0.65835 0.10806 0.20665 0.0
C2087 C 0.6723 0.08877 0.19194 0.0
C2088 C 0.6442 0.12616 0.19011 0.0
C2089 C 0.69339 0.11508 0.22384 0.0
C2090 C 0.67982 0.1138 0.24751 0.0
C2091 C 0.7064 0.11989 0.26654 0.0
C2092 C 0.74874 0.12623 0.26133 0.0
C2093 C 0.76419 0.12607 0.23736 0.0
C2094 C 0.73576 0.12092 0.21839 0.0
H2095 H 0.02594 0.63767 0.21472 0.0
H2096 H 0.01812 0.59613 0.27638 0.0
H2097 H 0.09318 0.60526 0.28735 0.0
H2098 H 0.1364 0.6243 0.19937 0.0
H2099 H 0.14891 0.6505 0.18933 0.0
H2100 H 0.09465 0.6408 0.18713 0.0
H2101 H 0.06829 0.67293 0.21169 0.0
H2102 H 0.12273 0.68235 0.2146 0.0
H2103 H 0.09062 0.67782 0.24113 0.0
H2104 H 0.16784 0.62054 0.29265 0.0
H2105 H 0.24179 0.63399 0.28681 0.0
H2106 H 0.20281 0.66343 0.22003 0.0
C2107 C 0.04031 0.63029 0.23035 0.0
C2108 C 0.01638 0.61617 0.24473 0.0
C2109 C 0.03614 0.60678 0.265 0.0
C2110 C 0.07849 0.61212 0.27152 0.0
C2111 C 0.10076 0.62662 0.25737 0.0
C2112 C 0.0828 0.63508 0.23679 0.0
C2113 C 0.11451 0.64919 0.22377 0.0
C2114 C 0.12421 0.64068 0.1984 0.0
C2115 C 0.09803 0.67192 0.22275 0.0
C2116 C 0.15328 0.64736 0.24021 0.0
C2117 C 0.14427 0.63471 0.25984 0.0
C2118 C 0.17516 0.63049 0.27739 0.0
C2119 C 0.21688 0.63847 0.27415 0.0
C2120 C 0.22749 0.65028 0.2534 0.0
C2121 C 0.19505 0.65512 0.23649 0.0
H2122 H 0.71411 0.63761 0.49995 0.0
H2123 H 0.72919 0.58032 0.54132 0.0
H2124 H 0.65062 0.57973 0.54886 0.0
H2125 H 0.6284 0.66111 0.53524 0.0
H2126 H 0.60029 0.67128 0.50936 0.0
H2127 H 0.65789 0.66804 0.50843 0.0
H2128 H 0.65089 0.64485 0.47031 0.0
H2129 H 0.59337 0.64818 0.47099 0.0
H2130 H 0.61621 0.62218 0.47098 0.0
H2131 H 0.57129 0.58551 0.55212 0.0
H2132 H 0.49498 0.59412 0.5468 0.0
H2133 H 0.52962 0.64674 0.50093 0.0
C2134 C 0.7009 0.62503 0.51078 0.0
C2135 C 0.7278 0.60909 0.52031 0.0
C2136 C 0.70921 0.59266 0.5339 0.0
C2137 C 0.66471 0.5923 0.53839 0.0
C2138 C 0.6392 0.60833 0.52887 0.0
C2139 C 0.65647 0.62421 0.51503 0.0
C2140 C 0.62151 0.63871 0.50551 0.0
C2141 C 0.62739 0.66112 0.51522 0.0
C2142 C 0.62044 0.63845 0.47781 0.0
C2143 C 0.58171 0.62844 0.51609 0.0
C2144 C 0.59293 0.61115 0.52981 0.0
C2145 C 0.56215 0.59892 0.54131 0.0
C2146 C 0.51873 0.604 0.5381 0.0
C2147 C 0.50596 0.62104 0.5232 0.0
C2148 C 0.53814 0.63372 0.51251 0.0
H2149 H 0.02785 0.14766 0.50643 0.0
H2150 H 0.99709 0.08145 0.49864 0.0
H2151 H 0.07375 0.0729 0.49713 0.0
H2152 H 0.12153 0.14726 0.46676 0.0
H2153 H 0.15236 0.16509 0.48514 0.0
H2154 H 0.09445 0.16653 0.48508 0.0
H2155 H 0.09379 0.16216 0.53147 0.0
H2156 H 0.15168 0.16064 0.53164 0.0
H2157 H 0.12024 0.13984 0.54486 0.0
H2158 H 0.15344 0.0707 0.49704 0.0
H2159 H 0.23223 0.07558 0.49813 0.0
H2160 H 0.21356 0.1428 0.50626 0.0
C2161 C 0.03731 0.13142 0.50426 0.0
C2162 C 0.00602 0.11529 0.50283 0.0
C2163 C 0.02004 0.09418 0.50009 0.0
C2164 C 0.06372 0.08907 0.49911 0.0
C2165 C 0.09364 0.10515 0.5009 0.0
C2166 C 0.08129 0.12591 0.5034 0.0
C2167 C 0.12066 0.13995 0.50535 0.0
C2168 C 0.12234 0.15563 0.48433 0.0
C2169 C 0.12164 0.15132 0.52978 0.0
C2170 C 0.15659 0.1238 0.50352 0.0
C2171 C 0.14018 0.10384 0.50094 0.0
C2172 C 0.16682 0.08629 0.49902 0.0
C2173 C 0.2116 0.0892 0.49969 0.0
C2174 C 0.22943 0.10953 0.50227 0.0
C2175 C 0.20123 0.12701 0.50424 0.0
loop_
_geom_bond_atom_site_label_1
_geom_bond_atom_site_label_2
_geom_bond_distance
_geom_bond_site_symmetry_2
_ccdc_geom_bond_type
Co0 O1 2.216 . S
Co0 O2 2.091 . S
Co0 O4 2.004 . S
Co0 O10 2.021 . S
Co0 O12 2.137 . S
Co0 O13 2.244 . S
O1 Co0 2.216 . S
O1 C8 1.247 . S
O2 Co0 2.091 . S
O2 C8 1.261 . S
C3 O12 1.247 . S
C3 O13 1.272 . S
O4 Co0 2.004 . S
O4 C9 1.259 . S
Co5 O6 2.061 . S
Co5 O11 2.052 . S
Co5 O13 2.135 . S
O6 Co5 2.061 . S
O6 C9 1.235 . S
C7 O10 1.238 . S
C7 O11 1.241 . S
C8 O1 1.247 . S
C8 O2 1.261 . S
C9 O4 1.259 . S
C9 O6 1.235 . S
O10 Co0 2.021 . S
O10 C7 1.238 . S
O11 Co5 2.052 . S
O11 C7 1.241 . S
O12 Co0 2.137 . S
O12 C3 1.247 . S
O13 Co0 2.244 . S
O13 C3 1.272 . S
O13 Co5 2.135 . S
Co14 O15 2.216 . S
Co14 O16 2.091 . S
Co14 O18 2.004 . S
Co14 O24 2.021 . S
Co14 O26 2.137 . S
Co14 O27 2.244 . S
O15 Co14 2.216 . S
O15 C22 1.247 . S
O16 Co14 2.091 . S
O16 C22 1.261 . S
C17 O26 1.247 . S
C17 O27 1.272 . S
O18 Co14 2.004 . S
O18 C23 1.259 . S
Co19 O20 2.061 . S
Co19 O25 2.052 . S
Co19 O27 2.135 . S
O20 Co19 2.061 . S
O20 C23 1.235 . S
C21 O24 1.238 . S
C21 O25 1.241 . S
C22 O15 1.247 . S
C22 O16 1.261 . S
C23 O18 1.259 . S
C23 O20 1.235 . S
O24 Co14 2.021 . S
O24 C21 1.238 . S
O25 Co19 2.052 . S
O25 C21 1.241 . S
O26 Co14 2.137 . S
O26 C17 1.247 . S
O27 Co14 2.244 . S
O27 C17 1.272 . S
O27 Co19 2.135 . S
Co28 O29 2.216 . S
Co28 O30 2.091 . S
Co28 O32 2.004 . S
Co28 O38 2.021 1_556 S
Co28 O40 2.137 . S
Co28 O41 2.244 . S
O29 Co28 2.216 . S
O29 C36 1.247 . S
O30 Co28 2.091 . S
O30 C36 1.261 . S
C31 O40 1.247 . S
C31 O41 1.272 . S
O32 Co28 2.004 . S
O32 C37 1.263 . S
Co33 O34 2.061 . S
Co33 O39 2.052 . S
Co33 O41 2.135 1_554 S
O34 Co33 2.061 . S
O34 C37 1.232 1_554 S
C35 O38 1.238 . S
C35 O39 1.241 . S
C36 O29 1.247 . S
C36 O30 1.261 . S
C37 O32 1.263 . S
C37 O34 1.232 1_556 S
O38 Co28 2.021 1_554 S
O38 C35 1.238 . S
O39 Co33 2.052 . S
O39 C35 1.241 . S
O40 Co28 2.137 . S
O40 C31 1.247 . S
O41 Co28 2.244 . S
O41 C31 1.272 . S
O41 Co33 2.135 1_556 S
Co42 O43 2.216 . S
Co42 O44 2.091 . S
Co42 O46 2.004 . S
Co42 O52 2.021 1_556 S
Co42 O54 2.137 . S
Co42 O55 2.244 . S
O43 Co42 2.216 . S
O43 C50 1.247 . S
O44 Co42 2.091 . S
O44 C50 1.261 . S
C45 O54 1.247 . S
C45 O55 1.272 . S
O46 Co42 2.004 . S
O46 C51 1.263 . S
Co47 O48 2.061 . S
Co47 O53 2.052 . S
Co47 O55 2.135 1_554 S
O48 Co47 2.061 . S
O48 C51 1.232 1_554 S
C49 O52 1.238 . S
C49 O53 1.241 . S
C50 O43 1.247 . S
C50 O44 1.261 . S
C51 O46 1.263 . S
C51 O48 1.232 1_556 S
O52 Co42 2.021 1_554 S
O52 C49 1.238 . S
O53 Co47 2.052 . S
O53 C49 1.241 . S
O54 Co42 2.137 . S
O54 C45 1.247 . S
O55 Co42 2.244 . S
O55 C45 1.272 . S
O55 Co47 2.135 1_556 S
Co56 O57 2.216 . S
Co56 O58 2.091 . S
Co56 O60 2.004 . S
Co56 O66 2.021 . S
Co56 O68 2.137 . S
Co56 O69 2.244 . S
O57 Co56 2.216 . S
O57 C64 1.247 . S
O58 Co56 2.091 . S
O58 C64 1.261 . S
C59 O68 1.247 . S
C59 O69 1.272 . S
O60 Co56 2.004 . S
O60 C65 1.259 . S
Co61 O62 2.061 . S
Co61 O67 2.052 . S
Co61 O69 2.135 . S
O62 Co61 2.061 . S
O62 C65 1.235 . S
C63 O66 1.238 . S
C63 O67 1.241 . S
C64 O57 1.247 . S
C64 O58 1.261 . S
C65 O60 1.259 . S
C65 O62 1.235 . S
O66 Co56 2.021 . S
O66 C63 1.238 . S
O67 Co61 2.052 . S
O67 C63 1.241 . S
O68 Co56 2.137 . S
O68 C59 1.247 . S
O69 Co56 2.244 . S
O69 C59 1.272 . S
O69 Co61 2.135 . S
Co70 O71 2.216 . S
Co70 O72 2.091 . S
Co70 O74 2.004 . S
Co70 O80 2.021 . S
Co70 O82 2.137 . S
Co70 O83 2.244 . S
O71 Co70 2.216 . S
O71 C78 1.247 . S
O72 Co70 2.091 . S
O72 C78 1.261 . S
C73 O82 1.247 . S
C73 O83 1.272 . S
O74 Co70 2.004 . S
O74 C79 1.259 . S
Co75 O76 2.061 . S
Co75 O81 2.052 . S
Co75 O83 2.135 . S
O76 Co75 2.061 . S
O76 C79 1.235 . S
C77 O80 1.238 . S
C77 O81 1.241 . S
C78 O71 1.247 . S
C78 O72 1.261 . S
C79 O74 1.259 . S
C79 O76 1.235 . S
O80 Co70 2.021 . S
O80 C77 1.238 . S
O81 Co75 2.052 . S
O81 C77 1.241 . S
O82 Co70 2.137 . S
O82 C73 1.247 . S
O83 Co70 2.244 . S
O83 C73 1.272 . S
O83 Co75 2.135 . S
Co84 O85 2.216 . S
Co84 O86 2.091 . S
Co84 O88 2.004 . S
Co84 O94 2.021 1_554 S
Co84 O96 2.137 . S
Co84 O97 2.244 . S
O85 Co84 2.216 . S
O85 C92 1.247 . S
O86 Co84 2.091 . S
O86 C92 1.261 . S
C87 O96 1.247 . S
C87 O97 1.272 . S
O88 Co84 2.004 . S
O88 C93 1.263 . S
Co89 O90 2.061 . S
Co89 O95 2.052 . S
Co89 O97 2.135 1_556 S
O90 Co89 2.061 . S
O90 C93 1.232 1_556 S
C91 O94 1.238 . S
C91 O95 1.241 . S
C92 O85 1.247 . S
C92 O86 1.261 . S
C93 O88 1.263 . S
C93 O90 1.232 1_554 S
O94 Co84 2.021 1_556 S
O94 C91 1.238 . S
O95 Co89 2.052 . S
O95 C91 1.241 . S
O96 Co84 2.137 . S
O96 C87 1.247 . S
O97 Co84 2.244 . S
O97 C87 1.272 . S
O97 Co89 2.135 1_554 S
Co98 O99 2.216 . S
Co98 O100 2.091 . S
Co98 O102 2.004 . S
Co98 O108 2.021 1_554 S
Co98 O110 2.137 . S
Co98 O111 2.244 . S
O99 Co98 2.216 . S
O99 C106 1.247 . S
O100 Co98 2.091 . S
O100 C106 1.261 . S
C101 O110 1.247 . S
C101 O111 1.272 . S
O102 Co98 2.004 . S
O102 C107 1.263 . S
Co103 O104 2.061 . S
Co103 O109 2.052 . S
Co103 O111 2.135 1_556 S
O104 Co103 2.061 . S
O104 C107 1.232 1_556 S
C105 O108 1.238 . S
C105 O109 1.241 . S
C106 O99 1.247 . S
C106 O100 1.261 . S
C107 O102 1.263 . S
C107 O104 1.232 1_554 S
O108 Co98 2.021 1_556 S
O108 C105 1.238 . S
O109 Co103 2.052 . S
O109 C105 1.241 . S
O110 Co98 2.137 . S
O110 C101 1.247 . S
O111 Co98 2.244 . S
O111 C101 1.272 . S
O111 Co103 2.135 1_554 S
Co112 O113 2.216 . S
Co112 O114 2.091 . S
Co112 O116 2.004 . S
Co112 O122 2.021 . S
Co112 O124 2.137 . S
Co112 O125 2.244 . S
O113 Co112 2.216 . S
O113 C120 1.247 . S
O114 Co112 2.091 . S
O114 C120 1.261 . S
C115 O124 1.247 . S
C115 O125 1.272 . S
O116 Co112 2.004 . S
O116 C121 1.259 . S
Co117 O118 2.061 . S
Co117 O123 2.052 . S
Co117 O125 2.135 . S
O118 Co117 2.061 . S
O118 C121 1.235 . S
C119 O122 1.238 . S
C119 O123 1.241 . S
C120 O113 1.247 . S
C120 O114 1.261 . S
C121 O116 1.259 . S
C121 O118 1.235 . S
O122 Co112 2.021 . S
O122 C119 1.238 . S
O123 Co117 2.052 . S
O123 C119 1.241 . S
O124 Co112 2.137 . S
O124 C115 1.247 . S
O125 Co112 2.244 . S
O125 C115 1.272 . S
O125 Co117 2.135 . S
Co126 O127 2.216 . S
Co126 O128 2.091 . S
Co126 O130 2.004 . S
Co126 O136 2.021 . S
Co126 O138 2.137 . S
Co126 O139 2.244 . S
O127 Co126 2.216 . S
O127 C134 1.247 . S
O128 Co126 2.091 . S
O128 C134 1.261 . S
C129 O138 1.247 . S
C129 O139 1.272 . S
O130 Co126 2.004 . S
O130 C135 1.259 . S
Co131 O132 2.061 . S
Co131 O137 2.052 . S
Co131 O139 2.135 . S
O132 Co131 2.061 . S
O132 C135 1.235 . S
C133 O136 1.238 . S
C133 O137 1.241 . S
C134 O127 1.247 . S
C134 O128 1.261 . S
C135 O130 1.259 . S
C135 O132 1.235 . S
O136 Co126 2.021 . S
O136 C133 1.238 . S
O137 Co131 2.052 . S
O137 C133 1.241 . S
O138 Co126 2.137 . S
O138 C129 1.247 . S
O139 Co126 2.244 . S
O139 C129 1.272 . S
O139 Co131 2.135 . S
Co140 O141 2.216 . S
Co140 O142 2.091 . S
Co140 O144 2.004 . S
Co140 O150 2.021 . S
Co140 O152 2.137 . S
Co140 O153 2.244 . S
O141 Co140 2.216 . S
O141 C148 1.247 . S
O142 Co140 2.091 . S
O142 C148 1.261 . S
C143 O152 1.247 . S
C143 O153 1.272 . S
O144 Co140 2.004 . S
O144 C149 1.259 . S
Co145 O146 2.061 . S
Co145 O151 2.052 . S
Co145 O153 2.135 . S
O146 Co145 2.061 . S
O146 C149 1.235 . S
C147 O150 1.238 . S
C147 O151 1.241 . S
C148 O141 1.247 . S
C148 O142 1.261 . S
C149 O144 1.259 . S
C149 O146 1.235 . S
O150 Co140 2.021 . S
O150 C147 1.238 . S
O151 Co145 2.052 . S
O151 C147 1.241 . S
O152 Co140 2.137 . S
O152 C143 1.247 . S
O153 Co140 2.244 . S
O153 C143 1.272 . S
O153 Co145 2.135 . S
Co154 O155 2.216 . S
Co154 O156 2.091 . S
Co154 O158 2.004 . S
Co154 O164 2.021 . S
Co154 O166 2.137 . S
Co154 O167 2.244 . S
O155 Co154 2.216 . S
O155 C162 1.247 . S
O156 Co154 2.091 . S
O156 C162 1.261 . S
C157 O166 1.247 . S
C157 O167 1.272 . S
O158 Co154 2.004 . S
O158 C163 1.259 . S
Co159 O160 2.061 . S
Co159 O165 2.052 . S
Co159 O167 2.135 . S
O160 Co159 2.061 . S
O160 C163 1.235 . S
C161 O164 1.238 . S
C161 O165 1.241 . S
C162 O155 1.247 . S
C162 O156 1.261 . S
C163 O158 1.259 . S
C163 O160 1.235 . S
O164 Co154 2.021 . S
O164 C161 1.238 . S
O165 Co159 2.052 . S
O165 C161 1.241 . S
O166 Co154 2.137 . S
O166 C157 1.247 . S
O167 Co154 2.244 . S
O167 C157 1.272 . S
O167 Co159 2.135 . S
Co168 O169 2.216 . S
Co168 O170 2.091 . S
Co168 O172 2.004 . S
Co168 O178 2.021 . S
Co168 O180 2.137 . S
Co168 O181 2.244 . S
O169 Co168 2.216 . S
O169 C176 1.247 . S
O170 Co168 2.091 . S
O170 C176 1.261 . S
C171 O180 1.247 . S
C171 O181 1.272 . S
O172 Co168 2.004 . S
O172 C177 1.259 . S
Co173 O174 2.061 . S
Co173 O179 2.052 . S
Co173 O181 2.135 . S
O174 Co173 2.061 . S
O174 C177 1.235 . S
C175 O178 1.238 . S
C175 O179 1.241 . S
C176 O169 1.247 . S
C176 O170 1.261 . S
C177 O172 1.259 . S
C177 O174 1.235 . S
O178 Co168 2.021 . S
O178 C175 1.238 . S
O179 Co173 2.052 . S
O179 C175 1.241 . S
O180 Co168 2.137 . S
O180 C171 1.247 . S
O181 Co168 2.244 . S
O181 C171 1.272 . S
O181 Co173 2.135 . S
Co182 O183 2.216 . S
Co182 O184 2.091 . S
Co182 O186 2.004 . S
Co182 O192 2.021 . S
Co182 O194 2.137 . S
Co182 O195 2.244 . S
O183 Co182 2.216 . S
O183 C190 1.247 . S
O184 Co182 2.091 . S
O184 C190 1.261 . S
C185 O194 1.247 . S
C185 O195 1.272 . S
O186 Co182 2.004 . S
O186 C191 1.259 . S
Co187 O188 2.061 . S
Co187 O193 2.052 . S
Co187 O195 2.135 . S
O188 Co187 2.061 . S
O188 C191 1.235 . S
C189 O192 1.238 . S
C189 O193 1.241 . S
C190 O183 1.247 . S
C190 O184 1.261 . S
C191 O186 1.259 . S
C191 O188 1.235 . S
O192 Co182 2.021 . S
O192 C189 1.238 . S
O193 Co187 2.052 . S
O193 C189 1.241 . S
O194 Co182 2.137 . S
O194 C185 1.247 . S
O195 Co182 2.244 . S
O195 C185 1.272 . S
O195 Co187 2.135 . S
Co196 O197 2.216 . S
Co196 O198 2.091 . S
Co196 O200 2.004 . S
Co196 O206 2.021 . S
Co196 O208 2.137 . S
Co196 O209 2.244 . S
O197 Co196 2.216 . S
O197 C204 1.247 . S
O198 Co196 2.091 . S
O198 C204 1.261 . S
C199 O208 1.247 . S
C199 O209 1.272 . S
O200 Co196 2.004 . S
O200 C205 1.259 . S
Co201 O202 2.061 . S
Co201 O207 2.052 . S
Co201 O209 2.135 . S
O202 Co201 2.061 . S
O202 C205 1.235 . S
C203 O206 1.238 . S
C203 O207 1.241 . S
C204 O197 1.247 . S
C204 O198 1.261 . S
C205 O200 1.259 . S
C205 O202 1.235 . S
O206 Co196 2.021 . S
O206 C203 1.238 . S
O207 Co201 2.052 . S
O207 C203 1.241 . S
O208 Co196 2.137 . S
O208 C199 1.247 . S
O209 Co196 2.244 . S
O209 C199 1.272 . S
O209 Co201 2.135 . S
Co210 O211 2.216 . S
Co210 O212 2.091 . S
Co210 O214 2.004 . S
Co210 O220 2.021 . S
Co210 O222 2.137 . S
Co210 O223 2.244 . S
O211 Co210 2.216 . S
O211 C218 1.247 . S
O212 Co210 2.091 . S
O212 C218 1.261 . S
C213 O222 1.247 . S
C213 O223 1.272 . S
O214 Co210 2.004 . S
O214 C219 1.259 . S
Co215 O216 2.061 . S
Co215 O221 2.052 . S
Co215 O223 2.135 . S
O216 Co215 2.061 . S
O216 C219 1.235 . S
C217 O220 1.238 . S
C217 O221 1.241 . S
C218 O211 1.247 . S
C218 O212 1.261 . S
C219 O214 1.259 . S
C219 O216 1.235 . S
O220 Co210 2.021 . S
O220 C217 1.238 . S
O221 Co215 2.052 . S
O221 C217 1.241 . S
O222 Co210 2.137 . S
O222 C213 1.247 . S
O223 Co210 2.244 . S
O223 C213 1.272 . S
O223 Co215 2.135 . S
Co224 O225 2.216 . S
Co224 O226 2.091 . S
Co224 O228 2.004 . S
Co224 O234 2.021 . S
Co224 O236 2.137 . S
Co224 O237 2.244 . S
O225 Co224 2.216 . S
O225 C232 1.247 . S
O226 Co224 2.091 . S
O226 C232 1.261 . S
C227 O236 1.247 . S
C227 O237 1.272 . S
O228 Co224 2.004 . S
O228 C233 1.259 . S
Co229 O230 2.061 . S
Co229 O235 2.052 . S
Co229 O237 2.135 . S
O230 Co229 2.061 . S
O230 C233 1.235 . S
C231 O234 1.238 . S
C231 O235 1.241 . S
C232 O225 1.247 . S
C232 O226 1.261 . S
C233 O228 1.259 . S
C233 O230 1.235 . S
O234 Co224 2.021 . S
O234 C231 1.238 . S
O235 Co229 2.052 . S
O235 C231 1.241 . S
O236 Co224 2.137 . S
O236 C227 1.247 . S
O237 Co224 2.244 . S
O237 C227 1.272 . S
O237 Co229 2.135 . S
Co238 O239 2.216 . S
Co238 O240 2.091 . S
Co238 O242 2.004 . S
Co238 O248 2.021 . S
Co238 O250 2.137 . S
Co238 O251 2.244 . S
O239 Co238 2.216 . S
O239 C246 1.247 . S
O240 Co238 2.091 . S
O240 C246 1.261 . S
C241 O250 1.247 . S
C241 O251 1.272 . S
O242 Co238 2.004 . S
O242 C247 1.259 . S
Co243 O244 2.061 . S
Co243 O249 2.052 . S
Co243 O251 2.135 . S
O244 Co243 2.061 . S
O244 C247 1.235 . S
C245 O248 1.238 . S
C245 O249 1.241 . S
C246 O239 1.247 . S
C246 O240 1.261 . S
C247 O242 1.259 . S
C247 O244 1.235 . S
O248 Co238 2.021 . S
O248 C245 1.238 . S
O249 Co243 2.052 . S
O249 C245 1.241 . S
O250 Co238 2.137 . S
O250 C241 1.247 . S
O251 Co238 2.244 . S
O251 C241 1.272 . S
O251 Co243 2.135 . S
Co252 O253 2.216 . S
Co252 O254 2.091 . S
Co252 O256 2.004 . S
Co252 O262 2.021 . S
Co252 O264 2.137 . S
Co252 O265 2.244 . S
O253 Co252 2.216 . S
O253 C260 1.247 . S
O254 Co252 2.091 . S
O254 C260 1.261 . S
C255 O264 1.247 . S
C255 O265 1.272 . S
O256 Co252 2.004 . S
O256 C261 1.259 . S
Co257 O258 2.061 . S
Co257 O263 2.052 . S
Co257 O265 2.135 . S
O258 Co257 2.061 . S
O258 C261 1.235 . S
C259 O262 1.238 . S
C259 O263 1.241 . S
C260 O253 1.247 . S
C260 O254 1.261 . S
C261 O256 1.259 . S
C261 O258 1.235 . S
O262 Co252 2.021 . S
O262 C259 1.238 . S
O263 Co257 2.052 . S
O263 C259 1.241 . S
O264 Co252 2.137 . S
O264 C255 1.247 . S
O265 Co252 2.244 . S
O265 C255 1.272 . S
O265 Co257 2.135 . S
Co266 O267 2.216 . S
Co266 O268 2.091 . S
Co266 O270 2.004 . S
Co266 O276 2.021 . S
Co266 O278 2.137 . S
Co266 O279 2.244 . S
O267 Co266 2.216 . S
O267 C274 1.247 . S
O268 Co266 2.091 . S
O268 C274 1.261 . S
C269 O278 1.247 . S
C269 O279 1.272 . S
O270 Co266 2.004 . S
O270 C275 1.259 . S
Co271 O272 2.061 . S
Co271 O277 2.052 . S
Co271 O279 2.135 . S
O272 Co271 2.061 . S
O272 C275 1.235 . S
C273 O276 1.238 . S
C273 O277 1.241 . S
C274 O267 1.247 . S
C274 O268 1.261 . S
C275 O270 1.259 . S
C275 O272 1.235 . S
O276 Co266 2.021 . S
O276 C273 1.238 . S
O277 Co271 2.052 . S
O277 C273 1.241 . S
O278 Co266 2.137 . S
O278 C269 1.247 . S
O279 Co266 2.244 . S
O279 C269 1.272 . S
O279 Co271 2.135 . S
Co280 O281 2.216 . S
Co280 O282 2.091 . S
Co280 O284 2.004 . S
Co280 O290 2.021 . S
Co280 O292 2.137 . S
Co280 O293 2.244 . S
O281 Co280 2.216 . S
O281 C288 1.247 . S
O282 Co280 2.091 . S
O282 C288 1.261 . S
C283 O292 1.247 . S
C283 O293 1.272 . S
O284 Co280 2.004 . S
O284 C289 1.259 . S
Co285 O286 2.061 . S
Co285 O291 2.052 . S
Co285 O293 2.135 . S
O286 Co285 2.061 . S
O286 C289 1.235 . S
C287 O290 1.238 . S
C287 O291 1.241 . S
C288 O281 1.247 . S
C288 O282 1.261 . S
C289 O284 1.259 . S
C289 O286 1.235 . S
O290 Co280 2.021 . S
O290 C287 1.238 . S
O291 Co285 2.052 . S
O291 C287 1.241 . S
O292 Co280 2.137 . S
O292 C283 1.247 . S
O293 Co280 2.244 . S
O293 C283 1.272 . S
O293 Co285 2.135 . S
Co294 O295 2.216 . S
Co294 O296 2.091 . S
Co294 O298 2.004 . S
Co294 O304 2.021 . S
Co294 O306 2.137 . S
Co294 O307 2.244 . S
O295 Co294 2.216 . S
O295 C302 1.247 . S
O296 Co294 2.091 . S
O296 C302 1.261 . S
C297 O306 1.247 . S
C297 O307 1.272 . S
O298 Co294 2.004 . S
O298 C303 1.259 . S
Co299 O300 2.061 . S
Co299 O305 2.052 . S
Co299 O307 2.135 . S
O300 Co299 2.061 . S
O300 C303 1.235 . S
C301 O304 1.238 . S
C301 O305 1.241 . S
C302 O295 1.247 . S
C302 O296 1.261 . S
C303 O298 1.259 . S
C303 O300 1.235 . S
O304 Co294 2.021 . S
O304 C301 1.238 . S
O305 Co299 2.052 . S
O305 C301 1.241 . S
O306 Co294 2.137 . S
O306 C297 1.247 . S
O307 Co294 2.244 . S
O307 C297 1.272 . S
O307 Co299 2.135 . S
Co308 O309 2.216 . S
Co308 O310 2.091 . S
Co308 O312 2.004 . S
Co308 O318 2.021 . S
Co308 O320 2.137 . S
Co308 O321 2.244 . S
O309 Co308 2.216 . S
O309 C316 1.247 . S
O310 Co308 2.091 . S
O310 C316 1.261 . S
C311 O320 1.247 . S
C311 O321 1.272 . S
O312 Co308 2.004 . S
O312 C317 1.259 . S
Co313 O314 2.061 . S
Co313 O319 2.052 . S
Co313 O321 2.135 . S
O314 Co313 2.061 . S
O314 C317 1.235 . S
C315 O318 1.238 . S
C315 O319 1.241 . S
C316 O309 1.247 . S
C316 O310 1.261 . S
C317 O312 1.259 . S
C317 O314 1.235 . S
O318 Co308 2.021 . S
O318 C315 1.238 . S
O319 Co313 2.052 . S
O319 C315 1.241 . S
O320 Co308 2.137 . S
O320 C311 1.247 . S
O321 Co308 2.244 . S
O321 C311 1.272 . S
O321 Co313 2.135 . S
Co322 O323 2.216 . S
Co322 O324 2.091 . S
Co322 O326 2.004 . S
Co322 O332 2.021 . S
Co322 O334 2.137 . S
Co322 O335 2.244 . S
O323 Co322 2.216 . S
O323 C330 1.247 . S
O324 Co322 2.091 . S
O324 C330 1.261 . S
C325 O334 1.247 . S
C325 O335 1.272 . S
O326 Co322 2.004 . S
O326 C331 1.259 . S
Co327 O328 2.061 . S
Co327 O333 2.052 . S
Co327 O335 2.135 . S
O328 Co327 2.061 . S
O328 C331 1.235 . S
C329 O332 1.238 . S
C329 O333 1.241 . S
C330 O323 1.247 . S
C330 O324 1.261 . S
C331 O326 1.259 . S
C331 O328 1.235 . S
O332 Co322 2.021 . S
O332 C329 1.238 . S
O333 Co327 2.052 . S
O333 C329 1.241 . S
O334 Co322 2.137 . S
O334 C325 1.247 . S
O335 Co322 2.244 . S
O335 C325 1.272 . S
O335 Co327 2.135 . S
Co336 O337 2.216 . S
Co336 O338 2.091 . S
Co336 O340 2.004 . S
Co336 O346 2.021 . S
Co336 O348 2.137 . S
Co336 O349 2.244 . S
O337 Co336 2.216 . S
O337 C344 1.247 . S
O338 Co336 2.091 . S
O338 C344 1.261 . S
C339 O348 1.247 . S
C339 O349 1.272 . S
O340 Co336 2.004 . S
O340 C345 1.259 . S
Co341 O342 2.061 . S
Co341 O347 2.052 . S
Co341 O349 2.135 . S
O342 Co341 2.061 . S
O342 C345 1.235 . S
C343 O346 1.238 . S
C343 O347 1.241 . S
C344 O337 1.247 . S
C344 O338 1.261 . S
C345 O340 1.259 . S
C345 O342 1.235 . S
O346 Co336 2.021 . S
O346 C343 1.238 . S
O347 Co341 2.052 . S
O347 C343 1.241 . S
O348 Co336 2.137 . S
O348 C339 1.247 . S
O349 Co336 2.244 . S
O349 C339 1.272 . S
O349 Co341 2.135 . S
Co350 O351 2.216 . S
Co350 O352 2.091 . S
Co350 O354 2.004 . S
Co350 O360 2.021 . S
Co350 O362 2.137 . S
Co350 O363 2.244 . S
O351 Co350 2.216 . S
O351 C358 1.247 . S
O352 Co350 2.091 . S
O352 C358 1.261 . S
C353 O362 1.247 . S
C353 O363 1.272 . S
O354 Co350 2.004 . S
O354 C359 1.259 . S
Co355 O356 2.061 . S
Co355 O361 2.052 . S
Co355 O363 2.135 . S
O356 Co355 2.061 . S
O356 C359 1.235 . S
C357 O360 1.238 . S
C357 O361 1.241 . S
C358 O351 1.247 . S
C358 O352 1.261 . S
C359 O354 1.259 . S
C359 O356 1.235 . S
O360 Co350 2.021 . S
O360 C357 1.238 . S
O361 Co355 2.052 . S
O361 C357 1.241 . S
O362 Co350 2.137 . S
O362 C353 1.247 . S
O363 Co350 2.244 . S
O363 C353 1.272 . S
O363 Co355 2.135 . S
Co364 O365 2.216 . S
Co364 O366 2.091 . S
Co364 O368 2.004 . S
Co364 O374 2.021 1_556 S
Co364 O376 2.137 . S
Co364 O377 2.244 . S
O365 Co364 2.216 . S
O365 C372 1.247 . S
O366 Co364 2.091 . S
O366 C372 1.261 . S
C367 O376 1.247 . S
C367 O377 1.272 . S
O368 Co364 2.004 . S
O368 C373 1.263 . S
Co369 O370 2.061 . S
Co369 O375 2.052 . S
Co369 O377 2.135 1_554 S
O370 Co369 2.061 . S
O370 C373 1.232 1_554 S
C371 O374 1.238 . S
C371 O375 1.241 . S
C372 O365 1.247 . S
C372 O366 1.261 . S
C373 O368 1.263 . S
C373 O370 1.232 1_556 S
O374 Co364 2.021 1_554 S
O374 C371 1.238 . S
O375 Co369 2.052 . S
O375 C371 1.241 . S
O376 Co364 2.137 . S
O376 C367 1.247 . S
O377 Co364 2.244 . S
O377 C367 1.272 . S
O377 Co369 2.135 1_556 S
Co378 O379 2.216 . S
Co378 O380 2.091 . S
Co378 O382 2.004 . S
Co378 O388 2.021 1_556 S
Co378 O390 2.137 . S
Co378 O391 2.244 . S
O379 Co378 2.216 . S
O379 C386 1.247 . S
O380 Co378 2.091 . S
O380 C386 1.261 . S
C381 O390 1.247 . S
C381 O391 1.272 . S
O382 Co378 2.004 . S
O382 C387 1.263 . S
Co383 O384 2.061 . S
Co383 O389 2.052 . S
Co383 O391 2.135 1_554 S
O384 Co383 2.061 . S
O384 C387 1.232 1_554 S
C385 O388 1.238 . S
C385 O389 1.241 . S
C386 O379 1.247 . S
C386 O380 1.261 . S
C387 O382 1.263 . S
C387 O384 1.232 1_556 S
O388 Co378 2.021 1_554 S
O388 C385 1.238 . S
O389 Co383 2.052 . S
O389 C385 1.241 . S
O390 Co378 2.137 . S
O390 C381 1.247 . S
O391 Co378 2.244 . S
O391 C381 1.272 . S
O391 Co383 2.135 1_556 S
Co392 O393 2.216 . S
Co392 O394 2.091 . S
Co392 O396 2.004 . S
Co392 O402 2.021 . S
Co392 O404 2.137 . S
Co392 O405 2.244 . S
O393 Co392 2.216 . S
O393 C400 1.247 . S
O394 Co392 2.091 . S
O394 C400 1.261 . S
C395 O404 1.247 . S
C395 O405 1.272 . S
O396 Co392 2.004 . S
O396 C401 1.259 . S
Co397 O398 2.061 . S
Co397 O403 2.052 . S
Co397 O405 2.135 . S
O398 Co397 2.061 . S
O398 C401 1.235 . S
C399 O402 1.238 . S
C399 O403 1.241 . S
C400 O393 1.247 . S
C400 O394 1.261 . S
C401 O396 1.259 . S
C401 O398 1.235 . S
O402 Co392 2.021 . S
O402 C399 1.238 . S
O403 Co397 2.052 . S
O403 C399 1.241 . S
O404 Co392 2.137 . S
O404 C395 1.247 . S
O405 Co392 2.244 . S
O405 C395 1.272 . S
O405 Co397 2.135 . S
Co406 O407 2.216 . S
Co406 O408 2.091 . S
Co406 O410 2.004 . S
Co406 O416 2.021 . S
Co406 O418 2.137 . S
Co406 O419 2.244 . S
O407 Co406 2.216 . S
O407 C414 1.247 . S
O408 Co406 2.091 . S
O408 C414 1.261 . S
C409 O418 1.247 . S
C409 O419 1.272 . S
O410 Co406 2.004 . S
O410 C415 1.259 . S
Co411 O412 2.061 . S
Co411 O417 2.052 . S
Co411 O419 2.135 . S
O412 Co411 2.061 . S
O412 C415 1.235 . S
C413 O416 1.238 . S
C413 O417 1.241 . S
C414 O407 1.247 . S
C414 O408 1.261 . S
C415 O410 1.259 . S
C415 O412 1.235 . S
O416 Co406 2.021 . S
O416 C413 1.238 . S
O417 Co411 2.052 . S
O417 C413 1.241 . S
O418 Co406 2.137 . S
O418 C409 1.247 . S
O419 Co406 2.244 . S
O419 C409 1.272 . S
O419 Co411 2.135 . S
Co420 O421 2.216 . S
Co420 O422 2.091 . S
Co420 O424 2.004 . S
Co420 O430 2.021 1_554 S
Co420 O432 2.137 . S
Co420 O433 2.244 . S
O421 Co420 2.216 . S
O421 C428 1.247 . S
O422 Co420 2.091 . S
O422 C428 1.261 . S
C423 O432 1.247 . S
C423 O433 1.272 . S
O424 Co420 2.004 . S
O424 C429 1.263 . S
Co425 O426 2.061 . S
Co425 O431 2.052 . S
Co425 O433 2.135 1_556 S
O426 Co425 2.061 . S
O426 C429 1.232 1_556 S
C427 O430 1.238 . S
C427 O431 1.241 . S
C428 O421 1.247 . S
C428 O422 1.261 . S
C429 O424 1.263 . S
C429 O426 1.232 1_554 S
O430 Co420 2.021 1_556 S
O430 C427 1.238 . S
O431 Co425 2.052 . S
O431 C427 1.241 . S
O432 Co420 2.137 . S
O432 C423 1.247 . S
O433 Co420 2.244 . S
O433 C423 1.272 . S
O433 Co425 2.135 1_554 S
Co434 O435 2.216 . S
Co434 O436 2.091 . S
Co434 O438 2.004 . S
Co434 O444 2.021 1_554 S
Co434 O446 2.137 . S
Co434 O447 2.244 . S
O435 Co434 2.216 . S
O435 C442 1.247 . S
O436 Co434 2.091 . S
O436 C442 1.261 . S
C437 O446 1.247 . S
C437 O447 1.272 . S
O438 Co434 2.004 . S
O438 C443 1.263 . S
Co439 O440 2.061 . S
Co439 O445 2.052 . S
Co439 O447 2.135 1_556 S
O440 Co439 2.061 . S
O440 C443 1.232 1_556 S
C441 O444 1.238 . S
C441 O445 1.241 . S
C442 O435 1.247 . S
C442 O436 1.261 . S
C443 O438 1.263 . S
C443 O440 1.232 1_554 S
O444 Co434 2.021 1_556 S
O444 C441 1.238 . S
O445 Co439 2.052 . S
O445 C441 1.241 . S
O446 Co434 2.137 . S
O446 C437 1.247 . S
O447 Co434 2.244 . S
O447 C437 1.272 . S
O447 Co439 2.135 1_554 S
H448 C460 0.930 . S
H449 C462 0.930 . S
H450 C463 0.930 . S
H451 C467 0.959 . S
H452 C467 0.959 . S
H453 C467 0.961 . S
H454 C468 0.960 . S
H455 C468 0.961 . S
H456 C468 0.959 . S
H457 C471 0.929 . S
H458 C472 0.931 . S
H459 C474 0.930 . S
C460 H448 0.930 . S
C460 C461 1.399 . S
C460 C465 1.399 . S
C461 C460 1.399 . S
C461 C462 1.376 . S
C462 H449 0.930 . S
C462 C461 1.376 . S
C462 C463 1.388 . S
C463 H450 0.930 . S
C463 C462 1.388 . S
C463 C464 1.390 . S
C464 C463 1.390 . S
C464 C465 1.394 . S
C464 C470 1.465 . S
C465 C460 1.399 . S
C465 C464 1.394 . S
C465 C466 1.516 . S
C466 C465 1.516 . S
C466 C467 1.502 . S
C466 C468 1.561 . S
C466 C469 1.526 . S
C467 H451 0.959 . S
C467 H452 0.959 . S
C467 H453 0.961 . S
C467 C466 1.502 . S
C468 H454 0.960 . S
C468 H455 0.961 . S
C468 H456 0.959 . S
C468 C466 1.561 . S
C469 C466 1.526 . S
C469 C470 1.396 . S
C469 C474 1.390 . S
C470 C464 1.465 . S
C470 C469 1.396 . S
C470 C471 1.399 . S
C471 H457 0.929 . S
C471 C470 1.399 . S
C471 C472 1.385 . S
C472 H458 0.931 . S
C472 C471 1.385 . S
C472 C473 1.389 . S
C473 C472 1.389 . S
C473 C474 1.387 . S
C474 H459 0.930 . S
C474 C469 1.390 . S
C474 C473 1.387 . S
H475 C487 0.930 . S
H476 C489 0.930 . S
H477 C490 0.930 . S
H478 C494 0.959 . S
H479 C494 0.959 . S
H480 C494 0.961 . S
H481 C495 0.960 . S
H482 C495 0.961 . S
H483 C495 0.959 . S
H484 C498 0.929 . S
H485 C499 0.931 . S
H486 C501 0.930 . S
C487 H475 0.930 . S
C487 C488 1.399 . S
C487 C492 1.399 . S
C488 C487 1.399 . S
C488 C489 1.376 . S
C489 H476 0.930 . S
C489 C488 1.376 . S
C489 C490 1.388 . S
C490 H477 0.930 . S
C490 C489 1.388 . S
C490 C491 1.390 . S
C491 C490 1.390 . S
C491 C492 1.394 . S
C491 C497 1.465 . S
C492 C487 1.399 . S
C492 C491 1.394 . S
C492 C493 1.516 . S
C493 C492 1.516 . S
C493 C494 1.502 . S
C493 C495 1.561 . S
C493 C496 1.526 . S
C494 H478 0.959 . S
C494 H479 0.959 . S
C494 H480 0.961 . S
C494 C493 1.502 . S
C495 H481 0.960 . S
C495 H482 0.961 . S
C495 H483 0.959 . S
C495 C493 1.561 . S
C496 C493 1.526 . S
C496 C497 1.396 . S
C496 C501 1.390 . S
C497 C491 1.465 . S
C497 C496 1.396 . S
C497 C498 1.399 . S
C498 H484 0.929 . S
C498 C497 1.399 . S
C498 C499 1.385 . S
C499 H485 0.931 . S
C499 C498 1.385 . S
C499 C500 1.389 . S
C500 C499 1.389 . S
C500 C501 1.387 . S
C501 H486 0.930 . S
C501 C496 1.390 . S
C501 C500 1.387 . S
H502 C514 0.930 . S
H503 C516 0.930 . S
H504 C517 0.930 . S
H505 C521 0.959 . S
H506 C521 0.959 . S
H507 C521 0.961 . S
H508 C522 0.960 . S
H509 C522 0.961 . S
H510 C522 0.959 . S
H511 C525 0.929 . S
H512 C526 0.931 . S
H513 C528 0.930 . S
C514 H502 0.930 . S
C514 C515 1.399 . S
C514 C519 1.399 . S
C515 C514 1.399 . S
C515 C516 1.376 . S
C516 H503 0.930 . S
C516 C515 1.376 . S
C516 C517 1.388 . S
C517 H504 0.930 . S
C517 C516 1.388 . S
C517 C518 1.390 . S
C518 C517 1.390 . S
C518 C519 1.394 . S
C518 C524 1.465 . S
C519 C514 1.399 . S
C519 C518 1.394 . S
C519 C520 1.516 . S
C520 C519 1.516 . S
C520 C521 1.502 . S
C520 C522 1.561 . S
C520 C523 1.526 . S
C521 H505 0.959 . S
C521 H506 0.959 . S
C521 H507 0.961 . S
C521 C520 1.502 . S
C522 H508 0.960 . S
C522 H509 0.961 . S
C522 H510 0.959 . S
C522 C520 1.561 . S
C523 C520 1.526 . S
C523 C524 1.396 . S
C523 C528 1.390 . S
C524 C518 1.465 . S
C524 C523 1.396 . S
C524 C525 1.399 . S
C525 H511 0.929 . S
C525 C524 1.399 . S
C525 C526 1.385 . S
C526 H512 0.931 . S
C526 C525 1.385 . S
C526 C527 1.389 . S
C527 C526 1.389 . S
C527 C528 1.387 . S
C528 H513 0.930 . S
C528 C523 1.390 . S
C528 C527 1.387 . S
H529 C541 0.930 . S
H530 C543 0.930 . S
H531 C544 0.930 . S
H532 C548 0.959 . S
H533 C548 0.959 . S
H534 C548 0.961 . S
H535 C549 0.960 . S
H536 C549 0.961 . S
H537 C549 0.959 . S
H538 C552 0.929 . S
H539 C553 0.931 . S
H540 C555 0.930 . S
C541 H529 0.930 . S
C541 C542 1.399 . S
C541 C546 1.399 . S
C542 C541 1.399 . S
C542 C543 1.376 . S
C543 H530 0.930 . S
C543 C542 1.376 . S
C543 C544 1.388 . S
C544 H531 0.930 . S
C544 C543 1.388 . S
C544 C545 1.390 . S
C545 C544 1.390 . S
C545 C546 1.394 . S
C545 C551 1.465 . S
C546 C541 1.399 . S
C546 C545 1.394 . S
C546 C547 1.516 . S
C547 C546 1.516 . S
C547 C548 1.502 . S
C547 C549 1.561 . S
C547 C550 1.526 . S
C548 H532 0.959 . S
C548 H533 0.959 . S
C548 H534 0.961 . S
C548 C547 1.502 . S
C549 H535 0.960 . S
C549 H536 0.961 . S
C549 H537 0.959 . S
C549 C547 1.561 . S
C550 C547 1.526 . S
C550 C551 1.396 . S
C550 C555 1.390 . S
C551 C545 1.465 . S
C551 C550 1.396 . S
C551 C552 1.399 . S
C552 H538 0.929 . S
C552 C551 1.399 . S
C552 C553 1.385 . S
C553 H539 0.931 . S
C553 C552 1.385 . S
C553 C554 1.389 . S
C554 C553 1.389 . S
C554 C555 1.387 . S
C555 H540 0.930 . S
C555 C550 1.390 . S
C555 C554 1.387 . S
H556 C568 0.930 . S
H557 C570 0.930 . S
H558 C571 0.930 . S
H559 C575 0.959 . S
H560 C575 0.959 . S
H561 C575 0.961 . S
H562 C576 0.960 . S
H563 C576 0.961 . S
H564 C576 0.959 . S
H565 C579 0.929 . S
H566 C580 0.931 . S
H567 C582 0.930 . S
C568 H556 0.930 . S
C568 C569 1.399 . S
C568 C573 1.399 . S
C569 C568 1.399 . S
C569 C570 1.376 . S
C570 H557 0.930 . S
C570 C569 1.376 . S
C570 C571 1.388 . S
C571 H558 0.930 . S
C571 C570 1.388 . S
C571 C572 1.390 . S
C572 C571 1.390 . S
C572 C573 1.394 . S
C572 C578 1.465 . S
C573 C568 1.399 . S
C573 C572 1.394 . S
C573 C574 1.516 . S
C574 C573 1.516 . S
C574 C575 1.502 . S
C574 C576 1.561 . S
C574 C577 1.526 . S
C575 H559 0.959 . S
C575 H560 0.959 . S
C575 H561 0.961 . S
C575 C574 1.502 . S
C576 H562 0.960 . S
C576 H563 0.961 . S
C576 H564 0.959 . S
C576 C574 1.561 . S
C577 C574 1.526 . S
C577 C578 1.396 . S
C577 C582 1.390 . S
C578 C572 1.465 . S
C578 C577 1.396 . S
C578 C579 1.399 . S
C579 H565 0.929 . S
C579 C578 1.399 . S
C579 C580 1.385 . S
C580 H566 0.931 . S
C580 C579 1.385 . S
C580 C581 1.389 . S
C581 C580 1.389 . S
C581 C582 1.387 . S
C582 H567 0.930 . S
C582 C577 1.390 . S
C582 C581 1.387 . S
H583 C595 0.930 . S
H584 C597 0.930 . S
H585 C598 0.930 . S
H586 C602 0.959 . S
H587 C602 0.959 . S
H588 C602 0.961 . S
H589 C603 0.960 . S
H590 C603 0.961 . S
H591 C603 0.959 . S
H592 C606 0.929 . S
H593 C607 0.931 . S
H594 C609 0.930 . S
C595 H583 0.930 . S
C595 C596 1.399 . S
C595 C600 1.399 . S
C596 C595 1.399 . S
C596 C597 1.376 . S
C597 H584 0.930 . S
C597 C596 1.376 . S
C597 C598 1.388 . S
C598 H585 0.930 . S
C598 C597 1.388 . S
C598 C599 1.390 . S
C599 C598 1.390 . S
C599 C600 1.394 . S
C599 C605 1.465 . S
C600 C595 1.399 . S
C600 C599 1.394 . S
C600 C601 1.516 . S
C601 C600 1.516 . S
C601 C602 1.502 . S
C601 C603 1.561 . S
C601 C604 1.526 . S
C602 H586 0.959 . S
C602 H587 0.959 . S
C602 H588 0.961 . S
C602 C601 1.502 . S
C603 H589 0.960 . S
C603 H590 0.961 . S
C603 H591 0.959 . S
C603 C601 1.561 . S
C604 C601 1.526 . S
C604 C605 1.396 . S
C604 C609 1.390 . S
C605 C599 1.465 . S
C605 C604 1.396 . S
C605 C606 1.399 . S
C606 H592 0.929 . S
C606 C605 1.399 . S
C606 C607 1.385 . S
C607 H593 0.931 . S
C607 C606 1.385 . S
C607 C608 1.389 . S
C608 C607 1.389 . S
C608 C609 1.387 . S
C609 H594 0.930 . S
C609 C604 1.390 . S
C609 C608 1.387 . S
H610 C622 0.930 . S
H611 C624 0.930 . S
H612 C625 0.930 . S
H613 C629 0.959 . S
H614 C629 0.959 . S
H615 C629 0.961 . S
H616 C630 0.960 . S
H617 C630 0.961 . S
H618 C630 0.959 . S
H619 C633 0.929 . S
H620 C634 0.931 . S
H621 C636 0.930 . S
C622 H610 0.930 . S
C622 C623 1.399 . S
C622 C627 1.399 . S
C623 C622 1.399 . S
C623 C624 1.376 . S
C624 H611 0.930 . S
C624 C623 1.376 . S
C624 C625 1.388 . S
C625 H612 0.930 . S
C625 C624 1.388 . S
C625 C626 1.390 . S
C626 C625 1.390 . S
C626 C627 1.394 . S
C626 C632 1.465 . S
C627 C622 1.399 . S
C627 C626 1.394 . S
C627 C628 1.516 . S
C628 C627 1.516 . S
C628 C629 1.502 . S
C628 C630 1.561 . S
C628 C631 1.526 . S
C629 H613 0.959 . S
C629 H614 0.959 . S
C629 H615 0.961 . S
C629 C628 1.502 . S
C630 H616 0.960 . S
C630 H617 0.961 . S
C630 H618 0.959 . S
C630 C628 1.561 . S
C631 C628 1.526 . S
C631 C632 1.396 . S
C631 C636 1.390 . S
C632 C626 1.465 . S
C632 C631 1.396 . S
C632 C633 1.399 . S
C633 H619 0.929 . S
C633 C632 1.399 . S
C633 C634 1.385 . S
C634 H620 0.931 . S
C634 C633 1.385 . S
C634 C635 1.389 . S
C635 C634 1.389 . S
C635 C636 1.387 . S
C636 H621 0.930 . S
C636 C631 1.390 . S
C636 C635 1.387 . S
H637 C649 0.930 . S
H638 C651 0.930 . S
H639 C652 0.930 . S
H640 C656 0.959 . S
H641 C656 0.959 . S
H642 C656 0.961 . S
H643 C657 0.960 . S
H644 C657 0.961 . S
H645 C657 0.959 . S
H646 C660 0.929 . S
H647 C661 0.931 . S
H648 C663 0.930 . S
C649 H637 0.930 . S
C649 C650 1.399 . S
C649 C654 1.399 . S
C650 C649 1.399 . S
C650 C651 1.376 . S
C651 H638 0.930 . S
C651 C650 1.376 . S
C651 C652 1.388 . S
C652 H639 0.930 . S
C652 C651 1.388 . S
C652 C653 1.390 . S
C653 C652 1.390 . S
C653 C654 1.394 . S
C653 C659 1.465 . S
C654 C649 1.399 . S
C654 C653 1.394 . S
C654 C655 1.516 . S
C655 C654 1.516 . S
C655 C656 1.502 . S
C655 C657 1.561 . S
C655 C658 1.526 . S
C656 H640 0.959 . S
C656 H641 0.959 . S
C656 H642 0.961 . S
C656 C655 1.502 . S
C657 H643 0.960 . S
C657 H644 0.961 . S
C657 H645 0.959 . S
C657 C655 1.561 . S
C658 C655 1.526 . S
C658 C659 1.396 . S
C658 C663 1.390 . S
C659 C653 1.465 . S
C659 C658 1.396 . S
C659 C660 1.399 . S
C660 H646 0.929 . S
C660 C659 1.399 . S
C660 C661 1.385 . S
C661 H647 0.931 . S
C661 C660 1.385 . S
C661 C662 1.389 . S
C662 C661 1.389 . S
C662 C663 1.387 . S
C663 H648 0.930 . S
C663 C658 1.390 . S
C663 C662 1.387 . S
H664 C676 0.930 . S
H665 C678 0.930 . S
H666 C679 0.930 . S
H667 C683 0.959 . S
H668 C683 0.959 . S
H669 C683 0.961 . S
H670 C684 0.960 . S
H671 C684 0.961 . S
H672 C684 0.959 . S
H673 C687 0.929 . S
H674 C688 0.931 . S
H675 C690 0.930 . S
C676 H664 0.930 . S
C676 C677 1.399 . S
C676 C681 1.399 . S
C677 C676 1.399 . S
C677 C678 1.376 . S
C678 H665 0.930 . S
C678 C677 1.376 . S
C678 C679 1.388 . S
C679 H666 0.930 . S
C679 C678 1.388 . S
C679 C680 1.390 . S
C680 C679 1.390 . S
C680 C681 1.394 . S
C680 C686 1.465 . S
C681 C676 1.399 . S
C681 C680 1.394 . S
C681 C682 1.516 . S
C682 C681 1.516 . S
C682 C683 1.502 . S
C682 C684 1.561 . S
C682 C685 1.526 . S
C683 H667 0.959 . S
C683 H668 0.959 . S
C683 H669 0.961 . S
C683 C682 1.502 . S
C684 H670 0.960 . S
C684 H671 0.961 . S
C684 H672 0.959 . S
C684 C682 1.561 . S
C685 C682 1.526 . S
C685 C686 1.396 . S
C685 C690 1.390 . S
C686 C680 1.465 . S
C686 C685 1.396 . S
C686 C687 1.399 . S
C687 H673 0.929 . S
C687 C686 1.399 . S
C687 C688 1.385 . S
C688 H674 0.931 . S
C688 C687 1.385 . S
C688 C689 1.389 . S
C689 C688 1.389 . S
C689 C690 1.387 . S
C690 H675 0.930 . S
C690 C685 1.390 . S
C690 C689 1.387 . S
H691 C703 0.930 . S
H692 C705 0.930 . S
H693 C706 0.930 . S
H694 C710 0.959 . S
H695 C710 0.959 . S
H696 C710 0.961 . S
H697 C711 0.960 . S
H698 C711 0.961 . S
H699 C711 0.959 . S
H700 C714 0.929 . S
H701 C715 0.931 . S
H702 C717 0.930 . S
C703 H691 0.930 . S
C703 C704 1.399 . S
C703 C708 1.399 . S
C704 C703 1.399 . S
C704 C705 1.376 . S
C705 H692 0.930 . S
C705 C704 1.376 . S
C705 C706 1.388 . S
C706 H693 0.930 . S
C706 C705 1.388 . S
C706 C707 1.390 . S
C707 C706 1.390 . S
C707 C708 1.394 . S
C707 C713 1.465 . S
C708 C703 1.399 . S
C708 C707 1.394 . S
C708 C709 1.516 . S
C709 C708 1.516 . S
C709 C710 1.502 . S
C709 C711 1.561 . S
C709 C712 1.526 . S
C710 H694 0.959 . S
C710 H695 0.959 . S
C710 H696 0.961 . S
C710 C709 1.502 . S
C711 H697 0.960 . S
C711 H698 0.961 . S
C711 H699 0.959 . S
C711 C709 1.561 . S
C712 C709 1.526 . S
C712 C713 1.396 . S
C712 C717 1.390 . S
C713 C707 1.465 . S
C713 C712 1.396 . S
C713 C714 1.399 . S
C714 H700 0.929 . S
C714 C713 1.399 . S
C714 C715 1.385 . S
C715 H701 0.931 . S
C715 C714 1.385 . S
C715 C716 1.389 . S
C716 C715 1.389 . S
C716 C717 1.387 . S
C717 H702 0.930 . S
C717 C712 1.390 . S
C717 C716 1.387 . S
H718 C730 0.930 . S
H719 C732 0.930 . S
H720 C733 0.930 . S
H721 C737 0.959 . S
H722 C737 0.959 . S
H723 C737 0.961 . S
H724 C738 0.960 . S
H725 C738 0.961 . S
H726 C738 0.959 . S
H727 C741 0.929 . S
H728 C742 0.931 . S
H729 C744 0.930 . S
C730 H718 0.930 . S
C730 C731 1.399 . S
C730 C735 1.399 . S
C731 C730 1.399 . S
C731 C732 1.376 . S
C732 H719 0.930 . S
C732 C731 1.376 . S
C732 C733 1.388 . S
C733 H720 0.930 . S
C733 C732 1.388 . S
C733 C734 1.390 . S
C734 C733 1.390 . S
C734 C735 1.394 . S
C734 C740 1.465 . S
C735 C730 1.399 . S
C735 C734 1.394 . S
C735 C736 1.516 . S
C736 C735 1.516 . S
C736 C737 1.502 . S
C736 C738 1.561 . S
C736 C739 1.526 . S
C737 H721 0.959 . S
C737 H722 0.959 . S
C737 H723 0.961 . S
C737 C736 1.502 . S
C738 H724 0.960 . S
C738 H725 0.961 . S
C738 H726 0.959 . S
C738 C736 1.561 . S
C739 C736 1.526 . S
C739 C740 1.396 . S
C739 C744 1.390 . S
C740 C734 1.465 . S
C740 C739 1.396 . S
C740 C741 1.399 . S
C741 H727 0.929 . S
C741 C740 1.399 . S
C741 C742 1.385 . S
C742 H728 0.931 . S
C742 C741 1.385 . S
C742 C743 1.389 . S
C743 C742 1.389 . S
C743 C744 1.387 . S
C744 H729 0.930 . S
C744 C739 1.390 . S
C744 C743 1.387 . S
H745 C757 0.930 . S
H746 C759 0.930 . S
H747 C760 0.930 . S
H748 C764 0.959 . S
H749 C764 0.959 . S
H750 C764 0.961 . S
H751 C765 0.960 . S
H752 C765 0.961 . S
H753 C765 0.959 . S
H754 C768 0.929 . S
H755 C769 0.931 . S
H756 C771 0.930 . S
C757 H745 0.930 . S
C757 C758 1.399 . S
C757 C762 1.399 . S
C758 C757 1.399 . S
C758 C759 1.376 . S
C759 H746 0.930 . S
C759 C758 1.376 . S
C759 C760 1.388 . S
C760 H747 0.930 . S
C760 C759 1.388 . S
C760 C761 1.390 . S
C761 C760 1.390 . S
C761 C762 1.394 . S
C761 C767 1.465 . S
C762 C757 1.399 . S
C762 C761 1.394 . S
C762 C763 1.516 . S
C763 C762 1.516 . S
C763 C764 1.502 . S
C763 C765 1.561 . S
C763 C766 1.526 . S
C764 H748 0.959 . S
C764 H749 0.959 . S
C764 H750 0.961 . S
C764 C763 1.502 . S
C765 H751 0.960 . S
C765 H752 0.961 . S
C765 H753 0.959 . S
C765 C763 1.561 . S
C766 C763 1.526 . S
C766 C767 1.396 . S
C766 C771 1.390 . S
C767 C761 1.465 . S
C767 C766 1.396 . S
C767 C768 1.399 . S
C768 H754 0.929 . S
C768 C767 1.399 . S
C768 C769 1.385 . S
C769 H755 0.931 . S
C769 C768 1.385 . S
C769 C770 1.389 . S
C770 C769 1.389 . S
C770 C771 1.387 . S
C771 H756 0.930 . S
C771 C766 1.390 . S
C771 C770 1.387 . S
H772 C784 0.930 . S
H773 C786 0.930 . S
H774 C787 0.930 . S
H775 C791 0.959 . S
H776 C791 0.959 . S
H777 C791 0.961 . S
H778 C792 0.960 . S
H779 C792 0.961 . S
H780 C792 0.959 . S
H781 C795 0.929 . S
H782 C796 0.931 . S
H783 C798 0.930 . S
C784 H772 0.930 . S
C784 C785 1.399 . S
C784 C789 1.399 . S
C785 C784 1.399 . S
C785 C786 1.376 . S
C786 H773 0.930 . S
C786 C785 1.376 . S
C786 C787 1.388 . S
C787 H774 0.930 . S
C787 C786 1.388 . S
C787 C788 1.390 . S
C788 C787 1.390 . S
C788 C789 1.394 . S
C788 C794 1.465 . S
C789 C784 1.399 . S
C789 C788 1.394 . S
C789 C790 1.516 . S
C790 C789 1.516 . S
C790 C791 1.502 . S
C790 C792 1.561 . S
C790 C793 1.526 . S
C791 H775 0.959 . S
C791 H776 0.959 . S
C791 H777 0.961 . S
C791 C790 1.502 . S
C792 H778 0.960 . S
C792 H779 0.961 . S
C792 H780 0.959 . S
C792 C790 1.561 . S
C793 C790 1.526 . S
C793 C794 1.396 . S
C793 C798 1.390 . S
C794 C788 1.465 . S
C794 C793 1.396 . S
C794 C795 1.399 . S
C795 H781 0.929 . S
C795 C794 1.399 . S
C795 C796 1.385 . S
C796 H782 0.931 . S
C796 C795 1.385 . S
C796 C797 1.389 . S
C797 C796 1.389 . S
C797 C798 1.387 . S
C798 H783 0.930 . S
C798 C793 1.390 . S
C798 C797 1.387 . S
H799 C811 0.930 . S
H800 C813 0.930 . S
H801 C814 0.930 . S
H802 C818 0.959 . S
H803 C818 0.959 . S
H804 C818 0.961 . S
H805 C819 0.960 . S
H806 C819 0.961 . S
H807 C819 0.959 . S
H808 C822 0.929 . S
H809 C823 0.931 . S
H810 C825 0.930 . S
C811 H799 0.930 . S
C811 C812 1.399 . S
C811 C816 1.399 . S
C812 C811 1.399 . S
C812 C813 1.376 . S
C813 H800 0.930 . S
C813 C812 1.376 . S
C813 C814 1.388 . S
C814 H801 0.930 . S
C814 C813 1.388 . S
C814 C815 1.390 . S
C815 C814 1.390 . S
C815 C816 1.394 . S
C815 C821 1.465 . S
C816 C811 1.399 . S
C816 C815 1.394 . S
C816 C817 1.516 . S
C817 C816 1.516 . S
C817 C818 1.502 . S
C817 C819 1.561 . S
C817 C820 1.526 . S
C818 H802 0.959 . S
C818 H803 0.959 . S
C818 H804 0.961 . S
C818 C817 1.502 . S
C819 H805 0.960 . S
C819 H806 0.961 . S
C819 H807 0.959 . S
C819 C817 1.561 . S
C820 C817 1.526 . S
C820 C821 1.396 . S
C820 C825 1.390 . S
C821 C815 1.465 . S
C821 C820 1.396 . S
C821 C822 1.399 . S
C822 H808 0.929 . S
C822 C821 1.399 . S
C822 C823 1.385 . S
C823 H809 0.931 . S
C823 C822 1.385 . S
C823 C824 1.389 . S
C824 C823 1.389 . S
C824 C825 1.387 . S
C825 H810 0.930 . S
C825 C820 1.390 . S
C825 C824 1.387 . S
H826 C838 0.930 . S
H827 C840 0.930 . S
H828 C841 0.930 . S
H829 C845 0.959 . S
H830 C845 0.959 . S
H831 C845 0.961 . S
H832 C846 0.960 . S
H833 C846 0.961 . S
H834 C846 0.959 . S
H835 C849 0.929 . S
H836 C850 0.931 . S
H837 C852 0.930 . S
C838 H826 0.930 . S
C838 C839 1.399 . S
C838 C843 1.399 . S
C839 C838 1.399 . S
C839 C840 1.376 . S
C840 H827 0.930 . S
C840 C839 1.376 . S
C840 C841 1.388 . S
C841 H828 0.930 . S
C841 C840 1.388 . S
C841 C842 1.390 . S
C842 C841 1.390 . S
C842 C843 1.394 . S
C842 C848 1.465 . S
C843 C838 1.399 . S
C843 C842 1.394 . S
C843 C844 1.516 . S
C844 C843 1.516 . S
C844 C845 1.502 . S
C844 C846 1.561 . S
C844 C847 1.526 . S
C845 H829 0.959 . S
C845 H830 0.959 . S
C845 H831 0.961 . S
C845 C844 1.502 . S
C846 H832 0.960 . S
C846 H833 0.961 . S
C846 H834 0.959 . S
C846 C844 1.561 . S
C847 C844 1.526 . S
C847 C848 1.396 . S
C847 C852 1.390 . S
C848 C842 1.465 . S
C848 C847 1.396 . S
C848 C849 1.399 . S
C849 H835 0.929 . S
C849 C848 1.399 . S
C849 C850 1.385 . S
C850 H836 0.931 . S
C850 C849 1.385 . S
C850 C851 1.389 . S
C851 C850 1.389 . S
C851 C852 1.387 . S
C852 H837 0.930 . S
C852 C847 1.390 . S
C852 C851 1.387 . S
H853 C865 0.930 . S
H854 C867 0.930 . S
H855 C868 0.930 . S
H856 C872 0.959 . S
H857 C872 0.959 . S
H858 C872 0.961 . S
H859 C873 0.960 . S
H860 C873 0.961 . S
H861 C873 0.959 . S
H862 C876 0.929 . S
H863 C877 0.931 . S
H864 C879 0.930 . S
C865 H853 0.930 . S
C865 C866 1.399 . S
C865 C870 1.399 . S
C866 C865 1.399 . S
C866 C867 1.376 . S
C867 H854 0.930 . S
C867 C866 1.376 . S
C867 C868 1.388 . S
C868 H855 0.930 . S
C868 C867 1.388 . S
C868 C869 1.390 . S
C869 C868 1.390 . S
C869 C870 1.394 . S
C869 C875 1.465 . S
C870 C865 1.399 . S
C870 C869 1.394 . S
C870 C871 1.516 . S
C871 C870 1.516 . S
C871 C872 1.502 . S
C871 C873 1.561 . S
C871 C874 1.526 . S
C872 H856 0.959 . S
C872 H857 0.959 . S
C872 H858 0.961 . S
C872 C871 1.502 . S
C873 H859 0.960 . S
C873 H860 0.961 . S
C873 H861 0.959 . S
C873 C871 1.561 . S
C874 C871 1.526 . S
C874 C875 1.396 . S
C874 C879 1.390 . S
C875 C869 1.465 . S
C875 C874 1.396 . S
C875 C876 1.399 . S
C876 H862 0.929 . S
C876 C875 1.399 . S
C876 C877 1.385 . S
C877 H863 0.931 . S
C877 C876 1.385 . S
C877 C878 1.389 . S
C878 C877 1.389 . S
C878 C879 1.387 . S
C879 H864 0.930 . S
C879 C874 1.390 . S
C879 C878 1.387 . S
H880 C892 0.930 . S
H881 C894 0.930 . S
H882 C895 0.930 . S
H883 C899 0.959 . S
H884 C899 0.959 . S
H885 C899 0.961 . S
H886 C900 0.960 . S
H887 C900 0.961 . S
H888 C900 0.959 . S
H889 C903 0.929 . S
H890 C904 0.931 . S
H891 C906 0.930 . S
C892 H880 0.930 . S
C892 C893 1.399 . S
C892 C897 1.399 . S
C893 C892 1.399 . S
C893 C894 1.376 . S
C894 H881 0.930 . S
C894 C893 1.376 . S
C894 C895 1.388 . S
C895 H882 0.930 . S
C895 C894 1.388 . S
C895 C896 1.390 . S
C896 C895 1.390 . S
C896 C897 1.394 . S
C896 C902 1.465 1_655 S
C897 C892 1.399 . S
C897 C896 1.394 . S
C897 C898 1.504 1_655 S
C898 C897 1.504 1_455 S
C898 C899 1.520 . S
C898 C900 1.543 1_455 S
C898 C901 1.536 . S
C899 H883 0.959 . S
C899 H884 0.959 . S
C899 H885 0.961 . S
C899 C898 1.520 . S
C900 H886 0.960 . S
C900 H887 0.961 . S
C900 H888 0.959 . S
C900 C898 1.543 1_655 S
C901 C898 1.536 . S
C901 C902 1.396 . S
C901 C906 1.390 . S
C902 C896 1.465 1_455 S
C902 C901 1.396 . S
C902 C903 1.399 . S
C903 H889 0.929 . S
C903 C902 1.399 . S
C903 C904 1.385 . S
C904 H890 0.931 . S
C904 C903 1.385 . S
C904 C905 1.389 . S
C905 C904 1.389 . S
C905 C906 1.387 . S
C906 H891 0.930 . S
C906 C901 1.390 . S
C906 C905 1.387 . S
H907 C919 0.930 . S
H908 C921 0.930 . S
H909 C922 0.930 . S
H910 C926 0.959 . S
H911 C926 0.959 . S
H912 C926 0.961 . S
H913 C927 0.982 . S
H914 C927 0.949 1_545 S
H915 C927 0.943 1_545 S
H916 C930 0.929 . S
H917 C931 0.931 . S
H918 C933 0.930 . S
C919 H907 0.930 . S
C919 C920 1.399 . S
C919 C924 1.399 . S
C920 C919 1.399 . S
C920 C921 1.376 . S
C921 H908 0.930 . S
C921 C920 1.376 . S
C921 C922 1.388 . S
C922 H909 0.930 . S
C922 C921 1.388 . S
C922 C923 1.390 . S
C923 C922 1.390 . S
C923 C924 1.394 . S
C923 C929 1.465 1_565 S
C924 C919 1.399 . S
C924 C923 1.394 . S
C924 C925 1.516 . S
C925 C924 1.516 . S
C925 C926 1.502 . S
C925 C927 1.568 . S
C925 C928 1.526 1_565 S
C926 H910 0.959 . S
C926 H911 0.959 . S
C926 H912 0.961 . S
C926 C925 1.502 . S
C927 H913 0.982 . S
C927 H914 0.949 1_565 S
C927 H915 0.943 1_565 S
C927 C925 1.568 . S
C928 C925 1.526 1_545 S
C928 C929 1.396 . S
C928 C933 1.390 . S
C929 C923 1.465 1_545 S
C929 C928 1.396 . S
C929 C930 1.399 . S
C930 H916 0.929 . S
C930 C929 1.399 . S
C930 C931 1.385 . S
C931 H917 0.931 . S
C931 C930 1.385 . S
C931 C932 1.389 . S
C932 C931 1.389 . S
C932 C933 1.387 . S
C933 H918 0.930 . S
C933 C928 1.390 . S
C933 C932 1.387 . S
H934 C946 0.930 . S
H935 C948 0.930 . S
H936 C949 0.930 . S
H937 C953 0.959 . S
H938 C953 0.959 1_545 S
H939 C953 0.961 . S
H940 C954 0.960 . S
H941 C954 0.961 . S
H942 C954 0.959 . S
H943 C957 0.929 . S
H944 C958 0.931 . S
H945 C960 0.930 . S
C946 H934 0.930 . S
C946 C947 1.399 1_554 S
C946 C951 1.399 . S
C947 C946 1.399 1_556 S
C947 C948 1.376 . S
C948 H935 0.930 . S
C948 C947 1.376 . S
C948 C949 1.388 . S
C949 H936 0.930 . S
C949 C948 1.388 . S
C949 C950 1.390 . S
C950 C949 1.390 . S
C950 C951 1.394 1_556 S
C950 C956 1.465 1_465 S
C951 C946 1.399 . S
C951 C950 1.394 1_554 S
C951 C952 1.516 1_565 S
C952 C951 1.516 1_545 S
C952 C953 1.502 1_445 S
C952 C954 1.561 . S
C952 C955 1.526 1_455 S
C953 H937 0.959 . S
C953 H938 0.959 1_565 S
C953 H939 0.961 . S
C953 C952 1.502 1_665 S
C954 H940 0.960 . S
C954 H941 0.961 . S
C954 H942 0.959 . S
C954 C952 1.561 . S
C955 C952 1.526 1_655 S
C955 C956 1.396 1_554 S
C955 C960 1.390 . S
C956 C950 1.465 1_645 S
C956 C955 1.396 1_556 S
C956 C957 1.399 . S
C957 H943 0.929 . S
C957 C956 1.399 . S
C957 C958 1.385 . S
C958 H944 0.931 . S
C958 C957 1.385 . S
C958 C959 1.400 . S
C959 C958 1.400 . S
C959 C960 1.379 1_556 S
C960 H945 0.930 . S
C960 C955 1.390 . S
C960 C959 1.379 1_554 S
H961 C973 0.930 . S
H962 C975 0.930 . S
H963 C976 0.930 . S
H964 C980 0.959 . S
H965 C980 0.959 . S
H966 C980 0.961 . S
H967 C981 0.960 . S
H968 C981 0.961 . S
H969 C981 0.959 . S
H970 C984 0.929 . S
H971 C985 0.931 . S
H972 C987 0.930 . S
C973 H961 0.930 . S
C973 C974 1.399 1_556 S
C973 C978 1.399 . S
C974 C973 1.399 1_554 S
C974 C975 1.376 . S
C975 H962 0.930 . S
C975 C974 1.376 . S
C975 C976 1.388 . S
C976 H963 0.930 . S
C976 C975 1.388 . S
C976 C977 1.390 . S
C977 C976 1.390 . S
C977 C978 1.394 1_554 S
C977 C983 1.465 . S
C978 C973 1.399 . S
C978 C977 1.394 1_556 S
C978 C979 1.516 . S
C979 C978 1.516 . S
C979 C980 1.502 . S
C979 C981 1.561 . S
C979 C982 1.526 . S
C980 H964 0.959 . S
C980 H965 0.959 . S
C980 H966 0.961 . S
C980 C979 1.502 . S
C981 H967 0.960 . S
C981 H968 0.961 . S
C981 H969 0.959 . S
C981 C979 1.561 . S
C982 C979 1.526 . S
C982 C983 1.396 1_556 S
C982 C987 1.390 . S
C983 C977 1.465 . S
C983 C982 1.396 1_554 S
C983 C984 1.399 . S
C984 H970 0.929 . S
C984 C983 1.399 . S
C984 C985 1.385 . S
C985 H971 0.931 . S
C985 C984 1.385 . S
C985 C986 1.394 1_554 S
C986 C985 1.394 1_556 S
C986 C987 1.383 . S
C987 H972 0.930 . S
C987 C982 1.390 . S
C987 C986 1.383 . S
H988 C1000 0.930 . S
H989 C1002 0.930 . S
H990 C1003 0.930 . S
H991 C1007 0.959 . S
H992 C1007 0.959 . S
H993 C1007 0.961 . S
H994 C1008 0.960 . S
H995 C1008 0.961 . S
H996 C1008 0.959 . S
H997 C1011 0.929 . S
H998 C1012 0.931 . S
H999 C1014 0.930 . S
C1000 H988 0.930 . S
C1000 C1001 1.399 . S
C1000 C1005 1.399 . S
C1001 C1000 1.399 . S
C1001 C1002 1.376 . S
C1002 H989 0.930 . S
C1002 C1001 1.376 . S
C1002 C1003 1.388 . S
C1003 H990 0.930 . S
C1003 C1002 1.388 . S
C1003 C1004 1.390 . S
C1004 C1003 1.390 . S
C1004 C1005 1.394 . S
C1004 C1010 1.465 1_655 S
C1005 C1000 1.399 . S
C1005 C1004 1.394 . S
C1005 C1006 1.516 1_655 S
C1006 C1005 1.516 1_455 S
C1006 C1007 1.502 . S
C1006 C1008 1.561 1_455 S
C1006 C1009 1.526 . S
C1007 H991 0.959 . S
C1007 H992 0.959 . S
C1007 H993 0.961 . S
C1007 C1006 1.502 . S
C1008 H994 0.960 . S
C1008 H995 0.961 . S
C1008 H996 0.959 . S
C1008 C1006 1.561 1_655 S
C1009 C1006 1.526 . S
C1009 C1010 1.396 . S
C1009 C1014 1.390 . S
C1010 C1004 1.465 1_455 S
C1010 C1009 1.396 . S
C1010 C1011 1.399 . S
C1011 H997 0.929 . S
C1011 C1010 1.399 . S
C1011 C1012 1.385 . S
C1012 H998 0.931 . S
C1012 C1011 1.385 . S
C1012 C1013 1.389 . S
C1013 C1012 1.389 . S
C1013 C1014 1.387 . S
C1014 H999 0.930 . S
C1014 C1009 1.390 . S
C1014 C1013 1.387 . S
H1015 C1027 0.930 . S
H1016 C1029 0.930 . S
H1017 C1030 0.930 . S
H1018 C1034 0.959 . S
H1019 C1034 0.959 1_545 S
H1020 C1034 0.961 . S
H1021 C1035 0.960 . S
H1022 C1035 0.961 . S
H1023 C1035 0.959 . S
H1024 C1038 0.929 . S
H1025 C1039 0.931 . S
H1026 C1041 0.930 . S
C1027 H1015 0.930 . S
C1027 C1028 1.399 . S
C1027 C1032 1.399 . S
C1028 C1027 1.399 . S
C1028 C1029 1.376 . S
C1029 H1016 0.930 . S
C1029 C1028 1.376 . S
C1029 C1030 1.388 . S
C1030 H1017 0.930 . S
C1030 C1029 1.388 . S
C1030 C1031 1.390 . S
C1031 C1030 1.390 . S
C1031 C1032 1.394 . S
C1031 C1037 1.465 1_565 S
C1032 C1027 1.399 . S
C1032 C1031 1.394 . S
C1032 C1033 1.516 1_565 S
C1033 C1032 1.516 1_545 S
C1033 C1034 1.502 1_545 S
C1033 C1035 1.561 . S
C1033 C1036 1.526 . S
C1034 H1018 0.959 . S
C1034 H1019 0.959 1_565 S
C1034 H1020 0.961 . S
C1034 C1033 1.502 1_565 S
C1035 H1021 0.960 . S
C1035 H1022 0.961 . S
C1035 H1023 0.959 . S
C1035 C1033 1.561 . S
C1036 C1033 1.526 . S
C1036 C1037 1.396 . S
C1036 C1041 1.390 . S
C1037 C1031 1.465 1_545 S
C1037 C1036 1.396 . S
C1037 C1038 1.399 . S
C1038 H1024 0.929 . S
C1038 C1037 1.399 . S
C1038 C1039 1.385 . S
C1039 H1025 0.931 . S
C1039 C1038 1.385 . S
C1039 C1040 1.389 . S
C1040 C1039 1.389 . S
C1040 C1041 1.387 . S
C1041 H1026 0.930 . S
C1041 C1036 1.390 . S
C1041 C1040 1.387 . S
H1042 C1054 0.930 . S
H1043 C1056 0.930 . S
H1044 C1057 0.930 . S
H1045 C1061 0.959 . S
H1046 C1061 0.959 . S
H1047 C1061 0.961 . S
H1048 C1062 0.960 . S
H1049 C1062 0.961 . S
H1050 C1062 0.959 . S
H1051 C1065 0.929 . S
H1052 C1066 0.931 . S
H1053 C1068 0.930 . S
C1054 H1042 0.930 . S
C1054 C1055 1.399 1_554 S
C1054 C1059 1.399 . S
C1055 C1054 1.399 1_556 S
C1055 C1056 1.376 . S
C1056 H1043 0.930 . S
C1056 C1055 1.376 . S
C1056 C1057 1.388 . S
C1057 H1044 0.930 . S
C1057 C1056 1.388 . S
C1057 C1058 1.390 . S
C1058 C1057 1.390 . S
C1058 C1059 1.394 1_556 S
C1058 C1064 1.465 . S
C1059 C1054 1.399 . S
C1059 C1058 1.394 1_554 S
C1059 C1060 1.516 . S
C1060 C1059 1.516 . S
C1060 C1061 1.502 . S
C1060 C1062 1.561 . S
C1060 C1063 1.526 . S
C1061 H1045 0.959 . S
C1061 H1046 0.959 . S
C1061 H1047 0.961 . S
C1061 C1060 1.502 . S
C1062 H1048 0.960 . S
C1062 H1049 0.961 . S
C1062 H1050 0.959 . S
C1062 C1060 1.561 . S
C1063 C1060 1.526 . S
C1063 C1064 1.396 1_554 S
C1063 C1068 1.390 . S
C1064 C1058 1.465 . S
C1064 C1063 1.396 1_556 S
C1064 C1065 1.399 . S
C1065 H1051 0.929 . S
C1065 C1064 1.399 . S
C1065 C1066 1.385 . S
C1066 H1052 0.931 . S
C1066 C1065 1.385 . S
C1066 C1067 1.381 1_556 S
C1067 C1066 1.381 1_554 S
C1067 C1068 1.394 . S
C1068 H1053 0.930 . S
C1068 C1063 1.390 . S
C1068 C1067 1.394 . S
H1069 C1081 0.930 . S
H1070 C1083 0.930 . S
H1071 C1084 0.930 . S
H1072 C1088 0.959 . S
H1073 C1088 0.959 . S
H1074 C1088 0.961 . S
H1075 C1089 0.960 . S
H1076 C1089 0.961 . S
H1077 C1089 0.959 . S
H1078 C1092 0.929 . S
H1079 C1093 0.931 . S
H1080 C1095 0.930 . S
C1081 H1069 0.930 . S
C1081 C1082 1.399 . S
C1081 C1086 1.399 . S
C1082 C1081 1.399 . S
C1082 C1083 1.376 . S
C1083 H1070 0.930 . S
C1083 C1082 1.376 . S
C1083 C1084 1.388 . S
C1084 H1071 0.930 . S
C1084 C1083 1.388 . S
C1084 C1085 1.390 . S
C1085 C1084 1.390 . S
C1085 C1086 1.394 . S
C1085 C1091 1.465 . S
C1086 C1081 1.399 . S
C1086 C1085 1.394 . S
C1086 C1087 1.516 . S
C1087 C1086 1.516 . S
C1087 C1088 1.502 . S
C1087 C1089 1.561 . S
C1087 C1090 1.526 . S
C1088 H1072 0.959 . S
C1088 H1073 0.959 . S
C1088 H1074 0.961 . S
C1088 C1087 1.502 . S
C1089 H1075 0.960 . S
C1089 H1076 0.961 . S
C1089 H1077 0.959 . S
C1089 C1087 1.561 . S
C1090 C1087 1.526 . S
C1090 C1091 1.396 . S
C1090 C1095 1.390 . S
C1091 C1085 1.465 . S
C1091 C1090 1.396 . S
C1091 C1092 1.399 . S
C1092 H1078 0.929 . S
C1092 C1091 1.399 . S
C1092 C1093 1.385 . S
C1093 H1079 0.931 . S
C1093 C1092 1.385 . S
C1093 C1094 1.389 . S
C1094 C1093 1.389 . S
C1094 C1095 1.387 . S
C1095 H1080 0.930 . S
C1095 C1090 1.390 . S
C1095 C1094 1.387 . S
H1096 C1108 0.930 . S
H1097 C1110 0.930 . S
H1098 C1111 0.930 . S
H1099 C1115 0.959 . S
H1100 C1115 0.959 . S
H1101 C1115 0.961 . S
H1102 C1116 0.960 . S
H1103 C1116 0.961 1_455 S
H1104 C1116 0.959 . S
H1105 C1119 0.929 1_655 S
H1106 C1120 0.931 . S
H1107 C1122 0.930 . S
C1108 H1096 0.930 . S
C1108 C1109 1.399 . S
C1108 C1113 1.399 . S
C1109 C1108 1.399 . S
C1109 C1110 1.376 . S
C1110 H1097 0.930 . S
C1110 C1109 1.376 . S
C1110 C1111 1.388 . S
C1111 H1098 0.930 . S
C1111 C1110 1.388 . S
C1111 C1112 1.390 . S
C1112 C1111 1.390 . S
C1112 C1113 1.394 . S
C1112 C1118 1.465 1_655 S
C1113 C1108 1.399 . S
C1113 C1112 1.394 . S
C1113 C1114 1.516 1_655 S
C1114 C1113 1.516 1_455 S
C1114 C1115 1.502 . S
C1114 C1116 1.561 1_455 S
C1114 C1117 1.526 . S
C1115 H1099 0.959 . S
C1115 H1100 0.959 . S
C1115 H1101 0.961 . S
C1115 C1114 1.502 . S
C1116 H1102 0.960 . S
C1116 H1103 0.961 1_655 S
C1116 H1104 0.959 . S
C1116 C1114 1.561 1_655 S
C1117 C1114 1.526 . S
C1117 C1118 1.396 . S
C1117 C1122 1.390 . S
C1118 C1112 1.465 1_455 S
C1118 C1117 1.396 . S
C1118 C1119 1.399 . S
C1119 H1105 0.929 1_455 S
C1119 C1118 1.399 . S
C1119 C1120 1.385 . S
C1120 H1106 0.931 . S
C1120 C1119 1.385 . S
C1120 C1121 1.389 . S
C1121 C1120 1.389 . S
C1121 C1122 1.387 . S
C1122 H1107 0.930 . S
C1122 C1117 1.390 . S
C1122 C1121 1.387 . S
H1123 C1135 0.930 . S
H1124 C1137 0.930 . S
H1125 C1138 0.930 . S
H1126 C1142 0.959 . S
H1127 C1142 0.959 . S
H1128 C1142 0.961 . S
H1129 C1143 0.960 . S
H1130 C1143 0.961 . S
H1131 C1143 0.959 . S
H1132 C1146 0.929 . S
H1133 C1147 0.931 . S
H1134 C1149 0.930 . S
C1135 H1123 0.930 . S
C1135 C1136 1.399 . S
C1135 C1140 1.399 . S
C1136 C1135 1.399 . S
C1136 C1137 1.376 . S
C1137 H1124 0.930 . S
C1137 C1136 1.376 . S
C1137 C1138 1.388 . S
C1138 H1125 0.930 . S
C1138 C1137 1.388 . S
C1138 C1139 1.390 . S
C1139 C1138 1.390 . S
C1139 C1140 1.394 . S
C1139 C1145 1.465 . S
C1140 C1135 1.399 . S
C1140 C1139 1.394 . S
C1140 C1141 1.516 . S
C1141 C1140 1.516 . S
C1141 C1142 1.502 . S
C1141 C1143 1.561 . S
C1141 C1144 1.526 . S
C1142 H1126 0.959 . S
C1142 H1127 0.959 . S
C1142 H1128 0.961 . S
C1142 C1141 1.502 . S
C1143 H1129 0.960 . S
C1143 H1130 0.961 . S
C1143 H1131 0.959 . S
C1143 C1141 1.561 . S
C1144 C1141 1.526 . S
C1144 C1145 1.396 . S
C1144 C1149 1.390 . S
C1145 C1139 1.465 . S
C1145 C1144 1.396 . S
C1145 C1146 1.399 . S
C1146 H1132 0.929 . S
C1146 C1145 1.399 . S
C1146 C1147 1.385 . S
C1147 H1133 0.931 . S
C1147 C1146 1.385 . S
C1147 C1148 1.389 . S
C1148 C1147 1.389 . S
C1148 C1149 1.387 . S
C1149 H1134 0.930 . S
C1149 C1144 1.390 . S
C1149 C1148 1.387 . S
H1150 C1162 0.930 . S
H1151 C1164 0.930 . S
H1152 C1165 0.930 . S
H1153 C1169 0.959 . S
H1154 C1169 0.959 . S
H1155 C1169 0.961 . S
H1156 C1170 0.960 . S
H1157 C1170 0.961 . S
H1158 C1170 0.959 . S
H1159 C1173 0.929 . S
H1160 C1174 0.931 . S
H1161 C1176 0.930 . S
C1162 H1150 0.930 . S
C1162 C1163 1.399 . S
C1162 C1167 1.399 . S
C1163 C1162 1.399 . S
C1163 C1164 1.376 . S
C1164 H1151 0.930 . S
C1164 C1163 1.376 . S
C1164 C1165 1.388 . S
C1165 H1152 0.930 . S
C1165 C1164 1.388 . S
C1165 C1166 1.390 . S
C1166 C1165 1.390 . S
C1166 C1167 1.394 . S
C1166 C1172 1.465 . S
C1167 C1162 1.399 . S
C1167 C1166 1.394 . S
C1167 C1168 1.516 . S
C1168 C1167 1.516 . S
C1168 C1169 1.502 . S
C1168 C1170 1.561 . S
C1168 C1171 1.526 . S
C1169 H1153 0.959 . S
C1169 H1154 0.959 . S
C1169 H1155 0.961 . S
C1169 C1168 1.502 . S
C1170 H1156 0.960 . S
C1170 H1157 0.961 . S
C1170 H1158 0.959 . S
C1170 C1168 1.561 . S
C1171 C1168 1.526 . S
C1171 C1172 1.396 . S
C1171 C1176 1.390 . S
C1172 C1166 1.465 . S
C1172 C1171 1.396 . S
C1172 C1173 1.399 . S
C1173 H1159 0.929 . S
C1173 C1172 1.399 . S
C1173 C1174 1.385 . S
C1174 H1160 0.931 . S
C1174 C1173 1.385 . S
C1174 C1175 1.389 . S
C1175 C1174 1.389 . S
C1175 C1176 1.387 . S
C1176 H1161 0.930 . S
C1176 C1171 1.390 . S
C1176 C1175 1.387 . S
H1177 C1189 0.930 . S
H1178 C1191 0.930 . S
H1179 C1192 0.930 . S
H1180 C1196 0.959 . S
H1181 C1196 0.959 . S
H1182 C1196 0.961 . S
H1183 C1197 0.960 . S
H1184 C1197 0.961 . S
H1185 C1197 0.959 . S
H1186 C1200 0.929 . S
H1187 C1201 0.931 . S
H1188 C1203 0.930 . S
C1189 H1177 0.930 . S
C1189 C1190 1.399 . S
C1189 C1194 1.399 . S
C1190 C1189 1.399 . S
C1190 C1191 1.376 . S
C1191 H1178 0.930 . S
C1191 C1190 1.376 . S
C1191 C1192 1.388 . S
C1192 H1179 0.930 . S
C1192 C1191 1.388 . S
C1192 C1193 1.390 . S
C1193 C1192 1.390 . S
C1193 C1194 1.394 . S
C1193 C1199 1.465 . S
C1194 C1189 1.399 . S
C1194 C1193 1.394 . S
C1194 C1195 1.516 . S
C1195 C1194 1.516 . S
C1195 C1196 1.502 . S
C1195 C1197 1.561 . S
C1195 C1198 1.526 . S
C1196 H1180 0.959 . S
C1196 H1181 0.959 . S
C1196 H1182 0.961 . S
C1196 C1195 1.502 . S
C1197 H1183 0.960 . S
C1197 H1184 0.961 . S
C1197 H1185 0.959 . S
C1197 C1195 1.561 . S
C1198 C1195 1.526 . S
C1198 C1199 1.396 . S
C1198 C1203 1.390 . S
C1199 C1193 1.465 . S
C1199 C1198 1.396 . S
C1199 C1200 1.399 . S
C1200 H1186 0.929 . S
C1200 C1199 1.399 . S
C1200 C1201 1.385 . S
C1201 H1187 0.931 . S
C1201 C1200 1.385 . S
C1201 C1202 1.389 . S
C1202 C1201 1.389 . S
C1202 C1203 1.387 . S
C1203 H1188 0.930 . S
C1203 C1198 1.390 . S
C1203 C1202 1.387 . S
H1204 C1216 0.930 . S
H1205 C1218 0.930 . S
H1206 C1219 0.930 . S
H1207 C1223 0.959 . S
H1208 C1223 0.959 . S
H1209 C1223 0.961 . S
H1210 C1224 0.960 . S
H1211 C1224 0.961 . S
H1212 C1224 0.959 . S
H1213 C1227 0.929 . S
H1214 C1228 0.931 . S
H1215 C1230 0.930 . S
C1216 H1204 0.930 . S
C1216 C1217 1.399 . S
C1216 C1221 1.399 . S
C1217 C1216 1.399 . S
C1217 C1218 1.376 . S
C1218 H1205 0.930 . S
C1218 C1217 1.376 . S
C1218 C1219 1.388 . S
C1219 H1206 0.930 . S
C1219 C1218 1.388 . S
C1219 C1220 1.390 . S
C1220 C1219 1.390 . S
C1220 C1221 1.394 . S
C1220 C1226 1.465 . S
C1221 C1216 1.399 . S
C1221 C1220 1.394 . S
C1221 C1222 1.516 . S
C1222 C1221 1.516 . S
C1222 C1223 1.502 . S
C1222 C1224 1.561 . S
C1222 C1225 1.526 . S
C1223 H1207 0.959 . S
C1223 H1208 0.959 . S
C1223 H1209 0.961 . S
C1223 C1222 1.502 . S
C1224 H1210 0.960 . S
C1224 H1211 0.961 . S
C1224 H1212 0.959 . S
C1224 C1222 1.561 . S
C1225 C1222 1.526 . S
C1225 C1226 1.396 . S
C1225 C1230 1.390 . S
C1226 C1220 1.465 . S
C1226 C1225 1.396 . S
C1226 C1227 1.399 . S
C1227 H1213 0.929 . S
C1227 C1226 1.399 . S
C1227 C1228 1.385 . S
C1228 H1214 0.931 . S
C1228 C1227 1.385 . S
C1228 C1229 1.389 . S
C1229 C1228 1.389 . S
C1229 C1230 1.387 . S
C1230 H1215 0.930 . S
C1230 C1225 1.390 . S
C1230 C1229 1.387 . S
H1231 C1243 0.930 . S
H1232 C1245 0.930 . S
H1233 C1246 0.930 . S
H1234 C1250 0.959 . S
H1235 C1250 0.959 . S
H1236 C1250 0.961 . S
H1237 C1251 0.960 1_545 S
H1238 C1251 0.961 . S
H1239 C1251 0.959 . S
H1240 C1254 0.929 . S
H1241 C1255 0.931 . S
H1242 C1257 0.930 . S
C1243 H1231 0.930 . S
C1243 C1244 1.399 . S
C1243 C1248 1.399 . S
C1244 C1243 1.399 . S
C1244 C1245 1.376 . S
C1245 H1232 0.930 . S
C1245 C1244 1.376 . S
C1245 C1246 1.388 . S
C1246 H1233 0.930 . S
C1246 C1245 1.388 . S
C1246 C1247 1.390 . S
C1247 C1246 1.390 . S
C1247 C1248 1.394 . S
C1247 C1253 1.465 1_545 S
C1248 C1243 1.399 . S
C1248 C1247 1.394 . S
C1248 C1249 1.516 . S
C1249 C1248 1.516 . S
C1249 C1250 1.502 . S
C1249 C1251 1.561 1_545 S
C1249 C1252 1.526 1_545 S
C1250 H1234 0.959 . S
C1250 H1235 0.959 . S
C1250 H1236 0.961 . S
C1250 C1249 1.502 . S
C1251 H1237 0.960 1_565 S
C1251 H1238 0.961 . S
C1251 H1239 0.959 . S
C1251 C1249 1.561 1_565 S
C1252 C1249 1.526 1_565 S
C1252 C1253 1.396 . S
C1252 C1257 1.390 . S
C1253 C1247 1.465 1_565 S
C1253 C1252 1.396 . S
C1253 C1254 1.399 . S
C1254 H1240 0.929 . S
C1254 C1253 1.399 . S
C1254 C1255 1.385 . S
C1255 H1241 0.931 . S
C1255 C1254 1.385 . S
C1255 C1256 1.389 . S
C1256 C1255 1.389 . S
C1256 C1257 1.387 . S
C1257 H1242 0.930 . S
C1257 C1252 1.390 . S
C1257 C1256 1.387 . S
H1258 C1270 0.930 . S
H1259 C1272 0.930 . S
H1260 C1273 0.930 . S
H1261 C1277 0.959 . S
H1262 C1277 0.959 . S
H1263 C1277 0.961 . S
H1264 C1278 0.960 . S
H1265 C1278 0.961 . S
H1266 C1278 0.959 . S
H1267 C1281 0.929 . S
H1268 C1282 0.931 . S
H1269 C1284 0.930 . S
C1270 H1258 0.930 . S
C1270 C1271 1.399 . S
C1270 C1275 1.399 . S
C1271 C1270 1.399 . S
C1271 C1272 1.376 . S
C1272 H1259 0.930 . S
C1272 C1271 1.376 . S
C1272 C1273 1.388 . S
C1273 H1260 0.930 . S
C1273 C1272 1.388 . S
C1273 C1274 1.390 . S
C1274 C1273 1.390 . S
C1274 C1275 1.394 . S
C1274 C1280 1.465 . S
C1275 C1270 1.399 . S
C1275 C1274 1.394 . S
C1275 C1276 1.516 . S
C1276 C1275 1.516 . S
C1276 C1277 1.502 . S
C1276 C1278 1.561 . S
C1276 C1279 1.526 . S
C1277 H1261 0.959 . S
C1277 H1262 0.959 . S
C1277 H1263 0.961 . S
C1277 C1276 1.502 . S
C1278 H1264 0.960 . S
C1278 H1265 0.961 . S
C1278 H1266 0.959 . S
C1278 C1276 1.561 . S
C1279 C1276 1.526 . S
C1279 C1280 1.396 . S
C1279 C1284 1.390 . S
C1280 C1274 1.465 . S
C1280 C1279 1.396 . S
C1280 C1281 1.399 . S
C1281 H1267 0.929 . S
C1281 C1280 1.399 . S
C1281 C1282 1.385 . S
C1282 H1268 0.931 . S
C1282 C1281 1.385 . S
C1282 C1283 1.389 . S
C1283 C1282 1.389 . S
C1283 C1284 1.387 . S
C1284 H1269 0.930 . S
C1284 C1279 1.390 . S
C1284 C1283 1.387 . S
H1285 C1297 0.930 . S
H1286 C1299 0.930 . S
H1287 C1300 0.930 . S
H1288 C1304 0.959 . S
H1289 C1304 0.959 . S
H1290 C1304 0.961 . S
H1291 C1305 0.960 . S
H1292 C1305 0.961 . S
H1293 C1305 0.959 . S
H1294 C1308 0.929 . S
H1295 C1309 0.931 . S
H1296 C1311 0.930 . S
C1297 H1285 0.930 . S
C1297 C1298 1.399 1_554 S
C1297 C1302 1.399 . S
C1298 C1297 1.399 1_556 S
C1298 C1299 1.376 . S
C1299 H1286 0.930 . S
C1299 C1298 1.376 . S
C1299 C1300 1.388 . S
C1300 H1287 0.930 . S
C1300 C1299 1.388 . S
C1300 C1301 1.390 . S
C1301 C1300 1.390 . S
C1301 C1302 1.394 1_556 S
C1301 C1307 1.465 . S
C1302 C1297 1.399 . S
C1302 C1301 1.394 1_554 S
C1302 C1303 1.516 . S
C1303 C1302 1.516 . S
C1303 C1304 1.502 . S
C1303 C1305 1.561 . S
C1303 C1306 1.526 . S
C1304 H1288 0.959 . S
C1304 H1289 0.959 . S
C1304 H1290 0.961 . S
C1304 C1303 1.502 . S
C1305 H1291 0.960 . S
C1305 H1292 0.961 . S
C1305 H1293 0.959 . S
C1305 C1303 1.561 . S
C1306 C1303 1.526 . S
C1306 C1307 1.396 1_554 S
C1306 C1311 1.390 . S
C1307 C1301 1.465 . S
C1307 C1306 1.396 1_556 S
C1307 C1308 1.399 . S
C1308 H1294 0.929 . S
C1308 C1307 1.399 . S
C1308 C1309 1.385 . S
C1309 H1295 0.931 . S
C1309 C1308 1.385 . S
C1309 C1310 1.394 . S
C1310 C1309 1.394 . S
C1310 C1311 1.383 1_556 S
C1311 H1296 0.930 . S
C1311 C1306 1.390 . S
C1311 C1310 1.383 1_554 S
H1312 C1324 0.930 . S
H1313 C1326 0.930 . S
H1314 C1327 0.930 . S
H1315 C1331 0.959 . S
H1316 C1331 0.959 . S
H1317 C1331 0.961 . S
H1318 C1332 0.960 . S
H1319 C1332 0.961 . S
H1320 C1332 0.959 . S
H1321 C1335 0.929 . S
H1322 C1336 0.931 . S
H1323 C1338 0.930 . S
C1324 H1312 0.930 . S
C1324 C1325 1.399 . S
C1324 C1329 1.399 . S
C1325 C1324 1.399 . S
C1325 C1326 1.376 . S
C1326 H1313 0.930 . S
C1326 C1325 1.376 . S
C1326 C1327 1.388 . S
C1327 H1314 0.930 . S
C1327 C1326 1.388 . S
C1327 C1328 1.390 . S
C1328 C1327 1.390 . S
C1328 C1329 1.394 . S
C1328 C1334 1.465 . S
C1329 C1324 1.399 . S
C1329 C1328 1.394 . S
C1329 C1330 1.516 . S
C1330 C1329 1.516 . S
C1330 C1331 1.502 . S
C1330 C1332 1.561 . S
C1330 C1333 1.526 . S
C1331 H1315 0.959 . S
C1331 H1316 0.959 . S
C1331 H1317 0.961 . S
C1331 C1330 1.502 . S
C1332 H1318 0.960 . S
C1332 H1319 0.961 . S
C1332 H1320 0.959 . S
C1332 C1330 1.561 . S
C1333 C1330 1.526 . S
C1333 C1334 1.396 . S
C1333 C1338 1.390 . S
C1334 C1328 1.465 . S
C1334 C1333 1.396 . S
C1334 C1335 1.399 . S
C1335 H1321 0.929 . S
C1335 C1334 1.399 . S
C1335 C1336 1.385 . S
C1336 H1322 0.931 . S
C1336 C1335 1.385 . S
C1336 C1337 1.389 . S
C1337 C1336 1.389 . S
C1337 C1338 1.387 . S
C1338 H1323 0.930 . S
C1338 C1333 1.390 . S
C1338 C1337 1.387 . S
H1339 C1351 0.930 . S
H1340 C1353 0.930 . S
H1341 C1354 0.930 . S
H1342 C1358 0.959 . S
H1343 C1358 0.959 . S
H1344 C1358 0.961 . S
H1345 C1359 0.960 . S
H1346 C1359 0.961 . S
H1347 C1359 0.959 . S
H1348 C1362 0.929 . S
H1349 C1363 0.931 . S
H1350 C1365 0.930 . S
C1351 H1339 0.930 . S
C1351 C1352 1.399 . S
C1351 C1356 1.399 . S
C1352 C1351 1.399 . S
C1352 C1353 1.376 . S
C1353 H1340 0.930 . S
C1353 C1352 1.376 . S
C1353 C1354 1.388 . S
C1354 H1341 0.930 . S
C1354 C1353 1.388 . S
C1354 C1355 1.390 . S
C1355 C1354 1.390 . S
C1355 C1356 1.394 . S
C1355 C1361 1.465 . S
C1356 C1351 1.399 . S
C1356 C1355 1.394 . S
C1356 C1357 1.516 . S
C1357 C1356 1.516 . S
C1357 C1358 1.502 . S
C1357 C1359 1.561 . S
C1357 C1360 1.526 . S
C1358 H1342 0.959 . S
C1358 H1343 0.959 . S
C1358 H1344 0.961 . S
C1358 C1357 1.502 . S
C1359 H1345 0.960 . S
C1359 H1346 0.961 . S
C1359 H1347 0.959 . S
C1359 C1357 1.561 . S
C1360 C1357 1.526 . S
C1360 C1361 1.396 . S
C1360 C1365 1.390 . S
C1361 C1355 1.465 . S
C1361 C1360 1.396 . S
C1361 C1362 1.399 . S
C1362 H1348 0.929 . S
C1362 C1361 1.399 . S
C1362 C1363 1.385 . S
C1363 H1349 0.931 . S
C1363 C1362 1.385 . S
C1363 C1364 1.389 . S
C1364 C1363 1.389 . S
C1364 C1365 1.387 . S
C1365 H1350 0.930 . S
C1365 C1360 1.390 . S
C1365 C1364 1.387 . S
H1366 C1378 0.930 . S
H1367 C1380 0.930 . S
H1368 C1381 0.930 . S
H1369 C1385 0.959 . S
H1370 C1385 0.959 . S
H1371 C1385 0.961 . S
H1372 C1386 0.960 . S
H1373 C1386 0.961 . S
H1374 C1386 0.959 . S
H1375 C1389 0.929 . S
H1376 C1390 0.931 . S
H1377 C1392 0.930 . S
C1378 H1366 0.930 . S
C1378 C1379 1.399 . S
C1378 C1383 1.399 . S
C1379 C1378 1.399 . S
C1379 C1380 1.376 . S
C1380 H1367 0.930 . S
C1380 C1379 1.376 . S
C1380 C1381 1.388 . S
C1381 H1368 0.930 . S
C1381 C1380 1.388 . S
C1381 C1382 1.390 . S
C1382 C1381 1.390 . S
C1382 C1383 1.394 . S
C1382 C1388 1.465 . S
C1383 C1378 1.399 . S
C1383 C1382 1.394 . S
C1383 C1384 1.516 . S
C1384 C1383 1.516 . S
C1384 C1385 1.502 . S
C1384 C1386 1.561 . S
C1384 C1387 1.526 . S
C1385 H1369 0.959 . S
C1385 H1370 0.959 . S
C1385 H1371 0.961 . S
C1385 C1384 1.502 . S
C1386 H1372 0.960 . S
C1386 H1373 0.961 . S
C1386 H1374 0.959 . S
C1386 C1384 1.561 . S
C1387 C1384 1.526 . S
C1387 C1388 1.396 . S
C1387 C1392 1.390 . S
C1388 C1382 1.465 . S
C1388 C1387 1.396 . S
C1388 C1389 1.399 . S
C1389 H1375 0.929 . S
C1389 C1388 1.399 . S
C1389 C1390 1.385 . S
C1390 H1376 0.931 . S
C1390 C1389 1.385 . S
C1390 C1391 1.389 . S
C1391 C1390 1.389 . S
C1391 C1392 1.387 . S
C1392 H1377 0.930 . S
C1392 C1387 1.390 . S
C1392 C1391 1.387 . S
H1393 C1405 0.930 . S
H1394 C1407 0.930 . S
H1395 C1408 0.930 . S
H1396 C1412 0.959 . S
H1397 C1412 0.959 . S
H1398 C1412 0.961 . S
H1399 C1413 0.960 . S
H1400 C1413 0.961 . S
H1401 C1413 0.959 . S
H1402 C1416 0.929 . S
H1403 C1417 0.931 . S
H1404 C1419 0.930 . S
C1405 H1393 0.930 . S
C1405 C1406 1.399 . S
C1405 C1410 1.399 . S
C1406 C1405 1.399 . S
C1406 C1407 1.376 . S
C1407 H1394 0.930 . S
C1407 C1406 1.376 . S
C1407 C1408 1.388 . S
C1408 H1395 0.930 . S
C1408 C1407 1.388 . S
C1408 C1409 1.390 . S
C1409 C1408 1.390 . S
C1409 C1410 1.394 . S
C1409 C1415 1.465 . S
C1410 C1405 1.399 . S
C1410 C1409 1.394 . S
C1410 C1411 1.516 . S
C1411 C1410 1.516 . S
C1411 C1412 1.502 . S
C1411 C1413 1.561 . S
C1411 C1414 1.526 . S
C1412 H1396 0.959 . S
C1412 H1397 0.959 . S
C1412 H1398 0.961 . S
C1412 C1411 1.502 . S
C1413 H1399 0.960 . S
C1413 H1400 0.961 . S
C1413 H1401 0.959 . S
C1413 C1411 1.561 . S
C1414 C1411 1.526 . S
C1414 C1415 1.396 . S
C1414 C1419 1.390 . S
C1415 C1409 1.465 . S
C1415 C1414 1.396 . S
C1415 C1416 1.399 . S
C1416 H1402 0.929 . S
C1416 C1415 1.399 . S
C1416 C1417 1.385 . S
C1417 H1403 0.931 . S
C1417 C1416 1.385 . S
C1417 C1418 1.389 . S
C1418 C1417 1.389 . S
C1418 C1419 1.387 . S
C1419 H1404 0.930 . S
C1419 C1414 1.390 . S
C1419 C1418 1.387 . S
H1420 C1432 0.930 . S
H1421 C1434 0.930 . S
H1422 C1435 0.930 . S
H1423 C1439 0.959 . S
H1424 C1439 0.959 . S
H1425 C1439 0.961 . S
H1426 C1440 0.960 . S
H1427 C1440 0.961 . S
H1428 C1440 0.959 . S
H1429 C1443 0.929 . S
H1430 C1444 0.931 . S
H1431 C1446 0.930 . S
C1432 H1420 0.930 . S
C1432 C1433 1.399 . S
C1432 C1437 1.399 . S
C1433 C1432 1.399 . S
C1433 C1434 1.376 . S
C1434 H1421 0.930 . S
C1434 C1433 1.376 . S
C1434 C1435 1.388 . S
C1435 H1422 0.930 . S
C1435 C1434 1.388 . S
C1435 C1436 1.390 . S
C1436 C1435 1.390 . S
C1436 C1437 1.394 . S
C1436 C1442 1.465 . S
C1437 C1432 1.399 . S
C1437 C1436 1.394 . S
C1437 C1438 1.516 . S
C1438 C1437 1.516 . S
C1438 C1439 1.502 . S
C1438 C1440 1.561 . S
C1438 C1441 1.526 . S
C1439 H1423 0.959 . S
C1439 H1424 0.959 . S
C1439 H1425 0.961 . S
C1439 C1438 1.502 . S
C1440 H1426 0.960 . S
C1440 H1427 0.961 . S
C1440 H1428 0.959 . S
C1440 C1438 1.561 . S
C1441 C1438 1.526 . S
C1441 C1442 1.396 . S
C1441 C1446 1.390 . S
C1442 C1436 1.465 . S
C1442 C1441 1.396 . S
C1442 C1443 1.399 . S
C1443 H1429 0.929 . S
C1443 C1442 1.399 . S
C1443 C1444 1.385 . S
C1444 H1430 0.931 . S
C1444 C1443 1.385 . S
C1444 C1445 1.389 . S
C1445 C1444 1.389 . S
C1445 C1446 1.387 . S
C1446 H1431 0.930 . S
C1446 C1441 1.390 . S
C1446 C1445 1.387 . S
H1447 C1459 0.930 . S
H1448 C1461 0.930 . S
H1449 C1462 0.930 . S
H1450 C1466 0.959 . S
H1451 C1466 0.959 . S
H1452 C1466 0.961 . S
H1453 C1467 0.960 . S
H1454 C1467 0.961 . S
H1455 C1467 0.959 . S
H1456 C1470 0.929 . S
H1457 C1471 0.931 . S
H1458 C1473 0.930 . S
C1459 H1447 0.930 . S
C1459 C1460 1.399 . S
C1459 C1464 1.399 . S
C1460 C1459 1.399 . S
C1460 C1461 1.376 . S
C1461 H1448 0.930 . S
C1461 C1460 1.376 . S
C1461 C1462 1.388 . S
C1462 H1449 0.930 . S
C1462 C1461 1.388 . S
C1462 C1463 1.390 . S
C1463 C1462 1.390 . S
C1463 C1464 1.394 . S
C1463 C1469 1.465 . S
C1464 C1459 1.399 . S
C1464 C1463 1.394 . S
C1464 C1465 1.516 . S
C1465 C1464 1.516 . S
C1465 C1466 1.502 . S
C1465 C1467 1.561 . S
C1465 C1468 1.526 . S
C1466 H1450 0.959 . S
C1466 H1451 0.959 . S
C1466 H1452 0.961 . S
C1466 C1465 1.502 . S
C1467 H1453 0.960 . S
C1467 H1454 0.961 . S
C1467 H1455 0.959 . S
C1467 C1465 1.561 . S
C1468 C1465 1.526 . S
C1468 C1469 1.396 . S
C1468 C1473 1.390 . S
C1469 C1463 1.465 . S
C1469 C1468 1.396 . S
C1469 C1470 1.399 . S
C1470 H1456 0.929 . S
C1470 C1469 1.399 . S
C1470 C1471 1.385 . S
C1471 H1457 0.931 . S
C1471 C1470 1.385 . S
C1471 C1472 1.389 . S
C1472 C1471 1.389 . S
C1472 C1473 1.387 . S
C1473 H1458 0.930 . S
C1473 C1468 1.390 . S
C1473 C1472 1.387 . S
H1474 C1486 0.930 . S
H1475 C1488 0.930 . S
H1476 C1489 0.930 . S
H1477 C1493 0.959 . S
H1478 C1493 0.959 . S
H1479 C1493 0.961 . S
H1480 C1494 0.960 . S
H1481 C1494 0.961 . S
H1482 C1494 0.959 . S
H1483 C1497 0.929 . S
H1484 C1498 0.931 . S
H1485 C1500 0.930 . S
C1486 H1474 0.930 . S
C1486 C1487 1.399 . S
C1486 C1491 1.399 . S
C1487 C1486 1.399 . S
C1487 C1488 1.376 . S
C1488 H1475 0.930 . S
C1488 C1487 1.376 . S
C1488 C1489 1.388 . S
C1489 H1476 0.930 . S
C1489 C1488 1.388 . S
C1489 C1490 1.390 . S
C1490 C1489 1.390 . S
C1490 C1491 1.394 . S
C1490 C1496 1.465 . S
C1491 C1486 1.399 . S
C1491 C1490 1.394 . S
C1491 C1492 1.516 . S
C1492 C1491 1.516 . S
C1492 C1493 1.502 . S
C1492 C1494 1.561 . S
C1492 C1495 1.526 . S
C1493 H1477 0.959 . S
C1493 H1478 0.959 . S
C1493 H1479 0.961 . S
C1493 C1492 1.502 . S
C1494 H1480 0.960 . S
C1494 H1481 0.961 . S
C1494 H1482 0.959 . S
C1494 C1492 1.561 . S
C1495 C1492 1.526 . S
C1495 C1496 1.396 . S
C1495 C1500 1.390 . S
C1496 C1490 1.465 . S
C1496 C1495 1.396 . S
C1496 C1497 1.399 . S
C1497 H1483 0.929 . S
C1497 C1496 1.399 . S
C1497 C1498 1.385 . S
C1498 H1484 0.931 . S
C1498 C1497 1.385 . S
C1498 C1499 1.389 . S
C1499 C1498 1.389 . S
C1499 C1500 1.387 . S
C1500 H1485 0.930 . S
C1500 C1495 1.390 . S
C1500 C1499 1.387 . S
H1501 C1513 0.930 . S
H1502 C1515 0.930 . S
H1503 C1516 0.930 . S
H1504 C1520 0.959 . S
H1505 C1520 0.959 . S
H1506 C1520 0.961 . S
H1507 C1521 0.960 . S
H1508 C1521 0.961 . S
H1509 C1521 0.959 . S
H1510 C1524 0.929 . S
H1511 C1525 0.931 . S
H1512 C1527 0.930 . S
C1513 H1501 0.930 . S
C1513 C1514 1.399 . S
C1513 C1518 1.399 . S
C1514 C1513 1.399 . S
C1514 C1515 1.376 . S
C1515 H1502 0.930 . S
C1515 C1514 1.376 . S
C1515 C1516 1.388 . S
C1516 H1503 0.930 . S
C1516 C1515 1.388 . S
C1516 C1517 1.390 . S
C1517 C1516 1.390 . S
C1517 C1518 1.394 . S
C1517 C1523 1.465 . S
C1518 C1513 1.399 . S
C1518 C1517 1.394 . S
C1518 C1519 1.516 . S
C1519 C1518 1.516 . S
C1519 C1520 1.502 . S
C1519 C1521 1.561 . S
C1519 C1522 1.526 . S
C1520 H1504 0.959 . S
C1520 H1505 0.959 . S
C1520 H1506 0.961 . S
C1520 C1519 1.502 . S
C1521 H1507 0.960 . S
C1521 H1508 0.961 . S
C1521 H1509 0.959 . S
C1521 C1519 1.561 . S
C1522 C1519 1.526 . S
C1522 C1523 1.396 . S
C1522 C1527 1.390 . S
C1523 C1517 1.465 . S
C1523 C1522 1.396 . S
C1523 C1524 1.399 . S
C1524 H1510 0.929 . S
C1524 C1523 1.399 . S
C1524 C1525 1.385 . S
C1525 H1511 0.931 . S
C1525 C1524 1.385 . S
C1525 C1526 1.389 . S
C1526 C1525 1.389 . S
C1526 C1527 1.387 . S
C1527 H1512 0.930 . S
C1527 C1522 1.390 . S
C1527 C1526 1.387 . S
H1528 C1540 0.930 . S
H1529 C1542 0.930 . S
H1530 C1543 0.930 . S
H1531 C1547 0.959 . S
H1532 C1547 0.959 . S
H1533 C1547 0.961 . S
H1534 C1548 0.960 . S
H1535 C1548 0.961 . S
H1536 C1548 0.959 . S
H1537 C1551 0.929 . S
H1538 C1552 0.931 . S
H1539 C1554 0.930 . S
C1540 H1528 0.930 . S
C1540 C1541 1.399 . S
C1540 C1545 1.399 . S
C1541 C1540 1.399 . S
C1541 C1542 1.376 . S
C1542 H1529 0.930 . S
C1542 C1541 1.376 . S
C1542 C1543 1.388 . S
C1543 H1530 0.930 . S
C1543 C1542 1.388 . S
C1543 C1544 1.390 . S
C1544 C1543 1.390 . S
C1544 C1545 1.394 . S
C1544 C1550 1.465 . S
C1545 C1540 1.399 . S
C1545 C1544 1.394 . S
C1545 C1546 1.516 . S
C1546 C1545 1.516 . S
C1546 C1547 1.502 . S
C1546 C1548 1.561 . S
C1546 C1549 1.526 . S
C1547 H1531 0.959 . S
C1547 H1532 0.959 . S
C1547 H1533 0.961 . S
C1547 C1546 1.502 . S
C1548 H1534 0.960 . S
C1548 H1535 0.961 . S
C1548 H1536 0.959 . S
C1548 C1546 1.561 . S
C1549 C1546 1.526 . S
C1549 C1550 1.396 . S
C1549 C1554 1.390 . S
C1550 C1544 1.465 . S
C1550 C1549 1.396 . S
C1550 C1551 1.399 . S
C1551 H1537 0.929 . S
C1551 C1550 1.399 . S
C1551 C1552 1.385 . S
C1552 H1538 0.931 . S
C1552 C1551 1.385 . S
C1552 C1553 1.389 . S
C1553 C1552 1.389 . S
C1553 C1554 1.387 . S
C1554 H1539 0.930 . S
C1554 C1549 1.390 . S
C1554 C1553 1.387 . S
H1555 C1567 0.930 . S
H1556 C1569 0.930 . S
H1557 C1570 0.930 . S
H1558 C1574 0.959 . S
H1559 C1574 0.959 . S
H1560 C1574 0.961 . S
H1561 C1575 0.960 . S
H1562 C1575 0.961 . S
H1563 C1575 0.959 . S
H1564 C1578 0.929 . S
H1565 C1579 0.931 . S
H1566 C1581 0.930 . S
C1567 H1555 0.930 . S
C1567 C1568 1.399 . S
C1567 C1572 1.399 . S
C1568 C1567 1.399 . S
C1568 C1569 1.376 . S
C1569 H1556 0.930 . S
C1569 C1568 1.376 . S
C1569 C1570 1.388 . S
C1570 H1557 0.930 . S
C1570 C1569 1.388 . S
C1570 C1571 1.390 . S
C1571 C1570 1.390 . S
C1571 C1572 1.394 . S
C1571 C1577 1.465 . S
C1572 C1567 1.399 . S
C1572 C1571 1.394 . S
C1572 C1573 1.516 . S
C1573 C1572 1.516 . S
C1573 C1574 1.502 . S
C1573 C1575 1.561 . S
C1573 C1576 1.526 . S
C1574 H1558 0.959 . S
C1574 H1559 0.959 . S
C1574 H1560 0.961 . S
C1574 C1573 1.502 . S
C1575 H1561 0.960 . S
C1575 H1562 0.961 . S
C1575 H1563 0.959 . S
C1575 C1573 1.561 . S
C1576 C1573 1.526 . S
C1576 C1577 1.396 . S
C1576 C1581 1.390 . S
C1577 C1571 1.465 . S
C1577 C1576 1.396 . S
C1577 C1578 1.399 . S
C1578 H1564 0.929 . S
C1578 C1577 1.399 . S
C1578 C1579 1.385 . S
C1579 H1565 0.931 . S
C1579 C1578 1.385 . S
C1579 C1580 1.389 . S
C1580 C1579 1.389 . S
C1580 C1581 1.387 . S
C1581 H1566 0.930 . S
C1581 C1576 1.390 . S
C1581 C1580 1.387 . S
H1582 C1594 0.930 . S
H1583 C1596 0.930 . S
H1584 C1597 0.930 . S
H1585 C1601 0.959 . S
H1586 C1601 0.959 . S
H1587 C1601 0.961 . S
H1588 C1602 0.960 . S
H1589 C1602 0.961 . S
H1590 C1602 0.959 . S
H1591 C1605 0.929 . S
H1592 C1606 0.931 . S
H1593 C1608 0.930 . S
C1594 H1582 0.930 . S
C1594 C1595 1.399 . S
C1594 C1599 1.399 . S
C1595 C1594 1.399 . S
C1595 C1596 1.376 . S
C1596 H1583 0.930 . S
C1596 C1595 1.376 . S
C1596 C1597 1.388 . S
C1597 H1584 0.930 . S
C1597 C1596 1.388 . S
C1597 C1598 1.390 . S
C1598 C1597 1.390 . S
C1598 C1599 1.394 . S
C1598 C1604 1.465 . S
C1599 C1594 1.399 . S
C1599 C1598 1.394 . S
C1599 C1600 1.516 . S
C1600 C1599 1.516 . S
C1600 C1601 1.502 . S
C1600 C1602 1.561 . S
C1600 C1603 1.526 . S
C1601 H1585 0.959 . S
C1601 H1586 0.959 . S
C1601 H1587 0.961 . S
C1601 C1600 1.502 . S
C1602 H1588 0.960 . S
C1602 H1589 0.961 . S
C1602 H1590 0.959 . S
C1602 C1600 1.561 . S
C1603 C1600 1.526 . S
C1603 C1604 1.396 . S
C1603 C1608 1.390 . S
C1604 C1598 1.465 . S
C1604 C1603 1.396 . S
C1604 C1605 1.399 . S
C1605 H1591 0.929 . S
C1605 C1604 1.399 . S
C1605 C1606 1.385 . S
C1606 H1592 0.931 . S
C1606 C1605 1.385 . S
C1606 C1607 1.389 . S
C1607 C1606 1.389 . S
C1607 C1608 1.387 . S
C1608 H1593 0.930 . S
C1608 C1603 1.390 . S
C1608 C1607 1.387 . S
H1609 C1621 0.930 . S
H1610 C1623 0.930 . S
H1611 C1624 0.930 . S
H1612 C1628 0.959 . S
H1613 C1628 0.959 . S
H1614 C1628 0.961 . S
H1615 C1629 0.960 . S
H1616 C1629 0.961 . S
H1617 C1629 0.959 . S
H1618 C1632 0.929 . S
H1619 C1633 0.931 . S
H1620 C1635 0.930 . S
C1621 H1609 0.930 . S
C1621 C1622 1.399 . S
C1621 C1626 1.399 . S
C1622 C1621 1.399 . S
C1622 C1623 1.376 . S
C1623 H1610 0.930 . S
C1623 C1622 1.376 . S
C1623 C1624 1.388 . S
C1624 H1611 0.930 . S
C1624 C1623 1.388 . S
C1624 C1625 1.390 . S
C1625 C1624 1.390 . S
C1625 C1626 1.394 . S
C1625 C1631 1.465 . S
C1626 C1621 1.399 . S
C1626 C1625 1.394 . S
C1626 C1627 1.516 . S
C1627 C1626 1.516 . S
C1627 C1628 1.502 . S
C1627 C1629 1.561 . S
C1627 C1630 1.526 . S
C1628 H1612 0.959 . S
C1628 H1613 0.959 . S
C1628 H1614 0.961 . S
C1628 C1627 1.502 . S
C1629 H1615 0.960 . S
C1629 H1616 0.961 . S
C1629 H1617 0.959 . S
C1629 C1627 1.561 . S
C1630 C1627 1.526 . S
C1630 C1631 1.396 . S
C1630 C1635 1.390 . S
C1631 C1625 1.465 . S
C1631 C1630 1.396 . S
C1631 C1632 1.399 . S
C1632 H1618 0.929 . S
C1632 C1631 1.399 . S
C1632 C1633 1.385 . S
C1633 H1619 0.931 . S
C1633 C1632 1.385 . S
C1633 C1634 1.389 . S
C1634 C1633 1.389 . S
C1634 C1635 1.387 . S
C1635 H1620 0.930 . S
C1635 C1630 1.390 . S
C1635 C1634 1.387 . S
H1636 C1648 0.930 . S
H1637 C1650 0.930 . S
H1638 C1651 0.930 . S
H1639 C1655 0.959 . S
H1640 C1655 0.959 . S
H1641 C1655 0.961 . S
H1642 C1656 0.960 . S
H1643 C1656 0.961 . S
H1644 C1656 0.959 . S
H1645 C1659 0.929 . S
H1646 C1660 0.931 . S
H1647 C1662 0.930 . S
C1648 H1636 0.930 . S
C1648 C1649 1.399 . S
C1648 C1653 1.399 . S
C1649 C1648 1.399 . S
C1649 C1650 1.376 . S
C1650 H1637 0.930 . S
C1650 C1649 1.376 . S
C1650 C1651 1.388 . S
C1651 H1638 0.930 . S
C1651 C1650 1.388 . S
C1651 C1652 1.390 . S
C1652 C1651 1.390 . S
C1652 C1653 1.394 . S
C1652 C1658 1.465 . S
C1653 C1648 1.399 . S
C1653 C1652 1.394 . S
C1653 C1654 1.516 . S
C1654 C1653 1.516 . S
C1654 C1655 1.502 . S
C1654 C1656 1.561 . S
C1654 C1657 1.526 . S
C1655 H1639 0.959 . S
C1655 H1640 0.959 . S
C1655 H1641 0.961 . S
C1655 C1654 1.502 . S
C1656 H1642 0.960 . S
C1656 H1643 0.961 . S
C1656 H1644 0.959 . S
C1656 C1654 1.561 . S
C1657 C1654 1.526 . S
C1657 C1658 1.396 . S
C1657 C1662 1.390 . S
C1658 C1652 1.465 . S
C1658 C1657 1.396 . S
C1658 C1659 1.399 . S
C1659 H1645 0.929 . S
C1659 C1658 1.399 . S
C1659 C1660 1.385 . S
C1660 H1646 0.931 . S
C1660 C1659 1.385 . S
C1660 C1661 1.389 . S
C1661 C1660 1.389 . S
C1661 C1662 1.387 . S
C1662 H1647 0.930 . S
C1662 C1657 1.390 . S
C1662 C1661 1.387 . S
H1663 C1675 0.930 . S
H1664 C1677 0.930 . S
H1665 C1678 0.930 . S
H1666 C1682 0.959 . S
H1667 C1682 0.959 . S
H1668 C1682 0.961 . S
H1669 C1683 0.960 . S
H1670 C1683 0.961 . S
H1671 C1683 0.959 . S
H1672 C1686 0.929 . S
H1673 C1687 0.931 . S
H1674 C1689 0.930 . S
C1675 H1663 0.930 . S
C1675 C1676 1.399 . S
C1675 C1680 1.399 . S
C1676 C1675 1.399 . S
C1676 C1677 1.376 . S
C1677 H1664 0.930 . S
C1677 C1676 1.376 . S
C1677 C1678 1.388 . S
C1678 H1665 0.930 . S
C1678 C1677 1.388 . S
C1678 C1679 1.390 . S
C1679 C1678 1.390 . S
C1679 C1680 1.394 . S
C1679 C1685 1.465 . S
C1680 C1675 1.399 . S
C1680 C1679 1.394 . S
C1680 C1681 1.516 . S
C1681 C1680 1.516 . S
C1681 C1682 1.502 . S
C1681 C1683 1.561 . S
C1681 C1684 1.526 . S
C1682 H1666 0.959 . S
C1682 H1667 0.959 . S
C1682 H1668 0.961 . S
C1682 C1681 1.502 . S
C1683 H1669 0.960 . S
C1683 H1670 0.961 . S
C1683 H1671 0.959 . S
C1683 C1681 1.561 . S
C1684 C1681 1.526 . S
C1684 C1685 1.396 . S
C1684 C1689 1.390 . S
C1685 C1679 1.465 . S
C1685 C1684 1.396 . S
C1685 C1686 1.399 . S
C1686 H1672 0.929 . S
C1686 C1685 1.399 . S
C1686 C1687 1.385 . S
C1687 H1673 0.931 . S
C1687 C1686 1.385 . S
C1687 C1688 1.389 . S
C1688 C1687 1.389 . S
C1688 C1689 1.387 . S
C1689 H1674 0.930 . S
C1689 C1684 1.390 . S
C1689 C1688 1.387 . S
H1690 C1702 0.930 . S
H1691 C1704 0.930 . S
H1692 C1705 0.930 . S
H1693 C1709 0.959 . S
H1694 C1709 0.959 . S
H1695 C1709 0.961 . S
H1696 C1710 0.960 . S
H1697 C1710 0.961 . S
H1698 C1710 0.959 . S
H1699 C1713 0.929 . S
H1700 C1714 0.931 . S
H1701 C1716 0.930 . S
C1702 H1690 0.930 . S
C1702 C1703 1.399 . S
C1702 C1707 1.399 . S
C1703 C1702 1.399 . S
C1703 C1704 1.376 . S
C1704 H1691 0.930 . S
C1704 C1703 1.376 . S
C1704 C1705 1.388 . S
C1705 H1692 0.930 . S
C1705 C1704 1.388 . S
C1705 C1706 1.390 . S
C1706 C1705 1.390 . S
C1706 C1707 1.394 . S
C1706 C1712 1.465 . S
C1707 C1702 1.399 . S
C1707 C1706 1.394 . S
C1707 C1708 1.516 . S
C1708 C1707 1.516 . S
C1708 C1709 1.502 . S
C1708 C1710 1.561 . S
C1708 C1711 1.526 . S
C1709 H1693 0.959 . S
C1709 H1694 0.959 . S
C1709 H1695 0.961 . S
C1709 C1708 1.502 . S
C1710 H1696 0.960 . S
C1710 H1697 0.961 . S
C1710 H1698 0.959 . S
C1710 C1708 1.561 . S
C1711 C1708 1.526 . S
C1711 C1712 1.396 . S
C1711 C1716 1.390 . S
C1712 C1706 1.465 . S
C1712 C1711 1.396 . S
C1712 C1713 1.399 . S
C1713 H1699 0.929 . S
C1713 C1712 1.399 . S
C1713 C1714 1.385 . S
C1714 H1700 0.931 . S
C1714 C1713 1.385 . S
C1714 C1715 1.389 . S
C1715 C1714 1.389 . S
C1715 C1716 1.387 . S
C1716 H1701 0.930 . S
C1716 C1711 1.390 . S
C1716 C1715 1.387 . S
H1717 C1729 0.930 . S
H1718 C1731 0.930 . S
H1719 C1732 0.930 . S
H1720 C1736 0.959 . S
H1721 C1736 0.959 . S
H1722 C1736 0.961 . S
H1723 C1737 0.960 . S
H1724 C1737 0.961 . S
H1725 C1737 0.959 . S
H1726 C1740 0.929 . S
H1727 C1741 0.931 . S
H1728 C1743 0.930 . S
C1729 H1717 0.930 . S
C1729 C1730 1.399 . S
C1729 C1734 1.399 . S
C1730 C1729 1.399 . S
C1730 C1731 1.376 . S
C1731 H1718 0.930 . S
C1731 C1730 1.376 . S
C1731 C1732 1.388 . S
C1732 H1719 0.930 . S
C1732 C1731 1.388 . S
C1732 C1733 1.390 . S
C1733 C1732 1.390 . S
C1733 C1734 1.394 . S
C1733 C1739 1.465 . S
C1734 C1729 1.399 . S
C1734 C1733 1.394 . S
C1734 C1735 1.516 . S
C1735 C1734 1.516 . S
C1735 C1736 1.502 . S
C1735 C1737 1.561 . S
C1735 C1738 1.526 . S
C1736 H1720 0.959 . S
C1736 H1721 0.959 . S
C1736 H1722 0.961 . S
C1736 C1735 1.502 . S
C1737 H1723 0.960 . S
C1737 H1724 0.961 . S
C1737 H1725 0.959 . S
C1737 C1735 1.561 . S
C1738 C1735 1.526 . S
C1738 C1739 1.396 . S
C1738 C1743 1.390 . S
C1739 C1733 1.465 . S
C1739 C1738 1.396 . S
C1739 C1740 1.399 . S
C1740 H1726 0.929 . S
C1740 C1739 1.399 . S
C1740 C1741 1.385 . S
C1741 H1727 0.931 . S
C1741 C1740 1.385 . S
C1741 C1742 1.389 . S
C1742 C1741 1.389 . S
C1742 C1743 1.387 . S
C1743 H1728 0.930 . S
C1743 C1738 1.390 . S
C1743 C1742 1.387 . S
H1744 C1756 0.930 . S
H1745 C1758 0.930 . S
H1746 C1759 0.930 . S
H1747 C1763 0.959 . S
H1748 C1763 0.959 . S
H1749 C1763 0.961 . S
H1750 C1764 0.960 . S
H1751 C1764 0.961 . S
H1752 C1764 0.959 . S
H1753 C1767 0.929 . S
H1754 C1768 0.931 . S
H1755 C1770 0.930 . S
C1756 H1744 0.930 . S
C1756 C1757 1.399 . S
C1756 C1761 1.399 . S
C1757 C1756 1.399 . S
C1757 C1758 1.376 . S
C1758 H1745 0.930 . S
C1758 C1757 1.376 . S
C1758 C1759 1.388 . S
C1759 H1746 0.930 . S
C1759 C1758 1.388 . S
C1759 C1760 1.390 . S
C1760 C1759 1.390 . S
C1760 C1761 1.394 . S
C1760 C1766 1.465 . S
C1761 C1756 1.399 . S
C1761 C1760 1.394 . S
C1761 C1762 1.516 . S
C1762 C1761 1.516 . S
C1762 C1763 1.502 . S
C1762 C1764 1.561 . S
C1762 C1765 1.526 . S
C1763 H1747 0.959 . S
C1763 H1748 0.959 . S
C1763 H1749 0.961 . S
C1763 C1762 1.502 . S
C1764 H1750 0.960 . S
C1764 H1751 0.961 . S
C1764 H1752 0.959 . S
C1764 C1762 1.561 . S
C1765 C1762 1.526 . S
C1765 C1766 1.396 . S
C1765 C1770 1.390 . S
C1766 C1760 1.465 . S
C1766 C1765 1.396 . S
C1766 C1767 1.399 . S
C1767 H1753 0.929 . S
C1767 C1766 1.399 . S
C1767 C1768 1.385 . S
C1768 H1754 0.931 . S
C1768 C1767 1.385 . S
C1768 C1769 1.389 . S
C1769 C1768 1.389 . S
C1769 C1770 1.387 . S
C1770 H1755 0.930 . S
C1770 C1765 1.390 . S
C1770 C1769 1.387 . S
H1771 C1783 0.930 . S
H1772 C1785 0.930 . S
H1773 C1786 0.930 . S
H1774 C1790 0.959 . S
H1775 C1790 0.959 . S
H1776 C1790 0.961 . S
H1777 C1791 0.960 . S
H1778 C1791 0.961 . S
H1779 C1791 0.959 . S
H1780 C1794 0.929 . S
H1781 C1795 0.931 . S
H1782 C1797 0.930 . S
C1783 H1771 0.930 . S
C1783 C1784 1.399 . S
C1783 C1788 1.399 . S
C1784 C1783 1.399 . S
C1784 C1785 1.376 . S
C1785 H1772 0.930 . S
C1785 C1784 1.376 . S
C1785 C1786 1.388 . S
C1786 H1773 0.930 . S
C1786 C1785 1.388 . S
C1786 C1787 1.390 . S
C1787 C1786 1.390 . S
C1787 C1788 1.394 . S
C1787 C1793 1.465 . S
C1788 C1783 1.399 . S
C1788 C1787 1.394 . S
C1788 C1789 1.516 . S
C1789 C1788 1.516 . S
C1789 C1790 1.502 . S
C1789 C1791 1.561 . S
C1789 C1792 1.526 . S
C1790 H1774 0.959 . S
C1790 H1775 0.959 . S
C1790 H1776 0.961 . S
C1790 C1789 1.502 . S
C1791 H1777 0.960 . S
C1791 H1778 0.961 . S
C1791 H1779 0.959 . S
C1791 C1789 1.561 . S
C1792 C1789 1.526 . S
C1792 C1793 1.396 . S
C1792 C1797 1.390 . S
C1793 C1787 1.465 . S
C1793 C1792 1.396 . S
C1793 C1794 1.399 . S
C1794 H1780 0.929 . S
C1794 C1793 1.399 . S
C1794 C1795 1.385 . S
C1795 H1781 0.931 . S
C1795 C1794 1.385 . S
C1795 C1796 1.389 . S
C1796 C1795 1.389 . S
C1796 C1797 1.387 . S
C1797 H1782 0.930 . S
C1797 C1792 1.390 . S
C1797 C1796 1.387 . S
H1798 C1810 0.930 . S
H1799 C1812 0.930 . S
H1800 C1813 0.930 . S
H1801 C1817 0.959 . S
H1802 C1817 0.959 . S
H1803 C1817 0.961 . S
H1804 C1818 0.960 . S
H1805 C1818 0.961 . S
H1806 C1818 0.959 . S
H1807 C1821 0.929 . S
H1808 C1822 0.931 . S
H1809 C1824 0.930 . S
C1810 H1798 0.930 . S
C1810 C1811 1.399 1_556 S
C1810 C1815 1.399 . S
C1811 C1810 1.399 1_554 S
C1811 C1812 1.376 . S
C1812 H1799 0.930 . S
C1812 C1811 1.376 . S
C1812 C1813 1.388 . S
C1813 H1800 0.930 . S
C1813 C1812 1.388 . S
C1813 C1814 1.390 . S
C1814 C1813 1.390 . S
C1814 C1815 1.394 1_554 S
C1814 C1820 1.465 . S
C1815 C1810 1.399 . S
C1815 C1814 1.394 1_556 S
C1815 C1816 1.516 . S
C1816 C1815 1.516 . S
C1816 C1817 1.502 . S
C1816 C1818 1.561 . S
C1816 C1819 1.526 . S
C1817 H1801 0.959 . S
C1817 H1802 0.959 . S
C1817 H1803 0.961 . S
C1817 C1816 1.502 . S
C1818 H1804 0.960 . S
C1818 H1805 0.961 . S
C1818 H1806 0.959 . S
C1818 C1816 1.561 . S
C1819 C1816 1.526 . S
C1819 C1820 1.396 1_556 S
C1819 C1824 1.390 . S
C1820 C1814 1.465 . S
C1820 C1819 1.396 1_554 S
C1820 C1821 1.399 . S
C1821 H1807 0.929 . S
C1821 C1820 1.399 . S
C1821 C1822 1.385 . S
C1822 H1808 0.931 . S
C1822 C1821 1.385 . S
C1822 C1823 1.389 . S
C1823 C1822 1.389 . S
C1823 C1824 1.387 1_554 S
C1824 H1809 0.930 . S
C1824 C1819 1.390 . S
C1824 C1823 1.387 1_556 S
H1825 C1837 0.930 . S
H1826 C1839 0.930 . S
H1827 C1840 0.930 . S
H1828 C1844 0.959 . S
H1829 C1844 0.959 . S
H1830 C1844 0.961 . S
H1831 C1845 0.960 . S
H1832 C1845 0.961 . S
H1833 C1845 0.959 . S
H1834 C1848 0.929 . S
H1835 C1849 0.931 . S
H1836 C1851 0.930 . S
C1837 H1825 0.930 . S
C1837 C1838 1.399 1_554 S
C1837 C1842 1.399 . S
C1838 C1837 1.399 1_556 S
C1838 C1839 1.376 . S
C1839 H1826 0.930 . S
C1839 C1838 1.376 . S
C1839 C1840 1.388 . S
C1840 H1827 0.930 . S
C1840 C1839 1.388 . S
C1840 C1841 1.390 . S
C1841 C1840 1.390 . S
C1841 C1842 1.394 1_556 S
C1841 C1847 1.465 . S
C1842 C1837 1.399 . S
C1842 C1841 1.394 1_554 S
C1842 C1843 1.516 . S
C1843 C1842 1.516 . S
C1843 C1844 1.502 . S
C1843 C1845 1.561 . S
C1843 C1846 1.526 . S
C1844 H1828 0.959 . S
C1844 H1829 0.959 . S
C1844 H1830 0.961 . S
C1844 C1843 1.502 . S
C1845 H1831 0.960 . S
C1845 H1832 0.961 . S
C1845 H1833 0.959 . S
C1845 C1843 1.561 . S
C1846 C1843 1.526 . S
C1846 C1847 1.396 1_554 S
C1846 C1851 1.390 . S
C1847 C1841 1.465 . S
C1847 C1846 1.396 1_556 S
C1847 C1848 1.399 . S
C1848 H1834 0.929 . S
C1848 C1847 1.399 . S
C1848 C1849 1.385 . S
C1849 H1835 0.931 . S
C1849 C1848 1.385 . S
C1849 C1850 1.389 . S
C1850 C1849 1.389 . S
C1850 C1851 1.387 1_556 S
C1851 H1836 0.930 . S
C1851 C1846 1.390 . S
C1851 C1850 1.387 1_554 S
H1852 C1864 0.930 . S
H1853 C1866 0.930 . S
H1854 C1867 0.930 . S
H1855 C1871 0.959 . S
H1856 C1871 0.959 . S
H1857 C1871 0.961 . S
H1858 C1872 0.960 . S
H1859 C1872 0.961 . S
H1860 C1872 0.959 . S
H1861 C1875 0.929 . S
H1862 C1876 0.931 . S
H1863 C1878 0.930 . S
C1864 H1852 0.930 . S
C1864 C1865 1.399 . S
C1864 C1869 1.399 . S
C1865 C1864 1.399 . S
C1865 C1866 1.376 . S
C1866 H1853 0.930 . S
C1866 C1865 1.376 . S
C1866 C1867 1.388 . S
C1867 H1854 0.930 . S
C1867 C1866 1.388 . S
C1867 C1868 1.390 . S
C1868 C1867 1.390 . S
C1868 C1869 1.394 . S
C1868 C1874 1.465 . S
C1869 C1864 1.399 . S
C1869 C1868 1.394 . S
C1869 C1870 1.516 . S
C1870 C1869 1.516 . S
C1870 C1871 1.502 . S
C1870 C1872 1.561 . S
C1870 C1873 1.526 . S
C1871 H1855 0.959 . S
C1871 H1856 0.959 . S
C1871 H1857 0.961 . S
C1871 C1870 1.502 . S
C1872 H1858 0.960 . S
C1872 H1859 0.961 . S
C1872 H1860 0.959 . S
C1872 C1870 1.561 . S
C1873 C1870 1.526 . S
C1873 C1874 1.396 . S
C1873 C1878 1.390 . S
C1874 C1868 1.465 . S
C1874 C1873 1.396 . S
C1874 C1875 1.399 . S
C1875 H1861 0.929 . S
C1875 C1874 1.399 . S
C1875 C1876 1.385 . S
C1876 H1862 0.931 . S
C1876 C1875 1.385 . S
C1876 C1877 1.389 . S
C1877 C1876 1.389 . S
C1877 C1878 1.387 . S
C1878 H1863 0.930 . S
C1878 C1873 1.390 . S
C1878 C1877 1.387 . S
H1879 C1891 0.930 . S
H1880 C1893 0.930 . S
H1881 C1894 0.930 . S
H1882 C1898 0.959 . S
H1883 C1898 0.959 . S
H1884 C1898 0.961 . S
H1885 C1899 0.960 . S
H1886 C1899 0.961 . S
H1887 C1899 0.959 . S
H1888 C1902 0.929 . S
H1889 C1903 0.931 . S
H1890 C1905 0.930 . S
C1891 H1879 0.930 . S
C1891 C1892 1.399 . S
C1891 C1896 1.399 . S
C1892 C1891 1.399 . S
C1892 C1893 1.376 . S
C1893 H1880 0.930 . S
C1893 C1892 1.376 . S
C1893 C1894 1.388 . S
C1894 H1881 0.930 . S
C1894 C1893 1.388 . S
C1894 C1895 1.390 . S
C1895 C1894 1.390 . S
C1895 C1896 1.394 . S
C1895 C1901 1.465 . S
C1896 C1891 1.399 . S
C1896 C1895 1.394 . S
C1896 C1897 1.516 . S
C1897 C1896 1.516 . S
C1897 C1898 1.502 . S
C1897 C1899 1.561 . S
C1897 C1900 1.526 . S
C1898 H1882 0.959 . S
C1898 H1883 0.959 . S
C1898 H1884 0.961 . S
C1898 C1897 1.502 . S
C1899 H1885 0.960 . S
C1899 H1886 0.961 . S
C1899 H1887 0.959 . S
C1899 C1897 1.561 . S
C1900 C1897 1.526 . S
C1900 C1901 1.396 . S
C1900 C1905 1.390 . S
C1901 C1895 1.465 . S
C1901 C1900 1.396 . S
C1901 C1902 1.399 . S
C1902 H1888 0.929 . S
C1902 C1901 1.399 . S
C1902 C1903 1.385 . S
C1903 H1889 0.931 . S
C1903 C1902 1.385 . S
C1903 C1904 1.389 . S
C1904 C1903 1.389 . S
C1904 C1905 1.387 . S
C1905 H1890 0.930 . S
C1905 C1900 1.390 . S
C1905 C1904 1.387 . S
H1906 C1918 0.930 . S
H1907 C1920 0.930 . S
H1908 C1921 0.930 . S
H1909 C1925 0.959 . S
H1910 C1925 0.959 . S
H1911 C1925 0.961 . S
H1912 C1926 0.960 . S
H1913 C1926 0.961 . S
H1914 C1926 0.959 . S
H1915 C1929 0.929 . S
H1916 C1930 0.931 . S
H1917 C1932 0.930 . S
C1918 H1906 0.930 . S
C1918 C1919 1.399 1_554 S
C1918 C1923 1.399 . S
C1919 C1918 1.399 1_556 S
C1919 C1920 1.376 . S
C1920 H1907 0.930 . S
C1920 C1919 1.376 . S
C1920 C1921 1.388 . S
C1921 H1908 0.930 . S
C1921 C1920 1.388 . S
C1921 C1922 1.390 . S
C1922 C1921 1.390 . S
C1922 C1923 1.394 1_556 S
C1922 C1928 1.465 . S
C1923 C1918 1.399 . S
C1923 C1922 1.394 1_554 S
C1923 C1924 1.516 . S
C1924 C1923 1.516 . S
C1924 C1925 1.502 . S
C1924 C1926 1.561 . S
C1924 C1927 1.526 . S
C1925 H1909 0.959 . S
C1925 H1910 0.959 . S
C1925 H1911 0.961 . S
C1925 C1924 1.502 . S
C1926 H1912 0.960 . S
C1926 H1913 0.961 . S
C1926 H1914 0.959 . S
C1926 C1924 1.561 . S
C1927 C1924 1.526 . S
C1927 C1928 1.396 1_554 S
C1927 C1932 1.390 . S
C1928 C1922 1.465 . S
C1928 C1927 1.396 1_556 S
C1928 C1929 1.399 . S
C1929 H1915 0.929 . S
C1929 C1928 1.399 . S
C1929 C1930 1.385 . S
C1930 H1916 0.931 . S
C1930 C1929 1.385 . S
C1930 C1931 1.389 . S
C1931 C1930 1.389 . S
C1931 C1932 1.387 1_556 S
C1932 H1917 0.930 . S
C1932 C1927 1.390 . S
C1932 C1931 1.387 1_554 S
H1933 C1945 0.930 . S
H1934 C1947 0.930 . S
H1935 C1948 0.930 . S
H1936 C1952 0.959 . S
H1937 C1952 0.959 . S
H1938 C1952 0.961 . S
H1939 C1953 0.960 . S
H1940 C1953 0.961 . S
H1941 C1953 0.959 . S
H1942 C1956 0.929 . S
H1943 C1957 0.931 . S
H1944 C1959 0.930 . S
C1945 H1933 0.930 . S
C1945 C1946 1.399 1_556 S
C1945 C1950 1.399 . S
C1946 C1945 1.399 1_554 S
C1946 C1947 1.376 . S
C1947 H1934 0.930 . S
C1947 C1946 1.376 . S
C1947 C1948 1.388 . S
C1948 H1935 0.930 . S
C1948 C1947 1.388 . S
C1948 C1949 1.390 . S
C1949 C1948 1.390 . S
C1949 C1950 1.394 1_554 S
C1949 C1955 1.465 . S
C1950 C1945 1.399 . S
C1950 C1949 1.394 1_556 S
C1950 C1951 1.516 . S
C1951 C1950 1.516 . S
C1951 C1952 1.502 . S
C1951 C1953 1.561 . S
C1951 C1954 1.526 . S
C1952 H1936 0.959 . S
C1952 H1937 0.959 . S
C1952 H1938 0.961 . S
C1952 C1951 1.502 . S
C1953 H1939 0.960 . S
C1953 H1940 0.961 . S
C1953 H1941 0.959 . S
C1953 C1951 1.561 . S
C1954 C1951 1.526 . S
C1954 C1955 1.396 1_556 S
C1954 C1959 1.390 . S
C1955 C1949 1.465 . S
C1955 C1954 1.396 1_554 S
C1955 C1956 1.399 . S
C1956 H1942 0.929 . S
C1956 C1955 1.399 . S
C1956 C1957 1.385 . S
C1957 H1943 0.931 . S
C1957 C1956 1.385 . S
C1957 C1958 1.389 . S
C1958 C1957 1.389 . S
C1958 C1959 1.387 1_554 S
C1959 H1944 0.930 . S
C1959 C1954 1.390 . S
C1959 C1958 1.387 1_556 S
H1960 C1972 0.930 . S
H1961 C1974 0.930 . S
H1962 C1975 0.930 . S
H1963 C1979 0.959 . S
H1964 C1979 0.959 . S
H1965 C1979 0.961 . S
H1966 C1980 0.960 . S
H1967 C1980 0.961 . S
H1968 C1980 0.959 . S
H1969 C1983 0.929 . S
H1970 C1984 0.931 . S
H1971 C1986 0.930 . S
C1972 H1960 0.930 . S
C1972 C1973 1.399 . S
C1972 C1977 1.399 . S
C1973 C1972 1.399 . S
C1973 C1974 1.376 . S
C1974 H1961 0.930 . S
C1974 C1973 1.376 . S
C1974 C1975 1.388 . S
C1975 H1962 0.930 . S
C1975 C1974 1.388 . S
C1975 C1976 1.390 . S
C1976 C1975 1.390 . S
C1976 C1977 1.394 . S
C1976 C1982 1.465 . S
C1977 C1972 1.399 . S
C1977 C1976 1.394 . S
C1977 C1978 1.516 . S
C1978 C1977 1.516 . S
C1978 C1979 1.502 . S
C1978 C1980 1.561 . S
C1978 C1981 1.526 . S
C1979 H1963 0.959 . S
C1979 H1964 0.959 . S
C1979 H1965 0.961 . S
C1979 C1978 1.502 . S
C1980 H1966 0.960 . S
C1980 H1967 0.961 . S
C1980 H1968 0.959 . S
C1980 C1978 1.561 . S
C1981 C1978 1.526 . S
C1981 C1982 1.396 . S
C1981 C1986 1.390 . S
C1982 C1976 1.465 . S
C1982 C1981 1.396 . S
C1982 C1983 1.399 . S
C1983 H1969 0.929 . S
C1983 C1982 1.399 . S
C1983 C1984 1.385 . S
C1984 H1970 0.931 . S
C1984 C1983 1.385 . S
C1984 C1985 1.389 . S
C1985 C1984 1.389 . S
C1985 C1986 1.387 . S
C1986 H1971 0.930 . S
C1986 C1981 1.390 . S
C1986 C1985 1.387 . S
H1987 C1999 0.930 . S
H1988 C2001 0.930 . S
H1989 C2002 0.930 . S
H1990 C2006 0.959 . S
H1991 C2006 0.959 . S
H1992 C2006 0.961 . S
H1993 C2007 0.960 . S
H1994 C2007 0.961 . S
H1995 C2007 0.959 . S
H1996 C2010 0.929 . S
H1997 C2011 0.931 . S
H1998 C2013 0.930 . S
C1999 H1987 0.930 . S
C1999 C2000 1.399 . S
C1999 C2004 1.399 . S
C2000 C1999 1.399 . S
C2000 C2001 1.376 . S
C2001 H1988 0.930 . S
C2001 C2000 1.376 . S
C2001 C2002 1.388 . S
C2002 H1989 0.930 . S
C2002 C2001 1.388 . S
C2002 C2003 1.390 . S
C2003 C2002 1.390 . S
C2003 C2004 1.394 . S
C2003 C2009 1.465 . S
C2004 C1999 1.399 . S
C2004 C2003 1.394 . S
C2004 C2005 1.516 . S
C2005 C2004 1.516 . S
C2005 C2006 1.502 . S
C2005 C2007 1.561 . S
C2005 C2008 1.526 . S
C2006 H1990 0.959 . S
C2006 H1991 0.959 . S
C2006 H1992 0.961 . S
C2006 C2005 1.502 . S
C2007 H1993 0.960 . S
C2007 H1994 0.961 . S
C2007 H1995 0.959 . S
C2007 C2005 1.561 . S
C2008 C2005 1.526 . S
C2008 C2009 1.396 . S
C2008 C2013 1.390 . S
C2009 C2003 1.465 . S
C2009 C2008 1.396 . S
C2009 C2010 1.399 . S
C2010 H1996 0.929 . S
C2010 C2009 1.399 . S
C2010 C2011 1.385 . S
C2011 H1997 0.931 . S
C2011 C2010 1.385 . S
C2011 C2012 1.389 . S
C2012 C2011 1.389 . S
C2012 C2013 1.387 . S
C2013 H1998 0.930 . S
C2013 C2008 1.390 . S
C2013 C2012 1.387 . S
H2014 C2026 0.930 . S
H2015 C2028 0.930 . S
H2016 C2029 0.930 . S
H2017 C2033 0.959 . S
H2018 C2033 0.959 . S
H2019 C2033 0.961 . S
H2020 C2034 0.960 . S
H2021 C2034 0.961 . S
H2022 C2034 0.959 . S
H2023 C2037 0.929 . S
H2024 C2038 0.931 . S
H2025 C2040 0.930 . S
C2026 H2014 0.930 . S
C2026 C2027 1.399 . S
C2026 C2031 1.399 . S
C2027 C2026 1.399 . S
C2027 C2028 1.376 . S
C2028 H2015 0.930 . S
C2028 C2027 1.376 . S
C2028 C2029 1.388 . S
C2029 H2016 0.930 . S
C2029 C2028 1.388 . S
C2029 C2030 1.390 . S
C2030 C2029 1.390 . S
C2030 C2031 1.394 . S
C2030 C2036 1.465 . S
C2031 C2026 1.399 . S
C2031 C2030 1.394 . S
C2031 C2032 1.516 . S
C2032 C2031 1.516 . S
C2032 C2033 1.502 . S
C2032 C2034 1.561 . S
C2032 C2035 1.526 . S
C2033 H2017 0.959 . S
C2033 H2018 0.959 . S
C2033 H2019 0.961 . S
C2033 C2032 1.502 . S
C2034 H2020 0.960 . S
C2034 H2021 0.961 . S
C2034 H2022 0.959 . S
C2034 C2032 1.561 . S
C2035 C2032 1.526 . S
C2035 C2036 1.396 . S
C2035 C2040 1.390 . S
C2036 C2030 1.465 . S
C2036 C2035 1.396 . S
C2036 C2037 1.399 . S
C2037 H2023 0.929 . S
C2037 C2036 1.399 . S
C2037 C2038 1.385 . S
C2038 H2024 0.931 . S
C2038 C2037 1.385 . S
C2038 C2039 1.389 . S
C2039 C2038 1.389 . S
C2039 C2040 1.387 . S
C2040 H2025 0.930 . S
C2040 C2035 1.390 . S
C2040 C2039 1.387 . S
H2041 C2053 0.930 . S
H2042 C2055 0.930 . S
H2043 C2056 0.930 . S
H2044 C2060 0.959 . S
H2045 C2060 0.959 . S
H2046 C2060 0.961 . S
H2047 C2061 0.960 . S
H2048 C2061 0.961 . S
H2049 C2061 0.959 . S
H2050 C2064 0.929 . S
H2051 C2065 0.931 . S
H2052 C2067 0.930 . S
C2053 H2041 0.930 . S
C2053 C2054 1.399 . S
C2053 C2058 1.399 . S
C2054 C2053 1.399 . S
C2054 C2055 1.376 . S
C2055 H2042 0.930 . S
C2055 C2054 1.376 . S
C2055 C2056 1.388 . S
C2056 H2043 0.930 . S
C2056 C2055 1.388 . S
C2056 C2057 1.390 . S
C2057 C2056 1.390 . S
C2057 C2058 1.394 . S
C2057 C2063 1.465 . S
C2058 C2053 1.399 . S
C2058 C2057 1.394 . S
C2058 C2059 1.516 . S
C2059 C2058 1.516 . S
C2059 C2060 1.502 . S
C2059 C2061 1.561 . S
C2059 C2062 1.526 . S
C2060 H2044 0.959 . S
C2060 H2045 0.959 . S
C2060 H2046 0.961 . S
C2060 C2059 1.502 . S
C2061 H2047 0.960 . S
C2061 H2048 0.961 . S
C2061 H2049 0.959 . S
C2061 C2059 1.561 . S
C2062 C2059 1.526 . S
C2062 C2063 1.396 . S
C2062 C2067 1.390 . S
C2063 C2057 1.465 . S
C2063 C2062 1.396 . S
C2063 C2064 1.399 . S
C2064 H2050 0.929 . S
C2064 C2063 1.399 . S
C2064 C2065 1.385 . S
C2065 H2051 0.931 . S
C2065 C2064 1.385 . S
C2065 C2066 1.389 . S
C2066 C2065 1.389 . S
C2066 C2067 1.387 . S
C2067 H2052 0.930 . S
C2067 C2062 1.390 . S
C2067 C2066 1.387 . S
H2068 C2080 0.930 . S
H2069 C2082 0.930 . S
H2070 C2083 0.930 . S
H2071 C2087 0.959 . S
H2072 C2087 0.959 . S
H2073 C2087 0.961 . S
H2074 C2088 0.960 . S
H2075 C2088 0.961 . S
H2076 C2088 0.959 . S
H2077 C2091 0.929 . S
H2078 C2092 0.931 . S
H2079 C2094 0.930 . S
C2080 H2068 0.930 . S
C2080 C2081 1.399 . S
C2080 C2085 1.399 . S
C2081 C2080 1.399 . S
C2081 C2082 1.376 . S
C2082 H2069 0.930 . S
C2082 C2081 1.376 . S
C2082 C2083 1.388 . S
C2083 H2070 0.930 . S
C2083 C2082 1.388 . S
C2083 C2084 1.390 . S
C2084 C2083 1.390 . S
C2084 C2085 1.394 . S
C2084 C2090 1.465 . S
C2085 C2080 1.399 . S
C2085 C2084 1.394 . S
C2085 C2086 1.516 . S
C2086 C2085 1.516 . S
C2086 C2087 1.502 . S
C2086 C2088 1.561 . S
C2086 C2089 1.526 . S
C2087 H2071 0.959 . S
C2087 H2072 0.959 . S
C2087 H2073 0.961 . S
C2087 C2086 1.502 . S
C2088 H2074 0.960 . S
C2088 H2075 0.961 . S
C2088 H2076 0.959 . S
C2088 C2086 1.561 . S
C2089 C2086 1.526 . S
C2089 C2090 1.396 . S
C2089 C2094 1.390 . S
C2090 C2084 1.465 . S
C2090 C2089 1.396 . S
C2090 C2091 1.399 . S
C2091 H2077 0.929 . S
C2091 C2090 1.399 . S
C2091 C2092 1.385 . S
C2092 H2078 0.931 . S
C2092 C2091 1.385 . S
C2092 C2093 1.389 . S
C2093 C2092 1.389 . S
C2093 C2094 1.387 . S
C2094 H2079 0.930 . S
C2094 C2089 1.390 . S
C2094 C2093 1.387 . S
H2095 C2107 0.930 . S
H2096 C2109 0.930 . S
H2097 C2110 0.930 . S
H2098 C2114 0.959 . S
H2099 C2114 0.959 . S
H2100 C2114 0.961 . S
H2101 C2115 0.960 . S
H2102 C2115 0.961 . S
H2103 C2115 0.959 . S
H2104 C2118 0.929 . S
H2105 C2119 0.931 . S
H2106 C2121 0.930 . S
C2107 H2095 0.930 . S
C2107 C2108 1.399 . S
C2107 C2112 1.399 . S
C2108 C2107 1.399 . S
C2108 C2109 1.376 . S
C2109 H2096 0.930 . S
C2109 C2108 1.376 . S
C2109 C2110 1.388 . S
C2110 H2097 0.930 . S
C2110 C2109 1.388 . S
C2110 C2111 1.390 . S
C2111 C2110 1.390 . S
C2111 C2112 1.394 . S
C2111 C2117 1.465 . S
C2112 C2107 1.399 . S
C2112 C2111 1.394 . S
C2112 C2113 1.516 . S
C2113 C2112 1.516 . S
C2113 C2114 1.502 . S
C2113 C2115 1.561 . S
C2113 C2116 1.526 . S
C2114 H2098 0.959 . S
C2114 H2099 0.959 . S
C2114 H2100 0.961 . S
C2114 C2113 1.502 . S
C2115 H2101 0.960 . S
C2115 H2102 0.961 . S
C2115 H2103 0.959 . S
C2115 C2113 1.561 . S
C2116 C2113 1.526 . S
C2116 C2117 1.396 . S
C2116 C2121 1.390 . S
C2117 C2111 1.465 . S
C2117 C2116 1.396 . S
C2117 C2118 1.399 . S
C2118 H2104 0.929 . S
C2118 C2117 1.399 . S
C2118 C2119 1.385 . S
C2119 H2105 0.931 . S
C2119 C2118 1.385 . S
C2119 C2120 1.389 . S
C2120 C2119 1.389 . S
C2120 C2121 1.387 . S
C2121 H2106 0.930 . S
C2121 C2116 1.390 . S
C2121 C2120 1.387 . S
H2122 C2134 0.930 . S
H2123 C2136 0.930 . S
H2124 C2137 0.930 . S
H2125 C2141 0.959 . S
H2126 C2141 0.959 . S
H2127 C2141 0.961 . S
H2128 C2142 0.960 . S
H2129 C2142 0.961 . S
H2130 C2142 0.959 . S
H2131 C2145 0.929 . S
H2132 C2146 0.931 . S
H2133 C2148 0.930 . S
C2134 H2122 0.930 . S
C2134 C2135 1.399 . S
C2134 C2139 1.399 . S
C2135 C2134 1.399 . S
C2135 C2136 1.376 . S
C2136 H2123 0.930 . S
C2136 C2135 1.376 . S
C2136 C2137 1.388 . S
C2137 H2124 0.930 . S
C2137 C2136 1.388 . S
C2137 C2138 1.390 . S
C2138 C2137 1.390 . S
C2138 C2139 1.394 . S
C2138 C2144 1.465 . S
C2139 C2134 1.399 . S
C2139 C2138 1.394 . S
C2139 C2140 1.516 . S
C2140 C2139 1.516 . S
C2140 C2141 1.502 . S
C2140 C2142 1.561 . S
C2140 C2143 1.526 . S
C2141 H2125 0.959 . S
C2141 H2126 0.959 . S
C2141 H2127 0.961 . S
C2141 C2140 1.502 . S
C2142 H2128 0.960 . S
C2142 H2129 0.961 . S
C2142 H2130 0.959 . S
C2142 C2140 1.561 . S
C2143 C2140 1.526 . S
C2143 C2144 1.396 . S
C2143 C2148 1.390 . S
C2144 C2138 1.465 . S
C2144 C2143 1.396 . S
C2144 C2145 1.399 . S
C2145 H2131 0.929 . S
C2145 C2144 1.399 . S
C2145 C2146 1.385 . S
C2146 H2132 0.931 . S
C2146 C2145 1.385 . S
C2146 C2147 1.389 . S
C2147 C2146 1.389 . S
C2147 C2148 1.387 . S
C2148 H2133 0.930 . S
C2148 C2143 1.390 . S
C2148 C2147 1.387 . S
H2149 C2161 0.930 . S
H2150 C2163 0.930 1_655 S
H2151 C2164 0.930 . S
H2152 C2168 0.959 . S
H2153 C2168 0.959 . S
H2154 C2168 0.961 . S
H2155 C2169 0.960 . S
H2156 C2169 0.961 . S
H2157 C2169 0.959 . S
H2158 C2172 0.929 . S
H2159 C2173 0.931 . S
H2160 C2175 0.930 . S
C2161 H2149 0.930 . S
C2161 C2162 1.399 . S
C2161 C2166 1.399 . S
C2162 C2161 1.399 . S
C2162 C2163 1.376 . S
C2163 H2150 0.930 1_455 S
C2163 C2162 1.376 . S
C2163 C2164 1.388 . S
C2164 H2151 0.930 . S
C2164 C2163 1.388 . S
C2164 C2165 1.390 . S
C2165 C2164 1.390 . S
C2165 C2166 1.394 . S
C2165 C2171 1.465 . S
C2166 C2161 1.399 . S
C2166 C2165 1.394 . S
C2166 C2167 1.516 . S
C2167 C2166 1.516 . S
C2167 C2168 1.502 . S
C2167 C2169 1.561 . S
C2167 C2170 1.526 . S
C2168 H2152 0.959 . S
C2168 H2153 0.959 . S
C2168 H2154 0.961 . S
C2168 C2167 1.502 . S
C2169 H2155 0.960 . S
C2169 H2156 0.961 . S
C2169 H2157 0.959 . S
C2169 C2167 1.561 . S
C2170 C2167 1.526 . S
C2170 C2171 1.396 . S
C2170 C2175 1.390 . S
C2171 C2165 1.465 . S
C2171 C2170 1.396 . S
C2171 C2172 1.399 . S
C2172 H2158 0.929 . S
C2172 C2171 1.399 . S
C2172 C2173 1.385 . S
C2173 H2159 0.931 . S
C2173 C2172 1.385 . S
C2173 C2174 1.389 . S
C2174 C2173 1.389 . S
C2174 C2175 1.387 . S
C2175 H2160 0.930 . S
C2175 C2170 1.390 . S
C2175 C2174 1.387 . S
C461 C7 1.120 . S
C473 C49 1.178 . S
C488 C35 1.118 . S
C500 C21 1.180 . S
C515 C63 1.187 . S
C527 C105 1.111 . S
C542 C91 1.105 . S
C554 C77 1.178 . S
C569 C119 1.147 . S
C581 C161 1.110 . S
C596 C147 1.098 . S
C608 C133 1.157 . S
C623 C175 1.090 . S
C635 C217 1.146 . S
C650 C189 1.166 . S
C662 C203 1.109 . S
C677 C273 1.101 . S
C689 C231 1.154 . S
C704 C245 1.155 . S
C716 C259 1.103 . S
C731 C287 1.089 . S
C743 C329 1.146 . S
C758 C315 1.169 . S
C770 C301 1.105 . S
C785 C343 1.173 . S
C797 C385 1.128 . S
C812 C371 1.172 . S
C824 C357 1.128 . S
C839 C399 1.183 . S
C851 C441 1.138 . S
C866 C413 1.106 . S
C878 C427 1.174 . S
C893 C176 1.517 . S
C905 C8 1.520 . S
C920 C22 1.516 . S
C932 C302 1.521 . S
C947 C36 1.507 . S
C959 C92 1.506 1_556 S
C974 C442 1.510 . S
C986 C50 1.506 . S
C1001 C64 1.517 . S
C1013 C120 1.520 . S
C1028 C246 1.518 . S
C1040 C78 1.519 . S
C1055 C386 1.505 . S
C1067 C106 1.511 . S
C1082 C414 1.516 . S
C1094 C134 1.521 . S
C1109 C204 1.506 . S
C1121 C148 1.511 . S
C1136 C330 1.505 . S
C1148 C162 1.511 . S
C1163 C190 1.516 . S
C1175 C358 1.521 . S
C1190 C274 1.510 . S
C1202 C218 1.508 . S
C1217 C400 1.516 . S
C1229 C232 1.521 . S
C1244 C316 1.505 . S
C1256 C260 1.511 . S
C1271 C344 1.516 . S
C1283 C288 1.521 . S
C1298 C372 1.507 . S
C1310 C428 1.508 1_556 S
C1325 C143 1.394 . S
C1337 C3 1.329 . S
C1352 C17 1.391 . S
C1364 C157 1.330 . S
C1379 C115 1.375 . S
C1391 C31 1.306 . S
C1406 C129 1.375 . S
C1418 C45 1.306 . S
C1433 C59 1.417 . S
C1445 C199 1.351 . S
C1460 C73 1.333 . S
C1472 C213 1.401 . S
C1487 C171 1.399 . S
C1499 C87 1.327 . S
C1514 C101 1.311 . S
C1526 C185 1.385 . S
C1541 C367 1.333 . S
C1553 C227 1.397 . S
C1568 C381 1.367 . S
C1580 C241 1.389 . S
C1595 C255 1.351 . S
C1607 C339 1.420 . S
C1622 C269 1.360 . S
C1634 C353 1.420 . S
C1649 C283 1.315 . S
C1661 C423 1.375 . S
C1676 C297 1.313 . S
C1688 C437 1.378 . S
C1703 C395 1.337 . S
C1715 C311 1.395 . S
C1730 C409 1.414 . S
C1742 C325 1.355 . S
C1757 C9 1.430 . S
C1769 C359 1.464 . S
C1784 C345 1.436 . S
C1796 C23 1.456 1_655 S
C1811 C37 1.456 1_554 S
C1823 C387 1.432 1_554 S
C1838 C51 1.423 1_655 S
C1850 C373 1.451 . S
C1865 C65 1.459 . S
C1877 C415 1.446 . S
C1892 C79 1.470 1_455 S
C1904 C401 1.435 . S
C1919 C443 1.430 1_556 S
C1931 C93 1.445 1_556 S
C1946 C429 1.456 . S
C1958 C107 1.430 1_455 S
C1973 C247 1.431 . S
C1985 C121 1.461 . S
C2000 C233 1.465 . S
C2012 C135 1.447 1_655 S
C2027 C149 1.425 . S
C2039 C275 1.447 . S
C2054 C163 1.418 1_655 S
C2066 C261 1.457 . S
C2081 C303 1.435 . S
C2093 C177 1.463 . S
C2108 C191 1.474 1_455 S
C2120 C289 1.428 . S
C2135 C205 1.456 . S
C2147 C331 1.429 . S
C2162 C219 1.418 1_455 S
C2174 C317 1.464 . S
