# Generated by pormake.
# Topology umh, (4)-cn, num edge types: 1
# Building blocks:
#     Node 0, Type 0, BuildingBlock: QUQFOY_clean_sbu_1, # of connection points: 4
#     Node 1, Type 0, BuildingBlock: QUQFOY_clean_sbu_1, # of connection points: 4
#     Node 2, Type 0, BuildingBlock: QUQFOY_clean_sbu_1, # of connection points: 4
#     Node 3, Type 0, BuildingBlock: QUQFOY_clean_sbu_1, # of connection points: 4
#     Node 4, Type 0, BuildingBlock: QUQFOY_clean_sbu_1, # of connection points: 4
#     Node 5, Type 0, BuildingBlock: QUQFOY_clean_sbu_1, # of connection points: 4
#     Node 6, Type 0, BuildingBlock: QUQFOY_clean_sbu_1, # of connection points: 4
#     Node 7, Type 0, BuildingBlock: QUQFOY_clean_sbu_1, # of connection points: 4
#     Node 8, Type 0, BuildingBlock: QUQFOY_clean_sbu_1, # of connection points: 4
#     Node 9, Type 0, BuildingBlock: QUQFOY_clean_sbu_1, # of connection points: 4
#     Node 10, Type 0, BuildingBlock: QUQFOY_clean_sbu_1, # of connection points: 4
#     Node 11, Type 0, BuildingBlock: QUQFOY_clean_sbu_1, # of connection points: 4
#     Node 12, Type 0, BuildingBlock: QUQFOY_clean_sbu_1, # of connection points: 4
#     Node 13, Type 0, BuildingBlock: QUQFOY_clean_sbu_1, # of connection points: 4
#     Node 14, Type 0, BuildingBlock: QUQFOY_clean_sbu_1, # of connection points: 4
#     Node 15, Type 0, BuildingBlock: QUQFOY_clean_sbu_1, # of connection points: 4
#     Edge 16, Type (0, 0), BuildingBlock: XUDNAN_clean_linker_2, # of connection points: 2
#     Edge 17, Type (0, 0), BuildingBlock: XUDNAN_clean_linker_2, # of connection points: 2
#     Edge 18, Type (0, 0), BuildingBlock: XUDNAN_clean_linker_2, # of connection points: 2
#     Edge 19, Type (0, 0), BuildingBlock: XUDNAN_clean_linker_2, # of connection points: 2
#     Edge 20, Type (0, 0), BuildingBlock: XUDNAN_clean_linker_2, # of connection points: 2
#     Edge 21, Type (0, 0), BuildingBlock: XUDNAN_clean_linker_2, # of connection points: 2
#     Edge 22, Type (0, 0), BuildingBlock: XUDNAN_clean_linker_2, # of connection points: 2
#     Edge 23, Type (0, 0), BuildingBlock: XUDNAN_clean_linker_2, # of connection points: 2
#     Edge 24, Type (0, 0), BuildingBlock: XUDNAN_clean_linker_2, # of connection points: 2
#     Edge 25, Type (0, 0), BuildingBlock: XUDNAN_clean_linker_2, # of connection points: 2
#     Edge 26, Type (0, 0), BuildingBlock: XUDNAN_clean_linker_2, # of connection points: 2
#     Edge 27, Type (0, 0), BuildingBlock: XUDNAN_clean_linker_2, # of connection points: 2
#     Edge 28, Type (0, 0), BuildingBlock: XUDNAN_clean_linker_2, # of connection points: 2
#     Edge 29, Type (0, 0), BuildingBlock: XUDNAN_clean_linker_2, # of connection points: 2
#     Edge 30, Type (0, 0), BuildingBlock: XUDNAN_clean_linker_2, # of connection points: 2
#     Edge 31, Type (0, 0), BuildingBlock: XUDNAN_clean_linker_2, # of connection points: 2
#     Edge 32, Type (0, 0), BuildingBlock: XUDNAN_clean_linker_2, # of connection points: 2
#     Edge 33, Type (0, 0), BuildingBlock: XUDNAN_clean_linker_2, # of connection points: 2
#     Edge 34, Type (0, 0), BuildingBlock: XUDNAN_clean_linker_2, # of connection points: 2
#     Edge 35, Type (0, 0), BuildingBlock: XUDNAN_clean_linker_2, # of connection points: 2
#     Edge 36, Type (0, 0), BuildingBlock: XUDNAN_clean_linker_2, # of connection points: 2
#     Edge 37, Type (0, 0), BuildingBlock: XUDNAN_clean_linker_2, # of connection points: 2
#     Edge 38, Type (0, 0), BuildingBlock: XUDNAN_clean_linker_2, # of connection points: 2
#     Edge 39, Type (0, 0), BuildingBlock: XUDNAN_clean_linker_2, # of connection points: 2
#     Edge 40, Type (0, 0), BuildingBlock: XUDNAN_clean_linker_2, # of connection points: 2
#     Edge 41, Type (0, 0), BuildingBlock: XUDNAN_clean_linker_2, # of connection points: 2
#     Edge 42, Type (0, 0), BuildingBlock: XUDNAN_clean_linker_2, # of connection points: 2
#     Edge 43, Type (0, 0), BuildingBlock: XUDNAN_clean_linker_2, # of connection points: 2
#     Edge 44, Type (0, 0), BuildingBlock: XUDNAN_clean_linker_2, # of connection points: 2
#     Edge 45, Type (0, 0), BuildingBlock: XUDNAN_clean_linker_2, # of connection points: 2
#     Edge 46, Type (0, 0), BuildingBlock: XUDNAN_clean_linker_2, # of connection points: 2
#     Edge 47, Type (0, 0), BuildingBlock: XUDNAN_clean_linker_2, # of connection points: 2
# Relax obj value: 0.066
# Max RMSD: 0.411
# Mean RMSD: 0.288
data_MOF--net-umh--node1-QUQFOY_clean_sbu_1--edge1-XUDNAN_clean_linker_2
_symmetry_space_group_name_H-M    P1
_symmetry_Int_Tables_number       1
_symmetry_cell_setting            triclinic
loop_
_symmetry_equiv_pos_as_xyz
'x, y, z'
_cell_length_a     40.875635
_cell_length_b     41.247628
_cell_length_c     52.364993
_cell_angle_alpha  92.958114
_cell_angle_beta   87.670534
_cell_angle_gamma 89.417952
loop_
_atom_site_label
_atom_site_type_symbol
_atom_site_fract_x
_atom_site_fract_y
_atom_site_fract_z
_atom_type_partial_charge
O0 O 0.38534 0.12969 0.13394 0.0
Cd1 Cd 0.38472 0.12745 0.17322 0.0
Cd2 Cd 0.32474 0.09918 0.16187 0.0
O3 O 0.34221 0.10044 0.12359 0.0
O4 O 0.43062 0.11992 0.18518 0.0
O5 O 0.3907 0.08434 0.18774 0.0
C6 C 0.42081 0.09154 0.1913 0.0
C7 C 0.30107 0.05858 0.18579 0.0
C8 C 0.36713 0.11709 0.11701 0.0
C9 C 0.32591 0.16462 0.19209 0.0
O10 O 0.31078 0.14296 0.17933 0.0
O11 O 0.35688 0.16318 0.19373 0.0
O12 O 0.28438 0.07279 0.16905 0.0
O13 O 0.33204 0.06405 0.18604 0.0
O14 O 0.36906 0.41326 0.64421 0.0
Cd15 Cd 0.37144 0.40733 0.68294 0.0
Cd16 Cd 0.39874 0.35272 0.66503 0.0
O17 O 0.4092 0.37879 0.63254 0.0
O18 O 0.37119 0.45175 0.70137 0.0
O19 O 0.41518 0.42029 0.69571 0.0
C20 C 0.40232 0.44777 0.70371 0.0
C21 C 0.42834 0.33268 0.69809 0.0
C22 C 0.38936 0.4013 0.62709 0.0
C23 C 0.33345 0.34668 0.68634 0.0
O24 O 0.35196 0.33691 0.66739 0.0
O25 O 0.33989 0.3729 0.69912 0.0
O26 O 0.42962 0.31762 0.67574 0.0
O27 O 0.41336 0.36034 0.70051 0.0
O28 O 0.13562 0.39344 0.13516 0.0
Cd29 Cd 0.13074 0.39211 0.1745 0.0
Cd30 Cd 0.18987 0.42161 0.17087 0.0
O31 O 0.1755 0.42921 0.13368 0.0
O32 O 0.08285 0.39632 0.18506 0.0
O33 O 0.11969 0.43392 0.19359 0.0
C34 C 0.08959 0.42487 0.19465 0.0
C35 C 0.21007 0.4589 0.20151 0.0
C36 C 0.15391 0.4121 0.12245 0.0
C37 C 0.18743 0.3534 0.18908 0.0
O38 O 0.204 0.37527 0.17849 0.0
O39 O 0.15644 0.35636 0.19201 0.0
O40 O 0.2284 0.44815 0.18217 0.0
O41 O 0.17959 0.45114 0.20192 0.0
O42 O 0.13132 0.11448 0.64169 0.0
Cd43 Cd 0.12874 0.12038 0.68115 0.0
Cd44 Cd 0.09755 0.17252 0.66897 0.0
O45 O 0.09001 0.14698 0.63421 0.0
O46 O 0.13342 0.07574 0.69476 0.0
O47 O 0.08702 0.10384 0.69674 0.0
C48 C 0.10232 0.07709 0.70032 0.0
C49 C 0.06357 0.19283 0.70324 0.0
C50 C 0.11115 0.12539 0.62624 0.0
C51 C 0.16319 0.18245 0.68751 0.0
O52 O 0.14322 0.19143 0.67124 0.0
O53 O 0.15913 0.15553 0.69811 0.0
O54 O 0.06516 0.20744 0.68193 0.0
O55 O 0.07836 0.16514 0.70385 0.0
O56 O 0.37674 0.39728 0.43091 0.0
Cd57 Cd 0.38042 0.39035 0.39175 0.0
Cd58 Cd 0.32838 0.42957 0.39407 0.0
O59 O 0.34509 0.44095 0.43081 0.0
O60 O 0.42813 0.3857 0.38083 0.0
O61 O 0.39798 0.42918 0.37453 0.0
C62 C 0.42638 0.41508 0.3734 0.0
C63 C 0.31184 0.46441 0.36288 0.0
C64 C 0.36287 0.42166 0.44282 0.0
C65 C 0.31787 0.35928 0.37901 0.0
O66 O 0.30557 0.38578 0.38866 0.0
O67 O 0.34883 0.35601 0.37565 0.0
O68 O 0.29472 0.46187 0.38394 0.0
O69 O 0.34005 0.44997 0.36083 0.0
O70 O 0.13622 0.38799 0.92043 0.0
Cd71 Cd 0.13893 0.38128 0.88102 0.0
Cd72 Cd 0.10766 0.32488 0.89619 0.0
O73 O 0.10315 0.3489 0.93246 0.0
O74 O 0.13689 0.42621 0.86663 0.0
O75 O 0.09796 0.38982 0.86297 0.0
C76 C 0.10797 0.41873 0.85932 0.0
C77 C 0.06892 0.30324 0.86844 0.0
C78 C 0.12 0.37407 0.93795 0.0
C79 C 0.17679 0.31929 0.87229 0.0
O80 O 0.15371 0.30774 0.8859 0.0
O81 O 0.17514 0.34855 0.86546 0.0
O82 O 0.07816 0.28695 0.88739 0.0
O83 O 0.07893 0.33261 0.86717 0.0
O84 O 0.12487 0.12169 0.42854 0.0
Cd85 Cd 0.12212 0.12574 0.38961 0.0
Cd86 Cd 0.17977 0.09673 0.38862 0.0
O87 O 0.16323 0.08356 0.42506 0.0
O88 O 0.07447 0.12656 0.38115 0.0
O89 O 0.10783 0.08502 0.37081 0.0
C90 C 0.07858 0.0972 0.3716 0.0
C91 C 0.19817 0.06353 0.35308 0.0
C92 C 0.14203 0.10039 0.43875 0.0
C93 C 0.17984 0.16647 0.37737 0.0
O94 O 0.19616 0.14351 0.38625 0.0
O95 O 0.14933 0.16303 0.37384 0.0
O96 O 0.2157 0.06738 0.37297 0.0
O97 O 0.16914 0.07624 0.35431 0.0
O98 O 0.37491 0.11926 0.9197 0.0
Cd99 Cd 0.36856 0.09813 0.88332 0.0
Cd100 Cd 0.39538 0.17914 0.87852 0.0
O101 O 0.39474 0.16986 0.91787 0.0
O102 O 0.38278 0.05137 0.87812 0.0
O103 O 0.41126 0.09256 0.86363 0.0
C104 C 0.40893 0.06174 0.86654 0.0
C105 C 0.42237 0.21767 0.85517 0.0
C106 C 0.3851 0.14557 0.93057 0.0
C107 C 0.3419 0.14353 0.85517 0.0
O108 O 0.37266 0.14612 0.85578 0.0
O109 O 0.3303 0.11764 0.86358 0.0
O110 O 0.39372 0.22393 0.86587 0.0
O111 O 0.43709 0.19105 0.86049 0.0
O112 O 0.62647 0.88088 0.92734 0.0
Cd113 Cd 0.63288 0.88123 0.88804 0.0
Cd114 Cd 0.69097 0.90645 0.90421 0.0
O115 O 0.66754 0.91091 0.94067 0.0
O116 O 0.58716 0.88173 0.87451 0.0
O117 O 0.62164 0.92237 0.87153 0.0
C118 C 0.59291 0.91094 0.86792 0.0
C119 C 0.71252 0.94371 0.87614 0.0
C120 C 0.64143 0.89516 0.9455 0.0
C121 C 0.69319 0.8408 0.87674 0.0
O122 O 0.70635 0.86063 0.89247 0.0
O123 O 0.66395 0.84567 0.87002 0.0
O124 O 0.72937 0.93472 0.895 0.0
O125 O 0.68249 0.9346 0.87534 0.0
O126 O 0.62283 0.62736 0.43072 0.0
Cd127 Cd 0.62649 0.62224 0.3914 0.0
Cd128 Cd 0.59029 0.67747 0.39524 0.0
O129 O 0.58231 0.66346 0.43313 0.0
O130 O 0.62824 0.57452 0.38092 0.0
O131 O 0.58548 0.60628 0.37544 0.0
C132 C 0.59836 0.57751 0.37408 0.0
C133 C 0.55343 0.69406 0.36513 0.0
C134 C 0.60127 0.64399 0.44399 0.0
C135 C 0.66059 0.68141 0.37576 0.0
O136 O 0.63543 0.69584 0.38603 0.0
O137 O 0.66195 0.65051 0.37348 0.0
O138 O 0.56024 0.71297 0.38459 0.0
O139 O 0.56438 0.66456 0.36455 0.0
O140 O 0.89458 0.61963 0.9172 0.0
Cd141 Cd 0.89925 0.62032 0.87793 0.0
Cd142 Cd 0.84299 0.58693 0.88086 0.0
O143 O 0.85934 0.57937 0.91785 0.0
O144 O 0.94685 0.61422 0.86662 0.0
O145 O 0.90883 0.57719 0.86011 0.0
C146 C 0.93924 0.58525 0.85845 0.0
C147 C 0.81871 0.55199 0.85041 0.0
C148 C 0.87863 0.59879 0.92955 0.0
C149 C 0.84017 0.65551 0.86418 0.0
O150 O 0.82563 0.63243 0.87483 0.0
O151 O 0.87123 0.65511 0.8608 0.0
O152 O 0.80403 0.55954 0.87224 0.0
O153 O 0.84884 0.56055 0.84734 0.0
O154 O 0.89025 0.88645 0.42375 0.0
Cd155 Cd 0.89029 0.8819 0.38444 0.0
Cd156 Cd 0.91801 0.82585 0.39375 0.0
O157 O 0.92676 0.8482 0.42989 0.0
O158 O 0.88613 0.92769 0.37303 0.0
O159 O 0.93144 0.89822 0.36725 0.0
C160 C 0.91673 0.92583 0.36586 0.0
C161 C 0.95193 0.80734 0.35875 0.0
C162 C 0.90887 0.87218 0.4386 0.0
C163 C 0.85075 0.82191 0.37594 0.0
O164 O 0.8716 0.80881 0.38966 0.0
O165 O 0.85539 0.85061 0.36853 0.0
O166 O 0.94936 0.79092 0.37913 0.0
O167 O 0.93821 0.83571 0.35955 0.0
O168 O 0.61981 0.62732 0.64539 0.0
Cd169 Cd 0.62517 0.62486 0.68444 0.0
Cd170 Cd 0.68113 0.59844 0.66549 0.0
O171 O 0.65785 0.59197 0.63075 0.0
O172 O 0.57961 0.63059 0.70026 0.0
O173 O 0.60763 0.58449 0.6997 0.0
C174 C 0.58058 0.60021 0.70506 0.0
C175 C 0.70087 0.56318 0.69507 0.0
C176 C 0.63355 0.61051 0.62678 0.0
C177 C 0.68474 0.66353 0.69094 0.0
O178 O 0.69646 0.64481 0.6728 0.0
O179 O 0.65725 0.65756 0.70193 0.0
O180 O 0.71825 0.56907 0.67465 0.0
O181 O 0.67127 0.57453 0.69709 0.0
O182 O 0.89617 0.62296 0.13216 0.0
Cd183 Cd 0.89361 0.62865 0.17164 0.0
Cd184 Cd 0.91774 0.68844 0.15749 0.0
O185 O 0.92387 0.66596 0.12053 0.0
O186 O 0.89469 0.58325 0.18475 0.0
O187 O 0.93379 0.61912 0.19047 0.0
C188 C 0.92306 0.59028 0.19334 0.0
C189 C 0.95399 0.70866 0.18778 0.0
C190 C 0.90998 0.63907 0.11472 0.0
C191 C 0.85041 0.68705 0.18277 0.0
O192 O 0.87072 0.70162 0.16851 0.0
O193 O 0.85588 0.65785 0.18849 0.0
O194 O 0.9453 0.72652 0.16954 0.0
O195 O 0.94519 0.67875 0.18677 0.0
O196 O 0.8957 0.88045 0.63723 0.0
Cd197 Cd 0.89728 0.8788 0.67668 0.0
Cd198 Cd 0.84317 0.9115 0.67482 0.0
O199 O 0.86355 0.92381 0.63937 0.0
O200 O 0.94416 0.8771 0.68694 0.0
O201 O 0.91184 0.92031 0.69372 0.0
C202 C 0.94049 0.90717 0.6949 0.0
C203 C 0.82243 0.94374 0.71021 0.0
C204 C 0.88235 0.90372 0.62627 0.0
C205 C 0.83704 0.84361 0.68779 0.0
O206 O 0.82444 0.86571 0.67521 0.0
O207 O 0.86643 0.84614 0.69477 0.0
O208 O 0.807 0.94155 0.68914 0.0
O209 O 0.85106 0.93027 0.71027 0.0
O210 O 0.62099 0.87702 0.14193 0.0
Cd211 Cd 0.6215 0.88218 0.1811 0.0
Cd212 Cd 0.58759 0.82616 0.17794 0.0
O213 O 0.58087 0.84152 0.14066 0.0
O214 O 0.61503 0.92939 0.19219 0.0
O215 O 0.57789 0.89148 0.19821 0.0
C216 C 0.58573 0.92173 0.19979 0.0
C217 C 0.55083 0.80287 0.20722 0.0
C218 C 0.60028 0.86077 0.12928 0.0
C219 C 0.65698 0.82441 0.19577 0.0
O220 O 0.6334 0.80956 0.18552 0.0
O221 O 0.65681 0.85527 0.19846 0.0
O222 O 0.55976 0.78762 0.18588 0.0
O223 O 0.55933 0.83281 0.21036 0.0
H224 H 0.35186 0.1073 0.96414 0.0
H225 H 0.41979 0.18743 0.96156 0.0
H226 H 0.42271 0.18804 1.00868 0.0
H227 H 0.30775 0.13606 1.02263 0.0
H228 H 0.30189 0.09588 0.03389 0.0
H229 H 0.30514 0.10179 1.00004 0.0
H230 H 0.35289 0.0599 0.99511 0.0
H231 H 0.34994 0.05399 1.02897 0.0
H232 H 0.38833 0.06567 1.01417 0.0
H233 H 0.42025 0.17825 0.05561 0.0
H234 H 0.40944 0.16237 0.09965 0.0
H235 H 0.34087 0.08979 0.07258 0.0
C236 C 0.36737 0.12504 0.97344 0.0
C237 C 0.38581 0.14725 0.95903 0.0
C238 C 0.40544 0.17024 0.97209 0.0
C239 C 0.40733 0.17067 0.99885 0.0
C240 C 0.38914 0.14821 1.01236 0.0
C241 C 0.36921 0.12608 1.00015 0.0
C242 C 0.35172 0.10496 1.01923 0.0
C243 C 0.31441 0.10998 1.01893 0.0
C244 C 0.3613 0.069 1.01406 0.0
C245 C 0.36519 0.11844 0.04414 0.0
C246 C 0.3869 0.14321 0.03962 0.0
C247 C 0.40315 0.15904 0.05937 0.0
C248 C 0.39687 0.14963 0.0844 0.0
C249 C 0.37423 0.12472 0.0898 0.0
C250 C 0.35823 0.10892 0.06923 0.0
H251 H 0.3945 0.3816 0.47441 0.0
H252 H 0.33998 0.47256 0.47496 0.0
H253 H 0.34497 0.4792 0.52185 0.0
H254 H 0.35819 0.35405 0.53148 0.0
H255 H 0.39505 0.33545 0.54199 0.0
H256 H 0.38938 0.33915 0.50836 0.0
H257 H 0.44419 0.36981 0.50428 0.0
H258 H 0.45002 0.36626 0.53795 0.0
H259 H 0.45051 0.40565 0.52457 0.0
H260 H 0.35299 0.47423 0.56889 0.0
H261 H 0.36212 0.45773 0.61262 0.0
H262 H 0.4117 0.3699 0.58166 0.0
C263 C 0.38392 0.40318 0.48428 0.0
C264 C 0.36692 0.42667 0.47087 0.0
C265 C 0.35317 0.45428 0.4847 0.0
C266 C 0.35596 0.45829 0.51135 0.0
C267 C 0.37265 0.43454 0.52393 0.0
C268 C 0.38641 0.40752 0.51084 0.0
C269 C 0.40163 0.38473 0.52902 0.0
C270 C 0.38507 0.35138 0.52763 0.0
C271 C 0.4388 0.38143 0.52363 0.0
C272 C 0.39385 0.40288 0.5545 0.0
C273 C 0.37732 0.43167 0.55107 0.0
C274 C 0.36615 0.45191 0.57176 0.0
C275 C 0.37145 0.44226 0.59657 0.0
C276 C 0.38781 0.41258 0.60065 0.0
C277 C 0.39963 0.39296 0.57922 0.0
H278 H 0.10189 0.34541 0.98332 0.0
H279 H 0.1461 0.43187 0.95367 0.0
H280 H 0.15789 0.45156 0.99736 0.0
H281 H 0.06508 0.38609 0.04243 0.0
H282 H 0.0732 0.35204 0.06157 0.0
H283 H 0.06611 0.34545 1.02796 0.0
H284 H 0.12155 0.31452 1.02162 0.0
H285 H 0.12892 0.32125 0.05513 0.0
H286 H 0.15852 0.3342 1.03143 0.0
H287 H 0.1695 0.46013 0.04378 0.0
H288 H 0.17616 0.45851 0.09043 0.0
H289 H 0.12311 0.36788 0.09081 0.0
C290 C 0.11346 0.36875 0.98607 0.0
C291 C 0.12305 0.38696 0.96487 0.0
C292 C 0.13854 0.41727 0.96943 0.0
C293 C 0.14539 0.42877 0.99425 0.0
C294 C 0.13645 0.40994 1.0146 0.0
C295 C 0.12046 0.38077 1.0109 0.0
C296 C 0.1144 0.36498 0.03621 0.0
C297 C 0.0775 0.36197 0.04241 0.0
C298 C 0.1319 0.33178 0.03608 0.0
C299 C 0.1299 0.3896 0.05449 0.0
C300 C 0.14254 0.4153 0.0416 0.0
C301 C 0.15933 0.44031 0.05416 0.0
C302 C 0.16313 0.43914 0.08065 0.0
C303 C 0.14999 0.41327 0.09439 0.0
C304 C 0.1331 0.38826 0.08098 0.0
H305 H 0.08737 0.15392 0.58376 0.0
H306 H 0.143 0.07078 0.60659 0.0
H307 H 0.15419 0.05366 0.56133 0.0
H308 H 0.0523 0.11312 0.52658 0.0
H309 H 0.05586 0.14872 0.50813 0.0
H310 H 0.04957 0.15298 0.54241 0.0
H311 H 0.1016 0.18809 0.54529 0.0
H312 H 0.10815 0.18377 0.51108 0.0
H313 H 0.14003 0.17207 0.53168 0.0
H314 H 0.1635 0.04775 0.51363 0.0
H315 H 0.16857 0.05285 0.46681 0.0
H316 H 0.10672 0.1393 0.47443 0.0
C317 C 0.10128 0.13174 0.57922 0.0
C318 C 0.11418 0.11368 0.59885 0.0
C319 C 0.13282 0.08511 0.592 0.0
C320 C 0.13931 0.07509 0.56628 0.0
C321 C 0.12697 0.09379 0.54742 0.0
C322 C 0.10814 0.12139 0.55351 0.0
C323 C 0.0993 0.13794 0.52944 0.0
C324 C 0.06204 0.13819 0.52647 0.0
C325 C 0.1131 0.17251 0.52938 0.0
C326 C 0.11654 0.11566 0.50904 0.0
C327 C 0.13225 0.09026 0.51981 0.0
C328 C 0.15098 0.06734 0.50493 0.0
C329 C 0.1538 0.07047 0.47833 0.0
C330 C 0.13793 0.09632 0.46679 0.0
C331 C 0.11889 0.11901 0.48251 0.0
H332 H 0.64611 0.8898 0.09842 0.0
H333 H 0.55329 0.83968 0.09626 0.0
H334 H 0.55267 0.846 0.04954 0.0
H335 H 0.62975 0.94762 0.05056 0.0
H336 H 0.67095 0.94586 0.03686 0.0
H337 H 0.66353 0.93862 0.07023 0.0
H338 H 0.69337 0.88294 0.06373 0.0
H339 H 0.70101 0.89006 1.03039 0.0
H340 H 0.68011 0.85389 0.03951 0.0
H341 H 0.56241 0.85732 1.00319 0.0
H342 H 0.58283 0.86942 0.96002 0.0
H343 H 0.67052 0.91122 0.99163 0.0
C344 C 0.62547 0.88033 0.08821 0.0
C345 C 0.59955 0.86438 0.10115 0.0
C346 C 0.57334 0.85199 0.08688 0.0
C347 C 0.57276 0.85559 0.06033 0.0
C348 C 0.59865 0.87147 0.04826 0.0
C349 C 0.62464 0.88345 0.0617 0.0
C350 C 0.65006 0.89834 0.04396 0.0
C351 C 0.65378 0.93478 0.05082 0.0
C352 C 0.68308 0.88022 0.04443 0.0
C353 C 0.63438 0.89276 1.01835 0.0
C354 C 0.60462 0.87746 1.02139 0.0
C355 C 0.58566 0.86928 1.00062 0.0
C356 C 0.5976 0.87632 0.97609 0.0
C357 C 0.62843 0.89131 0.97222 0.0
C358 C 0.64682 0.90001 0.99383 0.0
H359 H 0.66332 0.59121 0.57961 0.0
H360 H 0.57675 0.64001 0.61448 0.0
H361 H 0.55835 0.65232 0.57188 0.0
H362 H 0.67746 0.6466 0.53085 0.0
H363 H 0.69048 0.61632 0.5064 0.0
H364 H 0.69616 0.60919 0.53957 0.0
H365 H 0.66384 0.55566 0.53498 0.0
H366 H 0.65825 0.56253 0.50173 0.0
H367 H 0.6232 0.55637 0.52286 0.0
H368 H 0.55072 0.66286 0.52558 0.0
H369 H 0.55362 0.66833 0.47871 0.0
H370 H 0.64432 0.61222 0.47343 0.0
C371 C 0.64024 0.60397 0.57825 0.0
C372 C 0.62156 0.61456 0.60057 0.0
C373 C 0.59166 0.63162 0.59782 0.0
C374 C 0.58089 0.63878 0.57363 0.0
C375 C 0.60013 0.62867 0.55211 0.0
C376 C 0.62904 0.6114 0.55411 0.0
C377 C 0.64549 0.6043 0.52786 0.0
C378 C 0.6794 0.62005 0.52608 0.0
C379 C 0.64782 0.56753 0.52148 0.0
C380 C 0.62152 0.62058 0.51097 0.0
C381 C 0.59552 0.63449 0.52534 0.0
C382 C 0.57084 0.65179 0.51409 0.0
C383 C 0.57272 0.65487 0.48743 0.0
C384 C 0.59904 0.64062 0.47223 0.0
C385 C 0.62365 0.6232 0.48435 0.0
H386 H 0.90463 0.64583 0.96166 0.0
H387 H 0.86106 0.55028 0.96139 0.0
H388 H 0.86774 0.54932 1.00811 0.0
H389 H 0.96409 0.63333 1.00995 0.0
H390 H 0.95913 0.67374 1.02451 0.0
H391 H 0.95239 0.66642 0.99091 0.0
H392 H 0.89415 0.69154 0.99736 0.0
H393 H 0.90075 0.69909 1.03092 0.0
H394 H 0.86604 0.67576 1.02093 0.0
H395 H 0.87878 0.55885 0.05469 0.0
H396 H 0.88926 0.57922 0.09843 0.0
H397 H 0.92422 0.66994 0.06939 0.0
C398 C 0.89671 0.62453 0.97135 0.0
C399 C 0.88251 0.59793 0.95771 0.0
C400 C 0.87202 0.57087 0.97131 0.0
C401 C 0.87585 0.57009 0.99785 0.0
C402 C 0.88998 0.59666 1.01063 0.0
C403 C 0.9 0.62352 0.99789 0.0
C404 C 0.91302 0.64952 1.01638 0.0
C405 C 0.94932 0.65613 1.01005 0.0
C406 C 0.89224 0.68082 1.0164 0.0
C407 C 0.90866 0.63315 0.0416 0.0
C408 C 0.89562 0.60255 0.0377 0.0
C409 C 0.88894 0.58277 0.05793 0.0
C410 C 0.89505 0.59469 0.08281 0.0
C411 C 0.90758 0.62634 0.08761 0.0
C412 C 0.9149 0.6456 0.06651 0.0
H413 H 0.92616 0.83915 0.48127 0.0
H414 H 0.88908 0.93173 0.45818 0.0
H415 H 0.88141 0.95071 0.50331 0.0
H416 H 0.87045 0.83238 0.53399 0.0
H417 H 0.89917 0.81459 0.5546 0.0
H418 H 0.9049 0.80885 0.5204 0.0
H419 H 0.9632 0.83252 0.52275 0.0
H420 H 0.95771 0.83816 0.55702 0.0
H421 H 0.9687 0.87206 0.53818 0.0
H422 H 0.87305 0.95853 0.55071 0.0
H423 H 0.86657 0.95502 0.59759 0.0
H424 H 0.90947 0.85806 0.59103 0.0
C425 C 0.91713 0.86364 0.48574 0.0
C426 C 0.90831 0.88392 0.46603 0.0
C427 C 0.89597 0.91562 0.4728 0.0
C428 C 0.89155 0.92673 0.49846 0.0
C429 C 0.89963 0.90599 0.5174 0.0
C430 C 0.91239 0.87519 0.51147 0.0
C431 C 0.91747 0.85739 0.53573 0.0
C432 C 0.89676 0.82648 0.5362 0.0
C433 C 0.95395 0.84958 0.53859 0.0
C434 C 0.90506 0.88278 0.55603 0.0
C435 C 0.895 0.91067 0.54499 0.0
C436 C 0.88122 0.93696 0.55963 0.0
C437 C 0.87754 0.93472 0.58627 0.0
C438 C 0.88768 0.90642 0.59814 0.0
C439 C 0.90184 0.88025 0.58267 0.0
H440 H 0.25278 0.33913 0.18265 0.0
H441 H 0.1617 0.30199 0.21442 0.0
H442 H 0.19113 0.25266 0.2263 0.0
H443 H 0.28078 0.26728 0.15345 0.0
H444 H 0.32341 0.27369 0.15944 0.0
H445 H 0.2963 0.30792 0.15743 0.0
H446 H 0.31268 0.32962 0.20243 0.0
H447 H 0.33973 0.29515 0.20464 0.0
H448 H 0.30822 0.30398 0.22918 0.0
H449 H 0.22832 0.20481 0.22904 0.0
H450 H 0.26932 0.16093 0.22016 0.0
H451 H 0.33668 0.22929 0.18738 0.0
C452 C 0.23903 0.32097 0.19258 0.0
C453 C 0.20487 0.32449 0.19766 0.0
C454 C 0.18784 0.29988 0.21036 0.0
C455 C 0.20442 0.2719 0.21735 0.0
C456 C 0.23804 0.26907 0.21172 0.0
C457 C 0.25515 0.29299 0.19963 0.0
C458 C 0.29034 0.28266 0.1932 0.0
C459 C 0.29813 0.28289 0.16417 0.0
C460 C 0.31415 0.30413 0.20827 0.0
C461 C 0.29003 0.24848 0.20243 0.0
C462 C 0.25978 0.24139 0.21356 0.0
C463 C 0.25229 0.2103 0.22097 0.0
C464 C 0.27573 0.18557 0.21591 0.0
C465 C 0.30629 0.19206 0.20365 0.0
C466 C 0.31398 0.22409 0.19768 0.0
H467 H 0.2933 0.31594 0.65382 0.0
H468 H 0.31214 0.32987 0.73442 0.0
H469 H 0.27131 0.28746 0.74431 0.0
H470 H 0.20548 0.3029 0.66192 0.0
H471 H 0.20552 0.27354 0.63521 0.0
H472 H 0.23492 0.30574 0.63557 0.0
H473 H 0.28185 0.26293 0.62917 0.0
H474 H 0.25265 0.23058 0.62937 0.0
H475 H 0.28514 0.23152 0.65166 0.0
H476 H 0.23095 0.23916 0.744 0.0
H477 H 0.18986 0.19658 0.73434 0.0
H478 H 0.19758 0.21781 0.65416 0.0
C479 C 0.28837 0.31049 0.67362 0.0
C480 C 0.30556 0.32614 0.6934 0.0
C481 C 0.29872 0.31838 0.71907 0.0
C482 C 0.27587 0.29414 0.72478 0.0
C483 C 0.25995 0.27841 0.70459 0.0
C484 C 0.26553 0.28691 0.67959 0.0
C485 C 0.24548 0.26692 0.66118 0.0
C486 C 0.22142 0.28857 0.64769 0.0
C487 C 0.26761 0.2468 0.64171 0.0
C488 C 0.22782 0.24548 0.67957 0.0
C489 C 0.2366 0.25197 0.70452 0.0
C490 C 0.22375 0.23418 0.72455 0.0
C491 C 0.20072 0.20987 0.7189 0.0
C492 C 0.19064 0.20409 0.69354 0.0
C493 C 0.20476 0.22189 0.67375 0.0
H494 H 0.32672 0.29318 0.3825 0.0
H495 H 0.25709 0.36593 0.36102 0.0
H496 H 0.21565 0.32361 0.3545 0.0
H497 H 0.29855 0.22546 0.33902 0.0
H498 H 0.30417 0.19567 0.36252 0.0
H499 H 0.32993 0.23086 0.36203 0.0
H500 H 0.31336 0.24512 0.4096 0.0
H501 H 0.28742 0.21017 0.41018 0.0
H502 H 0.2706 0.24991 0.41905 0.0
H503 H 0.18003 0.27461 0.35408 0.0
H504 H 0.15278 0.22221 0.3602 0.0
H505 H 0.2447 0.18114 0.38304 0.0
C506 C 0.30306 0.29994 0.37571 0.0
C507 C 0.29521 0.33277 0.372 0.0
C508 C 0.26364 0.34089 0.36388 0.0
C509 C 0.23994 0.31702 0.36005 0.0
C510 C 0.24804 0.28502 0.36454 0.0
C511 C 0.27883 0.27635 0.37212 0.0
C512 C 0.28016 0.24066 0.37777 0.0
C513 C 0.30466 0.22207 0.35922 0.0
C514 C 0.28836 0.23622 0.40581 0.0
C515 C 0.24519 0.23093 0.37274 0.0
C516 C 0.22719 0.25677 0.36481 0.0
C517 C 0.19396 0.25406 0.36002 0.0
C518 C 0.17866 0.2242 0.36359 0.0
C519 C 0.19649 0.19745 0.37207 0.0
C520 C 0.23031 0.20098 0.37641 0.0
H521 H 0.27928 0.1545 0.87486 0.0
H522 H 0.35657 0.19793 0.82945 0.0
H523 H 0.32295 0.24803 0.82767 0.0
H524 H 0.21108 0.189 0.8424 0.0
H525 H 0.18615 0.19462 0.87151 0.0
H526 H 0.21607 0.16217 0.86811 0.0
H527 H 0.24258 0.18377 0.90973 0.0
H528 H 0.21285 0.21634 0.91318 0.0
H529 H 0.25594 0.22528 0.91234 0.0
H530 H 0.28034 0.29481 0.83264 0.0
H531 H 0.23324 0.33235 0.84334 0.0
H532 H 0.18506 0.25656 0.88486 0.0
C533 C 0.28901 0.17438 0.86429 0.0
C534 C 0.32072 0.17251 0.85258 0.0
C535 C 0.33255 0.19914 0.83899 0.0
C536 C 0.31354 0.22761 0.83775 0.0
C537 C 0.28258 0.22895 0.85001 0.0
C538 C 0.2704 0.20287 0.86287 0.0
C539 C 0.23684 0.21045 0.875 0.0
C540 C 0.21102 0.18771 0.86356 0.0
C541 C 0.23709 0.20887 0.90429 0.0
C542 C 0.23205 0.24491 0.86717 0.0
C543 C 0.2585 0.25533 0.8527 0.0
C544 C 0.25943 0.28676 0.84386 0.0
C545 C 0.2326 0.30795 0.85004 0.0
C546 C 0.20533 0.29758 0.86494 0.0
C547 C 0.20534 0.26552 0.87339 0.0
H548 H 0.75792 0.82858 0.88362 0.0
H549 H 0.67272 0.78776 0.84757 0.0
H550 H 0.70516 0.73834 0.83413 0.0
H551 H 0.82058 0.79256 0.83649 0.0
H552 H 0.84901 0.78596 0.86119 0.0
H553 H 0.82057 0.81976 0.86456 0.0
H554 H 0.79902 0.79986 0.90821 0.0
H555 H 0.82735 0.76617 0.90501 0.0
H556 H 0.78418 0.75898 0.90993 0.0
H557 H 0.74415 0.69096 0.83026 0.0
H558 H 0.78601 0.64896 0.83676 0.0
H559 H 0.8465 0.72101 0.87433 0.0
C560 C 0.7461 0.80953 0.8725 0.0
C561 C 0.71267 0.81204 0.86668 0.0
C562 C 0.69827 0.78645 0.8522 0.0
C563 C 0.71657 0.75836 0.8444 0.0
C564 C 0.74931 0.75651 0.85093 0.0
C565 C 0.76399 0.78154 0.86452 0.0
C566 C 0.7986 0.77256 0.87111 0.0
C567 C 0.82367 0.79399 0.85752 0.0
C568 C 0.80248 0.77449 0.90029 0.0
C569 C 0.80067 0.73786 0.86021 0.0
C570 C 0.77215 0.72929 0.84825 0.0
C571 C 0.76683 0.69762 0.83901 0.0
C572 C 0.79072 0.67395 0.84278 0.0
C573 C 0.81963 0.68204 0.85557 0.0
C574 C 0.82511 0.71454 0.86372 0.0
H575 H 0.72602 0.6749 0.38484 0.0
H576 H 0.6559 0.73517 0.34866 0.0
H577 H 0.69883 0.77547 0.34048 0.0
H578 H 0.76249 0.73803 0.41828 0.0
H579 H 0.8037 0.72189 0.41555 0.0
H580 H 0.76954 0.69481 0.41428 0.0
H581 H 0.79156 0.66998 0.37039 0.0
H582 H 0.82608 0.69679 0.37165 0.0
H583 H 0.80025 0.69623 0.34454 0.0
H584 H 0.74737 0.81226 0.34083 0.0
H585 H 0.79794 0.84254 0.34974 0.0
H586 H 0.83601 0.75936 0.38711 0.0
C587 C 0.72018 0.69598 0.37431 0.0
C588 C 0.68791 0.70171 0.36689 0.0
C589 C 0.68066 0.73022 0.35415 0.0
C590 C 0.70487 0.75323 0.34942 0.0
C591 C 0.73624 0.74754 0.35774 0.0
C592 C 0.74404 0.71954 0.36982 0.0
C593 C 0.77856 0.72105 0.37933 0.0
C594 C 0.77855 0.71882 0.40859 0.0
C595 C 0.8004 0.69443 0.36565 0.0
C596 C 0.78851 0.75451 0.37137 0.0
C597 C 0.76397 0.76922 0.35861 0.0
C598 C 0.76696 0.80082 0.35052 0.0
C599 C 0.79574 0.81789 0.35573 0.0
C600 C 0.82103 0.80345 0.36912 0.0
C601 C 0.81728 0.77117 0.37674 0.0
H602 H 0.79274 0.81437 0.65767 0.0
H603 H 0.83568 0.80964 0.73171 0.0
H604 H 0.79742 0.76548 0.74266 0.0
H605 H 0.7098 0.799 0.67674 0.0
H606 H 0.70205 0.77402 0.64841 0.0
H607 H 0.73197 0.80571 0.64704 0.0
H608 H 0.77638 0.76397 0.62964 0.0
H609 H 0.74645 0.73232 0.63049 0.0
H610 H 0.78391 0.72831 0.64713 0.0
H611 H 0.75235 0.72241 0.74537 0.0
H612 H 0.71145 0.67927 0.73702 0.0
H613 H 0.70181 0.71136 0.66024 0.0
C614 C 0.79411 0.80401 0.6762 0.0
C615 C 0.81688 0.8154 0.69395 0.0
C616 C 0.81839 0.80103 0.71785 0.0
C617 C 0.79659 0.77621 0.72427 0.0
C618 C 0.77394 0.7659 0.70639 0.0
C619 C 0.77314 0.77899 0.68264 0.0
C620 C 0.74813 0.7626 0.66607 0.0
C621 C 0.72141 0.78678 0.65917 0.0
C622 C 0.76471 0.7458 0.64192 0.0
C623 C 0.73472 0.73821 0.68417 0.0
C624 C 0.74938 0.74071 0.70753 0.0
C625 C 0.74076 0.72031 0.72715 0.0
C626 C 0.71736 0.69615 0.72239 0.0
C627 C 0.70343 0.69254 0.69815 0.0
C628 C 0.71191 0.71407 0.67904 0.0
H629 H 0.83504 0.75076 0.17681 0.0
H630 H 0.79751 0.66361 0.21012 0.0
H631 H 0.74607 0.69313 0.22329 0.0
H632 H 0.79551 0.81013 0.2246 0.0
H633 H 0.78767 0.83856 0.2005 0.0
H634 H 0.82303 0.81198 0.19694 0.0
H635 H 0.80421 0.79063 0.15255 0.0
H636 H 0.76898 0.81714 0.15592 0.0
H637 H 0.76374 0.77412 0.1499 0.0
H638 H 0.69661 0.72944 0.2273 0.0
H639 H 0.65249 0.76932 0.22135 0.0
H640 H 0.72262 0.83354 0.18664 0.0
C641 C 0.81628 0.73791 0.18726 0.0
C642 C 0.82032 0.70478 0.19241 0.0
C643 C 0.79502 0.68896 0.206 0.0
C644 C 0.7658 0.70559 0.21366 0.0
C645 C 0.76249 0.7381 0.20787 0.0
C646 C 0.78715 0.75413 0.1951 0.0
C647 C 0.77656 0.78818 0.18921 0.0
C648 C 0.79691 0.81372 0.20368 0.0
C649 C 0.77848 0.79276 0.16018 0.0
C650 C 0.74148 0.78839 0.19964 0.0
C651 C 0.73404 0.75941 0.21067 0.0
C652 C 0.70234 0.75247 0.21927 0.0
C653 C 0.67747 0.77522 0.2158 0.0
C654 C 0.68443 0.80462 0.20398 0.0
C655 C 0.71697 0.81171 0.19649 0.0
H656 H 0.17822 0.07291 0.30477 0.0
H657 H 0.25182 0.02313 0.346 0.0
H658 H 0.28093 0.00668 0.305 0.0
H659 H 0.18091 0.01749 0.24506 0.0
H660 H 0.17662 0.05133 0.22494 0.0
H661 H 0.15786 0.05308 0.25677 0.0
H662 H 0.18829 0.10658 0.26756 0.0
H663 H 0.20696 0.10501 0.23587 0.0
H664 H 0.23226 0.10747 0.26329 0.0
H665 H 0.30678 1.00364 0.26073 0.0
H666 H 0.32832 0.01645 0.21774 0.0
H667 H 0.23831 0.06846 0.20486 0.0
C668 C 0.19974 0.05743 0.3051 0.0
C669 C 0.21243 0.04879 0.32859 0.0
C670 C 0.24141 0.02966 0.32825 0.0
C671 C 0.25806 0.02013 0.30502 0.0
C672 C 0.24548 0.02994 0.28221 0.0
C673 C 0.21689 0.04813 0.28208 0.0
C674 C 0.21099 0.05946 0.25552 0.0
C675 C 0.17974 0.04443 0.24495 0.0
C676 C 0.20956 0.09682 0.25558 0.0
C677 C 0.24131 0.04586 0.24089 0.0
C678 C 0.2606 0.02838 0.25653 0.0
C679 C 0.29151 0.01658 0.24815 0.0
C680 C 0.30354 0.02388 0.22363 0.0
C681 C 0.28477 0.04288 0.20769 0.0
C682 C 0.25277 0.05289 0.21618 0.0
H683 H 0.40056 0.34072 0.74583 0.0
H684 H 0.4778 0.28743 0.70217 0.0
H685 H 0.49028 0.25758 0.74068 0.0
H686 H 0.43748 0.34453 0.80908 0.0
H687 H 0.3988 0.3375 0.82553 0.0
H688 H 0.39992 0.35827 0.79606 0.0
H689 H 0.36016 0.31611 0.77641 0.0
H690 H 0.3588 0.29551 0.80585 0.0
H691 H 0.37055 0.27352 0.77621 0.0
H692 H 0.49119 0.23086 0.7833 0.0
H693 H 0.47676 0.20517 0.82371 0.0
H694 H 0.39606 0.27372 0.83806 0.0
C695 C 0.42084 0.32352 0.74457 0.0
C696 C 0.43886 0.31695 0.72122 0.0
C697 C 0.46413 0.29318 0.72001 0.0
C698 C 0.47139 0.27624 0.7418 0.0
C699 C 0.45277 0.28302 0.76448 0.0
C700 C 0.42775 0.3059 0.76585 0.0
C701 C 0.40847 0.30578 0.7912 0.0
C702 C 0.41136 0.33847 0.80636 0.0
C703 C 0.37238 0.29721 0.78716 0.0
C704 C 0.42625 0.27897 0.80389 0.0
C705 C 0.45215 0.26658 0.78842 0.0
C706 C 0.47115 0.24058 0.79561 0.0
C707 C 0.46282 0.22622 0.81871 0.0
C708 C 0.43537 0.2375 0.83423 0.0
C709 C 0.41747 0.26479 0.82691 0.0
H710 H 0.27298 0.45398 0.21677 0.0
H711 H 0.17831 0.49697 0.23923 0.0
H712 H 0.19862 0.51264 0.28185 0.0
H713 H 0.28297 0.41671 0.27188 0.0
H714 H 0.3266 0.42182 0.27342 0.0
H715 H 0.30775 0.42119 0.24302 0.0
H716 H 0.33241 0.4773 0.23409 0.0
H717 H 0.3516 0.47803 0.26453 0.0
H718 H 0.32504 0.51103 0.25696 0.0
H719 H 0.22546 0.51453 0.32404 0.0
H720 H 0.25602 0.5017 0.36204 0.0
H721 H 0.33326 0.45682 0.31267 0.0
C722 C 0.25705 0.46807 0.23024 0.0
C723 C 0.22425 0.47486 0.22449 0.0
C724 C 0.20366 0.49199 0.24307 0.0
C725 C 0.21503 0.50102 0.26735 0.0
C726 C 0.24708 0.49272 0.27283 0.0
C727 C 0.26791 0.47681 0.25471 0.0
C728 C 0.29946 0.46648 0.26646 0.0
C729 C 0.30445 0.42937 0.26352 0.0
C730 C 0.32887 0.48428 0.25482 0.0
C731 C 0.29258 0.47778 0.2942 0.0
C732 C 0.26251 0.49342 0.2974 0.0
C733 C 0.24938 0.50301 0.32167 0.0
C734 C 0.26693 0.49562 0.34319 0.0
C735 C 0.29726 0.47864 0.34039 0.0
C736 C 0.31059 0.47059 0.31548 0.0
H737 H 0.07133 0.17496 0.75224 0.0
H738 H 0.02709 0.24932 0.70875 0.0
H739 H 0.01417 0.28188 0.74892 0.0
H740 H 0.01659 0.18624 0.81192 0.0
H741 H 0.05049 0.17981 0.83212 0.0
H742 H 0.04989 0.15945 0.80083 0.0
H743 H 0.10654 0.18346 0.78912 0.0
H744 H 0.10728 0.20388 0.82022 0.0
H745 H 0.11186 0.22682 0.79194 0.0
H746 H 0.01515 0.31044 0.79236 0.0
H747 H 0.03037 0.33259 0.8349 0.0
H748 H 0.07361 0.23975 0.85061 0.0
C749 C 0.05773 0.19749 0.75121 0.0
C750 C 0.04979 0.20934 0.72729 0.0
C751 C 0.03304 0.23951 0.7268 0.0
C752 C 0.02558 0.25817 0.74958 0.0
C753 C 0.03488 0.24632 0.77275 0.0
C754 C 0.05039 0.21651 0.77373 0.0
C755 C 0.06161 0.21109 0.80048 0.0
C756 C 0.04356 0.18245 0.81202 0.0
C757 C 0.09902 0.20604 0.80042 0.0
C758 C 0.05117 0.24303 0.81423 0.0
C759 C 0.03532 0.26282 0.79798 0.0
C760 C 0.02672 0.29484 0.80542 0.0
C761 C 0.0354 0.30722 0.82967 0.0
C762 C 0.05247 0.28769 0.84632 0.0
C763 C 0.05946 0.25487 0.83873 0.0
H764 H 0.776 0.93654 0.85798 0.0
H765 H 0.68325 0.98145 0.84209 0.0
H766 H 0.70532 0.99463 0.7993 0.0
H767 H 0.83099 0.99034 0.81874 0.0
H768 H 0.85691 0.9563 0.80802 0.0
H769 H 0.83661 0.95714 0.83928 0.0
H770 H 0.81072 0.90145 0.82793 0.0
H771 H 0.8306 0.90055 0.79666 0.0
H772 H 0.78676 0.89676 0.79985 0.0
H773 H 0.73371 0.99422 0.75589 0.0
H774 H 0.76605 0.98054 0.71582 0.0
H775 H 0.84039 0.93521 0.75934 0.0
C776 C 0.76093 0.95059 0.84597 0.0
C777 C 0.72814 0.9587 0.85362 0.0
C778 C 0.70861 0.97559 0.83683 0.0
C779 C 0.72096 0.98313 0.81244 0.0
C780 C 0.75291 0.97354 0.80501 0.0
C781 C 0.77276 0.95785 0.82137 0.0
C782 C 0.80448 0.94622 0.8076 0.0
C783 C 0.834 0.96355 0.81909 0.0
C784 C 0.80834 0.90906 0.80804 0.0
C785 C 0.7989 0.9568 0.78077 0.0
C786 C 0.76922 0.97294 0.77975 0.0
C787 C 0.75733 0.98228 0.75658 0.0
C788 C 0.77588 0.97438 0.73387 0.0
C789 C 0.80601 0.95722 0.73439 0.0
C790 C 0.8179 0.9491 0.7583 0.0
H791 H 0.55115 0.75728 0.35167 0.0
H792 H 0.52542 0.65974 0.32567 0.0
H793 H 0.51248 0.6797 0.2835 0.0
H794 H 0.49133 0.80268 0.31297 0.0
H795 H 0.52092 0.83367 0.30666 0.0
H796 H 0.52127 0.8132 0.33625 0.0
H797 H 0.58215 0.79705 0.32678 0.0
H798 H 0.58195 0.81725 0.29721 0.0
H799 H 0.59375 0.77502 0.29711 0.0
H800 H 0.5116 0.70822 0.24218 0.0
H801 H 0.5232 0.74248 0.20562 0.0
H802 H 0.54964 0.82165 0.2582 0.0
C803 C 0.54138 0.74039 0.3375 0.0
C804 C 0.5387 0.70701 0.34218 0.0
C805 C 0.52719 0.68546 0.32269 0.0
C806 C 0.51977 0.69662 0.29864 0.0
C807 C 0.52395 0.72946 0.29429 0.0
C808 C 0.53426 0.7511 0.31328 0.0
C809 C 0.54088 0.78416 0.30283 0.0
C810 C 0.51718 0.80995 0.31543 0.0
C811 C 0.5768 0.79391 0.30618 0.0
C812 C 0.53381 0.77748 0.27483 0.0
C813 C 0.52361 0.74591 0.27035 0.0
C814 C 0.51882 0.73319 0.24558 0.0
C815 C 0.52544 0.75287 0.22488 0.0
C816 C 0.5368 0.78498 0.22898 0.0
C817 C 0.54006 0.79758 0.2544 0.0
H818 H 0.83515 0.55529 0.79933 0.0
H819 H 0.75833 0.52358 0.85152 0.0
H820 H 0.7221 0.51458 0.81526 0.0
H821 H 0.78552 0.60129 0.76442 0.0
H822 H 0.80622 0.59264 0.73374 0.0
H823 H 0.82834 0.59011 0.76255 0.0
H824 H 0.84536 0.53072 0.74945 0.0
H825 H 0.82342 0.53311 0.72041 0.0
H826 H 0.81432 0.50139 0.74195 0.0
H827 H 0.69127 0.51807 0.77489 0.0
H828 H 0.66886 0.53301 0.73392 0.0
H829 H 0.76547 0.5622 0.70746 0.0
C830 C 0.81121 0.5451 0.803 0.0
C831 C 0.79983 0.53958 0.8283 0.0
C832 C 0.76781 0.52753 0.83233 0.0
C833 C 0.74702 0.52237 0.8118 0.0
C834 C 0.75853 0.5293 0.78724 0.0
C835 C 0.79003 0.54013 0.78271 0.0
C836 C 0.79517 0.54947 0.75516 0.0
C837 C 0.80434 0.5855 0.75391 0.0
C838 C 0.82111 0.52735 0.7409 0.0
C839 C 0.76137 0.54323 0.7451 0.0
C840 C 0.74069 0.53124 0.76383 0.0
C841 C 0.70745 0.52669 0.7599 0.0
C842 C 0.6949 0.53524 0.73654 0.0
C843 C 0.71548 0.54814 0.71724 0.0
C844 C 0.74931 0.55138 0.72146 0.0
H845 H 0.94438 0.82829 0.31046 0.0
H846 H 0.98854 0.75119 0.35115 0.0
H847 H 1.00248 0.72139 0.30991 0.0
H848 H 0.90552 0.7784 0.26744 0.0
H849 H 0.91069 0.80358 0.24048 0.0
H850 H 0.91002 0.82168 0.27246 0.0
H851 H 0.96655 0.84739 0.2632 0.0
H852 H 0.96737 0.82935 0.23106 0.0
H853 H 1.00061 0.82185 0.25165 0.0
H854 H 1.00349 0.69603 0.2652 0.0
H855 H 0.991 0.67715 0.22118 0.0
H856 H 0.94654 0.77062 0.20902 0.0
C857 C 0.95811 0.80572 0.31068 0.0
C858 C 0.96582 0.79234 0.33413 0.0
C859 C 0.98274 0.76216 0.33351 0.0
C860 C 0.99078 0.74506 0.31012 0.0
C861 C 0.98185 0.75842 0.28741 0.0
C862 C 0.96604 0.78821 0.2875 0.0
C863 C 0.95569 0.79549 0.26083 0.0
C864 C 0.91827 0.80003 0.26029 0.0
C865 C 0.97364 0.82529 0.25111 0.0
C866 C 0.9671 0.76467 0.24584 0.0
C867 C 0.98254 0.74378 0.26148 0.0
C868 C 0.99218 0.71251 0.25266 0.0
C869 C 0.98504 0.70199 0.22757 0.0
C870 C 0.96849 0.72263 0.21142 0.0
C871 C 0.9603 0.7547 0.22054 0.0
H872 H 0.48776 0.0864 0.18349 0.0
H873 H 0.40424 0.04022 0.2195 0.0
H874 H 0.43987 0.9951 0.23099 0.0
H875 H 0.52166 0.01576 0.15458 0.0
H876 H 0.56388 0.02645 0.15849 0.0
H877 H 0.53328 0.05783 0.15686 0.0
H878 H 0.55052 0.08335 0.20044 0.0
H879 H 0.58127 0.05198 0.2022 0.0
H880 H 0.55091 0.05875 0.22791 0.0
H881 H 0.48226 0.95202 0.23383 0.0
H882 H 0.52844 0.9132 0.22695 0.0
H883 H 0.58522 0.98624 0.18888 0.0
C884 C 0.47725 0.06728 0.19451 0.0
C885 C 0.44331 0.067 0.2009 0.0
C886 C 0.43021 0.04103 0.21457 0.0
C887 C 0.45029 0.01534 0.22127 0.0
C888 C 0.48348 0.01586 0.21415 0.0
C889 C 0.49697 0.04115 0.20111 0.0
C890 C 0.53262 0.03398 0.19337 0.0
C891 C 0.53817 0.03347 0.1641 0.0
C892 C 0.55516 0.05848 0.20679 0.0
C893 C 0.53672 1.00035 0.20339 0.0
C894 C 0.50816 0.99061 0.21564 0.0
C895 C 0.50495 0.95958 0.22471 0.0
C896 C 0.53132 0.93767 0.22068 0.0
C897 C 0.56058 0.94679 0.20767 0.0
C898 C 0.56349 0.97883 0.19946 0.0
H899 H 0.5731 0.53485 0.709 0.0
H900 H 0.52004 0.62654 0.71894 0.0
H901 H 0.46845 0.59693 0.72607 0.0
H902 H 0.51678 0.49579 0.6725 0.0
H903 H 0.52182 0.45644 0.68538 0.0
H904 H 0.55501 0.48465 0.68588 0.0
H905 H 0.55786 0.48074 0.73498 0.0
H906 H 0.52467 0.45229 0.73462 0.0
H907 H 0.52157 0.48873 0.75515 0.0
H908 H 0.42168 0.55707 0.72583 0.0
H909 H 0.38454 0.5109 0.71801 0.0
H910 H 0.46859 0.44572 0.70816 0.0
C911 C 0.55083 0.54878 0.71352 0.0
C912 C 0.55069 0.58305 0.71364 0.0
C913 C 0.52083 0.60029 0.71897 0.0
C914 C 0.49138 0.58366 0.72308 0.0
C915 C 0.49221 0.54979 0.72195 0.0
C916 C 0.52128 0.53258 0.7175 0.0
C917 C 0.51533 0.49644 0.71449 0.0
C918 C 0.52797 0.48254 0.688 0.0
C919 C 0.53077 0.47849 0.7361 0.0
C920 C 0.47832 0.49602 0.717 0.0
C921 C 0.46536 0.52693 0.72168 0.0
C922 C 0.4316 0.5327 0.72265 0.0
C923 C 0.41066 0.50632 0.7182 0.0
C924 C 0.42358 0.47464 0.71265 0.0
C925 C 0.45784 0.46953 0.71271 0.0
H926 H 0.0253 0.42664 0.18171 0.0
H927 H 0.09611 0.47628 0.22868 0.0
H928 H 0.05587 0.52021 0.23976 0.0
H929 H 0.99794 0.49408 0.15415 0.0
H930 H 0.95552 0.48287 0.15274 0.0
H931 H 0.98669 0.45189 0.15302 0.0
H932 H 0.9579 0.42828 0.19282 0.0
H933 H 0.92644 0.45923 0.19261 0.0
H934 H 0.94906 0.45431 0.22103 0.0
H935 H 0.01285 0.56268 0.23959 0.0
H936 H 0.96996 0.60106 0.22795 0.0
H937 H 0.92594 0.52484 0.18121 0.0
C938 C 0.03178 0.44612 0.19515 0.0
C939 C 0.06363 0.44788 0.20465 0.0
C940 C 0.07174 0.47435 0.22139 0.0
C941 C 0.04899 0.49935 0.22787 0.0
C942 C 0.01817 0.49756 0.21748 0.0
C943 C 0.0094 0.47155 0.20158 0.0
C944 C 0.97642 0.47766 0.19027 0.0
C945 C 0.97934 0.47657 0.16081 0.0
C946 C 0.95094 0.45343 0.19976 0.0
C947 C 0.96878 0.51174 0.20134 0.0
C948 C 0.99295 0.52247 0.21736 0.0
C949 C 0.99334 0.5543 0.22763 0.0
C950 C 0.96892 0.57596 0.22088 0.0
C951 C 0.94438 0.56573 0.20406 0.0
C952 C 0.94381 0.53297 0.19476 0.0
H953 H 0.9415 0.97279 0.70518 0.0
H954 H 1.0037 0.88668 0.70134 0.0
H955 H 0.05196 0.9211 0.70871 0.0
H956 H 0.99358 0.01947 0.66994 0.0
H957 H 0.98435 0.05728 0.6877 0.0
H958 H 0.95438 0.02573 0.68662 0.0
H959 H 0.95098 0.02669 0.73619 0.0
H960 H 0.981 0.0584 0.73743 0.0
H961 H 0.9878 0.0214 0.75342 0.0
H962 H 0.09422 0.96554 0.7108 0.0
H963 H 0.12636 0.01559 0.70652 0.0
H964 H 0.03618 0.07226 0.7088 0.0
C965 C 0.96511 0.96103 0.70664 0.0
C966 C 0.96875 0.92698 0.70291 0.0
C967 C 1.00025 0.91269 0.70435 0.0
C968 C 0.02781 0.93206 0.70858 0.0
C969 C 0.02346 0.96567 0.71146 0.0
C970 C 0.99281 0.97999 0.71069 0.0
C971 C 0.99494 0.01666 0.71164 0.0
C972 C 0.981 0.03058 0.68755 0.0
C973 C 0.97766 0.03166 0.73613 0.0
C974 C 0.03166 0.0208 0.71222 0.0
C975 C 0.04773 0.99118 0.7125 0.0
C976 C 0.08185 0.98888 0.71105 0.0
C977 C 0.09993 0.01747 0.70864 0.0
C978 C 0.08385 0.04792 0.70751 0.0
C979 C 0.04929 0.04948 0.71001 0.0
H980 H 0.53212 0.57539 0.36748 0.0
H981 H 0.619 0.514 0.36679 0.0
H982 H 0.58458 0.46538 0.36139 0.0
H983 H 0.48297 0.52709 0.40492 0.0
H984 H 0.44568 0.53433 0.38876 0.0
H985 H 0.47738 0.56423 0.38883 0.0
H986 H 0.47902 0.56253 0.33926 0.0
H987 H 0.44718 0.53261 0.33905 0.0
H988 H 0.48541 0.52425 0.32145 0.0
H989 H 0.53999 0.42324 0.3611 0.0
H990 H 0.48934 0.3915 0.36606 0.0
H991 H 0.43162 0.48042 0.36683 0.0
C992 C 0.54406 0.55178 0.36548 0.0
C993 C 0.57839 0.54859 0.36731 0.0
C994 C 0.59284 0.51714 0.36523 0.0
C995 C 0.57345 0.48935 0.36214 0.0
C996 C 0.5396 0.49333 0.36106 0.0
C997 C 0.52505 0.52381 0.36252 0.0
C998 C 0.48802 0.52147 0.36303 0.0
C999 C 0.47263 0.53773 0.38786 0.0
C1000 C 0.47409 0.53608 0.33928 0.0
C1001 C 0.48393 0.48494 0.3623 0.0
C1002 C 0.51396 0.46909 0.3609 0.0
C1003 C 0.51636 0.4354 0.36177 0.0
C1004 C 0.48742 0.41754 0.36459 0.0
C1005 C 0.45641 0.43335 0.36657 0.0
C1006 C 0.45483 0.46747 0.36488 0.0
H1007 H 0.10443 0.4846 0.87074 0.0
H1008 H 0.05854 0.40656 0.82718 0.0
H1009 H 0.01392 0.44385 0.81703 0.0
H1010 H 0.0333 0.51542 0.90003 0.0
H1011 H 0.04397 0.55771 0.89989 0.0
H1012 H 0.07569 0.52716 0.89962 0.0
H1013 H 0.10218 0.54927 0.85836 0.0
H1014 H 0.07059 0.58013 0.85859 0.0
H1015 H 0.07788 0.55317 0.83069 0.0
H1016 H 0.97031 0.48624 0.81723 0.0
H1017 H 0.93095 0.5313 0.82725 0.0
H1018 H 1.00406 0.58289 0.87066 0.0
C1019 C 0.08568 0.47581 0.85819 0.0
C1020 C 0.08525 0.44283 0.84934 0.0
C1021 C 0.05957 0.43182 0.83388 0.0
C1022 C 0.03411 0.45284 0.82799 0.0
C1023 C 0.03455 0.48491 0.83773 0.0
C1024 C 0.05976 0.49651 0.85237 0.0
C1025 C 0.05232 0.53095 0.86288 0.0
C1026 C 0.05125 0.5329 0.89234 0.0
C1027 C 0.07723 0.55479 0.85197 0.0
C1028 C 0.01859 0.53642 0.85261 0.0
C1029 C 0.00903 0.50966 0.83789 0.0
C1030 C 0.97779 0.50762 0.82823 0.0
C1031 C 0.95555 0.53332 0.83408 0.0
C1032 C 0.96457 0.56082 0.84939 0.0
C1033 C 0.99677 0.5626 0.85831 0.0
H1034 H 0.98313 0.93101 0.35778 0.0
H1035 H 0.89286 0.98755 0.3608 0.0
H1036 H 0.92483 0.03778 0.35729 0.0
H1037 H 0.0257 0.98333 0.3971 0.0
H1038 H 0.0649 0.97762 0.38035 0.0
H1039 H 0.03511 0.9459 0.37885 0.0
H1040 H 0.03801 0.94559 0.32932 0.0
H1041 H 0.06806 0.97726 0.33065 0.0
H1042 H 0.0311 0.98283 0.31368 0.0
H1043 H 0.96681 0.08234 0.35947 0.0
H1044 H 0.01499 0.11705 0.36624 0.0
H1045 H 0.07781 0.03136 0.36145 0.0
C1046 C 0.97 0.95382 0.35689 0.0
C1047 C 0.9354 0.95524 0.35933 0.0
C1048 C 0.91929 0.98575 0.35872 0.0
C1049 C 0.93728 0.01445 0.35673 0.0
C1050 C 0.9714 0.01229 0.35521 0.0
C1051 C 0.98758 0.98268 0.355 0.0
C1052 C 0.02435 0.98707 0.35549 0.0
C1053 C 0.03831 0.97264 0.37936 0.0
C1054 C 0.04138 0.97231 0.33081 0.0
C1055 C 0.02632 0.02379 0.35679 0.0
C1056 C 0.99555 0.03793 0.35636 0.0
C1057 C 0.99105 0.07152 0.35934 0.0
C1058 C 0.01858 0.09106 0.36321 0.0
C1059 C 0.05027 0.07702 0.3641 0.0
C1060 C 0.05406 0.04295 0.36035 0.0
H1061 H 0.52688 0.90905 0.87929 0.0
H1062 H 0.60081 0.96194 0.83738 0.0
H1063 H 0.5592 1.00279 0.82763 0.0
H1064 H 0.45571 0.92881 0.83939 0.0
H1065 H 0.42812 0.93345 0.86711 0.0
H1066 H 0.46216 0.90526 0.86685 0.0
H1067 H 0.48201 0.93375 0.90857 0.0
H1068 H 0.44825 0.96208 0.90888 0.0
H1069 H 0.48961 0.97676 0.90951 0.0
H1070 H 0.51192 0.04124 0.82705 0.0
H1071 H 0.46246 0.07522 0.83621 0.0
H1072 H 0.41879 0.99858 0.87948 0.0
C1073 C 0.53397 0.92859 0.86726 0.0
C1074 C 0.56693 0.93207 0.85868 0.0
C1075 C 0.57562 0.95865 0.84387 0.0
C1076 C 0.55213 0.98193 0.8382 0.0
C1077 C 0.52003 0.97841 0.84758 0.0
C1078 C 0.51084 0.95237 0.86175 0.0
C1079 C 0.47568 0.95633 0.87203 0.0
C1080 C 0.45414 0.92936 0.86066 0.0
C1081 C 0.4738 0.9573 0.90148 0.0
C1082 C 0.46688 0.98905 0.86205 0.0
C1083 C 0.49269 1.00109 0.84768 0.0
C1084 C 0.49135 0.03185 0.83791 0.0
C1085 C 0.46314 0.05102 0.84328 0.0
C1086 C 0.43661 0.03952 0.8584 0.0
C1087 C 0.43839 0.00784 0.86748 0.0
loop_
_geom_bond_atom_site_label_1
_geom_bond_atom_site_label_2
_geom_bond_distance
_geom_bond_site_symmetry_2
_ccdc_geom_bond_type
O0 Cd1 2.223 . S
O0 C8 1.315 . S
Cd1 O0 2.223 . S
Cd1 O4 2.297 . S
Cd1 O5 2.439 . S
Cd1 O11 2.240 . S
Cd2 O3 2.240 . S
Cd2 O10 2.223 . S
Cd2 O12 2.297 . S
Cd2 O13 2.439 . S
O3 Cd2 2.240 . S
O3 C8 1.279 . S
O4 Cd1 2.297 . S
O4 C6 1.247 . S
O5 Cd1 2.439 . S
O5 C6 1.208 . S
C6 O4 1.247 . S
C6 O5 1.208 . S
C7 O12 1.247 . S
C7 O13 1.208 . S
C8 O0 1.315 . S
C8 O3 1.279 . S
C9 O10 1.315 . S
C9 O11 1.279 . S
O10 Cd2 2.223 . S
O10 C9 1.315 . S
O11 Cd1 2.240 . S
O11 C9 1.279 . S
O12 Cd2 2.297 . S
O12 C7 1.247 . S
O13 Cd2 2.439 . S
O13 C7 1.208 . S
O14 Cd15 2.223 . S
O14 C22 1.315 . S
Cd15 O14 2.223 . S
Cd15 O18 2.297 . S
Cd15 O19 2.439 . S
Cd15 O25 2.240 . S
Cd16 O17 2.240 . S
Cd16 O24 2.223 . S
Cd16 O26 2.297 . S
Cd16 O27 2.439 . S
O17 Cd16 2.240 . S
O17 C22 1.279 . S
O18 Cd15 2.297 . S
O18 C20 1.247 . S
O19 Cd15 2.439 . S
O19 C20 1.208 . S
C20 O18 1.247 . S
C20 O19 1.208 . S
C21 O26 1.247 . S
C21 O27 1.208 . S
C22 O14 1.315 . S
C22 O17 1.279 . S
C23 O24 1.315 . S
C23 O25 1.279 . S
O24 Cd16 2.223 . S
O24 C23 1.315 . S
O25 Cd15 2.240 . S
O25 C23 1.279 . S
O26 Cd16 2.297 . S
O26 C21 1.247 . S
O27 Cd16 2.439 . S
O27 C21 1.208 . S
O28 Cd29 2.223 . S
O28 C36 1.315 . S
Cd29 O28 2.223 . S
Cd29 O32 2.297 . S
Cd29 O33 2.439 . S
Cd29 O39 2.240 . S
Cd30 O31 2.240 . S
Cd30 O38 2.223 . S
Cd30 O40 2.297 . S
Cd30 O41 2.439 . S
O31 Cd30 2.240 . S
O31 C36 1.279 . S
O32 Cd29 2.297 . S
O32 C34 1.247 . S
O33 Cd29 2.439 . S
O33 C34 1.208 . S
C34 O32 1.247 . S
C34 O33 1.208 . S
C35 O40 1.247 . S
C35 O41 1.208 . S
C36 O28 1.315 . S
C36 O31 1.279 . S
C37 O38 1.315 . S
C37 O39 1.279 . S
O38 Cd30 2.223 . S
O38 C37 1.315 . S
O39 Cd29 2.240 . S
O39 C37 1.279 . S
O40 Cd30 2.297 . S
O40 C35 1.247 . S
O41 Cd30 2.439 . S
O41 C35 1.208 . S
O42 Cd43 2.223 . S
O42 C50 1.315 . S
Cd43 O42 2.223 . S
Cd43 O46 2.297 . S
Cd43 O47 2.439 . S
Cd43 O53 2.240 . S
Cd44 O45 2.240 . S
Cd44 O52 2.223 . S
Cd44 O54 2.297 . S
Cd44 O55 2.439 . S
O45 Cd44 2.240 . S
O45 C50 1.279 . S
O46 Cd43 2.297 . S
O46 C48 1.247 . S
O47 Cd43 2.439 . S
O47 C48 1.208 . S
C48 O46 1.247 . S
C48 O47 1.208 . S
C49 O54 1.247 . S
C49 O55 1.208 . S
C50 O42 1.315 . S
C50 O45 1.279 . S
C51 O52 1.315 . S
C51 O53 1.279 . S
O52 Cd44 2.223 . S
O52 C51 1.315 . S
O53 Cd43 2.240 . S
O53 C51 1.279 . S
O54 Cd44 2.297 . S
O54 C49 1.247 . S
O55 Cd44 2.439 . S
O55 C49 1.208 . S
O56 Cd57 2.223 . S
O56 C64 1.315 . S
Cd57 O56 2.223 . S
Cd57 O60 2.297 . S
Cd57 O61 2.439 . S
Cd57 O67 2.240 . S
Cd58 O59 2.240 . S
Cd58 O66 2.223 . S
Cd58 O68 2.297 . S
Cd58 O69 2.439 . S
O59 Cd58 2.240 . S
O59 C64 1.279 . S
O60 Cd57 2.297 . S
O60 C62 1.247 . S
O61 Cd57 2.439 . S
O61 C62 1.208 . S
C62 O60 1.247 . S
C62 O61 1.208 . S
C63 O68 1.247 . S
C63 O69 1.208 . S
C64 O56 1.315 . S
C64 O59 1.279 . S
C65 O66 1.315 . S
C65 O67 1.279 . S
O66 Cd58 2.223 . S
O66 C65 1.315 . S
O67 Cd57 2.240 . S
O67 C65 1.279 . S
O68 Cd58 2.297 . S
O68 C63 1.247 . S
O69 Cd58 2.439 . S
O69 C63 1.208 . S
O70 Cd71 2.223 . S
O70 C78 1.315 . S
Cd71 O70 2.223 . S
Cd71 O74 2.297 . S
Cd71 O75 2.439 . S
Cd71 O81 2.240 . S
Cd72 O73 2.240 . S
Cd72 O80 2.223 . S
Cd72 O82 2.297 . S
Cd72 O83 2.439 . S
O73 Cd72 2.240 . S
O73 C78 1.279 . S
O74 Cd71 2.297 . S
O74 C76 1.247 . S
O75 Cd71 2.439 . S
O75 C76 1.208 . S
C76 O74 1.247 . S
C76 O75 1.208 . S
C77 O82 1.247 . S
C77 O83 1.208 . S
C78 O70 1.315 . S
C78 O73 1.279 . S
C79 O80 1.315 . S
C79 O81 1.279 . S
O80 Cd72 2.223 . S
O80 C79 1.315 . S
O81 Cd71 2.240 . S
O81 C79 1.279 . S
O82 Cd72 2.297 . S
O82 C77 1.247 . S
O83 Cd72 2.439 . S
O83 C77 1.208 . S
O84 Cd85 2.223 . S
O84 C92 1.315 . S
Cd85 O84 2.223 . S
Cd85 O88 2.297 . S
Cd85 O89 2.439 . S
Cd85 O95 2.240 . S
Cd86 O87 2.240 . S
Cd86 O94 2.223 . S
Cd86 O96 2.297 . S
Cd86 O97 2.439 . S
O87 Cd86 2.240 . S
O87 C92 1.279 . S
O88 Cd85 2.297 . S
O88 C90 1.247 . S
O89 Cd85 2.439 . S
O89 C90 1.208 . S
C90 O88 1.247 . S
C90 O89 1.208 . S
C91 O96 1.247 . S
C91 O97 1.208 . S
C92 O84 1.315 . S
C92 O87 1.279 . S
C93 O94 1.315 . S
C93 O95 1.279 . S
O94 Cd86 2.223 . S
O94 C93 1.315 . S
O95 Cd85 2.240 . S
O95 C93 1.279 . S
O96 Cd86 2.297 . S
O96 C91 1.247 . S
O97 Cd86 2.439 . S
O97 C91 1.208 . S
O98 Cd99 2.223 . S
O98 C106 1.315 . S
Cd99 O98 2.223 . S
Cd99 O102 2.297 . S
Cd99 O103 2.439 . S
Cd99 O109 2.240 . S
Cd100 O101 2.240 . S
Cd100 O108 2.223 . S
Cd100 O110 2.297 . S
Cd100 O111 2.439 . S
O101 Cd100 2.240 . S
O101 C106 1.279 . S
O102 Cd99 2.297 . S
O102 C104 1.247 . S
O103 Cd99 2.439 . S
O103 C104 1.208 . S
C104 O102 1.247 . S
C104 O103 1.208 . S
C105 O110 1.247 . S
C105 O111 1.208 . S
C106 O98 1.315 . S
C106 O101 1.279 . S
C107 O108 1.315 . S
C107 O109 1.279 . S
O108 Cd100 2.223 . S
O108 C107 1.315 . S
O109 Cd99 2.240 . S
O109 C107 1.279 . S
O110 Cd100 2.297 . S
O110 C105 1.247 . S
O111 Cd100 2.439 . S
O111 C105 1.208 . S
O112 Cd113 2.223 . S
O112 C120 1.315 . S
Cd113 O112 2.223 . S
Cd113 O116 2.297 . S
Cd113 O117 2.439 . S
Cd113 O123 2.240 . S
Cd114 O115 2.240 . S
Cd114 O122 2.223 . S
Cd114 O124 2.297 . S
Cd114 O125 2.439 . S
O115 Cd114 2.240 . S
O115 C120 1.279 . S
O116 Cd113 2.297 . S
O116 C118 1.247 . S
O117 Cd113 2.439 . S
O117 C118 1.208 . S
C118 O116 1.247 . S
C118 O117 1.208 . S
C119 O124 1.247 . S
C119 O125 1.208 . S
C120 O112 1.315 . S
C120 O115 1.279 . S
C121 O122 1.315 . S
C121 O123 1.279 . S
O122 Cd114 2.223 . S
O122 C121 1.315 . S
O123 Cd113 2.240 . S
O123 C121 1.279 . S
O124 Cd114 2.297 . S
O124 C119 1.247 . S
O125 Cd114 2.439 . S
O125 C119 1.208 . S
O126 Cd127 2.223 . S
O126 C134 1.315 . S
Cd127 O126 2.223 . S
Cd127 O130 2.297 . S
Cd127 O131 2.439 . S
Cd127 O137 2.240 . S
Cd128 O129 2.240 . S
Cd128 O136 2.223 . S
Cd128 O138 2.297 . S
Cd128 O139 2.439 . S
O129 Cd128 2.240 . S
O129 C134 1.279 . S
O130 Cd127 2.297 . S
O130 C132 1.247 . S
O131 Cd127 2.439 . S
O131 C132 1.208 . S
C132 O130 1.247 . S
C132 O131 1.208 . S
C133 O138 1.247 . S
C133 O139 1.208 . S
C134 O126 1.315 . S
C134 O129 1.279 . S
C135 O136 1.315 . S
C135 O137 1.279 . S
O136 Cd128 2.223 . S
O136 C135 1.315 . S
O137 Cd127 2.240 . S
O137 C135 1.279 . S
O138 Cd128 2.297 . S
O138 C133 1.247 . S
O139 Cd128 2.439 . S
O139 C133 1.208 . S
O140 Cd141 2.223 . S
O140 C148 1.315 . S
Cd141 O140 2.223 . S
Cd141 O144 2.297 . S
Cd141 O145 2.439 . S
Cd141 O151 2.240 . S
Cd142 O143 2.240 . S
Cd142 O150 2.223 . S
Cd142 O152 2.297 . S
Cd142 O153 2.439 . S
O143 Cd142 2.240 . S
O143 C148 1.279 . S
O144 Cd141 2.297 . S
O144 C146 1.247 . S
O145 Cd141 2.439 . S
O145 C146 1.208 . S
C146 O144 1.247 . S
C146 O145 1.208 . S
C147 O152 1.247 . S
C147 O153 1.208 . S
C148 O140 1.315 . S
C148 O143 1.279 . S
C149 O150 1.315 . S
C149 O151 1.279 . S
O150 Cd142 2.223 . S
O150 C149 1.315 . S
O151 Cd141 2.240 . S
O151 C149 1.279 . S
O152 Cd142 2.297 . S
O152 C147 1.247 . S
O153 Cd142 2.439 . S
O153 C147 1.208 . S
O154 Cd155 2.223 . S
O154 C162 1.315 . S
Cd155 O154 2.223 . S
Cd155 O158 2.297 . S
Cd155 O159 2.439 . S
Cd155 O165 2.240 . S
Cd156 O157 2.240 . S
Cd156 O164 2.223 . S
Cd156 O166 2.297 . S
Cd156 O167 2.439 . S
O157 Cd156 2.240 . S
O157 C162 1.279 . S
O158 Cd155 2.297 . S
O158 C160 1.247 . S
O159 Cd155 2.439 . S
O159 C160 1.208 . S
C160 O158 1.247 . S
C160 O159 1.208 . S
C161 O166 1.247 . S
C161 O167 1.208 . S
C162 O154 1.315 . S
C162 O157 1.279 . S
C163 O164 1.315 . S
C163 O165 1.279 . S
O164 Cd156 2.223 . S
O164 C163 1.315 . S
O165 Cd155 2.240 . S
O165 C163 1.279 . S
O166 Cd156 2.297 . S
O166 C161 1.247 . S
O167 Cd156 2.439 . S
O167 C161 1.208 . S
O168 Cd169 2.223 . S
O168 C176 1.315 . S
Cd169 O168 2.223 . S
Cd169 O172 2.297 . S
Cd169 O173 2.439 . S
Cd169 O179 2.240 . S
Cd170 O171 2.240 . S
Cd170 O178 2.223 . S
Cd170 O180 2.297 . S
Cd170 O181 2.439 . S
O171 Cd170 2.240 . S
O171 C176 1.279 . S
O172 Cd169 2.297 . S
O172 C174 1.247 . S
O173 Cd169 2.439 . S
O173 C174 1.208 . S
C174 O172 1.247 . S
C174 O173 1.208 . S
C175 O180 1.247 . S
C175 O181 1.208 . S
C176 O168 1.315 . S
C176 O171 1.279 . S
C177 O178 1.315 . S
C177 O179 1.279 . S
O178 Cd170 2.223 . S
O178 C177 1.315 . S
O179 Cd169 2.240 . S
O179 C177 1.279 . S
O180 Cd170 2.297 . S
O180 C175 1.247 . S
O181 Cd170 2.439 . S
O181 C175 1.208 . S
O182 Cd183 2.223 . S
O182 C190 1.315 . S
Cd183 O182 2.223 . S
Cd183 O186 2.297 . S
Cd183 O187 2.439 . S
Cd183 O193 2.240 . S
Cd184 O185 2.240 . S
Cd184 O192 2.223 . S
Cd184 O194 2.297 . S
Cd184 O195 2.439 . S
O185 Cd184 2.240 . S
O185 C190 1.279 . S
O186 Cd183 2.297 . S
O186 C188 1.247 . S
O187 Cd183 2.439 . S
O187 C188 1.208 . S
C188 O186 1.247 . S
C188 O187 1.208 . S
C189 O194 1.247 . S
C189 O195 1.208 . S
C190 O182 1.315 . S
C190 O185 1.279 . S
C191 O192 1.315 . S
C191 O193 1.279 . S
O192 Cd184 2.223 . S
O192 C191 1.315 . S
O193 Cd183 2.240 . S
O193 C191 1.279 . S
O194 Cd184 2.297 . S
O194 C189 1.247 . S
O195 Cd184 2.439 . S
O195 C189 1.208 . S
O196 Cd197 2.223 . S
O196 C204 1.315 . S
Cd197 O196 2.223 . S
Cd197 O200 2.297 . S
Cd197 O201 2.439 . S
Cd197 O207 2.240 . S
Cd198 O199 2.240 . S
Cd198 O206 2.223 . S
Cd198 O208 2.297 . S
Cd198 O209 2.439 . S
O199 Cd198 2.240 . S
O199 C204 1.279 . S
O200 Cd197 2.297 . S
O200 C202 1.247 . S
O201 Cd197 2.439 . S
O201 C202 1.208 . S
C202 O200 1.247 . S
C202 O201 1.208 . S
C203 O208 1.247 . S
C203 O209 1.208 . S
C204 O196 1.315 . S
C204 O199 1.279 . S
C205 O206 1.315 . S
C205 O207 1.279 . S
O206 Cd198 2.223 . S
O206 C205 1.315 . S
O207 Cd197 2.240 . S
O207 C205 1.279 . S
O208 Cd198 2.297 . S
O208 C203 1.247 . S
O209 Cd198 2.439 . S
O209 C203 1.208 . S
O210 Cd211 2.223 . S
O210 C218 1.315 . S
Cd211 O210 2.223 . S
Cd211 O214 2.297 . S
Cd211 O215 2.439 . S
Cd211 O221 2.240 . S
Cd212 O213 2.240 . S
Cd212 O220 2.223 . S
Cd212 O222 2.297 . S
Cd212 O223 2.439 . S
O213 Cd212 2.240 . S
O213 C218 1.279 . S
O214 Cd211 2.297 . S
O214 C216 1.247 . S
O215 Cd211 2.439 . S
O215 C216 1.208 . S
C216 O214 1.247 . S
C216 O215 1.208 . S
C217 O222 1.247 . S
C217 O223 1.208 . S
C218 O210 1.315 . S
C218 O213 1.279 . S
C219 O220 1.315 . S
C219 O221 1.279 . S
O220 Cd212 2.223 . S
O220 C219 1.315 . S
O221 Cd211 2.240 . S
O221 C219 1.279 . S
O222 Cd212 2.297 . S
O222 C217 1.247 . S
O223 Cd212 2.439 . S
O223 C217 1.208 . S
H224 C236 0.930 . S
H225 C238 0.930 . S
H226 C239 0.930 1_554 S
H227 C243 0.959 . S
H228 C243 0.959 . S
H229 C243 0.961 . S
H230 C244 0.960 . S
H231 C244 0.961 . S
H232 C244 0.959 . S
H233 C247 0.929 . S
H234 C248 0.931 . S
H235 C250 0.930 . S
C236 H224 0.930 . S
C236 C237 1.399 . S
C236 C241 1.399 . S
C237 C236 1.399 . S
C237 C238 1.376 . S
C238 H225 0.930 . S
C238 C237 1.376 . S
C238 C239 1.388 . S
C239 H226 0.930 1_556 S
C239 C238 1.388 . S
C239 C240 1.390 . S
C240 C239 1.390 . S
C240 C241 1.394 . S
C240 C246 1.465 1_556 S
C241 C236 1.399 . S
C241 C240 1.394 . S
C241 C242 1.516 . S
C242 C241 1.516 . S
C242 C243 1.502 . S
C242 C244 1.561 . S
C242 C245 1.526 1_556 S
C243 H227 0.959 . S
C243 H228 0.959 . S
C243 H229 0.961 . S
C243 C242 1.502 . S
C244 H230 0.960 . S
C244 H231 0.961 . S
C244 H232 0.959 . S
C244 C242 1.561 . S
C245 C242 1.526 1_554 S
C245 C246 1.396 . S
C245 C250 1.390 . S
C246 C240 1.465 1_554 S
C246 C245 1.396 . S
C246 C247 1.399 . S
C247 H233 0.929 . S
C247 C246 1.399 . S
C247 C248 1.385 . S
C248 H234 0.931 . S
C248 C247 1.385 . S
C248 C249 1.389 . S
C249 C248 1.389 . S
C249 C250 1.387 . S
C250 H235 0.930 . S
C250 C245 1.390 . S
C250 C249 1.387 . S
H251 C263 0.930 . S
H252 C265 0.930 . S
H253 C266 0.930 . S
H254 C270 0.959 . S
H255 C270 0.959 . S
H256 C270 0.961 . S
H257 C271 0.960 . S
H258 C271 0.961 . S
H259 C271 0.959 . S
H260 C274 0.929 . S
H261 C275 0.931 . S
H262 C277 0.930 . S
C263 H251 0.930 . S
C263 C264 1.399 . S
C263 C268 1.399 . S
C264 C263 1.399 . S
C264 C265 1.376 . S
C265 H252 0.930 . S
C265 C264 1.376 . S
C265 C266 1.388 . S
C266 H253 0.930 . S
C266 C265 1.388 . S
C266 C267 1.390 . S
C267 C266 1.390 . S
C267 C268 1.394 . S
C267 C273 1.465 . S
C268 C263 1.399 . S
C268 C267 1.394 . S
C268 C269 1.516 . S
C269 C268 1.516 . S
C269 C270 1.502 . S
C269 C271 1.561 . S
C269 C272 1.526 . S
C270 H254 0.959 . S
C270 H255 0.959 . S
C270 H256 0.961 . S
C270 C269 1.502 . S
C271 H257 0.960 . S
C271 H258 0.961 . S
C271 H259 0.959 . S
C271 C269 1.561 . S
C272 C269 1.526 . S
C272 C273 1.396 . S
C272 C277 1.390 . S
C273 C267 1.465 . S
C273 C272 1.396 . S
C273 C274 1.399 . S
C274 H260 0.929 . S
C274 C273 1.399 . S
C274 C275 1.385 . S
C275 H261 0.931 . S
C275 C274 1.385 . S
C275 C276 1.389 . S
C276 C275 1.389 . S
C276 C277 1.387 . S
C277 H262 0.930 . S
C277 C272 1.390 . S
C277 C276 1.387 . S
H278 C290 0.930 . S
H279 C292 0.930 . S
H280 C293 0.930 . S
H281 C297 0.959 . S
H282 C297 0.959 . S
H283 C297 0.961 . S
H284 C298 0.960 . S
H285 C298 0.961 . S
H286 C298 0.959 . S
H287 C301 0.929 1_556 S
H288 C302 0.931 . S
H289 C304 0.930 . S
C290 H278 0.930 . S
C290 C291 1.399 . S
C290 C295 1.399 . S
C291 C290 1.399 . S
C291 C292 1.376 . S
C292 H279 0.930 . S
C292 C291 1.376 . S
C292 C293 1.388 . S
C293 H280 0.930 . S
C293 C292 1.388 . S
C293 C294 1.390 . S
C294 C293 1.390 . S
C294 C295 1.394 . S
C294 C300 1.465 1_556 S
C295 C290 1.399 . S
C295 C294 1.394 . S
C295 C296 1.516 1_556 S
C296 C295 1.516 1_554 S
C296 C297 1.502 . S
C296 C298 1.561 . S
C296 C299 1.526 . S
C297 H281 0.959 . S
C297 H282 0.959 . S
C297 H283 0.961 . S
C297 C296 1.502 . S
C298 H284 0.960 . S
C298 H285 0.961 . S
C298 H286 0.959 . S
C298 C296 1.561 . S
C299 C296 1.526 . S
C299 C300 1.396 . S
C299 C304 1.390 . S
C300 C294 1.465 1_554 S
C300 C299 1.396 . S
C300 C301 1.399 . S
C301 H287 0.929 1_554 S
C301 C300 1.399 . S
C301 C302 1.385 . S
C302 H288 0.931 . S
C302 C301 1.385 . S
C302 C303 1.389 . S
C303 C302 1.389 . S
C303 C304 1.387 . S
C304 H289 0.930 . S
C304 C299 1.390 . S
C304 C303 1.387 . S
H305 C317 0.930 . S
H306 C319 0.930 . S
H307 C320 0.930 . S
H308 C324 0.959 . S
H309 C324 0.959 . S
H310 C324 0.961 . S
H311 C325 0.960 . S
H312 C325 0.961 . S
H313 C325 0.959 . S
H314 C328 0.929 . S
H315 C329 0.931 . S
H316 C331 0.930 . S
C317 H305 0.930 . S
C317 C318 1.399 . S
C317 C322 1.399 . S
C318 C317 1.399 . S
C318 C319 1.376 . S
C319 H306 0.930 . S
C319 C318 1.376 . S
C319 C320 1.388 . S
C320 H307 0.930 . S
C320 C319 1.388 . S
C320 C321 1.390 . S
C321 C320 1.390 . S
C321 C322 1.394 . S
C321 C327 1.465 . S
C322 C317 1.399 . S
C322 C321 1.394 . S
C322 C323 1.516 . S
C323 C322 1.516 . S
C323 C324 1.502 . S
C323 C325 1.561 . S
C323 C326 1.526 . S
C324 H308 0.959 . S
C324 H309 0.959 . S
C324 H310 0.961 . S
C324 C323 1.502 . S
C325 H311 0.960 . S
C325 H312 0.961 . S
C325 H313 0.959 . S
C325 C323 1.561 . S
C326 C323 1.526 . S
C326 C327 1.396 . S
C326 C331 1.390 . S
C327 C321 1.465 . S
C327 C326 1.396 . S
C327 C328 1.399 . S
C328 H314 0.929 . S
C328 C327 1.399 . S
C328 C329 1.385 . S
C329 H315 0.931 . S
C329 C328 1.385 . S
C329 C330 1.389 . S
C330 C329 1.389 . S
C330 C331 1.387 . S
C331 H316 0.930 . S
C331 C326 1.390 . S
C331 C330 1.387 . S
H332 C344 0.930 . S
H333 C346 0.930 . S
H334 C347 0.908 1_556 S
H335 C351 0.959 . S
H336 C351 0.959 . S
H337 C351 0.961 . S
H338 C352 0.960 . S
H339 C352 0.961 . S
H340 C352 0.959 . S
H341 C355 0.929 . S
H342 C356 0.931 . S
H343 C358 0.930 . S
C344 H332 0.930 . S
C344 C345 1.399 . S
C344 C349 1.399 . S
C345 C344 1.399 . S
C345 C346 1.376 . S
C346 H333 0.930 . S
C346 C345 1.376 . S
C346 C347 1.388 . S
C347 H334 0.908 1_554 S
C347 C346 1.388 . S
C347 C348 1.390 . S
C348 C347 1.390 . S
C348 C349 1.394 . S
C348 C354 1.465 1_554 S
C349 C344 1.399 . S
C349 C348 1.394 . S
C349 C350 1.516 . S
C350 C349 1.516 . S
C350 C351 1.502 . S
C350 C352 1.561 . S
C350 C353 1.526 1_554 S
C351 H335 0.959 . S
C351 H336 0.959 . S
C351 H337 0.961 . S
C351 C350 1.502 . S
C352 H338 0.960 . S
C352 H339 0.961 . S
C352 H340 0.959 . S
C352 C350 1.561 . S
C353 C350 1.526 1_556 S
C353 C354 1.396 . S
C353 C358 1.390 . S
C354 C348 1.465 1_556 S
C354 C353 1.396 . S
C354 C355 1.399 . S
C355 H341 0.929 . S
C355 C354 1.399 . S
C355 C356 1.385 . S
C356 H342 0.931 . S
C356 C355 1.385 . S
C356 C357 1.389 . S
C357 C356 1.389 . S
C357 C358 1.387 . S
C358 H343 0.930 . S
C358 C353 1.390 . S
C358 C357 1.387 . S
H359 C371 0.930 . S
H360 C373 0.930 . S
H361 C374 0.930 . S
H362 C378 0.959 . S
H363 C378 0.959 . S
H364 C378 0.961 . S
H365 C379 0.960 . S
H366 C379 0.961 . S
H367 C379 0.959 . S
H368 C382 0.929 . S
H369 C383 0.931 . S
H370 C385 0.930 . S
C371 H359 0.930 . S
C371 C372 1.399 . S
C371 C376 1.399 . S
C372 C371 1.399 . S
C372 C373 1.376 . S
C373 H360 0.930 . S
C373 C372 1.376 . S
C373 C374 1.388 . S
C374 H361 0.930 . S
C374 C373 1.388 . S
C374 C375 1.390 . S
C375 C374 1.390 . S
C375 C376 1.394 . S
C375 C381 1.465 . S
C376 C371 1.399 . S
C376 C375 1.394 . S
C376 C377 1.516 . S
C377 C376 1.516 . S
C377 C378 1.502 . S
C377 C379 1.561 . S
C377 C380 1.526 . S
C378 H362 0.959 . S
C378 H363 0.959 . S
C378 H364 0.961 . S
C378 C377 1.502 . S
C379 H365 0.960 . S
C379 H366 0.961 . S
C379 H367 0.959 . S
C379 C377 1.561 . S
C380 C377 1.526 . S
C380 C381 1.396 . S
C380 C385 1.390 . S
C381 C375 1.465 . S
C381 C380 1.396 . S
C381 C382 1.399 . S
C382 H368 0.929 . S
C382 C381 1.399 . S
C382 C383 1.385 . S
C383 H369 0.931 . S
C383 C382 1.385 . S
C383 C384 1.389 . S
C384 C383 1.389 . S
C384 C385 1.387 . S
C385 H370 0.930 . S
C385 C380 1.390 . S
C385 C384 1.387 . S
H386 C398 0.930 . S
H387 C400 0.930 . S
H388 C401 0.930 1_554 S
H389 C405 0.959 . S
H390 C405 0.959 . S
H391 C405 0.961 . S
H392 C406 0.960 . S
H393 C406 0.961 . S
H394 C406 0.959 . S
H395 C409 0.929 . S
H396 C410 0.931 . S
H397 C412 0.930 . S
C398 H386 0.930 . S
C398 C399 1.399 . S
C398 C403 1.399 . S
C399 C398 1.399 . S
C399 C400 1.376 . S
C400 H387 0.930 . S
C400 C399 1.376 . S
C400 C401 1.388 . S
C401 H388 0.930 1_556 S
C401 C400 1.388 . S
C401 C402 1.390 . S
C402 C401 1.390 . S
C402 C403 1.394 . S
C402 C408 1.465 1_556 S
C403 C398 1.399 . S
C403 C402 1.394 . S
C403 C404 1.516 . S
C404 C403 1.516 . S
C404 C405 1.502 . S
C404 C406 1.561 . S
C404 C407 1.526 1_556 S
C405 H389 0.959 . S
C405 H390 0.959 . S
C405 H391 0.961 . S
C405 C404 1.502 . S
C406 H392 0.960 . S
C406 H393 0.961 . S
C406 H394 0.959 . S
C406 C404 1.561 . S
C407 C404 1.526 1_554 S
C407 C408 1.396 . S
C407 C412 1.390 . S
C408 C402 1.465 1_554 S
C408 C407 1.396 . S
C408 C409 1.399 . S
C409 H395 0.929 . S
C409 C408 1.399 . S
C409 C410 1.385 . S
C410 H396 0.931 . S
C410 C409 1.385 . S
C410 C411 1.389 . S
C411 C410 1.389 . S
C411 C412 1.387 . S
C412 H397 0.930 . S
C412 C407 1.390 . S
C412 C411 1.387 . S
H413 C425 0.930 . S
H414 C427 0.930 . S
H415 C428 0.930 . S
H416 C432 0.959 . S
H417 C432 0.959 . S
H418 C432 0.961 . S
H419 C433 0.960 . S
H420 C433 0.961 . S
H421 C433 0.959 . S
H422 C436 0.929 . S
H423 C437 0.931 . S
H424 C439 0.930 . S
C425 H413 0.930 . S
C425 C426 1.399 . S
C425 C430 1.399 . S
C426 C425 1.399 . S
C426 C427 1.376 . S
C427 H414 0.930 . S
C427 C426 1.376 . S
C427 C428 1.388 . S
C428 H415 0.930 . S
C428 C427 1.388 . S
C428 C429 1.390 . S
C429 C428 1.390 . S
C429 C430 1.394 . S
C429 C435 1.465 . S
C430 C425 1.399 . S
C430 C429 1.394 . S
C430 C431 1.516 . S
C431 C430 1.516 . S
C431 C432 1.502 . S
C431 C433 1.561 . S
C431 C434 1.526 . S
C432 H416 0.959 . S
C432 H417 0.959 . S
C432 H418 0.961 . S
C432 C431 1.502 . S
C433 H419 0.960 . S
C433 H420 0.961 . S
C433 H421 0.959 . S
C433 C431 1.561 . S
C434 C431 1.526 . S
C434 C435 1.396 . S
C434 C439 1.390 . S
C435 C429 1.465 . S
C435 C434 1.396 . S
C435 C436 1.399 . S
C436 H422 0.929 . S
C436 C435 1.399 . S
C436 C437 1.385 . S
C437 H423 0.931 . S
C437 C436 1.385 . S
C437 C438 1.389 . S
C438 C437 1.389 . S
C438 C439 1.387 . S
C439 H424 0.930 . S
C439 C434 1.390 . S
C439 C438 1.387 . S
H440 C452 0.930 . S
H441 C454 0.930 . S
H442 C455 0.930 . S
H443 C459 0.959 . S
H444 C459 0.959 . S
H445 C459 0.961 . S
H446 C460 0.960 . S
H447 C460 0.961 . S
H448 C460 0.959 . S
H449 C463 0.929 . S
H450 C464 0.931 . S
H451 C466 0.930 . S
C452 H440 0.930 . S
C452 C453 1.399 . S
C452 C457 1.399 . S
C453 C452 1.399 . S
C453 C454 1.376 . S
C454 H441 0.930 . S
C454 C453 1.376 . S
C454 C455 1.388 . S
C455 H442 0.930 . S
C455 C454 1.388 . S
C455 C456 1.390 . S
C456 C455 1.390 . S
C456 C457 1.394 . S
C456 C462 1.465 . S
C457 C452 1.399 . S
C457 C456 1.394 . S
C457 C458 1.516 . S
C458 C457 1.516 . S
C458 C459 1.502 . S
C458 C460 1.561 . S
C458 C461 1.526 . S
C459 H443 0.959 . S
C459 H444 0.959 . S
C459 H445 0.961 . S
C459 C458 1.502 . S
C460 H446 0.960 . S
C460 H447 0.961 . S
C460 H448 0.959 . S
C460 C458 1.561 . S
C461 C458 1.526 . S
C461 C462 1.396 . S
C461 C466 1.390 . S
C462 C456 1.465 . S
C462 C461 1.396 . S
C462 C463 1.399 . S
C463 H449 0.929 . S
C463 C462 1.399 . S
C463 C464 1.385 . S
C464 H450 0.931 . S
C464 C463 1.385 . S
C464 C465 1.389 . S
C465 C464 1.389 . S
C465 C466 1.387 . S
C466 H451 0.930 . S
C466 C461 1.390 . S
C466 C465 1.387 . S
H467 C479 0.930 . S
H468 C481 0.930 . S
H469 C482 0.930 . S
H470 C486 0.959 . S
H471 C486 0.959 . S
H472 C486 0.961 . S
H473 C487 0.960 . S
H474 C487 0.961 . S
H475 C487 0.959 . S
H476 C490 0.929 . S
H477 C491 0.931 . S
H478 C493 0.930 . S
C479 H467 0.930 . S
C479 C480 1.399 . S
C479 C484 1.399 . S
C480 C479 1.399 . S
C480 C481 1.376 . S
C481 H468 0.930 . S
C481 C480 1.376 . S
C481 C482 1.388 . S
C482 H469 0.930 . S
C482 C481 1.388 . S
C482 C483 1.390 . S
C483 C482 1.390 . S
C483 C484 1.394 . S
C483 C489 1.465 . S
C484 C479 1.399 . S
C484 C483 1.394 . S
C484 C485 1.516 . S
C485 C484 1.516 . S
C485 C486 1.502 . S
C485 C487 1.561 . S
C485 C488 1.526 . S
C486 H470 0.959 . S
C486 H471 0.959 . S
C486 H472 0.961 . S
C486 C485 1.502 . S
C487 H473 0.960 . S
C487 H474 0.961 . S
C487 H475 0.959 . S
C487 C485 1.561 . S
C488 C485 1.526 . S
C488 C489 1.396 . S
C488 C493 1.390 . S
C489 C483 1.465 . S
C489 C488 1.396 . S
C489 C490 1.399 . S
C490 H476 0.929 . S
C490 C489 1.399 . S
C490 C491 1.385 . S
C491 H477 0.931 . S
C491 C490 1.385 . S
C491 C492 1.389 . S
C492 C491 1.389 . S
C492 C493 1.387 . S
C493 H478 0.930 . S
C493 C488 1.390 . S
C493 C492 1.387 . S
H494 C506 0.930 . S
H495 C508 0.930 . S
H496 C509 0.930 . S
H497 C513 0.959 . S
H498 C513 0.959 . S
H499 C513 0.961 . S
H500 C514 0.960 . S
H501 C514 0.961 . S
H502 C514 0.959 . S
H503 C517 0.929 . S
H504 C518 0.931 . S
H505 C520 0.930 . S
C506 H494 0.930 . S
C506 C507 1.399 . S
C506 C511 1.399 . S
C507 C506 1.399 . S
C507 C508 1.376 . S
C508 H495 0.930 . S
C508 C507 1.376 . S
C508 C509 1.388 . S
C509 H496 0.930 . S
C509 C508 1.388 . S
C509 C510 1.390 . S
C510 C509 1.390 . S
C510 C511 1.394 . S
C510 C516 1.465 . S
C511 C506 1.399 . S
C511 C510 1.394 . S
C511 C512 1.516 . S
C512 C511 1.516 . S
C512 C513 1.502 . S
C512 C514 1.561 . S
C512 C515 1.526 . S
C513 H497 0.959 . S
C513 H498 0.959 . S
C513 H499 0.961 . S
C513 C512 1.502 . S
C514 H500 0.960 . S
C514 H501 0.961 . S
C514 H502 0.959 . S
C514 C512 1.561 . S
C515 C512 1.526 . S
C515 C516 1.396 . S
C515 C520 1.390 . S
C516 C510 1.465 . S
C516 C515 1.396 . S
C516 C517 1.399 . S
C517 H503 0.929 . S
C517 C516 1.399 . S
C517 C518 1.385 . S
C518 H504 0.931 . S
C518 C517 1.385 . S
C518 C519 1.389 . S
C519 C518 1.389 . S
C519 C520 1.387 . S
C520 H505 0.930 . S
C520 C515 1.390 . S
C520 C519 1.387 . S
H521 C533 0.930 . S
H522 C535 0.930 . S
H523 C536 0.930 . S
H524 C540 0.959 . S
H525 C540 0.959 . S
H526 C540 0.961 . S
H527 C541 0.960 . S
H528 C541 0.961 . S
H529 C541 0.959 . S
H530 C544 0.929 . S
H531 C545 0.931 . S
H532 C547 0.930 . S
C533 H521 0.930 . S
C533 C534 1.399 . S
C533 C538 1.399 . S
C534 C533 1.399 . S
C534 C535 1.376 . S
C535 H522 0.930 . S
C535 C534 1.376 . S
C535 C536 1.388 . S
C536 H523 0.930 . S
C536 C535 1.388 . S
C536 C537 1.390 . S
C537 C536 1.390 . S
C537 C538 1.394 . S
C537 C543 1.465 . S
C538 C533 1.399 . S
C538 C537 1.394 . S
C538 C539 1.516 . S
C539 C538 1.516 . S
C539 C540 1.502 . S
C539 C541 1.561 . S
C539 C542 1.526 . S
C540 H524 0.959 . S
C540 H525 0.959 . S
C540 H526 0.961 . S
C540 C539 1.502 . S
C541 H527 0.960 . S
C541 H528 0.961 . S
C541 H529 0.959 . S
C541 C539 1.561 . S
C542 C539 1.526 . S
C542 C543 1.396 . S
C542 C547 1.390 . S
C543 C537 1.465 . S
C543 C542 1.396 . S
C543 C544 1.399 . S
C544 H530 0.929 . S
C544 C543 1.399 . S
C544 C545 1.385 . S
C545 H531 0.931 . S
C545 C544 1.385 . S
C545 C546 1.389 . S
C546 C545 1.389 . S
C546 C547 1.387 . S
C547 H532 0.930 . S
C547 C542 1.390 . S
C547 C546 1.387 . S
H548 C560 0.930 . S
H549 C562 0.930 . S
H550 C563 0.930 . S
H551 C567 0.959 . S
H552 C567 0.959 . S
H553 C567 0.961 . S
H554 C568 0.960 . S
H555 C568 0.961 . S
H556 C568 0.959 . S
H557 C571 0.929 . S
H558 C572 0.931 . S
H559 C574 0.930 . S
C560 H548 0.930 . S
C560 C561 1.399 . S
C560 C565 1.399 . S
C561 C560 1.399 . S
C561 C562 1.376 . S
C562 H549 0.930 . S
C562 C561 1.376 . S
C562 C563 1.388 . S
C563 H550 0.930 . S
C563 C562 1.388 . S
C563 C564 1.390 . S
C564 C563 1.390 . S
C564 C565 1.394 . S
C564 C570 1.465 . S
C565 C560 1.399 . S
C565 C564 1.394 . S
C565 C566 1.516 . S
C566 C565 1.516 . S
C566 C567 1.502 . S
C566 C568 1.561 . S
C566 C569 1.526 . S
C567 H551 0.959 . S
C567 H552 0.959 . S
C567 H553 0.961 . S
C567 C566 1.502 . S
C568 H554 0.960 . S
C568 H555 0.961 . S
C568 H556 0.959 . S
C568 C566 1.561 . S
C569 C566 1.526 . S
C569 C570 1.396 . S
C569 C574 1.390 . S
C570 C564 1.465 . S
C570 C569 1.396 . S
C570 C571 1.399 . S
C571 H557 0.929 . S
C571 C570 1.399 . S
C571 C572 1.385 . S
C572 H558 0.931 . S
C572 C571 1.385 . S
C572 C573 1.389 . S
C573 C572 1.389 . S
C573 C574 1.387 . S
C574 H559 0.930 . S
C574 C569 1.390 . S
C574 C573 1.387 . S
H575 C587 0.930 . S
H576 C589 0.930 . S
H577 C590 0.930 . S
H578 C594 0.959 . S
H579 C594 0.959 . S
H580 C594 0.961 . S
H581 C595 0.960 . S
H582 C595 0.961 . S
H583 C595 0.959 . S
H584 C598 0.929 . S
H585 C599 0.931 . S
H586 C601 0.930 . S
C587 H575 0.930 . S
C587 C588 1.399 . S
C587 C592 1.399 . S
C588 C587 1.399 . S
C588 C589 1.376 . S
C589 H576 0.930 . S
C589 C588 1.376 . S
C589 C590 1.388 . S
C590 H577 0.930 . S
C590 C589 1.388 . S
C590 C591 1.390 . S
C591 C590 1.390 . S
C591 C592 1.394 . S
C591 C597 1.465 . S
C592 C587 1.399 . S
C592 C591 1.394 . S
C592 C593 1.516 . S
C593 C592 1.516 . S
C593 C594 1.502 . S
C593 C595 1.561 . S
C593 C596 1.526 . S
C594 H578 0.959 . S
C594 H579 0.959 . S
C594 H580 0.961 . S
C594 C593 1.502 . S
C595 H581 0.960 . S
C595 H582 0.961 . S
C595 H583 0.959 . S
C595 C593 1.561 . S
C596 C593 1.526 . S
C596 C597 1.396 . S
C596 C601 1.390 . S
C597 C591 1.465 . S
C597 C596 1.396 . S
C597 C598 1.399 . S
C598 H584 0.929 . S
C598 C597 1.399 . S
C598 C599 1.385 . S
C599 H585 0.931 . S
C599 C598 1.385 . S
C599 C600 1.389 . S
C600 C599 1.389 . S
C600 C601 1.387 . S
C601 H586 0.930 . S
C601 C596 1.390 . S
C601 C600 1.387 . S
H602 C614 0.930 . S
H603 C616 0.930 . S
H604 C617 0.930 . S
H605 C621 0.959 . S
H606 C621 0.959 . S
H607 C621 0.961 . S
H608 C622 0.960 . S
H609 C622 0.961 . S
H610 C622 0.959 . S
H611 C625 0.929 . S
H612 C626 0.931 . S
H613 C628 0.930 . S
C614 H602 0.930 . S
C614 C615 1.399 . S
C614 C619 1.399 . S
C615 C614 1.399 . S
C615 C616 1.376 . S
C616 H603 0.930 . S
C616 C615 1.376 . S
C616 C617 1.388 . S
C617 H604 0.930 . S
C617 C616 1.388 . S
C617 C618 1.390 . S
C618 C617 1.390 . S
C618 C619 1.394 . S
C618 C624 1.465 . S
C619 C614 1.399 . S
C619 C618 1.394 . S
C619 C620 1.516 . S
C620 C619 1.516 . S
C620 C621 1.502 . S
C620 C622 1.561 . S
C620 C623 1.526 . S
C621 H605 0.959 . S
C621 H606 0.959 . S
C621 H607 0.961 . S
C621 C620 1.502 . S
C622 H608 0.960 . S
C622 H609 0.961 . S
C622 H610 0.959 . S
C622 C620 1.561 . S
C623 C620 1.526 . S
C623 C624 1.396 . S
C623 C628 1.390 . S
C624 C618 1.465 . S
C624 C623 1.396 . S
C624 C625 1.399 . S
C625 H611 0.929 . S
C625 C624 1.399 . S
C625 C626 1.385 . S
C626 H612 0.931 . S
C626 C625 1.385 . S
C626 C627 1.389 . S
C627 C626 1.389 . S
C627 C628 1.387 . S
C628 H613 0.930 . S
C628 C623 1.390 . S
C628 C627 1.387 . S
H629 C641 0.930 . S
H630 C643 0.930 . S
H631 C644 0.930 . S
H632 C648 0.959 . S
H633 C648 0.959 . S
H634 C648 0.961 . S
H635 C649 0.960 . S
H636 C649 0.961 . S
H637 C649 0.959 . S
H638 C652 0.929 . S
H639 C653 0.931 . S
H640 C655 0.930 . S
C641 H629 0.930 . S
C641 C642 1.399 . S
C641 C646 1.399 . S
C642 C641 1.399 . S
C642 C643 1.376 . S
C643 H630 0.930 . S
C643 C642 1.376 . S
C643 C644 1.388 . S
C644 H631 0.930 . S
C644 C643 1.388 . S
C644 C645 1.390 . S
C645 C644 1.390 . S
C645 C646 1.394 . S
C645 C651 1.465 . S
C646 C641 1.399 . S
C646 C645 1.394 . S
C646 C647 1.516 . S
C647 C646 1.516 . S
C647 C648 1.502 . S
C647 C649 1.561 . S
C647 C650 1.526 . S
C648 H632 0.959 . S
C648 H633 0.959 . S
C648 H634 0.961 . S
C648 C647 1.502 . S
C649 H635 0.960 . S
C649 H636 0.961 . S
C649 H637 0.959 . S
C649 C647 1.561 . S
C650 C647 1.526 . S
C650 C651 1.396 . S
C650 C655 1.390 . S
C651 C645 1.465 . S
C651 C650 1.396 . S
C651 C652 1.399 . S
C652 H638 0.929 . S
C652 C651 1.399 . S
C652 C653 1.385 . S
C653 H639 0.931 . S
C653 C652 1.385 . S
C653 C654 1.389 . S
C654 C653 1.389 . S
C654 C655 1.387 . S
C655 H640 0.930 . S
C655 C650 1.390 . S
C655 C654 1.387 . S
H656 C668 0.930 . S
H657 C670 0.930 . S
H658 C671 0.930 . S
H659 C675 0.959 . S
H660 C675 0.959 . S
H661 C675 0.961 . S
H662 C676 0.960 . S
H663 C676 0.961 . S
H664 C676 0.959 . S
H665 C679 0.929 . S
H666 C680 0.931 . S
H667 C682 0.930 . S
C668 H656 0.930 . S
C668 C669 1.399 . S
C668 C673 1.399 . S
C669 C668 1.399 . S
C669 C670 1.376 . S
C670 H657 0.930 . S
C670 C669 1.376 . S
C670 C671 1.388 . S
C671 H658 0.930 . S
C671 C670 1.388 . S
C671 C672 1.390 . S
C672 C671 1.390 . S
C672 C673 1.394 . S
C672 C678 1.465 . S
C673 C668 1.399 . S
C673 C672 1.394 . S
C673 C674 1.516 . S
C674 C673 1.516 . S
C674 C675 1.502 . S
C674 C676 1.561 . S
C674 C677 1.526 . S
C675 H659 0.959 . S
C675 H660 0.959 . S
C675 H661 0.961 . S
C675 C674 1.502 . S
C676 H662 0.960 . S
C676 H663 0.961 . S
C676 H664 0.959 . S
C676 C674 1.561 . S
C677 C674 1.526 . S
C677 C678 1.396 . S
C677 C682 1.390 . S
C678 C672 1.465 . S
C678 C677 1.396 . S
C678 C679 1.399 . S
C679 H665 0.929 . S
C679 C678 1.399 . S
C679 C680 1.385 . S
C680 H666 0.931 . S
C680 C679 1.385 . S
C680 C681 1.389 . S
C681 C680 1.389 . S
C681 C682 1.387 . S
C682 H667 0.930 . S
C682 C677 1.390 . S
C682 C681 1.387 . S
H683 C695 0.930 . S
H684 C697 0.930 . S
H685 C698 0.930 . S
H686 C702 0.959 . S
H687 C702 0.959 . S
H688 C702 0.961 . S
H689 C703 0.960 . S
H690 C703 0.961 . S
H691 C703 0.959 . S
H692 C706 0.929 . S
H693 C707 0.931 . S
H694 C709 0.930 . S
C695 H683 0.930 . S
C695 C696 1.399 . S
C695 C700 1.399 . S
C696 C695 1.399 . S
C696 C697 1.376 . S
C697 H684 0.930 . S
C697 C696 1.376 . S
C697 C698 1.388 . S
C698 H685 0.930 . S
C698 C697 1.388 . S
C698 C699 1.390 . S
C699 C698 1.390 . S
C699 C700 1.394 . S
C699 C705 1.465 . S
C700 C695 1.399 . S
C700 C699 1.394 . S
C700 C701 1.516 . S
C701 C700 1.516 . S
C701 C702 1.502 . S
C701 C703 1.561 . S
C701 C704 1.526 . S
C702 H686 0.959 . S
C702 H687 0.959 . S
C702 H688 0.961 . S
C702 C701 1.502 . S
C703 H689 0.960 . S
C703 H690 0.961 . S
C703 H691 0.959 . S
C703 C701 1.561 . S
C704 C701 1.526 . S
C704 C705 1.396 . S
C704 C709 1.390 . S
C705 C699 1.465 . S
C705 C704 1.396 . S
C705 C706 1.399 . S
C706 H692 0.929 . S
C706 C705 1.399 . S
C706 C707 1.385 . S
C707 H693 0.931 . S
C707 C706 1.385 . S
C707 C708 1.389 . S
C708 C707 1.389 . S
C708 C709 1.387 . S
C709 H694 0.930 . S
C709 C704 1.390 . S
C709 C708 1.387 . S
H710 C722 0.930 . S
H711 C724 0.930 . S
H712 C725 0.930 . S
H713 C729 0.959 . S
H714 C729 0.959 . S
H715 C729 0.961 . S
H716 C730 0.960 . S
H717 C730 0.961 . S
H718 C730 0.959 . S
H719 C733 0.929 . S
H720 C734 0.931 . S
H721 C736 0.930 . S
C722 H710 0.930 . S
C722 C723 1.399 . S
C722 C727 1.399 . S
C723 C722 1.399 . S
C723 C724 1.376 . S
C724 H711 0.930 . S
C724 C723 1.376 . S
C724 C725 1.388 . S
C725 H712 0.930 . S
C725 C724 1.388 . S
C725 C726 1.390 . S
C726 C725 1.390 . S
C726 C727 1.394 . S
C726 C732 1.465 . S
C727 C722 1.399 . S
C727 C726 1.394 . S
C727 C728 1.516 . S
C728 C727 1.516 . S
C728 C729 1.502 . S
C728 C730 1.561 . S
C728 C731 1.526 . S
C729 H713 0.959 . S
C729 H714 0.959 . S
C729 H715 0.961 . S
C729 C728 1.502 . S
C730 H716 0.960 . S
C730 H717 0.961 . S
C730 H718 0.959 . S
C730 C728 1.561 . S
C731 C728 1.526 . S
C731 C732 1.396 . S
C731 C736 1.390 . S
C732 C726 1.465 . S
C732 C731 1.396 . S
C732 C733 1.399 . S
C733 H719 0.929 . S
C733 C732 1.399 . S
C733 C734 1.385 . S
C734 H720 0.931 . S
C734 C733 1.385 . S
C734 C735 1.389 . S
C735 C734 1.389 . S
C735 C736 1.387 . S
C736 H721 0.930 . S
C736 C731 1.390 . S
C736 C735 1.387 . S
H737 C749 0.930 . S
H738 C751 0.930 . S
H739 C752 0.930 . S
H740 C756 0.959 . S
H741 C756 0.959 . S
H742 C756 0.961 . S
H743 C757 0.960 . S
H744 C757 0.961 . S
H745 C757 0.959 . S
H746 C760 0.929 . S
H747 C761 0.931 . S
H748 C763 0.930 . S
C749 H737 0.930 . S
C749 C750 1.399 . S
C749 C754 1.399 . S
C750 C749 1.399 . S
C750 C751 1.376 . S
C751 H738 0.930 . S
C751 C750 1.376 . S
C751 C752 1.388 . S
C752 H739 0.930 . S
C752 C751 1.388 . S
C752 C753 1.390 . S
C753 C752 1.390 . S
C753 C754 1.394 . S
C753 C759 1.465 . S
C754 C749 1.399 . S
C754 C753 1.394 . S
C754 C755 1.516 . S
C755 C754 1.516 . S
C755 C756 1.502 . S
C755 C757 1.561 . S
C755 C758 1.526 . S
C756 H740 0.959 . S
C756 H741 0.959 . S
C756 H742 0.961 . S
C756 C755 1.502 . S
C757 H743 0.960 . S
C757 H744 0.961 . S
C757 H745 0.959 . S
C757 C755 1.561 . S
C758 C755 1.526 . S
C758 C759 1.396 . S
C758 C763 1.390 . S
C759 C753 1.465 . S
C759 C758 1.396 . S
C759 C760 1.399 . S
C760 H746 0.929 . S
C760 C759 1.399 . S
C760 C761 1.385 . S
C761 H747 0.931 . S
C761 C760 1.385 . S
C761 C762 1.389 . S
C762 C761 1.389 . S
C762 C763 1.387 . S
C763 H748 0.930 . S
C763 C758 1.390 . S
C763 C762 1.387 . S
H764 C776 0.930 . S
H765 C778 0.930 . S
H766 C779 0.930 . S
H767 C783 0.959 . S
H768 C783 0.959 . S
H769 C783 0.961 . S
H770 C784 0.960 . S
H771 C784 0.961 . S
H772 C784 0.959 . S
H773 C787 0.929 . S
H774 C788 0.931 . S
H775 C790 0.930 . S
C776 H764 0.930 . S
C776 C777 1.399 . S
C776 C781 1.399 . S
C777 C776 1.399 . S
C777 C778 1.376 . S
C778 H765 0.930 . S
C778 C777 1.376 . S
C778 C779 1.388 . S
C779 H766 0.930 . S
C779 C778 1.388 . S
C779 C780 1.390 . S
C780 C779 1.390 . S
C780 C781 1.394 . S
C780 C786 1.465 . S
C781 C776 1.399 . S
C781 C780 1.394 . S
C781 C782 1.516 . S
C782 C781 1.516 . S
C782 C783 1.502 . S
C782 C784 1.561 . S
C782 C785 1.526 . S
C783 H767 0.959 . S
C783 H768 0.959 . S
C783 H769 0.961 . S
C783 C782 1.502 . S
C784 H770 0.960 . S
C784 H771 0.961 . S
C784 H772 0.959 . S
C784 C782 1.561 . S
C785 C782 1.526 . S
C785 C786 1.396 . S
C785 C790 1.390 . S
C786 C780 1.465 . S
C786 C785 1.396 . S
C786 C787 1.399 . S
C787 H773 0.929 . S
C787 C786 1.399 . S
C787 C788 1.385 . S
C788 H774 0.931 . S
C788 C787 1.385 . S
C788 C789 1.389 . S
C789 C788 1.389 . S
C789 C790 1.387 . S
C790 H775 0.930 . S
C790 C785 1.390 . S
C790 C789 1.387 . S
H791 C803 0.930 . S
H792 C805 0.930 . S
H793 C806 0.930 . S
H794 C810 0.959 . S
H795 C810 0.959 . S
H796 C810 0.961 . S
H797 C811 0.960 . S
H798 C811 0.961 . S
H799 C811 0.959 . S
H800 C814 0.929 . S
H801 C815 0.931 . S
H802 C817 0.930 . S
C803 H791 0.930 . S
C803 C804 1.399 . S
C803 C808 1.399 . S
C804 C803 1.399 . S
C804 C805 1.376 . S
C805 H792 0.930 . S
C805 C804 1.376 . S
C805 C806 1.388 . S
C806 H793 0.930 . S
C806 C805 1.388 . S
C806 C807 1.390 . S
C807 C806 1.390 . S
C807 C808 1.394 . S
C807 C813 1.465 . S
C808 C803 1.399 . S
C808 C807 1.394 . S
C808 C809 1.516 . S
C809 C808 1.516 . S
C809 C810 1.502 . S
C809 C811 1.561 . S
C809 C812 1.526 . S
C810 H794 0.959 . S
C810 H795 0.959 . S
C810 H796 0.961 . S
C810 C809 1.502 . S
C811 H797 0.960 . S
C811 H798 0.961 . S
C811 H799 0.959 . S
C811 C809 1.561 . S
C812 C809 1.526 . S
C812 C813 1.396 . S
C812 C817 1.390 . S
C813 C807 1.465 . S
C813 C812 1.396 . S
C813 C814 1.399 . S
C814 H800 0.929 . S
C814 C813 1.399 . S
C814 C815 1.385 . S
C815 H801 0.931 . S
C815 C814 1.385 . S
C815 C816 1.389 . S
C816 C815 1.389 . S
C816 C817 1.387 . S
C817 H802 0.930 . S
C817 C812 1.390 . S
C817 C816 1.387 . S
H818 C830 0.930 . S
H819 C832 0.930 . S
H820 C833 0.930 . S
H821 C837 0.959 . S
H822 C837 0.959 . S
H823 C837 0.961 . S
H824 C838 0.960 . S
H825 C838 0.961 . S
H826 C838 0.959 . S
H827 C841 0.929 . S
H828 C842 0.931 . S
H829 C844 0.930 . S
C830 H818 0.930 . S
C830 C831 1.399 . S
C830 C835 1.399 . S
C831 C830 1.399 . S
C831 C832 1.376 . S
C832 H819 0.930 . S
C832 C831 1.376 . S
C832 C833 1.388 . S
C833 H820 0.930 . S
C833 C832 1.388 . S
C833 C834 1.390 . S
C834 C833 1.390 . S
C834 C835 1.394 . S
C834 C840 1.465 . S
C835 C830 1.399 . S
C835 C834 1.394 . S
C835 C836 1.516 . S
C836 C835 1.516 . S
C836 C837 1.502 . S
C836 C838 1.561 . S
C836 C839 1.526 . S
C837 H821 0.959 . S
C837 H822 0.959 . S
C837 H823 0.961 . S
C837 C836 1.502 . S
C838 H824 0.960 . S
C838 H825 0.961 . S
C838 H826 0.959 . S
C838 C836 1.561 . S
C839 C836 1.526 . S
C839 C840 1.396 . S
C839 C844 1.390 . S
C840 C834 1.465 . S
C840 C839 1.396 . S
C840 C841 1.399 . S
C841 H827 0.929 . S
C841 C840 1.399 . S
C841 C842 1.385 . S
C842 H828 0.931 . S
C842 C841 1.385 . S
C842 C843 1.389 . S
C843 C842 1.389 . S
C843 C844 1.387 . S
C844 H829 0.930 . S
C844 C839 1.390 . S
C844 C843 1.387 . S
H845 C857 0.930 . S
H846 C859 0.930 . S
H847 C860 0.930 . S
H848 C864 0.959 . S
H849 C864 0.959 . S
H850 C864 0.961 . S
H851 C865 0.960 . S
H852 C865 0.961 . S
H853 C865 0.959 . S
H854 C868 0.929 . S
H855 C869 0.931 . S
H856 C871 0.930 . S
C857 H845 0.930 . S
C857 C858 1.399 . S
C857 C862 1.399 . S
C858 C857 1.399 . S
C858 C859 1.376 . S
C859 H846 0.930 . S
C859 C858 1.376 . S
C859 C860 1.388 . S
C860 H847 0.930 . S
C860 C859 1.388 . S
C860 C861 1.390 . S
C861 C860 1.390 . S
C861 C862 1.394 . S
C861 C867 1.465 . S
C862 C857 1.399 . S
C862 C861 1.394 . S
C862 C863 1.516 . S
C863 C862 1.516 . S
C863 C864 1.502 . S
C863 C865 1.561 . S
C863 C866 1.526 . S
C864 H848 0.959 . S
C864 H849 0.959 . S
C864 H850 0.961 . S
C864 C863 1.502 . S
C865 H851 0.960 . S
C865 H852 0.961 . S
C865 H853 0.959 . S
C865 C863 1.561 . S
C866 C863 1.526 . S
C866 C867 1.396 . S
C866 C871 1.390 . S
C867 C861 1.465 . S
C867 C866 1.396 . S
C867 C868 1.399 . S
C868 H854 0.929 . S
C868 C867 1.399 . S
C868 C869 1.385 . S
C869 H855 0.931 . S
C869 C868 1.385 . S
C869 C870 1.389 . S
C870 C869 1.389 . S
C870 C871 1.387 . S
C871 H856 0.930 . S
C871 C866 1.390 . S
C871 C870 1.387 . S
H872 C884 0.930 . S
H873 C886 0.930 . S
H874 C887 0.930 . S
H875 C891 0.959 . S
H876 C891 0.959 . S
H877 C891 0.961 1_545 S
H878 C892 0.960 . S
H879 C892 0.961 . S
H880 C892 0.959 . S
H881 C895 0.929 . S
H882 C896 0.931 . S
H883 C898 0.930 . S
C884 H872 0.930 . S
C884 C885 1.399 . S
C884 C889 1.399 1_545 S
C885 C884 1.399 . S
C885 C886 1.376 . S
C886 H873 0.930 . S
C886 C885 1.376 . S
C886 C887 1.388 1_545 S
C887 H874 0.930 . S
C887 C886 1.388 1_565 S
C887 C888 1.390 . S
C888 C887 1.390 . S
C888 C889 1.394 . S
C888 C894 1.465 . S
C889 C884 1.399 1_565 S
C889 C888 1.394 . S
C889 C890 1.516 . S
C890 C889 1.516 . S
C890 C891 1.502 . S
C890 C892 1.561 . S
C890 C893 1.526 . S
C891 H875 0.959 . S
C891 H876 0.959 . S
C891 H877 0.961 1_565 S
C891 C890 1.502 . S
C892 H878 0.960 . S
C892 H879 0.961 . S
C892 H880 0.959 . S
C892 C890 1.561 . S
C893 C890 1.526 . S
C893 C894 1.396 . S
C893 C898 1.390 . S
C894 C888 1.465 . S
C894 C893 1.396 . S
C894 C895 1.399 . S
C895 H881 0.929 . S
C895 C894 1.399 . S
C895 C896 1.385 . S
C896 H882 0.931 . S
C896 C895 1.385 . S
C896 C897 1.389 . S
C897 C896 1.389 . S
C897 C898 1.387 . S
C898 H883 0.930 . S
C898 C893 1.390 . S
C898 C897 1.387 . S
H899 C911 0.930 . S
H900 C913 0.930 . S
H901 C914 0.930 . S
H902 C918 0.959 . S
H903 C918 0.959 . S
H904 C918 0.961 . S
H905 C919 0.960 . S
H906 C919 0.961 . S
H907 C919 0.959 . S
H908 C922 0.929 . S
H909 C923 0.931 . S
H910 C925 0.930 . S
C911 H899 0.930 . S
C911 C912 1.399 . S
C911 C916 1.399 . S
C912 C911 1.399 . S
C912 C913 1.376 . S
C913 H900 0.930 . S
C913 C912 1.376 . S
C913 C914 1.388 . S
C914 H901 0.930 . S
C914 C913 1.388 . S
C914 C915 1.390 . S
C915 C914 1.390 . S
C915 C916 1.394 . S
C915 C921 1.465 . S
C916 C911 1.399 . S
C916 C915 1.394 . S
C916 C917 1.516 . S
C917 C916 1.516 . S
C917 C918 1.502 . S
C917 C919 1.561 . S
C917 C920 1.526 . S
C918 H902 0.959 . S
C918 H903 0.959 . S
C918 H904 0.961 . S
C918 C917 1.502 . S
C919 H905 0.960 . S
C919 H906 0.961 . S
C919 H907 0.959 . S
C919 C917 1.561 . S
C920 C917 1.526 . S
C920 C921 1.396 . S
C920 C925 1.390 . S
C921 C915 1.465 . S
C921 C920 1.396 . S
C921 C922 1.399 . S
C922 H908 0.929 . S
C922 C921 1.399 . S
C922 C923 1.385 . S
C923 H909 0.931 . S
C923 C922 1.385 . S
C923 C924 1.389 . S
C924 C923 1.389 . S
C924 C925 1.387 . S
C925 H910 0.930 . S
C925 C920 1.390 . S
C925 C924 1.387 . S
H926 C938 0.930 . S
H927 C940 0.930 . S
H928 C941 0.930 . S
H929 C945 0.959 . S
H930 C945 0.959 . S
H931 C945 0.961 . S
H932 C946 0.960 1_455 S
H933 C946 0.961 . S
H934 C946 0.959 . S
H935 C949 0.929 . S
H936 C950 0.931 . S
H937 C952 0.930 . S
C938 H926 0.930 . S
C938 C939 1.399 . S
C938 C943 1.399 . S
C939 C938 1.399 . S
C939 C940 1.376 . S
C940 H927 0.930 . S
C940 C939 1.376 . S
C940 C941 1.388 . S
C941 H928 0.930 . S
C941 C940 1.388 . S
C941 C942 1.390 . S
C942 C941 1.390 . S
C942 C943 1.394 . S
C942 C948 1.465 . S
C943 C938 1.399 . S
C943 C942 1.394 . S
C943 C944 1.516 . S
C944 C943 1.516 . S
C944 C945 1.502 . S
C944 C946 1.561 1_455 S
C944 C947 1.526 . S
C945 H929 0.959 . S
C945 H930 0.959 . S
C945 H931 0.961 . S
C945 C944 1.502 . S
C946 H932 0.960 1_655 S
C946 H933 0.961 . S
C946 H934 0.959 . S
C946 C944 1.561 1_655 S
C947 C944 1.526 . S
C947 C948 1.396 . S
C947 C952 1.390 1_455 S
C948 C942 1.465 . S
C948 C947 1.396 . S
C948 C949 1.399 . S
C949 H935 0.929 . S
C949 C948 1.399 . S
C949 C950 1.385 1_455 S
C950 H936 0.931 . S
C950 C949 1.385 1_655 S
C950 C951 1.389 . S
C951 C950 1.389 . S
C951 C952 1.387 . S
C952 H937 0.930 . S
C952 C947 1.390 1_655 S
C952 C951 1.387 . S
H953 C965 0.930 . S
H954 C967 0.930 . S
H955 C968 0.930 . S
H956 C972 0.959 . S
H957 C972 0.959 . S
H958 C972 0.961 . S
H959 C973 0.960 . S
H960 C973 0.961 . S
H961 C973 0.959 . S
H962 C976 0.929 . S
H963 C977 0.931 . S
H964 C979 0.930 . S
C965 H953 0.930 . S
C965 C966 1.399 . S
C965 C970 1.399 1_655 S
C966 C965 1.399 . S
C966 C967 1.376 . S
C967 H954 0.930 . S
C967 C966 1.376 . S
C967 C968 1.388 . S
C968 H955 0.930 . S
C968 C967 1.388 . S
C968 C969 1.390 1_655 S
C969 C968 1.390 1_455 S
C969 C970 1.394 . S
C969 C975 1.465 . S
C970 C965 1.399 1_455 S
C970 C969 1.394 . S
C970 C971 1.516 . S
C971 C970 1.516 . S
C971 C972 1.502 . S
C971 C973 1.561 . S
C971 C974 1.526 . S
C972 H956 0.959 . S
C972 H957 0.959 . S
C972 H958 0.961 . S
C972 C971 1.502 . S
C973 H959 0.960 . S
C973 H960 0.961 . S
C973 H961 0.959 . S
C973 C971 1.561 . S
C974 C971 1.526 . S
C974 C975 1.396 . S
C974 C979 1.390 1_565 S
C975 C969 1.465 . S
C975 C974 1.396 . S
C975 C976 1.399 1_565 S
C976 H962 0.929 . S
C976 C975 1.399 1_545 S
C976 C977 1.385 . S
C977 H963 0.931 . S
C977 C976 1.385 . S
C977 C978 1.389 . S
C978 C977 1.389 . S
C978 C979 1.387 . S
C979 H964 0.930 . S
C979 C974 1.390 1_545 S
C979 C978 1.387 . S
H980 C992 0.930 . S
H981 C994 0.930 . S
H982 C995 0.930 . S
H983 C999 0.959 . S
H984 C999 0.959 . S
H985 C999 0.961 . S
H986 C1000 0.960 . S
H987 C1000 0.961 . S
H988 C1000 0.959 . S
H989 C1003 0.929 . S
H990 C1004 0.931 . S
H991 C1006 0.930 . S
C992 H980 0.930 . S
C992 C993 1.399 . S
C992 C997 1.399 . S
C993 C992 1.399 . S
C993 C994 1.376 . S
C994 H981 0.930 . S
C994 C993 1.376 . S
C994 C995 1.388 . S
C995 H982 0.930 . S
C995 C994 1.388 . S
C995 C996 1.390 . S
C996 C995 1.390 . S
C996 C997 1.394 . S
C996 C1002 1.465 . S
C997 C992 1.399 . S
C997 C996 1.394 . S
C997 C998 1.516 . S
C998 C997 1.516 . S
C998 C999 1.502 . S
C998 C1000 1.561 . S
C998 C1001 1.526 . S
C999 H983 0.959 . S
C999 H984 0.959 . S
C999 H985 0.961 . S
C999 C998 1.502 . S
C1000 H986 0.960 . S
C1000 H987 0.961 . S
C1000 H988 0.959 . S
C1000 C998 1.561 . S
C1001 C998 1.526 . S
C1001 C1002 1.396 . S
C1001 C1006 1.390 . S
C1002 C996 1.465 . S
C1002 C1001 1.396 . S
C1002 C1003 1.399 . S
C1003 H989 0.929 . S
C1003 C1002 1.399 . S
C1003 C1004 1.385 . S
C1004 H990 0.931 . S
C1004 C1003 1.385 . S
C1004 C1005 1.389 . S
C1005 C1004 1.389 . S
C1005 C1006 1.387 . S
C1006 H991 0.930 . S
C1006 C1001 1.390 . S
C1006 C1005 1.387 . S
H1007 C1019 0.930 . S
H1008 C1021 0.930 . S
H1009 C1022 0.930 . S
H1010 C1026 0.959 . S
H1011 C1026 0.959 . S
H1012 C1026 0.961 . S
H1013 C1027 0.960 . S
H1014 C1027 0.961 . S
H1015 C1027 0.959 . S
H1016 C1030 0.929 . S
H1017 C1031 0.931 . S
H1018 C1033 0.930 . S
C1019 H1007 0.930 . S
C1019 C1020 1.399 . S
C1019 C1024 1.399 1_455 S
C1020 C1019 1.399 . S
C1020 C1021 1.376 . S
C1021 H1008 0.930 . S
C1021 C1020 1.376 . S
C1021 C1022 1.388 . S
C1022 H1009 0.930 . S
C1022 C1021 1.388 . S
C1022 C1023 1.390 1_455 S
C1023 C1022 1.390 1_655 S
C1023 C1024 1.394 . S
C1023 C1029 1.465 . S
C1024 C1019 1.399 1_655 S
C1024 C1023 1.394 . S
C1024 C1025 1.516 . S
C1025 C1024 1.516 . S
C1025 C1026 1.502 . S
C1025 C1027 1.561 . S
C1025 C1028 1.526 . S
C1026 H1010 0.959 . S
C1026 H1011 0.959 . S
C1026 H1012 0.961 . S
C1026 C1025 1.502 . S
C1027 H1013 0.960 . S
C1027 H1014 0.961 . S
C1027 H1015 0.959 . S
C1027 C1025 1.561 . S
C1028 C1025 1.526 . S
C1028 C1029 1.396 . S
C1028 C1033 1.390 . S
C1029 C1023 1.465 . S
C1029 C1028 1.396 . S
C1029 C1030 1.399 . S
C1030 H1016 0.929 . S
C1030 C1029 1.399 . S
C1030 C1031 1.385 . S
C1031 H1017 0.931 . S
C1031 C1030 1.385 . S
C1031 C1032 1.389 . S
C1032 C1031 1.389 . S
C1032 C1033 1.387 . S
C1033 H1018 0.930 . S
C1033 C1028 1.390 . S
C1033 C1032 1.387 . S
H1034 C1046 0.930 . S
H1035 C1048 0.930 . S
H1036 C1049 0.930 . S
H1037 C1053 0.959 . S
H1038 C1053 0.959 1_545 S
H1039 C1053 0.961 1_655 S
H1040 C1054 0.960 . S
H1041 C1054 0.961 . S
H1042 C1054 0.959 . S
H1043 C1057 0.929 . S
H1044 C1058 0.931 . S
H1045 C1060 0.930 . S
C1046 H1034 0.930 . S
C1046 C1047 1.399 . S
C1046 C1051 1.399 1_565 S
C1047 C1046 1.399 . S
C1047 C1048 1.376 . S
C1048 H1035 0.930 . S
C1048 C1047 1.376 . S
C1048 C1049 1.388 1_565 S
C1049 H1036 0.930 . S
C1049 C1048 1.388 1_545 S
C1049 C1050 1.390 . S
C1050 C1049 1.390 . S
C1050 C1051 1.394 . S
C1050 C1056 1.465 . S
C1051 C1046 1.399 1_545 S
C1051 C1050 1.394 . S
C1051 C1052 1.516 . S
C1052 C1051 1.516 . S
C1052 C1053 1.502 1_645 S
C1052 C1054 1.561 . S
C1052 C1055 1.526 . S
C1053 H1037 0.959 . S
C1053 H1038 0.959 1_565 S
C1053 H1039 0.961 1_455 S
C1053 C1052 1.502 1_465 S
C1054 H1040 0.960 . S
C1054 H1041 0.961 . S
C1054 H1042 0.959 . S
C1054 C1052 1.561 . S
C1055 C1052 1.526 . S
C1055 C1056 1.396 . S
C1055 C1060 1.390 1_655 S
C1056 C1050 1.465 . S
C1056 C1055 1.396 . S
C1056 C1057 1.399 . S
C1057 H1043 0.929 . S
C1057 C1056 1.399 . S
C1057 C1058 1.385 1_655 S
C1058 H1044 0.931 . S
C1058 C1057 1.385 1_455 S
C1058 C1059 1.389 . S
C1059 C1058 1.389 . S
C1059 C1060 1.387 . S
C1060 H1045 0.930 . S
C1060 C1055 1.390 1_455 S
C1060 C1059 1.387 . S
H1061 C1073 0.930 . S
H1062 C1075 0.930 . S
H1063 C1076 0.930 . S
H1064 C1080 0.961 . S
H1065 C1080 0.959 . S
H1066 C1080 0.961 1_565 S
H1067 C1081 0.960 . S
H1068 C1081 0.961 . S
H1069 C1081 0.959 . S
H1070 C1084 0.929 . S
H1071 C1085 0.931 . S
H1072 C1087 0.930 . S
C1073 H1061 0.930 . S
C1073 C1074 1.399 . S
C1073 C1078 1.399 1_565 S
C1074 C1073 1.399 . S
C1074 C1075 1.376 . S
C1075 H1062 0.930 . S
C1075 C1074 1.376 . S
C1075 C1076 1.388 1_565 S
C1076 H1063 0.930 . S
C1076 C1075 1.388 1_545 S
C1076 C1077 1.390 . S
C1077 C1076 1.390 . S
C1077 C1078 1.394 . S
C1077 C1083 1.465 . S
C1078 C1073 1.399 1_545 S
C1078 C1077 1.394 . S
C1078 C1079 1.516 . S
C1079 C1078 1.516 . S
C1079 C1080 1.502 . S
C1079 C1081 1.561 . S
C1079 C1082 1.526 . S
C1080 H1064 0.961 . S
C1080 H1065 0.959 . S
C1080 H1066 0.961 1_545 S
C1080 C1079 1.502 . S
C1081 H1067 0.960 . S
C1081 H1068 0.961 . S
C1081 H1069 0.959 . S
C1081 C1079 1.561 . S
C1082 C1079 1.526 . S
C1082 C1083 1.396 . S
C1082 C1087 1.390 . S
C1083 C1077 1.465 . S
C1083 C1082 1.396 . S
C1083 C1084 1.399 . S
C1084 H1070 0.929 . S
C1084 C1083 1.399 . S
C1084 C1085 1.385 . S
C1085 H1071 0.931 . S
C1085 C1084 1.385 . S
C1085 C1086 1.389 . S
C1086 C1085 1.389 . S
C1086 C1087 1.387 . S
C1087 H1072 0.930 . S
C1087 C1082 1.390 . S
C1087 C1086 1.387 . S
C237 C106 1.503 . S
C249 C8 1.431 . S
C264 C64 2.099 . S
C276 C22 2.012 . S
C291 C78 1.424 . S
C303 C36 1.497 . S
C318 C50 1.051 . S
C330 C92 1.117 . S
C345 C218 1.480 . S
C357 C120 1.465 . S
C372 C176 2.021 . S
C384 C134 2.110 . S
C399 C148 1.501 . S
C411 C190 1.419 . S
C426 C162 1.082 . S
C438 C204 1.090 . S
C453 C37 1.130 . S
C465 C9 1.177 . S
C480 C23 1.163 . S
C492 C51 1.197 . S
C507 C65 1.179 . S
C519 C93 1.239 . S
C534 C107 1.129 . S
C546 C79 1.207 . S
C561 C121 1.124 . S
C573 C149 1.180 . S
C588 C135 1.164 . S
C600 C163 1.218 . S
C615 C205 1.221 . S
C627 C177 1.179 . S
C642 C191 1.196 . S
C654 C219 1.140 . S
C669 C91 1.494 . S
C681 C7 1.447 . S
C696 C21 2.191 . S
C708 C105 2.207 . S
C723 C35 2.203 . S
C735 C63 2.172 . S
C750 C49 1.495 . S
C762 C77 1.444 . S
C777 C119 1.466 . S
C789 C203 1.491 . S
C804 C133 2.152 . S
C816 C217 2.227 . S
C831 C147 2.225 . S
C843 C175 2.154 . S
C858 C161 1.491 . S
C870 C189 1.466 . S
C885 C6 1.446 . S
C897 C216 1.430 . S
C912 C174 1.460 . S
C924 C20 1.457 . S
C939 C34 1.445 . S
C951 C188 1.456 . S
C966 C202 1.359 . S
C978 C48 1.362 . S
C993 C132 1.460 . S
C1005 C62 1.456 . S
C1020 C76 1.439 . S
C1032 C146 1.432 . S
C1047 C160 1.356 . S
C1059 C90 1.358 . S
C1074 C118 1.458 . S
C1086 C104 1.452 . S
