# Generated by pormake.
# Topology fnl, (5)-cn, num edge types: 1
# Building blocks:
#     Node 0, Type 0, BuildingBlock: XOMCOT_clean_sbu_0, # of connection points: 5
#     Node 1, Type 0, BuildingBlock: XOMCOT_clean_sbu_0, # of connection points: 5
#     Node 2, Type 0, BuildingBlock: XOMCOT_clean_sbu_0, # of connection points: 5
#     Node 3, Type 0, BuildingBlock: XOMCOT_clean_sbu_0, # of connection points: 5
#     Node 4, Type 0, BuildingBlock: XOMCOT_clean_sbu_0, # of connection points: 5
#     Node 5, Type 0, BuildingBlock: XOMCOT_clean_sbu_0, # of connection points: 5
#     Node 6, Type 0, BuildingBlock: XOMCOT_clean_sbu_0, # of connection points: 5
#     Node 7, Type 0, BuildingBlock: XOMCOT_clean_sbu_0, # of connection points: 5
#     Node 8, Type 0, BuildingBlock: XOMCOT_clean_sbu_0, # of connection points: 5
#     Node 9, Type 0, BuildingBlock: XOMCOT_clean_sbu_0, # of connection points: 5
#     Node 10, Type 0, BuildingBlock: XOMCOT_clean_sbu_0, # of connection points: 5
#     Node 11, Type 0, BuildingBlock: XOMCOT_clean_sbu_0, # of connection points: 5
#     Node 12, Type 0, BuildingBlock: XOMCOT_clean_sbu_0, # of connection points: 5
#     Node 13, Type 0, BuildingBlock: XOMCOT_clean_sbu_0, # of connection points: 5
#     Node 14, Type 0, BuildingBlock: XOMCOT_clean_sbu_0, # of connection points: 5
#     Node 15, Type 0, BuildingBlock: XOMCOT_clean_sbu_0, # of connection points: 5
#     Edge 16, Type (0, 0), BuildingBlock: CIFDUS_clean_linker_0, # of connection points: 2
#     Edge 17, Type (0, 0), BuildingBlock: CIFDUS_clean_linker_0, # of connection points: 2
#     Edge 18, Type (0, 0), BuildingBlock: CIFDUS_clean_linker_0, # of connection points: 2
#     Edge 19, Type (0, 0), BuildingBlock: CIFDUS_clean_linker_0, # of connection points: 2
#     Edge 20, Type (0, 0), BuildingBlock: CIFDUS_clean_linker_0, # of connection points: 2
#     Edge 21, Type (0, 0), BuildingBlock: CIFDUS_clean_linker_0, # of connection points: 2
#     Edge 22, Type (0, 0), BuildingBlock: CIFDUS_clean_linker_0, # of connection points: 2
#     Edge 23, Type (0, 0), BuildingBlock: CIFDUS_clean_linker_0, # of connection points: 2
#     Edge 24, Type (0, 0), BuildingBlock: CIFDUS_clean_linker_0, # of connection points: 2
#     Edge 25, Type (0, 0), BuildingBlock: CIFDUS_clean_linker_0, # of connection points: 2
#     Edge 26, Type (0, 0), BuildingBlock: CIFDUS_clean_linker_0, # of connection points: 2
#     Edge 27, Type (0, 0), BuildingBlock: CIFDUS_clean_linker_0, # of connection points: 2
#     Edge 28, Type (0, 0), BuildingBlock: CIFDUS_clean_linker_0, # of connection points: 2
#     Edge 29, Type (0, 0), BuildingBlock: CIFDUS_clean_linker_0, # of connection points: 2
#     Edge 30, Type (0, 0), BuildingBlock: CIFDUS_clean_linker_0, # of connection points: 2
#     Edge 31, Type (0, 0), BuildingBlock: CIFDUS_clean_linker_0, # of connection points: 2
#     Edge 32, Type (0, 0), BuildingBlock: CIFDUS_clean_linker_0, # of connection points: 2
#     Edge 33, Type (0, 0), BuildingBlock: CIFDUS_clean_linker_0, # of connection points: 2
#     Edge 34, Type (0, 0), BuildingBlock: CIFDUS_clean_linker_0, # of connection points: 2
#     Edge 35, Type (0, 0), BuildingBlock: CIFDUS_clean_linker_0, # of connection points: 2
#     Edge 36, Type (0, 0), BuildingBlock: CIFDUS_clean_linker_0, # of connection points: 2
#     Edge 37, Type (0, 0), BuildingBlock: CIFDUS_clean_linker_0, # of connection points: 2
#     Edge 38, Type (0, 0), BuildingBlock: CIFDUS_clean_linker_0, # of connection points: 2
#     Edge 39, Type (0, 0), BuildingBlock: CIFDUS_clean_linker_0, # of connection points: 2
#     Edge 40, Type (0, 0), BuildingBlock: CIFDUS_clean_linker_0, # of connection points: 2
#     Edge 41, Type (0, 0), BuildingBlock: CIFDUS_clean_linker_0, # of connection points: 2
#     Edge 42, Type (0, 0), BuildingBlock: CIFDUS_clean_linker_0, # of connection points: 2
#     Edge 43, Type (0, 0), BuildingBlock: CIFDUS_clean_linker_0, # of connection points: 2
#     Edge 44, Type (0, 0), BuildingBlock: CIFDUS_clean_linker_0, # of connection points: 2
#     Edge 45, Type (0, 0), BuildingBlock: CIFDUS_clean_linker_0, # of connection points: 2
#     Edge 46, Type (0, 0), BuildingBlock: CIFDUS_clean_linker_0, # of connection points: 2
#     Edge 47, Type (0, 0), BuildingBlock: CIFDUS_clean_linker_0, # of connection points: 2
#     Edge 48, Type (0, 0), BuildingBlock: CIFDUS_clean_linker_0, # of connection points: 2
#     Edge 49, Type (0, 0), BuildingBlock: CIFDUS_clean_linker_0, # of connection points: 2
#     Edge 50, Type (0, 0), BuildingBlock: CIFDUS_clean_linker_0, # of connection points: 2
#     Edge 51, Type (0, 0), BuildingBlock: CIFDUS_clean_linker_0, # of connection points: 2
#     Edge 52, Type (0, 0), BuildingBlock: CIFDUS_clean_linker_0, # of connection points: 2
#     Edge 53, Type (0, 0), BuildingBlock: CIFDUS_clean_linker_0, # of connection points: 2
#     Edge 54, Type (0, 0), BuildingBlock: CIFDUS_clean_linker_0, # of connection points: 2
#     Edge 55, Type (0, 0), BuildingBlock: CIFDUS_clean_linker_0, # of connection points: 2
# Relax obj value: 0.538
# Max RMSD: 0.272
# Mean RMSD: 0.272
data_MOF--net-fnl--node1-XOMCOT_clean_sbu_0--edge1-CIFDUS_clean_linker_0
_symmetry_space_group_name_H-M    P1
_symmetry_Int_Tables_number       1
_symmetry_cell_setting            triclinic
loop_
_symmetry_equiv_pos_as_xyz
'x, y, z'
_cell_length_a     30.858593
_cell_length_b     30.834812
_cell_length_c     84.4108
_cell_angle_alpha  89.996213
_cell_angle_beta   90.056001
_cell_angle_gamma 89.874259
loop_
_atom_site_label
_atom_site_type_symbol
_atom_site_fract_x
_atom_site_fract_y
_atom_site_fract_z
_atom_type_partial_charge
Co0 Co 0.03867 0.06536 0.06426 0.0
C1 C 0.04437 0.158 0.07281 0.0
C2 C 0.10665 0.13209 0.06685 0.0
C3 C 0.11059 0.17629 0.06907 0.0
N4 N 0.06503 0.12068 0.06927 0.0
N5 N 0.07116 0.19251 0.07267 0.0
H6 H 0.01016 0.16045 0.07497 0.0
H7 H 0.13195 0.11013 0.06304 0.0
C8 C 0.10016 0.04402 0.09149 0.0
O9 O 0.09686 0.0834 0.0973 0.0
N10 N 0.01189 0.01085 0.05895 0.0
C11 C 0.96965 0.00436 0.05564 0.0
C12 C 0.96322 0.96091 0.05291 0.0
C13 C 0.03081 0.97159 0.05787 0.0
N14 N 0.00167 0.94047 0.05433 0.0
C15 C 0.95765 0.09597 0.07624 0.0
C16 C 0.95523 0.04247 0.1024 0.0
C17 C 0.91708 0.06271 0.09733 0.0
C18 C 0.9188 0.09105 0.08447 0.0
C19 C 0.99312 0.04736 0.09362 0.0
N20 N 0.99398 0.07306 0.08041 0.0
H21 H 0.95708 0.11532 0.0656 0.0
H22 H 0.0198 0.02664 0.09671 0.0
H23 H 0.94514 0.02939 0.05518 0.0
H24 H 0.06498 0.96583 0.05983 0.0
O25 O 0.00915 0.09156 0.04652 0.0
O26 O 0.07399 0.06088 0.04538 0.0
O27 O 0.07911 0.03333 0.07904 0.0
C28 C 0.04193 0.07935 0.03795 0.0
H29 H 0.13967 0.19522 0.0673 0.0
H30 H 0.93273 0.94558 0.04996 0.0
H31 H 0.95474 0.01932 0.11206 0.0
H32 H 0.88968 0.10671 0.0801 0.0
Co33 Co 0.24787 0.84893 0.32269 0.0
C34 C 0.15628 0.84815 0.33262 0.0
C35 C 0.17277 0.90906 0.32209 0.0
C36 C 0.12925 0.9095 0.32576 0.0
N37 N 0.18971 0.87043 0.3264 0.0
N38 N 0.11908 0.87107 0.33239 0.0
H39 H 0.15817 0.81489 0.33649 0.0
H40 H 0.19012 0.93462 0.31609 0.0
C41 C 0.27464 0.9241 0.3418 0.0
O42 O 0.26353 0.9479 0.32956 0.0
N43 N 0.30521 0.82647 0.31906 0.0
C44 C 0.31407 0.78725 0.31275 0.0
C45 C 0.35786 0.78035 0.31337 0.0
C46 C 0.34384 0.84343 0.32315 0.0
N47 N 0.37635 0.81553 0.31992 0.0
C48 C 0.2225 0.76123 0.32845 0.0
C49 C 0.2591 0.75503 0.35822 0.0
C50 C 0.25003 0.71698 0.3498 0.0
C51 C 0.22919 0.72035 0.33513 0.0
C52 C 0.25259 0.79522 0.35101 0.0
N53 N 0.23727 0.79785 0.33583 0.0
H54 H 0.20894 0.76293 0.31669 0.0
H55 H 0.26327 0.82343 0.35739 0.0
H56 H 0.29036 0.76499 0.30803 0.0
H57 H 0.34816 0.87495 0.32855 0.0
O58 O 0.23055 0.82619 0.30227 0.0
O59 O 0.25711 0.89182 0.30622 0.0
O60 O 0.26965 0.88308 0.34132 0.0
C61 C 0.24361 0.86269 0.2963 0.0
H62 H 0.1067 0.93558 0.3233 0.0
H63 H 0.37503 0.75204 0.30907 0.0
H64 H 0.2751 0.7538 0.36964 0.0
H65 H 0.2211 0.69161 0.32838 0.0
Co66 Co 0.49962 0.05696 0.57482 0.0
C67 C 0.49546 0.96336 0.5795 0.0
C68 C 0.43412 0.99268 0.58495 0.0
C69 C 0.43082 0.94834 0.58701 0.0
N70 N 0.47474 0.00177 0.5803 0.0
N71 N 0.46952 0.92994 0.58355 0.0
H72 H 0.52906 0.9602 0.57608 0.0
H73 H 0.40864 0.01643 0.58654 0.0
C74 C 0.4761 0.1165 0.60192 0.0
O75 O 0.51583 0.13165 0.60209 0.0
N76 N 0.52594 0.11207 0.56877 0.0
C77 C 0.56536 0.11739 0.56213 0.0
C78 C 0.57255 0.16066 0.55956 0.0
C79 C 0.50881 0.15246 0.56929 0.0
N80 N 0.53717 0.18288 0.56419 0.0
C81 C 0.58747 0.03266 0.58165 0.0
C82 C 0.58303 0.04583 0.6139 0.0
C83 C 0.62384 0.04484 0.60653 0.0
C84 C 0.62566 0.03388 0.59044 0.0
C85 C 0.54565 0.0434 0.6046 0.0
N86 N 0.54879 0.04316 0.58847 0.0
H87 H 0.58952 0.02592 0.56914 0.0
H88 H 0.51449 0.0447 0.61035 0.0
H89 H 0.58755 0.09188 0.55895 0.0
H90 H 0.47629 0.15944 0.57324 0.0
O91 O 0.52042 0.03254 0.55516 0.0
O92 O 0.45671 0.06477 0.55846 0.0
O93 O 0.46529 0.08604 0.59242 0.0
C94 C 0.48407 0.04587 0.54901 0.0
H95 H 0.40187 0.93107 0.59049 0.0
H96 H 0.60204 0.17463 0.5549 0.0
H97 H 0.57967 0.05217 0.62645 0.0
H98 H 0.65639 0.02972 0.58444 0.0
Co99 Co 0.26583 0.28356 0.81666 0.0
C100 C 0.35561 0.29167 0.82676 0.0
C101 C 0.3328 0.22705 0.83114 0.0
C102 C 0.3756 0.22977 0.83585 0.0
N103 N 0.32058 0.26598 0.82547 0.0
N104 N 0.3898 0.27053 0.83309 0.0
H105 H 0.35626 0.32492 0.82268 0.0
H106 H 0.31237 0.19865 0.83165 0.0
C107 C 0.21875 0.20912 0.83017 0.0
O108 O 0.22239 0.19174 0.81604 0.0
N109 N 0.21092 0.30326 0.8078 0.0
C110 C 0.20596 0.33233 0.79593 0.0
C111 C 0.16279 0.34191 0.79417 0.0
C112 C 0.17032 0.29591 0.81315 0.0
N113 N 0.14048 0.31903 0.80499 0.0
C114 C 0.27126 0.3734 0.82402 0.0
C115 C 0.2532 0.36635 0.85594 0.0
C116 C 0.25626 0.40789 0.84915 0.0
C117 C 0.26725 0.41094 0.83308 0.0
C118 C 0.25855 0.32954 0.84651 0.0
N119 N 0.26543 0.33345 0.83061 0.0
H120 H 0.27787 0.37668 0.81153 0.0
H121 H 0.25601 0.2981 0.85202 0.0
H122 H 0.23182 0.34685 0.78918 0.0
H123 H 0.16251 0.27544 0.82312 0.0
O124 O 0.29624 0.30841 0.79883 0.0
O125 O 0.27169 0.24133 0.79974 0.0
O126 O 0.23423 0.24688 0.83276 0.0
C127 C 0.29034 0.27171 0.79162 0.0
H128 H 0.39471 0.2037 0.84086 0.0
H129 H 0.14883 0.36391 0.78556 0.0
H130 H 0.24471 0.36199 0.86827 0.0
H131 H 0.27139 0.44208 0.82736 0.0
Co132 Co 0.04103 0.04512 0.91849 0.0
C133 C 0.04391 0.95229 0.90908 0.0
C134 C 0.09942 0.96965 0.9229 0.0
C135 C 0.09943 0.9253 0.92083 0.0
N136 N 0.06396 0.98662 0.9158 0.0
N137 N 0.06454 0.91478 0.91208 0.0
H138 H 0.01369 0.9537 0.9027 0.0
H139 H 0.12244 0.98758 0.92997 0.0
C140 C 0.08823 0.04843 0.88733 0.0
O141 O 0.07524 0.00879 0.8843 0.0
N142 N 0.0174 0.1022 0.92146 0.0
C143 C 0.97647 0.11105 0.92591 0.0
C144 C 0.97143 0.15509 0.92673 0.0
C145 C 0.03707 0.14081 0.91984 0.0
N146 N 0.00956 0.17393 0.923 0.0
C147 C 0.95759 0.00898 0.91198 0.0
C148 C 0.9434 0.05457 0.88431 0.0
C149 C 0.90876 0.03245 0.89132 0.0
C150 C 0.91634 0.0086 0.90514 0.0
C151 C 0.98372 0.05492 0.89168 0.0
N152 N 0.9906 0.03249 0.90541 0.0
H153 H 0.96248 0.992 0.92303 0.0
H154 H 0.00781 0.07664 0.88702 0.0
H155 H 0.95188 0.08711 0.9284 0.0
H156 H 0.07084 0.14432 0.9167 0.0
O157 O 0.01773 0.0293 0.93891 0.0
O158 O 0.08323 0.05674 0.93489 0.0
O159 O 0.07655 0.06727 0.90011 0.0
C160 C 0.05401 0.04335 0.94482 0.0
H161 H 0.12194 0.90237 0.92602 0.0
H162 H 0.94164 0.17169 0.92971 0.0
H163 H 0.93845 0.07479 0.87396 0.0
H164 H 0.89019 0.9916 0.91099 0.0
Co165 Co 0.27688 0.84644 0.17736 0.0
C166 C 0.37012 0.84342 0.17206 0.0
C167 C 0.34673 0.90887 0.17028 0.0
C168 C 0.39096 0.90873 0.16779 0.0
N169 N 0.33401 0.86782 0.17288 0.0
N170 N 0.40557 0.86745 0.16892 0.0
H171 H 0.37001 0.80857 0.17352 0.0
H172 H 0.32548 0.93682 0.1703 0.0
C173 C 0.22469 0.88164 0.15013 0.0
O174 O 0.20997 0.84216 0.14783 0.0
N175 N 0.21928 0.82427 0.18254 0.0
C176 C 0.21063 0.78851 0.19125 0.0
C177 C 0.16685 0.78502 0.19342 0.0
C178 C 0.1802 0.84341 0.18047 0.0
N179 N 0.14762 0.8193 0.18649 0.0
C180 C 0.2794 0.75965 0.16501 0.0
C181 C 0.29162 0.78263 0.13378 0.0
C182 C 0.27621 0.74079 0.13725 0.0
C183 C 0.27355 0.7286 0.15325 0.0
C184 C 0.29631 0.81285 0.14601 0.0
N185 N 0.28516 0.80213 0.16116 0.0
H186 H 0.27705 0.74974 0.17717 0.0
H187 H 0.30531 0.84577 0.1431 0.0
H188 H 0.23433 0.7671 0.1965 0.0
H189 H 0.17551 0.87461 0.17494 0.0
O190 O 0.29982 0.81551 0.19533 0.0
O191 O 0.27351 0.88251 0.19603 0.0
O192 O 0.25147 0.88903 0.16143 0.0
C193 C 0.28923 0.84935 0.20371 0.0
H194 H 0.41077 0.93699 0.16558 0.0
H195 H 0.15061 0.75984 0.20007 0.0
H196 H 0.2969 0.79297 0.12168 0.0
H197 H 0.2635 0.69647 0.15681 0.0
Co198 Co 0.47484 0.0634 0.42839 0.0
C199 C 0.47211 0.15897 0.42854 0.0
C200 C 0.4102 0.1315 0.43398 0.0
C201 C 0.40669 0.17601 0.43467 0.0
N202 N 0.45116 0.12107 0.42991 0.0
N203 N 0.44576 0.19304 0.43119 0.0
H204 H 0.50621 0.16192 0.42628 0.0
H205 H 0.38476 0.1083 0.43632 0.0
C206 C 0.40793 0.06888 0.4029 0.0
O207 O 0.42122 0.10865 0.4002 0.0
N208 N 0.49835 0.00599 0.42732 0.0
C209 C 0.54071 0.99527 0.4271 0.0
C210 C 0.54419 0.95096 0.42726 0.0
C211 C 0.47655 0.9684 0.42787 0.0
N212 N 0.50388 0.93427 0.4278 0.0
C213 C 0.55217 0.09811 0.41465 0.0
C214 C 0.54395 0.05501 0.38617 0.0
C215 C 0.58458 0.07027 0.39075 0.0
C216 C 0.58825 0.09389 0.40478 0.0
C217 C 0.50912 0.05863 0.39655 0.0
N218 N 0.51352 0.07884 0.41091 0.0
H219 H 0.5574 0.11183 0.42624 0.0
H220 H 0.48103 0.03962 0.39372 0.0
H221 H 0.5673 0.01797 0.42736 0.0
H222 H 0.4416 0.96616 0.42858 0.0
O223 O 0.51318 0.0754 0.44586 0.0
O224 O 0.44671 0.04904 0.44819 0.0
O225 O 0.42638 0.04593 0.41359 0.0
C226 C 0.4826 0.06103 0.45501 0.0
H227 H 0.37775 0.19427 0.43753 0.0
H228 H 0.57404 0.93248 0.42768 0.0
H229 H 0.54053 0.03509 0.37565 0.0
H230 H 0.61963 0.10483 0.4089 0.0
Co231 Co 0.2685 0.31051 0.67212 0.0
C232 C 0.17575 0.30401 0.67547 0.0
C233 C 0.19933 0.24954 0.6622 0.0
C234 C 0.15451 0.24836 0.66234 0.0
N235 N 0.21222 0.28467 0.67043 0.0
N236 N 0.14007 0.28271 0.67076 0.0
H237 H 0.17526 0.33491 0.68154 0.0
H238 H 0.22064 0.22754 0.65596 0.0
C239 C 0.31928 0.28514 0.64351 0.0
O240 O 0.33134 0.32586 0.64239 0.0
N241 N 0.32484 0.33687 0.67417 0.0
C242 C 0.33604 0.37901 0.67526 0.0
C243 C 0.38032 0.38148 0.67701 0.0
C244 C 0.36201 0.31445 0.67567 0.0
N245 N 0.39648 0.34079 0.67719 0.0
C246 C 0.23522 0.39514 0.66519 0.0
C247 C 0.23878 0.38932 0.63267 0.0
C248 C 0.23453 0.43053 0.6397 0.0
C249 C 0.22761 0.43201 0.6561 0.0
C250 C 0.24336 0.35262 0.64228 0.0
N251 N 0.24786 0.35711 0.65829 0.0
H252 H 0.23381 0.39844 0.67788 0.0
H253 H 0.24598 0.32129 0.63671 0.0
H254 H 0.31416 0.40627 0.67496 0.0
H255 H 0.36352 0.27939 0.67567 0.0
O256 O 0.25301 0.33592 0.6921 0.0
O257 O 0.28365 0.2714 0.68939 0.0
O258 O 0.29161 0.27356 0.65401 0.0
C259 C 0.26964 0.30188 0.69876 0.0
H260 H 0.13421 0.22495 0.65635 0.0
H261 H 0.3991 0.41099 0.67785 0.0
H262 H 0.24191 0.38531 0.61999 0.0
H263 H 0.22021 0.46211 0.66212 0.0
Co264 Co 0.77402 0.33991 0.67633 0.0
C265 C 0.86449 0.344 0.66583 0.0
C266 C 0.8438 0.4049 0.6755 0.0
C267 C 0.88764 0.4071 0.67244 0.0
N268 N 0.8295 0.36512 0.67144 0.0
N269 N 0.90017 0.3688 0.66627 0.0
H270 H 0.86509 0.3101 0.66269 0.0
H271 H 0.82454 0.42959 0.68126 0.0
C272 C 0.73261 0.41947 0.6632 0.0
O273 O 0.74041 0.43862 0.67679 0.0
N274 N 0.71879 0.31458 0.68127 0.0
C275 C 0.71019 0.27275 0.68469 0.0
C276 C 0.66646 0.26868 0.68745 0.0
C277 C 0.6807 0.33554 0.6824 0.0
N278 N 0.64827 0.30824 0.68604 0.0
C279 C 0.79906 0.25673 0.66432 0.0
C280 C 0.76264 0.26559 0.63465 0.0
C281 C 0.77581 0.22433 0.63975 0.0
C282 C 0.79628 0.22062 0.65446 0.0
C283 C 0.76623 0.30101 0.64485 0.0
N284 N 0.78197 0.29589 0.65989 0.0
H285 H 0.81303 0.25224 0.67591 0.0
H286 H 0.7542 0.33166 0.64069 0.0
H287 H 0.73386 0.24697 0.68527 0.0
H288 H 0.67651 0.36988 0.68036 0.0
O289 O 0.79933 0.30906 0.69382 0.0
O290 O 0.7699 0.37416 0.6957 0.0
O291 O 0.74485 0.38041 0.66097 0.0
C292 C 0.78781 0.34116 0.70277 0.0
H293 H 0.90904 0.43378 0.67528 0.0
H294 H 0.64937 0.23909 0.69033 0.0
H295 H 0.74676 0.27009 0.62332 0.0
H296 H 0.80793 0.18956 0.65871 0.0
Co297 Co 0.76497 0.78625 0.17575 0.0
C298 C 0.67048 0.78258 0.17037 0.0
C299 C 0.69801 0.71896 0.17219 0.0
C300 C 0.65358 0.71512 0.1709 0.0
N301 N 0.70852 0.76136 0.17173 0.0
N302 N 0.63648 0.75529 0.16972 0.0
H303 H 0.66702 0.81725 0.17088 0.0
H304 H 0.72093 0.69277 0.1739 0.0
C305 C 0.78017 0.72726 0.14766 0.0
O306 O 0.74396 0.7402 0.14094 0.0
N307 N 0.82071 0.81165 0.18 0.0
C308 C 0.8275 0.8527 0.18484 0.0
C309 C 0.87123 0.859 0.18659 0.0
C310 C 0.86023 0.79338 0.1789 0.0
N311 N 0.89182 0.82175 0.18282 0.0
C312 C 0.73373 0.86741 0.16409 0.0
C313 C 0.78671 0.87052 0.13782 0.0
C314 C 0.76586 0.90839 0.14285 0.0
C315 C 0.73793 0.90631 0.15581 0.0
C316 C 0.78248 0.83257 0.14664 0.0
N317 N 0.75654 0.83118 0.15976 0.0
H318 H 0.71554 0.86816 0.17498 0.0
H319 H 0.80406 0.80633 0.14377 0.0
H320 H 0.80235 0.87639 0.18705 0.0
H321 H 0.86569 0.76025 0.17519 0.0
O322 O 0.74228 0.81642 0.19398 0.0
O323 O 0.77104 0.75053 0.19438 0.0
O324 O 0.79285 0.74402 0.16068 0.0
C325 C 0.75483 0.78301 0.20221 0.0
H326 H 0.63529 0.68522 0.17117 0.0
H327 H 0.88649 0.88855 0.19064 0.0
H328 H 0.80991 0.87139 0.1282 0.0
H329 H 0.7222 0.9353 0.16026 0.0
Co330 Co 0.76465 0.30756 0.82082 0.0
C331 C 0.67201 0.30943 0.82566 0.0
C332 C 0.70063 0.36421 0.83727 0.0
C333 C 0.65681 0.36307 0.84087 0.0
N334 N 0.70976 0.33032 0.82777 0.0
N335 N 0.63925 0.32815 0.83367 0.0
H336 H 0.66895 0.28004 0.81876 0.0
H337 H 0.72425 0.38693 0.8418 0.0
C338 C 0.82596 0.31718 0.84815 0.0
O339 O 0.83733 0.27651 0.84592 0.0
N340 N 0.81933 0.28328 0.81331 0.0
C341 C 0.82452 0.2454 0.8055 0.0
C342 C 0.86779 0.23824 0.80297 0.0
C343 C 0.85975 0.29994 0.81448 0.0
N344 N 0.88991 0.27221 0.8088 0.0
C345 C 0.73774 0.21854 0.82289 0.0
C346 C 0.75087 0.20913 0.85498 0.0
C347 C 0.74764 0.17171 0.84552 0.0
C348 C 0.73646 0.17722 0.82954 0.0
C349 C 0.75029 0.25 0.84782 0.0
N350 N 0.75022 0.25348 0.8317 0.0
H351 H 0.73103 0.22183 0.81041 0.0
H352 H 0.753 0.2784 0.85521 0.0
H353 H 0.799 0.22423 0.8016 0.0
H354 H 0.86718 0.33071 0.82 0.0
O355 O 0.74009 0.29481 0.80039 0.0
O356 O 0.7728 0.35641 0.80674 0.0
O357 O 0.795 0.33361 0.83998 0.0
C358 C 0.75431 0.33257 0.79599 0.0
H359 H 0.63976 0.38488 0.84875 0.0
H360 H 0.88199 0.2101 0.79731 0.0
H361 H 0.75742 0.20726 0.86756 0.0
H362 H 0.73011 0.14968 0.82194 0.0
Co363 Co 0.75525 0.76571 0.32059 0.0
C364 C 0.84239 0.79089 0.32969 0.0
C365 C 0.83748 0.72159 0.3285 0.0
C366 C 0.88022 0.73245 0.33115 0.0
N367 N 0.8138 0.75835 0.32797 0.0
N368 N 0.88304 0.77606 0.33175 0.0
H369 H 0.83391 0.82483 0.32852 0.0
H370 H 0.82492 0.68942 0.32629 0.0
C371 C 0.74353 0.70329 0.34883 0.0
O372 O 0.78238 0.70921 0.35476 0.0
N373 N 0.6964 0.77373 0.31293 0.0
C374 C 0.68313 0.78952 0.29878 0.0
C375 C 0.63928 0.79662 0.29928 0.0
C376 C 0.66011 0.77133 0.3218 0.0
N377 N 0.62511 0.78527 0.31375 0.0
C378 C 0.7305 0.85202 0.3282 0.0
C379 C 0.74831 0.84905 0.36022 0.0
C380 C 0.72755 0.88603 0.35404 0.0
C381 C 0.71956 0.88734 0.33767 0.0
C382 C 0.7573 0.81376 0.35037 0.0
N383 N 0.747 0.81496 0.33466 0.0
H384 H 0.72422 0.85389 0.31564 0.0
H385 H 0.77293 0.78592 0.35542 0.0
H386 H 0.70362 0.79777 0.28892 0.0
H387 H 0.65951 0.76199 0.33416 0.0
O388 O 0.77781 0.79629 0.30254 0.0
O389 O 0.76628 0.72529 0.30359 0.0
O390 O 0.73084 0.7233 0.33642 0.0
C391 C 0.77844 0.75889 0.29537 0.0
H392 H 0.90746 0.71029 0.33144 0.0
H393 H 0.61938 0.80979 0.28986 0.0
H394 H 0.75706 0.84688 0.37261 0.0
H395 H 0.70338 0.91455 0.33213 0.0
Co396 Co 0.52797 0.5604 0.57741 0.0
C397 C 0.53365 0.65707 0.5781 0.0
C398 C 0.59572 0.62722 0.5748 0.0
C399 C 0.6009 0.67165 0.57449 0.0
N400 N 0.55349 0.61805 0.57713 0.0
N401 N 0.56175 0.69027 0.57663 0.0
H402 H 0.49934 0.66175 0.5794 0.0
H403 H 0.62102 0.60322 0.57335 0.0
C404 C 0.58201 0.56534 0.60699 0.0
O405 O 0.56981 0.60587 0.6088 0.0
N406 N 0.50213 0.50326 0.57737 0.0
C407 C 0.45944 0.49499 0.5757 0.0
C408 C 0.45291 0.45109 0.57665 0.0
C409 C 0.52127 0.46405 0.5789 0.0
N410 N 0.49166 0.43178 0.57862 0.0
C411 C 0.44647 0.60045 0.5846 0.0
C412 C 0.43904 0.5668 0.61474 0.0
C413 C 0.40281 0.58626 0.60769 0.0
C414 C 0.40708 0.60432 0.5926 0.0
C415 C 0.47741 0.56275 0.60623 0.0
N416 N 0.48101 0.57929 0.59127 0.0
H417 H 0.44798 0.61168 0.5725 0.0
H418 H 0.5022 0.54238 0.61124 0.0
H419 H 0.43458 0.51908 0.57372 0.0
H420 H 0.55585 0.45922 0.5802 0.0
O421 O 0.50123 0.57146 0.5571 0.0
O422 O 0.5667 0.54312 0.56062 0.0
O423 O 0.56684 0.54272 0.59557 0.0
C424 C 0.53642 0.55554 0.55091 0.0
H425 H 0.6311 0.68885 0.57287 0.0
H426 H 0.42222 0.43441 0.57551 0.0
H427 H 0.43652 0.5508 0.62613 0.0
H428 H 0.37947 0.61872 0.58664 0.0
Co429 Co 0.98864 0.55655 0.06602 0.0
C430 C 0.99171 0.46185 0.07233 0.0
C431 C 0.92786 0.48781 0.07536 0.0
C432 C 0.92601 0.44351 0.07721 0.0
N433 N 0.96928 0.49952 0.07265 0.0
N434 N 0.96625 0.42724 0.07527 0.0
H435 H 0.02502 0.45902 0.06868 0.0
H436 H 0.9004 0.50964 0.07523 0.0
C437 C 0.9319 0.57723 0.09394 0.0
O438 O 0.95231 0.54721 0.10212 0.0
N439 N 0.00818 0.61276 0.05904 0.0
C440 C 0.04891 0.62202 0.05454 0.0
C441 C 0.05206 0.66583 0.05208 0.0
C442 C 0.98686 0.65092 0.05913 0.0
N443 N 0.01306 0.68428 0.055 0.0
C444 C 0.06929 0.53506 0.08126 0.0
C445 C 0.06954 0.60704 0.1007 0.0
C446 C 0.1079 0.58356 0.09868 0.0
C447 C 0.10725 0.54608 0.0894 0.0
C448 C 0.03254 0.59503 0.09242 0.0
N449 N 0.03256 0.55973 0.0826 0.0
H450 H 0.07137 0.50966 0.07258 0.0
H451 H 0.00569 0.61739 0.0926 0.0
H452 H 0.07505 0.59871 0.05375 0.0
H453 H 0.95327 0.65405 0.06254 0.0
O454 O 0.023 0.53075 0.04942 0.0
O455 O 0.95433 0.55128 0.04707 0.0
O456 O 0.94284 0.585 0.07963 0.0
C457 C 0.98916 0.53601 0.0404 0.0
H458 H 0.89701 0.42469 0.07929 0.0
H459 H 0.08161 0.68259 0.04903 0.0
H460 H 0.06908 0.6366 0.10765 0.0
H461 H 0.1367 0.5278 0.08729 0.0
Co462 Co 0.52321 0.55279 0.43088 0.0
C463 C 0.52459 0.45873 0.4254 0.0
C464 C 0.58882 0.48473 0.42642 0.0
C465 C 0.59182 0.44033 0.42484 0.0
N466 N 0.54656 0.49612 0.42651 0.0
N467 N 0.55127 0.42435 0.42435 0.0
H468 H 0.48991 0.45607 0.42594 0.0
H469 H 0.61553 0.50701 0.42796 0.0
C470 C 0.58325 0.56664 0.40343 0.0
O471 O 0.56587 0.53304 0.39628 0.0
N472 N 0.49987 0.60905 0.43547 0.0
C473 C 0.45842 0.6177 0.43934 0.0
C474 C 0.45236 0.66178 0.43897 0.0
C475 C 0.51865 0.64765 0.43296 0.0
N476 N 0.4902 0.68051 0.43485 0.0
C477 C 0.44328 0.52582 0.41669 0.0
C478 C 0.4447 0.585 0.39218 0.0
C479 C 0.40612 0.56313 0.3955 0.0
C480 C 0.40594 0.53233 0.40763 0.0
C481 C 0.48098 0.57827 0.40172 0.0
N482 N 0.48035 0.54885 0.41386 0.0
H483 H 0.4404 0.50563 0.42704 0.0
H484 H 0.50754 0.60045 0.40027 0.0
H485 H 0.43371 0.59354 0.44142 0.0
H486 H 0.55204 0.65148 0.42937 0.0
O487 O 0.48908 0.52938 0.448 0.0
O488 O 0.55607 0.55435 0.45034 0.0
O489 O 0.56885 0.57938 0.41682 0.0
C490 C 0.52184 0.53827 0.45712 0.0
H491 H 0.62126 0.42116 0.42485 0.0
H492 H 0.42184 0.67843 0.44073 0.0
H493 H 0.44558 0.61046 0.38333 0.0
H494 H 0.3763 0.51573 0.41084 0.0
Co495 Co 0.98685 0.55472 0.92063 0.0
C496 C 0.97708 0.64754 0.92277 0.0
C497 C 0.93022 0.62257 0.90641 0.0
C498 C 0.92961 0.66744 0.90567 0.0
N499 N 0.96022 0.61042 0.91717 0.0
N500 N 0.95911 0.68275 0.91606 0.0
H501 H 0.00495 0.64881 0.93054 0.0
H502 H 0.91218 0.60069 0.89889 0.0
C503 C 0.96475 0.49699 0.89352 0.0
O504 O 0.00579 0.48552 0.89322 0.0
N505 N 0.01489 0.49945 0.92462 0.0
C506 C 0.05731 0.49131 0.92732 0.0
C507 C 0.06291 0.4476 0.92952 0.0
C508 C 0.99508 0.46073 0.92603 0.0
N509 N 0.02383 0.42858 0.92863 0.0
C510 C 0.07225 0.58572 0.91313 0.0
C511 C 0.06405 0.57809 0.88073 0.0
C512 C 0.10576 0.58074 0.88735 0.0
C513 C 0.10911 0.58901 0.90365 0.0
C514 C 0.02812 0.57591 0.8907 0.0
N515 N 0.0336 0.57337 0.90671 0.0
H516 H 0.07576 0.58931 0.92578 0.0
H517 H 0.9964 0.5732 0.88543 0.0
H518 H 0.08285 0.51488 0.92798 0.0
H519 H 0.96055 0.45599 0.92456 0.0
O520 O 0.00961 0.57408 0.94074 0.0
O521 O 0.946 0.54201 0.93727 0.0
O522 O 0.95212 0.52758 0.90271 0.0
C523 C 0.97441 0.55834 0.94693 0.0
H524 H 0.91048 0.68709 0.89765 0.0
H525 H 0.0933 0.43102 0.93171 0.0
H526 H 0.05908 0.57368 0.86814 0.0
H527 H 0.14027 0.5943 0.90923 0.0
H528 H 0.04497 0.39339 0.08194 0.0
H529 H 0.91577 0.35929 0.06688 0.0
H530 H 0.93705 0.28339 0.06496 0.0
H531 H 0.99246 0.2273 0.06666 0.0
H532 H 0.12186 0.2598 0.08195 0.0
H533 H 0.10068 0.3361 0.08421 0.0
C534 C 0.02156 0.36937 0.07817 0.0
C535 C 0.97879 0.38216 0.07458 0.0
C536 C 0.03412 0.32561 0.07699 0.0
C537 C 0.94868 0.35045 0.06993 0.0
C538 C 0.96092 0.307 0.06871 0.0
C539 C 0.01602 0.25071 0.07076 0.0
C540 C 0.05872 0.23752 0.07424 0.0
C541 C 0.00353 0.29427 0.07217 0.0
C542 C 0.0889 0.26896 0.07908 0.0
C543 C 0.07673 0.31258 0.08045 0.0
H544 H 0.04298 0.89508 0.31931 0.0
H545 H 0.09983 0.80897 0.35389 0.0
H546 H 0.03054 0.77219 0.35715 0.0
H547 H 0.95503 0.76096 0.34863 0.0
H548 H 0.89813 0.84812 0.31452 0.0
H549 H 0.96589 0.88855 0.31281 0.0
C550 C 0.04005 0.86895 0.32782 0.0
C551 C 0.07677 0.85434 0.33612 0.0
C552 C 0.00011 0.84792 0.32964 0.0
C553 C 0.07231 0.82019 0.34705 0.0
C554 C 0.03268 0.79919 0.34897 0.0
C555 C 0.95763 0.78895 0.34091 0.0
C556 C 0.92196 0.80147 0.33167 0.0
C557 C 0.99666 0.81205 0.34001 0.0
C558 C 0.92518 0.83812 0.32185 0.0
C559 C 0.96395 0.8611 0.3208 0.0
H560 H 0.53587 0.89073 0.56809 0.0
H561 H 0.42924 0.86565 0.59988 0.0
H562 H 0.44862 0.78897 0.60056 0.0
H563 H 0.49627 0.72908 0.59238 0.0
H564 H 0.60355 0.75452 0.56104 0.0
H565 H 0.5843 0.83141 0.5604 0.0
C566 C 0.51705 0.86883 0.57535 0.0
C567 C 0.48101 0.88441 0.58393 0.0
C568 C 0.52873 0.82478 0.57587 0.0
C569 C 0.45673 0.85484 0.59298 0.0
C570 C 0.46799 0.8109 0.59347 0.0
C571 C 0.51527 0.75137 0.58532 0.0
C572 C 0.55124 0.73592 0.57671 0.0
C573 C 0.50389 0.79551 0.58495 0.0
C574 C 0.57601 0.76551 0.56789 0.0
C575 C 0.56482 0.80946 0.56743 0.0
H576 H 0.46463 0.22522 0.83339 0.0
H577 H 0.41252 0.35462 0.83762 0.0
H578 H 0.4857 0.38427 0.8389 0.0
H579 H 0.56506 0.37368 0.83736 0.0
H580 H 0.61611 0.2438 0.83355 0.0
H581 H 0.54307 0.21422 0.83374 0.0
C582 C 0.46915 0.25981 0.83485 0.0
C583 C 0.43297 0.28755 0.83523 0.0
C584 C 0.51133 0.2767 0.83556 0.0
C585 C 0.43971 0.33247 0.83697 0.0
C586 C 0.48161 0.3495 0.83779 0.0
C587 C 0.56008 0.33893 0.83677 0.0
C588 C 0.59596 0.31113 0.83515 0.0
C589 C 0.51774 0.32198 0.83685 0.0
C590 C 0.58906 0.26607 0.83438 0.0
C591 C 0.54726 0.24904 0.83459 0.0
H592 H 0.96713 0.74402 0.8934 0.0
H593 H 0.98807 0.71846 0.94303 0.0
H594 H 0.02576 0.78747 0.94596 0.0
H595 H 0.05437 0.85431 0.9343 0.0
H596 H 0.03098 0.88254 0.88513 0.0
H597 H 0.99295 0.81316 0.88196 0.0
C598 C 0.97922 0.75405 0.90489 0.0
C599 C 0.97505 0.72621 0.91797 0.0
C600 C 0.00112 0.79377 0.90646 0.0
C601 C 0.99132 0.7393 0.93278 0.0
C602 C 0.01296 0.77861 0.93445 0.0
C603 C 0.04152 0.84473 0.92287 0.0
C604 C 0.04611 0.87258 0.90987 0.0
C605 C 0.01871 0.80572 0.92133 0.0
C606 C 0.02817 0.86093 0.89519 0.0
C607 C 0.00626 0.82157 0.89343 0.0
H608 H 0.43902 0.79227 0.18019 0.0
H609 H 0.47189 0.90737 0.15367 0.0
H610 H 0.54629 0.88166 0.15105 0.0
H611 H 0.60219 0.82698 0.15654 0.0
H612 H 0.56923 0.71182 0.18286 0.0
H613 H 0.49403 0.73631 0.18472 0.0
C614 C 0.4621 0.81161 0.17363 0.0
C615 C 0.44954 0.85192 0.16719 0.0
C616 C 0.50476 0.79639 0.172 0.0
C617 C 0.48053 0.87663 0.15898 0.0
C618 C 0.5231 0.86177 0.15737 0.0
C619 C 0.57858 0.80729 0.16272 0.0
C620 C 0.59143 0.76777 0.16965 0.0
C621 C 0.5356 0.82185 0.16391 0.0
C622 C 0.5602 0.74216 0.17731 0.0
C623 C 0.51727 0.75635 0.17849 0.0
H624 H 0.51203 0.22778 0.41489 0.0
H625 H 0.40776 0.25952 0.44699 0.0
H626 H 0.43179 0.33485 0.44766 0.0
H627 H 0.48379 0.3906 0.43987 0.0
H628 H 0.58962 0.35848 0.40868 0.0
H629 H 0.56473 0.2831 0.4075 0.0
C630 C 0.49481 0.25091 0.42222 0.0
C631 C 0.45832 0.23788 0.43099 0.0
C632 C 0.50944 0.2937 0.42287 0.0
C633 C 0.43566 0.26872 0.44002 0.0
C634 C 0.44962 0.31168 0.44052 0.0
C635 C 0.50114 0.36715 0.4327 0.0
C636 C 0.53817 0.37984 0.42423 0.0
C637 C 0.4866 0.32434 0.43208 0.0
C638 C 0.56116 0.3491 0.41533 0.0
C639 C 0.54676 0.30629 0.41458 0.0
H640 H 0.96597 0.37753 0.6865 0.0
H641 H 0.92972 0.32263 0.64157 0.0
H642 H 0.00139 0.28865 0.63907 0.0
H643 H 0.07424 0.27455 0.64997 0.0
H644 H 0.10836 0.3268 0.69568 0.0
H645 H 0.03755 0.36158 0.69775 0.0
C646 C 0.97427 0.35875 0.67607 0.0
C647 C 0.94342 0.35305 0.66409 0.0
C648 C 0.01478 0.33839 0.67502 0.0
C649 C 0.95358 0.32763 0.65081 0.0
C650 C 0.99427 0.30806 0.64946 0.0
C651 C 0.06582 0.29294 0.66047 0.0
C652 C 0.09647 0.29831 0.67262 0.0
C653 C 0.02501 0.31291 0.66157 0.0
C654 C 0.08539 0.32268 0.6861 0.0
C655 C 0.04499 0.34261 0.68729 0.0
H656 H 0.10608 0.0605 0.01683 0.0
H657 H 0.97158 0.09843 0.01992 0.0
H658 H 0.9633 0.0889 0.99144 0.0
H659 H 0.99308 0.06661 0.96582 0.0
H660 H 0.12831 0.03332 0.96197 0.0
H661 H 0.13755 0.04371 0.99061 0.0
C662 C 0.07515 0.06721 0.01122 0.0
C663 C 0.03948 0.07996 0.02049 0.0
C664 C 0.07058 0.06179 0.99476 0.0
C665 C -0.00038 0.08872 0.01306 0.0
C666 C 0.99471 0.08295 0.99678 0.0
C667 C 0.02446 0.06133 0.97132 0.0
C668 C 0.05979 0.04837 0.962 0.0
C669 C 0.02972 0.06876 0.98758 0.0
C670 C 0.10063 0.04286 0.96905 0.0
C671 C 0.10589 0.04893 0.98537 0.0
H672 H 0.26642 0.80092 0.27554 0.0
H673 H 0.23605 0.93704 0.27894 0.0
H674 H 0.24978 0.9459 0.25048 0.0
H675 H 0.26934 0.91406 0.22456 0.0
H676 H 0.30429 0.77854 0.22204 0.0
H677 H 0.2908 0.77051 0.2503 0.0
C678 C 0.26234 0.83241 0.26998 0.0
C679 C 0.2493 0.86811 0.27912 0.0
C680 C 0.27181 0.83745 0.25385 0.0
C681 C 0.24549 0.90905 0.27199 0.0
C682 C 0.25356 0.91411 0.25578 0.0
C683 C 0.27456 0.88295 0.23025 0.0
C684 C 0.28769 0.84695 0.22118 0.0
C685 C 0.26678 0.87849 0.24659 0.0
C686 C 0.29438 0.80685 0.22873 0.0
C687 C 0.28633 0.80208 0.24488 0.0
H688 H 0.54409 0.04443 0.52588 0.0
H689 H 0.40612 0.04443 0.53384 0.0
H690 H 0.39314 0.04736 0.50522 0.0
H691 H 0.42139 0.05305 0.47798 0.0
H692 H 0.55956 0.05876 0.47048 0.0
H693 H 0.57218 0.05068 0.49886 0.0
C694 C 0.51121 0.04445 0.52131 0.0
C695 C 0.47609 0.04379 0.53185 0.0
C696 C 0.50408 0.04767 0.50495 0.0
C697 C 0.43362 0.04477 0.52587 0.0
C698 C 0.42621 0.04656 0.50955 0.0
C699 C 0.4542 0.05241 0.48259 0.0
C700 C 0.48947 0.05658 0.4722 0.0
C701 C 0.46122 0.04859 0.49898 0.0
C702 C 0.53186 0.05597 0.47829 0.0
C703 C 0.53913 0.05116 0.4945 0.0
H704 H 0.27925 0.23182 0.71847 0.0
H705 H 0.27833 0.3718 0.71749 0.0
H706 H 0.29158 0.37424 0.74584 0.0
H707 H 0.29876 0.33752 0.77107 0.0
H708 H 0.29177 0.19803 0.7734 0.0
H709 H 0.28747 0.1943 0.74439 0.0
C710 C 0.28206 0.2627 0.72453 0.0
C711 C 0.27736 0.30152 0.71597 0.0
C712 C 0.28865 0.26396 0.74104 0.0
C713 C 0.28109 0.34144 0.72388 0.0
C714 C 0.289 0.34293 0.74008 0.0
C715 C 0.29708 0.30619 0.76525 0.0
C716 C 0.29576 0.26812 0.77432 0.0
C717 C 0.29228 0.30449 0.74879 0.0
C718 C 0.29303 0.22782 0.76661 0.0
C719 C 0.29022 0.22571 0.75006 0.0
H720 H 0.78076 0.27894 0.77338 0.0
H721 H 0.73819 0.41028 0.78115 0.0
H722 H 0.74655 0.426 0.7527 0.0
H723 H 0.76437 0.40063 0.72545 0.0
H724 H 0.81281 0.27015 0.71917 0.0
H725 H 0.80461 0.25611 0.74726 0.0
C726 C 0.77298 0.31093 0.7688 0.0
C727 C 0.75784 0.34315 0.77909 0.0
C728 C 0.77949 0.31994 0.75275 0.0
C729 C 0.74927 0.38489 0.77325 0.0
C730 C 0.75423 0.39383 0.75706 0.0
C731 C 0.77368 0.36941 0.73031 0.0
C732 C 0.78885 0.33643 0.72018 0.0
C733 C 0.76923 0.36146 0.74666 0.0
C734 C 0.80097 0.29615 0.72664 0.0
C735 C 0.79606 0.28789 0.74272 0.0
H736 H 0.77254 0.7167 0.22248 0.0
H737 H 0.74354 0.8537 0.2209 0.0
H738 H 0.75474 0.85904 0.24941 0.0
H739 H 0.77142 0.82501 0.27471 0.0
H740 H 0.79351 0.68699 0.27715 0.0
H741 H 0.78803 0.68203 0.24824 0.0
C742 C 0.76835 0.74761 0.22842 0.0
C743 C 0.75697 0.78469 0.21963 0.0
C744 C 0.77451 0.75042 0.24487 0.0
C745 C 0.75176 0.82457 0.22743 0.0
C746 C 0.75859 0.82777 0.24371 0.0
C747 C 0.77573 0.79389 0.26892 0.0
C748 C 0.78305 0.75643 0.27801 0.0
C749 C 0.77007 0.79097 0.25251 0.0
C750 C 0.78803 0.7163 0.27036 0.0
C751 C 0.78447 0.71341 0.25387 0.0
H752 H 0.5869 0.54278 0.47876 0.0
H753 H 0.44834 0.52804 0.4744 0.0
H754 H 0.44059 0.53247 0.50312 0.0
H755 H 0.47275 0.54423 0.52938 0.0
H756 H 0.61143 0.55527 0.53403 0.0
H757 H 0.61966 0.54879 0.50527 0.0
C758 C 0.5551 0.5401 0.48413 0.0
C759 C 0.51826 0.53534 0.4745 0.0
C760 C 0.55087 0.54249 0.50066 0.0
C761 C 0.47724 0.53158 0.48158 0.0
C762 C 0.47272 0.5344 0.49799 0.0
C763 C 0.50472 0.54528 0.52405 0.0
C764 C 0.54139 0.55081 0.53367 0.0
C765 C 0.50921 0.54057 0.50761 0.0
C766 C 0.58275 0.55122 0.52677 0.0
C767 C 0.58745 0.54752 0.51036 0.0
H768 H 0.03774 0.54552 0.9683 0.0
H769 H 0.89936 0.56044 0.96384 0.0
H770 H 0.89108 0.55155 0.99255 0.0
H771 H 0.92386 0.54189 0.01891 0.0
H772 H 0.06215 0.52336 0.02295 0.0
H773 H 0.06976 0.53019 0.9943 0.0
C774 C 0.00585 0.54717 0.97367 0.0
C775 C 0.96927 0.55452 0.96416 0.0
C776 C 0.00132 0.54072 0.99001 0.0
C777 C 0.92795 0.55531 0.97107 0.0
C778 C 0.92324 0.55005 0.98742 0.0
C779 C 0.95556 0.53872 0.01349 0.0
C780 C 0.99239 0.53234 0.02303 0.0
C781 C 0.95975 0.54288 0.99701 0.0
C782 C 0.03325 0.52811 0.01586 0.0
C783 C 0.03771 0.53241 -0.00051 0.0
H784 H 0.17761 0.87522 0.12313 0.0
H785 H 0.23272 0.96935 0.1551 0.0
H786 H 0.19997 0.02821 0.13967 0.0
H787 H 0.15323 0.05275 0.11748 0.0
H788 H 0.09955 0.95711 0.08568 0.0
H789 H 0.13418 0.89942 0.10063 0.0
C790 C 0.18262 0.9086 0.12674 0.0
C791 C 0.20737 0.91775 0.14033 0.0
C792 C 0.1638 0.94219 0.11783 0.0
C793 C 0.21381 0.9613 0.14469 0.0
C794 C 0.19497 0.995 0.13589 0.0
C795 C 0.14927 0.01932 0.11379 0.0
C796 C 0.1236 0.00957 0.10043 0.0
C797 C 0.16951 0.98583 0.1225 0.0
C798 C 0.11909 0.96592 0.09582 0.0
C799 C 0.13885 0.93268 0.10441 0.0
H800 H 0.28559 0.01012 0.34721 0.0
H801 H 0.31313 0.88416 0.3672 0.0
H802 H 0.35428 0.91809 0.38859 0.0
H803 H 0.38643 0.98327 0.4006 0.0
H804 H 0.35984 0.10887 0.38008 0.0
H805 H 0.31417 0.07523 0.35999 0.0
C806 C 0.30031 0.99002 0.35629 0.0
C807 C 0.29642 0.94463 0.35552 0.0
C808 C 0.32428 0.00968 0.36845 0.0
C809 C 0.31553 0.91918 0.36748 0.0
C810 C 0.33922 0.93856 0.3797 0.0
C811 C 0.37026 0.00336 0.39185 0.0
C812 C 0.37685 0.04854 0.3918 0.0
C813 C 0.34437 0.98375 0.38017 0.0
C814 C 0.35563 0.07401 0.38035 0.0
C815 C 0.3295 0.05481 0.36882 0.0
H816 H 0.42773 0.18424 0.59254 0.0
H817 H 0.4504 0.09923 0.63213 0.0
H818 H 0.3989 0.14127 0.64825 0.0
H819 H 0.35185 0.20609 0.65152 0.0
H820 H 0.33568 0.29416 0.61229 0.0
H821 H 0.37999 0.24721 0.59548 0.0
C822 C 0.42119 0.17487 0.60466 0.0
C823 C 0.44259 0.13894 0.61122 0.0
C824 C 0.39267 0.19982 0.61387 0.0
C825 C 0.43394 0.12683 0.62691 0.0
C826 C 0.40466 0.15089 0.63609 0.0
C827 C 0.35728 0.21427 0.63918 0.0
C828 C 0.34015 0.2531 0.63303 0.0
C829 C 0.38429 0.1879 0.62976 0.0
C830 C 0.34832 0.2642 0.61718 0.0
C831 C 0.37378 0.2375 0.60761 0.0
H832 H 0.11867 0.13159 0.88917 0.0
H833 H 0.11441 0.02006 0.85824 0.0
H834 H 0.15432 0.05989 0.83807 0.0
H835 H 0.18985 0.12616 0.82902 0.0
H836 H 0.19511 0.23797 0.85971 0.0
H837 H 0.15544 0.19814 0.88015 0.0
C838 C 0.12654 0.11591 0.87804 0.0
C839 C 0.11342 0.07277 0.87527 0.0
C840 C 0.14967 0.13905 0.86642 0.0
C841 C 0.12399 0.05312 0.86075 0.0
C842 C 0.14684 0.07591 0.84917 0.0
C843 C 0.1824 0.14194 0.84017 0.0
C844 C 0.19546 0.18507 0.84279 0.0
C845 C 0.15973 0.11886 0.85186 0.0
C846 C 0.18559 0.2048 0.85737 0.0
C847 C 0.16283 0.18204 0.86906 0.0
H848 H 0.8793 0.02689 0.86124 0.0
H849 H 0.83959 0.05988 0.90865 0.0
H850 H 0.77671 0.0989 0.89825 0.0
H851 H 0.74416 0.13742 0.87565 0.0
H852 H 0.79064 0.10977 0.82838 0.0
H853 H 0.83769 0.05383 0.83866 0.0
C854 C 0.85596 0.0414 0.86927 0.0
C855 C 0.86434 0.04135 0.8856 0.0
C856 C 0.82114 0.06539 0.86319 0.0
C857 C 0.83378 0.05962 0.89599 0.0
C858 C 0.79811 0.08241 0.89003 0.0
C859 C 0.76404 0.11875 0.86755 0.0
C860 C 0.7645 0.12919 0.8513 0.0
C861 C 0.79316 0.08784 0.87362 0.0
C862 C 0.78924 0.10311 0.84096 0.0
C863 C 0.81687 0.07119 0.84684 0.0
H864 H 0.6849 0.09662 0.59352 0.0
H865 H 0.64854 0.0367 0.6378 0.0
H866 H 0.69901 0.08388 0.65193 0.0
H867 H 0.74254 0.15026 0.65198 0.0
H868 H 0.77712 0.21089 0.60767 0.0
H869 H 0.73856 0.1543 0.59317 0.0
C870 C 0.68906 0.09247 0.60619 0.0
C871 C 0.66233 0.06352 0.6146 0.0
C872 C 0.71729 0.12029 0.61424 0.0
C873 C 0.66801 0.0593 0.63106 0.0
C874 C 0.69685 0.0863 0.63914 0.0
C875 C 0.74301 0.15033 0.63913 0.0
C876 C 0.76213 0.18513 0.63091 0.0
C877 C 0.72004 0.11825 0.63091 0.0
C878 C 0.76195 0.18491 0.61427 0.0
C879 C 0.73994 0.15257 0.60599 0.0
H880 H 0.71612 0.97279 0.3473 0.0
H881 H 0.70029 0.87869 0.38491 0.0
H882 H 0.66294 0.93225 0.4008 0.0
H883 H 0.62398 0.00096 0.40241 0.0
H884 H 0.62748 0.0904 0.36329 0.0
H885 H 0.67968 0.04343 0.34945 0.0
C886 C 0.7044 0.96366 0.35892 0.0
C887 C 0.71085 0.92108 0.36464 0.0
C888 C 0.68024 0.99387 0.3677 0.0
C889 C 0.69667 0.91098 0.38007 0.0
C890 C 0.67466 0.94156 0.38919 0.0
C891 C 0.63733 0.01064 0.39106 0.0
C892 C 0.62285 0.04905 0.38389 0.0
C893 C 0.66492 0.98242 0.3829 0.0
C894 C 0.63901 0.06114 0.36903 0.0
C895 C 0.66841 0.03412 0.36112 0.0
H896 H 0.76698 0.93674 0.11244 0.0
H897 H 0.80159 0.97283 0.16011 0.0
H898 H 0.84721 0.03127 0.15008 0.0
H899 H 0.88835 0.06142 0.12767 0.0
H900 H 0.85378 0.02537 0.08 0.0
H901 H 0.79638 0.97839 0.09 0.0
C902 C 0.78336 0.95849 0.12057 0.0
C903 C 0.78142 0.95051 0.13691 0.0
C904 C 0.80995 0.99163 0.11471 0.0
C905 C 0.80256 0.97868 0.14745 0.0
C906 C 0.82899 0.01178 0.14173 0.0
C907 C 0.86712 0.04442 0.11953 0.0
C908 C 0.87525 0.04636 0.10321 0.0
C909 C 0.8346 0.01707 0.12538 0.0
C910 C 0.84777 0.0244 0.09265 0.0
C911 C 0.81529 0.99719 0.09836 0.0
H912 H 0.70454 0.50363 0.66288 0.0
H913 H 0.69948 0.38458 0.63601 0.0
H914 H 0.65322 0.41916 0.61636 0.0
H915 H 0.61292 0.48257 0.60691 0.0
H916 H 0.6172 0.60188 0.63363 0.0
H917 H 0.6648 0.56777 0.65315 0.0
C918 C 0.69348 0.48528 0.6527 0.0
C919 C 0.70586 0.44154 0.65095 0.0
C920 C 0.6665 0.50536 0.64139 0.0
C921 C 0.69104 0.41835 0.63765 0.0
C922 C 0.6643 0.43806 0.6264 0.0
C923 C 0.62424 0.50122 0.61699 0.0
C924 C 0.6113 0.54476 0.61878 0.0
C925 C 0.65167 0.48146 0.62817 0.0
C926 C 0.6265 0.56832 0.63192 0.0
C927 C 0.65378 0.54883 0.64312 0.0
H928 H 0.97184 0.412 0.88708 0.0
H929 H 0.8856 0.52102 0.88134 0.0
H930 H 0.83361 0.47464 0.86723 0.0
H931 H 0.81404 0.40297 0.8559 0.0
H932 H 0.90051 0.29432 0.86317 0.0
H933 H 0.9507 0.34063 0.87745 0.0
C934 C 0.94181 0.42576 0.88263 0.0
C935 C 0.93288 0.47001 0.88494 0.0
C936 C 0.91195 0.39883 0.87491 0.0
C937 C 0.89329 0.48708 0.87955 0.0
C938 C 0.86361 0.46056 0.87152 0.0
C939 C 0.84366 0.38937 0.86074 0.0
C940 C 0.85342 0.34514 0.85835 0.0
C941 C 0.8727 0.41634 0.86906 0.0
C942 C 0.89195 0.32811 0.86478 0.0
C943 C 0.92092 0.35464 0.87291 0.0
H944 H 0.91912 0.58979 0.12545 0.0
H945 H 0.87035 0.62728 0.07953 0.0
H946 H 0.81719 0.67515 0.09203 0.0
H947 H 0.78608 0.70845 0.11609 0.0
H948 H 0.83873 0.67419 0.16179 0.0
H949 H 0.88851 0.62303 0.14934 0.0
C950 C 0.89661 0.60813 0.11818 0.0
C951 C 0.89858 0.60478 0.10159 0.0
C952 C 0.8668 0.63636 0.12543 0.0
C953 C 0.86954 0.62927 0.09234 0.0
C954 C 0.8391 0.65667 0.09947 0.0
C955 C 0.8082 0.68947 0.1233 0.0
C956 C 0.8086 0.69503 0.13984 0.0
C957 C 0.83762 0.66075 0.11602 0.0
C958 C 0.83785 0.67063 0.14903 0.0
C959 C 0.86635 0.64131 0.14192 0.0
H960 H 0.73665 0.68623 0.38034 0.0
H961 H 0.68072 0.65508 0.33491 0.0
H962 H 0.62767 0.60795 0.34769 0.0
H963 H 0.59573 0.57715 0.37185 0.0
H964 H 0.6471 0.61357 0.41746 0.0
H965 H 0.70329 0.65696 0.40461 0.0
C966 C 0.71307 0.66876 0.37327 0.0
C967 C 0.71279 0.67374 0.35673 0.0
C968 C 0.68173 0.64279 0.38074 0.0
C969 C 0.68156 0.65166 0.34769 0.0
C970 C 0.65124 0.62471 0.35497 0.0
C971 C 0.61947 0.59434 0.37894 0.0
C972 C 0.61758 0.59195 0.39554 0.0
C973 C 0.65082 0.62024 0.37149 0.0
C974 C 0.64798 0.61497 0.40463 0.0
C975 C 0.68012 0.63973 0.39731 0.0
H976 H 0.38693 0.57408 0.36435 0.0
H977 H 0.33459 0.59013 0.41131 0.0
H978 H 0.27556 0.63446 0.40079 0.0
H979 H 0.2471 0.67917 0.37893 0.0
H980 H 0.30016 0.6637 0.33203 0.0
H981 H 0.34981 0.60802 0.34169 0.0
C982 C 0.36181 0.5863 0.37216 0.0
C983 C 0.36516 0.57927 0.38855 0.0
C984 C 0.32832 0.61226 0.36606 0.0
C985 C 0.33246 0.59498 0.39862 0.0
C986 C 0.29895 0.62069 0.39264 0.0
C987 C 0.26871 0.66263 0.37079 0.0
C988 C 0.27029 0.67571 0.35487 0.0
C989 C 0.29771 0.63112 0.37648 0.0
C990 C 0.29816 0.65396 0.34434 0.0
C991 C 0.32692 0.62244 0.34989 0.0
H992 H 0.27056 0.65157 0.13568 0.0
H993 H 0.2328 0.76851 0.11085 0.0
H994 H 0.18193 0.72758 0.09505 0.0
H995 H 0.13839 0.66238 0.09169 0.0
H996 H 0.16943 0.54663 0.11795 0.0
H997 H 0.23188 0.58342 0.13004 0.0
C998 C 0.25146 0.66817 0.12676 0.0
C999 C 0.2552 0.71351 0.12485 0.0
C1000 C 0.22011 0.64482 0.11823 0.0
C1001 C 0.23128 0.73381 0.1127 0.0
C1002 C 0.20142 0.7105 0.10375 0.0
C1003 C 0.15916 0.64516 0.09996 0.0
C1004 C 0.14904 0.60243 0.1043 0.0
C1005 C 0.19406 0.66665 0.10699 0.0
C1006 C 0.17656 0.5798 0.11465 0.0
C1007 C 0.21207 0.60086 0.12154 0.0
H1008 H 0.17444 0.53407 0.89827 0.0
H1009 H 0.12318 0.59194 0.85553 0.0
H1010 H 0.17072 0.54604 0.83964 0.0
H1011 H 0.21468 0.48012 0.8381 0.0
H1012 H 0.26827 0.42453 0.88088 0.0
H1013 H 0.23168 0.4798 0.8966 0.0
C1014 C 0.17467 0.53825 0.88552 0.0
C1015 C 0.14401 0.56557 0.87813 0.0
C1016 C 0.20168 0.51146 0.87646 0.0
C1017 C 0.14527 0.57014 0.86155 0.0
C1018 C 0.17247 0.54386 0.85244 0.0
C1019 C 0.21989 0.48074 0.85079 0.0
C1020 C 0.24323 0.44712 0.85828 0.0
C1021 C 0.19895 0.51274 0.85978 0.0
C1022 C 0.24918 0.44889 0.8748 0.0
C1023 C 0.2285 0.48071 0.88381 0.0
H1024 H 0.2707 0.50427 0.65178 0.0
H1025 H 0.22677 0.44865 0.60755 0.0
H1026 H 0.27005 0.50141 0.59304 0.0
H1027 H 0.33313 0.55035 0.59346 0.0
H1028 H 0.37734 0.60298 0.63794 0.0
H1029 H 0.31908 0.56547 0.65182 0.0
C1030 C 0.26857 0.50429 0.63898 0.0
C1031 C 0.24662 0.47079 0.63088 0.0
C1032 C 0.29395 0.53421 0.63073 0.0
C1033 C 0.24485 0.47251 0.61422 0.0
C1034 C 0.26949 0.50289 0.60587 0.0
C1035 C 0.32873 0.55517 0.60609 0.0
C1036 C 0.35978 0.57865 0.61477 0.0
C1037 C 0.29631 0.53197 0.61406 0.0
C1038 C 0.35399 0.5846 0.63111 0.0
C1039 C 0.32094 0.56286 0.63904 0.0
H1040 H 0.94801 0.87639 0.06295 0.0
H1041 H 0.07319 0.90206 0.04243 0.0
H1042 H 0.08695 0.82417 0.04008 0.0
H1043 H 0.06351 0.74975 0.04401 0.0
H1044 H 0.93967 0.72391 0.06605 0.0
H1045 H 0.9248 0.80111 0.06715 0.0
C1046 C 0.97809 0.86483 0.05783 0.0
C1047 C 0.00953 0.89474 0.05283 0.0
C1048 C 0.98591 0.82013 0.0567 0.0
C1049 C 0.04873 0.87952 0.04648 0.0
C1050 C 0.05647 0.83508 0.04507 0.0
C1051 C 0.03336 0.76048 0.04922 0.0
C1052 C 0.00311 0.73018 0.05503 0.0
C1053 C 0.02534 0.80513 0.05022 0.0
C1054 C 0.96381 0.74574 0.06138 0.0
C1055 C 0.95523 0.79018 0.06211 0.0
H1056 H 0.43215 0.7588 0.33216 0.0
H1057 H 0.42194 0.88609 0.31157 0.0
H1058 H 0.50108 0.89008 0.30924 0.0
H1059 H 0.57159 0.85242 0.30966 0.0
H1060 H 0.58175 0.72532 0.33046 0.0
H1061 H 0.50397 0.72588 0.33638 0.0
C1062 C 0.4476 0.78766 0.32748 0.0
C1063 C 0.4219 0.82187 0.32182 0.0
C1064 C 0.4927 0.78934 0.32609 0.0
C1065 C 0.44156 0.85954 0.31598 0.0
C1066 C 0.48657 0.86158 0.31453 0.0
C1067 C 0.55661 0.82523 0.31566 0.0
C1068 C 0.58155 0.78852 0.31937 0.0
C1069 C 0.51222 0.82595 0.31899 0.0
C1070 C 0.56266 0.75369 0.32747 0.0
C1071 C 0.51838 0.75398 0.33077 0.0
H1072 H 0.48726 0.2296 0.58417 0.0
H1073 H 0.57832 0.24158 0.54569 0.0
H1074 H 0.57573 0.32032 0.5479 0.0
H1075 H 0.54617 0.38638 0.56038 0.0
H1076 H 0.45099 0.37461 0.59732 0.0
H1077 H 0.45639 0.29531 0.59619 0.0
C1078 C 0.50593 0.24936 0.57609 0.0
C1079 C 0.53289 0.22947 0.56479 0.0
C1080 C 0.50386 0.29476 0.57729 0.0
C1081 C 0.55766 0.25583 0.55464 0.0
C1082 C 0.55616 0.30096 0.55586 0.0
C1083 C 0.52731 0.36622 0.56831 0.0
C1084 C 0.49874 0.38583 0.57906 0.0
C1085 C 0.5295 0.3208 0.56717 0.0
C1086 C 0.47343 0.35979 0.58906 0.0
C1087 C 0.47634 0.31463 0.58835 0.0
H1088 H 0.09135 0.25075 0.81274 0.0
H1089 H 0.08586 0.38689 0.80145 0.0
H1090 H 0.00664 0.38532 0.8026 0.0
H1091 H 0.93862 0.34384 0.80531 0.0
H1092 H 0.94494 0.20701 0.81542 0.0
H1093 H 0.02392 0.21008 0.81636 0.0
C1094 C 0.07274 0.28014 0.81078 0.0
C1095 C 0.09423 0.31879 0.80698 0.0
C1096 C 0.02733 0.27874 0.81113 0.0
C1097 C 0.06985 0.35662 0.80423 0.0
C1098 C 0.02463 0.35576 0.80492 0.0
C1099 C 0.95746 0.31494 0.80786 0.0
C1100 C 0.93622 0.27523 0.81012 0.0
C1101 C 0.00296 0.31682 0.8081 0.0
C1102 C 0.96077 0.23779 0.81335 0.0
C1103 C 0.00586 0.23955 0.81397 0.0
H1104 H 0.96274 0.23756 0.93684 0.0
H1105 H 0.07702 0.21436 0.90847 0.0
H1106 H 0.09219 0.29179 0.90819 0.0
H1107 H 0.07228 0.36621 0.91563 0.0
H1108 H 0.9557 0.38946 0.94237 0.0
H1109 H 0.94125 0.31141 0.94327 0.0
C1110 C 0.99066 0.24912 0.93037 0.0
C1111 C 0.01863 0.21974 0.92271 0.0
C1112 C -0.00139 0.29371 0.92991 0.0
C1113 C 0.05518 0.23586 0.9147 0.0
C1114 C 0.06377 0.28026 0.91442 0.0
C1115 C 0.04395 0.35397 0.92175 0.0
C1116 C 0.01524 0.38304 0.92908 0.0
C1117 C 0.0357 0.30939 0.922 0.0
C1118 C 0.97806 0.36733 0.93666 0.0
C1119 C 0.96995 0.3229 0.9372 0.0
H1120 H 0.08455 0.75941 0.18721 0.0
H1121 H 0.10708 0.89702 0.1829 0.0
H1122 H 0.02919 0.90971 0.18072 0.0
H1123 H 0.955 0.88168 0.18037 0.0
H1124 H 0.93275 0.74435 0.18611 0.0
H1125 H 0.0106 0.73159 0.18734 0.0
C1126 C 0.07253 0.79228 0.18603 0.0
C1127 C 0.10172 0.82721 0.18536 0.0
C1128 C 0.02782 0.79935 0.18496 0.0
C1129 C 0.08547 0.86948 0.18335 0.0
C1130 C 0.0409 0.87678 0.18218 0.0
C1131 C 0.96703 0.84899 0.18207 0.0
C1132 C 0.93786 0.81408 0.18321 0.0
C1133 C 0.01182 0.84195 0.18303 0.0
C1134 C 0.95429 0.77181 0.18502 0.0
C1135 C -0.00115 0.76449 0.18584 0.0
H1136 H 0.44443 0.74792 0.44624 0.0
H1137 H 0.55211 0.71496 0.41583 0.0
H1138 H 0.5649 0.79135 0.41061 0.0
H1139 H 0.54616 0.86752 0.41492 0.0
H1140 H 0.4376 0.90075 0.44466 0.0
H1141 H 0.42326 0.8239 0.4494 0.0
C1142 C 0.47036 0.75732 0.43833 0.0
C1143 C 0.49749 0.72564 0.43162 0.0
C1144 C 0.47707 0.80127 0.43511 0.0
C1145 C 0.53131 0.73855 0.4215 0.0
C1146 C 0.53843 0.78227 0.41836 0.0
C1147 C 0.51941 0.85778 0.42243 0.0
C1148 C 0.49314 0.88941 0.42952 0.0
C1149 C 0.51169 0.81383 0.42518 0.0
C1150 C 0.458 0.87675 0.43899 0.0
C1151 C 0.45005 0.83294 0.4418 0.0
H1152 H 0.58268 0.26 0.67538 0.0
H1153 H 0.61331 0.38105 0.69821 0.0
H1154 H 0.53669 0.40179 0.6979 0.0
H1155 H 0.4616 0.38586 0.69051 0.0
H1156 H 0.43208 0.26633 0.66617 0.0
H1157 H 0.50762 0.24413 0.66796 0.0
C1158 C 0.57233 0.29057 0.68049 0.0
C1159 C 0.60317 0.31895 0.68686 0.0
C1160 C 0.52859 0.30248 0.67997 0.0
C1161 C 0.58984 0.35892 0.69317 0.0
C1162 C 0.54619 0.3707 0.69301 0.0
C1163 C 0.47171 0.35513 0.68549 0.0
C1164 C 0.44113 0.3278 0.6783 0.0
C1165 C 0.51538 0.34291 0.68627 0.0
C1166 C 0.45472 0.28772 0.67204 0.0
C1167 C 0.498 0.27507 0.67295 0.0
loop_
_geom_bond_atom_site_label_1
_geom_bond_atom_site_label_2
_geom_bond_distance
_geom_bond_site_symmetry_2
_ccdc_geom_bond_type
Co0 N4 2.148 . S
Co0 N10 2.128 1_545 S
Co0 N20 2.194 1_455 S
Co0 O25 2.351 1_455 S
Co0 O26 2.155 . S
Co0 O27 2.096 . S
C1 N4 1.301 . S
C1 N5 1.328 . S
C1 H6 0.930 1_455 S
C2 C3 1.333 . S
C2 N4 1.317 . S
C2 H7 0.930 . S
C3 C2 1.333 . S
C3 N5 1.350 . S
C3 H29 0.931 . S
N4 Co0 2.148 . S
N4 C1 1.301 . S
N4 C2 1.317 . S
N5 C1 1.328 . S
N5 C3 1.350 . S
H6 C1 0.930 1_655 S
H7 C2 0.930 . S
C8 O9 1.224 . S
C8 O27 1.247 . S
O9 C8 1.224 . S
N10 Co0 2.128 1_565 S
N10 C11 1.355 1_455 S
N10 C13 1.311 . S
C11 N10 1.355 1_655 S
C11 C12 1.363 . S
C11 H23 0.929 . S
C12 C11 1.363 . S
C12 N14 1.375 1_655 S
C12 H30 0.931 . S
C13 N10 1.311 . S
C13 N14 1.347 . S
C13 H24 0.929 . S
N14 C12 1.375 1_455 S
N14 C13 1.347 . S
C15 C18 1.365 . S
C15 N20 1.328 . S
C15 H21 0.929 . S
C16 C17 1.362 . S
C16 C19 1.378 . S
C16 H31 0.929 . S
C17 C16 1.362 . S
C17 C18 1.366 . S
C18 C15 1.365 . S
C18 C17 1.366 . S
C18 H32 0.930 . S
C19 C16 1.378 . S
C19 N20 1.315 . S
C19 H22 0.930 . S
N20 Co0 2.194 1_655 S
N20 C15 1.328 . S
N20 C19 1.315 . S
H21 C15 0.929 . S
H22 C19 0.930 . S
H23 C11 0.929 . S
H24 C13 0.929 . S
O25 Co0 2.351 1_655 S
O25 C28 1.244 1_655 S
O26 Co0 2.155 . S
O26 C28 1.240 . S
O27 Co0 2.096 . S
O27 C8 1.247 . S
C28 O25 1.244 1_455 S
C28 O26 1.240 . S
H29 C3 0.931 . S
H30 C12 0.931 . S
H31 C16 0.929 . S
H32 C18 0.930 . S
Co33 N37 2.148 . S
Co33 N43 2.128 . S
Co33 N53 2.194 . S
Co33 O58 2.351 . S
Co33 O59 2.155 . S
Co33 O60 2.096 . S
C34 N37 1.301 . S
C34 N38 1.328 . S
C34 H39 0.930 . S
C35 C36 1.333 . S
C35 N37 1.317 . S
C35 H40 0.930 . S
C36 C35 1.333 . S
C36 N38 1.350 . S
C36 H62 0.931 . S
N37 Co33 2.148 . S
N37 C34 1.301 . S
N37 C35 1.317 . S
N38 C34 1.328 . S
N38 C36 1.350 . S
H39 C34 0.930 . S
H40 C35 0.930 . S
C41 O42 1.224 . S
C41 O60 1.247 . S
O42 C41 1.224 . S
N43 Co33 2.128 . S
N43 C44 1.355 . S
N43 C46 1.311 . S
C44 N43 1.355 . S
C44 C45 1.363 . S
C44 H56 0.929 . S
C45 C44 1.363 . S
C45 N47 1.375 . S
C45 H63 0.931 . S
C46 N43 1.311 . S
C46 N47 1.347 . S
C46 H57 0.929 . S
N47 C45 1.375 . S
N47 C46 1.347 . S
C48 C51 1.365 . S
C48 N53 1.328 . S
C48 H54 0.929 . S
C49 C50 1.362 . S
C49 C52 1.378 . S
C49 H64 0.929 . S
C50 C49 1.362 . S
C50 C51 1.366 . S
C51 C48 1.365 . S
C51 C50 1.366 . S
C51 H65 0.930 . S
C52 C49 1.378 . S
C52 N53 1.315 . S
C52 H55 0.930 . S
N53 Co33 2.194 . S
N53 C48 1.328 . S
N53 C52 1.315 . S
H54 C48 0.929 . S
H55 C52 0.930 . S
H56 C44 0.929 . S
H57 C46 0.929 . S
O58 Co33 2.351 . S
O58 C61 1.244 . S
O59 Co33 2.155 . S
O59 C61 1.240 . S
O60 Co33 2.096 . S
O60 C41 1.247 . S
C61 O58 1.244 . S
C61 O59 1.240 . S
H62 C36 0.931 . S
H63 C45 0.931 . S
H64 C49 0.929 . S
H65 C51 0.930 . S
Co66 N70 2.148 . S
Co66 N76 2.128 . S
Co66 N86 2.194 . S
Co66 O91 2.351 . S
Co66 O92 2.155 . S
Co66 O93 2.096 . S
C67 N70 1.301 1_565 S
C67 N71 1.328 . S
C67 H72 0.930 . S
C68 C69 1.333 . S
C68 N70 1.317 1_565 S
C68 H73 0.930 1_565 S
C69 C68 1.333 . S
C69 N71 1.350 . S
C69 H95 0.931 . S
N70 Co66 2.148 . S
N70 C67 1.301 1_545 S
N70 C68 1.317 1_545 S
N71 C67 1.328 . S
N71 C69 1.350 . S
H72 C67 0.930 . S
H73 C68 0.930 1_545 S
C74 O75 1.224 . S
C74 O93 1.247 . S
O75 C74 1.224 . S
N76 Co66 2.128 . S
N76 C77 1.355 . S
N76 C79 1.311 . S
C77 N76 1.355 . S
C77 C78 1.363 . S
C77 H89 0.929 . S
C78 C77 1.363 . S
C78 N80 1.375 . S
C78 H96 0.931 . S
C79 N76 1.311 . S
C79 N80 1.347 . S
C79 H90 0.929 . S
N80 C78 1.375 . S
N80 C79 1.347 . S
C81 C84 1.365 . S
C81 N86 1.328 . S
C81 H87 0.929 . S
C82 C83 1.362 . S
C82 C85 1.378 . S
C82 H97 0.929 . S
C83 C82 1.362 . S
C83 C84 1.366 . S
C84 C81 1.365 . S
C84 C83 1.366 . S
C84 H98 0.930 . S
C85 C82 1.378 . S
C85 N86 1.315 . S
C85 H88 0.930 . S
N86 Co66 2.194 . S
N86 C81 1.328 . S
N86 C85 1.315 . S
H87 C81 0.929 . S
H88 C85 0.930 . S
H89 C77 0.929 . S
H90 C79 0.929 . S
O91 Co66 2.351 . S
O91 C94 1.244 . S
O92 Co66 2.155 . S
O92 C94 1.240 . S
O93 Co66 2.096 . S
O93 C74 1.247 . S
C94 O91 1.244 . S
C94 O92 1.240 . S
H95 C69 0.931 . S
H96 C78 0.931 . S
H97 C82 0.929 . S
H98 C84 0.930 . S
Co99 N103 2.148 . S
Co99 N109 2.128 . S
Co99 N119 2.194 . S
Co99 O124 2.351 . S
Co99 O125 2.155 . S
Co99 O126 2.096 . S
C100 N103 1.301 . S
C100 N104 1.328 . S
C100 H105 0.930 . S
C101 C102 1.333 . S
C101 N103 1.317 . S
C101 H106 0.930 . S
C102 C101 1.333 . S
C102 N104 1.350 . S
C102 H128 0.931 . S
N103 Co99 2.148 . S
N103 C100 1.301 . S
N103 C101 1.317 . S
N104 C100 1.328 . S
N104 C102 1.350 . S
H105 C100 0.930 . S
H106 C101 0.930 . S
C107 O108 1.224 . S
C107 O126 1.247 . S
O108 C107 1.224 . S
N109 Co99 2.128 . S
N109 C110 1.355 . S
N109 C112 1.311 . S
C110 N109 1.355 . S
C110 C111 1.363 . S
C110 H122 0.929 . S
C111 C110 1.363 . S
C111 N113 1.375 . S
C111 H129 0.931 . S
C112 N109 1.311 . S
C112 N113 1.347 . S
C112 H123 0.929 . S
N113 C111 1.375 . S
N113 C112 1.347 . S
C114 C117 1.365 . S
C114 N119 1.328 . S
C114 H120 0.929 . S
C115 C116 1.362 . S
C115 C118 1.378 . S
C115 H130 0.929 . S
C116 C115 1.362 . S
C116 C117 1.366 . S
C117 C114 1.365 . S
C117 C116 1.366 . S
C117 H131 0.930 . S
C118 C115 1.378 . S
C118 N119 1.315 . S
C118 H121 0.930 . S
N119 Co99 2.194 . S
N119 C114 1.328 . S
N119 C118 1.315 . S
H120 C114 0.929 . S
H121 C118 0.930 . S
H122 C110 0.929 . S
H123 C112 0.929 . S
O124 Co99 2.351 . S
O124 C127 1.244 . S
O125 Co99 2.155 . S
O125 C127 1.240 . S
O126 Co99 2.096 . S
O126 C107 1.247 . S
C127 O124 1.244 . S
C127 O125 1.240 . S
H128 C102 0.931 . S
H129 C111 0.931 . S
H130 C115 0.929 . S
H131 C117 0.930 . S
Co132 N136 2.148 . S
Co132 N142 2.128 . S
Co132 N152 2.194 1_455 S
Co132 O157 2.351 1_455 S
Co132 O158 2.155 . S
Co132 O159 2.096 . S
C133 N136 1.301 1_565 S
C133 N137 1.328 . S
C133 H138 0.930 1_455 S
C134 C135 1.333 . S
C134 N136 1.317 1_565 S
C134 H139 0.930 1_565 S
C135 C134 1.333 . S
C135 N137 1.350 . S
C135 H161 0.931 . S
N136 Co132 2.148 . S
N136 C133 1.301 1_545 S
N136 C134 1.317 1_545 S
N137 C133 1.328 . S
N137 C135 1.350 . S
H138 C133 0.930 1_655 S
H139 C134 0.930 1_545 S
C140 O141 1.224 . S
C140 O159 1.247 . S
O141 C140 1.224 . S
N142 Co132 2.128 . S
N142 C143 1.355 1_455 S
N142 C145 1.311 . S
C143 N142 1.355 1_655 S
C143 C144 1.363 . S
C143 H155 0.929 . S
C144 C143 1.363 . S
C144 N146 1.375 1_655 S
C144 H162 0.931 . S
C145 N142 1.311 . S
C145 N146 1.347 . S
C145 H156 0.929 . S
N146 C144 1.375 1_455 S
N146 C145 1.347 . S
C147 C150 1.365 . S
C147 N152 1.328 . S
C147 H153 0.929 . S
C148 C149 1.362 . S
C148 C151 1.378 . S
C148 H163 0.929 . S
C149 C148 1.362 . S
C149 C150 1.366 . S
C150 C147 1.365 . S
C150 C149 1.366 . S
C150 H164 0.930 . S
C151 C148 1.378 . S
C151 N152 1.315 . S
C151 H154 0.930 . S
N152 Co132 2.194 1_655 S
N152 C147 1.328 . S
N152 C151 1.315 . S
H153 C147 0.929 . S
H154 C151 0.930 . S
H155 C143 0.929 . S
H156 C145 0.929 . S
O157 Co132 2.351 1_655 S
O157 C160 1.244 1_655 S
O158 Co132 2.155 . S
O158 C160 1.240 . S
O159 Co132 2.096 . S
O159 C140 1.247 . S
C160 O157 1.244 1_455 S
C160 O158 1.240 . S
H161 C135 0.931 . S
H162 C144 0.931 . S
H163 C148 0.929 . S
H164 C150 0.930 . S
Co165 N169 2.148 . S
Co165 N175 2.128 . S
Co165 N185 2.194 . S
Co165 O190 2.351 . S
Co165 O191 2.155 . S
Co165 O192 2.096 . S
C166 N169 1.301 . S
C166 N170 1.328 . S
C166 H171 0.930 . S
C167 C168 1.333 . S
C167 N169 1.317 . S
C167 H172 0.930 . S
C168 C167 1.333 . S
C168 N170 1.350 . S
C168 H194 0.931 . S
N169 Co165 2.148 . S
N169 C166 1.301 . S
N169 C167 1.317 . S
N170 C166 1.328 . S
N170 C168 1.350 . S
H171 C166 0.930 . S
H172 C167 0.930 . S
C173 O174 1.224 . S
C173 O192 1.247 . S
O174 C173 1.224 . S
N175 Co165 2.128 . S
N175 C176 1.355 . S
N175 C178 1.311 . S
C176 N175 1.355 . S
C176 C177 1.363 . S
C176 H188 0.929 . S
C177 C176 1.363 . S
C177 N179 1.375 . S
C177 H195 0.931 . S
C178 N175 1.311 . S
C178 N179 1.347 . S
C178 H189 0.929 . S
N179 C177 1.375 . S
N179 C178 1.347 . S
C180 C183 1.365 . S
C180 N185 1.328 . S
C180 H186 0.929 . S
C181 C182 1.362 . S
C181 C184 1.378 . S
C181 H196 0.929 . S
C182 C181 1.362 . S
C182 C183 1.366 . S
C183 C180 1.365 . S
C183 C182 1.366 . S
C183 H197 0.930 . S
C184 C181 1.378 . S
C184 N185 1.315 . S
C184 H187 0.930 . S
N185 Co165 2.194 . S
N185 C180 1.328 . S
N185 C184 1.315 . S
H186 C180 0.929 . S
H187 C184 0.930 . S
H188 C176 0.929 . S
H189 C178 0.929 . S
O190 Co165 2.351 . S
O190 C193 1.244 . S
O191 Co165 2.155 . S
O191 C193 1.240 . S
O192 Co165 2.096 . S
O192 C173 1.247 . S
C193 O190 1.244 . S
C193 O191 1.240 . S
H194 C168 0.931 . S
H195 C177 0.931 . S
H196 C181 0.929 . S
H197 C183 0.930 . S
Co198 N202 2.148 . S
Co198 N208 2.128 1_545 S
Co198 N218 2.194 . S
Co198 O223 2.351 . S
Co198 O224 2.155 . S
Co198 O225 2.096 . S
C199 N202 1.301 . S
C199 N203 1.328 . S
C199 H204 0.930 . S
C200 C201 1.333 . S
C200 N202 1.317 . S
C200 H205 0.930 . S
C201 C200 1.333 . S
C201 N203 1.350 . S
C201 H227 0.931 . S
N202 Co198 2.148 . S
N202 C199 1.301 . S
N202 C200 1.317 . S
N203 C199 1.328 . S
N203 C201 1.350 . S
H204 C199 0.930 . S
H205 C200 0.930 . S
C206 O207 1.224 . S
C206 O225 1.247 . S
O207 C206 1.224 . S
N208 Co198 2.128 1_565 S
N208 C209 1.355 . S
N208 C211 1.311 . S
C209 N208 1.355 . S
C209 C210 1.363 . S
C209 H221 0.929 . S
C210 C209 1.363 . S
C210 N212 1.375 . S
C210 H228 0.931 . S
C211 N208 1.311 . S
C211 N212 1.347 . S
C211 H222 0.929 . S
N212 C210 1.375 . S
N212 C211 1.347 . S
C213 C216 1.365 . S
C213 N218 1.328 . S
C213 H219 0.929 . S
C214 C215 1.362 . S
C214 C217 1.378 . S
C214 H229 0.929 . S
C215 C214 1.362 . S
C215 C216 1.366 . S
C216 C213 1.365 . S
C216 C215 1.366 . S
C216 H230 0.930 . S
C217 C214 1.378 . S
C217 N218 1.315 . S
C217 H220 0.930 . S
N218 Co198 2.194 . S
N218 C213 1.328 . S
N218 C217 1.315 . S
H219 C213 0.929 . S
H220 C217 0.930 . S
H221 C209 0.929 . S
H222 C211 0.929 . S
O223 Co198 2.351 . S
O223 C226 1.244 . S
O224 Co198 2.155 . S
O224 C226 1.240 . S
O225 Co198 2.096 . S
O225 C206 1.247 . S
C226 O223 1.244 . S
C226 O224 1.240 . S
H227 C201 0.931 . S
H228 C210 0.931 . S
H229 C214 0.929 . S
H230 C216 0.930 . S
Co231 N235 2.148 . S
Co231 N241 2.128 . S
Co231 N251 2.194 . S
Co231 O256 2.351 . S
Co231 O257 2.155 . S
Co231 O258 2.096 . S
C232 N235 1.301 . S
C232 N236 1.328 . S
C232 H237 0.930 . S
C233 C234 1.333 . S
C233 N235 1.317 . S
C233 H238 0.930 . S
C234 C233 1.333 . S
C234 N236 1.350 . S
C234 H260 0.931 . S
N235 Co231 2.148 . S
N235 C232 1.301 . S
N235 C233 1.317 . S
N236 C232 1.328 . S
N236 C234 1.350 . S
H237 C232 0.930 . S
H238 C233 0.930 . S
C239 O240 1.224 . S
C239 O258 1.247 . S
O240 C239 1.224 . S
N241 Co231 2.128 . S
N241 C242 1.355 . S
N241 C244 1.311 . S
C242 N241 1.355 . S
C242 C243 1.363 . S
C242 H254 0.929 . S
C243 C242 1.363 . S
C243 N245 1.375 . S
C243 H261 0.931 . S
C244 N241 1.311 . S
C244 N245 1.347 . S
C244 H255 0.929 . S
N245 C243 1.375 . S
N245 C244 1.347 . S
C246 C249 1.365 . S
C246 N251 1.328 . S
C246 H252 0.929 . S
C247 C248 1.362 . S
C247 C250 1.378 . S
C247 H262 0.929 . S
C248 C247 1.362 . S
C248 C249 1.366 . S
C249 C246 1.365 . S
C249 C248 1.366 . S
C249 H263 0.930 . S
C250 C247 1.378 . S
C250 N251 1.315 . S
C250 H253 0.930 . S
N251 Co231 2.194 . S
N251 C246 1.328 . S
N251 C250 1.315 . S
H252 C246 0.929 . S
H253 C250 0.930 . S
H254 C242 0.929 . S
H255 C244 0.929 . S
O256 Co231 2.351 . S
O256 C259 1.244 . S
O257 Co231 2.155 . S
O257 C259 1.240 . S
O258 Co231 2.096 . S
O258 C239 1.247 . S
C259 O256 1.244 . S
C259 O257 1.240 . S
H260 C234 0.931 . S
H261 C243 0.931 . S
H262 C247 0.929 . S
H263 C249 0.930 . S
Co264 N268 2.148 . S
Co264 N274 2.128 . S
Co264 N284 2.194 . S
Co264 O289 2.351 . S
Co264 O290 2.155 . S
Co264 O291 2.096 . S
C265 N268 1.301 . S
C265 N269 1.328 . S
C265 H270 0.930 . S
C266 C267 1.333 . S
C266 N268 1.317 . S
C266 H271 0.930 . S
C267 C266 1.333 . S
C267 N269 1.350 . S
C267 H293 0.931 . S
N268 Co264 2.148 . S
N268 C265 1.301 . S
N268 C266 1.317 . S
N269 C265 1.328 . S
N269 C267 1.350 . S
H270 C265 0.930 . S
H271 C266 0.930 . S
C272 O273 1.224 . S
C272 O291 1.247 . S
O273 C272 1.224 . S
N274 Co264 2.128 . S
N274 C275 1.355 . S
N274 C277 1.311 . S
C275 N274 1.355 . S
C275 C276 1.363 . S
C275 H287 0.929 . S
C276 C275 1.363 . S
C276 N278 1.375 . S
C276 H294 0.931 . S
C277 N274 1.311 . S
C277 N278 1.347 . S
C277 H288 0.929 . S
N278 C276 1.375 . S
N278 C277 1.347 . S
C279 C282 1.365 . S
C279 N284 1.328 . S
C279 H285 0.929 . S
C280 C281 1.362 . S
C280 C283 1.378 . S
C280 H295 0.929 . S
C281 C280 1.362 . S
C281 C282 1.366 . S
C282 C279 1.365 . S
C282 C281 1.366 . S
C282 H296 0.930 . S
C283 C280 1.378 . S
C283 N284 1.315 . S
C283 H286 0.930 . S
N284 Co264 2.194 . S
N284 C279 1.328 . S
N284 C283 1.315 . S
H285 C279 0.929 . S
H286 C283 0.930 . S
H287 C275 0.929 . S
H288 C277 0.929 . S
O289 Co264 2.351 . S
O289 C292 1.244 . S
O290 Co264 2.155 . S
O290 C292 1.240 . S
O291 Co264 2.096 . S
O291 C272 1.247 . S
C292 O289 1.244 . S
C292 O290 1.240 . S
H293 C267 0.931 . S
H294 C276 0.931 . S
H295 C280 0.929 . S
H296 C282 0.930 . S
Co297 N301 2.148 . S
Co297 N307 2.128 . S
Co297 N317 2.194 . S
Co297 O322 2.351 . S
Co297 O323 2.155 . S
Co297 O324 2.096 . S
C298 N301 1.301 . S
C298 N302 1.328 . S
C298 H303 0.930 . S
C299 C300 1.333 . S
C299 N301 1.317 . S
C299 H304 0.930 . S
C300 C299 1.333 . S
C300 N302 1.350 . S
C300 H326 0.931 . S
N301 Co297 2.148 . S
N301 C298 1.301 . S
N301 C299 1.317 . S
N302 C298 1.328 . S
N302 C300 1.350 . S
H303 C298 0.930 . S
H304 C299 0.930 . S
C305 O306 1.224 . S
C305 O324 1.247 . S
O306 C305 1.224 . S
N307 Co297 2.128 . S
N307 C308 1.355 . S
N307 C310 1.311 . S
C308 N307 1.355 . S
C308 C309 1.363 . S
C308 H320 0.929 . S
C309 C308 1.363 . S
C309 N311 1.375 . S
C309 H327 0.931 . S
C310 N307 1.311 . S
C310 N311 1.347 . S
C310 H321 0.929 . S
N311 C309 1.375 . S
N311 C310 1.347 . S
C312 C315 1.365 . S
C312 N317 1.328 . S
C312 H318 0.929 . S
C313 C314 1.362 . S
C313 C316 1.378 . S
C313 H328 0.929 . S
C314 C313 1.362 . S
C314 C315 1.366 . S
C315 C312 1.365 . S
C315 C314 1.366 . S
C315 H329 0.930 . S
C316 C313 1.378 . S
C316 N317 1.315 . S
C316 H319 0.930 . S
N317 Co297 2.194 . S
N317 C312 1.328 . S
N317 C316 1.315 . S
H318 C312 0.929 . S
H319 C316 0.930 . S
H320 C308 0.929 . S
H321 C310 0.929 . S
O322 Co297 2.351 . S
O322 C325 1.244 . S
O323 Co297 2.155 . S
O323 C325 1.240 . S
O324 Co297 2.096 . S
O324 C305 1.247 . S
C325 O322 1.244 . S
C325 O323 1.240 . S
H326 C300 0.931 . S
H327 C309 0.931 . S
H328 C313 0.929 . S
H329 C315 0.930 . S
Co330 N334 2.148 . S
Co330 N340 2.128 . S
Co330 N350 2.194 . S
Co330 O355 2.351 . S
Co330 O356 2.155 . S
Co330 O357 2.096 . S
C331 N334 1.301 . S
C331 N335 1.328 . S
C331 H336 0.930 . S
C332 C333 1.333 . S
C332 N334 1.317 . S
C332 H337 0.930 . S
C333 C332 1.333 . S
C333 N335 1.350 . S
C333 H359 0.931 . S
N334 Co330 2.148 . S
N334 C331 1.301 . S
N334 C332 1.317 . S
N335 C331 1.328 . S
N335 C333 1.350 . S
H336 C331 0.930 . S
H337 C332 0.930 . S
C338 O339 1.224 . S
C338 O357 1.247 . S
O339 C338 1.224 . S
N340 Co330 2.128 . S
N340 C341 1.355 . S
N340 C343 1.311 . S
C341 N340 1.355 . S
C341 C342 1.363 . S
C341 H353 0.929 . S
C342 C341 1.363 . S
C342 N344 1.375 . S
C342 H360 0.931 . S
C343 N340 1.311 . S
C343 N344 1.347 . S
C343 H354 0.929 . S
N344 C342 1.375 . S
N344 C343 1.347 . S
C345 C348 1.365 . S
C345 N350 1.328 . S
C345 H351 0.929 . S
C346 C347 1.362 . S
C346 C349 1.378 . S
C346 H361 0.929 . S
C347 C346 1.362 . S
C347 C348 1.366 . S
C348 C345 1.365 . S
C348 C347 1.366 . S
C348 H362 0.930 . S
C349 C346 1.378 . S
C349 N350 1.315 . S
C349 H352 0.930 . S
N350 Co330 2.194 . S
N350 C345 1.328 . S
N350 C349 1.315 . S
H351 C345 0.929 . S
H352 C349 0.930 . S
H353 C341 0.929 . S
H354 C343 0.929 . S
O355 Co330 2.351 . S
O355 C358 1.244 . S
O356 Co330 2.155 . S
O356 C358 1.240 . S
O357 Co330 2.096 . S
O357 C338 1.247 . S
C358 O355 1.244 . S
C358 O356 1.240 . S
H359 C333 0.931 . S
H360 C342 0.931 . S
H361 C346 0.929 . S
H362 C348 0.930 . S
Co363 N367 2.148 . S
Co363 N373 2.128 . S
Co363 N383 2.194 . S
Co363 O388 2.351 . S
Co363 O389 2.155 . S
Co363 O390 2.096 . S
C364 N367 1.301 . S
C364 N368 1.328 . S
C364 H369 0.930 . S
C365 C366 1.333 . S
C365 N367 1.317 . S
C365 H370 0.930 . S
C366 C365 1.333 . S
C366 N368 1.350 . S
C366 H392 0.931 . S
N367 Co363 2.148 . S
N367 C364 1.301 . S
N367 C365 1.317 . S
N368 C364 1.328 . S
N368 C366 1.350 . S
H369 C364 0.930 . S
H370 C365 0.930 . S
C371 O372 1.224 . S
C371 O390 1.247 . S
O372 C371 1.224 . S
N373 Co363 2.128 . S
N373 C374 1.355 . S
N373 C376 1.311 . S
C374 N373 1.355 . S
C374 C375 1.363 . S
C374 H386 0.929 . S
C375 C374 1.363 . S
C375 N377 1.375 . S
C375 H393 0.931 . S
C376 N373 1.311 . S
C376 N377 1.347 . S
C376 H387 0.929 . S
N377 C375 1.375 . S
N377 C376 1.347 . S
C378 C381 1.365 . S
C378 N383 1.328 . S
C378 H384 0.929 . S
C379 C380 1.362 . S
C379 C382 1.378 . S
C379 H394 0.929 . S
C380 C379 1.362 . S
C380 C381 1.366 . S
C381 C378 1.365 . S
C381 C380 1.366 . S
C381 H395 0.930 . S
C382 C379 1.378 . S
C382 N383 1.315 . S
C382 H385 0.930 . S
N383 Co363 2.194 . S
N383 C378 1.328 . S
N383 C382 1.315 . S
H384 C378 0.929 . S
H385 C382 0.930 . S
H386 C374 0.929 . S
H387 C376 0.929 . S
O388 Co363 2.351 . S
O388 C391 1.244 . S
O389 Co363 2.155 . S
O389 C391 1.240 . S
O390 Co363 2.096 . S
O390 C371 1.247 . S
C391 O388 1.244 . S
C391 O389 1.240 . S
H392 C366 0.931 . S
H393 C375 0.931 . S
H394 C379 0.929 . S
H395 C381 0.930 . S
Co396 N400 2.148 . S
Co396 N406 2.128 . S
Co396 N416 2.194 . S
Co396 O421 2.351 . S
Co396 O422 2.155 . S
Co396 O423 2.096 . S
C397 N400 1.301 . S
C397 N401 1.328 . S
C397 H402 0.930 . S
C398 C399 1.333 . S
C398 N400 1.317 . S
C398 H403 0.930 . S
C399 C398 1.333 . S
C399 N401 1.350 . S
C399 H425 0.931 . S
N400 Co396 2.148 . S
N400 C397 1.301 . S
N400 C398 1.317 . S
N401 C397 1.328 . S
N401 C399 1.350 . S
H402 C397 0.930 . S
H403 C398 0.930 . S
C404 O405 1.224 . S
C404 O423 1.247 . S
O405 C404 1.224 . S
N406 Co396 2.128 . S
N406 C407 1.355 . S
N406 C409 1.311 . S
C407 N406 1.355 . S
C407 C408 1.363 . S
C407 H419 0.929 . S
C408 C407 1.363 . S
C408 N410 1.375 . S
C408 H426 0.931 . S
C409 N406 1.311 . S
C409 N410 1.347 . S
C409 H420 0.929 . S
N410 C408 1.375 . S
N410 C409 1.347 . S
C411 C414 1.365 . S
C411 N416 1.328 . S
C411 H417 0.929 . S
C412 C413 1.362 . S
C412 C415 1.378 . S
C412 H427 0.929 . S
C413 C412 1.362 . S
C413 C414 1.366 . S
C414 C411 1.365 . S
C414 C413 1.366 . S
C414 H428 0.930 . S
C415 C412 1.378 . S
C415 N416 1.315 . S
C415 H418 0.930 . S
N416 Co396 2.194 . S
N416 C411 1.328 . S
N416 C415 1.315 . S
H417 C411 0.929 . S
H418 C415 0.930 . S
H419 C407 0.929 . S
H420 C409 0.929 . S
O421 Co396 2.351 . S
O421 C424 1.244 . S
O422 Co396 2.155 . S
O422 C424 1.240 . S
O423 Co396 2.096 . S
O423 C404 1.247 . S
C424 O421 1.244 . S
C424 O422 1.240 . S
H425 C399 0.931 . S
H426 C408 0.931 . S
H427 C412 0.929 . S
H428 C414 0.930 . S
Co429 N433 2.148 1_455 S
Co429 N439 2.128 . S
Co429 N449 2.194 . S
Co429 O454 2.351 . S
Co429 O455 2.155 1_455 S
Co429 O456 2.096 1_455 S
C430 N433 1.301 1_455 S
C430 N434 1.328 . S
C430 H435 0.930 . S
C431 C432 1.333 . S
C431 N433 1.317 . S
C431 H436 0.930 . S
C432 C431 1.333 . S
C432 N434 1.350 1_655 S
C432 H458 0.931 . S
N433 Co429 2.148 1_655 S
N433 C430 1.301 1_655 S
N433 C431 1.317 . S
N434 C430 1.328 . S
N434 C432 1.350 1_455 S
H435 C430 0.930 . S
H436 C431 0.930 . S
C437 O438 1.224 . S
C437 O456 1.247 . S
O438 C437 1.224 . S
N439 Co429 2.128 . S
N439 C440 1.355 . S
N439 C442 1.311 1_455 S
C440 N439 1.355 . S
C440 C441 1.363 . S
C440 H452 0.929 . S
C441 C440 1.363 . S
C441 N443 1.375 . S
C441 H459 0.931 . S
C442 N439 1.311 1_655 S
C442 N443 1.347 1_655 S
C442 H453 0.929 . S
N443 C441 1.375 . S
N443 C442 1.347 1_455 S
C444 C447 1.365 . S
C444 N449 1.328 . S
C444 H450 0.929 . S
C445 C446 1.362 . S
C445 C448 1.378 . S
C445 H460 0.929 . S
C446 C445 1.362 . S
C446 C447 1.366 . S
C447 C444 1.365 . S
C447 C446 1.366 . S
C447 H461 0.930 . S
C448 C445 1.378 . S
C448 N449 1.315 . S
C448 H451 0.930 . S
N449 Co429 2.194 . S
N449 C444 1.328 . S
N449 C448 1.315 . S
H450 C444 0.929 . S
H451 C448 0.930 . S
H452 C440 0.929 . S
H453 C442 0.929 . S
O454 Co429 2.351 . S
O454 C457 1.244 . S
O455 Co429 2.155 1_655 S
O455 C457 1.240 1_655 S
O456 Co429 2.096 1_655 S
O456 C437 1.247 . S
C457 O454 1.244 . S
C457 O455 1.240 1_455 S
H458 C432 0.931 . S
H459 C441 0.931 . S
H460 C445 0.929 . S
H461 C447 0.930 . S
Co462 N466 2.148 . S
Co462 N472 2.128 . S
Co462 N482 2.194 . S
Co462 O487 2.351 . S
Co462 O488 2.155 . S
Co462 O489 2.096 . S
C463 N466 1.301 . S
C463 N467 1.328 . S
C463 H468 0.930 . S
C464 C465 1.333 . S
C464 N466 1.317 . S
C464 H469 0.930 . S
C465 C464 1.333 . S
C465 N467 1.350 . S
C465 H491 0.931 . S
N466 Co462 2.148 . S
N466 C463 1.301 . S
N466 C464 1.317 . S
N467 C463 1.328 . S
N467 C465 1.350 . S
H468 C463 0.930 . S
H469 C464 0.930 . S
C470 O471 1.224 . S
C470 O489 1.247 . S
O471 C470 1.224 . S
N472 Co462 2.128 . S
N472 C473 1.355 . S
N472 C475 1.311 . S
C473 N472 1.355 . S
C473 C474 1.363 . S
C473 H485 0.929 . S
C474 C473 1.363 . S
C474 N476 1.375 . S
C474 H492 0.931 . S
C475 N472 1.311 . S
C475 N476 1.347 . S
C475 H486 0.929 . S
N476 C474 1.375 . S
N476 C475 1.347 . S
C477 C480 1.365 . S
C477 N482 1.328 . S
C477 H483 0.929 . S
C478 C479 1.362 . S
C478 C481 1.378 . S
C478 H493 0.929 . S
C479 C478 1.362 . S
C479 C480 1.366 . S
C480 C477 1.365 . S
C480 C479 1.366 . S
C480 H494 0.930 . S
C481 C478 1.378 . S
C481 N482 1.315 . S
C481 H484 0.930 . S
N482 Co462 2.194 . S
N482 C477 1.328 . S
N482 C481 1.315 . S
H483 C477 0.929 . S
H484 C481 0.930 . S
H485 C473 0.929 . S
H486 C475 0.929 . S
O487 Co462 2.351 . S
O487 C490 1.244 . S
O488 Co462 2.155 . S
O488 C490 1.240 . S
O489 Co462 2.096 . S
O489 C470 1.247 . S
C490 O487 1.244 . S
C490 O488 1.240 . S
H491 C465 0.931 . S
H492 C474 0.931 . S
H493 C478 0.929 . S
H494 C480 0.930 . S
Co495 N499 2.148 1_455 S
Co495 N505 2.128 . S
Co495 N515 2.194 . S
Co495 O520 2.351 . S
Co495 O521 2.155 1_455 S
Co495 O522 2.096 1_455 S
C496 N499 1.301 1_455 S
C496 N500 1.328 . S
C496 H501 0.930 . S
C497 C498 1.333 . S
C497 N499 1.317 . S
C497 H502 0.930 . S
C498 C497 1.333 . S
C498 N500 1.350 1_655 S
C498 H524 0.931 . S
N499 Co495 2.148 1_655 S
N499 C496 1.301 1_655 S
N499 C497 1.317 . S
N500 C496 1.328 . S
N500 C498 1.350 1_455 S
H501 C496 0.930 . S
H502 C497 0.930 . S
C503 O504 1.224 . S
C503 O522 1.247 . S
O504 C503 1.224 . S
N505 Co495 2.128 . S
N505 C506 1.355 . S
N505 C508 1.311 1_455 S
C506 N505 1.355 . S
C506 C507 1.363 . S
C506 H518 0.929 . S
C507 C506 1.363 . S
C507 N509 1.375 . S
C507 H525 0.931 . S
C508 N505 1.311 1_655 S
C508 N509 1.347 1_655 S
C508 H519 0.929 . S
N509 C507 1.375 . S
N509 C508 1.347 1_455 S
C510 C513 1.365 . S
C510 N515 1.328 . S
C510 H516 0.929 . S
C511 C512 1.362 . S
C511 C514 1.378 . S
C511 H526 0.929 . S
C512 C511 1.362 . S
C512 C513 1.366 . S
C513 C510 1.365 . S
C513 C512 1.366 . S
C513 H527 0.930 . S
C514 C511 1.378 . S
C514 N515 1.315 . S
C514 H517 0.930 . S
N515 Co495 2.194 . S
N515 C510 1.328 . S
N515 C514 1.315 . S
H516 C510 0.929 . S
H517 C514 0.930 . S
H518 C506 0.929 . S
H519 C508 0.929 . S
O520 Co495 2.351 . S
O520 C523 1.244 . S
O521 Co495 2.155 1_655 S
O521 C523 1.240 1_655 S
O522 Co495 2.096 1_655 S
O522 C503 1.247 . S
C523 O520 1.244 . S
C523 O521 1.240 1_455 S
H524 C498 0.931 . S
H525 C507 0.931 . S
H526 C511 0.929 . S
H527 C513 0.930 . S
H528 C534 0.930 . S
H529 C537 0.930 . S
H530 C538 0.930 . S
H531 C539 0.930 . S
H532 C542 0.930 . S
H533 C543 0.930 . S
C534 H528 0.930 . S
C534 C535 1.355 . S
C534 C536 1.415 . S
C535 C534 1.355 . S
C535 C537 1.419 . S
C536 C534 1.415 . S
C536 C541 1.425 . S
C536 C543 1.409 . S
C537 H529 0.930 . S
C537 C535 1.419 . S
C537 C538 1.362 . S
C538 H530 0.930 . S
C538 C537 1.362 . S
C538 C541 1.409 . S
C539 H531 0.930 . S
C539 C540 1.355 . S
C539 C541 1.415 . S
C540 C539 1.355 . S
C540 C542 1.419 . S
C541 C536 1.425 . S
C541 C538 1.409 . S
C541 C539 1.415 . S
C542 H532 0.930 . S
C542 C540 1.419 . S
C542 C543 1.362 . S
C543 H533 0.930 . S
C543 C536 1.409 . S
C543 C542 1.362 . S
H544 C550 0.930 . S
H545 C553 0.930 . S
H546 C554 0.930 . S
H547 C555 0.930 . S
H548 C558 0.930 . S
H549 C559 0.932 . S
C550 H544 0.930 . S
C550 C551 1.355 . S
C550 C552 1.415 . S
C551 C550 1.355 . S
C551 C553 1.419 . S
C552 C550 1.415 . S
C552 C557 1.425 . S
C552 C559 1.409 1_455 S
C553 H545 0.930 . S
C553 C551 1.419 . S
C553 C554 1.362 . S
C554 H546 0.930 . S
C554 C553 1.362 . S
C554 C557 1.409 . S
C555 H547 0.930 . S
C555 C556 1.355 . S
C555 C557 1.415 1_655 S
C556 C555 1.355 . S
C556 C558 1.419 . S
C557 C552 1.425 . S
C557 C554 1.409 . S
C557 C555 1.415 1_455 S
C558 H548 0.930 . S
C558 C556 1.419 . S
C558 C559 1.362 . S
C559 H549 0.932 . S
C559 C552 1.409 1_655 S
C559 C558 1.362 . S
H560 C566 0.930 . S
H561 C569 0.930 . S
H562 C570 0.930 . S
H563 C571 0.930 . S
H564 C574 0.930 . S
H565 C575 0.930 . S
C566 H560 0.930 . S
C566 C567 1.355 . S
C566 C568 1.415 . S
C567 C566 1.355 . S
C567 C569 1.419 . S
C568 C566 1.415 . S
C568 C573 1.425 . S
C568 C575 1.409 . S
C569 H561 0.930 . S
C569 C567 1.419 . S
C569 C570 1.362 . S
C570 H562 0.930 . S
C570 C569 1.362 . S
C570 C573 1.409 . S
C571 H563 0.930 . S
C571 C572 1.355 . S
C571 C573 1.415 . S
C572 C571 1.355 . S
C572 C574 1.419 . S
C573 C568 1.425 . S
C573 C570 1.409 . S
C573 C571 1.415 . S
C574 H564 0.930 . S
C574 C572 1.419 . S
C574 C575 1.362 . S
C575 H565 0.930 . S
C575 C568 1.409 . S
C575 C574 1.362 . S
H576 C582 0.930 . S
H577 C585 0.930 . S
H578 C586 0.930 . S
H579 C587 0.930 . S
H580 C590 0.930 . S
H581 C591 0.930 . S
C582 H576 0.930 . S
C582 C583 1.355 . S
C582 C584 1.415 . S
C583 C582 1.355 . S
C583 C585 1.419 . S
C584 C582 1.415 . S
C584 C589 1.425 . S
C584 C591 1.409 . S
C585 H577 0.930 . S
C585 C583 1.419 . S
C585 C586 1.362 . S
C586 H578 0.930 . S
C586 C585 1.362 . S
C586 C589 1.409 . S
C587 H579 0.930 . S
C587 C588 1.355 . S
C587 C589 1.415 . S
C588 C587 1.355 . S
C588 C590 1.419 . S
C589 C584 1.425 . S
C589 C586 1.409 . S
C589 C587 1.415 . S
C590 H580 0.930 . S
C590 C588 1.419 . S
C590 C591 1.362 . S
C591 H581 0.930 . S
C591 C584 1.409 . S
C591 C590 1.362 . S
H592 C598 0.930 . S
H593 C601 0.930 . S
H594 C602 0.930 . S
H595 C603 0.930 . S
H596 C606 0.930 . S
H597 C607 0.930 . S
C598 H592 0.930 . S
C598 C599 1.355 . S
C598 C600 1.415 . S
C599 C598 1.355 . S
C599 C601 1.419 . S
C600 C598 1.415 . S
C600 C605 1.425 . S
C600 C607 1.409 . S
C601 H593 0.930 . S
C601 C599 1.419 . S
C601 C602 1.362 . S
C602 H594 0.930 . S
C602 C601 1.362 . S
C602 C605 1.409 . S
C603 H595 0.930 . S
C603 C604 1.355 . S
C603 C605 1.415 . S
C604 C603 1.355 . S
C604 C606 1.419 . S
C605 C600 1.425 . S
C605 C602 1.409 . S
C605 C603 1.415 . S
C606 H596 0.930 . S
C606 C604 1.419 . S
C606 C607 1.362 . S
C607 H597 0.930 . S
C607 C600 1.409 . S
C607 C606 1.362 . S
H608 C614 0.930 . S
H609 C617 0.930 . S
H610 C618 0.930 . S
H611 C619 0.930 . S
H612 C622 0.930 . S
H613 C623 0.930 . S
C614 H608 0.930 . S
C614 C615 1.355 . S
C614 C616 1.415 . S
C615 C614 1.355 . S
C615 C617 1.419 . S
C616 C614 1.415 . S
C616 C621 1.425 . S
C616 C623 1.409 . S
C617 H609 0.930 . S
C617 C615 1.419 . S
C617 C618 1.362 . S
C618 H610 0.930 . S
C618 C617 1.362 . S
C618 C621 1.409 . S
C619 H611 0.930 . S
C619 C620 1.355 . S
C619 C621 1.415 . S
C620 C619 1.355 . S
C620 C622 1.419 . S
C621 C616 1.425 . S
C621 C618 1.409 . S
C621 C619 1.415 . S
C622 H612 0.930 . S
C622 C620 1.419 . S
C622 C623 1.362 . S
C623 H613 0.930 . S
C623 C616 1.409 . S
C623 C622 1.362 . S
H624 C630 0.930 . S
H625 C633 0.930 . S
H626 C634 0.930 . S
H627 C635 0.930 . S
H628 C638 0.930 . S
H629 C639 0.930 . S
C630 H624 0.930 . S
C630 C631 1.355 . S
C630 C632 1.415 . S
C631 C630 1.355 . S
C631 C633 1.419 . S
C632 C630 1.415 . S
C632 C637 1.425 . S
C632 C639 1.409 . S
C633 H625 0.930 . S
C633 C631 1.419 . S
C633 C634 1.362 . S
C634 H626 0.930 . S
C634 C633 1.362 . S
C634 C637 1.409 . S
C635 H627 0.930 . S
C635 C636 1.355 . S
C635 C637 1.415 . S
C636 C635 1.355 . S
C636 C638 1.419 . S
C637 C632 1.425 . S
C637 C634 1.409 . S
C637 C635 1.415 . S
C638 H628 0.930 . S
C638 C636 1.419 . S
C638 C639 1.362 . S
C639 H629 0.930 . S
C639 C632 1.409 . S
C639 C638 1.362 . S
H640 C646 0.930 . S
H641 C649 0.930 . S
H642 C650 0.932 . S
H643 C651 0.930 . S
H644 C654 0.930 . S
H645 C655 0.930 . S
C646 H640 0.930 . S
C646 C647 1.355 . S
C646 C648 1.415 1_655 S
C647 C646 1.355 . S
C647 C649 1.419 . S
C648 C646 1.415 1_455 S
C648 C653 1.425 . S
C648 C655 1.409 . S
C649 H641 0.930 . S
C649 C647 1.419 . S
C649 C650 1.362 . S
C650 H642 0.932 . S
C650 C649 1.362 . S
C650 C653 1.409 1_655 S
C651 H643 0.930 . S
C651 C652 1.355 . S
C651 C653 1.415 . S
C652 C651 1.355 . S
C652 C654 1.419 . S
C653 C648 1.425 . S
C653 C650 1.409 1_455 S
C653 C651 1.415 . S
C654 H644 0.930 . S
C654 C652 1.419 . S
C654 C655 1.362 . S
C655 H645 0.930 . S
C655 C648 1.409 . S
C655 C654 1.362 . S
H656 C662 0.930 . S
H657 C665 0.930 . S
H658 C666 0.930 . S
H659 C667 0.930 . S
H660 C670 0.930 . S
H661 C671 0.930 . S
C662 H656 0.930 . S
C662 C663 1.355 . S
C662 C664 1.415 . S
C663 C662 1.355 . S
C663 C665 1.419 1_455 S
C664 C662 1.415 . S
C664 C669 1.425 1_454 S
C664 C671 1.409 1_554 S
C665 H657 0.930 . S
C665 C663 1.419 1_655 S
C665 C666 1.362 . S
C666 H658 0.930 . S
C666 C665 1.362 . S
C666 C669 1.409 1_554 S
C667 H659 0.930 . S
C667 C668 1.355 1_655 S
C667 C669 1.415 . S
C668 C667 1.355 1_455 S
C668 C670 1.419 . S
C669 C664 1.425 1_656 S
C669 C666 1.409 1_556 S
C669 C667 1.415 . S
C670 H660 0.930 . S
C670 C668 1.419 . S
C670 C671 1.362 . S
C671 H661 0.930 . S
C671 C664 1.409 1_556 S
C671 C670 1.362 . S
H672 C678 0.930 . S
H673 C681 0.930 . S
H674 C682 0.930 . S
H675 C683 0.930 . S
H676 C686 0.930 . S
H677 C687 0.930 . S
C678 H672 0.930 . S
C678 C679 1.355 . S
C678 C680 1.415 . S
C679 C678 1.355 . S
C679 C681 1.419 . S
C680 C678 1.415 . S
C680 C685 1.425 . S
C680 C687 1.409 . S
C681 H673 0.930 . S
C681 C679 1.419 . S
C681 C682 1.362 . S
C682 H674 0.930 . S
C682 C681 1.362 . S
C682 C685 1.409 . S
C683 H675 0.930 . S
C683 C684 1.355 . S
C683 C685 1.415 . S
C684 C683 1.355 . S
C684 C686 1.419 . S
C685 C680 1.425 . S
C685 C682 1.409 . S
C685 C683 1.415 . S
C686 H676 0.930 . S
C686 C684 1.419 . S
C686 C687 1.362 . S
C687 H677 0.930 . S
C687 C680 1.409 . S
C687 C686 1.362 . S
H688 C694 0.930 . S
H689 C697 0.930 1_565 S
H690 C698 0.930 1_565 S
H691 C699 0.930 . S
H692 C702 0.930 . S
H693 C703 0.930 . S
C694 H688 0.930 . S
C694 C695 1.355 . S
C694 C696 1.415 . S
C695 C694 1.355 . S
C695 C697 1.419 . S
C696 C694 1.415 . S
C696 C701 1.425 . S
C696 C703 1.409 . S
C697 H689 0.930 1_545 S
C697 C695 1.419 . S
C697 C698 1.362 . S
C698 H690 0.930 1_545 S
C698 C697 1.362 . S
C698 C701 1.409 . S
C699 H691 0.930 . S
C699 C700 1.355 . S
C699 C701 1.415 . S
C700 C699 1.355 . S
C700 C702 1.419 . S
C701 C696 1.425 . S
C701 C698 1.409 . S
C701 C699 1.415 . S
C702 H692 0.930 . S
C702 C700 1.419 . S
C702 C703 1.362 . S
C703 H693 0.930 . S
C703 C696 1.409 . S
C703 C702 1.362 . S
H704 C710 0.930 . S
H705 C713 0.930 . S
H706 C714 0.930 . S
H707 C715 0.930 . S
H708 C718 0.930 . S
H709 C719 0.930 . S
C710 H704 0.930 . S
C710 C711 1.355 . S
C710 C712 1.415 . S
C711 C710 1.355 . S
C711 C713 1.419 . S
C712 C710 1.415 . S
C712 C717 1.425 . S
C712 C719 1.409 . S
C713 H705 0.930 . S
C713 C711 1.419 . S
C713 C714 1.362 . S
C714 H706 0.930 . S
C714 C713 1.362 . S
C714 C717 1.409 . S
C715 H707 0.930 . S
C715 C716 1.355 . S
C715 C717 1.415 . S
C716 C715 1.355 . S
C716 C718 1.419 . S
C717 C712 1.425 . S
C717 C714 1.409 . S
C717 C715 1.415 . S
C718 H708 0.930 . S
C718 C716 1.419 . S
C718 C719 1.362 . S
C719 H709 0.930 . S
C719 C712 1.409 . S
C719 C718 1.362 . S
H720 C726 0.930 . S
H721 C729 0.930 . S
H722 C730 0.930 . S
H723 C731 0.930 . S
H724 C734 0.930 . S
H725 C735 0.930 . S
C726 H720 0.930 . S
C726 C727 1.355 . S
C726 C728 1.415 . S
C727 C726 1.355 . S
C727 C729 1.419 . S
C728 C726 1.415 . S
C728 C733 1.425 . S
C728 C735 1.409 . S
C729 H721 0.930 . S
C729 C727 1.419 . S
C729 C730 1.362 . S
C730 H722 0.930 . S
C730 C729 1.362 . S
C730 C733 1.409 . S
C731 H723 0.930 . S
C731 C732 1.355 . S
C731 C733 1.415 . S
C732 C731 1.355 . S
C732 C734 1.419 . S
C733 C728 1.425 . S
C733 C730 1.409 . S
C733 C731 1.415 . S
C734 H724 0.930 . S
C734 C732 1.419 . S
C734 C735 1.362 . S
C735 H725 0.930 . S
C735 C728 1.409 . S
C735 C734 1.362 . S
H736 C742 0.930 . S
H737 C745 0.930 . S
H738 C746 0.930 . S
H739 C747 0.930 . S
H740 C750 0.930 . S
H741 C751 0.930 . S
C742 H736 0.930 . S
C742 C743 1.355 . S
C742 C744 1.415 . S
C743 C742 1.355 . S
C743 C745 1.419 . S
C744 C742 1.415 . S
C744 C749 1.425 . S
C744 C751 1.409 . S
C745 H737 0.930 . S
C745 C743 1.419 . S
C745 C746 1.362 . S
C746 H738 0.930 . S
C746 C745 1.362 . S
C746 C749 1.409 . S
C747 H739 0.930 . S
C747 C748 1.355 . S
C747 C749 1.415 . S
C748 C747 1.355 . S
C748 C750 1.419 . S
C749 C744 1.425 . S
C749 C746 1.409 . S
C749 C747 1.415 . S
C750 H740 0.930 . S
C750 C748 1.419 . S
C750 C751 1.362 . S
C751 H741 0.930 . S
C751 C744 1.409 . S
C751 C750 1.362 . S
H752 C758 0.930 . S
H753 C761 0.930 . S
H754 C762 0.930 . S
H755 C763 0.930 . S
H756 C766 0.930 . S
H757 C767 0.930 . S
C758 H752 0.930 . S
C758 C759 1.355 . S
C758 C760 1.415 . S
C759 C758 1.355 . S
C759 C761 1.419 . S
C760 C758 1.415 . S
C760 C765 1.425 . S
C760 C767 1.409 . S
C761 H753 0.930 . S
C761 C759 1.419 . S
C761 C762 1.362 . S
C762 H754 0.930 . S
C762 C761 1.362 . S
C762 C765 1.409 . S
C763 H755 0.930 . S
C763 C764 1.355 . S
C763 C765 1.415 . S
C764 C763 1.355 . S
C764 C766 1.419 . S
C765 C760 1.425 . S
C765 C762 1.409 . S
C765 C763 1.415 . S
C766 H756 0.930 . S
C766 C764 1.419 . S
C766 C767 1.362 . S
C767 H757 0.930 . S
C767 C760 1.409 . S
C767 C766 1.362 . S
H768 C774 0.930 . S
H769 C777 0.930 . S
H770 C778 0.930 . S
H771 C779 0.930 . S
H772 C782 0.930 . S
H773 C783 0.930 . S
C774 H768 0.930 . S
C774 C775 1.355 . S
C774 C776 1.415 . S
C775 C774 1.355 . S
C775 C777 1.419 1_455 S
C776 C774 1.415 . S
C776 C781 1.425 1_456 S
C776 C783 1.409 1_556 S
C777 H769 0.930 . S
C777 C775 1.419 1_655 S
C777 C778 1.362 . S
C778 H770 0.930 . S
C778 C777 1.362 . S
C778 C781 1.409 1_556 S
C779 H771 0.930 . S
C779 C780 1.355 1_655 S
C779 C781 1.415 . S
C780 C779 1.355 1_455 S
C780 C782 1.419 . S
C781 C776 1.425 1_654 S
C781 C778 1.409 1_554 S
C781 C779 1.415 . S
C782 H772 0.930 . S
C782 C780 1.419 . S
C782 C783 1.362 . S
C783 H773 0.930 . S
C783 C776 1.409 1_554 S
C783 C782 1.362 . S
H784 C790 0.930 . S
H785 C793 0.930 . S
H786 C794 0.930 1_545 S
H787 C795 0.930 . S
H788 C798 0.930 . S
H789 C799 0.930 . S
C790 H784 0.930 . S
C790 C791 1.355 . S
C790 C792 1.415 . S
C791 C790 1.355 . S
C791 C793 1.419 . S
C792 C790 1.415 . S
C792 C797 1.425 . S
C792 C799 1.409 . S
C793 H785 0.930 . S
C793 C791 1.419 . S
C793 C794 1.362 . S
C794 H786 0.930 1_565 S
C794 C793 1.362 . S
C794 C797 1.409 . S
C795 H787 0.930 . S
C795 C796 1.355 . S
C795 C797 1.415 1_545 S
C796 C795 1.355 . S
C796 C798 1.419 1_545 S
C797 C792 1.425 . S
C797 C794 1.409 . S
C797 C795 1.415 1_565 S
C798 H788 0.930 . S
C798 C796 1.419 1_565 S
C798 C799 1.362 . S
C799 H789 0.930 . S
C799 C792 1.409 . S
C799 C798 1.362 . S
H800 C806 0.930 . S
H801 C809 0.930 . S
H802 C810 0.930 . S
H803 C811 0.930 . S
H804 C814 0.930 . S
H805 C815 0.930 . S
C806 H800 0.930 . S
C806 C807 1.355 . S
C806 C808 1.415 . S
C807 C806 1.355 . S
C807 C809 1.419 . S
C808 C806 1.415 . S
C808 C813 1.425 . S
C808 C815 1.409 . S
C809 H801 0.930 . S
C809 C807 1.419 . S
C809 C810 1.362 . S
C810 H802 0.930 . S
C810 C809 1.362 . S
C810 C813 1.409 . S
C811 H803 0.930 . S
C811 C812 1.355 1_565 S
C811 C813 1.415 . S
C812 C811 1.355 1_545 S
C812 C814 1.419 . S
C813 C808 1.425 . S
C813 C810 1.409 . S
C813 C811 1.415 . S
C814 H804 0.930 . S
C814 C812 1.419 . S
C814 C815 1.362 1_545 S
C815 H805 0.930 . S
C815 C808 1.409 . S
C815 C814 1.362 1_565 S
H816 C822 0.930 . S
H817 C825 0.930 . S
H818 C826 0.930 . S
H819 C827 0.930 . S
H820 C830 0.930 . S
H821 C831 0.930 . S
C822 H816 0.930 . S
C822 C823 1.355 . S
C822 C824 1.415 . S
C823 C822 1.355 . S
C823 C825 1.419 . S
C824 C822 1.415 . S
C824 C829 1.425 . S
C824 C831 1.409 . S
C825 H817 0.930 . S
C825 C823 1.419 . S
C825 C826 1.362 . S
C826 H818 0.930 . S
C826 C825 1.362 . S
C826 C829 1.409 . S
C827 H819 0.930 . S
C827 C828 1.355 . S
C827 C829 1.415 . S
C828 C827 1.355 . S
C828 C830 1.419 . S
C829 C824 1.425 . S
C829 C826 1.409 . S
C829 C827 1.415 . S
C830 H820 0.930 . S
C830 C828 1.419 . S
C830 C831 1.362 . S
C831 H821 0.930 . S
C831 C824 1.409 . S
C831 C830 1.362 . S
H832 C838 0.930 . S
H833 C841 0.930 . S
H834 C842 0.930 . S
H835 C843 0.930 . S
H836 C846 0.930 . S
H837 C847 0.930 . S
C838 H832 0.930 . S
C838 C839 1.355 . S
C838 C840 1.415 . S
C839 C838 1.355 . S
C839 C841 1.419 . S
C840 C838 1.415 . S
C840 C845 1.425 . S
C840 C847 1.409 . S
C841 H833 0.930 . S
C841 C839 1.419 . S
C841 C842 1.362 . S
C842 H834 0.930 . S
C842 C841 1.362 . S
C842 C845 1.409 . S
C843 H835 0.930 . S
C843 C844 1.355 . S
C843 C845 1.415 . S
C844 C843 1.355 . S
C844 C846 1.419 . S
C845 C840 1.425 . S
C845 C842 1.409 . S
C845 C843 1.415 . S
C846 H836 0.930 . S
C846 C844 1.419 . S
C846 C847 1.362 . S
C847 H837 0.930 . S
C847 C840 1.409 . S
C847 C846 1.362 . S
H848 C854 0.930 . S
H849 C857 0.930 . S
H850 C858 0.930 . S
H851 C859 0.930 . S
H852 C862 0.930 . S
H853 C863 0.930 . S
C854 H848 0.930 . S
C854 C855 1.355 . S
C854 C856 1.415 . S
C855 C854 1.355 . S
C855 C857 1.419 . S
C856 C854 1.415 . S
C856 C861 1.425 . S
C856 C863 1.409 . S
C857 H849 0.930 . S
C857 C855 1.419 . S
C857 C858 1.362 . S
C858 H850 0.930 . S
C858 C857 1.362 . S
C858 C861 1.409 . S
C859 H851 0.930 . S
C859 C860 1.355 . S
C859 C861 1.415 . S
C860 C859 1.355 . S
C860 C862 1.419 . S
C861 C856 1.425 . S
C861 C858 1.409 . S
C861 C859 1.415 . S
C862 H852 0.930 . S
C862 C860 1.419 . S
C862 C863 1.362 . S
C863 H853 0.930 . S
C863 C856 1.409 . S
C863 C862 1.362 . S
H864 C870 0.930 . S
H865 C873 0.930 . S
H866 C874 0.930 . S
H867 C875 0.930 . S
H868 C878 0.930 . S
H869 C879 0.930 . S
C870 H864 0.930 . S
C870 C871 1.355 . S
C870 C872 1.415 . S
C871 C870 1.355 . S
C871 C873 1.419 . S
C872 C870 1.415 . S
C872 C877 1.425 . S
C872 C879 1.409 . S
C873 H865 0.930 . S
C873 C871 1.419 . S
C873 C874 1.362 . S
C874 H866 0.930 . S
C874 C873 1.362 . S
C874 C877 1.409 . S
C875 H867 0.930 . S
C875 C876 1.355 . S
C875 C877 1.415 . S
C876 C875 1.355 . S
C876 C878 1.419 . S
C877 C872 1.425 . S
C877 C874 1.409 . S
C877 C875 1.415 . S
C878 H868 0.930 . S
C878 C876 1.419 . S
C878 C879 1.362 . S
C879 H869 0.930 . S
C879 C872 1.409 . S
C879 C878 1.362 . S
H880 C886 0.930 1_545 S
H881 C889 0.930 . S
H882 C890 0.930 . S
H883 C891 0.930 1_565 S
H884 C894 0.930 . S
H885 C895 0.930 . S
C886 H880 0.930 1_565 S
C886 C887 1.355 . S
C886 C888 1.415 1_565 S
C887 C886 1.355 . S
C887 C889 1.419 . S
C888 C886 1.415 1_545 S
C888 C893 1.425 1_545 S
C888 C895 1.409 . S
C889 H881 0.930 . S
C889 C887 1.419 . S
C889 C890 1.362 . S
C890 H882 0.930 . S
C890 C889 1.362 . S
C890 C893 1.409 . S
C891 H883 0.930 1_545 S
C891 C892 1.355 . S
C891 C893 1.415 1_545 S
C892 C891 1.355 . S
C892 C894 1.419 . S
C893 C888 1.425 1_565 S
C893 C890 1.409 . S
C893 C891 1.415 1_565 S
C894 H884 0.930 . S
C894 C892 1.419 . S
C894 C895 1.362 . S
C895 H885 0.930 . S
C895 C888 1.409 . S
C895 C894 1.362 . S
H896 C902 0.930 . S
H897 C905 0.930 . S
H898 C906 0.930 . S
H899 C907 0.930 . S
H900 C910 0.930 . S
H901 C911 0.930 . S
C902 H896 0.930 . S
C902 C903 1.355 . S
C902 C904 1.415 . S
C903 C902 1.355 . S
C903 C905 1.419 . S
C904 C902 1.415 . S
C904 C909 1.425 1_565 S
C904 C911 1.409 . S
C905 H897 0.930 . S
C905 C903 1.419 . S
C905 C906 1.362 1_565 S
C906 H898 0.930 . S
C906 C905 1.362 1_545 S
C906 C909 1.409 . S
C907 H899 0.930 . S
C907 C908 1.355 . S
C907 C909 1.415 . S
C908 C907 1.355 . S
C908 C910 1.419 . S
C909 C904 1.425 1_545 S
C909 C906 1.409 . S
C909 C907 1.415 . S
C910 H900 0.930 . S
C910 C908 1.419 . S
C910 C911 1.362 1_545 S
C911 H901 0.930 . S
C911 C904 1.409 . S
C911 C910 1.362 1_565 S
H912 C918 0.930 . S
H913 C921 0.930 . S
H914 C922 0.930 . S
H915 C923 0.930 . S
H916 C926 0.930 . S
H917 C927 0.930 . S
C918 H912 0.930 . S
C918 C919 1.355 . S
C918 C920 1.415 . S
C919 C918 1.355 . S
C919 C921 1.419 . S
C920 C918 1.415 . S
C920 C925 1.425 . S
C920 C927 1.409 . S
C921 H913 0.930 . S
C921 C919 1.419 . S
C921 C922 1.362 . S
C922 H914 0.930 . S
C922 C921 1.362 . S
C922 C925 1.409 . S
C923 H915 0.930 . S
C923 C924 1.355 . S
C923 C925 1.415 . S
C924 C923 1.355 . S
C924 C926 1.419 . S
C925 C920 1.425 . S
C925 C922 1.409 . S
C925 C923 1.415 . S
C926 H916 0.930 . S
C926 C924 1.419 . S
C926 C927 1.362 . S
C927 H917 0.930 . S
C927 C920 1.409 . S
C927 C926 1.362 . S
H928 C934 0.930 . S
H929 C937 0.930 . S
H930 C938 0.930 . S
H931 C939 0.930 . S
H932 C942 0.930 . S
H933 C943 0.930 . S
C934 H928 0.930 . S
C934 C935 1.355 . S
C934 C936 1.415 . S
C935 C934 1.355 . S
C935 C937 1.419 . S
C936 C934 1.415 . S
C936 C941 1.425 . S
C936 C943 1.409 . S
C937 H929 0.930 . S
C937 C935 1.419 . S
C937 C938 1.362 . S
C938 H930 0.930 . S
C938 C937 1.362 . S
C938 C941 1.409 . S
C939 H931 0.930 . S
C939 C940 1.355 . S
C939 C941 1.415 . S
C940 C939 1.355 . S
C940 C942 1.419 . S
C941 C936 1.425 . S
C941 C938 1.409 . S
C941 C939 1.415 . S
C942 H932 0.930 . S
C942 C940 1.419 . S
C942 C943 1.362 . S
C943 H933 0.930 . S
C943 C936 1.409 . S
C943 C942 1.362 . S
H944 C950 0.930 . S
H945 C953 0.930 . S
H946 C954 0.930 . S
H947 C955 0.930 . S
H948 C958 0.930 . S
H949 C959 0.930 . S
C950 H944 0.930 . S
C950 C951 1.355 . S
C950 C952 1.415 . S
C951 C950 1.355 . S
C951 C953 1.419 . S
C952 C950 1.415 . S
C952 C957 1.425 . S
C952 C959 1.409 . S
C953 H945 0.930 . S
C953 C951 1.419 . S
C953 C954 1.362 . S
C954 H946 0.930 . S
C954 C953 1.362 . S
C954 C957 1.409 . S
C955 H947 0.930 . S
C955 C956 1.355 . S
C955 C957 1.415 . S
C956 C955 1.355 . S
C956 C958 1.419 . S
C957 C952 1.425 . S
C957 C954 1.409 . S
C957 C955 1.415 . S
C958 H948 0.930 . S
C958 C956 1.419 . S
C958 C959 1.362 . S
C959 H949 0.930 . S
C959 C952 1.409 . S
C959 C958 1.362 . S
H960 C966 0.930 . S
H961 C969 0.930 . S
H962 C970 0.930 . S
H963 C971 0.930 . S
H964 C974 0.930 . S
H965 C975 0.930 . S
C966 H960 0.930 . S
C966 C967 1.355 . S
C966 C968 1.415 . S
C967 C966 1.355 . S
C967 C969 1.419 . S
C968 C966 1.415 . S
C968 C973 1.425 . S
C968 C975 1.409 . S
C969 H961 0.930 . S
C969 C967 1.419 . S
C969 C970 1.362 . S
C970 H962 0.930 . S
C970 C969 1.362 . S
C970 C973 1.409 . S
C971 H963 0.930 . S
C971 C972 1.355 . S
C971 C973 1.415 . S
C972 C971 1.355 . S
C972 C974 1.419 . S
C973 C968 1.425 . S
C973 C970 1.409 . S
C973 C971 1.415 . S
C974 H964 0.930 . S
C974 C972 1.419 . S
C974 C975 1.362 . S
C975 H965 0.930 . S
C975 C968 1.409 . S
C975 C974 1.362 . S
H976 C982 0.930 . S
H977 C985 0.930 . S
H978 C986 0.930 . S
H979 C987 0.930 . S
H980 C990 0.930 . S
H981 C991 0.930 . S
C982 H976 0.930 . S
C982 C983 1.355 . S
C982 C984 1.415 . S
C983 C982 1.355 . S
C983 C985 1.419 . S
C984 C982 1.415 . S
C984 C989 1.425 . S
C984 C991 1.409 . S
C985 H977 0.930 . S
C985 C983 1.419 . S
C985 C986 1.362 . S
C986 H978 0.930 . S
C986 C985 1.362 . S
C986 C989 1.409 . S
C987 H979 0.930 . S
C987 C988 1.355 . S
C987 C989 1.415 . S
C988 C987 1.355 . S
C988 C990 1.419 . S
C989 C984 1.425 . S
C989 C986 1.409 . S
C989 C987 1.415 . S
C990 H980 0.930 . S
C990 C988 1.419 . S
C990 C991 1.362 . S
C991 H981 0.930 . S
C991 C984 1.409 . S
C991 C990 1.362 . S
H992 C998 0.930 . S
H993 C1001 0.930 . S
H994 C1002 0.930 . S
H995 C1003 0.930 . S
H996 C1006 0.930 . S
H997 C1007 0.930 . S
C998 H992 0.930 . S
C998 C999 1.355 . S
C998 C1000 1.415 . S
C999 C998 1.355 . S
C999 C1001 1.419 . S
C1000 C998 1.415 . S
C1000 C1005 1.425 . S
C1000 C1007 1.409 . S
C1001 H993 0.930 . S
C1001 C999 1.419 . S
C1001 C1002 1.362 . S
C1002 H994 0.930 . S
C1002 C1001 1.362 . S
C1002 C1005 1.409 . S
C1003 H995 0.930 . S
C1003 C1004 1.355 . S
C1003 C1005 1.415 . S
C1004 C1003 1.355 . S
C1004 C1006 1.419 . S
C1005 C1000 1.425 . S
C1005 C1002 1.409 . S
C1005 C1003 1.415 . S
C1006 H996 0.930 . S
C1006 C1004 1.419 . S
C1006 C1007 1.362 . S
C1007 H997 0.930 . S
C1007 C1000 1.409 . S
C1007 C1006 1.362 . S
H1008 C1014 0.930 . S
H1009 C1017 0.930 . S
H1010 C1018 0.930 . S
H1011 C1019 0.930 . S
H1012 C1022 0.930 . S
H1013 C1023 0.930 . S
C1014 H1008 0.930 . S
C1014 C1015 1.355 . S
C1014 C1016 1.415 . S
C1015 C1014 1.355 . S
C1015 C1017 1.419 . S
C1016 C1014 1.415 . S
C1016 C1021 1.425 . S
C1016 C1023 1.409 . S
C1017 H1009 0.930 . S
C1017 C1015 1.419 . S
C1017 C1018 1.362 . S
C1018 H1010 0.930 . S
C1018 C1017 1.362 . S
C1018 C1021 1.409 . S
C1019 H1011 0.930 . S
C1019 C1020 1.355 . S
C1019 C1021 1.415 . S
C1020 C1019 1.355 . S
C1020 C1022 1.419 . S
C1021 C1016 1.425 . S
C1021 C1018 1.409 . S
C1021 C1019 1.415 . S
C1022 H1012 0.930 . S
C1022 C1020 1.419 . S
C1022 C1023 1.362 . S
C1023 H1013 0.930 . S
C1023 C1016 1.409 . S
C1023 C1022 1.362 . S
H1024 C1030 0.930 . S
H1025 C1033 0.930 . S
H1026 C1034 0.930 . S
H1027 C1035 0.930 . S
H1028 C1038 0.930 . S
H1029 C1039 0.930 . S
C1030 H1024 0.930 . S
C1030 C1031 1.355 . S
C1030 C1032 1.415 . S
C1031 C1030 1.355 . S
C1031 C1033 1.419 . S
C1032 C1030 1.415 . S
C1032 C1037 1.425 . S
C1032 C1039 1.409 . S
C1033 H1025 0.930 . S
C1033 C1031 1.419 . S
C1033 C1034 1.362 . S
C1034 H1026 0.930 . S
C1034 C1033 1.362 . S
C1034 C1037 1.409 . S
C1035 H1027 0.930 . S
C1035 C1036 1.355 . S
C1035 C1037 1.415 . S
C1036 C1035 1.355 . S
C1036 C1038 1.419 . S
C1037 C1032 1.425 . S
C1037 C1034 1.409 . S
C1037 C1035 1.415 . S
C1038 H1028 0.930 . S
C1038 C1036 1.419 . S
C1038 C1039 1.362 . S
C1039 H1029 0.930 . S
C1039 C1032 1.409 . S
C1039 C1038 1.362 . S
H1040 C1046 0.930 . S
H1041 C1049 0.930 . S
H1042 C1050 0.930 . S
H1043 C1051 0.930 . S
H1044 C1054 0.930 . S
H1045 C1055 0.930 . S
C1046 H1040 0.930 . S
C1046 C1047 1.355 . S
C1046 C1048 1.415 . S
C1047 C1046 1.355 . S
C1047 C1049 1.419 . S
C1048 C1046 1.415 . S
C1048 C1053 1.425 . S
C1048 C1055 1.409 1_455 S
C1049 H1041 0.930 . S
C1049 C1047 1.419 . S
C1049 C1050 1.362 . S
C1050 H1042 0.930 . S
C1050 C1049 1.362 . S
C1050 C1053 1.409 . S
C1051 H1043 0.930 . S
C1051 C1052 1.355 1_455 S
C1051 C1053 1.415 . S
C1052 C1051 1.355 1_655 S
C1052 C1054 1.419 . S
C1053 C1048 1.425 . S
C1053 C1050 1.409 . S
C1053 C1051 1.415 . S
C1054 H1044 0.930 . S
C1054 C1052 1.419 . S
C1054 C1055 1.362 . S
C1055 H1045 0.930 . S
C1055 C1048 1.409 1_655 S
C1055 C1054 1.362 . S
H1056 C1062 0.930 . S
H1057 C1065 0.930 . S
H1058 C1066 0.930 . S
H1059 C1067 0.930 . S
H1060 C1070 0.930 . S
H1061 C1071 0.930 . S
C1062 H1056 0.930 . S
C1062 C1063 1.355 . S
C1062 C1064 1.415 . S
C1063 C1062 1.355 . S
C1063 C1065 1.419 . S
C1064 C1062 1.415 . S
C1064 C1069 1.425 . S
C1064 C1071 1.409 . S
C1065 H1057 0.930 . S
C1065 C1063 1.419 . S
C1065 C1066 1.362 . S
C1066 H1058 0.930 . S
C1066 C1065 1.362 . S
C1066 C1069 1.409 . S
C1067 H1059 0.930 . S
C1067 C1068 1.355 . S
C1067 C1069 1.415 . S
C1068 C1067 1.355 . S
C1068 C1070 1.419 . S
C1069 C1064 1.425 . S
C1069 C1066 1.409 . S
C1069 C1067 1.415 . S
C1070 H1060 0.930 . S
C1070 C1068 1.419 . S
C1070 C1071 1.362 . S
C1071 H1061 0.930 . S
C1071 C1064 1.409 . S
C1071 C1070 1.362 . S
H1072 C1078 0.930 . S
H1073 C1081 0.930 . S
H1074 C1082 0.930 . S
H1075 C1083 0.930 . S
H1076 C1086 0.930 . S
H1077 C1087 0.930 . S
C1078 H1072 0.930 . S
C1078 C1079 1.355 . S
C1078 C1080 1.415 . S
C1079 C1078 1.355 . S
C1079 C1081 1.419 . S
C1080 C1078 1.415 . S
C1080 C1085 1.425 . S
C1080 C1087 1.409 . S
C1081 H1073 0.930 . S
C1081 C1079 1.419 . S
C1081 C1082 1.362 . S
C1082 H1074 0.930 . S
C1082 C1081 1.362 . S
C1082 C1085 1.409 . S
C1083 H1075 0.930 . S
C1083 C1084 1.355 . S
C1083 C1085 1.415 . S
C1084 C1083 1.355 . S
C1084 C1086 1.419 . S
C1085 C1080 1.425 . S
C1085 C1082 1.409 . S
C1085 C1083 1.415 . S
C1086 H1076 0.930 . S
C1086 C1084 1.419 . S
C1086 C1087 1.362 . S
C1087 H1077 0.930 . S
C1087 C1080 1.409 . S
C1087 C1086 1.362 . S
H1088 C1094 0.930 . S
H1089 C1097 0.930 . S
H1090 C1098 0.930 . S
H1091 C1099 0.930 . S
H1092 C1102 0.930 . S
H1093 C1103 0.930 . S
C1094 H1088 0.930 . S
C1094 C1095 1.355 . S
C1094 C1096 1.415 . S
C1095 C1094 1.355 . S
C1095 C1097 1.419 . S
C1096 C1094 1.415 . S
C1096 C1101 1.425 . S
C1096 C1103 1.409 1_455 S
C1097 H1089 0.930 . S
C1097 C1095 1.419 . S
C1097 C1098 1.362 . S
C1098 H1090 0.930 . S
C1098 C1097 1.362 . S
C1098 C1101 1.409 . S
C1099 H1091 0.930 . S
C1099 C1100 1.355 . S
C1099 C1101 1.415 1_655 S
C1100 C1099 1.355 . S
C1100 C1102 1.419 . S
C1101 C1096 1.425 . S
C1101 C1098 1.409 . S
C1101 C1099 1.415 1_455 S
C1102 H1092 0.930 . S
C1102 C1100 1.419 . S
C1102 C1103 1.362 . S
C1103 H1093 0.930 . S
C1103 C1096 1.409 1_655 S
C1103 C1102 1.362 . S
H1104 C1110 0.930 1_655 S
H1105 C1113 0.930 . S
H1106 C1114 0.930 . S
H1107 C1115 0.930 . S
H1108 C1118 0.930 . S
H1109 C1119 0.930 . S
C1110 H1104 0.930 1_455 S
C1110 C1111 1.355 . S
C1110 C1112 1.415 1_455 S
C1111 C1110 1.355 . S
C1111 C1113 1.419 . S
C1112 C1110 1.415 1_655 S
C1112 C1117 1.424 1_655 S
C1112 C1119 1.410 . S
C1113 H1105 0.930 . S
C1113 C1111 1.419 . S
C1113 C1114 1.362 . S
C1114 H1106 0.930 . S
C1114 C1113 1.362 . S
C1114 C1117 1.409 . S
C1115 H1107 0.930 . S
C1115 C1116 1.355 1_455 S
C1115 C1117 1.415 . S
C1116 C1115 1.355 1_655 S
C1116 C1118 1.419 . S
C1117 C1112 1.424 1_455 S
C1117 C1114 1.409 . S
C1117 C1115 1.415 . S
C1118 H1108 0.930 . S
C1118 C1116 1.419 . S
C1118 C1119 1.362 . S
C1119 H1109 0.930 . S
C1119 C1112 1.410 . S
C1119 C1118 1.362 . S
H1120 C1126 0.930 . S
H1121 C1129 0.930 . S
H1122 C1130 0.930 . S
H1123 C1131 0.930 . S
H1124 C1134 0.930 . S
H1125 C1135 0.930 1_455 S
C1126 H1120 0.930 . S
C1126 C1127 1.355 . S
C1126 C1128 1.415 . S
C1127 C1126 1.355 . S
C1127 C1129 1.419 . S
C1128 C1126 1.415 . S
C1128 C1133 1.425 . S
C1128 C1135 1.409 1_455 S
C1129 H1121 0.930 . S
C1129 C1127 1.419 . S
C1129 C1130 1.362 . S
C1130 H1122 0.930 . S
C1130 C1129 1.362 . S
C1130 C1133 1.409 . S
C1131 H1123 0.930 . S
C1131 C1132 1.355 . S
C1131 C1133 1.415 1_655 S
C1132 C1131 1.355 . S
C1132 C1134 1.419 . S
C1133 C1128 1.425 . S
C1133 C1130 1.409 . S
C1133 C1131 1.415 1_455 S
C1134 H1124 0.930 . S
C1134 C1132 1.419 . S
C1134 C1135 1.362 . S
C1135 H1125 0.930 1_655 S
C1135 C1128 1.409 1_655 S
C1135 C1134 1.362 . S
H1136 C1142 0.930 . S
H1137 C1145 0.930 . S
H1138 C1146 0.930 . S
H1139 C1147 0.930 . S
H1140 C1150 0.930 . S
H1141 C1151 0.930 . S
C1142 H1136 0.930 . S
C1142 C1143 1.355 . S
C1142 C1144 1.415 . S
C1143 C1142 1.355 . S
C1143 C1145 1.419 . S
C1144 C1142 1.415 . S
C1144 C1149 1.425 . S
C1144 C1151 1.409 . S
C1145 H1137 0.930 . S
C1145 C1143 1.419 . S
C1145 C1146 1.362 . S
C1146 H1138 0.930 . S
C1146 C1145 1.362 . S
C1146 C1149 1.409 . S
C1147 H1139 0.930 . S
C1147 C1148 1.355 . S
C1147 C1149 1.415 . S
C1148 C1147 1.355 . S
C1148 C1150 1.419 . S
C1149 C1144 1.425 . S
C1149 C1146 1.409 . S
C1149 C1147 1.415 . S
C1150 H1140 0.930 . S
C1150 C1148 1.419 . S
C1150 C1151 1.362 . S
C1151 H1141 0.930 . S
C1151 C1144 1.409 . S
C1151 C1150 1.362 . S
H1152 C1158 0.930 . S
H1153 C1161 0.930 . S
H1154 C1162 0.930 . S
H1155 C1163 0.930 . S
H1156 C1166 0.930 . S
H1157 C1167 0.930 . S
C1158 H1152 0.930 . S
C1158 C1159 1.355 . S
C1158 C1160 1.415 . S
C1159 C1158 1.355 . S
C1159 C1161 1.419 . S
C1160 C1158 1.415 . S
C1160 C1165 1.425 . S
C1160 C1167 1.409 . S
C1161 H1153 0.930 . S
C1161 C1159 1.419 . S
C1161 C1162 1.362 . S
C1162 H1154 0.930 . S
C1162 C1161 1.362 . S
C1162 C1165 1.409 . S
C1163 H1155 0.930 . S
C1163 C1164 1.355 . S
C1163 C1165 1.415 . S
C1164 C1163 1.355 . S
C1164 C1166 1.419 . S
C1165 C1160 1.425 . S
C1165 C1162 1.409 . S
C1165 C1163 1.415 . S
C1166 H1156 0.930 . S
C1166 C1164 1.419 . S
C1166 C1167 1.362 . S
C1167 H1157 0.930 . S
C1167 C1160 1.409 . S
C1167 C1166 1.362 . S
C535 N434 1.322 . S
C540 N5 1.305 . S
C551 N38 1.316 . S
C556 N368 1.329 . S
C567 N71 1.280 . S
C572 N401 1.296 . S
C583 N104 1.327 . S
C588 N335 1.330 . S
C599 N500 1.320 . S
C604 N137 1.302 . S
C615 N170 1.281 . S
C620 N302 1.275 . S
C631 N203 1.312 . S
C636 N467 1.293 . S
C647 N269 1.330 . S
C652 N236 1.327 . S
C663 C28 1.649 . S
C668 C160 1.642 . S
C679 C61 1.664 . S
C684 C193 1.667 . S
C695 C94 1.664 . S
C700 C226 1.667 . S
C711 C259 1.660 . S
C716 C127 1.654 . S
C727 C358 1.638 . S
C732 C292 1.645 . S
C743 C325 1.667 . S
C748 C391 1.663 . S
C759 C490 1.613 . S
C764 C424 1.610 . S
C775 C523 1.619 . S
C780 C457 1.624 . S
C791 C173 1.284 . S
C796 C8 1.237 . S
C807 C41 1.239 . S
C812 C206 1.282 . S
C823 C74 1.240 . S
C828 C239 1.248 . S
C839 C140 1.284 . S
C844 C107 1.213 . S
C855 C149 0.369 . S
C860 C347 0.375 . S
C871 C83 0.371 . S
C876 C281 0.468 . S
C887 C380 0.304 . S
C892 C215 0.501 . S
C903 C314 0.360 . S
C908 C17 0.384 . S
C919 C272 1.223 . S
C924 C404 1.292 . S
C935 C503 1.233 . S
C940 C338 1.256 . S
C951 C437 1.292 . S
C956 C305 1.221 . S
C967 C371 1.291 . S
C972 C470 1.224 . S
C983 C479 0.437 . S
C988 C50 0.303 . S
C999 C182 0.334 . S
C1004 C446 0.489 . S
C1015 C512 0.297 . S
C1020 C116 0.503 . S
C1031 C248 0.362 . S
C1036 C413 0.474 . S
C1047 N14 0.762 . S
C1052 N443 0.781 1_655 S
C1063 N47 0.794 . S
C1068 N377 0.786 . S
C1079 N80 0.640 . S
C1084 N410 0.662 . S
C1095 N113 0.627 . S
C1100 N344 0.633 . S
C1111 N146 0.765 . S
C1116 N509 0.741 1_655 S
C1127 N179 0.738 . S
C1132 N311 0.763 . S
C1143 N476 0.735 . S
C1148 N212 0.706 . S
C1159 N278 0.717 . S
C1164 N245 0.746 . S
