# Generated by pormake.
# Topology wgb, (5)-cn, num edge types: 1
# Building blocks:
#     Node 0, Type 0, BuildingBlock: XOMCOT_clean_sbu_0, # of connection points: 5
#     Node 1, Type 0, BuildingBlock: XOMCOT_clean_sbu_0, # of connection points: 5
#     Node 2, Type 0, BuildingBlock: XOMCOT_clean_sbu_0, # of connection points: 5
#     Node 3, Type 0, BuildingBlock: XOMCOT_clean_sbu_0, # of connection points: 5
#     Node 4, Type 0, BuildingBlock: XOMCOT_clean_sbu_0, # of connection points: 5
#     Node 5, Type 0, BuildingBlock: XOMCOT_clean_sbu_0, # of connection points: 5
#     Node 6, Type 0, BuildingBlock: XOMCOT_clean_sbu_0, # of connection points: 5
#     Node 7, Type 0, BuildingBlock: XOMCOT_clean_sbu_0, # of connection points: 5
#     Node 8, Type 0, BuildingBlock: XOMCOT_clean_sbu_0, # of connection points: 5
#     Node 9, Type 0, BuildingBlock: XOMCOT_clean_sbu_0, # of connection points: 5
#     Node 10, Type 0, BuildingBlock: XOMCOT_clean_sbu_0, # of connection points: 5
#     Node 11, Type 0, BuildingBlock: XOMCOT_clean_sbu_0, # of connection points: 5
#     Node 12, Type 0, BuildingBlock: XOMCOT_clean_sbu_0, # of connection points: 5
#     Node 13, Type 0, BuildingBlock: XOMCOT_clean_sbu_0, # of connection points: 5
#     Node 14, Type 0, BuildingBlock: XOMCOT_clean_sbu_0, # of connection points: 5
#     Node 15, Type 0, BuildingBlock: XOMCOT_clean_sbu_0, # of connection points: 5
#     Edge 16, Type (0, 0), BuildingBlock: EZIPEK_clean_linker_0, # of connection points: 2
#     Edge 17, Type (0, 0), BuildingBlock: EZIPEK_clean_linker_0, # of connection points: 2
#     Edge 18, Type (0, 0), BuildingBlock: EZIPEK_clean_linker_0, # of connection points: 2
#     Edge 19, Type (0, 0), BuildingBlock: EZIPEK_clean_linker_0, # of connection points: 2
#     Edge 20, Type (0, 0), BuildingBlock: EZIPEK_clean_linker_0, # of connection points: 2
#     Edge 21, Type (0, 0), BuildingBlock: EZIPEK_clean_linker_0, # of connection points: 2
#     Edge 22, Type (0, 0), BuildingBlock: EZIPEK_clean_linker_0, # of connection points: 2
#     Edge 23, Type (0, 0), BuildingBlock: EZIPEK_clean_linker_0, # of connection points: 2
#     Edge 24, Type (0, 0), BuildingBlock: EZIPEK_clean_linker_0, # of connection points: 2
#     Edge 25, Type (0, 0), BuildingBlock: EZIPEK_clean_linker_0, # of connection points: 2
#     Edge 26, Type (0, 0), BuildingBlock: EZIPEK_clean_linker_0, # of connection points: 2
#     Edge 27, Type (0, 0), BuildingBlock: EZIPEK_clean_linker_0, # of connection points: 2
#     Edge 28, Type (0, 0), BuildingBlock: EZIPEK_clean_linker_0, # of connection points: 2
#     Edge 29, Type (0, 0), BuildingBlock: EZIPEK_clean_linker_0, # of connection points: 2
#     Edge 30, Type (0, 0), BuildingBlock: EZIPEK_clean_linker_0, # of connection points: 2
#     Edge 31, Type (0, 0), BuildingBlock: EZIPEK_clean_linker_0, # of connection points: 2
#     Edge 32, Type (0, 0), BuildingBlock: EZIPEK_clean_linker_0, # of connection points: 2
#     Edge 33, Type (0, 0), BuildingBlock: EZIPEK_clean_linker_0, # of connection points: 2
#     Edge 34, Type (0, 0), BuildingBlock: EZIPEK_clean_linker_0, # of connection points: 2
#     Edge 35, Type (0, 0), BuildingBlock: EZIPEK_clean_linker_0, # of connection points: 2
#     Edge 36, Type (0, 0), BuildingBlock: EZIPEK_clean_linker_0, # of connection points: 2
#     Edge 37, Type (0, 0), BuildingBlock: EZIPEK_clean_linker_0, # of connection points: 2
#     Edge 38, Type (0, 0), BuildingBlock: EZIPEK_clean_linker_0, # of connection points: 2
#     Edge 39, Type (0, 0), BuildingBlock: EZIPEK_clean_linker_0, # of connection points: 2
#     Edge 40, Type (0, 0), BuildingBlock: EZIPEK_clean_linker_0, # of connection points: 2
#     Edge 41, Type (0, 0), BuildingBlock: EZIPEK_clean_linker_0, # of connection points: 2
#     Edge 42, Type (0, 0), BuildingBlock: EZIPEK_clean_linker_0, # of connection points: 2
#     Edge 43, Type (0, 0), BuildingBlock: EZIPEK_clean_linker_0, # of connection points: 2
#     Edge 44, Type (0, 0), BuildingBlock: EZIPEK_clean_linker_0, # of connection points: 2
#     Edge 45, Type (0, 0), BuildingBlock: EZIPEK_clean_linker_0, # of connection points: 2
#     Edge 46, Type (0, 0), BuildingBlock: EZIPEK_clean_linker_0, # of connection points: 2
#     Edge 47, Type (0, 0), BuildingBlock: EZIPEK_clean_linker_0, # of connection points: 2
#     Edge 48, Type (0, 0), BuildingBlock: EZIPEK_clean_linker_0, # of connection points: 2
#     Edge 49, Type (0, 0), BuildingBlock: EZIPEK_clean_linker_0, # of connection points: 2
#     Edge 50, Type (0, 0), BuildingBlock: EZIPEK_clean_linker_0, # of connection points: 2
#     Edge 51, Type (0, 0), BuildingBlock: EZIPEK_clean_linker_0, # of connection points: 2
#     Edge 52, Type (0, 0), BuildingBlock: EZIPEK_clean_linker_0, # of connection points: 2
#     Edge 53, Type (0, 0), BuildingBlock: EZIPEK_clean_linker_0, # of connection points: 2
#     Edge 54, Type (0, 0), BuildingBlock: EZIPEK_clean_linker_0, # of connection points: 2
#     Edge 55, Type (0, 0), BuildingBlock: EZIPEK_clean_linker_0, # of connection points: 2
# Relax obj value: 0.082
# Max RMSD: 0.115
# Mean RMSD: 0.115
data_MOF--net-wgb--node1-XOMCOT_clean_sbu_0--edge1-EZIPEK_clean_linker_0
_symmetry_space_group_name_H-M    P1
_symmetry_Int_Tables_number       1
_symmetry_cell_setting            triclinic
loop_
_symmetry_equiv_pos_as_xyz
'x, y, z'
_cell_length_a     43.985448
_cell_length_b     44.092818
_cell_length_c     20.877205
_cell_angle_alpha  89.813008
_cell_angle_beta   89.864358
_cell_angle_gamma 90.137981
loop_
_atom_site_label
_atom_site_type_symbol
_atom_site_fract_x
_atom_site_fract_y
_atom_site_fract_z
_atom_type_partial_charge
Co0 Co 0.34774 0.11047 0.20949 0.0
C1 C 0.33617 0.17505 0.17604 0.0
C2 C 0.32834 0.16658 0.27582 0.0
C3 C 0.32517 0.19726 0.26461 0.0
N4 N 0.33482 0.15247 0.22007 0.0
N5 N 0.33016 0.20238 0.20193 0.0
H6 H 0.34332 0.17222 0.12702 0.0
H7 H 0.32754 0.15566 0.32214 0.0
C8 C 0.28846 0.10617 0.28304 0.0
O9 O 0.27724 0.1294 0.25151 0.0
N10 N 0.3613 0.06907 0.19868 0.0
C11 C 0.37457 0.05756 0.14587 0.0
C12 C 0.38239 0.02785 0.15771 0.0
C13 C 0.36096 0.04618 0.24195 0.0
N14 N 0.37383 0.0208 0.21795 0.0
C15 C 0.33546 0.11815 0.07537 0.0
C16 C 0.27946 0.08972 0.07296 0.0
C17 C 0.29067 0.10297 1.01654 0.0
C18 C 0.31934 0.11672 0.01789 0.0
C19 C 0.29667 0.09113 0.1293 0.0
N20 N 0.32364 0.10664 0.13101 0.0
H21 H 0.35761 0.12868 0.07482 0.0
H22 H 0.28829 0.07919 0.17073 0.0
H23 H 0.37866 0.07002 0.102 0.0
H24 H 0.35175 0.04802 0.2899 0.0
O25 O 0.38597 0.1252 0.17376 0.0
O26 O 0.37747 0.11599 0.2765 0.0
O27 O 0.31409 0.09489 0.26721 0.0
C28 C 0.39631 0.1247 0.23212 0.0
H29 H 0.32106 0.21464 0.30007 0.0
H30 H 0.39325 0.01244 0.12457 0.0
H31 H 0.25775 0.07807 0.07324 0.0
H32 H 0.32909 0.12654 0.97483 0.0
Co33 Co 0.10941 0.66495 0.82858 0.0
C34 C 0.17376 0.66894 0.86713 0.0
C35 C 0.16759 0.68041 0.7678 0.0
C36 C 0.19793 0.68349 0.78244 0.0
N37 N 0.15258 0.67115 0.8208 0.0
N38 N 0.20158 0.67627 0.84467 0.0
H39 H 0.16891 0.6626 0.91624 0.0
H40 H 0.15724 0.68468 0.72178 0.0
C41 C 0.09052 0.69698 0.71375 0.0
O42 O 0.07681 0.67151 0.69888 0.0
N43 N 0.06549 0.6599 0.83583 0.0
C44 C 0.04636 0.67987 0.86382 0.0
C45 C 0.01692 0.67208 0.84974 0.0
C46 C 0.04709 0.64041 0.8041 0.0
N47 N 0.01747 0.6475 0.81191 0.0
C48 C 0.10223 0.67841 0.96135 0.0
C49 C 0.11845 0.73904 0.9545 0.0
C50 C 0.11064 0.72639 1.01396 0.0
C51 C 0.10259 0.69573 1.01721 0.0
C52 C 0.11795 0.72086 0.89963 0.0
N53 N 0.10948 0.69105 0.90349 0.0
H54 H 0.0957 0.65481 0.96429 0.0
H55 H 0.12472 0.73068 0.85433 0.0
H56 H 0.05306 0.70018 0.88892 0.0
H57 H 0.05501 0.62283 0.77216 0.0
O58 O 0.11644 0.62601 0.87034 0.0
O59 O 0.11209 0.63284 0.76568 0.0
O60 O 0.10309 0.69994 0.76843 0.0
C61 C 0.11685 0.61437 0.81318 0.0
H62 H 0.21589 0.69084 0.7504 0.0
H63 H 0.99672 0.68476 0.86225 0.0
H64 H 0.12504 0.76266 0.95072 0.0
H65 H 0.09649 0.68534 0.06256 0.0
Co66 Co 0.66453 0.91034 0.19871 0.0
C67 C 0.66374 0.84621 0.15828 0.0
C68 C 0.68571 0.85189 0.24939 0.0
C69 C 0.68698 0.82176 0.23293 0.0
N70 N 0.67133 0.8672 0.20241 0.0
N71 N 0.67333 0.81836 0.17572 0.0
H72 H 0.65175 0.85113 0.11428 0.0
H73 H 0.69459 0.86178 0.29282 0.0
C74 C 0.71783 0.93814 0.27201 0.0
O75 O 0.71761 0.96315 0.23775 0.0
N76 N 0.65761 0.95374 0.19458 0.0
C77 C 0.65757 0.97164 0.14187 0.0
C78 C 0.65079 1.00082 0.15956 0.0
C79 C 0.65038 0.97234 0.2436 0.0
N80 N 0.64641 1.0011 0.22322 0.0
C81 C 0.67273 0.9087 0.06239 0.0
C82 C 0.73514 0.91547 0.06005 0.0
C83 C 0.71946 0.91349 1.00202 0.0
C84 C 0.68785 0.91009 1.00354 0.0
C85 C 0.71905 0.91473 0.11784 0.0
N86 N 0.68813 0.91178 0.11892 0.0
H87 H 0.64838 0.90597 0.06208 0.0
H88 H 0.73185 0.91655 0.16092 0.0
H89 H 0.66189 0.96443 0.09349 0.0
H90 H 0.64809 0.96506 0.29293 0.0
O91 O 0.62401 0.90339 0.1641 0.0
O92 O 0.6351 0.90678 0.26716 0.0
O93 O 0.70076 0.91578 0.2573 0.0
C94 C 0.61471 0.90256 0.22328 0.0
H95 H 0.6971 0.80364 0.26068 0.0
H96 H 0.64907 0.02037 0.12827 0.0
H97 H 0.75966 0.91781 0.06062 0.0
H98 H 0.67499 0.90834 0.95951 0.0
Co99 Co 0.9084 0.34351 0.83335 0.0
C100 C 0.84288 0.33231 0.85912 0.0
C101 C 0.85387 0.3251 0.76034 0.0
C102 C 0.82283 0.3224 0.76765 0.0
N103 N 0.86657 0.33105 0.81788 0.0
N104 N 0.81617 0.32702 0.82973 0.0
H105 H 0.84444 0.33893 0.9086 0.0
H106 H 0.86602 0.32452 0.71541 0.0
C107 C 0.91309 0.28477 0.76058 0.0
O108 O 0.89013 0.27368 0.79364 0.0
N109 N 0.94964 0.35643 0.8485 0.0
C110 C 0.96083 0.36762 0.90367 0.0
C111 C 0.99073 0.37574 0.89406 0.0
C112 C 0.97284 0.35754 0.80615 0.0
N113 N 0.9981 0.36936 0.83292 0.0
C114 C 0.89713 0.32989 0.96529 0.0
C115 C 0.92849 0.27582 0.97192 0.0
C116 C 0.91342 0.28649 0.02658 0.0
C117 C 0.89803 0.31405 0.02306 0.0
C118 C 0.92722 0.29262 0.91479 0.0
N119 N 0.91044 0.31866 0.91109 0.0
H120 H 0.88584 0.35153 0.96481 0.0
H121 H 0.94035 0.28489 0.87447 0.0
H122 H 0.94797 0.37029 0.94747 0.0
H123 H 0.97124 0.35024 0.75682 0.0
O124 O 0.89356 0.38107 0.87032 0.0
O125 O 0.90426 0.37435 0.76766 0.0
O126 O 0.92452 0.31045 0.77536 0.0
C127 C 0.89481 0.39229 0.81276 0.0
H128 H 0.80632 0.31878 0.73008 0.0
H129 H 1.00599 0.38545 0.92909 0.0
H130 H 0.94134 0.25491 0.97363 0.0
H131 H 0.88678 0.32331 0.06486 0.0
Co132 Co 0.35137 0.412 0.09105 0.0
C133 C 0.3402 0.34558 0.11317 0.0
C134 C 0.3482 0.35616 1.01435 0.0
C135 C 0.34479 0.32518 0.02023 0.0
N136 N 0.34471 0.36914 0.07238 0.0
N137 N 0.33996 0.31871 0.08244 0.0
H138 H 0.33796 0.34744 0.16436 0.0
H139 H 0.35347 0.36838 0.97071 0.0
C140 C 0.29347 0.40952 1.01416 0.0
O141 O 0.28526 0.38503 0.04582 0.0
N142 N 0.35904 0.45421 0.11056 0.0
C143 C 0.37043 0.46369 0.16642 0.0
C144 C 0.37546 0.49423 0.16289 0.0
C145 C 0.35757 0.47932 0.07329 0.0
N146 N 0.36629 0.50497 0.10504 0.0
C147 C 0.33718 0.39838 0.22247 0.0
C148 C 0.27912 0.42205 0.22453 0.0
C149 C 0.29099 0.4095 0.28084 0.0
C150 C 0.32051 0.39783 0.27954 0.0
C151 C 0.29682 0.42265 0.16867 0.0
N152 N 0.32511 0.40986 0.16715 0.0
H153 H 0.35996 0.38937 0.22298 0.0
H154 H 0.28781 0.43417 0.12767 0.0
H155 H 0.37628 0.44909 0.20618 0.0
H156 H 0.35185 0.47834 0.023 0.0
O157 O 0.39017 0.40145 0.12948 0.0
O158 O 0.38308 0.41293 0.02734 0.0
O159 O 0.31742 0.42412 0.03029 0.0
C160 C 0.4016 0.40454 0.07229 0.0
H161 H 0.34677 0.30858 0.98236 0.0
H162 H 0.38704 0.50627 0.20022 0.0
H163 H 0.25661 0.43195 0.22417 0.0
H164 H 0.33064 0.3884 0.32244 0.0
Co165 Co 0.40877 0.66954 0.96178 0.0
C166 C 0.34284 0.67524 0.93793 0.0
C167 C 0.35487 0.68937 0.03298 0.0
C168 C 0.32383 0.69195 0.02628 0.0
N169 N 0.3667 0.67909 0.97747 0.0
N170 N 0.31656 0.68309 0.96663 0.0
H171 H 0.34447 0.66642 0.88978 0.0
H172 H 0.36785 0.69413 0.07575 0.0
C173 C 0.44223 0.72348 0.02364 0.0
O174 O 0.46495 0.72325 0.98273 0.0
N175 N 0.45108 0.65927 0.94575 0.0
C176 C 0.46076 0.64589 0.89198 0.0
C177 C 0.4911 0.64002 0.8973 0.0
C178 C 0.47587 0.66018 0.98418 0.0
N179 N 0.50173 0.65072 0.9539 0.0
C180 C 0.40046 0.67733 0.8261 0.0
C181 C 0.41503 0.73779 0.81694 0.0
C182 C 0.41312 0.72125 0.75905 0.0
C183 C 0.40212 0.69126 0.76583 0.0
C184 C 0.41232 0.7232 0.87673 0.0
N185 N 0.40746 0.69266 0.88079 0.0
H186 H 0.39351 0.65387 0.82837 0.0
H187 H 0.41375 0.73688 0.91906 0.0
H188 H 0.44643 0.63903 0.85269 0.0
H189 H 0.47431 0.66619 0.03409 0.0
O190 O 0.39711 0.62924 0.93131 0.0
O191 O 0.40713 0.64085 0.03155 0.0
O192 O 0.41948 0.70581 1.01652 0.0
C193 C 0.3986 0.62037 0.99071 0.0
H194 H 0.30778 0.69935 0.06235 0.0
H195 H 0.50331 0.62671 0.86259 0.0
H196 H 0.41841 0.76208 0.81685 0.0
H197 H 0.39412 0.678 0.72618 0.0
Co198 Co 0.67026 0.60744 0.07301 0.0
C199 C 0.66741 0.6754 0.06723 0.0
C200 C 0.71238 0.65893 0.08498 0.0
C201 C 0.71264 0.68981 0.09189 0.0
N202 N 0.68403 0.64956 0.06995 0.0
N203 N 0.68435 0.70005 0.08156 0.0
H204 H 0.64316 0.67627 0.05992 0.0
H205 H 0.73115 0.64434 0.09646 0.0
C206 C 0.73305 0.59208 1.01087 0.0
O207 O 0.74965 0.5959 0.06227 0.0
N208 N 0.65692 0.56583 0.07719 0.0
C209 C 0.64577 0.55208 0.13003 0.0
C210 C 0.63823 0.52274 0.11502 0.0
C211 C 0.65567 0.54489 0.03028 0.0
N212 N 0.64445 0.51833 0.05255 0.0
C213 C 0.68774 0.62118 0.2005 0.0
C214 C 0.72863 0.57444 0.21857 0.0
C215 C 0.72465 0.59594 0.26727 0.0
C216 C 0.70336 0.61906 0.25834 0.0
C217 C 0.71206 0.57716 0.16153 0.0
N218 N 0.69322 0.60133 0.1518 0.0
H219 H 0.67145 0.63922 0.19414 0.0
H220 H 0.71467 0.56011 0.12483 0.0
H221 H 0.64307 0.56282 0.1762 0.0
H222 H 0.66217 0.54911 0.98101 0.0
O223 O 0.63117 0.61918 0.11015 0.0
O224 O 0.64106 0.61545 1.00687 0.0
O225 O 0.7042 0.59561 1.01166 0.0
C226 C 0.62113 0.62081 0.0515 0.0
H227 H 0.73158 0.7035 0.10805 0.0
H228 H 0.62816 0.50607 0.14688 0.0
H229 H 0.74445 0.55586 0.22457 0.0
H230 H 0.69925 0.63568 0.29547 0.0
Co231 Co 0.60651 0.34953 0.9512 0.0
C232 C 0.67286 0.34291 0.91921 0.0
C233 C 0.66279 0.33429 0.01816 0.0
C234 C 0.69344 0.32997 1.00874 0.0
N235 N 0.64972 0.34203 0.96194 0.0
N236 N 0.69951 0.3354 0.94667 0.0
H237 H 0.67086 0.34927 0.86957 0.0
H238 H 0.65085 0.33197 0.06326 0.0
C239 C 0.5776 0.30161 0.04138 0.0
O240 O 0.54979 0.30558 0.02096 0.0
N241 N 0.56327 0.35729 0.94162 0.0
C242 C 0.54776 0.35882 0.88592 0.0
C243 C 0.51825 0.36737 0.89846 0.0
C244 C 0.54311 0.36571 0.98713 0.0
N245 N 0.51554 0.37175 0.96193 0.0
C246 C 0.61723 0.33219 0.82026 0.0
C247 C 0.58472 0.27862 0.82351 0.0
C248 C 0.59813 0.28781 0.7658 0.0
C249 C 0.61476 0.31486 0.7645 0.0
C250 C 0.58839 0.29623 0.87841 0.0
N251 N 0.60498 0.32245 0.87706 0.0
H252 H 0.62807 0.35409 0.81687 0.0
H253 H 0.57636 0.28938 0.92058 0.0
H254 H 0.55728 0.35475 0.83899 0.0
H255 H 0.54859 0.36794 0.0374 0.0
O256 O 0.61497 0.38765 0.90737 0.0
O257 O 0.60966 0.38229 1.01235 0.0
O258 O 0.60013 0.31529 1.01542 0.0
C259 C 0.61528 0.40003 0.96384 0.0
H260 H 0.71004 0.32351 0.04445 0.0
H261 H 0.5003 0.37066 0.86378 0.0
H262 H 0.57103 0.25817 0.8258 0.0
H263 H 0.62482 0.32302 0.72026 0.0
Co264 Co 0.8525 0.60181 0.69568 0.0
C265 C 0.8473 0.66515 0.65165 0.0
C266 C 0.83323 0.65982 0.74979 0.0
C267 C 0.82989 0.68975 0.73272 0.0
N268 N 0.84394 0.64448 0.69885 0.0
N269 N 0.83874 0.69296 0.67121 0.0
H270 H 0.85616 0.66013 0.60446 0.0
H271 H 0.82851 0.65004 0.79633 0.0
C272 C 0.79795 0.57492 0.77024 0.0
O273 O 0.79434 0.55205 0.73075 0.0
N274 N 0.86143 0.55895 0.6927 0.0
C275 C 0.87395 0.5439 0.64305 0.0
C276 C 0.88023 0.51477 0.66187 0.0
C277 C 0.86095 0.53886 0.74167 0.0
N278 N 0.87218 0.51174 0.72371 0.0
C279 C 0.84152 0.59791 0.56046 0.0
C280 C 0.77882 0.59872 0.56415 0.0
C281 C 0.79345 0.59671 0.50478 0.0
C282 C 0.82519 0.59638 0.50327 0.0
C283 C 0.79607 0.59985 0.62038 0.0
N284 N 0.82712 0.59864 0.61862 0.0
H285 H 0.86594 0.59894 0.55737 0.0
H286 H 0.78414 0.60236 0.66453 0.0
H287 H 0.87939 0.55342 0.59687 0.0
H288 H 0.85341 0.54413 0.78967 0.0
O289 O 0.89164 0.61041 0.65547 0.0
O290 O 0.88367 0.60688 0.75991 0.0
O291 O 0.81799 0.59527 0.75901 0.0
C292 C 0.90259 0.61179 0.71317 0.0
H293 H 0.8222 0.70798 0.76333 0.0
H294 H 0.8901 0.49709 0.63264 0.0
H295 H 0.75424 0.59976 0.56694 0.0
H296 H 0.83729 0.59555 0.45804 0.0
Co297 Co 0.6068 0.16684 0.3341 0.0
C298 C 0.67353 0.17753 0.35713 0.0
C299 C 0.66165 0.17894 0.25782 0.0
C300 C 0.69259 0.18284 0.26266 0.0
N301 N 0.64943 0.17625 0.31708 0.0
N302 N 0.69985 0.18164 0.32505 0.0
H303 H 0.67262 0.17432 0.40816 0.0
H304 H 0.64908 0.17724 0.21373 0.0
C305 C 0.60641 0.22526 0.25953 0.0
O306 O 0.62976 0.23482 0.29307 0.0
N307 N 0.56466 0.15699 0.34827 0.0
C308 C 0.55173 0.14656 0.40266 0.0
C309 C 0.52152 0.14044 0.39064 0.0
C310 C 0.54237 0.15719 0.30404 0.0
N311 N 0.5159 0.147 0.32869 0.0
C312 C 0.61912 0.18296 0.46369 0.0
C313 C 0.58198 0.23294 0.47057 0.0
C314 C 0.59369 0.22117 0.52865 0.0
C315 C 0.61492 0.19746 0.52215 0.0
C316 C 0.58704 0.21793 0.41233 0.0
N317 N 0.60539 0.19306 0.40928 0.0
H318 H 0.63258 0.1626 0.46336 0.0
H319 H 0.57492 0.22567 0.37059 0.0
H320 H 0.56356 0.14317 0.44746 0.0
H321 H 0.54554 0.164 0.25461 0.0
O322 O 0.61866 0.12945 0.37615 0.0
O323 O 0.60931 0.13438 0.27229 0.0
O324 O 0.59355 0.20008 0.27329 0.0
C325 C 0.61723 0.11705 0.31994 0.0
H326 H 0.70869 0.18492 0.22358 0.0
H327 H 0.50497 0.13167 0.42444 0.0
H328 H 0.56888 0.25351 0.46839 0.0
H329 H 0.62831 0.18926 0.56178 0.0
Co330 Co 0.16814 0.40423 0.71735 0.0
C331 C 0.1648 0.33764 0.69569 0.0
C332 C 0.20556 0.35026 0.74503 0.0
C333 C 0.20722 0.32 0.73044 0.0
N334 N 0.17901 0.36156 0.72314 0.0
N335 N 0.18159 0.31211 0.69964 0.0
H336 H 0.14328 0.33894 0.67089 0.0
H337 H 0.22334 0.36303 0.76783 0.0
C338 C 0.21799 0.43752 0.79436 0.0
O339 O 0.21317 0.46411 0.76804 0.0
N340 N 0.15695 0.44654 0.70914 0.0
C341 C 0.15136 0.46083 0.65317 0.0
C342 C 0.14177 0.48984 0.66562 0.0
C343 C 0.14972 0.46682 0.75519 0.0
N344 N 0.14085 0.49355 0.72953 0.0
C345 C 0.17983 0.39225 0.58509 0.0
C346 C 0.23491 0.42215 0.57495 0.0
C347 C 0.22313 0.40759 0.52087 0.0
C348 C 0.1951 0.39269 0.52626 0.0
C349 C 0.21862 0.42163 0.63263 0.0
N350 N 0.19154 0.40654 0.6376 0.0
H351 H 0.15843 0.38034 0.58829 0.0
H352 H 0.22798 0.43362 0.67246 0.0
H353 H 0.15382 0.45087 0.60624 0.0
H354 H 0.15165 0.46245 0.80606 0.0
O355 O 0.12833 0.39378 0.68334 0.0
O356 O 0.13918 0.39924 0.78628 0.0
O357 O 0.20424 0.41377 0.77441 0.0
C358 C 0.1191 0.39316 0.74266 0.0
H359 H 0.22608 0.30497 0.74032 0.0
H360 H 0.1366 0.50722 0.63057 0.0
H361 H 0.25646 0.43405 0.57241 0.0
H362 H 0.18524 0.38126 0.4854 0.0
Co363 Co 0.40608 0.8497 0.32742 0.0
C364 C 0.33983 0.84675 0.35447 0.0
C365 C 0.35117 0.82241 0.26889 0.0
C366 C 0.32031 0.81969 0.27944 0.0
N367 N 0.3635 0.83908 0.31646 0.0
N368 N 0.31346 0.83493 0.33326 0.0
H369 H 0.3415 0.86086 0.39645 0.0
H370 H 0.36352 0.81281 0.22906 0.0
C371 C 0.4414 0.80331 0.24558 0.0
O372 O 0.46773 0.80992 0.27124 0.0
N373 N 0.44827 0.86126 0.33956 0.0
C374 C 0.46256 0.8642 0.39638 0.0
C375 C 0.49172 0.87436 0.38573 0.0
C376 C 0.46857 0.87106 0.29534 0.0
N377 N 0.49549 0.87831 0.32224 0.0
C378 C 0.39319 0.83394 0.45941 0.0
C379 C 0.42651 0.78103 0.46399 0.0
C380 C 0.4111 0.79028 0.51941 0.0
C381 C 0.39406 0.81703 0.51648 0.0
C382 C 0.42443 0.79818 0.40753 0.0
N383 N 0.40766 0.82423 0.4051 0.0
H384 H 0.38147 0.85536 0.45972 0.0
H385 H 0.43722 0.79072 0.36688 0.0
H386 H 0.45263 0.85929 0.44264 0.0
H387 H 0.46413 0.87197 0.24452 0.0
O388 O 0.3945 0.88855 0.36465 0.0
O389 O 0.40214 0.88021 0.26132 0.0
O390 O 0.41667 0.81475 0.26715 0.0
C391 C 0.39503 0.89919 0.30629 0.0
H392 H 0.30419 0.8073 0.25037 0.0
H393 H 0.50923 0.87754 0.42146 0.0
H394 H 0.44032 0.76071 0.4645 0.0
H395 H 0.38221 0.82524 0.55851 0.0
Co396 Co 0.84504 0.90334 0.57332 0.0
C397 C 0.84411 0.83558 0.56073 0.0
C398 C 0.80035 0.85369 0.58372 0.0
C399 C 0.79878 0.82276 0.58869 0.0
N400 N 0.82889 0.86209 0.56706 0.0
N401 N 0.82635 0.81146 0.57524 0.0
H402 H 0.86811 0.83374 0.55103 0.0
H403 H 0.78258 0.86875 0.59878 0.0
C404 C 0.7839 0.92115 0.50967 0.0
O405 O 0.76686 0.91672 0.5604 0.0
N406 N 0.86063 0.94411 0.58106 0.0
C407 C 0.87441 0.95523 0.63369 0.0
C408 C 0.88215 0.98499 0.62265 0.0
C409 C 0.86017 0.96717 0.53842 0.0
N410 N 0.87332 0.99227 0.56292 0.0
C411 C 0.82552 0.88944 0.69957 0.0
C412 C 0.78619 0.93759 0.7163 0.0
C413 C 0.78868 0.91562 0.76478 0.0
C414 C 0.80931 0.89184 0.75667 0.0
C415 C 0.80357 0.93471 0.6603 0.0
N416 N 0.8214 0.90977 0.65098 0.0
H417 H 0.8411 0.87078 0.69359 0.0
H418 H 0.80219 0.95211 0.62382 0.0
H419 H 0.8783 0.94254 0.67732 0.0
H420 H 0.85061 0.96568 0.49081 0.0
O421 O 0.88249 0.88874 0.61231 0.0
O422 O 0.875 0.89483 0.50829 0.0
O423 O 0.81275 0.91781 0.51119 0.0
C424 C 0.89356 0.88782 0.55437 0.0
H425 H 0.77966 0.80971 0.60658 0.0
H426 H 0.89342 1.00018 0.65565 0.0
H427 H 0.77095 0.95667 0.7217 0.0
H428 H 0.81233 0.87486 0.79373 0.0
Co429 Co 0.9066 0.16298 0.4602 0.0
C430 C 0.8425 0.17227 0.42403 0.0
C431 C 0.84991 0.18105 0.52399 0.0
C432 C 0.81946 0.18504 0.51097 0.0
N433 N 0.8642 0.17295 0.46948 0.0
N434 N 0.81505 0.17954 0.44822 0.0
H435 H 0.8464 0.1659 0.37473 0.0
H436 H 0.86075 0.18325 0.5702 0.0
C437 C 0.93935 0.21212 0.53713 0.0
O438 O 0.96466 0.20994 0.50411 0.0
N439 N 0.94933 0.15246 0.45052 0.0
C440 C 0.96421 0.14732 0.39489 0.0
C441 C 0.99339 0.13838 0.40793 0.0
C442 C 0.96971 0.14562 0.49687 0.0
N443 N 0.99679 0.1374 0.47182 0.0
C444 C 0.90413 0.17503 0.32558 0.0
C445 C 0.91316 0.23697 0.3296 0.0
C446 C 0.9102 0.22268 0.27009 0.0
C447 C 0.90538 0.19143 0.26851 0.0
C448 C 0.91192 0.2196 0.38599 0.0
N449 N 0.90838 0.18877 0.38357 0.0
H450 H 0.90029 0.15094 0.32259 0.0
H451 H 0.91327 0.23131 0.43096 0.0
H452 H 0.95482 0.14926 0.34756 0.0
H453 H 0.96507 0.14697 0.54759 0.0
O454 O 0.89564 0.12461 0.42094 0.0
O455 O 0.90217 0.13189 0.52499 0.0
O456 O 0.91572 0.19703 0.52173 0.0
C457 C 0.89551 0.1135 0.47866 0.0
H458 H 0.80185 0.19117 0.5448 0.0
H459 H 0.011 0.13333 0.37326 0.0
H460 H 0.91618 0.26131 0.33239 0.0
H461 H 0.9025 0.17976 0.22332 0.0
Co462 Co 0.16612 0.10154 0.58322 0.0
C463 C 0.16355 0.16789 0.60621 0.0
C464 C 0.19651 0.15696 0.53404 0.0
C465 C 0.19842 0.18746 0.54663 0.0
N466 N 0.17488 0.14448 0.57201 0.0
N467 N 0.17784 0.1942 0.59212 0.0
H468 H 0.14586 0.16577 0.642 0.0
H469 H 0.21073 0.145 0.50039 0.0
C470 C 0.2168 0.07027 0.50363 0.0
O471 O 0.21353 0.04308 0.52837 0.0
N472 N 0.15717 0.05891 0.5964 0.0
C473 C 0.15133 0.0465 0.65381 0.0
C474 C 0.14393 0.01666 0.64557 0.0
C475 C 0.15189 0.03651 0.55374 0.0
N476 N 0.14608 0.00933 0.58266 0.0
C477 C 0.17874 0.11555 0.71453 0.0
C478 C 0.23491 0.08792 0.72235 0.0
C479 C 0.22302 0.10206 0.7769 0.0
C480 C 0.19445 0.1158 0.77264 0.0
C481 C 0.21811 0.08764 0.66547 0.0
N482 N 0.1906 0.1018 0.66147 0.0
H483 H 0.15666 0.12605 0.71278 0.0
H484 H 0.22711 0.07537 0.62568 0.0
H485 H 0.15081 0.05867 0.69863 0.0
H486 H 0.15106 0.04073 0.50292 0.0
O487 O 0.12652 0.11107 0.61938 0.0
O488 O 0.136 0.10369 0.51624 0.0
O489 O 0.2019 0.09298 0.52466 0.0
C490 C 0.11648 0.11026 0.56083 0.0
H491 H 0.21415 0.20345 0.52506 0.0
H492 H 0.1356 1.00238 0.68385 0.0
H493 H 0.25677 0.0767 0.72411 0.0
H494 H 0.18439 0.12669 0.81399 0.0
Co495 Co 0.1034 0.84591 0.45068 0.0
C496 C 0.17044 0.84136 0.42399 0.0
C497 C 0.16036 0.84599 0.524 0.0
C498 C 0.19146 0.8446 0.51678 0.0
N499 N 0.14705 0.84375 0.46586 0.0
N500 N 0.1975 0.84168 0.454 0.0
H501 H 0.16838 0.83956 0.37283 0.0
H502 H 0.1483 0.84854 0.56879 0.0
C503 C 0.11443 0.78645 0.51594 0.0
O504 O 0.1402 0.78384 0.4846 0.0
N505 N 0.0601 0.84867 0.43752 0.0
C506 C 0.04516 0.85112 0.38139 0.0
C507 C 0.01472 0.85511 0.394 0.0
C508 C 0.03867 0.85143 0.48345 0.0
N509 N 0.01081 0.85534 0.45802 0.0
C510 C 0.11752 0.83795 0.31716 0.0
C511 C 0.0964 0.77908 0.30663 0.0
C512 C 0.10868 0.79341 0.2526 0.0
C513 C 0.11915 0.82325 0.25798 0.0
C514 C 0.09533 0.79453 0.36498 0.0
N515 N 0.10688 0.82325 0.37051 0.0
H516 H 0.12512 0.86121 0.32028 0.0
H517 H 0.08412 0.78357 0.40472 0.0
H518 H 0.05565 0.85133 0.33455 0.0
H519 H 0.04351 0.85208 0.53425 0.0
O520 O 0.10848 0.8874 0.41981 0.0
O521 O 0.10022 0.87417 0.51984 0.0
O522 O 0.09635 0.80832 0.50391 0.0
C523 C 0.10449 0.89598 0.47896 0.0
H524 H 0.20834 0.84587 0.55434 0.0
H525 H 0.99703 0.8593 0.35913 0.0
H526 H 0.08727 0.75629 0.30345 0.0
H527 H 0.12817 0.83517 0.21663 0.0
C528 C 0.285 0.09303 0.40077 0.0
C529 C 0.27144 0.09329 0.33875 0.0
C530 C 0.22431 0.07214 0.38462 0.0
C531 C 0.23678 0.07506 0.44698 0.0
N532 N 0.27797 0.08969 0.5159 0.0
N533 N 0.22842 0.08288 0.27075 0.0
C534 C 0.26695 0.08559 0.45536 0.0
C535 C 0.24116 0.08266 0.33046 0.0
N536 N 0.31515 0.09992 0.40794 0.0
N537 N 0.19639 0.0589 0.37729 0.0
H538 H 0.24072 0.08767 0.2292 0.0
H539 H 0.2054 0.0794 0.26204 0.0
H540 H 0.18309 0.05187 0.41591 0.0
H541 H 0.1871 0.0529 0.33334 0.0
H542 H 0.3272 0.09608 0.45001 0.0
H543 H 0.32905 0.10771 0.37107 0.0
H544 H 0.29789 0.10147 0.5262 0.0
H545 H 0.26628 0.08264 0.55673 0.0
C546 C 0.10944 0.73244 0.5523 0.0
C547 C 0.10634 0.76374 0.5659 0.0
C548 C 0.08843 0.75092 0.6743 0.0
C549 C 0.09565 0.72009 0.66313 0.0
N550 N 0.12033 0.6829 0.59567 0.0
N551 N 0.09827 0.80309 0.64491 0.0
C552 C 0.10813 0.71116 0.60325 0.0
C553 C 0.09716 0.77316 0.62823 0.0
N554 N 0.11265 0.72279 0.4905 0.0
N555 N 0.07254 0.75894 0.72795 0.0
H556 H 0.10549 0.82021 0.61394 0.0
H557 H 0.09492 0.81062 0.69164 0.0
H558 H 0.06538 0.74323 0.76232 0.0
H559 H 0.06393 0.78066 0.73516 0.0
H560 H 0.11204 0.69996 0.47776 0.0
H561 H 0.11243 0.73752 0.45134 0.0
H562 H 0.13237 0.67655 0.55481 0.0
H563 H 0.12161 0.66697 0.63254 0.0
C564 C 0.76992 0.90415 0.39896 0.0
C565 C 0.76903 0.92679 0.44705 0.0
C566 C 0.73458 0.95717 0.3807 0.0
C567 C 0.73729 0.93559 0.33032 0.0
N568 N 0.76288 0.89161 0.2875 0.0
N569 N 0.75584 0.97751 0.47883 0.0
C570 C 0.75655 0.91 0.33831 0.0
C571 C 0.75303 0.95417 0.43633 0.0
N572 N 0.78234 0.87641 0.41198 0.0
N573 N 0.713 0.97936 0.37768 0.0
H574 H 0.76909 0.976 0.52012 0.0
H575 H 0.74738 0.99919 0.47015 0.0
H576 H 0.69803 0.98171 0.33951 0.0
H577 H 0.70788 0.99362 0.41587 0.0
H578 H 0.78013 0.85777 0.38181 0.0
H579 H 0.79263 0.87109 0.45541 0.0
H580 H 0.77944 0.87477 0.28861 0.0
H581 H 0.75385 0.89501 0.24217 0.0
C582 C 0.93052 0.23587 0.71178 0.0
C583 C 0.92516 0.2674 0.7047 0.0
C584 C 0.93777 0.26338 0.58982 0.0
C585 C 0.93782 0.23135 0.59545 0.0
N586 N 0.93227 0.18657 0.66153 0.0
N587 N 0.92116 0.31112 0.63425 0.0
C588 C 0.93371 0.21746 0.65641 0.0
C589 C 0.92861 0.28132 0.64321 0.0
N590 N 0.93374 0.22366 0.77166 0.0
N591 N 0.94599 0.27675 0.53318 0.0
H592 H 0.91451 0.32559 0.67082 0.0
H593 H 0.91926 0.32116 0.58924 0.0
H594 H 0.95145 0.26445 0.49221 0.0
H595 H 0.9499 0.29995 0.52824 0.0
H596 H 0.94066 0.20141 0.77988 0.0
H597 H 0.93282 0.23667 0.81324 0.0
H598 H 0.92536 0.17536 0.70309 0.0
H599 H 0.93609 0.17208 0.6231 0.0
C600 C 0.25896 0.44623 0.95539 0.0
C601 C 0.27603 0.41889 0.95608 0.0
C602 C 0.26224 0.4107 0.84368 0.0
C603 C 0.24046 0.43417 0.84728 0.0
N604 N 0.21541 0.47242 0.91121 0.0
N605 N 0.28989 0.37246 0.90156 0.0
C606 C 0.23826 0.45175 0.90414 0.0
C607 C 0.27651 0.40034 0.90046 0.0
N608 N 0.26224 0.4669 1.00344 0.0
N609 N 0.2702 0.39896 0.78559 0.0
H610 H 0.30012 0.36345 0.94205 0.0
H611 H 0.28804 0.35706 0.86398 0.0
H612 H 0.2611 0.40696 0.7427 0.0
H613 H 0.28809 0.38375 0.77963 0.0
H614 H 0.25264 0.48847 1.00176 0.0
H615 H 0.2769 0.4637 0.04189 0.0
H616 H 0.21083 0.48329 0.9544 0.0
H617 H 0.19927 0.47681 0.876 0.0
C618 C 0.4496 0.79468 0.1275 0.0
C619 C 0.44066 0.78315 0.18843 0.0
C620 C 0.4365 0.73216 0.14248 0.0
C621 C 0.44258 0.74415 0.08026 0.0
N622 N 0.4489 0.78812 1.01229 0.0
N623 N 0.42012 0.74203 0.2514 0.0
C624 C 0.44765 0.77577 0.07239 0.0
C625 C 0.4323 0.75225 0.19505 0.0
N626 N 0.46005 0.82378 0.1221 0.0
N627 N 0.43638 0.70148 0.1523 0.0
H628 H 0.41716 0.75591 0.29122 0.0
H629 H 0.41046 0.72058 0.25677 0.0
H630 H 0.44067 0.68585 0.11611 0.0
H631 H 0.43524 0.69156 0.19758 0.0
H632 H 0.47048 0.83226 0.08091 0.0
H633 H 0.46017 0.83892 0.16024 0.0
H634 H 0.44913 0.81139 1.0036 0.0
H635 H 0.44673 0.77536 0.97064 0.0
C636 C 0.75929 0.55769 0.93203 0.0
C637 C 0.7484 0.58691 0.9483 0.0
C638 C 0.76459 0.6062 0.8432 0.0
C639 C 0.77871 0.5779 0.82933 0.0
N640 N 0.7929 0.52768 0.86568 0.0
N641 N 0.74436 0.64014 0.92345 0.0
C642 C 0.77674 0.55376 0.87485 0.0
C643 C 0.75202 0.61144 0.90494 0.0
N644 N 0.75257 0.53356 0.97086 0.0
N645 N 0.76201 0.62787 0.79662 0.0
H646 H 0.7344 0.64493 0.96751 0.0
H647 H 0.75019 0.65952 0.8975 0.0
H648 H 0.77051 0.62525 0.75063 0.0
H649 H 0.74881 0.6473 0.80152 0.0
H650 H 0.7566 0.51111 0.95811 0.0
H651 H 0.7407 0.53584 1.0139 0.0
H652 H 0.79531 0.51098 0.90067 0.0
H653 H 0.80603 0.52352 0.82516 0.0
C654 C 0.59696 0.23169 0.14097 0.0
C655 C 0.59551 0.24369 0.20417 0.0
C656 C 0.57774 0.29236 0.16007 0.0
C657 C 0.58311 0.28142 0.09716 0.0
N658 N 0.60233 0.24233 0.02769 0.0
N659 N 0.58533 0.28588 0.27439 0.0
C660 C 0.59395 0.25156 0.08761 0.0
C661 C 0.58611 0.27419 0.21382 0.0
N662 N 0.60074 0.20128 0.13129 0.0
N663 N 0.56435 0.32004 0.16841 0.0
H664 H 0.58871 0.27276 0.31536 0.0
H665 H 0.58268 0.30885 0.28416 0.0
H666 H 0.559 0.33446 0.13043 0.0
H667 H 0.5566 0.32794 0.21242 0.0
H668 H 0.59849 0.19109 0.08662 0.0
H669 H 0.603 0.18552 0.168 0.0
H670 H 0.614 0.22224 0.01888 0.0
H671 H 0.60008 0.25594 0.9872 0.0
C672 C 0.36399 0.27171 0.12272 0.0
C673 C 0.33742 0.28901 0.11122 0.0
C674 C 0.30591 0.24788 0.15544 0.0
C675 C 0.33261 0.23155 0.17085 0.0
N676 N 0.38704 0.22892 0.17766 0.0
N677 N 0.28341 0.29539 0.11976 0.0
C678 C 0.36169 0.24371 0.15655 0.0
C679 C 0.30842 0.27758 0.12866 0.0
N680 N 0.39134 0.28203 0.10047 0.0
N681 N 0.27826 0.2344 0.16478 0.0
H682 H 0.28461 0.31661 0.09761 0.0
H683 H 0.26183 0.28998 0.13691 0.0
H684 H 0.27604 0.21267 0.18425 0.0
H685 H 0.25776 0.24366 0.14967 0.0
H686 H 0.41126 0.26935 0.10134 0.0
H687 H 0.39369 0.30274 0.07685 0.0
H688 H 0.40893 0.23785 0.17479 0.0
H689 H 0.38595 0.20844 0.20263 0.0
C690 C 0.24434 0.65101 0.89924 0.0
C691 C 0.22944 0.67798 0.88019 0.0
C692 C 0.27235 0.70837 0.91807 0.0
C693 C 0.28665 0.68152 0.93951 0.0
N694 N 0.2844 0.62826 0.963 0.0
N695 N 0.22569 0.73229 0.8824 0.0
C696 C 0.27203 0.65306 0.9338 0.0
C697 C 0.24243 0.70672 0.89293 0.0
N698 N 0.23254 0.62356 0.88202 0.0
N699 N 0.28789 0.7352 0.91995 0.0
H700 H 0.20346 0.73149 0.8651 0.0
H701 H 0.23269 0.7539 0.89595 0.0
H702 H 0.30986 0.73691 0.93831 0.0
H703 H 0.27998 0.75519 0.89927 0.0
H704 H 0.24385 0.60308 0.8887 0.0
H705 H 0.21225 0.6215 0.85671 0.0
H706 H 0.27361 0.60725 0.96568 0.0
H707 H 0.30446 0.62952 0.98945 0.0
C708 C 0.65251 0.76679 0.17092 0.0
C709 C 0.66985 0.79015 0.14208 0.0
C710 C 0.68698 0.75468 0.05975 0.0
C711 C 0.67452 0.73042 0.09582 0.0
N712 N 0.64749 0.71295 0.18984 0.0
N713 N 0.70484 0.80676 0.06028 0.0
C714 C 0.65725 0.73631 0.15191 0.0
C715 C 0.687 0.78441 0.08591 0.0
N716 N 0.63177 0.77399 0.2171 0.0
N717 N 0.69921 0.74888 1.00094 0.0
H718 H 0.70567 0.82865 0.07886 0.0
H719 H 0.72034 0.80313 0.02333 0.0
H720 H 0.6993 0.7271 0.98146 0.0
H721 H 0.7066 0.76577 0.96953 0.0
H722 H 0.6164 0.75841 0.23638 0.0
H723 H 0.62802 0.79634 0.23122 0.0
H724 H 0.63776 0.71607 0.23485 0.0
H725 H 0.65125 0.69027 0.17895 0.0
C726 C 0.76827 0.30286 0.86495 0.0
C727 C 0.78636 0.32929 0.85784 0.0
C728 C 0.74761 0.35934 0.91308 0.0
C729 C 0.72869 0.33342 0.91599 0.0
N730 N 0.71857 0.28149 0.88926 0.0
N731 N 0.79174 0.38348 0.86515 0.0
C732 C 0.73832 0.30543 0.8901 0.0
C733 C 0.7756 0.35781 0.87923 0.0
N734 N 0.78036 0.27526 0.85007 0.0
N735 N 0.739 0.38511 0.94423 0.0
H736 H 0.81214 0.38303 0.83974 0.0
H737 H 0.7838 0.40531 0.87384 0.0
H738 H 0.71854 0.38661 0.96938 0.0
H739 H 0.75296 0.40404 0.9494 0.0
H740 H 0.76956 0.25471 0.85963 0.0
H741 H 0.80243 0.27282 0.83244 0.0
H742 H 0.72291 0.26121 0.86559 0.0
H743 H 0.69677 0.28274 0.90892 0.0
C744 C 0.85398 0.77488 0.64413 0.0
C745 C 0.83544 0.78088 0.59002 0.0
C746 C 0.82192 0.72704 0.58357 0.0
C747 C 0.84093 0.7212 0.63687 0.0
N748 N 0.88206 0.73718 0.70419 0.0
N749 N 0.80766 0.76244 0.49941 0.0
C750 C 0.85947 0.74441 0.66218 0.0
C751 C 0.82155 0.75669 0.55653 0.0
N752 N 0.8641 0.79803 0.68177 0.0
N753 N 0.80286 0.70493 0.56163 0.0
H754 H 0.80726 0.78415 0.47927 0.0
H755 H 0.79912 0.74552 0.46973 0.0
H756 H 0.80217 0.68318 0.58126 0.0
H757 H 0.78626 0.70872 0.52705 0.0
H758 H 0.87505 0.79456 0.72536 0.0
H759 H 0.859 0.82066 0.67298 0.0
H760 H 0.8981 0.75284 0.72014 0.0
H761 H 0.88654 0.71481 0.71758 0.0
C762 C 0.77427 0.1533 0.38884 0.0
C763 C 0.78658 0.18038 0.41443 0.0
C764 C 0.74132 0.20842 0.38054 0.0
C765 C 0.72986 0.18167 0.35212 0.0
N766 N 0.73775 0.13042 0.31697 0.0
N767 N 0.78517 0.23464 0.42428 0.0
C768 C 0.74714 0.15465 0.35234 0.0
C769 C 0.77099 0.20827 0.40744 0.0
N770 N 0.78771 0.12613 0.4022 0.0
N771 N 0.72363 0.23381 0.38193 0.0
H772 H 0.80726 0.23514 0.44232 0.0
H773 H 0.77623 0.25607 0.4153 0.0
H774 H 0.70237 0.23476 0.3599 0.0
H775 H 0.72917 0.25321 0.40772 0.0
H776 H 0.77808 0.10526 0.39065 0.0
H777 H 0.80724 0.12432 0.43003 0.0
H778 H 0.7509 0.1111 0.30987 0.0
H779 H 0.71779 0.13066 0.29021 0.0
C780 C 0.1719 0.27862 0.60637 0.0
C781 C 0.17517 0.28258 0.67345 0.0
C782 C 0.17847 0.22754 0.68781 0.0
C783 C 0.17383 0.22353 0.62121 0.0
N784 N 0.15729 0.24454 0.52088 0.0
N785 N 0.1755 0.25973 0.77914 0.0
C786 C 0.16763 0.24893 0.58173 0.0
C787 C 0.17611 0.25684 0.71429 0.0
N788 N 0.17523 0.30272 0.56573 0.0
N789 N 0.18628 0.2037 0.72619 0.0
H790 H 0.17262 0.28041 0.80259 0.0
H791 H 0.17262 0.28041 0.80259 0.0
H792 H 0.19103 0.18216 0.7086 0.0
H793 H 0.18987 0.20615 0.77533 0.0
H794 H 0.17603 0.30048 0.51609 0.0
H795 H 0.18032 0.32452 0.58142 0.0
H796 H 0.14985 0.26218 0.49156 0.0
H797 H 0.15309 0.22293 0.50256 0.0
C798 C 0.27272 0.81118 0.39772 0.0
C799 C 0.28422 0.83672 0.36415 0.0
C800 C 0.23947 0.86629 0.39519 0.0
C801 C 0.22697 0.84008 0.42438 0.0
N802 N 0.22904 0.78679 0.4476 0.0
N803 N 0.27775 0.8873 0.32374 0.0
C804 C 0.2429 0.81225 0.42408 0.0
C805 C 0.26737 0.86401 0.36108 0.0
N806 N 0.29082 0.78635 0.40601 0.0
N807 N 0.22483 0.8934 0.40155 0.0
H808 H 0.298 0.88585 0.29808 0.0
H809 H 0.26543 0.90693 0.31434 0.0
H810 H 0.20423 0.89547 0.42604 0.0
H811 H 0.23397 0.91407 0.38678 0.0
H812 H 0.28503 0.76798 0.43503 0.0
H813 H 0.31286 0.78519 0.38761 0.0
H814 H 0.23805 0.76508 0.44326 0.0
H815 H 0.20729 0.78718 0.46764 0.0
C816 C 0.26596 0.0746 0.92521 0.0
C817 C 0.27267 0.10252 0.95591 0.0
C818 C 0.24982 0.13009 0.86573 0.0
C819 C 0.24018 0.10218 0.83861 0.0
N820 N 0.23344 0.04807 0.85049 0.0
N821 N 0.26499 0.15664 0.96187 0.0
C822 C 0.24664 0.07445 0.87063 0.0
C823 C 0.26285 0.13024 0.92803 0.0
N824 N 0.27895 0.04832 0.94651 0.0
N825 N 0.24763 0.15636 0.83113 0.0
H826 H 0.27366 0.15763 1.00828 0.0
H827 H 0.25537 0.17696 0.94647 0.0
H828 H 0.23902 0.15716 0.78466 0.0
H829 H 0.25712 0.17682 0.84604 0.0
H830 H 0.27735 0.02788 0.92185 0.0
H831 H 0.29379 0.0475 0.98536 0.0
H832 H 0.23491 0.02778 0.87599 0.0
H833 H 0.21848 0.04707 0.81185 0.0
C834 C 0.13631 0.76145 0.17171 0.0
C835 C 0.10968 0.7774 0.18996 0.0
C836 C 0.08363 0.75992 0.09285 0.0
C837 C 0.1107 0.7451 0.07318 0.0
N838 N 0.16402 0.73499 0.08807 0.0
N839 N 0.05958 0.79585 0.1648 0.0
C840 C 0.13744 0.74687 0.11093 0.0
C841 C 0.08378 0.77781 0.14954 0.0
N842 N 0.16016 0.75949 0.21345 0.0
N843 N 0.05756 0.75617 0.05812 0.0
H844 H 0.05863 0.80874 0.20657 0.0
H845 H 0.04137 0.79985 0.13419 0.0
H846 H 0.05683 0.74418 1.01515 0.0
H847 H 0.03623 0.76326 0.07359 0.0
H848 H 0.17884 0.74543 0.20652 0.0
H849 H 0.16043 0.77048 0.25762 0.0
H850 H 0.18506 0.73829 0.10967 0.0
H851 H 0.1655 0.72351 0.04455 0.0
C852 C 0.75283 0.94124 0.92266 0.0
C853 C 0.73616 0.91478 0.93986 0.0
C854 C 0.74911 0.89211 0.8364 0.0
C855 C 0.76934 0.91654 0.82348 0.0
N856 N 0.79445 0.96202 0.8603 0.0
N857 N 0.72348 0.86249 0.91793 0.0
C858 C 0.77227 0.94057 0.86816 0.0
C859 C 0.73562 0.88949 0.898 0.0
N860 N 0.74943 0.9673 0.95717 0.0
N861 N 0.74211 0.87183 0.78928 0.0
H862 H 0.71424 0.85923 0.96349 0.0
H863 H 0.72535 0.84253 0.89163 0.0
H864 H 0.75077 0.87352 0.74283 0.0
H865 H 0.7253 0.8553 0.79442 0.0
H866 H 0.75875 0.98801 0.94297 0.0
H867 H 0.73481 0.96895 0.9964 0.0
H868 H 0.79959 0.97815 0.89502 0.0
H869 H 0.80965 0.962 0.82189 0.0
C870 C 0.88412 0.24384 0.173 0.0
C871 C 0.91121 0.24012 0.20893 0.0
C872 C 0.93985 0.26803 0.12651 0.0
C873 C 0.91333 0.26917 0.08794 0.0
N874 N 0.86157 0.25345 0.06914 0.0
N875 N 0.9658 0.2442 0.21577 0.0
C876 C 0.88582 0.25571 0.10971 0.0
C877 C 0.93938 0.251 0.18458 0.0
N878 N 0.85665 0.23685 0.20012 0.0
N879 N 0.96516 0.2841 0.10886 0.0
H880 H 0.96639 0.23199 0.25863 0.0
H881 H 0.98727 0.24853 0.19665 0.0
H882 H 0.96644 0.29675 0.06664 0.0
H883 H 0.98398 0.2869 0.13844 0.0
H884 H 0.83589 0.24204 0.1789 0.0
H885 H 0.85448 0.22838 0.24664 0.0
H886 H 0.842 0.24108 0.07992 0.0
H887 H 0.86206 0.26155 0.02214 0.0
C888 C 0.24525 0.43597 0.42631 0.0
C889 C 0.24005 0.40804 0.45871 0.0
C890 C 0.26444 0.38093 0.36984 0.0
C891 C 0.27291 0.40906 0.34154 0.0
N892 N 0.27646 0.46356 0.35017 0.0
N893 N 0.25 0.35433 0.46696 0.0
C894 C 0.2647 0.43668 0.37179 0.0
C895 C 0.25111 0.38058 0.43201 0.0
N896 N 0.23077 0.46168 0.4462 0.0
N897 N 0.26821 0.35456 0.33652 0.0
H898 H 0.24112 0.35319 0.51326 0.0
H899 H 0.26057 0.33436 0.4525 0.0
H900 H 0.27726 0.3539 0.29033 0.0
H901 H 0.25961 0.33377 0.35212 0.0
H902 H 0.2313 0.48195 0.42043 0.0
H903 H 0.21576 0.462 0.48494 0.0
H904 H 0.27375 0.48398 0.3745 0.0
H905 H 0.2914 0.46507 0.31143 0.0
C906 C 0.43036 0.78356 0.63348 0.0
C907 C 0.41375 0.77214 0.5802 0.0
C908 C 0.41041 0.72297 0.6348 0.0
C909 C 0.4194 0.73635 0.69367 0.0
N910 N 0.45757 0.77119 0.73097 0.0
N911 N 0.3854 0.7307 0.5336 0.0
C912 C 0.43488 0.7647 0.68859 0.0
C913 C 0.4029 0.74183 0.58206 0.0
N914 N 0.44208 0.81227 0.63152 0.0
N915 N 0.41537 0.69292 0.6242 0.0
H916 H 0.3787 0.7438 0.49441 0.0
H917 H 0.37537 0.70924 0.536 0.0
H918 H 0.42895 0.68012 0.655 0.0
H919 H 0.41117 0.68262 0.58017 0.0
H920 H 0.45076 0.82322 0.67168 0.0
H921 H 0.44178 0.8258 0.59051 0.0
H922 H 0.47177 0.79003 0.7272 0.0
H923 H 0.46501 0.7553 0.76458 0.0
C924 C 0.7638 0.61912 0.33987 0.0
C925 C 0.74311 0.59512 0.32712 0.0
C926 C 0.75774 0.57052 0.42812 0.0
C927 C 0.77573 0.59621 0.44397 0.0
N928 N 0.79102 0.64767 0.42041 0.0
N929 N 0.71638 0.55052 0.36426 0.0
C930 C 0.77741 0.6213 0.40134 0.0
C931 C 0.73899 0.57144 0.37264 0.0
N932 N 0.77122 0.63935 0.29254 0.0
N933 N 0.75927 0.54488 0.46493 0.0
H934 H 0.70196 0.5506 0.32468 0.0
H935 H 0.71019 0.53475 0.39919 0.0
H936 H 0.77287 0.54324 0.50564 0.0
H937 H 0.7492 0.52441 0.45194 0.0
H938 H 0.78844 0.65544 0.29717 0.0
H939 H 0.76229 0.63814 0.24636 0.0
H940 H 0.79005 0.66771 0.39395 0.0
H941 H 0.80076 0.65041 0.46554 0.0
C942 C 0.57436 0.27995 0.65686 0.0
C943 C 0.59365 0.26941 0.70683 0.0
C944 C 0.59812 0.22096 0.65125 0.0
C945 C 0.58642 0.23438 0.59462 0.0
N946 N 0.54249 0.26432 0.5689 0.0
N947 N 0.62492 0.22922 0.75015 0.0
C948 C 0.56856 0.26083 0.60333 0.0
C949 C 0.60565 0.23962 0.70389 0.0
N950 N 0.56113 0.30787 0.66068 0.0
N951 N 0.59755 0.19021 0.65849 0.0
H952 H 0.6318 0.24237 0.78898 0.0
H953 H 0.63612 0.20847 0.74634 0.0
H954 H 0.58735 0.17619 0.62445 0.0
H955 H 0.60324 0.17939 0.70129 0.0
H956 H 0.5499 0.31789 0.62216 0.0
H957 H 0.56268 0.32164 0.70106 0.0
H958 H 0.52704 0.28181 0.57656 0.0
H959 H 0.53397 0.24679 0.54058 0.0
C960 C 0.40001 0.98573 0.29231 0.0
C961 C 0.37649 0.99129 0.24758 0.0
C962 C 0.36237 0.93733 0.24914 0.0
C963 C 0.38736 0.93127 0.29044 0.0
N964 N 0.43133 0.94887 0.34841 0.0
N965 N 0.33459 0.97401 0.18432 0.0
C966 C 0.40628 0.95534 0.31217 0.0
C967 C 0.35735 0.96748 0.22663 0.0
N968 N 0.41652 0.00967 0.31495 0.0
N969 N 0.34323 0.91421 0.23235 0.0
H970 H 0.32924 0.99618 0.17093 0.0
H971 H 0.32127 0.95791 0.16128 0.0
H972 H 0.34625 0.89193 0.24767 0.0
H973 H 0.3234 0.91689 0.20602 0.0
H974 H 0.43211 0.00816 0.35219 0.0
H975 H 0.41337 0.03181 0.29859 0.0
H976 H 0.44796 0.96463 0.36045 0.0
H977 H 0.43667 0.92703 0.36382 0.0
C978 C 0.9478 0.64718 0.70943 0.0
C979 C 0.93507 0.6186 0.72627 0.0
C980 C 0.97954 0.60719 0.79267 0.0
C981 C 0.99187 0.63586 0.7769 0.0
N982 N 0.99277 0.67925 0.70722 0.0
N983 N 0.94321 0.56794 0.76553 0.0
C984 C 0.97756 0.65457 0.73079 0.0
C985 C 0.95236 0.59748 0.76228 0.0
N986 N 0.93101 0.66788 0.67607 0.0
N987 N 0.99307 0.58991 0.83883 0.0
H988 H 0.92418 0.56009 0.74091 0.0
H989 H 0.95621 0.55082 0.78626 0.0
H990 H 0.0131 0.5965 0.86155 0.0
H991 H 0.98338 0.57019 0.85752 0.0
H992 H 0.93763 0.69036 0.66939 0.0
H993 H 0.90951 0.66313 0.65804 0.0
H994 H 0.98491 0.6924 0.66923 0.0
H995 H 0.01477 0.68478 0.72174 0.0
C996 C 0.60792 0.03553 0.2676 0.0
C997 C 0.63881 0.02731 0.26048 0.0
C998 C 0.65482 0.07465 0.3112 0.0
C999 C 0.62428 0.08463 0.30992 0.0
N1000 N 0.57125 0.07176 0.30857 0.0
N1001 N 0.69191 0.03877 0.27144 0.0
C1002 C 0.60057 0.06418 0.29445 0.0
C1003 C 0.66234 0.04653 0.28245 0.0
N1004 N 0.58589 0.01642 0.24538 0.0
N1005 N 0.67645 0.09166 0.34118 0.0
H1006 H 0.69796 0.01833 0.25006 0.0
H1007 H 0.71023 0.05327 0.27934 0.0
H1008 H 0.67179 0.11256 0.36205 0.0
H1009 H 0.6982 0.08367 0.35102 0.0
H1010 H 0.56298 0.02201 0.24232 0.0
H1011 H 0.59095 0.99503 0.22722 0.0
H1012 H 0.55282 0.05715 0.30351 0.0
H1013 H 0.56575 0.09205 0.33122 0.0
C1014 C 0.06317 0.40523 0.74262 0.0
C1015 C 0.08727 0.38551 0.76054 0.0
C1016 C 0.05147 0.35366 0.82158 0.0
C1017 C 0.02759 0.37342 0.80403 0.0
N1018 N 0.00883 0.41574 0.74359 0.0
N1019 N 0.10439 0.33915 0.81048 0.0
C1020 C 0.0329 0.39841 0.76273 0.0
C1021 C 0.08141 0.3592 0.79828 0.0
N1022 N 0.06953 0.43134 0.70956 0.0
N1023 N 0.04529 0.32986 0.86171 0.0
H1024 H 0.12678 0.34289 0.79641 0.0
H1025 H 0.10133 0.31798 0.83162 0.0
H1026 H 0.0232 0.32407 0.87549 0.0
H1027 H 0.06174 0.31636 0.88318 0.0
H1028 H 0.05378 0.44834 0.70042 0.0
H1029 H 0.09131 0.43709 0.69398 0.0
H1030 H 0.01011 0.43251 0.70856 0.0
H1031 H 0.9868 0.41224 0.76065 0.0
C1032 C 0.36345 0.57353 0.99177 0.0
C1033 C 0.39011 0.58912 1.01343 0.0
C1034 C 0.39078 0.55638 0.1072 0.0
C1035 C 0.36966 0.53599 0.0796 0.0
N1036 N 0.32882 0.53064 1.00393 0.0
N1037 N 0.43364 0.58819 0.08423 0.0
C1038 C 0.35418 0.54589 0.02331 0.0
C1039 C 0.40546 0.57783 0.06795 0.0
N1040 N 0.34582 0.58589 0.94462 0.0
N1041 N 0.39255 0.55976 0.17182 0.0
H1042 H 0.44626 0.60265 0.05465 0.0
H1043 H 0.44541 0.57943 0.12351 0.0
H1044 H 0.3751 0.55202 0.20165 0.0
H1045 H 0.40712 0.57549 0.19311 0.0
H1046 H 0.32505 0.57702 0.93005 0.0
H1047 H 0.35063 0.60631 0.92185 0.0
H1048 H 0.3191 0.53291 0.95878 0.0
H1049 H 0.31701 0.51606 0.03463 0.0
C1050 C 0.578 0.61646 0.97527 0.0
C1051 C 0.58898 0.62853 0.03356 0.0
C1052 C 0.54294 0.66091 0.03739 0.0
C1053 C 0.53321 0.64852 0.9776 0.0
N1054 N 0.5572 0.63488 0.87764 0.0
N1055 N 0.58341 0.66685 0.11594 0.0
C1056 C 0.55499 0.63191 0.94241 0.0
C1057 C 0.5717 0.65185 0.06432 0.0
N1058 N 0.58966 0.59049 0.9499 0.0
N1059 N 0.52664 0.68368 0.0647 0.0
H1060 H 0.60395 0.66143 0.13739 0.0
H1061 H 0.57361 0.68597 0.13632 0.0
H1062 H 0.51256 0.69756 0.03738 0.0
H1063 H 0.52845 0.68993 0.11259 0.0
H1064 H 0.58112 0.58118 0.90764 0.0
H1065 H 0.60486 0.57673 0.97481 0.0
H1066 H 0.57418 0.62407 0.85122 0.0
H1067 H 0.54555 0.65192 0.85309 0.0
C1068 C 0.60614 0.48269 1.01275 0.0
C1069 C 0.63694 0.49142 1.01716 0.0
C1070 C 0.65214 0.44379 0.96638 0.0
C1071 C 0.62194 0.43279 0.97348 0.0
N1072 N 0.56985 0.44182 1.0038 0.0
N1073 N 0.68989 0.48014 1.00236 0.0
C1074 C 0.59878 0.45237 0.99639 0.0
C1075 C 0.66016 0.47216 0.99407 0.0
N1076 N 0.584 0.50375 0.02346 0.0
N1077 N 0.67315 0.42719 0.9336 0.0
H1078 H 0.69633 0.5006 0.02324 0.0
H1079 H 0.70801 0.46564 0.99305 0.0
H1080 H 0.66816 0.40625 0.91325 0.0
H1081 H 0.69459 0.43548 0.9214 0.0
H1082 H 0.56097 0.49975 1.01558 0.0
H1083 H 0.58908 0.5263 0.03427 0.0
H1084 H 0.55288 0.45352 0.02823 0.0
H1085 H 0.5633 0.4206 0.98757 0.0
C1086 C 0.44553 0.36828 0.06557 0.0
C1087 C 0.43387 0.398 0.05665 0.0
C1088 C 0.47896 0.41161 0.99276 0.0
C1089 C 0.48852 0.38099 0.99558 0.0
N1090 N 0.47881 0.3292 0.02451 0.0
N1091 N 0.44016 0.44907 1.01749 0.0
C1092 C 0.47149 0.35915 0.03008 0.0
C1093 C 0.45098 0.42008 0.02219 0.0
N1094 N 0.43184 0.34858 0.10729 0.0
N1095 N 0.49677 0.43237 0.96157 0.0
H1096 H 0.42138 0.45656 0.04358 0.0
H1097 H 0.44938 0.46575 0.98796 0.0
H1098 H 0.51638 0.42627 0.93671 0.0
H1099 H 0.49302 0.45564 0.9617 0.0
H1100 H 0.4417 0.32818 0.12143 0.0
H1101 H 0.41199 0.35343 0.13231 0.0
H1102 H 0.46549 0.31161 0.04273 0.0
H1103 H 0.49657 0.32179 0.99548 0.0
C1104 C 0.90322 0.44852 0.82363 0.0
C1105 C 0.88571 0.42404 0.79887 0.0
C1106 C 0.85374 0.45997 0.73963 0.0
C1107 C 0.87309 0.48373 0.75899 0.0
N1108 N 0.91063 0.50309 0.83112 0.0
N1109 N 0.84417 0.40602 0.73375 0.0
C1110 C 0.89604 0.47875 0.80502 0.0
C1111 C 0.86066 0.4297 0.75755 0.0
N1112 N 0.92794 0.44269 0.86124 0.0
N1113 N 0.82831 0.46691 0.70509 0.0
H1114 H 0.84744 0.38383 0.74872 0.0
H1115 H 0.82799 0.40798 0.69775 0.0
H1116 H 0.82278 0.48921 0.69301 0.0
H1117 H 0.81145 0.45138 0.69309 0.0
H1118 H 0.94382 0.45892 0.87486 0.0
H1119 H 0.93374 0.42101 0.87645 0.0
H1120 H 0.92607 0.50174 0.86866 0.0
H1121 H 0.90516 0.52529 0.81888 0.0
C1122 C 0.48229 0.12058 0.25185 0.0
C1123 C 0.48709 0.14418 0.29657 0.0
C1124 C 0.43318 0.15761 0.2925 0.0
C1125 C 0.42804 0.13357 0.24843 0.0
N1126 N 0.44858 0.09589 0.17654 0.0
N1127 N 0.46979 0.18939 0.3481 0.0
C1128 C 0.45293 0.11637 0.22467 0.0
C1129 C 0.46324 0.16398 0.31343 0.0
N1130 N 0.50558 0.10128 0.23788 0.0
N1131 N 0.40924 0.17418 0.31486 0.0
H1132 H 0.49182 0.1946 0.36301 0.0
H1133 H 0.45423 0.20657 0.3574 0.0
H1134 H 0.38744 0.17212 0.29637 0.0
H1135 H 0.41066 0.18923 0.35303 0.0
H1136 H 0.50301 0.08114 0.21262 0.0
H1137 H 0.52754 0.10469 0.25469 0.0
H1138 H 0.4662 0.08513 0.15235 0.0
H1139 H 0.4274 0.09108 0.15709 0.0
C1140 C 0.10856 0.5289 0.79137 0.0
C1141 C 0.1366 0.52215 0.76132 0.0
C1142 C 0.15289 0.57498 0.77162 0.0
C1143 C 0.12472 0.58207 0.80148 0.0
N1144 N 0.07804 0.56516 0.85093 0.0
N1145 N 0.1878 0.53621 0.73497 0.0
C1146 C 0.10333 0.55873 0.81536 0.0
C1147 C 0.15951 0.54448 0.75551 0.0
N1148 N 0.08653 0.50706 0.79402 0.0
N1149 N 0.17306 0.59755 0.75696 0.0
H1150 H 0.19297 0.5141 0.7214 0.0
H1151 H 0.20672 0.55043 0.73617 0.0
H1152 H 0.17013 0.61974 0.77193 0.0
H1153 H 0.192 0.59468 0.72763 0.0
H1154 H 0.0643 0.511 0.80889 0.0
H1155 H 0.09024 0.48502 0.77783 0.0
H1156 H 0.06278 0.54879 0.86723 0.0
H1157 H 0.07341 0.58681 0.86827 0.0
C1158 C 0.57692 0.86739 0.27449 0.0
C1159 C 0.58291 0.89489 0.24106 0.0
C1160 C 0.53002 0.91089 0.25793 0.0
C1161 C 0.52412 0.88319 0.29013 0.0
N1162 N 0.53917 0.83224 0.31557 0.0
N1163 N 0.5642 0.9404 0.19047 0.0
C1164 C 0.5468 0.86059 0.29427 0.0
C1165 C 0.55905 0.91581 0.229 0.0
N1166 N 0.60011 0.84793 0.28853 0.0
N1167 N 0.50831 0.93297 0.25794 0.0
H1168 H 0.58538 0.94519 0.17025 0.0
H1169 H 0.54711 0.95494 0.17491 0.0
H1170 H 0.48695 0.92977 0.27871 0.0
H1171 H 0.51202 0.95497 0.24143 0.0
H1172 H 0.59796 0.82972 0.32012 0.0
H1173 H 0.62213 0.85085 0.27138 0.0
H1174 H 0.55371 0.81367 0.3132 0.0
H1175 H 0.51723 0.82654 0.33027 0.0
C1176 C 0.85967 0.0736 0.51996 0.0
C1177 C 0.8881 0.08134 0.49175 0.0
C1178 C 0.90595 0.02929 0.50665 0.0
C1179 C 0.87732 0.02139 0.53302 0.0
N1180 N 0.82537 0.03373 0.55613 0.0
N1181 N 0.93605 0.06571 0.44652 0.0
C1182 C 0.8536 0.04287 0.53646 0.0
C1183 C 0.91047 0.05883 0.48097 0.0
N1184 N 0.83893 0.09578 0.53286 0.0
N1185 N 0.92918 0.00886 0.50904 0.0
H1186 H 0.94041 0.0873 0.42819 0.0
H1187 H 0.95182 0.04959 0.43179 0.0
H1188 H 0.92637 0.98709 0.52766 0.0
H1189 H 0.95161 0.01407 0.49723 0.0
H1190 H 0.81925 0.09233 0.55969 0.0
H1191 H 0.84221 0.1183 0.51944 0.0
H1192 H 0.80612 0.04736 0.55378 0.0
H1193 H 0.82074 0.01154 0.57071 0.0
C1194 C 0.0605 0.09825 0.55962 0.0
C1195 C 0.08474 0.11847 0.54466 0.0
C1196 C 0.04853 0.15417 0.49718 0.0
C1197 C 0.02517 0.13238 0.50431 0.0
N1198 N 0.00825 0.08313 0.53823 0.0
N1199 N 0.10247 0.16456 0.49354 0.0
C1200 C 0.03085 0.10437 0.53526 0.0
C1201 C 0.07892 0.14621 0.51212 0.0
N1202 N 0.06591 0.07308 0.5962 0.0
N1203 N 0.04132 0.18269 0.47657 0.0
H1204 H 0.12508 0.15991 0.50399 0.0
H1205 H 0.0999 0.18326 0.4635 0.0
H1206 H 0.01911 0.18895 0.46532 0.0
H1207 H 0.05659 0.20077 0.47634 0.0
H1208 H 0.0488 0.05902 0.61397 0.0
H1209 H 0.08753 0.06721 0.61236 0.0
H1210 H 0.01149 0.06091 0.55366 0.0
H1211 H 0.98634 0.08738 0.52154 0.0
C1212 C 0.12137 0.95079 0.46048 0.0
C1213 C 0.10975 0.92785 0.50192 0.0
C1214 C 0.13026 0.95508 0.59341 0.0
C1215 C 0.1393 0.9797 0.55403 0.0
N1216 N 0.1593 0.99007 0.44873 0.0
N1217 N 0.09155 0.91758 0.60943 0.0
C1218 C 0.13899 0.975 0.48661 0.0
C1219 C 0.11046 0.93296 0.56883 0.0
N1220 N 0.11418 0.95061 0.39696 0.0
N1221 N 0.14416 0.94995 0.65065 0.0
H1222 H 0.07358 0.90427 0.59285 0.0
H1223 H 0.09107 0.92191 0.65856 0.0
H1224 H 0.16362 0.96193 0.66403 0.0
H1225 H 0.13941 0.93087 0.67872 0.0
H1226 H 0.12023 0.96814 0.36579 0.0
H1227 H 0.09838 0.93552 0.37783 0.0
H1228 H 0.1617 0.98604 0.39983 0.0
H1229 H 0.17737 1.00214 0.46848 0.0
C1230 C 0.97324 0.89457 0.48329 0.0
C1231 C 0.98368 0.86459 0.49111 0.0
C1232 C 0.93938 0.8529 0.55837 0.0
C1233 C 0.92613 0.88108 0.5402 0.0
N1234 N 0.93086 0.92902 0.48404 0.0
N1235 N 0.9768 0.81427 0.53269 0.0
C1236 C 0.94326 0.90203 0.50244 0.0
C1237 C 0.96695 0.84354 0.5284 0.0
N1238 N 0.99252 0.91613 0.4592 0.0
N1239 N 0.92597 0.83515 0.60413 0.0
H1240 H 0.99699 0.80701 0.51143 0.0
H1241 H 0.964 0.79683 0.55307 0.0
H1242 H 0.90626 0.84136 0.62821 0.0
H1243 H 0.93599 0.8157 0.62293 0.0
H1244 H 0.98745 0.93919 0.45811 0.0
H1245 H 0.01494 0.91132 0.44644 0.0
H1246 H 0.94042 0.94299 0.44903 0.0
H1247 H 0.91033 0.93696 0.50183 0.0
loop_
_geom_bond_atom_site_label_1
_geom_bond_atom_site_label_2
_geom_bond_distance
_geom_bond_site_symmetry_2
_ccdc_geom_bond_type
Co0 N4 2.148 . S
Co0 N10 2.128 . S
Co0 N20 2.194 . S
Co0 O25 2.351 . S
Co0 O26 2.155 . S
Co0 O27 2.096 . S
C1 N4 1.301 . S
C1 N5 1.328 . S
C1 H6 0.930 . S
C2 C3 1.333 . S
C2 N4 1.317 . S
C2 H7 0.930 . S
C3 C2 1.333 . S
C3 N5 1.350 . S
C3 H29 0.931 . S
N4 Co0 2.148 . S
N4 C1 1.301 . S
N4 C2 1.317 . S
N5 C1 1.328 . S
N5 C3 1.350 . S
H6 C1 0.930 . S
H7 C2 0.930 . S
C8 O9 1.224 . S
C8 O27 1.247 . S
O9 C8 1.224 . S
N10 Co0 2.128 . S
N10 C11 1.355 . S
N10 C13 1.311 . S
C11 N10 1.355 . S
C11 C12 1.363 . S
C11 H23 0.929 . S
C12 C11 1.363 . S
C12 N14 1.375 . S
C12 H30 0.931 1_545 S
C13 N10 1.311 . S
C13 N14 1.347 . S
C13 H24 0.929 . S
N14 C12 1.375 . S
N14 C13 1.347 . S
C15 C18 1.365 1_554 S
C15 N20 1.328 . S
C15 H21 0.929 . S
C16 C17 1.362 1_554 S
C16 C19 1.378 . S
C16 H31 0.929 . S
C17 C16 1.362 1_556 S
C17 C18 1.366 . S
C18 C15 1.365 1_556 S
C18 C17 1.366 . S
C18 H32 0.930 . S
C19 C16 1.378 . S
C19 N20 1.315 . S
C19 H22 0.930 . S
N20 Co0 2.194 . S
N20 C15 1.328 . S
N20 C19 1.315 . S
H21 C15 0.929 . S
H22 C19 0.930 . S
H23 C11 0.929 . S
H24 C13 0.929 . S
O25 Co0 2.351 . S
O25 C28 1.244 . S
O26 Co0 2.155 . S
O26 C28 1.240 . S
O27 Co0 2.096 . S
O27 C8 1.247 . S
C28 O25 1.244 . S
C28 O26 1.240 . S
H29 C3 0.931 . S
H30 C12 0.931 1_565 S
H31 C16 0.929 . S
H32 C18 0.930 . S
Co33 N37 2.148 . S
Co33 N43 2.128 . S
Co33 N53 2.194 . S
Co33 O58 2.351 . S
Co33 O59 2.155 . S
Co33 O60 2.096 . S
C34 N37 1.301 . S
C34 N38 1.328 . S
C34 H39 0.930 . S
C35 C36 1.333 . S
C35 N37 1.317 . S
C35 H40 0.930 . S
C36 C35 1.333 . S
C36 N38 1.350 . S
C36 H62 0.931 . S
N37 Co33 2.148 . S
N37 C34 1.301 . S
N37 C35 1.317 . S
N38 C34 1.328 . S
N38 C36 1.350 . S
H39 C34 0.930 . S
H40 C35 0.930 . S
C41 O42 1.224 . S
C41 O60 1.247 . S
O42 C41 1.224 . S
N43 Co33 2.128 . S
N43 C44 1.355 . S
N43 C46 1.311 . S
C44 N43 1.355 . S
C44 C45 1.363 . S
C44 H56 0.929 . S
C45 C44 1.363 . S
C45 N47 1.375 . S
C45 H63 0.931 1_455 S
C46 N43 1.311 . S
C46 N47 1.347 . S
C46 H57 0.929 . S
N47 C45 1.375 . S
N47 C46 1.347 . S
C48 C51 1.365 1_556 S
C48 N53 1.328 . S
C48 H54 0.929 . S
C49 C50 1.362 1_556 S
C49 C52 1.378 . S
C49 H64 0.929 . S
C50 C49 1.362 1_554 S
C50 C51 1.366 . S
C51 C48 1.365 1_554 S
C51 C50 1.366 . S
C51 H65 0.930 . S
C52 C49 1.378 . S
C52 N53 1.315 . S
C52 H55 0.930 . S
N53 Co33 2.194 . S
N53 C48 1.328 . S
N53 C52 1.315 . S
H54 C48 0.929 . S
H55 C52 0.930 . S
H56 C44 0.929 . S
H57 C46 0.929 . S
O58 Co33 2.351 . S
O58 C61 1.244 . S
O59 Co33 2.155 . S
O59 C61 1.240 . S
O60 Co33 2.096 . S
O60 C41 1.247 . S
C61 O58 1.244 . S
C61 O59 1.240 . S
H62 C36 0.931 . S
H63 C45 0.931 1_655 S
H64 C49 0.929 . S
H65 C51 0.930 . S
Co66 N70 2.148 . S
Co66 N76 2.128 . S
Co66 N86 2.194 . S
Co66 O91 2.351 . S
Co66 O92 2.155 . S
Co66 O93 2.096 . S
C67 N70 1.301 . S
C67 N71 1.328 . S
C67 H72 0.930 . S
C68 C69 1.333 . S
C68 N70 1.317 . S
C68 H73 0.930 . S
C69 C68 1.333 . S
C69 N71 1.350 . S
C69 H95 0.931 . S
N70 Co66 2.148 . S
N70 C67 1.301 . S
N70 C68 1.317 . S
N71 C67 1.328 . S
N71 C69 1.350 . S
H72 C67 0.930 . S
H73 C68 0.930 . S
C74 O75 1.224 . S
C74 O93 1.247 . S
O75 C74 1.224 . S
N76 Co66 2.128 . S
N76 C77 1.355 . S
N76 C79 1.311 . S
C77 N76 1.355 . S
C77 C78 1.363 . S
C77 H89 0.929 . S
C78 C77 1.363 . S
C78 N80 1.375 . S
C78 H96 0.931 1_565 S
C79 N76 1.311 . S
C79 N80 1.347 . S
C79 H90 0.929 . S
N80 C78 1.375 . S
N80 C79 1.347 . S
C81 C84 1.365 1_554 S
C81 N86 1.328 . S
C81 H87 0.929 . S
C82 C83 1.362 1_554 S
C82 C85 1.378 . S
C82 H97 0.929 . S
C83 C82 1.362 1_556 S
C83 C84 1.366 . S
C84 C81 1.365 1_556 S
C84 C83 1.366 . S
C84 H98 0.930 . S
C85 C82 1.378 . S
C85 N86 1.315 . S
C85 H88 0.930 . S
N86 Co66 2.194 . S
N86 C81 1.328 . S
N86 C85 1.315 . S
H87 C81 0.929 . S
H88 C85 0.930 . S
H89 C77 0.929 . S
H90 C79 0.929 . S
O91 Co66 2.351 . S
O91 C94 1.244 . S
O92 Co66 2.155 . S
O92 C94 1.240 . S
O93 Co66 2.096 . S
O93 C74 1.247 . S
C94 O91 1.244 . S
C94 O92 1.240 . S
H95 C69 0.931 . S
H96 C78 0.931 1_545 S
H97 C82 0.929 . S
H98 C84 0.930 . S
Co99 N103 2.148 . S
Co99 N109 2.128 . S
Co99 N119 2.194 . S
Co99 O124 2.351 . S
Co99 O125 2.155 . S
Co99 O126 2.096 . S
C100 N103 1.301 . S
C100 N104 1.328 . S
C100 H105 0.930 . S
C101 C102 1.333 . S
C101 N103 1.317 . S
C101 H106 0.930 . S
C102 C101 1.333 . S
C102 N104 1.350 . S
C102 H128 0.931 . S
N103 Co99 2.148 . S
N103 C100 1.301 . S
N103 C101 1.317 . S
N104 C100 1.328 . S
N104 C102 1.350 . S
H105 C100 0.930 . S
H106 C101 0.930 . S
C107 O108 1.224 . S
C107 O126 1.247 . S
O108 C107 1.224 . S
N109 Co99 2.128 . S
N109 C110 1.355 . S
N109 C112 1.311 . S
C110 N109 1.355 . S
C110 C111 1.363 . S
C110 H122 0.929 . S
C111 C110 1.363 . S
C111 N113 1.375 . S
C111 H129 0.931 1_655 S
C112 N109 1.311 . S
C112 N113 1.347 . S
C112 H123 0.929 . S
N113 C111 1.375 . S
N113 C112 1.347 . S
C114 C117 1.365 1_556 S
C114 N119 1.328 . S
C114 H120 0.929 . S
C115 C116 1.362 1_556 S
C115 C118 1.378 . S
C115 H130 0.929 . S
C116 C115 1.362 1_554 S
C116 C117 1.366 . S
C117 C114 1.365 1_554 S
C117 C116 1.366 . S
C117 H131 0.930 . S
C118 C115 1.378 . S
C118 N119 1.315 . S
C118 H121 0.930 . S
N119 Co99 2.194 . S
N119 C114 1.328 . S
N119 C118 1.315 . S
H120 C114 0.929 . S
H121 C118 0.930 . S
H122 C110 0.929 . S
H123 C112 0.929 . S
O124 Co99 2.351 . S
O124 C127 1.244 . S
O125 Co99 2.155 . S
O125 C127 1.240 . S
O126 Co99 2.096 . S
O126 C107 1.247 . S
C127 O124 1.244 . S
C127 O125 1.240 . S
H128 C102 0.931 . S
H129 C111 0.931 1_455 S
H130 C115 0.929 . S
H131 C117 0.930 . S
Co132 N136 2.148 . S
Co132 N142 2.128 . S
Co132 N152 2.194 . S
Co132 O157 2.351 . S
Co132 O158 2.155 . S
Co132 O159 2.096 1_554 S
C133 N136 1.301 . S
C133 N137 1.328 . S
C133 H138 0.930 . S
C134 C135 1.333 . S
C134 N136 1.317 . S
C134 H139 0.930 1_554 S
C135 C134 1.333 . S
C135 N137 1.350 . S
C135 H161 0.931 . S
N136 Co132 2.148 . S
N136 C133 1.301 . S
N136 C134 1.317 . S
N137 C133 1.328 . S
N137 C135 1.350 . S
H138 C133 0.930 . S
H139 C134 0.930 1_556 S
C140 O141 1.224 1_556 S
C140 O159 1.247 . S
O141 C140 1.224 1_554 S
N142 Co132 2.128 . S
N142 C143 1.355 . S
N142 C145 1.311 . S
C143 N142 1.355 . S
C143 C144 1.363 . S
C143 H155 0.929 . S
C144 C143 1.363 . S
C144 N146 1.375 . S
C144 H162 0.931 . S
C145 N142 1.311 . S
C145 N146 1.347 . S
C145 H156 0.929 1_554 S
N146 C144 1.375 . S
N146 C145 1.347 . S
C147 C150 1.365 . S
C147 N152 1.328 . S
C147 H153 0.929 . S
C148 C149 1.362 . S
C148 C151 1.378 . S
C148 H163 0.929 . S
C149 C148 1.362 . S
C149 C150 1.366 . S
C150 C147 1.365 . S
C150 C149 1.366 . S
C150 H164 0.930 . S
C151 C148 1.378 . S
C151 N152 1.315 . S
C151 H154 0.930 . S
N152 Co132 2.194 . S
N152 C147 1.328 . S
N152 C151 1.315 . S
H153 C147 0.929 . S
H154 C151 0.930 . S
H155 C143 0.929 . S
H156 C145 0.929 1_556 S
O157 Co132 2.351 . S
O157 C160 1.244 . S
O158 Co132 2.155 . S
O158 C160 1.240 . S
O159 Co132 2.096 1_556 S
O159 C140 1.247 . S
C160 O157 1.244 . S
C160 O158 1.240 . S
H161 C135 0.931 . S
H162 C144 0.931 . S
H163 C148 0.929 . S
H164 C150 0.930 . S
Co165 N169 2.148 . S
Co165 N175 2.128 . S
Co165 N185 2.194 . S
Co165 O190 2.351 . S
Co165 O191 2.155 . S
Co165 O192 2.096 1_556 S
C166 N169 1.301 . S
C166 N170 1.328 . S
C166 H171 0.930 . S
C167 C168 1.333 . S
C167 N169 1.317 . S
C167 H172 0.930 1_556 S
C168 C167 1.333 . S
C168 N170 1.350 . S
C168 H194 0.931 . S
N169 Co165 2.148 . S
N169 C166 1.301 . S
N169 C167 1.317 . S
N170 C166 1.328 . S
N170 C168 1.350 . S
H171 C166 0.930 . S
H172 C167 0.930 1_554 S
C173 O174 1.224 1_554 S
C173 O192 1.247 . S
O174 C173 1.224 1_556 S
N175 Co165 2.128 . S
N175 C176 1.355 . S
N175 C178 1.311 . S
C176 N175 1.355 . S
C176 C177 1.363 . S
C176 H188 0.929 . S
C177 C176 1.363 . S
C177 N179 1.375 . S
C177 H195 0.931 . S
C178 N175 1.311 . S
C178 N179 1.347 . S
C178 H189 0.929 1_556 S
N179 C177 1.375 . S
N179 C178 1.347 . S
C180 C183 1.365 . S
C180 N185 1.328 . S
C180 H186 0.929 . S
C181 C182 1.362 . S
C181 C184 1.378 . S
C181 H196 0.929 . S
C182 C181 1.362 . S
C182 C183 1.366 . S
C183 C180 1.365 . S
C183 C182 1.366 . S
C183 H197 0.930 . S
C184 C181 1.378 . S
C184 N185 1.315 . S
C184 H187 0.930 . S
N185 Co165 2.194 . S
N185 C180 1.328 . S
N185 C184 1.315 . S
H186 C180 0.929 . S
H187 C184 0.930 . S
H188 C176 0.929 . S
H189 C178 0.929 1_554 S
O190 Co165 2.351 . S
O190 C193 1.244 . S
O191 Co165 2.155 . S
O191 C193 1.240 . S
O192 Co165 2.096 1_554 S
O192 C173 1.247 . S
C193 O190 1.244 . S
C193 O191 1.240 . S
H194 C168 0.931 . S
H195 C177 0.931 . S
H196 C181 0.929 . S
H197 C183 0.930 . S
Co198 N202 2.148 . S
Co198 N208 2.128 . S
Co198 N218 2.194 . S
Co198 O223 2.351 . S
Co198 O224 2.155 . S
Co198 O225 2.096 1_554 S
C199 N202 1.301 . S
C199 N203 1.328 . S
C199 H204 0.930 . S
C200 C201 1.333 . S
C200 N202 1.317 . S
C200 H205 0.930 1_554 S
C201 C200 1.333 . S
C201 N203 1.350 . S
C201 H227 0.931 . S
N202 Co198 2.148 . S
N202 C199 1.301 . S
N202 C200 1.317 . S
N203 C199 1.328 . S
N203 C201 1.350 . S
H204 C199 0.930 . S
H205 C200 0.930 1_556 S
C206 O207 1.224 1_556 S
C206 O225 1.247 . S
O207 C206 1.224 1_554 S
N208 Co198 2.128 . S
N208 C209 1.355 . S
N208 C211 1.311 . S
C209 N208 1.355 . S
C209 C210 1.363 . S
C209 H221 0.929 . S
C210 C209 1.363 . S
C210 N212 1.375 . S
C210 H228 0.931 . S
C211 N208 1.311 . S
C211 N212 1.347 . S
C211 H222 0.929 1_554 S
N212 C210 1.375 . S
N212 C211 1.347 . S
C213 C216 1.365 . S
C213 N218 1.328 . S
C213 H219 0.929 . S
C214 C215 1.362 . S
C214 C217 1.378 . S
C214 H229 0.929 . S
C215 C214 1.362 . S
C215 C216 1.366 . S
C216 C213 1.365 . S
C216 C215 1.366 . S
C216 H230 0.930 . S
C217 C214 1.378 . S
C217 N218 1.315 . S
C217 H220 0.930 . S
N218 Co198 2.194 . S
N218 C213 1.328 . S
N218 C217 1.315 . S
H219 C213 0.929 . S
H220 C217 0.930 . S
H221 C209 0.929 . S
H222 C211 0.929 1_556 S
O223 Co198 2.351 . S
O223 C226 1.244 . S
O224 Co198 2.155 . S
O224 C226 1.240 . S
O225 Co198 2.096 1_556 S
O225 C206 1.247 . S
C226 O223 1.244 . S
C226 O224 1.240 . S
H227 C201 0.931 . S
H228 C210 0.931 . S
H229 C214 0.929 . S
H230 C216 0.930 . S
Co231 N235 2.148 . S
Co231 N241 2.128 . S
Co231 N251 2.194 . S
Co231 O256 2.351 . S
Co231 O257 2.155 . S
Co231 O258 2.096 1_556 S
C232 N235 1.301 . S
C232 N236 1.328 . S
C232 H237 0.930 . S
C233 C234 1.333 . S
C233 N235 1.317 . S
C233 H238 0.930 1_556 S
C234 C233 1.333 . S
C234 N236 1.350 . S
C234 H260 0.931 . S
N235 Co231 2.148 . S
N235 C232 1.301 . S
N235 C233 1.317 . S
N236 C232 1.328 . S
N236 C234 1.350 . S
H237 C232 0.930 . S
H238 C233 0.930 1_554 S
C239 O240 1.224 1_554 S
C239 O258 1.247 . S
O240 C239 1.224 1_556 S
N241 Co231 2.128 . S
N241 C242 1.355 . S
N241 C244 1.311 . S
C242 N241 1.355 . S
C242 C243 1.363 . S
C242 H254 0.929 . S
C243 C242 1.363 . S
C243 N245 1.375 . S
C243 H261 0.931 . S
C244 N241 1.311 . S
C244 N245 1.347 . S
C244 H255 0.929 1_556 S
N245 C243 1.375 . S
N245 C244 1.347 . S
C246 C249 1.365 . S
C246 N251 1.328 . S
C246 H252 0.929 . S
C247 C248 1.362 . S
C247 C250 1.378 . S
C247 H262 0.929 . S
C248 C247 1.362 . S
C248 C249 1.366 . S
C249 C246 1.365 . S
C249 C248 1.366 . S
C249 H263 0.930 . S
C250 C247 1.378 . S
C250 N251 1.315 . S
C250 H253 0.930 . S
N251 Co231 2.194 . S
N251 C246 1.328 . S
N251 C250 1.315 . S
H252 C246 0.929 . S
H253 C250 0.930 . S
H254 C242 0.929 . S
H255 C244 0.929 1_554 S
O256 Co231 2.351 . S
O256 C259 1.244 . S
O257 Co231 2.155 . S
O257 C259 1.240 . S
O258 Co231 2.096 1_554 S
O258 C239 1.247 . S
C259 O256 1.244 . S
C259 O257 1.240 . S
H260 C234 0.931 . S
H261 C243 0.931 . S
H262 C247 0.929 . S
H263 C249 0.930 . S
Co264 N268 2.148 . S
Co264 N274 2.128 . S
Co264 N284 2.194 . S
Co264 O289 2.351 . S
Co264 O290 2.155 . S
Co264 O291 2.096 . S
C265 N268 1.301 . S
C265 N269 1.328 . S
C265 H270 0.930 . S
C266 C267 1.333 . S
C266 N268 1.317 . S
C266 H271 0.930 . S
C267 C266 1.333 . S
C267 N269 1.350 . S
C267 H293 0.931 . S
N268 Co264 2.148 . S
N268 C265 1.301 . S
N268 C266 1.317 . S
N269 C265 1.328 . S
N269 C267 1.350 . S
H270 C265 0.930 . S
H271 C266 0.930 . S
C272 O273 1.224 . S
C272 O291 1.247 . S
O273 C272 1.224 . S
N274 Co264 2.128 . S
N274 C275 1.355 . S
N274 C277 1.311 . S
C275 N274 1.355 . S
C275 C276 1.363 . S
C275 H287 0.929 . S
C276 C275 1.363 . S
C276 N278 1.375 . S
C276 H294 0.931 . S
C277 N274 1.311 . S
C277 N278 1.347 . S
C277 H288 0.929 . S
N278 C276 1.375 . S
N278 C277 1.347 . S
C279 C282 1.365 . S
C279 N284 1.328 . S
C279 H285 0.929 . S
C280 C281 1.362 . S
C280 C283 1.378 . S
C280 H295 0.929 . S
C281 C280 1.362 . S
C281 C282 1.366 . S
C282 C279 1.365 . S
C282 C281 1.366 . S
C282 H296 0.930 . S
C283 C280 1.378 . S
C283 N284 1.315 . S
C283 H286 0.930 . S
N284 Co264 2.194 . S
N284 C279 1.328 . S
N284 C283 1.315 . S
H285 C279 0.929 . S
H286 C283 0.930 . S
H287 C275 0.929 . S
H288 C277 0.929 . S
O289 Co264 2.351 . S
O289 C292 1.244 . S
O290 Co264 2.155 . S
O290 C292 1.240 . S
O291 Co264 2.096 . S
O291 C272 1.247 . S
C292 O289 1.244 . S
C292 O290 1.240 . S
H293 C267 0.931 . S
H294 C276 0.931 . S
H295 C280 0.929 . S
H296 C282 0.930 . S
Co297 N301 2.148 . S
Co297 N307 2.128 . S
Co297 N317 2.194 . S
Co297 O322 2.351 . S
Co297 O323 2.155 . S
Co297 O324 2.096 . S
C298 N301 1.301 . S
C298 N302 1.328 . S
C298 H303 0.930 . S
C299 C300 1.333 . S
C299 N301 1.317 . S
C299 H304 0.930 . S
C300 C299 1.333 . S
C300 N302 1.350 . S
C300 H326 0.931 . S
N301 Co297 2.148 . S
N301 C298 1.301 . S
N301 C299 1.317 . S
N302 C298 1.328 . S
N302 C300 1.350 . S
H303 C298 0.930 . S
H304 C299 0.930 . S
C305 O306 1.224 . S
C305 O324 1.247 . S
O306 C305 1.224 . S
N307 Co297 2.128 . S
N307 C308 1.355 . S
N307 C310 1.311 . S
C308 N307 1.355 . S
C308 C309 1.363 . S
C308 H320 0.929 . S
C309 C308 1.363 . S
C309 N311 1.375 . S
C309 H327 0.931 . S
C310 N307 1.311 . S
C310 N311 1.347 . S
C310 H321 0.929 . S
N311 C309 1.375 . S
N311 C310 1.347 . S
C312 C315 1.365 . S
C312 N317 1.328 . S
C312 H318 0.929 . S
C313 C314 1.362 . S
C313 C316 1.378 . S
C313 H328 0.929 . S
C314 C313 1.362 . S
C314 C315 1.366 . S
C315 C312 1.365 . S
C315 C314 1.366 . S
C315 H329 0.930 . S
C316 C313 1.378 . S
C316 N317 1.315 . S
C316 H319 0.930 . S
N317 Co297 2.194 . S
N317 C312 1.328 . S
N317 C316 1.315 . S
H318 C312 0.929 . S
H319 C316 0.930 . S
H320 C308 0.929 . S
H321 C310 0.929 . S
O322 Co297 2.351 . S
O322 C325 1.244 . S
O323 Co297 2.155 . S
O323 C325 1.240 . S
O324 Co297 2.096 . S
O324 C305 1.247 . S
C325 O322 1.244 . S
C325 O323 1.240 . S
H326 C300 0.931 . S
H327 C309 0.931 . S
H328 C313 0.929 . S
H329 C315 0.930 . S
Co330 N334 2.148 . S
Co330 N340 2.128 . S
Co330 N350 2.194 . S
Co330 O355 2.351 . S
Co330 O356 2.155 . S
Co330 O357 2.096 . S
C331 N334 1.301 . S
C331 N335 1.328 . S
C331 H336 0.930 . S
C332 C333 1.333 . S
C332 N334 1.317 . S
C332 H337 0.930 . S
C333 C332 1.333 . S
C333 N335 1.350 . S
C333 H359 0.931 . S
N334 Co330 2.148 . S
N334 C331 1.301 . S
N334 C332 1.317 . S
N335 C331 1.328 . S
N335 C333 1.350 . S
H336 C331 0.930 . S
H337 C332 0.930 . S
C338 O339 1.224 . S
C338 O357 1.247 . S
O339 C338 1.224 . S
N340 Co330 2.128 . S
N340 C341 1.355 . S
N340 C343 1.311 . S
C341 N340 1.355 . S
C341 C342 1.363 . S
C341 H353 0.929 . S
C342 C341 1.363 . S
C342 N344 1.375 . S
C342 H360 0.931 . S
C343 N340 1.311 . S
C343 N344 1.347 . S
C343 H354 0.929 . S
N344 C342 1.375 . S
N344 C343 1.347 . S
C345 C348 1.365 . S
C345 N350 1.328 . S
C345 H351 0.929 . S
C346 C347 1.362 . S
C346 C349 1.378 . S
C346 H361 0.929 . S
C347 C346 1.362 . S
C347 C348 1.366 . S
C348 C345 1.365 . S
C348 C347 1.366 . S
C348 H362 0.930 . S
C349 C346 1.378 . S
C349 N350 1.315 . S
C349 H352 0.930 . S
N350 Co330 2.194 . S
N350 C345 1.328 . S
N350 C349 1.315 . S
H351 C345 0.929 . S
H352 C349 0.930 . S
H353 C341 0.929 . S
H354 C343 0.929 . S
O355 Co330 2.351 . S
O355 C358 1.244 . S
O356 Co330 2.155 . S
O356 C358 1.240 . S
O357 Co330 2.096 . S
O357 C338 1.247 . S
C358 O355 1.244 . S
C358 O356 1.240 . S
H359 C333 0.931 . S
H360 C342 0.931 . S
H361 C346 0.929 . S
H362 C348 0.930 . S
Co363 N367 2.148 . S
Co363 N373 2.128 . S
Co363 N383 2.194 . S
Co363 O388 2.351 . S
Co363 O389 2.155 . S
Co363 O390 2.096 . S
C364 N367 1.301 . S
C364 N368 1.328 . S
C364 H369 0.930 . S
C365 C366 1.333 . S
C365 N367 1.317 . S
C365 H370 0.930 . S
C366 C365 1.333 . S
C366 N368 1.350 . S
C366 H392 0.931 . S
N367 Co363 2.148 . S
N367 C364 1.301 . S
N367 C365 1.317 . S
N368 C364 1.328 . S
N368 C366 1.350 . S
H369 C364 0.930 . S
H370 C365 0.930 . S
C371 O372 1.224 . S
C371 O390 1.247 . S
O372 C371 1.224 . S
N373 Co363 2.128 . S
N373 C374 1.355 . S
N373 C376 1.311 . S
C374 N373 1.355 . S
C374 C375 1.363 . S
C374 H386 0.929 . S
C375 C374 1.363 . S
C375 N377 1.375 . S
C375 H393 0.931 . S
C376 N373 1.311 . S
C376 N377 1.347 . S
C376 H387 0.929 . S
N377 C375 1.375 . S
N377 C376 1.347 . S
C378 C381 1.365 . S
C378 N383 1.328 . S
C378 H384 0.929 . S
C379 C380 1.362 . S
C379 C382 1.378 . S
C379 H394 0.929 . S
C380 C379 1.362 . S
C380 C381 1.366 . S
C381 C378 1.365 . S
C381 C380 1.366 . S
C381 H395 0.930 . S
C382 C379 1.378 . S
C382 N383 1.315 . S
C382 H385 0.930 . S
N383 Co363 2.194 . S
N383 C378 1.328 . S
N383 C382 1.315 . S
H384 C378 0.929 . S
H385 C382 0.930 . S
H386 C374 0.929 . S
H387 C376 0.929 . S
O388 Co363 2.351 . S
O388 C391 1.244 . S
O389 Co363 2.155 . S
O389 C391 1.240 . S
O390 Co363 2.096 . S
O390 C371 1.247 . S
C391 O388 1.244 . S
C391 O389 1.240 . S
H392 C366 0.931 . S
H393 C375 0.931 . S
H394 C379 0.929 . S
H395 C381 0.930 . S
Co396 N400 2.148 . S
Co396 N406 2.128 . S
Co396 N416 2.194 . S
Co396 O421 2.351 . S
Co396 O422 2.155 . S
Co396 O423 2.096 . S
C397 N400 1.301 . S
C397 N401 1.328 . S
C397 H402 0.930 . S
C398 C399 1.333 . S
C398 N400 1.317 . S
C398 H403 0.930 . S
C399 C398 1.333 . S
C399 N401 1.350 . S
C399 H425 0.931 . S
N400 Co396 2.148 . S
N400 C397 1.301 . S
N400 C398 1.317 . S
N401 C397 1.328 . S
N401 C399 1.350 . S
H402 C397 0.930 . S
H403 C398 0.930 . S
C404 O405 1.224 . S
C404 O423 1.247 . S
O405 C404 1.224 . S
N406 Co396 2.128 . S
N406 C407 1.355 . S
N406 C409 1.311 . S
C407 N406 1.355 . S
C407 C408 1.363 . S
C407 H419 0.929 . S
C408 C407 1.363 . S
C408 N410 1.375 . S
C408 H426 0.931 1_565 S
C409 N406 1.311 . S
C409 N410 1.347 . S
C409 H420 0.929 . S
N410 C408 1.375 . S
N410 C409 1.347 . S
C411 C414 1.365 . S
C411 N416 1.328 . S
C411 H417 0.929 . S
C412 C413 1.362 . S
C412 C415 1.378 . S
C412 H427 0.929 . S
C413 C412 1.362 . S
C413 C414 1.366 . S
C414 C411 1.365 . S
C414 C413 1.366 . S
C414 H428 0.930 . S
C415 C412 1.378 . S
C415 N416 1.315 . S
C415 H418 0.930 . S
N416 Co396 2.194 . S
N416 C411 1.328 . S
N416 C415 1.315 . S
H417 C411 0.929 . S
H418 C415 0.930 . S
H419 C407 0.929 . S
H420 C409 0.929 . S
O421 Co396 2.351 . S
O421 C424 1.244 . S
O422 Co396 2.155 . S
O422 C424 1.240 . S
O423 Co396 2.096 . S
O423 C404 1.247 . S
C424 O421 1.244 . S
C424 O422 1.240 . S
H425 C399 0.931 . S
H426 C408 0.931 1_545 S
H427 C412 0.929 . S
H428 C414 0.930 . S
Co429 N433 2.148 . S
Co429 N439 2.128 . S
Co429 N449 2.194 . S
Co429 O454 2.351 . S
Co429 O455 2.155 . S
Co429 O456 2.096 . S
C430 N433 1.301 . S
C430 N434 1.328 . S
C430 H435 0.930 . S
C431 C432 1.333 . S
C431 N433 1.317 . S
C431 H436 0.930 . S
C432 C431 1.333 . S
C432 N434 1.350 . S
C432 H458 0.931 . S
N433 Co429 2.148 . S
N433 C430 1.301 . S
N433 C431 1.317 . S
N434 C430 1.328 . S
N434 C432 1.350 . S
H435 C430 0.930 . S
H436 C431 0.930 . S
C437 O438 1.224 . S
C437 O456 1.247 . S
O438 C437 1.224 . S
N439 Co429 2.128 . S
N439 C440 1.355 . S
N439 C442 1.311 . S
C440 N439 1.355 . S
C440 C441 1.363 . S
C440 H452 0.929 . S
C441 C440 1.363 . S
C441 N443 1.375 . S
C441 H459 0.931 1_655 S
C442 N439 1.311 . S
C442 N443 1.347 . S
C442 H453 0.929 . S
N443 C441 1.375 . S
N443 C442 1.347 . S
C444 C447 1.365 . S
C444 N449 1.328 . S
C444 H450 0.929 . S
C445 C446 1.362 . S
C445 C448 1.378 . S
C445 H460 0.929 . S
C446 C445 1.362 . S
C446 C447 1.366 . S
C447 C444 1.365 . S
C447 C446 1.366 . S
C447 H461 0.930 . S
C448 C445 1.378 . S
C448 N449 1.315 . S
C448 H451 0.930 . S
N449 Co429 2.194 . S
N449 C444 1.328 . S
N449 C448 1.315 . S
H450 C444 0.929 . S
H451 C448 0.930 . S
H452 C440 0.929 . S
H453 C442 0.929 . S
O454 Co429 2.351 . S
O454 C457 1.244 . S
O455 Co429 2.155 . S
O455 C457 1.240 . S
O456 Co429 2.096 . S
O456 C437 1.247 . S
C457 O454 1.244 . S
C457 O455 1.240 . S
H458 C432 0.931 . S
H459 C441 0.931 1_455 S
H460 C445 0.929 . S
H461 C447 0.930 . S
Co462 N466 2.148 . S
Co462 N472 2.128 . S
Co462 N482 2.194 . S
Co462 O487 2.351 . S
Co462 O488 2.155 . S
Co462 O489 2.096 . S
C463 N466 1.301 . S
C463 N467 1.328 . S
C463 H468 0.930 . S
C464 C465 1.333 . S
C464 N466 1.317 . S
C464 H469 0.930 . S
C465 C464 1.333 . S
C465 N467 1.350 . S
C465 H491 0.931 . S
N466 Co462 2.148 . S
N466 C463 1.301 . S
N466 C464 1.317 . S
N467 C463 1.328 . S
N467 C465 1.350 . S
H468 C463 0.930 . S
H469 C464 0.930 . S
C470 O471 1.224 . S
C470 O489 1.247 . S
O471 C470 1.224 . S
N472 Co462 2.128 . S
N472 C473 1.355 . S
N472 C475 1.311 . S
C473 N472 1.355 . S
C473 C474 1.363 . S
C473 H485 0.929 . S
C474 C473 1.363 . S
C474 N476 1.375 . S
C474 H492 0.931 1_545 S
C475 N472 1.311 . S
C475 N476 1.347 . S
C475 H486 0.929 . S
N476 C474 1.375 . S
N476 C475 1.347 . S
C477 C480 1.365 . S
C477 N482 1.328 . S
C477 H483 0.929 . S
C478 C479 1.362 . S
C478 C481 1.378 . S
C478 H493 0.929 . S
C479 C478 1.362 . S
C479 C480 1.366 . S
C480 C477 1.365 . S
C480 C479 1.366 . S
C480 H494 0.930 . S
C481 C478 1.378 . S
C481 N482 1.315 . S
C481 H484 0.930 . S
N482 Co462 2.194 . S
N482 C477 1.328 . S
N482 C481 1.315 . S
H483 C477 0.929 . S
H484 C481 0.930 . S
H485 C473 0.929 . S
H486 C475 0.929 . S
O487 Co462 2.351 . S
O487 C490 1.244 . S
O488 Co462 2.155 . S
O488 C490 1.240 . S
O489 Co462 2.096 . S
O489 C470 1.247 . S
C490 O487 1.244 . S
C490 O488 1.240 . S
H491 C465 0.931 . S
H492 C474 0.931 1_565 S
H493 C478 0.929 . S
H494 C480 0.930 . S
Co495 N499 2.148 . S
Co495 N505 2.128 . S
Co495 N515 2.194 . S
Co495 O520 2.351 . S
Co495 O521 2.155 . S
Co495 O522 2.096 . S
C496 N499 1.301 . S
C496 N500 1.328 . S
C496 H501 0.930 . S
C497 C498 1.333 . S
C497 N499 1.317 . S
C497 H502 0.930 . S
C498 C497 1.333 . S
C498 N500 1.350 . S
C498 H524 0.931 . S
N499 Co495 2.148 . S
N499 C496 1.301 . S
N499 C497 1.317 . S
N500 C496 1.328 . S
N500 C498 1.350 . S
H501 C496 0.930 . S
H502 C497 0.930 . S
C503 O504 1.224 . S
C503 O522 1.247 . S
O504 C503 1.224 . S
N505 Co495 2.128 . S
N505 C506 1.355 . S
N505 C508 1.311 . S
C506 N505 1.355 . S
C506 C507 1.363 . S
C506 H518 0.929 . S
C507 C506 1.363 . S
C507 N509 1.375 . S
C507 H525 0.931 1_455 S
C508 N505 1.311 . S
C508 N509 1.347 . S
C508 H519 0.929 . S
N509 C507 1.375 . S
N509 C508 1.347 . S
C510 C513 1.365 . S
C510 N515 1.328 . S
C510 H516 0.929 . S
C511 C512 1.362 . S
C511 C514 1.378 . S
C511 H526 0.929 . S
C512 C511 1.362 . S
C512 C513 1.366 . S
C513 C510 1.365 . S
C513 C512 1.366 . S
C513 H527 0.930 . S
C514 C511 1.378 . S
C514 N515 1.315 . S
C514 H517 0.930 . S
N515 Co495 2.194 . S
N515 C510 1.328 . S
N515 C514 1.315 . S
H516 C510 0.929 . S
H517 C514 0.930 . S
H518 C506 0.929 . S
H519 C508 0.929 . S
O520 Co495 2.351 . S
O520 C523 1.244 . S
O521 Co495 2.155 . S
O521 C523 1.240 . S
O522 Co495 2.096 . S
O522 C503 1.247 . S
C523 O520 1.244 . S
C523 O521 1.240 . S
H524 C498 0.931 . S
H525 C507 0.931 1_655 S
H526 C511 0.929 . S
H527 C513 0.930 . S
C528 C529 1.363 . S
C528 C534 1.379 . S
C528 N536 1.356 . S
C529 C528 1.363 . S
C529 C535 1.363 . S
C530 C531 1.363 . S
C530 C535 1.379 . S
C530 N537 1.356 . S
C531 C530 1.363 . S
C531 C534 1.363 . S
N532 C534 1.356 . S
N532 H544 0.984 . S
N532 H545 0.985 . S
N533 C535 1.356 . S
N533 H538 0.984 . S
N533 H539 0.985 . S
C534 C528 1.379 . S
C534 C531 1.363 . S
C534 N532 1.356 . S
C535 C529 1.363 . S
C535 C530 1.379 . S
C535 N533 1.356 . S
N536 C528 1.356 . S
N536 H542 0.984 . S
N536 H543 0.984 . S
N537 C530 1.356 . S
N537 H540 0.984 . S
N537 H541 0.985 . S
H538 N533 0.984 . S
H539 N533 0.985 . S
H540 N537 0.984 . S
H541 N537 0.985 . S
H542 N536 0.984 . S
H543 N536 0.984 . S
H544 N532 0.984 . S
H545 N532 0.985 . S
C546 C547 1.363 . S
C546 C552 1.379 . S
C546 N554 1.356 . S
C547 C546 1.363 . S
C547 C553 1.363 . S
C548 C549 1.363 . S
C548 C553 1.379 . S
C548 N555 1.356 . S
C549 C548 1.363 . S
C549 C552 1.363 . S
N550 C552 1.356 . S
N550 H562 0.984 . S
N550 H563 0.985 . S
N551 C553 1.356 . S
N551 H556 0.984 . S
N551 H557 0.985 . S
C552 C546 1.379 . S
C552 C549 1.363 . S
C552 N550 1.356 . S
C553 C547 1.363 . S
C553 C548 1.379 . S
C553 N551 1.356 . S
N554 C546 1.356 . S
N554 H560 0.984 . S
N554 H561 0.984 . S
N555 C548 1.356 . S
N555 H558 0.984 . S
N555 H559 0.985 . S
H556 N551 0.984 . S
H557 N551 0.985 . S
H558 N555 0.984 . S
H559 N555 0.985 . S
H560 N554 0.984 . S
H561 N554 0.984 . S
H562 N550 0.984 . S
H563 N550 0.985 . S
C564 C565 1.363 . S
C564 C570 1.379 . S
C564 N572 1.356 . S
C565 C564 1.363 . S
C565 C571 1.363 . S
C566 C567 1.363 . S
C566 C571 1.379 . S
C566 N573 1.356 . S
C567 C566 1.363 . S
C567 C570 1.363 . S
N568 C570 1.356 . S
N568 H580 0.984 . S
N568 H581 0.985 . S
N569 C571 1.356 . S
N569 H574 0.984 . S
N569 H575 0.985 . S
C570 C564 1.379 . S
C570 C567 1.363 . S
C570 N568 1.356 . S
C571 C565 1.363 . S
C571 C566 1.379 . S
C571 N569 1.356 . S
N572 C564 1.356 . S
N572 H578 0.984 . S
N572 H579 0.984 . S
N573 C566 1.356 . S
N573 H576 0.984 . S
N573 H577 0.985 . S
H574 N569 0.984 . S
H575 N569 0.985 . S
H576 N573 0.984 . S
H577 N573 0.985 . S
H578 N572 0.984 . S
H579 N572 0.984 . S
H580 N568 0.984 . S
H581 N568 0.985 . S
C582 C583 1.363 . S
C582 C588 1.379 . S
C582 N590 1.356 . S
C583 C582 1.363 . S
C583 C589 1.363 . S
C584 C585 1.363 . S
C584 C589 1.379 . S
C584 N591 1.356 . S
C585 C584 1.363 . S
C585 C588 1.363 . S
N586 C588 1.356 . S
N586 H598 0.984 . S
N586 H599 0.985 . S
N587 C589 1.356 . S
N587 H592 0.984 . S
N587 H593 0.985 . S
C588 C582 1.379 . S
C588 C585 1.363 . S
C588 N586 1.356 . S
C589 C583 1.363 . S
C589 C584 1.379 . S
C589 N587 1.356 . S
N590 C582 1.356 . S
N590 H596 0.984 . S
N590 H597 0.984 . S
N591 C584 1.356 . S
N591 H594 0.984 . S
N591 H595 0.985 . S
H592 N587 0.984 . S
H593 N587 0.985 . S
H594 N591 0.984 . S
H595 N591 0.985 . S
H596 N590 0.984 . S
H597 N590 0.984 . S
H598 N586 0.984 . S
H599 N586 0.985 . S
C600 C601 1.363 . S
C600 C606 1.379 . S
C600 N608 1.356 . S
C601 C600 1.363 . S
C601 C607 1.363 . S
C602 C603 1.363 . S
C602 C607 1.379 . S
C602 N609 1.356 . S
C603 C602 1.363 . S
C603 C606 1.363 . S
N604 C606 1.356 . S
N604 H616 0.984 . S
N604 H617 0.985 . S
N605 C607 1.356 . S
N605 H610 0.984 . S
N605 H611 0.985 . S
C606 C600 1.379 . S
C606 C603 1.363 . S
C606 N604 1.356 . S
C607 C601 1.363 . S
C607 C602 1.379 . S
C607 N605 1.356 . S
N608 C600 1.356 . S
N608 H614 0.984 . S
N608 H615 0.980 1_556 S
N609 C602 1.356 . S
N609 H612 0.984 . S
N609 H613 0.985 . S
H610 N605 0.984 . S
H611 N605 0.985 . S
H612 N609 0.984 . S
H613 N609 0.985 . S
H614 N608 0.984 . S
H615 N608 0.980 1_554 S
H616 N604 0.984 . S
H617 N604 0.985 . S
C618 C619 1.363 . S
C618 C624 1.379 . S
C618 N626 1.356 . S
C619 C618 1.363 . S
C619 C625 1.363 . S
C620 C621 1.363 . S
C620 C625 1.379 . S
C620 N627 1.356 . S
C621 C620 1.363 . S
C621 C624 1.363 . S
N622 C624 1.356 . S
N622 H634 0.984 1_554 S
N622 H635 0.985 1_554 S
N623 C625 1.356 . S
N623 H628 0.984 . S
N623 H629 0.985 . S
C624 C618 1.379 . S
C624 C621 1.363 . S
C624 N622 1.356 . S
C625 C619 1.363 . S
C625 C620 1.379 . S
C625 N623 1.356 . S
N626 C618 1.356 . S
N626 H632 0.984 . S
N626 H633 0.984 . S
N627 C620 1.356 . S
N627 H630 0.984 . S
N627 H631 0.985 . S
H628 N623 0.984 . S
H629 N623 0.985 . S
H630 N627 0.984 . S
H631 N627 0.985 . S
H632 N626 0.984 . S
H633 N626 0.984 . S
H634 N622 0.984 1_556 S
H635 N622 0.985 1_556 S
C636 C637 1.363 . S
C636 C642 1.379 . S
C636 N644 1.356 . S
C637 C636 1.363 . S
C637 C643 1.363 . S
C638 C639 1.363 . S
C638 C643 1.379 . S
C638 N645 1.356 . S
C639 C638 1.363 . S
C639 C642 1.363 . S
N640 C642 1.356 . S
N640 H652 0.984 . S
N640 H653 0.985 . S
N641 C643 1.356 . S
N641 H646 0.984 . S
N641 H647 0.985 . S
C642 C636 1.379 . S
C642 C639 1.363 . S
C642 N640 1.356 . S
C643 C637 1.363 . S
C643 C638 1.379 . S
C643 N641 1.356 . S
N644 C636 1.356 . S
N644 H650 0.984 . S
N644 H651 0.980 1_556 S
N645 C638 1.356 . S
N645 H648 0.984 . S
N645 H649 0.985 . S
H646 N641 0.984 . S
H647 N641 0.985 . S
H648 N645 0.984 . S
H649 N645 0.985 . S
H650 N644 0.984 . S
H651 N644 0.980 1_554 S
H652 N640 0.984 . S
H653 N640 0.985 . S
C654 C655 1.363 . S
C654 C660 1.379 . S
C654 N662 1.356 . S
C655 C654 1.363 . S
C655 C661 1.363 . S
C656 C657 1.363 . S
C656 C661 1.379 . S
C656 N663 1.356 . S
C657 C656 1.363 . S
C657 C660 1.363 . S
N658 C660 1.356 . S
N658 H670 0.984 . S
N658 H671 0.985 1_554 S
N659 C661 1.356 . S
N659 H664 0.984 . S
N659 H665 0.985 . S
C660 C654 1.379 . S
C660 C657 1.363 . S
C660 N658 1.356 . S
C661 C655 1.363 . S
C661 C656 1.379 . S
C661 N659 1.356 . S
N662 C654 1.356 . S
N662 H668 0.984 . S
N662 H669 0.984 . S
N663 C656 1.356 . S
N663 H666 0.984 . S
N663 H667 0.985 . S
H664 N659 0.984 . S
H665 N659 0.985 . S
H666 N663 0.984 . S
H667 N663 0.985 . S
H668 N662 0.984 . S
H669 N662 0.984 . S
H670 N658 0.984 . S
H671 N658 0.985 1_556 S
C672 C673 1.363 . S
C672 C678 1.379 . S
C672 N680 1.356 . S
C673 C672 1.363 . S
C673 C679 1.363 . S
C674 C675 1.363 . S
C674 C679 1.379 . S
C674 N681 1.356 . S
C675 C674 1.363 . S
C675 C678 1.363 . S
N676 C678 1.356 . S
N676 H688 0.984 . S
N676 H689 0.985 . S
N677 C679 1.356 . S
N677 H682 0.984 . S
N677 H683 0.985 . S
C678 C672 1.379 . S
C678 C675 1.363 . S
C678 N676 1.356 . S
C679 C673 1.363 . S
C679 C674 1.379 . S
C679 N677 1.356 . S
N680 C672 1.356 . S
N680 H686 0.984 . S
N680 H687 0.984 . S
N681 C674 1.356 . S
N681 H684 0.984 . S
N681 H685 0.985 . S
H682 N677 0.984 . S
H683 N677 0.985 . S
H684 N681 0.984 . S
H685 N681 0.985 . S
H686 N680 0.984 . S
H687 N680 0.984 . S
H688 N676 0.984 . S
H689 N676 0.985 . S
C690 C691 1.363 . S
C690 C696 1.379 . S
C690 N698 1.356 . S
C691 C690 1.363 . S
C691 C697 1.363 . S
C692 C693 1.363 . S
C692 C697 1.379 . S
C692 N699 1.356 . S
C693 C692 1.363 . S
C693 C696 1.363 . S
N694 C696 1.356 . S
N694 H706 0.984 . S
N694 H707 0.985 . S
N695 C697 1.356 . S
N695 H700 0.984 . S
N695 H701 0.985 . S
C696 C690 1.379 . S
C696 C693 1.363 . S
C696 N694 1.356 . S
C697 C691 1.363 . S
C697 C692 1.379 . S
C697 N695 1.356 . S
N698 C690 1.356 . S
N698 H704 0.984 . S
N698 H705 0.984 . S
N699 C692 1.356 . S
N699 H702 0.984 . S
N699 H703 0.985 . S
H700 N695 0.984 . S
H701 N695 0.985 . S
H702 N699 0.984 . S
H703 N699 0.985 . S
H704 N698 0.984 . S
H705 N698 0.984 . S
H706 N694 0.984 . S
H707 N694 0.985 . S
C708 C709 1.363 . S
C708 C714 1.379 . S
C708 N716 1.356 . S
C709 C708 1.363 . S
C709 C715 1.363 . S
C710 C711 1.363 . S
C710 C715 1.379 . S
C710 N717 1.356 . S
C711 C710 1.363 . S
C711 C714 1.363 . S
N712 C714 1.356 . S
N712 H724 0.984 . S
N712 H725 0.985 . S
N713 C715 1.356 . S
N713 H718 0.984 . S
N713 H719 0.985 . S
C714 C708 1.379 . S
C714 C711 1.363 . S
C714 N712 1.356 . S
C715 C709 1.363 . S
C715 C710 1.379 . S
C715 N713 1.356 . S
N716 C708 1.356 . S
N716 H722 0.984 . S
N716 H723 0.984 . S
N717 C710 1.356 . S
N717 H720 0.984 . S
N717 H721 0.985 1_554 S
H718 N713 0.984 . S
H719 N713 0.985 . S
H720 N717 0.984 . S
H721 N717 0.985 1_556 S
H722 N716 0.984 . S
H723 N716 0.984 . S
H724 N712 0.984 . S
H725 N712 0.985 . S
C726 C727 1.363 . S
C726 C732 1.379 . S
C726 N734 1.356 . S
C727 C726 1.363 . S
C727 C733 1.363 . S
C728 C729 1.363 . S
C728 C733 1.379 . S
C728 N735 1.356 . S
C729 C728 1.363 . S
C729 C732 1.363 . S
N730 C732 1.356 . S
N730 H742 0.984 . S
N730 H743 0.985 . S
N731 C733 1.356 . S
N731 H736 0.984 . S
N731 H737 0.985 . S
C732 C726 1.379 . S
C732 C729 1.363 . S
C732 N730 1.356 . S
C733 C727 1.363 . S
C733 C728 1.379 . S
C733 N731 1.356 . S
N734 C726 1.356 . S
N734 H740 0.984 . S
N734 H741 0.984 . S
N735 C728 1.356 . S
N735 H738 0.984 . S
N735 H739 0.985 . S
H736 N731 0.984 . S
H737 N731 0.985 . S
H738 N735 0.984 . S
H739 N735 0.985 . S
H740 N734 0.984 . S
H741 N734 0.984 . S
H742 N730 0.984 . S
H743 N730 0.985 . S
C744 C745 1.363 . S
C744 C750 1.379 . S
C744 N752 1.356 . S
C745 C744 1.363 . S
C745 C751 1.363 . S
C746 C747 1.363 . S
C746 C751 1.379 . S
C746 N753 1.356 . S
C747 C746 1.363 . S
C747 C750 1.363 . S
N748 C750 1.356 . S
N748 H760 0.984 . S
N748 H761 0.985 . S
N749 C751 1.356 . S
N749 H754 0.984 . S
N749 H755 0.985 . S
C750 C744 1.379 . S
C750 C747 1.363 . S
C750 N748 1.356 . S
C751 C745 1.363 . S
C751 C746 1.379 . S
C751 N749 1.356 . S
N752 C744 1.356 . S
N752 H758 0.984 . S
N752 H759 0.984 . S
N753 C746 1.356 . S
N753 H756 0.984 . S
N753 H757 0.985 . S
H754 N749 0.984 . S
H755 N749 0.985 . S
H756 N753 0.984 . S
H757 N753 0.985 . S
H758 N752 0.984 . S
H759 N752 0.984 . S
H760 N748 0.984 . S
H761 N748 0.985 . S
C762 C763 1.363 . S
C762 C768 1.379 . S
C762 N770 1.356 . S
C763 C762 1.363 . S
C763 C769 1.363 . S
C764 C765 1.363 . S
C764 C769 1.379 . S
C764 N771 1.356 . S
C765 C764 1.363 . S
C765 C768 1.363 . S
N766 C768 1.356 . S
N766 H778 0.984 . S
N766 H779 0.985 . S
N767 C769 1.356 . S
N767 H772 0.984 . S
N767 H773 0.985 . S
C768 C762 1.379 . S
C768 C765 1.363 . S
C768 N766 1.356 . S
C769 C763 1.363 . S
C769 C764 1.379 . S
C769 N767 1.356 . S
N770 C762 1.356 . S
N770 H776 0.984 . S
N770 H777 0.984 . S
N771 C764 1.356 . S
N771 H774 0.984 . S
N771 H775 0.985 . S
H772 N767 0.984 . S
H773 N767 0.985 . S
H774 N771 0.984 . S
H775 N771 0.985 . S
H776 N770 0.984 . S
H777 N770 0.984 . S
H778 N766 0.984 . S
H779 N766 0.985 . S
C780 C781 1.363 . S
C780 C786 1.379 . S
C780 N788 1.356 . S
C781 C780 1.363 . S
C781 C787 1.363 . S
C782 C783 1.363 . S
C782 C787 1.379 . S
C782 N789 1.356 . S
C783 C782 1.363 . S
C783 C786 1.363 . S
N784 C786 1.356 . S
N784 H796 0.984 . S
N784 H797 0.985 . S
N785 C787 1.356 . S
N785 H790 0.984 . S
N785 H791 0.985 . S
C786 C780 1.379 . S
C786 C783 1.363 . S
C786 N784 1.356 . S
C787 C781 1.363 . S
C787 C782 1.379 . S
C787 N785 1.356 . S
N788 C780 1.356 . S
N788 H794 0.984 . S
N788 H795 0.984 . S
N789 C782 1.356 . S
N789 H792 0.984 . S
N789 H793 0.985 . S
H790 N785 0.984 . S
H791 N785 0.985 . S
H792 N789 0.984 . S
H793 N789 0.985 . S
H794 N788 0.984 . S
H795 N788 0.984 . S
H796 N784 0.984 . S
H797 N784 0.985 . S
C798 C799 1.363 . S
C798 C804 1.379 . S
C798 N806 1.356 . S
C799 C798 1.363 . S
C799 C805 1.363 . S
C800 C801 1.363 . S
C800 C805 1.379 . S
C800 N807 1.356 . S
C801 C800 1.363 . S
C801 C804 1.363 . S
N802 C804 1.356 . S
N802 H814 0.984 . S
N802 H815 0.985 . S
N803 C805 1.356 . S
N803 H808 0.984 . S
N803 H809 0.985 . S
C804 C798 1.379 . S
C804 C801 1.363 . S
C804 N802 1.356 . S
C805 C799 1.363 . S
C805 C800 1.379 . S
C805 N803 1.356 . S
N806 C798 1.356 . S
N806 H812 0.984 . S
N806 H813 0.984 . S
N807 C800 1.356 . S
N807 H810 0.984 . S
N807 H811 0.985 . S
H808 N803 0.984 . S
H809 N803 0.985 . S
H810 N807 0.984 . S
H811 N807 0.985 . S
H812 N806 0.984 . S
H813 N806 0.984 . S
H814 N802 0.984 . S
H815 N802 0.985 . S
C816 C817 1.363 . S
C816 C822 1.379 . S
C816 N824 1.356 . S
C817 C816 1.363 . S
C817 C823 1.363 . S
C818 C819 1.363 . S
C818 C823 1.379 . S
C818 N825 1.356 . S
C819 C818 1.363 . S
C819 C822 1.363 . S
N820 C822 1.356 . S
N820 H832 0.984 . S
N820 H833 0.985 . S
N821 C823 1.356 . S
N821 H826 0.984 . S
N821 H827 0.985 . S
C822 C816 1.379 . S
C822 C819 1.363 . S
C822 N820 1.356 . S
C823 C817 1.363 . S
C823 C818 1.379 . S
C823 N821 1.356 . S
N824 C816 1.356 . S
N824 H830 0.984 . S
N824 H831 0.984 . S
N825 C818 1.356 . S
N825 H828 0.984 . S
N825 H829 0.985 . S
H826 N821 0.984 . S
H827 N821 0.985 . S
H828 N825 0.984 . S
H829 N825 0.985 . S
H830 N824 0.984 . S
H831 N824 0.984 . S
H832 N820 0.984 . S
H833 N820 0.985 . S
C834 C835 1.363 . S
C834 C840 1.379 . S
C834 N842 1.356 . S
C835 C834 1.363 . S
C835 C841 1.363 . S
C836 C837 1.363 . S
C836 C841 1.379 . S
C836 N843 1.356 . S
C837 C836 1.363 . S
C837 C840 1.363 . S
N838 C840 1.356 . S
N838 H850 0.984 . S
N838 H851 0.985 . S
N839 C841 1.356 . S
N839 H844 0.984 . S
N839 H845 0.985 . S
C840 C834 1.379 . S
C840 C837 1.363 . S
C840 N838 1.356 . S
C841 C835 1.363 . S
C841 C836 1.379 . S
C841 N839 1.356 . S
N842 C834 1.356 . S
N842 H848 0.984 . S
N842 H849 0.984 . S
N843 C836 1.356 . S
N843 H846 0.984 1_554 S
N843 H847 0.986 . S
H844 N839 0.984 . S
H845 N839 0.985 . S
H846 N843 0.984 1_556 S
H847 N843 0.986 . S
H848 N842 0.984 . S
H849 N842 0.984 . S
H850 N838 0.984 . S
H851 N838 0.985 . S
C852 C853 1.363 . S
C852 C858 1.379 . S
C852 N860 1.356 . S
C853 C852 1.363 . S
C853 C859 1.363 . S
C854 C855 1.363 . S
C854 C859 1.379 . S
C854 N861 1.356 . S
C855 C854 1.363 . S
C855 C858 1.363 . S
N856 C858 1.356 . S
N856 H868 0.984 . S
N856 H869 0.985 . S
N857 C859 1.356 . S
N857 H862 0.984 . S
N857 H863 0.985 . S
C858 C852 1.379 . S
C858 C855 1.363 . S
C858 N856 1.356 . S
C859 C853 1.363 . S
C859 C854 1.379 . S
C859 N857 1.356 . S
N860 C852 1.356 . S
N860 H866 0.984 . S
N860 H867 0.984 . S
N861 C854 1.356 . S
N861 H864 0.984 . S
N861 H865 0.985 . S
H862 N857 0.984 . S
H863 N857 0.985 . S
H864 N861 0.984 . S
H865 N861 0.985 . S
H866 N860 0.984 . S
H867 N860 0.984 . S
H868 N856 0.984 . S
H869 N856 0.985 . S
C870 C871 1.363 . S
C870 C876 1.379 . S
C870 N878 1.356 . S
C871 C870 1.363 . S
C871 C877 1.363 . S
C872 C873 1.363 . S
C872 C877 1.379 . S
C872 N879 1.356 . S
C873 C872 1.363 . S
C873 C876 1.363 . S
N874 C876 1.356 . S
N874 H886 0.984 . S
N874 H887 0.985 . S
N875 C877 1.356 . S
N875 H880 0.984 . S
N875 H881 0.985 . S
C876 C870 1.379 . S
C876 C873 1.363 . S
C876 N874 1.356 . S
C877 C871 1.363 . S
C877 C872 1.379 . S
C877 N875 1.356 . S
N878 C870 1.356 . S
N878 H884 0.984 . S
N878 H885 0.984 . S
N879 C872 1.356 . S
N879 H882 0.984 1_554 S
N879 H883 0.985 1_554 S
H880 N875 0.984 . S
H881 N875 0.985 . S
H882 N879 0.984 1_556 S
H883 N879 0.985 1_556 S
H884 N878 0.984 . S
H885 N878 0.984 . S
H886 N874 0.984 . S
H887 N874 0.985 . S
C888 C889 1.363 . S
C888 C894 1.379 . S
C888 N896 1.356 . S
C889 C888 1.363 . S
C889 C895 1.363 . S
C890 C891 1.363 . S
C890 C895 1.379 . S
C890 N897 1.356 . S
C891 C890 1.363 . S
C891 C894 1.363 . S
N892 C894 1.356 . S
N892 H904 0.984 . S
N892 H905 0.985 . S
N893 C895 1.356 . S
N893 H898 0.984 . S
N893 H899 0.985 . S
C894 C888 1.379 . S
C894 C891 1.363 . S
C894 N892 1.356 . S
C895 C889 1.363 . S
C895 C890 1.379 . S
C895 N893 1.356 . S
N896 C888 1.356 . S
N896 H902 0.984 . S
N896 H903 0.984 . S
N897 C890 1.356 . S
N897 H900 0.984 . S
N897 H901 0.985 . S
H898 N893 0.984 . S
H899 N893 0.985 . S
H900 N897 0.984 . S
H901 N897 0.985 . S
H902 N896 0.984 . S
H903 N896 0.984 . S
H904 N892 0.984 . S
H905 N892 0.985 . S
C906 C907 1.363 . S
C906 C912 1.379 . S
C906 N914 1.356 . S
C907 C906 1.363 . S
C907 C913 1.363 . S
C908 C909 1.363 . S
C908 C913 1.379 . S
C908 N915 1.356 . S
C909 C908 1.363 . S
C909 C912 1.363 . S
N910 C912 1.356 . S
N910 H922 0.984 . S
N910 H923 0.985 . S
N911 C913 1.356 . S
N911 H916 0.984 . S
N911 H917 0.985 . S
C912 C906 1.379 . S
C912 C909 1.363 . S
C912 N910 1.356 . S
C913 C907 1.363 . S
C913 C908 1.379 . S
C913 N911 1.356 . S
N914 C906 1.356 . S
N914 H920 0.984 . S
N914 H921 0.984 . S
N915 C908 1.356 . S
N915 H918 0.984 . S
N915 H919 0.985 . S
H916 N911 0.984 . S
H917 N911 0.985 . S
H918 N915 0.984 . S
H919 N915 0.985 . S
H920 N914 0.984 . S
H921 N914 0.984 . S
H922 N910 0.984 . S
H923 N910 0.985 . S
C924 C925 1.363 . S
C924 C930 1.379 . S
C924 N932 1.356 . S
C925 C924 1.363 . S
C925 C931 1.363 . S
C926 C927 1.363 . S
C926 C931 1.379 . S
C926 N933 1.356 . S
C927 C926 1.363 . S
C927 C930 1.363 . S
N928 C930 1.356 . S
N928 H940 0.984 . S
N928 H941 0.985 . S
N929 C931 1.356 . S
N929 H934 0.984 . S
N929 H935 0.985 . S
C930 C924 1.379 . S
C930 C927 1.363 . S
C930 N928 1.356 . S
C931 C925 1.363 . S
C931 C926 1.379 . S
C931 N929 1.356 . S
N932 C924 1.356 . S
N932 H938 0.984 . S
N932 H939 0.984 . S
N933 C926 1.356 . S
N933 H936 0.984 . S
N933 H937 0.985 . S
H934 N929 0.984 . S
H935 N929 0.985 . S
H936 N933 0.984 . S
H937 N933 0.985 . S
H938 N932 0.984 . S
H939 N932 0.984 . S
H940 N928 0.984 . S
H941 N928 0.985 . S
C942 C943 1.363 . S
C942 C948 1.379 . S
C942 N950 1.356 . S
C943 C942 1.363 . S
C943 C949 1.363 . S
C944 C945 1.363 . S
C944 C949 1.379 . S
C944 N951 1.356 . S
C945 C944 1.363 . S
C945 C948 1.363 . S
N946 C948 1.356 . S
N946 H958 0.984 . S
N946 H959 0.985 . S
N947 C949 1.356 . S
N947 H952 0.984 . S
N947 H953 0.985 . S
C948 C942 1.379 . S
C948 C945 1.363 . S
C948 N946 1.356 . S
C949 C943 1.363 . S
C949 C944 1.379 . S
C949 N947 1.356 . S
N950 C942 1.356 . S
N950 H956 0.984 . S
N950 H957 0.984 . S
N951 C944 1.356 . S
N951 H954 0.984 . S
N951 H955 0.985 . S
H952 N947 0.984 . S
H953 N947 0.985 . S
H954 N951 0.984 . S
H955 N951 0.985 . S
H956 N950 0.984 . S
H957 N950 0.984 . S
H958 N946 0.984 . S
H959 N946 0.985 . S
C960 C961 1.363 . S
C960 C966 1.379 . S
C960 N968 1.356 1_565 S
C961 C960 1.363 . S
C961 C967 1.363 . S
C962 C963 1.363 . S
C962 C967 1.379 . S
C962 N969 1.356 . S
C963 C962 1.363 . S
C963 C966 1.363 . S
N964 C966 1.356 . S
N964 H976 0.984 . S
N964 H977 0.985 . S
N965 C967 1.356 . S
N965 H970 0.984 . S
N965 H971 0.985 . S
C966 C960 1.379 . S
C966 C963 1.363 . S
C966 N964 1.356 . S
C967 C961 1.363 . S
C967 C962 1.379 . S
C967 N965 1.356 . S
N968 C960 1.356 1_545 S
N968 H974 0.984 . S
N968 H975 0.984 . S
N969 C962 1.356 . S
N969 H972 0.984 . S
N969 H973 0.985 . S
H970 N965 0.984 . S
H971 N965 0.985 . S
H972 N969 0.984 . S
H973 N969 0.985 . S
H974 N968 0.984 . S
H975 N968 0.984 . S
H976 N964 0.984 . S
H977 N964 0.985 . S
C978 C979 1.363 . S
C978 C984 1.379 . S
C978 N986 1.356 . S
C979 C978 1.363 . S
C979 C985 1.363 . S
C980 C981 1.363 . S
C980 C985 1.379 . S
C980 N987 1.356 . S
C981 C980 1.363 . S
C981 C984 1.363 . S
N982 C984 1.356 . S
N982 H994 0.984 . S
N982 H995 0.985 . S
N983 C985 1.356 . S
N983 H988 0.984 . S
N983 H989 0.985 . S
C984 C978 1.379 . S
C984 C981 1.363 . S
C984 N982 1.356 . S
C985 C979 1.363 . S
C985 C980 1.379 . S
C985 N983 1.356 . S
N986 C978 1.356 . S
N986 H992 0.984 . S
N986 H993 0.984 . S
N987 C980 1.356 . S
N987 H990 0.984 . S
N987 H991 0.985 . S
H988 N983 0.984 . S
H989 N983 0.985 . S
H990 N987 0.984 . S
H991 N987 0.985 . S
H992 N986 0.984 . S
H993 N986 0.984 . S
H994 N982 0.984 . S
H995 N982 0.985 . S
C996 C997 1.363 . S
C996 C1002 1.379 . S
C996 N1004 1.356 . S
C997 C996 1.363 . S
C997 C1003 1.363 . S
C998 C999 1.363 . S
C998 C1003 1.379 . S
C998 N1005 1.356 . S
C999 C998 1.363 . S
C999 C1002 1.363 . S
N1000 C1002 1.356 . S
N1000 H1012 0.984 . S
N1000 H1013 0.985 . S
N1001 C1003 1.356 . S
N1001 H1006 0.984 . S
N1001 H1007 0.985 . S
C1002 C996 1.379 . S
C1002 C999 1.363 . S
C1002 N1000 1.356 . S
C1003 C997 1.363 . S
C1003 C998 1.379 . S
C1003 N1001 1.356 . S
N1004 C996 1.356 . S
N1004 H1010 0.991 . S
N1004 H1011 0.984 1_545 S
N1005 C998 1.356 . S
N1005 H1008 0.984 . S
N1005 H1009 0.985 . S
H1006 N1001 0.984 . S
H1007 N1001 0.985 . S
H1008 N1005 0.984 . S
H1009 N1005 0.985 . S
H1010 N1004 0.991 . S
H1011 N1004 0.984 1_565 S
H1012 N1000 0.984 . S
H1013 N1000 0.985 . S
C1014 C1015 1.363 . S
C1014 C1020 1.379 . S
C1014 N1022 1.356 . S
C1015 C1014 1.363 . S
C1015 C1021 1.363 . S
C1016 C1017 1.363 . S
C1016 C1021 1.379 . S
C1016 N1023 1.356 . S
C1017 C1016 1.363 . S
C1017 C1020 1.363 . S
N1018 C1020 1.356 1_655 S
N1018 H1030 0.984 . S
N1018 H1031 0.985 . S
N1019 C1021 1.356 . S
N1019 H1024 0.984 . S
N1019 H1025 0.985 . S
C1020 C1014 1.379 . S
C1020 C1017 1.363 . S
C1020 N1018 1.356 1_455 S
C1021 C1015 1.363 . S
C1021 C1016 1.379 . S
C1021 N1019 1.356 . S
N1022 C1014 1.356 . S
N1022 H1028 0.984 . S
N1022 H1029 0.984 . S
N1023 C1016 1.356 . S
N1023 H1026 0.984 . S
N1023 H1027 0.985 . S
H1024 N1019 0.984 . S
H1025 N1019 0.985 . S
H1026 N1023 0.984 . S
H1027 N1023 0.985 . S
H1028 N1022 0.984 . S
H1029 N1022 0.984 . S
H1030 N1018 0.984 . S
H1031 N1018 0.985 . S
C1032 C1033 1.363 . S
C1032 C1038 1.379 . S
C1032 N1040 1.356 . S
C1033 C1032 1.363 . S
C1033 C1039 1.363 1_556 S
C1034 C1035 1.363 . S
C1034 C1039 1.379 . S
C1034 N1041 1.356 . S
C1035 C1034 1.363 . S
C1035 C1038 1.363 1_554 S
N1036 C1038 1.356 . S
N1036 H1048 0.984 . S
N1036 H1049 0.985 . S
N1037 C1039 1.356 . S
N1037 H1042 0.984 . S
N1037 H1043 0.985 . S
C1038 C1032 1.379 . S
C1038 C1035 1.363 1_556 S
C1038 N1036 1.356 . S
C1039 C1033 1.363 1_554 S
C1039 C1034 1.379 . S
C1039 N1037 1.356 . S
N1040 C1032 1.356 . S
N1040 H1046 0.984 . S
N1040 H1047 0.984 . S
N1041 C1034 1.356 . S
N1041 H1044 0.984 . S
N1041 H1045 0.985 . S
H1042 N1037 0.984 . S
H1043 N1037 0.985 . S
H1044 N1041 0.984 . S
H1045 N1041 0.985 . S
H1046 N1040 0.984 . S
H1047 N1040 0.984 . S
H1048 N1036 0.984 . S
H1049 N1036 0.985 . S
C1050 C1051 1.363 1_556 S
C1050 C1056 1.379 . S
C1050 N1058 1.356 . S
C1051 C1050 1.363 1_554 S
C1051 C1057 1.363 . S
C1052 C1053 1.363 1_554 S
C1052 C1057 1.379 . S
C1052 N1059 1.356 . S
C1053 C1052 1.363 1_556 S
C1053 C1056 1.363 . S
N1054 C1056 1.356 . S
N1054 H1066 0.984 . S
N1054 H1067 0.985 . S
N1055 C1057 1.356 . S
N1055 H1060 0.984 . S
N1055 H1061 0.985 . S
C1056 C1050 1.379 . S
C1056 C1053 1.363 . S
C1056 N1054 1.356 . S
C1057 C1051 1.363 . S
C1057 C1052 1.379 . S
C1057 N1055 1.356 . S
N1058 C1050 1.356 . S
N1058 H1064 0.984 . S
N1058 H1065 0.984 . S
N1059 C1052 1.356 . S
N1059 H1062 0.984 . S
N1059 H1063 0.985 . S
H1060 N1055 0.984 . S
H1061 N1055 0.985 . S
H1062 N1059 0.984 . S
H1063 N1059 0.985 . S
H1064 N1058 0.984 . S
H1065 N1058 0.984 . S
H1066 N1054 0.984 . S
H1067 N1054 0.985 . S
C1068 C1069 1.363 . S
C1068 C1074 1.379 . S
C1068 N1076 1.356 . S
C1069 C1068 1.363 . S
C1069 C1075 1.363 1_554 S
C1070 C1071 1.363 . S
C1070 C1075 1.379 . S
C1070 N1077 1.356 . S
C1071 C1070 1.363 . S
C1071 C1074 1.363 1_556 S
N1072 C1074 1.356 . S
N1072 H1084 0.984 . S
N1072 H1085 0.985 . S
N1073 C1075 1.356 . S
N1073 H1078 0.984 . S
N1073 H1079 0.985 . S
C1074 C1068 1.379 . S
C1074 C1071 1.363 1_554 S
C1074 N1072 1.356 . S
C1075 C1069 1.363 1_556 S
C1075 C1070 1.379 . S
C1075 N1073 1.356 . S
N1076 C1068 1.356 . S
N1076 H1082 0.984 . S
N1076 H1083 0.984 . S
N1077 C1070 1.356 . S
N1077 H1080 0.984 . S
N1077 H1081 0.985 . S
H1078 N1073 0.984 . S
H1079 N1073 0.985 . S
H1080 N1077 0.984 . S
H1081 N1077 0.985 . S
H1082 N1076 0.984 . S
H1083 N1076 0.984 . S
H1084 N1072 0.984 . S
H1085 N1072 0.985 . S
C1086 C1087 1.363 . S
C1086 C1092 1.379 . S
C1086 N1094 1.356 . S
C1087 C1086 1.363 . S
C1087 C1093 1.363 1_554 S
C1088 C1089 1.363 . S
C1088 C1093 1.379 . S
C1088 N1095 1.356 . S
C1089 C1088 1.363 . S
C1089 C1092 1.363 1_556 S
N1090 C1092 1.356 . S
N1090 H1102 0.984 . S
N1090 H1103 0.985 . S
N1091 C1093 1.356 . S
N1091 H1096 0.984 1_556 S
N1091 H1097 0.985 . S
C1092 C1086 1.379 . S
C1092 C1089 1.363 1_554 S
C1092 N1090 1.356 . S
C1093 C1087 1.363 1_556 S
C1093 C1088 1.379 . S
C1093 N1091 1.356 . S
N1094 C1086 1.356 . S
N1094 H1100 0.984 . S
N1094 H1101 0.984 . S
N1095 C1088 1.356 . S
N1095 H1098 0.984 . S
N1095 H1099 0.985 . S
H1096 N1091 0.984 1_554 S
H1097 N1091 0.985 . S
H1098 N1095 0.984 . S
H1099 N1095 0.985 . S
H1100 N1094 0.984 . S
H1101 N1094 0.984 . S
H1102 N1090 0.984 . S
H1103 N1090 0.985 . S
C1104 C1105 1.363 . S
C1104 C1110 1.379 . S
C1104 N1112 1.356 . S
C1105 C1104 1.363 . S
C1105 C1111 1.363 . S
C1106 C1107 1.363 . S
C1106 C1111 1.379 . S
C1106 N1113 1.356 . S
C1107 C1106 1.363 . S
C1107 C1110 1.363 . S
N1108 C1110 1.356 . S
N1108 H1120 0.984 . S
N1108 H1121 0.985 . S
N1109 C1111 1.356 . S
N1109 H1114 0.984 . S
N1109 H1115 0.985 . S
C1110 C1104 1.379 . S
C1110 C1107 1.363 . S
C1110 N1108 1.356 . S
C1111 C1105 1.363 . S
C1111 C1106 1.379 . S
C1111 N1109 1.356 . S
N1112 C1104 1.356 . S
N1112 H1118 0.984 . S
N1112 H1119 0.984 . S
N1113 C1106 1.356 . S
N1113 H1116 0.984 . S
N1113 H1117 0.985 . S
H1114 N1109 0.984 . S
H1115 N1109 0.985 . S
H1116 N1113 0.984 . S
H1117 N1113 0.985 . S
H1118 N1112 0.984 . S
H1119 N1112 0.984 . S
H1120 N1108 0.984 . S
H1121 N1108 0.985 . S
C1122 C1123 1.363 . S
C1122 C1128 1.379 . S
C1122 N1130 1.356 . S
C1123 C1122 1.363 . S
C1123 C1129 1.363 . S
C1124 C1125 1.363 . S
C1124 C1129 1.379 . S
C1124 N1131 1.356 . S
C1125 C1124 1.363 . S
C1125 C1128 1.363 . S
N1126 C1128 1.356 . S
N1126 H1138 0.984 . S
N1126 H1139 0.985 . S
N1127 C1129 1.356 . S
N1127 H1132 0.984 . S
N1127 H1133 0.985 . S
C1128 C1122 1.379 . S
C1128 C1125 1.363 . S
C1128 N1126 1.356 . S
C1129 C1123 1.363 . S
C1129 C1124 1.379 . S
C1129 N1127 1.356 . S
N1130 C1122 1.356 . S
N1130 H1136 0.984 . S
N1130 H1137 0.984 . S
N1131 C1124 1.356 . S
N1131 H1134 0.984 . S
N1131 H1135 0.985 . S
H1132 N1127 0.984 . S
H1133 N1127 0.985 . S
H1134 N1131 0.984 . S
H1135 N1131 0.985 . S
H1136 N1130 0.984 . S
H1137 N1130 0.984 . S
H1138 N1126 0.984 . S
H1139 N1126 0.985 . S
C1140 C1141 1.363 . S
C1140 C1146 1.379 . S
C1140 N1148 1.356 . S
C1141 C1140 1.363 . S
C1141 C1147 1.363 . S
C1142 C1143 1.363 . S
C1142 C1147 1.379 . S
C1142 N1149 1.356 . S
C1143 C1142 1.363 . S
C1143 C1146 1.363 . S
N1144 C1146 1.356 . S
N1144 H1156 0.984 . S
N1144 H1157 0.985 . S
N1145 C1147 1.356 . S
N1145 H1150 0.984 . S
N1145 H1151 0.985 . S
C1146 C1140 1.379 . S
C1146 C1143 1.363 . S
C1146 N1144 1.356 . S
C1147 C1141 1.363 . S
C1147 C1142 1.379 . S
C1147 N1145 1.356 . S
N1148 C1140 1.356 . S
N1148 H1154 0.984 . S
N1148 H1155 0.984 . S
N1149 C1142 1.356 . S
N1149 H1152 0.984 . S
N1149 H1153 0.985 . S
H1150 N1145 0.984 . S
H1151 N1145 0.985 . S
H1152 N1149 0.984 . S
H1153 N1149 0.985 . S
H1154 N1148 0.984 . S
H1155 N1148 0.984 . S
H1156 N1144 0.984 . S
H1157 N1144 0.985 . S
C1158 C1159 1.363 . S
C1158 C1164 1.379 . S
C1158 N1166 1.356 . S
C1159 C1158 1.363 . S
C1159 C1165 1.363 . S
C1160 C1161 1.363 . S
C1160 C1165 1.379 . S
C1160 N1167 1.356 . S
C1161 C1160 1.363 . S
C1161 C1164 1.363 . S
N1162 C1164 1.356 . S
N1162 H1174 0.984 . S
N1162 H1175 0.985 . S
N1163 C1165 1.356 . S
N1163 H1168 0.984 . S
N1163 H1169 0.985 . S
C1164 C1158 1.379 . S
C1164 C1161 1.363 . S
C1164 N1162 1.356 . S
C1165 C1159 1.363 . S
C1165 C1160 1.379 . S
C1165 N1163 1.356 . S
N1166 C1158 1.356 . S
N1166 H1172 0.984 . S
N1166 H1173 0.984 . S
N1167 C1160 1.356 . S
N1167 H1170 0.984 . S
N1167 H1171 0.985 . S
H1168 N1163 0.984 . S
H1169 N1163 0.985 . S
H1170 N1167 0.984 . S
H1171 N1167 0.985 . S
H1172 N1166 0.984 . S
H1173 N1166 0.984 . S
H1174 N1162 0.984 . S
H1175 N1162 0.985 . S
C1176 C1177 1.363 . S
C1176 C1182 1.379 . S
C1176 N1184 1.356 . S
C1177 C1176 1.363 . S
C1177 C1183 1.363 . S
C1178 C1179 1.363 . S
C1178 C1183 1.379 . S
C1178 N1185 1.356 . S
C1179 C1178 1.363 . S
C1179 C1182 1.363 . S
N1180 C1182 1.356 . S
N1180 H1192 0.984 . S
N1180 H1193 0.985 . S
N1181 C1183 1.356 . S
N1181 H1186 0.984 . S
N1181 H1187 0.985 . S
C1182 C1176 1.379 . S
C1182 C1179 1.363 . S
C1182 N1180 1.356 . S
C1183 C1177 1.363 . S
C1183 C1178 1.379 . S
C1183 N1181 1.356 . S
N1184 C1176 1.356 . S
N1184 H1190 0.984 . S
N1184 H1191 0.984 . S
N1185 C1178 1.356 . S
N1185 H1188 0.984 1_545 S
N1185 H1189 0.976 1_545 S
H1186 N1181 0.984 . S
H1187 N1181 0.985 . S
H1188 N1185 0.984 1_565 S
H1189 N1185 0.976 1_565 S
H1190 N1184 0.984 . S
H1191 N1184 0.984 . S
H1192 N1180 0.984 . S
H1193 N1180 0.985 . S
C1194 C1195 1.363 . S
C1194 C1200 1.379 . S
C1194 N1202 1.356 . S
C1195 C1194 1.363 . S
C1195 C1201 1.363 . S
C1196 C1197 1.363 . S
C1196 C1201 1.379 . S
C1196 N1203 1.356 . S
C1197 C1196 1.363 . S
C1197 C1200 1.363 . S
N1198 C1200 1.356 . S
N1198 H1210 0.984 . S
N1198 H1211 0.985 1_455 S
N1199 C1201 1.356 . S
N1199 H1204 0.984 . S
N1199 H1205 0.985 . S
C1200 C1194 1.379 . S
C1200 C1197 1.363 . S
C1200 N1198 1.356 . S
C1201 C1195 1.363 . S
C1201 C1196 1.379 . S
C1201 N1199 1.356 . S
N1202 C1194 1.356 . S
N1202 H1208 0.984 . S
N1202 H1209 0.984 . S
N1203 C1196 1.356 . S
N1203 H1206 0.984 . S
N1203 H1207 0.985 . S
H1204 N1199 0.984 . S
H1205 N1199 0.985 . S
H1206 N1203 0.984 . S
H1207 N1203 0.985 . S
H1208 N1202 0.984 . S
H1209 N1202 0.984 . S
H1210 N1198 0.984 . S
H1211 N1198 0.985 1_655 S
C1212 C1213 1.363 . S
C1212 C1218 1.379 . S
C1212 N1220 1.356 . S
C1213 C1212 1.363 . S
C1213 C1219 1.363 . S
C1214 C1215 1.363 . S
C1214 C1219 1.379 . S
C1214 N1221 1.356 . S
C1215 C1214 1.363 . S
C1215 C1218 1.363 . S
N1216 C1218 1.356 . S
N1216 H1228 0.984 . S
N1216 H1229 0.985 . S
N1217 C1219 1.356 . S
N1217 H1222 0.984 . S
N1217 H1223 0.985 . S
C1218 C1212 1.379 . S
C1218 C1215 1.363 . S
C1218 N1216 1.356 . S
C1219 C1213 1.363 . S
C1219 C1214 1.379 . S
C1219 N1217 1.356 . S
N1220 C1212 1.356 . S
N1220 H1226 0.984 . S
N1220 H1227 0.984 . S
N1221 C1214 1.356 . S
N1221 H1224 0.984 . S
N1221 H1225 0.985 . S
H1222 N1217 0.984 . S
H1223 N1217 0.985 . S
H1224 N1221 0.984 . S
H1225 N1221 0.985 . S
H1226 N1220 0.984 . S
H1227 N1220 0.984 . S
H1228 N1216 0.984 . S
H1229 N1216 0.985 . S
C1230 C1231 1.363 . S
C1230 C1236 1.379 . S
C1230 N1238 1.356 . S
C1231 C1230 1.363 . S
C1231 C1237 1.363 . S
C1232 C1233 1.363 . S
C1232 C1237 1.379 . S
C1232 N1239 1.356 . S
C1233 C1232 1.363 . S
C1233 C1236 1.363 . S
N1234 C1236 1.356 . S
N1234 H1246 0.984 . S
N1234 H1247 0.985 . S
N1235 C1237 1.356 . S
N1235 H1240 0.984 . S
N1235 H1241 0.985 . S
C1236 C1230 1.379 . S
C1236 C1233 1.363 . S
C1236 N1234 1.356 . S
C1237 C1231 1.363 . S
C1237 C1232 1.379 . S
C1237 N1235 1.356 . S
N1238 C1230 1.356 . S
N1238 H1244 0.984 . S
N1238 H1245 0.984 . S
N1239 C1232 1.356 . S
N1239 H1242 0.984 . S
N1239 H1243 0.985 . S
H1240 N1235 0.984 . S
H1241 N1235 0.985 . S
H1242 N1239 0.984 . S
H1243 N1239 0.985 . S
H1244 N1238 0.984 . S
H1245 N1238 0.984 . S
H1246 N1234 0.984 . S
H1247 N1234 0.985 . S
C529 C8 1.227 . S
C531 C470 1.227 . S
C547 C503 1.227 . S
C549 C41 1.227 . S
C565 C404 1.227 . S
C567 C74 1.227 . S
C583 C107 1.227 . S
C585 C437 1.227 . S
C601 C140 1.227 . S
C603 C338 1.227 . S
C619 C371 1.227 . S
C621 C173 1.227 . S
C637 C206 1.227 . S
C639 C272 1.227 . S
C655 C305 1.227 . S
C657 C239 1.227 . S
C673 N137 1.405 . S
C675 N5 1.405 . S
C691 N38 1.405 . S
C693 N170 1.405 . S
C709 N71 1.405 . S
C711 N203 1.405 . S
C727 N104 1.405 . S
C729 N236 1.405 . S
C745 N401 1.405 . S
C747 N269 1.405 . S
C763 N434 1.405 . S
C765 N302 1.405 . S
C781 N335 1.405 . S
C783 N467 1.405 . S
C799 N368 1.405 . S
C801 N500 1.405 . S
C817 C17 1.536 . S
C819 C479 1.536 . S
C835 C512 1.536 . S
C837 C50 1.536 . S
C853 C83 1.536 . S
C855 C413 1.536 . S
C871 C446 1.536 . S
C873 C116 1.536 . S
C889 C347 1.536 . S
C891 C149 1.536 . S
C907 C380 1.536 . S
C909 C182 1.536 . S
C925 C215 1.536 . S
C927 C281 1.536 . S
C943 C248 1.536 . S
C945 C314 1.536 . S
C961 N14 1.551 1_565 S
C963 C391 1.619 . S
C979 C292 1.619 . S
C981 N47 1.551 1_655 S
C997 N80 1.551 1_545 S
C999 C325 1.619 . S
C1015 C358 1.619 . S
C1017 N113 1.551 1_455 S
C1033 C193 1.619 . S
C1035 N146 1.551 . S
C1051 C226 1.619 . S
C1053 N179 1.551 . S
C1069 N212 1.551 . S
C1071 C259 1.619 . S
C1087 C160 1.619 . S
C1089 N245 1.551 . S
C1105 C127 1.619 . S
C1107 N278 1.551 . S
C1123 N311 1.551 . S
C1125 C28 1.619 . S
C1141 N344 1.551 . S
C1143 C61 1.619 . S
C1159 C94 1.619 . S
C1161 N377 1.551 . S
C1177 C457 1.619 . S
C1179 N410 1.551 1_545 S
C1195 C490 1.619 . S
C1197 N443 1.551 1_455 S
C1213 C523 1.619 . S
C1215 N476 1.551 1_565 S
C1231 N509 1.551 1_655 S
C1233 C424 1.619 . S
