# Generated by pormake.
# Topology uoi, (4)-cn, num edge types: 1
# Building blocks:
#     Node 0, Type 0, BuildingBlock: QUQFOY_clean_sbu_3, # of connection points: 4
#     Node 1, Type 0, BuildingBlock: QUQFOY_clean_sbu_3, # of connection points: 4
#     Node 2, Type 0, BuildingBlock: QUQFOY_clean_sbu_3, # of connection points: 4
#     Node 3, Type 0, BuildingBlock: QUQFOY_clean_sbu_3, # of connection points: 4
#     Node 4, Type 0, BuildingBlock: QUQFOY_clean_sbu_3, # of connection points: 4
#     Node 5, Type 0, BuildingBlock: QUQFOY_clean_sbu_3, # of connection points: 4
#     Node 6, Type 0, BuildingBlock: QUQFOY_clean_sbu_3, # of connection points: 4
#     Node 7, Type 0, BuildingBlock: QUQFOY_clean_sbu_3, # of connection points: 4
#     Node 8, Type 0, BuildingBlock: QUQFOY_clean_sbu_3, # of connection points: 4
#     Node 9, Type 0, BuildingBlock: QUQFOY_clean_sbu_3, # of connection points: 4
#     Node 10, Type 0, BuildingBlock: QUQFOY_clean_sbu_3, # of connection points: 4
#     Node 11, Type 0, BuildingBlock: QUQFOY_clean_sbu_3, # of connection points: 4
#     Node 12, Type 0, BuildingBlock: QUQFOY_clean_sbu_3, # of connection points: 4
#     Node 13, Type 0, BuildingBlock: QUQFOY_clean_sbu_3, # of connection points: 4
#     Node 14, Type 0, BuildingBlock: QUQFOY_clean_sbu_3, # of connection points: 4
#     Node 15, Type 0, BuildingBlock: QUQFOY_clean_sbu_3, # of connection points: 4
#     Node 16, Type 0, BuildingBlock: QUQFOY_clean_sbu_3, # of connection points: 4
#     Node 17, Type 0, BuildingBlock: QUQFOY_clean_sbu_3, # of connection points: 4
#     Node 18, Type 0, BuildingBlock: QUQFOY_clean_sbu_3, # of connection points: 4
#     Node 19, Type 0, BuildingBlock: QUQFOY_clean_sbu_3, # of connection points: 4
#     Node 20, Type 0, BuildingBlock: QUQFOY_clean_sbu_3, # of connection points: 4
#     Node 21, Type 0, BuildingBlock: QUQFOY_clean_sbu_3, # of connection points: 4
#     Node 22, Type 0, BuildingBlock: QUQFOY_clean_sbu_3, # of connection points: 4
#     Node 23, Type 0, BuildingBlock: QUQFOY_clean_sbu_3, # of connection points: 4
#     Node 24, Type 0, BuildingBlock: QUQFOY_clean_sbu_3, # of connection points: 4
#     Node 25, Type 0, BuildingBlock: QUQFOY_clean_sbu_3, # of connection points: 4
#     Node 26, Type 0, BuildingBlock: QUQFOY_clean_sbu_3, # of connection points: 4
#     Node 27, Type 0, BuildingBlock: QUQFOY_clean_sbu_3, # of connection points: 4
#     Node 28, Type 0, BuildingBlock: QUQFOY_clean_sbu_3, # of connection points: 4
#     Node 29, Type 0, BuildingBlock: QUQFOY_clean_sbu_3, # of connection points: 4
#     Node 30, Type 0, BuildingBlock: QUQFOY_clean_sbu_3, # of connection points: 4
#     Node 31, Type 0, BuildingBlock: QUQFOY_clean_sbu_3, # of connection points: 4
#     Edge 32, Type (0, 0), BuildingBlock: XIVTED_clean_linker_0, # of connection points: 2
#     Edge 33, Type (0, 0), BuildingBlock: XIVTED_clean_linker_0, # of connection points: 2
#     Edge 34, Type (0, 0), BuildingBlock: XIVTED_clean_linker_0, # of connection points: 2
#     Edge 35, Type (0, 0), BuildingBlock: XIVTED_clean_linker_0, # of connection points: 2
#     Edge 36, Type (0, 0), BuildingBlock: XIVTED_clean_linker_0, # of connection points: 2
#     Edge 37, Type (0, 0), BuildingBlock: XIVTED_clean_linker_0, # of connection points: 2
#     Edge 38, Type (0, 0), BuildingBlock: XIVTED_clean_linker_0, # of connection points: 2
#     Edge 39, Type (0, 0), BuildingBlock: XIVTED_clean_linker_0, # of connection points: 2
#     Edge 40, Type (0, 0), BuildingBlock: XIVTED_clean_linker_0, # of connection points: 2
#     Edge 41, Type (0, 0), BuildingBlock: XIVTED_clean_linker_0, # of connection points: 2
#     Edge 42, Type (0, 0), BuildingBlock: XIVTED_clean_linker_0, # of connection points: 2
#     Edge 43, Type (0, 0), BuildingBlock: XIVTED_clean_linker_0, # of connection points: 2
#     Edge 44, Type (0, 0), BuildingBlock: XIVTED_clean_linker_0, # of connection points: 2
#     Edge 45, Type (0, 0), BuildingBlock: XIVTED_clean_linker_0, # of connection points: 2
#     Edge 46, Type (0, 0), BuildingBlock: XIVTED_clean_linker_0, # of connection points: 2
#     Edge 47, Type (0, 0), BuildingBlock: XIVTED_clean_linker_0, # of connection points: 2
#     Edge 48, Type (0, 0), BuildingBlock: XIVTED_clean_linker_0, # of connection points: 2
#     Edge 49, Type (0, 0), BuildingBlock: XIVTED_clean_linker_0, # of connection points: 2
#     Edge 50, Type (0, 0), BuildingBlock: XIVTED_clean_linker_0, # of connection points: 2
#     Edge 51, Type (0, 0), BuildingBlock: XIVTED_clean_linker_0, # of connection points: 2
#     Edge 52, Type (0, 0), BuildingBlock: XIVTED_clean_linker_0, # of connection points: 2
#     Edge 53, Type (0, 0), BuildingBlock: XIVTED_clean_linker_0, # of connection points: 2
#     Edge 54, Type (0, 0), BuildingBlock: XIVTED_clean_linker_0, # of connection points: 2
#     Edge 55, Type (0, 0), BuildingBlock: XIVTED_clean_linker_0, # of connection points: 2
#     Edge 56, Type (0, 0), BuildingBlock: XIVTED_clean_linker_0, # of connection points: 2
#     Edge 57, Type (0, 0), BuildingBlock: XIVTED_clean_linker_0, # of connection points: 2
#     Edge 58, Type (0, 0), BuildingBlock: XIVTED_clean_linker_0, # of connection points: 2
#     Edge 59, Type (0, 0), BuildingBlock: XIVTED_clean_linker_0, # of connection points: 2
#     Edge 60, Type (0, 0), BuildingBlock: XIVTED_clean_linker_0, # of connection points: 2
#     Edge 61, Type (0, 0), BuildingBlock: XIVTED_clean_linker_0, # of connection points: 2
#     Edge 62, Type (0, 0), BuildingBlock: XIVTED_clean_linker_0, # of connection points: 2
#     Edge 63, Type (0, 0), BuildingBlock: XIVTED_clean_linker_0, # of connection points: 2
#     Edge 64, Type (0, 0), BuildingBlock: XIVTED_clean_linker_0, # of connection points: 2
#     Edge 65, Type (0, 0), BuildingBlock: XIVTED_clean_linker_0, # of connection points: 2
#     Edge 66, Type (0, 0), BuildingBlock: XIVTED_clean_linker_0, # of connection points: 2
#     Edge 67, Type (0, 0), BuildingBlock: XIVTED_clean_linker_0, # of connection points: 2
#     Edge 68, Type (0, 0), BuildingBlock: XIVTED_clean_linker_0, # of connection points: 2
#     Edge 69, Type (0, 0), BuildingBlock: XIVTED_clean_linker_0, # of connection points: 2
#     Edge 70, Type (0, 0), BuildingBlock: XIVTED_clean_linker_0, # of connection points: 2
#     Edge 71, Type (0, 0), BuildingBlock: XIVTED_clean_linker_0, # of connection points: 2
#     Edge 72, Type (0, 0), BuildingBlock: XIVTED_clean_linker_0, # of connection points: 2
#     Edge 73, Type (0, 0), BuildingBlock: XIVTED_clean_linker_0, # of connection points: 2
#     Edge 74, Type (0, 0), BuildingBlock: XIVTED_clean_linker_0, # of connection points: 2
#     Edge 75, Type (0, 0), BuildingBlock: XIVTED_clean_linker_0, # of connection points: 2
#     Edge 76, Type (0, 0), BuildingBlock: XIVTED_clean_linker_0, # of connection points: 2
#     Edge 77, Type (0, 0), BuildingBlock: XIVTED_clean_linker_0, # of connection points: 2
#     Edge 78, Type (0, 0), BuildingBlock: XIVTED_clean_linker_0, # of connection points: 2
#     Edge 79, Type (0, 0), BuildingBlock: XIVTED_clean_linker_0, # of connection points: 2
#     Edge 80, Type (0, 0), BuildingBlock: XIVTED_clean_linker_0, # of connection points: 2
#     Edge 81, Type (0, 0), BuildingBlock: XIVTED_clean_linker_0, # of connection points: 2
#     Edge 82, Type (0, 0), BuildingBlock: XIVTED_clean_linker_0, # of connection points: 2
#     Edge 83, Type (0, 0), BuildingBlock: XIVTED_clean_linker_0, # of connection points: 2
#     Edge 84, Type (0, 0), BuildingBlock: XIVTED_clean_linker_0, # of connection points: 2
#     Edge 85, Type (0, 0), BuildingBlock: XIVTED_clean_linker_0, # of connection points: 2
#     Edge 86, Type (0, 0), BuildingBlock: XIVTED_clean_linker_0, # of connection points: 2
#     Edge 87, Type (0, 0), BuildingBlock: XIVTED_clean_linker_0, # of connection points: 2
#     Edge 88, Type (0, 0), BuildingBlock: XIVTED_clean_linker_0, # of connection points: 2
#     Edge 89, Type (0, 0), BuildingBlock: XIVTED_clean_linker_0, # of connection points: 2
#     Edge 90, Type (0, 0), BuildingBlock: XIVTED_clean_linker_0, # of connection points: 2
#     Edge 91, Type (0, 0), BuildingBlock: XIVTED_clean_linker_0, # of connection points: 2
#     Edge 92, Type (0, 0), BuildingBlock: XIVTED_clean_linker_0, # of connection points: 2
#     Edge 93, Type (0, 0), BuildingBlock: XIVTED_clean_linker_0, # of connection points: 2
#     Edge 94, Type (0, 0), BuildingBlock: XIVTED_clean_linker_0, # of connection points: 2
#     Edge 95, Type (0, 0), BuildingBlock: XIVTED_clean_linker_0, # of connection points: 2
# Relax obj value: 0.256
# Max RMSD: 0.458
# Mean RMSD: 0.285
data_MOF--net-uoi--node1-QUQFOY_clean_sbu_3--edge1-XIVTED_clean_linker_0
_symmetry_space_group_name_H-M    P1
_symmetry_Int_Tables_number       1
_symmetry_cell_setting            triclinic
loop_
_symmetry_equiv_pos_as_xyz
'x, y, z'
_cell_length_a     51.003905
_cell_length_b     76.787587
_cell_length_c     21.121003
_cell_angle_alpha  90.034235
_cell_angle_beta   90.036138
_cell_angle_gamma 89.999249
loop_
_atom_site_label
_atom_site_type_symbol
_atom_site_fract_x
_atom_site_fract_y
_atom_site_fract_z
_atom_type_partial_charge
C0 C 0.33754 0.16409 0.33284 0.0
O1 O 0.34369 0.15506 0.28509 0.0
Cd2 Cd 0.37386 0.17753 0.24136 0.0
O3 O 0.34268 0.18018 0.33054 0.0
Cd4 Cd 0.34205 0.18909 0.21667 0.0
C5 C 0.36384 0.21779 0.30157 0.0
O6 O 0.37688 0.18471 0.1317 0.0
O7 O 0.35911 0.2102 0.14706 0.0
O8 O 0.31647 0.16493 0.18097 0.0
C9 C 0.37387 0.20049 0.11419 0.0
O10 O 0.38025 0.20527 0.30048 0.0
C11 C 0.29571 0.17336 0.1685 0.0
O12 O 0.34217 0.21612 0.27256 0.0
O13 O 0.29616 0.18973 0.1782 0.0
C14 C 0.10766 0.95681 0.5847 0.0
O15 O 0.09194 0.96335 0.54458 0.0
Cd16 Cd 0.06003 0.94663 0.48704 0.0
O17 O 0.10973 0.94035 0.59033 0.0
Cd18 Cd 0.09336 0.91368 0.53636 0.0
C19 C 0.03655 0.92088 0.6102 0.0
O20 O 0.08029 0.92364 0.4309 0.0
O21 O 0.06404 0.89933 0.4644 0.0
O22 O 0.13763 0.90653 0.51087 0.0
C23 C 0.06588 0.91043 0.4203 0.0
O24 O 0.0336 0.93287 0.56906 0.0
C25 C 0.13677 0.89075 0.5286 0.0
O26 O 0.05766 0.91198 0.61297 0.0
O27 O 0.11573 0.88561 0.55502 0.0
C28 C 0.18007 0.83766 0.81444 0.0
O29 O 0.15571 0.84078 0.8114 0.0
Cd30 Cd 0.13176 0.82251 0.7358 0.0
O31 O 0.19033 0.82709 0.77576 0.0
Cd32 Cd 0.17871 0.8108 0.68185 0.0
C33 C 0.15227 0.78143 0.77421 0.0
O34 O 0.13965 0.82126 0.62221 0.0
O35 O 0.15074 0.79386 0.61882 0.0
O36 O 0.202 0.8327 0.62932 0.0
C37 C 0.1372 0.80627 0.59662 0.0
O38 O 0.13407 0.79278 0.77387 0.0
C39 C 0.22053 0.82353 0.60728 0.0
O40 O 0.17422 0.78463 0.74764 0.0
O41 O 0.22012 0.80725 0.61966 0.0
C42 C 0.34604 0.07071 0.12944 0.0
O43 O 0.34408 0.06936 0.06992 0.0
Cd44 Cd 0.36679 0.09703 0.05546 0.0
O45 O 0.35515 0.0849 0.15109 0.0
Cd46 Cd 0.3695 0.1082 0.06678 0.0
C47 C 0.41285 0.10503 0.15496 0.0
O48 O 0.38531 0.09573 0.95848 0.0
O49 O 0.41083 0.11338 0.00814 0.0
O50 O 0.32776 0.11983 0.02562 0.0
C51 C 0.40659 0.10424 0.95919 0.0
O52 O 0.40682 0.092 0.12115 0.0
C53 C 0.33317 0.13556 0.03927 0.0
O54 O 0.39842 0.11839 0.15072 0.0
O55 O 0.35457 0.13826 0.06827 0.0
C56 C 0.31103 0.83014 0.14538 0.0
O57 O 0.32701 0.83993 0.17425 0.0
Cd58 Cd 0.35685 0.81993 0.229 0.0
O59 O 0.31016 0.81419 0.16022 0.0
Cd60 Cd 0.32002 0.80493 0.26813 0.0
C61 C 0.34944 0.77795 0.17967 0.0
O62 O 0.35468 0.81609 0.34241 0.0
O63 O 0.34478 0.7884 0.33944 0.0
O64 O 0.29203 0.82759 0.29975 0.0
C65 C 0.35651 0.8009 0.36669 0.0
O66 O 0.36384 0.79151 0.178 0.0
C67 C 0.27366 0.81823 0.32177 0.0
O68 O 0.32795 0.77828 0.21023 0.0
O69 O 0.27669 0.80172 0.31994 0.0
C70 C 0.37928 0.96779 0.39599 0.0
O71 O 0.39576 0.97176 0.43874 0.0
Cd72 Cd 0.42477 0.95236 0.49295 0.0
O73 O 0.37524 0.95188 0.38123 0.0
Cd74 Cd 0.39056 0.92267 0.4208 0.0
C75 C 0.4507 0.93065 0.36374 0.0
O76 O 0.39931 0.92905 0.53235 0.0
O77 O 0.41572 0.90536 0.49503 0.0
O78 O 0.34566 0.91287 0.42264 0.0
C79 C 0.41253 0.9153 0.54216 0.0
O80 O 0.45371 0.94076 0.4111 0.0
C81 C 0.35014 0.89791 0.39931 0.0
O82 O 0.42882 0.92319 0.35294 0.0
O83 O 0.37344 0.89475 0.38152 0.0
C84 C 0.19335 0.16561 0.62894 0.0
O85 O 0.16976 0.16036 0.62671 0.0
Cd86 Cd 0.13494 0.17512 0.68882 0.0
O87 O 0.19959 0.17818 0.66466 0.0
Cd88 Cd 0.17761 0.19551 0.74268 0.0
C89 C 0.13211 0.21644 0.64765 0.0
O90 O 0.14071 0.18336 0.80043 0.0
O91 O 0.17792 0.17102 0.81648 0.0
O92 O 0.22258 0.20428 0.75724 0.0
C93 C 0.15596 0.17566 0.83887 0.0
O94 O 0.12146 0.20174 0.63734 0.0
C95 C 0.21941 0.2111 0.81134 0.0
O96 O 0.15201 0.21756 0.68392 0.0
O97 O 0.19587 0.21308 0.82958 0.0
C98 C 0.12178 0.0379 0.93213 0.0
O99 O 0.10916 0.03105 0.97757 0.0
Cd100 Cd 0.07863 0.04678 0.04212 0.0
O101 O 0.12228 0.0544 0.92516 0.0
Cd102 Cd 0.10793 0.08131 0.98159 0.0
C103 C 0.04972 0.07064 0.91929 0.0
O104 O 0.09958 0.07096 0.08761 0.0
O105 O 0.08068 0.09499 0.06162 0.0
O106 O 0.15324 0.08897 0.99212 0.0
C107 C 0.08422 0.08327 0.10295 0.0
O108 O 0.04932 0.05893 0.96212 0.0
C109 C 0.1507 0.10487 0.97674 0.0
O110 O 0.06954 0.08064 0.91225 0.0
O111 O 0.12804 0.10985 0.95905 0.0
C112 C 0.68466 0.82437 0.63422 0.0
O113 O 0.66025 0.82462 0.62245 0.0
Cd114 Cd 0.6297 0.80484 0.67762 0.0
O115 O 0.69354 0.81425 0.67639 0.0
Cd116 Cd 0.67587 0.79405 0.75241 0.0
C117 C 0.64685 0.76389 0.65219 0.0
O118 O 0.63142 0.79873 0.79092 0.0
O119 O 0.66054 0.81672 0.82486 0.0
O120 O 0.72208 0.79321 0.77869 0.0
C121 C 0.63921 0.80873 0.83494 0.0
O122 O 0.63159 0.77593 0.63343 0.0
C123 C 0.71921 0.78721 0.83409 0.0
O124 O 0.66407 0.76697 0.69455 0.0
O125 O 0.69623 0.78248 0.84951 0.0
C126 C 0.86633 0.02255 0.43074 0.0
O127 O 0.88253 0.01639 0.47051 0.0
Cd128 Cd 0.9144 0.03381 0.52551 0.0
O129 O 0.86381 0.03897 0.4243 0.0
Cd130 Cd 0.88034 0.06583 0.47736 0.0
C131 C 0.93686 0.05953 0.40157 0.0
O132 O 0.89465 0.05676 0.58334 0.0
O133 O 0.91066 0.08065 0.54539 0.0
O134 O 0.8364 0.0732 0.50728 0.0
C135 C 0.909 0.07014 0.59139 0.0
O136 O 0.94032 0.04764 0.44285 0.0
C137 C 0.83699 0.08881 0.48762 0.0
O138 O 0.91542 0.06808 0.39907 0.0
O139 O 0.8575 0.09363 0.45817 0.0
C140 C 0.80787 0.18129 0.14291 0.0
O141 O 0.83227 0.18005 0.13271 0.0
Cd142 Cd 0.85862 0.2 0.19749 0.0
O143 O 0.79986 0.19097 0.18741 0.0
Cd144 Cd 0.81609 0.20827 0.27497 0.0
C145 C 0.83098 0.2405 0.17967 0.0
O146 O 0.85984 0.19847 0.3126 0.0
O147 O 0.84821 0.22547 0.32625 0.0
O148 O 0.79989 0.18639 0.34362 0.0
C149 C 0.86365 0.21308 0.33986 0.0
O150 O 0.85008 0.23025 0.16851 0.0
C151 C 0.78107 0.19487 0.36767 0.0
O152 O 0.81205 0.23557 0.2148 0.0
O153 O 0.77824 0.21061 0.34963 0.0
C154 C 0.62353 0.95819 0.87936 0.0
O155 O 0.60955 0.96382 0.92468 0.0
Cd156 Cd 0.58084 0.94636 0.98706 0.0
O157 O 0.62605 0.94186 0.86962 0.0
Cd158 Cd 0.6134 0.9142 0.92497 0.0
C159 C 0.5535 0.92113 0.86603 0.0
O160 O 0.60593 0.92408 0.03273 0.0
O161 O 0.58789 0.8998 0.00649 0.0
O162 O 0.65902 0.90726 0.93523 0.0
C163 C 0.5921 0.91111 0.04897 0.0
O164 O 0.552 0.93271 0.9092 0.0
C165 C 0.65678 0.89111 0.92337 0.0
O166 O 0.57459 0.91249 0.85727 0.0
O167 O 0.63438 0.88579 0.90524 0.0
C168 C 0.66393 0.1637 0.84657 0.0
O169 O 0.65666 0.15299 0.80462 0.0
Cd170 Cd 0.62509 0.17306 0.75152 0.0
O171 O 0.65858 0.17956 0.83733 0.0
Cd172 Cd 0.65663 0.18457 0.72137 0.0
C173 C 0.63021 0.21361 0.8047 0.0
O174 O 0.62126 0.17981 0.64002 0.0
O175 O 0.6488 0.20184 0.63399 0.0
O176 O 0.67941 0.15855 0.6941 0.0
C177 C 0.63038 0.19293 0.60967 0.0
O178 O 0.61537 0.20032 0.80847 0.0
C179 C 0.70133 0.16567 0.68218 0.0
O180 O 0.65117 0.2126 0.77231 0.0
O181 O 0.70291 0.18215 0.68899 0.0
C182 C 0.61032 0.05045 0.5705 0.0
O183 O 0.59265 0.04611 0.53113 0.0
Cd184 Cd 0.56128 0.06574 0.48608 0.0
O185 O 0.6146 0.06646 0.58311 0.0
Cd186 Cd 0.59979 0.09579 0.54622 0.0
C187 C 0.54355 0.08776 0.62411 0.0
O188 O 0.58417 0.08919 0.44032 0.0
O189 O 0.57134 0.11354 0.48021 0.0
O190 O 0.64473 0.10287 0.5225 0.0
C191 C 0.57085 0.10304 0.43397 0.0
O192 O 0.53845 0.0775 0.57819 0.0
C193 C 0.64462 0.11783 0.54812 0.0
O194 O 0.56548 0.09574 0.62751 0.0
O195 O 0.62383 0.12234 0.57705 0.0
C196 C 0.82792 0.84354 0.34841 0.0
O197 O 0.83299 0.85193 0.29846 0.0
Cd198 Cd 0.86612 0.83031 0.26108 0.0
O199 O 0.83511 0.82782 0.35021 0.0
Cd200 Cd 0.83621 0.81677 0.23884 0.0
C201 C 0.85925 0.79092 0.33175 0.0
O202 O 0.87074 0.82091 0.15358 0.0
O203 O 0.85733 0.79493 0.17919 0.0
O204 O 0.80931 0.83909 0.19505 0.0
C205 C 0.8704 0.80458 0.14222 0.0
O206 O 0.87446 0.80406 0.32765 0.0
C207 C 0.78969 0.82967 0.18139 0.0
O208 O 0.83769 0.79101 0.3016 0.0
O209 O 0.79124 0.81353 0.19491 0.0
C210 C 0.84647 0.94154 0.08451 0.0
O211 O 0.8592 0.94865 0.0398 0.0
Cd212 Cd 0.89174 0.93418 0.97718 0.0
O213 O 0.84687 0.92504 0.09171 0.0
Cd214 Cd 0.86502 0.89918 0.03433 0.0
C215 C 0.92196 0.91176 0.09994 0.0
O216 O 0.87455 0.90924 0.92742 0.0
O217 O 0.89651 0.88711 0.9616 0.0
O218 O 0.82362 0.88511 0.01124 0.0
C219 C 0.89181 0.89764 0.91685 0.0
O220 O 0.92224 0.92355 0.05742 0.0
C221 C 0.82966 0.8706 0.03623 0.0
O222 O 0.90263 0.9013 0.10526 0.0
O223 O 0.85142 0.86985 0.06554 0.0
C224 C 0.84848 0.65919 0.85585 0.0
O225 O 0.85508 0.65073 0.80708 0.0
Cd226 Cd 0.88214 0.67473 0.76246 0.0
O227 O 0.85167 0.6755 0.85433 0.0
Cd228 Cd 0.84724 0.68487 0.74187 0.0
C229 C 0.86859 0.71378 0.82911 0.0
O230 O 0.88087 0.68318 0.65345 0.0
O231 O 0.85853 0.70702 0.6708 0.0
O232 O 0.82475 0.65926 0.70752 0.0
C233 C 0.87454 0.69859 0.63663 0.0
O234 O 0.88624 0.70208 0.8248 0.0
C235 C 0.80248 0.66621 0.6989 0.0
O236 O 0.84668 0.71143 0.80171 0.0
O237 O 0.80054 0.68248 0.70996 0.0
C238 C 0.64444 0.4413 0.07144 0.0
O239 O 0.63043 0.44788 0.02784 0.0
Cd240 Cd 0.59891 0.43249 0.96476 0.0
O241 O 0.64529 0.42483 0.07938 0.0
Cd242 Cd 0.6274 0.39832 0.02512 0.0
C243 C 0.56884 0.40976 0.08654 0.0
O244 O 0.61868 0.40799 0.91688 0.0
O245 O 0.59812 0.38514 0.94938 0.0
O246 O 0.66953 0.38423 0.00865 0.0
C247 C 0.60263 0.39576 0.90487 0.0
O248 O 0.56803 0.42137 0.04342 0.0
C249 C 0.6631 0.36995 0.03479 0.0
O250 O 0.5889 0.39999 0.09337 0.0
O251 O 0.64067 0.36934 0.06092 0.0
C252 C 0.6501 0.33764 0.34831 0.0
O253 O 0.64271 0.34749 0.30383 0.0
Cd254 Cd 0.61563 0.3246 0.2516 0.0
O255 O 0.64737 0.32144 0.34014 0.0
Cd256 Cd 0.64949 0.31541 0.22424 0.0
C257 C 0.62827 0.28449 0.30495 0.0
O258 O 0.61395 0.31854 0.14035 0.0
O259 O 0.6409 0.29628 0.14061 0.0
O260 O 0.67157 0.34204 0.19866 0.0
C261 C 0.62257 0.30469 0.11383 0.0
O262 O 0.61077 0.29631 0.30673 0.0
C263 C 0.69389 0.33535 0.18784 0.0
O264 O 0.64953 0.28742 0.27544 0.0
O265 O 0.69592 0.31889 0.19377 0.0
C266 C 0.85698 0.56084 0.5793 0.0
O267 O 0.86958 0.55408 0.53362 0.0
Cd268 Cd 0.90055 0.56939 0.46887 0.0
O269 O 0.85711 0.5773 0.58772 0.0
Cd270 Cd 0.87418 0.60373 0.53261 0.0
C271 C 0.93287 0.59138 0.58974 0.0
O272 O 0.88107 0.59437 0.42361 0.0
O273 O 0.90261 0.61696 0.45474 0.0
O274 O 0.83124 0.61654 0.51963 0.0
C275 C 0.8973 0.6064 0.41049 0.0
O276 O 0.93249 0.57987 0.54616 0.0
C277 C 0.83707 0.63119 0.54382 0.0
O278 O 0.91343 0.60158 0.59846 0.0
O279 O 0.8599 0.63272 0.56748 0.0
C280 C 0.79155 0.33422 0.65778 0.0
O281 O 0.81404 0.34128 0.65493 0.0
Cd282 Cd 0.85212 0.32924 0.71336 0.0
O283 O 0.78784 0.32128 0.69385 0.0
Cd284 Cd 0.8132 0.30647 0.77292 0.0
C285 C 0.85973 0.28785 0.67458 0.0
O286 O 0.84929 0.3213 0.8252 0.0
O287 O 0.81112 0.332 0.84262 0.0
O288 O 0.7698 0.29539 0.79509 0.0
C289 C 0.83387 0.32878 0.86373 0.0
O290 O 0.86813 0.30311 0.66302 0.0
C291 C 0.7751 0.2894 0.8495 0.0
O292 O 0.84061 0.28562 0.71255 0.0
O293 O 0.79923 0.2889 0.86443 0.0
C294 C 0.8618 0.47798 0.92653 0.0
O295 O 0.87764 0.48363 0.96814 0.0
Cd296 Cd 0.90735 0.46535 0.02597 0.0
O297 O 0.85813 0.46166 0.91984 0.0
Cd298 Cd 0.87181 0.43446 0.97568 0.0
C299 C 0.92951 0.43894 0.90357 0.0
O300 O 0.88531 0.44319 0.08272 0.0
O301 O 0.901 0.41918 0.04496 0.0
O302 O 0.82718 0.42774 0.00328 0.0
C303 C 0.89895 0.42953 0.0914 0.0
O304 O 0.93334 0.45072 0.94513 0.0
C305 C 0.82782 0.41198 0.98509 0.0
O306 O 0.90755 0.43104 0.89968 0.0
O307 O 0.84847 0.40692 0.95677 0.0
C308 C 0.70332 0.6666 0.14355 0.0
O309 O 0.67954 0.66282 0.13214 0.0
Cd310 Cd 0.64274 0.67841 0.18303 0.0
O311 O 0.7088 0.67822 0.18402 0.0
Cd312 Cd 0.68416 0.6956 0.25768 0.0
C313 C 0.64781 0.72043 0.15214 0.0
O314 O 0.64215 0.68488 0.29608 0.0
O315 O 0.676 0.67045 0.32625 0.0
O316 O 0.72836 0.70235 0.29167 0.0
C317 C 0.65299 0.67568 0.33858 0.0
O318 O 0.63598 0.70659 0.13549 0.0
C319 C 0.72207 0.70862 0.34504 0.0
O320 O 0.66556 0.71991 0.19463 0.0
O321 O 0.69774 0.71085 0.35494 0.0
C322 C 0.64 0.52495 0.41467 0.0
O323 O 0.62444 0.51896 0.45617 0.0
Cd324 Cd 0.59332 0.53633 0.51303 0.0
O325 O 0.6428 0.54136 0.4078 0.0
Cd326 Cd 0.62774 0.56836 0.46388 0.0
C327 C 0.57078 0.56248 0.38957 0.0
O328 O 0.61392 0.55899 0.56961 0.0
O329 O 0.59731 0.58281 0.53266 0.0
O330 O 0.67183 0.57541 0.49448 0.0
C331 C 0.5994 0.57224 0.57839 0.0
O332 O 0.56758 0.55056 0.43087 0.0
C333 C 0.67101 0.59131 0.47823 0.0
O334 O 0.59221 0.57104 0.38643 0.0
O335 O 0.65056 0.59641 0.44906 0.0
C336 C 0.18909 0.32583 0.12118 0.0
O337 O 0.16466 0.32697 0.11112 0.0
Cd338 Cd 0.13829 0.30706 0.17552 0.0
O339 O 0.19737 0.31596 0.16484 0.0
Cd340 Cd 0.18242 0.29769 0.25091 0.0
C341 C 0.1651 0.26649 0.15201 0.0
O342 O 0.13918 0.30791 0.29067 0.0
O343 O 0.15061 0.28087 0.30453 0.0
O344 O 0.20026 0.31898 0.31966 0.0
C345 C 0.13528 0.29332 0.31795 0.0
O346 O 0.14614 0.27703 0.14344 0.0
C347 C 0.21904 0.31017 0.34218 0.0
O348 O 0.18461 0.27089 0.18638 0.0
O349 O 0.22117 0.29446 0.3231 0.0
C350 C 0.38662 0.53478 0.91846 0.0
O351 O 0.39971 0.52847 0.9642 0.0
Cd352 Cd 0.42988 0.54516 0.02667 0.0
O353 O 0.38545 0.55122 0.91004 0.0
Cd354 Cd 0.39926 0.57859 0.96487 0.0
C355 C 0.45766 0.56892 0.90257 0.0
O356 O 0.40856 0.56925 0.07209 0.0
O357 O 0.42704 0.59307 0.04203 0.0
O358 O 0.35411 0.58617 0.97864 0.0
C359 C 0.42378 0.58183 0.08523 0.0
O360 O 0.45869 0.55742 0.94607 0.0
C361 C 0.35605 0.60185 0.9601 0.0
O362 O 0.43735 0.57843 0.89502 0.0
O363 O 0.37825 0.6067 0.93902 0.0
C364 C 0.3189 0.6641 0.64635 0.0
O365 O 0.32607 0.65407 0.69043 0.0
Cd366 Cd 0.35912 0.67484 0.7326 0.0
O367 O 0.32507 0.67998 0.6514 0.0
Cd368 Cd 0.33173 0.68701 0.76697 0.0
C369 C 0.34949 0.7172 0.68873 0.0
O370 O 0.36715 0.67755 0.8432 0.0
O371 O 0.3604 0.70509 0.82844 0.0
O372 O 0.30662 0.66338 0.80763 0.0
C373 C 0.3709 0.69316 0.86115 0.0
O374 O 0.36464 0.70411 0.68184 0.0
C375 C 0.28876 0.67235 0.83369 0.0
O376 O 0.32924 0.71565 0.72328 0.0
O377 O 0.29005 0.68884 0.82717 0.0
C378 C 0.1093 0.45914 0.42714 0.0
O379 O 0.09703 0.46594 0.47327 0.0
Cd380 Cd 0.06772 0.44993 0.54011 0.0
O381 O 0.11028 0.44263 0.42068 0.0
Cd382 Cd 0.09772 0.41566 0.47928 0.0
C383 C 0.03874 0.42516 0.41954 0.0
O384 O 0.08997 0.42623 0.58519 0.0
O385 O 0.07162 0.40184 0.56137 0.0
O386 O 0.14337 0.40928 0.4887 0.0
C387 C 0.07516 0.41378 0.60195 0.0
O388 O 0.03833 0.43701 0.46191 0.0
C389 C 0.14189 0.39331 0.47355 0.0
O390 O 0.05881 0.41542 0.41188 0.0
O391 O 0.11952 0.38761 0.45652 0.0
C392 C 0.17817 0.66698 0.33073 0.0
O393 O 0.17074 0.65718 0.28614 0.0
Cd394 Cd 0.14013 0.67838 0.23794 0.0
O395 O 0.17372 0.6831 0.32489 0.0
Cd396 Cd 0.17178 0.69071 0.20948 0.0
C397 C 0.14805 0.72013 0.28858 0.0
O398 O 0.13876 0.68232 0.12578 0.0
O399 O 0.15063 0.70941 0.13633 0.0
O400 O 0.19702 0.66635 0.17699 0.0
C401 C 0.13914 0.69779 0.10394 0.0
O402 O 0.13273 0.70702 0.29053 0.0
C403 C 0.2168 0.67463 0.15669 0.0
O404 O 0.16967 0.71883 0.25901 0.0
O405 O 0.21648 0.69117 0.16258 0.0
C406 C 0.10357 0.54274 0.07953 0.0
O407 O 0.08791 0.53743 0.03688 0.0
Cd408 Cd 0.06094 0.55638 0.97375 0.0
O409 O 0.10828 0.55894 0.08609 0.0
Cd410 Cd 0.09799 0.58701 0.03294 0.0
C411 C 0.03759 0.58308 0.09445 0.0
O412 O 0.08717 0.57798 0.92523 0.0
O413 O 0.07471 0.60364 0.95428 0.0
O414 O 0.14419 0.59143 0.01997 0.0
C415 C 0.07561 0.59214 0.91132 0.0
O416 O 0.0341 0.57153 0.05186 0.0
C417 C 0.14472 0.60701 0.04007 0.0
O418 O 0.05981 0.5905 0.10168 0.0
O419 O 0.12333 0.61325 0.06122 0.0
C420 C 0.33229 0.34116 0.82559 0.0
O421 O 0.33775 0.35057 0.77836 0.0
Cd422 Cd 0.37095 0.32984 0.73632 0.0
O423 O 0.33916 0.32537 0.8232 0.0
Cd424 Cd 0.34048 0.31626 0.70955 0.0
C425 C 0.36478 0.28891 0.79618 0.0
O426 O 0.37403 0.32383 0.6257 0.0
O427 O 0.36221 0.29686 0.64062 0.0
O428 O 0.31241 0.33884 0.67282 0.0
C429 C 0.37427 0.30801 0.60739 0.0
O430 O 0.37954 0.30232 0.79605 0.0
C431 C 0.29298 0.32935 0.65825 0.0
O432 O 0.3435 0.28924 0.76494 0.0
O433 O 0.29529 0.31302 0.6674 0.0
C434 C 0.39091 0.45132 0.57123 0.0
O435 O 0.40593 0.45711 0.52817 0.0
Cd436 Cd 0.43478 0.4393 0.46618 0.0
O437 O 0.3877 0.43497 0.57848 0.0
Cd438 Cd 0.40073 0.40734 0.52434 0.0
C439 C 0.46043 0.41386 0.58748 0.0
O440 O 0.41063 0.41683 0.41667 0.0
O441 O 0.42639 0.39205 0.44562 0.0
O442 O 0.3551 0.40006 0.51142 0.0
C443 C 0.424 0.40343 0.4026 0.0
O444 O 0.46298 0.42552 0.54493 0.0
C445 C 0.35685 0.38449 0.53122 0.0
O446 O 0.43896 0.4055 0.59401 0.0
O447 O 0.37908 0.37962 0.552 0.0
H448 H 0.24205 0.15762 0.66905 0.0
H449 H 0.33884 0.17302 0.45669 0.0
H450 H 0.19276 0.15574 0.50337 0.0
H451 H 0.29642 0.14136 0.32282 0.0
H452 H 0.30482 0.16771 0.53499 0.0
H453 H 0.28006 0.151 0.60335 0.0
C454 C 0.23924 0.15555 0.61873 0.0
C455 C 0.2144 0.15752 0.59124 0.0
C456 C 0.30326 0.16133 0.48943 0.0
C457 C 0.25799 0.1508 0.51528 0.0
C458 C 0.3227 0.16445 0.44464 0.0
C459 C 0.32052 0.15747 0.38369 0.0
C460 C 0.28111 0.15142 0.47283 0.0
C461 C 0.29896 0.14674 0.36984 0.0
C462 C 0.26097 0.15196 0.58119 0.0
C463 C 0.21168 0.15443 0.52613 0.0
N464 N 0.27969 0.14436 0.4137 0.0
N465 N 0.23339 0.15155 0.48991 0.0
H466 H 0.13162 0.94801 0.69646 0.0
H467 H 0.13608 0.04691 0.8114 0.0
H468 H 0.1139 0.9922 0.57758 0.0
H469 H 0.13047 0.00272 0.93693 0.0
H470 H 0.14251 0.02697 0.72246 0.0
H471 H 0.14545 0.96799 0.78033 0.0
C472 C 0.13117 0.96189 0.68741 0.0
C473 C 0.12107 0.96845 0.63034 0.0
C474 C 0.1404 0.02167 0.7697 0.0
C475 C 0.13683 0.99133 0.72614 0.0
C476 C 0.13688 0.03305 0.82061 0.0
C477 C 0.13216 0.02646 0.88156 0.0
C478 C 0.13935 0.00362 0.77992 0.0
C479 C 0.13354 0.00836 0.89056 0.0
C480 C 0.13899 0.97328 0.73543 0.0
C481 C 0.1211 0.98657 0.62124 0.0
N482 N 0.13663 0.99756 0.84014 0.0
N483 N 0.12851 0.99738 0.66894 0.0
H484 H 0.25923 0.82398 0.15315 0.0
H485 H 0.23047 0.84847 0.80387 0.0
H486 H 0.31634 0.85197 0.04261 0.0
H487 H 0.16831 0.84201 0.94001 0.0
H488 H 0.2617 0.85241 0.89052 0.0
H489 H 0.22522 0.83233 0.07773 0.0
C490 C 0.26449 0.83205 0.11303 0.0
C491 C 0.29058 0.83713 0.10329 0.0
C492 C 0.24114 0.85061 0.90158 0.0
C493 C 0.25186 0.84655 0.01631 0.0
C494 C 0.22331 0.84838 0.85218 0.0
C495 C 0.19686 0.84479 0.86504 0.0
C496 C 0.23257 0.84873 0.96428 0.0
C497 C 0.18854 0.84478 0.92822 0.0
C498 C 0.24506 0.83693 0.07029 0.0
C499 C 0.29642 0.84775 0.05132 0.0
N500 N 0.20649 0.84627 0.97566 0.0
N501 N 0.27725 0.85182 0.00879 0.0
H502 H 0.34639 0.07034 0.25873 0.0
H503 H 0.35504 0.96651 0.27938 0.0
H504 H 0.33616 0.03665 0.09698 0.0
H505 H 0.37419 0.00173 0.43184 0.0
H506 H 0.3396 0.99141 0.21669 0.0
H507 H 0.34755 0.04481 0.32722 0.0
C508 C 0.34394 0.05758 0.23767 0.0
C509 C 0.34152 0.05564 0.17188 0.0
C510 C 0.34687 0.99362 0.26419 0.0
C511 C 0.34327 0.02623 0.25014 0.0
C512 C 0.35559 0.97941 0.30008 0.0
C513 C 0.36627 0.98206 0.36064 0.0
C514 C 0.3487 0.01055 0.2893 0.0
C515 C 0.36649 0.99908 0.38505 0.0
C516 C 0.34471 0.04297 0.27684 0.0
C517 C 0.33824 0.03875 0.14742 0.0
N518 N 0.35807 0.01263 0.34919 0.0
N519 N 0.33959 0.02467 0.18645 0.0
H520 H 0.83208 0.84087 0.47575 0.0
H521 H 0.67924 0.83825 0.51427 0.0
H522 H 0.78039 0.8588 0.32819 0.0
H523 H 0.73357 0.8341 0.67018 0.0
H524 H 0.71477 0.85002 0.44838 0.0
H525 H 0.79609 0.84285 0.55133 0.0
C526 C 0.81327 0.84578 0.45988 0.0
C527 C 0.80912 0.84976 0.39605 0.0
C528 C 0.71872 0.84689 0.49744 0.0
C529 C 0.76738 0.85123 0.48131 0.0
C530 C 0.69843 0.8402 0.53503 0.0
C531 C 0.70363 0.83482 0.59728 0.0
C532 C 0.74424 0.84811 0.52251 0.0
C533 C 0.72883 0.83768 0.62193 0.0
C534 C 0.79262 0.84681 0.50285 0.0
C535 C 0.78433 0.85581 0.37738 0.0
N536 N 0.74822 0.84386 0.58429 0.0
N537 N 0.76413 0.85594 0.41955 0.0
H538 H 0.86036 0.98723 0.44186 0.0
H539 H 0.83411 0.97618 0.07766 0.0
H540 H 0.84145 0.03036 0.3191 0.0
H541 H 0.83605 0.93291 0.20783 0.0
H542 H 0.82943 0.99606 0.1671 0.0
H543 H 0.84497 0.96712 0.36041 0.0
C544 C 0.85258 0.9925 0.39814 0.0
C545 C 0.85263 0.01051 0.38691 0.0
C546 C 0.83027 0.9822 0.17615 0.0
C547 C 0.83526 0.9875 0.29292 0.0
C548 C 0.83287 0.97081 0.12499 0.0
C549 C 0.83596 0.95287 0.1353 0.0
C550 C 0.83127 0.97562 0.23816 0.0
C551 C 0.83396 0.94665 0.19762 0.0
C552 C 0.84372 0.98099 0.35163 0.0
C553 C 0.84202 0.01657 0.32964 0.0
N554 N 0.83237 0.95805 0.2468 0.0
N555 N 0.83424 0.00508 0.28432 0.0
H556 H 0.70595 0.14162 0.83934 0.0
H557 H 0.81385 0.16608 0.02485 0.0
H558 H 0.66539 0.17641 0.96606 0.0
H559 H 0.75648 0.17628 0.1704 0.0
H560 H 0.7784 0.15601 0.9551 0.0
H561 H 0.74283 0.14047 0.91436 0.0
C562 C 0.70452 0.14858 0.88385 0.0
C563 C 0.68271 0.15914 0.89683 0.0
C564 C 0.7737 0.15997 0.00292 0.0
C565 C 0.72481 0.15831 0.98146 0.0
C566 C 0.79394 0.16582 0.04262 0.0
C567 C 0.78809 0.17233 0.10311 0.0
C568 C 0.74755 0.16069 0.02422 0.0
C569 C 0.76192 0.17171 0.12372 0.0
C570 C 0.72574 0.14817 0.92603 0.0
C571 C 0.68191 0.16814 0.95442 0.0
N572 N 0.74267 0.16631 0.08407 0.0
N573 N 0.70269 0.16756 0.99445 0.0
H574 H 0.63589 0.99227 0.90013 0.0
H575 H 0.61327 0.01563 0.54362 0.0
H576 H 0.63354 0.95327 0.75315 0.0
H577 H 0.63676 0.0537 0.68294 0.0
H578 H 0.62659 0.99245 0.61583 0.0
H579 H 0.64254 0.01464 0.81977 0.0
C580 C 0.63734 0.98838 0.85093 0.0
C581 C 0.63376 0.97093 0.83316 0.0
C582 C 0.62935 0.00587 0.63019 0.0
C583 C 0.64078 0.99653 0.74068 0.0
C584 C 0.62169 0.01913 0.58897 0.0
C585 C 0.62344 0.03663 0.60773 0.0
C586 C 0.63838 0.01013 0.69108 0.0
C587 C 0.63481 0.04039 0.66672 0.0
C588 C 0.64115 0.00116 0.80501 0.0
C589 C 0.63606 0.96659 0.76886 0.0
N590 N 0.64133 0.02724 0.70684 0.0
N591 N 0.63882 0.97937 0.72475 0.0
H592 H 0.80692 0.6372 0.84084 0.0
H593 H 0.75386 0.66387 0.1822 0.0
H594 H 0.85056 0.66564 0.98181 0.0
H595 H 0.70284 0.65043 0.02662 0.0
H596 H 0.79154 0.65516 0.11912 0.0
H597 H 0.77147 0.63287 0.91816 0.0
C598 C 0.80948 0.64188 0.88887 0.0
C599 C 0.83159 0.65179 0.90535 0.0
C600 C 0.7721 0.65388 0.09893 0.0
C601 C 0.79128 0.64711 0.99306 0.0
C602 C 0.75055 0.65887 0.13488 0.0
C603 C 0.72521 0.65827 0.10902 0.0
C604 C 0.76846 0.64839 0.03622 0.0
C605 C 0.72208 0.6513 0.04802 0.0
C606 C 0.78916 0.63959 0.9326 0.0
C607 C 0.83378 0.65794 0.96749 0.0
N608 N 0.74356 0.64692 0.01307 0.0
N609 N 0.81377 0.65563 0.00891 0.0
H610 H 0.64701 0.48982 0.4278 0.0
H611 H 0.6551 0.47607 0.05939 0.0
H612 H 0.65968 0.53201 0.2965 0.0
H613 H 0.65931 0.43372 0.1932 0.0
H614 H 0.66361 0.49659 0.14525 0.0
H615 H 0.65803 0.46908 0.34438 0.0
C616 C 0.65259 0.49474 0.38168 0.0
C617 C 0.65201 0.51268 0.36888 0.0
C618 C 0.66323 0.48279 0.15576 0.0
C619 C 0.66424 0.48894 0.27261 0.0
C620 C 0.65839 0.47104 0.10665 0.0
C621 C 0.65604 0.45316 0.11925 0.0
C622 C 0.66527 0.47666 0.2182 0.0
C623 C 0.66075 0.4474 0.18131 0.0
C624 C 0.65891 0.48288 0.33399 0.0
C625 C 0.65969 0.5183 0.30842 0.0
N626 N 0.66457 0.45914 0.2287 0.0
N627 N 0.66496 0.50646 0.26218 0.0
H628 H 0.68913 0.36208 0.34658 0.0
H629 H 0.74005 0.33015 0.68471 0.0
H630 H 0.64867 0.32626 0.46943 0.0
H631 H 0.79164 0.35273 0.54524 0.0
H632 H 0.70278 0.33641 0.61682 0.0
H633 H 0.72279 0.36614 0.42897 0.0
C634 C 0.68686 0.35558 0.39176 0.0
C635 C 0.66617 0.34384 0.40162 0.0
C636 C 0.72219 0.34017 0.60109 0.0
C637 C 0.70442 0.34826 0.49502 0.0
C638 C 0.74354 0.33657 0.63983 0.0
C639 C 0.76908 0.34058 0.61995 0.0
C640 C 0.72625 0.34768 0.54143 0.0
C641 C 0.77228 0.34926 0.56199 0.0
C642 C 0.70618 0.35775 0.43832 0.0
C643 C 0.66435 0.33542 0.46017 0.0
N644 N 0.75109 0.35228 0.52407 0.0
N645 N 0.6833 0.33771 0.50445 0.0
H646 H 0.8575 0.51338 0.93793 0.0
H647 H 0.84572 0.52607 0.56958 0.0
H648 H 0.84068 0.47103 0.80974 0.0
H649 H 0.84394 0.56893 0.70179 0.0
H650 H 0.83776 0.50595 0.65688 0.0
H651 H 0.8468 0.53405 0.85408 0.0
C652 C 0.85111 0.50842 0.89243 0.0
C653 C 0.85038 0.49043 0.88059 0.0
C654 C 0.83857 0.51978 0.66673 0.0
C655 C 0.83849 0.51407 0.78387 0.0
C656 C 0.8431 0.53129 0.61681 0.0
C657 C 0.84595 0.5492 0.62847 0.0
C658 C 0.83733 0.52616 0.72899 0.0
C659 C 0.84211 0.55522 0.69058 0.0
C660 C 0.84496 0.52025 0.84452 0.0
C661 C 0.8417 0.48478 0.8209 0.0
N662 N 0.83856 0.54369 0.73869 0.0
N663 N 0.8366 0.49655 0.7744 0.0
H664 H 0.33616 0.33532 0.95153 0.0
H665 H 0.1839 0.33897 -0.00014 0.0
H666 H 0.28576 0.3582 0.81053 0.0
H667 H 0.23913 0.33363 0.15349 0.0
H668 H 0.21991 0.34893 0.93133 0.0
H669 H 0.30079 0.33751 0.02876 0.0
C670 C 0.31779 0.34127 0.93752 0.0
C671 C 0.31382 0.34669 0.87506 0.0
C672 C 0.22396 0.34592 0.98046 0.0
C673 C 0.27276 0.34854 0.96209 0.0
C674 C 0.20343 0.34026 0.01951 0.0
C675 C 0.20866 0.33509 0.08197 0.0
C676 C 0.24974 0.3463 0.00429 0.0
C677 C 0.23429 0.33707 0.10516 0.0
C678 C 0.29752 0.34247 0.98142 0.0
C679 C 0.28958 0.35409 0.85871 0.0
N680 N 0.25387 0.34225 0.06616 0.0
N681 N 0.26967 0.35443 0.90165 0.0
H682 H 0.38561 0.48665 0.55986 0.0
H683 H 0.37772 0.49973 0.92881 0.0
H684 H 0.37155 0.44427 0.68959 0.0
H685 H 0.37244 0.54235 0.79631 0.0
H686 H 0.36987 0.47933 0.84218 0.0
H687 H 0.37543 0.50729 0.64424 0.0
C688 C 0.37994 0.48168 0.60584 0.0
C689 C 0.37983 0.4637 0.61791 0.0
C690 C 0.36991 0.49316 0.83215 0.0
C691 C 0.36853 0.4873 0.71516 0.0
C692 C 0.3744 0.50483 0.88167 0.0
C693 C 0.37616 0.52278 0.86968 0.0
C694 C 0.36762 0.49944 0.76994 0.0
C695 C 0.37145 0.52863 0.80773 0.0
C696 C 0.37409 0.49348 0.65405 0.0
C697 C 0.37208 0.45801 0.67824 0.0
N698 N 0.36793 0.51697 0.75997 0.0
N699 N 0.36724 0.46978 0.72495 0.0
H700 H 0.17595 0.67375 0.45728 0.0
H701 H 0.32186 0.66927 0.51905 0.0
H702 H 0.22223 0.64756 0.31559 0.0
H703 H 0.27214 0.64794 0.66452 0.0
H704 H 0.28626 0.66509 0.44178 0.0
H705 H 0.21074 0.66813 0.53546 0.0
C706 C 0.19318 0.66647 0.44319 0.0
C707 C 0.19621 0.66089 0.38045 0.0
C708 C 0.28343 0.66098 0.49036 0.0
C709 C 0.23621 0.65516 0.46815 0.0
C710 C 0.30364 0.66334 0.53421 0.0
C711 C 0.2999 0.6587 0.5977 0.0
C712 C 0.25908 0.65467 0.51096 0.0
C713 C 0.27581 0.65139 0.61561 0.0
C714 C 0.21293 0.66328 0.48757 0.0
C715 C 0.21908 0.6518 0.36392 0.0
N716 N 0.25599 0.64999 0.57271 0.0
N717 N 0.23858 0.64958 0.40719 0.0
H718 H 0.12116 0.4503 0.30472 0.0
H719 H 0.12707 0.54966 0.19356 0.0
H720 H 0.11899 0.49418 0.43246 0.0
H721 H 0.10365 0.50708 0.07251 0.0
H722 H 0.13714 0.52874 0.27735 0.0
H723 H 0.12797 0.47038 0.21631 0.0
C724 C 0.12274 0.46411 0.31445 0.0
C725 C 0.11907 0.4706 0.37599 0.0
C726 C 0.13019 0.52398 0.23207 0.0
C727 C 0.12676 0.49358 0.27504 0.0
C728 C 0.12451 0.5359 0.18409 0.0
C729 C 0.11406 0.53014 0.12622 0.0
C730 C 0.12558 0.50617 0.22197 0.0
C731 C 0.11128 0.51213 0.11669 0.0
C732 C 0.12647 0.47556 0.26387 0.0
C733 C 0.12133 0.48863 0.38567 0.0
N734 N 0.11675 0.5008 0.1643 0.0
N735 N 0.12475 0.49951 0.33564 0.0
H736 H 0.14812 0.14016 -0.00163 0.0
H737 H 0.28957 0.13853 0.15473 0.0
H738 H 0.20249 0.09727 0.98441 0.0
H739 H 0.25012 0.18729 0.11925 0.0
H740 H 0.2549 0.12331 0.09918 0.0
H741 H 0.18324 0.15811 0.04441 0.0
C742 C 0.16761 0.1347 0.00313 0.0
C743 C 0.1724 0.11715 0.98832 0.0
C744 C 0.25374 0.13735 0.10319 0.0
C745 C 0.21227 0.13748 0.04073 0.0
C746 C 0.27349 0.14607 0.13539 0.0
C747 C 0.27297 0.16426 0.1406 0.0
C748 C 0.23303 0.14679 0.07618 0.0
C749 C 0.2514 0.17326 0.11534 0.0
C750 C 0.18755 0.14492 0.02959 0.0
C751 C 0.19788 0.11067 0.9959 0.0
N752 N 0.23222 0.16443 0.08383 0.0
N753 N 0.21675 0.12077 0.02215 0.0
H754 H 0.23494 0.80429 0.39872 0.0
H755 H 0.18496 0.89949 0.48574 0.0
H756 H 0.25981 0.85191 0.30824 0.0
H757 H 0.13686 0.85474 0.52845 0.0
H758 H 0.21638 0.88057 0.43433 0.0
H759 H 0.20074 0.82092 0.45503 0.0
C760 C 0.23292 0.81811 0.38989 0.0
C761 C 0.2505 0.8268 0.34965 0.0
C762 C 0.19904 0.87479 0.4551 0.0
C763 C 0.21199 0.8457 0.41368 0.0
C764 C 0.18118 0.8856 0.4851 0.0
C765 C 0.15806 0.87872 0.51059 0.0
C766 C 0.194 0.85687 0.45064 0.0
C767 C 0.15442 0.86057 0.50902 0.0
C768 C 0.21348 0.82756 0.42198 0.0
C769 C 0.24707 0.84469 0.33972 0.0
N770 N 0.17219 0.8502 0.47892 0.0
N771 N 0.22845 0.85352 0.37194 0.0
H772 H 0.29744 0.90206 0.39656 0.0
H773 H 0.26278 0.80895 0.5425 0.0
H774 H 0.35737 0.86273 0.41422 0.0
H775 H 0.2246 0.85789 0.58373 0.0
H776 H 0.29402 0.82482 0.47386 0.0
H777 H 0.26525 0.88132 0.43566 0.0
C778 C 0.30367 0.88889 0.40724 0.0
C779 C 0.33009 0.88418 0.40347 0.0
C780 C 0.27873 0.83191 0.4983 0.0
C781 C 0.29359 0.86056 0.45044 0.0
C782 C 0.26102 0.82293 0.53743 0.0
C783 C 0.2409 0.83207 0.56847 0.0
C784 C 0.27582 0.84998 0.49 0.0
C785 C 0.23954 0.85018 0.56048 0.0
C786 C 0.28536 0.87709 0.43006 0.0
C787 C 0.33712 0.86686 0.41712 0.0
N788 N 0.25656 0.85844 0.52193 0.0
N789 N 0.31901 0.85569 0.4416 0.0
H790 H 0.21702 0.21377 0.94067 0.0
H791 H 0.2871 0.13407 0.97277 0.0
H792 H 0.27149 0.20617 0.78697 0.0
H793 H 0.3416 0.17035 0.05648 0.0
H794 H 0.26213 0.15876 0.93027 0.0
H795 H 0.24678 0.19776 0.01059 0.0
C796 C 0.23571 0.20944 0.92226 0.0
C797 C 0.24126 0.21057 0.85727 0.0
C798 C 0.27947 0.1612 0.95862 0.0
C799 C 0.27525 0.19268 0.93689 0.0
C800 C 0.29372 0.1472 0.98266 0.0
C801 C 0.31655 0.15021 0.018 0.0
C802 C 0.28824 0.17823 0.96951 0.0
C803 C 0.32419 0.16753 0.02921 0.0
C804 C 0.25258 0.20024 0.9622 0.0
C805 C 0.2661 0.20513 0.8364 0.0
N806 N 0.31023 0.181 0.00438 0.0
N807 N 0.28185 0.19583 0.87565 0.0
H808 H 0.8399 0.83691 0.07152 0.0
H809 H 0.77215 0.78912 0.81624 0.0
H810 H 0.78356 0.86842 0.97116 0.0
H811 H 0.71226 0.79439 0.95912 0.0
H812 H 0.80212 0.80601 0.88338 0.0
H813 H 0.81622 0.81055 0.03643 0.0
C814 C 0.82244 0.83828 0.04293 0.0
C815 C 0.81374 0.85485 0.0241 0.0
C816 C 0.78275 0.80279 0.90088 0.0
C817 C 0.78694 0.8251 0.9846 0.0
C818 C 0.7657 0.79313 0.86288 0.0
C819 C 0.73964 0.79051 0.88197 0.0
C820 C 0.77339 0.81005 0.95731 0.0
C821 C 0.73218 0.79613 0.94261 0.0
C822 C 0.80913 0.82331 0.02296 0.0
C823 C 0.79102 0.85595 0.98685 0.0
N824 N 0.74868 0.80628 0.97716 0.0
N825 N 0.77845 0.84125 0.96813 0.0
H826 H 0.70465 0.1305 0.68325 0.0
H827 H 0.83747 0.12467 0.48326 0.0
H828 H 0.74753 0.17636 0.62631 0.0
H829 H 0.7893 0.08084 0.53643 0.0
H830 H 0.80543 0.14427 0.53317 0.0
H831 H 0.73748 0.11243 0.63286 0.0
C832 C 0.72118 0.13679 0.66055 0.0
C833 C 0.72322 0.15498 0.65837 0.0
C834 C 0.80188 0.13037 0.53341 0.0
C835 C 0.76096 0.13424 0.59941 0.0
C836 C 0.81998 0.11921 0.50439 0.0
C837 C 0.81611 0.1011 0.50612 0.0
C838 C 0.77995 0.12328 0.5643 0.0
C839 C 0.79321 0.09469 0.53439 0.0
C840 C 0.73995 0.12643 0.63152 0.0
C841 C 0.74522 0.16237 0.62885 0.0
N842 N 0.77616 0.10575 0.56266 0.0
N843 N 0.76323 0.15194 0.59996 0.0
H844 H 0.69374 0.1097 0.50865 0.0
H845 H 0.73294 0.20607 0.41275 0.0
H846 H 0.64548 0.15347 0.56189 0.0
H847 H 0.78699 0.16281 0.41908 0.0
H848 H 0.70051 0.18811 0.46918 0.0
H849 H 0.72782 0.12971 0.47483 0.0
C850 C 0.69047 0.12356 0.51409 0.0
C851 C 0.66673 0.12992 0.53799 0.0
C852 C 0.7196 0.1827 0.45872 0.0
C853 C 0.70576 0.15306 0.49884 0.0
C854 C 0.73812 0.19294 0.42678 0.0
C855 C 0.76255 0.18584 0.4103 0.0
C856 C 0.72559 0.16527 0.47324 0.0
C857 C 0.76827 0.16878 0.42974 0.0
C858 C 0.70995 0.13502 0.49464 0.0
C859 C 0.6636 0.14804 0.54403 0.0
N860 N 0.74984 0.15905 0.45917 0.0
N861 N 0.68283 0.15903 0.52386 0.0
H862 H 0.65309 0.85609 0.95032 0.0
H863 H 0.77997 0.86395 0.16439 0.0
H864 H 0.70785 0.89892 0.94496 0.0
H865 H 0.74874 0.81316 0.11965 0.0
H866 H 0.74809 0.87707 0.09405 0.0
H867 H 0.68464 0.83947 0.01455 0.0
C868 C 0.67202 0.86179 0.96092 0.0
C869 C 0.67774 0.87904 0.94321 0.0
C870 C 0.74807 0.86304 0.09955 0.0
C871 C 0.71319 0.8604 0.01771 0.0
C872 C 0.76618 0.85553 0.14016 0.0
C873 C 0.76735 0.83739 0.14695 0.0
C874 C 0.73084 0.85241 0.0651 0.0
C875 C 0.74862 0.8272 0.11516 0.0
C876 C 0.68983 0.85237 -0.00192 0.0
C877 C 0.70246 0.88579 0.9584 0.0
N878 N 0.73114 0.83486 0.07496 0.0
N879 N 0.71905 0.87658 0.9956 0.0
H880 H 0.66922 0.62719 0.48347 0.0
H881 H 0.80021 0.63105 0.69174 0.0
H882 H 0.71844 0.58317 0.52836 0.0
H883 H 0.75532 0.67715 0.64824 0.0
H884 H 0.76813 0.6135 0.63623 0.0
H885 H 0.69968 0.64618 0.54176 0.0
C886 C 0.68664 0.62158 0.50452 0.0
C887 C 0.69126 0.60354 0.50133 0.0
C888 C 0.76504 0.62743 0.63891 0.0
C889 C 0.72558 0.62501 0.5692 0.0
C890 C 0.78339 0.63749 0.6709 0.0
C891 C 0.78069 0.65564 0.67348 0.0
C892 C 0.74376 0.63551 0.60867 0.0
C893 C 0.75824 0.6632 0.64656 0.0
C894 C 0.70381 0.63238 0.53839 0.0
C895 C 0.71399 0.59695 0.52985 0.0
N896 N 0.74069 0.6531 0.61449 0.0
N897 N 0.73013 0.60764 0.56281 0.0
H898 H 0.71274 0.36788 0.98709 0.0
H899 H 0.78121 0.29067 0.97816 0.0
H900 H 0.65077 0.33625 0.0651 0.0
H901 H 0.72183 0.28953 0.83292 0.0
H902 H 0.75143 0.30761 0.0453 0.0
H903 H 0.73746 0.34134 0.96328 0.0
C904 C 0.70448 0.35539 0.00013 0.0
C905 C 0.67965 0.35425 0.02823 0.0
C906 C 0.74464 0.30294 -0.00018 0.0
C907 C 0.70773 0.32402 0.0007 0.0
C908 C 0.76151 0.29322 0.96152 0.0
C909 C 0.75446 0.28957 0.89863 0.0
C910 C 0.72047 0.30838 0.97538 0.0
C911 C 0.72838 0.29265 0.88037 0.0
C912 C 0.71862 0.34032 0.98675 0.0
C913 C 0.66989 0.33766 0.04364 0.0
N914 N 0.71255 0.30249 0.91776 0.0
N915 N 0.68378 0.32308 0.0286 0.0
H916 H 0.69491 0.37063 0.1815 0.0
H917 H 0.82973 0.37622 0.98926 0.0
H918 H 0.74194 0.32529 0.14052 0.0
H919 H 0.77926 0.41997 0.02939 0.0
H920 H 0.79834 0.35705 0.043 0.0
H921 H 0.7272 0.38876 0.12905 0.0
C922 C 0.71223 0.36449 0.16198 0.0
C923 C 0.71553 0.34637 0.16442 0.0
C924 C 0.79403 0.37079 0.03912 0.0
C925 C 0.75268 0.36715 0.1034 0.0
C926 C 0.81179 0.38173 0.00803 0.0
C927 C 0.8071 0.39974 0.00504 0.0
C928 C 0.77146 0.37795 0.06695 0.0
C929 C 0.78372 0.40619 0.03081 0.0
C930 C 0.73066 0.37487 0.13167 0.0
C931 C 0.73853 0.33919 0.13896 0.0
N932 N 0.76689 0.39533 0.06088 0.0
N933 N 0.7562 0.3496 0.10885 0.0
H934 H 0.71159 0.70383 0.4702 0.0
H935 H 0.78697 0.63104 0.49922 0.0
H936 H 0.77562 0.71006 0.33902 0.0
H937 H 0.84693 0.66557 0.57016 0.0
H938 H 0.76006 0.65633 0.47281 0.0
H939 H 0.74078 0.68784 0.54125 0.0
C940 C 0.7321 0.70268 0.45784 0.0
C941 C 0.74102 0.70771 0.39773 0.0
C942 C 0.77892 0.6583 0.4954 0.0
C943 C 0.77444 0.68994 0.47924 0.0
C944 C 0.79432 0.64393 0.51029 0.0
C945 C 0.81923 0.64623 0.53706 0.0
C946 C 0.7886 0.67509 0.50645 0.0
C947 C 0.82779 0.66329 0.54974 0.0
C948 C 0.74869 0.69351 0.49841 0.0
C949 C 0.76787 0.70602 0.38443 0.0
N950 N 0.8127 0.67719 0.53297 0.0
N951 N 0.78358 0.69683 0.42422 0.0
H952 H 0.30593 0.39269 0.50909 0.0
H953 H 0.26636 0.29773 0.38911 0.0
H954 H 0.35758 0.34862 0.53149 0.0
H955 H 0.21505 0.34245 0.3924 0.0
H956 H 0.29914 0.31467 0.44908 0.0
H957 H 0.27144 0.37322 0.47382 0.0
C958 C 0.30988 0.37883 0.50759 0.0
C959 C 0.33473 0.37229 0.52265 0.0
C960 C 0.28056 0.32064 0.43699 0.0
C961 C 0.29521 0.34975 0.48149 0.0
C962 C 0.26186 0.31097 0.40302 0.0
C963 C 0.23805 0.31874 0.38505 0.0
C964 C 0.27532 0.33814 0.45228 0.0
C965 C 0.23321 0.33593 0.4043 0.0
C966 C 0.29017 0.36767 0.48714 0.0
C967 C 0.33864 0.35418 0.52027 0.0
N968 N 0.25175 0.34504 0.43589 0.0
N969 N 0.31915 0.34351 0.49915 0.0
H970 H 0.35721 0.63781 0.96158 0.0
H971 H 0.22286 0.63969 0.15212 0.0
H972 H 0.30558 0.59384 0.98746 0.0
H973 H 0.25936 0.68742 0.08963 0.0
H974 H 0.25568 0.62319 0.09571 0.0
H975 H 0.32312 0.6569 0.00632 0.0
C976 C 0.33856 0.63223 0.97533 0.0
C977 C 0.33434 0.61416 0.97182 0.0
C978 C 0.25669 0.63727 0.09411 0.0
C979 C 0.29593 0.63573 0.02419 0.0
C980 C 0.23793 0.64675 0.12671 0.0
C981 C 0.23832 0.665 0.1256 0.0
C982 C 0.2762 0.64598 0.05971 0.0
C983 C 0.25843 0.67335 0.09179 0.0
C984 C 0.31927 0.6431 0.00132 0.0
C985 C 0.30987 0.60763 0.99023 0.0
N986 N 0.27667 0.66375 0.05995 0.0
N987 N 0.29181 0.61835 0.01635 0.0
H988 H 0.28287 0.63764 0.8508 0.0
H989 H 0.14922 0.64278 0.04389 0.0
H990 H 0.24806 0.68691 0.90239 0.0
H991 H 0.19372 0.59582 0.01117 0.0
H992 H 0.18592 0.65983 0.00092 0.0
H993 H 0.25 0.62269 0.9126 0.0
C994 C 0.26821 0.64537 0.87508 0.0
C995 C 0.26814 0.66359 0.87099 0.0
C996 C 0.18762 0.64582 0.00385 0.0
C997 C 0.23027 0.64638 0.94317 0.0
C998 C 0.16686 0.6361 0.02894 0.0
C999 C 0.16825 0.61782 0.02986 0.0
C1000 C 0.20961 0.63714 0.97926 0.0
C1001 C 0.19158 0.60984 0.01024 0.0
C1002 C 0.24943 0.63677 0.91078 0.0
C1003 C 0.24871 0.67283 0.90404 0.0
N1004 N 0.21112 0.61952 0.98494 0.0
N1005 N 0.23041 0.6641 0.93874 0.0
H1006 H 0.28161 0.36367 0.65467 0.0
H1007 H 0.14274 0.35756 0.48688 0.0
H1008 H 0.25046 0.31358 0.59997 0.0
H1009 H 0.19262 0.40296 0.48722 0.0
H1010 H 0.17932 0.34037 0.5306 0.0
H1011 H 0.24506 0.37777 0.60283 0.0
C1012 C 0.26697 0.35559 0.63187 0.0
C1013 C 0.26928 0.33741 0.63097 0.0
C1014 C 0.18222 0.35404 0.52013 0.0
C1015 C 0.22718 0.35362 0.57056 0.0
C1016 C 0.16151 0.3638 0.49472 0.0
C1017 C 0.16458 0.38177 0.48443 0.0
C1018 C 0.20583 0.36245 0.53561 0.0
C1019 C 0.18923 0.38923 0.49542 0.0
C1020 C 0.24608 0.36368 0.60198 0.0
C1021 C 0.24944 0.32765 0.60137 0.0
N1022 N 0.20872 0.3796 0.52114 0.0
N1023 N 0.22912 0.33591 0.57196 0.0
H1024 H 0.40827 0.22697 0.10812 0.0
H1025 H 0.34193 0.25664 0.79337 0.0
H1026 H 0.36383 0.19176 0.99125 0.0
H1027 H 0.40514 0.28536 0.88061 0.0
H1028 H 0.35314 0.23145 0.85858 0.0
H1029 H 0.41297 0.24662 0.01812 0.0
C1030 C 0.40045 0.22306 0.06254 0.0
C1031 C 0.38559 0.20781 0.05684 0.0
C1032 C 0.36482 0.24317 0.86277 0.0
C1033 C 0.38951 0.23059 0.95477 0.0
C1034 C 0.35827 0.25762 0.82598 0.0
C1035 C 0.37232 0.27323 0.8324 0.0
C1036 C 0.38533 0.24442 0.90695 0.0
C1037 C 0.39355 0.27366 0.87467 0.0
C1038 C 0.40285 0.23436 0.01133 0.0
C1039 C 0.37539 0.20342 -0.00259 0.0
N1040 N 0.39916 0.25956 0.91101 0.0
N1041 N 0.37691 0.21501 0.9489 0.0
H1042 H 0.93095 0.88716 0.19163 0.0
H1043 H 0.05914 0.93442 0.32539 0.0
H1044 H 0.96435 0.93344 0.10801 0.0
H1045 H 0.03129 0.88458 0.39186 0.0
H1046 H 0.02536 0.93396 0.24301 0.0
H1047 H 0.96809 0.88579 0.26452 0.0
C1048 C 0.94608 0.89701 0.1885 0.0
C1049 C 0.94445 0.91047 0.1438 0.0
C1050 C 0.02681 0.92306 0.27534 0.0
C1051 C 0.98701 0.90899 0.22701 0.0
C1052 C 0.04613 0.92331 0.32219 0.0
C1053 C 0.04787 0.9096 0.36578 0.0
C1054 C 0.0091 0.90905 0.27243 0.0
C1055 C 0.03052 0.8955 0.35952 0.0
C1056 C 0.96733 0.8962 0.22999 0.0
C1057 C 0.96473 0.92284 0.14177 0.0
N1058 N 0.01173 0.89566 0.31411 0.0
N1059 N 0.98509 0.92185 0.18299 0.0
H1060 H 0.17387 0.7515 0.28656 0.0
H1061 H 0.09367 0.78726 0.57368 0.0
H1062 H 0.10451 0.72654 0.36052 0.0
H1063 H 0.15475 0.81639 0.48199 0.0
H1064 H 0.08984 0.76885 0.48003 0.0
H1065 H 0.162 0.77805 0.3436 0.0
C1066 C 0.15607 0.75162 0.31453 0.0
C1067 C 0.14047 0.73664 0.31987 0.0
C1068 C 0.10345 0.77967 0.47908 0.0
C1069 C 0.12664 0.76706 0.38497 0.0
C1070 C 0.10522 0.79041 0.53219 0.0
C1071 C 0.12463 0.80328 0.53534 0.0
C1072 C 0.12175 0.78159 0.42984 0.0
C1073 C 0.1395 0.80662 0.48101 0.0
C1074 C 0.14916 0.76685 0.34665 0.0
C1075 C 0.11739 0.73767 0.35586 0.0
N1076 N 0.13844 0.79545 0.43114 0.0
N1077 N 0.11138 0.75252 0.38771 0.0
H1078 H 0.49508 0.07275 0.63061 0.0
H1079 H 0.45401 0.12061 0.95182 0.0
H1080 H 0.54558 0.10881 0.72963 0.0
H1081 H 0.40416 0.08456 0.85116 0.0
H1082 H 0.48743 0.11703 0.87008 0.0
H1083 H 0.46148 0.07732 0.71047 0.0
C1084 C 0.49917 0.08164 0.66921 0.0
C1085 C 0.52329 0.09041 0.67334 0.0
C1086 C 0.46916 0.10994 0.86574 0.0
C1087 C 0.48463 0.09573 0.76526 0.0
C1088 C 0.45004 0.112 0.91232 0.0
C1089 C 0.42628 0.10284 0.90827 0.0
C1090 C 0.46451 0.09863 0.81475 0.0
C1091 C 0.4222 0.09186 0.85614 0.0
C1092 C 0.47989 0.08426 0.71484 0.0
C1093 C 0.52732 0.10176 0.72453 0.0
N1094 N 0.44116 0.09003 0.81149 0.0
N1095 N 0.50818 0.10409 0.76854 0.0
H1096 H 0.32027 0.74722 0.68684 0.0
H1097 H 0.34068 0.81405 0.48001 0.0
H1098 H 0.39293 0.72528 0.61907 0.0
H1099 H 0.39573 0.7787 0.39437 0.0
H1100 H 0.34377 0.79761 0.57899 0.0
H1101 H 0.32907 0.77352 0.62627 0.0
C1102 C 0.3383 0.74806 0.65994 0.0
C1103 C 0.3556 0.73387 0.65695 0.0
C1104 C 0.35557 0.79357 0.53909 0.0
C1105 C 0.36635 0.76425 0.58848 0.0
C1106 C 0.35432 0.80327 0.48311 0.0
C1107 C 0.36774 0.7975 0.4292 0.0
C1108 C 0.37015 0.77799 0.54008 0.0
C1109 C 0.38498 0.78343 0.43512 0.0
C1110 C 0.34356 0.76325 0.62585 0.0
C1111 C 0.37877 0.73575 0.62185 0.0
N1112 N 0.38528 0.77392 0.48913 0.0
N1113 N 0.38325 0.75053 0.58834 0.0
H1114 H 0.4481 0.88959 0.56671 0.0
H1115 H 0.50645 0.93807 0.87006 0.0
H1116 H 0.41555 0.93673 0.64568 0.0
H1117 H 0.54768 0.8976 0.7686 0.0
H1118 H 0.4693 0.93448 0.79896 0.0
H1119 H 0.48051 0.88902 0.65176 0.0
C1120 C 0.44753 0.89969 0.60242 0.0
C1121 C 0.42931 0.91337 0.59866 0.0
C1122 C 0.48641 0.92632 0.7924 0.0
C1123 C 0.46642 0.9128 0.69588 0.0
C1124 C 0.5077 0.92835 0.83299 0.0
C1125 C 0.53042 0.91824 0.82491 0.0
C1126 C 0.48772 0.91407 0.74328 0.0
C1127 C 0.53069 0.90578 0.77628 0.0
C1128 C 0.46612 0.89939 0.65081 0.0
C1129 C 0.42938 0.92603 0.64649 0.0
N1130 N 0.50969 0.90411 0.73704 0.0
N1131 N 0.44783 0.92552 0.69287 0.0
H1132 H 0.11307 0.18654 0.90535 0.0
H1133 H 0.20471 0.2425 0.13146 0.0
H1134 H 0.19609 0.17725 0.92576 0.0
H1135 H 0.12162 0.25051 0.10566 0.0
H1136 H 0.20098 0.21479 0.07364 0.0
H1137 H 0.11436 0.20501 -0.0008 0.0
C1138 C 0.13142 0.18794 0.93071 0.0
C1139 C 0.1546 0.18076 0.90645 0.0
C1140 C 0.18353 0.22253 0.08153 0.0
C1141 C 0.15646 0.20236 0.01288 0.0
C1142 C 0.18568 0.23836 0.11429 0.0
C1143 C 0.16356 0.24903 0.12222 0.0
C1144 C 0.15906 0.21735 0.05702 0.0
C1145 C 0.13934 0.24295 0.09951 0.0
C1146 C 0.13223 0.19865 0.98406 0.0
C1147 C 0.17777 0.18283 0.94187 0.0
N1148 N 0.13781 0.22765 0.06763 0.0
N1149 N 0.17826 0.19382 0.9924 0.0
H1150 H 0.08154 0.05705 0.19037 0.0
H1151 H 0.94069 0.08665 0.31705 0.0
H1152 H 0.0437 0.1049 0.13407 0.0
H1153 H 0.9831 0.04206 0.38817 0.0
H1154 H 0.97826 0.09373 0.24977 0.0
H1155 H 0.04617 0.05188 0.26594 0.0
C1156 C 0.06598 0.06659 0.19455 0.0
C1157 C 0.06544 0.08134 0.15555 0.0
C1158 C 0.97931 0.08242 0.28024 0.0
C1159 C 0.0247 0.0754 0.24104 0.0
C1160 C 0.95781 0.07832 0.31834 0.0
C1161 C 0.95869 0.06372 0.35822 0.0
C1162 C 0.00176 0.07181 0.28189 0.0
C1163 C 0.98148 0.05344 0.35822 0.0
C1164 C 0.04572 0.0636 0.23745 0.0
C1165 C 0.04481 0.09329 0.16296 0.0
N1166 N 0.00204 0.05767 0.32061 0.0
N1167 N 0.02511 0.08996 0.20439 0.0
H1168 H 0.6679 0.81394 0.94356 0.0
H1169 H 0.60524 0.72768 0.07812 0.0
H1170 H 0.59561 0.79146 0.87567 0.0
H1171 H 0.67511 0.75129 0.15525 0.0
H1172 H 0.59663 0.75425 0.01871 0.0
H1173 H 0.66521 0.79556 0.03749 0.0
C1174 C 0.6509 0.80565 0.94945 0.0
C1175 C 0.63234 0.80383 0.90064 0.0
C1176 C 0.61369 0.75375 0.04918 0.0
C1177 C 0.62951 0.78247 0.00739 0.0
C1178 C 0.61871 0.73851 0.08288 0.0
C1179 C 0.64122 0.73711 0.12076 0.0
C1180 C 0.6315 0.76768 0.05246 0.0
C1181 C 0.65769 0.75171 0.12599 0.0
C1182 C 0.64953 0.79498 0.00294 0.0
C1183 C 0.61068 0.79297 0.91139 0.0
N1184 N 0.65274 0.76628 0.09136 0.0
N1185 N 0.6102 0.78237 0.96279 0.0
H1186 H 0.00559 0.0505 0.91867 0.0
H1187 H 0.94348 0.09648 0.61477 0.0
H1188 H 0.0418 0.09379 0.82171 0.0
H1189 H 0.91517 0.04797 0.69219 0.0
H1190 H 0.97605 0.098 0.69906 0.0
H1191 H 0.96913 0.05172 0.84452 0.0
C1192 C 0.00587 0.06034 0.88194 0.0
C1193 C 0.02697 0.072 0.87617 0.0
C1194 C 0.96263 0.08708 0.69786 0.0
C1195 C 0.98508 0.07342 0.79099 0.0
C1196 C 0.94395 0.08621 0.64986 0.0
C1197 C 0.92673 0.07197 0.64616 0.0
C1198 C 0.96407 0.07365 0.74266 0.0
C1199 C 0.92816 0.05912 0.69311 0.0
C1200 C 0.98499 0.06099 0.83956 0.0
C1201 C 0.02607 0.08449 0.82776 0.0
N1202 N 0.94665 0.06021 0.73929 0.0
N1203 N 0.00549 0.08482 0.78683 0.0
H1204 H 0.90184 0.28763 0.59414 0.0
H1205 H 0.85795 0.19716 0.45337 0.0
H1206 H 0.84395 0.25365 0.67755 0.0
H1207 H 0.90403 0.23548 0.35488 0.0
H1208 H 0.8672 0.21211 0.55332 0.0
H1209 H 0.91579 0.26384 0.5254 0.0
C1210 C 0.89227 0.2751 0.59866 0.0
C1211 C 0.87114 0.2728 0.6404 0.0
C1212 C 0.87623 0.21685 0.51025 0.0
C1213 C 0.88706 0.24548 0.56163 0.0
C1214 C 0.87135 0.20811 0.45335 0.0
C1215 C 0.8801 0.21525 0.39612 0.0
C1216 C 0.88984 0.23277 0.50916 0.0
C1217 C 0.89689 0.22966 0.39827 0.0
C1218 C 0.90035 0.26148 0.55954 0.0
C1219 C 0.85993 0.25614 0.64509 0.0
N1220 N 0.9007 0.23824 0.45372 0.0
N1221 N 0.86769 0.24321 0.60527 0.0
H1222 H 0.49802 0.94745 0.36127 0.0
H1223 H 0.5557 0.88722 0.08633 0.0
H1224 H 0.45503 0.90559 0.27223 0.0
H1225 H 0.58998 0.93651 0.13987 0.0
H1226 H 0.52283 0.89087 0.16904 0.0
H1227 H 0.53541 0.94104 0.29287 0.0
C1228 C 0.49643 0.9369 0.32737 0.0
C1229 C 0.47328 0.92711 0.32209 0.0
C1230 C 0.53768 0.90081 0.16306 0.0
C1231 C 0.51606 0.91963 0.24441 0.0
C1232 C 0.55655 0.8987 0.1161 0.0
C1233 C 0.57534 0.91173 0.10565 0.0
C1234 C 0.53769 0.91601 0.19992 0.0
C1235 C 0.57567 0.92624 0.146 0.0
C1236 C 0.51779 0.93325 0.28848 0.0
C1237 C 0.47238 0.91357 0.27752 0.0
N1238 N 0.5569 0.92808 0.19109 0.0
N1239 N 0.49348 0.91024 0.24037 0.0
H1240 H 0.65883 0.25524 0.29969 0.0
H1241 H 0.58527 0.21042 0.58578 0.0
H1242 H 0.58743 0.27519 0.38208 0.0
H1243 H 0.65441 0.18966 0.49697 0.0
H1244 H 0.57949 0.23026 0.49606 0.0
H1245 H 0.65253 0.22809 0.35756 0.0
C1246 C 0.64176 0.25389 0.32979 0.0
C1247 C 0.6239 0.26763 0.337 0.0
C1248 C 0.59545 0.22097 0.495 0.0
C1249 C 0.61649 0.23653 0.40339 0.0
C1250 C 0.59846 0.20946 0.54572 0.0
C1251 C 0.62028 0.19844 0.54812 0.0
C1252 C 0.61472 0.22154 0.44741 0.0
C1253 C 0.6373 0.19797 0.49626 0.0
C1254 C 0.63806 0.23832 0.36252 0.0
C1255 C 0.6019 0.26502 0.37579 0.0
N1256 N 0.63449 0.20962 0.4485 0.0
N1257 N 0.599 0.24987 0.40821 0.0
H1258 H 0.44795 0.07851 0.16918 0.0
H1259 H 0.53886 0.13084 0.41174 0.0
H1260 H 0.4321 0.13115 0.23023 0.0
H1261 H 0.55589 0.07882 0.34584 0.0
H1262 H 0.50101 0.13181 0.34114 0.0
H1263 H 0.48827 0.07874 0.23125 0.0
C1264 C 0.45291 0.09011 0.19587 0.0
C1265 C 0.43661 0.10483 0.19473 0.0
C1266 C 0.51313 0.12024 0.3417 0.0
C1267 C 0.48287 0.10521 0.26553 0.0
C1268 C 0.53481 0.11969 0.38182 0.0
C1269 C 0.55042 0.10467 0.38497 0.0
C1270 C 0.50696 0.10563 0.30463 0.0
C1271 C 0.54434 0.09065 0.345 0.0
C1272 C 0.476 0.09025 0.23108 0.0
C1273 C 0.44406 0.1195 0.22997 0.0
N1274 N 0.52292 0.09141 0.30685 0.0
N1275 N 0.46666 0.11931 0.26403 0.0
H1276 H 0.86648 0.81497 0.01824 0.0
H1277 H 0.84013 0.74405 0.82875 0.0
H1278 H 0.89959 0.7754 0.13865 0.0
H1279 H 0.90913 0.72041 0.91027 0.0
H1280 H 0.84823 0.77015 0.89204 0.0
H1281 H 0.87061 0.79513 0.92755 0.0
C1282 C 0.87539 0.80234 0.02513 0.0
C1283 C 0.88211 0.79657 0.08589 0.0
C1284 C 0.862 0.75945 0.8948 0.0
C1285 C 0.88653 0.77387 0.98371 0.0
C1286 C 0.85713 0.74442 0.85949 0.0
C1287 C 0.8738 0.72996 0.86486 0.0
C1288 C 0.88356 0.75992 0.93622 0.0
C1289 C 0.89566 0.73121 0.90499 0.0
C1290 C 0.8774 0.79094 0.97367 0.0
C1291 C 0.89387 0.78018 0.09242 0.0
N1292 N 0.89963 0.74581 0.94 0.0
N1293 N 0.89541 0.76929 0.04206 0.0
H1294 H 0.99046 0.93869 0.62166 0.0
H1295 H 0.93244 0.87591 0.88832 0.0
H1296 H 0.03227 0.89437 0.69703 0.0
H1297 H 0.89437 0.92315 0.82625 0.0
H1298 H 0.96714 0.88087 0.81109 0.0
H1299 H 0.95364 0.9319 0.69053 0.0
C1300 C 0.99196 0.92752 0.65279 0.0
C1301 C 0.01458 0.91709 0.65363 0.0
C1302 C 0.95111 0.89009 0.81402 0.0
C1303 C 0.97226 0.90921 0.73251 0.0
C1304 C 0.93121 0.88723 0.85791 0.0
C1305 C 0.91058 0.89922 0.86407 0.0
C1306 C 0.9504 0.90504 0.77595 0.0
C1307 C 0.90995 0.91359 0.82322 0.0
C1308 C 0.97085 0.92365 0.69205 0.0
C1309 C 0.0153 0.90281 0.69497 0.0
N1310 N 0.9297 0.91618 0.78115 0.0
N1311 N 0.99441 0.89928 0.73279 0.0
H1312 H 0.90023 0.78816 0.41469 0.0
H1313 H 0.8631 0.69101 0.51362 0.0
H1314 H 0.83682 0.75855 0.33222 0.0
H1315 H 0.90652 0.72638 0.63213 0.0
H1316 H 0.86478 0.71234 0.42752 0.0
H1317 H 0.91266 0.76263 0.47698 0.0
C1318 C 0.88898 0.77628 0.4095 0.0
C1319 C 0.86716 0.77556 0.36908 0.0
C1320 C 0.87466 0.71519 0.47174 0.0
C1321 C 0.88159 0.74628 0.43925 0.0
C1322 C 0.87398 0.70294 0.5205 0.0
C1323 C 0.88464 0.70705 0.57969 0.0
C1324 C 0.88616 0.73155 0.48278 0.0
C1325 C 0.8982 0.72278 0.58677 0.0
C1326 C 0.89618 0.76171 0.44479 0.0
C1327 C 0.85349 0.75977 0.36367 0.0
N1328 N 0.89827 0.73461 0.53913 0.0
N1329 N 0.86085 0.74576 0.39867 0.0
H1330 H 0.50734 0.43104 0.59276 0.0
H1331 H 0.56434 0.37252 0.87346 0.0
H1332 H 0.46504 0.38831 0.67787 0.0
H1333 H 0.60016 0.4205 0.81133 0.0
H1334 H 0.53101 0.37577 0.79152 0.0
H1335 H 0.54416 0.42521 0.66315 0.0
C1336 C 0.50577 0.42039 0.62615 0.0
C1337 C 0.48293 0.4102 0.62962 0.0
C1338 C 0.54627 0.38552 0.79546 0.0
C1339 C 0.52521 0.40344 0.71025 0.0
C1340 C 0.56539 0.38365 0.84207 0.0
C1341 C 0.58491 0.39638 0.84965 0.0
C1342 C 0.54667 0.4002 0.75599 0.0
C1343 C 0.58539 0.41044 0.80734 0.0
C1344 C 0.52686 0.41708 0.66633 0.0
C1345 C 0.48216 0.39656 0.67377 0.0
N1346 N 0.56639 0.41205 0.76256 0.0
N1347 N 0.50299 0.3936 0.71245 0.0
H1348 H 0.58497 0.28021 0.10492 0.0
H1349 H 0.65457 0.24539 0.79842 0.0
H1350 H 0.637 0.31154 0.99226 0.0
H1351 H 0.58984 0.2188 0.88776 0.0
H1352 H 0.64443 0.27136 0.86059 0.0
H1353 H 0.58056 0.25985 0.01659 0.0
C1354 C 0.59455 0.28318 0.06043 0.0
C1355 C 0.6114 0.2975 0.0556 0.0
C1356 C 0.6322 0.25992 0.86597 0.0
C1357 C 0.60774 0.27389 0.9558 0.0
C1358 C 0.63812 0.24504 0.83081 0.0
C1359 C 0.62332 0.2298 0.83869 0.0
C1360 C 0.61152 0.2595 0.9099 0.0
C1361 C 0.602 0.23019 0.88071 0.0
C1362 C 0.59236 0.27145 0.01028 0.0
C1363 C 0.62396 0.30059 -0.00219 0.0
N1364 N 0.59697 0.24471 0.91536 0.0
N1365 N 0.62237 0.28866 0.95049 0.0
H1366 H 0.93671 0.62868 0.37801 0.0
H1367 H 0.98907 0.56802 0.09802 0.0
H1368 H 0.89753 0.58177 0.31642 0.0
H1369 H 0.03502 0.60889 0.18447 0.0
H1370 H 0.95255 0.57547 0.16718 0.0
H1371 H 0.96951 0.6244 0.29547 0.0
C1372 C 0.93479 0.61757 0.34654 0.0
C1373 C 0.91452 0.6054 0.35456 0.0
C1374 C 0.97059 0.58284 0.1709 0.0
C1375 C 0.95214 0.60043 0.26035 0.0
C1376 C 0.99151 0.5786 0.13145 0.0
C1377 C 0.01528 0.58777 0.13574 0.0
C1378 C 0.97335 0.59639 0.21492 0.0
C1379 C 0.01716 0.60139 0.17982 0.0
C1380 C 0.95362 0.61513 0.29965 0.0
C1381 C 0.91291 0.59139 0.31219 0.0
N1382 N 0.99647 0.60526 0.21784 0.0
N1383 N 0.93165 0.5892 0.26717 0.0
H1384 H 0.79772 0.33304 0.95955 0.0
H1385 H 0.79027 0.26383 0.16407 0.0
H1386 H 0.87652 0.31505 0.92421 0.0
H1387 H 0.87331 0.25762 0.13253 0.0
H1388 H 0.79183 0.29158 0.10781 0.0
H1389 H 0.7974 0.31667 0.05833 0.0
C1390 C 0.8152 0.32594 0.97316 0.0
C1391 C 0.83683 0.32487 0.9321 0.0
C1392 C 0.8099 0.28445 0.11426 0.0
C1393 C 0.83575 0.30493 0.0427 0.0
C1394 C 0.8089 0.26845 0.14614 0.0
C1395 C 0.83155 0.25819 0.15173 0.0
C1396 C 0.83383 0.29023 0.08822 0.0
C1397 C 0.8552 0.26487 0.12807 0.0
C1398 C 0.81476 0.31621 0.02912 0.0
C1399 C 0.85905 0.3158 0.95319 0.0
N1400 N 0.85563 0.2803 0.09692 0.0
N1401 N 0.85764 0.30578 0.00595 0.0
H1402 H 0.90371 0.45094 0.19482 0.0
H1403 H 0.03106 0.4019 0.32216 0.0
H1404 H 0.93279 0.40288 0.11512 0.0
H1405 H 0.99417 0.44484 0.41994 0.0
H1406 H 0.9942 0.40127 0.24807 0.0
H1407 H 0.93558 0.44818 0.28085 0.0
C1408 C 0.9166 0.43973 0.1958 0.0
C1409 C 0.91581 0.42723 0.14748 0.0
C1410 C 0.99411 0.41072 0.28612 0.0
C1411 C 0.9524 0.42405 0.24509 0.0
C1412 C 0.01517 0.4111 0.32835 0.0
C1413 C 0.01587 0.42354 0.37698 0.0
C1414 C 0.97374 0.42295 0.29237 0.0
C1415 C 0.99463 0.43509 0.38291 0.0
C1416 C 0.9348 0.43815 0.24483 0.0
C1417 C 0.93289 0.41292 0.15113 0.0
N1418 N 0.97458 0.43461 0.34079 0.0
N1419 N 0.95067 0.41181 0.19871 0.0
H1420 H 0.68258 0.67024 0.44596 0.0
H1421 H 0.67959 0.7357 0.6677 0.0
H1422 H 0.60764 0.68992 0.38381 0.0
H1423 H 0.60868 0.7518 0.57276 0.0
H1424 H 0.67731 0.70785 0.6129 0.0
H1425 H 0.67861 0.68719 0.54228 0.0
C1426 C 0.66483 0.67771 0.45348 0.0
C1427 C 0.64592 0.67926 0.40536 0.0
C1428 C 0.6621 0.71732 0.60393 0.0
C1429 C 0.64154 0.69935 0.51517 0.0
C1430 C 0.66344 0.73332 0.63551 0.0
C1431 C 0.64467 0.74631 0.62368 0.0
C1432 C 0.64182 0.7143 0.55996 0.0
C1433 C 0.62395 0.74238 0.58239 0.0
C1434 C 0.66267 0.68768 0.50864 0.0
C1435 C 0.62313 0.68879 0.41864 0.0
N1436 N 0.62327 0.72686 0.55172 0.0
N1437 N 0.62195 0.69887 0.47135 0.0
H1438 H 0.56395 0.59796 0.60251 0.0
H1439 H 0.50262 0.54961 0.90219 0.0
H1440 H 0.59392 0.54964 0.67801 0.0
H1441 H 0.46471 0.59235 0.80564 0.0
H1442 H 0.53935 0.55184 0.82924 0.0
H1443 H 0.531 0.59853 0.68601 0.0
C1444 C 0.56376 0.58753 0.63704 0.0
C1445 C 0.58154 0.57362 0.63298 0.0
C1446 C 0.52304 0.56077 0.82411 0.0
C1447 C 0.54379 0.5742 0.7285 0.0
C1448 C 0.50201 0.55953 0.86577 0.0
C1449 C 0.48039 0.57075 0.85977 0.0
C1450 C 0.52257 0.57334 0.77605 0.0
C1451 C 0.48086 0.58337 0.8118 0.0
C1452 C 0.54487 0.58786 0.68457 0.0
C1453 C 0.58049 0.56055 0.67921 0.0
N1454 N 0.50161 0.58429 0.77159 0.0
N1455 N 0.56178 0.56111 0.72491 0.0
H1456 H 0.1492 0.25018 0.65956 0.0
H1457 H 0.09254 0.27275 0.32792 0.0
H1458 H 0.09262 0.21856 0.55988 0.0
H1459 H 0.14227 0.30733 0.43432 0.0
H1460 H 0.0812 0.25756 0.42544 0.0
H1461 H 0.13765 0.27479 0.59204 0.0
C1462 C 0.13408 0.24846 0.62405 0.0
C1463 C 0.12242 0.23212 0.61415 0.0
C1464 C 0.09383 0.26887 0.42821 0.0
C1465 C 0.10913 0.26028 0.53649 0.0
C1466 C 0.09994 0.27772 0.37253 0.0
C1467 C 0.11842 0.29119 0.37339 0.0
C1468 C 0.10708 0.27321 0.48444 0.0
C1469 C 0.12786 0.29698 0.43201 0.0
C1470 C 0.12738 0.26258 0.58568 0.0
C1471 C 0.10258 0.2308 0.56831 0.0
N1472 N 0.12279 0.28758 0.48512 0.0
N1473 N 0.09694 0.24458 0.53041 0.0
H1474 H 0.56684 0.58881 0.30148 0.0
H1475 H 0.42634 0.55714 0.17832 0.0
H1476 H 0.52427 0.54519 0.37965 0.0
H1477 H 0.4643 0.60395 0.11198 0.0
H1478 H 0.46144 0.55334 0.25575 0.0
H1479 H 0.52928 0.59504 0.2327 0.0
C1480 C 0.54968 0.58053 0.30412 0.0
C1481 C 0.54878 0.56643 0.34626 0.0
C1482 C 0.46198 0.56454 0.22464 0.0
C1483 C 0.50578 0.57352 0.26819 0.0
C1484 C 0.44187 0.56674 0.18062 0.0
C1485 C 0.44251 0.58079 0.13834 0.0
C1486 C 0.48297 0.57641 0.22607 0.0
C1487 C 0.46311 0.59286 0.14346 0.0
C1488 C 0.5282 0.58414 0.26511 0.0
C1489 C 0.52594 0.5562 0.34791 0.0
N1490 N 0.48267 0.5903 0.18607 0.0
N1491 N 0.50544 0.55992 0.30939 0.0
H1492 H 0.32507 0.74602 0.17512 0.0
H1493 H 0.41022 0.71555 0.88816 0.0
H1494 H 0.39404 0.77329 0.11018 0.0
H1495 H 0.35179 0.68287 0.97456 0.0
H1496 H 0.4112 0.73351 0.98331 0.0
H1497 H 0.33893 0.72045 0.11461 0.0
C1498 C 0.34319 0.74661 0.14848 0.0
C1499 C 0.3581 0.76196 0.14659 0.0
C1500 C 0.39877 0.72209 0.98269 0.0
C1501 C 0.3742 0.73271 0.07773 0.0
C1502 C 0.39856 0.71168 0.92865 0.0
C1503 C 0.38089 0.6978 0.92385 0.0
C1504 C 0.38048 0.71888 0.03108 0.0
C1505 C 0.36579 0.69345 0.97691 0.0
C1506 C 0.35123 0.73194 0.11439 0.0
C1507 C 0.38164 0.76186 0.11215 0.0
N1508 N 0.36528 0.70431 0.02777 0.0
N1509 N 0.38875 0.74757 0.07847 0.0
H1510 H 0.07357 0.4398 0.69033 0.0
H1511 H 0.93224 0.41198 0.81795 0.0
H1512 H 0.0345 0.39236 0.63417 0.0
H1513 H 0.9769 0.45514 0.89281 0.0
H1514 H 0.96954 0.40437 0.75047 0.0
H1515 H 0.03884 0.4451 0.76748 0.0
C1516 C 0.05789 0.43038 0.69486 0.0
C1517 C 0.05681 0.41571 0.65543 0.0
C1518 C 0.97115 0.41547 0.78187 0.0
C1519 C 0.01677 0.42181 0.74276 0.0
C1520 C 0.94981 0.41988 0.8201 0.0
C1521 C 0.95138 0.43426 0.86095 0.0
C1522 C 0.99411 0.42557 0.78432 0.0
C1523 C 0.97474 0.44395 0.86205 0.0
C1524 C 0.03799 0.43343 0.73871 0.0
C1525 C 0.03603 0.4039 0.66338 0.0
N1526 N 0.9951 0.43947 0.8242 0.0
N1527 N 0.01667 0.40731 0.70567 0.0
H1528 H 0.16018 0.6857 0.99471 0.0
H1529 H 0.18646 0.75414 0.79466 0.0
H1530 H 0.10261 0.72127 0.06857 0.0
H1531 H 0.10658 0.77047 0.82761 0.0
H1532 H 0.17821 0.72813 0.8585 0.0
H1533 H 0.16092 0.70221 0.89535 0.0
C1534 C 0.14679 0.69651 0.9887 0.0
C1535 C 0.13128 0.7022 0.03936 0.0
C1536 C 0.16226 0.73713 0.85017 0.0
C1537 C 0.13296 0.7216 0.92818 0.0
C1538 C 0.16709 0.75212 0.81436 0.0
C1539 C 0.14738 0.76468 0.80678 0.0
C1540 C 0.13754 0.73479 0.87855 0.0
C1541 C 0.12258 0.76133 0.83305 0.0
C1542 C 0.14769 0.70618 0.9327 0.0
C1543 C 0.11473 0.7165 0.03024 0.0
N1544 N 0.11854 0.74689 0.86858 0.0
N1545 N 0.11625 0.72586 0.97597 0.0
H1546 H 0.97515 0.56949 0.59297 0.0
H1547 H 0.04548 0.6199 0.87694 0.0
H1548 H 0.94387 0.61588 0.68073 0.0
H1549 H 0.06666 0.5679 0.81826 0.0
H1550 H 0.01272 0.62088 0.79292 0.0
H1551 H 0.01282 0.57092 0.66392 0.0
C1552 C 0.97622 0.58004 0.62697 0.0
C1553 C 0.95617 0.59253 0.6312 0.0
C1554 C 0.02467 0.60931 0.79809 0.0
C1555 C -0.00062 0.59423 0.71237 0.0
C1556 C 0.04346 0.60875 0.84588 0.0
C1557 C 0.05862 0.5937 0.85505 0.0
C1558 C 0.02103 0.59474 0.759 0.0
C1559 C 0.05528 0.57971 0.81309 0.0
C1560 C 0.99776 0.58082 0.66747 0.0
C1561 C 0.95873 0.6059 0.67608 0.0
N1562 N 0.03667 0.58052 0.7671 0.0
N1563 N 0.97993 0.60637 0.71505 0.0
H1564 H 0.4155 0.28676 0.58698 0.0
H1565 H 0.3363 0.24839 0.3011 0.0
H1566 H 0.35403 0.31484 0.49179 0.0
H1567 H 0.4066 0.22471 0.37568 0.0
H1568 H 0.34675 0.27505 0.35885 0.0
H1569 H 0.41878 0.26712 0.49647 0.0
C1570 C 0.40363 0.28929 0.54541 0.0
C1571 C 0.3846 0.30241 0.54625 0.0
C1572 C 0.36008 0.2641 0.36199 0.0
C1573 C 0.38693 0.27944 0.44454 0.0
C1574 C 0.35397 0.24881 0.32952 0.0
C1575 C 0.37033 0.23419 0.33462 0.0
C1576 C 0.38255 0.26472 0.40044 0.0
C1577 C 0.39322 0.23558 0.37115 0.0
C1578 C 0.40518 0.27793 0.49411 0.0
C1579 C 0.36916 0.30497 0.49226 0.0
N1580 N 0.39846 0.25049 0.40332 0.0
N1581 N 0.37014 0.29325 0.44409 0.0
H1582 H 0.4301 0.42831 0.31065 0.0
H1583 H 0.56033 0.38436 0.17548 0.0
H1584 H 0.45828 0.37778 0.3691 0.0
H1585 H 0.52528 0.43044 0.09428 0.0
H1586 H 0.52263 0.38159 0.24597 0.0
H1587 H 0.46389 0.42901 0.22848 0.0
C1588 C 0.44314 0.41728 0.30562 0.0
C1589 C 0.44154 0.40306 0.34708 0.0
C1590 C 0.52313 0.39226 0.21248 0.0
C1591 C 0.48041 0.40385 0.25403 0.0
C1592 C 0.54472 0.39389 0.17241 0.0
C1593 C 0.54605 0.4077 0.1291 0.0
C1594 C 0.50282 0.4046 0.20959 0.0
C1595 C 0.52514 0.4196 0.12701 0.0
C1596 C 0.46248 0.41769 0.25889 0.0
C1597 C 0.45894 0.3891 0.33843 0.0
N1598 N 0.50446 0.41783 0.16694 0.0
N1599 N 0.47782 0.38992 0.29334 0.0
loop_
_geom_bond_atom_site_label_1
_geom_bond_atom_site_label_2
_geom_bond_distance
_geom_bond_site_symmetry_2
_ccdc_geom_bond_type
C0 O1 1.306 . S
C0 O3 1.160 . S
O1 C0 1.306 . S
O1 Cd2 2.228 . S
Cd2 O1 2.228 . S
Cd2 O6 2.273 . S
Cd2 O10 2.277 . S
O3 C0 1.160 . S
O3 Cd4 2.203 . S
Cd4 O3 2.203 . S
Cd4 O6 2.411 . S
Cd4 O7 2.333 . S
Cd4 O8 2.352 . S
Cd4 O12 2.277 . S
Cd4 O13 2.356 . S
C5 O10 1.209 . S
C5 O12 1.226 . S
O6 Cd2 2.273 . S
O6 Cd4 2.411 . S
O6 C9 1.320 . S
O7 Cd4 2.333 . S
O7 C9 1.214 . S
O8 Cd4 2.352 . S
O8 C11 1.258 . S
C9 O6 1.320 . S
C9 O7 1.214 . S
O10 Cd2 2.277 . S
O10 C5 1.209 . S
C11 O8 1.258 . S
C11 O13 1.282 . S
O12 Cd4 2.277 . S
O12 C5 1.226 . S
O13 Cd4 2.356 . S
O13 C11 1.282 . S
C14 O15 1.306 . S
C14 O17 1.160 . S
O15 C14 1.306 . S
O15 Cd16 2.228 . S
Cd16 O15 2.228 . S
Cd16 O20 2.273 . S
Cd16 O24 2.277 . S
O17 C14 1.160 . S
O17 Cd18 2.203 . S
Cd18 O17 2.203 . S
Cd18 O20 2.411 . S
Cd18 O21 2.333 . S
Cd18 O22 2.352 . S
Cd18 O26 2.277 . S
Cd18 O27 2.356 . S
C19 O24 1.209 . S
C19 O26 1.226 . S
O20 Cd16 2.273 . S
O20 Cd18 2.411 . S
O20 C23 1.320 . S
O21 Cd18 2.333 . S
O21 C23 1.214 . S
O22 Cd18 2.352 . S
O22 C25 1.258 . S
C23 O20 1.320 . S
C23 O21 1.214 . S
O24 Cd16 2.277 . S
O24 C19 1.209 . S
C25 O22 1.258 . S
C25 O27 1.282 . S
O26 Cd18 2.277 . S
O26 C19 1.226 . S
O27 Cd18 2.356 . S
O27 C25 1.282 . S
C28 O29 1.306 . S
C28 O31 1.160 . S
O29 C28 1.306 . S
O29 Cd30 2.228 . S
Cd30 O29 2.228 . S
Cd30 O34 2.273 . S
Cd30 O38 2.277 . S
O31 C28 1.160 . S
O31 Cd32 2.203 . S
Cd32 O31 2.203 . S
Cd32 O34 2.411 . S
Cd32 O35 2.333 . S
Cd32 O36 2.352 . S
Cd32 O40 2.277 . S
Cd32 O41 2.356 . S
C33 O38 1.209 . S
C33 O40 1.226 . S
O34 Cd30 2.273 . S
O34 Cd32 2.411 . S
O34 C37 1.320 . S
O35 Cd32 2.333 . S
O35 C37 1.214 . S
O36 Cd32 2.352 . S
O36 C39 1.258 . S
C37 O34 1.320 . S
C37 O35 1.214 . S
O38 Cd30 2.277 . S
O38 C33 1.209 . S
C39 O36 1.258 . S
C39 O41 1.282 . S
O40 Cd32 2.277 . S
O40 C33 1.226 . S
O41 Cd32 2.356 . S
O41 C39 1.282 . S
C42 O43 1.306 . S
C42 O45 1.160 . S
O43 C42 1.306 . S
O43 Cd44 2.228 . S
Cd44 O43 2.228 . S
Cd44 O48 2.273 . S
Cd44 O52 2.277 . S
O45 C42 1.160 . S
O45 Cd46 2.203 . S
Cd46 O45 2.203 . S
Cd46 O48 2.411 . S
Cd46 O49 2.333 . S
Cd46 O50 2.352 . S
Cd46 O54 2.277 . S
Cd46 O55 2.356 . S
C47 O52 1.209 . S
C47 O54 1.226 . S
O48 Cd44 2.273 . S
O48 Cd46 2.411 . S
O48 C51 1.320 . S
O49 Cd46 2.333 . S
O49 C51 1.214 . S
O50 Cd46 2.352 . S
O50 C53 1.258 . S
C51 O48 1.320 . S
C51 O49 1.214 . S
O52 Cd44 2.277 . S
O52 C47 1.209 . S
C53 O50 1.258 . S
C53 O55 1.282 . S
O54 Cd46 2.277 . S
O54 C47 1.226 . S
O55 Cd46 2.356 . S
O55 C53 1.282 . S
C56 O57 1.306 . S
C56 O59 1.160 . S
O57 C56 1.306 . S
O57 Cd58 2.228 . S
Cd58 O57 2.228 . S
Cd58 O62 2.273 . S
Cd58 O66 2.277 . S
O59 C56 1.160 . S
O59 Cd60 2.203 . S
Cd60 O59 2.203 . S
Cd60 O62 2.411 . S
Cd60 O63 2.333 . S
Cd60 O64 2.352 . S
Cd60 O68 2.277 . S
Cd60 O69 2.356 . S
C61 O66 1.209 . S
C61 O68 1.226 . S
O62 Cd58 2.273 . S
O62 Cd60 2.411 . S
O62 C65 1.320 . S
O63 Cd60 2.333 . S
O63 C65 1.214 . S
O64 Cd60 2.352 . S
O64 C67 1.258 . S
C65 O62 1.320 . S
C65 O63 1.214 . S
O66 Cd58 2.277 . S
O66 C61 1.209 . S
C67 O64 1.258 . S
C67 O69 1.282 . S
O68 Cd60 2.277 . S
O68 C61 1.226 . S
O69 Cd60 2.356 . S
O69 C67 1.282 . S
C70 O71 1.306 . S
C70 O73 1.160 . S
O71 C70 1.306 . S
O71 Cd72 2.228 . S
Cd72 O71 2.228 . S
Cd72 O76 2.273 . S
Cd72 O80 2.277 . S
O73 C70 1.160 . S
O73 Cd74 2.203 . S
Cd74 O73 2.203 . S
Cd74 O76 2.411 . S
Cd74 O77 2.333 . S
Cd74 O78 2.352 . S
Cd74 O82 2.277 . S
Cd74 O83 2.356 . S
C75 O80 1.209 . S
C75 O82 1.226 . S
O76 Cd72 2.273 . S
O76 Cd74 2.411 . S
O76 C79 1.320 . S
O77 Cd74 2.333 . S
O77 C79 1.214 . S
O78 Cd74 2.352 . S
O78 C81 1.258 . S
C79 O76 1.320 . S
C79 O77 1.214 . S
O80 Cd72 2.277 . S
O80 C75 1.209 . S
C81 O78 1.258 . S
C81 O83 1.282 . S
O82 Cd74 2.277 . S
O82 C75 1.226 . S
O83 Cd74 2.356 . S
O83 C81 1.282 . S
C84 O85 1.306 . S
C84 O87 1.160 . S
O85 C84 1.306 . S
O85 Cd86 2.228 . S
Cd86 O85 2.228 . S
Cd86 O90 2.273 . S
Cd86 O94 2.277 . S
O87 C84 1.160 . S
O87 Cd88 2.203 . S
Cd88 O87 2.203 . S
Cd88 O90 2.411 . S
Cd88 O91 2.333 . S
Cd88 O92 2.352 . S
Cd88 O96 2.277 . S
Cd88 O97 2.356 . S
C89 O94 1.209 . S
C89 O96 1.226 . S
O90 Cd86 2.273 . S
O90 Cd88 2.411 . S
O90 C93 1.320 . S
O91 Cd88 2.333 . S
O91 C93 1.214 . S
O92 Cd88 2.352 . S
O92 C95 1.258 . S
C93 O90 1.320 . S
C93 O91 1.214 . S
O94 Cd86 2.277 . S
O94 C89 1.209 . S
C95 O92 1.258 . S
C95 O97 1.282 . S
O96 Cd88 2.277 . S
O96 C89 1.226 . S
O97 Cd88 2.356 . S
O97 C95 1.282 . S
C98 O99 1.306 . S
C98 O101 1.160 . S
O99 C98 1.306 . S
O99 Cd100 2.228 . S
Cd100 O99 2.228 . S
Cd100 O104 2.273 . S
Cd100 O108 2.277 . S
O101 C98 1.160 . S
O101 Cd102 2.203 . S
Cd102 O101 2.203 . S
Cd102 O104 2.411 . S
Cd102 O105 2.333 . S
Cd102 O106 2.352 . S
Cd102 O110 2.277 . S
Cd102 O111 2.356 . S
C103 O108 1.209 . S
C103 O110 1.226 . S
O104 Cd100 2.273 . S
O104 Cd102 2.411 . S
O104 C107 1.320 . S
O105 Cd102 2.333 . S
O105 C107 1.214 . S
O106 Cd102 2.352 . S
O106 C109 1.258 . S
C107 O104 1.320 . S
C107 O105 1.214 . S
O108 Cd100 2.277 . S
O108 C103 1.209 . S
C109 O106 1.258 . S
C109 O111 1.282 . S
O110 Cd102 2.277 . S
O110 C103 1.226 . S
O111 Cd102 2.356 . S
O111 C109 1.282 . S
C112 O113 1.306 . S
C112 O115 1.160 . S
O113 C112 1.306 . S
O113 Cd114 2.228 . S
Cd114 O113 2.228 . S
Cd114 O118 2.273 . S
Cd114 O122 2.277 . S
O115 C112 1.160 . S
O115 Cd116 2.203 . S
Cd116 O115 2.203 . S
Cd116 O118 2.411 . S
Cd116 O119 2.333 . S
Cd116 O120 2.352 . S
Cd116 O124 2.277 . S
Cd116 O125 2.356 . S
C117 O122 1.209 . S
C117 O124 1.226 . S
O118 Cd114 2.273 . S
O118 Cd116 2.411 . S
O118 C121 1.320 . S
O119 Cd116 2.333 . S
O119 C121 1.214 . S
O120 Cd116 2.352 . S
O120 C123 1.258 . S
C121 O118 1.320 . S
C121 O119 1.214 . S
O122 Cd114 2.277 . S
O122 C117 1.209 . S
C123 O120 1.258 . S
C123 O125 1.282 . S
O124 Cd116 2.277 . S
O124 C117 1.226 . S
O125 Cd116 2.356 . S
O125 C123 1.282 . S
C126 O127 1.306 . S
C126 O129 1.160 . S
O127 C126 1.306 . S
O127 Cd128 2.228 . S
Cd128 O127 2.228 . S
Cd128 O132 2.273 . S
Cd128 O136 2.277 . S
O129 C126 1.160 . S
O129 Cd130 2.203 . S
Cd130 O129 2.203 . S
Cd130 O132 2.411 . S
Cd130 O133 2.333 . S
Cd130 O134 2.352 . S
Cd130 O138 2.277 . S
Cd130 O139 2.356 . S
C131 O136 1.209 . S
C131 O138 1.226 . S
O132 Cd128 2.273 . S
O132 Cd130 2.411 . S
O132 C135 1.320 . S
O133 Cd130 2.333 . S
O133 C135 1.214 . S
O134 Cd130 2.352 . S
O134 C137 1.258 . S
C135 O132 1.320 . S
C135 O133 1.214 . S
O136 Cd128 2.277 . S
O136 C131 1.209 . S
C137 O134 1.258 . S
C137 O139 1.282 . S
O138 Cd130 2.277 . S
O138 C131 1.226 . S
O139 Cd130 2.356 . S
O139 C137 1.282 . S
C140 O141 1.306 . S
C140 O143 1.160 . S
O141 C140 1.306 . S
O141 Cd142 2.228 . S
Cd142 O141 2.228 . S
Cd142 O146 2.273 . S
Cd142 O150 2.277 . S
O143 C140 1.160 . S
O143 Cd144 2.203 . S
Cd144 O143 2.203 . S
Cd144 O146 2.411 . S
Cd144 O147 2.333 . S
Cd144 O148 2.352 . S
Cd144 O152 2.277 . S
Cd144 O153 2.356 . S
C145 O150 1.209 . S
C145 O152 1.226 . S
O146 Cd142 2.273 . S
O146 Cd144 2.411 . S
O146 C149 1.320 . S
O147 Cd144 2.333 . S
O147 C149 1.214 . S
O148 Cd144 2.352 . S
O148 C151 1.258 . S
C149 O146 1.320 . S
C149 O147 1.214 . S
O150 Cd142 2.277 . S
O150 C145 1.209 . S
C151 O148 1.258 . S
C151 O153 1.282 . S
O152 Cd144 2.277 . S
O152 C145 1.226 . S
O153 Cd144 2.356 . S
O153 C151 1.282 . S
C154 O155 1.306 . S
C154 O157 1.160 . S
O155 C154 1.306 . S
O155 Cd156 2.228 . S
Cd156 O155 2.228 . S
Cd156 O160 2.273 . S
Cd156 O164 2.277 . S
O157 C154 1.160 . S
O157 Cd158 2.203 . S
Cd158 O157 2.203 . S
Cd158 O160 2.411 . S
Cd158 O161 2.333 . S
Cd158 O162 2.352 . S
Cd158 O166 2.277 . S
Cd158 O167 2.356 . S
C159 O164 1.209 . S
C159 O166 1.226 . S
O160 Cd156 2.273 . S
O160 Cd158 2.411 . S
O160 C163 1.320 . S
O161 Cd158 2.333 . S
O161 C163 1.214 . S
O162 Cd158 2.352 . S
O162 C165 1.258 . S
C163 O160 1.320 . S
C163 O161 1.214 . S
O164 Cd156 2.277 . S
O164 C159 1.209 . S
C165 O162 1.258 . S
C165 O167 1.282 . S
O166 Cd158 2.277 . S
O166 C159 1.226 . S
O167 Cd158 2.356 . S
O167 C165 1.282 . S
C168 O169 1.306 . S
C168 O171 1.160 . S
O169 C168 1.306 . S
O169 Cd170 2.228 . S
Cd170 O169 2.228 . S
Cd170 O174 2.273 . S
Cd170 O178 2.277 . S
O171 C168 1.160 . S
O171 Cd172 2.203 . S
Cd172 O171 2.203 . S
Cd172 O174 2.411 . S
Cd172 O175 2.333 . S
Cd172 O176 2.352 . S
Cd172 O180 2.277 . S
Cd172 O181 2.356 . S
C173 O178 1.209 . S
C173 O180 1.226 . S
O174 Cd170 2.273 . S
O174 Cd172 2.411 . S
O174 C177 1.320 . S
O175 Cd172 2.333 . S
O175 C177 1.214 . S
O176 Cd172 2.352 . S
O176 C179 1.258 . S
C177 O174 1.320 . S
C177 O175 1.214 . S
O178 Cd170 2.277 . S
O178 C173 1.209 . S
C179 O176 1.258 . S
C179 O181 1.282 . S
O180 Cd172 2.277 . S
O180 C173 1.226 . S
O181 Cd172 2.356 . S
O181 C179 1.282 . S
C182 O183 1.306 . S
C182 O185 1.160 . S
O183 C182 1.306 . S
O183 Cd184 2.228 . S
Cd184 O183 2.228 . S
Cd184 O188 2.273 . S
Cd184 O192 2.277 . S
O185 C182 1.160 . S
O185 Cd186 2.203 . S
Cd186 O185 2.203 . S
Cd186 O188 2.411 . S
Cd186 O189 2.333 . S
Cd186 O190 2.352 . S
Cd186 O194 2.277 . S
Cd186 O195 2.356 . S
C187 O192 1.209 . S
C187 O194 1.226 . S
O188 Cd184 2.273 . S
O188 Cd186 2.411 . S
O188 C191 1.320 . S
O189 Cd186 2.333 . S
O189 C191 1.214 . S
O190 Cd186 2.352 . S
O190 C193 1.258 . S
C191 O188 1.320 . S
C191 O189 1.214 . S
O192 Cd184 2.277 . S
O192 C187 1.209 . S
C193 O190 1.258 . S
C193 O195 1.282 . S
O194 Cd186 2.277 . S
O194 C187 1.226 . S
O195 Cd186 2.356 . S
O195 C193 1.282 . S
C196 O197 1.306 . S
C196 O199 1.160 . S
O197 C196 1.306 . S
O197 Cd198 2.228 . S
Cd198 O197 2.228 . S
Cd198 O202 2.273 . S
Cd198 O206 2.277 . S
O199 C196 1.160 . S
O199 Cd200 2.203 . S
Cd200 O199 2.203 . S
Cd200 O202 2.411 . S
Cd200 O203 2.333 . S
Cd200 O204 2.352 . S
Cd200 O208 2.277 . S
Cd200 O209 2.356 . S
C201 O206 1.209 . S
C201 O208 1.226 . S
O202 Cd198 2.273 . S
O202 Cd200 2.411 . S
O202 C205 1.320 . S
O203 Cd200 2.333 . S
O203 C205 1.214 . S
O204 Cd200 2.352 . S
O204 C207 1.258 . S
C205 O202 1.320 . S
C205 O203 1.214 . S
O206 Cd198 2.277 . S
O206 C201 1.209 . S
C207 O204 1.258 . S
C207 O209 1.282 . S
O208 Cd200 2.277 . S
O208 C201 1.226 . S
O209 Cd200 2.356 . S
O209 C207 1.282 . S
C210 O211 1.306 . S
C210 O213 1.160 . S
O211 C210 1.306 . S
O211 Cd212 2.228 . S
Cd212 O211 2.228 . S
Cd212 O216 2.273 . S
Cd212 O220 2.277 . S
O213 C210 1.160 . S
O213 Cd214 2.203 . S
Cd214 O213 2.203 . S
Cd214 O216 2.411 . S
Cd214 O217 2.333 . S
Cd214 O218 2.352 . S
Cd214 O222 2.277 . S
Cd214 O223 2.356 . S
C215 O220 1.209 . S
C215 O222 1.226 . S
O216 Cd212 2.273 . S
O216 Cd214 2.411 . S
O216 C219 1.320 . S
O217 Cd214 2.333 . S
O217 C219 1.214 . S
O218 Cd214 2.352 . S
O218 C221 1.258 . S
C219 O216 1.320 . S
C219 O217 1.214 . S
O220 Cd212 2.277 . S
O220 C215 1.209 . S
C221 O218 1.258 . S
C221 O223 1.282 . S
O222 Cd214 2.277 . S
O222 C215 1.226 . S
O223 Cd214 2.356 . S
O223 C221 1.282 . S
C224 O225 1.306 . S
C224 O227 1.160 . S
O225 C224 1.306 . S
O225 Cd226 2.228 . S
Cd226 O225 2.228 . S
Cd226 O230 2.273 . S
Cd226 O234 2.277 . S
O227 C224 1.160 . S
O227 Cd228 2.203 . S
Cd228 O227 2.203 . S
Cd228 O230 2.411 . S
Cd228 O231 2.333 . S
Cd228 O232 2.352 . S
Cd228 O236 2.277 . S
Cd228 O237 2.356 . S
C229 O234 1.209 . S
C229 O236 1.226 . S
O230 Cd226 2.273 . S
O230 Cd228 2.411 . S
O230 C233 1.320 . S
O231 Cd228 2.333 . S
O231 C233 1.214 . S
O232 Cd228 2.352 . S
O232 C235 1.258 . S
C233 O230 1.320 . S
C233 O231 1.214 . S
O234 Cd226 2.277 . S
O234 C229 1.209 . S
C235 O232 1.258 . S
C235 O237 1.282 . S
O236 Cd228 2.277 . S
O236 C229 1.226 . S
O237 Cd228 2.356 . S
O237 C235 1.282 . S
C238 O239 1.306 . S
C238 O241 1.160 . S
O239 C238 1.306 . S
O239 Cd240 2.228 . S
Cd240 O239 2.228 . S
Cd240 O244 2.273 . S
Cd240 O248 2.277 . S
O241 C238 1.160 . S
O241 Cd242 2.203 . S
Cd242 O241 2.203 . S
Cd242 O244 2.411 . S
Cd242 O245 2.333 . S
Cd242 O246 2.352 . S
Cd242 O250 2.277 . S
Cd242 O251 2.356 . S
C243 O248 1.209 . S
C243 O250 1.226 . S
O244 Cd240 2.273 . S
O244 Cd242 2.411 . S
O244 C247 1.320 . S
O245 Cd242 2.333 . S
O245 C247 1.214 . S
O246 Cd242 2.352 . S
O246 C249 1.258 . S
C247 O244 1.320 . S
C247 O245 1.214 . S
O248 Cd240 2.277 . S
O248 C243 1.209 . S
C249 O246 1.258 . S
C249 O251 1.282 . S
O250 Cd242 2.277 . S
O250 C243 1.226 . S
O251 Cd242 2.356 . S
O251 C249 1.282 . S
C252 O253 1.306 . S
C252 O255 1.160 . S
O253 C252 1.306 . S
O253 Cd254 2.228 . S
Cd254 O253 2.228 . S
Cd254 O258 2.273 . S
Cd254 O262 2.277 . S
O255 C252 1.160 . S
O255 Cd256 2.203 . S
Cd256 O255 2.203 . S
Cd256 O258 2.411 . S
Cd256 O259 2.333 . S
Cd256 O260 2.352 . S
Cd256 O264 2.277 . S
Cd256 O265 2.356 . S
C257 O262 1.209 . S
C257 O264 1.226 . S
O258 Cd254 2.273 . S
O258 Cd256 2.411 . S
O258 C261 1.320 . S
O259 Cd256 2.333 . S
O259 C261 1.214 . S
O260 Cd256 2.352 . S
O260 C263 1.258 . S
C261 O258 1.320 . S
C261 O259 1.214 . S
O262 Cd254 2.277 . S
O262 C257 1.209 . S
C263 O260 1.258 . S
C263 O265 1.282 . S
O264 Cd256 2.277 . S
O264 C257 1.226 . S
O265 Cd256 2.356 . S
O265 C263 1.282 . S
C266 O267 1.306 . S
C266 O269 1.160 . S
O267 C266 1.306 . S
O267 Cd268 2.228 . S
Cd268 O267 2.228 . S
Cd268 O272 2.273 . S
Cd268 O276 2.277 . S
O269 C266 1.160 . S
O269 Cd270 2.203 . S
Cd270 O269 2.203 . S
Cd270 O272 2.411 . S
Cd270 O273 2.333 . S
Cd270 O274 2.352 . S
Cd270 O278 2.277 . S
Cd270 O279 2.356 . S
C271 O276 1.209 . S
C271 O278 1.226 . S
O272 Cd268 2.273 . S
O272 Cd270 2.411 . S
O272 C275 1.320 . S
O273 Cd270 2.333 . S
O273 C275 1.214 . S
O274 Cd270 2.352 . S
O274 C277 1.258 . S
C275 O272 1.320 . S
C275 O273 1.214 . S
O276 Cd268 2.277 . S
O276 C271 1.209 . S
C277 O274 1.258 . S
C277 O279 1.282 . S
O278 Cd270 2.277 . S
O278 C271 1.226 . S
O279 Cd270 2.356 . S
O279 C277 1.282 . S
C280 O281 1.306 . S
C280 O283 1.160 . S
O281 C280 1.306 . S
O281 Cd282 2.228 . S
Cd282 O281 2.228 . S
Cd282 O286 2.273 . S
Cd282 O290 2.277 . S
O283 C280 1.160 . S
O283 Cd284 2.203 . S
Cd284 O283 2.203 . S
Cd284 O286 2.411 . S
Cd284 O287 2.333 . S
Cd284 O288 2.352 . S
Cd284 O292 2.277 . S
Cd284 O293 2.356 . S
C285 O290 1.209 . S
C285 O292 1.226 . S
O286 Cd282 2.273 . S
O286 Cd284 2.411 . S
O286 C289 1.320 . S
O287 Cd284 2.333 . S
O287 C289 1.214 . S
O288 Cd284 2.352 . S
O288 C291 1.258 . S
C289 O286 1.320 . S
C289 O287 1.214 . S
O290 Cd282 2.277 . S
O290 C285 1.209 . S
C291 O288 1.258 . S
C291 O293 1.282 . S
O292 Cd284 2.277 . S
O292 C285 1.226 . S
O293 Cd284 2.356 . S
O293 C291 1.282 . S
C294 O295 1.306 . S
C294 O297 1.160 . S
O295 C294 1.306 . S
O295 Cd296 2.228 . S
Cd296 O295 2.228 . S
Cd296 O300 2.273 . S
Cd296 O304 2.277 . S
O297 C294 1.160 . S
O297 Cd298 2.203 . S
Cd298 O297 2.203 . S
Cd298 O300 2.411 . S
Cd298 O301 2.333 . S
Cd298 O302 2.352 . S
Cd298 O306 2.277 . S
Cd298 O307 2.356 . S
C299 O304 1.209 . S
C299 O306 1.226 . S
O300 Cd296 2.273 . S
O300 Cd298 2.411 . S
O300 C303 1.320 . S
O301 Cd298 2.333 . S
O301 C303 1.214 . S
O302 Cd298 2.352 . S
O302 C305 1.258 . S
C303 O300 1.320 . S
C303 O301 1.214 . S
O304 Cd296 2.277 . S
O304 C299 1.209 . S
C305 O302 1.258 . S
C305 O307 1.282 . S
O306 Cd298 2.277 . S
O306 C299 1.226 . S
O307 Cd298 2.356 . S
O307 C305 1.282 . S
C308 O309 1.306 . S
C308 O311 1.160 . S
O309 C308 1.306 . S
O309 Cd310 2.228 . S
Cd310 O309 2.228 . S
Cd310 O314 2.273 . S
Cd310 O318 2.277 . S
O311 C308 1.160 . S
O311 Cd312 2.203 . S
Cd312 O311 2.203 . S
Cd312 O314 2.411 . S
Cd312 O315 2.333 . S
Cd312 O316 2.352 . S
Cd312 O320 2.277 . S
Cd312 O321 2.356 . S
C313 O318 1.209 . S
C313 O320 1.226 . S
O314 Cd310 2.273 . S
O314 Cd312 2.411 . S
O314 C317 1.320 . S
O315 Cd312 2.333 . S
O315 C317 1.214 . S
O316 Cd312 2.352 . S
O316 C319 1.258 . S
C317 O314 1.320 . S
C317 O315 1.214 . S
O318 Cd310 2.277 . S
O318 C313 1.209 . S
C319 O316 1.258 . S
C319 O321 1.282 . S
O320 Cd312 2.277 . S
O320 C313 1.226 . S
O321 Cd312 2.356 . S
O321 C319 1.282 . S
C322 O323 1.306 . S
C322 O325 1.160 . S
O323 C322 1.306 . S
O323 Cd324 2.228 . S
Cd324 O323 2.228 . S
Cd324 O328 2.273 . S
Cd324 O332 2.277 . S
O325 C322 1.160 . S
O325 Cd326 2.203 . S
Cd326 O325 2.203 . S
Cd326 O328 2.411 . S
Cd326 O329 2.333 . S
Cd326 O330 2.352 . S
Cd326 O334 2.277 . S
Cd326 O335 2.356 . S
C327 O332 1.209 . S
C327 O334 1.226 . S
O328 Cd324 2.273 . S
O328 Cd326 2.411 . S
O328 C331 1.320 . S
O329 Cd326 2.333 . S
O329 C331 1.214 . S
O330 Cd326 2.352 . S
O330 C333 1.258 . S
C331 O328 1.320 . S
C331 O329 1.214 . S
O332 Cd324 2.277 . S
O332 C327 1.209 . S
C333 O330 1.258 . S
C333 O335 1.282 . S
O334 Cd326 2.277 . S
O334 C327 1.226 . S
O335 Cd326 2.356 . S
O335 C333 1.282 . S
C336 O337 1.306 . S
C336 O339 1.160 . S
O337 C336 1.306 . S
O337 Cd338 2.228 . S
Cd338 O337 2.228 . S
Cd338 O342 2.273 . S
Cd338 O346 2.277 . S
O339 C336 1.160 . S
O339 Cd340 2.203 . S
Cd340 O339 2.203 . S
Cd340 O342 2.411 . S
Cd340 O343 2.333 . S
Cd340 O344 2.352 . S
Cd340 O348 2.277 . S
Cd340 O349 2.356 . S
C341 O346 1.209 . S
C341 O348 1.226 . S
O342 Cd338 2.273 . S
O342 Cd340 2.411 . S
O342 C345 1.320 . S
O343 Cd340 2.333 . S
O343 C345 1.214 . S
O344 Cd340 2.352 . S
O344 C347 1.258 . S
C345 O342 1.320 . S
C345 O343 1.214 . S
O346 Cd338 2.277 . S
O346 C341 1.209 . S
C347 O344 1.258 . S
C347 O349 1.282 . S
O348 Cd340 2.277 . S
O348 C341 1.226 . S
O349 Cd340 2.356 . S
O349 C347 1.282 . S
C350 O351 1.306 . S
C350 O353 1.160 . S
O351 C350 1.306 . S
O351 Cd352 2.228 . S
Cd352 O351 2.228 . S
Cd352 O356 2.273 . S
Cd352 O360 2.277 . S
O353 C350 1.160 . S
O353 Cd354 2.203 . S
Cd354 O353 2.203 . S
Cd354 O356 2.411 . S
Cd354 O357 2.333 . S
Cd354 O358 2.352 . S
Cd354 O362 2.277 . S
Cd354 O363 2.356 . S
C355 O360 1.209 . S
C355 O362 1.226 . S
O356 Cd352 2.273 . S
O356 Cd354 2.411 . S
O356 C359 1.320 . S
O357 Cd354 2.333 . S
O357 C359 1.214 . S
O358 Cd354 2.352 . S
O358 C361 1.258 . S
C359 O356 1.320 . S
C359 O357 1.214 . S
O360 Cd352 2.277 . S
O360 C355 1.209 . S
C361 O358 1.258 . S
C361 O363 1.282 . S
O362 Cd354 2.277 . S
O362 C355 1.226 . S
O363 Cd354 2.356 . S
O363 C361 1.282 . S
C364 O365 1.306 . S
C364 O367 1.160 . S
O365 C364 1.306 . S
O365 Cd366 2.228 . S
Cd366 O365 2.228 . S
Cd366 O370 2.273 . S
Cd366 O374 2.277 . S
O367 C364 1.160 . S
O367 Cd368 2.203 . S
Cd368 O367 2.203 . S
Cd368 O370 2.411 . S
Cd368 O371 2.333 . S
Cd368 O372 2.352 . S
Cd368 O376 2.277 . S
Cd368 O377 2.356 . S
C369 O374 1.209 . S
C369 O376 1.226 . S
O370 Cd366 2.273 . S
O370 Cd368 2.411 . S
O370 C373 1.320 . S
O371 Cd368 2.333 . S
O371 C373 1.214 . S
O372 Cd368 2.352 . S
O372 C375 1.258 . S
C373 O370 1.320 . S
C373 O371 1.214 . S
O374 Cd366 2.277 . S
O374 C369 1.209 . S
C375 O372 1.258 . S
C375 O377 1.282 . S
O376 Cd368 2.277 . S
O376 C369 1.226 . S
O377 Cd368 2.356 . S
O377 C375 1.282 . S
C378 O379 1.306 . S
C378 O381 1.160 . S
O379 C378 1.306 . S
O379 Cd380 2.228 . S
Cd380 O379 2.228 . S
Cd380 O384 2.273 . S
Cd380 O388 2.277 . S
O381 C378 1.160 . S
O381 Cd382 2.203 . S
Cd382 O381 2.203 . S
Cd382 O384 2.411 . S
Cd382 O385 2.333 . S
Cd382 O386 2.352 . S
Cd382 O390 2.277 . S
Cd382 O391 2.356 . S
C383 O388 1.209 . S
C383 O390 1.226 . S
O384 Cd380 2.273 . S
O384 Cd382 2.411 . S
O384 C387 1.320 . S
O385 Cd382 2.333 . S
O385 C387 1.214 . S
O386 Cd382 2.352 . S
O386 C389 1.258 . S
C387 O384 1.320 . S
C387 O385 1.214 . S
O388 Cd380 2.277 . S
O388 C383 1.209 . S
C389 O386 1.258 . S
C389 O391 1.282 . S
O390 Cd382 2.277 . S
O390 C383 1.226 . S
O391 Cd382 2.356 . S
O391 C389 1.282 . S
C392 O393 1.306 . S
C392 O395 1.160 . S
O393 C392 1.306 . S
O393 Cd394 2.228 . S
Cd394 O393 2.228 . S
Cd394 O398 2.273 . S
Cd394 O402 2.277 . S
O395 C392 1.160 . S
O395 Cd396 2.203 . S
Cd396 O395 2.203 . S
Cd396 O398 2.411 . S
Cd396 O399 2.333 . S
Cd396 O400 2.352 . S
Cd396 O404 2.277 . S
Cd396 O405 2.356 . S
C397 O402 1.209 . S
C397 O404 1.226 . S
O398 Cd394 2.273 . S
O398 Cd396 2.411 . S
O398 C401 1.320 . S
O399 Cd396 2.333 . S
O399 C401 1.214 . S
O400 Cd396 2.352 . S
O400 C403 1.258 . S
C401 O398 1.320 . S
C401 O399 1.214 . S
O402 Cd394 2.277 . S
O402 C397 1.209 . S
C403 O400 1.258 . S
C403 O405 1.282 . S
O404 Cd396 2.277 . S
O404 C397 1.226 . S
O405 Cd396 2.356 . S
O405 C403 1.282 . S
C406 O407 1.306 . S
C406 O409 1.160 . S
O407 C406 1.306 . S
O407 Cd408 2.228 . S
Cd408 O407 2.228 . S
Cd408 O412 2.273 . S
Cd408 O416 2.277 . S
O409 C406 1.160 . S
O409 Cd410 2.203 . S
Cd410 O409 2.203 . S
Cd410 O412 2.411 . S
Cd410 O413 2.333 . S
Cd410 O414 2.352 . S
Cd410 O418 2.277 . S
Cd410 O419 2.356 . S
C411 O416 1.209 . S
C411 O418 1.226 . S
O412 Cd408 2.273 . S
O412 Cd410 2.411 . S
O412 C415 1.320 . S
O413 Cd410 2.333 . S
O413 C415 1.214 . S
O414 Cd410 2.352 . S
O414 C417 1.258 . S
C415 O412 1.320 . S
C415 O413 1.214 . S
O416 Cd408 2.277 . S
O416 C411 1.209 . S
C417 O414 1.258 . S
C417 O419 1.282 . S
O418 Cd410 2.277 . S
O418 C411 1.226 . S
O419 Cd410 2.356 . S
O419 C417 1.282 . S
C420 O421 1.306 . S
C420 O423 1.160 . S
O421 C420 1.306 . S
O421 Cd422 2.228 . S
Cd422 O421 2.228 . S
Cd422 O426 2.273 . S
Cd422 O430 2.277 . S
O423 C420 1.160 . S
O423 Cd424 2.203 . S
Cd424 O423 2.203 . S
Cd424 O426 2.411 . S
Cd424 O427 2.333 . S
Cd424 O428 2.352 . S
Cd424 O432 2.277 . S
Cd424 O433 2.356 . S
C425 O430 1.209 . S
C425 O432 1.226 . S
O426 Cd422 2.273 . S
O426 Cd424 2.411 . S
O426 C429 1.320 . S
O427 Cd424 2.333 . S
O427 C429 1.214 . S
O428 Cd424 2.352 . S
O428 C431 1.258 . S
C429 O426 1.320 . S
C429 O427 1.214 . S
O430 Cd422 2.277 . S
O430 C425 1.209 . S
C431 O428 1.258 . S
C431 O433 1.282 . S
O432 Cd424 2.277 . S
O432 C425 1.226 . S
O433 Cd424 2.356 . S
O433 C431 1.282 . S
C434 O435 1.306 . S
C434 O437 1.160 . S
O435 C434 1.306 . S
O435 Cd436 2.228 . S
Cd436 O435 2.228 . S
Cd436 O440 2.273 . S
Cd436 O444 2.277 . S
O437 C434 1.160 . S
O437 Cd438 2.203 . S
Cd438 O437 2.203 . S
Cd438 O440 2.411 . S
Cd438 O441 2.333 . S
Cd438 O442 2.352 . S
Cd438 O446 2.277 . S
Cd438 O447 2.356 . S
C439 O444 1.209 . S
C439 O446 1.226 . S
O440 Cd436 2.273 . S
O440 Cd438 2.411 . S
O440 C443 1.320 . S
O441 Cd438 2.333 . S
O441 C443 1.214 . S
O442 Cd438 2.352 . S
O442 C445 1.258 . S
C443 O440 1.320 . S
C443 O441 1.214 . S
O444 Cd436 2.277 . S
O444 C439 1.209 . S
C445 O442 1.258 . S
C445 O447 1.282 . S
O446 Cd438 2.277 . S
O446 C439 1.226 . S
O447 Cd438 2.356 . S
O447 C445 1.282 . S
H448 C454 0.930 . S
H449 C458 0.930 . S
H450 C463 0.929 . S
H451 C461 0.929 . S
H452 C456 0.929 . S
H453 C462 0.929 . S
C454 H448 0.930 . S
C454 C455 1.367 . S
C454 C462 1.378 . S
C455 C454 1.367 . S
C455 C463 1.433 . S
C456 H452 0.929 . S
C456 C458 1.378 . S
C456 C460 1.350 . S
C457 C460 1.463 . S
C457 C462 1.350 . S
C457 N465 1.427 . S
C458 H449 0.930 . S
C458 C456 1.378 . S
C458 C459 1.367 . S
C459 C458 1.367 . S
C459 C461 1.433 . S
C460 C456 1.350 . S
C460 C457 1.463 . S
C460 N464 1.427 . S
C461 H451 0.929 . S
C461 C459 1.433 . S
C461 N464 1.384 . S
C462 H453 0.929 . S
C462 C454 1.378 . S
C462 C457 1.350 . S
C463 H450 0.929 . S
C463 C455 1.433 . S
C463 N465 1.384 . S
N464 C460 1.427 . S
N464 C461 1.384 . S
N465 C457 1.427 . S
N465 C463 1.384 . S
H466 C472 0.930 . S
H467 C476 0.930 . S
H468 C481 0.929 . S
H469 C479 0.929 . S
H470 C474 0.929 . S
H471 C480 0.929 . S
C472 H466 0.930 . S
C472 C473 1.367 . S
C472 C480 1.378 . S
C473 C472 1.367 . S
C473 C481 1.433 . S
C474 H470 0.929 . S
C474 C476 1.378 . S
C474 C478 1.350 . S
C475 C478 1.463 1_565 S
C475 C480 1.350 . S
C475 N483 1.427 . S
C476 H467 0.930 . S
C476 C474 1.378 . S
C476 C477 1.367 . S
C477 C476 1.367 . S
C477 C479 1.433 . S
C478 C474 1.350 . S
C478 C475 1.463 1_545 S
C478 N482 1.427 . S
C479 H469 0.929 . S
C479 C477 1.433 . S
C479 N482 1.384 . S
C480 H471 0.929 . S
C480 C472 1.378 . S
C480 C475 1.350 . S
C481 H468 0.929 . S
C481 C473 1.433 . S
C481 N483 1.384 . S
N482 C478 1.427 . S
N482 C479 1.384 . S
N483 C475 1.427 . S
N483 C481 1.384 . S
H484 C490 0.930 . S
H485 C494 0.930 . S
H486 C499 0.929 . S
H487 C497 0.929 . S
H488 C492 0.929 . S
H489 C498 0.929 . S
C490 H484 0.930 . S
C490 C491 1.367 . S
C490 C498 1.378 . S
C491 C490 1.367 . S
C491 C499 1.433 . S
C492 H488 0.929 . S
C492 C494 1.378 . S
C492 C496 1.350 . S
C493 C496 1.463 1_554 S
C493 C498 1.350 . S
C493 N501 1.427 . S
C494 H485 0.930 . S
C494 C492 1.378 . S
C494 C495 1.367 . S
C495 C494 1.367 . S
C495 C497 1.433 . S
C496 C492 1.350 . S
C496 C493 1.463 1_556 S
C496 N500 1.427 . S
C497 H487 0.929 . S
C497 C495 1.433 . S
C497 N500 1.384 . S
C498 H489 0.929 . S
C498 C490 1.378 . S
C498 C493 1.350 . S
C499 H486 0.929 . S
C499 C491 1.433 . S
C499 N501 1.384 . S
N500 C496 1.427 . S
N500 C497 1.384 . S
N501 C493 1.427 . S
N501 C499 1.384 . S
H502 C508 0.930 . S
H503 C512 0.930 . S
H504 C517 0.929 . S
H505 C515 0.929 . S
H506 C510 0.929 . S
H507 C516 0.929 . S
C508 H502 0.930 . S
C508 C509 1.367 . S
C508 C516 1.378 . S
C509 C508 1.367 . S
C509 C517 1.433 . S
C510 H506 0.929 . S
C510 C512 1.378 . S
C510 C514 1.350 . S
C511 C514 1.463 1_545 S
C511 C516 1.350 . S
C511 N519 1.427 . S
C512 H503 0.930 . S
C512 C510 1.378 . S
C512 C513 1.367 . S
C513 C512 1.367 . S
C513 C515 1.433 . S
C514 C510 1.350 . S
C514 C511 1.463 1_565 S
C514 N518 1.427 . S
C515 H505 0.929 . S
C515 C513 1.433 . S
C515 N518 1.384 . S
C516 H507 0.929 . S
C516 C508 1.378 . S
C516 C511 1.350 . S
C517 H504 0.929 . S
C517 C509 1.433 . S
C517 N519 1.384 . S
N518 C514 1.427 . S
N518 C515 1.384 . S
N519 C511 1.427 . S
N519 C517 1.384 . S
H520 C526 0.930 . S
H521 C530 0.930 . S
H522 C535 0.929 . S
H523 C533 0.929 . S
H524 C528 0.929 . S
H525 C534 0.929 . S
C526 H520 0.930 . S
C526 C527 1.367 . S
C526 C534 1.378 . S
C527 C526 1.367 . S
C527 C535 1.433 . S
C528 H524 0.929 . S
C528 C530 1.378 . S
C528 C532 1.350 . S
C529 C532 1.463 . S
C529 C534 1.350 . S
C529 N537 1.427 . S
C530 H521 0.930 . S
C530 C528 1.378 . S
C530 C531 1.367 . S
C531 C530 1.367 . S
C531 C533 1.433 . S
C532 C528 1.350 . S
C532 C529 1.463 . S
C532 N536 1.427 . S
C533 H523 0.929 . S
C533 C531 1.433 . S
C533 N536 1.384 . S
C534 H525 0.929 . S
C534 C526 1.378 . S
C534 C529 1.350 . S
C535 H522 0.929 . S
C535 C527 1.433 . S
C535 N537 1.384 . S
N536 C532 1.427 . S
N536 C533 1.384 . S
N537 C529 1.427 . S
N537 C535 1.384 . S
H538 C544 0.930 . S
H539 C548 0.930 . S
H540 C553 0.929 . S
H541 C551 0.929 . S
H542 C546 0.929 . S
H543 C552 0.929 . S
C544 H538 0.930 . S
C544 C545 1.367 . S
C544 C552 1.378 . S
C545 C544 1.367 . S
C545 C553 1.433 . S
C546 H542 0.929 . S
C546 C548 1.378 . S
C546 C550 1.350 . S
C547 C550 1.463 1_545 S
C547 C552 1.350 . S
C547 N555 1.427 . S
C548 H539 0.930 . S
C548 C546 1.378 . S
C548 C549 1.367 . S
C549 C548 1.367 . S
C549 C551 1.433 . S
C550 C546 1.350 . S
C550 C547 1.463 1_565 S
C550 N554 1.427 . S
C551 H541 0.929 . S
C551 C549 1.433 . S
C551 N554 1.384 . S
C552 H543 0.929 . S
C552 C544 1.378 . S
C552 C547 1.350 . S
C553 H540 0.929 . S
C553 C545 1.433 . S
C553 N555 1.384 . S
N554 C550 1.427 . S
N554 C551 1.384 . S
N555 C547 1.427 . S
N555 C553 1.384 . S
H556 C562 0.930 . S
H557 C566 0.930 . S
H558 C571 0.929 . S
H559 C569 0.929 . S
H560 C564 0.929 . S
H561 C570 0.929 . S
C562 H556 0.930 . S
C562 C563 1.367 . S
C562 C570 1.378 . S
C563 C562 1.367 . S
C563 C571 1.433 . S
C564 H560 0.929 . S
C564 C566 1.378 . S
C564 C568 1.350 . S
C565 C568 1.463 1_556 S
C565 C570 1.350 . S
C565 N573 1.427 . S
C566 H557 0.930 . S
C566 C564 1.378 . S
C566 C567 1.367 . S
C567 C566 1.367 . S
C567 C569 1.433 . S
C568 C564 1.350 . S
C568 C565 1.463 1_554 S
C568 N572 1.427 . S
C569 H559 0.929 . S
C569 C567 1.433 . S
C569 N572 1.384 . S
C570 H561 0.929 . S
C570 C562 1.378 . S
C570 C565 1.350 . S
C571 H558 0.929 . S
C571 C563 1.433 . S
C571 N573 1.384 . S
N572 C568 1.427 . S
N572 C569 1.384 . S
N573 C565 1.427 . S
N573 C571 1.384 . S
H574 C580 0.930 . S
H575 C584 0.930 . S
H576 C589 0.929 . S
H577 C587 0.929 . S
H578 C582 0.929 . S
H579 C588 0.929 . S
C580 H574 0.930 . S
C580 C581 1.367 . S
C580 C588 1.378 . S
C581 C580 1.367 . S
C581 C589 1.433 . S
C582 H578 0.929 . S
C582 C584 1.378 . S
C582 C586 1.350 . S
C583 C586 1.463 1_565 S
C583 C588 1.350 . S
C583 N591 1.427 . S
C584 H575 0.930 . S
C584 C582 1.378 . S
C584 C585 1.367 . S
C585 C584 1.367 . S
C585 C587 1.433 . S
C586 C582 1.350 . S
C586 C583 1.463 1_545 S
C586 N590 1.427 . S
C587 H577 0.929 . S
C587 C585 1.433 . S
C587 N590 1.384 . S
C588 H579 0.929 . S
C588 C580 1.378 . S
C588 C583 1.350 . S
C589 H576 0.929 . S
C589 C581 1.433 . S
C589 N591 1.384 . S
N590 C586 1.427 . S
N590 C587 1.384 . S
N591 C583 1.427 . S
N591 C589 1.384 . S
H592 C598 0.930 . S
H593 C602 0.930 . S
H594 C607 0.929 . S
H595 C605 0.929 . S
H596 C600 0.929 . S
H597 C606 0.929 . S
C598 H592 0.930 . S
C598 C599 1.367 . S
C598 C606 1.378 . S
C599 C598 1.367 . S
C599 C607 1.433 . S
C600 H596 0.929 . S
C600 C602 1.378 . S
C600 C604 1.350 . S
C601 C604 1.463 1_556 S
C601 C606 1.350 . S
C601 N609 1.427 1_556 S
C602 H593 0.930 . S
C602 C600 1.378 . S
C602 C603 1.367 . S
C603 C602 1.367 . S
C603 C605 1.433 . S
C604 C600 1.350 . S
C604 C601 1.463 1_554 S
C604 N608 1.427 1_554 S
C605 H595 0.929 . S
C605 C603 1.433 . S
C605 N608 1.384 1_554 S
C606 H597 0.929 . S
C606 C598 1.378 . S
C606 C601 1.350 . S
C607 H594 0.929 . S
C607 C599 1.433 . S
C607 N609 1.384 1_556 S
N608 C604 1.427 1_556 S
N608 C605 1.384 1_556 S
N609 C601 1.427 1_554 S
N609 C607 1.384 1_554 S
H610 C616 0.930 . S
H611 C620 0.930 . S
H612 C625 0.929 . S
H613 C623 0.929 . S
H614 C618 0.929 . S
H615 C624 0.929 . S
C616 H610 0.930 . S
C616 C617 1.367 . S
C616 C624 1.378 . S
C617 C616 1.367 . S
C617 C625 1.433 . S
C618 H614 0.929 . S
C618 C620 1.378 . S
C618 C622 1.350 . S
C619 C622 1.463 . S
C619 C624 1.350 . S
C619 N627 1.427 . S
C620 H611 0.930 . S
C620 C618 1.378 . S
C620 C621 1.367 . S
C621 C620 1.367 . S
C621 C623 1.433 . S
C622 C618 1.350 . S
C622 C619 1.463 . S
C622 N626 1.427 . S
C623 H613 0.929 . S
C623 C621 1.433 . S
C623 N626 1.384 . S
C624 H615 0.929 . S
C624 C616 1.378 . S
C624 C619 1.350 . S
C625 H612 0.929 . S
C625 C617 1.433 . S
C625 N627 1.384 . S
N626 C622 1.427 . S
N626 C623 1.384 . S
N627 C619 1.427 . S
N627 C625 1.384 . S
H628 C634 0.930 . S
H629 C638 0.930 . S
H630 C643 0.929 . S
H631 C641 0.929 . S
H632 C636 0.929 . S
H633 C642 0.929 . S
C634 H628 0.930 . S
C634 C635 1.367 . S
C634 C642 1.378 . S
C635 C634 1.367 . S
C635 C643 1.433 . S
C636 H632 0.929 . S
C636 C638 1.378 . S
C636 C640 1.350 . S
C637 C640 1.463 . S
C637 C642 1.350 . S
C637 N645 1.427 . S
C638 H629 0.930 . S
C638 C636 1.378 . S
C638 C639 1.367 . S
C639 C638 1.367 . S
C639 C641 1.433 . S
C640 C636 1.350 . S
C640 C637 1.463 . S
C640 N644 1.427 . S
C641 H631 0.929 . S
C641 C639 1.433 . S
C641 N644 1.384 . S
C642 H633 0.929 . S
C642 C634 1.378 . S
C642 C637 1.350 . S
C643 H630 0.929 . S
C643 C635 1.433 . S
C643 N645 1.384 . S
N644 C640 1.427 . S
N644 C641 1.384 . S
N645 C637 1.427 . S
N645 C643 1.384 . S
H646 C652 0.930 . S
H647 C656 0.930 . S
H648 C661 0.929 . S
H649 C659 0.929 . S
H650 C654 0.929 . S
H651 C660 0.929 . S
C652 H646 0.930 . S
C652 C653 1.367 . S
C652 C660 1.378 . S
C653 C652 1.367 . S
C653 C661 1.433 . S
C654 H650 0.929 . S
C654 C656 1.378 . S
C654 C658 1.350 . S
C655 C658 1.463 . S
C655 C660 1.350 . S
C655 N663 1.427 . S
C656 H647 0.930 . S
C656 C654 1.378 . S
C656 C657 1.367 . S
C657 C656 1.367 . S
C657 C659 1.433 . S
C658 C654 1.350 . S
C658 C655 1.463 . S
C658 N662 1.427 . S
C659 H649 0.929 . S
C659 C657 1.433 . S
C659 N662 1.384 . S
C660 H651 0.929 . S
C660 C652 1.378 . S
C660 C655 1.350 . S
C661 H648 0.929 . S
C661 C653 1.433 . S
C661 N663 1.384 . S
N662 C658 1.427 . S
N662 C659 1.384 . S
N663 C655 1.427 . S
N663 C661 1.384 . S
H664 C670 0.930 . S
H665 C674 0.930 . S
H666 C679 0.929 . S
H667 C677 0.929 . S
H668 C672 0.929 . S
H669 C678 0.929 . S
C670 H664 0.930 . S
C670 C671 1.367 . S
C670 C678 1.378 1_556 S
C671 C670 1.367 . S
C671 C679 1.433 . S
C672 H668 0.929 . S
C672 C674 1.378 1_556 S
C672 C676 1.350 1_556 S
C673 C676 1.463 1_556 S
C673 C678 1.350 1_556 S
C673 N681 1.427 . S
C674 H665 0.930 . S
C674 C672 1.378 1_554 S
C674 C675 1.367 . S
C675 C674 1.367 . S
C675 C677 1.433 . S
C676 C672 1.350 1_554 S
C676 C673 1.463 1_554 S
C676 N680 1.427 . S
C677 H667 0.929 . S
C677 C675 1.433 . S
C677 N680 1.384 . S
C678 H669 0.929 . S
C678 C670 1.378 1_554 S
C678 C673 1.350 1_554 S
C679 H666 0.929 . S
C679 C671 1.433 . S
C679 N681 1.384 . S
N680 C676 1.427 . S
N680 C677 1.384 . S
N681 C673 1.427 . S
N681 C679 1.384 . S
H682 C688 0.930 . S
H683 C692 0.930 . S
H684 C697 0.929 . S
H685 C695 0.929 . S
H686 C690 0.929 . S
H687 C696 0.929 . S
C688 H682 0.930 . S
C688 C689 1.367 . S
C688 C696 1.378 . S
C689 C688 1.367 . S
C689 C697 1.433 . S
C690 H686 0.929 . S
C690 C692 1.378 . S
C690 C694 1.350 . S
C691 C694 1.463 . S
C691 C696 1.350 . S
C691 N699 1.427 . S
C692 H683 0.930 . S
C692 C690 1.378 . S
C692 C693 1.367 . S
C693 C692 1.367 . S
C693 C695 1.433 . S
C694 C690 1.350 . S
C694 C691 1.463 . S
C694 N698 1.427 . S
C695 H685 0.929 . S
C695 C693 1.433 . S
C695 N698 1.384 . S
C696 H687 0.929 . S
C696 C688 1.378 . S
C696 C691 1.350 . S
C697 H684 0.929 . S
C697 C689 1.433 . S
C697 N699 1.384 . S
N698 C694 1.427 . S
N698 C695 1.384 . S
N699 C691 1.427 . S
N699 C697 1.384 . S
H700 C706 0.930 . S
H701 C710 0.930 . S
H702 C715 0.929 . S
H703 C713 0.929 . S
H704 C708 0.929 . S
H705 C714 0.929 . S
C706 H700 0.930 . S
C706 C707 1.367 . S
C706 C714 1.378 . S
C707 C706 1.367 . S
C707 C715 1.433 . S
C708 H704 0.929 . S
C708 C710 1.378 . S
C708 C712 1.350 . S
C709 C712 1.463 . S
C709 C714 1.350 . S
C709 N717 1.427 . S
C710 H701 0.930 . S
C710 C708 1.378 . S
C710 C711 1.367 . S
C711 C710 1.367 . S
C711 C713 1.433 . S
C712 C708 1.350 . S
C712 C709 1.463 . S
C712 N716 1.427 . S
C713 H703 0.929 . S
C713 C711 1.433 . S
C713 N716 1.384 . S
C714 H705 0.929 . S
C714 C706 1.378 . S
C714 C709 1.350 . S
C715 H702 0.929 . S
C715 C707 1.433 . S
C715 N717 1.384 . S
N716 C712 1.427 . S
N716 C713 1.384 . S
N717 C709 1.427 . S
N717 C715 1.384 . S
H718 C724 0.930 . S
H719 C728 0.930 . S
H720 C733 0.929 . S
H721 C731 0.929 . S
H722 C726 0.929 . S
H723 C732 0.929 . S
C724 H718 0.930 . S
C724 C725 1.367 . S
C724 C732 1.378 . S
C725 C724 1.367 . S
C725 C733 1.433 . S
C726 H722 0.929 . S
C726 C728 1.378 . S
C726 C730 1.350 . S
C727 C730 1.463 . S
C727 C732 1.350 . S
C727 N735 1.427 . S
C728 H719 0.930 . S
C728 C726 1.378 . S
C728 C729 1.367 . S
C729 C728 1.367 . S
C729 C731 1.433 . S
C730 C726 1.350 . S
C730 C727 1.463 . S
C730 N734 1.427 . S
C731 H721 0.929 . S
C731 C729 1.433 . S
C731 N734 1.384 . S
C732 H723 0.929 . S
C732 C724 1.378 . S
C732 C727 1.350 . S
C733 H720 0.929 . S
C733 C725 1.433 . S
C733 N735 1.384 . S
N734 C730 1.427 . S
N734 C731 1.384 . S
N735 C727 1.427 . S
N735 C733 1.384 . S
H736 C742 0.930 . S
H737 C746 0.930 . S
H738 C751 0.929 . S
H739 C749 0.929 . S
H740 C744 0.929 . S
H741 C750 0.929 1_554 S
C742 H736 0.930 . S
C742 C743 1.367 . S
C742 C750 1.378 . S
C743 C742 1.367 . S
C743 C751 1.433 . S
C744 H740 0.929 . S
C744 C746 1.378 . S
C744 C748 1.350 . S
C745 C748 1.463 1_556 S
C745 C750 1.350 . S
C745 N753 1.427 . S
C746 H737 0.930 . S
C746 C744 1.378 . S
C746 C747 1.367 . S
C747 C746 1.367 . S
C747 C749 1.433 . S
C748 C744 1.350 . S
C748 C745 1.463 1_554 S
C748 N752 1.427 . S
C749 H739 0.929 . S
C749 C747 1.433 . S
C749 N752 1.384 . S
C750 H741 0.929 1_556 S
C750 C742 1.378 . S
C750 C745 1.350 . S
C751 H738 0.929 . S
C751 C743 1.433 . S
C751 N753 1.384 . S
N752 C748 1.427 . S
N752 C749 1.384 . S
N753 C745 1.427 . S
N753 C751 1.384 . S
H754 C760 0.930 . S
H755 C764 0.930 . S
H756 C769 0.929 . S
H757 C767 0.929 . S
H758 C762 0.929 . S
H759 C768 0.929 . S
C760 H754 0.930 . S
C760 C761 1.367 . S
C760 C768 1.378 . S
C761 C760 1.367 . S
C761 C769 1.433 . S
C762 H758 0.929 . S
C762 C764 1.378 . S
C762 C766 1.350 . S
C763 C766 1.463 . S
C763 C768 1.350 . S
C763 N771 1.427 . S
C764 H755 0.930 . S
C764 C762 1.378 . S
C764 C765 1.367 . S
C765 C764 1.367 . S
C765 C767 1.433 . S
C766 C762 1.350 . S
C766 C763 1.463 . S
C766 N770 1.427 . S
C767 H757 0.929 . S
C767 C765 1.433 . S
C767 N770 1.384 . S
C768 H759 0.929 . S
C768 C760 1.378 . S
C768 C763 1.350 . S
C769 H756 0.929 . S
C769 C761 1.433 . S
C769 N771 1.384 . S
N770 C766 1.427 . S
N770 C767 1.384 . S
N771 C763 1.427 . S
N771 C769 1.384 . S
H772 C778 0.930 . S
H773 C782 0.930 . S
H774 C787 0.929 . S
H775 C785 0.929 . S
H776 C780 0.929 . S
H777 C786 0.929 . S
C778 H772 0.930 . S
C778 C779 1.367 . S
C778 C786 1.378 . S
C779 C778 1.367 . S
C779 C787 1.433 . S
C780 H776 0.929 . S
C780 C782 1.378 . S
C780 C784 1.350 . S
C781 C784 1.463 . S
C781 C786 1.350 . S
C781 N789 1.427 . S
C782 H773 0.930 . S
C782 C780 1.378 . S
C782 C783 1.367 . S
C783 C782 1.367 . S
C783 C785 1.433 . S
C784 C780 1.350 . S
C784 C781 1.463 . S
C784 N788 1.427 . S
C785 H775 0.929 . S
C785 C783 1.433 . S
C785 N788 1.384 . S
C786 H777 0.929 . S
C786 C778 1.378 . S
C786 C781 1.350 . S
C787 H774 0.929 . S
C787 C779 1.433 . S
C787 N789 1.384 . S
N788 C784 1.427 . S
N788 C785 1.384 . S
N789 C781 1.427 . S
N789 C787 1.384 . S
H790 C796 0.930 . S
H791 C800 0.930 . S
H792 C805 0.929 . S
H793 C803 0.929 . S
H794 C798 0.929 . S
H795 C804 0.929 . S
C796 H790 0.930 . S
C796 C797 1.367 . S
C796 C804 1.378 . S
C797 C796 1.367 . S
C797 C805 1.433 . S
C798 H794 0.929 . S
C798 C800 1.378 . S
C798 C802 1.350 . S
C799 C802 1.463 1_556 S
C799 C804 1.350 . S
C799 N807 1.427 . S
C800 H791 0.930 . S
C800 C798 1.378 . S
C800 C801 1.367 . S
C801 C800 1.367 . S
C801 C803 1.433 . S
C802 C798 1.350 . S
C802 C799 1.463 1_554 S
C802 N806 1.427 1_554 S
C803 H793 0.929 . S
C803 C801 1.433 . S
C803 N806 1.384 1_554 S
C804 H795 0.929 . S
C804 C796 1.378 . S
C804 C799 1.350 . S
C805 H792 0.929 . S
C805 C797 1.433 . S
C805 N807 1.384 . S
N806 C802 1.427 1_556 S
N806 C803 1.384 1_556 S
N807 C799 1.427 . S
N807 C805 1.384 . S
H808 C814 0.930 . S
H809 C818 0.930 . S
H810 C823 0.929 . S
H811 C821 0.929 . S
H812 C816 0.929 1_554 S
H813 C822 0.929 . S
C814 H808 0.930 . S
C814 C815 1.367 . S
C814 C822 1.378 1_554 S
C815 C814 1.367 . S
C815 C823 1.433 . S
C816 H812 0.929 1_556 S
C816 C818 1.378 . S
C816 C820 1.350 . S
C817 C820 1.463 1_554 S
C817 C822 1.350 1_554 S
C817 N825 1.427 . S
C818 H809 0.930 . S
C818 C816 1.378 . S
C818 C819 1.367 . S
C819 C818 1.367 . S
C819 C821 1.433 . S
C820 C816 1.350 . S
C820 C817 1.463 1_556 S
C820 N824 1.427 . S
C821 H811 0.929 . S
C821 C819 1.433 . S
C821 N824 1.384 . S
C822 H813 0.929 . S
C822 C814 1.378 1_556 S
C822 C817 1.350 1_556 S
C823 H810 0.929 . S
C823 C815 1.433 . S
C823 N825 1.384 . S
N824 C820 1.427 . S
N824 C821 1.384 . S
N825 C817 1.427 . S
N825 C823 1.384 . S
H826 C832 0.930 . S
H827 C836 0.930 . S
H828 C841 0.929 . S
H829 C839 0.929 . S
H830 C834 0.929 . S
H831 C840 0.929 . S
C832 H826 0.930 . S
C832 C833 1.367 . S
C832 C840 1.378 . S
C833 C832 1.367 . S
C833 C841 1.433 . S
C834 H830 0.929 . S
C834 C836 1.378 . S
C834 C838 1.350 . S
C835 C838 1.463 . S
C835 C840 1.350 . S
C835 N843 1.427 . S
C836 H827 0.930 . S
C836 C834 1.378 . S
C836 C837 1.367 . S
C837 C836 1.367 . S
C837 C839 1.433 . S
C838 C834 1.350 . S
C838 C835 1.463 . S
C838 N842 1.427 . S
C839 H829 0.929 . S
C839 C837 1.433 . S
C839 N842 1.384 . S
C840 H831 0.929 . S
C840 C832 1.378 . S
C840 C835 1.350 . S
C841 H828 0.929 . S
C841 C833 1.433 . S
C841 N843 1.384 . S
N842 C838 1.427 . S
N842 C839 1.384 . S
N843 C835 1.427 . S
N843 C841 1.384 . S
H844 C850 0.930 . S
H845 C854 0.930 . S
H846 C859 0.929 . S
H847 C857 0.929 . S
H848 C852 0.929 . S
H849 C858 0.929 . S
C850 H844 0.930 . S
C850 C851 1.367 . S
C850 C858 1.378 . S
C851 C850 1.367 . S
C851 C859 1.433 . S
C852 H848 0.929 . S
C852 C854 1.378 . S
C852 C856 1.350 . S
C853 C856 1.463 . S
C853 C858 1.350 . S
C853 N861 1.427 . S
C854 H845 0.930 . S
C854 C852 1.378 . S
C854 C855 1.367 . S
C855 C854 1.367 . S
C855 C857 1.433 . S
C856 C852 1.350 . S
C856 C853 1.463 . S
C856 N860 1.427 . S
C857 H847 0.929 . S
C857 C855 1.433 . S
C857 N860 1.384 . S
C858 H849 0.929 . S
C858 C850 1.378 . S
C858 C853 1.350 . S
C859 H846 0.929 . S
C859 C851 1.433 . S
C859 N861 1.384 . S
N860 C856 1.427 . S
N860 C857 1.384 . S
N861 C853 1.427 . S
N861 C859 1.384 . S
H862 C868 0.930 . S
H863 C872 0.930 . S
H864 C877 0.931 . S
H865 C875 0.929 . S
H866 C870 0.929 . S
H867 C876 0.929 . S
C868 H862 0.930 . S
C868 C869 1.367 . S
C868 C876 1.378 . S
C869 C868 1.367 . S
C869 C877 1.433 . S
C870 H866 0.929 . S
C870 C872 1.378 . S
C870 C874 1.350 . S
C871 C874 1.463 1_556 S
C871 C876 1.350 . S
C871 N879 1.427 1_556 S
C872 H863 0.930 . S
C872 C870 1.378 . S
C872 C873 1.367 . S
C873 C872 1.367 . S
C873 C875 1.433 . S
C874 C870 1.350 . S
C874 C871 1.463 1_554 S
C874 N878 1.427 . S
C875 H865 0.929 . S
C875 C873 1.433 . S
C875 N878 1.384 . S
C876 H867 0.929 . S
C876 C868 1.378 . S
C876 C871 1.350 . S
C877 H864 0.931 . S
C877 C869 1.433 . S
C877 N879 1.384 1_556 S
N878 C874 1.427 . S
N878 C875 1.384 . S
N879 C871 1.427 1_554 S
N879 C877 1.384 1_554 S
H880 C886 0.930 . S
H881 C890 0.930 . S
H882 C895 0.929 . S
H883 C893 0.929 . S
H884 C888 0.929 . S
H885 C894 0.929 . S
C886 H880 0.930 . S
C886 C887 1.367 . S
C886 C894 1.378 . S
C887 C886 1.367 . S
C887 C895 1.433 . S
C888 H884 0.929 . S
C888 C890 1.378 . S
C888 C892 1.350 . S
C889 C892 1.463 . S
C889 C894 1.350 . S
C889 N897 1.427 . S
C890 H881 0.930 . S
C890 C888 1.378 . S
C890 C891 1.367 . S
C891 C890 1.367 . S
C891 C893 1.433 . S
C892 C888 1.350 . S
C892 C889 1.463 . S
C892 N896 1.427 . S
C893 H883 0.929 . S
C893 C891 1.433 . S
C893 N896 1.384 . S
C894 H885 0.929 . S
C894 C886 1.378 . S
C894 C889 1.350 . S
C895 H882 0.929 . S
C895 C887 1.433 . S
C895 N897 1.384 . S
N896 C892 1.427 . S
N896 C893 1.384 . S
N897 C889 1.427 . S
N897 C895 1.384 . S
H898 C904 0.930 . S
H899 C908 0.930 . S
H900 C913 0.929 . S
H901 C911 0.929 . S
H902 C906 0.929 . S
H903 C912 0.929 . S
C904 H898 0.930 . S
C904 C905 1.367 . S
C904 C912 1.378 1_554 S
C905 C904 1.367 . S
C905 C913 1.433 . S
C906 H902 0.929 . S
C906 C908 1.378 . S
C906 C910 1.350 . S
C907 C910 1.463 1_554 S
C907 C912 1.350 1_554 S
C907 N915 1.427 . S
C908 H899 0.930 . S
C908 C906 1.378 . S
C908 C909 1.367 . S
C909 C908 1.367 . S
C909 C911 1.433 . S
C910 C906 1.350 . S
C910 C907 1.463 1_556 S
C910 N914 1.427 . S
C911 H901 0.929 . S
C911 C909 1.433 . S
C911 N914 1.384 . S
C912 H903 0.929 . S
C912 C904 1.378 1_556 S
C912 C907 1.350 1_556 S
C913 H900 0.929 . S
C913 C905 1.433 . S
C913 N915 1.384 . S
N914 C910 1.427 . S
N914 C911 1.384 . S
N915 C907 1.427 . S
N915 C913 1.384 . S
H916 C922 0.930 . S
H917 C926 0.930 . S
H918 C931 0.929 . S
H919 C929 0.929 1_554 S
H920 C924 0.929 . S
H921 C930 0.929 . S
C922 H916 0.930 . S
C922 C923 1.367 . S
C922 C930 1.378 . S
C923 C922 1.367 . S
C923 C931 1.433 . S
C924 H920 0.929 . S
C924 C926 1.378 . S
C924 C928 1.350 . S
C925 C928 1.463 1_554 S
C925 C930 1.350 . S
C925 N933 1.427 . S
C926 H917 0.930 . S
C926 C924 1.378 . S
C926 C927 1.367 . S
C927 C926 1.367 . S
C927 C929 1.433 . S
C928 C924 1.350 . S
C928 C925 1.463 1_556 S
C928 N932 1.427 1_556 S
C929 H919 0.929 1_556 S
C929 C927 1.433 . S
C929 N932 1.384 1_556 S
C930 H921 0.929 . S
C930 C922 1.378 . S
C930 C925 1.350 . S
C931 H918 0.929 . S
C931 C923 1.433 . S
C931 N933 1.384 . S
N932 C928 1.427 1_554 S
N932 C929 1.384 1_554 S
N933 C925 1.427 . S
N933 C931 1.384 . S
H934 C940 0.930 . S
H935 C944 0.930 . S
H936 C949 0.929 . S
H937 C947 0.929 . S
H938 C942 0.929 . S
H939 C948 0.929 . S
C940 H934 0.930 . S
C940 C941 1.367 . S
C940 C948 1.378 . S
C941 C940 1.367 . S
C941 C949 1.433 . S
C942 H938 0.929 . S
C942 C944 1.378 . S
C942 C946 1.350 . S
C943 C946 1.463 . S
C943 C948 1.350 . S
C943 N951 1.427 . S
C944 H935 0.930 . S
C944 C942 1.378 . S
C944 C945 1.367 . S
C945 C944 1.367 . S
C945 C947 1.433 . S
C946 C942 1.350 . S
C946 C943 1.463 . S
C946 N950 1.427 . S
C947 H937 0.929 . S
C947 C945 1.433 . S
C947 N950 1.384 . S
C948 H939 0.929 . S
C948 C940 1.378 . S
C948 C943 1.350 . S
C949 H936 0.929 . S
C949 C941 1.433 . S
C949 N951 1.384 . S
N950 C946 1.427 . S
N950 C947 1.384 . S
N951 C943 1.427 . S
N951 C949 1.384 . S
H952 C958 0.930 . S
H953 C962 0.930 . S
H954 C967 0.929 . S
H955 C965 0.929 . S
H956 C960 0.929 . S
H957 C966 0.929 . S
C958 H952 0.930 . S
C958 C959 1.367 . S
C958 C966 1.378 . S
C959 C958 1.367 . S
C959 C967 1.433 . S
C960 H956 0.929 . S
C960 C962 1.378 . S
C960 C964 1.350 . S
C961 C964 1.463 . S
C961 C966 1.350 . S
C961 N969 1.427 . S
C962 H953 0.930 . S
C962 C960 1.378 . S
C962 C963 1.367 . S
C963 C962 1.367 . S
C963 C965 1.433 . S
C964 C960 1.350 . S
C964 C961 1.463 . S
C964 N968 1.427 . S
C965 H955 0.929 . S
C965 C963 1.433 . S
C965 N968 1.384 . S
C966 H957 0.929 . S
C966 C958 1.378 . S
C966 C961 1.350 . S
C967 H954 0.929 . S
C967 C959 1.433 . S
C967 N969 1.384 . S
N968 C964 1.427 . S
N968 C965 1.384 . S
N969 C961 1.427 . S
N969 C967 1.384 . S
H970 C976 0.930 . S
H971 C980 0.930 . S
H972 C985 0.929 . S
H973 C983 0.929 . S
H974 C978 0.929 . S
H975 C984 0.929 1_554 S
C976 H970 0.930 . S
C976 C977 1.367 . S
C976 C984 1.378 . S
C977 C976 1.367 . S
C977 C985 1.433 . S
C978 H974 0.929 . S
C978 C980 1.378 . S
C978 C982 1.350 . S
C979 C982 1.463 1_556 S
C979 C984 1.350 . S
C979 N987 1.427 . S
C980 H971 0.930 . S
C980 C978 1.378 . S
C980 C981 1.367 . S
C981 C980 1.367 . S
C981 C983 1.433 . S
C982 C978 1.350 . S
C982 C979 1.463 1_554 S
C982 N986 1.427 . S
C983 H973 0.929 . S
C983 C981 1.433 . S
C983 N986 1.384 . S
C984 H975 0.929 1_556 S
C984 C976 1.378 . S
C984 C979 1.350 . S
C985 H972 0.929 . S
C985 C977 1.433 . S
C985 N987 1.384 . S
N986 C982 1.427 . S
N986 C983 1.384 . S
N987 C979 1.427 . S
N987 C985 1.384 . S
H988 C994 0.930 . S
H989 C998 0.930 . S
H990 C1003 0.929 . S
H991 C1001 0.929 . S
H992 C996 0.929 1_556 S
H993 C1002 0.929 . S
C994 H988 0.930 . S
C994 C995 1.367 . S
C994 C1002 1.378 . S
C995 C994 1.367 . S
C995 C1003 1.433 . S
C996 H992 0.929 1_554 S
C996 C998 1.378 . S
C996 C1000 1.350 . S
C997 C1000 1.463 1_556 S
C997 C1002 1.350 . S
C997 N1005 1.427 . S
C998 H989 0.930 . S
C998 C996 1.378 . S
C998 C999 1.367 . S
C999 C998 1.367 . S
C999 C1001 1.433 . S
C1000 C996 1.350 . S
C1000 C997 1.463 1_554 S
C1000 N1004 1.427 . S
C1001 H991 0.929 . S
C1001 C999 1.433 . S
C1001 N1004 1.384 . S
C1002 H993 0.929 . S
C1002 C994 1.378 . S
C1002 C997 1.350 . S
C1003 H990 0.929 . S
C1003 C995 1.433 . S
C1003 N1005 1.384 . S
N1004 C1000 1.427 . S
N1004 C1001 1.384 . S
N1005 C997 1.427 . S
N1005 C1003 1.384 . S
H1006 C1012 0.930 . S
H1007 C1016 0.930 . S
H1008 C1021 0.929 . S
H1009 C1019 0.929 . S
H1010 C1014 0.929 . S
H1011 C1020 0.929 . S
C1012 H1006 0.930 . S
C1012 C1013 1.367 . S
C1012 C1020 1.378 . S
C1013 C1012 1.367 . S
C1013 C1021 1.433 . S
C1014 H1010 0.929 . S
C1014 C1016 1.378 . S
C1014 C1018 1.350 . S
C1015 C1018 1.463 . S
C1015 C1020 1.350 . S
C1015 N1023 1.427 . S
C1016 H1007 0.930 . S
C1016 C1014 1.378 . S
C1016 C1017 1.367 . S
C1017 C1016 1.367 . S
C1017 C1019 1.433 . S
C1018 C1014 1.350 . S
C1018 C1015 1.463 . S
C1018 N1022 1.427 . S
C1019 H1009 0.929 . S
C1019 C1017 1.433 . S
C1019 N1022 1.384 . S
C1020 H1011 0.929 . S
C1020 C1012 1.378 . S
C1020 C1015 1.350 . S
C1021 H1008 0.929 . S
C1021 C1013 1.433 . S
C1021 N1023 1.384 . S
N1022 C1018 1.427 . S
N1022 C1019 1.384 . S
N1023 C1015 1.427 . S
N1023 C1021 1.384 . S
H1024 C1030 0.930 . S
H1025 C1034 0.930 . S
H1026 C1039 0.929 . S
H1027 C1037 0.929 . S
H1028 C1032 0.929 . S
H1029 C1038 0.929 . S
C1030 H1024 0.930 . S
C1030 C1031 1.367 . S
C1030 C1038 1.378 . S
C1031 C1030 1.367 . S
C1031 C1039 1.433 . S
C1032 H1028 0.929 . S
C1032 C1034 1.378 . S
C1032 C1036 1.350 . S
C1033 C1036 1.463 . S
C1033 C1038 1.350 1_556 S
C1033 N1041 1.427 . S
C1034 H1025 0.930 . S
C1034 C1032 1.378 . S
C1034 C1035 1.367 . S
C1035 C1034 1.367 . S
C1035 C1037 1.433 . S
C1036 C1032 1.350 . S
C1036 C1033 1.463 . S
C1036 N1040 1.427 . S
C1037 H1027 0.929 . S
C1037 C1035 1.433 . S
C1037 N1040 1.384 . S
C1038 H1029 0.929 . S
C1038 C1030 1.378 . S
C1038 C1033 1.350 1_554 S
C1039 H1026 0.929 . S
C1039 C1031 1.433 . S
C1039 N1041 1.384 1_554 S
N1040 C1036 1.427 . S
N1040 C1037 1.384 . S
N1041 C1033 1.427 . S
N1041 C1039 1.384 1_556 S
H1042 C1048 0.930 . S
H1043 C1052 0.930 . S
H1044 C1057 0.929 . S
H1045 C1055 0.929 . S
H1046 C1050 0.929 1_655 S
H1047 C1056 0.929 1_455 S
C1048 H1042 0.930 . S
C1048 C1049 1.367 . S
C1048 C1056 1.378 . S
C1049 C1048 1.367 . S
C1049 C1057 1.433 . S
C1050 H1046 0.929 1_455 S
C1050 C1052 1.378 . S
C1050 C1054 1.350 . S
C1051 C1054 1.463 1_655 S
C1051 C1056 1.350 . S
C1051 N1059 1.427 . S
C1052 H1043 0.930 . S
C1052 C1050 1.378 . S
C1052 C1053 1.367 . S
C1053 C1052 1.367 . S
C1053 C1055 1.433 . S
C1054 C1050 1.350 . S
C1054 C1051 1.463 1_455 S
C1054 N1058 1.427 . S
C1055 H1045 0.929 . S
C1055 C1053 1.433 . S
C1055 N1058 1.384 . S
C1056 H1047 0.929 1_655 S
C1056 C1048 1.378 . S
C1056 C1051 1.350 . S
C1057 H1044 0.929 . S
C1057 C1049 1.433 . S
C1057 N1059 1.384 . S
N1058 C1054 1.427 . S
N1058 C1055 1.384 . S
N1059 C1051 1.427 . S
N1059 C1057 1.384 . S
H1060 C1066 0.930 . S
H1061 C1070 0.930 . S
H1062 C1075 0.929 . S
H1063 C1073 0.929 . S
H1064 C1068 0.929 . S
H1065 C1074 0.929 . S
C1066 H1060 0.930 . S
C1066 C1067 1.367 . S
C1066 C1074 1.378 . S
C1067 C1066 1.367 . S
C1067 C1075 1.433 . S
C1068 H1064 0.929 . S
C1068 C1070 1.378 . S
C1068 C1072 1.350 . S
C1069 C1072 1.463 . S
C1069 C1074 1.350 . S
C1069 N1077 1.427 . S
C1070 H1061 0.930 . S
C1070 C1068 1.378 . S
C1070 C1071 1.367 . S
C1071 C1070 1.367 . S
C1071 C1073 1.433 . S
C1072 C1068 1.350 . S
C1072 C1069 1.463 . S
C1072 N1076 1.427 . S
C1073 H1063 0.929 . S
C1073 C1071 1.433 . S
C1073 N1076 1.384 . S
C1074 H1065 0.929 . S
C1074 C1066 1.378 . S
C1074 C1069 1.350 . S
C1075 H1062 0.929 . S
C1075 C1067 1.433 . S
C1075 N1077 1.384 . S
N1076 C1072 1.427 . S
N1076 C1073 1.384 . S
N1077 C1069 1.427 . S
N1077 C1075 1.384 . S
H1078 C1084 0.930 . S
H1079 C1088 0.930 . S
H1080 C1093 0.929 . S
H1081 C1091 0.929 . S
H1082 C1086 0.929 . S
H1083 C1092 0.929 . S
C1084 H1078 0.930 . S
C1084 C1085 1.367 . S
C1084 C1092 1.378 . S
C1085 C1084 1.367 . S
C1085 C1093 1.433 . S
C1086 H1082 0.929 . S
C1086 C1088 1.378 1_556 S
C1086 C1090 1.350 . S
C1087 C1090 1.463 . S
C1087 C1092 1.350 . S
C1087 N1095 1.427 . S
C1088 H1079 0.930 . S
C1088 C1086 1.378 1_554 S
C1088 C1089 1.367 . S
C1089 C1088 1.367 . S
C1089 C1091 1.433 1_554 S
C1090 C1086 1.350 . S
C1090 C1087 1.463 . S
C1090 N1094 1.427 . S
C1091 H1081 0.929 . S
C1091 C1089 1.433 1_556 S
C1091 N1094 1.384 . S
C1092 H1083 0.929 . S
C1092 C1084 1.378 . S
C1092 C1087 1.350 . S
C1093 H1080 0.929 . S
C1093 C1085 1.433 . S
C1093 N1095 1.384 . S
N1094 C1090 1.427 . S
N1094 C1091 1.384 . S
N1095 C1087 1.427 . S
N1095 C1093 1.384 . S
H1096 C1102 0.930 . S
H1097 C1106 0.930 . S
H1098 C1111 0.929 . S
H1099 C1109 0.929 . S
H1100 C1104 0.929 . S
H1101 C1110 0.929 . S
C1102 H1096 0.930 . S
C1102 C1103 1.367 . S
C1102 C1110 1.378 . S
C1103 C1102 1.367 . S
C1103 C1111 1.433 . S
C1104 H1100 0.929 . S
C1104 C1106 1.378 . S
C1104 C1108 1.350 . S
C1105 C1108 1.463 . S
C1105 C1110 1.350 . S
C1105 N1113 1.427 . S
C1106 H1097 0.930 . S
C1106 C1104 1.378 . S
C1106 C1107 1.367 . S
C1107 C1106 1.367 . S
C1107 C1109 1.433 . S
C1108 C1104 1.350 . S
C1108 C1105 1.463 . S
C1108 N1112 1.427 . S
C1109 H1099 0.929 . S
C1109 C1107 1.433 . S
C1109 N1112 1.384 . S
C1110 H1101 0.929 . S
C1110 C1102 1.378 . S
C1110 C1105 1.350 . S
C1111 H1098 0.929 . S
C1111 C1103 1.433 . S
C1111 N1113 1.384 . S
N1112 C1108 1.427 . S
N1112 C1109 1.384 . S
N1113 C1105 1.427 . S
N1113 C1111 1.384 . S
H1114 C1120 0.930 . S
H1115 C1124 0.930 . S
H1116 C1129 0.929 . S
H1117 C1127 0.929 . S
H1118 C1122 0.929 . S
H1119 C1128 0.929 . S
C1120 H1114 0.930 . S
C1120 C1121 1.367 . S
C1120 C1128 1.378 . S
C1121 C1120 1.367 . S
C1121 C1129 1.433 . S
C1122 H1118 0.929 . S
C1122 C1124 1.378 . S
C1122 C1126 1.350 . S
C1123 C1126 1.463 . S
C1123 C1128 1.350 . S
C1123 N1131 1.427 . S
C1124 H1115 0.930 . S
C1124 C1122 1.378 . S
C1124 C1125 1.367 . S
C1125 C1124 1.367 . S
C1125 C1127 1.433 . S
C1126 C1122 1.350 . S
C1126 C1123 1.463 . S
C1126 N1130 1.427 . S
C1127 H1117 0.929 . S
C1127 C1125 1.433 . S
C1127 N1130 1.384 . S
C1128 H1119 0.929 . S
C1128 C1120 1.378 . S
C1128 C1123 1.350 . S
C1129 H1116 0.929 . S
C1129 C1121 1.433 . S
C1129 N1131 1.384 . S
N1130 C1126 1.427 . S
N1130 C1127 1.384 . S
N1131 C1123 1.427 . S
N1131 C1129 1.384 . S
H1132 C1138 0.930 . S
H1133 C1142 0.930 . S
H1134 C1147 0.929 . S
H1135 C1145 0.929 . S
H1136 C1140 0.929 . S
H1137 C1146 0.929 . S
C1138 H1132 0.930 . S
C1138 C1139 1.367 . S
C1138 C1146 1.378 1_556 S
C1139 C1138 1.367 . S
C1139 C1147 1.433 . S
C1140 H1136 0.929 . S
C1140 C1142 1.378 . S
C1140 C1144 1.350 . S
C1141 C1144 1.463 . S
C1141 C1146 1.350 . S
C1141 N1149 1.427 1_554 S
C1142 H1133 0.930 . S
C1142 C1140 1.378 . S
C1142 C1143 1.367 . S
C1143 C1142 1.367 . S
C1143 C1145 1.433 . S
C1144 C1140 1.350 . S
C1144 C1141 1.463 . S
C1144 N1148 1.427 . S
C1145 H1135 0.929 . S
C1145 C1143 1.433 . S
C1145 N1148 1.384 . S
C1146 H1137 0.929 . S
C1146 C1138 1.378 1_554 S
C1146 C1141 1.350 . S
C1147 H1134 0.929 . S
C1147 C1139 1.433 . S
C1147 N1149 1.384 . S
N1148 C1144 1.427 . S
N1148 C1145 1.384 . S
N1149 C1141 1.427 1_556 S
N1149 C1147 1.384 . S
H1150 C1156 0.930 . S
H1151 C1160 0.930 . S
H1152 C1165 0.929 . S
H1153 C1163 0.929 . S
H1154 C1158 0.929 . S
H1155 C1164 0.929 . S
C1156 H1150 0.930 . S
C1156 C1157 1.367 1_554 S
C1156 C1164 1.378 . S
C1157 C1156 1.367 1_556 S
C1157 C1165 1.433 . S
C1158 H1154 0.929 . S
C1158 C1160 1.378 . S
C1158 C1162 1.350 . S
C1159 C1162 1.463 1_455 S
C1159 C1164 1.350 . S
C1159 N1167 1.427 . S
C1160 H1151 0.930 . S
C1160 C1158 1.378 . S
C1160 C1161 1.367 . S
C1161 C1160 1.367 . S
C1161 C1163 1.433 . S
C1162 C1158 1.350 . S
C1162 C1159 1.463 1_655 S
C1162 N1166 1.427 . S
C1163 H1153 0.929 . S
C1163 C1161 1.433 . S
C1163 N1166 1.384 . S
C1164 H1155 0.929 . S
C1164 C1156 1.378 . S
C1164 C1159 1.350 . S
C1165 H1152 0.929 . S
C1165 C1157 1.433 . S
C1165 N1167 1.384 1_556 S
N1166 C1162 1.427 . S
N1166 C1163 1.384 . S
N1167 C1159 1.427 . S
N1167 C1165 1.384 1_554 S
H1168 C1174 0.930 1_554 S
H1169 C1178 0.930 . S
H1170 C1183 0.929 . S
H1171 C1181 0.929 . S
H1172 C1176 0.929 . S
H1173 C1182 0.929 . S
C1174 H1168 0.930 1_556 S
C1174 C1175 1.367 . S
C1174 C1182 1.378 1_556 S
C1175 C1174 1.367 . S
C1175 C1183 1.433 . S
C1176 H1172 0.929 . S
C1176 C1178 1.378 . S
C1176 C1180 1.350 . S
C1177 C1180 1.463 . S
C1177 C1182 1.350 . S
C1177 N1185 1.427 1_554 S
C1178 H1169 0.930 . S
C1178 C1176 1.378 . S
C1178 C1179 1.367 . S
C1179 C1178 1.367 . S
C1179 C1181 1.433 . S
C1180 C1176 1.350 . S
C1180 C1177 1.463 . S
C1180 N1184 1.427 . S
C1181 H1171 0.929 . S
C1181 C1179 1.433 . S
C1181 N1184 1.384 . S
C1182 H1173 0.929 . S
C1182 C1174 1.378 1_554 S
C1182 C1177 1.350 . S
C1183 H1170 0.929 . S
C1183 C1175 1.433 . S
C1183 N1185 1.384 . S
N1184 C1180 1.427 . S
N1184 C1181 1.384 . S
N1185 C1177 1.427 1_556 S
N1185 C1183 1.384 . S
H1186 C1192 0.930 . S
H1187 C1196 0.930 . S
H1188 C1201 0.929 . S
H1189 C1199 0.929 . S
H1190 C1194 0.929 1_455 S
H1191 C1200 0.899 1_655 S
C1192 H1186 0.930 . S
C1192 C1193 1.367 . S
C1192 C1200 1.378 . S
C1193 C1192 1.367 . S
C1193 C1201 1.433 . S
C1194 H1190 0.929 1_655 S
C1194 C1196 1.378 . S
C1194 C1198 1.350 . S
C1195 C1198 1.463 1_455 S
C1195 C1200 1.350 . S
C1195 N1203 1.427 . S
C1196 H1187 0.930 . S
C1196 C1194 1.378 . S
C1196 C1197 1.367 . S
C1197 C1196 1.367 . S
C1197 C1199 1.433 . S
C1198 C1194 1.350 . S
C1198 C1195 1.463 1_655 S
C1198 N1202 1.427 . S
C1199 H1189 0.929 . S
C1199 C1197 1.433 . S
C1199 N1202 1.384 . S
C1200 H1191 0.899 1_455 S
C1200 C1192 1.378 . S
C1200 C1195 1.350 . S
C1201 H1188 0.929 . S
C1201 C1193 1.433 . S
C1201 N1203 1.384 . S
N1202 C1198 1.427 . S
N1202 C1199 1.384 . S
N1203 C1195 1.427 . S
N1203 C1201 1.384 . S
H1204 C1210 0.930 . S
H1205 C1214 0.930 . S
H1206 C1219 0.929 . S
H1207 C1217 0.929 . S
H1208 C1212 0.929 . S
H1209 C1218 0.929 . S
C1210 H1204 0.930 . S
C1210 C1211 1.367 . S
C1210 C1218 1.378 . S
C1211 C1210 1.367 . S
C1211 C1219 1.433 . S
C1212 H1208 0.929 . S
C1212 C1214 1.378 . S
C1212 C1216 1.350 . S
C1213 C1216 1.463 . S
C1213 C1218 1.350 . S
C1213 N1221 1.427 . S
C1214 H1205 0.930 . S
C1214 C1212 1.378 . S
C1214 C1215 1.367 . S
C1215 C1214 1.367 . S
C1215 C1217 1.433 . S
C1216 C1212 1.350 . S
C1216 C1213 1.463 . S
C1216 N1220 1.427 . S
C1217 H1207 0.929 . S
C1217 C1215 1.433 . S
C1217 N1220 1.384 . S
C1218 H1209 0.929 . S
C1218 C1210 1.378 . S
C1218 C1213 1.350 . S
C1219 H1206 0.929 . S
C1219 C1211 1.433 . S
C1219 N1221 1.384 . S
N1220 C1216 1.427 . S
N1220 C1217 1.384 . S
N1221 C1213 1.427 . S
N1221 C1219 1.384 . S
H1222 C1228 0.930 . S
H1223 C1232 0.930 . S
H1224 C1237 0.929 . S
H1225 C1235 0.929 . S
H1226 C1230 0.929 . S
H1227 C1236 0.929 . S
C1228 H1222 0.930 . S
C1228 C1229 1.367 . S
C1228 C1236 1.378 . S
C1229 C1228 1.367 . S
C1229 C1237 1.433 . S
C1230 H1226 0.929 . S
C1230 C1232 1.378 1_554 S
C1230 C1234 1.350 . S
C1231 C1234 1.463 . S
C1231 C1236 1.350 . S
C1231 N1239 1.427 . S
C1232 H1223 0.930 . S
C1232 C1230 1.378 1_556 S
C1232 C1233 1.367 . S
C1233 C1232 1.367 . S
C1233 C1235 1.433 1_556 S
C1234 C1230 1.350 . S
C1234 C1231 1.463 . S
C1234 N1238 1.427 . S
C1235 H1225 0.929 . S
C1235 C1233 1.433 1_554 S
C1235 N1238 1.384 . S
C1236 H1227 0.929 . S
C1236 C1228 1.378 . S
C1236 C1231 1.350 . S
C1237 H1224 0.929 . S
C1237 C1229 1.433 . S
C1237 N1239 1.384 . S
N1238 C1234 1.427 . S
N1238 C1235 1.384 . S
N1239 C1231 1.427 . S
N1239 C1237 1.384 . S
H1240 C1246 0.930 . S
H1241 C1250 0.930 . S
H1242 C1255 0.929 . S
H1243 C1253 0.929 . S
H1244 C1248 0.929 . S
H1245 C1254 0.929 . S
C1246 H1240 0.930 . S
C1246 C1247 1.367 . S
C1246 C1254 1.378 . S
C1247 C1246 1.367 . S
C1247 C1255 1.433 . S
C1248 H1244 0.929 . S
C1248 C1250 1.378 . S
C1248 C1252 1.350 . S
C1249 C1252 1.463 . S
C1249 C1254 1.350 . S
C1249 N1257 1.427 . S
C1250 H1241 0.930 . S
C1250 C1248 1.378 . S
C1250 C1251 1.367 . S
C1251 C1250 1.367 . S
C1251 C1253 1.433 . S
C1252 C1248 1.350 . S
C1252 C1249 1.463 . S
C1252 N1256 1.427 . S
C1253 H1243 0.929 . S
C1253 C1251 1.433 . S
C1253 N1256 1.384 . S
C1254 H1245 0.929 . S
C1254 C1246 1.378 . S
C1254 C1249 1.350 . S
C1255 H1242 0.929 . S
C1255 C1247 1.433 . S
C1255 N1257 1.384 . S
N1256 C1252 1.427 . S
N1256 C1253 1.384 . S
N1257 C1249 1.427 . S
N1257 C1255 1.384 . S
H1258 C1264 0.930 . S
H1259 C1268 0.930 . S
H1260 C1273 0.929 . S
H1261 C1271 0.929 . S
H1262 C1266 0.929 . S
H1263 C1272 0.929 . S
C1264 H1258 0.930 . S
C1264 C1265 1.367 . S
C1264 C1272 1.378 . S
C1265 C1264 1.367 . S
C1265 C1273 1.433 . S
C1266 H1262 0.929 . S
C1266 C1268 1.378 . S
C1266 C1270 1.350 . S
C1267 C1270 1.463 . S
C1267 C1272 1.350 . S
C1267 N1275 1.427 . S
C1268 H1259 0.930 . S
C1268 C1266 1.378 . S
C1268 C1269 1.367 . S
C1269 C1268 1.367 . S
C1269 C1271 1.433 . S
C1270 C1266 1.350 . S
C1270 C1267 1.463 . S
C1270 N1274 1.427 . S
C1271 H1261 0.929 . S
C1271 C1269 1.433 . S
C1271 N1274 1.384 . S
C1272 H1263 0.929 . S
C1272 C1264 1.378 . S
C1272 C1267 1.350 . S
C1273 H1260 0.929 . S
C1273 C1265 1.433 . S
C1273 N1275 1.384 . S
N1274 C1270 1.427 . S
N1274 C1271 1.384 . S
N1275 C1267 1.427 . S
N1275 C1273 1.384 . S
H1276 C1282 0.930 1_556 S
H1277 C1286 0.930 . S
H1278 C1291 0.929 . S
H1279 C1289 0.929 . S
H1280 C1284 0.929 . S
H1281 C1290 0.929 . S
C1282 H1276 0.930 1_554 S
C1282 C1283 1.367 . S
C1282 C1290 1.378 1_554 S
C1283 C1282 1.367 . S
C1283 C1291 1.433 . S
C1284 H1280 0.929 . S
C1284 C1286 1.378 . S
C1284 C1288 1.350 . S
C1285 C1288 1.463 . S
C1285 C1290 1.350 . S
C1285 N1293 1.427 1_556 S
C1286 H1277 0.930 . S
C1286 C1284 1.378 . S
C1286 C1287 1.367 . S
C1287 C1286 1.367 . S
C1287 C1289 1.433 . S
C1288 C1284 1.350 . S
C1288 C1285 1.463 . S
C1288 N1292 1.427 . S
C1289 H1279 0.929 . S
C1289 C1287 1.433 . S
C1289 N1292 1.384 . S
C1290 H1281 0.929 . S
C1290 C1282 1.378 1_556 S
C1290 C1285 1.350 . S
C1291 H1278 0.929 . S
C1291 C1283 1.433 . S
C1291 N1293 1.384 . S
N1292 C1288 1.427 . S
N1292 C1289 1.384 . S
N1293 C1285 1.427 1_554 S
N1293 C1291 1.384 . S
H1294 C1300 0.930 . S
H1295 C1304 0.930 . S
H1296 C1309 0.929 . S
H1297 C1307 0.929 1_554 S
H1298 C1302 0.929 . S
H1299 C1308 0.929 . S
C1300 H1294 0.930 . S
C1300 C1301 1.367 . S
C1300 C1308 1.378 . S
C1301 C1300 1.367 . S
C1301 C1309 1.433 . S
C1302 H1298 0.929 . S
C1302 C1304 1.378 1_556 S
C1302 C1306 1.350 . S
C1303 C1306 1.463 1_455 S
C1303 C1308 1.350 . S
C1303 N1311 1.427 . S
C1304 H1295 0.930 . S
C1304 C1302 1.378 1_554 S
C1304 C1305 1.367 . S
C1305 C1304 1.367 . S
C1305 C1307 1.433 1_554 S
C1306 C1302 1.350 . S
C1306 C1303 1.463 1_655 S
C1306 N1310 1.427 . S
C1307 H1297 0.929 1_556 S
C1307 C1305 1.433 1_556 S
C1307 N1310 1.384 . S
C1308 H1299 0.929 . S
C1308 C1300 1.378 . S
C1308 C1303 1.350 . S
C1309 H1296 0.929 . S
C1309 C1301 1.433 . S
C1309 N1311 1.384 . S
N1310 C1306 1.427 . S
N1310 C1307 1.384 . S
N1311 C1303 1.427 . S
N1311 C1309 1.384 . S
H1312 C1318 0.930 . S
H1313 C1322 0.930 . S
H1314 C1327 0.929 . S
H1315 C1325 0.929 . S
H1316 C1320 0.929 . S
H1317 C1326 0.929 . S
C1318 H1312 0.930 . S
C1318 C1319 1.367 . S
C1318 C1326 1.378 . S
C1319 C1318 1.367 . S
C1319 C1327 1.433 . S
C1320 H1316 0.929 . S
C1320 C1322 1.378 . S
C1320 C1324 1.350 . S
C1321 C1324 1.463 . S
C1321 C1326 1.350 . S
C1321 N1329 1.427 . S
C1322 H1313 0.930 . S
C1322 C1320 1.378 . S
C1322 C1323 1.367 . S
C1323 C1322 1.367 . S
C1323 C1325 1.433 . S
C1324 C1320 1.350 . S
C1324 C1321 1.463 . S
C1324 N1328 1.427 . S
C1325 H1315 0.929 . S
C1325 C1323 1.433 . S
C1325 N1328 1.384 . S
C1326 H1317 0.929 . S
C1326 C1318 1.378 . S
C1326 C1321 1.350 . S
C1327 H1314 0.929 . S
C1327 C1319 1.433 . S
C1327 N1329 1.384 . S
N1328 C1324 1.427 . S
N1328 C1325 1.384 . S
N1329 C1321 1.427 . S
N1329 C1327 1.384 . S
H1330 C1336 0.930 . S
H1331 C1340 0.930 . S
H1332 C1345 0.929 . S
H1333 C1343 0.929 . S
H1334 C1338 0.929 . S
H1335 C1344 0.929 . S
C1336 H1330 0.930 . S
C1336 C1337 1.367 . S
C1336 C1344 1.378 . S
C1337 C1336 1.367 . S
C1337 C1345 1.433 . S
C1338 H1334 0.929 . S
C1338 C1340 1.378 . S
C1338 C1342 1.350 . S
C1339 C1342 1.463 . S
C1339 C1344 1.350 . S
C1339 N1347 1.427 . S
C1340 H1331 0.930 . S
C1340 C1338 1.378 . S
C1340 C1341 1.367 1_556 S
C1341 C1340 1.367 1_554 S
C1341 C1343 1.433 . S
C1342 C1338 1.350 . S
C1342 C1339 1.463 . S
C1342 N1346 1.427 . S
C1343 H1333 0.929 . S
C1343 C1341 1.433 . S
C1343 N1346 1.384 1_554 S
C1344 H1335 0.929 . S
C1344 C1336 1.378 . S
C1344 C1339 1.350 . S
C1345 H1332 0.929 . S
C1345 C1337 1.433 . S
C1345 N1347 1.384 . S
N1346 C1342 1.427 . S
N1346 C1343 1.384 1_556 S
N1347 C1339 1.427 . S
N1347 C1345 1.384 . S
H1348 C1354 0.930 . S
H1349 C1358 0.930 . S
H1350 C1363 0.929 1_556 S
H1351 C1361 0.929 . S
H1352 C1356 0.929 . S
H1353 C1362 0.929 . S
C1354 H1348 0.930 . S
C1354 C1355 1.367 . S
C1354 C1362 1.378 . S
C1355 C1354 1.367 . S
C1355 C1363 1.433 . S
C1356 H1352 0.929 . S
C1356 C1358 1.378 . S
C1356 C1360 1.350 . S
C1357 C1360 1.463 . S
C1357 C1362 1.350 1_556 S
C1357 N1365 1.427 . S
C1358 H1349 0.930 . S
C1358 C1356 1.378 . S
C1358 C1359 1.367 . S
C1359 C1358 1.367 . S
C1359 C1361 1.433 . S
C1360 C1356 1.350 . S
C1360 C1357 1.463 . S
C1360 N1364 1.427 . S
C1361 H1351 0.929 . S
C1361 C1359 1.433 . S
C1361 N1364 1.384 . S
C1362 H1353 0.929 . S
C1362 C1354 1.378 . S
C1362 C1357 1.350 1_554 S
C1363 H1350 0.929 1_554 S
C1363 C1355 1.433 . S
C1363 N1365 1.384 1_554 S
N1364 C1360 1.427 . S
N1364 C1361 1.384 . S
N1365 C1357 1.427 . S
N1365 C1363 1.384 1_556 S
H1366 C1372 0.930 . S
H1367 C1376 0.930 . S
H1368 C1381 0.929 . S
H1369 C1379 0.929 . S
H1370 C1374 0.929 . S
H1371 C1380 0.929 . S
C1372 H1366 0.930 . S
C1372 C1373 1.367 . S
C1372 C1380 1.378 . S
C1373 C1372 1.367 . S
C1373 C1381 1.433 . S
C1374 H1370 0.929 . S
C1374 C1376 1.378 . S
C1374 C1378 1.350 . S
C1375 C1378 1.463 1_655 S
C1375 C1380 1.350 . S
C1375 N1383 1.427 . S
C1376 H1367 0.930 . S
C1376 C1374 1.378 . S
C1376 C1377 1.367 . S
C1377 C1376 1.367 . S
C1377 C1379 1.433 . S
C1378 C1374 1.350 . S
C1378 C1375 1.463 1_455 S
C1378 N1382 1.427 . S
C1379 H1369 0.929 . S
C1379 C1377 1.433 . S
C1379 N1382 1.384 . S
C1380 H1371 0.929 . S
C1380 C1372 1.378 . S
C1380 C1375 1.350 . S
C1381 H1368 0.929 . S
C1381 C1373 1.433 . S
C1381 N1383 1.384 . S
N1382 C1378 1.427 . S
N1382 C1379 1.384 . S
N1383 C1375 1.427 . S
N1383 C1381 1.384 . S
H1384 C1390 0.930 1_554 S
H1385 C1394 0.930 . S
H1386 C1399 0.929 . S
H1387 C1397 0.929 . S
H1388 C1392 0.929 . S
H1389 C1398 0.929 . S
C1390 H1384 0.930 1_556 S
C1390 C1391 1.367 . S
C1390 C1398 1.378 1_556 S
C1391 C1390 1.367 . S
C1391 C1399 1.433 . S
C1392 H1388 0.929 . S
C1392 C1394 1.378 . S
C1392 C1396 1.350 . S
C1393 C1396 1.463 . S
C1393 C1398 1.350 . S
C1393 N1401 1.427 1_554 S
C1394 H1385 0.930 . S
C1394 C1392 1.378 . S
C1394 C1395 1.367 . S
C1395 C1394 1.367 . S
C1395 C1397 1.433 . S
C1396 C1392 1.350 . S
C1396 C1393 1.463 . S
C1396 N1400 1.427 . S
C1397 H1387 0.929 . S
C1397 C1395 1.433 . S
C1397 N1400 1.384 . S
C1398 H1389 0.929 . S
C1398 C1390 1.378 1_554 S
C1398 C1393 1.350 . S
C1399 H1386 0.929 . S
C1399 C1391 1.433 . S
C1399 N1401 1.384 . S
N1400 C1396 1.427 . S
N1400 C1397 1.384 . S
N1401 C1393 1.427 1_556 S
N1401 C1399 1.384 . S
H1402 C1408 0.930 . S
H1403 C1412 0.930 . S
H1404 C1417 0.929 . S
H1405 C1415 0.929 . S
H1406 C1410 0.929 . S
H1407 C1416 0.929 . S
C1408 H1402 0.930 . S
C1408 C1409 1.367 1_554 S
C1408 C1416 1.378 . S
C1409 C1408 1.367 1_556 S
C1409 C1417 1.433 . S
C1410 H1406 0.929 . S
C1410 C1412 1.378 . S
C1410 C1414 1.350 . S
C1411 C1414 1.463 1_655 S
C1411 C1416 1.350 . S
C1411 N1419 1.427 . S
C1412 H1403 0.930 . S
C1412 C1410 1.378 . S
C1412 C1413 1.367 . S
C1413 C1412 1.367 . S
C1413 C1415 1.433 . S
C1414 C1410 1.350 . S
C1414 C1411 1.463 1_455 S
C1414 N1418 1.427 . S
C1415 H1405 0.929 . S
C1415 C1413 1.433 . S
C1415 N1418 1.384 . S
C1416 H1407 0.929 . S
C1416 C1408 1.378 . S
C1416 C1411 1.350 . S
C1417 H1404 0.929 . S
C1417 C1409 1.433 . S
C1417 N1419 1.384 1_556 S
N1418 C1414 1.427 . S
N1418 C1415 1.384 . S
N1419 C1411 1.427 . S
N1419 C1417 1.384 1_554 S
H1420 C1426 0.930 . S
H1421 C1430 0.930 . S
H1422 C1435 0.929 . S
H1423 C1433 0.929 . S
H1424 C1428 0.929 . S
H1425 C1434 0.929 . S
C1426 H1420 0.930 . S
C1426 C1427 1.367 . S
C1426 C1434 1.378 . S
C1427 C1426 1.367 . S
C1427 C1435 1.433 . S
C1428 H1424 0.929 . S
C1428 C1430 1.378 . S
C1428 C1432 1.350 . S
C1429 C1432 1.463 . S
C1429 C1434 1.350 . S
C1429 N1437 1.427 . S
C1430 H1421 0.930 . S
C1430 C1428 1.378 . S
C1430 C1431 1.367 . S
C1431 C1430 1.367 . S
C1431 C1433 1.433 . S
C1432 C1428 1.350 . S
C1432 C1429 1.463 . S
C1432 N1436 1.427 . S
C1433 H1423 0.929 . S
C1433 C1431 1.433 . S
C1433 N1436 1.384 . S
C1434 H1425 0.929 . S
C1434 C1426 1.378 . S
C1434 C1429 1.350 . S
C1435 H1422 0.929 . S
C1435 C1427 1.433 . S
C1435 N1437 1.384 . S
N1436 C1432 1.427 . S
N1436 C1433 1.384 . S
N1437 C1429 1.427 . S
N1437 C1435 1.384 . S
H1438 C1444 0.930 . S
H1439 C1448 0.930 . S
H1440 C1453 0.929 . S
H1441 C1451 0.929 . S
H1442 C1446 0.929 . S
H1443 C1452 0.929 . S
C1444 H1438 0.930 . S
C1444 C1445 1.367 . S
C1444 C1452 1.378 . S
C1445 C1444 1.367 . S
C1445 C1453 1.433 . S
C1446 H1442 0.929 . S
C1446 C1448 1.378 . S
C1446 C1450 1.350 . S
C1447 C1450 1.463 . S
C1447 C1452 1.350 . S
C1447 N1455 1.427 . S
C1448 H1439 0.930 . S
C1448 C1446 1.378 . S
C1448 C1449 1.367 . S
C1449 C1448 1.367 . S
C1449 C1451 1.433 . S
C1450 C1446 1.350 . S
C1450 C1447 1.463 . S
C1450 N1454 1.427 . S
C1451 H1441 0.929 . S
C1451 C1449 1.433 . S
C1451 N1454 1.384 . S
C1452 H1443 0.929 . S
C1452 C1444 1.378 . S
C1452 C1447 1.350 . S
C1453 H1440 0.929 . S
C1453 C1445 1.433 . S
C1453 N1455 1.384 . S
N1454 C1450 1.427 . S
N1454 C1451 1.384 . S
N1455 C1447 1.427 . S
N1455 C1453 1.384 . S
H1456 C1462 0.930 . S
H1457 C1466 0.930 . S
H1458 C1471 0.929 . S
H1459 C1469 0.929 . S
H1460 C1464 0.929 . S
H1461 C1470 0.929 . S
C1462 H1456 0.930 . S
C1462 C1463 1.367 . S
C1462 C1470 1.378 . S
C1463 C1462 1.367 . S
C1463 C1471 1.433 . S
C1464 H1460 0.929 . S
C1464 C1466 1.378 . S
C1464 C1468 1.350 . S
C1465 C1468 1.463 . S
C1465 C1470 1.350 . S
C1465 N1473 1.427 . S
C1466 H1457 0.930 . S
C1466 C1464 1.378 . S
C1466 C1467 1.367 . S
C1467 C1466 1.367 . S
C1467 C1469 1.433 . S
C1468 C1464 1.350 . S
C1468 C1465 1.463 . S
C1468 N1472 1.427 . S
C1469 H1459 0.929 . S
C1469 C1467 1.433 . S
C1469 N1472 1.384 . S
C1470 H1461 0.929 . S
C1470 C1462 1.378 . S
C1470 C1465 1.350 . S
C1471 H1458 0.929 . S
C1471 C1463 1.433 . S
C1471 N1473 1.384 . S
N1472 C1468 1.427 . S
N1472 C1469 1.384 . S
N1473 C1465 1.427 . S
N1473 C1471 1.384 . S
H1474 C1480 0.930 . S
H1475 C1484 0.930 . S
H1476 C1489 0.929 . S
H1477 C1487 0.929 1_556 S
H1478 C1482 0.929 . S
H1479 C1488 0.929 . S
C1480 H1474 0.930 . S
C1480 C1481 1.367 . S
C1480 C1488 1.378 . S
C1481 C1480 1.367 . S
C1481 C1489 1.433 . S
C1482 H1478 0.929 . S
C1482 C1484 1.378 1_554 S
C1482 C1486 1.350 . S
C1483 C1486 1.463 . S
C1483 C1488 1.350 . S
C1483 N1491 1.427 . S
C1484 H1475 0.930 . S
C1484 C1482 1.378 1_556 S
C1484 C1485 1.367 . S
C1485 C1484 1.367 . S
C1485 C1487 1.433 1_556 S
C1486 C1482 1.350 . S
C1486 C1483 1.463 . S
C1486 N1490 1.427 . S
C1487 H1477 0.929 1_554 S
C1487 C1485 1.433 1_554 S
C1487 N1490 1.384 . S
C1488 H1479 0.929 . S
C1488 C1480 1.378 . S
C1488 C1483 1.350 . S
C1489 H1476 0.929 . S
C1489 C1481 1.433 . S
C1489 N1491 1.384 . S
N1490 C1486 1.427 . S
N1490 C1487 1.384 . S
N1491 C1483 1.427 . S
N1491 C1489 1.384 . S
H1492 C1498 0.930 . S
H1493 C1502 0.930 . S
H1494 C1507 0.929 . S
H1495 C1505 0.929 . S
H1496 C1500 0.929 . S
H1497 C1506 0.929 . S
C1498 H1492 0.930 . S
C1498 C1499 1.367 . S
C1498 C1506 1.378 . S
C1499 C1498 1.367 . S
C1499 C1507 1.433 . S
C1500 H1496 0.929 . S
C1500 C1502 1.378 . S
C1500 C1504 1.350 1_556 S
C1501 C1504 1.463 . S
C1501 C1506 1.350 . S
C1501 N1509 1.427 . S
C1502 H1493 0.930 . S
C1502 C1500 1.378 . S
C1502 C1503 1.367 . S
C1503 C1502 1.367 . S
C1503 C1505 1.433 . S
C1504 C1500 1.350 1_554 S
C1504 C1501 1.463 . S
C1504 N1508 1.427 . S
C1505 H1495 0.929 . S
C1505 C1503 1.433 . S
C1505 N1508 1.384 1_556 S
C1506 H1497 0.929 . S
C1506 C1498 1.378 . S
C1506 C1501 1.350 . S
C1507 H1494 0.929 . S
C1507 C1499 1.433 . S
C1507 N1509 1.384 . S
N1508 C1504 1.427 . S
N1508 C1505 1.384 1_554 S
N1509 C1501 1.427 . S
N1509 C1507 1.384 . S
H1510 C1516 0.930 . S
H1511 C1520 0.930 . S
H1512 C1525 0.929 . S
H1513 C1523 0.929 . S
H1514 C1518 0.929 . S
H1515 C1524 0.929 . S
C1516 H1510 0.930 . S
C1516 C1517 1.367 . S
C1516 C1524 1.378 . S
C1517 C1516 1.367 . S
C1517 C1525 1.433 . S
C1518 H1514 0.929 . S
C1518 C1520 1.378 . S
C1518 C1522 1.350 . S
C1519 C1522 1.463 1_455 S
C1519 C1524 1.350 . S
C1519 N1527 1.427 . S
C1520 H1511 0.930 . S
C1520 C1518 1.378 . S
C1520 C1521 1.367 . S
C1521 C1520 1.367 . S
C1521 C1523 1.433 . S
C1522 C1518 1.350 . S
C1522 C1519 1.463 1_655 S
C1522 N1526 1.427 . S
C1523 H1513 0.929 . S
C1523 C1521 1.433 . S
C1523 N1526 1.384 . S
C1524 H1515 0.929 . S
C1524 C1516 1.378 . S
C1524 C1519 1.350 . S
C1525 H1512 0.929 . S
C1525 C1517 1.433 . S
C1525 N1527 1.384 . S
N1526 C1522 1.427 . S
N1526 C1523 1.384 . S
N1527 C1519 1.427 . S
N1527 C1525 1.384 . S
H1528 C1534 0.930 1_556 S
H1529 C1538 0.930 . S
H1530 C1543 0.929 . S
H1531 C1541 0.929 . S
H1532 C1536 0.929 . S
H1533 C1542 0.929 . S
C1534 H1528 0.930 1_554 S
C1534 C1535 1.367 . S
C1534 C1542 1.378 1_554 S
C1535 C1534 1.367 . S
C1535 C1543 1.433 . S
C1536 H1532 0.929 . S
C1536 C1538 1.378 . S
C1536 C1540 1.350 . S
C1537 C1540 1.463 . S
C1537 C1542 1.350 . S
C1537 N1545 1.427 1_556 S
C1538 H1529 0.930 . S
C1538 C1536 1.378 . S
C1538 C1539 1.367 . S
C1539 C1538 1.367 . S
C1539 C1541 1.433 . S
C1540 C1536 1.350 . S
C1540 C1537 1.463 . S
C1540 N1544 1.427 . S
C1541 H1531 0.929 . S
C1541 C1539 1.433 . S
C1541 N1544 1.384 . S
C1542 H1533 0.929 . S
C1542 C1534 1.378 1_556 S
C1542 C1537 1.350 . S
C1543 H1530 0.929 . S
C1543 C1535 1.433 . S
C1543 N1545 1.384 . S
N1544 C1540 1.427 . S
N1544 C1541 1.384 . S
N1545 C1537 1.427 1_554 S
N1545 C1543 1.384 . S
H1546 C1552 0.930 . S
H1547 C1556 0.930 . S
H1548 C1561 0.929 . S
H1549 C1559 0.929 . S
H1550 C1554 0.929 1_655 S
H1551 C1560 0.929 1_455 S
C1552 H1546 0.930 . S
C1552 C1553 1.367 . S
C1552 C1560 1.378 . S
C1553 C1552 1.367 . S
C1553 C1561 1.433 . S
C1554 H1550 0.929 1_455 S
C1554 C1556 1.378 1_556 S
C1554 C1558 1.350 . S
C1555 C1558 1.463 1_655 S
C1555 C1560 1.350 . S
C1555 N1563 1.427 . S
C1556 H1547 0.930 . S
C1556 C1554 1.378 1_554 S
C1556 C1557 1.367 . S
C1557 C1556 1.367 . S
C1557 C1559 1.433 1_554 S
C1558 C1554 1.350 . S
C1558 C1555 1.463 1_455 S
C1558 N1562 1.427 . S
C1559 H1549 0.929 . S
C1559 C1557 1.433 1_556 S
C1559 N1562 1.384 . S
C1560 H1551 0.929 1_655 S
C1560 C1552 1.378 . S
C1560 C1555 1.350 . S
C1561 H1548 0.929 . S
C1561 C1553 1.433 . S
C1561 N1563 1.384 . S
N1562 C1558 1.427 . S
N1562 C1559 1.384 . S
N1563 C1555 1.427 . S
N1563 C1561 1.384 . S
H1564 C1570 0.930 . S
H1565 C1574 0.930 . S
H1566 C1579 0.929 . S
H1567 C1577 0.929 . S
H1568 C1572 0.929 . S
H1569 C1578 0.929 . S
C1570 H1564 0.930 . S
C1570 C1571 1.367 . S
C1570 C1578 1.378 . S
C1571 C1570 1.367 . S
C1571 C1579 1.433 . S
C1572 H1568 0.929 . S
C1572 C1574 1.378 . S
C1572 C1576 1.350 . S
C1573 C1576 1.463 . S
C1573 C1578 1.350 . S
C1573 N1581 1.427 . S
C1574 H1565 0.930 . S
C1574 C1572 1.378 . S
C1574 C1575 1.367 . S
C1575 C1574 1.367 . S
C1575 C1577 1.433 . S
C1576 C1572 1.350 . S
C1576 C1573 1.463 . S
C1576 N1580 1.427 . S
C1577 H1567 0.929 . S
C1577 C1575 1.433 . S
C1577 N1580 1.384 . S
C1578 H1569 0.929 . S
C1578 C1570 1.378 . S
C1578 C1573 1.350 . S
C1579 H1566 0.929 . S
C1579 C1571 1.433 . S
C1579 N1581 1.384 . S
N1580 C1576 1.427 . S
N1580 C1577 1.384 . S
N1581 C1573 1.427 . S
N1581 C1579 1.384 . S
H1582 C1588 0.930 . S
H1583 C1592 0.930 . S
H1584 C1597 0.929 . S
H1585 C1595 0.929 . S
H1586 C1590 0.929 . S
H1587 C1596 0.929 . S
C1588 H1582 0.930 . S
C1588 C1589 1.367 . S
C1588 C1596 1.378 . S
C1589 C1588 1.367 . S
C1589 C1597 1.433 . S
C1590 H1586 0.929 . S
C1590 C1592 1.378 . S
C1590 C1594 1.350 . S
C1591 C1594 1.463 . S
C1591 C1596 1.350 . S
C1591 N1599 1.427 . S
C1592 H1583 0.930 . S
C1592 C1590 1.378 . S
C1592 C1593 1.367 . S
C1593 C1592 1.367 . S
C1593 C1595 1.433 . S
C1594 C1590 1.350 . S
C1594 C1591 1.463 . S
C1594 N1598 1.427 . S
C1595 H1585 0.929 . S
C1595 C1593 1.433 . S
C1595 N1598 1.384 . S
C1596 H1587 0.929 . S
C1596 C1588 1.378 . S
C1596 C1591 1.350 . S
C1597 H1584 0.929 . S
C1597 C1589 1.433 . S
C1597 N1599 1.384 . S
N1598 C1594 1.427 . S
N1598 C1595 1.384 . S
N1599 C1591 1.427 . S
N1599 C1597 1.384 . S
C455 C84 2.348 . S
C459 C0 2.335 . S
C473 C14 1.363 . S
C477 C98 1.351 . S
C491 C56 2.337 . S
C495 C28 2.350 . S
C509 C42 1.364 . S
C513 C70 1.350 . S
C527 C196 2.350 . S
C531 C112 2.338 . S
C545 C126 1.359 . S
C549 C210 1.352 . S
C563 C168 2.349 . S
C567 C140 2.336 . S
C581 C154 1.352 . S
C585 C182 1.358 . S
C599 C224 2.335 . S
C603 C308 2.340 . S
C617 C322 1.350 . S
C621 C238 1.361 . S
C635 C252 2.338 . S
C639 C280 2.337 . S
C653 C294 1.350 . S
C657 C266 1.361 . S
C671 C420 2.348 . S
C675 C336 2.346 . S
C689 C434 1.355 . S
C693 C350 1.355 . S
C707 C392 2.343 . S
C711 C364 2.350 . S
C725 C378 1.351 . S
C729 C406 1.364 . S
C743 C109 1.310 . S
C747 C11 1.323 . S
C761 C67 1.320 . S
C765 C25 1.314 . S
C779 C81 1.317 . S
C783 C39 1.320 . S
C797 C95 1.321 . S
C801 C53 1.318 . S
C815 C221 1.310 . S
C819 C123 1.322 . S
C833 C179 1.324 . S
C837 C137 1.312 . S
C851 C193 1.310 . S
C855 C151 1.321 . S
C869 C165 1.315 . S
C873 C207 1.323 . S
C887 C333 1.313 . S
C891 C235 1.324 . S
C905 C249 1.315 . S
C909 C291 1.320 . S
C923 C263 1.322 . S
C927 C305 1.317 . S
C941 C319 1.320 . S
C945 C277 1.312 . S
C959 C445 1.312 . S
C963 C347 1.321 . S
C977 C361 1.310 . S
C981 C403 1.323 . S
C995 C375 1.323 . S
C999 C417 1.310 . S
C1013 C431 1.323 . S
C1017 C389 1.315 . S
C1031 C9 1.725 . S
C1035 C425 1.999 . S
C1049 C215 1.241 . S
C1053 C23 1.256 . S
C1067 C397 1.997 . S
C1071 C37 1.732 . S
C1085 C187 1.240 . S
C1089 C51 1.256 . S
C1103 C369 1.995 . S
C1107 C65 1.729 . S
C1121 C79 1.259 . S
C1125 C159 1.238 . S
C1139 C93 1.731 . S
C1143 C341 1.996 . S
C1157 C107 1.257 . S
C1161 C131 1.246 . S
C1175 C121 1.730 . S
C1179 C313 1.995 . S
C1193 C103 1.235 . S
C1197 C135 1.258 . S
C1211 C285 1.992 . S
C1215 C149 1.715 . S
C1229 C75 1.235 . S
C1233 C163 1.258 . S
C1247 C257 1.999 . S
C1251 C177 1.725 . S
C1265 C47 1.237 . S
C1269 C191 1.257 . S
C1283 C205 1.731 . S
C1287 C229 1.996 . S
C1301 C19 1.236 . S
C1305 C219 1.258 . S
C1319 C201 1.993 . S
C1323 C233 1.723 . S
C1337 C439 1.239 . S
C1341 C247 1.259 . S
C1355 C261 1.720 . S
C1359 C173 1.998 . S
C1373 C275 1.258 . S
C1377 C411 1.235 . S
C1391 C289 1.729 . S
C1395 C145 1.995 . S
C1409 C303 1.258 . S
C1413 C383 1.245 . S
C1427 C317 1.731 . S
C1431 C117 1.996 . S
C1445 C331 1.258 . S
C1449 C355 1.236 . S
C1463 C89 1.996 . S
C1467 C345 1.715 . S
C1481 C327 1.245 . S
C1485 C359 1.257 . S
C1499 C61 1.999 . S
C1503 C373 1.727 . S
C1517 C387 1.259 . S
C1521 C299 1.242 . S
C1535 C401 1.728 . S
C1539 C33 1.994 . S
C1553 C271 1.235 . S
C1557 C415 1.258 . S
C1571 C429 1.732 . S
C1575 C5 1.998 . S
C1589 C443 1.257 . S
C1593 C243 1.246 . S
