# Generated by pormake.
# Topology uki, (4)-cn, num edge types: 1
# Building blocks:
#     Node 0, Type 0, BuildingBlock: QUQFOY_clean_sbu_1, # of connection points: 4
#     Node 1, Type 0, BuildingBlock: QUQFOY_clean_sbu_1, # of connection points: 4
#     Node 2, Type 0, BuildingBlock: QUQFOY_clean_sbu_1, # of connection points: 4
#     Node 3, Type 0, BuildingBlock: QUQFOY_clean_sbu_1, # of connection points: 4
#     Node 4, Type 0, BuildingBlock: QUQFOY_clean_sbu_1, # of connection points: 4
#     Node 5, Type 0, BuildingBlock: QUQFOY_clean_sbu_1, # of connection points: 4
#     Node 6, Type 0, BuildingBlock: QUQFOY_clean_sbu_1, # of connection points: 4
#     Node 7, Type 0, BuildingBlock: QUQFOY_clean_sbu_1, # of connection points: 4
#     Node 8, Type 0, BuildingBlock: QUQFOY_clean_sbu_1, # of connection points: 4
#     Node 9, Type 0, BuildingBlock: QUQFOY_clean_sbu_1, # of connection points: 4
#     Node 10, Type 0, BuildingBlock: QUQFOY_clean_sbu_1, # of connection points: 4
#     Node 11, Type 0, BuildingBlock: QUQFOY_clean_sbu_1, # of connection points: 4
#     Node 12, Type 0, BuildingBlock: QUQFOY_clean_sbu_1, # of connection points: 4
#     Node 13, Type 0, BuildingBlock: QUQFOY_clean_sbu_1, # of connection points: 4
#     Node 14, Type 0, BuildingBlock: QUQFOY_clean_sbu_1, # of connection points: 4
#     Node 15, Type 0, BuildingBlock: QUQFOY_clean_sbu_1, # of connection points: 4
#     Edge 16, Type (0, 0), BuildingBlock: MIFKUJ_clean_linker_0, # of connection points: 2
#     Edge 17, Type (0, 0), BuildingBlock: MIFKUJ_clean_linker_0, # of connection points: 2
#     Edge 18, Type (0, 0), BuildingBlock: MIFKUJ_clean_linker_0, # of connection points: 2
#     Edge 19, Type (0, 0), BuildingBlock: MIFKUJ_clean_linker_0, # of connection points: 2
#     Edge 20, Type (0, 0), BuildingBlock: MIFKUJ_clean_linker_0, # of connection points: 2
#     Edge 21, Type (0, 0), BuildingBlock: MIFKUJ_clean_linker_0, # of connection points: 2
#     Edge 22, Type (0, 0), BuildingBlock: MIFKUJ_clean_linker_0, # of connection points: 2
#     Edge 23, Type (0, 0), BuildingBlock: MIFKUJ_clean_linker_0, # of connection points: 2
#     Edge 24, Type (0, 0), BuildingBlock: MIFKUJ_clean_linker_0, # of connection points: 2
#     Edge 25, Type (0, 0), BuildingBlock: MIFKUJ_clean_linker_0, # of connection points: 2
#     Edge 26, Type (0, 0), BuildingBlock: MIFKUJ_clean_linker_0, # of connection points: 2
#     Edge 27, Type (0, 0), BuildingBlock: MIFKUJ_clean_linker_0, # of connection points: 2
#     Edge 28, Type (0, 0), BuildingBlock: MIFKUJ_clean_linker_0, # of connection points: 2
#     Edge 29, Type (0, 0), BuildingBlock: MIFKUJ_clean_linker_0, # of connection points: 2
#     Edge 30, Type (0, 0), BuildingBlock: MIFKUJ_clean_linker_0, # of connection points: 2
#     Edge 31, Type (0, 0), BuildingBlock: MIFKUJ_clean_linker_0, # of connection points: 2
#     Edge 32, Type (0, 0), BuildingBlock: MIFKUJ_clean_linker_0, # of connection points: 2
#     Edge 33, Type (0, 0), BuildingBlock: MIFKUJ_clean_linker_0, # of connection points: 2
#     Edge 34, Type (0, 0), BuildingBlock: MIFKUJ_clean_linker_0, # of connection points: 2
#     Edge 35, Type (0, 0), BuildingBlock: MIFKUJ_clean_linker_0, # of connection points: 2
#     Edge 36, Type (0, 0), BuildingBlock: MIFKUJ_clean_linker_0, # of connection points: 2
#     Edge 37, Type (0, 0), BuildingBlock: MIFKUJ_clean_linker_0, # of connection points: 2
#     Edge 38, Type (0, 0), BuildingBlock: MIFKUJ_clean_linker_0, # of connection points: 2
#     Edge 39, Type (0, 0), BuildingBlock: MIFKUJ_clean_linker_0, # of connection points: 2
#     Edge 40, Type (0, 0), BuildingBlock: MIFKUJ_clean_linker_0, # of connection points: 2
#     Edge 41, Type (0, 0), BuildingBlock: MIFKUJ_clean_linker_0, # of connection points: 2
#     Edge 42, Type (0, 0), BuildingBlock: MIFKUJ_clean_linker_0, # of connection points: 2
#     Edge 43, Type (0, 0), BuildingBlock: MIFKUJ_clean_linker_0, # of connection points: 2
#     Edge 44, Type (0, 0), BuildingBlock: MIFKUJ_clean_linker_0, # of connection points: 2
#     Edge 45, Type (0, 0), BuildingBlock: MIFKUJ_clean_linker_0, # of connection points: 2
#     Edge 46, Type (0, 0), BuildingBlock: MIFKUJ_clean_linker_0, # of connection points: 2
#     Edge 47, Type (0, 0), BuildingBlock: MIFKUJ_clean_linker_0, # of connection points: 2
# Relax obj value: 0.031
# Max RMSD: 0.132
# Mean RMSD: 0.132
data_MOF--net-uki--node1-QUQFOY_clean_sbu_1--edge1-MIFKUJ_clean_linker_0
_symmetry_space_group_name_H-M    P1
_symmetry_Int_Tables_number       1
_symmetry_cell_setting            triclinic
loop_
_symmetry_equiv_pos_as_xyz
'x, y, z'
_cell_length_a     42.017041
_cell_length_b     41.919059
_cell_length_c     94.317019
_cell_angle_alpha  89.987049
_cell_angle_beta   89.984246
_cell_angle_gamma 89.996671
loop_
_atom_site_label
_atom_site_type_symbol
_atom_site_fract_x
_atom_site_fract_y
_atom_site_fract_z
_atom_type_partial_charge
O0 O 0.11845 0.27914 0.29104 0.0
Cd1 Cd 0.09767 0.2545 0.30755 0.0
Cd2 Cd 0.09115 0.21166 0.28694 0.0
O3 O 0.12419 0.2392 0.27607 0.0
O4 O 0.11597 0.27336 0.32519 0.0
O5 O 0.12427 0.22331 0.31872 0.0
C6 C 0.12994 0.2464 0.32745 0.0
C7 C 0.08899 0.15602 0.28687 0.0
C8 C 0.1289 0.26827 0.27935 0.0
C9 C 0.03223 0.24573 0.29771 0.0
O10 O 0.04581 0.22984 0.28797 0.0
O11 O 0.04836 0.25644 0.30808 0.0
O12 O 0.08429 0.17235 0.27548 0.0
O13 O 0.09803 0.17119 0.2981 0.0
O14 O 0.27485 0.89213 0.71421 0.0
Cd15 Cd 0.25034 0.91461 0.69816 0.0
Cd16 Cd 0.20926 0.92596 0.71941 0.0
O17 O 0.23737 0.89383 0.73058 0.0
O18 O 0.26522 0.89561 0.67987 0.0
O19 O 0.21659 0.88857 0.68836 0.0
C20 C 0.23767 0.8822 0.67878 0.0
C21 C 0.1538 0.92741 0.71968 0.0
C22 C 0.26491 0.88497 0.72654 0.0
C23 C 0.24474 0.98214 0.70706 0.0
O24 O 0.22747 0.97102 0.71694 0.0
O25 O 0.25558 0.96391 0.69742 0.0
O26 O 0.17021 0.93383 0.73087 0.0
O27 O 0.16887 0.91729 0.70861 0.0
O28 O 0.88035 0.73873 0.28956 0.0
Cd29 Cd 0.90758 0.75767 0.30573 0.0
Cd30 Cd 0.91994 0.8003 0.28486 0.0
O31 O 0.88403 0.77752 0.27381 0.0
O32 O 0.88946 0.73772 0.32319 0.0
O33 O 0.88645 0.78943 0.31882 0.0
C34 C 0.87894 0.76547 0.32678 0.0
C35 C 0.92737 0.85548 0.28567 0.0
C36 C 0.8727 0.75074 0.27765 0.0
C37 C 0.97372 0.75771 0.29473 0.0
O38 O 0.96248 0.77661 0.28548 0.0
O39 O 0.95635 0.74832 0.30498 0.0
O40 O 0.9309 0.83965 0.27406 0.0
O41 O 0.91703 0.84028 0.29667 0.0
O42 O 0.73261 0.1227 0.71535 0.0
Cd43 Cd 0.75544 0.0975 0.69956 0.0
Cd44 Cd 0.79673 0.0902 0.72066 0.0
O45 O 0.77167 0.12603 0.73086 0.0
O46 O 0.73724 0.11508 0.68163 0.0
O47 O 0.78778 0.12092 0.68765 0.0
C48 C 0.76476 0.12745 0.67903 0.0
C49 C 0.85201 0.08504 0.72012 0.0
C50 C 0.74358 0.1333 0.72699 0.0
C51 C 0.75852 0.03268 0.71131 0.0
O52 O 0.77525 0.04629 0.72075 0.0
O53 O 0.74961 0.04819 0.70039 0.0
O54 O 0.83622 0.0821 0.73177 0.0
O55 O 0.83663 0.0938 0.70891 0.0
O56 O 0.12075 0.23858 0.96795 0.0
Cd57 Cd 0.0957 0.2578 0.95115 0.0
Cd58 Cd 0.08059 0.3004 0.97203 0.0
O59 O 0.11462 0.27674 0.98386 0.0
O60 O 0.11604 0.23792 0.93416 0.0
O61 O 0.11858 0.28959 0.93865 0.0
C62 C 0.12709 0.26566 0.93087 0.0
C63 C 0.07366 0.35569 0.9719 0.0
C64 C 0.12658 0.25016 0.98014 0.0
C65 C 0.02801 0.25853 0.96031 0.0
O66 O 0.03797 0.27731 0.96988 0.0
O67 O 0.04682 0.24883 0.95063 0.0
O68 O 0.06845 0.33896 0.98313 0.0
O69 O 0.08534 0.34131 0.96095 0.0
O70 O 0.23223 0.88303 0.03694 0.0
Cd71 Cd 0.25219 0.91021 0.05294 0.0
Cd72 Cd 0.29457 0.92122 0.03191 0.0
O73 O 0.27116 0.88525 0.02125 0.0
O74 O 0.23358 0.89241 0.07074 0.0
O75 O 0.28469 0.88855 0.06541 0.0
C76 C 0.26142 0.88142 0.07381 0.0
C77 C 0.34973 0.92771 0.03153 0.0
C78 C 0.24421 0.87458 0.02513 0.0
C79 C 0.25369 0.97634 0.0419 0.0
O80 O 0.27185 0.96438 0.03255 0.0
O81 O 0.24423 0.95935 0.05227 0.0
O82 O 0.33267 0.93181 0.02033 0.0
O83 O 0.33568 0.91739 0.04283 0.0
O84 O 0.89302 0.78199 0.96512 0.0
Cd85 Cd 0.9126 0.75346 0.94953 0.0
Cd86 Cd 0.91487 0.71399 0.97077 0.0
O87 O 0.88059 0.74305 0.97983 0.0
O88 O 0.89566 0.76721 0.93064 0.0
O89 O 0.88315 0.72123 0.9408 0.0
C90 C 0.87927 0.74114 0.93047 0.0
C91 C 0.91598 0.65839 0.97051 0.0
C92 C 0.87934 0.77239 0.97638 0.0
C93 C 0.97608 0.744 0.9612 0.0
O94 O 0.96027 0.73188 0.97133 0.0
O95 O 0.96206 0.75129 0.94968 0.0
O96 O 0.91877 0.67413 0.98219 0.0
O97 O 0.90936 0.6742 0.95912 0.0
O98 O 0.77144 0.13323 0.03619 0.0
Cd99 Cd 0.75815 0.10899 0.05423 0.0
Cd100 Cd 0.71379 0.08344 0.0348 0.0
O101 O 0.73687 0.11379 0.02077 0.0
O102 O 0.77884 0.13352 0.06988 0.0
O103 O 0.72666 0.1293 0.06774 0.0
C104 C 0.75086 0.14113 0.07437 0.0
C105 C 0.65926 0.07282 0.03266 0.0
C106 C 0.76037 0.13179 0.02366 0.0
C107 C 0.76146 0.03882 0.04894 0.0
O108 O 0.73808 0.04316 0.04066 0.0
O109 O 0.77385 0.06201 0.05566 0.0
O110 O 0.67942 0.06373 0.02322 0.0
O111 O 0.66973 0.09007 0.043 0.0
O112 O 0.62123 0.77432 0.79159 0.0
Cd113 Cd 0.59539 0.75347 0.80771 0.0
Cd114 Cd 0.58179 0.7119 0.78658 0.0
O115 O 0.61587 0.73693 0.77526 0.0
O116 O 0.6138 0.7701 0.82582 0.0
O117 O 0.61823 0.71973 0.81906 0.0
C118 C 0.62526 0.74197 0.82803 0.0
C119 C 0.57667 0.65646 0.78664 0.0
C120 C 0.62753 0.76341 0.77932 0.0
C121 C 0.52812 0.75262 0.79787 0.0
O122 O 0.53841 0.73372 0.7884 0.0
O123 O 0.54658 0.76257 0.80761 0.0
O124 O 0.57136 0.67302 0.77537 0.0
O125 O 0.58748 0.6712 0.79767 0.0
O126 O 0.772 0.38367 0.21941 0.0
Cd127 Cd 0.75029 0.41089 0.20387 0.0
Cd128 Cd 0.70871 0.4189 0.2252 0.0
O129 O 0.73398 0.38386 0.23559 0.0
O130 O 0.7697 0.39526 0.18583 0.0
O131 O 0.71892 0.3883 0.19113 0.0
C132 C 0.74249 0.38293 0.18264 0.0
C133 C 0.65342 0.4223 0.22424 0.0
C134 C 0.76109 0.37447 0.23131 0.0
C135 C 0.7464 0.47631 0.21587 0.0
O136 O 0.7293 0.46303 0.22527 0.0
O137 O 0.75589 0.46038 0.20517 0.0
O138 O 0.66867 0.42605 0.23598 0.0
O139 O 0.66948 0.41392 0.21316 0.0
O140 O 0.38938 0.2307 0.79259 0.0
Cd141 Cd 0.41239 0.25522 0.80849 0.0
Cd142 Cd 0.41975 0.29638 0.78728 0.0
O143 O 0.38513 0.26965 0.77701 0.0
O144 O 0.39452 0.23741 0.82645 0.0
O145 O 0.38715 0.28743 0.81974 0.0
C146 C 0.38115 0.2647 0.82862 0.0
C147 C 0.42256 0.35191 0.78757 0.0
C148 C 0.37889 0.24122 0.78084 0.0
C149 C 0.47785 0.26087 0.79778 0.0
O150 O 0.4646 0.27688 0.78798 0.0
O151 O 0.46167 0.25131 0.80837 0.0
O152 O 0.42656 0.33599 0.77601 0.0
O153 O 0.41404 0.3364 0.79879 0.0
O154 O 0.23553 0.62737 0.21704 0.0
Cd155 Cd 0.25353 0.60264 0.19996 0.0
Cd156 Cd 0.29376 0.58153 0.22117 0.0
O157 O 0.26996 0.61433 0.23373 0.0
O158 O 0.23326 0.62467 0.18348 0.0
O159 O 0.28519 0.62458 0.18701 0.0
C160 C 0.2611 0.63432 0.17967 0.0
C161 C 0.34879 0.5745 0.22167 0.0
C162 C 0.24536 0.62957 0.22974 0.0
C163 C 0.24993 0.53347 0.20742 0.0
O164 O 0.26989 0.53987 0.2171 0.0
O165 O 0.24052 0.55483 0.1988 0.0
O166 O 0.33124 0.56721 0.2324 0.0
O167 O 0.33528 0.58785 0.21088 0.0
O168 O 0.63041 0.73621 0.47014 0.0
Cd169 Cd 0.60373 0.75431 0.45362 0.0
Cd170 Cd 0.59036 0.79854 0.47363 0.0
O171 O 0.62489 0.7756 0.48547 0.0
O172 O 0.62292 0.73468 0.43633 0.0
O173 O 0.62496 0.78643 0.44077 0.0
C174 C 0.63321 0.76262 0.43287 0.0
C175 C 0.58534 0.85381 0.47222 0.0
C176 C 0.6369 0.74885 0.48204 0.0
C177 C 0.53659 0.75625 0.46359 0.0
O178 O 0.54699 0.77641 0.4725 0.0
O179 O 0.555 0.74488 0.45412 0.0
O180 O 0.58032 0.83872 0.48391 0.0
O181 O 0.59562 0.83769 0.46147 0.0
O182 O 0.73255 0.39536 0.54279 0.0
Cd183 Cd 0.75926 0.41718 0.55835 0.0
Cd184 Cd 0.79844 0.42186 0.53674 0.0
O185 O 0.77082 0.38685 0.52728 0.0
O186 O 0.74219 0.39987 0.57658 0.0
O187 O 0.79098 0.39004 0.56891 0.0
C188 C 0.76882 0.38491 0.57815 0.0
C189 C 0.85384 0.42415 0.53738 0.0
C190 C 0.74212 0.38295 0.53125 0.0
C191 C 0.76584 0.48168 0.54689 0.0
O192 O 0.77924 0.46688 0.53677 0.0
O193 O 0.75831 0.46678 0.55817 0.0
O194 O 0.83843 0.42732 0.52563 0.0
O195 O 0.83786 0.41662 0.54861 0.0
O196 O 0.38033 0.27238 0.47099 0.0
Cd197 Cd 0.40631 0.25512 0.45409 0.0
Cd198 Cd 0.42007 0.20892 0.4736 0.0
O199 O 0.38719 0.23269 0.48608 0.0
O200 O 0.38666 0.2755 0.43707 0.0
O201 O 0.38478 0.22355 0.44109 0.0
C202 C 0.3764 0.24768 0.4334 0.0
C203 C 0.42475 0.15348 0.47295 0.0
C204 C 0.37488 0.25949 0.48295 0.0
C205 C 0.47401 0.25084 0.46305 0.0
O206 O 0.46392 0.22974 0.47158 0.0
O207 O 0.45511 0.26415 0.45431 0.0
O208 O 0.43086 0.1695 0.48428 0.0
O209 O 0.41332 0.16876 0.4622 0.0
O210 O 0.27746 0.61382 0.54439 0.0
Cd211 Cd 0.25083 0.59071 0.55967 0.0
Cd212 Cd 0.21233 0.58349 0.53772 0.0
O213 O 0.24007 0.61811 0.52809 0.0
O214 O 0.26436 0.60818 0.57847 0.0
O215 O 0.21693 0.61723 0.56907 0.0
C216 C 0.23721 0.62255 0.57911 0.0
C217 C 0.15692 0.58013 0.53739 0.0
C218 C 0.26805 0.6244 0.53246 0.0
C219 C 0.24618 0.52518 0.54863 0.0
O220 O 0.23207 0.53887 0.53841 0.0
O221 O 0.25367 0.54105 0.55964 0.0
O222 O 0.17348 0.5765 0.52599 0.0
O223 O 0.1717 0.58877 0.54878 0.0
H224 H 0.12671 0.33305 0.27992 0.0
H225 H 0.14768 0.37048 0.2625 0.0
H226 H 0.186 0.29244 0.23815 0.0
H227 H 0.16425 0.25428 0.25549 0.0
H228 H 0.2283 0.35317 0.24599 0.0
H229 H 0.13132 0.31826 0.2229 0.0
H230 H 0.07393 0.30611 0.22176 0.0
H231 H 0.05187 0.4023 0.23392 0.0
H232 H 0.10911 0.41493 0.2353 0.0
H233 H 0.27553 0.47628 0.19992 0.0
H234 H 0.25478 0.4235 0.20637 0.0
H235 H 0.17143 0.46813 0.22445 0.0
H236 H 0.19113 0.5203 0.217 0.0
H237 H 0.15409 0.41478 0.21558 0.0
H238 H 0.2442 0.4484 0.24397 0.0
H239 H 0.29981 0.46539 0.2477 0.0
H240 H 0.33319 0.37771 0.22945 0.0
H241 H 0.27773 0.36035 0.22549 0.0
C242 C 0.13976 0.32367 0.27094 0.0
C243 C 0.14387 0.2906 0.26913 0.0
C244 C 0.15158 0.34516 0.26096 0.0
C245 C 0.16815 0.33417 0.24904 0.0
C246 C 0.17313 0.30129 0.24729 0.0
C247 C 0.16074 0.27958 0.2572 0.0
C248 C 0.18011 0.35762 0.23859 0.0
C249 C 0.21234 0.36615 0.23903 0.0
C250 C 0.15896 0.37516 0.22993 0.0
C251 C 0.12453 0.36747 0.22927 0.0
C252 C 0.11424 0.33673 0.22546 0.0
C253 C 0.08173 0.32979 0.22474 0.0
C254 C 0.05928 0.35344 0.22776 0.0
C255 C 0.06928 0.38403 0.23156 0.0
C256 C 0.10175 0.3911 0.23229 0.0
C257 C 0.25219 0.47446 0.20475 0.0
C258 C 0.23463 0.50204 0.20784 0.0
C259 C 0.24054 0.44441 0.20863 0.0
C260 C 0.21194 0.44174 0.21632 0.0
C261 C 0.19355 0.46934 0.21857 0.0
C262 C 0.20473 0.4992 0.21428 0.0
C263 C 0.20233 0.41115 0.22319 0.0
C264 C 0.17043 0.40135 0.22218 0.0
C265 C 0.2236 0.3931 0.23172 0.0
C266 C 0.25689 0.40325 0.23429 0.0
C267 C 0.26343 0.43281 0.24071 0.0
C268 C 0.2949 0.4425 0.24286 0.0
C269 C 0.32001 0.42268 0.23878 0.0
C270 C 0.31371 0.39306 0.23258 0.0
C271 C 0.28227 0.38327 0.23039 0.0
H272 H 0.34436 0.43023 0.24045 0.0
H273 H 0.03412 0.34811 0.22711 0.0
H274 H 0.47897 0.72377 0.78436 0.0
H275 H 0.42853 0.74757 0.77739 0.0
H276 H 0.45188 0.83281 0.8008 0.0
H277 H 0.50299 0.80901 0.80776 0.0
H278 H 0.37569 0.77274 0.78897 0.0
H279 H 0.42884 0.89655 0.77934 0.0
H280 H 0.48072 0.92298 0.77571 0.0
H281 H 0.51905 0.83645 0.75833 0.0
H282 H 0.46728 0.80967 0.76167 0.0
H283 H 0.25727 0.87429 0.75517 0.0
H284 H 0.29682 0.85251 0.7717 0.0
H285 H 0.36164 0.83714 0.7369 0.0
H286 H 0.32271 0.85891 0.72044 0.0
H287 H 0.39053 0.86762 0.75824 0.0
H288 H 0.322 0.77547 0.75257 0.0
H289 H 0.27098 0.74648 0.75374 0.0
H290 H 0.26503 0.76501 0.79844 0.0
H291 H 0.31586 0.79447 0.79749 0.0
C292 C 0.47314 0.74734 0.7883 0.0
C293 C 0.49516 0.7647 0.79645 0.0
C294 C 0.44415 0.76085 0.78436 0.0
C295 C 0.43658 0.79214 0.78839 0.0
C296 C 0.4574 0.80872 0.79745 0.0
C297 C 0.48651 0.79506 0.80148 0.0
C298 C 0.40897 0.80815 0.78157 0.0
C299 C 0.37878 0.79382 0.78243 0.0
C300 C 0.41302 0.83541 0.77289 0.0
C301 C 0.44435 0.85104 0.77095 0.0
C302 C 0.44837 0.88319 0.77476 0.0
C303 C 0.47772 0.89822 0.77273 0.0
C304 C 0.50317 0.88137 0.76683 0.0
C305 C 0.49934 0.84943 0.76294 0.0
C306 C 0.47001 0.83431 0.76491 0.0
C307 C 0.2798 0.86587 0.75103 0.0
C308 C 0.28684 0.8685 0.73648 0.0
C309 C 0.30238 0.85348 0.7605 0.0
C310 C 0.33228 0.84338 0.75555 0.0
C311 C 0.33888 0.84509 0.74099 0.0
C312 C 0.31646 0.85743 0.73157 0.0
C313 C 0.35739 0.83185 0.76539 0.0
C314 C 0.38713 0.8471 0.76509 0.0
C315 C 0.35301 0.80515 0.77436 0.0
C316 C 0.32249 0.7875 0.77492 0.0
C317 C 0.30966 0.7736 0.76262 0.0
C318 C 0.28082 0.75704 0.76325 0.0
C319 C 0.26472 0.754 0.77615 0.0
C320 C 0.27749 0.76744 0.78845 0.0
C321 C 0.30631 0.78406 0.78788 0.0
H322 H 0.2424 0.74115 0.77661 0.0
H323 H 0.52579 0.89315 0.76519 0.0
H324 H 0.73168 0.51386 0.23839 0.0
H325 H 0.74894 0.56774 0.24327 0.0
H326 H 0.7992 0.57058 0.20339 0.0
H327 H 0.78262 0.51535 0.19854 0.0
H328 H 0.83536 0.59383 0.22355 0.0
H329 H 0.73038 0.61617 0.20898 0.0
H330 H 0.67219 0.60978 0.20727 0.0
H331 H 0.66277 0.62989 0.2517 0.0
H332 H 0.72095 0.63594 0.25375 0.0
H333 H 0.87319 0.75133 0.24861 0.0
H334 H 0.84723 0.71276 0.23276 0.0
H335 H 0.80213 0.66834 0.26878 0.0
H336 H 0.82836 0.70621 0.28463 0.0
H337 H 0.76201 0.67449 0.24396 0.0
H338 H 0.86842 0.63856 0.25822 0.0
H339 H 0.92671 0.64473 0.25967 0.0
H340 H 0.93221 0.65154 0.2143 0.0
H341 H 0.87384 0.64586 0.21261 0.0
C342 C 0.74617 0.52583 0.23051 0.0
C343 C 0.75572 0.51013 0.21803 0.0
C344 C 0.75581 0.55695 0.23329 0.0
C345 C 0.77479 0.57365 0.22357 0.0
C346 C 0.78429 0.55828 0.211 0.0
C347 C 0.77478 0.52676 0.20823 0.0
C348 C 0.78626 0.60619 0.22731 0.0
C349 C 0.81919 0.61184 0.2276 0.0
C350 C 0.76528 0.62979 0.23268 0.0
C351 C 0.73014 0.62648 0.23151 0.0
C352 C 0.71594 0.61909 0.21841 0.0
C353 C 0.68294 0.61555 0.21738 0.0
C354 C 0.6638 0.6195 0.22936 0.0
C355 C 0.67763 0.62695 0.24241 0.0
C356 C 0.71063 0.6305 0.24351 0.0
C357 C 0.85715 0.7338 0.25309 0.0
C358 C 0.85289 0.73165 0.26786 0.0
C359 C 0.84246 0.71175 0.24404 0.0
C360 C 0.82292 0.68764 0.24963 0.0
C361 C 0.81706 0.68681 0.26426 0.0
C362 C 0.83215 0.70839 0.27331 0.0
C363 C 0.81088 0.6613 0.24062 0.0
C364 C 0.77792 0.65686 0.23942 0.0
C365 C 0.83175 0.639 0.23427 0.0
C366 C 0.86679 0.64224 0.2353 0.0
C367 C 0.88204 0.64167 0.24856 0.0
C368 C 0.91509 0.64502 0.24943 0.0
C369 C 0.93315 0.64864 0.23709 0.0
C370 C 0.91819 0.64882 0.22385 0.0
C371 C 0.88513 0.64554 0.22294 0.0
H372 H 0.95873 0.65121 0.23778 0.0
H373 H 0.63826 0.61679 0.22853 0.0
H374 H 0.52205 0.29045 0.78141 0.0
H375 H 0.57406 0.2702 0.77444 0.0
H376 H 0.56241 0.19011 0.80269 0.0
H377 H 0.50983 0.21029 0.80971 0.0
H378 H 0.63098 0.25294 0.78617 0.0
H379 H 0.58672 0.12412 0.78378 0.0
H380 H 0.53631 0.09387 0.78296 0.0
H381 H 0.49067 0.1723 0.76186 0.0
H382 H 0.54089 0.20277 0.76241 0.0
H383 H 0.75344 0.15117 0.75478 0.0
H384 H 0.7142 0.17462 0.77105 0.0
H385 H 0.64585 0.17915 0.73701 0.0
H386 H 0.68448 0.15592 0.72082 0.0
H387 H 0.62127 0.15039 0.76028 0.0
H388 H 0.68139 0.2456 0.74891 0.0
H389 H 0.72992 0.27855 0.74757 0.0
H390 H 0.74149 0.27158 0.7927 0.0
H391 H 0.69321 0.23822 0.79428 0.0
C392 C 0.53078 0.26885 0.78638 0.0
C393 C 0.51163 0.25168 0.79595 0.0
C394 C 0.56067 0.25744 0.78246 0.0
C395 C 0.57198 0.22846 0.7879 0.0
C396 C 0.55401 0.21243 0.79828 0.0
C397 C 0.52402 0.22401 0.80231 0.0
C398 C 0.60019 0.21339 0.78119 0.0
C399 C 0.62909 0.23024 0.78071 0.0
C400 C 0.59759 0.18404 0.77387 0.0
C401 C 0.5674 0.16582 0.77332 0.0
C402 C 0.56592 0.13484 0.77896 0.0
C403 C 0.5374 0.11767 0.77853 0.0
C404 C 0.51027 0.13121 0.77242 0.0
C405 C 0.51165 0.16189 0.76665 0.0
C406 C 0.54013 0.17912 0.76702 0.0
C407 C 0.73021 0.15765 0.75073 0.0
C408 C 0.72206 0.15145 0.73651 0.0
C409 C 0.70781 0.17097 0.76004 0.0
C410 C 0.67701 0.17833 0.75526 0.0
C411 C 0.66935 0.17331 0.74096 0.0
C412 C 0.69159 0.16013 0.7317 0.0
C413 C 0.65198 0.19013 0.76506 0.0
C414 C 0.62361 0.1726 0.76609 0.0
C415 C 0.65495 0.21909 0.77264 0.0
C416 C 0.68395 0.23909 0.77169 0.0
C417 C 0.69446 0.25084 0.75853 0.0
C418 C 0.72188 0.26965 0.75773 0.0
C419 C 0.73884 0.27706 0.77004 0.0
C420 C 0.72837 0.26576 0.78317 0.0
C421 C 0.70097 0.24692 0.78403 0.0
H422 H 0.76006 0.29164 0.7694 0.0
H423 H 0.48821 0.1179 0.77212 0.0
H424 H 0.27039 0.01679 0.02068 0.0
H425 H 0.25147 0.0703 0.01621 0.0
H426 H 0.19454 0.06685 0.05426 0.0
H427 H 0.21296 0.012 0.05868 0.0
H428 H 0.16074 0.09021 0.03309 0.0
H429 H 0.26102 0.1164 0.05212 0.0
H430 H 0.3189 0.11282 0.05609 0.0
H431 H 0.33606 0.13744 0.01257 0.0
H432 H 0.2783 0.14071 0.00826 0.0
H433 H 0.12105 0.24864 0.00905 0.0
H434 H 0.14548 0.20979 0.02526 0.0
H435 H 0.1979 0.16918 0.99035 0.0
H436 H 0.17312 0.20725 0.97411 0.0
H437 H 0.23348 0.17612 0.0169 0.0
H438 H 0.13224 0.13598 0.99797 0.0
H439 H 0.07421 0.13954 0.99433 0.0
H440 H 0.05965 0.1428 0.03937 0.0
H441 H 0.1177 0.13972 0.04326 0.0
C442 C 0.25407 0.02728 0.02825 0.0
C443 C 0.24323 0.00994 0.04008 0.0
C444 C 0.24346 0.0582 0.02572 0.0
C445 C 0.22209 0.07302 0.03505 0.0
C446 C 0.21128 0.05601 0.04698 0.0
C447 C 0.22185 0.02471 0.0495 0.0
C448 C 0.20968 0.1053 0.03148 0.0
C449 C 0.17667 0.10934 0.02998 0.0
C450 C 0.23035 0.13038 0.02734 0.0
C451 C 0.26523 0.12873 0.02987 0.0
C452 C 0.27712 0.12089 0.04337 0.0
C453 C 0.30992 0.11893 0.04569 0.0
C454 C 0.33114 0.12489 0.03459 0.0
C455 C 0.3196 0.13287 0.02116 0.0
C456 C 0.28681 0.13485 0.01879 0.0
C457 C 0.13833 0.23187 0.00492 0.0
C458 C 0.14513 0.23085 0.99032 0.0
C459 C 0.15214 0.20967 0.01417 0.0
C460 C 0.17337 0.1866 0.00897 0.0
C461 C 0.18164 0.18687 0.99456 0.0
C462 C 0.1674 0.20855 0.9853 0.0
C463 C 0.18492 0.16021 0.01807 0.0
C464 C 0.21768 0.15734 0.02053 0.0
C465 C 0.16407 0.13641 0.02324 0.0
C466 C 0.12926 0.13807 0.02089 0.0
C467 C 0.11667 0.13776 0.00709 0.0
C468 C 0.08379 0.13963 0.00498 0.0
C469 C 0.06326 0.14151 0.01661 0.0
C470 C 0.07558 0.14142 0.03037 0.0
C471 C 0.10846 0.13962 0.03253 0.0
H472 H 0.03781 0.14294 0.01496 0.0
H473 H 0.35653 0.12333 0.0364 0.0
H474 H 0.2481 0.87047 0.9962 0.0
H475 H 0.21142 0.84226 0.98027 0.0
H476 H 0.16103 0.80469 0.01644 0.0
H477 H 0.19709 0.83311 0.03236 0.0
H478 H 0.17072 0.75968 0.99358 0.0
H479 H 0.13392 0.86909 1.00226 0.0
H480 H 0.14057 0.92753 1.0015 0.0
H481 H 0.15478 0.92346 0.95645 0.0
H482 H 0.14863 0.86488 0.95699 0.0
H483 H 0.0109 0.73069 0.9847 0.0
H484 H 0.06474 0.74689 0.99012 0.0
H485 H 0.07374 0.78944 0.94865 0.0
H486 H 0.01859 0.77404 0.94323 0.0
H487 H 0.09459 0.82913 0.96778 0.0
H488 H 0.11772 0.72128 0.95825 0.0
H489 H 0.11096 0.66287 0.95868 0.0
H490 H 0.12427 0.66242 1.00381 0.0
H491 H 0.13063 0.72086 1.0037 0.0
C492 C 0.22957 0.8557 1.00074 0.0
C493 C 0.22531 0.85414 0.01552 0.0
C494 C 0.20863 0.8397 0.99163 0.0
C495 C 0.18349 0.82154 0.9972 0.0
C496 C 0.18035 0.81853 0.01195 0.0
C497 C 0.20086 0.8349 0.02102 0.0
C498 C 0.15862 0.80784 0.98789 0.0
C499 C 0.15408 0.77472 0.98787 0.0
C500 C 0.13775 0.82748 0.98001 0.0
C501 C 0.14125 0.86263 0.9797 0.0
C502 C 0.13874 0.88064 0.99222 0.0
C503 C 0.14237 0.91378 0.99183 0.0
C504 C 0.14821 0.92919 0.97894 0.0
C505 C 0.15034 0.91149 0.96642 0.0
C506 C 0.14678 0.87833 0.96677 0.0
C507 C 0.02428 0.74314 0.97659 0.0
C508 C 0.01027 0.75113 0.96351 0.0
C509 C 0.05537 0.75215 0.97968 0.0
C510 C 0.07369 0.76887 0.96971 0.0
C511 C 0.06016 0.77632 0.95648 0.0
C512 C 0.02869 0.76745 0.95338 0.0
C513 C 0.1057 0.7808 0.97389 0.0
C514 C 0.11168 0.81371 0.97301 0.0
C515 C 0.1281 0.76084 0.98081 0.0
C516 C 0.12461 0.72555 0.98096 0.0
C517 C 0.11906 0.70877 0.96828 0.0
C518 C 0.1153 0.67563 0.96847 0.0
C519 C 0.11717 0.65895 0.98127 0.0
C520 C 0.12287 0.67536 0.9939 0.0
C521 C 0.12662 0.7085 0.99378 0.0
H522 H 0.11423 0.6333 0.98139 0.0
H523 H 0.151 0.95485 0.97866 0.0
H524 H 0.83552 0.76257 0.99764 0.0
H525 H 0.81476 0.80248 0.01441 0.0
H526 H 0.87182 0.87506 0.99436 0.0
H527 H 0.89184 0.83593 0.97741 0.0
H528 H 0.87426 0.86897 0.02677 0.0
H529 H 0.80325 0.87896 0.98565 0.0
H530 H 0.76508 0.85704 0.96834 0.0
H531 H 0.70375 0.82731 1.00229 0.0
H532 H 0.74185 0.84867 0.01981 0.0
H533 H 0.82311 0.02463 0.04335 0.0
H534 H 0.84327 0.9729 0.03561 0.0
H535 H 0.75315 0.92948 0.04632 0.0
H536 H 0.73238 0.98186 0.05303 0.0
H537 H 0.76525 0.9129 0.0219 0.0
H538 H 0.82923 0.91017 0.06317 0.0
H539 H 0.86635 0.92945 0.0815 0.0
H540 H 0.93943 0.941 0.05009 0.0
H541 H 0.90264 0.92222 0.03152 0.0
C542 C 0.84342 0.78709 0.99676 0.0
C543 C 0.86514 0.79614 0.98614 0.0
C544 C 0.83167 0.80976 0.00636 0.0
C545 C 0.84203 0.84157 0.00565 0.0
C546 C 0.86375 0.85056 0.99512 0.0
C547 C 0.87491 0.82819 0.98537 0.0
C548 C 0.82981 0.866 0.01557 0.0
C549 C 0.85045 0.87874 0.02579 0.0
C550 C 0.79843 0.87772 0.01456 0.0
C551 C 0.77557 0.86499 1.00403 0.0
C552 C 0.78179 0.86744 0.98942 0.0
C553 C 0.76014 0.85519 0.97957 0.0
C554 C 0.73206 0.84068 0.98421 0.0
C555 C 0.72554 0.83848 0.99871 0.0
C556 C 0.74715 0.85066 0.0086 0.0
C557 C 0.8081 1.00378 0.04456 0.0
C558 C 0.77634 0.00705 0.04888 0.0
C559 C 0.81962 0.97408 0.04014 0.0
C560 C 0.79986 0.94693 0.0404 0.0
C561 C 0.76888 0.94993 0.04589 0.0
C562 C 0.7571 0.97978 0.04988 0.0
C563 C 0.80987 0.91683 0.03319 0.0
C564 C 0.78885 0.90294 0.02334 0.0
C565 C 0.84075 0.90365 0.0348 0.0
C566 C 0.86306 0.91494 0.04593 0.0
C567 C 0.85315 0.91702 0.06014 0.0
C568 C 0.87415 0.92783 0.07058 0.0
C569 C 0.90521 0.93649 0.06696 0.0
C570 C 0.91536 0.93429 0.05288 0.0
C571 C 0.89445 0.9235 0.0424 0.0
H572 H 0.92143 0.94486 0.07506 0.0
H573 H 0.71532 0.83123 0.97658 0.0
H574 H 0.76578 0.11463 0.99576 0.0
H575 H 0.80304 0.1369 0.9783 0.0
H576 H 0.8314 0.20883 0.00843 0.0
H577 H 0.79484 0.18643 0.02595 0.0
H578 H 0.82596 0.2312 0.97952 0.0
H579 H 0.87258 0.14423 0.0075 0.0
H580 H 0.87408 0.08856 0.01597 0.0
H581 H 0.87904 0.05513 0.97298 0.0
H582 H 0.8771 0.11066 0.96427 0.0
H583 H 0.98177 0.28112 0.9777 0.0
H584 H 0.92888 0.26004 0.98152 0.0
H585 H 0.94427 0.18969 0.94884 0.0
H586 H 0.99844 0.21042 0.94516 0.0
H587 H 0.92051 0.16243 0.97172 0.0
H588 H 0.88868 0.25073 0.94425 0.0
H589 H 0.88766 0.30639 0.93582 0.0
H590 H 0.85411 0.33756 0.97652 0.0
H591 H 0.85536 0.28218 0.98528 0.0
C592 C 0.77936 0.13571 0.99851 0.0
C593 C 0.77756 0.14872 0.01224 0.0
C594 C 0.80068 0.1483 0.98855 0.0
C595 C 0.82007 0.17437 0.99212 0.0
C596 C 0.81659 0.18875 0.00546 0.0
C597 C 0.79578 0.17587 0.01547 0.0
C598 C 0.84645 0.18479 0.98277 0.0
C599 C 0.84661 0.21622 0.97771 0.0
C600 C 0.87285 0.16479 0.97999 0.0
C601 C 0.87425 0.1315 0.98524 0.0
C602 C 0.87371 0.12498 0.99986 0.0
C603 C 0.87469 0.09347 0.0047 0.0
C604 C 0.87653 0.06831 0.99502 0.0
C605 C 0.87752 0.07463 0.98047 0.0
C606 C 0.87648 0.10611 0.97558 0.0
C607 C 0.97398 0.26139 0.97115 0.0
C608 C 0.99453 0.24738 0.96115 0.0
C609 C 0.94342 0.24953 0.97326 0.0
C610 C 0.93222 0.2236 0.96531 0.0
C611 C 0.9523 0.2099 0.95503 0.0
C612 C 0.98319 0.22181 0.95291 0.0
C613 C 0.90073 0.20947 0.96889 0.0
C614 C 0.89955 0.17728 0.97297 0.0
C615 C 0.87328 0.22877 0.97065 0.0
C616 C 0.87218 0.26221 0.96543 0.0
C617 C 0.88123 0.26946 0.95143 0.0
C618 C 0.8806 0.30098 0.94659 0.0
C619 C 0.87083 0.3255 0.95563 0.0
C620 C 0.86162 0.31854 0.96952 0.0
C621 C 0.86222 0.28706 0.97442 0.0
H622 H 0.87038 0.34988 0.95187 0.0
H623 H 0.87729 0.04393 0.99878 0.0
H624 H 0.67202 0.80793 0.78602 0.0
H625 H 0.69512 0.848 0.77034 0.0
H626 H 0.64651 0.80603 0.73464 0.0
H627 H 0.62409 0.76495 0.7503 0.0
H628 H 0.70415 0.83024 0.72663 0.0
H629 H 0.61341 0.86702 0.75164 0.0
H630 H 0.57935 0.8757 0.77255 0.0
H631 H 0.65054 0.93638 0.79092 0.0
H632 H 0.68557 0.92719 0.77034 0.0
H633 H 0.71391 0.99706 0.69665 0.0
H634 H 0.69165 0.94512 0.70384 0.0
H635 H 0.75612 0.9422 0.73934 0.0
H636 H 0.77874 0.99308 0.73223 0.0
H637 H 0.68184 0.94008 0.7436 0.0
H638 H 0.77468 0.89446 0.71901 0.0
H639 H 0.80678 0.88508 0.69752 0.0
H640 H 0.72589 0.84305 0.67691 0.0
H641 H 0.69318 0.85264 0.69824 0.0
C642 C 0.66678 0.80679 0.77478 0.0
C643 C 0.64596 0.78356 0.76941 0.0
C644 C 0.67991 0.82977 0.76583 0.0
C645 C 0.67182 0.83055 0.75139 0.0
C646 C 0.65288 0.80601 0.74577 0.0
C647 C 0.64011 0.78257 0.75473 0.0
C648 C 0.68091 0.85862 0.74265 0.0
C649 C 0.69885 0.85424 0.73022 0.0
C650 C 0.67354 0.89001 0.74717 0.0
C651 C 0.65223 0.89625 0.75945 0.0
C652 C 0.62191 0.88207 0.76017 0.0
C653 C 0.60241 0.88708 0.77197 0.0
C654 C 0.61271 0.90666 0.78303 0.0
C655 C 0.64258 0.92124 0.78233 0.0
C656 C 0.6623 0.9161 0.77061 0.0
C657 C 0.72379 0.98497 0.70579 0.0
C658 C 0.74784 0.99945 0.71395 0.0
C659 C 0.71106 0.95537 0.70987 0.0
C660 C 0.72226 0.94004 0.72213 0.0
C661 C 0.7472 0.95373 0.72985 0.0
C662 C 0.76002 0.98292 0.72576 0.0
C663 C 0.7062 0.91162 0.72805 0.0
C664 C 0.68667 0.91603 0.73992 0.0
C665 C 0.71169 0.88048 0.72288 0.0
C666 C 0.73139 0.87469 0.71012 0.0
C667 C 0.76365 0.88357 0.70984 0.0
C668 C 0.78198 0.87812 0.6977 0.0
C669 C 0.76835 0.86359 0.68583 0.0
C670 C 0.73639 0.85437 0.6861 0.0
C671 C 0.71796 0.8598 0.6982 0.0
H672 H 0.78258 0.85938 0.67645 0.0
H673 H 0.59756 0.91053 0.79215 0.0
H674 H 0.98937 0.21493 0.28114 0.0
H675 H 0.93694 0.23376 0.27401 0.0
H676 H 0.94507 0.31322 0.30277 0.0
H677 H 0.99807 0.29445 0.31005 0.0
H678 H 0.8775 0.27963 0.29773 0.0
H679 H 0.96766 0.3331 0.27426 0.0
H680 H 0.02014 0.32918 0.26262 0.0
H681 H 0.9806 0.26735 0.23089 0.0
H682 H 0.92801 0.27058 0.24247 0.0
H683 H 0.76855 0.38018 0.25988 0.0
H684 H 0.80974 0.35528 0.27447 0.0
H685 H 0.84059 0.29985 0.23838 0.0
H686 H 0.80094 0.32654 0.22361 0.0
H687 H 0.8889 0.32307 0.24904 0.0
H688 H 0.80048 0.26836 0.26993 0.0
H689 H 0.74825 0.26272 0.2816 0.0
H690 H 0.78184 0.31702 0.31718 0.0
H691 H 0.83418 0.32332 0.30564 0.0
C692 C 0.97978 0.236 0.28624 0.0
C693 C 0.9981 0.25355 0.29598 0.0
C694 C 0.9497 0.24658 0.28221 0.0
C695 C 0.93734 0.27495 0.28779 0.0
C696 C 0.95425 0.29114 0.29842 0.0
C697 C 0.98453 0.28047 0.30252 0.0
C698 C 0.90981 0.29001 0.28067 0.0
C699 C 0.87984 0.28968 0.28718 0.0
C700 C 0.91294 0.30204 0.26676 0.0
C701 C 0.94401 0.3019 0.25928 0.0
C702 C 0.9702 0.31866 0.26481 0.0
C703 C 0.99995 0.31653 0.25824 0.0
C704 C 0.00372 0.29786 0.24608 0.0
C705 C 0.97765 0.28171 0.24034 0.0
C706 C 0.94786 0.28374 0.24688 0.0
C707 C 0.78377 0.36219 0.25518 0.0
C708 C 0.78166 0.35522 0.24064 0.0
C709 C 0.80727 0.34784 0.26354 0.0
C710 C 0.82836 0.32543 0.25761 0.0
C711 C 0.82492 0.31724 0.24323 0.0
C712 C 0.80213 0.33231 0.23479 0.0
C713 C 0.85571 0.31255 0.26591 0.0
C714 C 0.88604 0.31334 0.25962 0.0
C715 C 0.85258 0.30032 0.27989 0.0
C716 C 0.82113 0.29659 0.28685 0.0
C717 C 0.79665 0.27931 0.28019 0.0
C718 C 0.76704 0.27596 0.28679 0.0
C719 C 0.7617 0.28958 0.3001 0.0
C720 C 0.786 0.30652 0.30686 0.0
C721 C 0.81564 0.30996 0.3003 0.0
H722 H 0.73876 0.28695 0.3052 0.0
H723 H 0.02684 0.29587 0.24111 0.0
H724 H 0.30396 0.00685 0.70259 0.0
H725 H 0.32326 0.05836 0.7114 0.0
H726 H 0.22727 0.0847 0.7227 0.0
H727 H 0.20825 0.03273 0.71457 0.0
H728 H 0.31663 0.1217 0.70951 0.0
H729 H 0.22611 0.11426 0.75551 0.0
H730 H 0.19327 0.07387 0.76773 0.0
H731 H 0.26029 1.00091 0.75631 0.0
H732 H 0.2937 0.04092 0.74421 0.0
H733 H 0.34745 0.25478 0.75586 0.0
H734 H 0.32075 0.21678 0.74001 0.0
H735 H 0.34577 0.13974 0.76826 0.0
H736 H 0.37118 0.17728 0.7842 0.0
H737 H 0.28866 0.13158 0.76044 0.0
H738 H 0.38658 0.15627 0.73628 0.0
H739 H 0.42624 0.19135 0.72493 0.0
H740 H 0.3565 0.22155 0.69448 0.0
H741 H 0.31631 0.18691 0.70577 0.0
C742 C 0.2869 0.02411 0.70651 0.0
C743 C 0.25473 0.01578 0.70809 0.0
C744 C 0.29793 0.05354 0.71156 0.0
C745 C 0.27682 0.07506 0.71806 0.0
C746 C 0.2441 0.06818 0.71803 0.0
C747 C 0.23323 0.03856 0.71333 0.0
C748 C 0.28934 0.10193 0.72673 0.0
C749 C 0.31033 0.12408 0.72061 0.0
C750 C 0.28176 0.10465 0.74132 0.0
C751 C 0.26216 0.08052 0.74882 0.0
C752 C 0.23386 0.08961 0.75566 0.0
C753 C 0.21516 0.06679 0.76256 0.0
C754 C 0.22463 0.03483 0.76275 0.0
C755 C 0.25292 0.02565 0.75611 0.0
C756 C 0.27174 0.04838 0.74924 0.0
C757 C 0.347 0.22976 0.75871 0.0
C758 C 0.36138 0.21914 0.77133 0.0
C759 C 0.33193 0.20803 0.7496 0.0
C760 C 0.33144 0.17527 0.75285 0.0
C761 C 0.3456 0.16484 0.76551 0.0
C762 C 0.36021 0.18644 0.77464 0.0
C763 C 0.31625 0.15142 0.74331 0.0
C764 C 0.29463 0.12971 0.74928 0.0
C765 C 0.32426 0.1485 0.72876 0.0
C766 C 0.34836 0.16931 0.72197 0.0
C767 C 0.37965 0.17059 0.72724 0.0
C768 C 0.40223 0.19035 0.7208 0.0
C769 C 0.39387 0.20875 0.70902 0.0
C770 C 0.36292 0.20734 0.70362 0.0
C771 C 0.34024 0.18764 0.71003 0.0
H772 H 0.41138 0.22402 0.70405 0.0
H773 H 0.21008 0.01719 0.76806 0.0
H774 H 0.00609 0.71172 0.3101 0.0
H775 H 0.05835 0.68835 0.30429 0.0
H776 H 0.06703 0.75243 0.26878 0.0
H777 H 0.01589 0.7761 0.27449 0.0
H778 H 0.06859 0.67539 0.26584 0.0
H779 H 0.11192 0.7733 0.28813 0.0
H780 H 0.11928 0.80843 0.30885 0.0
H781 H 0.15886 0.73034 0.33248 0.0
H782 H 0.15126 0.69465 0.31193 0.0
H783 H 0.20121 0.67522 0.22413 0.0
H784 H 0.1606 0.69566 0.24017 0.0
H785 H 0.20244 0.64322 0.2748 0.0
H786 H 0.24374 0.62276 0.25874 0.0
H787 H 0.17658 0.70409 0.28298 0.0
H788 H 0.14404 0.60918 0.25942 0.0
H789 H 0.13699 0.57293 0.23908 0.0
H790 H 0.07583 0.64131 0.21891 0.0
H791 H 0.08297 0.67824 0.23902 0.0
C792 C 0.01946 0.72121 0.30123 0.0
C793 C 0.00661 0.7456 0.2927 0.0
C794 C 0.04925 0.70787 0.29795 0.0
C795 C 0.06641 0.71882 0.28614 0.0
C796 C 0.05415 0.74382 0.27798 0.0
C797 C 0.02478 0.75723 0.28127 0.0
C798 C 0.09541 0.70246 0.28108 0.0
C799 C 0.09221 0.68145 0.26963 0.0
C800 C 0.12605 0.70979 0.28631 0.0
C801 C 0.13056 0.73124 0.2986 0.0
C802 C 0.12181 0.76354 0.2978 0.0
C803 C 0.12613 0.78358 0.30949 0.0
C804 C 0.1394 0.7716 0.32199 0.0
C805 C 0.14849 0.73957 0.32281 0.0
C806 C 0.14419 0.71944 0.31114 0.0
C807 C 0.20227 0.66852 0.23522 0.0
C808 C 0.22544 0.64701 0.24012 0.0
C809 C 0.17899 0.68021 0.24437 0.0
C810 C 0.17812 0.67038 0.25859 0.0
C811 C 0.20263 0.65093 0.26384 0.0
C812 C 0.22621 0.63932 0.25465 0.0
C813 C 0.14976 0.67806 0.26731 0.0
C814 C 0.153 0.69731 0.27941 0.0
C815 C 0.11897 0.66887 0.26276 0.0
C816 C 0.1142 0.64656 0.25071 0.0
C817 C 0.12925 0.61658 0.25061 0.0
C818 C 0.12522 0.5959 0.23912 0.0
C819 C 0.106 0.60483 0.22771 0.0
C820 C 0.09071 0.63443 0.22777 0.0
C821 C 0.09471 0.65523 0.23922 0.0
H822 H 0.10293 0.58879 0.21882 0.0
H823 H 0.14275 0.78715 0.33103 0.0
H824 H 0.782 0.51917 0.52454 0.0
H825 H 0.76495 0.57309 0.5195 0.0
H826 H 0.71487 0.57672 0.55941 0.0
H827 H 0.73129 0.52156 0.56443 0.0
H828 H 0.67798 0.59755 0.53906 0.0
H829 H 0.78205 0.62425 0.55326 0.0
H830 H 0.84042 0.61998 0.55507 0.0
H831 H 0.84929 0.63763 0.5104 0.0
H832 H 0.79096 0.64153 0.50826 0.0
H833 H 0.63518 0.7515 0.51105 0.0
H834 H 0.66184 0.71515 0.52769 0.0
H835 H 0.70916 0.66898 0.49269 0.0
H836 H 0.68226 0.70463 0.47606 0.0
H837 H 0.74857 0.67903 0.51741 0.0
H838 H 0.64346 0.63885 0.50368 0.0
H839 H 0.585 0.64224 0.50218 0.0
H840 H 0.57908 0.65081 0.54748 0.0
H841 H 0.63766 0.64812 0.54921 0.0
C842 C 0.76768 0.53138 0.5324 0.0
C843 C 0.75792 0.51587 0.54489 0.0
C844 C 0.75818 0.56252 0.52954 0.0
C845 C 0.73907 0.57934 0.53917 0.0
C846 C 0.72982 0.56431 0.55186 0.0
C847 C 0.73927 0.53283 0.55473 0.0
C848 C 0.72664 0.61129 0.53511 0.0
C849 C 0.69353 0.6158 0.53475 0.0
C850 C 0.74681 0.63517 0.52939 0.0
C851 C 0.78203 0.63313 0.5306 0.0
C852 C 0.79641 0.62707 0.5438 0.0
C853 C 0.82951 0.62472 0.54488 0.0
C854 C 0.84855 0.62852 0.53286 0.0
C855 C 0.83451 0.63473 0.51971 0.0
C856 C 0.80142 0.63709 0.51856 0.0
C857 C 0.65179 0.73403 0.50696 0.0
C858 C 0.65654 0.73075 0.49226 0.0
C859 C 0.66689 0.71326 0.51646 0.0
C860 C 0.68733 0.68934 0.51139 0.0
C861 C 0.69354 0.68734 0.4968 0.0
C862 C 0.67805 0.70763 0.48732 0.0
C863 C 0.70017 0.66436 0.52092 0.0
C864 C 0.73326 0.66123 0.52223 0.0
C865 C 0.68005 0.64193 0.52764 0.0
C866 C 0.64492 0.64377 0.52656 0.0
C867 C 0.62971 0.64183 0.51331 0.0
C868 C 0.59655 0.64355 0.51242 0.0
C869 C 0.57832 0.6468 0.52473 0.0
C870 C 0.59323 0.64837 0.53795 0.0
C871 C 0.62641 0.64679 0.53889 0.0
H872 H 0.55264 0.64797 0.52404 0.0
H873 H 0.87417 0.62667 0.53372 0.0
H874 H 0.6781 0.37901 0.5351 0.0
H875 H 0.63896 0.35306 0.5201 0.0
H876 H 0.71338 0.3219 0.49179 0.0
H877 H 0.75311 0.3489 0.50669 0.0
H878 H 0.66206 0.34249 0.47703 0.0
H879 H 0.67973 0.26933 0.51502 0.0
H880 H 0.68554 0.25261 0.53994 0.0
H881 H 0.58935 0.28143 0.54847 0.0
H882 H 0.58311 0.29875 0.52364 0.0
H883 H 0.52401 0.21404 0.4708 0.0
H884 H 0.57673 0.23192 0.47809 0.0
H885 H 0.55223 0.32849 0.46656 0.0
H886 H 0.49951 0.31036 0.45881 0.0
H887 H 0.58526 0.26823 0.49953 0.0
H888 H 0.61989 0.37302 0.46197 0.0
H889 H 0.61644 0.38667 0.43658 0.0
H890 H 0.61231 0.2872 0.42589 0.0
H891 H 0.61619 0.27292 0.45118 0.0
C892 C 0.68636 0.36654 0.52573 0.0
C893 C 0.71888 0.36579 0.52219 0.0
C894 C 0.66385 0.35165 0.51715 0.0
C895 C 0.67323 0.33506 0.50493 0.0
C896 C 0.70561 0.33448 0.50121 0.0
C897 C 0.72829 0.34974 0.50977 0.0
C898 C 0.64889 0.31821 0.49629 0.0
C899 C 0.64536 0.32607 0.48189 0.0
C900 C 0.6275 0.29625 0.50255 0.0
C901 C 0.63102 0.28548 0.51747 0.0
C902 C 0.65987 0.27225 0.52222 0.0
C903 C 0.66324 0.26266 0.53634 0.0
C904 C 0.63784 0.26599 0.5458 0.0
C905 C 0.609 0.27886 0.54114 0.0
C906 C 0.60552 0.28852 0.52704 0.0
C907 C 0.53017 0.23896 0.46945 0.0
C908 C 0.5076 0.26089 0.46435 0.0
C909 C 0.56031 0.24917 0.47365 0.0
C910 C 0.56848 0.28159 0.473 0.0
C911 C 0.54669 0.30328 0.46702 0.0
C912 C 0.51653 0.29294 0.46261 0.0
C913 C 0.59777 0.29301 0.48028 0.0
C914 C 0.60214 0.28425 0.49452 0.0
C915 C 0.62016 0.31356 0.47376 0.0
C916 C 0.61805 0.32193 0.4585 0.0
C917 C 0.61838 0.35405 0.4542 0.0
C918 C 0.61633 0.3619 0.43982 0.0
C919 C 0.61406 0.33782 0.42963 0.0
C920 C 0.61394 0.30583 0.43379 0.0
C921 C 0.61601 0.29785 0.44816 0.0
H922 H 0.61247 0.34394 0.4185 0.0
H923 H 0.64046 0.25858 0.55672 0.0
H924 H 0.22693 0.48484 0.52784 0.0
H925 H 0.24543 0.4313 0.523 0.0
H926 H 0.30368 0.4336 0.56066 0.0
H927 H 0.28568 0.4884 0.56544 0.0
H928 H 0.33729 0.4128 0.53909 0.0
H929 H 0.23846 0.38217 0.55816 0.0
H930 H 0.18065 0.38362 0.56256 0.0
H931 H 0.16278 0.36199 0.51879 0.0
H932 H 0.22046 0.36087 0.51406 0.0
H933 H 0.38071 0.25802 0.51184 0.0
H934 H 0.35543 0.29434 0.52893 0.0
H935 H 0.30179 0.33758 0.49502 0.0
H936 H 0.32745 0.30209 0.47791 0.0
H937 H 0.26665 0.32636 0.52169 0.0
H938 H 0.36602 0.37179 0.50299 0.0
H939 H 0.424 0.37037 0.49893 0.0
H940 H 0.44009 0.36241 0.54375 0.0
H941 H 0.3821 0.36332 0.54805 0.0
C942 C 0.24338 0.474 0.53526 0.0
C943 C 0.25494 0.49108 0.54702 0.0
C944 C 0.25372 0.44307 0.53253 0.0
C945 C 0.27558 0.42804 0.54157 0.0
C946 C 0.28662 0.44461 0.55358 0.0
C947 C 0.27625 0.47586 0.55632 0.0
C948 C 0.28876 0.39641 0.53747 0.0
C949 C 0.32183 0.3935 0.53572 0.0
C950 C 0.26872 0.37113 0.53299 0.0
C951 C 0.23389 0.3715 0.53575 0.0
C952 C 0.22222 0.37788 0.54945 0.0
C953 C 0.18945 0.37863 0.552 0.0
C954 C 0.16806 0.37291 0.54096 0.0
C955 C 0.17939 0.36637 0.52734 0.0
C956 C 0.21213 0.3656 0.52472 0.0
C957 C 0.36301 0.27483 0.5081 0.0
C958 C 0.3561 0.27737 0.49355 0.0
C959 C 0.34869 0.29556 0.51785 0.0
C960 C 0.32683 0.31863 0.5132 0.0
C961 C 0.31852 0.31985 0.49881 0.0
C962 C 0.33327 0.29966 0.48905 0.0
C963 C 0.31474 0.34365 0.52289 0.0
C964 C 0.28198 0.34524 0.52559 0.0
C965 C 0.33502 0.36752 0.52841 0.0
C966 C 0.36979 0.36716 0.52582 0.0
C967 C 0.38193 0.36943 0.51196 0.0
C968 C 0.41478 0.36878 0.50962 0.0
C969 C 0.43572 0.36618 0.52107 0.0
C970 C 0.42384 0.36433 0.53489 0.0
C971 C 0.39099 0.36491 0.53728 0.0
H972 H 0.46114 0.36569 0.51924 0.0
H973 H 0.1427 0.37353 0.54295 0.0
H974 H 0.48834 0.78606 0.4774 0.0
H975 H 0.4374 0.76351 0.48445 0.0
H976 H 0.4583 0.67792 0.46083 0.0
H977 H 0.51 0.70035 0.45384 0.0
H978 H 0.38392 0.74011 0.47315 0.0
H979 H 0.43441 0.61436 0.48209 0.0
H980 H 0.4862 0.58741 0.48518 0.0
H981 H 0.52603 0.67335 0.50248 0.0
H982 H 0.47433 0.70049 0.49983 0.0
H983 H 0.26201 0.63976 0.50422 0.0
H984 H 0.30297 0.66243 0.48867 0.0
H985 H 0.36673 0.67044 0.52433 0.0
H986 H 0.32637 0.6475 0.53981 0.0
H987 H 0.39614 0.64316 0.50282 0.0
H988 H 0.32971 0.73589 0.50961 0.0
H989 H 0.27962 0.76651 0.50884 0.0
H990 H 0.27406 0.75264 0.4638 0.0
H991 H 0.32395 0.72157 0.46434 0.0
C992 C 0.48194 0.76263 0.47347 0.0
C993 C 0.50346 0.74474 0.46526 0.0
C994 C 0.45263 0.74986 0.47744 0.0
C995 C 0.44419 0.71884 0.47336 0.0
C996 C 0.46451 0.7018 0.46423 0.0
C997 C 0.49398 0.71467 0.4602 0.0
C998 C 0.41623 0.70346 0.48018 0.0
C999 C 0.38644 0.71862 0.47946 0.0
C1000 C 0.4196 0.67577 0.48865 0.0
C1001 C 0.45065 0.65954 0.49056 0.0
C1002 C 0.45422 0.62743 0.4866 0.0
C1003 C 0.48353 0.61211 0.48831 0.0
C1004 C 0.50941 0.62866 0.494 0.0
C1005 C 0.50599 0.66053 0.49807 0.0
C1006 C 0.47668 0.67589 0.49648 0.0
C1007 C 0.28461 0.64676 0.50878 0.0
C1008 C 0.29094 0.64168 0.52326 0.0
C1009 C 0.30801 0.65969 0.49987 0.0
C1010 C 0.33801 0.66801 0.50532 0.0
C1011 C 0.34391 0.6639 0.51985 0.0
C1012 C 0.32069 0.65091 0.52871 0.0
C1013 C 0.36388 0.68005 0.49597 0.0
C1014 C 0.39331 0.66419 0.49622 0.0
C1015 C 0.36032 0.70748 0.48737 0.0
C1016 C 0.33033 0.72608 0.48704 0.0
C1017 C 0.31765 0.73913 0.49956 0.0
C1018 C 0.28933 0.75661 0.49916 0.0
C1019 C 0.27361 0.76142 0.48629 0.0
C1020 C 0.28623 0.74883 0.47377 0.0
C1021 C 0.31453 0.7313 0.47411 0.0
H1022 H 0.25169 0.77498 0.486 0.0
H1023 H 0.53208 0.61676 0.49527 0.0
H1024 H 0.35161 0.19256 0.42205 0.0
H1025 H 0.30975 0.18803 0.40399 0.0
H1026 H 0.307 0.29047 0.40012 0.0
H1027 H 0.34878 0.29521 0.41796 0.0
H1028 H 0.24714 0.26315 0.40431 0.0
H1029 H 0.33968 0.24759 0.37452 0.0
H1030 H 0.38941 0.22095 0.36726 0.0
H1031 H 0.3393 0.13231 0.36254 0.0
H1032 H 0.28932 0.15836 0.36996 0.0
H1033 H 0.15468 0.29359 0.34398 0.0
H1034 H 0.19588 0.28926 0.362 0.0
H1035 H 0.19944 0.18734 0.35578 0.0
H1036 H 0.15882 0.19175 0.3372 0.0
H1037 H 0.25717 0.2086 0.35786 0.0
H1038 H 0.1644 0.22282 0.38605 0.0
H1039 H 0.11404 0.24745 0.39383 0.0
H1040 H 0.16296 0.33515 0.40265 0.0
H1041 H 0.21355 0.31119 0.39475 0.0
C1042 C 0.34239 0.21408 0.4172 0.0
C1043 C 0.35358 0.24425 0.42147 0.0
C1044 C 0.31846 0.21145 0.40689 0.0
C1045 C 0.30518 0.23893 0.40074 0.0
C1046 C 0.3168 0.26896 0.40477 0.0
C1047 C 0.34084 0.2716 0.41493 0.0
C1048 C 0.2783 0.23677 0.39051 0.0
C1049 C 0.24939 0.25148 0.39409 0.0
C1050 C 0.28084 0.22047 0.37743 0.0
C1051 C 0.31085 0.20484 0.37296 0.0
C1052 C 0.33933 0.22235 0.37206 0.0
C1053 C 0.36755 0.20738 0.36789 0.0
C1054 C 0.36754 0.17494 0.36449 0.0
C1055 C 0.33928 0.15743 0.36521 0.0
C1056 C 0.311 0.17229 0.36938 0.0
C1057 C 0.16394 0.27016 0.34651 0.0
C1058 C 0.15325 0.24298 0.33919 0.0
C1059 C 0.1875 0.26769 0.35691 0.0
C1060 C 0.20052 0.23788 0.36051 0.0
C1061 C 0.18976 0.21061 0.35327 0.0
C1062 C 0.16641 0.21313 0.34269 0.0
C1063 C 0.22602 0.23562 0.3715 0.0
C1064 C 0.25467 0.22003 0.36812 0.0
C1065 C 0.22312 0.25076 0.38488 0.0
C1066 C 0.19274 0.26525 0.3897 0.0
C1067 C 0.16438 0.24742 0.38956 0.0
C1068 C 0.1358 0.26126 0.39401 0.0
C1069 C 0.13529 0.29286 0.39871 0.0
C1070 C 0.16338 0.31068 0.399 0.0
C1071 C 0.19203 0.29697 0.39456 0.0
H1072 H 0.11313 0.30353 0.40214 0.0
H1073 H 0.38941 0.16339 0.36126 0.0
H1074 H 0.19497 0.67213 0.57832 0.0
H1075 H 0.1911 0.71674 0.59496 0.0
H1076 H 0.26078 0.67172 0.62197 0.0
H1077 H 0.26594 0.62801 0.60498 0.0
H1078 H 0.17519 0.7286 0.62037 0.0
H1079 H 0.30775 0.72442 0.63791 0.0
H1080 H 0.35986 0.70807 0.62827 0.0
H1081 H 0.32521 0.72176 0.58588 0.0
H1082 H 0.27306 0.73859 0.59527 0.0
H1083 H 0.19686 0.83153 0.67961 0.0
H1084 H 0.19266 0.78795 0.6625 0.0
H1085 H 0.26008 0.83571 0.63522 0.0
H1086 H 0.26581 0.87819 0.65278 0.0
H1087 H 0.27611 0.77928 0.63569 0.0
H1088 H 0.17497 0.82753 0.62811 0.0
H1089 H 0.12253 0.84979 0.63444 0.0
H1090 H 0.09366 0.75894 0.65109 0.0
H1091 H 0.14609 0.73623 0.64503 0.0
C1092 C 0.20918 0.67157 0.5879 0.0
C1093 C 0.231 0.6467 0.59027 0.0
C1094 C 0.20695 0.69713 0.59742 0.0
C1095 C 0.22621 0.69816 0.60961 0.0
C1096 C 0.24637 0.67213 0.61246 0.0
C1097 C 0.24912 0.64696 0.60279 0.0
C1098 C 0.22633 0.72699 0.61895 0.0
C1099 C 0.19727 0.73967 0.62373 0.0
C1100 C 0.25501 0.74224 0.62305 0.0
C1101 C 0.28641 0.73243 0.6173 0.0
C1102 C 0.3113 0.72404 0.62654 0.0
C1103 C 0.34083 0.71468 0.62112 0.0
C1104 C 0.34581 0.71378 0.60647 0.0
C1105 C 0.3213 0.72236 0.59722 0.0
C1106 C 0.29174 0.73178 0.60258 0.0
C1107 C 0.2104 0.83293 0.66986 0.0
C1108 C 0.23163 0.8583 0.66752 0.0
C1109 C 0.2079 0.808 0.66001 0.0
C1110 C 0.2258 0.80842 0.64739 0.0
C1111 C 0.24612 0.8345 0.64486 0.0
C1112 C 0.24926 0.85894 0.65487 0.0
C1113 C 0.22493 0.78095 0.63725 0.0
C1114 C 0.25394 0.76838 0.63235 0.0
C1115 C 0.19614 0.76673 0.63257 0.0
C1116 C 0.16457 0.78027 0.63623 0.0
C1117 C 0.15752 0.81236 0.63322 0.0
C1118 C 0.12778 0.82505 0.63674 0.0
C1119 C 0.10481 0.80582 0.6432 0.0
C1120 C 0.11149 0.77382 0.64611 0.0
C1121 C 0.1412 0.76102 0.64261 0.0
H1122 H 0.0818 0.81568 0.64592 0.0
H1123 H 0.36868 0.70649 0.6023 0.0
H1124 H 0.65865 0.81811 0.42215 0.0
H1125 H 0.70091 0.82319 0.4043 0.0
H1126 H 0.70252 0.72098 0.39927 0.0
H1127 H 0.66035 0.71569 0.4169 0.0
H1128 H 0.76254 0.74709 0.40399 0.0
H1129 H 0.67104 0.76592 0.37401 0.0
H1130 H 0.62186 0.79366 0.36682 0.0
H1131 H 0.67324 0.88188 0.36342 0.0
H1132 H 0.72267 0.85472 0.37078 0.0
H1133 H 0.85374 0.71809 0.34308 0.0
H1134 H 0.81333 0.72255 0.36144 0.0
H1135 H 0.81315 0.82492 0.35668 0.0
H1136 H 0.85314 0.82048 0.33781 0.0
H1137 H 0.75446 0.80479 0.35821 0.0
H1138 H 0.84647 0.78692 0.38642 0.0
H1139 H 0.89619 0.7608 0.39404 0.0
H1140 H 0.84534 0.67367 0.40177 0.0
H1141 H 0.79537 0.69913 0.39401 0.0
C1142 C 0.66768 0.79676 0.41708 0.0
C1143 C 0.65608 0.76649 0.42097 0.0
C1144 C 0.69185 0.79971 0.40689 0.0
C1145 C 0.70495 0.77244 0.40048 0.0
C1146 C 0.69287 0.74233 0.40411 0.0
C1147 C 0.6686 0.73938 0.41416 0.0
C1148 C 0.73212 0.77487 0.39041 0.0
C1149 C 0.76072 0.75947 0.39392 0.0
C1150 C 0.73015 0.79206 0.37753 0.0
C1151 C 0.70046 0.80837 0.37311 0.0
C1152 C 0.67179 0.7913 0.37186 0.0
C1153 C 0.64388 0.8069 0.36772 0.0
C1154 C 0.6444 0.83953 0.36471 0.0
C1155 C 0.67286 0.85661 0.36579 0.0
C1156 C 0.70083 0.84113 0.36993 0.0
C1157 C 0.84548 0.74165 0.34603 0.0
C1158 C 0.85686 0.76895 0.33899 0.0
C1159 C 0.82235 0.74418 0.35661 0.0
C1160 C 0.81038 0.77413 0.36066 0.0
C1161 C 0.82201 0.80154 0.3538 0.0
C1162 C 0.84502 0.79899 0.34306 0.0
C1163 C 0.78484 0.77637 0.37163 0.0
C1164 C 0.75654 0.79269 0.36834 0.0
C1165 C 0.78719 0.76031 0.38482 0.0
C1166 C 0.81719 0.74489 0.38953 0.0
C1167 C 0.84592 0.76212 0.38965 0.0
C1168 C 0.87415 0.74744 0.39401 0.0
C1169 C 0.87394 0.71558 0.39836 0.0
C1170 C 0.84547 0.69835 0.39839 0.0
C1171 C 0.81718 0.7129 0.39403 0.0
H1172 H 0.89582 0.70426 0.40172 0.0
H1173 H 0.62278 0.85157 0.36151 0.0
H1174 H 0.82027 0.15272 0.66838 0.0
H1175 H 0.82572 0.19482 0.6505 0.0
H1176 H 0.72355 0.19834 0.64602 0.0
H1177 H 0.71814 0.15549 0.66329 0.0
H1178 H 0.74733 0.20522 0.62156 0.0
H1179 H 0.76972 0.25382 0.66674 0.0
H1180 H 0.79779 0.26047 0.68951 0.0
H1181 H 0.88596 0.27477 0.66738 0.0
H1182 H 0.85846 0.26781 0.64447 0.0
H1183 H 0.72272 0.36105 0.59555 0.0
H1184 H 0.72692 0.31635 0.61206 0.0
H1185 H 0.82704 0.30802 0.60283 0.0
H1186 H 0.823 0.35266 0.58604 0.0
H1187 H 0.80948 0.30255 0.63293 0.0
H1188 H 0.78304 0.25809 0.58736 0.0
H1189 H 0.75206 0.25343 0.56526 0.0
H1190 H 0.6675 0.23386 0.5893 0.0
H1191 H 0.69789 0.23886 0.61158 0.0
C1192 C 0.79903 0.16222 0.66343 0.0
C1193 C 0.76878 0.15074 0.66729 0.0
C1194 C 0.80213 0.18653 0.6533 0.0
C1195 C 0.77501 0.2004 0.64706 0.0
C1196 C 0.7449 0.18821 0.65063 0.0
C1197 C 0.74183 0.16362 0.66055 0.0
C1198 C 0.77757 0.2279 0.63703 0.0
C1199 C 0.76074 0.22654 0.62416 0.0
C1200 C 0.79556 0.25569 0.64016 0.0
C1201 C 0.81211 0.25993 0.65391 0.0
C1202 C 0.79513 0.25815 0.66674 0.0
C1203 C 0.81093 0.26201 0.67967 0.0
C1204 C 0.84366 0.26794 0.67989 0.0
C1205 C 0.86063 0.27011 0.66719 0.0
C1206 C 0.84495 0.26623 0.65423 0.0
C1207 C 0.74578 0.35006 0.59714 0.0
C1208 C 0.77253 0.36043 0.58943 0.0
C1209 C 0.74808 0.32439 0.60655 0.0
C1210 C 0.77721 0.30868 0.60857 0.0
C1211 C 0.80432 0.3198 0.60139 0.0
C1212 C 0.80195 0.34529 0.59181 0.0
C1213 C 0.77877 0.27985 0.61773 0.0
C1214 C 0.79635 0.28102 0.63036 0.0
C1215 C 0.76104 0.25209 0.61452 0.0
C1216 C 0.7427 0.2491 0.60114 0.0
C1217 C 0.75778 0.25307 0.58795 0.0
C1218 C 0.74034 0.25032 0.57539 0.0
C1219 C 0.70784 0.24339 0.57588 0.0
C1220 C 0.69269 0.23923 0.58894 0.0
C1221 C 0.71001 0.24199 0.60154 0.0
H1222 H 0.69444 0.24111 0.56616 0.0
H1223 H 0.85584 0.27092 0.68991 0.0
H1224 H 0.15273 0.32082 0.91987 0.0
H1225 H 0.19621 0.32534 0.90256 0.0
H1226 H 0.19971 0.22288 0.89898 0.0
H1227 H 0.15626 0.21814 0.91603 0.0
H1228 H 0.25933 0.25136 0.90437 0.0
H1229 H 0.16934 0.26399 0.8728 0.0
H1230 H 0.11992 0.28951 0.86441 0.0
H1231 H 0.1691 0.37869 0.85976 0.0
H1232 H 0.21874 0.35378 0.86831 0.0
H1233 H 0.35652 0.2185 0.84574 0.0
H1234 H 0.31441 0.2236 0.8633 0.0
H1235 H 0.31024 0.32503 0.85572 0.0
H1236 H 0.35183 0.31981 0.8376 0.0
H1237 H 0.25263 0.30331 0.85721 0.0
H1238 H 0.34312 0.29189 0.88699 0.0
H1239 H 0.3931 0.26845 0.89587 0.0
H1240 H 0.34461 0.18066 0.90501 0.0
H1241 H 0.2944 0.20342 0.896 0.0
C1242 C 0.16247 0.29929 0.91524 0.0
C1243 C 0.15097 0.26912 0.91934 0.0
C1244 C 0.18732 0.30191 0.90536 0.0
C1245 C 0.20128 0.27442 0.89952 0.0
C1246 C 0.18939 0.24439 0.90339 0.0
C1247 C 0.16439 0.24176 0.9131 0.0
C1248 C 0.22906 0.27657 0.88978 0.0
C1249 C 0.25784 0.26248 0.894 0.0
C1250 C 0.22746 0.29216 0.8765 0.0
C1251 C 0.19765 0.30712 0.87136 0.0
C1252 C 0.16954 0.28912 0.87012 0.0
C1253 C 0.14151 0.30345 0.86531 0.0
C1254 C 0.14135 0.33573 0.8616 0.0
C1255 C 0.16925 0.35371 0.86266 0.0
C1256 C 0.19734 0.33949 0.86748 0.0
C1257 C 0.34699 0.24201 0.8479 0.0
C1258 C 0.35775 0.26878 0.8403 0.0
C1259 C 0.32289 0.24493 0.85803 0.0
C1260 C 0.30933 0.27481 0.86108 0.0
C1261 C 0.3203 0.30171 0.85362 0.0
C1262 C 0.34422 0.29873 0.84332 0.0
C1263 C 0.28295 0.27745 0.87164 0.0
C1264 C 0.2544 0.29248 0.86762 0.0
C1265 C 0.28489 0.2631 0.88523 0.0
C1266 C 0.31503 0.24931 0.89072 0.0
C1267 C 0.34315 0.26752 0.8908 0.0
C1268 C 0.37152 0.25436 0.89588 0.0
C1269 C 0.37205 0.22307 0.90098 0.0
C1270 C 0.34417 0.20489 0.90105 0.0
C1271 C 0.31574 0.21793 0.89598 0.0
H1272 H 0.39404 0.21293 0.9049 0.0
H1273 H 0.11962 0.34678 0.85787 0.0
H1274 H 0.31627 0.65748 0.16773 0.0
H1275 H 0.32118 0.69857 0.14934 0.0
H1276 H 0.21884 0.70577 0.14714 0.0
H1277 H 0.21384 0.66422 0.16504 0.0
H1278 H 0.24102 0.70835 0.12182 0.0
H1279 H 0.26802 0.76084 0.16568 0.0
H1280 H 0.29827 0.76901 0.18779 0.0
H1281 H 0.38457 0.77959 0.16385 0.0
H1282 H 0.35487 0.77109 0.1416 0.0
H1283 H 0.21571 0.85916 0.09183 0.0
H1284 H 0.22073 0.81705 0.10954 0.0
H1285 H 0.32117 0.80985 0.10079 0.0
H1286 H 0.31637 0.85215 0.0829 0.0
H1287 H 0.3054 0.80572 0.13031 0.0
H1288 H 0.27523 0.75742 0.08611 0.0
H1289 H 0.24271 0.75157 0.06451 0.0
H1290 H 0.15957 0.735 0.08995 0.0
H1291 H 0.19151 0.74125 0.11172 0.0
C1292 C 0.29485 0.66764 0.16322 0.0
C1293 C 0.26467 0.65755 0.16788 0.0
C1294 C 0.29767 0.69133 0.15277 0.0
C1295 C 0.27038 0.70576 0.14696 0.0
C1296 C 0.2403 0.69511 0.15141 0.0
C1297 C 0.23747 0.67129 0.16169 0.0
C1298 C 0.27272 0.73211 0.13635 0.0
C1299 C 0.25494 0.7297 0.12378 0.0
C1300 C 0.29142 0.75981 0.13865 0.0
C1301 C 0.30929 0.76495 0.152 0.0
C1302 C 0.29349 0.76466 0.16515 0.0
C1303 C 0.31052 0.7694 0.1777 0.0
C1304 C 0.34334 0.77471 0.17723 0.0
C1305 C 0.35917 0.7754 0.1642 0.0
C1306 C 0.34224 0.77065 0.15162 0.0
C1307 C 0.23901 0.849 0.09376 0.0
C1308 C 0.26562 0.85894 0.08585 0.0
C1309 C 0.24179 0.8248 0.10388 0.0
C1310 C 0.27122 0.80998 0.10635 0.0
C1311 C 0.29821 0.82089 0.09901 0.0
C1312 C 0.29541 0.84506 0.08879 0.0
C1313 C 0.27317 0.78206 0.11605 0.0
C1314 C 0.29177 0.78418 0.12837 0.0
C1315 C 0.25493 0.75421 0.11363 0.0
C1316 C 0.23573 0.75005 0.10055 0.0
C1317 C 0.24997 0.75275 0.0871 0.0
C1318 C 0.23165 0.74933 0.07483 0.0
C1319 C 0.19908 0.74298 0.07586 0.0
C1320 C 0.18479 0.73995 0.08917 0.0
C1321 C 0.203 0.74339 0.10148 0.0
H1322 H 0.18493 0.74035 0.06634 0.0
H1323 H 0.35649 0.77838 0.18696 0.0
H1324 H 0.87657 0.76689 0.90386 0.0
H1325 H 0.83341 0.76221 0.88661 0.0
H1326 H 0.78239 0.70024 0.91525 0.0
H1327 H 0.82643 0.70338 0.93214 0.0
H1328 H 0.77061 0.68077 0.89059 0.0
H1329 H 0.76643 0.7841 0.91158 0.0
H1330 H 0.7865 0.83675 0.91907 0.0
H1331 H 0.80497 0.86155 0.87566 0.0
H1332 H 0.78536 0.80886 0.86793 0.0
H1333 H 0.62986 0.77478 0.85291 0.0
H1334 H 0.67088 0.76972 0.87113 0.0
H1335 H 0.71494 0.69378 0.84722 0.0
H1336 H 0.67274 0.69754 0.82946 0.0
H1337 H 0.72828 0.78171 0.8707 0.0
H1338 H 0.76195 0.64721 0.86716 0.0
H1339 H 0.73571 0.59539 0.86301 0.0
H1340 H 0.64677 0.63421 0.87734 0.0
H1341 H 0.67254 0.68612 0.88174 0.0
C1342 C 0.85634 0.7519 0.90638 0.0
C1343 C 0.85483 0.73564 0.91939 0.0
C1344 C 0.83149 0.74944 0.89655 0.0
C1345 C 0.80402 0.73158 0.89972 0.0
C1346 C 0.80313 0.71429 0.9125 0.0
C1347 C 0.82835 0.71611 0.92218 0.0
C1348 C 0.77586 0.73188 0.89002 0.0
C1349 C 0.76137 0.70286 0.88624 0.0
C1350 C 0.76298 0.76068 0.8846 0.0
C1351 C 0.77471 0.79243 0.88919 0.0
C1352 C 0.77496 0.80071 0.90364 0.0
C1353 C 0.78623 0.83056 0.90793 0.0
C1354 C 0.79708 0.85245 0.89785 0.0
C1355 C 0.7966 0.84455 0.88346 0.0
C1356 C 0.78539 0.81471 0.87912 0.0
C1357 C 0.64793 0.75655 0.85172 0.0
C1358 C 0.64795 0.73642 0.83981 0.0
C1359 C 0.67156 0.75378 0.8621 0.0
C1360 C 0.69619 0.73126 0.8607 0.0
C1361 C 0.69594 0.71084 0.84884 0.0
C1362 C 0.67181 0.71307 0.83863 0.0
C1363 C 0.72297 0.73056 0.87117 0.0
C1364 C 0.73736 0.75955 0.87505 0.0
C1365 C 0.73479 0.70185 0.87715 0.0
C1366 C 0.71914 0.67064 0.87464 0.0
C1367 C 0.73682 0.64465 0.86947 0.0
C1368 C 0.72202 0.61527 0.86706 0.0
C1369 C 0.68958 0.61154 0.86986 0.0
C1370 C 0.67187 0.63716 0.87512 0.0
C1371 C 0.68656 0.66658 0.87756 0.0
H1372 H 0.67817 0.58879 0.86799 0.0
H1373 H 0.80579 0.87555 0.90119 0.0
H1374 H 0.79746 0.17473 0.0878 0.0
H1375 H 0.79165 0.21484 0.10627 0.0
H1376 H 0.69006 0.19995 0.10657 0.0
H1377 H 0.69566 0.16019 0.08762 0.0
H1378 H 0.70208 0.26149 0.10766 0.0
H1379 H 0.73903 0.17164 0.13376 0.0
H1380 H 0.77351 0.1258 0.13945 0.0
H1381 H 0.85375 0.18847 0.14378 0.0
H1382 H 0.81984 0.23466 0.13792 0.0
H1383 H 0.68906 0.35157 0.17315 0.0
H1384 H 0.68631 0.31034 0.15472 0.0
H1385 H 0.78644 0.32254 0.14631 0.0
H1386 H 0.78939 0.36362 0.16458 0.0
H1387 H 0.7702 0.25975 0.1506 0.0
H1388 H 0.73209 0.34921 0.12308 0.0
H1389 H 0.69634 0.39434 0.11784 0.0
H1390 H 0.61617 0.33082 0.11717 0.0
H1391 H 0.65143 0.28535 0.1226 0.0
C1392 C 0.77385 0.17971 0.09185 0.0
C1393 C 0.74704 0.16404 0.08627 0.0
C1394 C 0.77057 0.20265 0.10249 0.0
C1395 C 0.74046 0.21017 0.10804 0.0
C1396 C 0.71357 0.19454 0.10251 0.0
C1397 C 0.71681 0.17169 0.09173 0.0
C1398 C 0.73731 0.23489 0.11934 0.0
C1399 C 0.71656 0.26077 0.11718 0.0
C1400 C 0.75642 0.23432 0.13172 0.0
C1401 C 0.77691 0.2066 0.1353 0.0
C1402 C 0.76407 0.17563 0.13583 0.0
C1403 C 0.78351 0.14959 0.1391 0.0
C1404 C 0.81581 0.15421 0.14194 0.0
C1405 C 0.82873 0.18492 0.14156 0.0
C1406 C 0.8094 0.21105 0.13829 0.0
C1407 C 0.71037 0.34582 0.16722 0.0
C1408 C 0.73946 0.36091 0.17037 0.0
C1409 C 0.70876 0.32224 0.15668 0.0
C1410 C 0.7362 0.31327 0.14915 0.0
C1411 C 0.765 0.32894 0.15202 0.0
C1412 C 0.76659 0.35258 0.16244 0.0
C1413 C 0.73556 0.28656 0.13875 0.0
C1414 C 0.75554 0.26027 0.14113 0.0
C1415 C 0.71553 0.28664 0.12669 0.0
C1416 C 0.69435 0.31394 0.12341 0.0
C1417 C 0.7068 0.34491 0.12195 0.0
C1418 C 0.68664 0.37054 0.11891 0.0
C1419 C 0.65399 0.36547 0.11722 0.0
C1420 C 0.64146 0.33473 0.11851 0.0
C1421 C 0.66152 0.30901 0.12156 0.0
H1422 H 0.63842 0.38534 0.11486 0.0
H1423 H 0.83083 0.13402 0.14447 0.0
H1424 H 0.93697 0.89154 0.30955 0.0
H1425 H 0.96369 0.94346 0.31101 0.0
H1426 H 0.97125 0.94609 0.26541 0.0
H1427 H 0.94451 0.89458 0.26387 0.0
H1428 H 0.02423 0.95726 0.30227 0.0
H1429 H 0.96915 0.02246 0.25393 0.0
H1430 H 0.91779 0.02578 0.24136 0.0
H1431 H 0.86849 0.99879 0.27939 0.0
H1432 H 0.91948 0.99574 0.29225 0.0
H1433 H 0.07558 0.11685 0.26459 0.0
H1434 H 0.04927 0.06498 0.26546 0.0
H1435 H 0.05227 0.06711 0.31117 0.0
H1436 H 0.07926 0.1188 0.31036 0.0
H1437 H 0.99222 0.05436 0.27583 0.0
H1438 H 0.04812 0.99077 0.32424 0.0
H1439 H 0.09991 0.98673 0.33643 0.0
H1440 H 0.14831 0.00975 0.29766 0.0
H1441 H 0.09687 0.01351 0.28519 0.0
C1442 C 0.94369 0.90353 0.29983 0.0
C1443 C 0.93856 0.88895 0.28659 0.0
C1444 C 0.9592 0.93307 0.30068 0.0
C1445 C 0.96945 0.9487 0.28833 0.0
C1446 C 0.96327 0.93469 0.27509 0.0
C1447 C 0.94796 0.90518 0.27423 0.0
C1448 C 0.98813 0.97877 0.28917 0.0
C1449 C 0.01697 0.97871 0.2967 0.0
C1450 C 0.97908 0.00647 0.28161 0.0
C1451 C 0.9482 0.0086 0.27402 0.0
C1452 C 0.94734 0.01737 0.25963 0.0
C1453 C 0.91829 0.01918 0.25245 0.0
C1454 C 0.8899 0.0124 0.25956 0.0
C1455 C 0.8905 1.00391 0.27388 0.0
C1456 C 0.91948 1.00209 0.28112 0.0
C1457 C 0.07138 0.10593 0.27483 0.0
C1458 C 0.07948 0.122 0.28741 0.0
C1459 C 0.05613 0.07634 0.27531 0.0
C1460 C 0.04858 0.06214 0.28837 0.0
C1461 C 0.05811 0.07736 0.30096 0.0
C1462 C 0.07361 0.10693 0.30048 0.0
C1463 C 0.02865 0.03277 0.28874 0.0
C1464 C 0.99948 0.03299 0.28146 0.0
C1465 C 0.0375 0.00522 0.29648 0.0
C1466 C 0.0686 1.00279 0.30384 0.0
C1467 C 0.06982 0.99489 0.31831 0.0
C1468 C 0.09912 0.99265 0.32527 0.0
C1469 C 0.12738 0.9981 0.31784 0.0
C1470 C 0.1264 0.00568 0.30342 0.0
C1471 C 0.09718 0.00792 0.29641 0.0
H1472 H 0.15003 0.99637 0.32325 0.0
H1473 H 0.86744 0.0138 0.25398 0.0
H1474 H 0.88876 0.07559 0.69644 0.0
H1475 H 0.93986 0.04751 0.69526 0.0
H1476 H 0.94193 0.04149 0.7409 0.0
H1477 H 0.89088 0.06907 0.74216 0.0
H1478 H 1.0001 0.05586 0.70562 0.0
H1479 H 0.96666 0.9678 0.75065 0.0
H1480 H 0.91847 0.94435 0.76137 0.0
H1481 H 0.86775 0.95726 0.72228 0.0
H1482 H 0.91575 0.98032 0.71126 0.0
H1483 H 0.11416 0.94033 0.74187 0.0
H1484 H 0.06159 0.9652 0.74074 0.0
H1485 H 0.06402 0.96032 0.69508 0.0
H1486 H 0.11662 0.9352 0.69612 0.0
H1487 H 1.00252 0.94947 0.72875 0.0
H1488 H 0.03649 0.03427 0.68321 0.0
H1489 H 0.08466 0.05749 0.67235 0.0
H1490 H 0.13384 0.05052 0.71213 0.0
H1491 H 0.08583 0.02778 0.72327 0.0
C1492 C 0.90043 0.06889 0.70623 0.0
C1493 C 0.88558 0.0743 0.71939 0.0
C1494 C 0.92961 0.05276 0.70554 0.0
C1495 C 0.94433 0.04172 0.71798 0.0
C1496 C 0.93065 0.04915 0.73115 0.0
C1497 C 0.90153 0.06512 0.73185 0.0
C1498 C 0.97299 0.02097 0.71724 0.0
C1499 C 1.00046 0.0324 0.71048 0.0
C1500 C 0.97361 0.99046 0.72373 0.0
C1501 C 0.94474 0.97608 0.73018 0.0
C1502 C 0.94527 0.9655 0.74433 0.0
C1503 C 0.91798 0.95229 0.75046 0.0
C1504 C 0.89004 0.94941 0.74252 0.0
C1505 C 0.88937 0.95961 0.72842 0.0
C1506 C 0.91661 0.97278 0.72224 0.0
C1507 C 0.1032 0.94384 0.73159 0.0
C1508 C 0.11963 0.93594 0.71908 0.0
C1509 C 0.07315 0.95807 0.73097 0.0
C1510 C 0.05915 0.96506 0.71783 0.0
C1511 C 0.07459 0.95543 0.70533 0.0
C1512 C 0.10454 0.94087 0.70595 0.0
C1513 C 0.02964 0.9845 0.71726 0.0
C1514 C 1.00202 0.97281 0.72379 0.0
C1515 C 0.02886 0.0147 0.71052 0.0
C1516 C 0.05768 0.02895 0.70401 0.0
C1517 C 0.05756 0.03781 0.68964 0.0
C1518 C 0.08483 0.05089 0.68344 0.0
C1519 C 0.11233 0.05536 0.69153 0.0
C1520 C 0.11257 0.04693 0.70586 0.0
C1521 C 0.08534 0.03391 0.71212 0.0
H1522 H 0.13343 0.06544 0.6867 0.0
H1523 H 0.86893 0.93922 0.7473 0.0
H1524 H 0.06445 0.39265 0.94829 0.0
H1525 H 0.03681 0.44397 0.9471 0.0
H1526 H 0.02985 0.44564 0.99274 0.0
H1527 H 0.05666 0.39406 0.99396 0.0
H1528 H 0.97412 0.45731 0.98173 0.0
H1529 H 0.0798 0.497 0.9736 0.0
H1530 H 0.13205 0.50025 0.96177 0.0
H1531 H 0.08631 0.52343 0.92239 0.0
H1532 H 0.03374 0.51992 0.93395 0.0
H1533 H 0.92862 0.61865 0.99274 0.0
H1534 H 0.95346 0.56609 0.99176 0.0
H1535 H 0.94976 0.56834 0.94607 0.0
H1536 H 0.92505 0.62122 0.94696 0.0
H1537 H 0.00897 0.55386 0.95562 0.0
H1538 H 0.90308 0.51691 0.96457 0.0
H1539 H 0.85142 0.51465 0.97694 0.0
H1540 H 0.89844 0.48715 0.01546 0.0
H1541 H 0.95045 0.48967 1.00338 0.0
C1542 C 0.05767 0.40431 0.95808 0.0
C1543 C 0.0627 0.38925 0.97122 0.0
C1544 C 0.04182 0.43368 0.95739 0.0
C1545 C 0.03116 0.44875 0.96984 0.0
C1546 C 0.03759 0.43442 0.98299 0.0
C1547 C 0.05312 0.40499 0.98367 0.0
C1548 C 0.01157 0.47834 0.96921 0.0
C1549 C 0.98198 0.47855 0.97617 0.0
C1550 C 0.02124 0.50577 0.96158 0.0
C1551 C 0.05282 0.50785 0.9546 0.0
C1552 C 0.08087 0.50252 0.96239 0.0
C1553 C 0.11055 0.50447 0.95574 0.0
C1554 C 0.11249 0.51195 0.94133 0.0
C1555 C 0.08476 0.51759 0.93354 0.0
C1556 C 0.05502 0.51565 0.94014 0.0
C1557 C 0.93239 0.6077 0.98248 0.0
C1558 C 0.92485 0.62418 0.96993 0.0
C1559 C 0.94662 0.57759 0.98193 0.0
C1560 C 0.9535 0.56323 0.96884 0.0
C1561 C 0.94474 0.579 0.95629 0.0
C1562 C 0.93036 0.60912 0.95683 0.0
C1563 C 0.97181 0.53289 0.96831 0.0
C1564 C 1.00109 0.53253 0.96111 0.0
C1565 C 0.96197 0.50537 0.9758 0.0
C1566 C 0.9307 0.50373 0.98309 0.0
C1567 C 0.90244 0.51062 0.97571 0.0
C1568 C 0.87308 0.50924 0.98267 0.0
C1569 C 0.87166 0.50082 0.99699 0.0
C1570 C 0.89958 0.49369 0.00437 0.0
C1571 C 0.929 0.49505 0.99747 0.0
H1572 H 0.84891 0.49978 1.00235 0.0
H1573 H 0.13549 0.51345 0.9362 0.0
H1574 H 0.38286 0.95527 0.00996 0.0
H1575 H 0.43555 0.97946 0.01097 0.0
H1576 H 0.44569 0.94899 0.0544 0.0
H1577 H 0.39253 0.92476 0.05354 0.0
H1578 H 0.45423 0.02853 0.02897 0.0
H1579 H 0.52781 0.93441 0.05882 0.0
H1580 H 0.52906 0.87616 0.0626 0.0
H1581 H 0.48431 0.86146 0.0222 0.0
H1582 H 0.48319 0.91956 0.01811 0.0
H1583 H 0.60925 0.0886 0.05016 0.0
H1584 H 0.55614 0.06403 0.05059 0.0
H1585 H 0.58188 0.00482 0.01502 0.0
H1586 H 0.63444 0.02933 0.01436 0.0
H1587 H 0.55523 0.97058 0.03785 0.0
H1588 H 0.53482 0.06412 0.0092 0.0
H1589 H 0.53376 0.12186 0.00422 0.0
H1590 H 0.47238 0.13688 0.04001 0.0
H1591 H 0.47346 0.07924 0.04532 0.0
C1592 C 0.39638 0.95326 0.01969 0.0
C1593 C 0.38343 0.93809 0.03169 0.0
C1594 C 0.42643 0.96733 0.02027 0.0
C1595 C 0.44441 0.96622 0.03277 0.0
C1596 C 0.43217 0.95006 0.04463 0.0
C1597 C 0.40187 0.93615 0.04411 0.0
C1598 C 0.47554 0.98282 0.03338 0.0
C1599 C 0.4763 0.0159 0.03101 0.0
C1600 C 0.50429 0.96632 0.03599 0.0
C1601 C 0.50508 0.93134 0.03825 0.0
C1602 C 0.51831 0.91872 0.05074 0.0
C1603 C 0.51899 0.88574 0.05293 0.0
C1604 C 0.50666 0.86513 0.04267 0.0
C1605 C 0.49372 0.87745 0.03017 0.0
C1606 C 0.49301 0.91041 0.02792 0.0
C1607 C 0.6034 0.07066 0.04232 0.0
C1608 C 0.62606 0.06096 0.03222 0.0
C1609 C 0.57314 0.0566 0.04261 0.0
C1610 C 0.56524 0.03246 0.03289 0.0
C1611 C 0.5876 0.02323 0.02267 0.0
C1612 C 0.61758 0.03748 0.02226 0.0
C1613 C 0.53391 0.01626 0.0334 0.0
C1614 C 0.5331 0.98328 0.03602 0.0
C1615 C 0.50514 0.03281 0.03093 0.0
C1616 C 0.50455 0.06744 0.02776 0.0
C1617 C 0.52137 0.07978 0.01609 0.0
C1618 C 0.5207 0.11248 0.01319 0.0
C1619 C 0.50311 0.13305 0.02182 0.0
C1620 C 0.48606 0.12094 0.03335 0.0
C1621 C 0.48668 0.08826 0.03631 0.0
H1622 H 0.50261 0.15835 0.01955 0.0
H1623 H 0.5072 0.8396 0.04439 0.0
H1624 H 0.43466 0.38791 0.81117 0.0
H1625 H 0.46093 0.43994 0.81194 0.0
H1626 H 0.45873 0.44462 0.76624 0.0
H1627 H 0.4333 0.39229 0.76541 0.0
H1628 H 0.51622 0.45653 0.77519 0.0
H1629 H 0.41209 0.49391 0.78799 0.0
H1630 H 0.36235 0.49539 0.80186 0.0
H1631 H 0.41538 0.51664 0.8396 0.0
H1632 H 0.4655 0.51488 0.82599 0.0
H1633 H 0.55817 0.61858 0.76465 0.0
H1634 H 0.53326 0.56613 0.766 0.0
H1635 H 0.54666 0.56523 0.81133 0.0
H1636 H 0.5715 0.61809 0.81008 0.0
H1637 H 0.48557 0.55063 0.80397 0.0
H1638 H 0.58968 0.51574 0.79045 0.0
H1639 H 0.63878 0.51512 0.77612 0.0
H1640 H 0.58476 0.48992 0.73914 0.0
H1641 H 0.53526 0.49081 0.75321 0.0
C1642 C 0.43905 0.40039 0.8013 0.0
C1643 C 0.43195 0.38594 0.78822 0.0
C1644 C 0.45413 0.43016 0.80175 0.0
C1645 C 0.46192 0.44627 0.78914 0.0
C1646 C 0.45322 0.43259 0.77611 0.0
C1647 C 0.43847 0.40275 0.77565 0.0
C1648 C 0.48112 0.47613 0.7894 0.0
C1649 C 0.50923 0.47725 0.78134 0.0
C1650 C 0.47267 0.50284 0.79779 0.0
C1651 C 0.44257 0.50393 0.80599 0.0
C1652 C 0.41317 0.49864 0.79927 0.0
C1653 C 0.3849 0.49958 0.80708 0.0
C1654 C 0.38571 0.50601 0.82161 0.0
C1655 C 0.41479 0.51161 0.82835 0.0
C1656 C 0.44313 0.51067 0.82059 0.0
C1657 C 0.55641 0.60701 0.77489 0.0
C1658 C 0.56685 0.62253 0.78726 0.0
C1659 C 0.54216 0.57696 0.77564 0.0
C1660 C 0.53812 0.56169 0.78876 0.0
C1661 C 0.5495 0.57661 0.80109 0.0
C1662 C 0.56393 0.60669 0.80035 0.0
C1663 C 0.52032 0.5311 0.7896 0.0
C1664 C 0.49256 0.52982 0.79788 0.0
C1665 C 0.52896 0.50428 0.78135 0.0
C1666 C 0.55872 0.50359 0.77287 0.0
C1667 C 0.58823 0.5103 0.77924 0.0
C1668 C 0.61615 0.50986 0.77117 0.0
C1669 C 0.61488 0.50255 0.75673 0.0
C1670 C 0.58571 0.49559 0.75033 0.0
C1671 C 0.55772 0.49602 0.75835 0.0
H1672 H 0.63652 0.50222 0.7505 0.0
H1673 H 0.36381 0.50673 0.82764 0.0
H1674 H 0.61712 0.42991 0.2003 0.0
H1675 H 0.56501 0.45599 0.19873 0.0
H1676 H 0.5613 0.46258 0.24433 0.0
H1677 H 0.61328 0.43694 0.24599 0.0
H1678 H 0.50444 0.44564 0.20909 0.0
H1679 H 0.53516 0.5363 0.25345 0.0
H1680 H 0.58268 0.5613 0.26406 0.0
H1681 H 0.634 0.54837 0.22511 0.0
H1682 H 0.58665 0.52378 0.2142 0.0
H1683 H 0.38667 0.5593 0.24412 0.0
H1684 H 0.43926 0.53432 0.24339 0.0
H1685 H 0.43919 0.54037 0.19775 0.0
H1686 H 0.38666 0.56587 0.1984 0.0
H1687 H 0.49889 0.5528 0.23139 0.0
H1688 H 0.46747 0.46541 0.18649 0.0
H1689 H 0.42006 0.44026 0.17582 0.0
H1690 H 0.37065 0.44716 0.21556 0.0
H1691 H 0.41789 0.47186 0.22651 0.0
C1692 C 0.60488 0.43627 0.21 0.0
C1693 C 0.6195 0.43166 0.22326 0.0
C1694 C 0.57514 0.45124 0.20908 0.0
C1695 C 0.55965 0.46189 0.2214 0.0
C1696 C 0.57315 0.45516 0.23468 0.0
C1697 C 0.60282 0.44033 0.2356 0.0
C1698 C 0.53047 0.48176 0.22045 0.0
C1699 C 0.50338 0.46925 0.21376 0.0
C1700 C 0.52898 0.51248 0.22669 0.0
C1701 C 0.55742 0.52789 0.23306 0.0
C1702 C 0.55653 0.53894 0.24713 0.0
C1703 C 0.58344 0.55302 0.2532 0.0
C1704 C 0.61137 0.5563 0.24528 0.0
C1705 C 0.61239 0.54568 0.23125 0.0
C1706 C 0.58552 0.53165 0.22512 0.0
C1707 C 0.39812 0.55591 0.23394 0.0
C1708 C 0.38253 0.56449 0.22131 0.0
C1709 C 0.42816 0.54165 0.23354 0.0
C1710 C 0.4429 0.53519 0.22052 0.0
C1711 C 0.42806 0.54498 0.20791 0.0
C1712 C 0.39817 0.55972 0.2083 0.0
C1713 C 0.47286 0.51653 0.22017 0.0
C1714 C 0.50008 0.52929 0.22661 0.0
C1715 C 0.47449 0.48613 0.21366 0.0
C1716 C 0.44608 0.47087 0.20725 0.0
C1717 C 0.44651 0.46147 0.19295 0.0
C1718 C 0.41967 0.44729 0.18686 0.0
C1719 C 0.39232 0.44223 0.19499 0.0
C1720 C 0.3918 0.45121 0.20926 0.0
C1721 C 0.41858 0.46535 0.2154 0.0
H1722 H 0.37156 0.43128 0.19025 0.0
H1723 H 0.6322 0.56713 0.25002 0.0
H1724 H 0.44322 0.11437 0.49447 0.0
H1725 H 0.47078 0.06339 0.49241 0.0
H1726 H 0.45847 0.0656 0.44703 0.0
H1727 H 0.43041 0.11672 0.44902 0.0
H1728 H 0.45263 0.00452 0.45802 0.0
H1729 H 0.52654 0.09091 0.46043 0.0
H1730 H 0.54983 0.1402 0.47022 0.0
H1731 H 0.5704 0.09175 0.50927 0.0
H1732 H 0.54672 0.04229 0.4998 0.0
H1733 H 0.57341 0.88741 0.44791 0.0
H1734 H 0.54731 0.93959 0.44611 0.0
H1735 H 0.54828 0.94813 0.49167 0.0
H1736 H 0.57412 0.8961 0.49356 0.0
H1737 H 0.56197 0.00539 0.47799 0.0
H1738 H 0.48394 0.92065 0.47611 0.0
H1739 H 0.46016 0.8715 0.4664 0.0
H1740 H 0.44784 0.91727 0.42604 0.0
H1741 H 0.47202 0.96657 0.43546 0.0
C1742 C 0.44573 0.10374 0.48407 0.0
C1743 C 0.43492 0.11976 0.47189 0.0
C1744 C 0.46166 0.07466 0.4829 0.0
C1745 C 0.46738 0.06113 0.46954 0.0
C1746 C 0.45453 0.07579 0.45743 0.0
C1747 C 0.43842 0.10495 0.4586 0.0
C1748 C 0.48859 0.03296 0.46825 0.0
C1749 C 0.47672 0.00486 0.46216 0.0
C1750 C 0.51997 0.03334 0.47376 0.0
C1751 C 0.53461 0.06295 0.47944 0.0
C1752 C 0.53583 0.09082 0.47114 0.0
C1753 C 0.54912 0.11878 0.47663 0.0
C1754 C 0.56154 0.11912 0.49037 0.0
C1755 C 0.56075 0.09146 0.49863 0.0
C1756 C 0.54741 0.06344 0.49321 0.0
C1757 C 0.56875 0.90077 0.45752 0.0
C1758 C 0.57566 0.8876 0.47088 0.0
C1759 C 0.55364 0.93045 0.45648 0.0
C1760 C 0.54546 0.94748 0.46877 0.0
C1761 C 0.55428 0.93533 0.48206 0.0
C1762 C 0.56904 0.90558 0.48312 0.0
C1763 C 0.52583 0.97683 0.46798 0.0
C1764 C 0.53803 0.00519 0.47368 0.0
C1765 C 0.49483 0.97669 0.46208 0.0
C1766 C 0.48014 0.94715 0.45643 0.0
C1767 C 0.47642 0.92014 0.46513 0.0
C1768 C 0.46282 0.89227 0.45968 0.0
C1769 C 0.45259 0.89123 0.4456 0.0
C1770 C 0.45584 0.91809 0.43694 0.0
C1771 C 0.46949 0.946 0.44232 0.0
H1772 H 0.44206 0.86964 0.44141 0.0
H1773 H 0.57181 0.14079 0.4946 0.0
H1774 H 0.89463 0.43545 0.51541 0.0
H1775 H 0.94704 0.46042 0.5166 0.0
H1776 H 0.94218 0.46024 0.56227 0.0
H1777 H 0.88952 0.43524 0.56117 0.0
H1778 H 0.95714 0.51917 0.5517 0.0
H1779 H 0.99425 0.41228 0.54564 0.0
H1780 H 0.99747 0.3591 0.53457 0.0
H1781 H 0.02802 0.40159 0.49544 0.0
H1782 H 0.02455 0.45509 0.50621 0.0
H1783 H 0.11835 0.5728 0.56061 0.0
H1784 H 0.0666 0.54612 0.56141 0.0
H1785 H 0.06751 0.53719 0.51585 0.0
H1786 H 0.11938 0.56334 0.51499 0.0
H1787 H 0.05519 0.48134 0.52774 0.0
H1788 H 0.01582 0.58807 0.53318 0.0
H1789 H 0.01202 0.64159 0.54388 0.0
H1790 H 0.98525 0.59992 0.58373 0.0
H1791 H 0.98931 0.54609 0.57331 0.0
C1792 C 0.90497 0.44005 0.52572 0.0
C1793 C 0.88786 0.43334 0.53819 0.0
C1794 C 0.93498 0.45435 0.52639 0.0
C1795 C 0.94855 0.46226 0.53953 0.0
C1796 C 0.93212 0.45442 0.55202 0.0
C1797 C 0.90214 0.43988 0.55137 0.0
C1798 C 0.97882 0.48059 0.54011 0.0
C1799 C 0.97878 0.51066 0.54669 0.0
C1800 C 0.00678 0.46989 0.53323 0.0
C1801 C 0.00886 0.43774 0.52671 0.0
C1802 C 1.00139 0.41032 0.53464 0.0
C1803 C 0.00332 0.3801 0.52842 0.0
C1804 C 0.01287 0.37697 0.5143 0.0
C1805 C 0.02059 0.40405 0.50637 0.0
C1806 C 0.01868 0.43433 0.51253 0.0
C1807 C 0.10719 0.56585 0.55073 0.0
C1808 C 0.12307 0.57014 0.53774 0.0
C1809 C 0.07758 0.55053 0.55121 0.0
C1810 C 0.06314 0.53951 0.53869 0.0
C1811 C 0.07825 0.54525 0.52566 0.0
C1812 C 0.10785 0.56042 0.52518 0.0
C1813 C 0.03345 0.52014 0.53918 0.0
C1814 C 0.03362 0.48983 0.53282 0.0
C1815 C 0.00559 0.5307 0.5462 0.0
C1816 C 0.00322 0.56303 0.5525 0.0
C1817 C 0.00941 0.5903 0.54426 0.0
C1818 C 0.00714 0.6207 0.55027 0.0
C1819 C 0.99849 0.62415 0.56449 0.0
C1820 C 0.992 0.59721 0.57273 0.0
C1821 C 0.99426 0.56675 0.56677 0.0
H1822 H 0.99674 0.64771 0.56912 0.0
H1823 H 0.01436 0.35356 0.50951 0.0
loop_
_geom_bond_atom_site_label_1
_geom_bond_atom_site_label_2
_geom_bond_distance
_geom_bond_site_symmetry_2
_ccdc_geom_bond_type
O0 Cd1 2.223 . S
O0 C8 1.315 . S
Cd1 O0 2.223 . S
Cd1 O4 2.297 . S
Cd1 O5 2.439 . S
Cd1 O11 2.240 . S
Cd2 O3 2.240 . S
Cd2 O10 2.223 . S
Cd2 O12 2.297 . S
Cd2 O13 2.439 . S
O3 Cd2 2.240 . S
O3 C8 1.279 . S
O4 Cd1 2.297 . S
O4 C6 1.247 . S
O5 Cd1 2.439 . S
O5 C6 1.208 . S
C6 O4 1.247 . S
C6 O5 1.208 . S
C7 O12 1.247 . S
C7 O13 1.208 . S
C8 O0 1.315 . S
C8 O3 1.279 . S
C9 O10 1.315 . S
C9 O11 1.279 . S
O10 Cd2 2.223 . S
O10 C9 1.315 . S
O11 Cd1 2.240 . S
O11 C9 1.279 . S
O12 Cd2 2.297 . S
O12 C7 1.247 . S
O13 Cd2 2.439 . S
O13 C7 1.208 . S
O14 Cd15 2.223 . S
O14 C22 1.315 . S
Cd15 O14 2.223 . S
Cd15 O18 2.297 . S
Cd15 O19 2.439 . S
Cd15 O25 2.240 . S
Cd16 O17 2.240 . S
Cd16 O24 2.223 . S
Cd16 O26 2.297 . S
Cd16 O27 2.439 . S
O17 Cd16 2.240 . S
O17 C22 1.279 . S
O18 Cd15 2.297 . S
O18 C20 1.247 . S
O19 Cd15 2.439 . S
O19 C20 1.208 . S
C20 O18 1.247 . S
C20 O19 1.208 . S
C21 O26 1.247 . S
C21 O27 1.208 . S
C22 O14 1.315 . S
C22 O17 1.279 . S
C23 O24 1.315 . S
C23 O25 1.279 . S
O24 Cd16 2.223 . S
O24 C23 1.315 . S
O25 Cd15 2.240 . S
O25 C23 1.279 . S
O26 Cd16 2.297 . S
O26 C21 1.247 . S
O27 Cd16 2.439 . S
O27 C21 1.208 . S
O28 Cd29 2.223 . S
O28 C36 1.315 . S
Cd29 O28 2.223 . S
Cd29 O32 2.297 . S
Cd29 O33 2.439 . S
Cd29 O39 2.240 . S
Cd30 O31 2.240 . S
Cd30 O38 2.223 . S
Cd30 O40 2.297 . S
Cd30 O41 2.439 . S
O31 Cd30 2.240 . S
O31 C36 1.279 . S
O32 Cd29 2.297 . S
O32 C34 1.247 . S
O33 Cd29 2.439 . S
O33 C34 1.208 . S
C34 O32 1.247 . S
C34 O33 1.208 . S
C35 O40 1.247 . S
C35 O41 1.208 . S
C36 O28 1.315 . S
C36 O31 1.279 . S
C37 O38 1.315 . S
C37 O39 1.279 . S
O38 Cd30 2.223 . S
O38 C37 1.315 . S
O39 Cd29 2.240 . S
O39 C37 1.279 . S
O40 Cd30 2.297 . S
O40 C35 1.247 . S
O41 Cd30 2.439 . S
O41 C35 1.208 . S
O42 Cd43 2.223 . S
O42 C50 1.315 . S
Cd43 O42 2.223 . S
Cd43 O46 2.297 . S
Cd43 O47 2.439 . S
Cd43 O53 2.240 . S
Cd44 O45 2.240 . S
Cd44 O52 2.223 . S
Cd44 O54 2.297 . S
Cd44 O55 2.439 . S
O45 Cd44 2.240 . S
O45 C50 1.279 . S
O46 Cd43 2.297 . S
O46 C48 1.247 . S
O47 Cd43 2.439 . S
O47 C48 1.208 . S
C48 O46 1.247 . S
C48 O47 1.208 . S
C49 O54 1.247 . S
C49 O55 1.208 . S
C50 O42 1.315 . S
C50 O45 1.279 . S
C51 O52 1.315 . S
C51 O53 1.279 . S
O52 Cd44 2.223 . S
O52 C51 1.315 . S
O53 Cd43 2.240 . S
O53 C51 1.279 . S
O54 Cd44 2.297 . S
O54 C49 1.247 . S
O55 Cd44 2.439 . S
O55 C49 1.208 . S
O56 Cd57 2.223 . S
O56 C64 1.315 . S
Cd57 O56 2.223 . S
Cd57 O60 2.297 . S
Cd57 O61 2.439 . S
Cd57 O67 2.240 . S
Cd58 O59 2.240 . S
Cd58 O66 2.223 . S
Cd58 O68 2.297 . S
Cd58 O69 2.439 . S
O59 Cd58 2.240 . S
O59 C64 1.279 . S
O60 Cd57 2.297 . S
O60 C62 1.247 . S
O61 Cd57 2.439 . S
O61 C62 1.208 . S
C62 O60 1.247 . S
C62 O61 1.208 . S
C63 O68 1.247 . S
C63 O69 1.208 . S
C64 O56 1.315 . S
C64 O59 1.279 . S
C65 O66 1.315 . S
C65 O67 1.279 . S
O66 Cd58 2.223 . S
O66 C65 1.315 . S
O67 Cd57 2.240 . S
O67 C65 1.279 . S
O68 Cd58 2.297 . S
O68 C63 1.247 . S
O69 Cd58 2.439 . S
O69 C63 1.208 . S
O70 Cd71 2.223 . S
O70 C78 1.315 . S
Cd71 O70 2.223 . S
Cd71 O74 2.297 . S
Cd71 O75 2.439 . S
Cd71 O81 2.240 . S
Cd72 O73 2.240 . S
Cd72 O80 2.223 . S
Cd72 O82 2.297 . S
Cd72 O83 2.439 . S
O73 Cd72 2.240 . S
O73 C78 1.279 . S
O74 Cd71 2.297 . S
O74 C76 1.247 . S
O75 Cd71 2.439 . S
O75 C76 1.208 . S
C76 O74 1.247 . S
C76 O75 1.208 . S
C77 O82 1.247 . S
C77 O83 1.208 . S
C78 O70 1.315 . S
C78 O73 1.279 . S
C79 O80 1.315 . S
C79 O81 1.279 . S
O80 Cd72 2.223 . S
O80 C79 1.315 . S
O81 Cd71 2.240 . S
O81 C79 1.279 . S
O82 Cd72 2.297 . S
O82 C77 1.247 . S
O83 Cd72 2.439 . S
O83 C77 1.208 . S
O84 Cd85 2.223 . S
O84 C92 1.315 . S
Cd85 O84 2.223 . S
Cd85 O88 2.297 . S
Cd85 O89 2.439 . S
Cd85 O95 2.240 . S
Cd86 O87 2.240 . S
Cd86 O94 2.223 . S
Cd86 O96 2.297 . S
Cd86 O97 2.439 . S
O87 Cd86 2.240 . S
O87 C92 1.279 . S
O88 Cd85 2.297 . S
O88 C90 1.247 . S
O89 Cd85 2.439 . S
O89 C90 1.208 . S
C90 O88 1.247 . S
C90 O89 1.208 . S
C91 O96 1.247 . S
C91 O97 1.208 . S
C92 O84 1.315 . S
C92 O87 1.279 . S
C93 O94 1.315 . S
C93 O95 1.279 . S
O94 Cd86 2.223 . S
O94 C93 1.315 . S
O95 Cd85 2.240 . S
O95 C93 1.279 . S
O96 Cd86 2.297 . S
O96 C91 1.247 . S
O97 Cd86 2.439 . S
O97 C91 1.208 . S
O98 Cd99 2.223 . S
O98 C106 1.315 . S
Cd99 O98 2.223 . S
Cd99 O102 2.297 . S
Cd99 O103 2.439 . S
Cd99 O109 2.240 . S
Cd100 O101 2.240 . S
Cd100 O108 2.223 . S
Cd100 O110 2.297 . S
Cd100 O111 2.439 . S
O101 Cd100 2.240 . S
O101 C106 1.279 . S
O102 Cd99 2.297 . S
O102 C104 1.247 . S
O103 Cd99 2.439 . S
O103 C104 1.208 . S
C104 O102 1.247 . S
C104 O103 1.208 . S
C105 O110 1.247 . S
C105 O111 1.208 . S
C106 O98 1.315 . S
C106 O101 1.279 . S
C107 O108 1.315 . S
C107 O109 1.279 . S
O108 Cd100 2.223 . S
O108 C107 1.315 . S
O109 Cd99 2.240 . S
O109 C107 1.279 . S
O110 Cd100 2.297 . S
O110 C105 1.247 . S
O111 Cd100 2.439 . S
O111 C105 1.208 . S
O112 Cd113 2.223 . S
O112 C120 1.315 . S
Cd113 O112 2.223 . S
Cd113 O116 2.297 . S
Cd113 O117 2.439 . S
Cd113 O123 2.240 . S
Cd114 O115 2.240 . S
Cd114 O122 2.223 . S
Cd114 O124 2.297 . S
Cd114 O125 2.439 . S
O115 Cd114 2.240 . S
O115 C120 1.279 . S
O116 Cd113 2.297 . S
O116 C118 1.247 . S
O117 Cd113 2.439 . S
O117 C118 1.208 . S
C118 O116 1.247 . S
C118 O117 1.208 . S
C119 O124 1.247 . S
C119 O125 1.208 . S
C120 O112 1.315 . S
C120 O115 1.279 . S
C121 O122 1.315 . S
C121 O123 1.279 . S
O122 Cd114 2.223 . S
O122 C121 1.315 . S
O123 Cd113 2.240 . S
O123 C121 1.279 . S
O124 Cd114 2.297 . S
O124 C119 1.247 . S
O125 Cd114 2.439 . S
O125 C119 1.208 . S
O126 Cd127 2.223 . S
O126 C134 1.315 . S
Cd127 O126 2.223 . S
Cd127 O130 2.297 . S
Cd127 O131 2.439 . S
Cd127 O137 2.240 . S
Cd128 O129 2.240 . S
Cd128 O136 2.223 . S
Cd128 O138 2.297 . S
Cd128 O139 2.439 . S
O129 Cd128 2.240 . S
O129 C134 1.279 . S
O130 Cd127 2.297 . S
O130 C132 1.247 . S
O131 Cd127 2.439 . S
O131 C132 1.208 . S
C132 O130 1.247 . S
C132 O131 1.208 . S
C133 O138 1.247 . S
C133 O139 1.208 . S
C134 O126 1.315 . S
C134 O129 1.279 . S
C135 O136 1.315 . S
C135 O137 1.279 . S
O136 Cd128 2.223 . S
O136 C135 1.315 . S
O137 Cd127 2.240 . S
O137 C135 1.279 . S
O138 Cd128 2.297 . S
O138 C133 1.247 . S
O139 Cd128 2.439 . S
O139 C133 1.208 . S
O140 Cd141 2.223 . S
O140 C148 1.315 . S
Cd141 O140 2.223 . S
Cd141 O144 2.297 . S
Cd141 O145 2.439 . S
Cd141 O151 2.240 . S
Cd142 O143 2.240 . S
Cd142 O150 2.223 . S
Cd142 O152 2.297 . S
Cd142 O153 2.439 . S
O143 Cd142 2.240 . S
O143 C148 1.279 . S
O144 Cd141 2.297 . S
O144 C146 1.247 . S
O145 Cd141 2.439 . S
O145 C146 1.208 . S
C146 O144 1.247 . S
C146 O145 1.208 . S
C147 O152 1.247 . S
C147 O153 1.208 . S
C148 O140 1.315 . S
C148 O143 1.279 . S
C149 O150 1.315 . S
C149 O151 1.279 . S
O150 Cd142 2.223 . S
O150 C149 1.315 . S
O151 Cd141 2.240 . S
O151 C149 1.279 . S
O152 Cd142 2.297 . S
O152 C147 1.247 . S
O153 Cd142 2.439 . S
O153 C147 1.208 . S
O154 Cd155 2.223 . S
O154 C162 1.315 . S
Cd155 O154 2.223 . S
Cd155 O158 2.297 . S
Cd155 O159 2.439 . S
Cd155 O165 2.240 . S
Cd156 O157 2.240 . S
Cd156 O164 2.223 . S
Cd156 O166 2.297 . S
Cd156 O167 2.439 . S
O157 Cd156 2.240 . S
O157 C162 1.279 . S
O158 Cd155 2.297 . S
O158 C160 1.247 . S
O159 Cd155 2.439 . S
O159 C160 1.208 . S
C160 O158 1.247 . S
C160 O159 1.208 . S
C161 O166 1.247 . S
C161 O167 1.208 . S
C162 O154 1.315 . S
C162 O157 1.279 . S
C163 O164 1.315 . S
C163 O165 1.279 . S
O164 Cd156 2.223 . S
O164 C163 1.315 . S
O165 Cd155 2.240 . S
O165 C163 1.279 . S
O166 Cd156 2.297 . S
O166 C161 1.247 . S
O167 Cd156 2.439 . S
O167 C161 1.208 . S
O168 Cd169 2.223 . S
O168 C176 1.315 . S
Cd169 O168 2.223 . S
Cd169 O172 2.297 . S
Cd169 O173 2.439 . S
Cd169 O179 2.240 . S
Cd170 O171 2.240 . S
Cd170 O178 2.223 . S
Cd170 O180 2.297 . S
Cd170 O181 2.439 . S
O171 Cd170 2.240 . S
O171 C176 1.279 . S
O172 Cd169 2.297 . S
O172 C174 1.247 . S
O173 Cd169 2.439 . S
O173 C174 1.208 . S
C174 O172 1.247 . S
C174 O173 1.208 . S
C175 O180 1.247 . S
C175 O181 1.208 . S
C176 O168 1.315 . S
C176 O171 1.279 . S
C177 O178 1.315 . S
C177 O179 1.279 . S
O178 Cd170 2.223 . S
O178 C177 1.315 . S
O179 Cd169 2.240 . S
O179 C177 1.279 . S
O180 Cd170 2.297 . S
O180 C175 1.247 . S
O181 Cd170 2.439 . S
O181 C175 1.208 . S
O182 Cd183 2.223 . S
O182 C190 1.315 . S
Cd183 O182 2.223 . S
Cd183 O186 2.297 . S
Cd183 O187 2.439 . S
Cd183 O193 2.240 . S
Cd184 O185 2.240 . S
Cd184 O192 2.223 . S
Cd184 O194 2.297 . S
Cd184 O195 2.439 . S
O185 Cd184 2.240 . S
O185 C190 1.279 . S
O186 Cd183 2.297 . S
O186 C188 1.247 . S
O187 Cd183 2.439 . S
O187 C188 1.208 . S
C188 O186 1.247 . S
C188 O187 1.208 . S
C189 O194 1.247 . S
C189 O195 1.208 . S
C190 O182 1.315 . S
C190 O185 1.279 . S
C191 O192 1.315 . S
C191 O193 1.279 . S
O192 Cd184 2.223 . S
O192 C191 1.315 . S
O193 Cd183 2.240 . S
O193 C191 1.279 . S
O194 Cd184 2.297 . S
O194 C189 1.247 . S
O195 Cd184 2.439 . S
O195 C189 1.208 . S
O196 Cd197 2.223 . S
O196 C204 1.315 . S
Cd197 O196 2.223 . S
Cd197 O200 2.297 . S
Cd197 O201 2.439 . S
Cd197 O207 2.240 . S
Cd198 O199 2.240 . S
Cd198 O206 2.223 . S
Cd198 O208 2.297 . S
Cd198 O209 2.439 . S
O199 Cd198 2.240 . S
O199 C204 1.279 . S
O200 Cd197 2.297 . S
O200 C202 1.247 . S
O201 Cd197 2.439 . S
O201 C202 1.208 . S
C202 O200 1.247 . S
C202 O201 1.208 . S
C203 O208 1.247 . S
C203 O209 1.208 . S
C204 O196 1.315 . S
C204 O199 1.279 . S
C205 O206 1.315 . S
C205 O207 1.279 . S
O206 Cd198 2.223 . S
O206 C205 1.315 . S
O207 Cd197 2.240 . S
O207 C205 1.279 . S
O208 Cd198 2.297 . S
O208 C203 1.247 . S
O209 Cd198 2.439 . S
O209 C203 1.208 . S
O210 Cd211 2.223 . S
O210 C218 1.315 . S
Cd211 O210 2.223 . S
Cd211 O214 2.297 . S
Cd211 O215 2.439 . S
Cd211 O221 2.240 . S
Cd212 O213 2.240 . S
Cd212 O220 2.223 . S
Cd212 O222 2.297 . S
Cd212 O223 2.439 . S
O213 Cd212 2.240 . S
O213 C218 1.279 . S
O214 Cd211 2.297 . S
O214 C216 1.247 . S
O215 Cd211 2.439 . S
O215 C216 1.208 . S
C216 O214 1.247 . S
C216 O215 1.208 . S
C217 O222 1.247 . S
C217 O223 1.208 . S
C218 O210 1.315 . S
C218 O213 1.279 . S
C219 O220 1.315 . S
C219 O221 1.279 . S
O220 Cd212 2.223 . S
O220 C219 1.315 . S
O221 Cd211 2.240 . S
O221 C219 1.279 . S
O222 Cd212 2.297 . S
O222 C217 1.247 . S
O223 Cd212 2.439 . S
O223 C217 1.208 . S
H224 C242 0.951 . S
H225 C244 0.951 . S
H226 C246 0.950 . S
H227 C247 0.950 . S
H228 C249 0.950 . S
H229 C252 0.950 . S
H230 C253 0.950 . S
H231 C255 0.950 . S
H232 C256 0.950 . S
H233 C257 0.951 . S
H234 C259 0.951 . S
H235 C261 0.950 . S
H236 C262 0.950 . S
H237 C264 0.950 . S
H238 C267 0.950 . S
H239 C268 0.950 . S
H240 C270 0.950 . S
H241 C271 0.950 . S
C242 H224 0.951 . S
C242 C243 1.366 . S
C242 C244 1.388 . S
C243 C242 1.366 . S
C243 C247 1.385 . S
C244 H225 0.951 . S
C244 C242 1.388 . S
C244 C245 1.366 . S
C245 C244 1.366 . S
C245 C246 1.414 . S
C245 C248 1.499 . S
C246 H226 0.950 . S
C246 C245 1.414 . S
C246 C247 1.374 . S
C247 H227 0.950 . S
C247 C243 1.385 . S
C247 C246 1.374 . S
C248 C245 1.499 . S
C248 C249 1.373 . S
C248 C250 1.389 . S
C249 H228 0.950 . S
C249 C248 1.373 . S
C249 C265 1.377 . S
C250 C248 1.389 . S
C250 C251 1.524 . S
C250 C264 1.377 . S
C251 C250 1.524 . S
C251 C252 1.397 . S
C251 C256 1.363 . S
C252 H229 0.950 . S
C252 C251 1.397 . S
C252 C253 1.334 . S
C253 H230 0.950 . S
C253 C252 1.334 . S
C253 C254 1.287 . S
C254 C253 1.287 . S
C254 C255 1.524 . S
C254 H273 0.913 . S
C255 H231 0.950 . S
C255 C254 1.524 . S
C255 C256 1.415 . S
C256 H232 0.950 . S
C256 C251 1.363 . S
C256 C255 1.415 . S
C257 H233 0.951 . S
C257 C258 1.366 . S
C257 C259 1.388 . S
C258 C257 1.366 . S
C258 C262 1.385 . S
C259 H234 0.951 . S
C259 C257 1.388 . S
C259 C260 1.366 . S
C260 C259 1.366 . S
C260 C261 1.414 . S
C260 C263 1.499 . S
C261 H235 0.950 . S
C261 C260 1.414 . S
C261 C262 1.374 . S
C262 H236 0.950 . S
C262 C258 1.385 . S
C262 C261 1.374 . S
C263 C260 1.499 . S
C263 C264 1.373 . S
C263 C265 1.389 . S
C264 H237 0.950 . S
C264 C250 1.377 . S
C264 C263 1.373 . S
C265 C249 1.377 . S
C265 C263 1.389 . S
C265 C266 1.524 . S
C266 C265 1.524 . S
C266 C267 1.397 . S
C266 C271 1.363 . S
C267 H238 0.950 . S
C267 C266 1.397 . S
C267 C268 1.334 . S
C268 H239 0.950 . S
C268 C267 1.334 . S
C268 C269 1.287 . S
C269 C268 1.287 . S
C269 C270 1.524 . S
C269 H272 0.999 . S
C270 H240 0.950 . S
C270 C269 1.524 . S
C270 C271 1.415 . S
C271 H241 0.950 . S
C271 C266 1.363 . S
C271 C270 1.415 . S
H272 C269 0.999 . S
H273 C254 0.913 . S
H274 C292 0.951 . S
H275 C294 0.951 . S
H276 C296 0.950 . S
H277 C297 0.950 . S
H278 C299 0.950 . S
H279 C302 0.950 . S
H280 C303 0.950 . S
H281 C305 0.950 . S
H282 C306 0.950 . S
H283 C307 0.951 . S
H284 C309 0.951 . S
H285 C311 0.950 . S
H286 C312 0.950 . S
H287 C314 0.950 . S
H288 C317 0.950 . S
H289 C318 0.950 . S
H290 C320 0.950 . S
H291 C321 0.950 . S
C292 H274 0.951 . S
C292 C293 1.366 . S
C292 C294 1.388 . S
C293 C292 1.366 . S
C293 C297 1.385 . S
C294 H275 0.951 . S
C294 C292 1.388 . S
C294 C295 1.366 . S
C295 C294 1.366 . S
C295 C296 1.414 . S
C295 C298 1.499 . S
C296 H276 0.950 . S
C296 C295 1.414 . S
C296 C297 1.374 . S
C297 H277 0.950 . S
C297 C293 1.385 . S
C297 C296 1.374 . S
C298 C295 1.499 . S
C298 C299 1.373 . S
C298 C300 1.389 . S
C299 H278 0.950 . S
C299 C298 1.373 . S
C299 C315 1.377 . S
C300 C298 1.389 . S
C300 C301 1.524 . S
C300 C314 1.377 . S
C301 C300 1.524 . S
C301 C302 1.397 . S
C301 C306 1.363 . S
C302 H279 0.950 . S
C302 C301 1.397 . S
C302 C303 1.334 . S
C303 H280 0.950 . S
C303 C302 1.334 . S
C303 C304 1.287 . S
C304 C303 1.287 . S
C304 C305 1.524 . S
C304 H323 0.913 . S
C305 H281 0.950 . S
C305 C304 1.524 . S
C305 C306 1.415 . S
C306 H282 0.950 . S
C306 C301 1.363 . S
C306 C305 1.415 . S
C307 H283 0.951 . S
C307 C308 1.366 . S
C307 C309 1.388 . S
C308 C307 1.366 . S
C308 C312 1.385 . S
C309 H284 0.951 . S
C309 C307 1.388 . S
C309 C310 1.366 . S
C310 C309 1.366 . S
C310 C311 1.414 . S
C310 C313 1.499 . S
C311 H285 0.950 . S
C311 C310 1.414 . S
C311 C312 1.374 . S
C312 H286 0.950 . S
C312 C308 1.385 . S
C312 C311 1.374 . S
C313 C310 1.499 . S
C313 C314 1.373 . S
C313 C315 1.389 . S
C314 H287 0.950 . S
C314 C300 1.377 . S
C314 C313 1.373 . S
C315 C299 1.377 . S
C315 C313 1.389 . S
C315 C316 1.524 . S
C316 C315 1.524 . S
C316 C317 1.397 . S
C316 C321 1.363 . S
C317 H288 0.950 . S
C317 C316 1.397 . S
C317 C318 1.334 . S
C318 H289 0.950 . S
C318 C317 1.334 . S
C318 C319 1.287 . S
C319 C318 1.287 . S
C319 C320 1.524 . S
C319 H322 0.999 . S
C320 H290 0.950 . S
C320 C319 1.524 . S
C320 C321 1.415 . S
C321 H291 0.950 . S
C321 C316 1.363 . S
C321 C320 1.415 . S
H322 C319 0.999 . S
H323 C304 0.913 . S
H324 C342 0.951 . S
H325 C344 0.951 . S
H326 C346 0.950 . S
H327 C347 0.950 . S
H328 C349 0.950 . S
H329 C352 0.950 . S
H330 C353 0.950 . S
H331 C355 0.950 . S
H332 C356 0.950 . S
H333 C357 0.951 . S
H334 C359 0.951 . S
H335 C361 0.950 . S
H336 C362 0.950 . S
H337 C364 0.950 . S
H338 C367 0.950 . S
H339 C368 0.950 . S
H340 C370 0.950 . S
H341 C371 0.950 . S
C342 H324 0.951 . S
C342 C343 1.366 . S
C342 C344 1.388 . S
C343 C342 1.366 . S
C343 C347 1.385 . S
C344 H325 0.951 . S
C344 C342 1.388 . S
C344 C345 1.366 . S
C345 C344 1.366 . S
C345 C346 1.414 . S
C345 C348 1.499 . S
C346 H326 0.950 . S
C346 C345 1.414 . S
C346 C347 1.374 . S
C347 H327 0.950 . S
C347 C343 1.385 . S
C347 C346 1.374 . S
C348 C345 1.499 . S
C348 C349 1.373 . S
C348 C350 1.389 . S
C349 H328 0.950 . S
C349 C348 1.373 . S
C349 C365 1.377 . S
C350 C348 1.389 . S
C350 C351 1.524 . S
C350 C364 1.377 . S
C351 C350 1.524 . S
C351 C352 1.397 . S
C351 C356 1.363 . S
C352 H329 0.950 . S
C352 C351 1.397 . S
C352 C353 1.334 . S
C353 H330 0.950 . S
C353 C352 1.334 . S
C353 C354 1.287 . S
C354 C353 1.287 . S
C354 C355 1.524 . S
C354 H373 0.913 . S
C355 H331 0.950 . S
C355 C354 1.524 . S
C355 C356 1.415 . S
C356 H332 0.950 . S
C356 C351 1.363 . S
C356 C355 1.415 . S
C357 H333 0.951 . S
C357 C358 1.366 . S
C357 C359 1.388 . S
C358 C357 1.366 . S
C358 C362 1.385 . S
C359 H334 0.951 . S
C359 C357 1.388 . S
C359 C360 1.366 . S
C360 C359 1.366 . S
C360 C361 1.414 . S
C360 C363 1.499 . S
C361 H335 0.950 . S
C361 C360 1.414 . S
C361 C362 1.374 . S
C362 H336 0.950 . S
C362 C358 1.385 . S
C362 C361 1.374 . S
C363 C360 1.499 . S
C363 C364 1.373 . S
C363 C365 1.389 . S
C364 H337 0.950 . S
C364 C350 1.377 . S
C364 C363 1.373 . S
C365 C349 1.377 . S
C365 C363 1.389 . S
C365 C366 1.524 . S
C366 C365 1.524 . S
C366 C367 1.397 . S
C366 C371 1.363 . S
C367 H338 0.950 . S
C367 C366 1.397 . S
C367 C368 1.334 . S
C368 H339 0.950 . S
C368 C367 1.334 . S
C368 C369 1.287 . S
C369 C368 1.287 . S
C369 C370 1.524 . S
C369 H372 0.999 . S
C370 H340 0.950 . S
C370 C369 1.524 . S
C370 C371 1.415 . S
C371 H341 0.950 . S
C371 C366 1.363 . S
C371 C370 1.415 . S
H372 C369 0.999 . S
H373 C354 0.913 . S
H374 C392 0.951 . S
H375 C394 0.951 . S
H376 C396 0.950 . S
H377 C397 0.950 . S
H378 C399 0.950 . S
H379 C402 0.950 . S
H380 C403 0.950 . S
H381 C405 0.950 . S
H382 C406 0.950 . S
H383 C407 0.951 . S
H384 C409 0.951 . S
H385 C411 0.950 . S
H386 C412 0.950 . S
H387 C414 0.950 . S
H388 C417 0.950 . S
H389 C418 0.950 . S
H390 C420 0.950 . S
H391 C421 0.950 . S
C392 H374 0.951 . S
C392 C393 1.366 . S
C392 C394 1.388 . S
C393 C392 1.366 . S
C393 C397 1.385 . S
C394 H375 0.951 . S
C394 C392 1.388 . S
C394 C395 1.366 . S
C395 C394 1.366 . S
C395 C396 1.414 . S
C395 C398 1.499 . S
C396 H376 0.950 . S
C396 C395 1.414 . S
C396 C397 1.374 . S
C397 H377 0.950 . S
C397 C393 1.385 . S
C397 C396 1.374 . S
C398 C395 1.499 . S
C398 C399 1.373 . S
C398 C400 1.389 . S
C399 H378 0.950 . S
C399 C398 1.373 . S
C399 C415 1.377 . S
C400 C398 1.389 . S
C400 C401 1.524 . S
C400 C414 1.377 . S
C401 C400 1.524 . S
C401 C402 1.397 . S
C401 C406 1.363 . S
C402 H379 0.950 . S
C402 C401 1.397 . S
C402 C403 1.334 . S
C403 H380 0.950 . S
C403 C402 1.334 . S
C403 C404 1.287 . S
C404 C403 1.287 . S
C404 C405 1.524 . S
C404 H423 0.913 . S
C405 H381 0.950 . S
C405 C404 1.524 . S
C405 C406 1.415 . S
C406 H382 0.950 . S
C406 C401 1.363 . S
C406 C405 1.415 . S
C407 H383 0.951 . S
C407 C408 1.366 . S
C407 C409 1.388 . S
C408 C407 1.366 . S
C408 C412 1.385 . S
C409 H384 0.951 . S
C409 C407 1.388 . S
C409 C410 1.366 . S
C410 C409 1.366 . S
C410 C411 1.414 . S
C410 C413 1.499 . S
C411 H385 0.950 . S
C411 C410 1.414 . S
C411 C412 1.374 . S
C412 H386 0.950 . S
C412 C408 1.385 . S
C412 C411 1.374 . S
C413 C410 1.499 . S
C413 C414 1.373 . S
C413 C415 1.389 . S
C414 H387 0.950 . S
C414 C400 1.377 . S
C414 C413 1.373 . S
C415 C399 1.377 . S
C415 C413 1.389 . S
C415 C416 1.524 . S
C416 C415 1.524 . S
C416 C417 1.397 . S
C416 C421 1.363 . S
C417 H388 0.950 . S
C417 C416 1.397 . S
C417 C418 1.334 . S
C418 H389 0.950 . S
C418 C417 1.334 . S
C418 C419 1.287 . S
C419 C418 1.287 . S
C419 C420 1.524 . S
C419 H422 0.999 . S
C420 H390 0.950 . S
C420 C419 1.524 . S
C420 C421 1.415 . S
C421 H391 0.950 . S
C421 C416 1.363 . S
C421 C420 1.415 . S
H422 C419 0.999 . S
H423 C404 0.913 . S
H424 C442 0.951 . S
H425 C444 0.951 . S
H426 C446 0.950 . S
H427 C447 0.950 . S
H428 C449 0.950 . S
H429 C452 0.950 . S
H430 C453 0.950 . S
H431 C455 0.950 . S
H432 C456 0.950 . S
H433 C457 0.951 . S
H434 C459 0.951 1_554 S
H435 C461 0.950 . S
H436 C462 0.950 . S
H437 C464 0.950 . S
H438 C467 0.950 . S
H439 C468 0.950 . S
H440 C470 0.950 . S
H441 C471 0.950 1_554 S
C442 H424 0.951 . S
C442 C443 1.366 . S
C442 C444 1.388 1_565 S
C443 C442 1.366 . S
C443 C447 1.385 . S
C444 H425 0.951 . S
C444 C442 1.388 1_545 S
C444 C445 1.366 . S
C445 C444 1.366 . S
C445 C446 1.414 . S
C445 C448 1.499 . S
C446 H426 0.950 . S
C446 C445 1.414 . S
C446 C447 1.374 1_545 S
C447 H427 0.950 . S
C447 C443 1.385 . S
C447 C446 1.374 1_565 S
C448 C445 1.499 . S
C448 C449 1.373 . S
C448 C450 1.389 . S
C449 H428 0.950 . S
C449 C448 1.373 . S
C449 C465 1.377 1_554 S
C450 C448 1.389 . S
C450 C451 1.524 . S
C450 C464 1.377 . S
C451 C450 1.524 . S
C451 C452 1.397 . S
C451 C456 1.363 . S
C452 H429 0.950 . S
C452 C451 1.397 . S
C452 C453 1.334 . S
C453 H430 0.950 . S
C453 C452 1.334 . S
C453 C454 1.287 . S
C454 C453 1.287 . S
C454 C455 1.524 . S
C454 H473 0.913 . S
C455 H431 0.950 . S
C455 C454 1.524 . S
C455 C456 1.415 . S
C456 H432 0.950 . S
C456 C451 1.363 . S
C456 C455 1.415 . S
C457 H433 0.951 . S
C457 C458 1.366 . S
C457 C459 1.388 . S
C458 C457 1.366 . S
C458 C462 1.385 . S
C459 H434 0.951 1_556 S
C459 C457 1.388 . S
C459 C460 1.366 . S
C460 C459 1.366 . S
C460 C461 1.414 . S
C460 C463 1.499 . S
C461 H435 0.950 . S
C461 C460 1.414 . S
C461 C462 1.374 . S
C462 H436 0.950 . S
C462 C458 1.385 . S
C462 C461 1.374 . S
C463 C460 1.499 . S
C463 C464 1.373 1_556 S
C463 C465 1.389 . S
C464 H437 0.950 . S
C464 C450 1.377 . S
C464 C463 1.373 1_554 S
C465 C449 1.377 1_556 S
C465 C463 1.389 . S
C465 C466 1.524 . S
C466 C465 1.524 . S
C466 C467 1.397 . S
C466 C471 1.363 . S
C467 H438 0.950 . S
C467 C466 1.397 . S
C467 C468 1.334 . S
C468 H439 0.950 . S
C468 C467 1.334 . S
C468 C469 1.287 . S
C469 C468 1.287 . S
C469 C470 1.524 . S
C469 H472 0.999 . S
C470 H440 0.950 . S
C470 C469 1.524 . S
C470 C471 1.415 . S
C471 H441 0.950 1_556 S
C471 C466 1.363 . S
C471 C470 1.415 . S
H472 C469 0.999 . S
H473 C454 0.913 . S
H474 C492 0.951 . S
H475 C494 0.912 1_556 S
H476 C496 0.950 . S
H477 C497 0.950 . S
H478 C499 0.950 . S
H479 C502 0.950 . S
H480 C503 0.950 . S
H481 C505 0.950 . S
H482 C506 0.950 . S
H483 C507 0.951 . S
H484 C509 0.951 1_554 S
H485 C511 0.950 . S
H486 C512 0.950 . S
H487 C514 0.950 . S
H488 C517 0.950 . S
H489 C518 0.950 . S
H490 C520 0.950 . S
H491 C521 0.950 . S
C492 H474 0.951 . S
C492 C493 1.366 . S
C492 C494 1.405 . S
C493 C492 1.366 . S
C493 C497 1.385 . S
C494 H475 0.912 1_554 S
C494 C492 1.405 . S
C494 C495 1.388 . S
C495 C494 1.388 . S
C495 C496 1.414 . S
C495 C498 1.499 . S
C496 H476 0.950 . S
C496 C495 1.414 . S
C496 C497 1.374 . S
C497 H477 0.950 . S
C497 C493 1.385 . S
C497 C496 1.374 . S
C498 C495 1.499 . S
C498 C499 1.373 . S
C498 C500 1.389 1_554 S
C499 H478 0.950 . S
C499 C498 1.373 . S
C499 C515 1.377 . S
C500 C498 1.389 1_556 S
C500 C501 1.524 . S
C500 C514 1.377 . S
C501 C500 1.524 . S
C501 C502 1.397 . S
C501 C506 1.363 . S
C502 H479 0.950 . S
C502 C501 1.397 . S
C502 C503 1.334 . S
C503 H480 0.950 . S
C503 C502 1.334 . S
C503 C504 1.287 . S
C504 C503 1.287 . S
C504 C505 1.524 . S
C504 H523 0.913 . S
C505 H481 0.950 . S
C505 C504 1.524 . S
C505 C506 1.415 . S
C506 H482 0.950 . S
C506 C501 1.363 . S
C506 C505 1.415 . S
C507 H483 0.951 . S
C507 C508 1.366 . S
C507 C509 1.388 1_655 S
C508 C507 1.366 . S
C508 C512 1.385 1_655 S
C509 H484 0.951 1_556 S
C509 C507 1.388 1_455 S
C509 C510 1.366 . S
C510 C509 1.366 . S
C510 C511 1.414 . S
C510 C513 1.499 . S
C511 H485 0.950 . S
C511 C510 1.414 . S
C511 C512 1.374 . S
C512 H486 0.950 . S
C512 C508 1.385 1_455 S
C512 C511 1.374 . S
C513 C510 1.499 . S
C513 C514 1.373 . S
C513 C515 1.389 1_556 S
C514 H487 0.950 . S
C514 C500 1.377 . S
C514 C513 1.373 . S
C515 C499 1.377 . S
C515 C513 1.389 1_554 S
C515 C516 1.524 . S
C516 C515 1.524 . S
C516 C517 1.397 . S
C516 C521 1.363 . S
C517 H488 0.950 . S
C517 C516 1.397 . S
C517 C518 1.334 . S
C518 H489 0.950 . S
C518 C517 1.334 . S
C518 C519 1.287 . S
C519 C518 1.287 . S
C519 C520 1.524 . S
C519 H522 0.999 . S
C520 H490 0.950 . S
C520 C519 1.524 . S
C520 C521 1.415 . S
C521 H491 0.950 . S
C521 C516 1.363 . S
C521 C520 1.415 . S
H522 C519 0.999 . S
H523 C504 0.913 . S
H524 C542 0.951 . S
H525 C544 0.951 . S
H526 C546 0.950 . S
H527 C547 0.950 . S
H528 C549 0.950 . S
H529 C552 0.950 . S
H530 C553 0.950 . S
H531 C555 0.950 . S
H532 C556 0.950 . S
H533 C557 0.951 . S
H534 C559 0.951 . S
H535 C561 0.950 . S
H536 C562 0.950 . S
H537 C564 0.946 1_556 S
H538 C567 0.950 . S
H539 C568 0.950 . S
H540 C570 0.950 . S
H541 C571 0.950 . S
C542 H524 0.951 . S
C542 C543 1.366 . S
C542 C544 1.388 . S
C543 C542 1.366 . S
C543 C547 1.385 . S
C544 H525 0.951 . S
C544 C542 1.388 . S
C544 C545 1.366 . S
C545 C544 1.366 . S
C545 C546 1.414 . S
C545 C548 1.499 . S
C546 H526 0.950 . S
C546 C545 1.414 . S
C546 C547 1.374 . S
C547 H527 0.950 . S
C547 C543 1.385 . S
C547 C546 1.374 . S
C548 C545 1.499 . S
C548 C549 1.373 1_556 S
C548 C550 1.389 . S
C549 H528 0.950 . S
C549 C548 1.373 1_554 S
C549 C565 1.377 . S
C550 C548 1.389 . S
C550 C551 1.524 . S
C550 C564 1.377 1_556 S
C551 C550 1.524 . S
C551 C552 1.397 . S
C551 C556 1.363 . S
C552 H529 0.950 . S
C552 C551 1.397 . S
C552 C553 1.334 . S
C553 H530 0.950 . S
C553 C552 1.334 . S
C553 C554 1.287 . S
C554 C553 1.287 . S
C554 C555 1.524 . S
C554 H573 0.913 . S
C555 H531 0.950 . S
C555 C554 1.524 . S
C555 C556 1.415 . S
C556 H532 0.950 . S
C556 C551 1.363 . S
C556 C555 1.415 . S
C557 H533 0.951 . S
C557 C558 1.366 . S
C557 C559 1.388 1_545 S
C558 C557 1.366 . S
C558 C562 1.385 1_545 S
C559 H534 0.951 . S
C559 C557 1.388 1_565 S
C559 C560 1.366 . S
C560 C559 1.366 . S
C560 C561 1.414 . S
C560 C563 1.499 . S
C561 H535 0.950 . S
C561 C560 1.414 . S
C561 C562 1.374 . S
C562 H536 0.950 . S
C562 C558 1.385 1_565 S
C562 C561 1.374 . S
C563 C560 1.499 . S
C563 C564 1.373 . S
C563 C565 1.389 . S
C564 H537 0.946 1_554 S
C564 C550 1.377 1_554 S
C564 C563 1.373 . S
C565 C549 1.377 . S
C565 C563 1.389 . S
C565 C566 1.524 . S
C566 C565 1.524 . S
C566 C567 1.397 . S
C566 C571 1.363 . S
C567 H538 0.950 . S
C567 C566 1.397 . S
C567 C568 1.334 . S
C568 H539 0.950 . S
C568 C567 1.334 . S
C568 C569 1.287 . S
C569 C568 1.287 . S
C569 C570 1.524 . S
C569 H572 0.999 . S
C570 H540 0.950 . S
C570 C569 1.524 . S
C570 C571 1.415 . S
C571 H541 0.950 . S
C571 C566 1.363 . S
C571 C570 1.415 . S
H572 C569 0.999 . S
H573 C554 0.913 . S
H574 C592 0.983 . S
H575 C594 0.889 1_556 S
H576 C596 0.950 . S
H577 C597 0.950 . S
H578 C599 0.950 . S
H579 C602 0.950 . S
H580 C603 0.950 . S
H581 C605 0.950 . S
H582 C606 0.950 . S
H583 C607 0.951 . S
H584 C609 0.951 1_554 S
H585 C611 0.950 . S
H586 C612 0.950 . S
H587 C614 0.950 . S
H588 C617 0.950 . S
H589 C618 0.950 . S
H590 C620 0.950 . S
H591 C621 0.950 . S
C592 H574 0.983 . S
C592 C593 1.366 . S
C592 C594 1.414 . S
C593 C592 1.366 . S
C593 C597 1.385 . S
C594 H575 0.889 1_554 S
C594 C592 1.414 . S
C594 C595 1.404 . S
C595 C594 1.404 . S
C595 C596 1.414 . S
C595 C598 1.499 . S
C596 H576 0.950 . S
C596 C595 1.414 . S
C596 C597 1.374 . S
C597 H577 0.950 . S
C597 C593 1.385 . S
C597 C596 1.374 . S
C598 C595 1.499 . S
C598 C599 1.373 . S
C598 C600 1.389 1_554 S
C599 H578 0.950 . S
C599 C598 1.373 . S
C599 C615 1.377 1_554 S
C600 C598 1.389 1_556 S
C600 C601 1.518 1_556 S
C600 C614 1.377 . S
C601 C600 1.518 1_554 S
C601 C602 1.443 . S
C601 C606 1.326 1_554 S
C602 H579 0.950 . S
C602 C601 1.443 . S
C602 C603 1.334 . S
C603 H580 0.950 . S
C603 C602 1.334 . S
C603 C604 1.287 . S
C604 C603 1.287 . S
C604 C605 1.524 1_554 S
C604 H623 0.913 . S
C605 H581 0.950 . S
C605 C604 1.524 1_556 S
C605 C606 1.415 . S
C606 H582 0.950 . S
C606 C601 1.326 1_556 S
C606 C605 1.415 . S
C607 H583 0.951 . S
C607 C608 1.366 . S
C607 C609 1.388 1_455 S
C608 C607 1.366 . S
C608 C612 1.385 . S
C609 H584 0.951 1_556 S
C609 C607 1.388 1_655 S
C609 C610 1.366 . S
C610 C609 1.366 . S
C610 C611 1.414 . S
C610 C613 1.499 . S
C611 H585 0.950 . S
C611 C610 1.414 . S
C611 C612 1.374 1_655 S
C612 H586 0.950 . S
C612 C608 1.385 . S
C612 C611 1.374 1_455 S
C613 C610 1.499 . S
C613 C614 1.373 . S
C613 C615 1.389 . S
C614 H587 0.950 . S
C614 C600 1.377 . S
C614 C613 1.373 . S
C615 C599 1.377 1_556 S
C615 C613 1.389 . S
C615 C616 1.524 . S
C616 C615 1.524 . S
C616 C617 1.397 . S
C616 C621 1.363 1_556 S
C617 H588 0.950 . S
C617 C616 1.397 . S
C617 C618 1.334 . S
C618 H589 0.950 . S
C618 C617 1.334 . S
C618 C619 1.287 . S
C619 C618 1.287 . S
C619 C620 1.524 1_556 S
C619 H622 0.999 . S
C620 H590 0.950 . S
C620 C619 1.524 1_554 S
C620 C621 1.415 . S
C621 H591 0.950 . S
C621 C616 1.363 1_554 S
C621 C620 1.415 . S
H622 C619 0.999 . S
H623 C604 0.913 . S
H624 C642 0.951 . S
H625 C644 0.951 . S
H626 C646 0.950 . S
H627 C647 0.950 . S
H628 C649 0.950 . S
H629 C652 0.950 . S
H630 C653 0.950 . S
H631 C655 0.950 . S
H632 C656 0.950 . S
H633 C657 0.951 . S
H634 C659 0.951 . S
H635 C661 0.950 . S
H636 C662 0.950 . S
H637 C664 0.950 . S
H638 C667 0.950 . S
H639 C668 0.950 . S
H640 C670 0.950 . S
H641 C671 0.950 . S
C642 H624 0.951 . S
C642 C643 1.366 . S
C642 C644 1.388 . S
C643 C642 1.366 . S
C643 C647 1.385 . S
C644 H625 0.951 . S
C644 C642 1.388 . S
C644 C645 1.366 . S
C645 C644 1.366 . S
C645 C646 1.414 . S
C645 C648 1.499 . S
C646 H626 0.950 . S
C646 C645 1.414 . S
C646 C647 1.374 . S
C647 H627 0.950 . S
C647 C643 1.385 . S
C647 C646 1.374 . S
C648 C645 1.499 . S
C648 C649 1.373 . S
C648 C650 1.389 . S
C649 H628 0.950 . S
C649 C648 1.373 . S
C649 C665 1.377 . S
C650 C648 1.389 . S
C650 C651 1.524 . S
C650 C664 1.377 . S
C651 C650 1.524 . S
C651 C652 1.397 . S
C651 C656 1.363 . S
C652 H629 0.950 . S
C652 C651 1.397 . S
C652 C653 1.334 . S
C653 H630 0.950 . S
C653 C652 1.334 . S
C653 C654 1.287 . S
C654 C653 1.287 . S
C654 C655 1.524 . S
C654 H673 0.913 . S
C655 H631 0.950 . S
C655 C654 1.524 . S
C655 C656 1.415 . S
C656 H632 0.950 . S
C656 C651 1.363 . S
C656 C655 1.415 . S
C657 H633 0.951 . S
C657 C658 1.366 . S
C657 C659 1.388 1_545 S
C658 C657 1.366 . S
C658 C662 1.385 . S
C659 H634 0.951 . S
C659 C657 1.388 1_565 S
C659 C660 1.366 . S
C660 C659 1.366 . S
C660 C661 1.414 . S
C660 C663 1.499 . S
C661 H635 0.950 . S
C661 C660 1.414 . S
C661 C662 1.374 1_565 S
C662 H636 0.950 . S
C662 C658 1.385 . S
C662 C661 1.374 1_545 S
C663 C660 1.499 . S
C663 C664 1.373 . S
C663 C665 1.389 . S
C664 H637 0.950 . S
C664 C650 1.377 . S
C664 C663 1.373 . S
C665 C649 1.377 . S
C665 C663 1.389 . S
C665 C666 1.524 . S
C666 C665 1.524 . S
C666 C667 1.397 . S
C666 C671 1.363 . S
C667 H638 0.950 . S
C667 C666 1.397 . S
C667 C668 1.334 . S
C668 H639 0.950 . S
C668 C667 1.334 . S
C668 C669 1.287 . S
C669 C668 1.287 . S
C669 C670 1.524 . S
C669 H672 0.999 . S
C670 H640 0.950 . S
C670 C669 1.524 . S
C670 C671 1.415 . S
C671 H641 0.950 . S
C671 C666 1.363 . S
C671 C670 1.415 . S
H672 C669 0.999 . S
H673 C654 0.913 . S
H674 C692 0.951 . S
H675 C694 0.951 . S
H676 C696 0.950 . S
H677 C697 0.951 . S
H678 C699 0.950 . S
H679 C702 0.950 . S
H680 C703 0.950 . S
H681 C705 0.950 . S
H682 C706 0.950 . S
H683 C707 0.951 . S
H684 C709 0.951 . S
H685 C711 0.950 . S
H686 C712 0.950 . S
H687 C714 0.950 . S
H688 C717 0.950 . S
H689 C718 0.950 . S
H690 C720 0.950 . S
H691 C721 0.950 . S
C692 H674 0.951 . S
C692 C693 1.366 . S
C692 C694 1.388 1_455 S
C693 C692 1.366 . S
C693 C697 1.387 . S
C694 H675 0.951 . S
C694 C692 1.388 1_655 S
C694 C695 1.366 . S
C695 C694 1.366 . S
C695 C696 1.414 . S
C695 C698 1.499 . S
C696 H676 0.950 . S
C696 C695 1.414 . S
C696 C697 1.371 1_655 S
C697 H677 0.951 . S
C697 C693 1.387 . S
C697 C696 1.371 1_455 S
C698 C695 1.499 . S
C698 C699 1.373 . S
C698 C700 1.389 . S
C699 H678 0.950 . S
C699 C698 1.373 . S
C699 C715 1.377 . S
C700 C698 1.389 . S
C700 C701 1.524 . S
C700 C714 1.377 . S
C701 C700 1.524 . S
C701 C702 1.397 . S
C701 C706 1.363 . S
C702 H679 0.950 . S
C702 C701 1.397 . S
C702 C703 1.334 1_655 S
C703 H680 0.950 . S
C703 C702 1.334 1_455 S
C703 C704 1.287 . S
C704 C703 1.287 . S
C704 C705 1.524 1_455 S
C704 H723 0.913 . S
C705 H681 0.950 . S
C705 C704 1.524 1_655 S
C705 C706 1.415 . S
C706 H682 0.950 . S
C706 C701 1.363 . S
C706 C705 1.415 . S
C707 H683 0.951 . S
C707 C708 1.366 . S
C707 C709 1.388 . S
C708 C707 1.366 . S
C708 C712 1.385 . S
C709 H684 0.951 . S
C709 C707 1.388 . S
C709 C710 1.366 . S
C710 C709 1.366 . S
C710 C711 1.414 . S
C710 C713 1.499 . S
C711 H685 0.950 . S
C711 C710 1.414 . S
C711 C712 1.374 . S
C712 H686 0.950 . S
C712 C708 1.385 . S
C712 C711 1.374 . S
C713 C710 1.499 . S
C713 C714 1.373 . S
C713 C715 1.389 . S
C714 H687 0.950 . S
C714 C700 1.377 . S
C714 C713 1.373 . S
C715 C699 1.377 . S
C715 C713 1.389 . S
C715 C716 1.524 . S
C716 C715 1.524 . S
C716 C717 1.397 . S
C716 C721 1.363 . S
C717 H688 0.950 . S
C717 C716 1.397 . S
C717 C718 1.334 . S
C718 H689 0.950 . S
C718 C717 1.334 . S
C718 C719 1.287 . S
C719 C718 1.287 . S
C719 C720 1.524 . S
C719 H722 0.999 . S
C720 H690 0.950 . S
C720 C719 1.524 . S
C720 C721 1.415 . S
C721 H691 0.950 . S
C721 C716 1.363 . S
C721 C720 1.415 . S
H722 C719 0.999 . S
H723 C704 0.913 . S
H724 C742 0.951 . S
H725 C744 0.951 . S
H726 C746 0.950 . S
H727 C747 0.950 . S
H728 C749 0.950 . S
H729 C752 0.950 . S
H730 C753 0.950 1_565 S
H731 C755 0.960 . S
H732 C756 0.950 . S
H733 C757 0.951 . S
H734 C759 0.951 . S
H735 C761 0.950 . S
H736 C762 0.950 . S
H737 C764 0.950 . S
H738 C767 0.950 . S
H739 C768 0.950 . S
H740 C770 0.950 . S
H741 C771 0.950 . S
C742 H724 0.951 . S
C742 C743 1.366 . S
C742 C744 1.388 1_565 S
C743 C742 1.366 . S
C743 C747 1.385 1_565 S
C744 H725 0.951 . S
C744 C742 1.388 1_545 S
C744 C745 1.366 . S
C745 C744 1.366 . S
C745 C746 1.414 . S
C745 C748 1.499 . S
C746 H726 0.950 . S
C746 C745 1.414 . S
C746 C747 1.374 . S
C747 H727 0.950 . S
C747 C743 1.385 1_545 S
C747 C746 1.374 . S
C748 C745 1.499 . S
C748 C749 1.373 . S
C748 C750 1.389 . S
C749 H728 0.950 . S
C749 C748 1.373 . S
C749 C765 1.377 . S
C750 C748 1.389 . S
C750 C751 1.524 . S
C750 C764 1.377 . S
C751 C750 1.524 . S
C751 C752 1.397 . S
C751 C756 1.363 . S
C752 H729 0.950 . S
C752 C751 1.397 . S
C752 C753 1.334 . S
C753 H730 0.950 1_545 S
C753 C752 1.334 . S
C753 C754 1.287 1_545 S
C754 C753 1.287 1_565 S
C754 C755 1.524 1_565 S
C754 H773 0.913 . S
C755 H731 0.960 . S
C755 C754 1.524 1_545 S
C755 C756 1.415 . S
C756 H732 0.950 . S
C756 C751 1.363 . S
C756 C755 1.415 . S
C757 H733 0.951 . S
C757 C758 1.366 . S
C757 C759 1.388 . S
C758 C757 1.366 . S
C758 C762 1.385 . S
C759 H734 0.951 . S
C759 C757 1.388 . S
C759 C760 1.366 . S
C760 C759 1.366 . S
C760 C761 1.414 . S
C760 C763 1.499 . S
C761 H735 0.950 . S
C761 C760 1.414 . S
C761 C762 1.374 . S
C762 H736 0.950 . S
C762 C758 1.385 . S
C762 C761 1.374 . S
C763 C760 1.499 . S
C763 C764 1.373 . S
C763 C765 1.389 . S
C764 H737 0.950 . S
C764 C750 1.377 . S
C764 C763 1.373 . S
C765 C749 1.377 . S
C765 C763 1.389 . S
C765 C766 1.524 . S
C766 C765 1.524 . S
C766 C767 1.397 . S
C766 C771 1.363 . S
C767 H738 0.950 . S
C767 C766 1.397 . S
C767 C768 1.334 . S
C768 H739 0.950 . S
C768 C767 1.334 . S
C768 C769 1.287 . S
C769 C768 1.287 . S
C769 C770 1.524 . S
C769 H772 0.999 . S
C770 H740 0.950 . S
C770 C769 1.524 . S
C770 C771 1.415 . S
C771 H741 0.950 . S
C771 C766 1.363 . S
C771 C770 1.415 . S
H772 C769 0.999 . S
H773 C754 0.913 . S
H774 C792 0.947 1_655 S
H775 C794 0.951 . S
H776 C796 0.950 . S
H777 C797 0.950 . S
H778 C799 0.950 . S
H779 C802 0.950 . S
H780 C803 0.950 . S
H781 C805 0.950 . S
H782 C806 0.950 . S
H783 C807 0.951 . S
H784 C809 0.951 . S
H785 C811 0.950 . S
H786 C812 0.950 . S
H787 C814 0.950 . S
H788 C817 0.950 . S
H789 C818 0.950 . S
H790 C820 0.950 . S
H791 C821 0.950 . S
C792 H774 0.947 1_455 S
C792 C793 1.348 1_455 S
C792 C794 1.410 . S
C793 C792 1.348 1_655 S
C793 C797 1.385 . S
C794 H775 0.951 . S
C794 C792 1.410 . S
C794 C795 1.366 . S
C795 C794 1.366 . S
C795 C796 1.414 . S
C795 C798 1.499 . S
C796 H776 0.950 . S
C796 C795 1.414 . S
C796 C797 1.374 1_455 S
C797 H777 0.950 . S
C797 C793 1.385 . S
C797 C796 1.374 1_655 S
C798 C795 1.499 . S
C798 C799 1.373 . S
C798 C800 1.389 . S
C799 H778 0.950 . S
C799 C798 1.373 . S
C799 C815 1.377 . S
C800 C798 1.389 . S
C800 C801 1.524 . S
C800 C814 1.377 . S
C801 C800 1.524 . S
C801 C802 1.397 . S
C801 C806 1.363 . S
C802 H779 0.950 . S
C802 C801 1.397 . S
C802 C803 1.334 . S
C803 H780 0.950 . S
C803 C802 1.334 . S
C803 C804 1.287 . S
C804 C803 1.287 . S
C804 C805 1.524 . S
C804 H823 0.913 . S
C805 H781 0.950 . S
C805 C804 1.524 . S
C805 C806 1.415 . S
C806 H782 0.950 . S
C806 C801 1.363 . S
C806 C805 1.415 . S
C807 H783 0.951 . S
C807 C808 1.366 . S
C807 C809 1.388 . S
C808 C807 1.366 . S
C808 C812 1.385 . S
C809 H784 0.951 . S
C809 C807 1.388 . S
C809 C810 1.366 . S
C810 C809 1.366 . S
C810 C811 1.414 . S
C810 C813 1.499 . S
C811 H785 0.950 . S
C811 C810 1.414 . S
C811 C812 1.374 . S
C812 H786 0.950 . S
C812 C808 1.385 . S
C812 C811 1.374 . S
C813 C810 1.499 . S
C813 C814 1.373 . S
C813 C815 1.389 . S
C814 H787 0.950 . S
C814 C800 1.377 . S
C814 C813 1.373 . S
C815 C799 1.377 . S
C815 C813 1.389 . S
C815 C816 1.524 . S
C816 C815 1.524 . S
C816 C817 1.397 . S
C816 C821 1.363 . S
C817 H788 0.950 . S
C817 C816 1.397 . S
C817 C818 1.334 . S
C818 H789 0.950 . S
C818 C817 1.334 . S
C818 C819 1.287 . S
C819 C818 1.287 . S
C819 C820 1.524 . S
C819 H822 0.999 . S
C820 H790 0.950 . S
C820 C819 1.524 . S
C820 C821 1.415 . S
C821 H791 0.950 . S
C821 C816 1.363 . S
C821 C820 1.415 . S
H822 C819 0.999 . S
H823 C804 0.913 . S
H824 C842 0.951 . S
H825 C844 0.951 . S
H826 C846 0.950 . S
H827 C847 0.950 . S
H828 C849 0.950 . S
H829 C852 0.950 . S
H830 C853 0.950 . S
H831 C855 0.950 . S
H832 C856 0.950 . S
H833 C857 0.951 . S
H834 C859 0.951 . S
H835 C861 0.950 . S
H836 C862 0.950 . S
H837 C864 0.950 . S
H838 C867 0.950 . S
H839 C868 0.950 . S
H840 C870 0.950 . S
H841 C871 0.950 . S
C842 H824 0.951 . S
C842 C843 1.366 . S
C842 C844 1.388 . S
C843 C842 1.366 . S
C843 C847 1.385 . S
C844 H825 0.951 . S
C844 C842 1.388 . S
C844 C845 1.366 . S
C845 C844 1.366 . S
C845 C846 1.414 . S
C845 C848 1.499 . S
C846 H826 0.950 . S
C846 C845 1.414 . S
C846 C847 1.374 . S
C847 H827 0.950 . S
C847 C843 1.385 . S
C847 C846 1.374 . S
C848 C845 1.499 . S
C848 C849 1.373 . S
C848 C850 1.389 . S
C849 H828 0.950 . S
C849 C848 1.373 . S
C849 C865 1.377 . S
C850 C848 1.389 . S
C850 C851 1.524 . S
C850 C864 1.377 . S
C851 C850 1.524 . S
C851 C852 1.397 . S
C851 C856 1.363 . S
C852 H829 0.950 . S
C852 C851 1.397 . S
C852 C853 1.334 . S
C853 H830 0.950 . S
C853 C852 1.334 . S
C853 C854 1.287 . S
C854 C853 1.287 . S
C854 C855 1.524 . S
C854 H873 0.913 . S
C855 H831 0.950 . S
C855 C854 1.524 . S
C855 C856 1.415 . S
C856 H832 0.950 . S
C856 C851 1.363 . S
C856 C855 1.415 . S
C857 H833 0.951 . S
C857 C858 1.366 . S
C857 C859 1.388 . S
C858 C857 1.366 . S
C858 C862 1.385 . S
C859 H834 0.951 . S
C859 C857 1.388 . S
C859 C860 1.366 . S
C860 C859 1.366 . S
C860 C861 1.414 . S
C860 C863 1.499 . S
C861 H835 0.950 . S
C861 C860 1.414 . S
C861 C862 1.374 . S
C862 H836 0.950 . S
C862 C858 1.385 . S
C862 C861 1.374 . S
C863 C860 1.499 . S
C863 C864 1.373 . S
C863 C865 1.389 . S
C864 H837 0.950 . S
C864 C850 1.377 . S
C864 C863 1.373 . S
C865 C849 1.377 . S
C865 C863 1.389 . S
C865 C866 1.524 . S
C866 C865 1.524 . S
C866 C867 1.397 . S
C866 C871 1.363 . S
C867 H838 0.950 . S
C867 C866 1.397 . S
C867 C868 1.334 . S
C868 H839 0.950 . S
C868 C867 1.334 . S
C868 C869 1.287 . S
C869 C868 1.287 . S
C869 C870 1.524 . S
C869 H872 0.999 . S
C870 H840 0.950 . S
C870 C869 1.524 . S
C870 C871 1.415 . S
C871 H841 0.950 . S
C871 C866 1.363 . S
C871 C870 1.415 . S
H872 C869 0.999 . S
H873 C854 0.913 . S
H874 C892 0.951 . S
H875 C894 0.951 . S
H876 C896 0.950 . S
H877 C897 0.950 . S
H878 C899 0.950 . S
H879 C902 0.950 . S
H880 C903 0.950 . S
H881 C905 0.950 . S
H882 C906 0.950 . S
H883 C907 0.951 . S
H884 C909 0.951 . S
H885 C911 0.950 . S
H886 C912 0.950 . S
H887 C914 0.950 . S
H888 C917 0.950 . S
H889 C918 0.950 . S
H890 C920 0.950 . S
H891 C921 0.950 . S
C892 H874 0.951 . S
C892 C893 1.366 . S
C892 C894 1.388 . S
C893 C892 1.366 . S
C893 C897 1.385 . S
C894 H875 0.951 . S
C894 C892 1.388 . S
C894 C895 1.366 . S
C895 C894 1.366 . S
C895 C896 1.414 . S
C895 C898 1.499 . S
C896 H876 0.950 . S
C896 C895 1.414 . S
C896 C897 1.374 . S
C897 H877 0.950 . S
C897 C893 1.385 . S
C897 C896 1.374 . S
C898 C895 1.499 . S
C898 C899 1.373 . S
C898 C900 1.389 . S
C899 H878 0.950 . S
C899 C898 1.373 . S
C899 C915 1.377 . S
C900 C898 1.389 . S
C900 C901 1.524 . S
C900 C914 1.377 . S
C901 C900 1.524 . S
C901 C902 1.397 . S
C901 C906 1.363 . S
C902 H879 0.950 . S
C902 C901 1.397 . S
C902 C903 1.334 . S
C903 H880 0.950 . S
C903 C902 1.334 . S
C903 C904 1.287 . S
C904 C903 1.287 . S
C904 C905 1.524 . S
C904 H923 0.913 . S
C905 H881 0.950 . S
C905 C904 1.524 . S
C905 C906 1.415 . S
C906 H882 0.950 . S
C906 C901 1.363 . S
C906 C905 1.415 . S
C907 H883 0.951 . S
C907 C908 1.366 . S
C907 C909 1.388 . S
C908 C907 1.366 . S
C908 C912 1.385 . S
C909 H884 0.951 . S
C909 C907 1.388 . S
C909 C910 1.366 . S
C910 C909 1.366 . S
C910 C911 1.414 . S
C910 C913 1.499 . S
C911 H885 0.950 . S
C911 C910 1.414 . S
C911 C912 1.374 . S
C912 H886 0.950 . S
C912 C908 1.385 . S
C912 C911 1.374 . S
C913 C910 1.499 . S
C913 C914 1.373 . S
C913 C915 1.389 . S
C914 H887 0.950 . S
C914 C900 1.377 . S
C914 C913 1.373 . S
C915 C899 1.377 . S
C915 C913 1.389 . S
C915 C916 1.524 . S
C916 C915 1.524 . S
C916 C917 1.397 . S
C916 C921 1.363 . S
C917 H888 0.950 . S
C917 C916 1.397 . S
C917 C918 1.334 . S
C918 H889 0.950 . S
C918 C917 1.334 . S
C918 C919 1.287 . S
C919 C918 1.287 . S
C919 C920 1.524 . S
C919 H922 0.999 . S
C920 H890 0.950 . S
C920 C919 1.524 . S
C920 C921 1.415 . S
C921 H891 0.950 . S
C921 C916 1.363 . S
C921 C920 1.415 . S
H922 C919 0.999 . S
H923 C904 0.913 . S
H924 C942 0.951 . S
H925 C944 0.951 . S
H926 C946 0.950 . S
H927 C947 0.950 . S
H928 C949 0.950 . S
H929 C952 0.950 . S
H930 C953 0.950 . S
H931 C955 0.950 . S
H932 C956 0.950 . S
H933 C957 0.951 . S
H934 C959 0.951 . S
H935 C961 0.950 . S
H936 C962 0.950 . S
H937 C964 0.950 . S
H938 C967 0.950 . S
H939 C968 0.950 . S
H940 C970 0.950 . S
H941 C971 0.950 . S
C942 H924 0.951 . S
C942 C943 1.366 . S
C942 C944 1.388 . S
C943 C942 1.366 . S
C943 C947 1.385 . S
C944 H925 0.951 . S
C944 C942 1.388 . S
C944 C945 1.366 . S
C945 C944 1.366 . S
C945 C946 1.414 . S
C945 C948 1.499 . S
C946 H926 0.950 . S
C946 C945 1.414 . S
C946 C947 1.374 . S
C947 H927 0.950 . S
C947 C943 1.385 . S
C947 C946 1.374 . S
C948 C945 1.499 . S
C948 C949 1.373 . S
C948 C950 1.389 . S
C949 H928 0.950 . S
C949 C948 1.373 . S
C949 C965 1.377 . S
C950 C948 1.389 . S
C950 C951 1.524 . S
C950 C964 1.377 . S
C951 C950 1.524 . S
C951 C952 1.397 . S
C951 C956 1.363 . S
C952 H929 0.950 . S
C952 C951 1.397 . S
C952 C953 1.334 . S
C953 H930 0.950 . S
C953 C952 1.334 . S
C953 C954 1.287 . S
C954 C953 1.287 . S
C954 C955 1.524 . S
C954 H973 0.913 . S
C955 H931 0.950 . S
C955 C954 1.524 . S
C955 C956 1.415 . S
C956 H932 0.950 . S
C956 C951 1.363 . S
C956 C955 1.415 . S
C957 H933 0.951 . S
C957 C958 1.366 . S
C957 C959 1.388 . S
C958 C957 1.366 . S
C958 C962 1.385 . S
C959 H934 0.951 . S
C959 C957 1.388 . S
C959 C960 1.366 . S
C960 C959 1.366 . S
C960 C961 1.414 . S
C960 C963 1.499 . S
C961 H935 0.950 . S
C961 C960 1.414 . S
C961 C962 1.374 . S
C962 H936 0.950 . S
C962 C958 1.385 . S
C962 C961 1.374 . S
C963 C960 1.499 . S
C963 C964 1.373 . S
C963 C965 1.389 . S
C964 H937 0.950 . S
C964 C950 1.377 . S
C964 C963 1.373 . S
C965 C949 1.377 . S
C965 C963 1.389 . S
C965 C966 1.524 . S
C966 C965 1.524 . S
C966 C967 1.397 . S
C966 C971 1.363 . S
C967 H938 0.950 . S
C967 C966 1.397 . S
C967 C968 1.334 . S
C968 H939 0.950 . S
C968 C967 1.334 . S
C968 C969 1.287 . S
C969 C968 1.287 . S
C969 C970 1.524 . S
C969 H972 0.999 . S
C970 H940 0.950 . S
C970 C969 1.524 . S
C970 C971 1.415 . S
C971 H941 0.950 . S
C971 C966 1.363 . S
C971 C970 1.415 . S
H972 C969 0.999 . S
H973 C954 0.913 . S
H974 C992 0.951 . S
H975 C994 0.951 . S
H976 C996 0.950 . S
H977 C997 0.950 . S
H978 C999 0.950 . S
H979 C1002 0.950 . S
H980 C1003 0.950 . S
H981 C1005 0.950 . S
H982 C1006 0.950 . S
H983 C1007 0.951 . S
H984 C1009 0.951 . S
H985 C1011 0.950 . S
H986 C1012 0.950 . S
H987 C1014 0.950 . S
H988 C1017 0.950 . S
H989 C1018 0.950 . S
H990 C1020 0.950 . S
H991 C1021 0.950 . S
C992 H974 0.951 . S
C992 C993 1.366 . S
C992 C994 1.388 . S
C993 C992 1.366 . S
C993 C997 1.385 . S
C994 H975 0.951 . S
C994 C992 1.388 . S
C994 C995 1.366 . S
C995 C994 1.366 . S
C995 C996 1.414 . S
C995 C998 1.499 . S
C996 H976 0.950 . S
C996 C995 1.414 . S
C996 C997 1.374 . S
C997 H977 0.950 . S
C997 C993 1.385 . S
C997 C996 1.374 . S
C998 C995 1.499 . S
C998 C999 1.373 . S
C998 C1000 1.389 . S
C999 H978 0.950 . S
C999 C998 1.373 . S
C999 C1015 1.377 . S
C1000 C998 1.389 . S
C1000 C1001 1.524 . S
C1000 C1014 1.377 . S
C1001 C1000 1.524 . S
C1001 C1002 1.397 . S
C1001 C1006 1.363 . S
C1002 H979 0.950 . S
C1002 C1001 1.397 . S
C1002 C1003 1.334 . S
C1003 H980 0.950 . S
C1003 C1002 1.334 . S
C1003 C1004 1.287 . S
C1004 C1003 1.287 . S
C1004 C1005 1.524 . S
C1004 H1023 0.913 . S
C1005 H981 0.950 . S
C1005 C1004 1.524 . S
C1005 C1006 1.415 . S
C1006 H982 0.950 . S
C1006 C1001 1.363 . S
C1006 C1005 1.415 . S
C1007 H983 0.951 . S
C1007 C1008 1.366 . S
C1007 C1009 1.388 . S
C1008 C1007 1.366 . S
C1008 C1012 1.385 . S
C1009 H984 0.951 . S
C1009 C1007 1.388 . S
C1009 C1010 1.366 . S
C1010 C1009 1.366 . S
C1010 C1011 1.414 . S
C1010 C1013 1.499 . S
C1011 H985 0.950 . S
C1011 C1010 1.414 . S
C1011 C1012 1.374 . S
C1012 H986 0.950 . S
C1012 C1008 1.385 . S
C1012 C1011 1.374 . S
C1013 C1010 1.499 . S
C1013 C1014 1.373 . S
C1013 C1015 1.389 . S
C1014 H987 0.950 . S
C1014 C1000 1.377 . S
C1014 C1013 1.373 . S
C1015 C999 1.377 . S
C1015 C1013 1.389 . S
C1015 C1016 1.524 . S
C1016 C1015 1.524 . S
C1016 C1017 1.397 . S
C1016 C1021 1.363 . S
C1017 H988 0.950 . S
C1017 C1016 1.397 . S
C1017 C1018 1.334 . S
C1018 H989 0.950 . S
C1018 C1017 1.334 . S
C1018 C1019 1.287 . S
C1019 C1018 1.287 . S
C1019 C1020 1.524 . S
C1019 H1022 0.999 . S
C1020 H990 0.950 . S
C1020 C1019 1.524 . S
C1020 C1021 1.415 . S
C1021 H991 0.950 . S
C1021 C1016 1.363 . S
C1021 C1020 1.415 . S
H1022 C1019 0.999 . S
H1023 C1004 0.913 . S
H1024 C1042 0.951 . S
H1025 C1044 0.951 . S
H1026 C1046 0.950 . S
H1027 C1047 0.950 . S
H1028 C1049 0.950 . S
H1029 C1052 0.950 . S
H1030 C1053 0.950 . S
H1031 C1055 0.950 . S
H1032 C1056 0.950 . S
H1033 C1057 0.951 . S
H1034 C1059 0.951 . S
H1035 C1061 0.950 . S
H1036 C1062 0.950 . S
H1037 C1064 0.950 . S
H1038 C1067 0.950 . S
H1039 C1068 0.950 . S
H1040 C1070 0.950 . S
H1041 C1071 0.950 . S
C1042 H1024 0.951 . S
C1042 C1043 1.366 . S
C1042 C1044 1.388 . S
C1043 C1042 1.366 . S
C1043 C1047 1.385 . S
C1044 H1025 0.951 . S
C1044 C1042 1.388 . S
C1044 C1045 1.366 . S
C1045 C1044 1.366 . S
C1045 C1046 1.414 . S
C1045 C1048 1.499 . S
C1046 H1026 0.950 . S
C1046 C1045 1.414 . S
C1046 C1047 1.374 . S
C1047 H1027 0.950 . S
C1047 C1043 1.385 . S
C1047 C1046 1.374 . S
C1048 C1045 1.499 . S
C1048 C1049 1.373 . S
C1048 C1050 1.389 . S
C1049 H1028 0.950 . S
C1049 C1048 1.373 . S
C1049 C1065 1.377 . S
C1050 C1048 1.389 . S
C1050 C1051 1.524 . S
C1050 C1064 1.377 . S
C1051 C1050 1.524 . S
C1051 C1052 1.397 . S
C1051 C1056 1.363 . S
C1052 H1029 0.950 . S
C1052 C1051 1.397 . S
C1052 C1053 1.334 . S
C1053 H1030 0.950 . S
C1053 C1052 1.334 . S
C1053 C1054 1.287 . S
C1054 C1053 1.287 . S
C1054 C1055 1.524 . S
C1054 H1073 0.913 . S
C1055 H1031 0.950 . S
C1055 C1054 1.524 . S
C1055 C1056 1.415 . S
C1056 H1032 0.950 . S
C1056 C1051 1.363 . S
C1056 C1055 1.415 . S
C1057 H1033 0.951 . S
C1057 C1058 1.366 . S
C1057 C1059 1.388 . S
C1058 C1057 1.366 . S
C1058 C1062 1.385 . S
C1059 H1034 0.951 . S
C1059 C1057 1.388 . S
C1059 C1060 1.366 . S
C1060 C1059 1.366 . S
C1060 C1061 1.414 . S
C1060 C1063 1.499 . S
C1061 H1035 0.950 . S
C1061 C1060 1.414 . S
C1061 C1062 1.374 . S
C1062 H1036 0.950 . S
C1062 C1058 1.385 . S
C1062 C1061 1.374 . S
C1063 C1060 1.499 . S
C1063 C1064 1.373 . S
C1063 C1065 1.389 . S
C1064 H1037 0.950 . S
C1064 C1050 1.377 . S
C1064 C1063 1.373 . S
C1065 C1049 1.377 . S
C1065 C1063 1.389 . S
C1065 C1066 1.524 . S
C1066 C1065 1.524 . S
C1066 C1067 1.397 . S
C1066 C1071 1.363 . S
C1067 H1038 0.950 . S
C1067 C1066 1.397 . S
C1067 C1068 1.334 . S
C1068 H1039 0.950 . S
C1068 C1067 1.334 . S
C1068 C1069 1.287 . S
C1069 C1068 1.287 . S
C1069 C1070 1.524 . S
C1069 H1072 0.999 . S
C1070 H1040 0.950 . S
C1070 C1069 1.524 . S
C1070 C1071 1.415 . S
C1071 H1041 0.950 . S
C1071 C1066 1.363 . S
C1071 C1070 1.415 . S
H1072 C1069 0.999 . S
H1073 C1054 0.913 . S
H1074 C1092 0.951 . S
H1075 C1094 0.951 . S
H1076 C1096 0.950 . S
H1077 C1097 0.950 . S
H1078 C1099 0.950 . S
H1079 C1102 0.950 . S
H1080 C1103 0.950 . S
H1081 C1105 0.950 . S
H1082 C1106 0.950 . S
H1083 C1107 0.951 . S
H1084 C1109 0.951 . S
H1085 C1111 0.950 . S
H1086 C1112 0.950 . S
H1087 C1114 0.950 . S
H1088 C1117 0.950 . S
H1089 C1118 0.950 . S
H1090 C1120 0.950 . S
H1091 C1121 0.950 . S
C1092 H1074 0.951 . S
C1092 C1093 1.366 . S
C1092 C1094 1.388 . S
C1093 C1092 1.366 . S
C1093 C1097 1.385 . S
C1094 H1075 0.951 . S
C1094 C1092 1.388 . S
C1094 C1095 1.366 . S
C1095 C1094 1.366 . S
C1095 C1096 1.414 . S
C1095 C1098 1.499 . S
C1096 H1076 0.950 . S
C1096 C1095 1.414 . S
C1096 C1097 1.374 . S
C1097 H1077 0.950 . S
C1097 C1093 1.385 . S
C1097 C1096 1.374 . S
C1098 C1095 1.499 . S
C1098 C1099 1.373 . S
C1098 C1100 1.389 . S
C1099 H1078 0.950 . S
C1099 C1098 1.373 . S
C1099 C1115 1.377 . S
C1100 C1098 1.389 . S
C1100 C1101 1.524 . S
C1100 C1114 1.377 . S
C1101 C1100 1.524 . S
C1101 C1102 1.397 . S
C1101 C1106 1.363 . S
C1102 H1079 0.950 . S
C1102 C1101 1.397 . S
C1102 C1103 1.334 . S
C1103 H1080 0.950 . S
C1103 C1102 1.334 . S
C1103 C1104 1.287 . S
C1104 C1103 1.287 . S
C1104 C1105 1.524 . S
C1104 H1123 0.913 . S
C1105 H1081 0.950 . S
C1105 C1104 1.524 . S
C1105 C1106 1.415 . S
C1106 H1082 0.950 . S
C1106 C1101 1.363 . S
C1106 C1105 1.415 . S
C1107 H1083 0.951 . S
C1107 C1108 1.366 . S
C1107 C1109 1.388 . S
C1108 C1107 1.366 . S
C1108 C1112 1.385 . S
C1109 H1084 0.951 . S
C1109 C1107 1.388 . S
C1109 C1110 1.366 . S
C1110 C1109 1.366 . S
C1110 C1111 1.414 . S
C1110 C1113 1.499 . S
C1111 H1085 0.950 . S
C1111 C1110 1.414 . S
C1111 C1112 1.374 . S
C1112 H1086 0.950 . S
C1112 C1108 1.385 . S
C1112 C1111 1.374 . S
C1113 C1110 1.499 . S
C1113 C1114 1.373 . S
C1113 C1115 1.389 . S
C1114 H1087 0.950 . S
C1114 C1100 1.377 . S
C1114 C1113 1.373 . S
C1115 C1099 1.377 . S
C1115 C1113 1.389 . S
C1115 C1116 1.524 . S
C1116 C1115 1.524 . S
C1116 C1117 1.397 . S
C1116 C1121 1.363 . S
C1117 H1088 0.950 . S
C1117 C1116 1.397 . S
C1117 C1118 1.334 . S
C1118 H1089 0.950 . S
C1118 C1117 1.334 . S
C1118 C1119 1.287 . S
C1119 C1118 1.287 . S
C1119 C1120 1.524 . S
C1119 H1122 0.999 . S
C1120 H1090 0.950 . S
C1120 C1119 1.524 . S
C1120 C1121 1.415 . S
C1121 H1091 0.950 . S
C1121 C1116 1.363 . S
C1121 C1120 1.415 . S
H1122 C1119 0.999 . S
H1123 C1104 0.913 . S
H1124 C1142 0.951 . S
H1125 C1144 0.951 . S
H1126 C1146 0.950 . S
H1127 C1147 0.950 . S
H1128 C1149 0.950 . S
H1129 C1152 0.950 . S
H1130 C1153 0.950 . S
H1131 C1155 0.950 . S
H1132 C1156 0.950 . S
H1133 C1157 0.951 . S
H1134 C1159 0.951 . S
H1135 C1161 0.950 . S
H1136 C1162 0.950 . S
H1137 C1164 0.950 . S
H1138 C1167 0.950 . S
H1139 C1168 0.950 . S
H1140 C1170 0.950 . S
H1141 C1171 0.950 . S
C1142 H1124 0.951 . S
C1142 C1143 1.366 . S
C1142 C1144 1.388 . S
C1143 C1142 1.366 . S
C1143 C1147 1.385 . S
C1144 H1125 0.951 . S
C1144 C1142 1.388 . S
C1144 C1145 1.366 . S
C1145 C1144 1.366 . S
C1145 C1146 1.414 . S
C1145 C1148 1.499 . S
C1146 H1126 0.950 . S
C1146 C1145 1.414 . S
C1146 C1147 1.374 . S
C1147 H1127 0.950 . S
C1147 C1143 1.385 . S
C1147 C1146 1.374 . S
C1148 C1145 1.499 . S
C1148 C1149 1.373 . S
C1148 C1150 1.389 . S
C1149 H1128 0.950 . S
C1149 C1148 1.373 . S
C1149 C1165 1.377 . S
C1150 C1148 1.389 . S
C1150 C1151 1.524 . S
C1150 C1164 1.377 . S
C1151 C1150 1.524 . S
C1151 C1152 1.397 . S
C1151 C1156 1.363 . S
C1152 H1129 0.950 . S
C1152 C1151 1.397 . S
C1152 C1153 1.334 . S
C1153 H1130 0.950 . S
C1153 C1152 1.334 . S
C1153 C1154 1.287 . S
C1154 C1153 1.287 . S
C1154 C1155 1.524 . S
C1154 H1173 0.913 . S
C1155 H1131 0.950 . S
C1155 C1154 1.524 . S
C1155 C1156 1.415 . S
C1156 H1132 0.950 . S
C1156 C1151 1.363 . S
C1156 C1155 1.415 . S
C1157 H1133 0.951 . S
C1157 C1158 1.366 . S
C1157 C1159 1.388 . S
C1158 C1157 1.366 . S
C1158 C1162 1.385 . S
C1159 H1134 0.951 . S
C1159 C1157 1.388 . S
C1159 C1160 1.366 . S
C1160 C1159 1.366 . S
C1160 C1161 1.414 . S
C1160 C1163 1.499 . S
C1161 H1135 0.950 . S
C1161 C1160 1.414 . S
C1161 C1162 1.374 . S
C1162 H1136 0.950 . S
C1162 C1158 1.385 . S
C1162 C1161 1.374 . S
C1163 C1160 1.499 . S
C1163 C1164 1.373 . S
C1163 C1165 1.389 . S
C1164 H1137 0.950 . S
C1164 C1150 1.377 . S
C1164 C1163 1.373 . S
C1165 C1149 1.377 . S
C1165 C1163 1.389 . S
C1165 C1166 1.524 . S
C1166 C1165 1.524 . S
C1166 C1167 1.397 . S
C1166 C1171 1.363 . S
C1167 H1138 0.950 . S
C1167 C1166 1.397 . S
C1167 C1168 1.334 . S
C1168 H1139 0.950 . S
C1168 C1167 1.334 . S
C1168 C1169 1.287 . S
C1169 C1168 1.287 . S
C1169 C1170 1.524 . S
C1169 H1172 0.999 . S
C1170 H1140 0.950 . S
C1170 C1169 1.524 . S
C1170 C1171 1.415 . S
C1171 H1141 0.950 . S
C1171 C1166 1.363 . S
C1171 C1170 1.415 . S
H1172 C1169 0.999 . S
H1173 C1154 0.913 . S
H1174 C1192 0.951 . S
H1175 C1194 0.951 . S
H1176 C1196 0.950 . S
H1177 C1197 0.950 . S
H1178 C1199 0.950 . S
H1179 C1202 0.950 . S
H1180 C1203 0.950 . S
H1181 C1205 0.950 . S
H1182 C1206 0.950 . S
H1183 C1207 0.951 . S
H1184 C1209 0.951 . S
H1185 C1211 0.950 . S
H1186 C1212 0.950 . S
H1187 C1214 0.950 . S
H1188 C1217 0.950 . S
H1189 C1218 0.950 . S
H1190 C1220 0.950 . S
H1191 C1221 0.950 . S
C1192 H1174 0.951 . S
C1192 C1193 1.366 . S
C1192 C1194 1.388 . S
C1193 C1192 1.366 . S
C1193 C1197 1.385 . S
C1194 H1175 0.951 . S
C1194 C1192 1.388 . S
C1194 C1195 1.366 . S
C1195 C1194 1.366 . S
C1195 C1196 1.414 . S
C1195 C1198 1.499 . S
C1196 H1176 0.950 . S
C1196 C1195 1.414 . S
C1196 C1197 1.374 . S
C1197 H1177 0.950 . S
C1197 C1193 1.385 . S
C1197 C1196 1.374 . S
C1198 C1195 1.499 . S
C1198 C1199 1.373 . S
C1198 C1200 1.389 . S
C1199 H1178 0.950 . S
C1199 C1198 1.373 . S
C1199 C1215 1.377 . S
C1200 C1198 1.389 . S
C1200 C1201 1.524 . S
C1200 C1214 1.377 . S
C1201 C1200 1.524 . S
C1201 C1202 1.397 . S
C1201 C1206 1.363 . S
C1202 H1179 0.950 . S
C1202 C1201 1.397 . S
C1202 C1203 1.334 . S
C1203 H1180 0.950 . S
C1203 C1202 1.334 . S
C1203 C1204 1.287 . S
C1204 C1203 1.287 . S
C1204 C1205 1.524 . S
C1204 H1223 0.913 . S
C1205 H1181 0.950 . S
C1205 C1204 1.524 . S
C1205 C1206 1.415 . S
C1206 H1182 0.950 . S
C1206 C1201 1.363 . S
C1206 C1205 1.415 . S
C1207 H1183 0.951 . S
C1207 C1208 1.366 . S
C1207 C1209 1.388 . S
C1208 C1207 1.366 . S
C1208 C1212 1.385 . S
C1209 H1184 0.951 . S
C1209 C1207 1.388 . S
C1209 C1210 1.366 . S
C1210 C1209 1.366 . S
C1210 C1211 1.414 . S
C1210 C1213 1.499 . S
C1211 H1185 0.950 . S
C1211 C1210 1.414 . S
C1211 C1212 1.374 . S
C1212 H1186 0.950 . S
C1212 C1208 1.385 . S
C1212 C1211 1.374 . S
C1213 C1210 1.499 . S
C1213 C1214 1.373 . S
C1213 C1215 1.389 . S
C1214 H1187 0.950 . S
C1214 C1200 1.377 . S
C1214 C1213 1.373 . S
C1215 C1199 1.377 . S
C1215 C1213 1.389 . S
C1215 C1216 1.524 . S
C1216 C1215 1.524 . S
C1216 C1217 1.397 . S
C1216 C1221 1.363 . S
C1217 H1188 0.950 . S
C1217 C1216 1.397 . S
C1217 C1218 1.334 . S
C1218 H1189 0.950 . S
C1218 C1217 1.334 . S
C1218 C1219 1.287 . S
C1219 C1218 1.287 . S
C1219 C1220 1.524 . S
C1219 H1222 0.999 . S
C1220 H1190 0.950 . S
C1220 C1219 1.524 . S
C1220 C1221 1.415 . S
C1221 H1191 0.950 . S
C1221 C1216 1.363 . S
C1221 C1220 1.415 . S
H1222 C1219 0.999 . S
H1223 C1204 0.913 . S
H1224 C1242 0.951 . S
H1225 C1244 0.951 . S
H1226 C1246 0.950 . S
H1227 C1247 0.950 . S
H1228 C1249 0.950 . S
H1229 C1252 0.950 . S
H1230 C1253 0.950 . S
H1231 C1255 0.950 . S
H1232 C1256 0.950 . S
H1233 C1257 0.951 . S
H1234 C1259 0.951 . S
H1235 C1261 0.950 . S
H1236 C1262 0.950 . S
H1237 C1264 0.950 . S
H1238 C1267 0.950 . S
H1239 C1268 0.950 . S
H1240 C1270 0.950 . S
H1241 C1271 0.950 . S
C1242 H1224 0.951 . S
C1242 C1243 1.366 . S
C1242 C1244 1.388 . S
C1243 C1242 1.366 . S
C1243 C1247 1.385 . S
C1244 H1225 0.951 . S
C1244 C1242 1.388 . S
C1244 C1245 1.366 . S
C1245 C1244 1.366 . S
C1245 C1246 1.414 . S
C1245 C1248 1.499 . S
C1246 H1226 0.950 . S
C1246 C1245 1.414 . S
C1246 C1247 1.374 . S
C1247 H1227 0.950 . S
C1247 C1243 1.385 . S
C1247 C1246 1.374 . S
C1248 C1245 1.499 . S
C1248 C1249 1.373 . S
C1248 C1250 1.389 . S
C1249 H1228 0.950 . S
C1249 C1248 1.373 . S
C1249 C1265 1.377 . S
C1250 C1248 1.389 . S
C1250 C1251 1.524 . S
C1250 C1264 1.377 . S
C1251 C1250 1.524 . S
C1251 C1252 1.397 . S
C1251 C1256 1.363 . S
C1252 H1229 0.950 . S
C1252 C1251 1.397 . S
C1252 C1253 1.334 . S
C1253 H1230 0.950 . S
C1253 C1252 1.334 . S
C1253 C1254 1.287 . S
C1254 C1253 1.287 . S
C1254 C1255 1.524 . S
C1254 H1273 0.913 . S
C1255 H1231 0.950 . S
C1255 C1254 1.524 . S
C1255 C1256 1.415 . S
C1256 H1232 0.950 . S
C1256 C1251 1.363 . S
C1256 C1255 1.415 . S
C1257 H1233 0.951 . S
C1257 C1258 1.366 . S
C1257 C1259 1.388 . S
C1258 C1257 1.366 . S
C1258 C1262 1.385 . S
C1259 H1234 0.951 . S
C1259 C1257 1.388 . S
C1259 C1260 1.366 . S
C1260 C1259 1.366 . S
C1260 C1261 1.414 . S
C1260 C1263 1.499 . S
C1261 H1235 0.950 . S
C1261 C1260 1.414 . S
C1261 C1262 1.374 . S
C1262 H1236 0.950 . S
C1262 C1258 1.385 . S
C1262 C1261 1.374 . S
C1263 C1260 1.499 . S
C1263 C1264 1.373 . S
C1263 C1265 1.389 . S
C1264 H1237 0.950 . S
C1264 C1250 1.377 . S
C1264 C1263 1.373 . S
C1265 C1249 1.377 . S
C1265 C1263 1.389 . S
C1265 C1266 1.524 . S
C1266 C1265 1.524 . S
C1266 C1267 1.397 . S
C1266 C1271 1.363 . S
C1267 H1238 0.950 . S
C1267 C1266 1.397 . S
C1267 C1268 1.334 . S
C1268 H1239 0.950 . S
C1268 C1267 1.334 . S
C1268 C1269 1.287 . S
C1269 C1268 1.287 . S
C1269 C1270 1.524 . S
C1269 H1272 0.999 . S
C1270 H1240 0.950 . S
C1270 C1269 1.524 . S
C1270 C1271 1.415 . S
C1271 H1241 0.950 . S
C1271 C1266 1.363 . S
C1271 C1270 1.415 . S
H1272 C1269 0.999 . S
H1273 C1254 0.913 . S
H1274 C1292 0.951 . S
H1275 C1294 0.951 . S
H1276 C1296 0.950 . S
H1277 C1297 0.950 . S
H1278 C1299 0.950 . S
H1279 C1302 0.950 . S
H1280 C1303 0.950 . S
H1281 C1305 0.950 . S
H1282 C1306 0.950 . S
H1283 C1307 0.951 . S
H1284 C1309 0.951 . S
H1285 C1311 0.950 . S
H1286 C1312 0.950 . S
H1287 C1314 0.950 . S
H1288 C1317 0.950 . S
H1289 C1318 0.950 . S
H1290 C1320 0.950 . S
H1291 C1321 0.950 . S
C1292 H1274 0.951 . S
C1292 C1293 1.366 . S
C1292 C1294 1.388 . S
C1293 C1292 1.366 . S
C1293 C1297 1.385 . S
C1294 H1275 0.951 . S
C1294 C1292 1.388 . S
C1294 C1295 1.366 . S
C1295 C1294 1.366 . S
C1295 C1296 1.414 . S
C1295 C1298 1.499 . S
C1296 H1276 0.950 . S
C1296 C1295 1.414 . S
C1296 C1297 1.374 . S
C1297 H1277 0.950 . S
C1297 C1293 1.385 . S
C1297 C1296 1.374 . S
C1298 C1295 1.499 . S
C1298 C1299 1.373 . S
C1298 C1300 1.389 . S
C1299 H1278 0.950 . S
C1299 C1298 1.373 . S
C1299 C1315 1.377 . S
C1300 C1298 1.389 . S
C1300 C1301 1.524 . S
C1300 C1314 1.377 . S
C1301 C1300 1.524 . S
C1301 C1302 1.397 . S
C1301 C1306 1.363 . S
C1302 H1279 0.950 . S
C1302 C1301 1.397 . S
C1302 C1303 1.334 . S
C1303 H1280 0.950 . S
C1303 C1302 1.334 . S
C1303 C1304 1.287 . S
C1304 C1303 1.287 . S
C1304 C1305 1.524 . S
C1304 H1323 0.913 . S
C1305 H1281 0.950 . S
C1305 C1304 1.524 . S
C1305 C1306 1.415 . S
C1306 H1282 0.950 . S
C1306 C1301 1.363 . S
C1306 C1305 1.415 . S
C1307 H1283 0.951 . S
C1307 C1308 1.366 . S
C1307 C1309 1.388 . S
C1308 C1307 1.366 . S
C1308 C1312 1.385 . S
C1309 H1284 0.951 . S
C1309 C1307 1.388 . S
C1309 C1310 1.366 . S
C1310 C1309 1.366 . S
C1310 C1311 1.414 . S
C1310 C1313 1.499 . S
C1311 H1285 0.950 . S
C1311 C1310 1.414 . S
C1311 C1312 1.374 . S
C1312 H1286 0.950 . S
C1312 C1308 1.385 . S
C1312 C1311 1.374 . S
C1313 C1310 1.499 . S
C1313 C1314 1.373 . S
C1313 C1315 1.389 . S
C1314 H1287 0.950 . S
C1314 C1300 1.377 . S
C1314 C1313 1.373 . S
C1315 C1299 1.377 . S
C1315 C1313 1.389 . S
C1315 C1316 1.524 . S
C1316 C1315 1.524 . S
C1316 C1317 1.397 . S
C1316 C1321 1.363 . S
C1317 H1288 0.950 . S
C1317 C1316 1.397 . S
C1317 C1318 1.334 . S
C1318 H1289 0.950 . S
C1318 C1317 1.334 . S
C1318 C1319 1.287 . S
C1319 C1318 1.287 . S
C1319 C1320 1.524 . S
C1319 H1322 0.999 . S
C1320 H1290 0.950 . S
C1320 C1319 1.524 . S
C1320 C1321 1.415 . S
C1321 H1291 0.950 . S
C1321 C1316 1.363 . S
C1321 C1320 1.415 . S
H1322 C1319 0.999 . S
H1323 C1304 0.913 . S
H1324 C1342 0.951 . S
H1325 C1344 0.951 . S
H1326 C1346 0.950 . S
H1327 C1347 0.950 . S
H1328 C1349 0.950 . S
H1329 C1352 0.950 . S
H1330 C1353 0.950 . S
H1331 C1355 0.950 . S
H1332 C1356 0.950 . S
H1333 C1357 0.951 . S
H1334 C1359 0.951 . S
H1335 C1361 0.950 . S
H1336 C1362 0.950 . S
H1337 C1364 0.950 . S
H1338 C1367 0.950 . S
H1339 C1368 0.950 . S
H1340 C1370 0.950 . S
H1341 C1371 0.950 . S
C1342 H1324 0.951 . S
C1342 C1343 1.366 . S
C1342 C1344 1.388 . S
C1343 C1342 1.366 . S
C1343 C1347 1.385 . S
C1344 H1325 0.951 . S
C1344 C1342 1.388 . S
C1344 C1345 1.366 . S
C1345 C1344 1.366 . S
C1345 C1346 1.414 . S
C1345 C1348 1.499 . S
C1346 H1326 0.950 . S
C1346 C1345 1.414 . S
C1346 C1347 1.374 . S
C1347 H1327 0.950 . S
C1347 C1343 1.385 . S
C1347 C1346 1.374 . S
C1348 C1345 1.499 . S
C1348 C1349 1.373 . S
C1348 C1350 1.389 . S
C1349 H1328 0.950 . S
C1349 C1348 1.373 . S
C1349 C1365 1.377 . S
C1350 C1348 1.389 . S
C1350 C1351 1.524 . S
C1350 C1364 1.377 . S
C1351 C1350 1.524 . S
C1351 C1352 1.397 . S
C1351 C1356 1.363 . S
C1352 H1329 0.950 . S
C1352 C1351 1.397 . S
C1352 C1353 1.334 . S
C1353 H1330 0.950 . S
C1353 C1352 1.334 . S
C1353 C1354 1.287 . S
C1354 C1353 1.287 . S
C1354 C1355 1.524 . S
C1354 H1373 0.913 . S
C1355 H1331 0.950 . S
C1355 C1354 1.524 . S
C1355 C1356 1.415 . S
C1356 H1332 0.950 . S
C1356 C1351 1.363 . S
C1356 C1355 1.415 . S
C1357 H1333 0.951 . S
C1357 C1358 1.366 . S
C1357 C1359 1.388 . S
C1358 C1357 1.366 . S
C1358 C1362 1.385 . S
C1359 H1334 0.951 . S
C1359 C1357 1.388 . S
C1359 C1360 1.366 . S
C1360 C1359 1.366 . S
C1360 C1361 1.414 . S
C1360 C1363 1.499 . S
C1361 H1335 0.950 . S
C1361 C1360 1.414 . S
C1361 C1362 1.374 . S
C1362 H1336 0.950 . S
C1362 C1358 1.385 . S
C1362 C1361 1.374 . S
C1363 C1360 1.499 . S
C1363 C1364 1.373 . S
C1363 C1365 1.389 . S
C1364 H1337 0.950 . S
C1364 C1350 1.377 . S
C1364 C1363 1.373 . S
C1365 C1349 1.377 . S
C1365 C1363 1.389 . S
C1365 C1366 1.524 . S
C1366 C1365 1.524 . S
C1366 C1367 1.397 . S
C1366 C1371 1.363 . S
C1367 H1338 0.950 . S
C1367 C1366 1.397 . S
C1367 C1368 1.334 . S
C1368 H1339 0.950 . S
C1368 C1367 1.334 . S
C1368 C1369 1.287 . S
C1369 C1368 1.287 . S
C1369 C1370 1.524 . S
C1369 H1372 0.999 . S
C1370 H1340 0.950 . S
C1370 C1369 1.524 . S
C1370 C1371 1.415 . S
C1371 H1341 0.950 . S
C1371 C1366 1.363 . S
C1371 C1370 1.415 . S
H1372 C1369 0.999 . S
H1373 C1354 0.913 . S
H1374 C1392 0.951 . S
H1375 C1394 0.951 . S
H1376 C1396 0.950 . S
H1377 C1397 0.950 . S
H1378 C1399 0.950 . S
H1379 C1402 0.950 . S
H1380 C1403 0.950 . S
H1381 C1405 0.950 . S
H1382 C1406 0.950 . S
H1383 C1407 0.951 . S
H1384 C1409 0.951 . S
H1385 C1411 0.950 . S
H1386 C1412 0.950 . S
H1387 C1414 0.950 . S
H1388 C1417 0.950 . S
H1389 C1418 0.950 . S
H1390 C1420 0.950 . S
H1391 C1421 0.950 . S
C1392 H1374 0.951 . S
C1392 C1393 1.366 . S
C1392 C1394 1.388 . S
C1393 C1392 1.366 . S
C1393 C1397 1.385 . S
C1394 H1375 0.951 . S
C1394 C1392 1.388 . S
C1394 C1395 1.366 . S
C1395 C1394 1.366 . S
C1395 C1396 1.414 . S
C1395 C1398 1.499 . S
C1396 H1376 0.950 . S
C1396 C1395 1.414 . S
C1396 C1397 1.374 . S
C1397 H1377 0.950 . S
C1397 C1393 1.385 . S
C1397 C1396 1.374 . S
C1398 C1395 1.499 . S
C1398 C1399 1.373 . S
C1398 C1400 1.389 . S
C1399 H1378 0.950 . S
C1399 C1398 1.373 . S
C1399 C1415 1.377 . S
C1400 C1398 1.389 . S
C1400 C1401 1.524 . S
C1400 C1414 1.377 . S
C1401 C1400 1.524 . S
C1401 C1402 1.397 . S
C1401 C1406 1.363 . S
C1402 H1379 0.950 . S
C1402 C1401 1.397 . S
C1402 C1403 1.334 . S
C1403 H1380 0.950 . S
C1403 C1402 1.334 . S
C1403 C1404 1.287 . S
C1404 C1403 1.287 . S
C1404 C1405 1.524 . S
C1404 H1423 0.913 . S
C1405 H1381 0.950 . S
C1405 C1404 1.524 . S
C1405 C1406 1.415 . S
C1406 H1382 0.950 . S
C1406 C1401 1.363 . S
C1406 C1405 1.415 . S
C1407 H1383 0.951 . S
C1407 C1408 1.366 . S
C1407 C1409 1.388 . S
C1408 C1407 1.366 . S
C1408 C1412 1.385 . S
C1409 H1384 0.951 . S
C1409 C1407 1.388 . S
C1409 C1410 1.366 . S
C1410 C1409 1.366 . S
C1410 C1411 1.414 . S
C1410 C1413 1.499 . S
C1411 H1385 0.950 . S
C1411 C1410 1.414 . S
C1411 C1412 1.374 . S
C1412 H1386 0.950 . S
C1412 C1408 1.385 . S
C1412 C1411 1.374 . S
C1413 C1410 1.499 . S
C1413 C1414 1.373 . S
C1413 C1415 1.389 . S
C1414 H1387 0.950 . S
C1414 C1400 1.377 . S
C1414 C1413 1.373 . S
C1415 C1399 1.377 . S
C1415 C1413 1.389 . S
C1415 C1416 1.524 . S
C1416 C1415 1.524 . S
C1416 C1417 1.397 . S
C1416 C1421 1.363 . S
C1417 H1388 0.950 . S
C1417 C1416 1.397 . S
C1417 C1418 1.334 . S
C1418 H1389 0.950 . S
C1418 C1417 1.334 . S
C1418 C1419 1.287 . S
C1419 C1418 1.287 . S
C1419 C1420 1.524 . S
C1419 H1422 0.999 . S
C1420 H1390 0.950 . S
C1420 C1419 1.524 . S
C1420 C1421 1.415 . S
C1421 H1391 0.950 . S
C1421 C1416 1.363 . S
C1421 C1420 1.415 . S
H1422 C1419 0.999 . S
H1423 C1404 0.913 . S
H1424 C1442 0.951 . S
H1425 C1444 0.951 . S
H1426 C1446 0.950 1_455 S
H1427 C1447 0.950 . S
H1428 C1449 0.950 . S
H1429 C1452 0.950 . S
H1430 C1453 0.950 . S
H1431 C1455 0.950 . S
H1432 C1456 0.950 . S
H1433 C1457 0.951 . S
H1434 C1459 0.951 . S
H1435 C1461 0.950 1_655 S
H1436 C1462 0.950 . S
H1437 C1464 0.950 . S
H1438 C1467 0.950 . S
H1439 C1468 0.950 . S
H1440 C1470 0.950 . S
H1441 C1471 0.950 . S
C1442 H1424 0.951 . S
C1442 C1443 1.366 . S
C1442 C1444 1.388 . S
C1443 C1442 1.366 . S
C1443 C1447 1.385 . S
C1444 H1425 0.951 . S
C1444 C1442 1.388 . S
C1444 C1445 1.366 . S
C1445 C1444 1.366 . S
C1445 C1446 1.414 . S
C1445 C1448 1.499 . S
C1446 H1426 0.950 1_655 S
C1446 C1445 1.414 . S
C1446 C1447 1.374 . S
C1447 H1427 0.950 . S
C1447 C1443 1.385 . S
C1447 C1446 1.374 . S
C1448 C1445 1.499 . S
C1448 C1449 1.373 1_655 S
C1448 C1450 1.389 . S
C1449 H1428 0.950 . S
C1449 C1448 1.373 1_455 S
C1449 C1465 1.377 1_565 S
C1450 C1448 1.389 . S
C1450 C1451 1.524 . S
C1450 C1464 1.377 1_565 S
C1451 C1450 1.524 . S
C1451 C1452 1.397 . S
C1451 C1456 1.363 1_565 S
C1452 H1429 0.950 . S
C1452 C1451 1.397 . S
C1452 C1453 1.334 . S
C1453 H1430 0.950 . S
C1453 C1452 1.334 . S
C1453 C1454 1.287 . S
C1454 C1453 1.287 . S
C1454 C1455 1.524 1_565 S
C1454 H1473 0.913 . S
C1455 H1431 0.950 . S
C1455 C1454 1.524 1_545 S
C1455 C1456 1.415 . S
C1456 H1432 0.950 . S
C1456 C1451 1.363 1_545 S
C1456 C1455 1.415 . S
C1457 H1433 0.951 . S
C1457 C1458 1.366 . S
C1457 C1459 1.388 . S
C1458 C1457 1.366 . S
C1458 C1462 1.385 . S
C1459 H1434 0.951 . S
C1459 C1457 1.388 . S
C1459 C1460 1.366 . S
C1460 C1459 1.366 . S
C1460 C1461 1.414 . S
C1460 C1463 1.499 . S
C1461 H1435 0.950 1_455 S
C1461 C1460 1.414 . S
C1461 C1462 1.374 . S
C1462 H1436 0.950 . S
C1462 C1458 1.385 . S
C1462 C1461 1.374 . S
C1463 C1460 1.499 . S
C1463 C1464 1.373 1_455 S
C1463 C1465 1.389 . S
C1464 H1437 0.950 . S
C1464 C1450 1.377 1_545 S
C1464 C1463 1.373 1_655 S
C1465 C1449 1.377 1_545 S
C1465 C1463 1.389 . S
C1465 C1466 1.524 . S
C1466 C1465 1.524 . S
C1466 C1467 1.397 . S
C1466 C1471 1.363 1_545 S
C1467 H1438 0.950 . S
C1467 C1466 1.397 . S
C1467 C1468 1.334 . S
C1468 H1439 0.950 . S
C1468 C1467 1.334 . S
C1468 C1469 1.287 . S
C1469 C1468 1.287 . S
C1469 C1470 1.524 1_545 S
C1469 H1472 0.999 . S
C1470 H1440 0.950 . S
C1470 C1469 1.524 1_565 S
C1470 C1471 1.415 . S
C1471 H1441 0.950 . S
C1471 C1466 1.363 1_565 S
C1471 C1470 1.415 . S
H1472 C1469 0.999 . S
H1473 C1454 0.913 . S
H1474 C1492 0.951 . S
H1475 C1494 0.951 1_565 S
H1476 C1496 0.950 . S
H1477 C1497 0.950 . S
H1478 C1499 0.950 . S
H1479 C1502 0.950 1_545 S
H1480 C1503 0.950 . S
H1481 C1505 0.950 . S
H1482 C1506 0.950 . S
H1483 C1507 0.951 . S
H1484 C1509 0.951 1_545 S
H1485 C1511 0.950 . S
H1486 C1512 0.950 . S
H1487 C1514 0.950 . S
H1488 C1517 0.950 1_565 S
H1489 C1518 0.950 . S
H1490 C1520 0.950 . S
H1491 C1521 0.950 . S
C1492 H1474 0.951 . S
C1492 C1493 1.366 . S
C1492 C1494 1.388 . S
C1493 C1492 1.366 . S
C1493 C1497 1.385 . S
C1494 H1475 0.951 1_545 S
C1494 C1492 1.388 . S
C1494 C1495 1.366 . S
C1495 C1494 1.366 . S
C1495 C1496 1.414 . S
C1495 C1498 1.499 . S
C1496 H1476 0.950 . S
C1496 C1495 1.414 . S
C1496 C1497 1.374 . S
C1497 H1477 0.950 . S
C1497 C1493 1.385 . S
C1497 C1496 1.374 . S
C1498 C1495 1.499 . S
C1498 C1499 1.373 . S
C1498 C1500 1.389 1_545 S
C1499 H1478 0.950 . S
C1499 C1498 1.373 . S
C1499 C1515 1.377 1_655 S
C1500 C1498 1.389 1_565 S
C1500 C1501 1.524 . S
C1500 C1514 1.377 1_655 S
C1501 C1500 1.524 . S
C1501 C1502 1.397 . S
C1501 C1506 1.363 . S
C1502 H1479 0.950 1_565 S
C1502 C1501 1.397 . S
C1502 C1503 1.334 . S
C1503 H1480 0.950 . S
C1503 C1502 1.334 . S
C1503 C1504 1.287 . S
C1504 C1503 1.287 . S
C1504 C1505 1.524 . S
C1504 H1523 0.913 . S
C1505 H1481 0.950 . S
C1505 C1504 1.524 . S
C1505 C1506 1.415 . S
C1506 H1482 0.950 . S
C1506 C1501 1.363 . S
C1506 C1505 1.415 . S
C1507 H1483 0.951 . S
C1507 C1508 1.366 . S
C1507 C1509 1.388 . S
C1508 C1507 1.366 . S
C1508 C1512 1.385 . S
C1509 H1484 0.951 1_565 S
C1509 C1507 1.388 . S
C1509 C1510 1.366 . S
C1510 C1509 1.366 . S
C1510 C1511 1.414 . S
C1510 C1513 1.499 . S
C1511 H1485 0.950 . S
C1511 C1510 1.414 . S
C1511 C1512 1.374 . S
C1512 H1486 0.950 . S
C1512 C1508 1.385 . S
C1512 C1511 1.374 . S
C1513 C1510 1.499 . S
C1513 C1514 1.373 . S
C1513 C1515 1.389 1_565 S
C1514 H1487 0.950 . S
C1514 C1500 1.377 1_455 S
C1514 C1513 1.373 . S
C1515 C1499 1.377 1_455 S
C1515 C1513 1.389 1_545 S
C1515 C1516 1.524 . S
C1516 C1515 1.524 . S
C1516 C1517 1.397 . S
C1516 C1521 1.363 . S
C1517 H1488 0.950 1_545 S
C1517 C1516 1.397 . S
C1517 C1518 1.334 . S
C1518 H1489 0.950 . S
C1518 C1517 1.334 . S
C1518 C1519 1.287 . S
C1519 C1518 1.287 . S
C1519 C1520 1.524 . S
C1519 H1522 0.999 . S
C1520 H1490 0.950 . S
C1520 C1519 1.524 . S
C1520 C1521 1.415 . S
C1521 H1491 0.950 . S
C1521 C1516 1.363 . S
C1521 C1520 1.415 . S
H1522 C1519 0.999 . S
H1523 C1504 0.913 . S
H1524 C1542 0.951 . S
H1525 C1544 0.951 1_655 S
H1526 C1546 0.950 . S
H1527 C1547 0.950 . S
H1528 C1549 0.950 . S
H1529 C1552 0.950 . S
H1530 C1553 0.950 . S
H1531 C1555 0.950 . S
H1532 C1556 0.950 . S
H1533 C1557 0.951 . S
H1534 C1559 0.951 1_455 S
H1535 C1561 0.950 . S
H1536 C1562 0.950 . S
H1537 C1564 0.950 . S
H1538 C1567 0.950 1_556 S
H1539 C1568 0.950 . S
H1540 C1570 0.950 . S
H1541 C1571 0.950 1_556 S
C1542 H1524 0.951 . S
C1542 C1543 1.366 . S
C1542 C1544 1.388 . S
C1543 C1542 1.366 . S
C1543 C1547 1.385 . S
C1544 H1525 0.951 1_455 S
C1544 C1542 1.388 . S
C1544 C1545 1.366 . S
C1545 C1544 1.366 . S
C1545 C1546 1.414 . S
C1545 C1548 1.499 . S
C1546 H1526 0.950 . S
C1546 C1545 1.414 . S
C1546 C1547 1.374 . S
C1547 H1527 0.950 . S
C1547 C1543 1.385 . S
C1547 C1546 1.374 . S
C1548 C1545 1.499 . S
C1548 C1549 1.373 . S
C1548 C1550 1.389 1_455 S
C1549 H1528 0.950 . S
C1549 C1548 1.373 . S
C1549 C1565 1.377 . S
C1550 C1548 1.389 1_655 S
C1550 C1551 1.524 . S
C1550 C1564 1.377 . S
C1551 C1550 1.524 . S
C1551 C1552 1.397 1_655 S
C1551 C1556 1.363 . S
C1552 H1529 0.950 . S
C1552 C1551 1.397 1_455 S
C1552 C1553 1.334 . S
C1553 H1530 0.950 . S
C1553 C1552 1.334 . S
C1553 C1554 1.287 1_455 S
C1554 C1553 1.287 1_655 S
C1554 C1555 1.524 . S
C1554 H1573 0.913 . S
C1555 H1531 0.950 . S
C1555 C1554 1.524 . S
C1555 C1556 1.415 . S
C1556 H1532 0.950 . S
C1556 C1551 1.363 . S
C1556 C1555 1.415 . S
C1557 H1533 0.951 . S
C1557 C1558 1.366 . S
C1557 C1559 1.388 . S
C1558 C1557 1.366 . S
C1558 C1562 1.385 . S
C1559 H1534 0.951 1_655 S
C1559 C1557 1.388 . S
C1559 C1560 1.366 . S
C1560 C1559 1.366 . S
C1560 C1561 1.414 . S
C1560 C1563 1.499 . S
C1561 H1535 0.950 . S
C1561 C1560 1.414 . S
C1561 C1562 1.374 . S
C1562 H1536 0.950 . S
C1562 C1558 1.385 . S
C1562 C1561 1.374 . S
C1563 C1560 1.499 . S
C1563 C1564 1.373 . S
C1563 C1565 1.389 1_655 S
C1564 H1537 0.950 . S
C1564 C1550 1.377 . S
C1564 C1563 1.373 . S
C1565 C1549 1.377 . S
C1565 C1563 1.389 1_455 S
C1565 C1566 1.524 . S
C1566 C1565 1.524 . S
C1566 C1567 1.397 1_456 S
C1566 C1571 1.363 1_556 S
C1567 H1538 0.950 1_554 S
C1567 C1566 1.397 1_654 S
C1567 C1568 1.334 . S
C1568 H1539 0.950 . S
C1568 C1567 1.334 . S
C1568 C1569 1.287 1_655 S
C1569 C1568 1.287 1_455 S
C1569 C1570 1.524 . S
C1569 H1572 0.999 . S
C1570 H1540 0.950 . S
C1570 C1569 1.524 . S
C1570 C1571 1.415 . S
C1571 H1541 0.950 1_554 S
C1571 C1566 1.363 1_554 S
C1571 C1570 1.415 . S
H1572 C1569 0.999 . S
H1573 C1554 0.913 . S
H1574 C1592 0.951 . S
H1575 C1594 0.951 . S
H1576 C1596 0.950 1_545 S
H1577 C1597 0.950 . S
H1578 C1599 0.950 . S
H1579 C1602 0.950 . S
H1580 C1603 0.950 . S
H1581 C1605 0.950 . S
H1582 C1606 0.950 . S
H1583 C1607 0.951 . S
H1584 C1609 0.951 . S
H1585 C1611 0.950 1_565 S
H1586 C1612 0.950 . S
H1587 C1614 0.950 . S
H1588 C1617 0.949 . S
H1589 C1618 0.950 . S
H1590 C1620 0.950 . S
H1591 C1621 0.950 . S
C1592 H1574 0.951 . S
C1592 C1593 1.366 . S
C1592 C1594 1.388 . S
C1593 C1592 1.366 . S
C1593 C1597 1.385 . S
C1594 H1575 0.951 . S
C1594 C1592 1.388 . S
C1594 C1595 1.366 . S
C1595 C1594 1.366 . S
C1595 C1596 1.414 . S
C1595 C1598 1.499 . S
C1596 H1576 0.950 1_565 S
C1596 C1595 1.414 . S
C1596 C1597 1.374 . S
C1597 H1577 0.950 . S
C1597 C1593 1.385 . S
C1597 C1596 1.374 . S
C1598 C1595 1.499 . S
C1598 C1599 1.373 1_565 S
C1598 C1600 1.389 . S
C1599 H1578 0.950 . S
C1599 C1598 1.373 1_545 S
C1599 C1615 1.377 . S
C1600 C1598 1.389 . S
C1600 C1601 1.524 . S
C1600 C1614 1.377 . S
C1601 C1600 1.524 . S
C1601 C1602 1.397 . S
C1601 C1606 1.363 . S
C1602 H1579 0.950 . S
C1602 C1601 1.397 . S
C1602 C1603 1.334 . S
C1603 H1580 0.950 . S
C1603 C1602 1.334 . S
C1603 C1604 1.287 . S
C1604 C1603 1.287 . S
C1604 C1605 1.524 . S
C1604 H1623 0.913 . S
C1605 H1581 0.950 . S
C1605 C1604 1.524 . S
C1605 C1606 1.415 . S
C1606 H1582 0.950 . S
C1606 C1601 1.363 . S
C1606 C1605 1.415 . S
C1607 H1583 0.951 . S
C1607 C1608 1.366 . S
C1607 C1609 1.388 . S
C1608 C1607 1.366 . S
C1608 C1612 1.385 . S
C1609 H1584 0.951 . S
C1609 C1607 1.388 . S
C1609 C1610 1.366 . S
C1610 C1609 1.366 . S
C1610 C1611 1.414 . S
C1610 C1613 1.499 . S
C1611 H1585 0.950 1_545 S
C1611 C1610 1.414 . S
C1611 C1612 1.374 . S
C1612 H1586 0.950 . S
C1612 C1608 1.385 . S
C1612 C1611 1.374 . S
C1613 C1610 1.499 . S
C1613 C1614 1.373 1_545 S
C1613 C1615 1.389 . S
C1614 H1587 0.950 . S
C1614 C1600 1.377 . S
C1614 C1613 1.373 1_565 S
C1615 C1599 1.377 . S
C1615 C1613 1.389 . S
C1615 C1616 1.524 . S
C1616 C1615 1.524 . S
C1616 C1617 1.427 . S
C1616 C1621 1.363 . S
C1617 H1588 0.949 . S
C1617 C1616 1.427 . S
C1617 C1618 1.305 1_554 S
C1618 H1589 0.950 . S
C1618 C1617 1.305 1_556 S
C1618 C1619 1.287 . S
C1619 C1618 1.287 . S
C1619 C1620 1.524 1_556 S
C1619 H1622 0.999 . S
C1620 H1590 0.950 . S
C1620 C1619 1.524 1_554 S
C1620 C1621 1.415 . S
C1621 H1591 0.950 . S
C1621 C1616 1.363 . S
C1621 C1620 1.415 . S
H1622 C1619 0.999 . S
H1623 C1604 0.913 . S
H1624 C1642 0.951 . S
H1625 C1644 0.951 . S
H1626 C1646 0.950 . S
H1627 C1647 0.950 . S
H1628 C1649 0.950 . S
H1629 C1652 0.950 . S
H1630 C1653 0.950 . S
H1631 C1655 0.950 . S
H1632 C1656 0.950 . S
H1633 C1657 0.951 . S
H1634 C1659 0.951 . S
H1635 C1661 0.950 . S
H1636 C1662 0.950 . S
H1637 C1664 0.950 . S
H1638 C1667 0.950 . S
H1639 C1668 0.950 . S
H1640 C1670 0.950 . S
H1641 C1671 0.950 . S
C1642 H1624 0.951 . S
C1642 C1643 1.366 . S
C1642 C1644 1.388 . S
C1643 C1642 1.366 . S
C1643 C1647 1.385 . S
C1644 H1625 0.951 . S
C1644 C1642 1.388 . S
C1644 C1645 1.366 . S
C1645 C1644 1.366 . S
C1645 C1646 1.414 . S
C1645 C1648 1.499 . S
C1646 H1626 0.950 . S
C1646 C1645 1.414 . S
C1646 C1647 1.374 . S
C1647 H1627 0.950 . S
C1647 C1643 1.385 . S
C1647 C1646 1.374 . S
C1648 C1645 1.499 . S
C1648 C1649 1.373 . S
C1648 C1650 1.389 . S
C1649 H1628 0.950 . S
C1649 C1648 1.373 . S
C1649 C1665 1.377 . S
C1650 C1648 1.389 . S
C1650 C1651 1.524 . S
C1650 C1664 1.377 . S
C1651 C1650 1.524 . S
C1651 C1652 1.397 . S
C1651 C1656 1.363 . S
C1652 H1629 0.950 . S
C1652 C1651 1.397 . S
C1652 C1653 1.334 . S
C1653 H1630 0.950 . S
C1653 C1652 1.334 . S
C1653 C1654 1.287 . S
C1654 C1653 1.287 . S
C1654 C1655 1.524 . S
C1654 H1673 0.913 . S
C1655 H1631 0.950 . S
C1655 C1654 1.524 . S
C1655 C1656 1.415 . S
C1656 H1632 0.950 . S
C1656 C1651 1.363 . S
C1656 C1655 1.415 . S
C1657 H1633 0.951 . S
C1657 C1658 1.366 . S
C1657 C1659 1.388 . S
C1658 C1657 1.366 . S
C1658 C1662 1.385 . S
C1659 H1634 0.951 . S
C1659 C1657 1.388 . S
C1659 C1660 1.366 . S
C1660 C1659 1.366 . S
C1660 C1661 1.414 . S
C1660 C1663 1.499 . S
C1661 H1635 0.950 . S
C1661 C1660 1.414 . S
C1661 C1662 1.374 . S
C1662 H1636 0.950 . S
C1662 C1658 1.385 . S
C1662 C1661 1.374 . S
C1663 C1660 1.499 . S
C1663 C1664 1.373 . S
C1663 C1665 1.389 . S
C1664 H1637 0.950 . S
C1664 C1650 1.377 . S
C1664 C1663 1.373 . S
C1665 C1649 1.377 . S
C1665 C1663 1.389 . S
C1665 C1666 1.524 . S
C1666 C1665 1.524 . S
C1666 C1667 1.397 . S
C1666 C1671 1.363 . S
C1667 H1638 0.950 . S
C1667 C1666 1.397 . S
C1667 C1668 1.334 . S
C1668 H1639 0.950 . S
C1668 C1667 1.334 . S
C1668 C1669 1.287 . S
C1669 C1668 1.287 . S
C1669 C1670 1.524 . S
C1669 H1672 0.999 . S
C1670 H1640 0.950 . S
C1670 C1669 1.524 . S
C1670 C1671 1.415 . S
C1671 H1641 0.950 . S
C1671 C1666 1.363 . S
C1671 C1670 1.415 . S
H1672 C1669 0.999 . S
H1673 C1654 0.913 . S
H1674 C1692 0.951 . S
H1675 C1694 0.951 . S
H1676 C1696 0.950 . S
H1677 C1697 0.950 . S
H1678 C1699 0.950 . S
H1679 C1702 0.950 . S
H1680 C1703 0.950 . S
H1681 C1705 0.950 . S
H1682 C1706 0.950 . S
H1683 C1707 0.951 . S
H1684 C1709 0.951 . S
H1685 C1711 0.950 . S
H1686 C1712 0.950 . S
H1687 C1714 0.950 . S
H1688 C1717 0.950 . S
H1689 C1718 0.950 . S
H1690 C1720 0.950 . S
H1691 C1721 0.950 . S
C1692 H1674 0.951 . S
C1692 C1693 1.366 . S
C1692 C1694 1.388 . S
C1693 C1692 1.366 . S
C1693 C1697 1.385 . S
C1694 H1675 0.951 . S
C1694 C1692 1.388 . S
C1694 C1695 1.366 . S
C1695 C1694 1.366 . S
C1695 C1696 1.414 . S
C1695 C1698 1.499 . S
C1696 H1676 0.950 . S
C1696 C1695 1.414 . S
C1696 C1697 1.374 . S
C1697 H1677 0.950 . S
C1697 C1693 1.385 . S
C1697 C1696 1.374 . S
C1698 C1695 1.499 . S
C1698 C1699 1.373 . S
C1698 C1700 1.389 . S
C1699 H1678 0.950 . S
C1699 C1698 1.373 . S
C1699 C1715 1.377 . S
C1700 C1698 1.389 . S
C1700 C1701 1.524 . S
C1700 C1714 1.377 . S
C1701 C1700 1.524 . S
C1701 C1702 1.397 . S
C1701 C1706 1.363 . S
C1702 H1679 0.950 . S
C1702 C1701 1.397 . S
C1702 C1703 1.334 . S
C1703 H1680 0.950 . S
C1703 C1702 1.334 . S
C1703 C1704 1.287 . S
C1704 C1703 1.287 . S
C1704 C1705 1.524 . S
C1704 H1723 0.913 . S
C1705 H1681 0.950 . S
C1705 C1704 1.524 . S
C1705 C1706 1.415 . S
C1706 H1682 0.950 . S
C1706 C1701 1.363 . S
C1706 C1705 1.415 . S
C1707 H1683 0.951 . S
C1707 C1708 1.366 . S
C1707 C1709 1.388 . S
C1708 C1707 1.366 . S
C1708 C1712 1.385 . S
C1709 H1684 0.951 . S
C1709 C1707 1.388 . S
C1709 C1710 1.366 . S
C1710 C1709 1.366 . S
C1710 C1711 1.414 . S
C1710 C1713 1.499 . S
C1711 H1685 0.950 . S
C1711 C1710 1.414 . S
C1711 C1712 1.374 . S
C1712 H1686 0.950 . S
C1712 C1708 1.385 . S
C1712 C1711 1.374 . S
C1713 C1710 1.499 . S
C1713 C1714 1.373 . S
C1713 C1715 1.389 . S
C1714 H1687 0.950 . S
C1714 C1700 1.377 . S
C1714 C1713 1.373 . S
C1715 C1699 1.377 . S
C1715 C1713 1.389 . S
C1715 C1716 1.524 . S
C1716 C1715 1.524 . S
C1716 C1717 1.397 . S
C1716 C1721 1.363 . S
C1717 H1688 0.950 . S
C1717 C1716 1.397 . S
C1717 C1718 1.334 . S
C1718 H1689 0.950 . S
C1718 C1717 1.334 . S
C1718 C1719 1.287 . S
C1719 C1718 1.287 . S
C1719 C1720 1.524 . S
C1719 H1722 0.999 . S
C1720 H1690 0.950 . S
C1720 C1719 1.524 . S
C1720 C1721 1.415 . S
C1721 H1691 0.950 . S
C1721 C1716 1.363 . S
C1721 C1720 1.415 . S
H1722 C1719 0.999 . S
H1723 C1704 0.913 . S
H1724 C1742 0.951 . S
H1725 C1744 0.951 . S
H1726 C1746 0.950 . S
H1727 C1747 0.950 . S
H1728 C1749 0.950 . S
H1729 C1752 0.950 . S
H1730 C1753 0.950 . S
H1731 C1755 0.950 . S
H1732 C1756 0.950 . S
H1733 C1757 0.951 . S
H1734 C1759 0.951 . S
H1735 C1761 0.950 . S
H1736 C1762 0.950 . S
H1737 C1764 0.950 . S
H1738 C1767 0.950 . S
H1739 C1768 0.950 . S
H1740 C1770 0.950 . S
H1741 C1771 0.950 . S
C1742 H1724 0.951 . S
C1742 C1743 1.366 . S
C1742 C1744 1.388 . S
C1743 C1742 1.366 . S
C1743 C1747 1.385 . S
C1744 H1725 0.951 . S
C1744 C1742 1.388 . S
C1744 C1745 1.366 . S
C1745 C1744 1.366 . S
C1745 C1746 1.414 . S
C1745 C1748 1.499 . S
C1746 H1726 0.950 . S
C1746 C1745 1.414 . S
C1746 C1747 1.374 . S
C1747 H1727 0.950 . S
C1747 C1743 1.385 . S
C1747 C1746 1.374 . S
C1748 C1745 1.499 . S
C1748 C1749 1.373 . S
C1748 C1750 1.389 . S
C1749 H1728 0.950 . S
C1749 C1748 1.373 . S
C1749 C1765 1.377 1_545 S
C1750 C1748 1.389 . S
C1750 C1751 1.524 . S
C1750 C1764 1.377 1_545 S
C1751 C1750 1.524 . S
C1751 C1752 1.397 . S
C1751 C1756 1.363 . S
C1752 H1729 0.950 . S
C1752 C1751 1.397 . S
C1752 C1753 1.334 . S
C1753 H1730 0.950 . S
C1753 C1752 1.334 . S
C1753 C1754 1.287 . S
C1754 C1753 1.287 . S
C1754 C1755 1.524 . S
C1754 H1773 0.913 . S
C1755 H1731 0.950 . S
C1755 C1754 1.524 . S
C1755 C1756 1.415 . S
C1756 H1732 0.950 . S
C1756 C1751 1.363 . S
C1756 C1755 1.415 . S
C1757 H1733 0.951 . S
C1757 C1758 1.366 . S
C1757 C1759 1.388 . S
C1758 C1757 1.366 . S
C1758 C1762 1.385 . S
C1759 H1734 0.951 . S
C1759 C1757 1.388 . S
C1759 C1760 1.366 . S
C1760 C1759 1.366 . S
C1760 C1761 1.414 . S
C1760 C1763 1.499 . S
C1761 H1735 0.950 . S
C1761 C1760 1.414 . S
C1761 C1762 1.374 . S
C1762 H1736 0.950 . S
C1762 C1758 1.385 . S
C1762 C1761 1.374 . S
C1763 C1760 1.499 . S
C1763 C1764 1.373 . S
C1763 C1765 1.389 . S
C1764 H1737 0.950 . S
C1764 C1750 1.377 1_565 S
C1764 C1763 1.373 . S
C1765 C1749 1.377 1_565 S
C1765 C1763 1.389 . S
C1765 C1766 1.524 . S
C1766 C1765 1.524 . S
C1766 C1767 1.397 . S
C1766 C1771 1.363 . S
C1767 H1738 0.950 . S
C1767 C1766 1.397 . S
C1767 C1768 1.334 . S
C1768 H1739 0.950 . S
C1768 C1767 1.334 . S
C1768 C1769 1.287 . S
C1769 C1768 1.287 . S
C1769 C1770 1.524 . S
C1769 H1772 0.999 . S
C1770 H1740 0.950 . S
C1770 C1769 1.524 . S
C1770 C1771 1.415 . S
C1771 H1741 0.950 . S
C1771 C1766 1.363 . S
C1771 C1770 1.415 . S
H1772 C1769 0.999 . S
H1773 C1754 0.913 . S
H1774 C1792 0.951 . S
H1775 C1794 0.951 . S
H1776 C1796 0.950 . S
H1777 C1797 0.950 . S
H1778 C1799 0.950 . S
H1779 C1802 0.950 . S
H1780 C1803 0.950 . S
H1781 C1805 0.950 . S
H1782 C1806 0.950 . S
H1783 C1807 0.951 . S
H1784 C1809 0.951 . S
H1785 C1811 0.950 . S
H1786 C1812 0.950 . S
H1787 C1814 0.950 . S
H1788 C1817 0.950 . S
H1789 C1818 0.950 . S
H1790 C1820 0.950 . S
H1791 C1821 0.950 . S
C1792 H1774 0.951 . S
C1792 C1793 1.366 . S
C1792 C1794 1.388 . S
C1793 C1792 1.366 . S
C1793 C1797 1.385 . S
C1794 H1775 0.951 . S
C1794 C1792 1.388 . S
C1794 C1795 1.366 . S
C1795 C1794 1.366 . S
C1795 C1796 1.414 . S
C1795 C1798 1.499 . S
C1796 H1776 0.950 . S
C1796 C1795 1.414 . S
C1796 C1797 1.374 . S
C1797 H1777 0.950 . S
C1797 C1793 1.385 . S
C1797 C1796 1.374 . S
C1798 C1795 1.499 . S
C1798 C1799 1.373 . S
C1798 C1800 1.389 . S
C1799 H1778 0.950 . S
C1799 C1798 1.373 . S
C1799 C1815 1.377 1_655 S
C1800 C1798 1.389 . S
C1800 C1801 1.525 1_655 S
C1800 C1814 1.377 1_655 S
C1801 C1800 1.525 1_455 S
C1801 C1802 1.399 1_455 S
C1801 C1806 1.361 . S
C1802 H1779 0.950 . S
C1802 C1801 1.399 1_655 S
C1802 C1803 1.334 . S
C1803 H1780 0.950 . S
C1803 C1802 1.334 . S
C1803 C1804 1.287 1_655 S
C1804 C1803 1.287 1_455 S
C1804 C1805 1.524 . S
C1804 H1823 0.913 . S
C1805 H1781 0.950 . S
C1805 C1804 1.524 . S
C1805 C1806 1.415 . S
C1806 H1782 0.950 . S
C1806 C1801 1.361 . S
C1806 C1805 1.415 . S
C1807 H1783 0.951 . S
C1807 C1808 1.366 . S
C1807 C1809 1.388 . S
C1808 C1807 1.366 . S
C1808 C1812 1.385 . S
C1809 H1784 0.951 . S
C1809 C1807 1.388 . S
C1809 C1810 1.366 . S
C1810 C1809 1.366 . S
C1810 C1811 1.414 . S
C1810 C1813 1.499 . S
C1811 H1785 0.950 . S
C1811 C1810 1.414 . S
C1811 C1812 1.374 . S
C1812 H1786 0.950 . S
C1812 C1808 1.385 . S
C1812 C1811 1.374 . S
C1813 C1810 1.499 . S
C1813 C1814 1.373 . S
C1813 C1815 1.389 . S
C1814 H1787 0.950 . S
C1814 C1800 1.377 1_455 S
C1814 C1813 1.373 . S
C1815 C1799 1.377 1_455 S
C1815 C1813 1.389 . S
C1815 C1816 1.525 1_455 S
C1816 C1815 1.525 1_655 S
C1816 C1817 1.399 1_655 S
C1816 C1821 1.361 . S
C1817 H1788 0.950 . S
C1817 C1816 1.399 1_455 S
C1817 C1818 1.334 . S
C1818 H1789 0.950 . S
C1818 C1817 1.334 . S
C1818 C1819 1.287 1_455 S
C1819 C1818 1.287 1_655 S
C1819 C1820 1.524 . S
C1819 H1822 0.999 . S
C1820 H1790 0.950 . S
C1820 C1819 1.524 . S
C1820 C1821 1.415 . S
C1821 H1791 0.950 . S
C1821 C1816 1.361 . S
C1821 C1820 1.415 . S
H1822 C1819 0.999 . S
H1823 C1804 0.913 . S
C243 C8 1.232 . S
C258 C163 1.259 . S
C293 C121 1.258 . S
C308 C22 1.232 . S
C343 C135 1.258 . S
C358 C36 1.232 . S
C393 C149 1.257 . S
C408 C50 1.232 . S
C443 C79 1.258 . S
C458 C64 1.232 . S
C493 C78 1.231 . S
C508 C93 1.259 . S
C543 C92 1.232 . S
C558 C107 1.257 . S
C593 C106 1.232 . S
C608 C65 1.258 . S
C643 C120 1.233 . S
C658 C51 1.258 . S
C693 C9 1.258 . S
C708 C134 1.231 . S
C743 C23 1.258 . S
C758 C148 1.231 . S
C793 C37 1.258 . S
C808 C162 1.232 . S
C843 C191 1.259 . S
C858 C176 1.232 . S
C893 C190 1.232 . S
C908 C205 1.258 . S
C943 C219 1.258 . S
C958 C204 1.233 . S
C993 C177 1.257 . S
C1008 C218 1.232 . S
C1043 C202 1.470 . S
C1058 C6 1.471 . S
C1093 C216 1.471 . S
C1108 C20 1.470 . S
C1143 C174 1.471 . S
C1158 C34 1.471 . S
C1193 C48 1.470 . S
C1208 C188 1.471 . S
C1243 C62 1.471 . S
C1258 C146 1.471 . S
C1293 C160 1.470 . S
C1308 C76 1.471 . S
C1343 C90 1.471 . S
C1358 C118 1.470 . S
C1393 C104 1.471 . S
C1408 C132 1.470 . S
C1443 C35 1.337 . S
C1458 C7 1.336 . S
C1493 C49 1.337 . S
C1508 C21 1.336 . S
C1543 C63 1.336 . S
C1558 C91 1.337 . S
C1593 C77 1.336 . S
C1608 C105 1.337 . S
C1643 C147 1.336 . S
C1658 C119 1.337 . S
C1693 C133 1.337 . S
C1708 C161 1.336 . S
C1743 C203 1.336 . S
C1758 C175 1.337 . S
C1793 C189 1.336 . S
C1808 C217 1.336 . S
