# Generated by pormake.
# Topology vbm, (6)-cn, num edge types: 1
# Building blocks:
#     Node 0, Type 0, BuildingBlock: MIFKUJ_clean_sbu_0, # of connection points: 6
#     Node 1, Type 0, BuildingBlock: MIFKUJ_clean_sbu_0, # of connection points: 6
#     Node 2, Type 0, BuildingBlock: MIFKUJ_clean_sbu_0, # of connection points: 6
#     Node 3, Type 0, BuildingBlock: MIFKUJ_clean_sbu_0, # of connection points: 6
#     Node 4, Type 0, BuildingBlock: MIFKUJ_clean_sbu_0, # of connection points: 6
#     Node 5, Type 0, BuildingBlock: MIFKUJ_clean_sbu_0, # of connection points: 6
#     Node 6, Type 0, BuildingBlock: MIFKUJ_clean_sbu_0, # of connection points: 6
#     Node 7, Type 0, BuildingBlock: MIFKUJ_clean_sbu_0, # of connection points: 6
#     Node 8, Type 0, BuildingBlock: MIFKUJ_clean_sbu_0, # of connection points: 6
#     Node 9, Type 0, BuildingBlock: MIFKUJ_clean_sbu_0, # of connection points: 6
#     Node 10, Type 0, BuildingBlock: MIFKUJ_clean_sbu_0, # of connection points: 6
#     Node 11, Type 0, BuildingBlock: MIFKUJ_clean_sbu_0, # of connection points: 6
#     Node 12, Type 0, BuildingBlock: MIFKUJ_clean_sbu_0, # of connection points: 6
#     Node 13, Type 0, BuildingBlock: MIFKUJ_clean_sbu_0, # of connection points: 6
#     Node 14, Type 0, BuildingBlock: MIFKUJ_clean_sbu_0, # of connection points: 6
#     Node 15, Type 0, BuildingBlock: MIFKUJ_clean_sbu_0, # of connection points: 6
#     Edge 16, Type (0, 0), BuildingBlock: XUDNAN_clean_linker_2, # of connection points: 2
#     Edge 17, Type (0, 0), BuildingBlock: XUDNAN_clean_linker_2, # of connection points: 2
#     Edge 18, Type (0, 0), BuildingBlock: XUDNAN_clean_linker_2, # of connection points: 2
#     Edge 19, Type (0, 0), BuildingBlock: XUDNAN_clean_linker_2, # of connection points: 2
#     Edge 20, Type (0, 0), BuildingBlock: XUDNAN_clean_linker_2, # of connection points: 2
#     Edge 21, Type (0, 0), BuildingBlock: XUDNAN_clean_linker_2, # of connection points: 2
#     Edge 22, Type (0, 0), BuildingBlock: XUDNAN_clean_linker_2, # of connection points: 2
#     Edge 23, Type (0, 0), BuildingBlock: XUDNAN_clean_linker_2, # of connection points: 2
#     Edge 24, Type (0, 0), BuildingBlock: XUDNAN_clean_linker_2, # of connection points: 2
#     Edge 25, Type (0, 0), BuildingBlock: XUDNAN_clean_linker_2, # of connection points: 2
#     Edge 26, Type (0, 0), BuildingBlock: XUDNAN_clean_linker_2, # of connection points: 2
#     Edge 27, Type (0, 0), BuildingBlock: XUDNAN_clean_linker_2, # of connection points: 2
#     Edge 28, Type (0, 0), BuildingBlock: XUDNAN_clean_linker_2, # of connection points: 2
#     Edge 29, Type (0, 0), BuildingBlock: XUDNAN_clean_linker_2, # of connection points: 2
#     Edge 30, Type (0, 0), BuildingBlock: XUDNAN_clean_linker_2, # of connection points: 2
#     Edge 31, Type (0, 0), BuildingBlock: XUDNAN_clean_linker_2, # of connection points: 2
#     Edge 32, Type (0, 0), BuildingBlock: XUDNAN_clean_linker_2, # of connection points: 2
#     Edge 33, Type (0, 0), BuildingBlock: XUDNAN_clean_linker_2, # of connection points: 2
#     Edge 34, Type (0, 0), BuildingBlock: XUDNAN_clean_linker_2, # of connection points: 2
#     Edge 35, Type (0, 0), BuildingBlock: XUDNAN_clean_linker_2, # of connection points: 2
#     Edge 36, Type (0, 0), BuildingBlock: XUDNAN_clean_linker_2, # of connection points: 2
#     Edge 37, Type (0, 0), BuildingBlock: XUDNAN_clean_linker_2, # of connection points: 2
#     Edge 38, Type (0, 0), BuildingBlock: XUDNAN_clean_linker_2, # of connection points: 2
#     Edge 39, Type (0, 0), BuildingBlock: XUDNAN_clean_linker_2, # of connection points: 2
#     Edge 40, Type (0, 0), BuildingBlock: XUDNAN_clean_linker_2, # of connection points: 2
#     Edge 41, Type (0, 0), BuildingBlock: XUDNAN_clean_linker_2, # of connection points: 2
#     Edge 42, Type (0, 0), BuildingBlock: XUDNAN_clean_linker_2, # of connection points: 2
#     Edge 43, Type (0, 0), BuildingBlock: XUDNAN_clean_linker_2, # of connection points: 2
#     Edge 44, Type (0, 0), BuildingBlock: XUDNAN_clean_linker_2, # of connection points: 2
#     Edge 45, Type (0, 0), BuildingBlock: XUDNAN_clean_linker_2, # of connection points: 2
#     Edge 46, Type (0, 0), BuildingBlock: XUDNAN_clean_linker_2, # of connection points: 2
#     Edge 47, Type (0, 0), BuildingBlock: XUDNAN_clean_linker_2, # of connection points: 2
#     Edge 48, Type (0, 0), BuildingBlock: XUDNAN_clean_linker_2, # of connection points: 2
#     Edge 49, Type (0, 0), BuildingBlock: XUDNAN_clean_linker_2, # of connection points: 2
#     Edge 50, Type (0, 0), BuildingBlock: XUDNAN_clean_linker_2, # of connection points: 2
#     Edge 51, Type (0, 0), BuildingBlock: XUDNAN_clean_linker_2, # of connection points: 2
#     Edge 52, Type (0, 0), BuildingBlock: XUDNAN_clean_linker_2, # of connection points: 2
#     Edge 53, Type (0, 0), BuildingBlock: XUDNAN_clean_linker_2, # of connection points: 2
#     Edge 54, Type (0, 0), BuildingBlock: XUDNAN_clean_linker_2, # of connection points: 2
#     Edge 55, Type (0, 0), BuildingBlock: XUDNAN_clean_linker_2, # of connection points: 2
#     Edge 56, Type (0, 0), BuildingBlock: XUDNAN_clean_linker_2, # of connection points: 2
#     Edge 57, Type (0, 0), BuildingBlock: XUDNAN_clean_linker_2, # of connection points: 2
#     Edge 58, Type (0, 0), BuildingBlock: XUDNAN_clean_linker_2, # of connection points: 2
#     Edge 59, Type (0, 0), BuildingBlock: XUDNAN_clean_linker_2, # of connection points: 2
#     Edge 60, Type (0, 0), BuildingBlock: XUDNAN_clean_linker_2, # of connection points: 2
#     Edge 61, Type (0, 0), BuildingBlock: XUDNAN_clean_linker_2, # of connection points: 2
#     Edge 62, Type (0, 0), BuildingBlock: XUDNAN_clean_linker_2, # of connection points: 2
#     Edge 63, Type (0, 0), BuildingBlock: XUDNAN_clean_linker_2, # of connection points: 2
# Relax obj value: 0.053
# Max RMSD: 0.106
# Mean RMSD: 0.106
data_MOF--net-vbm--node1-MIFKUJ_clean_sbu_0--edge1-XUDNAN_clean_linker_2
_symmetry_space_group_name_H-M    P1
_symmetry_Int_Tables_number       1
_symmetry_cell_setting            triclinic
loop_
_symmetry_equiv_pos_as_xyz
'x, y, z'
_cell_length_a     67.434179
_cell_length_b     18.829402
_cell_length_c     55.119077
_cell_angle_alpha  90.011561
_cell_angle_beta   90.017685
_cell_angle_gamma 90.087137
loop_
_atom_site_label
_atom_site_type_symbol
_atom_site_fract_x
_atom_site_fract_y
_atom_site_fract_z
_atom_type_partial_charge
Zn0 Zn 0.14122 0.20727 0.13609 0.0
Zn1 Zn 0.11406 0.01675 0.12836 0.0
C2 C 0.18228 0.23147 0.14913 0.0
O3 O 0.17431 0.28195 0.16237 0.0
C4 C 0.07264 0.00768 0.12194 0.0
O5 O 0.07925 0.9927 0.10011 0.0
O6 O 0.13831 0.31341 0.13864 0.0
O7 O 0.13129 0.17282 0.10329 0.0
O8 O 0.11708 0.06747 0.09653 0.0
C9 C 0.13055 0.35768 0.12407 0.0
O10 O 0.12213 0.33501 0.10403 0.0
O11 O 0.17096 0.18995 0.13721 0.0
C12 C 0.11898 0.87385 0.14205 0.0
O13 O 0.11245 0.90153 0.16236 0.0
O14 O 0.12082 0.91325 0.12351 0.0
O15 O 0.13264 0.05784 0.15313 0.0
O16 O 0.12761 0.16643 0.16547 0.0
O17 O 0.08514 0.02178 0.13857 0.0
C18 C 0.12343 0.12733 0.08905 0.0
C19 C 0.12587 0.10022 0.16895 0.0
Zn20 Zn 0.86383 0.78955 0.12671 0.0
Zn21 Zn 0.88497 0.97738 0.12088 0.0
C22 C 0.82232 0.78479 0.14044 0.0
O23 O 0.82931 0.75157 0.15957 0.0
C24 C 0.927 0.98344 0.11598 0.0
O25 O 0.92153 0.9959 0.09351 0.0
O26 O 0.86569 0.68375 0.13237 0.0
O27 O 0.87465 0.81189 0.09352 0.0
O28 O 0.88262 0.926 0.08875 0.0
C29 C 0.87161 0.63735 0.11725 0.0
O30 O 0.87786 0.65753 0.09578 0.0
O31 O 0.8344 0.80928 0.12482 0.0
C32 C 0.88045 0.11926 0.13515 0.0
O33 O 0.88542 0.08802 0.15554 0.0
O34 O 0.87936 0.08224 0.11591 0.0
O35 O 0.86679 0.94437 0.1478 0.0
O36 O 0.87621 0.83554 0.15612 0.0
O37 O 0.91369 0.97187 0.13187 0.0
C38 C 0.87998 0.86376 0.08023 0.0
C39 C 0.87352 0.8993 0.16279 0.0
Zn40 Zn 0.13849 0.78242 0.36146 0.0
Zn41 Zn 0.10781 0.98191 0.37003 0.0
C42 C 0.18113 0.74739 0.36048 0.0
O43 O 0.17573 0.68046 0.35939 0.0
C44 C 0.07134 0.02511 0.38695 0.0
O45 O 0.08372 0.04972 0.40336 0.0
O46 O 0.13196 0.67754 0.36459 0.0
O47 O 0.12881 0.8404 0.39122 0.0
O48 O 0.11368 0.94027 0.4024 0.0
C49 C 0.13762 0.64236 0.38302 0.0
O50 O 0.14708 0.67568 0.40048 0.0
O51 O 0.16805 0.79579 0.36134 0.0
C52 C 0.11425 0.13197 0.35837 0.0
O53 O 0.09819 0.12512 0.34509 0.0
O54 O 0.12149 0.07763 0.36884 0.0
O55 O 0.11796 0.90583 0.34922 0.0
O56 O 0.12946 0.81892 0.32828 0.0
O57 O 0.0783 0.99317 0.36853 0.0
C58 C 0.12204 0.88157 0.40773 0.0
C59 C 0.12104 0.87896 0.32863 0.0
Zn60 Zn 0.86394 0.20262 0.36187 0.0
Zn61 Zn 0.8889 0.00495 0.36878 0.0
C62 C 0.82292 0.21018 0.35456 0.0
O63 O 0.82969 0.23501 0.33388 0.0
C64 C 0.92632 0.98925 0.39041 0.0
O65 O 0.91467 0.97553 0.40892 0.0
O66 O 0.86802 0.30901 0.3619 0.0
O67 O 0.88188 0.15894 0.38878 0.0
O68 O 0.87956 0.04599 0.39988 0.0
C69 C 0.85785 0.3465 0.3765 0.0
O70 O 0.84576 0.31474 0.39171 0.0
O71 O 0.8352 0.18775 0.37025 0.0
C72 C 0.88592 0.85469 0.35722 0.0
O73 O 0.90421 0.86231 0.34942 0.0
O74 O 0.87652 0.90865 0.3649 0.0
O75 O 0.8796 0.07791 0.34682 0.0
O76 O 0.86848 0.1668 0.32692 0.0
O77 O 0.91865 1.00139 0.36978 0.0
C78 C 0.8776 0.11184 0.40472 0.0
C79 C 0.87568 0.10486 0.32653 0.0
Zn80 Zn 0.89405 1.00005 0.86524 0.0
Zn81 Zn 0.86722 0.80207 0.8629 0.0
C82 C 0.93531 0.01619 0.87549 0.0
O83 O 0.92848 0.02151 0.89773 0.0
C84 C 0.82522 0.83675 0.86239 0.0
O85 O 0.82892 0.85568 0.83991 0.0
O86 O 0.88068 0.09561 0.86375 0.0
O87 O 0.88169 0.92456 0.84637 0.0
O88 O 0.86908 0.83676 0.82719 0.0
C89 C 0.88904 0.15039 0.85492 0.0
O90 O 0.90643 0.14409 0.84441 0.0
O91 O 0.92319 0.00675 0.85814 0.0
C92 C 0.86255 0.65802 0.87864 0.0
O93 O 0.85184 0.68972 0.89532 0.0
O94 O 0.87136 0.69563 0.86277 0.0
O95 O 0.88822 0.84852 0.88585 0.0
O96 O 0.88951 0.96034 0.89812 0.0
O97 O 0.83947 0.81692 0.87584 0.0
C98 C 0.87683 0.89797 0.82631 0.0
C99 C 0.8861 0.89497 0.90264 0.0
Zn100 Zn 0.12223 0.02002 0.87023 0.0
Zn101 Zn 0.13201 0.20667 0.86259 0.0
C102 C 0.08066 0.02519 0.87883 0.0
O103 O 0.0866 0.00586 0.90055 0.0
C104 C 0.16949 0.24358 0.84235 0.0
O105 O 0.15791 0.2763 0.82679 0.0
O106 O 0.12502 0.91226 0.87175 0.0
O107 O 0.13832 0.05381 0.84161 0.0
O108 O 0.12046 0.14975 0.83534 0.0
C109 C 0.11863 0.8788 0.85324 0.0
O110 O 0.1113 0.91556 0.83507 0.0
O111 O 0.09351 0.03666 0.86245 0.0
C112 C 0.12918 0.35914 0.8715 0.0
O113 O 0.13954 0.34378 0.89099 0.0
O114 O 0.12375 0.3091 0.85743 0.0
O115 O 0.12612 0.1798 0.89691 0.0
O116 O 0.12738 0.06305 0.90325 0.0
O117 O 0.16167 0.20694 0.8592 0.0
C118 C 0.12939 0.0955 0.82715 0.0
C119 C 0.12628 0.12658 0.9111 0.0
Zn120 Zn 0.88316 0.02375 0.62176 0.0
Zn121 Zn 0.85894 0.21705 0.63045 0.0
C122 C 0.92266 0.01342 0.60828 0.0
O123 O 0.91274 0.99255 0.58904 0.0
C124 C 0.82275 0.2409 0.65551 0.0
O125 O 0.83564 0.26649 0.67114 0.0
O126 O 0.87606 0.92111 0.61635 0.0
O127 O 0.86651 0.06159 0.64897 0.0
O128 O 0.87358 0.17169 0.65861 0.0
C129 C 0.88157 0.87019 0.6299 0.0
O130 O 0.89236 0.88381 0.6492 0.0
O131 O 0.91304 0.03026 0.6273 0.0
C132 C 0.85648 0.35743 0.61379 0.0
O133 O 0.8445 0.32405 0.59882 0.0
O134 O 0.86532 0.32179 0.63012 0.0
O135 O 0.86515 0.18189 0.59656 0.0
O136 O 0.87767 0.07412 0.5904 0.0
O137 O 0.82918 0.21256 0.6361 0.0
C138 C 0.87404 0.10583 0.66364 0.0
C139 C 0.87137 0.13332 0.58243 0.0
Zn140 Zn 0.10702 0.98909 0.62087 0.0
Zn141 Zn 0.14341 0.79494 0.62906 0.0
C142 C 0.06871 0.01673 0.60473 0.0
O143 O 0.08029 0.04784 0.58875 0.0
C144 C 0.18141 0.76865 0.64764 0.0
O145 O 0.1698 0.75224 0.66593 0.0
O146 O 0.1153 0.0936 0.62459 0.0
O147 O 0.12083 0.9206 0.64261 0.0
O148 O 0.13734 0.84006 0.66192 0.0
C149 C 0.10371 0.13574 0.6358 0.0
O150 O 0.08748 0.11003 0.64565 0.0
O151 O 0.0768 0.98298 0.62211 0.0
C152 C 0.13854 0.64201 0.6185 0.0
O153 O 0.15392 0.64993 0.60413 0.0
O154 O 0.13155 0.69592 0.6295 0.0
O155 O 0.13247 0.8578 0.6013 0.0
O156 O 0.11572 0.95225 0.58836 0.0
O157 O 0.17354 0.7875 0.62766 0.0
C158 C 0.12748 0.89728 0.66252 0.0
C159 C 0.1258 0.89618 0.58399 0.0
Zn160 Zn 0.63563 0.71794 0.12718 0.0
Zn161 Zn 0.60835 0.52412 0.11963 0.0
C162 C 0.67746 0.72494 0.13729 0.0
O163 O 0.67094 0.72122 0.15971 0.0
C164 C 0.57076 0.50116 0.0986 0.0
O165 O 0.5827 0.47497 0.08202 0.0
O166 O 0.6276 0.81875 0.1347 0.0
O167 O 0.62119 0.68922 0.09666 0.0
O168 O 0.62059 0.57221 0.09055 0.0
C169 C 0.6319 0.86983 0.12052 0.0
O170 O 0.64137 0.85631 0.10021 0.0
O171 O 0.66504 0.72244 0.11994 0.0
C172 C 0.60753 0.38338 0.13661 0.0
O173 O 0.59726 0.41725 0.15323 0.0
O174 O 0.6146 0.41866 0.11891 0.0
O175 O 0.6173 0.55699 0.15211 0.0
O176 O 0.63152 0.66209 0.15791 0.0
O177 O 0.57833 0.52945 0.1174 0.0
C178 C 0.62367 0.63534 0.0831 0.0
C179 C 0.62508 0.60315 0.16589 0.0
Zn180 Zn 0.3701 0.27868 0.12968 0.0
Zn181 Zn 0.38638 0.47123 0.12097 0.0
C182 C 0.32705 0.30197 0.14404 0.0
O183 O 0.33244 0.35329 0.15878 0.0
C184 C 0.42491 0.47842 0.10434 0.0
O185 O 0.41396 0.50348 0.08659 0.0
O186 O 0.3794 0.17796 0.13389 0.0
O187 O 0.37601 0.31006 0.09527 0.0
O188 O 0.37867 0.4269 0.08924 0.0
C189 C 0.37448 0.12784 0.11964 0.0
O190 O 0.36411 0.14244 0.10008 0.0
O191 O 0.34012 0.26931 0.13171 0.0
C192 C 0.38764 0.61057 0.13863 0.0
O193 O 0.39482 0.57399 0.15693 0.0
O194 O 0.38234 0.57746 0.11958 0.0
O195 O 0.37074 0.43799 0.14973 0.0
O196 O 0.38181 0.33139 0.15831 0.0
O197 O 0.41637 0.4584 0.1238 0.0
C198 C 0.37749 0.36359 0.08123 0.0
C199 C 0.37868 0.39523 0.16452 0.0
Zn200 Zn 0.63852 0.29903 0.3646 0.0
Zn201 Zn 0.61592 0.49962 0.37185 0.0
C202 C 0.67954 0.29075 0.35739 0.0
O203 O 0.67274 0.27227 0.33596 0.0
C204 C 0.57901 0.53246 0.39155 0.0
O205 O 0.59112 0.55259 0.40893 0.0
O206 O 0.63338 0.1941 0.36473 0.0
O207 O 0.62044 0.34599 0.39052 0.0
O208 O 0.62413 0.45676 0.40295 0.0
C209 C 0.64125 0.15902 0.3819 0.0
O210 O 0.65113 0.19324 0.39881 0.0
O211 O 0.66732 0.30907 0.37377 0.0
C212 C 0.62006 0.64816 0.36013 0.0
O213 O 0.60319 0.63849 0.34865 0.0
O214 O 0.62867 0.59541 0.36985 0.0
O215 O 0.62509 0.42653 0.3496 0.0
O216 O 0.63537 0.33617 0.32964 0.0
O217 O 0.58626 0.50759 0.37206 0.0
C218 C 0.62548 0.39034 0.407 0.0
C219 C 0.62967 0.40009 0.32942 0.0
Zn220 Zn 0.36331 0.70866 0.3601 0.0
Zn221 Zn 0.3963 0.5113 0.37001 0.0
C222 C 0.3259 0.77519 0.35289 0.0
O223 O 0.33718 0.82219 0.34193 0.0
C224 C 0.43386 0.49949 0.39004 0.0
O225 O 0.42238 0.4761 0.40757 0.0
O226 O 0.37473 0.80817 0.36232 0.0
O227 O 0.37168 0.64538 0.38865 0.0
O228 O 0.38709 0.54898 0.40194 0.0
C229 C 0.37271 0.84302 0.38193 0.0
O230 O 0.36536 0.81075 0.40105 0.0
O231 O 0.3338 0.72011 0.36203 0.0
C232 C 0.38521 0.35833 0.35468 0.0
O233 O 0.38665 0.37255 0.33144 0.0
O234 O 0.388 0.40733 0.37023 0.0
O235 O 0.38388 0.5803 0.34735 0.0
O236 O 0.36944 0.66417 0.32716 0.0
O237 O 0.42604 0.51788 0.37004 0.0
C238 C 0.37714 0.6051 0.406 0.0
C239 C 0.37873 0.60558 0.32706 0.0
Zn240 Zn 0.38847 0.49181 0.86484 0.0
Zn241 Zn 0.35656 0.29427 0.85813 0.0
C242 C 0.4293 0.51549 0.87474 0.0
O243 O 0.42209 0.52781 0.89648 0.0
C244 C 0.31361 0.26307 0.86544 0.0
O245 O 0.31913 0.20314 0.87544 0.0
O246 O 0.37541 0.58854 0.86493 0.0
O247 O 0.37622 0.41699 0.84537 0.0
O248 O 0.36419 0.33134 0.8244 0.0
C249 C 0.38323 0.64287 0.85504 0.0
O250 O 0.39952 0.63541 0.84223 0.0
O251 O 0.41751 0.49946 0.85762 0.0
C252 C 0.36032 0.15343 0.8792 0.0
O253 O 0.35405 0.18684 0.89863 0.0
O254 O 0.36299 0.18858 0.85976 0.0
O255 O 0.3692 0.34948 0.88758 0.0
O256 O 0.38543 0.44893 0.89759 0.0
O257 O 0.32666 0.30717 0.85822 0.0
C258 C 0.37252 0.39155 0.82473 0.0
C259 C 0.37757 0.38963 0.90344 0.0
Zn260 Zn 0.61616 0.48823 0.87157 0.0
Zn261 Zn 0.64491 0.68738 0.8678 0.0
C262 C 0.57442 0.50087 0.88111 0.0
O263 O 0.58016 0.49307 0.90373 0.0
C264 C 0.68333 0.73685 0.86795 0.0
O265 O 0.67565 0.76234 0.84785 0.0
O266 O 0.62311 0.38445 0.86848 0.0
O267 O 0.63169 0.5547 0.85145 0.0
O268 O 0.64762 0.64007 0.83414 0.0
C269 C 0.61389 0.34774 0.85273 0.0
O270 O 0.60129 0.37956 0.83816 0.0
O271 O 0.58731 0.50126 0.86433 0.0
C272 C 0.63738 0.83744 0.87597 0.0
O273 O 0.64752 0.8268 0.896 0.0
O274 O 0.63399 0.78538 0.86187 0.0
O275 O 0.62534 0.63151 0.8895 0.0
O276 O 0.62216 0.5244 0.90465 0.0
O277 O 0.67247 0.69851 0.88156 0.0
C278 C 0.64002 0.57856 0.83269 0.0
C279 C 0.62738 0.58905 0.90738 0.0
Zn280 Zn 0.38695 0.52389 0.62257 0.0
Zn281 Zn 0.36411 0.71583 0.62684 0.0
C282 C 0.4289 0.52809 0.6157 0.0
O283 O 0.42298 0.51443 0.59347 0.0
C284 C 0.32737 0.74802 0.65013 0.0
O285 O 0.33978 0.77481 0.66609 0.0
O286 O 0.38298 0.41903 0.61737 0.0
O287 O 0.3679 0.55912 0.64761 0.0
O288 O 0.37658 0.66863 0.65645 0.0
C289 C 0.38351 0.36931 0.63295 0.0
O290 O 0.38642 0.38459 0.65593 0.0
O291 O 0.41587 0.53752 0.6321 0.0
C292 C 0.36987 0.85461 0.60696 0.0
O293 O 0.36331 0.82186 0.58749 0.0
O294 O 0.37214 0.81939 0.62643 0.0
O295 O 0.36864 0.67479 0.59318 0.0
O296 O 0.38108 0.56561 0.59023 0.0
O297 O 0.33432 0.7173 0.63146 0.0
C298 C 0.37466 0.6039 0.66264 0.0
C299 C 0.3745 0.62215 0.58065 0.0
Zn300 Zn 0.61618 0.47176 0.62424 0.0
Zn301 Zn 0.6398 0.28078 0.63146 0.0
C302 C 0.57441 0.48748 0.6169 0.0
O303 O 0.58097 0.50233 0.59503 0.0
C304 C 0.67717 0.2872 0.65658 0.0
O305 O 0.66527 0.28016 0.67529 0.0
O306 O 0.62296 0.57442 0.61728 0.0
O307 O 0.63312 0.44064 0.65251 0.0
O308 O 0.62608 0.3279 0.65992 0.0
C309 C 0.6193 0.625 0.63192 0.0
O310 O 0.61107 0.61069 0.65296 0.0
O311 O 0.58689 0.47044 0.63324 0.0
C312 C 0.64135 0.13982 0.61452 0.0
O313 O 0.65105 0.17416 0.59748 0.0
O314 O 0.63447 0.17483 0.63238 0.0
O315 O 0.63231 0.31152 0.59787 0.0
O316 O 0.62011 0.4201 0.59267 0.0
O317 O 0.6697 0.29063 0.63542 0.0
C318 C 0.62818 0.39167 0.66718 0.0
C319 C 0.62571 0.36051 0.5843 0.0
H320 H 0.21033 0.31788 0.17008 0.0
H321 H 0.20376 0.1374 0.12165 0.0
H322 H 0.24001 0.13593 0.11525 0.0
H323 H 0.2484 0.40562 0.13642 0.0
H324 H 0.26155 0.4366 0.16286 0.0
H325 H 0.23517 0.42225 0.16426 0.0
H326 H 0.23987 0.33702 0.2007 0.0
H327 H 0.26627 0.35137 0.1995 0.0
H328 H 0.25644 0.26242 0.19785 0.0
H329 H 0.27683 0.1561 0.11324 0.0
H330 H 0.31173 0.19379 0.11664 0.0
H331 H 0.29444 0.3613 0.16651 0.0
C332 C 0.21649 0.27756 0.15828 0.0
C333 C 0.20415 0.22752 0.14643 0.0
C334 C 0.21287 0.17608 0.13102 0.0
C335 C 0.23346 0.17492 0.12722 0.0
C336 C 0.24514 0.22548 0.13899 0.0
C337 C 0.237 0.27566 0.15428 0.0
C338 C 0.25282 0.3246 0.16449 0.0
C339 C 0.24927 0.40183 0.15652 0.0
C340 C 0.25391 0.31845 0.19228 0.0
C341 C 0.27117 0.29404 0.15257 0.0
C342 C 0.26638 0.23702 0.13788 0.0
C343 C 0.28076 0.20049 0.12476 0.0
C344 C 0.30057 0.22246 0.12681 0.0
C345 C 0.30591 0.28048 0.1419 0.0
C346 C 0.29091 0.31668 0.15488 0.0
H347 H 0.79221 0.74983 0.17176 0.0
H348 H 0.80347 0.82074 0.0981 0.0
H349 H 0.76768 0.81208 0.089 0.0
H350 H 0.75476 0.62368 0.15771 0.0
H351 H 0.73986 0.64272 0.18406 0.0
H352 H 0.76628 0.65642 0.18505 0.0
H353 H 0.76096 0.78758 0.19775 0.0
H354 H 0.73452 0.77405 0.19704 0.0
H355 H 0.74555 0.84414 0.17931 0.0
H356 H 0.73069 0.78918 0.08736 0.0
H357 H 0.69514 0.76406 0.09444 0.0
H358 H 0.70816 0.71181 0.16947 0.0
C359 C 0.78715 0.76417 0.15377 0.0
C360 C 0.80068 0.78591 0.13565 0.0
C361 C 0.7934 0.80425 0.11234 0.0
C362 C 0.7731 0.79919 0.10695 0.0
C363 C 0.76022 0.77638 0.12513 0.0
C364 C 0.76693 0.76007 0.14816 0.0
C365 C 0.75003 0.73722 0.16448 0.0
C366 C 0.75291 0.66045 0.17334 0.0
C367 C 0.74763 0.78884 0.18591 0.0
C368 C 0.73278 0.74264 0.147 0.0
C369 C 0.73895 0.76487 0.12434 0.0
C370 C 0.72568 0.77227 0.1051 0.0
C371 C 0.70553 0.75759 0.10926 0.0
C372 C 0.69885 0.73628 0.13253 0.0
C373 C 0.71276 0.72843 0.15152 0.0
H374 H 0.29754 0.6791 0.36683 0.0
H375 H 0.30552 0.89656 0.34242 0.0
H376 H 0.26933 0.91489 0.34406 0.0
H377 H 0.25473 0.64314 0.33233 0.0
H378 H 0.24284 0.58955 0.35521 0.0
H379 H 0.26947 0.59511 0.35412 0.0
H380 H 0.27016 0.63717 0.3989 0.0
H381 H 0.2435 0.63162 0.40014 0.0
H382 H 0.25583 0.71366 0.40774 0.0
H383 H 0.23246 0.90879 0.34718 0.0
H384 H 0.19701 0.87687 0.34957 0.0
H385 H 0.21297 0.66205 0.37043 0.0
C386 C 0.29169 0.7308 0.36207 0.0
C387 C 0.30432 0.78647 0.35453 0.0
C388 C 0.2961 0.85312 0.3482 0.0
C389 C 0.27559 0.86417 0.34919 0.0
C390 C 0.26354 0.808 0.35649 0.0
C391 C 0.27125 0.74258 0.36277 0.0
C392 C 0.25497 0.69002 0.36877 0.0
C393 C 0.25554 0.62568 0.35157 0.0
C394 C 0.25619 0.66677 0.39548 0.0
C395 C 0.23689 0.73565 0.36426 0.0
C396 C 0.24219 0.80386 0.35762 0.0
C397 C 0.2281 0.85562 0.35241 0.0
C398 C 0.20803 0.83697 0.35382 0.0
C399 C 0.20229 0.76691 0.36004 0.0
C400 C 0.21694 0.71586 0.36546 0.0
H401 H 0.79272 0.23549 0.32291 0.0
H402 H 0.80506 0.2003 0.39924 0.0
H403 H 0.76967 0.22116 0.40882 0.0
H404 H 0.75763 0.37475 0.33053 0.0
H405 H 0.74196 0.34565 0.30596 0.0
H406 H 0.76814 0.32723 0.30523 0.0
H407 H 0.76088 0.1927 0.30033 0.0
H408 H 0.73468 0.21078 0.30076 0.0
H409 H 0.74513 0.14859 0.32206 0.0
H410 H 0.73287 0.25121 0.4099 0.0
H411 H 0.69736 0.27572 0.4019 0.0
H412 H 0.70975 0.28726 0.32476 0.0
C413 C 0.78799 0.23173 0.34165 0.0
C414 C 0.80161 0.21633 0.36034 0.0
C415 C 0.79482 0.21163 0.38461 0.0
C416 C 0.7748 0.22384 0.39024 0.0
C417 C 0.76181 0.24011 0.37135 0.0
C418 C 0.76813 0.24314 0.34752 0.0
C419 C 0.75128 0.26041 0.33046 0.0
C420 C 0.75498 0.33122 0.31728 0.0
C421 C 0.74778 0.19948 0.31234 0.0
C422 C 0.73442 0.26658 0.34836 0.0
C423 C 0.74076 0.25554 0.37191 0.0
C424 C 0.72774 0.25963 0.39152 0.0
C425 C 0.70766 0.274 0.38683 0.0
C426 C 0.70086 0.28323 0.36272 0.0
C427 C 0.71451 0.28012 0.34337 0.0
H428 H 0.70924 0.81686 0.84171 0.0
H429 H 0.70494 0.69056 0.90737 0.0
H430 H 0.74057 0.71257 0.91552 0.0
H431 H 0.75537 0.75477 0.82308 0.0
H432 H 0.76373 0.83879 0.81117 0.0
H433 H 0.73766 0.81883 0.81211 0.0
H434 H 0.73137 0.9336 0.83693 0.0
H435 H 0.75748 0.95392 0.83611 0.0
H436 H 0.74477 0.94807 0.8648 0.0
H437 H 0.77738 0.74227 0.91464 0.0
H438 H 0.81201 0.77225 0.9041 0.0
H439 H 0.7915 0.87792 0.83878 0.0
C440 C 0.71566 0.79442 0.858 0.0
C441 C 0.7043 0.75203 0.87394 0.0
C442 C 0.71336 0.72335 0.89494 0.0
C443 C 0.73356 0.73578 0.89974 0.0
C444 C 0.74437 0.7773 0.88344 0.0
C445 C 0.73567 0.80621 0.86302 0.0
C446 C 0.75062 0.84525 0.84751 0.0
C447 C 0.75192 0.81241 0.82197 0.0
C448 C 0.74577 0.92494 0.84628 0.0
C449 C 0.76929 0.8321 0.86196 0.0
C450 C 0.76539 0.79379 0.88283 0.0
C451 C 0.78054 0.77287 0.89848 0.0
C452 C 0.80017 0.79031 0.89235 0.0
C453 C 0.80447 0.8276 0.87062 0.0
C454 C 0.78872 0.84979 0.85558 0.0
H455 H 0.28167 0.19416 0.88503 0.0
H456 H 0.29779 0.35829 0.83332 0.0
H457 H 0.26263 0.3701 0.82145 0.0
H458 H 0.2448 0.11008 0.84957 0.0
H459 H 0.2283 0.09266 0.8746 0.0
H460 H 0.25461 0.09872 0.87975 0.0
H461 H 0.24899 0.19714 0.91188 0.0
H462 H 0.22263 0.19079 0.90706 0.0
H463 H 0.235 0.27517 0.90382 0.0
H464 H 0.2261 0.35893 0.81354 0.0
H465 H 0.19017 0.33392 0.81283 0.0
H466 H 0.19784 0.17938 0.87056 0.0
C467 C 0.27778 0.23304 0.87136 0.0
C468 C 0.29245 0.2752 0.86005 0.0
C469 C 0.28677 0.32568 0.84231 0.0
C470 C 0.26687 0.33253 0.83536 0.0
C471 C 0.25284 0.28912 0.84654 0.0
C472 C 0.25799 0.24113 0.86441 0.0
C473 C 0.24003 0.20117 0.87369 0.0
C474 C 0.24206 0.12091 0.86912 0.0
C475 C 0.23645 0.21705 0.90071 0.0
C476 C 0.224 0.23341 0.85795 0.0
C477 C 0.23172 0.28382 0.84236 0.0
C478 C 0.21985 0.31999 0.8258 0.0
C479 C 0.19947 0.30517 0.82547 0.0
C480 C 0.19117 0.25487 0.84168 0.0
C481 C 0.2037 0.21825 0.85797 0.0
H482 H 0.70668 0.25893 0.62321 0.0
H483 H 0.69683 0.31527 0.69863 0.0
H484 H 0.73283 0.30995 0.70617 0.0
H485 H 0.74527 0.13316 0.63457 0.0
H486 H 0.75961 0.15594 0.60809 0.0
H487 H 0.73311 0.16787 0.60797 0.0
H488 H 0.73765 0.30039 0.59669 0.0
H489 H 0.76417 0.28875 0.59661 0.0
H490 H 0.7531 0.35622 0.61542 0.0
H491 H 0.76953 0.29707 0.70599 0.0
H492 H 0.80505 0.2772 0.69815 0.0
H493 H 0.79169 0.22499 0.62315 0.0
C494 C 0.71215 0.27097 0.64122 0.0
C495 C 0.69893 0.28781 0.66033 0.0
C496 C 0.70664 0.30218 0.68373 0.0
C497 C 0.72708 0.29937 0.6882 0.0
C498 C 0.73967 0.28161 0.66913 0.0
C499 C 0.73257 0.26761 0.64609 0.0
C500 C 0.74938 0.2476 0.62907 0.0
C501 C 0.74667 0.17162 0.61936 0.0
C502 C 0.75118 0.30146 0.60822 0.0
C503 C 0.76698 0.25243 0.6462 0.0
C504 C 0.76098 0.2725 0.66916 0.0
C505 C 0.77443 0.28128 0.68809 0.0
C506 C 0.79459 0.26978 0.68345 0.0
C507 C 0.80119 0.24919 0.66008 0.0
C508 C 0.78711 0.24003 0.64126 0.0
H509 H 0.21162 0.74411 0.61459 0.0
H510 H 0.20006 0.7993 0.68973 0.0
H511 H 0.23593 0.80262 0.69788 0.0
H512 H 0.25232 0.62663 0.62773 0.0
H513 H 0.26661 0.65086 0.60137 0.0
H514 H 0.23996 0.65691 0.60064 0.0
H515 H 0.24245 0.78934 0.58838 0.0
H516 H 0.26912 0.78363 0.58901 0.0
H517 H 0.25659 0.8497 0.60701 0.0
H518 H 0.27255 0.80021 0.69839 0.0
H519 H 0.30844 0.78662 0.69169 0.0
H520 H 0.29725 0.72634 0.61684 0.0
C521 C 0.21673 0.75749 0.63265 0.0
C522 C 0.20309 0.7717 0.65154 0.0
C523 C 0.21025 0.78794 0.67504 0.0
C524 C 0.2306 0.79024 0.67984 0.0
C525 C 0.24368 0.77526 0.66103 0.0
C526 C 0.23714 0.75867 0.63793 0.0
C527 C 0.25453 0.74138 0.62143 0.0
C528 C 0.25327 0.66437 0.61226 0.0
C529 C 0.25574 0.79418 0.60021 0.0
C530 C 0.27175 0.75113 0.63892 0.0
C531 C 0.26507 0.77127 0.66157 0.0
C532 C 0.27801 0.78425 0.68076 0.0
C533 C 0.29838 0.77638 0.67676 0.0
C534 C 0.30569 0.75505 0.65381 0.0
C535 C 0.29213 0.74216 0.63466 0.0
H536 H 0.13196 0.84324 0.28258 0.0
H537 H 0.09935 1.00091 0.32361 0.0
H538 H 0.09437 0.07114 0.28616 0.0
H539 H 0.15803 0.95864 0.24544 0.0
H540 H 0.15655 0.90376 0.21869 0.0
H541 H 0.15559 0.86362 0.24825 0.0
H542 H 0.1224 0.80352 0.2368 0.0
H543 H 0.12253 0.84526 0.20743 0.0
H544 H 0.10169 0.85728 0.22727 0.0
H545 H 0.09585 0.129 0.24471 0.0
H546 H 0.10343 0.16915 0.20296 0.0
H547 H 0.13561 0.97364 0.18995 0.0
C548 C 0.12345 0.89187 0.28364 0.0
C549 C 0.1161 0.91699 0.306 0.0
C550 C 0.10522 0.98118 0.30666 0.0
C551 C 0.10224 0.02113 0.28547 0.0
C552 C 0.11011 0.99564 0.26377 0.0
C553 C 0.12039 0.93225 0.26273 0.0
C554 C 0.1282 0.91803 0.23751 0.0
C555 C 0.15094 0.91062 0.23749 0.0
C556 C 0.11811 0.85209 0.22663 0.0
C557 C 0.12161 0.98498 0.22474 0.0
C558 C 0.11084 0.02854 0.24001 0.0
C559 C 0.10402 0.09485 0.2325 0.0
C560 C 0.10846 0.11732 0.20882 0.0
C561 C 0.11974 0.07379 0.19305 0.0
C562 C 0.12629 0.00682 0.20121 0.0
H563 H 0.86474 0.14429 0.28053 0.0
H564 H 0.89349 0.97575 0.32099 0.0
H565 H 0.897 0.90587 0.28333 0.0
H566 H 0.83679 0.0361 0.24079 0.0
H567 H 0.84021 0.09262 0.21472 0.0
H568 H 0.84081 0.13008 0.24475 0.0
H569 H 0.87529 0.18346 0.23559 0.0
H570 H 0.87558 0.14397 0.20584 0.0
H571 H 0.89537 0.12586 0.22675 0.0
H572 H 0.89624 0.85271 0.24137 0.0
H573 H 0.89143 0.82041 0.19834 0.0
H574 H 0.86244 0.02276 0.18568 0.0
C575 C 0.87192 0.09294 0.28144 0.0
C576 C 0.87878 0.06523 0.3037 0.0
C577 C 0.88803 0.99775 0.30414 0.0
C578 C 0.89014 0.95777 0.28283 0.0
C579 C 0.88298 0.98623 0.26121 0.0
C580 C 0.87412 0.05233 0.26035 0.0
C581 C 0.86751 0.07041 0.23486 0.0
C582 C 0.84499 0.08301 0.23373 0.0
C583 C 0.87912 0.13478 0.22521 0.0
C584 C 0.87336 0.0031 0.22168 0.0
C585 C 0.88254 0.95563 0.23711 0.0
C586 C 0.88914 0.8896 0.22909 0.0
C587 C 0.88627 0.87165 0.20462 0.0
C588 C 0.87675 0.91933 0.1885 0.0
C589 C 0.87017 0.98574 0.19731 0.0
H590 H 0.86688 0.97616 0.68459 0.0
H591 H 0.8923 0.18392 0.69914 0.0
H592 H 0.89814 0.14886 0.7417 0.0
H593 H 0.84055 0.9618 0.73881 0.0
H594 H 0.84452 0.86785 0.74274 0.0
H595 H 0.84453 0.90564 0.71276 0.0
H596 H 0.87949 0.85396 0.70481 0.0
H597 H 0.87958 0.81547 0.73475 0.0
H598 H 0.8994 0.8739 0.72556 0.0
H599 H 0.89896 0.09519 0.783 0.0
H600 H 0.89437 0.02709 0.82066 0.0
H601 H 0.86742 0.85519 0.77985 0.0
C602 C 0.87401 0.01391 0.69659 0.0
C603 C 0.87917 0.08284 0.68852 0.0
C604 C 0.88823 0.13089 0.70491 0.0
C605 C 0.89166 0.11137 0.72909 0.0
C606 C 0.88598 0.04364 0.73656 0.0
C607 C 0.87739 0.99553 0.72081 0.0
C608 C 0.87141 0.92793 0.73386 0.0
C609 C 0.84892 0.91511 0.73193 0.0
C610 C 0.88317 0.86404 0.72417 0.0
C611 C 0.87748 0.94636 0.75957 0.0
C612 C 0.88611 0.01296 0.7606 0.0
C613 C 0.89236 0.0428 0.78239 0.0
C614 C 0.8896 0.00381 0.80374 0.0
C615 C 0.88047 0.93603 0.80326 0.0
C616 C 0.87451 0.90675 0.78079 0.0
H617 H 0.14123 0.97327 0.80398 0.0
H618 H 0.11457 0.17985 0.79122 0.0
H619 H 0.11102 0.15095 0.74784 0.0
H620 H 0.16864 0.96334 0.74767 0.0
H621 H 0.1643 0.86951 0.74385 0.0
H622 H 0.16524 0.90723 0.77385 0.0
H623 H 0.13059 0.85515 0.78298 0.0
H624 H 0.12921 0.81798 0.75292 0.0
H625 H 0.10998 0.87676 0.7635 0.0
H626 H 0.10945 0.09908 0.70621 0.0
H627 H 0.11131 0.02824 0.6686 0.0
H628 H 0.13895 0.85615 0.70818 0.0
C629 C 0.13473 0.01257 0.79206 0.0
C630 C 0.12808 0.07869 0.80103 0.0
C631 C 0.11965 0.12864 0.7848 0.0
C632 C 0.11758 0.1128 0.76012 0.0
C633 C 0.12397 0.04679 0.75196 0.0
C634 C 0.13246 0.99754 0.76736 0.0
C635 C 0.13786 0.93014 0.75393 0.0
C636 C 0.16034 0.91682 0.75488 0.0
C637 C 0.1262 0.86624 0.76392 0.0
C638 C 0.13112 0.9494 0.72857 0.0
C639 C 0.1231 0.01683 0.72787 0.0
C640 C 0.11574 0.04624 0.70652 0.0
C641 C 0.1168 0.00578 0.68525 0.0
C642 C 0.12525 0.93719 0.68541 0.0
C643 C 0.13239 0.90857 0.70745 0.0
H644 H 0.62867 0.35224 0.28231 0.0
H645 H 0.62974 0.54355 0.32598 0.0
H646 H 0.62948 0.61686 0.28897 0.0
H647 H 0.66017 0.41721 0.23408 0.0
H648 H 0.64632 0.37351 0.21039 0.0
H649 H 0.64702 0.33586 0.24042 0.0
H650 H 0.6086 0.33666 0.2419 0.0
H651 H 0.60784 0.37444 0.2119 0.0
H652 H 0.59549 0.41864 0.23664 0.0
H653 H 0.6299 0.6692 0.24732 0.0
H654 H 0.62837 0.69736 0.20353 0.0
H655 H 0.62582 0.47205 0.18698 0.0
C656 C 0.62884 0.40954 0.28402 0.0
C657 C 0.62904 0.44257 0.307 0.0
C658 C 0.62923 0.51754 0.30856 0.0
C659 C 0.62926 0.55952 0.28764 0.0
C660 C 0.62903 0.5255 0.26525 0.0
C661 C 0.62866 0.45227 0.26325 0.0
C662 C 0.62789 0.42931 0.23695 0.0
C663 C 0.64646 0.38645 0.23006 0.0
C664 C 0.60881 0.38729 0.23154 0.0
C665 C 0.62775 0.50107 0.22459 0.0
C666 C 0.62868 0.55583 0.24121 0.0
C667 C 0.62906 0.62684 0.23408 0.0
C668 C 0.62824 0.64231 0.20923 0.0
C669 C 0.62676 0.58694 0.19195 0.0
C670 C 0.62665 0.51553 0.19981 0.0
H671 H 0.36274 0.63219 0.28244 0.0
H672 H 0.40438 0.49518 0.31988 0.0
H673 H 0.40947 0.42686 0.28204 0.0
H674 H 0.34011 0.4995 0.2466 0.0
H675 H 0.3374 0.55463 0.22008 0.0
H676 H 0.33769 0.59439 0.24978 0.0
H677 H 0.36689 0.676 0.23688 0.0
H678 H 0.36652 0.63673 0.20709 0.0
H679 H 0.3891 0.63685 0.22459 0.0
H680 H 0.40831 0.36935 0.24068 0.0
H681 H 0.40254 0.33133 0.19828 0.0
H682 H 0.36258 0.50933 0.18797 0.0
C683 C 0.37311 0.58834 0.28262 0.0
C684 C 0.38298 0.56815 0.30414 0.0
C685 C 0.39641 0.51052 0.30365 0.0
C686 C 0.39947 0.47174 0.28225 0.0
C687 C 0.38915 0.49202 0.26147 0.0
C688 C 0.37641 0.54947 0.26142 0.0
C689 C 0.36685 0.55963 0.23683 0.0
C690 C 0.34418 0.55153 0.23843 0.0
C691 C 0.3727 0.63157 0.2257 0.0
C692 C 0.37609 0.49859 0.22309 0.0
C693 C 0.38885 0.46002 0.23759 0.0
C694 C 0.3985 0.39956 0.22907 0.0
C695 C 0.39507 0.37822 0.20504 0.0
C696 C 0.38221 0.41759 0.18983 0.0
C697 C 0.37268 0.47858 0.19906 0.0
H698 H 0.3616 0.35647 0.77846 0.0
H699 H 0.39391 0.5143 0.81992 0.0
H700 H 0.3996 0.58387 0.78259 0.0
H701 H 0.39156 0.36579 0.7231 0.0
H702 H 0.37022 0.35527 0.70372 0.0
H703 H 0.37034 0.31605 0.73351 0.0
H704 H 0.33766 0.38269 0.74357 0.0
H705 H 0.33774 0.42271 0.71392 0.0
H706 H 0.33681 0.47799 0.7406 0.0
H707 H 0.39961 0.64018 0.74094 0.0
H708 H 0.39464 0.677 0.69825 0.0
H709 H 0.36252 0.48114 0.68443 0.0
C710 C 0.37019 0.40499 0.77964 0.0
C711 C 0.37742 0.42996 0.80212 0.0
C712 C 0.38829 0.49428 0.80292 0.0
C713 C 0.39161 0.53404 0.78178 0.0
C714 C 0.38398 0.50853 0.75996 0.0
C715 C 0.37357 0.44528 0.75874 0.0
C716 C 0.36602 0.43134 0.73333 0.0
C717 C 0.37509 0.36308 0.7228 0.0
C718 C 0.34321 0.42855 0.73284 0.0
C719 C 0.37376 0.49666 0.72047 0.0
C720 C 0.38406 0.54068 0.73609 0.0
C721 C 0.39175 0.60577 0.72848 0.0
C722 C 0.38881 0.62633 0.70425 0.0
C723 C 0.37833 0.58176 0.68798 0.0
C724 C 0.37086 0.51599 0.69629 0.0
H725 H 0.63952 0.63088 0.78619 0.0
H726 H 0.63982 0.43566 0.82772 0.0
H727 H 0.63581 0.36611 0.79004 0.0
H728 H 0.60316 0.57717 0.74255 0.0
H729 H 0.61505 0.62057 0.71728 0.0
H730 H 0.61815 0.6552 0.74751 0.0
H731 H 0.65635 0.64666 0.74308 0.0
H732 H 0.65332 0.61266 0.71276 0.0
H733 H 0.66743 0.56304 0.73476 0.0
H734 H 0.63085 0.3185 0.74815 0.0
H735 H 0.62734 0.29466 0.70436 0.0
H736 H 0.63114 0.52104 0.68974 0.0
C737 C 0.63895 0.57348 0.78724 0.0
C738 C 0.63955 0.53822 0.80982 0.0
C739 C 0.63873 0.46325 0.81059 0.0
C740 C 0.63664 0.42347 0.7893 0.0
C741 C 0.63555 0.45973 0.76734 0.0
C742 C 0.63686 0.53296 0.76608 0.0
C743 C 0.63522 0.5586 0.74011 0.0
C744 C 0.6168 0.60566 0.73667 0.0
C745 C 0.65422 0.59752 0.73222 0.0
C746 C 0.63291 0.48834 0.72703 0.0
C747 C 0.63302 0.43206 0.74309 0.0
C748 C 0.63085 0.36207 0.73534 0.0
C749 C 0.6288 0.34912 0.71043 0.0
C750 C 0.62909 0.40591 0.69356 0.0
C751 C 0.63099 0.4764 0.70212 0.0
H752 H 0.11657 0.03372 0.94792 0.0
H753 H 0.13503 0.25105 0.93391 0.0
H754 H 0.13465 0.27591 0.97771 0.0
H755 H 0.08335 0.07691 -0.00184 0.0
H756 H 0.08953 0.99815 0.01512 0.0
H757 H 0.09069 0.99718 0.98245 0.0
H758 H 0.12732 0.95603 0.98442 0.0
H759 H 0.12624 0.95665 0.01705 0.0
H760 H 0.14501 0.00759 0.00154 0.0
H761 H 0.13408 0.27632 0.02266 0.0
H762 H 0.13285 0.25246 0.06652 0.0
H763 H 0.11351 0.03637 0.05188 0.0
C764 C 0.12051 0.08649 0.95409 0.0
C765 C 0.12586 0.14037 0.93748 0.0
C766 C 0.13079 0.20895 0.94626 0.0
C767 C 0.13063 0.22369 0.97112 0.0
C768 C 0.12528 0.16958 0.98698 0.0
C769 C 0.1202 0.10248 0.97891 0.0
C770 C 0.1152 0.05394 -3e-05 0.0
C771 C 0.0934 0.03016 -0.00115 0.0
C772 C 0.12929 0.98978 0.00079 0.0
C773 C 0.11878 0.10389 0.02109 0.0
C774 C 0.12449 0.17037 0.01314 0.0
C775 C 0.12941 0.22472 0.02917 0.0
C776 C 0.12864 0.21061 0.05408 0.0
C777 C 0.12292 0.14276 0.06274 0.0
C778 C 0.11773 0.08905 0.04591 0.0
H779 H 0.88793 0.98149 0.94225 0.0
H780 H 0.88165 0.76005 0.92153 0.0
H781 H 0.88023 0.72662 0.965 0.0
H782 H 0.91955 0.95225 0.99348 0.0
H783 H 0.90853 0.02251 0.01111 0.0
H784 H 0.90885 0.02817 0.97849 0.0
H785 H 0.87064 0.04352 0.97803 0.0
H786 H 0.87021 0.03829 0.01063 0.0
H787 H 0.85525 0.9783 0.99286 0.0
H788 H 0.87905 0.71904 0.01113 0.0
H789 H 0.8779 0.73722 0.05543 0.0
H790 H 0.88605 0.96393 0.04486 0.0
C791 C 0.88626 0.92578 0.94669 0.0
C792 C 0.88489 0.87329 0.92842 0.0
C793 C 0.8827 0.80116 0.9352 0.0
C794 C 0.88193 0.78173 0.95983 0.0
C795 C 0.8835 0.83508 0.97733 0.0
C796 C 0.88564 0.90559 0.97099 0.0
C797 C 0.88701 0.9531 0.99304 0.0
C798 C 0.90719 0.99123 0.99409 0.0
C799 C 0.86975 0.00642 0.99367 0.0
C800 C 0.88515 0.89846 0.01295 0.0
C801 C 0.88314 0.83068 0.0036 0.0
C802 C 0.8807 0.77187 0.01861 0.0
C803 C 0.88009 0.7828 0.04379 0.0
C804 C 0.88196 0.85202 0.05374 0.0
C805 C 0.88472 0.91027 0.03797 0.0
H806 H 0.12582 0.9777 0.4439 0.0
H807 H 0.12582 0.75115 0.43004 0.0
H808 H 0.13052 0.72852 0.47404 0.0
H809 H 0.16242 0.97608 0.49317 0.0
H810 H 0.14969 0.04543 0.50944 0.0
H811 H 0.14855 0.04233 0.47679 0.0
H812 H 0.11011 0.04113 0.47869 0.0
H813 H 0.11112 0.04434 0.51125 0.0
H814 H 0.09772 0.97379 0.49637 0.0
H815 H 0.1329 0.73275 0.52063 0.0
H816 H 0.13104 0.76297 0.56445 0.0
H817 H 0.12859 0.98662 0.54604 0.0
C818 C 0.12698 0.9232 0.45003 0.0
C819 C 0.12564 0.86603 0.4336 0.0
C820 C 0.12724 0.79561 0.44233 0.0
C821 C 0.12984 0.7824 0.46727 0.0
C822 C 0.13098 0.84036 0.48304 0.0
C823 C 0.12964 0.90934 0.47461 0.0
C824 C 0.13011 0.96268 0.49502 0.0
C825 C 0.14881 0.00937 0.49351 0.0
C826 C 0.11114 0.00809 0.49535 0.0
C827 C 0.13105 0.9131 0.51646 0.0
C828 C 0.13197 0.84274 0.50935 0.0
C829 C 0.13235 0.78771 0.52634 0.0
C830 C 0.13134 0.80527 0.55114 0.0
C831 C 0.1296 0.87704 0.55849 0.0
C832 C 0.12984 0.93127 0.5409 0.0
H833 H 0.88246 0.04065 0.54663 0.0
H834 H 0.86074 0.25509 0.55808 0.0
H835 H 0.861 0.27534 0.5138 0.0
H836 H 0.91492 0.08247 0.49618 0.0
H837 H 0.90968 1.00025 0.4807 0.0
H838 H 0.90854 0.00418 0.51333 0.0
H839 H 0.87243 0.95678 0.5122 0.0
H840 H 0.87345 0.95266 0.47961 0.0
H841 H 0.85412 0.00279 0.4943 0.0
H842 H 0.86355 0.27123 0.46766 0.0
H843 H 0.86679 0.24061 0.42408 0.0
H844 H 0.88565 0.02824 0.44399 0.0
C845 C 0.8778 0.09205 0.53993 0.0
C846 C 0.87153 0.1462 0.55591 0.0
C847 C 0.86555 0.21262 0.54624 0.0
C848 C 0.86571 0.22475 0.52111 0.0
C849 C 0.87191 0.17001 0.50589 0.0
C850 C 0.87782 0.10498 0.51499 0.0
C851 C 0.88335 0.05413 0.49491 0.0
C852 C 0.90543 0.0341 0.49637 0.0
C853 C 0.87003 0.9877 0.49528 0.0
C854 C 0.87918 0.10008 0.47303 0.0
C855 C 0.8729 0.16713 0.47962 0.0
C856 C 0.86841 0.21877 0.46231 0.0
C857 C 0.87027 0.20101 0.43763 0.0
C858 C 0.87624 0.13198 0.4306 0.0
C859 C 0.88082 0.08132 0.44866 0.0
H860 H 0.60397 0.56625 0.04726 0.0
H861 H 0.64783 0.73036 0.06009 0.0
H862 H 0.65235 0.74458 0.01561 0.0
H863 H 0.62618 0.4824 -0.00124 0.0
H864 H 0.60352 0.46639 0.98225 0.0
H865 H 0.60295 0.47422 0.01474 0.0
H866 H 0.57695 0.57507 0.01137 0.0
H867 H 0.57743 0.56764 0.97877 0.0
H868 H 0.58234 0.65198 0.99304 0.0
H869 H 0.65344 0.73305 0.96905 0.0
H870 H 0.65082 0.69666 0.92573 0.0
H871 H 0.60571 0.54278 0.94531 0.0
C872 C 0.61445 0.60541 0.04067 0.0
C873 C 0.62571 0.64678 0.05686 0.0
C874 C 0.63907 0.69831 0.04775 0.0
C875 C 0.6417 0.70675 0.02261 0.0
C876 C 0.63045 0.66441 0.00702 0.0
C877 C 0.61689 0.61549 0.01581 0.0
C878 C 0.60679 0.57547 0.99561 0.0
C879 C 0.61008 0.49488 -0.00201 0.0
C880 C 0.58456 0.59364 0.99465 0.0
C881 C 0.61765 0.60603 0.97408 0.0
C882 C 0.63095 0.65839 0.98076 0.0
C883 C 0.64293 0.69253 0.96363 0.0
C884 C 0.64139 0.67171 0.93914 0.0
C885 C 0.62826 0.61654 0.93236 0.0
C886 C 0.61608 0.58453 0.95004 0.0
H887 H 0.37924 0.47891 0.94228 0.0
H888 H 0.37741 0.25592 0.92314 0.0
H889 H 0.37677 0.22387 0.96667 0.0
H890 H 0.41233 0.45705 0.99341 0.0
H891 H 0.4006 0.52601 0.01093 0.0
H892 H 0.40046 0.53048 0.97829 0.0
H893 H 0.36209 0.53949 0.97858 0.0
H894 H 0.36212 0.53502 0.0112 0.0
H895 H 0.34776 0.47211 0.99386 0.0
H896 H 0.37591 0.21752 0.01254 0.0
H897 H 0.37571 0.23639 0.05686 0.0
H898 H 0.3797 0.46427 0.04538 0.0
C899 C 0.37869 0.42326 0.94722 0.0
C900 C 0.37762 0.36962 0.92934 0.0
C901 C 0.37718 0.29759 0.93655 0.0
C902 C 0.37717 0.27906 0.96122 0.0
C903 C 0.3779 0.3334 0.97838 0.0
C904 C 0.37883 0.40401 0.97166 0.0
C905 C 0.37981 0.45236 0.99354 0.0
C906 C 0.39947 0.49391 0.99407 0.0
C907 C 0.36187 0.50269 0.99434 0.0
C908 C 0.37894 0.39802 0.01369 0.0
C909 C 0.37792 0.32968 0.00462 0.0
C910 C 0.37677 0.27079 0.01984 0.0
C911 C 0.37663 0.28212 0.045 0.0
C912 C 0.37763 0.35186 0.05467 0.0
C913 C 0.37888 0.41029 0.03866 0.0
H914 H 0.63187 0.47528 0.44622 0.0
H915 H 0.62164 0.25528 0.42606 0.0
H916 H 0.62158 0.22202 0.46955 0.0
H917 H 0.66329 0.44263 0.4984 0.0
H918 H 0.65272 0.51517 0.51534 0.0
H919 H 0.65372 0.51927 0.48272 0.0
H920 H 0.61574 0.54045 0.48136 0.0
H921 H 0.61457 0.5357 0.51394 0.0
H922 H 0.59935 0.47759 0.49577 0.0
H923 H 0.62192 0.21466 0.5158 0.0
H924 H 0.62178 0.23397 0.56025 0.0
H925 H 0.62935 0.46032 0.54879 0.0
C926 C 0.6298 0.41983 0.45079 0.0
C927 C 0.62684 0.36778 0.43267 0.0
C928 C 0.62412 0.29598 0.4396 0.0
C929 C 0.624 0.27668 0.46425 0.0
C930 C 0.62653 0.32991 0.48161 0.0
C931 C 0.62937 0.39999 0.4751 0.0
C932 C 0.6308 0.44799 0.497 0.0
C933 C 0.65136 0.48332 0.49845 0.0
C934 C 0.61412 0.50369 0.49701 0.0
C935 C 0.62801 0.39423 0.51701 0.0
C936 C 0.62587 0.32621 0.50787 0.0
C937 C 0.62354 0.26771 0.5231 0.0
C938 C 0.62347 0.27917 0.54827 0.0
C939 C 0.62537 0.3487 0.55786 0.0
C940 C 0.62758 0.40674 0.54195 0.0
H941 H 0.38773 0.71143 0.54444 0.0
H942 H 0.35105 0.52687 0.55872 0.0
H943 H 0.34316 0.51725 0.51518 0.0
H944 H 0.35853 0.78359 0.49212 0.0
H945 H 0.38048 0.80825 0.47545 0.0
H946 H 0.38071 0.80917 0.50817 0.0
H947 H 0.41103 0.72472 0.50834 0.0
H948 H 0.41098 0.72417 0.47571 0.0
H949 H 0.40959 0.6416 0.49217 0.0
H950 H 0.34178 0.51878 0.47099 0.0
H951 H 0.34981 0.52347 0.42738 0.0
H952 H 0.38842 0.70384 0.43993 0.0
C953 C 0.37772 0.67015 0.53827 0.0
C954 C 0.36977 0.6202 0.5547 0.0
C955 C 0.35717 0.56556 0.54623 0.0
C956 C 0.35247 0.56012 0.52162 0.0
C957 C 0.36066 0.60946 0.50571 0.0
C958 C 0.3732 0.66301 0.51352 0.0
C959 C 0.38195 0.70293 0.49211 0.0
C960 C 0.375 0.78061 0.49196 0.0
C961 C 0.40474 0.69801 0.49209 0.0
C962 C 0.37292 0.66166 0.47116 0.0
C963 C 0.36027 0.60926 0.47956 0.0
C964 C 0.35131 0.56039 0.46409 0.0
C965 C 0.3559 0.5635 0.43941 0.0
C966 C 0.3693 0.61492 0.43051 0.0
C967 C 0.3776 0.66569 0.44638 0.0
H968 H 0.95865 0.98491 0.08507 0.0
H969 H 0.94365 0.98672 0.16162 0.0
H970 H 0.97936 0.99477 0.17193 0.0
H971 H 0.00237 0.87694 0.09066 0.0
H972 H 0.01561 0.92419 0.06726 0.0
H973 H 0.98896 0.91891 0.06628 0.0
H974 H 0.98691 0.05628 0.06461 0.0
H975 H 0.01355 0.06199 0.0657 0.0
H976 H 0.99882 0.10821 0.08793 0.0
H977 H 0.01723 0.00605 0.17347 0.0
H978 H 0.05346 0.01247 0.1661 0.0
H979 H 0.04281 0.99996 0.08857 0.0
C980 C 0.96282 0.98692 0.10404 0.0
C981 C 0.94834 0.98537 0.12255 0.0
C982 C 0.95449 0.98765 0.14713 0.0
C983 C 0.97473 0.99246 0.15315 0.0
C984 C 0.98862 0.9944 0.13438 0.0
C985 C 0.98287 0.9911 0.11033 0.0
C986 C 1.00057 0.993 0.09349 0.0
C987 C 0.00195 0.92416 0.07855 0.0
C988 C 0.99992 0.05879 0.07697 0.0
C989 C 0.01724 0.9982 0.11176 0.0
C990 C 0.01014 0.99935 0.13527 0.0
C991 C 0.02292 0.00488 0.15512 0.0
C992 C 0.04347 0.00869 0.15077 0.0
C993 C 0.051 0.00647 0.12678 0.0
C994 C 0.0376 1.0014 0.10714 0.0
H995 H 0.95602 0.98145 0.35636 0.0
H996 H 0.94508 0.01514 0.43314 0.0
H997 H 0.98084 0.03331 0.4399 0.0
H998 H 1.00114 0.88218 0.36448 0.0
H999 H 0.01315 0.91901 0.33811 0.0
H1000 H 0.98654 0.91145 0.33897 0.0
H1001 H 0.98342 0.0461 0.33012 0.0
H1002 H 0.01004 0.05413 0.32938 0.0
H1003 H 0.99576 0.10896 0.34968 0.0
H1004 H 0.01721 0.05055 0.43846 0.0
H1005 H 0.05299 0.05379 0.42975 0.0
H1006 H 0.04109 0.0024 0.35429 0.0
C1007 C 0.9612 0.99279 0.37456 0.0
C1008 C 0.94783 0.99716 0.39423 0.0
C1009 C 0.9551 0.01128 0.41784 0.0
C1010 C 0.97535 0.02212 0.42185 0.0
C1011 C 0.98814 0.01784 0.4021 0.0
C1012 C 0.98146 0.00262 0.37897 0.0
C1013 C 0.99856 0.99791 0.3612 0.0
C1014 C 0.99992 0.92319 0.35004 0.0
C1015 C 0.99684 0.0552 0.34143 0.0
C1016 C 0.01585 0.01272 0.37803 0.0
C1017 C 0.00942 0.02507 0.40144 0.0
C1018 C 0.02248 0.04071 0.42023 0.0
C1019 C 0.04277 0.04267 0.41506 0.0
C1020 C 0.0498 0.02809 0.39137 0.0
C1021 C 0.03613 0.01345 0.37259 0.0
H1022 H 0.04975 0.02291 0.91091 0.0
H1023 H 0.06328 0.03591 0.83403 0.0
H1024 H 0.02744 0.03654 0.82467 0.0
H1025 H 0.00831 0.90717 0.906 0.0
H1026 H 0.99432 0.94996 0.9297 0.0
H1027 H 0.021 0.95236 0.93032 0.0
H1028 H 0.0202 0.08989 0.93225 0.0
H1029 H 0.9935 0.08789 0.93171 0.0
H1030 H 0.00688 0.13869 0.90933 0.0
H1031 H 0.99008 0.03057 0.82373 0.0
H1032 H 0.95401 0.02388 0.83139 0.0
H1033 H 0.96526 0.01772 0.90894 0.0
C1034 C 0.0452 0.02625 0.8921 0.0
C1035 C 0.05929 0.02932 0.8732 0.0
C1036 C 0.05272 0.03383 0.84882 0.0
C1037 C 0.03241 0.03404 0.84332 0.0
C1038 C 0.01891 0.03034 0.86241 0.0
C1039 C 0.02503 0.0271 0.88631 0.0
C1040 C 0.00756 0.02345 0.90348 0.0
C1041 C 0.00782 0.9541 0.91823 0.0
C1042 C 0.00701 0.08888 0.92017 0.0
C1043 C 0.99064 0.02432 0.88548 0.0
C1044 C 0.99746 0.02818 0.86188 0.0
C1045 C 0.98455 0.02803 0.84214 0.0
C1046 C 0.96411 0.02407 0.84668 0.0
C1047 C 0.95683 0.02058 0.87076 0.0
C1048 C 0.97034 0.02085 0.89033 0.0
H1049 H 0.95299 0.97652 0.63996 0.0
H1050 H 0.94074 0.07704 0.57076 0.0
H1051 H 0.97653 0.0923 0.56365 0.0
H1052 H 0.9973 0.08194 0.6559 0.0
H1053 H 0.0105 0.00726 0.66842 0.0
H1054 H 0.9838 0.00943 0.66949 0.0
H1055 H 0.98239 0.88804 0.64752 0.0
H1056 H 0.00907 0.88568 0.64626 0.0
H1057 H 0.99478 0.87759 0.61876 0.0
H1058 H 0.01282 0.09314 0.56273 0.0
H1059 H 0.04871 0.07814 0.56755 0.0
H1060 H 0.03915 0.97217 0.63663 0.0
C1061 C 0.95795 0.00293 0.6236 0.0
C1062 C 0.94417 0.02643 0.60597 0.0
C1063 C 0.9511 0.059 0.58446 0.0
C1064 C 0.97138 0.068 0.58029 0.0
C1065 C 0.98464 0.04328 0.59767 0.0
C1066 C 0.97836 0.01118 0.61888 0.0
C1067 C 0.99606 0.98555 0.63362 0.0
C1068 C 0.99696 0.02332 0.65832 0.0
C1069 C 0.99553 0.9044 0.63671 0.0
C1070 C 0.01312 0.00834 0.6173 0.0
C1071 C 0.00604 0.04189 0.59678 0.0
C1072 C 0.0186 0.06717 0.57874 0.0
C1073 C 0.03903 0.05821 0.58167 0.0
C1074 C 0.04686 0.02387 0.60245 0.0
C1075 C 0.03365 0.99853 0.62052 0.0
H1076 H 0.45555 0.49779 0.13735 0.0
H1077 H 0.44291 0.44582 0.0622 0.0
H1078 H 0.47866 0.44386 0.05322 0.0
H1079 H 0.49543 0.61689 0.12425 0.0
H1080 H 0.51044 0.59206 0.14995 0.0
H1081 H 0.48386 0.58375 0.15148 0.0
H1082 H 0.48727 0.45069 0.1625 0.0
H1083 H 0.51388 0.45872 0.16118 0.0
H1084 H 0.50138 0.39288 0.14298 0.0
H1085 H 0.5151 0.45087 0.05154 0.0
H1086 H 0.55102 0.46688 0.05722 0.0
H1087 H 0.54124 0.51959 0.13301 0.0
C1088 C 0.46042 0.48466 0.11917 0.0
C1089 C 0.44651 0.47128 0.10048 0.0
C1090 C 0.45334 0.45606 0.07676 0.0
C1091 C 0.4736 0.45475 0.07148 0.0
C1092 C 0.48695 0.46953 0.09005 0.0
C1093 C 0.48076 0.48429 0.11343 0.0
C1094 C 0.49841 0.50195 0.12954 0.0
C1095 C 0.49694 0.5782 0.13938 0.0
C1096 C 0.50035 0.44782 0.15028 0.0
C1097 C 0.51535 0.49484 0.11149 0.0
C1098 C 0.50829 0.47568 0.08889 0.0
C1099 C 0.52086 0.46574 0.06916 0.0
C1100 C 0.54126 0.47505 0.07258 0.0
C1101 C 0.54899 0.49465 0.09553 0.0
C1102 C 0.53578 0.50505 0.11521 0.0
H1103 H 0.46409 0.50124 0.3565 0.0
H1104 H 0.45181 0.51726 0.43362 0.0
H1105 H 0.48746 0.53257 0.44185 0.0
H1106 H 0.5085 0.39811 0.36326 0.0
H1107 H 0.52132 0.43987 0.33835 0.0
H1108 H 0.49466 0.43421 0.33815 0.0
H1109 H 0.49242 0.57063 0.33286 0.0
H1110 H 0.51909 0.57674 0.3331 0.0
H1111 H 0.50469 0.62793 0.35437 0.0
H1112 H 0.52387 0.54687 0.44203 0.0
H1113 H 0.55985 0.54995 0.43454 0.0
H1114 H 0.54934 0.51818 0.35753 0.0
C1115 C 0.46896 0.50851 0.37506 0.0
C1116 C 0.45525 0.50846 0.39444 0.0
C1117 C 0.4621 0.51696 0.41854 0.0
C1118 C 0.48229 0.52605 0.42339 0.0
C1119 C 0.49545 0.52567 0.40397 0.0
C1120 C 0.48917 0.5164 0.3803 0.0
C1121 C 0.50664 0.51443 0.36299 0.0
C1122 C 0.50785 0.44236 0.34993 0.0
C1123 C 0.50565 0.57612 0.34476 0.0
C1124 C 0.52365 0.52403 0.3807 0.0
C1125 C 0.51677 0.53125 0.40418 0.0
C1126 C 0.5295 0.54115 0.42375 0.0
C1127 C 0.54991 0.54301 0.41929 0.0
C1128 C 0.55738 0.53414 0.39548 0.0
C1129 C 0.54404 0.52485 0.37594 0.0
H1130 H 0.4587 0.52417 0.90881 0.0
H1131 H 0.44864 0.50976 0.83113 0.0
H1132 H 0.48483 0.50857 0.82424 0.0
H1133 H 0.50223 0.63739 0.90624 0.0
H1134 H 0.51436 0.59284 0.93108 0.0
H1135 H 0.48769 0.59604 0.92978 0.0
H1136 H 0.48621 0.45872 0.93246 0.0
H1137 H 0.51286 0.45509 0.93372 0.0
H1138 H 0.49968 0.40615 0.91067 0.0
H1139 H 0.52195 0.50634 0.82589 0.0
H1140 H 0.55757 0.50043 0.83595 0.0
H1141 H 0.54322 0.51383 0.91264 0.0
C1142 C 0.46409 0.52148 0.89033 0.0
C1143 C 0.45088 0.51735 0.87049 0.0
C1144 C 0.45852 0.51302 0.8466 0.0
C1145 C 0.47903 0.51245 0.8425 0.0
C1146 C 0.49163 0.51605 0.86248 0.0
C1147 C 0.48448 0.52036 0.88592 0.0
C1148 C 0.50117 0.52106 0.90427 0.0
C1149 C 0.50137 0.59101 0.91869 0.0
C1150 C 0.4999 0.4564 0.92127 0.0
C1151 C 0.51885 0.51598 0.88748 0.0
C1152 C 0.51303 0.51364 0.86345 0.0
C1153 C 0.52671 0.50833 0.84463 0.0
C1154 C 0.54689 0.50507 0.85054 0.0
C1155 C 0.55316 0.50667 0.87508 0.0
C1156 C 0.5389 0.51245 0.89372 0.0
H1157 H 0.45991 0.52832 0.58377 0.0
H1158 H 0.44658 0.52468 0.66077 0.0
H1159 H 0.48245 0.51429 0.66986 0.0
H1160 H 0.49876 0.40205 0.5847 0.0
H1161 H 0.51355 0.44717 0.56223 0.0
H1162 H 0.48699 0.45659 0.56202 0.0
H1163 H 0.49063 0.59347 0.56435 0.0
H1164 H 0.51721 0.58451 0.5644 0.0
H1165 H 0.50506 0.63249 0.58846 0.0
H1166 H 0.52015 0.49787 0.67008 0.0
H1167 H 0.55604 0.48497 0.66154 0.0
H1168 H 0.54403 0.50261 0.58443 0.0
C1169 C 0.46449 0.52583 0.60258 0.0
C1170 C 0.4504 0.5272 0.62156 0.0
C1171 C 0.45709 0.52401 0.64592 0.0
C1172 C 0.47743 0.51785 0.65125 0.0
C1173 C 0.4909 0.5156 0.63203 0.0
C1174 C 0.48466 0.52027 0.60819 0.0
C1175 C 0.50198 0.51667 0.59077 0.0
C1176 C 0.50021 0.45175 0.57395 0.0
C1177 C 0.50383 0.58591 0.57614 0.0
C1178 C 0.51899 0.5084 0.60845 0.0
C1179 C 0.51237 0.50764 0.63218 0.0
C1180 C 0.52547 0.49889 0.65156 0.0
C1181 C 0.54582 0.49132 0.64653 0.0
C1182 C 0.55289 0.49294 0.62232 0.0
C1183 C 0.53918 0.50152 0.60315 0.0
H1184 H 0.10971 0.77413 0.10751 0.0
H1185 H 0.14125 0.8049 0.17523 0.0
H1186 H 0.14847 0.67657 0.17715 0.0
H1187 H 0.08684 0.61173 0.12366 0.0
H1188 H 0.08892 0.57138 0.09411 0.0
H1189 H 0.08749 0.66652 0.09684 0.0
H1190 H 0.12039 0.67967 0.073 0.0
H1191 H 0.12184 0.5845 0.07003 0.0
H1192 H 0.14217 0.63317 0.0833 0.0
H1193 H 0.1507 0.5461 0.17313 0.0
H1194 H 0.14846 0.41911 0.16318 0.0
H1195 H 0.11531 0.4701 0.09784 0.0
C1196 C 0.11843 0.75367 0.12246 0.0
C1197 C 0.12478 0.79869 0.14142 0.0
C1198 C 0.1359 0.77058 0.1609 0.0
C1199 C 0.14023 0.69804 0.162 0.0
C1200 C 0.13331 0.65448 0.14342 0.0
C1201 C 0.12274 0.68096 0.12393 0.0
C1202 C 0.11628 0.62158 0.10705 0.0
C1203 C 0.09353 0.61759 0.10533 0.0
C1204 C 0.12574 0.63026 0.08185 0.0
C1205 C 0.12468 0.55774 0.1203 0.0
C1206 C 0.13453 0.57826 0.14114 0.0
C1207 C 0.14314 0.52926 0.15678 0.0
C1208 C 0.14172 0.45713 0.15097 0.0
C1209 C 0.1317 0.43445 0.12972 0.0
C1210 C 0.1231 0.48568 0.11418 0.0
H1211 H 0.88801 0.21861 0.09955 0.0
H1212 H 0.86229 0.19209 0.17105 0.0
H1213 H 0.85688 0.32123 0.17393 0.0
H1214 H 0.91388 0.37918 0.11254 0.0
H1215 H 0.90952 0.41934 0.08335 0.0
H1216 H 0.91046 0.32411 0.0861 0.0
H1217 H 0.87556 0.31401 0.06671 0.0
H1218 H 0.87458 0.40924 0.06375 0.0
H1219 H 0.85518 0.3628 0.07971 0.0
H1220 H 0.8555 0.45232 0.17004 0.0
H1221 H 0.85738 0.57899 0.15917 0.0
H1222 H 0.88394 0.52292 0.08996 0.0
C1223 C 0.88098 0.24015 0.11561 0.0
C1224 C 0.87576 0.19574 0.13526 0.0
C1225 C 0.86679 0.22556 0.15609 0.0
C1226 C 0.86352 0.29872 0.15779 0.0
C1227 C 0.86927 0.34143 0.13844 0.0
C1228 C 0.87771 0.31352 0.11767 0.0
C1229 C 0.88309 0.37204 0.09991 0.0
C1230 C 0.90557 0.37374 0.09521 0.0
C1231 C 0.8714 0.36403 0.07611 0.0
C1232 C 0.87641 0.4369 0.11404 0.0
C1233 C 0.86846 0.41781 0.13619 0.0
C1234 C 0.8616 0.46806 0.15269 0.0
C1235 C 0.86278 0.53994 0.14636 0.0
C1236 C 0.87079 0.56105 0.1237 0.0
C1237 C 0.8777 0.50858 0.10738 0.0
H1238 H 0.10865 0.25634 0.33323 0.0
H1239 H 0.13613 0.1699 0.39802 0.0
H1240 H 0.14502 0.29099 0.41126 0.0
H1241 H 0.1457 0.39874 0.32445 0.0
H1242 H 0.12749 0.46069 0.31334 0.0
H1243 H 0.12413 0.36681 0.30847 0.0
H1244 H 0.08969 0.37369 0.32912 0.0
H1245 H 0.09304 0.46731 0.33437 0.0
H1246 H 0.08776 0.40888 0.35946 0.0
H1247 H 0.14868 0.42142 0.41902 0.0
H1248 H 0.14995 0.55229 0.41886 0.0
H1249 H 0.12116 0.55467 0.34836 0.0
C1250 C 0.11678 0.2629 0.35004 0.0
C1251 C 0.1217 0.20368 0.36459 0.0
C1252 C 0.13235 0.21438 0.38646 0.0
C1253 C 0.13737 0.28301 0.39421 0.0
C1254 C 0.13193 0.34033 0.37971 0.0
C1255 C 0.1222 0.33104 0.35787 0.0
C1256 C 0.1182 0.40178 0.34568 0.0
C1257 C 0.12956 0.40732 0.32156 0.0
C1258 C 0.09584 0.41358 0.34195 0.0
C1259 C 0.12661 0.45232 0.36447 0.0
C1260 C 0.13448 0.4157 0.38393 0.0
C1261 C 0.14276 0.4507 0.40377 0.0
C1262 C 0.14334 0.52513 0.40354 0.0
C1263 C 0.13571 0.56393 0.38358 0.0
C1264 C 0.12713 0.5267 0.36389 0.0
H1265 H 0.88386 0.431 0.35094 0.0
H1266 H 0.83365 0.43935 0.40021 0.0
H1267 H 0.83426 0.57002 0.39848 0.0
H1268 H 0.90969 0.57954 0.37606 0.0
H1269 H 0.91868 0.6115 0.34726 0.0
H1270 H 0.91376 0.5183 0.35141 0.0
H1271 H 0.89008 0.52012 0.31437 0.0
H1272 H 0.89484 0.61353 0.31021 0.0
H1273 H 0.86974 0.58215 0.31379 0.0
H1274 H 0.84012 0.69892 0.39162 0.0
H1275 H 0.85269 0.81904 0.38279 0.0
H1276 H 0.89983 0.72828 0.33899 0.0
C1277 C 0.87295 0.46033 0.36128 0.0
C1278 C 0.85866 0.42491 0.37564 0.0
C1279 C 0.84475 0.46523 0.38908 0.0
C1280 C 0.8449 0.53951 0.38813 0.0
C1281 C 0.85908 0.57274 0.37373 0.0
C1282 C 0.87297 0.53467 0.36069 0.0
C1283 C 0.88712 0.58381 0.34744 0.0
C1284 C 0.90858 0.57262 0.35607 0.0
C1285 C 0.88533 0.57432 0.31981 0.0
C1286 C 0.87916 0.65534 0.35539 0.0
C1287 C 0.86281 0.6476 0.37024 0.0
C1288 C 0.8529 0.70578 0.37999 0.0
C1289 C 0.86013 0.77382 0.37479 0.0
C1290 C 0.87726 0.78308 0.36022 0.0
C1291 C 0.88671 0.72292 0.35018 0.0
H1292 H 0.90035 0.2771 0.83448 0.0
H1293 H 0.85884 0.18479 0.88584 0.0
H1294 H 0.84711 0.30462 0.89667 0.0
H1295 H 0.91413 0.42508 0.86937 0.0
H1296 H 0.91536 0.48649 0.84432 0.0
H1297 H 0.91967 0.39335 0.83926 0.0
H1298 H 0.89187 0.39078 0.80681 0.0
H1299 H 0.88759 0.48419 0.81158 0.0
H1300 H 0.86742 0.42192 0.81458 0.0
H1301 H 0.84185 0.43385 0.90442 0.0
H1302 H 0.84134 0.56458 0.90625 0.0
H1303 H 0.88553 0.57378 0.849 0.0
C1304 C 0.8886 0.28204 0.84776 0.0
C1305 C 0.88053 0.22156 0.85933 0.0
C1306 C 0.86518 0.23027 0.87663 0.0
C1307 C 0.85846 0.29815 0.88297 0.0
C1308 C 0.86703 0.35668 0.87163 0.0
C1309 C 0.88155 0.3494 0.85413 0.0
C1310 C 0.88846 0.42116 0.84495 0.0
C1311 C 0.91072 0.43214 0.84978 0.0
C1312 C 0.88353 0.43003 0.81788 0.0
C1313 C 0.87593 0.46993 0.86052 0.0
C1314 C 0.86367 0.43154 0.87575 0.0
C1315 C 0.85121 0.46456 0.8924 0.0
C1316 C 0.8511 0.5389 0.89336 0.0
C1317 C 0.86335 0.57952 0.87772 0.0
C1318 C 0.87592 0.54429 0.8611 0.0
H1319 H 0.13473 0.47862 0.89961 0.0
H1320 H 0.11515 0.40979 0.8283 0.0
H1321 H 0.11038 0.53473 0.81627 0.0
H1322 H 0.10005 0.62654 0.90466 0.0
H1323 H 0.11751 0.68293 0.92026 0.0
H1324 H 0.11902 0.58787 0.92352 0.0
H1325 H 0.15559 0.59123 0.90928 0.0
H1326 H 0.1542 0.6862 0.90585 0.0
H1327 H 0.16165 0.63165 0.88057 0.0
H1328 H 0.10849 0.66622 0.81147 0.0
H1329 H 0.10856 0.79655 0.81445 0.0
H1330 H 0.12929 0.78229 0.88891 0.0
C1331 C 0.12933 0.4898 0.8815 0.0
C1332 C 0.12529 0.43423 0.8649 0.0
C1333 C 0.11824 0.45124 0.84139 0.0
C1334 C 0.11553 0.52213 0.83436 0.0
C1335 C 0.1198 0.57554 0.85107 0.0
C1336 C 0.1264 0.5604 0.87421 0.0
C1337 C 0.12982 0.62808 0.88863 0.0
C1338 C 0.11576 0.63155 0.91057 0.0
C1339 C 0.15161 0.63465 0.89654 0.0
C1340 C 0.12448 0.68364 0.86978 0.0
C1341 C 0.11866 0.65192 0.8483 0.0
C1342 C 0.11298 0.69169 0.82821 0.0
C1343 C 0.11311 0.76588 0.83009 0.0
C1344 C 0.119 0.79999 0.85188 0.0
C1345 C 0.12479 0.75799 0.87197 0.0
H1346 H 0.89021 0.74731 0.65496 0.0
H1347 H 0.8607 0.82567 0.59022 0.0
H1348 H 0.85181 0.70316 0.57896 0.0
H1349 H 0.91029 0.58816 0.62782 0.0
H1350 H 0.90641 0.53416 0.6544 0.0
H1351 H 0.91067 0.6282 0.65753 0.0
H1352 H 0.87787 0.64072 0.68161 0.0
H1353 H 0.87354 0.54671 0.67861 0.0
H1354 H 0.85506 0.60896 0.66839 0.0
H1355 H 0.84577 0.57352 0.5747 0.0
H1356 H 0.8426 0.44357 0.57789 0.0
H1357 H 0.87609 0.44747 0.64522 0.0
C1358 C 0.8819 0.73871 0.63841 0.0
C1359 C 0.87616 0.79626 0.62348 0.0
C1360 C 0.86526 0.78262 0.60198 0.0
C1361 C 0.86015 0.71316 0.59539 0.0
C1362 C 0.86604 0.65776 0.61045 0.0
C1363 C 0.87665 0.66953 0.63152 0.0
C1364 C 0.88097 0.60024 0.64452 0.0
C1365 C 0.90342 0.58692 0.64616 0.0
C1366 C 0.87128 0.59911 0.66978 0.0
C1367 C 0.87105 0.54787 0.62747 0.0
C1368 C 0.86257 0.58236 0.60794 0.0
C1369 C 0.85236 0.54581 0.58988 0.0
C1370 C 0.85063 0.47194 0.59189 0.0
C1371 C 0.85909 0.43525 0.61179 0.0
C1372 C 0.86954 0.47392 0.62973 0.0
H1373 H 0.12885 0.21767 0.60751 0.0
H1374 H 0.08728 0.22898 0.66754 0.0
H1375 H 0.09153 0.35873 0.66914 0.0
H1376 H 0.16215 0.35711 0.62848 0.0
H1377 H 0.16652 0.39217 0.59853 0.0
H1378 H 0.16075 0.29943 0.60242 0.0
H1379 H 0.13137 0.31213 0.57246 0.0
H1380 H 0.13696 0.40506 0.56864 0.0
H1381 H 0.11254 0.37789 0.57819 0.0
H1382 H 0.09914 0.48678 0.66371 0.0
H1383 H 0.11111 0.60623 0.65287 0.0
H1384 H 0.148 0.51477 0.59635 0.0
C1385 C 0.12085 0.24745 0.62116 0.0
C1386 C 0.10773 0.21304 0.63743 0.0
C1387 C 0.09734 0.25403 0.65483 0.0
C1388 C 0.09965 0.32786 0.6559 0.0
C1389 C 0.11236 0.36032 0.63938 0.0
C1390 C 0.12288 0.32169 0.62239 0.0
C1391 C 0.13529 0.37053 0.60653 0.0
C1392 C 0.1575 0.35381 0.60916 0.0
C1393 C 0.12864 0.36612 0.57988 0.0
C1394 C 0.13021 0.44228 0.61748 0.0
C1395 C 0.11684 0.43495 0.63628 0.0
C1396 C 0.10967 0.49329 0.64906 0.0
C1397 C 0.11652 0.56104 0.64269 0.0
C1398 C 0.13052 0.57015 0.62377 0.0
C1399 C 0.13733 0.50971 0.61093 0.0
H1400 H 0.63785 0.99146 0.09374 0.0
H1401 H 0.61441 0.91582 0.16245 0.0
H1402 H 0.60627 0.03887 0.17401 0.0
H1403 H 0.65987 0.15237 0.11675 0.0
H1404 H 0.6535 0.20462 0.09049 0.0
H1405 H 0.65757 0.1105 0.08747 0.0
H1406 H 0.6228 0.09582 0.06814 0.0
H1407 H 0.61863 0.18989 0.07102 0.0
H1408 H 0.6013 0.12789 0.08415 0.0
H1409 H 0.60058 0.16909 0.17822 0.0
H1410 H 0.59706 0.29873 0.17463 0.0
H1411 H 0.62417 0.29152 0.10319 0.0
C1412 C 0.631 1.00071 0.11122 0.0
C1413 C 0.62677 0.94382 0.1272 0.0
C1414 C 0.61777 0.95836 0.14988 0.0
C1415 C 0.61312 0.02813 0.15664 0.0
C1416 C 0.61753 0.08289 0.14053 0.0
C1417 C 0.62621 0.07013 0.11826 0.0
C1418 C 0.62921 0.13871 0.10427 0.0
C1419 C 0.65136 0.15234 0.09947 0.0
C1420 C 0.61727 0.13801 0.08049 0.0
C1421 C 0.62084 0.19199 0.12217 0.0
C1422 C 0.61421 0.15846 0.14296 0.0
C1423 C 0.60571 0.19599 0.16204 0.0
C1424 C 0.60378 0.26974 0.1598 0.0
C1425 C 0.61033 0.30551 0.13863 0.0
C1426 C 0.61908 0.26587 0.11964 0.0
H1427 H 0.37757 0.70572 0.10262 0.0
H1428 H 0.39496 0.69276 0.17838 0.0
H1429 H 0.39396 0.82318 0.18137 0.0
H1430 H 0.40617 0.86217 0.08858 0.0
H1431 H 0.38779 0.8992 0.06851 0.0
H1432 H 0.3896 0.80434 0.07216 0.0
H1433 H 0.35254 0.79855 0.08442 0.0
H1434 H 0.3506 0.89329 0.08067 0.0
H1435 H 0.34374 0.85289 0.10911 0.0
H1436 H 0.39194 0.9544 0.17615 0.0
H1437 H 0.38721 0.07881 0.16359 0.0
H1438 H 0.37068 0.00808 0.09134 0.0
C1439 C 0.38108 0.73032 0.11986 0.0
C1440 C 0.38637 0.68892 0.14027 0.0
C1441 C 0.39092 0.72322 0.16248 0.0
C1442 C 0.39042 0.79736 0.16437 0.0
C1443 C 0.38538 0.8366 0.14389 0.0
C1444 C 0.38071 0.80448 0.12207 0.0
C1445 C 0.37582 0.85937 0.10285 0.0
C1446 C 0.39074 0.85605 0.08178 0.0
C1447 C 0.3544 0.85049 0.09374 0.0
C1448 C 0.37829 0.9272 0.11738 0.0
C1449 C 0.38399 0.91272 0.14094 0.0
C1450 C 0.38744 0.96648 0.15776 0.0
C1451 C 0.38479 0.03704 0.15041 0.0
C1452 C 0.37857 0.05327 0.12648 0.0
C1453 C 0.3754 0.99741 0.10976 0.0
H1454 H 0.62064 0.07086 0.35109 0.0
H1455 H 0.66056 0.07007 0.41298 0.0
H1456 H 0.66086 0.93927 0.41241 0.0
H1457 H 0.59156 0.92121 0.36972 0.0
H1458 H 0.58837 0.8871 0.33941 0.0
H1459 H 0.59179 0.98091 0.34415 0.0
H1460 H 0.62172 0.97962 0.31465 0.0
H1461 H 0.61849 0.88558 0.31 0.0
H1462 H 0.64204 0.91969 0.32022 0.0
H1463 H 0.65733 0.80972 0.40501 0.0
H1464 H 0.64757 0.68801 0.39376 0.0
H1465 H 0.60903 0.77188 0.33752 0.0
C1466 C 0.62945 0.04318 0.36451 0.0
C1467 C 0.64064 0.08067 0.38202 0.0
C1468 C 0.65188 0.04251 0.39938 0.0
C1469 C 0.65223 0.96821 0.39914 0.0
C1470 C 0.64122 0.93293 0.38149 0.0
C1471 C 0.62988 0.96892 0.36464 0.0
C1472 C 0.61889 0.91787 0.34817 0.0
C1473 C 0.59631 0.92734 0.35052 0.0
C1474 C 0.6257 0.92621 0.32169 0.0
C1475 C 0.62563 0.84763 0.35866 0.0
C1476 C 0.63876 0.85768 0.37761 0.0
C1477 C 0.64706 0.80104 0.39021 0.0
C1478 C 0.64148 0.73211 0.3836 0.0
C1479 C 0.62752 0.72054 0.36478 0.0
C1480 C 0.61971 0.77914 0.35198 0.0
H1481 H 0.3745 0.93526 0.34324 0.0
H1482 H 0.37775 0.92687 0.42184 0.0
H1483 H 0.38065 0.05756 0.42325 0.0
H1484 H 0.40894 0.08015 0.33416 0.0
H1485 H 0.39479 0.11955 0.30991 0.0
H1486 H 0.39356 0.0252 0.31504 0.0
H1487 H 0.35533 0.03328 0.31876 0.0
H1488 H 0.35647 0.1278 0.31384 0.0
H1489 H 0.34457 0.09309 0.34062 0.0
H1490 H 0.38257 0.1885 0.41634 0.0
H1491 H 0.38468 0.31164 0.40163 0.0
H1492 H 0.37976 0.23664 0.32731 0.0
C1493 C 0.37613 0.96086 0.36072 0.0
C1494 C 0.37609 0.92079 0.38246 0.0
C1495 C 0.37781 0.95643 0.40498 0.0
C1496 C 0.37943 0.03064 0.40597 0.0
C1497 C 0.37911 0.06861 0.38427 0.0
C1498 C 0.37753 0.03509 0.36205 0.0
C1499 C 0.37707 0.08875 0.3415 0.0
C1500 C 0.39464 0.07775 0.32413 0.0
C1501 C 0.35718 0.08552 0.32788 0.0
C1502 C 0.37908 0.15756 0.35562 0.0
C1503 C 0.38005 0.14457 0.38027 0.0
C1504 C 0.38185 0.19936 0.39708 0.0
C1505 C 0.383 0.26928 0.38849 0.0
C1506 C 0.38243 0.28416 0.36327 0.0
C1507 C 0.38024 0.22726 0.34668 0.0
H1508 H 0.39168 0.76789 0.83147 0.0
H1509 H 0.35837 0.68078 0.89197 0.0
H1510 H 0.3489 0.8019 0.90444 0.0
H1511 H 0.41066 0.9191 0.8615 0.0
H1512 H 0.40812 0.97829 0.83599 0.0
H1513 H 0.41167 0.88466 0.831 0.0
H1514 H 0.37954 0.87963 0.80527 0.0
H1515 H 0.376 0.97347 0.80996 0.0
H1516 H 0.35663 0.91178 0.81801 0.0
H1517 H 0.34537 0.93189 0.91234 0.0
H1518 H 0.34474 0.06271 0.91269 0.0
H1519 H 0.37886 0.06663 0.8459 0.0
C1520 C 0.38219 0.77428 0.84716 0.0
C1521 C 0.37577 0.71484 0.86076 0.0
C1522 C 0.36336 0.7254 0.88118 0.0
C1523 C 0.35798 0.79404 0.88848 0.0
C1524 C 0.36489 0.85151 0.87498 0.0
C1525 C 0.37643 0.84243 0.85451 0.0
C1526 C 0.3818 0.91337 0.84322 0.0
C1527 C 0.40441 0.92448 0.84292 0.0
C1528 C 0.37296 0.91994 0.8176 0.0
C1529 C 0.37178 0.96373 0.86081 0.0
C1530 C 0.36223 0.9268 0.87907 0.0
C1531 C 0.35258 0.96142 0.89799 0.0
C1532 C 0.35241 0.03581 0.89809 0.0
C1533 C 0.36168 0.07496 0.87927 0.0
C1534 C 0.37152 0.03819 0.86042 0.0
H1535 H 0.63204 0.26048 0.88595 0.0
H1536 H 0.60133 0.25906 0.81669 0.0
H1537 H 0.60377 0.12841 0.81537 0.0
H1538 H 0.66595 0.11639 0.87278 0.0
H1539 H 0.66481 0.08045 0.90306 0.0
H1540 H 0.66116 0.17411 0.89821 0.0
H1541 H 0.62731 0.16668 0.92031 0.0
H1542 H 0.63078 0.07288 0.92504 0.0
H1543 H 0.60885 0.10449 0.9098 0.0
H1544 H 0.60885 0.99837 0.82184 0.0
H1545 H 0.61721 0.87698 0.83508 0.0
H1546 H 0.64434 0.96238 0.90038 0.0
C1547 C 0.626 0.23274 0.87039 0.0
C1548 C 0.6165 0.26994 0.8514 0.0
C1549 C 0.60862 0.23165 0.83147 0.0
C1550 C 0.60993 0.15745 0.83055 0.0
C1551 C 0.6191 0.12232 0.84973 0.0
C1552 C 0.62707 0.15857 0.86925 0.0
C1553 C 0.63587 0.10778 0.88765 0.0
C1554 C 0.65828 0.12045 0.89058 0.0
C1555 C 0.62505 0.1133 0.91215 0.0
C1556 C 0.63166 0.03739 0.87536 0.0
C1557 C 0.62194 0.04705 0.85354 0.0
C1558 C 0.61648 0.99006 0.83888 0.0
C1559 C 0.62126 0.92129 0.8466 0.0
C1560 C 0.63142 0.91005 0.86878 0.0
C1561 C 0.63653 0.96909 0.88337 0.0
H1562 H 0.37351 0.94654 0.64562 0.0
H1563 H 0.37368 0.93814 0.56688 0.0
H1564 H 0.37754 0.06824 0.56529 0.0
H1565 H 0.34504 0.10638 0.65025 0.0
H1566 H 0.35835 0.14035 0.67615 0.0
H1567 H 0.35648 0.04594 0.67138 0.0
H1568 H 0.39477 0.03535 0.67249 0.0
H1569 H 0.39674 0.12968 0.6774 0.0
H1570 H 0.40952 0.08902 0.65228 0.0
H1571 H 0.38027 0.19823 0.57189 0.0
H1572 H 0.38255 0.32166 0.58624 0.0
H1573 H 0.38048 0.24797 0.6609 0.0
C1574 C 0.37461 0.97204 0.62806 0.0
C1575 C 0.37338 0.93215 0.60635 0.0
C1576 C 0.37457 0.96756 0.58373 0.0
C1577 C 0.37678 0.04145 0.58264 0.0
C1578 C 0.37767 0.07927 0.60432 0.0
C1579 C 0.37666 0.04602 0.62662 0.0
C1580 C 0.37742 0.09978 0.64713 0.0
C1581 C 0.35818 0.09799 0.66211 0.0
C1582 C 0.39571 0.08773 0.66327 0.0
C1583 C 0.37916 0.16828 0.63281 0.0
C1584 C 0.3792 0.15499 0.60816 0.0
C1585 C 0.38033 0.2094 0.59115 0.0
C1586 C 0.38157 0.27943 0.59952 0.0
C1587 C 0.38174 0.29467 0.62471 0.0
C1588 C 0.38048 0.23811 0.64154 0.0
H1589 H 0.61474 0.74616 0.65942 0.0
H1590 H 0.63411 0.67235 0.58862 0.0
H1591 H 0.64133 0.79579 0.57661 0.0
H1592 H 0.59109 0.9066 0.63879 0.0
H1593 H 0.59895 0.95879 0.66448 0.0
H1594 H 0.59527 0.86449 0.66772 0.0
H1595 H 0.63117 0.85095 0.68377 0.0
H1596 H 0.63495 0.94523 0.68065 0.0
H1597 H 0.65155 0.88406 0.66587 0.0
H1598 H 0.64661 0.9262 0.57217 0.0
H1599 H 0.64994 0.05605 0.57561 0.0
H1600 H 0.62705 0.04696 0.64919 0.0
C1601 C 0.6205 0.75591 0.64139 0.0
C1602 C 0.62385 0.69937 0.62497 0.0
C1603 C 0.63144 0.71457 0.60155 0.0
C1604 C 0.63557 0.78458 0.59453 0.0
C1605 C 0.63206 0.83895 0.61111 0.0
C1606 C 0.62474 0.8256 0.63407 0.0
C1607 C 0.62245 0.89394 0.6484 0.0
C1608 C 0.60064 0.90669 0.65524 0.0
C1609 C 0.63583 0.89349 0.67101 0.0
C1610 C 0.6296 0.94772 0.62987 0.0
C1611 C 0.63508 0.91467 0.60852 0.0
C1612 C 0.64236 0.95273 0.58879 0.0
C1613 C 0.64422 0.02655 0.59095 0.0
C1614 C 0.63877 0.06183 0.61267 0.0
C1615 C 0.63126 0.02165 0.63232 0.0
loop_
_geom_bond_atom_site_label_1
_geom_bond_atom_site_label_2
_geom_bond_distance
_geom_bond_site_symmetry_2
_ccdc_geom_bond_type
Zn0 O6 1.969 . S
Zn0 O7 1.965 . S
Zn0 O11 2.024 . S
Zn0 O16 1.969 . S
Zn1 O8 1.969 . S
Zn1 O14 1.969 1_545 S
Zn1 O15 1.965 . S
Zn1 O17 2.024 . S
C2 O3 1.229 . S
C2 O11 1.058 . S
O3 C2 1.229 . S
C4 O5 1.229 1_545 S
C4 O17 1.058 . S
O5 C4 1.229 1_565 S
O6 Zn0 1.969 . S
O6 C9 1.267 . S
O7 Zn0 1.965 . S
O7 C18 1.260 . S
O8 Zn1 1.969 . S
O8 C18 1.258 . S
C9 O6 1.267 . S
C9 O10 1.228 . S
O10 C9 1.228 . S
O11 Zn0 2.024 . S
O11 C2 1.058 . S
C12 O13 1.228 . S
C12 O14 1.267 . S
O13 C12 1.228 . S
O14 Zn1 1.969 1_565 S
O14 C12 1.267 . S
O15 Zn1 1.965 . S
O15 C19 1.260 . S
O16 Zn0 1.969 . S
O16 C19 1.258 . S
O17 Zn1 2.024 . S
O17 C4 1.058 . S
C18 O7 1.260 . S
C18 O8 1.258 . S
C19 O15 1.260 . S
C19 O16 1.258 . S
Zn20 O26 1.969 . S
Zn20 O27 1.965 . S
Zn20 O31 2.024 . S
Zn20 O36 1.969 . S
Zn21 O28 1.969 . S
Zn21 O34 1.969 1_565 S
Zn21 O35 1.965 . S
Zn21 O37 2.024 . S
C22 O23 1.229 . S
C22 O31 1.058 . S
O23 C22 1.229 . S
C24 O25 1.229 1_565 S
C24 O37 1.058 . S
O25 C24 1.229 1_545 S
O26 Zn20 1.969 . S
O26 C29 1.267 . S
O27 Zn20 1.965 . S
O27 C38 1.260 . S
O28 Zn21 1.969 . S
O28 C38 1.258 . S
C29 O26 1.267 . S
C29 O30 1.228 . S
O30 C29 1.228 . S
O31 Zn20 2.024 . S
O31 C22 1.058 . S
C32 O33 1.228 . S
C32 O34 1.267 . S
O33 C32 1.228 . S
O34 Zn21 1.969 1_545 S
O34 C32 1.267 . S
O35 Zn21 1.965 . S
O35 C39 1.260 . S
O36 Zn20 1.969 . S
O36 C39 1.258 . S
O37 Zn21 2.024 . S
O37 C24 1.058 . S
C38 O27 1.260 . S
C38 O28 1.258 . S
C39 O35 1.260 . S
C39 O36 1.258 . S
Zn40 O46 1.969 . S
Zn40 O47 1.965 . S
Zn40 O51 2.024 . S
Zn40 O56 1.969 . S
Zn41 O48 1.969 . S
Zn41 O54 1.969 1_565 S
Zn41 O55 1.965 . S
Zn41 O57 2.024 . S
C42 O43 1.229 . S
C42 O51 1.058 . S
O43 C42 1.229 . S
C44 O45 1.229 1_565 S
C44 O57 1.058 . S
O45 C44 1.229 1_545 S
O46 Zn40 1.969 . S
O46 C49 1.267 . S
O47 Zn40 1.965 . S
O47 C58 1.260 . S
O48 Zn41 1.969 . S
O48 C58 1.258 . S
C49 O46 1.267 . S
C49 O50 1.228 . S
O50 C49 1.228 . S
O51 Zn40 2.024 . S
O51 C42 1.058 . S
C52 O53 1.228 . S
C52 O54 1.267 . S
O53 C52 1.228 . S
O54 Zn41 1.969 1_545 S
O54 C52 1.267 . S
O55 Zn41 1.965 . S
O55 C59 1.260 . S
O56 Zn40 1.969 . S
O56 C59 1.258 . S
O57 Zn41 2.024 . S
O57 C44 1.058 . S
C58 O47 1.260 . S
C58 O48 1.258 . S
C59 O55 1.260 . S
C59 O56 1.258 . S
Zn60 O66 1.969 . S
Zn60 O67 1.965 . S
Zn60 O71 2.024 . S
Zn60 O76 1.969 . S
Zn61 O68 1.969 . S
Zn61 O74 1.969 1_545 S
Zn61 O75 1.965 . S
Zn61 O77 2.024 . S
C62 O63 1.229 . S
C62 O71 1.058 . S
O63 C62 1.229 . S
C64 O65 1.229 1_545 S
C64 O77 1.058 . S
O65 C64 1.229 1_565 S
O66 Zn60 1.969 . S
O66 C69 1.267 . S
O67 Zn60 1.965 . S
O67 C78 1.260 . S
O68 Zn61 1.969 . S
O68 C78 1.258 . S
C69 O66 1.267 . S
C69 O70 1.228 . S
O70 C69 1.228 . S
O71 Zn60 2.024 . S
O71 C62 1.058 . S
C72 O73 1.228 . S
C72 O74 1.267 . S
O73 C72 1.228 . S
O74 Zn61 1.969 1_565 S
O74 C72 1.267 . S
O75 Zn61 1.965 . S
O75 C79 1.260 . S
O76 Zn60 1.969 . S
O76 C79 1.258 . S
O77 Zn61 2.024 . S
O77 C64 1.058 . S
C78 O67 1.260 . S
C78 O68 1.258 . S
C79 O75 1.260 . S
C79 O76 1.258 . S
Zn80 O86 1.969 1_565 S
Zn80 O87 1.965 . S
Zn80 O91 2.024 . S
Zn80 O96 1.969 . S
Zn81 O88 1.969 . S
Zn81 O94 1.969 . S
Zn81 O95 1.965 . S
Zn81 O97 2.024 . S
C82 O83 1.229 1_565 S
C82 O91 1.058 . S
O83 C82 1.229 1_545 S
C84 O85 1.229 . S
C84 O97 1.058 . S
O85 C84 1.229 . S
O86 Zn80 1.969 1_545 S
O86 C89 1.267 . S
O87 Zn80 1.965 . S
O87 C98 1.260 . S
O88 Zn81 1.969 . S
O88 C98 1.258 . S
C89 O86 1.267 . S
C89 O90 1.228 . S
O90 C89 1.228 . S
O91 Zn80 2.024 . S
O91 C82 1.058 . S
C92 O93 1.228 . S
C92 O94 1.267 . S
O93 C92 1.228 . S
O94 Zn81 1.969 . S
O94 C92 1.267 . S
O95 Zn81 1.965 . S
O95 C99 1.260 . S
O96 Zn80 1.969 . S
O96 C99 1.258 . S
O97 Zn81 2.024 . S
O97 C84 1.058 . S
C98 O87 1.260 . S
C98 O88 1.258 . S
C99 O95 1.260 . S
C99 O96 1.258 . S
Zn100 O106 1.969 1_545 S
Zn100 O107 1.965 . S
Zn100 O111 2.024 . S
Zn100 O116 1.969 . S
Zn101 O108 1.969 . S
Zn101 O114 1.969 . S
Zn101 O115 1.965 . S
Zn101 O117 2.024 . S
C102 O103 1.229 1_545 S
C102 O111 1.058 . S
O103 C102 1.229 1_565 S
C104 O105 1.229 . S
C104 O117 1.058 . S
O105 C104 1.229 . S
O106 Zn100 1.969 1_565 S
O106 C109 1.267 . S
O107 Zn100 1.965 . S
O107 C118 1.260 . S
O108 Zn101 1.969 . S
O108 C118 1.258 . S
C109 O106 1.267 . S
C109 O110 1.228 . S
O110 C109 1.228 . S
O111 Zn100 2.024 . S
O111 C102 1.058 . S
C112 O113 1.228 . S
C112 O114 1.267 . S
O113 C112 1.228 . S
O114 Zn101 1.969 . S
O114 C112 1.267 . S
O115 Zn101 1.965 . S
O115 C119 1.260 . S
O116 Zn100 1.969 . S
O116 C119 1.258 . S
O117 Zn101 2.024 . S
O117 C104 1.058 . S
C118 O107 1.260 . S
C118 O108 1.258 . S
C119 O115 1.260 . S
C119 O116 1.258 . S
Zn120 O126 1.969 1_545 S
Zn120 O127 1.965 . S
Zn120 O131 2.024 . S
Zn120 O136 1.969 . S
Zn121 O128 1.969 . S
Zn121 O134 1.969 . S
Zn121 O135 1.965 . S
Zn121 O137 2.024 . S
C122 O123 1.229 1_545 S
C122 O131 1.058 . S
O123 C122 1.229 1_565 S
C124 O125 1.229 . S
C124 O137 1.058 . S
O125 C124 1.229 . S
O126 Zn120 1.969 1_565 S
O126 C129 1.267 . S
O127 Zn120 1.965 . S
O127 C138 1.260 . S
O128 Zn121 1.969 . S
O128 C138 1.258 . S
C129 O126 1.267 . S
C129 O130 1.228 . S
O130 C129 1.228 . S
O131 Zn120 2.024 . S
O131 C122 1.058 . S
C132 O133 1.228 . S
C132 O134 1.267 . S
O133 C132 1.228 . S
O134 Zn121 1.969 . S
O134 C132 1.267 . S
O135 Zn121 1.965 . S
O135 C139 1.260 . S
O136 Zn120 1.969 . S
O136 C139 1.258 . S
O137 Zn121 2.024 . S
O137 C124 1.058 . S
C138 O127 1.260 . S
C138 O128 1.258 . S
C139 O135 1.260 . S
C139 O136 1.258 . S
Zn140 O146 1.969 1_565 S
Zn140 O147 1.965 . S
Zn140 O151 2.024 . S
Zn140 O156 1.969 . S
Zn141 O148 1.969 . S
Zn141 O154 1.969 . S
Zn141 O155 1.965 . S
Zn141 O157 2.024 . S
C142 O143 1.229 1_565 S
C142 O151 1.058 . S
O143 C142 1.229 1_545 S
C144 O145 1.229 . S
C144 O157 1.058 . S
O145 C144 1.229 . S
O146 Zn140 1.969 1_545 S
O146 C149 1.267 . S
O147 Zn140 1.965 . S
O147 C158 1.260 . S
O148 Zn141 1.969 . S
O148 C158 1.258 . S
C149 O146 1.267 . S
C149 O150 1.228 . S
O150 C149 1.228 . S
O151 Zn140 2.024 . S
O151 C142 1.058 . S
C152 O153 1.228 . S
C152 O154 1.267 . S
O153 C152 1.228 . S
O154 Zn141 1.969 . S
O154 C152 1.267 . S
O155 Zn141 1.965 . S
O155 C159 1.260 . S
O156 Zn140 1.969 . S
O156 C159 1.258 . S
O157 Zn141 2.024 . S
O157 C144 1.058 . S
C158 O147 1.260 . S
C158 O148 1.258 . S
C159 O155 1.260 . S
C159 O156 1.258 . S
Zn160 O166 1.969 . S
Zn160 O167 1.965 . S
Zn160 O171 2.024 . S
Zn160 O176 1.969 . S
Zn161 O168 1.969 . S
Zn161 O174 1.969 . S
Zn161 O175 1.965 . S
Zn161 O177 2.024 . S
C162 O163 1.229 . S
C162 O171 1.058 . S
O163 C162 1.229 . S
C164 O165 1.229 . S
C164 O177 1.058 . S
O165 C164 1.229 . S
O166 Zn160 1.969 . S
O166 C169 1.267 . S
O167 Zn160 1.965 . S
O167 C178 1.260 . S
O168 Zn161 1.969 . S
O168 C178 1.258 . S
C169 O166 1.267 . S
C169 O170 1.228 . S
O170 C169 1.228 . S
O171 Zn160 2.024 . S
O171 C162 1.058 . S
C172 O173 1.228 . S
C172 O174 1.267 . S
O173 C172 1.228 . S
O174 Zn161 1.969 . S
O174 C172 1.267 . S
O175 Zn161 1.965 . S
O175 C179 1.260 . S
O176 Zn160 1.969 . S
O176 C179 1.258 . S
O177 Zn161 2.024 . S
O177 C164 1.058 . S
C178 O167 1.260 . S
C178 O168 1.258 . S
C179 O175 1.260 . S
C179 O176 1.258 . S
Zn180 O186 1.969 . S
Zn180 O187 1.965 . S
Zn180 O191 2.024 . S
Zn180 O196 1.969 . S
Zn181 O188 1.969 . S
Zn181 O194 1.969 . S
Zn181 O195 1.965 . S
Zn181 O197 2.024 . S
C182 O183 1.229 . S
C182 O191 1.058 . S
O183 C182 1.229 . S
C184 O185 1.229 . S
C184 O197 1.058 . S
O185 C184 1.229 . S
O186 Zn180 1.969 . S
O186 C189 1.267 . S
O187 Zn180 1.965 . S
O187 C198 1.260 . S
O188 Zn181 1.969 . S
O188 C198 1.258 . S
C189 O186 1.267 . S
C189 O190 1.228 . S
O190 C189 1.228 . S
O191 Zn180 2.024 . S
O191 C182 1.058 . S
C192 O193 1.228 . S
C192 O194 1.267 . S
O193 C192 1.228 . S
O194 Zn181 1.969 . S
O194 C192 1.267 . S
O195 Zn181 1.965 . S
O195 C199 1.260 . S
O196 Zn180 1.969 . S
O196 C199 1.258 . S
O197 Zn181 2.024 . S
O197 C184 1.058 . S
C198 O187 1.260 . S
C198 O188 1.258 . S
C199 O195 1.260 . S
C199 O196 1.258 . S
Zn200 O206 1.969 . S
Zn200 O207 1.965 . S
Zn200 O211 2.024 . S
Zn200 O216 1.969 . S
Zn201 O208 1.969 . S
Zn201 O214 1.969 . S
Zn201 O215 1.965 . S
Zn201 O217 2.024 . S
C202 O203 1.229 . S
C202 O211 1.058 . S
O203 C202 1.229 . S
C204 O205 1.229 . S
C204 O217 1.058 . S
O205 C204 1.229 . S
O206 Zn200 1.969 . S
O206 C209 1.267 . S
O207 Zn200 1.965 . S
O207 C218 1.260 . S
O208 Zn201 1.969 . S
O208 C218 1.258 . S
C209 O206 1.267 . S
C209 O210 1.228 . S
O210 C209 1.228 . S
O211 Zn200 2.024 . S
O211 C202 1.058 . S
C212 O213 1.228 . S
C212 O214 1.267 . S
O213 C212 1.228 . S
O214 Zn201 1.969 . S
O214 C212 1.267 . S
O215 Zn201 1.965 . S
O215 C219 1.260 . S
O216 Zn200 1.969 . S
O216 C219 1.258 . S
O217 Zn201 2.024 . S
O217 C204 1.058 . S
C218 O207 1.260 . S
C218 O208 1.258 . S
C219 O215 1.260 . S
C219 O216 1.258 . S
Zn220 O226 1.969 . S
Zn220 O227 1.965 . S
Zn220 O231 2.024 . S
Zn220 O236 1.969 . S
Zn221 O228 1.969 . S
Zn221 O234 1.969 . S
Zn221 O235 1.965 . S
Zn221 O237 2.024 . S
C222 O223 1.229 . S
C222 O231 1.058 . S
O223 C222 1.229 . S
C224 O225 1.229 . S
C224 O237 1.058 . S
O225 C224 1.229 . S
O226 Zn220 1.969 . S
O226 C229 1.267 . S
O227 Zn220 1.965 . S
O227 C238 1.260 . S
O228 Zn221 1.969 . S
O228 C238 1.258 . S
C229 O226 1.267 . S
C229 O230 1.228 . S
O230 C229 1.228 . S
O231 Zn220 2.024 . S
O231 C222 1.058 . S
C232 O233 1.228 . S
C232 O234 1.267 . S
O233 C232 1.228 . S
O234 Zn221 1.969 . S
O234 C232 1.267 . S
O235 Zn221 1.965 . S
O235 C239 1.260 . S
O236 Zn220 1.969 . S
O236 C239 1.258 . S
O237 Zn221 2.024 . S
O237 C224 1.058 . S
C238 O227 1.260 . S
C238 O228 1.258 . S
C239 O235 1.260 . S
C239 O236 1.258 . S
Zn240 O246 1.969 . S
Zn240 O247 1.965 . S
Zn240 O251 2.024 . S
Zn240 O256 1.969 . S
Zn241 O248 1.969 . S
Zn241 O254 1.969 . S
Zn241 O255 1.965 . S
Zn241 O257 2.024 . S
C242 O243 1.229 . S
C242 O251 1.058 . S
O243 C242 1.229 . S
C244 O245 1.229 . S
C244 O257 1.058 . S
O245 C244 1.229 . S
O246 Zn240 1.969 . S
O246 C249 1.267 . S
O247 Zn240 1.965 . S
O247 C258 1.260 . S
O248 Zn241 1.969 . S
O248 C258 1.258 . S
C249 O246 1.267 . S
C249 O250 1.228 . S
O250 C249 1.228 . S
O251 Zn240 2.024 . S
O251 C242 1.058 . S
C252 O253 1.228 . S
C252 O254 1.267 . S
O253 C252 1.228 . S
O254 Zn241 1.969 . S
O254 C252 1.267 . S
O255 Zn241 1.965 . S
O255 C259 1.260 . S
O256 Zn240 1.969 . S
O256 C259 1.258 . S
O257 Zn241 2.024 . S
O257 C244 1.058 . S
C258 O247 1.260 . S
C258 O248 1.258 . S
C259 O255 1.260 . S
C259 O256 1.258 . S
Zn260 O266 1.969 . S
Zn260 O267 1.965 . S
Zn260 O271 2.024 . S
Zn260 O276 1.969 . S
Zn261 O268 1.969 . S
Zn261 O274 1.969 . S
Zn261 O275 1.965 . S
Zn261 O277 2.024 . S
C262 O263 1.229 . S
C262 O271 1.058 . S
O263 C262 1.229 . S
C264 O265 1.229 . S
C264 O277 1.058 . S
O265 C264 1.229 . S
O266 Zn260 1.969 . S
O266 C269 1.267 . S
O267 Zn260 1.965 . S
O267 C278 1.260 . S
O268 Zn261 1.969 . S
O268 C278 1.258 . S
C269 O266 1.267 . S
C269 O270 1.228 . S
O270 C269 1.228 . S
O271 Zn260 2.024 . S
O271 C262 1.058 . S
C272 O273 1.228 . S
C272 O274 1.267 . S
O273 C272 1.228 . S
O274 Zn261 1.969 . S
O274 C272 1.267 . S
O275 Zn261 1.965 . S
O275 C279 1.260 . S
O276 Zn260 1.969 . S
O276 C279 1.258 . S
O277 Zn261 2.024 . S
O277 C264 1.058 . S
C278 O267 1.260 . S
C278 O268 1.258 . S
C279 O275 1.260 . S
C279 O276 1.258 . S
Zn280 O286 1.969 . S
Zn280 O287 1.965 . S
Zn280 O291 2.024 . S
Zn280 O296 1.969 . S
Zn281 O288 1.969 . S
Zn281 O294 1.969 . S
Zn281 O295 1.965 . S
Zn281 O297 2.024 . S
C282 O283 1.229 . S
C282 O291 1.058 . S
O283 C282 1.229 . S
C284 O285 1.229 . S
C284 O297 1.058 . S
O285 C284 1.229 . S
O286 Zn280 1.969 . S
O286 C289 1.267 . S
O287 Zn280 1.965 . S
O287 C298 1.260 . S
O288 Zn281 1.969 . S
O288 C298 1.258 . S
C289 O286 1.267 . S
C289 O290 1.228 . S
O290 C289 1.228 . S
O291 Zn280 2.024 . S
O291 C282 1.058 . S
C292 O293 1.228 . S
C292 O294 1.267 . S
O293 C292 1.228 . S
O294 Zn281 1.969 . S
O294 C292 1.267 . S
O295 Zn281 1.965 . S
O295 C299 1.260 . S
O296 Zn280 1.969 . S
O296 C299 1.258 . S
O297 Zn281 2.024 . S
O297 C284 1.058 . S
C298 O287 1.260 . S
C298 O288 1.258 . S
C299 O295 1.260 . S
C299 O296 1.258 . S
Zn300 O306 1.969 . S
Zn300 O307 1.965 . S
Zn300 O311 2.024 . S
Zn300 O316 1.969 . S
Zn301 O308 1.969 . S
Zn301 O314 1.969 . S
Zn301 O315 1.965 . S
Zn301 O317 2.024 . S
C302 O303 1.229 . S
C302 O311 1.058 . S
O303 C302 1.229 . S
C304 O305 1.229 . S
C304 O317 1.058 . S
O305 C304 1.229 . S
O306 Zn300 1.969 . S
O306 C309 1.267 . S
O307 Zn300 1.965 . S
O307 C318 1.260 . S
O308 Zn301 1.969 . S
O308 C318 1.258 . S
C309 O306 1.267 . S
C309 O310 1.228 . S
O310 C309 1.228 . S
O311 Zn300 2.024 . S
O311 C302 1.058 . S
C312 O313 1.228 . S
C312 O314 1.267 . S
O313 C312 1.228 . S
O314 Zn301 1.969 . S
O314 C312 1.267 . S
O315 Zn301 1.965 . S
O315 C319 1.260 . S
O316 Zn300 1.969 . S
O316 C319 1.258 . S
O317 Zn301 2.024 . S
O317 C304 1.058 . S
C318 O307 1.260 . S
C318 O308 1.258 . S
C319 O315 1.260 . S
C319 O316 1.258 . S
H320 C332 0.930 . S
H321 C334 0.930 . S
H322 C335 0.930 . S
H323 C339 0.959 . S
H324 C339 0.959 . S
H325 C339 0.961 . S
H326 C340 0.960 . S
H327 C340 0.961 . S
H328 C340 0.959 . S
H329 C343 0.929 . S
H330 C344 0.931 . S
H331 C346 0.930 . S
C332 H320 0.930 . S
C332 C333 1.399 . S
C332 C337 1.399 . S
C333 C332 1.399 . S
C333 C334 1.376 . S
C334 H321 0.930 . S
C334 C333 1.376 . S
C334 C335 1.388 . S
C335 H322 0.930 . S
C335 C334 1.388 . S
C335 C336 1.390 . S
C336 C335 1.390 . S
C336 C337 1.394 . S
C336 C342 1.465 . S
C337 C332 1.399 . S
C337 C336 1.394 . S
C337 C338 1.516 . S
C338 C337 1.516 . S
C338 C339 1.502 . S
C338 C340 1.561 . S
C338 C341 1.526 . S
C339 H323 0.959 . S
C339 H324 0.959 . S
C339 H325 0.961 . S
C339 C338 1.502 . S
C340 H326 0.960 . S
C340 H327 0.961 . S
C340 H328 0.959 . S
C340 C338 1.561 . S
C341 C338 1.526 . S
C341 C342 1.396 . S
C341 C346 1.390 . S
C342 C336 1.465 . S
C342 C341 1.396 . S
C342 C343 1.399 . S
C343 H329 0.929 . S
C343 C342 1.399 . S
C343 C344 1.385 . S
C344 H330 0.931 . S
C344 C343 1.385 . S
C344 C345 1.389 . S
C345 C344 1.389 . S
C345 C346 1.387 . S
C346 H331 0.930 . S
C346 C341 1.390 . S
C346 C345 1.387 . S
H347 C359 0.930 . S
H348 C361 0.930 . S
H349 C362 0.930 . S
H350 C366 0.959 . S
H351 C366 0.959 . S
H352 C366 0.961 . S
H353 C367 0.960 . S
H354 C367 0.961 . S
H355 C367 0.959 . S
H356 C370 0.929 . S
H357 C371 0.931 . S
H358 C373 0.930 . S
C359 H347 0.930 . S
C359 C360 1.399 . S
C359 C364 1.399 . S
C360 C359 1.399 . S
C360 C361 1.376 . S
C361 H348 0.930 . S
C361 C360 1.376 . S
C361 C362 1.388 . S
C362 H349 0.930 . S
C362 C361 1.388 . S
C362 C363 1.390 . S
C363 C362 1.390 . S
C363 C364 1.394 . S
C363 C369 1.465 . S
C364 C359 1.399 . S
C364 C363 1.394 . S
C364 C365 1.516 . S
C365 C364 1.516 . S
C365 C366 1.502 . S
C365 C367 1.561 . S
C365 C368 1.526 . S
C366 H350 0.959 . S
C366 H351 0.959 . S
C366 H352 0.961 . S
C366 C365 1.502 . S
C367 H353 0.960 . S
C367 H354 0.961 . S
C367 H355 0.959 . S
C367 C365 1.561 . S
C368 C365 1.526 . S
C368 C369 1.396 . S
C368 C373 1.390 . S
C369 C363 1.465 . S
C369 C368 1.396 . S
C369 C370 1.399 . S
C370 H356 0.929 . S
C370 C369 1.399 . S
C370 C371 1.385 . S
C371 H357 0.931 . S
C371 C370 1.385 . S
C371 C372 1.389 . S
C372 C371 1.389 . S
C372 C373 1.387 . S
C373 H358 0.930 . S
C373 C368 1.390 . S
C373 C372 1.387 . S
H374 C386 0.930 . S
H375 C388 0.930 . S
H376 C389 0.930 . S
H377 C393 0.959 . S
H378 C393 0.959 . S
H379 C393 0.961 . S
H380 C394 0.960 . S
H381 C394 0.961 . S
H382 C394 0.959 . S
H383 C397 0.929 . S
H384 C398 0.931 . S
H385 C400 0.930 . S
C386 H374 0.930 . S
C386 C387 1.399 . S
C386 C391 1.399 . S
C387 C386 1.399 . S
C387 C388 1.376 . S
C388 H375 0.930 . S
C388 C387 1.376 . S
C388 C389 1.388 . S
C389 H376 0.930 . S
C389 C388 1.388 . S
C389 C390 1.390 . S
C390 C389 1.390 . S
C390 C391 1.394 . S
C390 C396 1.465 . S
C391 C386 1.399 . S
C391 C390 1.394 . S
C391 C392 1.516 . S
C392 C391 1.516 . S
C392 C393 1.502 . S
C392 C394 1.561 . S
C392 C395 1.526 . S
C393 H377 0.959 . S
C393 H378 0.959 . S
C393 H379 0.961 . S
C393 C392 1.502 . S
C394 H380 0.960 . S
C394 H381 0.961 . S
C394 H382 0.959 . S
C394 C392 1.561 . S
C395 C392 1.526 . S
C395 C396 1.396 . S
C395 C400 1.390 . S
C396 C390 1.465 . S
C396 C395 1.396 . S
C396 C397 1.399 . S
C397 H383 0.929 . S
C397 C396 1.399 . S
C397 C398 1.385 . S
C398 H384 0.931 . S
C398 C397 1.385 . S
C398 C399 1.389 . S
C399 C398 1.389 . S
C399 C400 1.387 . S
C400 H385 0.930 . S
C400 C395 1.390 . S
C400 C399 1.387 . S
H401 C413 0.930 . S
H402 C415 0.930 . S
H403 C416 0.930 . S
H404 C420 0.959 . S
H405 C420 0.959 . S
H406 C420 0.961 . S
H407 C421 0.960 . S
H408 C421 0.961 . S
H409 C421 0.959 . S
H410 C424 0.929 . S
H411 C425 0.931 . S
H412 C427 0.930 . S
C413 H401 0.930 . S
C413 C414 1.399 . S
C413 C418 1.399 . S
C414 C413 1.399 . S
C414 C415 1.376 . S
C415 H402 0.930 . S
C415 C414 1.376 . S
C415 C416 1.388 . S
C416 H403 0.930 . S
C416 C415 1.388 . S
C416 C417 1.390 . S
C417 C416 1.390 . S
C417 C418 1.394 . S
C417 C423 1.465 . S
C418 C413 1.399 . S
C418 C417 1.394 . S
C418 C419 1.516 . S
C419 C418 1.516 . S
C419 C420 1.502 . S
C419 C421 1.561 . S
C419 C422 1.526 . S
C420 H404 0.959 . S
C420 H405 0.959 . S
C420 H406 0.961 . S
C420 C419 1.502 . S
C421 H407 0.960 . S
C421 H408 0.961 . S
C421 H409 0.959 . S
C421 C419 1.561 . S
C422 C419 1.526 . S
C422 C423 1.396 . S
C422 C427 1.390 . S
C423 C417 1.465 . S
C423 C422 1.396 . S
C423 C424 1.399 . S
C424 H410 0.929 . S
C424 C423 1.399 . S
C424 C425 1.385 . S
C425 H411 0.931 . S
C425 C424 1.385 . S
C425 C426 1.389 . S
C426 C425 1.389 . S
C426 C427 1.387 . S
C427 H412 0.930 . S
C427 C422 1.390 . S
C427 C426 1.387 . S
H428 C440 0.930 . S
H429 C442 0.930 . S
H430 C443 0.930 . S
H431 C447 0.959 . S
H432 C447 0.959 . S
H433 C447 0.961 . S
H434 C448 0.960 . S
H435 C448 0.961 . S
H436 C448 0.959 . S
H437 C451 0.929 . S
H438 C452 0.931 . S
H439 C454 0.930 . S
C440 H428 0.930 . S
C440 C441 1.399 . S
C440 C445 1.399 . S
C441 C440 1.399 . S
C441 C442 1.376 . S
C442 H429 0.930 . S
C442 C441 1.376 . S
C442 C443 1.388 . S
C443 H430 0.930 . S
C443 C442 1.388 . S
C443 C444 1.390 . S
C444 C443 1.390 . S
C444 C445 1.394 . S
C444 C450 1.465 . S
C445 C440 1.399 . S
C445 C444 1.394 . S
C445 C446 1.516 . S
C446 C445 1.516 . S
C446 C447 1.502 . S
C446 C448 1.561 . S
C446 C449 1.526 . S
C447 H431 0.959 . S
C447 H432 0.959 . S
C447 H433 0.961 . S
C447 C446 1.502 . S
C448 H434 0.960 . S
C448 H435 0.961 . S
C448 H436 0.959 . S
C448 C446 1.561 . S
C449 C446 1.526 . S
C449 C450 1.396 . S
C449 C454 1.390 . S
C450 C444 1.465 . S
C450 C449 1.396 . S
C450 C451 1.399 . S
C451 H437 0.929 . S
C451 C450 1.399 . S
C451 C452 1.385 . S
C452 H438 0.931 . S
C452 C451 1.385 . S
C452 C453 1.389 . S
C453 C452 1.389 . S
C453 C454 1.387 . S
C454 H439 0.930 . S
C454 C449 1.390 . S
C454 C453 1.387 . S
H455 C467 0.930 . S
H456 C469 0.930 . S
H457 C470 0.930 . S
H458 C474 0.959 . S
H459 C474 0.959 . S
H460 C474 0.961 . S
H461 C475 0.960 . S
H462 C475 0.961 . S
H463 C475 0.959 . S
H464 C478 0.929 . S
H465 C479 0.931 . S
H466 C481 0.930 . S
C467 H455 0.930 . S
C467 C468 1.399 . S
C467 C472 1.399 . S
C468 C467 1.399 . S
C468 C469 1.376 . S
C469 H456 0.930 . S
C469 C468 1.376 . S
C469 C470 1.388 . S
C470 H457 0.930 . S
C470 C469 1.388 . S
C470 C471 1.390 . S
C471 C470 1.390 . S
C471 C472 1.394 . S
C471 C477 1.465 . S
C472 C467 1.399 . S
C472 C471 1.394 . S
C472 C473 1.516 . S
C473 C472 1.516 . S
C473 C474 1.502 . S
C473 C475 1.561 . S
C473 C476 1.526 . S
C474 H458 0.959 . S
C474 H459 0.959 . S
C474 H460 0.961 . S
C474 C473 1.502 . S
C475 H461 0.960 . S
C475 H462 0.961 . S
C475 H463 0.959 . S
C475 C473 1.561 . S
C476 C473 1.526 . S
C476 C477 1.396 . S
C476 C481 1.390 . S
C477 C471 1.465 . S
C477 C476 1.396 . S
C477 C478 1.399 . S
C478 H464 0.929 . S
C478 C477 1.399 . S
C478 C479 1.385 . S
C479 H465 0.931 . S
C479 C478 1.385 . S
C479 C480 1.389 . S
C480 C479 1.389 . S
C480 C481 1.387 . S
C481 H466 0.930 . S
C481 C476 1.390 . S
C481 C480 1.387 . S
H482 C494 0.930 . S
H483 C496 0.930 . S
H484 C497 0.930 . S
H485 C501 0.959 . S
H486 C501 0.959 . S
H487 C501 0.961 . S
H488 C502 0.960 . S
H489 C502 0.961 . S
H490 C502 0.959 . S
H491 C505 0.929 . S
H492 C506 0.931 . S
H493 C508 0.930 . S
C494 H482 0.930 . S
C494 C495 1.399 . S
C494 C499 1.399 . S
C495 C494 1.399 . S
C495 C496 1.376 . S
C496 H483 0.930 . S
C496 C495 1.376 . S
C496 C497 1.388 . S
C497 H484 0.930 . S
C497 C496 1.388 . S
C497 C498 1.390 . S
C498 C497 1.390 . S
C498 C499 1.394 . S
C498 C504 1.465 . S
C499 C494 1.399 . S
C499 C498 1.394 . S
C499 C500 1.516 . S
C500 C499 1.516 . S
C500 C501 1.502 . S
C500 C502 1.561 . S
C500 C503 1.526 . S
C501 H485 0.959 . S
C501 H486 0.959 . S
C501 H487 0.961 . S
C501 C500 1.502 . S
C502 H488 0.960 . S
C502 H489 0.961 . S
C502 H490 0.959 . S
C502 C500 1.561 . S
C503 C500 1.526 . S
C503 C504 1.396 . S
C503 C508 1.390 . S
C504 C498 1.465 . S
C504 C503 1.396 . S
C504 C505 1.399 . S
C505 H491 0.929 . S
C505 C504 1.399 . S
C505 C506 1.385 . S
C506 H492 0.931 . S
C506 C505 1.385 . S
C506 C507 1.389 . S
C507 C506 1.389 . S
C507 C508 1.387 . S
C508 H493 0.930 . S
C508 C503 1.390 . S
C508 C507 1.387 . S
H509 C521 0.930 . S
H510 C523 0.930 . S
H511 C524 0.930 . S
H512 C528 0.959 . S
H513 C528 0.959 . S
H514 C528 0.961 . S
H515 C529 0.960 . S
H516 C529 0.961 . S
H517 C529 0.959 . S
H518 C532 0.929 . S
H519 C533 0.931 . S
H520 C535 0.930 . S
C521 H509 0.930 . S
C521 C522 1.399 . S
C521 C526 1.399 . S
C522 C521 1.399 . S
C522 C523 1.376 . S
C523 H510 0.930 . S
C523 C522 1.376 . S
C523 C524 1.388 . S
C524 H511 0.930 . S
C524 C523 1.388 . S
C524 C525 1.390 . S
C525 C524 1.390 . S
C525 C526 1.394 . S
C525 C531 1.465 . S
C526 C521 1.399 . S
C526 C525 1.394 . S
C526 C527 1.516 . S
C527 C526 1.516 . S
C527 C528 1.502 . S
C527 C529 1.561 . S
C527 C530 1.526 . S
C528 H512 0.959 . S
C528 H513 0.959 . S
C528 H514 0.961 . S
C528 C527 1.502 . S
C529 H515 0.960 . S
C529 H516 0.961 . S
C529 H517 0.959 . S
C529 C527 1.561 . S
C530 C527 1.526 . S
C530 C531 1.396 . S
C530 C535 1.390 . S
C531 C525 1.465 . S
C531 C530 1.396 . S
C531 C532 1.399 . S
C532 H518 0.929 . S
C532 C531 1.399 . S
C532 C533 1.385 . S
C533 H519 0.931 . S
C533 C532 1.385 . S
C533 C534 1.389 . S
C534 C533 1.389 . S
C534 C535 1.387 . S
C535 H520 0.930 . S
C535 C530 1.390 . S
C535 C534 1.387 . S
H536 C548 0.930 . S
H537 C550 0.930 . S
H538 C551 0.930 . S
H539 C555 0.959 . S
H540 C555 0.959 . S
H541 C555 0.961 . S
H542 C556 0.960 . S
H543 C556 0.961 . S
H544 C556 0.959 . S
H545 C559 0.929 . S
H546 C560 0.931 . S
H547 C562 0.930 1_565 S
C548 H536 0.930 . S
C548 C549 1.399 . S
C548 C553 1.399 . S
C549 C548 1.399 . S
C549 C550 1.376 1_565 S
C550 H537 0.930 . S
C550 C549 1.376 1_545 S
C550 C551 1.388 . S
C551 H538 0.930 . S
C551 C550 1.388 . S
C551 C552 1.390 . S
C552 C551 1.390 . S
C552 C553 1.394 1_545 S
C552 C558 1.465 . S
C553 C548 1.399 . S
C553 C552 1.394 1_565 S
C553 C554 1.516 . S
C554 C553 1.516 . S
C554 C555 1.502 . S
C554 C556 1.561 . S
C554 C557 1.526 . S
C555 H539 0.959 . S
C555 H540 0.959 . S
C555 H541 0.961 . S
C555 C554 1.502 . S
C556 H542 0.960 . S
C556 H543 0.961 . S
C556 H544 0.959 . S
C556 C554 1.561 . S
C557 C554 1.526 . S
C557 C558 1.396 1_565 S
C557 C562 1.390 1_565 S
C558 C552 1.465 . S
C558 C557 1.396 1_545 S
C558 C559 1.399 . S
C559 H545 0.929 . S
C559 C558 1.399 . S
C559 C560 1.385 . S
C560 H546 0.931 . S
C560 C559 1.385 . S
C560 C561 1.389 . S
C561 C560 1.389 . S
C561 C562 1.387 . S
C562 H547 0.930 1_545 S
C562 C557 1.390 1_545 S
C562 C561 1.387 . S
H563 C575 0.930 . S
H564 C577 0.930 . S
H565 C578 0.930 . S
H566 C582 0.959 . S
H567 C582 0.959 . S
H568 C582 0.961 . S
H569 C583 0.960 . S
H570 C583 0.961 . S
H571 C583 0.959 . S
H572 C586 0.929 . S
H573 C587 0.931 . S
H574 C589 0.930 1_545 S
C575 H563 0.930 . S
C575 C576 1.399 . S
C575 C580 1.399 . S
C576 C575 1.399 . S
C576 C577 1.376 1_545 S
C577 H564 0.930 . S
C577 C576 1.376 1_565 S
C577 C578 1.388 . S
C578 H565 0.930 . S
C578 C577 1.388 . S
C578 C579 1.390 . S
C579 C578 1.390 . S
C579 C580 1.394 1_565 S
C579 C585 1.465 . S
C580 C575 1.399 . S
C580 C579 1.394 1_545 S
C580 C581 1.516 . S
C581 C580 1.516 . S
C581 C582 1.502 . S
C581 C583 1.561 . S
C581 C584 1.526 . S
C582 H566 0.959 . S
C582 H567 0.959 . S
C582 H568 0.961 . S
C582 C581 1.502 . S
C583 H569 0.960 . S
C583 H570 0.961 . S
C583 H571 0.959 . S
C583 C581 1.561 . S
C584 C581 1.526 . S
C584 C585 1.396 1_545 S
C584 C589 1.390 1_545 S
C585 C579 1.465 . S
C585 C584 1.396 1_565 S
C585 C586 1.399 . S
C586 H572 0.929 . S
C586 C585 1.399 . S
C586 C587 1.385 . S
C587 H573 0.931 . S
C587 C586 1.385 . S
C587 C588 1.389 . S
C588 C587 1.389 . S
C588 C589 1.387 . S
C589 H574 0.930 1_565 S
C589 C584 1.390 1_565 S
C589 C588 1.387 . S
H590 C602 0.930 1_565 S
H591 C604 0.930 . S
H592 C605 0.930 . S
H593 C609 0.959 . S
H594 C609 0.959 . S
H595 C609 0.961 . S
H596 C610 0.960 . S
H597 C610 0.961 . S
H598 C610 0.959 . S
H599 C613 0.929 . S
H600 C614 0.931 . S
H601 C616 0.930 . S
C602 H590 0.930 1_545 S
C602 C603 1.399 . S
C602 C607 1.399 1_545 S
C603 C602 1.399 . S
C603 C604 1.376 . S
C604 H591 0.930 . S
C604 C603 1.376 . S
C604 C605 1.388 . S
C605 H592 0.930 . S
C605 C604 1.388 . S
C605 C606 1.390 . S
C606 C605 1.390 . S
C606 C607 1.394 1_545 S
C606 C612 1.465 . S
C607 C602 1.399 1_565 S
C607 C606 1.394 1_565 S
C607 C608 1.516 . S
C608 C607 1.516 . S
C608 C609 1.502 . S
C608 C610 1.561 . S
C608 C611 1.526 . S
C609 H593 0.959 . S
C609 H594 0.959 . S
C609 H595 0.961 . S
C609 C608 1.502 . S
C610 H596 0.960 . S
C610 H597 0.961 . S
C610 H598 0.959 . S
C610 C608 1.561 . S
C611 C608 1.526 . S
C611 C612 1.396 1_565 S
C611 C616 1.390 . S
C612 C606 1.465 . S
C612 C611 1.396 1_545 S
C612 C613 1.399 . S
C613 H599 0.929 . S
C613 C612 1.399 . S
C613 C614 1.385 . S
C614 H600 0.931 . S
C614 C613 1.385 . S
C614 C615 1.389 1_545 S
C615 C614 1.389 1_565 S
C615 C616 1.387 . S
C616 H601 0.930 . S
C616 C611 1.390 . S
C616 C615 1.387 . S
H617 C629 0.930 1_565 S
H618 C631 0.930 . S
H619 C632 0.930 . S
H620 C636 0.959 . S
H621 C636 0.959 . S
H622 C636 0.961 . S
H623 C637 0.960 . S
H624 C637 0.961 . S
H625 C637 0.959 . S
H626 C640 0.929 . S
H627 C641 0.931 . S
H628 C643 0.930 . S
C629 H617 0.930 1_545 S
C629 C630 1.399 . S
C629 C634 1.399 1_545 S
C630 C629 1.399 . S
C630 C631 1.376 . S
C631 H618 0.930 . S
C631 C630 1.376 . S
C631 C632 1.388 . S
C632 H619 0.930 . S
C632 C631 1.388 . S
C632 C633 1.390 . S
C633 C632 1.390 . S
C633 C634 1.394 1_545 S
C633 C639 1.465 . S
C634 C629 1.399 1_565 S
C634 C633 1.394 1_565 S
C634 C635 1.516 . S
C635 C634 1.516 . S
C635 C636 1.502 . S
C635 C637 1.561 . S
C635 C638 1.526 . S
C636 H620 0.959 . S
C636 H621 0.959 . S
C636 H622 0.961 . S
C636 C635 1.502 . S
C637 H623 0.960 . S
C637 H624 0.961 . S
C637 H625 0.959 . S
C637 C635 1.561 . S
C638 C635 1.526 . S
C638 C639 1.396 1_565 S
C638 C643 1.390 . S
C639 C633 1.465 . S
C639 C638 1.396 1_545 S
C639 C640 1.399 . S
C640 H626 0.929 . S
C640 C639 1.399 . S
C640 C641 1.385 . S
C641 H627 0.931 . S
C641 C640 1.385 . S
C641 C642 1.389 1_545 S
C642 C641 1.389 1_565 S
C642 C643 1.387 . S
C643 H628 0.930 . S
C643 C638 1.390 . S
C643 C642 1.387 . S
H644 C656 0.930 . S
H645 C658 0.930 . S
H646 C659 0.930 . S
H647 C663 0.959 . S
H648 C663 0.959 . S
H649 C663 0.961 . S
H650 C664 0.960 . S
H651 C664 0.961 . S
H652 C664 0.959 . S
H653 C667 0.929 . S
H654 C668 0.931 . S
H655 C670 0.930 . S
C656 H644 0.930 . S
C656 C657 1.399 . S
C656 C661 1.399 . S
C657 C656 1.399 . S
C657 C658 1.376 . S
C658 H645 0.930 . S
C658 C657 1.376 . S
C658 C659 1.388 . S
C659 H646 0.930 . S
C659 C658 1.388 . S
C659 C660 1.390 . S
C660 C659 1.390 . S
C660 C661 1.394 . S
C660 C666 1.465 . S
C661 C656 1.399 . S
C661 C660 1.394 . S
C661 C662 1.516 . S
C662 C661 1.516 . S
C662 C663 1.502 . S
C662 C664 1.561 . S
C662 C665 1.526 . S
C663 H647 0.959 . S
C663 H648 0.959 . S
C663 H649 0.961 . S
C663 C662 1.502 . S
C664 H650 0.960 . S
C664 H651 0.961 . S
C664 H652 0.959 . S
C664 C662 1.561 . S
C665 C662 1.526 . S
C665 C666 1.396 . S
C665 C670 1.390 . S
C666 C660 1.465 . S
C666 C665 1.396 . S
C666 C667 1.399 . S
C667 H653 0.929 . S
C667 C666 1.399 . S
C667 C668 1.385 . S
C668 H654 0.931 . S
C668 C667 1.385 . S
C668 C669 1.389 . S
C669 C668 1.389 . S
C669 C670 1.387 . S
C670 H655 0.930 . S
C670 C665 1.390 . S
C670 C669 1.387 . S
H671 C683 0.930 . S
H672 C685 0.930 . S
H673 C686 0.930 . S
H674 C690 0.959 . S
H675 C690 0.959 . S
H676 C690 0.961 . S
H677 C691 0.960 . S
H678 C691 0.961 . S
H679 C691 0.959 . S
H680 C694 0.929 . S
H681 C695 0.931 . S
H682 C697 0.930 . S
C683 H671 0.930 . S
C683 C684 1.399 . S
C683 C688 1.399 . S
C684 C683 1.399 . S
C684 C685 1.376 . S
C685 H672 0.930 . S
C685 C684 1.376 . S
C685 C686 1.388 . S
C686 H673 0.930 . S
C686 C685 1.388 . S
C686 C687 1.390 . S
C687 C686 1.390 . S
C687 C688 1.394 . S
C687 C693 1.465 . S
C688 C683 1.399 . S
C688 C687 1.394 . S
C688 C689 1.516 . S
C689 C688 1.516 . S
C689 C690 1.502 . S
C689 C691 1.561 . S
C689 C692 1.526 . S
C690 H674 0.959 . S
C690 H675 0.959 . S
C690 H676 0.961 . S
C690 C689 1.502 . S
C691 H677 0.960 . S
C691 H678 0.961 . S
C691 H679 0.959 . S
C691 C689 1.561 . S
C692 C689 1.526 . S
C692 C693 1.396 . S
C692 C697 1.390 . S
C693 C687 1.465 . S
C693 C692 1.396 . S
C693 C694 1.399 . S
C694 H680 0.929 . S
C694 C693 1.399 . S
C694 C695 1.385 . S
C695 H681 0.931 . S
C695 C694 1.385 . S
C695 C696 1.389 . S
C696 C695 1.389 . S
C696 C697 1.387 . S
C697 H682 0.930 . S
C697 C692 1.390 . S
C697 C696 1.387 . S
H698 C710 0.930 . S
H699 C712 0.930 . S
H700 C713 0.930 . S
H701 C717 0.959 . S
H702 C717 0.959 . S
H703 C717 0.961 . S
H704 C718 0.960 . S
H705 C718 0.961 . S
H706 C718 0.959 . S
H707 C721 0.929 . S
H708 C722 0.931 . S
H709 C724 0.930 . S
C710 H698 0.930 . S
C710 C711 1.399 . S
C710 C715 1.399 . S
C711 C710 1.399 . S
C711 C712 1.376 . S
C712 H699 0.930 . S
C712 C711 1.376 . S
C712 C713 1.388 . S
C713 H700 0.930 . S
C713 C712 1.388 . S
C713 C714 1.390 . S
C714 C713 1.390 . S
C714 C715 1.394 . S
C714 C720 1.465 . S
C715 C710 1.399 . S
C715 C714 1.394 . S
C715 C716 1.516 . S
C716 C715 1.516 . S
C716 C717 1.502 . S
C716 C718 1.561 . S
C716 C719 1.526 . S
C717 H701 0.959 . S
C717 H702 0.959 . S
C717 H703 0.961 . S
C717 C716 1.502 . S
C718 H704 0.960 . S
C718 H705 0.961 . S
C718 H706 0.959 . S
C718 C716 1.561 . S
C719 C716 1.526 . S
C719 C720 1.396 . S
C719 C724 1.390 . S
C720 C714 1.465 . S
C720 C719 1.396 . S
C720 C721 1.399 . S
C721 H707 0.929 . S
C721 C720 1.399 . S
C721 C722 1.385 . S
C722 H708 0.931 . S
C722 C721 1.385 . S
C722 C723 1.389 . S
C723 C722 1.389 . S
C723 C724 1.387 . S
C724 H709 0.930 . S
C724 C719 1.390 . S
C724 C723 1.387 . S
H725 C737 0.930 . S
H726 C739 0.930 . S
H727 C740 0.930 . S
H728 C744 0.959 . S
H729 C744 0.959 . S
H730 C744 0.961 . S
H731 C745 0.960 . S
H732 C745 0.961 . S
H733 C745 0.959 . S
H734 C748 0.929 . S
H735 C749 0.931 . S
H736 C751 0.930 . S
C737 H725 0.930 . S
C737 C738 1.399 . S
C737 C742 1.399 . S
C738 C737 1.399 . S
C738 C739 1.376 . S
C739 H726 0.930 . S
C739 C738 1.376 . S
C739 C740 1.388 . S
C740 H727 0.930 . S
C740 C739 1.388 . S
C740 C741 1.390 . S
C741 C740 1.390 . S
C741 C742 1.394 . S
C741 C747 1.465 . S
C742 C737 1.399 . S
C742 C741 1.394 . S
C742 C743 1.516 . S
C743 C742 1.516 . S
C743 C744 1.502 . S
C743 C745 1.561 . S
C743 C746 1.526 . S
C744 H728 0.959 . S
C744 H729 0.959 . S
C744 H730 0.961 . S
C744 C743 1.502 . S
C745 H731 0.960 . S
C745 H732 0.961 . S
C745 H733 0.959 . S
C745 C743 1.561 . S
C746 C743 1.526 . S
C746 C747 1.396 . S
C746 C751 1.390 . S
C747 C741 1.465 . S
C747 C746 1.396 . S
C747 C748 1.399 . S
C748 H734 0.929 . S
C748 C747 1.399 . S
C748 C749 1.385 . S
C749 H735 0.931 . S
C749 C748 1.385 . S
C749 C750 1.389 . S
C750 C749 1.389 . S
C750 C751 1.387 . S
C751 H736 0.930 . S
C751 C746 1.390 . S
C751 C750 1.387 . S
H752 C764 0.930 . S
H753 C766 0.930 . S
H754 C767 0.930 . S
H755 C771 0.962 . S
H756 C771 0.979 . S
H757 C771 0.939 1_556 S
H758 C772 0.957 1_556 S
H759 C772 0.963 . S
H760 C772 0.959 . S
H761 C775 0.929 . S
H762 C776 0.931 . S
H763 C778 0.930 . S
C764 H752 0.930 . S
C764 C765 1.399 . S
C764 C769 1.399 . S
C765 C764 1.399 . S
C765 C766 1.376 . S
C766 H753 0.930 . S
C766 C765 1.376 . S
C766 C767 1.388 . S
C767 H754 0.930 . S
C767 C766 1.388 . S
C767 C768 1.390 . S
C768 C767 1.390 . S
C768 C769 1.394 . S
C768 C774 1.465 1_556 S
C769 C764 1.399 . S
C769 C768 1.394 . S
C769 C770 1.517 1_556 S
C770 C769 1.517 1_554 S
C770 C771 1.502 . S
C770 C772 1.561 1_545 S
C770 C773 1.525 . S
C771 H755 0.962 . S
C771 H756 0.979 . S
C771 H757 0.939 1_554 S
C771 C770 1.502 . S
C772 H758 0.957 1_554 S
C772 H759 0.963 . S
C772 H760 0.959 . S
C772 C770 1.561 1_565 S
C773 C770 1.525 . S
C773 C774 1.396 . S
C773 C778 1.390 . S
C774 C768 1.465 1_554 S
C774 C773 1.396 . S
C774 C775 1.399 . S
C775 H761 0.929 . S
C775 C774 1.399 . S
C775 C776 1.385 . S
C776 H762 0.931 . S
C776 C775 1.385 . S
C776 C777 1.389 . S
C777 C776 1.389 . S
C777 C778 1.387 . S
C778 H763 0.930 . S
C778 C773 1.390 . S
C778 C777 1.387 . S
H779 C791 0.930 . S
H780 C793 0.930 . S
H781 C794 0.930 . S
H782 C798 0.962 . S
H783 C798 0.979 1_545 S
H784 C798 0.939 1_546 S
H785 C799 0.957 1_556 S
H786 C799 0.963 . S
H787 C799 0.959 . S
H788 C802 0.929 . S
H789 C803 0.931 . S
H790 C805 0.930 . S
C791 H779 0.930 . S
C791 C792 1.399 . S
C791 C796 1.399 . S
C792 C791 1.399 . S
C792 C793 1.376 . S
C793 H780 0.930 . S
C793 C792 1.376 . S
C793 C794 1.388 . S
C794 H781 0.930 . S
C794 C793 1.388 . S
C794 C795 1.390 . S
C795 C794 1.390 . S
C795 C796 1.394 . S
C795 C801 1.465 1_556 S
C796 C791 1.399 . S
C796 C795 1.394 . S
C796 C797 1.517 1_556 S
C797 C796 1.517 1_554 S
C797 C798 1.502 . S
C797 C799 1.561 1_565 S
C797 C800 1.525 . S
C798 H782 0.962 . S
C798 H783 0.979 1_565 S
C798 H784 0.939 1_564 S
C798 C797 1.502 . S
C799 H785 0.957 1_554 S
C799 H786 0.963 . S
C799 H787 0.959 . S
C799 C797 1.561 1_545 S
C800 C797 1.525 . S
C800 C801 1.396 . S
C800 C805 1.390 . S
C801 C795 1.465 1_554 S
C801 C800 1.396 . S
C801 C802 1.399 . S
C802 H788 0.929 . S
C802 C801 1.399 . S
C802 C803 1.385 . S
C803 H789 0.931 . S
C803 C802 1.385 . S
C803 C804 1.389 . S
C804 C803 1.389 . S
C804 C805 1.387 . S
C805 H790 0.930 . S
C805 C800 1.390 . S
C805 C804 1.387 . S
H806 C818 0.930 . S
H807 C820 0.930 . S
H808 C821 0.930 . S
H809 C825 0.959 1_565 S
H810 C825 0.959 . S
H811 C825 0.961 . S
H812 C826 0.960 . S
H813 C826 0.961 . S
H814 C826 0.959 1_565 S
H815 C829 0.929 . S
H816 C830 0.931 . S
H817 C832 0.930 . S
C818 H806 0.930 . S
C818 C819 1.399 . S
C818 C823 1.399 . S
C819 C818 1.399 . S
C819 C820 1.376 . S
C820 H807 0.930 . S
C820 C819 1.376 . S
C820 C821 1.388 . S
C821 H808 0.930 . S
C821 C820 1.388 . S
C821 C822 1.390 . S
C822 C821 1.390 . S
C822 C823 1.394 . S
C822 C828 1.465 . S
C823 C818 1.399 . S
C823 C822 1.394 . S
C823 C824 1.516 . S
C824 C823 1.516 . S
C824 C825 1.502 1_565 S
C824 C826 1.561 1_565 S
C824 C827 1.526 . S
C825 H809 0.959 1_545 S
C825 H810 0.959 . S
C825 H811 0.961 . S
C825 C824 1.502 1_545 S
C826 H812 0.960 . S
C826 H813 0.961 . S
C826 H814 0.959 1_545 S
C826 C824 1.561 1_545 S
C827 C824 1.526 . S
C827 C828 1.396 . S
C827 C832 1.390 . S
C828 C822 1.465 . S
C828 C827 1.396 . S
C828 C829 1.399 . S
C829 H815 0.929 . S
C829 C828 1.399 . S
C829 C830 1.385 . S
C830 H816 0.931 . S
C830 C829 1.385 . S
C830 C831 1.389 . S
C831 C830 1.389 . S
C831 C832 1.387 . S
C832 H817 0.930 . S
C832 C827 1.390 . S
C832 C831 1.387 . S
H833 C845 0.930 . S
H834 C847 0.930 . S
H835 C848 0.930 . S
H836 C852 0.959 . S
H837 C852 0.959 . S
H838 C852 0.961 . S
H839 C853 0.960 . S
H840 C853 0.961 . S
H841 C853 0.959 . S
H842 C856 0.929 . S
H843 C857 0.931 . S
H844 C859 0.930 . S
C845 H833 0.930 . S
C845 C846 1.399 . S
C845 C850 1.399 . S
C846 C845 1.399 . S
C846 C847 1.376 . S
C847 H834 0.930 . S
C847 C846 1.376 . S
C847 C848 1.388 . S
C848 H835 0.930 . S
C848 C847 1.388 . S
C848 C849 1.390 . S
C849 C848 1.390 . S
C849 C850 1.394 . S
C849 C855 1.465 . S
C850 C845 1.399 . S
C850 C849 1.394 . S
C850 C851 1.516 . S
C851 C850 1.516 . S
C851 C852 1.502 . S
C851 C853 1.561 1_545 S
C851 C854 1.526 . S
C852 H836 0.959 . S
C852 H837 0.959 . S
C852 H838 0.961 . S
C852 C851 1.502 . S
C853 H839 0.960 . S
C853 H840 0.961 . S
C853 H841 0.959 . S
C853 C851 1.561 1_565 S
C854 C851 1.526 . S
C854 C855 1.396 . S
C854 C859 1.390 . S
C855 C849 1.465 . S
C855 C854 1.396 . S
C855 C856 1.399 . S
C856 H842 0.929 . S
C856 C855 1.399 . S
C856 C857 1.385 . S
C857 H843 0.931 . S
C857 C856 1.385 . S
C857 C858 1.389 . S
C858 C857 1.389 . S
C858 C859 1.387 . S
C859 H844 0.930 . S
C859 C854 1.390 . S
C859 C858 1.387 . S
H860 C872 0.930 . S
H861 C874 0.930 . S
H862 C875 0.930 . S
H863 C879 0.962 . S
H864 C879 0.979 . S
H865 C879 0.939 1_554 S
H866 C880 0.957 1_554 S
H867 C880 0.963 . S
H868 C880 0.959 . S
H869 C883 0.929 . S
H870 C884 0.931 . S
H871 C886 0.930 . S
C872 H860 0.930 . S
C872 C873 1.399 . S
C872 C877 1.399 . S
C873 C872 1.399 . S
C873 C874 1.376 . S
C874 H861 0.930 . S
C874 C873 1.376 . S
C874 C875 1.388 . S
C875 H862 0.930 . S
C875 C874 1.388 . S
C875 C876 1.390 . S
C876 C875 1.390 . S
C876 C877 1.394 . S
C876 C882 1.465 1_554 S
C877 C872 1.399 . S
C877 C876 1.394 . S
C877 C878 1.517 1_554 S
C878 C877 1.517 1_556 S
C878 C879 1.502 . S
C878 C880 1.561 . S
C878 C881 1.525 . S
C879 H863 0.962 . S
C879 H864 0.979 . S
C879 H865 0.939 1_556 S
C879 C878 1.502 . S
C880 H866 0.957 1_556 S
C880 H867 0.963 . S
C880 H868 0.959 . S
C880 C878 1.561 . S
C881 C878 1.525 . S
C881 C882 1.396 . S
C881 C886 1.390 . S
C882 C876 1.465 1_556 S
C882 C881 1.396 . S
C882 C883 1.399 . S
C883 H869 0.929 . S
C883 C882 1.399 . S
C883 C884 1.385 . S
C884 H870 0.931 . S
C884 C883 1.385 . S
C884 C885 1.389 . S
C885 C884 1.389 . S
C885 C886 1.387 . S
C886 H871 0.930 . S
C886 C881 1.390 . S
C886 C885 1.387 . S
H887 C899 0.930 . S
H888 C901 0.930 . S
H889 C902 0.930 . S
H890 C906 0.962 . S
H891 C906 0.979 . S
H892 C906 0.939 1_556 S
H893 C907 0.957 1_556 S
H894 C907 0.963 . S
H895 C907 0.959 . S
H896 C910 0.929 . S
H897 C911 0.931 . S
H898 C913 0.930 . S
C899 H887 0.930 . S
C899 C900 1.399 . S
C899 C904 1.399 . S
C900 C899 1.399 . S
C900 C901 1.376 . S
C901 H888 0.930 . S
C901 C900 1.376 . S
C901 C902 1.388 . S
C902 H889 0.930 . S
C902 C901 1.388 . S
C902 C903 1.390 . S
C903 C902 1.390 . S
C903 C904 1.394 . S
C903 C909 1.465 1_556 S
C904 C899 1.399 . S
C904 C903 1.394 . S
C904 C905 1.517 1_556 S
C905 C904 1.517 1_554 S
C905 C906 1.502 . S
C905 C907 1.561 . S
C905 C908 1.525 . S
C906 H890 0.962 . S
C906 H891 0.979 . S
C906 H892 0.939 1_554 S
C906 C905 1.502 . S
C907 H893 0.957 1_554 S
C907 H894 0.963 . S
C907 H895 0.959 . S
C907 C905 1.561 . S
C908 C905 1.525 . S
C908 C909 1.396 . S
C908 C913 1.390 . S
C909 C903 1.465 1_554 S
C909 C908 1.396 . S
C909 C910 1.399 . S
C910 H896 0.929 . S
C910 C909 1.399 . S
C910 C911 1.385 . S
C911 H897 0.931 . S
C911 C910 1.385 . S
C911 C912 1.389 . S
C912 C911 1.389 . S
C912 C913 1.387 . S
C913 H898 0.930 . S
C913 C908 1.390 . S
C913 C912 1.387 . S
H914 C926 0.930 . S
H915 C928 0.930 . S
H916 C929 0.930 . S
H917 C933 0.959 . S
H918 C933 0.959 . S
H919 C933 0.961 . S
H920 C934 0.960 . S
H921 C934 0.961 . S
H922 C934 0.959 . S
H923 C937 0.929 . S
H924 C938 0.931 . S
H925 C940 0.930 . S
C926 H914 0.930 . S
C926 C927 1.399 . S
C926 C931 1.399 . S
C927 C926 1.399 . S
C927 C928 1.376 . S
C928 H915 0.930 . S
C928 C927 1.376 . S
C928 C929 1.388 . S
C929 H916 0.930 . S
C929 C928 1.388 . S
C929 C930 1.390 . S
C930 C929 1.390 . S
C930 C931 1.394 . S
C930 C936 1.465 . S
C931 C926 1.399 . S
C931 C930 1.394 . S
C931 C932 1.516 . S
C932 C931 1.516 . S
C932 C933 1.502 . S
C932 C934 1.561 . S
C932 C935 1.526 . S
C933 H917 0.959 . S
C933 H918 0.959 . S
C933 H919 0.961 . S
C933 C932 1.502 . S
C934 H920 0.960 . S
C934 H921 0.961 . S
C934 H922 0.959 . S
C934 C932 1.561 . S
C935 C932 1.526 . S
C935 C936 1.396 . S
C935 C940 1.390 . S
C936 C930 1.465 . S
C936 C935 1.396 . S
C936 C937 1.399 . S
C937 H923 0.929 . S
C937 C936 1.399 . S
C937 C938 1.385 . S
C938 H924 0.931 . S
C938 C937 1.385 . S
C938 C939 1.389 . S
C939 C938 1.389 . S
C939 C940 1.387 . S
C940 H925 0.930 . S
C940 C935 1.390 . S
C940 C939 1.387 . S
H941 C953 0.930 . S
H942 C955 0.930 . S
H943 C956 0.930 . S
H944 C960 0.959 . S
H945 C960 0.959 . S
H946 C960 0.961 . S
H947 C961 0.960 . S
H948 C961 0.961 . S
H949 C961 0.959 . S
H950 C964 0.929 . S
H951 C965 0.931 . S
H952 C967 0.930 . S
C953 H941 0.930 . S
C953 C954 1.399 . S
C953 C958 1.399 . S
C954 C953 1.399 . S
C954 C955 1.376 . S
C955 H942 0.930 . S
C955 C954 1.376 . S
C955 C956 1.388 . S
C956 H943 0.930 . S
C956 C955 1.388 . S
C956 C957 1.390 . S
C957 C956 1.390 . S
C957 C958 1.394 . S
C957 C963 1.465 . S
C958 C953 1.399 . S
C958 C957 1.394 . S
C958 C959 1.516 . S
C959 C958 1.516 . S
C959 C960 1.502 . S
C959 C961 1.561 . S
C959 C962 1.526 . S
C960 H944 0.959 . S
C960 H945 0.959 . S
C960 H946 0.961 . S
C960 C959 1.502 . S
C961 H947 0.960 . S
C961 H948 0.961 . S
C961 H949 0.959 . S
C961 C959 1.561 . S
C962 C959 1.526 . S
C962 C963 1.396 . S
C962 C967 1.390 . S
C963 C957 1.465 . S
C963 C962 1.396 . S
C963 C964 1.399 . S
C964 H950 0.929 . S
C964 C963 1.399 . S
C964 C965 1.385 . S
C965 H951 0.931 . S
C965 C964 1.385 . S
C965 C966 1.389 . S
C966 C965 1.389 . S
C966 C967 1.387 . S
C967 H952 0.930 . S
C967 C962 1.390 . S
C967 C966 1.387 . S
H968 C980 0.930 . S
H969 C982 0.930 . S
H970 C983 0.930 . S
H971 C987 0.959 . S
H972 C987 0.959 . S
H973 C987 0.961 1_655 S
H974 C988 0.960 . S
H975 C988 0.961 1_455 S
H976 C988 0.962 . S
H977 C991 0.929 . S
H978 C992 0.931 . S
H979 C994 0.930 1_565 S
C980 H968 0.930 . S
C980 C981 1.399 . S
C980 C985 1.399 . S
C981 C980 1.399 . S
C981 C982 1.376 1_565 S
C982 H969 0.930 . S
C982 C981 1.376 1_545 S
C982 C983 1.388 . S
C983 H970 0.930 . S
C983 C982 1.388 . S
C983 C984 1.390 . S
C984 C983 1.390 . S
C984 C985 1.394 1_545 S
C984 C990 1.465 1_655 S
C985 C980 1.399 . S
C985 C984 1.394 1_565 S
C985 C986 1.509 1_655 S
C986 C985 1.509 1_455 S
C986 C987 1.503 . S
C986 C988 1.561 1_465 S
C986 C989 1.532 1_565 S
C987 H971 0.959 . S
C987 H972 0.959 . S
C987 H973 0.961 1_455 S
C987 C986 1.503 . S
C988 H974 0.960 . S
C988 H975 0.961 1_655 S
C988 H976 0.962 . S
C988 C986 1.561 1_645 S
C989 C986 1.532 1_545 S
C989 C990 1.396 . S
C989 C994 1.390 . S
C990 C984 1.465 1_455 S
C990 C989 1.396 . S
C990 C991 1.399 . S
C991 H977 0.929 . S
C991 C990 1.399 . S
C991 C992 1.385 . S
C992 H978 0.931 . S
C992 C991 1.385 . S
C992 C993 1.389 . S
C993 C992 1.389 . S
C993 C994 1.387 . S
C994 H979 0.930 1_545 S
C994 C989 1.390 . S
C994 C993 1.387 . S
H995 C1007 0.930 1_565 S
H996 C1009 0.930 . S
H997 C1010 0.930 . S
H998 C1014 0.963 . S
H999 C1014 0.959 1_455 S
H1000 C1014 0.961 . S
H1001 C1015 0.960 1_655 S
H1002 C1015 0.961 . S
H1003 C1015 0.959 . S
H1004 C1018 0.929 . S
H1005 C1019 0.931 . S
H1006 C1021 0.930 . S
C1007 H995 0.930 1_545 S
C1007 C1008 1.399 . S
C1007 C1012 1.399 . S
C1008 C1007 1.399 . S
C1008 C1009 1.376 . S
C1009 H996 0.930 . S
C1009 C1008 1.376 . S
C1009 C1010 1.388 . S
C1010 H997 0.930 . S
C1010 C1009 1.388 . S
C1010 C1011 1.390 . S
C1011 C1010 1.390 . S
C1011 C1012 1.394 . S
C1011 C1017 1.465 1_655 S
C1012 C1007 1.399 . S
C1012 C1011 1.394 . S
C1012 C1013 1.517 1_545 S
C1013 C1012 1.517 1_565 S
C1013 C1014 1.502 . S
C1013 C1015 1.561 1_665 S
C1013 C1016 1.525 1_655 S
C1014 H998 0.963 . S
C1014 H999 0.959 1_655 S
C1014 H1000 0.961 . S
C1014 C1013 1.502 . S
C1015 H1001 0.960 1_455 S
C1015 H1002 0.961 . S
C1015 H1003 0.959 . S
C1015 C1013 1.561 1_445 S
C1016 C1013 1.525 1_455 S
C1016 C1017 1.396 1_565 S
C1016 C1021 1.390 . S
C1017 C1011 1.465 1_455 S
C1017 C1016 1.396 1_545 S
C1017 C1018 1.399 . S
C1018 H1004 0.929 . S
C1018 C1017 1.399 . S
C1018 C1019 1.385 . S
C1019 H1005 0.931 . S
C1019 C1018 1.385 . S
C1019 C1020 1.389 1_545 S
C1020 C1019 1.389 1_565 S
C1020 C1021 1.387 . S
C1021 H1006 0.930 . S
C1021 C1016 1.390 . S
C1021 C1020 1.387 . S
H1022 C1034 0.930 . S
H1023 C1036 0.930 . S
H1024 C1037 0.930 . S
H1025 C1041 0.959 . S
H1026 C1041 0.939 1_655 S
H1027 C1041 0.983 . S
H1028 C1042 0.960 1_455 S
H1029 C1042 0.961 . S
H1030 C1042 0.959 . S
H1031 C1045 0.929 . S
H1032 C1046 0.931 . S
H1033 C1048 0.930 . S
C1034 H1022 0.930 . S
C1034 C1035 1.399 . S
C1034 C1039 1.399 . S
C1035 C1034 1.399 . S
C1035 C1036 1.376 . S
C1036 H1023 0.930 . S
C1036 C1035 1.376 . S
C1036 C1037 1.388 . S
C1037 H1024 0.930 . S
C1037 C1036 1.388 . S
C1037 C1038 1.390 . S
C1038 C1037 1.390 . S
C1038 C1039 1.394 . S
C1038 C1044 1.465 1_455 S
C1039 C1034 1.399 . S
C1039 C1038 1.394 . S
C1039 C1040 1.502 1_455 S
C1040 C1039 1.502 1_655 S
C1040 C1041 1.501 1_645 S
C1040 C1042 1.563 . S
C1040 C1043 1.540 . S
C1041 H1025 0.959 . S
C1041 H1026 0.939 1_455 S
C1041 H1027 0.983 . S
C1041 C1040 1.501 1_465 S
C1042 H1028 0.960 1_655 S
C1042 H1029 0.961 . S
C1042 H1030 0.959 . S
C1042 C1040 1.563 . S
C1043 C1040 1.540 . S
C1043 C1044 1.396 . S
C1043 C1048 1.390 1_545 S
C1044 C1038 1.465 1_655 S
C1044 C1043 1.396 . S
C1044 C1045 1.399 1_545 S
C1045 H1031 0.929 . S
C1045 C1044 1.399 1_565 S
C1045 C1046 1.385 . S
C1046 H1032 0.931 . S
C1046 C1045 1.385 . S
C1046 C1047 1.389 . S
C1047 C1046 1.389 . S
C1047 C1048 1.387 . S
C1048 H1033 0.930 . S
C1048 C1043 1.390 1_565 S
C1048 C1047 1.387 . S
H1049 C1061 0.930 . S
H1050 C1063 0.930 . S
H1051 C1064 0.930 . S
H1052 C1068 0.961 1_545 S
H1053 C1068 0.968 . S
H1054 C1068 0.951 1_655 S
H1055 C1069 0.960 . S
H1056 C1069 0.961 1_455 S
H1057 C1069 0.959 . S
H1058 C1072 0.929 . S
H1059 C1073 0.931 . S
H1060 C1075 0.930 . S
C1061 H1049 0.930 . S
C1061 C1062 1.399 1_565 S
C1061 C1066 1.399 . S
C1062 C1061 1.399 1_545 S
C1062 C1063 1.376 . S
C1063 H1050 0.930 . S
C1063 C1062 1.376 . S
C1063 C1064 1.388 . S
C1064 H1051 0.930 . S
C1064 C1063 1.388 . S
C1064 C1065 1.390 . S
C1065 C1064 1.390 . S
C1065 C1066 1.394 1_545 S
C1065 C1071 1.465 1_655 S
C1066 C1061 1.399 . S
C1066 C1065 1.394 1_565 S
C1066 C1067 1.555 . S
C1067 C1066 1.555 . S
C1067 C1068 1.500 1_655 S
C1067 C1069 1.566 . S
C1067 C1070 1.486 1_655 S
C1068 H1052 0.961 1_565 S
C1068 H1053 0.968 . S
C1068 H1054 0.951 1_455 S
C1068 C1067 1.500 1_455 S
C1069 H1055 0.960 . S
C1069 H1056 0.961 1_655 S
C1069 H1057 0.959 . S
C1069 C1067 1.566 . S
C1070 C1067 1.486 1_455 S
C1070 C1071 1.396 1_565 S
C1070 C1075 1.390 . S
C1071 C1065 1.465 1_455 S
C1071 C1070 1.396 1_545 S
C1071 C1072 1.399 . S
C1072 H1058 0.929 . S
C1072 C1071 1.399 . S
C1072 C1073 1.385 . S
C1073 H1059 0.931 . S
C1073 C1072 1.385 . S
C1073 C1074 1.389 1_545 S
C1074 C1073 1.389 1_565 S
C1074 C1075 1.387 . S
C1075 H1060 0.930 . S
C1075 C1070 1.390 . S
C1075 C1074 1.387 . S
H1076 C1088 0.930 . S
H1077 C1090 0.930 . S
H1078 C1091 0.930 . S
H1079 C1095 0.959 . S
H1080 C1095 0.959 . S
H1081 C1095 0.961 . S
H1082 C1096 0.960 . S
H1083 C1096 0.961 . S
H1084 C1096 0.959 . S
H1085 C1099 0.929 . S
H1086 C1100 0.931 . S
H1087 C1102 0.930 . S
C1088 H1076 0.930 . S
C1088 C1089 1.399 . S
C1088 C1093 1.399 . S
C1089 C1088 1.399 . S
C1089 C1090 1.376 . S
C1090 H1077 0.930 . S
C1090 C1089 1.376 . S
C1090 C1091 1.388 . S
C1091 H1078 0.930 . S
C1091 C1090 1.388 . S
C1091 C1092 1.390 . S
C1092 C1091 1.390 . S
C1092 C1093 1.394 . S
C1092 C1098 1.465 . S
C1093 C1088 1.399 . S
C1093 C1092 1.394 . S
C1093 C1094 1.516 . S
C1094 C1093 1.516 . S
C1094 C1095 1.502 . S
C1094 C1096 1.561 . S
C1094 C1097 1.526 . S
C1095 H1079 0.959 . S
C1095 H1080 0.959 . S
C1095 H1081 0.961 . S
C1095 C1094 1.502 . S
C1096 H1082 0.960 . S
C1096 H1083 0.961 . S
C1096 H1084 0.959 . S
C1096 C1094 1.561 . S
C1097 C1094 1.526 . S
C1097 C1098 1.396 . S
C1097 C1102 1.390 . S
C1098 C1092 1.465 . S
C1098 C1097 1.396 . S
C1098 C1099 1.399 . S
C1099 H1085 0.929 . S
C1099 C1098 1.399 . S
C1099 C1100 1.385 . S
C1100 H1086 0.931 . S
C1100 C1099 1.385 . S
C1100 C1101 1.389 . S
C1101 C1100 1.389 . S
C1101 C1102 1.387 . S
C1102 H1087 0.930 . S
C1102 C1097 1.390 . S
C1102 C1101 1.387 . S
H1103 C1115 0.930 . S
H1104 C1117 0.930 . S
H1105 C1118 0.930 . S
H1106 C1122 0.959 . S
H1107 C1122 0.959 . S
H1108 C1122 0.961 . S
H1109 C1123 0.960 . S
H1110 C1123 0.961 . S
H1111 C1123 0.959 . S
H1112 C1126 0.929 . S
H1113 C1127 0.931 . S
H1114 C1129 0.930 . S
C1115 H1103 0.930 . S
C1115 C1116 1.399 . S
C1115 C1120 1.399 . S
C1116 C1115 1.399 . S
C1116 C1117 1.376 . S
C1117 H1104 0.930 . S
C1117 C1116 1.376 . S
C1117 C1118 1.388 . S
C1118 H1105 0.930 . S
C1118 C1117 1.388 . S
C1118 C1119 1.390 . S
C1119 C1118 1.390 . S
C1119 C1120 1.394 . S
C1119 C1125 1.465 . S
C1120 C1115 1.399 . S
C1120 C1119 1.394 . S
C1120 C1121 1.516 . S
C1121 C1120 1.516 . S
C1121 C1122 1.502 . S
C1121 C1123 1.561 . S
C1121 C1124 1.526 . S
C1122 H1106 0.959 . S
C1122 H1107 0.959 . S
C1122 H1108 0.961 . S
C1122 C1121 1.502 . S
C1123 H1109 0.960 . S
C1123 H1110 0.961 . S
C1123 H1111 0.959 . S
C1123 C1121 1.561 . S
C1124 C1121 1.526 . S
C1124 C1125 1.396 . S
C1124 C1129 1.390 . S
C1125 C1119 1.465 . S
C1125 C1124 1.396 . S
C1125 C1126 1.399 . S
C1126 H1112 0.929 . S
C1126 C1125 1.399 . S
C1126 C1127 1.385 . S
C1127 H1113 0.931 . S
C1127 C1126 1.385 . S
C1127 C1128 1.389 . S
C1128 C1127 1.389 . S
C1128 C1129 1.387 . S
C1129 H1114 0.930 . S
C1129 C1124 1.390 . S
C1129 C1128 1.387 . S
H1130 C1142 0.930 . S
H1131 C1144 0.930 . S
H1132 C1145 0.930 . S
H1133 C1149 0.959 . S
H1134 C1149 0.959 . S
H1135 C1149 0.961 . S
H1136 C1150 0.960 . S
H1137 C1150 0.961 . S
H1138 C1150 0.959 . S
H1139 C1153 0.929 . S
H1140 C1154 0.931 . S
H1141 C1156 0.930 . S
C1142 H1130 0.930 . S
C1142 C1143 1.399 . S
C1142 C1147 1.399 . S
C1143 C1142 1.399 . S
C1143 C1144 1.376 . S
C1144 H1131 0.930 . S
C1144 C1143 1.376 . S
C1144 C1145 1.388 . S
C1145 H1132 0.930 . S
C1145 C1144 1.388 . S
C1145 C1146 1.390 . S
C1146 C1145 1.390 . S
C1146 C1147 1.394 . S
C1146 C1152 1.465 . S
C1147 C1142 1.399 . S
C1147 C1146 1.394 . S
C1147 C1148 1.516 . S
C1148 C1147 1.516 . S
C1148 C1149 1.502 . S
C1148 C1150 1.561 . S
C1148 C1151 1.526 . S
C1149 H1133 0.959 . S
C1149 H1134 0.959 . S
C1149 H1135 0.961 . S
C1149 C1148 1.502 . S
C1150 H1136 0.960 . S
C1150 H1137 0.961 . S
C1150 H1138 0.959 . S
C1150 C1148 1.561 . S
C1151 C1148 1.526 . S
C1151 C1152 1.396 . S
C1151 C1156 1.390 . S
C1152 C1146 1.465 . S
C1152 C1151 1.396 . S
C1152 C1153 1.399 . S
C1153 H1139 0.929 . S
C1153 C1152 1.399 . S
C1153 C1154 1.385 . S
C1154 H1140 0.931 . S
C1154 C1153 1.385 . S
C1154 C1155 1.389 . S
C1155 C1154 1.389 . S
C1155 C1156 1.387 . S
C1156 H1141 0.930 . S
C1156 C1151 1.390 . S
C1156 C1155 1.387 . S
H1157 C1169 0.930 . S
H1158 C1171 0.930 . S
H1159 C1172 0.930 . S
H1160 C1176 0.959 . S
H1161 C1176 0.959 . S
H1162 C1176 0.961 . S
H1163 C1177 0.960 . S
H1164 C1177 0.961 . S
H1165 C1177 0.959 . S
H1166 C1180 0.929 . S
H1167 C1181 0.931 . S
H1168 C1183 0.930 . S
C1169 H1157 0.930 . S
C1169 C1170 1.399 . S
C1169 C1174 1.399 . S
C1170 C1169 1.399 . S
C1170 C1171 1.376 . S
C1171 H1158 0.930 . S
C1171 C1170 1.376 . S
C1171 C1172 1.388 . S
C1172 H1159 0.930 . S
C1172 C1171 1.388 . S
C1172 C1173 1.390 . S
C1173 C1172 1.390 . S
C1173 C1174 1.394 . S
C1173 C1179 1.465 . S
C1174 C1169 1.399 . S
C1174 C1173 1.394 . S
C1174 C1175 1.516 . S
C1175 C1174 1.516 . S
C1175 C1176 1.502 . S
C1175 C1177 1.561 . S
C1175 C1178 1.526 . S
C1176 H1160 0.959 . S
C1176 H1161 0.959 . S
C1176 H1162 0.961 . S
C1176 C1175 1.502 . S
C1177 H1163 0.960 . S
C1177 H1164 0.961 . S
C1177 H1165 0.959 . S
C1177 C1175 1.561 . S
C1178 C1175 1.526 . S
C1178 C1179 1.396 . S
C1178 C1183 1.390 . S
C1179 C1173 1.465 . S
C1179 C1178 1.396 . S
C1179 C1180 1.399 . S
C1180 H1166 0.929 . S
C1180 C1179 1.399 . S
C1180 C1181 1.385 . S
C1181 H1167 0.931 . S
C1181 C1180 1.385 . S
C1181 C1182 1.389 . S
C1182 C1181 1.389 . S
C1182 C1183 1.387 . S
C1183 H1168 0.930 . S
C1183 C1178 1.390 . S
C1183 C1182 1.387 . S
H1184 C1196 0.930 . S
H1185 C1198 0.930 . S
H1186 C1199 0.930 . S
H1187 C1203 0.959 . S
H1188 C1203 0.959 . S
H1189 C1203 0.961 . S
H1190 C1204 0.960 . S
H1191 C1204 0.961 . S
H1192 C1204 0.959 . S
H1193 C1207 0.929 . S
H1194 C1208 0.931 . S
H1195 C1210 0.930 . S
C1196 H1184 0.930 . S
C1196 C1197 1.399 . S
C1196 C1201 1.399 . S
C1197 C1196 1.399 . S
C1197 C1198 1.376 . S
C1198 H1185 0.930 . S
C1198 C1197 1.376 . S
C1198 C1199 1.388 . S
C1199 H1186 0.930 . S
C1199 C1198 1.388 . S
C1199 C1200 1.390 . S
C1200 C1199 1.390 . S
C1200 C1201 1.394 . S
C1200 C1206 1.465 . S
C1201 C1196 1.399 . S
C1201 C1200 1.394 . S
C1201 C1202 1.516 . S
C1202 C1201 1.516 . S
C1202 C1203 1.502 . S
C1202 C1204 1.561 . S
C1202 C1205 1.526 . S
C1203 H1187 0.959 . S
C1203 H1188 0.959 . S
C1203 H1189 0.961 . S
C1203 C1202 1.502 . S
C1204 H1190 0.960 . S
C1204 H1191 0.961 . S
C1204 H1192 0.959 . S
C1204 C1202 1.561 . S
C1205 C1202 1.526 . S
C1205 C1206 1.396 . S
C1205 C1210 1.390 . S
C1206 C1200 1.465 . S
C1206 C1205 1.396 . S
C1206 C1207 1.399 . S
C1207 H1193 0.929 . S
C1207 C1206 1.399 . S
C1207 C1208 1.385 . S
C1208 H1194 0.931 . S
C1208 C1207 1.385 . S
C1208 C1209 1.389 . S
C1209 C1208 1.389 . S
C1209 C1210 1.387 . S
C1210 H1195 0.930 . S
C1210 C1205 1.390 . S
C1210 C1209 1.387 . S
H1211 C1223 0.930 . S
H1212 C1225 0.930 . S
H1213 C1226 0.930 . S
H1214 C1230 0.959 . S
H1215 C1230 0.959 . S
H1216 C1230 0.961 . S
H1217 C1231 0.960 . S
H1218 C1231 0.961 . S
H1219 C1231 0.959 . S
H1220 C1234 0.929 . S
H1221 C1235 0.931 . S
H1222 C1237 0.930 . S
C1223 H1211 0.930 . S
C1223 C1224 1.399 . S
C1223 C1228 1.399 . S
C1224 C1223 1.399 . S
C1224 C1225 1.376 . S
C1225 H1212 0.930 . S
C1225 C1224 1.376 . S
C1225 C1226 1.388 . S
C1226 H1213 0.930 . S
C1226 C1225 1.388 . S
C1226 C1227 1.390 . S
C1227 C1226 1.390 . S
C1227 C1228 1.394 . S
C1227 C1233 1.465 . S
C1228 C1223 1.399 . S
C1228 C1227 1.394 . S
C1228 C1229 1.516 . S
C1229 C1228 1.516 . S
C1229 C1230 1.502 . S
C1229 C1231 1.561 . S
C1229 C1232 1.526 . S
C1230 H1214 0.959 . S
C1230 H1215 0.959 . S
C1230 H1216 0.961 . S
C1230 C1229 1.502 . S
C1231 H1217 0.960 . S
C1231 H1218 0.961 . S
C1231 H1219 0.959 . S
C1231 C1229 1.561 . S
C1232 C1229 1.526 . S
C1232 C1233 1.396 . S
C1232 C1237 1.390 . S
C1233 C1227 1.465 . S
C1233 C1232 1.396 . S
C1233 C1234 1.399 . S
C1234 H1220 0.929 . S
C1234 C1233 1.399 . S
C1234 C1235 1.385 . S
C1235 H1221 0.931 . S
C1235 C1234 1.385 . S
C1235 C1236 1.389 . S
C1236 C1235 1.389 . S
C1236 C1237 1.387 . S
C1237 H1222 0.930 . S
C1237 C1232 1.390 . S
C1237 C1236 1.387 . S
H1238 C1250 0.930 . S
H1239 C1252 0.930 . S
H1240 C1253 0.930 . S
H1241 C1257 0.959 . S
H1242 C1257 0.959 . S
H1243 C1257 0.961 . S
H1244 C1258 0.960 . S
H1245 C1258 0.961 . S
H1246 C1258 0.959 . S
H1247 C1261 0.929 . S
H1248 C1262 0.931 . S
H1249 C1264 0.930 . S
C1250 H1238 0.930 . S
C1250 C1251 1.399 . S
C1250 C1255 1.399 . S
C1251 C1250 1.399 . S
C1251 C1252 1.376 . S
C1252 H1239 0.930 . S
C1252 C1251 1.376 . S
C1252 C1253 1.388 . S
C1253 H1240 0.930 . S
C1253 C1252 1.388 . S
C1253 C1254 1.390 . S
C1254 C1253 1.390 . S
C1254 C1255 1.394 . S
C1254 C1260 1.465 . S
C1255 C1250 1.399 . S
C1255 C1254 1.394 . S
C1255 C1256 1.516 . S
C1256 C1255 1.516 . S
C1256 C1257 1.502 . S
C1256 C1258 1.561 . S
C1256 C1259 1.526 . S
C1257 H1241 0.959 . S
C1257 H1242 0.959 . S
C1257 H1243 0.961 . S
C1257 C1256 1.502 . S
C1258 H1244 0.960 . S
C1258 H1245 0.961 . S
C1258 H1246 0.959 . S
C1258 C1256 1.561 . S
C1259 C1256 1.526 . S
C1259 C1260 1.396 . S
C1259 C1264 1.390 . S
C1260 C1254 1.465 . S
C1260 C1259 1.396 . S
C1260 C1261 1.399 . S
C1261 H1247 0.929 . S
C1261 C1260 1.399 . S
C1261 C1262 1.385 . S
C1262 H1248 0.931 . S
C1262 C1261 1.385 . S
C1262 C1263 1.389 . S
C1263 C1262 1.389 . S
C1263 C1264 1.387 . S
C1264 H1249 0.930 . S
C1264 C1259 1.390 . S
C1264 C1263 1.387 . S
H1265 C1277 0.930 . S
H1266 C1279 0.930 . S
H1267 C1280 0.930 . S
H1268 C1284 0.959 . S
H1269 C1284 0.959 . S
H1270 C1284 0.961 . S
H1271 C1285 0.960 . S
H1272 C1285 0.961 . S
H1273 C1285 0.959 . S
H1274 C1288 0.929 . S
H1275 C1289 0.931 . S
H1276 C1291 0.930 . S
C1277 H1265 0.930 . S
C1277 C1278 1.399 . S
C1277 C1282 1.399 . S
C1278 C1277 1.399 . S
C1278 C1279 1.376 . S
C1279 H1266 0.930 . S
C1279 C1278 1.376 . S
C1279 C1280 1.388 . S
C1280 H1267 0.930 . S
C1280 C1279 1.388 . S
C1280 C1281 1.390 . S
C1281 C1280 1.390 . S
C1281 C1282 1.394 . S
C1281 C1287 1.465 . S
C1282 C1277 1.399 . S
C1282 C1281 1.394 . S
C1282 C1283 1.516 . S
C1283 C1282 1.516 . S
C1283 C1284 1.502 . S
C1283 C1285 1.561 . S
C1283 C1286 1.526 . S
C1284 H1268 0.959 . S
C1284 H1269 0.959 . S
C1284 H1270 0.961 . S
C1284 C1283 1.502 . S
C1285 H1271 0.960 . S
C1285 H1272 0.961 . S
C1285 H1273 0.959 . S
C1285 C1283 1.561 . S
C1286 C1283 1.526 . S
C1286 C1287 1.396 . S
C1286 C1291 1.390 . S
C1287 C1281 1.465 . S
C1287 C1286 1.396 . S
C1287 C1288 1.399 . S
C1288 H1274 0.929 . S
C1288 C1287 1.399 . S
C1288 C1289 1.385 . S
C1289 H1275 0.931 . S
C1289 C1288 1.385 . S
C1289 C1290 1.389 . S
C1290 C1289 1.389 . S
C1290 C1291 1.387 . S
C1291 H1276 0.930 . S
C1291 C1286 1.390 . S
C1291 C1290 1.387 . S
H1292 C1304 0.930 . S
H1293 C1306 0.930 . S
H1294 C1307 0.930 . S
H1295 C1311 0.959 . S
H1296 C1311 0.959 . S
H1297 C1311 0.961 . S
H1298 C1312 0.960 . S
H1299 C1312 0.961 . S
H1300 C1312 0.959 . S
H1301 C1315 0.929 . S
H1302 C1316 0.931 . S
H1303 C1318 0.930 . S
C1304 H1292 0.930 . S
C1304 C1305 1.399 . S
C1304 C1309 1.399 . S
C1305 C1304 1.399 . S
C1305 C1306 1.376 . S
C1306 H1293 0.930 . S
C1306 C1305 1.376 . S
C1306 C1307 1.388 . S
C1307 H1294 0.930 . S
C1307 C1306 1.388 . S
C1307 C1308 1.390 . S
C1308 C1307 1.390 . S
C1308 C1309 1.394 . S
C1308 C1314 1.465 . S
C1309 C1304 1.399 . S
C1309 C1308 1.394 . S
C1309 C1310 1.516 . S
C1310 C1309 1.516 . S
C1310 C1311 1.502 . S
C1310 C1312 1.561 . S
C1310 C1313 1.526 . S
C1311 H1295 0.959 . S
C1311 H1296 0.959 . S
C1311 H1297 0.961 . S
C1311 C1310 1.502 . S
C1312 H1298 0.960 . S
C1312 H1299 0.961 . S
C1312 H1300 0.959 . S
C1312 C1310 1.561 . S
C1313 C1310 1.526 . S
C1313 C1314 1.396 . S
C1313 C1318 1.390 . S
C1314 C1308 1.465 . S
C1314 C1313 1.396 . S
C1314 C1315 1.399 . S
C1315 H1301 0.929 . S
C1315 C1314 1.399 . S
C1315 C1316 1.385 . S
C1316 H1302 0.931 . S
C1316 C1315 1.385 . S
C1316 C1317 1.389 . S
C1317 C1316 1.389 . S
C1317 C1318 1.387 . S
C1318 H1303 0.930 . S
C1318 C1313 1.390 . S
C1318 C1317 1.387 . S
H1319 C1331 0.930 . S
H1320 C1333 0.930 . S
H1321 C1334 0.930 . S
H1322 C1338 0.959 . S
H1323 C1338 0.959 . S
H1324 C1338 0.961 . S
H1325 C1339 0.960 . S
H1326 C1339 0.961 . S
H1327 C1339 0.959 . S
H1328 C1342 0.929 . S
H1329 C1343 0.931 . S
H1330 C1345 0.930 . S
C1331 H1319 0.930 . S
C1331 C1332 1.399 . S
C1331 C1336 1.399 . S
C1332 C1331 1.399 . S
C1332 C1333 1.376 . S
C1333 H1320 0.930 . S
C1333 C1332 1.376 . S
C1333 C1334 1.388 . S
C1334 H1321 0.930 . S
C1334 C1333 1.388 . S
C1334 C1335 1.390 . S
C1335 C1334 1.390 . S
C1335 C1336 1.394 . S
C1335 C1341 1.465 . S
C1336 C1331 1.399 . S
C1336 C1335 1.394 . S
C1336 C1337 1.516 . S
C1337 C1336 1.516 . S
C1337 C1338 1.502 . S
C1337 C1339 1.561 . S
C1337 C1340 1.526 . S
C1338 H1322 0.959 . S
C1338 H1323 0.959 . S
C1338 H1324 0.961 . S
C1338 C1337 1.502 . S
C1339 H1325 0.960 . S
C1339 H1326 0.961 . S
C1339 H1327 0.959 . S
C1339 C1337 1.561 . S
C1340 C1337 1.526 . S
C1340 C1341 1.396 . S
C1340 C1345 1.390 . S
C1341 C1335 1.465 . S
C1341 C1340 1.396 . S
C1341 C1342 1.399 . S
C1342 H1328 0.929 . S
C1342 C1341 1.399 . S
C1342 C1343 1.385 . S
C1343 H1329 0.931 . S
C1343 C1342 1.385 . S
C1343 C1344 1.389 . S
C1344 C1343 1.389 . S
C1344 C1345 1.387 . S
C1345 H1330 0.930 . S
C1345 C1340 1.390 . S
C1345 C1344 1.387 . S
H1346 C1358 0.930 . S
H1347 C1360 0.930 . S
H1348 C1361 0.930 . S
H1349 C1365 0.959 . S
H1350 C1365 0.959 . S
H1351 C1365 0.961 . S
H1352 C1366 0.960 . S
H1353 C1366 0.961 . S
H1354 C1366 0.959 . S
H1355 C1369 0.929 . S
H1356 C1370 0.931 . S
H1357 C1372 0.930 . S
C1358 H1346 0.930 . S
C1358 C1359 1.399 . S
C1358 C1363 1.399 . S
C1359 C1358 1.399 . S
C1359 C1360 1.376 . S
C1360 H1347 0.930 . S
C1360 C1359 1.376 . S
C1360 C1361 1.388 . S
C1361 H1348 0.930 . S
C1361 C1360 1.388 . S
C1361 C1362 1.390 . S
C1362 C1361 1.390 . S
C1362 C1363 1.394 . S
C1362 C1368 1.465 . S
C1363 C1358 1.399 . S
C1363 C1362 1.394 . S
C1363 C1364 1.516 . S
C1364 C1363 1.516 . S
C1364 C1365 1.502 . S
C1364 C1366 1.561 . S
C1364 C1367 1.526 . S
C1365 H1349 0.959 . S
C1365 H1350 0.959 . S
C1365 H1351 0.961 . S
C1365 C1364 1.502 . S
C1366 H1352 0.960 . S
C1366 H1353 0.961 . S
C1366 H1354 0.959 . S
C1366 C1364 1.561 . S
C1367 C1364 1.526 . S
C1367 C1368 1.396 . S
C1367 C1372 1.390 . S
C1368 C1362 1.465 . S
C1368 C1367 1.396 . S
C1368 C1369 1.399 . S
C1369 H1355 0.929 . S
C1369 C1368 1.399 . S
C1369 C1370 1.385 . S
C1370 H1356 0.931 . S
C1370 C1369 1.385 . S
C1370 C1371 1.389 . S
C1371 C1370 1.389 . S
C1371 C1372 1.387 . S
C1372 H1357 0.930 . S
C1372 C1367 1.390 . S
C1372 C1371 1.387 . S
H1373 C1385 0.930 . S
H1374 C1387 0.930 . S
H1375 C1388 0.930 . S
H1376 C1392 0.959 . S
H1377 C1392 0.959 . S
H1378 C1392 0.961 . S
H1379 C1393 0.960 . S
H1380 C1393 0.961 . S
H1381 C1393 0.959 . S
H1382 C1396 0.929 . S
H1383 C1397 0.931 . S
H1384 C1399 0.930 . S
C1385 H1373 0.930 . S
C1385 C1386 1.399 . S
C1385 C1390 1.399 . S
C1386 C1385 1.399 . S
C1386 C1387 1.376 . S
C1387 H1374 0.930 . S
C1387 C1386 1.376 . S
C1387 C1388 1.388 . S
C1388 H1375 0.930 . S
C1388 C1387 1.388 . S
C1388 C1389 1.390 . S
C1389 C1388 1.390 . S
C1389 C1390 1.394 . S
C1389 C1395 1.465 . S
C1390 C1385 1.399 . S
C1390 C1389 1.394 . S
C1390 C1391 1.516 . S
C1391 C1390 1.516 . S
C1391 C1392 1.502 . S
C1391 C1393 1.561 . S
C1391 C1394 1.526 . S
C1392 H1376 0.959 . S
C1392 H1377 0.959 . S
C1392 H1378 0.961 . S
C1392 C1391 1.502 . S
C1393 H1379 0.960 . S
C1393 H1380 0.961 . S
C1393 H1381 0.959 . S
C1393 C1391 1.561 . S
C1394 C1391 1.526 . S
C1394 C1395 1.396 . S
C1394 C1399 1.390 . S
C1395 C1389 1.465 . S
C1395 C1394 1.396 . S
C1395 C1396 1.399 . S
C1396 H1382 0.929 . S
C1396 C1395 1.399 . S
C1396 C1397 1.385 . S
C1397 H1383 0.931 . S
C1397 C1396 1.385 . S
C1397 C1398 1.389 . S
C1398 C1397 1.389 . S
C1398 C1399 1.387 . S
C1399 H1384 0.930 . S
C1399 C1394 1.390 . S
C1399 C1398 1.387 . S
H1400 C1412 0.930 . S
H1401 C1414 0.930 . S
H1402 C1415 0.930 . S
H1403 C1419 0.959 . S
H1404 C1419 0.959 . S
H1405 C1419 0.961 . S
H1406 C1420 0.960 . S
H1407 C1420 0.961 . S
H1408 C1420 0.959 . S
H1409 C1423 0.929 . S
H1410 C1424 0.931 . S
H1411 C1426 0.930 . S
C1412 H1400 0.930 . S
C1412 C1413 1.399 . S
C1412 C1417 1.399 1_565 S
C1413 C1412 1.399 . S
C1413 C1414 1.376 . S
C1414 H1401 0.930 . S
C1414 C1413 1.376 . S
C1414 C1415 1.388 1_565 S
C1415 H1402 0.930 . S
C1415 C1414 1.388 1_545 S
C1415 C1416 1.390 . S
C1416 C1415 1.390 . S
C1416 C1417 1.394 . S
C1416 C1422 1.465 . S
C1417 C1412 1.399 1_545 S
C1417 C1416 1.394 . S
C1417 C1418 1.516 . S
C1418 C1417 1.516 . S
C1418 C1419 1.502 . S
C1418 C1420 1.561 . S
C1418 C1421 1.526 . S
C1419 H1403 0.959 . S
C1419 H1404 0.959 . S
C1419 H1405 0.961 . S
C1419 C1418 1.502 . S
C1420 H1406 0.960 . S
C1420 H1407 0.961 . S
C1420 H1408 0.959 . S
C1420 C1418 1.561 . S
C1421 C1418 1.526 . S
C1421 C1422 1.396 . S
C1421 C1426 1.390 . S
C1422 C1416 1.465 . S
C1422 C1421 1.396 . S
C1422 C1423 1.399 . S
C1423 H1409 0.929 . S
C1423 C1422 1.399 . S
C1423 C1424 1.385 . S
C1424 H1410 0.931 . S
C1424 C1423 1.385 . S
C1424 C1425 1.389 . S
C1425 C1424 1.389 . S
C1425 C1426 1.387 . S
C1426 H1411 0.930 . S
C1426 C1421 1.390 . S
C1426 C1425 1.387 . S
H1427 C1439 0.930 . S
H1428 C1441 0.930 . S
H1429 C1442 0.930 . S
H1430 C1446 0.959 . S
H1431 C1446 0.959 . S
H1432 C1446 0.961 . S
H1433 C1447 0.960 . S
H1434 C1447 0.961 . S
H1435 C1447 0.959 . S
H1436 C1450 0.929 . S
H1437 C1451 0.931 . S
H1438 C1453 0.930 . S
C1439 H1427 0.930 . S
C1439 C1440 1.399 . S
C1439 C1444 1.399 . S
C1440 C1439 1.399 . S
C1440 C1441 1.376 . S
C1441 H1428 0.930 . S
C1441 C1440 1.376 . S
C1441 C1442 1.388 . S
C1442 H1429 0.930 . S
C1442 C1441 1.388 . S
C1442 C1443 1.390 . S
C1443 C1442 1.390 . S
C1443 C1444 1.394 . S
C1443 C1449 1.465 . S
C1444 C1439 1.399 . S
C1444 C1443 1.394 . S
C1444 C1445 1.516 . S
C1445 C1444 1.516 . S
C1445 C1446 1.502 . S
C1445 C1447 1.561 . S
C1445 C1448 1.526 . S
C1446 H1430 0.959 . S
C1446 H1431 0.959 . S
C1446 H1432 0.961 . S
C1446 C1445 1.502 . S
C1447 H1433 0.960 . S
C1447 H1434 0.961 . S
C1447 H1435 0.959 . S
C1447 C1445 1.561 . S
C1448 C1445 1.526 . S
C1448 C1449 1.396 . S
C1448 C1453 1.390 1_565 S
C1449 C1443 1.465 . S
C1449 C1448 1.396 . S
C1449 C1450 1.399 . S
C1450 H1436 0.929 . S
C1450 C1449 1.399 . S
C1450 C1451 1.385 1_565 S
C1451 H1437 0.931 . S
C1451 C1450 1.385 1_545 S
C1451 C1452 1.389 . S
C1452 C1451 1.389 . S
C1452 C1453 1.387 . S
C1453 H1438 0.930 . S
C1453 C1448 1.390 1_545 S
C1453 C1452 1.387 . S
H1454 C1466 0.930 . S
H1455 C1468 0.930 . S
H1456 C1469 0.930 . S
H1457 C1473 0.959 . S
H1458 C1473 0.959 . S
H1459 C1473 0.961 . S
H1460 C1474 0.960 . S
H1461 C1474 0.961 . S
H1462 C1474 0.959 . S
H1463 C1477 0.929 . S
H1464 C1478 0.931 . S
H1465 C1480 0.930 . S
C1466 H1454 0.930 . S
C1466 C1467 1.399 . S
C1466 C1471 1.399 1_545 S
C1467 C1466 1.399 . S
C1467 C1468 1.376 . S
C1468 H1455 0.930 . S
C1468 C1467 1.376 . S
C1468 C1469 1.388 1_545 S
C1469 H1456 0.930 . S
C1469 C1468 1.388 1_565 S
C1469 C1470 1.390 . S
C1470 C1469 1.390 . S
C1470 C1471 1.394 . S
C1470 C1476 1.465 . S
C1471 C1466 1.399 1_565 S
C1471 C1470 1.394 . S
C1471 C1472 1.516 . S
C1472 C1471 1.516 . S
C1472 C1473 1.502 . S
C1472 C1474 1.561 . S
C1472 C1475 1.526 . S
C1473 H1457 0.959 . S
C1473 H1458 0.959 . S
C1473 H1459 0.961 . S
C1473 C1472 1.502 . S
C1474 H1460 0.960 . S
C1474 H1461 0.961 . S
C1474 H1462 0.959 . S
C1474 C1472 1.561 . S
C1475 C1472 1.526 . S
C1475 C1476 1.396 . S
C1475 C1480 1.390 . S
C1476 C1470 1.465 . S
C1476 C1475 1.396 . S
C1476 C1477 1.399 . S
C1477 H1463 0.929 . S
C1477 C1476 1.399 . S
C1477 C1478 1.385 . S
C1478 H1464 0.931 . S
C1478 C1477 1.385 . S
C1478 C1479 1.389 . S
C1479 C1478 1.389 . S
C1479 C1480 1.387 . S
C1480 H1465 0.930 . S
C1480 C1475 1.390 . S
C1480 C1479 1.387 . S
H1481 C1493 0.930 . S
H1482 C1495 0.930 . S
H1483 C1496 0.930 . S
H1484 C1500 0.959 . S
H1485 C1500 0.959 . S
H1486 C1500 0.961 . S
H1487 C1501 0.960 . S
H1488 C1501 0.961 . S
H1489 C1501 0.959 . S
H1490 C1504 0.929 . S
H1491 C1505 0.931 . S
H1492 C1507 0.930 . S
C1493 H1481 0.930 . S
C1493 C1494 1.399 . S
C1493 C1498 1.399 1_565 S
C1494 C1493 1.399 . S
C1494 C1495 1.376 . S
C1495 H1482 0.930 . S
C1495 C1494 1.376 . S
C1495 C1496 1.388 1_565 S
C1496 H1483 0.930 . S
C1496 C1495 1.388 1_545 S
C1496 C1497 1.390 . S
C1497 C1496 1.390 . S
C1497 C1498 1.394 . S
C1497 C1503 1.465 . S
C1498 C1493 1.399 1_545 S
C1498 C1497 1.394 . S
C1498 C1499 1.516 . S
C1499 C1498 1.516 . S
C1499 C1500 1.502 . S
C1499 C1501 1.561 . S
C1499 C1502 1.526 . S
C1500 H1484 0.959 . S
C1500 H1485 0.959 . S
C1500 H1486 0.961 . S
C1500 C1499 1.502 . S
C1501 H1487 0.960 . S
C1501 H1488 0.961 . S
C1501 H1489 0.959 . S
C1501 C1499 1.561 . S
C1502 C1499 1.526 . S
C1502 C1503 1.396 . S
C1502 C1507 1.390 . S
C1503 C1497 1.465 . S
C1503 C1502 1.396 . S
C1503 C1504 1.399 . S
C1504 H1490 0.929 . S
C1504 C1503 1.399 . S
C1504 C1505 1.385 . S
C1505 H1491 0.931 . S
C1505 C1504 1.385 . S
C1505 C1506 1.389 . S
C1506 C1505 1.389 . S
C1506 C1507 1.387 . S
C1507 H1492 0.930 . S
C1507 C1502 1.390 . S
C1507 C1506 1.387 . S
H1508 C1520 0.930 . S
H1509 C1522 0.930 . S
H1510 C1523 0.930 . S
H1511 C1527 0.959 . S
H1512 C1527 0.959 . S
H1513 C1527 0.961 . S
H1514 C1528 0.960 . S
H1515 C1528 0.961 . S
H1516 C1528 0.959 . S
H1517 C1531 0.929 . S
H1518 C1532 0.931 . S
H1519 C1534 0.930 . S
C1520 H1508 0.930 . S
C1520 C1521 1.399 . S
C1520 C1525 1.399 . S
C1521 C1520 1.399 . S
C1521 C1522 1.376 . S
C1522 H1509 0.930 . S
C1522 C1521 1.376 . S
C1522 C1523 1.388 . S
C1523 H1510 0.930 . S
C1523 C1522 1.388 . S
C1523 C1524 1.390 . S
C1524 C1523 1.390 . S
C1524 C1525 1.394 . S
C1524 C1530 1.465 . S
C1525 C1520 1.399 . S
C1525 C1524 1.394 . S
C1525 C1526 1.516 . S
C1526 C1525 1.516 . S
C1526 C1527 1.502 . S
C1526 C1528 1.561 . S
C1526 C1529 1.526 . S
C1527 H1511 0.959 . S
C1527 H1512 0.959 . S
C1527 H1513 0.961 . S
C1527 C1526 1.502 . S
C1528 H1514 0.960 . S
C1528 H1515 0.961 . S
C1528 H1516 0.959 . S
C1528 C1526 1.561 . S
C1529 C1526 1.526 . S
C1529 C1530 1.396 . S
C1529 C1534 1.390 1_565 S
C1530 C1524 1.465 . S
C1530 C1529 1.396 . S
C1530 C1531 1.399 . S
C1531 H1517 0.929 . S
C1531 C1530 1.399 . S
C1531 C1532 1.385 1_565 S
C1532 H1518 0.931 . S
C1532 C1531 1.385 1_545 S
C1532 C1533 1.389 . S
C1533 C1532 1.389 . S
C1533 C1534 1.387 . S
C1534 H1519 0.930 . S
C1534 C1529 1.390 1_545 S
C1534 C1533 1.387 . S
H1535 C1547 0.930 . S
H1536 C1549 0.930 . S
H1537 C1550 0.930 . S
H1538 C1554 0.959 . S
H1539 C1554 0.959 . S
H1540 C1554 0.961 . S
H1541 C1555 0.960 . S
H1542 C1555 0.961 . S
H1543 C1555 0.959 . S
H1544 C1558 0.929 . S
H1545 C1559 0.931 . S
H1546 C1561 0.930 . S
C1547 H1535 0.930 . S
C1547 C1548 1.399 . S
C1547 C1552 1.399 . S
C1548 C1547 1.399 . S
C1548 C1549 1.376 . S
C1549 H1536 0.930 . S
C1549 C1548 1.376 . S
C1549 C1550 1.388 . S
C1550 H1537 0.930 . S
C1550 C1549 1.388 . S
C1550 C1551 1.390 . S
C1551 C1550 1.390 . S
C1551 C1552 1.394 . S
C1551 C1557 1.465 . S
C1552 C1547 1.399 . S
C1552 C1551 1.394 . S
C1552 C1553 1.516 . S
C1553 C1552 1.516 . S
C1553 C1554 1.502 . S
C1553 C1555 1.561 . S
C1553 C1556 1.526 . S
C1554 H1538 0.959 . S
C1554 H1539 0.959 . S
C1554 H1540 0.961 . S
C1554 C1553 1.502 . S
C1555 H1541 0.960 . S
C1555 H1542 0.961 . S
C1555 H1543 0.959 . S
C1555 C1553 1.561 . S
C1556 C1553 1.526 . S
C1556 C1557 1.396 . S
C1556 C1561 1.390 1_545 S
C1557 C1551 1.465 . S
C1557 C1556 1.396 . S
C1557 C1558 1.399 . S
C1558 H1544 0.929 . S
C1558 C1557 1.399 . S
C1558 C1559 1.385 1_545 S
C1559 H1545 0.931 . S
C1559 C1558 1.385 1_565 S
C1559 C1560 1.389 . S
C1560 C1559 1.389 . S
C1560 C1561 1.387 . S
C1561 H1546 0.930 . S
C1561 C1556 1.390 1_565 S
C1561 C1560 1.387 . S
H1562 C1574 0.930 . S
H1563 C1576 0.930 . S
H1564 C1577 0.930 . S
H1565 C1581 0.959 . S
H1566 C1581 0.959 . S
H1567 C1581 0.961 . S
H1568 C1582 0.960 . S
H1569 C1582 0.961 . S
H1570 C1582 0.959 . S
H1571 C1585 0.929 . S
H1572 C1586 0.931 . S
H1573 C1588 0.930 . S
C1574 H1562 0.930 . S
C1574 C1575 1.399 . S
C1574 C1579 1.399 1_565 S
C1575 C1574 1.399 . S
C1575 C1576 1.376 . S
C1576 H1563 0.930 . S
C1576 C1575 1.376 . S
C1576 C1577 1.388 1_565 S
C1577 H1564 0.930 . S
C1577 C1576 1.388 1_545 S
C1577 C1578 1.390 . S
C1578 C1577 1.390 . S
C1578 C1579 1.394 . S
C1578 C1584 1.465 . S
C1579 C1574 1.399 1_545 S
C1579 C1578 1.394 . S
C1579 C1580 1.516 . S
C1580 C1579 1.516 . S
C1580 C1581 1.502 . S
C1580 C1582 1.561 . S
C1580 C1583 1.526 . S
C1581 H1565 0.959 . S
C1581 H1566 0.959 . S
C1581 H1567 0.961 . S
C1581 C1580 1.502 . S
C1582 H1568 0.960 . S
C1582 H1569 0.961 . S
C1582 H1570 0.959 . S
C1582 C1580 1.561 . S
C1583 C1580 1.526 . S
C1583 C1584 1.396 . S
C1583 C1588 1.390 . S
C1584 C1578 1.465 . S
C1584 C1583 1.396 . S
C1584 C1585 1.399 . S
C1585 H1571 0.929 . S
C1585 C1584 1.399 . S
C1585 C1586 1.385 . S
C1586 H1572 0.931 . S
C1586 C1585 1.385 . S
C1586 C1587 1.389 . S
C1587 C1586 1.389 . S
C1587 C1588 1.387 . S
C1588 H1573 0.930 . S
C1588 C1583 1.390 . S
C1588 C1587 1.387 . S
H1589 C1601 0.930 . S
H1590 C1603 0.930 . S
H1591 C1604 0.930 . S
H1592 C1608 0.959 . S
H1593 C1608 0.959 . S
H1594 C1608 0.961 . S
H1595 C1609 0.960 . S
H1596 C1609 0.961 . S
H1597 C1609 0.959 . S
H1598 C1612 0.929 . S
H1599 C1613 0.931 . S
H1600 C1615 0.930 . S
C1601 H1589 0.930 . S
C1601 C1602 1.399 . S
C1601 C1606 1.399 . S
C1602 C1601 1.399 . S
C1602 C1603 1.376 . S
C1603 H1590 0.930 . S
C1603 C1602 1.376 . S
C1603 C1604 1.388 . S
C1604 H1591 0.930 . S
C1604 C1603 1.388 . S
C1604 C1605 1.390 . S
C1605 C1604 1.390 . S
C1605 C1606 1.394 . S
C1605 C1611 1.465 . S
C1606 C1601 1.399 . S
C1606 C1605 1.394 . S
C1606 C1607 1.516 . S
C1607 C1606 1.516 . S
C1607 C1608 1.502 . S
C1607 C1609 1.561 . S
C1607 C1610 1.526 . S
C1608 H1592 0.959 . S
C1608 H1593 0.959 . S
C1608 H1594 0.961 . S
C1608 C1607 1.502 . S
C1609 H1595 0.960 . S
C1609 H1596 0.961 . S
C1609 H1597 0.959 . S
C1609 C1607 1.561 . S
C1610 C1607 1.526 . S
C1610 C1611 1.396 . S
C1610 C1615 1.390 1_565 S
C1611 C1605 1.465 . S
C1611 C1610 1.396 . S
C1611 C1612 1.399 . S
C1612 H1598 0.929 . S
C1612 C1611 1.399 . S
C1612 C1613 1.385 1_565 S
C1613 H1599 0.931 . S
C1613 C1612 1.385 1_545 S
C1613 C1614 1.389 . S
C1614 C1613 1.389 . S
C1614 C1615 1.387 . S
C1615 H1600 0.930 . S
C1615 C1610 1.390 1_545 S
C1615 C1614 1.387 . S
C333 C2 1.480 . S
C345 C182 1.402 . S
C360 C22 1.473 . S
C372 C162 1.429 . S
C387 C222 1.394 . S
C399 C42 1.474 . S
C414 C62 1.473 . S
C426 C202 1.430 . S
C441 C264 1.466 . S
C453 C84 1.415 . S
C468 C244 1.464 . S
C480 C104 1.405 . S
C495 C304 1.457 . S
C507 C124 1.412 . S
C522 C144 1.459 . S
C534 C284 1.410 . S
C549 C59 1.570 . S
C561 C19 1.575 . S
C576 C79 1.568 . S
C588 C39 1.574 . S
C603 C138 1.575 . S
C615 C98 1.557 . S
C630 C118 1.577 . S
C642 C158 1.560 . S
C657 C219 1.564 . S
C669 C179 1.571 . S
C684 C239 1.577 . S
C696 C199 1.579 . S
C711 C258 1.564 . S
C723 C298 1.578 . S
C738 C278 1.539 . S
C750 C318 1.556 . S
C765 C119 1.569 . S
C777 C18 1.568 . S
C792 C99 1.569 . S
C804 C38 1.567 . S
C819 C58 1.545 . S
C831 C159 1.553 . S
C846 C139 1.568 . S
C858 C78 1.569 . S
C873 C178 1.569 . S
C885 C279 1.568 . S
C900 C259 1.569 . S
C912 C198 1.567 . S
C927 C218 1.533 . S
C939 C319 1.541 . S
C954 C299 1.527 . S
C966 C238 1.535 . S
C981 C24 1.541 . S
C993 C4 1.567 . S
C1008 C64 1.558 . S
C1020 C44 1.532 . S
C1035 C102 1.568 . S
C1047 C82 1.557 . S
C1062 C122 1.538 . S
C1074 C142 1.534 . S
C1089 C184 1.557 . S
C1101 C164 1.533 . S
C1116 C224 1.556 . S
C1128 C204 1.533 . S
C1143 C242 1.573 . S
C1155 C262 1.550 . S
C1170 C282 1.568 . S
C1182 C302 1.557 . S
C1197 C12 1.675 . S
C1209 C9 1.654 . S
C1224 C32 1.674 . S
C1236 C29 1.656 . S
C1251 C52 1.658 . S
C1263 C49 1.660 . S
C1278 C69 1.643 . S
C1290 C72 1.679 . S
C1305 C89 1.680 . S
C1317 C92 1.646 . S
C1332 C112 1.658 . S
C1344 C109 1.661 . S
C1359 C129 1.680 . S
C1371 C132 1.646 . S
C1386 C149 1.644 . S
C1398 C152 1.678 . S
C1413 C169 1.679 . S
C1425 C172 1.648 . S
C1440 C192 1.667 . S
C1452 C189 1.663 . S
C1467 C209 1.644 . S
C1479 C212 1.677 . S
C1494 C229 1.654 . S
C1506 C232 1.665 . S
C1521 C249 1.680 . S
C1533 C252 1.646 . S
C1548 C269 1.644 . S
C1560 C272 1.677 . S
C1575 C292 1.668 . S
C1587 C289 1.662 . S
C1602 C309 1.679 . S
C1614 C312 1.649 . S
