# Generated by pormake.
# Topology wgj, (5)-cn, num edge types: 1
# Building blocks:
#     Node 0, Type 0, BuildingBlock: XOMCOT_clean_sbu_1, # of connection points: 5
#     Node 1, Type 0, BuildingBlock: XOMCOT_clean_sbu_1, # of connection points: 5
#     Node 2, Type 0, BuildingBlock: XOMCOT_clean_sbu_1, # of connection points: 5
#     Node 3, Type 0, BuildingBlock: XOMCOT_clean_sbu_1, # of connection points: 5
#     Node 4, Type 0, BuildingBlock: XOMCOT_clean_sbu_1, # of connection points: 5
#     Node 5, Type 0, BuildingBlock: XOMCOT_clean_sbu_1, # of connection points: 5
#     Node 6, Type 0, BuildingBlock: XOMCOT_clean_sbu_1, # of connection points: 5
#     Node 7, Type 0, BuildingBlock: XOMCOT_clean_sbu_1, # of connection points: 5
#     Node 8, Type 0, BuildingBlock: XOMCOT_clean_sbu_1, # of connection points: 5
#     Node 9, Type 0, BuildingBlock: XOMCOT_clean_sbu_1, # of connection points: 5
#     Node 10, Type 0, BuildingBlock: XOMCOT_clean_sbu_1, # of connection points: 5
#     Node 11, Type 0, BuildingBlock: XOMCOT_clean_sbu_1, # of connection points: 5
#     Node 12, Type 0, BuildingBlock: XOMCOT_clean_sbu_1, # of connection points: 5
#     Node 13, Type 0, BuildingBlock: XOMCOT_clean_sbu_1, # of connection points: 5
#     Node 14, Type 0, BuildingBlock: XOMCOT_clean_sbu_1, # of connection points: 5
#     Node 15, Type 0, BuildingBlock: XOMCOT_clean_sbu_1, # of connection points: 5
#     Node 16, Type 0, BuildingBlock: XOMCOT_clean_sbu_1, # of connection points: 5
#     Node 17, Type 0, BuildingBlock: XOMCOT_clean_sbu_1, # of connection points: 5
#     Node 18, Type 0, BuildingBlock: XOMCOT_clean_sbu_1, # of connection points: 5
#     Node 19, Type 0, BuildingBlock: XOMCOT_clean_sbu_1, # of connection points: 5
#     Node 20, Type 0, BuildingBlock: XOMCOT_clean_sbu_1, # of connection points: 5
#     Node 21, Type 0, BuildingBlock: XOMCOT_clean_sbu_1, # of connection points: 5
#     Node 22, Type 0, BuildingBlock: XOMCOT_clean_sbu_1, # of connection points: 5
#     Node 23, Type 0, BuildingBlock: XOMCOT_clean_sbu_1, # of connection points: 5
#     Node 24, Type 0, BuildingBlock: XOMCOT_clean_sbu_1, # of connection points: 5
#     Node 25, Type 0, BuildingBlock: XOMCOT_clean_sbu_1, # of connection points: 5
#     Node 26, Type 0, BuildingBlock: XOMCOT_clean_sbu_1, # of connection points: 5
#     Node 27, Type 0, BuildingBlock: XOMCOT_clean_sbu_1, # of connection points: 5
#     Node 28, Type 0, BuildingBlock: XOMCOT_clean_sbu_1, # of connection points: 5
#     Node 29, Type 0, BuildingBlock: XOMCOT_clean_sbu_1, # of connection points: 5
#     Node 30, Type 0, BuildingBlock: XOMCOT_clean_sbu_1, # of connection points: 5
#     Node 31, Type 0, BuildingBlock: XOMCOT_clean_sbu_1, # of connection points: 5
#     Edge 32, Type (0, 0), BuildingBlock: KIFKEQ_clean_linker_1, # of connection points: 2
#     Edge 33, Type (0, 0), BuildingBlock: KIFKEQ_clean_linker_1, # of connection points: 2
#     Edge 34, Type (0, 0), BuildingBlock: KIFKEQ_clean_linker_1, # of connection points: 2
#     Edge 35, Type (0, 0), BuildingBlock: KIFKEQ_clean_linker_1, # of connection points: 2
#     Edge 36, Type (0, 0), BuildingBlock: KIFKEQ_clean_linker_1, # of connection points: 2
#     Edge 37, Type (0, 0), BuildingBlock: KIFKEQ_clean_linker_1, # of connection points: 2
#     Edge 38, Type (0, 0), BuildingBlock: KIFKEQ_clean_linker_1, # of connection points: 2
#     Edge 39, Type (0, 0), BuildingBlock: KIFKEQ_clean_linker_1, # of connection points: 2
#     Edge 40, Type (0, 0), BuildingBlock: KIFKEQ_clean_linker_1, # of connection points: 2
#     Edge 41, Type (0, 0), BuildingBlock: KIFKEQ_clean_linker_1, # of connection points: 2
#     Edge 42, Type (0, 0), BuildingBlock: KIFKEQ_clean_linker_1, # of connection points: 2
#     Edge 43, Type (0, 0), BuildingBlock: KIFKEQ_clean_linker_1, # of connection points: 2
#     Edge 44, Type (0, 0), BuildingBlock: KIFKEQ_clean_linker_1, # of connection points: 2
#     Edge 45, Type (0, 0), BuildingBlock: KIFKEQ_clean_linker_1, # of connection points: 2
#     Edge 46, Type (0, 0), BuildingBlock: KIFKEQ_clean_linker_1, # of connection points: 2
#     Edge 47, Type (0, 0), BuildingBlock: KIFKEQ_clean_linker_1, # of connection points: 2
#     Edge 48, Type (0, 0), BuildingBlock: KIFKEQ_clean_linker_1, # of connection points: 2
#     Edge 49, Type (0, 0), BuildingBlock: KIFKEQ_clean_linker_1, # of connection points: 2
#     Edge 50, Type (0, 0), BuildingBlock: KIFKEQ_clean_linker_1, # of connection points: 2
#     Edge 51, Type (0, 0), BuildingBlock: KIFKEQ_clean_linker_1, # of connection points: 2
#     Edge 52, Type (0, 0), BuildingBlock: KIFKEQ_clean_linker_1, # of connection points: 2
#     Edge 53, Type (0, 0), BuildingBlock: KIFKEQ_clean_linker_1, # of connection points: 2
#     Edge 54, Type (0, 0), BuildingBlock: KIFKEQ_clean_linker_1, # of connection points: 2
#     Edge 55, Type (0, 0), BuildingBlock: KIFKEQ_clean_linker_1, # of connection points: 2
#     Edge 56, Type (0, 0), BuildingBlock: KIFKEQ_clean_linker_1, # of connection points: 2
#     Edge 57, Type (0, 0), BuildingBlock: KIFKEQ_clean_linker_1, # of connection points: 2
#     Edge 58, Type (0, 0), BuildingBlock: KIFKEQ_clean_linker_1, # of connection points: 2
#     Edge 59, Type (0, 0), BuildingBlock: KIFKEQ_clean_linker_1, # of connection points: 2
#     Edge 60, Type (0, 0), BuildingBlock: KIFKEQ_clean_linker_1, # of connection points: 2
#     Edge 61, Type (0, 0), BuildingBlock: KIFKEQ_clean_linker_1, # of connection points: 2
#     Edge 62, Type (0, 0), BuildingBlock: KIFKEQ_clean_linker_1, # of connection points: 2
#     Edge 63, Type (0, 0), BuildingBlock: KIFKEQ_clean_linker_1, # of connection points: 2
#     Edge 64, Type (0, 0), BuildingBlock: KIFKEQ_clean_linker_1, # of connection points: 2
#     Edge 65, Type (0, 0), BuildingBlock: KIFKEQ_clean_linker_1, # of connection points: 2
#     Edge 66, Type (0, 0), BuildingBlock: KIFKEQ_clean_linker_1, # of connection points: 2
#     Edge 67, Type (0, 0), BuildingBlock: KIFKEQ_clean_linker_1, # of connection points: 2
#     Edge 68, Type (0, 0), BuildingBlock: KIFKEQ_clean_linker_1, # of connection points: 2
#     Edge 69, Type (0, 0), BuildingBlock: KIFKEQ_clean_linker_1, # of connection points: 2
#     Edge 70, Type (0, 0), BuildingBlock: KIFKEQ_clean_linker_1, # of connection points: 2
#     Edge 71, Type (0, 0), BuildingBlock: KIFKEQ_clean_linker_1, # of connection points: 2
#     Edge 72, Type (0, 0), BuildingBlock: KIFKEQ_clean_linker_1, # of connection points: 2
#     Edge 73, Type (0, 0), BuildingBlock: KIFKEQ_clean_linker_1, # of connection points: 2
#     Edge 74, Type (0, 0), BuildingBlock: KIFKEQ_clean_linker_1, # of connection points: 2
#     Edge 75, Type (0, 0), BuildingBlock: KIFKEQ_clean_linker_1, # of connection points: 2
#     Edge 76, Type (0, 0), BuildingBlock: KIFKEQ_clean_linker_1, # of connection points: 2
#     Edge 77, Type (0, 0), BuildingBlock: KIFKEQ_clean_linker_1, # of connection points: 2
#     Edge 78, Type (0, 0), BuildingBlock: KIFKEQ_clean_linker_1, # of connection points: 2
#     Edge 79, Type (0, 0), BuildingBlock: KIFKEQ_clean_linker_1, # of connection points: 2
#     Edge 80, Type (0, 0), BuildingBlock: KIFKEQ_clean_linker_1, # of connection points: 2
#     Edge 81, Type (0, 0), BuildingBlock: KIFKEQ_clean_linker_1, # of connection points: 2
#     Edge 82, Type (0, 0), BuildingBlock: KIFKEQ_clean_linker_1, # of connection points: 2
#     Edge 83, Type (0, 0), BuildingBlock: KIFKEQ_clean_linker_1, # of connection points: 2
#     Edge 84, Type (0, 0), BuildingBlock: KIFKEQ_clean_linker_1, # of connection points: 2
#     Edge 85, Type (0, 0), BuildingBlock: KIFKEQ_clean_linker_1, # of connection points: 2
#     Edge 86, Type (0, 0), BuildingBlock: KIFKEQ_clean_linker_1, # of connection points: 2
#     Edge 87, Type (0, 0), BuildingBlock: KIFKEQ_clean_linker_1, # of connection points: 2
#     Edge 88, Type (0, 0), BuildingBlock: KIFKEQ_clean_linker_1, # of connection points: 2
#     Edge 89, Type (0, 0), BuildingBlock: KIFKEQ_clean_linker_1, # of connection points: 2
#     Edge 90, Type (0, 0), BuildingBlock: KIFKEQ_clean_linker_1, # of connection points: 2
#     Edge 91, Type (0, 0), BuildingBlock: KIFKEQ_clean_linker_1, # of connection points: 2
#     Edge 92, Type (0, 0), BuildingBlock: KIFKEQ_clean_linker_1, # of connection points: 2
#     Edge 93, Type (0, 0), BuildingBlock: KIFKEQ_clean_linker_1, # of connection points: 2
#     Edge 94, Type (0, 0), BuildingBlock: KIFKEQ_clean_linker_1, # of connection points: 2
#     Edge 95, Type (0, 0), BuildingBlock: KIFKEQ_clean_linker_1, # of connection points: 2
#     Edge 96, Type (0, 0), BuildingBlock: KIFKEQ_clean_linker_1, # of connection points: 2
#     Edge 97, Type (0, 0), BuildingBlock: KIFKEQ_clean_linker_1, # of connection points: 2
#     Edge 98, Type (0, 0), BuildingBlock: KIFKEQ_clean_linker_1, # of connection points: 2
#     Edge 99, Type (0, 0), BuildingBlock: KIFKEQ_clean_linker_1, # of connection points: 2
#     Edge 100, Type (0, 0), BuildingBlock: KIFKEQ_clean_linker_1, # of connection points: 2
#     Edge 101, Type (0, 0), BuildingBlock: KIFKEQ_clean_linker_1, # of connection points: 2
#     Edge 102, Type (0, 0), BuildingBlock: KIFKEQ_clean_linker_1, # of connection points: 2
#     Edge 103, Type (0, 0), BuildingBlock: KIFKEQ_clean_linker_1, # of connection points: 2
#     Edge 104, Type (0, 0), BuildingBlock: KIFKEQ_clean_linker_1, # of connection points: 2
#     Edge 105, Type (0, 0), BuildingBlock: KIFKEQ_clean_linker_1, # of connection points: 2
#     Edge 106, Type (0, 0), BuildingBlock: KIFKEQ_clean_linker_1, # of connection points: 2
#     Edge 107, Type (0, 0), BuildingBlock: KIFKEQ_clean_linker_1, # of connection points: 2
#     Edge 108, Type (0, 0), BuildingBlock: KIFKEQ_clean_linker_1, # of connection points: 2
#     Edge 109, Type (0, 0), BuildingBlock: KIFKEQ_clean_linker_1, # of connection points: 2
#     Edge 110, Type (0, 0), BuildingBlock: KIFKEQ_clean_linker_1, # of connection points: 2
#     Edge 111, Type (0, 0), BuildingBlock: KIFKEQ_clean_linker_1, # of connection points: 2
# Relax obj value: 0.252
# Max RMSD: 0.141
# Mean RMSD: 0.141
data_MOF--net-wgj--node1-XOMCOT_clean_sbu_1--edge1-KIFKEQ_clean_linker_1
_symmetry_space_group_name_H-M    P1
_symmetry_Int_Tables_number       1
_symmetry_cell_setting            triclinic
loop_
_symmetry_equiv_pos_as_xyz
'x, y, z'
_cell_length_a     68.568179
_cell_length_b     68.515771
_cell_length_c     30.168296
_cell_angle_alpha  90.058738
_cell_angle_beta   90.067959
_cell_angle_gamma 90.030174
loop_
_atom_site_label
_atom_site_type_symbol
_atom_site_fract_x
_atom_site_fract_y
_atom_site_fract_z
_atom_type_partial_charge
C0 C 0.19114 0.18387 0.2836 0.0
C1 C 0.20463 0.19665 0.26644 0.0
N2 N 0.21481 0.20433 0.3004 0.0
N3 N 0.19298 0.18337 0.32809 0.0
C4 C 0.20761 0.19592 0.33732 0.0
H5 H 0.18013 0.17608 0.26497 0.0
Co6 Co 0.17629 0.17018 0.36582 0.0
C7 C 0.19836 0.1658 0.45147 0.0
O8 O 0.18197 0.16874 0.47303 0.0
N9 N 0.15875 0.15643 0.40246 0.0
C10 C 0.1447 0.13113 0.43586 0.0
C11 C 0.16209 0.13896 0.42169 0.0
C12 C 0.13918 0.15874 0.40495 0.0
N13 N 0.13022 0.14349 0.42481 0.0
O14 O 0.18232 0.14616 0.33456 0.0
H15 H 0.17609 0.1317 0.42242 0.0
H16 H 0.13145 0.17068 0.38971 0.0
O17 O 0.19822 0.16603 0.40886 0.0
C18 C 0.16811 0.14107 0.30957 0.0
O19 O 0.15185 0.15116 0.31147 0.0
N20 N 0.16894 0.19446 0.39066 0.0
C21 C 0.15773 0.23358 0.40009 0.0
C22 C 0.17322 0.2259 0.42508 0.0
C23 C 0.17879 0.20637 0.41946 0.0
C24 C 0.15366 0.20167 0.36687 0.0
C25 C 0.14766 0.22101 0.37142 0.0
H26 H 0.19192 0.20164 0.43571 0.0
H27 H 0.14675 0.19259 0.34207 0.0
H28 H 0.21257 0.19928 0.3705 0.0
H29 H 0.2061 0.2008 0.23198 0.0
H30 H 0.14279 0.11674 0.44999 0.0
H31 H 0.18177 0.23521 0.44668 0.0
H32 H 0.13562 0.22623 0.35142 0.0
C33 C 0.08187 0.93535 0.53791 0.0
C34 C 0.06847 0.94795 0.51991 0.0
N35 N 0.06339 0.96097 0.55131 0.0
N36 N 0.08521 0.94038 0.58041 0.0
C37 C 0.07393 0.95622 0.58755 0.0
H38 H 0.088 0.92266 0.52178 0.0
Co39 Co 0.09916 0.92469 0.61864 0.0
C40 C 0.10569 0.94833 0.7014 0.0
O41 O 0.10352 0.93231 0.72479 0.0
N42 N 0.11368 0.90781 0.65548 0.0
C43 C 0.13969 0.89393 0.68666 0.0
C44 C 0.13154 0.91126 0.67282 0.0
C45 C 0.11152 0.88822 0.65862 0.0
N46 N 0.12715 0.8794 0.67707 0.0
O47 O 0.12249 0.93013 0.58443 0.0
H48 H 0.13883 0.92526 0.67219 0.0
H49 H 0.09945 0.88029 0.64443 0.0
O50 O 0.10417 0.9475 0.65894 0.0
C51 C 0.12729 0.91568 0.55989 0.0
O52 O 0.11743 0.89932 0.5636 0.0
N53 N 0.07541 0.9181 0.64695 0.0
C54 C 0.03637 0.90826 0.66264 0.0
C55 C 0.04463 0.92492 0.6821 0.0
C56 C 0.06416 0.92965 0.67375 0.0
C57 C 0.06745 0.90189 0.62783 0.0
C58 C 0.04817 0.89644 0.63601 0.0
H59 H 0.06942 0.94341 0.68605 0.0
H60 H 0.07572 0.89386 0.60338 0.0
H61 H 0.07239 0.96328 0.61944 0.0
H62 H 0.06237 0.94713 0.48685 0.0
H63 H 0.15436 0.89202 0.69919 0.0
H64 H 0.03583 0.93465 0.70212 0.0
H65 H 0.04218 0.88383 0.61912 0.0
C66 C 0.33024 0.8392 0.7838 0.0
C67 C 0.31679 0.82637 0.76656 0.0
N68 N 0.30691 0.81841 0.80054 0.0
N69 N 0.32865 0.83945 0.82835 0.0
C70 C 0.31419 0.82673 0.83753 0.0
H71 H 0.34114 0.8471 0.76518 0.0
Co72 Co 0.34568 0.85224 0.86603 0.0
C73 C 0.32378 0.85737 0.95186 0.0
O74 O 0.34012 0.85454 0.97372 0.0
N75 N 0.36367 0.86556 0.90245 0.0
C76 C 0.37883 0.89052 0.93482 0.0
C77 C 0.36106 0.88317 0.92161 0.0
C78 C 0.38317 0.86265 0.90412 0.0
N79 N 0.39283 0.87769 0.92326 0.0
O80 O 0.33987 0.87642 0.83523 0.0
H81 H 0.34731 0.89089 0.92275 0.0
H82 H 0.39034 0.85045 0.88857 0.0
O83 O 0.32396 0.85677 0.90927 0.0
C84 C 0.35384 0.88179 0.80997 0.0
O85 O 0.37025 0.87194 0.81119 0.0
N86 N 0.35261 0.82776 0.89073 0.0
C87 C 0.36303 0.78851 0.90201 0.0
C88 C 0.34767 0.79672 0.9264 0.0
C89 C 0.34259 0.81633 0.92012 0.0
C90 C 0.36761 0.81994 0.86698 0.0
C91 C 0.37326 0.80053 0.87255 0.0
H92 H 0.32971 0.82153 0.93657 0.0
H93 H 0.37457 0.82859 0.84155 0.0
H94 H 0.3095 0.82308 0.8707 0.0
H95 H 0.31526 0.82227 0.73206 0.0
H96 H 0.38132 0.90492 0.94849 0.0
H97 H 0.33921 0.78789 0.9491 0.0
H98 H 0.38485 0.79471 0.85206 0.0
C99 C 0.43729 0.08478 0.04061 0.0
C100 C 0.45048 0.07226 1.02172 0.0
N101 N 0.45716 0.06015 0.05347 0.0
N102 N 0.43544 0.08049 0.08392 0.0
C103 C 0.44764 0.06536 0.09088 0.0
H104 H 0.43023 0.09692 1.02433 0.0
Co105 Co 0.42169 0.09625 0.1222 0.0
C106 C 0.41793 0.074 0.20744 0.0
O107 O 0.42064 0.09052 0.22876 0.0
N108 N 0.40736 0.11318 0.15902 0.0
C109 C 0.38105 0.12663 0.18964 0.0
C110 C 0.38971 0.10938 0.17697 0.0
C111 C 0.40906 0.13284 0.16132 0.0
N112 N 0.39323 0.14138 0.17949 0.0
O113 O 0.39794 0.08919 0.091 0.0
H114 H 0.38285 0.09516 0.17731 0.0
H115 H 0.4206 0.14101 0.1456 0.0
O116 O 0.41821 0.074 0.16483 0.0
C117 C 0.39167 0.10273 0.06558 0.0
O118 O 0.40045 0.11976 0.06642 0.0
N119 N 0.44575 0.10429 0.14717 0.0
C120 C 0.4849 0.11558 0.15501 0.0
C121 C 0.47754 0.09993 0.17984 0.0
C122 C 0.45802 0.09423 0.17476 0.0
C123 C 0.45266 0.11985 0.12381 0.0
C124 C 0.47205 0.12583 0.12743 0.0
H125 H 0.45358 0.08081 0.19022 0.0
H126 H 0.44338 0.12681 0.09952 0.0
H127 H 0.4504 0.05914 0.12322 0.0
H128 H 0.45519 0.0725 0.98751 0.0
H129 H 0.36644 0.12829 0.20266 0.0
H130 H 0.48714 0.09128 0.20051 0.0
H131 H 0.47714 0.13789 0.10734 0.0
C132 C 0.18372 0.8341 0.29197 0.0
C133 C 0.19678 0.82161 0.31154 0.0
N134 N 0.20964 0.81572 0.28051 0.0
N135 N 0.18833 0.83621 0.24888 0.0
C136 C 0.20431 0.82502 0.24291 0.0
H137 H 0.17122 0.84071 0.30779 0.0
Co138 Co 0.17277 0.84972 0.20945 0.0
C139 C 0.19636 0.85461 0.12671 0.0
O140 O 0.18032 0.85116 0.1041 0.0
N141 N 0.15617 0.86392 0.17133 0.0
C142 C 0.14323 0.89045 0.14043 0.0
C143 C 0.16023 0.88169 0.15425 0.0
C144 C 0.13656 0.86225 0.16732 0.0
N145 N 0.12834 0.87823 0.14901 0.0
O146 O 0.17809 0.87342 0.24271 0.0
H147 H 0.1744 0.88862 0.1555 0.0
H148 H 0.12811 0.85072 0.18224 0.0
O149 O 0.19567 0.85444 0.16933 0.0
C150 C 0.16358 0.87866 0.26652 0.0
O151 O 0.14711 0.86903 0.26257 0.0
N152 N 0.16626 0.82559 0.18211 0.0
C153 C 0.15642 0.78632 0.16818 0.0
C154 C 0.17345 0.79423 0.14984 0.0
C155 C 0.1782 0.81383 0.15739 0.0
C156 C 0.14963 0.81803 0.19998 0.0
C157 C 0.1442 0.79863 0.19267 0.0
H158 H 0.19224 0.81876 0.14621 0.0
H159 H 0.14121 0.8267 0.22299 0.0
H160 H 0.21127 0.82296 0.21115 0.0
H161 H 0.19649 0.81691 0.34575 0.0
H162 H 0.14178 0.90519 0.12801 0.0
H163 H 0.18348 0.7851 0.13139 0.0
H164 H 0.13125 0.79297 0.20869 0.0
C165 C 0.4318 0.93965 0.55347 0.0
C166 C 0.44423 0.95309 0.57207 0.0
N167 N 0.45261 0.96333 0.53914 0.0
N168 N 0.43219 0.94146 0.50893 0.0
C169 C 0.44493 0.95611 0.50132 0.0
H170 H 0.42387 0.92867 0.5716 0.0
Co171 Co 0.42115 0.92472 0.46711 0.0
C172 C 0.40411 0.95365 0.40345 0.0
O173 O 0.38704 0.94503 0.40636 0.0
N174 N 0.41049 0.90727 0.42542 0.0
C175 C 0.40495 0.89027 0.36361 0.0
C176 C 0.41169 0.90771 0.38072 0.0
C177 C 0.40318 0.88937 0.43447 0.0
N178 N 0.39958 0.8788 0.39766 0.0
O179 O 0.39566 0.92954 0.49297 0.0
H180 H 0.41808 0.91945 0.36173 0.0
H181 H 0.40188 0.88341 0.46733 0.0
O182 O 0.41849 0.94695 0.4258 0.0
C183 C 0.39184 0.91706 0.52324 0.0
O184 O 0.40457 0.90319 0.53113 0.0
N185 N 0.44614 0.91878 0.44637 0.0
C186 C 0.48546 0.90939 0.43542 0.0
C187 C 0.47643 0.92328 0.40786 0.0
C188 C 0.45664 0.92778 0.41382 0.0
C189 C 0.45436 0.90457 0.47168 0.0
C190 C 0.47395 0.89963 0.46679 0.0
H191 H 0.45012 0.939 0.39353 0.0
H192 H 0.44575 0.89755 0.49712 0.0
H193 H 0.4495 0.96049 0.46852 0.0
H194 H 0.44734 0.95469 0.60706 0.0
H195 H 0.40465 0.88614 0.32898 0.0
H196 H 0.48474 0.93118 0.38321 0.0
H197 H 0.4801 0.88849 0.48805 0.0
C198 C 0.33323 0.18922 0.7976 0.0
C199 C 0.31963 0.20201 0.81403 0.0
N200 N 0.30704 0.20645 0.78121 0.0
N201 N 0.32917 0.18544 0.75479 0.0
C202 C 0.31312 0.1961 0.74565 0.0
H203 H 0.34594 0.18387 0.81499 0.0
Co204 Co 0.3458 0.17155 0.71861 0.0
C205 C 0.3244 0.16661 0.63223 0.0
O206 O 0.34092 0.16943 0.61109 0.0
N207 N 0.36351 0.15714 0.68373 0.0
C208 C 0.3778 0.13153 0.65197 0.0
C209 C 0.36029 0.13954 0.66495 0.0
C210 C 0.38311 0.15934 0.68217 0.0
N211 N 0.39224 0.14395 0.66327 0.0
O212 O 0.3389 0.14803 0.75049 0.0
H213 H 0.34625 0.13235 0.66361 0.0
H214 H 0.39073 0.17143 0.6971 0.0
O215 O 0.32428 0.16715 0.6748 0.0
C216 C 0.3521 0.14311 0.77823 0.0
O217 O 0.3685 0.153 0.77882 0.0
N218 N 0.35362 0.19546 0.69296 0.0
C219 C 0.36477 0.23456 0.68275 0.0
C220 C 0.349 0.22686 0.65868 0.0
C221 C 0.34341 0.20735 0.66486 0.0
C222 C 0.36906 0.20276 0.71614 0.0
C223 C 0.37506 0.22207 0.71108 0.0
H224 H 0.33 0.20263 0.64972 0.0
H225 H 0.37599 0.19387 0.74119 0.0
H226 H 0.30651 0.19687 0.71313 0.0
H227 H 0.31976 0.20848 0.84677 0.0
H228 H 0.37978 0.11707 0.63829 0.0
H229 H 0.34023 0.23614 0.63756 0.0
H230 H 0.38724 0.22736 0.7306 0.0
C231 C 0.08273 0.08847 0.0419 0.0
C232 C 0.07004 0.0755 0.06096 0.0
N233 N 0.06527 0.06179 1.03062 0.0
N234 N 0.08607 0.08308 0.99974 0.0
C235 C 0.07544 0.0667 0.99381 0.0
H236 H 0.08837 0.10163 0.05704 0.0
Co237 Co 0.09944 0.09887 0.96082 0.0
C238 C 0.10503 0.0755 0.87744 0.0
O239 O 0.10223 0.09154 0.85445 0.0
N240 N 0.11341 0.11595 0.92337 0.0
C241 C 0.13906 0.13006 0.89128 0.0
C242 C 0.13106 0.11263 0.90494 0.0
C243 C 0.11122 0.13555 0.92097 0.0
N244 N 0.12665 0.14453 0.90203 0.0
O245 O 0.1232 0.09345 0.99349 0.0
H246 H 0.13837 0.09865 0.90478 0.0
H247 H 0.09933 0.14336 0.93605 0.0
O248 O 0.10415 0.07621 0.92 0.0
C249 C 0.12844 0.10772 1.01813 0.0
O250 O 0.11868 0.12417 1.01553 0.0
N251 N 0.07527 0.10529 0.93393 0.0
C252 C 0.03595 0.11467 0.92013 0.0
C253 C 0.0441 0.09788 0.90105 0.0
C254 C 0.06376 0.09337 0.90851 0.0
C255 C 0.06742 0.12157 0.95288 0.0
C256 C 0.048 0.1268 0.94555 0.0
H257 H 0.06895 0.0795 0.89669 0.0
H258 H 0.07586 0.12982 0.97666 0.0
H259 H 0.07459 0.0591 0.96249 0.0
H260 H 0.064 0.07688 0.0939 0.0
H261 H 0.1536 0.13205 0.87808 0.0
H262 H 0.03513 0.08788 0.88205 0.0
H263 H 0.04211 0.1395 0.96224 0.0
C264 C 0.83614 0.82944 0.79341 0.0
C265 C 0.82281 0.81647 0.81025 0.0
N266 N 0.80951 0.81265 0.77852 0.0
N267 N 0.8312 0.83392 0.75143 0.0
C268 C 0.81484 0.82356 0.74327 0.0
H269 H 0.84922 0.8345 0.80987 0.0
Co270 Co 0.84715 0.84846 0.71496 0.0
C271 C 0.82475 0.85426 0.63064 0.0
O272 O 0.84107 0.85148 0.60869 0.0
N273 N 0.86418 0.86362 0.68 0.0
C274 C 0.87729 0.89059 0.65144 0.0
C275 C 0.86019 0.88155 0.66371 0.0
C276 C 0.88385 0.86219 0.67731 0.0
N277 N 0.89216 0.87838 0.66024 0.0
O278 O 0.84055 0.87143 0.74913 0.0
H279 H 0.84593 0.88828 0.66405 0.0
H280 H 0.89222 0.85048 0.69172 0.0
O281 O 0.82498 0.85341 0.67319 0.0
C282 C 0.85386 0.87605 0.77686 0.0
O283 O 0.87025 0.86615 0.77658 0.0
N284 N 0.85458 0.82494 0.6864 0.0
C285 C 0.86457 0.78577 0.67203 0.0
C286 C 0.84773 0.79374 0.65289 0.0
C287 C 0.8429 0.81329 0.66067 0.0
C288 C 0.87104 0.81732 0.70503 0.0
C289 C 0.87656 0.79797 0.69746 0.0
H290 H 0.82892 0.81822 0.64909 0.0
H291 H 0.8791 0.82578 0.7291 0.0
H292 H 0.80741 0.82341 0.71164 0.0
H293 H 0.82358 0.80947 0.84235 0.0
H294 H 0.87876 0.9054 0.63942 0.0
H295 H 0.83786 0.78467 0.6338 0.0
H296 H 0.88931 0.79222 0.71417 0.0
C297 C 0.93194 0.07991 0.55446 0.0
C298 C 0.94406 0.06582 0.5715 0.0
N299 N 0.95307 0.05676 0.53755 0.0
N300 N 0.93307 0.07968 0.50982 0.0
C301 C 0.94598 0.06537 0.50063 0.0
H302 H 0.92351 0.09007 0.57387 0.0
Co303 Co 0.922 0.09715 0.46949 0.0
C304 C 0.90439 0.06872 0.40538 0.0
O305 O 0.88728 0.07708 0.40997 0.0
N306 N 0.91134 0.1152 0.42924 0.0
C307 C 0.90502 0.13248 0.36835 0.0
C308 C 0.91165 0.11486 0.38446 0.0
C309 C 0.90471 0.13326 0.43934 0.0
N310 N 0.90063 0.14401 0.40309 0.0
O311 O 0.89655 0.09228 0.49537 0.0
H312 H 0.91732 0.10302 0.36459 0.0
H313 H 0.90417 0.13911 0.47247 0.0
O314 O 0.91903 0.07545 0.42684 0.0
C315 C 0.89304 0.10462 0.52616 0.0
O316 O 0.90618 0.11804 0.53479 0.0
N317 N 0.94692 0.10324 0.44873 0.0
C318 C 0.98608 0.11315 0.4372 0.0
C319 C 0.97694 0.09967 0.40867 0.0
C320 C 0.95721 0.09492 0.41491 0.0
C321 C 0.95523 0.11705 0.47508 0.0
C322 C 0.97473 0.12225 0.46989 0.0
H323 H 0.95057 0.08407 0.39375 0.0
H324 H 0.94675 0.12358 0.50141 0.0
H325 H 0.95084 0.06207 0.46742 0.0
H326 H 0.94633 0.06289 0.60635 0.0
H327 H 0.90404 0.13666 0.33383 0.0
H328 H 0.98512 0.09229 0.38297 0.0
H329 H 0.98093 0.1331 0.49191 0.0
C330 C 0.68571 0.19153 0.29273 0.0
C331 C 0.69988 0.20336 0.31041 0.0
N332 N 0.71375 0.20609 0.2795 0.0
N333 N 0.69069 0.18651 0.25102 0.0
C334 C 0.70786 0.19565 0.24389 0.0
H335 H 0.67203 0.18802 0.30849 0.0
Co336 Co 0.67424 0.17379 0.21122 0.0
C337 C 0.70285 0.15545 0.14873 0.0
O338 O 0.69439 0.1384 0.15404 0.0
N339 N 0.65688 0.16151 0.17191 0.0
C340 C 0.63914 0.15504 0.1118 0.0
C341 C 0.65664 0.16231 0.12719 0.0
C342 C 0.63935 0.15381 0.18278 0.0
N343 N 0.62827 0.14974 0.14695 0.0
O344 O 0.67989 0.14927 0.24061 0.0
H345 H 0.66786 0.16898 0.10709 0.0
H346 H 0.63402 0.1527 0.21629 0.0
O347 O 0.69619 0.17031 0.16948 0.0
C348 C 0.66845 0.14661 0.27344 0.0
O349 O 0.65439 0.15924 0.28028 0.0
N350 N 0.66769 0.19797 0.18706 0.0
C351 C 0.65728 0.23691 0.17444 0.0
C352 C 0.67388 0.22913 0.1536 0.0
C353 C 0.67893 0.20953 0.1605 0.0
C354 C 0.65098 0.20497 0.2054 0.0
C355 C 0.64547 0.22437 0.19947 0.0
H356 H 0.69236 0.20412 0.1465 0.0
H357 H 0.64243 0.19565 0.2268 0.0
H358 H 0.71541 0.19551 0.2125 0.0
H359 H 0.69925 0.21057 0.34232 0.0
H360 H 0.63446 0.15449 0.07754 0.0
H361 H 0.68346 0.23834 0.13422 0.0
H362 H 0.63239 0.22965 0.21556 0.0
C363 C 0.58216 0.93641 0.04159 0.0
C364 C 0.56963 0.94989 0.05941 0.0
N365 N 0.56571 0.96339 1.02821 0.0
N366 N 0.58628 0.94144 0.99953 0.0
C367 C 0.57611 0.95798 0.99221 0.0
H368 H 0.58715 0.92317 0.05744 0.0
Co369 Co 0.6001 0.92529 0.96234 0.0
C370 C 0.60516 0.94748 0.87737 0.0
O371 O 0.60218 0.93114 0.85552 0.0
N372 N 0.61449 0.90789 0.92663 0.0
C373 C 0.64022 0.89366 0.89532 0.0
C374 C 0.63209 0.91118 0.90804 0.0
C375 C 0.61242 0.88826 0.92519 0.0
N376 N 0.6279 0.87918 0.90666 0.0
O377 O 0.62356 0.93185 0.99472 0.0
H378 H 0.63924 0.92524 0.90693 0.0
H379 H 0.60045 0.88059 0.94023 0.0
O380 O 0.60466 0.94728 0.91994 0.0
C381 C 0.62874 0.91857 1.02195 0.0
O382 O 0.61916 0.90197 1.02195 0.0
N383 N 0.57615 0.91794 0.93574 0.0
C384 C 0.53706 0.90739 0.92217 0.0
C385 C 0.54498 0.92392 0.90146 0.0
C386 C 0.56445 0.92912 0.90914 0.0
C387 C 0.56855 0.90195 0.95634 0.0
C388 C 0.54926 0.89618 0.94936 0.0
H389 H 0.56932 0.94292 0.89634 0.0
H390 H 0.57709 0.8944 0.98108 0.0
H391 H 0.57573 0.96543 0.96064 0.0
H392 H 0.56297 0.94909 0.09186 0.0
H393 H 0.65474 0.89171 0.88203 0.0
H394 H 0.53598 0.93324 0.88091 0.0
H395 H 0.54362 0.88377 0.96751 0.0
C396 C 0.83216 0.18438 0.78552 0.0
C397 C 0.81882 0.19702 0.76725 0.0
N398 N 0.80765 0.20408 0.80019 0.0
N399 N 0.82925 0.18336 0.82965 0.0
C400 C 0.81409 0.19542 0.83756 0.0
H401 H 0.8438 0.17706 0.76802 0.0
Co402 Co 0.84563 0.17017 0.86804 0.0
C403 C 0.82343 0.16572 0.95296 0.0
O404 O 0.83983 0.16912 0.97423 0.0
N405 N 0.86301 0.15631 0.9051 0.0
C406 C 0.87682 0.13027 0.9362 0.0
C407 C 0.85949 0.1386 0.92305 0.0
C408 C 0.88263 0.15838 0.9079 0.0
N409 N 0.89137 0.14271 0.92635 0.0
O410 O 0.83969 0.14623 0.83635 0.0
H411 H 0.84542 0.13145 0.92311 0.0
H412 H 0.89068 0.17003 0.89233 0.0
O413 O 0.82345 0.16574 0.91034 0.0
C414 C 0.85376 0.14067 0.81161 0.0
O415 O 0.87037 0.15018 0.8138 0.0
N416 N 0.85264 0.19448 0.89376 0.0
C417 C 0.86283 0.23378 0.90507 0.0
C418 C 0.84638 0.22601 0.92619 0.0
C419 C 0.84148 0.20635 0.92007 0.0
C420 C 0.86871 0.20193 0.8732 0.0
C421 C 0.87433 0.22136 0.87916 0.0
H422 H 0.82785 0.20146 0.93368 0.0
H423 H 0.87649 0.19309 0.84939 0.0
H424 H 0.80821 0.19829 0.87014 0.0
H425 H 0.81815 0.20157 0.73293 0.0
H426 H 0.87868 0.11569 0.94933 0.0
H427 H 0.83692 0.23526 0.9458 0.0
H428 H 0.88681 0.22693 0.86118 0.0
C429 C 0.5813 0.08287 0.53595 0.0
C430 C 0.56863 0.06901 0.52009 0.0
N431 N 0.56469 0.05642 0.55315 0.0
N432 N 0.5855 0.07895 0.57863 0.0
C433 C 0.57525 0.06269 0.58821 0.0
H434 H 0.58621 0.09568 0.51829 0.0
Co435 Co 0.59929 0.09588 0.61441 0.0
C436 C 0.60492 0.0744 0.70046 0.0
O437 O 0.60169 0.09077 0.72198 0.0
N438 N 0.61361 0.11392 0.64866 0.0
C439 C 0.63892 0.12855 0.68108 0.0
C440 C 0.63091 0.11088 0.66901 0.0
C441 C 0.61173 0.13358 0.64791 0.0
N442 N 0.6269 0.14285 0.66729 0.0
O443 O 0.62271 0.08945 0.58192 0.0
H444 H 0.63793 0.09682 0.67211 0.0
H445 H 0.60013 0.14111 0.63097 0.0
O446 O 0.6044 0.07442 0.65789 0.0
C447 C 0.62647 0.10238 0.55271 0.0
O448 O 0.61551 0.11807 0.55107 0.0
N449 N 0.57538 0.10318 0.64123 0.0
C450 C 0.53636 0.11369 0.65583 0.0
C451 C 0.54452 0.0974 0.67702 0.0
C452 C 0.56395 0.09223 0.66888 0.0
C453 C 0.56754 0.11895 0.62019 0.0
C454 C 0.54828 0.12469 0.62762 0.0
H455 H 0.569 0.07861 0.68232 0.0
H456 H 0.57585 0.12633 0.59483 0.0
H457 H 0.57483 0.05608 0.62073 0.0
H458 H 0.56179 0.06902 0.48773 0.0
H459 H 0.65316 0.13073 0.69584 0.0
H460 H 0.53575 0.08825 0.69843 0.0
H461 H 0.54244 0.13691 0.60916 0.0
C462 C 0.68859 0.83597 0.28762 0.0
C463 C 0.70192 0.82306 0.27038 0.0
N464 N 0.71335 0.81683 0.30375 0.0
N465 N 0.69183 0.83804 0.33144 0.0
C466 C 0.70704 0.8262 0.34035 0.0
H467 H 0.67663 0.84262 0.26985 0.0
Co468 Co 0.67554 0.85185 0.36859 0.0
C469 C 0.69767 0.85648 0.45412 0.0
O470 O 0.68129 0.85382 0.4759 0.0
N471 N 0.6582 0.86623 0.40441 0.0
C472 C 0.64438 0.89186 0.43715 0.0
C473 C 0.66173 0.88366 0.42374 0.0
C474 C 0.63856 0.86435 0.40593 0.0
N475 N 0.62975 0.87977 0.42543 0.0
O476 O 0.68237 0.87546 0.33696 0.0
H477 H 0.67587 0.89064 0.42511 0.0
H478 H 0.6307 0.85256 0.39039 0.0
O479 O 0.69746 0.85596 0.41154 0.0
C480 C 0.66889 0.88121 0.3108 0.0
O481 O 0.65212 0.87196 0.31106 0.0
N482 N 0.66778 0.82787 0.39433 0.0
C483 C 0.65658 0.78885 0.40606 0.0
C484 C 0.67267 0.79659 0.42889 0.0
C485 C 0.67817 0.81605 0.42225 0.0
C486 C 0.65208 0.82052 0.3721 0.0
C487 C 0.64602 0.80124 0.37799 0.0
H488 H 0.69164 0.82078 0.43701 0.0
H489 H 0.64496 0.82933 0.34714 0.0
H490 H 0.71294 0.82388 0.37319 0.0
H491 H 0.70237 0.81771 0.23662 0.0
H492 H 0.64261 0.90627 0.45131 0.0
H493 H 0.68143 0.78746 0.45041 0.0
H494 H 0.63391 0.79578 0.35852 0.0
C495 C 0.93721 0.94058 0.04082 0.0
C496 C 0.94967 0.95432 1.02361 0.0
N497 N 0.95516 0.96628 0.05673 0.0
N498 N 0.93467 0.94404 0.08441 0.0
C499 C 0.94577 0.95985 0.09318 0.0
H500 H 0.93123 0.9282 1.02322 0.0
Co501 Co 0.92128 0.92724 0.12135 0.0
C502 C 0.9169 0.94871 0.20753 0.0
O503 O 0.92065 0.93224 0.22814 0.0
N504 N 0.9073 0.90937 0.15686 0.0
C505 C 0.88212 0.89509 0.19044 0.0
C506 C 0.89015 0.91263 0.17757 0.0
C507 C 0.90912 0.8897 0.15689 0.0
N508 N 0.894 0.88063 0.17688 0.0
O509 O 0.89749 0.93351 0.0898 0.0
H510 H 0.88319 0.92674 0.1803 0.0
H511 H 0.92058 0.88197 0.13994 0.0
O512 O 0.91669 0.94893 0.16492 0.0
C513 C 0.89277 0.91999 0.06263 0.0
O514 O 0.90314 0.90389 0.0621 0.0
N515 N 0.94548 0.91998 0.14697 0.0
C516 C 0.9846 0.90943 0.15877 0.0
C517 C 0.97695 0.92598 0.17983 0.0
C518 C 0.95739 0.93109 0.17335 0.0
C519 C 0.95288 0.90396 0.12605 0.0
C520 C 0.97219 0.89814 0.13233 0.0
H521 H 0.95261 0.94481 0.18681 0.0
H522 H 0.94415 0.89643 0.10158 0.0
H523 H 0.94758 0.96611 0.12584 0.0
H524 H 0.9553 0.95469 0.99009 0.0
H525 H 0.86794 0.8931 0.20549 0.0
H526 H 0.98624 0.93536 0.19965 0.0
H527 H 0.97771 0.88567 0.11414 0.0
C528 C 0.68758 0.68433 0.78471 0.0
C529 C 0.70096 0.69663 0.76563 0.0
N530 N 0.71267 0.70367 0.79782 0.0
N531 N 0.69088 0.68347 0.82867 0.0
C532 C 0.70637 0.69524 0.83568 0.0
H533 H 0.67569 0.67709 0.76783 0.0
Co534 Co 0.67433 0.67099 0.86778 0.0
C535 C 0.69702 0.66641 0.95241 0.0
O536 O 0.6809 0.67001 0.97446 0.0
N537 N 0.65671 0.65793 0.90555 0.0
C538 C 0.64196 0.63312 0.93946 0.0
C539 C 0.6596 0.64057 0.9257 0.0
C540 C 0.63715 0.66053 0.9071 0.0
N541 N 0.62779 0.64559 0.92711 0.0
O542 O 0.67942 0.64666 0.83696 0.0
H543 H 0.67344 0.63302 0.92703 0.0
H544 H 0.62969 0.67233 0.89066 0.0
O545 O 0.69657 0.66638 0.9098 0.0
C546 C 0.66504 0.64151 0.81257 0.0
O547 O 0.64885 0.65169 0.81465 0.0
N548 N 0.66806 0.69563 0.89259 0.0
C549 C 0.65801 0.73493 0.9048 0.0
C550 C 0.67418 0.72685 0.92664 0.0
C551 C 0.67909 0.70724 0.91977 0.0
C552 C 0.65238 0.70337 0.87103 0.0
C553 C 0.6469 0.7228 0.8772 0.0
H554 H 0.69255 0.70216 0.93393 0.0
H555 H 0.64474 0.69469 0.84663 0.0
H556 H 0.71221 0.69841 0.86818 0.0
H557 H 0.70161 0.70048 0.73089 0.0
H558 H 0.63963 0.61885 0.95389 0.0
H559 H 0.68337 0.73578 0.94771 0.0
H560 H 0.6347 0.72853 0.85845 0.0
C561 C 0.58573 0.44166 1.03207 0.0
C562 C 0.57284 0.4551 1.01521 0.0
N563 N 0.56581 0.46568 0.04922 0.0
N564 N 0.58701 0.44398 0.07634 0.0
C565 C 0.57468 0.45874 0.08588 0.0
H566 H 0.59292 0.43025 1.01354 0.0
Co567 Co 0.6006 0.42738 0.1133 0.0
C568 C 0.60581 0.44938 0.19931 0.0
O569 O 0.60415 0.43298 0.22154 0.0
N570 N 0.6147 0.40978 0.1489 0.0
C571 C 0.64001 0.39539 0.18163 0.0
C572 C 0.63219 0.41293 0.16829 0.0
C573 C 0.61246 0.39017 0.15006 0.0
N574 N 0.62766 0.38105 0.1696 0.0
O575 O 0.62441 0.43422 0.08247 0.0
H576 H 0.63944 0.42694 0.16984 0.0
H577 H 0.60059 0.38255 0.13416 0.0
O578 O 0.60443 0.44911 0.15683 0.0
C579 C 0.62977 0.42066 0.05607 0.0
O580 O 0.61985 0.40426 0.05553 0.0
N581 N 0.57659 0.41947 0.13812 0.0
C582 C 0.53753 0.40823 0.14769 0.0
C583 C 0.54543 0.42329 0.17377 0.0
C584 C 0.56494 0.42888 0.1681 0.0
C585 C 0.56919 0.40454 0.11339 0.0
C586 C 0.54987 0.39854 0.11797 0.0
H587 H 0.56989 0.44169 0.1854 0.0
H588 H 0.5781 0.39798 0.08784 0.0
H589 H 0.57172 0.46386 0.11912 0.0
H590 H 0.56809 0.45621 0.98107 0.0
H591 H 0.65435 0.39325 0.19585 0.0
H592 H 0.5363 0.43152 0.19632 0.0
H593 H 0.54449 0.38681 0.09719 0.0
C594 C 0.8352 0.33484 0.28449 0.0
C595 C 0.82268 0.32128 0.26672 0.0
N596 N 0.81176 0.31386 0.29978 0.0
N597 N 0.83214 0.33607 0.32849 0.0
C598 C 0.81768 0.32323 0.33686 0.0
H599 H 0.84639 0.34273 0.26673 0.0
Co600 Co 0.84791 0.35015 0.36655 0.0
C601 C 0.82465 0.35615 0.4502 0.0
O602 O 0.84086 0.35541 0.47344 0.0
N603 N 0.86469 0.36474 0.40331 0.0
C604 C 0.87857 0.39131 0.43192 0.0
C605 C 0.86127 0.38297 0.41857 0.0
C606 C 0.88418 0.36236 0.4079 0.0
N607 N 0.89297 0.37834 0.42488 0.0
O608 O 0.8414 0.37363 0.33381 0.0
H609 H 0.84734 0.39033 0.41666 0.0
H610 H 0.89214 0.35009 0.39456 0.0
O611 O 0.8254 0.35401 0.4079 0.0
C612 C 0.85558 0.37924 0.30944 0.0
O613 O 0.87231 0.36999 0.3126 0.0
N614 N 0.85563 0.32644 0.39303 0.0
C615 C 0.86657 0.28738 0.40342 0.0
C616 C 0.85173 0.29548 0.42963 0.0
C617 C 0.84623 0.31502 0.42346 0.0
C618 C 0.87059 0.31891 0.36873 0.0
C619 C 0.87635 0.29952 0.37349 0.0
H620 H 0.83351 0.32014 0.44069 0.0
H621 H 0.87728 0.32774 0.34322 0.0
H622 H 0.81237 0.32003 0.36981 0.0
H623 H 0.82201 0.31693 0.23226 0.0
H624 H 0.88056 0.40617 0.44326 0.0
H625 H 0.84355 0.28646 0.45248 0.0
H626 H 0.88789 0.29388 0.35261 0.0
C627 C 0.94229 0.58638 0.54223 0.0
C628 C 0.95514 0.57317 0.5246 0.0
N629 N 0.95814 0.55888 0.55457 0.0
N630 N 0.93709 0.58052 0.58306 0.0
C631 C 0.94687 0.56367 0.58974 0.0
H632 H 0.93779 0.59998 0.5272 0.0
Co633 Co 0.92251 0.59621 0.61996 0.0
C634 C 0.91685 0.57352 0.70381 0.0
O635 O 0.91945 0.58982 0.72605 0.0
N636 N 0.90736 0.61309 0.65542 0.0
C637 C 0.88049 0.62626 0.68419 0.0
C638 C 0.88939 0.60914 0.67141 0.0
C639 C 0.90897 0.63274 0.65885 0.0
N640 N 0.89284 0.6411 0.67605 0.0
O641 O 0.8996 0.58967 0.58566 0.0
H642 H 0.88256 0.59491 0.67054 0.0
H643 H 0.92077 0.64112 0.64488 0.0
O644 O 0.91772 0.57387 0.66126 0.0
C645 C 0.89513 0.60316 0.55832 0.0
O646 O 0.90504 0.61956 0.55948 0.0
N647 N 0.94596 0.60363 0.64845 0.0
C648 C 0.98497 0.61413 0.66302 0.0
C649 C 0.97714 0.59722 0.68228 0.0
C650 C 0.95769 0.59207 0.6741 0.0
C651 C 0.95343 0.62009 0.62959 0.0
C652 C 0.97269 0.62582 0.6371 0.0
H653 H 0.9529 0.57799 0.68548 0.0
H654 H 0.9449 0.62799 0.60543 0.0
H655 H 0.94629 0.55555 0.62041 0.0
H656 H 0.96254 0.57469 0.49315 0.0
H657 H 0.86568 0.62779 0.6961 0.0
H658 H 0.98619 0.58756 0.70185 0.0
H659 H 0.97827 0.63856 0.62008 0.0
C660 C 0.68405 0.3296 0.78683 0.0
C661 C 0.69697 0.31647 0.80447 0.0
N662 N 0.71111 0.31306 0.77439 0.0
N663 N 0.68995 0.33459 0.7459 0.0
C664 C 0.70649 0.32434 0.73908 0.0
H665 H 0.67063 0.33448 0.80199 0.0
Co666 Co 0.67464 0.34968 0.7093 0.0
C667 C 0.69747 0.3557 0.62543 0.0
O668 O 0.68111 0.35474 0.6028 0.0
N669 N 0.65811 0.36535 0.67429 0.0
C670 C 0.64516 0.39267 0.64721 0.0
C671 C 0.66219 0.38353 0.65962 0.0
C672 C 0.63849 0.36386 0.67044 0.0
N673 N 0.63026 0.38027 0.65428 0.0
O674 O 0.68203 0.37238 0.74355 0.0
H675 H 0.67644 0.39027 0.66117 0.0
H676 H 0.63005 0.35188 0.68343 0.0
O677 O 0.69701 0.35373 0.66778 0.0
C678 C 0.66883 0.37715 0.77134 0.0
O679 O 0.6522 0.36765 0.7706 0.0
N680 N 0.6664 0.32652 0.68095 0.0
C681 C 0.65533 0.2875 0.66872 0.0
C682 C 0.67154 0.29524 0.64641 0.0
C683 C 0.67705 0.31471 0.65354 0.0
C684 C 0.65035 0.31928 0.70188 0.0
C685 C 0.64439 0.3 0.69577 0.0
H686 H 0.69078 0.31942 0.64003 0.0
H687 H 0.64299 0.32808 0.72647 0.0
H688 H 0.71451 0.32464 0.70828 0.0
H689 H 0.69536 0.30923 0.83609 0.0
H690 H 0.64373 0.40766 0.63635 0.0
H691 H 0.68075 0.28596 0.62625 0.0
H692 H 0.63183 0.29469 0.71386 0.0
C693 C 0.93894 0.43173 0.04134 0.0
C694 C 0.95143 0.44489 0.06065 0.0
N695 N 0.95512 0.4593 1.03132 0.0
N696 N 0.93469 0.43771 1.00002 0.0
C697 C 0.94452 0.45461 0.9949 0.0
H698 H 0.93402 0.41812 0.05563 0.0
Co699 Co 0.92108 0.42229 0.96047 0.0
C700 C 0.91737 0.44569 0.87736 0.0
O701 O 0.92105 0.4296 0.85512 0.0
N702 N 0.9068 0.40577 0.92199 0.0
C703 C 0.88039 0.3931 0.88973 0.0
C704 C 0.88918 0.41001 0.90431 0.0
C705 C 0.90834 0.38615 0.91748 0.0
N706 N 0.89247 0.3781 0.89828 0.0
O707 O 0.89741 0.42807 0.99281 0.0
H708 H 0.88239 0.42425 0.90545 0.0
H709 H 0.91973 0.37751 0.93232 0.0
O710 O 0.91693 0.44507 0.91994 0.0
C711 C 0.89212 0.41371 1.01696 0.0
O712 O 0.90174 0.3972 1.01365 0.0
N713 N 0.94519 0.41542 0.93419 0.0
C714 C 0.98451 0.40492 0.92321 0.0
C715 C 0.97718 0.42238 0.90526 0.0
C716 C 0.95758 0.42747 0.9115 0.0
C717 C 0.95211 0.39848 0.9518 0.0
C718 C 0.97142 0.39268 0.94566 0.0
H719 H 0.95311 0.44183 0.9013 0.0
H720 H 0.94301 0.39006 0.97384 0.0
H721 H 0.94449 0.46283 0.96438 0.0
H722 H 0.95809 0.44323 0.09293 0.0
H723 H 0.86576 0.39179 0.87655 0.0
H724 H 0.98675 0.43273 0.88912 0.0
H725 H 0.97618 0.37907 0.96028 0.0
C726 C 0.83526 0.68945 0.29374 0.0
C727 C 0.82194 0.702 0.31197 0.0
N728 N 0.80846 0.70642 0.28091 0.0
N729 N 0.83027 0.68581 0.25143 0.0
C730 C 0.81385 0.69621 0.24447 0.0
H731 H 0.8484 0.68416 0.30951 0.0
Co732 Co 0.84656 0.67258 0.21343 0.0
C733 C 0.82435 0.66802 0.12816 0.0
O734 O 0.84061 0.67133 0.10639 0.0
N735 N 0.86407 0.6588 0.17685 0.0
C736 C 0.87862 0.63334 0.14508 0.0
C737 C 0.861 0.64125 0.15768 0.0
C738 C 0.88365 0.6611 0.1757 0.0
N739 N 0.89294 0.64577 0.157 0.0
O740 O 0.84041 0.64869 0.24448 0.0
H741 H 0.84704 0.63391 0.15631 0.0
H742 H 0.89113 0.6731 0.19128 0.0
O743 O 0.8246 0.66822 0.17076 0.0
C744 C 0.85402 0.64361 0.271 0.0
O745 O 0.87034 0.65365 0.27108 0.0
N746 N 0.85366 0.69688 0.18845 0.0
C747 C 0.86396 0.73628 0.17895 0.0
C748 C 0.84799 0.72845 0.15578 0.0
C749 C 0.84283 0.70881 0.16163 0.0
C750 C 0.86926 0.70432 0.21086 0.0
C751 C 0.87485 0.72378 0.20609 0.0
H752 H 0.8293 0.70396 0.14733 0.0
H753 H 0.87666 0.69541 0.23517 0.0
H754 H 0.80661 0.69692 0.2127 0.0
H755 H 0.82295 0.70825 0.34482 0.0
H756 H 0.88073 0.61885 0.13163 0.0
H757 H 0.83876 0.73773 0.13566 0.0
H758 H 0.8872 0.72914 0.22494 0.0
C759 C 0.58153 0.58643 0.54226 0.0
C760 C 0.5688 0.57297 0.55955 0.0
N761 N 0.5638 0.56038 0.52709 0.0
N762 N 0.58464 0.58233 0.4992 0.0
C763 C 0.57379 0.56629 0.49093 0.0
H764 H 0.58744 0.59898 0.5594 0.0
Co765 Co 0.59833 0.5986 0.46175 0.0
C766 C 0.60516 0.57575 0.37806 0.0
O767 O 0.60301 0.59192 0.35517 0.0
N768 N 0.61259 0.616 0.42565 0.0
C769 C 0.63854 0.6305 0.39593 0.0
C770 C 0.63063 0.61297 0.40914 0.0
C771 C 0.61 0.63553 0.42239 0.0
N772 N 0.62561 0.64478 0.40486 0.0
O773 O 0.62176 0.59306 0.49544 0.0
H774 H 0.63821 0.59914 0.40999 0.0
H775 H 0.59756 0.64309 0.43575 0.0
O776 O 0.60353 0.57629 0.42049 0.0
C777 C 0.62671 0.60727 0.52054 0.0
O778 O 0.61687 0.62367 0.51782 0.0
N779 N 0.57447 0.60515 0.43387 0.0
C780 C 0.53534 0.61467 0.41845 0.0
C781 C 0.54376 0.59829 0.39826 0.0
C782 C 0.56335 0.59371 0.40645 0.0
C783 C 0.56634 0.62106 0.45378 0.0
C784 C 0.54701 0.62637 0.44574 0.0
H785 H 0.56878 0.58015 0.39344 0.0
H786 H 0.57455 0.62899 0.47857 0.0
H787 H 0.57273 0.55949 0.45867 0.0
H788 H 0.56283 0.57315 0.59275 0.0
H789 H 0.65329 0.63268 0.38424 0.0
H790 H 0.53506 0.58864 0.37774 0.0
H791 H 0.54089 0.63877 0.46316 0.0
C792 C 0.33749 0.33122 0.29046 0.0
C793 C 0.32424 0.31851 0.30857 0.0
N794 N 0.31052 0.31444 0.27781 0.0
N795 N 0.33221 0.33523 0.2485 0.0
C796 C 0.31565 0.325 0.24176 0.0
H797 H 0.35072 0.33641 0.30605 0.0
Co798 Co 0.34813 0.34892 0.21032 0.0
C799 C 0.32492 0.35492 0.127 0.0
O800 O 0.34095 0.35211 0.10406 0.0
N801 N 0.36522 0.36321 0.17346 0.0
C802 C 0.37908 0.38909 0.14172 0.0
C803 C 0.36176 0.38093 0.15552 0.0
C804 C 0.38482 0.36113 0.17067 0.0
N805 N 0.39364 0.37669 0.15188 0.0
O806 O 0.34274 0.37242 0.2439 0.0
H807 H 0.34774 0.38817 0.15569 0.0
H808 H 0.39274 0.34917 0.18522 0.0
O809 O 0.32558 0.35394 0.16953 0.0
C810 C 0.35708 0.37721 0.26875 0.0
O811 O 0.37334 0.36717 0.26575 0.0
N812 N 0.35457 0.32497 0.18262 0.0
C813 C 0.36398 0.28567 0.1685 0.0
C814 C 0.34715 0.2938 0.14962 0.0
C815 C 0.34263 0.31347 0.15721 0.0
C816 C 0.3709 0.31713 0.2013 0.0
C817 C 0.37615 0.29772 0.1938 0.0
H818 H 0.32873 0.31866 0.14561 0.0
H819 H 0.37915 0.32554 0.22513 0.0
H820 H 0.308 0.32472 0.21044 0.0
H821 H 0.32541 0.31192 0.34102 0.0
H822 H 0.38094 0.40369 0.12875 0.0
H823 H 0.33713 0.28482 0.13074 0.0
H824 H 0.38888 0.29184 0.21036 0.0
C825 C 0.43781 0.58714 1.03996 0.0
C826 C 0.45069 0.57404 0.05789 0.0
N827 N 0.45529 0.56071 1.02663 0.0
N828 N 0.43415 0.58215 0.99766 0.0
C829 C 0.44491 0.56598 0.99036 0.0
H830 H 0.43226 0.60013 0.05595 0.0
Co831 Co 0.42026 0.59812 0.9601 0.0
C832 C 0.41483 0.57551 0.87519 0.0
O833 O 0.41624 0.59182 0.85255 0.0
N834 N 0.40584 0.61534 0.92401 0.0
C835 C 0.37994 0.62971 0.89371 0.0
C836 C 0.38795 0.61218 0.90667 0.0
C837 C 0.40823 0.63491 0.92148 0.0
N838 N 0.39265 0.6441 0.90358 0.0
O839 O 0.39675 0.59124 0.99178 0.0
H840 H 0.38057 0.59823 0.90665 0.0
H841 H 0.42057 0.64248 0.93539 0.0
O842 O 0.41638 0.576 0.91763 0.0
C843 C 0.3912 0.60469 1.01826 0.0
O844 O 0.4005 0.62144 1.01792 0.0
N845 N 0.44412 0.60585 0.93446 0.0
C846 C 0.4834 0.6164 0.92527 0.0
C847 C 0.47553 0.60084 0.90071 0.0
C848 C 0.45591 0.59558 0.90628 0.0
C849 C 0.45152 0.62122 0.95775 0.0
C850 C 0.47093 0.62693 0.9532 0.0
H851 H 0.45098 0.58235 0.89064 0.0
H852 H 0.4426 0.62831 0.98252 0.0
H853 H 0.44569 0.55881 0.95851 0.0
H854 H 0.45698 0.57507 0.09069 0.0
H855 H 0.36527 0.63176 0.88134 0.0
H856 H 0.48476 0.59196 0.8797 0.0
H857 H 0.47629 0.63902 0.97289 0.0
C858 C 0.18735 0.68917 0.79403 0.0
C859 C 0.20079 0.70186 0.81149 0.0
N860 N 0.21408 0.70603 0.77993 0.0
N861 N 0.19211 0.68521 0.75175 0.0
C862 C 0.20849 0.69557 0.74401 0.0
H863 H 0.17425 0.68408 0.81024 0.0
Co864 Co 0.1756 0.6718 0.71442 0.0
C865 C 0.19731 0.6674 0.62856 0.0
O866 O 0.1809 0.67051 0.60711 0.0
N867 N 0.15791 0.65788 0.67849 0.0
C868 C 0.14327 0.6325 0.64645 0.0
C869 C 0.16092 0.64042 0.65885 0.0
C870 C 0.13831 0.66008 0.67796 0.0
N871 N 0.12898 0.64481 0.65904 0.0
O872 O 0.18211 0.64799 0.74533 0.0
H873 H 0.17491 0.63319 0.65685 0.0
H874 H 0.13085 0.67197 0.69399 0.0
O875 O 0.19727 0.66759 0.67114 0.0
C876 C 0.16879 0.64314 0.77274 0.0
O877 O 0.1526 0.65336 0.77358 0.0
N878 N 0.16819 0.69602 0.68957 0.0
C879 C 0.15765 0.73533 0.68029 0.0
C880 C 0.17346 0.72758 0.65658 0.0
C881 C 0.17876 0.70799 0.66234 0.0
C882 C 0.15273 0.70339 0.7125 0.0
C883 C 0.14703 0.72281 0.70789 0.0
H884 H 0.19222 0.70323 0.64764 0.0
H885 H 0.14557 0.69446 0.73711 0.0
H886 H 0.21558 0.6961 0.71206 0.0
H887 H 0.19999 0.70845 0.84403 0.0
H888 H 0.1411 0.61809 0.63257 0.0
H889 H 0.18248 0.7369 0.63609 0.0
H890 H 0.13484 0.72815 0.72721 0.0
C891 C 0.08754 0.43835 0.5465 0.0
C892 C 0.07479 0.45171 0.56432 0.0
N893 N 0.06699 0.46206 0.53083 0.0
N894 N 0.08788 0.44043 0.50207 0.0
C895 C 0.07529 0.45509 0.49353 0.0
H896 H 0.09543 0.42728 0.56464 0.0
Co897 Co 0.10098 0.42392 0.46372 0.0
C898 C 0.10585 0.44657 0.37884 0.0
O899 O 0.10361 0.43035 0.35609 0.0
N900 N 0.11465 0.40646 0.42658 0.0
C901 C 0.13982 0.3921 0.39321 0.0
C902 C 0.13215 0.40961 0.40732 0.0
C903 C 0.11221 0.38688 0.42426 0.0
N904 N 0.12734 0.37776 0.40446 0.0
O905 O 0.12505 0.43005 0.49451 0.0
H906 H 0.13956 0.42355 0.4066 0.0
H907 H 0.10029 0.37922 0.43972 0.0
O908 O 0.10491 0.44603 0.42136 0.0
C909 C 0.13066 0.41596 0.51917 0.0
O910 O 0.12094 0.39944 0.51759 0.0
N911 N 0.0767 0.41664 0.43885 0.0
C912 C 0.03752 0.40559 0.42824 0.0
C913 C 0.04532 0.42151 0.40473 0.0
C914 C 0.06491 0.42683 0.41054 0.0
C915 C 0.0694 0.40108 0.46148 0.0
C916 C 0.05014 0.39502 0.45588 0.0
H917 H 0.0698 0.44005 0.39491 0.0
H918 H 0.07836 0.39389 0.48604 0.0
H919 H 0.07184 0.46024 0.46059 0.0
H920 H 0.07077 0.45299 0.59889 0.0
H921 H 0.15417 0.38997 0.37914 0.0
H922 H 0.03616 0.43056 0.38399 0.0
H923 H 0.0451 0.38248 0.47443 0.0
C924 C 0.33437 0.69084 0.28622 0.0
C925 C 0.32117 0.70395 0.26939 0.0
N926 N 0.30842 0.70859 0.30172 0.0
N927 N 0.32992 0.6871 0.32881 0.0
C928 C 0.31402 0.69806 0.33739 0.0
H929 H 0.34702 0.68515 0.26923 0.0
Co930 Co 0.3459 0.67274 0.36551 0.0
C931 C 0.3239 0.66806 0.45084 0.0
O932 O 0.34036 0.67037 0.47259 0.0
N933 N 0.36292 0.65782 0.40095 0.0
C934 C 0.37622 0.63117 0.43043 0.0
C935 C 0.35904 0.63998 0.41783 0.0
C936 C 0.38256 0.65948 0.40376 0.0
N937 N 0.39099 0.64345 0.42133 0.0
O938 O 0.33858 0.6495 0.33311 0.0
H939 H 0.34481 0.63317 0.41772 0.0
H940 H 0.39081 0.67123 0.38913 0.0
O941 O 0.324 0.66881 0.4083 0.0
C942 C 0.35189 0.64404 0.30626 0.0
O943 O 0.36865 0.65331 0.30664 0.0
N944 N 0.35415 0.69638 0.39175 0.0
C945 C 0.36544 0.73547 0.40065 0.0
C946 C 0.34971 0.72802 0.42508 0.0
C947 C 0.34401 0.70851 0.41948 0.0
C948 C 0.36976 0.70337 0.36877 0.0
C949 C 0.37577 0.72273 0.373 0.0
H950 H 0.33054 0.704 0.43456 0.0
H951 H 0.37671 0.69423 0.34419 0.0
H952 H 0.30715 0.69883 0.36959 0.0
H953 H 0.32164 0.71039 0.23668 0.0
H954 H 0.37781 0.61644 0.44289 0.0
H955 H 0.341 0.73755 0.44578 0.0
H956 H 0.38788 0.7279 0.3532 0.0
C957 C 0.08141 0.58275 1.03856 0.0
C958 C 0.06842 0.56927 1.02225 0.0
N959 N 0.06268 0.55782 0.05603 0.0
N960 N 0.08407 0.57962 0.08223 0.0
C961 C 0.07241 0.56435 0.09204 0.0
H962 H 0.08787 0.59463 1.02018 0.0
Co963 Co 0.09882 0.59585 0.11793 0.0
C964 C 0.10583 0.5735 0.20252 0.0
O965 O 0.10513 0.58988 0.22514 0.0
N966 N 0.11411 0.61313 0.15215 0.0
C967 C 0.14108 0.6269 0.17907 0.0
C968 C 0.13233 0.60957 0.16723 0.0
C969 C 0.11222 0.63277 0.15507 0.0
N970 N 0.12842 0.64149 0.17113 0.0
O971 O 0.12172 0.58869 0.0841 0.0
H972 H 0.13936 0.59545 0.16643 0.0
H973 H 0.10007 0.64081 0.14153 0.0
O974 O 0.10338 0.5739 0.16031 0.0
C975 C 0.12687 0.60201 0.05693 0.0
O976 O 0.11738 0.61865 0.05714 0.0
N977 N 0.0756 0.60389 0.14604 0.0
C978 C 0.03685 0.61501 0.16068 0.0
C979 C 0.04501 0.59915 0.18354 0.0
C980 C 0.06439 0.59373 0.17558 0.0
C981 C 0.0679 0.61947 0.12409 0.0
C982 C 0.04874 0.62548 0.1314 0.0
H983 H 0.06955 0.58048 0.19067 0.0
H984 H 0.07629 0.62647 0.09828 0.0
H985 H 0.07065 0.55843 0.12502 0.0
H986 H 0.06282 0.56859 0.98871 0.0
H987 H 0.15598 0.62871 0.19023 0.0
H988 H 0.03625 0.59051 0.20603 0.0
H989 H 0.04292 0.63744 0.11203 0.0
C990 C 0.1882 0.33771 0.78376 0.0
C991 C 0.20098 0.32452 0.76562 0.0
N992 N 0.21183 0.31687 0.79858 0.0
N993 N 0.19103 0.33851 0.82791 0.0
C994 C 0.20561 0.32577 0.83598 0.0
H995 H 0.17701 0.34565 0.76609 0.0
Co996 Co 0.17497 0.35207 0.86627 0.0
C997 C 0.19797 0.3576 0.95062 0.0
O998 O 0.18174 0.35643 0.97359 0.0
N999 N 0.1579 0.36616 0.90333 0.0
C1000 C 0.1437 0.39226 0.93321 0.0
C1001 C 0.16112 0.38422 0.91983 0.0
C1002 C 0.1384 0.3636 0.90713 0.0
N1003 N 0.1294 0.37929 0.92485 0.0
O1004 O 0.1813 0.37589 0.8347 0.0
H1005 H 0.17501 0.3917 0.91883 0.0
H1006 H 0.13058 0.35145 0.89276 0.0
O1007 O 0.19732 0.35587 0.90821 0.0
C1008 C 0.16714 0.38156 0.81029 0.0
O1009 O 0.15049 0.37214 0.81272 0.0
N1010 N 0.16746 0.32805 0.89165 0.0
C1011 C 0.15669 0.28885 0.90122 0.0
C1012 C 0.1718 0.29686 0.92694 0.0
C1013 C 0.17715 0.31647 0.9213 0.0
C1014 C 0.15237 0.32059 0.86758 0.0
C1015 C 0.14661 0.30119 0.87214 0.0
H1016 H 0.18999 0.32154 0.93827 0.0
H1017 H 0.14549 0.32952 0.84251 0.0
H1018 H 0.21081 0.32231 0.8689 0.0
H1019 H 0.20184 0.32056 0.73095 0.0
H1020 H 0.14158 0.40694 0.94554 0.0
H1021 H 0.18028 0.28776 0.94909 0.0
H1022 H 0.13479 0.29573 0.85176 0.0
C1023 C 0.43716 0.4366 0.53496 0.0
C1024 C 0.44975 0.44977 0.5161 0.0
N1025 N 0.45631 0.46184 0.54814 0.0
N1026 N 0.43565 0.44037 0.57862 0.0
C1027 C 0.44732 0.45594 0.58567 0.0
H1028 H 0.4301 0.42455 0.51819 0.0
Co1029 Co 0.42239 0.42433 0.61753 0.0
C1030 C 0.41625 0.44797 0.70052 0.0
O1031 O 0.41871 0.43204 0.7241 0.0
N1032 N 0.40855 0.4072 0.65506 0.0
C1033 C 0.38305 0.393 0.68747 0.0
C1034 C 0.39083 0.41042 0.67319 0.0
C1035 C 0.41101 0.38765 0.65817 0.0
N1036 N 0.39567 0.37862 0.6774 0.0
O1037 O 0.39859 0.4295 0.58473 0.0
H1038 H 0.38333 0.4243 0.67281 0.0
H1039 H 0.42304 0.3799 0.64344 0.0
O1040 O 0.41754 0.44704 0.65806 0.0
C1041 C 0.39342 0.41501 0.56069 0.0
O1042 O 0.40327 0.39863 0.56396 0.0
N1043 N 0.44653 0.41802 0.64454 0.0
C1044 C 0.48577 0.40854 0.65868 0.0
C1045 C 0.47743 0.42487 0.67926 0.0
C1046 C 0.45779 0.42942 0.67172 0.0
C1047 C 0.45452 0.40208 0.62448 0.0
C1048 C 0.47393 0.39682 0.6318 0.0
H1049 H 0.45242 0.44295 0.68504 0.0
H1050 H 0.44612 0.39408 0.60015 0.0
H1051 H 0.44997 0.46217 0.61804 0.0
H1052 H 0.45405 0.45007 0.48162 0.0
H1053 H 0.36852 0.39091 0.70067 0.0
H1054 H 0.48622 0.4345 0.69962 0.0
H1055 H 0.47994 0.38442 0.6142 0.0
H1056 H 0.15482 0.13447 0.04506 0.0
H1057 H 0.13299 0.07703 0.07554 0.0
H1058 H 0.17076 0.13608 0.11703 0.0
H1059 H 0.14898 0.07857 0.14833 0.0
H1060 H 0.14235 0.11333 0.2852 0.0
H1061 H 0.139 0.09925 0.21152 0.0
H1062 H 0.19413 0.12478 0.17379 0.0
H1063 H 0.19743 0.13885 0.24825 0.0
C1064 C 0.15411 0.12184 0.06661 0.0
C1065 C 0.14269 0.10563 0.05472 0.0
C1066 C 0.16331 0.12272 0.10794 0.0
C1067 C 0.16105 0.10753 0.13882 0.0
C1068 C 0.15092 0.09058 0.12545 0.0
C1069 C 0.14192 0.08959 0.08361 0.0
C1070 C 0.1542 0.11513 0.26182 0.0
C1071 C 0.17016 0.12711 0.27247 0.0
C1072 C 0.15229 0.10706 0.21944 0.0
C1073 C 0.16616 0.11107 0.18637 0.0
C1074 C 0.18309 0.12155 0.19836 0.0
C1075 C 0.18513 0.12941 0.24117 0.0
H1076 H 0.13037 0.94528 0.49923 0.0
H1077 H 0.15387 0.889 0.53398 0.0
H1078 H 0.14508 0.94248 0.42533 0.0
H1079 H 0.16856 0.88614 0.46089 0.0
H1080 H 0.19326 0.88178 0.32708 0.0
H1081 H 0.19065 0.89668 0.40086 0.0
H1082 H 0.13439 0.92031 0.36537 0.0
H1083 H 0.13706 0.90545 0.29235 0.0
C1084 C 0.13943 0.93275 0.49178 0.0
C1085 C 0.14104 0.91737 0.52231 0.0
C1086 C 0.14768 0.93102 0.44931 0.0
C1087 C 0.15787 0.91399 0.43689 0.0
C1088 C 0.16101 0.89954 0.46919 0.0
C1089 C 0.15255 0.90115 0.51119 0.0
C1090 C 0.18079 0.8909 0.3345 0.0
C1091 C 0.16537 0.8925 0.30402 0.0
C1092 C 0.17917 0.89926 0.37692 0.0
C1093 C 0.16221 0.90955 0.38934 0.0
C1094 C 0.14773 0.91269 0.35707 0.0
C1095 C 0.14923 0.90412 0.31511 0.0
H1096 H 0.32369 0.88406 0.75056 0.0
H1097 H 0.37913 0.90975 0.78444 0.0
H1098 H 0.32565 0.89882 0.67659 0.0
H1099 H 0.3811 0.92457 0.71136 0.0
H1100 H 0.36444 0.89066 0.54539 0.0
H1101 H 0.34837 0.88847 0.61709 0.0
H1102 H 0.36965 0.94595 0.65071 0.0
H1103 H 0.38569 0.94805 0.57825 0.0
C1104 C 0.3358 0.89365 0.74297 0.0
C1105 C 0.35124 0.89583 0.77322 0.0
C1106 C 0.33705 0.90193 0.70045 0.0
C1107 C 0.35363 0.91276 0.68774 0.0
C1108 C 0.36803 0.91653 0.71988 0.0
C1109 C 0.36693 0.90802 0.76191 0.0
C1110 C 0.36475 0.90326 0.56713 0.0
C1111 C 0.37611 0.91959 0.5561 0.0
C1112 C 0.35558 0.90201 0.60843 0.0
C1113 C 0.3579 0.91693 0.64007 0.0
C1114 C 0.36769 0.93413 0.62726 0.0
C1115 C 0.37665 0.93548 0.58551 0.0
H1116 H 0.33521 0.15396 0.85478 0.0
H1117 H 0.36169 0.10479 0.78968 0.0
H1118 H 0.33971 0.13856 0.92591 0.0
H1119 H 0.36473 0.08806 0.86076 0.0
H1120 H 0.40026 0.08323 0.9902 0.0
H1121 H 0.38485 0.08837 0.91905 0.0
H1122 H 0.33744 0.11878 0.98407 0.0
H1123 H 0.35435 0.11523 0.05469 0.0
C1124 C 0.34107 0.1393 0.85563 0.0
C1125 C 0.34798 0.13053 0.81674 0.0
C1126 C 0.34368 0.13027 0.89678 0.0
C1127 C 0.35306 0.11198 0.90021 0.0
C1128 C 0.3581 0.10238 0.86033 0.0
C1129 C 0.35597 0.11174 0.8192 0.0
C1130 C 0.38623 0.09047 0.98932 0.0
C1131 C 0.3785 0.09882 1.02792 0.0
C1132 C 0.37723 0.09347 0.94818 0.0
C1133 C 0.35995 0.1046 0.94467 0.0
C1134 C 0.35109 0.11089 0.98448 0.0
C1135 C 0.36051 0.10846 1.02541 0.0
H1136 H 0.86132 0.91494 0.78733 0.0
H1137 H 0.83939 0.86425 0.85509 0.0
H1138 H 0.86405 0.93222 0.85805 0.0
H1139 H 0.84336 0.88048 0.92569 0.0
H1140 H 0.85574 0.90644 0.05293 0.0
H1141 H 0.83897 0.90142 0.98245 0.0
H1142 H 0.88531 0.93261 0.91557 0.0
H1143 H 0.90072 0.93894 0.98637 0.0
C1144 C 0.8565 0.90775 0.81736 0.0
C1145 C 0.84988 0.8884 0.81584 0.0
C1146 C 0.85842 0.91747 0.85817 0.0
C1147 C 0.85438 0.90778 0.89848 0.0
C1148 C 0.84643 0.8888 0.89607 0.0
C1149 C 0.84415 0.87932 0.85532 0.0
C1150 C 0.86167 0.91307 1.02326 0.0
C1151 C 0.87939 0.92324 1.0251 0.0
C1152 C 0.85233 0.90984 0.98252 0.0
C1153 C 0.86098 0.91595 0.94238 0.0
C1154 C 0.8779 0.92765 0.94511 0.0
C1155 C 0.88687 0.93134 0.98599 0.0
H1156 H 0.82406 0.13911 0.75101 0.0
H1157 H 0.87867 0.11226 0.78673 0.0
H1158 H 0.82618 0.1243 0.67706 0.0
H1159 H 0.88082 0.09739 0.71364 0.0
H1160 H 0.88573 0.07375 0.58066 0.0
H1161 H 0.86921 0.07621 0.65251 0.0
H1162 H 0.8496 0.13419 0.6185 0.0
H1163 H 0.86616 0.13165 0.54741 0.0
C1164 C 0.836 0.12927 0.7438 0.0
C1165 C 0.85118 0.12676 0.77457 0.0
C1166 C 0.83735 0.12095 0.7013 0.0
C1167 C 0.85376 0.10977 0.68914 0.0
C1168 C 0.86787 0.1057 0.72175 0.0
C1169 C 0.86667 0.11425 0.76376 0.0
C1170 C 0.87696 0.08653 0.58768 0.0
C1171 C 0.87703 0.10244 0.55839 0.0
C1172 C 0.86772 0.08808 0.62907 0.0
C1173 C 0.85826 0.1055 0.64162 0.0
C1174 C 0.85654 0.12049 0.61002 0.0
C1175 C 0.86599 0.11904 0.56908 0.0
H1176 H 0.68537 0.15522 0.35111 0.0
H1177 H 0.65899 0.10792 0.27867 0.0
H1178 H 0.68048 0.13793 0.42006 0.0
H1179 H 0.65498 0.08964 0.34775 0.0
H1180 H 0.616 0.08731 0.47389 0.0
H1181 H 0.63264 0.09238 0.4041 0.0
H1182 H 0.68279 0.11491 0.47485 0.0
H1183 H 0.6652 0.11086 0.54477 0.0
C1184 C 0.6795 0.14055 0.34984 0.0
C1185 C 0.67272 0.13283 0.30961 0.0
C1186 C 0.67664 0.1305 0.38961 0.0
C1187 C 0.66691 0.11238 0.39021 0.0
C1188 C 0.66203 0.10376 0.34907 0.0
C1189 C 0.66467 0.11402 0.30921 0.0
C1190 C 0.63087 0.09264 0.47455 0.0
C1191 C 0.63938 0.09857 0.51465 0.0
C1192 C 0.64055 0.09556 0.43431 0.0
C1193 C 0.65909 0.10447 0.43314 0.0
C1194 C 0.66836 0.10852 0.47399 0.0
C1195 C 0.65847 0.10588 0.51428 0.0
H1196 H 0.68906 0.87284 0.23629 0.0
H1197 H 0.65562 0.91821 0.29907 0.0
H1198 H 0.68385 0.88782 0.16474 0.0
H1199 H 0.65197 0.93474 0.22807 0.0
H1200 H 0.61701 0.93504 0.09826 0.0
H1201 H 0.63233 0.93134 0.16977 0.0
H1202 H 0.68381 0.90776 0.10607 0.0
H1203 H 0.66722 0.90997 1.03456 0.0
C1204 C 0.68147 0.88668 0.23496 0.0
C1205 C 0.67272 0.89435 0.27315 0.0
C1206 C 0.67843 0.89544 0.1936 0.0
C1207 C 0.66687 0.9124 0.1895 0.0
C1208 C 0.66021 0.92129 0.22896 0.0
C1209 C 0.66268 0.9121 0.2701 0.0
C1210 C 0.63184 0.92966 0.09952 0.0
C1211 C 0.64097 0.9229 0.06094 0.0
C1212 C 0.64082 0.92753 0.14087 0.0
C1213 C 0.6594 0.91882 0.14479 0.0
C1214 C 0.66928 0.9139 0.10521 0.0
C1215 C 0.65999 0.91554 0.06387 0.0
H1216 H 0.63051 0.57682 0.57875 0.0
H1217 H 0.65327 0.63382 0.54753 0.0
H1218 H 0.646 0.57855 0.65208 0.0
H1219 H 0.66875 0.6356 0.62002 0.0
H1220 H 0.69464 0.63848 0.75218 0.0
H1221 H 0.69162 0.6241 0.67798 0.0
H1222 H 0.63567 0.59995 0.71412 0.0
H1223 H 0.63874 0.61435 0.78756 0.0
C1224 C 0.63956 0.5893 0.5868 0.0
C1225 C 0.64073 0.60518 0.55752 0.0
C1226 C 0.64827 0.59041 0.62893 0.0
C1227 C 0.65851 0.6073 0.6422 0.0
C1228 C 0.66119 0.6223 0.611 0.0
C1229 C 0.65226 0.62131 0.56937 0.0
C1230 C 0.68219 0.62929 0.74484 0.0
C1231 C 0.66694 0.62747 0.77559 0.0
C1232 C 0.68033 0.62124 0.70218 0.0
C1233 C 0.66329 0.61104 0.68982 0.0
C1234 C 0.64906 0.60753 0.72238 0.0
C1235 C 0.6508 0.6158 0.7646 0.0
H1236 H 0.66404 0.41645 0.78273 0.0
H1237 H 0.6813 0.36385 0.84998 0.0
H1238 H 0.66162 0.43341 0.85399 0.0
H1239 H 0.6777 0.37987 0.92087 0.0
H1240 H 0.66609 0.40544 0.04797 0.0
H1241 H 0.68332 0.40023 0.97831 0.0
H1242 H 0.63967 0.43475 0.91048 0.0
H1243 H 0.62385 0.44124 0.98078 0.0
C1244 C 0.66794 0.40874 0.8128 0.0
C1245 C 0.67315 0.38897 0.81098 0.0
C1246 C 0.66621 0.4183 0.85385 0.0
C1247 C 0.66907 0.40808 0.89401 0.0
C1248 C 0.67561 0.38859 0.89139 0.0
C1249 C 0.67768 0.37924 0.85047 0.0
C1250 C 0.6609 0.41275 1.01839 0.0
C1251 C 0.64376 0.42385 1.01976 0.0
C1252 C 0.67049 0.40942 0.97807 0.0
C1253 C 0.66261 0.41639 0.93782 0.0
C1254 C 0.64643 0.42907 0.94019 0.0
C1255 C 0.63723 0.43286 0.98076 0.0
H1256 H 0.86577 0.38694 0.0437 0.0
H1257 H 0.88797 0.44417 0.07521 0.0
H1258 H 0.85053 0.38492 0.11626 0.0
H1259 H 0.87263 0.44225 0.14855 0.0
H1260 H 0.881 0.40703 0.28372 0.0
H1261 H 0.88338 0.42139 0.21026 0.0
H1262 H 0.82802 0.39556 0.17492 0.0
H1263 H 0.82574 0.38113 0.24915 0.0
C1264 C 0.86669 0.39945 0.06562 0.0
C1265 C 0.87806 0.41569 0.05386 0.0
C1266 C 0.85789 0.39833 0.1073 0.0
C1267 C 0.86049 0.41333 0.13862 0.0
C1268 C 0.87046 0.43037 0.12536 0.0
C1269 C 0.87908 0.43158 0.0832 0.0
C1270 C 0.86893 0.40515 0.2609 0.0
C1271 C 0.85319 0.39299 0.27211 0.0
C1272 C 0.87026 0.41342 0.21867 0.0
C1273 C 0.85601 0.40946 0.18631 0.0
C1274 C 0.83933 0.39876 0.19893 0.0
C1275 C 0.83789 0.39067 0.24159 0.0
H1276 H 0.83541 0.65211 0.34722 0.0
H1277 H 0.86698 0.60636 0.28089 0.0
H1278 H 0.84093 0.63637 0.41802 0.0
H1279 H 0.87128 0.58938 0.35132 0.0
H1280 H 0.90744 0.58875 0.48044 0.0
H1281 H 0.89197 0.59332 0.40911 0.0
H1282 H 0.84 0.61458 0.47472 0.0
H1283 H 0.85651 0.6112 0.54623 0.0
C1284 C 0.84261 0.63804 0.34765 0.0
C1285 C 0.85064 0.63037 0.30864 0.0
C1286 C 0.84585 0.62889 0.38849 0.0
C1287 C 0.85703 0.61165 0.39126 0.0
C1288 C 0.8632 0.60294 0.35119 0.0
C1289 C 0.86039 0.61242 0.31049 0.0
C1290 C 0.89245 0.59373 0.47957 0.0
C1291 C 0.88309 0.59942 0.51875 0.0
C1292 C 0.88343 0.59637 0.43842 0.0
C1293 C 0.86465 0.60468 0.43531 0.0
C1294 C 0.85463 0.60867 0.47522 0.0
C1295 C 0.86389 0.60638 0.51644 0.0
H1296 H 0.36644 0.38854 0.53549 0.0
H1297 H 0.39035 0.44458 0.50004 0.0
H1298 H 0.35162 0.38564 0.46245 0.0
H1299 H 0.37554 0.44172 0.42622 0.0
H1300 H 0.38385 0.40375 0.29456 0.0
H1301 H 0.38638 0.41903 0.36719 0.0
H1302 H 0.32965 0.39628 0.40176 0.0
H1303 H 0.32717 0.381 0.32831 0.0
C1304 C 0.3678 0.40064 0.51258 0.0
C1305 C 0.37949 0.41679 0.52344 0.0
C1306 C 0.35927 0.39901 0.47061 0.0
C1307 C 0.36253 0.41335 0.43814 0.0
C1308 C 0.37285 0.43035 0.45036 0.0
C1309 C 0.38116 0.43211 0.49278 0.0
C1310 C 0.37156 0.40272 0.317 0.0
C1311 C 0.35531 0.39124 0.3058 0.0
C1312 C 0.37298 0.41152 0.35871 0.0
C1313 C 0.35831 0.40876 0.39063 0.0
C1314 C 0.34127 0.3986 0.37805 0.0
C1315 C 0.33973 0.39002 0.33584 0.0
H1316 H 0.35336 0.61557 1.02972 0.0
H1317 H 0.40135 0.58673 0.09418 0.0
H1318 H 0.33666 0.61877 0.10076 0.0
H1319 H 0.38596 0.59135 0.16548 0.0
H1320 H 0.36234 0.60606 0.29454 0.0
H1321 H 0.36549 0.58943 0.22332 0.0
H1322 H 0.3387 0.63914 0.15886 0.0
H1323 H 0.33414 0.65449 0.23029 0.0
C1324 C 0.36002 0.60937 0.05908 0.0
C1325 C 0.37849 0.60068 0.05651 0.0
C1326 C 0.3507 0.61157 0.10015 0.0
C1327 C 0.36005 0.60592 0.13988 0.0
C1328 C 0.37793 0.59582 0.13635 0.0
C1329 C 0.38691 0.59312 0.09517 0.0
C1330 C 0.35625 0.61284 0.26518 0.0
C1331 C 0.34777 0.6314 0.26786 0.0
C1332 C 0.35843 0.60354 0.22401 0.0
C1333 C 0.35296 0.61302 0.18433 0.0
C1334 C 0.34304 0.63101 0.18795 0.0
C1335 C 0.34037 0.63997 0.22921 0.0
H1336 H 0.16488 0.61266 0.04775 0.0
H1337 H 0.11732 0.58454 0.97977 0.0
H1338 H 0.18227 0.61623 0.97766 0.0
H1339 H 0.13346 0.58951 0.90944 0.0
H1340 H 0.15851 0.60494 0.78219 0.0
H1341 H 0.15468 0.5878 0.8526 0.0
H1342 H 0.1805 0.63721 0.92048 0.0
H1343 H 0.18564 0.65313 0.85 0.0
C1344 C 0.15846 0.60668 1.01783 0.0
C1345 C 0.13989 0.59814 1.01913 0.0
C1346 C 0.16819 0.6091 0.97732 0.0
C1347 C 0.15918 0.60377 0.93693 0.0
C1348 C 0.14121 0.59375 0.93916 0.0
C1349 C 0.1318 0.59087 0.97977 0.0
C1350 C 0.16425 0.61154 0.81214 0.0
C1351 C 0.17261 0.6302 0.81072 0.0
C1352 C 0.16168 0.60195 0.85282 0.0
C1353 C 0.16669 0.61119 0.89317 0.0
C1354 C 0.17652 0.62927 0.89083 0.0
C1355 C 0.17952 0.63855 0.85013 0.0
H1356 H 0.14152 0.40917 0.78455 0.0
H1357 H 0.19729 0.38422 0.75108 0.0
H1358 H 0.13932 0.42383 0.71138 0.0
H1359 H 0.19519 0.39897 0.67715 0.0
H1360 H 0.13447 0.44663 0.57692 0.0
H1361 H 0.14988 0.44498 0.65026 0.0
H1362 H 0.17318 0.38818 0.61773 0.0
H1363 H 0.15786 0.38994 0.54515 0.0
C1364 C 0.15374 0.40757 0.76207 0.0
C1365 C 0.16956 0.39557 0.77346 0.0
C1366 C 0.15251 0.41602 0.72001 0.0
C1367 C 0.16696 0.41241 0.68798 0.0
C1368 C 0.18372 0.4019 0.70088 0.0
C1369 C 0.18506 0.39363 0.74338 0.0
C1370 C 0.14367 0.43426 0.58481 0.0
C1371 C 0.14498 0.4184 0.55544 0.0
C1372 C 0.15232 0.43319 0.627 0.0
C1373 C 0.1626 0.41633 0.64024 0.0
C1374 C 0.16556 0.40146 0.6088 0.0
C1375 C 0.15673 0.40243 0.56709 0.0
H1376 H 0.14927 0.25734 0.32991 0.0
H1377 H 0.15591 0.25801 0.47229 0.0
H1378 H 0.14146 0.29199 0.33082 0.0
H1379 H 0.14864 0.29295 0.47306 0.0
H1380 H 0.11415 0.35008 0.46164 0.0
H1381 H 0.1213 0.3153 0.4604 0.0
H1382 H 0.15706 0.32344 0.34413 0.0
H1383 H 0.14939 0.35825 0.34458 0.0
C1384 C 0.14895 0.26486 0.3615 0.0
C1385 C 0.15304 0.25482 0.40111 0.0
C1386 C 0.14471 0.28481 0.36192 0.0
C1387 C 0.14441 0.29529 0.40198 0.0
C1388 C 0.14853 0.28528 0.44165 0.0
C1389 C 0.15287 0.26529 0.4412 0.0
C1390 C 0.12328 0.34447 0.43535 0.0
C1391 C 0.13108 0.357 0.40294 0.0
C1392 C 0.12762 0.32451 0.43505 0.0
C1393 C 0.1398 0.31655 0.40226 0.0
C1394 C 0.14748 0.32905 0.36965 0.0
C1395 C 0.14321 0.34903 0.37007 0.0
H1396 H 0.909 0.91288 0.68112 0.0
H1397 H 0.92177 0.85406 0.63973 0.0
H1398 H 0.94371 0.92015 0.68478 0.0
H1399 H 0.95661 0.8614 0.64099 0.0
H1400 H 0.01847 0.87398 0.68486 0.0
H1401 H 0.98358 0.8669 0.68562 0.0
H1402 H 0.97167 0.92622 0.64462 0.0
H1403 H 1.00644 0.93336 0.64635 0.0
C1404 C 0.91929 0.90161 0.67194 0.0
C1405 C 0.9127 0.88293 0.65989 0.0
C1406 C 0.93926 0.90576 0.67393 0.0
C1407 C 0.9532 0.89142 0.66315 0.0
C1408 C 0.94648 0.87277 0.65049 0.0
C1409 C 0.92649 0.86854 0.64933 0.0
C1410 C 1.00829 0.8855 0.67652 0.0
C1411 C 0.01513 0.90425 0.66595 0.0
C1412 C 0.98827 0.88144 0.67647 0.0
C1413 C 0.97458 0.89592 0.66491 0.0
C1414 C 0.98156 0.91473 0.65458 0.0
C1415 C 1.00155 0.91886 0.65545 0.0
H1416 H 0.36641 0.6634 0.85202 0.0
H1417 H 0.41028 0.6725 0.95301 0.0
H1418 H 0.35915 0.69826 0.85268 0.0
H1419 H 0.40321 0.70717 0.95296 0.0
H1420 H 0.39889 0.77101 0.90595 0.0
H1421 H 0.40627 0.73614 0.90516 0.0
H1422 H 0.34466 0.72306 0.90273 0.0
H1423 H 0.33729 0.75795 0.90264 0.0
C1424 C 0.3745 0.67273 0.87439 0.0
C1425 C 0.38899 0.66493 0.90233 0.0
C1426 C 0.37032 0.69274 0.87479 0.0
C1427 C 0.38058 0.70552 0.90293 0.0
C1428 C 0.3952 0.6978 0.93045 0.0
C1429 C 0.39931 0.6778 0.93028 0.0
C1430 C 0.38692 0.76068 0.90528 0.0
C1431 C 0.36751 0.76727 0.90452 0.0
C1432 C 0.39114 0.7407 0.9051 0.0
C1433 C 0.37605 0.72679 0.90376 0.0
C1434 C 0.35663 0.73338 0.9033 0.0
C1435 C 0.3524 0.75337 0.90384 0.0
H1436 H 0.50984 0.12 0.2256 0.0
H1437 H 0.508 0.12088 0.08269 0.0
H1438 H 0.5446 0.12793 0.22364 0.0
H1439 H 0.54272 0.12799 0.08034 0.0
H1440 H 0.60001 0.1609 0.08957 0.0
H1441 H 0.56554 0.15259 0.09235 0.0
H1442 H 0.57614 0.11654 0.20746 0.0
H1443 H 0.61058 0.12556 0.2053 0.0
C1444 C 0.51693 0.12175 0.19378 0.0
C1445 C 0.50614 0.12008 0.15436 0.0
C1446 C 0.5369 0.12618 0.19255 0.0
C1447 C 0.54662 0.12875 0.15178 0.0
C1448 C 0.53578 0.12665 0.11241 0.0
C1449 C 0.51583 0.1225 0.1137 0.0
C1450 C 0.595 0.15104 0.11515 0.0
C1451 C 0.60804 0.14384 0.14713 0.0
C1452 C 0.57518 0.14621 0.11679 0.0
C1453 C 0.56787 0.13381 0.15012 0.0
C1454 C 0.58104 0.1264 0.18177 0.0
C1455 C 0.60084 0.13146 0.18043 0.0
H1456 H 0.10353 0.67071 0.19167 0.0
H1457 H 0.16249 0.65906 0.15001 0.0
H1458 H 0.11024 0.70573 0.19066 0.0
H1459 H 0.16911 0.6939 0.14684 0.0
H1460 H 0.18152 0.75657 0.18631 0.0
H1461 H 0.17469 0.72175 0.18824 0.0
H1462 H 0.11542 0.733 0.14618 0.0
H1463 H 0.1222 0.76799 0.14646 0.0
C1464 C 0.1179 0.6757 0.18207 0.0
C1465 C 0.13252 0.66216 0.17139 0.0
C1466 C 0.12176 0.69579 0.1811 0.0
C1467 C 0.14027 0.70286 0.16864 0.0
C1468 C 0.15482 0.68918 0.15762 0.0
C1469 C 0.15104 0.66912 0.15933 0.0
C1470 C 0.16709 0.75155 0.17704 0.0
C1471 C 0.15243 0.765 0.16596 0.0
C1472 C 0.16314 0.73152 0.17803 0.0
C1473 C 0.14446 0.72433 0.16729 0.0
C1474 C 0.12987 0.73787 0.15552 0.0
C1475 C 0.13377 0.75795 0.15526 0.0
H1476 H 0.51069 0.90409 0.50455 0.0
H1477 H 0.50878 0.90628 0.36152 0.0
H1478 H 0.54535 0.89675 0.50189 0.0
H1479 H 0.54381 0.89966 0.3589 0.0
H1480 H 0.60139 0.86593 0.37043 0.0
H1481 H 0.56673 0.87335 0.3727 0.0
H1482 H 0.57636 0.91138 0.4849 0.0
H1483 H 0.61099 0.90331 0.48374 0.0
C1484 C 0.51766 0.90296 0.47245 0.0
C1485 C 0.50685 0.90558 0.43321 0.0
C1486 C 0.53764 0.899 0.47097 0.0
C1487 C 0.54743 0.89759 0.4302 0.0
C1488 C 0.53669 0.90041 0.39088 0.0
C1489 C 0.51665 0.90441 0.39237 0.0
C1490 C 0.59615 0.87564 0.39605 0.0
C1491 C 0.60907 0.8839 0.42717 0.0
C1492 C 0.57624 0.88014 0.3969 0.0
C1493 C 0.5687 0.89301 0.42889 0.0
C1494 C 0.5816 0.90125 0.46004 0.0
C1495 C 0.60152 0.89676 0.45917 0.0
H1496 H 0.40889 0.35079 0.6206 0.0
H1497 H 0.37338 0.35936 0.73709 0.0
H1498 H 0.4015 0.31602 0.62189 0.0
H1499 H 0.36554 0.32456 0.73771 0.0
H1500 H 0.37345 0.25845 0.75262 0.0
H1501 H 0.38133 0.2931 0.75139 0.0
H1502 H 0.37376 0.29378 0.60925 0.0
H1503 H 0.36634 0.25883 0.61036 0.0
C1504 C 0.39966 0.34525 0.64679 0.0
C1505 C 0.39186 0.35789 0.67903 0.0
C1506 C 0.39519 0.32532 0.64712 0.0
C1507 C 0.38289 0.31748 0.67981 0.0
C1508 C 0.3752 0.33008 0.71227 0.0
C1509 C 0.37958 0.35004 0.71177 0.0
C1510 C 0.37368 0.26591 0.72098 0.0
C1511 C 0.36945 0.2558 0.68149 0.0
C1512 C 0.37797 0.28585 0.72037 0.0
C1513 C 0.37819 0.29624 0.68025 0.0
C1514 C 0.37392 0.28617 0.6407 0.0
C1515 C 0.36951 0.26619 0.64134 0.0
H1516 H 0.92075 0.16773 0.94463 0.0
H1517 H 0.90859 0.10832 0.90656 0.0
H1518 H 0.9557 0.16091 0.9427 0.0
H1519 H 0.94335 0.10157 0.90218 0.0
H1520 H 1.0064 0.08944 0.93885 0.0
H1521 H 0.97159 0.09623 0.94168 0.0
H1522 H 0.98257 0.15535 0.89794 0.0
H1523 H 0.01752 0.14864 0.89762 0.0
C1524 C 0.92563 0.15323 0.93565 0.0
C1525 C 0.91198 0.13852 0.92628 0.0
C1526 C 0.94568 0.1493 0.93409 0.0
C1527 C 0.95259 0.13063 0.9222 0.0
C1528 C 0.93878 0.11599 0.9125 0.0
C1529 C 0.91878 0.11984 0.9149 0.0
C1530 C 1.0013 0.10382 0.92941 0.0
C1531 C 0.01464 0.11848 0.91778 0.0
C1532 C 0.98128 0.10775 0.93091 0.0
C1533 C 0.97402 0.12639 0.92005 0.0
C1534 C 0.98747 0.14094 0.90748 0.0
C1535 C 1.00754 0.13708 0.90681 0.0
H1536 H 0.89878 0.76738 0.65106 0.0
H1537 H 0.8393 0.75612 0.68972 0.0
H1538 H 0.90548 0.7324 0.65132 0.0
H1539 H 0.84606 0.72129 0.69234 0.0
H1540 H 0.85854 0.65837 0.65555 0.0
H1541 H 0.85174 0.69318 0.65214 0.0
H1542 H 0.91057 0.70539 0.69621 0.0
H1543 H 0.91745 0.67043 0.69728 0.0
C1544 C 0.88716 0.75737 0.6597 0.0
C1545 C 0.86848 0.76445 0.66992 0.0
C1546 C 0.89101 0.73729 0.66031 0.0
C1547 C 0.87637 0.72379 0.67203 0.0
C1548 C 0.85766 0.73102 0.68222 0.0
C1549 C 0.85375 0.75105 0.68083 0.0
C1550 C 0.86993 0.66852 0.66489 0.0
C1551 C 0.8885 0.66169 0.67692 0.0
C1552 C 0.86605 0.68856 0.66304 0.0
C1553 C 0.88056 0.70234 0.67392 0.0
C1554 C 0.89909 0.69538 0.68664 0.0
C1555 C 0.90304 0.67533 0.68769 0.0
H1556 H 0.01166 0.11782 0.50591 0.0
H1557 H 1.00895 0.11751 0.36284 0.0
H1558 H 0.04616 0.12569 0.50281 0.0
H1559 H 0.04389 0.12456 0.35971 0.0
H1560 H 0.10159 0.15802 0.37148 0.0
H1561 H 0.06692 0.1506 0.3743 0.0
H1562 H 0.07705 0.11169 0.48451 0.0
H1563 H 0.11161 0.1198 0.48297 0.0
C1564 C 0.01842 0.11947 0.4737 0.0
C1565 C 1.00742 0.11723 0.4346 0.0
C1566 C 0.03832 0.12373 0.47194 0.0
C1567 C 0.04788 0.12577 0.43103 0.0
C1568 C 0.03696 0.12333 0.39183 0.0
C1569 C 0.01697 0.11906 0.39359 0.0
C1570 C 0.09645 0.14814 0.39682 0.0
C1571 C 0.1095 0.13961 0.42721 0.0
C1572 C 0.07653 0.14364 0.39797 0.0
C1573 C 0.06912 0.13049 0.42952 0.0
C1574 C 0.08216 0.12204 0.46002 0.0
C1575 C 0.10206 0.12655 0.4589 0.0
H1576 H 0.61581 0.35378 0.10997 0.0
H1577 H 0.64858 0.36134 0.23104 0.0
H1578 H 0.62308 0.31893 0.11078 0.0
H1579 H 0.6562 0.32649 0.23142 0.0
H1580 H 0.64643 0.26036 0.24316 0.0
H1581 H 0.63905 0.29512 0.24177 0.0
H1582 H 0.65155 0.29668 0.10155 0.0
H1583 H 0.65861 0.26163 0.10279 0.0
C1584 C 0.62442 0.34799 0.137 0.0
C1585 C 0.63149 0.36033 0.17069 0.0
C1586 C 0.62881 0.32805 0.13711 0.0
C1587 C 0.64024 0.31994 0.1711 0.0
C1588 C 0.64722 0.33226 0.20494 0.0
C1589 C 0.64296 0.35223 0.20461 0.0
C1590 C 0.64743 0.26805 0.2119 0.0
C1591 C 0.65294 0.25818 0.17297 0.0
C1592 C 0.64341 0.28804 0.21124 0.0
C1593 C 0.64471 0.29868 0.17158 0.0
C1594 C 0.65024 0.28884 0.13257 0.0
C1595 C 0.65443 0.26882 0.13332 0.0
H1596 H 0.41297 0.90199 0.97786 0.0
H1597 H 0.42037 0.8612 0.8698 0.0
H1598 H 0.44781 0.90913 0.97611 0.0
H1599 H 0.45511 0.86817 0.8686 0.0
H1600 H 0.51973 0.8716 0.91197 0.0
H1601 H 0.48492 0.86394 0.91314 0.0
H1602 H 0.47161 0.92524 0.92697 0.0
H1603 H 0.50638 0.93285 0.92683 0.0
C1604 C 0.42195 0.89455 0.95371 0.0
C1605 C 0.41369 0.881 0.92403 0.0
C1606 C 0.44195 0.89867 0.95267 0.0
C1607 C 0.45425 0.88929 0.92207 0.0
C1608 C 0.44609 0.8755 0.89293 0.0
C1609 C 0.42609 0.87145 0.89379 0.0
C1610 C 0.50936 0.88343 0.91518 0.0
C1611 C 0.51585 0.90283 0.91919 0.0
C1612 C 0.48941 0.87906 0.91558 0.0
C1613 C 0.47547 0.89397 0.92037 0.0
C1614 C 0.48196 0.91339 0.92378 0.0
C1615 C 0.50189 0.91777 0.92307 0.0
H1616 H 0.91672 0.34857 0.87696 0.0
H1617 H 0.85792 0.36125 0.91799 0.0
H1618 H 0.90946 0.31368 0.8781 0.0
H1619 H 0.85073 0.32651 0.92164 0.0
H1620 H 0.83772 0.26343 0.88662 0.0
H1621 H 0.84475 0.29821 0.88264 0.0
H1622 H 0.90423 0.28694 0.92329 0.0
H1623 H 0.89725 0.25201 0.92469 0.0
C1624 C 0.90224 0.34381 0.88633 0.0
C1625 C 0.88785 0.35758 0.89692 0.0
C1626 C 0.89807 0.3238 0.88747 0.0
C1627 C 0.87948 0.31704 0.90018 0.0
C1628 C 0.86509 0.33097 0.91075 0.0
C1629 C 0.86918 0.35097 0.90876 0.0
C1630 C 0.85224 0.26847 0.89505 0.0
C1631 C 0.86692 0.25506 0.90619 0.0
C1632 C 0.85631 0.28846 0.89291 0.0
C1633 C 0.87511 0.29563 0.90263 0.0
C1634 C 0.88969 0.2821 0.91459 0.0
C1635 C 0.88569 0.26206 0.91588 0.0
H1636 H 0.41136 0.11883 0.60869 0.0
H1637 H 0.42068 0.16034 0.71462 0.0
H1638 H 0.44616 0.11147 0.60822 0.0
H1639 H 0.45534 0.15316 0.71357 0.0
H1640 H 0.51914 0.14953 0.6654 0.0
H1641 H 0.48433 0.15713 0.66638 0.0
H1642 H 0.47086 0.09572 0.65588 0.0
H1643 H 0.50563 0.08816 0.65391 0.0
C1644 C 0.42074 0.12637 0.63194 0.0
C1645 C 0.41302 0.14022 0.66161 0.0
C1646 C 0.44072 0.12213 0.63169 0.0
C1647 C 0.45355 0.13169 0.66094 0.0
C1648 C 0.44592 0.1457 0.69021 0.0
C1649 C 0.42595 0.14987 0.69064 0.0
C1650 C 0.50874 0.13766 0.66335 0.0
C1651 C 0.51518 0.11824 0.65972 0.0
C1652 C 0.48879 0.142 0.66419 0.0
C1653 C 0.47479 0.12704 0.66105 0.0
C1654 C 0.48124 0.10761 0.65786 0.0
C1655 C 0.50119 0.10326 0.65734 0.0
H1656 H 0.68184 0.75794 0.40389 0.0
H1657 H 0.62051 0.77181 0.41194 0.0
H1658 H 0.67399 0.7232 0.40325 0.0
H1659 H 0.61262 0.73705 0.41019 0.0
H1660 H 0.6084 0.67296 0.45535 0.0
H1661 H 0.61569 0.70763 0.45599 0.0
H1662 H 0.65876 0.699 0.35358 0.0
H1663 H 0.65132 0.66417 0.35245 0.0
C1664 C 0.66669 0.75358 0.40599 0.0
C1665 C 0.6518 0.76766 0.40822 0.0
C1666 C 0.66217 0.73366 0.40499 0.0
C1667 C 0.64267 0.72732 0.40643 0.0
C1668 C 0.6278 0.74141 0.40933 0.0
C1669 C 0.63231 0.76133 0.41005 0.0
C1670 C 0.61918 0.67837 0.4323 0.0
C1671 C 0.62922 0.6656 0.40367 0.0
C1672 C 0.62342 0.69834 0.43285 0.0
C1673 C 0.63786 0.70611 0.40497 0.0
C1674 C 0.64776 0.69344 0.37601 0.0
C1675 C 0.64347 0.67346 0.3753 0.0
H1676 H 1.00229 0.87471 0.17798 0.0
H1677 H 0.01459 0.93427 0.14133 0.0
H1678 H 0.03708 0.86724 0.1764 0.0
H1679 H 0.04923 0.92676 0.1372 0.0
H1680 H 0.11195 0.91268 0.17136 0.0
H1681 H 0.07736 0.92017 0.17626 0.0
H1682 H 0.06366 0.86186 0.13052 0.0
H1683 H 0.09846 0.85427 0.12807 0.0
C1684 C 0.0125 0.88618 0.16951 0.0
C1685 C 1.0058 0.90509 0.16022 0.0
C1686 C 0.03246 0.88189 0.16811 0.0
C1687 C 0.04618 0.89633 0.15646 0.0
C1688 C 0.03931 0.91529 0.14723 0.0
C1689 C 0.01941 0.91964 0.14947 0.0
C1690 C 0.10151 0.90157 0.16193 0.0
C1691 C 0.10786 0.88294 0.14896 0.0
C1692 C 0.08161 0.90584 0.16465 0.0
C1693 C 0.06748 0.89168 0.1537 0.0
C1694 C 0.07396 0.87308 0.14012 0.0
C1695 C 0.0939 0.86872 0.13824 0.0
H1696 H 0.6837 0.76551 0.9014 0.0
H1697 H 0.62233 0.75243 0.91371 0.0
H1698 H 0.67632 0.80038 0.90194 0.0
H1699 H 0.61492 0.78729 0.9133 0.0
H1700 H 0.61196 0.85113 0.95956 0.0
H1701 H 0.61922 0.81649 0.95974 0.0
H1702 H 0.66051 0.8249 0.85355 0.0
H1703 H 0.65304 0.85974 0.85279 0.0
C1704 C 0.66865 0.77008 0.90467 0.0
C1705 C 0.65361 0.75618 0.90771 0.0
C1706 C 0.6644 0.79006 0.90439 0.0
C1707 C 0.64502 0.79664 0.90745 0.0
C1708 C 0.63001 0.78273 0.91119 0.0
C1709 C 0.63424 0.76276 0.91115 0.0
C1710 C 0.62234 0.8457 0.93563 0.0
C1711 C 0.63181 0.85841 0.9059 0.0
C1712 C 0.62657 0.82574 0.93591 0.0
C1713 C 0.64046 0.8179 0.90671 0.0
C1714 C 0.64992 0.83052 0.87692 0.0
C1715 C 0.64562 0.8505 0.87645 0.0
H1716 H 0.41266 0.39993 0.09355 0.0
H1717 H 0.42163 0.36317 0.20794 0.0
H1718 H 0.44735 0.40807 0.09328 0.0
H1719 H 0.45628 0.37078 0.20682 0.0
H1720 H 0.51343 0.40538 0.22019 0.0
H1721 H 0.47852 0.39803 0.22105 0.0
H1722 H 0.47882 0.39302 0.07832 0.0
H1723 H 0.51342 0.40094 0.07737 0.0
C1724 C 0.42203 0.39352 0.11849 0.0
C1725 C 0.41431 0.3808 0.15052 0.0
C1726 C 0.44194 0.39807 0.11817 0.0
C1727 C 0.45463 0.39008 0.15006 0.0
C1728 C 0.44692 0.37734 0.18206 0.0
C1729 C 0.42704 0.37274 0.18226 0.0
C1730 C 0.506 0.40282 0.18902 0.0
C1731 C 0.51628 0.4036 0.14877 0.0
C1732 C 0.48603 0.39843 0.18951 0.0
C1733 C 0.47585 0.39488 0.14974 0.0
C1734 C 0.48613 0.39583 0.10953 0.0
C1735 C 0.50606 0.40013 0.10905 0.0
H1736 H 0.9107 0.17141 0.34263 0.0
H1737 H 0.87759 0.16256 0.46238 0.0
H1738 H 0.90228 0.20592 0.34357 0.0
H1739 H 0.86853 0.197 0.46285 0.0
H1740 H 0.87251 0.26366 0.47551 0.0
H1741 H 0.88044 0.22886 0.47547 0.0
H1742 H 0.87695 0.22824 0.33234 0.0
H1743 H 0.86977 0.26298 0.33265 0.0
C1744 C 0.90134 0.1768 0.36877 0.0
C1745 C 0.89481 0.16426 0.4024 0.0
C1746 C 0.89645 0.19663 0.36936 0.0
C1747 C 0.88466 0.2044 0.4033 0.0
C1748 C 0.87792 0.19172 0.43663 0.0
C1749 C 0.88302 0.17193 0.43629 0.0
C1750 C 0.87344 0.25601 0.44415 0.0
C1751 C 0.87078 0.26609 0.4041 0.0
C1752 C 0.87789 0.23603 0.44403 0.0
C1753 C 0.87951 0.22562 0.40384 0.0
C1754 C 0.87635 0.23574 0.3639 0.0
C1755 C 0.87216 0.25569 0.36405 0.0
H1756 H 0.01558 0.5887 0.65549 0.0
H1757 H 1.00242 0.6497 0.67569 0.0
H1758 H 0.05036 0.59626 0.65488 0.0
H1759 H 0.0372 0.65733 0.67392 0.0
H1760 H 0.10169 0.65995 0.71501 0.0
H1761 H 0.06709 0.65254 0.71706 0.0
H1762 H 0.07409 0.61295 0.60681 0.0
H1763 H 0.10886 0.62052 0.60431 0.0
C1764 C 0.02011 0.6037 0.66034 0.0
C1765 C 1.0062 0.61859 0.66588 0.0
C1766 C 0.04005 0.60807 0.65934 0.0
C1767 C 0.04658 0.62742 0.66408 0.0
C1768 C 0.03269 0.64226 0.67047 0.0
C1769 C 0.01275 0.6379 0.67121 0.0
C1770 C 0.09593 0.64991 0.69061 0.0
C1771 C 0.10822 0.64093 0.65925 0.0
C1772 C 0.076 0.64561 0.69196 0.0
C1773 C 0.06779 0.63213 0.66218 0.0
C1774 C 0.08 0.62319 0.63068 0.0
C1775 C 0.09994 0.62756 0.62919 0.0
H1776 H 0.64557 0.26395 0.73825 0.0
H1777 H 0.65563 0.26268 0.59699 0.0
H1778 H 0.63857 0.22913 0.73744 0.0
H1779 H 0.64908 0.22754 0.59636 0.0
H1780 H 0.61486 0.1697 0.60686 0.0
H1781 H 0.62172 0.2046 0.60683 0.0
H1782 H 0.65547 0.19803 0.72683 0.0
H1783 H 0.64815 0.16313 0.72748 0.0
C1784 C 0.64615 0.25626 0.7069 0.0
C1785 C 0.65096 0.26618 0.66756 0.0
C1786 C 0.64238 0.23622 0.70656 0.0
C1787 C 0.64328 0.22551 0.66687 0.0
C1788 C 0.64808 0.23539 0.62745 0.0
C1789 C 0.65198 0.25549 0.62783 0.0
C1790 C 0.62353 0.1757 0.63358 0.0
C1791 C 0.63082 0.16359 0.66745 0.0
C1792 C 0.62769 0.1957 0.63321 0.0
C1793 C 0.63915 0.20414 0.6668 0.0
C1794 C 0.64643 0.19204 0.70067 0.0
C1795 C 0.64237 0.17201 0.70089 0.0
H1796 H 0.11089 0.41327 0.90678 0.0
H1797 H 0.10098 0.35326 0.94362 0.0
H1798 H 0.07569 0.41896 0.90505 0.0
H1799 H 0.06567 0.35896 0.94211 0.0
H1800 H 1.00655 0.38667 0.98719 0.0
H1801 H 0.04131 0.37984 0.98661 0.0
H1802 H 0.04639 0.40705 0.8583 0.0
H1803 H 0.01128 0.41318 0.85756 0.0
C1804 C 0.10118 0.40136 0.915 0.0
C1805 C 0.10867 0.38285 0.9257 0.0
C1806 C 0.08104 0.40455 0.91349 0.0
C1807 C 0.06795 0.38939 0.92332 0.0
C1808 C 0.07543 0.37093 0.93455 0.0
C1809 C 0.09558 0.36765 0.93531 0.0
C1810 C 0.01484 0.39081 0.9582 0.0
C1811 C 1.00585 0.40036 0.92217 0.0
C1812 C 0.03487 0.38699 0.95813 0.0
C1813 C 0.04656 0.39291 0.92245 0.0
C1814 C 0.03773 0.40248 0.88645 0.0
C1815 C 0.01761 0.40604 0.88615 0.0
H1816 H 0.87261 0.86082 0.23744 0.0
H1817 H 0.90569 0.85339 0.11693 0.0
H1818 H 0.86476 0.82604 0.23714 0.0
H1819 H 0.89835 0.81861 0.11731 0.0
H1820 H 0.86392 0.76106 0.10732 0.0
H1821 H 0.87082 0.79611 0.10674 0.0
H1822 H 0.88086 0.79463 0.24805 0.0
H1823 H 0.87347 0.75989 0.24882 0.0
C1824 C 0.87824 0.85177 0.21097 0.0
C1825 C 0.88988 0.85993 0.17743 0.0
C1826 C 0.87388 0.8318 0.21095 0.0
C1827 C 0.88094 0.8195 0.1772 0.0
C1828 C 0.89252 0.82767 0.14358 0.0
C1829 C 0.89697 0.84761 0.14373 0.0
C1830 C 0.8675 0.76826 0.13825 0.0
C1831 C 0.8683 0.75761 0.17802 0.0
C1832 C 0.87162 0.78831 0.13789 0.0
C1833 C 0.87644 0.7982 0.17736 0.0
C1834 C 0.87705 0.78755 0.21712 0.0
C1835 C 0.87305 0.76754 0.21744 0.0
H1836 H 0.50563 0.58926 0.43417 0.0
H1837 H 0.5172 0.64886 0.39677 0.0
H1838 H 0.47081 0.59612 0.43612 0.0
H1839 H 0.48228 0.65567 0.3961 0.0
H1840 H 0.42046 0.66796 0.44198 0.0
H1841 H 0.45534 0.66087 0.44064 0.0
H1842 H 0.44273 0.60209 0.39643 0.0
H1843 H 0.40798 0.6091 0.40029 0.0
C1844 C 0.50062 0.60375 0.42535 0.0
C1845 C 0.51408 0.61851 0.41513 0.0
C1846 C 0.48061 0.60772 0.42634 0.0
C1847 C 0.47349 0.62652 0.41635 0.0
C1848 C 0.48707 0.64114 0.40501 0.0
C1849 C 0.50711 0.63723 0.40489 0.0
C1850 C 0.42526 0.65352 0.4323 0.0
C1851 C 0.41155 0.63904 0.42169 0.0
C1852 C 0.44527 0.64944 0.43107 0.0
C1853 C 0.45209 0.63086 0.41826 0.0
C1854 C 0.43822 0.61643 0.40742 0.0
C1855 C 0.41823 0.62043 0.40951 0.0
H1856 H 0.35858 0.15801 0.15947 0.0
H1857 H 0.41781 0.1712 0.1969 0.0
H1858 H 0.35141 0.19269 0.15369 0.0
H1859 H 0.41057 0.20606 0.19353 0.0
H1860 H 0.39786 0.26727 0.1456 0.0
H1861 H 0.40475 0.23233 0.14706 0.0
H1862 H 0.34585 0.22132 0.19193 0.0
H1863 H 0.33887 0.2561 0.18798 0.0
C1864 C 0.36996 0.16841 0.16738 0.0
C1865 C 0.38872 0.16193 0.17893 0.0
C1866 C 0.36587 0.18836 0.16415 0.0
C1867 C 0.38036 0.20242 0.17315 0.0
C1868 C 0.39909 0.19582 0.18537 0.0
C1869 C 0.40325 0.17584 0.18777 0.0
C1870 C 0.38638 0.25727 0.15524 0.0
C1871 C 0.3678 0.26436 0.16629 0.0
C1872 C 0.39035 0.23723 0.15659 0.0
C1873 C 0.37593 0.22379 0.16993 0.0
C1874 C 0.35727 0.23101 0.18065 0.0
C1875 C 0.35323 0.25101 0.17849 0.0
H1876 H 0.60075 0.65838 0.86782 0.0
H1877 H 0.60764 0.62395 0.98661 0.0
H1878 H 0.56597 0.65128 0.86734 0.0
H1879 H 0.57285 0.61631 0.98534 0.0
H1880 H 0.50679 0.62479 0.99617 0.0
H1881 H 0.5415 0.63215 0.99655 0.0
H1882 H 0.54344 0.62407 0.85462 0.0
H1883 H 0.5084 0.61726 0.85406 0.0
C1884 C 0.59485 0.64944 0.89412 0.0
C1885 C 0.60703 0.64188 0.92756 0.0
C1886 C 0.57491 0.64512 0.89342 0.0
C1887 C 0.56658 0.63318 0.92621 0.0
C1888 C 0.57873 0.62571 0.95979 0.0
C1889 C 0.5987 0.62996 0.96037 0.0
C1890 C 0.51453 0.62481 0.9649 0.0
C1891 C 0.50473 0.62065 0.92497 0.0
C1892 C 0.53452 0.62878 0.96523 0.0
C1893 C 0.5453 0.62872 0.92564 0.0
C1894 C 0.53554 0.62446 0.88567 0.0
C1895 C 0.5155 0.62039 0.88536 0.0
H1896 H 0.11404 0.85168 0.61989 0.0
H1897 H 0.14985 0.86017 0.73612 0.0
H1898 H 0.12153 0.81694 0.62072 0.0
H1899 H 0.15776 0.82536 0.73635 0.0
H1900 H 0.14915 0.75904 0.75051 0.0
H1901 H 0.14166 0.79379 0.74978 0.0
H1902 H 0.14942 0.79486 0.60777 0.0
H1903 H 0.15652 0.75985 0.60838 0.0
C1904 C 0.12336 0.84612 0.64592 0.0
C1905 C 0.1312 0.85871 0.67827 0.0
C1906 C 0.12789 0.82622 0.64598 0.0
C1907 C 0.14027 0.81836 0.67852 0.0
C1908 C 0.14803 0.83091 0.71103 0.0
C1909 C 0.14361 0.85087 0.71077 0.0
C1910 C 0.14907 0.76662 0.71903 0.0
C1911 C 0.15324 0.75661 0.6794 0.0
C1912 C 0.145 0.78661 0.71871 0.0
C1913 C 0.14493 0.79712 0.67874 0.0
C1914 C 0.14917 0.78715 0.63908 0.0
C1915 C 0.15338 0.76713 0.63944 0.0
H1916 H 0.92137 0.35334 0.44964 0.0
H1917 H 0.91131 0.41173 0.40153 0.0
H1918 H 0.95668 0.35947 0.44957 0.0
H1919 H 0.9465 0.41777 0.4008 0.0
H1920 H 0.01182 0.40967 0.35816 0.0
H1921 H 0.97678 0.4032 0.35747 0.0
H1922 H 0.97972 0.38376 0.49317 0.0
H1923 H 0.01436 0.39118 0.49519 0.0
C1924 C 0.92675 0.36745 0.43911 0.0
C1925 C 0.91365 0.38211 0.42604 0.0
C1926 C 0.94687 0.37098 0.43912 0.0
C1927 C 0.95428 0.38908 0.42505 0.0
C1928 C 0.94118 0.40366 0.41154 0.0
C1929 C 0.92106 0.40027 0.41242 0.0
C1930 C 1.00505 0.40423 0.38809 0.0
C1931 C 0.01619 0.40089 0.42663 0.0
C1932 C 0.98497 0.40044 0.38754 0.0
C1933 C 0.9756 0.39288 0.4252 0.0
C1934 C 0.98664 0.38931 0.46348 0.0
C1935 C 1.0066 0.39345 0.46437 0.0
H1936 H 0.37108 0.75876 0.32877 0.0
H1937 H 0.36953 0.76017 0.47169 0.0
H1938 H 0.37821 0.79352 0.32711 0.0
H1939 H 0.37743 0.79496 0.47042 0.0
H1940 H 0.37461 0.8608 0.45348 0.0
H1941 H 0.36561 0.82636 0.45405 0.0
H1942 H 0.40276 0.81648 0.34048 0.0
H1943 H 0.4111 0.85105 0.33929 0.0
C1944 C 0.37255 0.76651 0.35992 0.0
C1945 C 0.36993 0.7567 0.40039 0.0
C1946 C 0.3767 0.78647 0.35902 0.0
C1947 C 0.37858 0.79719 0.39861 0.0
C1948 C 0.37584 0.78734 0.43917 0.0
C1949 C 0.37142 0.76737 0.44002 0.0
C1950 C 0.38077 0.85122 0.42859 0.0
C1951 C 0.39353 0.85863 0.3963 0.0
C1952 C 0.37572 0.83143 0.42904 0.0
C1953 C 0.3835 0.81846 0.39747 0.0
C1954 C 0.39616 0.82599 0.3649 0.0
C1955 C 0.401 0.84584 0.36416 0.0
H1956 H 0.01964 0.65091 0.16788 0.0
H1957 H 1.0062 0.58945 0.15915 0.0
H1958 H 0.98484 0.65855 0.16631 0.0
H1959 H 0.97139 0.59706 0.15837 0.0
H1960 H 0.91276 0.62027 0.10459 0.0
H1961 H 0.9475 0.61265 0.10732 0.0
H1962 H 0.95525 0.65483 0.21224 0.0
H1963 H 0.92069 0.66222 0.21027 0.0
C1964 C 1.00924 0.63903 0.16598 0.0
C1965 C 0.01568 0.61958 0.16381 0.0
C1966 C 0.9893 0.6434 0.1653 0.0
C1967 C 0.97534 0.62842 0.16202 0.0
C1968 C 0.98178 0.60894 0.16042 0.0
C1969 C 1.00172 0.60457 0.16148 0.0
C1970 C 0.92181 0.62787 0.12841 0.0
C1971 C 0.91372 0.64192 0.15705 0.0
C1972 C 0.94175 0.62347 0.13 0.0
C1973 C 0.95415 0.63312 0.16006 0.0
C1974 C 0.94616 0.64731 0.1883 0.0
C1975 C 0.92624 0.65161 0.18695 0.0
H1976 H 0.15466 0.2643 0.97314 0.0
H1977 H 0.14936 0.265 0.83048 0.0
H1978 H 0.14781 0.22925 0.97324 0.0
H1979 H 0.14195 0.23026 0.8307 0.0
H1980 H 0.1495 0.16405 0.84375 0.0
H1981 H 0.1574 0.19883 0.84433 0.0
H1982 H 0.12071 0.20682 0.95918 0.0
H1983 H 0.11334 0.1721 0.95942 0.0
C1984 C 0.15202 0.25699 0.94185 0.0
C1985 C 0.1524 0.26752 0.90188 0.0
C1986 C 0.14792 0.23695 0.94191 0.0
C1987 C 0.14427 0.22693 0.90196 0.0
C1988 C 0.14485 0.23744 0.86202 0.0
C1989 C 0.14885 0.25745 0.86198 0.0
C1990 C 0.14318 0.17323 0.86915 0.0
C1991 C 0.13067 0.16524 0.90127 0.0
C1992 C 0.14758 0.1932 0.86934 0.0
C1993 C 0.13969 0.20565 0.90182 0.0
C1994 C 0.1272 0.19765 0.93394 0.0
C1995 C 0.12273 0.17773 0.93365 0.0
H1996 H 0.60089 0.35609 0.63099 0.0
H1997 H 0.61313 0.41437 0.67711 0.0
H1998 H 0.566 0.36308 0.63245 0.0
H1999 H 0.57835 0.42126 0.6809 0.0
H2000 H 0.51536 0.43424 0.64382 0.0
H2001 H 0.55022 0.42758 0.64122 0.0
H2002 H 0.53911 0.36756 0.6779 0.0
H2003 H 0.50416 0.37419 0.67807 0.0
C2004 C 0.59604 0.37039 0.64162 0.0
C2005 C 0.6097 0.38472 0.65354 0.0
C2006 C 0.57602 0.3744 0.64291 0.0
C2007 C 0.56913 0.39276 0.65702 0.0
C2008 C 0.58294 0.40708 0.66897 0.0
C2009 C 0.60294 0.40316 0.66689 0.0
C2010 C 0.52045 0.41968 0.65177 0.0
C2011 C 0.50707 0.40475 0.66133 0.0
C2012 C 0.54048 0.41582 0.65039 0.0
C2013 C 0.54771 0.39697 0.65925 0.0
C2014 C 0.53423 0.38215 0.66986 0.0
C2015 C 0.51416 0.38595 0.67044 0.0
H2016 H 0.21833 0.23436 0.35776 0.0
H2017 H 0.24187 0.21024 0.2371 0.0
H2018 H 0.24033 0.26216 0.35174 0.0
H2019 H 0.26456 0.23758 0.23166 0.0
H2020 H 0.29053 0.29699 0.21018 0.0
H2021 H 0.26659 0.27113 0.21601 0.0
H2022 H 0.273 0.27152 0.35857 0.0
H2023 H 0.2958 0.29836 0.35305 0.0
C2024 C 0.2285 0.23488 0.33036 0.0
C2025 C 0.22852 0.22015 0.29799 0.0
C2026 C 0.24114 0.25079 0.32684 0.0
C2027 C 0.25428 0.25219 0.29118 0.0
C2028 C 0.25439 0.23726 0.25908 0.0
C2029 C 0.24153 0.2215 0.26229 0.0
C2030 C 0.28662 0.29192 0.24289 0.0
C2031 C 0.29536 0.29984 0.28113 0.0
C2032 C 0.27304 0.27678 0.24618 0.0
C2033 C 0.26797 0.269 0.28773 0.0
C2034 C 0.27636 0.2772 0.32598 0.0
C2035 C 0.28973 0.2925 0.32275 0.0
H2036 H 0.02971 0.95709 0.50581 0.0
H2037 H 0.06147 0.99604 0.59211 0.0
H2038 H 1.00266 0.97996 0.50333 0.0
H2039 H 0.03461 0.01942 0.58868 0.0
H2040 H 0.97565 0.0479 0.60918 0.0
H2041 H 1.00205 0.02447 0.6127 0.0
H2042 H 0.99319 1.01046 0.47443 0.0
H2043 H 0.96592 0.03289 0.4716 0.0
C2044 C 0.03102 0.97074 0.52364 0.0
C2045 C 0.04774 0.97488 0.54888 0.0
C2046 C 0.01551 0.98389 0.52222 0.0
C2047 C 0.01643 1.00162 0.54563 0.0
C2048 C 0.03325 1.00579 0.57078 0.0
C2049 C 0.04869 0.99248 0.57261 0.0
C2050 C 0.97903 0.03965 0.57963 0.0
C2051 C 0.9685 0.04244 0.54005 0.0
C2052 C 0.99446 0.02637 0.58151 0.0
C2053 C 0.99988 0.01563 0.5438 0.0
C2054 C 0.98931 0.01831 0.50431 0.0
C2055 C 0.97376 0.03143 0.50254 0.0
H2056 H 0.27913 0.81221 0.73895 0.0
H2057 H 0.30555 0.78766 0.85603 0.0
H2058 H 0.25733 0.7841 0.73362 0.0
H2059 H 0.28451 0.75913 0.84999 0.0
H2060 H 0.23001 0.72155 0.85449 0.0
H2061 H 0.2523 0.74884 0.85932 0.0
H2062 H 0.25601 0.75063 0.71633 0.0
H2063 H 0.23251 0.72429 0.71137 0.0
C2064 C 0.28027 0.80069 0.76336 0.0
C2065 C 0.29378 0.80213 0.79813 0.0
C2066 C 0.26795 0.78451 0.76019 0.0
C2067 C 0.26915 0.76926 0.79133 0.0
C2068 C 0.28286 0.77072 0.82593 0.0
C2069 C 0.29493 0.78705 0.82946 0.0
C2070 C 0.23539 0.72782 0.82398 0.0
C2071 C 0.22911 0.72076 0.78254 0.0
C2072 C 0.24846 0.74337 0.82678 0.0
C2073 C 0.25592 0.7521 0.78822 0.0
C2074 C 0.25027 0.74456 0.74676 0.0
C2075 C 0.23696 0.72916 0.74394 0.0
H2076 H 0.5537 0.98199 0.10244 0.0
H2077 H 0.5446 0.979 0.96084 0.0
H2078 H 0.52728 1.00564 0.1086 0.0
H2079 H 0.51837 1.0028 0.967 0.0
H2080 H 0.48629 0.06049 0.99264 0.0
H2081 H 0.51313 0.03755 0.98633 0.0
H2082 H 0.4912 1.00569 0.09921 0.0
H2083 H 0.46407 0.02857 0.10533 0.0
C2084 C 0.54608 0.98638 0.07265 0.0
C2085 C 0.55124 0.97856 1.03119 0.0
C2086 C 0.53094 0.99989 0.0762 0.0
C2087 C 0.5207 1.00595 1.03833 0.0
C2088 C 0.52614 0.99852 0.99672 0.0
C2089 C 0.54124 0.98495 0.99318 0.0
C2090 C 0.48695 0.04846 1.01578 0.0
C2091 C 0.47289 0.04633 0.04938 0.0
C2092 C 0.50241 0.03535 1.0122 0.0
C2093 C 0.50426 0.01985 0.04225 0.0
C2094 C 0.49027 0.01768 0.07592 0.0
C2095 C 0.47473 0.03077 0.07941 0.0
H2096 H 0.29384 0.72985 0.37018 0.0
H2097 H 0.28945 0.72138 0.22853 0.0
H2098 H 0.27005 0.75616 0.36579 0.0
H2099 H 0.26588 0.7479 0.22417 0.0
H2100 H 0.24167 0.81033 0.22903 0.0
H2101 H 0.26548 0.78403 0.23463 0.0
H2102 H 0.23494 0.76093 0.34813 0.0
H2103 H 0.211 0.78691 0.34228 0.0
C2104 C 0.28765 0.73339 0.33819 0.0
C2105 C 0.29359 0.72347 0.29968 0.0
C2106 C 0.27407 0.74854 0.33568 0.0
C2107 C 0.26622 0.75416 0.29459 0.0
C2108 C 0.27195 0.74411 0.25619 0.0
C2109 C 0.28544 0.7289 0.25872 0.0
C2110 C 0.23995 0.79961 0.25504 0.0
C2111 C 0.22436 0.80081 0.28515 0.0
C2112 C 0.2536 0.78454 0.25824 0.0
C2113 C 0.25202 0.77041 0.29176 0.0
C2114 C 0.23666 0.77175 0.32228 0.0
C2115 C 0.22296 0.78674 0.31896 0.0
H2116 H 0.46186 0.99222 0.48174 0.0
H2117 H 0.47967 0.96523 0.60467 0.0
H2118 H 0.48982 0.01415 0.48591 0.0
H2119 H 0.50753 0.98715 0.60887 0.0
H2120 H 0.54249 0.04455 0.62237 0.0
H2121 H 0.51521 0.02178 0.61983 0.0
H2122 H 0.52549 0.0123 0.48019 0.0
H2123 H 0.55281 0.0351 0.4828 0.0
C2124 C 0.47175 0.99093 0.50956 0.0
C2125 C 0.4685 0.97698 0.54285 0.0
C2126 C 0.48779 1.00345 0.51191 0.0
C2127 C 0.50093 1.00229 0.54762 0.0
C2128 C 0.49754 0.98854 0.58122 0.0
C2129 C 0.48151 0.97602 0.57886 0.0
C2130 C 0.53918 0.03733 0.59134 0.0
C2131 C 0.54979 0.04163 0.55273 0.0
C2132 C 0.52349 0.02434 0.58985 0.0
C2133 C 0.51811 0.01539 0.54972 0.0
C2134 C 0.52906 0.01928 0.5114 0.0
C2135 C 0.54473 0.03226 0.51291 0.0
H2136 H 0.29376 0.22845 0.71273 0.0
H2137 H 0.28673 0.21835 0.85314 0.0
H2138 H 0.27041 0.25517 0.71663 0.0
H2139 H 0.26347 0.24519 0.85707 0.0
H2140 H 0.24159 0.30857 0.8548 0.0
H2141 H 0.26409 0.28108 0.85023 0.0
H2142 H 0.23562 0.26154 0.73036 0.0
H2143 H 0.21308 0.28884 0.73502 0.0
C2144 C 0.28702 0.2317 0.74428 0.0
C2145 C 0.29215 0.22127 0.78267 0.0
C2146 C 0.27368 0.24708 0.74654 0.0
C2147 C 0.26522 0.25238 0.78723 0.0
C2148 C 0.27003 0.24169 0.8254 0.0
C2149 C 0.28332 0.22629 0.82312 0.0
C2150 C 0.24005 0.29836 0.82763 0.0
C2151 C 0.22554 0.30099 0.79524 0.0
C2152 C 0.25293 0.2826 0.82503 0.0
C2153 C 0.2516 0.26914 0.78995 0.0
C2154 C 0.23718 0.27182 0.75745 0.0
C2155 C 0.22429 0.28753 0.76009 0.0
H2156 H 0.04764 0.04951 0.10667 0.0
H2157 H 0.04875 0.03972 0.96489 0.0
H2158 H 0.02056 0.02722 0.11334 0.0
H2159 H 0.0226 0.01629 0.97231 0.0
H2160 H 0.96176 0.99186 0.99086 0.0
H2161 H 0.98888 0.01481 0.98502 0.0
H2162 H 0.01105 0.99451 0.11118 0.0
H2163 H 0.9834 0.97233 0.11747 0.0
C2164 C 0.0423 0.04262 0.07682 0.0
C2165 C 0.05042 0.0469 1.03508 0.0
C2166 C 0.02682 0.02951 0.08083 0.0
C2167 C 0.01921 0.01999 0.04335 0.0
C2168 C 0.02775 0.02368 1.00183 0.0
C2169 C 0.04306 0.03701 0.99769 0.0
C2170 C 0.97241 0.99253 1.01736 0.0
C2171 C 0.97047 0.98054 0.05472 0.0
C2172 C 0.98805 1.0055 1.01393 0.0
C2173 C 1.0023 1.00648 0.04749 0.0
C2174 C 1.00023 0.99446 0.08503 0.0
C2175 C 0.98439 0.98174 0.08874 0.0
H2176 H 0.71475 0.73129 0.73348 0.0
H2177 H 0.74314 0.71104 0.85289 0.0
H2178 H 0.73799 0.75793 0.72824 0.0
H2179 H 0.76636 0.73791 0.84772 0.0
H2180 H 0.78977 0.8005 0.85084 0.0
H2181 H 0.76641 0.77369 0.85495 0.0
H2182 H 0.77267 0.764 0.71415 0.0
H2183 H 0.796 0.79079 0.71012 0.0
C2184 C 0.72609 0.7323 0.75831 0.0
C2185 C 0.72705 0.71893 0.79363 0.0
C2186 C 0.7394 0.74766 0.75533 0.0
C2187 C 0.75396 0.75007 0.78763 0.0
C2188 C 0.75509 0.73661 0.82269 0.0
C2189 C 0.7418 0.7212 0.82563 0.0
C2190 C 0.78614 0.79263 0.82082 0.0
C2191 C 0.79469 0.79779 0.78018 0.0
C2192 C 0.77284 0.77724 0.82318 0.0
C2193 C 0.7678 0.76666 0.78492 0.0
C2194 C 0.77609 0.77203 0.74412 0.0
C2195 C 0.7894 0.78743 0.74177 0.0
H2196 H 0.73304 0.21777 0.35311 0.0
H2197 H 0.72998 0.2262 0.21139 0.0
H2198 H 0.75751 0.24353 0.35838 0.0
H2199 H 0.75442 0.25186 0.21662 0.0
H2200 H 0.81154 0.28475 0.23882 0.0
H2201 H 0.7888 0.25759 0.23404 0.0
H2202 H 0.75848 0.27916 0.34955 0.0
H2203 H 0.78126 0.30644 0.3543 0.0
C2204 C 0.73762 0.22509 0.32309 0.0
C2205 C 0.72951 0.21996 0.28189 0.0
C2206 C 0.75159 0.23987 0.32612 0.0
C2207 C 0.75778 0.24983 0.28797 0.0
C2208 C 0.7501 0.24432 0.24658 0.0
C2209 C 0.73612 0.22955 0.24356 0.0
C2210 C 0.79991 0.28387 0.26292 0.0
C2211 C 0.79816 0.29787 0.29681 0.0
C2212 C 0.78691 0.26824 0.26023 0.0
C2213 C 0.77185 0.26622 0.29139 0.0
C2214 C 0.77012 0.28015 0.32542 0.0
C2215 C 0.78314 0.29581 0.32811 0.0
H2216 H 0.7252 0.29658 0.8497 0.0
H2217 H 0.7321 0.29664 0.70722 0.0
H2218 H 0.74834 0.27012 0.85553 0.0
H2219 H 0.75645 0.27109 0.71346 0.0
H2220 H 0.78166 0.21015 0.73464 0.0
H2221 H 0.75888 0.23739 0.72799 0.0
H2222 H 0.78119 0.26152 0.85059 0.0
H2223 H 0.80321 0.23383 0.85777 0.0
C2224 C 0.7317 0.29109 0.81954 0.0
C2225 C 0.72643 0.29869 0.77791 0.0
C2226 C 0.74528 0.27602 0.82298 0.0
C2227 C 0.75427 0.26833 0.78496 0.0
C2228 C 0.74955 0.27637 0.74342 0.0
C2229 C 0.73574 0.2913 0.7399 0.0
C2230 C 0.78153 0.2213 0.76011 0.0
C2231 C 0.79394 0.21983 0.79692 0.0
C2232 C 0.76864 0.23699 0.75621 0.0
C2233 C 0.76816 0.25174 0.78873 0.0
C2234 C 0.78081 0.25028 0.82537 0.0
C2235 C 0.79344 0.23442 0.82957 0.0
H2236 H 0.71783 0.78785 0.3632 0.0
H2237 H 0.7394 0.81008 0.23896 0.0
H2238 H 0.7396 0.75987 0.35726 0.0
H2239 H 0.76197 0.78265 0.23358 0.0
H2240 H 0.78741 0.72305 0.21379 0.0
H2241 H 0.76366 0.749 0.21996 0.0
H2242 H 0.77212 0.75029 0.36193 0.0
H2243 H 0.79466 0.72336 0.35634 0.0
C2244 C 0.72758 0.78689 0.33505 0.0
C2245 C 0.72712 0.8011 0.30164 0.0
C2246 C 0.74006 0.77087 0.33156 0.0
C2247 C 0.7526 0.76892 0.29489 0.0
C2248 C 0.75226 0.78339 0.26181 0.0
C2249 C 0.73951 0.79921 0.26497 0.0
C2250 C 0.78405 0.72852 0.24649 0.0
C2251 C 0.79333 0.72104 0.2845 0.0
C2252 C 0.77055 0.74371 0.24994 0.0
C2253 C 0.76612 0.752 0.29138 0.0
C2254 C 0.775 0.74422 0.32944 0.0
C2255 C 0.78825 0.72886 0.32609 0.0
H2256 H 0.53628 0.46946 0.10754 0.0
H2257 H 0.55958 0.4925 0.98567 0.0
H2258 H 0.50836 0.49131 0.10159 0.0
H2259 H 0.53217 0.51507 0.98031 0.0
H2260 H 0.47259 0.54048 0.95918 0.0
H2261 H 0.4986 0.51675 0.96523 0.0
H2262 H 0.49879 0.52391 0.1076 0.0
H2263 H 0.47183 0.54643 0.10199 0.0
C2264 C 0.53555 0.47952 0.07992 0.0
C2265 C 0.55005 0.47943 0.04715 0.0
C2266 C 0.51958 0.49205 0.07642 0.0
C2267 C 0.51793 0.505 0.0404 0.0
C2268 C 0.53268 0.50504 1.00799 0.0
C2269 C 0.54848 0.49227 1.01116 0.0
C2270 C 0.47785 0.53682 0.99191 0.0
C2271 C 0.47004 0.54571 1.03005 0.0
C2272 C 0.49306 0.52334 0.99531 0.0
C2273 C 0.50104 0.51855 1.03686 0.0
C2274 C 0.49296 0.52707 0.07502 0.0
C2275 C 0.47759 0.54031 0.07169 0.0
H2276 H 0.03694 0.4659 0.47373 0.0
H2277 H 0.06104 0.48865 0.59534 0.0
H2278 H 1.00927 0.48797 0.48039 0.0
H2279 H 0.03379 0.51141 0.60147 0.0
H2280 H 0.97464 0.53829 0.62223 0.0
H2281 H 1.00013 0.51384 0.61654 0.0
H2282 H 1.00063 0.52086 0.47415 0.0
H2283 H 0.97423 0.54415 0.47954 0.0
C2284 C 0.03644 0.4759 0.50151 0.0
C2285 C 0.05115 0.47571 0.53388 0.0
C2286 C 0.02059 0.48857 0.5054 0.0
C2287 C 0.01925 0.50155 0.54146 0.0
C2288 C 0.0341 0.50138 0.57371 0.0
C2289 C 0.0498 0.48849 0.57011 0.0
C2290 C 0.97985 0.53437 0.58961 0.0
C2291 C 0.97236 0.54341 0.55136 0.0
C2292 C 0.99475 0.52051 0.58639 0.0
C2293 C 1.00265 0.51547 0.54491 0.0
C2294 C 0.99483 0.52418 0.50666 0.0
C2295 C 0.97981 0.53782 0.50982 0.0
H2296 H 0.97285 0.47166 0.1073 0.0
H2297 H 0.97021 0.48247 0.96609 0.0
H2298 H 0.99919 0.49497 0.11398 0.0
H2299 H 0.99554 0.50678 0.97353 0.0
H2300 H 0.05596 0.53225 0.99005 0.0
H2301 H 0.02935 0.50875 0.98495 0.0
H2302 H 1.00791 0.52811 0.11245 0.0
H2303 H 0.0351 0.55101 0.11793 0.0
C2304 C 0.9777 0.479 0.07761 0.0
C2305 C 0.9694 0.47473 1.03599 0.0
C2306 C 0.99273 0.49266 0.08163 0.0
C2307 C 0.9997 0.50268 0.04425 0.0
C2308 C 0.9909 0.49902 1.00293 0.0
C2309 C 0.97606 0.48518 0.99879 0.0
C2310 C 0.04556 0.53134 1.01697 0.0
C2311 C 0.04757 0.54332 0.05441 0.0
C2312 C 0.03022 0.51801 1.01398 0.0
C2313 C 0.01631 0.5166 0.0481 0.0
C2314 C 0.01847 0.52855 0.08581 0.0
C2315 C 0.03402 0.54167 0.08904 0.0
H2316 H 0.46287 0.49284 0.60237 0.0
H2317 H 0.48452 0.46371 0.48515 0.0
H2318 H 0.48937 0.51648 0.59716 0.0
H2319 H 0.51072 0.48745 0.47976 0.0
H2320 H 0.54161 0.54647 0.45942 0.0
H2321 H 0.51538 0.52263 0.46427 0.0
H2322 H 0.52554 0.51699 0.60496 0.0
H2323 H 0.552 0.54068 0.60012 0.0
C2324 C 0.47326 0.49141 0.5756 0.0
C2325 C 0.47147 0.47634 0.54416 0.0
C2326 C 0.48845 0.50496 0.57264 0.0
C2327 C 0.50212 0.50379 0.53807 0.0
C2328 C 0.50024 0.48888 0.50643 0.0
C2329 C 0.48514 0.47529 0.50948 0.0
C2330 C 0.53852 0.53994 0.49127 0.0
C2331 C 0.54897 0.5455 0.5294 0.0
C2332 C 0.52341 0.52633 0.49406 0.0
C2333 C 0.51835 0.51802 0.53503 0.0
C2334 C 0.52891 0.52339 0.57306 0.0
C2335 C 0.54408 0.53694 0.57025 0.0
H2336 H 0.23529 0.15582 0.42242 0.0
H2337 H 0.2037 0.1733 0.53953 0.0
H2338 H 0.26538 0.15434 0.4659 0.0
H2339 H 0.2336 0.1728 0.5823 0.0
H2340 H 0.28748 0.15669 0.66097 0.0
H2341 H 0.25753 0.15479 0.61726 0.0
H2342 H 0.28949 0.17246 0.50055 0.0
H2343 H 0.31934 0.17336 0.54368 0.0
C2344 C 0.23476 0.15943 0.45736 0.0
C2345 C 0.21697 0.1646 0.47729 0.0
C2346 C 0.25209 0.15873 0.48244 0.0
C2347 C 0.25219 0.16345 0.5281 0.0
C2348 C 0.23431 0.16863 0.54773 0.0
C2349 C 0.21703 0.16907 0.52289 0.0
C2350 C 0.2881 0.16003 0.62591 0.0
C2351 C 0.30592 0.16513 0.60604 0.0
C2352 C 0.27084 0.1591 0.60069 0.0
C2353 C 0.2708 0.16352 0.55491 0.0
C2354 C 0.28873 0.16855 0.53525 0.0
C2355 C 0.30596 0.16923 0.56028 0.0
H2356 H 0.11523 0.07031 0.79092 0.0
H2357 H 0.09901 0.03795 0.90781 0.0
H2358 H 0.11668 0.04021 0.7484 0.0
H2359 H 0.09966 1.0077 0.86484 0.0
H2360 H 0.11737 0.954 0.78682 0.0
H2361 H 0.11848 0.98417 0.82913 0.0
H2362 H 0.09821 0.01591 0.71422 0.0
H2363 H 0.09789 0.98561 0.67138 0.0
C2364 C 0.11192 0.05672 0.80762 0.0
C2365 C 0.10702 0.05663 0.85295 0.0
C2366 C 0.11258 0.03937 0.78298 0.0
C2367 C 0.10815 0.02127 0.80265 0.0
C2368 C 0.10347 0.02118 0.8483 0.0
C2369 C 0.10303 0.03858 0.87313 0.0
C2370 C 0.11328 0.96744 0.77039 0.0
C2371 C 0.10756 0.9673 0.72554 0.0
C2372 C 0.11374 0.98483 0.79493 0.0
C2373 C 0.10827 1.00272 0.77565 0.0
C2374 C 0.10281 1.0026 0.73043 0.0
C2375 C 0.10257 0.98517 0.70568 0.0
H2376 H 0.20273 0.84741 1.03899 0.0
H2377 H 0.23277 0.86557 0.15787 0.0
H2378 H 0.23293 0.84891 0.99775 0.0
H2379 H 0.26317 0.86806 0.11587 0.0
H2380 H 0.31825 0.85064 1.04023 0.0
H2381 H 0.28809 0.85077 0.0821 0.0
H2382 H 0.25656 0.86775 0.96411 0.0
H2383 H 0.28686 0.86661 0.92165 0.0
C2384 C 0.21578 0.852 0.05637 0.0
C2385 C 0.21519 0.85637 0.102 0.0
C2386 C 0.23323 0.85304 1.03238 0.0
C2387 C 0.25078 0.85872 0.05293 0.0
C2388 C 0.25015 0.86332 0.09865 0.0
C2389 C 0.23264 0.86203 0.12287 0.0
C2390 C 0.30491 0.85447 1.02307 0.0
C2391 C 0.30509 0.85857 0.97731 0.0
C2392 C 0.28749 0.8547 0.04738 0.0
C2393 C 0.26959 0.85927 1.02698 0.0
C2394 C 0.26985 0.86376 0.98122 0.0
C2395 C 0.28731 0.86327 0.95672 0.0
H2396 H 0.37912 0.96683 0.3389 0.0
H2397 H 0.43524 0.9789 0.39791 0.0
H2398 H 0.38313 0.9948 0.28948 0.0
H2399 H 0.43918 1.00694 0.3486 0.0
H2400 H 0.42651 0.0689 0.29493 0.0
H2401 H 0.42386 0.03954 0.33965 0.0
H2402 H 0.40335 1.00751 0.22555 0.0
H2403 H 0.40615 0.03717 0.18013 0.0
C2404 C 0.39234 0.97541 0.34136 0.0
C2405 C 0.40679 0.97059 0.37275 0.0
C2406 C 0.3947 0.9914 0.31269 0.0
C2407 C 0.41146 1.00322 0.31494 0.0
C2408 C 0.42599 0.9983 0.34611 0.0
C2409 C 0.42375 0.98216 0.37437 0.0
C2410 C 0.42146 0.05564 0.27906 0.0
C2411 C 0.41648 0.05553 0.23372 0.0
C2412 C 0.42008 0.0387 0.30484 0.0
C2413 C 0.41344 0.02106 0.28638 0.0
C2414 C 0.40841 0.02086 0.24099 0.0
C2415 C 0.41009 0.03784 0.21487 0.0
H2416 H 0.78815 0.86442 0.66108 0.0
H2417 H 0.81894 0.84774 0.5423 0.0
H2418 H 0.75788 0.86669 0.61855 0.0
H2419 H 0.78881 0.84898 0.50037 0.0
H2420 H 0.73448 0.86623 0.4243 0.0
H2421 H 0.76478 0.86743 0.46695 0.0
H2422 H 0.73346 0.84911 0.58405 0.0
H2423 H 0.70331 0.84893 0.54207 0.0
C2424 C 0.78846 0.86115 0.62596 0.0
C2425 C 0.80607 0.85596 0.60529 0.0
C2426 C 0.77103 0.8623 0.60142 0.0
C2427 C 0.77062 0.858 0.55557 0.0
C2428 C 0.78834 0.85283 0.53515 0.0
C2429 C 0.80574 0.85195 0.55949 0.0
C2430 C 0.73409 0.8626 0.45922 0.0
C2431 C 0.71637 0.85755 0.47958 0.0
C2432 C 0.75154 0.86313 0.48382 0.0
C2433 C 0.75185 0.85833 0.5294 0.0
C2434 C 0.73401 0.85332 0.54951 0.0
C2435 C 0.7166 0.85306 0.52513 0.0
H2436 H 0.93554 0.04368 0.39746 0.0
H2437 H 0.87863 0.05553 0.34233 0.0
H2438 H 0.93889 0.01563 0.34783 0.0
H2439 H 0.88207 0.02755 0.29255 0.0
H2440 H 0.90429 0.98537 0.18138 0.0
H2441 H 0.90168 0.01495 0.22722 0.0
H2442 H 0.92335 0.98295 0.34008 0.0
H2443 H 0.9258 0.95365 0.29495 0.0
C2444 C 0.92376 0.04038 0.37467 0.0
C2445 C 0.90676 0.05187 0.37424 0.0
C2446 C 0.92566 0.02423 0.34625 0.0
C2447 C 0.91074 0.01925 0.31611 0.0
C2448 C 0.89393 0.03101 0.31499 0.0
C2449 C 0.89191 0.047 0.34384 0.0
C2450 C 0.90848 0.98468 0.21596 0.0
C2451 C 0.91519 0.96703 0.23432 0.0
C2452 C 0.90693 1.00162 0.2423 0.0
C2453 C 0.91239 1.00141 0.28742 0.0
C2454 C 0.91924 0.98379 0.30545 0.0
C2455 C 0.9205 0.96689 0.27946 0.0
H2456 H 0.78687 0.15291 0.92624 0.0
H2457 H 0.81804 0.17559 1.0396 0.0
H2458 H 0.75708 0.15074 0.9714 0.0
H2459 H 0.78856 0.17362 0.08395 0.0
H2460 H 0.72764 0.18671 0.1383 0.0
H2461 H 0.75575 0.18947 0.08902 0.0
H2462 H 0.74439 0.13166 1.03837 0.0
H2463 H 0.71635 0.12877 0.08803 0.0
C2464 C 0.78739 0.15747 0.96061 0.0
C2465 C 0.80495 0.16435 0.97915 0.0
C2466 C 0.77034 0.15617 0.98655 0.0
C2467 C 0.77036 0.16209 1.03137 0.0
C2468 C 0.78788 0.16914 0.04954 0.0
C2469 C 0.80489 0.17013 1.02399 0.0
C2470 C 0.73108 0.17457 0.11672 0.0
C2471 C 0.71973 0.15745 0.11763 0.0
C2472 C 0.74726 0.17614 0.08843 0.0
C2473 C 0.75242 0.16076 0.05968 0.0
C2474 C 0.74079 0.14384 0.05976 0.0
C2475 C 0.72477 0.14215 0.08854 0.0
H2476 H 0.59805 0.06886 0.78876 0.0
H2477 H 0.61524 0.0377 0.67074 0.0
H2478 H 0.59889 0.03876 0.83089 0.0
H2479 H 0.61709 1.00749 0.71349 0.0
H2480 H 0.59823 0.95315 0.78916 0.0
H2481 H 0.59899 0.98329 0.74725 0.0
H2482 H 0.6169 0.01453 0.86505 0.0
H2483 H 0.61513 0.98425 0.9076 0.0
C2484 C 0.60231 0.05559 0.7718 0.0
C2485 C 0.60655 0.0558 0.72613 0.0
C2486 C 0.60294 0.03821 0.79626 0.0
C2487 C 0.60809 0.0204 0.77608 0.0
C2488 C 0.61269 0.0207 0.73041 0.0
C2489 C 0.61179 0.03811 0.70576 0.0
C2490 C 0.60239 0.96642 0.80627 0.0
C2491 C 0.6066 0.96617 0.85198 0.0
C2492 C 0.60299 0.98383 0.78194 0.0
C2493 C 0.60807 1.00164 0.80226 0.0
C2494 C 0.61257 1.00131 0.84801 0.0
C2495 C 0.61172 0.98387 0.87255 0.0
H2496 H 0.73376 0.65652 0.92188 0.0
H2497 H 0.70295 0.67348 0.04046 0.0
H2498 H 0.76418 0.65512 0.96419 0.0
H2499 H 0.73316 0.67305 0.08205 0.0
H2500 H 0.78782 0.65741 0.15829 0.0
H2501 H 0.75756 0.65514 0.11577 0.0
H2502 H 0.78831 0.67361 0.99802 0.0
H2503 H 0.81847 0.6749 1.03995 0.0
C2504 C 0.73346 0.66 0.9569 0.0
C2505 C 0.7158 0.66505 0.97757 0.0
C2506 C 0.75098 0.65936 0.98129 0.0
C2507 C 0.7514 0.66399 1.02699 0.0
C2508 C 0.73363 0.66897 0.0474 0.0
C2509 C 0.71617 0.66937 1.02323 0.0
C2510 C 0.78811 0.66085 0.12327 0.0
C2511 C 0.80567 0.6663 0.10274 0.0
C2512 C 0.77067 0.6597 0.09873 0.0
C2513 C 0.77021 0.66423 0.05302 0.0
C2514 C 0.78789 0.66961 1.0327 0.0
C2515 C 0.8053 0.67051 0.05704 0.0
H2516 H 0.59864 0.48687 0.17026 0.0
H2517 H 0.61605 0.45431 0.28606 0.0
H2518 H 0.59892 0.51692 0.21389 0.0
H2519 H 0.61712 0.48426 0.32925 0.0
H2520 H 0.59788 0.53831 0.40748 0.0
H2521 H 0.59837 0.50816 0.36415 0.0
H2522 H 0.61779 0.54053 0.24947 0.0
H2523 H 0.6165 0.57056 0.29228 0.0
C2524 C 0.60281 0.48615 0.20486 0.0
C2525 C 0.60728 0.46811 0.22453 0.0
C2526 C 0.60306 0.50344 0.23005 0.0
C2527 C 0.608 0.50324 0.27555 0.0
C2528 C 0.61283 0.48515 0.29477 0.0
C2529 C 0.61237 0.4679 0.26976 0.0
C2530 C 0.60239 0.53893 0.37312 0.0
C2531 C 0.6071 0.55692 0.35347 0.0
C2532 C 0.60274 0.52159 0.3481 0.0
C2533 C 0.60802 0.52169 0.30282 0.0
C2534 C 0.6132 0.53971 0.28373 0.0
C2535 C 0.61263 0.55701 0.30854 0.0
H2536 H 0.73484 0.3487 0.65564 0.0
H2537 H 0.70279 0.36546 0.53854 0.0
H2538 H 0.76508 0.34892 0.61288 0.0
H2539 H 0.73292 0.36641 0.49622 0.0
H2540 H 0.78759 0.34739 0.42011 0.0
H2541 H 0.75723 0.34742 0.46258 0.0
H2542 H 0.78855 0.36827 0.57768 0.0
H2543 H 0.81876 0.36754 0.53577 0.0
C2544 C 0.73426 0.35268 0.62093 0.0
C2545 C 0.7163 0.35702 0.60068 0.0
C2546 C 0.75166 0.35289 0.59625 0.0
C2547 C 0.75165 0.35763 0.55067 0.0
C2548 C 0.73366 0.36228 0.53081 0.0
C2549 C 0.7163 0.3619 0.55533 0.0
C2550 C 0.78793 0.35209 0.45439 0.0
C2551 C 0.80569 0.35742 0.4744 0.0
C2552 C 0.77047 0.35217 0.4789 0.0
C2553 C 0.77023 0.35776 0.52402 0.0
C2554 C 0.78801 0.36345 0.54352 0.0
C2555 C 0.80542 0.36319 0.51921 0.0
H2556 H 0.92574 0.45213 0.79018 0.0
H2557 H 0.90599 0.48203 0.90781 0.0
H2558 H 0.9248 0.48244 0.74904 0.0
H2559 H 0.90408 0.5125 0.8659 0.0
H2560 H 0.92261 0.56773 0.79245 0.0
H2561 H 0.92197 0.53743 0.83381 0.0
H2562 H 0.90641 0.50621 0.71429 0.0
H2563 H 0.90804 0.53666 0.67238 0.0
C2564 C 0.92092 0.46517 0.80727 0.0
C2565 C 0.91594 0.46453 0.85254 0.0
C2566 C 0.92022 0.48268 0.78335 0.0
C2567 C 0.91428 0.50021 0.80362 0.0
C2568 C 0.90905 0.49951 0.84894 0.0
C2569 C 0.91 0.48196 0.8731 0.0
C2570 C 0.91899 0.55443 0.77484 0.0
C2571 C 0.91541 0.55474 0.72885 0.0
C2572 C 0.91846 0.53693 0.79885 0.0
C2573 C 0.91411 0.51908 0.77788 0.0
C2574 C 0.91019 0.51946 0.73185 0.0
C2575 C 0.91096 0.537 0.70766 0.0
H2576 H 0.31983 0.36501 1.04036 0.0
H2577 H 0.28735 0.3494 0.15748 0.0
H2578 H 0.28975 0.36676 0.9979 0.0
H2579 H 0.25711 0.35035 0.11457 0.0
H2580 H 0.20375 0.36904 1.03624 0.0
H2581 H 0.23388 0.36956 0.07868 0.0
H2582 H 0.26524 0.34838 0.96412 0.0
H2583 H 0.235 0.34864 0.92115 0.0
C2584 C 0.30622 0.36189 0.05713 0.0
C2585 C 0.30609 0.35708 0.10249 0.0
C2586 C 0.28888 0.36272 1.03252 0.0
C2587 C 0.27077 0.35854 0.05229 0.0
C2588 C 0.27063 0.35395 0.09797 0.0
C2589 C 0.28802 0.35334 0.12276 0.0
C2590 C 0.21709 0.3646 1.01994 0.0
C2591 C 0.21688 0.35883 0.97512 0.0
C2592 C 0.23446 0.36473 0.04454 0.0
C2593 C 0.25223 0.35888 1.02535 0.0
C2594 C 0.25203 0.35329 0.98022 0.0
C2595 C 0.23463 0.35336 0.95541 0.0
H2596 H 0.40487 0.57004 0.78838 0.0
H2597 H 0.42207 0.53819 0.90537 0.0
H2598 H 0.40403 0.53983 0.74607 0.0
H2599 H 0.42203 0.50791 0.86264 0.0
H2600 H 0.40478 0.45375 0.78596 0.0
H2601 H 0.40334 0.48405 0.82769 0.0
H2602 H 0.42282 0.51569 0.71202 0.0
H2603 H 0.42348 0.48523 0.66975 0.0
C2604 C 0.40855 0.55656 0.80514 0.0
C2605 C 0.41351 0.55663 0.85046 0.0
C2606 C 0.40823 0.53915 0.78062 0.0
C2607 C 0.41307 0.52119 0.80044 0.0
C2608 C 0.41789 0.52128 0.84602 0.0
C2609 C 0.418 0.53871 0.87069 0.0
C2610 C 0.40864 0.46719 0.76925 0.0
C2611 C 0.41423 0.46698 0.72436 0.0
C2612 C 0.40798 0.48466 0.79344 0.0
C2613 C 0.41313 0.50256 0.77377 0.0
C2614 C 0.41847 0.50237 0.72851 0.0
C2615 C 0.41891 0.48485 0.7041 0.0
H2616 H 0.28705 0.65854 0.42074 0.0
H2617 H 0.31844 0.67485 0.53919 0.0
H2618 H 0.25688 0.65673 0.46352 0.0
H2619 H 0.28839 0.67405 0.5814 0.0
H2620 H 0.23408 0.65717 0.65786 0.0
H2621 H 0.26423 0.65574 0.61492 0.0
H2622 H 0.2328 0.67465 0.49832 0.0
H2623 H 0.20277 0.67507 0.5406 0.0
C2624 C 0.28751 0.66184 0.45584 0.0
C2625 C 0.30526 0.66678 0.47636 0.0
C2626 C 0.27013 0.66095 0.48052 0.0
C2627 C 0.26992 0.66526 0.52637 0.0
C2628 C 0.28777 0.6702 0.54662 0.0
C2629 C 0.30512 0.67082 0.52214 0.0
C2630 C 0.23362 0.66088 0.62298 0.0
C2631 C 0.2159 0.66617 0.60285 0.0
C2632 C 0.251 0.66022 0.59823 0.0
C2633 C 0.25123 0.66511 0.55271 0.0
C2634 C 0.2334 0.67037 0.53282 0.0
C2635 C 0.21606 0.67076 0.55736 0.0
H2636 H 0.11543 0.45181 0.29194 0.0
H2637 H 0.0995 0.48401 0.40942 0.0
H2638 H 0.11648 0.48195 0.24962 0.0
H2639 H 0.09977 0.51429 0.36664 0.0
H2640 H 0.11749 0.56802 0.28819 0.0
H2641 H 0.11856 0.53789 0.33061 0.0
H2642 H 0.09751 0.5061 0.21633 0.0
H2643 H 0.09722 0.5363 0.17341 0.0
C2644 C 0.11208 0.46537 0.3088 0.0
C2645 C 0.1074 0.46542 0.35423 0.0
C2646 C 0.11251 0.48273 0.28429 0.0
C2647 C 0.10806 0.50078 0.30422 0.0
C2648 C 0.10358 0.50084 0.34994 0.0
C2649 C 0.10335 0.48342 0.37463 0.0
C2650 C 0.11319 0.55459 0.27195 0.0
C2651 C 0.1073 0.55466 0.22722 0.0
C2652 C 0.11364 0.53723 0.29654 0.0
C2653 C 0.10801 0.51934 0.27739 0.0
C2654 C 0.10226 0.51942 0.23238 0.0
C2655 C 0.10201 0.5368 0.20761 0.0
loop_
_geom_bond_atom_site_label_1
_geom_bond_atom_site_label_2
_geom_bond_distance
_geom_bond_site_symmetry_2
_ccdc_geom_bond_type
C0 C1 1.351 . S
C0 N3 1.368 . S
C0 H5 0.931 . S
C1 C0 1.351 . S
C1 N2 1.373 . S
C1 H29 0.930 . S
N2 C1 1.373 . S
N2 C4 1.340 . S
N3 C0 1.368 . S
N3 C4 1.321 . S
N3 Co6 2.135 . S
C4 N2 1.340 . S
C4 N3 1.321 . S
C4 H28 0.930 . S
H5 C0 0.931 . S
Co6 N3 2.135 . S
Co6 N9 2.121 . S
Co6 O14 2.055 . S
Co6 O17 2.039 . S
Co6 N20 2.140 . S
C7 O8 1.227 . S
C7 O17 1.265 . S
O8 C7 1.227 . S
N9 Co6 2.121 . S
N9 C11 1.375 . S
N9 C12 1.313 . S
C10 C11 1.338 . S
C10 N13 1.377 . S
C10 H30 0.930 . S
C11 N9 1.375 . S
C11 C10 1.338 . S
C11 H15 0.931 . S
C12 N9 1.313 . S
C12 N13 1.344 . S
C12 H16 0.930 . S
N13 C10 1.377 . S
N13 C12 1.344 . S
O14 Co6 2.055 . S
O14 C18 1.253 . S
H15 C11 0.931 . S
H16 C12 0.930 . S
O17 Co6 2.039 . S
O17 C7 1.265 . S
C18 O14 1.253 . S
C18 O19 1.227 . S
O19 C18 1.227 . S
N20 Co6 2.140 . S
N20 C23 1.346 . S
N20 C24 1.345 . S
C21 C22 1.387 . S
C21 C25 1.391 . S
C22 C21 1.387 . S
C22 C23 1.369 . S
C22 H31 0.929 . S
C23 N20 1.346 . S
C23 C22 1.369 . S
C23 H26 0.928 . S
C24 N20 1.345 . S
C24 C25 1.371 . S
C24 H27 0.931 . S
C25 C21 1.391 . S
C25 C24 1.371 . S
C25 H32 0.930 . S
H26 C23 0.928 . S
H27 C24 0.931 . S
H28 C4 0.930 . S
H29 C1 0.930 . S
H30 C10 0.930 . S
H31 C22 0.929 . S
H32 C25 0.930 . S
C33 C34 1.351 . S
C33 N36 1.368 . S
C33 H38 0.931 . S
C34 C33 1.351 . S
C34 N35 1.373 . S
C34 H62 0.930 . S
N35 C34 1.373 . S
N35 C37 1.340 . S
N36 C33 1.368 . S
N36 C37 1.321 . S
N36 Co39 2.135 . S
C37 N35 1.340 . S
C37 N36 1.321 . S
C37 H61 0.930 . S
H38 C33 0.931 . S
Co39 N36 2.135 . S
Co39 N42 2.121 . S
Co39 O47 2.055 . S
Co39 O50 2.039 . S
Co39 N53 2.140 . S
C40 O41 1.227 . S
C40 O50 1.265 . S
O41 C40 1.227 . S
N42 Co39 2.121 . S
N42 C44 1.375 . S
N42 C45 1.313 . S
C43 C44 1.338 . S
C43 N46 1.377 . S
C43 H63 0.930 . S
C44 N42 1.375 . S
C44 C43 1.338 . S
C44 H48 0.931 . S
C45 N42 1.313 . S
C45 N46 1.344 . S
C45 H49 0.930 . S
N46 C43 1.377 . S
N46 C45 1.344 . S
O47 Co39 2.055 . S
O47 C51 1.253 . S
H48 C44 0.931 . S
H49 C45 0.930 . S
O50 Co39 2.039 . S
O50 C40 1.265 . S
C51 O47 1.253 . S
C51 O52 1.227 . S
O52 C51 1.227 . S
N53 Co39 2.140 . S
N53 C56 1.346 . S
N53 C57 1.345 . S
C54 C55 1.387 . S
C54 C58 1.391 . S
C55 C54 1.387 . S
C55 C56 1.369 . S
C55 H64 0.929 . S
C56 N53 1.346 . S
C56 C55 1.369 . S
C56 H59 0.928 . S
C57 N53 1.345 . S
C57 C58 1.371 . S
C57 H60 0.931 . S
C58 C54 1.391 . S
C58 C57 1.371 . S
C58 H65 0.930 . S
H59 C56 0.928 . S
H60 C57 0.931 . S
H61 C37 0.930 . S
H62 C34 0.930 . S
H63 C43 0.930 . S
H64 C55 0.929 . S
H65 C58 0.930 . S
C66 C67 1.351 . S
C66 N69 1.368 . S
C66 H71 0.931 . S
C67 C66 1.351 . S
C67 N68 1.373 . S
C67 H95 0.930 . S
N68 C67 1.373 . S
N68 C70 1.340 . S
N69 C66 1.368 . S
N69 C70 1.321 . S
N69 Co72 2.135 . S
C70 N68 1.340 . S
C70 N69 1.321 . S
C70 H94 0.930 . S
H71 C66 0.931 . S
Co72 N69 2.135 . S
Co72 N75 2.121 . S
Co72 O80 2.055 . S
Co72 O83 2.039 . S
Co72 N86 2.140 . S
C73 O74 1.227 . S
C73 O83 1.265 . S
O74 C73 1.227 . S
N75 Co72 2.121 . S
N75 C77 1.375 . S
N75 C78 1.313 . S
C76 C77 1.338 . S
C76 N79 1.377 . S
C76 H96 0.930 . S
C77 N75 1.375 . S
C77 C76 1.338 . S
C77 H81 0.931 . S
C78 N75 1.313 . S
C78 N79 1.344 . S
C78 H82 0.930 . S
N79 C76 1.377 . S
N79 C78 1.344 . S
O80 Co72 2.055 . S
O80 C84 1.253 . S
H81 C77 0.931 . S
H82 C78 0.930 . S
O83 Co72 2.039 . S
O83 C73 1.265 . S
C84 O80 1.253 . S
C84 O85 1.227 . S
O85 C84 1.227 . S
N86 Co72 2.140 . S
N86 C89 1.346 . S
N86 C90 1.345 . S
C87 C88 1.387 . S
C87 C91 1.391 . S
C88 C87 1.387 . S
C88 C89 1.369 . S
C88 H97 0.929 . S
C89 N86 1.346 . S
C89 C88 1.369 . S
C89 H92 0.928 . S
C90 N86 1.345 . S
C90 C91 1.371 . S
C90 H93 0.931 . S
C91 C87 1.391 . S
C91 C90 1.371 . S
C91 H98 0.930 . S
H92 C89 0.928 . S
H93 C90 0.931 . S
H94 C70 0.930 . S
H95 C67 0.930 . S
H96 C76 0.930 . S
H97 C88 0.929 . S
H98 C91 0.930 . S
C99 C100 1.345 1_554 S
C99 N102 1.387 . S
C99 H104 0.919 1_554 S
C100 C99 1.345 1_556 S
C100 N101 1.373 1_556 S
C100 H128 0.930 . S
N101 C100 1.373 1_554 S
N101 C103 1.340 . S
N102 C99 1.387 . S
N102 C103 1.321 . S
N102 Co105 2.135 . S
C103 N101 1.340 . S
C103 N102 1.321 . S
C103 H127 0.930 . S
H104 C99 0.919 1_556 S
Co105 N102 2.135 . S
Co105 N108 2.121 . S
Co105 O113 2.055 . S
Co105 O116 2.039 . S
Co105 N119 2.140 . S
C106 O107 1.227 . S
C106 O116 1.265 . S
O107 C106 1.227 . S
N108 Co105 2.121 . S
N108 C110 1.375 . S
N108 C111 1.313 . S
C109 C110 1.338 . S
C109 N112 1.377 . S
C109 H129 0.930 . S
C110 N108 1.375 . S
C110 C109 1.338 . S
C110 H114 0.931 . S
C111 N108 1.313 . S
C111 N112 1.344 . S
C111 H115 0.930 . S
N112 C109 1.377 . S
N112 C111 1.344 . S
O113 Co105 2.055 . S
O113 C117 1.253 . S
H114 C110 0.931 . S
H115 C111 0.930 . S
O116 Co105 2.039 . S
O116 C106 1.265 . S
C117 O113 1.253 . S
C117 O118 1.227 . S
O118 C117 1.227 . S
N119 Co105 2.140 . S
N119 C122 1.346 . S
N119 C123 1.345 . S
C120 C121 1.387 . S
C120 C124 1.391 . S
C121 C120 1.387 . S
C121 C122 1.369 . S
C121 H130 0.929 . S
C122 N119 1.346 . S
C122 C121 1.369 . S
C122 H125 0.928 . S
C123 N119 1.345 . S
C123 C124 1.371 . S
C123 H126 0.931 . S
C124 C120 1.391 . S
C124 C123 1.371 . S
C124 H131 0.930 . S
H125 C122 0.928 . S
H126 C123 0.931 . S
H127 C103 0.930 . S
H128 C100 0.930 . S
H129 C109 0.930 . S
H130 C121 0.929 . S
H131 C124 0.930 . S
C132 C133 1.351 . S
C132 N135 1.368 . S
C132 H137 0.931 . S
C133 C132 1.351 . S
C133 N134 1.373 . S
C133 H161 0.930 . S
N134 C133 1.373 . S
N134 C136 1.340 . S
N135 C132 1.368 . S
N135 C136 1.321 . S
N135 Co138 2.135 . S
C136 N134 1.340 . S
C136 N135 1.321 . S
C136 H160 0.930 . S
H137 C132 0.931 . S
Co138 N135 2.135 . S
Co138 N141 2.121 . S
Co138 O146 2.055 . S
Co138 O149 2.039 . S
Co138 N152 2.140 . S
C139 O140 1.227 . S
C139 O149 1.265 . S
O140 C139 1.227 . S
N141 Co138 2.121 . S
N141 C143 1.375 . S
N141 C144 1.313 . S
C142 C143 1.338 . S
C142 N145 1.377 . S
C142 H162 0.930 . S
C143 N141 1.375 . S
C143 C142 1.338 . S
C143 H147 0.931 . S
C144 N141 1.313 . S
C144 N145 1.344 . S
C144 H148 0.930 . S
N145 C142 1.377 . S
N145 C144 1.344 . S
O146 Co138 2.055 . S
O146 C150 1.253 . S
H147 C143 0.931 . S
H148 C144 0.930 . S
O149 Co138 2.039 . S
O149 C139 1.265 . S
C150 O146 1.253 . S
C150 O151 1.227 . S
O151 C150 1.227 . S
N152 Co138 2.140 . S
N152 C155 1.346 . S
N152 C156 1.345 . S
C153 C154 1.387 . S
C153 C157 1.391 . S
C154 C153 1.387 . S
C154 C155 1.369 . S
C154 H163 0.929 . S
C155 N152 1.346 . S
C155 C154 1.369 . S
C155 H158 0.928 . S
C156 N152 1.345 . S
C156 C157 1.371 . S
C156 H159 0.931 . S
C157 C153 1.391 . S
C157 C156 1.371 . S
C157 H164 0.930 . S
H158 C155 0.928 . S
H159 C156 0.931 . S
H160 C136 0.930 . S
H161 C133 0.930 . S
H162 C142 0.930 . S
H163 C154 0.929 . S
H164 C157 0.930 . S
C165 C166 1.351 . S
C165 N168 1.368 . S
C165 H170 0.931 . S
C166 C165 1.351 . S
C166 N167 1.373 . S
C166 H194 0.930 . S
N167 C166 1.373 . S
N167 C169 1.340 . S
N168 C165 1.368 . S
N168 C169 1.321 . S
N168 Co171 2.135 . S
C169 N167 1.340 . S
C169 N168 1.321 . S
C169 H193 0.930 . S
H170 C165 0.931 . S
Co171 N168 2.135 . S
Co171 N174 2.121 . S
Co171 O179 2.055 . S
Co171 O182 2.039 . S
Co171 N185 2.140 . S
C172 O173 1.227 . S
C172 O182 1.265 . S
O173 C172 1.227 . S
N174 Co171 2.121 . S
N174 C176 1.375 . S
N174 C177 1.313 . S
C175 C176 1.338 . S
C175 N178 1.377 . S
C175 H195 0.930 . S
C176 N174 1.375 . S
C176 C175 1.338 . S
C176 H180 0.931 . S
C177 N174 1.313 . S
C177 N178 1.344 . S
C177 H181 0.930 . S
N178 C175 1.377 . S
N178 C177 1.344 . S
O179 Co171 2.055 . S
O179 C183 1.253 . S
H180 C176 0.931 . S
H181 C177 0.930 . S
O182 Co171 2.039 . S
O182 C172 1.265 . S
C183 O179 1.253 . S
C183 O184 1.227 . S
O184 C183 1.227 . S
N185 Co171 2.140 . S
N185 C188 1.346 . S
N185 C189 1.345 . S
C186 C187 1.387 . S
C186 C190 1.391 . S
C187 C186 1.387 . S
C187 C188 1.369 . S
C187 H196 0.929 . S
C188 N185 1.346 . S
C188 C187 1.369 . S
C188 H191 0.928 . S
C189 N185 1.345 . S
C189 C190 1.371 . S
C189 H192 0.931 . S
C190 C186 1.391 . S
C190 C189 1.371 . S
C190 H197 0.930 . S
H191 C188 0.928 . S
H192 C189 0.931 . S
H193 C169 0.930 . S
H194 C166 0.930 . S
H195 C175 0.930 . S
H196 C187 0.929 . S
H197 C190 0.930 . S
C198 C199 1.351 . S
C198 N201 1.368 . S
C198 H203 0.931 . S
C199 C198 1.351 . S
C199 N200 1.373 . S
C199 H227 0.930 . S
N200 C199 1.373 . S
N200 C202 1.340 . S
N201 C198 1.368 . S
N201 C202 1.321 . S
N201 Co204 2.135 . S
C202 N200 1.340 . S
C202 N201 1.321 . S
C202 H226 0.930 . S
H203 C198 0.931 . S
Co204 N201 2.135 . S
Co204 N207 2.121 . S
Co204 O212 2.055 . S
Co204 O215 2.039 . S
Co204 N218 2.140 . S
C205 O206 1.227 . S
C205 O215 1.265 . S
O206 C205 1.227 . S
N207 Co204 2.121 . S
N207 C209 1.375 . S
N207 C210 1.313 . S
C208 C209 1.338 . S
C208 N211 1.377 . S
C208 H228 0.930 . S
C209 N207 1.375 . S
C209 C208 1.338 . S
C209 H213 0.931 . S
C210 N207 1.313 . S
C210 N211 1.344 . S
C210 H214 0.930 . S
N211 C208 1.377 . S
N211 C210 1.344 . S
O212 Co204 2.055 . S
O212 C216 1.253 . S
H213 C209 0.931 . S
H214 C210 0.930 . S
O215 Co204 2.039 . S
O215 C205 1.265 . S
C216 O212 1.253 . S
C216 O217 1.227 . S
O217 C216 1.227 . S
N218 Co204 2.140 . S
N218 C221 1.346 . S
N218 C222 1.345 . S
C219 C220 1.387 . S
C219 C223 1.391 . S
C220 C219 1.387 . S
C220 C221 1.369 . S
C220 H229 0.929 . S
C221 N218 1.346 . S
C221 C220 1.369 . S
C221 H224 0.928 . S
C222 N218 1.345 . S
C222 C223 1.371 . S
C222 H225 0.931 . S
C223 C219 1.391 . S
C223 C222 1.371 . S
C223 H230 0.930 . S
H224 C221 0.928 . S
H225 C222 0.931 . S
H226 C202 0.930 . S
H227 C199 0.930 . S
H228 C208 0.930 . S
H229 C220 0.929 . S
H230 C223 0.930 . S
C231 C232 1.345 1_556 S
C231 N234 1.387 . S
C231 H236 0.919 1_556 S
C232 C231 1.345 1_554 S
C232 N233 1.373 1_554 S
C232 H260 0.930 . S
N233 C232 1.373 1_556 S
N233 C235 1.340 . S
N234 C231 1.387 . S
N234 C235 1.321 . S
N234 Co237 2.135 . S
C235 N233 1.340 . S
C235 N234 1.321 . S
C235 H259 0.930 . S
H236 C231 0.919 1_554 S
Co237 N234 2.135 . S
Co237 N240 2.121 . S
Co237 O245 2.055 . S
Co237 O248 2.039 . S
Co237 N251 2.140 . S
C238 O239 1.227 . S
C238 O248 1.265 . S
O239 C238 1.227 . S
N240 Co237 2.121 . S
N240 C242 1.375 . S
N240 C243 1.313 . S
C241 C242 1.338 . S
C241 N244 1.377 . S
C241 H261 0.930 . S
C242 N240 1.375 . S
C242 C241 1.338 . S
C242 H246 0.931 . S
C243 N240 1.313 . S
C243 N244 1.344 . S
C243 H247 0.930 . S
N244 C241 1.377 . S
N244 C243 1.344 . S
O245 Co237 2.055 . S
O245 C249 1.253 . S
H246 C242 0.931 . S
H247 C243 0.930 . S
O248 Co237 2.039 . S
O248 C238 1.265 . S
C249 O245 1.253 . S
C249 O250 1.227 . S
O250 C249 1.227 . S
N251 Co237 2.140 . S
N251 C254 1.346 . S
N251 C255 1.345 . S
C252 C253 1.387 . S
C252 C256 1.391 . S
C253 C252 1.387 . S
C253 C254 1.369 . S
C253 H262 0.929 . S
C254 N251 1.346 . S
C254 C253 1.369 . S
C254 H257 0.928 . S
C255 N251 1.345 . S
C255 C256 1.371 . S
C255 H258 0.931 . S
C256 C252 1.391 . S
C256 C255 1.371 . S
C256 H263 0.930 . S
H257 C254 0.928 . S
H258 C255 0.931 . S
H259 C235 0.930 . S
H260 C232 0.930 . S
H261 C241 0.930 . S
H262 C253 0.929 . S
H263 C256 0.930 . S
C264 C265 1.351 . S
C264 N267 1.368 . S
C264 H269 0.931 . S
C265 C264 1.351 . S
C265 N266 1.373 . S
C265 H293 0.930 . S
N266 C265 1.373 . S
N266 C268 1.340 . S
N267 C264 1.368 . S
N267 C268 1.321 . S
N267 Co270 2.135 . S
C268 N266 1.340 . S
C268 N267 1.321 . S
C268 H292 0.930 . S
H269 C264 0.931 . S
Co270 N267 2.135 . S
Co270 N273 2.121 . S
Co270 O278 2.055 . S
Co270 O281 2.039 . S
Co270 N284 2.140 . S
C271 O272 1.227 . S
C271 O281 1.265 . S
O272 C271 1.227 . S
N273 Co270 2.121 . S
N273 C275 1.375 . S
N273 C276 1.313 . S
C274 C275 1.338 . S
C274 N277 1.377 . S
C274 H294 0.930 . S
C275 N273 1.375 . S
C275 C274 1.338 . S
C275 H279 0.931 . S
C276 N273 1.313 . S
C276 N277 1.344 . S
C276 H280 0.930 . S
N277 C274 1.377 . S
N277 C276 1.344 . S
O278 Co270 2.055 . S
O278 C282 1.253 . S
H279 C275 0.931 . S
H280 C276 0.930 . S
O281 Co270 2.039 . S
O281 C271 1.265 . S
C282 O278 1.253 . S
C282 O283 1.227 . S
O283 C282 1.227 . S
N284 Co270 2.140 . S
N284 C287 1.346 . S
N284 C288 1.345 . S
C285 C286 1.387 . S
C285 C289 1.391 . S
C286 C285 1.387 . S
C286 C287 1.369 . S
C286 H295 0.929 . S
C287 N284 1.346 . S
C287 C286 1.369 . S
C287 H290 0.928 . S
C288 N284 1.345 . S
C288 C289 1.371 . S
C288 H291 0.931 . S
C289 C285 1.391 . S
C289 C288 1.371 . S
C289 H296 0.930 . S
H290 C287 0.928 . S
H291 C288 0.931 . S
H292 C268 0.930 . S
H293 C265 0.930 . S
H294 C274 0.930 . S
H295 C286 0.929 . S
H296 C289 0.930 . S
C297 C298 1.351 . S
C297 N300 1.368 . S
C297 H302 0.931 . S
C298 C297 1.351 . S
C298 N299 1.373 . S
C298 H326 0.930 . S
N299 C298 1.373 . S
N299 C301 1.340 . S
N300 C297 1.368 . S
N300 C301 1.321 . S
N300 Co303 2.135 . S
C301 N299 1.340 . S
C301 N300 1.321 . S
C301 H325 0.930 . S
H302 C297 0.931 . S
Co303 N300 2.135 . S
Co303 N306 2.121 . S
Co303 O311 2.055 . S
Co303 O314 2.039 . S
Co303 N317 2.140 . S
C304 O305 1.227 . S
C304 O314 1.265 . S
O305 C304 1.227 . S
N306 Co303 2.121 . S
N306 C308 1.375 . S
N306 C309 1.313 . S
C307 C308 1.338 . S
C307 N310 1.377 . S
C307 H327 0.930 . S
C308 N306 1.375 . S
C308 C307 1.338 . S
C308 H312 0.931 . S
C309 N306 1.313 . S
C309 N310 1.344 . S
C309 H313 0.930 . S
N310 C307 1.377 . S
N310 C309 1.344 . S
O311 Co303 2.055 . S
O311 C315 1.253 . S
H312 C308 0.931 . S
H313 C309 0.930 . S
O314 Co303 2.039 . S
O314 C304 1.265 . S
C315 O311 1.253 . S
C315 O316 1.227 . S
O316 C315 1.227 . S
N317 Co303 2.140 . S
N317 C320 1.346 . S
N317 C321 1.345 . S
C318 C319 1.387 . S
C318 C322 1.391 . S
C319 C318 1.387 . S
C319 C320 1.369 . S
C319 H328 0.929 . S
C320 N317 1.346 . S
C320 C319 1.369 . S
C320 H323 0.928 . S
C321 N317 1.345 . S
C321 C322 1.371 . S
C321 H324 0.931 . S
C322 C318 1.391 . S
C322 C321 1.371 . S
C322 H329 0.930 . S
H323 C320 0.928 . S
H324 C321 0.931 . S
H325 C301 0.930 . S
H326 C298 0.930 . S
H327 C307 0.930 . S
H328 C319 0.929 . S
H329 C322 0.930 . S
C330 C331 1.351 . S
C330 N333 1.368 . S
C330 H335 0.931 . S
C331 C330 1.351 . S
C331 N332 1.373 . S
C331 H359 0.930 . S
N332 C331 1.373 . S
N332 C334 1.340 . S
N333 C330 1.368 . S
N333 C334 1.321 . S
N333 Co336 2.135 . S
C334 N332 1.340 . S
C334 N333 1.321 . S
C334 H358 0.930 . S
H335 C330 0.931 . S
Co336 N333 2.135 . S
Co336 N339 2.121 . S
Co336 O344 2.055 . S
Co336 O347 2.039 . S
Co336 N350 2.140 . S
C337 O338 1.227 . S
C337 O347 1.265 . S
O338 C337 1.227 . S
N339 Co336 2.121 . S
N339 C341 1.375 . S
N339 C342 1.313 . S
C340 C341 1.338 . S
C340 N343 1.377 . S
C340 H360 0.930 . S
C341 N339 1.375 . S
C341 C340 1.338 . S
C341 H345 0.931 . S
C342 N339 1.313 . S
C342 N343 1.344 . S
C342 H346 0.930 . S
N343 C340 1.377 . S
N343 C342 1.344 . S
O344 Co336 2.055 . S
O344 C348 1.253 . S
H345 C341 0.931 . S
H346 C342 0.930 . S
O347 Co336 2.039 . S
O347 C337 1.265 . S
C348 O344 1.253 . S
C348 O349 1.227 . S
O349 C348 1.227 . S
N350 Co336 2.140 . S
N350 C353 1.346 . S
N350 C354 1.345 . S
C351 C352 1.387 . S
C351 C355 1.391 . S
C352 C351 1.387 . S
C352 C353 1.369 . S
C352 H361 0.929 . S
C353 N350 1.346 . S
C353 C352 1.369 . S
C353 H356 0.928 . S
C354 N350 1.345 . S
C354 C355 1.371 . S
C354 H357 0.931 . S
C355 C351 1.391 . S
C355 C354 1.371 . S
C355 H362 0.930 . S
H356 C353 0.928 . S
H357 C354 0.931 . S
H358 C334 0.930 . S
H359 C331 0.930 . S
H360 C340 0.930 . S
H361 C352 0.929 . S
H362 C355 0.930 . S
C363 C364 1.345 1_556 S
C363 N366 1.387 . S
C363 H368 0.919 1_556 S
C364 C363 1.345 1_554 S
C364 N365 1.373 1_554 S
C364 H392 0.930 . S
N365 C364 1.373 1_556 S
N365 C367 1.340 . S
N366 C363 1.387 . S
N366 C367 1.321 . S
N366 Co369 2.135 . S
C367 N365 1.340 . S
C367 N366 1.321 . S
C367 H391 0.930 . S
H368 C363 0.919 1_554 S
Co369 N366 2.135 . S
Co369 N372 2.121 . S
Co369 O377 2.055 . S
Co369 O380 2.039 . S
Co369 N383 2.140 . S
C370 O371 1.227 . S
C370 O380 1.265 . S
O371 C370 1.227 . S
N372 Co369 2.121 . S
N372 C374 1.375 . S
N372 C375 1.313 . S
C373 C374 1.338 . S
C373 N376 1.377 . S
C373 H393 0.930 . S
C374 N372 1.375 . S
C374 C373 1.338 . S
C374 H378 0.931 . S
C375 N372 1.313 . S
C375 N376 1.344 . S
C375 H379 0.930 . S
N376 C373 1.377 . S
N376 C375 1.344 . S
O377 Co369 2.055 . S
O377 C381 1.253 . S
H378 C374 0.931 . S
H379 C375 0.930 . S
O380 Co369 2.039 . S
O380 C370 1.265 . S
C381 O377 1.253 . S
C381 O382 1.227 . S
O382 C381 1.227 . S
N383 Co369 2.140 . S
N383 C386 1.346 . S
N383 C387 1.345 . S
C384 C385 1.387 . S
C384 C388 1.391 . S
C385 C384 1.387 . S
C385 C386 1.369 . S
C385 H394 0.929 . S
C386 N383 1.346 . S
C386 C385 1.369 . S
C386 H389 0.928 . S
C387 N383 1.345 . S
C387 C388 1.371 . S
C387 H390 0.931 . S
C388 C384 1.391 . S
C388 C387 1.371 . S
C388 H395 0.930 . S
H389 C386 0.928 . S
H390 C387 0.931 . S
H391 C367 0.930 . S
H392 C364 0.930 . S
H393 C373 0.930 . S
H394 C385 0.929 . S
H395 C388 0.930 . S
C396 C397 1.351 . S
C396 N399 1.368 . S
C396 H401 0.931 . S
C397 C396 1.351 . S
C397 N398 1.373 . S
C397 H425 0.930 . S
N398 C397 1.373 . S
N398 C400 1.340 . S
N399 C396 1.368 . S
N399 C400 1.321 . S
N399 Co402 2.135 . S
C400 N398 1.340 . S
C400 N399 1.321 . S
C400 H424 0.930 . S
H401 C396 0.931 . S
Co402 N399 2.135 . S
Co402 N405 2.121 . S
Co402 O410 2.055 . S
Co402 O413 2.039 . S
Co402 N416 2.140 . S
C403 O404 1.227 . S
C403 O413 1.265 . S
O404 C403 1.227 . S
N405 Co402 2.121 . S
N405 C407 1.375 . S
N405 C408 1.313 . S
C406 C407 1.338 . S
C406 N409 1.377 . S
C406 H426 0.930 . S
C407 N405 1.375 . S
C407 C406 1.338 . S
C407 H411 0.931 . S
C408 N405 1.313 . S
C408 N409 1.344 . S
C408 H412 0.930 . S
N409 C406 1.377 . S
N409 C408 1.344 . S
O410 Co402 2.055 . S
O410 C414 1.253 . S
H411 C407 0.931 . S
H412 C408 0.930 . S
O413 Co402 2.039 . S
O413 C403 1.265 . S
C414 O410 1.253 . S
C414 O415 1.227 . S
O415 C414 1.227 . S
N416 Co402 2.140 . S
N416 C419 1.346 . S
N416 C420 1.345 . S
C417 C418 1.387 . S
C417 C421 1.391 . S
C418 C417 1.387 . S
C418 C419 1.369 . S
C418 H427 0.929 . S
C419 N416 1.346 . S
C419 C418 1.369 . S
C419 H422 0.928 . S
C420 N416 1.345 . S
C420 C421 1.371 . S
C420 H423 0.931 . S
C421 C417 1.391 . S
C421 C420 1.371 . S
C421 H428 0.930 . S
H422 C419 0.928 . S
H423 C420 0.931 . S
H424 C400 0.930 . S
H425 C397 0.930 . S
H426 C406 0.930 . S
H427 C418 0.929 . S
H428 C421 0.930 . S
C429 C430 1.351 . S
C429 N432 1.368 . S
C429 H434 0.931 . S
C430 C429 1.351 . S
C430 N431 1.373 . S
C430 H458 0.930 . S
N431 C430 1.373 . S
N431 C433 1.340 . S
N432 C429 1.368 . S
N432 C433 1.321 . S
N432 Co435 2.135 . S
C433 N431 1.340 . S
C433 N432 1.321 . S
C433 H457 0.930 . S
H434 C429 0.931 . S
Co435 N432 2.135 . S
Co435 N438 2.121 . S
Co435 O443 2.055 . S
Co435 O446 2.039 . S
Co435 N449 2.140 . S
C436 O437 1.227 . S
C436 O446 1.265 . S
O437 C436 1.227 . S
N438 Co435 2.121 . S
N438 C440 1.375 . S
N438 C441 1.313 . S
C439 C440 1.338 . S
C439 N442 1.377 . S
C439 H459 0.930 . S
C440 N438 1.375 . S
C440 C439 1.338 . S
C440 H444 0.931 . S
C441 N438 1.313 . S
C441 N442 1.344 . S
C441 H445 0.930 . S
N442 C439 1.377 . S
N442 C441 1.344 . S
O443 Co435 2.055 . S
O443 C447 1.253 . S
H444 C440 0.931 . S
H445 C441 0.930 . S
O446 Co435 2.039 . S
O446 C436 1.265 . S
C447 O443 1.253 . S
C447 O448 1.227 . S
O448 C447 1.227 . S
N449 Co435 2.140 . S
N449 C452 1.346 . S
N449 C453 1.345 . S
C450 C451 1.387 . S
C450 C454 1.391 . S
C451 C450 1.387 . S
C451 C452 1.369 . S
C451 H460 0.929 . S
C452 N449 1.346 . S
C452 C451 1.369 . S
C452 H455 0.928 . S
C453 N449 1.345 . S
C453 C454 1.371 . S
C453 H456 0.931 . S
C454 C450 1.391 . S
C454 C453 1.371 . S
C454 H461 0.930 . S
H455 C452 0.928 . S
H456 C453 0.931 . S
H457 C433 0.930 . S
H458 C430 0.930 . S
H459 C439 0.930 . S
H460 C451 0.929 . S
H461 C454 0.930 . S
C462 C463 1.351 . S
C462 N465 1.368 . S
C462 H467 0.931 . S
C463 C462 1.351 . S
C463 N464 1.373 . S
C463 H491 0.930 . S
N464 C463 1.373 . S
N464 C466 1.340 . S
N465 C462 1.368 . S
N465 C466 1.321 . S
N465 Co468 2.135 . S
C466 N464 1.340 . S
C466 N465 1.321 . S
C466 H490 0.930 . S
H467 C462 0.931 . S
Co468 N465 2.135 . S
Co468 N471 2.121 . S
Co468 O476 2.055 . S
Co468 O479 2.039 . S
Co468 N482 2.140 . S
C469 O470 1.227 . S
C469 O479 1.265 . S
O470 C469 1.227 . S
N471 Co468 2.121 . S
N471 C473 1.375 . S
N471 C474 1.313 . S
C472 C473 1.338 . S
C472 N475 1.377 . S
C472 H492 0.930 . S
C473 N471 1.375 . S
C473 C472 1.338 . S
C473 H477 0.931 . S
C474 N471 1.313 . S
C474 N475 1.344 . S
C474 H478 0.930 . S
N475 C472 1.377 . S
N475 C474 1.344 . S
O476 Co468 2.055 . S
O476 C480 1.253 . S
H477 C473 0.931 . S
H478 C474 0.930 . S
O479 Co468 2.039 . S
O479 C469 1.265 . S
C480 O476 1.253 . S
C480 O481 1.227 . S
O481 C480 1.227 . S
N482 Co468 2.140 . S
N482 C485 1.346 . S
N482 C486 1.345 . S
C483 C484 1.387 . S
C483 C487 1.391 . S
C484 C483 1.387 . S
C484 C485 1.369 . S
C484 H493 0.929 . S
C485 N482 1.346 . S
C485 C484 1.369 . S
C485 H488 0.928 . S
C486 N482 1.345 . S
C486 C487 1.371 . S
C486 H489 0.931 . S
C487 C483 1.391 . S
C487 C486 1.371 . S
C487 H494 0.930 . S
H488 C485 0.928 . S
H489 C486 0.931 . S
H490 C466 0.930 . S
H491 C463 0.930 . S
H492 C472 0.930 . S
H493 C484 0.929 . S
H494 C487 0.930 . S
C495 C496 1.345 1_554 S
C495 N498 1.387 . S
C495 H500 0.919 1_554 S
C496 C495 1.345 1_556 S
C496 N497 1.373 1_556 S
C496 H524 0.930 . S
N497 C496 1.373 1_554 S
N497 C499 1.340 . S
N498 C495 1.387 . S
N498 C499 1.321 . S
N498 Co501 2.135 . S
C499 N497 1.340 . S
C499 N498 1.321 . S
C499 H523 0.930 . S
H500 C495 0.919 1_556 S
Co501 N498 2.135 . S
Co501 N504 2.121 . S
Co501 O509 2.055 . S
Co501 O512 2.039 . S
Co501 N515 2.140 . S
C502 O503 1.227 . S
C502 O512 1.265 . S
O503 C502 1.227 . S
N504 Co501 2.121 . S
N504 C506 1.375 . S
N504 C507 1.313 . S
C505 C506 1.338 . S
C505 N508 1.377 . S
C505 H525 0.930 . S
C506 N504 1.375 . S
C506 C505 1.338 . S
C506 H510 0.931 . S
C507 N504 1.313 . S
C507 N508 1.344 . S
C507 H511 0.930 . S
N508 C505 1.377 . S
N508 C507 1.344 . S
O509 Co501 2.055 . S
O509 C513 1.253 . S
H510 C506 0.931 . S
H511 C507 0.930 . S
O512 Co501 2.039 . S
O512 C502 1.265 . S
C513 O509 1.253 . S
C513 O514 1.227 . S
O514 C513 1.227 . S
N515 Co501 2.140 . S
N515 C518 1.346 . S
N515 C519 1.345 . S
C516 C517 1.387 . S
C516 C520 1.391 . S
C517 C516 1.387 . S
C517 C518 1.369 . S
C517 H526 0.929 . S
C518 N515 1.346 . S
C518 C517 1.369 . S
C518 H521 0.928 . S
C519 N515 1.345 . S
C519 C520 1.371 . S
C519 H522 0.931 . S
C520 C516 1.391 . S
C520 C519 1.371 . S
C520 H527 0.930 . S
H521 C518 0.928 . S
H522 C519 0.931 . S
H523 C499 0.930 . S
H524 C496 0.930 . S
H525 C505 0.930 . S
H526 C517 0.929 . S
H527 C520 0.930 . S
C528 C529 1.351 . S
C528 N531 1.368 . S
C528 H533 0.931 . S
C529 C528 1.351 . S
C529 N530 1.373 . S
C529 H557 0.930 . S
N530 C529 1.373 . S
N530 C532 1.340 . S
N531 C528 1.368 . S
N531 C532 1.321 . S
N531 Co534 2.135 . S
C532 N530 1.340 . S
C532 N531 1.321 . S
C532 H556 0.930 . S
H533 C528 0.931 . S
Co534 N531 2.135 . S
Co534 N537 2.121 . S
Co534 O542 2.055 . S
Co534 O545 2.039 . S
Co534 N548 2.140 . S
C535 O536 1.227 . S
C535 O545 1.265 . S
O536 C535 1.227 . S
N537 Co534 2.121 . S
N537 C539 1.375 . S
N537 C540 1.313 . S
C538 C539 1.338 . S
C538 N541 1.377 . S
C538 H558 0.930 . S
C539 N537 1.375 . S
C539 C538 1.338 . S
C539 H543 0.931 . S
C540 N537 1.313 . S
C540 N541 1.344 . S
C540 H544 0.930 . S
N541 C538 1.377 . S
N541 C540 1.344 . S
O542 Co534 2.055 . S
O542 C546 1.253 . S
H543 C539 0.931 . S
H544 C540 0.930 . S
O545 Co534 2.039 . S
O545 C535 1.265 . S
C546 O542 1.253 . S
C546 O547 1.227 . S
O547 C546 1.227 . S
N548 Co534 2.140 . S
N548 C551 1.346 . S
N548 C552 1.345 . S
C549 C550 1.387 . S
C549 C553 1.391 . S
C550 C549 1.387 . S
C550 C551 1.369 . S
C550 H559 0.929 . S
C551 N548 1.346 . S
C551 C550 1.369 . S
C551 H554 0.928 . S
C552 N548 1.345 . S
C552 C553 1.371 . S
C552 H555 0.931 . S
C553 C549 1.391 . S
C553 C552 1.371 . S
C553 H560 0.930 . S
H554 C551 0.928 . S
H555 C552 0.931 . S
H556 C532 0.930 . S
H557 C529 0.930 . S
H558 C538 0.930 . S
H559 C550 0.929 . S
H560 C553 0.930 . S
C561 C562 1.345 1_554 S
C561 N564 1.387 . S
C561 H566 0.919 1_554 S
C562 C561 1.345 1_556 S
C562 N563 1.373 1_556 S
C562 H590 0.930 . S
N563 C562 1.373 1_554 S
N563 C565 1.340 . S
N564 C561 1.387 . S
N564 C565 1.321 . S
N564 Co567 2.135 . S
C565 N563 1.340 . S
C565 N564 1.321 . S
C565 H589 0.930 . S
H566 C561 0.919 1_556 S
Co567 N564 2.135 . S
Co567 N570 2.121 . S
Co567 O575 2.055 . S
Co567 O578 2.039 . S
Co567 N581 2.140 . S
C568 O569 1.227 . S
C568 O578 1.265 . S
O569 C568 1.227 . S
N570 Co567 2.121 . S
N570 C572 1.375 . S
N570 C573 1.313 . S
C571 C572 1.338 . S
C571 N574 1.377 . S
C571 H591 0.930 . S
C572 N570 1.375 . S
C572 C571 1.338 . S
C572 H576 0.931 . S
C573 N570 1.313 . S
C573 N574 1.344 . S
C573 H577 0.930 . S
N574 C571 1.377 . S
N574 C573 1.344 . S
O575 Co567 2.055 . S
O575 C579 1.253 . S
H576 C572 0.931 . S
H577 C573 0.930 . S
O578 Co567 2.039 . S
O578 C568 1.265 . S
C579 O575 1.253 . S
C579 O580 1.227 . S
O580 C579 1.227 . S
N581 Co567 2.140 . S
N581 C584 1.346 . S
N581 C585 1.345 . S
C582 C583 1.387 . S
C582 C586 1.391 . S
C583 C582 1.387 . S
C583 C584 1.369 . S
C583 H592 0.929 . S
C584 N581 1.346 . S
C584 C583 1.369 . S
C584 H587 0.928 . S
C585 N581 1.345 . S
C585 C586 1.371 . S
C585 H588 0.931 . S
C586 C582 1.391 . S
C586 C585 1.371 . S
C586 H593 0.930 . S
H587 C584 0.928 . S
H588 C585 0.931 . S
H589 C565 0.930 . S
H590 C562 0.930 . S
H591 C571 0.930 . S
H592 C583 0.929 . S
H593 C586 0.930 . S
C594 C595 1.351 . S
C594 N597 1.368 . S
C594 H599 0.931 . S
C595 C594 1.351 . S
C595 N596 1.373 . S
C595 H623 0.930 . S
N596 C595 1.373 . S
N596 C598 1.340 . S
N597 C594 1.368 . S
N597 C598 1.321 . S
N597 Co600 2.135 . S
C598 N596 1.340 . S
C598 N597 1.321 . S
C598 H622 0.930 . S
H599 C594 0.931 . S
Co600 N597 2.135 . S
Co600 N603 2.121 . S
Co600 O608 2.055 . S
Co600 O611 2.039 . S
Co600 N614 2.140 . S
C601 O602 1.227 . S
C601 O611 1.265 . S
O602 C601 1.227 . S
N603 Co600 2.121 . S
N603 C605 1.375 . S
N603 C606 1.313 . S
C604 C605 1.338 . S
C604 N607 1.377 . S
C604 H624 0.930 . S
C605 N603 1.375 . S
C605 C604 1.338 . S
C605 H609 0.931 . S
C606 N603 1.313 . S
C606 N607 1.344 . S
C606 H610 0.930 . S
N607 C604 1.377 . S
N607 C606 1.344 . S
O608 Co600 2.055 . S
O608 C612 1.253 . S
H609 C605 0.931 . S
H610 C606 0.930 . S
O611 Co600 2.039 . S
O611 C601 1.265 . S
C612 O608 1.253 . S
C612 O613 1.227 . S
O613 C612 1.227 . S
N614 Co600 2.140 . S
N614 C617 1.346 . S
N614 C618 1.345 . S
C615 C616 1.387 . S
C615 C619 1.391 . S
C616 C615 1.387 . S
C616 C617 1.369 . S
C616 H625 0.929 . S
C617 N614 1.346 . S
C617 C616 1.369 . S
C617 H620 0.928 . S
C618 N614 1.345 . S
C618 C619 1.371 . S
C618 H621 0.931 . S
C619 C615 1.391 . S
C619 C618 1.371 . S
C619 H626 0.930 . S
H620 C617 0.928 . S
H621 C618 0.931 . S
H622 C598 0.930 . S
H623 C595 0.930 . S
H624 C604 0.930 . S
H625 C616 0.929 . S
H626 C619 0.930 . S
C627 C628 1.351 . S
C627 N630 1.368 . S
C627 H632 0.931 . S
C628 C627 1.351 . S
C628 N629 1.373 . S
C628 H656 0.930 . S
N629 C628 1.373 . S
N629 C631 1.340 . S
N630 C627 1.368 . S
N630 C631 1.321 . S
N630 Co633 2.135 . S
C631 N629 1.340 . S
C631 N630 1.321 . S
C631 H655 0.930 . S
H632 C627 0.931 . S
Co633 N630 2.135 . S
Co633 N636 2.121 . S
Co633 O641 2.055 . S
Co633 O644 2.039 . S
Co633 N647 2.140 . S
C634 O635 1.227 . S
C634 O644 1.265 . S
O635 C634 1.227 . S
N636 Co633 2.121 . S
N636 C638 1.375 . S
N636 C639 1.313 . S
C637 C638 1.338 . S
C637 N640 1.377 . S
C637 H657 0.930 . S
C638 N636 1.375 . S
C638 C637 1.338 . S
C638 H642 0.931 . S
C639 N636 1.313 . S
C639 N640 1.344 . S
C639 H643 0.930 . S
N640 C637 1.377 . S
N640 C639 1.344 . S
O641 Co633 2.055 . S
O641 C645 1.253 . S
H642 C638 0.931 . S
H643 C639 0.930 . S
O644 Co633 2.039 . S
O644 C634 1.265 . S
C645 O641 1.253 . S
C645 O646 1.227 . S
O646 C645 1.227 . S
N647 Co633 2.140 . S
N647 C650 1.346 . S
N647 C651 1.345 . S
C648 C649 1.387 . S
C648 C652 1.391 . S
C649 C648 1.387 . S
C649 C650 1.369 . S
C649 H658 0.929 . S
C650 N647 1.346 . S
C650 C649 1.369 . S
C650 H653 0.928 . S
C651 N647 1.345 . S
C651 C652 1.371 . S
C651 H654 0.931 . S
C652 C648 1.391 . S
C652 C651 1.371 . S
C652 H659 0.930 . S
H653 C650 0.928 . S
H654 C651 0.931 . S
H655 C631 0.930 . S
H656 C628 0.930 . S
H657 C637 0.930 . S
H658 C649 0.929 . S
H659 C652 0.930 . S
C660 C661 1.351 . S
C660 N663 1.368 . S
C660 H665 0.931 . S
C661 C660 1.351 . S
C661 N662 1.373 . S
C661 H689 0.930 . S
N662 C661 1.373 . S
N662 C664 1.340 . S
N663 C660 1.368 . S
N663 C664 1.321 . S
N663 Co666 2.135 . S
C664 N662 1.340 . S
C664 N663 1.321 . S
C664 H688 0.930 . S
H665 C660 0.931 . S
Co666 N663 2.135 . S
Co666 N669 2.121 . S
Co666 O674 2.055 . S
Co666 O677 2.039 . S
Co666 N680 2.140 . S
C667 O668 1.227 . S
C667 O677 1.265 . S
O668 C667 1.227 . S
N669 Co666 2.121 . S
N669 C671 1.375 . S
N669 C672 1.313 . S
C670 C671 1.338 . S
C670 N673 1.377 . S
C670 H690 0.930 . S
C671 N669 1.375 . S
C671 C670 1.338 . S
C671 H675 0.931 . S
C672 N669 1.313 . S
C672 N673 1.344 . S
C672 H676 0.930 . S
N673 C670 1.377 . S
N673 C672 1.344 . S
O674 Co666 2.055 . S
O674 C678 1.253 . S
H675 C671 0.931 . S
H676 C672 0.930 . S
O677 Co666 2.039 . S
O677 C667 1.265 . S
C678 O674 1.253 . S
C678 O679 1.227 . S
O679 C678 1.227 . S
N680 Co666 2.140 . S
N680 C683 1.346 . S
N680 C684 1.345 . S
C681 C682 1.387 . S
C681 C685 1.391 . S
C682 C681 1.387 . S
C682 C683 1.369 . S
C682 H691 0.929 . S
C683 N680 1.346 . S
C683 C682 1.369 . S
C683 H686 0.928 . S
C684 N680 1.345 . S
C684 C685 1.371 . S
C684 H687 0.931 . S
C685 C681 1.391 . S
C685 C684 1.371 . S
C685 H692 0.930 . S
H686 C683 0.928 . S
H687 C684 0.931 . S
H688 C664 0.930 . S
H689 C661 0.930 . S
H690 C670 0.930 . S
H691 C682 0.929 . S
H692 C685 0.930 . S
C693 C694 1.345 1_556 S
C693 N696 1.387 . S
C693 H698 0.919 1_556 S
C694 C693 1.345 1_554 S
C694 N695 1.373 1_554 S
C694 H722 0.930 . S
N695 C694 1.373 1_556 S
N695 C697 1.340 . S
N696 C693 1.387 . S
N696 C697 1.321 . S
N696 Co699 2.135 . S
C697 N695 1.340 . S
C697 N696 1.321 . S
C697 H721 0.930 . S
H698 C693 0.919 1_554 S
Co699 N696 2.135 . S
Co699 N702 2.121 . S
Co699 O707 2.055 . S
Co699 O710 2.039 . S
Co699 N713 2.140 . S
C700 O701 1.227 . S
C700 O710 1.265 . S
O701 C700 1.227 . S
N702 Co699 2.121 . S
N702 C704 1.375 . S
N702 C705 1.313 . S
C703 C704 1.338 . S
C703 N706 1.377 . S
C703 H723 0.930 . S
C704 N702 1.375 . S
C704 C703 1.338 . S
C704 H708 0.931 . S
C705 N702 1.313 . S
C705 N706 1.344 . S
C705 H709 0.930 . S
N706 C703 1.377 . S
N706 C705 1.344 . S
O707 Co699 2.055 . S
O707 C711 1.253 . S
H708 C704 0.931 . S
H709 C705 0.930 . S
O710 Co699 2.039 . S
O710 C700 1.265 . S
C711 O707 1.253 . S
C711 O712 1.227 . S
O712 C711 1.227 . S
N713 Co699 2.140 . S
N713 C716 1.346 . S
N713 C717 1.345 . S
C714 C715 1.387 . S
C714 C718 1.391 . S
C715 C714 1.387 . S
C715 C716 1.369 . S
C715 H724 0.929 . S
C716 N713 1.346 . S
C716 C715 1.369 . S
C716 H719 0.928 . S
C717 N713 1.345 . S
C717 C718 1.371 . S
C717 H720 0.931 . S
C718 C714 1.391 . S
C718 C717 1.371 . S
C718 H725 0.930 . S
H719 C716 0.928 . S
H720 C717 0.931 . S
H721 C697 0.930 . S
H722 C694 0.930 . S
H723 C703 0.930 . S
H724 C715 0.929 . S
H725 C718 0.930 . S
C726 C727 1.351 . S
C726 N729 1.368 . S
C726 H731 0.931 . S
C727 C726 1.351 . S
C727 N728 1.373 . S
C727 H755 0.930 . S
N728 C727 1.373 . S
N728 C730 1.340 . S
N729 C726 1.368 . S
N729 C730 1.321 . S
N729 Co732 2.135 . S
C730 N728 1.340 . S
C730 N729 1.321 . S
C730 H754 0.930 . S
H731 C726 0.931 . S
Co732 N729 2.135 . S
Co732 N735 2.121 . S
Co732 O740 2.055 . S
Co732 O743 2.039 . S
Co732 N746 2.140 . S
C733 O734 1.227 . S
C733 O743 1.265 . S
O734 C733 1.227 . S
N735 Co732 2.121 . S
N735 C737 1.375 . S
N735 C738 1.313 . S
C736 C737 1.338 . S
C736 N739 1.377 . S
C736 H756 0.930 . S
C737 N735 1.375 . S
C737 C736 1.338 . S
C737 H741 0.931 . S
C738 N735 1.313 . S
C738 N739 1.344 . S
C738 H742 0.930 . S
N739 C736 1.377 . S
N739 C738 1.344 . S
O740 Co732 2.055 . S
O740 C744 1.253 . S
H741 C737 0.931 . S
H742 C738 0.930 . S
O743 Co732 2.039 . S
O743 C733 1.265 . S
C744 O740 1.253 . S
C744 O745 1.227 . S
O745 C744 1.227 . S
N746 Co732 2.140 . S
N746 C749 1.346 . S
N746 C750 1.345 . S
C747 C748 1.387 . S
C747 C751 1.391 . S
C748 C747 1.387 . S
C748 C749 1.369 . S
C748 H757 0.929 . S
C749 N746 1.346 . S
C749 C748 1.369 . S
C749 H752 0.928 . S
C750 N746 1.345 . S
C750 C751 1.371 . S
C750 H753 0.931 . S
C751 C747 1.391 . S
C751 C750 1.371 . S
C751 H758 0.930 . S
H752 C749 0.928 . S
H753 C750 0.931 . S
H754 C730 0.930 . S
H755 C727 0.930 . S
H756 C736 0.930 . S
H757 C748 0.929 . S
H758 C751 0.930 . S
C759 C760 1.351 . S
C759 N762 1.368 . S
C759 H764 0.931 . S
C760 C759 1.351 . S
C760 N761 1.373 . S
C760 H788 0.930 . S
N761 C760 1.373 . S
N761 C763 1.340 . S
N762 C759 1.368 . S
N762 C763 1.321 . S
N762 Co765 2.135 . S
C763 N761 1.340 . S
C763 N762 1.321 . S
C763 H787 0.930 . S
H764 C759 0.931 . S
Co765 N762 2.135 . S
Co765 N768 2.121 . S
Co765 O773 2.055 . S
Co765 O776 2.039 . S
Co765 N779 2.140 . S
C766 O767 1.227 . S
C766 O776 1.265 . S
O767 C766 1.227 . S
N768 Co765 2.121 . S
N768 C770 1.375 . S
N768 C771 1.313 . S
C769 C770 1.338 . S
C769 N772 1.377 . S
C769 H789 0.930 . S
C770 N768 1.375 . S
C770 C769 1.338 . S
C770 H774 0.931 . S
C771 N768 1.313 . S
C771 N772 1.344 . S
C771 H775 0.930 . S
N772 C769 1.377 . S
N772 C771 1.344 . S
O773 Co765 2.055 . S
O773 C777 1.253 . S
H774 C770 0.931 . S
H775 C771 0.930 . S
O776 Co765 2.039 . S
O776 C766 1.265 . S
C777 O773 1.253 . S
C777 O778 1.227 . S
O778 C777 1.227 . S
N779 Co765 2.140 . S
N779 C782 1.346 . S
N779 C783 1.345 . S
C780 C781 1.387 . S
C780 C784 1.391 . S
C781 C780 1.387 . S
C781 C782 1.369 . S
C781 H790 0.929 . S
C782 N779 1.346 . S
C782 C781 1.369 . S
C782 H785 0.928 . S
C783 N779 1.345 . S
C783 C784 1.371 . S
C783 H786 0.931 . S
C784 C780 1.391 . S
C784 C783 1.371 . S
C784 H791 0.930 . S
H785 C782 0.928 . S
H786 C783 0.931 . S
H787 C763 0.930 . S
H788 C760 0.930 . S
H789 C769 0.930 . S
H790 C781 0.929 . S
H791 C784 0.930 . S
C792 C793 1.351 . S
C792 N795 1.368 . S
C792 H797 0.931 . S
C793 C792 1.351 . S
C793 N794 1.373 . S
C793 H821 0.930 . S
N794 C793 1.373 . S
N794 C796 1.340 . S
N795 C792 1.368 . S
N795 C796 1.321 . S
N795 Co798 2.135 . S
C796 N794 1.340 . S
C796 N795 1.321 . S
C796 H820 0.930 . S
H797 C792 0.931 . S
Co798 N795 2.135 . S
Co798 N801 2.121 . S
Co798 O806 2.055 . S
Co798 O809 2.039 . S
Co798 N812 2.140 . S
C799 O800 1.227 . S
C799 O809 1.265 . S
O800 C799 1.227 . S
N801 Co798 2.121 . S
N801 C803 1.375 . S
N801 C804 1.313 . S
C802 C803 1.338 . S
C802 N805 1.377 . S
C802 H822 0.930 . S
C803 N801 1.375 . S
C803 C802 1.338 . S
C803 H807 0.931 . S
C804 N801 1.313 . S
C804 N805 1.344 . S
C804 H808 0.930 . S
N805 C802 1.377 . S
N805 C804 1.344 . S
O806 Co798 2.055 . S
O806 C810 1.253 . S
H807 C803 0.931 . S
H808 C804 0.930 . S
O809 Co798 2.039 . S
O809 C799 1.265 . S
C810 O806 1.253 . S
C810 O811 1.227 . S
O811 C810 1.227 . S
N812 Co798 2.140 . S
N812 C815 1.346 . S
N812 C816 1.345 . S
C813 C814 1.387 . S
C813 C817 1.391 . S
C814 C813 1.387 . S
C814 C815 1.369 . S
C814 H823 0.929 . S
C815 N812 1.346 . S
C815 C814 1.369 . S
C815 H818 0.928 . S
C816 N812 1.345 . S
C816 C817 1.371 . S
C816 H819 0.931 . S
C817 C813 1.391 . S
C817 C816 1.371 . S
C817 H824 0.930 . S
H818 C815 0.928 . S
H819 C816 0.931 . S
H820 C796 0.930 . S
H821 C793 0.930 . S
H822 C802 0.930 . S
H823 C814 0.929 . S
H824 C817 0.930 . S
C825 C826 1.345 1_556 S
C825 N828 1.387 . S
C825 H830 0.919 1_556 S
C826 C825 1.345 1_554 S
C826 N827 1.373 1_554 S
C826 H854 0.930 . S
N827 C826 1.373 1_556 S
N827 C829 1.340 . S
N828 C825 1.387 . S
N828 C829 1.321 . S
N828 Co831 2.135 . S
C829 N827 1.340 . S
C829 N828 1.321 . S
C829 H853 0.930 . S
H830 C825 0.919 1_554 S
Co831 N828 2.135 . S
Co831 N834 2.121 . S
Co831 O839 2.055 . S
Co831 O842 2.039 . S
Co831 N845 2.140 . S
C832 O833 1.227 . S
C832 O842 1.265 . S
O833 C832 1.227 . S
N834 Co831 2.121 . S
N834 C836 1.375 . S
N834 C837 1.313 . S
C835 C836 1.338 . S
C835 N838 1.377 . S
C835 H855 0.930 . S
C836 N834 1.375 . S
C836 C835 1.338 . S
C836 H840 0.931 . S
C837 N834 1.313 . S
C837 N838 1.344 . S
C837 H841 0.930 . S
N838 C835 1.377 . S
N838 C837 1.344 . S
O839 Co831 2.055 . S
O839 C843 1.253 . S
H840 C836 0.931 . S
H841 C837 0.930 . S
O842 Co831 2.039 . S
O842 C832 1.265 . S
C843 O839 1.253 . S
C843 O844 1.227 . S
O844 C843 1.227 . S
N845 Co831 2.140 . S
N845 C848 1.346 . S
N845 C849 1.345 . S
C846 C847 1.387 . S
C846 C850 1.391 . S
C847 C846 1.387 . S
C847 C848 1.369 . S
C847 H856 0.929 . S
C848 N845 1.346 . S
C848 C847 1.369 . S
C848 H851 0.928 . S
C849 N845 1.345 . S
C849 C850 1.371 . S
C849 H852 0.931 . S
C850 C846 1.391 . S
C850 C849 1.371 . S
C850 H857 0.930 . S
H851 C848 0.928 . S
H852 C849 0.931 . S
H853 C829 0.930 . S
H854 C826 0.930 . S
H855 C835 0.930 . S
H856 C847 0.929 . S
H857 C850 0.930 . S
C858 C859 1.351 . S
C858 N861 1.368 . S
C858 H863 0.931 . S
C859 C858 1.351 . S
C859 N860 1.373 . S
C859 H887 0.930 . S
N860 C859 1.373 . S
N860 C862 1.340 . S
N861 C858 1.368 . S
N861 C862 1.321 . S
N861 Co864 2.135 . S
C862 N860 1.340 . S
C862 N861 1.321 . S
C862 H886 0.930 . S
H863 C858 0.931 . S
Co864 N861 2.135 . S
Co864 N867 2.121 . S
Co864 O872 2.055 . S
Co864 O875 2.039 . S
Co864 N878 2.140 . S
C865 O866 1.227 . S
C865 O875 1.265 . S
O866 C865 1.227 . S
N867 Co864 2.121 . S
N867 C869 1.375 . S
N867 C870 1.313 . S
C868 C869 1.338 . S
C868 N871 1.377 . S
C868 H888 0.930 . S
C869 N867 1.375 . S
C869 C868 1.338 . S
C869 H873 0.931 . S
C870 N867 1.313 . S
C870 N871 1.344 . S
C870 H874 0.930 . S
N871 C868 1.377 . S
N871 C870 1.344 . S
O872 Co864 2.055 . S
O872 C876 1.253 . S
H873 C869 0.931 . S
H874 C870 0.930 . S
O875 Co864 2.039 . S
O875 C865 1.265 . S
C876 O872 1.253 . S
C876 O877 1.227 . S
O877 C876 1.227 . S
N878 Co864 2.140 . S
N878 C881 1.346 . S
N878 C882 1.345 . S
C879 C880 1.387 . S
C879 C883 1.391 . S
C880 C879 1.387 . S
C880 C881 1.369 . S
C880 H889 0.929 . S
C881 N878 1.346 . S
C881 C880 1.369 . S
C881 H884 0.928 . S
C882 N878 1.345 . S
C882 C883 1.371 . S
C882 H885 0.931 . S
C883 C879 1.391 . S
C883 C882 1.371 . S
C883 H890 0.930 . S
H884 C881 0.928 . S
H885 C882 0.931 . S
H886 C862 0.930 . S
H887 C859 0.930 . S
H888 C868 0.930 . S
H889 C880 0.929 . S
H890 C883 0.930 . S
C891 C892 1.351 . S
C891 N894 1.368 . S
C891 H896 0.931 . S
C892 C891 1.351 . S
C892 N893 1.373 . S
C892 H920 0.930 . S
N893 C892 1.373 . S
N893 C895 1.340 . S
N894 C891 1.368 . S
N894 C895 1.321 . S
N894 Co897 2.135 . S
C895 N893 1.340 . S
C895 N894 1.321 . S
C895 H919 0.930 . S
H896 C891 0.931 . S
Co897 N894 2.135 . S
Co897 N900 2.121 . S
Co897 O905 2.055 . S
Co897 O908 2.039 . S
Co897 N911 2.140 . S
C898 O899 1.227 . S
C898 O908 1.265 . S
O899 C898 1.227 . S
N900 Co897 2.121 . S
N900 C902 1.375 . S
N900 C903 1.313 . S
C901 C902 1.338 . S
C901 N904 1.377 . S
C901 H921 0.930 . S
C902 N900 1.375 . S
C902 C901 1.338 . S
C902 H906 0.931 . S
C903 N900 1.313 . S
C903 N904 1.344 . S
C903 H907 0.930 . S
N904 C901 1.377 . S
N904 C903 1.344 . S
O905 Co897 2.055 . S
O905 C909 1.253 . S
H906 C902 0.931 . S
H907 C903 0.930 . S
O908 Co897 2.039 . S
O908 C898 1.265 . S
C909 O905 1.253 . S
C909 O910 1.227 . S
O910 C909 1.227 . S
N911 Co897 2.140 . S
N911 C914 1.346 . S
N911 C915 1.345 . S
C912 C913 1.387 . S
C912 C916 1.391 . S
C913 C912 1.387 . S
C913 C914 1.369 . S
C913 H922 0.929 . S
C914 N911 1.346 . S
C914 C913 1.369 . S
C914 H917 0.928 . S
C915 N911 1.345 . S
C915 C916 1.371 . S
C915 H918 0.931 . S
C916 C912 1.391 . S
C916 C915 1.371 . S
C916 H923 0.930 . S
H917 C914 0.928 . S
H918 C915 0.931 . S
H919 C895 0.930 . S
H920 C892 0.930 . S
H921 C901 0.930 . S
H922 C913 0.929 . S
H923 C916 0.930 . S
C924 C925 1.351 . S
C924 N927 1.368 . S
C924 H929 0.931 . S
C925 C924 1.351 . S
C925 N926 1.373 . S
C925 H953 0.930 . S
N926 C925 1.373 . S
N926 C928 1.340 . S
N927 C924 1.368 . S
N927 C928 1.321 . S
N927 Co930 2.135 . S
C928 N926 1.340 . S
C928 N927 1.321 . S
C928 H952 0.930 . S
H929 C924 0.931 . S
Co930 N927 2.135 . S
Co930 N933 2.121 . S
Co930 O938 2.055 . S
Co930 O941 2.039 . S
Co930 N944 2.140 . S
C931 O932 1.227 . S
C931 O941 1.265 . S
O932 C931 1.227 . S
N933 Co930 2.121 . S
N933 C935 1.375 . S
N933 C936 1.313 . S
C934 C935 1.338 . S
C934 N937 1.377 . S
C934 H954 0.930 . S
C935 N933 1.375 . S
C935 C934 1.338 . S
C935 H939 0.931 . S
C936 N933 1.313 . S
C936 N937 1.344 . S
C936 H940 0.930 . S
N937 C934 1.377 . S
N937 C936 1.344 . S
O938 Co930 2.055 . S
O938 C942 1.253 . S
H939 C935 0.931 . S
H940 C936 0.930 . S
O941 Co930 2.039 . S
O941 C931 1.265 . S
C942 O938 1.253 . S
C942 O943 1.227 . S
O943 C942 1.227 . S
N944 Co930 2.140 . S
N944 C947 1.346 . S
N944 C948 1.345 . S
C945 C946 1.387 . S
C945 C949 1.391 . S
C946 C945 1.387 . S
C946 C947 1.369 . S
C946 H955 0.929 . S
C947 N944 1.346 . S
C947 C946 1.369 . S
C947 H950 0.928 . S
C948 N944 1.345 . S
C948 C949 1.371 . S
C948 H951 0.931 . S
C949 C945 1.391 . S
C949 C948 1.371 . S
C949 H956 0.930 . S
H950 C947 0.928 . S
H951 C948 0.931 . S
H952 C928 0.930 . S
H953 C925 0.930 . S
H954 C934 0.930 . S
H955 C946 0.929 . S
H956 C949 0.930 . S
C957 C958 1.345 1_554 S
C957 N960 1.387 . S
C957 H962 0.919 1_554 S
C958 C957 1.345 1_556 S
C958 N959 1.373 1_556 S
C958 H986 0.930 . S
N959 C958 1.373 1_554 S
N959 C961 1.340 . S
N960 C957 1.387 . S
N960 C961 1.321 . S
N960 Co963 2.135 . S
C961 N959 1.340 . S
C961 N960 1.321 . S
C961 H985 0.930 . S
H962 C957 0.919 1_556 S
Co963 N960 2.135 . S
Co963 N966 2.121 . S
Co963 O971 2.055 . S
Co963 O974 2.039 . S
Co963 N977 2.140 . S
C964 O965 1.227 . S
C964 O974 1.265 . S
O965 C964 1.227 . S
N966 Co963 2.121 . S
N966 C968 1.375 . S
N966 C969 1.313 . S
C967 C968 1.338 . S
C967 N970 1.377 . S
C967 H987 0.930 . S
C968 N966 1.375 . S
C968 C967 1.338 . S
C968 H972 0.931 . S
C969 N966 1.313 . S
C969 N970 1.344 . S
C969 H973 0.930 . S
N970 C967 1.377 . S
N970 C969 1.344 . S
O971 Co963 2.055 . S
O971 C975 1.253 . S
H972 C968 0.931 . S
H973 C969 0.930 . S
O974 Co963 2.039 . S
O974 C964 1.265 . S
C975 O971 1.253 . S
C975 O976 1.227 . S
O976 C975 1.227 . S
N977 Co963 2.140 . S
N977 C980 1.346 . S
N977 C981 1.345 . S
C978 C979 1.387 . S
C978 C982 1.391 . S
C979 C978 1.387 . S
C979 C980 1.369 . S
C979 H988 0.929 . S
C980 N977 1.346 . S
C980 C979 1.369 . S
C980 H983 0.928 . S
C981 N977 1.345 . S
C981 C982 1.371 . S
C981 H984 0.931 . S
C982 C978 1.391 . S
C982 C981 1.371 . S
C982 H989 0.930 . S
H983 C980 0.928 . S
H984 C981 0.931 . S
H985 C961 0.930 . S
H986 C958 0.930 . S
H987 C967 0.930 . S
H988 C979 0.929 . S
H989 C982 0.930 . S
C990 C991 1.351 . S
C990 N993 1.368 . S
C990 H995 0.931 . S
C991 C990 1.351 . S
C991 N992 1.373 . S
C991 H1019 0.930 . S
N992 C991 1.373 . S
N992 C994 1.340 . S
N993 C990 1.368 . S
N993 C994 1.321 . S
N993 Co996 2.135 . S
C994 N992 1.340 . S
C994 N993 1.321 . S
C994 H1018 0.930 . S
H995 C990 0.931 . S
Co996 N993 2.135 . S
Co996 N999 2.121 . S
Co996 O1004 2.055 . S
Co996 O1007 2.039 . S
Co996 N1010 2.140 . S
C997 O998 1.227 . S
C997 O1007 1.265 . S
O998 C997 1.227 . S
N999 Co996 2.121 . S
N999 C1001 1.375 . S
N999 C1002 1.313 . S
C1000 C1001 1.338 . S
C1000 N1003 1.377 . S
C1000 H1020 0.930 . S
C1001 N999 1.375 . S
C1001 C1000 1.338 . S
C1001 H1005 0.931 . S
C1002 N999 1.313 . S
C1002 N1003 1.344 . S
C1002 H1006 0.930 . S
N1003 C1000 1.377 . S
N1003 C1002 1.344 . S
O1004 Co996 2.055 . S
O1004 C1008 1.253 . S
H1005 C1001 0.931 . S
H1006 C1002 0.930 . S
O1007 Co996 2.039 . S
O1007 C997 1.265 . S
C1008 O1004 1.253 . S
C1008 O1009 1.227 . S
O1009 C1008 1.227 . S
N1010 Co996 2.140 . S
N1010 C1013 1.346 . S
N1010 C1014 1.345 . S
C1011 C1012 1.387 . S
C1011 C1015 1.391 . S
C1012 C1011 1.387 . S
C1012 C1013 1.369 . S
C1012 H1021 0.929 . S
C1013 N1010 1.346 . S
C1013 C1012 1.369 . S
C1013 H1016 0.928 . S
C1014 N1010 1.345 . S
C1014 C1015 1.371 . S
C1014 H1017 0.931 . S
C1015 C1011 1.391 . S
C1015 C1014 1.371 . S
C1015 H1022 0.930 . S
H1016 C1013 0.928 . S
H1017 C1014 0.931 . S
H1018 C994 0.930 . S
H1019 C991 0.930 . S
H1020 C1000 0.930 . S
H1021 C1012 0.929 . S
H1022 C1015 0.930 . S
C1023 C1024 1.351 . S
C1023 N1026 1.368 . S
C1023 H1028 0.931 . S
C1024 C1023 1.351 . S
C1024 N1025 1.373 . S
C1024 H1052 0.930 . S
N1025 C1024 1.373 . S
N1025 C1027 1.340 . S
N1026 C1023 1.368 . S
N1026 C1027 1.321 . S
N1026 Co1029 2.135 . S
C1027 N1025 1.340 . S
C1027 N1026 1.321 . S
C1027 H1051 0.930 . S
H1028 C1023 0.931 . S
Co1029 N1026 2.135 . S
Co1029 N1032 2.121 . S
Co1029 O1037 2.055 . S
Co1029 O1040 2.039 . S
Co1029 N1043 2.140 . S
C1030 O1031 1.227 . S
C1030 O1040 1.265 . S
O1031 C1030 1.227 . S
N1032 Co1029 2.121 . S
N1032 C1034 1.375 . S
N1032 C1035 1.313 . S
C1033 C1034 1.338 . S
C1033 N1036 1.377 . S
C1033 H1053 0.930 . S
C1034 N1032 1.375 . S
C1034 C1033 1.338 . S
C1034 H1038 0.931 . S
C1035 N1032 1.313 . S
C1035 N1036 1.344 . S
C1035 H1039 0.930 . S
N1036 C1033 1.377 . S
N1036 C1035 1.344 . S
O1037 Co1029 2.055 . S
O1037 C1041 1.253 . S
H1038 C1034 0.931 . S
H1039 C1035 0.930 . S
O1040 Co1029 2.039 . S
O1040 C1030 1.265 . S
C1041 O1037 1.253 . S
C1041 O1042 1.227 . S
O1042 C1041 1.227 . S
N1043 Co1029 2.140 . S
N1043 C1046 1.346 . S
N1043 C1047 1.345 . S
C1044 C1045 1.387 . S
C1044 C1048 1.391 . S
C1045 C1044 1.387 . S
C1045 C1046 1.369 . S
C1045 H1054 0.929 . S
C1046 N1043 1.346 . S
C1046 C1045 1.369 . S
C1046 H1049 0.928 . S
C1047 N1043 1.345 . S
C1047 C1048 1.371 . S
C1047 H1050 0.931 . S
C1048 C1044 1.391 . S
C1048 C1047 1.371 . S
C1048 H1055 0.930 . S
H1049 C1046 0.928 . S
H1050 C1047 0.931 . S
H1051 C1027 0.930 . S
H1052 C1024 0.930 . S
H1053 C1033 0.930 . S
H1054 C1045 0.929 . S
H1055 C1048 0.930 . S
H1056 C1064 0.950 . S
H1057 C1069 0.950 . S
H1058 C1066 0.950 . S
H1059 C1068 0.950 . S
H1060 C1070 0.950 . S
H1061 C1072 0.950 . S
H1062 C1074 0.950 . S
H1063 C1075 0.950 . S
C1064 H1056 0.950 . S
C1064 C1065 1.386 . S
C1064 C1066 1.391 . S
C1065 C1064 1.386 . S
C1065 C1069 1.393 . S
C1066 H1058 0.950 . S
C1066 C1064 1.391 . S
C1066 C1067 1.400 . S
C1067 C1066 1.400 . S
C1067 C1068 1.398 . S
C1067 C1073 1.491 . S
C1068 H1059 0.950 . S
C1068 C1067 1.398 . S
C1068 C1069 1.391 . S
C1069 H1057 0.950 . S
C1069 C1065 1.393 . S
C1069 C1068 1.391 . S
C1070 H1060 0.950 . S
C1070 C1071 1.386 . S
C1070 C1072 1.391 . S
C1071 C1070 1.386 . S
C1071 C1075 1.393 . S
C1072 H1061 0.950 . S
C1072 C1070 1.391 . S
C1072 C1073 1.400 . S
C1073 C1067 1.491 . S
C1073 C1072 1.400 . S
C1073 C1074 1.398 . S
C1074 H1062 0.950 . S
C1074 C1073 1.398 . S
C1074 C1075 1.391 . S
C1075 H1063 0.950 . S
C1075 C1071 1.393 . S
C1075 C1074 1.391 . S
H1076 C1084 0.950 . S
H1077 C1089 0.950 . S
H1078 C1086 0.950 . S
H1079 C1088 0.950 . S
H1080 C1090 0.950 . S
H1081 C1092 0.950 . S
H1082 C1094 0.950 . S
H1083 C1095 0.950 . S
C1084 H1076 0.950 . S
C1084 C1085 1.386 . S
C1084 C1086 1.391 . S
C1085 C1084 1.386 . S
C1085 C1089 1.393 . S
C1086 H1078 0.950 . S
C1086 C1084 1.391 . S
C1086 C1087 1.400 . S
C1087 C1086 1.400 . S
C1087 C1088 1.398 . S
C1087 C1093 1.491 . S
C1088 H1079 0.950 . S
C1088 C1087 1.398 . S
C1088 C1089 1.391 . S
C1089 H1077 0.950 . S
C1089 C1085 1.393 . S
C1089 C1088 1.391 . S
C1090 H1080 0.950 . S
C1090 C1091 1.386 . S
C1090 C1092 1.391 . S
C1091 C1090 1.386 . S
C1091 C1095 1.393 . S
C1092 H1081 0.950 . S
C1092 C1090 1.391 . S
C1092 C1093 1.400 . S
C1093 C1087 1.491 . S
C1093 C1092 1.400 . S
C1093 C1094 1.398 . S
C1094 H1082 0.950 . S
C1094 C1093 1.398 . S
C1094 C1095 1.391 . S
C1095 H1083 0.950 . S
C1095 C1091 1.393 . S
C1095 C1094 1.391 . S
H1096 C1104 0.950 . S
H1097 C1109 0.950 . S
H1098 C1106 0.950 . S
H1099 C1108 0.950 . S
H1100 C1110 0.950 . S
H1101 C1112 0.950 . S
H1102 C1114 0.950 . S
H1103 C1115 0.950 . S
C1104 H1096 0.950 . S
C1104 C1105 1.386 . S
C1104 C1106 1.391 . S
C1105 C1104 1.386 . S
C1105 C1109 1.393 . S
C1106 H1098 0.950 . S
C1106 C1104 1.391 . S
C1106 C1107 1.400 . S
C1107 C1106 1.400 . S
C1107 C1108 1.398 . S
C1107 C1113 1.491 . S
C1108 H1099 0.950 . S
C1108 C1107 1.398 . S
C1108 C1109 1.391 . S
C1109 H1097 0.950 . S
C1109 C1105 1.393 . S
C1109 C1108 1.391 . S
C1110 H1100 0.950 . S
C1110 C1111 1.386 . S
C1110 C1112 1.391 . S
C1111 C1110 1.386 . S
C1111 C1115 1.393 . S
C1112 H1101 0.950 . S
C1112 C1110 1.391 . S
C1112 C1113 1.400 . S
C1113 C1107 1.491 . S
C1113 C1112 1.400 . S
C1113 C1114 1.398 . S
C1114 H1102 0.950 . S
C1114 C1113 1.398 . S
C1114 C1115 1.391 . S
C1115 H1103 0.950 . S
C1115 C1111 1.393 . S
C1115 C1114 1.391 . S
H1116 C1124 0.950 . S
H1117 C1129 0.950 . S
H1118 C1126 0.950 . S
H1119 C1128 0.950 . S
H1120 C1130 0.950 . S
H1121 C1132 0.950 . S
H1122 C1134 0.950 . S
H1123 C1135 0.950 . S
C1124 H1116 0.950 . S
C1124 C1125 1.386 . S
C1124 C1126 1.391 . S
C1125 C1124 1.386 . S
C1125 C1129 1.393 . S
C1126 H1118 0.950 . S
C1126 C1124 1.391 . S
C1126 C1127 1.400 . S
C1127 C1126 1.400 . S
C1127 C1128 1.398 . S
C1127 C1133 1.491 . S
C1128 H1119 0.950 . S
C1128 C1127 1.398 . S
C1128 C1129 1.391 . S
C1129 H1117 0.950 . S
C1129 C1125 1.393 . S
C1129 C1128 1.391 . S
C1130 H1120 0.950 . S
C1130 C1131 1.386 . S
C1130 C1132 1.391 . S
C1131 C1130 1.386 . S
C1131 C1135 1.393 . S
C1132 H1121 0.950 . S
C1132 C1130 1.391 . S
C1132 C1133 1.400 . S
C1133 C1127 1.491 . S
C1133 C1132 1.400 . S
C1133 C1134 1.398 . S
C1134 H1122 0.950 . S
C1134 C1133 1.398 . S
C1134 C1135 1.391 . S
C1135 H1123 0.950 . S
C1135 C1131 1.393 . S
C1135 C1134 1.391 . S
H1136 C1144 0.950 . S
H1137 C1149 0.950 . S
H1138 C1146 0.950 . S
H1139 C1148 0.950 . S
H1140 C1150 0.950 . S
H1141 C1152 0.950 . S
H1142 C1154 0.950 . S
H1143 C1155 0.950 . S
C1144 H1136 0.950 . S
C1144 C1145 1.386 . S
C1144 C1146 1.391 . S
C1145 C1144 1.386 . S
C1145 C1149 1.393 . S
C1146 H1138 0.950 . S
C1146 C1144 1.391 . S
C1146 C1147 1.400 . S
C1147 C1146 1.400 . S
C1147 C1148 1.398 . S
C1147 C1153 1.491 . S
C1148 H1139 0.950 . S
C1148 C1147 1.398 . S
C1148 C1149 1.391 . S
C1149 H1137 0.950 . S
C1149 C1145 1.393 . S
C1149 C1148 1.391 . S
C1150 H1140 0.950 . S
C1150 C1151 1.386 . S
C1150 C1152 1.391 . S
C1151 C1150 1.386 . S
C1151 C1155 1.393 . S
C1152 H1141 0.950 . S
C1152 C1150 1.391 . S
C1152 C1153 1.400 . S
C1153 C1147 1.491 . S
C1153 C1152 1.400 . S
C1153 C1154 1.398 . S
C1154 H1142 0.950 . S
C1154 C1153 1.398 . S
C1154 C1155 1.391 . S
C1155 H1143 0.950 . S
C1155 C1151 1.393 . S
C1155 C1154 1.391 . S
H1156 C1164 0.950 . S
H1157 C1169 0.950 . S
H1158 C1166 0.950 . S
H1159 C1168 0.950 . S
H1160 C1170 0.950 . S
H1161 C1172 0.950 . S
H1162 C1174 0.950 . S
H1163 C1175 0.950 . S
C1164 H1156 0.950 . S
C1164 C1165 1.386 . S
C1164 C1166 1.391 . S
C1165 C1164 1.386 . S
C1165 C1169 1.393 . S
C1166 H1158 0.950 . S
C1166 C1164 1.391 . S
C1166 C1167 1.400 . S
C1167 C1166 1.400 . S
C1167 C1168 1.398 . S
C1167 C1173 1.491 . S
C1168 H1159 0.950 . S
C1168 C1167 1.398 . S
C1168 C1169 1.391 . S
C1169 H1157 0.950 . S
C1169 C1165 1.393 . S
C1169 C1168 1.391 . S
C1170 H1160 0.950 . S
C1170 C1171 1.386 . S
C1170 C1172 1.391 . S
C1171 C1170 1.386 . S
C1171 C1175 1.393 . S
C1172 H1161 0.950 . S
C1172 C1170 1.391 . S
C1172 C1173 1.400 . S
C1173 C1167 1.491 . S
C1173 C1172 1.400 . S
C1173 C1174 1.398 . S
C1174 H1162 0.950 . S
C1174 C1173 1.398 . S
C1174 C1175 1.391 . S
C1175 H1163 0.950 . S
C1175 C1171 1.393 . S
C1175 C1174 1.391 . S
H1176 C1184 0.950 . S
H1177 C1189 0.950 . S
H1178 C1186 0.950 . S
H1179 C1188 0.950 . S
H1180 C1190 0.950 . S
H1181 C1192 0.950 . S
H1182 C1194 0.950 . S
H1183 C1195 0.950 . S
C1184 H1176 0.950 . S
C1184 C1185 1.386 . S
C1184 C1186 1.391 . S
C1185 C1184 1.386 . S
C1185 C1189 1.393 . S
C1186 H1178 0.950 . S
C1186 C1184 1.391 . S
C1186 C1187 1.400 . S
C1187 C1186 1.400 . S
C1187 C1188 1.398 . S
C1187 C1193 1.491 . S
C1188 H1179 0.950 . S
C1188 C1187 1.398 . S
C1188 C1189 1.391 . S
C1189 H1177 0.950 . S
C1189 C1185 1.393 . S
C1189 C1188 1.391 . S
C1190 H1180 0.950 . S
C1190 C1191 1.386 . S
C1190 C1192 1.391 . S
C1191 C1190 1.386 . S
C1191 C1195 1.393 . S
C1192 H1181 0.950 . S
C1192 C1190 1.391 . S
C1192 C1193 1.400 . S
C1193 C1187 1.491 . S
C1193 C1192 1.400 . S
C1193 C1194 1.398 . S
C1194 H1182 0.950 . S
C1194 C1193 1.398 . S
C1194 C1195 1.391 . S
C1195 H1183 0.950 . S
C1195 C1191 1.393 . S
C1195 C1194 1.391 . S
H1196 C1204 0.950 . S
H1197 C1209 0.950 . S
H1198 C1206 0.950 . S
H1199 C1208 0.950 . S
H1200 C1210 0.950 . S
H1201 C1212 0.950 . S
H1202 C1214 0.950 . S
H1203 C1215 0.950 . S
C1204 H1196 0.950 . S
C1204 C1205 1.386 . S
C1204 C1206 1.391 . S
C1205 C1204 1.386 . S
C1205 C1209 1.393 . S
C1206 H1198 0.950 . S
C1206 C1204 1.391 . S
C1206 C1207 1.400 . S
C1207 C1206 1.400 . S
C1207 C1208 1.398 . S
C1207 C1213 1.491 . S
C1208 H1199 0.950 . S
C1208 C1207 1.398 . S
C1208 C1209 1.391 . S
C1209 H1197 0.950 . S
C1209 C1205 1.393 . S
C1209 C1208 1.391 . S
C1210 H1200 0.950 . S
C1210 C1211 1.386 . S
C1210 C1212 1.391 . S
C1211 C1210 1.386 . S
C1211 C1215 1.393 . S
C1212 H1201 0.950 . S
C1212 C1210 1.391 . S
C1212 C1213 1.400 . S
C1213 C1207 1.491 . S
C1213 C1212 1.400 . S
C1213 C1214 1.398 . S
C1214 H1202 0.950 . S
C1214 C1213 1.398 . S
C1214 C1215 1.391 . S
C1215 H1203 0.950 . S
C1215 C1211 1.393 . S
C1215 C1214 1.391 . S
H1216 C1224 0.950 . S
H1217 C1229 0.950 . S
H1218 C1226 0.950 . S
H1219 C1228 0.950 . S
H1220 C1230 0.950 . S
H1221 C1232 0.950 . S
H1222 C1234 0.950 . S
H1223 C1235 0.950 . S
C1224 H1216 0.950 . S
C1224 C1225 1.386 . S
C1224 C1226 1.391 . S
C1225 C1224 1.386 . S
C1225 C1229 1.393 . S
C1226 H1218 0.950 . S
C1226 C1224 1.391 . S
C1226 C1227 1.400 . S
C1227 C1226 1.400 . S
C1227 C1228 1.398 . S
C1227 C1233 1.491 . S
C1228 H1219 0.950 . S
C1228 C1227 1.398 . S
C1228 C1229 1.391 . S
C1229 H1217 0.950 . S
C1229 C1225 1.393 . S
C1229 C1228 1.391 . S
C1230 H1220 0.950 . S
C1230 C1231 1.386 . S
C1230 C1232 1.391 . S
C1231 C1230 1.386 . S
C1231 C1235 1.393 . S
C1232 H1221 0.950 . S
C1232 C1230 1.391 . S
C1232 C1233 1.400 . S
C1233 C1227 1.491 . S
C1233 C1232 1.400 . S
C1233 C1234 1.398 . S
C1234 H1222 0.950 . S
C1234 C1233 1.398 . S
C1234 C1235 1.391 . S
C1235 H1223 0.950 . S
C1235 C1231 1.393 . S
C1235 C1234 1.391 . S
H1236 C1244 0.950 . S
H1237 C1249 0.950 . S
H1238 C1246 0.950 . S
H1239 C1248 0.950 . S
H1240 C1250 0.950 . S
H1241 C1252 0.950 . S
H1242 C1254 0.950 . S
H1243 C1255 0.950 . S
C1244 H1236 0.950 . S
C1244 C1245 1.386 . S
C1244 C1246 1.391 . S
C1245 C1244 1.386 . S
C1245 C1249 1.393 . S
C1246 H1238 0.950 . S
C1246 C1244 1.391 . S
C1246 C1247 1.400 . S
C1247 C1246 1.400 . S
C1247 C1248 1.398 . S
C1247 C1253 1.491 . S
C1248 H1239 0.950 . S
C1248 C1247 1.398 . S
C1248 C1249 1.391 . S
C1249 H1237 0.950 . S
C1249 C1245 1.393 . S
C1249 C1248 1.391 . S
C1250 H1240 0.950 . S
C1250 C1251 1.386 . S
C1250 C1252 1.391 . S
C1251 C1250 1.386 . S
C1251 C1255 1.393 . S
C1252 H1241 0.950 . S
C1252 C1250 1.391 . S
C1252 C1253 1.400 . S
C1253 C1247 1.491 . S
C1253 C1252 1.400 . S
C1253 C1254 1.398 . S
C1254 H1242 0.950 . S
C1254 C1253 1.398 . S
C1254 C1255 1.391 . S
C1255 H1243 0.950 . S
C1255 C1251 1.393 . S
C1255 C1254 1.391 . S
H1256 C1264 0.950 . S
H1257 C1269 0.950 . S
H1258 C1266 0.950 . S
H1259 C1268 0.950 . S
H1260 C1270 0.950 . S
H1261 C1272 0.950 . S
H1262 C1274 0.950 . S
H1263 C1275 0.950 . S
C1264 H1256 0.950 . S
C1264 C1265 1.386 . S
C1264 C1266 1.391 . S
C1265 C1264 1.386 . S
C1265 C1269 1.393 . S
C1266 H1258 0.950 . S
C1266 C1264 1.391 . S
C1266 C1267 1.400 . S
C1267 C1266 1.400 . S
C1267 C1268 1.398 . S
C1267 C1273 1.491 . S
C1268 H1259 0.950 . S
C1268 C1267 1.398 . S
C1268 C1269 1.391 . S
C1269 H1257 0.950 . S
C1269 C1265 1.393 . S
C1269 C1268 1.391 . S
C1270 H1260 0.950 . S
C1270 C1271 1.386 . S
C1270 C1272 1.391 . S
C1271 C1270 1.386 . S
C1271 C1275 1.393 . S
C1272 H1261 0.950 . S
C1272 C1270 1.391 . S
C1272 C1273 1.400 . S
C1273 C1267 1.491 . S
C1273 C1272 1.400 . S
C1273 C1274 1.398 . S
C1274 H1262 0.950 . S
C1274 C1273 1.398 . S
C1274 C1275 1.391 . S
C1275 H1263 0.950 . S
C1275 C1271 1.393 . S
C1275 C1274 1.391 . S
H1276 C1284 0.950 . S
H1277 C1289 0.950 . S
H1278 C1286 0.950 . S
H1279 C1288 0.950 . S
H1280 C1290 0.950 . S
H1281 C1292 0.950 . S
H1282 C1294 0.950 . S
H1283 C1295 0.950 . S
C1284 H1276 0.950 . S
C1284 C1285 1.386 . S
C1284 C1286 1.391 . S
C1285 C1284 1.386 . S
C1285 C1289 1.393 . S
C1286 H1278 0.950 . S
C1286 C1284 1.391 . S
C1286 C1287 1.400 . S
C1287 C1286 1.400 . S
C1287 C1288 1.398 . S
C1287 C1293 1.491 . S
C1288 H1279 0.950 . S
C1288 C1287 1.398 . S
C1288 C1289 1.391 . S
C1289 H1277 0.950 . S
C1289 C1285 1.393 . S
C1289 C1288 1.391 . S
C1290 H1280 0.950 . S
C1290 C1291 1.386 . S
C1290 C1292 1.391 . S
C1291 C1290 1.386 . S
C1291 C1295 1.393 . S
C1292 H1281 0.950 . S
C1292 C1290 1.391 . S
C1292 C1293 1.400 . S
C1293 C1287 1.491 . S
C1293 C1292 1.400 . S
C1293 C1294 1.398 . S
C1294 H1282 0.950 . S
C1294 C1293 1.398 . S
C1294 C1295 1.391 . S
C1295 H1283 0.950 . S
C1295 C1291 1.393 . S
C1295 C1294 1.391 . S
H1296 C1304 0.950 . S
H1297 C1309 0.950 . S
H1298 C1306 0.950 . S
H1299 C1308 0.950 . S
H1300 C1310 0.950 . S
H1301 C1312 0.950 . S
H1302 C1314 0.950 . S
H1303 C1315 0.950 . S
C1304 H1296 0.950 . S
C1304 C1305 1.386 . S
C1304 C1306 1.391 . S
C1305 C1304 1.386 . S
C1305 C1309 1.393 . S
C1306 H1298 0.950 . S
C1306 C1304 1.391 . S
C1306 C1307 1.400 . S
C1307 C1306 1.400 . S
C1307 C1308 1.398 . S
C1307 C1313 1.491 . S
C1308 H1299 0.950 . S
C1308 C1307 1.398 . S
C1308 C1309 1.391 . S
C1309 H1297 0.950 . S
C1309 C1305 1.393 . S
C1309 C1308 1.391 . S
C1310 H1300 0.950 . S
C1310 C1311 1.386 . S
C1310 C1312 1.391 . S
C1311 C1310 1.386 . S
C1311 C1315 1.393 . S
C1312 H1301 0.950 . S
C1312 C1310 1.391 . S
C1312 C1313 1.400 . S
C1313 C1307 1.491 . S
C1313 C1312 1.400 . S
C1313 C1314 1.398 . S
C1314 H1302 0.950 . S
C1314 C1313 1.398 . S
C1314 C1315 1.391 . S
C1315 H1303 0.950 . S
C1315 C1311 1.393 . S
C1315 C1314 1.391 . S
H1316 C1324 0.950 . S
H1317 C1329 0.950 . S
H1318 C1326 0.950 . S
H1319 C1328 0.950 . S
H1320 C1330 0.950 . S
H1321 C1332 0.950 . S
H1322 C1334 0.950 . S
H1323 C1335 0.950 . S
C1324 H1316 0.950 . S
C1324 C1325 1.386 . S
C1324 C1326 1.391 . S
C1325 C1324 1.386 . S
C1325 C1329 1.393 . S
C1326 H1318 0.950 . S
C1326 C1324 1.391 . S
C1326 C1327 1.400 . S
C1327 C1326 1.400 . S
C1327 C1328 1.398 . S
C1327 C1333 1.491 . S
C1328 H1319 0.950 . S
C1328 C1327 1.398 . S
C1328 C1329 1.391 . S
C1329 H1317 0.950 . S
C1329 C1325 1.393 . S
C1329 C1328 1.391 . S
C1330 H1320 0.950 . S
C1330 C1331 1.386 . S
C1330 C1332 1.391 . S
C1331 C1330 1.386 . S
C1331 C1335 1.393 . S
C1332 H1321 0.950 . S
C1332 C1330 1.391 . S
C1332 C1333 1.400 . S
C1333 C1327 1.491 . S
C1333 C1332 1.400 . S
C1333 C1334 1.398 . S
C1334 H1322 0.950 . S
C1334 C1333 1.398 . S
C1334 C1335 1.391 . S
C1335 H1323 0.950 . S
C1335 C1331 1.393 . S
C1335 C1334 1.391 . S
H1336 C1344 0.950 . S
H1337 C1349 0.950 . S
H1338 C1346 0.950 . S
H1339 C1348 0.950 . S
H1340 C1350 0.950 . S
H1341 C1352 0.950 . S
H1342 C1354 0.950 . S
H1343 C1355 0.950 . S
C1344 H1336 0.950 . S
C1344 C1345 1.386 . S
C1344 C1346 1.391 . S
C1345 C1344 1.386 . S
C1345 C1349 1.393 . S
C1346 H1338 0.950 . S
C1346 C1344 1.391 . S
C1346 C1347 1.400 . S
C1347 C1346 1.400 . S
C1347 C1348 1.398 . S
C1347 C1353 1.491 . S
C1348 H1339 0.950 . S
C1348 C1347 1.398 . S
C1348 C1349 1.391 . S
C1349 H1337 0.950 . S
C1349 C1345 1.393 . S
C1349 C1348 1.391 . S
C1350 H1340 0.950 . S
C1350 C1351 1.386 . S
C1350 C1352 1.391 . S
C1351 C1350 1.386 . S
C1351 C1355 1.393 . S
C1352 H1341 0.950 . S
C1352 C1350 1.391 . S
C1352 C1353 1.400 . S
C1353 C1347 1.491 . S
C1353 C1352 1.400 . S
C1353 C1354 1.398 . S
C1354 H1342 0.950 . S
C1354 C1353 1.398 . S
C1354 C1355 1.391 . S
C1355 H1343 0.950 . S
C1355 C1351 1.393 . S
C1355 C1354 1.391 . S
H1356 C1364 0.950 . S
H1357 C1369 0.950 . S
H1358 C1366 0.950 . S
H1359 C1368 0.950 . S
H1360 C1370 0.950 . S
H1361 C1372 0.950 . S
H1362 C1374 0.950 . S
H1363 C1375 0.950 . S
C1364 H1356 0.950 . S
C1364 C1365 1.386 . S
C1364 C1366 1.391 . S
C1365 C1364 1.386 . S
C1365 C1369 1.393 . S
C1366 H1358 0.950 . S
C1366 C1364 1.391 . S
C1366 C1367 1.400 . S
C1367 C1366 1.400 . S
C1367 C1368 1.398 . S
C1367 C1373 1.491 . S
C1368 H1359 0.950 . S
C1368 C1367 1.398 . S
C1368 C1369 1.391 . S
C1369 H1357 0.950 . S
C1369 C1365 1.393 . S
C1369 C1368 1.391 . S
C1370 H1360 0.950 . S
C1370 C1371 1.386 . S
C1370 C1372 1.391 . S
C1371 C1370 1.386 . S
C1371 C1375 1.393 . S
C1372 H1361 0.950 . S
C1372 C1370 1.391 . S
C1372 C1373 1.400 . S
C1373 C1367 1.491 . S
C1373 C1372 1.400 . S
C1373 C1374 1.398 . S
C1374 H1362 0.950 . S
C1374 C1373 1.398 . S
C1374 C1375 1.391 . S
C1375 H1363 0.950 . S
C1375 C1371 1.393 . S
C1375 C1374 1.391 . S
H1376 C1384 0.950 . S
H1377 C1389 0.950 . S
H1378 C1386 0.950 . S
H1379 C1388 0.950 . S
H1380 C1390 0.950 . S
H1381 C1392 0.950 . S
H1382 C1394 0.950 . S
H1383 C1395 0.950 . S
C1384 H1376 0.950 . S
C1384 C1385 1.386 . S
C1384 C1386 1.391 . S
C1385 C1384 1.386 . S
C1385 C1389 1.393 . S
C1386 H1378 0.950 . S
C1386 C1384 1.391 . S
C1386 C1387 1.400 . S
C1387 C1386 1.400 . S
C1387 C1388 1.398 . S
C1387 C1393 1.491 . S
C1388 H1379 0.950 . S
C1388 C1387 1.398 . S
C1388 C1389 1.391 . S
C1389 H1377 0.950 . S
C1389 C1385 1.393 . S
C1389 C1388 1.391 . S
C1390 H1380 0.950 . S
C1390 C1391 1.386 . S
C1390 C1392 1.391 . S
C1391 C1390 1.386 . S
C1391 C1395 1.393 . S
C1392 H1381 0.950 . S
C1392 C1390 1.391 . S
C1392 C1393 1.400 . S
C1393 C1387 1.491 . S
C1393 C1392 1.400 . S
C1393 C1394 1.398 . S
C1394 H1382 0.950 . S
C1394 C1393 1.398 . S
C1394 C1395 1.391 . S
C1395 H1383 0.950 . S
C1395 C1391 1.393 . S
C1395 C1394 1.391 . S
H1396 C1404 0.950 . S
H1397 C1409 0.950 . S
H1398 C1406 0.950 . S
H1399 C1408 0.950 . S
H1400 C1410 0.957 . S
H1401 C1412 0.950 . S
H1402 C1414 0.950 . S
H1403 C1415 0.950 . S
C1404 H1396 0.950 . S
C1404 C1405 1.386 . S
C1404 C1406 1.391 . S
C1405 C1404 1.386 . S
C1405 C1409 1.393 . S
C1406 H1398 0.950 . S
C1406 C1404 1.391 . S
C1406 C1407 1.400 . S
C1407 C1406 1.400 . S
C1407 C1408 1.398 . S
C1407 C1413 1.491 . S
C1408 H1399 0.950 . S
C1408 C1407 1.398 . S
C1408 C1409 1.391 . S
C1409 H1397 0.950 . S
C1409 C1405 1.393 . S
C1409 C1408 1.391 . S
C1410 H1400 0.957 . S
C1410 C1411 1.386 . S
C1410 C1412 1.391 . S
C1411 C1410 1.386 . S
C1411 C1415 1.393 . S
C1412 H1401 0.950 . S
C1412 C1410 1.391 . S
C1412 C1413 1.400 . S
C1413 C1407 1.491 . S
C1413 C1412 1.400 . S
C1413 C1414 1.398 . S
C1414 H1402 0.950 . S
C1414 C1413 1.398 . S
C1414 C1415 1.391 . S
C1415 H1403 0.950 . S
C1415 C1411 1.393 . S
C1415 C1414 1.391 . S
H1416 C1424 0.950 . S
H1417 C1429 0.950 . S
H1418 C1426 0.950 . S
H1419 C1428 0.950 . S
H1420 C1430 0.950 . S
H1421 C1432 0.950 . S
H1422 C1434 0.950 . S
H1423 C1435 0.950 . S
C1424 H1416 0.950 . S
C1424 C1425 1.386 . S
C1424 C1426 1.391 . S
C1425 C1424 1.386 . S
C1425 C1429 1.393 . S
C1426 H1418 0.950 . S
C1426 C1424 1.391 . S
C1426 C1427 1.400 . S
C1427 C1426 1.400 . S
C1427 C1428 1.398 . S
C1427 C1433 1.491 . S
C1428 H1419 0.950 . S
C1428 C1427 1.398 . S
C1428 C1429 1.391 . S
C1429 H1417 0.950 . S
C1429 C1425 1.393 . S
C1429 C1428 1.391 . S
C1430 H1420 0.950 . S
C1430 C1431 1.386 . S
C1430 C1432 1.391 . S
C1431 C1430 1.386 . S
C1431 C1435 1.393 . S
C1432 H1421 0.950 . S
C1432 C1430 1.391 . S
C1432 C1433 1.400 . S
C1433 C1427 1.491 . S
C1433 C1432 1.400 . S
C1433 C1434 1.398 . S
C1434 H1422 0.950 . S
C1434 C1433 1.398 . S
C1434 C1435 1.391 . S
C1435 H1423 0.950 . S
C1435 C1431 1.393 . S
C1435 C1434 1.391 . S
H1436 C1444 0.950 . S
H1437 C1449 0.950 . S
H1438 C1446 0.950 . S
H1439 C1448 0.950 . S
H1440 C1450 0.950 . S
H1441 C1452 0.950 . S
H1442 C1454 0.950 . S
H1443 C1455 0.950 . S
C1444 H1436 0.950 . S
C1444 C1445 1.386 . S
C1444 C1446 1.391 . S
C1445 C1444 1.386 . S
C1445 C1449 1.393 . S
C1446 H1438 0.950 . S
C1446 C1444 1.391 . S
C1446 C1447 1.400 . S
C1447 C1446 1.400 . S
C1447 C1448 1.398 . S
C1447 C1453 1.491 . S
C1448 H1439 0.950 . S
C1448 C1447 1.398 . S
C1448 C1449 1.391 . S
C1449 H1437 0.950 . S
C1449 C1445 1.393 . S
C1449 C1448 1.391 . S
C1450 H1440 0.950 . S
C1450 C1451 1.386 . S
C1450 C1452 1.391 . S
C1451 C1450 1.386 . S
C1451 C1455 1.393 . S
C1452 H1441 0.950 . S
C1452 C1450 1.391 . S
C1452 C1453 1.400 . S
C1453 C1447 1.491 . S
C1453 C1452 1.400 . S
C1453 C1454 1.398 . S
C1454 H1442 0.950 . S
C1454 C1453 1.398 . S
C1454 C1455 1.391 . S
C1455 H1443 0.950 . S
C1455 C1451 1.393 . S
C1455 C1454 1.391 . S
H1456 C1464 0.950 . S
H1457 C1469 0.950 . S
H1458 C1466 0.950 . S
H1459 C1468 0.950 . S
H1460 C1470 0.950 . S
H1461 C1472 0.950 . S
H1462 C1474 0.950 . S
H1463 C1475 0.950 . S
C1464 H1456 0.950 . S
C1464 C1465 1.386 . S
C1464 C1466 1.391 . S
C1465 C1464 1.386 . S
C1465 C1469 1.393 . S
C1466 H1458 0.950 . S
C1466 C1464 1.391 . S
C1466 C1467 1.400 . S
C1467 C1466 1.400 . S
C1467 C1468 1.398 . S
C1467 C1473 1.491 . S
C1468 H1459 0.950 . S
C1468 C1467 1.398 . S
C1468 C1469 1.391 . S
C1469 H1457 0.950 . S
C1469 C1465 1.393 . S
C1469 C1468 1.391 . S
C1470 H1460 0.950 . S
C1470 C1471 1.386 . S
C1470 C1472 1.391 . S
C1471 C1470 1.386 . S
C1471 C1475 1.393 . S
C1472 H1461 0.950 . S
C1472 C1470 1.391 . S
C1472 C1473 1.400 . S
C1473 C1467 1.491 . S
C1473 C1472 1.400 . S
C1473 C1474 1.398 . S
C1474 H1462 0.950 . S
C1474 C1473 1.398 . S
C1474 C1475 1.391 . S
C1475 H1463 0.950 . S
C1475 C1471 1.393 . S
C1475 C1474 1.391 . S
H1476 C1484 0.950 . S
H1477 C1489 0.950 . S
H1478 C1486 0.950 . S
H1479 C1488 0.950 . S
H1480 C1490 0.950 . S
H1481 C1492 0.950 . S
H1482 C1494 0.950 . S
H1483 C1495 0.950 . S
C1484 H1476 0.950 . S
C1484 C1485 1.386 . S
C1484 C1486 1.391 . S
C1485 C1484 1.386 . S
C1485 C1489 1.393 . S
C1486 H1478 0.950 . S
C1486 C1484 1.391 . S
C1486 C1487 1.400 . S
C1487 C1486 1.400 . S
C1487 C1488 1.398 . S
C1487 C1493 1.491 . S
C1488 H1479 0.950 . S
C1488 C1487 1.398 . S
C1488 C1489 1.391 . S
C1489 H1477 0.950 . S
C1489 C1485 1.393 . S
C1489 C1488 1.391 . S
C1490 H1480 0.950 . S
C1490 C1491 1.386 . S
C1490 C1492 1.391 . S
C1491 C1490 1.386 . S
C1491 C1495 1.393 . S
C1492 H1481 0.950 . S
C1492 C1490 1.391 . S
C1492 C1493 1.400 . S
C1493 C1487 1.491 . S
C1493 C1492 1.400 . S
C1493 C1494 1.398 . S
C1494 H1482 0.950 . S
C1494 C1493 1.398 . S
C1494 C1495 1.391 . S
C1495 H1483 0.950 . S
C1495 C1491 1.393 . S
C1495 C1494 1.391 . S
H1496 C1504 0.950 . S
H1497 C1509 0.950 . S
H1498 C1506 0.950 . S
H1499 C1508 0.950 . S
H1500 C1510 0.950 . S
H1501 C1512 0.950 . S
H1502 C1514 0.950 . S
H1503 C1515 0.950 . S
C1504 H1496 0.950 . S
C1504 C1505 1.386 . S
C1504 C1506 1.391 . S
C1505 C1504 1.386 . S
C1505 C1509 1.393 . S
C1506 H1498 0.950 . S
C1506 C1504 1.391 . S
C1506 C1507 1.400 . S
C1507 C1506 1.400 . S
C1507 C1508 1.398 . S
C1507 C1513 1.491 . S
C1508 H1499 0.950 . S
C1508 C1507 1.398 . S
C1508 C1509 1.391 . S
C1509 H1497 0.950 . S
C1509 C1505 1.393 . S
C1509 C1508 1.391 . S
C1510 H1500 0.950 . S
C1510 C1511 1.386 . S
C1510 C1512 1.391 . S
C1511 C1510 1.386 . S
C1511 C1515 1.393 . S
C1512 H1501 0.950 . S
C1512 C1510 1.391 . S
C1512 C1513 1.400 . S
C1513 C1507 1.491 . S
C1513 C1512 1.400 . S
C1513 C1514 1.398 . S
C1514 H1502 0.950 . S
C1514 C1513 1.398 . S
C1514 C1515 1.391 . S
C1515 H1503 0.950 . S
C1515 C1511 1.393 . S
C1515 C1514 1.391 . S
H1516 C1524 0.950 . S
H1517 C1529 0.950 . S
H1518 C1526 0.950 . S
H1519 C1528 0.950 . S
H1520 C1530 0.950 . S
H1521 C1532 0.950 . S
H1522 C1534 0.950 . S
H1523 C1535 0.958 . S
C1524 H1516 0.950 . S
C1524 C1525 1.386 . S
C1524 C1526 1.391 . S
C1525 C1524 1.386 . S
C1525 C1529 1.393 . S
C1526 H1518 0.950 . S
C1526 C1524 1.391 . S
C1526 C1527 1.400 . S
C1527 C1526 1.400 . S
C1527 C1528 1.398 . S
C1527 C1533 1.491 . S
C1528 H1519 0.950 . S
C1528 C1527 1.398 . S
C1528 C1529 1.391 . S
C1529 H1517 0.950 . S
C1529 C1525 1.393 . S
C1529 C1528 1.391 . S
C1530 H1520 0.950 . S
C1530 C1531 1.386 . S
C1530 C1532 1.391 . S
C1531 C1530 1.386 . S
C1531 C1535 1.393 . S
C1532 H1521 0.950 . S
C1532 C1530 1.391 . S
C1532 C1533 1.400 . S
C1533 C1527 1.491 . S
C1533 C1532 1.400 . S
C1533 C1534 1.398 . S
C1534 H1522 0.950 . S
C1534 C1533 1.398 . S
C1534 C1535 1.391 . S
C1535 H1523 0.958 . S
C1535 C1531 1.393 . S
C1535 C1534 1.391 . S
H1536 C1544 0.950 . S
H1537 C1549 0.950 . S
H1538 C1546 0.950 . S
H1539 C1548 0.950 . S
H1540 C1550 0.950 . S
H1541 C1552 0.950 . S
H1542 C1554 0.950 . S
H1543 C1555 0.950 . S
C1544 H1536 0.950 . S
C1544 C1545 1.386 . S
C1544 C1546 1.391 . S
C1545 C1544 1.386 . S
C1545 C1549 1.393 . S
C1546 H1538 0.950 . S
C1546 C1544 1.391 . S
C1546 C1547 1.400 . S
C1547 C1546 1.400 . S
C1547 C1548 1.398 . S
C1547 C1553 1.491 . S
C1548 H1539 0.950 . S
C1548 C1547 1.398 . S
C1548 C1549 1.391 . S
C1549 H1537 0.950 . S
C1549 C1545 1.393 . S
C1549 C1548 1.391 . S
C1550 H1540 0.950 . S
C1550 C1551 1.386 . S
C1550 C1552 1.391 . S
C1551 C1550 1.386 . S
C1551 C1555 1.393 . S
C1552 H1541 0.950 . S
C1552 C1550 1.391 . S
C1552 C1553 1.400 . S
C1553 C1547 1.491 . S
C1553 C1552 1.400 . S
C1553 C1554 1.398 . S
C1554 H1542 0.950 . S
C1554 C1553 1.398 . S
C1554 C1555 1.391 . S
C1555 H1543 0.950 . S
C1555 C1551 1.393 . S
C1555 C1554 1.391 . S
H1556 C1564 0.950 . S
H1557 C1569 0.950 . S
H1558 C1566 0.950 . S
H1559 C1568 0.950 . S
H1560 C1570 0.950 . S
H1561 C1572 0.950 . S
H1562 C1574 0.950 . S
H1563 C1575 0.950 . S
C1564 H1556 0.950 . S
C1564 C1565 1.386 . S
C1564 C1566 1.391 . S
C1565 C1564 1.386 . S
C1565 C1569 1.393 . S
C1566 H1558 0.950 . S
C1566 C1564 1.391 . S
C1566 C1567 1.400 . S
C1567 C1566 1.400 . S
C1567 C1568 1.398 . S
C1567 C1573 1.491 . S
C1568 H1559 0.950 . S
C1568 C1567 1.398 . S
C1568 C1569 1.391 . S
C1569 H1557 0.950 . S
C1569 C1565 1.393 . S
C1569 C1568 1.391 . S
C1570 H1560 0.950 . S
C1570 C1571 1.386 . S
C1570 C1572 1.391 . S
C1571 C1570 1.386 . S
C1571 C1575 1.393 . S
C1572 H1561 0.950 . S
C1572 C1570 1.391 . S
C1572 C1573 1.400 . S
C1573 C1567 1.491 . S
C1573 C1572 1.400 . S
C1573 C1574 1.398 . S
C1574 H1562 0.950 . S
C1574 C1573 1.398 . S
C1574 C1575 1.391 . S
C1575 H1563 0.950 . S
C1575 C1571 1.393 . S
C1575 C1574 1.391 . S
H1576 C1584 0.950 . S
H1577 C1589 0.950 . S
H1578 C1586 0.950 . S
H1579 C1588 0.950 . S
H1580 C1590 0.950 . S
H1581 C1592 0.950 . S
H1582 C1594 0.950 . S
H1583 C1595 0.950 . S
C1584 H1576 0.950 . S
C1584 C1585 1.386 . S
C1584 C1586 1.391 . S
C1585 C1584 1.386 . S
C1585 C1589 1.393 . S
C1586 H1578 0.950 . S
C1586 C1584 1.391 . S
C1586 C1587 1.400 . S
C1587 C1586 1.400 . S
C1587 C1588 1.398 . S
C1587 C1593 1.491 . S
C1588 H1579 0.950 . S
C1588 C1587 1.398 . S
C1588 C1589 1.391 . S
C1589 H1577 0.950 . S
C1589 C1585 1.393 . S
C1589 C1588 1.391 . S
C1590 H1580 0.950 . S
C1590 C1591 1.386 . S
C1590 C1592 1.391 . S
C1591 C1590 1.386 . S
C1591 C1595 1.393 . S
C1592 H1581 0.950 . S
C1592 C1590 1.391 . S
C1592 C1593 1.400 . S
C1593 C1587 1.491 . S
C1593 C1592 1.400 . S
C1593 C1594 1.398 . S
C1594 H1582 0.950 . S
C1594 C1593 1.398 . S
C1594 C1595 1.391 . S
C1595 H1583 0.950 . S
C1595 C1591 1.393 . S
C1595 C1594 1.391 . S
H1596 C1604 0.950 . S
H1597 C1609 0.950 . S
H1598 C1606 0.950 . S
H1599 C1608 0.950 . S
H1600 C1610 0.950 . S
H1601 C1612 0.950 . S
H1602 C1614 0.950 . S
H1603 C1615 0.950 . S
C1604 H1596 0.950 . S
C1604 C1605 1.386 . S
C1604 C1606 1.391 . S
C1605 C1604 1.386 . S
C1605 C1609 1.393 . S
C1606 H1598 0.950 . S
C1606 C1604 1.391 . S
C1606 C1607 1.400 . S
C1607 C1606 1.400 . S
C1607 C1608 1.398 . S
C1607 C1613 1.491 . S
C1608 H1599 0.950 . S
C1608 C1607 1.398 . S
C1608 C1609 1.391 . S
C1609 H1597 0.950 . S
C1609 C1605 1.393 . S
C1609 C1608 1.391 . S
C1610 H1600 0.950 . S
C1610 C1611 1.386 . S
C1610 C1612 1.391 . S
C1611 C1610 1.386 . S
C1611 C1615 1.393 . S
C1612 H1601 0.950 . S
C1612 C1610 1.391 . S
C1612 C1613 1.400 . S
C1613 C1607 1.491 . S
C1613 C1612 1.400 . S
C1613 C1614 1.398 . S
C1614 H1602 0.950 . S
C1614 C1613 1.398 . S
C1614 C1615 1.391 . S
C1615 H1603 0.950 . S
C1615 C1611 1.393 . S
C1615 C1614 1.391 . S
H1616 C1624 0.950 . S
H1617 C1629 0.950 . S
H1618 C1626 0.950 . S
H1619 C1628 0.950 . S
H1620 C1630 0.950 . S
H1621 C1632 0.950 . S
H1622 C1634 0.950 . S
H1623 C1635 0.950 . S
C1624 H1616 0.950 . S
C1624 C1625 1.386 . S
C1624 C1626 1.391 . S
C1625 C1624 1.386 . S
C1625 C1629 1.393 . S
C1626 H1618 0.950 . S
C1626 C1624 1.391 . S
C1626 C1627 1.400 . S
C1627 C1626 1.400 . S
C1627 C1628 1.398 . S
C1627 C1633 1.491 . S
C1628 H1619 0.950 . S
C1628 C1627 1.398 . S
C1628 C1629 1.391 . S
C1629 H1617 0.950 . S
C1629 C1625 1.393 . S
C1629 C1628 1.391 . S
C1630 H1620 0.950 . S
C1630 C1631 1.386 . S
C1630 C1632 1.391 . S
C1631 C1630 1.386 . S
C1631 C1635 1.393 . S
C1632 H1621 0.950 . S
C1632 C1630 1.391 . S
C1632 C1633 1.400 . S
C1633 C1627 1.491 . S
C1633 C1632 1.400 . S
C1633 C1634 1.398 . S
C1634 H1622 0.950 . S
C1634 C1633 1.398 . S
C1634 C1635 1.391 . S
C1635 H1623 0.950 . S
C1635 C1631 1.393 . S
C1635 C1634 1.391 . S
H1636 C1644 0.950 . S
H1637 C1649 0.950 . S
H1638 C1646 0.950 . S
H1639 C1648 0.950 . S
H1640 C1650 0.950 . S
H1641 C1652 0.950 . S
H1642 C1654 0.950 . S
H1643 C1655 0.950 . S
C1644 H1636 0.950 . S
C1644 C1645 1.386 . S
C1644 C1646 1.391 . S
C1645 C1644 1.386 . S
C1645 C1649 1.393 . S
C1646 H1638 0.950 . S
C1646 C1644 1.391 . S
C1646 C1647 1.400 . S
C1647 C1646 1.400 . S
C1647 C1648 1.398 . S
C1647 C1653 1.491 . S
C1648 H1639 0.950 . S
C1648 C1647 1.398 . S
C1648 C1649 1.391 . S
C1649 H1637 0.950 . S
C1649 C1645 1.393 . S
C1649 C1648 1.391 . S
C1650 H1640 0.950 . S
C1650 C1651 1.386 . S
C1650 C1652 1.391 . S
C1651 C1650 1.386 . S
C1651 C1655 1.393 . S
C1652 H1641 0.950 . S
C1652 C1650 1.391 . S
C1652 C1653 1.400 . S
C1653 C1647 1.491 . S
C1653 C1652 1.400 . S
C1653 C1654 1.398 . S
C1654 H1642 0.950 . S
C1654 C1653 1.398 . S
C1654 C1655 1.391 . S
C1655 H1643 0.950 . S
C1655 C1651 1.393 . S
C1655 C1654 1.391 . S
H1656 C1664 0.950 . S
H1657 C1669 0.950 . S
H1658 C1666 0.950 . S
H1659 C1668 0.950 . S
H1660 C1670 0.950 . S
H1661 C1672 0.950 . S
H1662 C1674 0.950 . S
H1663 C1675 0.950 . S
C1664 H1656 0.950 . S
C1664 C1665 1.386 . S
C1664 C1666 1.391 . S
C1665 C1664 1.386 . S
C1665 C1669 1.393 . S
C1666 H1658 0.950 . S
C1666 C1664 1.391 . S
C1666 C1667 1.400 . S
C1667 C1666 1.400 . S
C1667 C1668 1.398 . S
C1667 C1673 1.491 . S
C1668 H1659 0.950 . S
C1668 C1667 1.398 . S
C1668 C1669 1.391 . S
C1669 H1657 0.950 . S
C1669 C1665 1.393 . S
C1669 C1668 1.391 . S
C1670 H1660 0.950 . S
C1670 C1671 1.386 . S
C1670 C1672 1.391 . S
C1671 C1670 1.386 . S
C1671 C1675 1.393 . S
C1672 H1661 0.950 . S
C1672 C1670 1.391 . S
C1672 C1673 1.400 . S
C1673 C1667 1.491 . S
C1673 C1672 1.400 . S
C1673 C1674 1.398 . S
C1674 H1662 0.950 . S
C1674 C1673 1.398 . S
C1674 C1675 1.391 . S
C1675 H1663 0.950 . S
C1675 C1671 1.393 . S
C1675 C1674 1.391 . S
H1676 C1684 0.956 . S
H1677 C1689 0.950 . S
H1678 C1686 0.950 . S
H1679 C1688 0.950 . S
H1680 C1690 0.950 . S
H1681 C1692 0.950 . S
H1682 C1694 0.950 . S
H1683 C1695 0.950 . S
C1684 H1676 0.956 . S
C1684 C1685 1.386 . S
C1684 C1686 1.391 . S
C1685 C1684 1.386 . S
C1685 C1689 1.393 . S
C1686 H1678 0.950 . S
C1686 C1684 1.391 . S
C1686 C1687 1.400 . S
C1687 C1686 1.400 . S
C1687 C1688 1.398 . S
C1687 C1693 1.491 . S
C1688 H1679 0.950 . S
C1688 C1687 1.398 . S
C1688 C1689 1.391 . S
C1689 H1677 0.950 . S
C1689 C1685 1.393 . S
C1689 C1688 1.391 . S
C1690 H1680 0.950 . S
C1690 C1691 1.386 . S
C1690 C1692 1.391 . S
C1691 C1690 1.386 . S
C1691 C1695 1.393 . S
C1692 H1681 0.950 . S
C1692 C1690 1.391 . S
C1692 C1693 1.400 . S
C1693 C1687 1.491 . S
C1693 C1692 1.400 . S
C1693 C1694 1.398 . S
C1694 H1682 0.950 . S
C1694 C1693 1.398 . S
C1694 C1695 1.391 . S
C1695 H1683 0.950 . S
C1695 C1691 1.393 . S
C1695 C1694 1.391 . S
H1696 C1704 0.950 . S
H1697 C1709 0.950 . S
H1698 C1706 0.950 . S
H1699 C1708 0.950 . S
H1700 C1710 0.950 . S
H1701 C1712 0.950 . S
H1702 C1714 0.950 . S
H1703 C1715 0.950 . S
C1704 H1696 0.950 . S
C1704 C1705 1.386 . S
C1704 C1706 1.391 . S
C1705 C1704 1.386 . S
C1705 C1709 1.393 . S
C1706 H1698 0.950 . S
C1706 C1704 1.391 . S
C1706 C1707 1.400 . S
C1707 C1706 1.400 . S
C1707 C1708 1.398 . S
C1707 C1713 1.491 . S
C1708 H1699 0.950 . S
C1708 C1707 1.398 . S
C1708 C1709 1.391 . S
C1709 H1697 0.950 . S
C1709 C1705 1.393 . S
C1709 C1708 1.391 . S
C1710 H1700 0.950 . S
C1710 C1711 1.386 . S
C1710 C1712 1.391 . S
C1711 C1710 1.386 . S
C1711 C1715 1.393 . S
C1712 H1701 0.950 . S
C1712 C1710 1.391 . S
C1712 C1713 1.400 . S
C1713 C1707 1.491 . S
C1713 C1712 1.400 . S
C1713 C1714 1.398 . S
C1714 H1702 0.950 . S
C1714 C1713 1.398 . S
C1714 C1715 1.391 . S
C1715 H1703 0.950 . S
C1715 C1711 1.393 . S
C1715 C1714 1.391 . S
H1716 C1724 0.950 . S
H1717 C1729 0.950 . S
H1718 C1726 0.950 . S
H1719 C1728 0.950 . S
H1720 C1730 0.950 . S
H1721 C1732 0.950 . S
H1722 C1734 0.950 . S
H1723 C1735 0.950 . S
C1724 H1716 0.950 . S
C1724 C1725 1.386 . S
C1724 C1726 1.391 . S
C1725 C1724 1.386 . S
C1725 C1729 1.393 . S
C1726 H1718 0.950 . S
C1726 C1724 1.391 . S
C1726 C1727 1.400 . S
C1727 C1726 1.400 . S
C1727 C1728 1.398 . S
C1727 C1733 1.491 . S
C1728 H1719 0.950 . S
C1728 C1727 1.398 . S
C1728 C1729 1.391 . S
C1729 H1717 0.950 . S
C1729 C1725 1.393 . S
C1729 C1728 1.391 . S
C1730 H1720 0.950 . S
C1730 C1731 1.386 . S
C1730 C1732 1.391 . S
C1731 C1730 1.386 . S
C1731 C1735 1.393 . S
C1732 H1721 0.950 . S
C1732 C1730 1.391 . S
C1732 C1733 1.400 . S
C1733 C1727 1.491 . S
C1733 C1732 1.400 . S
C1733 C1734 1.398 . S
C1734 H1722 0.950 . S
C1734 C1733 1.398 . S
C1734 C1735 1.391 . S
C1735 H1723 0.950 . S
C1735 C1731 1.393 . S
C1735 C1734 1.391 . S
H1736 C1744 0.950 . S
H1737 C1749 0.950 . S
H1738 C1746 0.950 . S
H1739 C1748 0.950 . S
H1740 C1750 0.950 . S
H1741 C1752 0.950 . S
H1742 C1754 0.950 . S
H1743 C1755 0.950 . S
C1744 H1736 0.950 . S
C1744 C1745 1.386 . S
C1744 C1746 1.391 . S
C1745 C1744 1.386 . S
C1745 C1749 1.393 . S
C1746 H1738 0.950 . S
C1746 C1744 1.391 . S
C1746 C1747 1.400 . S
C1747 C1746 1.400 . S
C1747 C1748 1.398 . S
C1747 C1753 1.491 . S
C1748 H1739 0.950 . S
C1748 C1747 1.398 . S
C1748 C1749 1.391 . S
C1749 H1737 0.950 . S
C1749 C1745 1.393 . S
C1749 C1748 1.391 . S
C1750 H1740 0.950 . S
C1750 C1751 1.386 . S
C1750 C1752 1.391 . S
C1751 C1750 1.386 . S
C1751 C1755 1.393 . S
C1752 H1741 0.950 . S
C1752 C1750 1.391 . S
C1752 C1753 1.400 . S
C1753 C1747 1.491 . S
C1753 C1752 1.400 . S
C1753 C1754 1.398 . S
C1754 H1742 0.950 . S
C1754 C1753 1.398 . S
C1754 C1755 1.391 . S
C1755 H1743 0.950 . S
C1755 C1751 1.393 . S
C1755 C1754 1.391 . S
H1756 C1764 0.950 . S
H1757 C1769 0.950 . S
H1758 C1766 0.950 . S
H1759 C1768 0.950 . S
H1760 C1770 0.950 . S
H1761 C1772 0.950 . S
H1762 C1774 0.950 . S
H1763 C1775 0.950 . S
C1764 H1756 0.950 . S
C1764 C1765 1.386 . S
C1764 C1766 1.391 . S
C1765 C1764 1.386 . S
C1765 C1769 1.393 . S
C1766 H1758 0.950 . S
C1766 C1764 1.391 . S
C1766 C1767 1.400 . S
C1767 C1766 1.400 . S
C1767 C1768 1.398 . S
C1767 C1773 1.491 . S
C1768 H1759 0.950 . S
C1768 C1767 1.398 . S
C1768 C1769 1.391 . S
C1769 H1757 0.950 . S
C1769 C1765 1.393 . S
C1769 C1768 1.391 . S
C1770 H1760 0.950 . S
C1770 C1771 1.386 . S
C1770 C1772 1.391 . S
C1771 C1770 1.386 . S
C1771 C1775 1.393 . S
C1772 H1761 0.950 . S
C1772 C1770 1.391 . S
C1772 C1773 1.400 . S
C1773 C1767 1.491 . S
C1773 C1772 1.400 . S
C1773 C1774 1.398 . S
C1774 H1762 0.950 . S
C1774 C1773 1.398 . S
C1774 C1775 1.391 . S
C1775 H1763 0.950 . S
C1775 C1771 1.393 . S
C1775 C1774 1.391 . S
H1776 C1784 0.950 . S
H1777 C1789 0.950 . S
H1778 C1786 0.950 . S
H1779 C1788 0.950 . S
H1780 C1790 0.950 . S
H1781 C1792 0.950 . S
H1782 C1794 0.950 . S
H1783 C1795 0.950 . S
C1784 H1776 0.950 . S
C1784 C1785 1.386 . S
C1784 C1786 1.391 . S
C1785 C1784 1.386 . S
C1785 C1789 1.393 . S
C1786 H1778 0.950 . S
C1786 C1784 1.391 . S
C1786 C1787 1.400 . S
C1787 C1786 1.400 . S
C1787 C1788 1.398 . S
C1787 C1793 1.491 . S
C1788 H1779 0.950 . S
C1788 C1787 1.398 . S
C1788 C1789 1.391 . S
C1789 H1777 0.950 . S
C1789 C1785 1.393 . S
C1789 C1788 1.391 . S
C1790 H1780 0.950 . S
C1790 C1791 1.386 . S
C1790 C1792 1.391 . S
C1791 C1790 1.386 . S
C1791 C1795 1.393 . S
C1792 H1781 0.950 . S
C1792 C1790 1.391 . S
C1792 C1793 1.400 . S
C1793 C1787 1.491 . S
C1793 C1792 1.400 . S
C1793 C1794 1.398 . S
C1794 H1782 0.950 . S
C1794 C1793 1.398 . S
C1794 C1795 1.391 . S
C1795 H1783 0.950 . S
C1795 C1791 1.393 . S
C1795 C1794 1.391 . S
H1796 C1804 0.950 . S
H1797 C1809 0.950 . S
H1798 C1806 0.950 . S
H1799 C1808 0.950 . S
H1800 C1810 0.950 . S
H1801 C1812 0.950 . S
H1802 C1814 0.950 . S
H1803 C1815 0.950 . S
C1804 H1796 0.950 . S
C1804 C1805 1.386 . S
C1804 C1806 1.391 . S
C1805 C1804 1.386 . S
C1805 C1809 1.393 . S
C1806 H1798 0.950 . S
C1806 C1804 1.391 . S
C1806 C1807 1.400 . S
C1807 C1806 1.400 . S
C1807 C1808 1.398 . S
C1807 C1813 1.491 . S
C1808 H1799 0.950 . S
C1808 C1807 1.398 . S
C1808 C1809 1.391 . S
C1809 H1797 0.950 . S
C1809 C1805 1.393 . S
C1809 C1808 1.391 . S
C1810 H1800 0.950 . S
C1810 C1811 1.386 . S
C1810 C1812 1.391 . S
C1811 C1810 1.386 . S
C1811 C1815 1.393 . S
C1812 H1801 0.950 . S
C1812 C1810 1.391 . S
C1812 C1813 1.400 . S
C1813 C1807 1.491 . S
C1813 C1812 1.400 . S
C1813 C1814 1.398 . S
C1814 H1802 0.950 . S
C1814 C1813 1.398 . S
C1814 C1815 1.391 . S
C1815 H1803 0.950 . S
C1815 C1811 1.393 . S
C1815 C1814 1.391 . S
H1816 C1824 0.950 . S
H1817 C1829 0.950 . S
H1818 C1826 0.950 . S
H1819 C1828 0.950 . S
H1820 C1830 0.950 . S
H1821 C1832 0.950 . S
H1822 C1834 0.950 . S
H1823 C1835 0.950 . S
C1824 H1816 0.950 . S
C1824 C1825 1.386 . S
C1824 C1826 1.391 . S
C1825 C1824 1.386 . S
C1825 C1829 1.393 . S
C1826 H1818 0.950 . S
C1826 C1824 1.391 . S
C1826 C1827 1.400 . S
C1827 C1826 1.400 . S
C1827 C1828 1.398 . S
C1827 C1833 1.491 . S
C1828 H1819 0.950 . S
C1828 C1827 1.398 . S
C1828 C1829 1.391 . S
C1829 H1817 0.950 . S
C1829 C1825 1.393 . S
C1829 C1828 1.391 . S
C1830 H1820 0.950 . S
C1830 C1831 1.386 . S
C1830 C1832 1.391 . S
C1831 C1830 1.386 . S
C1831 C1835 1.393 . S
C1832 H1821 0.950 . S
C1832 C1830 1.391 . S
C1832 C1833 1.400 . S
C1833 C1827 1.491 . S
C1833 C1832 1.400 . S
C1833 C1834 1.398 . S
C1834 H1822 0.950 . S
C1834 C1833 1.398 . S
C1834 C1835 1.391 . S
C1835 H1823 0.950 . S
C1835 C1831 1.393 . S
C1835 C1834 1.391 . S
H1836 C1844 0.950 . S
H1837 C1849 0.950 . S
H1838 C1846 0.950 . S
H1839 C1848 0.950 . S
H1840 C1850 0.950 . S
H1841 C1852 0.950 . S
H1842 C1854 0.950 . S
H1843 C1855 0.950 . S
C1844 H1836 0.950 . S
C1844 C1845 1.386 . S
C1844 C1846 1.391 . S
C1845 C1844 1.386 . S
C1845 C1849 1.393 . S
C1846 H1838 0.950 . S
C1846 C1844 1.391 . S
C1846 C1847 1.400 . S
C1847 C1846 1.400 . S
C1847 C1848 1.398 . S
C1847 C1853 1.491 . S
C1848 H1839 0.950 . S
C1848 C1847 1.398 . S
C1848 C1849 1.391 . S
C1849 H1837 0.950 . S
C1849 C1845 1.393 . S
C1849 C1848 1.391 . S
C1850 H1840 0.950 . S
C1850 C1851 1.386 . S
C1850 C1852 1.391 . S
C1851 C1850 1.386 . S
C1851 C1855 1.393 . S
C1852 H1841 0.950 . S
C1852 C1850 1.391 . S
C1852 C1853 1.400 . S
C1853 C1847 1.491 . S
C1853 C1852 1.400 . S
C1853 C1854 1.398 . S
C1854 H1842 0.950 . S
C1854 C1853 1.398 . S
C1854 C1855 1.391 . S
C1855 H1843 0.950 . S
C1855 C1851 1.393 . S
C1855 C1854 1.391 . S
H1856 C1864 0.950 . S
H1857 C1869 0.950 . S
H1858 C1866 0.950 . S
H1859 C1868 0.950 . S
H1860 C1870 0.950 . S
H1861 C1872 0.950 . S
H1862 C1874 0.950 . S
H1863 C1875 0.950 . S
C1864 H1856 0.950 . S
C1864 C1865 1.386 . S
C1864 C1866 1.391 . S
C1865 C1864 1.386 . S
C1865 C1869 1.393 . S
C1866 H1858 0.950 . S
C1866 C1864 1.391 . S
C1866 C1867 1.400 . S
C1867 C1866 1.400 . S
C1867 C1868 1.398 . S
C1867 C1873 1.491 . S
C1868 H1859 0.950 . S
C1868 C1867 1.398 . S
C1868 C1869 1.391 . S
C1869 H1857 0.950 . S
C1869 C1865 1.393 . S
C1869 C1868 1.391 . S
C1870 H1860 0.950 . S
C1870 C1871 1.386 . S
C1870 C1872 1.391 . S
C1871 C1870 1.386 . S
C1871 C1875 1.393 . S
C1872 H1861 0.950 . S
C1872 C1870 1.391 . S
C1872 C1873 1.400 . S
C1873 C1867 1.491 . S
C1873 C1872 1.400 . S
C1873 C1874 1.398 . S
C1874 H1862 0.950 . S
C1874 C1873 1.398 . S
C1874 C1875 1.391 . S
C1875 H1863 0.950 . S
C1875 C1871 1.393 . S
C1875 C1874 1.391 . S
H1876 C1884 0.950 . S
H1877 C1889 0.950 . S
H1878 C1886 0.950 . S
H1879 C1888 0.950 . S
H1880 C1890 0.950 . S
H1881 C1892 0.950 . S
H1882 C1894 0.950 . S
H1883 C1895 0.950 . S
C1884 H1876 0.950 . S
C1884 C1885 1.386 . S
C1884 C1886 1.391 . S
C1885 C1884 1.386 . S
C1885 C1889 1.393 . S
C1886 H1878 0.950 . S
C1886 C1884 1.391 . S
C1886 C1887 1.400 . S
C1887 C1886 1.400 . S
C1887 C1888 1.398 . S
C1887 C1893 1.491 . S
C1888 H1879 0.950 . S
C1888 C1887 1.398 . S
C1888 C1889 1.391 . S
C1889 H1877 0.950 . S
C1889 C1885 1.393 . S
C1889 C1888 1.391 . S
C1890 H1880 0.950 . S
C1890 C1891 1.386 . S
C1890 C1892 1.391 . S
C1891 C1890 1.386 . S
C1891 C1895 1.393 . S
C1892 H1881 0.950 . S
C1892 C1890 1.391 . S
C1892 C1893 1.400 . S
C1893 C1887 1.491 . S
C1893 C1892 1.400 . S
C1893 C1894 1.398 . S
C1894 H1882 0.950 . S
C1894 C1893 1.398 . S
C1894 C1895 1.391 . S
C1895 H1883 0.950 . S
C1895 C1891 1.393 . S
C1895 C1894 1.391 . S
H1896 C1904 0.950 . S
H1897 C1909 0.950 . S
H1898 C1906 0.950 . S
H1899 C1908 0.950 . S
H1900 C1910 0.950 . S
H1901 C1912 0.950 . S
H1902 C1914 0.950 . S
H1903 C1915 0.950 . S
C1904 H1896 0.950 . S
C1904 C1905 1.386 . S
C1904 C1906 1.391 . S
C1905 C1904 1.386 . S
C1905 C1909 1.393 . S
C1906 H1898 0.950 . S
C1906 C1904 1.391 . S
C1906 C1907 1.400 . S
C1907 C1906 1.400 . S
C1907 C1908 1.398 . S
C1907 C1913 1.491 . S
C1908 H1899 0.950 . S
C1908 C1907 1.398 . S
C1908 C1909 1.391 . S
C1909 H1897 0.950 . S
C1909 C1905 1.393 . S
C1909 C1908 1.391 . S
C1910 H1900 0.950 . S
C1910 C1911 1.386 . S
C1910 C1912 1.391 . S
C1911 C1910 1.386 . S
C1911 C1915 1.393 . S
C1912 H1901 0.950 . S
C1912 C1910 1.391 . S
C1912 C1913 1.400 . S
C1913 C1907 1.491 . S
C1913 C1912 1.400 . S
C1913 C1914 1.398 . S
C1914 H1902 0.950 . S
C1914 C1913 1.398 . S
C1914 C1915 1.391 . S
C1915 H1903 0.950 . S
C1915 C1911 1.393 . S
C1915 C1914 1.391 . S
H1916 C1924 0.950 . S
H1917 C1929 0.950 . S
H1918 C1926 0.950 . S
H1919 C1928 0.950 . S
H1920 C1930 0.950 . S
H1921 C1932 0.950 . S
H1922 C1934 0.950 . S
H1923 C1935 0.950 . S
C1924 H1916 0.950 . S
C1924 C1925 1.386 . S
C1924 C1926 1.391 . S
C1925 C1924 1.386 . S
C1925 C1929 1.393 . S
C1926 H1918 0.950 . S
C1926 C1924 1.391 . S
C1926 C1927 1.400 . S
C1927 C1926 1.400 . S
C1927 C1928 1.398 . S
C1927 C1933 1.491 . S
C1928 H1919 0.950 . S
C1928 C1927 1.398 . S
C1928 C1929 1.391 . S
C1929 H1917 0.950 . S
C1929 C1925 1.393 . S
C1929 C1928 1.391 . S
C1930 H1920 0.950 . S
C1930 C1931 1.386 . S
C1930 C1932 1.391 . S
C1931 C1930 1.386 . S
C1931 C1935 1.393 . S
C1932 H1921 0.950 . S
C1932 C1930 1.391 . S
C1932 C1933 1.400 . S
C1933 C1927 1.491 . S
C1933 C1932 1.400 . S
C1933 C1934 1.398 . S
C1934 H1922 0.950 . S
C1934 C1933 1.398 . S
C1934 C1935 1.391 . S
C1935 H1923 0.950 . S
C1935 C1931 1.393 . S
C1935 C1934 1.391 . S
H1936 C1944 0.950 . S
H1937 C1949 0.950 . S
H1938 C1946 0.950 . S
H1939 C1948 0.950 . S
H1940 C1950 0.950 . S
H1941 C1952 0.950 . S
H1942 C1954 0.950 . S
H1943 C1955 0.950 . S
C1944 H1936 0.950 . S
C1944 C1945 1.386 . S
C1944 C1946 1.391 . S
C1945 C1944 1.386 . S
C1945 C1949 1.393 . S
C1946 H1938 0.950 . S
C1946 C1944 1.391 . S
C1946 C1947 1.400 . S
C1947 C1946 1.400 . S
C1947 C1948 1.398 . S
C1947 C1953 1.491 . S
C1948 H1939 0.950 . S
C1948 C1947 1.398 . S
C1948 C1949 1.391 . S
C1949 H1937 0.950 . S
C1949 C1945 1.393 . S
C1949 C1948 1.391 . S
C1950 H1940 0.950 . S
C1950 C1951 1.386 . S
C1950 C1952 1.391 . S
C1951 C1950 1.386 . S
C1951 C1955 1.393 . S
C1952 H1941 0.950 . S
C1952 C1950 1.391 . S
C1952 C1953 1.400 . S
C1953 C1947 1.491 . S
C1953 C1952 1.400 . S
C1953 C1954 1.398 . S
C1954 H1942 0.950 . S
C1954 C1953 1.398 . S
C1954 C1955 1.391 . S
C1955 H1943 0.950 . S
C1955 C1951 1.393 . S
C1955 C1954 1.391 . S
H1956 C1964 0.965 . S
H1957 C1969 0.950 . S
H1958 C1966 0.950 . S
H1959 C1968 0.950 . S
H1960 C1970 0.950 . S
H1961 C1972 0.950 . S
H1962 C1974 0.950 . S
H1963 C1975 0.950 . S
C1964 H1956 0.965 . S
C1964 C1965 1.386 . S
C1964 C1966 1.391 . S
C1965 C1964 1.386 . S
C1965 C1969 1.393 . S
C1966 H1958 0.950 . S
C1966 C1964 1.391 . S
C1966 C1967 1.400 . S
C1967 C1966 1.400 . S
C1967 C1968 1.398 . S
C1967 C1973 1.491 . S
C1968 H1959 0.950 . S
C1968 C1967 1.398 . S
C1968 C1969 1.391 . S
C1969 H1957 0.950 . S
C1969 C1965 1.393 . S
C1969 C1968 1.391 . S
C1970 H1960 0.950 . S
C1970 C1971 1.386 . S
C1970 C1972 1.391 . S
C1971 C1970 1.386 . S
C1971 C1975 1.393 . S
C1972 H1961 0.950 . S
C1972 C1970 1.391 . S
C1972 C1973 1.400 . S
C1973 C1967 1.491 . S
C1973 C1972 1.400 . S
C1973 C1974 1.398 . S
C1974 H1962 0.950 . S
C1974 C1973 1.398 . S
C1974 C1975 1.391 . S
C1975 H1963 0.950 . S
C1975 C1971 1.393 . S
C1975 C1974 1.391 . S
H1976 C1984 0.950 . S
H1977 C1989 0.950 . S
H1978 C1986 0.950 . S
H1979 C1988 0.950 . S
H1980 C1990 0.950 . S
H1981 C1992 0.950 . S
H1982 C1994 0.950 . S
H1983 C1995 0.950 . S
C1984 H1976 0.950 . S
C1984 C1985 1.386 . S
C1984 C1986 1.391 . S
C1985 C1984 1.386 . S
C1985 C1989 1.393 . S
C1986 H1978 0.950 . S
C1986 C1984 1.391 . S
C1986 C1987 1.400 . S
C1987 C1986 1.400 . S
C1987 C1988 1.398 . S
C1987 C1993 1.491 . S
C1988 H1979 0.950 . S
C1988 C1987 1.398 . S
C1988 C1989 1.391 . S
C1989 H1977 0.950 . S
C1989 C1985 1.393 . S
C1989 C1988 1.391 . S
C1990 H1980 0.950 . S
C1990 C1991 1.386 . S
C1990 C1992 1.391 . S
C1991 C1990 1.386 . S
C1991 C1995 1.393 . S
C1992 H1981 0.950 . S
C1992 C1990 1.391 . S
C1992 C1993 1.400 . S
C1993 C1987 1.491 . S
C1993 C1992 1.400 . S
C1993 C1994 1.398 . S
C1994 H1982 0.950 . S
C1994 C1993 1.398 . S
C1994 C1995 1.391 . S
C1995 H1983 0.950 . S
C1995 C1991 1.393 . S
C1995 C1994 1.391 . S
H1996 C2004 0.950 . S
H1997 C2009 0.950 . S
H1998 C2006 0.950 . S
H1999 C2008 0.950 . S
H2000 C2010 0.950 . S
H2001 C2012 0.950 . S
H2002 C2014 0.950 . S
H2003 C2015 0.950 . S
C2004 H1996 0.950 . S
C2004 C2005 1.386 . S
C2004 C2006 1.391 . S
C2005 C2004 1.386 . S
C2005 C2009 1.393 . S
C2006 H1998 0.950 . S
C2006 C2004 1.391 . S
C2006 C2007 1.400 . S
C2007 C2006 1.400 . S
C2007 C2008 1.398 . S
C2007 C2013 1.491 . S
C2008 H1999 0.950 . S
C2008 C2007 1.398 . S
C2008 C2009 1.391 . S
C2009 H1997 0.950 . S
C2009 C2005 1.393 . S
C2009 C2008 1.391 . S
C2010 H2000 0.950 . S
C2010 C2011 1.386 . S
C2010 C2012 1.391 . S
C2011 C2010 1.386 . S
C2011 C2015 1.393 . S
C2012 H2001 0.950 . S
C2012 C2010 1.391 . S
C2012 C2013 1.400 . S
C2013 C2007 1.491 . S
C2013 C2012 1.400 . S
C2013 C2014 1.398 . S
C2014 H2002 0.950 . S
C2014 C2013 1.398 . S
C2014 C2015 1.391 . S
C2015 H2003 0.950 . S
C2015 C2011 1.393 . S
C2015 C2014 1.391 . S
H2016 C2024 0.950 . S
H2017 C2029 0.950 . S
H2018 C2026 0.950 . S
H2019 C2028 0.950 . S
H2020 C2030 0.950 . S
H2021 C2032 0.950 . S
H2022 C2034 0.950 . S
H2023 C2035 0.950 . S
C2024 H2016 0.950 . S
C2024 C2025 1.386 . S
C2024 C2026 1.391 . S
C2025 C2024 1.386 . S
C2025 C2029 1.393 . S
C2026 H2018 0.950 . S
C2026 C2024 1.391 . S
C2026 C2027 1.400 . S
C2027 C2026 1.400 . S
C2027 C2028 1.398 . S
C2027 C2033 1.491 . S
C2028 H2019 0.950 . S
C2028 C2027 1.398 . S
C2028 C2029 1.391 . S
C2029 H2017 0.950 . S
C2029 C2025 1.393 . S
C2029 C2028 1.391 . S
C2030 H2020 0.950 . S
C2030 C2031 1.386 . S
C2030 C2032 1.391 . S
C2031 C2030 1.386 . S
C2031 C2035 1.393 . S
C2032 H2021 0.950 . S
C2032 C2030 1.391 . S
C2032 C2033 1.400 . S
C2033 C2027 1.491 . S
C2033 C2032 1.400 . S
C2033 C2034 1.398 . S
C2034 H2022 0.950 . S
C2034 C2033 1.398 . S
C2034 C2035 1.391 . S
C2035 H2023 0.950 . S
C2035 C2031 1.393 . S
C2035 C2034 1.391 . S
H2036 C2044 0.950 . S
H2037 C2049 0.950 . S
H2038 C2046 0.950 . S
H2039 C2048 0.950 . S
H2040 C2050 0.950 . S
H2041 C2052 0.950 . S
H2042 C2054 0.950 . S
H2043 C2055 0.950 . S
C2044 H2036 0.950 . S
C2044 C2045 1.386 . S
C2044 C2046 1.391 . S
C2045 C2044 1.386 . S
C2045 C2049 1.393 . S
C2046 H2038 0.950 . S
C2046 C2044 1.391 . S
C2046 C2047 1.400 . S
C2047 C2046 1.400 . S
C2047 C2048 1.398 1_565 S
C2047 C2053 1.491 1_465 S
C2048 H2039 0.950 . S
C2048 C2047 1.398 1_545 S
C2048 C2049 1.391 1_545 S
C2049 H2037 0.950 . S
C2049 C2045 1.393 . S
C2049 C2048 1.391 1_565 S
C2050 H2040 0.950 . S
C2050 C2051 1.386 . S
C2050 C2052 1.391 . S
C2051 C2050 1.386 . S
C2051 C2055 1.393 . S
C2052 H2041 0.950 . S
C2052 C2050 1.391 . S
C2052 C2053 1.400 . S
C2053 C2047 1.491 1_645 S
C2053 C2052 1.400 . S
C2053 C2054 1.398 1_545 S
C2054 H2042 0.950 . S
C2054 C2053 1.398 1_565 S
C2054 C2055 1.391 1_565 S
C2055 H2043 0.950 . S
C2055 C2051 1.393 . S
C2055 C2054 1.391 1_545 S
H2056 C2064 0.950 . S
H2057 C2069 0.950 . S
H2058 C2066 0.950 . S
H2059 C2068 0.950 . S
H2060 C2070 0.950 . S
H2061 C2072 0.950 . S
H2062 C2074 0.950 . S
H2063 C2075 0.950 . S
C2064 H2056 0.950 . S
C2064 C2065 1.386 . S
C2064 C2066 1.391 . S
C2065 C2064 1.386 . S
C2065 C2069 1.393 . S
C2066 H2058 0.950 . S
C2066 C2064 1.391 . S
C2066 C2067 1.400 . S
C2067 C2066 1.400 . S
C2067 C2068 1.398 . S
C2067 C2073 1.491 . S
C2068 H2059 0.950 . S
C2068 C2067 1.398 . S
C2068 C2069 1.391 . S
C2069 H2057 0.950 . S
C2069 C2065 1.393 . S
C2069 C2068 1.391 . S
C2070 H2060 0.950 . S
C2070 C2071 1.386 . S
C2070 C2072 1.391 . S
C2071 C2070 1.386 . S
C2071 C2075 1.393 . S
C2072 H2061 0.950 . S
C2072 C2070 1.391 . S
C2072 C2073 1.400 . S
C2073 C2067 1.491 . S
C2073 C2072 1.400 . S
C2073 C2074 1.398 . S
C2074 H2062 0.950 . S
C2074 C2073 1.398 . S
C2074 C2075 1.391 . S
C2075 H2063 0.950 . S
C2075 C2071 1.393 . S
C2075 C2074 1.391 . S
H2076 C2084 0.950 1_554 S
H2077 C2089 0.950 1_545 S
H2078 C2086 0.950 . S
H2079 C2088 0.950 . S
H2080 C2090 0.950 1_556 S
H2081 C2092 0.950 . S
H2082 C2094 0.950 . S
H2083 C2095 0.950 1_565 S
C2084 H2076 0.950 1_556 S
C2084 C2085 1.386 . S
C2084 C2086 1.391 1_556 S
C2085 C2084 1.386 . S
C2085 C2089 1.393 . S
C2086 H2078 0.950 . S
C2086 C2084 1.391 1_554 S
C2086 C2087 1.400 1_554 S
C2087 C2086 1.400 1_556 S
C2087 C2088 1.398 1_565 S
C2087 C2093 1.491 1_566 S
C2088 H2079 0.950 . S
C2088 C2087 1.398 1_545 S
C2088 C2089 1.391 1_545 S
C2089 H2077 0.950 1_565 S
C2089 C2085 1.393 . S
C2089 C2088 1.391 1_565 S
C2090 H2080 0.950 1_554 S
C2090 C2091 1.386 . S
C2090 C2092 1.391 1_554 S
C2091 C2090 1.386 . S
C2091 C2095 1.393 . S
C2092 H2081 0.950 . S
C2092 C2090 1.391 1_556 S
C2092 C2093 1.400 1_556 S
C2093 C2087 1.491 1_544 S
C2093 C2092 1.400 1_554 S
C2093 C2094 1.398 1_545 S
C2094 H2082 0.950 . S
C2094 C2093 1.398 1_565 S
C2094 C2095 1.391 1_565 S
C2095 H2083 0.950 1_545 S
C2095 C2091 1.393 . S
C2095 C2094 1.391 1_545 S
H2096 C2104 0.950 . S
H2097 C2109 0.950 . S
H2098 C2106 0.950 . S
H2099 C2108 0.950 . S
H2100 C2110 0.950 . S
H2101 C2112 0.950 . S
H2102 C2114 0.950 . S
H2103 C2115 0.950 . S
C2104 H2096 0.950 . S
C2104 C2105 1.386 . S
C2104 C2106 1.391 . S
C2105 C2104 1.386 . S
C2105 C2109 1.393 . S
C2106 H2098 0.950 . S
C2106 C2104 1.391 . S
C2106 C2107 1.400 . S
C2107 C2106 1.400 . S
C2107 C2108 1.398 . S
C2107 C2113 1.491 . S
C2108 H2099 0.950 . S
C2108 C2107 1.398 . S
C2108 C2109 1.391 . S
C2109 H2097 0.950 . S
C2109 C2105 1.393 . S
C2109 C2108 1.391 . S
C2110 H2100 0.950 . S
C2110 C2111 1.386 . S
C2110 C2112 1.391 . S
C2111 C2110 1.386 . S
C2111 C2115 1.393 . S
C2112 H2101 0.950 . S
C2112 C2110 1.391 . S
C2112 C2113 1.400 . S
C2113 C2107 1.491 . S
C2113 C2112 1.400 . S
C2113 C2114 1.398 . S
C2114 H2102 0.950 . S
C2114 C2113 1.398 . S
C2114 C2115 1.391 . S
C2115 H2103 0.950 . S
C2115 C2111 1.393 . S
C2115 C2114 1.391 . S
H2116 C2124 0.950 . S
H2117 C2129 0.950 . S
H2118 C2126 0.998 . S
H2119 C2128 0.950 . S
H2120 C2130 0.950 . S
H2121 C2132 0.998 . S
H2122 C2134 0.950 . S
H2123 C2135 0.950 . S
C2124 H2116 0.950 . S
C2124 C2125 1.386 . S
C2124 C2126 1.363 1_565 S
C2125 C2124 1.386 . S
C2125 C2129 1.393 . S
C2126 H2118 0.998 . S
C2126 C2124 1.363 1_545 S
C2126 C2127 1.383 1_545 S
C2127 C2126 1.383 1_565 S
C2127 C2128 1.398 . S
C2127 C2133 1.491 1_565 S
C2128 H2119 0.950 . S
C2128 C2127 1.398 . S
C2128 C2129 1.391 . S
C2129 H2117 0.950 . S
C2129 C2125 1.393 . S
C2129 C2128 1.391 . S
C2130 H2120 0.950 . S
C2130 C2131 1.386 . S
C2130 C2132 1.363 1_545 S
C2131 C2130 1.386 . S
C2131 C2135 1.393 . S
C2132 H2121 0.998 . S
C2132 C2130 1.363 1_565 S
C2132 C2133 1.383 1_565 S
C2133 C2127 1.491 1_545 S
C2133 C2132 1.383 1_545 S
C2133 C2134 1.398 . S
C2134 H2122 0.950 . S
C2134 C2133 1.398 . S
C2134 C2135 1.391 . S
C2135 H2123 0.950 . S
C2135 C2131 1.393 . S
C2135 C2134 1.391 . S
H2136 C2144 0.950 . S
H2137 C2149 0.950 . S
H2138 C2146 0.950 . S
H2139 C2148 0.950 . S
H2140 C2150 0.950 . S
H2141 C2152 0.950 . S
H2142 C2154 0.950 . S
H2143 C2155 0.950 . S
C2144 H2136 0.950 . S
C2144 C2145 1.386 . S
C2144 C2146 1.391 . S
C2145 C2144 1.386 . S
C2145 C2149 1.393 . S
C2146 H2138 0.950 . S
C2146 C2144 1.391 . S
C2146 C2147 1.400 . S
C2147 C2146 1.400 . S
C2147 C2148 1.398 . S
C2147 C2153 1.491 . S
C2148 H2139 0.950 . S
C2148 C2147 1.398 . S
C2148 C2149 1.391 . S
C2149 H2137 0.950 . S
C2149 C2145 1.393 . S
C2149 C2148 1.391 . S
C2150 H2140 0.950 . S
C2150 C2151 1.386 . S
C2150 C2152 1.391 . S
C2151 C2150 1.386 . S
C2151 C2155 1.393 . S
C2152 H2141 0.950 . S
C2152 C2150 1.391 . S
C2152 C2153 1.400 . S
C2153 C2147 1.491 . S
C2153 C2152 1.400 . S
C2153 C2154 1.398 . S
C2154 H2142 0.950 . S
C2154 C2153 1.398 . S
C2154 C2155 1.391 . S
C2155 H2143 0.950 . S
C2155 C2151 1.393 . S
C2155 C2154 1.391 . S
H2156 C2164 0.950 1_554 S
H2157 C2169 0.950 . S
H2158 C2166 0.950 . S
H2159 C2168 0.950 1_655 S
H2160 C2170 0.950 1_556 S
H2161 C2172 0.950 . S
H2162 C2174 0.950 1_455 S
H2163 C2175 0.950 . S
C2164 H2156 0.950 1_556 S
C2164 C2165 1.386 . S
C2164 C2166 1.391 1_546 S
C2165 C2164 1.386 . S
C2165 C2169 1.393 . S
C2166 H2158 0.950 . S
C2166 C2164 1.391 1_564 S
C2166 C2167 1.400 1_564 S
C2167 C2166 1.400 1_546 S
C2167 C2168 1.398 . S
C2167 C2173 1.491 1_446 S
C2168 H2159 0.950 1_455 S
C2168 C2167 1.398 . S
C2168 C2169 1.391 . S
C2169 H2157 0.950 . S
C2169 C2165 1.393 . S
C2169 C2168 1.391 . S
C2170 H2160 0.950 1_554 S
C2170 C2171 1.386 . S
C2170 C2172 1.391 1_564 S
C2171 C2170 1.386 . S
C2171 C2175 1.393 . S
C2172 H2161 0.950 . S
C2172 C2170 1.391 1_546 S
C2172 C2173 1.400 1_546 S
C2173 C2167 1.491 1_664 S
C2173 C2172 1.400 1_564 S
C2173 C2174 1.398 . S
C2174 H2162 0.950 1_655 S
C2174 C2173 1.398 . S
C2174 C2175 1.391 . S
C2175 H2163 0.950 . S
C2175 C2171 1.393 . S
C2175 C2174 1.391 . S
H2176 C2184 0.950 . S
H2177 C2189 0.950 . S
H2178 C2186 0.950 . S
H2179 C2188 0.950 . S
H2180 C2190 0.950 . S
H2181 C2192 0.950 . S
H2182 C2194 0.950 . S
H2183 C2195 0.950 . S
C2184 H2176 0.950 . S
C2184 C2185 1.386 . S
C2184 C2186 1.391 . S
C2185 C2184 1.386 . S
C2185 C2189 1.393 . S
C2186 H2178 0.950 . S
C2186 C2184 1.391 . S
C2186 C2187 1.400 . S
C2187 C2186 1.400 . S
C2187 C2188 1.398 . S
C2187 C2193 1.491 . S
C2188 H2179 0.950 . S
C2188 C2187 1.398 . S
C2188 C2189 1.391 . S
C2189 H2177 0.950 . S
C2189 C2185 1.393 . S
C2189 C2188 1.391 . S
C2190 H2180 0.950 . S
C2190 C2191 1.386 . S
C2190 C2192 1.391 . S
C2191 C2190 1.386 . S
C2191 C2195 1.393 . S
C2192 H2181 0.950 . S
C2192 C2190 1.391 . S
C2192 C2193 1.400 . S
C2193 C2187 1.491 . S
C2193 C2192 1.400 . S
C2193 C2194 1.398 . S
C2194 H2182 0.950 . S
C2194 C2193 1.398 . S
C2194 C2195 1.391 . S
C2195 H2183 0.950 . S
C2195 C2191 1.393 . S
C2195 C2194 1.391 . S
H2196 C2204 0.950 . S
H2197 C2209 0.950 . S
H2198 C2206 0.950 . S
H2199 C2208 0.950 . S
H2200 C2210 0.950 . S
H2201 C2212 0.950 . S
H2202 C2214 0.950 . S
H2203 C2215 0.950 . S
C2204 H2196 0.950 . S
C2204 C2205 1.386 . S
C2204 C2206 1.391 . S
C2205 C2204 1.386 . S
C2205 C2209 1.393 . S
C2206 H2198 0.950 . S
C2206 C2204 1.391 . S
C2206 C2207 1.400 . S
C2207 C2206 1.400 . S
C2207 C2208 1.398 . S
C2207 C2213 1.491 . S
C2208 H2199 0.950 . S
C2208 C2207 1.398 . S
C2208 C2209 1.391 . S
C2209 H2197 0.950 . S
C2209 C2205 1.393 . S
C2209 C2208 1.391 . S
C2210 H2200 0.950 . S
C2210 C2211 1.386 . S
C2210 C2212 1.391 . S
C2211 C2210 1.386 . S
C2211 C2215 1.393 . S
C2212 H2201 0.950 . S
C2212 C2210 1.391 . S
C2212 C2213 1.400 . S
C2213 C2207 1.491 . S
C2213 C2212 1.400 . S
C2213 C2214 1.398 . S
C2214 H2202 0.950 . S
C2214 C2213 1.398 . S
C2214 C2215 1.391 . S
C2215 H2203 0.950 . S
C2215 C2211 1.393 . S
C2215 C2214 1.391 . S
H2216 C2224 0.950 . S
H2217 C2229 0.950 . S
H2218 C2226 0.950 . S
H2219 C2228 0.950 . S
H2220 C2230 0.950 . S
H2221 C2232 0.950 . S
H2222 C2234 0.950 . S
H2223 C2235 0.950 . S
C2224 H2216 0.950 . S
C2224 C2225 1.386 . S
C2224 C2226 1.391 . S
C2225 C2224 1.386 . S
C2225 C2229 1.393 . S
C2226 H2218 0.950 . S
C2226 C2224 1.391 . S
C2226 C2227 1.400 . S
C2227 C2226 1.400 . S
C2227 C2228 1.398 . S
C2227 C2233 1.491 . S
C2228 H2219 0.950 . S
C2228 C2227 1.398 . S
C2228 C2229 1.391 . S
C2229 H2217 0.950 . S
C2229 C2225 1.393 . S
C2229 C2228 1.391 . S
C2230 H2220 0.950 . S
C2230 C2231 1.386 . S
C2230 C2232 1.391 . S
C2231 C2230 1.386 . S
C2231 C2235 1.393 . S
C2232 H2221 0.950 . S
C2232 C2230 1.391 . S
C2232 C2233 1.400 . S
C2233 C2227 1.491 . S
C2233 C2232 1.400 . S
C2233 C2234 1.398 . S
C2234 H2222 0.950 . S
C2234 C2233 1.398 . S
C2234 C2235 1.391 . S
C2235 H2223 0.950 . S
C2235 C2231 1.393 . S
C2235 C2234 1.391 . S
H2236 C2244 0.950 . S
H2237 C2249 0.950 . S
H2238 C2246 0.950 . S
H2239 C2248 0.950 . S
H2240 C2250 0.950 . S
H2241 C2252 0.950 . S
H2242 C2254 0.950 . S
H2243 C2255 0.950 . S
C2244 H2236 0.950 . S
C2244 C2245 1.386 . S
C2244 C2246 1.391 . S
C2245 C2244 1.386 . S
C2245 C2249 1.393 . S
C2246 H2238 0.950 . S
C2246 C2244 1.391 . S
C2246 C2247 1.400 . S
C2247 C2246 1.400 . S
C2247 C2248 1.398 . S
C2247 C2253 1.491 . S
C2248 H2239 0.950 . S
C2248 C2247 1.398 . S
C2248 C2249 1.391 . S
C2249 H2237 0.950 . S
C2249 C2245 1.393 . S
C2249 C2248 1.391 . S
C2250 H2240 0.950 . S
C2250 C2251 1.386 . S
C2250 C2252 1.391 . S
C2251 C2250 1.386 . S
C2251 C2255 1.393 . S
C2252 H2241 0.950 . S
C2252 C2250 1.391 . S
C2252 C2253 1.400 . S
C2253 C2247 1.491 . S
C2253 C2252 1.400 . S
C2253 C2254 1.398 . S
C2254 H2242 0.950 . S
C2254 C2253 1.398 . S
C2254 C2255 1.391 . S
C2255 H2243 0.950 . S
C2255 C2251 1.393 . S
C2255 C2254 1.391 . S
H2256 C2264 0.950 . S
H2257 C2269 0.950 . S
H2258 C2266 0.950 . S
H2259 C2268 0.950 . S
H2260 C2270 0.950 . S
H2261 C2272 0.950 . S
H2262 C2274 0.950 . S
H2263 C2275 0.950 . S
C2264 H2256 0.950 . S
C2264 C2265 1.386 . S
C2264 C2266 1.391 . S
C2265 C2264 1.386 . S
C2265 C2269 1.393 1_554 S
C2266 H2258 0.950 . S
C2266 C2264 1.391 . S
C2266 C2267 1.400 . S
C2267 C2266 1.400 . S
C2267 C2268 1.398 1_554 S
C2267 C2273 1.491 1_554 S
C2268 H2259 0.950 . S
C2268 C2267 1.398 1_556 S
C2268 C2269 1.391 . S
C2269 H2257 0.950 . S
C2269 C2265 1.393 1_556 S
C2269 C2268 1.391 . S
C2270 H2260 0.950 . S
C2270 C2271 1.386 . S
C2270 C2272 1.391 . S
C2271 C2270 1.386 . S
C2271 C2275 1.393 1_556 S
C2272 H2261 0.950 . S
C2272 C2270 1.391 . S
C2272 C2273 1.400 . S
C2273 C2267 1.491 1_556 S
C2273 C2272 1.400 . S
C2273 C2274 1.398 1_556 S
C2274 H2262 0.950 . S
C2274 C2273 1.398 1_554 S
C2274 C2275 1.391 . S
C2275 H2263 0.950 . S
C2275 C2271 1.393 1_554 S
C2275 C2274 1.391 . S
H2276 C2284 0.950 . S
H2277 C2289 0.950 . S
H2278 C2286 0.950 . S
H2279 C2288 0.950 . S
H2280 C2290 0.950 . S
H2281 C2292 0.950 . S
H2282 C2294 0.950 . S
H2283 C2295 0.950 . S
C2284 H2276 0.950 . S
C2284 C2285 1.386 . S
C2284 C2286 1.391 . S
C2285 C2284 1.386 . S
C2285 C2289 1.393 . S
C2286 H2278 0.950 . S
C2286 C2284 1.391 . S
C2286 C2287 1.400 . S
C2287 C2286 1.400 . S
C2287 C2288 1.398 . S
C2287 C2293 1.491 1_455 S
C2288 H2279 0.950 . S
C2288 C2287 1.398 . S
C2288 C2289 1.391 . S
C2289 H2277 0.950 . S
C2289 C2285 1.393 . S
C2289 C2288 1.391 . S
C2290 H2280 0.950 . S
C2290 C2291 1.386 . S
C2290 C2292 1.391 . S
C2291 C2290 1.386 . S
C2291 C2295 1.393 . S
C2292 H2281 0.950 . S
C2292 C2290 1.391 . S
C2292 C2293 1.400 . S
C2293 C2287 1.491 1_655 S
C2293 C2292 1.400 . S
C2293 C2294 1.398 . S
C2294 H2282 0.950 . S
C2294 C2293 1.398 . S
C2294 C2295 1.391 . S
C2295 H2283 0.950 . S
C2295 C2291 1.393 . S
C2295 C2294 1.391 . S
H2296 C2304 0.950 . S
H2297 C2309 0.950 . S
H2298 C2306 0.950 . S
H2299 C2308 0.950 . S
H2300 C2310 0.950 . S
H2301 C2312 0.950 . S
H2302 C2314 0.950 . S
H2303 C2315 0.950 . S
C2304 H2296 0.950 . S
C2304 C2305 1.386 1_554 S
C2304 C2306 1.391 . S
C2305 C2304 1.386 1_556 S
C2305 C2309 1.393 . S
C2306 H2298 0.950 . S
C2306 C2304 1.391 . S
C2306 C2307 1.400 1_554 S
C2307 C2306 1.400 1_556 S
C2307 C2308 1.398 . S
C2307 C2313 1.491 1_656 S
C2308 H2299 0.950 . S
C2308 C2307 1.398 . S
C2308 C2309 1.391 . S
C2309 H2297 0.950 . S
C2309 C2305 1.393 . S
C2309 C2308 1.391 . S
C2310 H2300 0.950 . S
C2310 C2311 1.386 1_556 S
C2310 C2312 1.391 . S
C2311 C2310 1.386 1_554 S
C2311 C2315 1.393 . S
C2312 H2301 0.950 . S
C2312 C2310 1.391 . S
C2312 C2313 1.400 1_556 S
C2313 C2307 1.491 1_454 S
C2313 C2312 1.400 1_554 S
C2313 C2314 1.398 . S
C2314 H2302 0.950 . S
C2314 C2313 1.398 . S
C2314 C2315 1.391 . S
C2315 H2303 0.950 . S
C2315 C2311 1.393 . S
C2315 C2314 1.391 . S
H2316 C2324 0.950 . S
H2317 C2329 0.950 . S
H2318 C2326 0.950 . S
H2319 C2328 0.950 . S
H2320 C2330 0.950 . S
H2321 C2332 0.950 . S
H2322 C2334 0.950 . S
H2323 C2335 0.950 . S
C2324 H2316 0.950 . S
C2324 C2325 1.386 . S
C2324 C2326 1.391 . S
C2325 C2324 1.386 . S
C2325 C2329 1.393 . S
C2326 H2318 0.950 . S
C2326 C2324 1.391 . S
C2326 C2327 1.400 . S
C2327 C2326 1.400 . S
C2327 C2328 1.398 . S
C2327 C2333 1.491 . S
C2328 H2319 0.950 . S
C2328 C2327 1.398 . S
C2328 C2329 1.391 . S
C2329 H2317 0.950 . S
C2329 C2325 1.393 . S
C2329 C2328 1.391 . S
C2330 H2320 0.950 . S
C2330 C2331 1.386 . S
C2330 C2332 1.391 . S
C2331 C2330 1.386 . S
C2331 C2335 1.393 . S
C2332 H2321 0.950 . S
C2332 C2330 1.391 . S
C2332 C2333 1.400 . S
C2333 C2327 1.491 . S
C2333 C2332 1.400 . S
C2333 C2334 1.398 . S
C2334 H2322 0.950 . S
C2334 C2333 1.398 . S
C2334 C2335 1.391 . S
C2335 H2323 0.950 . S
C2335 C2331 1.393 . S
C2335 C2334 1.391 . S
H2336 C2344 0.950 . S
H2337 C2349 0.950 . S
H2338 C2346 0.950 . S
H2339 C2348 0.950 . S
H2340 C2350 0.950 . S
H2341 C2352 0.950 . S
H2342 C2354 0.950 . S
H2343 C2355 0.950 . S
C2344 H2336 0.950 . S
C2344 C2345 1.386 . S
C2344 C2346 1.391 . S
C2345 C2344 1.386 . S
C2345 C2349 1.393 . S
C2346 H2338 0.950 . S
C2346 C2344 1.391 . S
C2346 C2347 1.400 . S
C2347 C2346 1.400 . S
C2347 C2348 1.398 . S
C2347 C2353 1.491 . S
C2348 H2339 0.950 . S
C2348 C2347 1.398 . S
C2348 C2349 1.391 . S
C2349 H2337 0.950 . S
C2349 C2345 1.393 . S
C2349 C2348 1.391 . S
C2350 H2340 0.950 . S
C2350 C2351 1.386 . S
C2350 C2352 1.391 . S
C2351 C2350 1.386 . S
C2351 C2355 1.393 . S
C2352 H2341 0.950 . S
C2352 C2350 1.391 . S
C2352 C2353 1.400 . S
C2353 C2347 1.491 . S
C2353 C2352 1.400 . S
C2353 C2354 1.398 . S
C2354 H2342 0.950 . S
C2354 C2353 1.398 . S
C2354 C2355 1.391 . S
C2355 H2343 0.950 . S
C2355 C2351 1.393 . S
C2355 C2354 1.391 . S
H2356 C2364 0.950 . S
H2357 C2369 0.950 . S
H2358 C2366 0.950 . S
H2359 C2368 0.950 1_565 S
H2360 C2370 0.950 . S
H2361 C2372 0.950 . S
H2362 C2374 0.950 1_545 S
H2363 C2375 0.950 . S
C2364 H2356 0.950 . S
C2364 C2365 1.386 . S
C2364 C2366 1.391 . S
C2365 C2364 1.386 . S
C2365 C2369 1.393 . S
C2366 H2358 0.950 . S
C2366 C2364 1.391 . S
C2366 C2367 1.400 . S
C2367 C2366 1.400 . S
C2367 C2368 1.398 . S
C2367 C2373 1.491 1_545 S
C2368 H2359 0.950 1_545 S
C2368 C2367 1.398 . S
C2368 C2369 1.391 . S
C2369 H2357 0.950 . S
C2369 C2365 1.393 . S
C2369 C2368 1.391 . S
C2370 H2360 0.950 . S
C2370 C2371 1.386 . S
C2370 C2372 1.391 . S
C2371 C2370 1.386 . S
C2371 C2375 1.393 . S
C2372 H2361 0.950 . S
C2372 C2370 1.391 . S
C2372 C2373 1.400 . S
C2373 C2367 1.491 1_565 S
C2373 C2372 1.400 . S
C2373 C2374 1.398 . S
C2374 H2362 0.950 1_565 S
C2374 C2373 1.398 . S
C2374 C2375 1.391 . S
C2375 H2363 0.950 . S
C2375 C2371 1.393 . S
C2375 C2374 1.391 . S
H2376 C2384 0.950 . S
H2377 C2389 0.950 . S
H2378 C2386 0.950 1_556 S
H2379 C2388 0.950 . S
H2380 C2390 0.950 . S
H2381 C2392 0.950 1_554 S
H2382 C2394 0.950 . S
H2383 C2395 0.950 . S
C2384 H2376 0.950 . S
C2384 C2385 1.386 . S
C2384 C2386 1.391 . S
C2385 C2384 1.386 . S
C2385 C2389 1.393 . S
C2386 H2378 0.950 1_554 S
C2386 C2384 1.391 . S
C2386 C2387 1.400 . S
C2387 C2386 1.400 . S
C2387 C2388 1.398 . S
C2387 C2393 1.491 1_554 S
C2388 H2379 0.950 . S
C2388 C2387 1.398 . S
C2388 C2389 1.391 . S
C2389 H2377 0.950 . S
C2389 C2385 1.393 . S
C2389 C2388 1.391 . S
C2390 H2380 0.950 . S
C2390 C2391 1.386 . S
C2390 C2392 1.391 . S
C2391 C2390 1.386 . S
C2391 C2395 1.393 . S
C2392 H2381 0.950 1_556 S
C2392 C2390 1.391 . S
C2392 C2393 1.400 . S
C2393 C2387 1.491 1_556 S
C2393 C2392 1.400 . S
C2393 C2394 1.398 . S
C2394 H2382 0.950 . S
C2394 C2393 1.398 . S
C2394 C2395 1.391 . S
C2395 H2383 0.950 . S
C2395 C2391 1.393 . S
C2395 C2394 1.391 . S
H2396 C2404 0.950 . S
H2397 C2409 0.950 . S
H2398 C2406 0.950 . S
H2399 C2408 0.950 1_545 S
H2400 C2410 0.950 . S
H2401 C2412 0.950 . S
H2402 C2414 0.950 1_565 S
H2403 C2415 0.950 . S
C2404 H2396 0.950 . S
C2404 C2405 1.386 . S
C2404 C2406 1.391 . S
C2405 C2404 1.386 . S
C2405 C2409 1.393 . S
C2406 H2398 0.950 . S
C2406 C2404 1.391 . S
C2406 C2407 1.400 . S
C2407 C2406 1.400 . S
C2407 C2408 1.398 . S
C2407 C2413 1.491 1_565 S
C2408 H2399 0.950 1_565 S
C2408 C2407 1.398 . S
C2408 C2409 1.391 . S
C2409 H2397 0.950 . S
C2409 C2405 1.393 . S
C2409 C2408 1.391 . S
C2410 H2400 0.950 . S
C2410 C2411 1.386 . S
C2410 C2412 1.391 . S
C2411 C2410 1.386 . S
C2411 C2415 1.393 . S
C2412 H2401 0.950 . S
C2412 C2410 1.391 . S
C2412 C2413 1.400 . S
C2413 C2407 1.491 1_545 S
C2413 C2412 1.400 . S
C2413 C2414 1.398 . S
C2414 H2402 0.950 1_545 S
C2414 C2413 1.398 . S
C2414 C2415 1.391 . S
C2415 H2403 0.950 . S
C2415 C2411 1.393 . S
C2415 C2414 1.391 . S
H2416 C2424 0.950 . S
H2417 C2429 0.950 . S
H2418 C2426 0.950 . S
H2419 C2428 0.950 . S
H2420 C2430 0.950 . S
H2421 C2432 0.950 . S
H2422 C2434 0.950 . S
H2423 C2435 0.950 . S
C2424 H2416 0.950 . S
C2424 C2425 1.386 . S
C2424 C2426 1.391 . S
C2425 C2424 1.386 . S
C2425 C2429 1.393 . S
C2426 H2418 0.950 . S
C2426 C2424 1.391 . S
C2426 C2427 1.400 . S
C2427 C2426 1.400 . S
C2427 C2428 1.398 . S
C2427 C2433 1.491 . S
C2428 H2419 0.950 . S
C2428 C2427 1.398 . S
C2428 C2429 1.391 . S
C2429 H2417 0.950 . S
C2429 C2425 1.393 . S
C2429 C2428 1.391 . S
C2430 H2420 0.950 . S
C2430 C2431 1.386 . S
C2430 C2432 1.391 . S
C2431 C2430 1.386 . S
C2431 C2435 1.393 . S
C2432 H2421 0.950 . S
C2432 C2430 1.391 . S
C2432 C2433 1.400 . S
C2433 C2427 1.491 . S
C2433 C2432 1.400 . S
C2433 C2434 1.398 . S
C2434 H2422 0.950 . S
C2434 C2433 1.398 . S
C2434 C2435 1.391 . S
C2435 H2423 0.950 . S
C2435 C2431 1.393 . S
C2435 C2434 1.391 . S
H2436 C2444 0.950 . S
H2437 C2449 0.950 . S
H2438 C2446 0.950 1_565 S
H2439 C2448 0.950 . S
H2440 C2450 0.950 . S
H2441 C2452 0.950 1_545 S
H2442 C2454 0.950 . S
H2443 C2455 0.950 . S
C2444 H2436 0.950 . S
C2444 C2445 1.386 . S
C2444 C2446 1.391 . S
C2445 C2444 1.386 . S
C2445 C2449 1.393 . S
C2446 H2438 0.950 1_545 S
C2446 C2444 1.391 . S
C2446 C2447 1.400 . S
C2447 C2446 1.400 . S
C2447 C2448 1.398 . S
C2447 C2453 1.491 1_545 S
C2448 H2439 0.950 . S
C2448 C2447 1.398 . S
C2448 C2449 1.391 . S
C2449 H2437 0.950 . S
C2449 C2445 1.393 . S
C2449 C2448 1.391 . S
C2450 H2440 0.950 . S
C2450 C2451 1.386 . S
C2450 C2452 1.391 . S
C2451 C2450 1.386 . S
C2451 C2455 1.393 . S
C2452 H2441 0.950 1_565 S
C2452 C2450 1.391 . S
C2452 C2453 1.400 . S
C2453 C2447 1.491 1_565 S
C2453 C2452 1.400 . S
C2453 C2454 1.398 . S
C2454 H2442 0.950 . S
C2454 C2453 1.398 . S
C2454 C2455 1.391 . S
C2455 H2443 0.950 . S
C2455 C2451 1.393 . S
C2455 C2454 1.391 . S
H2456 C2464 0.950 . S
H2457 C2469 0.950 . S
H2458 C2466 0.950 . S
H2459 C2468 0.950 1_554 S
H2460 C2470 0.950 . S
H2461 C2472 0.950 . S
H2462 C2474 0.950 1_556 S
H2463 C2475 0.950 . S
C2464 H2456 0.950 . S
C2464 C2465 1.386 . S
C2464 C2466 1.391 . S
C2465 C2464 1.386 . S
C2465 C2469 1.393 . S
C2466 H2458 0.950 . S
C2466 C2464 1.391 . S
C2466 C2467 1.400 . S
C2467 C2466 1.400 . S
C2467 C2468 1.398 . S
C2467 C2473 1.491 1_556 S
C2468 H2459 0.950 1_556 S
C2468 C2467 1.398 . S
C2468 C2469 1.391 . S
C2469 H2457 0.950 . S
C2469 C2465 1.393 . S
C2469 C2468 1.391 . S
C2470 H2460 0.950 . S
C2470 C2471 1.386 . S
C2470 C2472 1.391 . S
C2471 C2470 1.386 . S
C2471 C2475 1.393 . S
C2472 H2461 0.950 . S
C2472 C2470 1.391 . S
C2472 C2473 1.400 . S
C2473 C2467 1.491 1_554 S
C2473 C2472 1.400 . S
C2473 C2474 1.398 . S
C2474 H2462 0.950 1_554 S
C2474 C2473 1.398 . S
C2474 C2475 1.391 . S
C2475 H2463 0.950 . S
C2475 C2471 1.393 . S
C2475 C2474 1.391 . S
H2476 C2484 0.950 . S
H2477 C2489 0.950 . S
H2478 C2486 0.950 . S
H2479 C2488 0.950 . S
H2480 C2490 0.950 . S
H2481 C2492 0.950 . S
H2482 C2494 0.950 . S
H2483 C2495 0.950 . S
C2484 H2476 0.950 . S
C2484 C2485 1.386 . S
C2484 C2486 1.391 . S
C2485 C2484 1.386 . S
C2485 C2489 1.393 . S
C2486 H2478 0.950 . S
C2486 C2484 1.391 . S
C2486 C2487 1.400 . S
C2487 C2486 1.400 . S
C2487 C2488 1.398 . S
C2487 C2493 1.491 1_545 S
C2488 H2479 0.950 . S
C2488 C2487 1.398 . S
C2488 C2489 1.391 . S
C2489 H2477 0.950 . S
C2489 C2485 1.393 . S
C2489 C2488 1.391 . S
C2490 H2480 0.950 . S
C2490 C2491 1.386 . S
C2490 C2492 1.391 . S
C2491 C2490 1.386 . S
C2491 C2495 1.393 . S
C2492 H2481 0.950 . S
C2492 C2490 1.391 . S
C2492 C2493 1.400 . S
C2493 C2487 1.491 1_565 S
C2493 C2492 1.400 . S
C2493 C2494 1.398 . S
C2494 H2482 0.950 . S
C2494 C2493 1.398 . S
C2494 C2495 1.391 . S
C2495 H2483 0.950 . S
C2495 C2491 1.393 . S
C2495 C2494 1.391 . S
H2496 C2504 0.950 . S
H2497 C2509 0.950 . S
H2498 C2506 0.950 . S
H2499 C2508 0.950 1_554 S
H2500 C2510 0.950 . S
H2501 C2512 0.950 . S
H2502 C2514 0.921 1_556 S
H2503 C2515 0.950 . S
C2504 H2496 0.950 . S
C2504 C2505 1.386 . S
C2504 C2506 1.391 . S
C2505 C2504 1.386 . S
C2505 C2509 1.393 . S
C2506 H2498 0.950 . S
C2506 C2504 1.391 . S
C2506 C2507 1.400 . S
C2507 C2506 1.400 . S
C2507 C2508 1.398 . S
C2507 C2513 1.491 1_556 S
C2508 H2499 0.950 1_556 S
C2508 C2507 1.398 . S
C2508 C2509 1.391 . S
C2509 H2497 0.950 . S
C2509 C2505 1.393 . S
C2509 C2508 1.391 . S
C2510 H2500 0.950 . S
C2510 C2511 1.386 . S
C2510 C2512 1.391 . S
C2511 C2510 1.386 . S
C2511 C2515 1.393 . S
C2512 H2501 0.950 . S
C2512 C2510 1.391 . S
C2512 C2513 1.400 . S
C2513 C2507 1.491 1_554 S
C2513 C2512 1.400 . S
C2513 C2514 1.408 . S
C2514 H2502 0.921 1_554 S
C2514 C2513 1.408 . S
C2514 C2515 1.409 . S
C2515 H2503 0.950 . S
C2515 C2511 1.393 . S
C2515 C2514 1.409 . S
H2516 C2524 0.950 . S
H2517 C2529 0.950 . S
H2518 C2526 0.950 . S
H2519 C2528 0.950 . S
H2520 C2530 0.950 . S
H2521 C2532 0.950 . S
H2522 C2534 0.950 . S
H2523 C2535 0.950 . S
C2524 H2516 0.950 . S
C2524 C2525 1.386 . S
C2524 C2526 1.391 . S
C2525 C2524 1.386 . S
C2525 C2529 1.393 . S
C2526 H2518 0.950 . S
C2526 C2524 1.391 . S
C2526 C2527 1.400 . S
C2527 C2526 1.400 . S
C2527 C2528 1.398 . S
C2527 C2533 1.491 . S
C2528 H2519 0.950 . S
C2528 C2527 1.398 . S
C2528 C2529 1.391 . S
C2529 H2517 0.950 . S
C2529 C2525 1.393 . S
C2529 C2528 1.391 . S
C2530 H2520 0.950 . S
C2530 C2531 1.386 . S
C2530 C2532 1.391 . S
C2531 C2530 1.386 . S
C2531 C2535 1.393 . S
C2532 H2521 0.950 . S
C2532 C2530 1.391 . S
C2532 C2533 1.400 . S
C2533 C2527 1.491 . S
C2533 C2532 1.400 . S
C2533 C2534 1.398 . S
C2534 H2522 0.950 . S
C2534 C2533 1.398 . S
C2534 C2535 1.391 . S
C2535 H2523 0.950 . S
C2535 C2531 1.393 . S
C2535 C2534 1.391 . S
H2536 C2544 0.950 . S
H2537 C2549 0.950 . S
H2538 C2546 0.950 . S
H2539 C2548 0.950 . S
H2540 C2550 0.950 . S
H2541 C2552 0.950 . S
H2542 C2554 0.950 . S
H2543 C2555 0.950 . S
C2544 H2536 0.950 . S
C2544 C2545 1.386 . S
C2544 C2546 1.391 . S
C2545 C2544 1.386 . S
C2545 C2549 1.393 . S
C2546 H2538 0.950 . S
C2546 C2544 1.391 . S
C2546 C2547 1.400 . S
C2547 C2546 1.400 . S
C2547 C2548 1.398 . S
C2547 C2553 1.491 . S
C2548 H2539 0.950 . S
C2548 C2547 1.398 . S
C2548 C2549 1.391 . S
C2549 H2537 0.950 . S
C2549 C2545 1.393 . S
C2549 C2548 1.391 . S
C2550 H2540 0.950 . S
C2550 C2551 1.386 . S
C2550 C2552 1.391 . S
C2551 C2550 1.386 . S
C2551 C2555 1.393 . S
C2552 H2541 0.950 . S
C2552 C2550 1.391 . S
C2552 C2553 1.400 . S
C2553 C2547 1.491 . S
C2553 C2552 1.400 . S
C2553 C2554 1.398 . S
C2554 H2542 0.950 . S
C2554 C2553 1.398 . S
C2554 C2555 1.391 . S
C2555 H2543 0.950 . S
C2555 C2551 1.393 . S
C2555 C2554 1.391 . S
H2556 C2564 0.950 . S
H2557 C2569 0.950 . S
H2558 C2566 0.950 . S
H2559 C2568 0.950 . S
H2560 C2570 0.950 . S
H2561 C2572 0.950 . S
H2562 C2574 0.950 . S
H2563 C2575 0.950 . S
C2564 H2556 0.950 . S
C2564 C2565 1.386 . S
C2564 C2566 1.391 . S
C2565 C2564 1.386 . S
C2565 C2569 1.393 . S
C2566 H2558 0.950 . S
C2566 C2564 1.391 . S
C2566 C2567 1.400 . S
C2567 C2566 1.400 . S
C2567 C2568 1.398 . S
C2567 C2573 1.491 . S
C2568 H2559 0.950 . S
C2568 C2567 1.398 . S
C2568 C2569 1.391 . S
C2569 H2557 0.950 . S
C2569 C2565 1.393 . S
C2569 C2568 1.391 . S
C2570 H2560 0.950 . S
C2570 C2571 1.386 . S
C2570 C2572 1.391 . S
C2571 C2570 1.386 . S
C2571 C2575 1.393 . S
C2572 H2561 0.950 . S
C2572 C2570 1.391 . S
C2572 C2573 1.400 . S
C2573 C2567 1.491 . S
C2573 C2572 1.400 . S
C2573 C2574 1.398 . S
C2574 H2562 0.950 . S
C2574 C2573 1.398 . S
C2574 C2575 1.391 . S
C2575 H2563 0.950 . S
C2575 C2571 1.393 . S
C2575 C2574 1.391 . S
H2576 C2584 0.950 . S
H2577 C2589 0.950 . S
H2578 C2586 0.950 1_556 S
H2579 C2588 0.950 . S
H2580 C2590 0.950 . S
H2581 C2592 0.950 1_554 S
H2582 C2594 0.950 . S
H2583 C2595 0.950 . S
C2584 H2576 0.950 . S
C2584 C2585 1.386 . S
C2584 C2586 1.391 . S
C2585 C2584 1.386 . S
C2585 C2589 1.393 . S
C2586 H2578 0.950 1_554 S
C2586 C2584 1.391 . S
C2586 C2587 1.400 . S
C2587 C2586 1.400 . S
C2587 C2588 1.398 . S
C2587 C2593 1.491 1_554 S
C2588 H2579 0.950 . S
C2588 C2587 1.398 . S
C2588 C2589 1.391 . S
C2589 H2577 0.950 . S
C2589 C2585 1.393 . S
C2589 C2588 1.391 . S
C2590 H2580 0.950 . S
C2590 C2591 1.386 . S
C2590 C2592 1.391 . S
C2591 C2590 1.386 . S
C2591 C2595 1.393 . S
C2592 H2581 0.950 1_556 S
C2592 C2590 1.391 . S
C2592 C2593 1.400 . S
C2593 C2587 1.491 1_556 S
C2593 C2592 1.400 . S
C2593 C2594 1.398 . S
C2594 H2582 0.950 . S
C2594 C2593 1.398 . S
C2594 C2595 1.391 . S
C2595 H2583 0.950 . S
C2595 C2591 1.393 . S
C2595 C2594 1.391 . S
H2596 C2604 0.950 . S
H2597 C2609 0.950 . S
H2598 C2606 0.950 . S
H2599 C2608 0.950 . S
H2600 C2610 0.950 . S
H2601 C2612 0.950 . S
H2602 C2614 0.950 . S
H2603 C2615 0.950 . S
C2604 H2596 0.950 . S
C2604 C2605 1.386 . S
C2604 C2606 1.391 . S
C2605 C2604 1.386 . S
C2605 C2609 1.393 . S
C2606 H2598 0.950 . S
C2606 C2604 1.391 . S
C2606 C2607 1.400 . S
C2607 C2606 1.400 . S
C2607 C2608 1.398 . S
C2607 C2613 1.491 . S
C2608 H2599 0.950 . S
C2608 C2607 1.398 . S
C2608 C2609 1.391 . S
C2609 H2597 0.950 . S
C2609 C2605 1.393 . S
C2609 C2608 1.391 . S
C2610 H2600 0.950 . S
C2610 C2611 1.386 . S
C2610 C2612 1.391 . S
C2611 C2610 1.386 . S
C2611 C2615 1.393 . S
C2612 H2601 0.950 . S
C2612 C2610 1.391 . S
C2612 C2613 1.400 . S
C2613 C2607 1.491 . S
C2613 C2612 1.400 . S
C2613 C2614 1.398 . S
C2614 H2602 0.950 . S
C2614 C2613 1.398 . S
C2614 C2615 1.391 . S
C2615 H2603 0.950 . S
C2615 C2611 1.393 . S
C2615 C2614 1.391 . S
H2616 C2624 0.950 . S
H2617 C2629 0.950 . S
H2618 C2626 0.950 . S
H2619 C2628 0.950 . S
H2620 C2630 0.950 . S
H2621 C2632 0.950 . S
H2622 C2634 0.950 . S
H2623 C2635 0.950 . S
C2624 H2616 0.950 . S
C2624 C2625 1.386 . S
C2624 C2626 1.391 . S
C2625 C2624 1.386 . S
C2625 C2629 1.393 . S
C2626 H2618 0.950 . S
C2626 C2624 1.391 . S
C2626 C2627 1.400 . S
C2627 C2626 1.400 . S
C2627 C2628 1.398 . S
C2627 C2633 1.491 . S
C2628 H2619 0.950 . S
C2628 C2627 1.398 . S
C2628 C2629 1.391 . S
C2629 H2617 0.950 . S
C2629 C2625 1.393 . S
C2629 C2628 1.391 . S
C2630 H2620 0.950 . S
C2630 C2631 1.386 . S
C2630 C2632 1.391 . S
C2631 C2630 1.386 . S
C2631 C2635 1.393 . S
C2632 H2621 0.950 . S
C2632 C2630 1.391 . S
C2632 C2633 1.400 . S
C2633 C2627 1.491 . S
C2633 C2632 1.400 . S
C2633 C2634 1.398 . S
C2634 H2622 0.950 . S
C2634 C2633 1.398 . S
C2634 C2635 1.391 . S
C2635 H2623 0.950 . S
C2635 C2631 1.393 . S
C2635 C2634 1.391 . S
H2636 C2644 0.950 . S
H2637 C2649 0.950 . S
H2638 C2646 0.950 . S
H2639 C2648 0.950 . S
H2640 C2650 0.950 . S
H2641 C2652 0.950 . S
H2642 C2654 0.950 . S
H2643 C2655 0.950 . S
C2644 H2636 0.950 . S
C2644 C2645 1.386 . S
C2644 C2646 1.391 . S
C2645 C2644 1.386 . S
C2645 C2649 1.393 . S
C2646 H2638 0.950 . S
C2646 C2644 1.391 . S
C2646 C2647 1.400 . S
C2647 C2646 1.400 . S
C2647 C2648 1.398 . S
C2647 C2653 1.491 . S
C2648 H2639 0.950 . S
C2648 C2647 1.398 . S
C2648 C2649 1.391 . S
C2649 H2637 0.950 . S
C2649 C2645 1.393 . S
C2649 C2648 1.391 . S
C2650 H2640 0.950 . S
C2650 C2651 1.386 . S
C2650 C2652 1.391 . S
C2651 C2650 1.386 . S
C2651 C2655 1.393 . S
C2652 H2641 0.950 . S
C2652 C2650 1.391 . S
C2652 C2653 1.400 . S
C2653 C2647 1.491 . S
C2653 C2652 1.400 . S
C2653 C2654 1.398 . S
C2654 H2642 0.950 . S
C2654 C2653 1.398 . S
C2654 C2655 1.391 . S
C2655 H2643 0.950 . S
C2655 C2651 1.393 . S
C2655 C2654 1.391 . S
C1065 C249 1.670 1_554 S
C1071 C18 1.679 . S
C1085 C51 1.679 . S
C1091 C150 1.669 . S
C1105 C84 1.672 . S
C1111 C183 1.673 . S
C1125 C216 1.675 . S
C1131 C117 1.670 1_556 S
C1145 C282 1.678 . S
C1151 C513 1.668 1_556 S
C1165 C414 1.669 . S
C1171 C315 1.678 . S
C1185 C348 1.671 . S
C1191 C447 1.674 . S
C1205 C480 1.672 . S
C1211 C381 1.673 1_554 S
C1225 C777 1.679 . S
C1231 C546 1.669 . S
C1245 C678 1.671 . S
C1251 C579 1.679 1_556 S
C1265 C711 1.670 1_554 S
C1271 C612 1.679 . S
C1285 C744 1.678 . S
C1291 C645 1.669 . S
C1305 C1041 1.679 . S
C1311 C810 1.670 . S
C1325 C843 1.677 1_554 S
C1331 C942 1.669 . S
C1345 C975 1.679 1_556 S
C1351 C876 1.670 . S
C1365 C1008 1.672 . S
C1371 C909 1.672 . S
C1385 C21 1.372 . S
C1391 N904 1.362 . S
C1405 N277 1.360 . S
C1411 C54 1.361 1_655 S
C1425 N838 1.366 . S
C1431 C87 1.368 . S
C1445 C120 1.360 . S
C1451 N343 1.359 . S
C1465 N970 1.355 . S
C1471 C153 1.369 . S
C1485 C186 1.372 . S
C1491 N475 1.365 . S
C1505 N1036 1.348 . S
C1511 C219 1.358 . S
C1525 N409 1.354 . S
C1531 C252 1.369 1_655 S
C1545 C285 1.360 . S
C1551 N640 1.358 . S
C1565 C318 1.360 1_455 S
C1571 N13 1.348 . S
C1585 N574 1.366 . S
C1591 C351 1.372 . S
C1605 N79 1.349 . S
C1611 C384 1.364 . S
C1625 N706 1.361 . S
C1631 C417 1.362 . S
C1645 N211 1.348 . S
C1651 C450 1.361 . S
C1665 C483 1.362 . S
C1671 N772 1.348 . S
C1685 C516 1.364 1_455 S
C1691 N145 1.363 . S
C1705 C549 1.370 . S
C1711 N376 1.366 . S
C1725 N805 1.365 . S
C1731 C582 1.372 . S
C1745 N310 1.357 . S
C1751 C615 1.371 . S
C1765 C648 1.369 1_455 S
C1771 N871 1.366 . S
C1785 C681 1.372 . S
C1791 N442 1.365 . S
C1805 N1003 1.351 . S
C1811 C714 1.358 1_455 S
C1825 N508 1.365 . S
C1831 C747 1.372 . S
C1845 C780 1.364 . S
C1851 N937 1.363 . S
C1865 N112 1.351 . S
C1871 C813 1.366 . S
C1885 N541 1.366 . S
C1891 C846 1.372 . S
C1905 N46 1.362 . S
C1911 C879 1.372 . S
C1925 N607 1.359 . S
C1931 C912 1.361 1_655 S
C1945 C945 1.358 . S
C1951 N178 1.352 . S
C1965 C978 1.365 1_655 S
C1971 N739 1.364 . S
C1985 C1011 1.372 . S
C1991 N244 1.362 . S
C2005 N673 1.364 . S
C2011 C1044 1.365 . S
C2025 N2 0.765 . S
C2031 N794 0.765 . S
C2045 N35 0.737 . S
C2051 N299 0.737 . S
C2065 N68 0.711 . S
C2071 N860 0.711 . S
C2085 N365 0.738 . S
C2091 N101 0.738 . S
C2105 N926 0.734 . S
C2111 N134 0.734 . S
C2125 N167 0.744 . S
C2131 N431 0.744 . S
C2145 N200 0.745 . S
C2151 N992 0.745 . S
C2165 N233 0.716 . S
C2171 N497 0.716 . S
C2185 N530 0.710 . S
C2191 N266 0.710 . S
C2205 N332 0.734 . S
C2211 N596 0.734 . S
C2225 N662 0.712 . S
C2231 N398 0.712 . S
C2245 N464 0.730 . S
C2251 N728 0.730 . S
C2265 N563 0.764 . S
C2271 N827 0.764 . S
C2285 N893 0.711 . S
C2291 N629 0.711 . S
C2305 N695 0.713 . S
C2311 N959 0.713 . S
C2325 N1025 0.736 . S
C2331 N761 0.736 . S
C2345 C7 1.754 . S
C2351 C205 1.772 . S
C2365 C238 1.774 . S
C2371 C40 1.755 . S
C2385 C139 1.772 . S
C2391 C73 1.754 . S
C2405 C172 1.775 . S
C2411 C106 1.756 . S
C2425 C271 1.767 . S
C2431 C469 1.755 . S
C2445 C304 1.771 . S
C2451 C502 1.754 . S
C2465 C403 1.772 . S
C2471 C337 1.754 . S
C2485 C436 1.762 . S
C2491 C370 1.759 . S
C2505 C535 1.755 . S
C2511 C733 1.774 . S
C2525 C568 1.762 . S
C2531 C766 1.773 . S
C2545 C667 1.759 . S
C2551 C601 1.774 . S
C2565 C700 1.763 . S
C2571 C634 1.759 . S
C2585 C799 1.756 . S
C2591 C997 1.774 . S
C2605 C832 1.756 . S
C2611 C1030 1.774 . S
C2625 C931 1.774 . S
C2631 C865 1.756 . S
C2645 C898 1.761 . S
C2651 C964 1.773 . S
