# Generated by pormake.
# Topology wje, (4)-cn, num edge types: 1
# Building blocks:
#     Node 0, Type 0, BuildingBlock: NAHDIM_clean_sbu_0, # of connection points: 4
#     Node 1, Type 0, BuildingBlock: NAHDIM_clean_sbu_0, # of connection points: 4
#     Node 2, Type 0, BuildingBlock: NAHDIM_clean_sbu_0, # of connection points: 4
#     Node 3, Type 0, BuildingBlock: NAHDIM_clean_sbu_0, # of connection points: 4
#     Node 4, Type 0, BuildingBlock: NAHDIM_clean_sbu_0, # of connection points: 4
#     Node 5, Type 0, BuildingBlock: NAHDIM_clean_sbu_0, # of connection points: 4
#     Node 6, Type 0, BuildingBlock: NAHDIM_clean_sbu_0, # of connection points: 4
#     Node 7, Type 0, BuildingBlock: NAHDIM_clean_sbu_0, # of connection points: 4
#     Node 8, Type 0, BuildingBlock: NAHDIM_clean_sbu_0, # of connection points: 4
#     Node 9, Type 0, BuildingBlock: NAHDIM_clean_sbu_0, # of connection points: 4
#     Node 10, Type 0, BuildingBlock: NAHDIM_clean_sbu_0, # of connection points: 4
#     Node 11, Type 0, BuildingBlock: NAHDIM_clean_sbu_0, # of connection points: 4
#     Edge 12, Type (0, 0), BuildingBlock: TEMPAE_clean_linker_10, # of connection points: 2
#     Edge 13, Type (0, 0), BuildingBlock: TEMPAE_clean_linker_10, # of connection points: 2
#     Edge 14, Type (0, 0), BuildingBlock: TEMPAE_clean_linker_10, # of connection points: 2
#     Edge 15, Type (0, 0), BuildingBlock: TEMPAE_clean_linker_10, # of connection points: 2
#     Edge 16, Type (0, 0), BuildingBlock: TEMPAE_clean_linker_10, # of connection points: 2
#     Edge 17, Type (0, 0), BuildingBlock: TEMPAE_clean_linker_10, # of connection points: 2
#     Edge 18, Type (0, 0), BuildingBlock: TEMPAE_clean_linker_10, # of connection points: 2
#     Edge 19, Type (0, 0), BuildingBlock: TEMPAE_clean_linker_10, # of connection points: 2
#     Edge 20, Type (0, 0), BuildingBlock: TEMPAE_clean_linker_10, # of connection points: 2
#     Edge 21, Type (0, 0), BuildingBlock: TEMPAE_clean_linker_10, # of connection points: 2
#     Edge 22, Type (0, 0), BuildingBlock: TEMPAE_clean_linker_10, # of connection points: 2
#     Edge 23, Type (0, 0), BuildingBlock: TEMPAE_clean_linker_10, # of connection points: 2
#     Edge 24, Type (0, 0), BuildingBlock: TEMPAE_clean_linker_10, # of connection points: 2
#     Edge 25, Type (0, 0), BuildingBlock: TEMPAE_clean_linker_10, # of connection points: 2
#     Edge 26, Type (0, 0), BuildingBlock: TEMPAE_clean_linker_10, # of connection points: 2
#     Edge 27, Type (0, 0), BuildingBlock: TEMPAE_clean_linker_10, # of connection points: 2
#     Edge 28, Type (0, 0), BuildingBlock: TEMPAE_clean_linker_10, # of connection points: 2
#     Edge 29, Type (0, 0), BuildingBlock: TEMPAE_clean_linker_10, # of connection points: 2
#     Edge 30, Type (0, 0), BuildingBlock: TEMPAE_clean_linker_10, # of connection points: 2
#     Edge 31, Type (0, 0), BuildingBlock: TEMPAE_clean_linker_10, # of connection points: 2
#     Edge 32, Type (0, 0), BuildingBlock: TEMPAE_clean_linker_10, # of connection points: 2
#     Edge 33, Type (0, 0), BuildingBlock: TEMPAE_clean_linker_10, # of connection points: 2
#     Edge 34, Type (0, 0), BuildingBlock: TEMPAE_clean_linker_10, # of connection points: 2
#     Edge 35, Type (0, 0), BuildingBlock: TEMPAE_clean_linker_10, # of connection points: 2
# Relax obj value: 0.167
# Max RMSD: 0.138
# Mean RMSD: 0.138
data_MOF--net-wje--node1-NAHDIM_clean_sbu_0--edge1-TEMPAE_clean_linker_10
_symmetry_space_group_name_H-M    P1
_symmetry_Int_Tables_number       1
_symmetry_cell_setting            triclinic
loop_
_symmetry_equiv_pos_as_xyz
'x, y, z'
_cell_length_a     41.627113
_cell_length_b     41.626528
_cell_length_c     36.233517
_cell_angle_alpha  89.954844
_cell_angle_beta   89.941797
_cell_angle_gamma 119.9164
loop_
_atom_site_label
_atom_site_type_symbol
_atom_site_fract_x
_atom_site_fract_y
_atom_site_fract_z
_atom_type_partial_charge
C0 C 0.30207 0.06518 0.25359 0.0
O1 O 0.27015 0.03447 0.2576 0.0
O2 O 0.2858 0.97915 0.29739 0.0
Zn3 Zn 0.32831 0.0309 0.30658 0.0
O4 O 0.37647 0.02997 0.30588 0.0
C5 C 0.28456 0.02987 0.36719 0.0
O6 O 0.25882 0.01689 0.34158 0.0
O7 O 0.33018 0.069 0.27113 0.0
C8 C 0.39229 0.0297 0.33582 0.0
O9 O 0.37794 0.03172 0.36743 0.0
C10 C 0.28258 0.95659 0.32281 0.0
O11 O 0.30902 0.96743 0.34751 0.0
O12 O 0.31813 0.04204 0.35782 0.0
C13 C 0.2437 0.29214 0.59151 0.0
O14 O 0.23461 0.27015 0.62036 0.0
O15 O 0.32854 0.26913 0.59116 0.0
Zn16 Zn 0.31889 0.30926 0.60864 0.0
O17 O 0.36519 0.35811 0.60212 0.0
C18 C 0.32656 0.28867 0.68072 0.0
O19 O 0.35136 0.28385 0.66299 0.0
O20 O 0.27743 0.31045 0.58151 0.0
C21 C 0.38417 0.36593 0.57262 0.0
O22 O 0.37291 0.3415 0.54579 0.0
C23 C 0.30324 0.23534 0.5914 0.0
O24 O 0.26876 0.22699 0.59701 0.0
O25 O 0.30822 0.30066 0.66312 0.0
C26 C 0.94419 0.27144 0.91756 0.0
O27 O 0.97525 0.29478 0.90088 0.0
O28 O 0.02968 0.32908 0.96297 0.0
Zn29 Zn 0.97996 0.32234 0.97659 0.0
O30 O 0.97832 0.36865 0.96479 0.0
C31 C 0.00607 0.33972 0.04867 0.0
O32 O 0.03346 0.36579 0.02943 0.0
O33 O 0.9393 0.27756 0.95088 0.0
C34 C 0.99085 0.38704 0.9351 0.0
O35 O 0.00447 0.37482 0.90954 0.0
C36 C 0.03498 0.30183 0.96763 0.0
O37 O 0.00688 0.26955 0.97729 0.0
O38 O 0.977 0.31613 0.0318 0.0
C39 C 0.64594 0.92612 0.25843 0.0
O40 O 0.62598 0.94227 0.25396 0.0
O41 O 0.70322 0.01587 0.32323 0.0
Zn42 Zn 0.66148 0.96359 0.32832 0.0
O43 O 0.61396 0.96539 0.32621 0.0
C44 C 0.69841 0.95362 0.39005 0.0
O45 O 0.7263 0.96787 0.36671 0.0
O46 O 0.66368 0.93109 0.2884 0.0
C47 C 0.61451 0.99371 0.34009 0.0
O48 O 0.64503 0.01921 0.35587 0.0
C49 C 0.7341 0.02764 0.30697 0.0
O50 O 0.74092 0.00422 0.28912 0.0
O51 O 0.66666 0.9469 0.37902 0.0
C52 C 0.69777 0.69457 0.51834 0.0
O53 O 0.66534 0.67434 0.50258 0.0
O54 O 0.6351 0.73161 0.57772 0.0
Zn55 Zn 0.65206 0.69419 0.578 0.0
O56 O 0.61112 0.64437 0.56209 0.0
C57 C 0.67889 0.72163 0.64945 0.0
O58 O 0.69533 0.75281 0.6307 0.0
O59 O 0.69915 0.70823 0.55006 0.0
C60 C 0.61426 0.61608 0.56858 0.0
O61 O 0.64491 0.62067 0.58381 0.0
C62 C 0.60721 0.72064 0.59902 0.0
O63 O 0.58916 0.68552 0.60872 0.0
O64 O 0.66059 0.69121 0.63212 0.0
C65 C 0.05652 0.75061 0.90879 0.0
O66 O 0.02325 0.73024 0.89474 0.0
O67 O 0.97629 0.7088 0.96827 0.0
Zn68 Zn 0.02045 0.70159 0.96797 0.0
O69 O 0.0094 0.65353 0.94413 0.0
C70 C 0.01503 0.66917 0.03831 0.0
O71 O 0.99255 0.63934 0.01951 0.0
O72 O 0.06266 0.74383 0.9414 0.0
C73 C 0.0359 0.64667 0.94364 0.0
O74 O 0.06843 0.6719 0.95621 0.0
C75 C 0.94381 0.68187 0.97387 0.0
O76 O 0.9386 0.64809 0.97592 0.0
O77 O 0.0324 0.70006 0.02149 0.0
C78 C 0.91079 0.66451 0.43137 0.0
O79 O 0.91481 0.63843 0.44742 0.0
O80 O 0.02178 0.71396 0.39171 0.0
Zn81 Zn 0.97046 0.67137 0.38427 0.0
O82 O 0.96636 0.62425 0.40372 0.0
C83 C 0.99199 0.66172 0.31486 0.0
O84 O 0.01606 0.65948 0.33658 0.0
O85 O 0.93156 0.6821 0.40426 0.0
C86 C 0.98575 0.62266 0.42995 0.0
O87 O 0.00786 0.65298 0.4483 0.0
C88 C 0.02847 0.74652 0.38419 0.0
O89 O 0.00076 0.75219 0.37705 0.0
O90 O 0.96654 0.66605 0.32932 0.0
C91 C 0.25988 0.93334 0.74242 0.0
O92 O 0.26804 0.96803 0.7391 0.0
O93 O 0.32588 0.00503 0.68362 0.0
Zn94 Zn 0.31164 0.95112 0.68144 0.0
O95 O 0.35757 0.9467 0.68467 0.0
C96 C 0.26265 0.94465 0.62605 0.0
O97 O 0.25156 0.957 0.65382 0.0
O98 O 0.27545 0.92086 0.72122 0.0
C99 C 0.37465 0.94482 0.65639 0.0
O100 O 0.36135 0.94422 0.62337 0.0
C101 C 0.3429 0.02366 0.65511 0.0
O102 O 0.35375 0.00814 0.63025 0.0
O103 O 0.28705 0.93536 0.63197 0.0
C104 C 0.32568 0.2737 0.09205 0.0
O105 O 0.31418 0.29626 0.10331 0.0
O106 O 0.29619 0.31968 0.02472 0.0
Zn107 Zn 0.34297 0.31645 0.02427 0.0
O108 O 0.38749 0.36685 0.03465 0.0
C109 C 0.31992 0.27414 0.95702 0.0
O110 O 0.2892 0.25396 0.97574 0.0
O111 O 0.33931 0.27775 0.05986 0.0
C112 C 0.40457 0.38765 0.00731 0.0
O113 O 0.39287 0.37556 0.97378 0.0
C114 C 0.28942 0.33307 0.99615 0.0
O115 O 0.31391 0.34608 0.96931 0.0
O116 O 0.3474 0.30076 0.97309 0.0
C117 C 0.05439 0.33388 0.45958 0.0
O118 O 0.03636 0.34758 0.47729 0.0
O119 O 0.96247 0.28648 0.39559 0.0
Zn120 Zn 0.01074 0.33431 0.3979 0.0
O121 O 0.00399 0.37475 0.42028 0.0
C122 C 0.02782 0.32392 0.3242 0.0
O123 O 0.02333 0.293 0.33873 0.0
O124 O 0.04817 0.32654 0.42542 0.0
C125 C 0.02951 0.40794 0.41467 0.0
O126 O 0.05924 0.41384 0.39635 0.0
C127 C 0.93975 0.28367 0.37065 0.0
O128 O 0.94728 0.31296 0.35065 0.0
O129 O 0.02624 0.34761 0.34506 0.0
C130 C 0.75869 0.04537 0.77699 0.0
O131 O 0.76275 0.01609 0.77462 0.0
O132 O 0.68599 0.9538 0.74799 0.0
Zn133 Zn 0.6989 0.00338 0.72646 0.0
O134 O 0.65115 0.00305 0.71664 0.0
C135 C 0.72673 0.98123 0.66369 0.0
O136 O 0.72269 0.95454 0.68594 0.0
O137 O 0.73293 0.04602 0.75882 0.0
C138 C 0.62906 0.97815 0.69442 0.0
O139 O 0.639 0.95569 0.67943 0.0
C140 C 0.65323 0.93115 0.75866 0.0
O141 O 0.63098 0.94388 0.76728 0.0
O142 O 0.72108 0.00662 0.67603 0.0
C143 C 0.64824 0.75087 0.06763 0.0
O144 O 0.63446 0.71596 0.0771 0.0
O145 O 0.71253 0.72538 0.00537 0.0
Zn146 Zn 0.66344 0.72332 0.00181 0.0
O147 O 0.62145 0.67187 0.0137 0.0
C148 C 0.66808 0.71408 0.92692 0.0
O149 O 0.67641 0.69046 0.94201 0.0
O150 O 0.6624 0.76125 0.03569 0.0
C151 C 0.62601 0.64413 0.0185 0.0
O152 O 0.65954 0.64872 0.01639 0.0
C153 C 0.73045 0.72317 0.03262 0.0
O154 O 0.71725 0.72004 0.0662 0.0
O155 O 0.65923 0.733 0.94784 0.0
C156 C 0.27501 0.09088 0.20857 0.0
C157 C 0.30522 0.09559 0.22979 0.0
C158 C 0.27764 0.11968 0.18622 0.0
C159 C 0.3112 0.15403 0.18524 0.0
C160 C 0.34173 0.15899 0.20668 0.0
C161 C 0.33841 0.1297 0.22861 0.0
C162 C 0.24456 0.11332 0.16354 0.0
C163 C 0.37794 0.19527 0.20646 0.0
C164 C 0.33127 0.21728 0.10251 0.0
C165 C 0.32207 0.24325 0.11608 0.0
C166 C 0.32762 0.18799 0.12466 0.0
C167 C 0.31463 0.18465 0.16134 0.0
C168 C 0.30536 0.21077 0.17527 0.0
C169 C 0.30911 0.23973 0.15243 0.0
C170 C 0.33767 0.16061 0.10878 0.0
C171 C 0.29161 0.20819 0.21435 0.0
H172 H 0.24928 0.06463 0.2093 0.0
H173 H 0.36187 0.13365 0.24501 0.0
H174 H 0.23615 0.1339 0.17107 0.0
H175 H 0.25202 0.1173 0.13382 0.0
H176 H 0.22043 0.08506 0.16749 0.0
H177 H 0.39886 0.19481 0.22513 0.0
H178 H 0.38951 0.20168 0.17809 0.0
H179 H 0.3732 0.21815 0.21508 0.0
H180 H 0.3412 0.21969 0.07442 0.0
H181 H 0.30196 0.25966 0.16315 0.0
H182 H 0.31346 0.13215 0.1103 0.0
H183 H 0.36021 0.1608 0.12525 0.0
H184 H 0.3469 0.16683 0.07957 0.0
H185 H 0.26608 0.18108 0.21872 0.0
H186 H 0.28547 0.23064 0.22094 0.0
H187 H 0.31268 0.20972 0.23409 0.0
C188 C 0.22604 0.32772 0.54865 0.0
C189 C 0.21533 0.29695 0.57173 0.0
C190 C 0.19954 0.33345 0.53058 0.0
C191 C 0.16144 0.30744 0.53521 0.0
C192 C 0.15044 0.27601 0.55804 0.0
C193 C 0.17754 0.27131 0.57631 0.0
C194 C 0.21232 0.36757 0.50686 0.0
C195 C 0.11006 0.24739 0.56312 0.0
C196 C 0.09233 0.33954 0.51528 0.0
C197 C 0.08136 0.32669 0.47915 0.0
C198 C 0.11821 0.33325 0.53396 0.0
C199 C 0.13316 0.31332 0.51621 0.0
C200 C 0.12183 0.29985 0.47994 0.0
C201 C 0.09622 0.30687 0.46177 0.0
C202 C 0.12992 0.34835 0.57251 0.0
C203 C 0.13691 0.27817 0.46026 0.0
H204 H 0.2552 0.34779 0.54519 0.0
H205 H 0.16914 0.24737 0.59397 0.0
H206 H 0.20245 0.3594 0.47813 0.0
H207 H 0.20022 0.3843 0.51727 0.0
H208 H 0.24298 0.38528 0.50641 0.0
H209 H 0.10617 0.22409 0.58113 0.0
H210 H 0.09499 0.26045 0.57548 0.0
H211 H 0.09717 0.23601 0.53593 0.0
H212 H 0.08102 0.35492 0.52887 0.0
H213 H 0.08772 0.29665 0.43393 0.0
H214 H 0.16022 0.36798 0.57311 0.0
H215 H 0.12422 0.32549 0.59194 0.0
H216 H 0.11539 0.36294 0.58257 0.0
H217 H 0.16736 0.29564 0.45684 0.0
H218 H 0.12427 0.26849 0.4326 0.0
H219 H 0.13175 0.25372 0.47701 0.0
C220 C 0.81324 0.0773 0.81927 0.0
C221 C 0.78441 0.07767 0.79963 0.0
C222 C 0.83855 0.10823 0.8398 0.0
C223 C 0.83495 0.14029 0.84065 0.0
C224 C 0.80556 0.14063 0.82139 0.0
C225 C 0.78064 0.10932 0.80113 0.0
C226 C 0.86951 0.10682 0.86006 0.0
C227 C 0.80084 0.17433 0.82165 0.0
C228 C 0.88389 0.21143 0.91634 0.0
C229 C 0.91586 0.23806 0.89796 0.0
C230 C 0.85728 0.17941 0.89806 0.0
C231 C 0.86275 0.174 0.86052 0.0
C232 C 0.89485 0.20085 0.84179 0.0
C233 C 0.92103 0.23251 0.86074 0.0
C234 C 0.8234 0.15131 0.91893 0.0
C235 C 0.90159 0.19611 0.8017 0.0
H236 H 0.81631 0.05294 0.81836 0.0
H237 H 0.75839 0.10984 0.78612 0.0
H238 H 0.89666 0.12816 0.84875 0.0
H239 H 0.86903 0.11326 0.88969 0.0
H240 H 0.8676 0.07931 0.85781 0.0
H241 H 0.77576 0.16966 0.80633 0.0
H242 H 0.79881 0.18217 0.85045 0.0
H243 H 0.82547 0.19818 0.80897 0.0
H244 H 0.87972 0.21547 0.94512 0.0
H245 H 0.94561 0.25294 0.84629 0.0
H246 H 0.82211 0.12403 0.91881 0.0
H247 H 0.79796 0.1475 0.90513 0.0
H248 H 0.82326 0.15965 0.94802 0.0
H249 H 0.90261 0.17017 0.7981 0.0
H250 H 0.92789 0.21965 0.79111 0.0
H251 H 0.87838 0.19362 0.78457 0.0
C252 C 0.62663 0.76481 0.12663 0.0
C253 C 0.64782 0.77763 0.09425 0.0
C254 C 0.62636 0.78961 0.15263 0.0
C255 C 0.64814 0.82821 0.14631 0.0
C256 C 0.66954 0.84139 0.11364 0.0
C257 C 0.66895 0.81591 0.08786 0.0
C258 C 0.60285 0.77447 0.18694 0.0
C259 C 0.69337 0.88238 0.10614 0.0
C260 C 0.62257 0.89096 0.19937 0.0
C261 C 0.64731 0.90203 0.22916 0.0
C262 C 0.62281 0.86728 0.17195 0.0
C263 C 0.64868 0.85469 0.17418 0.0
C264 C 0.67421 0.86635 0.20379 0.0
C265 C 0.67308 0.88971 0.23104 0.0
C266 C 0.59491 0.85515 0.14099 0.0
C267 C 0.70246 0.85381 0.2069 0.0
H268 H 0.61008 0.73526 0.13169 0.0
H269 H 0.68551 0.82602 0.06296 0.0
H270 H 0.6207 0.78409 0.21183 0.0
H271 H 0.58318 0.78507 0.18898 0.0
H272 H 0.58679 0.74369 0.18727 0.0
H273 H 0.70824 0.88811 0.07934 0.0
H274 H 0.67603 0.89574 0.10599 0.0
H275 H 0.71409 0.89556 0.1285 0.0
H276 H 0.60253 0.90031 0.19774 0.0
H277 H 0.69246 0.89835 0.25385 0.0
H278 H 0.57675 0.82458 0.1417 0.0
H279 H 0.60934 0.86235 0.11394 0.0
H280 H 0.57724 0.86814 0.14276 0.0
H281 H 0.68815 0.82325 0.21015 0.0
H282 H 0.72144 0.8667 0.23069 0.0
H283 H 0.71925 0.86082 0.18126 0.0
C284 C 0.85632 0.65069 0.47131 0.0
C285 C 0.88163 0.67256 0.44389 0.0
C286 C 0.82772 0.65708 0.48254 0.0
C287 C 0.82444 0.68619 0.46609 0.0
C288 C 0.85028 0.70881 0.43887 0.0
C289 C 0.87851 0.70167 0.42801 0.0
C290 C 0.80063 0.63227 0.51161 0.0
C291 C 0.84781 0.74025 0.42091 0.0
C292 C 0.72847 0.67534 0.47087 0.0
C293 C 0.73139 0.69648 0.50214 0.0
C294 C 0.75895 0.6728 0.45805 0.0
C295 C 0.79325 0.69208 0.47679 0.0
C296 C 0.7969 0.71497 0.50722 0.0
C297 C 0.76589 0.71682 0.51961 0.0
C298 C 0.75394 0.6481 0.42549 0.0
C299 C 0.83315 0.73628 0.52765 0.0
H300 H 0.8585 0.62816 0.48374 0.0
H301 H 0.89805 0.71882 0.4069 0.0
H302 H 0.80038 0.64914 0.53518 0.0
H303 H 0.7722 0.61761 0.49999 0.0
H304 H 0.80743 0.6113 0.52216 0.0
H305 H 0.87094 0.75621 0.40128 0.0
H306 H 0.82123 0.72919 0.40576 0.0
H307 H 0.8481 0.75947 0.44227 0.0
H308 H 0.70198 0.65958 0.45713 0.0
H309 H 0.76846 0.73339 0.54367 0.0
H310 H 0.75713 0.62439 0.43464 0.0
H311 H 0.77559 0.66353 0.40438 0.0
H312 H 0.72629 0.63703 0.41242 0.0
H313 H 0.83964 0.71662 0.54191 0.0
H314 H 0.83237 0.75543 0.54851 0.0
H315 H 0.85609 0.7526 0.508 0.0
C316 C 0.21261 0.92119 0.79139 0.0
C317 C 0.23159 0.90839 0.76932 0.0
C318 C 0.1846 0.89725 0.81579 0.0
C319 C 0.17543 0.85967 0.81811 0.0
C320 C 0.19495 0.84676 0.79642 0.0
C321 C 0.22278 0.87126 0.7723 0.0
C322 C 0.16437 0.91197 0.83857 0.0
C323 C 0.18597 0.80687 0.79817 0.0
C324 C 0.12261 0.80062 0.90069 0.0
C325 C 0.08664 0.77992 0.88638 0.0
C326 C 0.15169 0.82732 0.87904 0.0
C327 C 0.14458 0.83339 0.84226 0.0
C328 C 0.10819 0.81315 0.82793 0.0
C329 C 0.07966 0.78666 0.85016 0.0
C330 C 0.19015 0.84844 0.89526 0.0
C331 C 0.09955 0.8189 0.78881 0.0
H332 H 0.21927 0.94984 0.78931 0.0
H333 H 0.23736 0.86113 0.75543 0.0
H334 H 0.1346 0.89739 0.83095 0.0
H335 H 0.16597 0.90649 0.86829 0.0
H336 H 0.17582 0.94222 0.83464 0.0
H337 H 0.20455 0.80153 0.78036 0.0
H338 H 0.18835 0.79927 0.82699 0.0
H339 H 0.15692 0.78834 0.78931 0.0
H340 H 0.12822 0.79564 0.92869 0.0
H341 H 0.05194 0.77089 0.83892 0.0
H342 H 0.20117 0.8787 0.89253 0.0
H343 H 0.20912 0.84179 0.87979 0.0
H344 H 0.19071 0.84176 0.92486 0.0
H345 H 0.10855 0.84854 0.7841 0.0
H346 H 0.06953 0.80205 0.78237 0.0
H347 H 0.11514 0.81134 0.76915 0.0
C348 C 0.43633 0.01482 0.36784 0.0
C349 C 0.42508 0.02472 0.33536 0.0
C350 C 0.46669 0.00895 0.36792 0.0
C351 C 0.48662 0.01361 0.33481 0.0
C352 C 0.47559 0.02384 0.30195 0.0
C353 C 0.44474 0.02902 0.30256 0.0
C354 C 0.47737 -0.00233 0.40343 0.0
C355 C 0.49656 0.0296 0.26626 0.0
C356 C 0.58543 0.03336 0.3455 0.0
C357 C 0.58174 -0.00138 0.33798 0.0
C358 C 0.55482 0.03877 0.34381 0.0
C359 C 0.51954 0.00857 0.33491 0.0
C360 C 0.51559 0.97343 0.32717 0.0
C361 C 0.54684 0.96893 0.32854 0.0
C362 C 0.56021 0.07676 0.35178 0.0
C363 C 0.47828 0.94048 0.31806 0.0
H364 H 0.42109 0.01116 0.39325 0.0
H365 H 0.43622 0.03674 0.27738 0.0
H366 H 0.47729 0.97121 0.39945 0.0
H367 H 0.50592 0.0189 0.41142 0.0
H368 H 0.45832 0.99417 0.42654 0.0
H369 H 0.4844 0.03752 0.24314 0.0
H370 H 0.52586 0.05165 0.26986 0.0
H371 H 0.49669 0.00387 0.25861 0.0
H372 H 0.61238 0.05652 0.35252 0.0
H373 H 0.54382 0.94201 0.32277 0.0
H374 H 0.54383 0.07554 0.37645 0.0
H375 H 0.54995 0.08625 0.3283 0.0
H376 H 0.58973 0.09766 0.35679 0.0
H377 H 0.45887 0.9346 0.34144 0.0
H378 H 0.47998 0.91517 0.31225 0.0
H379 H 0.46626 0.94672 0.29364 0.0
C380 C 0.58421 0.54722 0.57423 0.0
C381 C 0.58241 0.57845 0.56273 0.0
C382 C 0.55287 0.5117 0.57275 0.0
C383 C 0.51902 0.5074 0.55935 0.0
C384 C 0.5175 0.53856 0.54599 0.0
C385 C 0.54923 0.57375 0.54786 0.0
C386 C 0.55554 0.47907 0.58716 0.0
C387 C 0.48192 0.535 0.53132 0.0
C388 C 0.44023 0.41091 0.5367 0.0
C389 C 0.41866 0.40207 0.56888 0.0
C390 C 0.47308 0.44512 0.53312 0.0
C391 C 0.4845 0.47097 0.56241 0.0
C392 C 0.46284 0.46219 0.59492 0.0
C393 C 0.43021 0.42787 0.59776 0.0
C394 C 0.49555 0.45363 0.49807 0.0
C395 C 0.47413 0.48909 0.62676 0.0
H396 H 0.60979 0.55059 0.58558 0.0
H397 H 0.54767 0.59772 0.53866 0.0
H398 H 0.53886 0.46845 0.61278 0.0
H399 H 0.54399 0.45615 0.56679 0.0
H400 H 0.58456 0.48649 0.59342 0.0
H401 H 0.4862 0.56124 0.51883 0.0
H402 H 0.46957 0.51276 0.51027 0.0
H403 H 0.46153 0.52713 0.55413 0.0
H404 H 0.4315 0.39111 0.51428 0.0
H405 H 0.41373 0.42128 0.62273 0.0
H406 H 0.52396 0.45932 0.50455 0.0
H407 H 0.49828 0.47896 0.48493 0.0
H408 H 0.48288 0.43051 0.4779 0.0
H409 H 0.50193 0.49579 0.63693 0.0
H410 H 0.45423 0.47794 0.65015 0.0
H411 H 0.47614 0.51541 0.61739 0.0
C412 C 0.99431 0.58182 0.92132 0.0
C413 C 0.02906 0.60916 0.93431 0.0
C414 C 0.98629 0.54506 0.91665 0.0
C415 C 0.01352 0.53544 0.92558 0.0
C416 C 0.04915 0.56326 0.93709 0.0
C417 C 0.05654 0.5998 0.9411 0.0
C418 C 0.94817 0.51624 0.90375 0.0
C419 C 0.07891 0.55409 0.94707 0.0
C420 C 0.98462 0.4392 0.96114 0.0
C421 C 0.99325 0.42358 0.93112 0.0
C422 C 0.99 0.47517 0.9592 0.0
C423 C 0.004 0.49596 0.9263 0.0
C424 C 0.01123 0.47983 0.89533 0.0
C425 C 0.00595 0.44384 0.89816 0.0
C426 C 0.98213 0.49147 0.99293 0.0
C427 C 0.02568 0.501 0.85964 0.0
H428 H 0.973 0.58889 0.91576 0.0
H429 H 0.08351 0.62075 0.95103 0.0
H430 H 0.95026 0.49924 0.88132 0.0
H431 H 0.93286 0.49722 0.9269 0.0
H432 H 0.93178 0.52887 0.89366 0.0
H433 H 0.10589 0.57927 0.95311 0.0
H434 H 0.07016 0.53589 0.97179 0.0
H435 H 0.08298 0.53869 0.9243 0.0
H436 H 0.97472 0.42375 0.98669 0.0
H437 H 0.01243 0.43187 0.87475 0.0
H438 H 0.96301 0.50185 0.98586 0.0
H439 H 0.00827 0.51545 0.003 0.0
H440 H 0.96967 0.47103 0.01575 0.0
H441 H 0.00827 0.51292 0.85087 0.0
H442 H 0.0263 0.48328 0.83705 0.0
H443 H 0.05421 0.52446 0.86381 0.0
C444 C 0.97031 0.55913 0.4102 0.0
C445 C 0.98763 0.58837 0.43549 0.0
C446 C 0.97606 0.52873 0.41152 0.0
C447 C -0.00073 0.52721 0.43915 0.0
C448 C 0.01498 0.55544 0.46618 0.0
C449 C 0.00918 0.58588 0.46389 0.0
C450 C 0.95896 0.49932 0.38201 0.0
C451 C 0.03928 0.55436 0.49649 0.0
C452 C 0.99418 0.43383 0.44714 0.0
C453 C 0.02412 0.43936 0.42485 0.0
C454 C 0.98685 0.4628 0.45382 0.0
C455 C 0.00965 0.49786 0.43733 0.0
C456 C 0.04075 0.50396 0.41606 0.0
C457 C 0.04775 0.47472 0.41031 0.0
C458 C 0.95388 0.45548 0.47727 0.0
C459 C 0.06558 0.54087 0.39772 0.0
H460 H 0.9535 0.56069 0.38822 0.0
H461 H 0.02242 0.60821 0.48372 0.0
H462 H 0.98117 0.49985 0.36461 0.0
H463 H 0.94349 0.4714 0.39474 0.0
H464 H 0.93976 0.50338 0.36389 0.0
H465 H 0.04518 0.57554 0.51806 0.0
H466 H 0.02599 0.52658 0.50966 0.0
H467 H 0.066 0.55951 0.48458 0.0
H468 H 0.976 0.40664 0.45877 0.0
H469 H 0.07099 0.47927 0.39313 0.0
H470 H 0.93209 0.45535 0.45957 0.0
H471 H 0.96185 0.47781 0.49797 0.0
H472 H 0.94186 0.42844 0.49188 0.0
H473 H 0.04954 0.54646 0.37677 0.0
H474 H 0.08983 0.54174 0.38389 0.0
H475 H 0.0758 0.56354 0.41832 0.0
C476 C 0.56351 0.93827 0.67443 0.0
C477 C 0.59164 0.9725 0.68761 0.0
C478 C 0.52748 0.93191 0.66879 0.0
C479 C 0.51964 0.96074 0.67583 0.0
C480 C 0.54808 0.99553 0.68864 0.0
C481 C 0.5837 0.00088 0.69475 0.0
C482 C 0.49773 0.89422 0.6558 0.0
C483 C 0.54087 0.02711 0.6959 0.0
C484 C 0.43555 0.95711 0.63091 0.0
C485 C 0.41072 0.94641 0.66065 0.0
C486 C 0.47103 0.96155 0.63535 0.0
C487 C 0.4816 0.95448 0.67019 0.0
C488 C 0.45619 0.94248 0.69999 0.0
C489 C 0.42116 0.93891 0.69495 0.0
C490 C 0.49755 0.97483 0.60306 0.0
C491 C 0.46624 0.93397 0.73736 0.0
H492 H 0.56946 0.91612 0.66916 0.0
H493 H 0.60543 0.02741 0.70478 0.0
H494 H 0.47481 0.88202 0.67624 0.0
H495 H 0.48583 0.89687 0.62937 0.0
H496 H 0.5084 0.87475 0.65176 0.0
H497 H 0.56626 0.05276 0.7047 0.0
H498 H 0.52989 0.03329 0.67062 0.0
H499 H 0.51952 0.01911 0.71774 0.0
H500 H 0.4277 0.96314 0.60439 0.0
H501 H 0.40196 0.93038 0.71796 0.0
H502 H 0.50731 0.95492 0.59734 0.0
H503 H 0.52232 0.0018 0.6099 0.0
H504 H 0.48476 0.97831 0.57759 0.0
H505 H 0.47571 0.91346 0.73454 0.0
H506 H 0.44258 0.92287 0.75701 0.0
H507 H 0.48953 0.9595 0.7493 0.0
C508 C 0.4556 0.44687 0.98178 0.0
C509 C 0.43706 0.42507 0.01265 0.0
C510 C 0.4863 0.48245 0.98582 0.0
C511 C 0.49886 0.49671 0.02162 0.0
C512 C 0.48036 0.47493 0.05297 0.0
C513 C 0.44963 0.43928 0.04811 0.0
C514 C 0.50532 0.50479 0.95167 0.0
C515 C 0.49301 0.48932 0.09155 0.0
C516 C 0.59831 0.5755 0.02472 0.0
C517 C 0.59358 0.60658 0.0234 0.0
C518 C 0.56766 0.5395 0.02588 0.0
C519 C 0.53143 0.53448 0.0258 0.0
C520 C 0.52649 0.56575 0.02622 0.0
C521 C 0.55764 0.60144 0.02497 0.0
C522 C 0.57404 0.50683 0.02543 0.0
C523 C 0.48829 0.56151 0.0263 0.0
H524 H 0.44614 0.43617 0.95426 0.0
H525 H 0.43543 0.42261 0.07209 0.0
H526 H 0.5047 0.53113 0.95179 0.0
H527 H 0.53485 0.51209 0.95148 0.0
H528 H 0.49212 0.4896 0.92582 0.0
H529 H 0.47562 0.46895 0.11303 0.0
H530 H 0.52219 0.49621 0.09541 0.0
H531 H 0.4921 0.51525 0.09578 0.0
H532 H 0.62598 0.57919 0.02374 0.0
H533 H 0.55373 0.6253 0.02426 0.0
H534 H 0.56434 0.49194 -0.00122 0.0
H535 H 0.5578 0.48694 0.04765 0.0
H536 H 0.60375 0.51536 0.02895 0.0
H537 H 0.47432 0.54937 -0.0003 0.0
H538 H 0.48919 0.58841 0.0302 0.0
H539 H 0.47106 0.54223 0.04852 0.0
C540 C 0.09295 0.76685 0.36368 0.0
C541 C 0.06684 0.77603 0.37683 0.0
C542 C 0.12848 0.7945 0.35286 0.0
C543 C 0.1384 0.83219 0.35631 0.0
C544 C 0.11242 0.8416 0.37044 0.0
C545 C 0.07668 0.81334 0.37995 0.0
C546 C 0.15508 0.78339 0.33697 0.0
C547 C 0.12222 0.88151 0.3752 0.0
C548 C 0.23983 0.90495 0.36408 0.0
C549 C 0.2469 0.92229 0.32941 0.0
C550 C 0.20482 0.87514 0.37289 0.0
C551 C 0.17631 0.8619 0.3462 0.0
C552 C 0.18362 0.87824 0.31063 0.0
C553 C 0.2188 0.90854 0.30275 0.0
C554 C 0.19799 0.85857 0.41117 0.0
C555 C 0.15403 0.86428 0.28124 0.0
H556 H 0.08515 0.73795 0.36056 0.0
H557 H 0.05644 0.82044 0.38994 0.0
H558 H 0.16372 0.7952 0.30885 0.0
H559 H 0.18049 0.79479 0.35409 0.0
H560 H 0.14272 0.75283 0.33534 0.0
H561 H 0.10097 0.88413 0.39141 0.0
H562 H 0.14937 0.89753 0.38921 0.0
H563 H 0.12476 0.89431 0.34772 0.0
H564 H 0.26127 0.91555 0.385 0.0
H565 H 0.22413 0.92181 0.27593 0.0
H566 H 0.18996 0.8289 0.40952 0.0
H567 H 0.1746 0.85989 0.42436 0.0
H568 H 0.22274 0.87292 0.42917 0.0
H569 H 0.1412 0.8338 0.2782 0.0
H570 H 0.16515 0.87752 0.25402 0.0
H571 H 0.13176 0.87007 0.28949 0.0
C572 C 0.2868 0.16892 0.58986 0.0
C573 C 0.31352 0.20626 0.59475 0.0
C574 C 0.29476 0.14075 0.59834 0.0
C575 C 0.32992 0.1502 0.61299 0.0
C576 C 0.3574 0.18786 0.61688 0.0
C577 C 0.34903 0.21548 0.60722 0.0
C578 C 0.26507 0.10085 0.59293 0.0
C579 C 0.39499 0.199 0.63294 0.0
C580 C 0.33056 0.07494 0.67149 0.0
C581 C 0.34415 0.05897 0.64637 0.0
C582 C 0.32716 0.10567 0.66143 0.0
C583 C 0.33733 0.12051 0.62536 0.0
C584 C 0.35254 0.10553 0.60045 0.0
C585 C 0.35582 0.07497 0.61127 0.0
C586 C 0.31148 0.12145 0.68897 0.0
C587 C 0.36368 0.12065 0.56177 0.0
H588 H 0.25937 0.16169 0.58014 0.0
H589 H 0.36979 0.2443 0.61129 0.0
H590 H 0.27681 0.08509 0.57939 0.0
H591 H 0.25408 0.08779 0.62019 0.0
H592 H 0.24166 0.09827 0.57601 0.0
H593 H 0.41408 0.22944 0.63185 0.0
H594 H 0.39176 0.18991 0.66217 0.0
H595 H 0.40796 0.18512 0.61798 0.0
H596 H 0.32159 0.0628 0.69867 0.0
H597 H 0.36628 0.06279 0.59159 0.0
H598 H 0.28407 0.11641 0.67932 0.0
H599 H 0.32985 0.1519 0.69129 0.0
H600 H 0.30799 0.10891 0.71681 0.0
H601 H 0.33855 0.11448 0.54573 0.0
H602 H 0.3786 0.1085 0.54718 0.0
H603 H 0.38173 0.1512 0.56227 0.0
C604 C 0.22948 0.32393 0.02153 0.0
C605 C 0.25314 0.33088 0.99134 0.0
C606 C 0.19439 0.32038 0.01675 0.0
C607 C 0.18255 0.3232 0.98085 0.0
C608 C 0.2064 0.33037 0.95032 0.0
C609 C 0.24154 0.33443 0.95598 0.0
C610 C 0.16987 0.31331 0.05004 0.0
C611 C 0.19453 0.33303 0.91159 0.0
C612 C 0.07869 0.27719 0.96612 0.0
C613 C 0.07297 0.30761 0.96759 0.0
C614 C 0.11439 0.28199 0.96953 0.0
C615 C 0.14492 0.31799 0.97517 0.0
C616 C 0.1394 0.34888 0.97604 0.0
C617 C 0.10349 0.34335 0.97191 0.0
C618 C 0.11933 0.24846 0.96775 0.0
C619 C 0.17124 0.38763 0.98245 0.0
H620 H 0.2384 0.3213 0.04891 0.0
H621 H 0.25959 0.3395 0.93247 0.0
H622 H 0.16154 0.33477 0.05183 0.0
H623 H 0.14414 0.28611 0.04724 0.0
H624 H 0.18379 0.31337 0.0762 0.0
H625 H 0.2165 0.33896 0.89086 0.0
H626 H 0.16938 0.30663 0.90407 0.0
H627 H 0.18719 0.3552 0.91004 0.0
H628 H 0.05518 0.24954 0.96267 0.0
H629 H 0.09919 0.36694 0.9734 0.0
H630 H 0.12989 0.24471 0.99457 0.0
H631 H 0.1402 0.2526 0.94641 0.0
H632 H 0.09304 0.22267 0.96131 0.0
H633 H 0.18389 0.38908 0.00979 0.0
H634 H 0.16239 0.40876 0.98155 0.0
H635 H 0.19311 0.39477 0.96135 0.0
C636 C 0.88729 0.24288 0.32903 0.0
C637 C 0.90789 0.24708 0.3611 0.0
C638 C 0.85876 0.20791 0.31802 0.0
C639 C 0.85049 0.17646 0.33976 0.0
C640 C 0.87078 0.18057 0.37246 0.0
C641 C 0.89932 0.21584 0.3827 0.0
C642 C 0.83773 0.20454 0.28295 0.0
C643 C 0.86249 0.14765 0.39651 0.0
C644 C 0.75579 0.09052 0.33326 0.0
C645 C 0.76334 0.06672 0.31226 0.0
C646 C 0.78375 0.12657 0.34174 0.0
C647 C 0.82017 0.13926 0.32875 0.0
C648 C 0.8278 0.11591 0.30646 0.0
C649 C 0.79925 0.07982 0.2985 0.0
C650 C 0.77454 0.15067 0.36557 0.0
C651 C 0.86632 0.12871 0.2919 0.0
H652 H 0.89389 0.26685 0.31205 0.0
H653 H 0.91513 0.21887 0.40749 0.0
H654 H 0.84057 0.18558 0.26344 0.0
H655 H 0.80776 0.19233 0.2891 0.0
H656 H 0.84768 0.23172 0.2691 0.0
H657 H 0.88073 0.15558 0.42114 0.0
H658 H 0.83323 0.13385 0.40593 0.0
H659 H 0.86605 0.127 0.38037 0.0
H660 H 0.72809 0.08074 0.34392 0.0
H661 H 0.80529 0.06164 0.28221 0.0
H662 H 0.78309 0.17745 0.35156 0.0
H663 H 0.79015 0.15702 0.39187 0.0
H664 H 0.74449 0.13721 0.37208 0.0
H665 H 0.87679 0.15521 0.27666 0.0
H666 H 0.86723 0.108 0.27325 0.0
H667 H 0.88551 0.13395 0.31528 0.0
C668 C 0.6212 0.78538 0.61195 0.0
C669 C 0.60327 0.74787 0.62188 0.0
C670 C 0.62347 0.81225 0.63686 0.0
C671 C 0.60821 0.8013 0.67274 0.0
C672 C 0.58852 0.76333 0.68224 0.0
C673 C 0.58586 0.73701 0.65651 0.0
C674 C 0.64413 0.85253 0.62552 0.0
C675 C 0.5721 0.7507 0.72027 0.0
C676 C 0.65997 0.87666 0.74318 0.0
C677 C 0.63735 0.89263 0.74577 0.0
C678 C 0.64944 0.84514 0.72142 0.0
C679 C 0.61593 0.8299 0.70117 0.0
C680 C 0.59172 0.84425 0.70586 0.0
C681 C 0.60255 0.87526 0.72855 0.0
C682 C 0.67542 0.82979 0.71809 0.0
C683 C 0.55599 0.82913 0.68445 0.0
H684 H 0.63462 0.7939 0.58524 0.0
H685 H 0.57203 0.70807 0.66453 0.0
H686 H 0.62805 0.86631 0.63293 0.0
H687 H 0.67084 0.86699 0.64057 0.0
H688 H 0.64997 0.85599 0.59543 0.0
H689 H 0.55792 0.72009 0.72343 0.0
H690 H 0.59424 0.76347 0.74137 0.0
H691 H 0.55189 0.76005 0.7261 0.0
H692 H 0.68687 0.8901 0.7565 0.0
H693 H 0.58514 0.88776 0.73009 0.0
H694 H 0.6881 0.83588 0.69016 0.0
H695 H 0.66001 0.79923 0.72151 0.0
H696 H 0.698 0.84192 0.73886 0.0
H697 H 0.56242 0.83844 0.65532 0.0
H698 H 0.53757 0.83894 0.69578 0.0
H699 H 0.54078 0.79839 0.68444 0.0
C700 C 0.7833 0.71501 0.0541 0.0
C701 C 0.76386 0.72017 0.0253 0.0
C702 C 0.81352 0.70977 0.04667 0.0
C703 C 0.8243 0.70952 0.00962 0.0
C704 C 0.80519 0.71536 0.98053 0.0
C705 C 0.77535 0.72074 0.98872 0.0
C706 C 0.83354 0.70389 0.07838 0.0
C707 C 0.81576 0.7152 0.94064 0.0
C708 C 0.92021 0.72532 0.98744 0.0
C709 C 0.91304 0.68897 0.98184 0.0
C710 C 0.89168 0.73237 0.99714 0.0
C711 C 0.85507 0.7024 0.00096 0.0
C712 C 0.84758 0.66568 0.99507 0.0
C713 C 0.8767 0.65939 0.98572 0.0
C714 C 0.90072 0.77189 0.00334 0.0
C715 C 0.80876 0.63304 -0.00155 0.0
H716 H 0.77463 0.71456 0.0824 0.0
H717 H 0.76057 0.72475 0.96619 0.0
H718 H 0.83067 0.67598 0.07634 0.0
H719 H 0.86358 0.72445 0.07701 0.0
H720 H 0.82269 0.70631 0.10563 0.0
H721 H 0.79837 0.72072 0.9213 0.0
H722 H 0.84522 0.73646 0.93615 0.0
H723 H 0.81285 0.68791 0.93369 0.0
H724 H 0.94826 0.74834 0.98477 0.0
H725 H 0.87096 0.63124 0.98147 0.0
H726 H 0.89177 0.77481 0.03139 0.0
H727 H 0.88531 0.7793 0.98333 0.0
H728 H 0.9308 0.79198 0.00033 0.0
H729 H 0.79758 0.6324 0.02642 0.0
H730 H 0.80767 0.60619 0.99344 0.0
H731 H 0.79026 0.63594 0.97836 0.0
C732 C 0.30088 0.03753 0.43395 0.0
C733 C 0.27407 0.02081 0.40632 0.0
C734 C 0.29349 0.02417 0.47026 0.0
C735 C 0.25863 0.99308 0.47896 0.0
C736 C 0.23065 0.97755 0.45174 0.0
C737 C 0.23869 0.99168 0.41567 0.0
C738 C 0.32373 0.04208 0.49883 0.0
C739 C 0.19321 0.94428 0.45974 0.0
C740 C 0.26618 0.93779 0.55793 0.0
C741 C 0.25466 0.95091 0.58783 0.0
C742 C 0.26522 0.94944 0.52184 0.0
C743 C 0.25303 0.97525 0.51569 0.0
C744 C 0.23913 0.98672 0.54541 0.0
C745 C 0.23986 0.97419 0.58116 0.0
C746 C 0.27946 0.9359 0.49063 0.0
C747 C 0.22542 0.01378 0.53967 0.0
H748 H 0.32819 0.06014 0.42688 0.0
H749 H 0.21789 0.97832 0.39438 0.0
H750 H 0.31255 0.04672 0.52484 0.0
H751 H 0.33478 0.02336 0.5053 0.0
H752 H 0.34703 0.06898 0.48912 0.0
H753 H 0.17201 0.94214 0.43978 0.0
H754 H 0.19538 0.91887 0.45753 0.0
H755 H 0.18356 0.94516 0.48805 0.0
H756 H 0.27739 0.91959 0.56286 0.0
H757 H 0.23078 0.9844 0.60411 0.0
H758 H 0.30756 0.95819 0.48255 0.0
H759 H 0.26136 0.92909 0.46605 0.0
H760 H 0.28123 0.91106 0.49861 0.0
H761 H 0.24805 0.04013 0.52818 0.0
H762 H 0.21531 0.01984 0.56568 0.0
H763 H 0.20255 0.00257 0.51927 0.0
C764 C 0.35076 0.29721 0.89601 0.0
C765 C 0.32048 0.2706 0.91645 0.0
C766 C 0.34999 0.29729 0.85739 0.0
C767 C 0.31836 0.26982 0.83868 0.0
C768 C 0.28831 0.24196 0.85903 0.0
C769 C 0.28965 0.24277 0.89776 0.0
C770 C 0.38256 0.32756 0.83664 0.0
C771 C 0.25437 0.21193 0.83992 0.0
C772 C 0.30448 0.2966 0.74243 0.0
C773 C 0.32123 0.28118 0.72073 0.0
C774 C 0.30225 0.29208 0.78091 0.0
C775 C 0.3166 0.2712 0.79784 0.0
C776 C 0.3319 0.25409 0.77584 0.0
C777 C 0.33429 0.25953 0.73755 0.0
C778 C 0.28598 0.31097 0.80356 0.0
C779 C 0.34691 0.23111 0.79284 0.0
H780 H 0.3747 0.31885 0.91019 0.0
H781 H 0.26617 0.22209 0.91336 0.0
H782 H 0.39362 0.31526 0.8167 0.0
H783 H 0.37343 0.34426 0.82054 0.0
H784 H 0.40537 0.3464 0.85533 0.0
H785 H 0.23461 0.19081 0.85959 0.0
H786 H 0.23989 0.2244 0.82518 0.0
H787 H 0.26251 0.19789 0.81896 0.0
H788 H 0.29431 0.31329 0.72951 0.0
H789 H 0.3468 0.24711 0.72079 0.0
H790 H 0.30787 0.33254 0.82122 0.0
H791 H 0.26403 0.29072 0.82217 0.0
H792 H 0.27399 0.32428 0.78607 0.0
H793 H 0.37203 0.24923 0.80924 0.0
H794 H 0.35433 0.2166 0.77168 0.0
H795 H 0.32624 0.21018 0.81199 0.0
C796 C 0.02264 0.35576 0.26792 0.0
C797 C 0.02868 0.3284 0.28364 0.0
C798 C 0.01942 0.35791 0.2296 0.0
C799 C 0.02279 0.3324 0.20642 0.0
C800 C 0.03002 0.30545 0.22201 0.0
C801 C 0.03266 0.30363 0.26049 0.0
C802 C 0.01149 0.38689 0.21399 0.0
C803 C 0.03433 0.27814 0.19808 0.0
C804 C 0.97932 0.31443 0.11106 0.0
C805 C 0.00999 0.33749 0.089 0.0
C806 C 0.98308 0.3125 0.14939 0.0
C807 C 0.01842 0.33376 0.16586 0.0
C808 C 0.04952 0.35674 0.14365 0.0
C809 C 0.04489 0.35849 0.10554 0.0
C810 C 0.94921 0.28796 0.17232 0.0
C811 C 0.0877 0.37948 0.16015 0.0
H812 H 0.01929 0.37487 0.28563 0.0
H813 H 0.03739 0.28247 0.27245 0.0
H814 H 0.03323 0.40453 0.19377 0.0
H815 H 0.98468 0.37322 0.19903 0.0
H816 H 0.01018 0.405 0.23575 0.0
H817 H 0.0414 0.25992 0.2144 0.0
H818 H 0.00819 0.26049 0.18291 0.0
H819 H 0.05636 0.29314 0.17718 0.0
H820 H 0.95229 0.29819 0.09844 0.0
H821 H 0.0688 0.37615 0.08863 0.0
H822 H 0.94491 0.30482 0.19335 0.0
H823 H 0.95334 0.26707 0.18734 0.0
H824 H 0.92373 0.27325 0.1553 0.0
H825 H 0.08771 0.39936 0.18052 0.0
H826 H 0.10917 0.39526 0.13892 0.0
H827 H 0.09553 0.36115 0.17514 0.0
C828 C 0.74149 0.96705 0.4433 0.0
C829 C 0.70513 0.95134 0.42986 0.0
C830 C 0.74865 0.97027 0.48137 0.0
C831 C 0.71871 0.9573 0.50652 0.0
C832 C 0.68185 0.93934 0.49315 0.0
C833 C 0.6755 0.93666 0.45496 0.0
C834 C 0.78831 0.9895 0.49456 0.0
C835 C 0.64914 0.92464 0.51916 0.0
C836 C 0.73004 0.94632 0.60896 0.0
C837 C 0.73049 0.97782 0.62344 0.0
C838 C 0.72746 0.93975 0.57078 0.0
C839 C 0.72574 0.96553 0.54657 0.0
C840 C 0.72831 -0.00162 0.56088 0.0
C841 C 0.73061 0.00411 0.59913 0.0
C842 C 0.72513 0.90459 0.55647 0.0
C843 C 0.72686 0.0267 0.53591 0.0
H844 H 0.76458 0.97837 0.42412 0.0
H845 H 0.64731 0.92419 0.44482 0.0
H846 H 0.79565 0.01702 0.50606 0.0
H847 H 0.79187 0.97338 0.51697 0.0
H848 H 0.80805 0.99365 0.47193 0.0
H849 H 0.62229 0.90852 0.50453 0.0
H850 H 0.65125 0.90665 0.54051 0.0
H851 H 0.64914 0.94811 0.53367 0.0
H852 H 0.7303 0.92603 0.62751 0.0
H853 H 0.73116 0.02862 0.61003 0.0
H854 H 0.74764 0.91139 0.53622 0.0
H855 H 0.69848 0.88769 0.54181 0.0
H856 H 0.72721 0.88753 0.57893 0.0
H857 H 0.74788 0.03507 0.51367 0.0
H858 H 0.73176 0.05191 0.55112 0.0
H859 H 0.69927 0.01433 0.5225 0.0
C860 C 0.65142 0.73379 0.8678 0.0
C861 C 0.67055 0.71891 0.88643 0.0
C862 C 0.65253 0.73636 0.82906 0.0
C863 C 0.67376 0.72438 0.80878 0.0
C864 C 0.69406 0.71053 0.82764 0.0
C865 C 0.69195 0.70768 0.86615 0.0
C866 C 0.6302 0.75087 0.80976 0.0
C867 C 0.71758 0.6981 0.8071 0.0
C868 C 0.65083 0.69162 0.70974 0.0
C869 C 0.67776 0.72241 0.69019 0.0
C870 C 0.64834 0.69247 0.74828 0.0
C871 C 0.67376 0.72468 0.76778 0.0
C872 C 0.70076 0.75601 0.74817 0.0
C873 C 0.70226 0.75459 0.70954 0.0
C874 C 0.61878 0.6587 0.76818 0.0
C875 C 0.72861 0.79068 0.76805 0.0
H876 H 0.63484 0.74246 0.88342 0.0
H877 H 0.70721 0.69663 0.88044 0.0
H878 H 0.64828 0.77421 0.79121 0.0
H879 H 0.60869 0.72871 0.79229 0.0
H880 H 0.61636 0.7605 0.8295 0.0
H881 H 0.73337 0.69007 0.82604 0.0
H882 H 0.6997 0.67398 0.78939 0.0
H883 H 0.73749 0.7206 0.78872 0.0
H884 H 0.63136 0.6669 0.69489 0.0
H885 H 0.72291 0.7786 0.69453 0.0
H886 H 0.60237 0.66656 0.78639 0.0
H887 H 0.63193 0.64684 0.78602 0.0
H888 H 0.5996 0.63687 0.74882 0.0
H889 H 0.71421 0.8006 0.78664 0.0
H890 H 0.74636 0.81338 0.74865 0.0
H891 H 0.74668 0.7844 0.78551 0.0
C892 C 0.9717 0.66564 0.25084 0.0
C893 C -0.004 0.66131 0.27435 0.0
C894 C 0.97625 0.66666 0.21241 0.0
C895 C 0.00578 0.66326 0.19723 0.0
C896 C 0.03021 0.6586 0.22078 0.0
C897 C 0.02503 0.65768 0.25908 0.0
C898 C 0.94961 0.67162 0.18806 0.0
C899 C 0.06195 0.65482 0.20554 0.0
C900 C -0.00455 0.63332 0.0972 0.0
C901 C 0.0161 0.66741 0.07901 0.0
C902 C 0.99264 0.63147 0.13578 0.0
C903 C 0.01095 0.66451 0.15663 0.0
C904 C 0.03299 0.69886 0.13856 0.0
C905 C 0.03534 0.69991 0.09991 0.0
C906 C 0.96908 0.59429 0.15413 0.0
C907 C 0.05309 0.73464 0.15999 0.0
H908 H 0.94926 0.66852 0.26244 0.0
H909 H 0.04397 0.65436 0.27706 0.0
H910 H 0.96498 0.69708 0.17113 0.0
H911 H 0.93572 0.64792 0.16872 0.0
H912 H 0.92802 0.6737 0.20421 0.0
H913 H 0.07829 0.65107 0.22763 0.0
H914 H 0.05124 0.63076 0.18657 0.0
H915 H 0.08077 0.67983 0.18925 0.0
H916 H 0.98064 0.60804 0.08128 0.0
H917 H 0.0514 0.72635 0.08606 0.0
H918 H 0.94514 0.59384 0.16814 0.0
H919 H 0.98531 0.58962 0.17559 0.0
H920 H 0.95838 0.57101 0.13412 0.0
H921 H 0.03266 0.74006 0.17424 0.0
H922 H 0.07075 0.75872 0.14197 0.0
H923 H 0.07078 0.73243 0.18157 0.0
loop_
_geom_bond_atom_site_label_1
_geom_bond_atom_site_label_2
_geom_bond_distance
_geom_bond_site_symmetry_2
_ccdc_geom_bond_type
C0 O1 1.160 . S
C0 O7 1.185 . S
O1 C0 1.160 . S
O2 Zn3 1.899 1_565 S
O2 C10 1.284 . S
Zn3 O2 1.899 1_545 S
Zn3 O4 2.032 . S
Zn3 O7 2.086 . S
Zn3 O12 1.977 . S
O4 Zn3 2.032 . S
O4 C8 1.278 1_545 S
C5 O6 1.203 1_545 S
C5 O12 1.267 . S
O6 C5 1.203 1_565 S
O7 C0 1.185 . S
O7 Zn3 2.086 . S
C8 O4 1.278 1_565 S
C8 O9 1.211 . S
O9 C8 1.211 . S
C10 O2 1.284 . S
C10 O11 1.273 . S
O11 C10 1.273 . S
O12 Zn3 1.977 . S
O12 C5 1.267 . S
C13 O14 1.160 . S
C13 O20 1.185 . S
O14 C13 1.160 . S
O15 Zn16 1.899 . S
O15 C23 1.284 . S
Zn16 O15 1.899 . S
Zn16 O17 2.032 . S
Zn16 O20 2.086 . S
Zn16 O25 1.977 . S
O17 Zn16 2.032 . S
O17 C21 1.278 . S
C18 O19 1.203 . S
C18 O25 1.267 . S
O19 C18 1.203 . S
O20 C13 1.185 . S
O20 Zn16 2.086 . S
C21 O17 1.278 . S
C21 O22 1.211 . S
O22 C21 1.211 . S
C23 O15 1.284 . S
C23 O24 1.273 . S
O24 C23 1.273 . S
O25 Zn16 1.977 . S
O25 C18 1.267 . S
C26 O27 1.160 . S
C26 O33 1.185 . S
O27 C26 1.160 . S
O28 Zn29 1.899 1_455 S
O28 C36 1.284 . S
Zn29 O28 1.899 1_655 S
Zn29 O30 2.032 . S
Zn29 O33 2.086 . S
Zn29 O38 1.977 1_556 S
O30 Zn29 2.032 . S
O30 C34 1.278 1_655 S
C31 O32 1.203 1_655 S
C31 O38 1.267 . S
O32 C31 1.203 1_455 S
O33 C26 1.185 . S
O33 Zn29 2.086 . S
C34 O30 1.278 1_455 S
C34 O35 1.211 . S
O35 C34 1.211 . S
C36 O28 1.284 . S
C36 O37 1.273 . S
O37 C36 1.273 . S
O38 Zn29 1.977 1_554 S
O38 C31 1.267 . S
C39 O40 1.160 . S
C39 O46 1.185 . S
O40 C39 1.160 . S
O41 Zn42 1.899 1_545 S
O41 C49 1.284 . S
Zn42 O41 1.899 1_565 S
Zn42 O43 2.032 . S
Zn42 O46 2.086 . S
Zn42 O51 1.977 . S
O43 Zn42 2.032 . S
O43 C47 1.278 1_565 S
C44 O45 1.203 1_565 S
C44 O51 1.267 . S
O45 C44 1.203 1_545 S
O46 C39 1.185 . S
O46 Zn42 2.086 . S
C47 O43 1.278 1_545 S
C47 O48 1.211 . S
O48 C47 1.211 . S
C49 O41 1.284 . S
C49 O50 1.273 . S
O50 C49 1.273 . S
O51 Zn42 1.977 . S
O51 C44 1.267 . S
C52 O53 1.160 . S
C52 O59 1.185 . S
O53 C52 1.160 . S
O54 Zn55 1.899 . S
O54 C62 1.284 . S
Zn55 O54 1.899 . S
Zn55 O56 2.032 . S
Zn55 O59 2.086 . S
Zn55 O64 1.977 . S
O56 Zn55 2.032 . S
O56 C60 1.278 . S
C57 O58 1.203 . S
C57 O64 1.267 . S
O58 C57 1.203 . S
O59 C52 1.185 . S
O59 Zn55 2.086 . S
C60 O56 1.278 . S
C60 O61 1.211 . S
O61 C60 1.211 . S
C62 O54 1.284 . S
C62 O63 1.273 . S
O63 C62 1.273 . S
O64 Zn55 1.977 . S
O64 C57 1.267 . S
C65 O66 1.160 . S
C65 O72 1.185 . S
O66 C65 1.160 . S
O67 Zn68 1.899 1_655 S
O67 C75 1.284 . S
Zn68 O67 1.899 1_455 S
Zn68 O69 2.032 . S
Zn68 O72 2.086 . S
Zn68 O77 1.977 1_556 S
O69 Zn68 2.032 . S
O69 C73 1.278 1_455 S
C70 O71 1.203 1_455 S
C70 O77 1.267 . S
O71 C70 1.203 1_655 S
O72 C65 1.185 . S
O72 Zn68 2.086 . S
C73 O69 1.278 1_655 S
C73 O74 1.211 . S
O74 C73 1.211 . S
C75 O67 1.284 . S
C75 O76 1.273 . S
O76 C75 1.273 . S
O77 Zn68 1.977 1_554 S
O77 C70 1.267 . S
C78 O79 1.160 . S
C78 O85 1.185 . S
O79 C78 1.160 . S
O80 Zn81 1.899 1_455 S
O80 C88 1.284 . S
Zn81 O80 1.899 1_655 S
Zn81 O82 2.032 . S
Zn81 O85 2.086 . S
Zn81 O90 1.977 . S
O82 Zn81 2.032 . S
O82 C86 1.278 1_655 S
C83 O84 1.203 1_655 S
C83 O90 1.267 . S
O84 C83 1.203 1_455 S
O85 C78 1.185 . S
O85 Zn81 2.086 . S
C86 O82 1.278 1_455 S
C86 O87 1.211 . S
O87 C86 1.211 . S
C88 O80 1.284 . S
C88 O89 1.273 . S
O89 C88 1.273 . S
O90 Zn81 1.977 . S
O90 C83 1.267 . S
C91 O92 1.160 . S
C91 O98 1.185 . S
O92 C91 1.160 . S
O93 Zn94 1.899 1_545 S
O93 C101 1.284 . S
Zn94 O93 1.899 1_565 S
Zn94 O95 2.032 . S
Zn94 O98 2.086 . S
Zn94 O103 1.977 . S
O95 Zn94 2.032 . S
O95 C99 1.278 1_565 S
C96 O97 1.203 1_565 S
C96 O103 1.267 . S
O97 C96 1.203 1_545 S
O98 C91 1.185 . S
O98 Zn94 2.086 . S
C99 O95 1.278 1_545 S
C99 O100 1.211 . S
O100 C99 1.211 . S
C101 O93 1.284 . S
C101 O102 1.273 . S
O102 C101 1.273 . S
O103 Zn94 1.977 . S
O103 C96 1.267 . S
C104 O105 1.160 . S
C104 O111 1.185 . S
O105 C104 1.160 . S
O106 Zn107 1.899 . S
O106 C114 1.284 . S
Zn107 O106 1.899 . S
Zn107 O108 2.032 . S
Zn107 O111 2.086 . S
Zn107 O116 1.977 1_554 S
O108 Zn107 2.032 . S
O108 C112 1.278 . S
C109 O110 1.203 . S
C109 O116 1.267 . S
O110 C109 1.203 . S
O111 C104 1.185 . S
O111 Zn107 2.086 . S
C112 O108 1.278 . S
C112 O113 1.211 . S
O113 C112 1.211 . S
C114 O106 1.284 . S
C114 O115 1.273 . S
O115 C114 1.273 . S
O116 Zn107 1.977 1_556 S
O116 C109 1.267 . S
C117 O118 1.160 . S
C117 O124 1.185 . S
O118 C117 1.160 . S
O119 Zn120 1.899 1_655 S
O119 C127 1.284 . S
Zn120 O119 1.899 1_455 S
Zn120 O121 2.032 . S
Zn120 O124 2.086 . S
Zn120 O129 1.977 . S
O121 Zn120 2.032 . S
O121 C125 1.278 1_455 S
C122 O123 1.203 1_455 S
C122 O129 1.267 . S
O123 C122 1.203 1_655 S
O124 C117 1.185 . S
O124 Zn120 2.086 . S
C125 O121 1.278 1_655 S
C125 O126 1.211 . S
O126 C125 1.211 . S
C127 O119 1.284 . S
C127 O128 1.273 . S
O128 C127 1.273 . S
O129 Zn120 1.977 . S
O129 C122 1.267 . S
C130 O131 1.160 . S
C130 O137 1.185 . S
O131 C130 1.160 . S
O132 Zn133 1.899 1_565 S
O132 C140 1.284 . S
Zn133 O132 1.899 1_545 S
Zn133 O134 2.032 . S
Zn133 O137 2.086 . S
Zn133 O142 1.977 . S
O134 Zn133 2.032 . S
O134 C138 1.278 1_545 S
C135 O136 1.203 1_545 S
C135 O142 1.267 . S
O136 C135 1.203 1_565 S
O137 C130 1.185 . S
O137 Zn133 2.086 . S
C138 O134 1.278 1_565 S
C138 O139 1.211 . S
O139 C138 1.211 . S
C140 O132 1.284 . S
C140 O141 1.273 . S
O141 C140 1.273 . S
O142 Zn133 1.977 . S
O142 C135 1.267 . S
C143 O144 1.160 . S
C143 O150 1.185 . S
O144 C143 1.160 . S
O145 Zn146 1.899 . S
O145 C153 1.284 . S
Zn146 O145 1.899 . S
Zn146 O147 2.032 . S
Zn146 O150 2.086 . S
Zn146 O155 1.977 1_554 S
O147 Zn146 2.032 . S
O147 C151 1.278 . S
C148 O149 1.203 . S
C148 O155 1.267 . S
O149 C148 1.203 . S
O150 C143 1.185 . S
O150 Zn146 2.086 . S
C151 O147 1.278 . S
C151 O152 1.211 . S
O152 C151 1.211 . S
C153 O145 1.284 . S
C153 O154 1.273 . S
O154 C153 1.273 . S
O155 Zn146 1.977 1_556 S
O155 C148 1.267 . S
C156 C157 1.391 . S
C156 C158 1.394 . S
C156 H172 0.931 . S
C157 C156 1.391 . S
C157 C161 1.376 . S
C158 C156 1.394 . S
C158 C159 1.369 . S
C158 C162 1.531 . S
C159 C158 1.369 . S
C159 C160 1.410 . S
C159 C167 1.503 . S
C160 C159 1.410 . S
C160 C161 1.392 . S
C160 C163 1.511 . S
C161 C157 1.376 . S
C161 C160 1.392 . S
C161 H173 0.929 . S
C162 C158 1.531 . S
C162 H174 0.960 . S
C162 H175 0.962 . S
C162 H176 0.960 . S
C163 C160 1.511 . S
C163 H177 0.961 . S
C163 H178 0.961 . S
C163 H179 0.961 . S
C164 C165 1.370 . S
C164 C166 1.363 . S
C164 H180 0.931 . S
C165 C164 1.370 . S
C165 C169 1.408 . S
C166 C164 1.363 . S
C166 C167 1.370 . S
C166 C170 1.524 . S
C167 C159 1.503 . S
C167 C166 1.370 . S
C167 C168 1.403 . S
C168 C167 1.403 . S
C168 C169 1.404 . S
C168 C171 1.539 . S
C169 C165 1.408 . S
C169 C168 1.404 . S
C169 H181 0.930 . S
C170 C166 1.524 . S
C170 H182 0.956 . S
C170 H183 0.961 . S
C170 H184 0.961 . S
C171 C168 1.539 . S
C171 H185 0.958 . S
C171 H186 0.961 . S
C171 H187 0.960 . S
H172 C156 0.931 . S
H173 C161 0.929 . S
H174 C162 0.960 . S
H175 C162 0.962 . S
H176 C162 0.960 . S
H177 C163 0.961 . S
H178 C163 0.961 . S
H179 C163 0.961 . S
H180 C164 0.931 . S
H181 C169 0.930 . S
H182 C170 0.956 . S
H183 C170 0.961 . S
H184 C170 0.961 . S
H185 C171 0.958 . S
H186 C171 0.961 . S
H187 C171 0.960 . S
C188 C189 1.391 . S
C188 C190 1.394 . S
C188 H204 0.931 . S
C189 C188 1.391 . S
C189 C193 1.376 . S
C190 C188 1.394 . S
C190 C191 1.369 . S
C190 C194 1.531 . S
C191 C190 1.369 . S
C191 C192 1.410 . S
C191 C199 1.503 . S
C192 C191 1.410 . S
C192 C193 1.392 . S
C192 C195 1.511 . S
C193 C189 1.376 . S
C193 C192 1.392 . S
C193 H205 0.929 . S
C194 C190 1.531 . S
C194 H206 0.960 . S
C194 H207 0.962 . S
C194 H208 0.960 . S
C195 C192 1.511 . S
C195 H209 0.961 . S
C195 H210 0.961 . S
C195 H211 0.961 . S
C196 C197 1.370 . S
C196 C198 1.363 . S
C196 H212 0.931 . S
C197 C196 1.370 . S
C197 C201 1.408 . S
C198 C196 1.363 . S
C198 C199 1.370 . S
C198 C202 1.524 . S
C199 C191 1.503 . S
C199 C198 1.370 . S
C199 C200 1.403 . S
C200 C199 1.403 . S
C200 C201 1.404 . S
C200 C203 1.539 . S
C201 C197 1.408 . S
C201 C200 1.404 . S
C201 H213 0.930 . S
C202 C198 1.524 . S
C202 H214 0.956 . S
C202 H215 0.961 . S
C202 H216 0.961 . S
C203 C200 1.539 . S
C203 H217 0.958 . S
C203 H218 0.961 . S
C203 H219 0.960 . S
H204 C188 0.931 . S
H205 C193 0.929 . S
H206 C194 0.960 . S
H207 C194 0.962 . S
H208 C194 0.960 . S
H209 C195 0.961 . S
H210 C195 0.961 . S
H211 C195 0.961 . S
H212 C196 0.931 . S
H213 C201 0.930 . S
H214 C202 0.956 . S
H215 C202 0.961 . S
H216 C202 0.961 . S
H217 C203 0.958 . S
H218 C203 0.961 . S
H219 C203 0.960 . S
C220 C221 1.391 . S
C220 C222 1.394 . S
C220 H236 0.931 . S
C221 C220 1.391 . S
C221 C225 1.376 . S
C222 C220 1.394 . S
C222 C223 1.369 . S
C222 C226 1.531 . S
C223 C222 1.369 . S
C223 C224 1.410 . S
C223 C231 1.503 . S
C224 C223 1.410 . S
C224 C225 1.392 . S
C224 C227 1.511 . S
C225 C221 1.376 . S
C225 C224 1.392 . S
C225 H237 0.929 . S
C226 C222 1.531 . S
C226 H238 0.960 . S
C226 H239 0.962 . S
C226 H240 0.960 . S
C227 C224 1.511 . S
C227 H241 0.961 . S
C227 H242 0.961 . S
C227 H243 0.961 . S
C228 C229 1.370 . S
C228 C230 1.363 . S
C228 H244 0.931 . S
C229 C228 1.370 . S
C229 C233 1.408 . S
C230 C228 1.363 . S
C230 C231 1.370 . S
C230 C234 1.524 . S
C231 C223 1.503 . S
C231 C230 1.370 . S
C231 C232 1.403 . S
C232 C231 1.403 . S
C232 C233 1.404 . S
C232 C235 1.539 . S
C233 C229 1.408 . S
C233 C232 1.404 . S
C233 H245 0.930 . S
C234 C230 1.524 . S
C234 H246 0.956 . S
C234 H247 0.961 . S
C234 H248 0.961 . S
C235 C232 1.539 . S
C235 H249 0.958 . S
C235 H250 0.961 . S
C235 H251 0.960 . S
H236 C220 0.931 . S
H237 C225 0.929 . S
H238 C226 0.960 . S
H239 C226 0.962 . S
H240 C226 0.960 . S
H241 C227 0.961 . S
H242 C227 0.961 . S
H243 C227 0.961 . S
H244 C228 0.931 . S
H245 C233 0.930 . S
H246 C234 0.956 . S
H247 C234 0.961 . S
H248 C234 0.961 . S
H249 C235 0.958 . S
H250 C235 0.961 . S
H251 C235 0.960 . S
C252 C253 1.391 . S
C252 C254 1.394 . S
C252 H268 0.931 . S
C253 C252 1.391 . S
C253 C257 1.376 . S
C254 C252 1.394 . S
C254 C255 1.369 . S
C254 C258 1.531 . S
C255 C254 1.369 . S
C255 C256 1.410 . S
C255 C263 1.503 . S
C256 C255 1.410 . S
C256 C257 1.392 . S
C256 C259 1.511 . S
C257 C253 1.376 . S
C257 C256 1.392 . S
C257 H269 0.929 . S
C258 C254 1.531 . S
C258 H270 0.960 . S
C258 H271 0.962 . S
C258 H272 0.960 . S
C259 C256 1.511 . S
C259 H273 0.961 . S
C259 H274 0.961 . S
C259 H275 0.961 . S
C260 C261 1.370 . S
C260 C262 1.363 . S
C260 H276 0.931 . S
C261 C260 1.370 . S
C261 C265 1.408 . S
C262 C260 1.363 . S
C262 C263 1.370 . S
C262 C266 1.524 . S
C263 C255 1.503 . S
C263 C262 1.370 . S
C263 C264 1.403 . S
C264 C263 1.403 . S
C264 C265 1.404 . S
C264 C267 1.539 . S
C265 C261 1.408 . S
C265 C264 1.404 . S
C265 H277 0.930 . S
C266 C262 1.524 . S
C266 H278 0.956 . S
C266 H279 0.961 . S
C266 H280 0.961 . S
C267 C264 1.539 . S
C267 H281 0.958 . S
C267 H282 0.961 . S
C267 H283 0.960 . S
H268 C252 0.931 . S
H269 C257 0.929 . S
H270 C258 0.960 . S
H271 C258 0.962 . S
H272 C258 0.960 . S
H273 C259 0.961 . S
H274 C259 0.961 . S
H275 C259 0.961 . S
H276 C260 0.931 . S
H277 C265 0.930 . S
H278 C266 0.956 . S
H279 C266 0.961 . S
H280 C266 0.961 . S
H281 C267 0.958 . S
H282 C267 0.961 . S
H283 C267 0.960 . S
C284 C285 1.391 . S
C284 C286 1.394 . S
C284 H300 0.931 . S
C285 C284 1.391 . S
C285 C289 1.376 . S
C286 C284 1.394 . S
C286 C287 1.369 . S
C286 C290 1.531 . S
C287 C286 1.369 . S
C287 C288 1.410 . S
C287 C295 1.503 . S
C288 C287 1.410 . S
C288 C289 1.392 . S
C288 C291 1.511 . S
C289 C285 1.376 . S
C289 C288 1.392 . S
C289 H301 0.929 . S
C290 C286 1.531 . S
C290 H302 0.960 . S
C290 H303 0.962 . S
C290 H304 0.960 . S
C291 C288 1.511 . S
C291 H305 0.961 . S
C291 H306 0.961 . S
C291 H307 0.961 . S
C292 C293 1.370 . S
C292 C294 1.363 . S
C292 H308 0.931 . S
C293 C292 1.370 . S
C293 C297 1.408 . S
C294 C292 1.363 . S
C294 C295 1.370 . S
C294 C298 1.524 . S
C295 C287 1.503 . S
C295 C294 1.370 . S
C295 C296 1.403 . S
C296 C295 1.403 . S
C296 C297 1.404 . S
C296 C299 1.539 . S
C297 C293 1.408 . S
C297 C296 1.404 . S
C297 H309 0.930 . S
C298 C294 1.524 . S
C298 H310 0.956 . S
C298 H311 0.961 . S
C298 H312 0.961 . S
C299 C296 1.539 . S
C299 H313 0.958 . S
C299 H314 0.961 . S
C299 H315 0.960 . S
H300 C284 0.931 . S
H301 C289 0.929 . S
H302 C290 0.960 . S
H303 C290 0.962 . S
H304 C290 0.960 . S
H305 C291 0.961 . S
H306 C291 0.961 . S
H307 C291 0.961 . S
H308 C292 0.931 . S
H309 C297 0.930 . S
H310 C298 0.956 . S
H311 C298 0.961 . S
H312 C298 0.961 . S
H313 C299 0.958 . S
H314 C299 0.961 . S
H315 C299 0.960 . S
C316 C317 1.391 . S
C316 C318 1.394 . S
C316 H332 0.931 . S
C317 C316 1.391 . S
C317 C321 1.376 . S
C318 C316 1.394 . S
C318 C319 1.369 . S
C318 C322 1.531 . S
C319 C318 1.369 . S
C319 C320 1.410 . S
C319 C327 1.503 . S
C320 C319 1.410 . S
C320 C321 1.392 . S
C320 C323 1.511 . S
C321 C317 1.376 . S
C321 C320 1.392 . S
C321 H333 0.929 . S
C322 C318 1.531 . S
C322 H334 0.960 . S
C322 H335 0.962 . S
C322 H336 0.960 . S
C323 C320 1.511 . S
C323 H337 0.961 . S
C323 H338 0.961 . S
C323 H339 0.961 . S
C324 C325 1.370 . S
C324 C326 1.363 . S
C324 H340 0.931 . S
C325 C324 1.370 . S
C325 C329 1.408 . S
C326 C324 1.363 . S
C326 C327 1.370 . S
C326 C330 1.524 . S
C327 C319 1.503 . S
C327 C326 1.370 . S
C327 C328 1.403 . S
C328 C327 1.403 . S
C328 C329 1.404 . S
C328 C331 1.539 . S
C329 C325 1.408 . S
C329 C328 1.404 . S
C329 H341 0.930 . S
C330 C326 1.524 . S
C330 H342 0.956 . S
C330 H343 0.961 . S
C330 H344 0.961 . S
C331 C328 1.539 . S
C331 H345 0.958 . S
C331 H346 0.961 . S
C331 H347 0.960 . S
H332 C316 0.931 . S
H333 C321 0.929 . S
H334 C322 0.960 . S
H335 C322 0.962 . S
H336 C322 0.960 . S
H337 C323 0.961 . S
H338 C323 0.961 . S
H339 C323 0.961 . S
H340 C324 0.931 . S
H341 C329 0.930 . S
H342 C330 0.956 . S
H343 C330 0.961 . S
H344 C330 0.961 . S
H345 C331 0.958 . S
H346 C331 0.961 . S
H347 C331 0.960 . S
C348 C349 1.391 . S
C348 C350 1.394 . S
C348 H364 0.931 . S
C349 C348 1.391 . S
C349 C353 1.376 1_565 S
C350 C348 1.394 . S
C350 C351 1.369 . S
C350 C354 1.531 . S
C351 C350 1.369 . S
C351 C352 1.410 1_565 S
C351 C359 1.503 . S
C352 C351 1.410 1_545 S
C352 C353 1.392 . S
C352 C355 1.511 . S
C353 C349 1.376 1_545 S
C353 C352 1.392 . S
C353 H365 0.929 . S
C354 C350 1.531 . S
C354 H366 0.960 . S
C354 H367 0.962 . S
C354 H368 0.960 . S
C355 C352 1.511 . S
C355 H369 0.961 . S
C355 H370 0.961 . S
C355 H371 0.961 . S
C356 C357 1.370 . S
C356 C358 1.363 . S
C356 H372 0.931 . S
C357 C356 1.370 . S
C357 C361 1.408 1_545 S
C358 C356 1.363 . S
C358 C359 1.370 1_545 S
C358 C362 1.524 . S
C359 C351 1.503 . S
C359 C358 1.370 1_565 S
C359 C360 1.403 . S
C360 C359 1.403 . S
C360 C361 1.404 . S
C360 C363 1.539 . S
C361 C357 1.408 1_565 S
C361 C360 1.404 . S
C361 H373 0.930 . S
C362 C358 1.524 . S
C362 H374 0.956 . S
C362 H375 0.961 . S
C362 H376 0.961 . S
C363 C360 1.539 . S
C363 H377 0.958 . S
C363 H378 0.961 . S
C363 H379 0.960 . S
H364 C348 0.931 . S
H365 C353 0.929 . S
H366 C354 0.960 . S
H367 C354 0.962 . S
H368 C354 0.960 . S
H369 C355 0.961 . S
H370 C355 0.961 . S
H371 C355 0.961 . S
H372 C356 0.931 . S
H373 C361 0.930 . S
H374 C362 0.956 . S
H375 C362 0.961 . S
H376 C362 0.961 . S
H377 C363 0.958 . S
H378 C363 0.961 . S
H379 C363 0.960 . S
C380 C381 1.391 . S
C380 C382 1.394 . S
C380 H396 0.931 . S
C381 C380 1.391 . S
C381 C385 1.376 . S
C382 C380 1.394 . S
C382 C383 1.369 . S
C382 C386 1.531 . S
C383 C382 1.369 . S
C383 C384 1.410 . S
C383 C391 1.503 . S
C384 C383 1.410 . S
C384 C385 1.392 . S
C384 C387 1.511 . S
C385 C381 1.376 . S
C385 C384 1.392 . S
C385 H397 0.929 . S
C386 C382 1.531 . S
C386 H398 0.960 . S
C386 H399 0.962 . S
C386 H400 0.960 . S
C387 C384 1.511 . S
C387 H401 0.961 . S
C387 H402 0.961 . S
C387 H403 0.961 . S
C388 C389 1.370 . S
C388 C390 1.363 . S
C388 H404 0.931 . S
C389 C388 1.370 . S
C389 C393 1.408 . S
C390 C388 1.363 . S
C390 C391 1.370 . S
C390 C394 1.524 . S
C391 C383 1.503 . S
C391 C390 1.370 . S
C391 C392 1.403 . S
C392 C391 1.403 . S
C392 C393 1.404 . S
C392 C395 1.539 . S
C393 C389 1.408 . S
C393 C392 1.404 . S
C393 H405 0.930 . S
C394 C390 1.524 . S
C394 H406 0.956 . S
C394 H407 0.961 . S
C394 H408 0.961 . S
C395 C392 1.539 . S
C395 H409 0.958 . S
C395 H410 0.961 . S
C395 H411 0.960 . S
H396 C380 0.931 . S
H397 C385 0.929 . S
H398 C386 0.960 . S
H399 C386 0.962 . S
H400 C386 0.960 . S
H401 C387 0.961 . S
H402 C387 0.961 . S
H403 C387 0.961 . S
H404 C388 0.931 . S
H405 C393 0.930 . S
H406 C394 0.956 . S
H407 C394 0.961 . S
H408 C394 0.961 . S
H409 C395 0.958 . S
H410 C395 0.961 . S
H411 C395 0.960 . S
C412 C413 1.399 . S
C412 C414 1.394 . S
C412 H428 0.931 . S
C413 C412 1.399 . S
C413 C417 1.348 1_655 S
C414 C412 1.394 . S
C414 C415 1.369 1_655 S
C414 C418 1.531 . S
C415 C414 1.369 1_455 S
C415 C416 1.410 . S
C415 C423 1.503 . S
C416 C415 1.410 . S
C416 C417 1.392 . S
C416 C419 1.511 . S
C417 C413 1.348 1_455 S
C417 C416 1.392 . S
C417 H429 0.929 . S
C418 C414 1.531 . S
C418 H430 0.960 . S
C418 H431 0.962 . S
C418 H432 0.960 . S
C419 C416 1.511 . S
C419 H433 0.961 1_556 S
C419 H434 0.961 . S
C419 H435 0.961 . S
C420 C421 1.370 1_655 S
C420 C422 1.363 . S
C420 H436 0.931 . S
C421 C420 1.370 1_455 S
C421 C425 1.408 . S
C422 C420 1.363 . S
C422 C423 1.370 1_655 S
C422 C426 1.524 . S
C423 C415 1.503 . S
C423 C422 1.370 1_455 S
C423 C424 1.403 . S
C424 C423 1.403 . S
C424 C425 1.404 . S
C424 C427 1.539 . S
C425 C421 1.408 . S
C425 C424 1.404 . S
C425 H437 0.930 . S
C426 C422 1.524 . S
C426 H438 0.956 . S
C426 H439 0.961 1_556 S
C426 H440 0.961 1_556 S
C427 C424 1.539 . S
C427 H441 0.958 . S
C427 H442 0.961 . S
C427 H443 0.960 . S
H428 C412 0.931 . S
H429 C417 0.929 . S
H430 C418 0.960 . S
H431 C418 0.962 . S
H432 C418 0.960 . S
H433 C419 0.961 1_554 S
H434 C419 0.961 . S
H435 C419 0.961 . S
H436 C420 0.931 . S
H437 C425 0.930 . S
H438 C426 0.956 . S
H439 C426 0.961 1_554 S
H440 C426 0.961 1_554 S
H441 C427 0.958 . S
H442 C427 0.961 . S
H443 C427 0.960 . S
C444 C445 1.391 1_655 S
C444 C446 1.394 . S
C444 H460 0.931 . S
C445 C444 1.391 1_455 S
C445 C449 1.376 . S
C446 C444 1.394 . S
C446 C447 1.369 1_655 S
C446 C450 1.531 . S
C447 C446 1.369 1_455 S
C447 C448 1.410 . S
C447 C455 1.491 . S
C448 C447 1.410 . S
C448 C449 1.392 . S
C448 C451 1.511 . S
C449 C445 1.376 . S
C449 C448 1.392 . S
C449 H461 0.929 . S
C450 C446 1.531 . S
C450 H462 0.960 . S
C450 H463 0.962 . S
C450 H464 0.960 . S
C451 C448 1.511 . S
C451 H465 0.961 . S
C451 H466 0.961 . S
C451 H467 0.961 . S
C452 C453 1.370 . S
C452 C454 1.363 . S
C452 H468 0.931 . S
C453 C452 1.370 . S
C453 C457 1.408 1_655 S
C454 C452 1.363 . S
C454 C455 1.371 1_655 S
C454 C458 1.524 . S
C455 C447 1.491 . S
C455 C454 1.371 1_455 S
C455 C456 1.414 . S
C456 C455 1.414 . S
C456 C457 1.404 . S
C456 C459 1.539 . S
C457 C453 1.408 1_455 S
C457 C456 1.404 . S
C457 H469 0.930 . S
C458 C454 1.524 . S
C458 H470 0.956 . S
C458 H471 0.961 1_655 S
C458 H472 0.961 . S
C459 C456 1.539 . S
C459 H473 0.969 . S
C459 H474 0.961 . S
C459 H475 0.960 . S
H460 C444 0.931 . S
H461 C449 0.929 . S
H462 C450 0.960 . S
H463 C450 0.962 . S
H464 C450 0.960 . S
H465 C451 0.961 . S
H466 C451 0.961 . S
H467 C451 0.961 . S
H468 C452 0.931 . S
H469 C457 0.930 . S
H470 C458 0.956 . S
H471 C458 0.961 1_455 S
H472 C458 0.961 . S
H473 C459 0.969 . S
H474 C459 0.961 . S
H475 C459 0.960 . S
C476 C477 1.391 . S
C476 C478 1.394 . S
C476 H492 0.931 . S
C477 C476 1.391 . S
C477 C481 1.376 1_565 S
C478 C476 1.394 . S
C478 C479 1.369 . S
C478 C482 1.531 . S
C479 C478 1.369 . S
C479 C480 1.410 1_565 S
C479 C487 1.503 . S
C480 C479 1.410 1_545 S
C480 C481 1.392 . S
C480 C483 1.511 . S
C481 C477 1.376 1_545 S
C481 C480 1.392 . S
C481 H493 0.929 . S
C482 C478 1.531 . S
C482 H494 0.960 . S
C482 H495 0.962 . S
C482 H496 0.960 . S
C483 C480 1.511 . S
C483 H497 0.961 . S
C483 H498 0.961 . S
C483 H499 0.961 . S
C484 C485 1.370 . S
C484 C486 1.363 . S
C484 H500 0.931 . S
C485 C484 1.370 . S
C485 C489 1.408 1_545 S
C486 C484 1.363 . S
C486 C487 1.370 1_545 S
C486 C490 1.524 . S
C487 C479 1.503 . S
C487 C486 1.370 1_565 S
C487 C488 1.403 . S
C488 C487 1.403 . S
C488 C489 1.404 . S
C488 C491 1.539 . S
C489 C485 1.408 1_565 S
C489 C488 1.404 . S
C489 H501 0.930 . S
C490 C486 1.524 . S
C490 H502 0.956 . S
C490 H503 0.961 . S
C490 H504 0.961 . S
C491 C488 1.539 . S
C491 H505 0.958 . S
C491 H506 0.961 . S
C491 H507 0.960 . S
H492 C476 0.931 . S
H493 C481 0.929 . S
H494 C482 0.960 . S
H495 C482 0.962 . S
H496 C482 0.960 . S
H497 C483 0.961 . S
H498 C483 0.961 . S
H499 C483 0.961 . S
H500 C484 0.931 . S
H501 C489 0.930 . S
H502 C490 0.956 . S
H503 C490 0.961 . S
H504 C490 0.961 . S
H505 C491 0.958 . S
H506 C491 0.961 . S
H507 C491 0.960 . S
C508 C509 1.391 . S
C508 C510 1.394 . S
C508 H524 0.931 . S
C509 C508 1.391 . S
C509 C513 1.376 . S
C510 C508 1.394 . S
C510 C511 1.369 . S
C510 C514 1.531 . S
C511 C510 1.369 . S
C511 C512 1.410 . S
C511 C519 1.503 . S
C512 C511 1.410 . S
C512 C513 1.392 . S
C512 C515 1.511 . S
C513 C509 1.376 . S
C513 C512 1.392 . S
C513 H525 0.929 . S
C514 C510 1.531 . S
C514 H526 0.960 . S
C514 H527 0.950 1_554 S
C514 H528 0.960 . S
C515 C512 1.511 . S
C515 H529 0.961 . S
C515 H530 0.961 . S
C515 H531 0.961 . S
C516 C517 1.370 . S
C516 C518 1.363 . S
C516 H532 0.931 . S
C517 C516 1.370 . S
C517 C521 1.408 . S
C518 C516 1.363 . S
C518 C519 1.370 . S
C518 C522 1.531 . S
C519 C511 1.503 . S
C519 C518 1.370 . S
C519 C520 1.403 . S
C520 C519 1.403 . S
C520 C521 1.404 . S
C520 C523 1.539 . S
C521 C517 1.408 . S
C521 C520 1.404 . S
C521 H533 0.930 . S
C522 C518 1.531 . S
C522 H534 0.951 1_554 S
C522 H535 0.965 . S
C522 H536 0.955 1_554 S
C523 C520 1.539 . S
C523 H537 0.958 . S
C523 H538 0.961 . S
C523 H539 0.960 . S
H524 C508 0.931 . S
H525 C513 0.929 . S
H526 C514 0.960 . S
H527 C514 0.950 1_556 S
H528 C514 0.960 . S
H529 C515 0.961 . S
H530 C515 0.961 . S
H531 C515 0.961 . S
H532 C516 0.931 . S
H533 C521 0.930 . S
H534 C522 0.951 1_556 S
H535 C522 0.965 . S
H536 C522 0.955 1_556 S
H537 C523 0.958 . S
H538 C523 0.961 . S
H539 C523 0.960 . S
C540 C541 1.391 . S
C540 C542 1.394 . S
C540 H556 0.931 . S
C541 C540 1.391 . S
C541 C545 1.376 . S
C542 C540 1.394 . S
C542 C543 1.369 . S
C542 C546 1.531 . S
C543 C542 1.369 . S
C543 C544 1.410 . S
C543 C551 1.503 . S
C544 C543 1.410 . S
C544 C545 1.392 . S
C544 C547 1.511 . S
C545 C541 1.376 . S
C545 C544 1.392 . S
C545 H557 0.929 . S
C546 C542 1.531 . S
C546 H558 0.960 . S
C546 H559 0.962 . S
C546 H560 0.960 . S
C547 C544 1.511 . S
C547 H561 0.961 . S
C547 H562 0.961 . S
C547 H563 0.961 . S
C548 C549 1.370 . S
C548 C550 1.363 . S
C548 H564 0.931 . S
C549 C548 1.370 . S
C549 C553 1.408 . S
C550 C548 1.363 . S
C550 C551 1.370 . S
C550 C554 1.524 . S
C551 C543 1.503 . S
C551 C550 1.370 . S
C551 C552 1.403 . S
C552 C551 1.403 . S
C552 C553 1.404 . S
C552 C555 1.539 . S
C553 C549 1.408 . S
C553 C552 1.404 . S
C553 H565 0.930 . S
C554 C550 1.524 . S
C554 H566 0.956 . S
C554 H567 0.961 . S
C554 H568 0.961 . S
C555 C552 1.539 . S
C555 H569 0.958 . S
C555 H570 0.961 . S
C555 H571 0.960 . S
H556 C540 0.931 . S
H557 C545 0.929 . S
H558 C546 0.960 . S
H559 C546 0.962 . S
H560 C546 0.960 . S
H561 C547 0.961 . S
H562 C547 0.961 . S
H563 C547 0.961 . S
H564 C548 0.931 . S
H565 C553 0.930 . S
H566 C554 0.956 . S
H567 C554 0.961 . S
H568 C554 0.961 . S
H569 C555 0.958 . S
H570 C555 0.961 . S
H571 C555 0.960 . S
C572 C573 1.391 . S
C572 C574 1.394 . S
C572 H588 0.931 . S
C573 C572 1.391 . S
C573 C577 1.376 . S
C574 C572 1.394 . S
C574 C575 1.369 . S
C574 C578 1.531 . S
C575 C574 1.369 . S
C575 C576 1.410 . S
C575 C583 1.503 . S
C576 C575 1.410 . S
C576 C577 1.392 . S
C576 C579 1.511 . S
C577 C573 1.376 . S
C577 C576 1.392 . S
C577 H589 0.929 . S
C578 C574 1.531 . S
C578 H590 0.960 . S
C578 H591 0.962 . S
C578 H592 0.960 . S
C579 C576 1.511 . S
C579 H593 0.961 . S
C579 H594 0.961 . S
C579 H595 0.961 . S
C580 C581 1.370 . S
C580 C582 1.363 . S
C580 H596 0.931 . S
C581 C580 1.370 . S
C581 C585 1.408 . S
C582 C580 1.363 . S
C582 C583 1.370 . S
C582 C586 1.524 . S
C583 C575 1.503 . S
C583 C582 1.370 . S
C583 C584 1.403 . S
C584 C583 1.403 . S
C584 C585 1.404 . S
C584 C587 1.539 . S
C585 C581 1.408 . S
C585 C584 1.404 . S
C585 H597 0.930 . S
C586 C582 1.524 . S
C586 H598 0.956 . S
C586 H599 0.961 . S
C586 H600 0.961 . S
C587 C584 1.539 . S
C587 H601 0.958 . S
C587 H602 0.961 . S
C587 H603 0.960 . S
H588 C572 0.931 . S
H589 C577 0.929 . S
H590 C578 0.960 . S
H591 C578 0.962 . S
H592 C578 0.960 . S
H593 C579 0.961 . S
H594 C579 0.961 . S
H595 C579 0.961 . S
H596 C580 0.931 . S
H597 C585 0.930 . S
H598 C586 0.956 . S
H599 C586 0.961 . S
H600 C586 0.961 . S
H601 C587 0.958 . S
H602 C587 0.961 . S
H603 C587 0.960 . S
C604 C605 1.391 . S
C604 C606 1.394 . S
C604 H620 0.931 . S
C605 C604 1.391 . S
C605 C609 1.376 . S
C606 C604 1.394 . S
C606 C607 1.369 . S
C606 C610 1.531 . S
C607 C606 1.369 . S
C607 C608 1.410 . S
C607 C615 1.503 1_554 S
C608 C607 1.410 . S
C608 C609 1.392 . S
C608 C611 1.511 . S
C609 C605 1.376 . S
C609 C608 1.392 . S
C609 H621 0.929 . S
C610 C606 1.531 . S
C610 H622 0.960 . S
C610 H623 0.962 1_554 S
C610 H624 0.960 . S
C611 C608 1.511 . S
C611 H625 0.961 . S
C611 H626 0.961 . S
C611 H627 0.961 . S
C612 C613 1.370 . S
C612 C614 1.363 . S
C612 H628 0.931 . S
C613 C612 1.370 . S
C613 C617 1.407 . S
C614 C612 1.363 . S
C614 C615 1.370 . S
C614 C618 1.524 . S
C615 C607 1.503 1_556 S
C615 C614 1.370 . S
C615 C616 1.403 1_556 S
C616 C615 1.403 1_554 S
C616 C617 1.404 1_554 S
C616 C619 1.539 . S
C617 C613 1.407 . S
C617 C616 1.404 1_556 S
C617 H629 0.931 1_556 S
C618 C614 1.524 . S
C618 H630 0.956 . S
C618 H631 0.961 . S
C618 H632 0.961 . S
C619 C616 1.539 . S
C619 H633 0.958 . S
C619 H634 0.961 . S
C619 H635 0.960 . S
H620 C604 0.931 . S
H621 C609 0.929 . S
H622 C610 0.960 . S
H623 C610 0.962 1_556 S
H624 C610 0.960 . S
H625 C611 0.961 . S
H626 C611 0.961 . S
H627 C611 0.961 . S
H628 C612 0.931 . S
H629 C617 0.931 1_554 S
H630 C618 0.956 . S
H631 C618 0.961 . S
H632 C618 0.961 . S
H633 C619 0.958 . S
H634 C619 0.961 . S
H635 C619 0.960 . S
C636 C637 1.391 . S
C636 C638 1.394 . S
C636 H652 0.931 . S
C637 C636 1.391 . S
C637 C641 1.376 . S
C638 C636 1.394 . S
C638 C639 1.369 . S
C638 C642 1.531 . S
C639 C638 1.369 . S
C639 C640 1.410 . S
C639 C647 1.503 . S
C640 C639 1.410 . S
C640 C641 1.392 . S
C640 C643 1.511 . S
C641 C637 1.376 . S
C641 C640 1.392 . S
C641 H653 0.929 . S
C642 C638 1.531 . S
C642 H654 0.960 . S
C642 H655 0.962 . S
C642 H656 0.960 . S
C643 C640 1.511 . S
C643 H657 0.961 . S
C643 H658 0.961 . S
C643 H659 0.961 . S
C644 C645 1.370 . S
C644 C646 1.363 . S
C644 H660 0.931 . S
C645 C644 1.370 . S
C645 C649 1.408 . S
C646 C644 1.363 . S
C646 C647 1.370 . S
C646 C650 1.524 . S
C647 C639 1.503 . S
C647 C646 1.370 . S
C647 C648 1.403 . S
C648 C647 1.403 . S
C648 C649 1.404 . S
C648 C651 1.539 . S
C649 C645 1.408 . S
C649 C648 1.404 . S
C649 H661 0.930 . S
C650 C646 1.524 . S
C650 H662 0.956 . S
C650 H663 0.961 . S
C650 H664 0.961 . S
C651 C648 1.539 . S
C651 H665 0.958 . S
C651 H666 0.961 . S
C651 H667 0.960 . S
H652 C636 0.931 . S
H653 C641 0.929 . S
H654 C642 0.960 . S
H655 C642 0.962 . S
H656 C642 0.960 . S
H657 C643 0.961 . S
H658 C643 0.961 . S
H659 C643 0.961 . S
H660 C644 0.931 . S
H661 C649 0.930 . S
H662 C650 0.956 . S
H663 C650 0.961 . S
H664 C650 0.961 . S
H665 C651 0.958 . S
H666 C651 0.961 . S
H667 C651 0.960 . S
C668 C669 1.391 . S
C668 C670 1.394 . S
C668 H684 0.931 . S
C669 C668 1.391 . S
C669 C673 1.376 . S
C670 C668 1.394 . S
C670 C671 1.369 . S
C670 C674 1.531 . S
C671 C670 1.369 . S
C671 C672 1.410 . S
C671 C679 1.503 . S
C672 C671 1.410 . S
C672 C673 1.392 . S
C672 C675 1.511 . S
C673 C669 1.376 . S
C673 C672 1.392 . S
C673 H685 0.929 . S
C674 C670 1.531 . S
C674 H686 0.960 . S
C674 H687 0.962 . S
C674 H688 0.960 . S
C675 C672 1.511 . S
C675 H689 0.961 . S
C675 H690 0.961 . S
C675 H691 0.961 . S
C676 C677 1.370 . S
C676 C678 1.363 . S
C676 H692 0.931 . S
C677 C676 1.370 . S
C677 C681 1.408 . S
C678 C676 1.363 . S
C678 C679 1.370 . S
C678 C682 1.524 . S
C679 C671 1.503 . S
C679 C678 1.370 . S
C679 C680 1.403 . S
C680 C679 1.403 . S
C680 C681 1.404 . S
C680 C683 1.539 . S
C681 C677 1.408 . S
C681 C680 1.404 . S
C681 H693 0.930 . S
C682 C678 1.524 . S
C682 H694 0.956 . S
C682 H695 0.961 . S
C682 H696 0.961 . S
C683 C680 1.539 . S
C683 H697 0.958 . S
C683 H698 0.961 . S
C683 H699 0.960 . S
H684 C668 0.931 . S
H685 C673 0.929 . S
H686 C674 0.960 . S
H687 C674 0.962 . S
H688 C674 0.960 . S
H689 C675 0.961 . S
H690 C675 0.961 . S
H691 C675 0.961 . S
H692 C676 0.931 . S
H693 C681 0.930 . S
H694 C682 0.956 . S
H695 C682 0.961 . S
H696 C682 0.961 . S
H697 C683 0.958 . S
H698 C683 0.961 . S
H699 C683 0.960 . S
C700 C701 1.391 . S
C700 C702 1.394 . S
C700 H716 0.931 . S
C701 C700 1.391 . S
C701 C705 1.376 . S
C702 C700 1.394 . S
C702 C703 1.369 . S
C702 C706 1.531 . S
C703 C702 1.369 . S
C703 C704 1.410 1_554 S
C703 C711 1.503 1_554 S
C704 C703 1.410 1_556 S
C704 C705 1.392 1_556 S
C704 C707 1.511 . S
C705 C701 1.376 . S
C705 C704 1.392 1_554 S
C705 H717 0.929 1_554 S
C706 C702 1.531 . S
C706 H718 0.960 . S
C706 H719 0.962 . S
C706 H720 0.960 . S
C707 C704 1.511 . S
C707 H721 0.961 . S
C707 H722 0.961 . S
C707 H723 0.961 . S
C708 C709 1.370 . S
C708 C710 1.363 . S
C708 H724 0.931 . S
C709 C708 1.370 . S
C709 C713 1.408 . S
C710 C708 1.363 . S
C710 C711 1.370 . S
C710 C714 1.524 1_556 S
C711 C703 1.503 1_556 S
C711 C710 1.370 . S
C711 C712 1.403 . S
C712 C711 1.403 . S
C712 C713 1.404 . S
C712 C715 1.539 . S
C713 C709 1.408 . S
C713 C712 1.404 . S
C713 H725 0.930 . S
C714 C710 1.524 1_554 S
C714 H726 0.956 . S
C714 H727 0.961 . S
C714 H728 0.961 . S
C715 C712 1.539 . S
C715 H729 0.958 . S
C715 H730 0.961 . S
C715 H731 0.960 . S
H716 C700 0.931 . S
H717 C705 0.929 1_556 S
H718 C706 0.960 . S
H719 C706 0.962 . S
H720 C706 0.960 . S
H721 C707 0.961 . S
H722 C707 0.961 . S
H723 C707 0.961 . S
H724 C708 0.931 . S
H725 C713 0.930 . S
H726 C714 0.956 . S
H727 C714 0.961 . S
H728 C714 0.961 . S
H729 C715 0.958 . S
H730 C715 0.961 . S
H731 C715 0.960 . S
C732 C733 1.391 . S
C732 C734 1.394 . S
C732 H748 0.931 . S
C733 C732 1.391 . S
C733 C737 1.376 1_545 S
C734 C732 1.394 . S
C734 C735 1.369 . S
C734 C738 1.531 . S
C735 C734 1.369 . S
C735 C736 1.410 1_545 S
C735 C743 1.502 1_545 S
C736 C735 1.410 1_565 S
C736 C737 1.392 . S
C736 C739 1.511 . S
C737 C733 1.376 1_565 S
C737 C736 1.392 . S
C737 H749 0.929 . S
C738 C734 1.531 . S
C738 H750 0.960 . S
C738 H751 0.962 . S
C738 H752 0.960 . S
C739 C736 1.511 . S
C739 H753 0.961 . S
C739 H754 0.961 . S
C739 H755 0.961 . S
C740 C741 1.370 . S
C740 C742 1.363 . S
C740 H756 0.931 . S
C741 C740 1.370 . S
C741 C745 1.408 1_565 S
C742 C740 1.363 . S
C742 C743 1.375 . S
C742 C746 1.524 . S
C743 C735 1.502 1_565 S
C743 C742 1.375 . S
C743 C744 1.399 1_565 S
C744 C743 1.399 1_545 S
C744 C745 1.404 . S
C744 C747 1.539 . S
C745 C741 1.408 1_545 S
C745 C744 1.404 . S
C745 H757 0.930 . S
C746 C742 1.524 . S
C746 H758 0.956 . S
C746 H759 0.961 . S
C746 H760 0.961 . S
C747 C744 1.539 . S
C747 H761 0.958 . S
C747 H762 0.961 . S
C747 H763 0.960 . S
H748 C732 0.931 . S
H749 C737 0.929 . S
H750 C738 0.960 . S
H751 C738 0.962 . S
H752 C738 0.960 . S
H753 C739 0.961 . S
H754 C739 0.961 . S
H755 C739 0.961 . S
H756 C740 0.931 . S
H757 C745 0.930 . S
H758 C746 0.956 . S
H759 C746 0.961 . S
H760 C746 0.961 . S
H761 C747 0.958 . S
H762 C747 0.961 . S
H763 C747 0.960 . S
C764 C765 1.391 . S
C764 C766 1.394 . S
C764 H780 0.931 . S
C765 C764 1.391 . S
C765 C769 1.376 . S
C766 C764 1.394 . S
C766 C767 1.369 . S
C766 C770 1.531 . S
C767 C766 1.369 . S
C767 C768 1.410 . S
C767 C775 1.503 . S
C768 C767 1.410 . S
C768 C769 1.392 . S
C768 C771 1.511 . S
C769 C765 1.376 . S
C769 C768 1.392 . S
C769 H781 0.929 . S
C770 C766 1.531 . S
C770 H782 0.960 . S
C770 H783 0.962 . S
C770 H784 0.960 . S
C771 C768 1.511 . S
C771 H785 0.961 . S
C771 H786 0.961 . S
C771 H787 0.961 . S
C772 C773 1.370 . S
C772 C774 1.363 . S
C772 H788 0.931 . S
C773 C772 1.370 . S
C773 C777 1.408 . S
C774 C772 1.363 . S
C774 C775 1.370 . S
C774 C778 1.524 . S
C775 C767 1.503 . S
C775 C774 1.370 . S
C775 C776 1.403 . S
C776 C775 1.403 . S
C776 C777 1.404 . S
C776 C779 1.539 . S
C777 C773 1.408 . S
C777 C776 1.404 . S
C777 H789 0.930 . S
C778 C774 1.524 . S
C778 H790 0.956 . S
C778 H791 0.961 . S
C778 H792 0.961 . S
C779 C776 1.539 . S
C779 H793 0.958 . S
C779 H794 0.961 . S
C779 H795 0.960 . S
H780 C764 0.931 . S
H781 C769 0.929 . S
H782 C770 0.960 . S
H783 C770 0.962 . S
H784 C770 0.960 . S
H785 C771 0.961 . S
H786 C771 0.961 . S
H787 C771 0.961 . S
H788 C772 0.931 . S
H789 C777 0.930 . S
H790 C778 0.956 . S
H791 C778 0.961 . S
H792 C778 0.961 . S
H793 C779 0.958 . S
H794 C779 0.961 . S
H795 C779 0.960 . S
C796 C797 1.391 . S
C796 C798 1.394 1_455 S
C796 H812 0.931 1_455 S
C797 C796 1.391 . S
C797 C801 1.376 . S
C798 C796 1.394 1_655 S
C798 C799 1.369 1_655 S
C798 C802 1.531 . S
C799 C798 1.369 1_455 S
C799 C800 1.410 . S
C799 C807 1.503 . S
C800 C799 1.410 . S
C800 C801 1.392 . S
C800 C803 1.511 . S
C801 C797 1.376 . S
C801 C800 1.392 . S
C801 H813 0.929 . S
C802 C798 1.531 . S
C802 H814 0.960 . S
C802 H815 0.962 . S
C802 H816 0.960 . S
C803 C800 1.511 . S
C803 H817 0.961 . S
C803 H818 0.961 . S
C803 H819 0.961 . S
C804 C805 1.370 . S
C804 C806 1.363 . S
C804 H820 0.931 . S
C805 C804 1.370 . S
C805 C809 1.408 1_655 S
C806 C804 1.363 . S
C806 C807 1.370 1_655 S
C806 C810 1.524 . S
C807 C799 1.503 . S
C807 C806 1.370 1_455 S
C807 C808 1.403 . S
C808 C807 1.403 . S
C808 C809 1.404 . S
C808 C811 1.539 . S
C809 C805 1.408 1_455 S
C809 C808 1.404 . S
C809 H821 0.930 . S
C810 C806 1.524 . S
C810 H822 0.956 . S
C810 H823 0.961 . S
C810 H824 0.961 . S
C811 C808 1.539 . S
C811 H825 0.958 . S
C811 H826 0.961 . S
C811 H827 0.960 . S
H812 C796 0.931 1_655 S
H813 C801 0.929 . S
H814 C802 0.960 . S
H815 C802 0.962 . S
H816 C802 0.960 . S
H817 C803 0.961 . S
H818 C803 0.961 . S
H819 C803 0.961 . S
H820 C804 0.931 . S
H821 C809 0.930 . S
H822 C810 0.956 . S
H823 C810 0.961 . S
H824 C810 0.961 . S
H825 C811 0.958 . S
H826 C811 0.961 . S
H827 C811 0.960 . S
C828 C829 1.391 1_545 S
C828 C830 1.394 . S
C828 H844 0.931 . S
C829 C828 1.391 1_565 S
C829 C833 1.376 . S
C830 C828 1.394 . S
C830 C831 1.369 . S
C830 C834 1.531 . S
C831 C830 1.369 . S
C831 C832 1.410 1_545 S
C831 C839 1.503 . S
C832 C831 1.410 1_565 S
C832 C833 1.392 . S
C832 C835 1.511 . S
C833 C829 1.376 . S
C833 C832 1.392 . S
C833 H845 0.929 . S
C834 C830 1.531 . S
C834 H846 0.960 . S
C834 H847 0.962 . S
C834 H848 0.960 . S
C835 C832 1.511 . S
C835 H849 0.961 . S
C835 H850 0.961 . S
C835 H851 0.961 1_565 S
C836 C837 1.370 1_565 S
C836 C838 1.363 . S
C836 H852 0.931 . S
C837 C836 1.370 1_545 S
C837 C841 1.408 . S
C838 C836 1.363 . S
C838 C839 1.370 1_565 S
C838 C842 1.524 . S
C839 C831 1.503 . S
C839 C838 1.370 1_545 S
C839 C840 1.403 . S
C840 C839 1.403 . S
C840 C841 1.404 . S
C840 C843 1.539 . S
C841 C837 1.408 . S
C841 C840 1.404 . S
C841 H853 0.930 . S
C842 C838 1.524 . S
C842 H854 0.956 . S
C842 H855 0.961 . S
C842 H856 0.961 . S
C843 C840 1.539 . S
C843 H857 0.958 . S
C843 H858 0.961 . S
C843 H859 0.960 . S
H844 C828 0.931 . S
H845 C833 0.929 . S
H846 C834 0.960 . S
H847 C834 0.962 . S
H848 C834 0.960 . S
H849 C835 0.961 . S
H850 C835 0.961 . S
H851 C835 0.961 1_545 S
H852 C836 0.931 . S
H853 C841 0.930 . S
H854 C842 0.956 . S
H855 C842 0.961 . S
H856 C842 0.961 . S
H857 C843 0.958 . S
H858 C843 0.961 . S
H859 C843 0.960 . S
C860 C861 1.391 . S
C860 C862 1.394 . S
C860 H876 0.931 . S
C861 C860 1.391 . S
C861 C865 1.376 . S
C862 C860 1.394 . S
C862 C863 1.369 . S
C862 C866 1.531 . S
C863 C862 1.369 . S
C863 C864 1.410 . S
C863 C871 1.503 . S
C864 C863 1.410 . S
C864 C865 1.392 . S
C864 C867 1.511 . S
C865 C861 1.376 . S
C865 C864 1.392 . S
C865 H877 0.929 . S
C866 C862 1.531 . S
C866 H878 0.960 . S
C866 H879 0.962 . S
C866 H880 0.960 . S
C867 C864 1.511 . S
C867 H881 0.961 . S
C867 H882 0.961 . S
C867 H883 0.961 . S
C868 C869 1.370 . S
C868 C870 1.363 . S
C868 H884 0.931 . S
C869 C868 1.370 . S
C869 C873 1.408 . S
C870 C868 1.363 . S
C870 C871 1.370 . S
C870 C874 1.524 . S
C871 C863 1.503 . S
C871 C870 1.370 . S
C871 C872 1.403 . S
C872 C871 1.403 . S
C872 C873 1.404 . S
C872 C875 1.539 . S
C873 C869 1.408 . S
C873 C872 1.404 . S
C873 H885 0.930 . S
C874 C870 1.524 . S
C874 H886 0.956 . S
C874 H887 0.961 . S
C874 H888 0.961 . S
C875 C872 1.539 . S
C875 H889 0.958 . S
C875 H890 0.961 . S
C875 H891 0.960 . S
H876 C860 0.931 . S
H877 C865 0.929 . S
H878 C866 0.960 . S
H879 C866 0.962 . S
H880 C866 0.960 . S
H881 C867 0.961 . S
H882 C867 0.961 . S
H883 C867 0.961 . S
H884 C868 0.931 . S
H885 C873 0.930 . S
H886 C874 0.956 . S
H887 C874 0.961 . S
H888 C874 0.961 . S
H889 C875 0.958 . S
H890 C875 0.961 . S
H891 C875 0.960 . S
C892 C893 1.391 . S
C892 C894 1.394 . S
C892 H908 0.931 . S
C893 C892 1.391 . S
C893 C897 1.376 1_655 S
C894 C892 1.394 . S
C894 C895 1.369 1_655 S
C894 C898 1.531 . S
C895 C894 1.369 1_455 S
C895 C896 1.410 . S
C895 C903 1.503 . S
C896 C895 1.410 . S
C896 C897 1.392 . S
C896 C899 1.511 . S
C897 C893 1.376 1_455 S
C897 C896 1.392 . S
C897 H909 0.929 . S
C898 C894 1.531 . S
C898 H910 0.960 . S
C898 H911 0.962 . S
C898 H912 0.960 . S
C899 C896 1.511 . S
C899 H913 0.961 . S
C899 H914 0.961 . S
C899 H915 0.961 . S
C900 C901 1.370 1_655 S
C900 C902 1.363 . S
C900 H916 0.931 . S
C901 C900 1.370 1_455 S
C901 C905 1.408 . S
C902 C900 1.363 . S
C902 C903 1.370 1_655 S
C902 C906 1.524 . S
C903 C895 1.503 . S
C903 C902 1.370 1_455 S
C903 C904 1.403 . S
C904 C903 1.403 . S
C904 C905 1.404 . S
C904 C907 1.539 . S
C905 C901 1.408 . S
C905 C904 1.404 . S
C905 H917 0.930 . S
C906 C902 1.524 . S
C906 H918 0.956 . S
C906 H919 0.961 . S
C906 H920 0.961 . S
C907 C904 1.539 . S
C907 H921 0.958 . S
C907 H922 0.961 . S
C907 H923 0.960 . S
H908 C892 0.931 . S
H909 C897 0.929 . S
H910 C898 0.960 . S
H911 C898 0.962 . S
H912 C898 0.960 . S
H913 C899 0.961 . S
H914 C899 0.961 . S
H915 C899 0.961 . S
H916 C900 0.931 . S
H917 C905 0.930 . S
H918 C906 0.956 . S
H919 C906 0.961 . S
H920 C906 0.961 . S
H921 C907 0.958 . S
H922 C907 0.961 . S
H923 C907 0.960 . S
C157 C0 1.728 . S
C165 C104 1.724 . S
C189 C13 1.724 . S
C197 C117 1.727 . S
C221 C130 1.725 . S
C229 C26 1.722 . S
C253 C143 1.703 . S
C261 C39 1.718 . S
C285 C78 1.704 . S
C293 C52 1.718 . S
C317 C91 1.726 . S
C325 C65 1.723 . S
C349 C8 1.352 . S
C357 C47 1.340 . S
C381 C60 1.368 . S
C389 C21 1.348 . S
C413 C73 1.369 . S
C421 C34 1.342 . S
C445 C86 1.292 . S
C453 C125 1.316 . S
C477 C138 1.367 . S
C485 C99 1.347 . S
C509 C112 1.365 . S
C517 C151 1.346 . S
C541 C88 0.978 . S
C549 C10 1.008 . S
C573 C23 0.976 . S
C581 C101 0.987 . S
C605 C114 1.033 . S
C613 C36 0.976 . S
C637 C127 0.955 . S
C645 C49 1.011 . S
C669 C62 1.002 . S
C677 C140 0.978 . S
C701 C153 0.961 . S
C709 C75 0.994 . S
C733 C5 0.979 . S
C741 C96 0.942 . S
C765 C109 0.986 . S
C773 C18 0.939 . S
C797 C122 0.996 . S
C805 C31 0.922 . S
C829 C44 0.885 . S
C837 C135 0.969 . S
C861 C148 0.987 . S
C869 C57 0.938 . S
C893 C83 0.895 . S
C901 C70 0.972 . S
