# Generated by pormake.
# Topology ncb, (9)-cn, num edge types: 1
# Building blocks:
#     Node 0, Type 0, BuildingBlock: BELTOD_clean_sbu_0, # of connection points: 9
#     Node 1, Type 0, BuildingBlock: BELTOD_clean_sbu_0, # of connection points: 9
#     Node 2, Type 0, BuildingBlock: BELTOD_clean_sbu_0, # of connection points: 9
#     Node 3, Type 0, BuildingBlock: BELTOD_clean_sbu_0, # of connection points: 9
#     Node 4, Type 0, BuildingBlock: BELTOD_clean_sbu_0, # of connection points: 9
#     Node 5, Type 0, BuildingBlock: BELTOD_clean_sbu_0, # of connection points: 9
#     Node 6, Type 0, BuildingBlock: BELTOD_clean_sbu_0, # of connection points: 9
#     Node 7, Type 0, BuildingBlock: BELTOD_clean_sbu_0, # of connection points: 9
#     Edge 8, Type (0, 0), BuildingBlock: ZUJKAS_clean_linker_0, # of connection points: 2
#     Edge 9, Type (0, 0), BuildingBlock: ZUJKAS_clean_linker_0, # of connection points: 2
#     Edge 10, Type (0, 0), BuildingBlock: ZUJKAS_clean_linker_0, # of connection points: 2
#     Edge 11, Type (0, 0), BuildingBlock: ZUJKAS_clean_linker_0, # of connection points: 2
#     Edge 12, Type (0, 0), BuildingBlock: ZUJKAS_clean_linker_0, # of connection points: 2
#     Edge 13, Type (0, 0), BuildingBlock: ZUJKAS_clean_linker_0, # of connection points: 2
#     Edge 14, Type (0, 0), BuildingBlock: ZUJKAS_clean_linker_0, # of connection points: 2
#     Edge 15, Type (0, 0), BuildingBlock: ZUJKAS_clean_linker_0, # of connection points: 2
#     Edge 16, Type (0, 0), BuildingBlock: ZUJKAS_clean_linker_0, # of connection points: 2
#     Edge 17, Type (0, 0), BuildingBlock: ZUJKAS_clean_linker_0, # of connection points: 2
#     Edge 18, Type (0, 0), BuildingBlock: ZUJKAS_clean_linker_0, # of connection points: 2
#     Edge 19, Type (0, 0), BuildingBlock: ZUJKAS_clean_linker_0, # of connection points: 2
#     Edge 20, Type (0, 0), BuildingBlock: ZUJKAS_clean_linker_0, # of connection points: 2
#     Edge 21, Type (0, 0), BuildingBlock: ZUJKAS_clean_linker_0, # of connection points: 2
#     Edge 22, Type (0, 0), BuildingBlock: ZUJKAS_clean_linker_0, # of connection points: 2
#     Edge 23, Type (0, 0), BuildingBlock: ZUJKAS_clean_linker_0, # of connection points: 2
#     Edge 24, Type (0, 0), BuildingBlock: ZUJKAS_clean_linker_0, # of connection points: 2
#     Edge 25, Type (0, 0), BuildingBlock: ZUJKAS_clean_linker_0, # of connection points: 2
#     Edge 26, Type (0, 0), BuildingBlock: ZUJKAS_clean_linker_0, # of connection points: 2
#     Edge 27, Type (0, 0), BuildingBlock: ZUJKAS_clean_linker_0, # of connection points: 2
#     Edge 28, Type (0, 0), BuildingBlock: ZUJKAS_clean_linker_0, # of connection points: 2
#     Edge 29, Type (0, 0), BuildingBlock: ZUJKAS_clean_linker_0, # of connection points: 2
#     Edge 30, Type (0, 0), BuildingBlock: ZUJKAS_clean_linker_0, # of connection points: 2
#     Edge 31, Type (0, 0), BuildingBlock: ZUJKAS_clean_linker_0, # of connection points: 2
#     Edge 32, Type (0, 0), BuildingBlock: ZUJKAS_clean_linker_0, # of connection points: 2
#     Edge 33, Type (0, 0), BuildingBlock: ZUJKAS_clean_linker_0, # of connection points: 2
#     Edge 34, Type (0, 0), BuildingBlock: ZUJKAS_clean_linker_0, # of connection points: 2
#     Edge 35, Type (0, 0), BuildingBlock: ZUJKAS_clean_linker_0, # of connection points: 2
#     Edge 36, Type (0, 0), BuildingBlock: ZUJKAS_clean_linker_0, # of connection points: 2
#     Edge 37, Type (0, 0), BuildingBlock: ZUJKAS_clean_linker_0, # of connection points: 2
#     Edge 38, Type (0, 0), BuildingBlock: ZUJKAS_clean_linker_0, # of connection points: 2
#     Edge 39, Type (0, 0), BuildingBlock: ZUJKAS_clean_linker_0, # of connection points: 2
#     Edge 40, Type (0, 0), BuildingBlock: ZUJKAS_clean_linker_0, # of connection points: 2
#     Edge 41, Type (0, 0), BuildingBlock: ZUJKAS_clean_linker_0, # of connection points: 2
#     Edge 42, Type (0, 0), BuildingBlock: ZUJKAS_clean_linker_0, # of connection points: 2
#     Edge 43, Type (0, 0), BuildingBlock: ZUJKAS_clean_linker_0, # of connection points: 2
# Relax obj value: 0.206
# Max RMSD: 0.273
# Mean RMSD: 0.267
data_MOF--net-ncb--node1-BELTOD_clean_sbu_0--edge1-ZUJKAS_clean_linker_0
_symmetry_space_group_name_H-M    P1
_symmetry_Int_Tables_number       1
_symmetry_cell_setting            triclinic
loop_
_symmetry_equiv_pos_as_xyz
'x, y, z'
_cell_length_a     38.294086
_cell_length_b     38.60281
_cell_length_c     38.383036
_cell_angle_alpha  91.284399
_cell_angle_beta   89.894485
_cell_angle_gamma 90.143689
loop_
_atom_site_label
_atom_site_type_symbol
_atom_site_fract_x
_atom_site_fract_y
_atom_site_fract_z
_atom_type_partial_charge
Mn0 Mn 0.26458 0.26635 0.2545 0.0
Mn1 Mn 0.22043 0.22069 0.19545 0.0
O2 O 0.18618 0.25735 0.17615 0.0
O3 O 0.20104 0.26868 0.12215 0.0
Mn4 Mn 0.21362 0.22282 0.1159 0.0
C5 C 0.25985 0.18759 0.25214 0.0
O6 O 0.26092 0.21626 0.2708 0.0
O7 O 0.25172 0.18658 0.21973 0.0
P8 P 0.30758 0.30946 0.31575 0.0
C9 C 0.16841 0.17753 0.15223 0.0
C10 C 0.26029 0.19468 0.12535 0.0
O11 O 0.21339 0.27638 0.26151 0.0
O12 O 0.19355 0.22618 0.24144 0.0
O13 O 0.27186 0.28449 0.30411 0.0
C14 C 0.26205 0.28805 0.2 0.0
O15 O 0.18419 0.18375 0.18121 0.0
O16 O 0.17625 0.19243 0.12371 0.0
C17 C 0.18841 0.25468 0.2575 0.0
O18 O 0.25198 0.20339 0.09399 0.0
O19 O 0.24364 0.21266 0.14895 0.0
C20 C 0.18158 0.27442 0.14843 0.0
O21 O 0.25744 0.25615 0.20801 0.0
O22 O 0.26855 0.30858 0.22676 0.0
Mn23 Mn 0.24333 0.82418 0.83476 0.0
Mn24 Mn 0.18787 0.86823 0.88631 0.0
O25 O 0.16444 0.90455 0.85305 0.0
O26 O 0.10662 0.89749 0.85526 0.0
Mn27 Mn 0.10935 0.87904 0.89904 0.0
C28 C 0.24522 0.82393 0.91381 0.0
O29 O 0.26261 0.82475 0.88459 0.0
O30 O 0.21368 0.83462 0.91688 0.0
P31 P 0.30281 0.77913 0.78833 0.0
C32 C 0.15483 0.91503 0.94428 0.0
C33 C 0.11798 0.82572 0.91067 0.0
O34 O 0.25205 0.87505 0.82705 0.0
O35 O 0.23392 0.8943 0.87843 0.0
O36 O 0.29264 0.8149 0.81458 0.0
C37 C 0.1871 0.83049 0.81491 0.0
O38 O 0.18081 0.90126 0.92837 0.0
O39 O 0.12309 0.90991 0.93514 0.0
C40 C 0.2484 0.89985 0.84938 0.0
O41 O 0.08691 0.83889 0.91087 0.0
O42 O 0.14158 0.84601 0.89795 0.0
C43 C 0.13355 0.91118 0.842 0.0
O44 O 0.19679 0.83316 0.84699 0.0
O45 O 0.21275 0.82344 0.79337 0.0
Mn46 Mn 0.8109 0.827 0.25457 0.0
Mn47 Mn 0.85202 0.87371 0.19466 0.0
O48 O 0.88632 0.83766 0.17119 0.0
O49 O 0.87075 0.82896 0.11628 0.0
Mn50 Mn 0.85444 0.87388 0.11537 0.0
C51 C 0.8128 0.90611 0.25489 0.0
O52 O 0.81269 0.87742 0.27231 0.0
O53 O 0.82159 0.9077 0.22262 0.0
P54 P 0.76782 0.78565 0.31616 0.0
C55 C 0.89817 0.9217 0.15089 0.0
C56 C 0.8041 0.89427 0.12675 0.0
O57 O 0.86256 0.81932 0.2609 0.0
O58 O 0.88198 0.86795 0.23836 0.0
O59 O 0.80466 0.80833 0.3036 0.0
C60 C 0.81399 0.80432 0.19965 0.0
O61 O 0.88595 0.91236 0.18042 0.0
O62 O 0.88884 0.90785 0.12171 0.0
C63 C 0.88759 0.84038 0.25482 0.0
O64 O 0.81346 0.88673 0.095 0.0
O65 O 0.8252 0.88252 0.15022 0.0
C66 C 0.88929 0.82105 0.14216 0.0
O67 O 0.81706 0.83676 0.20798 0.0
O68 O 0.80869 0.78423 0.22605 0.0
Mn69 Mn 0.81996 0.25549 0.83202 0.0
Mn70 Mn 0.86563 0.20028 0.88167 0.0
O71 O 0.82807 0.17218 0.91034 0.0
O72 O 0.83898 0.11575 0.90272 0.0
Mn73 Mn 0.88424 0.12417 0.88924 0.0
C74 C 0.89862 0.26032 0.84316 0.0
O75 O 0.86911 0.27565 0.83687 0.0
O76 O 0.90076 0.23008 0.85614 0.0
P77 P 0.77094 0.31396 0.78921 0.0
C78 C 0.91663 0.16954 0.9362 0.0
C79 C 0.90046 0.13374 0.83744 0.0
O80 O 0.80624 0.26625 0.88168 0.0
O81 O 0.85058 0.2429 0.90979 0.0
O82 O 0.80055 0.30394 0.82155 0.0
C83 C 0.80061 0.19965 0.83622 0.0
O84 O 0.90019 0.19405 0.92177 0.0
O85 O 0.91452 0.13807 0.92543 0.0
C86 C 0.82394 0.26208 0.90942 0.0
O87 O 0.90181 0.103 0.85026 0.0
O88 O 0.88509 0.15697 0.85723 0.0
C89 C 0.82049 0.14017 0.91536 0.0
O90 O 0.8322 0.20968 0.84181 0.0
O91 O 0.7793 0.22446 0.82759 0.0
Mn92 Mn 0.76725 0.77062 0.75712 0.0
Mn93 Mn 0.73286 0.71581 0.69763 0.0
O94 O 0.70295 0.74666 0.66523 0.0
O95 O 0.72499 0.74334 0.61172 0.0
Mn96 Mn 0.74251 0.69971 0.61925 0.0
C97 C 0.76571 0.69266 0.76429 0.0
O98 O 0.76454 0.72318 0.77929 0.0
O99 O 0.75952 0.68703 0.73198 0.0
P100 P 0.80463 0.81525 0.82197 0.0
C101 C 0.69245 0.66024 0.65518 0.0
C102 C 0.78797 0.68061 0.64395 0.0
O103 O 0.71518 0.77747 0.75897 0.0
O104 O 0.69693 0.72737 0.73593 0.0
O105 O 0.76812 0.79524 0.80448 0.0
C106 C 0.76812 0.78656 0.70052 0.0
O107 O 0.70051 0.67548 0.68403 0.0
O108 O 0.70689 0.6671 0.62603 0.0
C109 C 0.69088 0.75551 0.75249 0.0
O110 O 0.78621 0.68167 0.61025 0.0
O111 O 0.76564 0.70136 0.65898 0.0
C112 C 0.70292 0.75563 0.63332 0.0
O113 O 0.76557 0.7551 0.71098 0.0
O114 O 0.77064 0.8098 0.72559 0.0
Mn115 Mn 0.74401 0.32862 0.33624 0.0
Mn116 Mn 0.69351 0.37585 0.39011 0.0
O117 O 0.66974 0.41213 0.35707 0.0
O118 O 0.61325 0.41518 0.37069 0.0
Mn119 Mn 0.62012 0.39322 0.41216 0.0
C120 C 0.75077 0.33028 0.41479 0.0
O121 O 0.76632 0.33008 0.38461 0.0
O122 O 0.71983 0.34186 0.41967 0.0
P123 P 0.80134 0.28204 0.28729 0.0
C124 C 0.67092 0.4239 0.45337 0.0
C125 C 0.61934 0.33913 0.41804 0.0
O126 O 0.75347 0.37885 0.32614 0.0
O127 O 0.7399 0.39945 0.3782 0.0
O128 O 0.79204 0.31769 0.31403 0.0
C129 C 0.68711 0.33622 0.31928 0.0
O130 O 0.69298 0.41035 0.43214 0.0
O131 O 0.63812 0.41985 0.44933 0.0
C132 C 0.75191 0.40422 0.34798 0.0
O133 O 0.59143 0.35769 0.42229 0.0
O134 O 0.64694 0.35541 0.40664 0.0
C135 C 0.63877 0.4234 0.35155 0.0
O136 O 0.69824 0.33924 0.35094 0.0
O137 O 0.71144 0.32774 0.29671 0.0
Mn138 Mn 0.31311 0.32689 0.75494 0.0
Mn139 Mn 0.35244 0.37826 0.6963 0.0
O140 O 0.38273 0.34371 0.66523 0.0
O141 O 0.36982 0.35179 0.61002 0.0
Mn142 Mn 0.35148 0.39419 0.62171 0.0
C143 C 0.31659 0.40555 0.76238 0.0
O144 O 0.31504 0.37544 0.777 0.0
O145 O 0.32617 0.40995 0.73071 0.0
P146 P 0.27118 0.2832 0.81594 0.0
C147 C 0.39716 0.43426 0.65973 0.0
C148 C 0.29997 0.40616 0.63092 0.0
O149 O 0.36473 0.31903 0.76024 0.0
O150 O 0.38645 0.36568 0.73517 0.0
O151 O 0.30878 0.30391 0.80236 0.0
C152 C 0.31525 0.30863 0.69842 0.0
O153 O 0.38786 0.4173 0.6864 0.0
O154 O 0.38406 0.42893 0.6297 0.0
C155 C 0.39037 0.33907 0.75355 0.0
O156 O 0.31267 0.40534 0.59953 0.0
O157 O 0.32011 0.39546 0.65644 0.0
C158 C 0.38649 0.33576 0.63287 0.0
O159 O 0.31769 0.34061 0.70874 0.0
O160 O 0.311 0.28651 0.72331 0.0
Mn161 Mn 0.31646 0.74828 0.33132 0.0
Mn162 Mn 0.36437 0.69281 0.3796 0.0
O163 O 0.32782 0.66139 0.4061 0.0
O164 O 0.34466 0.60638 0.40013 0.0
Mn165 Mn 0.38854 0.61895 0.38534 0.0
C166 C 0.39484 0.75607 0.34313 0.0
O167 O 0.36491 0.77031 0.33607 0.0
O168 O 0.39776 0.72581 0.3559 0.0
P169 P 0.27217 0.80847 0.28529 0.0
C170 C 0.41965 0.66453 0.43196 0.0
C171 C 0.4033 0.62866 0.3336 0.0
O172 O 0.30333 0.75816 0.38138 0.0
O173 O 0.34637 0.73274 0.40975 0.0
O174 O 0.29366 0.79584 0.3227 0.0
C175 C 0.29904 0.69157 0.33476 0.0
O176 O 0.39973 0.68755 0.41943 0.0
O177 O 0.41981 0.63341 0.42017 0.0
C178 C 0.32043 0.75283 0.40928 0.0
O179 O 0.40597 0.59806 0.3466 0.0
O180 O 0.38724 0.65187 0.35314 0.0
C181 C 0.32303 0.62888 0.41113 0.0
O182 O 0.33052 0.70234 0.33995 0.0
O183 O 0.27683 0.71594 0.32728 0.0
H184 H 0.23877 0.34551 0.16381 0.0
H185 H 0.24443 0.35506 0.10066 0.0
H186 H 0.30385 0.26067 0.0896 0.0
H187 H 0.30048 0.25288 0.15231 0.0
H188 H 0.32985 0.30512 0.04786 0.0
H189 H 0.20399 0.33719 0.06099 0.0
H190 H 0.20441 0.29048 0.06292 0.0
H191 H 0.18614 0.31135 1.02595 0.0
C192 C 0.25331 0.32711 0.14781 0.0
C193 C 0.26789 0.29757 0.16285 0.0
C194 C 0.25599 0.33215 0.11148 0.0
C195 C 0.27307 0.30762 0.08947 0.0
C196 C 0.28976 0.27968 0.10529 0.0
H197 H 0.23848 0.24652 0.87484 0.0
H198 H 0.24159 0.25466 0.93817 0.0
C199 C 0.28749 0.27499 0.1413 0.0
C200 C 0.27385 0.30999 0.05018 0.0
H201 H 0.22157 0.30956 0.97764 0.0
C202 C 0.30609 0.30642 1.03263 0.0
C203 C 0.24308 0.3115 1.02961 0.0
C204 C 0.20736 0.3128 0.04565 0.0
C205 C 0.30818 0.30312 0.99592 0.0
C206 C 0.27724 0.30409 0.97575 0.0
C207 C 0.24529 0.30885 0.99302 0.0
C208 C 0.27687 0.29854 0.93694 0.0
C209 C 0.34337 0.29708 0.9792 0.0
C210 C 0.2952 0.32069 0.91476 0.0
C211 C 0.29362 0.31585 0.87842 0.0
C212 C 0.27376 0.2887 0.86332 0.0
C213 C 0.2548 0.26706 0.88548 0.0
C214 C 0.25643 0.27185 0.9218 0.0
H215 H 0.36312 0.28864 0.99839 0.0
H216 H 0.34162 0.27719 0.95792 0.0
H217 H 0.35272 0.32158 0.96779 0.0
H218 H 0.31024 0.34216 0.9255 0.0
H219 H 0.30774 0.33369 0.86219 0.0
H220 H 0.21416 0.78381 0.96162 0.0
H221 H 0.23184 0.77415 1.02157 0.0
H222 H 0.32855 0.8282 1.00327 0.0
H223 H 0.31052 0.83832 0.94259 0.0
H224 H 0.28696 0.742 0.0534 0.0
H225 H 0.28767 0.88302 0.08629 0.0
H226 H 0.26939 0.86585 0.04619 0.0
H227 H 0.31589 0.86947 0.05112 0.0
C228 C 0.23961 0.79303 0.97 0.0
C229 C 0.26098 0.8117 0.94703 0.0
C230 C 0.24966 0.78757 1.00452 0.0
C231 C 0.2813 0.80091 1.01756 0.0
C232 C 0.30369 0.8181 0.99424 0.0
H233 H 0.33567 0.81832 0.24197 0.0
H234 H 0.34334 0.81406 0.17835 0.0
C235 C 0.29366 0.82341 0.9593 0.0
C236 C 0.28939 0.79772 0.0558 0.0
H237 H 0.29846 0.84506 0.13198 0.0
C238 C 0.28987 0.7646 0.07046 0.0
C239 C 0.29308 0.82704 0.07848 0.0
C240 C 0.29124 0.86341 0.06496 0.0
C241 C 0.29338 0.76004 0.10673 0.0
C242 C 0.29596 0.78937 0.12952 0.0
C243 C 0.29667 0.82245 0.11478 0.0
C244 C 0.29486 0.7866 0.16864 0.0
C245 C 0.29412 0.72369 0.12027 0.0
C246 C 0.26595 0.77128 0.18499 0.0
C247 C 0.26172 0.77352 0.22132 0.0
C248 C 0.28601 0.79155 0.24246 0.0
C249 C 0.31656 0.80408 0.22656 0.0
C250 C 0.32069 0.80209 0.19003 0.0
H251 H 0.3038 0.70496 0.10011 0.0
H252 H 0.31089 0.72198 0.14374 0.0
H253 H 0.26721 0.71579 0.12741 0.0
H254 H 0.24536 0.75946 0.16948 0.0
H255 H 0.23794 0.76332 0.23243 0.0
H256 H 0.82907 0.75522 0.86144 0.0
H257 H 0.82512 0.74002 0.92307 0.0
H258 H 0.76392 0.83187 0.94393 0.0
H259 H 0.7666 0.84613 0.88242 0.0
H260 H 0.85104 0.77404 0.97666 0.0
H261 H 0.70947 0.76434 0.99897 0.0
H262 H 0.72798 0.76586 0.95575 0.0
H263 H 0.71999 0.80529 0.98054 0.0
C264 C 0.81476 0.7721 0.87924 0.0
C265 C 0.79989 0.80294 0.86741 0.0
C266 C 0.81235 0.76332 0.91446 0.0
C267 C 0.79418 0.7847 0.93847 0.0
C268 C 0.77771 0.81455 0.92614 0.0
H269 H 0.77322 0.83519 0.15276 0.0
H270 H 0.76927 0.82405 0.09019 0.0
C271 C 0.77992 0.82314 0.89093 0.0
C272 C 0.7951 0.77772 0.9767 0.0
H273 H 0.74461 0.77634 0.05024 0.0
C274 C 0.82772 0.77396 0.99273 0.0
C275 C 0.76471 0.77706 0.99777 0.0
C276 C 0.72858 0.77795 0.98226 0.0
C277 C 0.8311 0.77223 1.02918 0.0
C278 C 0.80087 0.77409 0.05069 0.0
C279 C 0.76802 0.77558 1.03429 0.0
C280 C 0.80251 0.77872 0.08976 0.0
C281 C 0.86737 0.77049 0.04396 0.0
C282 C 0.82137 0.75634 0.11143 0.0
C283 C 0.82448 0.76351 0.14758 0.0
C284 C 0.8086 0.79306 0.16264 0.0
C285 C 0.78743 0.81344 0.1415 0.0
C286 C 0.78472 0.80668 0.10567 0.0
H287 H 0.88774 0.77582 1.02416 0.0
H288 H 0.87035 0.78963 0.06548 0.0
H289 H 0.87208 0.74419 0.05395 0.0
H290 H 0.83405 0.73359 0.10045 0.0
H291 H 0.84025 0.74675 0.16339 0.0
H292 H 0.86626 0.29159 0.95808 0.0
H293 H 0.85374 0.30163 1.01985 0.0
H294 H 0.74606 0.27367 1.00243 0.0
H295 H 0.75848 0.26419 0.93985 0.0
H296 H 0.75537 0.32818 0.0547 0.0
H297 H 0.84088 0.21581 0.07929 0.0
H298 H 0.86215 0.24914 0.05521 0.0
H299 H 0.82576 0.226 1.03626 0.0
C300 C 0.8396 0.28866 0.96712 0.0
C301 C 0.81333 0.2773 0.94389 0.0
C302 C 0.83255 0.29406 1.00262 0.0
C303 C 0.79913 0.28765 1.01619 0.0
C304 C 0.77212 0.27868 0.99273 0.0
H305 H 0.77846 0.23146 0.23262 0.0
H306 H 0.77279 0.23494 0.17014 0.0
C307 C 0.77915 0.27356 0.95686 0.0
C308 C 0.79365 0.28749 0.05494 0.0
H309 H 0.82334 0.24929 0.12878 0.0
C310 C 0.77005 0.3108 0.07092 0.0
C311 C 0.81234 0.26449 0.0763 0.0
C312 C 0.83644 0.2372 0.06094 0.0
C313 C 0.76533 0.31225 0.10754 0.0
C314 C 0.78512 0.29017 0.12899 0.0
C315 C 0.80821 0.26649 0.11275 0.0
C316 C 0.78213 0.29013 0.16815 0.0
C317 C 0.73868 0.33699 0.12276 0.0
C318 C 0.78799 0.32021 0.18888 0.0
C319 C 0.78994 0.31844 0.22552 0.0
C320 C 0.78636 0.28658 0.2423 0.0
C321 C 0.77954 0.25683 0.22147 0.0
C322 C 0.77704 0.25866 0.18516 0.0
H323 H 0.71885 0.34417 0.10311 0.0
H324 H 0.7251 0.32566 0.14542 0.0
H325 H 0.75207 0.3611 0.13172 0.0
H326 H 0.79303 0.34476 0.17675 0.0
H327 H 0.79656 0.34162 0.24052 0.0
H328 H 0.85218 0.26687 0.22922 0.0
H329 H 0.91554 0.26723 0.22574 0.0
H330 H 0.92147 0.29862 0.33409 0.0
H331 H 0.85754 0.30097 0.33688 0.0
H332 H 0.97116 0.32906 0.30357 0.0
H333 H 0.97806 0.19385 0.25445 0.0
H334 H 0.95452 0.21997 0.22462 0.0
H335 H 0.9374 0.21331 0.26783 0.0
C336 C 0.86667 0.27455 0.25225 0.0
C337 C 0.84929 0.28445 0.28329 0.0
C338 C 0.90336 0.27407 0.25039 0.0
C339 C 0.92403 0.28187 0.2799 0.0
C340 C 0.90664 0.29229 0.3108 0.0
H341 H 0.141 0.21154 0.28687 0.0
H342 H 0.07833 0.22042 0.29474 0.0
C343 C 0.8699 0.2937 0.31241 0.0
C344 C 0.96347 0.2791 0.27863 0.0
H345 H 1.03071 0.22647 0.25162 0.0
C346 C 0.98407 0.30643 0.29243 0.0
C347 C 0.98102 0.24945 0.26473 0.0
C348 C 0.96158 0.21738 0.25246 0.0
C349 C 1.02104 0.30512 0.2925 0.0
C350 C 0.03854 0.27621 0.27701 0.0
C351 C 1.01789 0.2489 0.26331 0.0
C352 C 0.07793 0.2728 0.2756 0.0
C353 C 0.04071 0.33437 0.31036 0.0
C354 C 0.09968 0.29939 0.26302 0.0
C355 C 0.13611 0.29468 0.25977 0.0
C356 C 0.15165 0.2629 0.26799 0.0
C357 C 0.13003 0.23653 0.2808 0.0
C358 C 0.09394 0.24153 0.28493 0.0
H359 H 1.02431 0.34775 0.3304 0.0
H360 H 0.06477 0.32497 0.32312 0.0
H361 H 0.04812 0.35379 0.29078 0.0
H362 H 0.08846 0.32337 0.25433 0.0
H363 H 0.15176 0.31512 0.24872 0.0
H364 H 0.26338 0.95222 0.89615 0.0
H365 H 0.27081 1.01387 0.88571 0.0
H366 H 0.26119 0.99441 0.77516 0.0
H367 H 0.25482 0.93193 0.78552 0.0
H368 H 0.30838 0.04524 0.78685 0.0
H369 H 0.19181 0.07728 0.86575 0.0
H370 H 0.2235 0.05475 0.89092 0.0
H371 H 0.20312 1.03327 0.85402 0.0
C372 C 0.2633 0.96081 0.86947 0.0
C373 C 0.25842 0.93671 0.84172 0.0
C374 C 0.26717 0.99642 0.86353 0.0
C375 C 0.2655 1.00954 0.82966 0.0
C376 C 0.26229 0.98539 0.80164 0.0
H377 H 0.21607 0.22925 0.80642 0.0
H378 H 0.21631 0.16651 0.80548 0.0
C379 C 0.25883 0.94947 0.80758 0.0
C380 C 0.26628 0.04828 0.82398 0.0
H381 H 0.2288 0.12469 0.85165 0.0
C382 C 0.29079 0.06256 0.80088 0.0
C383 C 0.24296 0.07139 0.84147 0.0
C384 C 0.21363 0.05839 0.8641 0.0
C385 C 0.29316 0.09877 0.79556 0.0
C386 C 0.27112 0.12205 0.8146 0.0
C387 C 0.2462 0.10755 0.83716 0.0
C388 C 0.27229 0.16121 0.81104 0.0
C389 C 0.31869 0.11144 0.7687 0.0
C390 C 0.30366 0.18047 0.81381 0.0
C391 C 0.30366 0.2171 0.81275 0.0
C392 C 0.27233 0.2357 0.80923 0.0
C393 C 0.24107 0.21642 0.80694 0.0
C394 C 0.2411 0.18001 0.80727 0.0
H395 H 0.32469 0.09088 0.74888 0.0
H396 H 0.30847 0.13438 0.75513 0.0
H397 H 0.34354 0.11874 0.78177 0.0
H398 H 0.32815 0.16736 0.81813 0.0
H399 H 0.32809 0.23095 0.81611 0.0
H400 H 0.21621 0.84717 0.25134 0.0
H401 H 0.15331 0.84527 0.25219 0.0
H402 H 0.15647 0.75844 0.32084 0.0
H403 H 0.22086 0.76215 0.32201 0.0
H404 H 0.11004 0.80095 0.22896 0.0
H405 H 0.08316 0.81211 0.37102 0.0
H406 H 0.12622 0.81884 0.35329 0.0
H407 H 0.10945 0.77562 0.35809 0.0
C408 C 0.20396 0.8283 0.26769 0.0
C409 C 0.22413 0.80576 0.28778 0.0
C410 C 0.16744 0.82687 0.2677 0.0
C411 C 0.14924 0.80217 0.28704 0.0
C412 C 0.16928 0.77867 0.3065 0.0
H413 H 0.9156 0.7814 0.28486 0.0
H414 H 0.97785 0.76804 0.29417 0.0
C415 C 0.20629 0.78057 0.30699 0.0
C416 C 0.10969 0.80118 0.28513 0.0
H417 H 0.03437 0.80752 0.33379 0.0
C418 C 0.09372 0.80222 0.25207 0.0
C419 C 0.08761 0.80251 0.31498 0.0
C420 C 0.10237 0.8025 0.35137 0.0
C421 C 0.05725 0.80574 0.24805 0.0
C422 C 0.03543 0.80833 0.27784 0.0
C423 C 0.05093 0.80563 0.31089 0.0
C424 C 0.99714 0.81672 0.27483 0.0
C425 C 0.04235 0.80724 0.21173 0.0
C426 C 0.98686 0.84878 0.26173 0.0
C427 C 0.9515 0.85656 0.25666 0.0
C428 C 0.92488 0.83253 0.26449 0.0
C429 C 0.93509 0.80068 0.27865 0.0
C430 C 0.97079 0.79296 0.28391 0.0
H431 H 0.06054 0.79601 0.19194 0.0
H432 H 1.01703 0.79322 0.20995 0.0
H433 H 0.03766 0.83469 0.20516 0.0
H434 H 1.00639 0.86782 0.25488 0.0
H435 H 0.94515 0.8814 0.24576 0.0
H436 H 0.76853 0.86389 0.77474 0.0
H437 H 0.76499 0.92761 0.77392 0.0
H438 H 0.8271 0.93402 0.8675 0.0
H439 H 0.83265 0.87126 0.86675 0.0
H440 H 0.73874 0.97593 0.81395 0.0
H441 H 0.88057 1.00014 0.81313 0.0
H442 H 0.86282 0.95717 0.80746 0.0
H443 H 0.86905 0.97581 0.85058 0.0
C444 C 0.78164 0.87904 0.79487 0.0
C445 C 0.8006 0.86243 0.82096 0.0
C446 C 0.77952 0.91553 0.79454 0.0
C447 C 0.79636 0.93621 0.82028 0.0
C448 C 0.8148 0.91927 0.84657 0.0
H449 H 0.74966 0.15819 0.86593 0.0
H450 H 0.74579 0.09456 0.86151 0.0
C451 C 0.8176 0.88309 0.84639 0.0
C452 C 0.79461 0.97524 0.82013 0.0
H453 H 0.84477 0.04829 0.82991 0.0
C454 C 0.76202 0.99174 0.81702 0.0
C455 C 0.82485 0.99639 0.82358 0.0
C456 C 0.86126 0.98143 0.82346 0.0
C457 C 0.75882 1.02829 0.81776 0.0
C458 C 0.7889 0.04933 0.82317 0.0
C459 C 0.82144 1.0327 0.82607 0.0
C460 C 0.78818 0.08847 0.82426 0.0
C461 C 0.72328 0.04372 0.81166 0.0
C462 C 0.81314 0.10695 0.80512 0.0
C463 C 0.8158 0.14301 0.80837 0.0
C464 C 0.79327 0.16208 0.83039 0.0
C465 C 0.76707 0.14422 0.84838 0.0
C466 C 0.76485 0.10771 0.84571 0.0
H467 H 0.70608 1.02541 0.79691 0.0
H468 H 0.7106 0.04939 0.83716 0.0
H469 H 0.72516 0.06814 0.79703 0.0
H470 H 0.83134 0.09337 0.78807 0.0
H471 H 0.83616 0.15606 0.79401 0.0
H472 H 0.84335 0.79879 0.75458 0.0
H473 H 0.90678 0.79869 0.74087 0.0
H474 H 0.92996 0.81737 0.84938 0.0
H475 H 0.86835 0.81777 0.86287 0.0
H476 H 0.96122 0.86633 0.79246 0.0
H477 H 0.98861 0.72514 0.77895 0.0
H478 H 0.94957 0.7435 0.76058 0.0
H479 H 0.95366 0.74051 0.80688 0.0
C480 C 0.86209 0.80174 0.77552 0.0
C481 C 0.85038 0.8066 0.8101 0.0
C482 C 0.89837 0.802 0.76768 0.0
C483 C 0.92342 0.80778 0.79421 0.0
C484 C 0.91151 0.81249 0.82846 0.0
H485 H 0.13865 0.79277 0.84854 0.0
H486 H 0.07579 0.78849 0.83839 0.0
C487 C 0.87584 0.81216 0.83617 0.0
C488 C 0.96202 0.81081 0.78735 0.0
H489 H 0.0371 0.76268 0.78357 0.0
C490 C 0.97782 0.84372 0.78962 0.0
C491 C 0.98386 0.78138 0.78439 0.0
C492 C 0.96837 0.74548 0.78252 0.0
C493 C 1.01454 0.84792 0.79017 0.0
C494 C 0.03657 0.81838 0.7882 0.0
C495 C 1.02063 0.78548 0.78488 0.0
C496 C 0.07571 0.82074 0.79302 0.0
C497 C 1.02932 0.88395 0.79481 0.0
C498 C 0.09753 0.83979 0.77067 0.0
C499 C 0.1339 0.84265 0.77687 0.0
C500 C 0.14918 0.82672 0.80572 0.0
C501 C 0.12754 0.80658 0.82699 0.0
C502 C 0.0915 0.80371 0.82087 0.0
H503 H 1.00917 0.9029 0.80353 0.0
H504 H 0.0508 0.8843 0.81414 0.0
H505 H 0.03996 0.89257 0.76953 0.0
H506 H 0.08645 0.85264 0.7485 0.0
H507 H 0.14982 0.85798 0.75967 0.0
H508 H 0.75025 0.93792 0.27092 0.0
H509 H 0.74133 1.00009 0.28433 0.0
H510 H 0.8528 1.01513 0.2882 0.0
H511 H 0.86157 0.95349 0.2744 0.0
H512 H 0.76156 0.04892 0.33748 0.0
H513 H 0.82375 0.08082 0.21193 0.0
H514 H 0.81092 1.03725 0.22232 0.0
H515 H 0.85131 0.05503 0.23874 0.0
C516 C 0.77277 0.95432 0.27587 0.0
C517 C 0.80664 0.9405 0.27246 0.0
C518 C 0.76768 0.99002 0.28321 0.0
C519 C 0.79635 1.01284 0.28673 0.0
C520 C 0.83013 0.99854 0.28507 0.0
H521 H 0.84611 0.22774 0.3188 0.0
H522 H 0.84041 0.16536 0.31986 0.0
C523 C 0.83517 0.96305 0.27773 0.0
C524 C 0.79144 0.05163 0.29005 0.0
H525 H 0.81495 0.12798 0.25221 0.0
C526 C 0.77292 0.06613 0.31859 0.0
C527 C 0.80578 0.07454 0.26532 0.0
C528 C 0.82373 0.06118 0.23266 0.0
C529 C 0.76981 0.10253 0.32374 0.0
C530 C 0.78546 0.12527 0.29978 0.0
C531 C 0.80307 0.11076 0.2708 0.0
C532 C 0.78607 0.16408 0.30511 0.0
C533 C 0.75086 0.11666 0.35538 0.0
C534 C 0.75687 0.18503 0.29815 0.0
C535 C 0.76004 0.22158 0.29744 0.0
C536 C 0.79262 0.2379 0.30296 0.0
C537 C 0.8207 0.21685 0.31329 0.0
C538 C 0.81756 0.18064 0.31395 0.0
H539 H 0.74151 0.09581 0.37258 0.0
H540 H 0.76839 0.13428 0.37054 0.0
H541 H 0.72809 0.13213 0.34702 0.0
H542 H 0.73214 0.17308 0.29129 0.0
H543 H 0.73781 0.23673 0.28944 0.0
H544 H 0.95634 0.25689 0.88326 0.0
H545 H 1.01631 0.27126 0.8682 0.0
H546 H 0.98137 0.31412 0.77165 0.0
H547 H 0.92037 0.29951 0.7868 0.0
H548 H 0.05025 0.24293 0.80841 0.0
H549 H 0.05392 0.38705 0.81054 0.0
H550 H 1.02049 0.36309 0.83304 0.0
H551 H 1.01929 0.36584 0.7865 0.0
C552 C 0.96111 0.27011 0.85909 0.0
C553 C 0.93326 0.27709 0.83632 0.0
C554 C 0.99565 0.27818 0.85042 0.0
C555 C 1.00377 0.2937 0.81871 0.0
C556 C 0.97595 0.30245 0.79647 0.0
H557 H 0.22582 0.27348 0.75365 0.0
H558 H 0.16208 0.27872 0.7478 0.0
C559 C 0.94097 0.29429 0.80523 0.0
C560 C 0.04156 0.29794 0.8087 0.0
H561 H 0.10683 0.35797 0.79879 0.0
C562 C 0.06249 0.2681 0.80576 0.0
C563 C 0.05783 0.33072 0.80556 0.0
C564 C 0.03697 0.36366 0.80922 0.0
C565 C 0.09897 0.27007 0.8008 0.0
C566 C 0.11545 0.30289 0.79815 0.0
C567 C 0.09442 0.33278 0.80036 0.0
C568 C 0.15465 0.3064 0.79694 0.0
C569 C 0.11981 0.2369 0.80028 0.0
C570 C 0.17236 0.32275 0.82483 0.0
C571 C 0.20878 0.32004 0.82797 0.0
C572 C 0.22853 0.30064 0.80346 0.0
C573 C 0.21143 0.28819 0.77325 0.0
C574 C 0.17481 0.29073 0.77017 0.0
H575 H 0.10416 0.2145 0.80924 0.0
H576 H 0.12871 0.231 0.77328 0.0
H577 H 0.14328 0.23959 0.81709 0.0
H578 H 0.15778 0.3356 0.84556 0.0
H579 H 0.22089 0.33102 0.85114 0.0
H580 H 0.28116 0.8606 0.34191 0.0
H581 H 0.2844 0.92399 0.34374 0.0
H582 H 0.2792 0.92502 0.23163 0.0
H583 H 0.2764 0.86188 0.22964 0.0
H584 H 0.32542 0.97348 0.25577 0.0
H585 H 0.20163 0.98622 0.33006 0.0
H586 H 0.23443 0.96164 0.35178 0.0
H587 H 0.21614 0.94543 0.31145 0.0
C588 C 0.28144 0.87423 0.31757 0.0
C589 C 0.27946 0.85567 0.28564 0.0
C590 C 0.28284 0.91067 0.31867 0.0
C591 C 0.28155 0.92973 0.28785 0.0
C592 C 0.28041 0.91122 0.25587 0.0
H593 H 0.21274 0.13601 0.24731 0.0
H594 H 0.22056 0.07492 0.25992 0.0
C595 C 0.27917 0.8748 0.25477 0.0
C596 C 0.28023 0.96875 0.28873 0.0
H597 H 0.23196 1.03802 0.31862 0.0
C598 C 0.30511 0.98756 0.26975 0.0
C599 C 0.25351 0.98747 0.30655 0.0
C600 C 0.2247 0.96923 0.32584 0.0
C601 C 0.30387 1.02409 0.26788 0.0
C602 C 0.27733 0.04278 0.28595 0.0
C603 C 0.25268 1.02399 0.30519 0.0
C604 C 0.27218 0.08114 0.28196 0.0
C605 C 0.33009 0.04225 0.24524 0.0
C606 C 0.29804 0.10583 0.29126 0.0
C607 C 0.29338 0.14135 0.28432 0.0
C608 C 0.26277 0.15276 0.26799 0.0
C609 C 0.23647 0.12819 0.2603 0.0
C610 C 0.241 0.09307 0.26735 0.0
H611 H 0.34441 1.02382 0.2278 0.0
H612 H 0.31702 0.0618 0.22899 0.0
H613 H 0.34946 0.05595 0.26207 0.0
H614 H 0.32216 0.09755 0.3031 0.0
H615 H 0.31437 0.15946 0.28999 0.0
H616 H 0.7115 0.78794 0.37033 0.0
H617 H 0.71295 0.79529 0.43385 0.0
H618 H 0.82452 0.80913 0.43019 0.0
H619 H 0.82347 0.80117 0.36679 0.0
H620 H 0.76015 0.74908 0.47646 0.0
H621 H 0.78245 0.89014 0.49867 0.0
H622 H 0.76036 0.87301 0.46037 0.0
H623 H 0.80668 0.8682 0.46445 0.0
C624 C 0.7363 0.79326 0.38282 0.0
C625 C 0.76731 0.79471 0.36313 0.0
C626 C 0.73706 0.79749 0.41924 0.0
C627 C 0.76876 0.80354 0.43679 0.0
C628 C 0.79966 0.80536 0.41721 0.0
H629 H 0.81413 0.75685 0.65527 0.0
H630 H 0.81791 0.76327 0.59204 0.0
C631 C 0.79897 0.80074 0.38087 0.0
C632 C 0.77016 0.80365 0.47563 0.0
H633 H 0.78312 0.85502 0.54828 0.0
C634 C 0.76542 0.77216 0.49228 0.0
C635 C 0.77671 0.83386 0.49606 0.0
C636 C 0.78173 0.8684 0.47922 0.0
C637 C 0.76757 0.76959 0.52871 0.0
C638 C 0.77389 0.79996 0.54973 0.0
C639 C 0.77822 0.83171 0.53275 0.0
C640 C 0.77529 0.79983 0.589 0.0
C641 C 0.76086 0.73417 0.54313 0.0
C642 C 0.75306 0.82131 0.60937 0.0
C643 C 0.75213 0.81893 0.64601 0.0
C644 C 0.77276 0.79434 0.66288 0.0
C645 C 0.79695 0.77507 0.64285 0.0
C646 C 0.79886 0.77848 0.60656 0.0
H647 H 0.77034 0.71348 0.52488 0.0
H648 H 0.77343 0.73012 0.56837 0.0
H649 H 0.73228 0.73037 0.54593 0.0
H650 H 0.73526 0.83886 0.59684 0.0
H651 H 0.73361 0.83452 0.66081 0.0
H652 H 0.72791 0.28608 0.73071 0.0
H653 H 0.73641 0.28442 0.66851 0.0
H654 H 0.84296 0.31796 0.68227 0.0
H655 H 0.83483 0.31813 0.74593 0.0
H656 H 0.74967 0.34144 0.6319 0.0
H657 H 0.85449 0.24524 0.60443 0.0
H658 H 0.83124 0.24708 0.64542 0.0
H659 H 0.86468 0.27837 0.63649 0.0
C660 C 0.75384 0.29122 0.72124 0.0
C661 C 0.78109 0.30087 0.74409 0.0
C662 C 0.75848 0.29093 0.68505 0.0
C663 C 0.79036 0.30091 0.67016 0.0
C664 C 0.81824 0.30939 0.69277 0.0
H665 H 0.80999 0.3563 0.44681 0.0
H666 H 0.82542 0.34938 0.5087 0.0
C667 C 0.81365 0.30928 0.72931 0.0
C668 C 0.79252 0.30538 0.63134 0.0
H669 H 0.83261 0.27578 0.55635 0.0
C670 C 0.76804 0.32719 0.61555 0.0
C671 C 0.81655 0.2871 0.60961 0.0
C672 C 0.84311 0.2629 0.62467 0.0
C673 C 0.76634 0.33051 0.5791 0.0
C674 C 0.78957 0.31145 0.55738 0.0
C675 C 0.81483 0.29046 0.57297 0.0
C676 C 0.78546 0.3111 0.51856 0.0
C677 C 0.73906 0.35388 0.56382 0.0
C678 C 0.7588 0.29105 0.50314 0.0
C679 C 0.75023 0.29479 0.46795 0.0
C680 C 0.76823 0.31847 0.44703 0.0
C681 C 0.79642 0.33702 0.46184 0.0
C682 C 0.80497 0.33335 0.49734 0.0
H683 H 0.72621 0.37053 0.58403 0.0
H684 H 0.75098 0.37073 0.54394 0.0
H685 H 0.71872 0.3378 0.55063 0.0
H686 H 0.7432 0.27393 0.51888 0.0
H687 H 0.72782 0.2808 0.45762 0.0
H688 H 0.34227 0.3482 0.37396 0.0
H689 H 0.34303 0.34037 0.43725 0.0
H690 H 0.27785 0.24975 0.42491 0.0
H691 H 0.27695 0.25739 0.36202 0.0
H692 H 0.25409 0.29494 0.47717 0.0
H693 H 0.39486 0.26639 0.4935 0.0
H694 H 0.38615 0.30541 0.47045 0.0
H695 H 0.37338 0.2643 0.45161 0.0
C696 C 0.32792 0.32676 0.38474 0.0
C697 C 0.30878 0.30402 0.36288 0.0
C698 C 0.32868 0.32207 0.42094 0.0
C699 C 0.31058 0.29435 0.43597 0.0
C700 C 0.2919 0.2714 0.41406 0.0
H701 H 0.34368 0.25364 0.66028 0.0
H702 H 0.33975 0.24368 0.59665 0.0
C703 C 0.29127 0.27597 0.37797 0.0
C704 C 0.30999 0.28983 0.47454 0.0
H705 H 0.36182 0.27567 0.54504 0.0
C706 C 0.27778 0.29119 0.49206 0.0
C707 C 0.34058 0.28336 0.49395 0.0
C708 C 0.3757 0.27938 0.47647 0.0
C709 C 0.27556 0.28831 0.52851 0.0
C710 C 0.30654 0.28476 0.5484 0.0
C711 C 0.33836 0.28058 0.53044 0.0
C712 C 0.30686 0.28823 0.58749 0.0
C713 C 0.23975 0.28825 0.545 0.0
C714 C 0.28969 0.31626 0.60398 0.0
C715 C 0.29129 0.32127 0.64007 0.0
C716 C 0.31138 0.29953 0.66081 0.0
C717 C 0.32811 0.27094 0.64486 0.0
C718 C 0.32602 0.26545 0.60846 0.0
H719 H 0.22029 0.27594 0.52716 0.0
H720 H 0.23945 0.27422 0.56993 0.0
H721 H 0.23121 0.31537 0.54995 0.0
H722 H 0.27559 0.33498 0.5889 0.0
H723 H 0.2769 0.34256 0.65192 0.0
H724 H 0.36309 0.78413 0.45642 0.0
H725 H 0.35181 0.79531 0.51829 0.0
H726 H 0.24453 0.7642 0.50409 0.0
H727 H 0.25569 0.75372 0.44138 0.0
H728 H 0.25291 0.81952 0.55492 0.0
H729 H 0.34351 0.71145 0.58047 0.0
H730 H 0.36309 0.74504 0.55538 0.0
H731 H 0.32736 0.72011 0.53744 0.0
C732 C 0.33676 0.78076 0.46618 0.0
C733 C 0.31023 0.76834 0.44379 0.0
C734 C 0.33042 0.78678 0.50176 0.0
C735 C 0.29752 0.77985 0.51633 0.0
C736 C 0.27021 0.76966 0.49367 0.0
H737 H 0.28297 0.72689 0.734 0.0
H738 H 0.27655 0.72932 0.67158 0.0
C739 C 0.2765 0.76395 0.4577 0.0
C740 C 0.29293 0.78052 0.55528 0.0
H741 H 0.32563 0.74534 0.62948 0.0
C742 C 0.26865 0.80317 0.57125 0.0
C743 C 0.31302 0.75888 0.57686 0.0
C744 C 0.33795 0.73225 0.56172 0.0
C745 C 0.26454 0.80524 0.60795 0.0
C746 C 0.28563 0.78448 0.62955 0.0
C747 C 0.30948 0.76153 0.61337 0.0
C748 C 0.28308 0.78486 0.66881 0.0
C749 C 0.23711 0.82914 0.62312 0.0
C750 C 0.28765 0.81541 0.68918 0.0
C751 C 0.2899 0.81419 0.72587 0.0
C752 C 0.28784 0.78244 0.74311 0.0
C753 C 0.28249 0.75216 0.72261 0.0
C754 C 0.27969 0.75342 0.68627 0.0
H755 H 0.21676 0.83525 0.60361 0.0
H756 H 0.22427 0.81761 0.64611 0.0
H757 H 0.24964 0.85386 0.63159 0.0
H758 H 0.29141 0.84001 0.67672 0.0
H759 H 0.29543 0.83784 0.74057 0.0
H760 H 0.35336 0.75923 0.73154 0.0
H761 H 0.41662 0.75939 0.72741 0.0
H762 H 0.42356 0.79954 0.8329 0.0
H763 H 0.3596 0.802 0.83611 0.0
H764 H 0.47293 0.82737 0.79972 0.0
H765 H 0.48032 0.68931 0.7609 0.0
H766 H 0.45599 0.71254 0.7293 0.0
H767 H 0.43965 0.70937 0.77329 0.0
C768 C 0.36802 0.76876 0.75378 0.0
C769 C 0.35084 0.78117 0.78406 0.0
C770 C 0.40469 0.76817 0.7516 0.0
C771 C 0.42568 0.77841 0.78016 0.0
C772 C 0.40852 0.79126 0.81033 0.0
H773 H 0.64501 0.71171 0.78349 0.0
H774 H 0.58231 0.7193 0.79291 0.0
C775 C 0.37174 0.79273 0.81218 0.0
C776 C 0.46519 0.77582 0.77851 0.0
H777 H 0.53242 0.72226 0.75334 0.0
C778 C 0.48583 0.80419 0.78984 0.0
C779 C 0.48283 0.74548 0.76638 0.0
C780 C 0.46353 0.71237 0.75719 0.0
C781 C 0.52283 0.80331 0.78896 0.0
C782 C 0.54038 0.77372 0.77484 0.0
C783 C 0.51967 0.74527 0.76385 0.0
C784 C 0.57985 0.77093 0.77197 0.0
C785 C 0.54249 0.83385 0.80444 0.0
C786 C 0.60057 0.79743 0.75762 0.0
C787 C 0.63702 0.79354 0.75354 0.0
C788 C 0.65372 0.76259 0.76259 0.0
C789 C 0.63314 0.73611 0.77674 0.0
C790 C 0.59701 0.74037 0.78179 0.0
H791 H 0.52658 0.84785 0.82446 0.0
H792 H 0.5673 0.82573 0.81669 0.0
H793 H 0.5485 0.8524 0.78358 0.0
H794 H 0.58851 0.82079 0.74836 0.0
H795 H 0.65184 0.81402 0.7415 0.0
H796 H 0.8157 0.7351 0.27859 0.0
H797 H 0.81752 0.67099 0.27604 0.0
H798 H 0.73018 0.66738 0.34681 0.0
H799 H 0.72777 0.73023 0.34853 0.0
H800 H 0.82697 0.62169 0.32736 0.0
H801 H 0.6957 0.6029 0.2704 0.0
H802 H 0.71729 0.64454 0.2714 0.0
H803 H 0.69437 0.62953 0.30923 0.0
C804 C 0.79689 0.72053 0.29345 0.0
C805 C 0.77168 0.73807 0.31387 0.0
C806 C 0.79791 0.68381 0.29204 0.0
C807 C 0.77349 0.66384 0.31071 0.0
C808 C 0.74882 0.68164 0.33142 0.0
H809 H 0.76712 0.45844 0.39249 0.0
H810 H 0.77517 0.5195 0.37938 0.0
C811 C 0.74781 0.71794 0.33278 0.0
C812 C 0.77378 0.62464 0.30969 0.0
H813 H 0.72057 0.55347 0.29815 0.0
C814 C 0.80381 0.60686 0.32046 0.0
C815 C 0.74378 0.60466 0.30047 0.0
C816 C 0.71109 0.62136 0.28689 0.0
C817 C 0.80407 0.57039 0.32385 0.0
C818 C 0.77352 0.55073 0.31641 0.0
C819 C 0.74402 0.56825 0.30411 0.0
C820 C 0.77097 0.51253 0.32354 0.0
C821 C 0.83703 0.55304 0.33579 0.0
C822 C 0.76593 0.48758 0.29658 0.0
C823 C 0.76172 0.45207 0.30402 0.0
C824 C 0.76179 0.44069 0.33868 0.0
C825 C 0.76722 0.46584 0.36543 0.0
C826 C 0.77186 0.50102 0.35798 0.0
H827 H 0.86023 0.57008 0.33291 0.0
H828 H 0.83437 0.54662 0.36371 0.0
H829 H 0.84151 0.5285 0.3208 0.0
H830 H 0.76487 0.49562 0.26976 0.0
H831 H 0.75705 0.43376 0.28273 0.0
H832 H 0.71489 0.35988 0.81827 0.0
H833 H 0.65166 0.35592 0.81631 0.0
H834 H 0.65857 0.24845 0.78478 0.0
H835 H 0.72291 0.25243 0.7858 0.0
H836 H 0.6174 0.32874 0.74489 0.0
H837 H 0.57661 0.26253 0.8658 0.0
H838 H 0.61576 0.28878 0.86491 0.0
H839 H 0.61467 0.24799 0.8418 0.0
C840 C 0.70345 0.33516 0.811 0.0
C841 C 0.72453 0.30687 0.80042 0.0
C842 C 0.66688 0.33297 0.81011 0.0
C843 C 0.65003 0.30215 0.79971 0.0
C844 C 0.6708 0.27271 0.79264 0.0
H845 H 0.42015 0.27594 0.77052 0.0
H846 H 0.48238 0.26398 0.7814 0.0
C847 C 0.70768 0.27495 0.79344 0.0
C848 C 0.61127 0.30234 0.79324 0.0
H849 H 0.53182 0.28356 0.82984 0.0
C850 C 0.59873 0.31859 0.76337 0.0
C851 C 0.5867 0.28883 0.81699 0.0
C852 C 0.59878 0.271 0.84931 0.0
C853 C 0.56264 0.32222 0.75691 0.0
C854 C 0.53786 0.3104 0.7816 0.0
C855 C 0.55043 0.29302 0.81096 0.0
C856 C 0.49923 0.31738 0.77784 0.0
C857 C 0.55153 0.33844 0.72327 0.0
C858 C 0.48725 0.35142 0.77354 0.0
C859 C 0.45189 0.35822 0.76711 0.0
C860 C 0.42691 0.33133 0.76545 0.0
C861 C 0.43844 0.29737 0.77174 0.0
C862 C 0.47417 0.29049 0.77784 0.0
H863 H 0.57179 0.33503 0.70272 0.0
H864 H 0.52665 0.3271 0.71344 0.0
H865 H 0.5478 0.36669 0.72774 0.0
H866 H 0.50544 0.37293 0.77454 0.0
H867 H 0.44422 0.38477 0.76279 0.0
H868 H 0.33963 0.64403 0.30248 0.0
H869 H 0.33336 0.58104 0.30017 0.0
H870 H 0.2346 0.58968 0.35361 0.0
H871 H 0.24159 0.65346 0.35704 0.0
H872 H 0.32226 0.53789 0.36462 0.0
H873 H 0.2198 0.52251 0.26265 0.0
H874 H 0.24809 0.56006 0.26457 0.0
H875 H 0.21454 0.55511 0.29666 0.0
C876 C 0.3168 0.63253 0.31425 0.0
C877 C 0.29168 0.65368 0.33086 0.0
C878 C 0.31302 0.59648 0.3125 0.0
C879 C 0.28355 0.5804 0.32669 0.0
C880 C 0.25751 0.60145 0.34223 0.0
H881 H 0.24388 0.353 0.31812 0.0
H882 H 0.23517 0.4162 0.32251 0.0
C883 C 0.26146 0.63787 0.34417 0.0
C884 C 0.28161 0.5416 0.32636 0.0
H885 H 0.24534 0.47154 0.28344 0.0
C886 C 0.30491 0.52342 0.34736 0.0
C887 C 0.25924 0.52251 0.30371 0.0
C888 C 0.23395 0.54079 0.28042 0.0
C889 C 0.3065 0.48696 0.34642 0.0
C890 C 0.28568 0.46772 0.3222 0.0
C891 C 0.26162 0.48591 0.30179 0.0
C892 C 0.28992 0.42916 0.31678 0.0
C893 C 0.3303 0.46959 0.372 0.0
C894 C 0.32324 0.41497 0.31091 0.0
C895 C 0.32822 0.37906 0.30903 0.0
C896 C 0.29985 0.35595 0.31111 0.0
C897 C 0.26621 0.37001 0.31548 0.0
C898 C 0.26126 0.40621 0.31815 0.0
H899 H 0.33343 0.48569 0.39616 0.0
H900 H 0.32023 0.44374 0.37929 0.0
H901 H 0.35659 0.4664 0.36017 0.0
H902 H 0.34581 0.43172 0.30876 0.0
H903 H 0.35471 0.36967 0.30742 0.0
H904 H 0.34894 0.32663 0.25269 0.0
H905 H 0.41252 0.32776 0.24334 0.0
H906 H 0.4269 0.26773 0.33551 0.0
H907 H 0.36408 0.26613 0.3445 0.0
H908 H 0.45851 0.35946 0.28901 0.0
H909 H 0.49759 0.22261 0.2719 0.0
H910 H 0.4528 0.23639 0.26771 0.0
H911 H 0.4712 0.22917 0.31009 0.0
C912 C 0.3656 0.31255 0.27017 0.0
C913 C 0.35122 0.29716 0.29988 0.0
C914 C 0.4021 0.31358 0.26507 0.0
C915 C 0.42501 0.29815 0.28888 0.0
C916 C 0.41025 0.27974 0.31651 0.0
H917 H 0.63891 0.30225 0.35712 0.0
H918 H 0.57637 0.29496 0.34645 0.0
C919 C 0.37394 0.27895 0.32171 0.0
C920 C 0.46395 0.30399 0.2872 0.0
H921 H 0.54281 0.26228 0.29065 0.0
C922 C 0.47693 0.33816 0.28865 0.0
C923 C 0.48837 0.2764 0.28705 0.0
C924 C 0.4768 0.2391 0.28375 0.0
C925 C 0.51307 0.34539 0.2916 0.0
C926 C 0.5374 0.31778 0.29253 0.0
C927 C 0.52448 0.28363 0.29001 0.0
C928 C 0.57591 0.32353 0.29869 0.0
C929 C 0.52479 0.38253 0.29583 0.0
C930 C 0.59724 0.34185 0.2753 0.0
C931 C 0.63339 0.34623 0.28158 0.0
C932 C 0.64889 0.3328 0.31163 0.0
C933 C 0.62759 0.31418 0.33455 0.0
C934 C 0.59178 0.30958 0.3282 0.0
H935 H 0.50251 0.40054 0.29999 0.0
H936 H 0.54286 0.38528 0.31833 0.0
H937 H 0.539 0.3904 0.27206 0.0
H938 H 0.58607 0.35232 0.2519 0.0
H939 H 0.64912 0.36027 0.26312 0.0
H940 H 0.36197 0.44749 0.79792 0.0
H941 H 0.35353 0.50892 0.81351 0.0
H942 H 0.24591 0.50132 0.78155 0.0
H943 H 0.25442 0.43981 0.76628 0.0
H944 H 0.33735 0.55773 0.76668 0.0
H945 H 0.23561 0.56096 0.86948 0.0
H946 H 0.2594 0.52203 0.85789 0.0
H947 H 0.22366 0.53592 0.83133 0.0
C948 C 0.33608 0.45851 0.79586 0.0
C949 C 0.30853 0.43829 0.78213 0.0
C950 C 0.33134 0.49388 0.80432 0.0
C951 C 0.29891 0.51019 0.7992 0.0
C952 C 0.27096 0.48959 0.78675 0.0
H953 H 0.24105 0.73144 0.7867 0.0
H954 H 0.23782 0.66791 0.79127 0.0
C955 C 0.27577 0.4542 0.77819 0.0
C956 C 0.29564 0.54909 0.80311 0.0
H957 H 0.24957 0.61491 0.84363 0.0
C958 C 0.31828 0.57006 0.78376 0.0
C959 C 0.27049 0.56571 0.82497 0.0
C960 C 0.24608 0.54507 0.84737 0.0
C961 C 0.31641 0.60659 0.78537 0.0
C962 C 0.29163 0.62327 0.80755 0.0
C963 C 0.26865 0.60242 0.82668 0.0
C964 C 0.29024 0.66223 0.8113 0.0
C965 C 0.34071 0.62709 0.7626 0.0
C966 C 0.31955 0.68077 0.82346 0.0
C967 C 0.32138 0.71694 0.82087 0.0
C968 C 0.29406 0.7358 0.80571 0.0
C969 C 0.26288 0.7178 0.79784 0.0
C970 C 0.26112 0.68133 0.80022 0.0
H971 H 0.3514 0.61097 0.74076 0.0
H972 H 0.32715 0.64976 0.7516 0.0
H973 H 0.363 0.63679 0.77849 0.0
H974 H 0.34196 0.66704 0.83334 0.0
H975 H 0.34538 0.72955 0.82876 0.0
H976 H 0.7257 0.85022 0.32162 0.0
H977 H 0.66224 0.85884 0.3183 0.0
H978 H 0.65032 0.75533 0.27533 0.0
H979 H 0.7133 0.748 0.27581 0.0
H980 H 0.60082 0.79042 0.25105 0.0
H981 H 0.60247 0.82299 0.39243 0.0
H982 H 0.62517 0.85412 0.36686 0.0
H983 H 0.64136 0.81041 0.3691 0.0
C984 C 0.70961 0.8299 0.31013 0.0
C985 C 0.72475 0.79812 0.29981 0.0
C986 C 0.67306 0.83446 0.30905 0.0
C987 C 0.65071 0.80707 0.29834 0.0
C988 C 0.66636 0.77679 0.28451 0.0
H989 H 0.4536 0.7486 0.38113 0.0
H990 H 0.51272 0.76581 0.36756 0.0
C991 C 0.70277 0.77257 0.28488 0.0
C992 C 0.61149 0.80846 0.30344 0.0
H993 H 0.54777 0.82131 0.36531 0.0
C994 C 0.5893 0.79739 0.27605 0.0
C995 C 0.59585 0.81706 0.33613 0.0
C996 C 0.61739 0.82646 0.36789 0.0
C997 C 0.55278 0.79359 0.28062 0.0
C998 C 0.5372 0.8024 0.31323 0.0
C999 C 0.55922 0.81477 0.34016 0.0
C1000 C 0.49939 0.79464 0.32177 0.0
C1001 C 0.53164 0.77819 0.25095 0.0
C1002 C 0.47093 0.80576 0.30137 0.0
C1003 C 0.43623 0.79541 0.30903 0.0
C1004 C 0.42926 0.77396 0.33745 0.0
C1005 C 0.45763 0.76483 0.35879 0.0
C1006 C 0.49184 0.7748 0.35106 0.0
H1007 H 0.54846 0.76544 0.23086 0.0
H1008 H 0.51268 0.75877 0.26053 0.0
H1009 H 0.51685 0.79908 0.23823 0.0
H1010 H 0.4755 0.82195 0.27916 0.0
H1011 H 0.41524 0.80289 0.29191 0.0
H1012 H 0.74373 0.36607 0.74053 0.0
H1013 H 0.74493 0.42954 0.74058 0.0
H1014 H 0.80737 0.43053 0.83395 0.0
H1015 H 0.80532 0.36738 0.83456 0.0
H1016 H 0.75795 0.47707 0.84065 0.0
H1017 H 0.81905 0.49559 0.71155 0.0
H1018 H 0.77963 0.47057 0.70888 0.0
H1019 H 0.81692 0.45375 0.73144 0.0
C1020 C 0.75828 0.37979 0.76069 0.0
C1021 C 0.77507 0.36132 0.78707 0.0
C1022 C 0.75904 0.41624 0.76068 0.0
C1023 C 0.77689 0.4353 0.78688 0.0
C1024 C 0.7936 0.41678 0.81324 0.0
H1025 H 0.8257 0.65588 0.76793 0.0
H1026 H 0.8295 0.5934 0.77726 0.0
C1027 C 0.79263 0.38039 0.81339 0.0
C1028 C 0.77706 0.47436 0.78785 0.0
H1029 H 0.79527 0.54584 0.73957 0.0
C1030 C 0.76635 0.49202 0.81855 0.0
C1031 C 0.78824 0.49432 0.75927 0.0
C1032 C 0.80194 0.47762 0.72606 0.0
C1033 C 0.76615 0.52857 0.82135 0.0
C1034 C 0.77635 0.5485 0.79244 0.0
C1035 C 0.78737 0.53087 0.76185 0.0
C1036 C 0.77554 0.58751 0.79298 0.0
C1037 C 0.75559 0.54542 0.85559 0.0
C1038 C 0.74442 0.60576 0.80004 0.0
C1039 C 0.74256 0.64179 0.79556 0.0
C1040 C 0.7717 0.66052 0.78384 0.0
C1041 C 0.80324 0.64256 0.77849 0.0
C1042 C 0.80519 0.6066 0.78312 0.0
H1043 H 0.75921 0.52758 0.87762 0.0
H1044 H 0.77086 0.56942 0.86099 0.0
H1045 H 0.72751 0.55232 0.85457 0.0
H1046 H 0.72083 0.59189 0.80672 0.0
H1047 H 0.71744 0.65447 0.79818 0.0
H1048 H 0.30334 0.15753 0.08316 0.0
H1049 H 0.29153 0.09734 0.06733 0.0
H1050 H 0.22973 0.08668 0.16046 0.0
H1051 H 0.23787 0.14749 0.17386 0.0
H1052 H 0.2889 1.03227 0.08247 0.0
H1053 H 0.15377 0.08415 0.09083 0.0
H1054 H 0.19133 0.11092 0.09946 0.0
H1055 H 0.17543 0.08179 0.13203 0.0
C1056 C 0.28848 0.14203 0.10117 0.0
C1057 C 0.27073 0.15801 0.12933 0.0
C1058 C 0.28157 0.10745 0.09195 0.0
C1059 C 0.25793 0.08803 0.11163 0.0
C1060 C 0.24662 0.10171 0.14389 0.0
H1061 H 0.18886 0.89582 1.00217 0.0
H1062 H 0.21198 0.93376 0.04872 0.0
C1063 C 0.25227 0.13671 0.15226 0.0
C1064 C 0.24028 0.05742 0.09504 0.0
H1065 H 0.16046 1.02927 0.06609 0.0
C1066 C 0.26078 1.03138 0.07918 0.0
C1067 C 0.20351 0.05657 0.09012 0.0
C1068 C 0.17973 0.08497 0.1037 0.0
C1069 C 0.24588 1.00559 0.05736 0.0
C1070 C 0.20915 1.00492 0.05248 0.0
C1071 C 0.18854 1.02981 0.06983 0.0
C1072 C 0.19174 0.98095 1.027 0.0
C1073 C 0.26994 0.98077 1.03815 0.0
C1074 C 0.17041 0.99442 1.00068 0.0
C1075 C 0.156 0.97257 0.9749 0.0
C1076 C 0.16307 0.93701 0.97486 0.0
C1077 C 0.18307 0.92329 1.00189 0.0
C1078 C 0.19674 0.94499 1.02813 0.0
H1079 H 0.29726 0.99052 1.03764 0.0
H1080 H 0.27003 0.95559 0.05153 0.0
H1081 H 0.2612 0.97622 1.01087 0.0
H1082 H 0.16598 1.02206 0.99929 0.0
H1083 H 0.14109 0.98367 0.95396 0.0
H1084 H 0.95539 0.84296 0.1541 0.0
H1085 H 1.00758 0.82222 0.12336 0.0
H1086 H 0.94919 0.73503 0.08189 0.0
H1087 H 0.89683 0.75606 0.11254 0.0
H1088 H 0.05012 0.76349 0.1112 0.0
H1089 H 0.96784 0.79267 0.99628 0.0
H1090 H 0.9541 0.80299 1.04017 0.0
H1091 H 0.95108 0.75918 1.02335 0.0
C1092 C 0.95403 0.81861 0.13954 0.0
C1093 C 0.92181 0.80159 0.13477 0.0
C1094 C 0.98391 0.80683 0.12183 0.0
C1095 C 0.98207 0.77771 0.0993 0.0
C1096 C 0.95102 0.75814 0.09831 0.0
H1097 H 0.09656 0.75882 0.90847 0.0
H1098 H 0.0706 0.73377 0.96023 0.0
C1099 C 0.92106 0.77016 0.11574 0.0
C1100 C 1.01013 0.77163 0.07286 0.0
H1101 H 1.02525 0.77636 0.98548 0.0
C1102 C 0.04469 0.76576 0.08362 0.0
C1103 C 1.00322 0.77497 1.03685 0.0
C1104 C 0.96717 0.78312 1.02337 0.0
C1105 C 0.07241 0.76339 0.05935 0.0
C1106 C 0.06549 0.76757 1.02343 0.0
C1107 C 1.03077 0.77252 1.01283 0.0
C1108 C 0.09333 0.77131 0.99633 0.0
C1109 C 0.10875 0.75663 0.07253 0.0
C1110 C 0.11823 0.79805 0.99964 0.0
C1111 C 0.13441 0.81134 0.96995 0.0
C1112 C 0.12466 0.7991 0.93658 0.0
C1113 C 0.10469 0.76864 0.93386 0.0
C1114 C 0.08927 0.75471 0.96356 0.0
H1115 H 0.108 0.74078 0.09633 0.0
H1116 H 0.12505 0.74313 0.05251 0.0
H1117 H 0.12139 0.7817 0.07964 0.0
H1118 H 0.12185 0.8117 1.02431 0.0
H1119 H 0.14949 0.83503 0.97283 0.0
H1120 H 0.74505 0.90835 0.09194 0.0
H1121 H 0.73225 0.9661 0.07181 0.0
H1122 H 0.80021 1.00993 0.15083 0.0
H1123 H 0.8154 0.95153 0.16905 0.0
H1124 H 0.71244 1.02865 0.08361 0.0
H1125 H 0.85719 1.03222 0.06877 0.0
H1126 H 0.83491 0.99483 0.08491 0.0
H1127 H 0.84203 1.03227 0.11292 0.0
C1128 C 0.75595 0.93036 0.10624 0.0
C1129 C 0.78187 0.92526 0.13149 0.0
C1130 C 0.74886 0.96359 0.09442 0.0
C1131 C 0.76685 0.99248 0.10835 0.0
C1132 C 0.78739 0.98795 0.13834 0.0
H1133 H 0.81088 0.17289 0.97835 0.0
H1134 H 0.79065 0.14469 1.03139 0.0
C1135 C 0.79529 0.95445 0.14956 0.0
C1136 C 0.76846 1.02493 0.08764 0.0
H1137 H 0.82536 0.07423 1.04067 0.0
C1138 C 0.73721 1.03897 0.07478 0.0
C1139 C 0.80077 1.0385 0.07557 0.0
C1140 C 0.83562 1.02359 0.08594 0.0
C1141 C 0.7374 0.06457 0.04914 0.0
C1142 C 0.76957 0.07699 1.0364 0.0
C1143 C 0.80071 0.06482 0.0508 0.0
C1144 C 0.77219 0.09828 1.00464 0.0
C1145 C 0.7033 0.07721 1.03468 0.0
C1146 C 0.76724 0.0822 0.97187 0.0
C1147 C 0.77924 0.09799 0.94163 0.0
C1148 C 0.79597 0.13047 0.94348 0.0
C1149 C 0.7975 0.14818 0.97591 0.0
C1150 C 0.7862 0.13197 1.00634 0.0
H1151 H 0.68093 0.07089 0.0519 0.0
H1152 H 0.70422 0.10567 1.03108 0.0
H1153 H 0.69878 0.06467 1.00877 0.0
H1154 H 0.75699 0.05604 0.96994 0.0
H1155 H 0.77831 0.08337 0.91724 0.0
H1156 H 0.15684 0.31195 0.09381 0.0
H1157 H 0.10014 0.30117 0.0676 0.0
H1158 H 0.06505 0.25391 0.16234 0.0
H1159 H 0.12272 0.26223 0.18743 0.0
H1160 H 0.06071 0.20887 0.11223 0.0
H1161 H 1.00143 0.32801 0.06389 0.0
H1162 H 0.04565 0.32588 0.04888 0.0
H1163 H 0.03668 0.32931 0.09503 0.0
C1164 C 0.13692 0.29999 0.10928 0.0
C1165 C 0.14525 0.28596 0.14161 0.0
C1166 C 0.10407 0.29425 0.09448 0.0
C1167 C 0.07835 0.27588 0.11262 0.0
C1168 C 0.08467 0.26748 0.14746 0.0
H1169 H 0.89745 0.21442 0.98742 0.0
H1170 H 0.93311 0.23771 1.03506 0.0
C1171 C 0.11778 0.27268 0.16196 0.0
C1172 C 0.04861 0.25973 0.09331 0.0
H1173 H 0.98876 0.27502 1.02983 0.0
C1174 C 0.04442 0.22355 0.09482 0.0
C1175 C 1.02698 0.27859 0.07075 0.0
C1176 C 1.02772 0.31763 0.06989 0.0
C1177 C 1.02056 0.20568 0.07326 0.0
C1178 C 1.00127 0.22422 0.0485 0.0
C1179 C 1.00407 0.26056 0.04826 0.0
C1180 C 0.97851 0.20664 1.02216 0.0
C1181 C 1.01631 0.16714 0.07738 0.0
C1182 C 0.99177 0.18065 0.99943 0.0
C1183 C 0.97105 0.16668 0.97247 0.0
C1184 C 0.93714 0.1792 0.9674 0.0
C1185 C 0.92365 0.20443 0.99071 0.0
C1186 C 0.94402 0.21785 1.01789 0.0
H1187 H 1.02262 0.15953 0.10436 0.0
H1188 H 0.9893 0.15847 0.07126 0.0
H1189 H 0.03463 0.15335 0.05948 0.0
H1190 H 1.01857 0.17214 1.00163 0.0
H1191 H 0.98212 0.14761 0.95454 0.0
H1192 H 0.93718 0.9459 0.20565 0.0
H1193 H 0.98223 0.99088 0.20481 0.0
H1194 H 0.96398 1.00521 0.09528 0.0
H1195 H 0.91886 0.96019 0.09564 0.0
H1196 H 0.04404 0.98843 0.15228 0.0
H1197 H 0.95794 0.10462 0.1492 0.0
H1198 H 0.94358 0.0642 0.16739 0.0
H1199 H 0.94752 0.06802 0.12111 0.0
C1200 C 0.94255 0.95876 0.18141 0.0
C1201 C 0.92456 0.94948 0.15066 0.0
C1202 C 0.96829 0.98432 0.18101 0.0
C1203 C 0.97606 1.0012 0.15004 0.0
C1204 C 0.958 0.9924 0.11941 0.0
H1205 H 0.12209 0.16355 0.09961 0.0
H1206 H 0.07618 0.11949 0.09846 0.0
C1207 C 0.93243 0.96664 0.11967 0.0
C1208 C 1.00398 1.02728 0.14955 0.0
H1209 H 1.01868 0.11421 0.14713 0.0
C1210 C 0.03866 1.01596 0.1511 0.0
C1211 C 0.99647 0.06294 0.14778 0.0
C1212 C 0.95939 0.07595 0.14643 0.0
C1213 C 0.06637 1.03967 0.15071 0.0
C1214 C 0.05887 0.07543 0.14954 0.0
C1215 C 1.02415 0.0867 0.14785 0.0
C1216 C 0.08679 0.10164 0.15033 0.0
C1217 C 0.10339 1.02635 0.15095 0.0
C1218 C 0.10767 0.10603 0.18002 0.0
C1219 C 0.13413 0.13086 0.18073 0.0
C1220 C 0.13995 0.15179 0.15175 0.0
C1221 C 0.11846 0.14769 0.12227 0.0
C1222 C 0.09211 0.12272 0.12158 0.0
H1223 H 0.10466 0.99815 0.14461 0.0
H1224 H 0.11971 1.04039 0.13193 0.0
H1225 H 0.11481 1.03078 0.17722 0.0
H1226 H 0.10346 0.09026 0.20265 0.0
H1227 H 0.15016 0.13341 0.20388 0.0
H1228 H 0.14937 0.97792 0.85831 0.0
H1229 H 0.11819 1.0284 0.83666 0.0
H1230 H 0.07107 0.96416 0.75619 0.0
H1231 H 0.10112 0.91353 0.77888 0.0
H1232 H 0.1033 0.06648 0.77793 0.0
H1233 H 0.98839 0.98815 0.81704 0.0
H1234 H 1.03247 0.97473 0.82552 0.0
H1235 H 1.01381 0.96834 0.78283 0.0
C1236 C 0.13352 0.9749 0.83507 0.0
C1237 C 0.12728 0.94175 0.82044 0.0
C1238 C 0.11551 1.00378 0.82281 0.0
C1239 C 0.09127 0.99993 0.79552 0.0
C1240 C 0.08879 0.96764 0.77795 0.0
H1241 H 0.90074 0.11116 0.77016 0.0
H1242 H 0.95394 0.08457 0.74731 0.0
C1243 C 0.10619 0.9387 0.79069 0.0
C1244 C 0.06482 1.02755 0.7895 0.0
H1245 H 0.97726 0.04297 0.79555 0.0
C1246 C 0.07567 0.0613 0.78136 0.0
C1247 C 1.02872 1.02107 0.79451 0.0
C1248 C 1.0151 0.98626 0.8058 0.0
C1249 C 0.05141 0.08856 0.77804 0.0
C1250 C 1.01539 0.08196 0.78322 0.0
C1251 C 1.00471 0.04809 0.79078 0.0
C1252 C 0.98811 0.10961 0.78505 0.0
C1253 C 0.06461 0.12412 0.76918 0.0
C1254 C 0.99 0.13584 0.81103 0.0
C1255 C 0.95946 0.15217 0.82316 0.0
C1256 C 0.92668 0.14122 0.81061 0.0
C1257 C 0.92563 0.12013 0.78035 0.0
C1258 C 0.95614 0.10434 0.76769 0.0
H1259 H 0.08932 0.12252 0.75402 0.0
H1260 H 0.04504 0.13864 0.75402 0.0
H1261 H 0.07011 0.13895 0.79367 0.0
H1262 H 1.01408 0.14049 0.82512 0.0
H1263 H 0.96109 0.16829 0.84661 0.0
H1264 H 0.73658 0.42054 0.48027 0.0
H1265 H 0.76125 0.45406 0.52887 0.0
H1266 H 0.66224 0.50477 0.54541 0.0
H1267 H 0.63702 0.471 0.49653 0.0
H1268 H 0.72083 0.54934 0.5356 0.0
H1269 H 0.7486 0.4522 0.63643 0.0
H1270 H 0.76275 0.44062 0.59302 0.0
H1271 H 0.71695 0.44485 0.60211 0.0
C1272 C 0.71984 0.43865 0.49431 0.0
C1273 C 0.68484 0.44343 0.48415 0.0
C1274 C 0.73395 0.45745 0.52246 0.0
C1275 C 0.71351 0.48155 0.54111 0.0
C1276 C 0.67837 0.48597 0.53158 0.0
H1277 H 0.75256 0.63971 0.69126 0.0
H1278 H 0.73949 0.58106 0.67246 0.0
C1279 C 0.66403 0.4668 0.50357 0.0
C1280 C 0.7301 0.50514 0.56736 0.0
H1281 H 0.7744 0.50822 0.64489 0.0
C1282 C 0.73227 0.54035 0.55959 0.0
C1283 C 0.74534 0.49327 0.59852 0.0
C1284 C 0.74315 0.45571 0.6083 0.0
C1285 C 0.74969 0.56398 0.5817 0.0
C1286 C 0.76543 0.55218 0.61263 0.0
C1287 C 0.76275 0.51706 0.62095 0.0
C1288 C 0.78299 0.57726 0.63669 0.0
C1289 C 0.75145 0.60152 0.5715 0.0
C1290 C 0.81435 0.59296 0.62643 0.0
C1291 C 0.82192 0.62699 0.63749 0.0
C1292 C 0.79722 0.64596 0.65734 0.0
C1293 C 0.7711 0.62701 0.67442 0.0
C1294 C 0.76345 0.59298 0.66355 0.0
H1295 H 0.73281 0.60746 0.55032 0.0
H1296 H 0.7458 0.61888 0.59418 0.0
H1297 H 0.77823 0.60751 0.56227 0.0
H1298 H 0.83022 0.58102 0.60611 0.0
H1299 H 0.84309 0.64039 0.62468 0.0
H1300 H 0.57359 0.28652 0.4104 0.0
H1301 H 0.54833 0.26141 0.46188 0.0
H1302 H 0.63945 0.29162 0.52122 0.0
H1303 H 0.66366 0.31929 0.46967 0.0
H1304 H 0.55039 0.22329 0.51572 0.0
H1305 H 0.57359 0.35934 0.56254 0.0
H1306 H 0.58581 0.34508 0.51936 0.0
H1307 H 0.61176 0.3332 0.55633 0.0
C1308 C 0.58931 0.28598 0.43382 0.0
C1309 C 0.61992 0.306 0.43631 0.0
C1310 C 0.57453 0.27195 0.46366 0.0
C1311 C 0.59084 0.27666 0.4962 0.0
C1312 C 0.62533 0.28946 0.49687 0.0
H1313 H 0.44156 0.3096 0.67067 0.0
H1314 H 0.49608 0.28543 0.64636 0.0
C1315 C 0.63976 0.30438 0.46701 0.0
C1316 C 0.5688 0.27486 0.52841 0.0
H1317 H 0.53109 0.32789 0.59051 0.0
C1318 C 0.54689 0.24589 0.53265 0.0
C1319 C 0.5638 0.30439 0.55076 0.0
C1320 C 0.58473 0.33736 0.54703 0.0
C1321 C 0.5186 0.24678 0.55614 0.0
C1322 C 0.51239 0.27706 0.57652 0.0
C1323 C 0.53618 0.30461 0.57498 0.0
C1324 C 0.4779 0.28409 0.593 0.0
C1325 C 0.49404 0.21627 0.55736 0.0
C1326 C 0.44962 0.29104 0.5712 0.0
C1327 C 0.41914 0.30568 0.58478 0.0
C1328 C 0.4155 0.31287 0.6207 0.0
C1329 C 0.44307 0.30376 0.64297 0.0
C1330 C 0.47428 0.28998 0.62913 0.0
H1331 H 0.50687 0.19205 0.54789 0.0
H1332 H 0.48423 0.21255 0.58428 0.0
H1333 H 0.47125 0.22121 0.54036 0.0
H1334 H 0.45211 0.28773 0.54319 0.0
H1335 H 0.39953 0.31397 0.5666 0.0
H1336 H 0.29271 0.46325 0.67382 0.0
H1337 H 0.26921 0.51597 0.64897 0.0
H1338 H 0.21998 0.45409 0.56771 0.0
H1339 H 0.23984 0.40215 0.59492 0.0
H1340 H 0.29702 0.53368 0.59616 0.0
H1341 H 0.16049 0.53165 0.55507 0.0
H1342 H 0.17567 0.50269 0.58798 0.0
H1343 H 0.17786 0.49044 0.5422 0.0
C1344 C 0.27421 0.46082 0.65257 0.0
C1345 C 0.26909 0.42862 0.63558 0.0
C1346 C 0.26146 0.49121 0.6376 0.0
C1347 C 0.2437 0.48973 0.60536 0.0
C1348 C 0.23313 0.45691 0.5925 0.0
H1349 H 0.29184 0.5654 0.41212 0.0
H1350 H 0.26369 0.53903 0.46204 0.0
C1351 C 0.24451 0.42671 0.60841 0.0
C1352 C 0.24418 0.52022 0.58151 0.0
H1353 H 0.20256 0.5546 0.51122 0.0
C1354 C 0.27565 0.53898 0.57863 0.0
C1355 C 0.2167 0.52778 0.55801 0.0
C1356 C 0.18074 0.51221 0.56137 0.0
C1357 C 0.28137 0.56248 0.55174 0.0
C1358 C 0.25514 0.56741 0.52646 0.0
C1359 C 0.22287 0.55054 0.53034 0.0
C1360 C 0.26309 0.58603 0.49373 0.0
C1361 C 0.31651 0.5801 0.54915 0.0
C1362 C 0.27031 0.6218 0.49402 0.0
C1363 C 0.28641 0.6371 0.46518 0.0
C1364 C 0.29579 0.61674 0.43577 0.0
C1365 C 0.28523 0.58177 0.43437 0.0
C1366 C 0.26903 0.56662 0.46297 0.0
H1367 H 0.33514 0.57125 0.56922 0.0
H1368 H 0.32814 0.57511 0.523 0.0
H1369 H 0.31317 0.60852 0.55259 0.0
H1370 H 0.26572 0.63737 0.51739 0.0
H1371 H 0.29428 0.66404 0.46724 0.0
H1372 H 0.48276 0.63631 0.45001 0.0
H1373 H 0.52564 0.66129 0.49091 0.0
H1374 H 0.45396 0.7438 0.51753 0.0
H1375 H 0.41149 0.7195 0.47654 0.0
H1376 H 0.51774 0.76863 0.50104 0.0
H1377 H 0.53055 0.66384 0.59648 0.0
H1378 H 0.53764 0.64901 0.55241 0.0
H1379 H 0.49534 0.66498 0.56532 0.0
C1380 C 0.47593 0.65932 0.46516 0.0
C1381 C 0.44382 0.67594 0.46 0.0
C1382 C 0.5004 0.67358 0.48854 0.0
C1383 C 0.4929 0.70432 0.50745 0.0
C1384 C 0.46035 0.72015 0.50319 0.0
H1385 H 0.64076 0.76715 0.66701 0.0
H1386 H 0.58411 0.76472 0.6383 0.0
C1387 C 0.43609 0.70614 0.47976 0.0
C1388 C 0.51968 0.72137 0.52991 0.0
H1389 H 0.57502 0.70744 0.59757 0.0
C1390 C 0.52998 0.75541 0.52245 0.0
C1391 C 0.5352 0.7044 0.55819 0.0
C1392 C 0.52389 0.66868 0.56885 0.0
C1393 C 0.55645 0.77237 0.54159 0.0
C1394 C 0.57336 0.75462 0.56854 0.0
C1395 C 0.56204 0.72113 0.5769 0.0
C1396 C 0.60514 0.7683 0.58615 0.0
C1397 C 0.56621 0.80896 0.53255 0.0
C1398 C 0.6355 0.77414 0.56656 0.0
C1399 C 0.66801 0.77591 0.58295 0.0
C1400 C 0.67066 0.77092 0.61905 0.0
C1401 C 0.63981 0.77044 0.63906 0.0
C1402 C 0.60729 0.76879 0.62266 0.0
H1403 H 0.54375 0.82276 0.521 0.0
H1404 H 0.57543 0.82392 0.55583 0.0
H1405 H 0.58753 0.80827 0.51293 0.0
H1406 H 0.63461 0.77375 0.53836 0.0
H1407 H 0.6912 0.77711 0.56682 0.0
H1408 H 0.68285 0.60332 0.61231 0.0
H1409 H 0.63461 0.56149 0.61461 0.0
H1410 H 0.58986 0.61889 0.70156 0.0
H1411 H 0.63844 0.6595 0.70039 0.0
H1412 H 0.58656 0.55243 0.71262 0.0
H1413 H 0.53758 0.57873 0.57989 0.0
H1414 H 0.58174 0.5633 0.58017 0.0
H1415 H 0.57133 0.60447 0.6005 0.0
C1416 C 0.66268 0.60684 0.63185 0.0
C1417 C 0.66418 0.6346 0.65606 0.0
C1418 C 0.63512 0.58311 0.63306 0.0
C1419 C 0.60838 0.58751 0.65787 0.0
C1420 C 0.61023 0.61502 0.68224 0.0
H1421 H 0.40103 0.50107 0.63926 0.0
H1422 H 0.45245 0.53904 0.64229 0.0
C1423 C 0.63798 0.63821 0.6815 0.0
C1424 C 0.57801 0.56397 0.65864 0.0
H1425 H 0.50983 0.53346 0.61005 0.0
C1426 C 0.56967 0.54829 0.69024 0.0
C1427 C 0.55576 0.55927 0.62959 0.0
C1428 C 0.56179 0.5776 0.59574 0.0
C1429 C 0.53935 0.52835 0.69379 0.0
C1430 C 0.51775 0.52252 0.66433 0.0
C1431 C 0.5264 0.53787 0.63261 0.0
C1432 C 0.48597 0.50072 0.66557 0.0
C1433 C 0.53033 0.51501 0.72939 0.0
C1434 C 0.48761 0.46686 0.67805 0.0
C1435 C 0.45799 0.44587 0.67759 0.0
C1436 C 0.42678 0.4579 0.66325 0.0
C1437 C 0.425 0.49152 0.65047 0.0
C1438 C 0.45431 0.51301 0.6521 0.0
H1439 H 0.54199 0.53156 0.75041 0.0
H1440 H 0.50166 0.51393 0.73357 0.0
H1441 H 0.54117 0.48856 0.732 0.0
H1442 H 0.51195 0.45629 0.68733 0.0
H1443 H 0.45987 0.41967 0.68702 0.0
H1444 H 0.41133 0.59393 0.27239 0.0
H1445 H 0.46971 0.57531 0.25616 0.0
H1446 H 0.51328 0.66122 0.31537 0.0
H1447 H 0.45448 0.67827 0.33389 0.0
H1448 H 0.53297 0.58576 0.23372 0.0
H1449 H 0.53808 0.58568 0.3789 0.0
H1450 H 0.49954 0.59852 0.35598 0.0
H1451 H 0.53623 0.62765 0.36005 0.0
C1452 C 0.43319 0.61019 0.28024 0.0
C1453 C 0.42842 0.63653 0.30569 0.0
C1454 C 0.46686 0.59916 0.27131 0.0
C1455 C 0.49616 0.61537 0.28654 0.0
C1456 C 0.49112 0.64698 0.30494 0.0
H1457 H 0.67263 0.48538 0.34725 0.0
H1458 H 0.64744 0.53824 0.32327 0.0
C1459 C 0.45728 0.65744 0.31471 0.0
C1460 C 0.52943 0.59521 0.28919 0.0
H1461 H 0.57976 0.55378 0.34893 0.0
C1462 C 0.54364 0.57938 0.25893 0.0
C1463 C 0.54349 0.58636 0.3221 0.0
C1464 C 0.52849 0.60014 0.35613 0.0
C1465 C 0.56983 0.55385 0.26081 0.0
C1466 C 0.58244 0.544 0.29372 0.0
C1467 C 0.57024 0.56156 0.32369 0.0
C1468 C 0.60356 0.51208 0.29872 0.0
C1469 C 0.58286 0.53663 0.22767 0.0
C1470 C 0.58827 0.47958 0.29157 0.0
C1471 C 0.60249 0.44954 0.30548 0.0
C1472 C 0.63238 0.45129 0.32656 0.0
C1473 C 0.64983 0.48321 0.33066 0.0
C1474 C 0.6353 0.51347 0.31715 0.0
H1475 H 0.57938 0.55364 0.20498 0.0
H1476 H 0.61088 0.52964 0.22984 0.0
H1477 H 0.56771 0.51249 0.22265 0.0
H1478 H 0.56355 0.47774 0.27798 0.0
H1479 H 0.58856 0.4253 0.30212 0.0
loop_
_geom_bond_atom_site_label_1
_geom_bond_atom_site_label_2
_geom_bond_distance
_geom_bond_site_symmetry_2
_ccdc_geom_bond_type
Mn0 O6 2.111 . S
Mn0 O11 2.150 . S
Mn0 O13 2.130 . S
Mn0 O21 2.281 . S
Mn0 O22 2.374 . S
Mn1 O2 2.126 . S
Mn1 O7 2.116 . S
Mn1 O12 2.129 . S
Mn1 O15 2.147 . S
Mn1 O19 2.267 . S
Mn1 O21 2.247 . S
O2 Mn1 2.126 . S
O2 C20 1.255 . S
O3 Mn4 2.113 . S
O3 C20 1.238 . S
Mn4 O3 2.113 . S
Mn4 O16 2.101 . S
Mn4 O18 2.372 . S
Mn4 O19 2.265 . S
C5 O6 1.258 . S
C5 O7 1.263 . S
O6 Mn0 2.111 . S
O6 C5 1.258 . S
O7 Mn1 2.116 . S
O7 C5 1.263 . S
P8 O13 1.496 . S
C9 O15 1.252 . S
C9 O16 1.259 . S
C10 O18 1.252 . S
C10 O19 1.273 . S
O11 Mn0 2.150 . S
O11 C17 1.271 . S
O12 Mn1 2.129 . S
O12 C17 1.250 . S
O13 Mn0 2.130 . S
O13 P8 1.496 . S
C14 O21 1.283 . S
C14 O22 1.263 . S
O15 Mn1 2.147 . S
O15 C9 1.252 . S
O16 Mn4 2.101 . S
O16 C9 1.259 . S
C17 O11 1.271 . S
C17 O12 1.250 . S
O18 Mn4 2.372 . S
O18 C10 1.252 . S
O19 Mn1 2.267 . S
O19 Mn4 2.265 . S
O19 C10 1.273 . S
C20 O2 1.255 . S
C20 O3 1.238 . S
O21 Mn0 2.281 . S
O21 Mn1 2.247 . S
O21 C14 1.283 . S
O22 Mn0 2.374 . S
O22 C14 1.263 . S
Mn23 O29 2.111 . S
Mn23 O34 2.150 . S
Mn23 O36 2.130 . S
Mn23 O44 2.281 . S
Mn23 O45 2.374 . S
Mn24 O25 2.126 . S
Mn24 O30 2.116 . S
Mn24 O35 2.129 . S
Mn24 O38 2.147 . S
Mn24 O42 2.267 . S
Mn24 O44 2.247 . S
O25 Mn24 2.126 . S
O25 C43 1.255 . S
O26 Mn27 2.113 . S
O26 C43 1.238 . S
Mn27 O26 2.113 . S
Mn27 O39 2.101 . S
Mn27 O41 2.372 . S
Mn27 O42 2.265 . S
C28 O29 1.258 . S
C28 O30 1.263 . S
O29 Mn23 2.111 . S
O29 C28 1.258 . S
O30 Mn24 2.116 . S
O30 C28 1.263 . S
P31 O36 1.496 . S
C32 O38 1.252 . S
C32 O39 1.259 . S
C33 O41 1.252 . S
C33 O42 1.273 . S
O34 Mn23 2.150 . S
O34 C40 1.271 . S
O35 Mn24 2.129 . S
O35 C40 1.250 . S
O36 Mn23 2.130 . S
O36 P31 1.496 . S
C37 O44 1.283 . S
C37 O45 1.263 . S
O38 Mn24 2.147 . S
O38 C32 1.252 . S
O39 Mn27 2.101 . S
O39 C32 1.259 . S
C40 O34 1.271 . S
C40 O35 1.250 . S
O41 Mn27 2.372 . S
O41 C33 1.252 . S
O42 Mn24 2.267 . S
O42 Mn27 2.265 . S
O42 C33 1.273 . S
C43 O25 1.255 . S
C43 O26 1.238 . S
O44 Mn23 2.281 . S
O44 Mn24 2.247 . S
O44 C37 1.283 . S
O45 Mn23 2.374 . S
O45 C37 1.263 . S
Mn46 O52 2.111 . S
Mn46 O57 2.150 . S
Mn46 O59 2.130 . S
Mn46 O67 2.281 . S
Mn46 O68 2.374 . S
Mn47 O48 2.126 . S
Mn47 O53 2.116 . S
Mn47 O58 2.129 . S
Mn47 O61 2.147 . S
Mn47 O65 2.267 . S
Mn47 O67 2.247 . S
O48 Mn47 2.126 . S
O48 C66 1.255 . S
O49 Mn50 2.113 . S
O49 C66 1.238 . S
Mn50 O49 2.113 . S
Mn50 O62 2.101 . S
Mn50 O64 2.372 . S
Mn50 O65 2.265 . S
C51 O52 1.258 . S
C51 O53 1.263 . S
O52 Mn46 2.111 . S
O52 C51 1.258 . S
O53 Mn47 2.116 . S
O53 C51 1.263 . S
P54 O59 1.496 . S
C55 O61 1.252 . S
C55 O62 1.259 . S
C56 O64 1.252 . S
C56 O65 1.273 . S
O57 Mn46 2.150 . S
O57 C63 1.271 . S
O58 Mn47 2.129 . S
O58 C63 1.250 . S
O59 Mn46 2.130 . S
O59 P54 1.496 . S
C60 O67 1.283 . S
C60 O68 1.263 . S
O61 Mn47 2.147 . S
O61 C55 1.252 . S
O62 Mn50 2.101 . S
O62 C55 1.259 . S
C63 O57 1.271 . S
C63 O58 1.250 . S
O64 Mn50 2.372 . S
O64 C56 1.252 . S
O65 Mn47 2.267 . S
O65 Mn50 2.265 . S
O65 C56 1.273 . S
C66 O48 1.255 . S
C66 O49 1.238 . S
O67 Mn46 2.281 . S
O67 Mn47 2.247 . S
O67 C60 1.283 . S
O68 Mn46 2.374 . S
O68 C60 1.263 . S
Mn69 O75 2.111 . S
Mn69 O80 2.150 . S
Mn69 O82 2.130 . S
Mn69 O90 2.281 . S
Mn69 O91 2.374 . S
Mn70 O71 2.126 . S
Mn70 O76 2.116 . S
Mn70 O81 2.129 . S
Mn70 O84 2.147 . S
Mn70 O88 2.267 . S
Mn70 O90 2.247 . S
O71 Mn70 2.126 . S
O71 C89 1.255 . S
O72 Mn73 2.113 . S
O72 C89 1.238 . S
Mn73 O72 2.113 . S
Mn73 O85 2.101 . S
Mn73 O87 2.372 . S
Mn73 O88 2.265 . S
C74 O75 1.258 . S
C74 O76 1.263 . S
O75 Mn69 2.111 . S
O75 C74 1.258 . S
O76 Mn70 2.116 . S
O76 C74 1.263 . S
P77 O82 1.496 . S
C78 O84 1.252 . S
C78 O85 1.259 . S
C79 O87 1.252 . S
C79 O88 1.273 . S
O80 Mn69 2.150 . S
O80 C86 1.271 . S
O81 Mn70 2.129 . S
O81 C86 1.250 . S
O82 Mn69 2.130 . S
O82 P77 1.496 . S
C83 O90 1.283 . S
C83 O91 1.263 . S
O84 Mn70 2.147 . S
O84 C78 1.252 . S
O85 Mn73 2.101 . S
O85 C78 1.259 . S
C86 O80 1.271 . S
C86 O81 1.250 . S
O87 Mn73 2.372 . S
O87 C79 1.252 . S
O88 Mn70 2.267 . S
O88 Mn73 2.265 . S
O88 C79 1.273 . S
C89 O71 1.255 . S
C89 O72 1.238 . S
O90 Mn69 2.281 . S
O90 Mn70 2.247 . S
O90 C83 1.283 . S
O91 Mn69 2.374 . S
O91 C83 1.263 . S
Mn92 O98 2.111 . S
Mn92 O103 2.150 . S
Mn92 O105 2.130 . S
Mn92 O113 2.281 . S
Mn92 O114 2.374 . S
Mn93 O94 2.126 . S
Mn93 O99 2.116 . S
Mn93 O104 2.129 . S
Mn93 O107 2.147 . S
Mn93 O111 2.267 . S
Mn93 O113 2.247 . S
O94 Mn93 2.126 . S
O94 C112 1.255 . S
O95 Mn96 2.113 . S
O95 C112 1.238 . S
Mn96 O95 2.113 . S
Mn96 O108 2.101 . S
Mn96 O110 2.372 . S
Mn96 O111 2.265 . S
C97 O98 1.258 . S
C97 O99 1.263 . S
O98 Mn92 2.111 . S
O98 C97 1.258 . S
O99 Mn93 2.116 . S
O99 C97 1.263 . S
P100 O105 1.496 . S
C101 O107 1.252 . S
C101 O108 1.259 . S
C102 O110 1.252 . S
C102 O111 1.273 . S
O103 Mn92 2.150 . S
O103 C109 1.271 . S
O104 Mn93 2.129 . S
O104 C109 1.250 . S
O105 Mn92 2.130 . S
O105 P100 1.496 . S
C106 O113 1.283 . S
C106 O114 1.263 . S
O107 Mn93 2.147 . S
O107 C101 1.252 . S
O108 Mn96 2.101 . S
O108 C101 1.259 . S
C109 O103 1.271 . S
C109 O104 1.250 . S
O110 Mn96 2.372 . S
O110 C102 1.252 . S
O111 Mn93 2.267 . S
O111 Mn96 2.265 . S
O111 C102 1.273 . S
C112 O94 1.255 . S
C112 O95 1.238 . S
O113 Mn92 2.281 . S
O113 Mn93 2.247 . S
O113 C106 1.283 . S
O114 Mn92 2.374 . S
O114 C106 1.263 . S
Mn115 O121 2.111 . S
Mn115 O126 2.150 . S
Mn115 O128 2.130 . S
Mn115 O136 2.281 . S
Mn115 O137 2.374 . S
Mn116 O117 2.126 . S
Mn116 O122 2.116 . S
Mn116 O127 2.129 . S
Mn116 O130 2.147 . S
Mn116 O134 2.267 . S
Mn116 O136 2.247 . S
O117 Mn116 2.126 . S
O117 C135 1.255 . S
O118 Mn119 2.113 . S
O118 C135 1.238 . S
Mn119 O118 2.113 . S
Mn119 O131 2.101 . S
Mn119 O133 2.372 . S
Mn119 O134 2.265 . S
C120 O121 1.258 . S
C120 O122 1.263 . S
O121 Mn115 2.111 . S
O121 C120 1.258 . S
O122 Mn116 2.116 . S
O122 C120 1.263 . S
P123 O128 1.496 . S
C124 O130 1.252 . S
C124 O131 1.259 . S
C125 O133 1.252 . S
C125 O134 1.273 . S
O126 Mn115 2.150 . S
O126 C132 1.271 . S
O127 Mn116 2.129 . S
O127 C132 1.250 . S
O128 Mn115 2.130 . S
O128 P123 1.496 . S
C129 O136 1.283 . S
C129 O137 1.263 . S
O130 Mn116 2.147 . S
O130 C124 1.252 . S
O131 Mn119 2.101 . S
O131 C124 1.259 . S
C132 O126 1.271 . S
C132 O127 1.250 . S
O133 Mn119 2.372 . S
O133 C125 1.252 . S
O134 Mn116 2.267 . S
O134 Mn119 2.265 . S
O134 C125 1.273 . S
C135 O117 1.255 . S
C135 O118 1.238 . S
O136 Mn115 2.281 . S
O136 Mn116 2.247 . S
O136 C129 1.283 . S
O137 Mn115 2.374 . S
O137 C129 1.263 . S
Mn138 O144 2.111 . S
Mn138 O149 2.150 . S
Mn138 O151 2.130 . S
Mn138 O159 2.281 . S
Mn138 O160 2.374 . S
Mn139 O140 2.126 . S
Mn139 O145 2.116 . S
Mn139 O150 2.129 . S
Mn139 O153 2.147 . S
Mn139 O157 2.267 . S
Mn139 O159 2.247 . S
O140 Mn139 2.126 . S
O140 C158 1.255 . S
O141 Mn142 2.113 . S
O141 C158 1.238 . S
Mn142 O141 2.113 . S
Mn142 O154 2.101 . S
Mn142 O156 2.372 . S
Mn142 O157 2.265 . S
C143 O144 1.258 . S
C143 O145 1.263 . S
O144 Mn138 2.111 . S
O144 C143 1.258 . S
O145 Mn139 2.116 . S
O145 C143 1.263 . S
P146 O151 1.496 . S
C147 O153 1.252 . S
C147 O154 1.259 . S
C148 O156 1.252 . S
C148 O157 1.273 . S
O149 Mn138 2.150 . S
O149 C155 1.271 . S
O150 Mn139 2.129 . S
O150 C155 1.250 . S
O151 Mn138 2.130 . S
O151 P146 1.496 . S
C152 O159 1.283 . S
C152 O160 1.263 . S
O153 Mn139 2.147 . S
O153 C147 1.252 . S
O154 Mn142 2.101 . S
O154 C147 1.259 . S
C155 O149 1.271 . S
C155 O150 1.250 . S
O156 Mn142 2.372 . S
O156 C148 1.252 . S
O157 Mn139 2.267 . S
O157 Mn142 2.265 . S
O157 C148 1.273 . S
C158 O140 1.255 . S
C158 O141 1.238 . S
O159 Mn138 2.281 . S
O159 Mn139 2.247 . S
O159 C152 1.283 . S
O160 Mn138 2.374 . S
O160 C152 1.263 . S
Mn161 O167 2.111 . S
Mn161 O172 2.150 . S
Mn161 O174 2.130 . S
Mn161 O182 2.281 . S
Mn161 O183 2.374 . S
Mn162 O163 2.126 . S
Mn162 O168 2.116 . S
Mn162 O173 2.129 . S
Mn162 O176 2.147 . S
Mn162 O180 2.267 . S
Mn162 O182 2.247 . S
O163 Mn162 2.126 . S
O163 C181 1.255 . S
O164 Mn165 2.113 . S
O164 C181 1.238 . S
Mn165 O164 2.113 . S
Mn165 O177 2.101 . S
Mn165 O179 2.372 . S
Mn165 O180 2.265 . S
C166 O167 1.258 . S
C166 O168 1.263 . S
O167 Mn161 2.111 . S
O167 C166 1.258 . S
O168 Mn162 2.116 . S
O168 C166 1.263 . S
P169 O174 1.496 . S
C170 O176 1.252 . S
C170 O177 1.259 . S
C171 O179 1.252 . S
C171 O180 1.273 . S
O172 Mn161 2.150 . S
O172 C178 1.271 . S
O173 Mn162 2.129 . S
O173 C178 1.250 . S
O174 Mn161 2.130 . S
O174 P169 1.496 . S
C175 O182 1.283 . S
C175 O183 1.263 . S
O176 Mn162 2.147 . S
O176 C170 1.252 . S
O177 Mn165 2.101 . S
O177 C170 1.259 . S
C178 O172 1.271 . S
C178 O173 1.250 . S
O179 Mn165 2.372 . S
O179 C171 1.252 . S
O180 Mn162 2.267 . S
O180 Mn165 2.265 . S
O180 C171 1.273 . S
C181 O163 1.255 . S
C181 O164 1.238 . S
O182 Mn161 2.281 . S
O182 Mn162 2.247 . S
O182 C175 1.283 . S
O183 Mn161 2.374 . S
O183 C175 1.263 . S
H184 C192 0.929 . S
H185 C194 0.930 . S
H186 C196 0.930 . S
H187 C199 0.929 . S
H188 C202 0.930 . S
H189 C204 0.960 . S
H190 C204 0.960 . S
H191 C204 0.960 . S
C192 H184 0.929 . S
C192 C193 1.377 . S
C192 C194 1.384 . S
C193 C192 1.377 . S
C193 C199 1.390 . S
C194 H185 0.930 . S
C194 C192 1.384 . S
C194 C195 1.372 1_554 S
C195 C194 1.372 1_556 S
C195 C196 1.400 . S
C195 C200 1.490 . S
C196 H186 0.930 . S
C196 C195 1.400 . S
C196 C199 1.386 1_556 S
H197 C213 0.930 . S
H198 C214 0.931 . S
C199 H187 0.929 . S
C199 C193 1.390 . S
C199 C196 1.386 1_554 S
C200 C195 1.490 . S
C200 C202 1.395 . S
C200 C203 1.403 . S
H201 C207 0.930 . S
C202 H188 0.930 . S
C202 C200 1.395 . S
C202 C205 1.403 . S
C203 C200 1.403 . S
C203 C204 1.524 . S
C203 C207 1.400 . S
C204 H189 0.960 . S
C204 H190 0.960 . S
C204 H191 0.960 . S
C204 C203 1.524 . S
C205 C202 1.403 . S
C205 C206 1.392 . S
C205 C209 1.495 . S
C206 C205 1.392 . S
C206 C207 1.385 . S
C206 C208 1.478 . S
C207 H201 0.930 . S
C207 C203 1.400 . S
C207 C206 1.385 . S
C208 C206 1.478 . S
C208 C210 1.381 . S
C208 C214 1.383 . S
C209 C205 1.495 . S
C209 H215 0.959 . S
C209 H216 0.961 . S
C209 H217 0.960 . S
C210 C208 1.381 . S
C210 C211 1.394 . S
C210 H218 0.930 . S
C211 C210 1.394 . S
C211 C212 1.383 . S
C211 H219 0.929 . S
C212 C211 1.383 . S
C212 C213 1.377 . S
C213 H197 0.930 . S
C213 C212 1.377 . S
C213 C214 1.379 . S
C214 H198 0.931 . S
C214 C208 1.383 . S
C214 C213 1.379 . S
H215 C209 0.959 . S
H216 C209 0.961 . S
H217 C209 0.960 . S
H218 C210 0.930 . S
H219 C211 0.929 . S
H220 C228 0.929 . S
H221 C230 0.930 1_554 S
H222 C232 0.917 1_554 S
H223 C235 0.929 . S
H224 C238 0.930 . S
H225 C240 0.960 . S
H226 C240 0.960 . S
H227 C240 0.960 . S
C228 H220 0.929 . S
C228 C229 1.377 . S
C228 C230 1.384 . S
C229 C228 1.377 . S
C229 C235 1.390 . S
C230 H221 0.930 1_556 S
C230 C228 1.384 . S
C230 C231 1.372 1_556 S
C231 C230 1.372 1_554 S
C231 C232 1.400 1_554 S
C231 C236 1.490 . S
C232 H222 0.917 1_556 S
C232 C231 1.400 1_556 S
C232 C235 1.386 . S
H233 C249 0.930 . S
H234 C250 0.931 . S
C235 H223 0.929 . S
C235 C229 1.390 . S
C235 C232 1.386 . S
C236 C231 1.490 . S
C236 C238 1.395 . S
C236 C239 1.403 . S
H237 C243 0.930 . S
C238 H224 0.930 . S
C238 C236 1.395 . S
C238 C241 1.403 . S
C239 C236 1.403 . S
C239 C240 1.524 . S
C239 C243 1.400 . S
C240 H225 0.960 . S
C240 H226 0.960 . S
C240 H227 0.960 . S
C240 C239 1.524 . S
C241 C238 1.403 . S
C241 C242 1.392 . S
C241 C245 1.495 . S
C242 C241 1.392 . S
C242 C243 1.385 . S
C242 C244 1.478 . S
C243 H237 0.930 . S
C243 C239 1.400 . S
C243 C242 1.385 . S
C244 C242 1.478 . S
C244 C246 1.381 . S
C244 C250 1.383 . S
C245 C241 1.495 . S
C245 H251 0.959 . S
C245 H252 0.961 . S
C245 H253 0.960 . S
C246 C244 1.381 . S
C246 C247 1.394 . S
C246 H254 0.930 . S
C247 C246 1.394 . S
C247 C248 1.383 . S
C247 H255 0.929 . S
C248 C247 1.383 . S
C248 C249 1.377 . S
C249 H233 0.930 . S
C249 C248 1.377 . S
C249 C250 1.379 . S
C250 H234 0.931 . S
C250 C244 1.383 . S
C250 C249 1.379 . S
H251 C245 0.959 . S
H252 C245 0.961 . S
H253 C245 0.960 . S
H254 C246 0.930 . S
H255 C247 0.929 . S
H256 C264 0.929 . S
H257 C266 0.930 . S
H258 C268 0.930 . S
H259 C271 0.929 . S
H260 C274 0.930 . S
H261 C276 0.960 . S
H262 C276 0.960 . S
H263 C276 0.960 . S
C264 H256 0.929 . S
C264 C265 1.377 . S
C264 C266 1.384 . S
C265 C264 1.377 . S
C265 C271 1.390 . S
C266 H257 0.930 . S
C266 C264 1.384 . S
C266 C267 1.372 . S
C267 C266 1.372 . S
C267 C268 1.400 . S
C267 C272 1.490 . S
C268 H258 0.930 . S
C268 C267 1.400 . S
C268 C271 1.386 . S
H269 C285 0.930 . S
H270 C286 0.931 1_556 S
C271 H259 0.929 . S
C271 C265 1.390 . S
C271 C268 1.386 . S
C272 C267 1.490 . S
C272 C274 1.395 . S
C272 C275 1.403 . S
H273 C279 0.930 . S
C274 H260 0.930 . S
C274 C272 1.395 . S
C274 C277 1.403 . S
C275 C272 1.403 . S
C275 C276 1.524 . S
C275 C279 1.400 . S
C276 H261 0.960 . S
C276 H262 0.960 . S
C276 H263 0.960 . S
C276 C275 1.524 . S
C277 C274 1.403 . S
C277 C278 1.392 . S
C277 C281 1.495 . S
C278 C277 1.392 . S
C278 C279 1.385 . S
C278 C280 1.478 . S
C279 H273 0.930 . S
C279 C275 1.400 . S
C279 C278 1.385 . S
C280 C278 1.478 . S
C280 C282 1.381 1_556 S
C280 C286 1.383 1_556 S
C281 C277 1.495 . S
C281 H287 0.959 . S
C281 H288 0.961 . S
C281 H289 0.960 . S
C282 C280 1.381 1_554 S
C282 C283 1.394 . S
C282 H290 0.922 1_554 S
C283 C282 1.394 . S
C283 C284 1.383 . S
C283 H291 0.929 . S
C284 C283 1.383 . S
C284 C285 1.377 . S
C285 H269 0.930 . S
C285 C284 1.377 . S
C285 C286 1.379 . S
C286 H270 0.931 1_554 S
C286 C280 1.383 1_554 S
C286 C285 1.379 . S
H287 C281 0.959 . S
H288 C281 0.961 . S
H289 C281 0.960 . S
H290 C282 0.922 1_556 S
H291 C283 0.929 . S
H292 C300 0.929 . S
H293 C302 0.930 . S
H294 C304 0.930 . S
H295 C307 0.929 . S
H296 C310 0.930 . S
H297 C312 0.960 . S
H298 C312 0.960 . S
H299 C312 0.960 . S
C300 H292 0.929 . S
C300 C301 1.377 . S
C300 C302 1.384 . S
C301 C300 1.377 . S
C301 C307 1.390 . S
C302 H293 0.930 . S
C302 C300 1.384 . S
C302 C303 1.372 1_556 S
C303 C302 1.372 1_554 S
C303 C304 1.400 1_554 S
C303 C308 1.490 . S
C304 H294 0.930 . S
C304 C303 1.400 1_556 S
C304 C307 1.386 . S
H305 C321 0.930 . S
H306 C322 0.931 . S
C307 H295 0.929 . S
C307 C301 1.390 . S
C307 C304 1.386 . S
C308 C303 1.490 . S
C308 C310 1.395 . S
C308 C311 1.403 . S
H309 C315 0.930 . S
C310 H296 0.930 . S
C310 C308 1.395 . S
C310 C313 1.403 . S
C311 C308 1.403 . S
C311 C312 1.524 . S
C311 C315 1.400 . S
C312 H297 0.960 . S
C312 H298 0.960 . S
C312 H299 0.960 . S
C312 C311 1.524 . S
C313 C310 1.403 . S
C313 C314 1.392 . S
C313 C317 1.495 . S
C314 C313 1.392 . S
C314 C315 1.385 . S
C314 C316 1.478 . S
C315 H309 0.930 . S
C315 C311 1.400 . S
C315 C314 1.385 . S
C316 C314 1.478 . S
C316 C318 1.381 . S
C316 C322 1.383 . S
C317 C313 1.495 . S
C317 H323 0.959 . S
C317 H324 0.961 . S
C317 H325 0.960 . S
C318 C316 1.381 . S
C318 C319 1.394 . S
C318 H326 0.930 . S
C319 C318 1.394 . S
C319 C320 1.383 . S
C319 H327 0.929 . S
C320 C319 1.383 . S
C320 C321 1.377 . S
C321 H305 0.930 . S
C321 C320 1.377 . S
C321 C322 1.379 . S
C322 H306 0.931 . S
C322 C316 1.383 . S
C322 C321 1.379 . S
H323 C317 0.959 . S
H324 C317 0.961 . S
H325 C317 0.960 . S
H326 C318 0.930 . S
H327 C319 0.929 . S
H328 C336 0.929 . S
H329 C338 0.930 . S
H330 C340 0.930 . S
H331 C343 0.929 . S
H332 C346 0.930 . S
H333 C348 0.960 . S
H334 C348 0.960 . S
H335 C348 0.960 . S
C336 H328 0.929 . S
C336 C337 1.377 . S
C336 C338 1.384 . S
C337 C336 1.377 . S
C337 C343 1.390 . S
C338 H329 0.930 . S
C338 C336 1.384 . S
C338 C339 1.372 . S
C339 C338 1.372 . S
C339 C340 1.400 . S
C339 C344 1.490 . S
C340 H330 0.930 . S
C340 C339 1.400 . S
C340 C343 1.386 . S
H341 C357 0.930 . S
H342 C358 0.931 . S
C343 H331 0.929 . S
C343 C337 1.390 . S
C343 C340 1.386 . S
C344 C339 1.490 . S
C344 C346 1.395 . S
C344 C347 1.403 . S
H345 C351 0.930 . S
C346 H332 0.930 . S
C346 C344 1.395 . S
C346 C349 1.403 . S
C347 C344 1.403 . S
C347 C348 1.524 . S
C347 C351 1.400 . S
C348 H333 0.960 . S
C348 H334 0.960 . S
C348 H335 0.960 . S
C348 C347 1.524 . S
C349 C346 1.403 . S
C349 C350 1.392 . S
C349 C353 1.495 . S
C350 C349 1.392 . S
C350 C351 1.385 . S
C350 C352 1.478 1_655 S
C351 H345 0.930 . S
C351 C347 1.400 . S
C351 C350 1.385 . S
C352 C350 1.478 1_455 S
C352 C354 1.381 . S
C352 C358 1.383 . S
C353 C349 1.495 . S
C353 H359 0.959 . S
C353 H360 0.961 1_655 S
C353 H361 0.960 1_655 S
C354 C352 1.381 . S
C354 C355 1.394 . S
C354 H362 0.930 . S
C355 C354 1.394 . S
C355 C356 1.383 . S
C355 H363 0.929 . S
C356 C355 1.383 . S
C356 C357 1.377 . S
C357 H341 0.930 . S
C357 C356 1.377 . S
C357 C358 1.379 . S
C358 H342 0.931 . S
C358 C352 1.383 . S
C358 C357 1.379 . S
H359 C353 0.959 . S
H360 C353 0.961 1_455 S
H361 C353 0.960 1_455 S
H362 C354 0.930 . S
H363 C355 0.929 . S
H364 C372 0.929 . S
H365 C374 0.930 . S
H366 C376 0.930 . S
H367 C379 0.929 . S
H368 C382 0.930 . S
H369 C384 0.960 . S
H370 C384 0.960 . S
H371 C384 0.960 . S
C372 H364 0.929 . S
C372 C373 1.377 . S
C372 C374 1.384 . S
C373 C372 1.377 . S
C373 C379 1.390 . S
C374 H365 0.930 . S
C374 C372 1.384 . S
C374 C375 1.389 . S
C375 C374 1.389 . S
C375 C376 1.419 . S
C375 C380 1.455 1_565 S
C376 H366 0.930 . S
C376 C375 1.419 . S
C376 C379 1.386 . S
H377 C393 0.930 . S
H378 C394 0.931 . S
C379 H367 0.929 . S
C379 C373 1.390 . S
C379 C376 1.386 . S
C380 C375 1.455 1_545 S
C380 C382 1.395 . S
C380 C383 1.403 . S
H381 C387 0.930 . S
C382 H368 0.930 . S
C382 C380 1.395 . S
C382 C385 1.403 . S
C383 C380 1.403 . S
C383 C384 1.524 . S
C383 C387 1.400 . S
C384 H369 0.960 . S
C384 H370 0.960 . S
C384 H371 0.960 . S
C384 C383 1.524 . S
C385 C382 1.403 . S
C385 C386 1.392 . S
C385 C389 1.495 . S
C386 C385 1.392 . S
C386 C387 1.385 . S
C386 C388 1.478 . S
C387 H381 0.930 . S
C387 C383 1.400 . S
C387 C386 1.385 . S
C388 C386 1.478 . S
C388 C390 1.381 . S
C388 C394 1.383 . S
C389 C385 1.495 . S
C389 H395 0.959 . S
C389 H396 0.961 . S
C389 H397 0.960 . S
C390 C388 1.381 . S
C390 C391 1.394 . S
C390 H398 0.930 . S
C391 C390 1.394 . S
C391 C392 1.383 . S
C391 H399 0.929 . S
C392 C391 1.383 . S
C392 C393 1.377 . S
C393 H377 0.930 . S
C393 C392 1.377 . S
C393 C394 1.379 . S
C394 H378 0.931 . S
C394 C388 1.383 . S
C394 C393 1.379 . S
H395 C389 0.959 . S
H396 C389 0.961 . S
H397 C389 0.960 . S
H398 C390 0.930 . S
H399 C391 0.929 . S
H400 C408 0.929 . S
H401 C410 0.930 . S
H402 C412 0.930 . S
H403 C415 0.929 . S
H404 C418 0.930 . S
H405 C420 0.960 . S
H406 C420 0.960 . S
H407 C420 0.960 . S
C408 H400 0.929 . S
C408 C409 1.377 . S
C408 C410 1.384 . S
C409 C408 1.377 . S
C409 C415 1.390 . S
C410 H401 0.930 . S
C410 C408 1.384 . S
C410 C411 1.372 . S
C411 C410 1.372 . S
C411 C412 1.400 . S
C411 C416 1.490 . S
C412 H402 0.930 . S
C412 C411 1.400 . S
C412 C415 1.386 . S
H413 C429 0.930 . S
H414 C430 0.931 . S
C415 H403 0.929 . S
C415 C409 1.390 . S
C415 C412 1.386 . S
C416 C411 1.490 . S
C416 C418 1.395 . S
C416 C419 1.403 . S
H417 C423 0.930 . S
C418 H404 0.930 . S
C418 C416 1.395 . S
C418 C421 1.403 . S
C419 C416 1.403 . S
C419 C420 1.524 . S
C419 C423 1.400 . S
C420 H405 0.960 . S
C420 H406 0.960 . S
C420 H407 0.960 . S
C420 C419 1.524 . S
C421 C418 1.403 . S
C421 C422 1.392 . S
C421 C425 1.495 . S
C422 C421 1.392 . S
C422 C423 1.385 . S
C422 C424 1.478 1_455 S
C423 H417 0.930 . S
C423 C419 1.400 . S
C423 C422 1.385 . S
C424 C422 1.478 1_655 S
C424 C426 1.381 . S
C424 C430 1.383 . S
C425 C421 1.495 . S
C425 H431 0.959 . S
C425 H432 0.961 . S
C425 H433 0.960 . S
C426 C424 1.381 . S
C426 C427 1.394 . S
C426 H434 0.930 . S
C427 C426 1.394 . S
C427 C428 1.383 . S
C427 H435 0.929 . S
C428 C427 1.383 . S
C428 C429 1.377 . S
C429 H413 0.930 . S
C429 C428 1.377 . S
C429 C430 1.379 . S
C430 H414 0.931 . S
C430 C424 1.383 . S
C430 C429 1.379 . S
H431 C425 0.959 . S
H432 C425 0.961 . S
H433 C425 0.960 . S
H434 C426 0.930 . S
H435 C427 0.929 . S
H436 C444 0.929 . S
H437 C446 0.930 . S
H438 C448 0.930 . S
H439 C451 0.929 . S
H440 C454 0.930 . S
H441 C456 0.960 . S
H442 C456 0.960 . S
H443 C456 0.960 . S
C444 H436 0.929 . S
C444 C445 1.377 . S
C444 C446 1.384 . S
C445 C444 1.377 . S
C445 C451 1.390 . S
C446 H437 0.930 . S
C446 C444 1.384 . S
C446 C447 1.372 . S
C447 C446 1.372 . S
C447 C448 1.400 . S
C447 C452 1.490 . S
C448 H438 0.930 . S
C448 C447 1.400 . S
C448 C451 1.386 . S
H449 C465 0.930 . S
H450 C466 0.931 1_565 S
C451 H439 0.929 . S
C451 C445 1.390 . S
C451 C448 1.386 . S
C452 C447 1.490 . S
C452 C454 1.395 . S
C452 C455 1.403 . S
H453 C459 0.930 . S
C454 H440 0.930 . S
C454 C452 1.395 . S
C454 C457 1.403 . S
C455 C452 1.403 . S
C455 C456 1.524 . S
C455 C459 1.400 . S
C456 H441 0.960 . S
C456 H442 0.960 . S
C456 H443 0.960 . S
C456 C455 1.524 . S
C457 C454 1.403 . S
C457 C458 1.392 . S
C457 C461 1.495 . S
C458 C457 1.392 . S
C458 C459 1.385 . S
C458 C460 1.478 . S
C459 H453 0.930 . S
C459 C455 1.400 . S
C459 C458 1.385 . S
C460 C458 1.478 . S
C460 C462 1.381 1_565 S
C460 C466 1.383 1_565 S
C461 C457 1.495 . S
C461 H467 0.959 . S
C461 H468 0.961 . S
C461 H469 0.960 . S
C462 C460 1.381 1_545 S
C462 C463 1.394 . S
C462 H470 0.930 . S
C463 C462 1.394 . S
C463 C464 1.383 . S
C463 H471 0.929 . S
C464 C463 1.383 . S
C464 C465 1.377 . S
C465 H449 0.930 . S
C465 C464 1.377 . S
C465 C466 1.379 . S
C466 H450 0.931 1_545 S
C466 C460 1.383 1_545 S
C466 C465 1.379 . S
H467 C461 0.959 . S
H468 C461 0.961 . S
H469 C461 0.960 . S
H470 C462 0.930 . S
H471 C463 0.929 . S
H472 C480 0.929 . S
H473 C482 0.930 . S
H474 C484 0.930 . S
H475 C487 0.929 . S
H476 C490 0.930 . S
H477 C492 0.960 . S
H478 C492 0.960 . S
H479 C492 0.960 . S
C480 H472 0.929 . S
C480 C481 1.377 . S
C480 C482 1.384 . S
C481 C480 1.377 . S
C481 C487 1.390 . S
C482 H473 0.930 . S
C482 C480 1.384 . S
C482 C483 1.372 . S
C483 C482 1.372 . S
C483 C484 1.400 . S
C483 C488 1.490 . S
C484 H474 0.930 . S
C484 C483 1.400 . S
C484 C487 1.386 . S
H485 C501 0.930 . S
H486 C502 0.928 1_655 S
C487 H475 0.929 . S
C487 C481 1.390 . S
C487 C484 1.386 . S
C488 C483 1.490 . S
C488 C490 1.395 . S
C488 C491 1.403 . S
H489 C495 0.930 . S
C490 H476 0.930 . S
C490 C488 1.395 . S
C490 C493 1.403 . S
C491 C488 1.403 . S
C491 C492 1.524 . S
C491 C495 1.400 . S
C492 H477 0.960 . S
C492 H478 0.960 . S
C492 H479 0.960 . S
C492 C491 1.524 . S
C493 C490 1.403 . S
C493 C494 1.392 . S
C493 C497 1.495 . S
C494 C493 1.392 . S
C494 C495 1.385 . S
C494 C496 1.499 . S
C495 H489 0.930 . S
C495 C491 1.400 . S
C495 C494 1.385 . S
C496 C494 1.499 . S
C496 C498 1.368 1_655 S
C496 C502 1.374 1_655 S
C497 C493 1.495 . S
C497 H503 0.959 . S
C497 H504 0.961 . S
C497 H505 0.960 . S
C498 C496 1.368 1_455 S
C498 C499 1.394 . S
C498 H506 0.930 . S
C499 C498 1.394 . S
C499 C500 1.383 . S
C499 H507 0.929 . S
C500 C499 1.383 . S
C500 C501 1.377 . S
C501 H485 0.930 . S
C501 C500 1.377 . S
C501 C502 1.379 . S
C502 H486 0.928 1_455 S
C502 C496 1.374 1_455 S
C502 C501 1.379 . S
H503 C497 0.959 . S
H504 C497 0.961 . S
H505 C497 0.960 . S
H506 C498 0.930 . S
H507 C499 0.929 . S
H508 C516 0.929 . S
H509 C518 0.930 . S
H510 C520 0.930 1_545 S
H511 C523 0.929 . S
H512 C526 0.930 . S
H513 C528 0.960 . S
H514 C528 0.960 . S
H515 C528 0.960 . S
C516 H508 0.929 . S
C516 C517 1.377 . S
C516 C518 1.384 . S
C517 C516 1.377 . S
C517 C523 1.390 . S
C518 H509 0.930 . S
C518 C516 1.384 . S
C518 C519 1.372 1_565 S
C519 C518 1.372 1_545 S
C519 C520 1.400 1_545 S
C519 C524 1.490 . S
C520 H510 0.930 1_565 S
C520 C519 1.400 1_565 S
C520 C523 1.386 . S
H521 C537 0.930 . S
H522 C538 0.931 . S
C523 H511 0.929 . S
C523 C517 1.390 . S
C523 C520 1.386 . S
C524 C519 1.490 . S
C524 C526 1.395 . S
C524 C527 1.403 . S
H525 C531 0.930 . S
C526 H512 0.930 . S
C526 C524 1.395 . S
C526 C529 1.403 . S
C527 C524 1.403 . S
C527 C528 1.524 . S
C527 C531 1.400 . S
C528 H513 0.960 . S
C528 H514 0.960 . S
C528 H515 0.960 . S
C528 C527 1.524 . S
C529 C526 1.403 . S
C529 C530 1.392 . S
C529 C533 1.495 . S
C530 C529 1.392 . S
C530 C531 1.385 . S
C530 C532 1.478 . S
C531 H525 0.930 . S
C531 C527 1.400 . S
C531 C530 1.385 . S
C532 C530 1.478 . S
C532 C534 1.381 . S
C532 C538 1.383 . S
C533 C529 1.495 . S
C533 H539 0.959 . S
C533 H540 0.961 . S
C533 H541 0.960 . S
C534 C532 1.381 . S
C534 C535 1.394 . S
C534 H542 0.930 . S
C535 C534 1.394 . S
C535 C536 1.383 . S
C535 H543 0.929 . S
C536 C535 1.383 . S
C536 C537 1.377 . S
C537 H521 0.930 . S
C537 C536 1.377 . S
C537 C538 1.379 . S
C538 H522 0.931 . S
C538 C532 1.383 . S
C538 C537 1.379 . S
H539 C533 0.959 . S
H540 C533 0.961 . S
H541 C533 0.960 . S
H542 C534 0.930 . S
H543 C535 0.929 . S
H544 C552 0.929 . S
H545 C554 0.930 1_455 S
H546 C556 0.930 . S
H547 C559 0.929 . S
H548 C562 0.930 . S
H549 C564 0.960 . S
H550 C564 0.960 . S
H551 C564 0.960 . S
C552 H544 0.929 . S
C552 C553 1.377 . S
C552 C554 1.384 . S
C553 C552 1.377 . S
C553 C559 1.390 . S
C554 H545 0.930 1_655 S
C554 C552 1.384 . S
C554 C555 1.381 . S
C555 C554 1.381 . S
C555 C556 1.423 . S
C555 C560 1.459 1_655 S
C556 H546 0.930 . S
C556 C555 1.423 . S
C556 C559 1.386 . S
H557 C573 0.930 . S
H558 C574 0.931 . S
C559 H547 0.929 . S
C559 C553 1.390 . S
C559 C556 1.386 . S
C560 C555 1.459 1_455 S
C560 C562 1.395 . S
C560 C563 1.403 . S
H561 C567 0.930 . S
C562 H548 0.930 . S
C562 C560 1.395 . S
C562 C565 1.403 . S
C563 C560 1.403 . S
C563 C564 1.524 . S
C563 C567 1.400 . S
C564 H549 0.960 . S
C564 H550 0.960 . S
C564 H551 0.960 . S
C564 C563 1.524 . S
C565 C562 1.403 . S
C565 C566 1.392 . S
C565 C569 1.495 . S
C566 C565 1.392 . S
C566 C567 1.385 . S
C566 C568 1.478 . S
C567 H561 0.930 . S
C567 C563 1.400 . S
C567 C566 1.385 . S
C568 C566 1.478 . S
C568 C570 1.381 . S
C568 C574 1.383 . S
C569 C565 1.495 . S
C569 H575 0.959 . S
C569 H576 0.961 . S
C569 H577 0.960 . S
C570 C568 1.381 . S
C570 C571 1.394 . S
C570 H578 0.930 . S
C571 C570 1.394 . S
C571 C572 1.383 . S
C571 H579 0.929 . S
C572 C571 1.383 . S
C572 C573 1.377 . S
C573 H557 0.930 . S
C573 C572 1.377 . S
C573 C574 1.379 . S
C574 H558 0.931 . S
C574 C568 1.383 . S
C574 C573 1.379 . S
H575 C569 0.959 . S
H576 C569 0.961 . S
H577 C569 0.960 . S
H578 C570 0.930 . S
H579 C571 0.929 . S
H580 C588 0.929 . S
H581 C590 0.930 . S
H582 C592 0.930 . S
H583 C595 0.929 . S
H584 C598 0.930 . S
H585 C600 0.960 . S
H586 C600 0.960 . S
H587 C600 0.960 . S
C588 H580 0.929 . S
C588 C589 1.377 . S
C588 C590 1.384 . S
C589 C588 1.377 . S
C589 C595 1.390 . S
C590 H581 0.930 . S
C590 C588 1.384 . S
C590 C591 1.372 . S
C591 C590 1.372 . S
C591 C592 1.400 . S
C591 C596 1.490 . S
C592 H582 0.930 . S
C592 C591 1.400 . S
C592 C595 1.386 . S
H593 C609 0.930 . S
H594 C610 0.931 1_565 S
C595 H583 0.929 . S
C595 C589 1.390 . S
C595 C592 1.386 . S
C596 C591 1.490 . S
C596 C598 1.395 . S
C596 C599 1.403 . S
H597 C603 0.930 . S
C598 H584 0.930 . S
C598 C596 1.395 . S
C598 C601 1.403 . S
C599 C596 1.403 . S
C599 C600 1.524 . S
C599 C603 1.400 . S
C600 H585 0.960 . S
C600 H586 0.960 . S
C600 H587 0.960 . S
C600 C599 1.524 . S
C601 C598 1.403 . S
C601 C602 1.392 . S
C601 C605 1.495 . S
C602 C601 1.392 . S
C602 C603 1.385 . S
C602 C604 1.478 . S
C603 H597 0.930 . S
C603 C599 1.400 . S
C603 C602 1.385 . S
C604 C602 1.478 . S
C604 C606 1.381 1_565 S
C604 C610 1.383 1_565 S
C605 C601 1.495 . S
C605 H611 0.959 . S
C605 H612 0.961 . S
C605 H613 0.960 . S
C606 C604 1.381 1_545 S
C606 C607 1.394 . S
C606 H614 0.930 . S
C607 C606 1.394 . S
C607 C608 1.383 . S
C607 H615 0.929 . S
C608 C607 1.383 . S
C608 C609 1.377 . S
C609 H593 0.930 . S
C609 C608 1.377 . S
C609 C610 1.379 . S
C610 H594 0.931 1_545 S
C610 C604 1.383 1_545 S
C610 C609 1.379 . S
H611 C605 0.959 . S
H612 C605 0.961 . S
H613 C605 0.960 . S
H614 C606 0.930 . S
H615 C607 0.929 . S
H616 C624 0.929 . S
H617 C626 0.930 . S
H618 C628 0.930 . S
H619 C631 0.929 . S
H620 C634 0.930 . S
H621 C636 0.960 . S
H622 C636 0.960 . S
H623 C636 0.960 . S
C624 H616 0.929 . S
C624 C625 1.377 . S
C624 C626 1.384 . S
C625 C624 1.377 . S
C625 C631 1.390 . S
C626 H617 0.930 . S
C626 C624 1.384 . S
C626 C627 1.372 . S
C627 C626 1.372 . S
C627 C628 1.400 . S
C627 C632 1.490 . S
C628 H618 0.930 . S
C628 C627 1.400 . S
C628 C631 1.386 . S
H629 C645 0.930 . S
H630 C646 0.931 . S
C631 H619 0.929 . S
C631 C625 1.390 . S
C631 C628 1.386 . S
C632 C627 1.490 . S
C632 C634 1.395 . S
C632 C635 1.403 . S
H633 C639 0.930 . S
C634 H620 0.930 . S
C634 C632 1.395 . S
C634 C637 1.403 . S
C635 C632 1.403 . S
C635 C636 1.524 . S
C635 C639 1.400 . S
C636 H621 0.960 . S
C636 H622 0.960 . S
C636 H623 0.960 . S
C636 C635 1.524 . S
C637 C634 1.403 . S
C637 C638 1.392 . S
C637 C641 1.495 . S
C638 C637 1.392 . S
C638 C639 1.385 . S
C638 C640 1.478 . S
C639 H633 0.930 . S
C639 C635 1.400 . S
C639 C638 1.385 . S
C640 C638 1.478 . S
C640 C642 1.381 . S
C640 C646 1.383 . S
C641 C637 1.495 . S
C641 H647 0.959 . S
C641 H648 0.961 . S
C641 H649 0.960 . S
C642 C640 1.381 . S
C642 C643 1.394 . S
C642 H650 0.930 . S
C643 C642 1.394 . S
C643 C644 1.383 . S
C643 H651 0.929 . S
C644 C643 1.383 . S
C644 C645 1.377 . S
C645 H629 0.930 . S
C645 C644 1.377 . S
C645 C646 1.379 . S
C646 H630 0.931 . S
C646 C640 1.383 . S
C646 C645 1.379 . S
H647 C641 0.959 . S
H648 C641 0.961 . S
H649 C641 0.960 . S
H650 C642 0.930 . S
H651 C643 0.929 . S
H652 C660 0.929 . S
H653 C662 0.930 . S
H654 C664 0.930 . S
H655 C667 0.929 . S
H656 C670 0.930 . S
H657 C672 0.960 . S
H658 C672 0.960 . S
H659 C672 0.960 . S
C660 H652 0.929 . S
C660 C661 1.377 . S
C660 C662 1.384 . S
C661 C660 1.377 . S
C661 C667 1.390 . S
C662 H653 0.930 . S
C662 C660 1.384 . S
C662 C663 1.372 . S
C663 C662 1.372 . S
C663 C664 1.400 . S
C663 C668 1.490 . S
C664 H654 0.930 . S
C664 C663 1.400 . S
C664 C667 1.386 . S
H665 C681 0.930 . S
H666 C682 0.931 . S
C667 H655 0.929 . S
C667 C661 1.390 . S
C667 C664 1.386 . S
C668 C663 1.490 . S
C668 C670 1.395 . S
C668 C671 1.403 . S
H669 C675 0.930 . S
C670 H656 0.930 . S
C670 C668 1.395 . S
C670 C673 1.403 . S
C671 C668 1.403 . S
C671 C672 1.524 . S
C671 C675 1.400 . S
C672 H657 0.960 . S
C672 H658 0.960 . S
C672 H659 0.960 . S
C672 C671 1.524 . S
C673 C670 1.403 . S
C673 C674 1.392 . S
C673 C677 1.495 . S
C674 C673 1.392 . S
C674 C675 1.385 . S
C674 C676 1.478 . S
C675 H669 0.930 . S
C675 C671 1.400 . S
C675 C674 1.385 . S
C676 C674 1.478 . S
C676 C678 1.381 . S
C676 C682 1.383 . S
C677 C673 1.495 . S
C677 H683 0.959 . S
C677 H684 0.961 . S
C677 H685 0.960 . S
C678 C676 1.381 . S
C678 C679 1.394 . S
C678 H686 0.930 . S
C679 C678 1.394 . S
C679 C680 1.383 . S
C679 H687 0.929 . S
C680 C679 1.383 . S
C680 C681 1.377 . S
C681 H665 0.930 . S
C681 C680 1.377 . S
C681 C682 1.379 . S
C682 H666 0.931 . S
C682 C676 1.383 . S
C682 C681 1.379 . S
H683 C677 0.959 . S
H684 C677 0.961 . S
H685 C677 0.960 . S
H686 C678 0.930 . S
H687 C679 0.929 . S
H688 C696 0.929 . S
H689 C698 0.930 . S
H690 C700 0.930 . S
H691 C703 0.929 . S
H692 C706 0.930 . S
H693 C708 0.960 . S
H694 C708 0.960 . S
H695 C708 0.960 . S
C696 H688 0.929 . S
C696 C697 1.377 . S
C696 C698 1.384 . S
C697 C696 1.377 . S
C697 C703 1.390 . S
C698 H689 0.930 . S
C698 C696 1.384 . S
C698 C699 1.372 . S
C699 C698 1.372 . S
C699 C700 1.400 . S
C699 C704 1.490 . S
C700 H690 0.930 . S
C700 C699 1.400 . S
C700 C703 1.386 . S
H701 C717 0.930 . S
H702 C718 0.931 . S
C703 H691 0.929 . S
C703 C697 1.390 . S
C703 C700 1.386 . S
C704 C699 1.490 . S
C704 C706 1.395 . S
C704 C707 1.403 . S
H705 C711 0.930 . S
C706 H692 0.930 . S
C706 C704 1.395 . S
C706 C709 1.403 . S
C707 C704 1.403 . S
C707 C708 1.524 . S
C707 C711 1.400 . S
C708 H693 0.960 . S
C708 H694 0.960 . S
C708 H695 0.960 . S
C708 C707 1.524 . S
C709 C706 1.403 . S
C709 C710 1.392 . S
C709 C713 1.495 . S
C710 C709 1.392 . S
C710 C711 1.385 . S
C710 C712 1.478 . S
C711 H705 0.930 . S
C711 C707 1.400 . S
C711 C710 1.385 . S
C712 C710 1.478 . S
C712 C714 1.381 . S
C712 C718 1.383 . S
C713 C709 1.495 . S
C713 H719 0.959 . S
C713 H720 0.961 . S
C713 H721 0.960 . S
C714 C712 1.381 . S
C714 C715 1.394 . S
C714 H722 0.930 . S
C715 C714 1.394 . S
C715 C716 1.383 . S
C715 H723 0.929 . S
C716 C715 1.383 . S
C716 C717 1.377 . S
C717 H701 0.930 . S
C717 C716 1.377 . S
C717 C718 1.379 . S
C718 H702 0.931 . S
C718 C712 1.383 . S
C718 C717 1.379 . S
H719 C713 0.959 . S
H720 C713 0.961 . S
H721 C713 0.960 . S
H722 C714 0.930 . S
H723 C715 0.929 . S
H724 C732 0.929 . S
H725 C734 0.930 . S
H726 C736 0.930 . S
H727 C739 0.929 . S
H728 C742 0.930 . S
H729 C744 0.960 . S
H730 C744 0.960 . S
H731 C744 0.960 . S
C732 H724 0.929 . S
C732 C733 1.377 . S
C732 C734 1.384 . S
C733 C732 1.377 . S
C733 C739 1.390 . S
C734 H725 0.930 . S
C734 C732 1.384 . S
C734 C735 1.372 . S
C735 C734 1.372 . S
C735 C736 1.400 . S
C735 C740 1.490 . S
C736 H726 0.930 . S
C736 C735 1.400 . S
C736 C739 1.386 . S
H737 C753 0.930 . S
H738 C754 0.931 . S
C739 H727 0.929 . S
C739 C733 1.390 . S
C739 C736 1.386 . S
C740 C735 1.490 . S
C740 C742 1.395 . S
C740 C743 1.403 . S
H741 C747 0.930 . S
C742 H728 0.930 . S
C742 C740 1.395 . S
C742 C745 1.403 . S
C743 C740 1.403 . S
C743 C744 1.524 . S
C743 C747 1.400 . S
C744 H729 0.960 . S
C744 H730 0.960 . S
C744 H731 0.960 . S
C744 C743 1.524 . S
C745 C742 1.403 . S
C745 C746 1.392 . S
C745 C749 1.495 . S
C746 C745 1.392 . S
C746 C747 1.385 . S
C746 C748 1.478 . S
C747 H741 0.930 . S
C747 C743 1.400 . S
C747 C746 1.385 . S
C748 C746 1.478 . S
C748 C750 1.381 . S
C748 C754 1.383 . S
C749 C745 1.495 . S
C749 H755 0.959 . S
C749 H756 0.961 . S
C749 H757 0.960 . S
C750 C748 1.381 . S
C750 C751 1.394 . S
C750 H758 0.930 . S
C751 C750 1.394 . S
C751 C752 1.383 . S
C751 H759 0.929 . S
C752 C751 1.383 . S
C752 C753 1.377 . S
C753 H737 0.930 . S
C753 C752 1.377 . S
C753 C754 1.379 . S
C754 H738 0.931 . S
C754 C748 1.383 . S
C754 C753 1.379 . S
H755 C749 0.959 . S
H756 C749 0.961 . S
H757 C749 0.960 . S
H758 C750 0.930 . S
H759 C751 0.929 . S
H760 C768 0.929 . S
H761 C770 0.930 . S
H762 C772 0.930 . S
H763 C775 0.929 . S
H764 C778 0.930 . S
H765 C780 0.960 . S
H766 C780 0.960 . S
H767 C780 0.960 . S
C768 H760 0.929 . S
C768 C769 1.377 . S
C768 C770 1.384 . S
C769 C768 1.377 . S
C769 C775 1.390 . S
C770 H761 0.930 . S
C770 C768 1.384 . S
C770 C771 1.372 . S
C771 C770 1.372 . S
C771 C772 1.400 . S
C771 C776 1.490 . S
C772 H762 0.930 . S
C772 C771 1.400 . S
C772 C775 1.386 . S
H773 C789 0.930 . S
H774 C790 0.931 . S
C775 H763 0.929 . S
C775 C769 1.390 . S
C775 C772 1.386 . S
C776 C771 1.490 . S
C776 C778 1.395 . S
C776 C779 1.403 . S
H777 C783 0.930 . S
C778 H764 0.930 . S
C778 C776 1.395 . S
C778 C781 1.403 . S
C779 C776 1.403 . S
C779 C780 1.524 . S
C779 C783 1.400 . S
C780 H765 0.960 . S
C780 H766 0.960 . S
C780 H767 0.960 . S
C780 C779 1.524 . S
C781 C778 1.403 . S
C781 C782 1.392 . S
C781 C785 1.495 . S
C782 C781 1.392 . S
C782 C783 1.385 . S
C782 C784 1.478 . S
C783 H777 0.930 . S
C783 C779 1.400 . S
C783 C782 1.385 . S
C784 C782 1.478 . S
C784 C786 1.381 . S
C784 C790 1.383 . S
C785 C781 1.495 . S
C785 H791 0.959 . S
C785 H792 0.961 . S
C785 H793 0.960 . S
C786 C784 1.381 . S
C786 C787 1.394 . S
C786 H794 0.930 . S
C787 C786 1.394 . S
C787 C788 1.383 . S
C787 H795 0.929 . S
C788 C787 1.383 . S
C788 C789 1.377 . S
C789 H773 0.930 . S
C789 C788 1.377 . S
C789 C790 1.379 . S
C790 H774 0.931 . S
C790 C784 1.383 . S
C790 C789 1.379 . S
H791 C785 0.959 . S
H792 C785 0.961 . S
H793 C785 0.960 . S
H794 C786 0.930 . S
H795 C787 0.929 . S
H796 C804 0.929 . S
H797 C806 0.930 . S
H798 C808 0.930 . S
H799 C811 0.929 . S
H800 C814 0.930 . S
H801 C816 0.960 . S
H802 C816 0.960 . S
H803 C816 0.960 . S
C804 H796 0.929 . S
C804 C805 1.377 . S
C804 C806 1.384 . S
C805 C804 1.377 . S
C805 C811 1.390 . S
C806 H797 0.930 . S
C806 C804 1.384 . S
C806 C807 1.372 . S
C807 C806 1.372 . S
C807 C808 1.400 . S
C807 C812 1.490 . S
C808 H798 0.930 . S
C808 C807 1.400 . S
C808 C811 1.386 . S
H809 C825 0.930 . S
H810 C826 0.931 . S
C811 H799 0.929 . S
C811 C805 1.390 . S
C811 C808 1.386 . S
C812 C807 1.490 . S
C812 C814 1.395 . S
C812 C815 1.403 . S
H813 C819 0.930 . S
C814 H800 0.930 . S
C814 C812 1.395 . S
C814 C817 1.403 . S
C815 C812 1.403 . S
C815 C816 1.524 . S
C815 C819 1.400 . S
C816 H801 0.960 . S
C816 H802 0.960 . S
C816 H803 0.960 . S
C816 C815 1.524 . S
C817 C814 1.403 . S
C817 C818 1.392 . S
C817 C821 1.495 . S
C818 C817 1.392 . S
C818 C819 1.385 . S
C818 C820 1.478 . S
C819 H813 0.930 . S
C819 C815 1.400 . S
C819 C818 1.385 . S
C820 C818 1.478 . S
C820 C822 1.381 . S
C820 C826 1.383 . S
C821 C817 1.495 . S
C821 H827 0.959 . S
C821 H828 0.961 . S
C821 H829 0.960 . S
C822 C820 1.381 . S
C822 C823 1.394 . S
C822 H830 0.930 . S
C823 C822 1.394 . S
C823 C824 1.383 . S
C823 H831 0.929 . S
C824 C823 1.383 . S
C824 C825 1.377 . S
C825 H809 0.930 . S
C825 C824 1.377 . S
C825 C826 1.379 . S
C826 H810 0.931 . S
C826 C820 1.383 . S
C826 C825 1.379 . S
H827 C821 0.959 . S
H828 C821 0.961 . S
H829 C821 0.960 . S
H830 C822 0.930 . S
H831 C823 0.929 . S
H832 C840 0.929 . S
H833 C842 0.930 . S
H834 C844 0.930 . S
H835 C847 0.929 . S
H836 C850 0.930 . S
H837 C852 0.960 . S
H838 C852 0.960 . S
H839 C852 0.960 . S
C840 H832 0.929 . S
C840 C841 1.377 . S
C840 C842 1.384 . S
C841 C840 1.377 . S
C841 C847 1.390 . S
C842 H833 0.930 . S
C842 C840 1.384 . S
C842 C843 1.372 . S
C843 C842 1.372 . S
C843 C844 1.400 . S
C843 C848 1.490 . S
C844 H834 0.930 . S
C844 C843 1.400 . S
C844 C847 1.386 . S
H845 C861 0.930 . S
H846 C862 0.931 . S
C847 H835 0.929 . S
C847 C841 1.390 . S
C847 C844 1.386 . S
C848 C843 1.490 . S
C848 C850 1.395 . S
C848 C851 1.403 . S
H849 C855 0.930 . S
C850 H836 0.930 . S
C850 C848 1.395 . S
C850 C853 1.403 . S
C851 C848 1.403 . S
C851 C852 1.524 . S
C851 C855 1.400 . S
C852 H837 0.960 . S
C852 H838 0.960 . S
C852 H839 0.960 . S
C852 C851 1.524 . S
C853 C850 1.403 . S
C853 C854 1.392 . S
C853 C857 1.495 . S
C854 C853 1.392 . S
C854 C855 1.385 . S
C854 C856 1.478 . S
C855 H849 0.930 . S
C855 C851 1.400 . S
C855 C854 1.385 . S
C856 C854 1.478 . S
C856 C858 1.381 . S
C856 C862 1.383 . S
C857 C853 1.495 . S
C857 H863 0.959 . S
C857 H864 0.961 . S
C857 H865 0.960 . S
C858 C856 1.381 . S
C858 C859 1.394 . S
C858 H866 0.930 . S
C859 C858 1.394 . S
C859 C860 1.383 . S
C859 H867 0.929 . S
C860 C859 1.383 . S
C860 C861 1.377 . S
C861 H845 0.930 . S
C861 C860 1.377 . S
C861 C862 1.379 . S
C862 H846 0.931 . S
C862 C856 1.383 . S
C862 C861 1.379 . S
H863 C857 0.959 . S
H864 C857 0.961 . S
H865 C857 0.960 . S
H866 C858 0.930 . S
H867 C859 0.929 . S
H868 C876 0.929 . S
H869 C878 0.930 . S
H870 C880 0.930 . S
H871 C883 0.929 . S
H872 C886 0.930 . S
H873 C888 0.960 . S
H874 C888 0.960 . S
H875 C888 0.960 . S
C876 H868 0.929 . S
C876 C877 1.377 . S
C876 C878 1.384 . S
C877 C876 1.377 . S
C877 C883 1.390 . S
C878 H869 0.930 . S
C878 C876 1.384 . S
C878 C879 1.372 . S
C879 C878 1.372 . S
C879 C880 1.400 . S
C879 C884 1.490 . S
C880 H870 0.930 . S
C880 C879 1.400 . S
C880 C883 1.386 . S
H881 C897 0.930 . S
H882 C898 0.931 . S
C883 H871 0.929 . S
C883 C877 1.390 . S
C883 C880 1.386 . S
C884 C879 1.490 . S
C884 C886 1.395 . S
C884 C887 1.403 . S
H885 C891 0.930 . S
C886 H872 0.930 . S
C886 C884 1.395 . S
C886 C889 1.403 . S
C887 C884 1.403 . S
C887 C888 1.524 . S
C887 C891 1.400 . S
C888 H873 0.960 . S
C888 H874 0.960 . S
C888 H875 0.960 . S
C888 C887 1.524 . S
C889 C886 1.403 . S
C889 C890 1.392 . S
C889 C893 1.495 . S
C890 C889 1.392 . S
C890 C891 1.385 . S
C890 C892 1.478 . S
C891 H885 0.930 . S
C891 C887 1.400 . S
C891 C890 1.385 . S
C892 C890 1.478 . S
C892 C894 1.381 . S
C892 C898 1.383 . S
C893 C889 1.495 . S
C893 H899 0.959 . S
C893 H900 0.961 . S
C893 H901 0.960 . S
C894 C892 1.381 . S
C894 C895 1.394 . S
C894 H902 0.930 . S
C895 C894 1.394 . S
C895 C896 1.383 . S
C895 H903 0.929 . S
C896 C895 1.383 . S
C896 C897 1.377 . S
C897 H881 0.930 . S
C897 C896 1.377 . S
C897 C898 1.379 . S
C898 H882 0.931 . S
C898 C892 1.383 . S
C898 C897 1.379 . S
H899 C893 0.959 . S
H900 C893 0.961 . S
H901 C893 0.960 . S
H902 C894 0.930 . S
H903 C895 0.929 . S
H904 C912 0.929 . S
H905 C914 0.930 . S
H906 C916 0.930 . S
H907 C919 0.929 . S
H908 C922 0.930 . S
H909 C924 0.960 . S
H910 C924 0.960 . S
H911 C924 0.960 . S
C912 H904 0.929 . S
C912 C913 1.377 . S
C912 C914 1.384 . S
C913 C912 1.377 . S
C913 C919 1.390 . S
C914 H905 0.930 . S
C914 C912 1.384 . S
C914 C915 1.372 . S
C915 C914 1.372 . S
C915 C916 1.400 . S
C915 C920 1.490 . S
C916 H906 0.930 . S
C916 C915 1.400 . S
C916 C919 1.386 . S
H917 C933 0.930 . S
H918 C934 0.931 . S
C919 H907 0.929 . S
C919 C913 1.390 . S
C919 C916 1.386 . S
C920 C915 1.490 . S
C920 C922 1.395 . S
C920 C923 1.403 . S
H921 C927 0.930 . S
C922 H908 0.930 . S
C922 C920 1.395 . S
C922 C925 1.403 . S
C923 C920 1.403 . S
C923 C924 1.524 . S
C923 C927 1.400 . S
C924 H909 0.960 . S
C924 H910 0.960 . S
C924 H911 0.960 . S
C924 C923 1.524 . S
C925 C922 1.403 . S
C925 C926 1.392 . S
C925 C929 1.495 . S
C926 C925 1.392 . S
C926 C927 1.385 . S
C926 C928 1.478 . S
C927 H921 0.930 . S
C927 C923 1.400 . S
C927 C926 1.385 . S
C928 C926 1.478 . S
C928 C930 1.381 . S
C928 C934 1.383 . S
C929 C925 1.495 . S
C929 H935 0.959 . S
C929 H936 0.961 . S
C929 H937 0.960 . S
C930 C928 1.381 . S
C930 C931 1.394 . S
C930 H938 0.930 . S
C931 C930 1.394 . S
C931 C932 1.383 . S
C931 H939 0.929 . S
C932 C931 1.383 . S
C932 C933 1.377 . S
C933 H917 0.930 . S
C933 C932 1.377 . S
C933 C934 1.379 . S
C934 H918 0.931 . S
C934 C928 1.383 . S
C934 C933 1.379 . S
H935 C929 0.959 . S
H936 C929 0.961 . S
H937 C929 0.960 . S
H938 C930 0.930 . S
H939 C931 0.929 . S
H940 C948 0.929 . S
H941 C950 0.930 . S
H942 C952 0.930 . S
H943 C955 0.929 . S
H944 C958 0.930 . S
H945 C960 0.960 . S
H946 C960 0.960 . S
H947 C960 0.960 . S
C948 H940 0.929 . S
C948 C949 1.377 . S
C948 C950 1.384 . S
C949 C948 1.377 . S
C949 C955 1.390 . S
C950 H941 0.930 . S
C950 C948 1.384 . S
C950 C951 1.372 . S
C951 C950 1.372 . S
C951 C952 1.400 . S
C951 C956 1.490 . S
C952 H942 0.930 . S
C952 C951 1.400 . S
C952 C955 1.386 . S
H953 C969 0.930 . S
H954 C970 0.931 . S
C955 H943 0.929 . S
C955 C949 1.390 . S
C955 C952 1.386 . S
C956 C951 1.490 . S
C956 C958 1.395 . S
C956 C959 1.403 . S
H957 C963 0.930 . S
C958 H944 0.930 . S
C958 C956 1.395 . S
C958 C961 1.403 . S
C959 C956 1.403 . S
C959 C960 1.524 . S
C959 C963 1.400 . S
C960 H945 0.960 . S
C960 H946 0.960 . S
C960 H947 0.960 . S
C960 C959 1.524 . S
C961 C958 1.403 . S
C961 C962 1.392 . S
C961 C965 1.495 . S
C962 C961 1.392 . S
C962 C963 1.385 . S
C962 C964 1.478 . S
C963 H957 0.930 . S
C963 C959 1.400 . S
C963 C962 1.385 . S
C964 C962 1.478 . S
C964 C966 1.381 . S
C964 C970 1.383 . S
C965 C961 1.495 . S
C965 H971 0.959 . S
C965 H972 0.961 . S
C965 H973 0.960 . S
C966 C964 1.381 . S
C966 C967 1.394 . S
C966 H974 0.930 . S
C967 C966 1.394 . S
C967 C968 1.383 . S
C967 H975 0.929 . S
C968 C967 1.383 . S
C968 C969 1.377 . S
C969 H953 0.930 . S
C969 C968 1.377 . S
C969 C970 1.379 . S
C970 H954 0.931 . S
C970 C964 1.383 . S
C970 C969 1.379 . S
H971 C965 0.959 . S
H972 C965 0.961 . S
H973 C965 0.960 . S
H974 C966 0.930 . S
H975 C967 0.929 . S
H976 C984 0.929 . S
H977 C986 0.930 . S
H978 C988 0.930 . S
H979 C991 0.929 . S
H980 C994 0.930 . S
H981 C996 0.960 . S
H982 C996 0.960 . S
H983 C996 0.960 . S
C984 H976 0.929 . S
C984 C985 1.377 . S
C984 C986 1.384 . S
C985 C984 1.377 . S
C985 C991 1.390 . S
C986 H977 0.930 . S
C986 C984 1.384 . S
C986 C987 1.372 . S
C987 C986 1.372 . S
C987 C988 1.400 . S
C987 C992 1.490 . S
C988 H978 0.930 . S
C988 C987 1.400 . S
C988 C991 1.386 . S
H989 C1005 0.930 . S
H990 C1006 0.931 . S
C991 H979 0.929 . S
C991 C985 1.390 . S
C991 C988 1.386 . S
C992 C987 1.490 . S
C992 C994 1.395 . S
C992 C995 1.403 . S
H993 C999 0.930 . S
C994 H980 0.930 . S
C994 C992 1.395 . S
C994 C997 1.403 . S
C995 C992 1.403 . S
C995 C996 1.524 . S
C995 C999 1.400 . S
C996 H981 0.960 . S
C996 H982 0.960 . S
C996 H983 0.960 . S
C996 C995 1.524 . S
C997 C994 1.403 . S
C997 C998 1.392 . S
C997 C1001 1.495 . S
C998 C997 1.392 . S
C998 C999 1.385 . S
C998 C1000 1.478 . S
C999 H993 0.930 . S
C999 C995 1.400 . S
C999 C998 1.385 . S
C1000 C998 1.478 . S
C1000 C1002 1.381 . S
C1000 C1006 1.383 . S
C1001 C997 1.495 . S
C1001 H1007 0.959 . S
C1001 H1008 0.961 . S
C1001 H1009 0.960 . S
C1002 C1000 1.381 . S
C1002 C1003 1.394 . S
C1002 H1010 0.930 . S
C1003 C1002 1.394 . S
C1003 C1004 1.383 . S
C1003 H1011 0.929 . S
C1004 C1003 1.383 . S
C1004 C1005 1.377 . S
C1005 H989 0.930 . S
C1005 C1004 1.377 . S
C1005 C1006 1.379 . S
C1006 H990 0.931 . S
C1006 C1000 1.383 . S
C1006 C1005 1.379 . S
H1007 C1001 0.959 . S
H1008 C1001 0.961 . S
H1009 C1001 0.960 . S
H1010 C1002 0.930 . S
H1011 C1003 0.929 . S
H1012 C1020 0.929 . S
H1013 C1022 0.930 . S
H1014 C1024 0.930 . S
H1015 C1027 0.929 . S
H1016 C1030 0.930 . S
H1017 C1032 0.960 . S
H1018 C1032 0.960 . S
H1019 C1032 0.960 . S
C1020 H1012 0.929 . S
C1020 C1021 1.377 . S
C1020 C1022 1.384 . S
C1021 C1020 1.377 . S
C1021 C1027 1.390 . S
C1022 H1013 0.930 . S
C1022 C1020 1.384 . S
C1022 C1023 1.372 . S
C1023 C1022 1.372 . S
C1023 C1024 1.400 . S
C1023 C1028 1.490 . S
C1024 H1014 0.930 . S
C1024 C1023 1.400 . S
C1024 C1027 1.386 . S
H1025 C1041 0.930 . S
H1026 C1042 0.931 . S
C1027 H1015 0.929 . S
C1027 C1021 1.390 . S
C1027 C1024 1.386 . S
C1028 C1023 1.490 . S
C1028 C1030 1.395 . S
C1028 C1031 1.403 . S
H1029 C1035 0.930 . S
C1030 H1016 0.930 . S
C1030 C1028 1.395 . S
C1030 C1033 1.403 . S
C1031 C1028 1.403 . S
C1031 C1032 1.524 . S
C1031 C1035 1.400 . S
C1032 H1017 0.960 . S
C1032 H1018 0.960 . S
C1032 H1019 0.960 . S
C1032 C1031 1.524 . S
C1033 C1030 1.403 . S
C1033 C1034 1.392 . S
C1033 C1037 1.495 . S
C1034 C1033 1.392 . S
C1034 C1035 1.385 . S
C1034 C1036 1.478 . S
C1035 H1029 0.930 . S
C1035 C1031 1.400 . S
C1035 C1034 1.385 . S
C1036 C1034 1.478 . S
C1036 C1038 1.381 . S
C1036 C1042 1.383 . S
C1037 C1033 1.495 . S
C1037 H1043 0.959 . S
C1037 H1044 0.961 . S
C1037 H1045 0.960 . S
C1038 C1036 1.381 . S
C1038 C1039 1.394 . S
C1038 H1046 0.930 . S
C1039 C1038 1.394 . S
C1039 C1040 1.383 . S
C1039 H1047 0.929 . S
C1040 C1039 1.383 . S
C1040 C1041 1.377 . S
C1041 H1025 0.930 . S
C1041 C1040 1.377 . S
C1041 C1042 1.379 . S
C1042 H1026 0.931 . S
C1042 C1036 1.383 . S
C1042 C1041 1.379 . S
H1043 C1037 0.959 . S
H1044 C1037 0.961 . S
H1045 C1037 0.960 . S
H1046 C1038 0.930 . S
H1047 C1039 0.929 . S
H1048 C1056 0.929 . S
H1049 C1058 0.930 . S
H1050 C1060 0.930 . S
H1051 C1063 0.929 . S
H1052 C1066 0.930 . S
H1053 C1068 0.960 . S
H1054 C1068 0.960 1_545 S
H1055 C1068 0.960 . S
C1056 H1048 0.929 . S
C1056 C1057 1.377 . S
C1056 C1058 1.384 . S
C1057 C1056 1.377 . S
C1057 C1063 1.390 . S
C1058 H1049 0.930 . S
C1058 C1056 1.384 . S
C1058 C1059 1.372 . S
C1059 C1058 1.372 . S
C1059 C1060 1.400 . S
C1059 C1064 1.490 . S
C1060 H1050 0.930 . S
C1060 C1059 1.400 . S
C1060 C1063 1.386 . S
H1061 C1077 0.930 . S
H1062 C1078 0.931 . S
C1063 H1051 0.929 . S
C1063 C1057 1.390 . S
C1063 C1060 1.386 . S
C1064 C1059 1.490 . S
C1064 C1066 1.395 . S
C1064 C1067 1.403 . S
H1065 C1071 0.930 . S
C1066 H1052 0.930 . S
C1066 C1064 1.395 . S
C1066 C1069 1.403 1_554 S
C1067 C1064 1.403 . S
C1067 C1068 1.524 1_545 S
C1067 C1071 1.400 1_545 S
C1068 H1053 0.960 . S
C1068 H1054 0.960 1_565 S
C1068 H1055 0.960 . S
C1068 C1067 1.524 1_565 S
C1069 C1066 1.403 1_556 S
C1069 C1070 1.392 1_545 S
C1069 C1073 1.495 . S
C1070 C1069 1.392 1_565 S
C1070 C1071 1.385 1_556 S
C1070 C1072 1.478 . S
C1071 H1065 0.930 . S
C1071 C1067 1.400 1_565 S
C1071 C1070 1.385 1_554 S
C1072 C1070 1.478 . S
C1072 C1074 1.381 . S
C1072 C1078 1.383 . S
C1073 C1069 1.495 . S
C1073 H1079 0.959 . S
C1073 H1080 0.961 . S
C1073 H1081 0.960 . S
C1074 C1072 1.381 . S
C1074 C1075 1.394 . S
C1074 H1082 0.930 . S
C1075 C1074 1.394 . S
C1075 C1076 1.383 . S
C1075 H1083 0.929 . S
C1076 C1075 1.383 . S
C1076 C1077 1.377 . S
C1077 H1061 0.930 . S
C1077 C1076 1.377 . S
C1077 C1078 1.379 . S
C1078 H1062 0.931 . S
C1078 C1072 1.383 . S
C1078 C1077 1.379 . S
H1079 C1073 0.959 . S
H1080 C1073 0.961 . S
H1081 C1073 0.960 . S
H1082 C1074 0.930 . S
H1083 C1075 0.929 . S
H1084 C1092 0.929 . S
H1085 C1094 0.930 . S
H1086 C1096 0.930 . S
H1087 C1099 0.929 . S
H1088 C1102 0.930 . S
H1089 C1104 0.960 . S
H1090 C1104 0.960 . S
H1091 C1104 0.960 . S
C1092 H1084 0.929 . S
C1092 C1093 1.377 . S
C1092 C1094 1.384 . S
C1093 C1092 1.377 . S
C1093 C1099 1.390 . S
C1094 H1085 0.930 . S
C1094 C1092 1.384 . S
C1094 C1095 1.372 . S
C1095 C1094 1.372 . S
C1095 C1096 1.400 . S
C1095 C1100 1.490 . S
C1096 H1086 0.930 . S
C1096 C1095 1.400 . S
C1096 C1099 1.386 . S
H1097 C1113 0.930 . S
H1098 C1114 0.931 . S
C1099 H1087 0.929 . S
C1099 C1093 1.390 . S
C1099 C1096 1.386 . S
C1100 C1095 1.490 . S
C1100 C1102 1.395 1_655 S
C1100 C1103 1.403 1_554 S
H1101 C1107 0.930 . S
C1102 H1088 0.930 . S
C1102 C1100 1.395 1_455 S
C1102 C1105 1.403 . S
C1103 C1100 1.403 1_556 S
C1103 C1104 1.524 . S
C1103 C1107 1.400 1_655 S
C1104 H1089 0.960 . S
C1104 H1090 0.960 . S
C1104 H1091 0.960 . S
C1104 C1103 1.524 . S
C1105 C1102 1.403 . S
C1105 C1106 1.392 1_554 S
C1105 C1109 1.495 . S
C1106 C1105 1.392 1_556 S
C1106 C1107 1.385 . S
C1106 C1108 1.478 . S
C1107 H1101 0.930 . S
C1107 C1103 1.400 1_455 S
C1107 C1106 1.385 . S
C1108 C1106 1.478 . S
C1108 C1110 1.381 . S
C1108 C1114 1.383 . S
C1109 C1105 1.495 . S
C1109 H1115 0.959 . S
C1109 H1116 0.961 . S
C1109 H1117 0.960 . S
C1110 C1108 1.381 . S
C1110 C1111 1.394 . S
C1110 H1118 0.930 . S
C1111 C1110 1.394 . S
C1111 C1112 1.383 . S
C1111 H1119 0.929 . S
C1112 C1111 1.383 . S
C1112 C1113 1.377 . S
C1113 H1097 0.930 . S
C1113 C1112 1.377 . S
C1113 C1114 1.379 . S
C1114 H1098 0.931 . S
C1114 C1108 1.383 . S
C1114 C1113 1.379 . S
H1115 C1109 0.959 . S
H1116 C1109 0.961 . S
H1117 C1109 0.960 . S
H1118 C1110 0.930 . S
H1119 C1111 0.929 . S
H1120 C1128 0.929 . S
H1121 C1130 0.930 . S
H1122 C1132 0.930 . S
H1123 C1135 0.929 . S
H1124 C1138 0.930 . S
H1125 C1140 0.960 . S
H1126 C1140 0.960 . S
H1127 C1140 0.960 . S
C1128 H1120 0.929 . S
C1128 C1129 1.377 . S
C1128 C1130 1.384 . S
C1129 C1128 1.377 . S
C1129 C1135 1.390 . S
C1130 H1121 0.930 . S
C1130 C1128 1.384 . S
C1130 C1131 1.372 . S
C1131 C1130 1.372 . S
C1131 C1132 1.400 . S
C1131 C1136 1.490 . S
C1132 H1122 0.930 . S
C1132 C1131 1.400 . S
C1132 C1135 1.386 . S
H1133 C1149 0.930 . S
H1134 C1150 0.931 . S
C1135 H1123 0.929 . S
C1135 C1129 1.390 . S
C1135 C1132 1.386 . S
C1136 C1131 1.490 . S
C1136 C1138 1.395 . S
C1136 C1139 1.403 . S
H1137 C1143 0.930 1_545 S
C1138 H1124 0.930 . S
C1138 C1136 1.395 . S
C1138 C1141 1.403 1_564 S
C1139 C1136 1.403 . S
C1139 C1140 1.524 . S
C1139 C1143 1.400 1_554 S
C1140 H1125 0.960 . S
C1140 H1126 0.960 . S
C1140 H1127 0.960 . S
C1140 C1139 1.524 . S
C1141 C1138 1.403 1_546 S
C1141 C1142 1.392 . S
C1141 C1145 1.495 . S
C1142 C1141 1.392 . S
C1142 C1143 1.385 1_545 S
C1142 C1144 1.478 . S
C1143 H1137 0.930 1_565 S
C1143 C1139 1.400 1_556 S
C1143 C1142 1.385 1_565 S
C1144 C1142 1.478 . S
C1144 C1146 1.381 . S
C1144 C1150 1.383 . S
C1145 C1141 1.495 . S
C1145 H1151 0.952 1_556 S
C1145 H1152 0.961 . S
C1145 H1153 0.960 . S
C1146 C1144 1.381 . S
C1146 C1147 1.394 . S
C1146 H1154 0.930 . S
C1147 C1146 1.394 . S
C1147 C1148 1.383 . S
C1147 H1155 0.929 . S
C1148 C1147 1.383 . S
C1148 C1149 1.377 . S
C1149 H1133 0.930 . S
C1149 C1148 1.377 . S
C1149 C1150 1.379 . S
C1150 H1134 0.931 . S
C1150 C1144 1.383 . S
C1150 C1149 1.379 . S
H1151 C1145 0.952 1_554 S
H1152 C1145 0.961 . S
H1153 C1145 0.960 . S
H1154 C1146 0.930 . S
H1155 C1147 0.929 . S
H1156 C1164 0.929 . S
H1157 C1166 0.930 . S
H1158 C1168 0.930 . S
H1159 C1171 0.929 . S
H1160 C1174 0.930 . S
H1161 C1176 0.960 . S
H1162 C1176 0.960 . S
H1163 C1176 0.960 . S
C1164 H1156 0.929 . S
C1164 C1165 1.377 . S
C1164 C1166 1.384 . S
C1165 C1164 1.377 . S
C1165 C1171 1.390 . S
C1166 H1157 0.930 . S
C1166 C1164 1.384 . S
C1166 C1167 1.372 . S
C1167 C1166 1.372 . S
C1167 C1168 1.400 . S
C1167 C1172 1.490 . S
C1168 H1158 0.930 . S
C1168 C1167 1.400 . S
C1168 C1171 1.386 . S
H1169 C1185 0.930 . S
H1170 C1186 0.931 . S
C1171 H1159 0.929 . S
C1171 C1165 1.390 . S
C1171 C1168 1.386 . S
C1172 C1167 1.490 . S
C1172 C1174 1.395 . S
C1172 C1175 1.403 . S
H1173 C1179 0.930 . S
C1174 H1160 0.930 . S
C1174 C1172 1.395 . S
C1174 C1177 1.403 1_554 S
C1175 C1172 1.403 . S
C1175 C1176 1.524 . S
C1175 C1179 1.400 1_454 S
C1176 H1161 0.960 . S
C1176 H1162 0.960 . S
C1176 H1163 0.960 . S
C1176 C1175 1.524 . S
C1177 C1174 1.403 1_556 S
C1177 C1178 1.392 1_455 S
C1177 C1181 1.495 1_455 S
C1178 C1177 1.392 1_655 S
C1178 C1179 1.385 . S
C1178 C1180 1.478 . S
C1179 H1173 0.930 . S
C1179 C1175 1.400 1_656 S
C1179 C1178 1.385 . S
C1180 C1178 1.478 . S
C1180 C1182 1.381 . S
C1180 C1186 1.383 . S
C1181 C1177 1.495 1_655 S
C1181 H1187 0.959 1_655 S
C1181 H1188 0.961 . S
C1181 H1189 0.960 . S
C1182 C1180 1.381 . S
C1182 C1183 1.394 . S
C1182 H1190 0.930 . S
C1183 C1182 1.394 . S
C1183 C1184 1.383 . S
C1183 H1191 0.929 . S
C1184 C1183 1.383 . S
C1184 C1185 1.377 . S
C1185 H1169 0.930 . S
C1185 C1184 1.377 . S
C1185 C1186 1.379 . S
C1186 H1170 0.931 . S
C1186 C1180 1.383 . S
C1186 C1185 1.379 . S
H1187 C1181 0.959 1_455 S
H1188 C1181 0.961 . S
H1189 C1181 0.960 . S
H1190 C1182 0.930 . S
H1191 C1183 0.929 . S
H1192 C1200 0.929 . S
H1193 C1202 0.930 . S
H1194 C1204 0.930 . S
H1195 C1207 0.929 . S
H1196 C1210 0.930 . S
H1197 C1212 0.960 . S
H1198 C1212 0.960 . S
H1199 C1212 0.960 1_565 S
C1200 H1192 0.929 . S
C1200 C1201 1.377 . S
C1200 C1202 1.384 . S
C1201 C1200 1.377 . S
C1201 C1207 1.390 . S
C1202 H1193 0.930 . S
C1202 C1200 1.384 . S
C1202 C1203 1.372 . S
C1203 C1202 1.372 . S
C1203 C1204 1.400 . S
C1203 C1208 1.490 . S
C1204 H1194 0.930 . S
C1204 C1203 1.400 . S
C1204 C1207 1.386 . S
H1205 C1221 0.930 . S
H1206 C1222 0.931 . S
C1207 H1195 0.929 . S
C1207 C1201 1.390 . S
C1207 C1204 1.386 . S
C1208 C1203 1.490 . S
C1208 C1210 1.395 1_655 S
C1208 C1211 1.403 1_565 S
H1209 C1215 0.930 . S
C1210 H1196 0.930 . S
C1210 C1208 1.395 1_455 S
C1210 C1213 1.403 . S
C1211 C1208 1.403 1_545 S
C1211 C1212 1.524 . S
C1211 C1215 1.400 . S
C1212 H1197 0.960 . S
C1212 H1198 0.960 . S
C1212 H1199 0.960 1_545 S
C1212 C1211 1.524 . S
C1213 C1210 1.403 . S
C1213 C1214 1.392 1_565 S
C1213 C1217 1.495 . S
C1214 C1213 1.392 1_545 S
C1214 C1215 1.385 1_455 S
C1214 C1216 1.478 . S
C1215 H1209 0.930 . S
C1215 C1211 1.400 . S
C1215 C1214 1.385 1_655 S
C1216 C1214 1.478 . S
C1216 C1218 1.381 . S
C1216 C1222 1.383 . S
C1217 C1213 1.495 . S
C1217 H1223 0.959 . S
C1217 H1224 0.961 . S
C1217 H1225 0.960 . S
C1218 C1216 1.381 . S
C1218 C1219 1.394 . S
C1218 H1226 0.930 . S
C1219 C1218 1.394 . S
C1219 C1220 1.383 . S
C1219 H1227 0.929 . S
C1220 C1219 1.383 . S
C1220 C1221 1.377 . S
C1221 H1205 0.930 . S
C1221 C1220 1.377 . S
C1221 C1222 1.379 . S
C1222 H1206 0.931 . S
C1222 C1216 1.383 . S
C1222 C1221 1.379 . S
H1223 C1217 0.959 . S
H1224 C1217 0.961 . S
H1225 C1217 0.960 . S
H1226 C1218 0.930 . S
H1227 C1219 0.929 . S
H1228 C1236 0.929 . S
H1229 C1238 0.930 . S
H1230 C1240 0.930 . S
H1231 C1243 0.929 . S
H1232 C1246 0.930 . S
H1233 C1248 0.960 . S
H1234 C1248 0.960 . S
H1235 C1248 0.960 . S
C1236 H1228 0.929 . S
C1236 C1237 1.377 . S
C1236 C1238 1.384 . S
C1237 C1236 1.377 . S
C1237 C1243 1.390 . S
C1238 H1229 0.930 . S
C1238 C1236 1.384 . S
C1238 C1239 1.372 . S
C1239 C1238 1.372 . S
C1239 C1240 1.400 . S
C1239 C1244 1.490 . S
C1240 H1230 0.930 . S
C1240 C1239 1.400 . S
C1240 C1243 1.386 . S
H1241 C1257 0.930 . S
H1242 C1258 0.931 . S
C1243 H1231 0.929 . S
C1243 C1237 1.390 . S
C1243 C1240 1.386 . S
C1244 C1239 1.490 . S
C1244 C1246 1.395 1_565 S
C1244 C1247 1.403 1_455 S
H1245 C1251 0.930 . S
C1246 H1232 0.930 . S
C1246 C1244 1.395 1_545 S
C1246 C1249 1.403 . S
C1247 C1244 1.403 1_655 S
C1247 C1248 1.524 . S
C1247 C1251 1.400 1_565 S
C1248 H1233 0.960 . S
C1248 H1234 0.960 . S
C1248 H1235 0.960 . S
C1248 C1247 1.524 . S
C1249 C1246 1.403 . S
C1249 C1250 1.392 1_455 S
C1249 C1253 1.495 . S
C1250 C1249 1.392 1_655 S
C1250 C1251 1.385 . S
C1250 C1252 1.478 . S
C1251 H1245 0.930 . S
C1251 C1247 1.400 1_545 S
C1251 C1250 1.385 . S
C1252 C1250 1.478 . S
C1252 C1254 1.381 . S
C1252 C1258 1.383 . S
C1253 C1249 1.495 . S
C1253 H1259 0.959 . S
C1253 H1260 0.961 . S
C1253 H1261 0.960 . S
C1254 C1252 1.381 . S
C1254 C1255 1.394 . S
C1254 H1262 0.930 . S
C1255 C1254 1.394 . S
C1255 C1256 1.383 . S
C1255 H1263 0.929 . S
C1256 C1255 1.383 . S
C1256 C1257 1.377 . S
C1257 H1241 0.930 . S
C1257 C1256 1.377 . S
C1257 C1258 1.379 . S
C1258 H1242 0.931 . S
C1258 C1252 1.383 . S
C1258 C1257 1.379 . S
H1259 C1253 0.959 . S
H1260 C1253 0.961 . S
H1261 C1253 0.960 . S
H1262 C1254 0.930 . S
H1263 C1255 0.929 . S
H1264 C1272 0.929 . S
H1265 C1274 0.930 . S
H1266 C1276 0.930 . S
H1267 C1279 0.929 . S
H1268 C1282 0.930 . S
H1269 C1284 0.960 . S
H1270 C1284 0.960 . S
H1271 C1284 0.960 . S
C1272 H1264 0.929 . S
C1272 C1273 1.377 . S
C1272 C1274 1.384 . S
C1273 C1272 1.377 . S
C1273 C1279 1.390 . S
C1274 H1265 0.930 . S
C1274 C1272 1.384 . S
C1274 C1275 1.372 . S
C1275 C1274 1.372 . S
C1275 C1276 1.400 . S
C1275 C1280 1.490 . S
C1276 H1266 0.930 . S
C1276 C1275 1.400 . S
C1276 C1279 1.386 . S
H1277 C1293 0.930 . S
H1278 C1294 0.931 . S
C1279 H1267 0.929 . S
C1279 C1273 1.390 . S
C1279 C1276 1.386 . S
C1280 C1275 1.490 . S
C1280 C1282 1.395 . S
C1280 C1283 1.403 . S
H1281 C1287 0.930 . S
C1282 H1268 0.930 . S
C1282 C1280 1.395 . S
C1282 C1285 1.403 . S
C1283 C1280 1.403 . S
C1283 C1284 1.524 . S
C1283 C1287 1.400 . S
C1284 H1269 0.960 . S
C1284 H1270 0.960 . S
C1284 H1271 0.960 . S
C1284 C1283 1.524 . S
C1285 C1282 1.403 . S
C1285 C1286 1.392 . S
C1285 C1289 1.495 . S
C1286 C1285 1.392 . S
C1286 C1287 1.385 . S
C1286 C1288 1.478 . S
C1287 H1281 0.930 . S
C1287 C1283 1.400 . S
C1287 C1286 1.385 . S
C1288 C1286 1.478 . S
C1288 C1290 1.381 . S
C1288 C1294 1.383 . S
C1289 C1285 1.495 . S
C1289 H1295 0.959 . S
C1289 H1296 0.961 . S
C1289 H1297 0.960 . S
C1290 C1288 1.381 . S
C1290 C1291 1.394 . S
C1290 H1298 0.930 . S
C1291 C1290 1.394 . S
C1291 C1292 1.383 . S
C1291 H1299 0.929 . S
C1292 C1291 1.383 . S
C1292 C1293 1.377 . S
C1293 H1277 0.930 . S
C1293 C1292 1.377 . S
C1293 C1294 1.379 . S
C1294 H1278 0.931 . S
C1294 C1288 1.383 . S
C1294 C1293 1.379 . S
H1295 C1289 0.959 . S
H1296 C1289 0.961 . S
H1297 C1289 0.960 . S
H1298 C1290 0.930 . S
H1299 C1291 0.929 . S
H1300 C1308 0.929 . S
H1301 C1310 0.930 . S
H1302 C1312 0.930 . S
H1303 C1315 0.929 . S
H1304 C1318 0.930 . S
H1305 C1320 0.960 . S
H1306 C1320 0.960 . S
H1307 C1320 0.960 . S
C1308 H1300 0.929 . S
C1308 C1309 1.377 . S
C1308 C1310 1.384 . S
C1309 C1308 1.377 . S
C1309 C1315 1.390 . S
C1310 H1301 0.930 . S
C1310 C1308 1.384 . S
C1310 C1311 1.372 . S
C1311 C1310 1.372 . S
C1311 C1312 1.400 . S
C1311 C1316 1.490 . S
C1312 H1302 0.930 . S
C1312 C1311 1.400 . S
C1312 C1315 1.386 . S
H1313 C1329 0.930 . S
H1314 C1330 0.931 . S
C1315 H1303 0.929 . S
C1315 C1309 1.390 . S
C1315 C1312 1.386 . S
C1316 C1311 1.490 . S
C1316 C1318 1.395 . S
C1316 C1319 1.403 . S
H1317 C1323 0.930 . S
C1318 H1304 0.930 . S
C1318 C1316 1.395 . S
C1318 C1321 1.403 . S
C1319 C1316 1.403 . S
C1319 C1320 1.524 . S
C1319 C1323 1.400 . S
C1320 H1305 0.960 . S
C1320 H1306 0.960 . S
C1320 H1307 0.960 . S
C1320 C1319 1.524 . S
C1321 C1318 1.403 . S
C1321 C1322 1.392 . S
C1321 C1325 1.495 . S
C1322 C1321 1.392 . S
C1322 C1323 1.385 . S
C1322 C1324 1.478 . S
C1323 H1317 0.930 . S
C1323 C1319 1.400 . S
C1323 C1322 1.385 . S
C1324 C1322 1.478 . S
C1324 C1326 1.381 . S
C1324 C1330 1.383 . S
C1325 C1321 1.495 . S
C1325 H1331 0.959 . S
C1325 H1332 0.961 . S
C1325 H1333 0.960 . S
C1326 C1324 1.381 . S
C1326 C1327 1.394 . S
C1326 H1334 0.930 . S
C1327 C1326 1.394 . S
C1327 C1328 1.383 . S
C1327 H1335 0.929 . S
C1328 C1327 1.383 . S
C1328 C1329 1.377 . S
C1329 H1313 0.930 . S
C1329 C1328 1.377 . S
C1329 C1330 1.379 . S
C1330 H1314 0.931 . S
C1330 C1324 1.383 . S
C1330 C1329 1.379 . S
H1331 C1325 0.959 . S
H1332 C1325 0.961 . S
H1333 C1325 0.960 . S
H1334 C1326 0.930 . S
H1335 C1327 0.929 . S
H1336 C1344 0.929 . S
H1337 C1346 0.930 . S
H1338 C1348 0.930 . S
H1339 C1351 0.929 . S
H1340 C1354 0.930 . S
H1341 C1356 0.960 . S
H1342 C1356 0.960 . S
H1343 C1356 0.960 . S
C1344 H1336 0.929 . S
C1344 C1345 1.377 . S
C1344 C1346 1.384 . S
C1345 C1344 1.377 . S
C1345 C1351 1.390 . S
C1346 H1337 0.930 . S
C1346 C1344 1.384 . S
C1346 C1347 1.372 . S
C1347 C1346 1.372 . S
C1347 C1348 1.400 . S
C1347 C1352 1.490 . S
C1348 H1338 0.930 . S
C1348 C1347 1.400 . S
C1348 C1351 1.386 . S
H1349 C1365 0.930 . S
H1350 C1366 0.931 . S
C1351 H1339 0.929 . S
C1351 C1345 1.390 . S
C1351 C1348 1.386 . S
C1352 C1347 1.490 . S
C1352 C1354 1.395 . S
C1352 C1355 1.403 . S
H1353 C1359 0.930 . S
C1354 H1340 0.930 . S
C1354 C1352 1.395 . S
C1354 C1357 1.403 . S
C1355 C1352 1.403 . S
C1355 C1356 1.524 . S
C1355 C1359 1.400 . S
C1356 H1341 0.960 . S
C1356 H1342 0.960 . S
C1356 H1343 0.960 . S
C1356 C1355 1.524 . S
C1357 C1354 1.403 . S
C1357 C1358 1.392 . S
C1357 C1361 1.495 . S
C1358 C1357 1.392 . S
C1358 C1359 1.385 . S
C1358 C1360 1.478 . S
C1359 H1353 0.930 . S
C1359 C1355 1.400 . S
C1359 C1358 1.385 . S
C1360 C1358 1.478 . S
C1360 C1362 1.381 . S
C1360 C1366 1.383 . S
C1361 C1357 1.495 . S
C1361 H1367 0.959 . S
C1361 H1368 0.961 . S
C1361 H1369 0.960 . S
C1362 C1360 1.381 . S
C1362 C1363 1.394 . S
C1362 H1370 0.930 . S
C1363 C1362 1.394 . S
C1363 C1364 1.383 . S
C1363 H1371 0.929 . S
C1364 C1363 1.383 . S
C1364 C1365 1.377 . S
C1365 H1349 0.930 . S
C1365 C1364 1.377 . S
C1365 C1366 1.379 . S
C1366 H1350 0.931 . S
C1366 C1360 1.383 . S
C1366 C1365 1.379 . S
H1367 C1361 0.959 . S
H1368 C1361 0.961 . S
H1369 C1361 0.960 . S
H1370 C1362 0.930 . S
H1371 C1363 0.929 . S
H1372 C1380 0.929 . S
H1373 C1382 0.930 . S
H1374 C1384 0.930 . S
H1375 C1387 0.929 . S
H1376 C1390 0.930 . S
H1377 C1392 0.960 . S
H1378 C1392 0.960 . S
H1379 C1392 0.960 . S
C1380 H1372 0.929 . S
C1380 C1381 1.377 . S
C1380 C1382 1.384 . S
C1381 C1380 1.377 . S
C1381 C1387 1.390 . S
C1382 H1373 0.930 . S
C1382 C1380 1.384 . S
C1382 C1383 1.372 . S
C1383 C1382 1.372 . S
C1383 C1384 1.400 . S
C1383 C1388 1.490 . S
C1384 H1374 0.930 . S
C1384 C1383 1.400 . S
C1384 C1387 1.386 . S
H1385 C1401 0.930 . S
H1386 C1402 0.931 . S
C1387 H1375 0.929 . S
C1387 C1381 1.390 . S
C1387 C1384 1.386 . S
C1388 C1383 1.490 . S
C1388 C1390 1.395 . S
C1388 C1391 1.403 . S
H1389 C1395 0.930 . S
C1390 H1376 0.930 . S
C1390 C1388 1.395 . S
C1390 C1393 1.403 . S
C1391 C1388 1.403 . S
C1391 C1392 1.524 . S
C1391 C1395 1.400 . S
C1392 H1377 0.960 . S
C1392 H1378 0.960 . S
C1392 H1379 0.960 . S
C1392 C1391 1.524 . S
C1393 C1390 1.403 . S
C1393 C1394 1.392 . S
C1393 C1397 1.495 . S
C1394 C1393 1.392 . S
C1394 C1395 1.385 . S
C1394 C1396 1.478 . S
C1395 H1389 0.930 . S
C1395 C1391 1.400 . S
C1395 C1394 1.385 . S
C1396 C1394 1.478 . S
C1396 C1398 1.381 . S
C1396 C1402 1.383 . S
C1397 C1393 1.495 . S
C1397 H1403 0.959 . S
C1397 H1404 0.961 . S
C1397 H1405 0.960 . S
C1398 C1396 1.381 . S
C1398 C1399 1.394 . S
C1398 H1406 0.930 . S
C1399 C1398 1.394 . S
C1399 C1400 1.383 . S
C1399 H1407 0.929 . S
C1400 C1399 1.383 . S
C1400 C1401 1.377 . S
C1401 H1385 0.930 . S
C1401 C1400 1.377 . S
C1401 C1402 1.379 . S
C1402 H1386 0.931 . S
C1402 C1396 1.383 . S
C1402 C1401 1.379 . S
H1403 C1397 0.959 . S
H1404 C1397 0.961 . S
H1405 C1397 0.960 . S
H1406 C1398 0.930 . S
H1407 C1399 0.929 . S
H1408 C1416 0.929 . S
H1409 C1418 0.930 . S
H1410 C1420 0.930 . S
H1411 C1423 0.929 . S
H1412 C1426 0.930 . S
H1413 C1428 0.960 . S
H1414 C1428 0.960 . S
H1415 C1428 0.960 . S
C1416 H1408 0.929 . S
C1416 C1417 1.377 . S
C1416 C1418 1.384 . S
C1417 C1416 1.377 . S
C1417 C1423 1.390 . S
C1418 H1409 0.930 . S
C1418 C1416 1.384 . S
C1418 C1419 1.372 . S
C1419 C1418 1.372 . S
C1419 C1420 1.400 . S
C1419 C1424 1.490 . S
C1420 H1410 0.930 . S
C1420 C1419 1.400 . S
C1420 C1423 1.386 . S
H1421 C1437 0.930 . S
H1422 C1438 0.931 . S
C1423 H1411 0.929 . S
C1423 C1417 1.390 . S
C1423 C1420 1.386 . S
C1424 C1419 1.490 . S
C1424 C1426 1.395 . S
C1424 C1427 1.403 . S
H1425 C1431 0.930 . S
C1426 H1412 0.930 . S
C1426 C1424 1.395 . S
C1426 C1429 1.403 . S
C1427 C1424 1.403 . S
C1427 C1428 1.524 . S
C1427 C1431 1.400 . S
C1428 H1413 0.960 . S
C1428 H1414 0.960 . S
C1428 H1415 0.960 . S
C1428 C1427 1.524 . S
C1429 C1426 1.403 . S
C1429 C1430 1.392 . S
C1429 C1433 1.495 . S
C1430 C1429 1.392 . S
C1430 C1431 1.385 . S
C1430 C1432 1.478 . S
C1431 H1425 0.930 . S
C1431 C1427 1.400 . S
C1431 C1430 1.385 . S
C1432 C1430 1.478 . S
C1432 C1434 1.381 . S
C1432 C1438 1.383 . S
C1433 C1429 1.495 . S
C1433 H1439 0.959 . S
C1433 H1440 0.961 . S
C1433 H1441 0.960 . S
C1434 C1432 1.381 . S
C1434 C1435 1.394 . S
C1434 H1442 0.930 . S
C1435 C1434 1.394 . S
C1435 C1436 1.383 . S
C1435 H1443 0.929 . S
C1436 C1435 1.383 . S
C1436 C1437 1.377 . S
C1437 H1421 0.930 . S
C1437 C1436 1.377 . S
C1437 C1438 1.379 . S
C1438 H1422 0.931 . S
C1438 C1432 1.383 . S
C1438 C1437 1.379 . S
H1439 C1433 0.959 . S
H1440 C1433 0.961 . S
H1441 C1433 0.960 . S
H1442 C1434 0.930 . S
H1443 C1435 0.929 . S
H1444 C1452 0.929 . S
H1445 C1454 0.930 . S
H1446 C1456 0.930 . S
H1447 C1459 0.929 . S
H1448 C1462 0.930 . S
H1449 C1464 0.960 . S
H1450 C1464 0.960 . S
H1451 C1464 0.960 . S
C1452 H1444 0.929 . S
C1452 C1453 1.377 . S
C1452 C1454 1.384 . S
C1453 C1452 1.377 . S
C1453 C1459 1.390 . S
C1454 H1445 0.930 . S
C1454 C1452 1.384 . S
C1454 C1455 1.372 . S
C1455 C1454 1.372 . S
C1455 C1456 1.400 . S
C1455 C1460 1.490 . S
C1456 H1446 0.930 . S
C1456 C1455 1.400 . S
C1456 C1459 1.386 . S
H1457 C1473 0.930 . S
H1458 C1474 0.931 . S
C1459 H1447 0.929 . S
C1459 C1453 1.390 . S
C1459 C1456 1.386 . S
C1460 C1455 1.490 . S
C1460 C1462 1.395 . S
C1460 C1463 1.403 . S
H1461 C1467 0.930 . S
C1462 H1448 0.930 . S
C1462 C1460 1.395 . S
C1462 C1465 1.403 . S
C1463 C1460 1.403 . S
C1463 C1464 1.524 . S
C1463 C1467 1.400 . S
C1464 H1449 0.960 . S
C1464 H1450 0.960 . S
C1464 H1451 0.960 . S
C1464 C1463 1.524 . S
C1465 C1462 1.403 . S
C1465 C1466 1.392 . S
C1465 C1469 1.495 . S
C1466 C1465 1.392 . S
C1466 C1467 1.385 . S
C1466 C1468 1.478 . S
C1467 H1461 0.930 . S
C1467 C1463 1.400 . S
C1467 C1466 1.385 . S
C1468 C1466 1.478 . S
C1468 C1470 1.381 . S
C1468 C1474 1.383 . S
C1469 C1465 1.495 . S
C1469 H1475 0.959 . S
C1469 H1476 0.961 . S
C1469 H1477 0.960 . S
C1470 C1468 1.381 . S
C1470 C1471 1.394 . S
C1470 H1478 0.930 . S
C1471 C1470 1.394 . S
C1471 C1472 1.383 . S
C1471 H1479 0.929 . S
C1472 C1471 1.383 . S
C1472 C1473 1.377 . S
C1473 H1457 0.930 . S
C1473 C1472 1.377 . S
C1473 C1474 1.379 . S
C1474 H1458 0.931 . S
C1474 C1468 1.383 . S
C1474 C1473 1.379 . S
H1475 C1469 0.959 . S
H1476 C1469 0.961 . S
H1477 C1469 0.960 . S
H1478 C1470 0.930 . S
H1479 C1471 0.929 . S
C193 C14 2.906 . S
C212 P146 2.734 . S
C229 C28 2.715 . S
C248 P169 2.727 . S
C265 P100 2.018 . S
C284 C60 2.175 . S
C301 C86 2.669 . S
C320 P123 2.678 . S
C337 P123 2.632 . S
C356 C17 2.786 . S
C373 C40 2.382 . S
C392 P146 2.395 . S
C409 P169 2.546 . S
C428 C63 2.556 . S
C445 P100 2.235 . S
C464 C83 2.264 . S
C481 P100 2.209 . S
C500 C37 2.195 . S
C517 C51 3.025 . S
C536 P123 3.034 . S
C553 C74 2.480 . S
C572 P146 2.484 . S
C589 P169 2.726 . S
C608 C5 2.925 . S
C625 P54 2.729 . S
C644 C106 2.909 . S
C661 P77 2.733 . S
C680 C120 2.704 . S
C697 P8 2.006 . S
C716 C152 2.153 . S
C733 C178 2.668 . S
C752 P31 2.677 . S
C769 P31 2.629 . S
C788 C109 2.781 . S
C805 P54 2.386 . S
C824 C132 2.387 . S
C841 P77 2.547 . S
C860 C155 2.553 . S
C877 C175 2.272 . S
C896 P8 2.217 . S
C913 P8 2.210 . S
C932 C129 2.189 . S
C949 C143 3.026 . S
C968 P31 3.030 . S
C985 P54 2.494 . S
C1004 C166 2.480 . S
C1021 P77 2.723 . S
C1040 C97 2.915 . S
C1057 C10 1.300 . S
C1076 C32 0.515 . S
C1093 C66 0.698 . S
C1112 C33 1.059 . S
C1129 C56 1.018 . S
C1148 C89 0.783 . S
C1165 C20 1.054 . S
C1184 C78 0.517 . S
C1201 C55 0.787 . S
C1220 C9 0.855 . S
C1237 C43 0.640 . S
C1256 C79 0.987 . S
C1273 C124 0.451 . S
C1292 C102 1.287 . S
C1309 C125 1.013 . S
C1328 C158 0.757 . S
C1345 C148 1.034 . S
C1364 C181 0.712 . S
C1381 C170 0.558 . S
C1400 C112 1.092 . S
C1417 C101 0.825 . S
C1436 C147 0.836 . S
C1453 C171 0.952 . S
C1472 C135 0.705 . S
