# Generated by pormake.
# Topology irl, (4)-cn, num edge types: 1
# Building blocks:
#     Node 0, Type 0, BuildingBlock: QUQFOY_clean_sbu_1, # of connection points: 4
#     Node 1, Type 0, BuildingBlock: QUQFOY_clean_sbu_1, # of connection points: 4
#     Node 2, Type 0, BuildingBlock: QUQFOY_clean_sbu_1, # of connection points: 4
#     Node 3, Type 0, BuildingBlock: QUQFOY_clean_sbu_1, # of connection points: 4
#     Node 4, Type 0, BuildingBlock: QUQFOY_clean_sbu_1, # of connection points: 4
#     Node 5, Type 0, BuildingBlock: QUQFOY_clean_sbu_1, # of connection points: 4
#     Node 6, Type 0, BuildingBlock: QUQFOY_clean_sbu_1, # of connection points: 4
#     Node 7, Type 0, BuildingBlock: QUQFOY_clean_sbu_1, # of connection points: 4
#     Edge 8, Type (0, 0), BuildingBlock: ZUJKAS_clean_linker_0, # of connection points: 2
#     Edge 9, Type (0, 0), BuildingBlock: ZUJKAS_clean_linker_0, # of connection points: 2
#     Edge 10, Type (0, 0), BuildingBlock: ZUJKAS_clean_linker_0, # of connection points: 2
#     Edge 11, Type (0, 0), BuildingBlock: ZUJKAS_clean_linker_0, # of connection points: 2
#     Edge 12, Type (0, 0), BuildingBlock: ZUJKAS_clean_linker_0, # of connection points: 2
#     Edge 13, Type (0, 0), BuildingBlock: ZUJKAS_clean_linker_0, # of connection points: 2
#     Edge 14, Type (0, 0), BuildingBlock: ZUJKAS_clean_linker_0, # of connection points: 2
#     Edge 15, Type (0, 0), BuildingBlock: ZUJKAS_clean_linker_0, # of connection points: 2
#     Edge 16, Type (0, 0), BuildingBlock: ZUJKAS_clean_linker_0, # of connection points: 2
#     Edge 17, Type (0, 0), BuildingBlock: ZUJKAS_clean_linker_0, # of connection points: 2
#     Edge 18, Type (0, 0), BuildingBlock: ZUJKAS_clean_linker_0, # of connection points: 2
#     Edge 19, Type (0, 0), BuildingBlock: ZUJKAS_clean_linker_0, # of connection points: 2
#     Edge 20, Type (0, 0), BuildingBlock: ZUJKAS_clean_linker_0, # of connection points: 2
#     Edge 21, Type (0, 0), BuildingBlock: ZUJKAS_clean_linker_0, # of connection points: 2
#     Edge 22, Type (0, 0), BuildingBlock: ZUJKAS_clean_linker_0, # of connection points: 2
#     Edge 23, Type (0, 0), BuildingBlock: ZUJKAS_clean_linker_0, # of connection points: 2
# Relax obj value: 0.044
# Max RMSD: 0.088
# Mean RMSD: 0.088
data_MOF--net-irl--node1-QUQFOY_clean_sbu_1--edge1-ZUJKAS_clean_linker_0
_symmetry_space_group_name_H-M    P1
_symmetry_Int_Tables_number       1
_symmetry_cell_setting            triclinic
loop_
_symmetry_equiv_pos_as_xyz
'x, y, z'
_cell_length_a     46.751629
_cell_length_b     57.690072
_cell_length_c     37.334106
_cell_angle_alpha  90.052085
_cell_angle_beta   90.028303
_cell_angle_gamma 89.906638
loop_
_atom_site_label
_atom_site_type_symbol
_atom_site_fract_x
_atom_site_fract_y
_atom_site_fract_z
_atom_type_partial_charge
O0 O 0.07354 0.17999 0.07436 0.0
Cd1 Cd 0.09322 0.16564 0.03022 0.0
Cd2 Cd 0.042 0.17522 0.99987 0.0
O3 O 0.03286 0.19047 0.04904 0.0
O4 O 0.13522 0.16877 0.03924 0.0
O5 O 0.11276 0.18701 0.99539 0.0
C6 C 0.1361 0.18336 0.01307 0.0
C7 C 0.03491 0.19358 0.94478 0.0
C8 C 0.04903 0.18947 0.07646 0.0
C9 C 0.05915 0.12478 1.00584 0.0
O10 O 0.04016 0.13956 0.99728 0.0
O11 O 0.08302 0.13134 0.01876 0.0
O12 O 0.01362 0.18618 0.96353 0.0
O13 O 0.06022 0.19178 0.95841 0.0
O14 O 0.94427 0.83426 0.0774 0.0
Cd15 Cd 0.9257 0.84835 0.03237 0.0
Cd16 Cd 0.97674 0.83731 1.00336 0.0
O17 O 0.98436 0.82188 0.05274 0.0
O18 O 0.88349 0.8458 0.04001 0.0
O19 O 0.90661 0.82673 0.9975 0.0
C20 C 0.88297 0.83083 0.01429 0.0
C21 C 0.9847 0.81865 0.94866 0.0
C22 C 0.96815 0.82382 0.07998 0.0
C23 C 0.96143 0.88819 1.00818 0.0
O24 O 0.98014 0.87291 1.00073 0.0
O25 O 0.93702 0.88227 0.02017 0.0
O26 O 1.00569 0.82543 0.96849 0.0
O27 O 0.95906 0.82128 0.96093 0.0
O28 O 0.07593 0.83328 0.44925 0.0
Cd29 Cd 0.09208 0.84695 0.4963 0.0
Cd30 Cd 0.03926 0.83551 0.51866 0.0
O31 O 0.03508 0.81936 0.46943 0.0
O32 O 0.13464 0.84561 0.49008 0.0
O33 O 0.11147 0.82504 0.53063 0.0
C34 C 0.13525 0.83004 0.51488 0.0
C35 C 0.03281 0.8174 0.57391 0.0
C36 C 0.05285 0.82213 0.444 0.0
C37 C 0.05356 0.88638 0.51624 0.0
O38 O 0.0343 0.87097 0.51905 0.0
O39 O 0.07935 0.88054 0.5097 0.0
O40 O 0.01121 0.82287 0.55404 0.0
O41 O 0.05814 0.82107 0.56135 0.0
O42 O 0.93978 0.17756 0.44605 0.0
Cd43 Cd 0.92414 0.16448 0.49372 0.0
Cd44 Cd 0.97685 0.17635 0.51535 0.0
O45 O 0.98046 0.19212 0.46576 0.0
O46 O 0.88151 0.16592 0.48859 0.0
O47 O 0.90554 0.1869 0.52795 0.0
C48 C 0.88144 0.18178 0.513 0.0
C49 C 0.98503 0.19466 0.57021 0.0
C50 C 0.96267 0.18887 0.44044 0.0
C51 C 0.96294 0.1254 0.51401 0.0
O52 O 0.98212 0.14093 0.51612 0.0
O53 O 0.93703 0.13106 0.50783 0.0
O54 O 1.00594 0.18914 0.54929 0.0
O55 O 0.95931 0.19099 0.55891 0.0
O56 O 0.57642 0.67714 0.07718 0.0
Cd57 Cd 0.59647 0.66303 0.03313 0.0
Cd58 Cd 0.54514 0.67217 1.00274 0.0
O59 O 0.53538 0.68688 0.05206 0.0
O60 O 0.6383 0.66708 0.0419 0.0
O61 O 0.61514 0.68467 0.99793 0.0
C62 C 0.63864 0.68155 0.01556 0.0
C63 C 0.53428 0.6899 0.94822 0.0
C64 C 0.55166 0.68617 0.07941 0.0
C65 C 0.56392 0.62181 1.00845 0.0
O66 O 0.54491 0.63648 0.99963 0.0
O67 O 0.58749 0.6285 0.02199 0.0
O68 O 0.51466 0.68061 0.96773 0.0
O69 O 0.56003 0.69052 0.96072 0.0
O70 O 0.44544 0.33107 0.07352 0.0
Cd71 Cd 0.42729 0.34593 0.02878 0.0
Cd72 Cd 0.47911 0.33529 1.00089 0.0
O73 O 0.4867 0.32002 0.05033 0.0
O74 O 0.38505 0.34401 0.03702 0.0
O75 O 0.40721 0.32495 0.99374 0.0
C76 C 0.38388 0.32926 0.01104 0.0
C77 C 0.48549 0.31646 0.94611 0.0
C78 C 0.46963 0.32121 0.07683 0.0
C79 C 0.46352 0.38602 1.00589 0.0
O80 O 0.4823 0.37084 0.9983 0.0
O81 O 0.43905 0.37997 0.01762 0.0
O82 O 0.50708 0.32321 0.96495 0.0
O83 O 0.46023 0.31921 0.9595 0.0
O84 O 0.57671 0.33247 0.44557 0.0
Cd85 Cd 0.59279 0.34613 0.49267 0.0
Cd86 Cd 0.54106 0.33351 0.5161 0.0
O87 O 0.53738 0.3168 0.46727 0.0
O88 O 0.63542 0.34486 0.48731 0.0
O89 O 0.61168 0.32413 0.52718 0.0
C90 C 0.63568 0.32922 0.51202 0.0
C91 C 0.53332 0.3158 0.57147 0.0
C92 C 0.55428 0.32036 0.44114 0.0
C93 C 0.55332 0.3847 0.51281 0.0
O94 O 0.53464 0.36882 0.51563 0.0
O95 O 0.57933 0.37946 0.50645 0.0
O96 O 0.51229 0.32073 0.55039 0.0
O97 O 0.55895 0.31979 0.56014 0.0
O98 O 0.4404 0.67638 0.44809 0.0
Cd99 Cd 0.42342 0.66321 0.49499 0.0
Cd100 Cd 0.47624 0.67375 0.51787 0.0
O101 O 0.48185 0.68915 0.46835 0.0
O102 O 0.38107 0.66589 0.48859 0.0
O103 O 0.40507 0.68566 0.52947 0.0
C104 C 0.38111 0.68139 0.51354 0.0
C105 C 0.48678 0.69147 0.57242 0.0
C106 C 0.46402 0.68676 0.44284 0.0
C107 C 0.45977 0.623 0.51552 0.0
O108 O 0.47924 0.63817 0.51894 0.0
O109 O 0.43427 0.62918 0.50812 0.0
O110 O 0.50678 0.68368 0.55186 0.0
O111 O 0.46073 0.69056 0.56097 0.0
H112 H 0.94178 0.92502 0.04735 0.0
H113 H 0.95876 0.96511 0.04512 0.0
H114 H 0.01482 0.94738 0.9574 0.0
H115 H 0.99911 0.90708 0.96103 0.0
H116 H 0.04289 0.9719 1.00194 0.0
H117 H 0.93985 0.01689 0.98045 0.0
H118 H 0.9392 1.0 0.02067 0.0
H119 H 0.94306 0.98581 0.97789 0.0
C120 C 0.95742 0.9298 0.02728 0.0
C121 C 0.96904 0.91296 1.00428 0.0
C122 C 0.96703 0.95277 0.02587 0.0
C123 C 0.98778 0.95951 1.00065 0.0
C124 C 0.99884 0.94272 0.97712 0.0
H125 H 0.02417 0.10454 0.95676 0.0
H126 H 1.00916 0.06405 0.95391 0.0
C127 C 0.98976 0.91969 0.9791 0.0
C128 C 0.99913 0.98367 0.99986 0.0
H129 H 0.9793 0.04064 0.99775 0.0
C130 C 0.02894 0.98692 1.00068 0.0
C131 C 0.9811 1.00337 0.99771 0.0
C132 C 0.94906 1.00135 0.99373 0.0
C133 C 0.04116 0.00916 0.99964 0.0
C134 C 0.02307 0.02888 0.99937 0.0
C135 C 0.99327 0.02562 0.99831 0.0
C136 C 0.03437 0.05306 0.99956 0.0
C137 C 0.07331 0.01111 0.99781 0.0
C138 C 0.05395 0.0605 0.0258 0.0
C139 C 0.06322 0.08358 0.02679 0.0
C140 C 0.05236 0.09984 1.00228 0.0
C141 C 0.03291 0.09239 0.976 0.0
C142 C 0.02422 0.06925 0.97446 0.0
H143 H 0.08307 0.99526 0.98606 0.0
H144 H 0.08003 0.02626 0.98156 0.0
H145 H 0.08198 0.01312 0.0253 0.0
H146 H 0.06148 0.04865 0.0462 0.0
H147 H 0.07786 0.08893 0.04771 0.0
H148 H 0.99985 0.90416 0.52499 0.0
H149 H 0.98531 0.94471 0.52628 0.0
H150 H 0.07342 0.9657 0.51623 0.0
H151 H 0.08823 0.92493 0.51399 0.0
H152 H 0.99786 0.97977 0.57169 0.0
H153 H 0.03635 1.0012 0.4351 0.0
H154 H 0.03407 0.97178 0.45118 0.0
H155 H 0.06369 0.98986 0.46398 0.0
C156 C 0.01625 0.91733 0.52306 0.0
C157 C 0.04526 0.91121 0.5191 0.0
C158 C 1.00784 0.94057 0.52385 0.0
C159 C 0.02817 0.9583 0.52071 0.0
C160 C 0.05725 0.95232 0.51781 0.0
H161 H 0.01696 0.10801 0.52136 0.0
H162 H 0.03178 0.06752 0.52427 0.0
C163 C 0.06571 0.929 0.5168 0.0
C164 C 0.01867 0.98293 0.52046 0.0
H165 H 0.01931 0.0325 0.47038 0.0
C166 C 1.00248 0.99127 0.54948 0.0
C167 C 0.02453 0.99792 0.49136 0.0
C168 C 0.04037 0.98973 0.45847 0.0
C169 C 0.99241 0.01424 0.55043 0.0
C170 C 0.99851 0.02922 0.52151 0.0
C171 C 0.0147 0.02094 0.49253 0.0
C172 C 0.98889 0.05375 0.52109 0.0
C173 C 0.97577 0.02249 0.58262 0.0
C174 C 0.95975 0.05947 0.5183 0.0
C175 C 0.9511 0.08273 0.51646 0.0
C176 C 0.97147 0.10066 0.51744 0.0
C177 C 1.00061 0.09474 0.52062 0.0
C178 C 1.0092 0.07156 0.52223 0.0
H179 H 0.9774 0.01021 0.60543 0.0
H180 H 0.98348 0.03977 0.59146 0.0
H181 H 0.95286 0.02425 0.57526 0.0
H182 H 0.94376 0.04594 0.51695 0.0
H183 H 0.92852 0.08665 0.51392 0.0
H184 H 0.58211 0.58579 0.05046 0.0
H185 H 0.56536 0.54559 0.04857 0.0
H186 H 0.51439 0.56136 0.95525 0.0
H187 H 0.52982 0.60172 0.95837 0.0
H188 H 0.48358 0.53849 0.99922 0.0
H189 H 0.58667 0.49186 0.98852 0.0
H190 H 0.58544 0.50982 0.02767 0.0
H191 H 0.58415 0.52289 0.98385 0.0
C192 C 0.56774 0.58052 0.0292 0.0
C193 C 0.55734 0.59685 1.00451 0.0
C194 C 0.55824 0.55749 0.02802 0.0
C195 C 0.53885 0.55021 1.00144 0.0
C196 C 0.52927 0.56644 0.97608 0.0
H197 H 0.50132 0.40526 0.9593 0.0
H198 H 0.51756 0.44545 0.95701 0.0
C199 C 0.53821 0.58951 0.97777 0.0
C200 C 0.52712 0.52617 1.00111 0.0
H201 H 0.54586 0.46895 1.003 0.0
C202 C 0.49727 0.52329 0.99974 0.0
C203 C 0.54483 0.50624 1.00136 0.0
C204 C 0.57704 0.50784 1.00004 0.0
C205 C 0.48468 0.50119 0.99868 0.0
C206 C 0.50234 0.48126 1.00059 0.0
C207 C 0.5322 0.48415 1.00186 0.0
C208 C 0.49055 0.45724 1.00051 0.0
C209 C 0.45263 0.49958 0.99442 0.0
C210 C 0.46959 0.45037 0.02536 0.0
C211 C 0.45967 0.42746 0.02601 0.0
C212 C 0.47119 0.41082 1.00258 0.0
C213 C 0.49204 0.41771 0.97769 0.0
C214 C 0.50144 0.44068 0.97648 0.0
H215 H 0.44372 0.5154 0.98159 0.0
H216 H 0.44645 0.48432 0.97803 0.0
H217 H 0.44263 0.49796 0.02124 0.0
H218 H 0.46141 0.46253 0.04494 0.0
H219 H 0.44393 0.42255 0.04588 0.0
H220 H 0.49872 0.40124 0.5176 0.0
H221 H 0.48282 0.44146 0.5192 0.0
H222 H 0.57056 0.46437 0.51693 0.0
H223 H 0.58676 0.42396 0.51426 0.0
H224 H 0.49139 0.47564 0.5666 0.0
H225 H 0.53702 0.50113 0.43536 0.0
H226 H 0.53509 0.47132 0.44967 0.0
H227 H 0.56321 0.48985 0.46588 0.0
C228 C 0.51475 0.41478 0.51742 0.0
C229 C 0.54408 0.40931 0.51554 0.0
C230 C 0.50556 0.43782 0.51837 0.0
C231 C 0.52541 0.45601 0.51753 0.0
C232 C 0.55477 0.45066 0.51666 0.0
H233 H 0.51281 0.60497 0.52793 0.0
H234 H 0.52713 0.56437 0.52945 0.0
C235 C 0.56403 0.42754 0.5154 0.0
C236 C 0.51517 0.48046 0.51776 0.0
H237 H 0.51783 0.53141 0.47123 0.0
C238 C 0.49706 0.48779 0.54564 0.0
C239 C 0.52238 0.49631 0.49026 0.0
C240 C 0.54025 0.48924 0.45841 0.0
C241 C 0.48649 0.51061 0.54715 0.0
C242 C 0.4941 0.52647 0.51999 0.0
C243 C 0.51207 0.51917 0.49205 0.0
C244 C 0.48454 0.55101 0.52065 0.0
C245 C 0.46777 0.51777 0.57814 0.0
C246 C 0.45571 0.55701 0.51529 0.0
C247 C 0.44734 0.58038 0.51425 0.0
C248 C 0.4677 0.5981 0.5186 0.0
C249 C 0.49647 0.59187 0.5245 0.0
C250 C 0.50478 0.56863 0.52534 0.0
H251 H 0.46779 0.50467 0.59993 0.0
H252 H 0.47498 0.53465 0.58926 0.0
H253 H 0.44546 0.52 0.56856 0.0
H254 H 0.4398 0.54364 0.51122 0.0
H255 H 0.42505 0.58453 0.50954 0.0
H256 H 0.99387 0.19906 0.09687 0.0
H257 H 0.9765 0.2063 0.15784 0.0
H258 H 0.06313 0.20447 0.19733 0.0
H259 H 0.08066 0.19721 0.13676 0.0
H260 H 0.98789 0.1736 0.21429 0.0
H261 H 0.02739 0.26153 0.24864 0.0
H262 H 0.02325 0.25169 0.20294 0.0
H263 H 0.05358 0.24257 0.22894 0.0
C264 C 1.00928 0.20074 0.11839 0.0
C265 C 0.03865 0.19745 0.11195 0.0
C266 C 0.9993 0.20483 0.15321 0.0
C267 C 0.01855 0.20612 0.18204 0.0
C268 C 0.04795 0.20392 0.17542 0.0
H269 H 0.01493 0.20078 0.41271 0.0
H270 H 0.02681 0.20714 0.34958 0.0
C271 C 0.05791 0.19962 0.14076 0.0
C272 C 1.00791 0.20697 0.21944 0.0
H273 H 0.01108 0.23817 0.29718 0.0
C274 C 0.99258 0.18786 0.23233 0.0
C275 C 0.01446 0.22545 0.24295 0.0
C276 C 0.03038 0.24659 0.2302 0.0
C277 C 0.98438 0.18631 0.2684 0.0
C278 C 0.99095 0.20477 0.29208 0.0
C279 C 1.00595 0.22409 0.27903 0.0
C280 C 0.98323 0.20381 0.33067 0.0
C281 C 0.96989 0.16443 0.28106 0.0
C282 C 0.95467 0.20078 0.34122 0.0
C283 C 0.94788 0.19687 0.37716 0.0
C284 C 0.96946 0.19637 0.40342 0.0
C285 C 0.99782 0.20103 0.39315 0.0
C286 C 1.00464 0.20465 0.35706 0.0
H287 H 0.97348 0.14976 0.26227 0.0
H288 H 0.97773 0.15925 0.30798 0.0
H289 H 0.9465 0.16747 0.28279 0.0
H290 H 0.93769 0.20074 0.32149 0.0
H291 H 0.92577 0.19367 0.38423 0.0
H292 H 1.00045 0.81011 0.41676 0.0
H293 H 0.98835 0.80305 0.35396 0.0
H294 H 0.07739 0.80911 0.32524 0.0
H295 H 0.08951 0.81687 0.38772 0.0
H296 H 0.04539 0.83667 0.28547 0.0
H297 H 0.99578 0.74965 0.28557 0.0
H298 H 0.97922 0.76886 0.31719 0.0
H299 H 0.01606 0.76053 0.32315 0.0
C300 C 0.01753 0.80943 0.39719 0.0
C301 C 0.04592 0.81417 0.40723 0.0
C302 C 0.0106 0.80525 0.36126 0.0
C303 C 0.03199 0.80529 0.33481 0.0
C304 C 0.06051 0.80895 0.34512 0.0
H305 H 0.02193 0.80967 0.10007 0.0
H306 H 0.03891 0.80195 0.16108 0.0
C307 C 0.0674 0.81339 0.38089 0.0
C308 C 0.0244 0.80418 0.29615 0.0
H309 H 0.98695 0.77327 0.2336 0.0
C310 C 0.03301 0.82259 0.27405 0.0
C311 C 1.00813 0.78587 0.28121 0.0
C312 C 0.99951 0.765 0.30295 0.0
C313 C 0.02506 0.8236 0.23786 0.0
C314 C 1.00822 0.80562 0.22318 0.0
C315 C 0.99994 0.78699 0.24498 0.0
C316 C 0.99753 0.80688 0.18586 0.0
C317 C 0.03384 0.84435 0.21586 0.0
C318 C 0.9685 0.81136 0.17956 0.0
C319 C 0.95875 0.81583 0.14486 0.0
C320 C 0.97785 0.81576 0.11571 0.0
C321 C 1.00667 0.80992 0.12188 0.0
C322 C 0.01643 0.80557 0.15672 0.0
H323 H 0.04288 0.85846 0.23266 0.0
H324 H 0.05033 0.839 0.19614 0.0
H325 H 0.01525 0.85131 0.20073 0.0
H326 H 0.95358 0.81241 0.20171 0.0
H327 H 0.93638 0.8201 0.14108 0.0
H328 H 0.07386 0.80777 0.62403 0.0
H329 H 0.06671 0.80044 0.68793 0.0
H330 H 0.97532 0.80249 0.67261 0.0
H331 H 0.98224 0.80959 0.60869 0.0
H332 H 0.03892 0.832 0.7318 0.0
H333 H 0.98519 0.74649 0.73875 0.0
H334 H 1.00445 0.75611 0.69955 0.0
H335 H 0.96879 0.76646 0.70806 0.0
C336 C 0.05223 0.80612 0.63407 0.0
C337 C 0.02861 0.80934 0.61124 0.0
C338 C 0.04819 0.80196 0.67063 0.0
C339 C 0.02049 0.80072 0.68502 0.0
C340 C 0.99688 0.80292 0.66203 0.0
H341 H 0.94528 0.81098 0.89564 0.0
H342 H 0.95491 0.80409 0.83202 0.0
C343 C 1.00089 0.80712 0.62547 0.0
C344 C 0.01632 0.79987 0.72443 0.0
H345 H 0.98403 0.76962 0.7919 0.0
C346 C 0.02723 0.8182 0.74501 0.0
C347 C 1.00078 0.782 0.74153 0.0
C348 C 0.98932 0.76153 0.72092 0.0
C349 C 0.02244 0.8195 0.78204 0.0
C350 C 1.00685 0.80167 0.79921 0.0
C351 C 0.99608 0.78321 0.77872 0.0
C352 C 1.00088 0.80248 0.83826 0.0
C353 C 0.03327 0.84043 0.80221 0.0
C354 C 0.02344 0.80287 0.86306 0.0
C355 C 0.01803 0.80694 0.89935 0.0
C356 C 0.98991 0.81044 0.9116 0.0
C357 C 0.96719 0.80842 0.88707 0.0
C358 C 0.97265 0.80448 0.85069 0.0
H359 H 0.03839 0.85503 0.78394 0.0
H360 H 0.01727 0.8465 0.8221 0.0
H361 H 0.05312 0.83571 0.81681 0.0
H362 H 0.04535 0.80085 0.85415 0.0
H363 H 0.036 0.80817 0.91757 0.0
H364 H 0.98441 0.19779 0.9084 0.0
H365 H 0.97792 0.20489 0.84437 0.0
H366 H 0.06883 0.2145 0.83229 0.0
H367 H 0.07562 0.20712 0.89633 0.0
H368 H 0.9931 0.2417 0.79687 0.0
H369 H 0.05026 0.1595 0.76571 0.0
H370 H 0.03818 0.16662 0.81027 0.0
H371 H 0.06993 0.17984 0.79255 0.0
C372 C 1.00302 0.20176 0.89229 0.0
C373 C 0.03058 0.20162 0.90744 0.0
C374 C 0.99924 0.20584 0.85566 0.0
C375 C 0.02293 0.2098 0.83347 0.0
C376 C 0.05031 0.21107 0.84886 0.0
H377 H 0.03659 0.20487 0.60096 0.0
H378 H 0.04632 0.21234 0.66425 0.0
C379 C 0.05412 0.20697 0.88551 0.0
C380 C 0.01909 0.21091 0.79403 0.0
H381 H 0.03416 0.18159 0.71683 0.0
C382 C 1.00219 0.22865 0.77929 0.0
C383 C 0.03085 0.19379 0.77118 0.0
C384 C 0.04812 0.17373 0.78561 0.0
C385 C 0.99685 0.22978 0.74223 0.0
C386 C 1.00832 0.21247 0.71947 0.0
C387 C 0.02552 0.19494 0.73423 0.0
C388 C 1.00192 0.21141 0.68048 0.0
C389 C 0.97921 0.24959 0.72779 0.0
C390 C 0.97365 0.20882 0.66835 0.0
C391 C 0.96799 0.20466 0.63209 0.0
C392 C 0.99053 0.20274 0.6073 0.0
C393 C 0.01872 0.20624 0.6193 0.0
C394 C 0.02434 0.21049 0.65551 0.0
H395 H 0.97956 0.26474 0.74618 0.0
H396 H 0.98699 0.25516 0.70106 0.0
H397 H 0.95666 0.24389 0.72499 0.0
H398 H 0.95603 0.20894 0.68716 0.0
H399 H 0.94605 0.2019 0.62381 0.0
H400 H 0.49653 0.696 0.09977 0.0
H401 H 0.4792 0.70355 0.16067 0.0
H402 H 0.5658 0.70117 0.20024 0.0
H403 H 0.58328 0.69368 0.13977 0.0
H404 H 0.48926 0.67142 0.21704 0.0
H405 H 0.53171 0.75837 0.25145 0.0
H406 H 0.52796 0.74842 0.20577 0.0
H407 H 0.55765 0.73887 0.23258 0.0
C408 C 0.51193 0.69761 0.1213 0.0
C409 C 0.54128 0.69412 0.1149 0.0
C410 C 0.502 0.70189 0.15607 0.0
C411 C 0.52124 0.70315 0.18491 0.0
C412 C 0.55061 0.70069 0.17833 0.0
H413 H 0.51704 0.6968 0.41554 0.0
H414 H 0.52945 0.70308 0.35251 0.0
C415 C 0.56054 0.69624 0.14371 0.0
C416 C 0.51061 0.70425 0.2223 0.0
H417 H 0.51504 0.73521 0.30017 0.0
C418 C 0.49451 0.68553 0.23511 0.0
C419 C 0.51788 0.72251 0.24588 0.0
C420 C 0.53455 0.74331 0.23323 0.0
C421 C 0.48625 0.68416 0.27116 0.0
C422 C 0.49358 0.70238 0.29491 0.0
C423 C 0.50935 0.72131 0.28196 0.0
C424 C 0.48576 0.70157 0.33345 0.0
C425 C 0.47079 0.66269 0.28375 0.0
C426 C 0.45703 0.69959 0.34383 0.0
C427 C 0.44993 0.69575 0.37968 0.0
C428 C 0.47139 0.69422 0.406 0.0
C429 C 0.50002 0.69784 0.39592 0.0
C430 C 0.50714 0.70142 0.3599 0.0
H431 H 0.47363 0.64797 0.26485 0.0
H432 H 0.47848 0.65721 0.31059 0.0
H433 H 0.44756 0.66644 0.28565 0.0
H434 H 0.44012 0.70029 0.32402 0.0
H435 H 0.42763 0.69337 0.38661 0.0
H436 H 0.50275 0.30364 0.41755 0.0
H437 H 0.48851 0.2962 0.35545 0.0
H438 H 0.57397 0.312 0.3199 0.0
H439 H 0.58842 0.31954 0.38173 0.0
H440 H 0.49428 0.3328 0.30244 0.0
H441 H 0.5515 0.25233 0.26252 0.0
H442 H 0.54397 0.25949 0.30873 0.0
H443 H 0.57256 0.27376 0.28553 0.0
C444 C 0.5187 0.30502 0.39664 0.0
C445 C 0.54669 0.31232 0.40461 0.0
C446 C 0.51051 0.30078 0.36117 0.0
C447 C 0.53025 0.30337 0.33315 0.0
C448 C 0.55853 0.30955 0.34117 0.0
H449 H 0.52411 0.31476 0.10224 0.0
H450 H 0.53827 0.30802 0.16464 0.0
C451 C 0.56668 0.31399 0.37655 0.0
C452 C 0.52054 0.3025 0.29539 0.0
H453 H 0.52976 0.27417 0.21581 0.0
C454 C 0.50174 0.31983 0.28355 0.0
C455 C 0.53074 0.28578 0.2708 0.0
C456 C 0.55066 0.26664 0.28244 0.0
C457 C 0.49334 0.32127 0.24756 0.0
C458 C 0.50329 0.30442 0.22287 0.0
C459 C 0.52201 0.28697 0.23477 0.0
C460 C 0.49493 0.30518 0.18449 0.0
C461 C 0.47476 0.3414 0.23616 0.0
C462 C 0.46595 0.30477 0.17468 0.0
C463 C 0.45782 0.30892 0.13927 0.0
C464 C 0.47855 0.31306 0.11275 0.0
C465 C 0.50765 0.31166 0.12207 0.0
C466 C 0.51577 0.30783 0.15771 0.0
H467 H 0.47577 0.35594 0.25566 0.0
H468 H 0.48123 0.34802 0.20945 0.0
H469 H 0.45218 0.33561 0.23453 0.0
H470 H 0.44953 0.30208 0.1947 0.0
H471 H 0.43524 0.30956 0.13285 0.0
H472 H 0.4442 0.30509 0.89712 0.0
H473 H 0.45088 0.29728 0.83321 0.0
H474 H 0.54229 0.30209 0.84662 0.0
H475 H 0.53587 0.30964 0.91048 0.0
H476 H 0.47634 0.32892 0.78792 0.0
H477 H 0.53468 0.2453 0.78208 0.0
H478 H 0.51555 0.2548 0.82149 0.0
H479 H 0.55058 0.26604 0.81191 0.0
C480 C 0.46576 0.30393 0.88665 0.0
C481 C 0.4895 0.30805 0.90891 0.0
C482 C 0.46953 0.2995 0.8501 0.0
C483 C 0.49709 0.29889 0.83517 0.0
C484 C 0.52086 0.302 0.85762 0.0
H485 H 0.57234 0.31031 0.62554 0.0
H486 H 0.56231 0.30364 0.68905 0.0
C487 C 0.51712 0.30646 0.89415 0.0
C488 C 0.50088 0.29773 0.79571 0.0
H489 H 0.53496 0.26826 0.72865 0.0
C490 C 0.48881 0.31547 0.77488 0.0
C491 C 0.51742 0.28031 0.77882 0.0
C492 C 0.5301 0.26041 0.79967 0.0
C493 C 0.49352 0.31669 0.73782 0.0
C494 C 0.51026 0.29939 0.72091 0.0
C495 C 0.52206 0.28145 0.74164 0.0
C496 C 0.51657 0.30031 0.68197 0.0
C497 C 0.48145 0.33705 0.71736 0.0
C498 C 0.49431 0.29974 0.65674 0.0
C499 C 0.49994 0.30367 0.62047 0.0
C500 C 0.528 0.30802 0.6087 0.0
C501 C 0.55048 0.30708 0.63372 0.0
C502 C 0.5448 0.30327 0.67004 0.0
H503 H 0.47518 0.35149 0.73545 0.0
H504 H 0.4972 0.34371 0.69764 0.0
H505 H 0.46209 0.33144 0.70252 0.0
H506 H 0.47244 0.29699 0.66527 0.0
H507 H 0.48216 0.30407 0.60187 0.0
H508 H 0.4962 0.67001 0.90341 0.0
H509 H 0.48912 0.67766 0.83998 0.0
H510 H 0.54921 0.73434 0.84582 0.0
H511 H 0.55825 0.72517 0.90905 0.0
H512 H 0.46941 0.70919 0.80239 0.0
H513 H 0.58382 0.7027 0.76444 0.0
H514 H 0.57161 0.69629 0.809 0.0
H515 H 0.57693 0.72591 0.79513 0.0
C516 C 0.50785 0.68416 0.89119 0.0
C517 C 0.52791 0.69691 0.91102 0.0
C518 C 0.50378 0.68858 0.85482 0.0
C519 C 0.51908 0.70628 0.8375 0.0
C520 C 0.53794 0.71999 0.85793 0.0
H521 H 0.46058 0.72498 0.6131 0.0
H522 H 0.46951 0.73374 0.67648 0.0
C523 C 0.54285 0.71497 0.89419 0.0
C524 C 0.51534 0.70967 0.79808 0.0
H525 H 0.55142 0.7121 0.7186 0.0
C526 C 0.4874 0.70974 0.78408 0.0
C527 C 0.53874 0.71038 0.77394 0.0
C528 C 0.56942 0.70859 0.78632 0.0
C529 C 0.48216 0.70909 0.74703 0.0
C530 C 0.50555 0.71006 0.72288 0.0
C531 C 0.53343 0.71137 0.73691 0.0
C532 C 0.50201 0.70723 0.68332 0.0
C533 C 0.45169 0.70582 0.73458 0.0
C534 C 0.5187 0.6907 0.66509 0.0
C535 C 0.51464 0.6866 0.6286 0.0
C536 C 0.49326 0.69847 0.60959 0.0
C537 C 0.47703 0.71546 0.62731 0.0
C538 C 0.48187 0.72022 0.66366 0.0
H539 H 0.4379 0.69873 0.75618 0.0
H540 H 0.44263 0.72283 0.72661 0.0
H541 H 0.45056 0.69384 0.71133 0.0
H542 H 0.5344 0.68038 0.67931 0.0
H543 H 0.52733 0.67328 0.61566 0.0
H544 H 0.33449 0.32943 0.04999 0.0
H545 H 0.29275 0.3046 0.04222 0.0
H546 H 0.33042 0.27509 0.94707 0.0
H547 H 0.37285 0.2994 0.95542 0.0
H548 H 0.25336 0.29929 0.99134 0.0
H549 H 0.31529 0.21757 1.00461 0.0
H550 H 0.33073 0.24558 0.01368 0.0
H551 H 0.32673 0.23564 0.96826 0.0
C552 C 0.33386 0.3178 0.02722 0.0
C553 C 0.35716 0.31626 1.00351 0.0
C554 C 0.30993 0.30358 0.02281 0.0
C555 C 0.30864 0.28755 0.99452 0.0
C556 C 0.33123 0.28681 0.96971 0.0
H557 H 0.14663 0.21286 0.95693 0.0
H558 H 0.18876 0.2374 0.94798 0.0
C559 C 0.35538 0.30088 0.97432 0.0
C560 C 0.28392 0.27136 0.99189 0.0
H561 H 0.26595 0.21393 0.9928 0.0
C562 C 0.25611 0.28062 0.99147 0.0
C563 C 0.28747 0.24696 0.99254 0.0
C564 C 0.31662 0.23579 0.99514 0.0
C565 C 0.23183 0.26627 0.99231 0.0
C566 C 0.23539 0.24187 0.99251 0.0
C567 C 0.26319 0.2326 0.99229 0.0
C568 C 0.21069 0.2257 0.99577 0.0
C569 C 0.20268 0.27746 0.99462 0.0
C570 C 0.20955 0.21007 0.02455 0.0
C571 C 0.18578 0.19572 0.02933 0.0
C572 C 0.16251 0.19673 1.0055 0.0
C573 C 0.16409 0.21179 0.97593 0.0
C574 C 0.18807 0.22599 0.97096 0.0
H575 H 0.20403 0.29583 1.00344 0.0
H576 H 0.1925 0.27719 0.96777 0.0
H577 H 0.18863 0.26797 0.01353 0.0
H578 H 0.22675 0.20941 0.04398 0.0
H579 H 0.18531 0.18435 0.05239 0.0
H580 H 0.68789 0.6835 0.05463 0.0
H581 H 0.72869 0.70913 0.04584 0.0
H582 H 0.68981 0.73621 0.94976 0.0
H583 H 0.64825 0.71107 0.95912 0.0
H584 H 0.7676 0.71396 0.99458 0.0
H585 H 0.704 0.79507 1.00449 0.0
H586 H 0.68917 0.76704 0.01486 0.0
H587 H 0.69291 0.7761 0.969 0.0
C588 C 0.68802 0.69479 0.03147 0.0
C589 C 0.66466 0.69536 1.00774 0.0
C590 C 0.71142 0.70947 0.02647 0.0
C591 C 0.71214 0.725 0.99755 0.0
C592 C 0.68944 0.72487 0.97284 0.0
H593 H 0.87309 0.80082 0.95854 0.0
H594 H 0.83122 0.77598 0.94953 0.0
C595 C 0.66579 0.71033 0.97805 0.0
C596 C 0.73648 0.74149 0.99408 0.0
H597 H 0.75329 0.79914 0.99286 0.0
C598 C 0.76447 0.73259 0.994 0.0
C599 C 0.73243 0.76584 0.99376 0.0
C600 C 0.70305 0.77664 0.99587 0.0
C601 C 0.78845 0.74726 0.99439 0.0
C602 C 0.7844 0.77161 0.99371 0.0
C603 C 0.75642 0.7805 0.99303 0.0
C604 C 0.80876 0.78813 0.99668 0.0
C605 C 0.81781 0.73648 0.99724 0.0
C606 C 0.80949 0.80414 0.02503 0.0
C607 C 0.83309 0.81867 0.0298 0.0
C608 C 0.85662 0.81744 1.00642 0.0
C609 C 0.85542 0.80206 0.9772 0.0
C610 C 0.83159 0.78769 0.9722 0.0
H611 H 0.81679 0.71823 1.00666 0.0
H612 H 0.82808 0.73649 0.97046 0.0
H613 H 0.8316 0.74643 0.01595 0.0
H614 H 0.79212 0.80493 0.04419 0.0
H615 H 0.83328 0.8303 0.05259 0.0
H616 H 0.18495 0.8301 0.47658 0.0
H617 H 0.22643 0.80489 0.48448 0.0
H618 H 0.1879 0.77538 0.57895 0.0
H619 H 0.14568 0.79998 0.57032 0.0
H620 H 0.26555 0.79894 0.53458 0.0
H621 H 0.20272 0.71784 0.52203 0.0
H622 H 0.18747 0.74597 0.51321 0.0
H623 H 0.19153 0.73591 0.55856 0.0
C624 C 0.18534 0.81838 0.49923 0.0
C625 C 0.16186 0.8169 0.52263 0.0
C626 C 0.20913 0.80394 0.50372 0.0
C627 C 0.2101 0.78779 0.53183 0.0
C628 C 0.18733 0.78716 0.5564 0.0
H629 H 0.37184 0.71198 0.5688 0.0
H630 H 0.33012 0.7371 0.57784 0.0
C631 C 0.16331 0.8014 0.55164 0.0
C632 C 0.23464 0.77133 0.53451 0.0
H633 H 0.25193 0.71373 0.53447 0.0
C634 C 0.26257 0.7803 0.5347 0.0
C635 C 0.23081 0.74697 0.53418 0.0
C636 C 0.20155 0.73605 0.53163 0.0
C637 C 0.28668 0.7657 0.53392 0.0
C638 C 0.28285 0.74133 0.53416 0.0
C639 C 0.25492 0.73237 0.53465 0.0
C640 C 0.30732 0.72484 0.53101 0.0
C641 C 0.31593 0.77659 0.53115 0.0
C642 C 0.30783 0.70867 0.50287 0.0
C643 C 0.33131 0.69395 0.49815 0.0
C644 C 0.35498 0.69514 0.52135 0.0
C645 C 0.35406 0.71075 0.55029 0.0
C646 C 0.33032 0.72529 0.55528 0.0
H647 H 0.31471 0.79484 0.52174 0.0
H648 H 0.32616 0.77665 0.55797 0.0
H649 H 0.32985 0.76672 0.51249 0.0
H650 H 0.29035 0.70785 0.48385 0.0
H651 H 0.33128 0.68216 0.47555 0.0
H652 H 0.64505 0.29872 0.56714 0.0
H653 H 0.68744 0.27458 0.57726 0.0
H654 H 0.72781 0.30494 0.48465 0.0
H655 H 0.68613 0.32964 0.47527 0.0
H656 H 0.70855 0.24187 0.53694 0.0
H657 H 0.7928 0.30788 0.55308 0.0
H658 H 0.75528 0.31522 0.55387 0.0
H659 H 0.77393 0.3122 0.51185 0.0
C660 C 0.66321 0.30058 0.54938 0.0
C661 C 0.66226 0.31623 0.52053 0.0
C662 C 0.68742 0.28671 0.55512 0.0
C663 C 0.71114 0.28813 0.53209 0.0
C664 C 0.71027 0.30394 0.50351 0.0
H665 H 0.83083 0.1811 0.47657 0.0
H666 H 0.78929 0.20599 0.48562 0.0
C667 C 0.68626 0.318 0.49802 0.0
C668 C 0.73584 0.27194 0.53616 0.0
H669 H 0.80887 0.26961 0.53624 0.0
C670 C 0.73047 0.24799 0.53732 0.0
C671 C 0.76453 0.27977 0.5374 0.0
C672 C 0.77195 0.30519 0.5394 0.0
C673 C 0.75289 0.23172 0.53805 0.0
C674 C 0.78157 0.23954 0.53641 0.0
C675 C 0.78695 0.2635 0.53693 0.0
C676 C 0.80624 0.2233 0.53254 0.0
C677 C 0.74548 0.20633 0.54074 0.0
C678 C 0.83008 0.22493 0.55537 0.0
C679 C 0.85422 0.21095 0.54981 0.0
C680 C 0.85497 0.19496 0.52136 0.0
C681 C 0.83086 0.19299 0.49904 0.0
C682 C 0.80692 0.20716 0.50433 0.0
H683 H 0.72471 0.2038 0.55464 0.0
H684 H 0.74335 0.199 0.51338 0.0
H685 H 0.76223 0.19647 0.55534 0.0
H686 H 0.8302 0.23731 0.57722 0.0
H687 H 0.87248 0.21296 0.56741 0.0
loop_
_geom_bond_atom_site_label_1
_geom_bond_atom_site_label_2
_geom_bond_distance
_geom_bond_site_symmetry_2
_ccdc_geom_bond_type
O0 Cd1 2.223 . S
O0 C8 1.315 . S
Cd1 O0 2.223 . S
Cd1 O4 2.297 . S
Cd1 O5 2.439 . S
Cd1 O11 2.240 . S
Cd2 O3 2.240 . S
Cd2 O10 2.223 . S
Cd2 O12 2.297 1_554 S
Cd2 O13 2.439 1_554 S
O3 Cd2 2.240 . S
O3 C8 1.279 . S
O4 Cd1 2.297 . S
O4 C6 1.247 . S
O5 Cd1 2.439 . S
O5 C6 1.208 . S
C6 O4 1.247 . S
C6 O5 1.208 . S
C7 O12 1.247 . S
C7 O13 1.208 . S
C8 O0 1.315 . S
C8 O3 1.279 . S
C9 O10 1.315 . S
C9 O11 1.279 . S
O10 Cd2 2.223 . S
O10 C9 1.315 . S
O11 Cd1 2.240 . S
O11 C9 1.279 . S
O12 Cd2 2.297 1_556 S
O12 C7 1.247 . S
O13 Cd2 2.439 1_556 S
O13 C7 1.208 . S
O14 Cd15 2.223 . S
O14 C22 1.315 . S
Cd15 O14 2.223 . S
Cd15 O18 2.297 . S
Cd15 O19 2.439 . S
Cd15 O25 2.240 . S
Cd16 O17 2.240 . S
Cd16 O24 2.223 . S
Cd16 O26 2.297 1_554 S
Cd16 O27 2.439 1_554 S
O17 Cd16 2.240 . S
O17 C22 1.279 . S
O18 Cd15 2.297 . S
O18 C20 1.247 . S
O19 Cd15 2.439 . S
O19 C20 1.208 . S
C20 O18 1.247 . S
C20 O19 1.208 . S
C21 O26 1.247 . S
C21 O27 1.208 . S
C22 O14 1.315 . S
C22 O17 1.279 . S
C23 O24 1.315 . S
C23 O25 1.279 . S
O24 Cd16 2.223 . S
O24 C23 1.315 . S
O25 Cd15 2.240 . S
O25 C23 1.279 . S
O26 Cd16 2.297 1_556 S
O26 C21 1.247 . S
O27 Cd16 2.439 1_556 S
O27 C21 1.208 . S
O28 Cd29 2.223 . S
O28 C36 1.315 . S
Cd29 O28 2.223 . S
Cd29 O32 2.297 . S
Cd29 O33 2.439 . S
Cd29 O39 2.240 . S
Cd30 O31 2.240 . S
Cd30 O38 2.223 . S
Cd30 O40 2.297 . S
Cd30 O41 2.439 . S
O31 Cd30 2.240 . S
O31 C36 1.279 . S
O32 Cd29 2.297 . S
O32 C34 1.247 . S
O33 Cd29 2.439 . S
O33 C34 1.208 . S
C34 O32 1.247 . S
C34 O33 1.208 . S
C35 O40 1.247 . S
C35 O41 1.208 . S
C36 O28 1.315 . S
C36 O31 1.279 . S
C37 O38 1.315 . S
C37 O39 1.279 . S
O38 Cd30 2.223 . S
O38 C37 1.315 . S
O39 Cd29 2.240 . S
O39 C37 1.279 . S
O40 Cd30 2.297 . S
O40 C35 1.247 . S
O41 Cd30 2.439 . S
O41 C35 1.208 . S
O42 Cd43 2.223 . S
O42 C50 1.315 . S
Cd43 O42 2.223 . S
Cd43 O46 2.297 . S
Cd43 O47 2.439 . S
Cd43 O53 2.240 . S
Cd44 O45 2.240 . S
Cd44 O52 2.223 . S
Cd44 O54 2.297 . S
Cd44 O55 2.439 . S
O45 Cd44 2.240 . S
O45 C50 1.279 . S
O46 Cd43 2.297 . S
O46 C48 1.247 . S
O47 Cd43 2.439 . S
O47 C48 1.208 . S
C48 O46 1.247 . S
C48 O47 1.208 . S
C49 O54 1.247 . S
C49 O55 1.208 . S
C50 O42 1.315 . S
C50 O45 1.279 . S
C51 O52 1.315 . S
C51 O53 1.279 . S
O52 Cd44 2.223 . S
O52 C51 1.315 . S
O53 Cd43 2.240 . S
O53 C51 1.279 . S
O54 Cd44 2.297 . S
O54 C49 1.247 . S
O55 Cd44 2.439 . S
O55 C49 1.208 . S
O56 Cd57 2.223 . S
O56 C64 1.315 . S
Cd57 O56 2.223 . S
Cd57 O60 2.297 . S
Cd57 O61 2.439 . S
Cd57 O67 2.240 . S
Cd58 O59 2.240 . S
Cd58 O66 2.223 . S
Cd58 O68 2.297 1_554 S
Cd58 O69 2.439 1_554 S
O59 Cd58 2.240 . S
O59 C64 1.279 . S
O60 Cd57 2.297 . S
O60 C62 1.247 . S
O61 Cd57 2.439 . S
O61 C62 1.208 . S
C62 O60 1.247 . S
C62 O61 1.208 . S
C63 O68 1.247 . S
C63 O69 1.208 . S
C64 O56 1.315 . S
C64 O59 1.279 . S
C65 O66 1.315 . S
C65 O67 1.279 . S
O66 Cd58 2.223 . S
O66 C65 1.315 . S
O67 Cd57 2.240 . S
O67 C65 1.279 . S
O68 Cd58 2.297 1_556 S
O68 C63 1.247 . S
O69 Cd58 2.439 1_556 S
O69 C63 1.208 . S
O70 Cd71 2.223 . S
O70 C78 1.315 . S
Cd71 O70 2.223 . S
Cd71 O74 2.297 . S
Cd71 O75 2.439 . S
Cd71 O81 2.240 . S
Cd72 O73 2.240 . S
Cd72 O80 2.223 . S
Cd72 O82 2.297 1_554 S
Cd72 O83 2.439 1_554 S
O73 Cd72 2.240 . S
O73 C78 1.279 . S
O74 Cd71 2.297 . S
O74 C76 1.247 . S
O75 Cd71 2.439 . S
O75 C76 1.208 . S
C76 O74 1.247 . S
C76 O75 1.208 . S
C77 O82 1.247 . S
C77 O83 1.208 . S
C78 O70 1.315 . S
C78 O73 1.279 . S
C79 O80 1.315 . S
C79 O81 1.279 . S
O80 Cd72 2.223 . S
O80 C79 1.315 . S
O81 Cd71 2.240 . S
O81 C79 1.279 . S
O82 Cd72 2.297 1_556 S
O82 C77 1.247 . S
O83 Cd72 2.439 1_556 S
O83 C77 1.208 . S
O84 Cd85 2.223 . S
O84 C92 1.315 . S
Cd85 O84 2.223 . S
Cd85 O88 2.297 . S
Cd85 O89 2.439 . S
Cd85 O95 2.240 . S
Cd86 O87 2.240 . S
Cd86 O94 2.223 . S
Cd86 O96 2.297 . S
Cd86 O97 2.439 . S
O87 Cd86 2.240 . S
O87 C92 1.279 . S
O88 Cd85 2.297 . S
O88 C90 1.247 . S
O89 Cd85 2.439 . S
O89 C90 1.208 . S
C90 O88 1.247 . S
C90 O89 1.208 . S
C91 O96 1.247 . S
C91 O97 1.208 . S
C92 O84 1.315 . S
C92 O87 1.279 . S
C93 O94 1.315 . S
C93 O95 1.279 . S
O94 Cd86 2.223 . S
O94 C93 1.315 . S
O95 Cd85 2.240 . S
O95 C93 1.279 . S
O96 Cd86 2.297 . S
O96 C91 1.247 . S
O97 Cd86 2.439 . S
O97 C91 1.208 . S
O98 Cd99 2.223 . S
O98 C106 1.315 . S
Cd99 O98 2.223 . S
Cd99 O102 2.297 . S
Cd99 O103 2.439 . S
Cd99 O109 2.240 . S
Cd100 O101 2.240 . S
Cd100 O108 2.223 . S
Cd100 O110 2.297 . S
Cd100 O111 2.439 . S
O101 Cd100 2.240 . S
O101 C106 1.279 . S
O102 Cd99 2.297 . S
O102 C104 1.247 . S
O103 Cd99 2.439 . S
O103 C104 1.208 . S
C104 O102 1.247 . S
C104 O103 1.208 . S
C105 O110 1.247 . S
C105 O111 1.208 . S
C106 O98 1.315 . S
C106 O101 1.279 . S
C107 O108 1.315 . S
C107 O109 1.279 . S
O108 Cd100 2.223 . S
O108 C107 1.315 . S
O109 Cd99 2.240 . S
O109 C107 1.279 . S
O110 Cd100 2.297 . S
O110 C105 1.247 . S
O111 Cd100 2.439 . S
O111 C105 1.208 . S
H112 C120 0.929 . S
H113 C122 0.930 . S
H114 C124 0.930 . S
H115 C127 0.929 . S
H116 C130 0.930 . S
H117 C132 0.960 1_546 S
H118 C132 0.960 . S
H119 C132 0.960 1_556 S
C120 H112 0.929 . S
C120 C121 1.377 . S
C120 C122 1.384 . S
C121 C120 1.377 . S
C121 C127 1.390 1_554 S
C122 H113 0.930 . S
C122 C120 1.384 . S
C122 C123 1.372 . S
C123 C122 1.372 . S
C123 C124 1.400 1_554 S
C123 C128 1.490 . S
C124 H114 0.930 . S
C124 C123 1.400 1_556 S
C124 C127 1.386 . S
H125 C141 0.930 . S
H126 C142 0.931 . S
C127 H115 0.929 . S
C127 C121 1.390 1_556 S
C127 C124 1.386 . S
C128 C123 1.490 . S
C128 C130 1.395 1_655 S
C128 C131 1.403 . S
H129 C135 0.930 . S
C130 H116 0.930 . S
C130 C128 1.395 1_455 S
C130 C133 1.403 1_565 S
C131 C128 1.403 . S
C131 C132 1.524 . S
C131 C135 1.400 1_565 S
C132 H117 0.960 1_564 S
C132 H118 0.960 . S
C132 H119 0.960 1_554 S
C132 C131 1.524 . S
C133 C130 1.403 1_545 S
C133 C134 1.392 . S
C133 C137 1.495 . S
C134 C133 1.392 . S
C134 C135 1.385 1_455 S
C134 C136 1.478 . S
C135 H129 0.930 . S
C135 C131 1.400 1_545 S
C135 C134 1.385 1_655 S
C136 C134 1.478 . S
C136 C138 1.381 . S
C136 C142 1.383 1_554 S
C137 C133 1.495 . S
C137 H143 0.959 1_545 S
C137 H144 0.961 . S
C137 H145 0.960 . S
C138 C136 1.381 . S
C138 C139 1.394 . S
C138 H146 0.930 . S
C139 C138 1.394 . S
C139 C140 1.383 . S
C139 H147 0.929 . S
C140 C139 1.383 . S
C140 C141 1.377 1_554 S
C141 H125 0.930 . S
C141 C140 1.377 1_556 S
C141 C142 1.379 . S
C142 H126 0.931 . S
C142 C136 1.383 1_556 S
C142 C141 1.379 . S
H143 C137 0.959 1_565 S
H144 C137 0.961 . S
H145 C137 0.960 . S
H146 C138 0.930 . S
H147 C139 0.929 . S
H148 C156 0.929 1_655 S
H149 C158 0.948 . S
H150 C160 0.930 . S
H151 C163 0.929 . S
H152 C166 0.930 . S
H153 C168 0.960 . S
H154 C168 0.960 1_655 S
H155 C168 0.960 . S
C156 H148 0.929 1_455 S
C156 C157 1.377 . S
C156 C158 1.378 1_455 S
C157 C156 1.377 . S
C157 C163 1.390 . S
C158 H149 0.948 . S
C158 C156 1.378 1_655 S
C158 C159 1.360 1_655 S
C159 C158 1.360 1_455 S
C159 C160 1.400 . S
C159 C164 1.490 . S
C160 H150 0.930 . S
C160 C159 1.400 . S
C160 C163 1.386 . S
H161 C177 0.930 1_455 S
H162 C178 0.960 . S
C163 H151 0.929 . S
C163 C157 1.390 . S
C163 C160 1.386 . S
C164 C159 1.490 . S
C164 C166 1.395 . S
C164 C167 1.403 . S
H165 C171 0.930 . S
C166 H152 0.930 . S
C166 C164 1.395 . S
C166 C169 1.403 1_465 S
C167 C164 1.403 . S
C167 C168 1.524 . S
C167 C171 1.400 1_465 S
C168 H153 0.960 . S
C168 H154 0.960 1_455 S
C168 H155 0.960 . S
C168 C167 1.524 . S
C169 C166 1.403 1_645 S
C169 C170 1.392 . S
C169 C173 1.495 . S
C170 C169 1.392 . S
C170 C171 1.385 . S
C170 C172 1.478 . S
C171 H165 0.930 . S
C171 C167 1.400 1_645 S
C171 C170 1.385 . S
C172 C170 1.478 . S
C172 C174 1.381 . S
C172 C178 1.363 1_655 S
C173 C169 1.495 . S
C173 H179 0.959 . S
C173 H180 0.961 1_655 S
C173 H181 0.960 . S
C174 C172 1.381 . S
C174 C175 1.394 . S
C174 H182 0.930 . S
C175 C174 1.394 . S
C175 C176 1.383 . S
C175 H183 0.929 . S
C176 C175 1.383 . S
C176 C177 1.377 . S
C177 H161 0.930 1_655 S
C177 C176 1.377 . S
C177 C178 1.371 1_655 S
C178 H162 0.960 . S
C178 C172 1.363 1_455 S
C178 C177 1.371 1_455 S
H179 C173 0.959 . S
H180 C173 0.961 1_455 S
H181 C173 0.960 . S
H182 C174 0.930 . S
H183 C175 0.929 . S
H184 C192 0.929 . S
H185 C194 0.930 . S
H186 C196 0.930 . S
H187 C199 0.929 . S
H188 C202 0.930 . S
H189 C204 0.960 . S
H190 C204 0.943 1_554 S
H191 C204 0.960 . S
C192 H184 0.929 . S
C192 C193 1.377 . S
C192 C194 1.384 . S
C193 C192 1.377 . S
C193 C199 1.390 1_554 S
C194 H185 0.930 . S
C194 C192 1.384 . S
C194 C195 1.372 . S
C195 C194 1.372 . S
C195 C196 1.400 1_554 S
C195 C200 1.490 . S
C196 H186 0.930 . S
C196 C195 1.400 1_556 S
C196 C199 1.386 . S
H197 C213 0.930 . S
H198 C214 0.931 . S
C199 H187 0.929 . S
C199 C193 1.390 1_556 S
C199 C196 1.386 . S
C200 C195 1.490 . S
C200 C202 1.395 . S
C200 C203 1.403 . S
H201 C207 0.930 1_556 S
C202 H188 0.930 . S
C202 C200 1.395 . S
C202 C205 1.403 . S
C203 C200 1.403 . S
C203 C204 1.524 1_554 S
C203 C207 1.400 . S
C204 H189 0.960 . S
C204 H190 0.943 1_556 S
C204 H191 0.960 . S
C204 C203 1.524 1_556 S
C205 C202 1.403 . S
C205 C206 1.392 . S
C205 C209 1.495 . S
C206 C205 1.392 . S
C206 C207 1.385 . S
C206 C208 1.478 . S
C207 H201 0.930 1_554 S
C207 C203 1.400 . S
C207 C206 1.385 . S
C208 C206 1.478 . S
C208 C210 1.381 . S
C208 C214 1.383 1_554 S
C209 C205 1.495 . S
C209 H215 0.959 . S
C209 H216 0.961 . S
C209 H217 0.960 . S
C210 C208 1.381 . S
C210 C211 1.394 . S
C210 H218 0.930 . S
C211 C210 1.394 . S
C211 C212 1.383 . S
C211 H219 0.929 . S
C212 C211 1.383 . S
C212 C213 1.377 1_554 S
C213 H197 0.930 . S
C213 C212 1.377 1_556 S
C213 C214 1.379 . S
C214 H198 0.931 . S
C214 C208 1.383 1_556 S
C214 C213 1.379 . S
H215 C209 0.959 . S
H216 C209 0.961 . S
H217 C209 0.960 . S
H218 C210 0.930 . S
H219 C211 0.929 . S
H220 C228 0.929 . S
H221 C230 0.930 . S
H222 C232 0.930 . S
H223 C235 0.929 . S
H224 C238 0.930 . S
H225 C240 0.960 . S
H226 C240 0.960 . S
H227 C240 0.960 . S
C228 H220 0.929 . S
C228 C229 1.377 . S
C228 C230 1.384 . S
C229 C228 1.377 . S
C229 C235 1.390 . S
C230 H221 0.930 . S
C230 C228 1.384 . S
C230 C231 1.372 . S
C231 C230 1.372 . S
C231 C232 1.400 . S
C231 C236 1.490 . S
C232 H222 0.930 . S
C232 C231 1.400 . S
C232 C235 1.386 . S
H233 C249 0.930 . S
H234 C250 0.931 . S
C235 H223 0.929 . S
C235 C229 1.390 . S
C235 C232 1.386 . S
C236 C231 1.490 . S
C236 C238 1.395 . S
C236 C239 1.403 . S
H237 C243 0.930 . S
C238 H224 0.930 . S
C238 C236 1.395 . S
C238 C241 1.403 . S
C239 C236 1.403 . S
C239 C240 1.524 . S
C239 C243 1.400 . S
C240 H225 0.960 . S
C240 H226 0.960 . S
C240 H227 0.960 . S
C240 C239 1.524 . S
C241 C238 1.403 . S
C241 C242 1.392 . S
C241 C245 1.495 . S
C242 C241 1.392 . S
C242 C243 1.385 . S
C242 C244 1.478 . S
C243 H237 0.930 . S
C243 C239 1.400 . S
C243 C242 1.385 . S
C244 C242 1.478 . S
C244 C246 1.381 . S
C244 C250 1.383 . S
C245 C241 1.495 . S
C245 H251 0.959 . S
C245 H252 0.961 . S
C245 H253 0.960 . S
C246 C244 1.381 . S
C246 C247 1.394 . S
C246 H254 0.930 . S
C247 C246 1.394 . S
C247 C248 1.383 . S
C247 H255 0.929 . S
C248 C247 1.383 . S
C248 C249 1.377 . S
C249 H233 0.930 . S
C249 C248 1.377 . S
C249 C250 1.379 . S
C250 H234 0.931 . S
C250 C244 1.383 . S
C250 C249 1.379 . S
H251 C245 0.959 . S
H252 C245 0.961 . S
H253 C245 0.960 . S
H254 C246 0.930 . S
H255 C247 0.929 . S
H256 C264 0.929 1_655 S
H257 C266 0.930 . S
H258 C268 0.930 . S
H259 C271 0.929 . S
H260 C274 0.930 . S
H261 C276 0.960 . S
H262 C276 0.960 . S
H263 C276 0.960 . S
C264 H256 0.929 1_455 S
C264 C265 1.377 . S
C264 C266 1.384 1_455 S
C265 C264 1.377 . S
C265 C271 1.390 . S
C266 H257 0.930 . S
C266 C264 1.384 1_655 S
C266 C267 1.372 1_655 S
C267 C266 1.372 1_455 S
C267 C268 1.400 . S
C267 C272 1.490 . S
C268 H258 0.930 . S
C268 C267 1.400 . S
C268 C271 1.386 . S
H269 C285 0.930 1_455 S
H270 C286 0.931 1_455 S
C271 H259 0.929 . S
C271 C265 1.390 . S
C271 C268 1.386 . S
C272 C267 1.490 . S
C272 C274 1.395 1_455 S
C272 C275 1.403 . S
H273 C279 0.930 . S
C274 H260 0.930 . S
C274 C272 1.395 1_655 S
C274 C277 1.403 . S
C275 C272 1.403 . S
C275 C276 1.524 . S
C275 C279 1.400 . S
C276 H261 0.960 . S
C276 H262 0.960 . S
C276 H263 0.960 . S
C276 C275 1.524 . S
C277 C274 1.403 . S
C277 C278 1.392 . S
C277 C281 1.495 . S
C278 C277 1.392 . S
C278 C279 1.385 1_655 S
C278 C280 1.478 . S
C279 H273 0.930 . S
C279 C275 1.400 . S
C279 C278 1.385 1_455 S
C280 C278 1.478 . S
C280 C282 1.381 . S
C280 C286 1.383 . S
C281 C277 1.495 . S
C281 H287 0.959 . S
C281 H288 0.961 . S
C281 H289 0.960 . S
C282 C280 1.381 . S
C282 C283 1.394 . S
C282 H290 0.930 . S
C283 C282 1.394 . S
C283 C284 1.383 . S
C283 H291 0.929 . S
C284 C283 1.383 . S
C284 C285 1.377 . S
C285 H269 0.930 1_655 S
C285 C284 1.377 . S
C285 C286 1.379 . S
C286 H270 0.931 1_655 S
C286 C280 1.383 . S
C286 C285 1.379 . S
H287 C281 0.959 . S
H288 C281 0.961 . S
H289 C281 0.960 . S
H290 C282 0.930 . S
H291 C283 0.929 . S
H292 C300 0.929 . S
H293 C302 0.930 . S
H294 C304 0.930 . S
H295 C307 0.929 . S
H296 C310 0.930 . S
H297 C312 0.960 . S
H298 C312 0.960 . S
H299 C312 0.960 . S
C300 H292 0.929 . S
C300 C301 1.377 . S
C300 C302 1.384 . S
C301 C300 1.377 . S
C301 C307 1.390 . S
C302 H293 0.930 . S
C302 C300 1.384 . S
C302 C303 1.372 . S
C303 C302 1.372 . S
C303 C304 1.400 . S
C303 C308 1.490 . S
C304 H294 0.930 . S
C304 C303 1.400 . S
C304 C307 1.386 . S
H305 C321 0.930 . S
H306 C322 0.931 1_455 S
C307 H295 0.929 . S
C307 C301 1.390 . S
C307 C304 1.386 . S
C308 C303 1.490 . S
C308 C310 1.395 . S
C308 C311 1.403 1_455 S
H309 C315 0.930 . S
C310 H296 0.930 . S
C310 C308 1.395 . S
C310 C313 1.403 . S
C311 C308 1.403 1_655 S
C311 C312 1.524 . S
C311 C315 1.400 . S
C312 H297 0.960 . S
C312 H298 0.960 . S
C312 H299 0.960 . S
C312 C311 1.524 . S
C313 C310 1.403 . S
C313 C314 1.392 1_455 S
C313 C317 1.495 . S
C314 C313 1.392 1_655 S
C314 C315 1.385 . S
C314 C316 1.478 . S
C315 H309 0.930 . S
C315 C311 1.400 . S
C315 C314 1.385 . S
C316 C314 1.478 . S
C316 C318 1.381 . S
C316 C322 1.383 . S
C317 C313 1.495 . S
C317 H323 0.959 . S
C317 H324 0.961 . S
C317 H325 0.960 . S
C318 C316 1.381 . S
C318 C319 1.394 . S
C318 H326 0.930 . S
C319 C318 1.394 . S
C319 C320 1.383 . S
C319 H327 0.929 . S
C320 C319 1.383 . S
C320 C321 1.377 . S
C321 H305 0.930 . S
C321 C320 1.377 . S
C321 C322 1.379 . S
C322 H306 0.931 1_655 S
C322 C316 1.383 . S
C322 C321 1.379 . S
H323 C317 0.959 . S
H324 C317 0.961 . S
H325 C317 0.960 . S
H326 C318 0.930 . S
H327 C319 0.929 . S
H328 C336 0.929 . S
H329 C338 0.930 . S
H330 C340 0.930 1_655 S
H331 C343 0.929 . S
H332 C346 0.930 . S
H333 C348 0.960 . S
H334 C348 0.960 . S
H335 C348 0.960 . S
C336 H328 0.929 . S
C336 C337 1.377 . S
C336 C338 1.384 . S
C337 C336 1.377 . S
C337 C343 1.390 . S
C338 H329 0.930 . S
C338 C336 1.384 . S
C338 C339 1.372 . S
C339 C338 1.372 . S
C339 C340 1.400 . S
C339 C344 1.490 . S
C340 H330 0.930 1_455 S
C340 C339 1.400 . S
C340 C343 1.386 . S
H341 C357 0.930 . S
H342 C358 0.931 . S
C343 H331 0.929 . S
C343 C337 1.390 . S
C343 C340 1.386 . S
C344 C339 1.490 . S
C344 C346 1.395 . S
C344 C347 1.403 1_455 S
H345 C351 0.930 . S
C346 H332 0.930 . S
C346 C344 1.395 . S
C346 C349 1.403 . S
C347 C344 1.403 1_655 S
C347 C348 1.524 . S
C347 C351 1.400 . S
C348 H333 0.960 . S
C348 H334 0.960 . S
C348 H335 0.960 . S
C348 C347 1.524 . S
C349 C346 1.403 . S
C349 C350 1.388 1_455 S
C349 C353 1.495 . S
C350 C349 1.388 1_655 S
C350 C351 1.388 . S
C350 C352 1.478 . S
C351 H345 0.930 . S
C351 C347 1.400 . S
C351 C350 1.388 . S
C352 C350 1.478 . S
C352 C354 1.381 . S
C352 C358 1.383 . S
C353 C349 1.495 . S
C353 H359 0.959 . S
C353 H360 0.961 . S
C353 H361 0.960 . S
C354 C352 1.381 . S
C354 C355 1.394 . S
C354 H362 0.930 1_655 S
C355 C354 1.394 . S
C355 C356 1.383 . S
C355 H363 0.929 . S
C356 C355 1.383 . S
C356 C357 1.377 . S
C357 H341 0.930 . S
C357 C356 1.377 . S
C357 C358 1.379 . S
C358 H342 0.931 . S
C358 C352 1.383 . S
C358 C357 1.379 . S
H359 C353 0.959 . S
H360 C353 0.961 . S
H361 C353 0.960 . S
H362 C354 0.930 1_455 S
H363 C355 0.929 . S
H364 C372 0.910 1_655 S
H365 C374 0.930 . S
H366 C376 0.930 . S
H367 C379 0.929 . S
H368 C382 0.930 . S
H369 C384 0.960 . S
H370 C384 0.960 . S
H371 C384 0.960 . S
C372 H364 0.910 1_455 S
C372 C373 1.405 . S
C372 C374 1.377 1_455 S
C373 C372 1.405 . S
C373 C379 1.390 . S
C374 H365 0.930 . S
C374 C372 1.377 1_655 S
C374 C375 1.372 1_655 S
C375 C374 1.372 1_455 S
C375 C376 1.400 . S
C375 C380 1.490 . S
C376 H366 0.930 . S
C376 C375 1.400 . S
C376 C379 1.386 . S
H377 C393 0.930 1_455 S
H378 C394 0.931 1_455 S
C379 H367 0.929 . S
C379 C373 1.390 . S
C379 C376 1.386 . S
C380 C375 1.490 . S
C380 C382 1.395 1_455 S
C380 C383 1.403 . S
H381 C387 0.930 . S
C382 H368 0.930 . S
C382 C380 1.395 1_655 S
C382 C385 1.403 . S
C383 C380 1.403 . S
C383 C384 1.524 . S
C383 C387 1.400 . S
C384 H369 0.960 . S
C384 H370 0.960 . S
C384 H371 0.960 . S
C384 C383 1.524 . S
C385 C382 1.403 . S
C385 C386 1.392 . S
C385 C389 1.495 . S
C386 C385 1.392 . S
C386 C387 1.385 1_655 S
C386 C388 1.478 . S
C387 H381 0.930 . S
C387 C383 1.400 . S
C387 C386 1.385 1_455 S
C388 C386 1.478 . S
C388 C390 1.381 . S
C388 C394 1.383 . S
C389 C385 1.495 . S
C389 H395 0.959 . S
C389 H396 0.961 . S
C389 H397 0.960 . S
C390 C388 1.381 . S
C390 C391 1.394 . S
C390 H398 0.930 . S
C391 C390 1.394 . S
C391 C392 1.383 . S
C391 H399 0.929 . S
C392 C391 1.383 . S
C392 C393 1.377 . S
C393 H377 0.930 1_655 S
C393 C392 1.377 . S
C393 C394 1.379 . S
C394 H378 0.931 1_655 S
C394 C388 1.383 . S
C394 C393 1.379 . S
H395 C389 0.959 . S
H396 C389 0.961 . S
H397 C389 0.960 . S
H398 C390 0.930 . S
H399 C391 0.929 . S
H400 C408 0.929 . S
H401 C410 0.930 . S
H402 C412 0.930 . S
H403 C415 0.929 . S
H404 C418 0.930 . S
H405 C420 0.960 . S
H406 C420 0.960 . S
H407 C420 0.960 . S
C408 H400 0.929 . S
C408 C409 1.377 . S
C408 C410 1.384 . S
C409 C408 1.377 . S
C409 C415 1.390 . S
C410 H401 0.930 . S
C410 C408 1.384 . S
C410 C411 1.372 . S
C411 C410 1.372 . S
C411 C412 1.400 . S
C411 C416 1.490 . S
C412 H402 0.930 . S
C412 C411 1.400 . S
C412 C415 1.386 . S
H413 C429 0.930 . S
H414 C430 0.931 . S
C415 H403 0.929 . S
C415 C409 1.390 . S
C415 C412 1.386 . S
C416 C411 1.490 . S
C416 C418 1.395 . S
C416 C419 1.403 . S
H417 C423 0.930 . S
C418 H404 0.930 . S
C418 C416 1.395 . S
C418 C421 1.403 . S
C419 C416 1.403 . S
C419 C420 1.524 . S
C419 C423 1.400 . S
C420 H405 0.960 . S
C420 H406 0.960 . S
C420 H407 0.960 . S
C420 C419 1.524 . S
C421 C418 1.403 . S
C421 C422 1.392 . S
C421 C425 1.495 . S
C422 C421 1.392 . S
C422 C423 1.385 . S
C422 C424 1.478 . S
C423 H417 0.930 . S
C423 C419 1.400 . S
C423 C422 1.385 . S
C424 C422 1.478 . S
C424 C426 1.381 . S
C424 C430 1.383 . S
C425 C421 1.495 . S
C425 H431 0.959 . S
C425 H432 0.961 . S
C425 H433 0.960 . S
C426 C424 1.381 . S
C426 C427 1.394 . S
C426 H434 0.930 . S
C427 C426 1.394 . S
C427 C428 1.383 . S
C427 H435 0.929 . S
C428 C427 1.383 . S
C428 C429 1.377 . S
C429 H413 0.930 . S
C429 C428 1.377 . S
C429 C430 1.379 . S
C430 H414 0.931 . S
C430 C424 1.383 . S
C430 C429 1.379 . S
H431 C425 0.959 . S
H432 C425 0.961 . S
H433 C425 0.960 . S
H434 C426 0.930 . S
H435 C427 0.929 . S
H436 C444 0.929 . S
H437 C446 0.930 . S
H438 C448 0.930 . S
H439 C451 0.929 . S
H440 C454 0.930 . S
H441 C456 0.960 . S
H442 C456 0.960 . S
H443 C456 0.960 . S
C444 H436 0.929 . S
C444 C445 1.377 . S
C444 C446 1.384 . S
C445 C444 1.377 . S
C445 C451 1.390 . S
C446 H437 0.930 . S
C446 C444 1.384 . S
C446 C447 1.372 . S
C447 C446 1.372 . S
C447 C448 1.400 . S
C447 C452 1.490 . S
C448 H438 0.930 . S
C448 C447 1.400 . S
C448 C451 1.386 . S
H449 C465 0.930 . S
H450 C466 0.931 . S
C451 H439 0.929 . S
C451 C445 1.390 . S
C451 C448 1.386 . S
C452 C447 1.490 . S
C452 C454 1.395 . S
C452 C455 1.403 . S
H453 C459 0.930 . S
C454 H440 0.930 . S
C454 C452 1.395 . S
C454 C457 1.403 . S
C455 C452 1.403 . S
C455 C456 1.524 . S
C455 C459 1.400 . S
C456 H441 0.960 . S
C456 H442 0.960 . S
C456 H443 0.960 . S
C456 C455 1.524 . S
C457 C454 1.403 . S
C457 C458 1.392 . S
C457 C461 1.495 . S
C458 C457 1.392 . S
C458 C459 1.385 . S
C458 C460 1.478 . S
C459 H453 0.930 . S
C459 C455 1.400 . S
C459 C458 1.385 . S
C460 C458 1.478 . S
C460 C462 1.381 . S
C460 C466 1.383 . S
C461 C457 1.495 . S
C461 H467 0.959 . S
C461 H468 0.961 . S
C461 H469 0.960 . S
C462 C460 1.381 . S
C462 C463 1.394 . S
C462 H470 0.930 . S
C463 C462 1.394 . S
C463 C464 1.383 . S
C463 H471 0.929 . S
C464 C463 1.383 . S
C464 C465 1.377 . S
C465 H449 0.930 . S
C465 C464 1.377 . S
C465 C466 1.379 . S
C466 H450 0.931 . S
C466 C460 1.383 . S
C466 C465 1.379 . S
H467 C461 0.959 . S
H468 C461 0.961 . S
H469 C461 0.960 . S
H470 C462 0.930 . S
H471 C463 0.929 . S
H472 C480 0.929 . S
H473 C482 0.930 . S
H474 C484 0.930 . S
H475 C487 0.929 . S
H476 C490 0.930 . S
H477 C492 0.960 . S
H478 C492 0.960 . S
H479 C492 0.960 . S
C480 H472 0.929 . S
C480 C481 1.377 . S
C480 C482 1.384 . S
C481 C480 1.377 . S
C481 C487 1.390 . S
C482 H473 0.930 . S
C482 C480 1.384 . S
C482 C483 1.372 . S
C483 C482 1.372 . S
C483 C484 1.400 . S
C483 C488 1.490 . S
C484 H474 0.930 . S
C484 C483 1.400 . S
C484 C487 1.386 . S
H485 C501 0.930 . S
H486 C502 0.931 . S
C487 H475 0.929 . S
C487 C481 1.390 . S
C487 C484 1.386 . S
C488 C483 1.490 . S
C488 C490 1.395 . S
C488 C491 1.403 . S
H489 C495 0.930 . S
C490 H476 0.930 . S
C490 C488 1.395 . S
C490 C493 1.403 . S
C491 C488 1.403 . S
C491 C492 1.524 . S
C491 C495 1.400 . S
C492 H477 0.960 . S
C492 H478 0.960 . S
C492 H479 0.960 . S
C492 C491 1.524 . S
C493 C490 1.403 . S
C493 C494 1.392 . S
C493 C497 1.495 . S
C494 C493 1.392 . S
C494 C495 1.385 . S
C494 C496 1.478 . S
C495 H489 0.930 . S
C495 C491 1.400 . S
C495 C494 1.385 . S
C496 C494 1.478 . S
C496 C498 1.381 . S
C496 C502 1.383 . S
C497 C493 1.495 . S
C497 H503 0.959 . S
C497 H504 0.961 . S
C497 H505 0.960 . S
C498 C496 1.381 . S
C498 C499 1.394 . S
C498 H506 0.930 . S
C499 C498 1.394 . S
C499 C500 1.383 . S
C499 H507 0.929 . S
C500 C499 1.383 . S
C500 C501 1.377 . S
C501 H485 0.930 . S
C501 C500 1.377 . S
C501 C502 1.379 . S
C502 H486 0.931 . S
C502 C496 1.383 . S
C502 C501 1.379 . S
H503 C497 0.959 . S
H504 C497 0.961 . S
H505 C497 0.960 . S
H506 C498 0.930 . S
H507 C499 0.929 . S
H508 C516 0.929 . S
H509 C518 0.930 . S
H510 C520 0.930 . S
H511 C523 0.929 . S
H512 C526 0.930 . S
H513 C528 0.960 . S
H514 C528 0.960 . S
H515 C528 0.960 . S
C516 H508 0.929 . S
C516 C517 1.377 . S
C516 C518 1.384 . S
C517 C516 1.377 . S
C517 C523 1.390 . S
C518 H509 0.930 . S
C518 C516 1.384 . S
C518 C519 1.372 . S
C519 C518 1.372 . S
C519 C520 1.400 . S
C519 C524 1.490 . S
C520 H510 0.930 . S
C520 C519 1.400 . S
C520 C523 1.386 . S
H521 C537 0.930 . S
H522 C538 0.931 . S
C523 H511 0.929 . S
C523 C517 1.390 . S
C523 C520 1.386 . S
C524 C519 1.490 . S
C524 C526 1.395 . S
C524 C527 1.403 . S
H525 C531 0.930 . S
C526 H512 0.930 . S
C526 C524 1.395 . S
C526 C529 1.403 . S
C527 C524 1.403 . S
C527 C528 1.524 . S
C527 C531 1.400 . S
C528 H513 0.960 . S
C528 H514 0.960 . S
C528 H515 0.960 . S
C528 C527 1.524 . S
C529 C526 1.403 . S
C529 C530 1.392 . S
C529 C533 1.495 . S
C530 C529 1.392 . S
C530 C531 1.385 . S
C530 C532 1.478 . S
C531 H525 0.930 . S
C531 C527 1.400 . S
C531 C530 1.385 . S
C532 C530 1.478 . S
C532 C534 1.381 . S
C532 C538 1.383 . S
C533 C529 1.495 . S
C533 H539 0.959 . S
C533 H540 0.961 . S
C533 H541 0.960 . S
C534 C532 1.381 . S
C534 C535 1.394 . S
C534 H542 0.930 . S
C535 C534 1.394 . S
C535 C536 1.383 . S
C535 H543 0.929 . S
C536 C535 1.383 . S
C536 C537 1.377 . S
C537 H521 0.930 . S
C537 C536 1.377 . S
C537 C538 1.379 . S
C538 H522 0.931 . S
C538 C532 1.383 . S
C538 C537 1.379 . S
H539 C533 0.959 . S
H540 C533 0.961 . S
H541 C533 0.960 . S
H542 C534 0.930 . S
H543 C535 0.929 . S
H544 C552 0.929 . S
H545 C554 0.930 . S
H546 C556 0.944 . S
H547 C559 0.929 . S
H548 C562 0.930 . S
H549 C564 0.960 1_556 S
H550 C564 0.960 . S
H551 C564 0.960 1_556 S
C552 H544 0.929 . S
C552 C553 1.377 . S
C552 C554 1.384 . S
C553 C552 1.377 . S
C553 C559 1.390 1_554 S
C554 H545 0.930 . S
C554 C552 1.384 . S
C554 C555 1.372 . S
C555 C554 1.372 . S
C555 C556 1.386 1_554 S
C555 C560 1.490 . S
C556 H546 0.944 . S
C556 C555 1.386 1_556 S
C556 C559 1.386 . S
H557 C573 0.930 1_556 S
H558 C574 0.931 1_556 S
C559 H547 0.929 . S
C559 C553 1.390 1_556 S
C559 C556 1.386 . S
C560 C555 1.490 . S
C560 C562 1.395 . S
C560 C563 1.403 . S
H561 C567 0.930 . S
C562 H548 0.930 . S
C562 C560 1.395 . S
C562 C565 1.403 . S
C563 C560 1.403 . S
C563 C564 1.524 . S
C563 C567 1.400 . S
C564 H549 0.960 1_554 S
C564 H550 0.960 . S
C564 H551 0.960 1_554 S
C564 C563 1.524 . S
C565 C562 1.403 . S
C565 C566 1.392 . S
C565 C569 1.495 . S
C566 C565 1.392 . S
C566 C567 1.385 . S
C566 C568 1.478 . S
C567 H561 0.930 . S
C567 C563 1.400 . S
C567 C566 1.385 . S
C568 C566 1.478 . S
C568 C570 1.381 . S
C568 C574 1.383 . S
C569 C565 1.495 . S
C569 H575 0.959 . S
C569 H576 0.961 . S
C569 H577 0.960 . S
C570 C568 1.381 . S
C570 C571 1.394 . S
C570 H578 0.930 . S
C571 C570 1.394 . S
C571 C572 1.383 . S
C571 H579 0.929 . S
C572 C571 1.383 . S
C572 C573 1.376 . S
C573 H557 0.930 1_554 S
C573 C572 1.376 . S
C573 C574 1.379 . S
C574 H558 0.931 1_554 S
C574 C568 1.383 . S
C574 C573 1.379 . S
H575 C569 0.959 . S
H576 C569 0.961 . S
H577 C569 0.960 . S
H578 C570 0.930 . S
H579 C571 0.929 . S
H580 C588 0.929 . S
H581 C590 0.930 . S
H582 C592 0.930 1_556 S
H583 C595 0.929 1_556 S
H584 C598 0.930 . S
H585 C600 0.960 . S
H586 C600 0.960 . S
H587 C600 0.960 . S
C588 H580 0.929 . S
C588 C589 1.377 . S
C588 C590 1.384 . S
C589 C588 1.377 . S
C589 C595 1.390 . S
C590 H581 0.930 . S
C590 C588 1.384 . S
C590 C591 1.372 . S
C591 C590 1.372 . S
C591 C592 1.400 . S
C591 C596 1.490 . S
C592 H582 0.930 1_554 S
C592 C591 1.400 . S
C592 C595 1.386 . S
H593 C609 0.927 . S
H594 C610 0.924 1_556 S
C595 H583 0.929 1_554 S
C595 C589 1.390 . S
C595 C592 1.386 . S
C596 C591 1.490 . S
C596 C598 1.395 . S
C596 C599 1.403 . S
H597 C603 0.930 . S
C598 H584 0.930 . S
C598 C596 1.395 . S
C598 C601 1.403 . S
C599 C596 1.403 . S
C599 C600 1.524 . S
C599 C603 1.400 . S
C600 H585 0.960 . S
C600 H586 0.960 . S
C600 H587 0.960 . S
C600 C599 1.524 . S
C601 C598 1.403 . S
C601 C602 1.392 . S
C601 C605 1.495 . S
C602 C601 1.392 . S
C602 C603 1.385 . S
C602 C604 1.478 . S
C603 H597 0.930 . S
C603 C599 1.400 . S
C603 C602 1.385 . S
C604 C602 1.478 . S
C604 C606 1.381 . S
C604 C610 1.389 . S
C605 C601 1.495 . S
C605 H611 0.959 . S
C605 H612 0.961 . S
C605 H613 0.960 . S
C606 C604 1.381 . S
C606 C607 1.394 . S
C606 H614 0.930 . S
C607 C606 1.394 . S
C607 C608 1.383 . S
C607 H615 0.929 . S
C608 C607 1.383 . S
C608 C609 1.379 1_554 S
C609 H593 0.927 . S
C609 C608 1.379 1_556 S
C609 C610 1.379 1_556 S
C610 H594 0.924 1_554 S
C610 C604 1.389 . S
C610 C609 1.379 1_554 S
H611 C605 0.959 . S
H612 C605 0.961 . S
H613 C605 0.960 . S
H614 C606 0.930 . S
H615 C607 0.929 . S
H616 C624 0.929 . S
H617 C626 0.930 . S
H618 C628 0.930 . S
H619 C631 0.929 . S
H620 C634 0.930 . S
H621 C636 0.960 . S
H622 C636 0.960 . S
H623 C636 0.960 . S
C624 H616 0.929 . S
C624 C625 1.377 . S
C624 C626 1.384 . S
C625 C624 1.377 . S
C625 C631 1.390 . S
C626 H617 0.930 . S
C626 C624 1.384 . S
C626 C627 1.372 . S
C627 C626 1.372 . S
C627 C628 1.400 . S
C627 C632 1.490 . S
C628 H618 0.930 . S
C628 C627 1.400 . S
C628 C631 1.386 . S
H629 C645 0.930 . S
H630 C646 0.931 . S
C631 H619 0.929 . S
C631 C625 1.390 . S
C631 C628 1.386 . S
C632 C627 1.490 . S
C632 C634 1.395 . S
C632 C635 1.403 . S
H633 C639 0.930 . S
C634 H620 0.930 . S
C634 C632 1.395 . S
C634 C637 1.403 . S
C635 C632 1.403 . S
C635 C636 1.524 . S
C635 C639 1.400 . S
C636 H621 0.960 . S
C636 H622 0.960 . S
C636 H623 0.960 . S
C636 C635 1.524 . S
C637 C634 1.403 . S
C637 C638 1.392 . S
C637 C641 1.495 . S
C638 C637 1.392 . S
C638 C639 1.385 . S
C638 C640 1.478 . S
C639 H633 0.930 . S
C639 C635 1.400 . S
C639 C638 1.385 . S
C640 C638 1.478 . S
C640 C642 1.381 . S
C640 C646 1.383 . S
C641 C637 1.495 . S
C641 H647 0.959 . S
C641 H648 0.961 . S
C641 H649 0.960 . S
C642 C640 1.381 . S
C642 C643 1.394 . S
C642 H650 0.930 . S
C643 C642 1.394 . S
C643 C644 1.383 . S
C643 H651 0.929 . S
C644 C643 1.383 . S
C644 C645 1.377 . S
C645 H629 0.930 . S
C645 C644 1.377 . S
C645 C646 1.379 . S
C646 H630 0.931 . S
C646 C640 1.383 . S
C646 C645 1.379 . S
H647 C641 0.959 . S
H648 C641 0.961 . S
H649 C641 0.960 . S
H650 C642 0.930 . S
H651 C643 0.929 . S
H652 C660 0.929 . S
H653 C662 0.930 . S
H654 C664 0.930 . S
H655 C667 0.929 . S
H656 C670 0.930 . S
H657 C672 0.960 . S
H658 C672 0.960 . S
H659 C672 0.960 . S
C660 H652 0.929 . S
C660 C661 1.377 . S
C660 C662 1.384 . S
C661 C660 1.377 . S
C661 C667 1.390 . S
C662 H653 0.930 . S
C662 C660 1.384 . S
C662 C663 1.372 . S
C663 C662 1.372 . S
C663 C664 1.400 . S
C663 C668 1.490 . S
C664 H654 0.930 . S
C664 C663 1.400 . S
C664 C667 1.386 . S
H665 C681 0.930 . S
H666 C682 0.931 . S
C667 H655 0.929 . S
C667 C661 1.390 . S
C667 C664 1.386 . S
C668 C663 1.490 . S
C668 C670 1.395 . S
C668 C671 1.403 . S
H669 C675 0.930 . S
C670 H656 0.930 . S
C670 C668 1.395 . S
C670 C673 1.403 . S
C671 C668 1.403 . S
C671 C672 1.524 . S
C671 C675 1.400 . S
C672 H657 0.960 . S
C672 H658 0.960 . S
C672 H659 0.960 . S
C672 C671 1.524 . S
C673 C670 1.403 . S
C673 C674 1.392 . S
C673 C677 1.495 . S
C674 C673 1.392 . S
C674 C675 1.385 . S
C674 C676 1.478 . S
C675 H669 0.930 . S
C675 C671 1.400 . S
C675 C674 1.385 . S
C676 C674 1.478 . S
C676 C678 1.381 . S
C676 C682 1.383 . S
C677 C673 1.495 . S
C677 H683 0.959 . S
C677 H684 0.961 . S
C677 H685 0.960 . S
C678 C676 1.381 . S
C678 C679 1.394 . S
C678 H686 0.930 . S
C679 C678 1.394 . S
C679 C680 1.383 . S
C679 H687 0.929 . S
C680 C679 1.383 . S
C680 C681 1.377 . S
C681 H665 0.930 . S
C681 C680 1.377 . S
C681 C682 1.379 . S
C682 H666 0.931 . S
C682 C676 1.383 . S
C682 C681 1.379 . S
H683 C677 0.959 . S
H684 C677 0.961 . S
H685 C677 0.960 . S
H686 C678 0.930 . S
H687 C679 0.929 . S
C121 C23 1.488 . S
C140 C9 1.500 . S
C157 C37 1.482 . S
C176 C51 1.468 . S
C193 C65 1.488 . S
C212 C79 1.501 . S
C229 C93 1.486 . S
C248 C107 1.489 . S
C265 C8 1.258 . S
C284 C50 1.226 . S
C301 C36 1.258 . S
C320 C22 1.262 . S
C337 C35 1.391 . S
C356 C21 1.378 . S
C373 C7 1.390 . S
C392 C49 1.400 . S
C409 C64 1.256 . S
C428 C106 1.225 . S
C445 C92 1.260 . S
C464 C78 1.241 . S
C481 C77 1.393 . S
C500 C91 1.378 . S
C517 C63 1.392 . S
C536 C105 1.395 . S
C553 C76 1.522 . S
C572 C6 1.532 . S
C589 C62 1.521 . S
C608 C20 1.535 . S
C625 C34 1.520 . S
C644 C104 1.535 . S
C661 C90 1.518 . S
C680 C48 1.500 . S
