# Generated by pormake.
# Topology snk, (6)-cn, num edge types: 1
# Building blocks:
#     Node 0, Type 0, BuildingBlock: CUKXOW_clean_sbu_0, # of connection points: 6
#     Node 1, Type 0, BuildingBlock: CUKXOW_clean_sbu_0, # of connection points: 6
#     Node 2, Type 0, BuildingBlock: CUKXOW_clean_sbu_0, # of connection points: 6
#     Node 3, Type 0, BuildingBlock: CUKXOW_clean_sbu_0, # of connection points: 6
#     Node 4, Type 0, BuildingBlock: CUKXOW_clean_sbu_0, # of connection points: 6
#     Node 5, Type 0, BuildingBlock: CUKXOW_clean_sbu_0, # of connection points: 6
#     Node 6, Type 0, BuildingBlock: CUKXOW_clean_sbu_0, # of connection points: 6
#     Node 7, Type 0, BuildingBlock: CUKXOW_clean_sbu_0, # of connection points: 6
#     Edge 8, Type (0, 0), BuildingBlock: CIFDUS_clean_linker_0, # of connection points: 2
#     Edge 9, Type (0, 0), BuildingBlock: CIFDUS_clean_linker_0, # of connection points: 2
#     Edge 10, Type (0, 0), BuildingBlock: CIFDUS_clean_linker_0, # of connection points: 2
#     Edge 11, Type (0, 0), BuildingBlock: CIFDUS_clean_linker_0, # of connection points: 2
#     Edge 12, Type (0, 0), BuildingBlock: CIFDUS_clean_linker_0, # of connection points: 2
#     Edge 13, Type (0, 0), BuildingBlock: CIFDUS_clean_linker_0, # of connection points: 2
#     Edge 14, Type (0, 0), BuildingBlock: CIFDUS_clean_linker_0, # of connection points: 2
#     Edge 15, Type (0, 0), BuildingBlock: CIFDUS_clean_linker_0, # of connection points: 2
#     Edge 16, Type (0, 0), BuildingBlock: CIFDUS_clean_linker_0, # of connection points: 2
#     Edge 17, Type (0, 0), BuildingBlock: CIFDUS_clean_linker_0, # of connection points: 2
#     Edge 18, Type (0, 0), BuildingBlock: CIFDUS_clean_linker_0, # of connection points: 2
#     Edge 19, Type (0, 0), BuildingBlock: CIFDUS_clean_linker_0, # of connection points: 2
#     Edge 20, Type (0, 0), BuildingBlock: CIFDUS_clean_linker_0, # of connection points: 2
#     Edge 21, Type (0, 0), BuildingBlock: CIFDUS_clean_linker_0, # of connection points: 2
#     Edge 22, Type (0, 0), BuildingBlock: CIFDUS_clean_linker_0, # of connection points: 2
#     Edge 23, Type (0, 0), BuildingBlock: CIFDUS_clean_linker_0, # of connection points: 2
#     Edge 24, Type (0, 0), BuildingBlock: CIFDUS_clean_linker_0, # of connection points: 2
#     Edge 25, Type (0, 0), BuildingBlock: CIFDUS_clean_linker_0, # of connection points: 2
#     Edge 26, Type (0, 0), BuildingBlock: CIFDUS_clean_linker_0, # of connection points: 2
#     Edge 27, Type (0, 0), BuildingBlock: CIFDUS_clean_linker_0, # of connection points: 2
#     Edge 28, Type (0, 0), BuildingBlock: CIFDUS_clean_linker_0, # of connection points: 2
#     Edge 29, Type (0, 0), BuildingBlock: CIFDUS_clean_linker_0, # of connection points: 2
#     Edge 30, Type (0, 0), BuildingBlock: CIFDUS_clean_linker_0, # of connection points: 2
#     Edge 31, Type (0, 0), BuildingBlock: CIFDUS_clean_linker_0, # of connection points: 2
# Relax obj value: 0.079
# Max RMSD: 0.185
# Mean RMSD: 0.131
data_MOF--net-snk--node1-CUKXOW_clean_sbu_0--edge1-CIFDUS_clean_linker_0
_symmetry_space_group_name_H-M    P1
_symmetry_Int_Tables_number       1
_symmetry_cell_setting            triclinic
loop_
_symmetry_equiv_pos_as_xyz
'x, y, z'
_cell_length_a     40.901436
_cell_length_b     40.804487
_cell_length_c     12.868955
_cell_angle_alpha  100.05075
_cell_angle_beta   99.407806
_cell_angle_gamma 90.470431
loop_
_atom_site_label
_atom_site_type_symbol
_atom_site_fract_x
_atom_site_fract_y
_atom_site_fract_z
_atom_type_partial_charge
Tb0 Tb 0.04094 0.03298 0.63897 0.0
C1 C 0.05295 0.95627 0.6193 0.0
Tb2 Tb 0.9807 0.98513 0.59141 0.0
O3 O 0.05267 0.02659 0.80622 0.0
O4 O 0.0039 0.02053 0.72731 0.0
O5 O 0.06604 0.98604 0.61894 0.0
C6 C 0.9357 0.94537 0.63432 0.0
O7 O 0.02078 0.95075 0.61561 0.0
C8 C 1.00062 0.99129 0.40801 0.0
C9 C 0.96861 0.05931 0.57307 0.0
O10 O 0.96633 0.94881 0.68143 0.0
O11 O 0.93025 0.96421 0.56217 0.0
O12 O 0.97504 0.97294 0.4139 0.0
O13 O 0.01291 0.00369 0.50355 0.0
O14 O 0.95552 0.03206 0.59565 0.0
O15 O 1.00105 0.06333 0.57506 0.0
C16 C 0.08834 0.07487 0.62087 0.0
O17 O 0.06409 0.08296 0.67301 0.0
O18 O 0.0859 0.04337 0.58104 0.0
C19 C 0.02293 0.01684 0.81281 0.0
Tb20 Tb 0.23137 0.77616 0.79896 0.0
C21 C 0.30726 0.80565 0.84581 0.0
Tb22 Tb 0.28852 0.72717 0.80839 0.0
O23 O 0.21731 0.76455 0.94599 0.0
O24 O 0.26623 0.76032 0.92249 0.0
O25 O 0.27524 0.81019 0.81089 0.0
C26 C 0.33755 0.68855 0.87714 0.0
O27 O 0.31755 0.77552 0.86084 0.0
C28 C 0.2704 0.73732 0.60755 0.0
C29 C 0.21166 0.69808 0.74893 0.0
O30 O 0.34 0.7117 0.82115 0.0
O31 O 0.30715 0.68692 0.8946 0.0
O32 O 0.29368 0.71779 0.63696 0.0
O33 O 0.25893 0.74913 0.69107 0.0
O34 O 0.24376 0.69257 0.78222 0.0
O35 O 0.20168 0.72876 0.73992 0.0
C36 C 0.19027 0.825 0.75823 0.0
O37 O 0.18991 0.79583 0.69811 0.0
O38 O 0.21346 0.82638 0.84076 0.0
C39 C 0.24625 0.75474 0.98378 0.0
Tb40 Tb 0.47578 0.03041 0.04352 0.0
C41 C 0.45739 0.95176 0.98959 0.0
Tb42 Tb 0.53349 0.98188 1.03664 0.0
O43 O 0.46124 0.01864 0.86842 0.0
O44 O 0.51017 0.01476 0.93755 0.0
O45 O 0.44674 0.98239 1.01803 0.0
C46 C 0.57573 0.93917 0.95317 0.0
O47 O 0.48945 0.94676 0.98452 0.0
C48 C 0.51638 0.99203 0.23146 0.0
C49 C 0.55233 0.06044 0.09829 0.0
O50 O 0.54421 0.93973 0.91729 0.0
O51 O 0.58351 0.96278 1.03602 0.0
O52 O 0.54035 0.97333 0.20461 0.0
O53 O 0.50434 0.00349 0.14876 0.0
O54 O 0.56258 0.0299 0.06474 0.0
O55 O 0.52013 0.06553 0.10437 0.0
C56 C 0.43011 0.07318 0.10617 0.0
O57 O 0.44941 0.07725 1.03815 0.0
O58 O 0.4369 0.04537 0.13915 0.0
C59 C 0.49025 0.00902 0.84936 0.0
Tb60 Tb 0.21635 0.21685 0.22372 0.0
C61 C 0.2923 0.20845 0.21193 0.0
Tb62 Tb 0.26452 0.28017 0.27175 0.0
O63 O 0.206 0.2109 0.04613 0.0
O64 O 0.23631 0.24896 0.13815 0.0
O65 O 0.26523 0.19481 0.23429 0.0
C66 C 0.30248 0.32955 0.24858 0.0
O67 O 0.29504 0.24059 0.20747 0.0
C68 C 0.25483 0.26036 0.45298 0.0
C69 C 0.18914 0.29012 0.27974 0.0
O70 O 0.31307 0.30298 0.28364 0.0
O71 O 0.27033 0.32863 0.22699 0.0
O72 O 0.27323 0.28617 0.44981 0.0
O73 O 0.24449 0.24782 0.35635 0.0
O74 O 0.21695 0.30352 0.26229 0.0
O75 O 0.18512 0.25767 0.27999 0.0
C76 C 0.18268 0.16698 0.26702 0.0
O77 O 0.17026 0.19485 0.24735 0.0
O78 O 0.21384 0.16683 0.25912 0.0
C79 C 0.22498 0.23632 0.04202 0.0
Tb80 Tb 0.73495 0.27696 0.30057 0.0
C81 C 0.8124 0.30266 0.3576 0.0
Tb82 Tb 0.78612 0.22671 0.31125 0.0
O83 O 0.72103 0.26954 0.45268 0.0
O84 O 0.76969 0.26329 0.42869 0.0
O85 O 0.78093 0.31025 0.32638 0.0
C86 C 0.82544 0.17941 0.37944 0.0
O87 O 0.81938 0.27151 0.36943 0.0
C88 C 0.77155 0.2435 0.11892 0.0
C89 C 0.70892 0.20038 0.24969 0.0
O90 O 0.83072 0.19682 0.30813 0.0
O91 O 0.79776 0.18826 0.41092 0.0
O92 O 0.80002 0.23296 0.15791 0.0
O93 O 0.75162 0.24051 0.18295 0.0
O94 O 0.74059 0.19347 0.28072 0.0
O95 O 0.70103 0.23172 0.24117 0.0
C96 C 0.69633 0.32659 0.24627 0.0
O97 O 0.69336 0.30996 0.32155 0.0
O98 O 0.72099 0.31512 0.20084 0.0
C99 C 0.74978 0.25992 0.49244 0.0
Tb100 Tb 0.69623 0.71308 0.62651 0.0
C101 C 0.77225 0.69577 0.64439 0.0
Tb102 Tb 0.75198 0.77031 0.67678 0.0
O103 O 0.6867 0.70773 0.44937 0.0
O104 O 0.72161 0.7415 0.54232 0.0
O105 O 0.7423 0.6868 0.66008 0.0
C106 C 0.79188 0.81754 0.64826 0.0
O107 O 0.7797 0.72635 0.63114 0.0
C108 C 0.73877 0.75253 0.85623 0.0
C109 C 0.67774 0.78939 0.69041 0.0
O110 O 0.80047 0.79516 0.7069 0.0
O111 O 0.76086 0.81327 0.60495 0.0
O112 O 0.76042 0.77586 0.85409 0.0
O113 O 0.72699 0.7412 0.75949 0.0
O114 O 0.70838 0.79992 0.68818 0.0
O115 O 0.66799 0.75735 0.67158 0.0
C116 C 0.65507 0.66821 0.66559 0.0
O117 O 0.65124 0.7001 0.68096 0.0
O118 O 0.68165 0.66146 0.62428 0.0
C119 C 0.70922 0.73011 0.44603 0.0
Tb120 Tb 0.54251 0.53766 0.1266 0.0
C121 C 0.56097 0.46389 0.1497 0.0
Tb122 Tb 0.48598 0.4814 0.07745 0.0
O123 O 0.54794 0.54732 0.304 0.0
O124 O 0.51363 0.51293 0.21078 0.0
O125 O 0.57192 0.4929 0.13183 0.0
C126 C 0.44173 0.43715 0.09756 0.0
O127 O 0.52906 0.45645 0.14538 0.0
C128 C 0.50355 0.49458 0.89675 0.0
C129 C 0.46596 0.55526 0.07461 0.0
O130 O 0.46949 0.43003 0.06404 0.0
O131 O 0.43876 0.46915 0.11948 0.0
O132 O 0.4809 0.47241 0.89966 0.0
O133 O 0.51461 0.50655 0.99341 0.0
O134 O 0.45674 0.52558 0.09097 0.0
O135 O 0.49744 0.56368 0.07254 0.0
C136 C 0.58675 0.5781 0.08188 0.0
O137 O 0.56355 0.5875 0.13734 0.0
O138 O 0.58562 0.54588 0.05552 0.0
C139 C 0.52496 0.52534 0.30716 0.0
Tb140 Tb 0.97466 0.53836 0.54092 0.0
C141 C 0.94968 0.46094 0.48417 0.0
Tb142 Tb 0.02843 0.48244 0.52753 0.0
O143 O 0.96671 0.543 0.36915 0.0
O144 O 0.99874 0.50979 0.4255 0.0
O145 O 0.94277 0.49262 0.51873 0.0
C146 C 0.07044 0.43835 0.44861 0.0
O147 O 0.98062 0.4522 0.4715 0.0
C148 C 0.01577 0.49979 0.72683 0.0
C149 C 0.05334 0.56014 0.59734 0.0
O150 O 0.04679 0.4317 0.49874 0.0
O151 O 0.07045 0.46985 0.44319 0.0
O152 O 0.03694 0.47767 0.69889 0.0
O153 O 0.00411 0.51076 0.64293 0.0
O154 O 0.06128 0.52872 0.56215 0.0
O155 O 0.02192 0.56785 0.6061 0.0
C156 C 0.93149 0.58417 0.60114 0.0
O157 O 0.95912 0.58995 0.56919 0.0
O158 O 0.92845 0.55246 0.60178 0.0
C159 C 0.98749 0.52062 0.34119 0.0
H160 H 0.13699 0.05913 0.50772 0.0
H161 H 0.08439 0.14229 0.64712 0.0
H162 H 0.10867 0.17839 0.54435 0.0
H163 H 0.14055 0.18446 0.40304 0.0
H164 H 0.19385 0.10162 0.2659 0.0
H165 H 0.17252 0.06637 0.37769 0.0
C166 C 0.13138 0.08533 0.51705 0.0
C167 C 0.10887 0.0982 0.58346 0.0
C168 C 0.14453 0.10541 0.45573 0.0
C169 C 0.10182 0.13208 0.5962 0.0
C170 C 0.11528 0.1525 0.53653 0.0
C171 C 0.14701 0.15852 0.39673 0.0
C172 C 0.16767 0.14499 0.32481 0.0
C173 C 0.13567 0.13906 0.4634 0.0
C174 C 0.17721 0.11196 0.31955 0.0
C175 C 0.16538 0.09207 0.38395 0.0
H176 H 0.11633 0.95894 0.72416 0.0
H177 H 0.03941 0.89033 0.53653 0.0
H178 H 0.07566 0.84358 0.5571 0.0
H179 H 0.12904 0.82194 0.63371 0.0
H180 H 0.2035 0.89057 0.83515 0.0
H181 H 0.16869 0.93742 0.80391 0.0
C182 C 0.10764 0.93377 0.68694 0.0
C183 C 0.07535 0.92813 0.62813 0.0
C184 C 0.12822 0.90695 0.70211 0.0
C185 C 0.06419 0.89532 0.58215 0.0
C186 C 0.08492 0.86858 0.59388 0.0
C187 C 0.13759 0.8472 0.67016 0.0
C188 C 0.16881 0.85286 0.73627 0.0
C189 C 0.11693 0.87404 0.65443 0.0
C190 C 0.17952 0.88562 0.78415 0.0
C191 C 0.15964 0.91243 0.76622 0.0
H192 H 0.37728 0.8091 0.88771 0.0
H193 H 0.29323 0.87206 0.86323 0.0
H194 H 0.33037 0.92142 0.90583 0.0
H195 H 0.38742 0.94826 0.95115 0.0
H196 H 0.47154 0.88526 0.96804 0.0
H197 H 0.43439 0.8359 0.92829 0.0
C198 C 0.36691 0.83355 0.89157 0.0
C199 C 0.33176 0.83598 0.87169 0.0
C200 C 0.38884 0.86259 0.9153 0.0
C201 C 0.31969 0.86852 0.87725 0.0
C202 C 0.34116 0.89717 0.90208 0.0
C203 C 0.39781 0.92381 0.94635 0.0
C204 C 0.43297 0.92136 0.96362 0.0
C205 C 0.3759 0.89476 0.92146 0.0
C206 C 0.44507 0.8888 0.9556 0.0
C207 C 0.4236 0.86016 0.9327 0.0
H208 H 0.4173 0.13529 0.06158 0.0
H209 H 0.38248 0.06024 0.21945 0.0
H210 H 0.33661 0.09486 0.26526 0.0
H211 H 0.30574 0.14641 0.25879 0.0
H212 H 0.34213 0.22247 0.10735 0.0
H213 H 0.38771 0.18778 0.06138 0.0
C214 C 0.39969 0.12661 0.10622 0.0
C215 C 0.40322 0.09518 0.13662 0.0
C216 C 0.3735 0.14688 0.13352 0.0
C217 C 0.38033 0.08434 0.19504 0.0
C218 C 0.35402 0.10411 0.22115 0.0
C219 C 0.32362 0.15538 0.21568 0.0
C220 C 0.32029 0.18704 0.18646 0.0
C221 C 0.35023 0.1354 0.19046 0.0
C222 C 0.34399 0.19831 0.13141 0.0
C223 C 0.37013 0.17842 0.10471 0.0
H224 H 0.87252 0.93368 0.53436 0.0
H225 H 0.9455 0.90501 0.7813 0.0
H226 H 0.90664 0.86286 0.80855 0.0
H227 H 0.85305 0.83296 0.75705 0.0
H228 H 0.77965 0.86125 0.51085 0.0
H229 H 0.81771 0.90506 0.48777 0.0
C230 C 0.87971 0.91829 0.59448 0.0
C231 C 0.91159 0.92199 0.65532 0.0
C232 C 0.8574 0.89412 0.60916 0.0
C233 C 0.92093 0.90225 0.73338 0.0
C234 C 0.89884 0.87821 0.74885 0.0
C235 C 0.84545 0.84877 0.69846 0.0
C236 C 0.814 0.84407 0.63513 0.0
C237 C 0.86723 0.87369 0.68622 0.0
C238 C 0.80401 0.86466 0.56008 0.0
C239 C 0.82566 0.88958 0.54696 0.0
H240 H 0.90314 0.06746 0.59134 0.0
H241 H 0.98336 0.10901 0.46918 0.0
H242 H 0.94622 0.14887 0.39611 0.0
H243 H 0.89055 0.17166 0.36346 0.0
H244 H 0.81099 0.13245 0.49339 0.0
H245 H 0.84802 0.09203 0.56588 0.0
C246 C 0.91256 0.08533 0.54922 0.0
C247 C 0.94613 0.08507 0.53601 0.0
C248 C 0.89104 0.10856 0.50789 0.0
C249 C 0.9578 0.10862 0.48146 0.0
C250 C 0.93649 0.1314 0.43895 0.0
C251 C 0.88134 0.15417 0.40737 0.0
C252 C 0.848 0.15481 0.42214 0.0
C253 C 0.90301 0.1315 0.45099 0.0
C254 C 0.83652 0.13235 0.48055 0.0
C255 C 0.85771 0.10925 0.52214 0.0
H256 H 0.63845 0.20052 0.21778 0.0
H257 H 0.71921 0.13326 0.21285 0.0
H258 H 0.67987 0.08573 0.16626 0.0
H259 H 0.62199 0.06156 0.12614 0.0
H260 H 0.54077 0.12798 0.13773 0.0
H261 H 0.58 0.17598 0.18142 0.0
C262 C 0.64761 0.17553 0.20637 0.0
C263 C 0.68263 0.17139 0.21937 0.0
C264 C 0.62432 0.14739 0.18037 0.0
C265 C 0.69302 0.13817 0.20432 0.0
C266 C 0.67026 0.11054 0.17722 0.0
C267 C 0.61262 0.08646 0.13811 0.0
C268 C 0.57765 0.09027 0.1276 0.0
C269 C 0.63574 0.11459 0.16498 0.0
C270 C 0.56701 0.12339 0.14472 0.0
C271 C 0.58971 0.15123 0.16987 0.0
H272 H 0.69219 0.85061 0.8125 0.0
H273 H 0.60979 0.78499 0.64597 0.0
H274 H 0.57087 0.82621 0.70862 0.0
H275 H 0.56032 0.88049 0.81529 0.0
H276 H 0.64307 0.94387 0.99165 0.0
H277 H 0.68179 0.90406 0.92047 0.0
C278 C 0.66571 0.84543 0.7888 0.0
C279 C 0.65394 0.81485 0.72361 0.0
C280 C 0.64355 0.86884 0.82747 0.0
C281 C 0.61953 0.80833 0.69574 0.0
C282 C 0.59727 0.8319 0.73163 0.0
C283 C 0.58684 0.88558 0.83761 0.0
C284 C 0.59888 0.91511 0.90829 0.0
C285 C 0.60899 0.86215 0.79819 0.0
C286 C 0.63325 0.9213 0.93749 0.0
C287 C 0.65539 0.89856 0.89672 0.0
H288 H 0.61766 0.55886 0.9142 0.0
H289 H 0.5894 0.64571 0.11877 0.0
H290 H 0.60517 0.68126 0.99907 0.0
H291 H 0.62482 0.68698 0.83405 0.0
H292 H 0.65441 0.60053 0.63116 0.0
H293 H 0.63853 0.56476 0.75063 0.0
C294 C 0.61559 0.58565 0.9336 0.0
C295 C 0.60265 0.59989 1.02488 0.0
C296 C 0.62368 0.60559 0.86313 0.0
C297 C 0.59962 0.63445 0.049 0.0
C298 C 0.60816 0.65462 0.98006 0.0
C299 C 0.62722 0.66022 0.81499 0.0
C300 C 0.6402 0.64609 0.72379 0.0
C301 C 0.61953 0.64031 0.88596 0.0
C302 C 0.64397 0.61162 0.70067 0.0
C303 C 0.63536 0.59137 0.76944 0.0
H304 H 0.6399 0.3461 0.31944 0.0
H305 H 0.70568 0.36927 0.11067 0.0
H306 H 0.67103 0.41535 0.06649 0.0
H307 H 0.62081 0.44857 0.08485 0.0
H308 H 0.55415 0.42235 0.28732 0.0
H309 H 0.59023 0.3784 0.33657 0.0
C310 C 0.64667 0.36127 0.26438 0.0
C311 C 0.67532 0.35432 0.21853 0.0
C312 C 0.6264 0.38735 0.2383 0.0
C313 C 0.68369 0.37409 0.14689 0.0
C314 C 0.6639 0.40049 0.12178 0.0
C315 C 0.61445 0.43339 0.14042 0.0
C316 C 0.58481 0.4388 0.18235 0.0
C317 C 0.63507 0.40736 0.1668 0.0
C318 C 0.57668 0.41863 0.25331 0.0
C319 C 0.59732 0.39344 0.2817 0.0
H320 H 0.95009 0.39063 0.45423 0.0
H321 H 0.88264 0.47128 0.4543 0.0
H322 H 0.83546 0.43153 0.41488 0.0
H323 H 0.81175 0.37297 0.38039 0.0
H324 H 0.87935 0.29256 0.38795 0.0
H325 H 0.92644 0.33225 0.42337 0.0
C326 C 0.92513 0.39969 0.44537 0.0
C327 C 0.92079 0.4347 0.45761 0.0
C328 C 0.89733 0.37625 0.42378 0.0
C329 C 0.88764 0.44502 0.44611 0.0
C330 C 0.86023 0.42203 0.42319 0.0
C331 C 0.83671 0.36396 0.38969 0.0
C332 C 0.84112 0.32901 0.38081 0.0
C333 C 0.86452 0.38743 0.41192 0.0
C334 C 0.87429 0.31877 0.39414 0.0
C335 C 0.90166 0.34172 0.41448 0.0
H336 H 0.83737 0.70591 0.63142 0.0
H337 H 0.76689 0.62931 0.65501 0.0
H338 H 0.81016 0.58838 0.64997 0.0
H339 H 0.86796 0.57378 0.63271 0.0
H340 H 0.93768 0.65069 0.60738 0.0
H341 H 0.89494 0.69193 0.62025 0.0
C342 C 0.83134 0.68029 0.63554 0.0
C343 C 0.79869 0.67083 0.64294 0.0
C344 C 0.85636 0.65684 0.63264 0.0
C345 C 0.79167 0.63744 0.64893 0.0
C346 C 0.81646 0.61395 0.64612 0.0
C347 C 0.87381 0.59965 0.63118 0.0
C348 C 0.90597 0.60917 0.61917 0.0
C349 C 0.84888 0.62329 0.63734 0.0
C350 C 0.91315 0.64272 0.61664 0.0
C351 C 0.88867 0.66632 0.62365 0.0
H352 H 0.36348 0.31974 0.20771 0.0
H353 H 0.28876 0.39346 0.22797 0.0
H354 H 0.32583 0.43396 0.18025 0.0
H355 H 0.37976 0.44783 0.13525 0.0
H356 H 0.45261 0.37234 0.10465 0.0
H357 H 0.41557 0.3324 0.15291 0.0
C358 C 0.35547 0.34478 0.20227 0.0
C359 C 0.32403 0.35418 0.22249 0.0
C360 C 0.37631 0.36718 0.17223 0.0
C361 C 0.31323 0.38617 0.21316 0.0
C362 C 0.33427 0.40912 0.18583 0.0
C363 C 0.3873 0.42255 0.13874 0.0
C364 C 0.4186 0.41277 0.1175 0.0
C365 C 0.36586 0.39982 0.16537 0.0
C366 C 0.4284 0.3801 0.12085 0.0
C367 C 0.4074 0.35742 0.14881 0.0
H368 H 0.46902 0.61116 0.9843 0.0
H369 H 0.40236 0.55268 0.11315 0.0
H370 H 0.35718 0.58883 0.06664 0.0
H371 H 0.3356 0.63625 0.98364 0.0
H372 H 0.40178 0.69381 0.8507 0.0
H373 H 0.44773 0.65914 0.90436 0.0
C374 C 0.44472 0.6065 1.00322 0.0
C375 C 0.43932 0.5791 0.05233 0.0
C376 C 0.41848 0.62723 0.9748 0.0
C377 C 0.40742 0.57342 0.07511 0.0
C378 C 0.38143 0.59412 0.04845 0.0
C379 C 0.36011 0.64122 0.96684 0.0
C380 C 0.3652 0.66755 0.91305 0.0
C381 C 0.38651 0.62093 0.99728 0.0
C382 C 0.39713 0.67366 0.89177 0.0
C383 C 0.42348 0.65383 0.92252 0.0
H384 H 0.14199 0.69791 0.71415 0.0
H385 H 0.22244 0.63036 0.71878 0.0
H386 H 0.1826 0.58285 0.6724 0.0
H387 H 0.12383 0.55909 0.62901 0.0
H388 H 0.04397 0.62748 0.63274 0.0
H389 H 0.08387 0.67448 0.67622 0.0
C390 C 0.15106 0.67286 0.70507 0.0
C391 C 0.18599 0.66857 0.7204 0.0
C392 C 0.1276 0.64502 0.67933 0.0
C393 C 0.19625 0.6353 0.70826 0.0
C394 C 0.17319 0.60774 0.68129 0.0
C395 C 0.11497 0.5842 0.63931 0.0
C396 C 0.08002 0.5888 0.62664 0.0
C397 C 0.13862 0.61205 0.6664 0.0
C398 C 0.07008 0.62219 0.64155 0.0
C399 C 0.09317 0.64953 0.66658 0.0
H400 H 0.18537 0.35614 0.26787 0.0
H401 H 0.13267 0.27572 0.35533 0.0
H402 H 0.09108 0.31422 0.41353 0.0
H403 H 0.07066 0.37139 0.44617 0.0
H404 H 0.12335 0.45131 0.357 0.0
H405 H 0.16389 0.4124 0.29324 0.0
C406 C 0.16473 0.34687 0.2991 0.0
C407 C 0.16237 0.31295 0.30731 0.0
C408 C 0.14091 0.36918 0.3328 0.0
C409 C 0.13522 0.30159 0.34761 0.0
C410 C 0.11143 0.32366 0.38142 0.0
C411 C 0.09098 0.3802 0.41244 0.0
C412 C 0.09412 0.41422 0.40687 0.0
C413 C 0.11419 0.35759 0.37545 0.0
C414 C 0.12044 0.42528 0.36247 0.0
C415 C 0.14364 0.40303 0.32599 0.0
H416 H 0.06095 0.02631 1.01201 0.0
H417 H 0.96214 0.99539 0.84795 0.0
H418 H 0.94712 0.98393 1.01533 0.0
H419 H 0.96218 0.9823 0.20958 0.0
H420 H 0.05949 0.01773 0.37619 0.0
H421 H 0.07483 0.0282 0.20805 0.0
C422 C 0.03605 0.0171 1.01261 0.0
C423 C 0.01289 0.01114 0.9159 0.0
C424 C 0.0273 0.01152 0.11046 0.0
C425 C 0.98068 0.99966 0.91967 0.0
C426 C 0.97205 0.99325 1.01597 0.0
C427 C 0.98677 0.99237 0.20921 0.0
C428 C 0.00976 0.999 0.30615 0.0
C429 C 0.99517 0.99894 0.11193 0.0
C430 C 0.04131 0.01241 0.30368 0.0
C431 C 0.05009 0.0183 0.20706 0.0
H432 H 0.30601 0.72466 0.4452 0.0
H433 H 0.21357 0.76473 0.51769 0.0
H434 H 0.19772 0.77272 0.33146 0.0
H435 H 0.20994 0.76757 0.14645 0.0
H436 H 0.30419 0.7311 0.07827 0.0
H437 H 0.31945 0.72226 0.26334 0.0
C438 C 0.28239 0.73525 0.42042 0.0
C439 C 0.26093 0.74399 0.49585 0.0
C440 C 0.27374 0.74022 0.31336 0.0
C441 C 0.23059 0.75791 0.46206 0.0
C442 C 0.22151 0.76234 0.35519 0.0
C443 C 0.23384 0.75762 0.17193 0.0
C444 C 0.25574 0.74959 0.09731 0.0
C445 C 0.24281 0.75345 0.27986 0.0
C446 C 0.28672 0.73719 0.13288 0.0
C447 C 0.29548 0.73223 0.23912 0.0
H448 H 0.45311 0.01842 0.65942 0.0
H449 H 0.5496 0.98859 0.79232 0.0
H450 H 0.56587 0.98061 0.61481 0.0
H451 H 0.55285 0.9822 0.42043 0.0
H452 H 0.45736 0.01431 0.28899 0.0
H453 H 0.44076 0.02174 0.46593 0.0
C454 C 0.4777 0.01008 0.64966 0.0
C455 C 0.49997 0.00378 0.73997 0.0
C456 C 0.4872 0.00628 0.54703 0.0
C457 C 0.53182 0.99336 0.72501 0.0
C458 C 0.54118 0.9889 0.62314 0.0
C459 C 0.52843 0.991 0.43049 0.0
C460 C 0.5065 0.99807 0.34063 0.0
C461 C 0.51913 0.99531 0.53341 0.0
C462 C 0.47499 0.00936 0.35604 0.0
C463 C 0.4654 0.0133 0.45758 0.0
H464 H 0.202 0.20668 0.83491 0.0
H465 H 0.26765 0.28634 1.02192 0.0
H466 H 0.28252 0.30038 0.85744 0.0
H467 H 0.27715 0.28994 0.65966 0.0
H468 H 0.2118 0.21021 0.47206 0.0
H469 H 0.19659 0.19622 0.63637 0.0
C470 C 0.2195 0.2272 0.83976 0.0
C471 C 0.23356 0.24555 0.94147 0.0
C472 C 0.22807 0.23502 0.7442 0.0
C473 C 0.25629 0.27193 0.94552 0.0
C474 C 0.26486 0.27989 0.85112 0.0
C475 C 0.2596 0.26943 0.65457 0.0
C476 C 0.24572 0.25107 0.55282 0.0
C477 C 0.25098 0.26161 0.74994 0.0
C478 C 0.22299 0.22466 0.54851 0.0
C479 C 0.21425 0.21672 0.64286 0.0
H480 H 0.81136 0.2398 0.96531 0.0
H481 H 0.71059 0.25706 1.01305 0.0
H482 H 0.69509 0.26324 0.82536 0.0
H483 H 0.70999 0.26356 0.64603 0.0
H484 H 0.81077 0.24642 0.59829 0.0
H485 H 0.82627 0.24018 0.78596 0.0
C486 C 0.78597 0.24494 0.93481 0.0
C487 C 0.76218 0.24791 1.00423 0.0
C488 C 0.77719 0.24839 0.82596 0.0
C489 C 0.72946 0.25462 0.96239 0.0
C490 C 0.72057 0.25813 0.85461 0.0
C491 C 0.73538 0.25843 0.67652 0.0
C492 C 0.75918 0.25551 0.60711 0.0
C493 C 0.74417 0.255 0.78536 0.0
C494 C 0.79191 0.24884 0.64896 0.0
C495 C 0.80079 0.24529 0.75672 0.0
H496 H 0.68206 0.70408 0.23942 0.0
H497 H 0.75821 0.77387 0.42497 0.0
H498 H 0.77345 0.78699 0.26014 0.0
H499 H 0.7654 0.77847 0.06233 0.0
H500 H 0.69084 0.70715 0.87577 0.0
H501 H 0.67488 0.69456 0.04083 0.0
C502 C 0.70195 0.72226 0.24392 0.0
C503 C 0.71863 0.7384 0.34546 0.0
C504 C 0.71093 0.72925 0.14801 0.0
C505 C 0.74454 0.76157 0.34895 0.0
C506 C 0.75339 0.7689 0.25424 0.0
C507 C 0.74563 0.76012 0.05759 0.0
C508 C 0.72919 0.74388 0.95603 0.0
C509 C 0.73678 0.75292 0.15326 0.0
C510 C 0.70377 0.72012 0.95211 0.0
C511 C 0.69467 0.71295 0.04683 0.0
H512 H 0.47906 0.46654 0.69008 0.0
H513 H 0.54545 0.54552 0.87672 0.0
H514 H 0.55802 0.56152 0.71214 0.0
H515 H 0.54975 0.55333 0.5138 0.0
H516 H 0.4823 0.47515 0.32685 0.0
H517 H 0.47029 0.45877 0.49181 0.0
C518 C 0.49637 0.48724 0.6949 0.0
C519 C 0.5117 0.50451 0.79664 0.0
C520 C 0.50307 0.49655 0.5992 0.0
C521 C 0.53381 0.53139 0.80052 0.0
C522 C 0.5408 0.54067 0.70593 0.0
C523 C 0.53234 0.53272 0.50902 0.0
C524 C 0.51684 0.51556 0.40735 0.0
C525 C 0.52556 0.52347 0.6047 0.0
C526 C 0.49443 0.48891 0.40331 0.0
C527 C 0.48765 0.4795 0.49795 0.0
H528 H 0.03852 0.4714 0.89985 0.0
H529 H 0.97302 0.54661 0.8014 0.0
H530 H 0.95874 0.55933 0.98191 0.0
H531 H 0.96491 0.54905 0.16825 0.0
H532 H 0.02961 0.47317 0.26559 0.0
H533 H 0.04424 0.46074 0.08569 0.0
C534 C 0.02112 0.49064 0.9178 0.0
C535 C 0.00688 0.50809 0.8366 0.0
C536 C 0.01295 0.49767 1.02194 0.0
C537 C 0.98434 0.53282 0.86172 0.0
C538 C 0.97619 0.54006 0.96518 0.0
C539 C 0.98224 0.52975 0.15024 0.0
C540 C 0.9964 0.51223 0.23139 0.0
C541 C 0.99032 0.52265 0.04598 0.0
C542 C 0.01866 0.48727 0.20586 0.0
C543 C 0.02692 0.48012 0.10255 0.0
loop_
_geom_bond_atom_site_label_1
_geom_bond_atom_site_label_2
_geom_bond_distance
_geom_bond_site_symmetry_2
_ccdc_geom_bond_type
Tb0 O3 2.453 . S
Tb0 O4 2.596 1_445 S
Tb0 O5 2.374 1_545 S
Tb0 O13 2.343 . S
Tb0 O15 2.353 1_455 S
Tb0 O17 2.427 . S
Tb0 O18 2.513 . S
C1 O5 1.251 . S
C1 O7 1.263 . S
Tb2 O4 2.343 . S
Tb2 O7 2.353 1_655 S
Tb2 O10 2.427 . S
Tb2 O11 2.513 . S
Tb2 O12 2.453 . S
Tb2 O13 2.596 1_665 S
Tb2 O14 2.374 1_565 S
O3 Tb0 2.453 . S
O3 C19 1.256 . S
O4 Tb0 2.596 1_665 S
O4 Tb2 2.343 . S
O4 C19 1.257 1_665 S
O5 Tb0 2.374 1_565 S
O5 C1 1.251 . S
C6 O10 1.275 . S
C6 O11 1.246 . S
O7 C1 1.263 . S
O7 Tb2 2.353 1_455 S
C8 O12 1.247 . S
C8 O13 1.259 1_665 S
C9 O14 1.250 . S
C9 O15 1.263 . S
O10 Tb2 2.427 . S
O10 C6 1.275 . S
O11 Tb2 2.513 . S
O11 C6 1.246 . S
O12 Tb2 2.453 . S
O12 C8 1.247 . S
O13 Tb0 2.343 . S
O13 Tb2 2.596 1_445 S
O13 C8 1.259 1_445 S
O14 Tb2 2.374 1_545 S
O14 C9 1.250 . S
O15 Tb0 2.353 1_655 S
O15 C9 1.263 . S
C16 O17 1.275 . S
C16 O18 1.246 . S
O17 Tb0 2.427 . S
O17 C16 1.275 . S
O18 Tb0 2.513 . S
O18 C16 1.246 . S
C19 O3 1.256 . S
C19 O4 1.257 1_445 S
Tb20 O23 2.453 . S
Tb20 O24 2.596 . S
Tb20 O25 2.374 . S
Tb20 O33 2.343 . S
Tb20 O35 2.353 . S
Tb20 O37 2.427 . S
Tb20 O38 2.513 . S
C21 O25 1.251 . S
C21 O27 1.263 . S
Tb22 O24 2.343 . S
Tb22 O27 2.353 . S
Tb22 O30 2.427 . S
Tb22 O31 2.513 . S
Tb22 O32 2.453 . S
Tb22 O33 2.596 . S
Tb22 O34 2.374 . S
O23 Tb20 2.453 . S
O23 C39 1.245 . S
O24 Tb20 2.596 . S
O24 Tb22 2.343 . S
O24 C39 1.259 . S
O25 Tb20 2.374 . S
O25 C21 1.251 . S
C26 O30 1.275 . S
C26 O31 1.246 . S
O27 C21 1.263 . S
O27 Tb22 2.353 . S
C28 O32 1.245 . S
C28 O33 1.259 . S
C29 O34 1.250 . S
C29 O35 1.263 . S
O30 Tb22 2.427 . S
O30 C26 1.275 . S
O31 Tb22 2.513 . S
O31 C26 1.246 . S
O32 Tb22 2.453 . S
O32 C28 1.245 . S
O33 Tb20 2.343 . S
O33 Tb22 2.596 . S
O33 C28 1.259 . S
O34 Tb22 2.374 . S
O34 C29 1.250 . S
O35 Tb20 2.353 . S
O35 C29 1.263 . S
C36 O37 1.275 . S
C36 O38 1.246 . S
O37 Tb20 2.427 . S
O37 C36 1.275 . S
O38 Tb20 2.513 . S
O38 C36 1.246 . S
C39 O23 1.245 . S
C39 O24 1.259 . S
Tb40 O43 2.453 . S
Tb40 O44 2.596 1_545 S
Tb40 O45 2.374 1_545 S
Tb40 O53 2.343 1_556 S
Tb40 O55 2.353 1_556 S
Tb40 O57 2.427 1_556 S
Tb40 O58 2.513 1_556 S
C41 O45 1.251 . S
C41 O47 1.263 . S
Tb42 O44 2.343 1_554 S
Tb42 O47 2.353 1_554 S
Tb42 O50 2.427 1_554 S
Tb42 O51 2.513 1_554 S
Tb42 O52 2.453 . S
Tb42 O53 2.596 1_565 S
Tb42 O54 2.374 1_565 S
O43 Tb40 2.453 . S
O43 C59 1.245 1_545 S
O44 Tb40 2.596 1_565 S
O44 Tb42 2.343 1_556 S
O44 C59 1.259 . S
O45 Tb40 2.374 1_565 S
O45 C41 1.251 . S
C46 O50 1.275 . S
C46 O51 1.246 . S
O47 C41 1.263 . S
O47 Tb42 2.353 1_556 S
C48 O52 1.245 1_545 S
C48 O53 1.259 . S
C49 O54 1.250 . S
C49 O55 1.263 . S
O50 Tb42 2.427 1_556 S
O50 C46 1.275 . S
O51 Tb42 2.513 1_556 S
O51 C46 1.246 . S
O52 Tb42 2.453 . S
O52 C48 1.245 1_565 S
O53 Tb40 2.343 1_554 S
O53 Tb42 2.596 1_545 S
O53 C48 1.259 . S
O54 Tb42 2.374 1_545 S
O54 C49 1.250 . S
O55 Tb40 2.353 1_554 S
O55 C49 1.263 . S
C56 O57 1.275 . S
C56 O58 1.246 . S
O57 Tb40 2.427 1_554 S
O57 C56 1.275 . S
O58 Tb40 2.513 1_554 S
O58 C56 1.246 . S
C59 O43 1.245 1_565 S
C59 O44 1.259 . S
Tb60 O63 2.453 . S
Tb60 O64 2.596 . S
Tb60 O65 2.374 . S
Tb60 O73 2.343 . S
Tb60 O75 2.353 . S
Tb60 O77 2.427 . S
Tb60 O78 2.513 . S
C61 O65 1.251 . S
C61 O67 1.263 . S
Tb62 O64 2.343 . S
Tb62 O67 2.353 . S
Tb62 O70 2.427 . S
Tb62 O71 2.513 . S
Tb62 O72 2.453 . S
Tb62 O73 2.596 . S
Tb62 O74 2.374 . S
O63 Tb60 2.453 . S
O63 C79 1.245 . S
O64 Tb60 2.596 . S
O64 Tb62 2.343 . S
O64 C79 1.259 . S
O65 Tb60 2.374 . S
O65 C61 1.251 . S
C66 O70 1.275 . S
C66 O71 1.246 . S
O67 C61 1.263 . S
O67 Tb62 2.353 . S
C68 O72 1.245 . S
C68 O73 1.259 . S
C69 O74 1.250 . S
C69 O75 1.263 . S
O70 Tb62 2.427 . S
O70 C66 1.275 . S
O71 Tb62 2.513 . S
O71 C66 1.246 . S
O72 Tb62 2.453 . S
O72 C68 1.245 . S
O73 Tb60 2.343 . S
O73 Tb62 2.596 . S
O73 C68 1.259 . S
O74 Tb62 2.374 . S
O74 C69 1.250 . S
O75 Tb60 2.353 . S
O75 C69 1.263 . S
C76 O77 1.275 . S
C76 O78 1.246 . S
O77 Tb60 2.427 . S
O77 C76 1.275 . S
O78 Tb60 2.513 . S
O78 C76 1.246 . S
C79 O63 1.245 . S
C79 O64 1.259 . S
Tb80 O83 2.453 . S
Tb80 O84 2.596 . S
Tb80 O85 2.374 . S
Tb80 O93 2.343 . S
Tb80 O95 2.353 . S
Tb80 O97 2.427 . S
Tb80 O98 2.513 . S
C81 O85 1.251 . S
C81 O87 1.263 . S
Tb82 O84 2.343 . S
Tb82 O87 2.353 . S
Tb82 O90 2.427 . S
Tb82 O91 2.513 . S
Tb82 O92 2.453 . S
Tb82 O93 2.596 . S
Tb82 O94 2.374 . S
O83 Tb80 2.453 . S
O83 C99 1.245 . S
O84 Tb80 2.596 . S
O84 Tb82 2.343 . S
O84 C99 1.259 . S
O85 Tb80 2.374 . S
O85 C81 1.251 . S
C86 O90 1.275 . S
C86 O91 1.246 . S
O87 C81 1.263 . S
O87 Tb82 2.353 . S
C88 O92 1.245 . S
C88 O93 1.259 . S
C89 O94 1.250 . S
C89 O95 1.263 . S
O90 Tb82 2.427 . S
O90 C86 1.275 . S
O91 Tb82 2.513 . S
O91 C86 1.246 . S
O92 Tb82 2.453 . S
O92 C88 1.245 . S
O93 Tb80 2.343 . S
O93 Tb82 2.596 . S
O93 C88 1.259 . S
O94 Tb82 2.374 . S
O94 C89 1.250 . S
O95 Tb80 2.353 . S
O95 C89 1.263 . S
C96 O97 1.275 . S
C96 O98 1.246 . S
O97 Tb80 2.427 . S
O97 C96 1.275 . S
O98 Tb80 2.513 . S
O98 C96 1.246 . S
C99 O83 1.245 . S
C99 O84 1.259 . S
Tb100 O103 2.453 . S
Tb100 O104 2.596 . S
Tb100 O105 2.374 . S
Tb100 O113 2.343 . S
Tb100 O115 2.353 . S
Tb100 O117 2.427 . S
Tb100 O118 2.513 . S
C101 O105 1.251 . S
C101 O107 1.263 . S
Tb102 O104 2.343 . S
Tb102 O107 2.353 . S
Tb102 O110 2.427 . S
Tb102 O111 2.513 . S
Tb102 O112 2.453 . S
Tb102 O113 2.596 . S
Tb102 O114 2.374 . S
O103 Tb100 2.453 . S
O103 C119 1.245 . S
O104 Tb100 2.596 . S
O104 Tb102 2.343 . S
O104 C119 1.259 . S
O105 Tb100 2.374 . S
O105 C101 1.251 . S
C106 O110 1.275 . S
C106 O111 1.246 . S
O107 C101 1.263 . S
O107 Tb102 2.353 . S
C108 O112 1.245 . S
C108 O113 1.259 . S
C109 O114 1.250 . S
C109 O115 1.263 . S
O110 Tb102 2.427 . S
O110 C106 1.275 . S
O111 Tb102 2.513 . S
O111 C106 1.246 . S
O112 Tb102 2.453 . S
O112 C108 1.245 . S
O113 Tb100 2.343 . S
O113 Tb102 2.596 . S
O113 C108 1.259 . S
O114 Tb102 2.374 . S
O114 C109 1.250 . S
O115 Tb100 2.353 . S
O115 C109 1.263 . S
C116 O117 1.275 . S
C116 O118 1.246 . S
O117 Tb100 2.427 . S
O117 C116 1.275 . S
O118 Tb100 2.513 . S
O118 C116 1.246 . S
C119 O103 1.245 . S
C119 O104 1.259 . S
Tb120 O123 2.453 . S
Tb120 O124 2.596 . S
Tb120 O125 2.374 . S
Tb120 O133 2.343 1_554 S
Tb120 O135 2.353 . S
Tb120 O137 2.427 1_554 S
Tb120 O138 2.513 1_554 S
C121 O125 1.251 . S
C121 O127 1.263 1_554 S
Tb122 O124 2.343 1_556 S
Tb122 O127 2.353 . S
Tb122 O130 2.427 1_556 S
Tb122 O131 2.513 1_556 S
Tb122 O132 2.453 . S
Tb122 O133 2.596 . S
Tb122 O134 2.374 . S
O123 Tb120 2.453 . S
O123 C139 1.245 . S
O124 Tb120 2.596 . S
O124 Tb122 2.343 1_554 S
O124 C139 1.259 . S
O125 Tb120 2.374 . S
O125 C121 1.251 . S
C126 O130 1.275 . S
C126 O131 1.246 . S
O127 C121 1.263 1_556 S
O127 Tb122 2.353 . S
C128 O132 1.245 . S
C128 O133 1.259 . S
C129 O134 1.250 . S
C129 O135 1.263 1_556 S
O130 Tb122 2.427 1_554 S
O130 C126 1.275 . S
O131 Tb122 2.513 1_554 S
O131 C126 1.246 . S
O132 Tb122 2.453 . S
O132 C128 1.245 . S
O133 Tb120 2.343 1_556 S
O133 Tb122 2.596 . S
O133 C128 1.259 . S
O134 Tb122 2.374 . S
O134 C129 1.250 . S
O135 Tb120 2.353 . S
O135 C129 1.263 1_554 S
C136 O137 1.275 . S
C136 O138 1.246 . S
O137 Tb120 2.427 1_556 S
O137 C136 1.275 . S
O138 Tb120 2.513 1_556 S
O138 C136 1.246 . S
C139 O123 1.245 . S
C139 O124 1.259 . S
Tb140 O143 2.453 . S
Tb140 O144 2.596 1_655 S
Tb140 O145 2.374 . S
Tb140 O153 2.343 . S
Tb140 O155 2.353 1_655 S
Tb140 O157 2.427 . S
Tb140 O158 2.513 . S
C141 O145 1.251 . S
C141 O147 1.263 . S
Tb142 O144 2.343 . S
Tb142 O147 2.353 1_455 S
Tb142 O150 2.427 . S
Tb142 O151 2.513 . S
Tb142 O152 2.453 . S
Tb142 O153 2.596 1_455 S
Tb142 O154 2.374 . S
O143 Tb140 2.453 . S
O143 C159 1.251 . S
O144 Tb140 2.596 1_455 S
O144 Tb142 2.343 . S
O144 C159 1.258 1_455 S
O145 Tb140 2.374 . S
O145 C141 1.251 . S
C146 O150 1.275 . S
C146 O151 1.246 . S
O147 C141 1.263 . S
O147 Tb142 2.353 1_655 S
C148 O152 1.260 . S
C148 O153 1.256 1_455 S
C149 O154 1.250 . S
C149 O155 1.263 . S
O150 Tb142 2.427 . S
O150 C146 1.275 . S
O151 Tb142 2.513 . S
O151 C146 1.246 . S
O152 Tb142 2.453 . S
O152 C148 1.260 . S
O153 Tb140 2.343 . S
O153 Tb142 2.596 1_655 S
O153 C148 1.256 1_655 S
O154 Tb142 2.374 . S
O154 C149 1.250 . S
O155 Tb140 2.353 1_455 S
O155 C149 1.263 . S
C156 O157 1.275 . S
C156 O158 1.246 . S
O157 Tb140 2.427 . S
O157 C156 1.275 . S
O158 Tb140 2.513 . S
O158 C156 1.246 . S
C159 O143 1.251 . S
C159 O144 1.258 1_655 S
H160 C166 0.930 . S
H161 C169 0.930 . S
H162 C170 0.930 . S
H163 C171 0.930 . S
H164 C174 0.930 . S
H165 C175 0.930 . S
C166 H160 0.930 . S
C166 C167 1.355 . S
C166 C168 1.415 . S
C167 C166 1.355 . S
C167 C169 1.419 . S
C168 C166 1.415 . S
C168 C173 1.425 . S
C168 C175 1.409 . S
C169 H161 0.930 . S
C169 C167 1.419 . S
C169 C170 1.362 . S
C170 H162 0.930 . S
C170 C169 1.362 . S
C170 C173 1.409 . S
C171 H163 0.930 . S
C171 C172 1.355 . S
C171 C173 1.415 . S
C172 C171 1.355 . S
C172 C174 1.419 . S
C173 C168 1.425 . S
C173 C170 1.409 . S
C173 C171 1.415 . S
C174 H164 0.930 . S
C174 C172 1.419 . S
C174 C175 1.362 . S
C175 H165 0.930 . S
C175 C168 1.409 . S
C175 C174 1.362 . S
H176 C182 0.930 . S
H177 C185 0.930 . S
H178 C186 0.930 . S
H179 C187 0.930 . S
H180 C190 0.930 . S
H181 C191 0.930 . S
C182 H176 0.930 . S
C182 C183 1.355 . S
C182 C184 1.415 . S
C183 C182 1.355 . S
C183 C185 1.419 . S
C184 C182 1.415 . S
C184 C189 1.425 . S
C184 C191 1.409 . S
C185 H177 0.930 . S
C185 C183 1.419 . S
C185 C186 1.362 . S
C186 H178 0.930 . S
C186 C185 1.362 . S
C186 C189 1.409 . S
C187 H179 0.930 . S
C187 C188 1.355 . S
C187 C189 1.415 . S
C188 C187 1.355 . S
C188 C190 1.419 . S
C189 C184 1.425 . S
C189 C186 1.409 . S
C189 C187 1.415 . S
C190 H180 0.930 . S
C190 C188 1.419 . S
C190 C191 1.362 . S
C191 H181 0.930 . S
C191 C184 1.409 . S
C191 C190 1.362 . S
H192 C198 0.930 . S
H193 C201 0.930 . S
H194 C202 0.930 . S
H195 C203 0.930 . S
H196 C206 0.930 1_554 S
H197 C207 0.930 1_554 S
C198 H192 0.930 . S
C198 C199 1.355 . S
C198 C200 1.415 . S
C199 C198 1.355 . S
C199 C201 1.419 . S
C200 C198 1.415 . S
C200 C205 1.425 . S
C200 C207 1.409 . S
C201 H193 0.930 . S
C201 C199 1.419 . S
C201 C202 1.362 . S
C202 H194 0.930 . S
C202 C201 1.362 . S
C202 C205 1.409 . S
C203 H195 0.930 . S
C203 C204 1.355 . S
C203 C205 1.415 . S
C204 C203 1.355 . S
C204 C206 1.419 . S
C205 C200 1.425 . S
C205 C202 1.409 . S
C205 C203 1.415 . S
C206 H196 0.930 1_556 S
C206 C204 1.419 . S
C206 C207 1.362 . S
C207 H197 0.930 1_556 S
C207 C200 1.409 . S
C207 C206 1.362 . S
H208 C214 0.930 . S
H209 C217 0.930 . S
H210 C218 0.930 . S
H211 C219 0.930 . S
H212 C222 0.930 . S
H213 C223 0.930 . S
C214 H208 0.930 . S
C214 C215 1.355 . S
C214 C216 1.415 . S
C215 C214 1.355 . S
C215 C217 1.419 . S
C216 C214 1.415 . S
C216 C221 1.425 . S
C216 C223 1.409 . S
C217 H209 0.930 . S
C217 C215 1.419 . S
C217 C218 1.362 . S
C218 H210 0.930 . S
C218 C217 1.362 . S
C218 C221 1.409 . S
C219 H211 0.930 . S
C219 C220 1.355 . S
C219 C221 1.415 . S
C220 C219 1.355 . S
C220 C222 1.419 . S
C221 C216 1.425 . S
C221 C218 1.409 . S
C221 C219 1.415 . S
C222 H212 0.930 . S
C222 C220 1.419 . S
C222 C223 1.362 . S
C223 H213 0.930 . S
C223 C216 1.409 . S
C223 C222 1.362 . S
H224 C230 0.930 . S
H225 C233 0.930 . S
H226 C234 0.930 . S
H227 C235 0.930 . S
H228 C238 0.930 . S
H229 C239 0.930 . S
C230 H224 0.930 . S
C230 C231 1.355 . S
C230 C232 1.415 . S
C231 C230 1.355 . S
C231 C233 1.419 . S
C232 C230 1.415 . S
C232 C237 1.425 . S
C232 C239 1.409 . S
C233 H225 0.930 . S
C233 C231 1.419 . S
C233 C234 1.362 . S
C234 H226 0.930 . S
C234 C233 1.362 . S
C234 C237 1.409 . S
C235 H227 0.930 . S
C235 C236 1.355 . S
C235 C237 1.415 . S
C236 C235 1.355 . S
C236 C238 1.419 . S
C237 C232 1.425 . S
C237 C234 1.409 . S
C237 C235 1.415 . S
C238 H228 0.930 . S
C238 C236 1.419 . S
C238 C239 1.362 . S
C239 H229 0.930 . S
C239 C232 1.409 . S
C239 C238 1.362 . S
H240 C246 0.930 . S
H241 C249 0.930 . S
H242 C250 0.930 . S
H243 C251 0.930 . S
H244 C254 0.930 . S
H245 C255 0.930 . S
C246 H240 0.930 . S
C246 C247 1.355 . S
C246 C248 1.415 . S
C247 C246 1.355 . S
C247 C249 1.419 . S
C248 C246 1.415 . S
C248 C253 1.425 . S
C248 C255 1.409 . S
C249 H241 0.930 . S
C249 C247 1.419 . S
C249 C250 1.362 . S
C250 H242 0.930 . S
C250 C249 1.362 . S
C250 C253 1.409 . S
C251 H243 0.930 . S
C251 C252 1.355 . S
C251 C253 1.415 . S
C252 C251 1.355 . S
C252 C254 1.419 . S
C253 C248 1.425 . S
C253 C250 1.409 . S
C253 C251 1.415 . S
C254 H244 0.930 . S
C254 C252 1.419 . S
C254 C255 1.362 . S
C255 H245 0.930 . S
C255 C248 1.409 . S
C255 C254 1.362 . S
H256 C262 0.930 . S
H257 C265 0.930 . S
H258 C266 0.930 . S
H259 C267 0.930 . S
H260 C270 0.930 . S
H261 C271 0.930 . S
C262 H256 0.930 . S
C262 C263 1.355 . S
C262 C264 1.415 . S
C263 C262 1.355 . S
C263 C265 1.419 . S
C264 C262 1.415 . S
C264 C269 1.425 . S
C264 C271 1.409 . S
C265 H257 0.930 . S
C265 C263 1.419 . S
C265 C266 1.362 . S
C266 H258 0.930 . S
C266 C265 1.362 . S
C266 C269 1.409 . S
C267 H259 0.930 . S
C267 C268 1.355 . S
C267 C269 1.415 . S
C268 C267 1.355 . S
C268 C270 1.419 . S
C269 C264 1.425 . S
C269 C266 1.409 . S
C269 C267 1.415 . S
C270 H260 0.930 . S
C270 C268 1.419 . S
C270 C271 1.362 . S
C271 H261 0.930 . S
C271 C264 1.409 . S
C271 C270 1.362 . S
H272 C278 0.930 . S
H273 C281 0.930 . S
H274 C282 0.930 . S
H275 C283 0.930 . S
H276 C286 0.930 . S
H277 C287 0.930 . S
C278 H272 0.930 . S
C278 C279 1.355 . S
C278 C280 1.415 . S
C279 C278 1.355 . S
C279 C281 1.419 . S
C280 C278 1.415 . S
C280 C285 1.425 . S
C280 C287 1.409 . S
C281 H273 0.930 . S
C281 C279 1.419 . S
C281 C282 1.362 . S
C282 H274 0.930 . S
C282 C281 1.362 . S
C282 C285 1.409 . S
C283 H275 0.930 . S
C283 C284 1.355 . S
C283 C285 1.415 . S
C284 C283 1.355 . S
C284 C286 1.419 . S
C285 C280 1.425 . S
C285 C282 1.409 . S
C285 C283 1.415 . S
C286 H276 0.930 . S
C286 C284 1.419 . S
C286 C287 1.362 . S
C287 H277 0.930 . S
C287 C280 1.409 . S
C287 C286 1.362 . S
H288 C294 0.930 . S
H289 C297 0.930 . S
H290 C298 0.930 . S
H291 C299 0.930 . S
H292 C302 0.930 . S
H293 C303 0.930 . S
C294 H288 0.930 . S
C294 C295 1.355 . S
C294 C296 1.415 . S
C295 C294 1.355 . S
C295 C297 1.419 . S
C296 C294 1.415 . S
C296 C301 1.425 . S
C296 C303 1.409 . S
C297 H289 0.930 . S
C297 C295 1.419 . S
C297 C298 1.362 . S
C298 H290 0.930 . S
C298 C297 1.362 . S
C298 C301 1.409 . S
C299 H291 0.930 . S
C299 C300 1.355 . S
C299 C301 1.415 . S
C300 C299 1.355 . S
C300 C302 1.419 . S
C301 C296 1.425 . S
C301 C298 1.409 . S
C301 C299 1.415 . S
C302 H292 0.930 . S
C302 C300 1.419 . S
C302 C303 1.362 . S
C303 H293 0.930 . S
C303 C296 1.409 . S
C303 C302 1.362 . S
H304 C310 0.930 . S
H305 C313 0.930 1_556 S
H306 C314 0.930 . S
H307 C315 0.930 1_556 S
H308 C318 0.930 . S
H309 C319 0.930 . S
C310 H304 0.930 . S
C310 C311 1.355 . S
C310 C312 1.415 . S
C311 C310 1.355 . S
C311 C313 1.419 . S
C312 C310 1.415 . S
C312 C317 1.425 . S
C312 C319 1.409 . S
C313 H305 0.930 1_554 S
C313 C311 1.419 . S
C313 C314 1.362 1_554 S
C314 H306 0.930 . S
C314 C313 1.362 1_556 S
C314 C317 1.409 1_556 S
C315 H307 0.930 1_554 S
C315 C316 1.355 . S
C315 C317 1.415 . S
C316 C315 1.355 . S
C316 C318 1.419 . S
C317 C312 1.425 . S
C317 C314 1.409 1_554 S
C317 C315 1.415 . S
C318 H308 0.930 . S
C318 C316 1.419 . S
C318 C319 1.362 . S
C319 H309 0.930 . S
C319 C312 1.409 . S
C319 C318 1.362 . S
H320 C326 0.930 . S
H321 C329 0.930 . S
H322 C330 0.930 . S
H323 C331 0.930 . S
H324 C334 0.930 . S
H325 C335 0.930 . S
C326 H320 0.930 . S
C326 C327 1.355 . S
C326 C328 1.415 . S
C327 C326 1.355 . S
C327 C329 1.419 . S
C328 C326 1.415 . S
C328 C333 1.425 . S
C328 C335 1.409 . S
C329 H321 0.930 . S
C329 C327 1.419 . S
C329 C330 1.362 . S
C330 H322 0.930 . S
C330 C329 1.362 . S
C330 C333 1.409 . S
C331 H323 0.930 . S
C331 C332 1.355 . S
C331 C333 1.415 . S
C332 C331 1.355 . S
C332 C334 1.419 . S
C333 C328 1.425 . S
C333 C330 1.409 . S
C333 C331 1.415 . S
C334 H324 0.930 . S
C334 C332 1.419 . S
C334 C335 1.362 . S
C335 H325 0.930 . S
C335 C328 1.409 . S
C335 C334 1.362 . S
H336 C342 0.930 . S
H337 C345 0.930 . S
H338 C346 0.930 . S
H339 C347 0.930 . S
H340 C350 0.930 . S
H341 C351 0.930 . S
C342 H336 0.930 . S
C342 C343 1.355 . S
C342 C344 1.415 . S
C343 C342 1.355 . S
C343 C345 1.419 . S
C344 C342 1.415 . S
C344 C349 1.425 . S
C344 C351 1.409 . S
C345 H337 0.930 . S
C345 C343 1.419 . S
C345 C346 1.362 . S
C346 H338 0.930 . S
C346 C345 1.362 . S
C346 C349 1.409 . S
C347 H339 0.930 . S
C347 C348 1.355 . S
C347 C349 1.415 . S
C348 C347 1.355 . S
C348 C350 1.419 . S
C349 C344 1.425 . S
C349 C346 1.409 . S
C349 C347 1.415 . S
C350 H340 0.930 . S
C350 C348 1.419 . S
C350 C351 1.362 . S
C351 H341 0.930 . S
C351 C344 1.409 . S
C351 C350 1.362 . S
H352 C358 0.930 . S
H353 C361 0.930 . S
H354 C362 0.930 . S
H355 C363 0.930 . S
H356 C366 0.930 . S
H357 C367 0.930 . S
C358 H352 0.930 . S
C358 C359 1.355 . S
C358 C360 1.415 . S
C359 C358 1.355 . S
C359 C361 1.419 . S
C360 C358 1.415 . S
C360 C365 1.425 . S
C360 C367 1.409 . S
C361 H353 0.930 . S
C361 C359 1.419 . S
C361 C362 1.362 . S
C362 H354 0.930 . S
C362 C361 1.362 . S
C362 C365 1.409 . S
C363 H355 0.930 . S
C363 C364 1.355 . S
C363 C365 1.415 . S
C364 C363 1.355 . S
C364 C366 1.419 . S
C365 C360 1.425 . S
C365 C362 1.409 . S
C365 C363 1.415 . S
C366 H356 0.930 . S
C366 C364 1.419 . S
C366 C367 1.362 . S
C367 H357 0.930 . S
C367 C360 1.409 . S
C367 C366 1.362 . S
H368 C374 0.930 . S
H369 C377 0.930 . S
H370 C378 0.930 . S
H371 C379 0.930 1_554 S
H372 C382 0.930 . S
H373 C383 0.930 . S
C374 H368 0.930 . S
C374 C375 1.355 . S
C374 C376 1.415 . S
C375 C374 1.355 . S
C375 C377 1.419 1_556 S
C376 C374 1.415 . S
C376 C381 1.425 . S
C376 C383 1.409 . S
C377 H369 0.930 . S
C377 C375 1.419 1_554 S
C377 C378 1.362 . S
C378 H370 0.930 . S
C378 C377 1.362 . S
C378 C381 1.409 1_554 S
C379 H371 0.930 1_556 S
C379 C380 1.355 . S
C379 C381 1.415 . S
C380 C379 1.355 . S
C380 C382 1.419 . S
C381 C376 1.425 . S
C381 C378 1.409 1_556 S
C381 C379 1.415 . S
C382 H372 0.930 . S
C382 C380 1.419 . S
C382 C383 1.362 . S
C383 H373 0.930 . S
C383 C376 1.409 . S
C383 C382 1.362 . S
H384 C390 0.930 . S
H385 C393 0.930 . S
H386 C394 0.930 . S
H387 C395 0.930 . S
H388 C398 0.930 . S
H389 C399 0.930 . S
C390 H384 0.930 . S
C390 C391 1.355 . S
C390 C392 1.415 . S
C391 C390 1.355 . S
C391 C393 1.419 . S
C392 C390 1.415 . S
C392 C397 1.425 . S
C392 C399 1.409 . S
C393 H385 0.930 . S
C393 C391 1.419 . S
C393 C394 1.362 . S
C394 H386 0.930 . S
C394 C393 1.362 . S
C394 C397 1.409 . S
C395 H387 0.930 . S
C395 C396 1.355 . S
C395 C397 1.415 . S
C396 C395 1.355 . S
C396 C398 1.419 . S
C397 C392 1.425 . S
C397 C394 1.409 . S
C397 C395 1.415 . S
C398 H388 0.930 . S
C398 C396 1.419 . S
C398 C399 1.362 . S
C399 H389 0.930 . S
C399 C392 1.409 . S
C399 C398 1.362 . S
H400 C406 0.930 . S
H401 C409 0.930 . S
H402 C410 0.930 . S
H403 C411 0.930 . S
H404 C414 0.930 . S
H405 C415 0.930 . S
C406 H400 0.930 . S
C406 C407 1.355 . S
C406 C408 1.415 . S
C407 C406 1.355 . S
C407 C409 1.419 . S
C408 C406 1.415 . S
C408 C413 1.425 . S
C408 C415 1.409 . S
C409 H401 0.930 . S
C409 C407 1.419 . S
C409 C410 1.362 . S
C410 H402 0.930 . S
C410 C409 1.362 . S
C410 C413 1.409 . S
C411 H403 0.930 . S
C411 C412 1.355 . S
C411 C413 1.415 . S
C412 C411 1.355 . S
C412 C414 1.419 . S
C413 C408 1.425 . S
C413 C410 1.409 . S
C413 C411 1.415 . S
C414 H404 0.930 . S
C414 C412 1.419 . S
C414 C415 1.362 . S
C415 H405 0.930 . S
C415 C408 1.409 . S
C415 C414 1.362 . S
H416 C422 0.927 1_545 S
H417 C425 0.930 . S
H418 C426 0.930 . S
H419 C427 0.927 1_565 S
H420 C430 0.930 . S
H421 C431 0.930 . S
C422 H416 0.927 1_565 S
C422 C423 1.356 1_455 S
C422 C424 1.416 1_565 S
C423 C422 1.356 1_655 S
C423 C425 1.419 . S
C424 C422 1.416 1_545 S
C424 C429 1.425 1_446 S
C424 C431 1.409 1_556 S
C425 H417 0.930 . S
C425 C423 1.419 . S
C425 C426 1.362 . S
C426 H418 0.930 . S
C426 C425 1.362 . S
C426 C429 1.409 1_556 S
C427 H419 0.927 1_545 S
C427 C428 1.355 1_655 S
C427 C429 1.415 1_545 S
C428 C427 1.355 1_455 S
C428 C430 1.419 . S
C429 C424 1.425 1_664 S
C429 C426 1.409 1_554 S
C429 C427 1.415 1_565 S
C430 H420 0.930 . S
C430 C428 1.419 . S
C430 C431 1.362 . S
C431 H421 0.930 . S
C431 C424 1.409 1_554 S
C431 C430 1.362 . S
H432 C438 0.930 . S
H433 C441 0.930 . S
H434 C442 0.930 . S
H435 C443 0.930 . S
H436 C446 0.930 . S
H437 C447 0.930 . S
C438 H432 0.930 . S
C438 C439 1.355 . S
C438 C440 1.415 . S
C439 C438 1.355 . S
C439 C441 1.419 . S
C440 C438 1.415 . S
C440 C445 1.425 . S
C440 C447 1.409 . S
C441 H433 0.930 . S
C441 C439 1.419 . S
C441 C442 1.362 . S
C442 H434 0.930 . S
C442 C441 1.362 . S
C442 C445 1.409 . S
C443 H435 0.930 . S
C443 C444 1.355 . S
C443 C445 1.415 . S
C444 C443 1.355 . S
C444 C446 1.419 . S
C445 C440 1.425 . S
C445 C442 1.409 . S
C445 C443 1.415 . S
C446 H436 0.930 . S
C446 C444 1.419 . S
C446 C447 1.362 . S
C447 H437 0.930 . S
C447 C440 1.409 . S
C447 C446 1.362 . S
H448 C454 0.930 . S
H449 C457 0.930 . S
H450 C458 0.930 . S
H451 C459 0.930 . S
H452 C462 0.930 . S
H453 C463 0.930 . S
C454 H448 0.930 . S
C454 C455 1.355 . S
C454 C456 1.415 . S
C455 C454 1.355 . S
C455 C457 1.419 1_565 S
C456 C454 1.415 . S
C456 C461 1.425 1_565 S
C456 C463 1.409 . S
C457 H449 0.930 . S
C457 C455 1.419 1_545 S
C457 C458 1.362 . S
C458 H450 0.930 . S
C458 C457 1.362 . S
C458 C461 1.409 . S
C459 H451 0.930 . S
C459 C460 1.355 . S
C459 C461 1.415 . S
C460 C459 1.355 . S
C460 C462 1.419 1_545 S
C461 C456 1.425 1_545 S
C461 C458 1.409 . S
C461 C459 1.415 . S
C462 H452 0.930 . S
C462 C460 1.419 1_565 S
C462 C463 1.362 . S
C463 H453 0.930 . S
C463 C456 1.409 . S
C463 C462 1.362 . S
H464 C470 0.930 . S
H465 C473 0.930 . S
H466 C474 0.930 . S
H467 C475 0.930 . S
H468 C478 0.930 . S
H469 C479 0.930 . S
C470 H464 0.930 . S
C470 C471 1.355 . S
C470 C472 1.415 . S
C471 C470 1.355 . S
C471 C473 1.419 . S
C472 C470 1.415 . S
C472 C477 1.425 . S
C472 C479 1.409 . S
C473 H465 0.930 . S
C473 C471 1.419 . S
C473 C474 1.362 . S
C474 H466 0.930 . S
C474 C473 1.362 . S
C474 C477 1.409 . S
C475 H467 0.930 . S
C475 C476 1.355 . S
C475 C477 1.415 . S
C476 C475 1.355 . S
C476 C478 1.419 . S
C477 C472 1.425 . S
C477 C474 1.409 . S
C477 C475 1.415 . S
C478 H468 0.930 . S
C478 C476 1.419 . S
C478 C479 1.362 . S
C479 H469 0.930 . S
C479 C472 1.409 . S
C479 C478 1.362 . S
H480 C486 0.930 . S
H481 C489 0.930 . S
H482 C490 0.930 . S
H483 C491 0.930 . S
H484 C494 0.930 . S
H485 C495 0.930 . S
C486 H480 0.930 . S
C486 C487 1.355 . S
C486 C488 1.415 . S
C487 C486 1.355 . S
C487 C489 1.419 . S
C488 C486 1.415 . S
C488 C493 1.425 . S
C488 C495 1.409 . S
C489 H481 0.930 . S
C489 C487 1.419 . S
C489 C490 1.362 . S
C490 H482 0.930 . S
C490 C489 1.362 . S
C490 C493 1.409 . S
C491 H483 0.930 . S
C491 C492 1.355 . S
C491 C493 1.415 . S
C492 C491 1.355 . S
C492 C494 1.419 . S
C493 C488 1.425 . S
C493 C490 1.409 . S
C493 C491 1.415 . S
C494 H484 0.930 . S
C494 C492 1.419 . S
C494 C495 1.362 . S
C495 H485 0.930 . S
C495 C488 1.409 . S
C495 C494 1.362 . S
H496 C502 0.930 . S
H497 C505 0.930 . S
H498 C506 0.930 . S
H499 C507 0.930 . S
H500 C510 0.930 . S
H501 C511 0.930 . S
C502 H496 0.930 . S
C502 C503 1.355 . S
C502 C504 1.415 . S
C503 C502 1.355 . S
C503 C505 1.419 . S
C504 C502 1.415 . S
C504 C509 1.425 . S
C504 C511 1.409 . S
C505 H497 0.930 . S
C505 C503 1.419 . S
C505 C506 1.362 . S
C506 H498 0.930 . S
C506 C505 1.362 . S
C506 C509 1.409 . S
C507 H499 0.930 . S
C507 C508 1.355 . S
C507 C509 1.415 . S
C508 C507 1.355 . S
C508 C510 1.419 . S
C509 C504 1.425 . S
C509 C506 1.409 . S
C509 C507 1.415 . S
C510 H500 0.930 . S
C510 C508 1.419 . S
C510 C511 1.362 . S
C511 H501 0.930 . S
C511 C504 1.409 . S
C511 C510 1.362 . S
H512 C518 0.930 . S
H513 C521 0.930 . S
H514 C522 0.930 . S
H515 C523 0.930 . S
H516 C526 0.930 . S
H517 C527 0.930 . S
C518 H512 0.930 . S
C518 C519 1.355 . S
C518 C520 1.415 . S
C519 C518 1.355 . S
C519 C521 1.419 . S
C520 C518 1.415 . S
C520 C525 1.425 . S
C520 C527 1.409 . S
C521 H513 0.930 . S
C521 C519 1.419 . S
C521 C522 1.362 . S
C522 H514 0.930 . S
C522 C521 1.362 . S
C522 C525 1.409 . S
C523 H515 0.930 . S
C523 C524 1.355 . S
C523 C525 1.415 . S
C524 C523 1.355 . S
C524 C526 1.419 . S
C525 C520 1.425 . S
C525 C522 1.409 . S
C525 C523 1.415 . S
C526 H516 0.930 . S
C526 C524 1.419 . S
C526 C527 1.362 . S
C527 H517 0.930 . S
C527 C520 1.409 . S
C527 C526 1.362 . S
H528 C534 0.930 . S
H529 C537 0.930 . S
H530 C538 0.930 . S
H531 C539 0.930 . S
H532 C542 0.930 . S
H533 C543 0.930 . S
C534 H528 0.930 . S
C534 C535 1.355 1_455 S
C534 C536 1.415 . S
C535 C534 1.355 1_655 S
C535 C537 1.419 . S
C536 C534 1.415 . S
C536 C541 1.425 1_456 S
C536 C543 1.409 1_556 S
C537 H529 0.930 . S
C537 C535 1.419 . S
C537 C538 1.362 . S
C538 H530 0.930 . S
C538 C537 1.362 . S
C538 C541 1.409 1_556 S
C539 H531 0.930 . S
C539 C540 1.355 1_655 S
C539 C541 1.415 . S
C540 C539 1.355 1_455 S
C540 C542 1.419 . S
C541 C536 1.425 1_654 S
C541 C538 1.409 1_554 S
C541 C539 1.415 . S
C542 H532 0.930 . S
C542 C540 1.419 . S
C542 C543 1.362 . S
C543 H533 0.930 . S
C543 C536 1.409 1_554 S
C543 C542 1.362 . S
C167 C16 1.162 . S
C172 C76 1.161 . S
C183 C1 1.524 . S
C188 C36 1.447 . S
C199 C21 1.856 . S
C204 C41 1.867 . S
C215 C56 1.497 . S
C220 C61 1.555 . S
C231 C6 1.215 . S
C236 C106 1.215 . S
C247 C9 1.563 . S
C252 C86 1.512 . S
C263 C89 1.852 . S
C268 C49 1.861 . S
C279 C109 1.563 . S
C284 C46 1.513 . S
C295 C136 1.160 . S
C300 C116 1.160 . S
C311 C96 1.523 . S
C316 C121 1.567 . S
C327 C141 1.876 . S
C332 C81 1.887 . S
C343 C101 1.544 . S
C348 C156 1.497 . S
C359 C66 1.153 . S
C364 C126 1.153 . S
C375 C129 1.515 . S
C380 C26 1.439 . S
C391 C29 1.863 . S
C396 C149 1.874 . S
C407 C69 1.563 . S
C412 C146 1.512 . S
C423 C19 1.870 1_665 S
C428 C8 1.875 1_445 S
C439 C28 1.917 . S
C444 C39 1.917 1_554 S
C455 C59 1.838 . S
C460 C48 1.838 . S
C471 C79 1.873 1_556 S
C476 C68 1.873 . S
C487 C88 1.912 1_556 S
C492 C99 1.912 . S
C503 C119 1.883 . S
C508 C108 1.883 1_554 S
C519 C128 1.870 . S
C524 C139 1.870 . S
C535 C148 1.895 1_655 S
C540 C159 1.900 1_455 S
