# Generated by pormake.
# Topology fnw, (5)-cn, num edge types: 1
# Building blocks:
#     Node 0, Type 0, BuildingBlock: XOMCOT_clean_sbu_0, # of connection points: 5
#     Node 1, Type 0, BuildingBlock: XOMCOT_clean_sbu_0, # of connection points: 5
#     Node 2, Type 0, BuildingBlock: XOMCOT_clean_sbu_0, # of connection points: 5
#     Node 3, Type 0, BuildingBlock: XOMCOT_clean_sbu_0, # of connection points: 5
#     Node 4, Type 0, BuildingBlock: XOMCOT_clean_sbu_0, # of connection points: 5
#     Node 5, Type 0, BuildingBlock: XOMCOT_clean_sbu_0, # of connection points: 5
#     Node 6, Type 0, BuildingBlock: XOMCOT_clean_sbu_0, # of connection points: 5
#     Node 7, Type 0, BuildingBlock: XOMCOT_clean_sbu_0, # of connection points: 5
#     Node 8, Type 0, BuildingBlock: XOMCOT_clean_sbu_0, # of connection points: 5
#     Node 9, Type 0, BuildingBlock: XOMCOT_clean_sbu_0, # of connection points: 5
#     Node 10, Type 0, BuildingBlock: XOMCOT_clean_sbu_0, # of connection points: 5
#     Node 11, Type 0, BuildingBlock: XOMCOT_clean_sbu_0, # of connection points: 5
#     Edge 12, Type (0, 0), BuildingBlock: UVAHIK_clean_linker_0, # of connection points: 2
#     Edge 13, Type (0, 0), BuildingBlock: UVAHIK_clean_linker_0, # of connection points: 2
#     Edge 14, Type (0, 0), BuildingBlock: UVAHIK_clean_linker_0, # of connection points: 2
#     Edge 15, Type (0, 0), BuildingBlock: UVAHIK_clean_linker_0, # of connection points: 2
#     Edge 16, Type (0, 0), BuildingBlock: UVAHIK_clean_linker_0, # of connection points: 2
#     Edge 17, Type (0, 0), BuildingBlock: UVAHIK_clean_linker_0, # of connection points: 2
#     Edge 18, Type (0, 0), BuildingBlock: UVAHIK_clean_linker_0, # of connection points: 2
#     Edge 19, Type (0, 0), BuildingBlock: UVAHIK_clean_linker_0, # of connection points: 2
#     Edge 20, Type (0, 0), BuildingBlock: UVAHIK_clean_linker_0, # of connection points: 2
#     Edge 21, Type (0, 0), BuildingBlock: UVAHIK_clean_linker_0, # of connection points: 2
#     Edge 22, Type (0, 0), BuildingBlock: UVAHIK_clean_linker_0, # of connection points: 2
#     Edge 23, Type (0, 0), BuildingBlock: UVAHIK_clean_linker_0, # of connection points: 2
#     Edge 24, Type (0, 0), BuildingBlock: UVAHIK_clean_linker_0, # of connection points: 2
#     Edge 25, Type (0, 0), BuildingBlock: UVAHIK_clean_linker_0, # of connection points: 2
#     Edge 26, Type (0, 0), BuildingBlock: UVAHIK_clean_linker_0, # of connection points: 2
#     Edge 27, Type (0, 0), BuildingBlock: UVAHIK_clean_linker_0, # of connection points: 2
#     Edge 28, Type (0, 0), BuildingBlock: UVAHIK_clean_linker_0, # of connection points: 2
#     Edge 29, Type (0, 0), BuildingBlock: UVAHIK_clean_linker_0, # of connection points: 2
#     Edge 30, Type (0, 0), BuildingBlock: UVAHIK_clean_linker_0, # of connection points: 2
#     Edge 31, Type (0, 0), BuildingBlock: UVAHIK_clean_linker_0, # of connection points: 2
#     Edge 32, Type (0, 0), BuildingBlock: UVAHIK_clean_linker_0, # of connection points: 2
#     Edge 33, Type (0, 0), BuildingBlock: UVAHIK_clean_linker_0, # of connection points: 2
#     Edge 34, Type (0, 0), BuildingBlock: UVAHIK_clean_linker_0, # of connection points: 2
#     Edge 35, Type (0, 0), BuildingBlock: UVAHIK_clean_linker_0, # of connection points: 2
#     Edge 36, Type (0, 0), BuildingBlock: UVAHIK_clean_linker_0, # of connection points: 2
#     Edge 37, Type (0, 0), BuildingBlock: UVAHIK_clean_linker_0, # of connection points: 2
#     Edge 38, Type (0, 0), BuildingBlock: UVAHIK_clean_linker_0, # of connection points: 2
#     Edge 39, Type (0, 0), BuildingBlock: UVAHIK_clean_linker_0, # of connection points: 2
#     Edge 40, Type (0, 0), BuildingBlock: UVAHIK_clean_linker_0, # of connection points: 2
#     Edge 41, Type (0, 0), BuildingBlock: UVAHIK_clean_linker_0, # of connection points: 2
# Relax obj value: 0.261
# Max RMSD: 0.155
# Mean RMSD: 0.155
data_MOF--net-fnw--node1-XOMCOT_clean_sbu_0--edge1-UVAHIK_clean_linker_0
_symmetry_space_group_name_H-M    P1
_symmetry_Int_Tables_number       1
_symmetry_cell_setting            triclinic
loop_
_symmetry_equiv_pos_as_xyz
'x, y, z'
_cell_length_a     64.075417
_cell_length_b     64.068617
_cell_length_c     39.885961
_cell_angle_alpha  89.977637
_cell_angle_beta   90.05597
_cell_angle_gamma 119.99705
loop_
_atom_site_label
_atom_site_type_symbol
_atom_site_fract_x
_atom_site_fract_y
_atom_site_fract_z
_atom_type_partial_charge
Co0 Co 0.26183 0.45871 0.27209 0.0
C1 C 0.28322 0.42732 0.27825 0.0
C2 C 0.30381 0.46092 0.30436 0.0
C3 C 0.31467 0.44728 0.30915 0.0
N4 N 0.28415 0.44836 0.28503 0.0
N5 N 0.30173 0.42626 0.29263 0.0
H6 H 0.26927 0.41303 0.26336 0.0
H7 H 0.30979 0.47875 0.31424 0.0
C8 C 0.29215 0.50378 0.23149 0.0
O9 O 0.27434 0.49805 0.21036 0.0
N10 N 0.23956 0.46979 0.2601 0.0
C11 C 0.21781 0.45794 0.24489 0.0
C12 C 0.20921 0.47356 0.24036 0.0
C13 C 0.24316 0.49209 0.26615 0.0
N14 N 0.22523 0.49498 0.25363 0.0
C15 C 0.23613 0.4226 0.22183 0.0
C16 C 0.27144 0.44217 0.17331 0.0
C17 C 0.24819 0.42411 0.16399 0.0
C18 C 0.23078 0.41337 0.18928 0.0
C19 C 0.27579 0.45105 0.20604 0.0
N20 N 0.2575 0.44283 0.22886 0.0
H21 H 0.22255 0.41419 0.24102 0.0
H22 H 0.29381 0.46484 0.21267 0.0
H23 H 0.20833 0.43928 0.23767 0.0
H24 H 0.25913 0.50624 0.2782 0.0
O25 O 0.2368 0.4325 0.2981 0.0
O26 O 0.26215 0.4692 0.31705 0.0
O27 O 0.28994 0.48977 0.25569 0.0
C28 C 0.24461 0.44758 0.32318 0.0
H29 H 0.33112 0.45261 0.323 0.0
H30 H 0.19242 0.46949 0.22836 0.0
H31 H 0.28599 0.44992 0.15526 0.0
H32 H 0.21276 0.39884 0.18383 0.0
Co33 Co 0.7987 0.25434 0.76881 0.0
C34 C 0.85171 0.27538 0.7647 0.0
C35 C 0.84153 0.29696 0.79409 0.0
C36 C 0.86626 0.30788 0.79407 0.0
N37 N 0.83248 0.27661 0.77578 0.0
N38 N 0.87254 0.29432 0.77551 0.0
H39 H 0.85062 0.261 0.74926 0.0
H40 H 0.83085 0.30345 0.80648 0.0
C41 C 0.78148 0.28331 0.72936 0.0
O42 O 0.76665 0.26443 0.71145 0.0
N43 N 0.76442 0.23228 0.76271 0.0
C44 C 0.75315 0.21042 0.74782 0.0
C45 C 0.72889 0.20254 0.74598 0.0
C46 C 0.74662 0.23676 0.77117 0.0
N47 N 0.72489 0.21919 0.76046 0.0
C48 C 0.80609 0.22487 0.72199 0.0
C49 C 0.81495 0.25364 0.6663 0.0
C50 C 0.8121 0.23059 0.6622 0.0
C51 C 0.80888 0.21671 0.6909 0.0
C52 C 0.81247 0.26128 0.6981 0.0
N53 N 0.80603 0.24607 0.72497 0.0
H54 H 0.80295 0.21348 0.74351 0.0
H55 H 0.8156 0.27934 0.70069 0.0
H56 H 0.76158 0.20073 0.73829 0.0
H57 H 0.74973 0.25333 0.78284 0.0
O58 O 0.80119 0.23064 0.79589 0.0
O59 O 0.79283 0.2581 0.81509 0.0
O60 O 0.79546 0.28196 0.751 0.0
C61 C 0.79682 0.2405 0.82139 0.0
H62 H 0.87869 0.32481 0.80598 0.0
H63 H 0.71527 0.18606 0.73428 0.0
H64 H 0.81816 0.26541 0.64508 0.0
H65 H 0.8078 0.19933 0.68934 0.0
Co66 Co 0.54504 0.80687 0.27183 0.0
C67 C 0.57735 0.85978 0.26905 0.0
C68 C 0.54505 0.84954 0.29722 0.0
C69 C 0.55934 0.87419 0.2986 0.0
N70 N 0.5564 0.84058 0.27884 0.0
N71 N 0.5795 0.88049 0.28082 0.0
H72 H 0.59089 0.85869 0.25421 0.0
H73 H 0.5277 0.83881 0.3091 0.0
C74 C 0.4996 0.79069 0.23089 0.0
O75 O 0.50477 0.77737 0.21139 0.0
N76 N 0.53309 0.77262 0.26587 0.0
C77 C 0.54565 0.76136 0.25908 0.0
C78 C 0.52993 0.73692 0.25746 0.0
C79 C 0.51011 0.7547 0.26991 0.0
N80 N 0.50756 0.73283 0.26388 0.0
C81 C 0.58033 0.81243 0.2231 0.0
C82 C 0.56158 0.82532 0.1699 0.0
C83 C 0.5806 0.82084 0.16387 0.0
C84 C 0.5907 0.81548 0.19146 0.0
C85 C 0.55217 0.82262 0.2022 0.0
N86 N 0.56017 0.8142 0.2277 0.0
H87 H 0.58859 0.80855 0.24392 0.0
H88 H 0.53832 0.82719 0.20637 0.0
H89 H 0.56488 0.76996 0.25588 0.0
H90 H 0.49543 0.75757 0.27696 0.0
O91 O 0.57153 0.80957 0.29856 0.0
O92 O 0.53568 0.80091 0.31814 0.0
O93 O 0.51395 0.80339 0.25432 0.0
C94 C 0.55731 0.80489 0.32419 0.0
H95 H 0.55515 0.8866 0.31124 0.0
H96 H 0.53453 0.72327 0.25118 0.0
H97 H 0.55343 0.83016 0.14984 0.0
H98 H 0.60634 0.81335 0.18871 0.0
Co99 Co 0.73792 0.53938 0.77696 0.0
C100 C 0.7145 0.57001 0.77056 0.0
C101 C 0.69741 0.54149 0.8065 0.0
C102 C 0.68557 0.55438 0.80639 0.0
N103 N 0.71568 0.55129 0.78419 0.0
N104 N 0.69632 0.57224 0.78376 0.0
H105 H 0.72636 0.58185 0.75147 0.0
H106 H 0.69282 0.52579 0.82169 0.0
C107 C 0.69183 0.50418 0.74394 0.0
O108 O 0.69058 0.52244 0.7312 0.0
N109 N 0.75968 0.52715 0.77081 0.0
C110 C 0.78347 0.5402 0.76447 0.0
C111 C 0.79208 0.52461 0.75913 0.0
C112 C 0.75408 0.50391 0.7693 0.0
N113 N 0.77352 0.50183 0.76201 0.0
C114 C 0.76045 0.57678 0.72761 0.0
C115 C 0.75135 0.54631 0.67371 0.0
C116 C 0.76544 0.57119 0.66891 0.0
C117 C 0.76976 0.58658 0.69613 0.0
C118 C 0.74199 0.5373 0.70536 0.0
N119 N 0.74608 0.55246 0.73179 0.0
H120 H 0.76527 0.58875 0.74889 0.0
H121 H 0.73268 0.51804 0.70883 0.0
H122 H 0.7937 0.55965 0.7629 0.0
H123 H 0.73614 0.48884 0.77327 0.0
O124 O 0.7625 0.56649 0.802 0.0
O125 O 0.73537 0.53139 0.82373 0.0
O126 O 0.71018 0.50781 0.76112 0.0
C127 C 0.75333 0.55305 0.82846 0.0
H128 H 0.6699 0.55057 0.82119 0.0
H129 H 0.81038 0.52966 0.75252 0.0
H130 H 0.74809 0.53387 0.65332 0.0
H131 H 0.78113 0.60591 0.69342 0.0
Co132 Co 0.19892 0.74414 0.28162 0.0
C133 C 0.14606 0.72348 0.2815 0.0
C134 C 0.1569 0.70236 0.31082 0.0
C135 C 0.13217 0.69159 0.31204 0.0
N136 N 0.16549 0.72222 0.29155 0.0
N137 N 0.12548 0.70484 0.29342 0.0
H138 H 0.14692 0.73754 0.2655 0.0
H139 H 0.16786 0.69603 0.32279 0.0
C140 C 0.21109 0.71115 0.24259 0.0
O141 O 0.21977 0.72657 0.21764 0.0
N142 N 0.23302 0.76621 0.27287 0.0
C143 C 0.24451 0.79052 0.27082 0.0
C144 C 0.26876 0.7992 0.26615 0.0
C145 C 0.25082 0.76075 0.27137 0.0
N146 N 0.27261 0.78038 0.26619 0.0
C147 C 0.19583 0.77048 0.22537 0.0
C148 C 0.17113 0.73124 0.18351 0.0
C149 C 0.17921 0.75443 0.17077 0.0
C150 C 0.19099 0.77414 0.1925 0.0
C151 C 0.17637 0.72843 0.21659 0.0
N152 N 0.19002 0.74806 0.23637 0.0
H153 H 0.20419 0.78572 0.24192 0.0
H154 H 0.16974 0.71042 0.22616 0.0
H155 H 0.23624 0.80151 0.2737 0.0
H156 H 0.24825 0.74297 0.27541 0.0
O157 O 0.1964 0.76959 0.30399 0.0
O158 O 0.20625 0.74438 0.32814 0.0
O159 O 0.2024 0.71568 0.26858 0.0
C160 C 0.2019 0.76206 0.33114 0.0
H161 H 0.11999 0.67485 0.32454 0.0
H162 H 0.28245 0.81791 0.26294 0.0
H163 H 0.1611 0.71543 0.16795 0.0
H164 H 0.19711 0.79235 0.18398 0.0
Co165 Co 0.45054 0.19488 0.78797 0.0
C166 C 0.42078 0.14185 0.78774 0.0
C167 C 0.45312 0.1543 0.81685 0.0
C168 C 0.43969 0.12961 0.81953 0.0
N169 N 0.4412 0.16187 0.79698 0.0
N170 N 0.41949 0.12192 0.80114 0.0
H171 H 0.40693 0.14188 0.77221 0.0
H172 H 0.47017 0.16601 0.82898 0.0
C173 C 0.49779 0.21239 0.75117 0.0
O174 O 0.49121 0.22194 0.72716 0.0
N175 N 0.46037 0.22853 0.7799 0.0
C176 C 0.44647 0.23816 0.77212 0.0
C177 C 0.46085 0.26268 0.76875 0.0
C178 C 0.48284 0.24764 0.78305 0.0
N179 N 0.48384 0.26868 0.77537 0.0
C180 C 0.4185 0.1878 0.73348 0.0
C181 C 0.4401 0.17296 0.68673 0.0
C182 C 0.42258 0.17851 0.67611 0.0
C183 C 0.41087 0.18481 0.70025 0.0
C184 C 0.44722 0.17631 0.72038 0.0
N185 N 0.43801 0.1859 0.74252 0.0
H186 H 0.4088 0.19191 0.75185 0.0
H187 H 0.46062 0.17184 0.72833 0.0
H188 H 0.42714 0.22848 0.76985 0.0
H189 H 0.4981 0.24616 0.79136 0.0
O190 O 0.42167 0.19007 0.81045 0.0
O191 O 0.45704 0.20189 0.83477 0.0
O192 O 0.48358 0.201 0.77538 0.0
C193 C 0.43452 0.19593 0.83776 0.0
H194 H 0.44445 0.11814 0.83361 0.0
H195 H 0.45467 0.27497 0.76165 0.0
H196 H 0.44904 0.16723 0.66903 0.0
H197 H 0.39631 0.18795 0.69335 0.0
Co198 Co 0.54028 0.73869 0.71361 0.0
C199 C 0.57033 0.71444 0.71698 0.0
C200 C 0.54076 0.69787 0.68247 0.0
C201 C 0.55344 0.68585 0.68072 0.0
N202 N 0.55135 0.71592 0.70503 0.0
N203 N 0.57195 0.69629 0.70243 0.0
H204 H 0.58291 0.72619 0.73555 0.0
H205 H 0.52478 0.69367 0.66819 0.0
C206 C 0.50437 0.69249 0.74541 0.0
O207 O 0.52238 0.6906 0.75773 0.0
N208 N 0.52881 0.76094 0.72101 0.0
C209 C 0.54221 0.78455 0.7284 0.0
C210 C 0.52697 0.79353 0.73409 0.0
C211 C 0.50572 0.75582 0.72223 0.0
N212 N 0.50406 0.77538 0.73037 0.0
C213 C 0.57765 0.75943 0.7634 0.0
C214 C 0.54712 0.75039 0.81718 0.0
C215 C 0.57201 0.76385 0.82226 0.0
C216 C 0.58744 0.76813 0.79513 0.0
C217 C 0.53813 0.74163 0.78531 0.0
N218 N 0.5533 0.74571 0.75891 0.0
H219 H 0.58967 0.7644 0.74219 0.0
H220 H 0.5189 0.73291 0.78166 0.0
H221 H 0.56165 0.79437 0.73036 0.0
H222 H 0.49044 0.73814 0.71739 0.0
O223 O 0.56774 0.76333 0.68921 0.0
O224 O 0.5324 0.73717 0.66694 0.0
O225 O 0.5084 0.71117 0.7288 0.0
C226 C 0.55426 0.75485 0.66262 0.0
H227 H 0.54917 0.6704 0.66512 0.0
H228 H 0.53231 0.81178 0.74145 0.0
H229 H 0.53469 0.74726 0.83752 0.0
H230 H 0.60679 0.77908 0.79811 0.0
Co231 Co 0.80536 0.54597 0.22019 0.0
C232 C 0.85854 0.57628 0.22188 0.0
C233 C 0.84659 0.5438 0.19336 0.0
C234 C 0.87133 0.55707 0.19182 0.0
N235 N 0.83865 0.5559 0.21209 0.0
N236 N 0.8787 0.57735 0.20984 0.0
H237 H 0.85834 0.59019 0.23701 0.0
H238 H 0.83514 0.52658 0.18149 0.0
C239 C 0.78648 0.49939 0.25902 0.0
O240 O 0.77264 0.50448 0.27751 0.0
N241 N 0.77156 0.53549 0.22733 0.0
C242 C 0.76152 0.5478 0.24046 0.0
C243 C 0.73691 0.53314 0.2407 0.0
C244 C 0.7528 0.51385 0.21859 0.0
N245 N 0.73139 0.51169 0.22714 0.0
C246 C 0.815 0.58272 0.26886 0.0
C247 C 0.82457 0.56134 0.32219 0.0
C248 C 0.82291 0.58207 0.32813 0.0
C249 C 0.81915 0.59336 0.30051 0.0
C250 C 0.82078 0.55161 0.28997 0.0
N251 N 0.81405 0.56114 0.26434 0.0
H252 H 0.81193 0.59165 0.24809 0.0
H253 H 0.82325 0.53637 0.28602 0.0
H254 H 0.771 0.56614 0.24918 0.0
H255 H 0.75492 0.49989 0.20656 0.0
O256 O 0.80879 0.57289 0.19361 0.0
O257 O 0.79836 0.53655 0.17404 0.0
O258 O 0.8006 0.5143 0.23712 0.0
C259 C 0.80316 0.55843 0.16802 0.0
H260 H 0.88305 0.55205 0.17896 0.0
H261 H 0.72417 0.53786 0.25088 0.0
H262 H 0.82802 0.55213 0.34231 0.0
H263 H 0.81901 0.6101 0.30327 0.0
Co264 Co 0.25786 0.80287 0.71921 0.0
C265 C 0.27734 0.85528 0.72852 0.0
C266 C 0.30108 0.84739 0.70018 0.0
C267 C 0.31121 0.872 0.70219 0.0
N268 N 0.27988 0.837 0.71659 0.0
N269 N 0.29628 0.87684 0.72005 0.0
H270 H 0.26191 0.85295 0.74268 0.0
H271 H 0.30856 0.8377 0.68749 0.0
C272 C 0.28643 0.78525 0.75893 0.0
O273 O 0.26743 0.77056 0.77671 0.0
N274 N 0.23598 0.76822 0.72077 0.0
C275 C 0.21192 0.7561 0.72578 0.0
C276 C 0.2038 0.73175 0.72513 0.0
C277 C 0.24182 0.75095 0.71542 0.0
N278 N 0.2227 0.72857 0.71903 0.0
C279 C 0.2257 0.80436 0.76751 0.0
C280 C 0.25528 0.81497 0.82274 0.0
C281 C 0.23132 0.8094 0.82745 0.0
C282 C 0.21689 0.80521 0.79905 0.0
C283 C 0.26348 0.81435 0.79052 0.0
N284 N 0.24808 0.80705 0.76379 0.0
H285 H 0.21433 0.80143 0.74607 0.0
H286 H 0.28218 0.81961 0.78733 0.0
H287 H 0.20073 0.76405 0.72939 0.0
H288 H 0.25979 0.75465 0.70926 0.0
O289 O 0.23476 0.80681 0.69286 0.0
O290 O 0.26307 0.80014 0.67232 0.0
O291 O 0.28519 0.79896 0.73673 0.0
C292 C 0.24537 0.80416 0.66678 0.0
H293 H 0.32841 0.88533 0.69191 0.0
H294 H 0.1855 0.71752 0.72978 0.0
H295 H 0.26745 0.81906 0.84372 0.0
H296 H 0.19876 0.80227 0.80112 0.0
Co297 Co 0.45465 0.2581 0.21566 0.0
C298 C 0.42391 0.28067 0.2267 0.0
C299 C 0.44922 0.2969 0.18648 0.0
C300 C 0.4356 0.30793 0.18843 0.0
N301 N 0.4419 0.27974 0.21038 0.0
N302 N 0.41977 0.29773 0.21372 0.0
H303 H 0.41379 0.26921 0.2473 0.0
H304 H 0.46357 0.30113 0.16878 0.0
C305 C 0.49282 0.30625 0.24007 0.0
O306 O 0.47593 0.3087 0.25508 0.0
N307 N 0.46726 0.23654 0.22012 0.0
C308 C 0.45498 0.21374 0.2317 0.0
C309 C 0.4709 0.20554 0.23668 0.0
C310 C 0.49037 0.24183 0.21768 0.0
N311 N 0.49306 0.22323 0.22788 0.0
C312 C 0.42282 0.23712 0.27178 0.0
C313 C 0.45866 0.25165 0.31953 0.0
C314 C 0.43484 0.23547 0.32888 0.0
C315 C 0.41669 0.22854 0.30463 0.0
C316 C 0.46401 0.25945 0.28649 0.0
N317 N 0.44622 0.25259 0.26301 0.0
H318 H 0.40879 0.23043 0.25301 0.0
H319 H 0.48275 0.26966 0.27969 0.0
H320 H 0.43596 0.20416 0.2376 0.0
H321 H 0.5051 0.25926 0.21033 0.0
O322 O 0.42532 0.23225 0.19606 0.0
O323 O 0.458 0.25815 0.16793 0.0
O324 O 0.48755 0.28664 0.22493 0.0
C325 C 0.43605 0.24015 0.16733 0.0
H326 H 0.43743 0.3226 0.17285 0.0
H327 H 0.46665 0.18815 0.2467 0.0
H328 H 0.47334 0.25763 0.33731 0.0
H329 H 0.39809 0.21568 0.31046 0.0
Co330 Co 0.19288 0.4527 0.71768 0.0
C331 C 0.13977 0.42222 0.71503 0.0
C332 C 0.15276 0.45465 0.68607 0.0
C333 C 0.12811 0.4413 0.68262 0.0
N334 N 0.15999 0.44262 0.70627 0.0
N335 N 0.12008 0.42104 0.70093 0.0
H336 H 0.13939 0.40836 0.73094 0.0
H337 H 0.16462 0.4719 0.67458 0.0
C338 C 0.21027 0.49974 0.75552 0.0
O339 O 0.2243 0.49562 0.77513 0.0
N340 N 0.22626 0.46319 0.72822 0.0
C341 C 0.23556 0.4507 0.743 0.0
C342 C 0.26014 0.46518 0.74517 0.0
C343 C 0.24549 0.48474 0.72036 0.0
N344 N 0.26639 0.48668 0.73114 0.0
C345 C 0.18083 0.4148 0.76511 0.0
C346 C 0.17472 0.43742 0.81997 0.0
C347 C 0.17668 0.41678 0.82506 0.0
C348 C 0.17823 0.40464 0.79682 0.0
C349 C 0.1771 0.44679 0.78763 0.0
N350 N 0.18242 0.43672 0.76118 0.0
H351 H 0.18317 0.40567 0.74398 0.0
H352 H 0.17525 0.46246 0.78442 0.0
H353 H 0.22559 0.43231 0.75149 0.0
H354 H 0.24406 0.4988 0.70737 0.0
O355 O 0.19098 0.42639 0.69113 0.0
O356 O 0.20236 0.46311 0.67231 0.0
O357 O 0.19642 0.48404 0.73416 0.0
C358 C 0.19838 0.44152 0.6662 0.0
H359 H 0.11688 0.44628 0.66833 0.0
H360 H 0.27234 0.46031 0.75691 0.0
H361 H 0.17271 0.44706 0.84085 0.0
H362 H 0.1786 0.38799 0.79928 0.0
Co363 Co 0.74315 0.19973 0.21099 0.0
C364 C 0.72376 0.1471 0.21071 0.0
C365 C 0.70133 0.15708 0.18297 0.0
C366 C 0.69118 0.13242 0.18153 0.0
N367 N 0.72162 0.16615 0.2014 0.0
N368 N 0.70526 0.12625 0.19915 0.0
H369 H 0.73839 0.14841 0.2259 0.0
H370 H 0.6943 0.16767 0.17168 0.0
C371 C 0.70974 0.2109 0.25116 0.0
O372 O 0.72502 0.21954 0.27628 0.0
N373 N 0.76483 0.23394 0.21947 0.0
C374 C 0.78917 0.24586 0.22069 0.0
C375 C 0.79748 0.27001 0.22565 0.0
C376 C 0.75893 0.2514 0.2218 0.0
N377 N 0.77837 0.2734 0.22663 0.0
C378 C 0.77081 0.19736 0.26601 0.0
C379 C 0.73245 0.1718 0.3089 0.0
C380 C 0.75593 0.18015 0.32072 0.0
C381 C 0.7752 0.19245 0.29846 0.0
C382 C 0.72892 0.17718 0.27622 0.0
N383 N 0.7481 0.19116 0.25593 0.0
H384 H 0.78574 0.20603 0.24901 0.0
H385 H 0.7107 0.17029 0.26732 0.0
H386 H 0.80041 0.23793 0.21704 0.0
H387 H 0.74094 0.24846 0.21852 0.0
O388 O 0.76854 0.19773 0.18752 0.0
O389 O 0.74242 0.20683 0.16462 0.0
O390 O 0.71452 0.20258 0.225 0.0
C391 C 0.76026 0.20282 0.16077 0.0
H392 H 0.67432 0.11991 0.16952 0.0
H393 H 0.81614 0.28395 0.22832 0.0
H394 H 0.71696 0.16138 0.32483 0.0
H395 H 0.79362 0.19885 0.30622 0.0
C396 C 0.39807 0.30475 0.25936 0.0
C397 C 0.4026 0.30436 0.22499 0.0
C398 C 0.38301 0.3133 0.27037 0.0
C399 C 0.33562 0.32619 0.24424 0.0
H400 H 0.36571 0.37965 0.30657 0.0
C401 C 0.30425 0.3956 0.25845 0.0
C402 C 0.30765 0.40751 0.28919 0.0
C403 C 0.31232 0.37918 0.25403 0.0
C404 C 0.35667 0.36439 0.2898 0.0
H405 H 0.39408 0.31127 0.17515 0.0
H406 H 0.36749 0.32595 0.19433 0.0
H407 H 0.38566 0.35693 0.29303 0.0
H408 H 0.32064 0.41059 0.34003 0.0
H409 H 0.33396 0.38123 0.33293 0.0
H410 H 0.30663 0.33358 0.24087 0.0
C411 C 0.37567 0.3198 0.21273 0.0
C412 C 0.3682 0.35144 0.28198 0.0
C413 C 0.39102 0.31164 0.20177 0.0
C414 C 0.31819 0.40188 0.31594 0.0
C415 C 0.32589 0.38515 0.31176 0.0
C416 C 0.32388 0.33891 0.25244 0.0
C417 C 0.37191 0.32115 0.24714 0.0
C418 C 0.35806 0.33259 0.25857 0.0
C419 C 0.32363 0.37403 0.28048 0.0
C420 C 0.33454 0.35857 0.27472 0.0
H421 H 0.40692 0.29935 0.27771 0.0
H422 H 0.38033 0.31415 0.29704 0.0
H423 H 0.32735 0.31156 0.22631 0.0
H424 H 0.29638 0.39985 0.23735 0.0
H425 H 0.31059 0.37133 0.22944 0.0
C426 C 0.90216 0.29667 0.73413 0.0
C427 C 0.89661 0.30015 0.76697 0.0
C428 C 0.92607 0.30499 0.72486 0.0
C429 C 0.98657 0.32354 0.75574 0.0
H430 H 0.00891 0.37151 0.68515 0.0
C431 C 0.08711 0.39292 0.73766 0.0
C432 C 0.09543 0.40268 0.70573 0.0
C433 C 0.06267 0.3767 0.74297 0.0
C434 C 0.00304 0.35775 0.70431 0.0
H435 H 0.9112 0.31362 0.81629 0.0
H436 H 0.95307 0.3277 0.8003 0.0
H437 H 0.96621 0.34852 0.69818 0.0
H438 H 0.08531 0.40224 0.65391 0.0
H439 H 0.04279 0.37299 0.66256 0.0
H440 H 0.02327 0.33248 0.76182 0.0
C441 C 0.93898 0.31878 0.78172 0.0
C442 C 0.97852 0.34466 0.71184 0.0
C443 C 0.91515 0.31092 0.7908 0.0
C444 C 0.07915 0.39516 0.67885 0.0
C445 C 0.0548 0.37852 0.68394 0.0
C446 C 0.01109 0.33629 0.74778 0.0
C447 C 0.94468 0.3164 0.74849 0.0
C448 C 0.97016 0.32783 0.73804 0.0
C449 C 0.04609 0.36951 0.71625 0.0
C450 C 0.01975 0.35399 0.72245 0.0
H451 H 0.88814 0.28856 0.71531 0.0
H452 H 0.9301 0.30299 0.69908 0.0
H453 H 0.98045 0.31051 0.77596 0.0
H454 H 0.09937 0.39868 0.7588 0.0
H455 H 0.05672 0.37057 0.76831 0.0
C456 C 0.70438 0.09682 0.2397 0.0
C457 C 0.6999 0.10224 0.20728 0.0
C458 C 0.69647 0.07298 0.24889 0.0
C459 C 0.6766 0.01209 0.21832 0.0
H460 H 0.63154 0.99113 0.29246 0.0
C461 C 0.60746 0.91192 0.24209 0.0
C462 C 0.59867 0.90456 0.27467 0.0
C463 C 0.62393 0.93614 0.23543 0.0
C464 C 0.64452 0.9966 0.27229 0.0
H465 H 0.68505 0.08741 0.15854 0.0
H466 H 0.67156 0.04561 0.17444 0.0
H467 H 0.65404 0.03353 0.27788 0.0
H468 H 0.60121 0.9159 0.32622 0.0
H469 H 0.63102 0.95792 0.31527 0.0
H470 H 0.66735 0.97524 0.21281 0.0
C471 C 0.68102 0.0598 0.19272 0.0
C472 C 0.65731 0.02097 0.26385 0.0
C473 C 0.68853 0.08359 0.18371 0.0
C474 C 0.60758 0.92139 0.30083 0.0
C475 C 0.62449 0.94545 0.2944 0.0
C476 C 0.66415 0.9877 0.22718 0.0
C477 C 0.68438 0.05425 0.22562 0.0
C478 C 0.67311 0.02885 0.23645 0.0
C479 C 0.6323 0.95335 0.26143 0.0
C480 C 0.64755 0.97954 0.2539 0.0
H481 H 0.71293 0.11087 0.25838 0.0
H482 H 0.69924 0.06908 0.27441 0.0
H483 H 0.68882 0.01784 0.19716 0.0
H484 H 0.60062 0.89916 0.22156 0.0
H485 H 0.62918 0.94144 0.20966 0.0
C486 C 0.69051 0.59683 0.74121 0.0
C487 C 0.68902 0.58935 0.77465 0.0
C488 C 0.68158 0.61194 0.73198 0.0
C489 C 0.66425 0.65489 0.76404 0.0
H490 H 0.61751 0.63098 0.69177 0.0
C491 C 0.5972 0.6889 0.74187 0.0
C492 C 0.58936 0.68893 0.70904 0.0
C493 C 0.61245 0.67965 0.74857 0.0
C494 C 0.63089 0.6383 0.71152 0.0
H495 H 0.6782 0.59264 0.82488 0.0
H496 H 0.66276 0.61924 0.80882 0.0
H497 H 0.63939 0.6102 0.70551 0.0
H498 H 0.59233 0.68082 0.65722 0.0
H499 H 0.61963 0.66551 0.66851 0.0
H500 H 0.65587 0.68307 0.77005 0.0
C501 C 0.67071 0.61334 0.78976 0.0
C502 C 0.64336 0.62629 0.71943 0.0
C503 C 0.67932 0.59797 0.79889 0.0
C504 C 0.59784 0.68058 0.68282 0.0
C505 C 0.61338 0.67172 0.68938 0.0
C506 C 0.652 0.66714 0.75583 0.0
C507 C 0.67137 0.62011 0.75613 0.0
C508 C 0.6599 0.63425 0.74605 0.0
C509 C 0.62044 0.6706 0.72244 0.0
C510 C 0.63489 0.65879 0.72976 0.0
H511 H 0.69776 0.5903 0.72203 0.0
H512 H 0.68237 0.617 0.70589 0.0
H513 H 0.67708 0.66148 0.78453 0.0
H514 H 0.59072 0.69508 0.76251 0.0
H515 H 0.61719 0.6788 0.77439 0.0
C516 C 0.08268 0.68747 0.3084 0.0
C517 C 0.10127 0.69853 0.28472 0.0
C518 C 0.05878 0.67916 0.29905 0.0
C519 C 0.01978 0.65284 0.22853 0.0
H520 H 0.97409 0.66468 0.27645 0.0
C521 C 0.92022 0.60342 0.19023 0.0
C522 C 0.90317 0.59566 0.21608 0.0
C523 C 0.94442 0.61983 0.19677 0.0
C524 C 0.98653 0.66094 0.263 0.0
H525 H 0.10969 0.71004 0.23302 0.0
H526 H 0.06772 0.69491 0.21641 0.0
H527 H 0.01665 0.68654 0.29228 0.0
H528 H 0.89763 0.59906 0.26878 0.0
H529 H 0.94005 0.62678 0.28088 0.0
H530 H 0.98994 0.62624 0.20066 0.0
C531 C 0.07173 0.69303 0.24226 0.0
C532 C 0.0109 0.67362 0.27194 0.0
C533 C 0.09567 0.70177 0.25177 0.0
C534 C 0.91053 0.60501 0.24845 0.0
C535 C 0.93484 0.621 0.25523 0.0
C536 C 0.99542 0.63983 0.22002 0.0
C537 C 0.05309 0.68136 0.26572 0.0
C538 C 0.02766 0.66954 0.25488 0.0
C539 C 0.95221 0.62835 0.22956 0.0
C540 C 0.97838 0.64354 0.23729 0.0
H541 H 0.08665 0.68492 0.33396 0.0
H542 H 0.04465 0.67004 0.3175 0.0
H543 H 0.03236 0.64914 0.21535 0.0
H544 H 0.91478 0.59664 0.16498 0.0
H545 H 0.95705 0.62555 0.17612 0.0
C546 C 0.29608 0.90468 0.76243 0.0
C547 C 0.30069 0.90029 0.72955 0.0
C548 C 0.30334 0.92818 0.77281 0.0
C549 C 0.32118 0.9892 0.74467 0.0
H550 H 0.36858 0.01076 0.81601 0.0
C551 C 0.39098 0.08934 0.76422 0.0
C552 C 0.40084 0.09741 0.79618 0.0
C553 C 0.37444 0.06499 0.75872 0.0
C554 C 0.35495 0.0051 0.79667 0.0
H555 H 0.31494 0.91639 0.68118 0.0
H556 H 0.32712 0.95748 0.69905 0.0
H557 H 0.34587 0.96824 0.8018 0.0
H558 H 0.40022 0.08703 0.84789 0.0
H559 H 0.37043 0.0447 0.83894 0.0
H560 H 0.33005 0.02594 0.73948 0.0
C561 C 0.31815 0.94285 0.71684 0.0
C562 C 0.34201 0.98067 0.78848 0.0
C563 C 0.31138 0.91947 0.7067 0.0
C564 C 0.39307 0.08104 0.82292 0.0
C565 C 0.37612 0.0568 0.81766 0.0
C566 C 0.33377 0.01362 0.75329 0.0
C567 C 0.31476 0.94748 0.75019 0.0
C568 C 0.32547 0.97263 0.7619 0.0
C569 C 0.36703 0.04829 0.7853 0.0
C570 C 0.35133 0.022 0.77882 0.0
H571 H 0.28799 0.89013 0.78047 0.0
H572 H 0.30059 0.93139 0.79867 0.0
H573 H 0.30838 0.98332 0.72415 0.0
H574 H 0.3969 0.10169 0.7432 0.0
H575 H 0.36826 0.05921 0.73335 0.0
C576 C 0.19683 0.40215 0.86484 0.0
C577 C 0.17978 0.40952 0.85933 0.0
C578 C 0.20243 0.39842 0.89728 0.0
C579 C 0.22467 0.41275 0.96609 0.0
H580 H 0.17912 0.38511 0.03935 0.0
C581 C 0.25168 0.43647 0.10373 0.0
C582 C 0.24168 0.4181 0.12802 0.0
C583 C 0.24404 0.4318 0.07047 0.0
C584 C 0.19202 0.39258 0.01905 0.0
H585 H 0.15422 0.41735 0.88374 0.0
H586 H 0.16442 0.41132 0.9406 0.0
H587 H 0.16429 0.38231 0.98198 0.0
H588 H 0.21627 0.38006 0.13571 0.0
H589 H 0.20255 0.37209 0.07745 0.0
H590 H 0.25238 0.42344 0.00306 0.0
C591 C 0.1733 0.40825 0.91965 0.0
C592 C 0.18354 0.3912 0.9863 0.0
C593 C 0.16764 0.41197 0.88709 0.0
C594 C 0.22414 0.39475 0.11787 0.0
C595 C 0.21629 0.39013 0.08451 0.0
C596 C 0.23311 0.41425 -0.00125 0.0
C597 C 0.19123 0.40208 0.9251 0.0
C598 C 0.1998 0.40157 0.95954 0.0
C599 C 0.22603 0.4087 0.06058 0.0
C600 C 0.21691 0.40457 0.02564 0.0
H601 H 0.20679 0.40037 0.84421 0.0
H602 H 0.21609 0.39335 0.90063 0.0
H603 H 0.2377 0.42117 0.94613 0.0
H604 H 0.26476 0.45481 0.11058 0.0
H605 H 0.25161 0.44657 0.05271 0.0
C606 C 0.7476 0.18155 0.38159 0.0
C607 C 0.76048 0.17745 0.35647 0.0
C608 C 0.75359 0.18186 0.41525 0.0
C609 C 0.80505 0.19449 0.46839 0.0
H610 H 0.7567 0.17263 0.53835 0.0
C611 C 0.79382 0.19585 0.6221 0.0
C612 C 0.81049 0.2203 0.62826 0.0
C613 C 0.78985 0.18662 0.58963 0.0
C614 C 0.77051 0.17847 0.51927 0.0
H615 H 0.78889 0.16913 0.34709 0.0
H616 H 0.79942 0.16977 0.40614 0.0
H617 H 0.74425 0.16199 0.48042 0.0
H618 H 0.83724 0.25374 0.60515 0.0
H619 H 0.82953 0.23788 0.54824 0.0
H620 H 0.83132 0.21114 0.50735 0.0
C621 C 0.78491 0.17307 0.39963 0.0
C622 C 0.76332 0.1726 0.48599 0.0
C623 C 0.77888 0.17272 0.36586 0.0
C624 C 0.82394 0.23496 0.60127 0.0
C625 C 0.81978 0.22575 0.56867 0.0
C626 C 0.81228 0.2003 0.50178 0.0
C627 C 0.77259 0.17808 0.42461 0.0
C628 C 0.78045 0.18112 0.46011 0.0
C629 C 0.80219 0.20163 0.56239 0.0
C630 C 0.79504 0.19287 0.52751 0.0
H631 H 0.73361 0.18565 0.37521 0.0
H632 H 0.74401 0.18618 0.43383 0.0
H633 H 0.81869 0.20144 0.44899 0.0
H634 H 0.7829 0.184 0.64211 0.0
H635 H 0.77648 0.16785 0.58574 0.0
C636 C 0.58758 0.83497 0.10368 0.0
C637 C 0.58892 0.82043 0.12907 0.0
C638 C 0.59242 0.8322 0.07033 0.0
C639 C 0.59343 0.78616 0.01514 0.0
H640 H 0.6141 0.83695 0.94882 0.0
C641 C 0.57455 0.79041 0.86939 0.0
C642 C 0.58149 0.77474 0.85534 0.0
C643 C 0.58164 0.79922 0.90185 0.0
C644 C 0.60851 0.82268 0.96718 0.0
H645 H 0.59781 0.7924 0.13898 0.0
H646 H 0.60777 0.78882 0.08163 0.0
H647 H 0.61617 0.84685 0.00832 0.0
H648 H 0.60172 0.75641 0.86332 0.0
H649 H 0.61362 0.7713 0.92097 0.0
H650 H 0.58577 0.76206 0.97384 0.0
C651 C 0.60204 0.80173 0.08721 0.0
C652 C 0.60948 0.82826 0.00123 0.0
C653 C 0.59672 0.80413 0.12041 0.0
C654 C 0.59624 0.76853 0.87379 0.0
C655 C 0.60297 0.77698 0.90661 0.0
C656 C 0.59288 0.78069 0.98119 0.0
C657 C 0.59919 0.81514 0.06153 0.0
C658 C 0.60131 0.80996 0.02565 0.0
C659 C 0.59545 0.79216 0.92102 0.0
C660 C 0.59981 0.79878 0.95688 0.0
H661 H 0.58224 0.84817 0.10932 0.0
H662 H 0.58985 0.84279 0.05135 0.0
H663 H 0.58653 0.77145 0.03294 0.0
H664 H 0.56322 0.79545 0.85544 0.0
H665 H 0.5754 0.81067 0.91252 0.0
C666 C 0.83703 0.5877 0.38824 0.0
C667 C 0.82356 0.59088 0.36294 0.0
C668 C 0.83476 0.59269 0.42171 0.0
C669 C 0.83198 0.60945 0.49147 0.0
H670 H 0.76656 0.59028 0.51784 0.0
C671 C 0.77235 0.59723 0.6186 0.0
C672 C 0.7767 0.58074 0.63601 0.0
C673 C 0.78133 0.60443 0.58611 0.0
C674 C 0.78501 0.59613 0.51081 0.0
H675 H 0.79825 0.60342 0.35324 0.0
H676 H 0.79558 0.61354 0.41092 0.0
H677 H 0.77637 0.592 0.45876 0.0
H678 H 0.79476 0.55983 0.63435 0.0
H679 H 0.81088 0.57277 0.57785 0.0
H680 H 0.83992 0.61179 0.54406 0.0
C681 C 0.80718 0.60625 0.40514 0.0
C682 C 0.79073 0.59723 0.47686 0.0
C683 C 0.80908 0.60081 0.37179 0.0
C684 C 0.79108 0.57245 0.62121 0.0
C685 C 0.80043 0.57999 0.58909 0.0
C686 C 0.82611 0.60792 0.52547 0.0
C687 C 0.8193 0.60144 0.43073 0.0
C688 C 0.81418 0.6034 0.4667 0.0
C689 C 0.79524 0.59564 0.57099 0.0
C690 C 0.80246 0.60079 0.5354 0.0
H691 H 0.84888 0.5807 0.38244 0.0
H692 H 0.84433 0.58859 0.44058 0.0
H693 H 0.85034 0.61481 0.48467 0.0
H694 H 0.76128 0.6038 0.62962 0.0
H695 H 0.7771 0.61651 0.57258 0.0
C696 C 0.23508 0.82081 0.88853 0.0
C697 C 0.22098 0.80655 0.86162 0.0
C698 C 0.22592 0.81614 0.92116 0.0
C699 C 0.18054 0.7657 0.97138 0.0
H700 H 0.19991 0.81479 0.04003 0.0
C701 C 0.18213 0.74546 0.11064 0.0
C702 C 0.17692 0.75824 0.13463 0.0
C703 C 0.18287 0.75085 0.07666 0.0
C704 C 0.19396 0.80086 0.02108 0.0
H705 H 0.18576 0.77674 0.84798 0.0
H706 H 0.16959 0.76939 0.90437 0.0
H707 H 0.20975 0.82673 0.98154 0.0
H708 H 0.16714 0.78582 0.14171 0.0
H709 H 0.16833 0.7952 0.08209 0.0
H710 H 0.16475 0.73984 0.0108 0.0
C711 C 0.18791 0.78382 0.90042 0.0
C712 C 0.19989 0.80771 0.98762 0.0
C713 C 0.19713 0.7883 0.86793 0.0
C714 C 0.17153 0.7759 0.1238 0.0
C715 C 0.17223 0.78128 0.08972 0.0
C716 C 0.1745 0.75887 0.00474 0.0
C717 C 0.2024 0.79723 0.92755 0.0
C718 C 0.19374 0.79021 0.96249 0.0
C719 C 0.17835 0.76911 0.06585 0.0
C720 C 0.1817 0.77635 0.03007 0.0
H721 H 0.25336 0.8353 0.88455 0.0
H722 H 0.23765 0.82673 0.94149 0.0
H723 H 0.17571 0.7517 0.95279 0.0
H724 H 0.18677 0.73205 0.11819 0.0
H725 H 0.18806 0.74141 0.05903 0.0
C726 C 0.41814 0.20067 0.62792 0.0
C727 C 0.41813 0.18007 0.64002 0.0
C728 C 0.41658 0.20385 0.59365 0.0
C729 C 0.39748 0.17596 0.51266 0.0
H730 H 0.45343 0.23345 0.47855 0.0
C731 C 0.40849 0.2207 0.38035 0.0
C732 C 0.42946 0.22499 0.36318 0.0
C733 C 0.40449 0.21221 0.41341 0.0
C734 C 0.43771 0.21736 0.48779 0.0
H735 H 0.41543 0.14613 0.62596 0.0
H736 H 0.41226 0.1516 0.56548 0.0
H737 H 0.45054 0.22417 0.53838 0.0
H738 H 0.46166 0.22189 0.36659 0.0
H739 H 0.45513 0.2082 0.42451 0.0
H740 H 0.3845 0.16955 0.46182 0.0
C741 C 0.41359 0.16523 0.5828 0.0
C742 C 0.43604 0.21212 0.52188 0.0
C743 C 0.41556 0.1622 0.61722 0.0
C744 C 0.44575 0.21962 0.37934 0.0
C745 C 0.44193 0.21153 0.41238 0.0
C746 C 0.39894 0.18151 0.47846 0.0
C747 C 0.41465 0.18635 0.57082 0.0
C748 C 0.41598 0.19137 0.53458 0.0
C749 C 0.4215 0.20812 0.42982 0.0
C750 C 0.41917 0.20218 0.46584 0.0
H751 H 0.4204 0.21488 0.64486 0.0
H752 H 0.41745 0.22027 0.58487 0.0
H753 H 0.38185 0.1599 0.52208 0.0
H754 H 0.3956 0.22467 0.36869 0.0
H755 H 0.38865 0.20978 0.42659 0.0
C756 C 0.80539 0.55338 0.10672 0.0
C757 C 0.8032 0.56642 0.13341 0.0
C758 C 0.80493 0.56019 0.07371 0.0
C759 C 0.77827 0.5862 0.02202 0.0
H760 H 0.82006 0.58355 0.95383 0.0
C761 C 0.78493 0.58202 0.86815 0.0
C762 C 0.76195 0.56202 0.86256 0.0
C763 C 0.79305 0.58965 0.90091 0.0
C764 C 0.80854 0.58487 0.97256 0.0
H765 H 0.79924 0.59704 0.14673 0.0
H766 H 0.79759 0.60856 0.08837 0.0
H767 H 0.83038 0.58461 0.01308 0.0
H768 H 0.72907 0.53494 0.88645 0.0
H769 H 0.74308 0.54836 0.94332 0.0
H770 H 0.75563 0.5849 0.98155 0.0
C771 C 0.8 0.59327 0.09328 0.0
C772 C 0.81436 0.58533 0.0064 0.0
C773 C 0.80092 0.58669 0.12652 0.0
C774 C 0.74695 0.55029 0.89005 0.0
C775 C 0.75486 0.55814 0.92259 0.0
C776 C 0.77231 0.58547 0.98818 0.0
C777 C 0.80195 0.58 0.06662 0.0
C778 C 0.7988 0.58509 0.0314 0.0
C779 C 0.77806 0.57769 0.92839 0.0
C780 C 0.78694 0.58388 0.96324 0.0
H781 H 0.80736 0.53778 0.11131 0.0
H782 H 0.80609 0.54941 0.05365 0.0
H783 H 0.76593 0.5859 0.04082 0.0
H784 H 0.7968 0.59138 0.84732 0.0
H785 H 0.81105 0.60473 0.90482 0.0
C786 C 0.21688 0.80678 0.6264 0.0
C787 C 0.23837 0.80655 0.63248 0.0
C788 C 0.21015 0.80852 0.59362 0.0
C789 C 0.19393 0.79084 0.52188 0.0
H790 H 0.24097 0.82972 0.45429 0.0
C791 C 0.19721 0.75707 0.39261 0.0
C792 C 0.2017 0.77177 0.36439 0.0
C793 C 0.19737 0.76585 0.42452 0.0
C794 C 0.22743 0.81918 0.47289 0.0
H795 H 0.27011 0.80891 0.60942 0.0
H796 H 0.25837 0.81186 0.55238 0.0
H797 H 0.25089 0.83867 0.5137 0.0
H798 H 0.20946 0.80697 0.347 0.0
H799 H 0.21075 0.82286 0.40368 0.0
H800 H 0.17114 0.7703 0.48111 0.0
C801 C 0.24679 0.81087 0.57282 0.0
C802 C 0.23317 0.82415 0.50681 0.0
C803 C 0.25336 0.80885 0.60545 0.0
C804 C 0.20598 0.79536 0.36851 0.0
C805 C 0.20666 0.80438 0.40073 0.0
C806 C 0.18828 0.78576 0.488 0.0
C807 C 0.225 0.81042 0.56654 0.0
C808 C 0.21689 0.80929 0.53155 0.0
C809 C 0.20238 0.78964 0.42894 0.0
C810 C 0.20543 0.79918 0.46333 0.0
H811 H 0.20506 0.80515 0.64687 0.0
H812 H 0.19323 0.80808 0.58939 0.0
H813 H 0.18106 0.77906 0.54041 0.0
H814 H 0.19363 0.73873 0.39007 0.0
H815 H 0.19442 0.75425 0.4459 0.0
C816 C 0.40184 0.19355 0.87501 0.0
C817 C 0.42391 0.19412 0.87108 0.0
C818 C 0.39231 0.19206 0.90711 0.0
C819 C 0.39234 0.21025 0.97908 0.0
H820 H 0.39912 0.17091 0.04743 0.0
C821 C 0.43202 0.24514 0.10658 0.0
C822 C 0.42378 0.23046 0.13515 0.0
C823 C 0.42162 0.2362 0.07543 0.0
C824 C 0.3964 0.18158 0.0287 0.0
H825 H 0.45283 0.19262 0.89723 0.0
H826 H 0.43625 0.18986 0.95279 0.0
H827 H 0.39975 0.16144 0.98833 0.0
H828 H 0.39764 0.19521 0.15405 0.0
H829 H 0.37985 0.17906 0.09871 0.0
H830 H 0.39083 0.23148 0.01945 0.0
C831 C 0.42623 0.19053 0.93131 0.0
C832 C 0.39695 0.17627 0.99489 0.0
C833 C 0.4359 0.19246 0.8995 0.0
C834 C 0.40434 0.20681 0.13226 0.0
C835 C 0.39416 0.19764 0.10076 0.0
C836 C 0.39192 0.21564 0.01291 0.0
C837 C 0.40447 0.19051 0.93551 0.0
C838 C 0.39632 0.19139 0.96987 0.0
C839 C 0.40293 0.21224 0.07203 0.0
C840 C 0.39536 0.20218 0.03792 0.0
H841 H 0.39222 0.19473 0.8534 0.0
H842 H 0.37559 0.19226 0.90979 0.0
H843 H 0.3918 0.22218 0.96028 0.0
H844 H 0.44679 0.26355 0.10817 0.0
H845 H 0.42907 0.24775 0.0537 0.0
C846 C 0.24576 0.45786 0.38331 0.0
C847 C 0.23585 0.44046 0.35783 0.0
C848 C 0.24005 0.45135 0.4167 0.0
C849 C 0.19612 0.40932 0.47446 0.0
H850 H 0.25114 0.43703 0.53463 0.0
C851 C 0.19015 0.411 0.62111 0.0
C852 C 0.20238 0.435 0.63242 0.0
C853 C 0.19325 0.40556 0.58807 0.0
C854 C 0.23561 0.42886 0.51814 0.0
H855 H 0.2113 0.40268 0.34723 0.0
H856 H 0.20086 0.39128 0.40643 0.0
H857 H 0.25757 0.43845 0.47423 0.0
H858 H 0.22785 0.47194 0.61876 0.0
H859 H 0.23366 0.46242 0.56176 0.0
H860 H 0.17425 0.40095 0.5187 0.0
C861 C 0.21329 0.40992 0.40013 0.0
C862 C 0.23927 0.42971 0.48366 0.0
C863 C 0.21922 0.41646 0.3664 0.0
C864 C 0.21815 0.4533 0.61066 0.0
C865 C 0.22159 0.44784 0.57812 0.0
C866 C 0.19244 0.40842 0.50919 0.0
C867 C 0.22419 0.42729 0.42554 0.0
C868 C 0.21964 0.421 0.46149 0.0
C869 C 0.20908 0.424 0.56642 0.0
C870 C 0.21225 0.4192 0.53112 0.0
H871 H 0.25847 0.47655 0.37761 0.0
H872 H 0.24826 0.46519 0.43576 0.0
H873 H 0.18072 0.4025 0.4578 0.0
H874 H 0.17779 0.39661 0.63746 0.0
H875 H 0.18338 0.38706 0.57946 0.0
C876 C 0.79966 0.2484 0.88268 0.0
C877 C 0.79812 0.23338 0.85607 0.0
C878 C 0.80162 0.2423 0.91558 0.0
C879 C 0.78348 0.19098 0.9688 0.0
H880 H 0.824 0.23979 0.03357 0.0
C881 C 0.7535 0.19706 0.09965 0.0
C882 C 0.76907 0.20222 0.12703 0.0
C883 C 0.7613 0.19658 0.06731 0.0
C884 C 0.81301 0.22577 0.01576 0.0
H885 H 0.79762 0.20032 0.84278 0.0
H886 H 0.80032 0.18922 0.90084 0.0
H887 H 0.83119 0.24828 0.97359 0.0
H888 H 0.80485 0.21053 0.14247 0.0
H889 H 0.81901 0.21074 0.08499 0.0
H890 H 0.76422 0.16914 0.01097 0.0
C891 C 0.8003 0.20585 0.896 0.0
C892 C 0.81697 0.23069 0.98153 0.0
C893 C 0.79868 0.21215 0.86291 0.0
C894 C 0.79257 0.20657 0.12163 0.0
C895 C 0.80061 0.20662 0.08895 0.0
C896 C 0.77938 0.18616 0.00301 0.0
C897 C 0.80184 0.22093 0.92258 0.0
C898 C 0.80154 0.21373 0.95784 0.0
C899 C 0.78497 0.20163 0.06159 0.0
C900 C 0.79343 0.20394 0.02669 0.0
H901 H 0.79945 0.26496 0.87814 0.0
H902 H 0.80231 0.25401 0.93566 0.0
H903 H 0.77131 0.17763 0.95105 0.0
H904 H 0.7352 0.19338 0.10318 0.0
H905 H 0.74903 0.1931 0.0466 0.0
C906 C 0.58315 0.78699 0.62353 0.0
C907 C 0.56337 0.76382 0.62873 0.0
C908 C 0.59074 0.79545 0.59089 0.0
C909 C 0.58506 0.81093 0.51947 0.0
H910 H 0.58739 0.76933 0.45064 0.0
C911 C 0.55239 0.80704 0.38564 0.0
C912 C 0.5654 0.80502 0.35879 0.0
C913 C 0.55954 0.80685 0.41857 0.0
C914 C 0.58732 0.78142 0.46958 0.0
H915 H 0.53672 0.73092 0.60435 0.0
H916 H 0.55013 0.74549 0.54771 0.0
H917 H 0.58724 0.75917 0.50975 0.0
H918 H 0.59631 0.80163 0.3451 0.0
H919 H 0.60845 0.80054 0.40321 0.0
H920 H 0.58358 0.83233 0.47925 0.0
C921 C 0.55973 0.75718 0.56863 0.0
C922 C 0.5871 0.77554 0.50333 0.0
C923 C 0.55189 0.74895 0.60103 0.0
C924 C 0.58595 0.80316 0.36543 0.0
C925 C 0.5929 0.80257 0.39854 0.0
C926 C 0.58502 0.81667 0.4857 0.0
C927 C 0.57901 0.78058 0.56319 0.0
C928 C 0.58502 0.78974 0.52849 0.0
C929 C 0.57967 0.80434 0.42538 0.0
C930 C 0.5852 0.80144 0.46049 0.0
H931 H 0.59229 0.79876 0.64457 0.0
H932 H 0.60559 0.81361 0.58724 0.0
H933 H 0.58334 0.82211 0.53839 0.0
H934 H 0.53658 0.80868 0.38125 0.0
H935 H 0.54878 0.80785 0.43879 0.0
C936 C 0.23215 0.53289 0.27936 0.0
C937 C 0.22436 0.51691 0.25209 0.0
C938 C 0.23109 0.55413 0.2778 0.0
C939 C 0.23254 0.59886 0.2211 0.0
H940 H 0.19575 0.60995 0.28871 0.0
C941 C 0.2145 0.67871 0.21231 0.0
C942 C 0.21325 0.6893 0.24245 0.0
C943 C 0.21601 0.65765 0.21276 0.0
C944 C 0.2065 0.60744 0.26993 0.0
H945 H 0.21012 0.51077 0.20155 0.0
H946 H 0.2088 0.54829 0.19851 0.0
H947 H 0.19919 0.57382 0.29154 0.0
H948 H 0.21355 0.68685 0.29666 0.0
H949 H 0.21733 0.65107 0.29755 0.0
H950 H 0.24067 0.63278 0.20003 0.0
C951 C 0.21537 0.54418 0.22118 0.0
C952 C 0.2083 0.58665 0.27153 0.0
C953 C 0.21594 0.52271 0.22302 0.0
C954 C 0.21409 0.67885 0.27299 0.0
C955 C 0.2161 0.65818 0.27346 0.0
C956 C 0.23117 0.61994 0.21985 0.0
C957 C 0.22276 0.55994 0.24865 0.0
C958 C 0.22129 0.58218 0.24712 0.0
C959 C 0.21677 0.64707 0.24339 0.0
C960 C 0.21811 0.62453 0.24427 0.0
H961 H 0.23866 0.52872 0.30201 0.0
H962 H 0.23693 0.56612 0.29924 0.0
H963 H 0.24275 0.59575 0.20208 0.0
H964 H 0.21381 0.68639 0.18843 0.0
H965 H 0.21616 0.64948 0.18907 0.0
C966 C 0.68818 0.21235 0.73107 0.0
C967 C 0.70279 0.21983 0.75986 0.0
C968 C 0.66692 0.21337 0.73 0.0
C969 C 0.61905 0.20902 0.78161 0.0
H970 H 0.60689 0.24291 0.71053 0.0
C971 C 0.53309 0.21588 0.78221 0.0
C972 C 0.52221 0.21549 0.75149 0.0
C973 C 0.55586 0.21808 0.78314 0.0
C974 C 0.60976 0.23302 0.73027 0.0
H975 H 0.7068 0.23419 0.81 0.0
H976 H 0.66892 0.23516 0.80864 0.0
H977 H 0.64519 0.24329 0.71228 0.0
H978 H 0.52658 0.21724 0.69759 0.0
H979 H 0.56594 0.21984 0.69893 0.0
H980 H 0.58346 0.19759 0.79886 0.0
C981 C 0.67418 0.22883 0.78682 0.0
C982 C 0.63179 0.23344 0.73137 0.0
C983 C 0.69577 0.22832 0.7876 0.0
C984 C 0.53465 0.2176 0.72162 0.0
C985 C 0.55729 0.21924 0.72248 0.0
C986 C 0.59686 0.20815 0.78016 0.0
C987 C 0.65966 0.22143 0.75794 0.0
C988 C 0.63663 0.22152 0.75712 0.0
C989 C 0.56815 0.21933 0.75331 0.0
C990 C 0.59189 0.22024 0.75457 0.0
H991 H 0.69341 0.20606 0.70921 0.0
H992 H 0.65595 0.20748 0.70753 0.0
H993 H 0.62228 0.1994 0.80144 0.0
H994 H 0.52406 0.21469 0.80569 0.0
H995 H 0.5638 0.21884 0.8074 0.0
C996 C 0.48471 0.68848 0.26838 0.0
C997 C 0.4854 0.71022 0.26093 0.0
C998 C 0.46364 0.66643 0.26329 0.0
C999 C 0.39764 0.63897 0.24938 0.0
H1000 H 0.40369 0.58507 0.21744 0.0
C1001 C 0.3152 0.54694 0.21297 0.0
C1002 C 0.31476 0.52711 0.22871 0.0
C1003 C 0.33612 0.56962 0.21377 0.0
C1004 C 0.40175 0.59997 0.22638 0.0
H1005 H 0.46457 0.72596 0.24225 0.0
H1006 H 0.42792 0.68756 0.23275 0.0
H1007 H 0.43979 0.62413 0.22597 0.0
H1008 H 0.33606 0.51516 0.25638 0.0
H1009 H 0.37257 0.55452 0.2572 0.0
H1010 H 0.35948 0.61466 0.24942 0.0
C1011 C 0.44345 0.68745 0.24327 0.0
C1012 C 0.42242 0.62233 0.23152 0.0
C1013 C 0.46447 0.7095 0.24872 0.0
C1014 C 0.33584 0.53014 0.2441 0.0
C1015 C 0.35679 0.55264 0.24444 0.0
C1016 C 0.37694 0.61665 0.24388 0.0
C1017 C 0.44281 0.6656 0.25022 0.0
C1018 C 0.42068 0.64205 0.24355 0.0
C1019 C 0.35704 0.5727 0.2298 0.0
C1020 C 0.37882 0.59686 0.23276 0.0
H1021 H 0.5005 0.68854 0.27819 0.0
H1022 H 0.46368 0.65003 0.26971 0.0
H1023 H 0.39557 0.65363 0.25904 0.0
H1024 H 0.29917 0.54514 0.20111 0.0
H1025 H 0.33591 0.58479 0.20213 0.0
C1026 C 0.80136 0.32767 0.73809 0.0
C1027 C 0.78159 0.30632 0.72606 0.0
C1028 C 0.80064 0.34904 0.73895 0.0
C1029 C 0.76775 0.37921 0.70808 0.0
H1030 H 0.79402 0.41721 0.78892 0.0
C1031 C 0.75379 0.45908 0.74461 0.0
C1032 C 0.77417 0.47992 0.75677 0.0
C1033 C 0.75454 0.43789 0.73925 0.0
C1034 C 0.78682 0.40693 0.76605 0.0
H1035 H 0.74587 0.29077 0.70437 0.0
H1036 H 0.74438 0.32817 0.70644 0.0
H1037 H 0.79569 0.38041 0.78151 0.0
H1038 H 0.81121 0.4948 0.77296 0.0
H1039 H 0.81255 0.45788 0.76355 0.0
H1040 H 0.75857 0.40577 0.69303 0.0
C1041 C 0.7606 0.32843 0.71478 0.0
C1042 C 0.78783 0.38586 0.76173 0.0
C1043 C 0.76142 0.30699 0.71362 0.0
C1044 C 0.79529 0.47911 0.76339 0.0
C1045 C 0.79598 0.45791 0.75826 0.0
C1046 C 0.76662 0.4003 0.71252 0.0
C1047 C 0.78001 0.34956 0.7282 0.0
C1048 C 0.77851 0.37183 0.73258 0.0
C1049 C 0.77561 0.43706 0.74619 0.0
C1050 C 0.77631 0.41445 0.74147 0.0
H1051 H 0.8173 0.32779 0.74747 0.0
H1052 H 0.81616 0.36511 0.74859 0.0
H1053 H 0.76056 0.36893 0.68523 0.0
H1054 H 0.73735 0.4592 0.73885 0.0
H1055 H 0.73851 0.42206 0.73014 0.0
C1056 C 0.29529 0.76113 0.24557 0.0
C1057 C 0.29507 0.78089 0.26052 0.0
C1058 C 0.31707 0.76191 0.23885 0.0
C1059 C 0.38246 0.80483 0.22874 0.0
H1060 H 0.38849 0.74833 0.24442 0.0
C1061 C 0.47364 0.80869 0.24205 0.0
C1062 C 0.47646 0.79031 0.22737 0.0
C1063 C 0.45132 0.80751 0.24171 0.0
C1064 C 0.38697 0.76413 0.23941 0.0
H1065 H 0.31752 0.81673 0.28082 0.0
H1066 H 0.35552 0.81799 0.26965 0.0
H1067 H 0.34982 0.74615 0.25369 0.0
H1068 H 0.45822 0.75653 0.20016 0.0
H1069 H 0.41893 0.75436 0.19978 0.0
H1070 H 0.41982 0.82297 0.21539 0.0
C1071 C 0.33888 0.80209 0.26236 0.0
C1072 C 0.36482 0.76291 0.24475 0.0
C1073 C 0.3171 0.80135 0.26889 0.0
C1074 C 0.4566 0.771 0.21154 0.0
C1075 C 0.43411 0.76967 0.21154 0.0
C1076 C 0.40462 0.80608 0.22361 0.0
C1077 C 0.33915 0.78243 0.24706 0.0
C1078 C 0.36238 0.78334 0.23989 0.0
C1079 C 0.43122 0.78782 0.22694 0.0
C1080 C 0.40719 0.78584 0.2293 0.0
H1081 H 0.27863 0.74526 0.23831 0.0
H1082 H 0.31659 0.74658 0.22663 0.0
H1083 H 0.3811 0.82076 0.22402 0.0
H1084 H 0.48863 0.82385 0.25439 0.0
H1085 H 0.44961 0.82163 0.25408 0.0
C1086 C 0.67364 0.45945 0.74866 0.0
C1087 C 0.67104 0.47949 0.74124 0.0
C1088 C 0.6535 0.43631 0.74972 0.0
C1089 C 0.58948 0.40603 0.76807 0.0
H1090 H 0.58678 0.35007 0.72642 0.0
C1091 C 0.50295 0.31311 0.7705 0.0
C1092 C 0.50506 0.29232 0.77274 0.0
C1093 C 0.52328 0.33579 0.76592 0.0
C1094 C 0.58736 0.36543 0.73867 0.0
H1095 H 0.6454 0.4909 0.72811 0.0
H1096 H 0.61018 0.45045 0.73042 0.0
H1097 H 0.62222 0.3898 0.71829 0.0
H1098 H 0.53077 0.27956 0.77219 0.0
H1099 H 0.56612 0.31908 0.76592 0.0
H1100 H 0.55516 0.38187 0.78943 0.0
C1101 C 0.62783 0.45272 0.73537 0.0
C1102 C 0.60761 0.38818 0.73379 0.0
C1103 C 0.648 0.47582 0.73383 0.0
C1104 C 0.52823 0.295 0.77096 0.0
C1105 C 0.54861 0.31775 0.7668 0.0
C1106 C 0.56941 0.38328 0.77335 0.0
C1107 C 0.63035 0.43281 0.74384 0.0
C1108 C 0.6088 0.4087 0.74833 0.0
C1109 C 0.54639 0.33844 0.76391 0.0
C1110 C 0.56801 0.36266 0.75863 0.0
H1111 H 0.69119 0.46171 0.75435 0.0
H1112 H 0.65592 0.42126 0.75642 0.0
H1113 H 0.59013 0.42152 0.78004 0.0
H1114 H 0.4856 0.31203 0.77208 0.0
H1115 H 0.52075 0.35121 0.76336 0.0
C1116 C 0.30979 0.76495 0.77516 0.0
C1117 C 0.30932 0.78518 0.76257 0.0
C1118 C 0.33117 0.76402 0.77441 0.0
C1119 C 0.38917 0.79134 0.72879 0.0
H1120 H 0.4079 0.76131 0.79786 0.0
C1121 C 0.48203 0.79784 0.7294 0.0
C1122 C 0.48236 0.77641 0.73552 0.0
C1123 C 0.46096 0.79883 0.7342 0.0
C1124 C 0.40277 0.76959 0.77828 0.0
H1125 H 0.33107 0.82091 0.74139 0.0
H1126 H 0.36831 0.81962 0.74109 0.0
H1127 H 0.37113 0.76353 0.80477 0.0
H1128 H 0.46097 0.73938 0.7523 0.0
H1129 H 0.42408 0.74108 0.7605 0.0
H1130 H 0.42082 0.79756 0.70244 0.0
C1131 C 0.35213 0.8041 0.75045 0.0
C1132 C 0.38171 0.77084 0.7822 0.0
C1133 C 0.3308 0.80491 0.75084 0.0
C1134 C 0.46121 0.75606 0.74693 0.0
C1135 C 0.44017 0.7571 0.752 0.0
C1136 C 0.41023 0.79024 0.72501 0.0
C1137 C 0.35247 0.78341 0.76134 0.0
C1138 C 0.37473 0.78184 0.75754 0.0
C1139 C 0.43979 0.77846 0.74548 0.0
C1140 C 0.4173 0.77943 0.74972 0.0
H1141 H 0.29346 0.74944 0.78422 0.0
H1142 H 0.33076 0.74775 0.78284 0.0
H1143 H 0.38405 0.79939 0.70888 0.0
H1144 H 0.49799 0.81375 0.72041 0.0
H1145 H 0.46126 0.8156 0.72925 0.0
C1146 C 0.53701 0.32285 0.23041 0.0
C1147 C 0.51793 0.32651 0.23983 0.0
C1148 C 0.56055 0.34231 0.22841 0.0
C1149 C 0.59391 0.40721 0.21398 0.0
H1150 H 0.64775 0.40569 0.25588 0.0
C1151 C 0.68693 0.49254 0.22656 0.0
C1152 C 0.70777 0.49051 0.22483 0.0
C1153 C 0.66407 0.47204 0.2267 0.0
C1154 C 0.63302 0.40629 0.24349 0.0
H1155 H 0.50861 0.35336 0.25486 0.0
H1156 H 0.54966 0.38733 0.25095 0.0
H1157 H 0.60735 0.37063 0.26001 0.0
H1158 H 0.72059 0.46497 0.22128 0.0
H1159 H 0.68074 0.42933 0.22005 0.0
H1160 H 0.61937 0.44255 0.19685 0.0
C1161 C 0.54637 0.36941 0.24515 0.0
C1162 C 0.60987 0.38623 0.24604 0.0
C1163 C 0.52291 0.34994 0.24762 0.0
C1164 C 0.70505 0.46737 0.22232 0.0
C1165 C 0.68213 0.44683 0.22212 0.0
C1166 C 0.61706 0.42712 0.21105 0.0
C1167 C 0.56538 0.36581 0.23531 0.0
C1168 C 0.59007 0.38664 0.23167 0.0
C1169 C 0.66133 0.44888 0.22469 0.0
C1170 C 0.63689 0.42707 0.22613 0.0
H1171 H 0.53374 0.30499 0.22434 0.0
H1172 H 0.57488 0.33907 0.22066 0.0
H1173 H 0.57899 0.40783 0.20218 0.0
H1174 H 0.68819 0.50998 0.22807 0.0
H1175 H 0.64855 0.4744 0.22917 0.0
C1176 C 0.19236 0.52548 0.74178 0.0
C1177 C 0.21112 0.52323 0.75636 0.0
C1178 C 0.19411 0.54799 0.73886 0.0
C1179 C 0.22783 0.61135 0.76865 0.0
H1180 H 0.20407 0.62337 0.68556 0.0
C1181 C 0.24322 0.70558 0.73232 0.0
C1182 C 0.22286 0.70617 0.72038 0.0
C1183 C 0.24268 0.68363 0.73633 0.0
C1184 C 0.21064 0.62024 0.70898 0.0
H1185 H 0.24618 0.54279 0.7801 0.0
H1186 H 0.24946 0.58233 0.77452 0.0
H1187 H 0.20125 0.58448 0.69465 0.0
H1188 H 0.18627 0.68428 0.70234 0.0
H1189 H 0.18532 0.64594 0.7092 0.0
H1190 H 0.23742 0.64735 0.78269 0.0
C1191 C 0.23321 0.56659 0.76578 0.0
C1192 C 0.20895 0.5979 0.7143 0.0
C1193 C 0.23135 0.54394 0.76899 0.0
C1194 C 0.20217 0.68438 0.71177 0.0
C1195 C 0.2017 0.66246 0.71549 0.0
C1196 C 0.22966 0.63379 0.76321 0.0
C1197 C 0.21479 0.56893 0.75008 0.0
C1198 C 0.21727 0.59305 0.74434 0.0
C1199 C 0.22185 0.66181 0.72818 0.0
C1200 C 0.22088 0.63839 0.73343 0.0
H1201 H 0.17642 0.50983 0.73208 0.0
H1202 H 0.1793 0.549 0.72744 0.0
H1203 H 0.23421 0.60818 0.79219 0.0
H1204 H 0.25934 0.72202 0.73954 0.0
H1205 H 0.25856 0.68372 0.74588 0.0
C1206 C 0.51914 0.21247 0.26007 0.0
C1207 C 0.51526 0.22308 0.23169 0.0
C1208 C 0.54068 0.2122 0.2638 0.0
C1209 C 0.58646 0.20914 0.21665 0.0
H1210 H 0.62862 0.23724 0.29344 0.0
C1211 C 0.67883 0.21577 0.22013 0.0
C1212 C 0.68797 0.2132 0.25086 0.0
C1213 C 0.65815 0.21772 0.21904 0.0
C1214 C 0.61688 0.22892 0.27212 0.0
H1215 H 0.53058 0.24172 0.18507 0.0
H1216 H 0.56813 0.2405 0.19098 0.0
H1217 H 0.5915 0.23912 0.28943 0.0
H1218 H 0.68285 0.21078 0.30464 0.0
H1219 H 0.64581 0.21296 0.3028 0.0
H1220 H 0.61082 0.19787 0.19978 0.0
C1221 C 0.5546 0.23274 0.21048 0.0
C1222 C 0.59575 0.23019 0.26976 0.0
C1223 C 0.53327 0.23349 0.20714 0.0
C1224 C 0.67614 0.21279 0.28063 0.0
C1225 C 0.65501 0.21419 0.27951 0.0
C1226 C 0.60723 0.20739 0.2193 0.0
C1227 C 0.55843 0.22209 0.23885 0.0
C1228 C 0.58057 0.22055 0.24181 0.0
C1229 C 0.64566 0.21654 0.24861 0.0
C1230 C 0.62295 0.21756 0.24683 0.0
H1231 H 0.50559 0.20458 0.27949 0.0
H1232 H 0.54328 0.20382 0.28579 0.0
H1233 H 0.57476 0.20124 0.19513 0.0
H1234 H 0.68786 0.21661 0.19679 0.0
H1235 H 0.65208 0.2203 0.19486 0.0
C1236 C 0.4598 0.67528 0.74027 0.0
C1237 C 0.47944 0.67215 0.74829 0.0
C1238 C 0.43639 0.65556 0.73975 0.0
C1239 C 0.40422 0.59069 0.72576 0.0
H1240 H 0.34962 0.59167 0.76585 0.0
C1241 C 0.31073 0.50542 0.73372 0.0
C1242 C 0.29013 0.50773 0.73042 0.0
C1243 C 0.33365 0.52578 0.73543 0.0
C1244 C 0.3646 0.59122 0.75404 0.0
H1245 H 0.48986 0.64603 0.76297 0.0
H1246 H 0.44895 0.61157 0.76177 0.0
H1247 H 0.38989 0.62677 0.77133 0.0
H1248 H 0.2777 0.53352 0.72582 0.0
H1249 H 0.31772 0.56898 0.72739 0.0
H1250 H 0.37911 0.55549 0.70776 0.0
C1251 C 0.45174 0.62928 0.75581 0.0
C1252 C 0.38767 0.61128 0.75737 0.0
C1253 C 0.47512 0.64904 0.75674 0.0
C1254 C 0.29311 0.53097 0.72801 0.0
C1255 C 0.31609 0.55137 0.72944 0.0
C1256 C 0.38117 0.57075 0.72209 0.0
C1257 C 0.4322 0.63231 0.74683 0.0
C1258 C 0.40771 0.61112 0.74347 0.0
C1259 C 0.33664 0.54904 0.73352 0.0
C1260 C 0.36107 0.57067 0.73639 0.0
H1261 H 0.46255 0.6929 0.73377 0.0
H1262 H 0.42166 0.65838 0.73263 0.0
H1263 H 0.41932 0.59027 0.71426 0.0
H1264 H 0.30923 0.48787 0.73524 0.0
H1265 H 0.34898 0.52323 0.73898 0.0
C1266 C 0.75859 0.29549 0.2477 0.0
C1267 C 0.77851 0.29565 0.23263 0.0
C1268 C 0.75897 0.31706 0.25453 0.0
C1269 C 0.80096 0.38255 0.26506 0.0
H1270 H 0.74432 0.3879 0.24714 0.0
C1271 C 0.80457 0.47333 0.24944 0.0
C1272 C 0.78587 0.47616 0.2629 0.0
C1273 C 0.80341 0.45103 0.25045 0.0
C1274 C 0.76015 0.38657 0.25281 0.0
H1275 H 0.81423 0.31863 0.21233 0.0
H1276 H 0.81483 0.35625 0.22387 0.0
H1277 H 0.74264 0.34937 0.23875 0.0
H1278 H 0.75149 0.45792 0.28861 0.0
H1279 H 0.7494 0.41867 0.29023 0.0
H1280 H 0.81863 0.41992 0.27828 0.0
C1281 C 0.7991 0.33946 0.23109 0.0
C1282 C 0.75921 0.3645 0.24796 0.0
C1283 C 0.79875 0.31789 0.22436 0.0
C1284 C 0.76621 0.45629 0.27815 0.0
C1285 C 0.76494 0.43382 0.27887 0.0
C1286 C 0.80192 0.4046 0.26977 0.0
C1287 C 0.77926 0.33932 0.2464 0.0
C1288 C 0.77974 0.36234 0.25351 0.0
C1289 C 0.78345 0.43094 0.26474 0.0
C1290 C 0.78164 0.40695 0.26318 0.0
H1291 H 0.74288 0.27869 0.25492 0.0
H1292 H 0.74351 0.31631 0.26673 0.0
H1293 H 0.81693 0.38137 0.2703 0.0
H1294 H 0.82001 0.4883 0.23758 0.0
H1295 H 0.81782 0.44934 0.239 0.0
loop_
_geom_bond_atom_site_label_1
_geom_bond_atom_site_label_2
_geom_bond_distance
_geom_bond_site_symmetry_2
_ccdc_geom_bond_type
Co0 N4 2.148 . S
Co0 N10 2.128 . S
Co0 N20 2.194 . S
Co0 O25 2.351 . S
Co0 O26 2.155 . S
Co0 O27 2.096 . S
C1 N4 1.301 . S
C1 N5 1.328 . S
C1 H6 0.930 . S
C2 C3 1.333 . S
C2 N4 1.317 . S
C2 H7 0.930 . S
C3 C2 1.333 . S
C3 N5 1.350 . S
C3 H29 0.931 . S
N4 Co0 2.148 . S
N4 C1 1.301 . S
N4 C2 1.317 . S
N5 C1 1.328 . S
N5 C3 1.350 . S
H6 C1 0.930 . S
H7 C2 0.930 . S
C8 O9 1.224 . S
C8 O27 1.247 . S
O9 C8 1.224 . S
N10 Co0 2.128 . S
N10 C11 1.355 . S
N10 C13 1.311 . S
C11 N10 1.355 . S
C11 C12 1.363 . S
C11 H23 0.929 . S
C12 C11 1.363 . S
C12 N14 1.375 . S
C12 H30 0.931 . S
C13 N10 1.311 . S
C13 N14 1.347 . S
C13 H24 0.929 . S
N14 C12 1.375 . S
N14 C13 1.347 . S
C15 C18 1.365 . S
C15 N20 1.328 . S
C15 H21 0.929 . S
C16 C17 1.362 . S
C16 C19 1.378 . S
C16 H31 0.929 . S
C17 C16 1.362 . S
C17 C18 1.366 . S
C18 C15 1.365 . S
C18 C17 1.366 . S
C18 H32 0.930 . S
C19 C16 1.378 . S
C19 N20 1.315 . S
C19 H22 0.930 . S
N20 Co0 2.194 . S
N20 C15 1.328 . S
N20 C19 1.315 . S
H21 C15 0.929 . S
H22 C19 0.930 . S
H23 C11 0.929 . S
H24 C13 0.929 . S
O25 Co0 2.351 . S
O25 C28 1.244 . S
O26 Co0 2.155 . S
O26 C28 1.240 . S
O27 Co0 2.096 . S
O27 C8 1.247 . S
C28 O25 1.244 . S
C28 O26 1.240 . S
H29 C3 0.931 . S
H30 C12 0.931 . S
H31 C16 0.929 . S
H32 C18 0.930 . S
Co33 N37 2.148 . S
Co33 N43 2.128 . S
Co33 N53 2.194 . S
Co33 O58 2.351 . S
Co33 O59 2.155 . S
Co33 O60 2.096 . S
C34 N37 1.301 . S
C34 N38 1.328 . S
C34 H39 0.930 . S
C35 C36 1.333 . S
C35 N37 1.317 . S
C35 H40 0.930 . S
C36 C35 1.333 . S
C36 N38 1.350 . S
C36 H62 0.931 . S
N37 Co33 2.148 . S
N37 C34 1.301 . S
N37 C35 1.317 . S
N38 C34 1.328 . S
N38 C36 1.350 . S
H39 C34 0.930 . S
H40 C35 0.930 . S
C41 O42 1.224 . S
C41 O60 1.247 . S
O42 C41 1.224 . S
N43 Co33 2.128 . S
N43 C44 1.355 . S
N43 C46 1.311 . S
C44 N43 1.355 . S
C44 C45 1.363 . S
C44 H56 0.929 . S
C45 C44 1.363 . S
C45 N47 1.375 . S
C45 H63 0.931 . S
C46 N43 1.311 . S
C46 N47 1.347 . S
C46 H57 0.929 . S
N47 C45 1.375 . S
N47 C46 1.347 . S
C48 C51 1.365 . S
C48 N53 1.328 . S
C48 H54 0.929 . S
C49 C50 1.362 . S
C49 C52 1.378 . S
C49 H64 0.929 . S
C50 C49 1.362 . S
C50 C51 1.366 . S
C51 C48 1.365 . S
C51 C50 1.366 . S
C51 H65 0.930 . S
C52 C49 1.378 . S
C52 N53 1.315 . S
C52 H55 0.930 . S
N53 Co33 2.194 . S
N53 C48 1.328 . S
N53 C52 1.315 . S
H54 C48 0.929 . S
H55 C52 0.930 . S
H56 C44 0.929 . S
H57 C46 0.929 . S
O58 Co33 2.351 . S
O58 C61 1.244 . S
O59 Co33 2.155 . S
O59 C61 1.240 . S
O60 Co33 2.096 . S
O60 C41 1.247 . S
C61 O58 1.244 . S
C61 O59 1.240 . S
H62 C36 0.931 . S
H63 C45 0.931 . S
H64 C49 0.929 . S
H65 C51 0.930 . S
Co66 N70 2.148 . S
Co66 N76 2.128 . S
Co66 N86 2.194 . S
Co66 O91 2.351 . S
Co66 O92 2.155 . S
Co66 O93 2.096 . S
C67 N70 1.301 . S
C67 N71 1.328 . S
C67 H72 0.930 . S
C68 C69 1.333 . S
C68 N70 1.317 . S
C68 H73 0.930 . S
C69 C68 1.333 . S
C69 N71 1.350 . S
C69 H95 0.931 . S
N70 Co66 2.148 . S
N70 C67 1.301 . S
N70 C68 1.317 . S
N71 C67 1.328 . S
N71 C69 1.350 . S
H72 C67 0.930 . S
H73 C68 0.930 . S
C74 O75 1.224 . S
C74 O93 1.247 . S
O75 C74 1.224 . S
N76 Co66 2.128 . S
N76 C77 1.355 . S
N76 C79 1.311 . S
C77 N76 1.355 . S
C77 C78 1.363 . S
C77 H89 0.929 . S
C78 C77 1.363 . S
C78 N80 1.375 . S
C78 H96 0.931 . S
C79 N76 1.311 . S
C79 N80 1.347 . S
C79 H90 0.929 . S
N80 C78 1.375 . S
N80 C79 1.347 . S
C81 C84 1.365 . S
C81 N86 1.328 . S
C81 H87 0.929 . S
C82 C83 1.362 . S
C82 C85 1.378 . S
C82 H97 0.929 . S
C83 C82 1.362 . S
C83 C84 1.366 . S
C84 C81 1.365 . S
C84 C83 1.366 . S
C84 H98 0.930 . S
C85 C82 1.378 . S
C85 N86 1.315 . S
C85 H88 0.930 . S
N86 Co66 2.194 . S
N86 C81 1.328 . S
N86 C85 1.315 . S
H87 C81 0.929 . S
H88 C85 0.930 . S
H89 C77 0.929 . S
H90 C79 0.929 . S
O91 Co66 2.351 . S
O91 C94 1.244 . S
O92 Co66 2.155 . S
O92 C94 1.240 . S
O93 Co66 2.096 . S
O93 C74 1.247 . S
C94 O91 1.244 . S
C94 O92 1.240 . S
H95 C69 0.931 . S
H96 C78 0.931 . S
H97 C82 0.929 . S
H98 C84 0.930 . S
Co99 N103 2.148 . S
Co99 N109 2.128 . S
Co99 N119 2.194 . S
Co99 O124 2.351 . S
Co99 O125 2.155 . S
Co99 O126 2.096 . S
C100 N103 1.301 . S
C100 N104 1.328 . S
C100 H105 0.930 . S
C101 C102 1.333 . S
C101 N103 1.317 . S
C101 H106 0.930 . S
C102 C101 1.333 . S
C102 N104 1.350 . S
C102 H128 0.931 . S
N103 Co99 2.148 . S
N103 C100 1.301 . S
N103 C101 1.317 . S
N104 C100 1.328 . S
N104 C102 1.350 . S
H105 C100 0.930 . S
H106 C101 0.930 . S
C107 O108 1.224 . S
C107 O126 1.247 . S
O108 C107 1.224 . S
N109 Co99 2.128 . S
N109 C110 1.355 . S
N109 C112 1.311 . S
C110 N109 1.355 . S
C110 C111 1.363 . S
C110 H122 0.929 . S
C111 C110 1.363 . S
C111 N113 1.375 . S
C111 H129 0.931 . S
C112 N109 1.311 . S
C112 N113 1.347 . S
C112 H123 0.929 . S
N113 C111 1.375 . S
N113 C112 1.347 . S
C114 C117 1.365 . S
C114 N119 1.328 . S
C114 H120 0.929 . S
C115 C116 1.362 . S
C115 C118 1.378 . S
C115 H130 0.929 . S
C116 C115 1.362 . S
C116 C117 1.366 . S
C117 C114 1.365 . S
C117 C116 1.366 . S
C117 H131 0.930 . S
C118 C115 1.378 . S
C118 N119 1.315 . S
C118 H121 0.930 . S
N119 Co99 2.194 . S
N119 C114 1.328 . S
N119 C118 1.315 . S
H120 C114 0.929 . S
H121 C118 0.930 . S
H122 C110 0.929 . S
H123 C112 0.929 . S
O124 Co99 2.351 . S
O124 C127 1.244 . S
O125 Co99 2.155 . S
O125 C127 1.240 . S
O126 Co99 2.096 . S
O126 C107 1.247 . S
C127 O124 1.244 . S
C127 O125 1.240 . S
H128 C102 0.931 . S
H129 C111 0.931 . S
H130 C115 0.929 . S
H131 C117 0.930 . S
Co132 N136 2.148 . S
Co132 N142 2.128 . S
Co132 N152 2.194 . S
Co132 O157 2.351 . S
Co132 O158 2.155 . S
Co132 O159 2.096 . S
C133 N136 1.301 . S
C133 N137 1.328 . S
C133 H138 0.930 . S
C134 C135 1.333 . S
C134 N136 1.317 . S
C134 H139 0.930 . S
C135 C134 1.333 . S
C135 N137 1.350 . S
C135 H161 0.931 . S
N136 Co132 2.148 . S
N136 C133 1.301 . S
N136 C134 1.317 . S
N137 C133 1.328 . S
N137 C135 1.350 . S
H138 C133 0.930 . S
H139 C134 0.930 . S
C140 O141 1.224 . S
C140 O159 1.247 . S
O141 C140 1.224 . S
N142 Co132 2.128 . S
N142 C143 1.355 . S
N142 C145 1.311 . S
C143 N142 1.355 . S
C143 C144 1.363 . S
C143 H155 0.929 . S
C144 C143 1.363 . S
C144 N146 1.375 . S
C144 H162 0.931 . S
C145 N142 1.311 . S
C145 N146 1.347 . S
C145 H156 0.929 . S
N146 C144 1.375 . S
N146 C145 1.347 . S
C147 C150 1.365 . S
C147 N152 1.328 . S
C147 H153 0.929 . S
C148 C149 1.362 . S
C148 C151 1.378 . S
C148 H163 0.929 . S
C149 C148 1.362 . S
C149 C150 1.366 . S
C150 C147 1.365 . S
C150 C149 1.366 . S
C150 H164 0.930 . S
C151 C148 1.378 . S
C151 N152 1.315 . S
C151 H154 0.930 . S
N152 Co132 2.194 . S
N152 C147 1.328 . S
N152 C151 1.315 . S
H153 C147 0.929 . S
H154 C151 0.930 . S
H155 C143 0.929 . S
H156 C145 0.929 . S
O157 Co132 2.351 . S
O157 C160 1.244 . S
O158 Co132 2.155 . S
O158 C160 1.240 . S
O159 Co132 2.096 . S
O159 C140 1.247 . S
C160 O157 1.244 . S
C160 O158 1.240 . S
H161 C135 0.931 . S
H162 C144 0.931 . S
H163 C148 0.929 . S
H164 C150 0.930 . S
Co165 N169 2.148 . S
Co165 N175 2.128 . S
Co165 N185 2.194 . S
Co165 O190 2.351 . S
Co165 O191 2.155 . S
Co165 O192 2.096 . S
C166 N169 1.301 . S
C166 N170 1.328 . S
C166 H171 0.930 . S
C167 C168 1.333 . S
C167 N169 1.317 . S
C167 H172 0.930 . S
C168 C167 1.333 . S
C168 N170 1.350 . S
C168 H194 0.931 . S
N169 Co165 2.148 . S
N169 C166 1.301 . S
N169 C167 1.317 . S
N170 C166 1.328 . S
N170 C168 1.350 . S
H171 C166 0.930 . S
H172 C167 0.930 . S
C173 O174 1.224 . S
C173 O192 1.247 . S
O174 C173 1.224 . S
N175 Co165 2.128 . S
N175 C176 1.355 . S
N175 C178 1.311 . S
C176 N175 1.355 . S
C176 C177 1.363 . S
C176 H188 0.929 . S
C177 C176 1.363 . S
C177 N179 1.375 . S
C177 H195 0.931 . S
C178 N175 1.311 . S
C178 N179 1.347 . S
C178 H189 0.929 . S
N179 C177 1.375 . S
N179 C178 1.347 . S
C180 C183 1.365 . S
C180 N185 1.328 . S
C180 H186 0.929 . S
C181 C182 1.362 . S
C181 C184 1.378 . S
C181 H196 0.929 . S
C182 C181 1.362 . S
C182 C183 1.366 . S
C183 C180 1.365 . S
C183 C182 1.366 . S
C183 H197 0.930 . S
C184 C181 1.378 . S
C184 N185 1.315 . S
C184 H187 0.930 . S
N185 Co165 2.194 . S
N185 C180 1.328 . S
N185 C184 1.315 . S
H186 C180 0.929 . S
H187 C184 0.930 . S
H188 C176 0.929 . S
H189 C178 0.929 . S
O190 Co165 2.351 . S
O190 C193 1.244 . S
O191 Co165 2.155 . S
O191 C193 1.240 . S
O192 Co165 2.096 . S
O192 C173 1.247 . S
C193 O190 1.244 . S
C193 O191 1.240 . S
H194 C168 0.931 . S
H195 C177 0.931 . S
H196 C181 0.929 . S
H197 C183 0.930 . S
Co198 N202 2.148 . S
Co198 N208 2.128 . S
Co198 N218 2.194 . S
Co198 O223 2.351 . S
Co198 O224 2.155 . S
Co198 O225 2.096 . S
C199 N202 1.301 . S
C199 N203 1.328 . S
C199 H204 0.930 . S
C200 C201 1.333 . S
C200 N202 1.317 . S
C200 H205 0.930 . S
C201 C200 1.333 . S
C201 N203 1.350 . S
C201 H227 0.931 . S
N202 Co198 2.148 . S
N202 C199 1.301 . S
N202 C200 1.317 . S
N203 C199 1.328 . S
N203 C201 1.350 . S
H204 C199 0.930 . S
H205 C200 0.930 . S
C206 O207 1.224 . S
C206 O225 1.247 . S
O207 C206 1.224 . S
N208 Co198 2.128 . S
N208 C209 1.355 . S
N208 C211 1.311 . S
C209 N208 1.355 . S
C209 C210 1.363 . S
C209 H221 0.929 . S
C210 C209 1.363 . S
C210 N212 1.375 . S
C210 H228 0.931 . S
C211 N208 1.311 . S
C211 N212 1.347 . S
C211 H222 0.929 . S
N212 C210 1.375 . S
N212 C211 1.347 . S
C213 C216 1.365 . S
C213 N218 1.328 . S
C213 H219 0.929 . S
C214 C215 1.362 . S
C214 C217 1.378 . S
C214 H229 0.929 . S
C215 C214 1.362 . S
C215 C216 1.366 . S
C216 C213 1.365 . S
C216 C215 1.366 . S
C216 H230 0.930 . S
C217 C214 1.378 . S
C217 N218 1.315 . S
C217 H220 0.930 . S
N218 Co198 2.194 . S
N218 C213 1.328 . S
N218 C217 1.315 . S
H219 C213 0.929 . S
H220 C217 0.930 . S
H221 C209 0.929 . S
H222 C211 0.929 . S
O223 Co198 2.351 . S
O223 C226 1.244 . S
O224 Co198 2.155 . S
O224 C226 1.240 . S
O225 Co198 2.096 . S
O225 C206 1.247 . S
C226 O223 1.244 . S
C226 O224 1.240 . S
H227 C201 0.931 . S
H228 C210 0.931 . S
H229 C214 0.929 . S
H230 C216 0.930 . S
Co231 N235 2.148 . S
Co231 N241 2.128 . S
Co231 N251 2.194 . S
Co231 O256 2.351 . S
Co231 O257 2.155 . S
Co231 O258 2.096 . S
C232 N235 1.301 . S
C232 N236 1.328 . S
C232 H237 0.930 . S
C233 C234 1.333 . S
C233 N235 1.317 . S
C233 H238 0.930 . S
C234 C233 1.333 . S
C234 N236 1.350 . S
C234 H260 0.931 . S
N235 Co231 2.148 . S
N235 C232 1.301 . S
N235 C233 1.317 . S
N236 C232 1.328 . S
N236 C234 1.350 . S
H237 C232 0.930 . S
H238 C233 0.930 . S
C239 O240 1.224 . S
C239 O258 1.247 . S
O240 C239 1.224 . S
N241 Co231 2.128 . S
N241 C242 1.355 . S
N241 C244 1.311 . S
C242 N241 1.355 . S
C242 C243 1.363 . S
C242 H254 0.929 . S
C243 C242 1.363 . S
C243 N245 1.375 . S
C243 H261 0.931 . S
C244 N241 1.311 . S
C244 N245 1.347 . S
C244 H255 0.929 . S
N245 C243 1.375 . S
N245 C244 1.347 . S
C246 C249 1.365 . S
C246 N251 1.328 . S
C246 H252 0.929 . S
C247 C248 1.362 . S
C247 C250 1.378 . S
C247 H262 0.929 . S
C248 C247 1.362 . S
C248 C249 1.366 . S
C249 C246 1.365 . S
C249 C248 1.366 . S
C249 H263 0.930 . S
C250 C247 1.378 . S
C250 N251 1.315 . S
C250 H253 0.930 . S
N251 Co231 2.194 . S
N251 C246 1.328 . S
N251 C250 1.315 . S
H252 C246 0.929 . S
H253 C250 0.930 . S
H254 C242 0.929 . S
H255 C244 0.929 . S
O256 Co231 2.351 . S
O256 C259 1.244 . S
O257 Co231 2.155 . S
O257 C259 1.240 . S
O258 Co231 2.096 . S
O258 C239 1.247 . S
C259 O256 1.244 . S
C259 O257 1.240 . S
H260 C234 0.931 . S
H261 C243 0.931 . S
H262 C247 0.929 . S
H263 C249 0.930 . S
Co264 N268 2.148 . S
Co264 N274 2.128 . S
Co264 N284 2.194 . S
Co264 O289 2.351 . S
Co264 O290 2.155 . S
Co264 O291 2.096 . S
C265 N268 1.301 . S
C265 N269 1.328 . S
C265 H270 0.930 . S
C266 C267 1.333 . S
C266 N268 1.317 . S
C266 H271 0.930 . S
C267 C266 1.333 . S
C267 N269 1.350 . S
C267 H293 0.931 . S
N268 Co264 2.148 . S
N268 C265 1.301 . S
N268 C266 1.317 . S
N269 C265 1.328 . S
N269 C267 1.350 . S
H270 C265 0.930 . S
H271 C266 0.930 . S
C272 O273 1.224 . S
C272 O291 1.247 . S
O273 C272 1.224 . S
N274 Co264 2.128 . S
N274 C275 1.355 . S
N274 C277 1.311 . S
C275 N274 1.355 . S
C275 C276 1.363 . S
C275 H287 0.929 . S
C276 C275 1.363 . S
C276 N278 1.375 . S
C276 H294 0.931 . S
C277 N274 1.311 . S
C277 N278 1.347 . S
C277 H288 0.929 . S
N278 C276 1.375 . S
N278 C277 1.347 . S
C279 C282 1.365 . S
C279 N284 1.328 . S
C279 H285 0.929 . S
C280 C281 1.362 . S
C280 C283 1.378 . S
C280 H295 0.929 . S
C281 C280 1.362 . S
C281 C282 1.366 . S
C282 C279 1.365 . S
C282 C281 1.366 . S
C282 H296 0.930 . S
C283 C280 1.378 . S
C283 N284 1.315 . S
C283 H286 0.930 . S
N284 Co264 2.194 . S
N284 C279 1.328 . S
N284 C283 1.315 . S
H285 C279 0.929 . S
H286 C283 0.930 . S
H287 C275 0.929 . S
H288 C277 0.929 . S
O289 Co264 2.351 . S
O289 C292 1.244 . S
O290 Co264 2.155 . S
O290 C292 1.240 . S
O291 Co264 2.096 . S
O291 C272 1.247 . S
C292 O289 1.244 . S
C292 O290 1.240 . S
H293 C267 0.931 . S
H294 C276 0.931 . S
H295 C280 0.929 . S
H296 C282 0.930 . S
Co297 N301 2.148 . S
Co297 N307 2.128 . S
Co297 N317 2.194 . S
Co297 O322 2.351 . S
Co297 O323 2.155 . S
Co297 O324 2.096 . S
C298 N301 1.301 . S
C298 N302 1.328 . S
C298 H303 0.930 . S
C299 C300 1.333 . S
C299 N301 1.317 . S
C299 H304 0.930 . S
C300 C299 1.333 . S
C300 N302 1.350 . S
C300 H326 0.931 . S
N301 Co297 2.148 . S
N301 C298 1.301 . S
N301 C299 1.317 . S
N302 C298 1.328 . S
N302 C300 1.350 . S
H303 C298 0.930 . S
H304 C299 0.930 . S
C305 O306 1.224 . S
C305 O324 1.247 . S
O306 C305 1.224 . S
N307 Co297 2.128 . S
N307 C308 1.355 . S
N307 C310 1.311 . S
C308 N307 1.355 . S
C308 C309 1.363 . S
C308 H320 0.929 . S
C309 C308 1.363 . S
C309 N311 1.375 . S
C309 H327 0.931 . S
C310 N307 1.311 . S
C310 N311 1.347 . S
C310 H321 0.929 . S
N311 C309 1.375 . S
N311 C310 1.347 . S
C312 C315 1.365 . S
C312 N317 1.328 . S
C312 H318 0.929 . S
C313 C314 1.362 . S
C313 C316 1.378 . S
C313 H328 0.929 . S
C314 C313 1.362 . S
C314 C315 1.366 . S
C315 C312 1.365 . S
C315 C314 1.366 . S
C315 H329 0.930 . S
C316 C313 1.378 . S
C316 N317 1.315 . S
C316 H319 0.930 . S
N317 Co297 2.194 . S
N317 C312 1.328 . S
N317 C316 1.315 . S
H318 C312 0.929 . S
H319 C316 0.930 . S
H320 C308 0.929 . S
H321 C310 0.929 . S
O322 Co297 2.351 . S
O322 C325 1.244 . S
O323 Co297 2.155 . S
O323 C325 1.240 . S
O324 Co297 2.096 . S
O324 C305 1.247 . S
C325 O322 1.244 . S
C325 O323 1.240 . S
H326 C300 0.931 . S
H327 C309 0.931 . S
H328 C313 0.929 . S
H329 C315 0.930 . S
Co330 N334 2.148 . S
Co330 N340 2.128 . S
Co330 N350 2.194 . S
Co330 O355 2.351 . S
Co330 O356 2.155 . S
Co330 O357 2.096 . S
C331 N334 1.301 . S
C331 N335 1.328 . S
C331 H336 0.930 . S
C332 C333 1.333 . S
C332 N334 1.317 . S
C332 H337 0.930 . S
C333 C332 1.333 . S
C333 N335 1.350 . S
C333 H359 0.931 . S
N334 Co330 2.148 . S
N334 C331 1.301 . S
N334 C332 1.317 . S
N335 C331 1.328 . S
N335 C333 1.350 . S
H336 C331 0.930 . S
H337 C332 0.930 . S
C338 O339 1.224 . S
C338 O357 1.247 . S
O339 C338 1.224 . S
N340 Co330 2.128 . S
N340 C341 1.355 . S
N340 C343 1.311 . S
C341 N340 1.355 . S
C341 C342 1.363 . S
C341 H353 0.929 . S
C342 C341 1.363 . S
C342 N344 1.375 . S
C342 H360 0.931 . S
C343 N340 1.311 . S
C343 N344 1.347 . S
C343 H354 0.929 . S
N344 C342 1.375 . S
N344 C343 1.347 . S
C345 C348 1.365 . S
C345 N350 1.328 . S
C345 H351 0.929 . S
C346 C347 1.362 . S
C346 C349 1.378 . S
C346 H361 0.929 . S
C347 C346 1.362 . S
C347 C348 1.366 . S
C348 C345 1.365 . S
C348 C347 1.366 . S
C348 H362 0.930 . S
C349 C346 1.378 . S
C349 N350 1.315 . S
C349 H352 0.930 . S
N350 Co330 2.194 . S
N350 C345 1.328 . S
N350 C349 1.315 . S
H351 C345 0.929 . S
H352 C349 0.930 . S
H353 C341 0.929 . S
H354 C343 0.929 . S
O355 Co330 2.351 . S
O355 C358 1.244 . S
O356 Co330 2.155 . S
O356 C358 1.240 . S
O357 Co330 2.096 . S
O357 C338 1.247 . S
C358 O355 1.244 . S
C358 O356 1.240 . S
H359 C333 0.931 . S
H360 C342 0.931 . S
H361 C346 0.929 . S
H362 C348 0.930 . S
Co363 N367 2.148 . S
Co363 N373 2.128 . S
Co363 N383 2.194 . S
Co363 O388 2.351 . S
Co363 O389 2.155 . S
Co363 O390 2.096 . S
C364 N367 1.301 . S
C364 N368 1.328 . S
C364 H369 0.930 . S
C365 C366 1.333 . S
C365 N367 1.317 . S
C365 H370 0.930 . S
C366 C365 1.333 . S
C366 N368 1.350 . S
C366 H392 0.931 . S
N367 Co363 2.148 . S
N367 C364 1.301 . S
N367 C365 1.317 . S
N368 C364 1.328 . S
N368 C366 1.350 . S
H369 C364 0.930 . S
H370 C365 0.930 . S
C371 O372 1.224 . S
C371 O390 1.247 . S
O372 C371 1.224 . S
N373 Co363 2.128 . S
N373 C374 1.355 . S
N373 C376 1.311 . S
C374 N373 1.355 . S
C374 C375 1.363 . S
C374 H386 0.929 . S
C375 C374 1.363 . S
C375 N377 1.375 . S
C375 H393 0.931 . S
C376 N373 1.311 . S
C376 N377 1.347 . S
C376 H387 0.929 . S
N377 C375 1.375 . S
N377 C376 1.347 . S
C378 C381 1.365 . S
C378 N383 1.328 . S
C378 H384 0.929 . S
C379 C380 1.362 . S
C379 C382 1.378 . S
C379 H394 0.929 . S
C380 C379 1.362 . S
C380 C381 1.366 . S
C381 C378 1.365 . S
C381 C380 1.366 . S
C381 H395 0.930 . S
C382 C379 1.378 . S
C382 N383 1.315 . S
C382 H385 0.930 . S
N383 Co363 2.194 . S
N383 C378 1.328 . S
N383 C382 1.315 . S
H384 C378 0.929 . S
H385 C382 0.930 . S
H386 C374 0.929 . S
H387 C376 0.929 . S
O388 Co363 2.351 . S
O388 C391 1.244 . S
O389 Co363 2.155 . S
O389 C391 1.240 . S
O390 Co363 2.096 . S
O390 C371 1.247 . S
C391 O388 1.244 . S
C391 O389 1.240 . S
H392 C366 0.931 . S
H393 C375 0.931 . S
H394 C379 0.929 . S
H395 C381 0.930 . S
C396 C397 1.349 . S
C396 C398 1.327 . S
C396 H421 0.950 . S
C397 C396 1.349 . S
C397 C413 1.349 . S
C398 C396 1.327 . S
C398 C417 1.429 . S
C398 H422 0.950 . S
C399 C416 1.574 . S
C399 C418 1.368 . S
C399 H423 0.949 . S
H400 C404 0.949 . S
C401 C402 1.349 . S
C401 C403 1.327 . S
C401 H424 0.950 . S
C402 C401 1.349 . S
C402 C414 1.349 . S
C403 C401 1.327 . S
C403 C419 1.429 . S
C403 H425 0.950 . S
C404 H400 0.949 . S
C404 C412 1.574 . S
C404 C420 1.368 . S
H405 C413 0.950 . S
H406 C411 0.950 . S
H407 C412 0.949 . S
H408 C414 0.950 . S
H409 C415 0.950 . S
H410 C416 0.949 . S
C411 H406 0.950 . S
C411 C413 1.327 . S
C411 C417 1.429 . S
C412 C404 1.574 . S
C412 H407 0.949 . S
C412 C418 1.368 . S
C413 C397 1.349 . S
C413 H405 0.950 . S
C413 C411 1.327 . S
C414 C402 1.349 . S
C414 H408 0.950 . S
C414 C415 1.327 . S
C415 H409 0.950 . S
C415 C414 1.327 . S
C415 C419 1.429 . S
C416 C399 1.574 . S
C416 H410 0.949 . S
C416 C420 1.368 . S
C417 C398 1.429 . S
C417 C411 1.429 . S
C417 C418 1.523 . S
C418 C399 1.368 . S
C418 C412 1.368 . S
C418 C417 1.523 . S
C419 C403 1.429 . S
C419 C415 1.429 . S
C419 C420 1.523 . S
C420 C404 1.368 . S
C420 C416 1.368 . S
C420 C419 1.523 . S
H421 C396 0.950 . S
H422 C398 0.950 . S
H423 C399 0.949 . S
H424 C401 0.950 . S
H425 C403 0.950 . S
C426 C427 1.349 . S
C426 C428 1.327 . S
C426 H451 0.950 . S
C427 C426 1.349 . S
C427 C443 1.349 . S
C428 C426 1.327 . S
C428 C447 1.429 . S
C428 H452 0.950 . S
C429 C446 1.574 1_655 S
C429 C448 1.368 . S
C429 H453 0.949 . S
H430 C434 0.949 . S
C431 C432 1.349 . S
C431 C433 1.327 . S
C431 H454 0.950 . S
C432 C431 1.349 . S
C432 C444 1.349 . S
C433 C431 1.327 . S
C433 C449 1.429 . S
C433 H455 0.950 . S
C434 H430 0.949 . S
C434 C442 1.574 1_455 S
C434 C450 1.368 . S
H435 C443 0.950 . S
H436 C441 0.950 . S
H437 C442 0.949 . S
H438 C444 0.950 . S
H439 C445 0.950 . S
H440 C446 0.949 . S
C441 H436 0.950 . S
C441 C443 1.327 . S
C441 C447 1.429 . S
C442 C434 1.574 1_655 S
C442 H437 0.949 . S
C442 C448 1.368 . S
C443 C427 1.349 . S
C443 H435 0.950 . S
C443 C441 1.327 . S
C444 C432 1.349 . S
C444 H438 0.950 . S
C444 C445 1.327 . S
C445 H439 0.950 . S
C445 C444 1.327 . S
C445 C449 1.429 . S
C446 C429 1.574 1_455 S
C446 H440 0.949 . S
C446 C450 1.368 . S
C447 C428 1.429 . S
C447 C441 1.429 . S
C447 C448 1.523 . S
C448 C429 1.368 . S
C448 C442 1.368 . S
C448 C447 1.523 . S
C449 C433 1.429 . S
C449 C445 1.429 . S
C449 C450 1.523 . S
C450 C434 1.368 . S
C450 C446 1.368 . S
C450 C449 1.523 . S
H451 C426 0.950 . S
H452 C428 0.950 . S
H453 C429 0.949 . S
H454 C431 0.950 . S
H455 C433 0.950 . S
C456 C457 1.349 . S
C456 C458 1.327 . S
C456 H481 0.950 . S
C457 C456 1.349 . S
C457 C473 1.349 . S
C458 C456 1.327 . S
C458 C477 1.429 . S
C458 H482 0.950 . S
C459 C476 1.574 1_545 S
C459 C478 1.368 . S
C459 H483 0.949 . S
H460 C464 0.949 . S
C461 C462 1.349 . S
C461 C463 1.327 . S
C461 H484 0.950 . S
C462 C461 1.349 . S
C462 C474 1.349 . S
C463 C461 1.327 . S
C463 C479 1.429 . S
C463 H485 0.950 . S
C464 H460 0.949 . S
C464 C472 1.574 1_565 S
C464 C480 1.368 . S
H465 C473 0.950 . S
H466 C471 0.950 . S
H467 C472 0.949 . S
H468 C474 0.950 . S
H469 C475 0.950 . S
H470 C476 0.949 . S
C471 H466 0.950 . S
C471 C473 1.327 . S
C471 C477 1.429 . S
C472 C464 1.574 1_545 S
C472 H467 0.949 . S
C472 C478 1.368 . S
C473 C457 1.349 . S
C473 H465 0.950 . S
C473 C471 1.327 . S
C474 C462 1.349 . S
C474 H468 0.950 . S
C474 C475 1.327 . S
C475 H469 0.950 . S
C475 C474 1.327 . S
C475 C479 1.429 . S
C476 C459 1.574 1_565 S
C476 H470 0.949 . S
C476 C480 1.368 . S
C477 C458 1.429 . S
C477 C471 1.429 . S
C477 C478 1.523 . S
C478 C459 1.368 . S
C478 C472 1.368 . S
C478 C477 1.523 . S
C479 C463 1.429 . S
C479 C475 1.429 . S
C479 C480 1.523 . S
C480 C464 1.368 . S
C480 C476 1.368 . S
C480 C479 1.523 . S
H481 C456 0.950 . S
H482 C458 0.950 . S
H483 C459 0.949 . S
H484 C461 0.950 . S
H485 C463 0.950 . S
C486 C487 1.349 . S
C486 C488 1.327 . S
C486 H511 0.950 . S
C487 C486 1.349 . S
C487 C503 1.349 . S
C488 C486 1.327 . S
C488 C507 1.429 . S
C488 H512 0.950 . S
C489 C506 1.574 . S
C489 C508 1.368 . S
C489 H513 0.949 . S
H490 C494 0.949 . S
C491 C492 1.349 . S
C491 C493 1.327 . S
C491 H514 0.950 . S
C492 C491 1.349 . S
C492 C504 1.349 . S
C493 C491 1.327 . S
C493 C509 1.429 . S
C493 H515 0.950 . S
C494 H490 0.949 . S
C494 C502 1.574 . S
C494 C510 1.368 . S
H495 C503 0.950 . S
H496 C501 0.950 . S
H497 C502 0.949 . S
H498 C504 0.950 . S
H499 C505 0.950 . S
H500 C506 0.949 . S
C501 H496 0.950 . S
C501 C503 1.327 . S
C501 C507 1.429 . S
C502 C494 1.574 . S
C502 H497 0.949 . S
C502 C508 1.368 . S
C503 C487 1.349 . S
C503 H495 0.950 . S
C503 C501 1.327 . S
C504 C492 1.349 . S
C504 H498 0.950 . S
C504 C505 1.327 . S
C505 H499 0.950 . S
C505 C504 1.327 . S
C505 C509 1.429 . S
C506 C489 1.574 . S
C506 H500 0.949 . S
C506 C510 1.368 . S
C507 C488 1.429 . S
C507 C501 1.429 . S
C507 C508 1.523 . S
C508 C489 1.368 . S
C508 C502 1.368 . S
C508 C507 1.523 . S
C509 C493 1.429 . S
C509 C505 1.429 . S
C509 C510 1.523 . S
C510 C494 1.368 . S
C510 C506 1.368 . S
C510 C509 1.523 . S
H511 C486 0.950 . S
H512 C488 0.950 . S
H513 C489 0.949 . S
H514 C491 0.950 . S
H515 C493 0.950 . S
C516 C517 1.349 . S
C516 C518 1.327 . S
C516 H541 0.950 . S
C517 C516 1.349 . S
C517 C533 1.349 . S
C518 C516 1.327 . S
C518 C537 1.429 . S
C518 H542 0.950 . S
C519 C536 1.574 1_455 S
C519 C538 1.368 . S
C519 H543 0.949 . S
H520 C524 0.949 . S
C521 C522 1.349 . S
C521 C523 1.327 . S
C521 H544 0.950 . S
C522 C521 1.349 . S
C522 C534 1.349 . S
C523 C521 1.327 . S
C523 C539 1.429 . S
C523 H545 0.950 . S
C524 H520 0.949 . S
C524 C532 1.574 1_655 S
C524 C540 1.368 . S
H525 C533 0.950 . S
H526 C531 0.950 . S
H527 C532 0.949 . S
H528 C534 0.950 . S
H529 C535 0.950 . S
H530 C536 0.949 . S
C531 H526 0.950 . S
C531 C533 1.327 . S
C531 C537 1.429 . S
C532 C524 1.574 1_455 S
C532 H527 0.949 . S
C532 C538 1.368 . S
C533 C517 1.349 . S
C533 H525 0.950 . S
C533 C531 1.327 . S
C534 C522 1.349 . S
C534 H528 0.950 . S
C534 C535 1.327 . S
C535 H529 0.950 . S
C535 C534 1.327 . S
C535 C539 1.429 . S
C536 C519 1.574 1_655 S
C536 H530 0.949 . S
C536 C540 1.368 . S
C537 C518 1.429 . S
C537 C531 1.429 . S
C537 C538 1.523 . S
C538 C519 1.368 . S
C538 C532 1.368 . S
C538 C537 1.523 . S
C539 C523 1.429 . S
C539 C535 1.429 . S
C539 C540 1.523 . S
C540 C524 1.368 . S
C540 C536 1.368 . S
C540 C539 1.523 . S
H541 C516 0.950 . S
H542 C518 0.950 . S
H543 C519 0.949 . S
H544 C521 0.950 . S
H545 C523 0.950 . S
C546 C547 1.349 . S
C546 C548 1.327 . S
C546 H571 0.950 . S
C547 C546 1.349 . S
C547 C563 1.349 . S
C548 C546 1.327 . S
C548 C567 1.429 . S
C548 H572 0.950 . S
C549 C566 1.574 1_565 S
C549 C568 1.368 . S
C549 H573 0.949 . S
H550 C554 0.949 . S
C551 C552 1.349 . S
C551 C553 1.327 . S
C551 H574 0.950 . S
C552 C551 1.349 . S
C552 C564 1.349 . S
C553 C551 1.327 . S
C553 C569 1.429 . S
C553 H575 0.950 . S
C554 H550 0.949 . S
C554 C562 1.574 1_545 S
C554 C570 1.368 . S
H555 C563 0.950 . S
H556 C561 0.950 . S
H557 C562 0.949 . S
H558 C564 0.950 . S
H559 C565 0.950 . S
H560 C566 0.949 . S
C561 H556 0.950 . S
C561 C563 1.327 . S
C561 C567 1.429 . S
C562 C554 1.574 1_565 S
C562 H557 0.949 . S
C562 C568 1.368 . S
C563 C547 1.349 . S
C563 H555 0.950 . S
C563 C561 1.327 . S
C564 C552 1.349 . S
C564 H558 0.950 . S
C564 C565 1.327 . S
C565 H559 0.950 . S
C565 C564 1.327 . S
C565 C569 1.429 . S
C566 C549 1.574 1_545 S
C566 H560 0.949 . S
C566 C570 1.368 . S
C567 C548 1.429 . S
C567 C561 1.429 . S
C567 C568 1.523 . S
C568 C549 1.368 . S
C568 C562 1.368 . S
C568 C567 1.523 . S
C569 C553 1.429 . S
C569 C565 1.429 . S
C569 C570 1.523 . S
C570 C554 1.368 . S
C570 C566 1.368 . S
C570 C569 1.523 . S
H571 C546 0.950 . S
H572 C548 0.950 . S
H573 C549 0.949 . S
H574 C551 0.950 . S
H575 C553 0.950 . S
C576 C577 1.349 . S
C576 C578 1.327 . S
C576 H601 0.950 . S
C577 C576 1.349 . S
C577 C593 1.349 . S
C578 C576 1.327 . S
C578 C597 1.429 . S
C578 H602 0.950 . S
C579 C596 1.574 1_556 S
C579 C598 1.368 . S
C579 H603 0.949 . S
H580 C584 0.949 . S
C581 C582 1.349 . S
C581 C583 1.327 . S
C581 H604 0.950 . S
C582 C581 1.349 . S
C582 C594 1.349 . S
C583 C581 1.327 . S
C583 C599 1.429 . S
C583 H605 0.950 . S
C584 H580 0.949 . S
C584 C592 1.574 1_554 S
C584 C600 1.368 . S
H585 C593 0.950 . S
H586 C591 0.950 . S
H587 C592 0.949 . S
H588 C594 0.950 . S
H589 C595 0.950 . S
H590 C596 0.949 . S
C591 H586 0.950 . S
C591 C593 1.327 . S
C591 C597 1.429 . S
C592 C584 1.574 1_556 S
C592 H587 0.949 . S
C592 C598 1.368 . S
C593 C577 1.349 . S
C593 H585 0.950 . S
C593 C591 1.327 . S
C594 C582 1.349 . S
C594 H588 0.950 . S
C594 C595 1.327 . S
C595 H589 0.950 . S
C595 C594 1.327 . S
C595 C599 1.429 . S
C596 C579 1.574 1_554 S
C596 H590 0.949 . S
C596 C600 1.368 . S
C597 C578 1.429 . S
C597 C591 1.429 . S
C597 C598 1.523 . S
C598 C579 1.368 . S
C598 C592 1.368 . S
C598 C597 1.523 . S
C599 C583 1.429 . S
C599 C595 1.429 . S
C599 C600 1.523 . S
C600 C584 1.368 . S
C600 C596 1.368 . S
C600 C599 1.523 . S
H601 C576 0.950 . S
H602 C578 0.950 . S
H603 C579 0.949 . S
H604 C581 0.950 . S
H605 C583 0.950 . S
C606 C607 1.349 . S
C606 C608 1.327 . S
C606 H631 0.950 . S
C607 C606 1.349 . S
C607 C623 1.349 . S
C608 C606 1.327 . S
C608 C627 1.429 . S
C608 H632 0.950 . S
C609 C626 1.574 . S
C609 C628 1.368 . S
C609 H633 0.949 . S
H610 C614 0.949 . S
C611 C612 1.349 . S
C611 C613 1.327 . S
C611 H634 0.950 . S
C612 C611 1.349 . S
C612 C624 1.349 . S
C613 C611 1.327 . S
C613 C629 1.429 . S
C613 H635 0.950 . S
C614 H610 0.949 . S
C614 C622 1.574 . S
C614 C630 1.368 . S
H615 C623 0.950 . S
H616 C621 0.950 . S
H617 C622 0.949 . S
H618 C624 0.950 . S
H619 C625 0.950 . S
H620 C626 0.949 . S
C621 H616 0.950 . S
C621 C623 1.327 . S
C621 C627 1.429 . S
C622 C614 1.574 . S
C622 H617 0.949 . S
C622 C628 1.368 . S
C623 C607 1.349 . S
C623 H615 0.950 . S
C623 C621 1.327 . S
C624 C612 1.349 . S
C624 H618 0.950 . S
C624 C625 1.327 . S
C625 H619 0.950 . S
C625 C624 1.327 . S
C625 C629 1.429 . S
C626 C609 1.574 . S
C626 H620 0.949 . S
C626 C630 1.368 . S
C627 C608 1.429 . S
C627 C621 1.429 . S
C627 C628 1.523 . S
C628 C609 1.368 . S
C628 C622 1.368 . S
C628 C627 1.523 . S
C629 C613 1.429 . S
C629 C625 1.429 . S
C629 C630 1.523 . S
C630 C614 1.368 . S
C630 C626 1.368 . S
C630 C629 1.523 . S
H631 C606 0.950 . S
H632 C608 0.950 . S
H633 C609 0.949 . S
H634 C611 0.950 . S
H635 C613 0.950 . S
C636 C637 1.349 . S
C636 C638 1.327 . S
C636 H661 0.950 . S
C637 C636 1.349 . S
C637 C653 1.349 . S
C638 C636 1.327 . S
C638 C657 1.429 . S
C638 H662 0.950 . S
C639 C656 1.574 1_554 S
C639 C658 1.368 . S
C639 H663 0.949 . S
H640 C644 0.949 . S
C641 C642 1.349 . S
C641 C643 1.327 . S
C641 H664 0.950 . S
C642 C641 1.349 . S
C642 C654 1.349 . S
C643 C641 1.327 . S
C643 C659 1.429 . S
C643 H665 0.950 . S
C644 H640 0.949 . S
C644 C652 1.574 1_556 S
C644 C660 1.368 . S
H645 C653 0.950 . S
H646 C651 0.950 . S
H647 C652 0.949 . S
H648 C654 0.950 . S
H649 C655 0.950 . S
H650 C656 0.949 . S
C651 H646 0.950 . S
C651 C653 1.327 . S
C651 C657 1.429 . S
C652 C644 1.574 1_554 S
C652 H647 0.949 . S
C652 C658 1.368 . S
C653 C637 1.349 . S
C653 H645 0.950 . S
C653 C651 1.327 . S
C654 C642 1.349 . S
C654 H648 0.950 . S
C654 C655 1.327 . S
C655 H649 0.950 . S
C655 C654 1.327 . S
C655 C659 1.429 . S
C656 C639 1.574 1_556 S
C656 H650 0.949 . S
C656 C660 1.368 . S
C657 C638 1.429 . S
C657 C651 1.429 . S
C657 C658 1.523 . S
C658 C639 1.368 . S
C658 C652 1.368 . S
C658 C657 1.523 . S
C659 C643 1.429 . S
C659 C655 1.429 . S
C659 C660 1.523 . S
C660 C644 1.368 . S
C660 C656 1.368 . S
C660 C659 1.523 . S
H661 C636 0.950 . S
H662 C638 0.950 . S
H663 C639 0.949 . S
H664 C641 0.950 . S
H665 C643 0.950 . S
C666 C667 1.349 . S
C666 C668 1.327 . S
C666 H691 0.950 . S
C667 C666 1.349 . S
C667 C683 1.349 . S
C668 C666 1.327 . S
C668 C687 1.429 . S
C668 H692 0.950 . S
C669 C686 1.574 . S
C669 C688 1.368 . S
C669 H693 0.949 . S
H670 C674 0.949 . S
C671 C672 1.349 . S
C671 C673 1.327 . S
C671 H694 0.950 . S
C672 C671 1.349 . S
C672 C684 1.349 . S
C673 C671 1.327 . S
C673 C689 1.429 . S
C673 H695 0.950 . S
C674 H670 0.949 . S
C674 C682 1.574 . S
C674 C690 1.368 . S
H675 C683 0.950 . S
H676 C681 0.950 . S
H677 C682 0.949 . S
H678 C684 0.950 . S
H679 C685 0.950 . S
H680 C686 0.949 . S
C681 H676 0.950 . S
C681 C683 1.327 . S
C681 C687 1.429 . S
C682 C674 1.574 . S
C682 H677 0.949 . S
C682 C688 1.368 . S
C683 C667 1.349 . S
C683 H675 0.950 . S
C683 C681 1.327 . S
C684 C672 1.349 . S
C684 H678 0.950 . S
C684 C685 1.327 . S
C685 H679 0.950 . S
C685 C684 1.327 . S
C685 C689 1.429 . S
C686 C669 1.574 . S
C686 H680 0.949 . S
C686 C690 1.368 . S
C687 C668 1.429 . S
C687 C681 1.429 . S
C687 C688 1.523 . S
C688 C669 1.368 . S
C688 C682 1.368 . S
C688 C687 1.523 . S
C689 C673 1.429 . S
C689 C685 1.429 . S
C689 C690 1.523 . S
C690 C674 1.368 . S
C690 C686 1.368 . S
C690 C689 1.523 . S
H691 C666 0.950 . S
H692 C668 0.950 . S
H693 C669 0.949 . S
H694 C671 0.950 . S
H695 C673 0.950 . S
C696 C697 1.349 . S
C696 C698 1.327 . S
C696 H721 0.950 . S
C697 C696 1.349 . S
C697 C713 1.349 . S
C698 C696 1.327 . S
C698 C717 1.429 . S
C698 H722 0.950 . S
C699 C716 1.574 1_556 S
C699 C718 1.368 . S
C699 H723 0.949 . S
H700 C704 0.949 . S
C701 C702 1.349 . S
C701 C703 1.327 . S
C701 H724 0.950 . S
C702 C701 1.349 . S
C702 C714 1.349 . S
C703 C701 1.327 . S
C703 C719 1.429 . S
C703 H725 0.950 . S
C704 H700 0.949 . S
C704 C712 1.574 1_554 S
C704 C720 1.368 . S
H705 C713 0.950 . S
H706 C711 0.950 . S
H707 C712 0.949 . S
H708 C714 0.950 . S
H709 C715 0.950 . S
H710 C716 0.949 . S
C711 H706 0.950 . S
C711 C713 1.327 . S
C711 C717 1.429 . S
C712 C704 1.574 1_556 S
C712 H707 0.949 . S
C712 C718 1.368 . S
C713 C697 1.349 . S
C713 H705 0.950 . S
C713 C711 1.327 . S
C714 C702 1.349 . S
C714 H708 0.950 . S
C714 C715 1.327 . S
C715 H709 0.950 . S
C715 C714 1.327 . S
C715 C719 1.429 . S
C716 C699 1.574 1_554 S
C716 H710 0.949 . S
C716 C720 1.368 . S
C717 C698 1.429 . S
C717 C711 1.429 . S
C717 C718 1.523 . S
C718 C699 1.368 . S
C718 C712 1.368 . S
C718 C717 1.523 . S
C719 C703 1.429 . S
C719 C715 1.429 . S
C719 C720 1.523 . S
C720 C704 1.368 . S
C720 C716 1.368 . S
C720 C719 1.523 . S
H721 C696 0.950 . S
H722 C698 0.950 . S
H723 C699 0.949 . S
H724 C701 0.950 . S
H725 C703 0.950 . S
C726 C727 1.349 . S
C726 C728 1.327 . S
C726 H751 0.950 . S
C727 C726 1.349 . S
C727 C743 1.349 . S
C728 C726 1.327 . S
C728 C747 1.429 . S
C728 H752 0.950 . S
C729 C746 1.574 . S
C729 C748 1.368 . S
C729 H753 0.949 . S
H730 C734 0.949 . S
C731 C732 1.349 . S
C731 C733 1.327 . S
C731 H754 0.950 . S
C732 C731 1.349 . S
C732 C744 1.349 . S
C733 C731 1.327 . S
C733 C749 1.429 . S
C733 H755 0.950 . S
C734 H730 0.949 . S
C734 C742 1.574 . S
C734 C750 1.368 . S
H735 C743 0.950 . S
H736 C741 0.950 . S
H737 C742 0.949 . S
H738 C744 0.950 . S
H739 C745 0.950 . S
H740 C746 0.949 . S
C741 H736 0.950 . S
C741 C743 1.327 . S
C741 C747 1.429 . S
C742 C734 1.574 . S
C742 H737 0.949 . S
C742 C748 1.368 . S
C743 C727 1.349 . S
C743 H735 0.950 . S
C743 C741 1.327 . S
C744 C732 1.349 . S
C744 H738 0.950 . S
C744 C745 1.327 . S
C745 H739 0.950 . S
C745 C744 1.327 . S
C745 C749 1.429 . S
C746 C729 1.574 . S
C746 H740 0.949 . S
C746 C750 1.368 . S
C747 C728 1.429 . S
C747 C741 1.429 . S
C747 C748 1.523 . S
C748 C729 1.368 . S
C748 C742 1.368 . S
C748 C747 1.523 . S
C749 C733 1.429 . S
C749 C745 1.429 . S
C749 C750 1.523 . S
C750 C734 1.368 . S
C750 C746 1.368 . S
C750 C749 1.523 . S
H751 C726 0.950 . S
H752 C728 0.950 . S
H753 C729 0.949 . S
H754 C731 0.950 . S
H755 C733 0.950 . S
C756 C757 1.349 . S
C756 C758 1.327 . S
C756 H781 0.950 . S
C757 C756 1.349 . S
C757 C773 1.349 . S
C758 C756 1.327 . S
C758 C777 1.429 . S
C758 H782 0.950 . S
C759 C776 1.574 1_554 S
C759 C778 1.368 . S
C759 H783 0.949 . S
H760 C764 0.949 . S
C761 C762 1.349 . S
C761 C763 1.327 . S
C761 H784 0.950 . S
C762 C761 1.349 . S
C762 C774 1.349 . S
C763 C761 1.327 . S
C763 C779 1.429 . S
C763 H785 0.950 . S
C764 H760 0.949 . S
C764 C772 1.574 1_556 S
C764 C780 1.368 . S
H765 C773 0.950 . S
H766 C771 0.950 . S
H767 C772 0.949 . S
H768 C774 0.950 . S
H769 C775 0.950 . S
H770 C776 0.949 . S
C771 H766 0.950 . S
C771 C773 1.327 . S
C771 C777 1.429 . S
C772 C764 1.574 1_554 S
C772 H767 0.949 . S
C772 C778 1.368 . S
C773 C757 1.349 . S
C773 H765 0.950 . S
C773 C771 1.327 . S
C774 C762 1.349 . S
C774 H768 0.950 . S
C774 C775 1.327 . S
C775 H769 0.950 . S
C775 C774 1.327 . S
C775 C779 1.429 . S
C776 C759 1.574 1_556 S
C776 H770 0.949 . S
C776 C780 1.368 . S
C777 C758 1.429 . S
C777 C771 1.429 . S
C777 C778 1.523 . S
C778 C759 1.368 . S
C778 C772 1.368 . S
C778 C777 1.523 . S
C779 C763 1.429 . S
C779 C775 1.429 . S
C779 C780 1.523 . S
C780 C764 1.368 . S
C780 C776 1.368 . S
C780 C779 1.523 . S
H781 C756 0.950 . S
H782 C758 0.950 . S
H783 C759 0.949 . S
H784 C761 0.950 . S
H785 C763 0.950 . S
C786 C787 1.349 . S
C786 C788 1.327 . S
C786 H811 0.950 . S
C787 C786 1.349 . S
C787 C803 1.349 . S
C788 C786 1.327 . S
C788 C807 1.429 . S
C788 H812 0.950 . S
C789 C806 1.574 . S
C789 C808 1.368 . S
C789 H813 0.949 . S
H790 C794 0.949 . S
C791 C792 1.349 . S
C791 C793 1.327 . S
C791 H814 0.950 . S
C792 C791 1.349 . S
C792 C804 1.349 . S
C793 C791 1.327 . S
C793 C809 1.429 . S
C793 H815 0.950 . S
C794 H790 0.949 . S
C794 C802 1.574 . S
C794 C810 1.368 . S
H795 C803 0.950 . S
H796 C801 0.950 . S
H797 C802 0.949 . S
H798 C804 0.950 . S
H799 C805 0.950 . S
H800 C806 0.949 . S
C801 H796 0.950 . S
C801 C803 1.327 . S
C801 C807 1.429 . S
C802 C794 1.574 . S
C802 H797 0.949 . S
C802 C808 1.368 . S
C803 C787 1.349 . S
C803 H795 0.950 . S
C803 C801 1.327 . S
C804 C792 1.349 . S
C804 H798 0.950 . S
C804 C805 1.327 . S
C805 H799 0.950 . S
C805 C804 1.327 . S
C805 C809 1.429 . S
C806 C789 1.574 . S
C806 H800 0.949 . S
C806 C810 1.368 . S
C807 C788 1.429 . S
C807 C801 1.429 . S
C807 C808 1.523 . S
C808 C789 1.368 . S
C808 C802 1.368 . S
C808 C807 1.523 . S
C809 C793 1.429 . S
C809 C805 1.429 . S
C809 C810 1.523 . S
C810 C794 1.368 . S
C810 C806 1.368 . S
C810 C809 1.523 . S
H811 C786 0.950 . S
H812 C788 0.950 . S
H813 C789 0.949 . S
H814 C791 0.950 . S
H815 C793 0.950 . S
C816 C817 1.349 . S
C816 C818 1.327 . S
C816 H841 0.950 . S
C817 C816 1.349 . S
C817 C833 1.349 . S
C818 C816 1.327 . S
C818 C837 1.429 . S
C818 H842 0.950 . S
C819 C836 1.574 1_556 S
C819 C838 1.368 . S
C819 H843 0.949 . S
H820 C824 0.949 . S
C821 C822 1.349 . S
C821 C823 1.327 . S
C821 H844 0.950 . S
C822 C821 1.349 . S
C822 C834 1.349 . S
C823 C821 1.327 . S
C823 C839 1.429 . S
C823 H845 0.950 . S
C824 H820 0.949 . S
C824 C832 1.574 1_554 S
C824 C840 1.368 . S
H825 C833 0.950 . S
H826 C831 0.950 . S
H827 C832 0.949 . S
H828 C834 0.950 . S
H829 C835 0.950 . S
H830 C836 0.949 . S
C831 H826 0.950 . S
C831 C833 1.327 . S
C831 C837 1.429 . S
C832 C824 1.574 1_556 S
C832 H827 0.949 . S
C832 C838 1.368 . S
C833 C817 1.349 . S
C833 H825 0.950 . S
C833 C831 1.327 . S
C834 C822 1.349 . S
C834 H828 0.950 . S
C834 C835 1.327 . S
C835 H829 0.950 . S
C835 C834 1.327 . S
C835 C839 1.429 . S
C836 C819 1.574 1_554 S
C836 H830 0.949 . S
C836 C840 1.368 . S
C837 C818 1.429 . S
C837 C831 1.429 . S
C837 C838 1.523 . S
C838 C819 1.368 . S
C838 C832 1.368 . S
C838 C837 1.523 . S
C839 C823 1.429 . S
C839 C835 1.429 . S
C839 C840 1.523 . S
C840 C824 1.368 . S
C840 C836 1.368 . S
C840 C839 1.523 . S
H841 C816 0.950 . S
H842 C818 0.950 . S
H843 C819 0.949 . S
H844 C821 0.950 . S
H845 C823 0.950 . S
C846 C847 1.349 . S
C846 C848 1.327 . S
C846 H871 0.950 . S
C847 C846 1.349 . S
C847 C863 1.349 . S
C848 C846 1.327 . S
C848 C867 1.429 . S
C848 H872 0.950 . S
C849 C866 1.574 . S
C849 C868 1.368 . S
C849 H873 0.949 . S
H850 C854 0.949 . S
C851 C852 1.349 . S
C851 C853 1.327 . S
C851 H874 0.950 . S
C852 C851 1.349 . S
C852 C864 1.349 . S
C853 C851 1.327 . S
C853 C869 1.429 . S
C853 H875 0.950 . S
C854 H850 0.949 . S
C854 C862 1.574 . S
C854 C870 1.368 . S
H855 C863 0.950 . S
H856 C861 0.950 . S
H857 C862 0.949 . S
H858 C864 0.950 . S
H859 C865 0.950 . S
H860 C866 0.949 . S
C861 H856 0.950 . S
C861 C863 1.327 . S
C861 C867 1.429 . S
C862 C854 1.574 . S
C862 H857 0.949 . S
C862 C868 1.368 . S
C863 C847 1.349 . S
C863 H855 0.950 . S
C863 C861 1.327 . S
C864 C852 1.349 . S
C864 H858 0.950 . S
C864 C865 1.327 . S
C865 H859 0.950 . S
C865 C864 1.327 . S
C865 C869 1.429 . S
C866 C849 1.574 . S
C866 H860 0.949 . S
C866 C870 1.368 . S
C867 C848 1.429 . S
C867 C861 1.429 . S
C867 C868 1.523 . S
C868 C849 1.368 . S
C868 C862 1.368 . S
C868 C867 1.523 . S
C869 C853 1.429 . S
C869 C865 1.429 . S
C869 C870 1.523 . S
C870 C854 1.368 . S
C870 C866 1.368 . S
C870 C869 1.523 . S
H871 C846 0.950 . S
H872 C848 0.950 . S
H873 C849 0.949 . S
H874 C851 0.950 . S
H875 C853 0.950 . S
C876 C877 1.349 . S
C876 C878 1.327 . S
C876 H901 0.950 . S
C877 C876 1.349 . S
C877 C893 1.349 . S
C878 C876 1.327 . S
C878 C897 1.429 . S
C878 H902 0.950 . S
C879 C896 1.574 1_556 S
C879 C898 1.368 . S
C879 H903 0.949 . S
H880 C884 0.949 . S
C881 C882 1.349 . S
C881 C883 1.327 . S
C881 H904 0.950 . S
C882 C881 1.349 . S
C882 C894 1.349 . S
C883 C881 1.327 . S
C883 C899 1.429 . S
C883 H905 0.950 . S
C884 H880 0.949 . S
C884 C892 1.574 1_554 S
C884 C900 1.368 . S
H885 C893 0.950 . S
H886 C891 0.950 . S
H887 C892 0.949 . S
H888 C894 0.950 . S
H889 C895 0.950 . S
H890 C896 0.949 . S
C891 H886 0.950 . S
C891 C893 1.327 . S
C891 C897 1.429 . S
C892 C884 1.574 1_556 S
C892 H887 0.949 . S
C892 C898 1.368 . S
C893 C877 1.349 . S
C893 H885 0.950 . S
C893 C891 1.327 . S
C894 C882 1.349 . S
C894 H888 0.950 . S
C894 C895 1.327 . S
C895 H889 0.950 . S
C895 C894 1.327 . S
C895 C899 1.429 . S
C896 C879 1.574 1_554 S
C896 H890 0.949 . S
C896 C900 1.368 . S
C897 C878 1.429 . S
C897 C891 1.429 . S
C897 C898 1.523 . S
C898 C879 1.368 . S
C898 C892 1.368 . S
C898 C897 1.523 . S
C899 C883 1.429 . S
C899 C895 1.429 . S
C899 C900 1.523 . S
C900 C884 1.368 . S
C900 C896 1.368 . S
C900 C899 1.523 . S
H901 C876 0.950 . S
H902 C878 0.950 . S
H903 C879 0.949 . S
H904 C881 0.950 . S
H905 C883 0.950 . S
C906 C907 1.349 . S
C906 C908 1.327 . S
C906 H931 0.950 . S
C907 C906 1.349 . S
C907 C923 1.349 . S
C908 C906 1.327 . S
C908 C927 1.429 . S
C908 H932 0.950 . S
C909 C926 1.574 . S
C909 C928 1.368 . S
C909 H933 0.949 . S
H910 C914 0.949 . S
C911 C912 1.349 . S
C911 C913 1.327 . S
C911 H934 0.950 . S
C912 C911 1.349 . S
C912 C924 1.349 . S
C913 C911 1.327 . S
C913 C929 1.429 . S
C913 H935 0.950 . S
C914 H910 0.949 . S
C914 C922 1.574 . S
C914 C930 1.368 . S
H915 C923 0.950 . S
H916 C921 0.950 . S
H917 C922 0.949 . S
H918 C924 0.950 . S
H919 C925 0.950 . S
H920 C926 0.949 . S
C921 H916 0.950 . S
C921 C923 1.327 . S
C921 C927 1.429 . S
C922 C914 1.574 . S
C922 H917 0.949 . S
C922 C928 1.368 . S
C923 C907 1.349 . S
C923 H915 0.950 . S
C923 C921 1.327 . S
C924 C912 1.349 . S
C924 H918 0.950 . S
C924 C925 1.327 . S
C925 H919 0.950 . S
C925 C924 1.327 . S
C925 C929 1.429 . S
C926 C909 1.574 . S
C926 H920 0.949 . S
C926 C930 1.368 . S
C927 C908 1.429 . S
C927 C921 1.429 . S
C927 C928 1.523 . S
C928 C909 1.368 . S
C928 C922 1.368 . S
C928 C927 1.523 . S
C929 C913 1.429 . S
C929 C925 1.429 . S
C929 C930 1.523 . S
C930 C914 1.368 . S
C930 C926 1.368 . S
C930 C929 1.523 . S
H931 C906 0.950 . S
H932 C908 0.950 . S
H933 C909 0.949 . S
H934 C911 0.950 . S
H935 C913 0.950 . S
C936 C937 1.349 . S
C936 C938 1.327 . S
C936 H961 0.950 . S
C937 C936 1.349 . S
C937 C953 1.349 . S
C938 C936 1.327 . S
C938 C957 1.429 . S
C938 H962 0.950 . S
C939 C956 1.574 . S
C939 C958 1.368 . S
C939 H963 0.949 . S
H940 C944 0.949 . S
C941 C942 1.349 . S
C941 C943 1.327 . S
C941 H964 0.950 . S
C942 C941 1.349 . S
C942 C954 1.349 . S
C943 C941 1.327 . S
C943 C959 1.429 . S
C943 H965 0.950 . S
C944 H940 0.949 . S
C944 C952 1.574 . S
C944 C960 1.368 . S
H945 C953 0.950 . S
H946 C951 0.950 . S
H947 C952 0.949 . S
H948 C954 0.950 . S
H949 C955 0.950 . S
H950 C956 0.949 . S
C951 H946 0.950 . S
C951 C953 1.327 . S
C951 C957 1.429 . S
C952 C944 1.574 . S
C952 H947 0.949 . S
C952 C958 1.368 . S
C953 C937 1.349 . S
C953 H945 0.950 . S
C953 C951 1.327 . S
C954 C942 1.349 . S
C954 H948 0.950 . S
C954 C955 1.327 . S
C955 H949 0.950 . S
C955 C954 1.327 . S
C955 C959 1.429 . S
C956 C939 1.574 . S
C956 H950 0.949 . S
C956 C960 1.368 . S
C957 C938 1.429 . S
C957 C951 1.429 . S
C957 C958 1.523 . S
C958 C939 1.368 . S
C958 C952 1.368 . S
C958 C957 1.523 . S
C959 C943 1.429 . S
C959 C955 1.429 . S
C959 C960 1.523 . S
C960 C944 1.368 . S
C960 C956 1.368 . S
C960 C959 1.523 . S
H961 C936 0.950 . S
H962 C938 0.950 . S
H963 C939 0.949 . S
H964 C941 0.950 . S
H965 C943 0.950 . S
C966 C967 1.349 . S
C966 C968 1.327 . S
C966 H991 0.950 . S
C967 C966 1.349 . S
C967 C983 1.349 . S
C968 C966 1.327 . S
C968 C987 1.429 . S
C968 H992 0.950 . S
C969 C986 1.574 . S
C969 C988 1.368 . S
C969 H993 0.949 . S
H970 C974 0.949 . S
C971 C972 1.349 . S
C971 C973 1.327 . S
C971 H994 0.950 . S
C972 C971 1.349 . S
C972 C984 1.349 . S
C973 C971 1.327 . S
C973 C989 1.429 . S
C973 H995 0.950 . S
C974 H970 0.949 . S
C974 C982 1.574 . S
C974 C990 1.368 . S
H975 C983 0.950 . S
H976 C981 0.950 . S
H977 C982 0.949 . S
H978 C984 0.950 . S
H979 C985 0.950 . S
H980 C986 0.949 . S
C981 H976 0.950 . S
C981 C983 1.327 . S
C981 C987 1.429 . S
C982 C974 1.574 . S
C982 H977 0.949 . S
C982 C988 1.368 . S
C983 C967 1.349 . S
C983 H975 0.950 . S
C983 C981 1.327 . S
C984 C972 1.349 . S
C984 H978 0.950 . S
C984 C985 1.327 . S
C985 H979 0.950 . S
C985 C984 1.327 . S
C985 C989 1.429 . S
C986 C969 1.574 . S
C986 H980 0.949 . S
C986 C990 1.368 . S
C987 C968 1.429 . S
C987 C981 1.429 . S
C987 C988 1.523 . S
C988 C969 1.368 . S
C988 C982 1.368 . S
C988 C987 1.523 . S
C989 C973 1.429 . S
C989 C985 1.429 . S
C989 C990 1.523 . S
C990 C974 1.368 . S
C990 C986 1.368 . S
C990 C989 1.523 . S
H991 C966 0.950 . S
H992 C968 0.950 . S
H993 C969 0.949 . S
H994 C971 0.950 . S
H995 C973 0.950 . S
C996 C997 1.349 . S
C996 C998 1.327 . S
C996 H1021 0.950 . S
C997 C996 1.349 . S
C997 C1013 1.349 . S
C998 C996 1.327 . S
C998 C1017 1.429 . S
C998 H1022 0.950 . S
C999 C1016 1.574 . S
C999 C1018 1.368 . S
C999 H1023 0.949 . S
H1000 C1004 0.949 . S
C1001 C1002 1.349 . S
C1001 C1003 1.327 . S
C1001 H1024 0.950 . S
C1002 C1001 1.349 . S
C1002 C1014 1.349 . S
C1003 C1001 1.327 . S
C1003 C1019 1.429 . S
C1003 H1025 0.950 . S
C1004 H1000 0.949 . S
C1004 C1012 1.574 . S
C1004 C1020 1.368 . S
H1005 C1013 0.950 . S
H1006 C1011 0.950 . S
H1007 C1012 0.949 . S
H1008 C1014 0.950 . S
H1009 C1015 0.950 . S
H1010 C1016 0.949 . S
C1011 H1006 0.950 . S
C1011 C1013 1.327 . S
C1011 C1017 1.429 . S
C1012 C1004 1.574 . S
C1012 H1007 0.949 . S
C1012 C1018 1.368 . S
C1013 C997 1.349 . S
C1013 H1005 0.950 . S
C1013 C1011 1.327 . S
C1014 C1002 1.349 . S
C1014 H1008 0.950 . S
C1014 C1015 1.327 . S
C1015 H1009 0.950 . S
C1015 C1014 1.327 . S
C1015 C1019 1.429 . S
C1016 C999 1.574 . S
C1016 H1010 0.949 . S
C1016 C1020 1.368 . S
C1017 C998 1.429 . S
C1017 C1011 1.429 . S
C1017 C1018 1.523 . S
C1018 C999 1.368 . S
C1018 C1012 1.368 . S
C1018 C1017 1.523 . S
C1019 C1003 1.429 . S
C1019 C1015 1.429 . S
C1019 C1020 1.523 . S
C1020 C1004 1.368 . S
C1020 C1016 1.368 . S
C1020 C1019 1.523 . S
H1021 C996 0.950 . S
H1022 C998 0.950 . S
H1023 C999 0.949 . S
H1024 C1001 0.950 . S
H1025 C1003 0.950 . S
C1026 C1027 1.349 . S
C1026 C1028 1.327 . S
C1026 H1051 0.950 . S
C1027 C1026 1.349 . S
C1027 C1043 1.349 . S
C1028 C1026 1.327 . S
C1028 C1047 1.429 . S
C1028 H1052 0.950 . S
C1029 C1046 1.574 . S
C1029 C1048 1.368 . S
C1029 H1053 0.949 . S
H1030 C1034 0.949 . S
C1031 C1032 1.349 . S
C1031 C1033 1.327 . S
C1031 H1054 0.950 . S
C1032 C1031 1.349 . S
C1032 C1044 1.349 . S
C1033 C1031 1.327 . S
C1033 C1049 1.429 . S
C1033 H1055 0.950 . S
C1034 H1030 0.949 . S
C1034 C1042 1.574 . S
C1034 C1050 1.368 . S
H1035 C1043 0.950 . S
H1036 C1041 0.950 . S
H1037 C1042 0.949 . S
H1038 C1044 0.950 . S
H1039 C1045 0.950 . S
H1040 C1046 0.949 . S
C1041 H1036 0.950 . S
C1041 C1043 1.327 . S
C1041 C1047 1.429 . S
C1042 C1034 1.574 . S
C1042 H1037 0.949 . S
C1042 C1048 1.368 . S
C1043 C1027 1.349 . S
C1043 H1035 0.950 . S
C1043 C1041 1.327 . S
C1044 C1032 1.349 . S
C1044 H1038 0.950 . S
C1044 C1045 1.327 . S
C1045 H1039 0.950 . S
C1045 C1044 1.327 . S
C1045 C1049 1.429 . S
C1046 C1029 1.574 . S
C1046 H1040 0.949 . S
C1046 C1050 1.368 . S
C1047 C1028 1.429 . S
C1047 C1041 1.429 . S
C1047 C1048 1.523 . S
C1048 C1029 1.368 . S
C1048 C1042 1.368 . S
C1048 C1047 1.523 . S
C1049 C1033 1.429 . S
C1049 C1045 1.429 . S
C1049 C1050 1.523 . S
C1050 C1034 1.368 . S
C1050 C1046 1.368 . S
C1050 C1049 1.523 . S
H1051 C1026 0.950 . S
H1052 C1028 0.950 . S
H1053 C1029 0.949 . S
H1054 C1031 0.950 . S
H1055 C1033 0.950 . S
C1056 C1057 1.349 . S
C1056 C1058 1.327 . S
C1056 H1081 0.950 . S
C1057 C1056 1.349 . S
C1057 C1073 1.349 . S
C1058 C1056 1.327 . S
C1058 C1077 1.429 . S
C1058 H1082 0.950 . S
C1059 C1076 1.574 . S
C1059 C1078 1.368 . S
C1059 H1083 0.949 . S
H1060 C1064 0.949 . S
C1061 C1062 1.349 . S
C1061 C1063 1.327 . S
C1061 H1084 0.950 . S
C1062 C1061 1.349 . S
C1062 C1074 1.349 . S
C1063 C1061 1.327 . S
C1063 C1079 1.429 . S
C1063 H1085 0.950 . S
C1064 H1060 0.949 . S
C1064 C1072 1.574 . S
C1064 C1080 1.368 . S
H1065 C1073 0.950 . S
H1066 C1071 0.950 . S
H1067 C1072 0.949 . S
H1068 C1074 0.950 . S
H1069 C1075 0.950 . S
H1070 C1076 0.949 . S
C1071 H1066 0.950 . S
C1071 C1073 1.327 . S
C1071 C1077 1.429 . S
C1072 C1064 1.574 . S
C1072 H1067 0.949 . S
C1072 C1078 1.368 . S
C1073 C1057 1.349 . S
C1073 H1065 0.950 . S
C1073 C1071 1.327 . S
C1074 C1062 1.349 . S
C1074 H1068 0.950 . S
C1074 C1075 1.327 . S
C1075 H1069 0.950 . S
C1075 C1074 1.327 . S
C1075 C1079 1.429 . S
C1076 C1059 1.574 . S
C1076 H1070 0.949 . S
C1076 C1080 1.368 . S
C1077 C1058 1.429 . S
C1077 C1071 1.429 . S
C1077 C1078 1.523 . S
C1078 C1059 1.368 . S
C1078 C1072 1.368 . S
C1078 C1077 1.523 . S
C1079 C1063 1.429 . S
C1079 C1075 1.429 . S
C1079 C1080 1.523 . S
C1080 C1064 1.368 . S
C1080 C1076 1.368 . S
C1080 C1079 1.523 . S
H1081 C1056 0.950 . S
H1082 C1058 0.950 . S
H1083 C1059 0.949 . S
H1084 C1061 0.950 . S
H1085 C1063 0.950 . S
C1086 C1087 1.349 . S
C1086 C1088 1.327 . S
C1086 H1111 0.950 . S
C1087 C1086 1.349 . S
C1087 C1103 1.349 . S
C1088 C1086 1.327 . S
C1088 C1107 1.429 . S
C1088 H1112 0.950 . S
C1089 C1106 1.574 . S
C1089 C1108 1.368 . S
C1089 H1113 0.949 . S
H1090 C1094 0.949 . S
C1091 C1092 1.349 . S
C1091 C1093 1.327 . S
C1091 H1114 0.950 . S
C1092 C1091 1.349 . S
C1092 C1104 1.349 . S
C1093 C1091 1.327 . S
C1093 C1109 1.429 . S
C1093 H1115 0.950 . S
C1094 H1090 0.949 . S
C1094 C1102 1.574 . S
C1094 C1110 1.368 . S
H1095 C1103 0.950 . S
H1096 C1101 0.950 . S
H1097 C1102 0.949 . S
H1098 C1104 0.950 . S
H1099 C1105 0.950 . S
H1100 C1106 0.949 . S
C1101 H1096 0.950 . S
C1101 C1103 1.327 . S
C1101 C1107 1.429 . S
C1102 C1094 1.574 . S
C1102 H1097 0.949 . S
C1102 C1108 1.368 . S
C1103 C1087 1.349 . S
C1103 H1095 0.950 . S
C1103 C1101 1.327 . S
C1104 C1092 1.349 . S
C1104 H1098 0.950 . S
C1104 C1105 1.327 . S
C1105 H1099 0.950 . S
C1105 C1104 1.327 . S
C1105 C1109 1.429 . S
C1106 C1089 1.574 . S
C1106 H1100 0.949 . S
C1106 C1110 1.368 . S
C1107 C1088 1.429 . S
C1107 C1101 1.429 . S
C1107 C1108 1.523 . S
C1108 C1089 1.368 . S
C1108 C1102 1.368 . S
C1108 C1107 1.523 . S
C1109 C1093 1.429 . S
C1109 C1105 1.429 . S
C1109 C1110 1.523 . S
C1110 C1094 1.368 . S
C1110 C1106 1.368 . S
C1110 C1109 1.523 . S
H1111 C1086 0.950 . S
H1112 C1088 0.950 . S
H1113 C1089 0.949 . S
H1114 C1091 0.950 . S
H1115 C1093 0.950 . S
C1116 C1117 1.349 . S
C1116 C1118 1.327 . S
C1116 H1141 0.950 . S
C1117 C1116 1.349 . S
C1117 C1133 1.349 . S
C1118 C1116 1.327 . S
C1118 C1137 1.429 . S
C1118 H1142 0.950 . S
C1119 C1136 1.574 . S
C1119 C1138 1.368 . S
C1119 H1143 0.949 . S
H1120 C1124 0.949 . S
C1121 C1122 1.349 . S
C1121 C1123 1.327 . S
C1121 H1144 0.950 . S
C1122 C1121 1.349 . S
C1122 C1134 1.349 . S
C1123 C1121 1.327 . S
C1123 C1139 1.429 . S
C1123 H1145 0.950 . S
C1124 H1120 0.949 . S
C1124 C1132 1.574 . S
C1124 C1140 1.368 . S
H1125 C1133 0.950 . S
H1126 C1131 0.950 . S
H1127 C1132 0.949 . S
H1128 C1134 0.950 . S
H1129 C1135 0.950 . S
H1130 C1136 0.949 . S
C1131 H1126 0.950 . S
C1131 C1133 1.327 . S
C1131 C1137 1.429 . S
C1132 C1124 1.574 . S
C1132 H1127 0.949 . S
C1132 C1138 1.368 . S
C1133 C1117 1.349 . S
C1133 H1125 0.950 . S
C1133 C1131 1.327 . S
C1134 C1122 1.349 . S
C1134 H1128 0.950 . S
C1134 C1135 1.327 . S
C1135 H1129 0.950 . S
C1135 C1134 1.327 . S
C1135 C1139 1.429 . S
C1136 C1119 1.574 . S
C1136 H1130 0.949 . S
C1136 C1140 1.368 . S
C1137 C1118 1.429 . S
C1137 C1131 1.429 . S
C1137 C1138 1.523 . S
C1138 C1119 1.368 . S
C1138 C1132 1.368 . S
C1138 C1137 1.523 . S
C1139 C1123 1.429 . S
C1139 C1135 1.429 . S
C1139 C1140 1.523 . S
C1140 C1124 1.368 . S
C1140 C1136 1.368 . S
C1140 C1139 1.523 . S
H1141 C1116 0.950 . S
H1142 C1118 0.950 . S
H1143 C1119 0.949 . S
H1144 C1121 0.950 . S
H1145 C1123 0.950 . S
C1146 C1147 1.349 . S
C1146 C1148 1.327 . S
C1146 H1171 0.950 . S
C1147 C1146 1.349 . S
C1147 C1163 1.349 . S
C1148 C1146 1.327 . S
C1148 C1167 1.429 . S
C1148 H1172 0.950 . S
C1149 C1166 1.574 . S
C1149 C1168 1.368 . S
C1149 H1173 0.949 . S
H1150 C1154 0.949 . S
C1151 C1152 1.349 . S
C1151 C1153 1.327 . S
C1151 H1174 0.950 . S
C1152 C1151 1.349 . S
C1152 C1164 1.349 . S
C1153 C1151 1.327 . S
C1153 C1169 1.429 . S
C1153 H1175 0.950 . S
C1154 H1150 0.949 . S
C1154 C1162 1.574 . S
C1154 C1170 1.368 . S
H1155 C1163 0.950 . S
H1156 C1161 0.950 . S
H1157 C1162 0.949 . S
H1158 C1164 0.950 . S
H1159 C1165 0.950 . S
H1160 C1166 0.949 . S
C1161 H1156 0.950 . S
C1161 C1163 1.327 . S
C1161 C1167 1.429 . S
C1162 C1154 1.574 . S
C1162 H1157 0.949 . S
C1162 C1168 1.368 . S
C1163 C1147 1.349 . S
C1163 H1155 0.950 . S
C1163 C1161 1.327 . S
C1164 C1152 1.349 . S
C1164 H1158 0.950 . S
C1164 C1165 1.327 . S
C1165 H1159 0.950 . S
C1165 C1164 1.327 . S
C1165 C1169 1.429 . S
C1166 C1149 1.574 . S
C1166 H1160 0.949 . S
C1166 C1170 1.368 . S
C1167 C1148 1.429 . S
C1167 C1161 1.429 . S
C1167 C1168 1.523 . S
C1168 C1149 1.368 . S
C1168 C1162 1.368 . S
C1168 C1167 1.523 . S
C1169 C1153 1.429 . S
C1169 C1165 1.429 . S
C1169 C1170 1.523 . S
C1170 C1154 1.368 . S
C1170 C1166 1.368 . S
C1170 C1169 1.523 . S
H1171 C1146 0.950 . S
H1172 C1148 0.950 . S
H1173 C1149 0.949 . S
H1174 C1151 0.950 . S
H1175 C1153 0.950 . S
C1176 C1177 1.349 . S
C1176 C1178 1.327 . S
C1176 H1201 0.950 . S
C1177 C1176 1.349 . S
C1177 C1193 1.349 . S
C1178 C1176 1.327 . S
C1178 C1197 1.429 . S
C1178 H1202 0.950 . S
C1179 C1196 1.574 . S
C1179 C1198 1.368 . S
C1179 H1203 0.949 . S
H1180 C1184 0.949 . S
C1181 C1182 1.349 . S
C1181 C1183 1.327 . S
C1181 H1204 0.950 . S
C1182 C1181 1.349 . S
C1182 C1194 1.349 . S
C1183 C1181 1.327 . S
C1183 C1199 1.429 . S
C1183 H1205 0.950 . S
C1184 H1180 0.949 . S
C1184 C1192 1.574 . S
C1184 C1200 1.368 . S
H1185 C1193 0.950 . S
H1186 C1191 0.950 . S
H1187 C1192 0.949 . S
H1188 C1194 0.950 . S
H1189 C1195 0.950 . S
H1190 C1196 0.949 . S
C1191 H1186 0.950 . S
C1191 C1193 1.327 . S
C1191 C1197 1.429 . S
C1192 C1184 1.574 . S
C1192 H1187 0.949 . S
C1192 C1198 1.368 . S
C1193 C1177 1.349 . S
C1193 H1185 0.950 . S
C1193 C1191 1.327 . S
C1194 C1182 1.349 . S
C1194 H1188 0.950 . S
C1194 C1195 1.327 . S
C1195 H1189 0.950 . S
C1195 C1194 1.327 . S
C1195 C1199 1.429 . S
C1196 C1179 1.574 . S
C1196 H1190 0.949 . S
C1196 C1200 1.368 . S
C1197 C1178 1.429 . S
C1197 C1191 1.429 . S
C1197 C1198 1.523 . S
C1198 C1179 1.368 . S
C1198 C1192 1.368 . S
C1198 C1197 1.523 . S
C1199 C1183 1.429 . S
C1199 C1195 1.429 . S
C1199 C1200 1.523 . S
C1200 C1184 1.368 . S
C1200 C1196 1.368 . S
C1200 C1199 1.523 . S
H1201 C1176 0.950 . S
H1202 C1178 0.950 . S
H1203 C1179 0.949 . S
H1204 C1181 0.950 . S
H1205 C1183 0.950 . S
C1206 C1207 1.349 . S
C1206 C1208 1.327 . S
C1206 H1231 0.950 . S
C1207 C1206 1.349 . S
C1207 C1223 1.349 . S
C1208 C1206 1.327 . S
C1208 C1227 1.429 . S
C1208 H1232 0.950 . S
C1209 C1226 1.574 . S
C1209 C1228 1.368 . S
C1209 H1233 0.949 . S
H1210 C1214 0.949 . S
C1211 C1212 1.349 . S
C1211 C1213 1.327 . S
C1211 H1234 0.950 . S
C1212 C1211 1.349 . S
C1212 C1224 1.349 . S
C1213 C1211 1.327 . S
C1213 C1229 1.429 . S
C1213 H1235 0.950 . S
C1214 H1210 0.949 . S
C1214 C1222 1.574 . S
C1214 C1230 1.368 . S
H1215 C1223 0.950 . S
H1216 C1221 0.950 . S
H1217 C1222 0.949 . S
H1218 C1224 0.950 . S
H1219 C1225 0.950 . S
H1220 C1226 0.949 . S
C1221 H1216 0.950 . S
C1221 C1223 1.327 . S
C1221 C1227 1.429 . S
C1222 C1214 1.574 . S
C1222 H1217 0.949 . S
C1222 C1228 1.368 . S
C1223 C1207 1.349 . S
C1223 H1215 0.950 . S
C1223 C1221 1.327 . S
C1224 C1212 1.349 . S
C1224 H1218 0.950 . S
C1224 C1225 1.327 . S
C1225 H1219 0.950 . S
C1225 C1224 1.327 . S
C1225 C1229 1.429 . S
C1226 C1209 1.574 . S
C1226 H1220 0.949 . S
C1226 C1230 1.368 . S
C1227 C1208 1.429 . S
C1227 C1221 1.429 . S
C1227 C1228 1.523 . S
C1228 C1209 1.368 . S
C1228 C1222 1.368 . S
C1228 C1227 1.523 . S
C1229 C1213 1.429 . S
C1229 C1225 1.429 . S
C1229 C1230 1.523 . S
C1230 C1214 1.368 . S
C1230 C1226 1.368 . S
C1230 C1229 1.523 . S
H1231 C1206 0.950 . S
H1232 C1208 0.950 . S
H1233 C1209 0.949 . S
H1234 C1211 0.950 . S
H1235 C1213 0.950 . S
C1236 C1237 1.349 . S
C1236 C1238 1.327 . S
C1236 H1261 0.950 . S
C1237 C1236 1.349 . S
C1237 C1253 1.349 . S
C1238 C1236 1.327 . S
C1238 C1257 1.429 . S
C1238 H1262 0.950 . S
C1239 C1256 1.574 . S
C1239 C1258 1.368 . S
C1239 H1263 0.949 . S
H1240 C1244 0.949 . S
C1241 C1242 1.349 . S
C1241 C1243 1.327 . S
C1241 H1264 0.950 . S
C1242 C1241 1.349 . S
C1242 C1254 1.349 . S
C1243 C1241 1.327 . S
C1243 C1259 1.429 . S
C1243 H1265 0.950 . S
C1244 H1240 0.949 . S
C1244 C1252 1.574 . S
C1244 C1260 1.368 . S
H1245 C1253 0.950 . S
H1246 C1251 0.950 . S
H1247 C1252 0.949 . S
H1248 C1254 0.950 . S
H1249 C1255 0.950 . S
H1250 C1256 0.949 . S
C1251 H1246 0.950 . S
C1251 C1253 1.327 . S
C1251 C1257 1.429 . S
C1252 C1244 1.574 . S
C1252 H1247 0.949 . S
C1252 C1258 1.368 . S
C1253 C1237 1.349 . S
C1253 H1245 0.950 . S
C1253 C1251 1.327 . S
C1254 C1242 1.349 . S
C1254 H1248 0.950 . S
C1254 C1255 1.327 . S
C1255 H1249 0.950 . S
C1255 C1254 1.327 . S
C1255 C1259 1.429 . S
C1256 C1239 1.574 . S
C1256 H1250 0.949 . S
C1256 C1260 1.368 . S
C1257 C1238 1.429 . S
C1257 C1251 1.429 . S
C1257 C1258 1.523 . S
C1258 C1239 1.368 . S
C1258 C1252 1.368 . S
C1258 C1257 1.523 . S
C1259 C1243 1.429 . S
C1259 C1255 1.429 . S
C1259 C1260 1.523 . S
C1260 C1244 1.368 . S
C1260 C1256 1.368 . S
C1260 C1259 1.523 . S
H1261 C1236 0.950 . S
H1262 C1238 0.950 . S
H1263 C1239 0.949 . S
H1264 C1241 0.950 . S
H1265 C1243 0.950 . S
C1266 C1267 1.349 . S
C1266 C1268 1.327 . S
C1266 H1291 0.950 . S
C1267 C1266 1.349 . S
C1267 C1283 1.349 . S
C1268 C1266 1.327 . S
C1268 C1287 1.429 . S
C1268 H1292 0.950 . S
C1269 C1286 1.574 . S
C1269 C1288 1.368 . S
C1269 H1293 0.949 . S
H1270 C1274 0.949 . S
C1271 C1272 1.349 . S
C1271 C1273 1.327 . S
C1271 H1294 0.950 . S
C1272 C1271 1.349 . S
C1272 C1284 1.349 . S
C1273 C1271 1.327 . S
C1273 C1289 1.429 . S
C1273 H1295 0.950 . S
C1274 H1270 0.949 . S
C1274 C1282 1.574 . S
C1274 C1290 1.368 . S
H1275 C1283 0.950 . S
H1276 C1281 0.950 . S
H1277 C1282 0.949 . S
H1278 C1284 0.950 . S
H1279 C1285 0.950 . S
H1280 C1286 0.949 . S
C1281 H1276 0.950 . S
C1281 C1283 1.327 . S
C1281 C1287 1.429 . S
C1282 C1274 1.574 . S
C1282 H1277 0.949 . S
C1282 C1288 1.368 . S
C1283 C1267 1.349 . S
C1283 H1275 0.950 . S
C1283 C1281 1.327 . S
C1284 C1272 1.349 . S
C1284 H1278 0.950 . S
C1284 C1285 1.327 . S
C1285 H1279 0.950 . S
C1285 C1284 1.327 . S
C1285 C1289 1.429 . S
C1286 C1269 1.574 . S
C1286 H1280 0.949 . S
C1286 C1290 1.368 . S
C1287 C1268 1.429 . S
C1287 C1281 1.429 . S
C1287 C1288 1.523 . S
C1288 C1269 1.368 . S
C1288 C1282 1.368 . S
C1288 C1287 1.523 . S
C1289 C1273 1.429 . S
C1289 C1285 1.429 . S
C1289 C1290 1.523 . S
C1290 C1274 1.368 . S
C1290 C1286 1.368 . S
C1290 C1289 1.523 . S
H1291 C1266 0.950 . S
H1292 C1268 0.950 . S
H1293 C1269 0.949 . S
H1294 C1271 0.950 . S
H1295 C1273 0.950 . S
C397 N302 1.685 . S
C402 N5 1.685 . S
C427 N38 1.685 . S
C432 N335 1.685 . S
C457 N368 1.685 . S
C462 N71 1.685 . S
C487 N104 1.685 . S
C492 N203 1.685 . S
C517 N137 1.685 . S
C522 N236 1.685 . S
C547 N269 1.685 . S
C552 N170 1.685 . S
C577 C347 0.836 . S
C582 C17 0.836 . S
C607 C380 0.836 . S
C612 C50 0.836 . S
C637 C83 0.836 . S
C642 C215 0.836 . S
C667 C248 0.836 . S
C672 C116 0.836 . S
C697 C281 0.836 . S
C702 C149 0.836 . S
C727 C182 0.836 . S
C732 C314 0.836 . S
C757 C259 1.444 . S
C762 C127 1.444 . S
C787 C292 1.444 . S
C792 C160 1.444 . S
C817 C193 1.444 . S
C822 C325 1.444 . S
C847 C28 1.444 . S
C852 C358 1.444 . S
C877 C61 1.444 . S
C882 C391 1.444 . S
C907 C226 1.444 . S
C912 C94 1.444 . S
C937 N14 1.407 . S
C942 C140 1.409 . S
C967 N47 1.407 . S
C972 C173 1.409 . S
C997 N80 1.407 . S
C1002 C8 1.409 . S
C1027 C41 1.409 . S
C1032 N113 1.407 . S
C1057 N146 1.407 . S
C1062 C74 1.409 . S
C1087 C107 1.409 . S
C1092 N179 1.407 . S
C1117 C272 1.409 . S
C1122 N212 1.407 . S
C1147 C305 1.409 . S
C1152 N245 1.407 . S
C1177 C338 1.409 . S
C1182 N278 1.407 . S
C1207 N311 1.407 . S
C1212 C371 1.409 . S
C1237 C206 1.409 . S
C1242 N344 1.407 . S
C1267 N377 1.407 . S
C1272 C239 1.409 . S
