# Generated by pormake.
# Topology whk, (6)-cn, num edge types: 1
# Building blocks:
#     Node 0, Type 0, BuildingBlock: OJICUG_clean_sbu_0, # of connection points: 6
#     Node 1, Type 0, BuildingBlock: OJICUG_clean_sbu_0, # of connection points: 6
#     Node 2, Type 0, BuildingBlock: OJICUG_clean_sbu_0, # of connection points: 6
#     Node 3, Type 0, BuildingBlock: OJICUG_clean_sbu_0, # of connection points: 6
#     Node 4, Type 0, BuildingBlock: OJICUG_clean_sbu_0, # of connection points: 6
#     Node 5, Type 0, BuildingBlock: OJICUG_clean_sbu_0, # of connection points: 6
#     Node 6, Type 0, BuildingBlock: OJICUG_clean_sbu_0, # of connection points: 6
#     Node 7, Type 0, BuildingBlock: OJICUG_clean_sbu_0, # of connection points: 6
#     Node 8, Type 0, BuildingBlock: OJICUG_clean_sbu_0, # of connection points: 6
#     Node 9, Type 0, BuildingBlock: OJICUG_clean_sbu_0, # of connection points: 6
#     Node 10, Type 0, BuildingBlock: OJICUG_clean_sbu_0, # of connection points: 6
#     Node 11, Type 0, BuildingBlock: OJICUG_clean_sbu_0, # of connection points: 6
#     Node 12, Type 0, BuildingBlock: OJICUG_clean_sbu_0, # of connection points: 6
#     Node 13, Type 0, BuildingBlock: OJICUG_clean_sbu_0, # of connection points: 6
#     Node 14, Type 0, BuildingBlock: OJICUG_clean_sbu_0, # of connection points: 6
#     Node 15, Type 0, BuildingBlock: OJICUG_clean_sbu_0, # of connection points: 6
#     Edge 16, Type (0, 0), BuildingBlock: AJUNOK_clean_linker_0, # of connection points: 2
#     Edge 17, Type (0, 0), BuildingBlock: AJUNOK_clean_linker_0, # of connection points: 2
#     Edge 18, Type (0, 0), BuildingBlock: AJUNOK_clean_linker_0, # of connection points: 2
#     Edge 19, Type (0, 0), BuildingBlock: AJUNOK_clean_linker_0, # of connection points: 2
#     Edge 20, Type (0, 0), BuildingBlock: AJUNOK_clean_linker_0, # of connection points: 2
#     Edge 21, Type (0, 0), BuildingBlock: AJUNOK_clean_linker_0, # of connection points: 2
#     Edge 22, Type (0, 0), BuildingBlock: AJUNOK_clean_linker_0, # of connection points: 2
#     Edge 23, Type (0, 0), BuildingBlock: AJUNOK_clean_linker_0, # of connection points: 2
#     Edge 24, Type (0, 0), BuildingBlock: AJUNOK_clean_linker_0, # of connection points: 2
#     Edge 25, Type (0, 0), BuildingBlock: AJUNOK_clean_linker_0, # of connection points: 2
#     Edge 26, Type (0, 0), BuildingBlock: AJUNOK_clean_linker_0, # of connection points: 2
#     Edge 27, Type (0, 0), BuildingBlock: AJUNOK_clean_linker_0, # of connection points: 2
#     Edge 28, Type (0, 0), BuildingBlock: AJUNOK_clean_linker_0, # of connection points: 2
#     Edge 29, Type (0, 0), BuildingBlock: AJUNOK_clean_linker_0, # of connection points: 2
#     Edge 30, Type (0, 0), BuildingBlock: AJUNOK_clean_linker_0, # of connection points: 2
#     Edge 31, Type (0, 0), BuildingBlock: AJUNOK_clean_linker_0, # of connection points: 2
#     Edge 32, Type (0, 0), BuildingBlock: AJUNOK_clean_linker_0, # of connection points: 2
#     Edge 33, Type (0, 0), BuildingBlock: AJUNOK_clean_linker_0, # of connection points: 2
#     Edge 34, Type (0, 0), BuildingBlock: AJUNOK_clean_linker_0, # of connection points: 2
#     Edge 35, Type (0, 0), BuildingBlock: AJUNOK_clean_linker_0, # of connection points: 2
#     Edge 36, Type (0, 0), BuildingBlock: AJUNOK_clean_linker_0, # of connection points: 2
#     Edge 37, Type (0, 0), BuildingBlock: AJUNOK_clean_linker_0, # of connection points: 2
#     Edge 38, Type (0, 0), BuildingBlock: AJUNOK_clean_linker_0, # of connection points: 2
#     Edge 39, Type (0, 0), BuildingBlock: AJUNOK_clean_linker_0, # of connection points: 2
#     Edge 40, Type (0, 0), BuildingBlock: AJUNOK_clean_linker_0, # of connection points: 2
#     Edge 41, Type (0, 0), BuildingBlock: AJUNOK_clean_linker_0, # of connection points: 2
#     Edge 42, Type (0, 0), BuildingBlock: AJUNOK_clean_linker_0, # of connection points: 2
#     Edge 43, Type (0, 0), BuildingBlock: AJUNOK_clean_linker_0, # of connection points: 2
#     Edge 44, Type (0, 0), BuildingBlock: AJUNOK_clean_linker_0, # of connection points: 2
#     Edge 45, Type (0, 0), BuildingBlock: AJUNOK_clean_linker_0, # of connection points: 2
#     Edge 46, Type (0, 0), BuildingBlock: AJUNOK_clean_linker_0, # of connection points: 2
#     Edge 47, Type (0, 0), BuildingBlock: AJUNOK_clean_linker_0, # of connection points: 2
#     Edge 48, Type (0, 0), BuildingBlock: AJUNOK_clean_linker_0, # of connection points: 2
#     Edge 49, Type (0, 0), BuildingBlock: AJUNOK_clean_linker_0, # of connection points: 2
#     Edge 50, Type (0, 0), BuildingBlock: AJUNOK_clean_linker_0, # of connection points: 2
#     Edge 51, Type (0, 0), BuildingBlock: AJUNOK_clean_linker_0, # of connection points: 2
#     Edge 52, Type (0, 0), BuildingBlock: AJUNOK_clean_linker_0, # of connection points: 2
#     Edge 53, Type (0, 0), BuildingBlock: AJUNOK_clean_linker_0, # of connection points: 2
#     Edge 54, Type (0, 0), BuildingBlock: AJUNOK_clean_linker_0, # of connection points: 2
#     Edge 55, Type (0, 0), BuildingBlock: AJUNOK_clean_linker_0, # of connection points: 2
#     Edge 56, Type (0, 0), BuildingBlock: AJUNOK_clean_linker_0, # of connection points: 2
#     Edge 57, Type (0, 0), BuildingBlock: AJUNOK_clean_linker_0, # of connection points: 2
#     Edge 58, Type (0, 0), BuildingBlock: AJUNOK_clean_linker_0, # of connection points: 2
#     Edge 59, Type (0, 0), BuildingBlock: AJUNOK_clean_linker_0, # of connection points: 2
#     Edge 60, Type (0, 0), BuildingBlock: AJUNOK_clean_linker_0, # of connection points: 2
#     Edge 61, Type (0, 0), BuildingBlock: AJUNOK_clean_linker_0, # of connection points: 2
#     Edge 62, Type (0, 0), BuildingBlock: AJUNOK_clean_linker_0, # of connection points: 2
#     Edge 63, Type (0, 0), BuildingBlock: AJUNOK_clean_linker_0, # of connection points: 2
# Relax obj value: 0.277
# Max RMSD: 0.215
# Mean RMSD: 0.215
data_MOF--net-whk--node1-OJICUG_clean_sbu_0--edge1-AJUNOK_clean_linker_0
_symmetry_space_group_name_H-M    P1
_symmetry_Int_Tables_number       1
_symmetry_cell_setting            triclinic
loop_
_symmetry_equiv_pos_as_xyz
'x, y, z'
_cell_length_a     27.83273
_cell_length_b     27.81658
_cell_length_c     40.220634
_cell_angle_alpha  90.095287
_cell_angle_beta   90.261083
_cell_angle_gamma 90.148191
loop_
_atom_site_label
_atom_site_type_symbol
_atom_site_fract_x
_atom_site_fract_y
_atom_site_fract_z
_atom_type_partial_charge
Sc0 Sc 0.56954 0.13493 0.40637 0.0
Sc1 Sc 0.5896 0.25597 0.38576 0.0
Sc2 Sc 0.49985 0.22314 0.44172 0.0
O3 O 0.55189 0.20533 0.41002 0.0
C4 C 0.45948 0.13302 0.39842 0.0
C5 C 0.60176 0.17178 0.33426 0.0
C6 C 0.48251 0.29855 0.38365 0.0
C7 C 0.66537 0.18715 0.42139 0.0
C8 C 0.54694 0.13867 0.48108 0.0
C9 C 0.57422 0.309 0.45531 0.0
O10 O 0.49974 0.12032 0.38623 0.0
O11 O 0.59088 0.21585 0.33893 0.0
O12 O 0.46684 0.27015 0.40605 0.0
O13 O 0.63831 0.15145 0.42782 0.0
O14 O 0.53399 0.18225 0.48105 0.0
O15 O 0.59766 0.30199 0.42875 0.0
O16 O 0.54413 0.11405 0.45474 0.0
O17 O 0.65442 0.22128 0.40158 0.0
O18 O 0.53763 0.28385 0.46284 0.0
O19 O 0.59874 0.14059 0.35708 0.0
O20 O 0.45586 0.16394 0.42202 0.0
O21 O 0.52539 0.29659 0.37223 0.0
Sc22 Sc 0.35556 0.58317 0.40544 0.0
Sc23 Sc 0.23429 0.58521 0.38198 0.0
Sc24 Sc 0.27534 0.5023 0.44125 0.0
O25 O 0.28818 0.55614 0.4091 0.0
C26 C 0.37124 0.47075 0.40192 0.0
C27 C 0.31715 0.59812 0.33059 0.0
C28 C 0.19868 0.4759 0.38591 0.0
C29 C 0.29404 0.67603 0.40688 0.0
C30 C 0.35431 0.55938 0.48222 0.0
C31 C 0.18575 0.57158 0.45344 0.0
O32 O 0.38227 0.51271 0.39143 0.0
O33 O 0.2746 0.58178 0.33517 0.0
O34 O 0.23057 0.46325 0.40689 0.0
O35 O 0.32974 0.6539 0.41954 0.0
O36 O 0.31464 0.53699 0.4812 0.0
O37 O 0.19051 0.59493 0.42633 0.0
O38 O 0.37631 0.57174 0.45616 0.0
O39 O 0.26185 0.65578 0.38934 0.0
O40 O 0.21274 0.53656 0.46137 0.0
O41 O 0.34717 0.60205 0.35422 0.0
O42 O 0.33683 0.46315 0.42225 0.0
O43 O 0.19737 0.51789 0.37341 0.0
Sc44 Sc 0.91261 0.35321 0.41128 0.0
Sc45 Sc 0.91879 0.23766 0.38073 0.0
Sc46 Sc 0.98978 0.27381 0.44842 0.0
O47 O 0.94303 0.28794 0.41239 0.0
C48 C 0.02256 0.37158 0.4115 0.0
C49 C 0.90552 0.32299 0.3344 0.0
C50 C 0.02783 0.20555 0.39125 0.0
C51 C 0.8323 0.28024 0.41189 0.0
C52 C 0.9269 0.34822 0.48731 0.0
C53 C 0.92233 0.1805 0.44979 0.0
O54 O 0.98217 0.38094 0.39745 0.0
O55 O 0.93009 0.28437 0.33766 0.0
O56 O 0.03589 0.23524 0.41484 0.0
O57 O 0.84711 0.31713 0.42785 0.0
O58 O 0.94505 0.30648 0.48696 0.0
O59 O 0.90204 0.18871 0.42177 0.0
O60 O 0.92807 0.37392 0.46154 0.0
O61 O 0.85027 0.27039 0.384 0.0
O62 O 0.95573 0.20696 0.46164 0.0
O63 O 0.89206 0.34717 0.35953 0.0
O64 O 0.02731 0.33999 0.43462 0.0
O65 O 0.98744 0.20256 0.37628 0.0
Sc66 Sc 0.22844 0.98541 0.44233 0.0
Sc67 Sc 0.25954 0.90617 0.37617 0.0
Sc68 Sc 0.13435 0.9203 0.40959 0.0
O69 O 0.20807 0.93732 0.40788 0.0
C70 C 0.1498 0.93676 0.48438 0.0
C71 C 0.32066 0.91509 0.44277 0.0
C72 C 0.19608 0.8522 0.42394 0.0
C73 C 0.29149 0.01805 0.38157 0.0
C74 C 0.13498 0.03034 0.40733 0.0
C75 C 0.16297 0.89553 0.33382 0.0
O76 O 0.19428 0.94489 0.48138 0.0
O77 O 0.31332 0.89528 0.4146 0.0
O78 O 0.1515 0.84873 0.42831 0.0
O79 O 0.26688 0.02754 0.40723 0.0
O80 O 0.12072 0.99208 0.39263 0.0
O81 O 0.20646 0.91115 0.33526 0.0
O82 O 0.16567 0.02964 0.43117 0.0
O83 O 0.29163 0.97672 0.36765 0.0
O84 O 0.13598 0.89353 0.35924 0.0
O85 O 0.29326 0.94716 0.45494 0.0
O86 O 0.1217 0.94367 0.46005 0.0
O87 O 0.20945 0.89399 0.41417 0.0
Sc88 Sc 0.07855 0.85187 0.1293 0.0
Sc89 Sc 0.07274 0.73688 0.16065 0.0
Sc90 Sc 0.00088 0.77119 0.09336 0.0
O91 O 0.04834 0.78636 0.12881 0.0
C92 C 0.9686 0.86919 0.12916 0.0
C93 C 0.08576 0.82378 0.20644 0.0
C94 C 0.96295 0.70549 0.15144 0.0
C95 C 0.15965 0.77984 0.12916 0.0
C96 C 0.06465 0.84311 0.05352 0.0
C97 C 0.0675 0.67741 0.09248 0.0
O98 O 0.00886 0.87934 0.14321 0.0
O99 O 0.06174 0.78463 0.20326 0.0
O100 O 0.95443 0.73509 0.12799 0.0
O101 O 0.14433 0.81626 0.11308 0.0
O102 O 0.0462 0.80147 0.05441 0.0
O103 O 0.089 0.6866 0.12 0.0
O104 O 0.06255 0.87022 0.07866 0.0
O105 O 0.14145 0.76949 0.15693 0.0
O106 O 0.03358 0.70353 0.08128 0.0
O107 O 0.09952 0.84743 0.18114 0.0
O108 O 0.96446 0.83826 0.10556 0.0
O109 O 0.00388 0.70219 0.16563 0.0
Sc110 Sc 0.71923 0.00598 0.09504 0.0
Sc111 Sc 0.76368 0.08437 0.15682 0.0
Sc112 Sc 0.63999 0.08347 0.13598 0.0
O113 O 0.70775 0.05756 0.12971 0.0
C114 C 0.63842 0.06672 0.05748 0.0
C115 C 0.81029 0.07229 0.08385 0.0
C116 C 0.7047 0.17611 0.13372 0.0
C117 C 0.79554 0.97612 0.1518 0.0
C118 C 0.62615 0.9698 0.13522 0.0
C119 C 0.67977 0.09492 0.21062 0.0
O120 O 0.67462 0.03914 0.05707 0.0
O121 O 0.81028 0.08892 0.11342 0.0
O122 O 0.66454 0.15612 0.12727 0.0
O123 O 0.76961 0.96848 0.12617 0.0
O124 O 0.6131 0.01146 0.14495 0.0
O125 O 0.72412 0.0881 0.20397 0.0
O126 O 0.66178 0.96312 0.11586 0.0
O127 O 0.79399 0.01506 0.16846 0.0
O128 O 0.64724 0.09332 0.18853 0.0
O129 O 0.77814 0.04375 0.07297 0.0
O130 O 0.62055 0.08171 0.08442 0.0
O131 O 0.74087 0.15476 0.14583 0.0
Sc132 Sc 0.49838 0.7219 0.09915 0.0
Sc133 Sc 0.41015 0.75472 0.15582 0.0
Sc134 Sc 0.42509 0.63531 0.13234 0.0
O135 O 0.44587 0.70468 0.13033 0.0
C136 C 0.44843 0.64051 0.05894 0.0
C137 C 0.42489 0.80856 0.08686 0.0
C138 C 0.33218 0.69062 0.11898 0.0
C139 C 0.51811 0.7959 0.15711 0.0
C140 C 0.53443 0.62938 0.14132 0.0
C141 C 0.39356 0.6708 0.20462 0.0
O142 O 0.46218 0.68384 0.05934 0.0
O143 O 0.40063 0.80049 0.11296 0.0
O144 O 0.35836 0.6557 0.10964 0.0
O145 O 0.53367 0.766 0.13565 0.0
O146 O 0.49364 0.61852 0.15372 0.0
O147 O 0.4122 0.71263 0.20172 0.0
O148 O 0.53932 0.66024 0.1178 0.0
O149 O 0.47499 0.79514 0.16803 0.0
O150 O 0.39218 0.64154 0.18046 0.0
O151 O 0.46229 0.78448 0.07963 0.0
O152 O 0.45327 0.61524 0.08471 0.0
O153 O 0.34402 0.72044 0.14176 0.0
Sc154 Sc 0.76902 0.48105 0.09643 0.0
Sc155 Sc 0.73607 0.40211 0.16197 0.0
Sc156 Sc 0.86293 0.41919 0.13232 0.0
O157 O 0.78866 0.43438 0.13176 0.0
C158 C 0.85129 0.4333 0.05702 0.0
C159 C 0.67815 0.40817 0.09371 0.0
C160 C 0.80367 0.35001 0.11651 0.0
C161 C 0.70208 0.51285 0.1555 0.0
C162 C 0.85913 0.52898 0.13416 0.0
C163 C 0.8303 0.39555 0.20731 0.0
O164 O 0.80655 0.44071 0.05876 0.0
O165 O 0.6841 0.38941 0.12233 0.0
O166 O 0.84854 0.34707 0.11381 0.0
O167 O 0.72717 0.5225 0.13007 0.0
O168 O 0.87366 0.49128 0.14915 0.0
O169 O 0.78661 0.40966 0.2041 0.0
O170 O 0.82992 0.52738 0.10943 0.0
O171 O 0.70283 0.47193 0.16981 0.0
O172 O 0.8591 0.39337 0.18285 0.0
O173 O 0.70587 0.44059 0.08215 0.0
O174 O 0.87795 0.44166 0.08195 0.0
O175 O 0.78879 0.39176 0.12531 0.0
Sc176 Sc 0.49107 0.77285 0.59455 0.0
Sc177 Sc 0.40653 0.74172 0.65499 0.0
Sc178 Sc 0.41337 0.85924 0.62522 0.0
O179 O 0.43756 0.79088 0.62528 0.0
C180 C 0.52512 0.87054 0.63069 0.0
C181 C 0.51521 0.70551 0.6556 0.0
C182 C 0.39361 0.83032 0.70094 0.0
C183 C 0.42015 0.68275 0.58762 0.0
C184 C 0.43953 0.84901 0.54936 0.0
C185 C 0.31952 0.80055 0.62383 0.0
O186 O 0.53138 0.836 0.61011 0.0
O187 O 0.47264 0.70522 0.66702 0.0
O188 O 0.38976 0.85736 0.6758 0.0
O189 O 0.45581 0.70801 0.57832 0.0
O190 O 0.43051 0.87503 0.57437 0.0
O191 O 0.33758 0.77071 0.6442 0.0
O192 O 0.45724 0.80734 0.55234 0.0
O193 O 0.39627 0.69193 0.61385 0.0
O194 O 0.34318 0.83406 0.60974 0.0
O195 O 0.52849 0.7331 0.63218 0.0
O196 O 0.48368 0.88312 0.64105 0.0
O197 O 0.41099 0.78794 0.69886 0.0
Sc198 Sc 0.63495 0.42179 0.63504 0.0
Sc199 Sc 0.75133 0.42101 0.6647 0.0
Sc200 Sc 0.71774 0.49789 0.60025 0.0
O201 O 0.70152 0.4498 0.63468 0.0
C202 C 0.64073 0.43931 0.55961 0.0
C203 C 0.70314 0.33794 0.6342 0.0
C204 C 0.80456 0.42349 0.59398 0.0
C205 C 0.66613 0.41209 0.71161 0.0
C206 C 0.62164 0.5325 0.6376 0.0
C207 C 0.7906 0.52847 0.65649 0.0
O208 O 0.61481 0.43914 0.58518 0.0
O209 O 0.71237 0.35583 0.66207 0.0
O210 O 0.7817 0.46105 0.58526 0.0
O211 O 0.64055 0.40103 0.68646 0.0
O212 O 0.65402 0.53744 0.61522 0.0
O213 O 0.79248 0.4866 0.66925 0.0
O214 O 0.60962 0.49177 0.64999 0.0
O215 O 0.70674 0.4338 0.70872 0.0
O216 O 0.75874 0.54036 0.63517 0.0
O217 O 0.66802 0.35476 0.61744 0.0
O218 O 0.68281 0.45669 0.56077 0.0
O219 O 0.79625 0.40189 0.62149 0.0
Sc220 Sc 0.08016 0.63504 0.6385 0.0
Sc221 Sc 0.08961 0.76641 0.66262 0.0
Sc222 Sc 0.01244 0.72243 0.59864 0.0
O223 O 0.06078 0.70841 0.63464 0.0
C224 C 0.06576 0.63922 0.56178 0.0
C225 C 0.14772 0.69668 0.62263 0.0
C226 C 0.08051 0.81517 0.59112 0.0
C227 C 0.10022 0.67671 0.71278 0.0
C228 C 0.96904 0.63147 0.63846 0.0
C229 C 0.97831 0.79467 0.65508 0.0
O230 O 0.06387 0.61377 0.58784 0.0
O231 O 0.10524 0.71021 0.63005 0.0
O232 O 0.05061 0.78413 0.58039 0.0
O233 O 0.10044 0.64487 0.68997 0.0
O234 O 0.96811 0.66207 0.61469 0.0
O235 O 0.01835 0.79574 0.67065 0.0
O236 O 0.00781 0.61942 0.65325 0.0
O237 O 0.08976 0.721 0.70754 0.0
O238 O 0.97061 0.76763 0.63011 0.0
O239 O 0.15274 0.65187 0.62188 0.0
O240 O 0.05251 0.68263 0.56219 0.0
O241 O 0.09748 0.81441 0.62056 0.0
Sc242 Sc 0.85644 0.07551 0.62972 0.0
Sc243 Sc 0.73407 0.08568 0.65137 0.0
Sc244 Sc 0.77108 0.00091 0.59224 0.0
O245 O 0.78697 0.05337 0.62515 0.0
C246 C 0.85391 0.05362 0.55245 0.0
C247 C 0.79605 0.16886 0.61837 0.0
C248 C 0.68131 0.06919 0.58086 0.0
C249 C 0.82021 0.09882 0.70386 0.0
C250 C 0.86368 0.96304 0.63345 0.0
C251 C 0.69822 0.97796 0.65197 0.0
O252 O 0.87673 0.06319 0.57892 0.0
O253 O 0.76022 0.15274 0.63438 0.0
O254 O 0.71095 0.03805 0.57039 0.0
O255 O 0.85178 0.09436 0.6815 0.0
O256 O 0.82945 0.95761 0.61239 0.0
O257 O 0.70175 0.01854 0.66669 0.0
O258 O 0.87733 0.00415 0.64391 0.0
O259 O 0.77552 0.09262 0.69787 0.0
O260 O 0.72275 0.9668 0.62641 0.0
O261 O 0.83564 0.14669 0.61475 0.0
O262 O 0.81312 0.0333 0.5529 0.0
O263 O 0.68484 0.08842 0.60946 0.0
Sc264 Sc 0.92167 0.13488 0.90459 0.0
Sc265 Sc 0.91007 0.25616 0.88244 0.0
Sc266 Sc 0.99321 0.21981 0.94267 0.0
O267 O 0.94272 0.20418 0.90878 0.0
C268 C 0.93998 0.13831 0.98072 0.0
C269 C 0.82915 0.19361 0.91646 0.0
C270 C 0.92389 0.30923 0.9526 0.0
C271 C 0.8968 0.17161 0.83061 0.0
C272 C 0.03175 0.12894 0.90137 0.0
C273 C 0.01966 0.29092 0.88367 0.0
O274 O 0.94159 0.11353 0.95436 0.0
O275 O 0.84264 0.22598 0.89611 0.0
O276 O 0.95822 0.28249 0.9619 0.0
O277 O 0.89675 0.14078 0.85381 0.0
O278 O 0.03448 0.1585 0.92571 0.0
O279 O 0.97758 0.29154 0.87067 0.0
O280 O 0.99213 0.11724 0.88744 0.0
O281 O 0.90891 0.21537 0.83565 0.0
O282 O 0.03134 0.26367 0.90784 0.0
O283 O 0.85287 0.1558 0.92327 0.0
O284 O 0.95489 0.18131 0.98092 0.0
O285 O 0.90202 0.30324 0.92509 0.0
Sc286 Sc 0.35774 0.91425 0.90442 0.0
Sc287 Sc 0.24078 0.91284 0.87596 0.0
Sc288 Sc 0.27575 0.9893 0.94077 0.0
O289 O 0.2912 0.94158 0.90586 0.0
C290 C 0.35376 0.93156 0.98053 0.0
C291 C 0.28951 0.82979 0.90507 0.0
C292 C 0.18925 0.91447 0.94721 0.0
C293 C 0.32472 0.90666 0.82787 0.0
C294 C 0.37077 0.02543 0.90336 0.0
C295 C 0.20349 0.02013 0.88416 0.0
O296 O 0.37871 0.9298 0.95448 0.0
O297 O 0.2801 0.84795 0.8774 0.0
O298 O 0.21222 0.95207 0.95594 0.0
O299 O 0.35101 0.89516 0.85257 0.0
O300 O 0.33897 0.02941 0.92612 0.0
O301 O 0.20014 0.97812 0.87177 0.0
O302 O 0.38274 0.98509 0.89028 0.0
O303 O 0.28391 0.92724 0.83184 0.0
O304 O 0.23472 0.03144 0.9061 0.0
O305 O 0.32492 0.84666 0.92163 0.0
O306 O 0.31169 0.94882 0.97987 0.0
O307 O 0.19676 0.8932 0.91944 0.0
Sc308 Sc 0.57678 0.35823 0.91185 0.0
Sc309 Sc 0.57905 0.24382 0.87902 0.0
Sc310 Sc 0.49698 0.27299 0.94101 0.0
O311 O 0.54842 0.29174 0.90959 0.0
C312 C 0.55303 0.34609 0.98741 0.0
C313 C 0.66126 0.29101 0.91029 0.0
C314 C 0.57107 0.18592 0.94769 0.0
C315 C 0.58575 0.33221 0.83393 0.0
C316 C 0.46537 0.37289 0.90736 0.0
C317 C 0.47272 0.20253 0.88263 0.0
O318 O 0.56121 0.373 0.96281 0.0
O319 O 0.64286 0.28442 0.88236 0.0
O320 O 0.53233 0.20769 0.955 0.0
O321 O 0.59607 0.35677 0.8598 0.0
O322 O 0.4585 0.3375 0.92712 0.0
O323 O 0.51575 0.20062 0.87233 0.0
O324 O 0.50709 0.38628 0.89758 0.0
O325 O 0.5664 0.29024 0.83598 0.0
O326 O 0.45822 0.23509 0.9025 0.0
O327 O 0.64423 0.32419 0.92854 0.0
O328 O 0.53316 0.30529 0.98379 0.0
O329 O 0.59626 0.19741 0.92222 0.0
Sc330 Sc 0.22008 0.50055 0.94939 0.0
Sc331 Sc 0.25578 0.58747 0.89171 0.0
Sc332 Sc 0.13351 0.57318 0.91214 0.0
O333 O 0.20338 0.55299 0.91697 0.0
C334 C 0.12955 0.46111 0.90632 0.0
C335 C 0.29362 0.48083 0.88945 0.0
C336 C 0.17103 0.60047 0.83914 0.0
C337 C 0.30751 0.57179 0.96227 0.0
C338 C 0.13514 0.5498 0.98883 0.0
C339 C 0.19113 0.66782 0.92575 0.0
O340 O 0.16289 0.45628 0.92812 0.0
O341 O 0.29022 0.52203 0.87573 0.0
O342 O 0.13894 0.59528 0.86105 0.0
O343 O 0.27897 0.53919 0.97228 0.0
O344 O 0.11209 0.55695 0.96212 0.0
O345 O 0.22723 0.65321 0.90934 0.0
O346 O 0.1767 0.53134 0.98863 0.0
O347 O 0.30385 0.59069 0.9337 0.0
O348 O 0.15219 0.64424 0.92922 0.0
O349 O 0.26944 0.4684 0.9149 0.0
O350 O 0.1151 0.50191 0.89595 0.0
O351 O 0.21546 0.59383 0.84526 0.0
C352 C 0.59844 0.11702 0.28488 0.0
C353 C 0.62132 0.15492 0.30193 0.0
C354 C 0.61886 0.09628 0.25633 0.0
C355 C 0.664 0.11123 0.24425 0.0
H356 H 0.56422 0.10344 0.29361 0.0
H357 H 0.59885 0.06848 0.24336 0.0
S358 S 0.74047 0.2068 0.28163 0.0
N359 N 0.69253 0.20521 0.30571 0.0
N360 N 0.73155 0.16563 0.25254 0.0
C361 C 0.68801 0.14813 0.26177 0.0
C362 C 0.66655 0.17008 0.29043 0.0
C363 C 0.3897 0.66975 0.26716 0.0
C364 C 0.37127 0.65457 0.23641 0.0
C365 C 0.3714 0.65137 0.29707 0.0
C366 C 0.33332 0.61742 0.29774 0.0
H367 H 0.4194 0.69497 0.26816 0.0
H368 H 0.3876 0.66404 0.32002 0.0
S369 S 0.26881 0.57001 0.22385 0.0
N370 N 0.31024 0.60607 0.20833 0.0
N371 N 0.2758 0.57222 0.26463 0.0
C372 C 0.31314 0.60357 0.26718 0.0
C373 C 0.33216 0.62186 0.23659 0.0
C374 C 0.91348 0.33853 0.27269 0.0
C375 C 0.88551 0.33834 0.30159 0.0
C376 C 0.89552 0.35779 0.24271 0.0
C377 C 0.84857 0.37727 0.24017 0.0
H378 H 0.9499 0.32491 0.27343 0.0
H379 H 0.91895 0.35727 0.22129 0.0
S380 S 0.75933 0.38103 0.30846 0.0
N381 N 0.80746 0.35662 0.32551 0.0
N382 N 0.77389 0.3922 0.2695 0.0
C383 C 0.81989 0.37595 0.26885 0.0
C384 C 0.83826 0.35666 0.29936 0.0
C385 C 0.16371 0.88864 0.27115 0.0
C386 C 0.14246 0.87683 0.30168 0.0
C387 C 0.14479 0.87141 0.2409 0.0
C388 C 0.10403 0.84085 0.23956 0.0
H389 H 0.19506 0.91177 0.27051 0.0
H390 H 0.16286 0.88194 0.21825 0.0
S391 S 0.03554 0.7973 0.31235 0.0
N392 N 0.07835 0.83131 0.32858 0.0
N393 N 0.04364 0.79896 0.27174 0.0
C394 C 0.08279 0.82809 0.26985 0.0
C395 C 0.10168 0.84606 0.30077 0.0
C396 C 0.37785 0.85355 0.79349 0.0
C397 C 0.34084 0.88845 0.79477 0.0
C398 C 0.39416 0.83425 0.76336 0.0
C399 C 0.37484 0.84946 0.73296 0.0
H400 H 0.39445 0.84039 0.8161 0.0
H401 H 0.42268 0.80783 0.7639 0.0
S402 S 0.27579 0.93794 0.72196 0.0
N403 N 0.28419 0.9357 0.76259 0.0
N404 N 0.31513 0.90032 0.70582 0.0
C405 C 0.33744 0.88393 0.7337 0.0
C406 C 0.32038 0.90313 0.76454 0.0
C407 C 0.62212 0.39978 0.80067 0.0
C408 C 0.60439 0.35187 0.80179 0.0
C409 C 0.64451 0.41875 0.77222 0.0
C410 C 0.64988 0.39076 0.74354 0.0
H411 H 0.61881 0.42317 0.82208 0.0
H412 H 0.65631 0.45589 0.77237 0.0
S413 S 0.61245 0.26307 0.7332 0.0
N414 N 0.59586 0.2768 0.7714 0.0
N415 N 0.63726 0.31229 0.71802 0.0
C416 C 0.63287 0.3428 0.74427 0.0
C417 C 0.61023 0.32346 0.77324 0.0
C418 C 0.10057 0.61512 0.75838 0.0
C419 C 0.11583 0.66031 0.74648 0.0
C420 C 0.11915 0.59558 0.78804 0.0
C421 C 0.15529 0.6194 0.8063 0.0
H422 H 0.07396 0.59462 0.7446 0.0
H423 H 0.10542 0.56131 0.79661 0.0
S424 S 0.20769 0.73858 0.78637 0.0
N425 N 0.16854 0.72871 0.75609 0.0
N426 N 0.20481 0.69109 0.81092 0.0
C427 C 0.17097 0.66449 0.79476 0.0
C428 C 0.15093 0.68513 0.76513 0.0
C429 C 0.81906 0.15719 0.75223 0.0
C430 C 0.83747 0.11514 0.73736 0.0
C431 C 0.83991 0.17688 0.78143 0.0
C432 C 0.87953 0.1549 0.79721 0.0
H433 H 0.78913 0.17572 0.74073 0.0
H434 H 0.82417 0.20887 0.79219 0.0
S435 S 0.94095 0.04416 0.76854 0.0
N436 N 0.89821 0.05284 0.74058 0.0
N437 N 0.9357 0.08832 0.79579 0.0
C438 C 0.89778 0.11263 0.78273 0.0
C439 C 0.87733 0.09328 0.75275 0.0
C440 C 0.4182 0.0617 0.37278 0.0
C441 C 0.41533 0.10822 0.38651 0.0
C442 C 0.37668 0.03428 0.36676 0.0
C443 C 0.33079 0.05242 0.37425 0.0
H444 H 0.45281 0.04495 0.36884 0.0
H445 H 0.38103 -0.00287 0.35925 0.0
S446 S 0.30334 0.1766 0.40195 0.0
N447 N 0.36259 0.1745 0.40108 0.0
N448 N 0.28462 0.12294 0.38984 0.0
C449 C 0.3273 0.10083 0.38415 0.0
C450 C 0.36954 0.12867 0.39041 0.0
C451 C 0.37707 0.38226 0.39128 0.0
C452 C 0.39877 0.42805 0.3902 0.0
C453 C 0.40333 0.34034 0.38496 0.0
C454 C 0.45269 0.34212 0.37749 0.0
H455 H 0.33976 0.37848 0.39841 0.0
H456 H 0.3855 0.30601 0.38827 0.0
S457 S 0.52521 0.4534 0.36699 0.0
N458 N 0.47129 0.473 0.37719 0.0
N459 N 0.52097 0.3942 0.36575 0.0
C460 C 0.47388 0.38788 0.37341 0.0
C461 C 0.44691 0.4308 0.37976 0.0
C462 C 0.11213 0.37637 0.40757 0.0
C463 C 0.06696 0.39653 0.40009 0.0
C464 C 0.15498 0.39985 0.39935 0.0
C465 C 0.15487 0.44498 0.38352 0.0
H466 H 0.11465 0.3425 0.42073 0.0
H467 H 0.18844 0.38368 0.40738 0.0
S468 S 0.04621 0.50986 0.35366 0.0
N469 N 0.02476 0.46145 0.37212 0.0
N470 N 0.10523 0.50604 0.35686 0.0
C471 C 0.10998 0.46368 0.37334 0.0
C472 C 0.06614 0.43951 0.38169 0.0
C473 C 0.07025 0.07812 0.37917 0.0
C474 C 0.11274 0.07707 0.39822 0.0
C475 C 0.04548 0.12121 0.37376 0.0
C476 C 0.0621 0.16507 0.38726 0.0
H477 H 0.05448 0.04512 0.36978 0.0
H478 H 0.01118 0.11927 0.36099 0.0
S479 S 0.17731 0.18351 0.43241 0.0
N480 N 0.17468 0.125 0.42573 0.0
N481 N 0.12803 0.20582 0.41559 0.0
C482 C 0.10707 0.16521 0.40341 0.0
C483 C 0.13228 0.12129 0.40899 0.0
C484 C 0.92561 0.93938 0.15514 0.0
C485 C 0.92401 0.8934 0.14055 0.0
C486 C 0.88311 0.96433 0.16263 0.0
C487 C 0.83756 0.94404 0.15594 0.0
H488 H 0.95975 0.95732 0.15908 0.0
H489 H 0.88612 0.00118 0.17116 0.0
S490 S 0.81385 0.82069 0.12499 0.0
N491 N 0.87297 0.82557 0.12498 0.0
N492 N 0.79364 0.87264 0.1389 0.0
C493 C 0.83567 0.89642 0.14444 0.0
C494 C 0.87871 0.87112 0.13669 0.0
C495 C 0.59665 0.83885 0.15277 0.0
C496 C 0.54793 0.83993 0.16205 0.0
C497 C 0.62188 0.8811 0.14537 0.0
C498 C 0.59973 0.92651 0.14716 0.0
H499 H 0.61464 0.8048 0.14893 0.0
H500 H 0.65867 0.87782 0.13699 0.0
S501 S 0.47523 0.95015 0.17549 0.0
N502 N 0.48022 0.89105 0.17657 0.0
N503 N 0.52793 0.97044 0.16302 0.0
C504 C 0.55246 0.92859 0.15941 0.0
C505 C 0.52659 0.88538 0.16689 0.0
C506 C 0.62374 0.62125 0.14461 0.0
C507 C 0.578 0.60328 0.15282 0.0
C508 C 0.6652 0.59385 0.1497 0.0
C509 C 0.66267 0.54707 0.16294 0.0
H510 H 0.62751 0.65585 0.13255 0.0
H511 H 0.69904 0.60803 0.14073 0.0
S512 S 0.55281 0.48725 0.19499 0.0
N513 N 0.53355 0.53896 0.17997 0.0
N514 N 0.61147 0.48717 0.18918 0.0
C515 C 0.61789 0.53086 0.17474 0.0
C516 C 0.57551 0.55894 0.16964 0.0
C517 C 0.94586 0.62142 0.16929 0.0
C518 C 0.92877 0.66492 0.15577 0.0
C519 C 0.92197 0.5779 0.16343 0.0
C520 C 0.87984 0.57609 0.14403 0.0
H521 H 0.98004 0.62007 0.18224 0.0
H522 H 0.93829 0.54519 0.17266 0.0
S523 S 0.813 0.68124 0.11102 0.0
N524 N 0.86205 0.70452 0.12782 0.0
N525 N 0.81679 0.62271 0.11713 0.0
C526 C 0.85937 0.61988 0.13369 0.0
C527 C 0.88379 0.66428 0.13963 0.0
C528 C 0.65637 0.89921 0.64733 0.0
C529 C 0.65544 0.94736 0.65804 0.0
C530 C 0.61394 0.87424 0.63993 0.0
C531 C 0.56863 0.89624 0.64304 0.0
H532 H 0.69034 0.88182 0.64214 0.0
H533 H 0.61695 0.83796 0.63033 0.0
S534 S 0.54594 0.01905 0.67549 0.0
N535 N 0.60504 0.01415 0.67547 0.0
N536 N 0.52519 0.96696 0.66183 0.0
C537 C 0.56688 0.94272 0.65686 0.0
C538 C 0.61029 0.96826 0.66443 0.0
C539 C 0.54964 0.57534 0.66034 0.0
C540 C 0.59745 0.57673 0.64933 0.0
C541 C 0.52438 0.61796 0.66669 0.0
C542 C 0.54614 0.66336 0.66222 0.0
H543 H 0.53063 0.5414 0.66196 0.0
H544 H 0.4864 0.61519 0.67216 0.0
S545 S 0.67415 0.68575 0.64228 0.0
N546 N 0.66828 0.62672 0.64061 0.0
N547 N 0.6206 0.70658 0.65223 0.0
C548 C 0.5954 0.66484 0.65493 0.0
C549 C 0.62106 0.62159 0.64842 0.0
C550 C 0.87932 0.62636 0.63528 0.0
C551 C 0.92282 0.60868 0.6484 0.0
C552 C 0.83559 0.603 0.64109 0.0
C553 C 0.8333 0.56055 0.66007 0.0
H554 H 0.87902 0.65768 0.61932 0.0
H555 H 0.80384 0.61683 0.62875 0.0
S556 S 0.93544 0.50463 0.70556 0.0
N557 N 0.95979 0.55015 0.68542 0.0
N558 N 0.87765 0.50606 0.69629 0.0
C559 C 0.87583 0.54506 0.67599 0.0
C560 C 0.92053 0.56901 0.67007 0.0
C561 C 0.87239 0.87349 0.63611 0.0
C562 C 0.88909 0.91932 0.64564 0.0
C563 C 0.89876 0.83199 0.64325 0.0
C564 C 0.94333 0.83441 0.65993 0.0
H565 H 0.8397 0.86956 0.62163 0.0
H566 H 0.88575 0.79811 0.63332 0.0
S567 S -0.00227 0.94431 0.69705 0.0
N568 N 0.94885 0.96364 0.67798 0.0
N569 N -0.00123 0.88564 0.69092 0.0
C570 C 0.95779 0.87929 0.6729 0.0
C571 C 0.93076 0.92175 0.66571 0.0
C572 C 0.07533 0.06051 0.8748 0.0
C573 C 0.0766 0.10577 0.89032 0.0
C574 C 0.11771 0.03476 0.86927 0.0
C575 C 0.16275 0.05344 0.87914 0.0
H576 H 0.04132 0.04346 0.86884 0.0
H577 H 0.11454 -0.00154 0.85971 0.0
S578 S 0.18586 0.17555 0.9128 0.0
N579 N 0.12688 0.17205 0.9095 0.0
N580 N 0.20642 0.12357 0.8992 0.0
C581 C 0.16469 0.10089 0.89109 0.0
C582 C 0.12162 0.12702 0.89677 0.0
C583 C 0.44098 0.07055 0.87976 0.0
C584 C 0.39382 0.07054 0.89196 0.0
C585 C 0.46502 0.11392 0.8733 0.0
C586 C 0.44265 0.15879 0.87877 0.0
H587 H 0.46043 0.0371 0.87704 0.0
H588 H 0.50254 0.1121 0.86639 0.0
S589 S 0.31586 0.17772 0.90285 0.0
N590 N 0.32285 0.11882 0.90361 0.0
N591 N 0.36822 0.19997 0.89149 0.0
C592 C 0.394 0.15892 0.88763 0.0
C593 C 0.36959 0.11492 0.89432 0.0
C594 C 0.42386 0.44751 0.88691 0.0
C595 C 0.422 0.39848 0.89525 0.0
C596 C 0.38153 0.47338 0.8805 0.0
C597 C 0.3361 0.451 0.88222 0.0
H598 H 0.45776 0.46672 0.88753 0.0
H599 H 0.38424 0.51197 0.87731 0.0
S600 S 0.3128 0.32123 0.89484 0.0
N601 N 0.37165 0.32679 0.8985 0.0
N602 N 0.29249 0.37582 0.88717 0.0
C603 C 0.33432 0.40114 0.88696 0.0
C604 C 0.37717 0.37479 0.89338 0.0
C605 C 0.05831 0.41983 0.88054 0.0
C606 C 0.10542 0.41724 0.89332 0.0
C607 C 0.0322 0.37803 0.87287 0.0
C608 C 0.05228 0.33214 0.87773 0.0
H609 H 0.04023 0.45415 0.87852 0.0
H610 H 0.99466 0.3818 0.86616 0.0
S611 S 0.17826 0.30641 0.90208 0.0
N612 N 0.17405 0.3655 0.90421 0.0
N613 N 0.1249 0.28706 0.88986 0.0
C614 C 0.1011 0.32942 0.88668 0.0
C615 C 0.12762 0.37189 0.89463 0.0
C616 C 0.74906 0.17415 0.41235 0.0
C617 C 0.71385 0.18919 0.43454 0.0
C618 C 0.78928 0.20273 0.40703 0.0
C619 C 0.79612 0.24631 0.42462 0.0
H620 H 0.74184 0.14488 0.39517 0.0
H621 H 0.81305 0.1922 0.38707 0.0
S622 S 0.72465 0.28699 0.49667 0.0
N623 N 0.69492 0.24008 0.48178 0.0
N624 N 0.77249 0.2935 0.47284 0.0
C625 C 0.76618 0.25586 0.45172 0.0
C626 C 0.72468 0.22677 0.45675 0.0
C627 C 0.26927 0.74158 0.4446 0.0
C628 C 0.28548 0.72706 0.41309 0.0
C629 C 0.24057 0.78278 0.4481 0.0
C630 C 0.22716 0.81 0.42016 0.0
H631 H 0.27541 0.71895 0.4661 0.0
H632 H 0.22748 0.79247 0.47254 0.0
S633 S 0.26168 0.78707 0.33267 0.0
N634 N 0.2886 0.74428 0.35408 0.0
N635 N 0.23288 0.81978 0.36039 0.0
C636 C 0.24505 0.79689 0.38894 0.0
C637 C 0.27497 0.75598 0.38552 0.0
C638 C 0.24906 0.67947 0.13121 0.0
C639 C 0.28283 0.69413 0.10785 0.0
C640 C 0.20766 0.70613 0.13607 0.0
C641 C 0.19846 0.7482 0.1175 0.0
H642 H 0.25758 0.65121 0.14881 0.0
H643 H 0.18451 0.69515 0.15628 0.0
S644 S 0.26785 0.78943 0.04453 0.0
N645 N 0.2996 0.7445 0.06001 0.0
N646 N 0.21999 0.79468 0.06849 0.0
C647 C 0.22804 0.75825 0.09023 0.0
C648 C 0.2707 0.73088 0.08545 0.0
C649 C 0.75999 0.28034 0.09246 0.0
C650 C 0.77311 0.3077 0.1204 0.0
C651 C 0.73051 0.23978 0.09594 0.0
C652 C 0.71264 0.22666 0.12729 0.0
H653 H 0.77383 0.28942 0.06812 0.0
H654 H 0.72462 0.21664 0.07459 0.0
S655 S 0.73614 0.28695 0.20763 0.0
N656 N 0.7666 0.3184 0.18008 0.0
N657 N 0.70834 0.24459 0.18612 0.0
C658 C 0.72301 0.25562 0.15481 0.0
C659 C 0.75427 0.29552 0.15152 0.0
C660 C 0.21622 0.73248 0.59206 0.0
C661 C 0.18821 0.73044 0.62099 0.0
C662 C 0.2562 0.76315 0.59028 0.0
C663 C 0.2687 0.79276 0.6173 0.0
H664 H 0.20833 0.70885 0.57128 0.0
H665 H 0.27999 0.76019 0.56912 0.0
S666 S 0.2058 0.80289 0.69762 0.0
N667 N 0.17569 0.76129 0.67685 0.0
N668 N 0.24828 0.82144 0.67223 0.0
C669 C 0.23846 0.79409 0.64497 0.0
C670 C 0.19901 0.76187 0.64732 0.0
C671 C 0.75245 0.23081 0.58825 0.0
C672 C 0.79177 0.2187 0.60876 0.0
C673 C 0.7253 0.27209 0.59462 0.0
C674 C 0.73709 0.30168 0.6217 0.0
H675 H 0.73878 0.20501 0.5703 0.0
H676 H 0.69269 0.27815 0.58045 0.0
S677 S 0.84438 0.28986 0.67722 0.0
N678 N 0.84677 0.24297 0.65219 0.0
N679 N 0.7969 0.32049 0.66494 0.0
C680 C 0.78076 0.29309 0.63909 0.0
C681 C 0.80834 0.25173 0.63205 0.0
C682 C 0.77196 0.23817 0.94994 0.0
C683 C 0.7807 0.19921 0.92839 0.0
C684 C 0.73046 0.26615 0.94637 0.0
C685 C 0.6975 0.25568 0.92093 0.0
H686 H 0.80011 0.25079 0.96652 0.0
H687 H 0.72679 0.29852 0.96115 0.0
S688 S 0.70075 0.14994 0.86351 0.0
N689 N 0.75043 0.14603 0.88577 0.0
N690 N 0.67276 0.19774 0.8779 0.0
C691 C 0.7034 0.21262 0.90235 0.0
C692 C 0.74491 0.18417 0.90665 0.0
C693 C 0.26302 0.76951 0.94759 0.0
C694 C 0.2535 0.79629 0.91883 0.0
C695 C 0.23341 0.73055 0.95589 0.0
C696 C 0.19405 0.71784 0.9355 0.0
H697 H 0.29552 0.77577 0.96186 0.0
H698 H 0.24559 0.7061 0.97511 0.0
S699 S 0.14522 0.78481 0.86408 0.0
N700 N 0.19492 0.81354 0.87456 0.0
N701 N 0.13993 0.74109 0.89144 0.0
C702 C 0.17908 0.74964 0.91101 0.0
C703 C 0.2094 0.78822 0.90176 0.0
C704 C 0.59387 0.14981 0.53414 0.0
C705 C 0.57373 0.11862 0.51011 0.0
C706 C 0.62718 0.1332 0.55784 0.0
C707 C 0.64201 0.08486 0.55827 0.0
H708 H 0.58579 0.18787 0.53367 0.0
H709 H 0.64315 0.15892 0.5749 0.0
S710 S 0.59445 0.9869 0.50467 0.0
N711 N 0.56683 0.03565 0.49123 0.0
N712 N 0.62984 0.00492 0.53532 0.0
C713 C 0.62007 0.05277 0.5358 0.0
C714 C 0.58582 0.06949 0.51191 0.0
C715 C 0.3557 0.63069 0.5623 0.0
C716 C 0.40467 0.6428 0.56551 0.0
C717 C 0.33972 0.59955 0.53695 0.0
C718 C 0.37222 0.57955 0.51405 0.0
H719 H 0.3292 0.64782 0.57799 0.0
H720 H 0.30141 0.59414 0.53375 0.0
S721 S 0.5049 0.59168 0.51628 0.0
N722 N 0.48608 0.62612 0.54703 0.0
N723 N 0.45599 0.56821 0.4994 0.0
C724 C 0.42154 0.58793 0.51897 0.0
C725 C 0.43777 0.61942 0.54469 0.0
C726 C 0.86888 0.40655 0.51157 0.0
C727 C 0.89956 0.36704 0.51652 0.0
C728 C 0.83964 0.42422 0.53687 0.0
C729 C 0.83927 0.40375 0.56894 0.0
H730 H 0.86622 0.42371 0.48747 0.0
H731 H 0.81632 0.45403 0.53066 0.0
S732 S 0.9161 0.302 0.59617 0.0
N733 N 0.92968 0.30902 0.55654 0.0
N734 N 0.8752 0.34314 0.60473 0.0
C735 C 0.87076 0.36491 0.57474 0.0
C736 C 0.90063 0.3464 0.5485 0.0
C737 C 0.06777 0.86358 0.53973 0.0
C738 C 0.097 0.85233 0.56726 0.0
C739 C 0.08424 0.89326 0.51416 0.0
C740 C 0.131 0.9127 0.5147 0.0
H741 H 0.0321 0.84821 0.53737 0.0
H742 H 0.06064 0.89912 0.49307 0.0
S743 S 0.22012 0.89887 0.58305 0.0
N744 N 0.17349 0.86657 0.5951 0.0
N745 N 0.20489 0.92205 0.54675 0.0
C746 C 0.15976 0.90402 0.543 0.0
C747 C 0.14267 0.874 0.56934 0.0
C748 C 0.15993 0.91083 1.00563 0.0
C749 C 0.15553 0.8943 0.97258 0.0
C750 C 0.13002 0.89423 0.03087 0.0
C751 C 0.09406 0.85971 0.0248 0.0
H752 H 0.18725 0.93687 1.01252 0.0
H753 H 0.13598 0.90828 0.0557 0.0
S754 S 0.066 0.80462 0.94292 0.0
N755 N 0.11109 0.84165 0.93508 0.0
N756 N 0.05533 0.80921 0.98318 0.0
C757 C 0.08914 0.84212 0.99208 0.0
C758 C 0.11965 0.85965 0.96591 0.0
C759 C 0.57408 0.1105 0.02656 0.0
C760 C 0.6192 0.08796 0.02603 0.0
C761 C 0.55852 0.1397 1.0004 0.0
C762 C 0.58725 0.14839 0.97214 0.0
H763 H 0.55108 0.10725 0.04811 0.0
H764 H 0.52401 0.15709 1.00327 0.0
S765 S 0.70534 0.09131 0.95592 0.0
N766 N 0.6904 0.07162 0.99315 0.0
N767 N 0.66081 0.1263 0.94361 0.0
C768 C 0.63099 0.12311 0.97007 0.0
C769 C 0.64696 0.093 0.99699 0.0
C770 C 0.36299 0.55929 1.01072 0.0
C771 C 0.34636 0.58896 0.98487 0.0
C772 C 0.39813 0.57531 0.03326 0.0
C773 C 0.4179 0.62196 0.03119 0.0
H774 H 0.34841 0.52344 1.01384 0.0
H775 H 0.40865 0.55129 0.05315 0.0
S776 S 0.38739 0.71363 0.96746 0.0
N777 N 0.35326 0.66696 0.9579 0.0
N778 N 0.41897 0.69717 1.00032 0.0
C779 C 0.40257 0.65157 1.00483 0.0
C780 C 0.3669 0.63511 0.98173 0.0
C781 C 0.84054 0.38834 1.00323 0.0
C782 C 0.87158 0.40856 0.02735 0.0
C783 C 0.85799 0.35823 0.97798 0.0
C784 C 0.9071 0.34684 0.976 0.0
H785 H 0.80212 0.394 1.00463 0.0
H786 H 0.83247 0.34188 0.96094 0.0
S787 S 0.0045 0.39624 0.02943 0.0
N788 N 0.9548 0.41938 0.04488 0.0
N789 N 0.98724 0.36247 0.99775 0.0
C790 C 0.93887 0.36909 0.99859 0.0
C791 C 0.92124 0.40003 0.02413 0.0
C792 C 0.39892 0.83297 0.4947 0.0
C793 C 0.42117 0.86572 0.51672 0.0
C794 C 0.36922 0.84919 0.46866 0.0
C795 C 0.36085 0.89858 0.46398 0.0
H796 H 0.40127 0.79465 0.49919 0.0
H797 H 0.34987 0.82292 0.45381 0.0
S798 S 0.4193 -0.0013 0.50993 0.0
N799 N 0.43923 0.94963 0.52843 0.0
N800 N 0.38332 0.97993 0.47981 0.0
C801 C 0.38664 0.93151 0.48372 0.0
C802 C 0.41689 0.91511 0.51 0.0
C803 C 0.57791 0.38881 0.53192 0.0
C804 C 0.62254 0.41272 0.52982 0.0
C805 C 0.56242 0.35669 0.50735 0.0
C806 C 0.59042 0.34704 0.47912 0.0
H807 H 0.55514 0.3933 0.55346 0.0
H808 H 0.52846 0.33844 0.51111 0.0
S809 S 0.70695 0.40562 0.45877 0.0
N810 N 0.6926 0.42801 0.49545 0.0
N811 N 0.66288 0.36845 0.44859 0.0
C812 C 0.63372 0.37311 0.47541 0.0
C813 C 0.64989 0.40566 0.50085 0.0
C814 C 0.13546 0.63541 0.48053 0.0
C815 C 0.14911 0.58689 0.47808 0.0
C816 C 0.10629 0.65153 0.50669 0.0
C817 C 0.08946 0.61978 0.53143 0.0
H818 H 0.14929 0.66159 0.46308 0.0
H819 H 0.09882 0.68966 0.50831 0.0
S820 S 0.10848 0.48771 0.53305 0.0
N821 N 0.13883 0.50623 0.5003 0.0
N822 N 0.08424 0.53643 0.5493 0.0
C823 C 0.10033 0.57064 0.52795 0.0
C824 C 0.13005 0.55427 0.50137 0.0
C825 C 0.84031 0.09635 0.49824 0.0
C826 C 0.87236 0.07504 0.52111 0.0
C827 C 0.85683 0.12813 0.47352 0.0
C828 C 0.90592 0.13971 0.47084 0.0
H829 H 0.80191 0.09137 0.50098 0.0
H830 H 0.83068 0.14614 0.45802 0.0
S831 S 0.00522 0.08593 0.5201 0.0
N832 N 0.956 0.0624 0.53615 0.0
N833 N 0.98692 0.12157 0.48983 0.0
C834 C 0.93854 0.1153 0.49163 0.0
C835 C 0.92181 0.08312 0.51669 0.0
C836 C 0.89907 0.14969 0.03591 0.0
C837 C 0.91421 0.11865 1.0102 0.0
C838 C 0.86717 0.13399 0.06069 0.0
C839 C 0.84888 0.08681 0.06054 0.0
H840 H 0.91005 0.18707 0.03607 0.0
H841 H 0.85491 0.15965 0.07907 0.0
S842 S 0.88286 0.98913 1.00232 0.0
N843 N 0.91264 0.03663 0.98891 0.0
N844 N 0.8525 0.00767 0.03505 0.0
C845 C 0.86597 0.05467 0.03633 0.0
C846 C 0.89869 0.0704 1.01133 0.0
C847 C 0.41809 0.88387 1.00848 0.0
C848 C 0.37335 0.90729 1.01072 0.0
C849 C 0.43485 0.85372 0.03369 0.0
C850 C 0.40801 0.84557 0.06269 0.0
H851 H 0.43994 0.88711 0.98638 0.0
H852 H 0.46872 0.83554 0.02974 0.0
S853 S 0.29208 0.90437 0.08365 0.0
N854 N 0.30474 0.92436 0.04605 0.0
N855 N 0.33671 0.86824 0.094 0.0
C856 C 0.3647 0.87137 0.06648 0.0
C857 C 0.3473 0.90202 0.04043 0.0
C858 C 0.61839 0.42511 0.04909 0.0
C859 C 0.63784 0.39215 0.07191 0.0
C860 C 0.58699 0.4103 0.02385 0.0
C861 C 0.57397 0.36164 1.01986 0.0
H862 H 0.62914 0.46257 0.04983 0.0
H863 H 0.57516 0.437 1.00603 0.0
S864 S 0.60866 0.26207 0.07633 0.0
N865 N 0.63661 0.30965 0.09181 0.0
N866 N 0.57837 0.28135 0.04357 0.0
C867 C 0.5897 0.32887 0.04425 0.0
C868 C 0.6215 0.34422 0.07042 0.0
C869 C 0.05318 0.6232 0.04372 0.0
C870 C 0.08283 0.63644 0.07078 0.0
C871 C 0.06891 0.59158 1.01902 0.0
C872 C 0.1153 0.57155 1.01988 0.0
H873 H 0.01792 0.63902 0.04062 0.0
H874 H 0.04523 0.58507 0.99803 0.0
S875 S 0.20313 0.58516 0.08901 0.0
N876 N 0.15777 0.61994 0.09988 0.0
N877 N 0.18786 0.561 0.05297 0.0
C878 C 0.14362 0.58046 0.04841 0.0
C879 C 0.12732 0.61273 0.07391 0.0
loop_
_geom_bond_atom_site_label_1
_geom_bond_atom_site_label_2
_geom_bond_distance
_geom_bond_site_symmetry_2
_ccdc_geom_bond_type
Sc0 O3 2.025 . S
Sc0 O10 2.105 . S
Sc0 O13 2.105 . S
Sc0 O16 2.105 . S
Sc0 O19 2.105 . S
Sc1 O3 2.025 . S
Sc1 O11 2.105 . S
Sc1 O15 2.105 . S
Sc1 O17 2.105 . S
Sc1 O21 2.105 . S
Sc2 O3 2.025 . S
Sc2 O12 2.105 . S
Sc2 O14 2.105 . S
Sc2 O18 2.105 . S
Sc2 O20 2.105 . S
O3 Sc0 2.025 . S
O3 Sc1 2.025 . S
O3 Sc2 2.025 . S
C4 O10 1.268 . S
C4 O20 1.268 . S
C5 O11 1.268 . S
C5 O19 1.268 . S
C6 O12 1.268 . S
C6 O21 1.268 . S
C7 O13 1.268 . S
C7 O17 1.268 . S
C8 O14 1.268 . S
C8 O16 1.268 . S
C9 O15 1.268 . S
C9 O18 1.268 . S
O10 Sc0 2.105 . S
O10 C4 1.268 . S
O11 Sc1 2.105 . S
O11 C5 1.268 . S
O12 Sc2 2.105 . S
O12 C6 1.268 . S
O13 Sc0 2.105 . S
O13 C7 1.268 . S
O14 Sc2 2.105 . S
O14 C8 1.268 . S
O15 Sc1 2.105 . S
O15 C9 1.268 . S
O16 Sc0 2.105 . S
O16 C8 1.268 . S
O17 Sc1 2.105 . S
O17 C7 1.268 . S
O18 Sc2 2.105 . S
O18 C9 1.268 . S
O19 Sc0 2.105 . S
O19 C5 1.268 . S
O20 Sc2 2.105 . S
O20 C4 1.268 . S
O21 Sc1 2.105 . S
O21 C6 1.268 . S
Sc22 O25 2.025 . S
Sc22 O32 2.105 . S
Sc22 O35 2.105 . S
Sc22 O38 2.105 . S
Sc22 O41 2.105 . S
Sc23 O25 2.025 . S
Sc23 O33 2.105 . S
Sc23 O37 2.105 . S
Sc23 O39 2.105 . S
Sc23 O43 2.105 . S
Sc24 O25 2.025 . S
Sc24 O34 2.105 . S
Sc24 O36 2.105 . S
Sc24 O40 2.105 . S
Sc24 O42 2.105 . S
O25 Sc22 2.025 . S
O25 Sc23 2.025 . S
O25 Sc24 2.025 . S
C26 O32 1.268 . S
C26 O42 1.268 . S
C27 O33 1.268 . S
C27 O41 1.268 . S
C28 O34 1.268 . S
C28 O43 1.268 . S
C29 O35 1.268 . S
C29 O39 1.268 . S
C30 O36 1.268 . S
C30 O38 1.268 . S
C31 O37 1.268 . S
C31 O40 1.268 . S
O32 Sc22 2.105 . S
O32 C26 1.268 . S
O33 Sc23 2.105 . S
O33 C27 1.268 . S
O34 Sc24 2.105 . S
O34 C28 1.268 . S
O35 Sc22 2.105 . S
O35 C29 1.268 . S
O36 Sc24 2.105 . S
O36 C30 1.268 . S
O37 Sc23 2.105 . S
O37 C31 1.268 . S
O38 Sc22 2.105 . S
O38 C30 1.268 . S
O39 Sc23 2.105 . S
O39 C29 1.268 . S
O40 Sc24 2.105 . S
O40 C31 1.268 . S
O41 Sc22 2.105 . S
O41 C27 1.268 . S
O42 Sc24 2.105 . S
O42 C26 1.268 . S
O43 Sc23 2.105 . S
O43 C28 1.268 . S
Sc44 O47 2.025 . S
Sc44 O54 2.105 . S
Sc44 O57 2.105 . S
Sc44 O60 2.105 . S
Sc44 O63 2.105 . S
Sc45 O47 2.025 . S
Sc45 O55 2.105 . S
Sc45 O59 2.105 . S
Sc45 O61 2.105 . S
Sc45 O65 2.105 . S
Sc46 O47 2.025 . S
Sc46 O56 2.105 1_655 S
Sc46 O58 2.105 . S
Sc46 O62 2.105 . S
Sc46 O64 2.105 1_655 S
O47 Sc44 2.025 . S
O47 Sc45 2.025 . S
O47 Sc46 2.025 . S
C48 O54 1.268 1_455 S
C48 O64 1.268 . S
C49 O55 1.268 . S
C49 O63 1.268 . S
C50 O56 1.268 . S
C50 O65 1.268 1_455 S
C51 O57 1.268 . S
C51 O61 1.268 . S
C52 O58 1.268 . S
C52 O60 1.268 . S
C53 O59 1.268 . S
C53 O62 1.268 . S
O54 Sc44 2.105 . S
O54 C48 1.268 1_655 S
O55 Sc45 2.105 . S
O55 C49 1.268 . S
O56 Sc46 2.105 1_455 S
O56 C50 1.268 . S
O57 Sc44 2.105 . S
O57 C51 1.268 . S
O58 Sc46 2.105 . S
O58 C52 1.268 . S
O59 Sc45 2.105 . S
O59 C53 1.268 . S
O60 Sc44 2.105 . S
O60 C52 1.268 . S
O61 Sc45 2.105 . S
O61 C51 1.268 . S
O62 Sc46 2.105 . S
O62 C53 1.268 . S
O63 Sc44 2.105 . S
O63 C49 1.268 . S
O64 Sc46 2.105 1_455 S
O64 C48 1.268 . S
O65 Sc45 2.105 . S
O65 C50 1.268 1_655 S
Sc66 O69 2.025 . S
Sc66 O76 2.105 . S
Sc66 O79 2.105 1_565 S
Sc66 O82 2.105 1_565 S
Sc66 O85 2.105 . S
Sc67 O69 2.025 . S
Sc67 O77 2.105 . S
Sc67 O81 2.105 . S
Sc67 O83 2.105 . S
Sc67 O87 2.105 . S
Sc68 O69 2.025 . S
Sc68 O78 2.105 . S
Sc68 O80 2.105 . S
Sc68 O84 2.105 . S
Sc68 O86 2.105 . S
O69 Sc66 2.025 . S
O69 Sc67 2.025 . S
O69 Sc68 2.025 . S
C70 O76 1.268 . S
C70 O86 1.268 . S
C71 O77 1.268 . S
C71 O85 1.268 . S
C72 O78 1.268 . S
C72 O87 1.268 . S
C73 O79 1.268 . S
C73 O83 1.268 1_545 S
C74 O80 1.268 1_545 S
C74 O82 1.268 . S
C75 O81 1.268 . S
C75 O84 1.268 . S
O76 Sc66 2.105 . S
O76 C70 1.268 . S
O77 Sc67 2.105 . S
O77 C71 1.268 . S
O78 Sc68 2.105 . S
O78 C72 1.268 . S
O79 Sc66 2.105 1_545 S
O79 C73 1.268 . S
O80 Sc68 2.105 . S
O80 C74 1.268 1_565 S
O81 Sc67 2.105 . S
O81 C75 1.268 . S
O82 Sc66 2.105 1_545 S
O82 C74 1.268 . S
O83 Sc67 2.105 . S
O83 C73 1.268 1_565 S
O84 Sc68 2.105 . S
O84 C75 1.268 . S
O85 Sc66 2.105 . S
O85 C71 1.268 . S
O86 Sc68 2.105 . S
O86 C70 1.268 . S
O87 Sc67 2.105 . S
O87 C72 1.268 . S
Sc88 O91 2.025 . S
Sc88 O98 2.105 . S
Sc88 O101 2.105 . S
Sc88 O104 2.105 . S
Sc88 O107 2.105 . S
Sc89 O91 2.025 . S
Sc89 O99 2.105 . S
Sc89 O103 2.105 . S
Sc89 O105 2.105 . S
Sc89 O109 2.105 . S
Sc90 O91 2.025 . S
Sc90 O100 2.105 1_455 S
Sc90 O102 2.105 . S
Sc90 O106 2.105 . S
Sc90 O108 2.105 1_455 S
O91 Sc88 2.025 . S
O91 Sc89 2.025 . S
O91 Sc90 2.025 . S
C92 O98 1.268 1_655 S
C92 O108 1.268 . S
C93 O99 1.268 . S
C93 O107 1.268 . S
C94 O100 1.268 . S
C94 O109 1.268 1_655 S
C95 O101 1.268 . S
C95 O105 1.268 . S
C96 O102 1.268 . S
C96 O104 1.268 . S
C97 O103 1.268 . S
C97 O106 1.268 . S
O98 Sc88 2.105 . S
O98 C92 1.268 1_455 S
O99 Sc89 2.105 . S
O99 C93 1.268 . S
O100 Sc90 2.105 1_655 S
O100 C94 1.268 . S
O101 Sc88 2.105 . S
O101 C95 1.268 . S
O102 Sc90 2.105 . S
O102 C96 1.268 . S
O103 Sc89 2.105 . S
O103 C97 1.268 . S
O104 Sc88 2.105 . S
O104 C96 1.268 . S
O105 Sc89 2.105 . S
O105 C95 1.268 . S
O106 Sc90 2.105 . S
O106 C97 1.268 . S
O107 Sc88 2.105 . S
O107 C93 1.268 . S
O108 Sc90 2.105 1_655 S
O108 C92 1.268 . S
O109 Sc89 2.105 . S
O109 C94 1.268 1_455 S
Sc110 O113 2.025 . S
Sc110 O120 2.105 . S
Sc110 O123 2.105 1_545 S
Sc110 O126 2.105 1_545 S
Sc110 O129 2.105 . S
Sc111 O113 2.025 . S
Sc111 O121 2.105 . S
Sc111 O125 2.105 . S
Sc111 O127 2.105 . S
Sc111 O131 2.105 . S
Sc112 O113 2.025 . S
Sc112 O122 2.105 . S
Sc112 O124 2.105 . S
Sc112 O128 2.105 . S
Sc112 O130 2.105 . S
O113 Sc110 2.025 . S
O113 Sc111 2.025 . S
O113 Sc112 2.025 . S
C114 O120 1.268 . S
C114 O130 1.268 . S
C115 O121 1.268 . S
C115 O129 1.268 . S
C116 O122 1.268 . S
C116 O131 1.268 . S
C117 O123 1.268 . S
C117 O127 1.268 1_565 S
C118 O124 1.268 1_565 S
C118 O126 1.268 . S
C119 O125 1.268 . S
C119 O128 1.268 . S
O120 Sc110 2.105 . S
O120 C114 1.268 . S
O121 Sc111 2.105 . S
O121 C115 1.268 . S
O122 Sc112 2.105 . S
O122 C116 1.268 . S
O123 Sc110 2.105 1_565 S
O123 C117 1.268 . S
O124 Sc112 2.105 . S
O124 C118 1.268 1_545 S
O125 Sc111 2.105 . S
O125 C119 1.268 . S
O126 Sc110 2.105 1_565 S
O126 C118 1.268 . S
O127 Sc111 2.105 . S
O127 C117 1.268 1_545 S
O128 Sc112 2.105 . S
O128 C119 1.268 . S
O129 Sc110 2.105 . S
O129 C115 1.268 . S
O130 Sc112 2.105 . S
O130 C114 1.268 . S
O131 Sc111 2.105 . S
O131 C116 1.268 . S
Sc132 O135 2.025 . S
Sc132 O142 2.105 . S
Sc132 O145 2.105 . S
Sc132 O148 2.105 . S
Sc132 O151 2.105 . S
Sc133 O135 2.025 . S
Sc133 O143 2.105 . S
Sc133 O147 2.105 . S
Sc133 O149 2.105 . S
Sc133 O153 2.105 . S
Sc134 O135 2.025 . S
Sc134 O144 2.105 . S
Sc134 O146 2.105 . S
Sc134 O150 2.105 . S
Sc134 O152 2.105 . S
O135 Sc132 2.025 . S
O135 Sc133 2.025 . S
O135 Sc134 2.025 . S
C136 O142 1.268 . S
C136 O152 1.268 . S
C137 O143 1.268 . S
C137 O151 1.268 . S
C138 O144 1.268 . S
C138 O153 1.268 . S
C139 O145 1.268 . S
C139 O149 1.268 . S
C140 O146 1.268 . S
C140 O148 1.268 . S
C141 O147 1.268 . S
C141 O150 1.268 . S
O142 Sc132 2.105 . S
O142 C136 1.268 . S
O143 Sc133 2.105 . S
O143 C137 1.268 . S
O144 Sc134 2.105 . S
O144 C138 1.268 . S
O145 Sc132 2.105 . S
O145 C139 1.268 . S
O146 Sc134 2.105 . S
O146 C140 1.268 . S
O147 Sc133 2.105 . S
O147 C141 1.268 . S
O148 Sc132 2.105 . S
O148 C140 1.268 . S
O149 Sc133 2.105 . S
O149 C139 1.268 . S
O150 Sc134 2.105 . S
O150 C141 1.268 . S
O151 Sc132 2.105 . S
O151 C137 1.268 . S
O152 Sc134 2.105 . S
O152 C136 1.268 . S
O153 Sc133 2.105 . S
O153 C138 1.268 . S
Sc154 O157 2.025 . S
Sc154 O164 2.105 . S
Sc154 O167 2.105 . S
Sc154 O170 2.105 . S
Sc154 O173 2.105 . S
Sc155 O157 2.025 . S
Sc155 O165 2.105 . S
Sc155 O169 2.105 . S
Sc155 O171 2.105 . S
Sc155 O175 2.105 . S
Sc156 O157 2.025 . S
Sc156 O166 2.105 . S
Sc156 O168 2.105 . S
Sc156 O172 2.105 . S
Sc156 O174 2.105 . S
O157 Sc154 2.025 . S
O157 Sc155 2.025 . S
O157 Sc156 2.025 . S
C158 O164 1.268 . S
C158 O174 1.268 . S
C159 O165 1.268 . S
C159 O173 1.268 . S
C160 O166 1.268 . S
C160 O175 1.268 . S
C161 O167 1.268 . S
C161 O171 1.268 . S
C162 O168 1.268 . S
C162 O170 1.268 . S
C163 O169 1.268 . S
C163 O172 1.268 . S
O164 Sc154 2.105 . S
O164 C158 1.268 . S
O165 Sc155 2.105 . S
O165 C159 1.268 . S
O166 Sc156 2.105 . S
O166 C160 1.268 . S
O167 Sc154 2.105 . S
O167 C161 1.268 . S
O168 Sc156 2.105 . S
O168 C162 1.268 . S
O169 Sc155 2.105 . S
O169 C163 1.268 . S
O170 Sc154 2.105 . S
O170 C162 1.268 . S
O171 Sc155 2.105 . S
O171 C161 1.268 . S
O172 Sc156 2.105 . S
O172 C163 1.268 . S
O173 Sc154 2.105 . S
O173 C159 1.268 . S
O174 Sc156 2.105 . S
O174 C158 1.268 . S
O175 Sc155 2.105 . S
O175 C160 1.268 . S
Sc176 O179 2.025 . S
Sc176 O186 2.105 . S
Sc176 O189 2.105 . S
Sc176 O192 2.105 . S
Sc176 O195 2.105 . S
Sc177 O179 2.025 . S
Sc177 O187 2.105 . S
Sc177 O191 2.105 . S
Sc177 O193 2.105 . S
Sc177 O197 2.105 . S
Sc178 O179 2.025 . S
Sc178 O188 2.105 . S
Sc178 O190 2.105 . S
Sc178 O194 2.105 . S
Sc178 O196 2.105 . S
O179 Sc176 2.025 . S
O179 Sc177 2.025 . S
O179 Sc178 2.025 . S
C180 O186 1.268 . S
C180 O196 1.268 . S
C181 O187 1.268 . S
C181 O195 1.268 . S
C182 O188 1.268 . S
C182 O197 1.268 . S
C183 O189 1.268 . S
C183 O193 1.268 . S
C184 O190 1.268 . S
C184 O192 1.268 . S
C185 O191 1.268 . S
C185 O194 1.268 . S
O186 Sc176 2.105 . S
O186 C180 1.268 . S
O187 Sc177 2.105 . S
O187 C181 1.268 . S
O188 Sc178 2.105 . S
O188 C182 1.268 . S
O189 Sc176 2.105 . S
O189 C183 1.268 . S
O190 Sc178 2.105 . S
O190 C184 1.268 . S
O191 Sc177 2.105 . S
O191 C185 1.268 . S
O192 Sc176 2.105 . S
O192 C184 1.268 . S
O193 Sc177 2.105 . S
O193 C183 1.268 . S
O194 Sc178 2.105 . S
O194 C185 1.268 . S
O195 Sc176 2.105 . S
O195 C181 1.268 . S
O196 Sc178 2.105 . S
O196 C180 1.268 . S
O197 Sc177 2.105 . S
O197 C182 1.268 . S
Sc198 O201 2.025 . S
Sc198 O208 2.105 . S
Sc198 O211 2.105 . S
Sc198 O214 2.105 . S
Sc198 O217 2.105 . S
Sc199 O201 2.025 . S
Sc199 O209 2.105 . S
Sc199 O213 2.105 . S
Sc199 O215 2.105 . S
Sc199 O219 2.105 . S
Sc200 O201 2.025 . S
Sc200 O210 2.105 . S
Sc200 O212 2.105 . S
Sc200 O216 2.105 . S
Sc200 O218 2.105 . S
O201 Sc198 2.025 . S
O201 Sc199 2.025 . S
O201 Sc200 2.025 . S
C202 O208 1.268 . S
C202 O218 1.268 . S
C203 O209 1.268 . S
C203 O217 1.268 . S
C204 O210 1.268 . S
C204 O219 1.268 . S
C205 O211 1.268 . S
C205 O215 1.268 . S
C206 O212 1.268 . S
C206 O214 1.268 . S
C207 O213 1.268 . S
C207 O216 1.268 . S
O208 Sc198 2.105 . S
O208 C202 1.268 . S
O209 Sc199 2.105 . S
O209 C203 1.268 . S
O210 Sc200 2.105 . S
O210 C204 1.268 . S
O211 Sc198 2.105 . S
O211 C205 1.268 . S
O212 Sc200 2.105 . S
O212 C206 1.268 . S
O213 Sc199 2.105 . S
O213 C207 1.268 . S
O214 Sc198 2.105 . S
O214 C206 1.268 . S
O215 Sc199 2.105 . S
O215 C205 1.268 . S
O216 Sc200 2.105 . S
O216 C207 1.268 . S
O217 Sc198 2.105 . S
O217 C203 1.268 . S
O218 Sc200 2.105 . S
O218 C202 1.268 . S
O219 Sc199 2.105 . S
O219 C204 1.268 . S
Sc220 O223 2.025 . S
Sc220 O230 2.105 . S
Sc220 O233 2.105 . S
Sc220 O236 2.105 . S
Sc220 O239 2.105 . S
Sc221 O223 2.025 . S
Sc221 O231 2.105 . S
Sc221 O235 2.105 . S
Sc221 O237 2.105 . S
Sc221 O241 2.105 . S
Sc222 O223 2.025 . S
Sc222 O232 2.105 . S
Sc222 O234 2.105 1_455 S
Sc222 O238 2.105 1_455 S
Sc222 O240 2.105 . S
O223 Sc220 2.025 . S
O223 Sc221 2.025 . S
O223 Sc222 2.025 . S
C224 O230 1.268 . S
C224 O240 1.268 . S
C225 O231 1.268 . S
C225 O239 1.268 . S
C226 O232 1.268 . S
C226 O241 1.268 . S
C227 O233 1.268 . S
C227 O237 1.268 . S
C228 O234 1.268 . S
C228 O236 1.268 1_655 S
C229 O235 1.268 1_655 S
C229 O238 1.268 . S
O230 Sc220 2.105 . S
O230 C224 1.268 . S
O231 Sc221 2.105 . S
O231 C225 1.268 . S
O232 Sc222 2.105 . S
O232 C226 1.268 . S
O233 Sc220 2.105 . S
O233 C227 1.268 . S
O234 Sc222 2.105 1_655 S
O234 C228 1.268 . S
O235 Sc221 2.105 . S
O235 C229 1.268 1_455 S
O236 Sc220 2.105 . S
O236 C228 1.268 1_455 S
O237 Sc221 2.105 . S
O237 C227 1.268 . S
O238 Sc222 2.105 1_655 S
O238 C229 1.268 . S
O239 Sc220 2.105 . S
O239 C225 1.268 . S
O240 Sc222 2.105 . S
O240 C224 1.268 . S
O241 Sc221 2.105 . S
O241 C226 1.268 . S
Sc242 O245 2.025 . S
Sc242 O252 2.105 . S
Sc242 O255 2.105 . S
Sc242 O258 2.105 . S
Sc242 O261 2.105 . S
Sc243 O245 2.025 . S
Sc243 O253 2.105 . S
Sc243 O257 2.105 . S
Sc243 O259 2.105 . S
Sc243 O263 2.105 . S
Sc244 O245 2.025 . S
Sc244 O254 2.105 . S
Sc244 O256 2.105 1_545 S
Sc244 O260 2.105 1_545 S
Sc244 O262 2.105 . S
O245 Sc242 2.025 . S
O245 Sc243 2.025 . S
O245 Sc244 2.025 . S
C246 O252 1.268 . S
C246 O262 1.268 . S
C247 O253 1.268 . S
C247 O261 1.268 . S
C248 O254 1.268 . S
C248 O263 1.268 . S
C249 O255 1.268 . S
C249 O259 1.268 . S
C250 O256 1.268 . S
C250 O258 1.268 1_565 S
C251 O257 1.268 1_565 S
C251 O260 1.268 . S
O252 Sc242 2.105 . S
O252 C246 1.268 . S
O253 Sc243 2.105 . S
O253 C247 1.268 . S
O254 Sc244 2.105 . S
O254 C248 1.268 . S
O255 Sc242 2.105 . S
O255 C249 1.268 . S
O256 Sc244 2.105 1_565 S
O256 C250 1.268 . S
O257 Sc243 2.105 . S
O257 C251 1.268 1_545 S
O258 Sc242 2.105 . S
O258 C250 1.268 1_545 S
O259 Sc243 2.105 . S
O259 C249 1.268 . S
O260 Sc244 2.105 1_565 S
O260 C251 1.268 . S
O261 Sc242 2.105 . S
O261 C247 1.268 . S
O262 Sc244 2.105 . S
O262 C246 1.268 . S
O263 Sc243 2.105 . S
O263 C248 1.268 . S
Sc264 O267 2.025 . S
Sc264 O274 2.105 . S
Sc264 O277 2.105 . S
Sc264 O280 2.105 . S
Sc264 O283 2.105 . S
Sc265 O267 2.025 . S
Sc265 O275 2.105 . S
Sc265 O279 2.105 . S
Sc265 O281 2.105 . S
Sc265 O285 2.105 . S
Sc266 O267 2.025 . S
Sc266 O276 2.105 . S
Sc266 O278 2.105 1_655 S
Sc266 O282 2.105 1_655 S
Sc266 O284 2.105 . S
O267 Sc264 2.025 . S
O267 Sc265 2.025 . S
O267 Sc266 2.025 . S
C268 O274 1.268 . S
C268 O284 1.268 . S
C269 O275 1.268 . S
C269 O283 1.268 . S
C270 O276 1.268 . S
C270 O285 1.268 . S
C271 O277 1.268 . S
C271 O281 1.268 . S
C272 O278 1.268 . S
C272 O280 1.268 1_455 S
C273 O279 1.268 1_455 S
C273 O282 1.268 . S
O274 Sc264 2.105 . S
O274 C268 1.268 . S
O275 Sc265 2.105 . S
O275 C269 1.268 . S
O276 Sc266 2.105 . S
O276 C270 1.268 . S
O277 Sc264 2.105 . S
O277 C271 1.268 . S
O278 Sc266 2.105 1_455 S
O278 C272 1.268 . S
O279 Sc265 2.105 . S
O279 C273 1.268 1_655 S
O280 Sc264 2.105 . S
O280 C272 1.268 1_655 S
O281 Sc265 2.105 . S
O281 C271 1.268 . S
O282 Sc266 2.105 1_455 S
O282 C273 1.268 . S
O283 Sc264 2.105 . S
O283 C269 1.268 . S
O284 Sc266 2.105 . S
O284 C268 1.268 . S
O285 Sc265 2.105 . S
O285 C270 1.268 . S
Sc286 O289 2.025 . S
Sc286 O296 2.105 . S
Sc286 O299 2.105 . S
Sc286 O302 2.105 . S
Sc286 O305 2.105 . S
Sc287 O289 2.025 . S
Sc287 O297 2.105 . S
Sc287 O301 2.105 . S
Sc287 O303 2.105 . S
Sc287 O307 2.105 . S
Sc288 O289 2.025 . S
Sc288 O298 2.105 . S
Sc288 O300 2.105 1_565 S
Sc288 O304 2.105 1_565 S
Sc288 O306 2.105 . S
O289 Sc286 2.025 . S
O289 Sc287 2.025 . S
O289 Sc288 2.025 . S
C290 O296 1.268 . S
C290 O306 1.268 . S
C291 O297 1.268 . S
C291 O305 1.268 . S
C292 O298 1.268 . S
C292 O307 1.268 . S
C293 O299 1.268 . S
C293 O303 1.268 . S
C294 O300 1.268 . S
C294 O302 1.268 1_545 S
C295 O301 1.268 1_545 S
C295 O304 1.268 . S
O296 Sc286 2.105 . S
O296 C290 1.268 . S
O297 Sc287 2.105 . S
O297 C291 1.268 . S
O298 Sc288 2.105 . S
O298 C292 1.268 . S
O299 Sc286 2.105 . S
O299 C293 1.268 . S
O300 Sc288 2.105 1_545 S
O300 C294 1.268 . S
O301 Sc287 2.105 . S
O301 C295 1.268 1_565 S
O302 Sc286 2.105 . S
O302 C294 1.268 1_565 S
O303 Sc287 2.105 . S
O303 C293 1.268 . S
O304 Sc288 2.105 1_545 S
O304 C295 1.268 . S
O305 Sc286 2.105 . S
O305 C291 1.268 . S
O306 Sc288 2.105 . S
O306 C290 1.268 . S
O307 Sc287 2.105 . S
O307 C292 1.268 . S
Sc308 O311 2.025 . S
Sc308 O318 2.105 . S
Sc308 O321 2.105 . S
Sc308 O324 2.105 . S
Sc308 O327 2.105 . S
Sc309 O311 2.025 . S
Sc309 O319 2.105 . S
Sc309 O323 2.105 . S
Sc309 O325 2.105 . S
Sc309 O329 2.105 . S
Sc310 O311 2.025 . S
Sc310 O320 2.105 . S
Sc310 O322 2.105 . S
Sc310 O326 2.105 . S
Sc310 O328 2.105 . S
O311 Sc308 2.025 . S
O311 Sc309 2.025 . S
O311 Sc310 2.025 . S
C312 O318 1.268 . S
C312 O328 1.268 . S
C313 O319 1.268 . S
C313 O327 1.268 . S
C314 O320 1.268 . S
C314 O329 1.268 . S
C315 O321 1.268 . S
C315 O325 1.268 . S
C316 O322 1.268 . S
C316 O324 1.268 . S
C317 O323 1.268 . S
C317 O326 1.268 . S
O318 Sc308 2.105 . S
O318 C312 1.268 . S
O319 Sc309 2.105 . S
O319 C313 1.268 . S
O320 Sc310 2.105 . S
O320 C314 1.268 . S
O321 Sc308 2.105 . S
O321 C315 1.268 . S
O322 Sc310 2.105 . S
O322 C316 1.268 . S
O323 Sc309 2.105 . S
O323 C317 1.268 . S
O324 Sc308 2.105 . S
O324 C316 1.268 . S
O325 Sc309 2.105 . S
O325 C315 1.268 . S
O326 Sc310 2.105 . S
O326 C317 1.268 . S
O327 Sc308 2.105 . S
O327 C313 1.268 . S
O328 Sc310 2.105 . S
O328 C312 1.268 . S
O329 Sc309 2.105 . S
O329 C314 1.268 . S
Sc330 O333 2.025 . S
Sc330 O340 2.105 . S
Sc330 O343 2.105 . S
Sc330 O346 2.105 . S
Sc330 O349 2.105 . S
Sc331 O333 2.025 . S
Sc331 O341 2.105 . S
Sc331 O345 2.105 . S
Sc331 O347 2.105 . S
Sc331 O351 2.105 . S
Sc332 O333 2.025 . S
Sc332 O342 2.105 . S
Sc332 O344 2.105 . S
Sc332 O348 2.105 . S
Sc332 O350 2.105 . S
O333 Sc330 2.025 . S
O333 Sc331 2.025 . S
O333 Sc332 2.025 . S
C334 O340 1.268 . S
C334 O350 1.268 . S
C335 O341 1.268 . S
C335 O349 1.268 . S
C336 O342 1.268 . S
C336 O351 1.268 . S
C337 O343 1.268 . S
C337 O347 1.268 . S
C338 O344 1.268 . S
C338 O346 1.268 . S
C339 O345 1.268 . S
C339 O348 1.268 . S
O340 Sc330 2.105 . S
O340 C334 1.268 . S
O341 Sc331 2.105 . S
O341 C335 1.268 . S
O342 Sc332 2.105 . S
O342 C336 1.268 . S
O343 Sc330 2.105 . S
O343 C337 1.268 . S
O344 Sc332 2.105 . S
O344 C338 1.268 . S
O345 Sc331 2.105 . S
O345 C339 1.268 . S
O346 Sc330 2.105 . S
O346 C338 1.268 . S
O347 Sc331 2.105 . S
O347 C337 1.268 . S
O348 Sc332 2.105 . S
O348 C339 1.268 . S
O349 Sc330 2.105 . S
O349 C335 1.268 . S
O350 Sc332 2.105 . S
O350 C334 1.268 . S
O351 Sc331 2.105 . S
O351 C336 1.268 . S
C352 C353 1.369 . S
C352 C354 1.419 . S
C352 H356 0.930 . S
C353 C352 1.369 . S
C353 C362 1.429 . S
C354 C352 1.419 . S
C354 C355 1.363 . S
C354 H357 0.929 . S
C355 C354 1.363 . S
C355 C361 1.428 . S
H356 C352 0.930 . S
H357 C354 0.929 . S
S358 N359 1.613 . S
S358 N360 1.610 . S
N359 S358 1.613 . S
N359 C362 1.350 . S
N360 S358 1.610 . S
N360 C361 1.351 . S
C361 C355 1.428 . S
C361 N360 1.351 . S
C361 C362 1.434 . S
C362 C353 1.429 . S
C362 N359 1.350 . S
C362 C361 1.434 . S
C363 C364 1.369 . S
C363 C365 1.419 . S
C363 H367 0.930 . S
C364 C363 1.369 . S
C364 C373 1.429 . S
C365 C363 1.419 . S
C365 C366 1.363 . S
C365 H368 0.929 . S
C366 C365 1.363 . S
C366 C372 1.428 . S
H367 C363 0.930 . S
H368 C365 0.929 . S
S369 N370 1.613 . S
S369 N371 1.610 . S
N370 S369 1.613 . S
N370 C373 1.350 . S
N371 S369 1.610 . S
N371 C372 1.351 . S
C372 C366 1.428 . S
C372 N371 1.351 . S
C372 C373 1.434 . S
C373 C364 1.429 . S
C373 N370 1.350 . S
C373 C372 1.434 . S
C374 C375 1.369 . S
C374 C376 1.419 . S
C374 H378 0.930 . S
C375 C374 1.369 . S
C375 C384 1.429 . S
C376 C374 1.419 . S
C376 C377 1.363 . S
C376 H379 0.929 . S
C377 C376 1.363 . S
C377 C383 1.428 . S
H378 C374 0.930 . S
H379 C376 0.929 . S
S380 N381 1.613 . S
S380 N382 1.610 . S
N381 S380 1.613 . S
N381 C384 1.350 . S
N382 S380 1.610 . S
N382 C383 1.351 . S
C383 C377 1.428 . S
C383 N382 1.351 . S
C383 C384 1.434 . S
C384 C375 1.429 . S
C384 N381 1.350 . S
C384 C383 1.434 . S
C385 C386 1.369 . S
C385 C387 1.419 . S
C385 H389 0.930 . S
C386 C385 1.369 . S
C386 C395 1.429 . S
C387 C385 1.419 . S
C387 C388 1.363 . S
C387 H390 0.929 . S
C388 C387 1.363 . S
C388 C394 1.428 . S
H389 C385 0.930 . S
H390 C387 0.929 . S
S391 N392 1.613 . S
S391 N393 1.610 . S
N392 S391 1.613 . S
N392 C395 1.350 . S
N393 S391 1.610 . S
N393 C394 1.351 . S
C394 C388 1.428 . S
C394 N393 1.351 . S
C394 C395 1.434 . S
C395 C386 1.429 . S
C395 N392 1.350 . S
C395 C394 1.434 . S
C396 C397 1.369 . S
C396 C398 1.419 . S
C396 H400 0.930 . S
C397 C396 1.369 . S
C397 C406 1.429 . S
C398 C396 1.419 . S
C398 C399 1.363 . S
C398 H401 0.929 . S
C399 C398 1.363 . S
C399 C405 1.428 . S
H400 C396 0.930 . S
H401 C398 0.929 . S
S402 N403 1.613 . S
S402 N404 1.610 . S
N403 S402 1.613 . S
N403 C406 1.350 . S
N404 S402 1.610 . S
N404 C405 1.351 . S
C405 C399 1.428 . S
C405 N404 1.351 . S
C405 C406 1.434 . S
C406 C397 1.429 . S
C406 N403 1.350 . S
C406 C405 1.434 . S
C407 C408 1.369 . S
C407 C409 1.419 . S
C407 H411 0.930 . S
C408 C407 1.369 . S
C408 C417 1.429 . S
C409 C407 1.419 . S
C409 C410 1.363 . S
C409 H412 0.929 . S
C410 C409 1.363 . S
C410 C416 1.428 . S
H411 C407 0.930 . S
H412 C409 0.929 . S
S413 N414 1.613 . S
S413 N415 1.610 . S
N414 S413 1.613 . S
N414 C417 1.350 . S
N415 S413 1.610 . S
N415 C416 1.351 . S
C416 C410 1.428 . S
C416 N415 1.351 . S
C416 C417 1.434 . S
C417 C408 1.429 . S
C417 N414 1.350 . S
C417 C416 1.434 . S
C418 C419 1.369 . S
C418 C420 1.419 . S
C418 H422 0.930 . S
C419 C418 1.369 . S
C419 C428 1.429 . S
C420 C418 1.419 . S
C420 C421 1.363 . S
C420 H423 0.929 . S
C421 C420 1.363 . S
C421 C427 1.428 . S
H422 C418 0.930 . S
H423 C420 0.929 . S
S424 N425 1.613 . S
S424 N426 1.610 . S
N425 S424 1.613 . S
N425 C428 1.350 . S
N426 S424 1.610 . S
N426 C427 1.351 . S
C427 C421 1.428 . S
C427 N426 1.351 . S
C427 C428 1.434 . S
C428 C419 1.429 . S
C428 N425 1.350 . S
C428 C427 1.434 . S
C429 C430 1.369 . S
C429 C431 1.419 . S
C429 H433 0.930 . S
C430 C429 1.369 . S
C430 C439 1.429 . S
C431 C429 1.419 . S
C431 C432 1.363 . S
C431 H434 0.929 . S
C432 C431 1.363 . S
C432 C438 1.428 . S
H433 C429 0.930 . S
H434 C431 0.929 . S
S435 N436 1.613 . S
S435 N437 1.610 . S
N436 S435 1.613 . S
N436 C439 1.350 . S
N437 S435 1.610 . S
N437 C438 1.351 . S
C438 C432 1.428 . S
C438 N437 1.351 . S
C438 C439 1.434 . S
C439 C430 1.429 . S
C439 N436 1.350 . S
C439 C438 1.434 . S
C440 C441 1.369 . S
C440 C442 1.419 . S
C440 H444 0.930 . S
C441 C440 1.369 . S
C441 C450 1.429 . S
C442 C440 1.419 . S
C442 C443 1.363 . S
C442 H445 0.929 . S
C443 C442 1.363 . S
C443 C449 1.428 . S
H444 C440 0.930 . S
H445 C442 0.929 . S
S446 N447 1.613 . S
S446 N448 1.610 . S
N447 S446 1.613 . S
N447 C450 1.350 . S
N448 S446 1.610 . S
N448 C449 1.351 . S
C449 C443 1.428 . S
C449 N448 1.351 . S
C449 C450 1.434 . S
C450 C441 1.429 . S
C450 N447 1.350 . S
C450 C449 1.434 . S
C451 C452 1.369 . S
C451 C453 1.419 . S
C451 H455 0.930 . S
C452 C451 1.369 . S
C452 C461 1.429 . S
C453 C451 1.419 . S
C453 C454 1.363 . S
C453 H456 0.929 . S
C454 C453 1.363 . S
C454 C460 1.428 . S
H455 C451 0.930 . S
H456 C453 0.929 . S
S457 N458 1.613 . S
S457 N459 1.610 . S
N458 S457 1.613 . S
N458 C461 1.350 . S
N459 S457 1.610 . S
N459 C460 1.351 . S
C460 C454 1.428 . S
C460 N459 1.351 . S
C460 C461 1.434 . S
C461 C452 1.429 . S
C461 N458 1.350 . S
C461 C460 1.434 . S
C462 C463 1.369 . S
C462 C464 1.419 . S
C462 H466 0.930 . S
C463 C462 1.369 . S
C463 C472 1.429 . S
C464 C462 1.419 . S
C464 C465 1.363 . S
C464 H467 0.929 . S
C465 C464 1.363 . S
C465 C471 1.428 . S
H466 C462 0.930 . S
H467 C464 0.929 . S
S468 N469 1.613 . S
S468 N470 1.610 . S
N469 S468 1.613 . S
N469 C472 1.350 . S
N470 S468 1.610 . S
N470 C471 1.351 . S
C471 C465 1.428 . S
C471 N470 1.351 . S
C471 C472 1.434 . S
C472 C463 1.429 . S
C472 N469 1.350 . S
C472 C471 1.434 . S
C473 C474 1.369 . S
C473 C475 1.419 . S
C473 H477 0.930 . S
C474 C473 1.369 . S
C474 C483 1.429 . S
C475 C473 1.419 . S
C475 C476 1.363 . S
C475 H478 0.929 . S
C476 C475 1.363 . S
C476 C482 1.428 . S
H477 C473 0.930 . S
H478 C475 0.929 . S
S479 N480 1.613 . S
S479 N481 1.610 . S
N480 S479 1.613 . S
N480 C483 1.350 . S
N481 S479 1.610 . S
N481 C482 1.351 . S
C482 C476 1.428 . S
C482 N481 1.351 . S
C482 C483 1.434 . S
C483 C474 1.429 . S
C483 N480 1.350 . S
C483 C482 1.434 . S
C484 C485 1.369 . S
C484 C486 1.419 . S
C484 H488 0.930 . S
C485 C484 1.369 . S
C485 C494 1.429 . S
C486 C484 1.419 . S
C486 C487 1.363 . S
C486 H489 0.929 . S
C487 C486 1.363 . S
C487 C493 1.428 . S
H488 C484 0.930 . S
H489 C486 0.929 . S
S490 N491 1.613 . S
S490 N492 1.610 . S
N491 S490 1.613 . S
N491 C494 1.350 . S
N492 S490 1.610 . S
N492 C493 1.351 . S
C493 C487 1.428 . S
C493 N492 1.351 . S
C493 C494 1.434 . S
C494 C485 1.429 . S
C494 N491 1.350 . S
C494 C493 1.434 . S
C495 C496 1.369 . S
C495 C497 1.419 . S
C495 H499 0.930 . S
C496 C495 1.369 . S
C496 C505 1.429 . S
C497 C495 1.419 . S
C497 C498 1.363 . S
C497 H500 0.929 . S
C498 C497 1.363 . S
C498 C504 1.428 . S
H499 C495 0.930 . S
H500 C497 0.929 . S
S501 N502 1.613 . S
S501 N503 1.610 . S
N502 S501 1.613 . S
N502 C505 1.350 . S
N503 S501 1.610 . S
N503 C504 1.351 . S
C504 C498 1.428 . S
C504 N503 1.351 . S
C504 C505 1.434 . S
C505 C496 1.429 . S
C505 N502 1.350 . S
C505 C504 1.434 . S
C506 C507 1.369 . S
C506 C508 1.419 . S
C506 H510 0.930 . S
C507 C506 1.369 . S
C507 C516 1.429 . S
C508 C506 1.419 . S
C508 C509 1.363 . S
C508 H511 0.929 . S
C509 C508 1.363 . S
C509 C515 1.428 . S
H510 C506 0.930 . S
H511 C508 0.929 . S
S512 N513 1.613 . S
S512 N514 1.610 . S
N513 S512 1.613 . S
N513 C516 1.350 . S
N514 S512 1.610 . S
N514 C515 1.351 . S
C515 C509 1.428 . S
C515 N514 1.351 . S
C515 C516 1.434 . S
C516 C507 1.429 . S
C516 N513 1.350 . S
C516 C515 1.434 . S
C517 C518 1.369 . S
C517 C519 1.419 . S
C517 H521 0.930 . S
C518 C517 1.369 . S
C518 C527 1.429 . S
C519 C517 1.419 . S
C519 C520 1.363 . S
C519 H522 0.929 . S
C520 C519 1.363 . S
C520 C526 1.428 . S
H521 C517 0.930 . S
H522 C519 0.929 . S
S523 N524 1.613 . S
S523 N525 1.610 . S
N524 S523 1.613 . S
N524 C527 1.350 . S
N525 S523 1.610 . S
N525 C526 1.351 . S
C526 C520 1.428 . S
C526 N525 1.351 . S
C526 C527 1.434 . S
C527 C518 1.429 . S
C527 N524 1.350 . S
C527 C526 1.434 . S
C528 C529 1.369 . S
C528 C530 1.419 . S
C528 H532 0.930 . S
C529 C528 1.369 . S
C529 C538 1.429 . S
C530 C528 1.419 . S
C530 C531 1.363 . S
C530 H533 0.929 . S
C531 C530 1.363 . S
C531 C537 1.428 . S
H532 C528 0.930 . S
H533 C530 0.929 . S
S534 N535 1.613 . S
S534 N536 1.610 . S
N535 S534 1.613 . S
N535 C538 1.350 . S
N536 S534 1.610 . S
N536 C537 1.351 . S
C537 C531 1.428 . S
C537 N536 1.351 . S
C537 C538 1.434 . S
C538 C529 1.429 . S
C538 N535 1.350 . S
C538 C537 1.434 . S
C539 C540 1.369 . S
C539 C541 1.419 . S
C539 H543 0.930 . S
C540 C539 1.369 . S
C540 C549 1.429 . S
C541 C539 1.419 . S
C541 C542 1.363 . S
C541 H544 0.929 . S
C542 C541 1.363 . S
C542 C548 1.428 . S
H543 C539 0.930 . S
H544 C541 0.929 . S
S545 N546 1.613 . S
S545 N547 1.610 . S
N546 S545 1.613 . S
N546 C549 1.350 . S
N547 S545 1.610 . S
N547 C548 1.351 . S
C548 C542 1.428 . S
C548 N547 1.351 . S
C548 C549 1.434 . S
C549 C540 1.429 . S
C549 N546 1.350 . S
C549 C548 1.434 . S
C550 C551 1.369 . S
C550 C552 1.419 . S
C550 H554 0.930 . S
C551 C550 1.369 . S
C551 C560 1.429 . S
C552 C550 1.419 . S
C552 C553 1.363 . S
C552 H555 0.929 . S
C553 C552 1.363 . S
C553 C559 1.428 . S
H554 C550 0.930 . S
H555 C552 0.929 . S
S556 N557 1.613 . S
S556 N558 1.610 . S
N557 S556 1.613 . S
N557 C560 1.350 . S
N558 S556 1.610 . S
N558 C559 1.351 . S
C559 C553 1.428 . S
C559 N558 1.351 . S
C559 C560 1.434 . S
C560 C551 1.429 . S
C560 N557 1.350 . S
C560 C559 1.434 . S
C561 C562 1.369 . S
C561 C563 1.419 . S
C561 H565 0.930 . S
C562 C561 1.369 . S
C562 C571 1.429 . S
C563 C561 1.419 . S
C563 C564 1.363 . S
C563 H566 0.929 . S
C564 C563 1.363 . S
C564 C570 1.428 . S
H565 C561 0.930 . S
H566 C563 0.929 . S
S567 N568 1.613 . S
S567 N569 1.610 . S
N568 S567 1.613 . S
N568 C571 1.350 . S
N569 S567 1.610 . S
N569 C570 1.351 . S
C570 C564 1.428 . S
C570 N569 1.351 . S
C570 C571 1.434 . S
C571 C562 1.429 . S
C571 N568 1.350 . S
C571 C570 1.434 . S
C572 C573 1.369 . S
C572 C574 1.419 . S
C572 H576 0.930 . S
C573 C572 1.369 . S
C573 C582 1.429 . S
C574 C572 1.419 . S
C574 C575 1.363 . S
C574 H577 0.929 . S
C575 C574 1.363 . S
C575 C581 1.428 . S
H576 C572 0.930 . S
H577 C574 0.929 . S
S578 N579 1.613 . S
S578 N580 1.610 . S
N579 S578 1.613 . S
N579 C582 1.350 . S
N580 S578 1.610 . S
N580 C581 1.351 . S
C581 C575 1.428 . S
C581 N580 1.351 . S
C581 C582 1.434 . S
C582 C573 1.429 . S
C582 N579 1.350 . S
C582 C581 1.434 . S
C583 C584 1.369 . S
C583 C585 1.419 . S
C583 H587 0.930 . S
C584 C583 1.369 . S
C584 C593 1.429 . S
C585 C583 1.419 . S
C585 C586 1.363 . S
C585 H588 0.929 . S
C586 C585 1.363 . S
C586 C592 1.428 . S
H587 C583 0.930 . S
H588 C585 0.929 . S
S589 N590 1.613 . S
S589 N591 1.610 . S
N590 S589 1.613 . S
N590 C593 1.350 . S
N591 S589 1.610 . S
N591 C592 1.351 . S
C592 C586 1.428 . S
C592 N591 1.351 . S
C592 C593 1.434 . S
C593 C584 1.429 . S
C593 N590 1.350 . S
C593 C592 1.434 . S
C594 C595 1.369 . S
C594 C596 1.419 . S
C594 H598 0.930 . S
C595 C594 1.369 . S
C595 C604 1.429 . S
C596 C594 1.419 . S
C596 C597 1.363 . S
C596 H599 0.929 . S
C597 C596 1.363 . S
C597 C603 1.428 . S
H598 C594 0.930 . S
H599 C596 0.929 . S
S600 N601 1.613 . S
S600 N602 1.610 . S
N601 S600 1.613 . S
N601 C604 1.350 . S
N602 S600 1.610 . S
N602 C603 1.351 . S
C603 C597 1.428 . S
C603 N602 1.351 . S
C603 C604 1.434 . S
C604 C595 1.429 . S
C604 N601 1.350 . S
C604 C603 1.434 . S
C605 C606 1.369 . S
C605 C607 1.419 . S
C605 H609 0.930 . S
C606 C605 1.369 . S
C606 C615 1.429 . S
C607 C605 1.419 . S
C607 C608 1.363 . S
C607 H610 0.929 . S
C608 C607 1.363 . S
C608 C614 1.428 . S
H609 C605 0.930 . S
H610 C607 0.929 . S
S611 N612 1.613 . S
S611 N613 1.610 . S
N612 S611 1.613 . S
N612 C615 1.350 . S
N613 S611 1.610 . S
N613 C614 1.351 . S
C614 C608 1.428 . S
C614 N613 1.351 . S
C614 C615 1.434 . S
C615 C606 1.429 . S
C615 N612 1.350 . S
C615 C614 1.434 . S
C616 C617 1.369 . S
C616 C618 1.419 . S
C616 H620 0.930 . S
C617 C616 1.369 . S
C617 C626 1.429 . S
C618 C616 1.419 . S
C618 C619 1.363 . S
C618 H621 0.929 . S
C619 C618 1.363 . S
C619 C625 1.428 . S
H620 C616 0.930 . S
H621 C618 0.929 . S
S622 N623 1.613 . S
S622 N624 1.610 . S
N623 S622 1.613 . S
N623 C626 1.350 . S
N624 S622 1.610 . S
N624 C625 1.351 . S
C625 C619 1.428 . S
C625 N624 1.351 . S
C625 C626 1.434 . S
C626 C617 1.429 . S
C626 N623 1.350 . S
C626 C625 1.434 . S
C627 C628 1.369 . S
C627 C629 1.419 . S
C627 H631 0.930 . S
C628 C627 1.369 . S
C628 C637 1.429 . S
C629 C627 1.419 . S
C629 C630 1.363 . S
C629 H632 0.929 . S
C630 C629 1.363 . S
C630 C636 1.428 . S
H631 C627 0.930 . S
H632 C629 0.929 . S
S633 N634 1.613 . S
S633 N635 1.610 . S
N634 S633 1.613 . S
N634 C637 1.350 . S
N635 S633 1.610 . S
N635 C636 1.351 . S
C636 C630 1.428 . S
C636 N635 1.351 . S
C636 C637 1.434 . S
C637 C628 1.429 . S
C637 N634 1.350 . S
C637 C636 1.434 . S
C638 C639 1.369 . S
C638 C640 1.419 . S
C638 H642 0.930 . S
C639 C638 1.369 . S
C639 C648 1.429 . S
C640 C638 1.419 . S
C640 C641 1.363 . S
C640 H643 0.929 . S
C641 C640 1.363 . S
C641 C647 1.428 . S
H642 C638 0.930 . S
H643 C640 0.929 . S
S644 N645 1.613 . S
S644 N646 1.610 . S
N645 S644 1.613 . S
N645 C648 1.350 . S
N646 S644 1.610 . S
N646 C647 1.351 . S
C647 C641 1.428 . S
C647 N646 1.351 . S
C647 C648 1.434 . S
C648 C639 1.429 . S
C648 N645 1.350 . S
C648 C647 1.434 . S
C649 C650 1.369 . S
C649 C651 1.419 . S
C649 H653 0.930 . S
C650 C649 1.369 . S
C650 C659 1.429 . S
C651 C649 1.419 . S
C651 C652 1.363 . S
C651 H654 0.929 . S
C652 C651 1.363 . S
C652 C658 1.428 . S
H653 C649 0.930 . S
H654 C651 0.929 . S
S655 N656 1.613 . S
S655 N657 1.610 . S
N656 S655 1.613 . S
N656 C659 1.350 . S
N657 S655 1.610 . S
N657 C658 1.351 . S
C658 C652 1.428 . S
C658 N657 1.351 . S
C658 C659 1.434 . S
C659 C650 1.429 . S
C659 N656 1.350 . S
C659 C658 1.434 . S
C660 C661 1.369 . S
C660 C662 1.419 . S
C660 H664 0.930 . S
C661 C660 1.369 . S
C661 C670 1.429 . S
C662 C660 1.419 . S
C662 C663 1.363 . S
C662 H665 0.929 . S
C663 C662 1.363 . S
C663 C669 1.428 . S
H664 C660 0.930 . S
H665 C662 0.929 . S
S666 N667 1.613 . S
S666 N668 1.610 . S
N667 S666 1.613 . S
N667 C670 1.350 . S
N668 S666 1.610 . S
N668 C669 1.351 . S
C669 C663 1.428 . S
C669 N668 1.351 . S
C669 C670 1.434 . S
C670 C661 1.429 . S
C670 N667 1.350 . S
C670 C669 1.434 . S
C671 C672 1.369 . S
C671 C673 1.419 . S
C671 H675 0.930 . S
C672 C671 1.369 . S
C672 C681 1.429 . S
C673 C671 1.419 . S
C673 C674 1.363 . S
C673 H676 0.929 . S
C674 C673 1.363 . S
C674 C680 1.428 . S
H675 C671 0.930 . S
H676 C673 0.929 . S
S677 N678 1.613 . S
S677 N679 1.610 . S
N678 S677 1.613 . S
N678 C681 1.350 . S
N679 S677 1.610 . S
N679 C680 1.351 . S
C680 C674 1.428 . S
C680 N679 1.351 . S
C680 C681 1.434 . S
C681 C672 1.429 . S
C681 N678 1.350 . S
C681 C680 1.434 . S
C682 C683 1.369 . S
C682 C684 1.419 . S
C682 H686 0.930 . S
C683 C682 1.369 . S
C683 C692 1.429 . S
C684 C682 1.419 . S
C684 C685 1.363 . S
C684 H687 0.929 . S
C685 C684 1.363 . S
C685 C691 1.428 . S
H686 C682 0.930 . S
H687 C684 0.929 . S
S688 N689 1.613 . S
S688 N690 1.610 . S
N689 S688 1.613 . S
N689 C692 1.350 . S
N690 S688 1.610 . S
N690 C691 1.351 . S
C691 C685 1.428 . S
C691 N690 1.351 . S
C691 C692 1.434 . S
C692 C683 1.429 . S
C692 N689 1.350 . S
C692 C691 1.434 . S
C693 C694 1.369 . S
C693 C695 1.419 . S
C693 H697 0.930 . S
C694 C693 1.369 . S
C694 C703 1.429 . S
C695 C693 1.419 . S
C695 C696 1.363 . S
C695 H698 0.929 . S
C696 C695 1.363 . S
C696 C702 1.428 . S
H697 C693 0.930 . S
H698 C695 0.929 . S
S699 N700 1.613 . S
S699 N701 1.610 . S
N700 S699 1.613 . S
N700 C703 1.350 . S
N701 S699 1.610 . S
N701 C702 1.351 . S
C702 C696 1.428 . S
C702 N701 1.351 . S
C702 C703 1.434 . S
C703 C694 1.429 . S
C703 N700 1.350 . S
C703 C702 1.434 . S
C704 C705 1.369 . S
C704 C706 1.419 . S
C704 H708 0.930 . S
C705 C704 1.369 . S
C705 C714 1.429 . S
C706 C704 1.419 . S
C706 C707 1.363 . S
C706 H709 0.929 . S
C707 C706 1.363 . S
C707 C713 1.428 . S
H708 C704 0.930 . S
H709 C706 0.929 . S
S710 N711 1.613 . S
S710 N712 1.610 . S
N711 S710 1.613 . S
N711 C714 1.350 . S
N712 S710 1.610 . S
N712 C713 1.351 . S
C713 C707 1.428 . S
C713 N712 1.351 . S
C713 C714 1.434 . S
C714 C705 1.429 . S
C714 N711 1.350 . S
C714 C713 1.434 . S
C715 C716 1.369 . S
C715 C717 1.419 . S
C715 H719 0.930 . S
C716 C715 1.369 . S
C716 C725 1.429 . S
C717 C715 1.419 . S
C717 C718 1.363 . S
C717 H720 0.929 . S
C718 C717 1.363 . S
C718 C724 1.428 . S
H719 C715 0.930 . S
H720 C717 0.929 . S
S721 N722 1.613 . S
S721 N723 1.610 . S
N722 S721 1.613 . S
N722 C725 1.350 . S
N723 S721 1.610 . S
N723 C724 1.351 . S
C724 C718 1.428 . S
C724 N723 1.351 . S
C724 C725 1.434 . S
C725 C716 1.429 . S
C725 N722 1.350 . S
C725 C724 1.434 . S
C726 C727 1.369 . S
C726 C728 1.419 . S
C726 H730 0.930 . S
C727 C726 1.369 . S
C727 C736 1.429 . S
C728 C726 1.419 . S
C728 C729 1.363 . S
C728 H731 0.929 . S
C729 C728 1.363 . S
C729 C735 1.428 . S
H730 C726 0.930 . S
H731 C728 0.929 . S
S732 N733 1.613 . S
S732 N734 1.610 . S
N733 S732 1.613 . S
N733 C736 1.350 . S
N734 S732 1.610 . S
N734 C735 1.351 . S
C735 C729 1.428 . S
C735 N734 1.351 . S
C735 C736 1.434 . S
C736 C727 1.429 . S
C736 N733 1.350 . S
C736 C735 1.434 . S
C737 C738 1.369 . S
C737 C739 1.419 . S
C737 H741 0.930 . S
C738 C737 1.369 . S
C738 C747 1.429 . S
C739 C737 1.419 . S
C739 C740 1.363 . S
C739 H742 0.929 . S
C740 C739 1.363 . S
C740 C746 1.428 . S
H741 C737 0.930 . S
H742 C739 0.929 . S
S743 N744 1.613 . S
S743 N745 1.610 . S
N744 S743 1.613 . S
N744 C747 1.350 . S
N745 S743 1.610 . S
N745 C746 1.351 . S
C746 C740 1.428 . S
C746 N745 1.351 . S
C746 C747 1.434 . S
C747 C738 1.429 . S
C747 N744 1.350 . S
C747 C746 1.434 . S
C748 C749 1.369 . S
C748 C750 1.419 1_556 S
C748 H752 0.930 . S
C749 C748 1.369 . S
C749 C758 1.429 . S
C750 C748 1.419 1_554 S
C750 C751 1.363 . S
C750 H753 0.929 . S
C751 C750 1.363 . S
C751 C757 1.428 1_554 S
H752 C748 0.930 . S
H753 C750 0.929 . S
S754 N755 1.613 . S
S754 N756 1.610 . S
N755 S754 1.613 . S
N755 C758 1.350 . S
N756 S754 1.610 . S
N756 C757 1.351 . S
C757 C751 1.428 1_556 S
C757 N756 1.351 . S
C757 C758 1.434 . S
C758 C749 1.429 . S
C758 N755 1.350 . S
C758 C757 1.434 . S
C759 C760 1.369 . S
C759 C761 1.419 1_554 S
C759 H763 0.930 . S
C760 C759 1.369 . S
C760 C769 1.429 . S
C761 C759 1.419 1_556 S
C761 C762 1.363 . S
C761 H764 0.929 . S
C762 C761 1.363 . S
C762 C768 1.428 . S
H763 C759 0.930 . S
H764 C761 0.929 . S
S765 N766 1.613 1_556 S
S765 N767 1.610 . S
N766 S765 1.613 1_554 S
N766 C769 1.350 . S
N767 S765 1.610 . S
N767 C768 1.351 . S
C768 C762 1.428 . S
C768 N767 1.351 . S
C768 C769 1.434 1_556 S
C769 C760 1.429 . S
C769 N766 1.350 . S
C769 C768 1.434 1_554 S
C770 C771 1.369 . S
C770 C772 1.419 1_556 S
C770 H774 0.930 . S
C771 C770 1.369 . S
C771 C780 1.429 . S
C772 C770 1.419 1_554 S
C772 C773 1.363 . S
C772 H775 0.929 . S
C773 C772 1.363 . S
C773 C779 1.428 1_554 S
H774 C770 0.930 . S
H775 C772 0.929 . S
S776 N777 1.613 . S
S776 N778 1.610 . S
N777 S776 1.613 . S
N777 C780 1.350 . S
N778 S776 1.610 . S
N778 C779 1.351 . S
C779 C773 1.428 1_556 S
C779 N778 1.351 . S
C779 C780 1.434 . S
C780 C771 1.429 . S
C780 N777 1.350 . S
C780 C779 1.434 . S
C781 C782 1.369 . S
C781 C783 1.419 1_554 S
C781 H785 0.930 . S
C782 C781 1.369 . S
C782 C791 1.429 . S
C783 C781 1.419 1_556 S
C783 C784 1.363 . S
C783 H786 0.929 . S
C784 C783 1.363 . S
C784 C790 1.428 . S
H785 C781 0.930 . S
H786 C783 0.929 . S
S787 N788 1.613 1_556 S
S787 N789 1.610 . S
N788 S787 1.613 1_554 S
N788 C791 1.350 . S
N789 S787 1.610 . S
N789 C790 1.351 . S
C790 C784 1.428 . S
C790 N789 1.351 . S
C790 C791 1.434 1_556 S
C791 C782 1.429 . S
C791 N788 1.350 . S
C791 C790 1.434 1_554 S
C792 C793 1.369 . S
C792 C794 1.419 . S
C792 H796 0.930 . S
C793 C792 1.369 . S
C793 C802 1.429 . S
C794 C792 1.419 . S
C794 C795 1.363 . S
C794 H797 0.929 . S
C795 C794 1.363 . S
C795 C801 1.428 . S
H796 C792 0.930 . S
H797 C794 0.929 . S
S798 N799 1.613 . S
S798 N800 1.610 . S
N799 S798 1.613 . S
N799 C802 1.350 . S
N800 S798 1.610 . S
N800 C801 1.351 . S
C801 C795 1.428 . S
C801 N800 1.351 . S
C801 C802 1.434 . S
C802 C793 1.429 . S
C802 N799 1.350 . S
C802 C801 1.434 . S
C803 C804 1.369 . S
C803 C805 1.419 . S
C803 H807 0.930 . S
C804 C803 1.369 . S
C804 C813 1.429 . S
C805 C803 1.419 . S
C805 C806 1.363 . S
C805 H808 0.929 . S
C806 C805 1.363 . S
C806 C812 1.428 . S
H807 C803 0.930 . S
H808 C805 0.929 . S
S809 N810 1.613 . S
S809 N811 1.610 . S
N810 S809 1.613 . S
N810 C813 1.350 . S
N811 S809 1.610 . S
N811 C812 1.351 . S
C812 C806 1.428 . S
C812 N811 1.351 . S
C812 C813 1.434 . S
C813 C804 1.429 . S
C813 N810 1.350 . S
C813 C812 1.434 . S
C814 C815 1.369 . S
C814 C816 1.419 . S
C814 H818 0.930 . S
C815 C814 1.369 . S
C815 C824 1.429 . S
C816 C814 1.419 . S
C816 C817 1.363 . S
C816 H819 0.929 . S
C817 C816 1.363 . S
C817 C823 1.428 . S
H818 C814 0.930 . S
H819 C816 0.929 . S
S820 N821 1.613 . S
S820 N822 1.610 . S
N821 S820 1.613 . S
N821 C824 1.350 . S
N822 S820 1.610 . S
N822 C823 1.351 . S
C823 C817 1.428 . S
C823 N822 1.351 . S
C823 C824 1.434 . S
C824 C815 1.429 . S
C824 N821 1.350 . S
C824 C823 1.434 . S
C825 C826 1.369 . S
C825 C827 1.419 . S
C825 H829 0.930 . S
C826 C825 1.369 . S
C826 C835 1.429 . S
C827 C825 1.419 . S
C827 C828 1.363 . S
C827 H830 0.929 . S
C828 C827 1.363 . S
C828 C834 1.428 . S
H829 C825 0.930 . S
H830 C827 0.929 . S
S831 N832 1.613 . S
S831 N833 1.610 . S
N832 S831 1.613 . S
N832 C835 1.350 . S
N833 S831 1.610 . S
N833 C834 1.351 . S
C834 C828 1.428 . S
C834 N833 1.351 . S
C834 C835 1.434 . S
C835 C826 1.429 . S
C835 N832 1.350 . S
C835 C834 1.434 . S
C836 C837 1.369 1_554 S
C836 C838 1.419 . S
C836 H840 0.930 . S
C837 C836 1.369 1_556 S
C837 C846 1.429 . S
C838 C836 1.419 . S
C838 C839 1.363 . S
C838 H841 0.929 . S
C839 C838 1.363 . S
C839 C845 1.428 . S
H840 C836 0.930 . S
H841 C838 0.929 . S
S842 N843 1.613 . S
S842 N844 1.610 1_556 S
N843 S842 1.613 . S
N843 C846 1.350 . S
N844 S842 1.610 1_554 S
N844 C845 1.351 . S
C845 C839 1.428 . S
C845 N844 1.351 . S
C845 C846 1.434 1_554 S
C846 C837 1.429 . S
C846 N843 1.350 . S
C846 C845 1.434 1_556 S
C847 C848 1.369 . S
C847 C849 1.419 1_556 S
C847 H851 0.930 . S
C848 C847 1.369 . S
C848 C857 1.429 1_556 S
C849 C847 1.419 1_554 S
C849 C850 1.363 . S
C849 H852 0.929 . S
C850 C849 1.363 . S
C850 C856 1.428 . S
H851 C847 0.930 . S
H852 C849 0.929 . S
S853 N854 1.613 . S
S853 N855 1.610 . S
N854 S853 1.613 . S
N854 C857 1.350 . S
N855 S853 1.610 . S
N855 C856 1.351 . S
C856 C850 1.428 . S
C856 N855 1.351 . S
C856 C857 1.434 . S
C857 C848 1.429 1_554 S
C857 N854 1.350 . S
C857 C856 1.434 . S
C858 C859 1.369 . S
C858 C860 1.419 1_554 S
C858 H862 0.930 . S
C859 C858 1.369 . S
C859 C868 1.429 . S
C860 C858 1.419 1_556 S
C860 C861 1.363 . S
C860 H863 0.929 . S
C861 C860 1.363 . S
C861 C867 1.428 . S
H862 C858 0.930 . S
H863 C860 0.929 . S
S864 N865 1.613 1_556 S
S864 N866 1.610 . S
N865 S864 1.613 1_554 S
N865 C868 1.350 . S
N866 S864 1.610 . S
N866 C867 1.351 . S
C867 C861 1.428 . S
C867 N866 1.351 . S
C867 C868 1.434 1_556 S
C868 C859 1.429 . S
C868 N865 1.350 . S
C868 C867 1.434 1_554 S
C869 C870 1.369 . S
C869 C871 1.419 . S
C869 H873 0.930 . S
C870 C869 1.369 . S
C870 C879 1.429 . S
C871 C869 1.419 . S
C871 C872 1.363 1_554 S
C871 H874 0.929 . S
C872 C871 1.363 1_556 S
C872 C878 1.428 . S
H873 C869 0.930 . S
H874 C871 0.929 . S
S875 N876 1.613 1_556 S
S875 N877 1.610 . S
N876 S875 1.613 1_554 S
N876 C879 1.350 . S
N877 S875 1.610 . S
N877 C878 1.351 . S
C878 C872 1.428 . S
C878 N877 1.351 . S
C878 C879 1.434 1_556 S
C879 C870 1.429 . S
C879 N876 1.350 . S
C879 C878 1.434 1_554 S
C353 C5 2.236 . S
C355 C119 2.232 . S
C364 C141 2.230 . S
C366 C27 2.237 . S
C375 C49 2.230 . S
C377 C163 2.237 . S
C386 C75 2.232 . S
C388 C93 2.239 . S
C397 C293 2.240 . S
C399 C182 2.232 . S
C408 C315 2.231 . S
C410 C205 2.235 . S
C419 C227 2.231 . S
C421 C336 2.235 . S
C430 C249 2.240 . S
C432 C271 2.233 . S
C441 C4 1.658 . S
C443 C73 1.518 . S
C452 C26 1.660 . S
C454 C6 1.518 . S
C463 C48 1.661 . S
C465 C28 1.523 . S
C474 C74 1.660 . S
C476 C50 1.526 . S
C485 C92 1.659 . S
C487 C117 1.526 . S
C496 C139 1.515 . S
C498 C118 1.659 . S
C507 C140 1.661 . S
C509 C161 1.521 . S
C518 C94 1.525 . S
C520 C162 1.658 . S
C529 C251 1.525 . S
C531 C180 1.661 . S
C540 C206 1.660 . S
C542 C181 1.526 . S
C551 C228 1.661 . S
C553 C207 1.522 . S
C562 C250 1.661 . S
C564 C229 1.522 . S
C573 C272 1.661 . S
C575 C295 1.526 . S
C584 C294 1.661 . S
C586 C317 1.526 . S
C595 C316 1.660 . S
C597 C335 1.526 . S
C606 C334 1.661 . S
C608 C273 1.526 . S
C617 C7 0.631 . S
C619 C51 0.623 . S
C628 C29 0.636 . S
C630 C72 0.616 . S
C639 C138 0.613 . S
C641 C95 0.633 . S
C650 C160 0.612 . S
C652 C116 0.630 . S
C661 C225 0.614 . S
C663 C185 0.633 . S
C672 C247 0.633 . S
C674 C203 0.615 . S
C683 C269 0.632 . S
C685 C313 0.615 . S
C694 C291 0.614 . S
C696 C339 0.633 . S
C705 C8 1.344 . S
C707 C248 1.332 . S
C716 C183 1.330 . S
C718 C30 1.345 . S
C727 C52 1.343 . S
C729 C204 1.335 . S
C738 C226 1.332 . S
C740 C70 1.344 . S
C749 C292 1.333 . S
C751 C96 1.344 . S
C760 C114 1.344 . S
C762 C314 1.334 . S
C771 C337 1.332 . S
C773 C136 1.344 . S
C782 C158 1.344 . S
C784 C270 1.333 . S
C793 C184 1.345 . S
C795 C71 1.332 . S
C804 C202 1.343 . S
C806 C9 1.335 . S
C815 C31 1.330 . S
C817 C224 1.345 . S
C826 C246 1.345 . S
C828 C53 1.331 . S
C837 C268 1.345 . S
C839 C115 1.332 . S
C848 C290 1.343 . S
C850 C137 1.334 . S
C859 C159 1.333 . S
C861 C312 1.344 . S
C870 C97 1.331 . S
C872 C338 1.345 . S
