# Generated by pormake.
# Topology unh, (4)-cn, num edge types: 1
# Building blocks:
#     Node 0, Type 0, BuildingBlock: QUQFOY_clean_sbu_1, # of connection points: 4
#     Node 1, Type 0, BuildingBlock: QUQFOY_clean_sbu_1, # of connection points: 4
#     Node 2, Type 0, BuildingBlock: QUQFOY_clean_sbu_1, # of connection points: 4
#     Node 3, Type 0, BuildingBlock: QUQFOY_clean_sbu_1, # of connection points: 4
#     Node 4, Type 0, BuildingBlock: QUQFOY_clean_sbu_1, # of connection points: 4
#     Node 5, Type 0, BuildingBlock: QUQFOY_clean_sbu_1, # of connection points: 4
#     Edge 6, Type (0, 0), BuildingBlock: FUNLAD_clean_linker_1, # of connection points: 2
#     Edge 7, Type (0, 0), BuildingBlock: FUNLAD_clean_linker_1, # of connection points: 2
#     Edge 8, Type (0, 0), BuildingBlock: FUNLAD_clean_linker_1, # of connection points: 2
#     Edge 9, Type (0, 0), BuildingBlock: FUNLAD_clean_linker_1, # of connection points: 2
#     Edge 10, Type (0, 0), BuildingBlock: FUNLAD_clean_linker_1, # of connection points: 2
#     Edge 11, Type (0, 0), BuildingBlock: FUNLAD_clean_linker_1, # of connection points: 2
#     Edge 12, Type (0, 0), BuildingBlock: FUNLAD_clean_linker_1, # of connection points: 2
#     Edge 13, Type (0, 0), BuildingBlock: FUNLAD_clean_linker_1, # of connection points: 2
#     Edge 14, Type (0, 0), BuildingBlock: FUNLAD_clean_linker_1, # of connection points: 2
#     Edge 15, Type (0, 0), BuildingBlock: FUNLAD_clean_linker_1, # of connection points: 2
#     Edge 16, Type (0, 0), BuildingBlock: FUNLAD_clean_linker_1, # of connection points: 2
#     Edge 17, Type (0, 0), BuildingBlock: FUNLAD_clean_linker_1, # of connection points: 2
# Relax obj value: 0.055
# Max RMSD: 0.146
# Mean RMSD: 0.146
data_MOF--net-unh--node1-QUQFOY_clean_sbu_1--edge1-FUNLAD_clean_linker_1
_symmetry_space_group_name_H-M    P1
_symmetry_Int_Tables_number       1
_symmetry_cell_setting            triclinic
loop_
_symmetry_equiv_pos_as_xyz
'x, y, z'
_cell_length_a     45.125256
_cell_length_b     45.28747
_cell_length_c     23.485491
_cell_angle_alpha  89.998771
_cell_angle_beta   90.543638
_cell_angle_gamma 119.90322
loop_
_atom_site_label
_atom_site_type_symbol
_atom_site_fract_x
_atom_site_fract_y
_atom_site_fract_z
_atom_type_partial_charge
O0 O 0.09736 0.57204 0.0306 0.0
Cd1 Cd 0.13222 0.59736 0.09546 0.0
Cd2 Cd 0.1653 0.56944 0.04334 0.0
O3 O 0.11904 0.54062 1.00063 0.0
O4 O 0.10586 0.60351 0.15791 0.0
O5 O 0.12885 0.57032 0.16481 0.0
C6 C 0.11043 0.58178 0.18671 0.0
C7 C 0.19327 0.546 0.09415 0.0
C8 C 0.0955 0.54834 0.99915 0.0
C9 C 0.19772 0.64572 0.04018 0.0
O10 O 0.19617 0.61933 0.01805 0.0
O11 O 0.17601 0.64291 0.07706 0.0
O12 O 0.19321 0.54623 0.03922 0.0
O13 O 0.17606 0.55757 0.12019 0.0
O14 O 0.51351 0.07806 0.20511 0.0
Cd15 Cd 0.51179 0.11147 0.26242 0.0
Cd16 Cd 0.57805 0.14969 0.23325 0.0
O17 O 0.56938 0.10525 0.19227 0.0
O18 O 0.47157 0.08343 0.31177 0.0
O19 O 0.52522 0.10852 0.34291 0.0
C20 C 0.49307 0.08863 0.35239 0.0
C21 C 0.62139 0.17866 0.3009 0.0
C22 C 0.53985 0.07952 0.1834 0.0
C23 C 0.53028 0.17546 0.19971 0.0
O24 O 0.55962 0.17832 0.19393 0.0
O25 O 0.50744 0.15142 0.22903 0.0
O26 O 0.62826 0.18041 0.24734 0.0
O27 O 0.59012 0.15931 0.31622 0.0
O28 O 0.46483 0.54067 0.34204 0.0
Cd29 Cd 0.4265 0.52985 0.39953 0.0
Cd30 Cd 0.45576 0.59887 0.40286 0.0
O31 O 0.49144 0.59675 0.3505 0.0
O32 O 0.41426 0.48569 0.43734 0.0
O33 O 0.43961 0.53557 0.48213 0.0
C34 C 0.42806 0.5031 0.48317 0.0
C35 C 0.47359 0.63746 0.47897 0.0
C36 C 0.48941 0.56996 0.32928 0.0
C37 C 0.38273 0.55733 0.35787 0.0
O38 O 0.4087 0.58636 0.36769 0.0
O39 O 0.38336 0.53019 0.36929 0.0
O40 O 0.47505 0.6474 0.42712 0.0
O41 O 0.4631 0.60565 0.48775 0.0
O42 O 0.92934 0.44799 0.52101 0.0
Cd43 Cd 0.89814 0.41379 0.58109 0.0
Cd44 Cd 0.8585 0.44187 0.55848 0.0
O45 O 0.90091 0.47574 0.51239 0.0
O46 O 0.92824 0.40262 0.62808 0.0
O47 O 0.90405 0.43131 0.66134 0.0
C48 C 0.92451 0.41936 0.66912 0.0
C49 C 0.83139 0.46266 0.61698 0.0
C50 C 0.92645 0.47236 0.50031 0.0
C51 C 0.83014 0.3676 0.52753 0.0
O52 O 0.82693 0.39391 0.52414 0.0
O53 O 0.85627 0.36923 0.55164 0.0
O54 O 0.82965 0.46376 0.56235 0.0
O55 O 0.84943 0.45056 0.63905 0.0
O56 O 0.50041 0.92921 0.70454 0.0
Cd57 Cd 0.49799 0.89502 0.76508 0.0
Cd58 Cd 0.43157 0.86491 0.73844 0.0
O59 O 0.44501 0.91075 0.69907 0.0
O60 O 0.53896 0.92049 0.81549 0.0
O61 O 0.48583 0.9022 0.84369 0.0
C62 C 0.51832 0.91917 0.85434 0.0
C63 C 0.38485 0.83723 0.79861 0.0
C64 C 0.47561 0.93245 0.68618 0.0
C65 C 0.46978 0.82884 0.70561 0.0
O66 O 0.44377 0.8322 0.69737 0.0
O67 O 0.49446 0.84993 0.73696 0.0
O68 O 0.38075 0.8383 0.74443 0.0
O69 O 0.41555 0.85368 0.81937 0.0
O70 O 0.57164 0.48726 0.85464 0.0
Cd71 Cd 0.60323 0.48517 0.9163 0.0
Cd72 Cd 0.56501 0.41653 0.89075 0.0
O73 O 0.53606 0.432 0.84286 0.0
O74 O 0.61592 0.52354 0.972 0.0
O75 O 0.5827 0.46895 0.99251 0.0
C76 C 0.59657 0.50042 0.00787 0.0
C77 C 0.54345 0.3728 0.95779 0.0
C78 C 0.54509 0.46289 0.83165 0.0
C79 C 0.64091 0.45387 0.8641 0.0
O80 O 0.61177 0.4272 0.85908 0.0
O81 O 0.64427 0.48042 0.88882 0.0
O82 O 0.53895 0.36591 0.90398 0.0
O83 O 0.55805 0.40427 0.97331 0.0
H84 H 0.0476 0.53976 0.95869 0.0
C85 C 0.06614 0.53107 0.95942 0.0
H86 H 0.0798 0.49674 0.92354 0.0
H87 H 0.92873 0.39901 0.82833 0.0
H88 H 0.9313 0.36473 0.90559 0.0
H89 H 0.9805 0.38817 0.97217 0.0
H90 H 0.02743 0.44611 0.96206 0.0
C91 C 0.06218 0.50653 0.9228 0.0
C92 C 0.03329 0.49188 0.88078 0.0
C93 C 1.00636 0.4578 0.88662 0.0
C94 C 0.97814 0.44412 0.84774 0.0
C95 C 0.95111 0.41039 0.85578 0.0
C96 C 0.95217 0.39051 0.90017 0.0
C97 C 0.97986 0.40372 0.93771 0.0
C98 C 1.00664 0.43699 0.93136 0.0
H99 H 0.96274 0.41645 0.72421 0.0
C100 C 0.9459 0.42713 0.721 0.0
H101 H 0.93328 0.46241 0.75537 0.0
H102 H 0.08242 0.55693 0.85337 0.0
H103 H 0.08004 0.59102 0.77595 0.0
H104 H 0.03066 0.56778 0.70982 0.0
H105 H 0.98347 0.51026 0.72056 0.0
C106 C 0.94862 0.45015 0.75987 0.0
C107 C 0.97717 0.4644 0.80253 0.0
C108 C 1.00422 0.49845 0.7965 0.0
C109 C 0.03247 0.51206 0.8352 0.0
C110 C 0.05982 0.54561 0.82645 0.0
C111 C 0.05894 0.56541 0.78182 0.0
C112 C 0.03116 0.55232 0.74456 0.0
C113 C 1.00416 0.51923 0.75139 0.0
H114 H 0.55975 0.95338 0.91312 0.0
C115 C 0.53218 0.93972 0.90674 0.0
H116 H 0.48497 0.93289 0.93576 0.0
H117 H 0.54585 0.99869 0.17928 0.0
H118 H 0.52041 0.93899 0.2046 0.0
H119 H 0.4981 0.89427 0.13034 0.0
H120 H 0.50128 0.909 0.03022 0.0
C121 C 0.51254 0.94594 0.94175 0.0
C122 C 0.52786 0.97301 0.98635 0.0
C123 C 0.52555 0.964 0.04454 0.0
C124 C 0.53792 0.98976 0.0874 0.0
C125 C 0.53601 0.98007 0.14515 0.0
C126 C 0.5217 0.94593 0.16021 0.0
C127 C 0.50917 0.92076 0.11839 0.0
C128 C 0.51108 0.92953 0.06114 0.0
H129 H 0.50883 0.03061 0.13914 0.0
C130 C 0.53489 0.05135 0.1456 0.0
H131 H 0.58625 0.07222 0.12026 0.0
H132 H 0.53599 0.99927 0.87856 0.0
H133 H 0.56221 0.05884 0.85345 0.0
H134 H 0.58441 0.10349 0.92773 0.0
H135 H 0.58033 0.08874 0.02764 0.0
C136 C 0.56021 0.05113 0.11635 0.0
C137 C 0.552 0.02447 0.07199 0.0
C138 C 0.55564 0.0336 0.01366 0.0
C139 C 0.54322 0.00784 0.97079 0.0
C140 C 0.54565 0.01767 0.91296 0.0
C141 C 0.5605 0.05184 0.89787 0.0
C142 C 0.57297 0.07697 0.93968 0.0
C143 C 0.57048 0.06812 0.99694 0.0
H144 H 0.53469 0.59858 0.27481 0.0
C145 C 0.51509 0.5732 0.28737 0.0
H146 H 0.49486 0.52028 0.27558 0.0
H147 H 0.56481 0.56727 0.02487 0.0
H148 H 0.52263 0.58444 1.00716 0.0
H149 H 0.48649 0.58511 0.08468 0.0
H150 H 0.49243 0.56876 0.18035 0.0
C151 C 0.51375 0.54582 0.26248 0.0
C152 C 0.53781 0.54892 0.21683 0.0
C153 C 0.53413 0.55883 0.16106 0.0
C154 C 0.55472 0.55806 0.11617 0.0
C155 C 0.55002 0.56745 0.06068 0.0
C156 C 0.52581 0.57732 0.04982 0.0
C157 C 0.50549 0.57772 0.09347 0.0
C158 C 0.50934 0.56843 0.14839 0.0
H159 H 0.57049 0.48791 0.09024 0.0
C160 C 0.58754 0.50899 0.06322 0.0
H161 H 0.61151 0.56202 0.05012 0.0
H162 H 0.55286 0.53068 0.31937 0.0
H163 H 0.59609 0.51474 0.33763 0.0
H164 H 0.6324 0.51432 0.26009 0.0
H165 H 0.62555 0.52961 0.1637 0.0
C166 C 0.59583 0.54088 0.07802 0.0
C167 C 0.5785 0.54681 0.12689 0.0
C168 C 0.58337 0.5386 0.18321 0.0
C169 C 0.56278 0.53935 0.22808 0.0
C170 C 0.56777 0.53046 0.28371 0.0
C171 C 0.59256 0.52138 0.29481 0.0
C172 C 0.61298 0.5211 0.25114 0.0
C173 C 0.60862 0.52969 0.19595 0.0
H174 H 0.94749 0.51524 0.43969 0.0
C175 C 0.952 0.49617 0.45977 0.0
H176 H 0.98368 0.47417 0.46343 0.0
H177 H 0.03287 0.51399 0.2098 0.0
H178 H 0.99399 0.4534 0.19998 0.0
H179 H 0.95847 0.4198 0.28046 0.0
H180 H 0.96143 0.44676 0.37107 0.0
C181 C 0.97947 0.49382 0.44507 0.0
C182 C 1.00204 0.51437 0.39777 0.0
C183 C 1.0007 0.49804 0.34553 0.0
C184 C 0.02173 0.51729 0.29953 0.0
C185 C 0.01849 0.50054 0.2469 0.0
C186 C 0.996 0.46573 0.24046 0.0
C187 C 0.97597 0.44684 0.28572 0.0
C188 C 0.97803 0.46266 0.33761 0.0
H189 H 0.09772 0.5496 0.26308 0.0
C190 C 0.09262 0.56765 0.24073 0.0
H191 H 0.06182 0.59071 0.23699 0.0
H192 H 1.01212 0.5532 0.49312 0.0
H193 H 0.05095 0.61402 0.50295 0.0
H194 H 0.08732 0.64744 0.42305 0.0
H195 H 0.0852 0.62022 0.33283 0.0
C196 C 0.06736 0.57279 0.25871 0.0
C197 C 0.04485 0.55271 0.30647 0.0
C198 C 0.046 0.56907 0.35855 0.0
C199 C 0.02473 0.54985 0.40442 0.0
C200 C 0.02717 0.56668 0.45653 0.0
C201 C 0.04948 0.60155 0.46284 0.0
C202 C 0.06999 0.62037 0.41787 0.0
C203 C 0.06847 0.60445 0.3663 0.0
H204 H 0.45357 0.05405 0.41209 0.0
C205 C 0.481 0.06926 0.40575 0.0
H206 H 0.52985 0.08052 0.43582 0.0
H207 H 0.48234 0.01997 0.68262 0.0
H208 H 0.51241 0.0805 0.70445 0.0
H209 H 0.53208 0.12305 0.62755 0.0
H210 H 0.52177 0.10536 0.52831 0.0
C211 C 0.50236 0.06569 0.44164 0.0
C212 C 0.48935 0.0399 0.48798 0.0
C213 C 0.4957 0.05064 0.54568 0.0
C214 C 0.48461 0.0261 0.59004 0.0
C215 C 0.4908 0.03755 0.6473 0.0
C216 C 0.50785 0.0722 0.66041 0.0
C217 C 0.5189 0.09616 0.61711 0.0
C218 C 0.51289 0.08567 0.56034 0.0
H219 H 0.50966 0.97841 0.6374 0.0
C220 C 0.48304 0.96099 0.64762 0.0
H221 H 0.43169 0.94706 0.62985 0.0
H222 H 0.47609 0.01014 0.38168 0.0
H223 H 0.44556 0.94984 0.36038 0.0
H224 H 0.42406 0.90744 0.43746 0.0
H225 H 0.43342 0.92526 0.53641 0.0
C226 C 0.45851 0.96499 0.62215 0.0
C227 C 0.46741 0.99085 0.57657 0.0
C228 C 0.46042 0.98006 0.51894 0.0
C229 C 0.47197 1.00455 0.47452 0.0
C230 C 0.4667 0.99288 0.4173 0.0
C231 C 0.44946 0.95822 0.40436 0.0
C232 C 0.43742 0.93435 0.44774 0.0
C233 C 0.44294 0.94497 0.5044 0.0
H234 H 0.53565 0.49853 0.78192 0.0
C235 C 0.52648 0.4716 0.78898 0.0
H236 H 0.49124 0.42146 0.76147 0.0
H237 H 0.39845 0.47433 0.63984 0.0
H238 H 0.36186 0.44209 0.71826 0.0
H239 H 0.38235 0.41772 0.79238 0.0
H240 H 0.43958 0.42542 0.78862 0.0
C241 C 0.50129 0.44858 0.75532 0.0
C242 C 0.48753 0.46011 0.70753 0.0
C243 C 0.45388 0.45492 0.70983 0.0
C244 C 0.442 0.46888 0.66693 0.0
C245 C 0.40859 0.46401 0.67101 0.0
C246 C 0.38738 0.44563 0.71584 0.0
C247 C 0.39893 0.43192 0.75761 0.0
C248 C 0.4318 0.43651 0.75496 0.0
H249 H 0.42238 0.45891 0.53195 0.0
C250 C 0.43276 0.48632 0.53362 0.0
H251 H 0.46458 0.5318 0.57884 0.0
H252 H 0.55117 0.46963 0.68463 0.0
H253 H 0.58732 0.50104 0.6056 0.0
H254 H 0.56757 0.52705 0.53328 0.0
H255 H 0.5114 0.52149 0.53929 0.0
C256 C 0.45253 0.50419 0.57809 0.0
C257 C 0.46378 0.48787 0.62172 0.0
C258 C 0.49698 0.49199 0.61829 0.0
C259 C 0.50867 0.47766 0.66068 0.0
C260 C 0.54142 0.48098 0.65477 0.0
C261 C 0.56235 0.49872 0.60931 0.0
C262 C 0.55121 0.51331 0.56855 0.0
C263 C 0.51891 0.50998 0.57263 0.0
H264 H 0.22677 0.52358 0.10167 0.0
C265 C 0.21482 0.53532 0.12562 0.0
H266 H 0.21157 0.55523 0.20513 0.0
H267 H 0.27433 0.4874 0.36152 0.0
H268 H 0.21514 0.45754 0.39147 0.0
H269 H 0.17113 0.46369 0.33833 0.0
H270 H 0.18602 0.49994 0.25514 0.0
C271 C 0.22341 0.54356 0.18073 0.0
C272 C 0.24977 0.53806 0.21009 0.0
C273 C 0.24059 0.5163 0.25806 0.0
C274 C 0.26592 0.51236 0.2883 0.0
C275 C 0.25609 0.49107 0.33675 0.0
C276 C 0.22221 0.47379 0.35441 0.0
C277 C 0.19743 0.47727 0.32451 0.0
C278 C 0.20635 0.49823 0.27689 0.0
H279 H 0.35286 0.58017 0.32553 0.0
C280 C 0.35274 0.55619 0.32987 0.0
H281 H 0.32654 0.50377 0.30861 0.0
H282 H 0.27782 0.58569 0.12488 0.0
H283 H 0.33596 0.6123 0.09137 0.0
H284 H 0.37805 0.59984 0.13658 0.0
H285 H 0.36235 0.5615 0.21687 0.0
C286 C 0.32743 0.5281 0.30476 0.0
C287 C 0.30038 0.52993 0.27029 0.0
C288 C 0.30927 0.5504 0.22064 0.0
C289 C 0.28432 0.55559 0.19193 0.0
C290 C 0.29494 0.57897 0.14615 0.0
C291 C 0.32844 0.59477 0.12674 0.0
C292 C 0.35218 0.58791 0.15238 0.0
C293 C 0.34287 0.56605 0.19878 0.0
H294 H 0.63916 0.20317 0.38508 0.0
C295 C 0.6477 0.20051 0.34326 0.0
H296 H 0.68939 0.21685 0.288 0.0
H297 H 0.7815 0.36348 0.38688 0.0
H298 H 0.76976 0.37438 0.29081 0.0
H299 H 0.7282 0.32755 0.22939 0.0
H300 H 0.69851 0.26955 0.26337 0.0
C301 C 0.68102 0.21916 0.33017 0.0
C302 C 0.70611 0.24713 0.36827 0.0
C303 C 0.72278 0.28116 0.34808 0.0
C304 C 0.74596 0.30835 0.38414 0.0
C305 C 0.76296 0.34191 0.36206 0.0
C306 C 0.75659 0.34857 0.3068 0.0
C307 C 0.73326 0.3222 0.27219 0.0
C308 C 0.71647 0.28891 0.29231 0.0
H309 H 0.81115 0.31556 0.49356 0.0
C310 C 0.80463 0.33543 0.49959 0.0
H311 H 0.76862 0.35123 0.48392 0.0
H312 H 0.68329 0.18475 0.4176 0.0
H313 H 0.69289 0.17403 0.51531 0.0
H314 H 0.72803 0.22161 0.58101 0.0
H315 H 0.75451 0.2801 0.54899 0.0
C316 C 0.7748 0.33106 0.47877 0.0
C317 C 0.75186 0.30175 0.44099 0.0
C318 C 0.73514 0.26774 0.4613 0.0
C319 C 0.71313 0.24034 0.42435 0.0
C320 C 0.69875 0.20656 0.44459 0.0
C321 C 0.70429 0.20003 0.50048 0.0
C322 C 0.7242 0.22681 0.53739 0.0
C323 C 0.73948 0.2603 0.5183 0.0
H324 H 0.44991 0.78525 0.64693 0.0
C325 C 0.47077 0.80051 0.67647 0.0
H326 H 0.5174 0.80839 0.71183 0.0
H327 H 0.42852 0.65541 0.57875 0.0
H328 H 0.38727 0.64087 0.65374 0.0
H329 H 0.39615 0.68224 0.72964 0.0
H330 H 0.44609 0.7389 0.72968 0.0
C331 C 0.49587 0.793 0.68367 0.0
C332 C 0.49584 0.76534 0.64897 0.0
C333 C 0.46798 0.7315 0.65189 0.0
C334 C 0.46408 0.70695 0.61022 0.0
C335 C 0.43404 0.67453 0.61094 0.0
C336 C 0.40988 0.66589 0.65361 0.0
C337 C 0.41479 0.68922 0.69618 0.0
C338 C 0.44341 0.7217 0.69547 0.0
H339 H 0.48343 0.65277 0.56979 0.0
C340 C 0.48177 0.6613 0.52723 0.0
H341 H 0.48286 0.70054 0.47739 0.0
H342 H 0.55457 0.82661 0.63568 0.0
H343 H 0.59871 0.83994 0.56598 0.0
H344 H 0.59392 0.79641 0.49753 0.0
H345 H 0.54473 0.73934 0.49802 0.0
C346 C 0.48419 0.69189 0.52001 0.0
C347 C 0.4895 0.71563 0.56809 0.0
C348 C 0.51892 0.74857 0.56857 0.0
C349 C 0.52201 0.77351 0.60876 0.0
C350 C 0.55105 0.80656 0.60663 0.0
C351 C 0.57662 0.81458 0.56681 0.0
C352 C 0.5739 0.79009 0.52822 0.0
C353 C 0.54546 0.75746 0.52885 0.0
H354 H 0.66653 0.42846 0.8259 0.0
C355 C 0.67034 0.4532 0.83878 0.0
H356 H 0.70436 0.50637 0.83801 0.0
H357 H 0.83615 0.49344 0.79264 0.0
H358 H 0.84978 0.52193 0.88456 0.0
H359 H 0.80713 0.53044 0.93582 0.0
H360 H 0.75068 0.51088 0.89519 0.0
C361 C 0.69982 0.48133 0.82557 0.0
C362 C 0.72657 0.47857 0.79272 0.0
C363 C 0.75935 0.48988 0.81722 0.0
C364 C 0.78377 0.48442 0.78806 0.0
C365 C 0.81648 0.49649 0.81321 0.0
C366 C 0.82466 0.51293 0.86593 0.0
C367 C 0.80065 0.51775 0.89477 0.0
C368 C 0.76834 0.50639 0.87096 0.0
H369 H 0.80153 0.48821 0.6314 0.0
C370 C 0.81135 0.47327 0.65197 0.0
H371 H 0.81025 0.44609 0.72569 0.0
H372 H 0.66965 0.46134 0.72674 0.0
H373 H 0.65437 0.42969 0.63789 0.0
H374 H 0.69281 0.41203 0.59487 0.0
H375 H 0.7472 0.42717 0.63912 0.0
C376 C 0.80084 0.46123 0.70465 0.0
C377 C 0.77521 0.46714 0.73484 0.0
C378 C 0.74219 0.45547 0.71064 0.0
C379 C 0.71866 0.46287 0.73808 0.0
C380 C 0.68744 0.45424 0.70986 0.0
C381 C 0.67849 0.43636 0.65851 0.0
C382 C 0.70021 0.42663 0.63411 0.0
C383 C 0.73164 0.43591 0.65971 0.0
H384 H 0.33091 0.79919 0.8121 0.0
C385 C 0.35526 0.81465 0.83393 0.0
H386 H 0.38262 0.82389 0.91125 0.0
H387 H 0.2132 0.71868 0.95412 0.0
H388 H 0.20589 0.76621 0.92675 0.0
H389 H 0.25536 0.82106 0.89873 0.0
H390 H 0.3124 0.8283 0.89652 0.0
C391 C 0.3581 0.80939 0.88956 0.0
C392 C 0.32979 0.77967 0.91931 0.0
C393 C 0.29698 0.77648 0.92394 0.0
C394 C 0.26878 0.74545 0.94337 0.0
C395 C 0.23585 0.7421 0.94262 0.0
C396 C 0.23122 0.76916 0.92654 0.0
C397 C 0.25904 0.79999 0.91052 0.0
C398 C 0.29158 0.80373 0.90907 0.0
H399 H 0.22927 0.70181 0.04876 0.0
C400 C 0.22509 0.67997 0.02336 0.0
H401 H 0.24065 0.66267 0.95258 0.0
H402 H 0.38977 0.77789 0.91969 0.0
H403 H 0.398 0.73212 0.95413 0.0
H404 H 0.35 0.68 0.99402 0.0
H405 H 0.29333 0.67321 0.99896 0.0
C406 C 0.24452 0.68458 0.97744 0.0
C407 C 0.2739 0.71839 0.96155 0.0
C408 C 0.30722 0.72258 0.96079 0.0
C409 C 0.3351 0.75304 0.93917 0.0
C410 C 0.36773 0.7557 0.93664 0.0
C411 C 0.37286 0.72954 0.95621 0.0
C412 C 0.34583 0.70018 0.97856 0.0
C413 C 0.31338 0.69658 0.98091 0.0
H414 H 0.54793 0.35492 0.04262 0.0
C415 C 0.53658 0.34634 1.00054 0.0
H416 H 0.51007 0.3045 0.94518 0.0
H417 H 0.56568 0.21379 0.04985 0.0
H418 H 0.58339 0.2198 0.95161 0.0
H419 H 0.57495 0.2578 0.88661 0.0
H420 H 0.5483 0.28951 0.91912 0.0
C421 C 0.5209 0.31297 0.98755 0.0
C422 C 0.52363 0.28821 0.02635 0.0
C423 C 0.53993 0.27026 1.00672 0.0
C424 C 0.54587 0.24921 0.0447 0.0
C425 C 0.56134 0.23087 0.02344 0.0
C426 C 0.57154 0.23395 0.96697 0.0
C427 C 0.56672 0.25527 0.93037 0.0
C428 C 0.5512 0.27329 0.94972 0.0
H429 H 0.49487 0.19171 0.16555 0.0
C430 C 0.52161 0.19863 0.16882 0.0
H431 H 0.57215 0.23325 0.14485 0.0
H432 H 0.48518 0.31272 0.07478 0.0
H433 H 0.46968 0.30884 0.1743 0.0
H434 H 0.48637 0.27833 0.24289 0.0
H435 H 0.51765 0.25066 0.21214 0.0
C436 C 0.54549 0.22673 0.14247 0.0
C437 C 0.5365 0.24688 0.10275 0.0
C438 C 0.5198 0.26445 0.12225 0.0
C439 C 0.51221 0.28405 0.08349 0.0
C440 C 0.49325 0.29917 0.10309 0.0
C441 C 0.48393 0.29688 0.15998 0.0
C442 C 0.49318 0.27956 0.19853 0.0
C443 C 0.51093 0.26353 0.18017 0.0
loop_
_geom_bond_atom_site_label_1
_geom_bond_atom_site_label_2
_geom_bond_distance
_geom_bond_site_symmetry_2
_ccdc_geom_bond_type
O0 Cd1 2.223 . S
O0 C8 1.315 . S
Cd1 O0 2.223 . S
Cd1 O4 2.297 . S
Cd1 O5 2.439 . S
Cd1 O11 2.240 . S
Cd2 O3 2.240 . S
Cd2 O10 2.223 1_554 S
Cd2 O12 2.297 . S
Cd2 O13 2.439 . S
O3 Cd2 2.240 . S
O3 C8 1.279 . S
O4 Cd1 2.297 . S
O4 C6 1.247 . S
O5 Cd1 2.439 . S
O5 C6 1.208 . S
C6 O4 1.247 . S
C6 O5 1.208 . S
C7 O12 1.247 . S
C7 O13 1.208 . S
C8 O0 1.315 . S
C8 O3 1.279 . S
C9 O10 1.315 1_554 S
C9 O11 1.279 . S
O10 Cd2 2.223 1_556 S
O10 C9 1.315 1_556 S
O11 Cd1 2.240 . S
O11 C9 1.279 . S
O12 Cd2 2.297 . S
O12 C7 1.247 . S
O13 Cd2 2.439 . S
O13 C7 1.208 . S
O14 Cd15 2.223 . S
O14 C22 1.315 . S
Cd15 O14 2.223 . S
Cd15 O18 2.297 . S
Cd15 O19 2.439 . S
Cd15 O25 2.240 . S
Cd16 O17 2.240 . S
Cd16 O24 2.223 . S
Cd16 O26 2.297 . S
Cd16 O27 2.439 . S
O17 Cd16 2.240 . S
O17 C22 1.279 . S
O18 Cd15 2.297 . S
O18 C20 1.247 . S
O19 Cd15 2.439 . S
O19 C20 1.208 . S
C20 O18 1.247 . S
C20 O19 1.208 . S
C21 O26 1.247 . S
C21 O27 1.208 . S
C22 O14 1.315 . S
C22 O17 1.279 . S
C23 O24 1.315 . S
C23 O25 1.279 . S
O24 Cd16 2.223 . S
O24 C23 1.315 . S
O25 Cd15 2.240 . S
O25 C23 1.279 . S
O26 Cd16 2.297 . S
O26 C21 1.247 . S
O27 Cd16 2.439 . S
O27 C21 1.208 . S
O28 Cd29 2.223 . S
O28 C36 1.315 . S
Cd29 O28 2.223 . S
Cd29 O32 2.297 . S
Cd29 O33 2.439 . S
Cd29 O39 2.240 . S
Cd30 O31 2.240 . S
Cd30 O38 2.223 . S
Cd30 O40 2.297 . S
Cd30 O41 2.439 . S
O31 Cd30 2.240 . S
O31 C36 1.279 . S
O32 Cd29 2.297 . S
O32 C34 1.247 . S
O33 Cd29 2.439 . S
O33 C34 1.208 . S
C34 O32 1.247 . S
C34 O33 1.208 . S
C35 O40 1.247 . S
C35 O41 1.208 . S
C36 O28 1.315 . S
C36 O31 1.279 . S
C37 O38 1.315 . S
C37 O39 1.279 . S
O38 Cd30 2.223 . S
O38 C37 1.315 . S
O39 Cd29 2.240 . S
O39 C37 1.279 . S
O40 Cd30 2.297 . S
O40 C35 1.247 . S
O41 Cd30 2.439 . S
O41 C35 1.208 . S
O42 Cd43 2.223 . S
O42 C50 1.315 . S
Cd43 O42 2.223 . S
Cd43 O46 2.297 . S
Cd43 O47 2.439 . S
Cd43 O53 2.240 . S
Cd44 O45 2.240 . S
Cd44 O52 2.223 . S
Cd44 O54 2.297 . S
Cd44 O55 2.439 . S
O45 Cd44 2.240 . S
O45 C50 1.279 . S
O46 Cd43 2.297 . S
O46 C48 1.247 . S
O47 Cd43 2.439 . S
O47 C48 1.208 . S
C48 O46 1.247 . S
C48 O47 1.208 . S
C49 O54 1.247 . S
C49 O55 1.208 . S
C50 O42 1.315 . S
C50 O45 1.279 . S
C51 O52 1.315 . S
C51 O53 1.279 . S
O52 Cd44 2.223 . S
O52 C51 1.315 . S
O53 Cd43 2.240 . S
O53 C51 1.279 . S
O54 Cd44 2.297 . S
O54 C49 1.247 . S
O55 Cd44 2.439 . S
O55 C49 1.208 . S
O56 Cd57 2.223 . S
O56 C64 1.315 . S
Cd57 O56 2.223 . S
Cd57 O60 2.297 . S
Cd57 O61 2.439 . S
Cd57 O67 2.240 . S
Cd58 O59 2.240 . S
Cd58 O66 2.223 . S
Cd58 O68 2.297 . S
Cd58 O69 2.439 . S
O59 Cd58 2.240 . S
O59 C64 1.279 . S
O60 Cd57 2.297 . S
O60 C62 1.247 . S
O61 Cd57 2.439 . S
O61 C62 1.208 . S
C62 O60 1.247 . S
C62 O61 1.208 . S
C63 O68 1.247 . S
C63 O69 1.208 . S
C64 O56 1.315 . S
C64 O59 1.279 . S
C65 O66 1.315 . S
C65 O67 1.279 . S
O66 Cd58 2.223 . S
O66 C65 1.315 . S
O67 Cd57 2.240 . S
O67 C65 1.279 . S
O68 Cd58 2.297 . S
O68 C63 1.247 . S
O69 Cd58 2.439 . S
O69 C63 1.208 . S
O70 Cd71 2.223 . S
O70 C78 1.315 . S
Cd71 O70 2.223 . S
Cd71 O74 2.297 . S
Cd71 O75 2.439 1_556 S
Cd71 O81 2.240 . S
Cd72 O73 2.240 . S
Cd72 O80 2.223 . S
Cd72 O82 2.297 . S
Cd72 O83 2.439 . S
O73 Cd72 2.240 . S
O73 C78 1.279 . S
O74 Cd71 2.297 . S
O74 C76 1.247 1_556 S
O75 Cd71 2.439 1_554 S
O75 C76 1.208 . S
C76 O74 1.247 1_554 S
C76 O75 1.208 . S
C77 O82 1.247 . S
C77 O83 1.208 . S
C78 O70 1.315 . S
C78 O73 1.279 . S
C79 O80 1.315 . S
C79 O81 1.279 . S
O80 Cd72 2.223 . S
O80 C79 1.315 . S
O81 Cd71 2.240 . S
O81 C79 1.279 . S
O82 Cd72 2.297 . S
O82 C77 1.247 . S
O83 Cd72 2.439 . S
O83 C77 1.208 . S
H84 C85 0.951 . S
C85 H84 0.951 . S
C85 C91 1.265 . S
H86 C91 0.950 . S
H87 C95 0.949 . S
H88 C96 0.950 . S
H89 C97 0.951 . S
H90 C98 0.951 . S
C91 C85 1.265 . S
C91 H86 0.950 . S
C91 C92 1.478 . S
C92 C91 1.478 . S
C92 C93 1.397 . S
C92 C109 1.394 . S
C93 C92 1.397 . S
C93 C94 1.438 1_455 S
C93 C98 1.429 . S
C94 C93 1.438 1_655 S
C94 C95 1.428 . S
C94 C107 1.394 . S
C95 H87 0.949 . S
C95 C94 1.428 . S
C95 C96 1.345 . S
C96 H88 0.950 . S
C96 C95 1.345 . S
C96 C97 1.424 . S
C97 H89 0.951 . S
C97 C96 1.424 . S
C97 C98 1.347 1_655 S
C98 H90 0.951 . S
C98 C93 1.429 . S
C98 C97 1.347 1_455 S
H99 C100 0.951 . S
C100 H99 0.951 . S
C100 C106 1.265 . S
H101 C106 0.950 . S
H102 C110 0.949 . S
H103 C111 0.950 . S
H104 C112 0.951 . S
H105 C113 0.951 . S
C106 C100 1.265 . S
C106 H101 0.950 . S
C106 C107 1.478 . S
C107 C94 1.394 . S
C107 C106 1.478 . S
C107 C108 1.397 1_655 S
C108 C107 1.397 1_455 S
C108 C109 1.438 . S
C108 C113 1.429 . S
C109 C92 1.394 . S
C109 C108 1.438 . S
C109 C110 1.428 . S
C110 H102 0.949 . S
C110 C109 1.428 . S
C110 C111 1.345 . S
C111 H103 0.950 . S
C111 C110 1.345 . S
C111 C112 1.424 . S
C112 H104 0.951 . S
C112 C111 1.424 . S
C112 C113 1.347 . S
C113 H105 0.951 . S
C113 C108 1.429 . S
C113 C112 1.347 . S
H114 C115 0.951 . S
C115 H114 0.951 . S
C115 C121 1.265 . S
H116 C121 0.950 . S
H117 C125 0.949 1_545 S
H118 C126 0.950 . S
H119 C127 0.951 . S
H120 C128 0.951 . S
C121 C115 1.265 . S
C121 H116 0.950 . S
C121 C122 1.478 . S
C122 C121 1.478 . S
C122 C123 1.397 1_556 S
C122 C139 1.394 1_565 S
C123 C122 1.397 1_554 S
C123 C124 1.438 1_565 S
C123 C128 1.429 . S
C124 C123 1.438 1_545 S
C124 C125 1.428 1_545 S
C124 C137 1.394 . S
C125 H117 0.949 1_565 S
C125 C124 1.428 1_565 S
C125 C126 1.345 . S
C126 H118 0.950 . S
C126 C125 1.345 . S
C126 C127 1.424 . S
C127 H119 0.951 . S
C127 C126 1.424 . S
C127 C128 1.347 . S
C128 H120 0.951 . S
C128 C123 1.429 . S
C128 C127 1.347 . S
H129 C130 0.951 . S
C130 H129 0.951 . S
C130 C136 1.265 . S
H131 C136 0.950 . S
H132 C140 0.949 . S
H133 C141 0.950 . S
H134 C142 0.951 . S
H135 C143 0.951 . S
C136 C130 1.265 . S
C136 H131 0.950 . S
C136 C137 1.478 . S
C137 C124 1.394 . S
C137 C136 1.478 . S
C137 C138 1.397 1_554 S
C138 C137 1.397 1_556 S
C138 C139 1.438 . S
C138 C143 1.429 . S
C139 C122 1.394 1_545 S
C139 C138 1.438 . S
C139 C140 1.428 . S
C140 H132 0.949 . S
C140 C139 1.428 . S
C140 C141 1.345 . S
C141 H133 0.950 . S
C141 C140 1.345 . S
C141 C142 1.424 . S
C142 H134 0.951 . S
C142 C141 1.424 . S
C142 C143 1.347 . S
C143 H135 0.951 . S
C143 C138 1.429 . S
C143 C142 1.347 . S
H144 C145 0.951 . S
C145 H144 0.951 . S
C145 C151 1.265 . S
H146 C151 0.950 . S
H147 C155 0.949 . S
H148 C156 0.951 1_556 S
H149 C157 0.951 . S
H150 C158 0.951 . S
C151 C145 1.265 . S
C151 H146 0.950 . S
C151 C152 1.478 . S
C152 C151 1.478 . S
C152 C153 1.397 . S
C152 C169 1.394 . S
C153 C152 1.397 . S
C153 C154 1.438 . S
C153 C158 1.429 . S
C154 C153 1.438 . S
C154 C155 1.428 . S
C154 C167 1.394 . S
C155 H147 0.949 . S
C155 C154 1.428 . S
C155 C156 1.345 . S
C156 H148 0.951 1_554 S
C156 C155 1.345 . S
C156 C157 1.424 . S
C157 H149 0.951 . S
C157 C156 1.424 . S
C157 C158 1.347 . S
C158 H150 0.951 . S
C158 C153 1.429 . S
C158 C157 1.347 . S
H159 C160 0.951 . S
C160 H159 0.951 . S
C160 C166 1.265 . S
H161 C166 0.950 . S
H162 C170 0.949 . S
H163 C171 0.950 . S
H164 C172 0.951 . S
H165 C173 0.951 . S
C166 C160 1.265 . S
C166 H161 0.950 . S
C166 C167 1.478 . S
C167 C154 1.394 . S
C167 C166 1.478 . S
C167 C168 1.397 . S
C168 C167 1.397 . S
C168 C169 1.438 . S
C168 C173 1.429 . S
C169 C152 1.394 . S
C169 C168 1.438 . S
C169 C170 1.428 . S
C170 H162 0.949 . S
C170 C169 1.428 . S
C170 C171 1.345 . S
C171 H163 0.950 . S
C171 C170 1.345 . S
C171 C172 1.424 . S
C172 H164 0.951 . S
C172 C171 1.424 . S
C172 C173 1.347 . S
C173 H165 0.951 . S
C173 C168 1.429 . S
C173 C172 1.347 . S
H174 C175 0.951 . S
C175 H174 0.951 . S
C175 C181 1.265 . S
H176 C181 0.950 . S
H177 C185 0.949 . S
H178 C186 0.950 . S
H179 C187 0.951 . S
H180 C188 0.951 . S
C181 C175 1.265 . S
C181 H176 0.950 . S
C181 C182 1.478 . S
C182 C181 1.478 . S
C182 C183 1.397 . S
C182 C199 1.394 . S
C183 C182 1.397 . S
C183 C184 1.438 . S
C183 C188 1.429 . S
C184 C183 1.438 . S
C184 C185 1.428 . S
C184 C197 1.394 1_655 S
C185 H177 0.949 . S
C185 C184 1.428 . S
C185 C186 1.345 . S
C186 H178 0.950 . S
C186 C185 1.345 . S
C186 C187 1.424 . S
C187 H179 0.951 . S
C187 C186 1.424 . S
C187 C188 1.347 . S
C188 H180 0.951 . S
C188 C183 1.429 . S
C188 C187 1.347 . S
H189 C190 0.951 . S
C190 H189 0.951 . S
C190 C196 1.265 . S
H191 C196 0.950 . S
H192 C200 0.949 . S
H193 C201 0.950 . S
H194 C202 0.951 . S
H195 C203 0.951 . S
C196 C190 1.265 . S
C196 H191 0.950 . S
C196 C197 1.478 . S
C197 C184 1.394 1_455 S
C197 C196 1.478 . S
C197 C198 1.397 . S
C198 C197 1.397 . S
C198 C199 1.438 1_455 S
C198 C203 1.429 . S
C199 C182 1.394 . S
C199 C198 1.438 1_655 S
C199 C200 1.428 . S
C200 H192 0.949 . S
C200 C199 1.428 . S
C200 C201 1.345 1_655 S
C201 H193 0.950 . S
C201 C200 1.345 1_455 S
C201 C202 1.424 . S
C202 H194 0.951 . S
C202 C201 1.424 . S
C202 C203 1.347 . S
C203 H195 0.951 . S
C203 C198 1.429 . S
C203 C202 1.347 . S
H204 C205 0.951 . S
C205 H204 0.951 . S
C205 C211 1.265 . S
H206 C211 0.950 . S
H207 C215 0.949 1_565 S
H208 C216 0.950 . S
H209 C217 0.951 . S
H210 C218 0.951 . S
C211 C205 1.265 . S
C211 H206 0.950 . S
C211 C212 1.478 . S
C212 C211 1.478 . S
C212 C213 1.397 . S
C212 C229 1.394 1_545 S
C213 C212 1.397 . S
C213 C214 1.438 1_545 S
C213 C218 1.429 . S
C214 C213 1.438 1_565 S
C214 C215 1.428 1_565 S
C214 C227 1.394 . S
C215 H207 0.949 1_545 S
C215 C214 1.428 1_545 S
C215 C216 1.345 . S
C216 H208 0.950 . S
C216 C215 1.345 . S
C216 C217 1.424 . S
C217 H209 0.951 . S
C217 C216 1.424 . S
C217 C218 1.347 . S
C218 H210 0.951 . S
C218 C213 1.429 . S
C218 C217 1.347 . S
H219 C220 0.951 . S
C220 H219 0.951 . S
C220 C226 1.265 . S
H221 C226 0.950 . S
H222 C230 0.949 . S
H223 C231 0.950 . S
H224 C232 0.951 . S
H225 C233 0.951 . S
C226 C220 1.265 . S
C226 H221 0.950 . S
C226 C227 1.478 . S
C227 C214 1.394 . S
C227 C226 1.478 . S
C227 C228 1.397 . S
C228 C227 1.397 . S
C228 C229 1.438 . S
C228 C233 1.429 . S
C229 C212 1.394 1_565 S
C229 C228 1.438 . S
C229 C230 1.428 . S
C230 H222 0.949 . S
C230 C229 1.428 . S
C230 C231 1.345 . S
C231 H223 0.950 . S
C231 C230 1.345 . S
C231 C232 1.424 . S
C232 H224 0.951 . S
C232 C231 1.424 . S
C232 C233 1.347 . S
C233 H225 0.951 . S
C233 C228 1.429 . S
C233 C232 1.347 . S
H234 C235 0.951 . S
C235 H234 0.951 . S
C235 C241 1.265 . S
H236 C241 0.950 . S
H237 C245 0.949 . S
H238 C246 0.950 . S
H239 C247 0.951 . S
H240 C248 0.951 . S
C241 C235 1.265 . S
C241 H236 0.950 . S
C241 C242 1.478 . S
C242 C241 1.478 . S
C242 C243 1.397 . S
C242 C259 1.394 . S
C243 C242 1.397 . S
C243 C244 1.438 . S
C243 C248 1.429 . S
C244 C243 1.438 . S
C244 C245 1.428 . S
C244 C257 1.394 . S
C245 H237 0.949 . S
C245 C244 1.428 . S
C245 C246 1.345 . S
C246 H238 0.950 . S
C246 C245 1.345 . S
C246 C247 1.424 . S
C247 H239 0.951 . S
C247 C246 1.424 . S
C247 C248 1.347 . S
C248 H240 0.951 . S
C248 C243 1.429 . S
C248 C247 1.347 . S
H249 C250 0.951 . S
C250 H249 0.951 . S
C250 C256 1.265 . S
H251 C256 0.950 . S
H252 C260 0.949 . S
H253 C261 0.950 . S
H254 C262 0.951 . S
H255 C263 0.951 . S
C256 C250 1.265 . S
C256 H251 0.950 . S
C256 C257 1.478 . S
C257 C244 1.394 . S
C257 C256 1.478 . S
C257 C258 1.397 . S
C258 C257 1.397 . S
C258 C259 1.438 . S
C258 C263 1.429 . S
C259 C242 1.394 . S
C259 C258 1.438 . S
C259 C260 1.428 . S
C260 H252 0.949 . S
C260 C259 1.428 . S
C260 C261 1.345 . S
C261 H253 0.950 . S
C261 C260 1.345 . S
C261 C262 1.424 . S
C262 H254 0.951 . S
C262 C261 1.424 . S
C262 C263 1.347 . S
C263 H255 0.951 . S
C263 C258 1.429 . S
C263 C262 1.347 . S
H264 C265 0.951 . S
C265 H264 0.951 . S
C265 C271 1.265 . S
H266 C271 0.950 . S
H267 C275 0.949 . S
H268 C276 0.950 . S
H269 C277 0.951 . S
H270 C278 0.951 . S
C271 C265 1.265 . S
C271 H266 0.950 . S
C271 C272 1.478 . S
C272 C271 1.478 . S
C272 C273 1.397 . S
C272 C289 1.394 . S
C273 C272 1.397 . S
C273 C274 1.438 . S
C273 C278 1.429 . S
C274 C273 1.438 . S
C274 C275 1.428 . S
C274 C287 1.394 . S
C275 H267 0.949 . S
C275 C274 1.428 . S
C275 C276 1.345 . S
C276 H268 0.950 . S
C276 C275 1.345 . S
C276 C277 1.424 . S
C277 H269 0.951 . S
C277 C276 1.424 . S
C277 C278 1.347 . S
C278 H270 0.951 . S
C278 C273 1.429 . S
C278 C277 1.347 . S
H279 C280 0.951 . S
C280 H279 0.951 . S
C280 C286 1.265 . S
H281 C286 0.950 . S
H282 C290 0.949 . S
H283 C291 0.950 . S
H284 C292 0.951 . S
H285 C293 0.951 . S
C286 C280 1.265 . S
C286 H281 0.950 . S
C286 C287 1.478 . S
C287 C274 1.394 . S
C287 C286 1.478 . S
C287 C288 1.397 . S
C288 C287 1.397 . S
C288 C289 1.438 . S
C288 C293 1.429 . S
C289 C272 1.394 . S
C289 C288 1.438 . S
C289 C290 1.428 . S
C290 H282 0.949 . S
C290 C289 1.428 . S
C290 C291 1.345 . S
C291 H283 0.950 . S
C291 C290 1.345 . S
C291 C292 1.424 . S
C292 H284 0.951 . S
C292 C291 1.424 . S
C292 C293 1.347 . S
C293 H285 0.951 . S
C293 C288 1.429 . S
C293 C292 1.347 . S
H294 C295 0.951 . S
C295 H294 0.951 . S
C295 C301 1.265 . S
H296 C301 0.950 . S
H297 C305 0.949 . S
H298 C306 0.950 . S
H299 C307 0.951 . S
H300 C308 0.951 . S
C301 C295 1.265 . S
C301 H296 0.950 . S
C301 C302 1.478 . S
C302 C301 1.478 . S
C302 C303 1.397 . S
C302 C319 1.394 . S
C303 C302 1.397 . S
C303 C304 1.438 . S
C303 C308 1.429 . S
C304 C303 1.438 . S
C304 C305 1.428 . S
C304 C317 1.394 . S
C305 H297 0.949 . S
C305 C304 1.428 . S
C305 C306 1.345 . S
C306 H298 0.950 . S
C306 C305 1.345 . S
C306 C307 1.424 . S
C307 H299 0.951 . S
C307 C306 1.424 . S
C307 C308 1.347 . S
C308 H300 0.951 . S
C308 C303 1.429 . S
C308 C307 1.347 . S
H309 C310 0.951 . S
C310 H309 0.951 . S
C310 C316 1.265 . S
H311 C316 0.950 . S
H312 C320 0.949 . S
H313 C321 0.950 . S
H314 C322 0.951 . S
H315 C323 0.951 . S
C316 C310 1.265 . S
C316 H311 0.950 . S
C316 C317 1.478 . S
C317 C304 1.394 . S
C317 C316 1.478 . S
C317 C318 1.397 . S
C318 C317 1.397 . S
C318 C319 1.438 . S
C318 C323 1.429 . S
C319 C302 1.394 . S
C319 C318 1.438 . S
C319 C320 1.428 . S
C320 H312 0.949 . S
C320 C319 1.428 . S
C320 C321 1.345 . S
C321 H313 0.950 . S
C321 C320 1.345 . S
C321 C322 1.424 . S
C322 H314 0.951 . S
C322 C321 1.424 . S
C322 C323 1.347 . S
C323 H315 0.951 . S
C323 C318 1.429 . S
C323 C322 1.347 . S
H324 C325 0.951 . S
C325 H324 0.951 . S
C325 C331 1.265 . S
H326 C331 0.950 . S
H327 C335 0.949 . S
H328 C336 0.950 . S
H329 C337 0.951 . S
H330 C338 0.951 . S
C331 C325 1.265 . S
C331 H326 0.950 . S
C331 C332 1.478 . S
C332 C331 1.478 . S
C332 C333 1.397 . S
C332 C349 1.394 . S
C333 C332 1.397 . S
C333 C334 1.438 . S
C333 C338 1.429 . S
C334 C333 1.438 . S
C334 C335 1.428 . S
C334 C347 1.394 . S
C335 H327 0.949 . S
C335 C334 1.428 . S
C335 C336 1.345 . S
C336 H328 0.950 . S
C336 C335 1.345 . S
C336 C337 1.424 . S
C337 H329 0.951 . S
C337 C336 1.424 . S
C337 C338 1.347 . S
C338 H330 0.951 . S
C338 C333 1.429 . S
C338 C337 1.347 . S
H339 C340 0.951 . S
C340 H339 0.951 . S
C340 C346 1.265 . S
H341 C346 0.950 . S
H342 C350 0.949 . S
H343 C351 0.950 . S
H344 C352 0.951 . S
H345 C353 0.951 . S
C346 C340 1.265 . S
C346 H341 0.950 . S
C346 C347 1.478 . S
C347 C334 1.394 . S
C347 C346 1.478 . S
C347 C348 1.397 . S
C348 C347 1.397 . S
C348 C349 1.438 . S
C348 C353 1.429 . S
C349 C332 1.394 . S
C349 C348 1.438 . S
C349 C350 1.428 . S
C350 H342 0.949 . S
C350 C349 1.428 . S
C350 C351 1.345 . S
C351 H343 0.950 . S
C351 C350 1.345 . S
C351 C352 1.424 . S
C352 H344 0.951 . S
C352 C351 1.424 . S
C352 C353 1.347 . S
C353 H345 0.951 . S
C353 C348 1.429 . S
C353 C352 1.347 . S
H354 C355 0.951 . S
C355 H354 0.951 . S
C355 C361 1.265 . S
H356 C361 0.950 . S
H357 C365 0.949 . S
H358 C366 0.950 . S
H359 C367 0.951 . S
H360 C368 0.951 . S
C361 C355 1.265 . S
C361 H356 0.950 . S
C361 C362 1.478 . S
C362 C361 1.478 . S
C362 C363 1.397 . S
C362 C379 1.394 . S
C363 C362 1.397 . S
C363 C364 1.438 . S
C363 C368 1.429 . S
C364 C363 1.438 . S
C364 C365 1.428 . S
C364 C377 1.394 . S
C365 H357 0.949 . S
C365 C364 1.428 . S
C365 C366 1.345 . S
C366 H358 0.950 . S
C366 C365 1.345 . S
C366 C367 1.424 . S
C367 H359 0.951 . S
C367 C366 1.424 . S
C367 C368 1.347 . S
C368 H360 0.951 . S
C368 C363 1.429 . S
C368 C367 1.347 . S
H369 C370 0.951 . S
C370 H369 0.951 . S
C370 C376 1.265 . S
H371 C376 0.950 . S
H372 C380 0.949 . S
H373 C381 0.950 . S
H374 C382 0.951 . S
H375 C383 0.951 . S
C376 C370 1.265 . S
C376 H371 0.950 . S
C376 C377 1.478 . S
C377 C364 1.394 . S
C377 C376 1.478 . S
C377 C378 1.397 . S
C378 C377 1.397 . S
C378 C379 1.438 . S
C378 C383 1.429 . S
C379 C362 1.394 . S
C379 C378 1.438 . S
C379 C380 1.428 . S
C380 H372 0.949 . S
C380 C379 1.428 . S
C380 C381 1.345 . S
C381 H373 0.950 . S
C381 C380 1.345 . S
C381 C382 1.424 . S
C382 H374 0.951 . S
C382 C381 1.424 . S
C382 C383 1.347 . S
C383 H375 0.951 . S
C383 C378 1.429 . S
C383 C382 1.347 . S
H384 C385 0.951 . S
C385 H384 0.951 . S
C385 C391 1.265 . S
H386 C391 0.950 . S
H387 C395 0.949 . S
H388 C396 0.950 . S
H389 C397 0.951 . S
H390 C398 0.951 . S
C391 C385 1.265 . S
C391 H386 0.950 . S
C391 C392 1.478 . S
C392 C391 1.478 . S
C392 C393 1.397 . S
C392 C409 1.394 . S
C393 C392 1.397 . S
C393 C394 1.438 . S
C393 C398 1.429 . S
C394 C393 1.438 . S
C394 C395 1.428 1_556 S
C394 C407 1.394 . S
C395 H387 0.949 . S
C395 C394 1.428 1_554 S
C395 C396 1.345 . S
C396 H388 0.950 . S
C396 C395 1.345 . S
C396 C397 1.424 . S
C397 H389 0.951 . S
C397 C396 1.424 . S
C397 C398 1.347 1_554 S
C398 H390 0.951 . S
C398 C393 1.429 . S
C398 C397 1.347 1_556 S
H399 C400 0.951 1_554 S
C400 H399 0.951 1_556 S
C400 C406 1.265 . S
H401 C406 0.950 . S
H402 C410 0.949 . S
H403 C411 0.950 . S
H404 C412 0.951 . S
H405 C413 0.951 . S
C406 C400 1.265 . S
C406 H401 0.950 . S
C406 C407 1.478 . S
C407 C394 1.394 . S
C407 C406 1.478 . S
C407 C408 1.397 . S
C408 C407 1.397 . S
C408 C409 1.438 . S
C408 C413 1.429 . S
C409 C392 1.394 . S
C409 C408 1.438 . S
C409 C410 1.428 . S
C410 H402 0.949 . S
C410 C409 1.428 . S
C410 C411 1.345 . S
C411 H403 0.950 . S
C411 C410 1.345 . S
C411 C412 1.424 . S
C412 H404 0.951 . S
C412 C411 1.424 . S
C412 C413 1.347 . S
C413 H405 0.951 . S
C413 C408 1.429 . S
C413 C412 1.347 . S
H414 C415 0.951 . S
C415 H414 0.951 . S
C415 C421 1.265 1_556 S
H416 C421 0.950 . S
H417 C425 0.949 . S
H418 C426 0.945 1_556 S
H419 C427 0.951 . S
H420 C428 0.951 . S
C421 C415 1.265 1_554 S
C421 H416 0.950 . S
C421 C422 1.478 . S
C422 C421 1.478 . S
C422 C423 1.397 . S
C422 C439 1.394 . S
C423 C422 1.397 . S
C423 C424 1.438 . S
C423 C428 1.429 1_554 S
C424 C423 1.438 . S
C424 C425 1.428 . S
C424 C437 1.394 . S
C425 H417 0.949 . S
C425 C424 1.428 . S
C425 C426 1.357 . S
C426 H418 0.945 1_554 S
C426 C425 1.357 . S
C426 C427 1.417 1_554 S
C427 H419 0.951 . S
C427 C426 1.417 1_556 S
C427 C428 1.347 . S
C428 H420 0.951 . S
C428 C423 1.429 1_556 S
C428 C427 1.347 . S
H429 C430 0.951 . S
C430 H429 0.951 . S
C430 C436 1.265 . S
H431 C436 0.950 . S
H432 C440 0.949 . S
H433 C441 0.950 . S
H434 C442 0.951 . S
H435 C443 0.951 . S
C436 C430 1.265 . S
C436 H431 0.950 . S
C436 C437 1.478 . S
C437 C424 1.394 . S
C437 C436 1.478 . S
C437 C438 1.397 . S
C438 C437 1.397 . S
C438 C439 1.438 . S
C438 C443 1.429 . S
C439 C422 1.394 . S
C439 C438 1.438 . S
C439 C440 1.428 . S
C440 H432 0.949 . S
C440 C439 1.428 . S
C440 C441 1.345 . S
C441 H433 0.950 . S
C441 C440 1.345 . S
C441 C442 1.424 . S
C442 H434 0.951 . S
C442 C441 1.424 . S
C442 C443 1.347 . S
C443 H435 0.951 . S
C443 C438 1.429 . S
C443 C442 1.347 . S
C85 C8 1.369 1_556 S
C100 C48 1.433 . S
C115 C62 1.422 . S
C130 C22 1.367 . S
C145 C36 1.450 . S
C160 C76 1.493 . S
C175 C50 1.474 . S
C190 C6 1.490 . S
C205 C20 1.422 . S
C220 C64 1.369 . S
C235 C78 1.365 . S
C250 C34 1.424 . S
C265 C7 1.363 . S
C280 C37 1.343 . S
C295 C21 1.362 . S
C310 C51 1.382 . S
C325 C65 1.339 . S
C340 C35 1.390 . S
C355 C79 1.332 . S
C370 C49 1.382 . S
C385 C63 1.357 . S
C400 C9 1.351 1_556 S
C415 C77 1.342 . S
C430 C23 1.390 . S
