# Generated by pormake.
# Topology umg, (4)-cn, num edge types: 1
# Building blocks:
#     Node 0, Type 0, BuildingBlock: ICAMEG_clean_sbu_1, # of connection points: 4
#     Node 1, Type 0, BuildingBlock: ICAMEG_clean_sbu_1, # of connection points: 4
#     Node 2, Type 0, BuildingBlock: ICAMEG_clean_sbu_1, # of connection points: 4
#     Node 3, Type 0, BuildingBlock: ICAMEG_clean_sbu_1, # of connection points: 4
#     Node 4, Type 0, BuildingBlock: ICAMEG_clean_sbu_1, # of connection points: 4
#     Node 5, Type 0, BuildingBlock: ICAMEG_clean_sbu_1, # of connection points: 4
#     Node 6, Type 0, BuildingBlock: ICAMEG_clean_sbu_1, # of connection points: 4
#     Node 7, Type 0, BuildingBlock: ICAMEG_clean_sbu_1, # of connection points: 4
#     Node 8, Type 0, BuildingBlock: ICAMEG_clean_sbu_1, # of connection points: 4
#     Node 9, Type 0, BuildingBlock: ICAMEG_clean_sbu_1, # of connection points: 4
#     Node 10, Type 0, BuildingBlock: ICAMEG_clean_sbu_1, # of connection points: 4
#     Node 11, Type 0, BuildingBlock: ICAMEG_clean_sbu_1, # of connection points: 4
#     Edge 12, Type (0, 0), None
#     Edge 13, Type (0, 0), None
#     Edge 14, Type (0, 0), None
#     Edge 15, Type (0, 0), None
#     Edge 16, Type (0, 0), None
#     Edge 17, Type (0, 0), None
#     Edge 18, Type (0, 0), None
#     Edge 19, Type (0, 0), None
#     Edge 20, Type (0, 0), None
#     Edge 21, Type (0, 0), None
#     Edge 22, Type (0, 0), None
#     Edge 23, Type (0, 0), None
#     Edge 24, Type (0, 0), None
#     Edge 25, Type (0, 0), None
#     Edge 26, Type (0, 0), None
#     Edge 27, Type (0, 0), None
#     Edge 28, Type (0, 0), None
#     Edge 29, Type (0, 0), None
#     Edge 30, Type (0, 0), None
#     Edge 31, Type (0, 0), None
#     Edge 32, Type (0, 0), None
#     Edge 33, Type (0, 0), None
#     Edge 34, Type (0, 0), None
#     Edge 35, Type (0, 0), None
# Relax obj value: 0.075
# Max RMSD: 0.142
# Mean RMSD: 0.142
data_MOF--net-umg--node1-ICAMEG_clean_sbu_1--edge1-none
_symmetry_space_group_name_H-M    P1
_symmetry_Int_Tables_number       1
_symmetry_cell_setting            triclinic
loop_
_symmetry_equiv_pos_as_xyz
'x, y, z'
_cell_length_a     14.699828
_cell_length_b     14.683139
_cell_length_c     42.575458
_cell_angle_alpha  89.999278
_cell_angle_beta   89.997645
_cell_angle_gamma 119.87277
loop_
_atom_site_label
_atom_site_type_symbol
_atom_site_fract_x
_atom_site_fract_y
_atom_site_fract_z
_atom_type_partial_charge
Co0 Co 0.28105 0.68406 0.09329 0.0
Co1 Co 0.22327 0.44508 0.12048 0.0
O2 O 0.29701 0.56221 0.09415 0.0
C3 C 0.27596 0.60612 0.02913 0.0
O4 O 0.19916 0.5168 0.03967 0.0
C5 C 0.45136 0.5088 0.13355 0.0
O6 O 0.47119 0.60371 0.14077 0.0
O7 O 0.26323 0.53657 0.15754 0.0
O8 O 0.2532 0.67666 0.14134 0.0
H9 H 0.04307 0.29332 0.21911 0.0
H10 H 0.47713 0.68926 0.0702 0.0
O11 O 0.31242 0.68807 0.04645 0.0
H12 H 0.58699 0.94968 0.15586 0.0
H13 H 0.38814 0.02876 0.04237 0.0
H14 H 0.1302 0.75209 0.1118 0.0
H15 H 0.40493 0.86029 0.13652 0.0
H16 H 0.41186 0.88239 0.05972 0.0
O17 O 0.35846 0.4384 0.12575 0.0
H18 H 0.07739 0.39948 0.17196 0.0
H19 H 0.23331 0.25135 0.13092 0.0
H20 H 0.10744 0.90487 0.09667 0.0
H21 H 0.65937 0.7754 0.08972 0.0
H22 H 0.23108 0.03628 0.05957 0.0
H23 H 0.71463 0.90407 0.13311 0.0
O24 O 0.12185 0.59577 0.08663 0.0
H25 H 0.32261 0.3027 0.02867 0.0
H26 H 0.03458 0.24989 0.09906 0.0
H27 H 0.01403 0.10272 0.06508 0.0
H28 H 0.1609 0.1281 0.03119 0.0
H29 H 0.3433 0.44184 0.06513 0.0
H30 H 0.21894 0.15962 0.17966 0.0
H31 H 0.12071 0.18003 0.22508 0.0
O32 O 0.08254 0.45011 0.11461 0.0
C33 C 0.25901 0.61838 0.16338 0.0
C34 C 0.09077 0.28852 0.20087 0.0
C35 C 0.18264 0.20761 0.17802 0.0
N36 N 0.15657 0.33073 0.14882 0.0
C37 C 0.10483 0.34362 0.17332 0.0
C38 C 0.1908 0.26002 0.15026 0.0
C39 C 0.13161 0.22191 0.20351 0.0
C40 C 0.50102 0.74718 0.08869 0.0
N41 N 0.42988 0.76846 0.1025 0.0
C42 C 0.60408 0.79486 0.09978 0.0
C43 C 0.63498 0.86688 0.12437 0.0
C44 C 0.56356 0.89258 0.13709 0.0
C45 C 0.46076 0.84215 0.12585 0.0
C46 C 0.33164 0.96948 0.05801 0.0
C47 C 0.18799 0.81527 0.09769 0.0
C48 C 0.34533 0.88713 0.0684 0.0
N49 N 0.27304 0.81049 0.08767 0.0
C50 C 0.17307 0.89836 0.08831 0.0
C51 C 0.24352 0.97359 0.06759 0.0
C52 C 0.05352 0.51063 0.10045 0.0
C53 C 0.2587 0.29012 0.04404 0.0
C54 C 0.09675 0.26096 0.08351 0.0
C55 C 0.0854 0.17799 0.06467 0.0
C56 C 0.16808 0.19227 0.04545 0.0
N57 N 0.19007 0.35239 0.08467 0.0
C58 C 0.26914 0.36923 0.06438 0.0
Co59 Co 0.59592 0.28295 0.42737 0.0
Co60 Co 0.77771 0.22364 0.45457 0.0
O61 O 0.7321 0.29803 0.42917 0.0
C62 C 0.66736 0.2757 0.36296 0.0
O63 O 0.67985 0.19871 0.37348 0.0
C64 C 0.93944 0.45191 0.4669 0.0
O65 O 0.8626 0.47007 0.4731 0.0
O66 O 0.72562 0.26078 0.4921 0.0
O67 O 0.57754 0.25734 0.4757 0.0
H68 H 0.80893 0.05516 0.55381 0.0
H69 H 0.78276 0.47369 0.40162 0.0
O70 O 0.62246 0.31253 0.38038 0.0
H71 H 0.64821 0.59769 0.48801 0.0
H72 H 0.36951 0.40383 0.37588 0.0
H73 H 0.37147 0.12172 0.43666 0.0
H74 H 0.55132 0.41261 0.47104 0.0
H75 H 0.53388 0.42262 0.39633 0.0
O76 O 0.91935 0.35862 0.46003 0.0
H77 H 0.72247 0.11999 0.51845 0.0
H78 H 0.96624 0.19722 0.4519 0.0
H79 H 0.2023 0.10453 0.41991 0.0
H80 H 0.88139 0.65861 0.41832 0.0
H81 H 0.20188 0.24204 0.38708 0.0
H82 H 0.81783 0.72006 0.46193 0.0
O83 O 0.52544 0.12376 0.42134 0.0
H84 H 0.01366 0.33635 0.3614 0.0
H85 H 0.77099 0.03349 0.42609 0.0
H86 H 0.89397 0.01685 0.38902 0.0
H87 H 0.02048 0.17124 0.35874 0.0
H88 H 0.90141 0.35325 0.40096 0.0
H89 H 0.02848 0.10222 0.48287 0.0
H90 H 0.96607 0.05255 0.53788 0.0
O91 O 0.63063 0.08249 0.44937 0.0
C92 C 0.64094 0.26042 0.49774 0.0
C93 C 0.84476 0.09046 0.53196 0.0
C94 C 0.96783 0.11415 0.49201 0.0
N95 N 0.83411 0.15728 0.48154 0.0
C96 C 0.79518 0.12528 0.51115 0.0
C97 C 0.92512 0.15992 0.47318 0.0
C98 C 0.93106 0.08417 0.52229 0.0
C99 C 0.75193 0.5006 0.42022 0.0
N100 N 0.66217 0.43209 0.43567 0.0
C101 C 0.80893 0.60505 0.42969 0.0
C102 C 0.77264 0.63972 0.45448 0.0
C103 C 0.67815 0.57099 0.46904 0.0
C104 C 0.62362 0.46654 0.45927 0.0
C105 C 0.36851 0.34358 0.39069 0.0
C106 C 0.37011 0.18658 0.42593 0.0
C107 C 0.4614 0.35454 0.40304 0.0
N108 N 0.46181 0.2767 0.42075 0.0
C109 C 0.27513 0.17443 0.41487 0.0
C110 C 0.27465 0.25243 0.39664 0.0
C111 C 0.54041 0.05492 0.43564 0.0
C112 C 0.96078 0.26917 0.37547 0.0
C113 C 0.82261 0.09849 0.41141 0.0
C114 C 0.89247 0.08933 0.39106 0.0
C115 C 0.96381 0.17629 0.37375 0.0
N116 N 0.83258 0.1945 0.41668 0.0
C117 C 0.89597 0.27769 0.39773 0.0
Co118 Co 0.30549 0.59459 0.76005 0.0
Co119 Co 0.54561 0.77586 0.78653 0.0
O120 O 0.42722 0.73223 0.76069 0.0
C121 C 0.3822 0.66547 0.69598 0.0
O122 O 0.47157 0.67759 0.70638 0.0
C123 C 0.48207 0.94067 0.79978 0.0
O124 O 0.38692 0.86598 0.80667 0.0
O125 O 0.45528 0.72408 0.82395 0.0
O126 O 0.31348 0.57524 0.808 0.0
H127 H 0.69917 0.74879 0.88481 0.0
H128 H 0.30003 0.78423 0.73596 0.0
O129 O 0.30061 0.62051 0.71333 0.0
H130 H 0.04189 0.64076 0.82225 0.0
H131 H 0.96224 0.35797 0.70879 0.0
H132 H 0.23838 0.3752 0.77827 0.0
H133 H 0.1305 0.54591 0.80361 0.0
H134 H 0.10626 0.52734 0.72706 0.0
O135 O 0.55236 0.9177 0.79207 0.0
H136 H 0.59368 0.67618 0.83761 0.0
H137 H 0.74033 0.97923 0.79618 0.0
H138 H 0.08787 0.20025 0.76213 0.0
H139 H 0.21418 0.88207 0.75447 0.0
H140 H 0.95714 0.19319 0.72482 0.0
H141 H 0.0868 0.81226 0.79832 0.0
O142 O 0.39375 0.52317 0.7535 0.0
H143 H 0.67995 0.01168 0.69308 0.0
H144 H 0.73942 0.78105 0.76391 0.0
H145 H 0.88046 0.89916 0.72686 0.0
H146 H 0.85209 0.01866 0.69266 0.0
H147 H 0.54625 0.89966 0.73173 0.0
H148 H 0.83289 0.05717 0.84496 0.0
H149 H 0.81102 0.93923 0.89058 0.0
O150 O 0.54111 0.63065 0.78047 0.0
C151 C 0.37266 0.63897 0.82989 0.0
C152 C 0.70382 0.80083 0.86643 0.0
C153 C 0.78464 0.97302 0.84333 0.0
N154 N 0.66138 0.82364 0.81433 0.0
C155 C 0.64924 0.75939 0.83886 0.0
C156 C 0.73208 0.92842 0.81559 0.0
C157 C 0.7699 0.90814 0.86896 0.0
C158 C 0.24264 0.75173 0.7546 0.0
N159 N 0.22157 0.66015 0.76899 0.0
C160 C 0.19525 0.8082 0.76518 0.0
C161 C 0.12392 0.76909 0.78997 0.0
C162 C 0.09855 0.67286 0.80335 0.0
C163 C 0.14855 0.61928 0.79253 0.0
C164 C 0.0213 0.36038 0.72447 0.0
C165 C 0.17524 0.37024 0.76418 0.0
C166 C 0.10226 0.45606 0.73545 0.0
N167 N 0.17906 0.46022 0.75465 0.0
C168 C 0.09346 0.27254 0.75422 0.0
C169 C 0.01853 0.26813 0.73342 0.0
C170 C 0.48008 0.54083 0.76672 0.0
C171 C 0.69388 0.96112 0.70843 0.0
C172 C 0.72665 0.83076 0.74813 0.0
C173 C 0.80624 0.89764 0.72755 0.0
C174 C 0.79026 0.9648 0.70815 0.0
N175 N 0.63634 0.8348 0.75031 0.0
C176 C 0.61793 0.89635 0.73011 0.0
Co177 Co 0.70819 0.30871 0.09329 0.0
Co178 Co 0.76596 0.54768 0.12048 0.0
O179 O 0.69223 0.43056 0.09415 0.0
C180 C 0.71332 0.38667 0.02913 0.0
O181 O 0.79011 0.47598 0.03966 0.0
C182 C 0.53786 0.48395 0.13355 0.0
O183 O 0.51803 0.38904 0.14077 0.0
O184 O 0.72598 0.45617 0.15754 0.0
O185 O 0.73602 0.31609 0.14134 0.0
H186 H 0.94611 0.6994 0.21911 0.0
H187 H 0.51213 0.30352 0.0702 0.0
O188 O 0.67685 0.30472 0.04645 0.0
H189 H 0.40222 0.04308 0.15586 0.0
H190 H 0.60112 0.96402 0.04237 0.0
H191 H 0.85904 0.24067 0.1118 0.0
H192 H 0.5843 0.13246 0.13652 0.0
H193 H 0.5774 0.11039 0.05972 0.0
O194 O 0.63077 0.55435 0.12575 0.0
H195 H 0.91181 0.59325 0.17196 0.0
H196 H 0.75591 0.7414 0.13092 0.0
H197 H 0.8818 0.08789 0.09667 0.0
H198 H 0.32988 0.21738 0.08972 0.0
H199 H 0.75817 0.95649 0.05957 0.0
H200 H 0.2746 0.08869 0.13311 0.0
O201 O 0.86739 0.397 0.08663 0.0
H202 H 0.66666 0.69009 0.02867 0.0
H203 H 0.95466 0.74287 0.09906 0.0
H204 H 0.97523 0.89005 0.06508 0.0
H205 H 0.82837 0.86469 0.03119 0.0
H206 H 0.64596 0.55094 0.06513 0.0
H207 H 0.77025 0.83311 0.17967 0.0
H208 H 0.86847 0.81268 0.22509 0.0
O209 O 0.9067 0.54265 0.11461 0.0
C210 C 0.7302 0.37436 0.16338 0.0
C211 C 0.89842 0.70421 0.20087 0.0
C212 C 0.80655 0.78512 0.17802 0.0
N213 N 0.83264 0.66202 0.14882 0.0
C214 C 0.88437 0.64912 0.17332 0.0
C215 C 0.79841 0.73272 0.15026 0.0
C216 C 0.85758 0.77081 0.20351 0.0
C217 C 0.48823 0.24559 0.08868 0.0
N218 N 0.55936 0.2243 0.1025 0.0
C219 C 0.38516 0.19791 0.09978 0.0
C220 C 0.35425 0.12588 0.12437 0.0
C221 C 0.42567 0.10017 0.13709 0.0
C222 C 0.52847 0.15061 0.12585 0.0
C223 C 0.65761 0.02329 0.05801 0.0
C224 C 0.80126 0.17749 0.09769 0.0
C225 C 0.64393 0.10564 0.0684 0.0
N226 N 0.71621 0.18228 0.08767 0.0
C227 C 0.81617 0.09441 0.08831 0.0
C228 C 0.74573 0.01918 0.06759 0.0
C229 C 0.93572 0.48214 0.10045 0.0
C230 C 0.73056 0.70267 0.04404 0.0
C231 C 0.89249 0.73181 0.08351 0.0
C232 C 0.90386 0.81478 0.06467 0.0
C233 C 0.82118 0.80052 0.04545 0.0
N234 N 0.79918 0.64038 0.08467 0.0
C235 C 0.72011 0.62355 0.06438 0.0
Co236 Co 0.39316 0.70975 0.42737 0.0
Co237 Co 0.21136 0.76907 0.45457 0.0
O238 O 0.25698 0.69467 0.42917 0.0
C239 C 0.32173 0.71699 0.36296 0.0
O240 O 0.30923 0.79398 0.37348 0.0
C241 C 0.04962 0.54079 0.4669 0.0
O242 O 0.12646 0.52263 0.4731 0.0
O243 O 0.26344 0.73191 0.49211 0.0
O244 O 0.41153 0.73537 0.4757 0.0
H245 H 0.18012 0.9375 0.55382 0.0
H246 H 0.20632 0.51901 0.40162 0.0
O247 O 0.36663 0.68016 0.38038 0.0
H248 H 0.34087 0.39501 0.48802 0.0
H249 H 0.61957 0.58887 0.37588 0.0
H250 H 0.61761 0.87099 0.43665 0.0
H251 H 0.43775 0.5801 0.47104 0.0
H252 H 0.4552 0.57007 0.39634 0.0
O253 O 0.06971 0.63408 0.46003 0.0
H254 H 0.26658 0.87267 0.51846 0.0
H255 H 0.02285 0.79553 0.45191 0.0
H256 H 0.78678 0.88819 0.4199 0.0
H257 H 0.1077 0.33408 0.41833 0.0
H258 H 0.7872 0.75067 0.38707 0.0
H259 H 0.17126 0.27264 0.46194 0.0
O260 O 0.46363 0.86894 0.42134 0.0
H261 H 0.97546 0.65639 0.3614 0.0
H262 H 0.21812 0.95923 0.42609 0.0
H263 H 0.09517 0.9759 0.38901 0.0
H264 H 0.96866 0.82152 0.35874 0.0
H265 H 0.08767 0.63947 0.40096 0.0
H266 H 0.96063 0.89054 0.48287 0.0
H267 H 0.02301 0.94016 0.53789 0.0
O268 O 0.35845 0.9102 0.44937 0.0
C269 C 0.34812 0.73227 0.49775 0.0
C270 C 0.1443 0.90222 0.53197 0.0
C271 C 0.02126 0.87858 0.49201 0.0
N272 N 0.15496 0.83542 0.48155 0.0
C273 C 0.19388 0.8674 0.51115 0.0
C274 C 0.06397 0.83281 0.47319 0.0
C275 C 0.05801 0.90853 0.52229 0.0
C276 C 0.23715 0.4921 0.42023 0.0
N277 N 0.32691 0.56061 0.43568 0.0
C278 C 0.18015 0.38765 0.4297 0.0
C279 C 0.21645 0.35298 0.45448 0.0
C280 C 0.31093 0.42171 0.46905 0.0
C281 C 0.36545 0.52616 0.45928 0.0
C282 C 0.62057 0.64913 0.39069 0.0
C283 C 0.61897 0.80613 0.42593 0.0
C284 C 0.52769 0.63816 0.40305 0.0
N285 N 0.52727 0.71601 0.42075 0.0
C286 C 0.71394 0.81829 0.41486 0.0
C287 C 0.71443 0.74028 0.39663 0.0
C288 C 0.44866 0.93778 0.43564 0.0
C289 C 0.02834 0.72357 0.37547 0.0
C290 C 0.1665 0.89424 0.41141 0.0
C291 C 0.09666 0.90341 0.39106 0.0
C292 C 0.02532 0.81646 0.37375 0.0
N293 N 0.15651 0.79822 0.41668 0.0
C294 C 0.09313 0.71503 0.39773 0.0
Co295 Co 0.68377 0.39821 0.76004 0.0
Co296 Co 0.44367 0.21693 0.78654 0.0
O297 O 0.56205 0.26056 0.76069 0.0
C298 C 0.607 0.32731 0.69598 0.0
O299 O 0.51766 0.31522 0.7064 0.0
C300 C 0.50722 0.05213 0.79978 0.0
O301 O 0.60238 0.12682 0.80666 0.0
O302 O 0.53401 0.26873 0.82395 0.0
O303 O 0.67581 0.41756 0.808 0.0
H304 H 0.29009 0.24397 0.88482 0.0
H305 H 0.68923 0.20857 0.73595 0.0
O306 O 0.68861 0.37226 0.71332 0.0
H307 H 0.94735 0.352 0.82223 0.0
H308 H 0.02706 0.63479 0.70878 0.0
H309 H 0.7509 0.6176 0.77826 0.0
H310 H 0.85878 0.44687 0.80359 0.0
H311 H 0.88299 0.46544 0.72704 0.0
O312 O 0.43693 0.0751 0.79207 0.0
H313 H 0.39561 0.3166 0.83763 0.0
H314 H 0.24895 0.01356 0.79619 0.0
H315 H 0.90144 0.79254 0.76211 0.0
H316 H 0.77506 0.1107 0.75445 0.0
H317 H 0.03218 0.79959 0.72481 0.0
H318 H 0.90242 0.18049 0.79831 0.0
O319 O 0.59551 0.46962 0.7535 0.0
H320 H 0.30933 0.9811 0.69309 0.0
H321 H 0.24987 0.21175 0.76393 0.0
H322 H 0.10882 0.09364 0.72687 0.0
H323 H 0.1372 0.97413 0.69267 0.0
H324 H 0.44303 0.09313 0.73174 0.0
H325 H 0.15639 0.9356 0.84497 0.0
H326 H 0.17824 0.05353 0.89059 0.0
O327 O 0.44816 0.36214 0.78047 0.0
C328 C 0.61664 0.35384 0.82989 0.0
C329 C 0.28545 0.19193 0.86645 0.0
C330 C 0.20464 0.01975 0.84334 0.0
N331 N 0.32791 0.16914 0.81435 0.0
C332 C 0.34004 0.23339 0.83887 0.0
C333 C 0.2572 0.06436 0.8156 0.0
C334 C 0.21937 0.08463 0.86897 0.0
C335 C 0.74662 0.24105 0.75459 0.0
N336 N 0.76769 0.33264 0.76898 0.0
C337 C 0.794 0.18457 0.76517 0.0
C338 C 0.86532 0.22367 0.78996 0.0
C339 C 0.8907 0.3199 0.80333 0.0
C340 C 0.84072 0.3735 0.79251 0.0
C341 C 0.96799 0.63239 0.72446 0.0
C342 C 0.81404 0.62256 0.76416 0.0
C343 C 0.88701 0.53671 0.73543 0.0
N344 N 0.81021 0.53256 0.75463 0.0
C345 C 0.89583 0.72025 0.75421 0.0
C346 C 0.97077 0.72465 0.7334 0.0
C347 C 0.50918 0.45196 0.76672 0.0
C348 C 0.2954 0.03167 0.70844 0.0
C349 C 0.26263 0.16203 0.74814 0.0
C350 C 0.18305 0.09515 0.72757 0.0
C351 C 0.19902 0.02799 0.70817 0.0
N352 N 0.35294 0.15798 0.75033 0.0
C353 C 0.37135 0.09644 0.73013 0.0
Co354 Co 0.30552 0.70934 0.60172 0.0
Co355 Co 0.5454 0.76753 0.57521 0.0
O356 O 0.42722 0.69318 0.6011 0.0
C357 C 0.38217 0.715 0.66578 0.0
O358 O 0.47151 0.79206 0.65539 0.0
C359 C 0.48198 0.53952 0.562 0.0
O360 O 0.38687 0.51936 0.55507 0.0
O361 O 0.45509 0.72877 0.53781 0.0
O362 O 0.31361 0.7367 0.55373 0.0
H363 H 0.69842 0.94674 0.47674 0.0
H364 H 0.30005 0.51427 0.62582 0.0
O365 O 0.30058 0.67853 0.64844 0.0
H366 H 0.04222 0.40032 0.53946 0.0
H367 H 0.96152 0.60325 0.65267 0.0
H368 H 0.23895 0.86169 0.58362 0.0
H369 H 0.13072 0.58351 0.55811 0.0
H370 H 0.10588 0.5776 0.63464 0.0
O371 O 0.55226 0.63252 0.56975 0.0
H372 H 0.59243 0.9139 0.52384 0.0
H373 H 0.74021 0.75891 0.56571 0.0
H374 H 0.08805 0.88652 0.59936 0.0
H375 H 0.2143 0.33083 0.60731 0.0
H376 H 0.95665 0.76303 0.63653 0.0
H377 H 0.08705 0.27362 0.56342 0.0
O378 O 0.39378 0.86888 0.60829 0.0
H379 H 0.68038 0.66631 0.66866 0.0
H380 H 0.73828 0.95626 0.59809 0.0
H381 H 0.87943 0.97953 0.63519 0.0
H382 H 0.85187 0.83172 0.66927 0.0
H383 H 0.54667 0.64439 0.62993 0.0
H384 H 0.83214 0.77211 0.51698 0.0
H385 H 0.81083 0.86835 0.47116 0.0
O386 O 0.54084 0.90831 0.58118 0.0
C387 C 0.37272 0.73183 0.53183 0.0
C388 C 0.70307 0.89944 0.49515 0.0
C389 C 0.78406 0.80834 0.51847 0.0
N390 N 0.66088 0.83506 0.54735 0.0
C391 C 0.64817 0.8863 0.52267 0.0
C392 C 0.73176 0.80106 0.54621 0.0
C393 C 0.76944 0.85835 0.49275 0.0
C394 C 0.24273 0.48953 0.60716 0.0
N395 N 0.22169 0.5601 0.59276 0.0
C396 C 0.1954 0.38582 0.59658 0.0
C397 C 0.12416 0.3538 0.57177 0.0
C398 C 0.09882 0.42472 0.55838 0.0
C399 C 0.14875 0.52815 0.56921 0.0
C400 C 0.02085 0.65983 0.63706 0.0
C401 C 0.17541 0.80366 0.59756 0.0
C402 C 0.102 0.64494 0.62623 0.0
N403 N 0.17903 0.71744 0.6071 0.0
C404 C 0.09345 0.81976 0.60733 0.0
C405 C 0.01819 0.74935 0.62805 0.0
C406 C 0.47998 0.93735 0.595 0.0
C407 C 0.69402 0.73075 0.65334 0.0
C408 C 0.72597 0.89375 0.61375 0.0
C409 C 0.80557 0.90667 0.63439 0.0
C410 C 0.79003 0.82359 0.65373 0.0
N411 N 0.63615 0.79932 0.61144 0.0
C412 C 0.61807 0.71941 0.6316 0.0
Co413 Co 0.59558 0.31001 0.93418 0.0
Co414 Co 0.77741 0.55162 0.90752 0.0
O415 O 0.73176 0.43089 0.93257 0.0
C416 C 0.66506 0.38722 0.99862 0.0
O417 O 0.67766 0.47679 0.98818 0.0
C418 C 0.93952 0.48565 0.89498 0.0
O419 O 0.86287 0.39058 0.88897 0.0
O420 O 0.72553 0.46344 0.86971 0.0
O421 O 0.57809 0.31792 0.8859 0.0
H422 H 0.81528 0.75337 0.80823 0.0
H423 H 0.78173 0.30592 0.96057 0.0
O424 O 0.62081 0.30596 0.98111 0.0
H425 H 0.65177 0.04933 0.87377 0.0
H426 H 0.36799 0.96363 0.98567 0.0
H427 H 0.37193 0.24781 0.92447 0.0
H428 H 0.55355 0.13689 0.89027 0.0
H429 H 0.53267 0.10735 0.96486 0.0
O430 O 0.91916 0.55866 0.90187 0.0
H431 H 0.72679 0.60167 0.84311 0.0
H432 H 0.96193 0.76904 0.91205 0.0
H433 H 0.20218 0.09814 0.94169 0.0
H434 H 0.88153 0.21994 0.94456 0.0
H435 H 0.20094 0.96006 0.97477 0.0
H436 H 0.8201 0.09576 0.90058 0.0
O437 O 0.52474 0.39876 0.94019 0.0
H438 H 0.01039 0.67175 1.00163 0.0
H439 H 0.76218 0.72756 0.93805 0.0
H440 H 0.87362 0.86064 0.97815 0.0
H441 H 0.00348 0.83585 1.00808 0.0
H442 H 0.90571 0.54732 0.9601 0.0
H443 H 0.0278 0.92537 0.88076 0.0
H444 H 0.97065 0.91285 0.82514 0.0
O445 O 0.63061 0.54597 0.91272 0.0
C446 C 0.6413 0.37882 0.86396 0.0
C447 C 0.84912 0.75383 0.83046 0.0
C448 C 0.96779 0.85297 0.87137 0.0
N449 N 0.83416 0.6756 0.88105 0.0
C450 C 0.79829 0.66904 0.85103 0.0
C451 C 0.92307 0.76464 0.89024 0.0
C452 C 0.93413 0.84626 0.84069 0.0
C453 C 0.75189 0.24861 0.94186 0.0
N454 N 0.66262 0.22749 0.92606 0.0
C455 C 0.80966 0.20145 0.93272 0.0
C456 C 0.77464 0.13104 0.9078 0.0
C457 C 0.68074 0.10558 0.89282 0.0
C458 C 0.62541 0.15511 0.90233 0.0
C459 C 0.36733 0.02293 0.97078 0.0
C460 C 0.36998 0.18156 0.93532 0.0
C461 C 0.46041 0.10379 0.95822 0.0
N462 N 0.46137 0.1823 0.94052 0.0
C463 C 0.27478 0.09993 0.94662 0.0
C464 C 0.27382 0.02149 0.965 0.0
C465 C 0.54031 0.48336 0.92628 0.0
C466 C 0.95624 0.68506 0.98783 0.0
C467 C 0.8151 0.71507 0.95241 0.0
C468 C 0.87845 0.79046 0.97459 0.0
C469 C 0.95137 0.77641 0.9917 0.0
N470 N 0.83115 0.63347 0.94577 0.0
C471 C 0.89622 0.61469 0.96431 0.0
Co472 Co 0.28097 0.59751 0.2679 0.0
Co473 Co 0.22198 0.77979 0.24082 0.0
O474 O 0.29625 0.73387 0.26611 0.0
C475 C 0.27357 0.66877 0.33232 0.0
O476 O 0.19663 0.68123 0.32181 0.0
C477 C 0.45009 0.94126 0.22848 0.0
O478 O 0.468 0.86414 0.22235 0.0
O479 O 0.25869 0.72765 0.20319 0.0
O480 O 0.2555 0.57944 0.21952 0.0
H481 H 0.05401 0.81105 0.14172 0.0
H482 H 0.47146 0.78424 0.29379 0.0
O483 O 0.31043 0.62393 0.31489 0.0
H484 H 0.59598 0.64938 0.20762 0.0
H485 H 0.40278 0.37187 0.31943 0.0
H486 H 0.11881 0.37217 0.25948 0.0
H487 H 0.41061 0.55324 0.22414 0.0
H488 H 0.42128 0.53568 0.29854 0.0
O489 O 0.35696 0.92143 0.2353 0.0
H490 H 0.1182 0.72451 0.17707 0.0
H491 H 0.19542 0.9686 0.24362 0.0
H492 H 0.10192 0.20353 0.27665 0.0
H493 H 0.65665 0.88214 0.27752 0.0
H494 H 0.24046 0.20391 0.30907 0.0
H495 H 0.71856 0.81826 0.23414 0.0
O496 O 0.12191 0.52704 0.27391 0.0
H497 H 0.33624 0.01534 0.33413 0.0
H498 H 0.03261 0.77396 0.26956 0.0
H499 H 0.01714 0.89727 0.30683 0.0
H500 H 0.17183 0.02302 0.33709 0.0
H501 H 0.35215 0.90307 0.29435 0.0
H502 H 0.09963 0.03026 0.21279 0.0
H503 H 0.05058 0.96806 0.15768 0.0
O504 O 0.0808 0.63271 0.24606 0.0
C505 C 0.25842 0.64295 0.1975 0.0
C506 C 0.08865 0.8468 0.16361 0.0
C507 C 0.11186 0.96977 0.2036 0.0
N508 N 0.15561 0.83635 0.21397 0.0
C509 C 0.12351 0.79729 0.18439 0.0
C510 C 0.15804 0.92733 0.22237 0.0
C511 C 0.08208 0.93302 0.1733 0.0
C512 C 0.49842 0.75338 0.27521 0.0
N513 N 0.42998 0.66386 0.25961 0.0
C514 C 0.60304 0.80999 0.26598 0.0
C515 C 0.63794 0.77355 0.2413 0.0
C516 C 0.56914 0.67944 0.22652 0.0
C517 C 0.46452 0.62535 0.23603 0.0
C518 C 0.34215 0.37046 0.30475 0.0
C519 C 0.18413 0.37123 0.26995 0.0
C520 C 0.35294 0.46305 0.2921 0.0
N521 N 0.27464 0.46312 0.27459 0.0
C522 C 0.17212 0.27649 0.2813 0.0
C523 C 0.25068 0.27645 0.2993 0.0
C524 C 0.05314 0.54225 0.2597 0.0
C525 C 0.2689 0.96274 0.3201 0.0
C526 C 0.09779 0.82526 0.28421 0.0
C527 C 0.08924 0.89527 0.30469 0.0
C528 C 0.17639 0.96622 0.32199 0.0
N529 N 0.19345 0.83484 0.2788 0.0
C530 C 0.27685 0.89791 0.2977 0.0
Co531 Co 0.68357 0.28335 0.60171 0.0
Co532 Co 0.44368 0.22516 0.57522 0.0
O533 O 0.56187 0.29952 0.6011 0.0
C534 C 0.60698 0.27775 0.66579 0.0
O535 O 0.51762 0.2007 0.6554 0.0
C536 C 0.50708 0.45317 0.562 0.0
O537 O 0.60219 0.47332 0.55507 0.0
O538 O 0.53398 0.26393 0.53781 0.0
O539 O 0.67545 0.25599 0.55373 0.0
H540 H 0.29067 0.04595 0.47676 0.0
H541 H 0.68904 0.47844 0.62581 0.0
O542 O 0.68855 0.31419 0.64843 0.0
H543 H 0.94689 0.59237 0.53944 0.0
H544 H 0.02755 0.38941 0.65265 0.0
H545 H 0.75012 0.131 0.58361 0.0
H546 H 0.85836 0.40918 0.55809 0.0
H547 H 0.88323 0.4151 0.63462 0.0
O548 O 0.43681 0.36017 0.56975 0.0
H549 H 0.39665 0.07879 0.52385 0.0
H550 H 0.24886 0.23377 0.56572 0.0
H551 H 0.901 0.10614 0.59935 0.0
H552 H 0.77481 0.66188 0.6073 0.0
H553 H 0.03239 0.22961 0.63652 0.0
H554 H 0.90207 0.71909 0.56341 0.0
O555 O 0.5953 0.12382 0.60829 0.0
H556 H 0.30868 0.32635 0.66867 0.0
H557 H 0.2508 0.03642 0.59809 0.0
H558 H 0.10964 0.01313 0.6352 0.0
H559 H 0.13719 0.16094 0.66929 0.0
H560 H 0.4424 0.34828 0.62994 0.0
H561 H 0.15693 0.22057 0.51699 0.0
H562 H 0.17826 0.12433 0.47117 0.0
O563 O 0.44825 0.08439 0.58118 0.0
C564 C 0.61634 0.26086 0.53183 0.0
C565 C 0.28602 0.09325 0.49516 0.0
C566 C 0.20501 0.18434 0.51849 0.0
N567 N 0.32819 0.15763 0.54736 0.0
C568 C 0.34091 0.10638 0.52268 0.0
C569 C 0.25732 0.19163 0.54622 0.0
C570 C 0.21965 0.13434 0.49276 0.0
C571 C 0.74636 0.50317 0.60715 0.0
N572 N 0.7674 0.43259 0.59275 0.0
C573 C 0.7937 0.60689 0.59656 0.0
C574 C 0.86495 0.6389 0.57175 0.0
C575 C 0.89029 0.56798 0.55836 0.0
C576 C 0.84034 0.46454 0.56919 0.0
C577 C 0.96822 0.33284 0.63705 0.0
C578 C 0.81367 0.18903 0.59754 0.0
C579 C 0.88709 0.34775 0.62621 0.0
N580 N 0.81006 0.27526 0.60708 0.0
C581 C 0.89561 0.17291 0.60732 0.0
C582 C 0.97086 0.2433 0.62805 0.0
C583 C 0.50912 0.05535 0.595 0.0
C584 C 0.29504 0.26191 0.65335 0.0
C585 C 0.2631 0.09892 0.61376 0.0
C586 C 0.1835 0.086 0.6344 0.0
C587 C 0.19904 0.16907 0.65374 0.0
N588 N 0.35293 0.19336 0.61145 0.0
C589 C 0.371 0.27326 0.63161 0.0
Co590 Co 0.39372 0.6828 0.93418 0.0
Co591 Co 0.21189 0.44119 0.90753 0.0
O592 O 0.25754 0.56192 0.93257 0.0
C593 C 0.32423 0.60557 0.99862 0.0
O594 O 0.31163 0.51601 0.98818 0.0
C595 C 0.04979 0.50717 0.89498 0.0
O596 O 0.12645 0.60224 0.88897 0.0
O597 O 0.26378 0.52937 0.86971 0.0
O598 O 0.41121 0.67489 0.8859 0.0
H599 H 0.17405 0.23943 0.80825 0.0
H600 H 0.20756 0.68688 0.96058 0.0
O601 O 0.36849 0.68684 0.98111 0.0
H602 H 0.33751 0.94347 0.87377 0.0
H603 H 0.6213 0.02916 0.98567 0.0
H604 H 0.61737 0.745 0.92446 0.0
H605 H 0.43574 0.85592 0.89028 0.0
H606 H 0.45663 0.88545 0.96487 0.0
O607 O 0.07014 0.43416 0.90188 0.0
H608 H 0.26255 0.39113 0.84312 0.0
H609 H 0.02734 0.2238 0.91205 0.0
H610 H 0.78712 0.89467 0.94168 0.0
H611 H 0.10775 0.77284 0.94456 0.0
H612 H 0.78835 0.03273 0.97477 0.0
H613 H 0.16917 0.89701 0.90059 0.0
O614 O 0.46456 0.59405 0.94019 0.0
H615 H 0.97887 0.32105 1.00164 0.0
H616 H 0.22708 0.26523 0.93805 0.0
H617 H 0.1156 0.13212 0.97815 0.0
H618 H 0.98574 0.15693 1.00808 0.0
H619 H 0.08359 0.4455 0.96011 0.0
H620 H 0.96143 0.06747 0.88077 0.0
H621 H 0.01864 0.07998 0.82515 0.0
O622 O 0.35869 0.44684 0.91273 0.0
C623 C 0.34801 0.61399 0.86397 0.0
C624 C 0.14019 0.23898 0.83047 0.0
C625 C 0.02147 0.13986 0.87138 0.0
N626 N 0.15514 0.31722 0.88106 0.0
C627 C 0.19103 0.32377 0.85104 0.0
C628 C 0.0662 0.22819 0.89025 0.0
C629 C 0.05516 0.14656 0.8407 0.0
C630 C 0.2374 0.74419 0.94187 0.0
N631 N 0.32667 0.76531 0.92607 0.0
C632 C 0.17963 0.79133 0.93272 0.0
C633 C 0.21464 0.86175 0.9078 0.0
C634 C 0.30854 0.88722 0.89282 0.0
C635 C 0.36388 0.8377 0.90233 0.0
C636 C 0.62196 0.96986 0.97078 0.0
C637 C 0.61932 0.81126 0.93532 0.0
C638 C 0.52889 0.88901 0.95822 0.0
N639 N 0.52793 0.81051 0.94052 0.0
C640 C 0.71451 0.89288 0.94661 0.0
C641 C 0.71547 0.97131 0.965 0.0
C642 C 0.44899 0.50945 0.92628 0.0
C643 C 0.03302 0.30774 0.98784 0.0
C644 C 0.17416 0.27772 0.95241 0.0
C645 C 0.11079 0.20232 0.97459 0.0
C646 C 0.03787 0.21638 0.9917 0.0
N647 N 0.15814 0.35933 0.94578 0.0
C648 C 0.09306 0.37812 0.96432 0.0
Co649 Co 0.70819 0.3952 0.2679 0.0
Co650 Co 0.76719 0.21293 0.24082 0.0
O651 O 0.69291 0.25884 0.26611 0.0
C652 C 0.71554 0.32392 0.33232 0.0
O653 O 0.79248 0.31145 0.32182 0.0
C654 C 0.53909 0.05146 0.22847 0.0
O655 O 0.52118 0.12858 0.22235 0.0
O656 O 0.73049 0.26508 0.20319 0.0
O657 O 0.73368 0.41328 0.21952 0.0
H658 H 0.93519 0.18168 0.14172 0.0
H659 H 0.51769 0.20846 0.29378 0.0
O660 O 0.6787 0.36877 0.31488 0.0
H661 H 0.39321 0.34335 0.20761 0.0
H662 H 0.58635 0.62082 0.31943 0.0
H663 H 0.87036 0.62054 0.25949 0.0
H664 H 0.57856 0.43948 0.22414 0.0
H665 H 0.56786 0.45702 0.29853 0.0
O666 O 0.63222 0.07128 0.2353 0.0
H667 H 0.87099 0.26822 0.17707 0.0
H668 H 0.79375 0.02412 0.24363 0.0
H669 H 0.88724 0.78918 0.27665 0.0
H670 H 0.33251 0.11057 0.27751 0.0
H671 H 0.74868 0.78878 0.30907 0.0
H672 H 0.27061 0.17445 0.23413 0.0
O673 O 0.86725 0.46567 0.27391 0.0
H674 H 0.6529 0.97736 0.33414 0.0
H675 H 0.95655 0.21876 0.26956 0.0
H676 H 0.97202 0.09546 0.30683 0.0
H677 H 0.81732 0.96969 0.33709 0.0
H678 H 0.637 0.08963 0.29435 0.0
H679 H 0.88955 0.96246 0.21279 0.0
H680 H 0.93862 0.02467 0.15768 0.0
O681 O 0.90837 0.36001 0.24606 0.0
C682 C 0.73077 0.34978 0.19749 0.0
C683 C 0.90055 0.14593 0.16361 0.0
C684 C 0.87732 0.02296 0.2036 0.0
N685 N 0.83357 0.15637 0.21397 0.0
C686 C 0.86568 0.19544 0.1844 0.0
C687 C 0.83114 0.06539 0.22237 0.0
C688 C 0.90711 0.05971 0.1733 0.0
C689 C 0.49073 0.23933 0.2752 0.0
N690 N 0.55918 0.32885 0.25961 0.0
C691 C 0.38612 0.18272 0.26598 0.0
C692 C 0.35123 0.21917 0.2413 0.0
C693 C 0.42003 0.31327 0.22651 0.0
C694 C 0.52466 0.36737 0.23602 0.0
C695 C 0.64699 0.62223 0.30474 0.0
C696 C 0.80503 0.62148 0.26995 0.0
C697 C 0.6362 0.52965 0.2921 0.0
N698 N 0.71452 0.52959 0.27458 0.0
C699 C 0.81703 0.71621 0.2813 0.0
C700 C 0.73847 0.71625 0.2993 0.0
C701 C 0.93602 0.45047 0.2597 0.0
C702 C 0.72025 0.02997 0.3201 0.0
C703 C 0.89137 0.16745 0.28422 0.0
C704 C 0.89991 0.09745 0.30469 0.0
C705 C 0.81276 0.0265 0.32199 0.0
N706 N 0.79571 0.15787 0.2788 0.0
C707 C 0.7123 0.09479 0.2977 0.0
loop_
_geom_bond_atom_site_label_1
_geom_bond_atom_site_label_2
_geom_bond_distance
_geom_bond_site_symmetry_2
_ccdc_geom_bond_type
Co0 O2 2.143 . S
Co0 O8 2.074 . S
Co0 O11 2.093 . S
Co0 O24 2.097 . S
Co0 N41 2.151 . S
Co0 N49 2.214 . S
Co1 O2 2.160 . S
Co1 O7 2.058 . S
Co1 O17 2.057 . S
Co1 O32 2.037 . S
Co1 N36 2.145 . S
Co1 N57 2.257 . S
O2 Co0 2.143 . S
O2 Co1 2.160 . S
C3 O4 1.278 . S
C3 O11 1.224 . S
O4 C3 1.278 . S
C5 O6 1.245 . S
C5 O17 1.232 . S
O6 C5 1.245 . S
O7 Co1 2.058 . S
O7 C33 1.269 . S
O8 Co0 2.074 . S
O8 C33 1.257 . S
H9 C34 0.930 1_655 S
H10 C40 0.930 . S
O11 Co0 2.093 . S
O11 C3 1.224 . S
H12 C44 0.929 . S
H13 C46 0.930 1_545 S
H14 C47 0.930 . S
H15 C45 0.929 . S
H16 C48 0.928 . S
O17 Co1 2.057 . S
O17 C5 1.232 . S
H18 C37 0.929 . S
H19 C38 0.929 . S
H20 C50 0.931 . S
H21 C42 0.929 . S
H22 C51 0.930 1_545 S
H23 C43 0.931 . S
O24 Co0 2.097 . S
O24 C52 1.214 . S
H25 C53 0.929 . S
H26 C54 0.929 . S
H27 C55 0.930 1_655 S
H28 C56 0.929 . S
H29 C58 0.930 . S
H30 C35 0.930 . S
H31 C39 0.930 . S
O32 Co1 2.037 . S
O32 C52 1.234 . S
C33 O7 1.269 . S
C33 O8 1.257 . S
C34 H9 0.930 1_455 S
C34 C37 1.388 . S
C34 C39 1.418 . S
C35 H30 0.930 . S
C35 C38 1.404 . S
C35 C39 1.353 . S
N36 Co1 2.145 . S
N36 C37 1.397 . S
N36 C38 1.334 . S
C37 H18 0.929 . S
C37 C34 1.388 . S
C37 N36 1.397 . S
C38 H19 0.929 . S
C38 C35 1.404 . S
C38 N36 1.334 . S
C39 H31 0.930 . S
C39 C34 1.418 . S
C39 C35 1.353 . S
C40 H10 0.930 . S
C40 N41 1.330 . S
C40 C42 1.446 . S
N41 Co0 2.151 . S
N41 C40 1.330 . S
N41 C45 1.418 . S
C42 H21 0.929 . S
C42 C40 1.446 . S
C42 C43 1.332 1_565 S
C43 H23 0.931 . S
C43 C42 1.332 1_545 S
C43 C44 1.267 . S
C44 H12 0.929 . S
C44 C43 1.267 . S
C44 C45 1.251 1_545 S
C45 H15 0.929 . S
C45 N41 1.418 . S
C45 C44 1.251 1_565 S
C46 H13 0.930 1_565 S
C46 C48 1.406 . S
C46 C51 1.261 . S
C47 H14 0.930 . S
C47 N49 1.325 . S
C47 C50 1.357 . S
C48 H16 0.928 . S
C48 C46 1.406 . S
C48 N49 1.261 . S
N49 Co0 2.214 . S
N49 C47 1.325 . S
N49 C48 1.261 . S
C50 H20 0.931 . S
C50 C47 1.357 . S
C50 C51 1.312 . S
C51 H22 0.930 1_565 S
C51 C46 1.261 . S
C51 C50 1.312 . S
C52 O24 1.214 . S
C52 O32 1.234 . S
C53 H25 0.929 . S
C53 C56 1.391 . S
C53 C58 1.391 . S
C54 H26 0.929 . S
C54 C55 1.390 . S
C54 N57 1.391 . S
C55 H27 0.930 1_455 S
C55 C54 1.390 . S
C55 C56 1.392 . S
C56 H28 0.929 . S
C56 C53 1.391 . S
C56 C55 1.392 . S
N57 Co1 2.257 . S
N57 C54 1.391 . S
N57 C58 1.388 . S
C58 H29 0.930 . S
C58 C53 1.391 . S
C58 N57 1.388 . S
Co59 O61 2.143 . S
Co59 O67 2.074 . S
Co59 O70 2.093 . S
Co59 O83 2.097 . S
Co59 N100 2.151 . S
Co59 N108 2.214 . S
Co60 O61 2.160 . S
Co60 O66 2.058 . S
Co60 O76 2.057 . S
Co60 O91 2.037 . S
Co60 N95 2.145 . S
Co60 N116 2.257 . S
O61 Co59 2.143 . S
O61 Co60 2.160 . S
C62 O63 1.278 . S
C62 O70 1.224 . S
O63 C62 1.278 . S
C64 O65 1.245 . S
C64 O76 1.232 . S
O65 C64 1.245 . S
O66 Co60 2.058 . S
O66 C92 1.269 . S
O67 Co59 2.074 . S
O67 C92 1.257 . S
H68 C93 0.930 1_565 S
H69 C99 0.930 . S
O70 Co59 2.093 . S
O70 C62 1.224 . S
H71 C103 0.929 . S
H72 C105 0.930 . S
H73 C106 0.930 . S
H74 C104 0.929 . S
H75 C107 0.928 . S
O76 Co60 2.057 . S
O76 C64 1.232 . S
H77 C96 0.929 . S
H78 C97 0.929 . S
H79 C109 0.931 . S
H80 C101 0.929 . S
H81 C110 0.930 . S
H82 C102 0.931 . S
O83 Co59 2.097 . S
O83 C111 1.214 . S
H84 C112 0.929 . S
H85 C113 0.929 . S
H86 C114 0.930 1_565 S
H87 C115 0.929 . S
H88 C117 0.930 . S
H89 C94 0.930 1_455 S
H90 C98 0.930 . S
O91 Co60 2.037 . S
O91 C111 1.234 . S
C92 O66 1.269 . S
C92 O67 1.257 . S
C93 H68 0.930 1_545 S
C93 C96 1.388 . S
C93 C98 1.418 . S
C94 H89 0.930 1_655 S
C94 C97 1.404 . S
C94 C98 1.353 . S
N95 Co60 2.145 . S
N95 C96 1.397 . S
N95 C97 1.334 . S
C96 H77 0.929 . S
C96 C93 1.388 . S
C96 N95 1.397 . S
C97 H78 0.929 . S
C97 C94 1.404 . S
C97 N95 1.334 . S
C98 H90 0.930 . S
C98 C93 1.418 . S
C98 C94 1.353 . S
C99 H69 0.930 . S
C99 N100 1.330 . S
C99 C101 1.446 . S
N100 Co59 2.151 . S
N100 C99 1.330 . S
N100 C104 1.418 . S
C101 H80 0.929 . S
C101 C99 1.446 . S
C101 C102 1.332 . S
C102 H82 0.931 . S
C102 C101 1.332 . S
C102 C103 1.267 . S
C103 H71 0.929 . S
C103 C102 1.267 . S
C103 C104 1.251 . S
C104 H74 0.929 . S
C104 N100 1.418 . S
C104 C103 1.251 . S
C105 H72 0.930 . S
C105 C107 1.406 . S
C105 C110 1.261 . S
C106 H73 0.930 . S
C106 N108 1.325 . S
C106 C109 1.357 . S
C107 H75 0.928 . S
C107 C105 1.406 . S
C107 N108 1.261 . S
N108 Co59 2.214 . S
N108 C106 1.325 . S
N108 C107 1.261 . S
C109 H79 0.931 . S
C109 C106 1.357 . S
C109 C110 1.312 . S
C110 H81 0.930 . S
C110 C105 1.261 . S
C110 C109 1.312 . S
C111 O83 1.214 . S
C111 O91 1.234 . S
C112 H84 0.929 . S
C112 C115 1.391 . S
C112 C117 1.391 . S
C113 H85 0.929 . S
C113 C114 1.390 . S
C113 N116 1.391 . S
C114 H86 0.930 1_545 S
C114 C113 1.390 . S
C114 C115 1.392 . S
C115 H87 0.929 . S
C115 C112 1.391 . S
C115 C114 1.392 . S
N116 Co60 2.257 . S
N116 C113 1.391 . S
N116 C117 1.388 . S
C117 H88 0.930 . S
C117 C112 1.391 . S
C117 N116 1.388 . S
Co118 O120 2.143 . S
Co118 O126 2.074 . S
Co118 O129 2.093 . S
Co118 O142 2.097 . S
Co118 N159 2.151 . S
Co118 N167 2.214 . S
Co119 O120 2.160 . S
Co119 O125 2.058 . S
Co119 O135 2.057 . S
Co119 O150 2.037 . S
Co119 N154 2.145 . S
Co119 N175 2.257 . S
O120 Co118 2.143 . S
O120 Co119 2.160 . S
C121 O122 1.278 . S
C121 O129 1.224 . S
O122 C121 1.278 . S
C123 O124 1.245 . S
C123 O135 1.232 . S
O124 C123 1.245 . S
O125 Co119 2.058 . S
O125 C151 1.269 . S
O126 Co118 2.074 . S
O126 C151 1.257 . S
H127 C152 0.930 . S
H128 C158 0.930 . S
O129 Co118 2.093 . S
O129 C121 1.224 . S
H130 C162 0.929 . S
H131 C164 0.930 1_655 S
H132 C165 0.930 . S
H133 C163 0.929 . S
H134 C166 0.928 . S
O135 Co119 2.057 . S
O135 C123 1.232 . S
H136 C155 0.929 . S
H137 C156 0.929 . S
H138 C168 0.931 . S
H139 C160 0.929 . S
H140 C169 0.930 1_655 S
H141 C161 0.931 . S
O142 Co118 2.097 . S
O142 C170 1.214 . S
H143 C171 0.929 . S
H144 C172 0.929 . S
H145 C173 0.930 . S
H146 C174 0.929 . S
H147 C176 0.930 . S
H148 C153 0.930 1_545 S
H149 C157 0.930 . S
O150 Co119 2.037 . S
O150 C170 1.234 . S
C151 O125 1.269 . S
C151 O126 1.257 . S
C152 H127 0.930 . S
C152 C155 1.388 . S
C152 C157 1.418 . S
C153 H148 0.930 1_565 S
C153 C156 1.404 . S
C153 C157 1.353 . S
N154 Co119 2.145 . S
N154 C155 1.397 . S
N154 C156 1.334 . S
C155 H136 0.929 . S
C155 C152 1.388 . S
C155 N154 1.397 . S
C156 H137 0.929 . S
C156 C153 1.404 . S
C156 N154 1.334 . S
C157 H149 0.930 . S
C157 C152 1.418 . S
C157 C153 1.353 . S
C158 H128 0.930 . S
C158 N159 1.330 . S
C158 C160 1.446 . S
N159 Co118 2.151 . S
N159 C158 1.330 . S
N159 C163 1.418 . S
C160 H139 0.929 . S
C160 C158 1.446 . S
C160 C161 1.332 1_455 S
C161 H141 0.931 . S
C161 C160 1.332 1_655 S
C161 C162 1.267 . S
C162 H130 0.929 . S
C162 C161 1.267 . S
C162 C163 1.251 1_655 S
C163 H133 0.929 . S
C163 N159 1.418 . S
C163 C162 1.251 1_455 S
C164 H131 0.930 1_455 S
C164 C166 1.406 . S
C164 C169 1.261 . S
C165 H132 0.930 . S
C165 N167 1.325 . S
C165 C168 1.357 . S
C166 H134 0.928 . S
C166 C164 1.406 . S
C166 N167 1.261 . S
N167 Co118 2.214 . S
N167 C165 1.325 . S
N167 C166 1.261 . S
C168 H138 0.931 . S
C168 C165 1.357 . S
C168 C169 1.312 . S
C169 H140 0.930 1_455 S
C169 C164 1.261 . S
C169 C168 1.312 . S
C170 O142 1.214 . S
C170 O150 1.234 . S
C171 H143 0.929 . S
C171 C174 1.391 . S
C171 C176 1.391 . S
C172 H144 0.929 . S
C172 C173 1.390 . S
C172 N175 1.391 . S
C173 H145 0.930 . S
C173 C172 1.390 . S
C173 C174 1.392 . S
C174 H146 0.929 . S
C174 C171 1.391 . S
C174 C173 1.392 . S
N175 Co119 2.257 . S
N175 C172 1.391 . S
N175 C176 1.388 . S
C176 H147 0.930 . S
C176 C171 1.391 . S
C176 N175 1.388 . S
Co177 O179 2.143 . S
Co177 O185 2.074 . S
Co177 O188 2.093 . S
Co177 O201 2.097 . S
Co177 N218 2.151 . S
Co177 N226 2.214 . S
Co178 O179 2.160 . S
Co178 O184 2.058 . S
Co178 O194 2.057 . S
Co178 O209 2.037 . S
Co178 N213 2.145 . S
Co178 N234 2.257 . S
O179 Co177 2.143 . S
O179 Co178 2.160 . S
C180 O181 1.278 . S
C180 O188 1.224 . S
O181 C180 1.278 . S
C182 O183 1.245 . S
C182 O194 1.232 . S
O183 C182 1.245 . S
O184 Co178 2.058 . S
O184 C210 1.269 . S
O185 Co177 2.074 . S
O185 C210 1.257 . S
H186 C211 0.930 1_455 S
H187 C217 0.930 . S
O188 Co177 2.093 . S
O188 C180 1.224 . S
H189 C221 0.929 . S
H190 C223 0.930 1_565 S
H191 C224 0.930 . S
H192 C222 0.929 . S
H193 C225 0.928 . S
O194 Co178 2.057 . S
O194 C182 1.232 . S
H195 C214 0.929 . S
H196 C215 0.929 . S
H197 C227 0.931 . S
H198 C219 0.929 . S
H199 C228 0.930 1_565 S
H200 C220 0.931 . S
O201 Co177 2.097 . S
O201 C229 1.214 . S
H202 C230 0.929 . S
H203 C231 0.929 . S
H204 C232 0.930 1_455 S
H205 C233 0.929 . S
H206 C235 0.930 . S
H207 C212 0.930 . S
H208 C216 0.930 . S
O209 Co178 2.037 . S
O209 C229 1.234 . S
C210 O184 1.269 . S
C210 O185 1.257 . S
C211 H186 0.930 1_655 S
C211 C214 1.388 . S
C211 C216 1.418 . S
C212 H207 0.930 . S
C212 C215 1.404 . S
C212 C216 1.353 . S
N213 Co178 2.145 . S
N213 C214 1.397 . S
N213 C215 1.334 . S
C214 H195 0.929 . S
C214 C211 1.388 . S
C214 N213 1.397 . S
C215 H196 0.929 . S
C215 C212 1.404 . S
C215 N213 1.334 . S
C216 H208 0.930 . S
C216 C211 1.418 . S
C216 C212 1.353 . S
C217 H187 0.930 . S
C217 N218 1.330 . S
C217 C219 1.446 . S
N218 Co177 2.151 . S
N218 C217 1.330 . S
N218 C222 1.418 . S
C219 H198 0.929 . S
C219 C217 1.446 . S
C219 C220 1.332 1_545 S
C220 H200 0.931 . S
C220 C219 1.332 1_565 S
C220 C221 1.267 . S
C221 H189 0.929 . S
C221 C220 1.267 . S
C221 C222 1.251 1_565 S
C222 H192 0.929 . S
C222 N218 1.418 . S
C222 C221 1.251 1_545 S
C223 H190 0.930 1_545 S
C223 C225 1.406 . S
C223 C228 1.261 . S
C224 H191 0.930 . S
C224 N226 1.325 . S
C224 C227 1.357 . S
C225 H193 0.928 . S
C225 C223 1.406 . S
C225 N226 1.261 . S
N226 Co177 2.214 . S
N226 C224 1.325 . S
N226 C225 1.261 . S
C227 H197 0.931 . S
C227 C224 1.357 . S
C227 C228 1.312 . S
C228 H199 0.930 1_545 S
C228 C223 1.261 . S
C228 C227 1.312 . S
C229 O201 1.214 . S
C229 O209 1.234 . S
C230 H202 0.929 . S
C230 C233 1.391 . S
C230 C235 1.391 . S
C231 H203 0.929 . S
C231 C232 1.390 . S
C231 N234 1.391 . S
C232 H204 0.930 1_655 S
C232 C231 1.390 . S
C232 C233 1.392 . S
C233 H205 0.929 . S
C233 C230 1.391 . S
C233 C232 1.392 . S
N234 Co178 2.257 . S
N234 C231 1.391 . S
N234 C235 1.388 . S
C235 H206 0.930 . S
C235 C230 1.391 . S
C235 N234 1.388 . S
Co236 O238 2.143 . S
Co236 O244 2.074 . S
Co236 O247 2.093 . S
Co236 O260 2.097 . S
Co236 N277 2.151 . S
Co236 N285 2.214 . S
Co237 O238 2.160 . S
Co237 O243 2.058 . S
Co237 O253 2.057 . S
Co237 O268 2.037 . S
Co237 N272 2.145 . S
Co237 N293 2.257 . S
O238 Co236 2.143 . S
O238 Co237 2.160 . S
C239 O240 1.278 . S
C239 O247 1.224 . S
O240 C239 1.278 . S
C241 O242 1.245 . S
C241 O253 1.232 . S
O242 C241 1.245 . S
O243 Co237 2.058 . S
O243 C269 1.269 . S
O244 Co236 2.074 . S
O244 C269 1.257 . S
H245 C270 0.930 1_545 S
H246 C276 0.930 . S
O247 Co236 2.093 . S
O247 C239 1.224 . S
H248 C280 0.929 . S
H249 C282 0.930 . S
H250 C283 0.930 . S
H251 C281 0.929 . S
H252 C284 0.928 . S
O253 Co237 2.057 . S
O253 C241 1.232 . S
H254 C273 0.929 . S
H255 C274 0.929 . S
H256 C286 0.931 . S
H257 C278 0.929 . S
H258 C287 0.930 . S
H259 C279 0.931 . S
O260 Co236 2.097 . S
O260 C288 1.214 . S
H261 C289 0.929 . S
H262 C290 0.929 . S
H263 C291 0.930 1_545 S
H264 C292 0.929 . S
H265 C294 0.930 . S
H266 C271 0.930 1_655 S
H267 C275 0.930 . S
O268 Co237 2.037 . S
O268 C288 1.234 . S
C269 O243 1.269 . S
C269 O244 1.257 . S
C270 H245 0.930 1_565 S
C270 C273 1.388 . S
C270 C275 1.418 . S
C271 H266 0.930 1_455 S
C271 C274 1.404 . S
C271 C275 1.353 . S
N272 Co237 2.145 . S
N272 C273 1.397 . S
N272 C274 1.334 . S
C273 H254 0.929 . S
C273 C270 1.388 . S
C273 N272 1.397 . S
C274 H255 0.929 . S
C274 C271 1.404 . S
C274 N272 1.334 . S
C275 H267 0.930 . S
C275 C270 1.418 . S
C275 C271 1.353 . S
C276 H246 0.930 . S
C276 N277 1.330 . S
C276 C278 1.446 . S
N277 Co236 2.151 . S
N277 C276 1.330 . S
N277 C281 1.418 . S
C278 H257 0.929 . S
C278 C276 1.446 . S
C278 C279 1.332 . S
C279 H259 0.931 . S
C279 C278 1.332 . S
C279 C280 1.267 . S
C280 H248 0.929 . S
C280 C279 1.267 . S
C280 C281 1.251 . S
C281 H251 0.929 . S
C281 N277 1.418 . S
C281 C280 1.251 . S
C282 H249 0.930 . S
C282 C284 1.406 . S
C282 C287 1.261 . S
C283 H250 0.930 . S
C283 N285 1.325 . S
C283 C286 1.357 . S
C284 H252 0.928 . S
C284 C282 1.406 . S
C284 N285 1.261 . S
N285 Co236 2.214 . S
N285 C283 1.325 . S
N285 C284 1.261 . S
C286 H256 0.931 . S
C286 C283 1.357 . S
C286 C287 1.312 . S
C287 H258 0.930 . S
C287 C282 1.261 . S
C287 C286 1.312 . S
C288 O260 1.214 . S
C288 O268 1.234 . S
C289 H261 0.929 . S
C289 C292 1.391 . S
C289 C294 1.391 . S
C290 H262 0.929 . S
C290 C291 1.390 . S
C290 N293 1.391 . S
C291 H263 0.930 1_565 S
C291 C290 1.390 . S
C291 C292 1.392 . S
C292 H264 0.929 . S
C292 C289 1.391 . S
C292 C291 1.392 . S
N293 Co237 2.257 . S
N293 C290 1.391 . S
N293 C294 1.388 . S
C294 H265 0.930 . S
C294 C289 1.391 . S
C294 N293 1.388 . S
Co295 O297 2.143 . S
Co295 O303 2.074 . S
Co295 O306 2.093 . S
Co295 O319 2.097 . S
Co295 N336 2.151 . S
Co295 N344 2.214 . S
Co296 O297 2.160 . S
Co296 O302 2.058 . S
Co296 O312 2.057 . S
Co296 O327 2.037 . S
Co296 N331 2.145 . S
Co296 N352 2.257 . S
O297 Co295 2.143 . S
O297 Co296 2.160 . S
C298 O299 1.278 . S
C298 O306 1.224 . S
O299 C298 1.278 . S
C300 O301 1.245 . S
C300 O312 1.232 . S
O301 C300 1.245 . S
O302 Co296 2.058 . S
O302 C328 1.269 . S
O303 Co295 2.074 . S
O303 C328 1.257 . S
H304 C329 0.930 . S
H305 C335 0.930 . S
O306 Co295 2.093 . S
O306 C298 1.224 . S
H307 C339 0.929 . S
H308 C341 0.930 1_455 S
H309 C342 0.930 . S
H310 C340 0.929 . S
H311 C343 0.928 . S
O312 Co296 2.057 . S
O312 C300 1.232 . S
H313 C332 0.929 . S
H314 C333 0.929 . S
H315 C345 0.931 . S
H316 C337 0.929 . S
H317 C346 0.930 1_455 S
H318 C338 0.931 . S
O319 Co295 2.097 . S
O319 C347 1.214 . S
H320 C348 0.929 . S
H321 C349 0.929 . S
H322 C350 0.930 . S
H323 C351 0.929 . S
H324 C353 0.930 . S
H325 C330 0.930 1_565 S
H326 C334 0.930 . S
O327 Co296 2.037 . S
O327 C347 1.234 . S
C328 O302 1.269 . S
C328 O303 1.257 . S
C329 H304 0.930 . S
C329 C332 1.388 . S
C329 C334 1.418 . S
C330 H325 0.930 1_545 S
C330 C333 1.404 . S
C330 C334 1.353 . S
N331 Co296 2.145 . S
N331 C332 1.397 . S
N331 C333 1.334 . S
C332 H313 0.929 . S
C332 C329 1.388 . S
C332 N331 1.397 . S
C333 H314 0.929 . S
C333 C330 1.404 . S
C333 N331 1.334 . S
C334 H326 0.930 . S
C334 C329 1.418 . S
C334 C330 1.353 . S
C335 H305 0.930 . S
C335 N336 1.330 . S
C335 C337 1.446 . S
N336 Co295 2.151 . S
N336 C335 1.330 . S
N336 C340 1.418 . S
C337 H316 0.929 . S
C337 C335 1.446 . S
C337 C338 1.332 1_655 S
C338 H318 0.931 . S
C338 C337 1.332 1_455 S
C338 C339 1.267 . S
C339 H307 0.929 . S
C339 C338 1.267 . S
C339 C340 1.251 1_455 S
C340 H310 0.929 . S
C340 N336 1.418 . S
C340 C339 1.251 1_655 S
C341 H308 0.930 1_655 S
C341 C343 1.406 . S
C341 C346 1.261 . S
C342 H309 0.930 . S
C342 N344 1.325 . S
C342 C345 1.357 . S
C343 H311 0.928 . S
C343 C341 1.406 . S
C343 N344 1.261 . S
N344 Co295 2.214 . S
N344 C342 1.325 . S
N344 C343 1.261 . S
C345 H315 0.931 . S
C345 C342 1.357 . S
C345 C346 1.312 . S
C346 H317 0.930 1_655 S
C346 C341 1.261 . S
C346 C345 1.312 . S
C347 O319 1.214 . S
C347 O327 1.234 . S
C348 H320 0.929 . S
C348 C351 1.391 . S
C348 C353 1.391 . S
C349 H321 0.929 . S
C349 C350 1.390 . S
C349 N352 1.391 . S
C350 H322 0.930 . S
C350 C349 1.390 . S
C350 C351 1.392 . S
C351 H323 0.929 . S
C351 C348 1.391 . S
C351 C350 1.392 . S
N352 Co296 2.257 . S
N352 C349 1.391 . S
N352 C353 1.388 . S
C353 H324 0.930 . S
C353 C348 1.391 . S
C353 N352 1.388 . S
Co354 O356 2.143 . S
Co354 O362 2.074 . S
Co354 O365 2.093 . S
Co354 O378 2.097 . S
Co354 N395 2.151 . S
Co354 N403 2.214 . S
Co355 O356 2.160 . S
Co355 O361 2.058 . S
Co355 O371 2.057 . S
Co355 O386 2.037 . S
Co355 N390 2.145 . S
Co355 N411 2.257 . S
O356 Co354 2.143 . S
O356 Co355 2.160 . S
C357 O358 1.278 . S
C357 O365 1.224 . S
O358 C357 1.278 . S
C359 O360 1.245 . S
C359 O371 1.232 . S
O360 C359 1.245 . S
O361 Co355 2.058 . S
O361 C387 1.269 . S
O362 Co354 2.074 . S
O362 C387 1.257 . S
H363 C388 0.930 1_545 S
H364 C394 0.930 . S
O365 Co354 2.093 . S
O365 C357 1.224 . S
H366 C398 0.929 . S
H367 C400 0.930 1_655 S
H368 C401 0.930 . S
H369 C399 0.929 . S
H370 C402 0.928 . S
O371 Co355 2.057 . S
O371 C359 1.232 . S
H372 C391 0.929 . S
H373 C392 0.929 . S
H374 C404 0.931 . S
H375 C396 0.929 . S
H376 C405 0.930 1_655 S
H377 C397 0.931 . S
O378 Co354 2.097 . S
O378 C406 1.214 . S
H379 C407 0.929 . S
H380 C408 0.929 . S
H381 C409 0.930 1_545 S
H382 C410 0.929 . S
H383 C412 0.930 . S
H384 C389 0.930 . S
H385 C393 0.930 . S
O386 Co355 2.037 . S
O386 C406 1.234 . S
C387 O361 1.269 . S
C387 O362 1.257 . S
C388 H363 0.930 1_565 S
C388 C391 1.388 . S
C388 C393 1.418 . S
C389 H384 0.930 . S
C389 C392 1.404 . S
C389 C393 1.353 . S
N390 Co355 2.145 . S
N390 C391 1.397 . S
N390 C392 1.334 . S
C391 H372 0.929 . S
C391 C388 1.388 . S
C391 N390 1.397 . S
C392 H373 0.929 . S
C392 C389 1.404 . S
C392 N390 1.334 . S
C393 H385 0.930 . S
C393 C388 1.418 . S
C393 C389 1.353 . S
C394 H364 0.930 . S
C394 N395 1.330 . S
C394 C396 1.446 . S
N395 Co354 2.151 . S
N395 C394 1.330 . S
N395 C399 1.418 . S
C396 H375 0.929 . S
C396 C394 1.446 . S
C396 C397 1.332 1_455 S
C397 H377 0.931 . S
C397 C396 1.332 1_655 S
C397 C398 1.267 . S
C398 H366 0.929 . S
C398 C397 1.267 . S
C398 C399 1.251 1_655 S
C399 H369 0.929 . S
C399 N395 1.418 . S
C399 C398 1.251 1_455 S
C400 H367 0.930 1_455 S
C400 C402 1.406 . S
C400 C405 1.261 . S
C401 H368 0.930 . S
C401 N403 1.325 . S
C401 C404 1.357 . S
C402 H370 0.928 . S
C402 C400 1.406 . S
C402 N403 1.261 . S
N403 Co354 2.214 . S
N403 C401 1.325 . S
N403 C402 1.261 . S
C404 H374 0.931 . S
C404 C401 1.357 . S
C404 C405 1.312 . S
C405 H376 0.930 1_455 S
C405 C400 1.261 . S
C405 C404 1.312 . S
C406 O378 1.214 . S
C406 O386 1.234 . S
C407 H379 0.929 . S
C407 C410 1.391 . S
C407 C412 1.391 . S
C408 H380 0.929 . S
C408 C409 1.390 . S
C408 N411 1.391 . S
C409 H381 0.930 1_565 S
C409 C408 1.390 . S
C409 C410 1.392 . S
C410 H382 0.929 . S
C410 C407 1.391 . S
C410 C409 1.392 . S
N411 Co355 2.257 . S
N411 C408 1.391 . S
N411 C412 1.388 . S
C412 H383 0.930 . S
C412 C407 1.391 . S
C412 N411 1.388 . S
Co413 O415 2.143 . S
Co413 O421 2.074 . S
Co413 O424 2.093 . S
Co413 O437 2.097 . S
Co413 N454 2.151 . S
Co413 N462 2.214 . S
Co414 O415 2.160 . S
Co414 O420 2.058 . S
Co414 O430 2.057 . S
Co414 O445 2.037 . S
Co414 N449 2.145 . S
Co414 N470 2.257 . S
O415 Co413 2.143 . S
O415 Co414 2.160 . S
C416 O417 1.278 . S
C416 O424 1.224 . S
O417 C416 1.278 . S
C418 O419 1.245 . S
C418 O430 1.232 . S
O419 C418 1.245 . S
O420 Co414 2.058 . S
O420 C446 1.269 . S
O421 Co413 2.074 . S
O421 C446 1.257 . S
H422 C447 0.930 . S
H423 C453 0.930 . S
O424 Co413 2.093 . S
O424 C416 1.224 . S
H425 C457 0.929 . S
H426 C459 0.930 1_565 S
H427 C460 0.930 . S
H428 C458 0.929 . S
H429 C461 0.928 . S
O430 Co414 2.057 . S
O430 C418 1.232 . S
H431 C450 0.929 . S
H432 C451 0.929 . S
H433 C463 0.931 . S
H434 C455 0.929 . S
H435 C464 0.930 1_565 S
H436 C456 0.931 . S
O437 Co413 2.097 . S
O437 C465 1.214 . S
H438 C466 0.929 . S
H439 C467 0.929 . S
H440 C468 0.930 . S
H441 C469 0.929 . S
H442 C471 0.930 . S
H443 C448 0.930 1_455 S
H444 C452 0.930 . S
O445 Co414 2.037 . S
O445 C465 1.234 . S
C446 O420 1.269 . S
C446 O421 1.257 . S
C447 H422 0.930 . S
C447 C450 1.388 . S
C447 C452 1.418 . S
C448 H443 0.930 1_655 S
C448 C451 1.404 . S
C448 C452 1.353 . S
N449 Co414 2.145 . S
N449 C450 1.397 . S
N449 C451 1.334 . S
C450 H431 0.929 . S
C450 C447 1.388 . S
C450 N449 1.397 . S
C451 H432 0.929 . S
C451 C448 1.404 . S
C451 N449 1.334 . S
C452 H444 0.930 . S
C452 C447 1.418 . S
C452 C448 1.353 . S
C453 H423 0.930 . S
C453 N454 1.330 . S
C453 C455 1.446 . S
N454 Co413 2.151 . S
N454 C453 1.330 . S
N454 C458 1.418 . S
C455 H434 0.929 . S
C455 C453 1.446 . S
C455 C456 1.332 1_545 S
C456 H436 0.931 . S
C456 C455 1.332 1_565 S
C456 C457 1.267 . S
C457 H425 0.929 . S
C457 C456 1.267 . S
C457 C458 1.251 1_565 S
C458 H428 0.929 . S
C458 N454 1.418 . S
C458 C457 1.251 1_545 S
C459 H426 0.930 1_545 S
C459 C461 1.406 . S
C459 C464 1.261 . S
C460 H427 0.930 . S
C460 N462 1.325 . S
C460 C463 1.357 . S
C461 H429 0.928 . S
C461 C459 1.406 . S
C461 N462 1.261 . S
N462 Co413 2.214 . S
N462 C460 1.325 . S
N462 C461 1.261 . S
C463 H433 0.931 . S
C463 C460 1.357 . S
C463 C464 1.312 . S
C464 H435 0.930 1_545 S
C464 C459 1.261 . S
C464 C463 1.312 . S
C465 O437 1.214 . S
C465 O445 1.234 . S
C466 H438 0.929 . S
C466 C469 1.391 . S
C466 C471 1.391 . S
C467 H439 0.929 . S
C467 C468 1.390 . S
C467 N470 1.391 . S
C468 H440 0.930 . S
C468 C467 1.390 . S
C468 C469 1.392 . S
C469 H441 0.929 . S
C469 C466 1.391 . S
C469 C468 1.392 . S
N470 Co414 2.257 . S
N470 C467 1.391 . S
N470 C471 1.388 . S
C471 H442 0.930 . S
C471 C466 1.391 . S
C471 N470 1.388 . S
Co472 O474 2.143 . S
Co472 O480 2.074 . S
Co472 O483 2.093 . S
Co472 O496 2.097 . S
Co472 N513 2.151 . S
Co472 N521 2.214 . S
Co473 O474 2.160 . S
Co473 O479 2.058 . S
Co473 O489 2.057 . S
Co473 O504 2.037 . S
Co473 N508 2.145 . S
Co473 N529 2.257 . S
O474 Co472 2.143 . S
O474 Co473 2.160 . S
C475 O476 1.278 . S
C475 O483 1.224 . S
O476 C475 1.278 . S
C477 O478 1.245 . S
C477 O489 1.232 . S
O478 C477 1.245 . S
O479 Co473 2.058 . S
O479 C505 1.269 . S
O480 Co472 2.074 . S
O480 C505 1.257 . S
H481 C506 0.930 1_655 S
H482 C512 0.930 . S
O483 Co472 2.093 . S
O483 C475 1.224 . S
H484 C516 0.929 . S
H485 C518 0.930 . S
H486 C519 0.930 . S
H487 C517 0.929 . S
H488 C520 0.928 . S
O489 Co473 2.057 . S
O489 C477 1.232 . S
H490 C509 0.929 . S
H491 C510 0.929 . S
H492 C522 0.931 . S
H493 C514 0.929 . S
H494 C523 0.930 . S
H495 C515 0.931 . S
O496 Co472 2.097 . S
O496 C524 1.214 . S
H497 C525 0.929 . S
H498 C526 0.929 . S
H499 C527 0.930 1_655 S
H500 C528 0.929 . S
H501 C530 0.930 . S
H502 C507 0.930 1_545 S
H503 C511 0.930 . S
O504 Co473 2.037 . S
O504 C524 1.234 . S
C505 O479 1.269 . S
C505 O480 1.257 . S
C506 H481 0.930 1_455 S
C506 C509 1.388 . S
C506 C511 1.418 . S
C507 H502 0.930 1_565 S
C507 C510 1.404 . S
C507 C511 1.353 . S
N508 Co473 2.145 . S
N508 C509 1.397 . S
N508 C510 1.334 . S
C509 H490 0.929 . S
C509 C506 1.388 . S
C509 N508 1.397 . S
C510 H491 0.929 . S
C510 C507 1.404 . S
C510 N508 1.334 . S
C511 H503 0.930 . S
C511 C506 1.418 . S
C511 C507 1.353 . S
C512 H482 0.930 . S
C512 N513 1.330 . S
C512 C514 1.446 . S
N513 Co472 2.151 . S
N513 C512 1.330 . S
N513 C517 1.418 . S
C514 H493 0.929 . S
C514 C512 1.446 . S
C514 C515 1.332 . S
C515 H495 0.931 . S
C515 C514 1.332 . S
C515 C516 1.267 . S
C516 H484 0.929 . S
C516 C515 1.267 . S
C516 C517 1.251 . S
C517 H487 0.929 . S
C517 N513 1.418 . S
C517 C516 1.251 . S
C518 H485 0.930 . S
C518 C520 1.406 . S
C518 C523 1.261 . S
C519 H486 0.930 . S
C519 N521 1.325 . S
C519 C522 1.357 . S
C520 H488 0.928 . S
C520 C518 1.406 . S
C520 N521 1.261 . S
N521 Co472 2.214 . S
N521 C519 1.325 . S
N521 C520 1.261 . S
C522 H492 0.931 . S
C522 C519 1.357 . S
C522 C523 1.312 . S
C523 H494 0.930 . S
C523 C518 1.261 . S
C523 C522 1.312 . S
C524 O496 1.214 . S
C524 O504 1.234 . S
C525 H497 0.929 . S
C525 C528 1.391 . S
C525 C530 1.391 . S
C526 H498 0.929 . S
C526 C527 1.390 . S
C526 N529 1.391 . S
C527 H499 0.930 1_455 S
C527 C526 1.390 . S
C527 C528 1.392 . S
C528 H500 0.929 . S
C528 C525 1.391 . S
C528 C527 1.392 . S
N529 Co473 2.257 . S
N529 C526 1.391 . S
N529 C530 1.388 . S
C530 H501 0.930 . S
C530 C525 1.391 . S
C530 N529 1.388 . S
Co531 O533 2.143 . S
Co531 O539 2.074 . S
Co531 O542 2.093 . S
Co531 O555 2.097 . S
Co531 N572 2.151 . S
Co531 N580 2.214 . S
Co532 O533 2.160 . S
Co532 O538 2.058 . S
Co532 O548 2.057 . S
Co532 O563 2.037 . S
Co532 N567 2.145 . S
Co532 N588 2.257 . S
O533 Co531 2.143 . S
O533 Co532 2.160 . S
C534 O535 1.278 . S
C534 O542 1.224 . S
O535 C534 1.278 . S
C536 O537 1.245 . S
C536 O548 1.232 . S
O537 C536 1.245 . S
O538 Co532 2.058 . S
O538 C564 1.269 . S
O539 Co531 2.074 . S
O539 C564 1.257 . S
H540 C565 0.930 1_565 S
H541 C571 0.930 . S
O542 Co531 2.093 . S
O542 C534 1.224 . S
H543 C575 0.929 . S
H544 C577 0.930 1_455 S
H545 C578 0.930 . S
H546 C576 0.929 . S
H547 C579 0.928 . S
O548 Co532 2.057 . S
O548 C536 1.232 . S
H549 C568 0.929 . S
H550 C569 0.929 . S
H551 C581 0.931 . S
H552 C573 0.929 . S
H553 C582 0.930 1_455 S
H554 C574 0.931 . S
O555 Co531 2.097 . S
O555 C583 1.214 . S
H556 C584 0.929 . S
H557 C585 0.929 . S
H558 C586 0.930 1_565 S
H559 C587 0.929 . S
H560 C589 0.930 . S
H561 C566 0.930 . S
H562 C570 0.930 . S
O563 Co532 2.037 . S
O563 C583 1.234 . S
C564 O538 1.269 . S
C564 O539 1.257 . S
C565 H540 0.930 1_545 S
C565 C568 1.388 . S
C565 C570 1.418 . S
C566 H561 0.930 . S
C566 C569 1.404 . S
C566 C570 1.353 . S
N567 Co532 2.145 . S
N567 C568 1.397 . S
N567 C569 1.334 . S
C568 H549 0.929 . S
C568 C565 1.388 . S
C568 N567 1.397 . S
C569 H550 0.929 . S
C569 C566 1.404 . S
C569 N567 1.334 . S
C570 H562 0.930 . S
C570 C565 1.418 . S
C570 C566 1.353 . S
C571 H541 0.930 . S
C571 N572 1.330 . S
C571 C573 1.446 . S
N572 Co531 2.151 . S
N572 C571 1.330 . S
N572 C576 1.418 . S
C573 H552 0.929 . S
C573 C571 1.446 . S
C573 C574 1.332 1_655 S
C574 H554 0.931 . S
C574 C573 1.332 1_455 S
C574 C575 1.267 . S
C575 H543 0.929 . S
C575 C574 1.267 . S
C575 C576 1.251 1_455 S
C576 H546 0.929 . S
C576 N572 1.418 . S
C576 C575 1.251 1_655 S
C577 H544 0.930 1_655 S
C577 C579 1.406 . S
C577 C582 1.261 . S
C578 H545 0.930 . S
C578 N580 1.325 . S
C578 C581 1.357 . S
C579 H547 0.928 . S
C579 C577 1.406 . S
C579 N580 1.261 . S
N580 Co531 2.214 . S
N580 C578 1.325 . S
N580 C579 1.261 . S
C581 H551 0.931 . S
C581 C578 1.357 . S
C581 C582 1.312 . S
C582 H553 0.930 1_655 S
C582 C577 1.261 . S
C582 C581 1.312 . S
C583 O555 1.214 . S
C583 O563 1.234 . S
C584 H556 0.929 . S
C584 C587 1.391 . S
C584 C589 1.391 . S
C585 H557 0.929 . S
C585 C586 1.390 . S
C585 N588 1.391 . S
C586 H558 0.930 1_545 S
C586 C585 1.390 . S
C586 C587 1.392 . S
C587 H559 0.929 . S
C587 C584 1.391 . S
C587 C586 1.392 . S
N588 Co532 2.257 . S
N588 C585 1.391 . S
N588 C589 1.388 . S
C589 H560 0.930 . S
C589 C584 1.391 . S
C589 N588 1.388 . S
Co590 O592 2.143 . S
Co590 O598 2.074 . S
Co590 O601 2.093 . S
Co590 O614 2.097 . S
Co590 N631 2.151 . S
Co590 N639 2.214 . S
Co591 O592 2.160 . S
Co591 O597 2.058 . S
Co591 O607 2.057 . S
Co591 O622 2.037 . S
Co591 N626 2.145 . S
Co591 N647 2.257 . S
O592 Co590 2.143 . S
O592 Co591 2.160 . S
C593 O594 1.278 . S
C593 O601 1.224 . S
O594 C593 1.278 . S
C595 O596 1.245 . S
C595 O607 1.232 . S
O596 C595 1.245 . S
O597 Co591 2.058 . S
O597 C623 1.269 . S
O598 Co590 2.074 . S
O598 C623 1.257 . S
H599 C624 0.930 . S
H600 C630 0.930 . S
O601 Co590 2.093 . S
O601 C593 1.224 . S
H602 C634 0.929 . S
H603 C636 0.930 1_545 S
H604 C637 0.930 . S
H605 C635 0.929 . S
H606 C638 0.928 . S
O607 Co591 2.057 . S
O607 C595 1.232 . S
H608 C627 0.929 . S
H609 C628 0.929 . S
H610 C640 0.931 . S
H611 C632 0.929 . S
H612 C641 0.930 1_545 S
H613 C633 0.931 . S
O614 Co590 2.097 . S
O614 C642 1.214 . S
H615 C643 0.929 . S
H616 C644 0.929 . S
H617 C645 0.930 . S
H618 C646 0.929 . S
H619 C648 0.930 . S
H620 C625 0.930 1_655 S
H621 C629 0.930 . S
O622 Co591 2.037 . S
O622 C642 1.234 . S
C623 O597 1.269 . S
C623 O598 1.257 . S
C624 H599 0.930 . S
C624 C627 1.388 . S
C624 C629 1.418 . S
C625 H620 0.930 1_455 S
C625 C628 1.404 . S
C625 C629 1.353 . S
N626 Co591 2.145 . S
N626 C627 1.397 . S
N626 C628 1.334 . S
C627 H608 0.929 . S
C627 C624 1.388 . S
C627 N626 1.397 . S
C628 H609 0.929 . S
C628 C625 1.404 . S
C628 N626 1.334 . S
C629 H621 0.930 . S
C629 C624 1.418 . S
C629 C625 1.353 . S
C630 H600 0.930 . S
C630 N631 1.330 . S
C630 C632 1.446 . S
N631 Co590 2.151 . S
N631 C630 1.330 . S
N631 C635 1.418 . S
C632 H611 0.929 . S
C632 C630 1.446 . S
C632 C633 1.332 1_565 S
C633 H613 0.931 . S
C633 C632 1.332 1_545 S
C633 C634 1.267 . S
C634 H602 0.929 . S
C634 C633 1.267 . S
C634 C635 1.251 1_545 S
C635 H605 0.929 . S
C635 N631 1.418 . S
C635 C634 1.251 1_565 S
C636 H603 0.930 1_565 S
C636 C638 1.406 . S
C636 C641 1.261 . S
C637 H604 0.930 . S
C637 N639 1.325 . S
C637 C640 1.357 . S
C638 H606 0.928 . S
C638 C636 1.406 . S
C638 N639 1.261 . S
N639 Co590 2.214 . S
N639 C637 1.325 . S
N639 C638 1.261 . S
C640 H610 0.931 . S
C640 C637 1.357 . S
C640 C641 1.312 . S
C641 H612 0.930 1_565 S
C641 C636 1.261 . S
C641 C640 1.312 . S
C642 O614 1.214 . S
C642 O622 1.234 . S
C643 H615 0.929 . S
C643 C646 1.391 . S
C643 C648 1.391 . S
C644 H616 0.929 . S
C644 C645 1.390 . S
C644 N647 1.391 . S
C645 H617 0.930 . S
C645 C644 1.390 . S
C645 C646 1.392 . S
C646 H618 0.929 . S
C646 C643 1.391 . S
C646 C645 1.392 . S
N647 Co591 2.257 . S
N647 C644 1.391 . S
N647 C648 1.388 . S
C648 H619 0.930 . S
C648 C643 1.391 . S
C648 N647 1.388 . S
Co649 O651 2.143 . S
Co649 O657 2.074 . S
Co649 O660 2.093 . S
Co649 O673 2.097 . S
Co649 N690 2.151 . S
Co649 N698 2.214 . S
Co650 O651 2.160 . S
Co650 O656 2.058 . S
Co650 O666 2.057 . S
Co650 O681 2.037 . S
Co650 N685 2.145 . S
Co650 N706 2.257 . S
O651 Co649 2.143 . S
O651 Co650 2.160 . S
C652 O653 1.278 . S
C652 O660 1.224 . S
O653 C652 1.278 . S
C654 O655 1.245 . S
C654 O666 1.232 . S
O655 C654 1.245 . S
O656 Co650 2.058 . S
O656 C682 1.269 . S
O657 Co649 2.074 . S
O657 C682 1.257 . S
H658 C683 0.930 1_455 S
H659 C689 0.930 . S
O660 Co649 2.093 . S
O660 C652 1.224 . S
H661 C693 0.929 . S
H662 C695 0.930 . S
H663 C696 0.930 . S
H664 C694 0.929 . S
H665 C697 0.928 . S
O666 Co650 2.057 . S
O666 C654 1.232 . S
H667 C686 0.929 . S
H668 C687 0.929 . S
H669 C699 0.931 . S
H670 C691 0.929 . S
H671 C700 0.930 . S
H672 C692 0.931 . S
O673 Co649 2.097 . S
O673 C701 1.214 . S
H674 C702 0.929 . S
H675 C703 0.929 . S
H676 C704 0.930 1_455 S
H677 C705 0.929 . S
H678 C707 0.930 . S
H679 C684 0.930 1_565 S
H680 C688 0.930 . S
O681 Co650 2.037 . S
O681 C701 1.234 . S
C682 O656 1.269 . S
C682 O657 1.257 . S
C683 H658 0.930 1_655 S
C683 C686 1.388 . S
C683 C688 1.418 . S
C684 H679 0.930 1_545 S
C684 C687 1.404 . S
C684 C688 1.353 . S
N685 Co650 2.145 . S
N685 C686 1.397 . S
N685 C687 1.334 . S
C686 H667 0.929 . S
C686 C683 1.388 . S
C686 N685 1.397 . S
C687 H668 0.929 . S
C687 C684 1.404 . S
C687 N685 1.334 . S
C688 H680 0.930 . S
C688 C683 1.418 . S
C688 C684 1.353 . S
C689 H659 0.930 . S
C689 N690 1.330 . S
C689 C691 1.446 . S
N690 Co649 2.151 . S
N690 C689 1.330 . S
N690 C694 1.418 . S
C691 H670 0.929 . S
C691 C689 1.446 . S
C691 C692 1.332 . S
C692 H672 0.931 . S
C692 C691 1.332 . S
C692 C693 1.267 . S
C693 H661 0.929 . S
C693 C692 1.267 . S
C693 C694 1.251 . S
C694 H664 0.929 . S
C694 N690 1.418 . S
C694 C693 1.251 . S
C695 H662 0.930 . S
C695 C697 1.406 . S
C695 C700 1.261 . S
C696 H663 0.930 . S
C696 N698 1.325 . S
C696 C699 1.357 . S
C697 H665 0.928 . S
C697 C695 1.406 . S
C697 N698 1.261 . S
N698 Co649 2.214 . S
N698 C696 1.325 . S
N698 C697 1.261 . S
C699 H669 0.931 . S
C699 C696 1.357 . S
C699 C700 1.312 . S
C700 H671 0.930 . S
C700 C695 1.261 . S
C700 C699 1.312 . S
C701 O673 1.214 . S
C701 O681 1.234 . S
C702 H674 0.929 . S
C702 C705 1.391 . S
C702 C707 1.391 . S
C703 H675 0.929 . S
C703 C704 1.390 . S
C703 N706 1.391 . S
C704 H676 0.930 1_655 S
C704 C703 1.390 . S
C704 C705 1.392 . S
C705 H677 0.929 . S
C705 C702 1.391 . S
C705 C704 1.392 . S
N706 Co650 2.257 . S
N706 C703 1.391 . S
N706 C707 1.388 . S
C707 H678 0.930 . S
C707 C702 1.391 . S
C707 N706 1.388 . S
C593 C3 1.772 1_556 S
C62 C652 1.772 . S
C121 C357 1.772 . S
C180 C416 1.772 1_554 S
C475 C239 1.772 . S
C298 C534 1.772 . S
C505 C33 1.725 . S
C92 C564 1.724 . S
C151 C623 1.724 . S
C210 C682 1.724 . S
C387 C269 1.726 . S
C446 C328 1.726 . S
C229 C52 1.785 1_655 S
C111 C288 1.785 1_545 S
C347 C170 1.785 . S
C583 C406 1.785 1_545 S
C642 C465 1.785 . S
C524 C701 1.785 1_455 S
C182 C5 1.251 . S
C64 C241 1.251 1_655 S
C300 C123 1.251 1_545 S
C359 C536 1.251 . S
C595 C418 1.251 1_455 S
C477 C654 1.251 1_565 S
