# Generated by pormake.
# Topology zft, (5)-cn, num edge types: 1
# Building blocks:
#     Node 0, Type 0, BuildingBlock: BEQFEK_clean_sbu_0, # of connection points: 5
#     Node 1, Type 0, BuildingBlock: BEQFEK_clean_sbu_0, # of connection points: 5
#     Node 2, Type 0, BuildingBlock: BEQFEK_clean_sbu_0, # of connection points: 5
#     Node 3, Type 0, BuildingBlock: BEQFEK_clean_sbu_0, # of connection points: 5
#     Node 4, Type 0, BuildingBlock: BEQFEK_clean_sbu_0, # of connection points: 5
#     Node 5, Type 0, BuildingBlock: BEQFEK_clean_sbu_0, # of connection points: 5
#     Node 6, Type 0, BuildingBlock: BEQFEK_clean_sbu_0, # of connection points: 5
#     Node 7, Type 0, BuildingBlock: BEQFEK_clean_sbu_0, # of connection points: 5
#     Edge 8, Type (0, 0), BuildingBlock: XIVTED_clean_linker_0, # of connection points: 2
#     Edge 9, Type (0, 0), BuildingBlock: XIVTED_clean_linker_0, # of connection points: 2
#     Edge 10, Type (0, 0), BuildingBlock: XIVTED_clean_linker_0, # of connection points: 2
#     Edge 11, Type (0, 0), BuildingBlock: XIVTED_clean_linker_0, # of connection points: 2
#     Edge 12, Type (0, 0), BuildingBlock: XIVTED_clean_linker_0, # of connection points: 2
#     Edge 13, Type (0, 0), BuildingBlock: XIVTED_clean_linker_0, # of connection points: 2
#     Edge 14, Type (0, 0), BuildingBlock: XIVTED_clean_linker_0, # of connection points: 2
#     Edge 15, Type (0, 0), BuildingBlock: XIVTED_clean_linker_0, # of connection points: 2
#     Edge 16, Type (0, 0), BuildingBlock: XIVTED_clean_linker_0, # of connection points: 2
#     Edge 17, Type (0, 0), BuildingBlock: XIVTED_clean_linker_0, # of connection points: 2
#     Edge 18, Type (0, 0), BuildingBlock: XIVTED_clean_linker_0, # of connection points: 2
#     Edge 19, Type (0, 0), BuildingBlock: XIVTED_clean_linker_0, # of connection points: 2
#     Edge 20, Type (0, 0), BuildingBlock: XIVTED_clean_linker_0, # of connection points: 2
#     Edge 21, Type (0, 0), BuildingBlock: XIVTED_clean_linker_0, # of connection points: 2
#     Edge 22, Type (0, 0), BuildingBlock: XIVTED_clean_linker_0, # of connection points: 2
#     Edge 23, Type (0, 0), BuildingBlock: XIVTED_clean_linker_0, # of connection points: 2
#     Edge 24, Type (0, 0), BuildingBlock: XIVTED_clean_linker_0, # of connection points: 2
#     Edge 25, Type (0, 0), BuildingBlock: XIVTED_clean_linker_0, # of connection points: 2
#     Edge 26, Type (0, 0), BuildingBlock: XIVTED_clean_linker_0, # of connection points: 2
#     Edge 27, Type (0, 0), BuildingBlock: XIVTED_clean_linker_0, # of connection points: 2
# Relax obj value: 0.051
# Max RMSD: 0.118
# Mean RMSD: 0.118
data_MOF--net-zft--node1-BEQFEK_clean_sbu_0--edge1-XIVTED_clean_linker_0
_symmetry_space_group_name_H-M    P1
_symmetry_Int_Tables_number       1
_symmetry_cell_setting            triclinic
loop_
_symmetry_equiv_pos_as_xyz
'x, y, z'
_cell_length_a     28.68229
_cell_length_b     28.678235
_cell_length_c     55.215496
_cell_angle_alpha  90.030749
_cell_angle_beta   89.995586
_cell_angle_gamma 89.957522
loop_
_atom_site_label
_atom_site_type_symbol
_atom_site_fract_x
_atom_site_fract_y
_atom_site_fract_z
_atom_type_partial_charge
Co0 Co 0.04575 0.27246 0.18486 0.0
Co1 Co 0.126 0.333 0.16324 0.0
C2 C 0.03049 0.33366 0.14163 0.0
O3 O 0.01582 0.30369 0.15683 0.0
O4 O 0.07217 0.34878 0.14238 0.0
C5 C 0.95565 0.25173 0.2056 0.0
O6 O 0.94291 0.29251 0.19703 0.0
C7 C 0.1747 0.4175 0.14787 0.0
C8 C 0.24732 0.39252 0.14476 0.0
C9 C 0.21952 0.43169 0.14157 0.0
N10 N 0.17634 0.37232 0.15426 0.0
N11 N 0.21979 0.35757 0.15236 0.0
C12 C 0.1312 0.44621 0.1493 0.0
H13 H 0.10553 0.42958 0.16161 0.0
H14 H 0.1392 0.48189 0.15589 0.0
H15 H 0.1153 0.44863 0.13103 0.0
C16 C 0.07043 0.32632 0.22897 0.0
N17 N 0.07613 0.31572 0.20539 0.0
N18 N 0.11106 0.34021 0.1966 0.0
C19 C 0.12911 0.36674 0.21446 0.0
C20 C 0.10373 0.35898 0.23548 0.0
C21 C 0.0351 0.30404 0.24519 0.0
H22 H 0.03641 0.26562 0.24297 0.0
H23 H -0.0002 0.31611 0.23989 0.0
H24 H 0.04122 0.31292 0.26449 0.0
O25 O 0.09059 0.2251 0.17308 0.0
O26 O 0.14574 0.26824 0.15597 0.0
H27 H 0.19851 0.38137 0.20236 0.0
H28 H 0.18095 0.41451 0.22874 0.0
C29 C 0.16907 0.39971 0.21125 0.0
H30 H 0.15807 0.42881 0.19937 0.0
H31 H 0.23057 0.32359 0.15614 0.0
O32 O -0.00266 0.23785 0.20265 0.0
C33 C 0.1286 0.22866 0.16135 0.0
Co34 Co 0.21307 0.54479 0.43505 0.0
Co35 Co 0.15321 0.62647 0.41363 0.0
C36 C 0.15688 0.53165 0.39021 0.0
O37 O 0.18436 0.51547 0.40625 0.0
O38 O 0.1423 0.57356 0.39112 0.0
C39 C 0.23558 0.45444 0.45544 0.0
O40 O 0.19637 0.44016 0.44565 0.0
C41 C 0.0685 0.67627 0.39741 0.0
C42 C 0.0949 0.74847 0.39492 0.0
C43 C 0.05563 0.72138 0.39103 0.0
N44 N 0.11327 0.67693 0.40475 0.0
N45 N 0.12865 0.72026 0.40335 0.0
C46 C 0.03976 0.63289 0.39532 0.0
H47 H 0.06165 0.60128 0.39681 0.0
H48 H 0.01398 0.63191 0.41027 0.0
H49 H 0.02048 0.63264 0.37789 0.0
C50 C 0.1573 0.56792 0.47871 0.0
N51 N 0.16818 0.57393 0.45518 0.0
N52 N 0.14367 0.60891 0.44643 0.0
C53 C 0.11678 0.62662 0.46423 0.0
C54 C 0.12442 0.60108 0.48521 0.0
C55 C 0.18039 0.53317 0.49498 0.0
H56 H 0.21879 0.53603 0.49315 0.0
H57 H 0.17001 0.49752 0.48938 0.0
H58 H 0.17065 0.53855 0.51423 0.0
O59 O 0.26007 0.59063 0.4242 0.0
O60 O 0.21802 0.64847 0.40887 0.0
H61 H 0.10373 0.69731 0.45385 0.0
H62 H 0.06693 0.67684 0.47829 0.0
C63 C 0.08423 0.66697 0.46108 0.0
H64 H 0.05701 0.65748 0.44774 0.0
H65 H 0.16257 0.73043 0.4077 0.0
O66 O 0.2478 0.49677 0.45315 0.0
C67 C 0.25731 0.63028 0.41395 0.0
Co68 Co 0.94006 0.71794 0.68476 0.0
Co69 Co 0.8605 0.65555 0.66303 0.0
C70 C 0.95538 0.66015 0.64032 0.0
O71 O 0.97039 0.68912 0.65598 0.0
O72 O 0.914 0.6443 0.64126 0.0
C73 C 0.03013 0.7439 0.70419 0.0
O74 O 0.04572 0.70638 0.69318 0.0
C75 C 0.81211 0.56968 0.64736 0.0
C76 C 0.73989 0.59554 0.64358 0.0
C77 C 0.7674 0.55621 0.64057 0.0
N78 N 0.81081 0.61483 0.65404 0.0
N79 N 0.76747 0.62989 0.65188 0.0
C80 C 0.85583 0.5412 0.64618 0.0
H81 H 0.85714 0.52125 0.62895 0.0
H82 H 0.88715 0.5634 0.64788 0.0
H83 H 0.85628 0.516 0.66139 0.0
C84 C 0.91801 0.66173 0.72835 0.0
N85 N 0.91145 0.6728 0.70489 0.0
N86 N 0.8776 0.64699 0.69599 0.0
C87 C 0.86154 0.6186 0.71356 0.0
C88 C 0.88669 0.62691 0.7346 0.0
C89 C 0.95484 0.68297 0.74405 0.0
H90 H 0.98946 0.6768 0.73572 0.0
H91 H 0.95483 0.66802 0.76256 0.0
H92 H 0.94929 0.72121 0.74511 0.0
O93 O 0.89335 0.76394 0.67378 0.0
O94 O 0.83824 0.72 0.65713 0.0
H95 H 0.80816 0.57351 0.72842 0.0
H96 H 0.83246 0.55544 0.69978 0.0
C97 C 0.82125 0.58595 0.71065 0.0
H98 H 0.79251 0.6037 0.70091 0.0
H99 H 0.75689 0.66397 0.65563 0.0
O100 O 0.98703 0.75393 0.70304 0.0
C101 C 0.85476 0.75978 0.66264 0.0
Co102 Co 0.77616 0.44343 0.93406 0.0
Co103 Co 0.84029 0.36207 0.91582 0.0
C104 C 0.83411 0.45333 0.88936 0.0
O105 O 0.80565 0.47052 0.90468 0.0
O106 O 0.84993 0.41208 0.8917 0.0
C107 C 0.75034 0.53477 0.95211 0.0
O108 O 0.79039 0.54886 0.94319 0.0
C109 C 0.92395 0.31461 0.8977 0.0
C110 C 0.9134 0.24255 0.91076 0.0
C111 C 0.94401 0.27076 0.89812 0.0
N112 N 0.88307 0.31261 0.90954 0.0
N113 N 0.87681 0.26934 0.91715 0.0
C114 C 0.94477 0.35836 0.88772 0.0
H115 H 0.93653 0.38824 0.89975 0.0
H116 H 0.98315 0.3551 0.88575 0.0
H117 H 0.92946 0.36528 0.86964 0.0
C118 C 0.83086 0.42798 0.97901 0.0
N119 N 0.82121 0.41887 0.95559 0.0
N120 N 0.84817 0.38467 0.948 0.0
C121 C 0.876 0.37114 0.96638 0.0
C122 C 0.86582 0.398 0.98659 0.0
C123 C 0.80472 0.46233 0.99426 0.0
H124 H 0.7667 0.45773 0.99151 0.0
H125 H 0.81416 0.49816 0.98852 0.0
H126 H 0.81295 0.45823 0.01377 0.0
O127 O 0.73156 0.39411 0.92437 0.0
O128 O 0.77684 0.33684 0.91085 0.0
H129 H 0.89461 0.29926 0.96344 0.0
H130 H 0.93564 0.33367 0.98059 0.0
C131 C 0.91214 0.33362 0.96463 0.0
H132 H 0.93332 0.33876 0.94806 0.0
H133 H 0.8478 0.25828 0.92702 0.0
O134 O 0.73878 0.49218 0.95017 0.0
C135 C 0.73664 0.3537 0.91519 0.0
Co136 Co 0.54441 0.21225 0.55895 0.0
Co137 Co 0.62958 0.15408 0.57768 0.0
C138 C 0.53697 0.15391 0.60336 0.0
O139 O 0.51833 0.18085 0.58778 0.0
O140 O 0.57947 0.14142 0.60159 0.0
C141 C 0.45209 0.23428 0.54053 0.0
O142 O 0.43906 0.19382 0.54938 0.0
C143 C 0.68138 0.0731 0.59579 0.0
C144 C 0.75305 0.0881 0.58334 0.0
C145 C 0.72629 0.0556 0.59555 0.0
N146 N 0.68135 0.11436 0.58428 0.0
N147 N 0.72439 0.12332 0.57706 0.0
C148 C 0.6386 0.04936 0.60512 0.0
H149 H 0.60859 0.05666 0.59302 0.0
H150 H 0.64392 0.01111 0.60652 0.0
H151 H 0.63046 0.06318 0.62339 0.0
C152 C 0.56332 0.15738 0.51446 0.0
N153 N 0.57223 0.16877 0.53768 0.0
N154 N 0.60801 0.14422 0.54547 0.0
C155 C 0.62291 0.11629 0.5274 0.0
C156 C 0.59516 0.12382 0.50721 0.0
C157 C 0.52672 0.18011 0.49917 0.0
H158 H 0.52868 0.21851 0.50132 0.0
H159 H 0.49185 0.1685 0.5054 0.0
H160 H 0.53082 0.17109 0.47975 0.0
O161 O 0.59031 0.25964 0.56926 0.0
O162 O 0.65126 0.21906 0.5822 0.0
H163 H 0.69548 0.10119 0.53111 0.0
H164 H 0.66378 0.05837 0.51371 0.0
C165 C 0.66205 0.08202 0.52959 0.0
H166 H 0.65729 0.06076 0.54615 0.0
H167 H 0.73402 0.15314 0.56744 0.0
O168 O 0.49428 0.24712 0.54258 0.0
C169 C 0.63122 0.25789 0.57813 0.0
Co170 Co 0.2736 0.05138 0.80902 0.0
Co171 Co 0.34154 0.12779 0.82922 0.0
C172 C 0.33352 0.03521 0.85309 0.0
O173 O 0.30248 0.02211 0.83803 0.0
O174 O 0.35248 0.07524 0.8516 0.0
C175 C 0.24789 0.96124 0.79036 0.0
O176 O 0.28809 0.94767 0.79934 0.0
C177 C 0.42451 0.17575 0.84834 0.0
C178 C 0.41403 0.24737 0.83459 0.0
C179 C 0.44431 0.21968 0.84774 0.0
N180 N 0.38412 0.17717 0.83601 0.0
N181 N 0.37783 0.22023 0.82808 0.0
C182 C 0.44476 0.13259 0.85929 0.0
H183 H 0.44022 0.10278 0.84669 0.0
H184 H 0.48231 0.13709 0.86354 0.0
H185 H 0.4257 0.12459 0.87627 0.0
C186 C 0.3295 0.06778 0.76461 0.0
N187 N 0.3193 0.07626 0.78802 0.0
N188 N 0.34854 0.10757 0.79658 0.0
C189 C 0.37906 0.1191 0.77902 0.0
C190 C 0.36785 0.09442 0.7582 0.0
C191 C 0.304 0.03354 0.74904 0.0
H192 H 0.3118 -0.00225 0.75546 0.0
H193 H 0.31448 0.03621 0.72976 0.0
H194 H 0.26589 0.03935 0.75068 0.0
O195 O 0.23022 0.10067 0.81948 0.0
O196 O 0.27813 0.15303 0.83557 0.0
H197 H 0.4016 0.18927 0.78419 0.0
H198 H 0.44067 0.15522 0.76594 0.0
C199 C 0.41726 0.15422 0.78189 0.0
H200 H 0.43797 0.14601 0.7983 0.0
H201 H 0.34916 0.23087 0.81783 0.0
O202 O 0.23578 0.00371 0.7923 0.0
C203 C 0.23719 0.13905 0.83043 0.0
Co204 Co 0.44213 0.77476 0.05833 0.0
Co205 Co 0.35853 0.8338 0.07865 0.0
C206 C 0.45294 0.83363 0.1025 0.0
O207 O 0.46978 0.80615 0.08663 0.0
O208 O 0.41061 0.84717 0.10159 0.0
C209 C 0.53307 0.7534 0.03807 0.0
O210 O 0.5461 0.79416 0.04656 0.0
C211 C 0.30553 0.91341 0.09818 0.0
C212 C 0.23464 0.89898 0.08441 0.0
C213 C 0.26052 0.93077 0.09761 0.0
N214 N 0.30642 0.87296 0.08587 0.0
N215 N 0.26379 0.86431 0.07792 0.0
C216 C 0.34762 0.93648 0.10873 0.0
H217 H 0.37787 0.93187 0.09644 0.0
H218 H 0.34149 0.97422 0.11187 0.0
H219 H 0.35592 0.91966 0.12629 0.0
C220 C 0.41916 0.82804 0.01395 0.0
N221 N 0.41234 0.81763 0.03748 0.0
N222 N 0.37773 0.84302 0.04597 0.0
C223 C 0.36177 0.8708 0.02808 0.0
C224 C 0.38732 0.86201 0.00724 0.0
C225 C 0.45367 0.80392 -0.00207 0.0
H226 H 0.45204 0.76575 0.00099 0.0
H227 H 0.48928 0.81603 0.0026 0.0
H228 H 0.44697 0.81123 0.97851 0.0
O229 O 0.39784 0.72774 0.07015 0.0
O230 O 0.33746 0.76844 0.08379 0.0
H231 H 0.28987 0.8887 0.0319 0.0
H232 H 0.32372 0.93162 0.0158 0.0
C233 C 0.32413 0.90651 0.03108 0.0
H234 H 0.32948 0.92601 0.04817 0.0
H235 H 0.25485 0.83518 0.06757 0.0
O236 O 0.49128 0.73992 0.04106 0.0
C237 C 0.35763 0.72961 0.07981 0.0
Co238 Co 0.71221 0.94168 0.30806 0.0
Co239 Co 0.65219 0.85983 0.32886 0.0
C240 C 0.65467 0.954 0.35265 0.0
O241 O 0.6829 0.9699 0.3369 0.0
O242 O 0.63968 0.91222 0.35161 0.0
C243 C 0.73599 0.03288 0.28911 0.0
O244 O 0.69745 0.04755 0.29947 0.0
C245 C 0.56912 0.8101 0.34592 0.0
C246 C 0.59183 0.73656 0.3433 0.0
C247 C 0.55482 0.7646 0.35022 0.0
N248 N 0.61252 0.80883 0.33677 0.0
N249 N 0.6258 0.76481 0.33512 0.0
C250 C 0.54469 0.85437 0.35266 0.0
H251 H 0.55654 0.86507 0.37095 0.0
H252 H 0.55397 0.88242 0.33969 0.0
H253 H 0.50639 0.8502 0.35327 0.0
C254 C 0.65514 0.92163 0.26456 0.0
N255 N 0.66728 0.91364 0.28775 0.0
N256 N 0.64247 0.87871 0.29626 0.0
C257 C 0.61392 0.86311 0.27864 0.0
C258 C 0.62095 0.88992 0.25804 0.0
C259 C 0.67759 0.95742 0.24868 0.0
H260 H 0.71605 0.95418 0.24989 0.0
H261 H 0.66774 0.99269 0.25517 0.0
H262 H 0.66674 0.95358 0.22949 0.0
O263 O 0.75909 0.89561 0.31859 0.0
O264 O 0.71708 0.83774 0.33378 0.0
H265 H 0.59851 0.792 0.28704 0.0
H266 H 0.55956 0.81759 0.26493 0.0
C267 C 0.5797 0.82421 0.28173 0.0
H268 H 0.55503 0.83322 0.29646 0.0
H269 H 0.6584 0.75411 0.3288 0.0
O270 O 0.74717 0.9901 0.29051 0.0
C271 C 0.75638 0.85589 0.32873 0.0
H272 H 0.17937 0.3539 0.26511 0.0
H273 H 0.08699 0.5461 0.35723 0.0
H274 H 0.04203 0.41381 0.25969 0.0
H275 H 0.19861 0.45092 0.37496 0.0
H276 H 0.07166 0.50111 0.32044 0.0
H277 H 0.18964 0.39263 0.30442 0.0
C278 C 0.15146 0.37528 0.27231 0.0
C279 C 0.11 0.38117 0.25932 0.0
C280 C 0.09921 0.48987 0.33251 0.0
C281 C 0.12127 0.42543 0.30392 0.0
C282 C 0.10805 0.51556 0.35349 0.0
C283 C 0.14428 0.50237 0.36915 0.0
C284 C 0.12727 0.45118 0.32696 0.0
C285 C 0.17031 0.46236 0.36343 0.0
C286 C 0.15715 0.39712 0.29471 0.0
C287 C 0.07454 0.40873 0.2693 0.0
N288 N 0.16163 0.43848 0.34265 0.0
N289 N 0.08111 0.43026 0.29096 0.0
H290 H 0.94413 0.58645 0.60944 0.0
H291 H 0.12954 0.67845 0.51369 0.0
H292 H 0.03398 0.70406 0.62366 0.0
H293 H 0.0722 0.53976 0.51113 0.0
H294 H 0.09256 0.6903 0.55333 0.0
H295 H 0.98881 0.56974 0.57281 0.0
C296 C 0.9735 0.60856 0.60497 0.0
C297 C 0.98519 0.64689 0.61958 0.0
C298 C 0.08828 0.65717 0.54418 0.0
C299 C 0.0361 0.62824 0.57748 0.0
C300 C 0.10909 0.65058 0.52159 0.0
C301 C 0.10337 0.60828 0.50928 0.0
C302 C 0.06119 0.62132 0.5543 0.0
C303 C 0.07712 0.57291 0.52017 0.0
C304 C -0.00096 0.59893 0.58406 0.0
C305 C 0.02376 0.67415 0.61294 0.0
N306 N 0.05659 0.58034 0.54202 0.0
N307 N 0.04752 0.66463 0.5922 0.0
H308 H 0.8787 0.42214 0.84871 0.0
H309 H 0.86857 0.66602 0.77868 0.0
H310 H 0.81775 0.54607 0.87997 0.0
H311 H 0.89329 0.53408 0.7436 0.0
H312 H 0.85915 0.62515 0.81749 0.0
H313 H 0.89451 0.46544 0.81168 0.0
C314 C 0.86907 0.45861 0.84792 0.0
C315 C 0.84678 0.48044 0.86752 0.0
C316 C 0.86673 0.60517 0.80131 0.0
C317 C 0.86451 0.5302 0.82495 0.0
C318 C 0.87224 0.62844 0.77928 0.0
C319 C 0.88172 0.60316 0.75813 0.0
C320 C 0.87116 0.5564 0.8021 0.0
C321 C 0.88584 0.55461 0.75961 0.0
C322 C 0.87784 0.48324 0.82667 0.0
C323 C 0.8348 0.52775 0.86528 0.0
N324 N 0.88064 0.53276 0.78125 0.0
N325 N 0.84377 0.55107 0.84434 0.0
H326 H 0.9122 0.463 0.01337 0.0
H327 H 0.94953 0.29267 0.12636 0.0
H328 H 0.86292 0.32119 0.01524 0.0
H329 H 0.04189 0.40768 0.1108 0.0
H330 H 0.90453 0.31189 0.0901 0.0
H331 H 0.94781 0.45169 0.0535 0.0
C332 C 0.90867 0.42967 0.0224 0.0
C333 C 0.88514 0.39279 0.01116 0.0
C334 C 0.93444 0.3331 0.09478 0.0
C335 C 0.92487 0.37977 0.05674 0.0
C336 C 0.96001 0.32235 0.11552 0.0
C337 C -0.00016 0.34833 0.12149 0.0
C338 C 0.94843 0.37043 0.08006 0.0
C339 C 0.01172 0.38642 0.10674 0.0
C340 C 0.92896 0.42319 0.04516 0.0
C341 C 0.88124 0.35023 0.02339 0.0
N342 N 0.98619 0.39626 0.08664 0.0
N343 N 0.90092 0.34483 0.04558 0.0
H344 H 0.53097 0.07257 0.48244 0.0
H345 H 0.69581 0.03517 0.36737 0.0
H346 H 0.67059 0.12704 0.47759 0.0
H347 H 0.58391 0.94071 0.3854 0.0
H348 H 0.67826 0.08024 0.40379 0.0
H349 H 0.5417 0.03437 0.44292 0.0
C350 C 0.5637 0.07664 0.47289 0.0
C351 C 0.60013 0.1025 0.48309 0.0
C352 C 0.65743 0.04977 0.39967 0.0
C353 C 0.61249 0.05974 0.43822 0.0
C354 C 0.66723 0.02412 0.37884 0.0
C355 C 0.64155 0.98378 0.37343 0.0
C356 C 0.62132 0.03535 0.41508 0.0
C357 C 0.60491 0.97124 0.38899 0.0
C358 C 0.56987 0.05485 0.45049 0.0
C359 C 0.64193 0.10698 0.47023 0.0
N360 N 0.59591 -0.00309 0.40915 0.0
N361 N 0.64701 0.08581 0.44839 0.0
H362 H 0.45753 0.07148 0.74777 0.0
H363 H 0.44369 0.16723 0.61197 0.0
H364 H 0.33109 0.12293 0.71525 0.0
H365 H 0.56761 0.10687 0.64347 0.0
H366 H 0.40061 0.14747 0.64871 0.0
H367 H 0.49753 0.08042 0.70884 0.0
C368 C 0.43828 0.08442 0.73228 0.0
C369 C 0.39127 0.09673 0.73451 0.0
C370 C 0.43715 0.13821 0.64749 0.0
C371 C 0.43637 0.10724 0.6901 0.0
C372 C 0.4618 0.14952 0.62651 0.0
C373 C 0.50946 0.13889 0.62464 0.0
C374 C 0.46035 0.11637 0.66681 0.0
C375 C 0.53096 0.11571 0.64405 0.0
C376 C 0.46095 0.08947 0.7101 0.0
C377 C 0.36747 0.11308 0.71407 0.0
N378 N 0.50634 0.10555 0.66437 0.0
N379 N 0.39038 0.1182 0.6927 0.0
H380 H 0.30807 0.8647 0.98029 0.0
H381 H 0.41064 0.03941 0.88222 0.0
H382 H 0.45214 0.9071 0.97984 0.0
H383 H 0.28366 0.96162 0.87102 0.0
H384 H 0.42595 0.99339 0.91859 0.0
H385 H 0.29717 0.90255 0.94089 0.0
C386 C 0.33737 0.88198 0.97177 0.0
C387 C 0.38095 0.88316 0.98315 0.0
C388 C 0.39496 0.98614 0.90805 0.0
C389 C 0.36895 0.92645 0.93838 0.0
C390 C 0.3861 0.01251 0.88734 0.0
C391 C 0.34559 0.00465 0.87369 0.0
C392 C 0.36275 0.95211 0.91535 0.0
C393 C 0.31529 0.96892 0.88102 0.0
C394 C 0.33127 0.9033 0.9493 0.0
C395 C 0.41803 0.90554 0.97147 0.0
N396 N 0.32421 0.94433 0.90152 0.0
N397 N 0.41112 0.92674 0.94976 0.0
H398 H 0.56752 0.95361 0.23427 0.0
H399 H 0.53455 0.79342 0.11717 0.0
H400 H 0.62397 0.81489 0.22807 0.0
H401 H 0.43783 0.90312 0.13589 0.0
H402 H 0.57818 0.80975 0.15416 0.0
H403 H 0.52923 0.9437 0.19472 0.0
C404 C 0.57183 0.92118 0.22445 0.0
C405 C 0.59839 0.88481 0.23425 0.0
C406 C 0.54752 0.83038 0.15008 0.0
C407 C 0.55569 0.87346 0.1893 0.0
C408 C 0.52271 0.82131 0.1289 0.0
C409 C 0.48213 0.84668 0.12352 0.0
C410 C 0.53203 0.86543 0.16588 0.0
C411 C 0.46855 0.88237 0.13945 0.0
C412 C 0.55005 0.9155 0.20203 0.0
C413 C 0.60333 0.84347 0.22103 0.0
N414 N 0.49343 0.89067 0.15997 0.0
N415 N 0.58222 0.8389 0.19915 0.0
H416 H 0.26234 0.95879 0.14471 0.0
H417 H 0.17968 0.21744 0.12011 0.0
H418 H 0.22009 0.00249 0.07335 0.0
H419 H 0.13025 0.1429 0.18293 0.0
H420 H 0.21386 0.14472 0.1047 0.0
H421 H 0.23213 0.03272 0.16124 0.0
C422 C 0.24689 0.98417 0.13259 0.0
C423 C 0.24337 0.97497 0.10774 0.0
C424 C 0.19573 0.14456 0.12191 0.0
C425 C 0.21013 0.05902 0.12622 0.0
C426 C 0.17653 0.18589 0.13077 0.0
C427 C 0.15202 0.18596 0.15275 0.0
C428 C 0.19145 0.10347 0.13548 0.0
C429 C 0.14864 0.14413 0.16581 0.0
C430 C 0.22966 0.02599 0.14197 0.0
C431 C 0.22308 0.00853 0.09264 0.0
N432 N 0.16847 0.10448 0.15705 0.0
N433 N 0.20756 0.04946 0.10209 0.0
H434 H 0.5455 0.70084 0.38615 0.0
H435 H 0.2664 0.70922 0.38627 0.0
H436 H 0.46505 0.78807 0.33823 0.0
H437 H 0.34727 0.60608 0.42484 0.0
H438 H 0.33881 0.7447 0.37199 0.0
H439 H 0.47303 0.67087 0.40357 0.0
C440 C 0.51248 0.71399 0.37949 0.0
C441 C 0.51111 0.74785 0.36124 0.0
C442 C 0.34065 0.71441 0.38365 0.0
C443 C 0.42818 0.71361 0.38084 0.0
C444 C 0.29933 0.69421 0.3919 0.0
C445 C 0.3007 0.65437 0.40666 0.0
C446 C 0.38366 0.69479 0.3903 0.0
C447 C 0.34445 0.63655 0.41336 0.0
C448 C 0.47118 0.69695 0.38942 0.0
C449 C 0.46757 0.76339 0.35299 0.0
N450 N 0.38413 0.6568 0.40508 0.0
N451 N 0.42776 0.74616 0.36287 0.0
H452 H 0.76956 0.98519 0.57151 0.0
H453 H 0.85081 0.84445 0.68518 0.0
H454 H 0.72021 0.02572 0.64218 0.0
H455 H 0.80489 0.77156 0.62111 0.0
H456 H 0.81572 0.91639 0.66927 0.0
H457 H 0.79666 0.91073 0.58862 0.0
C458 C 0.76463 0.97827 0.59062 0.0
C459 C 0.74271 0.01108 0.60555 0.0
C460 C 0.81308 0.88445 0.65888 0.0
C461 C 0.77406 0.92735 0.62513 0.0
C462 C 0.83308 0.8436 0.66786 0.0
C463 C 0.83054 0.80219 0.65442 0.0
C464 C 0.79186 0.88398 0.636 0.0
C465 C 0.80724 0.80278 0.63208 0.0
C466 C 0.77973 0.93595 0.60029 0.0
C467 C 0.73686 0.00089 0.63018 0.0
N468 N 0.78941 0.84332 0.62334 0.0
N469 N 0.75302 0.95998 0.63935 0.0
H470 H 0.52035 0.25122 0.82365 0.0
H471 H 0.64998 0.35493 0.93579 0.0
H472 H 0.46863 0.22222 0.89534 0.0
H473 H 0.72829 0.29416 0.87697 0.0
H474 H 0.57929 0.31687 0.92029 0.0
H475 H 0.59409 0.27838 0.84146 0.0
C476 C 0.52477 0.25058 0.84314 0.0
C477 C 0.48893 0.23459 0.85817 0.0
C478 C 0.61214 0.31156 0.91101 0.0
C479 C 0.57189 0.26617 0.8785 0.0
C480 C 0.6523 0.33328 0.91975 0.0
C481 C 0.69488 0.32757 0.90761 0.0
C482 C 0.6145 0.2853 0.88961 0.0
C483 C 0.69614 0.29918 0.88692 0.0
C484 C 0.56666 0.26575 0.85323 0.0
C485 C 0.49586 0.23427 0.88329 0.0
N486 N 0.6563 0.2797 0.87829 0.0
N487 N 0.53646 0.25052 0.89277 0.0
H488 H 0.60402 0.34698 0.56753 0.0
H489 H 0.79585 0.46657 0.65179 0.0
H490 H 0.71164 0.26928 0.60448 0.0
H491 H 0.69994 0.54349 0.60673 0.0
H492 H 0.76657 0.39402 0.63449 0.0
H493 H 0.63964 0.41928 0.58142 0.0
C494 C 0.63531 0.34508 0.57847 0.0
C495 C 0.65469 0.30191 0.58495 0.0
C496 C 0.75231 0.42681 0.6282 0.0
C497 C 0.69558 0.38481 0.6011 0.0
C498 C 0.76942 0.46841 0.6379 0.0
C499 C 0.75111 0.51138 0.63031 0.0
C500 C 0.71623 0.42818 0.61101 0.0
C501 C 0.71517 0.51118 0.61307 0.0
C502 C 0.65567 0.38646 0.5864 0.0
C503 C 0.69544 0.30174 0.59906 0.0
N504 N 0.69892 0.47029 0.60403 0.0
N505 N 0.71435 0.34257 0.60682 0.0
H506 H 0.23012 0.19044 0.87181 0.0
H507 H 0.97146 0.27902 0.85117 0.0
H508 H 0.15196 0.14755 0.80886 0.0
H509 H 0.01714 0.22955 0.92094 0.0
H510 H 0.04539 0.25173 0.83342 0.0
H511 H 0.15934 0.227 0.88818 0.0
C512 C 0.19829 0.18949 0.86126 0.0
C513 C 0.19662 0.16587 0.83903 0.0
C514 C 0.03917 0.24723 0.85263 0.0
C515 C 0.11642 0.20785 0.85742 0.0
C516 C -0.00265 0.26279 0.86271 0.0
C517 C 0.98864 0.25624 0.88744 0.0
C518 C 0.07267 0.22626 0.86758 0.0
C519 C 0.02281 0.23488 0.90176 0.0
C520 C 0.15805 0.20999 0.87067 0.0
C521 C 0.15447 0.16522 0.82615 0.0
N522 N 0.06368 0.2209 0.89164 0.0
N523 N 0.11592 0.18611 0.8355 0.0
H524 H 0.39993 0.64576 0.08705 0.0
H525 H 0.17205 0.50169 0.11677 0.0
H526 H 0.26564 0.71352 0.09128 0.0
H527 H 0.30754 0.46565 0.1454 0.0
H528 H 0.20399 0.57536 0.10229 0.0
H529 H 0.36483 0.57427 0.10235 0.0
C530 C 0.36294 0.64554 0.09102 0.0
C531 C 0.33565 0.68573 0.08791 0.0
C532 C 0.22641 0.55142 0.11202 0.0
C533 C 0.29535 0.60381 0.10541 0.0
C534 C 0.20808 0.50946 0.12064 0.0
C535 C 0.23674 0.47762 0.13303 0.0
C536 C 0.27393 0.56098 0.11521 0.0
C537 C 0.28398 0.48905 0.13608 0.0
C538 C 0.34305 0.60478 0.09992 0.0
C539 C 0.28794 0.68335 0.09351 0.0
N540 N 0.30112 0.5296 0.12713 0.0
N541 N 0.26915 0.6429 0.10191 0.0
H542 H 0.76596 0.77594 0.35568 0.0
H543 H 0.04479 0.7892 0.35722 0.0
H544 H 0.84612 0.88099 0.31822 0.0
H545 H 0.96549 0.69393 0.40144 0.0
H546 H 0.97215 0.8191 0.34026 0.0
H547 H 0.83868 0.74041 0.36968 0.0
C548 C 0.79879 0.79136 0.35024 0.0
C549 C 0.79987 0.83173 0.33587 0.0
C550 C 0.97062 0.79134 0.35352 0.0
C551 C 0.88315 0.7913 0.3519 0.0
C552 C 0.01209 0.77432 0.36325 0.0
C553 C 0.01135 0.73835 0.38044 0.0
C554 C 0.9279 0.77253 0.36116 0.0
C555 C 0.96797 0.72049 0.38765 0.0
C556 C 0.84029 0.77112 0.35831 0.0
C557 C 0.84349 0.85009 0.32939 0.0
N558 N 0.92795 0.73781 0.37799 0.0
N559 N 0.88331 0.82984 0.33751 0.0
H560 H 0.82029 0.0137 0.26865 0.0
H561 H 0.865 0.27113 0.21844 0.0
H562 H 0.72284 0.1264 0.28024 0.0
H563 H 0.9696 0.16289 0.22151 0.0
H564 H 0.80996 0.2185 0.23865 0.0
H565 H 0.87267 0.0676 0.24842 0.0
C566 C 0.80981 0.04984 0.26691 0.0
C567 C 0.76712 0.06558 0.27625 0.0
C568 C 0.84502 0.20646 0.23491 0.0
C569 C 0.82727 0.12775 0.25301 0.0
C570 C 0.87641 0.2364 0.22337 0.0
C571 C 0.92194 0.22136 0.21824 0.0
C572 C 0.85929 0.16116 0.24115 0.0
C573 C 0.93489 0.17605 0.22508 0.0
C574 C 0.83988 0.08069 0.25539 0.0
C575 C 0.75549 0.11283 0.27338 0.0
N576 N 0.9037 0.1476 0.23608 0.0
N577 N 0.78545 0.14234 0.26197 0.0
H578 H 0.36063 0.21649 0.52858 0.0
H579 H 0.32034 0.47286 0.47557 0.0
H580 H 0.46685 0.32285 0.5245 0.0
H581 H 0.22042 0.36183 0.46584 0.0
H582 H 0.37159 0.41895 0.49663 0.0
H583 H 0.30611 0.2697 0.5083 0.0
C584 C 0.37248 0.25095 0.52345 0.0
C585 C 0.41837 0.26524 0.52825 0.0
C586 C 0.33849 0.40624 0.4899 0.0
C587 C 0.35634 0.32608 0.50524 0.0
C588 C 0.30908 0.43709 0.47789 0.0
C589 C 0.26605 0.42181 0.4688 0.0
C590 C 0.32488 0.35962 0.49301 0.0
C591 C 0.25338 0.37504 0.47247 0.0
C592 C 0.34139 0.28122 0.51186 0.0
C593 C 0.43187 0.31023 0.52117 0.0
N594 N 0.28272 0.34551 0.48431 0.0
N595 N 0.40101 0.33899 0.5101 0.0
H596 H 0.00983 0.82749 0.72535 0.0
H597 H 0.26605 0.87033 0.77782 0.0
H598 H 0.12332 0.73103 0.71367 0.0
H599 H 0.15899 0.97607 0.77452 0.0
H600 H 0.21332 0.81602 0.75722 0.0
H601 H 0.06301 0.87939 0.74663 0.0
C602 C 0.04596 0.81713 0.7273 0.0
C603 C 0.06218 0.77487 0.71762 0.0
C604 C 0.2015 0.85115 0.76101 0.0
C605 C 0.12339 0.83435 0.74206 0.0
C606 C 0.2315 0.88212 0.7728 0.0
C607 C 0.2169 0.92781 0.7779 0.0
C608 C 0.15652 0.86593 0.75449 0.0
C609 C 0.1718 0.94123 0.77093 0.0
C610 C 0.07636 0.8469 0.73942 0.0
C611 C 0.10938 0.76335 0.72077 0.0
N612 N 0.14322 0.91041 0.75967 0.0
N613 N 0.13839 0.79295 0.73275 0.0
H614 H 0.66339 0.51712 0.96978 0.0
H615 H 0.62409 0.77166 0.02551 0.0
H616 H 0.76534 0.62711 0.96316 0.0
H617 H 0.51767 0.66556 0.02099 0.0
H618 H 0.67805 0.71924 0.00432 0.0
H619 H 0.61135 0.57094 0.99044 0.0
C620 C 0.67489 0.55266 0.97267 0.0
C621 C 0.71882 0.56763 0.96467 0.0
C622 C 0.64284 0.70759 0.00796 0.0
C623 C 0.65913 0.6297 0.98845 0.0
C624 C 0.61206 0.73743 0.02007 0.0
C625 C 0.56632 0.72295 0.02508 0.0
C626 C 0.62774 0.66297 0.00097 0.0
C627 C 0.55258 0.67827 0.01756 0.0
C628 C 0.64504 0.58347 0.98446 0.0
C629 C 0.73172 0.61414 0.96897 0.0
N630 N 0.58316 0.64993 0.00598 0.0
N631 N 0.702 0.64358 0.98063 0.0
loop_
_geom_bond_atom_site_label_1
_geom_bond_atom_site_label_2
_geom_bond_distance
_geom_bond_site_symmetry_2
_ccdc_geom_bond_type
Co0 O3 1.970 . S
Co0 N17 1.989 . S
Co0 O25 1.967 . S
Co0 O32 1.920 . S
Co1 O4 1.966 . S
Co1 N10 2.022 . S
Co1 N18 1.993 . S
Co1 O26 1.941 . S
C2 O3 1.258 . S
C2 O4 1.263 . S
O3 Co0 1.970 . S
O3 C2 1.258 . S
O4 Co1 1.966 . S
O4 C2 1.263 . S
C5 O6 1.235 . S
C5 O32 1.289 1_655 S
O6 C5 1.235 . S
C7 C9 1.400 . S
C7 N10 1.351 . S
C7 C12 1.501 . S
C8 C9 1.387 . S
C8 N11 1.341 . S
C9 C7 1.400 . S
C9 C8 1.387 . S
N10 Co1 2.022 . S
N10 C7 1.351 . S
N10 N11 1.365 . S
N11 C8 1.341 . S
N11 N10 1.365 . S
N11 H31 0.862 . S
C12 C7 1.501 . S
C12 H13 0.961 . S
C12 H14 0.961 . S
C12 H15 0.960 . S
H13 C12 0.961 . S
H14 C12 0.961 . S
H15 C12 0.960 . S
C16 N17 1.342 . S
C16 C20 1.401 . S
C16 C21 1.499 . S
N17 Co0 1.989 . S
N17 C16 1.342 . S
N17 N18 1.388 . S
N18 Co1 1.993 . S
N18 N17 1.388 . S
N18 C19 1.346 . S
C19 N18 1.346 . S
C19 C20 1.396 . S
C19 C29 1.510 . S
C20 C16 1.401 . S
C20 C19 1.396 . S
C21 C16 1.499 . S
C21 H22 0.959 . S
C21 H23 0.960 . S
C21 H24 0.961 . S
H22 C21 0.959 . S
H23 C21 0.960 . S
H24 C21 0.961 . S
O25 Co0 1.967 . S
O25 C33 1.258 . S
O26 Co1 1.941 . S
O26 C33 1.266 . S
H27 C29 0.959 . S
H28 C29 0.961 . S
C29 C19 1.510 . S
C29 H27 0.959 . S
C29 H28 0.961 . S
C29 H30 0.960 . S
H30 C29 0.960 . S
H31 N11 0.862 . S
O32 Co0 1.920 . S
O32 C5 1.289 1_455 S
C33 O25 1.258 . S
C33 O26 1.266 . S
Co34 O37 1.970 . S
Co34 N51 1.989 . S
Co34 O59 1.967 . S
Co34 O66 1.920 . S
Co35 O38 1.966 . S
Co35 N44 2.022 . S
Co35 N52 1.993 . S
Co35 O60 1.941 . S
C36 O37 1.258 . S
C36 O38 1.263 . S
O37 Co34 1.970 . S
O37 C36 1.258 . S
O38 Co35 1.966 . S
O38 C36 1.263 . S
C39 O40 1.235 . S
C39 O66 1.289 . S
O40 C39 1.235 . S
C41 C43 1.400 . S
C41 N44 1.351 . S
C41 C46 1.501 . S
C42 C43 1.387 . S
C42 N45 1.341 . S
C43 C41 1.400 . S
C43 C42 1.387 . S
N44 Co35 2.022 . S
N44 C41 1.351 . S
N44 N45 1.365 . S
N45 C42 1.341 . S
N45 N44 1.365 . S
N45 H65 0.862 . S
C46 C41 1.501 . S
C46 H47 0.961 . S
C46 H48 0.961 . S
C46 H49 0.960 . S
H47 C46 0.961 . S
H48 C46 0.961 . S
H49 C46 0.960 . S
C50 N51 1.342 . S
C50 C54 1.401 . S
C50 C55 1.499 . S
N51 Co34 1.989 . S
N51 C50 1.342 . S
N51 N52 1.388 . S
N52 Co35 1.993 . S
N52 N51 1.388 . S
N52 C53 1.346 . S
C53 N52 1.346 . S
C53 C54 1.396 . S
C53 C63 1.510 . S
C54 C50 1.401 . S
C54 C53 1.396 . S
C55 C50 1.499 . S
C55 H56 0.959 . S
C55 H57 0.960 . S
C55 H58 0.961 . S
H56 C55 0.959 . S
H57 C55 0.960 . S
H58 C55 0.961 . S
O59 Co34 1.967 . S
O59 C67 1.258 . S
O60 Co35 1.941 . S
O60 C67 1.266 . S
H61 C63 0.959 . S
H62 C63 0.961 . S
C63 C53 1.510 . S
C63 H61 0.959 . S
C63 H62 0.961 . S
C63 H64 0.960 . S
H64 C63 0.960 . S
H65 N45 0.862 . S
O66 Co34 1.920 . S
O66 C39 1.289 . S
C67 O59 1.258 . S
C67 O60 1.266 . S
Co68 O71 1.970 . S
Co68 N85 1.989 . S
Co68 O93 1.967 . S
Co68 O100 1.920 . S
Co69 O72 1.966 . S
Co69 N78 2.022 . S
Co69 N86 1.993 . S
Co69 O94 1.941 . S
C70 O71 1.258 . S
C70 O72 1.263 . S
O71 Co68 1.970 . S
O71 C70 1.258 . S
O72 Co69 1.966 . S
O72 C70 1.263 . S
C73 O74 1.235 . S
C73 O100 1.289 1_455 S
O74 C73 1.235 . S
C75 C77 1.400 . S
C75 N78 1.351 . S
C75 C80 1.501 . S
C76 C77 1.387 . S
C76 N79 1.341 . S
C77 C75 1.400 . S
C77 C76 1.387 . S
N78 Co69 2.022 . S
N78 C75 1.351 . S
N78 N79 1.365 . S
N79 C76 1.341 . S
N79 N78 1.365 . S
N79 H99 0.862 . S
C80 C75 1.501 . S
C80 H81 0.961 . S
C80 H82 0.961 . S
C80 H83 0.960 . S
H81 C80 0.961 . S
H82 C80 0.961 . S
H83 C80 0.960 . S
C84 N85 1.342 . S
C84 C88 1.401 . S
C84 C89 1.499 . S
N85 Co68 1.989 . S
N85 C84 1.342 . S
N85 N86 1.388 . S
N86 Co69 1.993 . S
N86 N85 1.388 . S
N86 C87 1.346 . S
C87 N86 1.346 . S
C87 C88 1.396 . S
C87 C97 1.510 . S
C88 C84 1.401 . S
C88 C87 1.396 . S
C89 C84 1.499 . S
C89 H90 0.959 . S
C89 H91 0.960 . S
C89 H92 0.961 . S
H90 C89 0.959 . S
H91 C89 0.960 . S
H92 C89 0.961 . S
O93 Co68 1.967 . S
O93 C101 1.258 . S
O94 Co69 1.941 . S
O94 C101 1.266 . S
H95 C97 0.959 . S
H96 C97 0.961 . S
C97 C87 1.510 . S
C97 H95 0.959 . S
C97 H96 0.961 . S
C97 H98 0.960 . S
H98 C97 0.960 . S
H99 N79 0.862 . S
O100 Co68 1.920 . S
O100 C73 1.289 1_655 S
C101 O93 1.258 . S
C101 O94 1.266 . S
Co102 O105 1.970 . S
Co102 N119 1.989 . S
Co102 O127 1.967 . S
Co102 O134 1.920 . S
Co103 O106 1.966 . S
Co103 N112 2.022 . S
Co103 N120 1.993 . S
Co103 O128 1.941 . S
C104 O105 1.258 . S
C104 O106 1.263 . S
O105 Co102 1.970 . S
O105 C104 1.258 . S
O106 Co103 1.966 . S
O106 C104 1.263 . S
C107 O108 1.235 . S
C107 O134 1.289 . S
O108 C107 1.235 . S
C109 C111 1.400 . S
C109 N112 1.351 . S
C109 C114 1.501 . S
C110 C111 1.387 . S
C110 N113 1.341 . S
C111 C109 1.400 . S
C111 C110 1.387 . S
N112 Co103 2.022 . S
N112 C109 1.351 . S
N112 N113 1.365 . S
N113 C110 1.341 . S
N113 N112 1.365 . S
N113 H133 0.862 . S
C114 C109 1.501 . S
C114 H115 0.961 . S
C114 H116 0.961 . S
C114 H117 0.960 . S
H115 C114 0.961 . S
H116 C114 0.961 . S
H117 C114 0.960 . S
C118 N119 1.342 . S
C118 C122 1.401 . S
C118 C123 1.499 1_556 S
N119 Co102 1.989 . S
N119 C118 1.342 . S
N119 N120 1.388 . S
N120 Co103 1.993 . S
N120 N119 1.388 . S
N120 C121 1.346 . S
C121 N120 1.346 . S
C121 C122 1.396 . S
C121 C131 1.510 . S
C122 C118 1.401 . S
C122 C121 1.396 . S
C123 C118 1.499 1_554 S
C123 H124 0.959 1_554 S
C123 H125 0.960 . S
C123 H126 0.961 . S
H124 C123 0.959 1_556 S
H125 C123 0.960 . S
H126 C123 0.961 . S
O127 Co102 1.967 . S
O127 C135 1.258 . S
O128 Co103 1.941 . S
O128 C135 1.266 . S
H129 C131 0.959 . S
H130 C131 0.961 . S
C131 C121 1.510 . S
C131 H129 0.959 . S
C131 H130 0.961 . S
C131 H132 0.960 . S
H132 C131 0.960 . S
H133 N113 0.862 . S
O134 Co102 1.920 . S
O134 C107 1.289 . S
C135 O127 1.258 . S
C135 O128 1.266 . S
Co136 O139 1.970 . S
Co136 N153 1.989 . S
Co136 O161 1.967 . S
Co136 O168 1.920 . S
Co137 O140 1.966 . S
Co137 N146 2.022 . S
Co137 N154 1.993 . S
Co137 O162 1.941 . S
C138 O139 1.258 . S
C138 O140 1.263 . S
O139 Co136 1.970 . S
O139 C138 1.258 . S
O140 Co137 1.966 . S
O140 C138 1.263 . S
C141 O142 1.235 . S
C141 O168 1.289 . S
O142 C141 1.235 . S
C143 C145 1.400 . S
C143 N146 1.351 . S
C143 C148 1.501 . S
C144 C145 1.387 . S
C144 N147 1.341 . S
C145 C143 1.400 . S
C145 C144 1.387 . S
N146 Co137 2.022 . S
N146 C143 1.351 . S
N146 N147 1.365 . S
N147 C144 1.341 . S
N147 N146 1.365 . S
N147 H167 0.862 . S
C148 C143 1.501 . S
C148 H149 0.961 . S
C148 H150 0.961 . S
C148 H151 0.960 . S
H149 C148 0.961 . S
H150 C148 0.961 . S
H151 C148 0.960 . S
C152 N153 1.342 . S
C152 C156 1.401 . S
C152 C157 1.499 . S
N153 Co136 1.989 . S
N153 C152 1.342 . S
N153 N154 1.388 . S
N154 Co137 1.993 . S
N154 N153 1.388 . S
N154 C155 1.346 . S
C155 N154 1.346 . S
C155 C156 1.396 . S
C155 C165 1.510 . S
C156 C152 1.401 . S
C156 C155 1.396 . S
C157 C152 1.499 . S
C157 H158 0.959 . S
C157 H159 0.960 . S
C157 H160 0.961 . S
H158 C157 0.959 . S
H159 C157 0.960 . S
H160 C157 0.961 . S
O161 Co136 1.967 . S
O161 C169 1.258 . S
O162 Co137 1.941 . S
O162 C169 1.266 . S
H163 C165 0.959 . S
H164 C165 0.961 . S
C165 C155 1.510 . S
C165 H163 0.959 . S
C165 H164 0.961 . S
C165 H166 0.960 . S
H166 C165 0.960 . S
H167 N147 0.862 . S
O168 Co136 1.920 . S
O168 C141 1.289 . S
C169 O161 1.258 . S
C169 O162 1.266 . S
Co170 O173 1.970 . S
Co170 N187 1.989 . S
Co170 O195 1.967 . S
Co170 O202 1.920 . S
Co171 O174 1.966 . S
Co171 N180 2.022 . S
Co171 N188 1.993 . S
Co171 O196 1.941 . S
C172 O173 1.258 . S
C172 O174 1.263 . S
O173 Co170 1.970 . S
O173 C172 1.258 . S
O174 Co171 1.966 . S
O174 C172 1.263 . S
C175 O176 1.235 . S
C175 O202 1.289 1_565 S
O176 C175 1.235 . S
C177 C179 1.400 . S
C177 N180 1.351 . S
C177 C182 1.501 . S
C178 C179 1.387 . S
C178 N181 1.341 . S
C179 C177 1.400 . S
C179 C178 1.387 . S
N180 Co171 2.022 . S
N180 C177 1.351 . S
N180 N181 1.365 . S
N181 C178 1.341 . S
N181 N180 1.365 . S
N181 H201 0.862 . S
C182 C177 1.501 . S
C182 H183 0.961 . S
C182 H184 0.961 . S
C182 H185 0.960 . S
H183 C182 0.961 . S
H184 C182 0.961 . S
H185 C182 0.960 . S
C186 N187 1.342 . S
C186 C190 1.401 . S
C186 C191 1.499 . S
N187 Co170 1.989 . S
N187 C186 1.342 . S
N187 N188 1.388 . S
N188 Co171 1.993 . S
N188 N187 1.388 . S
N188 C189 1.346 . S
C189 N188 1.346 . S
C189 C190 1.396 . S
C189 C199 1.510 . S
C190 C186 1.401 . S
C190 C189 1.396 . S
C191 C186 1.499 . S
C191 H192 0.959 . S
C191 H193 0.960 . S
C191 H194 0.961 . S
H192 C191 0.959 . S
H193 C191 0.960 . S
H194 C191 0.961 . S
O195 Co170 1.967 . S
O195 C203 1.258 . S
O196 Co171 1.941 . S
O196 C203 1.266 . S
H197 C199 0.959 . S
H198 C199 0.961 . S
C199 C189 1.510 . S
C199 H197 0.959 . S
C199 H198 0.961 . S
C199 H200 0.960 . S
H200 C199 0.960 . S
H201 N181 0.862 . S
O202 Co170 1.920 . S
O202 C175 1.289 1_545 S
C203 O195 1.258 . S
C203 O196 1.266 . S
Co204 O207 1.970 . S
Co204 N221 1.989 . S
Co204 O229 1.967 . S
Co204 O236 1.920 . S
Co205 O208 1.966 . S
Co205 N214 2.022 . S
Co205 N222 1.993 . S
Co205 O230 1.941 . S
C206 O207 1.258 . S
C206 O208 1.263 . S
O207 Co204 1.970 . S
O207 C206 1.258 . S
O208 Co205 1.966 . S
O208 C206 1.263 . S
C209 O210 1.235 . S
C209 O236 1.289 . S
O210 C209 1.235 . S
C211 C213 1.400 . S
C211 N214 1.351 . S
C211 C216 1.501 . S
C212 C213 1.387 . S
C212 N215 1.341 . S
C213 C211 1.400 . S
C213 C212 1.387 . S
N214 Co205 2.022 . S
N214 C211 1.351 . S
N214 N215 1.365 . S
N215 C212 1.341 . S
N215 N214 1.365 . S
N215 H235 0.862 . S
C216 C211 1.501 . S
C216 H217 0.961 . S
C216 H218 0.961 . S
C216 H219 0.960 . S
H217 C216 0.961 . S
H218 C216 0.961 . S
H219 C216 0.960 . S
C220 N221 1.342 . S
C220 C224 1.401 . S
C220 C225 1.499 1_554 S
N221 Co204 1.989 . S
N221 C220 1.342 . S
N221 N222 1.388 . S
N222 Co205 1.993 . S
N222 N221 1.388 . S
N222 C223 1.346 . S
C223 N222 1.346 . S
C223 C224 1.396 . S
C223 C233 1.510 . S
C224 C220 1.401 . S
C224 C223 1.396 . S
C225 C220 1.499 1_556 S
C225 H226 0.959 1_556 S
C225 H227 0.960 . S
C225 H228 0.961 . S
H226 C225 0.959 1_554 S
H227 C225 0.960 . S
H228 C225 0.961 . S
O229 Co204 1.967 . S
O229 C237 1.258 . S
O230 Co205 1.941 . S
O230 C237 1.266 . S
H231 C233 0.959 . S
H232 C233 0.961 . S
C233 C223 1.510 . S
C233 H231 0.959 . S
C233 H232 0.961 . S
C233 H234 0.960 . S
H234 C233 0.960 . S
H235 N215 0.862 . S
O236 Co204 1.920 . S
O236 C209 1.289 . S
C237 O229 1.258 . S
C237 O230 1.266 . S
Co238 O241 1.970 . S
Co238 N255 1.989 . S
Co238 O263 1.967 . S
Co238 O270 1.920 . S
Co239 O242 1.966 . S
Co239 N248 2.022 . S
Co239 N256 1.993 . S
Co239 O264 1.941 . S
C240 O241 1.258 . S
C240 O242 1.263 . S
O241 Co238 1.970 . S
O241 C240 1.258 . S
O242 Co239 1.966 . S
O242 C240 1.263 . S
C243 O244 1.235 . S
C243 O270 1.289 1_545 S
O244 C243 1.235 . S
C245 C247 1.400 . S
C245 N248 1.351 . S
C245 C250 1.501 . S
C246 C247 1.387 . S
C246 N249 1.341 . S
C247 C245 1.400 . S
C247 C246 1.387 . S
N248 Co239 2.022 . S
N248 C245 1.351 . S
N248 N249 1.365 . S
N249 C246 1.341 . S
N249 N248 1.365 . S
N249 H269 0.862 . S
C250 C245 1.501 . S
C250 H251 0.961 . S
C250 H252 0.961 . S
C250 H253 0.960 . S
H251 C250 0.961 . S
H252 C250 0.961 . S
H253 C250 0.960 . S
C254 N255 1.342 . S
C254 C258 1.401 . S
C254 C259 1.499 . S
N255 Co238 1.989 . S
N255 C254 1.342 . S
N255 N256 1.388 . S
N256 Co239 1.993 . S
N256 N255 1.388 . S
N256 C257 1.346 . S
C257 N256 1.346 . S
C257 C258 1.396 . S
C257 C267 1.510 . S
C258 C254 1.401 . S
C258 C257 1.396 . S
C259 C254 1.499 . S
C259 H260 0.959 . S
C259 H261 0.960 . S
C259 H262 0.961 . S
H260 C259 0.959 . S
H261 C259 0.960 . S
H262 C259 0.961 . S
O263 Co238 1.967 . S
O263 C271 1.258 . S
O264 Co239 1.941 . S
O264 C271 1.266 . S
H265 C267 0.959 . S
H266 C267 0.961 . S
C267 C257 1.510 . S
C267 H265 0.959 . S
C267 H266 0.961 . S
C267 H268 0.960 . S
H268 C267 0.960 . S
H269 N249 0.862 . S
O270 Co238 1.920 . S
O270 C243 1.289 1_565 S
C271 O263 1.258 . S
C271 O264 1.266 . S
H272 C278 0.930 . S
H273 C282 0.930 . S
H274 C287 0.929 . S
H275 C285 0.929 . S
H276 C280 0.929 . S
H277 C286 0.929 . S
C278 H272 0.930 . S
C278 C279 1.367 . S
C278 C286 1.378 . S
C279 C278 1.367 . S
C279 C287 1.433 . S
C280 H276 0.929 . S
C280 C282 1.378 . S
C280 C284 1.350 . S
C281 C284 1.463 . S
C281 C286 1.350 . S
C281 N289 1.427 . S
C282 H273 0.930 . S
C282 C280 1.378 . S
C282 C283 1.367 . S
C283 C282 1.367 . S
C283 C285 1.433 . S
C284 C280 1.350 . S
C284 C281 1.463 . S
C284 N288 1.427 . S
C285 H275 0.929 . S
C285 C283 1.433 . S
C285 N288 1.384 . S
C286 H277 0.929 . S
C286 C278 1.378 . S
C286 C281 1.350 . S
C287 H274 0.929 . S
C287 C279 1.433 . S
C287 N289 1.384 . S
N288 C284 1.427 . S
N288 C285 1.384 . S
N289 C281 1.427 . S
N289 C287 1.384 . S
H290 C296 0.930 . S
H291 C300 0.930 . S
H292 C305 0.929 . S
H293 C303 0.929 . S
H294 C298 0.929 . S
H295 C304 0.929 . S
C296 H290 0.930 . S
C296 C297 1.367 . S
C296 C304 1.378 1_655 S
C297 C296 1.367 . S
C297 C305 1.433 . S
C298 H294 0.929 . S
C298 C300 1.378 . S
C298 C302 1.350 . S
C299 C302 1.463 . S
C299 C304 1.350 . S
C299 N307 1.427 . S
C300 H291 0.930 . S
C300 C298 1.378 . S
C300 C301 1.367 . S
C301 C300 1.367 . S
C301 C303 1.433 . S
C302 C298 1.350 . S
C302 C299 1.463 . S
C302 N306 1.427 . S
C303 H293 0.929 . S
C303 C301 1.433 . S
C303 N306 1.384 . S
C304 H295 0.929 . S
C304 C296 1.378 1_455 S
C304 C299 1.350 . S
C305 H292 0.929 . S
C305 C297 1.433 . S
C305 N307 1.384 1_655 S
N306 C302 1.427 . S
N306 C303 1.384 . S
N307 C299 1.427 . S
N307 C305 1.384 1_455 S
H308 C314 0.930 . S
H309 C318 0.930 . S
H310 C323 0.929 . S
H311 C321 0.929 . S
H312 C316 0.929 . S
H313 C322 0.929 . S
C314 H308 0.930 . S
C314 C315 1.367 . S
C314 C322 1.378 . S
C315 C314 1.367 . S
C315 C323 1.433 . S
C316 H312 0.929 . S
C316 C318 1.378 . S
C316 C320 1.350 . S
C317 C320 1.463 . S
C317 C322 1.350 . S
C317 N325 1.427 . S
C318 H309 0.930 . S
C318 C316 1.378 . S
C318 C319 1.367 . S
C319 C318 1.367 . S
C319 C321 1.433 . S
C320 C316 1.350 . S
C320 C317 1.463 . S
C320 N324 1.427 . S
C321 H311 0.929 . S
C321 C319 1.433 . S
C321 N324 1.384 . S
C322 H313 0.929 . S
C322 C314 1.378 . S
C322 C317 1.350 . S
C323 H310 0.929 . S
C323 C315 1.433 . S
C323 N325 1.384 . S
N324 C320 1.427 . S
N324 C321 1.384 . S
N325 C317 1.427 . S
N325 C323 1.384 . S
H326 C332 0.930 . S
H327 C336 0.930 . S
H328 C341 0.956 . S
H329 C339 0.929 . S
H330 C334 0.929 . S
H331 C340 0.929 . S
C332 H326 0.930 . S
C332 C333 1.367 . S
C332 C340 1.378 . S
C333 C332 1.367 . S
C333 C341 1.433 . S
C334 H330 0.929 . S
C334 C336 1.378 . S
C334 C338 1.350 1_455 S
C335 C338 1.463 . S
C335 C340 1.350 . S
C335 N343 1.427 . S
C336 H327 0.930 . S
C336 C334 1.378 . S
C336 C337 1.367 . S
C337 C336 1.367 . S
C337 C339 1.433 1_455 S
C338 C334 1.350 1_655 S
C338 C335 1.463 . S
C338 N342 1.427 . S
C339 H329 0.929 . S
C339 C337 1.433 1_655 S
C339 N342 1.384 . S
C340 H331 0.929 . S
C340 C332 1.378 . S
C340 C335 1.350 . S
C341 H328 0.956 . S
C341 C333 1.433 . S
C341 N343 1.384 . S
N342 C338 1.427 . S
N342 C339 1.384 . S
N343 C335 1.427 . S
N343 C341 1.384 . S
H344 C350 0.930 . S
H345 C354 0.930 . S
H346 C359 0.929 . S
H347 C357 0.929 . S
H348 C352 0.929 . S
H349 C358 0.929 . S
C350 H344 0.930 . S
C350 C351 1.367 . S
C350 C358 1.378 . S
C351 C350 1.367 . S
C351 C359 1.433 . S
C352 H348 0.929 . S
C352 C354 1.378 . S
C352 C356 1.350 . S
C353 C356 1.463 . S
C353 C358 1.350 . S
C353 N361 1.427 . S
C354 H345 0.930 . S
C354 C352 1.378 . S
C354 C355 1.367 1_545 S
C355 C354 1.367 1_565 S
C355 C357 1.433 . S
C356 C352 1.350 . S
C356 C353 1.463 . S
C356 N360 1.427 1_545 S
C357 H347 0.929 . S
C357 C355 1.433 . S
C357 N360 1.384 . S
C358 H349 0.929 . S
C358 C350 1.378 . S
C358 C353 1.350 . S
C359 H346 0.929 . S
C359 C351 1.433 . S
C359 N361 1.384 . S
N360 C356 1.427 1_565 S
N360 C357 1.384 . S
N361 C353 1.427 . S
N361 C359 1.384 . S
H362 C368 0.930 . S
H363 C372 0.930 . S
H364 C377 0.929 . S
H365 C375 0.929 . S
H366 C370 0.929 . S
H367 C376 0.929 . S
C368 H362 0.930 . S
C368 C369 1.367 . S
C368 C376 1.378 . S
C369 C368 1.367 . S
C369 C377 1.433 . S
C370 H366 0.929 . S
C370 C372 1.378 . S
C370 C374 1.350 . S
C371 C374 1.463 . S
C371 C376 1.350 . S
C371 N379 1.427 . S
C372 H363 0.930 . S
C372 C370 1.378 . S
C372 C373 1.367 . S
C373 C372 1.367 . S
C373 C375 1.433 . S
C374 C370 1.350 . S
C374 C371 1.463 . S
C374 N378 1.427 . S
C375 H365 0.929 . S
C375 C373 1.433 . S
C375 N378 1.384 . S
C376 H367 0.929 . S
C376 C368 1.378 . S
C376 C371 1.350 . S
C377 H364 0.929 . S
C377 C369 1.433 . S
C377 N379 1.384 . S
N378 C374 1.427 . S
N378 C375 1.384 . S
N379 C371 1.427 . S
N379 C377 1.384 . S
H380 C386 0.930 . S
H381 C390 0.930 . S
H382 C395 0.929 . S
H383 C393 0.929 . S
H384 C388 0.928 1_545 S
H385 C394 0.929 . S
C386 H380 0.930 . S
C386 C387 1.367 . S
C386 C394 1.378 . S
C387 C386 1.367 . S
C387 C395 1.433 . S
C388 H384 0.928 1_565 S
C388 C390 1.367 1_565 S
C388 C392 1.362 . S
C389 C392 1.463 . S
C389 C394 1.350 . S
C389 N397 1.427 . S
C390 H381 0.930 . S
C390 C388 1.367 1_545 S
C390 C391 1.367 . S
C391 C390 1.367 . S
C391 C393 1.433 1_545 S
C392 C388 1.362 . S
C392 C389 1.463 . S
C392 N396 1.427 . S
C393 H383 0.929 . S
C393 C391 1.433 1_565 S
C393 N396 1.384 . S
C394 H385 0.929 . S
C394 C386 1.378 . S
C394 C389 1.350 . S
C395 H382 0.929 . S
C395 C387 1.433 . S
C395 N397 1.384 . S
N396 C392 1.427 . S
N396 C393 1.384 . S
N397 C389 1.427 . S
N397 C395 1.384 . S
H398 C404 0.930 . S
H399 C408 0.930 . S
H400 C413 0.929 . S
H401 C411 0.929 . S
H402 C406 0.929 . S
H403 C412 0.929 . S
C404 H398 0.930 . S
C404 C405 1.367 . S
C404 C412 1.378 . S
C405 C404 1.367 . S
C405 C413 1.433 . S
C406 H402 0.929 . S
C406 C408 1.378 . S
C406 C410 1.350 . S
C407 C410 1.463 . S
C407 C412 1.350 . S
C407 N415 1.427 . S
C408 H399 0.930 . S
C408 C406 1.378 . S
C408 C409 1.367 . S
C409 C408 1.367 . S
C409 C411 1.433 . S
C410 C406 1.350 . S
C410 C407 1.463 . S
C410 N414 1.427 . S
C411 H401 0.929 . S
C411 C409 1.433 . S
C411 N414 1.384 . S
C412 H403 0.929 . S
C412 C404 1.378 . S
C412 C407 1.350 . S
C413 H400 0.929 . S
C413 C405 1.433 . S
C413 N415 1.384 . S
N414 C410 1.427 . S
N414 C411 1.384 . S
N415 C407 1.427 . S
N415 C413 1.384 . S
H416 C422 0.930 . S
H417 C426 0.930 . S
H418 C431 0.929 . S
H419 C429 0.929 . S
H420 C424 0.929 . S
H421 C430 0.929 . S
C422 H416 0.930 . S
C422 C423 1.367 . S
C422 C430 1.378 . S
C423 C422 1.367 . S
C423 C431 1.433 . S
C424 H420 0.929 . S
C424 C426 1.378 . S
C424 C428 1.350 . S
C425 C428 1.463 . S
C425 C430 1.350 . S
C425 N433 1.427 . S
C426 H417 0.930 . S
C426 C424 1.378 . S
C426 C427 1.367 . S
C427 C426 1.367 . S
C427 C429 1.433 . S
C428 C424 1.350 . S
C428 C425 1.463 . S
C428 N432 1.427 . S
C429 H419 0.929 . S
C429 C427 1.433 . S
C429 N432 1.384 . S
C430 H421 0.929 . S
C430 C422 1.378 . S
C430 C425 1.350 . S
C431 H418 0.929 . S
C431 C423 1.433 . S
C431 N433 1.384 . S
N432 C428 1.427 . S
N432 C429 1.384 . S
N433 C425 1.427 . S
N433 C431 1.384 . S
H434 C440 0.930 . S
H435 C444 0.930 . S
H436 C449 0.929 . S
H437 C447 0.929 . S
H438 C442 0.929 . S
H439 C448 0.929 . S
C440 H434 0.930 . S
C440 C441 1.367 . S
C440 C448 1.378 . S
C441 C440 1.367 . S
C441 C449 1.433 . S
C442 H438 0.929 . S
C442 C444 1.378 . S
C442 C446 1.350 . S
C443 C446 1.463 . S
C443 C448 1.350 . S
C443 N451 1.427 . S
C444 H435 0.930 . S
C444 C442 1.378 . S
C444 C445 1.367 . S
C445 C444 1.367 . S
C445 C447 1.433 . S
C446 C442 1.350 . S
C446 C443 1.463 . S
C446 N450 1.427 . S
C447 H437 0.929 . S
C447 C445 1.433 . S
C447 N450 1.384 . S
C448 H439 0.929 . S
C448 C440 1.378 . S
C448 C443 1.350 . S
C449 H436 0.929 . S
C449 C441 1.433 . S
C449 N451 1.384 . S
N450 C446 1.427 . S
N450 C447 1.384 . S
N451 C443 1.427 . S
N451 C449 1.384 . S
H452 C458 0.930 . S
H453 C462 0.930 . S
H454 C467 0.929 . S
H455 C465 0.929 . S
H456 C460 0.929 . S
H457 C466 0.929 . S
C458 H452 0.930 . S
C458 C459 1.367 . S
C458 C466 1.378 . S
C459 C458 1.367 . S
C459 C467 1.433 . S
C460 H456 0.929 . S
C460 C462 1.378 . S
C460 C464 1.350 . S
C461 C464 1.463 . S
C461 C466 1.350 . S
C461 N469 1.427 . S
C462 H453 0.930 . S
C462 C460 1.378 . S
C462 C463 1.367 . S
C463 C462 1.367 . S
C463 C465 1.433 . S
C464 C460 1.350 . S
C464 C461 1.463 . S
C464 N468 1.427 . S
C465 H455 0.929 . S
C465 C463 1.433 . S
C465 N468 1.384 . S
C466 H457 0.929 . S
C466 C458 1.378 . S
C466 C461 1.350 . S
C467 H454 0.929 . S
C467 C459 1.433 . S
C467 N469 1.384 . S
N468 C464 1.427 . S
N468 C465 1.384 . S
N469 C461 1.427 . S
N469 C467 1.384 . S
H470 C476 0.930 . S
H471 C480 0.930 . S
H472 C485 0.929 . S
H473 C483 0.929 . S
H474 C478 0.929 . S
H475 C484 0.929 . S
C476 H470 0.930 . S
C476 C477 1.367 . S
C476 C484 1.378 . S
C477 C476 1.367 . S
C477 C485 1.433 . S
C478 H474 0.929 . S
C478 C480 1.378 . S
C478 C482 1.350 . S
C479 C482 1.463 . S
C479 C484 1.350 . S
C479 N487 1.427 . S
C480 H471 0.930 . S
C480 C478 1.378 . S
C480 C481 1.367 . S
C481 C480 1.367 . S
C481 C483 1.433 . S
C482 C478 1.350 . S
C482 C479 1.463 . S
C482 N486 1.427 . S
C483 H473 0.929 . S
C483 C481 1.433 . S
C483 N486 1.384 . S
C484 H475 0.929 . S
C484 C476 1.378 . S
C484 C479 1.350 . S
C485 H472 0.929 . S
C485 C477 1.433 . S
C485 N487 1.384 . S
N486 C482 1.427 . S
N486 C483 1.384 . S
N487 C479 1.427 . S
N487 C485 1.384 . S
H488 C494 0.930 . S
H489 C498 0.930 . S
H490 C503 0.929 . S
H491 C501 0.929 . S
H492 C496 0.929 . S
H493 C502 0.929 . S
C494 H488 0.930 . S
C494 C495 1.367 . S
C494 C502 1.378 . S
C495 C494 1.367 . S
C495 C503 1.433 . S
C496 H492 0.929 . S
C496 C498 1.378 . S
C496 C500 1.350 . S
C497 C500 1.463 . S
C497 C502 1.350 . S
C497 N505 1.427 . S
C498 H489 0.930 . S
C498 C496 1.378 . S
C498 C499 1.367 . S
C499 C498 1.367 . S
C499 C501 1.433 . S
C500 C496 1.350 . S
C500 C497 1.463 . S
C500 N504 1.427 . S
C501 H491 0.929 . S
C501 C499 1.433 . S
C501 N504 1.384 . S
C502 H493 0.929 . S
C502 C494 1.378 . S
C502 C497 1.350 . S
C503 H490 0.929 . S
C503 C495 1.433 . S
C503 N505 1.384 . S
N504 C500 1.427 . S
N504 C501 1.384 . S
N505 C497 1.427 . S
N505 C503 1.384 . S
H506 C512 0.930 . S
H507 C516 0.930 . S
H508 C521 0.929 . S
H509 C519 0.929 . S
H510 C514 0.929 . S
H511 C520 0.929 . S
C512 H506 0.930 . S
C512 C513 1.367 . S
C512 C520 1.378 . S
C513 C512 1.367 . S
C513 C521 1.433 . S
C514 H510 0.929 . S
C514 C516 1.378 . S
C514 C518 1.350 . S
C515 C518 1.463 . S
C515 C520 1.350 . S
C515 N523 1.427 . S
C516 H507 0.930 . S
C516 C514 1.378 . S
C516 C517 1.367 . S
C517 C516 1.367 . S
C517 C519 1.433 . S
C518 C514 1.350 . S
C518 C515 1.463 . S
C518 N522 1.427 . S
C519 H509 0.929 . S
C519 C517 1.433 . S
C519 N522 1.384 . S
C520 H511 0.929 . S
C520 C512 1.378 . S
C520 C515 1.350 . S
C521 H508 0.929 . S
C521 C513 1.433 . S
C521 N523 1.384 . S
N522 C518 1.427 . S
N522 C519 1.384 . S
N523 C515 1.427 . S
N523 C521 1.384 . S
H524 C530 0.930 . S
H525 C534 0.930 . S
H526 C539 0.929 . S
H527 C537 0.929 . S
H528 C532 0.929 . S
H529 C538 0.929 . S
C530 H524 0.930 . S
C530 C531 1.367 . S
C530 C538 1.378 . S
C531 C530 1.367 . S
C531 C539 1.433 . S
C532 H528 0.929 . S
C532 C534 1.378 . S
C532 C536 1.350 . S
C533 C536 1.463 . S
C533 C538 1.350 . S
C533 N541 1.427 . S
C534 H525 0.930 . S
C534 C532 1.378 . S
C534 C535 1.367 . S
C535 C534 1.367 . S
C535 C537 1.433 . S
C536 C532 1.350 . S
C536 C533 1.463 . S
C536 N540 1.427 . S
C537 H527 0.929 . S
C537 C535 1.433 . S
C537 N540 1.384 . S
C538 H529 0.929 . S
C538 C530 1.378 . S
C538 C533 1.350 . S
C539 H526 0.929 . S
C539 C531 1.433 . S
C539 N541 1.384 . S
N540 C536 1.427 . S
N540 C537 1.384 . S
N541 C533 1.427 . S
N541 C539 1.384 . S
H542 C548 0.930 . S
H543 C552 0.930 1_455 S
H544 C557 0.929 . S
H545 C555 0.929 . S
H546 C550 0.929 . S
H547 C556 0.929 . S
C548 H542 0.930 . S
C548 C549 1.367 . S
C548 C556 1.378 . S
C549 C548 1.367 . S
C549 C557 1.433 . S
C550 H546 0.929 . S
C550 C552 1.378 . S
C550 C554 1.350 . S
C551 C554 1.463 . S
C551 C556 1.350 . S
C551 N559 1.427 . S
C552 H543 0.930 1_655 S
C552 C550 1.378 . S
C552 C553 1.367 . S
C553 C552 1.367 . S
C553 C555 1.433 . S
C554 C550 1.350 . S
C554 C551 1.463 . S
C554 N558 1.427 . S
C555 H545 0.929 . S
C555 C553 1.433 . S
C555 N558 1.384 . S
C556 H547 0.929 . S
C556 C548 1.378 . S
C556 C551 1.350 . S
C557 H544 0.929 . S
C557 C549 1.433 . S
C557 N559 1.384 . S
N558 C554 1.427 . S
N558 C555 1.384 . S
N559 C551 1.427 . S
N559 C557 1.384 . S
H560 C566 0.930 . S
H561 C570 0.930 . S
H562 C575 0.929 . S
H563 C573 0.929 . S
H564 C568 0.929 . S
H565 C574 0.929 . S
C566 H560 0.930 . S
C566 C567 1.367 . S
C566 C574 1.378 . S
C567 C566 1.367 . S
C567 C575 1.433 . S
C568 H564 0.929 . S
C568 C570 1.378 . S
C568 C572 1.350 . S
C569 C572 1.463 . S
C569 C574 1.350 . S
C569 N577 1.427 . S
C570 H561 0.930 . S
C570 C568 1.378 . S
C570 C571 1.367 . S
C571 C570 1.367 . S
C571 C573 1.433 . S
C572 C568 1.350 . S
C572 C569 1.463 . S
C572 N576 1.427 . S
C573 H563 0.929 . S
C573 C571 1.433 . S
C573 N576 1.384 . S
C574 H565 0.929 . S
C574 C566 1.378 . S
C574 C569 1.350 . S
C575 H562 0.929 . S
C575 C567 1.433 . S
C575 N577 1.384 . S
N576 C572 1.427 . S
N576 C573 1.384 . S
N577 C569 1.427 . S
N577 C575 1.384 . S
H578 C584 0.930 . S
H579 C588 0.930 . S
H580 C593 0.929 . S
H581 C591 0.929 . S
H582 C586 0.929 . S
H583 C592 0.929 . S
C584 H578 0.930 . S
C584 C585 1.367 . S
C584 C592 1.378 . S
C585 C584 1.367 . S
C585 C593 1.433 . S
C586 H582 0.929 . S
C586 C588 1.378 . S
C586 C590 1.350 . S
C587 C590 1.463 . S
C587 C592 1.350 . S
C587 N595 1.427 . S
C588 H579 0.930 . S
C588 C586 1.378 . S
C588 C589 1.367 . S
C589 C588 1.367 . S
C589 C591 1.433 . S
C590 C586 1.350 . S
C590 C587 1.463 . S
C590 N594 1.427 . S
C591 H581 0.929 . S
C591 C589 1.433 . S
C591 N594 1.384 . S
C592 H583 0.929 . S
C592 C584 1.378 . S
C592 C587 1.350 . S
C593 H580 0.929 . S
C593 C585 1.433 . S
C593 N595 1.384 . S
N594 C590 1.427 . S
N594 C591 1.384 . S
N595 C587 1.427 . S
N595 C593 1.384 . S
H596 C602 0.930 . S
H597 C606 0.930 . S
H598 C611 0.929 . S
H599 C609 0.929 . S
H600 C604 0.929 . S
H601 C610 0.929 . S
C602 H596 0.930 . S
C602 C603 1.367 . S
C602 C610 1.378 . S
C603 C602 1.367 . S
C603 C611 1.433 . S
C604 H600 0.929 . S
C604 C606 1.378 . S
C604 C608 1.350 . S
C605 C608 1.463 . S
C605 C610 1.350 . S
C605 N613 1.427 . S
C606 H597 0.930 . S
C606 C604 1.378 . S
C606 C607 1.367 . S
C607 C606 1.367 . S
C607 C609 1.433 . S
C608 C604 1.350 . S
C608 C605 1.463 . S
C608 N612 1.427 . S
C609 H599 0.929 . S
C609 C607 1.433 . S
C609 N612 1.384 . S
C610 H601 0.929 . S
C610 C602 1.378 . S
C610 C605 1.350 . S
C611 H598 0.929 . S
C611 C603 1.433 . S
C611 N613 1.384 . S
N612 C608 1.427 . S
N612 C609 1.384 . S
N613 C605 1.427 . S
N613 C611 1.384 . S
H614 C620 0.930 1_554 S
H615 C624 0.930 1_556 S
H616 C629 0.929 . S
H617 C627 0.929 . S
H618 C622 0.929 . S
H619 C628 0.929 . S
C620 H614 0.930 1_556 S
C620 C621 1.367 . S
C620 C628 1.378 1_556 S
C621 C620 1.367 . S
C621 C629 1.433 . S
C622 H618 0.929 . S
C622 C624 1.378 1_556 S
C622 C626 1.350 1_556 S
C623 C626 1.463 1_556 S
C623 C628 1.350 1_556 S
C623 N631 1.427 . S
C624 H615 0.930 1_554 S
C624 C622 1.378 1_554 S
C624 C625 1.367 . S
C625 C624 1.367 . S
C625 C627 1.433 . S
C626 C622 1.350 1_554 S
C626 C623 1.463 1_554 S
C626 N630 1.427 . S
C627 H617 0.929 . S
C627 C625 1.433 . S
C627 N630 1.384 . S
C628 H619 0.929 . S
C628 C620 1.378 1_554 S
C628 C623 1.350 1_554 S
C629 H616 0.929 . S
C629 C621 1.433 . S
C629 N631 1.384 . S
N630 C626 1.427 . S
N630 C627 1.384 . S
N631 C623 1.427 . S
N631 C629 1.384 . S
C279 C20 1.301 . S
C283 C36 1.305 . S
C297 C70 1.304 . S
C301 C54 1.303 . S
C315 C104 1.305 . S
C319 C88 1.305 . S
C333 C122 1.303 1_554 S
C337 C2 1.305 . S
C351 C156 1.301 . S
C355 C240 1.305 . S
C369 C190 1.301 . S
C373 C138 1.306 . S
C387 C224 1.304 1_556 S
C391 C172 1.304 . S
C405 C258 1.302 . S
C409 C206 1.306 . S
C423 C213 1.360 1_545 S
C427 C33 1.391 . S
C441 C247 1.351 . S
C445 C67 1.393 . S
C459 C145 1.359 1_565 S
C463 C101 1.396 . S
C477 C179 1.357 . S
C481 C135 1.397 . S
C495 C169 1.395 . S
C499 C77 1.363 . S
C513 C203 1.391 . S
C517 C111 1.354 1_455 S
C531 C237 1.391 . S
C535 C9 1.362 . S
C549 C271 1.393 . S
C553 C43 1.350 1_655 S
C567 C243 1.679 . S
C571 C5 1.677 . S
C585 C141 1.677 . S
C589 C39 1.680 . S
C603 C73 1.681 . S
C607 C175 1.677 . S
C621 C107 1.679 . S
C625 C209 1.676 . S
