# Generated by pormake.
# Topology atn, (4)-cn, num edge types: 1
# Building blocks:
#     Node 0, Type 0, BuildingBlock: CEKHIL_clean_sbu_0, # of connection points: 4
#     Node 1, Type 0, BuildingBlock: CEKHIL_clean_sbu_0, # of connection points: 4
#     Node 2, Type 0, BuildingBlock: CEKHIL_clean_sbu_0, # of connection points: 4
#     Node 3, Type 0, BuildingBlock: CEKHIL_clean_sbu_0, # of connection points: 4
#     Node 4, Type 0, BuildingBlock: CEKHIL_clean_sbu_0, # of connection points: 4
#     Node 5, Type 0, BuildingBlock: CEKHIL_clean_sbu_0, # of connection points: 4
#     Node 6, Type 0, BuildingBlock: CEKHIL_clean_sbu_0, # of connection points: 4
#     Node 7, Type 0, BuildingBlock: CEKHIL_clean_sbu_0, # of connection points: 4
#     Node 8, Type 0, BuildingBlock: CEKHIL_clean_sbu_0, # of connection points: 4
#     Node 9, Type 0, BuildingBlock: CEKHIL_clean_sbu_0, # of connection points: 4
#     Node 10, Type 0, BuildingBlock: CEKHIL_clean_sbu_0, # of connection points: 4
#     Node 11, Type 0, BuildingBlock: CEKHIL_clean_sbu_0, # of connection points: 4
#     Node 12, Type 0, BuildingBlock: CEKHIL_clean_sbu_0, # of connection points: 4
#     Node 13, Type 0, BuildingBlock: CEKHIL_clean_sbu_0, # of connection points: 4
#     Node 14, Type 0, BuildingBlock: CEKHIL_clean_sbu_0, # of connection points: 4
#     Node 15, Type 0, BuildingBlock: CEKHIL_clean_sbu_0, # of connection points: 4
#     Edge 16, Type (0, 0), BuildingBlock: UVAHIK_clean_linker_0, # of connection points: 2
#     Edge 17, Type (0, 0), BuildingBlock: UVAHIK_clean_linker_0, # of connection points: 2
#     Edge 18, Type (0, 0), BuildingBlock: UVAHIK_clean_linker_0, # of connection points: 2
#     Edge 19, Type (0, 0), BuildingBlock: UVAHIK_clean_linker_0, # of connection points: 2
#     Edge 20, Type (0, 0), BuildingBlock: UVAHIK_clean_linker_0, # of connection points: 2
#     Edge 21, Type (0, 0), BuildingBlock: UVAHIK_clean_linker_0, # of connection points: 2
#     Edge 22, Type (0, 0), BuildingBlock: UVAHIK_clean_linker_0, # of connection points: 2
#     Edge 23, Type (0, 0), BuildingBlock: UVAHIK_clean_linker_0, # of connection points: 2
#     Edge 24, Type (0, 0), BuildingBlock: UVAHIK_clean_linker_0, # of connection points: 2
#     Edge 25, Type (0, 0), BuildingBlock: UVAHIK_clean_linker_0, # of connection points: 2
#     Edge 26, Type (0, 0), BuildingBlock: UVAHIK_clean_linker_0, # of connection points: 2
#     Edge 27, Type (0, 0), BuildingBlock: UVAHIK_clean_linker_0, # of connection points: 2
#     Edge 28, Type (0, 0), BuildingBlock: UVAHIK_clean_linker_0, # of connection points: 2
#     Edge 29, Type (0, 0), BuildingBlock: UVAHIK_clean_linker_0, # of connection points: 2
#     Edge 30, Type (0, 0), BuildingBlock: UVAHIK_clean_linker_0, # of connection points: 2
#     Edge 31, Type (0, 0), BuildingBlock: UVAHIK_clean_linker_0, # of connection points: 2
#     Edge 32, Type (0, 0), BuildingBlock: UVAHIK_clean_linker_0, # of connection points: 2
#     Edge 33, Type (0, 0), BuildingBlock: UVAHIK_clean_linker_0, # of connection points: 2
#     Edge 34, Type (0, 0), BuildingBlock: UVAHIK_clean_linker_0, # of connection points: 2
#     Edge 35, Type (0, 0), BuildingBlock: UVAHIK_clean_linker_0, # of connection points: 2
#     Edge 36, Type (0, 0), BuildingBlock: UVAHIK_clean_linker_0, # of connection points: 2
#     Edge 37, Type (0, 0), BuildingBlock: UVAHIK_clean_linker_0, # of connection points: 2
#     Edge 38, Type (0, 0), BuildingBlock: UVAHIK_clean_linker_0, # of connection points: 2
#     Edge 39, Type (0, 0), BuildingBlock: UVAHIK_clean_linker_0, # of connection points: 2
#     Edge 40, Type (0, 0), BuildingBlock: UVAHIK_clean_linker_0, # of connection points: 2
#     Edge 41, Type (0, 0), BuildingBlock: UVAHIK_clean_linker_0, # of connection points: 2
#     Edge 42, Type (0, 0), BuildingBlock: UVAHIK_clean_linker_0, # of connection points: 2
#     Edge 43, Type (0, 0), BuildingBlock: UVAHIK_clean_linker_0, # of connection points: 2
#     Edge 44, Type (0, 0), BuildingBlock: UVAHIK_clean_linker_0, # of connection points: 2
#     Edge 45, Type (0, 0), BuildingBlock: UVAHIK_clean_linker_0, # of connection points: 2
#     Edge 46, Type (0, 0), BuildingBlock: UVAHIK_clean_linker_0, # of connection points: 2
#     Edge 47, Type (0, 0), BuildingBlock: UVAHIK_clean_linker_0, # of connection points: 2
# Relax obj value: 0.034
# Max RMSD: 0.063
# Mean RMSD: 0.063
data_MOF--net-atn--node1-CEKHIL_clean_sbu_0--edge1-UVAHIK_clean_linker_0
_symmetry_space_group_name_H-M    P1
_symmetry_Int_Tables_number       1
_symmetry_cell_setting            triclinic
loop_
_symmetry_equiv_pos_as_xyz
'x, y, z'
_cell_length_a     76.888841
_cell_length_b     76.868734
_cell_length_c     35.284158
_cell_angle_alpha  90.007307
_cell_angle_beta   89.989221
_cell_angle_gamma 90.019057
loop_
_atom_site_label
_atom_site_type_symbol
_atom_site_fract_x
_atom_site_fract_y
_atom_site_fract_z
_atom_type_partial_charge
Co0 Co 0.19578 0.37904 0.98786 0.0
O1 O 0.18382 0.40095 0.98842 0.0
O2 O 0.21085 0.39699 0.00826 0.0
C3 C 0.18831 0.37169 0.92818 0.0
O4 O 0.21252 0.35845 0.98995 0.0
Co5 Co 0.17484 0.34463 0.97782 0.0
O6 O 0.19833 0.33477 0.96871 0.0
C7 C 0.17365 0.36346 0.05058 0.0
C8 C 0.19801 0.40764 0.00195 0.0
C9 C 0.21227 0.34248 0.97884 0.0
O10 O 0.18631 0.37331 0.03992 0.0
O11 O 0.16617 0.35248 0.02866 0.0
O12 O 0.20134 0.3821 0.93413 0.0
O13 O 0.17943 0.36752 0.95782 0.0
Co14 Co 0.62211 0.19548 0.98801 0.0
O15 O 0.60035 0.18327 0.98974 0.0
O16 O 0.60401 0.21073 0.00695 0.0
C17 C 0.62946 0.18687 0.92905 0.0
O18 O 0.64244 0.21256 0.9883 0.0
Co19 Co 0.65686 0.17503 0.97949 0.0
O20 O 0.66601 0.19843 0.96633 0.0
C21 C 0.63808 0.17478 0.05245 0.0
C22 C 0.59349 0.19768 0.00167 0.0
C23 C 0.65817 0.2124 0.97571 0.0
O24 O 0.62801 0.18709 0.04087 0.0
O25 O 0.6492 0.16717 0.0311 0.0
O26 O 0.61892 0.19989 0.93382 0.0
O27 O 0.63382 0.17868 0.9595 0.0
Co28 Co 0.8058 0.62232 0.98822 0.0
O29 O 0.81773 0.60038 0.98797 0.0
O30 O 0.79075 0.60431 0.00826 0.0
C31 C 0.81316 0.63009 0.92869 0.0
O32 O 0.78905 0.64286 0.99116 0.0
Co33 Co 0.82661 0.65684 0.97912 0.0
O34 O 0.8031 0.66683 0.9711 0.0
C35 C 0.82822 0.63737 0.05101 0.0
C36 C 0.80355 0.59367 0.00154 0.0
C37 C 0.78921 0.65895 0.98094 0.0
O38 O 0.81543 0.62769 0.04035 0.0
O39 O 0.83561 0.64849 0.02929 0.0
O40 O 0.80014 0.61963 0.93441 0.0
O41 O 0.82208 0.63407 0.9584 0.0
Co42 Co 0.37884 0.80614 0.98948 0.0
O43 O 0.40057 0.81844 0.99069 0.0
O44 O 0.39697 0.79119 0.00944 0.0
C45 C 0.3716 0.81392 0.92989 0.0
O46 O 0.35855 0.78902 0.99054 0.0
Co47 Co 0.34412 0.82646 0.97961 0.0
O48 O 0.33498 0.8029 0.96786 0.0
C49 C 0.36263 0.82745 0.05283 0.0
C50 C 0.40746 0.8042 0.00347 0.0
C51 C 0.34282 0.78903 0.97795 0.0
O52 O 0.37282 0.81513 0.04182 0.0
O53 O 0.35153 0.83482 0.03106 0.0
O54 O 0.38217 0.80102 0.93567 0.0
O55 O 0.36716 0.82254 0.95974 0.0
Co56 Co 0.19466 0.62282 0.00564 0.0
O57 O 0.18243 0.60102 0.00539 0.0
O58 O 0.20955 0.60462 0.98582 0.0
C59 C 0.18698 0.63044 0.06502 0.0
O60 O 0.21181 0.64313 0.0034 0.0
Co61 Co 0.17476 0.65784 0.01565 0.0
O62 O 0.19838 0.66689 0.02635 0.0
C63 C 0.1734 0.63918 0.94232 0.0
C64 C 0.19661 0.59412 0.9923 0.0
C65 C 0.21207 0.65894 0.01558 0.0
O66 O 0.18526 0.62846 0.95345 0.0
O67 O 0.16668 0.65073 0.96399 0.0
O68 O 0.19995 0.6199 0.0596 0.0
O69 O 0.17839 0.6347 0.03509 0.0
Co70 Co 0.37894 0.19512 0.00393 0.0
O71 O 0.40084 0.18314 0.00161 0.0
O72 O 0.39665 0.21041 0.98355 0.0
C73 C 0.37222 0.18683 0.06334 0.0
O74 O 0.35848 0.21207 0.00384 0.0
Co75 Co 0.34424 0.17483 0.0153 0.0
O76 O 0.33521 0.19827 0.02814 0.0
C77 C 0.36198 0.17424 0.94087 0.0
C78 C 0.40737 0.19753 0.98866 0.0
C79 C 0.34291 0.2121 0.01739 0.0
O80 O 0.37265 0.18618 0.95179 0.0
O81 O 0.3508 0.16717 0.96295 0.0
O82 O 0.38257 0.19996 0.05781 0.0
O83 O 0.36762 0.17844 0.03336 0.0
Co84 Co 0.80616 0.37869 0.00325 0.0
O85 O 0.81824 0.40054 0.00362 0.0
O86 O 0.79142 0.39677 0.9823 0.0
C87 C 0.81283 0.37119 0.0633 0.0
O88 O 0.78935 0.35819 0.0001 0.0
Co89 Co 0.8269 0.34425 0.01382 0.0
O90 O 0.80329 0.33447 0.02186 0.0
C91 C 0.82877 0.36309 0.94119 0.0
C92 C 0.80423 0.40734 0.98956 0.0
C93 C 0.78946 0.34222 0.01119 0.0
O94 O 0.81615 0.37304 0.9516 0.0
O95 O 0.83599 0.35199 0.96322 0.0
O96 O 0.79997 0.38168 0.05661 0.0
O97 O 0.82211 0.36704 0.03419 0.0
Co98 Co 0.62186 0.80518 0.00425 0.0
O99 O 0.60032 0.81773 0.00011 0.0
O100 O 0.60407 0.79028 0.98287 0.0
C101 C 0.62772 0.81368 0.06403 0.0
O102 O 0.64182 0.78764 0.00595 0.0
Co103 Co 0.65703 0.82423 0.01884 0.0
O104 O 0.66489 0.80058 0.03315 0.0
C105 C 0.64069 0.82534 0.94272 0.0
C106 C 0.5936 0.80343 0.98715 0.0
C107 C 0.65701 0.78704 0.02132 0.0
O108 O 0.6293 0.81383 0.95249 0.0
O109 O 0.65171 0.83189 0.96591 0.0
O110 O 0.61719 0.80074 0.05805 0.0
O111 O 0.63313 0.82166 0.03419 0.0
Co112 Co 0.69462 0.87871 0.48805 0.0
O113 O 0.68335 0.90097 0.49048 0.0
O114 O 0.7105 0.89597 0.50833 0.0
C115 C 0.68604 0.87229 0.42866 0.0
O116 O 0.71083 0.85764 0.48797 0.0
Co117 Co 0.67281 0.84487 0.47689 0.0
O118 O 0.6959 0.83457 0.46603 0.0
C119 C 0.67311 0.86258 0.55125 0.0
C120 C 0.69793 0.90708 0.50332 0.0
C121 C 0.71011 0.84181 0.47599 0.0
O122 O 0.68555 0.87268 0.54032 0.0
O123 O 0.66543 0.85185 0.52911 0.0
O124 O 0.6995 0.8822 0.43411 0.0
O125 O 0.67753 0.86801 0.45869 0.0
Co126 Co 0.12205 0.6942 0.49077 0.0
O127 O 0.10006 0.68238 0.49152 0.0
O128 O 0.10433 0.70923 0.51218 0.0
C129 C 0.1289 0.68707 0.43063 0.0
O130 O 0.14275 0.71091 0.49264 0.0
Co131 Co 0.15641 0.67344 0.4781 0.0
O132 O 0.1659 0.69698 0.46817 0.0
C133 C 0.13828 0.67157 0.55189 0.0
C134 C 0.09353 0.69655 0.50552 0.0
C135 C 0.15842 0.71082 0.47964 0.0
O136 O 0.12806 0.68413 0.54221 0.0
O137 O 0.14927 0.66465 0.52916 0.0
O138 O 0.11867 0.70016 0.4373 0.0
O139 O 0.13326 0.67801 0.45985 0.0
Co140 Co 0.30558 0.12317 0.48828 0.0
O141 O 0.31797 0.10149 0.49025 0.0
O142 O 0.29083 0.1052 0.50958 0.0
C143 C 0.31324 0.12978 0.42832 0.0
O144 O 0.28828 0.14336 0.48902 0.0
Co145 Co 0.32508 0.15822 0.47489 0.0
O146 O 0.30135 0.16679 0.46356 0.0
C147 C 0.32692 0.14078 0.54965 0.0
C148 C 0.30384 0.0947 0.50385 0.0
C149 C 0.28781 0.15891 0.47538 0.0
O150 O 0.315 0.12983 0.53988 0.0
O151 O 0.33348 0.15193 0.52676 0.0
O152 O 0.30031 0.11927 0.43453 0.0
O153 O 0.32173 0.13466 0.45792 0.0
Co154 Co 0.87807 0.30608 0.48828 0.0
O155 O 0.90024 0.31738 0.48458 0.0
O156 O 0.89631 0.29053 0.50556 0.0
C157 C 0.86858 0.31357 0.43 0.0
O158 O 0.8571 0.29004 0.49442 0.0
Co159 Co 0.84448 0.32872 0.48512 0.0
O160 O 0.83274 0.30575 0.48482 0.0
C161 C 0.86608 0.32889 0.55377 0.0
C162 C 0.90703 0.30307 0.49716 0.0
C163 C 0.84046 0.29134 0.49113 0.0
O164 O 0.8747 0.31571 0.54121 0.0
O165 O 0.85489 0.33716 0.53387 0.0
O166 O 0.87881 0.30028 0.43431 0.0
O167 O 0.86597 0.32275 0.46008 0.0
Co168 Co 0.6953 0.12148 0.50397 0.0
O169 O 0.68384 0.09934 0.50261 0.0
O170 O 0.71099 0.10387 0.48423 0.0
C171 C 0.68709 0.12846 0.56341 0.0
O172 O 0.71152 0.14252 0.50314 0.0
Co173 Co 0.67312 0.15515 0.51328 0.0
O174 O 0.69622 0.16571 0.52329 0.0
C175 C 0.67347 0.13664 0.44018 0.0
C176 C 0.69832 0.09294 0.48997 0.0
C177 C 0.71057 0.15849 0.51415 0.0
O178 O 0.68628 0.12714 0.45147 0.0
O179 O 0.66533 0.14724 0.46182 0.0
O180 O 0.7004 0.11839 0.55787 0.0
O181 O 0.67835 0.13245 0.53345 0.0
Co182 Co 0.87844 0.69528 0.50328 0.0
O183 O 0.90068 0.68405 0.50625 0.0
O184 O 0.89646 0.71071 0.48437 0.0
C185 C 0.8696 0.68829 0.56232 0.0
O186 O 0.85736 0.71121 0.49752 0.0
Co187 Co 0.84492 0.6726 0.50924 0.0
O188 O 0.83314 0.69555 0.50909 0.0
C189 C 0.86587 0.67174 0.43962 0.0
C190 C 0.90728 0.69825 0.49261 0.0
C191 C 0.84076 0.7099 0.50172 0.0
O192 O 0.87454 0.68511 0.45099 0.0
O193 O 0.85492 0.66365 0.46051 0.0
O194 O 0.87975 0.70157 0.55692 0.0
O195 O 0.86669 0.67884 0.53279 0.0
Co196 Co 0.30528 0.87918 0.50515 0.0
O197 O 0.31706 0.90117 0.50749 0.0
O198 O 0.29008 0.89753 0.48705 0.0
C199 C 0.31277 0.87019 0.56382 0.0
O200 O 0.28877 0.85851 0.50023 0.0
Co201 Co 0.32718 0.84512 0.50991 0.0
O202 O 0.304 0.83379 0.5094 0.0
C203 C 0.32776 0.866 0.44023 0.0
C204 C 0.30286 0.90809 0.49463 0.0
C205 C 0.28976 0.84184 0.50334 0.0
O206 O 0.31473 0.875 0.45229 0.0
O207 O 0.33584 0.85491 0.46076 0.0
O208 O 0.29967 0.88065 0.55919 0.0
O209 O 0.32176 0.86704 0.53374 0.0
Co210 Co 0.12156 0.30603 0.50425 0.0
O211 O 0.09939 0.31751 0.50228 0.0
O212 O 0.10408 0.29022 0.48487 0.0
C213 C 0.12866 0.31476 0.56325 0.0
O214 O 0.14239 0.28961 0.5039 0.0
Co215 Co 0.15571 0.32749 0.51298 0.0
O216 O 0.16586 0.30432 0.52443 0.0
C217 C 0.13689 0.32741 0.44016 0.0
C218 C 0.09312 0.30292 0.48977 0.0
C219 C 0.15828 0.29016 0.51535 0.0
O220 O 0.12729 0.31468 0.4515 0.0
O221 O 0.14768 0.33538 0.46168 0.0
O222 O 0.11847 0.30146 0.55844 0.0
O223 O 0.13275 0.32313 0.53286 0.0
C224 C 0.21453 0.56692 0.98612 0.0
C225 C 0.19818 0.57502 0.9886 0.0
C226 C 0.21592 0.54876 0.98817 0.0
C227 C 0.19128 0.51084 0.02438 0.0
H228 H 0.22336 0.48346 0.96417 0.0
C229 C 0.18451 0.43701 0.00662 0.0
C230 C 0.19956 0.42666 0.0071 0.0
C231 C 0.18572 0.4551 0.00742 0.0
C232 C 0.21452 0.49098 0.98158 0.0
H233 H 0.17042 0.57043 0.99276 0.0
H234 H 0.17277 0.53893 0.99528 0.0
H235 H 0.22271 0.51512 0.95683 0.0
H236 H 0.22772 0.42716 0.00955 0.0
H237 H 0.22986 0.45903 0.01073 0.0
H238 H 0.18282 0.48676 0.04852 0.0
C239 C 0.18459 0.54652 0.99299 0.0
C240 C 0.21413 0.50911 0.97733 0.0
C241 C 0.18323 0.5646 0.99119 0.0
C242 C 0.21589 0.43482 0.00934 0.0
C243 C 0.21712 0.45302 0.0097 0.0
C244 C 0.19162 0.49279 0.02847 0.0
C245 C 0.20096 0.53838 0.99259 0.0
C246 C 0.20226 0.51922 -0.00179 0.0
C247 C 0.20203 0.46334 0.0084 0.0
C248 C 0.20303 0.48262 0.0067 0.0
H249 H 0.22629 0.57463 0.98424 0.0
H250 H 0.22873 0.54291 0.98782 0.0
H251 H 0.18231 0.51824 0.04171 0.0
H252 H 0.17173 0.43112 0.00486 0.0
H253 H 0.17385 0.46267 0.00601 0.0
C254 C 0.4369 0.18441 0.98323 0.0
C255 C 0.42635 0.19932 0.98317 0.0
C256 C 0.45497 0.1859 0.98239 0.0
C257 C 0.49029 0.21527 0.00907 0.0
H258 H 0.51827 0.18332 0.94984 0.0
C259 C 0.5663 0.21571 0.0065 0.0
C260 C 0.57439 0.19932 0.00508 0.0
C261 C 0.54816 0.21708 0.00382 0.0
C262 C 0.51066 0.19223 0.96687 0.0
H263 H 0.42644 0.22751 0.98125 0.0
H264 H 0.45823 0.23012 0.97994 0.0
H265 H 0.48683 0.1835 0.94204 0.0
H266 H 0.56979 0.17152 0.00222 0.0
H267 H 0.53834 0.17387 -0.00156 0.0
H268 H 0.5142 0.22374 0.03445 0.0
C269 C 0.45242 0.21729 0.98073 0.0
C270 C 0.49264 0.19238 0.96224 0.0
C271 C 0.43426 0.21579 0.98116 0.0
C272 C 0.56397 0.18435 0.00298 0.0
C273 C 0.54593 0.1857 0.00047 0.0
C274 C 0.50839 0.21509 0.01381 0.0
C275 C 0.46296 0.20234 0.98176 0.0
C276 C 0.48222 0.20365 0.98378 0.0
C277 C 0.53782 0.20208 -0.00026 0.0
C278 C 0.51873 0.2033 0.9933 0.0
H279 H 0.4312 0.17154 0.9848 0.0
H280 H 0.46271 0.17414 0.98359 0.0
H281 H 0.48258 0.22401 0.0263 0.0
H282 H 0.57401 0.22749 0.00799 0.0
H283 H 0.5423 0.22989 0.00335 0.0
C284 C 0.78634 0.43455 0.98315 0.0
C285 C 0.80267 0.42643 0.98574 0.0
C286 C 0.78499 0.45272 0.98546 0.0
C287 C 0.80963 0.49039 0.02276 0.0
H288 H 0.77794 0.51816 0.96247 0.0
C289 C 0.81693 0.56422 0.00574 0.0
C290 C 0.80193 0.57464 0.00637 0.0
C291 C 0.81562 0.54613 0.00638 0.0
C292 C 0.78666 0.51053 0.97989 0.0
H293 H 0.83043 0.43096 0.99025 0.0
H294 H 0.82814 0.46244 0.99319 0.0
H295 H 0.77842 0.48652 0.95462 0.0
H296 H 0.77377 0.57429 0.0089 0.0
H297 H 0.77145 0.54244 0.0097 0.0
H298 H 0.81816 0.51435 0.04739 0.0
C299 C 0.81631 0.45488 0.99064 0.0
C300 C 0.78696 0.49242 0.97536 0.0
C301 C 0.81764 0.43681 0.9886 0.0
C302 C 0.78555 0.56657 0.00857 0.0
C303 C 0.78422 0.54838 0.00872 0.0
C304 C 0.80939 0.50843 0.02712 0.0
C305 C 0.79995 0.46304 0.99024 0.0
C306 C 0.7987 0.48218 -0.00375 0.0
C307 C 0.79926 0.53799 0.00728 0.0
C308 C 0.79812 0.51873 0.00531 0.0
H309 H 0.77457 0.42686 0.98107 0.0
H310 H 0.77219 0.45859 0.98507 0.0
H311 H 0.81849 0.48288 0.04011 0.0
H312 H 0.82974 0.57005 0.00404 0.0
H313 H 0.82743 0.53849 0.00488 0.0
C314 C 0.56646 0.78558 0.9795 0.0
C315 C 0.5746 0.80194 0.98139 0.0
C316 C 0.54828 0.78432 0.97946 0.0
C317 C 0.50818 0.80976 0.96269 0.0
H318 H 0.48692 0.77824 0.03498 0.0
C319 C 0.43692 0.81766 0.0047 0.0
C320 C 0.42657 0.80264 0.00692 0.0
C321 C 0.45497 0.81637 0.00199 0.0
C322 C 0.49263 0.78695 0.01433 0.0
H323 H 0.57014 0.82978 0.98305 0.0
H324 H 0.53858 0.8276 0.98254 0.0
H325 H 0.51846 0.77781 0.02582 0.0
H326 H 0.42706 0.77448 0.00986 0.0
H327 H 0.45875 0.77219 0.00481 0.0
H328 H 0.48253 0.819 0.95124 0.0
C329 C 0.54615 0.81574 0.98113 0.0
C330 C 0.51069 0.78668 0.00901 0.0
C331 C 0.56425 0.81699 0.98156 0.0
C332 C 0.43472 0.78629 0.0083 0.0
C333 C 0.45286 0.78499 0.00538 0.0
C334 C 0.4902 0.80999 0.96789 0.0
C335 C 0.53794 0.7994 0.98081 0.0
C336 C 0.51868 0.79832 0.98362 0.0
C337 C 0.46314 0.80002 0.00114 0.0
C338 C 0.48222 0.79885 0.99432 0.0
H339 H 0.57411 0.77375 0.97951 0.0
H340 H 0.5423 0.77156 0.97883 0.0
H341 H 0.51391 0.81867 0.94244 0.0
H342 H 0.43105 0.83046 0.00397 0.0
H343 H 0.46251 0.82823 -0.00013 0.0
C344 C 0.68563 0.06318 0.48809 0.0
C345 C 0.70041 0.07388 0.48625 0.0
C346 C 0.68731 0.04518 0.49074 0.0
C347 C 0.71692 0.00793 0.47802 0.0
H348 H 0.68583 0.98661 0.55115 0.0
C349 C 0.71684 0.93359 0.51018 0.0
C350 C 0.70021 0.92601 0.50888 0.0
C351 C 0.71871 0.95174 0.51066 0.0
C352 C 0.69458 0.99235 0.53058 0.0
H353 H 0.72858 0.07403 0.48373 0.0
H354 H 0.73154 0.04231 0.48848 0.0
H355 H 0.68567 0.01803 0.54301 0.0
H356 H 0.67254 0.93142 0.50852 0.0
H357 H 0.67576 0.96286 0.50979 0.0
H358 H 0.72561 0.98204 0.46532 0.0
C359 C 0.71864 0.04796 0.48781 0.0
C360 C 0.69446 0.01035 0.52579 0.0
C361 C 0.71695 0.0661 0.48503 0.0
C362 C 0.68553 0.93686 0.50954 0.0
C363 C 0.68738 0.9549 0.51043 0.0
C364 C 0.71706 0.98983 0.48286 0.0
C365 C 0.70382 0.03737 0.49184 0.0
C366 C 0.70529 0.01834 0.49879 0.0
C367 C 0.70397 0.96258 0.51041 0.0
C368 C 0.70558 0.98183 0.50858 0.0
H369 H 0.67269 0.06876 0.48864 0.0
H370 H 0.67562 0.03737 0.49271 0.0
H371 H 0.72542 0.0137 0.45699 0.0
H372 H 0.7284 0.92553 0.50949 0.0
H373 H 0.73165 0.9573 0.5109 0.0
C374 C 0.93686 0.68517 0.48994 0.0
C375 C 0.92635 0.70009 0.48874 0.0
C376 C 0.95493 0.68659 0.48967 0.0
C377 C 0.99055 0.71558 0.51564 0.0
H378 H 0.01794 0.68349 0.45545 0.0
C379 C 0.06663 0.7149 0.51217 0.0
C380 C 0.07448 0.69842 0.50972 0.0
C381 C 0.04848 0.71655 0.51 0.0
C382 C 0.0105 0.69243 0.47278 0.0
H383 H 0.92652 0.72826 0.48585 0.0
H384 H 0.95839 0.73076 0.48572 0.0
H385 H 0.98649 0.68408 0.44817 0.0
H386 H 0.06949 0.67072 0.50569 0.0
H387 H 0.03805 0.67353 0.50296 0.0
H388 H 0.01464 0.72363 0.54088 0.0
C389 C 0.95252 0.71796 0.48681 0.0
C390 C 0.99248 0.69282 0.46841 0.0
C391 C 0.93432 0.71653 0.48658 0.0
C392 C 0.06385 0.68362 0.50722 0.0
C393 C 0.04581 0.68524 0.5053 0.0
C394 C 0.00866 0.71513 0.52016 0.0
C395 C 0.96299 0.70298 0.48854 0.0
C396 C 0.98226 0.70414 0.49029 0.0
C397 C 0.03791 0.70173 0.50547 0.0
C398 C 0.0188 0.70326 0.49933 0.0
H399 H 0.93112 0.67232 0.49165 0.0
H400 H 0.96262 0.67481 0.49144 0.0
H401 H 0.98298 0.72436 0.53307 0.0
H402 H 0.07451 0.72655 0.51397 0.0
H403 H 0.04281 0.72944 0.51024 0.0
C404 C 0.31739 0.06531 0.50716 0.0
C405 C 0.30236 0.07565 0.50869 0.0
C406 C 0.31614 0.04721 0.50606 0.0
C407 C 0.28659 0.0097 0.52127 0.0
H408 H 0.31857 0.98723 0.4517 0.0
C409 C 0.28503 0.93538 0.48835 0.0
C410 C 0.30134 0.9272 0.491 0.0
C411 C 0.28384 0.95359 0.48861 0.0
C412 C 0.30958 0.9933 0.47132 0.0
H413 H 0.27422 0.07513 0.51198 0.0
H414 H 0.27198 0.04337 0.50956 0.0
H415 H 0.31899 0.01873 0.4582 0.0
H416 H 0.32914 0.93162 0.49489 0.0
H417 H 0.32707 0.96317 0.49484 0.0
H418 H 0.27723 0.98406 0.53423 0.0
C419 C 0.28476 0.04929 0.50954 0.0
C420 C 0.30988 0.01136 0.47524 0.0
C421 C 0.28604 0.06748 0.51093 0.0
C422 C 0.31639 0.93752 0.49279 0.0
C423 C 0.31521 0.95562 0.4926 0.0
C424 C 0.28624 0.99156 0.51718 0.0
C425 C 0.2998 0.03897 0.50606 0.0
C426 C 0.29864 0.01978 0.5008 0.0
C427 C 0.29893 0.96388 0.49094 0.0
C428 C 0.29796 0.98317 0.49265 0.0
H429 H 0.33017 0.07121 0.50581 0.0
H430 H 0.32801 0.03967 0.5045 0.0
H431 H 0.2778 0.01575 0.5413 0.0
H432 H 0.27321 0.92774 0.48713 0.0
H433 H 0.27113 0.95962 0.48706 0.0
C434 C 0.06348 0.31557 0.48252 0.0
C435 C 0.07421 0.30081 0.48391 0.0
C436 C 0.04544 0.31384 0.48058 0.0
C437 C 0.01003 0.28469 0.50682 0.0
H438 H 0.98282 0.31504 0.44217 0.0
C439 C 0.93401 0.28466 0.50226 0.0
C440 C 0.92614 0.3011 0.49904 0.0
C441 C 0.95213 0.28297 0.49944 0.0
C442 C 0.99021 0.30657 0.46066 0.0
H443 H 0.07449 0.27261 0.48367 0.0
H444 H 0.04274 0.26956 0.48064 0.0
H445 H 0.01438 0.31488 0.43666 0.0
H446 H 0.93112 0.32871 0.49241 0.0
H447 H 0.96249 0.32583 0.48842 0.0
H448 H 0.98581 0.27674 0.53157 0.0
C449 C 0.04839 0.28247 0.48102 0.0
C450 C 0.00829 0.30643 0.45735 0.0
C451 C 0.06653 0.28422 0.48247 0.0
C452 C 0.93675 0.31583 0.49458 0.0
C453 C 0.95475 0.31416 0.49196 0.0
C454 C 0.99187 0.28489 0.5103 0.0
C455 C 0.03767 0.29729 0.48036 0.0
C456 C 0.01843 0.29577 0.48091 0.0
C457 C 0.96267 0.2977 0.49342 0.0
C458 C 0.98179 0.29615 0.48784 0.0
H459 H 0.069 0.32853 0.4836 0.0
H460 H 0.03754 0.3255 0.4805 0.0
H461 H 0.01753 0.27642 0.52554 0.0
H462 H 0.92614 0.27307 0.5056 0.0
H463 H 0.95783 0.2701 0.50068 0.0
C464 C 0.22926 0.31625 0.95974 0.0
C465 C 0.22851 0.33209 0.97956 0.0
C466 C 0.24358 0.30528 0.96347 0.0
C467 C 0.26688 0.27938 0.00134 0.0
H468 H 0.31546 0.29291 0.00302 0.0
C469 C 0.31843 0.22992 0.04273 0.0
C470 C 0.3329 0.22855 0.01861 0.0
C471 C 0.3075 0.24435 0.04089 0.0
C472 C 0.30194 0.28897 0.00252 0.0
H473 H 0.24273 0.3493 0.01717 0.0
H474 H 0.26781 0.32986 0.02412 0.0
H475 H 0.29296 0.31494 0.9912 0.0
H476 H 0.34789 0.24179 0.97526 0.0
H477 H 0.32845 0.26697 0.97141 0.0
H478 H 0.27558 0.2535 0.0118 0.0
C479 C 0.25727 0.32605 0.00553 0.0
C480 C 0.28908 0.30158 0.99604 0.0
C481 C 0.24289 0.33714 0.00163 0.0
C482 C 0.33679 0.24245 0.99412 0.0
C483 C 0.3257 0.2569 0.99203 0.0
C484 C 0.27962 0.26688 0.00789 0.0
C485 C 0.2575 0.30977 0.98732 0.0
C486 C 0.27141 0.29684 0.99502 0.0
C487 C 0.31063 0.25771 0.01458 0.0
C488 C 0.29731 0.27147 0.00856 0.0
H489 H 0.21858 0.31209 0.94189 0.0
H490 H 0.24356 0.29303 0.94828 0.0
H491 H 0.25338 0.27532 0.00136 0.0
H492 H 0.31527 0.2196 0.06248 0.0
H493 H 0.29627 0.24479 0.0594 0.0
C494 C 0.75882 0.33714 0.98804 0.0
C495 C 0.77317 0.33189 0.01001 0.0
C496 C 0.74435 0.32617 0.98395 0.0
C497 C 0.71233 0.30184 0.99376 0.0
H498 H 0.72548 0.25377 0.97677 0.0
C499 C 0.66446 0.24287 -0.00207 0.0
C500 C 0.66814 0.22885 0.97363 0.0
C501 C 0.67557 0.25734 -0.0008 0.0
C502 C 0.72152 0.26715 0.98098 0.0
H503 H 0.78295 0.31165 0.04725 0.0
H504 H 0.75784 0.2928 0.04045 0.0
H505 H 0.74785 0.27547 0.98658 0.0
H506 H 0.68533 0.21968 0.92918 0.0
H507 H 0.70433 0.24494 0.9307 0.0
H508 H 0.68585 0.29329 0.9878 0.0
C509 C 0.75791 0.30512 0.02553 0.0
C510 C 0.73438 0.27957 0.98717 0.0
C511 C 0.7723 0.31597 0.02948 0.0
C512 C 0.68237 0.23011 0.94881 0.0
C513 C 0.69328 0.24457 0.94976 0.0
C514 C 0.69935 0.2893 0.98762 0.0
C515 C 0.74401 0.30982 0.00183 0.0
C516 C 0.72998 0.29702 0.99404 0.0
C517 C 0.69043 0.25806 0.97594 0.0
C518 C 0.70385 0.27179 0.98121 0.0
H519 H 0.75906 0.34937 0.97281 0.0
H520 H 0.73382 0.33013 0.96551 0.0
H521 H 0.70856 0.3152 -0.00098 0.0
H522 H 0.65355 0.24228 0.0173 0.0
H523 H 0.67302 0.26749 0.01973 0.0
C524 C 0.77227 0.68571 0.96521 0.0
C525 C 0.77289 0.66922 0.98233 0.0
C526 C 0.75773 0.69634 0.96948 0.0
C527 C 0.73317 0.72045 0.00935 0.0
H528 H 0.68485 0.70637 0.00179 0.0
C529 C 0.67998 0.76821 0.04953 0.0
C530 C 0.66654 0.77034 0.02299 0.0
C531 C 0.69089 0.75375 0.0479 0.0
C532 C 0.6983 0.71046 0.00395 0.0
H533 H 0.7582 0.65057 0.01564 0.0
H534 H 0.73272 0.66938 0.02346 0.0
H535 H 0.70802 0.68507 0.98955 0.0
H536 H 0.65321 0.75837 0.97555 0.0
H537 H 0.67265 0.73317 0.97208 0.0
H538 H 0.72377 0.74577 0.02284 0.0
C539 C 0.74356 0.67398 0.00662 0.0
C540 C 0.71153 0.69826 -0.00279 0.0
C541 C 0.75818 0.66324 0.00224 0.0
C542 C 0.6635 0.75709 -0.00369 0.0
C543 C 0.6746 0.74264 0.99441 0.0
C544 C 0.72006 0.73252 0.01619 0.0
C545 C 0.74342 0.69083 0.99112 0.0
C546 C 0.72911 0.70323 -0.00059 0.0
C547 C 0.6888 0.74117 0.01937 0.0
C548 C 0.70246 0.72774 0.01349 0.0
H549 H 0.7832 0.69063 0.94907 0.0
H550 H 0.75784 0.7091 0.95642 0.0
H551 H 0.74658 0.72464 0.01187 0.0
H552 H 0.68243 0.77802 0.07093 0.0
H553 H 0.70141 0.75277 0.06821 0.0
C554 C 0.22979 0.68441 0.03623 0.0
C555 C 0.22855 0.66895 0.01515 0.0
C556 C 0.24423 0.69523 0.03261 0.0
C557 C 0.2671 0.72143 0.99446 0.0
H558 H 0.31566 0.70794 0.99041 0.0
C559 C 0.31825 0.77125 0.95289 0.0
C560 C 0.33284 0.77256 0.97668 0.0
C561 C 0.3074 0.75675 0.95458 0.0
C562 C 0.30214 0.71187 0.99156 0.0
H563 H 0.24209 0.65216 0.97552 0.0
H564 H 0.26742 0.67135 0.96881 0.0
H565 H 0.29322 0.68579 0.0021 0.0
H566 H 0.34812 0.75914 0.01923 0.0
H567 H 0.32881 0.73381 0.02284 0.0
H568 H 0.27573 0.74739 0.98471 0.0
C569 C 0.25714 0.67498 0.98825 0.0
C570 C 0.28932 0.69919 -0.00202 0.0
C571 C 0.24263 0.66403 0.99202 0.0
C572 C 0.33692 0.75853 0.00066 0.0
C573 C 0.32591 0.744 0.00261 0.0
C574 C 0.2798 0.73398 0.98793 0.0
C575 C 0.25779 0.69096 0.00764 0.0
C576 C 0.27167 0.70392 -0.00012 0.0
C577 C 0.31072 0.74324 0.98042 0.0
C578 C 0.29747 0.72941 0.98642 0.0
H579 H 0.21936 0.68844 0.05492 0.0
H580 H 0.24455 0.70724 0.04866 0.0
H581 H 0.25361 0.72548 0.99515 0.0
H582 H 0.31494 0.78167 0.93351 0.0
H583 H 0.29607 0.75636 0.93636 0.0
C584 C 0.81226 0.72339 0.48603 0.0
C585 C 0.82966 0.72549 0.49714 0.0
C586 C 0.80116 0.73765 0.48369 0.0
C587 C 0.7989 0.78569 0.47896 0.0
H588 H 0.75179 0.77666 0.51304 0.0
C589 C 0.74175 0.83673 0.49208 0.0
C590 C 0.72609 0.83096 0.47559 0.0
C591 C 0.75612 0.82553 0.49469 0.0
C592 C 0.76489 0.77938 0.50342 0.0
H593 H 0.84927 0.74434 0.51333 0.0
H594 H 0.82957 0.76946 0.5102 0.0
H595 H 0.77366 0.75405 0.51876 0.0
H596 H 0.71375 0.80923 0.44673 0.0
H597 H 0.73856 0.78991 0.45166 0.0
H598 H 0.7898 0.81126 0.46395 0.0
C599 C 0.82463 0.7567 0.50286 0.0
C600 C 0.77743 0.7664 0.50648 0.0
C601 C 0.83589 0.74234 0.50474 0.0
C602 C 0.72544 0.81409 0.4602 0.0
C603 C 0.73966 0.80296 0.463 0.0
C604 C 0.78628 0.79884 0.47624 0.0
C605 C 0.80703 0.75443 0.49301 0.0
C606 C 0.79446 0.76916 0.49324 0.0
C607 C 0.75498 0.80839 0.48105 0.0
C608 C 0.76906 0.79557 0.48751 0.0
H609 H 0.80713 0.71064 0.47917 0.0
H610 H 0.78786 0.73545 0.47475 0.0
H611 H 0.8119 0.78825 0.46857 0.0
H612 H 0.74274 0.84967 0.50405 0.0
H613 H 0.76784 0.83 0.5087 0.0
C614 C 0.25772 0.83641 0.51261 0.0
C615 C 0.27397 0.83115 0.49839 0.0
C616 C 0.24337 0.82512 0.51073 0.0
C617 C 0.2344 0.77796 0.50097 0.0
H618 H 0.18689 0.79174 0.4795 0.0
C619 C 0.18431 0.72773 0.45823 0.0
C620 C 0.16879 0.7271 0.47929 0.0
C621 C 0.19531 0.74206 0.46063 0.0
C622 C 0.20009 0.78779 0.48585 0.0
H623 H 0.28768 0.8107 0.46853 0.0
H624 H 0.26276 0.79148 0.46382 0.0
H625 H 0.20983 0.81398 0.48326 0.0
H626 H 0.15217 0.74163 0.5176 0.0
H627 H 0.17168 0.76691 0.52183 0.0
H628 H 0.22492 0.75187 0.50261 0.0
C629 C 0.26111 0.80387 0.47801 0.0
C630 C 0.2132 0.80049 0.48807 0.0
C631 C 0.2754 0.81492 0.48049 0.0
C632 C 0.16407 0.74167 0.50118 0.0
C633 C 0.17518 0.75614 0.50355 0.0
C634 C 0.22144 0.76539 0.4984 0.0
C635 C 0.24506 0.80853 0.49416 0.0
C636 C 0.2306 0.79563 0.49476 0.0
C637 C 0.19114 0.75619 0.48411 0.0
C638 C 0.20424 0.77009 0.49002 0.0
H639 H 0.25631 0.84889 0.52652 0.0
H640 H 0.23119 0.82913 0.52342 0.0
H641 H 0.24751 0.77376 0.50746 0.0
H642 H 0.18821 0.71693 0.44045 0.0
H643 H 0.20737 0.74192 0.44473 0.0
C644 C 0.25788 0.16482 0.50138 0.0
C645 C 0.27128 0.16878 0.47564 0.0
C646 C 0.24353 0.17596 0.50514 0.0
C647 C 0.21135 0.20003 0.49706 0.0
H648 H 0.22548 0.24846 0.49877 0.0
C649 C 0.16367 0.25918 0.49532 0.0
C650 C 0.16869 0.27394 0.51623 0.0
C651 C 0.17469 0.2447 0.49291 0.0
C652 C 0.22129 0.23501 0.49878 0.0
H653 H 0.27936 0.18658 0.43127 0.0
H654 H 0.25437 0.20569 0.43737 0.0
H655 H 0.24704 0.22606 0.48773 0.0
H656 H 0.18852 0.28447 0.5535 0.0
H657 H 0.20747 0.25926 0.54978 0.0
H658 H 0.18549 0.20922 0.50866 0.0
C659 C 0.25514 0.19434 0.45549 0.0
C660 C 0.23363 0.22215 0.49188 0.0
C661 C 0.26945 0.18335 0.45194 0.0
C662 C 0.18441 0.27348 0.5365 0.0
C663 C 0.19531 0.25903 0.53431 0.0
C664 C 0.19889 0.21299 0.50389 0.0
C665 C 0.24235 0.19116 0.48308 0.0
C666 C 0.22884 0.20453 0.49068 0.0
C667 C 0.19087 0.2447 0.51153 0.0
C668 C 0.20377 0.23064 0.50491 0.0
H669 H 0.2589 0.15365 0.51996 0.0
H670 H 0.23387 0.17316 0.52663 0.0
H671 H 0.20727 0.18654 0.49627 0.0
H672 H 0.1516 0.2591 0.47949 0.0
H673 H 0.17092 0.23387 0.47506 0.0
C674 C 0.83568 0.25893 0.48682 0.0
C675 C 0.82945 0.27567 0.49549 0.0
C676 C 0.82449 0.2445 0.4885 0.0
C677 C 0.77734 0.23466 0.48604 0.0
H678 H 0.7901 0.18941 0.52596 0.0
C679 C 0.72568 0.18625 0.53052 0.0
C680 C 0.72646 0.16947 0.51471 0.0
C681 C 0.73982 0.19749 0.52804 0.0
C682 C 0.78647 0.20195 0.51439 0.0
H683 H 0.80705 0.29024 0.51514 0.0
H684 H 0.7879 0.26529 0.51917 0.0
H685 H 0.8121 0.21257 0.52189 0.0
H686 H 0.74323 0.15104 0.48579 0.0
H687 H 0.76819 0.17093 0.4816 0.0
H688 H 0.75171 0.22436 0.47958 0.0
C689 C 0.80113 0.26325 0.50959 0.0
C690 C 0.79903 0.21518 0.51199 0.0
C691 C 0.81215 0.27758 0.50746 0.0
C692 C 0.74216 0.1639 0.49808 0.0
C693 C 0.75645 0.17524 0.49575 0.0
C694 C 0.76487 0.22159 0.48876 0.0
C695 C 0.80697 0.2466 0.4992 0.0
C696 C 0.79445 0.23183 0.49866 0.0
C697 C 0.75518 0.19229 0.50983 0.0
C698 C 0.76917 0.20525 0.50374 0.0
H699 H 0.84898 0.25708 0.47756 0.0
H700 H 0.8294 0.23184 0.48033 0.0
H701 H 0.77346 0.24712 0.47449 0.0
H702 H 0.71396 0.19093 0.54416 0.0
H703 H 0.73863 0.21046 0.53978 0.0
C704 C 0.13923 0.35022 0.39026 0.0
C705 C 0.13635 0.33275 0.39999 0.0
C706 C 0.14088 0.35517 0.35237 0.0
C707 C 0.13575 0.33912 0.25275 0.0
H708 H 0.16957 0.37535 0.23239 0.0
C709 C 0.15057 0.35994 0.09967 0.0
C710 C 0.16791 0.36385 0.09053 0.0
C711 C 0.1454 0.35821 0.13741 0.0
C712 C 0.16021 0.36509 0.23741 0.0
H713 H 0.13248 0.30679 0.37782 0.0
H714 H 0.13615 0.31518 0.31164 0.0
H715 H 0.16294 0.36758 0.29731 0.0
H716 H 0.19338 0.36945 0.11365 0.0
H717 H 0.18464 0.36568 0.17955 0.0
H718 H 0.13394 0.33577 0.19286 0.0
C719 C 0.13661 0.32525 0.33306 0.0
C720 C 0.15613 0.36081 0.27487 0.0
C721 C 0.13456 0.32038 0.37103 0.0
C722 C 0.17989 0.36657 0.11993 0.0
C723 C 0.17481 0.36445 0.15776 0.0
C724 C 0.14006 0.34318 0.21529 0.0
C725 C 0.14014 0.34269 0.32323 0.0
C726 C 0.14388 0.34772 0.28314 0.0
C727 C 0.15755 0.35992 0.16701 0.0
C728 C 0.15242 0.35618 0.20703 0.0
H729 H 0.14046 0.36007 0.41208 0.0
H730 H 0.14301 0.36879 0.34607 0.0
H731 H 0.12607 0.32916 0.25776 0.0
H732 H 0.14101 0.35799 0.07752 0.0
H733 H 0.1319 0.35526 0.14326 0.0
C734 C 0.68113 0.13484 0.3713 0.0
C735 C 0.66846 0.13644 0.39977 0.0
C736 C 0.67667 0.13746 0.33325 0.0
C737 C 0.64169 0.1369 0.26419 0.0
H738 H 0.6657 0.17524 0.21531 0.0
C739 C 0.64156 0.15229 0.10282 0.0
C740 C 0.63772 0.16956 0.09273 0.0
C741 C 0.64334 0.14759 0.14084 0.0
C742 C 0.65886 0.16456 0.22873 0.0
H743 H 0.64108 0.14095 0.41076 0.0
H744 H 0.63323 0.14485 0.3441 0.0
H745 H 0.67367 0.16679 0.28 0.0
H746 H 0.63229 0.19536 0.11444 0.0
H747 H 0.63602 0.1872 0.18125 0.0
H748 H 0.62721 0.13439 0.21242 0.0
C749 C 0.6466 0.14188 0.35131 0.0
C750 C 0.66353 0.15963 0.26546 0.0
C751 C 0.65111 0.13969 0.38935 0.0
C752 C 0.63516 0.18195 0.12147 0.0
C753 C 0.63738 0.17732 0.15956 0.0
C754 C 0.6373 0.14157 0.22707 0.0
C755 C 0.65942 0.14126 0.32306 0.0
C756 C 0.65495 0.1458 0.28352 0.0
C757 C 0.64172 0.16015 0.16945 0.0
C758 C 0.64579 0.15552 0.20916 0.0
H759 H 0.6946 0.13246 0.37857 0.0
H760 H 0.68675 0.13686 0.31182 0.0
H761 H 0.63488 0.12623 0.27768 0.0
H762 H 0.64353 0.14247 0.08121 0.0
H763 H 0.64676 0.13429 0.14781 0.0
C764 C 0.86922 0.67846 0.37061 0.0
C765 C 0.86722 0.66616 0.39966 0.0
C766 C 0.86742 0.6735 0.33264 0.0
C767 C 0.84767 0.63809 0.27465 0.0
H768 H 0.86957 0.66331 0.19251 0.0
C769 C 0.82254 0.63376 0.12051 0.0
C770 C 0.83428 0.63657 0.09071 0.0
C771 C 0.82798 0.63548 0.1582 0.0
C772 C 0.86353 0.65585 0.21495 0.0
H773 H 0.86312 0.63886 0.41189 0.0
H774 H 0.86099 0.62999 0.34584 0.0
H775 H 0.87795 0.66952 0.2573 0.0
H776 H 0.86115 0.64215 0.07676 0.0
H777 H 0.87089 0.64417 0.14217 0.0
H778 H 0.83376 0.62394 0.23226 0.0
C779 C 0.86311 0.64362 0.3521 0.0
C780 C 0.86814 0.65967 0.25236 0.0
C781 C 0.86452 0.64865 0.39001 0.0
C782 C 0.85176 0.64014 0.09924 0.0
C783 C 0.85729 0.64147 0.13682 0.0
C784 C 0.84328 0.63406 0.23722 0.0
C785 C 0.86392 0.65605 0.32288 0.0
C786 C 0.86008 0.65105 0.28282 0.0
C787 C 0.8454 0.63968 0.16688 0.0
C788 C 0.85094 0.64306 0.2068 0.0
H789 H 0.87115 0.69209 0.37728 0.0
H790 H 0.86795 0.68354 0.31118 0.0
H791 H 0.84093 0.63131 0.29716 0.0
H792 H 0.80895 0.63113 0.11471 0.0
H793 H 0.81834 0.6342 0.18037 0.0
C794 C 0.32004 0.86869 0.37159 0.0
C795 C 0.33278 0.86698 0.39987 0.0
C796 C 0.3244 0.86627 0.33342 0.0
C797 C 0.35914 0.86668 0.2636 0.0
H798 H 0.33495 0.82811 0.21596 0.0
C799 C 0.35885 0.85027 0.10249 0.0
C800 C 0.36286 0.83297 0.09296 0.0
C801 C 0.35706 0.85524 0.14038 0.0
C802 C 0.34183 0.83886 0.22901 0.0
H803 H 0.3602 0.86258 0.4104 0.0
H804 H 0.36791 0.85905 0.34354 0.0
H805 H 0.32721 0.83688 0.28058 0.0
H806 H 0.36853 0.80738 0.11554 0.0
H807 H 0.36479 0.816 0.18208 0.0
H808 H 0.37346 0.86891 0.21151 0.0
C809 C 0.35455 0.86195 0.35097 0.0
C810 C 0.33729 0.84397 0.26571 0.0
C811 C 0.35013 0.86395 0.38914 0.0
C812 C 0.36554 0.82082 0.12212 0.0
C813 C 0.36331 0.82571 0.16006 0.0
C814 C 0.3634 0.86182 0.22648 0.0
C815 C 0.34164 0.86255 0.32293 0.0
C816 C 0.34594 0.85788 0.28335 0.0
C817 C 0.35884 0.84291 0.16941 0.0
C818 C 0.35485 0.84779 0.20903 0.0
H819 H 0.30655 0.87087 0.37909 0.0
H820 H 0.31425 0.86684 0.31217 0.0
H821 H 0.36602 0.87739 0.27675 0.0
H822 H 0.35677 0.85992 0.08056 0.0
H823 H 0.35354 0.86855 0.14692 0.0
C824 C 0.1475 0.6499 0.60068 0.0
C825 C 0.13822 0.66511 0.5915 0.0
C826 C 0.1492 0.64455 0.63822 0.0
C827 C 0.13201 0.64999 0.73509 0.0
H828 H 0.17926 0.63862 0.7647 0.0
C829 C 0.15469 0.65072 0.89008 0.0
C830 C 0.16745 0.63885 0.9023 0.0
C831 C 0.14967 0.65144 0.85218 0.0
C832 C 0.16592 0.64139 0.75687 0.0
H833 H 0.12269 0.68613 0.61468 0.0
H834 H 0.12579 0.67677 0.68065 0.0
H835 H 0.17273 0.64472 0.69859 0.0
H836 H 0.18446 0.61793 0.88412 0.0
H837 H 0.1755 0.61907 0.81766 0.0
H838 H 0.12524 0.64683 0.79353 0.0
C839 C 0.13168 0.66899 0.65852 0.0
C840 C 0.16219 0.64496 0.71895 0.0
C841 C 0.12996 0.67438 0.62075 0.0
C842 C 0.17468 0.62731 0.87569 0.0
C843 C 0.1696 0.62802 0.83758 0.0
C844 C 0.13573 0.64632 0.77306 0.0
C845 C 0.14169 0.65424 0.66765 0.0
C846 C 0.14524 0.64952 0.7077 0.0
C847 C 0.15719 0.64026 0.82533 0.0
C848 C 0.1528 0.64226 0.7845 0.0
H849 H 0.15381 0.64224 0.5789 0.0
H850 H 0.15667 0.63293 0.64428 0.0
H851 H 0.11878 0.65322 0.72718 0.0
H852 H 0.14876 0.65981 0.90963 0.0
H853 H 0.1403 0.66122 0.84376 0.0
C854 C 0.34694 0.15247 0.59924 0.0
C855 C 0.33311 0.14133 0.58945 0.0
C856 C 0.35207 0.15439 0.63683 0.0
C857 C 0.35004 0.13491 0.73187 0.0
H858 H 0.35582 0.18266 0.76526 0.0
C859 C 0.35122 0.15477 0.88912 0.0
C860 C 0.36189 0.16868 0.90062 0.0
C861 C 0.34986 0.15023 0.851 0.0
C862 C 0.3546 0.16924 0.75631 0.0
H863 H 0.31436 0.12287 0.61166 0.0
H864 H 0.32339 0.1263 0.67784 0.0
H865 H 0.34898 0.17666 0.69925 0.0
H866 H 0.38013 0.18823 0.88093 0.0
H867 H 0.37787 0.18016 0.81411 0.0
H868 H 0.35555 0.12752 0.78912 0.0
C869 C 0.33022 0.13351 0.65605 0.0
C870 C 0.3506 0.1658 0.71849 0.0
C871 C 0.32501 0.13159 0.6182 0.0
C872 C 0.37171 0.17753 0.87308 0.0
C873 C 0.37034 0.17296 0.83478 0.0
C874 C 0.35412 0.13835 0.76976 0.0
C875 C 0.34357 0.14522 0.66575 0.0
C876 C 0.34817 0.14862 0.70589 0.0
C877 C 0.35917 0.15943 0.82328 0.0
C878 C 0.35629 0.15558 0.78248 0.0
H879 H 0.35369 0.16004 0.57792 0.0
H880 H 0.36263 0.16324 0.64333 0.0
H881 H 0.34845 0.12154 0.72284 0.0
H882 H 0.34353 0.14756 0.90949 0.0
H883 H 0.34099 0.13989 0.84318 0.0
C884 C 0.85192 0.35909 0.89224 0.0
C885 C 0.83465 0.36345 0.9013 0.0
C886 C 0.8571 0.35735 0.85447 0.0
C887 C 0.84087 0.34262 0.7655 0.0
H888 H 0.87963 0.36647 0.71785 0.0
C889 C 0.8697 0.32102 0.6221 0.0
C890 C 0.86764 0.33384 0.59408 0.0
C891 C 0.86779 0.3253 0.66044 0.0
C892 C 0.86886 0.35968 0.73101 0.0
H893 H 0.80937 0.36984 0.87797 0.0
H894 H 0.81835 0.3662 0.8117 0.0
H895 H 0.87134 0.37381 0.78331 0.0
H896 H 0.86323 0.36131 0.58413 0.0
H897 H 0.86057 0.36886 0.65129 0.0
H898 H 0.8386 0.3282 0.71373 0.0
C899 C 0.82787 0.3644 0.834 0.0
C900 C 0.86411 0.36388 0.76823 0.0
C901 C 0.82278 0.36657 0.8718 0.0
C902 C 0.86484 0.35118 0.60518 0.0
C903 C 0.86336 0.35552 0.64351 0.0
C904 C 0.84586 0.33814 0.72872 0.0
C905 C 0.84501 0.35954 0.82511 0.0
C906 C 0.84997 0.35548 0.78559 0.0
C907 C 0.86425 0.34252 0.67134 0.0
C908 C 0.85983 0.34668 0.71111 0.0
H909 H 0.86135 0.35667 0.91443 0.0
H910 H 0.87036 0.35353 0.84825 0.0
H911 H 0.83002 0.33587 0.77848 0.0
H912 H 0.87173 0.30754 0.61433 0.0
H913 H 0.86857 0.31509 0.68152 0.0
C914 C 0.6539 0.84415 0.89266 0.0
C915 C 0.64179 0.8312 0.9027 0.0
C916 C 0.65594 0.84924 0.85507 0.0
C917 C 0.63527 0.84951 0.76129 0.0
H918 H 0.68286 0.85298 0.72539 0.0
C919 C 0.6533 0.85254 0.60304 0.0
C920 C 0.6678 0.86244 0.59166 0.0
C921 C 0.64908 0.85078 0.64125 0.0
C922 C 0.6695 0.85241 0.73507 0.0
H923 H 0.6219 0.81386 0.88084 0.0
H924 H 0.62557 0.82281 0.81463 0.0
H925 H 0.67725 0.84533 0.79115 0.0
H926 H 0.6887 0.879 0.61174 0.0
H927 H 0.68118 0.87608 0.67876 0.0
H928 H 0.62754 0.85651 0.70503 0.0
C929 C 0.63342 0.829 0.83626 0.0
C930 C 0.66628 0.84793 0.77274 0.0
C931 C 0.63138 0.82382 0.87412 0.0
C932 C 0.67752 0.8712 0.61948 0.0
C933 C 0.67328 0.86943 0.65789 0.0
C934 C 0.6385 0.85407 0.72355 0.0
C935 C 0.64595 0.84156 0.82636 0.0
C936 C 0.64914 0.84636 0.78624 0.0
C937 C 0.65919 0.85892 0.66922 0.0
C938 C 0.65566 0.85545 0.70994 0.0
H939 H 0.66205 0.85031 0.91379 0.0
H940 H 0.66546 0.85918 0.84845 0.0
H941 H 0.62194 0.84861 0.77104 0.0
H942 H 0.6454 0.84569 0.58246 0.0
H943 H 0.63827 0.84245 0.6489 0.0
C944 C 0.86725 0.6933 0.63216 0.0
C945 C 0.86199 0.68417 0.59966 0.0
C946 C 0.86078 0.6887 0.66779 0.0
C947 C 0.82521 0.6655 0.71629 0.0
H948 H 0.85919 0.65944 0.79637 0.0
C949 C 0.80911 0.63119 0.85826 0.0
C950 C 0.81721 0.63752 0.89115 0.0
C951 C 0.81365 0.63781 0.82266 0.0
C952 C 0.84945 0.66134 0.77458 0.0
H953 H 0.84542 0.66345 0.57872 0.0
H954 H 0.83406 0.65548 0.64094 0.0
H955 H 0.86854 0.66984 0.73455 0.0
H956 H 0.83593 0.65614 0.91278 0.0
H957 H 0.84347 0.66799 0.85109 0.0
H958 H 0.80609 0.65706 0.75641 0.0
C959 C 0.84316 0.6662 0.63887 0.0
C960 C 0.85485 0.66727 0.73911 0.0
C961 C 0.84975 0.67069 0.60329 0.0
C962 C 0.82957 0.65088 0.88791 0.0
C963 C 0.83398 0.6576 0.85247 0.0
C964 C 0.81977 0.65968 0.75194 0.0
C965 C 0.8488 0.67499 0.67154 0.0
C966 C 0.84281 0.66935 0.70955 0.0
C967 C 0.82628 0.65098 0.81932 0.0
C968 C 0.83185 0.65747 0.7815 0.0
H969 H 0.87662 0.70379 0.63019 0.0
H970 H 0.8652 0.69583 0.69246 0.0
H971 H 0.81563 0.66712 0.69407 0.0
H972 H 0.79954 0.62087 0.85994 0.0
H973 H 0.80758 0.63228 0.79772 0.0
C974 C 0.33012 0.84963 0.6034 0.0
C975 C 0.31722 0.86249 0.60089 0.0
C976 C 0.335 0.8429 0.63857 0.0
C977 C 0.32136 0.8398 0.73941 0.0
H978 H 0.37065 0.8323 0.75619 0.0
C979 C 0.35159 0.83082 0.88801 0.0
C980 C 0.36446 0.81799 0.89209 0.0
C981 C 0.34505 0.83498 0.85222 0.0
C982 C 0.35682 0.83411 0.7518 0.0
H983 H 0.29906 0.8782 0.63307 0.0
H984 H 0.30786 0.86677 0.69466 0.0
H985 H 0.36056 0.84198 0.69432 0.0
H986 H 0.38042 0.79927 0.86205 0.0
H987 H 0.36906 0.80664 0.79936 0.0
H988 H 0.31777 0.83231 0.79739 0.0
C989 C 0.31401 0.86163 0.66943 0.0
C990 C 0.35102 0.83964 0.7163 0.0
C991 C 0.30903 0.86826 0.63416 0.0
C992 C 0.37055 0.80926 0.85974 0.0
C993 C 0.3641 0.81352 0.82388 0.0
C994 C 0.3272 0.83438 0.77503 0.0
C995 C 0.32719 0.84899 0.67209 0.0
C996 C 0.33322 0.84261 0.70967 0.0
C997 C 0.35134 0.82648 0.81974 0.0
C998 C 0.345 0.83155 0.78161 0.0
H999 H 0.33656 0.84482 0.5782 0.0
H1000 H 0.34494 0.83293 0.63947 0.0
H1001 H 0.30755 0.8417 0.73515 0.0
H1002 H 0.34664 0.83777 0.91244 0.0
H1003 H 0.33537 0.84515 0.84988 0.0
C1004 C 0.14878 0.33256 0.60288 0.0
C1005 C 0.1361 0.31945 0.60044 0.0
C1006 C 0.15574 0.3373 0.63788 0.0
C1007 C 0.16049 0.32265 0.73748 0.0
H1008 H 0.16809 0.3718 0.7562 0.0
C1009 C 0.17141 0.35163 0.88651 0.0
C1010 C 0.18418 0.36459 0.8904 0.0
C1011 C 0.16697 0.34527 0.85076 0.0
C1012 C 0.16626 0.35802 0.75122 0.0
H1013 H 0.12086 0.3009 0.63264 0.0
H1014 H 0.13273 0.30948 0.6941 0.0
H1015 H 0.15722 0.36234 0.69477 0.0
H1016 H 0.20254 0.38084 0.86005 0.0
H1017 H 0.19462 0.36981 0.79732 0.0
H1018 H 0.16915 0.31847 0.79448 0.0
C1019 C 0.13753 0.31589 0.66884 0.0
C1020 C 0.16004 0.35257 0.716 0.0
C1021 C 0.13064 0.31104 0.63369 0.0
C1022 C 0.19262 0.37088 0.85788 0.0
C1023 C 0.18805 0.36463 0.82202 0.0
C1024 C 0.1666 0.32813 0.77284 0.0
C1025 C 0.1501 0.32916 0.67135 0.0
C1026 C 0.15702 0.33483 0.70871 0.0
C1027 C 0.17509 0.35184 0.81811 0.0
C1028 C 0.16947 0.34587 0.78009 0.0
H1029 H 0.15335 0.3392 0.57772 0.0
H1030 H 0.16563 0.34734 0.63864 0.0
H1031 H 0.15858 0.30887 0.73264 0.0
H1032 H 0.1647 0.3465 0.91107 0.0
H1033 H 0.15682 0.33554 0.84859 0.0
C1034 C 0.63054 0.19007 0.85846 0.0
C1035 C 0.63669 0.18215 0.8917 0.0
C1036 C 0.63706 0.18507 0.82309 0.0
C1037 C 0.65973 0.14847 0.77617 0.0
H1038 H 0.66677 0.18189 0.6953 0.0
C1039 C 0.69139 0.12971 0.63363 0.0
C1040 C 0.68265 0.13552 0.60107 0.0
C1041 C 0.68678 0.13607 0.66936 0.0
C1042 C 0.66478 0.17242 0.71761 0.0
H1043 H 0.65481 0.16316 0.91418 0.0
H1044 H 0.66646 0.15475 0.85279 0.0
H1045 H 0.6569 0.19191 0.75738 0.0
H1046 H 0.66248 0.15277 0.5802 0.0
H1047 H 0.6545 0.1639 0.64255 0.0
H1048 H 0.66766 0.129 0.73642 0.0
C1049 C 0.65632 0.16451 0.85378 0.0
C1050 C 0.65908 0.17814 0.75311 0.0
C1051 C 0.64971 0.16941 0.88903 0.0
C1052 C 0.66944 0.14803 0.6048 0.0
C1053 C 0.66494 0.15449 0.64046 0.0
C1054 C 0.66553 0.14279 0.7408 0.0
C1055 C 0.64994 0.17212 0.82034 0.0
C1056 C 0.6564 0.16621 0.78277 0.0
C1057 C 0.67345 0.14846 0.67313 0.0
C1058 C 0.66802 0.15468 0.71109 0.0
H1059 H 0.62048 0.19992 0.85969 0.0
H1060 H 0.63172 0.19107 0.79789 0.0
H1061 H 0.6575 0.13888 0.79811 0.0
H1062 H 0.70166 0.12011 0.63158 0.0
H1063 H 0.69367 0.13131 0.69406 0.0
C1064 C 0.84796 0.33116 0.39098 0.0
C1065 C 0.86052 0.31796 0.39326 0.0
C1066 C 0.84088 0.33589 0.35602 0.0
C1067 C 0.83638 0.32141 0.25583 0.0
H1068 H 0.83007 0.37072 0.23707 0.0
C1069 C 0.82881 0.35087 0.1062 0.0
C1070 C 0.81631 0.364 0.10134 0.0
C1071 C 0.8325 0.34439 0.14229 0.0
C1072 C 0.83153 0.35689 0.24205 0.0
H1073 H 0.87533 0.29911 0.36092 0.0
H1074 H 0.86333 0.30764 0.29973 0.0
H1075 H 0.83974 0.36095 0.2992 0.0
H1076 H 0.79767 0.38048 0.13028 0.0
H1077 H 0.80428 0.36926 0.19352 0.0
H1078 H 0.82865 0.3175 0.19809 0.0
C1079 C 0.85866 0.31415 0.32497 0.0
C1080 C 0.83705 0.35126 0.27769 0.0
C1081 C 0.86564 0.30933 0.36001 0.0
C1082 C 0.8074 0.37038 0.1332 0.0
C1083 C 0.81122 0.36402 0.16937 0.0
C1084 C 0.83099 0.32707 0.22006 0.0
C1085 C 0.84632 0.32762 0.32248 0.0
C1086 C 0.83966 0.33346 0.28499 0.0
C1087 C 0.82388 0.35102 0.17428 0.0
C1088 C 0.82864 0.34488 0.21274 0.0
H1089 H 0.84365 0.33795 0.41619 0.0
H1090 H 0.83116 0.34608 0.35528 0.0
H1091 H 0.83796 0.30759 0.26062 0.0
H1092 H 0.83586 0.34568 0.08217 0.0
H1093 H 0.84244 0.3345 0.14525 0.0
C1094 C 0.6277 0.81057 0.13485 0.0
C1095 C 0.63432 0.81837 0.10189 0.0
C1096 C 0.63386 0.81565 0.17052 0.0
C1097 C 0.65642 0.85228 0.21765 0.0
H1098 H 0.66412 0.81894 0.29834 0.0
C1099 C 0.68982 0.87099 0.35823 0.0
C1100 C 0.68128 0.86533 0.39115 0.0
C1101 C 0.68481 0.86462 0.32276 0.0
C1102 C 0.66195 0.82839 0.27606 0.0
H1103 H 0.65283 0.83726 0.0803 0.0
H1104 H 0.66379 0.84571 0.14195 0.0
H1105 H 0.65361 0.80885 0.23678 0.0
H1106 H 0.66103 0.84837 0.41295 0.0
H1107 H 0.65239 0.83724 0.35121 0.0
H1108 H 0.66484 0.87178 0.25682 0.0
C1109 C 0.65359 0.83602 0.14058 0.0
C1110 C 0.65586 0.82263 0.24091 0.0
C1111 C 0.64737 0.83106 0.10516 0.0
C1112 C 0.66788 0.85298 0.38808 0.0
C1113 C 0.66298 0.84652 0.35275 0.0
C1114 C 0.6626 0.858 0.25264 0.0
C1115 C 0.64678 0.82855 0.17372 0.0
C1116 C 0.65304 0.83453 0.21131 0.0
C1117 C 0.67129 0.85237 0.31973 0.0
C1118 C 0.66539 0.84612 0.2822 0.0
H1119 H 0.61762 0.80076 0.13312 0.0
H1120 H 0.62825 0.80974 0.19556 0.0
H1121 H 0.65405 0.86184 0.1957 0.0
H1122 H 0.70022 0.88047 0.35981 0.0
H1123 H 0.69152 0.86924 0.2977 0.0
C1124 C 0.14885 0.67036 0.38853 0.0
C1125 C 0.13611 0.68332 0.39278 0.0
C1126 C 0.15548 0.66635 0.3528 0.0
C1127 C 0.14381 0.66737 0.25282 0.0
H1128 H 0.19297 0.65887 0.2363 0.0
C1129 C 0.17016 0.65113 0.10502 0.0
C1130 C 0.18273 0.63794 0.10235 0.0
C1131 C 0.16549 0.65795 0.14016 0.0
C1132 C 0.17919 0.66103 0.24056 0.0
H1133 H 0.12049 0.70244 0.36314 0.0
H1134 H 0.132 0.69527 0.30033 0.0
H1135 H 0.18291 0.66888 0.29827 0.0
H1136 H 0.20052 0.62173 0.13426 0.0
H1137 H 0.19205 0.63337 0.19608 0.0
H1138 H 0.13992 0.65912 0.19568 0.0
C1139 C 0.13681 0.68823 0.32477 0.0
C1140 C 0.17345 0.66682 0.27597 0.0
C1141 C 0.13027 0.69236 0.36065 0.0
C1142 C 0.19079 0.6319 0.13552 0.0
C1143 C 0.18601 0.63864 0.17086 0.0
C1144 C 0.14951 0.66148 0.21756 0.0
C1145 C 0.14941 0.67512 0.32052 0.0
C1146 C 0.15569 0.66997 0.28246 0.0
C1147 C 0.17315 0.65162 0.17356 0.0
C1148 C 0.16726 0.65819 0.21101 0.0
H1149 H 0.15362 0.66316 0.41276 0.0
H1150 H 0.16502 0.65605 0.35034 0.0
H1151 H 0.13001 0.6694 0.25722 0.0
H1152 H 0.1638 0.65617 0.07995 0.0
H1153 H 0.15582 0.66818 0.14112 0.0
C1154 C 0.30969 0.13011 0.35762 0.0
C1155 C 0.31752 0.13674 0.39053 0.0
C1156 C 0.3146 0.13639 0.32193 0.0
C1157 C 0.35117 0.15898 0.27494 0.0
H1158 H 0.31813 0.16612 0.19345 0.0
C1159 C 0.37068 0.19112 0.13361 0.0
C1160 C 0.36506 0.18241 0.10086 0.0
C1161 C 0.36408 0.18645 0.1691 0.0
C1162 C 0.32749 0.1641 0.21596 0.0
H1163 H 0.33615 0.15551 0.41208 0.0
H1164 H 0.34431 0.1667 0.35041 0.0
H1165 H 0.30784 0.15597 0.25517 0.0
H1166 H 0.34792 0.16224 0.07939 0.0
H1167 H 0.33644 0.15416 0.1412 0.0
H1168 H 0.37081 0.16712 0.23584 0.0
C1169 C 0.33475 0.15637 0.35182 0.0
C1170 C 0.32162 0.15824 0.2512 0.0
C1171 C 0.32996 0.15002 0.38725 0.0
C1172 C 0.35251 0.1692 0.10413 0.0
C1173 C 0.34584 0.16464 0.13949 0.0
C1174 C 0.35701 0.16493 0.23985 0.0
C1175 C 0.32736 0.14946 0.3187 0.0
C1176 C 0.33341 0.15561 0.28108 0.0
C1177 C 0.35166 0.1731 0.17236 0.0
C1178 C 0.34525 0.16751 0.20999 0.0
H1179 H 0.30005 0.11986 0.35937 0.0
H1180 H 0.30875 0.13071 0.29691 0.0
H1181 H 0.36066 0.15675 0.2971 0.0
H1182 H 0.3803 0.20139 0.13187 0.0
H1183 H 0.36868 0.19329 0.19401 0.0
loop_
_geom_bond_atom_site_label_1
_geom_bond_atom_site_label_2
_geom_bond_distance
_geom_bond_site_symmetry_2
_ccdc_geom_bond_type
Co0 O1 2.216 . S
Co0 O2 2.090 1_556 S
Co0 O4 2.004 . S
Co0 O10 2.021 1_556 S
Co0 O12 2.137 . S
Co0 O13 2.244 . S
O1 Co0 2.216 . S
O1 C8 1.246 . S
O2 Co0 2.090 1_554 S
O2 C8 1.261 1_554 S
C3 O12 1.247 . S
C3 O13 1.272 . S
O4 Co0 2.004 . S
O4 C9 1.259 . S
Co5 O6 2.060 1_556 S
Co5 O11 2.034 1_556 S
Co5 O13 2.147 . S
O6 Co5 2.060 1_554 S
O6 C9 1.235 1_554 S
C7 O10 1.238 . S
C7 O11 1.241 . S
C8 O1 1.246 . S
C8 O2 1.261 1_556 S
C9 O4 1.259 . S
C9 O6 1.235 1_556 S
O10 Co0 2.021 1_554 S
O10 C7 1.238 . S
O11 Co5 2.034 1_554 S
O11 C7 1.241 . S
O12 Co0 2.137 . S
O12 C3 1.247 . S
O13 Co0 2.244 . S
O13 C3 1.272 . S
O13 Co5 2.147 . S
Co14 O15 2.216 . S
Co14 O16 2.090 1_556 S
Co14 O18 2.004 . S
Co14 O24 2.021 1_556 S
Co14 O26 2.137 . S
Co14 O27 2.244 . S
O15 Co14 2.216 . S
O15 C22 1.246 . S
O16 Co14 2.090 1_554 S
O16 C22 1.261 1_554 S
C17 O26 1.247 . S
C17 O27 1.272 . S
O18 Co14 2.004 . S
O18 C23 1.259 . S
Co19 O20 2.060 1_556 S
Co19 O25 2.034 1_556 S
Co19 O27 2.147 . S
O20 Co19 2.060 1_554 S
O20 C23 1.235 1_554 S
C21 O24 1.238 . S
C21 O25 1.241 . S
C22 O15 1.246 . S
C22 O16 1.261 1_556 S
C23 O18 1.259 . S
C23 O20 1.235 1_556 S
O24 Co14 2.021 1_554 S
O24 C21 1.238 . S
O25 Co19 2.034 1_554 S
O25 C21 1.241 . S
O26 Co14 2.137 . S
O26 C17 1.247 . S
O27 Co14 2.244 . S
O27 C17 1.272 . S
O27 Co19 2.147 . S
Co28 O29 2.216 . S
Co28 O30 2.090 1_556 S
Co28 O32 2.004 . S
Co28 O38 2.021 1_556 S
Co28 O40 2.137 . S
Co28 O41 2.244 . S
O29 Co28 2.216 . S
O29 C36 1.246 . S
O30 Co28 2.090 1_554 S
O30 C36 1.261 1_554 S
C31 O40 1.247 . S
C31 O41 1.272 . S
O32 Co28 2.004 . S
O32 C37 1.259 . S
Co33 O34 2.060 1_556 S
Co33 O39 2.034 1_556 S
Co33 O41 2.147 . S
O34 Co33 2.060 1_554 S
O34 C37 1.235 1_554 S
C35 O38 1.238 . S
C35 O39 1.241 . S
C36 O29 1.246 . S
C36 O30 1.261 1_556 S
C37 O32 1.259 . S
C37 O34 1.235 1_556 S
O38 Co28 2.021 1_554 S
O38 C35 1.238 . S
O39 Co33 2.034 1_554 S
O39 C35 1.241 . S
O40 Co28 2.137 . S
O40 C31 1.247 . S
O41 Co28 2.244 . S
O41 C31 1.272 . S
O41 Co33 2.147 . S
Co42 O43 2.216 . S
Co42 O44 2.090 1_556 S
Co42 O46 2.004 . S
Co42 O52 2.021 1_556 S
Co42 O54 2.137 . S
Co42 O55 2.244 . S
O43 Co42 2.216 . S
O43 C50 1.246 . S
O44 Co42 2.090 1_554 S
O44 C50 1.261 1_554 S
C45 O54 1.247 . S
C45 O55 1.272 . S
O46 Co42 2.004 . S
O46 C51 1.259 . S
Co47 O48 2.060 1_556 S
Co47 O53 2.034 1_556 S
Co47 O55 2.147 . S
O48 Co47 2.060 1_554 S
O48 C51 1.235 1_554 S
C49 O52 1.238 . S
C49 O53 1.241 . S
C50 O43 1.246 . S
C50 O44 1.261 1_556 S
C51 O46 1.259 . S
C51 O48 1.235 1_556 S
O52 Co42 2.021 1_554 S
O52 C49 1.238 . S
O53 Co47 2.034 1_554 S
O53 C49 1.241 . S
O54 Co42 2.137 . S
O54 C45 1.247 . S
O55 Co42 2.244 . S
O55 C45 1.272 . S
O55 Co47 2.147 . S
Co56 O57 2.216 . S
Co56 O58 2.090 1_554 S
Co56 O60 2.004 . S
Co56 O66 2.021 1_554 S
Co56 O68 2.137 . S
Co56 O69 2.244 . S
O57 Co56 2.216 . S
O57 C64 1.247 . S
O58 Co56 2.090 1_556 S
O58 C64 1.261 1_556 S
C59 O68 1.247 . S
C59 O69 1.272 . S
O60 Co56 2.004 . S
O60 C65 1.259 . S
Co61 O62 2.060 1_554 S
Co61 O67 2.028 1_554 S
Co61 O69 2.151 . S
O62 Co61 2.060 1_556 S
O62 C65 1.235 1_556 S
C63 O66 1.238 . S
C63 O67 1.241 . S
C64 O57 1.247 . S
C64 O58 1.261 1_554 S
C65 O60 1.259 . S
C65 O62 1.235 1_554 S
O66 Co56 2.021 1_556 S
O66 C63 1.238 . S
O67 Co61 2.028 1_556 S
O67 C63 1.241 . S
O68 Co56 2.137 . S
O68 C59 1.247 . S
O69 Co56 2.244 . S
O69 C59 1.272 . S
O69 Co61 2.151 . S
Co70 O71 2.216 . S
Co70 O72 2.090 1_554 S
Co70 O74 2.004 . S
Co70 O80 2.021 1_554 S
Co70 O82 2.137 . S
Co70 O83 2.244 . S
O71 Co70 2.216 . S
O71 C78 1.247 . S
O72 Co70 2.090 1_556 S
O72 C78 1.261 1_556 S
C73 O82 1.247 . S
C73 O83 1.272 . S
O74 Co70 2.004 . S
O74 C79 1.259 . S
Co75 O76 2.060 1_554 S
Co75 O81 2.028 1_554 S
Co75 O83 2.151 . S
O76 Co75 2.060 1_556 S
O76 C79 1.235 1_556 S
C77 O80 1.238 . S
C77 O81 1.241 . S
C78 O71 1.247 . S
C78 O72 1.261 1_554 S
C79 O74 1.259 . S
C79 O76 1.235 1_554 S
O80 Co70 2.021 1_556 S
O80 C77 1.238 . S
O81 Co75 2.028 1_556 S
O81 C77 1.241 . S
O82 Co70 2.137 . S
O82 C73 1.247 . S
O83 Co70 2.244 . S
O83 C73 1.272 . S
O83 Co75 2.151 . S
Co84 O85 2.216 . S
Co84 O86 2.090 1_554 S
Co84 O88 2.004 . S
Co84 O94 2.021 1_554 S
Co84 O96 2.137 . S
Co84 O97 2.244 . S
O85 Co84 2.216 . S
O85 C92 1.247 . S
O86 Co84 2.090 1_556 S
O86 C92 1.261 1_556 S
C87 O96 1.247 . S
C87 O97 1.272 . S
O88 Co84 2.004 . S
O88 C93 1.259 . S
Co89 O90 2.060 1_554 S
Co89 O95 2.028 1_554 S
Co89 O97 2.151 . S
O90 Co89 2.060 1_556 S
O90 C93 1.235 1_556 S
C91 O94 1.238 . S
C91 O95 1.241 . S
C92 O85 1.247 . S
C92 O86 1.261 1_554 S
C93 O88 1.259 . S
C93 O90 1.235 1_554 S
O94 Co84 2.021 1_556 S
O94 C91 1.238 . S
O95 Co89 2.028 1_556 S
O95 C91 1.241 . S
O96 Co84 2.137 . S
O96 C87 1.247 . S
O97 Co84 2.244 . S
O97 C87 1.272 . S
O97 Co89 2.151 . S
Co98 O99 2.216 . S
Co98 O100 2.090 1_554 S
Co98 O102 2.004 . S
Co98 O108 2.021 1_554 S
Co98 O110 2.137 . S
Co98 O111 2.244 . S
O99 Co98 2.216 . S
O99 C106 1.247 . S
O100 Co98 2.090 1_556 S
O100 C106 1.261 1_556 S
C101 O110 1.247 . S
C101 O111 1.272 . S
O102 Co98 2.004 . S
O102 C107 1.259 . S
Co103 O104 2.060 1_554 S
Co103 O109 2.028 1_554 S
Co103 O111 2.151 . S
O104 Co103 2.060 1_556 S
O104 C107 1.235 1_556 S
C105 O108 1.238 . S
C105 O109 1.241 . S
C106 O99 1.247 . S
C106 O100 1.261 1_554 S
C107 O102 1.259 . S
C107 O104 1.235 1_554 S
O108 Co98 2.021 1_556 S
O108 C105 1.238 . S
O109 Co103 2.028 1_556 S
O109 C105 1.241 . S
O110 Co98 2.137 . S
O110 C101 1.247 . S
O111 Co98 2.244 . S
O111 C101 1.272 . S
O111 Co103 2.151 . S
Co112 O113 2.216 . S
Co112 O114 2.091 . S
Co112 O116 2.004 . S
Co112 O122 2.021 . S
Co112 O124 2.137 . S
Co112 O125 2.244 . S
O113 Co112 2.216 . S
O113 C120 1.247 . S
O114 Co112 2.091 . S
O114 C120 1.261 . S
C115 O124 1.247 . S
C115 O125 1.272 . S
O116 Co112 2.004 . S
O116 C121 1.259 . S
Co117 O118 2.061 . S
Co117 O123 2.052 . S
Co117 O125 2.135 . S
O118 Co117 2.061 . S
O118 C121 1.235 . S
C119 O122 1.238 . S
C119 O123 1.241 . S
C120 O113 1.247 . S
C120 O114 1.261 . S
C121 O116 1.259 . S
C121 O118 1.235 . S
O122 Co112 2.021 . S
O122 C119 1.238 . S
O123 Co117 2.052 . S
O123 C119 1.241 . S
O124 Co112 2.137 . S
O124 C115 1.247 . S
O125 Co112 2.244 . S
O125 C115 1.272 . S
O125 Co117 2.135 . S
Co126 O127 2.216 . S
Co126 O128 2.091 . S
Co126 O130 2.004 . S
Co126 O136 2.021 . S
Co126 O138 2.137 . S
Co126 O139 2.244 . S
O127 Co126 2.216 . S
O127 C134 1.247 . S
O128 Co126 2.091 . S
O128 C134 1.261 . S
C129 O138 1.247 . S
C129 O139 1.272 . S
O130 Co126 2.004 . S
O130 C135 1.259 . S
Co131 O132 2.061 . S
Co131 O137 2.052 . S
Co131 O139 2.135 . S
O132 Co131 2.061 . S
O132 C135 1.235 . S
C133 O136 1.238 . S
C133 O137 1.241 . S
C134 O127 1.247 . S
C134 O128 1.261 . S
C135 O130 1.259 . S
C135 O132 1.235 . S
O136 Co126 2.021 . S
O136 C133 1.238 . S
O137 Co131 2.052 . S
O137 C133 1.241 . S
O138 Co126 2.137 . S
O138 C129 1.247 . S
O139 Co126 2.244 . S
O139 C129 1.272 . S
O139 Co131 2.135 . S
Co140 O141 2.216 . S
Co140 O142 2.091 . S
Co140 O144 2.004 . S
Co140 O150 2.021 . S
Co140 O152 2.137 . S
Co140 O153 2.244 . S
O141 Co140 2.216 . S
O141 C148 1.247 . S
O142 Co140 2.091 . S
O142 C148 1.261 . S
C143 O152 1.247 . S
C143 O153 1.272 . S
O144 Co140 2.004 . S
O144 C149 1.259 . S
Co145 O146 2.061 . S
Co145 O151 2.052 . S
Co145 O153 2.135 . S
O146 Co145 2.061 . S
O146 C149 1.235 . S
C147 O150 1.238 . S
C147 O151 1.241 . S
C148 O141 1.247 . S
C148 O142 1.261 . S
C149 O144 1.259 . S
C149 O146 1.235 . S
O150 Co140 2.021 . S
O150 C147 1.238 . S
O151 Co145 2.052 . S
O151 C147 1.241 . S
O152 Co140 2.137 . S
O152 C143 1.247 . S
O153 Co140 2.244 . S
O153 C143 1.272 . S
O153 Co145 2.135 . S
Co154 O155 2.216 . S
Co154 O156 2.091 . S
Co154 O158 2.004 . S
Co154 O164 2.021 . S
Co154 O166 2.137 . S
Co154 O167 2.244 . S
O155 Co154 2.216 . S
O155 C162 1.247 . S
O156 Co154 2.091 . S
O156 C162 1.261 . S
C157 O166 1.247 . S
C157 O167 1.272 . S
O158 Co154 2.004 . S
O158 C163 1.259 . S
Co159 O160 2.061 . S
Co159 O165 2.052 . S
Co159 O167 2.135 . S
O160 Co159 2.061 . S
O160 C163 1.235 . S
C161 O164 1.238 . S
C161 O165 1.241 . S
C162 O155 1.247 . S
C162 O156 1.261 . S
C163 O158 1.259 . S
C163 O160 1.235 . S
O164 Co154 2.021 . S
O164 C161 1.238 . S
O165 Co159 2.052 . S
O165 C161 1.241 . S
O166 Co154 2.137 . S
O166 C157 1.247 . S
O167 Co154 2.244 . S
O167 C157 1.272 . S
O167 Co159 2.135 . S
Co168 O169 2.216 . S
Co168 O170 2.091 . S
Co168 O172 2.004 . S
Co168 O178 2.021 . S
Co168 O180 2.137 . S
Co168 O181 2.244 . S
O169 Co168 2.216 . S
O169 C176 1.247 . S
O170 Co168 2.091 . S
O170 C176 1.261 . S
C171 O180 1.247 . S
C171 O181 1.272 . S
O172 Co168 2.004 . S
O172 C177 1.259 . S
Co173 O174 2.061 . S
Co173 O179 2.052 . S
Co173 O181 2.135 . S
O174 Co173 2.061 . S
O174 C177 1.235 . S
C175 O178 1.238 . S
C175 O179 1.241 . S
C176 O169 1.247 . S
C176 O170 1.261 . S
C177 O172 1.259 . S
C177 O174 1.235 . S
O178 Co168 2.021 . S
O178 C175 1.238 . S
O179 Co173 2.052 . S
O179 C175 1.241 . S
O180 Co168 2.137 . S
O180 C171 1.247 . S
O181 Co168 2.244 . S
O181 C171 1.272 . S
O181 Co173 2.135 . S
Co182 O183 2.216 . S
Co182 O184 2.091 . S
Co182 O186 2.004 . S
Co182 O192 2.021 . S
Co182 O194 2.137 . S
Co182 O195 2.244 . S
O183 Co182 2.216 . S
O183 C190 1.247 . S
O184 Co182 2.091 . S
O184 C190 1.261 . S
C185 O194 1.247 . S
C185 O195 1.272 . S
O186 Co182 2.004 . S
O186 C191 1.259 . S
Co187 O188 2.061 . S
Co187 O193 2.052 . S
Co187 O195 2.135 . S
O188 Co187 2.061 . S
O188 C191 1.235 . S
C189 O192 1.238 . S
C189 O193 1.241 . S
C190 O183 1.247 . S
C190 O184 1.261 . S
C191 O186 1.259 . S
C191 O188 1.235 . S
O192 Co182 2.021 . S
O192 C189 1.238 . S
O193 Co187 2.052 . S
O193 C189 1.241 . S
O194 Co182 2.137 . S
O194 C185 1.247 . S
O195 Co182 2.244 . S
O195 C185 1.272 . S
O195 Co187 2.135 . S
Co196 O197 2.216 . S
Co196 O198 2.091 . S
Co196 O200 2.004 . S
Co196 O206 2.021 . S
Co196 O208 2.137 . S
Co196 O209 2.244 . S
O197 Co196 2.216 . S
O197 C204 1.247 . S
O198 Co196 2.091 . S
O198 C204 1.261 . S
C199 O208 1.247 . S
C199 O209 1.272 . S
O200 Co196 2.004 . S
O200 C205 1.259 . S
Co201 O202 2.061 . S
Co201 O207 2.052 . S
Co201 O209 2.135 . S
O202 Co201 2.061 . S
O202 C205 1.235 . S
C203 O206 1.238 . S
C203 O207 1.241 . S
C204 O197 1.247 . S
C204 O198 1.261 . S
C205 O200 1.259 . S
C205 O202 1.235 . S
O206 Co196 2.021 . S
O206 C203 1.238 . S
O207 Co201 2.052 . S
O207 C203 1.241 . S
O208 Co196 2.137 . S
O208 C199 1.247 . S
O209 Co196 2.244 . S
O209 C199 1.272 . S
O209 Co201 2.135 . S
Co210 O211 2.216 . S
Co210 O212 2.091 . S
Co210 O214 2.004 . S
Co210 O220 2.021 . S
Co210 O222 2.137 . S
Co210 O223 2.244 . S
O211 Co210 2.216 . S
O211 C218 1.247 . S
O212 Co210 2.091 . S
O212 C218 1.261 . S
C213 O222 1.247 . S
C213 O223 1.272 . S
O214 Co210 2.004 . S
O214 C219 1.259 . S
Co215 O216 2.061 . S
Co215 O221 2.052 . S
Co215 O223 2.135 . S
O216 Co215 2.061 . S
O216 C219 1.235 . S
C217 O220 1.238 . S
C217 O221 1.241 . S
C218 O211 1.247 . S
C218 O212 1.261 . S
C219 O214 1.259 . S
C219 O216 1.235 . S
O220 Co210 2.021 . S
O220 C217 1.238 . S
O221 Co215 2.052 . S
O221 C217 1.241 . S
O222 Co210 2.137 . S
O222 C213 1.247 . S
O223 Co210 2.244 . S
O223 C213 1.272 . S
O223 Co215 2.135 . S
C224 C225 1.349 . S
C224 C226 1.327 . S
C224 H249 0.950 . S
C225 C224 1.349 . S
C225 C241 1.349 1_556 S
C226 C224 1.327 . S
C226 C245 1.440 . S
C226 H250 0.950 . S
C227 C244 1.574 . S
C227 C246 1.365 1_554 S
C227 H251 0.949 . S
H228 C232 0.949 . S
C229 C230 1.349 . S
C229 C231 1.327 . S
C229 H252 0.950 . S
C230 C229 1.349 . S
C230 C242 1.349 1_554 S
C231 C229 1.327 . S
C231 C247 1.445 . S
C231 H253 0.950 . S
C232 H228 0.949 . S
C232 C240 1.574 . S
C232 C248 1.360 1_556 S
H233 C241 0.950 . S
H234 C239 0.950 . S
H235 C240 0.949 . S
H236 C242 0.950 . S
H237 C243 0.950 . S
H238 C244 0.949 . S
C239 H234 0.950 . S
C239 C241 1.327 . S
C239 C245 1.417 1_554 S
C240 C232 1.574 . S
C240 H235 0.949 . S
C240 C246 1.371 . S
C241 C225 1.349 1_554 S
C241 H233 0.950 . S
C241 C239 1.327 . S
C242 C230 1.349 1_556 S
C242 H236 0.950 . S
C242 C243 1.327 . S
C243 H237 0.950 . S
C243 C242 1.327 . S
C243 C247 1.412 1_556 S
C244 C227 1.574 . S
C244 H238 0.949 . S
C244 C248 1.377 . S
C245 C226 1.440 . S
C245 C239 1.417 1_556 S
C245 C246 1.523 . S
C246 C227 1.365 1_556 S
C246 C240 1.371 . S
C246 C245 1.523 . S
C247 C231 1.445 . S
C247 C243 1.412 1_554 S
C247 C248 1.523 . S
C248 C232 1.360 1_554 S
C248 C244 1.377 . S
C248 C247 1.523 . S
H249 C224 0.950 . S
H250 C226 0.950 . S
H251 C227 0.949 . S
H252 C229 0.950 . S
H253 C231 0.950 . S
C254 C255 1.349 . S
C254 C256 1.327 . S
C254 H279 0.950 . S
C255 C254 1.349 . S
C255 C271 1.349 1_556 S
C256 C254 1.327 . S
C256 C275 1.437 . S
C256 H280 0.950 . S
C257 C274 1.574 . S
C257 C276 1.366 1_554 S
C257 H281 0.949 . S
H258 C262 0.949 . S
C259 C260 1.349 . S
C259 C261 1.327 . S
C259 H282 0.950 . S
C260 C259 1.349 . S
C260 C272 1.349 1_554 S
C261 C259 1.327 . S
C261 C277 1.440 . S
C261 H283 0.950 . S
C262 H258 0.949 . S
C262 C270 1.574 . S
C262 C278 1.362 1_556 S
H263 C271 0.950 . S
H264 C269 0.950 . S
H265 C270 0.949 . S
H266 C272 0.950 . S
H267 C273 0.950 . S
H268 C274 0.949 . S
C269 H264 0.950 . S
C269 C271 1.327 . S
C269 C275 1.420 1_554 S
C270 C262 1.574 . S
C270 H265 0.949 . S
C270 C276 1.371 . S
C271 C255 1.349 1_554 S
C271 H263 0.950 . S
C271 C269 1.327 . S
C272 C260 1.349 1_556 S
C272 H266 0.950 . S
C272 C273 1.327 . S
C273 H267 0.950 . S
C273 C272 1.327 . S
C273 C277 1.417 1_556 S
C274 C257 1.574 . S
C274 H268 0.949 . S
C274 C278 1.374 . S
C275 C256 1.437 . S
C275 C269 1.420 1_556 S
C275 C276 1.523 . S
C276 C257 1.366 1_556 S
C276 C270 1.371 . S
C276 C275 1.523 . S
C277 C261 1.440 . S
C277 C273 1.417 1_554 S
C277 C278 1.523 . S
C278 C262 1.362 1_554 S
C278 C274 1.374 . S
C278 C277 1.523 . S
H279 C254 0.950 . S
H280 C256 0.950 . S
H281 C257 0.949 . S
H282 C259 0.950 . S
H283 C261 0.950 . S
C284 C285 1.349 . S
C284 C286 1.327 . S
C284 H309 0.950 . S
C285 C284 1.349 . S
C285 C301 1.349 1_556 S
C286 C284 1.327 . S
C286 C305 1.440 . S
C286 H310 0.950 . S
C287 C304 1.574 . S
C287 C306 1.365 1_554 S
C287 H311 0.949 . S
H288 C292 0.949 . S
C289 C290 1.349 . S
C289 C291 1.327 . S
C289 H312 0.950 . S
C290 C289 1.349 . S
C290 C302 1.349 1_554 S
C291 C289 1.327 . S
C291 C307 1.445 . S
C291 H313 0.950 . S
C292 H288 0.949 . S
C292 C300 1.574 . S
C292 C308 1.360 1_556 S
H293 C301 0.950 . S
H294 C299 0.950 . S
H295 C300 0.949 . S
H296 C302 0.950 . S
H297 C303 0.950 . S
H298 C304 0.949 . S
C299 H294 0.950 . S
C299 C301 1.327 . S
C299 C305 1.417 1_554 S
C300 C292 1.574 . S
C300 H295 0.949 . S
C300 C306 1.371 . S
C301 C285 1.349 1_554 S
C301 H293 0.950 . S
C301 C299 1.327 . S
C302 C290 1.349 1_556 S
C302 H296 0.950 . S
C302 C303 1.327 . S
C303 H297 0.950 . S
C303 C302 1.327 . S
C303 C307 1.412 1_556 S
C304 C287 1.574 . S
C304 H298 0.949 . S
C304 C308 1.377 . S
C305 C286 1.440 . S
C305 C299 1.417 1_556 S
C305 C306 1.523 . S
C306 C287 1.365 1_556 S
C306 C300 1.371 . S
C306 C305 1.523 . S
C307 C291 1.445 . S
C307 C303 1.412 1_554 S
C307 C308 1.523 . S
C308 C292 1.360 1_554 S
C308 C304 1.377 . S
C308 C307 1.523 . S
H309 C284 0.950 . S
H310 C286 0.950 . S
H311 C287 0.949 . S
H312 C289 0.950 . S
H313 C291 0.950 . S
C314 C315 1.349 1_554 S
C314 C316 1.327 . S
C314 H339 0.950 . S
C315 C314 1.349 1_556 S
C315 C331 1.349 . S
C316 C314 1.327 . S
C316 C335 1.420 1_554 S
C316 H340 0.950 . S
C317 C334 1.574 . S
C317 C336 1.371 . S
C317 H341 0.949 . S
H318 C322 0.949 . S
C319 C320 1.349 1_556 S
C319 C321 1.327 . S
C319 H342 0.950 . S
C320 C319 1.349 1_554 S
C320 C332 1.349 . S
C321 C319 1.327 . S
C321 C337 1.417 1_556 S
C321 H343 0.950 . S
C322 H318 0.949 . S
C322 C330 1.574 . S
C322 C338 1.374 . S
H323 C331 0.950 . S
H324 C329 0.950 . S
H325 C330 0.949 . S
H326 C332 0.950 . S
H327 C333 0.950 . S
H328 C334 0.949 . S
C329 H324 0.950 . S
C329 C331 1.327 . S
C329 C335 1.437 . S
C330 C322 1.574 . S
C330 H325 0.949 . S
C330 C336 1.366 1_554 S
C331 C315 1.349 . S
C331 H323 0.950 . S
C331 C329 1.327 . S
C332 C320 1.349 . S
C332 H326 0.950 . S
C332 C333 1.327 . S
C333 H327 0.950 . S
C333 C332 1.327 . S
C333 C337 1.440 . S
C334 C317 1.574 . S
C334 H328 0.949 . S
C334 C338 1.362 1_556 S
C335 C316 1.420 1_556 S
C335 C329 1.437 . S
C335 C336 1.523 . S
C336 C317 1.371 . S
C336 C330 1.366 1_556 S
C336 C335 1.523 . S
C337 C321 1.417 1_554 S
C337 C333 1.440 . S
C337 C338 1.523 . S
C338 C322 1.374 . S
C338 C334 1.362 1_554 S
C338 C337 1.523 . S
H339 C314 0.950 . S
H340 C316 0.950 . S
H341 C317 0.949 . S
H342 C319 0.950 . S
H343 C321 0.950 . S
C344 C345 1.349 . S
C344 C346 1.327 . S
C344 H369 0.950 . S
C345 C344 1.349 . S
C345 C361 1.349 . S
C346 C344 1.327 . S
C346 C365 1.429 . S
C346 H370 0.950 . S
C347 C364 1.574 1_545 S
C347 C366 1.368 . S
C347 H371 0.949 . S
H348 C352 0.949 . S
C349 C350 1.349 . S
C349 C351 1.327 . S
C349 H372 0.950 . S
C350 C349 1.349 . S
C350 C362 1.349 . S
C351 C349 1.327 . S
C351 C367 1.429 . S
C351 H373 0.950 . S
C352 H348 0.949 . S
C352 C360 1.574 1_565 S
C352 C368 1.368 . S
H353 C361 0.950 . S
H354 C359 0.950 . S
H355 C360 0.949 . S
H356 C362 0.950 . S
H357 C363 0.950 . S
H358 C364 0.949 . S
C359 H354 0.950 . S
C359 C361 1.327 . S
C359 C365 1.429 . S
C360 C352 1.574 1_545 S
C360 H355 0.949 . S
C360 C366 1.368 . S
C361 C345 1.349 . S
C361 H353 0.950 . S
C361 C359 1.327 . S
C362 C350 1.349 . S
C362 H356 0.950 . S
C362 C363 1.327 . S
C363 H357 0.950 . S
C363 C362 1.327 . S
C363 C367 1.429 . S
C364 C347 1.574 1_565 S
C364 H358 0.949 . S
C364 C368 1.368 . S
C365 C346 1.429 . S
C365 C359 1.429 . S
C365 C366 1.523 . S
C366 C347 1.368 . S
C366 C360 1.368 . S
C366 C365 1.523 . S
C367 C351 1.429 . S
C367 C363 1.429 . S
C367 C368 1.523 . S
C368 C352 1.368 . S
C368 C364 1.368 . S
C368 C367 1.523 . S
H369 C344 0.950 . S
H370 C346 0.950 . S
H371 C347 0.949 . S
H372 C349 0.950 . S
H373 C351 0.950 . S
C374 C375 1.349 . S
C374 C376 1.327 . S
C374 H399 0.950 . S
C375 C374 1.349 . S
C375 C391 1.349 . S
C376 C374 1.327 . S
C376 C395 1.429 . S
C376 H400 0.950 . S
C377 C394 1.574 1_655 S
C377 C396 1.368 . S
C377 H401 0.949 . S
H378 C382 0.949 . S
C379 C380 1.349 . S
C379 C381 1.327 . S
C379 H402 0.950 . S
C380 C379 1.349 . S
C380 C392 1.349 . S
C381 C379 1.327 . S
C381 C397 1.429 . S
C381 H403 0.950 . S
C382 H378 0.949 . S
C382 C390 1.574 1_455 S
C382 C398 1.368 . S
H383 C391 0.950 . S
H384 C389 0.950 . S
H385 C390 0.949 . S
H386 C392 0.950 . S
H387 C393 0.950 . S
H388 C394 0.949 . S
C389 H384 0.950 . S
C389 C391 1.327 . S
C389 C395 1.429 . S
C390 C382 1.574 1_655 S
C390 H385 0.949 . S
C390 C396 1.368 . S
C391 C375 1.349 . S
C391 H383 0.950 . S
C391 C389 1.327 . S
C392 C380 1.349 . S
C392 H386 0.950 . S
C392 C393 1.327 . S
C393 H387 0.950 . S
C393 C392 1.327 . S
C393 C397 1.429 . S
C394 C377 1.574 1_455 S
C394 H388 0.949 . S
C394 C398 1.368 . S
C395 C376 1.429 . S
C395 C389 1.429 . S
C395 C396 1.523 . S
C396 C377 1.368 . S
C396 C390 1.368 . S
C396 C395 1.523 . S
C397 C381 1.429 . S
C397 C393 1.429 . S
C397 C398 1.523 . S
C398 C382 1.368 . S
C398 C394 1.368 . S
C398 C397 1.523 . S
H399 C374 0.950 . S
H400 C376 0.950 . S
H401 C377 0.949 . S
H402 C379 0.950 . S
H403 C381 0.950 . S
C404 C405 1.349 . S
C404 C406 1.327 . S
C404 H429 0.950 . S
C405 C404 1.349 . S
C405 C421 1.349 . S
C406 C404 1.327 . S
C406 C425 1.429 . S
C406 H430 0.950 . S
C407 C424 1.574 1_545 S
C407 C426 1.368 . S
C407 H431 0.949 . S
H408 C412 0.949 . S
C409 C410 1.349 . S
C409 C411 1.327 . S
C409 H432 0.950 . S
C410 C409 1.349 . S
C410 C422 1.349 . S
C411 C409 1.327 . S
C411 C427 1.429 . S
C411 H433 0.950 . S
C412 H408 0.949 . S
C412 C420 1.574 1_565 S
C412 C428 1.368 . S
H413 C421 0.950 . S
H414 C419 0.950 . S
H415 C420 0.949 . S
H416 C422 0.950 . S
H417 C423 0.950 . S
H418 C424 0.949 . S
C419 H414 0.950 . S
C419 C421 1.327 . S
C419 C425 1.429 . S
C420 C412 1.574 1_545 S
C420 H415 0.949 . S
C420 C426 1.368 . S
C421 C405 1.349 . S
C421 H413 0.950 . S
C421 C419 1.327 . S
C422 C410 1.349 . S
C422 H416 0.950 . S
C422 C423 1.327 . S
C423 H417 0.950 . S
C423 C422 1.327 . S
C423 C427 1.429 . S
C424 C407 1.574 1_565 S
C424 H418 0.949 . S
C424 C428 1.368 . S
C425 C406 1.429 . S
C425 C419 1.429 . S
C425 C426 1.523 . S
C426 C407 1.368 . S
C426 C420 1.368 . S
C426 C425 1.523 . S
C427 C411 1.429 . S
C427 C423 1.429 . S
C427 C428 1.523 . S
C428 C412 1.368 . S
C428 C424 1.368 . S
C428 C427 1.523 . S
H429 C404 0.950 . S
H430 C406 0.950 . S
H431 C407 0.949 . S
H432 C409 0.950 . S
H433 C411 0.950 . S
C434 C435 1.349 . S
C434 C436 1.327 . S
C434 H459 0.950 . S
C435 C434 1.349 . S
C435 C451 1.349 . S
C436 C434 1.327 . S
C436 C455 1.429 . S
C436 H460 0.950 . S
C437 C454 1.574 1_455 S
C437 C456 1.368 . S
C437 H461 0.949 . S
H438 C442 0.949 . S
C439 C440 1.349 . S
C439 C441 1.327 . S
C439 H462 0.950 . S
C440 C439 1.349 . S
C440 C452 1.349 . S
C441 C439 1.327 . S
C441 C457 1.429 . S
C441 H463 0.950 . S
C442 H438 0.949 . S
C442 C450 1.574 1_655 S
C442 C458 1.368 . S
H443 C451 0.950 . S
H444 C449 0.950 . S
H445 C450 0.949 . S
H446 C452 0.950 . S
H447 C453 0.950 . S
H448 C454 0.949 . S
C449 H444 0.950 . S
C449 C451 1.327 . S
C449 C455 1.429 . S
C450 C442 1.574 1_455 S
C450 H445 0.949 . S
C450 C456 1.368 . S
C451 C435 1.349 . S
C451 H443 0.950 . S
C451 C449 1.327 . S
C452 C440 1.349 . S
C452 H446 0.950 . S
C452 C453 1.327 . S
C453 H447 0.950 . S
C453 C452 1.327 . S
C453 C457 1.429 . S
C454 C437 1.574 1_655 S
C454 H448 0.949 . S
C454 C458 1.368 . S
C455 C436 1.429 . S
C455 C449 1.429 . S
C455 C456 1.523 . S
C456 C437 1.368 . S
C456 C450 1.368 . S
C456 C455 1.523 . S
C457 C441 1.429 . S
C457 C453 1.429 . S
C457 C458 1.523 . S
C458 C442 1.368 . S
C458 C454 1.368 . S
C458 C457 1.523 . S
H459 C434 0.950 . S
H460 C436 0.950 . S
H461 C437 0.949 . S
H462 C439 0.950 . S
H463 C441 0.950 . S
C464 C465 1.367 . S
C464 C466 1.327 . S
C464 H489 0.950 . S
C465 C464 1.367 . S
C465 C481 1.331 1_556 S
C466 C464 1.327 . S
C466 C485 1.435 . S
C466 H490 0.950 . S
C467 C484 1.574 . S
C467 C486 1.368 1_554 S
C467 H491 0.949 . S
H468 C472 0.949 . S
C469 C470 1.349 . S
C469 C471 1.327 . S
C469 H492 0.950 . S
C470 C469 1.349 . S
C470 C482 1.349 1_554 S
C471 C469 1.327 . S
C471 C487 1.440 . S
C471 H493 0.950 . S
C472 H468 0.949 . S
C472 C480 1.574 . S
C472 C488 1.362 1_556 S
H473 C481 0.950 . S
H474 C479 0.950 . S
H475 C480 0.949 . S
H476 C482 0.950 . S
H477 C483 0.950 . S
H478 C484 0.949 . S
C479 H474 0.950 . S
C479 C481 1.327 . S
C479 C485 1.422 1_554 S
C480 C472 1.574 . S
C480 H475 0.949 . S
C480 C486 1.369 . S
C481 C465 1.331 1_554 S
C481 H473 0.950 . S
C481 C479 1.327 . S
C482 C470 1.349 1_556 S
C482 H476 0.950 . S
C482 C483 1.327 . S
C483 H477 0.950 . S
C483 C482 1.327 . S
C483 C487 1.417 1_556 S
C484 C467 1.574 . S
C484 H478 0.949 . S
C484 C488 1.374 . S
C485 C466 1.435 . S
C485 C479 1.422 1_556 S
C485 C486 1.523 . S
C486 C467 1.368 1_556 S
C486 C480 1.369 . S
C486 C485 1.523 . S
C487 C471 1.440 . S
C487 C483 1.417 1_554 S
C487 C488 1.523 . S
C488 C472 1.362 1_554 S
C488 C484 1.374 . S
C488 C487 1.523 . S
H489 C464 0.950 . S
H490 C466 0.950 . S
H491 C467 0.949 . S
H492 C469 0.950 . S
H493 C471 0.950 . S
C494 C495 1.349 1_556 S
C494 C496 1.327 . S
C494 H519 0.950 . S
C495 C494 1.349 1_554 S
C495 C511 1.349 . S
C496 C494 1.327 . S
C496 C515 1.417 1_556 S
C496 H520 0.950 . S
C497 C514 1.574 . S
C497 C516 1.374 . S
C497 H521 0.949 . S
H498 C502 0.949 . S
C499 C500 1.331 1_554 S
C499 C501 1.327 . S
C499 H522 0.950 . S
C500 C499 1.331 1_556 S
C500 C512 1.367 . S
C501 C499 1.327 . S
C501 C517 1.422 1_554 S
C501 H523 0.950 . S
C502 H498 0.949 . S
C502 C510 1.574 . S
C502 C518 1.369 . S
H503 C511 0.950 . S
H504 C509 0.950 . S
H505 C510 0.949 . S
H506 C512 0.950 . S
H507 C513 0.950 . S
H508 C514 0.949 . S
C509 H504 0.950 . S
C509 C511 1.327 . S
C509 C515 1.440 . S
C510 C502 1.574 . S
C510 H505 0.949 . S
C510 C516 1.363 1_556 S
C511 C495 1.349 . S
C511 H503 0.950 . S
C511 C509 1.327 . S
C512 C500 1.367 . S
C512 H506 0.950 . S
C512 C513 1.327 . S
C513 H507 0.950 . S
C513 C512 1.327 . S
C513 C517 1.435 . S
C514 C497 1.574 . S
C514 H508 0.949 . S
C514 C518 1.368 1_554 S
C515 C496 1.417 1_554 S
C515 C509 1.440 . S
C515 C516 1.523 . S
C516 C497 1.374 . S
C516 C510 1.363 1_554 S
C516 C515 1.523 . S
C517 C501 1.422 1_556 S
C517 C513 1.435 . S
C517 C518 1.523 . S
C518 C502 1.369 . S
C518 C514 1.368 1_556 S
C518 C517 1.523 . S
H519 C494 0.950 . S
H520 C496 0.950 . S
H521 C497 0.949 . S
H522 C499 0.950 . S
H523 C501 0.950 . S
C524 C525 1.367 . S
C524 C526 1.327 . S
C524 H549 0.950 . S
C525 C524 1.367 . S
C525 C541 1.331 1_556 S
C526 C524 1.327 . S
C526 C545 1.435 . S
C526 H550 0.950 . S
C527 C544 1.574 . S
C527 C546 1.368 1_554 S
C527 H551 0.949 . S
H528 C532 0.949 . S
C529 C530 1.349 . S
C529 C531 1.327 . S
C529 H552 0.950 . S
C530 C529 1.349 . S
C530 C542 1.349 1_554 S
C531 C529 1.327 . S
C531 C547 1.440 . S
C531 H553 0.950 . S
C532 H528 0.949 . S
C532 C540 1.574 . S
C532 C548 1.362 1_556 S
H533 C541 0.950 . S
H534 C539 0.950 . S
H535 C540 0.949 . S
H536 C542 0.950 . S
H537 C543 0.950 . S
H538 C544 0.949 . S
C539 H534 0.950 . S
C539 C541 1.327 . S
C539 C545 1.422 1_554 S
C540 C532 1.574 . S
C540 H535 0.949 . S
C540 C546 1.369 . S
C541 C525 1.331 1_554 S
C541 H533 0.950 . S
C541 C539 1.327 . S
C542 C530 1.349 1_556 S
C542 H536 0.950 . S
C542 C543 1.327 . S
C543 H537 0.950 . S
C543 C542 1.327 . S
C543 C547 1.417 1_556 S
C544 C527 1.574 . S
C544 H538 0.949 . S
C544 C548 1.374 . S
C545 C526 1.435 . S
C545 C539 1.422 1_556 S
C545 C546 1.523 . S
C546 C527 1.368 1_556 S
C546 C540 1.369 . S
C546 C545 1.523 . S
C547 C531 1.440 . S
C547 C543 1.417 1_554 S
C547 C548 1.523 . S
C548 C532 1.362 1_554 S
C548 C544 1.374 . S
C548 C547 1.523 . S
H549 C524 0.950 . S
H550 C526 0.950 . S
H551 C527 0.949 . S
H552 C529 0.950 . S
H553 C531 0.950 . S
C554 C555 1.349 . S
C554 C556 1.327 . S
C554 H579 0.950 . S
C555 C554 1.349 . S
C555 C571 1.349 1_554 S
C556 C554 1.327 . S
C556 C575 1.439 . S
C556 H580 0.950 . S
C557 C574 1.574 . S
C557 C576 1.363 1_556 S
C557 H581 0.949 . S
H558 C562 0.949 . S
C559 C560 1.366 . S
C559 C561 1.327 . S
C559 H582 0.950 . S
C560 C559 1.366 . S
C560 C572 1.332 1_556 S
C561 C559 1.327 . S
C561 C577 1.435 . S
C561 H583 0.950 . S
C562 H558 0.949 . S
C562 C570 1.574 . S
C562 C578 1.368 1_554 S
H563 C571 0.950 . S
H564 C569 0.950 . S
H565 C570 0.949 . S
H566 C572 0.950 . S
H567 C573 0.950 . S
H568 C574 0.949 . S
C569 H564 0.950 . S
C569 C571 1.327 . S
C569 C575 1.418 1_556 S
C570 C562 1.574 . S
C570 H565 0.949 . S
C570 C576 1.374 . S
C571 C555 1.349 1_556 S
C571 H563 0.950 . S
C571 C569 1.327 . S
C572 C560 1.332 1_554 S
C572 H566 0.950 . S
C572 C573 1.327 . S
C573 H567 0.950 . S
C573 C572 1.327 . S
C573 C577 1.422 1_554 S
C574 C557 1.574 . S
C574 H568 0.949 . S
C574 C578 1.369 . S
C575 C556 1.439 . S
C575 C569 1.418 1_554 S
C575 C576 1.523 . S
C576 C557 1.363 1_554 S
C576 C570 1.374 . S
C576 C575 1.523 . S
C577 C561 1.435 . S
C577 C573 1.422 1_556 S
C577 C578 1.523 . S
C578 C562 1.368 1_556 S
C578 C574 1.369 . S
C578 C577 1.523 . S
H579 C554 0.950 . S
H580 C556 0.950 . S
H581 C557 0.949 . S
H582 C559 0.950 . S
H583 C561 0.950 . S
C584 C585 1.349 . S
C584 C586 1.327 . S
C584 H609 0.950 . S
C585 C584 1.349 . S
C585 C601 1.349 . S
C586 C584 1.327 . S
C586 C605 1.429 . S
C586 H610 0.950 . S
C587 C604 1.574 . S
C587 C606 1.368 . S
C587 H611 0.949 . S
H588 C592 0.949 . S
C589 C590 1.349 . S
C589 C591 1.327 . S
C589 H612 0.950 . S
C590 C589 1.349 . S
C590 C602 1.349 . S
C591 C589 1.327 . S
C591 C607 1.429 . S
C591 H613 0.950 . S
C592 H588 0.949 . S
C592 C600 1.574 . S
C592 C608 1.368 . S
H593 C601 0.950 . S
H594 C599 0.950 . S
H595 C600 0.949 . S
H596 C602 0.950 . S
H597 C603 0.950 . S
H598 C604 0.949 . S
C599 H594 0.950 . S
C599 C601 1.327 . S
C599 C605 1.429 . S
C600 C592 1.574 . S
C600 H595 0.949 . S
C600 C606 1.368 . S
C601 C585 1.349 . S
C601 H593 0.950 . S
C601 C599 1.327 . S
C602 C590 1.349 . S
C602 H596 0.950 . S
C602 C603 1.327 . S
C603 H597 0.950 . S
C603 C602 1.327 . S
C603 C607 1.429 . S
C604 C587 1.574 . S
C604 H598 0.949 . S
C604 C608 1.368 . S
C605 C586 1.429 . S
C605 C599 1.429 . S
C605 C606 1.523 . S
C606 C587 1.368 . S
C606 C600 1.368 . S
C606 C605 1.523 . S
C607 C591 1.429 . S
C607 C603 1.429 . S
C607 C608 1.523 . S
C608 C592 1.368 . S
C608 C604 1.368 . S
C608 C607 1.523 . S
H609 C584 0.950 . S
H610 C586 0.950 . S
H611 C587 0.949 . S
H612 C589 0.950 . S
H613 C591 0.950 . S
C614 C615 1.349 . S
C614 C616 1.327 . S
C614 H639 0.950 . S
C615 C614 1.349 . S
C615 C631 1.349 . S
C616 C614 1.327 . S
C616 C635 1.429 . S
C616 H640 0.950 . S
C617 C634 1.574 . S
C617 C636 1.368 . S
C617 H641 0.949 . S
H618 C622 0.949 . S
C619 C620 1.349 . S
C619 C621 1.327 . S
C619 H642 0.950 . S
C620 C619 1.349 . S
C620 C632 1.349 . S
C621 C619 1.327 . S
C621 C637 1.429 . S
C621 H643 0.950 . S
C622 H618 0.949 . S
C622 C630 1.574 . S
C622 C638 1.368 . S
H623 C631 0.950 . S
H624 C629 0.950 . S
H625 C630 0.949 . S
H626 C632 0.950 . S
H627 C633 0.950 . S
H628 C634 0.949 . S
C629 H624 0.950 . S
C629 C631 1.327 . S
C629 C635 1.429 . S
C630 C622 1.574 . S
C630 H625 0.949 . S
C630 C636 1.368 . S
C631 C615 1.349 . S
C631 H623 0.950 . S
C631 C629 1.327 . S
C632 C620 1.349 . S
C632 H626 0.950 . S
C632 C633 1.327 . S
C633 H627 0.950 . S
C633 C632 1.327 . S
C633 C637 1.429 . S
C634 C617 1.574 . S
C634 H628 0.949 . S
C634 C638 1.368 . S
C635 C616 1.429 . S
C635 C629 1.429 . S
C635 C636 1.523 . S
C636 C617 1.368 . S
C636 C630 1.368 . S
C636 C635 1.523 . S
C637 C621 1.429 . S
C637 C633 1.429 . S
C637 C638 1.523 . S
C638 C622 1.368 . S
C638 C634 1.368 . S
C638 C637 1.523 . S
H639 C614 0.950 . S
H640 C616 0.950 . S
H641 C617 0.949 . S
H642 C619 0.950 . S
H643 C621 0.950 . S
C644 C645 1.349 . S
C644 C646 1.327 . S
C644 H669 0.950 . S
C645 C644 1.349 . S
C645 C661 1.349 . S
C646 C644 1.327 . S
C646 C665 1.429 . S
C646 H670 0.950 . S
C647 C664 1.574 . S
C647 C666 1.368 . S
C647 H671 0.949 . S
H648 C652 0.949 . S
C649 C650 1.349 . S
C649 C651 1.327 . S
C649 H672 0.950 . S
C650 C649 1.349 . S
C650 C662 1.349 . S
C651 C649 1.327 . S
C651 C667 1.429 . S
C651 H673 0.950 . S
C652 H648 0.949 . S
C652 C660 1.574 . S
C652 C668 1.368 . S
H653 C661 0.950 . S
H654 C659 0.950 . S
H655 C660 0.949 . S
H656 C662 0.950 . S
H657 C663 0.950 . S
H658 C664 0.949 . S
C659 H654 0.950 . S
C659 C661 1.327 . S
C659 C665 1.429 . S
C660 C652 1.574 . S
C660 H655 0.949 . S
C660 C666 1.368 . S
C661 C645 1.349 . S
C661 H653 0.950 . S
C661 C659 1.327 . S
C662 C650 1.349 . S
C662 H656 0.950 . S
C662 C663 1.327 . S
C663 H657 0.950 . S
C663 C662 1.327 . S
C663 C667 1.429 . S
C664 C647 1.574 . S
C664 H658 0.949 . S
C664 C668 1.368 . S
C665 C646 1.429 . S
C665 C659 1.429 . S
C665 C666 1.523 . S
C666 C647 1.368 . S
C666 C660 1.368 . S
C666 C665 1.523 . S
C667 C651 1.429 . S
C667 C663 1.429 . S
C667 C668 1.523 . S
C668 C652 1.368 . S
C668 C664 1.368 . S
C668 C667 1.523 . S
H669 C644 0.950 . S
H670 C646 0.950 . S
H671 C647 0.949 . S
H672 C649 0.950 . S
H673 C651 0.950 . S
C674 C675 1.349 . S
C674 C676 1.327 . S
C674 H699 0.950 . S
C675 C674 1.349 . S
C675 C691 1.349 . S
C676 C674 1.327 . S
C676 C695 1.429 . S
C676 H700 0.950 . S
C677 C694 1.574 . S
C677 C696 1.368 . S
C677 H701 0.949 . S
H678 C682 0.949 . S
C679 C680 1.349 . S
C679 C681 1.327 . S
C679 H702 0.950 . S
C680 C679 1.349 . S
C680 C692 1.349 . S
C681 C679 1.327 . S
C681 C697 1.429 . S
C681 H703 0.950 . S
C682 H678 0.949 . S
C682 C690 1.574 . S
C682 C698 1.368 . S
H683 C691 0.950 . S
H684 C689 0.950 . S
H685 C690 0.949 . S
H686 C692 0.950 . S
H687 C693 0.950 . S
H688 C694 0.949 . S
C689 H684 0.950 . S
C689 C691 1.327 . S
C689 C695 1.429 . S
C690 C682 1.574 . S
C690 H685 0.949 . S
C690 C696 1.368 . S
C691 C675 1.349 . S
C691 H683 0.950 . S
C691 C689 1.327 . S
C692 C680 1.349 . S
C692 H686 0.950 . S
C692 C693 1.327 . S
C693 H687 0.950 . S
C693 C692 1.327 . S
C693 C697 1.429 . S
C694 C677 1.574 . S
C694 H688 0.949 . S
C694 C698 1.368 . S
C695 C676 1.429 . S
C695 C689 1.429 . S
C695 C696 1.523 . S
C696 C677 1.368 . S
C696 C690 1.368 . S
C696 C695 1.523 . S
C697 C681 1.429 . S
C697 C693 1.429 . S
C697 C698 1.523 . S
C698 C682 1.368 . S
C698 C694 1.368 . S
C698 C697 1.523 . S
H699 C674 0.950 . S
H700 C676 0.950 . S
H701 C677 0.949 . S
H702 C679 0.950 . S
H703 C681 0.950 . S
C704 C705 1.349 . S
C704 C706 1.327 . S
C704 H729 0.950 . S
C705 C704 1.349 . S
C705 C721 1.349 . S
C706 C704 1.327 . S
C706 C725 1.429 . S
C706 H730 0.950 . S
C707 C724 1.574 . S
C707 C726 1.368 . S
C707 H731 0.949 . S
H708 C712 0.949 . S
C709 C710 1.349 . S
C709 C711 1.327 . S
C709 H732 0.950 . S
C710 C709 1.349 . S
C710 C722 1.349 . S
C711 C709 1.327 . S
C711 C727 1.429 . S
C711 H733 0.950 . S
C712 H708 0.949 . S
C712 C720 1.574 . S
C712 C728 1.368 . S
H713 C721 0.950 . S
H714 C719 0.950 . S
H715 C720 0.949 . S
H716 C722 0.950 . S
H717 C723 0.950 . S
H718 C724 0.949 . S
C719 H714 0.950 . S
C719 C721 1.327 . S
C719 C725 1.429 . S
C720 C712 1.574 . S
C720 H715 0.949 . S
C720 C726 1.368 . S
C721 C705 1.349 . S
C721 H713 0.950 . S
C721 C719 1.327 . S
C722 C710 1.349 . S
C722 H716 0.950 . S
C722 C723 1.327 . S
C723 H717 0.950 . S
C723 C722 1.327 . S
C723 C727 1.429 . S
C724 C707 1.574 . S
C724 H718 0.949 . S
C724 C728 1.368 . S
C725 C706 1.429 . S
C725 C719 1.429 . S
C725 C726 1.523 . S
C726 C707 1.368 . S
C726 C720 1.368 . S
C726 C725 1.523 . S
C727 C711 1.429 . S
C727 C723 1.429 . S
C727 C728 1.523 . S
C728 C712 1.368 . S
C728 C724 1.368 . S
C728 C727 1.523 . S
H729 C704 0.950 . S
H730 C706 0.950 . S
H731 C707 0.949 . S
H732 C709 0.950 . S
H733 C711 0.950 . S
C734 C735 1.349 . S
C734 C736 1.327 . S
C734 H759 0.950 . S
C735 C734 1.349 . S
C735 C751 1.349 . S
C736 C734 1.327 . S
C736 C755 1.429 . S
C736 H760 0.950 . S
C737 C754 1.574 . S
C737 C756 1.368 . S
C737 H761 0.949 . S
H738 C742 0.949 . S
C739 C740 1.349 . S
C739 C741 1.327 . S
C739 H762 0.950 . S
C740 C739 1.349 . S
C740 C752 1.349 . S
C741 C739 1.327 . S
C741 C757 1.429 . S
C741 H763 0.950 . S
C742 H738 0.949 . S
C742 C750 1.574 . S
C742 C758 1.368 . S
H743 C751 0.950 . S
H744 C749 0.950 . S
H745 C750 0.949 . S
H746 C752 0.950 . S
H747 C753 0.950 . S
H748 C754 0.949 . S
C749 H744 0.950 . S
C749 C751 1.327 . S
C749 C755 1.429 . S
C750 C742 1.574 . S
C750 H745 0.949 . S
C750 C756 1.368 . S
C751 C735 1.349 . S
C751 H743 0.950 . S
C751 C749 1.327 . S
C752 C740 1.349 . S
C752 H746 0.950 . S
C752 C753 1.327 . S
C753 H747 0.950 . S
C753 C752 1.327 . S
C753 C757 1.429 . S
C754 C737 1.574 . S
C754 H748 0.949 . S
C754 C758 1.368 . S
C755 C736 1.429 . S
C755 C749 1.429 . S
C755 C756 1.523 . S
C756 C737 1.368 . S
C756 C750 1.368 . S
C756 C755 1.523 . S
C757 C741 1.429 . S
C757 C753 1.429 . S
C757 C758 1.523 . S
C758 C742 1.368 . S
C758 C754 1.368 . S
C758 C757 1.523 . S
H759 C734 0.950 . S
H760 C736 0.950 . S
H761 C737 0.949 . S
H762 C739 0.950 . S
H763 C741 0.950 . S
C764 C765 1.349 . S
C764 C766 1.327 . S
C764 H789 0.950 . S
C765 C764 1.349 . S
C765 C781 1.349 . S
C766 C764 1.327 . S
C766 C785 1.429 . S
C766 H790 0.950 . S
C767 C784 1.574 . S
C767 C786 1.368 . S
C767 H791 0.949 . S
H768 C772 0.949 . S
C769 C770 1.349 . S
C769 C771 1.327 . S
C769 H792 0.950 . S
C770 C769 1.349 . S
C770 C782 1.349 . S
C771 C769 1.327 . S
C771 C787 1.429 . S
C771 H793 0.950 . S
C772 H768 0.949 . S
C772 C780 1.574 . S
C772 C788 1.368 . S
H773 C781 0.950 . S
H774 C779 0.950 . S
H775 C780 0.949 . S
H776 C782 0.950 . S
H777 C783 0.950 . S
H778 C784 0.949 . S
C779 H774 0.950 . S
C779 C781 1.327 . S
C779 C785 1.429 . S
C780 C772 1.574 . S
C780 H775 0.949 . S
C780 C786 1.368 . S
C781 C765 1.349 . S
C781 H773 0.950 . S
C781 C779 1.327 . S
C782 C770 1.349 . S
C782 H776 0.950 . S
C782 C783 1.327 . S
C783 H777 0.950 . S
C783 C782 1.327 . S
C783 C787 1.429 . S
C784 C767 1.574 . S
C784 H778 0.949 . S
C784 C788 1.368 . S
C785 C766 1.429 . S
C785 C779 1.429 . S
C785 C786 1.523 . S
C786 C767 1.368 . S
C786 C780 1.368 . S
C786 C785 1.523 . S
C787 C771 1.429 . S
C787 C783 1.429 . S
C787 C788 1.523 . S
C788 C772 1.368 . S
C788 C784 1.368 . S
C788 C787 1.523 . S
H789 C764 0.950 . S
H790 C766 0.950 . S
H791 C767 0.949 . S
H792 C769 0.950 . S
H793 C771 0.950 . S
C794 C795 1.349 . S
C794 C796 1.327 . S
C794 H819 0.950 . S
C795 C794 1.349 . S
C795 C811 1.349 . S
C796 C794 1.327 . S
C796 C815 1.429 . S
C796 H820 0.950 . S
C797 C814 1.574 . S
C797 C816 1.368 . S
C797 H821 0.949 . S
H798 C802 0.949 . S
C799 C800 1.349 . S
C799 C801 1.327 . S
C799 H822 0.950 . S
C800 C799 1.349 . S
C800 C812 1.349 . S
C801 C799 1.327 . S
C801 C817 1.429 . S
C801 H823 0.950 . S
C802 H798 0.949 . S
C802 C810 1.574 . S
C802 C818 1.368 . S
H803 C811 0.950 . S
H804 C809 0.950 . S
H805 C810 0.949 . S
H806 C812 0.950 . S
H807 C813 0.950 . S
H808 C814 0.949 . S
C809 H804 0.950 . S
C809 C811 1.327 . S
C809 C815 1.429 . S
C810 C802 1.574 . S
C810 H805 0.949 . S
C810 C816 1.368 . S
C811 C795 1.349 . S
C811 H803 0.950 . S
C811 C809 1.327 . S
C812 C800 1.349 . S
C812 H806 0.950 . S
C812 C813 1.327 . S
C813 H807 0.950 . S
C813 C812 1.327 . S
C813 C817 1.429 . S
C814 C797 1.574 . S
C814 H808 0.949 . S
C814 C818 1.368 . S
C815 C796 1.429 . S
C815 C809 1.429 . S
C815 C816 1.523 . S
C816 C797 1.368 . S
C816 C810 1.368 . S
C816 C815 1.523 . S
C817 C801 1.429 . S
C817 C813 1.429 . S
C817 C818 1.523 . S
C818 C802 1.368 . S
C818 C814 1.368 . S
C818 C817 1.523 . S
H819 C794 0.950 . S
H820 C796 0.950 . S
H821 C797 0.949 . S
H822 C799 0.950 . S
H823 C801 0.950 . S
C824 C825 1.349 . S
C824 C826 1.327 . S
C824 H849 0.950 . S
C825 C824 1.349 . S
C825 C841 1.349 . S
C826 C824 1.327 . S
C826 C845 1.429 . S
C826 H850 0.950 . S
C827 C844 1.574 . S
C827 C846 1.368 . S
C827 H851 0.949 . S
H828 C832 0.949 . S
C829 C830 1.349 . S
C829 C831 1.327 . S
C829 H852 0.950 . S
C830 C829 1.349 . S
C830 C842 1.349 . S
C831 C829 1.327 . S
C831 C847 1.429 . S
C831 H853 0.950 . S
C832 H828 0.949 . S
C832 C840 1.574 . S
C832 C848 1.368 . S
H833 C841 0.950 . S
H834 C839 0.950 . S
H835 C840 0.949 . S
H836 C842 0.950 . S
H837 C843 0.950 . S
H838 C844 0.949 . S
C839 H834 0.950 . S
C839 C841 1.327 . S
C839 C845 1.429 . S
C840 C832 1.574 . S
C840 H835 0.949 . S
C840 C846 1.368 . S
C841 C825 1.349 . S
C841 H833 0.950 . S
C841 C839 1.327 . S
C842 C830 1.349 . S
C842 H836 0.950 . S
C842 C843 1.327 . S
C843 H837 0.950 . S
C843 C842 1.327 . S
C843 C847 1.429 . S
C844 C827 1.574 . S
C844 H838 0.949 . S
C844 C848 1.368 . S
C845 C826 1.429 . S
C845 C839 1.429 . S
C845 C846 1.523 . S
C846 C827 1.368 . S
C846 C840 1.368 . S
C846 C845 1.523 . S
C847 C831 1.429 . S
C847 C843 1.429 . S
C847 C848 1.523 . S
C848 C832 1.368 . S
C848 C844 1.368 . S
C848 C847 1.523 . S
H849 C824 0.950 . S
H850 C826 0.950 . S
H851 C827 0.949 . S
H852 C829 0.950 . S
H853 C831 0.950 . S
C854 C855 1.349 . S
C854 C856 1.327 . S
C854 H879 0.950 . S
C855 C854 1.349 . S
C855 C871 1.349 . S
C856 C854 1.327 . S
C856 C875 1.429 . S
C856 H880 0.950 . S
C857 C874 1.574 . S
C857 C876 1.368 . S
C857 H881 0.949 . S
H858 C862 0.949 . S
C859 C860 1.349 . S
C859 C861 1.327 . S
C859 H882 0.950 . S
C860 C859 1.349 . S
C860 C872 1.349 . S
C861 C859 1.327 . S
C861 C877 1.429 . S
C861 H883 0.950 . S
C862 H858 0.949 . S
C862 C870 1.574 . S
C862 C878 1.368 . S
H863 C871 0.950 . S
H864 C869 0.950 . S
H865 C870 0.949 . S
H866 C872 0.950 . S
H867 C873 0.950 . S
H868 C874 0.949 . S
C869 H864 0.950 . S
C869 C871 1.327 . S
C869 C875 1.429 . S
C870 C862 1.574 . S
C870 H865 0.949 . S
C870 C876 1.368 . S
C871 C855 1.349 . S
C871 H863 0.950 . S
C871 C869 1.327 . S
C872 C860 1.349 . S
C872 H866 0.950 . S
C872 C873 1.327 . S
C873 H867 0.950 . S
C873 C872 1.327 . S
C873 C877 1.429 . S
C874 C857 1.574 . S
C874 H868 0.949 . S
C874 C878 1.368 . S
C875 C856 1.429 . S
C875 C869 1.429 . S
C875 C876 1.523 . S
C876 C857 1.368 . S
C876 C870 1.368 . S
C876 C875 1.523 . S
C877 C861 1.429 . S
C877 C873 1.429 . S
C877 C878 1.523 . S
C878 C862 1.368 . S
C878 C874 1.368 . S
C878 C877 1.523 . S
H879 C854 0.950 . S
H880 C856 0.950 . S
H881 C857 0.949 . S
H882 C859 0.950 . S
H883 C861 0.950 . S
C884 C885 1.349 . S
C884 C886 1.327 . S
C884 H909 0.950 . S
C885 C884 1.349 . S
C885 C901 1.349 . S
C886 C884 1.327 . S
C886 C905 1.429 . S
C886 H910 0.950 . S
C887 C904 1.574 . S
C887 C906 1.368 . S
C887 H911 0.949 . S
H888 C892 0.949 . S
C889 C890 1.349 . S
C889 C891 1.327 . S
C889 H912 0.950 . S
C890 C889 1.349 . S
C890 C902 1.349 . S
C891 C889 1.327 . S
C891 C907 1.429 . S
C891 H913 0.950 . S
C892 H888 0.949 . S
C892 C900 1.574 . S
C892 C908 1.368 . S
H893 C901 0.950 . S
H894 C899 0.950 . S
H895 C900 0.949 . S
H896 C902 0.950 . S
H897 C903 0.950 . S
H898 C904 0.949 . S
C899 H894 0.950 . S
C899 C901 1.327 . S
C899 C905 1.429 . S
C900 C892 1.574 . S
C900 H895 0.949 . S
C900 C906 1.368 . S
C901 C885 1.349 . S
C901 H893 0.950 . S
C901 C899 1.327 . S
C902 C890 1.349 . S
C902 H896 0.950 . S
C902 C903 1.327 . S
C903 H897 0.950 . S
C903 C902 1.327 . S
C903 C907 1.429 . S
C904 C887 1.574 . S
C904 H898 0.949 . S
C904 C908 1.368 . S
C905 C886 1.429 . S
C905 C899 1.429 . S
C905 C906 1.523 . S
C906 C887 1.368 . S
C906 C900 1.368 . S
C906 C905 1.523 . S
C907 C891 1.429 . S
C907 C903 1.429 . S
C907 C908 1.523 . S
C908 C892 1.368 . S
C908 C904 1.368 . S
C908 C907 1.523 . S
H909 C884 0.950 . S
H910 C886 0.950 . S
H911 C887 0.949 . S
H912 C889 0.950 . S
H913 C891 0.950 . S
C914 C915 1.349 . S
C914 C916 1.327 . S
C914 H939 0.950 . S
C915 C914 1.349 . S
C915 C931 1.349 . S
C916 C914 1.327 . S
C916 C935 1.429 . S
C916 H940 0.950 . S
C917 C934 1.574 . S
C917 C936 1.368 . S
C917 H941 0.949 . S
H918 C922 0.949 . S
C919 C920 1.349 . S
C919 C921 1.327 . S
C919 H942 0.950 . S
C920 C919 1.349 . S
C920 C932 1.349 . S
C921 C919 1.327 . S
C921 C937 1.429 . S
C921 H943 0.950 . S
C922 H918 0.949 . S
C922 C930 1.574 . S
C922 C938 1.368 . S
H923 C931 0.950 . S
H924 C929 0.950 . S
H925 C930 0.949 . S
H926 C932 0.950 . S
H927 C933 0.950 . S
H928 C934 0.949 . S
C929 H924 0.950 . S
C929 C931 1.327 . S
C929 C935 1.429 . S
C930 C922 1.574 . S
C930 H925 0.949 . S
C930 C936 1.368 . S
C931 C915 1.349 . S
C931 H923 0.950 . S
C931 C929 1.327 . S
C932 C920 1.349 . S
C932 H926 0.950 . S
C932 C933 1.327 . S
C933 H927 0.950 . S
C933 C932 1.327 . S
C933 C937 1.429 . S
C934 C917 1.574 . S
C934 H928 0.949 . S
C934 C938 1.368 . S
C935 C916 1.429 . S
C935 C929 1.429 . S
C935 C936 1.523 . S
C936 C917 1.368 . S
C936 C930 1.368 . S
C936 C935 1.523 . S
C937 C921 1.429 . S
C937 C933 1.429 . S
C937 C938 1.523 . S
C938 C922 1.368 . S
C938 C934 1.368 . S
C938 C937 1.523 . S
H939 C914 0.950 . S
H940 C916 0.950 . S
H941 C917 0.949 . S
H942 C919 0.950 . S
H943 C921 0.950 . S
C944 C945 1.349 . S
C944 C946 1.327 . S
C944 H969 0.950 . S
C945 C944 1.349 . S
C945 C961 1.349 . S
C946 C944 1.327 . S
C946 C965 1.429 . S
C946 H970 0.950 . S
C947 C964 1.574 . S
C947 C966 1.368 . S
C947 H971 0.949 . S
H948 C952 0.949 . S
C949 C950 1.349 . S
C949 C951 1.327 . S
C949 H972 0.950 . S
C950 C949 1.349 . S
C950 C962 1.349 . S
C951 C949 1.327 . S
C951 C967 1.429 . S
C951 H973 0.950 . S
C952 H948 0.949 . S
C952 C960 1.574 . S
C952 C968 1.368 . S
H953 C961 0.950 . S
H954 C959 0.950 . S
H955 C960 0.949 . S
H956 C962 0.950 . S
H957 C963 0.950 . S
H958 C964 0.949 . S
C959 H954 0.950 . S
C959 C961 1.327 . S
C959 C965 1.429 . S
C960 C952 1.574 . S
C960 H955 0.949 . S
C960 C966 1.368 . S
C961 C945 1.349 . S
C961 H953 0.950 . S
C961 C959 1.327 . S
C962 C950 1.349 . S
C962 H956 0.950 . S
C962 C963 1.327 . S
C963 H957 0.950 . S
C963 C962 1.327 . S
C963 C967 1.429 . S
C964 C947 1.574 . S
C964 H958 0.949 . S
C964 C968 1.368 . S
C965 C946 1.429 . S
C965 C959 1.429 . S
C965 C966 1.523 . S
C966 C947 1.368 . S
C966 C960 1.368 . S
C966 C965 1.523 . S
C967 C951 1.429 . S
C967 C963 1.429 . S
C967 C968 1.523 . S
C968 C952 1.368 . S
C968 C964 1.368 . S
C968 C967 1.523 . S
H969 C944 0.950 . S
H970 C946 0.950 . S
H971 C947 0.949 . S
H972 C949 0.950 . S
H973 C951 0.950 . S
C974 C975 1.349 . S
C974 C976 1.327 . S
C974 H999 0.950 . S
C975 C974 1.349 . S
C975 C991 1.349 . S
C976 C974 1.327 . S
C976 C995 1.429 . S
C976 H1000 0.950 . S
C977 C994 1.574 . S
C977 C996 1.368 . S
C977 H1001 0.949 . S
H978 C982 0.949 . S
C979 C980 1.349 . S
C979 C981 1.327 . S
C979 H1002 0.950 . S
C980 C979 1.349 . S
C980 C992 1.349 . S
C981 C979 1.327 . S
C981 C997 1.429 . S
C981 H1003 0.950 . S
C982 H978 0.949 . S
C982 C990 1.574 . S
C982 C998 1.368 . S
H983 C991 0.950 . S
H984 C989 0.950 . S
H985 C990 0.949 . S
H986 C992 0.950 . S
H987 C993 0.950 . S
H988 C994 0.949 . S
C989 H984 0.950 . S
C989 C991 1.327 . S
C989 C995 1.429 . S
C990 C982 1.574 . S
C990 H985 0.949 . S
C990 C996 1.368 . S
C991 C975 1.349 . S
C991 H983 0.950 . S
C991 C989 1.327 . S
C992 C980 1.349 . S
C992 H986 0.950 . S
C992 C993 1.327 . S
C993 H987 0.950 . S
C993 C992 1.327 . S
C993 C997 1.429 . S
C994 C977 1.574 . S
C994 H988 0.949 . S
C994 C998 1.368 . S
C995 C976 1.429 . S
C995 C989 1.429 . S
C995 C996 1.523 . S
C996 C977 1.368 . S
C996 C990 1.368 . S
C996 C995 1.523 . S
C997 C981 1.429 . S
C997 C993 1.429 . S
C997 C998 1.523 . S
C998 C982 1.368 . S
C998 C994 1.368 . S
C998 C997 1.523 . S
H999 C974 0.950 . S
H1000 C976 0.950 . S
H1001 C977 0.949 . S
H1002 C979 0.950 . S
H1003 C981 0.950 . S
C1004 C1005 1.349 . S
C1004 C1006 1.327 . S
C1004 H1029 0.950 . S
C1005 C1004 1.349 . S
C1005 C1021 1.349 . S
C1006 C1004 1.327 . S
C1006 C1025 1.429 . S
C1006 H1030 0.950 . S
C1007 C1024 1.574 . S
C1007 C1026 1.368 . S
C1007 H1031 0.949 . S
H1008 C1012 0.949 . S
C1009 C1010 1.349 . S
C1009 C1011 1.327 . S
C1009 H1032 0.950 . S
C1010 C1009 1.349 . S
C1010 C1022 1.349 . S
C1011 C1009 1.327 . S
C1011 C1027 1.429 . S
C1011 H1033 0.950 . S
C1012 H1008 0.949 . S
C1012 C1020 1.574 . S
C1012 C1028 1.368 . S
H1013 C1021 0.950 . S
H1014 C1019 0.950 . S
H1015 C1020 0.949 . S
H1016 C1022 0.950 . S
H1017 C1023 0.950 . S
H1018 C1024 0.949 . S
C1019 H1014 0.950 . S
C1019 C1021 1.327 . S
C1019 C1025 1.429 . S
C1020 C1012 1.574 . S
C1020 H1015 0.949 . S
C1020 C1026 1.368 . S
C1021 C1005 1.349 . S
C1021 H1013 0.950 . S
C1021 C1019 1.327 . S
C1022 C1010 1.349 . S
C1022 H1016 0.950 . S
C1022 C1023 1.327 . S
C1023 H1017 0.950 . S
C1023 C1022 1.327 . S
C1023 C1027 1.429 . S
C1024 C1007 1.574 . S
C1024 H1018 0.949 . S
C1024 C1028 1.368 . S
C1025 C1006 1.429 . S
C1025 C1019 1.429 . S
C1025 C1026 1.523 . S
C1026 C1007 1.368 . S
C1026 C1020 1.368 . S
C1026 C1025 1.523 . S
C1027 C1011 1.429 . S
C1027 C1023 1.429 . S
C1027 C1028 1.523 . S
C1028 C1012 1.368 . S
C1028 C1024 1.368 . S
C1028 C1027 1.523 . S
H1029 C1004 0.950 . S
H1030 C1006 0.950 . S
H1031 C1007 0.949 . S
H1032 C1009 0.950 . S
H1033 C1011 0.950 . S
C1034 C1035 1.349 . S
C1034 C1036 1.327 . S
C1034 H1059 0.950 . S
C1035 C1034 1.349 . S
C1035 C1051 1.349 . S
C1036 C1034 1.327 . S
C1036 C1055 1.429 . S
C1036 H1060 0.950 . S
C1037 C1054 1.574 . S
C1037 C1056 1.368 . S
C1037 H1061 0.949 . S
H1038 C1042 0.949 . S
C1039 C1040 1.349 . S
C1039 C1041 1.327 . S
C1039 H1062 0.950 . S
C1040 C1039 1.349 . S
C1040 C1052 1.349 . S
C1041 C1039 1.327 . S
C1041 C1057 1.429 . S
C1041 H1063 0.950 . S
C1042 H1038 0.949 . S
C1042 C1050 1.574 . S
C1042 C1058 1.368 . S
H1043 C1051 0.950 . S
H1044 C1049 0.950 . S
H1045 C1050 0.949 . S
H1046 C1052 0.950 . S
H1047 C1053 0.950 . S
H1048 C1054 0.949 . S
C1049 H1044 0.950 . S
C1049 C1051 1.327 . S
C1049 C1055 1.429 . S
C1050 C1042 1.574 . S
C1050 H1045 0.949 . S
C1050 C1056 1.368 . S
C1051 C1035 1.349 . S
C1051 H1043 0.950 . S
C1051 C1049 1.327 . S
C1052 C1040 1.349 . S
C1052 H1046 0.950 . S
C1052 C1053 1.327 . S
C1053 H1047 0.950 . S
C1053 C1052 1.327 . S
C1053 C1057 1.429 . S
C1054 C1037 1.574 . S
C1054 H1048 0.949 . S
C1054 C1058 1.368 . S
C1055 C1036 1.429 . S
C1055 C1049 1.429 . S
C1055 C1056 1.523 . S
C1056 C1037 1.368 . S
C1056 C1050 1.368 . S
C1056 C1055 1.523 . S
C1057 C1041 1.429 . S
C1057 C1053 1.429 . S
C1057 C1058 1.523 . S
C1058 C1042 1.368 . S
C1058 C1054 1.368 . S
C1058 C1057 1.523 . S
H1059 C1034 0.950 . S
H1060 C1036 0.950 . S
H1061 C1037 0.949 . S
H1062 C1039 0.950 . S
H1063 C1041 0.950 . S
C1064 C1065 1.349 . S
C1064 C1066 1.327 . S
C1064 H1089 0.950 . S
C1065 C1064 1.349 . S
C1065 C1081 1.349 . S
C1066 C1064 1.327 . S
C1066 C1085 1.429 . S
C1066 H1090 0.950 . S
C1067 C1084 1.574 . S
C1067 C1086 1.368 . S
C1067 H1091 0.949 . S
H1068 C1072 0.949 . S
C1069 C1070 1.349 . S
C1069 C1071 1.327 . S
C1069 H1092 0.950 . S
C1070 C1069 1.349 . S
C1070 C1082 1.349 . S
C1071 C1069 1.327 . S
C1071 C1087 1.429 . S
C1071 H1093 0.950 . S
C1072 H1068 0.949 . S
C1072 C1080 1.574 . S
C1072 C1088 1.368 . S
H1073 C1081 0.950 . S
H1074 C1079 0.950 . S
H1075 C1080 0.949 . S
H1076 C1082 0.950 . S
H1077 C1083 0.950 . S
H1078 C1084 0.949 . S
C1079 H1074 0.950 . S
C1079 C1081 1.327 . S
C1079 C1085 1.429 . S
C1080 C1072 1.574 . S
C1080 H1075 0.949 . S
C1080 C1086 1.368 . S
C1081 C1065 1.349 . S
C1081 H1073 0.950 . S
C1081 C1079 1.327 . S
C1082 C1070 1.349 . S
C1082 H1076 0.950 . S
C1082 C1083 1.327 . S
C1083 H1077 0.950 . S
C1083 C1082 1.327 . S
C1083 C1087 1.429 . S
C1084 C1067 1.574 . S
C1084 H1078 0.949 . S
C1084 C1088 1.368 . S
C1085 C1066 1.429 . S
C1085 C1079 1.429 . S
C1085 C1086 1.523 . S
C1086 C1067 1.368 . S
C1086 C1080 1.368 . S
C1086 C1085 1.523 . S
C1087 C1071 1.429 . S
C1087 C1083 1.429 . S
C1087 C1088 1.523 . S
C1088 C1072 1.368 . S
C1088 C1084 1.368 . S
C1088 C1087 1.523 . S
H1089 C1064 0.950 . S
H1090 C1066 0.950 . S
H1091 C1067 0.949 . S
H1092 C1069 0.950 . S
H1093 C1071 0.950 . S
C1094 C1095 1.349 . S
C1094 C1096 1.327 . S
C1094 H1119 0.950 . S
C1095 C1094 1.349 . S
C1095 C1111 1.349 . S
C1096 C1094 1.327 . S
C1096 C1115 1.429 . S
C1096 H1120 0.950 . S
C1097 C1114 1.574 . S
C1097 C1116 1.368 . S
C1097 H1121 0.949 . S
H1098 C1102 0.949 . S
C1099 C1100 1.349 . S
C1099 C1101 1.327 . S
C1099 H1122 0.950 . S
C1100 C1099 1.349 . S
C1100 C1112 1.349 . S
C1101 C1099 1.327 . S
C1101 C1117 1.429 . S
C1101 H1123 0.950 . S
C1102 H1098 0.949 . S
C1102 C1110 1.574 . S
C1102 C1118 1.368 . S
H1103 C1111 0.950 . S
H1104 C1109 0.950 . S
H1105 C1110 0.949 . S
H1106 C1112 0.950 . S
H1107 C1113 0.950 . S
H1108 C1114 0.949 . S
C1109 H1104 0.950 . S
C1109 C1111 1.327 . S
C1109 C1115 1.429 . S
C1110 C1102 1.574 . S
C1110 H1105 0.949 . S
C1110 C1116 1.368 . S
C1111 C1095 1.349 . S
C1111 H1103 0.950 . S
C1111 C1109 1.327 . S
C1112 C1100 1.349 . S
C1112 H1106 0.950 . S
C1112 C1113 1.327 . S
C1113 H1107 0.950 . S
C1113 C1112 1.327 . S
C1113 C1117 1.429 . S
C1114 C1097 1.574 . S
C1114 H1108 0.949 . S
C1114 C1118 1.368 . S
C1115 C1096 1.429 . S
C1115 C1109 1.429 . S
C1115 C1116 1.523 . S
C1116 C1097 1.368 . S
C1116 C1110 1.368 . S
C1116 C1115 1.523 . S
C1117 C1101 1.429 . S
C1117 C1113 1.429 . S
C1117 C1118 1.523 . S
C1118 C1102 1.368 . S
C1118 C1114 1.368 . S
C1118 C1117 1.523 . S
H1119 C1094 0.950 . S
H1120 C1096 0.950 . S
H1121 C1097 0.949 . S
H1122 C1099 0.950 . S
H1123 C1101 0.950 . S
C1124 C1125 1.349 . S
C1124 C1126 1.327 . S
C1124 H1149 0.950 . S
C1125 C1124 1.349 . S
C1125 C1141 1.349 . S
C1126 C1124 1.327 . S
C1126 C1145 1.429 . S
C1126 H1150 0.950 . S
C1127 C1144 1.574 . S
C1127 C1146 1.368 . S
C1127 H1151 0.949 . S
H1128 C1132 0.949 . S
C1129 C1130 1.349 . S
C1129 C1131 1.327 . S
C1129 H1152 0.950 . S
C1130 C1129 1.349 . S
C1130 C1142 1.349 . S
C1131 C1129 1.327 . S
C1131 C1147 1.429 . S
C1131 H1153 0.950 . S
C1132 H1128 0.949 . S
C1132 C1140 1.574 . S
C1132 C1148 1.368 . S
H1133 C1141 0.950 . S
H1134 C1139 0.950 . S
H1135 C1140 0.949 . S
H1136 C1142 0.950 . S
H1137 C1143 0.950 . S
H1138 C1144 0.949 . S
C1139 H1134 0.950 . S
C1139 C1141 1.327 . S
C1139 C1145 1.429 . S
C1140 C1132 1.574 . S
C1140 H1135 0.949 . S
C1140 C1146 1.368 . S
C1141 C1125 1.349 . S
C1141 H1133 0.950 . S
C1141 C1139 1.327 . S
C1142 C1130 1.349 . S
C1142 H1136 0.950 . S
C1142 C1143 1.327 . S
C1143 H1137 0.950 . S
C1143 C1142 1.327 . S
C1143 C1147 1.429 . S
C1144 C1127 1.574 . S
C1144 H1138 0.949 . S
C1144 C1148 1.368 . S
C1145 C1126 1.429 . S
C1145 C1139 1.429 . S
C1145 C1146 1.523 . S
C1146 C1127 1.368 . S
C1146 C1140 1.368 . S
C1146 C1145 1.523 . S
C1147 C1131 1.429 . S
C1147 C1143 1.429 . S
C1147 C1148 1.523 . S
C1148 C1132 1.368 . S
C1148 C1144 1.368 . S
C1148 C1147 1.523 . S
H1149 C1124 0.950 . S
H1150 C1126 0.950 . S
H1151 C1127 0.949 . S
H1152 C1129 0.950 . S
H1153 C1131 0.950 . S
C1154 C1155 1.349 . S
C1154 C1156 1.327 . S
C1154 H1179 0.950 . S
C1155 C1154 1.349 . S
C1155 C1171 1.349 . S
C1156 C1154 1.327 . S
C1156 C1175 1.429 . S
C1156 H1180 0.950 . S
C1157 C1174 1.574 . S
C1157 C1176 1.368 . S
C1157 H1181 0.949 . S
H1158 C1162 0.949 . S
C1159 C1160 1.349 . S
C1159 C1161 1.327 . S
C1159 H1182 0.950 . S
C1160 C1159 1.349 . S
C1160 C1172 1.349 . S
C1161 C1159 1.327 . S
C1161 C1177 1.429 . S
C1161 H1183 0.950 . S
C1162 H1158 0.949 . S
C1162 C1170 1.574 . S
C1162 C1178 1.368 . S
H1163 C1171 0.950 . S
H1164 C1169 0.950 . S
H1165 C1170 0.949 . S
H1166 C1172 0.950 . S
H1167 C1173 0.950 . S
H1168 C1174 0.949 . S
C1169 H1164 0.950 . S
C1169 C1171 1.327 . S
C1169 C1175 1.429 . S
C1170 C1162 1.574 . S
C1170 H1165 0.949 . S
C1170 C1176 1.368 . S
C1171 C1155 1.349 . S
C1171 H1163 0.950 . S
C1171 C1169 1.327 . S
C1172 C1160 1.349 . S
C1172 H1166 0.950 . S
C1172 C1173 1.327 . S
C1173 H1167 0.950 . S
C1173 C1172 1.327 . S
C1173 C1177 1.429 . S
C1174 C1157 1.574 . S
C1174 H1168 0.949 . S
C1174 C1178 1.368 . S
C1175 C1156 1.429 . S
C1175 C1169 1.429 . S
C1175 C1176 1.523 . S
C1176 C1157 1.368 . S
C1176 C1170 1.368 . S
C1176 C1175 1.523 . S
C1177 C1161 1.429 . S
C1177 C1173 1.429 . S
C1177 C1178 1.523 . S
C1178 C1162 1.368 . S
C1178 C1174 1.368 . S
C1178 C1177 1.523 . S
H1179 C1154 0.950 . S
H1180 C1156 0.950 . S
H1181 C1157 0.949 . S
H1182 C1159 0.950 . S
H1183 C1161 0.950 . S
C225 C64 1.393 1_556 S
C230 C8 1.393 1_554 S
C255 C78 1.393 1_556 S
C260 C22 1.393 1_554 S
C285 C92 1.393 1_556 S
C290 C36 1.393 1_554 S
C315 C106 1.393 1_556 S
C320 C50 1.393 1_554 S
C345 C176 1.393 . S
C350 C120 1.393 . S
C375 C190 1.393 . S
C380 C134 1.393 . S
C405 C148 1.393 . S
C410 C204 1.393 . S
C435 C218 1.393 . S
C440 C162 1.393 . S
C465 C9 1.463 . S
C470 C79 1.462 . S
C495 C93 1.462 . S
C500 C23 1.463 . S
C525 C37 1.463 . S
C530 C107 1.462 . S
C555 C65 1.462 . S
C560 C51 1.463 . S
C585 C191 1.462 . S
C590 C121 1.462 . S
C615 C205 1.462 . S
C620 C135 1.462 . S
C645 C149 1.462 . S
C650 C219 1.462 . S
C675 C163 1.462 . S
C680 C177 1.462 . S
C705 C217 1.344 . S
C710 C7 1.340 . S
C735 C175 1.344 . S
C740 C21 1.340 . S
C765 C189 1.344 . S
C770 C35 1.340 . S
C795 C203 1.344 . S
C800 C49 1.340 . S
C825 C133 1.344 . S
C830 C63 1.347 . S
C855 C147 1.344 . S
C860 C77 1.347 . S
C885 C91 1.344 . S
C890 C161 1.347 . S
C915 C105 1.344 . S
C920 C119 1.347 . S
C945 C185 1.337 . S
C950 C31 1.340 . S
C975 C199 1.337 . S
C980 C45 1.340 . S
C1005 C213 1.337 . S
C1010 C3 1.340 . S
C1035 C17 1.337 . S
C1040 C171 1.340 . S
C1065 C157 1.337 . S
C1070 C87 1.334 . S
C1095 C101 1.337 . S
C1100 C115 1.334 . S
C1125 C129 1.337 . S
C1130 C59 1.334 . S
C1155 C143 1.337 . S
C1160 C73 1.334 . S
