# Generated by pormake.
# Topology sod, (4)-cn, num edge types: 1
# Building blocks:
#     Node 0, Type 0, BuildingBlock: NAHDIM_clean_sbu_0, # of connection points: 4
#     Node 1, Type 0, BuildingBlock: NAHDIM_clean_sbu_0, # of connection points: 4
#     Node 2, Type 0, BuildingBlock: NAHDIM_clean_sbu_0, # of connection points: 4
#     Node 3, Type 0, BuildingBlock: NAHDIM_clean_sbu_0, # of connection points: 4
#     Node 4, Type 0, BuildingBlock: NAHDIM_clean_sbu_0, # of connection points: 4
#     Node 5, Type 0, BuildingBlock: NAHDIM_clean_sbu_0, # of connection points: 4
#     Node 6, Type 0, BuildingBlock: NAHDIM_clean_sbu_0, # of connection points: 4
#     Node 7, Type 0, BuildingBlock: NAHDIM_clean_sbu_0, # of connection points: 4
#     Node 8, Type 0, BuildingBlock: NAHDIM_clean_sbu_0, # of connection points: 4
#     Node 9, Type 0, BuildingBlock: NAHDIM_clean_sbu_0, # of connection points: 4
#     Node 10, Type 0, BuildingBlock: NAHDIM_clean_sbu_0, # of connection points: 4
#     Node 11, Type 0, BuildingBlock: NAHDIM_clean_sbu_0, # of connection points: 4
#     Edge 12, Type (0, 0), BuildingBlock: UVAHIK_clean_linker_0, # of connection points: 2
#     Edge 13, Type (0, 0), BuildingBlock: UVAHIK_clean_linker_0, # of connection points: 2
#     Edge 14, Type (0, 0), BuildingBlock: UVAHIK_clean_linker_0, # of connection points: 2
#     Edge 15, Type (0, 0), BuildingBlock: UVAHIK_clean_linker_0, # of connection points: 2
#     Edge 16, Type (0, 0), BuildingBlock: UVAHIK_clean_linker_0, # of connection points: 2
#     Edge 17, Type (0, 0), BuildingBlock: UVAHIK_clean_linker_0, # of connection points: 2
#     Edge 18, Type (0, 0), BuildingBlock: UVAHIK_clean_linker_0, # of connection points: 2
#     Edge 19, Type (0, 0), BuildingBlock: UVAHIK_clean_linker_0, # of connection points: 2
#     Edge 20, Type (0, 0), BuildingBlock: UVAHIK_clean_linker_0, # of connection points: 2
#     Edge 21, Type (0, 0), BuildingBlock: UVAHIK_clean_linker_0, # of connection points: 2
#     Edge 22, Type (0, 0), BuildingBlock: UVAHIK_clean_linker_0, # of connection points: 2
#     Edge 23, Type (0, 0), BuildingBlock: UVAHIK_clean_linker_0, # of connection points: 2
#     Edge 24, Type (0, 0), BuildingBlock: UVAHIK_clean_linker_0, # of connection points: 2
#     Edge 25, Type (0, 0), BuildingBlock: UVAHIK_clean_linker_0, # of connection points: 2
#     Edge 26, Type (0, 0), BuildingBlock: UVAHIK_clean_linker_0, # of connection points: 2
#     Edge 27, Type (0, 0), BuildingBlock: UVAHIK_clean_linker_0, # of connection points: 2
#     Edge 28, Type (0, 0), BuildingBlock: UVAHIK_clean_linker_0, # of connection points: 2
#     Edge 29, Type (0, 0), BuildingBlock: UVAHIK_clean_linker_0, # of connection points: 2
#     Edge 30, Type (0, 0), BuildingBlock: UVAHIK_clean_linker_0, # of connection points: 2
#     Edge 31, Type (0, 0), BuildingBlock: UVAHIK_clean_linker_0, # of connection points: 2
#     Edge 32, Type (0, 0), BuildingBlock: UVAHIK_clean_linker_0, # of connection points: 2
#     Edge 33, Type (0, 0), BuildingBlock: UVAHIK_clean_linker_0, # of connection points: 2
#     Edge 34, Type (0, 0), BuildingBlock: UVAHIK_clean_linker_0, # of connection points: 2
#     Edge 35, Type (0, 0), BuildingBlock: UVAHIK_clean_linker_0, # of connection points: 2
# Relax obj value: 0.090
# Max RMSD: 0.133
# Mean RMSD: 0.129
data_MOF--net-sod--node1-NAHDIM_clean_sbu_0--edge1-UVAHIK_clean_linker_0
_symmetry_space_group_name_H-M    P1
_symmetry_Int_Tables_number       1
_symmetry_cell_setting            triclinic
loop_
_symmetry_equiv_pos_as_xyz
'x, y, z'
_cell_length_a     54.892524
_cell_length_b     54.807915
_cell_length_c     54.377483
_cell_angle_alpha  90.60715
_cell_angle_beta   91.137299
_cell_angle_gamma 93.406315
loop_
_atom_site_label
_atom_site_type_symbol
_atom_site_fract_x
_atom_site_fract_y
_atom_site_fract_z
_atom_type_partial_charge
C0 C 0.04761 0.23007 0.52223 0.0
O1 O 0.0371 0.23015 0.5003 0.0
O2 O 0.02468 0.28404 0.49774 0.0
Zn3 Zn 0.01508 0.26748 0.52924 0.0
O4 O 0.98327 0.24787 0.52375 0.0
C5 C -0.00321 0.30898 0.55405 0.0
O6 O 0.98056 0.30744 0.53593 0.0
O7 O 0.04098 0.24484 0.5386 0.0
C8 C 0.96577 0.24585 0.53867 0.0
O9 O 0.96783 0.25702 0.56017 0.0
C10 C 0.00922 0.28725 0.48055 0.0
O11 O 0.98634 0.27954 0.48334 0.0
O12 O 0.01297 0.29338 0.5553 0.0
C13 C 0.78822 0.96943 0.46216 0.0
O14 O 0.76768 0.9631 0.47303 0.0
O15 O 0.74807 0.01032 0.48943 0.0
Zn16 Zn 0.7671 0.01645 0.45863 0.0
O17 O 0.78483 0.04953 0.46134 0.0
C18 C 0.72559 -0.00039 0.42994 0.0
O19 O 0.72288 0.98522 0.44899 0.0
O20 O 0.7918 0.99116 0.45454 0.0
C21 C 0.77636 0.06698 0.47347 0.0
O22 O 0.75493 0.06371 0.48365 0.0
C23 C 0.75772 0.01232 0.51084 0.0
O24 O 0.78122 0.01816 0.51325 0.0
O25 O 0.74382 0.015 0.42957 0.0
C26 C 0.98023 0.80252 0.45867 0.0
O27 O 0.00149 0.80831 0.44895 0.0
O28 O 0.00961 0.73827 0.45216 0.0
Zn29 Zn 0.00605 0.76297 0.47928 0.0
O30 O 0.03671 0.78465 0.48285 0.0
C31 C 0.97905 0.73752 0.5171 0.0
O32 O 0.96061 0.73969 0.50165 0.0
O33 O 0.97783 0.78362 0.47192 0.0
C34 C 0.05535 0.77788 0.49457 0.0
O35 O 0.05472 0.75598 0.50421 0.0
C36 C 0.01916 0.71821 0.45679 0.0
O37 O 0.02641 0.71388 0.47941 0.0
O38 O 0.00016 0.74603 0.51132 0.0
C39 C 0.23167 0.05805 0.56058 0.0
O40 O 0.23995 0.05196 0.58235 0.0
O41 O 0.28212 0.01841 0.57046 0.0
Zn42 Zn 0.25878 0.0176 0.5415 0.0
O43 O 0.23683 0.987 0.53993 0.0
C44 C 0.2971 0.00686 0.50866 0.0
O45 O 0.30391 0.99346 0.52717 0.0
O46 O 0.23771 0.04626 0.54163 0.0
C47 C 0.24307 0.96558 0.54472 0.0
O48 O 0.26545 0.96236 0.55249 0.0
C49 C 0.278 0.00923 0.59144 0.0
O50 O 0.25647 -0.00146 0.59576 0.0
O51 O 0.27822 0.01902 0.51065 0.0
C52 C 0.4458 0.01535 0.29402 0.0
O53 O 0.46419 0.0318 0.29356 0.0
O54 O 0.469 0.02763 0.23047 0.0
Zn55 Zn 0.47052 -0.00144 0.25258 0.0
O56 O 0.50275 -0.00161 0.27061 0.0
C57 C 0.45222 0.96715 0.21304 0.0
O58 O 0.43843 0.9855 0.20877 0.0
O59 O 0.44408 -0.00126 0.2775 0.0
C60 C 0.52322 0.00193 0.26033 0.0
O61 O 0.52385 0.00655 0.23668 0.0
C62 C 0.48129 0.04788 0.23337 0.0
O63 O 0.49608 0.05119 0.25255 0.0
O64 O 0.46689 0.96834 0.23144 0.0
C65 C 0.09254 0.49894 0.23075 0.0
O66 O 0.09489 0.5136 0.25002 0.0
O67 O 0.04747 0.51472 0.27352 0.0
Zn68 Zn 0.04427 0.48625 0.24989 0.0
O69 O 0.01356 0.48859 0.22967 0.0
C70 C 0.06023 0.44943 0.28221 0.0
O71 O 0.08077 0.46295 0.28134 0.0
O72 O 0.07284 0.48585 0.22735 0.0
C73 C 0.9929 0.48802 0.23985 0.0
O74 O 0.99182 0.48539 0.2638 0.0
C75 C 0.04098 0.53575 0.26753 0.0
O76 O 0.03285 0.53922 0.24503 0.0
O77 O 0.0419 0.45557 0.26961 0.0
C78 C 0.59621 0.00072 0.71628 0.0
O79 O 0.6035 0.00677 0.73879 0.0
O80 O 0.55407 0.02003 0.76267 0.0
Zn81 Zn 0.54888 0.99204 0.73854 0.0
O82 O 0.51562 0.99372 0.72291 0.0
C83 C 0.5652 0.95972 0.77532 0.0
O84 O 0.57925 0.97923 0.78124 0.0
O85 O 0.57394 0.99401 0.71213 0.0
C86 C 0.49632 0.98767 0.73446 0.0
O87 O 0.49817 0.97936 0.75696 0.0
C88 C 0.54426 0.04022 0.75957 0.0
O89 O 0.53122 0.04342 0.73947 0.0
O90 O 0.55066 0.96052 0.75692 0.0
C91 C 0.96781 0.58418 0.72698 0.0
O92 O 0.94898 0.56862 0.72999 0.0
O93 O 0.96102 0.54434 0.77824 0.0
Zn94 Zn 0.9898 0.5489 0.75608 0.0
O95 O 0.9891 0.52144 0.73119 0.0
C96 C 0.02634 0.52862 0.7859 0.0
O97 O 0.01248 0.50877 0.78083 0.0
O98 O 0.98804 0.58009 0.73743 0.0
C99 C 0.00837 0.51454 0.72137 0.0
O100 O 0.02953 0.52565 0.72744 0.0
C101 C 0.95037 0.52334 0.78097 0.0
O102 O 0.958 0.50459 0.76868 0.0
O103 O 0.02044 0.54887 0.77705 0.0
C104 C 0.3008 0.45254 0.99228 0.0
O105 O 0.30117 0.4646 0.0133 0.0
O106 O 0.2522 0.48767 0.01239 0.0
Zn107 Zn 0.26896 0.48971 0.97979 0.0
O108 O 0.29226 0.51944 0.97927 0.0
C109 C 0.23145 0.5114 0.95235 0.0
O110 O 0.23717 0.52936 0.968 0.0
O111 O 0.2878 0.45981 0.97452 0.0
C112 C 0.29746 0.53094 0.95972 0.0
O113 O 0.28747 0.52324 0.93867 0.0
C114 C 0.25859 0.50127 0.03077 0.0
O115 O 0.27725 0.51724 0.02892 0.0
O116 O 0.243 0.49201 0.95352 0.0
C117 C 0.47566 0.26957 0.97314 0.0
O118 O 0.48202 0.25957 0.95235 0.0
O119 O 0.51806 0.2229 0.96497 0.0
Zn120 Zn 0.51637 0.24458 0.99487 0.0
O121 O 0.54704 0.26636 -0.00224 0.0
C122 C 0.49472 0.20871 0.02671 0.0
O123 O 0.47859 0.20656 0.00851 0.0
O124 O 0.48761 0.26554 0.99278 0.0
C125 C 0.56511 0.26127 0.01134 0.0
O126 O 0.56396 0.24098 0.02402 0.0
C127 C 0.53238 0.20552 0.96557 0.0
O128 O 0.54533 0.2022 0.98571 0.0
O129 O 0.51288 0.224 0.02499 0.0
C130 C 0.7462 0.55321 0.03976 0.0
O131 O 0.76791 0.55939 0.04927 0.0
O132 O 0.79038 0.50756 0.05535 0.0
Zn133 Zn 0.7656 0.50568 0.02772 0.0
O134 O 0.7458 0.47365 0.02722 0.0
C135 C 0.78979 0.49077 0.98411 0.0
O136 O 0.78474 0.4689 0.99298 0.0
O137 O 0.742 0.53204 0.03033 0.0
C138 C 0.75106 0.45422 0.03816 0.0
O139 O 0.7712 0.45404 0.05159 0.0
C140 C 0.78535 0.50626 0.07801 0.0
O141 O 0.76242 0.50369 0.0845 0.0
O142 O 0.78329 0.5094 -0.00415 0.0
C143 C 0.55259 0.71348 0.00103 0.0
O144 O 0.5359 0.70545 0.98477 0.0
O145 O 0.53091 0.77455 0.9725 0.0
Zn146 Zn 0.52209 0.75366 0.0015 0.0
O147 O 0.49291 0.73038 0.99456 0.0
C148 C 0.49744 0.79072 0.02563 0.0
O149 O 0.48686 0.79125 0.00377 0.0
O150 O 0.55074 0.73432 0.01105 0.0
C151 C 0.47599 0.73293 0.97867 0.0
O152 O 0.47666 0.75234 0.96468 0.0
C153 C 0.53133 0.76733 0.95024 0.0
O154 O 0.52544 0.74433 0.94466 0.0
O155 O 0.51386 0.77572 0.02942 0.0
C156 C 0.04116 0.30893 0.45518 0.0
C157 C 0.01677 0.30025 0.45801 0.0
C158 C 0.04806 0.32216 0.43437 0.0
C159 C 0.02831 0.33665 0.37094 0.0
H160 H 0.06893 0.39619 0.38219 0.0
C161 C 0.03527 0.41533 0.3015 0.0
C162 C 0.0578 0.4286 0.29923 0.0
C163 C 0.03236 0.39707 0.31908 0.0
C164 C 0.05794 0.37941 0.37862 0.0
H165 H 0.98063 0.29812 0.44094 0.0
H166 H 0.99263 0.32143 0.40479 0.0
H167 H 0.05996 0.36902 0.41635 0.0
H168 H 0.09526 0.43236 0.31289 0.0
H169 H 0.09021 0.4003 0.34345 0.0
H170 H 0.02591 0.34736 0.33325 0.0
C171 C 0.00647 0.31779 0.41852 0.0
C172 C 0.05278 0.36384 0.39822 0.0
C173 C -0.00044 0.30458 0.43933 0.0
C174 C 0.07761 0.4226 0.31429 0.0
C175 C 0.07469 0.40431 0.33189 0.0
C176 C 0.03348 0.35224 0.35131 0.0
C177 C 0.03073 0.32696 0.41594 0.0
C178 C 0.03764 0.34246 0.39468 0.0
C179 C 0.05192 0.39165 0.33477 0.0
C180 C 0.04809 0.37396 0.35501 0.0
H181 H 0.05491 0.30577 0.46916 0.0
H182 H 0.06696 0.32871 0.43276 0.0
H183 H 0.01688 0.32011 0.36756 0.0
H184 H 0.01964 0.41948 0.29016 0.0
H185 H 0.0145 0.38784 0.321 0.0
C186 C 0.68523 0.98418 0.41216 0.0
C187 C 0.70718 -0.00163 0.40969 0.0
C188 C 0.66738 0.98351 0.39351 0.0
C189 C 0.64657 0.01825 0.33996 0.0
H190 H 0.60578 0.95898 0.3276 0.0
C191 C 0.56846 0.01 0.26598 0.0
C192 C 0.54602 0.00064 0.27501 0.0
C193 C 0.58987 0.00899 0.28025 0.0
C194 C 0.61706 0.97565 0.33087 0.0
H195 H 0.72787 0.02259 0.38547 0.0
H196 H 0.69687 0.021 0.35259 0.0
H197 H 0.64057 0.95821 0.3561 0.0
H198 H 0.52845 0.98257 0.30587 0.0
H199 H 0.5658 0.98054 0.33051 0.0
H200 H 0.62289 0.03557 0.31458 0.0
C201 C 0.69325 0.01077 0.36919 0.0
C202 C 0.63691 0.97527 0.34726 0.0
C203 C 0.71107 0.01159 0.38798 0.0
C204 C 0.54544 0.99 0.29841 0.0
C205 C 0.56683 0.98868 0.31246 0.0
C206 C 0.62684 0.01854 0.32333 0.0
C207 C 0.67112 -0.00317 0.37181 0.0
C208 C 0.65157 -0.0033 0.35247 0.0
C209 C 0.58922 -0.00177 0.30358 0.0
C210 C 0.61161 -0.00263 0.31907 0.0
H211 H 0.68159 0.97388 0.42872 0.0
H212 H 0.65039 0.97297 0.39642 0.0
H213 H 0.65729 0.03515 0.3437 0.0
H214 H 0.56945 0.01835 0.24804 0.0
H215 H 0.60695 0.01644 0.273 0.0
C216 C 0.03179 0.57822 0.28043 0.0
C217 C 0.04105 0.55557 0.28622 0.0
C218 C 0.03048 0.59636 0.29854 0.0
C219 C 0.02782 0.604 0.36581 0.0
H220 H 0.04316 0.67245 0.35223 0.0
C221 C 0.03264 0.6778 0.44224 0.0
C222 C 0.02216 0.69998 0.437 0.0
C223 C 0.03545 0.6605 0.42363 0.0
C224 C 0.03857 0.65343 0.35622 0.0
H225 H 0.05685 0.53446 0.31539 0.0
H226 H 0.0548 0.56618 0.34685 0.0
H227 H 0.04767 0.64179 0.32 0.0
H228 H 0.00646 0.72144 0.40805 0.0
H229 H 0.01119 0.69112 0.37559 0.0
H230 H 0.01866 0.61558 0.40197 0.0
C231 C 0.04817 0.56978 0.32843 0.0
C232 C 0.04117 0.63588 0.33777 0.0
C233 C 0.04948 0.55166 0.31035 0.0
C234 C 0.01464 0.70454 0.4127 0.0
C235 C 0.01748 0.68723 0.39407 0.0
C236 C 0.02524 0.62152 0.38424 0.0
C237 C 0.03839 0.59222 0.32281 0.0
C238 C 0.03585 0.61096 0.34238 0.0
C239 C 0.02786 0.665 0.39935 0.0
C240 C 0.0306 0.64643 0.37967 0.0
H241 H 0.02511 0.5818 0.26202 0.0
H242 H 0.02264 0.61338 0.29368 0.0
H243 H 0.02313 0.585 0.36982 0.0
H244 H 0.03872 0.67375 0.46074 0.0
H245 H 0.04382 0.64369 0.42824 0.0
C246 C 0.30401 0.02225 0.466 0.0
C247 C 0.31116 0.00775 0.48574 0.0
C248 C 0.31732 0.02311 0.44437 0.0
C249 C 0.35752 0.03297 0.40749 0.0
H250 H 0.3822 0.97362 0.38071 0.0
C251 C 0.43068 0.03348 0.33283 0.0
C252 C 0.42827 0.01537 0.31431 0.0
C253 C 0.41498 0.03286 0.35272 0.0
C254 C 0.37523 0.99031 0.3878 0.0
H255 H 0.33787 0.98274 0.49823 0.0
H256 H 0.3612 0.98442 0.46056 0.0
H257 H 0.3573 0.9716 0.41735 0.0
H258 H 0.40711 0.98271 0.30185 0.0
H259 H 0.37958 0.98174 0.33655 0.0
H260 H 0.3753 0.05166 0.37783 0.0
C261 C 0.34513 -0.0051 0.46171 0.0
C262 C 0.36122 0.9892 0.40896 0.0
C263 C 0.33185 0.99407 0.48335 0.0
C264 C 0.40951 -0.00311 0.31586 0.0
C265 C 0.39382 -0.00376 0.3358 0.0
C266 C 0.37158 0.03409 0.38635 0.0
C267 C 0.33803 0.00945 0.44199 0.0
C268 C 0.35234 0.01053 0.41912 0.0
C269 C 0.39653 0.0141 0.35456 0.0
C270 C 0.38071 0.0128 0.37637 0.0
H271 H 0.28811 0.03296 0.46721 0.0
H272 H 0.31123 0.03427 0.4294 0.0
H273 H 0.35111 0.04976 0.41498 0.0
H274 H 0.44495 0.04797 0.3322 0.0
H275 H 0.41772 0.04672 0.36701 0.0
C276 C 0.98701 0.61929 0.70376 0.0
C277 C 0.96613 0.60454 0.70953 0.0
C278 C 0.98597 0.63674 0.68529 0.0
C279 C 0.95102 0.64883 0.62901 0.0
H280 H 0.98867 0.71098 0.63141 0.0
C281 C 0.9523 0.71504 0.54723 0.0
C282 C 0.97545 0.72503 0.54083 0.0
C283 C 0.94914 0.70267 0.56939 0.0
C284 C 0.97815 0.69363 0.63045 0.0
H285 H 0.92748 0.59746 0.70138 0.0
H286 H 0.92564 0.6281 0.66935 0.0
H287 H 0.98651 0.6856 0.66803 0.0
H288 H 0.01337 0.73022 0.55286 0.0
H289 H 0.00789 0.70843 0.5913 0.0
H290 H 0.94308 0.65656 0.59134 0.0
C291 C 0.94291 0.62585 0.67879 0.0
C292 C 0.9769 0.67911 0.65141 0.0
C293 C 0.94395 0.60838 0.69723 0.0
C294 C -0.00472 0.72274 0.55723 0.0
C295 C 0.99212 0.71041 0.57937 0.0
C296 C 0.95226 0.66334 0.60809 0.0
C297 C 0.96403 0.63985 0.67224 0.0
C298 C 0.96361 0.65638 0.65081 0.0
C299 C 0.96906 0.70007 0.58561 0.0
C300 C 0.96613 0.68572 0.60846 0.0
H301 H 0.00438 0.61681 0.71291 0.0
H302 H 0.00262 0.64706 0.68055 0.0
H303 H 0.94095 0.63124 0.6278 0.0
H304 H 0.93663 0.7166 0.53506 0.0
H305 H 0.9311 0.69511 0.57382 0.0
C306 C 0.47032 0.00324 0.70053 0.0
C307 C 0.47212 0.9908 0.7229 0.0
C308 C 0.44755 0.00663 0.68968 0.0
C309 C 0.38456 0.98116 0.68622 0.0
H310 H 0.37231 0.04365 0.65705 0.0
C311 C 0.29476 -0.00244 0.63272 0.0
C312 C 0.29793 0.00952 0.61017 0.0
C313 C 0.31426 -0.00324 0.64964 0.0
C314 C 0.37548 0.02606 0.66502 0.0
H315 H 0.45142 0.97206 0.75137 0.0
H316 H 0.41151 0.97783 0.73216 0.0
H317 H 0.40996 0.0391 0.68064 0.0
H318 H 0.32388 0.03047 0.58793 0.0
H319 H 0.3577 0.02885 0.61712 0.0
H320 H 0.35043 0.96789 0.66992 0.0
C321 C 0.4278 0.98494 0.72312 0.0
C322 C 0.39702 0.02347 0.67853 0.0
C323 C 0.45063 0.98172 0.73412 0.0
C324 C 0.32077 0.02112 0.60514 0.0
C325 C 0.34016 0.02035 0.62199 0.0
C326 C 0.36302 0.98371 0.67258 0.0
C327 C 0.42606 -0.00246 0.70084 0.0
C328 C 0.40204 0.00086 0.6888 0.0
C329 C 0.33723 0.00801 0.64435 0.0
C330 C 0.35851 0.00605 0.66135 0.0
H331 H 0.4865 0.01049 0.69141 0.0
H332 H 0.4468 0.01609 0.67231 0.0
H333 H 0.38803 0.96348 0.69382 0.0
H334 H 0.27737 0.98848 0.63717 0.0
H335 H 0.31137 0.98729 0.66681 0.0
C336 C 0.97699 0.34396 0.57384 0.0
C337 C -0.003 0.32928 0.57215 0.0
C338 C 0.9776 0.36364 0.59045 0.0
C339 C 0.01141 0.38968 0.64568 0.0
H340 H 0.98206 0.44929 0.62603 0.0
C341 C 0.02803 0.48161 0.69812 0.0
C342 C 0.00698 0.49369 0.70389 0.0
C343 C 0.02654 0.4614 0.68216 0.0
C344 C 0.99019 0.43269 0.63178 0.0
H345 H 0.0334 0.3237 0.58645 0.0
H346 H 0.03482 0.35838 0.61476 0.0
H347 H 0.9799 0.4141 0.59809 0.0
H348 H 0.96793 0.49438 0.69717 0.0
H349 H 0.96545 0.45934 0.6689 0.0
H350 H 0.02226 0.4087 0.67912 0.0
C351 C 0.01834 0.35441 0.60382 0.0
C352 C 0.98885 0.41246 0.61586 0.0
C353 C 0.01759 0.33457 0.58746 0.0
C354 C 0.98446 0.48541 0.69311 0.0
C355 C 0.98304 0.46545 0.67686 0.0
C356 C 0.01302 0.41002 0.66143 0.0
C357 C -0.00162 0.36925 0.6055 0.0
C358 C -0.00056 0.39068 0.62261 0.0
C359 C 0.00403 0.45317 0.67139 0.0
C360 C 0.00241 0.43168 0.65463 0.0
H361 H 0.9608 0.34023 0.56239 0.0
H362 H 0.96171 0.37437 0.59155 0.0
H363 H 0.01936 0.3731 0.65173 0.0
H364 H 0.04562 0.48753 0.7062 0.0
H365 H 0.04301 0.45232 0.67807 0.0
C366 C 0.60551 -0.00424 0.67171 0.0
C367 C 0.61362 0.00173 0.69583 0.0
C368 C 0.62177 -0.00315 0.6523 0.0
C369 C 0.68704 -0.00367 0.63798 0.0
H370 H 0.66611 0.02411 0.57633 0.0
C371 C 0.75194 0.01474 0.55644 0.0
C372 C 0.74222 0.00965 0.5327 0.0
C373 C 0.73685 0.01348 0.57688 0.0
C374 C 0.67215 0.01604 0.59333 0.0
H375 H 0.64525 0.0134 0.71848 0.0
H376 H 0.67367 0.01542 0.68446 0.0
H377 H 0.63872 0.02278 0.61101 0.0
H378 H 0.70919 -0.00146 0.51189 0.0
H379 H 0.68305 -0.00397 0.54747 0.0
H380 H 0.72048 0.98952 0.62018 0.0
C381 C 0.65473 0.00971 0.68066 0.0
C382 C 0.65645 0.0153 0.61321 0.0
C383 C 0.63842 0.00868 0.70012 0.0
C384 C 0.71724 0.00276 0.5299 0.0
C385 C 0.70221 0.00146 0.55029 0.0
C386 C 0.70277 -0.00296 0.61804 0.0
C387 C 0.64654 0.0039 0.65652 0.0
C388 C 0.66364 0.00529 0.63571 0.0
C389 C 0.71176 0.00709 0.57398 0.0
C390 C 0.69541 0.00674 0.59543 0.0
H391 H 0.58655 0.99024 0.66776 0.0
H392 H 0.61496 0.99191 0.63398 0.0
H393 H 0.693 0.98828 0.65501 0.0
H394 H 0.7711 0.02014 0.55921 0.0
H395 H 0.74473 0.01811 0.59487 0.0
C396 C 0.44866 0.29659 -0.00384 0.0
C397 C 0.45512 0.28587 0.97381 0.0
C398 C 0.42973 0.31246 -0.00309 0.0
C399 C 0.39549 0.35354 0.95804 0.0
H400 H 0.352 0.35288 0.01341 0.0
C401 C 0.31767 0.4198 0.96611 0.0
C402 C 0.3159 0.43128 0.9892 0.0
C403 C 0.33267 0.40027 0.96316 0.0
C404 C 0.36408 0.35335 -0.00211 0.0
H405 H 0.44651 0.28315 0.93474 0.0
H406 H 0.41325 0.31082 0.93609 0.0
H407 H 0.3817 0.32172 0.01001 0.0
H408 H 0.32818 0.43101 0.02737 0.0
H409 H 0.35435 0.39708 0.02219 0.0
H410 H 0.37803 0.3854 0.94611 0.0
C411 C 0.42306 0.30711 0.95299 0.0
C412 C 0.3811 0.33552 -0.00406 0.0
C413 C 0.44203 0.29117 0.95224 0.0
C414 C 0.32912 0.42258 0.00933 0.0
C415 C 0.34401 0.40302 0.00641 0.0
C416 C 0.3784 0.37136 0.95996 0.0
C417 C 0.41676 0.318 0.97534 0.0
C418 C 0.39729 0.33566 0.97623 0.0
C419 C 0.34608 0.39175 0.98327 0.0
C420 C 0.3628 0.37169 0.98013 0.0
H421 H 0.45838 0.29295 0.01313 0.0
H422 H 0.42563 0.32083 0.01436 0.0
H423 H 0.40787 0.35433 0.94277 0.0
H424 H 0.30767 0.42605 0.95023 0.0
H425 H 0.33374 0.39181 0.94516 0.0
C426 C 0.31712 0.56826 0.94038 0.0
C427 C 0.31441 0.55293 0.96081 0.0
C428 C 0.333 0.58917 0.94162 0.0
C429 C 0.36658 0.63101 0.98652 0.0
H430 H 0.40653 0.64838 0.93059 0.0
C431 C 0.45262 0.69589 0.99404 0.0
C432 C 0.45581 0.71395 0.97604 0.0
C433 C 0.43382 0.67771 0.99163 0.0
C434 C 0.39526 0.64391 0.94623 0.0
H435 H 0.32641 0.54734 -0.00152 0.0
H436 H 0.35452 0.5833 0.00042 0.0
H437 H 0.37676 0.61354 0.92737 0.0
H438 H 0.44179 0.72709 0.94136 0.0
H439 H 0.409 0.69494 0.93699 0.0
H440 H 0.38571 0.66093 0.00558 0.0
C441 C 0.34397 0.57962 0.98362 0.0
C442 C 0.37817 0.62398 0.9444 0.0
C443 C 0.32796 0.55886 0.98245 0.0
C444 C 0.43976 0.71344 0.95555 0.0
C445 C 0.42109 0.69502 0.95298 0.0
C446 C 0.38381 0.65074 0.9884 0.0
C447 C 0.34663 0.5951 0.96326 0.0
C448 C 0.36383 0.61711 0.96464 0.0
C449 C 0.41794 0.67702 0.97104 0.0
C450 C 0.39851 0.65721 0.96838 0.0
H451 H 0.30681 0.56425 0.92348 0.0
H452 H 0.33436 0.60084 0.92569 0.0
H453 H 0.35546 0.62661 0.00228 0.0
H454 H 0.46465 0.69577 0.01007 0.0
H455 H 0.43197 0.6639 0.00569 0.0
C456 C 0.60656 0.27366 0.02918 0.0
C457 C 0.58697 0.27836 0.01321 0.0
C458 C 0.62687 0.29025 0.03136 0.0
C459 C 0.6587 0.34193 -0.00033 0.0
H460 H 0.68326 0.36072 0.06495 0.0
C461 C 0.71463 0.43183 0.01865 0.0
C462 C 0.7347 0.43193 0.03511 0.0
C463 C 0.69899 0.411 0.01558 0.0
C464 C 0.67688 0.35538 0.04658 0.0
H465 H 0.57348 0.30401 0.98681 0.0
H466 H 0.6087 0.33293 0.99077 0.0
H467 H 0.65147 0.32781 0.06013 0.0
H468 H 0.75412 0.41018 0.06125 0.0
H469 H 0.72658 0.37363 0.05591 0.0
H470 H 0.68365 0.36986 0.98615 0.0
C471 C 0.60854 0.31632 0.00139 0.0
C472 C 0.65869 0.33654 0.04382 0.0
C473 C 0.58826 0.29981 -0.00074 0.0
C474 C 0.73881 0.41067 0.04844 0.0
C475 C 0.72301 0.3898 0.04546 0.0
C476 C 0.67683 0.36075 0.00243 0.0
C477 C 0.62803 0.31179 0.01754 0.0
C478 C 0.64904 0.32998 0.02036 0.0
C479 C 0.70298 0.38977 0.02894 0.0
C480 C 0.68573 0.36803 0.02595 0.0
H481 H 0.60615 0.25727 0.04015 0.0
H482 H 0.6417 0.28618 0.0438 0.0
H483 H 0.652 0.33695 0.98132 0.0
H484 H 0.7109 0.44788 0.00808 0.0
H485 H 0.68349 0.41169 0.00302 0.0
C486 C 0.73051 0.59428 0.0497 0.0
C487 C 0.72671 0.57072 0.03933 0.0
C488 C 0.71197 0.61075 0.0487 0.0
C489 C 0.64512 0.61302 0.03851 0.0
H490 H 0.66059 0.68017 0.01981 0.0
C491 C 0.57297 0.67399 -0.0009 0.0
C492 C 0.57295 0.69821 0.00778 0.0
C493 C 0.59196 0.65934 0.00556 0.0
C494 C 0.65605 0.66156 0.02537 0.0
H495 H 0.70045 0.546 0.01981 0.0
H496 H 0.66852 0.57464 0.01777 0.0
H497 H 0.69357 0.65281 0.0268 0.0
H498 H 0.59296 0.72616 0.02991 0.0
H499 H 0.62634 0.70047 0.04106 0.0
H500 H 0.60762 0.62155 0.03639 0.0
C501 C 0.68557 0.58035 0.02708 0.0
C502 C 0.67491 0.64591 0.02942 0.0
C503 C 0.704 0.56396 0.02809 0.0
C504 C 0.59244 0.70754 0.02295 0.0
C505 C 0.61159 0.69291 0.02926 0.0
C506 C 0.62632 0.6286 0.03433 0.0
C507 C 0.68929 0.60393 0.03736 0.0
C508 C 0.66961 0.62132 0.03554 0.0
C509 C 0.61144 0.66861 0.02072 0.0
C510 C 0.63156 0.65287 0.02726 0.0
H511 H 0.7478 0.60003 0.05852 0.0
H512 H 0.71533 0.62874 0.05694 0.0
H513 H 0.64044 0.59435 0.04375 0.0
H514 H 0.55826 0.66624 0.98735 0.0
H515 H 0.59154 0.64079 -0.00158 0.0
C516 C 0.5498 0.80763 0.93709 0.0
C517 C 0.53751 0.78516 0.93084 0.0
C518 C 0.55461 0.82518 0.91918 0.0
C519 C 0.55629 0.8349 0.8516 0.0
H520 H 0.54944 0.9023 0.87141 0.0
C521 C 0.55094 0.91646 0.78436 0.0
C522 C 0.56485 0.93794 0.79115 0.0
C523 C 0.54921 0.8966 0.8003 0.0
C524 C 0.55165 0.88358 0.86567 0.0
H525 H 0.52099 0.76322 0.90085 0.0
H526 H 0.52866 0.79425 0.86958 0.0
H527 H 0.54293 0.86998 0.90122 0.0
H528 H 0.5885 0.95512 0.81962 0.0
H529 H 0.58524 0.92058 0.84745 0.0
H530 H 0.56428 0.84881 0.8157 0.0
C531 C 0.53508 0.79812 0.88825 0.0
C532 C 0.54802 0.86502 0.88277 0.0
C533 C 0.53057 0.78037 0.90618 0.0
C534 C 0.57755 0.93889 0.81386 0.0
C535 C 0.57562 0.91917 0.82986 0.0
C536 C 0.55965 0.85353 0.83436 0.0
C537 C 0.54689 0.82088 0.89462 0.0
C538 C 0.55049 0.84045 0.87605 0.0
C539 C 0.56115 0.89799 0.8234 0.0
C540 C 0.55754 0.87805 0.84134 0.0
H541 H 0.55568 0.81172 0.95589 0.0
H542 H 0.56432 0.8422 0.92467 0.0
H543 H 0.55859 0.81622 0.84583 0.0
H544 H 0.541 0.91515 0.76694 0.0
H545 H 0.53785 0.88051 0.79494 0.0
C546 C 0.20221 0.49297 0.92044 0.0
C547 C 0.21151 0.51356 0.93398 0.0
C548 C 0.18277 0.49485 0.90374 0.0
C549 C 0.15088 0.53829 0.86584 0.0
H550 H 0.09624 0.4903 0.8689 0.0
C551 C 0.06057 0.54863 0.81145 0.0
C552 C 0.04835 0.52729 0.80179 0.0
C553 C 0.08094 0.54717 0.8271 0.0
C554 C 0.11149 0.50365 0.8675 0.0
H555 H 0.20807 0.55235 0.94026 0.0
H556 H 0.17424 0.55563 0.91086 0.0
H557 H 0.13125 0.4872 0.89667 0.0
H558 H 0.04828 0.48772 0.8004 0.0
H559 H 0.08411 0.48518 0.82705 0.0
H560 H 0.13137 0.55457 0.83643 0.0
C561 C 0.182 0.53807 0.91323 0.0
C562 C 0.13151 0.50189 0.88348 0.0
C563 C 0.20127 0.53615 0.93014 0.0
C564 C 0.05715 0.5045 0.80774 0.0
C565 C 0.07764 0.50304 0.82315 0.0
C566 C 0.13095 0.53993 0.84966 0.0
C567 C 0.17243 0.51739 0.90004 0.0
C568 C 0.15138 0.5192 0.88283 0.0
C569 C 0.08966 0.52433 0.83323 0.0
C570 C 0.11099 0.52263 0.85031 0.0
H571 H 0.20971 0.47531 0.92298 0.0
H572 H 0.17588 0.47867 0.89362 0.0
H573 H 0.16609 0.55175 0.86481 0.0
H574 H 0.05415 0.56647 0.80728 0.0
H575 H 0.08953 0.56393 0.83477 0.0
C576 C 0.53242 0.08 0.77754 0.0
C577 C 0.5458 0.059 0.77938 0.0
C578 C 0.53236 0.09675 0.79711 0.0
C579 C 0.54264 0.10049 0.86426 0.0
H580 H 0.54304 0.17044 0.85414 0.0
C581 C 0.54994 0.16971 0.94494 0.0
C582 C 0.53459 0.18932 0.9439 0.0
C583 C 0.55206 0.15433 0.92456 0.0
C584 C 0.54269 0.15094 0.85722 0.0
H585 H 0.57035 0.03957 0.80284 0.0
H586 H 0.57053 0.06894 0.83676 0.0
H587 H 0.54609 0.14294 0.81885 0.0
H588 H 0.50949 0.20822 0.92058 0.0
H589 H 0.51308 0.18124 0.88502 0.0
H590 H 0.53918 0.10844 0.90258 0.0
C591 C 0.55969 0.07224 0.82041 0.0
C592 C 0.54445 0.13519 0.83702 0.0
C593 C 0.55971 0.05548 0.80089 0.0
C594 C 0.52148 0.19328 0.92198 0.0
C595 C 0.52366 0.17793 0.90155 0.0
C596 C 0.54093 0.11622 0.88443 0.0
C597 C 0.54572 0.09287 0.8189 0.0
C598 C 0.54441 0.10977 0.84032 0.0
C599 C 0.53891 0.15824 0.90265 0.0
C600 C 0.54091 0.14161 0.88115 0.0
H601 H 0.52148 0.08324 0.76124 0.0
H602 H 0.52123 0.11234 0.79543 0.0
H603 H 0.54208 0.08099 0.86741 0.0
H604 H 0.56036 0.16619 0.96152 0.0
H605 H 0.56419 0.1395 0.92588 0.0
C606 C 0.92247 0.53971 0.81221 0.0
C607 C 0.93064 0.51975 0.79891 0.0
C608 C 0.9049 0.53608 0.83026 0.0
C609 C 0.88094 0.48923 0.87235 0.0
H610 H 0.82897 0.53317 0.8816 0.0
C611 C 0.80949 0.47308 0.94742 0.0
C612 C 0.80346 0.49369 0.96108 0.0
C613 C 0.82313 0.47576 0.92611 0.0
C614 C 0.84351 0.52086 0.87936 0.0
H615 H 0.92624 0.48043 0.79358 0.0
H616 H 0.89554 0.47415 0.82504 0.0
H617 H 0.85609 0.53883 0.84679 0.0
H618 H 0.80669 0.53333 0.96288 0.0
H619 H 0.83084 0.53799 0.92595 0.0
H620 H 0.86879 0.47154 0.90512 0.0
C621 C 0.90293 0.49255 0.82168 0.0
C622 C 0.85899 0.52409 0.85942 0.0
C623 C 0.92043 0.49618 0.80358 0.0
C624 C 0.81101 0.51707 0.95275 0.0
C625 C 0.82472 0.51975 0.93148 0.0
C626 C 0.86553 0.48605 0.89231 0.0
C627 C 0.89521 0.51243 0.83542 0.0
C628 C 0.87796 0.50839 0.85581 0.0
C629 C 0.8311 0.49912 0.91803 0.0
C630 C 0.84674 0.50193 0.89615 0.0
H631 H 0.92994 0.55811 0.80902 0.0
H632 H 0.89948 0.55173 0.8407 0.0
H633 H 0.89564 0.47708 0.87028 0.0
H634 H 0.8038 0.45481 0.95324 0.0
H635 H 0.82742 0.45952 0.91595 0.0
C636 C 0.49722 0.08687 0.21416 0.0
C637 C 0.48021 0.06668 0.21415 0.0
C638 C 0.49735 0.10349 0.19481 0.0
C639 C 0.47787 0.1073 0.12971 0.0
H640 H 0.49216 0.17689 0.13954 0.0
C641 C 0.47246 0.17569 0.05033 0.0
C642 C 0.49187 0.19347 0.04885 0.0
C643 C 0.47 0.16104 0.07111 0.0
C644 C 0.48831 0.15747 0.13653 0.0
H645 H 0.44929 0.04868 0.19444 0.0
H646 H 0.44919 0.07786 0.16107 0.0
H647 H 0.48932 0.1501 0.17512 0.0
H648 H 0.52378 0.21004 0.06815 0.0
H649 H 0.51952 0.18438 0.10435 0.0
H650 H 0.4769 0.11462 0.09116 0.0
C651 C 0.46283 0.08057 0.17566 0.0
C652 C 0.48671 0.14213 0.15688 0.0
C653 C 0.4628 0.06391 0.19488 0.0
C654 C 0.50862 0.19649 0.06871 0.0
C655 C 0.5061 0.18191 0.08952 0.0
C656 C 0.47937 0.12262 0.1094 0.0
C657 C 0.48038 0.1003 0.17515 0.0
C658 C 0.48152 0.11685 0.15369 0.0
C659 C 0.48685 0.16394 0.09088 0.0
C660 C 0.48469 0.14785 0.11258 0.0
H661 H 0.51091 0.08948 0.22872 0.0
H662 H 0.51124 0.11836 0.19489 0.0
H663 H 0.47433 0.08786 0.12654 0.0
H664 H 0.4592 0.17296 0.03539 0.0
H665 H 0.45482 0.14752 0.07175 0.0
C666 C 0.972 0.49565 0.19962 0.0
C667 C 0.97048 0.49097 0.22492 0.0
C668 C 0.95095 0.49887 0.18551 0.0
C669 C 0.88466 0.48505 0.18348 0.0
H670 H 0.88587 0.5359 0.13438 0.0
C671 C 0.80051 0.5034 0.12172 0.0
C672 C 0.80536 0.50677 0.09666 0.0
C673 C 0.81969 0.50311 0.13904 0.0
C674 C 0.88529 0.52152 0.14791 0.0
H675 H 0.94562 0.48587 0.25522 0.0
H676 H 0.90879 0.4915 0.23046 0.0
H677 H 0.92126 0.53202 0.16152 0.0
H678 H 0.83415 0.51272 0.07018 0.0
H679 H 0.8674 0.51201 0.10022 0.0
H680 H 0.84882 0.47428 0.16953 0.0
C681 C 0.9263 0.49256 0.22159 0.0
C682 C 0.90556 0.5193 0.16344 0.0
C683 C 0.94741 0.48943 0.23577 0.0
C684 C 0.82973 0.51013 0.08934 0.0
C685 C 0.84883 0.50989 0.1066 0.0
C686 C 0.86437 0.48725 0.16789 0.0
C687 C 0.92788 0.49742 0.19633 0.0
C688 C 0.90563 0.50079 0.18111 0.0
C689 C 0.84407 0.5063 0.13163 0.0
C690 C 0.86464 0.50526 0.14965 0.0
H691 H 0.98947 0.49691 0.19066 0.0
H692 H 0.95273 0.50221 0.16601 0.0
H693 H 0.88426 0.47049 0.1968 0.0
H694 H 0.78193 0.50079 0.12795 0.0
H695 H 0.81545 0.5005 0.15824 0.0
C696 C 0.50163 0.807 0.06884 0.0
C697 C 0.49036 0.80741 0.04543 0.0
C698 C 0.49508 0.82301 0.08741 0.0
C699 C 0.46745 0.88186 0.09668 0.0
H700 H 0.46174 0.86034 0.16415 0.0
C701 C 0.43832 0.94633 0.17356 0.0
C702 C 0.45256 0.94652 0.19533 0.0
C703 C 0.44039 0.92803 0.15577 0.0
C704 C 0.4634 0.86664 0.14541 0.0
H705 H 0.46315 0.82475 0.02324 0.0
H706 H 0.45164 0.85255 0.05569 0.0
H707 H 0.47053 0.83098 0.13192 0.0
H708 H 0.47947 0.92712 0.21592 0.0
H709 H 0.48319 0.89535 0.18484 0.0
H710 H 0.46068 0.91756 0.11016 0.0
C711 C 0.46573 0.84004 0.0596 0.0
C712 C 0.46846 0.84985 0.12697 0.0
C713 C 0.47227 0.82403 0.04104 0.0
C714 C 0.46824 0.92753 0.19933 0.0
C715 C 0.47029 0.90922 0.18157 0.0
C716 C 0.46239 0.89864 0.1151 0.0
C717 C 0.47713 0.83978 0.08296 0.0
C718 C 0.47075 0.85732 0.10243 0.0
C719 C 0.45669 0.9095 0.15941 0.0
C720 C 0.46051 0.89127 0.1397 0.0
H721 H 0.51565 0.79443 0.0728 0.0
H722 H 0.50442 0.82257 0.10511 0.0
H723 H 0.46945 0.88828 0.07802 0.0
H724 H 0.42598 0.96064 0.16996 0.0
H725 H 0.42941 0.92853 0.13903 0.0
C726 C 0.2245 0.48266 0.05558 0.0
C727 C 0.24454 0.49967 0.0537 0.0
C728 C 0.21058 0.48176 0.07679 0.0
C729 C 0.19412 0.51968 0.12934 0.0
H730 H 0.1681 0.45782 0.15472 0.0
C731 C 0.13338 0.51382 0.21505 0.0
C732 C 0.11233 0.498 0.21275 0.0
C733 C 0.15163 0.51342 0.19748 0.0
C734 C 0.17514 0.47524 0.14777 0.0
H735 H 0.266 0.52876 0.07287 0.0
H736 H 0.24174 0.52707 0.11001 0.0
H737 H 0.19641 0.45813 0.1207 0.0
H738 H 0.09412 0.46906 0.19042 0.0
H739 H 0.12579 0.46849 0.1598 0.0
H740 H 0.17253 0.53678 0.15615 0.0
C741 C 0.23665 0.51462 0.09492 0.0
C742 C 0.19134 0.47542 0.12829 0.0
C743 C 0.25061 0.5155 0.07369 0.0
C744 C 0.1101 0.4815 0.19275 0.0
C745 C 0.12835 0.48104 0.17528 0.0
C746 C 0.17793 0.51949 0.14885 0.0
C747 C 0.21638 0.49785 0.09663 0.0
C748 C 0.20072 0.49764 0.1186 0.0
C749 C 0.14924 0.4971 0.17734 0.0
C750 C 0.16796 0.49727 0.15801 0.0
H751 H 0.2193 0.47021 0.04051 0.0
H752 H 0.19488 0.46885 0.07738 0.0
H753 H 0.20079 0.5371 0.12211 0.0
H754 H 0.13569 0.52671 0.23027 0.0
H755 H 0.16763 0.52585 0.19968 0.0
C756 C 0.80409 0.92804 0.46891 0.0
C757 C 0.80726 0.95167 0.45926 0.0
C758 C 0.82237 0.91151 0.4667 0.0
C759 C 0.88851 0.90933 0.45699 0.0
H760 H 0.8724 0.84053 0.44378 0.0
C761 C 0.96284 0.84076 0.44291 0.0
C762 C 0.9597 0.8186 0.45555 0.0
C763 C 0.94387 0.85661 0.44129 0.0
C764 C 0.87716 0.85967 0.44763 0.0
H765 H 0.83194 0.97633 0.4393 0.0
H766 H 0.86366 0.94741 0.43521 0.0
H767 H 0.83989 0.86902 0.4449 0.0
H768 H 0.93395 0.79542 0.47588 0.0
H769 H 0.90095 0.82312 0.47314 0.0
H770 H 0.92573 0.89998 0.4599 0.0
C771 C 0.84722 0.94177 0.44483 0.0
C772 C 0.85855 0.87598 0.44831 0.0
C773 C 0.82897 0.95831 0.44707 0.0
C774 C 0.93699 0.81236 0.46601 0.0
C775 C 0.918 0.82817 0.46432 0.0
C776 C 0.9071 0.89305 0.45626 0.0
C777 C 0.84421 0.91824 0.45475 0.0
C778 C 0.864 0.90098 0.45317 0.0
C779 C 0.92132 0.8506 0.45219 0.0
C780 C 0.90162 0.86801 0.45175 0.0
H781 H 0.78761 0.92237 0.47845 0.0
H782 H 0.81961 0.89363 0.47483 0.0
H783 H 0.8933 0.9284 0.46116 0.0
H784 H 0.98008 0.84607 0.43457 0.0
H785 H 0.94687 0.87363 0.43155 0.0
C786 C 0.92283 0.23005 0.54675 0.0
C787 C 0.94332 0.23095 0.53162 0.0
C788 C 0.90178 0.21572 0.53994 0.0
C789 C 0.87132 0.18306 0.48627 0.0
H790 H 0.8394 0.14328 0.53612 0.0
C791 C 0.81296 0.0946 0.46468 0.0
C792 C 0.79158 0.08979 0.47801 0.0
C793 C 0.82851 0.11503 0.47038 0.0
C794 C 0.84785 0.15458 0.52206 0.0
H795 H 0.95775 0.2176 0.49745 0.0
H796 H 0.92146 0.19231 0.48595 0.0
H797 H 0.87238 0.17304 0.54809 0.0
H798 H 0.76936 0.10301 0.50731 0.0
H799 H 0.79678 0.13865 0.51743 0.0
H800 H 0.84738 0.16381 0.46014 0.0
C801 C 0.92133 0.20303 0.50279 0.0
C802 C 0.86674 0.17166 0.52891 0.0
C803 C 0.94227 0.21739 0.50951 0.0
C804 C 0.78571 0.10623 0.4967 0.0
C805 C 0.80143 0.12655 0.50258 0.0
C806 C 0.85258 0.16586 0.47941 0.0
C807 C 0.90083 0.20196 0.51791 0.0
C808 C 0.87905 0.18574 0.51102 0.0
C809 C 0.82313 0.13096 0.48967 0.0
C810 C 0.84098 0.15112 0.49718 0.0
H811 H 0.92302 0.2404 0.56383 0.0
H812 H 0.88622 0.21549 0.55189 0.0
H813 H 0.88003 0.194 0.47209 0.0
H814 H 0.81795 0.08231 0.45014 0.0
H815 H 0.84524 0.11784 0.46027 0.0
C816 C 0.09779 0.78771 0.51117 0.0
C817 C 0.07707 0.79491 0.49817 0.0
C818 C 0.11791 0.80421 0.51531 0.0
C819 C 0.14608 0.86309 0.49365 0.0
H820 H 0.17642 0.86705 0.55873 0.0
C821 C 0.20319 0.94787 0.52782 0.0
C822 C 0.22552 0.94446 0.54002 0.0
C823 C 0.18693 0.928 0.52227 0.0
C824 C 0.16834 0.86591 0.54038 0.0
H825 H 0.06131 0.825 0.47911 0.0
H826 H 0.09611 0.85377 0.48663 0.0
H827 H 0.14464 0.83499 0.54934 0.0
H828 H 0.24809 0.91752 0.55639 0.0
H829 H 0.21931 0.88265 0.54686 0.0
H830 H 0.16926 0.89443 0.48495 0.0
C831 C 0.09706 0.83529 0.4933 0.0
C832 C 0.15018 0.84755 0.53497 0.0
C833 C 0.07701 0.81882 0.48913 0.0
C834 C 0.23104 0.92072 0.54694 0.0
C835 C 0.21458 0.9008 0.54156 0.0
C836 C 0.16409 0.88148 0.49911 0.0
C837 C 0.11771 0.82823 0.50653 0.0
C838 C 0.13853 0.84623 0.51167 0.0
C839 C 0.19249 0.90426 0.52893 0.0
C840 C 0.17506 0.88336 0.52265 0.0
H841 H 0.09843 0.76938 0.5183 0.0
H842 H 0.13364 0.79814 0.52533 0.0
H843 H 0.13788 0.86224 0.47536 0.0
H844 H 0.19833 0.96589 0.52225 0.0
H845 H 0.16986 0.93124 0.51286 0.0
C846 C 0.07581 0.19859 0.50875 0.0
C847 C 0.06723 0.21343 0.52752 0.0
C848 C 0.09467 0.1832 0.51351 0.0
C849 C 0.12545 0.15129 0.5631 0.0
H850 H 0.17695 0.14737 0.51567 0.0
C851 C 0.20773 0.09136 0.5785 0.0
C852 C 0.21459 0.07779 0.55796 0.0
C853 C 0.19095 0.10945 0.57587 0.0
C854 C 0.16261 0.14811 0.52901 0.0
H855 H 0.07155 0.22359 0.56612 0.0
H856 H 0.10452 0.1966 0.57442 0.0
H857 H 0.14499 0.17573 0.50902 0.0
H858 H 0.20929 0.07266 0.51852 0.0
H859 H 0.17992 0.10378 0.51404 0.0
H860 H 0.1428 0.12329 0.58285 0.0
C861 C 0.09656 0.19686 0.55604 0.0
C862 C 0.14432 0.16436 0.52519 0.0
C863 C 0.07776 0.21238 0.55125 0.0
C864 C 0.20451 0.08284 0.53473 0.0
C865 C 0.18775 0.10082 0.53212 0.0
C866 C 0.14372 0.13492 0.56688 0.0
C867 C 0.10529 0.18223 0.53717 0.0
C868 C 0.12538 0.1659 0.54203 0.0
C869 C 0.18072 0.11431 0.55264 0.0
C870 C 0.16232 0.13292 0.54969 0.0
H871 H 0.06806 0.19891 0.49029 0.0
H872 H 0.10078 0.17186 0.49869 0.0
H873 H 0.11096 0.15195 0.57629 0.0
H874 H 0.21522 0.08796 0.59664 0.0
H875 H 0.18609 0.11971 0.59199 0.0
loop_
_geom_bond_atom_site_label_1
_geom_bond_atom_site_label_2
_geom_bond_distance
_geom_bond_site_symmetry_2
_ccdc_geom_bond_type
C0 O1 1.160 . S
C0 O7 1.185 . S
O1 C0 1.160 . S
O2 Zn3 1.899 . S
O2 C10 1.284 . S
Zn3 O2 1.899 . S
Zn3 O4 2.032 1_455 S
Zn3 O7 2.086 . S
Zn3 O12 1.977 . S
O4 Zn3 2.032 1_655 S
O4 C8 1.278 . S
C5 O6 1.187 1_455 S
C5 O12 1.267 . S
O6 C5 1.187 1_655 S
O7 C0 1.185 . S
O7 Zn3 2.086 . S
C8 O4 1.278 . S
C8 O9 1.211 . S
O9 C8 1.211 . S
C10 O2 1.284 . S
C10 O11 1.273 1_455 S
O11 C10 1.273 1_655 S
O12 Zn3 1.977 . S
O12 C5 1.267 . S
C13 O14 1.160 . S
C13 O20 1.185 . S
O14 C13 1.160 . S
O15 Zn16 1.899 1_565 S
O15 C23 1.282 1_565 S
Zn16 O15 1.899 1_545 S
Zn16 O17 2.032 . S
Zn16 O20 2.086 1_545 S
Zn16 O25 1.977 . S
O17 Zn16 2.032 . S
O17 C21 1.278 . S
C18 O19 1.203 . S
C18 O25 1.267 . S
O19 C18 1.203 . S
O20 C13 1.185 . S
O20 Zn16 2.086 1_565 S
C21 O17 1.278 . S
C21 O22 1.211 . S
O22 C21 1.211 . S
C23 O15 1.282 1_545 S
C23 O24 1.273 . S
O24 C23 1.273 . S
O25 Zn16 1.977 . S
O25 C18 1.267 . S
C26 O27 1.160 . S
C26 O33 1.185 . S
O27 C26 1.160 . S
O28 Zn29 1.899 . S
O28 C36 1.284 . S
Zn29 O28 1.899 . S
Zn29 O30 2.032 . S
Zn29 O33 2.086 1_455 S
Zn29 O38 1.977 . S
O30 Zn29 2.032 . S
O30 C34 1.278 . S
C31 O32 1.203 . S
C31 O38 1.267 . S
O32 C31 1.203 . S
O33 C26 1.185 . S
O33 Zn29 2.086 1_655 S
C34 O30 1.278 . S
C34 O35 1.211 . S
O35 C34 1.211 . S
C36 O28 1.284 . S
C36 O37 1.273 . S
O37 C36 1.273 . S
O38 Zn29 1.977 . S
O38 C31 1.267 . S
C39 O40 1.160 . S
C39 O46 1.185 . S
O40 C39 1.160 . S
O41 Zn42 1.899 . S
O41 C49 1.284 . S
Zn42 O41 1.899 . S
Zn42 O43 2.032 1_545 S
Zn42 O46 2.086 . S
Zn42 O51 1.977 . S
O43 Zn42 2.032 1_565 S
O43 C47 1.278 . S
C44 O45 1.203 1_545 S
C44 O51 1.267 . S
O45 C44 1.203 1_565 S
O46 C39 1.185 . S
O46 Zn42 2.086 . S
C47 O43 1.278 . S
C47 O48 1.211 . S
O48 C47 1.211 . S
C49 O41 1.284 . S
C49 O50 1.273 1_545 S
O50 C49 1.273 1_565 S
O51 Zn42 1.977 . S
O51 C44 1.267 . S
C52 O53 1.160 . S
C52 O59 1.215 . S
O53 C52 1.160 . S
O54 Zn55 1.899 . S
O54 C62 1.284 . S
Zn55 O54 1.899 . S
Zn55 O56 2.032 . S
Zn55 O59 2.094 . S
Zn55 O64 1.977 1_545 S
O56 Zn55 2.032 . S
O56 C60 1.278 . S
C57 O58 1.203 . S
C57 O64 1.267 . S
O58 C57 1.203 . S
O59 C52 1.215 . S
O59 Zn55 2.094 . S
C60 O56 1.278 . S
C60 O61 1.206 1_545 S
O61 C60 1.206 1_565 S
C62 O54 1.284 . S
C62 O63 1.273 . S
O63 C62 1.273 . S
O64 Zn55 1.977 1_565 S
O64 C57 1.267 . S
C65 O66 1.160 . S
C65 O72 1.185 . S
O66 C65 1.160 . S
O67 Zn68 1.899 . S
O67 C75 1.284 . S
Zn68 O67 1.899 . S
Zn68 O69 2.032 . S
Zn68 O72 2.086 . S
Zn68 O77 1.977 . S
O69 Zn68 2.032 . S
O69 C73 1.278 1_455 S
C70 O71 1.203 . S
C70 O77 1.267 . S
O71 C70 1.203 . S
O72 C65 1.185 . S
O72 Zn68 2.086 . S
C73 O69 1.278 1_655 S
C73 O74 1.211 . S
O74 C73 1.211 . S
C75 O67 1.284 . S
C75 O76 1.253 1_455 S
O76 C75 1.253 1_655 S
O77 Zn68 1.977 . S
O77 C70 1.267 . S
C78 O79 1.160 . S
C78 O85 1.155 1_545 S
O79 C78 1.160 . S
O80 Zn81 1.899 . S
O80 C88 1.284 . S
Zn81 O80 1.899 . S
Zn81 O82 2.032 . S
Zn81 O85 2.077 1_545 S
Zn81 O90 1.977 1_545 S
O82 Zn81 2.032 . S
O82 C86 1.278 . S
C83 O84 1.203 . S
C83 O90 1.267 . S
O84 C83 1.203 . S
O85 C78 1.155 1_565 S
O85 Zn81 2.077 1_565 S
C86 O82 1.278 . S
C86 O87 1.211 1_545 S
O87 C86 1.211 1_565 S
C88 O80 1.284 . S
C88 O89 1.273 . S
O89 C88 1.273 . S
O90 Zn81 1.977 1_565 S
O90 C83 1.267 . S
C91 O92 1.160 1_455 S
C91 O98 1.185 . S
O92 C91 1.160 1_655 S
O93 Zn94 1.899 1_655 S
O93 C101 1.284 . S
Zn94 O93 1.899 1_455 S
Zn94 O95 2.032 . S
Zn94 O98 2.086 . S
Zn94 O103 1.977 . S
O95 Zn94 2.032 . S
O95 C99 1.278 . S
C96 O97 1.203 . S
C96 O103 1.267 . S
O97 C96 1.203 . S
O98 C91 1.185 . S
O98 Zn94 2.086 . S
C99 O95 1.278 . S
C99 O100 1.211 . S
O100 C99 1.211 . S
C101 O93 1.284 . S
C101 O102 1.273 . S
O102 C101 1.273 . S
O103 Zn94 1.977 . S
O103 C96 1.267 . S
C104 O105 1.160 . S
C104 O111 1.185 1_554 S
O105 C104 1.160 . S
O106 Zn107 1.899 . S
O106 C114 1.284 . S
Zn107 O106 1.899 . S
Zn107 O108 2.032 . S
Zn107 O111 2.086 1_554 S
Zn107 O116 1.977 1_554 S
O108 Zn107 2.032 . S
O108 C112 1.284 . S
C109 O110 1.203 . S
C109 O116 1.267 . S
O110 C109 1.203 . S
O111 C104 1.185 1_556 S
O111 Zn107 2.086 1_556 S
C112 O108 1.284 . S
C112 O113 1.202 1_554 S
O113 C112 1.202 1_556 S
C114 O106 1.284 . S
C114 O115 1.273 . S
O115 C114 1.273 . S
O116 Zn107 1.977 1_556 S
O116 C109 1.267 . S
C117 O118 1.168 . S
C117 O124 1.179 1_556 S
O118 C117 1.168 . S
O119 Zn120 1.899 1_556 S
O119 C127 1.284 . S
Zn120 O119 1.899 1_554 S
Zn120 O121 2.032 . S
Zn120 O124 2.086 . S
Zn120 O129 1.977 . S
O121 Zn120 2.032 . S
O121 C125 1.278 . S
C122 O123 1.203 . S
C122 O129 1.267 . S
O123 C122 1.203 . S
O124 C117 1.179 1_554 S
O124 Zn120 2.086 . S
C125 O121 1.278 . S
C125 O126 1.211 . S
O126 C125 1.211 . S
C127 O119 1.284 . S
C127 O128 1.273 . S
O128 C127 1.273 . S
O129 Zn120 1.977 . S
O129 C122 1.267 . S
C130 O131 1.160 . S
C130 O137 1.185 1_554 S
O131 C130 1.160 . S
O132 Zn133 1.899 . S
O132 C140 1.284 . S
Zn133 O132 1.899 . S
Zn133 O134 2.032 . S
Zn133 O137 2.086 1_554 S
Zn133 O142 1.977 1_554 S
O134 Zn133 2.032 . S
O134 C138 1.278 . S
C135 O136 1.203 . S
C135 O142 1.267 . S
O136 C135 1.203 . S
O137 C130 1.185 1_556 S
O137 Zn133 2.086 1_556 S
C138 O134 1.278 . S
C138 O139 1.211 1_554 S
O139 C138 1.211 1_556 S
C140 O132 1.284 . S
C140 O141 1.273 . S
O141 C140 1.273 . S
O142 Zn133 1.977 1_556 S
O142 C135 1.267 . S
C143 O144 1.160 1_554 S
C143 O150 1.185 . S
O144 C143 1.160 1_556 S
O145 Zn146 1.899 1_556 S
O145 C153 1.284 . S
Zn146 O145 1.899 1_554 S
Zn146 O147 2.032 . S
Zn146 O150 2.086 . S
Zn146 O155 1.977 . S
O147 Zn146 2.032 . S
O147 C151 1.278 . S
C148 O149 1.203 . S
C148 O155 1.267 . S
O149 C148 1.203 . S
O150 C143 1.185 . S
O150 Zn146 2.086 . S
C151 O147 1.278 . S
C151 O152 1.211 . S
O152 C151 1.211 . S
C153 O145 1.284 . S
C153 O154 1.273 . S
O154 C153 1.273 . S
O155 Zn146 1.977 . S
O155 C148 1.267 . S
C156 C157 1.349 . S
C156 C158 1.327 . S
C156 H181 0.950 . S
C157 C156 1.349 . S
C157 C173 1.349 . S
C158 C156 1.327 . S
C158 C177 1.429 . S
C158 H182 0.950 . S
C159 C176 1.574 . S
C159 C178 1.368 . S
C159 H183 0.949 1_455 S
H160 C164 0.949 . S
C161 C162 1.349 . S
C161 C163 1.327 . S
C161 H184 0.939 1_455 S
C162 C161 1.349 . S
C162 C174 1.349 . S
C163 C161 1.327 . S
C163 C179 1.429 . S
C163 H185 0.950 1_455 S
C164 H160 0.949 . S
C164 C172 1.574 . S
C164 C180 1.368 . S
H165 C173 0.950 1_655 S
H166 C171 0.950 1_655 S
H167 C172 0.949 . S
H168 C174 0.950 . S
H169 C175 0.950 . S
H170 C176 0.949 1_655 S
C171 H166 0.950 1_455 S
C171 C173 1.327 . S
C171 C177 1.429 . S
C172 C164 1.574 . S
C172 H167 0.949 . S
C172 C178 1.368 . S
C173 C157 1.349 . S
C173 H165 0.950 1_455 S
C173 C171 1.327 . S
C174 C162 1.349 . S
C174 H168 0.950 . S
C174 C175 1.327 . S
C175 H169 0.950 . S
C175 C174 1.327 . S
C175 C179 1.429 . S
C176 C159 1.574 . S
C176 H170 0.949 1_455 S
C176 C180 1.368 . S
C177 C158 1.429 . S
C177 C171 1.429 . S
C177 C178 1.523 . S
C178 C159 1.368 . S
C178 C172 1.368 . S
C178 C177 1.523 . S
C179 C163 1.429 . S
C179 C175 1.429 . S
C179 C180 1.523 . S
C180 C164 1.368 . S
C180 C176 1.368 . S
C180 C179 1.523 . S
H181 C156 0.950 . S
H182 C158 0.950 . S
H183 C159 0.949 1_655 S
H184 C161 0.939 1_655 S
H185 C163 0.950 1_655 S
C186 C187 1.358 . S
C186 C188 1.328 1_545 S
C186 H211 0.941 1_545 S
C187 C186 1.358 . S
C187 C203 1.349 . S
C188 C186 1.328 1_565 S
C188 C207 1.405 1_565 S
C188 H212 0.974 . S
C189 C206 1.574 . S
C189 C208 1.368 . S
C189 H213 0.949 . S
H190 C194 0.949 . S
C191 C192 1.349 . S
C191 C193 1.327 . S
C191 H214 0.950 . S
C192 C191 1.349 . S
C192 C204 1.349 1_545 S
C193 C191 1.327 . S
C193 C209 1.429 . S
C193 H215 0.950 . S
C194 H190 0.949 . S
C194 C202 1.574 . S
C194 C210 1.368 1_565 S
H195 C203 0.950 . S
H196 C201 0.950 . S
H197 C202 0.949 . S
H198 C204 0.950 . S
H199 C205 0.950 . S
H200 C206 0.949 . S
C201 H196 0.950 . S
C201 C203 1.327 . S
C201 C207 1.429 . S
C202 C194 1.574 . S
C202 H197 0.949 . S
C202 C208 1.368 1_565 S
C203 C187 1.349 . S
C203 H195 0.950 . S
C203 C201 1.327 . S
C204 C192 1.349 1_565 S
C204 H198 0.950 . S
C204 C205 1.327 . S
C205 H199 0.950 . S
C205 C204 1.327 . S
C205 C209 1.429 1_565 S
C206 C189 1.574 . S
C206 H200 0.949 . S
C206 C210 1.368 . S
C207 C188 1.405 1_545 S
C207 C201 1.429 . S
C207 C208 1.523 . S
C208 C189 1.368 . S
C208 C202 1.368 1_545 S
C208 C207 1.523 . S
C209 C193 1.429 . S
C209 C205 1.429 1_545 S
C209 C210 1.523 . S
C210 C194 1.368 1_545 S
C210 C206 1.368 . S
C210 C209 1.523 . S
H211 C186 0.941 1_565 S
H212 C188 0.974 . S
H213 C189 0.949 . S
H214 C191 0.950 . S
H215 C193 0.950 . S
C216 C217 1.349 . S
C216 C218 1.327 . S
C216 H241 0.950 . S
C217 C216 1.349 . S
C217 C233 1.349 . S
C218 C216 1.327 . S
C218 C237 1.429 . S
C218 H242 0.950 . S
C219 C236 1.574 . S
C219 C238 1.368 . S
C219 H243 0.949 . S
H220 C224 0.949 . S
C221 C222 1.349 . S
C221 C223 1.327 . S
C221 H244 0.950 . S
C222 C221 1.349 . S
C222 C234 1.349 . S
C223 C221 1.327 . S
C223 C239 1.429 . S
C223 H245 0.950 . S
C224 H220 0.949 . S
C224 C232 1.574 . S
C224 C240 1.368 . S
H225 C233 0.950 . S
H226 C231 0.950 . S
H227 C232 0.949 . S
H228 C234 0.950 . S
H229 C235 0.950 . S
H230 C236 0.949 . S
C231 H226 0.950 . S
C231 C233 1.327 . S
C231 C237 1.429 . S
C232 C224 1.574 . S
C232 H227 0.949 . S
C232 C238 1.368 . S
C233 C217 1.349 . S
C233 H225 0.950 . S
C233 C231 1.327 . S
C234 C222 1.349 . S
C234 H228 0.950 . S
C234 C235 1.327 . S
C235 H229 0.950 . S
C235 C234 1.327 . S
C235 C239 1.429 . S
C236 C219 1.574 . S
C236 H230 0.949 . S
C236 C240 1.368 . S
C237 C218 1.429 . S
C237 C231 1.429 . S
C237 C238 1.523 . S
C238 C219 1.368 . S
C238 C232 1.368 . S
C238 C237 1.523 . S
C239 C223 1.429 . S
C239 C235 1.429 . S
C239 C240 1.523 . S
C240 C224 1.368 . S
C240 C236 1.368 . S
C240 C239 1.523 . S
H241 C216 0.950 . S
H242 C218 0.950 . S
H243 C219 0.949 . S
H244 C221 0.950 . S
H245 C223 0.950 . S
C246 C247 1.349 1_565 S
C246 C248 1.327 . S
C246 H271 0.950 . S
C247 C246 1.349 1_545 S
C247 C263 1.349 . S
C248 C246 1.327 . S
C248 C267 1.429 1_565 S
C248 H272 0.950 . S
C249 C266 1.574 . S
C249 C268 1.368 . S
C249 H273 0.949 . S
H250 C254 0.949 . S
C251 C252 1.349 . S
C251 C253 1.327 . S
C251 H274 0.950 . S
C252 C251 1.349 . S
C252 C264 1.349 1_545 S
C253 C251 1.327 . S
C253 C269 1.429 . S
C253 H275 0.950 . S
C254 H250 0.949 . S
C254 C262 1.574 . S
C254 C270 1.368 1_565 S
H255 C263 0.950 . S
H256 C261 0.950 . S
H257 C262 0.949 . S
H258 C264 0.950 . S
H259 C265 0.950 . S
H260 C266 0.949 . S
C261 H256 0.950 . S
C261 C263 1.327 . S
C261 C267 1.429 . S
C262 C254 1.574 . S
C262 H257 0.949 . S
C262 C268 1.368 1_565 S
C263 C247 1.349 . S
C263 H255 0.950 . S
C263 C261 1.327 . S
C264 C252 1.349 1_565 S
C264 H258 0.950 . S
C264 C265 1.327 . S
C265 H259 0.950 . S
C265 C264 1.327 . S
C265 C269 1.429 1_565 S
C266 C249 1.574 . S
C266 H260 0.949 . S
C266 C270 1.368 . S
C267 C248 1.429 1_545 S
C267 C261 1.429 . S
C267 C268 1.523 . S
C268 C249 1.368 . S
C268 C262 1.368 1_545 S
C268 C267 1.523 . S
C269 C253 1.429 . S
C269 C265 1.429 1_545 S
C269 C270 1.523 . S
C270 C254 1.368 1_545 S
C270 C266 1.368 . S
C270 C269 1.523 . S
H271 C246 0.950 . S
H272 C248 0.950 . S
H273 C249 0.949 . S
H274 C251 0.950 . S
H275 C253 0.950 . S
C276 C277 1.349 . S
C276 C278 1.327 . S
C276 H301 0.950 . S
C277 C276 1.349 . S
C277 C293 1.349 . S
C278 C276 1.327 . S
C278 C297 1.429 . S
C278 H302 0.950 . S
C279 C296 1.574 . S
C279 C298 1.368 . S
C279 H303 0.949 . S
H280 C284 0.949 . S
C281 C282 1.349 . S
C281 C283 1.327 . S
C281 H304 0.950 . S
C282 C281 1.349 . S
C282 C294 1.349 . S
C283 C281 1.327 . S
C283 C299 1.429 . S
C283 H305 0.950 . S
C284 H280 0.949 . S
C284 C292 1.574 . S
C284 C300 1.368 . S
H285 C293 0.950 . S
H286 C291 0.950 . S
H287 C292 0.949 . S
H288 C294 0.950 . S
H289 C295 0.950 . S
H290 C296 0.949 . S
C291 H286 0.950 . S
C291 C293 1.327 . S
C291 C297 1.429 . S
C292 C284 1.574 . S
C292 H287 0.949 . S
C292 C298 1.368 . S
C293 C277 1.349 . S
C293 H285 0.950 . S
C293 C291 1.327 . S
C294 C282 1.349 . S
C294 H288 0.950 . S
C294 C295 1.327 . S
C295 H289 0.950 . S
C295 C294 1.327 . S
C295 C299 1.429 . S
C296 C279 1.574 . S
C296 H290 0.949 . S
C296 C300 1.368 . S
C297 C278 1.429 . S
C297 C291 1.429 . S
C297 C298 1.523 . S
C298 C279 1.368 . S
C298 C292 1.368 . S
C298 C297 1.523 . S
C299 C283 1.429 . S
C299 C295 1.429 . S
C299 C300 1.523 . S
C300 C284 1.368 . S
C300 C296 1.368 . S
C300 C299 1.523 . S
H301 C276 0.950 . S
H302 C278 0.950 . S
H303 C279 0.949 . S
H304 C281 0.950 . S
H305 C283 0.950 . S
C306 C307 1.349 . S
C306 C308 1.327 . S
C306 H331 0.950 . S
C307 C306 1.349 . S
C307 C323 1.349 1_545 S
C308 C306 1.327 . S
C308 C327 1.429 . S
C308 H332 0.950 . S
C309 C326 1.574 . S
C309 C328 1.368 1_565 S
C309 H333 0.949 . S
H310 C314 0.949 . S
C311 C312 1.349 1_565 S
C311 C313 1.327 . S
C311 H334 0.950 . S
C312 C311 1.349 1_545 S
C312 C324 1.349 . S
C313 C311 1.327 . S
C313 C329 1.429 1_565 S
C313 H335 0.950 . S
C314 H310 0.949 . S
C314 C322 1.574 . S
C314 C330 1.368 . S
H315 C323 0.950 . S
H316 C321 0.950 . S
H317 C322 0.949 . S
H318 C324 0.950 . S
H319 C325 0.950 . S
H320 C326 0.949 . S
C321 H316 0.950 . S
C321 C323 1.327 . S
C321 C327 1.429 1_565 S
C322 C314 1.574 . S
C322 H317 0.949 . S
C322 C328 1.368 . S
C323 C307 1.349 1_565 S
C323 H315 0.950 . S
C323 C321 1.327 . S
C324 C312 1.349 . S
C324 H318 0.950 . S
C324 C325 1.327 . S
C325 H319 0.950 . S
C325 C324 1.327 . S
C325 C329 1.429 . S
C326 C309 1.574 . S
C326 H320 0.949 . S
C326 C330 1.368 1_565 S
C327 C308 1.429 . S
C327 C321 1.429 1_545 S
C327 C328 1.523 . S
C328 C309 1.368 1_545 S
C328 C322 1.368 . S
C328 C327 1.523 . S
C329 C313 1.429 1_545 S
C329 C325 1.429 . S
C329 C330 1.523 . S
C330 C314 1.368 . S
C330 C326 1.368 1_545 S
C330 C329 1.523 . S
H331 C306 0.950 . S
H332 C308 0.950 . S
H333 C309 0.949 . S
H334 C311 0.950 . S
H335 C313 0.950 . S
C336 C337 1.349 . S
C336 C338 1.327 . S
C336 H361 0.950 1_455 S
C337 C336 1.349 . S
C337 C353 1.349 . S
C338 C336 1.327 . S
C338 C357 1.429 . S
C338 H362 0.950 1_455 S
C339 C356 1.574 . S
C339 C358 1.368 . S
C339 H363 0.949 . S
H340 C344 0.949 1_655 S
C341 C342 1.349 . S
C341 C343 1.327 . S
C341 H364 0.950 . S
C342 C341 1.349 . S
C342 C354 1.349 . S
C343 C341 1.327 . S
C343 C359 1.429 . S
C343 H365 0.950 . S
C344 H340 0.949 1_455 S
C344 C352 1.574 . S
C344 C360 1.368 . S
H345 C353 0.950 . S
H346 C351 0.950 . S
H347 C352 0.949 1_655 S
H348 C354 0.950 1_655 S
H349 C355 0.950 1_655 S
H350 C356 0.949 . S
C351 H346 0.950 . S
C351 C353 1.327 . S
C351 C357 1.429 . S
C352 C344 1.574 . S
C352 H347 0.949 1_455 S
C352 C358 1.368 . S
C353 C337 1.349 . S
C353 H345 0.950 . S
C353 C351 1.327 . S
C354 C342 1.349 . S
C354 H348 0.950 1_455 S
C354 C355 1.327 . S
C355 H349 0.950 1_455 S
C355 C354 1.327 . S
C355 C359 1.429 . S
C356 C339 1.574 . S
C356 H350 0.949 . S
C356 C360 1.368 . S
C357 C338 1.429 . S
C357 C351 1.429 . S
C357 C358 1.523 . S
C358 C339 1.368 . S
C358 C352 1.368 . S
C358 C357 1.523 . S
C359 C343 1.429 . S
C359 C355 1.429 . S
C359 C360 1.523 . S
C360 C344 1.368 . S
C360 C356 1.368 . S
C360 C359 1.523 . S
H361 C336 0.950 1_655 S
H362 C338 0.950 1_655 S
H363 C339 0.949 . S
H364 C341 0.950 . S
H365 C343 0.950 . S
C366 C367 1.349 1_565 S
C366 C368 1.327 . S
C366 H391 0.950 . S
C367 C366 1.349 1_545 S
C367 C383 1.349 . S
C368 C366 1.327 . S
C368 C387 1.429 1_565 S
C368 H392 0.950 . S
C369 C386 1.574 . S
C369 C388 1.368 . S
C369 H393 0.949 . S
H370 C374 0.949 . S
C371 C372 1.349 . S
C371 C373 1.327 . S
C371 H394 0.950 . S
C372 C371 1.349 . S
C372 C384 1.349 1_545 S
C373 C371 1.327 . S
C373 C389 1.429 . S
C373 H395 0.950 . S
C374 H370 0.949 . S
C374 C382 1.574 . S
C374 C390 1.368 1_565 S
H375 C383 0.950 . S
H376 C381 0.950 . S
H377 C382 0.949 . S
H378 C384 0.950 . S
H379 C385 0.950 . S
H380 C386 0.949 . S
C381 H376 0.950 . S
C381 C383 1.327 . S
C381 C387 1.429 . S
C382 C374 1.574 . S
C382 H377 0.949 . S
C382 C388 1.368 1_565 S
C383 C367 1.349 . S
C383 H375 0.950 . S
C383 C381 1.327 . S
C384 C372 1.349 1_565 S
C384 H378 0.950 . S
C384 C385 1.327 . S
C385 H379 0.950 . S
C385 C384 1.327 . S
C385 C389 1.429 1_565 S
C386 C369 1.574 . S
C386 H380 0.949 . S
C386 C390 1.368 . S
C387 C368 1.429 1_545 S
C387 C381 1.429 . S
C387 C388 1.523 . S
C388 C369 1.368 . S
C388 C382 1.368 1_545 S
C388 C387 1.523 . S
C389 C373 1.429 . S
C389 C385 1.429 1_545 S
C389 C390 1.523 . S
C390 C374 1.368 1_545 S
C390 C386 1.368 . S
C390 C389 1.523 . S
H391 C366 0.950 . S
H392 C368 0.950 . S
H393 C369 0.949 . S
H394 C371 0.950 . S
H395 C373 0.950 . S
C396 C397 1.349 . S
C396 C398 1.327 . S
C396 H421 0.950 . S
C397 C396 1.349 . S
C397 C413 1.349 1_554 S
C398 C396 1.327 . S
C398 C417 1.429 . S
C398 H422 0.950 . S
C399 C416 1.574 . S
C399 C418 1.368 1_556 S
C399 H423 0.949 . S
H400 C404 0.949 . S
C401 C402 1.349 1_556 S
C401 C403 1.327 . S
C401 H424 0.950 . S
C402 C401 1.349 1_554 S
C402 C414 1.349 . S
C403 C401 1.327 . S
C403 C419 1.429 1_556 S
C403 H425 0.950 . S
C404 H400 0.949 . S
C404 C412 1.574 . S
C404 C420 1.368 . S
H405 C413 0.950 . S
H406 C411 0.950 . S
H407 C412 0.949 . S
H408 C414 0.950 . S
H409 C415 0.950 . S
H410 C416 0.949 . S
C411 H406 0.950 . S
C411 C413 1.327 . S
C411 C417 1.429 1_556 S
C412 C404 1.574 . S
C412 H407 0.949 . S
C412 C418 1.368 . S
C413 C397 1.349 1_556 S
C413 H405 0.950 . S
C413 C411 1.327 . S
C414 C402 1.349 . S
C414 H408 0.950 . S
C414 C415 1.327 . S
C415 H409 0.950 . S
C415 C414 1.327 . S
C415 C419 1.429 . S
C416 C399 1.574 . S
C416 H410 0.949 . S
C416 C420 1.368 1_556 S
C417 C398 1.429 . S
C417 C411 1.429 1_554 S
C417 C418 1.523 . S
C418 C399 1.368 1_554 S
C418 C412 1.368 . S
C418 C417 1.523 . S
C419 C403 1.429 1_554 S
C419 C415 1.429 . S
C419 C420 1.523 . S
C420 C404 1.368 . S
C420 C416 1.368 1_554 S
C420 C419 1.523 . S
H421 C396 0.950 . S
H422 C398 0.950 . S
H423 C399 0.949 . S
H424 C401 0.950 . S
H425 C403 0.950 . S
C426 C427 1.349 1_556 S
C426 C428 1.327 . S
C426 H451 0.950 . S
C427 C426 1.349 1_554 S
C427 C443 1.349 . S
C428 C426 1.327 . S
C428 C447 1.429 1_556 S
C428 H452 0.950 . S
C429 C446 1.574 . S
C429 C448 1.368 . S
C429 H453 0.949 . S
H430 C434 0.949 . S
C431 C432 1.349 . S
C431 C433 1.327 . S
C431 H454 0.950 . S
C432 C431 1.349 . S
C432 C444 1.349 1_554 S
C433 C431 1.327 . S
C433 C449 1.429 . S
C433 H455 0.950 . S
C434 H430 0.949 . S
C434 C442 1.574 . S
C434 C450 1.368 1_556 S
H435 C443 0.950 . S
H436 C441 0.950 . S
H437 C442 0.949 . S
H438 C444 0.950 . S
H439 C445 0.950 . S
H440 C446 0.949 . S
C441 H436 0.950 . S
C441 C443 1.327 . S
C441 C447 1.429 . S
C442 C434 1.574 . S
C442 H437 0.949 . S
C442 C448 1.368 1_556 S
C443 C427 1.349 . S
C443 H435 0.950 . S
C443 C441 1.327 . S
C444 C432 1.349 1_556 S
C444 H438 0.950 . S
C444 C445 1.327 . S
C445 H439 0.950 . S
C445 C444 1.327 . S
C445 C449 1.429 1_556 S
C446 C429 1.574 . S
C446 H440 0.949 . S
C446 C450 1.368 . S
C447 C428 1.429 1_554 S
C447 C441 1.429 . S
C447 C448 1.523 . S
C448 C429 1.368 . S
C448 C442 1.368 1_554 S
C448 C447 1.523 . S
C449 C433 1.429 . S
C449 C445 1.429 1_554 S
C449 C450 1.523 . S
C450 C434 1.368 1_554 S
C450 C446 1.368 . S
C450 C449 1.523 . S
H451 C426 0.950 . S
H452 C428 0.950 . S
H453 C429 0.949 . S
H454 C431 0.950 . S
H455 C433 0.950 . S
C456 C457 1.349 . S
C456 C458 1.327 . S
C456 H481 0.950 . S
C457 C456 1.349 . S
C457 C473 1.349 1_554 S
C458 C456 1.327 . S
C458 C477 1.429 . S
C458 H482 0.950 . S
C459 C476 1.574 . S
C459 C478 1.368 1_556 S
C459 H483 0.949 . S
H460 C464 0.949 . S
C461 C462 1.349 1_556 S
C461 C463 1.327 . S
C461 H484 0.950 . S
C462 C461 1.349 1_554 S
C462 C474 1.349 . S
C463 C461 1.327 . S
C463 C479 1.429 1_556 S
C463 H485 0.950 . S
C464 H460 0.949 . S
C464 C472 1.574 . S
C464 C480 1.368 . S
H465 C473 0.950 . S
H466 C471 0.950 . S
H467 C472 0.949 . S
H468 C474 0.950 . S
H469 C475 0.950 . S
H470 C476 0.949 . S
C471 H466 0.950 . S
C471 C473 1.327 . S
C471 C477 1.429 1_556 S
C472 C464 1.574 . S
C472 H467 0.949 . S
C472 C478 1.368 . S
C473 C457 1.349 1_556 S
C473 H465 0.950 . S
C473 C471 1.327 . S
C474 C462 1.349 . S
C474 H468 0.950 . S
C474 C475 1.327 . S
C475 H469 0.950 . S
C475 C474 1.327 . S
C475 C479 1.429 . S
C476 C459 1.574 . S
C476 H470 0.949 . S
C476 C480 1.368 1_556 S
C477 C458 1.429 . S
C477 C471 1.429 1_554 S
C477 C478 1.523 . S
C478 C459 1.368 1_554 S
C478 C472 1.368 . S
C478 C477 1.523 . S
C479 C463 1.429 1_554 S
C479 C475 1.429 . S
C479 C480 1.523 . S
C480 C464 1.368 . S
C480 C476 1.368 1_554 S
C480 C479 1.523 . S
H481 C456 0.950 . S
H482 C458 0.950 . S
H483 C459 0.949 . S
H484 C461 0.950 . S
H485 C463 0.950 . S
C486 C487 1.349 . S
C486 C488 1.327 . S
C486 H511 0.950 . S
C487 C486 1.349 . S
C487 C503 1.349 1_554 S
C488 C486 1.327 . S
C488 C507 1.429 . S
C488 H512 0.950 . S
C489 C506 1.574 . S
C489 C508 1.368 1_556 S
C489 H513 0.949 . S
H490 C494 0.949 . S
C491 C492 1.349 1_556 S
C491 C493 1.327 . S
C491 H514 0.950 . S
C492 C491 1.349 1_554 S
C492 C504 1.349 . S
C493 C491 1.327 . S
C493 C509 1.429 1_556 S
C493 H515 0.950 . S
C494 H490 0.949 . S
C494 C502 1.574 . S
C494 C510 1.368 . S
H495 C503 0.950 . S
H496 C501 0.950 . S
H497 C502 0.949 . S
H498 C504 0.950 . S
H499 C505 0.950 . S
H500 C506 0.949 . S
C501 H496 0.950 . S
C501 C503 1.327 . S
C501 C507 1.429 1_556 S
C502 C494 1.574 . S
C502 H497 0.949 . S
C502 C508 1.368 . S
C503 C487 1.349 1_556 S
C503 H495 0.950 . S
C503 C501 1.327 . S
C504 C492 1.349 . S
C504 H498 0.950 . S
C504 C505 1.327 . S
C505 H499 0.950 . S
C505 C504 1.327 . S
C505 C509 1.429 . S
C506 C489 1.574 . S
C506 H500 0.949 . S
C506 C510 1.368 1_556 S
C507 C488 1.429 . S
C507 C501 1.429 1_554 S
C507 C508 1.523 . S
C508 C489 1.368 1_554 S
C508 C502 1.368 . S
C508 C507 1.523 . S
C509 C493 1.429 1_554 S
C509 C505 1.429 . S
C509 C510 1.523 . S
C510 C494 1.368 . S
C510 C506 1.368 1_554 S
C510 C509 1.523 . S
H511 C486 0.950 . S
H512 C488 0.950 . S
H513 C489 0.949 . S
H514 C491 0.950 . S
H515 C493 0.950 . S
C516 C517 1.349 . S
C516 C518 1.327 . S
C516 H541 0.950 . S
C517 C516 1.349 . S
C517 C533 1.349 . S
C518 C516 1.327 . S
C518 C537 1.429 . S
C518 H542 0.950 . S
C519 C536 1.574 . S
C519 C538 1.368 . S
C519 H543 0.949 . S
H520 C524 0.949 . S
C521 C522 1.349 . S
C521 C523 1.327 . S
C521 H544 0.950 . S
C522 C521 1.349 . S
C522 C534 1.349 . S
C523 C521 1.327 . S
C523 C539 1.429 . S
C523 H545 0.950 . S
C524 H520 0.949 . S
C524 C532 1.574 . S
C524 C540 1.368 . S
H525 C533 0.950 . S
H526 C531 0.950 . S
H527 C532 0.949 . S
H528 C534 0.950 . S
H529 C535 0.950 . S
H530 C536 0.949 . S
C531 H526 0.950 . S
C531 C533 1.327 . S
C531 C537 1.429 . S
C532 C524 1.574 . S
C532 H527 0.949 . S
C532 C538 1.368 . S
C533 C517 1.349 . S
C533 H525 0.950 . S
C533 C531 1.327 . S
C534 C522 1.349 . S
C534 H528 0.950 . S
C534 C535 1.327 . S
C535 H529 0.950 . S
C535 C534 1.327 . S
C535 C539 1.429 . S
C536 C519 1.574 . S
C536 H530 0.949 . S
C536 C540 1.368 . S
C537 C518 1.429 . S
C537 C531 1.429 . S
C537 C538 1.523 . S
C538 C519 1.368 . S
C538 C532 1.368 . S
C538 C537 1.523 . S
C539 C523 1.429 . S
C539 C535 1.429 . S
C539 C540 1.523 . S
C540 C524 1.368 . S
C540 C536 1.368 . S
C540 C539 1.523 . S
H541 C516 0.950 . S
H542 C518 0.950 . S
H543 C519 0.949 . S
H544 C521 0.950 . S
H545 C523 0.950 . S
C546 C547 1.349 . S
C546 C548 1.327 . S
C546 H571 0.950 . S
C547 C546 1.349 . S
C547 C563 1.349 . S
C548 C546 1.327 . S
C548 C567 1.429 . S
C548 H572 0.950 . S
C549 C566 1.574 . S
C549 C568 1.368 . S
C549 H573 0.949 . S
H550 C554 0.949 . S
C551 C552 1.349 . S
C551 C553 1.327 . S
C551 H574 0.950 . S
C552 C551 1.349 . S
C552 C564 1.349 . S
C553 C551 1.327 . S
C553 C569 1.429 . S
C553 H575 0.950 . S
C554 H550 0.949 . S
C554 C562 1.574 . S
C554 C570 1.368 . S
H555 C563 0.950 . S
H556 C561 0.950 . S
H557 C562 0.949 . S
H558 C564 0.950 . S
H559 C565 0.950 . S
H560 C566 0.949 . S
C561 H556 0.950 . S
C561 C563 1.327 . S
C561 C567 1.429 . S
C562 C554 1.574 . S
C562 H557 0.949 . S
C562 C568 1.368 . S
C563 C547 1.349 . S
C563 H555 0.950 . S
C563 C561 1.327 . S
C564 C552 1.349 . S
C564 H558 0.950 . S
C564 C565 1.327 . S
C565 H559 0.950 . S
C565 C564 1.327 . S
C565 C569 1.429 . S
C566 C549 1.574 . S
C566 H560 0.949 . S
C566 C570 1.368 . S
C567 C548 1.429 . S
C567 C561 1.429 . S
C567 C568 1.523 . S
C568 C549 1.368 . S
C568 C562 1.368 . S
C568 C567 1.523 . S
C569 C553 1.429 . S
C569 C565 1.429 . S
C569 C570 1.523 . S
C570 C554 1.368 . S
C570 C566 1.368 . S
C570 C569 1.523 . S
H571 C546 0.950 . S
H572 C548 0.950 . S
H573 C549 0.949 . S
H574 C551 0.950 . S
H575 C553 0.950 . S
C576 C577 1.349 . S
C576 C578 1.327 . S
C576 H601 0.950 . S
C577 C576 1.349 . S
C577 C593 1.349 . S
C578 C576 1.327 . S
C578 C597 1.429 . S
C578 H602 0.950 . S
C579 C596 1.574 . S
C579 C598 1.368 . S
C579 H603 0.949 . S
H580 C584 0.949 . S
C581 C582 1.349 . S
C581 C583 1.327 . S
C581 H604 0.950 . S
C582 C581 1.349 . S
C582 C594 1.349 . S
C583 C581 1.327 . S
C583 C599 1.429 . S
C583 H605 0.950 . S
C584 H580 0.949 . S
C584 C592 1.574 . S
C584 C600 1.368 . S
H585 C593 0.950 . S
H586 C591 0.950 . S
H587 C592 0.949 . S
H588 C594 0.950 . S
H589 C595 0.950 . S
H590 C596 0.949 . S
C591 H586 0.950 . S
C591 C593 1.327 . S
C591 C597 1.429 . S
C592 C584 1.574 . S
C592 H587 0.949 . S
C592 C598 1.368 . S
C593 C577 1.349 . S
C593 H585 0.950 . S
C593 C591 1.327 . S
C594 C582 1.349 . S
C594 H588 0.950 . S
C594 C595 1.327 . S
C595 H589 0.950 . S
C595 C594 1.327 . S
C595 C599 1.429 . S
C596 C579 1.574 . S
C596 H590 0.949 . S
C596 C600 1.368 . S
C597 C578 1.429 . S
C597 C591 1.429 . S
C597 C598 1.523 . S
C598 C579 1.368 . S
C598 C592 1.368 . S
C598 C597 1.523 . S
C599 C583 1.429 . S
C599 C595 1.429 . S
C599 C600 1.523 . S
C600 C584 1.368 . S
C600 C596 1.368 . S
C600 C599 1.523 . S
H601 C576 0.950 . S
H602 C578 0.950 . S
H603 C579 0.949 . S
H604 C581 0.950 . S
H605 C583 0.950 . S
C606 C607 1.349 . S
C606 C608 1.327 . S
C606 H631 0.950 . S
C607 C606 1.349 . S
C607 C623 1.349 . S
C608 C606 1.327 . S
C608 C627 1.429 . S
C608 H632 0.950 . S
C609 C626 1.574 . S
C609 C628 1.368 . S
C609 H633 0.949 . S
H610 C614 0.949 . S
C611 C612 1.349 . S
C611 C613 1.327 . S
C611 H634 0.950 . S
C612 C611 1.349 . S
C612 C624 1.349 . S
C613 C611 1.327 . S
C613 C629 1.429 . S
C613 H635 0.950 . S
C614 H610 0.949 . S
C614 C622 1.574 . S
C614 C630 1.368 . S
H615 C623 0.950 . S
H616 C621 0.950 . S
H617 C622 0.949 . S
H618 C624 0.950 . S
H619 C625 0.950 . S
H620 C626 0.949 . S
C621 H616 0.950 . S
C621 C623 1.327 . S
C621 C627 1.429 . S
C622 C614 1.574 . S
C622 H617 0.949 . S
C622 C628 1.368 . S
C623 C607 1.349 . S
C623 H615 0.950 . S
C623 C621 1.327 . S
C624 C612 1.349 . S
C624 H618 0.950 . S
C624 C625 1.327 . S
C625 H619 0.950 . S
C625 C624 1.327 . S
C625 C629 1.429 . S
C626 C609 1.574 . S
C626 H620 0.949 . S
C626 C630 1.368 . S
C627 C608 1.429 . S
C627 C621 1.429 . S
C627 C628 1.523 . S
C628 C609 1.368 . S
C628 C622 1.368 . S
C628 C627 1.523 . S
C629 C613 1.429 . S
C629 C625 1.429 . S
C629 C630 1.523 . S
C630 C614 1.368 . S
C630 C626 1.368 . S
C630 C629 1.523 . S
H631 C606 0.950 . S
H632 C608 0.950 . S
H633 C609 0.949 . S
H634 C611 0.950 . S
H635 C613 0.950 . S
C636 C637 1.349 . S
C636 C638 1.327 . S
C636 H661 0.950 . S
C637 C636 1.349 . S
C637 C653 1.349 . S
C638 C636 1.327 . S
C638 C657 1.429 . S
C638 H662 0.950 . S
C639 C656 1.574 . S
C639 C658 1.368 . S
C639 H663 0.949 . S
H640 C644 0.949 . S
C641 C642 1.349 . S
C641 C643 1.327 . S
C641 H664 0.950 . S
C642 C641 1.349 . S
C642 C654 1.349 . S
C643 C641 1.327 . S
C643 C659 1.429 . S
C643 H665 0.950 . S
C644 H640 0.949 . S
C644 C652 1.574 . S
C644 C660 1.368 . S
H645 C653 0.950 . S
H646 C651 0.950 . S
H647 C652 0.949 . S
H648 C654 0.950 . S
H649 C655 0.950 . S
H650 C656 0.949 . S
C651 H646 0.950 . S
C651 C653 1.327 . S
C651 C657 1.429 . S
C652 C644 1.574 . S
C652 H647 0.949 . S
C652 C658 1.368 . S
C653 C637 1.349 . S
C653 H645 0.950 . S
C653 C651 1.327 . S
C654 C642 1.349 . S
C654 H648 0.950 . S
C654 C655 1.327 . S
C655 H649 0.950 . S
C655 C654 1.327 . S
C655 C659 1.429 . S
C656 C639 1.574 . S
C656 H650 0.949 . S
C656 C660 1.368 . S
C657 C638 1.429 . S
C657 C651 1.429 . S
C657 C658 1.523 . S
C658 C639 1.368 . S
C658 C652 1.368 . S
C658 C657 1.523 . S
C659 C643 1.429 . S
C659 C655 1.429 . S
C659 C660 1.523 . S
C660 C644 1.368 . S
C660 C656 1.368 . S
C660 C659 1.523 . S
H661 C636 0.950 . S
H662 C638 0.950 . S
H663 C639 0.949 . S
H664 C641 0.950 . S
H665 C643 0.950 . S
C666 C667 1.349 . S
C666 C668 1.327 . S
C666 H691 0.950 . S
C667 C666 1.349 . S
C667 C683 1.349 . S
C668 C666 1.327 . S
C668 C687 1.429 . S
C668 H692 0.950 . S
C669 C686 1.574 . S
C669 C688 1.368 . S
C669 H693 0.949 . S
H670 C674 0.949 . S
C671 C672 1.349 . S
C671 C673 1.327 . S
C671 H694 0.950 . S
C672 C671 1.349 . S
C672 C684 1.349 . S
C673 C671 1.327 . S
C673 C689 1.429 . S
C673 H695 0.950 . S
C674 H670 0.949 . S
C674 C682 1.574 . S
C674 C690 1.368 . S
H675 C683 0.950 . S
H676 C681 0.950 . S
H677 C682 0.949 . S
H678 C684 0.950 . S
H679 C685 0.950 . S
H680 C686 0.949 . S
C681 H676 0.950 . S
C681 C683 1.327 . S
C681 C687 1.429 . S
C682 C674 1.574 . S
C682 H677 0.949 . S
C682 C688 1.368 . S
C683 C667 1.349 . S
C683 H675 0.950 . S
C683 C681 1.327 . S
C684 C672 1.349 . S
C684 H678 0.950 . S
C684 C685 1.327 . S
C685 H679 0.950 . S
C685 C684 1.327 . S
C685 C689 1.429 . S
C686 C669 1.574 . S
C686 H680 0.949 . S
C686 C690 1.368 . S
C687 C668 1.429 . S
C687 C681 1.429 . S
C687 C688 1.523 . S
C688 C669 1.368 . S
C688 C682 1.368 . S
C688 C687 1.523 . S
C689 C673 1.429 . S
C689 C685 1.429 . S
C689 C690 1.523 . S
C690 C674 1.368 . S
C690 C686 1.368 . S
C690 C689 1.523 . S
H691 C666 0.950 . S
H692 C668 0.950 . S
H693 C669 0.949 . S
H694 C671 0.950 . S
H695 C673 0.950 . S
C696 C697 1.349 . S
C696 C698 1.327 . S
C696 H721 0.950 . S
C697 C696 1.349 . S
C697 C713 1.349 . S
C698 C696 1.327 . S
C698 C717 1.429 . S
C698 H722 0.950 . S
C699 C716 1.574 . S
C699 C718 1.368 . S
C699 H723 0.949 . S
H700 C704 0.949 . S
C701 C702 1.349 . S
C701 C703 1.327 . S
C701 H724 0.950 . S
C702 C701 1.349 . S
C702 C714 1.349 . S
C703 C701 1.327 . S
C703 C719 1.429 . S
C703 H725 0.950 . S
C704 H700 0.949 . S
C704 C712 1.574 . S
C704 C720 1.368 . S
H705 C713 0.950 . S
H706 C711 0.950 . S
H707 C712 0.949 . S
H708 C714 0.950 . S
H709 C715 0.950 . S
H710 C716 0.949 . S
C711 H706 0.950 . S
C711 C713 1.327 . S
C711 C717 1.429 . S
C712 C704 1.574 . S
C712 H707 0.949 . S
C712 C718 1.368 . S
C713 C697 1.349 . S
C713 H705 0.950 . S
C713 C711 1.327 . S
C714 C702 1.349 . S
C714 H708 0.950 . S
C714 C715 1.327 . S
C715 H709 0.950 . S
C715 C714 1.327 . S
C715 C719 1.429 . S
C716 C699 1.574 . S
C716 H710 0.949 . S
C716 C720 1.368 . S
C717 C698 1.429 . S
C717 C711 1.429 . S
C717 C718 1.523 . S
C718 C699 1.368 . S
C718 C712 1.368 . S
C718 C717 1.523 . S
C719 C703 1.429 . S
C719 C715 1.429 . S
C719 C720 1.523 . S
C720 C704 1.368 . S
C720 C716 1.368 . S
C720 C719 1.523 . S
H721 C696 0.950 . S
H722 C698 0.950 . S
H723 C699 0.949 . S
H724 C701 0.950 . S
H725 C703 0.950 . S
C726 C727 1.349 . S
C726 C728 1.327 . S
C726 H751 0.950 . S
C727 C726 1.349 . S
C727 C743 1.349 . S
C728 C726 1.327 . S
C728 C747 1.429 . S
C728 H752 0.950 . S
C729 C746 1.574 . S
C729 C748 1.368 . S
C729 H753 0.949 . S
H730 C734 0.949 . S
C731 C732 1.349 . S
C731 C733 1.327 . S
C731 H754 0.950 . S
C732 C731 1.349 . S
C732 C744 1.349 . S
C733 C731 1.327 . S
C733 C749 1.429 . S
C733 H755 0.950 . S
C734 H730 0.949 . S
C734 C742 1.574 . S
C734 C750 1.368 . S
H735 C743 0.950 . S
H736 C741 0.950 . S
H737 C742 0.949 . S
H738 C744 0.950 . S
H739 C745 0.950 . S
H740 C746 0.949 . S
C741 H736 0.950 . S
C741 C743 1.327 . S
C741 C747 1.429 . S
C742 C734 1.574 . S
C742 H737 0.949 . S
C742 C748 1.368 . S
C743 C727 1.349 . S
C743 H735 0.950 . S
C743 C741 1.327 . S
C744 C732 1.349 . S
C744 H738 0.950 . S
C744 C745 1.327 . S
C745 H739 0.950 . S
C745 C744 1.327 . S
C745 C749 1.429 . S
C746 C729 1.574 . S
C746 H740 0.949 . S
C746 C750 1.368 . S
C747 C728 1.429 . S
C747 C741 1.429 . S
C747 C748 1.523 . S
C748 C729 1.368 . S
C748 C742 1.368 . S
C748 C747 1.523 . S
C749 C733 1.429 . S
C749 C745 1.429 . S
C749 C750 1.523 . S
C750 C734 1.368 . S
C750 C746 1.368 . S
C750 C749 1.523 . S
H751 C726 0.950 . S
H752 C728 0.950 . S
H753 C729 0.949 . S
H754 C731 0.950 . S
H755 C733 0.950 . S
C756 C757 1.349 . S
C756 C758 1.327 . S
C756 H781 0.950 . S
C757 C756 1.349 . S
C757 C773 1.349 . S
C758 C756 1.327 . S
C758 C777 1.429 . S
C758 H782 0.950 . S
C759 C776 1.574 . S
C759 C778 1.368 . S
C759 H783 0.949 . S
H760 C764 0.949 . S
C761 C762 1.349 . S
C761 C763 1.327 . S
C761 H784 0.950 . S
C762 C761 1.349 . S
C762 C774 1.349 . S
C763 C761 1.327 . S
C763 C779 1.429 . S
C763 H785 0.950 . S
C764 H760 0.949 . S
C764 C772 1.574 . S
C764 C780 1.368 . S
H765 C773 0.950 . S
H766 C771 0.950 . S
H767 C772 0.949 . S
H768 C774 0.950 . S
H769 C775 0.950 . S
H770 C776 0.949 . S
C771 H766 0.950 . S
C771 C773 1.327 . S
C771 C777 1.429 . S
C772 C764 1.574 . S
C772 H767 0.949 . S
C772 C778 1.368 . S
C773 C757 1.349 . S
C773 H765 0.950 . S
C773 C771 1.327 . S
C774 C762 1.349 . S
C774 H768 0.950 . S
C774 C775 1.327 . S
C775 H769 0.950 . S
C775 C774 1.327 . S
C775 C779 1.429 . S
C776 C759 1.574 . S
C776 H770 0.949 . S
C776 C780 1.368 . S
C777 C758 1.429 . S
C777 C771 1.429 . S
C777 C778 1.523 . S
C778 C759 1.368 . S
C778 C772 1.368 . S
C778 C777 1.523 . S
C779 C763 1.429 . S
C779 C775 1.429 . S
C779 C780 1.523 . S
C780 C764 1.368 . S
C780 C776 1.368 . S
C780 C779 1.523 . S
H781 C756 0.950 . S
H782 C758 0.950 . S
H783 C759 0.949 . S
H784 C761 0.950 . S
H785 C763 0.950 . S
C786 C787 1.349 . S
C786 C788 1.327 . S
C786 H811 0.950 . S
C787 C786 1.349 . S
C787 C803 1.349 . S
C788 C786 1.327 . S
C788 C807 1.429 . S
C788 H812 0.950 . S
C789 C806 1.574 . S
C789 C808 1.368 . S
C789 H813 0.949 . S
H790 C794 0.949 . S
C791 C792 1.349 . S
C791 C793 1.327 . S
C791 H814 0.950 . S
C792 C791 1.349 . S
C792 C804 1.349 . S
C793 C791 1.327 . S
C793 C809 1.429 . S
C793 H815 0.950 . S
C794 H790 0.949 . S
C794 C802 1.574 . S
C794 C810 1.368 . S
H795 C803 0.950 . S
H796 C801 0.950 . S
H797 C802 0.949 . S
H798 C804 0.950 . S
H799 C805 0.950 . S
H800 C806 0.949 . S
C801 H796 0.950 . S
C801 C803 1.327 . S
C801 C807 1.429 . S
C802 C794 1.574 . S
C802 H797 0.949 . S
C802 C808 1.368 . S
C803 C787 1.349 . S
C803 H795 0.950 . S
C803 C801 1.327 . S
C804 C792 1.349 . S
C804 H798 0.950 . S
C804 C805 1.327 . S
C805 H799 0.950 . S
C805 C804 1.327 . S
C805 C809 1.429 . S
C806 C789 1.574 . S
C806 H800 0.949 . S
C806 C810 1.368 . S
C807 C788 1.429 . S
C807 C801 1.429 . S
C807 C808 1.523 . S
C808 C789 1.368 . S
C808 C802 1.368 . S
C808 C807 1.523 . S
C809 C793 1.429 . S
C809 C805 1.429 . S
C809 C810 1.523 . S
C810 C794 1.368 . S
C810 C806 1.368 . S
C810 C809 1.523 . S
H811 C786 0.950 . S
H812 C788 0.950 . S
H813 C789 0.949 . S
H814 C791 0.950 . S
H815 C793 0.950 . S
C816 C817 1.349 . S
C816 C818 1.327 . S
C816 H841 0.950 . S
C817 C816 1.349 . S
C817 C833 1.349 . S
C818 C816 1.327 . S
C818 C837 1.429 . S
C818 H842 0.950 . S
C819 C836 1.574 . S
C819 C838 1.368 . S
C819 H843 0.949 . S
H820 C824 0.949 . S
C821 C822 1.349 . S
C821 C823 1.327 . S
C821 H844 0.950 . S
C822 C821 1.349 . S
C822 C834 1.349 . S
C823 C821 1.327 . S
C823 C839 1.429 . S
C823 H845 0.950 . S
C824 H820 0.949 . S
C824 C832 1.574 . S
C824 C840 1.368 . S
H825 C833 0.950 . S
H826 C831 0.950 . S
H827 C832 0.949 . S
H828 C834 0.950 . S
H829 C835 0.950 . S
H830 C836 0.949 . S
C831 H826 0.950 . S
C831 C833 1.327 . S
C831 C837 1.429 . S
C832 C824 1.574 . S
C832 H827 0.949 . S
C832 C838 1.368 . S
C833 C817 1.349 . S
C833 H825 0.950 . S
C833 C831 1.327 . S
C834 C822 1.349 . S
C834 H828 0.950 . S
C834 C835 1.327 . S
C835 H829 0.950 . S
C835 C834 1.327 . S
C835 C839 1.429 . S
C836 C819 1.574 . S
C836 H830 0.949 . S
C836 C840 1.368 . S
C837 C818 1.429 . S
C837 C831 1.429 . S
C837 C838 1.523 . S
C838 C819 1.368 . S
C838 C832 1.368 . S
C838 C837 1.523 . S
C839 C823 1.429 . S
C839 C835 1.429 . S
C839 C840 1.523 . S
C840 C824 1.368 . S
C840 C836 1.368 . S
C840 C839 1.523 . S
H841 C816 0.950 . S
H842 C818 0.950 . S
H843 C819 0.949 . S
H844 C821 0.950 . S
H845 C823 0.950 . S
C846 C847 1.349 . S
C846 C848 1.327 . S
C846 H871 0.950 . S
C847 C846 1.349 . S
C847 C863 1.349 . S
C848 C846 1.327 . S
C848 C867 1.429 . S
C848 H872 0.950 . S
C849 C866 1.574 . S
C849 C868 1.368 . S
C849 H873 0.949 . S
H850 C854 0.949 . S
C851 C852 1.349 . S
C851 C853 1.327 . S
C851 H874 0.950 . S
C852 C851 1.349 . S
C852 C864 1.349 . S
C853 C851 1.327 . S
C853 C869 1.429 . S
C853 H875 0.950 . S
C854 H850 0.949 . S
C854 C862 1.574 . S
C854 C870 1.368 . S
H855 C863 0.950 . S
H856 C861 0.950 . S
H857 C862 0.949 . S
H858 C864 0.950 . S
H859 C865 0.950 . S
H860 C866 0.949 . S
C861 H856 0.950 . S
C861 C863 1.327 . S
C861 C867 1.429 . S
C862 C854 1.574 . S
C862 H857 0.949 . S
C862 C868 1.368 . S
C863 C847 1.349 . S
C863 H855 0.950 . S
C863 C861 1.327 . S
C864 C852 1.349 . S
C864 H858 0.950 . S
C864 C865 1.327 . S
C865 H859 0.950 . S
C865 C864 1.327 . S
C865 C869 1.429 . S
C866 C849 1.574 . S
C866 H860 0.949 . S
C866 C870 1.368 . S
C867 C848 1.429 . S
C867 C861 1.429 . S
C867 C868 1.523 . S
C868 C849 1.368 . S
C868 C862 1.368 . S
C868 C867 1.523 . S
C869 C853 1.429 . S
C869 C865 1.429 . S
C869 C870 1.523 . S
C870 C854 1.368 . S
C870 C866 1.368 . S
C870 C869 1.523 . S
H871 C846 0.950 . S
H872 C848 0.950 . S
H873 C849 0.949 . S
H874 C851 0.950 . S
H875 C853 0.950 . S
C157 C10 1.394 . S
C162 C70 1.370 . S
C187 C18 1.135 . S
C192 C60 1.151 . S
C217 C75 1.331 . S
C222 C36 1.333 . S
C247 C44 1.227 . S
C252 C52 1.242 . S
C277 C91 1.189 . S
C282 C31 1.174 . S
C307 C86 1.334 . S
C312 C49 1.334 . S
C337 C5 1.152 . S
C342 C99 1.166 . S
C367 C78 1.352 . S
C372 C23 1.355 . S
C397 C117 1.330 1_554 S
C402 C104 1.330 . S
C427 C112 1.191 . S
C432 C151 1.188 . S
C457 C125 1.252 . S
C462 C138 1.252 . S
C487 C130 1.368 . S
C492 C143 1.366 . S
C517 C153 1.341 . S
C522 C83 1.319 . S
C547 C109 1.141 . S
C552 C96 1.145 . S
C577 C88 1.366 . S
C582 C127 1.367 . S
C607 C101 1.301 . S
C612 C135 1.281 . S
C637 C62 1.246 . S
C642 C122 1.228 . S
C667 C73 1.368 . S
C672 C140 1.368 . S
C697 C148 1.157 . S
C702 C57 1.158 . S
C727 C114 1.302 . S
C732 C65 1.301 . S
C757 C13 1.307 . S
C762 C26 1.311 . S
C787 C8 1.175 . S
C792 C21 1.175 . S
C817 C34 1.217 . S
C822 C47 1.217 . S
C847 C0 1.343 . S
C852 C39 1.347 . S
