# Generated by pormake.
# Topology whk, (6)-cn, num edge types: 1
# Building blocks:
#     Node 0, Type 0, BuildingBlock: OJICUG_clean_sbu_0, # of connection points: 6
#     Node 1, Type 0, BuildingBlock: OJICUG_clean_sbu_0, # of connection points: 6
#     Node 2, Type 0, BuildingBlock: OJICUG_clean_sbu_0, # of connection points: 6
#     Node 3, Type 0, BuildingBlock: OJICUG_clean_sbu_0, # of connection points: 6
#     Node 4, Type 0, BuildingBlock: OJICUG_clean_sbu_0, # of connection points: 6
#     Node 5, Type 0, BuildingBlock: OJICUG_clean_sbu_0, # of connection points: 6
#     Node 6, Type 0, BuildingBlock: OJICUG_clean_sbu_0, # of connection points: 6
#     Node 7, Type 0, BuildingBlock: OJICUG_clean_sbu_0, # of connection points: 6
#     Node 8, Type 0, BuildingBlock: OJICUG_clean_sbu_0, # of connection points: 6
#     Node 9, Type 0, BuildingBlock: OJICUG_clean_sbu_0, # of connection points: 6
#     Node 10, Type 0, BuildingBlock: OJICUG_clean_sbu_0, # of connection points: 6
#     Node 11, Type 0, BuildingBlock: OJICUG_clean_sbu_0, # of connection points: 6
#     Node 12, Type 0, BuildingBlock: OJICUG_clean_sbu_0, # of connection points: 6
#     Node 13, Type 0, BuildingBlock: OJICUG_clean_sbu_0, # of connection points: 6
#     Node 14, Type 0, BuildingBlock: OJICUG_clean_sbu_0, # of connection points: 6
#     Node 15, Type 0, BuildingBlock: OJICUG_clean_sbu_0, # of connection points: 6
#     Edge 16, Type (0, 0), BuildingBlock: TEMPAE_clean_linker_10, # of connection points: 2
#     Edge 17, Type (0, 0), BuildingBlock: TEMPAE_clean_linker_10, # of connection points: 2
#     Edge 18, Type (0, 0), BuildingBlock: TEMPAE_clean_linker_10, # of connection points: 2
#     Edge 19, Type (0, 0), BuildingBlock: TEMPAE_clean_linker_10, # of connection points: 2
#     Edge 20, Type (0, 0), BuildingBlock: TEMPAE_clean_linker_10, # of connection points: 2
#     Edge 21, Type (0, 0), BuildingBlock: TEMPAE_clean_linker_10, # of connection points: 2
#     Edge 22, Type (0, 0), BuildingBlock: TEMPAE_clean_linker_10, # of connection points: 2
#     Edge 23, Type (0, 0), BuildingBlock: TEMPAE_clean_linker_10, # of connection points: 2
#     Edge 24, Type (0, 0), BuildingBlock: TEMPAE_clean_linker_10, # of connection points: 2
#     Edge 25, Type (0, 0), BuildingBlock: TEMPAE_clean_linker_10, # of connection points: 2
#     Edge 26, Type (0, 0), BuildingBlock: TEMPAE_clean_linker_10, # of connection points: 2
#     Edge 27, Type (0, 0), BuildingBlock: TEMPAE_clean_linker_10, # of connection points: 2
#     Edge 28, Type (0, 0), BuildingBlock: TEMPAE_clean_linker_10, # of connection points: 2
#     Edge 29, Type (0, 0), BuildingBlock: TEMPAE_clean_linker_10, # of connection points: 2
#     Edge 30, Type (0, 0), BuildingBlock: TEMPAE_clean_linker_10, # of connection points: 2
#     Edge 31, Type (0, 0), BuildingBlock: TEMPAE_clean_linker_10, # of connection points: 2
#     Edge 32, Type (0, 0), BuildingBlock: TEMPAE_clean_linker_10, # of connection points: 2
#     Edge 33, Type (0, 0), BuildingBlock: TEMPAE_clean_linker_10, # of connection points: 2
#     Edge 34, Type (0, 0), BuildingBlock: TEMPAE_clean_linker_10, # of connection points: 2
#     Edge 35, Type (0, 0), BuildingBlock: TEMPAE_clean_linker_10, # of connection points: 2
#     Edge 36, Type (0, 0), BuildingBlock: TEMPAE_clean_linker_10, # of connection points: 2
#     Edge 37, Type (0, 0), BuildingBlock: TEMPAE_clean_linker_10, # of connection points: 2
#     Edge 38, Type (0, 0), BuildingBlock: TEMPAE_clean_linker_10, # of connection points: 2
#     Edge 39, Type (0, 0), BuildingBlock: TEMPAE_clean_linker_10, # of connection points: 2
#     Edge 40, Type (0, 0), BuildingBlock: TEMPAE_clean_linker_10, # of connection points: 2
#     Edge 41, Type (0, 0), BuildingBlock: TEMPAE_clean_linker_10, # of connection points: 2
#     Edge 42, Type (0, 0), BuildingBlock: TEMPAE_clean_linker_10, # of connection points: 2
#     Edge 43, Type (0, 0), BuildingBlock: TEMPAE_clean_linker_10, # of connection points: 2
#     Edge 44, Type (0, 0), BuildingBlock: TEMPAE_clean_linker_10, # of connection points: 2
#     Edge 45, Type (0, 0), BuildingBlock: TEMPAE_clean_linker_10, # of connection points: 2
#     Edge 46, Type (0, 0), BuildingBlock: TEMPAE_clean_linker_10, # of connection points: 2
#     Edge 47, Type (0, 0), BuildingBlock: TEMPAE_clean_linker_10, # of connection points: 2
#     Edge 48, Type (0, 0), BuildingBlock: TEMPAE_clean_linker_10, # of connection points: 2
#     Edge 49, Type (0, 0), BuildingBlock: TEMPAE_clean_linker_10, # of connection points: 2
#     Edge 50, Type (0, 0), BuildingBlock: TEMPAE_clean_linker_10, # of connection points: 2
#     Edge 51, Type (0, 0), BuildingBlock: TEMPAE_clean_linker_10, # of connection points: 2
#     Edge 52, Type (0, 0), BuildingBlock: TEMPAE_clean_linker_10, # of connection points: 2
#     Edge 53, Type (0, 0), BuildingBlock: TEMPAE_clean_linker_10, # of connection points: 2
#     Edge 54, Type (0, 0), BuildingBlock: TEMPAE_clean_linker_10, # of connection points: 2
#     Edge 55, Type (0, 0), BuildingBlock: TEMPAE_clean_linker_10, # of connection points: 2
#     Edge 56, Type (0, 0), BuildingBlock: TEMPAE_clean_linker_10, # of connection points: 2
#     Edge 57, Type (0, 0), BuildingBlock: TEMPAE_clean_linker_10, # of connection points: 2
#     Edge 58, Type (0, 0), BuildingBlock: TEMPAE_clean_linker_10, # of connection points: 2
#     Edge 59, Type (0, 0), BuildingBlock: TEMPAE_clean_linker_10, # of connection points: 2
#     Edge 60, Type (0, 0), BuildingBlock: TEMPAE_clean_linker_10, # of connection points: 2
#     Edge 61, Type (0, 0), BuildingBlock: TEMPAE_clean_linker_10, # of connection points: 2
#     Edge 62, Type (0, 0), BuildingBlock: TEMPAE_clean_linker_10, # of connection points: 2
#     Edge 63, Type (0, 0), BuildingBlock: TEMPAE_clean_linker_10, # of connection points: 2
# Relax obj value: 0.277
# Max RMSD: 0.215
# Mean RMSD: 0.215
data_MOF--net-whk--node1-OJICUG_clean_sbu_0--edge1-TEMPAE_clean_linker_10
_symmetry_space_group_name_H-M    P1
_symmetry_Int_Tables_number       1
_symmetry_cell_setting            triclinic
loop_
_symmetry_equiv_pos_as_xyz
'x, y, z'
_cell_length_a     36.85208
_cell_length_b     36.818323
_cell_length_c     54.896641
_cell_angle_alpha  90.066547
_cell_angle_beta   89.966882
_cell_angle_gamma 89.904438
loop_
_atom_site_label
_atom_site_type_symbol
_atom_site_fract_x
_atom_site_fract_y
_atom_site_fract_z
_atom_type_partial_charge
Sc0 Sc 0.57391 0.13732 0.386 0.0
Sc1 Sc 0.58737 0.22461 0.36364 0.0
Sc2 Sc 0.52006 0.20836 0.40637 0.0
O3 O 0.55938 0.18992 0.38463 0.0
C4 C 0.48944 0.13231 0.38632 0.0
C5 C 0.5841 0.15858 0.32909 0.0
C6 C 0.50674 0.25874 0.36287 0.0
C7 C 0.64844 0.17602 0.38548 0.0
C8 C 0.56137 0.15453 0.44136 0.0
C9 C 0.57938 0.27107 0.41088 0.0
O10 O 0.5192 0.12037 0.37745 0.0
O11 O 0.57635 0.19219 0.33172 0.0
O12 O 0.49284 0.23465 0.37659 0.0
O13 O 0.62763 0.15416 0.39657 0.0
O14 O 0.54752 0.18564 0.43761 0.0
O15 O 0.601 0.25813 0.39491 0.0
O16 O 0.56356 0.13082 0.42458 0.0
O17 O 0.63766 0.19524 0.36773 0.0
O18 O 0.54788 0.25813 0.41459 0.0
O19 O 0.58745 0.13708 0.34725 0.0
O20 O 0.48731 0.1608 0.39949 0.0
O21 O 0.54045 0.25903 0.35763 0.0
Sc22 Sc 0.36853 0.57403 0.40048 0.0
Sc23 Sc 0.27745 0.58084 0.38383 0.0
Sc24 Sc 0.3052 0.51611 0.4268 0.0
O25 O 0.31691 0.55637 0.40333 0.0
C26 C 0.37798 0.48965 0.3998 0.0
C27 C 0.33979 0.58245 0.34523 0.0
C28 C 0.25086 0.49777 0.38428 0.0
C29 C 0.32485 0.64616 0.40331 0.0
C30 C 0.36358 0.55916 0.45731 0.0
C31 C 0.23853 0.57086 0.43497 0.0
O32 O 0.38585 0.52026 0.39039 0.0
O33 O 0.30687 0.57456 0.34992 0.0
O34 O 0.27353 0.48695 0.40024 0.0
O35 O 0.35095 0.62726 0.4115 0.0
O36 O 0.33308 0.54336 0.45609 0.0
O37 O 0.24463 0.59015 0.41613 0.0
O38 O 0.3825 0.56546 0.43843 0.0
O39 O 0.30088 0.6338 0.38888 0.0
O40 O 0.25674 0.54241 0.43991 0.0
O41 O 0.36337 0.58657 0.36197 0.0
O42 O 0.3528 0.48531 0.41552 0.0
O43 O 0.24893 0.53066 0.37724 0.0
Sc44 Sc 0.92926 0.36499 0.39156 0.0
Sc45 Sc 0.91866 0.27623 0.37175 0.0
Sc46 Sc 0.98857 0.29754 0.41162 0.0
O47 O 0.94656 0.31313 0.391 0.0
C48 C 0.01364 0.37359 0.38849 0.0
C49 C 0.91852 0.33998 0.33539 0.0
C50 C -0.0001 0.24395 0.36933 0.0
C51 C 0.85646 0.32315 0.39376 0.0
C52 C 0.94764 0.35201 0.44692 0.0
C53 C 0.93136 0.23452 0.4204 0.0
O54 O 0.98248 0.38411 0.3812 0.0
O55 O 0.92703 0.30674 0.33878 0.0
O56 O 0.01431 0.2691 0.38195 0.0
O57 O 0.87675 0.34643 0.40393 0.0
O58 O 0.96367 0.32192 0.44329 0.0
O59 O 0.90856 0.24516 0.40446 0.0
O60 O 0.94091 0.37403 0.42969 0.0
O61 O 0.8674 0.30377 0.37614 0.0
O62 O 0.96288 0.24795 0.42282 0.0
O63 O 0.91449 0.3624 0.35302 0.0
O64 O 0.01877 0.34544 0.40155 0.0
O65 O 0.96592 0.24288 0.36525 0.0
Sc66 Sc 0.19411 0.98038 0.43238 0.0
Sc67 Sc 0.22659 0.92263 0.38597 0.0
Sc68 Sc 0.13384 0.9245 0.40075 0.0
O69 O 0.18496 0.94309 0.40606 0.0
C70 C 0.13057 0.9366 0.4581 0.0
C71 C 0.26062 0.92687 0.43992 0.0
C72 C 0.18186 0.85412 0.40413 0.0
C73 C 0.25155 0.00445 0.39117 0.0
C74 C 0.12488 0.00975 0.40252 0.0
C75 C 0.16496 0.91895 0.34597 0.0
O76 O 0.16014 0.954 0.45909 0.0
O77 O 0.26108 0.91582 0.4179 0.0
O78 O 0.15268 0.87062 0.40985 0.0
O79 O 0.23256 0.0101 0.41023 0.0
O80 O 0.1161 0.97928 0.39303 0.0
O81 O 0.19785 0.92568 0.3514 0.0
O82 O 0.15026 0.01364 0.41818 0.0
O83 O 0.25024 0.97495 0.37913 0.0
O84 O 0.14061 0.91569 0.36217 0.0
O85 O 0.2375 0.94944 0.44805 0.0
O86 O 0.11597 0.92818 0.43802 0.0
O87 O 0.20753 0.86842 0.39197 0.0
Sc88 Sc 0.0741 0.85588 0.1198 0.0
Sc89 Sc 0.09527 0.77033 0.1427 0.0
Sc90 Sc 0.0248 0.78042 0.10191 0.0
O91 O 0.06395 0.80244 0.12207 0.0
C92 C 0.98975 0.8554 0.1206 0.0
C93 C 0.0885 0.83684 0.17687 0.0
C94 C 0.01656 0.73239 0.1464 0.0
C95 C 0.15157 0.82359 0.11902 0.0
C96 C 0.06047 0.8343 0.06485 0.0
C97 C 0.08808 0.7213 0.09715 0.0
O98 O 0.01883 0.86907 0.12918 0.0
O99 O 0.08334 0.80272 0.17446 0.0
O100 O 0.00095 0.75631 0.13347 0.0
O101 O 0.12839 0.84356 0.10851 0.0
O102 O 0.04941 0.80245 0.06963 0.0
O103 O 0.10981 0.73739 0.11158 0.0
O104 O 0.06186 0.85918 0.081 0.0
O105 O 0.14342 0.80286 0.13671 0.0
O106 O 0.05511 0.73101 0.09458 0.0
O107 O 0.08917 0.85841 0.15854 0.0
O108 O 0.98921 0.82657 0.10769 0.0
O109 O 0.05081 0.7326 0.15005 0.0
Sc110 Sc 0.69784 0.0117 0.07646 0.0
Sc111 Sc 0.72983 0.06752 0.12383 0.0
Sc112 Sc 0.6381 0.0696 0.1069 0.0
O113 O 0.6887 0.04903 0.10268 0.0
C114 C 0.63647 0.05673 0.04971 0.0
C115 C 0.76662 0.06269 0.07085 0.0
C116 C 0.68864 0.13769 0.10414 0.0
C117 C 0.75246 0.98499 0.11861 0.0
C118 C 0.62682 0.98495 0.10558 0.0
C119 C 0.66656 0.07442 0.16213 0.0
O120 O 0.66604 0.03926 0.04916 0.0
O121 O 0.76606 0.07311 0.09297 0.0
O122 O 0.65909 0.12248 0.09782 0.0
O123 O 0.73414 0.98057 0.09916 0.0
O124 O 0.61877 0.01577 0.11484 0.0
O125 O 0.6992 0.06542 0.1576 0.0
O126 O 0.65225 0.98004 0.09 0.0
O127 O 0.75146 0.01417 0.13105 0.0
O128 O 0.64347 0.07925 0.14535 0.0
O129 O 0.74315 0.04127 0.06183 0.0
O130 O 0.62119 0.0653 0.06954 0.0
O131 O 0.71296 0.12248 0.11712 0.0
Sc132 Sc 0.47808 0.70843 0.09683 0.0
Sc133 Sc 0.41147 0.72508 0.14029 0.0
Sc134 Sc 0.42539 0.63775 0.11824 0.0
O135 O 0.43936 0.69044 0.11912 0.0
C136 C 0.43723 0.65415 0.06282 0.0
C137 C 0.41768 0.77049 0.09236 0.0
C138 C 0.35157 0.67702 0.11678 0.0
C139 C 0.49213 0.75866 0.14081 0.0
C140 C 0.50934 0.6332 0.11788 0.0
C141 C 0.4147 0.65945 0.175 0.0
O142 O 0.45019 0.68552 0.06635 0.0
O143 O 0.39772 0.75911 0.10967 0.0
O144 O 0.37238 0.65425 0.10653 0.0
O145 O 0.50563 0.73533 0.12623 0.0
O146 O 0.48001 0.62276 0.12803 0.0
O147 O 0.42288 0.6928 0.17207 0.0
O148 O 0.51107 0.66028 0.10339 0.0
O149 O 0.45855 0.75906 0.1465 0.0
O150 O 0.41064 0.6378 0.15696 0.0
O151 O 0.44902 0.75756 0.08779 0.0
O152 O 0.43674 0.63028 0.07956 0.0
O153 O 0.3614 0.69522 0.13533 0.0
Sc154 Sc 0.79579 0.48294 0.08814 0.0
Sc155 Sc 0.77406 0.4156 0.13015 0.0
Sc156 Sc 0.86286 0.42641 0.111 0.0
O157 O 0.81083 0.44257 0.1103 0.0
C158 C 0.85239 0.4419 0.05519 0.0
C159 C 0.73128 0.42526 0.0813 0.0
C160 C 0.82273 0.3533 0.10884 0.0
C161 C 0.74273 0.49741 0.13095 0.0
C162 C 0.87036 0.51032 0.1128 0.0
C163 C 0.83754 0.41626 0.16678 0.0
O164 O 0.82092 0.4555 0.05765 0.0
O165 O 0.74181 0.40396 0.09817 0.0
O166 O 0.84609 0.37367 0.09885 0.0
O167 O 0.76662 0.51076 0.11676 0.0
O168 O 0.87897 0.47975 0.12198 0.0
O169 O 0.80449 0.42491 0.16311 0.0
O170 O 0.84438 0.51432 0.09753 0.0
O171 O 0.7417 0.46374 0.13626 0.0
O172 O 0.85989 0.41136 0.1493 0.0
O173 O 0.74597 0.45605 0.07738 0.0
O174 O 0.87396 0.4386 0.07309 0.0
O175 O 0.80157 0.36424 0.1256 0.0
Sc176 Sc 0.48684 0.79673 0.59586 0.0
Sc177 Sc 0.44371 0.75995 0.6467 0.0
Sc178 Sc 0.43322 0.85318 0.63263 0.0
O179 O 0.45454 0.80341 0.62528 0.0
C180 C 0.51656 0.86815 0.62089 0.0
C181 C 0.52256 0.73938 0.6331 0.0
C182 C 0.44549 0.82402 0.6868 0.0
C183 C 0.43814 0.72754 0.59189 0.0
C184 C 0.43039 0.85464 0.57486 0.0
C185 C 0.36805 0.79994 0.6431 0.0
O186 O 0.5221 0.83847 0.60949 0.0
O187 O 0.49941 0.74367 0.64998 0.0
O188 O 0.44332 0.8493 0.67111 0.0
O189 O 0.45274 0.75487 0.58175 0.0
O190 O 0.41777 0.86362 0.59547 0.0
O191 O 0.38773 0.77195 0.64571 0.0
O192 O 0.4572 0.83332 0.57252 0.0
O193 O 0.43632 0.72385 0.61505 0.0
O194 O 0.37994 0.8314 0.63804 0.0
O195 O 0.5202 0.75602 0.61291 0.0
O196 O 0.48547 0.87854 0.62832 0.0
O197 O 0.447 0.7905 0.68082 0.0
Sc198 Sc 0.63646 0.41138 0.61672 0.0
Sc199 Sc 0.72742 0.39844 0.63019 0.0
Sc200 Sc 0.70331 0.45734 0.58461 0.0
O201 O 0.68899 0.42335 0.61101 0.0
C202 C 0.64033 0.41205 0.55981 0.0
C203 C 0.676 0.33543 0.62423 0.0
C204 C 0.76442 0.40101 0.57731 0.0
C205 C 0.66166 0.40936 0.66942 0.0
C206 C 0.63723 0.49681 0.60778 0.0
C207 C 0.76027 0.4745 0.6277 0.0
O208 O 0.63121 0.39532 0.57915 0.0
O209 O 0.70569 0.3487 0.61689 0.0
O210 O 0.73809 0.41798 0.56766 0.0
O211 O 0.64077 0.4253 0.65439 0.0
O212 O 0.67004 0.49775 0.60085 0.0
O213 O 0.7508 0.44883 0.64189 0.0
O214 O 0.61912 0.46732 0.60936 0.0
O215 O 0.69252 0.39643 0.66291 0.0
O216 O 0.74779 0.47792 0.60614 0.0
O217 O 0.64805 0.35521 0.62752 0.0
O218 O 0.66066 0.43999 0.5601 0.0
O219 O 0.76678 0.39636 0.60029 0.0
Sc220 Sc 0.06368 0.64482 0.62876 0.0
Sc221 Sc 0.03618 0.73412 0.64053 0.0
Sc222 Sc 0.00362 0.68886 0.59 0.0
O223 O 0.03475 0.68907 0.62002 0.0
C224 C 0.06979 0.6411 0.57182 0.0
C225 C 0.11725 0.71073 0.63945 0.0
C226 C 0.04057 0.76352 0.58517 0.0
C227 C 0.04463 0.67162 0.68161 0.0
C228 C 0.98417 0.61634 0.61596 0.0
C229 C 0.95839 0.74167 0.62539 0.0
O230 O 0.08488 0.64037 0.59253 0.0
O231 O 0.09299 0.73507 0.63876 0.0
O232 O 0.03457 0.73274 0.57536 0.0
O233 O 0.04761 0.64591 0.66629 0.0
O234 O 0.9734 0.64545 0.60573 0.0
O235 O 0.97844 0.73533 0.64362 0.0
O236 O 0.01717 0.60988 0.62168 0.0
O237 O 0.04075 0.70474 0.67511 0.0
O238 O 0.96579 0.72843 0.60456 0.0
O239 O 0.11111 0.67682 0.63722 0.0
O240 O 0.03715 0.65145 0.5691 0.0
O241 O 0.03568 0.76938 0.60798 0.0
Sc242 Sc 0.8654 0.07674 0.61903 0.0
Sc243 Sc 0.77388 0.09579 0.62723 0.0
Sc244 Sc 0.79979 0.03808 0.58155 0.0
O245 O 0.81313 0.06936 0.60965 0.0
C246 C 0.87001 0.07825 0.56206 0.0
C247 C 0.83031 0.1554 0.62494 0.0
C248 C 0.74307 0.09786 0.5726 0.0
C249 C 0.83314 0.08041 0.66993 0.0
C250 C 0.85937 0.992 0.60737 0.0
C251 C 0.73689 0.0224 0.62082 0.0
O252 O 0.87844 0.09278 0.58233 0.0
O253 O 0.80034 0.14455 0.61628 0.0
O254 O 0.76999 0.08069 0.56384 0.0
O255 O 0.85446 0.06262 0.65612 0.0
O256 O 0.82797 0.99424 0.59804 0.0
O257 O 0.74652 0.0461 0.63649 0.0
O258 O 0.87902 0.01975 0.61196 0.0
O259 O 0.80431 0.09545 0.66171 0.0
O260 O 0.75159 0.01984 0.59986 0.0
O261 O 0.8563 0.13354 0.62945 0.0
O262 O 0.8463 0.05336 0.56021 0.0
O263 O 0.73832 0.10112 0.59551 0.0
Sc264 Sc 0.93519 0.1421 0.88876 0.0
Sc265 Sc 0.93194 0.23346 0.87066 0.0
Sc266 Sc 0.99056 0.20506 0.91759 0.0
O267 O 0.95319 0.19376 0.89195 0.0
C268 C 0.94574 0.14561 0.94576 0.0
C269 C 0.86382 0.18694 0.88812 0.0
C270 C 0.93566 0.27188 0.9231 0.0
C271 C 0.92811 0.16934 0.83314 0.0
C272 C 0.01946 0.13219 0.89111 0.0
C273 C 0.0144 0.25958 0.87544 0.0
O274 O 0.94031 0.12727 0.9266 0.0
O275 O 0.87819 0.2123 0.87571 0.0
O276 O 0.96105 0.25155 0.93088 0.0
O277 O 0.92486 0.14679 0.85046 0.0
O278 O 0.02305 0.15826 0.90637 0.0
O279 O 0.98369 0.25974 0.86475 0.0
O280 O 0.98938 0.12399 0.88108 0.0
O281 O 0.93718 0.2023 0.83692 0.0
O282 O 0.02154 0.23894 0.89342 0.0
O283 O 0.88115 0.16006 0.89681 0.0
O284 O 0.96169 0.17597 0.94536 0.0
O285 O 0.92214 0.2688 0.90182 0.0
Sc286 Sc 0.3615 0.92324 0.90705 0.0
Sc287 Sc 0.27691 0.90041 0.88287 0.0
Sc288 Sc 0.28545 0.97198 0.92411 0.0
O289 O 0.30784 0.93289 0.90391 0.0
C290 C 0.34257 0.94175 0.96115 0.0
C291 C 0.32715 0.84681 0.91123 0.0
C292 C 0.22867 0.90692 0.9304 0.0
C293 C 0.34561 0.90366 0.8505 0.0
C294 C 0.35811 0.00745 0.90177 0.0
C295 C 0.23788 0.97817 0.87724 0.0
O296 O 0.36668 0.94017 0.9447 0.0
O297 O 0.30951 0.85323 0.89179 0.0
O298 O 0.23988 0.93894 0.93483 0.0
O299 O 0.36546 0.90372 0.86957 0.0
O300 O 0.32938 0.00853 0.91481 0.0
O301 O 0.24044 0.94435 0.87239 0.0
O302 O 0.37339 0.97789 0.89502 0.0
O303 O 0.31151 0.90974 0.85153 0.0
O304 O 0.25681 0.99369 0.89353 0.0
O305 O 0.34756 0.87038 0.92108 0.0
O306 O 0.31026 0.95093 0.95645 0.0
O307 O 0.24094 0.88752 0.91299 0.0
Sc308 Sc 0.56414 0.35708 0.88803 0.0
Sc309 Sc 0.54672 0.26628 0.87168 0.0
Sc310 Sc 0.50278 0.30528 0.92192 0.0
O311 O 0.53747 0.30988 0.89352 0.0
C312 C 0.56036 0.35875 0.946 0.0
C313 C 0.6246 0.29576 0.88641 0.0
C314 C 0.54415 0.23132 0.92531 0.0
C315 C 0.55938 0.33017 0.83279 0.0
C316 C 0.48063 0.37938 0.89561 0.0
C317 C 0.46584 0.25299 0.88118 0.0
O318 O 0.57312 0.36816 0.92563 0.0
O319 O 0.60299 0.2715 0.87872 0.0
O320 O 0.53234 0.25973 0.93585 0.0
O321 O 0.56285 0.35391 0.8493 0.0
O322 O 0.47285 0.35179 0.90874 0.0
O323 O 0.49007 0.25723 0.86492 0.0
O324 O 0.51233 0.38562 0.88699 0.0
O325 O 0.55201 0.29715 0.83771 0.0
O326 O 0.46801 0.26822 0.90201 0.0
O327 O 0.61584 0.32898 0.8896 0.0
O328 O 0.53335 0.33768 0.94775 0.0
O329 O 0.5456 0.22815 0.90218 0.0
Sc330 Sc 0.20359 0.53097 0.91995 0.0
Sc331 Sc 0.21729 0.60374 0.87996 0.0
Sc332 Sc 0.13088 0.58398 0.90166 0.0
O333 O 0.18408 0.57175 0.8998 0.0
C334 C 0.13095 0.49971 0.89472 0.0
C335 C 0.2564 0.52579 0.87539 0.0
C336 C 0.15059 0.60276 0.84575 0.0
C337 C 0.26122 0.59453 0.92914 0.0
C338 C 0.14463 0.56235 0.95593 0.0
C339 C 0.16796 0.65863 0.90742 0.0
O340 O 0.15949 0.49635 0.90778 0.0
O341 O 0.25383 0.55956 0.87053 0.0
O342 O 0.13007 0.60384 0.86445 0.0
O343 O 0.24857 0.56287 0.93297 0.0
O344 O 0.12243 0.56706 0.93863 0.0
O345 O 0.18547 0.65177 0.888 0.0
O346 O 0.17638 0.55035 0.95228 0.0
O347 O 0.2512 0.61465 0.91145 0.0
O348 O 0.14632 0.63579 0.91675 0.0
O349 O 0.23535 0.50982 0.89027 0.0
O350 O 0.11703 0.53029 0.88883 0.0
O351 O 0.18449 0.59574 0.84742 0.0
C352 C 0.59876 0.16823 0.28473 0.0
C353 C 0.59321 0.1444 0.30434 0.0
C354 C 0.61095 0.15542 0.26197 0.0
C355 C 0.61756 0.11781 0.25857 0.0
C356 C 0.61123 0.09353 0.27808 0.0
C357 C 0.59927 0.10707 0.30068 0.0
C358 C 0.61732 0.18227 0.24165 0.0
C359 C 0.61747 0.05321 0.27517 0.0
C360 C 0.61744 0.08354 0.19313 0.0
C361 C 0.65467 0.08178 0.18763 0.0
C362 C 0.6051 0.09432 0.21625 0.0
C363 C 0.63052 0.1039 0.23445 0.0
C364 C 0.66816 0.10115 0.22933 0.0
C365 C 0.6798 0.08996 0.20602 0.0
C366 C 0.56477 0.09635 0.22097 0.0
C367 C 0.69615 0.11115 0.24823 0.0
H368 H 0.59445 0.1971 0.28729 0.0
H369 H 0.59508 0.08831 0.31561 0.0
H370 H 0.64608 0.18098 0.23569 0.0
H371 H 0.60033 0.17515 0.22567 0.0
H372 H 0.61098 0.2106 0.24719 0.0
H373 H 0.6107 0.03783 0.29196 0.0
H374 H 0.60077 0.04256 0.25996 0.0
H375 H 0.6463 0.04796 0.27048 0.0
H376 H 0.59772 0.077 0.17916 0.0
H377 H 0.70857 0.08889 0.20197 0.0
H378 H 0.55676 0.1249 0.22462 0.0
H379 H 0.55767 0.08028 0.23737 0.0
H380 H 0.54858 0.08613 0.20534 0.0
H381 H 0.69341 0.14032 0.253 0.0
H382 H 0.7243 0.10611 0.24179 0.0
H383 H 0.69159 0.09537 0.26516 0.0
C384 C 0.40239 0.67057 0.21953 0.0
C385 C 0.40655 0.64603 0.2001 0.0
C386 C 0.39177 0.65871 0.24283 0.0
C387 C 0.38545 0.62129 0.24705 0.0
C388 C 0.39041 0.59624 0.22771 0.0
C389 C 0.40069 0.60889 0.2045 0.0
C390 C 0.38666 0.68641 0.26286 0.0
C391 C 0.38446 0.55608 0.23147 0.0
C392 C 0.38815 0.59058 0.31337 0.0
C393 C 0.35113 0.58923 0.31952 0.0
C394 C 0.39961 0.59989 0.28974 0.0
C395 C 0.37354 0.60854 0.27171 0.0
C396 C 0.33612 0.6064 0.27759 0.0
C397 C 0.32538 0.59658 0.30133 0.0
C398 C 0.43974 0.60126 0.28424 0.0
C399 C 0.3074 0.61561 0.25899 0.0
H400 H 0.4066 0.69932 0.21643 0.0
H401 H 0.40386 0.58959 0.18973 0.0
H402 H 0.35826 0.68559 0.26956 0.0
H403 H 0.40453 0.67982 0.2785 0.0
H404 H 0.39278 0.71447 0.2567 0.0
H405 H 0.39058 0.53998 0.21484 0.0
H406 H 0.40184 0.54611 0.24656 0.0
H407 H 0.35587 0.55105 0.2368 0.0
H408 H 0.40835 0.58471 0.32717 0.0
H409 H 0.29675 0.5958 0.30582 0.0
H410 H 0.44778 0.62956 0.27992 0.0
H411 H 0.44602 0.58441 0.26801 0.0
H412 H 0.45649 0.59156 0.29975 0.0
H413 H 0.31014 0.64446 0.25345 0.0
H414 H 0.2795 0.61129 0.26608 0.0
H415 H 0.3111 0.59881 0.24239 0.0
C416 C 0.90553 0.38985 0.30539 0.0
C417 C 0.91007 0.35265 0.31025 0.0
C418 C 0.89472 0.40211 0.28225 0.0
C419 C 0.88791 0.37662 0.26348 0.0
C420 C 0.89305 0.3391 0.26811 0.0
C421 C 0.90423 0.3276 0.29136 0.0
C422 C 0.89008 0.44236 0.27799 0.0
C423 C 0.88593 0.311 0.24864 0.0
C424 C 0.82544 0.40279 0.21098 0.0
C425 C 0.85029 0.40901 0.19205 0.0
C426 C 0.83732 0.39267 0.23437 0.0
C427 C 0.87497 0.38906 0.23909 0.0
C428 C 0.90019 0.39645 0.22029 0.0
C429 C 0.88758 0.40612 0.19703 0.0
C430 C 0.80951 0.38487 0.25388 0.0
C431 C 0.94055 0.39346 0.22462 0.0
H432 H 0.91009 0.40951 0.31977 0.0
H433 H 0.90743 0.29881 0.29488 0.0
H434 H 0.90682 0.45108 0.26225 0.0
H435 H 0.86138 0.44842 0.27344 0.0
H436 H 0.89788 0.45877 0.29415 0.0
H437 H 0.89167 0.28295 0.25502 0.0
H438 H 0.85716 0.31252 0.24278 0.0
H439 H 0.90293 0.31658 0.23239 0.0
H440 H 0.7966 0.40477 0.20735 0.0
H441 H 0.90707 0.41111 0.18262 0.0
H442 H 0.81467 0.40205 0.27012 0.0
H443 H 0.81182 0.35613 0.25975 0.0
H444 H 0.78133 0.38984 0.24752 0.0
H445 H 0.94855 0.41056 0.24037 0.0
H446 H 0.95665 0.40191 0.20848 0.0
H447 H 0.94774 0.36499 0.22916 0.0
C448 C 0.18011 0.90432 0.30207 0.0
C449 C 0.15421 0.91242 0.32006 0.0
C450 C 0.16952 0.89408 0.27832 0.0
C451 C 0.13213 0.89214 0.27227 0.0
C452 C 0.10598 0.90173 0.29006 0.0
C453 C 0.11727 0.91159 0.31363 0.0
C454 C 0.19834 0.88408 0.25995 0.0
C455 C 0.06588 0.90048 0.28445 0.0
C456 C 0.10363 0.88877 0.20525 0.0
C457 C 0.09737 0.85148 0.20162 0.0
C458 C 0.11484 0.9024 0.22805 0.0
C459 C 0.12018 0.87827 0.24783 0.0
C460 C 0.1135 0.84071 0.24439 0.0
C461 C 0.10213 0.82784 0.22147 0.0
C462 C 0.12127 0.94266 0.23093 0.0
C463 C 0.11878 0.81394 0.26491 0.0
H464 H 0.20867 0.90473 0.30675 0.0
H465 H 0.09691 0.91805 0.32722 0.0
H466 H 0.19584 0.85491 0.25513 0.0
H467 H 0.19452 0.89988 0.24295 0.0
H468 H 0.22618 0.88904 0.26694 0.0
H469 H 0.04909 0.91109 0.2997 0.0
H470 H 0.05987 0.91658 0.26786 0.0
H471 H 0.05762 0.87205 0.28069 0.0
H472 H 0.10017 0.9074 0.19016 0.0
H473 H 0.09762 0.79899 0.21903 0.0
H474 H 0.14988 0.94762 0.23621 0.0
H475 H 0.10392 0.95362 0.24574 0.0
H476 H 0.11543 0.95795 0.21394 0.0
H477 H 0.14721 0.8151 0.27152 0.0
H478 H 0.11267 0.7856 0.25931 0.0
H479 H 0.10097 0.82123 0.28048 0.0
C480 C 0.34234 0.89057 0.80527 0.0
C481 C 0.36291 0.89355 0.82672 0.0
C482 C 0.35824 0.87888 0.78321 0.0
C483 C 0.39567 0.86982 0.78244 0.0
C484 C 0.41664 0.87312 0.80392 0.0
C485 C 0.40012 0.88494 0.82567 0.0
C486 C 0.33487 0.87596 0.76073 0.0
C487 C 0.45657 0.86384 0.804 0.0
C488 C 0.4267 0.8089 0.72981 0.0
C489 C 0.43955 0.8344 0.71286 0.0
C490 C 0.41336 0.81988 0.75278 0.0
C491 C 0.41289 0.85725 0.75909 0.0
C492 C 0.42771 0.88284 0.74263 0.0
C493 C 0.44081 0.87116 0.71983 0.0
C494 C 0.39813 0.7916 0.76982 0.0
C495 C 0.42818 0.92288 0.7486 0.0
H496 H 0.31364 0.89699 0.80572 0.0
H497 H 0.41647 0.88698 0.84201 0.0
H498 H 0.34602 0.89341 0.74607 0.0
H499 H 0.33511 0.8476 0.75387 0.0
H500 H 0.30631 0.88415 0.76423 0.0
H501 H 0.46921 0.86804 0.82215 0.0
H502 H 0.46047 0.83507 0.79857 0.0
H503 H 0.47113 0.88079 0.79047 0.0
H504 H 0.42522 0.78051 0.72469 0.0
H505 H 0.45071 0.89121 0.70702 0.0
H506 H 0.36846 0.79576 0.77187 0.0
H507 H 0.41041 0.7944 0.78817 0.0
H508 H 0.40296 0.76351 0.76312 0.0
H509 H 0.39993 0.9332 0.74985 0.0
H510 H 0.44289 0.93901 0.73465 0.0
H511 H 0.44115 0.92752 0.76656 0.0
C512 C 0.57195 0.31654 0.78821 0.0
C513 C 0.56927 0.34155 0.80747 0.0
C514 C 0.58624 0.32695 0.76536 0.0
C515 C 0.59871 0.36303 0.76177 0.0
C516 C 0.59527 0.38849 0.78093 0.0
C517 C 0.58031 0.37763 0.80327 0.0
C518 C 0.5886 0.2992 0.74518 0.0
C519 C 0.60841 0.42713 0.77811 0.0
C520 C 0.66824 0.3837 0.71188 0.0
C521 C 0.64658 0.39997 0.69389 0.0
C522 C 0.65306 0.3713 0.73395 0.0
C523 C 0.61517 0.37462 0.73805 0.0
C524 C 0.59321 0.39098 0.71997 0.0
C525 C 0.60915 0.40372 0.69834 0.0
C526 C 0.67761 0.35473 0.75293 0.0
C527 C 0.55269 0.39469 0.72335 0.0
H528 H 0.56369 0.28865 0.79112 0.0
H529 H 0.57848 0.39747 0.81782 0.0
H530 H 0.5749 0.30961 0.72859 0.0
H531 H 0.61744 0.29432 0.74037 0.0
H532 H 0.57606 0.2729 0.75036 0.0
H533 H 0.60405 0.44359 0.79484 0.0
H534 H 0.63781 0.4272 0.77372 0.0
H535 H 0.59412 0.44052 0.76278 0.0
H536 H 0.69708 0.38036 0.70865 0.0
H537 H 0.59186 0.41573 0.68456 0.0
H538 H 0.66861 0.32672 0.75719 0.0
H539 H 0.67593 0.37069 0.77006 0.0
H540 H 0.70639 0.35376 0.74692 0.0
H541 H 0.54056 0.3677 0.7271 0.0
H542 H 0.53914 0.40653 0.70712 0.0
H543 H 0.5468 0.41225 0.73931 0.0
C544 C 0.06534 0.68953 0.72369 0.0
C545 C 0.05266 0.6627 0.7076 0.0
C546 C 0.0805 0.68024 0.74644 0.0
C547 C 0.083 0.64324 0.75341 0.0
C548 C 0.06863 0.61622 0.73779 0.0
C549 C 0.05368 0.62623 0.71519 0.0
C550 C 0.09517 0.70997 0.7626 0.0
C551 C 0.07025 0.5765 0.74454 0.0
C552 C 0.15452 0.61466 0.80031 0.0
C553 C 0.13378 0.61193 0.8217 0.0
C554 C 0.13843 0.6249 0.778 0.0
C555 C 0.1007 0.63265 0.77696 0.0
C556 C 0.07966 0.62972 0.79842 0.0
C557 C 0.09633 0.61941 0.82037 0.0
C558 C 0.16183 0.62754 0.75551 0.0
C559 C 0.03942 0.63762 0.79824 0.0
H560 H 0.06514 0.71772 0.71802 0.0
H561 H 0.04399 0.60518 0.70302 0.0
H562 H 0.0831 0.70801 0.78107 0.0
H563 H 0.12495 0.70669 0.76464 0.0
H564 H 0.08956 0.73748 0.7552 0.0
H565 H 0.05652 0.55894 0.7309 0.0
H566 H 0.09898 0.56774 0.74609 0.0
H567 H 0.05735 0.57207 0.76255 0.0
H568 H 0.18338 0.6091 0.80101 0.0
H569 H 0.07978 0.61746 0.83663 0.0
H570 H 0.16046 0.65546 0.74798 0.0
H571 H 0.15151 0.60884 0.74125 0.0
H572 H 0.19067 0.62074 0.75926 0.0
H573 H 0.03451 0.66582 0.79193 0.0
H574 H 0.02686 0.63429 0.8165 0.0
H575 H 0.0255 0.61921 0.78527 0.0
C576 C 0.88273 0.08462 0.70118 0.0
C577 C 0.84615 0.09016 0.69486 0.0
C578 C 0.89724 0.09857 0.72294 0.0
C579 C 0.87466 0.11823 0.73915 0.0
C580 C 0.83751 0.12317 0.73325 0.0
C581 C 0.82375 0.10918 0.71121 0.0
C582 C 0.937 0.09275 0.72839 0.0
C583 C 0.81229 0.14343 0.75017 0.0
C584 C 0.90343 0.12098 0.80564 0.0
C585 C 0.91728 0.15641 0.80833 0.0
C586 C 0.88936 0.10856 0.78341 0.0
C587 C 0.88952 0.13171 0.7629 0.0
C588 C 0.90423 0.16719 0.76514 0.0
C589 C 0.91771 0.17923 0.78786 0.0
C590 C 0.87371 0.07069 0.78203 0.0
C591 C 0.90545 0.1925 0.74356 0.0
H592 H 0.90056 0.07036 0.68869 0.0
H593 H 0.79554 0.11375 0.70657 0.0
H594 H 0.95059 0.11933 0.73109 0.0
H595 H 0.94011 0.07719 0.74556 0.0
H596 H 0.9512 0.07784 0.71358 0.0
H597 H 0.78423 0.14525 0.74287 0.0
H598 H 0.81141 0.12968 0.76813 0.0
H599 H 0.82258 0.17135 0.75329 0.0
H600 H 0.90268 0.10286 0.82117 0.0
H601 H 0.92815 0.20661 0.78963 0.0
H602 H 0.88851 0.05444 0.76818 0.0
H603 H 0.8449 0.07201 0.77624 0.0
H604 H 0.87517 0.05619 0.79974 0.0
H605 H 0.92062 0.17959 0.72837 0.0
H606 H 0.91848 0.21885 0.74805 0.0
H607 H 0.87752 0.19784 0.73692 0.0
C608 C 0.42506 0.13395 0.37334 0.0
C609 C 0.4551 0.11352 0.38096 0.0
C610 C 0.39066 0.11808 0.37113 0.0
C611 C 0.38599 0.08119 0.37754 0.0
C612 C 0.4166 0.06007 0.3844 0.0
C613 C 0.45101 0.07645 0.38569 0.0
C614 C 0.35907 0.14125 0.36301 0.0
C615 C 0.41263 0.0208 0.3918 0.0
C616 C 0.2957 0.0519 0.40423 0.0
C617 C 0.28157 0.02996 0.38559 0.0
C618 C 0.32924 0.06939 0.40156 0.0
C619 C 0.34879 0.06569 0.37948 0.0
C620 C 0.33342 0.04593 0.35992 0.0
C621 C 0.30017 0.02793 0.36329 0.0
C622 C 0.34476 0.08998 0.42297 0.0
C623 C 0.35284 0.04241 0.33582 0.0
H624 H 0.42841 0.16266 0.36953 0.0
H625 H 0.47426 0.06082 0.39176 0.0
H626 H 0.34289 0.12683 0.34898 0.0
H627 H 0.34087 0.14661 0.37872 0.0
H628 H 0.36806 0.16774 0.35547 0.0
H629 H 0.43926 0.00761 0.39529 0.0
H630 H 0.39598 0.01908 0.40862 0.0
H631 H 0.39826 0.00531 0.37742 0.0
H632 H 0.28178 0.05347 0.4216 0.0
H633 H 0.28941 0.01115 0.34876 0.0
H634 H 0.35173 0.11812 0.41754 0.0
H635 H 0.3702 0.07667 0.42911 0.0
H636 H 0.32566 0.09122 0.43861 0.0
H637 H 0.36236 0.06937 0.32947 0.0
H638 H 0.33524 0.03032 0.32154 0.0
H639 H 0.37713 0.0249 0.33803 0.0
C640 C 0.40995 0.43123 0.40776 0.0
C641 C 0.39738 0.45711 0.39114 0.0
C642 C 0.4272 0.39943 0.39967 0.0
C643 C 0.4305 0.39274 0.37431 0.0
C644 C 0.4173 0.41864 0.35745 0.0
C645 C 0.40147 0.4509 0.36609 0.0
C646 C 0.44212 0.37313 0.41826 0.0
C647 C 0.41936 0.41198 0.33034 0.0
C648 C 0.50458 0.32581 0.35789 0.0
C649 C 0.48584 0.29264 0.35894 0.0
C650 C 0.48657 0.35889 0.36165 0.0
C651 C 0.44867 0.35896 0.36571 0.0
C652 C 0.42905 0.32596 0.36427 0.0
C653 C 0.44795 0.29306 0.36127 0.0
C654 C 0.50872 0.39327 0.36362 0.0
C655 C 0.38841 0.32511 0.3676 0.0
H656 H 0.40672 0.43617 0.42712 0.0
H657 H 0.39117 0.47079 0.35327 0.0
H658 H 0.42821 0.34656 0.41656 0.0
H659 H 0.47145 0.36836 0.41488 0.0
H660 H 0.4387 0.38313 0.43722 0.0
H661 H 0.40708 0.43448 0.31967 0.0
H662 H 0.44804 0.40868 0.32461 0.0
H663 H 0.4051 0.38635 0.32574 0.0
H664 H 0.5339 0.32588 0.35632 0.0
H665 H 0.43328 0.26758 0.362 0.0
H666 H 0.50949 0.40218 0.38294 0.0
H667 H 0.4962 0.41552 0.35294 0.0
H668 H 0.53707 0.38932 0.35723 0.0
H669 H 0.38172 0.32962 0.38707 0.0
H670 H 0.37665 0.29866 0.3619 0.0
H671 H 0.37531 0.34715 0.35698 0.0
C672 C 0.0542 0.42725 0.39129 0.0
C673 C 0.04616 0.39354 0.38095 0.0
C674 C 0.08849 0.44306 0.38791 0.0
C675 C 0.11485 0.42487 0.37348 0.0
C676 C 0.10578 0.3919 0.36172 0.0
C677 C 0.07166 0.37631 0.36594 0.0
C678 C 0.09728 0.47802 0.40103 0.0
C679 C 0.13269 0.37216 0.34572 0.0
C680 C 0.19689 0.48278 0.35845 0.0
C681 C 0.22071 0.47321 0.37736 0.0
C682 C 0.16313 0.46554 0.35587 0.0
C683 C 0.15278 0.43857 0.37283 0.0
C684 C 0.17783 0.42685 0.39074 0.0
C685 C 0.21164 0.44403 0.39261 0.0
C686 C 0.13765 0.47789 0.33601 0.0
C687 C 0.16785 0.39818 0.40923 0.0
H688 H 0.03446 0.44015 0.40315 0.0
H689 H 0.06523 0.35004 0.35809 0.0
H690 H 0.11872 0.47293 0.41481 0.0
H691 H 0.10802 0.49839 0.38804 0.0
H692 H 0.07322 0.48974 0.4104 0.0
H693 H 0.11966 0.35011 0.33502 0.0
H694 H 0.14598 0.39132 0.33295 0.0
H695 H 0.15427 0.35997 0.35718 0.0
H696 H 0.20378 0.50506 0.34642 0.0
H697 H 0.22975 0.43639 0.4073 0.0
H698 H 0.11556 0.49449 0.3441 0.0
H699 H 0.12488 0.45422 0.32691 0.0
H700 H 0.15176 0.49455 0.32206 0.0
H701 H 0.14589 0.40864 0.42119 0.0
H702 H 0.19126 0.39028 0.42083 0.0
H703 H 0.15739 0.37354 0.4 0.0
C704 C 0.10383 0.05071 0.36932 0.0
C705 C 0.10608 0.04278 0.39423 0.0
C706 C 0.08888 0.08372 0.36127 0.0
C707 C 0.07474 0.10859 0.37855 0.0
C708 C 0.07613 0.1001 0.40372 0.0
C709 C 0.09252 0.0676 0.41127 0.0
C710 C 0.08875 0.09225 0.33439 0.0
C711 C 0.06015 0.12524 0.42269 0.0
C712 C 0.05869 0.20926 0.36837 0.0
C713 C 0.02096 0.21012 0.36505 0.0
C714 C 0.07722 0.17603 0.37079 0.0
C715 C 0.05737 0.14309 0.37055 0.0
C716 C 0.01978 0.14372 0.36545 0.0
C717 C 0.00219 0.17714 0.36234 0.0
C718 C 0.1176 0.17634 0.3753 0.0
C719 C 0.99733 0.10941 0.36564 0.0
H720 H 0.11491 0.03162 0.35621 0.0
H721 H 0.09439 0.06132 0.43053 0.0
H722 H 0.06052 0.0962 0.32791 0.0
H723 H 0.10348 0.11804 0.33106 0.0
H724 H 0.1016 0.0704 0.32337 0.0
H725 H 0.06175 0.1137 0.44135 0.0
H726 H 0.07474 0.15156 0.42251 0.0
H727 H 0.03127 0.13097 0.41842 0.0
H728 H 0.07347 0.23453 0.37034 0.0
H729 H 0.97302 0.17729 0.35984 0.0
H730 H 0.13126 0.15497 0.36435 0.0
H731 H 0.12297 0.17042 0.39478 0.0
H732 H 0.12986 0.20307 0.37084 0.0
H733 H 0.01053 0.08773 0.35474 0.0
H734 H 0.96953 0.11395 0.35843 0.0
H735 H 0.99501 0.09933 0.38463 0.0
C736 C 0.95023 0.91051 0.12205 0.0
C737 C 0.95469 0.87318 0.12568 0.0
C738 C 0.91574 0.92664 0.12394 0.0
C739 C 0.8854 0.90503 0.13045 0.0
C740 C 0.89038 0.86774 0.13569 0.0
C741 C 0.92486 0.8521 0.13276 0.0
C742 C 0.91145 0.96631 0.1176 0.0
C743 C 0.85908 0.84406 0.14354 0.0
C744 C 0.80043 0.95909 0.14619 0.0
C745 C 0.78173 0.95838 0.12392 0.0
C746 C 0.83323 0.93997 0.14917 0.0
C747 C 0.84813 0.92065 0.12919 0.0
C748 C 0.82837 0.91821 0.10715 0.0
C749 C 0.79521 0.93657 0.10494 0.0
C750 C 0.85277 0.94197 0.17328 0.0
C751 C 0.84346 0.89838 0.08525 0.0
H752 H 0.97335 0.92669 0.11647 0.0
H753 H 0.92849 0.82323 0.13583 0.0
H754 H 0.89404 0.96904 0.10121 0.0
H755 H 0.89777 0.98103 0.13267 0.0
H756 H 0.9379 0.97964 0.11388 0.0
H757 H 0.86838 0.8172 0.15034 0.0
H758 H 0.84312 0.85768 0.15807 0.0
H759 H 0.84058 0.8395 0.1279 0.0
H760 H 0.79019 0.97571 0.16099 0.0
H761 H 0.78121 0.93592 0.08758 0.0
H762 H 0.87679 0.95989 0.17154 0.0
H763 H 0.86268 0.91469 0.17875 0.0
H764 H 0.83508 0.95292 0.18796 0.0
H765 H 0.86888 0.91174 0.07917 0.0
H766 H 0.82413 0.89797 0.06973 0.0
H767 H 0.85036 0.86996 0.09006 0.0
C768 C 0.55163 0.79093 0.14436 0.0
C769 C 0.51365 0.79173 0.1457 0.0
C770 C 0.57158 0.82321 0.14195 0.0
C771 C 0.55294 0.85676 0.14 0.0
C772 C 0.51487 0.85791 0.14322 0.0
C773 C 0.49577 0.82542 0.14647 0.0
C774 C 0.61233 0.82107 0.13962 0.0
C775 C 0.49378 0.89293 0.14068 0.0
C776 C 0.60209 0.94742 0.13937 0.0
C777 C 0.60713 0.95278 0.11433 0.0
C778 C 0.5854 0.91577 0.14814 0.0
C779 C 0.57233 0.88968 0.13136 0.0
C780 C 0.57682 0.89543 0.106 0.0
C781 C 0.59486 0.92662 0.09781 0.0
C782 C 0.58224 0.90998 0.17528 0.0
C783 C 0.56221 0.86884 0.08747 0.0
H784 H 0.56559 0.76499 0.14388 0.0
H785 H 0.46638 0.82634 0.14726 0.0
H786 H 0.62015 0.82451 0.12024 0.0
H787 H 0.62547 0.84316 0.15016 0.0
H788 H 0.62306 0.79453 0.14604 0.0
H789 H 0.46507 0.88993 0.14652 0.0
H790 H 0.50643 0.91493 0.15153 0.0
H791 H 0.4941 0.90161 0.12133 0.0
H792 H 0.61219 0.96753 0.15212 0.0
H793 H 0.59885 0.93092 0.07845 0.0
H794 H 0.59564 0.88407 0.1804 0.0
H795 H 0.5533 0.9077 0.18059 0.0
H796 H 0.59476 0.93241 0.18588 0.0
H797 H 0.57552 0.84203 0.08979 0.0
H798 H 0.56668 0.87811 0.06845 0.0
H799 H 0.53266 0.86487 0.09033 0.0
C800 C 0.55507 0.60881 0.14706 0.0
C801 C 0.54322 0.61346 0.12303 0.0
C802 C 0.58874 0.59241 0.15202 0.0
C803 C 0.6102 0.57921 0.13249 0.0
C804 C 0.59782 0.58333 0.10819 0.0
C805 C 0.5648 0.60111 0.10376 0.0
C806 C 0.60157 0.58961 0.17805 0.0
C807 C 0.6192 0.56852 0.08688 0.0
C808 C 0.71095 0.55766 0.1349 0.0
C809 C 0.71039 0.51971 0.13705 0.0
C810 C 0.67853 0.57789 0.13537 0.0
C811 C 0.64483 0.55958 0.13721 0.0
C812 C 0.64429 0.52157 0.14082 0.0
C813 C 0.67706 0.50223 0.14111 0.0
C814 C 0.68025 0.61859 0.13242 0.0
C815 C 0.60903 0.50077 0.14222 0.0
H816 H 0.53848 0.619 0.1619 0.0
H817 H 0.55549 0.60487 0.08519 0.0
H818 H 0.60486 0.56069 0.18323 0.0
H819 H 0.62856 0.60266 0.17993 0.0
H820 H 0.58243 0.60268 0.19104 0.0
H821 H 0.6052 0.57299 0.06922 0.0
H822 H 0.64623 0.58165 0.08607 0.0
H823 H 0.62377 0.53892 0.08925 0.0
H824 H 0.73656 0.5714 0.13189 0.0
H825 H 0.67615 0.47289 0.14264 0.0
H826 H 0.66139 0.63218 0.14531 0.0
H827 H 0.67171 0.62605 0.11371 0.0
H828 H 0.70809 0.62919 0.13547 0.0
H829 H 0.59042 0.51332 0.15569 0.0
H830 H 0.61326 0.47185 0.14725 0.0
H831 H 0.59531 0.50173 0.12423 0.0
C832 C 0.95886 0.69901 0.15436 0.0
C833 C 0.99639 0.69827 0.15029 0.0
C834 C 0.93778 0.66755 0.15137 0.0
C835 C 0.95453 0.63503 0.14328 0.0
C836 C 0.9927 0.63373 0.14038 0.0
C837 C 0.01323 0.66524 0.14433 0.0
C838 C 0.89732 0.66975 0.15538 0.0
C839 C 0.01155 0.59995 0.13115 0.0
C840 C 0.90495 0.54459 0.14441 0.0
C841 C 0.89124 0.54257 0.1206 0.0
C842 C 0.92479 0.57493 0.15228 0.0
C843 C 0.93198 0.60344 0.13572 0.0
C844 C 0.91836 0.60143 0.1116 0.0
C845 C 0.89764 0.57126 0.10444 0.0
C846 C 0.93798 0.57652 0.17829 0.0
C847 C 0.92627 0.63084 0.09319 0.0
H848 H 0.94577 0.72459 0.15876 0.0
H849 H 0.04214 0.6647 0.14062 0.0
H850 H 0.88318 0.66898 0.13756 0.0
H851 H 0.88775 0.64612 0.16613 0.0
H852 H 0.88932 0.69511 0.16499 0.0
H853 H 0.04157 0.60276 0.13118 0.0
H854 H 0.00408 0.57614 0.14242 0.0
H855 H 0.0026 0.5942 0.11223 0.0
H856 H 0.89967 0.52261 0.15704 0.0
H857 H 0.88722 0.56965 0.08601 0.0
H858 H 0.92821 0.60184 0.18713 0.0
H859 H 0.96806 0.57718 0.17867 0.0
H860 H 0.92861 0.55292 0.18919 0.0
H861 H 0.91546 0.65723 0.09974 0.0
H862 H 0.9142 0.62489 0.07508 0.0
H863 H 0.95604 0.63398 0.09098 0.0
C864 C 0.68923 0.98081 0.60568 0.0
C865 C 0.70519 -0.00107 0.62546 0.0
C866 C 0.65803 0.96 0.6086 0.0
C867 C 0.64251 0.9566 0.63201 0.0
C868 C 0.65865 0.97411 0.65226 0.0
C869 C 0.68981 0.99548 0.64871 0.0
C870 C 0.64143 0.94205 0.58643 0.0
C871 C 0.64293 0.97038 0.67751 0.0
C872 C 0.54454 0.92898 0.6268 0.0
C873 C 0.54797 0.89112 0.62655 0.0
C874 C 0.57495 0.95107 0.63051 0.0
C875 C 0.60918 0.93467 0.63461 0.0
C876 C 0.61211 0.89646 0.63634 0.0
C877 C 0.58149 0.87505 0.6319 0.0
C878 C 0.57094 0.99171 0.628 0.0
C879 C 0.64803 0.87807 0.64122 0.0
H880 H 0.70062 0.98347 0.58756 0.0
H881 H 0.70205 0.00939 0.66404 0.0
H882 H 0.64102 0.91215 0.58885 0.0
H883 H 0.61293 0.95119 0.58414 0.0
H884 H 0.65652 0.94826 0.56942 0.0
H885 H 0.65984 0.98409 0.69151 0.0
H886 H 0.61528 0.98229 0.67802 0.0
H887 H 0.64032 0.94125 0.68235 0.0
H888 H 0.51845 0.94132 0.62287 0.0
H889 H 0.58386 0.84569 0.63234 0.0
H890 H 0.58307 0.0005 0.61046 0.0
H891 H 0.58565 0.00597 0.64278 0.0
H892 H 0.54205 0.00038 0.62831 0.0
H893 H 0.66503 0.87906 0.62455 0.0
H894 H 0.64453 0.84916 0.6465 0.0
H895 H 0.66302 0.89235 0.6559 0.0
C896 C 0.64289 0.55781 0.62648 0.0
C897 C 0.62081 0.53162 0.61531 0.0
C898 C 0.62929 0.59209 0.63268 0.0
C899 C 0.59289 0.60071 0.62708 0.0
C900 C 0.57006 0.57404 0.61643 0.0
C901 C 0.58424 0.5395 0.61093 0.0
C902 C 0.65424 0.61944 0.6445 0.0
C903 C 0.53115 0.58252 0.60992 0.0
C904 C 0.54564 0.68332 0.65391 0.0
C905 C 0.54771 0.70793 0.63442 0.0
C906 C 0.56152 0.6487 0.65223 0.0
C907 C 0.57959 0.63846 0.63053 0.0
C908 C 0.58408 0.66405 0.61158 0.0
C909 C 0.56847 0.69859 0.61388 0.0
C910 C 0.55716 0.62242 0.67312 0.0
C911 C 0.60335 0.65423 0.58817 0.0
H912 H 0.67108 0.55151 0.6303 0.0
H913 H 0.56719 0.51923 0.60233 0.0
H914 H 0.65962 0.64205 0.63167 0.0
H915 H 0.64122 0.63132 0.66091 0.0
H916 H 0.68063 0.60723 0.64989 0.0
H917 H 0.51653 0.55837 0.60282 0.0
H918 H 0.51643 0.59299 0.62611 0.0
H919 H 0.5304 0.60414 0.59586 0.0
H920 H 0.52986 0.69023 0.66993 0.0
H921 H 0.57057 0.71739 0.59877 0.0
H922 H 0.58352 0.60945 0.67758 0.0
H923 H 0.53816 0.60048 0.66776 0.0
H924 H 0.54639 0.63589 0.68974 0.0
H925 H 0.63091 0.64361 0.5921 0.0
H926 H 0.60588 0.67776 0.57563 0.0
H927 H 0.58819 0.63239 0.57867 0.0
C928 C 0.93322 0.60267 0.64331 0.0
C929 C 0.95615 0.59141 0.62444 0.0
C930 C 0.90249 0.58243 0.64949 0.0
C931 C 0.8943 0.55079 0.63599 0.0
C932 C 0.91883 0.53808 0.61793 0.0
C933 C 0.94979 0.55863 0.61241 0.0
C934 C 0.87743 0.59645 0.66915 0.0
C935 C 0.91088 0.50446 0.60311 0.0
C936 C 0.81728 0.48646 0.65109 0.0
C937 C 0.79088 0.4982 0.63445 0.0
C938 C 0.8507 0.50455 0.65291 0.0
C939 C 0.8576 0.5347 0.63764 0.0
C940 C 0.8299 0.5483 0.6223 0.0
C941 C 0.79679 0.53002 0.62106 0.0
C942 C 0.87933 0.48998 0.66995 0.0
C943 C 0.83604 0.58065 0.60588 0.0
H944 H 0.93862 0.62812 0.6526 0.0
H945 H 0.96777 0.55024 0.59781 0.0
H946 H 0.85327 0.60918 0.66063 0.0
H947 H 0.86772 0.57389 0.68083 0.0
H948 H 0.89088 0.61709 0.68082 0.0
H949 H 0.93448 0.49599 0.59184 0.0
H950 H 0.90315 0.4816 0.61518 0.0
H951 H 0.88758 0.50984 0.59082 0.0
H952 H 0.81284 0.46189 0.66152 0.0
H953 H 0.77621 0.53953 0.60846 0.0
H954 H 0.89315 0.51245 0.6797 0.0
H955 H 0.90023 0.4752 0.65927 0.0
H956 H 0.8677 0.47097 0.68357 0.0
H957 H 0.84573 0.60423 0.61663 0.0
H958 H 0.81104 0.58881 0.59598 0.0
H959 H 0.85735 0.57405 0.59228 0.0
C960 C 0.90904 0.94589 0.61207 0.0
C961 C 0.87231 0.95526 0.61365 0.0
C962 C 0.92031 0.90989 0.61608 0.0
C963 C 0.89423 0.88315 0.62232 0.0
C964 C 0.8574 0.89298 0.62507 0.0
C965 C 0.84686 0.92883 0.62048 0.0
C966 C 0.95983 0.90018 0.61271 0.0
C967 C 0.82893 0.86542 0.6321 0.0
C968 C 0.91836 0.78673 0.60473 0.0
C969 C 0.93382 0.77355 0.62637 0.0
C970 C 0.90433 0.82204 0.6034 0.0
C971 C 0.90508 0.84445 0.62434 0.0
C972 C 0.91751 0.83027 0.64677 0.0
C973 C 0.93179 0.79493 0.64754 0.0
C974 C 0.891 0.83613 0.57916 0.0
C975 C 0.91785 0.85315 0.66961 0.0
H976 H 0.92868 0.96631 0.60678 0.0
H977 H 0.81844 0.93618 0.62212 0.0
H978 H 0.97035 0.88638 0.62922 0.0
H979 H 0.96276 0.88089 0.59728 0.0
H980 H 0.9769 0.92439 0.60898 0.0
H981 H 0.80207 0.87817 0.63556 0.0
H982 H 0.82583 0.84514 0.61729 0.0
H983 H 0.83744 0.85048 0.64868 0.0
H984 H 0.91944 0.77042 0.5883 0.0
H985 H 0.94339 0.78497 0.6644 0.0
H986 H 0.90923 0.85809 0.57273 0.0
H987 H 0.86345 0.84797 0.58108 0.0
H988 H 0.89011 0.81455 0.56501 0.0
H989 H 0.93852 0.87485 0.66779 0.0
H990 H 0.92428 0.83685 0.68608 0.0
H991 H 0.89119 0.86662 0.6723 0.0
C992 C 0.07718 0.10136 0.90271 0.0
C993 C 0.05168 0.11022 0.8848 0.0
C994 C 0.10715 0.07927 0.89721 0.0
C995 C 0.11238 0.06683 0.873 0.0
C996 C 0.08721 0.0766 0.85467 0.0
C997 C 0.05676 0.09768 0.8609 0.0
C998 C 0.13285 0.06872 0.91744 0.0
C999 C 0.09255 0.06495 0.82854 0.0
C1000 C 0.2095 0.0363 0.86408 0.0
C1001 C 0.20643 -0.00113 0.86814 0.0
C1002 C 0.17854 0.05851 0.86315 0.0
C1003 C 0.14394 0.043 0.8673 0.0
C1004 C 0.14056 0.00481 0.86945 0.0
C1005 C 0.1719 0.98311 0.86945 0.0
C1006 C 0.1832 0.09892 0.85983 0.0
C1007 C 0.10435 0.98717 0.87442 0.0
H1008 H 0.07311 0.11087 0.92122 0.0
H1009 H 0.03718 0.10488 0.84697 0.0
H1010 H 0.1347 0.03869 0.91872 0.0
H1011 H 0.16047 0.07903 0.91344 0.0
H1012 H 0.12417 0.07958 0.93542 0.0
H1013 H 0.07138 0.07624 0.81628 0.0
H1014 H 0.11957 0.07392 0.82198 0.0
H1015 H 0.09195 0.0349 0.82721 0.0
H1016 H 0.23623 0.04851 0.86311 0.0
H1017 H 0.1695 0.95423 0.87299 0.0
H1018 H 0.18031 0.11274 0.87769 0.0
H1019 H 0.16198 0.10996 0.84755 0.0
H1020 H 0.21032 0.1057 0.85225 0.0
H1021 H 0.09572 0.99368 0.8933 0.0
H1022 H 0.10559 0.95715 0.87246 0.0
H1023 H 0.08321 0.99783 0.86196 0.0
C1024 C 0.34855 0.06875 0.88415 0.0
C1025 C 0.37259 0.04264 0.89342 0.0
C1026 C 0.36047 0.1038 0.8782 0.0
C1027 C 0.3971 0.11334 0.88243 0.0
C1028 C 0.42178 0.08667 0.89113 0.0
C1029 C 0.40929 0.05136 0.89617 0.0
C1030 C 0.33353 0.13096 0.86829 0.0
C1031 C 0.46092 0.09597 0.89633 0.0
C1032 C 0.44126 0.19936 0.85807 0.0
C1033 C 0.44023 0.22196 0.87871 0.0
C1034 C 0.4255 0.16457 0.85846 0.0
C1035 C 0.40883 0.15191 0.88008 0.0
C1036 C 0.40522 0.17561 0.90026 0.0
C1037 C 0.42044 0.21045 0.89918 0.0
C1038 C 0.42868 0.14059 0.83624 0.0
C1039 C 0.38772 0.16326 0.92372 0.0
H1040 H 0.32017 0.0618 0.8818 0.0
H1041 H 0.42777 0.03116 0.90345 0.0
H1042 H 0.32775 0.15194 0.88229 0.0
H1043 H 0.34495 0.14506 0.85217 0.0
H1044 H 0.3075 0.11796 0.86302 0.0
H1045 H 0.47698 0.07184 0.90197 0.0
H1046 H 0.47377 0.10808 0.87999 0.0
H1047 H 0.46223 0.11654 0.91111 0.0
H1048 H 0.4562 0.20792 0.84206 0.0
H1049 H 0.41909 0.2276 0.91522 0.0
H1050 H 0.40246 0.127 0.83236 0.0
H1051 H 0.44909 0.11902 0.83967 0.0
H1052 H 0.43717 0.15613 0.81987 0.0
H1053 H 0.36022 0.15232 0.92016 0.0
H1054 H 0.38541 0.18556 0.93729 0.0
H1055 H 0.40406 0.141 0.93184 0.0
C1056 C 0.4252 0.41423 0.90703 0.0
C1057 C 0.45067 0.40434 0.88929 0.0
C1058 C 0.39498 0.43567 0.90106 0.0
C1059 C 0.38935 0.44635 0.87654 0.0
C1060 C 0.41513 0.43653 0.85854 0.0
C1061 C 0.44586 0.41609 0.86522 0.0
C1062 C 0.36884 0.44652 0.92101 0.0
C1063 C 0.40957 0.44644 0.83213 0.0
C1064 C 0.29008 0.46842 0.86599 0.0
C1065 C 0.29003 0.50631 0.86846 0.0
C1066 C 0.32277 0.44868 0.86629 0.0
C1067 C 0.356 0.46721 0.87004 0.0
C1068 C 0.35625 0.50565 0.87083 0.0
C1069 C 0.32328 0.52475 0.86964 0.0
C1070 C 0.32141 0.40781 0.86446 0.0
C1071 C 0.39082 0.52652 0.87542 0.0
H1072 H 0.429 0.40519 0.92565 0.0
H1073 H 0.46533 0.40797 0.85143 0.0
H1074 H 0.36474 0.47639 0.92093 0.0
H1075 H 0.34204 0.43375 0.91774 0.0
H1076 H 0.37853 0.43826 0.93934 0.0
H1077 H 0.43281 0.43801 0.82052 0.0
H1078 H 0.38462 0.43312 0.82522 0.0
H1079 H 0.40559 0.47616 0.83022 0.0
H1080 H 0.26445 0.45406 0.86509 0.0
H1081 H 0.32343 0.55401 0.87195 0.0
H1082 H 0.32573 0.39579 0.88275 0.0
H1083 H 0.34331 0.39758 0.85237 0.0
H1084 H 0.29487 0.39815 0.8574 0.0
H1085 H 0.3993 0.52254 0.89463 0.0
H1086 H 0.38731 0.5561 0.87218 0.0
H1087 H 0.41313 0.51638 0.86367 0.0
C1088 C 0.1351 0.44153 0.87201 0.0
C1089 C 0.11424 0.46606 0.88565 0.0
C1090 C 0.12118 0.40749 0.86531 0.0
C1091 C 0.08616 0.39728 0.87337 0.0
C1092 C 0.0646 0.42255 0.88654 0.0
C1093 C 0.07875 0.45697 0.89219 0.0
C1094 C 0.1445 0.38197 0.85048 0.0
C1095 C 0.02744 0.41247 0.89596 0.0
C1096 C 0.03303 0.31493 0.85171 0.0
C1097 C 0.03967 0.29024 0.87069 0.0
C1098 C 0.05009 0.3491 0.85126 0.0
C1099 C 0.07357 0.35907 0.87055 0.0
C1100 C 0.08254 0.33323 0.88865 0.0
C1101 C 0.06601 0.29899 0.88824 0.0
C1102 C 0.04114 0.3753 0.83102 0.0
C1103 C 0.10717 0.34275 0.9097 0.0
H1104 H 0.16255 0.44885 0.86687 0.0
H1105 H 0.06285 0.476 0.90288 0.0
H1106 H 0.15472 0.35977 0.86227 0.0
H1107 H 0.12836 0.36931 0.83568 0.0
H1108 H 0.1682 0.39607 0.84232 0.0
H1109 H 0.0136 0.43566 0.90503 0.0
H1110 H 0.01009 0.40272 0.88082 0.0
H1111 H 0.02994 0.38991 0.90925 0.0
H1112 H 0.01304 0.30842 0.83791 0.0
H1113 H 0.07162 0.28024 0.90297 0.0
H1114 H 0.06594 0.3895 0.82466 0.0
H1115 H 0.02202 0.39625 0.83788 0.0
H1116 H 0.02832 0.36138 0.81526 0.0
H1117 H 0.13327 0.35377 0.90295 0.0
H1118 H 0.113 0.31898 0.92153 0.0
H1119 H 0.09421 0.36419 0.92099 0.0
C1120 C 0.68377 0.20108 0.41973 0.0
C1121 C 0.68328 0.18625 0.39621 0.0
C1122 C 0.71196 0.22431 0.42695 0.0
C1123 C 0.74042 0.23179 0.41033 0.0
C1124 C 0.74246 0.21232 0.38807 0.0
C1125 C 0.71331 0.19049 0.38098 0.0
C1126 C 0.71022 0.24125 0.45196 0.0
C1127 C 0.77411 0.21667 0.37082 0.0
C1128 C 0.78958 0.318 0.39577 0.0
C1129 C 0.82347 0.31058 0.40594 0.0
C1130 C 0.76009 0.29495 0.40037 0.0
C1131 C 0.76563 0.26273 0.41407 0.0
C1132 C 0.79867 0.25767 0.42666 0.0
C1133 C 0.82708 0.28225 0.42275 0.0
C1134 C 0.72425 0.30294 0.38824 0.0
C1135 C 0.8061 0.22458 0.44205 0.0
H1136 H 0.6605 0.19742 0.43159 0.0
H1137 H 0.71289 0.17868 0.36287 0.0
H1138 H 0.72084 0.22145 0.46542 0.0
H1139 H 0.72661 0.26635 0.45347 0.0
H1140 H 0.6817 0.24731 0.45715 0.0
H1141 H 0.77522 0.19435 0.3572 0.0
H1142 H 0.77149 0.24274 0.36086 0.0
H1143 H 0.80013 0.2172 0.381 0.0
H1144 H 0.78685 0.33998 0.38277 0.0
H1145 H 0.85343 0.27686 0.43064 0.0
H1146 H 0.70129 0.29402 0.39984 0.0
H1147 H 0.72268 0.28795 0.37072 0.0
H1148 H 0.72119 0.33238 0.38431 0.0
H1149 H 0.7819 0.20744 0.44523 0.0
H1150 H 0.81683 0.23332 0.45997 0.0
H1151 H 0.8273 0.20775 0.43311 0.0
C1152 C 0.29586 0.67955 0.4365 0.0
C1153 C 0.31589 0.68068 0.41482 0.0
C1154 C 0.27243 0.70811 0.4427 0.0
C1155 C 0.27009 0.73849 0.42707 0.0
C1156 C 0.29435 0.74177 0.40713 0.0
C1157 C 0.31647 0.71228 0.40087 0.0
C1158 C 0.24827 0.70453 0.46477 0.0
C1159 C 0.29421 0.77484 0.39088 0.0
C1160 C 0.1864 0.78719 0.40645 0.0
C1161 C 0.19208 0.82108 0.41708 0.0
C1162 C 0.209 0.75789 0.4125 0.0
C1163 C 0.23875 0.76364 0.42848 0.0
C1164 C 0.24155 0.79661 0.44149 0.0
C1165 C 0.21765 0.8249 0.43583 0.0
C1166 C 0.20368 0.72207 0.39959 0.0
C1167 C 0.27215 0.80424 0.45902 0.0
H1168 H 0.29548 0.65472 0.44713 0.0
H1169 H 0.33185 0.71278 0.38402 0.0
H1170 H 0.25671 0.72454 0.47877 0.0
H1171 H 0.21972 0.71071 0.45994 0.0
H1172 H 0.24955 0.67694 0.47291 0.0
H1173 H 0.31851 0.77575 0.37891 0.0
H1174 H 0.26968 0.7744 0.37916 0.0
H1175 H 0.29329 0.80005 0.40198 0.0
H1176 H 0.16664 0.78444 0.39193 0.0
H1177 H 0.22188 0.85141 0.44401 0.0
H1178 H 0.20805 0.69909 0.41233 0.0
H1179 H 0.22379 0.71954 0.38462 0.0
H1180 H 0.17606 0.71982 0.39163 0.0
H1181 H 0.2866 0.77938 0.46498 0.0
H1182 H 0.26154 0.81852 0.47538 0.0
H1183 H 0.29203 0.82263 0.45016 0.0
C1184 C 0.28575 0.68796 0.11271 0.0
C1185 C 0.32063 0.69118 0.10317 0.0
C1186 C 0.25844 0.7121 0.10549 0.0
C1187 C 0.2673 0.74132 0.08972 0.0
C1188 C 0.30112 0.7415 0.07762 0.0
C1189 C 0.32746 0.7159 0.08433 0.0
C1190 C 0.22158 0.70908 0.1173 0.0
C1191 C 0.31106 0.77115 0.05999 0.0
C1192 C 0.18658 0.80257 0.08345 0.0
C1193 C 0.18647 0.81692 0.10712 0.0
C1194 C 0.21566 0.78099 0.07544 0.0
C1195 C 0.24517 0.77492 0.09141 0.0
C1196 C 0.24801 0.79563 0.11312 0.0
C1197 C 0.21795 0.81549 0.12118 0.0
C1198 C 0.2133 0.76337 0.05068 0.0
C1199 C 0.2809 0.79307 0.12942 0.0
H1200 H 0.28057 0.66852 0.12713 0.0
H1201 H 0.35462 0.71792 0.07683 0.0
H1202 H 0.19987 0.71841 0.1048 0.0
H1203 H 0.21578 0.68068 0.12288 0.0
H1204 H 0.22081 0.72639 0.13386 0.0
H1205 H 0.33507 0.76365 0.04884 0.0
H1206 H 0.28815 0.77721 0.04759 0.0
H1207 H 0.31728 0.79628 0.07033 0.0
H1208 H 0.16235 0.80461 0.07232 0.0
H1209 H 0.218 0.82735 0.13928 0.0
H1210 H 0.23059 0.73885 0.04903 0.0
H1211 H 0.22252 0.78325 0.03682 0.0
H1212 H 0.18483 0.75621 0.04619 0.0
H1213 H 0.27887 0.76833 0.14087 0.0
H1214 H 0.28289 0.81696 0.14173 0.0
H1215 H 0.30617 0.79112 0.11847 0.0
C1216 C 0.79804 0.31732 0.07498 0.0
C1217 C 0.81417 0.31816 0.09807 0.0
C1218 C 0.77629 0.28785 0.06801 0.0
C1219 C 0.77191 0.2585 0.08438 0.0
C1220 C 0.79222 0.25747 0.10632 0.0
C1221 C 0.81254 0.28779 0.11315 0.0
C1222 C 0.75693 0.28943 0.04381 0.0
C1223 C 0.78988 0.22579 0.12374 0.0
C1224 C 0.68919 0.20482 0.09982 0.0
C1225 C 0.70032 0.17068 0.09172 0.0
C1226 C 0.70997 0.23557 0.09415 0.0
C1227 C 0.74289 0.23124 0.08099 0.0
C1228 C 0.7512 0.19757 0.07004 0.0
C1229 C 0.72956 0.16753 0.0755 0.0
C1230 C 0.69917 0.27176 0.10485 0.0
C1231 C 0.78537 0.19211 0.05531 0.0
H1232 H 0.79944 0.34115 0.06341 0.0
H1233 H 0.82506 0.28881 0.13102 0.0
H1234 H 0.75067 0.31792 0.03861 0.0
H1235 H 0.77506 0.27809 0.02955 0.0
H1236 H 0.7314 0.27354 0.04373 0.0
H1237 H 0.81128 0.22694 0.13796 0.0
H1238 H 0.76305 0.22599 0.13292 0.0
H1239 H 0.79251 0.19968 0.11376 0.0
H1240 H 0.66639 0.20705 0.11222 0.0
H1241 H 0.73766 0.14086 0.06905 0.0
H1242 H 0.70564 0.29419 0.09208 0.0
H1243 H 0.71461 0.27644 0.12192 0.0
H1244 H 0.66974 0.27267 0.10924 0.0
H1245 H 0.78455 0.1665 0.0446 0.0
H1246 H 0.80904 0.19088 0.06778 0.0
H1247 H 0.78965 0.2152 0.04268 0.0
C1248 C 0.15905 0.75479 0.65767 0.0
C1249 C 0.154 0.72341 0.64361 0.0
C1250 C 0.19315 0.77048 0.65977 0.0
C1251 C 0.22251 0.75424 0.64744 0.0
C1252 C 0.21793 0.72175 0.63396 0.0
C1253 C 0.1834 0.70645 0.6323 0.0
C1254 C 0.19756 0.8048 0.67462 0.0
C1255 C 0.24922 0.70384 0.62079 0.0
C1256 C 0.30467 0.80823 0.62988 0.0
C1257 C 0.32955 0.79477 0.64675 0.0
C1258 C 0.26871 0.79643 0.63054 0.0
C1259 C 0.25823 0.77118 0.64864 0.0
C1260 C 0.2827 0.76003 0.66691 0.0
C1261 C 0.31836 0.77198 0.66567 0.0
C1262 C 0.24274 0.80889 0.61097 0.0
C1263 C 0.27197 0.7336 0.68669 0.0
H1264 H 0.1361 0.76744 0.66672 0.0
H1265 H 0.17913 0.68222 0.62142 0.0
H1266 H 0.2191 0.80113 0.68851 0.0
H1267 H 0.20617 0.82741 0.6626 0.0
H1268 H 0.17206 0.81286 0.684 0.0
H1269 H 0.24098 0.67844 0.61137 0.0
H1270 H 0.26061 0.72281 0.60708 0.0
H1271 H 0.27124 0.69733 0.63385 0.0
H1272 H 0.31384 0.82588 0.61533 0.0
H1273 H 0.338 0.76219 0.67886 0.0
H1274 H 0.21699 0.81856 0.61921 0.0
H1275 H 0.23601 0.78567 0.59889 0.0
H1276 H 0.25433 0.83102 0.59965 0.0
H1277 H 0.24612 0.74205 0.69537 0.0
H1278 H 0.2931 0.7312 0.70103 0.0
H1279 H 0.26756 0.70635 0.67858 0.0
C1280 C 0.81081 0.18642 0.66137 0.0
C1281 C 0.8274 0.18945 0.63848 0.0
C1282 C 0.78133 0.20879 0.66741 0.0
C1283 C 0.77215 0.23752 0.65149 0.0
C1284 C 0.79603 0.24647 0.63209 0.0
C1285 C 0.82264 0.22132 0.62512 0.0
C1286 C 0.75865 0.19904 0.68935 0.0
C1287 C 0.79048 0.27997 0.6167 0.0
C1288 C 0.6852 0.26961 0.6245 0.0
C1289 C 0.68022 0.30157 0.63777 0.0
C1290 C 0.7116 0.24443 0.63175 0.0
C1291 C 0.73513 0.25346 0.65132 0.0
C1292 C 0.72591 0.28247 0.66702 0.0
C1293 C 0.69677 0.30502 0.66066 0.0
C1294 C 0.71731 0.21074 0.61651 0.0
C1295 C 0.7486 0.29208 0.68899 0.0
H1296 H 0.81608 0.16262 0.67235 0.0
H1297 H 0.83628 0.22437 0.60773 0.0
H1298 H 0.73009 0.20825 0.68772 0.0
H1299 H 0.75869 0.16924 0.69248 0.0
H1300 H 0.77074 0.21196 0.70571 0.0
H1301 H 0.81642 0.28884 0.60827 0.0
H1302 H 0.77116 0.27389 0.60175 0.0
H1303 H 0.77923 0.30268 0.6277 0.0
H1304 H 0.67175 0.26635 0.60707 0.0
H1305 H 0.69148 0.32901 0.6715 0.0
H1306 H 0.72827 0.18811 0.62768 0.0
H1307 H 0.73695 0.21658 0.60171 0.0
H1308 H 0.69151 0.20187 0.60791 0.0
H1309 H 0.74166 0.27343 0.70413 0.0
H1310 H 0.74336 0.32028 0.69534 0.0
H1311 H 0.77802 0.28917 0.68512 0.0
C1312 C 0.79989 0.19133 0.87654 0.0
C1313 C 0.82612 0.19238 0.89479 0.0
C1314 C 0.76609 0.2076 0.88017 0.0
C1315 C 0.75913 0.22599 0.90239 0.0
C1316 C 0.78479 0.22492 0.92153 0.0
C1317 C 0.81823 0.20787 0.91746 0.0
C1318 C 0.73891 0.20736 0.85957 0.0
C1319 C 0.77842 0.24426 0.94542 0.0
C1320 C 0.692 0.30075 0.89002 0.0
C1321 C 0.65974 0.28241 0.89498 0.0
C1322 C 0.72543 0.28384 0.89466 0.0
C1323 C 0.72594 0.24818 0.90446 0.0
C1324 C 0.69341 0.23148 0.91196 0.0
C1325 C 0.66062 0.24884 0.90707 0.0
C1326 C 0.75997 0.30276 0.88718 0.0
C1327 C 0.6929 0.19391 0.92301 0.0
H1328 H 0.8067 0.17978 0.85892 0.0
H1329 H 0.83925 0.20925 0.93127 0.0
H1330 H 0.71203 0.19815 0.86623 0.0
H1331 H 0.73552 0.23532 0.85237 0.0
H1332 H 0.74748 0.18938 0.84434 0.0
H1333 H 0.78462 0.27355 0.94313 0.0
H1334 H 0.74973 0.24201 0.95135 0.0
H1335 H 0.79622 0.23341 0.96004 0.0
H1336 H 0.6911 0.32702 0.88113 0.0
H1337 H 0.63541 0.23529 0.9117 0.0
H1338 H 0.77093 0.28972 0.87048 0.0
H1339 H 0.78083 0.30016 0.90164 0.0
H1340 H 0.75542 0.33204 0.88334 0.0
H1341 H 0.6663 0.18759 0.93155 0.0
H1342 H 0.7145 0.19098 0.93693 0.0
H1343 H 0.69821 0.17348 0.90855 0.0
C1344 C 0.31656 0.78089 0.91435 0.0
C1345 C 0.31547 0.8151 0.92529 0.0
C1346 C 0.29238 0.75366 0.92158 0.0
C1347 C 0.26557 0.76174 0.93936 0.0
C1348 C 0.26792 0.79443 0.95283 0.0
C1349 C 0.29326 0.82083 0.9457 0.0
C1350 C 0.29221 0.71827 0.90764 0.0
C1351 C 0.2407 0.80351 0.97243 0.0
C1352 C 0.18143 0.72394 0.91143 0.0
C1353 C 0.18076 0.68948 0.92195 0.0
C1354 C 0.20575 0.75032 0.91979 0.0
C1355 C 0.23094 0.74116 0.93837 0.0
C1356 C 0.22699 0.70807 0.95116 0.0
C1357 C 0.20157 0.68251 0.94283 0.0
C1358 C 0.20769 0.7861 0.90641 0.0
C1359 C 0.25243 0.69775 0.97154 0.0
H1360 H 0.33388 0.77659 0.89862 0.0
H1361 H 0.29245 0.84751 0.95411 0.0
H1362 H 0.28717 0.69504 0.92002 0.0
H1363 H 0.27009 0.71882 0.89393 0.0
H1364 H 0.31829 0.71359 0.89796 0.0
H1365 H 0.24964 0.82688 0.98371 0.0
H1366 H 0.21432 0.81049 0.96391 0.0
H1367 H 0.23604 0.77985 0.98448 0.0
H1368 H 0.16523 0.72918 0.89532 0.0
H1369 H 0.20105 0.65562 0.9509 0.0
H1370 H 0.23091 0.78554 0.89352 0.0
H1371 H 0.21208 0.80888 0.91929 0.0
H1372 H 0.18254 0.79155 0.89587 0.0
H1373 H 0.25882 0.72146 0.98321 0.0
H1374 H 0.27838 0.68787 0.9637 0.0
H1375 H 0.24085 0.67587 0.98307 0.0
C1376 C 0.59111 0.11211 0.47108 0.0
C1377 C 0.58078 0.14754 0.46466 0.0
C1378 C 0.61522 0.10571 0.49046 0.0
C1379 C 0.62987 0.13543 0.50359 0.0
C1380 C 0.61813 0.17112 0.498 0.0
C1381 C 0.59368 0.17672 0.47869 0.0
C1382 C 0.62627 0.06715 0.49618 0.0
C1383 C 0.63288 0.20394 0.51114 0.0
C1384 C 0.67855 0.11497 0.56334 0.0
C1385 C 0.71468 0.11124 0.55558 0.0
C1386 C 0.65072 0.12349 0.54674 0.0
C1387 C 0.65926 0.12909 0.52187 0.0
C1388 C 0.69594 0.12727 0.5142 0.0
C1389 C 0.7231 0.1179 0.53104 0.0
C1390 C 0.61206 0.12574 0.55569 0.0
C1391 C 0.70641 0.13453 0.48806 0.0
H1392 H 0.58128 0.08938 0.46041 0.0
H1393 H 0.58637 0.20429 0.47376 0.0
H1394 H 0.65533 0.06317 0.49157 0.0
H1395 H 0.62315 0.06172 0.51595 0.0
H1396 H 0.61001 0.04693 0.48587 0.0
H1397 H 0.61195 0.22556 0.51224 0.0
H1398 H 0.6422 0.1976 0.52986 0.0
H1399 H 0.65625 0.21486 0.50071 0.0
H1400 H 0.67177 0.10984 0.58224 0.0
H1401 H 0.75099 0.11549 0.52494 0.0
H1402 H 0.5953 0.10502 0.54627 0.0
H1403 H 0.60043 0.15275 0.55122 0.0
H1404 H 0.60992 0.12138 0.57566 0.0
H1405 H 0.69494 0.11308 0.47613 0.0
H1406 H 0.7363 0.13518 0.48545 0.0
H1407 H 0.69488 0.16087 0.48198 0.0
C1408 C 0.40886 0.70881 0.55296 0.0
C1409 C 0.42354 0.69891 0.57558 0.0
C1410 C 0.39808 0.68253 0.53593 0.0
C1411 C 0.40274 0.6452 0.54135 0.0
C1412 C 0.41675 0.63493 0.56442 0.0
C1413 C 0.42665 0.66195 0.58139 0.0
C1414 C 0.38266 0.69485 0.51181 0.0
C1415 C 0.42258 0.5955 0.57079 0.0
C1416 C 0.34998 0.58184 0.49952 0.0
C1417 C 0.37543 0.5751 0.48097 0.0
C1418 C 0.35898 0.60301 0.52001 0.0
C1419 C 0.39444 0.61744 0.52223 0.0
C1420 C 0.4209 0.60863 0.50441 0.0
C1421 C 0.41104 0.58783 0.48396 0.0
C1422 C 0.3298 0.61197 0.53838 0.0
C1423 C 0.45916 0.62299 0.50619 0.0
H1424 H 0.40614 0.73736 0.54845 0.0
H1425 H 0.4383 0.65418 0.59875 0.0
H1426 H 0.40139 0.68706 0.49685 0.0
H1427 H 0.35632 0.68126 0.50828 0.0
H1428 H 0.3784 0.72471 0.51113 0.0
H1429 H 0.43169 0.59188 0.58992 0.0
H1430 H 0.39716 0.57994 0.56802 0.0
H1431 H 0.44337 0.58362 0.5585 0.0
H1432 H 0.32232 0.57238 0.4974 0.0
H1433 H 0.43098 0.58265 0.46985 0.0
H1434 H 0.32209 0.64099 0.53659 0.0
H1435 H 0.33998 0.60793 0.55719 0.0
H1436 H 0.30509 0.59517 0.53577 0.0
H1437 H 0.45905 0.65274 0.50299 0.0
H1438 H 0.47756 0.61011 0.49266 0.0
H1439 H 0.47027 0.61834 0.52471 0.0
C1440 C 0.91777 0.39381 0.47699 0.0
C1441 C 0.93031 0.35892 0.47097 0.0
C1442 C 0.89429 0.39938 0.49684 0.0
C1443 C 0.88258 0.36929 0.51086 0.0
C1444 C 0.89698 0.33438 0.50586 0.0
C1445 C 0.92083 0.32964 0.48608 0.0
C1446 C 0.8802 0.4372 0.50182 0.0
C1447 C 0.88516 0.30152 0.52022 0.0
C1448 C 0.83052 0.38903 0.56956 0.0
C1449 C 0.79451 0.38895 0.56124 0.0
C1450 C 0.85956 0.38198 0.55354 0.0
C1451 C 0.85235 0.37388 0.52877 0.0
C1452 C 0.8159 0.37202 0.52062 0.0
C1453 C 0.78752 0.38001 0.53685 0.0
C1454 C 0.89796 0.38475 0.56289 0.0
C1455 C 0.80686 0.3626 0.49452 0.0
H1456 H 0.92502 0.41661 0.46551 0.0
H1457 H 0.93002 0.30249 0.4815 0.0
H1458 H 0.85111 0.43877 0.49672 0.0
H1459 H 0.88221 0.44365 0.52152 0.0
H1460 H 0.89524 0.45816 0.49137 0.0
H1461 H 0.90239 0.27741 0.51633 0.0
H1462 H 0.88601 0.3072 0.54006 0.0
H1463 H 0.85666 0.29483 0.51551 0.0
H1464 H 0.8361 0.39624 0.58834 0.0
H1465 H 0.75973 0.37963 0.53038 0.0
H1466 H 0.91163 0.40826 0.55422 0.0
H1467 H 0.91366 0.3601 0.55792 0.0
H1468 H 0.89899 0.38835 0.58297 0.0
H1469 H 0.81725 0.38411 0.48222 0.0
H1470 H 0.77718 0.35978 0.49152 0.0
H1471 H 0.8203 0.33678 0.48923 0.0
C1472 C 0.04884 0.83001 0.57545 0.0
C1473 C 0.05369 0.79334 0.56918 0.0
C1474 C 0.0604 0.85798 0.55973 0.0
C1475 C 0.07767 0.84904 0.53741 0.0
C1476 C 0.08331 0.81207 0.53132 0.0
C1477 C 0.07108 0.78481 0.54714 0.0
C1478 C 0.05349 0.89701 0.56676 0.0
C1479 C 0.10199 0.80117 0.5079 0.0
C1480 C 0.07879 0.9089 0.48114 0.0
C1481 C 0.11489 0.92098 0.48077 0.0
C1482 C 0.0655 0.88773 0.50047 0.0
C1483 C 0.08898 0.87784 0.51978 0.0
C1484 C 0.12479 0.89184 0.52028 0.0
C1485 C 0.13723 0.91344 0.50086 0.0
C1486 C 0.027 0.87388 0.49933 0.0
C1487 C 0.15087 0.88178 0.54037 0.0
H1488 H 0.0353 0.83685 0.59239 0.0
H1489 H 0.07537 0.75659 0.54223 0.0
H1490 H 0.07918 0.91265 0.56623 0.0
H1491 H 0.03474 0.90967 0.55342 0.0
H1492 H 0.04143 0.89953 0.58524 0.0
H1493 H 0.10559 0.77129 0.50633 0.0
H1494 H 0.0859 0.81071 0.49207 0.0
H1495 H 0.12907 0.81419 0.50673 0.0
H1496 H 0.06124 0.91478 0.46579 0.0
H1497 H 0.16524 0.9224 0.5007 0.0
H1498 H 0.01328 0.87745 0.51716 0.0
H1499 H 0.02725 0.84438 0.49516 0.0
H1500 H 0.01082 0.88794 0.4851 0.0
H1501 H 0.13783 0.88505 0.55846 0.0
H1502 H 0.17595 0.89846 0.53987 0.0
H1503 H 0.15867 0.85278 0.53847 0.0
C1504 C 0.2081 0.8953 0.97268 0.0
C1505 C 0.20211 0.89135 0.94763 0.0
C1506 C 0.18291 0.88253 0.98978 0.0
C1507 C 0.15004 0.86677 0.98165 0.0
C1508 C 0.14395 0.86236 0.95629 0.0
C1509 C 0.17044 0.87418 0.93953 0.0
C1510 C 0.19153 0.88603 0.01659 0.0
C1511 C 0.10895 0.84653 0.94685 0.0
C1512 C 0.09908 0.81366 0.03014 0.0
C1513 C 0.07779 0.84102 0.04089 0.0
C1514 C 0.12147 0.82106 0.01002 0.0
C1515 C 0.12185 0.85646 0.99995 0.0
C1516 C 0.09834 0.88342 0.00962 0.0
C1517 C 0.07714 0.87559 0.03028 0.0
C1518 C 0.14673 0.79176 1.00081 0.0
C1519 C 0.0971 0.92119 0.999 0.0
H1520 H 0.23279 0.90823 0.97892 0.0
H1521 H 0.16577 0.87132 0.92013 0.0
H1522 H 0.17047 0.90259 0.02585 0.0
H1523 H 0.19146 0.85876 0.02519 0.0
H1524 H 0.21835 0.89886 0.01985 0.0
H1525 H 0.10941 0.84264 0.92678 0.0
H1526 H 0.10334 0.82003 0.95564 0.0
H1527 H 0.08614 0.86498 0.95155 0.0
H1528 H 0.10016 0.787 0.0385 0.0
H1529 H 0.06071 0.89677 0.0385 0.0
H1530 H 0.17498 0.79886 1.00583 0.0
H1531 H 0.14569 0.78982 0.98067 0.0
H1532 H 0.14028 0.76472 0.00865 0.0
H1533 H 0.12248 0.93582 1.00364 0.0
H1534 H 0.07376 0.93717 1.00609 0.0
H1535 H 0.09524 0.91992 0.97884 0.0
C1536 C 0.58469 0.08179 0.02557 0.0
C1537 C 0.62149 0.07224 0.0269 0.0
C1538 C 0.57142 0.10314 1.00635 0.0
C1539 C 0.59566 0.11589 0.98826 0.0
C1540 C 0.63237 0.10436 0.98864 0.0
C1541 C 0.64479 0.08239 0.00786 0.0
C1542 C 0.53195 0.11422 1.00643 0.0
C1543 C 0.65926 0.11766 0.96991 0.0
C1544 C 0.55663 0.16511 0.93297 0.0
C1545 C 0.55793 0.20138 0.94078 0.0
C1546 C 0.56902 0.13681 0.94809 0.0
C1547 C 0.58376 0.14516 0.97127 0.0
C1548 C 0.58603 0.18186 0.97887 0.0
C1549 C 0.57278 0.2094 0.96367 0.0
C1550 C 0.56573 0.09802 0.93949 0.0
C1551 C 0.60213 0.19212 1.00324 0.0
H1552 H 0.56649 0.07381 0.04013 0.0
H1553 H 0.67334 0.07537 0.00886 0.0
H1554 H 0.52966 0.14328 0.01159 0.0
H1555 H 0.52004 0.11116 0.98799 0.0
H1556 H 0.51571 0.09796 0.01951 0.0
H1557 H 0.68501 0.10193 0.97039 0.0
H1558 H 0.64766 0.11601 0.9513 0.0
H1559 H 0.66564 0.14661 0.97354 0.0
H1560 H 0.54513 0.1588 0.91529 0.0
H1561 H 0.57439 0.23743 0.96964 0.0
H1562 H 0.54825 0.0825 0.95222 0.0
H1563 H 0.59279 0.08479 0.93948 0.0
H1564 H 0.55399 0.09609 0.92089 0.0
H1565 H 0.5856 0.18031 0.01815 0.0
H1566 H 0.60345 0.22201 1.00591 0.0
H1567 H 0.62995 0.18084 1.00491 0.0
C1568 C 0.32098 0.62285 0.93955 0.0
C1569 C 0.28764 0.60845 0.94699 0.0
C1570 C 0.34763 0.63216 0.95683 0.0
C1571 C 0.34015 0.62795 0.98203 0.0
C1572 C 0.30563 0.61527 0.9895 0.0
C1573 C 0.28012 0.60497 0.97188 0.0
C1574 C 0.38415 0.64532 0.94815 0.0
C1575 C 0.29574 0.61214 0.01612 0.0
C1576 C 0.41328 0.61307 0.02995 0.0
C1577 C 0.41642 0.6478 0.04012 0.0
C1578 C 0.39009 0.60674 0.01004 0.0
C1579 C 0.36854 0.63553 1.00071 0.0
C1580 C 0.37212 0.67081 0.01069 0.0
C1581 C 0.39634 0.67656 0.03002 0.0
C1582 C 0.38771 0.56893 0.9995 0.0
C1583 C 0.34871 0.70204 1.00214 0.0
H1584 H 0.32673 0.62537 0.92026 0.0
H1585 H 0.25406 0.59425 0.97757 0.0
H1586 H 0.39041 0.67212 0.95637 0.0
H1587 H 0.40558 0.62611 0.95416 0.0
H1588 H 0.38541 0.64785 0.928 0.0
H1589 H 0.2668 0.60471 0.01882 0.0
H1590 H 0.31293 0.59118 0.02493 0.0
H1591 H 0.30093 0.63826 0.0256 0.0
H1592 H 0.42865 0.5908 0.03775 0.0
H1593 H 0.398 0.70335 0.03816 0.0
H1594 H 0.3904 0.56989 0.97937 0.0
H1595 H 0.36076 0.5571 1.0037 0.0
H1596 H 0.40899 0.55062 1.00691 0.0
H1597 H 0.34725 0.70293 0.98197 0.0
H1598 H 0.35884 0.72863 0.00886 0.0
H1599 H 0.32067 0.69825 0.00905 0.0
C1600 C 0.89898 0.42148 0.02481 0.0
C1601 C 0.86249 0.42435 0.03179 0.0
C1602 C 0.90944 0.39966 1.00495 0.0
C1603 C 0.88291 0.37927 0.9922 0.0
C1604 C 0.84584 0.38309 0.99864 0.0
C1605 C 0.83606 0.40593 0.01815 0.0
C1606 C 0.94915 0.39703 0.99841 0.0
C1607 C 0.81673 0.36117 0.98607 0.0
C1608 C 0.90944 0.3336 0.93217 0.0
C1609 C 0.92047 0.29918 0.9402 0.0
C1610 C 0.89693 0.36001 0.94881 0.0
C1611 C 0.89445 0.35138 0.97393 0.0
C1612 C 0.90425 0.31611 0.9819 0.0
C1613 C 0.9176 0.2907 0.96503 0.0
C1614 C 0.88728 0.39741 0.93963 0.0
C1615 C 0.901 0.30525 0.00835 0.0
H1616 H 0.91951 0.43559 0.03531 0.0
H1617 H 0.80785 0.40748 0.02371 0.0
H1618 H 0.95959 0.36972 1.00332 0.0
H1619 H 0.95291 0.40042 0.97848 0.0
H1620 H 0.96571 0.41775 0.00803 0.0
H1621 H 0.789 0.37034 0.99117 0.0
H1622 H 0.81967 0.36287 0.966 0.0
H1623 H 0.8196 0.33216 0.99119 0.0
H1624 H 0.91168 0.34025 0.91299 0.0
H1625 H 0.92556 0.26391 0.97127 0.0
H1626 H 0.90537 0.41784 0.94818 0.0
H1627 H 0.85907 0.40442 0.94492 0.0
H1628 H 0.88981 0.39958 0.91952 0.0
H1629 H 0.91954 0.322 0.01961 0.0
H1630 H 0.90771 0.27615 0.01132 0.0
H1631 H 0.87298 0.3103 0.01497 0.0
C1632 C 0.39468 0.90042 0.55109 0.0
C1633 C 0.41039 0.86585 0.55272 0.0
C1634 C 0.37274 0.90991 0.53113 0.0
C1635 C 0.36515 0.88372 0.51287 0.0
C1636 C 0.38124 0.84883 0.51436 0.0
C1637 C 0.40414 0.84053 0.53406 0.0
C1638 C 0.35692 0.94772 0.5299 0.0
C1639 C 0.37278 0.81964 0.49586 0.0
C1640 C 0.27593 0.89875 0.47968 0.0
C1641 C 0.28762 0.9127 0.4573 0.0
C1642 C 0.30095 0.8877 0.49745 0.0
C1643 C 0.33859 0.89218 0.49314 0.0
C1644 C 0.35052 0.90598 0.47039 0.0
C1645 C 0.32482 0.9155 0.45253 0.0
C1646 C 0.28702 0.87174 0.52099 0.0
C1647 C 0.3903 0.91206 0.46531 0.0
H1648 H 0.39944 0.91998 0.56551 0.0
H1649 H 0.41571 0.81352 0.53551 0.0
H1650 H 0.36217 0.95985 0.51174 0.0
H1651 H 0.32707 0.94646 0.53234 0.0
H1652 H 0.36832 0.96591 0.54411 0.0
H1653 H 0.34368 0.81218 0.49716 0.0
H1654 H 0.37751 0.82978 0.47712 0.0
H1655 H 0.38937 0.79477 0.49867 0.0
H1656 H 0.24707 0.89642 0.48323 0.0
H1657 H 0.33373 0.92671 0.43528 0.0
H1658 H 0.29355 0.89014 0.53638 0.0
H1659 H 0.30054 0.84535 0.52465 0.0
H1660 H 0.25719 0.86738 0.52066 0.0
H1661 H 0.40133 0.93205 0.47851 0.0
H1662 H 0.39518 0.9223 0.44656 0.0
H1663 H 0.40568 0.88642 0.46779 0.0
C1664 C 0.63326 0.4175 0.51446 0.0
C1665 C 0.62965 0.39685 0.53584 0.0
C1666 C 0.62644 0.40216 0.49146 0.0
C1667 C 0.6163 0.36521 0.48981 0.0
C1668 C 0.61239 0.34435 0.51131 0.0
C1669 C 0.61879 0.36048 0.53404 0.0
C1670 C 0.63049 0.4253 0.46895 0.0
C1671 C 0.60204 0.30472 0.51028 0.0
C1672 C 0.56412 0.3229 0.43803 0.0
C1673 C 0.59081 0.30101 0.42711 0.0
C1674 C 0.57263 0.34633 0.45727 0.0
C1675 C 0.60876 0.34801 0.46581 0.0
C1676 C 0.63646 0.32877 0.45329 0.0
C1677 C 0.62711 0.30523 0.43409 0.0
C1678 C 0.54236 0.36702 0.46965 0.0
C1679 C 0.67555 0.33073 0.46132 0.0
H1680 H 0.64171 0.44563 0.51568 0.0
H1681 H 0.61637 0.34416 0.55038 0.0
H1682 H 0.652 0.41386 0.45703 0.0
H1683 H 0.6049 0.42514 0.45832 0.0
H1684 H 0.63756 0.45387 0.47338 0.0
H1685 H 0.60115 0.29202 0.52862 0.0
H1686 H 0.57499 0.30168 0.50165 0.0
H1687 H 0.62186 0.28962 0.49888 0.0
H1688 H 0.53606 0.32039 0.4323 0.0
H1689 H 0.64781 0.28849 0.42566 0.0
H1690 H 0.55068 0.39539 0.4735 0.0
H1691 H 0.536 0.35395 0.48735 0.0
H1692 H 0.51723 0.36751 0.45848 0.0
H1693 H 0.68273 0.35829 0.46786 0.0
H1694 H 0.69426 0.32325 0.44625 0.0
H1695 H 0.67984 0.31156 0.47664 0.0
C1696 C 0.19706 0.55654 0.46968 0.0
C1697 C 0.20946 0.58166 0.45234 0.0
C1698 C 0.17154 0.56638 0.48745 0.0
C1699 C 0.15807 0.60236 0.48812 0.0
C1700 C 0.16923 0.62753 0.47009 0.0
C1701 C 0.19484 0.61689 0.45239 0.0
C1702 C 0.15995 0.53849 0.50605 0.0
C1703 C 0.15532 0.6661 0.47009 0.0
C1704 C 0.07542 0.62035 0.52826 0.0
C1705 C 0.09181 0.63132 0.55012 0.0
C1706 C 0.09653 0.61133 0.50772 0.0
C1707 C 0.13485 0.6141 0.50896 0.0
C1708 C 0.15141 0.62612 0.53079 0.0
C1709 C 0.12977 0.63419 0.55112 0.0
C1710 C 0.07794 0.59819 0.48488 0.0
C1711 C 0.19211 0.63011 0.53276 0.0
H1712 H 0.20769 0.52907 0.46962 0.0
H1713 H 0.20419 0.63651 0.43909 0.0
H1714 H 0.17021 0.54638 0.5243 0.0
H1715 H 0.12992 0.53736 0.50722 0.0
H1716 H 0.17032 0.51089 0.50169 0.0
H1717 H 0.16851 0.68141 0.48508 0.0
H1718 H 0.16112 0.68012 0.45261 0.0
H1719 H 0.12564 0.6669 0.4734 0.0
H1720 H 0.04612 0.6182 0.52732 0.0
H1721 H 0.14267 0.64327 0.56779 0.0
H1722 H 0.08646 0.56989 0.48087 0.0
H1723 H 0.08616 0.61509 0.4691 0.0
H1724 H 0.04789 0.59894 0.4865 0.0
H1725 H 0.20531 0.6032 0.53052 0.0
H1726 H 0.20059 0.64172 0.55055 0.0
H1727 H 0.20235 0.64791 0.51798 0.0
C1728 C 0.86555 0.08868 0.51736 0.0
C1729 C 0.88462 0.09376 0.53925 0.0
C1730 C 0.87472 0.10813 0.49637 0.0
C1731 C 0.90413 0.13265 0.49713 0.0
C1732 C 0.92517 0.13596 0.51861 0.0
C1733 C 0.91491 0.11671 0.53955 0.0
C1734 C 0.8513 0.10434 0.47392 0.0
C1735 C 0.95713 0.16148 0.51991 0.0
C1736 C 0.93844 0.17309 0.43791 0.0
C1737 C 0.921 0.20687 0.43811 0.0
C1738 C 0.93307 0.14829 0.45694 0.0
C1739 C 0.91 0.15794 0.47655 0.0
C1740 C 0.89231 0.19213 0.47668 0.0
C1741 C 0.89837 0.21636 0.4575 0.0
C1742 C 0.95287 0.11237 0.45644 0.0
C1743 C 0.86752 0.20336 0.49731 0.0
H1744 H 0.84197 0.07113 0.51693 0.0
H1745 H 0.92989 0.12054 0.55635 0.0
H1746 H 0.83581 0.12985 0.47102 0.0
H1747 H 0.86837 0.09988 0.45754 0.0
H1748 H 0.83169 0.08157 0.47549 0.0
H1749 H 0.97348 0.15727 0.53666 0.0
H1750 H 0.97496 0.15786 0.50379 0.0
H1751 H 0.94729 0.18998 0.51975 0.0
H1752 H 0.95692 0.16651 0.42315 0.0
H1753 H 0.88653 0.24328 0.45815 0.0
H1754 H 0.93344 0.08966 0.45877 0.0
H1755 H 0.97227 0.11109 0.47187 0.0
H1756 H 0.96811 0.10822 0.43919 0.0
H1757 H 0.85673 0.2313 0.49495 0.0
H1758 H 0.88223 0.20216 0.5149 0.0
H1759 H 0.84432 0.18427 0.49851 0.0
C1760 C 0.92099 0.09702 0.97281 0.0
C1761 C 0.92743 0.13392 0.96839 0.0
C1762 C 0.89787 0.08599 0.99174 0.0
C1763 C 0.87991 0.11255 1.00607 0.0
C1764 C 0.88757 0.14982 1.00236 0.0
C1765 C 0.91162 0.16002 0.98375 0.0
C1766 C 0.89117 0.04596 0.99554 0.0
C1767 C 0.86832 0.17908 0.01673 0.0
C1768 C 0.78786 0.0836 0.03014 0.0
C1769 C 0.79546 0.07661 0.05469 0.0
C1770 C 0.81487 0.09647 0.01437 0.0
C1771 C 0.85065 0.10139 0.02319 0.0
C1772 C 0.85842 0.09461 0.04804 0.0
C1773 C 0.83055 0.08279 0.06361 0.0
C1774 C 0.80512 0.10459 0.98821 0.0
C1775 C 0.89632 0.09903 0.05801 0.0
H1776 H 0.93319 0.0768 0.96097 0.0
H1777 H 0.91605 0.18863 0.98016 0.0
H1778 H 0.8935 0.03898 0.01514 0.0
H1779 H 0.86319 0.03911 0.9897 0.0
H1780 H 0.9105 0.02883 0.98504 0.0
H1781 H 0.881 0.20617 0.01416 0.0
H1782 H 0.83965 0.18075 0.01066 0.0
H1783 H 0.86811 0.17257 0.03645 0.0
H1784 H 0.76056 0.07943 0.02332 0.0
H1785 H 0.83645 0.07735 0.0826 0.0
H1786 H 0.82024 0.08609 0.97587 0.0
H1787 H 0.81312 0.13278 0.98352 0.0
H1788 H 0.77562 0.1014 0.98463 0.0
H1789 H 0.91518 0.08055 0.04822 0.0
H1790 H 0.89781 0.09302 0.07782 0.0
H1791 H 0.90599 0.12716 0.05493 0.0
C1792 C 0.38542 0.9261 0.995 0.0
C1793 C 0.35044 0.92513 0.98508 0.0
C1794 C 0.39444 0.9046 0.01527 0.0
C1795 C 0.36824 0.88061 0.02517 0.0
C1796 C 0.33242 0.88082 0.01587 0.0
C1797 C 0.32387 0.90347 0.99618 0.0
C1798 C 0.43264 0.90595 0.02513 0.0
C1799 C 0.30392 0.85486 0.02514 0.0
C1800 C 0.40733 0.79324 0.05053 0.0
C1801 C 0.40359 0.7984 0.07566 0.0
C1802 C 0.39475 0.81928 0.03398 0.0
C1803 C 0.37958 0.85211 0.04283 0.0
C1804 C 0.37587 0.85756 0.06828 0.0
C1805 C 0.38735 0.83023 0.08446 0.0
C1806 C 0.39759 0.81151 0.00701 0.0
C1807 C 0.36042 0.89243 0.07837 0.0
H1808 H 0.406 0.94279 0.98645 0.0
H1809 H 0.29697 0.90206 0.98828 0.0
H1810 H 0.43228 0.9072 0.04533 0.0
H1811 H 0.44738 0.88085 0.01983 0.0
H1812 H 0.44793 0.92968 0.01806 0.0
H1813 H 0.27626 0.86266 0.01907 0.0
H1814 H 0.30985 0.82724 0.01807 0.0
H1815 H 0.30413 0.85349 0.0453 0.0
H1816 H 0.41956 0.76837 0.04379 0.0
H1817 H 0.38465 0.83415 0.10396 0.0
H1818 H 0.41571 0.83165 0.99823 0.0
H1819 H 0.37049 0.81407 0.99836 0.0
H1820 H 0.40834 0.78386 1.00322 0.0
H1821 H 0.37701 0.91576 0.0721 0.0
H1822 H 0.35966 0.89256 0.09861 0.0
H1823 H 0.33248 0.89669 0.07143 0.0
C1824 C 0.67931 0.44075 0.05405 0.0
C1825 C 0.70084 0.41416 0.06529 0.0
C1826 C 0.65229 0.43127 0.03723 0.0
C1827 C 0.64707 0.3943 0.03106 0.0
C1828 C 0.66748 0.36715 0.04326 0.0
C1829 C 0.694 0.37742 0.06037 0.0
C1830 C 0.63062 0.46105 0.02513 0.0
C1831 C 0.66317 0.32742 0.03716 0.0
C1832 C 0.56585 0.36796 0.99151 0.0
C1833 C 0.58118 0.36919 0.96812 0.0
C1834 C 0.58682 0.37611 0.0123 0.0
C1835 C 0.6241 0.38478 0.00962 0.0
C1836 C 0.63972 0.38546 0.98609 0.0
C1837 C 0.61807 0.37812 0.96572 0.0
C1838 C 0.56921 0.37544 0.03711 0.0
C1839 C 0.67952 0.39369 0.98237 0.0
H1840 H 0.68397 0.46919 0.05813 0.0
H1841 H 0.7105 0.35674 0.06904 0.0
H1842 H 0.6394 0.46386 1.00589 0.0
H1843 H 0.60132 0.45417 0.02503 0.0
H1844 H 0.6342 0.48768 0.03436 0.0
H1845 H 0.67897 0.32121 0.02045 0.0
H1846 H 0.67336 0.30979 0.05207 0.0
H1847 H 0.63442 0.32044 0.03353 0.0
H1848 H 0.53749 0.36082 0.99355 0.0
H1849 H 0.63049 0.37845 0.94782 0.0
H1850 H 0.5721 0.40236 0.046 0.0
H1851 H 0.58311 0.3553 0.0489 0.0
H1852 H 0.53992 0.36848 0.03615 0.0
H1853 H 0.68567 0.42149 0.98897 0.0
H1854 H 0.68778 0.39172 0.96294 0.0
H1855 H 0.69635 0.3745 0.99312 0.0
C1856 C 0.13486 0.69238 0.07041 0.0
C1857 C 0.10113 0.69071 0.08208 0.0
C1858 C 0.14456 0.66658 0.05265 0.0
C1859 C 0.11999 0.63826 0.04676 0.0
C1860 C 0.08746 0.6346 0.06027 0.0
C1861 C 0.07814 0.66121 0.0775 0.0
C1862 C 0.17978 0.67186 0.03908 0.0
C1863 C 0.06132 0.60392 0.05544 0.0
C1864 C 0.11357 0.60949 0.98065 0.0
C1865 C 0.13547 0.5783 0.97994 0.0
C1866 C 0.10872 0.62919 1.00223 0.0
C1867 C 0.12496 0.61668 0.02402 0.0
C1868 C 0.14613 0.5845 0.0237 0.0
C1869 C 0.15175 0.56602 1.00152 0.0
C1870 C 0.08739 0.66428 1.00144 0.0
C1871 C 0.16371 0.57035 0.04661 0.0
H1872 H 0.15263 0.71518 0.07396 0.0
H1873 H 0.05229 0.65951 0.08689 0.0
H1874 H 0.18914 0.64707 0.02948 0.0
H1875 H 0.17616 0.69373 0.02538 0.0
H1876 H 0.20143 0.68051 0.05188 0.0
H1877 H 0.04091 0.60116 0.07022 0.0
H1878 H 0.04672 0.60903 0.0381 0.0
H1879 H 0.07615 0.57782 0.05347 0.0
H1880 H 0.10166 0.61975 0.96396 0.0
H1881 H 0.1691 0.54223 1.00099 0.0
H1882 H 0.10465 0.68707 0.00784 0.0
H1883 H 0.06367 0.66263 0.01383 0.0
H1884 H 0.07747 0.67077 0.98284 0.0
H1885 H 0.18481 0.58973 0.05282 0.0
H1886 H 0.17657 0.54336 0.04381 0.0
H1887 H 0.14328 0.56817 0.0614 0.0
loop_
_geom_bond_atom_site_label_1
_geom_bond_atom_site_label_2
_geom_bond_distance
_geom_bond_site_symmetry_2
_ccdc_geom_bond_type
Sc0 O3 2.025 . S
Sc0 O10 2.105 . S
Sc0 O13 2.105 . S
Sc0 O16 2.105 . S
Sc0 O19 2.105 . S
Sc1 O3 2.025 . S
Sc1 O11 2.105 . S
Sc1 O15 2.105 . S
Sc1 O17 2.105 . S
Sc1 O21 2.105 . S
Sc2 O3 2.025 . S
Sc2 O12 2.105 . S
Sc2 O14 2.105 . S
Sc2 O18 2.105 . S
Sc2 O20 2.105 . S
O3 Sc0 2.025 . S
O3 Sc1 2.025 . S
O3 Sc2 2.025 . S
C4 O10 1.268 . S
C4 O20 1.268 . S
C5 O11 1.268 . S
C5 O19 1.268 . S
C6 O12 1.268 . S
C6 O21 1.268 . S
C7 O13 1.268 . S
C7 O17 1.268 . S
C8 O14 1.268 . S
C8 O16 1.268 . S
C9 O15 1.268 . S
C9 O18 1.268 . S
O10 Sc0 2.105 . S
O10 C4 1.268 . S
O11 Sc1 2.105 . S
O11 C5 1.268 . S
O12 Sc2 2.105 . S
O12 C6 1.268 . S
O13 Sc0 2.105 . S
O13 C7 1.268 . S
O14 Sc2 2.105 . S
O14 C8 1.268 . S
O15 Sc1 2.105 . S
O15 C9 1.268 . S
O16 Sc0 2.105 . S
O16 C8 1.268 . S
O17 Sc1 2.105 . S
O17 C7 1.268 . S
O18 Sc2 2.105 . S
O18 C9 1.268 . S
O19 Sc0 2.105 . S
O19 C5 1.268 . S
O20 Sc2 2.105 . S
O20 C4 1.268 . S
O21 Sc1 2.105 . S
O21 C6 1.268 . S
Sc22 O25 2.025 . S
Sc22 O32 2.105 . S
Sc22 O35 2.105 . S
Sc22 O38 2.105 . S
Sc22 O41 2.105 . S
Sc23 O25 2.025 . S
Sc23 O33 2.105 . S
Sc23 O37 2.105 . S
Sc23 O39 2.105 . S
Sc23 O43 2.105 . S
Sc24 O25 2.025 . S
Sc24 O34 2.105 . S
Sc24 O36 2.105 . S
Sc24 O40 2.105 . S
Sc24 O42 2.105 . S
O25 Sc22 2.025 . S
O25 Sc23 2.025 . S
O25 Sc24 2.025 . S
C26 O32 1.268 . S
C26 O42 1.268 . S
C27 O33 1.268 . S
C27 O41 1.268 . S
C28 O34 1.268 . S
C28 O43 1.268 . S
C29 O35 1.268 . S
C29 O39 1.268 . S
C30 O36 1.268 . S
C30 O38 1.268 . S
C31 O37 1.268 . S
C31 O40 1.268 . S
O32 Sc22 2.105 . S
O32 C26 1.268 . S
O33 Sc23 2.105 . S
O33 C27 1.268 . S
O34 Sc24 2.105 . S
O34 C28 1.268 . S
O35 Sc22 2.105 . S
O35 C29 1.268 . S
O36 Sc24 2.105 . S
O36 C30 1.268 . S
O37 Sc23 2.105 . S
O37 C31 1.268 . S
O38 Sc22 2.105 . S
O38 C30 1.268 . S
O39 Sc23 2.105 . S
O39 C29 1.268 . S
O40 Sc24 2.105 . S
O40 C31 1.268 . S
O41 Sc22 2.105 . S
O41 C27 1.268 . S
O42 Sc24 2.105 . S
O42 C26 1.268 . S
O43 Sc23 2.105 . S
O43 C28 1.268 . S
Sc44 O47 2.025 . S
Sc44 O54 2.105 . S
Sc44 O57 2.105 . S
Sc44 O60 2.105 . S
Sc44 O63 2.105 . S
Sc45 O47 2.025 . S
Sc45 O55 2.105 . S
Sc45 O59 2.105 . S
Sc45 O61 2.105 . S
Sc45 O65 2.105 . S
Sc46 O47 2.025 . S
Sc46 O56 2.105 1_655 S
Sc46 O58 2.105 . S
Sc46 O62 2.105 . S
Sc46 O64 2.095 1_655 S
O47 Sc44 2.025 . S
O47 Sc45 2.025 . S
O47 Sc46 2.025 . S
C48 O54 1.268 . S
C48 O64 1.266 1_655 S
C49 O55 1.268 . S
C49 O63 1.268 . S
C50 O56 1.265 1_655 S
C50 O65 1.295 . S
C51 O57 1.268 . S
C51 O61 1.268 . S
C52 O58 1.268 . S
C52 O60 1.268 . S
C53 O59 1.268 . S
C53 O62 1.268 . S
O54 Sc44 2.105 . S
O54 C48 1.268 . S
O55 Sc45 2.105 . S
O55 C49 1.268 . S
O56 Sc46 2.105 1_455 S
O56 C50 1.265 1_455 S
O57 Sc44 2.105 . S
O57 C51 1.268 . S
O58 Sc46 2.105 . S
O58 C52 1.268 . S
O59 Sc45 2.105 . S
O59 C53 1.268 . S
O60 Sc44 2.105 . S
O60 C52 1.268 . S
O61 Sc45 2.105 . S
O61 C51 1.268 . S
O62 Sc46 2.105 . S
O62 C53 1.268 . S
O63 Sc44 2.105 . S
O63 C49 1.268 . S
O64 Sc46 2.095 1_455 S
O64 C48 1.266 1_455 S
O65 Sc45 2.105 . S
O65 C50 1.295 . S
Sc66 O69 2.025 . S
Sc66 O76 2.105 . S
Sc66 O79 2.105 1_565 S
Sc66 O82 2.095 1_565 S
Sc66 O85 2.105 . S
Sc67 O69 2.025 . S
Sc67 O77 2.105 . S
Sc67 O81 2.105 . S
Sc67 O83 2.105 . S
Sc67 O87 2.105 . S
Sc68 O69 2.025 . S
Sc68 O78 2.105 . S
Sc68 O80 2.105 . S
Sc68 O84 2.105 . S
Sc68 O86 2.105 . S
O69 Sc66 2.025 . S
O69 Sc67 2.025 . S
O69 Sc68 2.025 . S
C70 O76 1.268 . S
C70 O86 1.268 . S
C71 O77 1.268 . S
C71 O85 1.268 . S
C72 O78 1.268 . S
C72 O87 1.268 . S
C73 O79 1.265 1_565 S
C73 O83 1.295 . S
C74 O80 1.268 . S
C74 O82 1.266 1_565 S
C75 O81 1.268 . S
C75 O84 1.268 . S
O76 Sc66 2.105 . S
O76 C70 1.268 . S
O77 Sc67 2.105 . S
O77 C71 1.268 . S
O78 Sc68 2.105 . S
O78 C72 1.268 . S
O79 Sc66 2.105 1_545 S
O79 C73 1.265 1_545 S
O80 Sc68 2.105 . S
O80 C74 1.268 . S
O81 Sc67 2.105 . S
O81 C75 1.268 . S
O82 Sc66 2.095 1_545 S
O82 C74 1.266 1_545 S
O83 Sc67 2.105 . S
O83 C73 1.295 . S
O84 Sc68 2.105 . S
O84 C75 1.268 . S
O85 Sc66 2.105 . S
O85 C71 1.268 . S
O86 Sc68 2.105 . S
O86 C70 1.268 . S
O87 Sc67 2.105 . S
O87 C72 1.268 . S
Sc88 O91 2.025 . S
Sc88 O98 2.105 . S
Sc88 O101 2.105 . S
Sc88 O104 2.105 . S
Sc88 O107 2.105 . S
Sc89 O91 2.025 . S
Sc89 O99 2.105 . S
Sc89 O103 2.105 . S
Sc89 O105 2.105 . S
Sc89 O109 2.105 . S
Sc90 O91 2.025 . S
Sc90 O100 2.105 1_455 S
Sc90 O102 2.105 . S
Sc90 O106 2.105 . S
Sc90 O108 2.095 1_455 S
O91 Sc88 2.025 . S
O91 Sc89 2.025 . S
O91 Sc90 2.025 . S
C92 O98 1.268 . S
C92 O108 1.266 1_455 S
C93 O99 1.268 . S
C93 O107 1.268 . S
C94 O100 1.265 1_455 S
C94 O109 1.295 . S
C95 O101 1.268 . S
C95 O105 1.268 . S
C96 O102 1.268 . S
C96 O104 1.268 . S
C97 O103 1.268 . S
C97 O106 1.268 . S
O98 Sc88 2.105 . S
O98 C92 1.268 . S
O99 Sc89 2.105 . S
O99 C93 1.268 . S
O100 Sc90 2.105 1_655 S
O100 C94 1.265 1_655 S
O101 Sc88 2.105 . S
O101 C95 1.268 . S
O102 Sc90 2.105 . S
O102 C96 1.268 . S
O103 Sc89 2.105 . S
O103 C97 1.268 . S
O104 Sc88 2.105 . S
O104 C96 1.268 . S
O105 Sc89 2.105 . S
O105 C95 1.268 . S
O106 Sc90 2.105 . S
O106 C97 1.268 . S
O107 Sc88 2.105 . S
O107 C93 1.268 . S
O108 Sc90 2.095 1_655 S
O108 C92 1.266 1_655 S
O109 Sc89 2.105 . S
O109 C94 1.295 . S
Sc110 O113 2.025 . S
Sc110 O120 2.105 . S
Sc110 O123 2.105 1_545 S
Sc110 O126 2.095 1_545 S
Sc110 O129 2.105 . S
Sc111 O113 2.025 . S
Sc111 O121 2.105 . S
Sc111 O125 2.105 . S
Sc111 O127 2.105 . S
Sc111 O131 2.105 . S
Sc112 O113 2.025 . S
Sc112 O122 2.105 . S
Sc112 O124 2.105 . S
Sc112 O128 2.105 . S
Sc112 O130 2.105 . S
O113 Sc110 2.025 . S
O113 Sc111 2.025 . S
O113 Sc112 2.025 . S
C114 O120 1.268 . S
C114 O130 1.268 . S
C115 O121 1.268 . S
C115 O129 1.268 . S
C116 O122 1.268 . S
C116 O131 1.268 . S
C117 O123 1.265 1_545 S
C117 O127 1.295 . S
C118 O124 1.268 . S
C118 O126 1.266 1_545 S
C119 O125 1.268 . S
C119 O128 1.268 . S
O120 Sc110 2.105 . S
O120 C114 1.268 . S
O121 Sc111 2.105 . S
O121 C115 1.268 . S
O122 Sc112 2.105 . S
O122 C116 1.268 . S
O123 Sc110 2.105 1_565 S
O123 C117 1.265 1_565 S
O124 Sc112 2.105 . S
O124 C118 1.268 . S
O125 Sc111 2.105 . S
O125 C119 1.268 . S
O126 Sc110 2.095 1_565 S
O126 C118 1.266 1_565 S
O127 Sc111 2.105 . S
O127 C117 1.295 . S
O128 Sc112 2.105 . S
O128 C119 1.268 . S
O129 Sc110 2.105 . S
O129 C115 1.268 . S
O130 Sc112 2.105 . S
O130 C114 1.268 . S
O131 Sc111 2.105 . S
O131 C116 1.268 . S
Sc132 O135 2.025 . S
Sc132 O142 2.105 . S
Sc132 O145 2.105 . S
Sc132 O148 2.105 . S
Sc132 O151 2.105 . S
Sc133 O135 2.025 . S
Sc133 O143 2.105 . S
Sc133 O147 2.105 . S
Sc133 O149 2.105 . S
Sc133 O153 2.105 . S
Sc134 O135 2.025 . S
Sc134 O144 2.105 . S
Sc134 O146 2.105 . S
Sc134 O150 2.105 . S
Sc134 O152 2.105 . S
O135 Sc132 2.025 . S
O135 Sc133 2.025 . S
O135 Sc134 2.025 . S
C136 O142 1.268 . S
C136 O152 1.268 . S
C137 O143 1.268 . S
C137 O151 1.268 . S
C138 O144 1.268 . S
C138 O153 1.268 . S
C139 O145 1.268 . S
C139 O149 1.268 . S
C140 O146 1.268 . S
C140 O148 1.268 . S
C141 O147 1.268 . S
C141 O150 1.268 . S
O142 Sc132 2.105 . S
O142 C136 1.268 . S
O143 Sc133 2.105 . S
O143 C137 1.268 . S
O144 Sc134 2.105 . S
O144 C138 1.268 . S
O145 Sc132 2.105 . S
O145 C139 1.268 . S
O146 Sc134 2.105 . S
O146 C140 1.268 . S
O147 Sc133 2.105 . S
O147 C141 1.268 . S
O148 Sc132 2.105 . S
O148 C140 1.268 . S
O149 Sc133 2.105 . S
O149 C139 1.268 . S
O150 Sc134 2.105 . S
O150 C141 1.268 . S
O151 Sc132 2.105 . S
O151 C137 1.268 . S
O152 Sc134 2.105 . S
O152 C136 1.268 . S
O153 Sc133 2.105 . S
O153 C138 1.268 . S
Sc154 O157 2.025 . S
Sc154 O164 2.105 . S
Sc154 O167 2.105 . S
Sc154 O170 2.105 . S
Sc154 O173 2.105 . S
Sc155 O157 2.025 . S
Sc155 O165 2.105 . S
Sc155 O169 2.105 . S
Sc155 O171 2.105 . S
Sc155 O175 2.105 . S
Sc156 O157 2.025 . S
Sc156 O166 2.105 . S
Sc156 O168 2.105 . S
Sc156 O172 2.105 . S
Sc156 O174 2.105 . S
O157 Sc154 2.025 . S
O157 Sc155 2.025 . S
O157 Sc156 2.025 . S
C158 O164 1.268 . S
C158 O174 1.268 . S
C159 O165 1.268 . S
C159 O173 1.268 . S
C160 O166 1.268 . S
C160 O175 1.268 . S
C161 O167 1.268 . S
C161 O171 1.268 . S
C162 O168 1.268 . S
C162 O170 1.268 . S
C163 O169 1.268 . S
C163 O172 1.268 . S
O164 Sc154 2.105 . S
O164 C158 1.268 . S
O165 Sc155 2.105 . S
O165 C159 1.268 . S
O166 Sc156 2.105 . S
O166 C160 1.268 . S
O167 Sc154 2.105 . S
O167 C161 1.268 . S
O168 Sc156 2.105 . S
O168 C162 1.268 . S
O169 Sc155 2.105 . S
O169 C163 1.268 . S
O170 Sc154 2.105 . S
O170 C162 1.268 . S
O171 Sc155 2.105 . S
O171 C161 1.268 . S
O172 Sc156 2.105 . S
O172 C163 1.268 . S
O173 Sc154 2.105 . S
O173 C159 1.268 . S
O174 Sc156 2.105 . S
O174 C158 1.268 . S
O175 Sc155 2.105 . S
O175 C160 1.268 . S
Sc176 O179 2.025 . S
Sc176 O186 2.105 . S
Sc176 O189 2.105 . S
Sc176 O192 2.105 . S
Sc176 O195 2.105 . S
Sc177 O179 2.025 . S
Sc177 O187 2.105 . S
Sc177 O191 2.105 . S
Sc177 O193 2.105 . S
Sc177 O197 2.105 . S
Sc178 O179 2.025 . S
Sc178 O188 2.105 . S
Sc178 O190 2.105 . S
Sc178 O194 2.105 . S
Sc178 O196 2.105 . S
O179 Sc176 2.025 . S
O179 Sc177 2.025 . S
O179 Sc178 2.025 . S
C180 O186 1.268 . S
C180 O196 1.268 . S
C181 O187 1.268 . S
C181 O195 1.268 . S
C182 O188 1.268 . S
C182 O197 1.268 . S
C183 O189 1.268 . S
C183 O193 1.268 . S
C184 O190 1.268 . S
C184 O192 1.268 . S
C185 O191 1.268 . S
C185 O194 1.268 . S
O186 Sc176 2.105 . S
O186 C180 1.268 . S
O187 Sc177 2.105 . S
O187 C181 1.268 . S
O188 Sc178 2.105 . S
O188 C182 1.268 . S
O189 Sc176 2.105 . S
O189 C183 1.268 . S
O190 Sc178 2.105 . S
O190 C184 1.268 . S
O191 Sc177 2.105 . S
O191 C185 1.268 . S
O192 Sc176 2.105 . S
O192 C184 1.268 . S
O193 Sc177 2.105 . S
O193 C183 1.268 . S
O194 Sc178 2.105 . S
O194 C185 1.268 . S
O195 Sc176 2.105 . S
O195 C181 1.268 . S
O196 Sc178 2.105 . S
O196 C180 1.268 . S
O197 Sc177 2.105 . S
O197 C182 1.268 . S
Sc198 O201 2.025 . S
Sc198 O208 2.105 . S
Sc198 O211 2.105 . S
Sc198 O214 2.105 . S
Sc198 O217 2.105 . S
Sc199 O201 2.025 . S
Sc199 O209 2.105 . S
Sc199 O213 2.105 . S
Sc199 O215 2.105 . S
Sc199 O219 2.105 . S
Sc200 O201 2.025 . S
Sc200 O210 2.105 . S
Sc200 O212 2.105 . S
Sc200 O216 2.105 . S
Sc200 O218 2.105 . S
O201 Sc198 2.025 . S
O201 Sc199 2.025 . S
O201 Sc200 2.025 . S
C202 O208 1.268 . S
C202 O218 1.268 . S
C203 O209 1.268 . S
C203 O217 1.268 . S
C204 O210 1.268 . S
C204 O219 1.268 . S
C205 O211 1.268 . S
C205 O215 1.268 . S
C206 O212 1.268 . S
C206 O214 1.268 . S
C207 O213 1.268 . S
C207 O216 1.268 . S
O208 Sc198 2.105 . S
O208 C202 1.268 . S
O209 Sc199 2.105 . S
O209 C203 1.268 . S
O210 Sc200 2.105 . S
O210 C204 1.268 . S
O211 Sc198 2.105 . S
O211 C205 1.268 . S
O212 Sc200 2.105 . S
O212 C206 1.268 . S
O213 Sc199 2.105 . S
O213 C207 1.268 . S
O214 Sc198 2.105 . S
O214 C206 1.268 . S
O215 Sc199 2.105 . S
O215 C205 1.268 . S
O216 Sc200 2.105 . S
O216 C207 1.268 . S
O217 Sc198 2.105 . S
O217 C203 1.268 . S
O218 Sc200 2.105 . S
O218 C202 1.268 . S
O219 Sc199 2.105 . S
O219 C204 1.268 . S
Sc220 O223 2.025 . S
Sc220 O230 2.105 . S
Sc220 O233 2.105 . S
Sc220 O236 2.105 . S
Sc220 O239 2.105 . S
Sc221 O223 2.025 . S
Sc221 O231 2.105 . S
Sc221 O235 2.105 . S
Sc221 O237 2.105 . S
Sc221 O241 2.105 . S
Sc222 O223 2.025 . S
Sc222 O232 2.105 . S
Sc222 O234 2.095 1_455 S
Sc222 O238 2.105 1_455 S
Sc222 O240 2.105 . S
O223 Sc220 2.025 . S
O223 Sc221 2.025 . S
O223 Sc222 2.025 . S
C224 O230 1.268 . S
C224 O240 1.268 . S
C225 O231 1.268 . S
C225 O239 1.268 . S
C226 O232 1.268 . S
C226 O241 1.268 . S
C227 O233 1.268 . S
C227 O237 1.268 . S
C228 O234 1.266 1_455 S
C228 O236 1.268 . S
C229 O235 1.295 . S
C229 O238 1.265 1_455 S
O230 Sc220 2.105 . S
O230 C224 1.268 . S
O231 Sc221 2.105 . S
O231 C225 1.268 . S
O232 Sc222 2.105 . S
O232 C226 1.268 . S
O233 Sc220 2.105 . S
O233 C227 1.268 . S
O234 Sc222 2.095 1_655 S
O234 C228 1.266 1_655 S
O235 Sc221 2.105 . S
O235 C229 1.295 . S
O236 Sc220 2.105 . S
O236 C228 1.268 . S
O237 Sc221 2.105 . S
O237 C227 1.268 . S
O238 Sc222 2.105 1_655 S
O238 C229 1.265 1_655 S
O239 Sc220 2.105 . S
O239 C225 1.268 . S
O240 Sc222 2.105 . S
O240 C224 1.268 . S
O241 Sc221 2.105 . S
O241 C226 1.268 . S
Sc242 O245 2.025 . S
Sc242 O252 2.105 . S
Sc242 O255 2.105 . S
Sc242 O258 2.105 . S
Sc242 O261 2.105 . S
Sc243 O245 2.025 . S
Sc243 O253 2.105 . S
Sc243 O257 2.105 . S
Sc243 O259 2.105 . S
Sc243 O263 2.105 . S
Sc244 O245 2.025 . S
Sc244 O254 2.105 . S
Sc244 O256 2.095 1_545 S
Sc244 O260 2.105 1_545 S
Sc244 O262 2.105 . S
O245 Sc242 2.025 . S
O245 Sc243 2.025 . S
O245 Sc244 2.025 . S
C246 O252 1.268 . S
C246 O262 1.268 . S
C247 O253 1.268 . S
C247 O261 1.268 . S
C248 O254 1.268 . S
C248 O263 1.268 . S
C249 O255 1.268 . S
C249 O259 1.268 . S
C250 O256 1.266 1_545 S
C250 O258 1.268 . S
C251 O257 1.295 . S
C251 O260 1.265 1_545 S
O252 Sc242 2.105 . S
O252 C246 1.268 . S
O253 Sc243 2.105 . S
O253 C247 1.268 . S
O254 Sc244 2.105 . S
O254 C248 1.268 . S
O255 Sc242 2.105 . S
O255 C249 1.268 . S
O256 Sc244 2.095 1_565 S
O256 C250 1.266 1_565 S
O257 Sc243 2.105 . S
O257 C251 1.295 . S
O258 Sc242 2.105 . S
O258 C250 1.268 . S
O259 Sc243 2.105 . S
O259 C249 1.268 . S
O260 Sc244 2.105 1_565 S
O260 C251 1.265 1_565 S
O261 Sc242 2.105 . S
O261 C247 1.268 . S
O262 Sc244 2.105 . S
O262 C246 1.268 . S
O263 Sc243 2.105 . S
O263 C248 1.268 . S
Sc264 O267 2.025 . S
Sc264 O274 2.105 . S
Sc264 O277 2.105 . S
Sc264 O280 2.105 . S
Sc264 O283 2.105 . S
Sc265 O267 2.025 . S
Sc265 O275 2.105 . S
Sc265 O279 2.105 . S
Sc265 O281 2.105 . S
Sc265 O285 2.105 . S
Sc266 O267 2.025 . S
Sc266 O276 2.105 . S
Sc266 O278 2.095 1_655 S
Sc266 O282 2.105 1_655 S
Sc266 O284 2.105 . S
O267 Sc264 2.025 . S
O267 Sc265 2.025 . S
O267 Sc266 2.025 . S
C268 O274 1.268 . S
C268 O284 1.268 . S
C269 O275 1.268 . S
C269 O283 1.268 . S
C270 O276 1.268 . S
C270 O285 1.268 . S
C271 O277 1.268 . S
C271 O281 1.268 . S
C272 O278 1.266 1_655 S
C272 O280 1.268 . S
C273 O279 1.295 . S
C273 O282 1.265 1_655 S
O274 Sc264 2.105 . S
O274 C268 1.268 . S
O275 Sc265 2.105 . S
O275 C269 1.268 . S
O276 Sc266 2.105 . S
O276 C270 1.268 . S
O277 Sc264 2.105 . S
O277 C271 1.268 . S
O278 Sc266 2.095 1_455 S
O278 C272 1.266 1_455 S
O279 Sc265 2.105 . S
O279 C273 1.295 . S
O280 Sc264 2.105 . S
O280 C272 1.268 . S
O281 Sc265 2.105 . S
O281 C271 1.268 . S
O282 Sc266 2.105 1_455 S
O282 C273 1.265 1_455 S
O283 Sc264 2.105 . S
O283 C269 1.268 . S
O284 Sc266 2.105 . S
O284 C268 1.268 . S
O285 Sc265 2.105 . S
O285 C270 1.268 . S
Sc286 O289 2.025 . S
Sc286 O296 2.105 . S
Sc286 O299 2.105 . S
Sc286 O302 2.105 . S
Sc286 O305 2.105 . S
Sc287 O289 2.025 . S
Sc287 O297 2.105 . S
Sc287 O301 2.105 . S
Sc287 O303 2.105 . S
Sc287 O307 2.105 . S
Sc288 O289 2.025 . S
Sc288 O298 2.105 . S
Sc288 O300 2.095 1_565 S
Sc288 O304 2.105 1_565 S
Sc288 O306 2.105 . S
O289 Sc286 2.025 . S
O289 Sc287 2.025 . S
O289 Sc288 2.025 . S
C290 O296 1.268 . S
C290 O306 1.268 . S
C291 O297 1.268 . S
C291 O305 1.268 . S
C292 O298 1.268 . S
C292 O307 1.268 . S
C293 O299 1.268 . S
C293 O303 1.268 . S
C294 O300 1.266 1_565 S
C294 O302 1.268 . S
C295 O301 1.295 . S
C295 O304 1.265 1_565 S
O296 Sc286 2.105 . S
O296 C290 1.268 . S
O297 Sc287 2.105 . S
O297 C291 1.268 . S
O298 Sc288 2.105 . S
O298 C292 1.268 . S
O299 Sc286 2.105 . S
O299 C293 1.268 . S
O300 Sc288 2.095 1_545 S
O300 C294 1.266 1_545 S
O301 Sc287 2.105 . S
O301 C295 1.295 . S
O302 Sc286 2.105 . S
O302 C294 1.268 . S
O303 Sc287 2.105 . S
O303 C293 1.268 . S
O304 Sc288 2.105 1_545 S
O304 C295 1.265 1_545 S
O305 Sc286 2.105 . S
O305 C291 1.268 . S
O306 Sc288 2.105 . S
O306 C290 1.268 . S
O307 Sc287 2.105 . S
O307 C292 1.268 . S
Sc308 O311 2.025 . S
Sc308 O318 2.105 . S
Sc308 O321 2.105 . S
Sc308 O324 2.105 . S
Sc308 O327 2.105 . S
Sc309 O311 2.025 . S
Sc309 O319 2.105 . S
Sc309 O323 2.105 . S
Sc309 O325 2.105 . S
Sc309 O329 2.105 . S
Sc310 O311 2.025 . S
Sc310 O320 2.105 . S
Sc310 O322 2.105 . S
Sc310 O326 2.105 . S
Sc310 O328 2.105 . S
O311 Sc308 2.025 . S
O311 Sc309 2.025 . S
O311 Sc310 2.025 . S
C312 O318 1.268 . S
C312 O328 1.268 . S
C313 O319 1.268 . S
C313 O327 1.268 . S
C314 O320 1.268 . S
C314 O329 1.268 . S
C315 O321 1.268 . S
C315 O325 1.268 . S
C316 O322 1.268 . S
C316 O324 1.268 . S
C317 O323 1.268 . S
C317 O326 1.268 . S
O318 Sc308 2.105 . S
O318 C312 1.268 . S
O319 Sc309 2.105 . S
O319 C313 1.268 . S
O320 Sc310 2.105 . S
O320 C314 1.268 . S
O321 Sc308 2.105 . S
O321 C315 1.268 . S
O322 Sc310 2.105 . S
O322 C316 1.268 . S
O323 Sc309 2.105 . S
O323 C317 1.268 . S
O324 Sc308 2.105 . S
O324 C316 1.268 . S
O325 Sc309 2.105 . S
O325 C315 1.268 . S
O326 Sc310 2.105 . S
O326 C317 1.268 . S
O327 Sc308 2.105 . S
O327 C313 1.268 . S
O328 Sc310 2.105 . S
O328 C312 1.268 . S
O329 Sc309 2.105 . S
O329 C314 1.268 . S
Sc330 O333 2.025 . S
Sc330 O340 2.105 . S
Sc330 O343 2.105 . S
Sc330 O346 2.105 . S
Sc330 O349 2.105 . S
Sc331 O333 2.025 . S
Sc331 O341 2.105 . S
Sc331 O345 2.105 . S
Sc331 O347 2.105 . S
Sc331 O351 2.105 . S
Sc332 O333 2.025 . S
Sc332 O342 2.105 . S
Sc332 O344 2.105 . S
Sc332 O348 2.105 . S
Sc332 O350 2.105 . S
O333 Sc330 2.025 . S
O333 Sc331 2.025 . S
O333 Sc332 2.025 . S
C334 O340 1.268 . S
C334 O350 1.268 . S
C335 O341 1.268 . S
C335 O349 1.268 . S
C336 O342 1.268 . S
C336 O351 1.268 . S
C337 O343 1.268 . S
C337 O347 1.268 . S
C338 O344 1.268 . S
C338 O346 1.268 . S
C339 O345 1.268 . S
C339 O348 1.268 . S
O340 Sc330 2.105 . S
O340 C334 1.268 . S
O341 Sc331 2.105 . S
O341 C335 1.268 . S
O342 Sc332 2.105 . S
O342 C336 1.268 . S
O343 Sc330 2.105 . S
O343 C337 1.268 . S
O344 Sc332 2.105 . S
O344 C338 1.268 . S
O345 Sc331 2.105 . S
O345 C339 1.268 . S
O346 Sc330 2.105 . S
O346 C338 1.268 . S
O347 Sc331 2.105 . S
O347 C337 1.268 . S
O348 Sc332 2.105 . S
O348 C339 1.268 . S
O349 Sc330 2.105 . S
O349 C335 1.268 . S
O350 Sc332 2.105 . S
O350 C334 1.268 . S
O351 Sc331 2.105 . S
O351 C336 1.268 . S
C352 C353 1.391 . S
C352 C354 1.394 . S
C352 H368 0.931 . S
C353 C352 1.391 . S
C353 C357 1.376 . S
C354 C352 1.394 . S
C354 C355 1.369 . S
C354 C358 1.531 . S
C355 C354 1.369 . S
C355 C356 1.410 . S
C355 C363 1.503 . S
C356 C355 1.410 . S
C356 C357 1.392 . S
C356 C359 1.511 . S
C357 C353 1.376 . S
C357 C356 1.392 . S
C357 H369 0.929 . S
C358 C354 1.531 . S
C358 H370 0.960 . S
C358 H371 0.962 . S
C358 H372 0.960 . S
C359 C356 1.511 . S
C359 H373 0.961 . S
C359 H374 0.961 . S
C359 H375 0.961 . S
C360 C361 1.370 . S
C360 C362 1.363 . S
C360 H376 0.931 . S
C361 C360 1.370 . S
C361 C365 1.408 . S
C362 C360 1.363 . S
C362 C363 1.370 . S
C362 C366 1.524 . S
C363 C355 1.503 . S
C363 C362 1.370 . S
C363 C364 1.403 . S
C364 C363 1.403 . S
C364 C365 1.404 . S
C364 C367 1.539 . S
C365 C361 1.408 . S
C365 C364 1.404 . S
C365 H377 0.930 . S
C366 C362 1.524 . S
C366 H378 0.956 . S
C366 H379 0.961 . S
C366 H380 0.961 . S
C367 C364 1.539 . S
C367 H381 0.958 . S
C367 H382 0.961 . S
C367 H383 0.960 . S
H368 C352 0.931 . S
H369 C357 0.929 . S
H370 C358 0.960 . S
H371 C358 0.962 . S
H372 C358 0.960 . S
H373 C359 0.961 . S
H374 C359 0.961 . S
H375 C359 0.961 . S
H376 C360 0.931 . S
H377 C365 0.930 . S
H378 C366 0.956 . S
H379 C366 0.961 . S
H380 C366 0.961 . S
H381 C367 0.958 . S
H382 C367 0.961 . S
H383 C367 0.960 . S
C384 C385 1.391 . S
C384 C386 1.394 . S
C384 H400 0.931 . S
C385 C384 1.391 . S
C385 C389 1.376 . S
C386 C384 1.394 . S
C386 C387 1.369 . S
C386 C390 1.531 . S
C387 C386 1.369 . S
C387 C388 1.410 . S
C387 C395 1.503 . S
C388 C387 1.410 . S
C388 C389 1.392 . S
C388 C391 1.511 . S
C389 C385 1.376 . S
C389 C388 1.392 . S
C389 H401 0.929 . S
C390 C386 1.531 . S
C390 H402 0.960 . S
C390 H403 0.962 . S
C390 H404 0.960 . S
C391 C388 1.511 . S
C391 H405 0.961 . S
C391 H406 0.961 . S
C391 H407 0.961 . S
C392 C393 1.370 . S
C392 C394 1.363 . S
C392 H408 0.931 . S
C393 C392 1.370 . S
C393 C397 1.408 . S
C394 C392 1.363 . S
C394 C395 1.370 . S
C394 C398 1.524 . S
C395 C387 1.503 . S
C395 C394 1.370 . S
C395 C396 1.403 . S
C396 C395 1.403 . S
C396 C397 1.404 . S
C396 C399 1.539 . S
C397 C393 1.408 . S
C397 C396 1.404 . S
C397 H409 0.930 . S
C398 C394 1.524 . S
C398 H410 0.956 . S
C398 H411 0.961 . S
C398 H412 0.961 . S
C399 C396 1.539 . S
C399 H413 0.958 . S
C399 H414 0.961 . S
C399 H415 0.960 . S
H400 C384 0.931 . S
H401 C389 0.929 . S
H402 C390 0.960 . S
H403 C390 0.962 . S
H404 C390 0.960 . S
H405 C391 0.961 . S
H406 C391 0.961 . S
H407 C391 0.961 . S
H408 C392 0.931 . S
H409 C397 0.930 . S
H410 C398 0.956 . S
H411 C398 0.961 . S
H412 C398 0.961 . S
H413 C399 0.958 . S
H414 C399 0.961 . S
H415 C399 0.960 . S
C416 C417 1.391 . S
C416 C418 1.394 . S
C416 H432 0.931 . S
C417 C416 1.391 . S
C417 C421 1.376 . S
C418 C416 1.394 . S
C418 C419 1.369 . S
C418 C422 1.531 . S
C419 C418 1.369 . S
C419 C420 1.410 . S
C419 C427 1.503 . S
C420 C419 1.410 . S
C420 C421 1.392 . S
C420 C423 1.511 . S
C421 C417 1.376 . S
C421 C420 1.392 . S
C421 H433 0.929 . S
C422 C418 1.531 . S
C422 H434 0.960 . S
C422 H435 0.962 . S
C422 H436 0.960 . S
C423 C420 1.511 . S
C423 H437 0.961 . S
C423 H438 0.961 . S
C423 H439 0.961 . S
C424 C425 1.370 . S
C424 C426 1.363 . S
C424 H440 0.931 . S
C425 C424 1.370 . S
C425 C429 1.408 . S
C426 C424 1.363 . S
C426 C427 1.370 . S
C426 C430 1.524 . S
C427 C419 1.503 . S
C427 C426 1.370 . S
C427 C428 1.403 . S
C428 C427 1.403 . S
C428 C429 1.404 . S
C428 C431 1.539 . S
C429 C425 1.408 . S
C429 C428 1.404 . S
C429 H441 0.930 . S
C430 C426 1.524 . S
C430 H442 0.956 . S
C430 H443 0.961 . S
C430 H444 0.961 . S
C431 C428 1.539 . S
C431 H445 0.958 . S
C431 H446 0.961 . S
C431 H447 0.960 . S
H432 C416 0.931 . S
H433 C421 0.929 . S
H434 C422 0.960 . S
H435 C422 0.962 . S
H436 C422 0.960 . S
H437 C423 0.961 . S
H438 C423 0.961 . S
H439 C423 0.961 . S
H440 C424 0.931 . S
H441 C429 0.930 . S
H442 C430 0.956 . S
H443 C430 0.961 . S
H444 C430 0.961 . S
H445 C431 0.958 . S
H446 C431 0.961 . S
H447 C431 0.960 . S
C448 C449 1.391 . S
C448 C450 1.394 . S
C448 H464 0.931 . S
C449 C448 1.391 . S
C449 C453 1.376 . S
C450 C448 1.394 . S
C450 C451 1.369 . S
C450 C454 1.531 . S
C451 C450 1.369 . S
C451 C452 1.410 . S
C451 C459 1.503 . S
C452 C451 1.410 . S
C452 C453 1.392 . S
C452 C455 1.511 . S
C453 C449 1.376 . S
C453 C452 1.392 . S
C453 H465 0.929 . S
C454 C450 1.531 . S
C454 H466 0.960 . S
C454 H467 0.962 . S
C454 H468 0.960 . S
C455 C452 1.511 . S
C455 H469 0.961 . S
C455 H470 0.961 . S
C455 H471 0.961 . S
C456 C457 1.370 . S
C456 C458 1.363 . S
C456 H472 0.931 . S
C457 C456 1.370 . S
C457 C461 1.408 . S
C458 C456 1.363 . S
C458 C459 1.370 . S
C458 C462 1.524 . S
C459 C451 1.503 . S
C459 C458 1.370 . S
C459 C460 1.403 . S
C460 C459 1.403 . S
C460 C461 1.404 . S
C460 C463 1.539 . S
C461 C457 1.408 . S
C461 C460 1.404 . S
C461 H473 0.930 . S
C462 C458 1.524 . S
C462 H474 0.956 . S
C462 H475 0.961 . S
C462 H476 0.961 . S
C463 C460 1.539 . S
C463 H477 0.958 . S
C463 H478 0.961 . S
C463 H479 0.960 . S
H464 C448 0.931 . S
H465 C453 0.929 . S
H466 C454 0.960 . S
H467 C454 0.962 . S
H468 C454 0.960 . S
H469 C455 0.961 . S
H470 C455 0.961 . S
H471 C455 0.961 . S
H472 C456 0.931 . S
H473 C461 0.930 . S
H474 C462 0.956 . S
H475 C462 0.961 . S
H476 C462 0.961 . S
H477 C463 0.958 . S
H478 C463 0.961 . S
H479 C463 0.960 . S
C480 C481 1.391 . S
C480 C482 1.394 . S
C480 H496 0.931 . S
C481 C480 1.391 . S
C481 C485 1.376 . S
C482 C480 1.394 . S
C482 C483 1.369 . S
C482 C486 1.531 . S
C483 C482 1.369 . S
C483 C484 1.410 . S
C483 C491 1.503 . S
C484 C483 1.410 . S
C484 C485 1.392 . S
C484 C487 1.511 . S
C485 C481 1.376 . S
C485 C484 1.392 . S
C485 H497 0.929 . S
C486 C482 1.531 . S
C486 H498 0.960 . S
C486 H499 0.962 . S
C486 H500 0.960 . S
C487 C484 1.511 . S
C487 H501 0.961 . S
C487 H502 0.961 . S
C487 H503 0.961 . S
C488 C489 1.370 . S
C488 C490 1.363 . S
C488 H504 0.931 . S
C489 C488 1.370 . S
C489 C493 1.408 . S
C490 C488 1.363 . S
C490 C491 1.370 . S
C490 C494 1.524 . S
C491 C483 1.503 . S
C491 C490 1.370 . S
C491 C492 1.403 . S
C492 C491 1.403 . S
C492 C493 1.404 . S
C492 C495 1.539 . S
C493 C489 1.408 . S
C493 C492 1.404 . S
C493 H505 0.930 . S
C494 C490 1.524 . S
C494 H506 0.956 . S
C494 H507 0.961 . S
C494 H508 0.961 . S
C495 C492 1.539 . S
C495 H509 0.958 . S
C495 H510 0.961 . S
C495 H511 0.960 . S
H496 C480 0.931 . S
H497 C485 0.929 . S
H498 C486 0.960 . S
H499 C486 0.962 . S
H500 C486 0.960 . S
H501 C487 0.961 . S
H502 C487 0.961 . S
H503 C487 0.961 . S
H504 C488 0.931 . S
H505 C493 0.930 . S
H506 C494 0.956 . S
H507 C494 0.961 . S
H508 C494 0.961 . S
H509 C495 0.958 . S
H510 C495 0.961 . S
H511 C495 0.960 . S
C512 C513 1.391 . S
C512 C514 1.394 . S
C512 H528 0.931 . S
C513 C512 1.391 . S
C513 C517 1.376 . S
C514 C512 1.394 . S
C514 C515 1.369 . S
C514 C518 1.531 . S
C515 C514 1.369 . S
C515 C516 1.410 . S
C515 C523 1.503 . S
C516 C515 1.410 . S
C516 C517 1.392 . S
C516 C519 1.511 . S
C517 C513 1.376 . S
C517 C516 1.392 . S
C517 H529 0.929 . S
C518 C514 1.531 . S
C518 H530 0.960 . S
C518 H531 0.962 . S
C518 H532 0.960 . S
C519 C516 1.511 . S
C519 H533 0.961 . S
C519 H534 0.961 . S
C519 H535 0.961 . S
C520 C521 1.370 . S
C520 C522 1.363 . S
C520 H536 0.931 . S
C521 C520 1.370 . S
C521 C525 1.408 . S
C522 C520 1.363 . S
C522 C523 1.370 . S
C522 C526 1.524 . S
C523 C515 1.503 . S
C523 C522 1.370 . S
C523 C524 1.403 . S
C524 C523 1.403 . S
C524 C525 1.404 . S
C524 C527 1.539 . S
C525 C521 1.408 . S
C525 C524 1.404 . S
C525 H537 0.930 . S
C526 C522 1.524 . S
C526 H538 0.956 . S
C526 H539 0.961 . S
C526 H540 0.961 . S
C527 C524 1.539 . S
C527 H541 0.958 . S
C527 H542 0.961 . S
C527 H543 0.960 . S
H528 C512 0.931 . S
H529 C517 0.929 . S
H530 C518 0.960 . S
H531 C518 0.962 . S
H532 C518 0.960 . S
H533 C519 0.961 . S
H534 C519 0.961 . S
H535 C519 0.961 . S
H536 C520 0.931 . S
H537 C525 0.930 . S
H538 C526 0.956 . S
H539 C526 0.961 . S
H540 C526 0.961 . S
H541 C527 0.958 . S
H542 C527 0.961 . S
H543 C527 0.960 . S
C544 C545 1.391 . S
C544 C546 1.394 . S
C544 H560 0.931 . S
C545 C544 1.391 . S
C545 C549 1.376 . S
C546 C544 1.394 . S
C546 C547 1.369 . S
C546 C550 1.531 . S
C547 C546 1.369 . S
C547 C548 1.410 . S
C547 C555 1.503 . S
C548 C547 1.410 . S
C548 C549 1.392 . S
C548 C551 1.511 . S
C549 C545 1.376 . S
C549 C548 1.392 . S
C549 H561 0.929 . S
C550 C546 1.531 . S
C550 H562 0.960 . S
C550 H563 0.962 . S
C550 H564 0.960 . S
C551 C548 1.511 . S
C551 H565 0.961 . S
C551 H566 0.961 . S
C551 H567 0.961 . S
C552 C553 1.370 . S
C552 C554 1.363 . S
C552 H568 0.931 . S
C553 C552 1.370 . S
C553 C557 1.408 . S
C554 C552 1.363 . S
C554 C555 1.370 . S
C554 C558 1.524 . S
C555 C547 1.503 . S
C555 C554 1.370 . S
C555 C556 1.403 . S
C556 C555 1.403 . S
C556 C557 1.404 . S
C556 C559 1.539 . S
C557 C553 1.408 . S
C557 C556 1.404 . S
C557 H569 0.930 . S
C558 C554 1.524 . S
C558 H570 0.956 . S
C558 H571 0.961 . S
C558 H572 0.961 . S
C559 C556 1.539 . S
C559 H573 0.958 . S
C559 H574 0.961 . S
C559 H575 0.960 . S
H560 C544 0.931 . S
H561 C549 0.929 . S
H562 C550 0.960 . S
H563 C550 0.962 . S
H564 C550 0.960 . S
H565 C551 0.961 . S
H566 C551 0.961 . S
H567 C551 0.961 . S
H568 C552 0.931 . S
H569 C557 0.930 . S
H570 C558 0.956 . S
H571 C558 0.961 . S
H572 C558 0.961 . S
H573 C559 0.958 . S
H574 C559 0.961 . S
H575 C559 0.960 . S
C576 C577 1.391 . S
C576 C578 1.394 . S
C576 H592 0.931 . S
C577 C576 1.391 . S
C577 C581 1.376 . S
C578 C576 1.394 . S
C578 C579 1.369 . S
C578 C582 1.531 . S
C579 C578 1.369 . S
C579 C580 1.410 . S
C579 C587 1.503 . S
C580 C579 1.410 . S
C580 C581 1.392 . S
C580 C583 1.511 . S
C581 C577 1.376 . S
C581 C580 1.392 . S
C581 H593 0.929 . S
C582 C578 1.531 . S
C582 H594 0.960 . S
C582 H595 0.962 . S
C582 H596 0.960 . S
C583 C580 1.511 . S
C583 H597 0.961 . S
C583 H598 0.961 . S
C583 H599 0.961 . S
C584 C585 1.370 . S
C584 C586 1.363 . S
C584 H600 0.931 . S
C585 C584 1.370 . S
C585 C589 1.408 . S
C586 C584 1.363 . S
C586 C587 1.370 . S
C586 C590 1.524 . S
C587 C579 1.503 . S
C587 C586 1.370 . S
C587 C588 1.403 . S
C588 C587 1.403 . S
C588 C589 1.404 . S
C588 C591 1.539 . S
C589 C585 1.408 . S
C589 C588 1.404 . S
C589 H601 0.930 . S
C590 C586 1.524 . S
C590 H602 0.956 . S
C590 H603 0.961 . S
C590 H604 0.961 . S
C591 C588 1.539 . S
C591 H605 0.958 . S
C591 H606 0.961 . S
C591 H607 0.960 . S
H592 C576 0.931 . S
H593 C581 0.929 . S
H594 C582 0.960 . S
H595 C582 0.962 . S
H596 C582 0.960 . S
H597 C583 0.961 . S
H598 C583 0.961 . S
H599 C583 0.961 . S
H600 C584 0.931 . S
H601 C589 0.930 . S
H602 C590 0.956 . S
H603 C590 0.961 . S
H604 C590 0.961 . S
H605 C591 0.958 . S
H606 C591 0.961 . S
H607 C591 0.960 . S
C608 C609 1.391 . S
C608 C610 1.394 . S
C608 H624 0.931 . S
C609 C608 1.391 . S
C609 C613 1.376 . S
C610 C608 1.394 . S
C610 C611 1.369 . S
C610 C614 1.531 . S
C611 C610 1.369 . S
C611 C612 1.410 . S
C611 C619 1.503 . S
C612 C611 1.410 . S
C612 C613 1.392 . S
C612 C615 1.511 . S
C613 C609 1.376 . S
C613 C612 1.392 . S
C613 H625 0.929 . S
C614 C610 1.531 . S
C614 H626 0.960 . S
C614 H627 0.962 . S
C614 H628 0.960 . S
C615 C612 1.511 . S
C615 H629 0.961 . S
C615 H630 0.961 . S
C615 H631 0.961 . S
C616 C617 1.370 . S
C616 C618 1.363 . S
C616 H632 0.931 . S
C617 C616 1.370 . S
C617 C621 1.408 . S
C618 C616 1.363 . S
C618 C619 1.370 . S
C618 C622 1.524 . S
C619 C611 1.503 . S
C619 C618 1.370 . S
C619 C620 1.403 . S
C620 C619 1.403 . S
C620 C621 1.404 . S
C620 C623 1.539 . S
C621 C617 1.408 . S
C621 C620 1.404 . S
C621 H633 0.930 . S
C622 C618 1.524 . S
C622 H634 0.956 . S
C622 H635 0.961 . S
C622 H636 0.961 . S
C623 C620 1.539 . S
C623 H637 0.958 . S
C623 H638 0.961 . S
C623 H639 0.960 . S
H624 C608 0.931 . S
H625 C613 0.929 . S
H626 C614 0.960 . S
H627 C614 0.962 . S
H628 C614 0.960 . S
H629 C615 0.961 . S
H630 C615 0.961 . S
H631 C615 0.961 . S
H632 C616 0.931 . S
H633 C621 0.930 . S
H634 C622 0.956 . S
H635 C622 0.961 . S
H636 C622 0.961 . S
H637 C623 0.958 . S
H638 C623 0.961 . S
H639 C623 0.960 . S
C640 C641 1.391 . S
C640 C642 1.394 . S
C640 H656 0.931 . S
C641 C640 1.391 . S
C641 C645 1.376 . S
C642 C640 1.394 . S
C642 C643 1.369 . S
C642 C646 1.531 . S
C643 C642 1.369 . S
C643 C644 1.410 . S
C643 C651 1.503 . S
C644 C643 1.410 . S
C644 C645 1.392 . S
C644 C647 1.511 . S
C645 C641 1.376 . S
C645 C644 1.392 . S
C645 H657 0.929 . S
C646 C642 1.531 . S
C646 H658 0.960 . S
C646 H659 0.962 . S
C646 H660 0.960 . S
C647 C644 1.511 . S
C647 H661 0.961 . S
C647 H662 0.961 . S
C647 H663 0.961 . S
C648 C649 1.370 . S
C648 C650 1.363 . S
C648 H664 0.931 . S
C649 C648 1.370 . S
C649 C653 1.408 . S
C650 C648 1.363 . S
C650 C651 1.370 . S
C650 C654 1.524 . S
C651 C643 1.503 . S
C651 C650 1.370 . S
C651 C652 1.403 . S
C652 C651 1.403 . S
C652 C653 1.404 . S
C652 C655 1.539 . S
C653 C649 1.408 . S
C653 C652 1.404 . S
C653 H665 0.930 . S
C654 C650 1.524 . S
C654 H666 0.956 . S
C654 H667 0.961 . S
C654 H668 0.961 . S
C655 C652 1.539 . S
C655 H669 0.958 . S
C655 H670 0.961 . S
C655 H671 0.960 . S
H656 C640 0.931 . S
H657 C645 0.929 . S
H658 C646 0.960 . S
H659 C646 0.962 . S
H660 C646 0.960 . S
H661 C647 0.961 . S
H662 C647 0.961 . S
H663 C647 0.961 . S
H664 C648 0.931 . S
H665 C653 0.930 . S
H666 C654 0.956 . S
H667 C654 0.961 . S
H668 C654 0.961 . S
H669 C655 0.958 . S
H670 C655 0.961 . S
H671 C655 0.960 . S
C672 C673 1.391 . S
C672 C674 1.394 . S
C672 H688 0.931 . S
C673 C672 1.391 . S
C673 C677 1.376 . S
C674 C672 1.394 . S
C674 C675 1.369 . S
C674 C678 1.531 . S
C675 C674 1.369 . S
C675 C676 1.410 . S
C675 C683 1.503 . S
C676 C675 1.410 . S
C676 C677 1.392 . S
C676 C679 1.511 . S
C677 C673 1.376 . S
C677 C676 1.392 . S
C677 H689 0.929 . S
C678 C674 1.531 . S
C678 H690 0.960 . S
C678 H691 0.962 . S
C678 H692 0.960 . S
C679 C676 1.511 . S
C679 H693 0.961 . S
C679 H694 0.961 . S
C679 H695 0.961 . S
C680 C681 1.370 . S
C680 C682 1.363 . S
C680 H696 0.931 . S
C681 C680 1.370 . S
C681 C685 1.408 . S
C682 C680 1.363 . S
C682 C683 1.370 . S
C682 C686 1.524 . S
C683 C675 1.503 . S
C683 C682 1.370 . S
C683 C684 1.403 . S
C684 C683 1.403 . S
C684 C685 1.404 . S
C684 C687 1.539 . S
C685 C681 1.408 . S
C685 C684 1.404 . S
C685 H697 0.930 . S
C686 C682 1.524 . S
C686 H698 0.956 . S
C686 H699 0.961 . S
C686 H700 0.961 . S
C687 C684 1.539 . S
C687 H701 0.958 . S
C687 H702 0.961 . S
C687 H703 0.960 . S
H688 C672 0.931 . S
H689 C677 0.929 . S
H690 C678 0.960 . S
H691 C678 0.962 . S
H692 C678 0.960 . S
H693 C679 0.961 . S
H694 C679 0.961 . S
H695 C679 0.961 . S
H696 C680 0.931 . S
H697 C685 0.930 . S
H698 C686 0.956 . S
H699 C686 0.961 . S
H700 C686 0.961 . S
H701 C687 0.958 . S
H702 C687 0.961 . S
H703 C687 0.960 . S
C704 C705 1.391 . S
C704 C706 1.394 . S
C704 H720 0.931 . S
C705 C704 1.391 . S
C705 C709 1.376 . S
C706 C704 1.394 . S
C706 C707 1.369 . S
C706 C710 1.531 . S
C707 C706 1.369 . S
C707 C708 1.410 . S
C707 C715 1.503 . S
C708 C707 1.410 . S
C708 C709 1.392 . S
C708 C711 1.511 . S
C709 C705 1.376 . S
C709 C708 1.392 . S
C709 H721 0.929 . S
C710 C706 1.531 . S
C710 H722 0.960 . S
C710 H723 0.962 . S
C710 H724 0.960 . S
C711 C708 1.511 . S
C711 H725 0.961 . S
C711 H726 0.961 . S
C711 H727 0.961 . S
C712 C713 1.370 . S
C712 C714 1.363 . S
C712 H728 0.931 . S
C713 C712 1.370 . S
C713 C717 1.408 . S
C714 C712 1.363 . S
C714 C715 1.370 . S
C714 C718 1.524 . S
C715 C707 1.503 . S
C715 C714 1.370 . S
C715 C716 1.403 . S
C716 C715 1.403 . S
C716 C717 1.404 . S
C716 C719 1.539 . S
C717 C713 1.408 . S
C717 C716 1.404 . S
C717 H729 0.930 1_455 S
C718 C714 1.524 . S
C718 H730 0.956 . S
C718 H731 0.961 . S
C718 H732 0.961 . S
C719 C716 1.539 . S
C719 H733 0.955 1_455 S
C719 H734 0.961 1_455 S
C719 H735 0.960 . S
H720 C704 0.931 . S
H721 C709 0.929 . S
H722 C710 0.960 . S
H723 C710 0.962 . S
H724 C710 0.960 . S
H725 C711 0.961 . S
H726 C711 0.961 . S
H727 C711 0.961 . S
H728 C712 0.931 . S
H729 C717 0.930 1_655 S
H730 C718 0.956 . S
H731 C718 0.961 . S
H732 C718 0.961 . S
H733 C719 0.955 1_655 S
H734 C719 0.961 1_655 S
H735 C719 0.960 . S
C736 C737 1.391 . S
C736 C738 1.394 . S
C736 H752 0.931 . S
C737 C736 1.391 . S
C737 C741 1.376 . S
C738 C736 1.394 . S
C738 C739 1.369 . S
C738 C742 1.531 . S
C739 C738 1.369 . S
C739 C740 1.410 . S
C739 C747 1.503 . S
C740 C739 1.410 . S
C740 C741 1.392 . S
C740 C743 1.511 . S
C741 C737 1.376 . S
C741 C740 1.392 . S
C741 H753 0.929 . S
C742 C738 1.531 . S
C742 H754 0.960 . S
C742 H755 0.962 . S
C742 H756 0.960 . S
C743 C740 1.511 . S
C743 H757 0.961 . S
C743 H758 0.961 . S
C743 H759 0.961 . S
C744 C745 1.370 . S
C744 C746 1.363 . S
C744 H760 0.931 . S
C745 C744 1.370 . S
C745 C749 1.408 . S
C746 C744 1.363 . S
C746 C747 1.370 . S
C746 C750 1.524 . S
C747 C739 1.503 . S
C747 C746 1.370 . S
C747 C748 1.403 . S
C748 C747 1.403 . S
C748 C749 1.404 . S
C748 C751 1.539 . S
C749 C745 1.408 . S
C749 C748 1.404 . S
C749 H761 0.930 . S
C750 C746 1.524 . S
C750 H762 0.956 . S
C750 H763 0.961 . S
C750 H764 0.961 . S
C751 C748 1.539 . S
C751 H765 0.958 . S
C751 H766 0.961 . S
C751 H767 0.960 . S
H752 C736 0.931 . S
H753 C741 0.929 . S
H754 C742 0.960 . S
H755 C742 0.962 . S
H756 C742 0.960 . S
H757 C743 0.961 . S
H758 C743 0.961 . S
H759 C743 0.961 . S
H760 C744 0.931 . S
H761 C749 0.930 . S
H762 C750 0.956 . S
H763 C750 0.961 . S
H764 C750 0.961 . S
H765 C751 0.958 . S
H766 C751 0.961 . S
H767 C751 0.960 . S
C768 C769 1.391 . S
C768 C770 1.394 . S
C768 H784 0.931 . S
C769 C768 1.391 . S
C769 C773 1.376 . S
C770 C768 1.394 . S
C770 C771 1.369 . S
C770 C774 1.531 . S
C771 C770 1.369 . S
C771 C772 1.410 . S
C771 C779 1.503 . S
C772 C771 1.410 . S
C772 C773 1.392 . S
C772 C775 1.511 . S
C773 C769 1.376 . S
C773 C772 1.392 . S
C773 H785 0.929 . S
C774 C770 1.531 . S
C774 H786 0.960 . S
C774 H787 0.962 . S
C774 H788 0.960 . S
C775 C772 1.511 . S
C775 H789 0.961 . S
C775 H790 0.961 . S
C775 H791 0.961 . S
C776 C777 1.370 . S
C776 C778 1.363 . S
C776 H792 0.931 . S
C777 C776 1.370 . S
C777 C781 1.408 . S
C778 C776 1.363 . S
C778 C779 1.370 . S
C778 C782 1.524 . S
C779 C771 1.503 . S
C779 C778 1.370 . S
C779 C780 1.403 . S
C780 C779 1.403 . S
C780 C781 1.404 . S
C780 C783 1.539 . S
C781 C777 1.408 . S
C781 C780 1.404 . S
C781 H793 0.930 . S
C782 C778 1.524 . S
C782 H794 0.956 . S
C782 H795 0.961 . S
C782 H796 0.961 . S
C783 C780 1.539 . S
C783 H797 0.958 . S
C783 H798 0.961 . S
C783 H799 0.960 . S
H784 C768 0.931 . S
H785 C773 0.929 . S
H786 C774 0.960 . S
H787 C774 0.962 . S
H788 C774 0.960 . S
H789 C775 0.961 . S
H790 C775 0.961 . S
H791 C775 0.961 . S
H792 C776 0.931 . S
H793 C781 0.930 . S
H794 C782 0.956 . S
H795 C782 0.961 . S
H796 C782 0.961 . S
H797 C783 0.958 . S
H798 C783 0.961 . S
H799 C783 0.960 . S
C800 C801 1.391 . S
C800 C802 1.394 . S
C800 H816 0.931 . S
C801 C800 1.391 . S
C801 C805 1.376 . S
C802 C800 1.394 . S
C802 C803 1.369 . S
C802 C806 1.531 . S
C803 C802 1.369 . S
C803 C804 1.410 . S
C803 C811 1.503 . S
C804 C803 1.410 . S
C804 C805 1.392 . S
C804 C807 1.511 . S
C805 C801 1.376 . S
C805 C804 1.392 . S
C805 H817 0.929 . S
C806 C802 1.531 . S
C806 H818 0.960 . S
C806 H819 0.962 . S
C806 H820 0.960 . S
C807 C804 1.511 . S
C807 H821 0.961 . S
C807 H822 0.961 . S
C807 H823 0.961 . S
C808 C809 1.370 . S
C808 C810 1.363 . S
C808 H824 0.931 . S
C809 C808 1.370 . S
C809 C813 1.408 . S
C810 C808 1.363 . S
C810 C811 1.370 . S
C810 C814 1.524 . S
C811 C803 1.503 . S
C811 C810 1.370 . S
C811 C812 1.403 . S
C812 C811 1.403 . S
C812 C813 1.404 . S
C812 C815 1.539 . S
C813 C809 1.408 . S
C813 C812 1.404 . S
C813 H825 0.930 . S
C814 C810 1.524 . S
C814 H826 0.956 . S
C814 H827 0.961 . S
C814 H828 0.961 . S
C815 C812 1.539 . S
C815 H829 0.958 . S
C815 H830 0.961 . S
C815 H831 0.960 . S
H816 C800 0.931 . S
H817 C805 0.929 . S
H818 C806 0.960 . S
H819 C806 0.962 . S
H820 C806 0.960 . S
H821 C807 0.961 . S
H822 C807 0.961 . S
H823 C807 0.961 . S
H824 C808 0.931 . S
H825 C813 0.930 . S
H826 C814 0.956 . S
H827 C814 0.961 . S
H828 C814 0.961 . S
H829 C815 0.958 . S
H830 C815 0.961 . S
H831 C815 0.960 . S
C832 C833 1.391 . S
C832 C834 1.394 . S
C832 H848 0.931 . S
C833 C832 1.391 . S
C833 C837 1.376 . S
C834 C832 1.394 . S
C834 C835 1.369 . S
C834 C838 1.531 . S
C835 C834 1.369 . S
C835 C836 1.410 . S
C835 C843 1.503 . S
C836 C835 1.410 . S
C836 C837 1.392 . S
C836 C839 1.511 . S
C837 C833 1.376 . S
C837 C836 1.392 . S
C837 H849 0.929 1_655 S
C838 C834 1.531 . S
C838 H850 0.960 . S
C838 H851 0.962 . S
C838 H852 0.960 . S
C839 C836 1.511 . S
C839 H853 0.961 1_655 S
C839 H854 0.961 . S
C839 H855 0.961 . S
C840 C841 1.370 . S
C840 C842 1.363 . S
C840 H856 0.931 . S
C841 C840 1.370 . S
C841 C845 1.408 . S
C842 C840 1.363 . S
C842 C843 1.370 . S
C842 C846 1.524 . S
C843 C835 1.503 . S
C843 C842 1.370 . S
C843 C844 1.403 . S
C844 C843 1.403 . S
C844 C845 1.404 . S
C844 C847 1.539 . S
C845 C841 1.408 . S
C845 C844 1.404 . S
C845 H857 0.930 . S
C846 C842 1.524 . S
C846 H858 0.956 . S
C846 H859 0.961 . S
C846 H860 0.961 . S
C847 C844 1.539 . S
C847 H861 0.958 . S
C847 H862 0.961 . S
C847 H863 0.960 . S
H848 C832 0.931 . S
H849 C837 0.929 1_455 S
H850 C838 0.960 . S
H851 C838 0.962 . S
H852 C838 0.960 . S
H853 C839 0.961 1_455 S
H854 C839 0.961 . S
H855 C839 0.961 . S
H856 C840 0.931 . S
H857 C845 0.930 . S
H858 C846 0.956 . S
H859 C846 0.961 . S
H860 C846 0.961 . S
H861 C847 0.958 . S
H862 C847 0.961 . S
H863 C847 0.960 . S
C864 C865 1.391 . S
C864 C866 1.394 . S
C864 H880 0.931 . S
C865 C864 1.391 . S
C865 C869 1.376 . S
C866 C864 1.394 . S
C866 C867 1.369 . S
C866 C870 1.531 . S
C867 C866 1.369 . S
C867 C868 1.410 . S
C867 C875 1.503 . S
C868 C867 1.410 . S
C868 C869 1.392 . S
C868 C871 1.511 . S
C869 C865 1.376 . S
C869 C868 1.392 . S
C869 H881 0.956 . S
C870 C866 1.531 . S
C870 H882 0.960 . S
C870 H883 0.962 . S
C870 H884 0.960 . S
C871 C868 1.511 . S
C871 H885 0.961 . S
C871 H886 0.961 . S
C871 H887 0.961 . S
C872 C873 1.370 . S
C872 C874 1.363 . S
C872 H888 0.931 . S
C873 C872 1.370 . S
C873 C877 1.408 . S
C874 C872 1.363 . S
C874 C875 1.370 . S
C874 C878 1.524 . S
C875 C867 1.503 . S
C875 C874 1.370 . S
C875 C876 1.403 . S
C876 C875 1.403 . S
C876 C877 1.404 . S
C876 C879 1.539 . S
C877 C873 1.408 . S
C877 C876 1.404 . S
C877 H889 0.930 . S
C878 C874 1.524 . S
C878 H890 0.956 . S
C878 H891 0.961 . S
C878 H892 0.961 . S
C879 C876 1.539 . S
C879 H893 0.958 . S
C879 H894 0.961 . S
C879 H895 0.960 . S
H880 C864 0.931 . S
H881 C869 0.956 . S
H882 C870 0.960 . S
H883 C870 0.962 . S
H884 C870 0.960 . S
H885 C871 0.961 . S
H886 C871 0.961 . S
H887 C871 0.961 . S
H888 C872 0.931 . S
H889 C877 0.930 . S
H890 C878 0.956 . S
H891 C878 0.961 . S
H892 C878 0.961 . S
H893 C879 0.958 . S
H894 C879 0.961 . S
H895 C879 0.960 . S
C896 C897 1.391 . S
C896 C898 1.394 . S
C896 H912 0.931 . S
C897 C896 1.391 . S
C897 C901 1.376 . S
C898 C896 1.394 . S
C898 C899 1.369 . S
C898 C902 1.531 . S
C899 C898 1.369 . S
C899 C900 1.410 . S
C899 C907 1.503 . S
C900 C899 1.410 . S
C900 C901 1.392 . S
C900 C903 1.511 . S
C901 C897 1.376 . S
C901 C900 1.392 . S
C901 H913 0.929 . S
C902 C898 1.531 . S
C902 H914 0.960 . S
C902 H915 0.962 . S
C902 H916 0.960 . S
C903 C900 1.511 . S
C903 H917 0.961 . S
C903 H918 0.961 . S
C903 H919 0.961 . S
C904 C905 1.370 . S
C904 C906 1.363 . S
C904 H920 0.931 . S
C905 C904 1.370 . S
C905 C909 1.408 . S
C906 C904 1.363 . S
C906 C907 1.370 . S
C906 C910 1.524 . S
C907 C899 1.503 . S
C907 C906 1.370 . S
C907 C908 1.403 . S
C908 C907 1.403 . S
C908 C909 1.404 . S
C908 C911 1.539 . S
C909 C905 1.408 . S
C909 C908 1.404 . S
C909 H921 0.930 . S
C910 C906 1.524 . S
C910 H922 0.956 . S
C910 H923 0.961 . S
C910 H924 0.961 . S
C911 C908 1.539 . S
C911 H925 0.958 . S
C911 H926 0.961 . S
C911 H927 0.960 . S
H912 C896 0.931 . S
H913 C901 0.929 . S
H914 C902 0.960 . S
H915 C902 0.962 . S
H916 C902 0.960 . S
H917 C903 0.961 . S
H918 C903 0.961 . S
H919 C903 0.961 . S
H920 C904 0.931 . S
H921 C909 0.930 . S
H922 C910 0.956 . S
H923 C910 0.961 . S
H924 C910 0.961 . S
H925 C911 0.958 . S
H926 C911 0.961 . S
H927 C911 0.960 . S
C928 C929 1.391 . S
C928 C930 1.394 . S
C928 H944 0.931 . S
C929 C928 1.391 . S
C929 C933 1.376 . S
C930 C928 1.394 . S
C930 C931 1.369 . S
C930 C934 1.531 . S
C931 C930 1.369 . S
C931 C932 1.410 . S
C931 C939 1.503 . S
C932 C931 1.410 . S
C932 C933 1.392 . S
C932 C935 1.511 . S
C933 C929 1.376 . S
C933 C932 1.392 . S
C933 H945 0.929 . S
C934 C930 1.531 . S
C934 H946 0.960 . S
C934 H947 0.962 . S
C934 H948 0.960 . S
C935 C932 1.511 . S
C935 H949 0.961 . S
C935 H950 0.961 . S
C935 H951 0.961 . S
C936 C937 1.370 . S
C936 C938 1.363 . S
C936 H952 0.931 . S
C937 C936 1.370 . S
C937 C941 1.408 . S
C938 C936 1.363 . S
C938 C939 1.370 . S
C938 C942 1.524 . S
C939 C931 1.503 . S
C939 C938 1.370 . S
C939 C940 1.403 . S
C940 C939 1.403 . S
C940 C941 1.404 . S
C940 C943 1.539 . S
C941 C937 1.408 . S
C941 C940 1.404 . S
C941 H953 0.930 . S
C942 C938 1.524 . S
C942 H954 0.956 . S
C942 H955 0.961 . S
C942 H956 0.961 . S
C943 C940 1.539 . S
C943 H957 0.958 . S
C943 H958 0.961 . S
C943 H959 0.960 . S
H944 C928 0.931 . S
H945 C933 0.929 . S
H946 C934 0.960 . S
H947 C934 0.962 . S
H948 C934 0.960 . S
H949 C935 0.961 . S
H950 C935 0.961 . S
H951 C935 0.961 . S
H952 C936 0.931 . S
H953 C941 0.930 . S
H954 C942 0.956 . S
H955 C942 0.961 . S
H956 C942 0.961 . S
H957 C943 0.958 . S
H958 C943 0.961 . S
H959 C943 0.960 . S
C960 C961 1.391 . S
C960 C962 1.394 . S
C960 H976 0.931 . S
C961 C960 1.391 . S
C961 C965 1.376 . S
C962 C960 1.394 . S
C962 C963 1.369 . S
C962 C966 1.531 . S
C963 C962 1.369 . S
C963 C964 1.410 . S
C963 C971 1.503 . S
C964 C963 1.410 . S
C964 C965 1.392 . S
C964 C967 1.511 . S
C965 C961 1.376 . S
C965 C964 1.392 . S
C965 H977 0.929 . S
C966 C962 1.531 . S
C966 H978 0.960 . S
C966 H979 0.962 . S
C966 H980 0.960 . S
C967 C964 1.511 . S
C967 H981 0.961 . S
C967 H982 0.961 . S
C967 H983 0.961 . S
C968 C969 1.370 . S
C968 C970 1.363 . S
C968 H984 0.931 . S
C969 C968 1.370 . S
C969 C973 1.408 . S
C970 C968 1.363 . S
C970 C971 1.370 . S
C970 C974 1.524 . S
C971 C963 1.503 . S
C971 C970 1.370 . S
C971 C972 1.403 . S
C972 C971 1.403 . S
C972 C973 1.404 . S
C972 C975 1.539 . S
C973 C969 1.408 . S
C973 C972 1.404 . S
C973 H985 0.930 1_655 S
C974 C970 1.524 . S
C974 H986 0.956 . S
C974 H987 0.961 . S
C974 H988 0.961 . S
C975 C972 1.539 . S
C975 H989 0.958 1_655 S
C975 H990 0.961 1_655 S
C975 H991 0.960 . S
H976 C960 0.931 . S
H977 C965 0.929 . S
H978 C966 0.960 . S
H979 C966 0.962 . S
H980 C966 0.960 . S
H981 C967 0.961 . S
H982 C967 0.961 . S
H983 C967 0.961 . S
H984 C968 0.931 . S
H985 C973 0.930 1_455 S
H986 C974 0.956 . S
H987 C974 0.961 . S
H988 C974 0.961 . S
H989 C975 0.958 1_455 S
H990 C975 0.961 1_455 S
H991 C975 0.960 . S
C992 C993 1.391 . S
C992 C994 1.394 . S
C992 H1008 0.931 . S
C993 C992 1.391 . S
C993 C997 1.376 . S
C994 C992 1.394 . S
C994 C995 1.369 . S
C994 C998 1.531 . S
C995 C994 1.369 . S
C995 C996 1.410 . S
C995 C1003 1.503 . S
C996 C995 1.410 . S
C996 C997 1.392 . S
C996 C999 1.511 . S
C997 C993 1.376 . S
C997 C996 1.392 . S
C997 H1009 0.929 . S
C998 C994 1.531 . S
C998 H1010 0.960 . S
C998 H1011 0.962 . S
C998 H1012 0.960 . S
C999 C996 1.511 . S
C999 H1013 0.961 . S
C999 H1014 0.961 . S
C999 H1015 0.961 . S
C1000 C1001 1.370 . S
C1000 C1002 1.363 . S
C1000 H1016 0.931 . S
C1001 C1000 1.370 . S
C1001 C1005 1.408 . S
C1002 C1000 1.363 . S
C1002 C1003 1.370 . S
C1002 C1006 1.524 . S
C1003 C995 1.503 . S
C1003 C1002 1.370 . S
C1003 C1004 1.403 . S
C1004 C1003 1.403 . S
C1004 C1005 1.404 . S
C1004 C1007 1.539 . S
C1005 C1001 1.408 . S
C1005 C1004 1.404 . S
C1005 H1017 0.930 1_545 S
C1006 C1002 1.524 . S
C1006 H1018 0.956 . S
C1006 H1019 0.961 . S
C1006 H1020 0.961 . S
C1007 C1004 1.539 . S
C1007 H1021 0.958 . S
C1007 H1022 0.961 1_545 S
C1007 H1023 0.960 . S
H1008 C992 0.931 . S
H1009 C997 0.929 . S
H1010 C998 0.960 . S
H1011 C998 0.962 . S
H1012 C998 0.960 . S
H1013 C999 0.961 . S
H1014 C999 0.961 . S
H1015 C999 0.961 . S
H1016 C1000 0.931 . S
H1017 C1005 0.930 1_565 S
H1018 C1006 0.956 . S
H1019 C1006 0.961 . S
H1020 C1006 0.961 . S
H1021 C1007 0.958 . S
H1022 C1007 0.961 1_565 S
H1023 C1007 0.960 . S
C1024 C1025 1.391 . S
C1024 C1026 1.394 . S
C1024 H1040 0.931 . S
C1025 C1024 1.391 . S
C1025 C1029 1.376 . S
C1026 C1024 1.394 . S
C1026 C1027 1.369 . S
C1026 C1030 1.531 . S
C1027 C1026 1.369 . S
C1027 C1028 1.410 . S
C1027 C1035 1.503 . S
C1028 C1027 1.410 . S
C1028 C1029 1.392 . S
C1028 C1031 1.511 . S
C1029 C1025 1.376 . S
C1029 C1028 1.392 . S
C1029 H1041 0.929 . S
C1030 C1026 1.531 . S
C1030 H1042 0.960 . S
C1030 H1043 0.962 . S
C1030 H1044 0.960 . S
C1031 C1028 1.511 . S
C1031 H1045 0.961 . S
C1031 H1046 0.961 . S
C1031 H1047 0.961 . S
C1032 C1033 1.370 . S
C1032 C1034 1.363 . S
C1032 H1048 0.931 . S
C1033 C1032 1.370 . S
C1033 C1037 1.408 . S
C1034 C1032 1.363 . S
C1034 C1035 1.370 . S
C1034 C1038 1.524 . S
C1035 C1027 1.503 . S
C1035 C1034 1.370 . S
C1035 C1036 1.403 . S
C1036 C1035 1.403 . S
C1036 C1037 1.404 . S
C1036 C1039 1.539 . S
C1037 C1033 1.408 . S
C1037 C1036 1.404 . S
C1037 H1049 0.930 . S
C1038 C1034 1.524 . S
C1038 H1050 0.956 . S
C1038 H1051 0.961 . S
C1038 H1052 0.961 . S
C1039 C1036 1.539 . S
C1039 H1053 0.958 . S
C1039 H1054 0.961 . S
C1039 H1055 0.960 . S
H1040 C1024 0.931 . S
H1041 C1029 0.929 . S
H1042 C1030 0.960 . S
H1043 C1030 0.962 . S
H1044 C1030 0.960 . S
H1045 C1031 0.961 . S
H1046 C1031 0.961 . S
H1047 C1031 0.961 . S
H1048 C1032 0.931 . S
H1049 C1037 0.930 . S
H1050 C1038 0.956 . S
H1051 C1038 0.961 . S
H1052 C1038 0.961 . S
H1053 C1039 0.958 . S
H1054 C1039 0.961 . S
H1055 C1039 0.960 . S
C1056 C1057 1.391 . S
C1056 C1058 1.394 . S
C1056 H1072 0.931 . S
C1057 C1056 1.391 . S
C1057 C1061 1.376 . S
C1058 C1056 1.394 . S
C1058 C1059 1.369 . S
C1058 C1062 1.531 . S
C1059 C1058 1.369 . S
C1059 C1060 1.410 . S
C1059 C1067 1.503 . S
C1060 C1059 1.410 . S
C1060 C1061 1.392 . S
C1060 C1063 1.511 . S
C1061 C1057 1.376 . S
C1061 C1060 1.392 . S
C1061 H1073 0.929 . S
C1062 C1058 1.531 . S
C1062 H1074 0.960 . S
C1062 H1075 0.962 . S
C1062 H1076 0.960 . S
C1063 C1060 1.511 . S
C1063 H1077 0.961 . S
C1063 H1078 0.961 . S
C1063 H1079 0.961 . S
C1064 C1065 1.370 . S
C1064 C1066 1.363 . S
C1064 H1080 0.931 . S
C1065 C1064 1.370 . S
C1065 C1069 1.408 . S
C1066 C1064 1.363 . S
C1066 C1067 1.370 . S
C1066 C1070 1.524 . S
C1067 C1059 1.503 . S
C1067 C1066 1.370 . S
C1067 C1068 1.403 . S
C1068 C1067 1.403 . S
C1068 C1069 1.404 . S
C1068 C1071 1.539 . S
C1069 C1065 1.408 . S
C1069 C1068 1.404 . S
C1069 H1081 0.930 . S
C1070 C1066 1.524 . S
C1070 H1082 0.956 . S
C1070 H1083 0.961 . S
C1070 H1084 0.961 . S
C1071 C1068 1.539 . S
C1071 H1085 0.958 . S
C1071 H1086 0.961 . S
C1071 H1087 0.960 . S
H1072 C1056 0.931 . S
H1073 C1061 0.929 . S
H1074 C1062 0.960 . S
H1075 C1062 0.962 . S
H1076 C1062 0.960 . S
H1077 C1063 0.961 . S
H1078 C1063 0.961 . S
H1079 C1063 0.961 . S
H1080 C1064 0.931 . S
H1081 C1069 0.930 . S
H1082 C1070 0.956 . S
H1083 C1070 0.961 . S
H1084 C1070 0.961 . S
H1085 C1071 0.958 . S
H1086 C1071 0.961 . S
H1087 C1071 0.960 . S
C1088 C1089 1.391 . S
C1088 C1090 1.394 . S
C1088 H1104 0.931 . S
C1089 C1088 1.391 . S
C1089 C1093 1.376 . S
C1090 C1088 1.394 . S
C1090 C1091 1.369 . S
C1090 C1094 1.531 . S
C1091 C1090 1.369 . S
C1091 C1092 1.410 . S
C1091 C1099 1.503 . S
C1092 C1091 1.410 . S
C1092 C1093 1.392 . S
C1092 C1095 1.511 . S
C1093 C1089 1.376 . S
C1093 C1092 1.392 . S
C1093 H1105 0.929 . S
C1094 C1090 1.531 . S
C1094 H1106 0.960 . S
C1094 H1107 0.962 . S
C1094 H1108 0.960 . S
C1095 C1092 1.511 . S
C1095 H1109 0.961 . S
C1095 H1110 0.961 . S
C1095 H1111 0.961 . S
C1096 C1097 1.370 . S
C1096 C1098 1.363 . S
C1096 H1112 0.931 . S
C1097 C1096 1.370 . S
C1097 C1101 1.408 . S
C1098 C1096 1.363 . S
C1098 C1099 1.370 . S
C1098 C1102 1.524 . S
C1099 C1091 1.503 . S
C1099 C1098 1.370 . S
C1099 C1100 1.403 . S
C1100 C1099 1.403 . S
C1100 C1101 1.404 . S
C1100 C1103 1.539 . S
C1101 C1097 1.408 . S
C1101 C1100 1.404 . S
C1101 H1113 0.930 . S
C1102 C1098 1.524 . S
C1102 H1114 0.956 . S
C1102 H1115 0.961 . S
C1102 H1116 0.961 . S
C1103 C1100 1.539 . S
C1103 H1117 0.958 . S
C1103 H1118 0.961 . S
C1103 H1119 0.960 . S
H1104 C1088 0.931 . S
H1105 C1093 0.929 . S
H1106 C1094 0.960 . S
H1107 C1094 0.962 . S
H1108 C1094 0.960 . S
H1109 C1095 0.961 . S
H1110 C1095 0.961 . S
H1111 C1095 0.961 . S
H1112 C1096 0.931 . S
H1113 C1101 0.930 . S
H1114 C1102 0.956 . S
H1115 C1102 0.961 . S
H1116 C1102 0.961 . S
H1117 C1103 0.958 . S
H1118 C1103 0.961 . S
H1119 C1103 0.960 . S
C1120 C1121 1.391 . S
C1120 C1122 1.394 . S
C1120 H1136 0.931 . S
C1121 C1120 1.391 . S
C1121 C1125 1.376 . S
C1122 C1120 1.394 . S
C1122 C1123 1.369 . S
C1122 C1126 1.531 . S
C1123 C1122 1.369 . S
C1123 C1124 1.410 . S
C1123 C1131 1.503 . S
C1124 C1123 1.410 . S
C1124 C1125 1.392 . S
C1124 C1127 1.511 . S
C1125 C1121 1.376 . S
C1125 C1124 1.392 . S
C1125 H1137 0.929 . S
C1126 C1122 1.531 . S
C1126 H1138 0.960 . S
C1126 H1139 0.962 . S
C1126 H1140 0.960 . S
C1127 C1124 1.511 . S
C1127 H1141 0.961 . S
C1127 H1142 0.961 . S
C1127 H1143 0.961 . S
C1128 C1129 1.370 . S
C1128 C1130 1.363 . S
C1128 H1144 0.931 . S
C1129 C1128 1.370 . S
C1129 C1133 1.408 . S
C1130 C1128 1.363 . S
C1130 C1131 1.370 . S
C1130 C1134 1.524 . S
C1131 C1123 1.503 . S
C1131 C1130 1.370 . S
C1131 C1132 1.403 . S
C1132 C1131 1.403 . S
C1132 C1133 1.404 . S
C1132 C1135 1.539 . S
C1133 C1129 1.408 . S
C1133 C1132 1.404 . S
C1133 H1145 0.930 . S
C1134 C1130 1.524 . S
C1134 H1146 0.956 . S
C1134 H1147 0.961 . S
C1134 H1148 0.961 . S
C1135 C1132 1.539 . S
C1135 H1149 0.958 . S
C1135 H1150 0.961 . S
C1135 H1151 0.960 . S
H1136 C1120 0.931 . S
H1137 C1125 0.929 . S
H1138 C1126 0.960 . S
H1139 C1126 0.962 . S
H1140 C1126 0.960 . S
H1141 C1127 0.961 . S
H1142 C1127 0.961 . S
H1143 C1127 0.961 . S
H1144 C1128 0.931 . S
H1145 C1133 0.930 . S
H1146 C1134 0.956 . S
H1147 C1134 0.961 . S
H1148 C1134 0.961 . S
H1149 C1135 0.958 . S
H1150 C1135 0.961 . S
H1151 C1135 0.960 . S
C1152 C1153 1.391 . S
C1152 C1154 1.394 . S
C1152 H1168 0.931 . S
C1153 C1152 1.391 . S
C1153 C1157 1.376 . S
C1154 C1152 1.394 . S
C1154 C1155 1.369 . S
C1154 C1158 1.531 . S
C1155 C1154 1.369 . S
C1155 C1156 1.410 . S
C1155 C1163 1.503 . S
C1156 C1155 1.410 . S
C1156 C1157 1.392 . S
C1156 C1159 1.511 . S
C1157 C1153 1.376 . S
C1157 C1156 1.392 . S
C1157 H1169 0.929 . S
C1158 C1154 1.531 . S
C1158 H1170 0.960 . S
C1158 H1171 0.962 . S
C1158 H1172 0.960 . S
C1159 C1156 1.511 . S
C1159 H1173 0.961 . S
C1159 H1174 0.961 . S
C1159 H1175 0.961 . S
C1160 C1161 1.370 . S
C1160 C1162 1.363 . S
C1160 H1176 0.931 . S
C1161 C1160 1.370 . S
C1161 C1165 1.408 . S
C1162 C1160 1.363 . S
C1162 C1163 1.370 . S
C1162 C1166 1.524 . S
C1163 C1155 1.503 . S
C1163 C1162 1.370 . S
C1163 C1164 1.403 . S
C1164 C1163 1.403 . S
C1164 C1165 1.404 . S
C1164 C1167 1.539 . S
C1165 C1161 1.408 . S
C1165 C1164 1.404 . S
C1165 H1177 0.930 . S
C1166 C1162 1.524 . S
C1166 H1178 0.956 . S
C1166 H1179 0.961 . S
C1166 H1180 0.961 . S
C1167 C1164 1.539 . S
C1167 H1181 0.958 . S
C1167 H1182 0.961 . S
C1167 H1183 0.960 . S
H1168 C1152 0.931 . S
H1169 C1157 0.929 . S
H1170 C1158 0.960 . S
H1171 C1158 0.962 . S
H1172 C1158 0.960 . S
H1173 C1159 0.961 . S
H1174 C1159 0.961 . S
H1175 C1159 0.961 . S
H1176 C1160 0.931 . S
H1177 C1165 0.930 . S
H1178 C1166 0.956 . S
H1179 C1166 0.961 . S
H1180 C1166 0.961 . S
H1181 C1167 0.958 . S
H1182 C1167 0.961 . S
H1183 C1167 0.960 . S
C1184 C1185 1.391 . S
C1184 C1186 1.394 . S
C1184 H1200 0.931 . S
C1185 C1184 1.391 . S
C1185 C1189 1.376 . S
C1186 C1184 1.394 . S
C1186 C1187 1.369 . S
C1186 C1190 1.531 . S
C1187 C1186 1.369 . S
C1187 C1188 1.410 . S
C1187 C1195 1.503 . S
C1188 C1187 1.410 . S
C1188 C1189 1.392 . S
C1188 C1191 1.511 . S
C1189 C1185 1.376 . S
C1189 C1188 1.392 . S
C1189 H1201 0.929 . S
C1190 C1186 1.531 . S
C1190 H1202 0.960 . S
C1190 H1203 0.962 . S
C1190 H1204 0.960 . S
C1191 C1188 1.511 . S
C1191 H1205 0.961 . S
C1191 H1206 0.961 . S
C1191 H1207 0.961 . S
C1192 C1193 1.370 . S
C1192 C1194 1.363 . S
C1192 H1208 0.931 . S
C1193 C1192 1.370 . S
C1193 C1197 1.408 . S
C1194 C1192 1.363 . S
C1194 C1195 1.370 . S
C1194 C1198 1.524 . S
C1195 C1187 1.503 . S
C1195 C1194 1.370 . S
C1195 C1196 1.403 . S
C1196 C1195 1.403 . S
C1196 C1197 1.404 . S
C1196 C1199 1.539 . S
C1197 C1193 1.408 . S
C1197 C1196 1.404 . S
C1197 H1209 0.930 . S
C1198 C1194 1.524 . S
C1198 H1210 0.956 . S
C1198 H1211 0.961 . S
C1198 H1212 0.961 . S
C1199 C1196 1.539 . S
C1199 H1213 0.958 . S
C1199 H1214 0.961 . S
C1199 H1215 0.960 . S
H1200 C1184 0.931 . S
H1201 C1189 0.929 . S
H1202 C1190 0.960 . S
H1203 C1190 0.962 . S
H1204 C1190 0.960 . S
H1205 C1191 0.961 . S
H1206 C1191 0.961 . S
H1207 C1191 0.961 . S
H1208 C1192 0.931 . S
H1209 C1197 0.930 . S
H1210 C1198 0.956 . S
H1211 C1198 0.961 . S
H1212 C1198 0.961 . S
H1213 C1199 0.958 . S
H1214 C1199 0.961 . S
H1215 C1199 0.960 . S
C1216 C1217 1.391 . S
C1216 C1218 1.394 . S
C1216 H1232 0.931 . S
C1217 C1216 1.391 . S
C1217 C1221 1.376 . S
C1218 C1216 1.394 . S
C1218 C1219 1.369 . S
C1218 C1222 1.531 . S
C1219 C1218 1.369 . S
C1219 C1220 1.410 . S
C1219 C1227 1.503 . S
C1220 C1219 1.410 . S
C1220 C1221 1.392 . S
C1220 C1223 1.511 . S
C1221 C1217 1.376 . S
C1221 C1220 1.392 . S
C1221 H1233 0.929 . S
C1222 C1218 1.531 . S
C1222 H1234 0.960 . S
C1222 H1235 0.962 . S
C1222 H1236 0.960 . S
C1223 C1220 1.511 . S
C1223 H1237 0.961 . S
C1223 H1238 0.961 . S
C1223 H1239 0.961 . S
C1224 C1225 1.370 . S
C1224 C1226 1.363 . S
C1224 H1240 0.931 . S
C1225 C1224 1.370 . S
C1225 C1229 1.408 . S
C1226 C1224 1.363 . S
C1226 C1227 1.370 . S
C1226 C1230 1.524 . S
C1227 C1219 1.503 . S
C1227 C1226 1.370 . S
C1227 C1228 1.403 . S
C1228 C1227 1.403 . S
C1228 C1229 1.404 . S
C1228 C1231 1.539 . S
C1229 C1225 1.408 . S
C1229 C1228 1.404 . S
C1229 H1241 0.930 . S
C1230 C1226 1.524 . S
C1230 H1242 0.956 . S
C1230 H1243 0.961 . S
C1230 H1244 0.961 . S
C1231 C1228 1.539 . S
C1231 H1245 0.958 . S
C1231 H1246 0.961 . S
C1231 H1247 0.960 . S
H1232 C1216 0.931 . S
H1233 C1221 0.929 . S
H1234 C1222 0.960 . S
H1235 C1222 0.962 . S
H1236 C1222 0.960 . S
H1237 C1223 0.961 . S
H1238 C1223 0.961 . S
H1239 C1223 0.961 . S
H1240 C1224 0.931 . S
H1241 C1229 0.930 . S
H1242 C1230 0.956 . S
H1243 C1230 0.961 . S
H1244 C1230 0.961 . S
H1245 C1231 0.958 . S
H1246 C1231 0.961 . S
H1247 C1231 0.960 . S
C1248 C1249 1.391 . S
C1248 C1250 1.394 . S
C1248 H1264 0.931 . S
C1249 C1248 1.391 . S
C1249 C1253 1.376 . S
C1250 C1248 1.394 . S
C1250 C1251 1.369 . S
C1250 C1254 1.531 . S
C1251 C1250 1.369 . S
C1251 C1252 1.410 . S
C1251 C1259 1.503 . S
C1252 C1251 1.410 . S
C1252 C1253 1.392 . S
C1252 C1255 1.511 . S
C1253 C1249 1.376 . S
C1253 C1252 1.392 . S
C1253 H1265 0.929 . S
C1254 C1250 1.531 . S
C1254 H1266 0.960 . S
C1254 H1267 0.962 . S
C1254 H1268 0.960 . S
C1255 C1252 1.511 . S
C1255 H1269 0.961 . S
C1255 H1270 0.961 . S
C1255 H1271 0.961 . S
C1256 C1257 1.370 . S
C1256 C1258 1.363 . S
C1256 H1272 0.931 . S
C1257 C1256 1.370 . S
C1257 C1261 1.408 . S
C1258 C1256 1.363 . S
C1258 C1259 1.370 . S
C1258 C1262 1.524 . S
C1259 C1251 1.503 . S
C1259 C1258 1.370 . S
C1259 C1260 1.403 . S
C1260 C1259 1.403 . S
C1260 C1261 1.404 . S
C1260 C1263 1.539 . S
C1261 C1257 1.408 . S
C1261 C1260 1.404 . S
C1261 H1273 0.930 . S
C1262 C1258 1.524 . S
C1262 H1274 0.956 . S
C1262 H1275 0.961 . S
C1262 H1276 0.961 . S
C1263 C1260 1.539 . S
C1263 H1277 0.958 . S
C1263 H1278 0.961 . S
C1263 H1279 0.960 . S
H1264 C1248 0.931 . S
H1265 C1253 0.929 . S
H1266 C1254 0.960 . S
H1267 C1254 0.962 . S
H1268 C1254 0.960 . S
H1269 C1255 0.961 . S
H1270 C1255 0.961 . S
H1271 C1255 0.961 . S
H1272 C1256 0.931 . S
H1273 C1261 0.930 . S
H1274 C1262 0.956 . S
H1275 C1262 0.961 . S
H1276 C1262 0.961 . S
H1277 C1263 0.958 . S
H1278 C1263 0.961 . S
H1279 C1263 0.960 . S
C1280 C1281 1.391 . S
C1280 C1282 1.394 . S
C1280 H1296 0.931 . S
C1281 C1280 1.391 . S
C1281 C1285 1.376 . S
C1282 C1280 1.394 . S
C1282 C1283 1.369 . S
C1282 C1286 1.531 . S
C1283 C1282 1.369 . S
C1283 C1284 1.410 . S
C1283 C1291 1.503 . S
C1284 C1283 1.410 . S
C1284 C1285 1.392 . S
C1284 C1287 1.511 . S
C1285 C1281 1.376 . S
C1285 C1284 1.392 . S
C1285 H1297 0.929 . S
C1286 C1282 1.531 . S
C1286 H1298 0.960 . S
C1286 H1299 0.962 . S
C1286 H1300 0.960 . S
C1287 C1284 1.511 . S
C1287 H1301 0.961 . S
C1287 H1302 0.961 . S
C1287 H1303 0.961 . S
C1288 C1289 1.370 . S
C1288 C1290 1.363 . S
C1288 H1304 0.931 . S
C1289 C1288 1.370 . S
C1289 C1293 1.408 . S
C1290 C1288 1.363 . S
C1290 C1291 1.370 . S
C1290 C1294 1.524 . S
C1291 C1283 1.503 . S
C1291 C1290 1.370 . S
C1291 C1292 1.403 . S
C1292 C1291 1.403 . S
C1292 C1293 1.404 . S
C1292 C1295 1.539 . S
C1293 C1289 1.408 . S
C1293 C1292 1.404 . S
C1293 H1305 0.930 . S
C1294 C1290 1.524 . S
C1294 H1306 0.956 . S
C1294 H1307 0.961 . S
C1294 H1308 0.961 . S
C1295 C1292 1.539 . S
C1295 H1309 0.958 . S
C1295 H1310 0.961 . S
C1295 H1311 0.960 . S
H1296 C1280 0.931 . S
H1297 C1285 0.929 . S
H1298 C1286 0.960 . S
H1299 C1286 0.962 . S
H1300 C1286 0.960 . S
H1301 C1287 0.961 . S
H1302 C1287 0.961 . S
H1303 C1287 0.961 . S
H1304 C1288 0.931 . S
H1305 C1293 0.930 . S
H1306 C1294 0.956 . S
H1307 C1294 0.961 . S
H1308 C1294 0.961 . S
H1309 C1295 0.958 . S
H1310 C1295 0.961 . S
H1311 C1295 0.960 . S
C1312 C1313 1.391 . S
C1312 C1314 1.394 . S
C1312 H1328 0.931 . S
C1313 C1312 1.391 . S
C1313 C1317 1.376 . S
C1314 C1312 1.394 . S
C1314 C1315 1.369 . S
C1314 C1318 1.531 . S
C1315 C1314 1.369 . S
C1315 C1316 1.410 . S
C1315 C1323 1.503 . S
C1316 C1315 1.410 . S
C1316 C1317 1.392 . S
C1316 C1319 1.511 . S
C1317 C1313 1.376 . S
C1317 C1316 1.392 . S
C1317 H1329 0.929 . S
C1318 C1314 1.531 . S
C1318 H1330 0.960 . S
C1318 H1331 0.962 . S
C1318 H1332 0.960 . S
C1319 C1316 1.511 . S
C1319 H1333 0.961 . S
C1319 H1334 0.961 . S
C1319 H1335 0.961 . S
C1320 C1321 1.370 . S
C1320 C1322 1.363 . S
C1320 H1336 0.931 . S
C1321 C1320 1.370 . S
C1321 C1325 1.408 . S
C1322 C1320 1.363 . S
C1322 C1323 1.370 . S
C1322 C1326 1.524 . S
C1323 C1315 1.503 . S
C1323 C1322 1.370 . S
C1323 C1324 1.403 . S
C1324 C1323 1.403 . S
C1324 C1325 1.404 . S
C1324 C1327 1.539 . S
C1325 C1321 1.408 . S
C1325 C1324 1.404 . S
C1325 H1337 0.930 . S
C1326 C1322 1.524 . S
C1326 H1338 0.956 . S
C1326 H1339 0.961 . S
C1326 H1340 0.961 . S
C1327 C1324 1.539 . S
C1327 H1341 0.958 . S
C1327 H1342 0.961 . S
C1327 H1343 0.960 . S
H1328 C1312 0.931 . S
H1329 C1317 0.929 . S
H1330 C1318 0.960 . S
H1331 C1318 0.962 . S
H1332 C1318 0.960 . S
H1333 C1319 0.961 . S
H1334 C1319 0.961 . S
H1335 C1319 0.961 . S
H1336 C1320 0.931 . S
H1337 C1325 0.930 . S
H1338 C1326 0.956 . S
H1339 C1326 0.961 . S
H1340 C1326 0.961 . S
H1341 C1327 0.958 . S
H1342 C1327 0.961 . S
H1343 C1327 0.960 . S
C1344 C1345 1.391 . S
C1344 C1346 1.394 . S
C1344 H1360 0.931 . S
C1345 C1344 1.391 . S
C1345 C1349 1.376 . S
C1346 C1344 1.394 . S
C1346 C1347 1.369 . S
C1346 C1350 1.531 . S
C1347 C1346 1.369 . S
C1347 C1348 1.410 . S
C1347 C1355 1.503 . S
C1348 C1347 1.410 . S
C1348 C1349 1.392 . S
C1348 C1351 1.511 . S
C1349 C1345 1.376 . S
C1349 C1348 1.392 . S
C1349 H1361 0.929 . S
C1350 C1346 1.531 . S
C1350 H1362 0.960 . S
C1350 H1363 0.962 . S
C1350 H1364 0.960 . S
C1351 C1348 1.511 . S
C1351 H1365 0.961 . S
C1351 H1366 0.961 . S
C1351 H1367 0.961 . S
C1352 C1353 1.370 . S
C1352 C1354 1.363 . S
C1352 H1368 0.931 . S
C1353 C1352 1.370 . S
C1353 C1357 1.408 . S
C1354 C1352 1.363 . S
C1354 C1355 1.370 . S
C1354 C1358 1.524 . S
C1355 C1347 1.503 . S
C1355 C1354 1.370 . S
C1355 C1356 1.403 . S
C1356 C1355 1.403 . S
C1356 C1357 1.404 . S
C1356 C1359 1.539 . S
C1357 C1353 1.408 . S
C1357 C1356 1.404 . S
C1357 H1369 0.930 . S
C1358 C1354 1.524 . S
C1358 H1370 0.956 . S
C1358 H1371 0.961 . S
C1358 H1372 0.961 . S
C1359 C1356 1.539 . S
C1359 H1373 0.958 . S
C1359 H1374 0.961 . S
C1359 H1375 0.960 . S
H1360 C1344 0.931 . S
H1361 C1349 0.929 . S
H1362 C1350 0.960 . S
H1363 C1350 0.962 . S
H1364 C1350 0.960 . S
H1365 C1351 0.961 . S
H1366 C1351 0.961 . S
H1367 C1351 0.961 . S
H1368 C1352 0.931 . S
H1369 C1357 0.930 . S
H1370 C1358 0.956 . S
H1371 C1358 0.961 . S
H1372 C1358 0.961 . S
H1373 C1359 0.958 . S
H1374 C1359 0.961 . S
H1375 C1359 0.960 . S
C1376 C1377 1.391 . S
C1376 C1378 1.394 . S
C1376 H1392 0.931 . S
C1377 C1376 1.391 . S
C1377 C1381 1.376 . S
C1378 C1376 1.394 . S
C1378 C1379 1.369 . S
C1378 C1382 1.531 . S
C1379 C1378 1.369 . S
C1379 C1380 1.410 . S
C1379 C1387 1.503 . S
C1380 C1379 1.410 . S
C1380 C1381 1.392 . S
C1380 C1383 1.511 . S
C1381 C1377 1.376 . S
C1381 C1380 1.392 . S
C1381 H1393 0.929 . S
C1382 C1378 1.531 . S
C1382 H1394 0.960 . S
C1382 H1395 0.962 . S
C1382 H1396 0.960 . S
C1383 C1380 1.511 . S
C1383 H1397 0.961 . S
C1383 H1398 0.961 . S
C1383 H1399 0.961 . S
C1384 C1385 1.370 . S
C1384 C1386 1.363 . S
C1384 H1400 0.931 . S
C1385 C1384 1.370 . S
C1385 C1389 1.408 . S
C1386 C1384 1.363 . S
C1386 C1387 1.370 . S
C1386 C1390 1.524 . S
C1387 C1379 1.503 . S
C1387 C1386 1.370 . S
C1387 C1388 1.403 . S
C1388 C1387 1.403 . S
C1388 C1389 1.404 . S
C1388 C1391 1.539 . S
C1389 C1385 1.408 . S
C1389 C1388 1.404 . S
C1389 H1401 0.930 . S
C1390 C1386 1.524 . S
C1390 H1402 0.956 . S
C1390 H1403 0.961 . S
C1390 H1404 0.961 . S
C1391 C1388 1.539 . S
C1391 H1405 0.958 . S
C1391 H1406 0.961 . S
C1391 H1407 0.960 . S
H1392 C1376 0.931 . S
H1393 C1381 0.929 . S
H1394 C1382 0.960 . S
H1395 C1382 0.962 . S
H1396 C1382 0.960 . S
H1397 C1383 0.961 . S
H1398 C1383 0.961 . S
H1399 C1383 0.961 . S
H1400 C1384 0.931 . S
H1401 C1389 0.930 . S
H1402 C1390 0.956 . S
H1403 C1390 0.961 . S
H1404 C1390 0.961 . S
H1405 C1391 0.958 . S
H1406 C1391 0.961 . S
H1407 C1391 0.960 . S
C1408 C1409 1.391 . S
C1408 C1410 1.394 . S
C1408 H1424 0.931 . S
C1409 C1408 1.391 . S
C1409 C1413 1.376 . S
C1410 C1408 1.394 . S
C1410 C1411 1.369 . S
C1410 C1414 1.531 . S
C1411 C1410 1.369 . S
C1411 C1412 1.410 . S
C1411 C1419 1.503 . S
C1412 C1411 1.410 . S
C1412 C1413 1.392 . S
C1412 C1415 1.511 . S
C1413 C1409 1.376 . S
C1413 C1412 1.392 . S
C1413 H1425 0.929 . S
C1414 C1410 1.531 . S
C1414 H1426 0.960 . S
C1414 H1427 0.962 . S
C1414 H1428 0.960 . S
C1415 C1412 1.511 . S
C1415 H1429 0.961 . S
C1415 H1430 0.961 . S
C1415 H1431 0.961 . S
C1416 C1417 1.370 . S
C1416 C1418 1.363 . S
C1416 H1432 0.931 . S
C1417 C1416 1.370 . S
C1417 C1421 1.408 . S
C1418 C1416 1.363 . S
C1418 C1419 1.370 . S
C1418 C1422 1.524 . S
C1419 C1411 1.503 . S
C1419 C1418 1.370 . S
C1419 C1420 1.403 . S
C1420 C1419 1.403 . S
C1420 C1421 1.404 . S
C1420 C1423 1.539 . S
C1421 C1417 1.408 . S
C1421 C1420 1.404 . S
C1421 H1433 0.930 . S
C1422 C1418 1.524 . S
C1422 H1434 0.956 . S
C1422 H1435 0.961 . S
C1422 H1436 0.961 . S
C1423 C1420 1.539 . S
C1423 H1437 0.958 . S
C1423 H1438 0.961 . S
C1423 H1439 0.960 . S
H1424 C1408 0.931 . S
H1425 C1413 0.929 . S
H1426 C1414 0.960 . S
H1427 C1414 0.962 . S
H1428 C1414 0.960 . S
H1429 C1415 0.961 . S
H1430 C1415 0.961 . S
H1431 C1415 0.961 . S
H1432 C1416 0.931 . S
H1433 C1421 0.930 . S
H1434 C1422 0.956 . S
H1435 C1422 0.961 . S
H1436 C1422 0.961 . S
H1437 C1423 0.958 . S
H1438 C1423 0.961 . S
H1439 C1423 0.960 . S
C1440 C1441 1.391 . S
C1440 C1442 1.394 . S
C1440 H1456 0.931 . S
C1441 C1440 1.391 . S
C1441 C1445 1.376 . S
C1442 C1440 1.394 . S
C1442 C1443 1.369 . S
C1442 C1446 1.531 . S
C1443 C1442 1.369 . S
C1443 C1444 1.410 . S
C1443 C1451 1.503 . S
C1444 C1443 1.410 . S
C1444 C1445 1.392 . S
C1444 C1447 1.511 . S
C1445 C1441 1.376 . S
C1445 C1444 1.392 . S
C1445 H1457 0.929 . S
C1446 C1442 1.531 . S
C1446 H1458 0.960 . S
C1446 H1459 0.962 . S
C1446 H1460 0.960 . S
C1447 C1444 1.511 . S
C1447 H1461 0.961 . S
C1447 H1462 0.961 . S
C1447 H1463 0.961 . S
C1448 C1449 1.370 . S
C1448 C1450 1.363 . S
C1448 H1464 0.931 . S
C1449 C1448 1.370 . S
C1449 C1453 1.408 . S
C1450 C1448 1.363 . S
C1450 C1451 1.370 . S
C1450 C1454 1.524 . S
C1451 C1443 1.503 . S
C1451 C1450 1.370 . S
C1451 C1452 1.403 . S
C1452 C1451 1.403 . S
C1452 C1453 1.404 . S
C1452 C1455 1.539 . S
C1453 C1449 1.408 . S
C1453 C1452 1.404 . S
C1453 H1465 0.930 . S
C1454 C1450 1.524 . S
C1454 H1466 0.956 . S
C1454 H1467 0.961 . S
C1454 H1468 0.961 . S
C1455 C1452 1.539 . S
C1455 H1469 0.958 . S
C1455 H1470 0.961 . S
C1455 H1471 0.960 . S
H1456 C1440 0.931 . S
H1457 C1445 0.929 . S
H1458 C1446 0.960 . S
H1459 C1446 0.962 . S
H1460 C1446 0.960 . S
H1461 C1447 0.961 . S
H1462 C1447 0.961 . S
H1463 C1447 0.961 . S
H1464 C1448 0.931 . S
H1465 C1453 0.930 . S
H1466 C1454 0.956 . S
H1467 C1454 0.961 . S
H1468 C1454 0.961 . S
H1469 C1455 0.958 . S
H1470 C1455 0.961 . S
H1471 C1455 0.960 . S
C1472 C1473 1.391 . S
C1472 C1474 1.394 . S
C1472 H1488 0.931 . S
C1473 C1472 1.391 . S
C1473 C1477 1.376 . S
C1474 C1472 1.394 . S
C1474 C1475 1.369 . S
C1474 C1478 1.531 . S
C1475 C1474 1.369 . S
C1475 C1476 1.410 . S
C1475 C1483 1.503 . S
C1476 C1475 1.410 . S
C1476 C1477 1.392 . S
C1476 C1479 1.511 . S
C1477 C1473 1.376 . S
C1477 C1476 1.392 . S
C1477 H1489 0.929 . S
C1478 C1474 1.531 . S
C1478 H1490 0.960 . S
C1478 H1491 0.962 . S
C1478 H1492 0.960 . S
C1479 C1476 1.511 . S
C1479 H1493 0.961 . S
C1479 H1494 0.961 . S
C1479 H1495 0.961 . S
C1480 C1481 1.370 . S
C1480 C1482 1.363 . S
C1480 H1496 0.931 . S
C1481 C1480 1.370 . S
C1481 C1485 1.408 . S
C1482 C1480 1.363 . S
C1482 C1483 1.370 . S
C1482 C1486 1.524 . S
C1483 C1475 1.503 . S
C1483 C1482 1.370 . S
C1483 C1484 1.403 . S
C1484 C1483 1.403 . S
C1484 C1485 1.404 . S
C1484 C1487 1.539 . S
C1485 C1481 1.408 . S
C1485 C1484 1.404 . S
C1485 H1497 0.930 . S
C1486 C1482 1.524 . S
C1486 H1498 0.956 . S
C1486 H1499 0.961 . S
C1486 H1500 0.961 . S
C1487 C1484 1.539 . S
C1487 H1501 0.958 . S
C1487 H1502 0.961 . S
C1487 H1503 0.960 . S
H1488 C1472 0.931 . S
H1489 C1477 0.929 . S
H1490 C1478 0.960 . S
H1491 C1478 0.962 . S
H1492 C1478 0.960 . S
H1493 C1479 0.961 . S
H1494 C1479 0.961 . S
H1495 C1479 0.961 . S
H1496 C1480 0.931 . S
H1497 C1485 0.930 . S
H1498 C1486 0.956 . S
H1499 C1486 0.961 . S
H1500 C1486 0.961 . S
H1501 C1487 0.958 . S
H1502 C1487 0.961 . S
H1503 C1487 0.960 . S
C1504 C1505 1.391 . S
C1504 C1506 1.394 . S
C1504 H1520 0.931 . S
C1505 C1504 1.391 . S
C1505 C1509 1.376 . S
C1506 C1504 1.394 . S
C1506 C1507 1.369 . S
C1506 C1510 1.531 1_556 S
C1507 C1506 1.369 . S
C1507 C1508 1.410 . S
C1507 C1515 1.503 1_556 S
C1508 C1507 1.410 . S
C1508 C1509 1.392 . S
C1508 C1511 1.511 . S
C1509 C1505 1.376 . S
C1509 C1508 1.392 . S
C1509 H1521 0.929 . S
C1510 C1506 1.531 1_554 S
C1510 H1522 0.960 . S
C1510 H1523 0.962 . S
C1510 H1524 0.960 . S
C1511 C1508 1.511 . S
C1511 H1525 0.961 . S
C1511 H1526 0.961 . S
C1511 H1527 0.961 . S
C1512 C1513 1.370 . S
C1512 C1514 1.363 . S
C1512 H1528 0.931 . S
C1513 C1512 1.370 . S
C1513 C1517 1.408 . S
C1514 C1512 1.363 . S
C1514 C1515 1.370 . S
C1514 C1518 1.524 . S
C1515 C1507 1.503 1_554 S
C1515 C1514 1.370 . S
C1515 C1516 1.403 . S
C1516 C1515 1.403 . S
C1516 C1517 1.404 . S
C1516 C1519 1.539 . S
C1517 C1513 1.408 . S
C1517 C1516 1.404 . S
C1517 H1529 0.930 . S
C1518 C1514 1.524 . S
C1518 H1530 0.956 . S
C1518 H1531 0.961 1_554 S
C1518 H1532 0.961 . S
C1519 C1516 1.539 . S
C1519 H1533 0.958 . S
C1519 H1534 0.961 . S
C1519 H1535 0.960 1_554 S
H1520 C1504 0.931 . S
H1521 C1509 0.929 . S
H1522 C1510 0.960 . S
H1523 C1510 0.962 . S
H1524 C1510 0.960 . S
H1525 C1511 0.961 . S
H1526 C1511 0.961 . S
H1527 C1511 0.961 . S
H1528 C1512 0.931 . S
H1529 C1517 0.930 . S
H1530 C1518 0.956 . S
H1531 C1518 0.961 1_556 S
H1532 C1518 0.961 . S
H1533 C1519 0.958 . S
H1534 C1519 0.961 . S
H1535 C1519 0.960 1_556 S
C1536 C1537 1.391 . S
C1536 C1538 1.394 . S
C1536 H1552 0.931 . S
C1537 C1536 1.391 . S
C1537 C1541 1.376 . S
C1538 C1536 1.394 . S
C1538 C1539 1.369 . S
C1538 C1542 1.531 . S
C1539 C1538 1.369 . S
C1539 C1540 1.410 . S
C1539 C1547 1.503 1_554 S
C1540 C1539 1.410 . S
C1540 C1541 1.392 . S
C1540 C1543 1.511 1_554 S
C1541 C1537 1.376 . S
C1541 C1540 1.392 . S
C1541 H1553 0.929 . S
C1542 C1538 1.531 . S
C1542 H1554 0.960 . S
C1542 H1555 0.962 . S
C1542 H1556 0.960 . S
C1543 C1540 1.511 1_556 S
C1543 H1557 0.961 . S
C1543 H1558 0.961 . S
C1543 H1559 0.961 . S
C1544 C1545 1.370 . S
C1544 C1546 1.363 . S
C1544 H1560 0.931 . S
C1545 C1544 1.370 . S
C1545 C1549 1.408 . S
C1546 C1544 1.363 . S
C1546 C1547 1.370 . S
C1546 C1550 1.524 . S
C1547 C1539 1.503 1_556 S
C1547 C1546 1.370 . S
C1547 C1548 1.403 . S
C1548 C1547 1.403 . S
C1548 C1549 1.404 . S
C1548 C1551 1.539 . S
C1549 C1545 1.408 . S
C1549 C1548 1.404 . S
C1549 H1561 0.930 . S
C1550 C1546 1.524 . S
C1550 H1562 0.956 1_556 S
C1550 H1563 0.961 . S
C1550 H1564 0.961 . S
C1551 C1548 1.539 . S
C1551 H1565 0.958 . S
C1551 H1566 0.961 . S
C1551 H1567 0.960 . S
H1552 C1536 0.931 . S
H1553 C1541 0.929 . S
H1554 C1542 0.960 . S
H1555 C1542 0.962 . S
H1556 C1542 0.960 . S
H1557 C1543 0.961 . S
H1558 C1543 0.961 . S
H1559 C1543 0.961 . S
H1560 C1544 0.931 . S
H1561 C1549 0.930 . S
H1562 C1550 0.956 1_554 S
H1563 C1550 0.961 . S
H1564 C1550 0.961 . S
H1565 C1551 0.958 . S
H1566 C1551 0.961 . S
H1567 C1551 0.960 . S
C1568 C1569 1.391 . S
C1568 C1570 1.394 . S
C1568 H1584 0.931 . S
C1569 C1568 1.391 . S
C1569 C1573 1.376 . S
C1570 C1568 1.394 . S
C1570 C1571 1.369 . S
C1570 C1574 1.531 . S
C1571 C1570 1.369 . S
C1571 C1572 1.410 . S
C1571 C1579 1.503 1_556 S
C1572 C1571 1.410 . S
C1572 C1573 1.392 . S
C1572 C1575 1.511 . S
C1573 C1569 1.376 . S
C1573 C1572 1.392 . S
C1573 H1585 0.929 . S
C1574 C1570 1.531 . S
C1574 H1586 0.960 . S
C1574 H1587 0.962 1_556 S
C1574 H1588 0.960 . S
C1575 C1572 1.511 . S
C1575 H1589 0.961 . S
C1575 H1590 0.961 . S
C1575 H1591 0.961 . S
C1576 C1577 1.370 . S
C1576 C1578 1.363 . S
C1576 H1592 0.931 . S
C1577 C1576 1.370 . S
C1577 C1581 1.408 . S
C1578 C1576 1.363 . S
C1578 C1579 1.370 . S
C1578 C1582 1.524 . S
C1579 C1571 1.503 1_554 S
C1579 C1578 1.370 . S
C1579 C1580 1.403 . S
C1580 C1579 1.403 . S
C1580 C1581 1.404 . S
C1580 C1583 1.539 1_554 S
C1581 C1577 1.408 . S
C1581 C1580 1.404 . S
C1581 H1593 0.930 . S
C1582 C1578 1.524 . S
C1582 H1594 0.956 . S
C1582 H1595 0.961 . S
C1582 H1596 0.961 . S
C1583 C1580 1.539 1_556 S
C1583 H1597 0.958 . S
C1583 H1598 0.961 . S
C1583 H1599 0.960 . S
H1584 C1568 0.931 . S
H1585 C1573 0.929 . S
H1586 C1574 0.960 . S
H1587 C1574 0.962 1_554 S
H1588 C1574 0.960 . S
H1589 C1575 0.961 . S
H1590 C1575 0.961 . S
H1591 C1575 0.961 . S
H1592 C1576 0.931 . S
H1593 C1581 0.930 . S
H1594 C1582 0.956 . S
H1595 C1582 0.961 . S
H1596 C1582 0.961 . S
H1597 C1583 0.958 . S
H1598 C1583 0.961 . S
H1599 C1583 0.960 . S
C1600 C1601 1.391 . S
C1600 C1602 1.394 . S
C1600 H1616 0.931 . S
C1601 C1600 1.391 . S
C1601 C1605 1.376 . S
C1602 C1600 1.394 . S
C1602 C1603 1.369 . S
C1602 C1606 1.531 . S
C1603 C1602 1.369 . S
C1603 C1604 1.410 . S
C1603 C1611 1.503 1_554 S
C1604 C1603 1.410 . S
C1604 C1605 1.392 . S
C1604 C1607 1.497 1_554 S
C1605 C1601 1.376 . S
C1605 C1604 1.392 . S
C1605 H1617 0.929 . S
C1606 C1602 1.531 . S
C1606 H1618 0.960 . S
C1606 H1619 0.962 . S
C1606 H1620 0.960 . S
C1607 C1604 1.497 1_556 S
C1607 H1621 0.959 1_556 S
C1607 H1622 0.986 . S
C1607 H1623 0.952 1_556 S
C1608 C1609 1.370 . S
C1608 C1610 1.363 . S
C1608 H1624 0.931 . S
C1609 C1608 1.370 . S
C1609 C1613 1.408 . S
C1610 C1608 1.363 . S
C1610 C1611 1.370 . S
C1610 C1614 1.524 . S
C1611 C1603 1.503 1_556 S
C1611 C1610 1.370 . S
C1611 C1612 1.403 . S
C1612 C1611 1.403 . S
C1612 C1613 1.404 . S
C1612 C1615 1.539 1_556 S
C1613 C1609 1.408 . S
C1613 C1612 1.404 . S
C1613 H1625 0.930 . S
C1614 C1610 1.524 . S
C1614 H1626 0.956 . S
C1614 H1627 0.961 . S
C1614 H1628 0.961 . S
C1615 C1612 1.539 1_554 S
C1615 H1629 0.958 . S
C1615 H1630 0.961 . S
C1615 H1631 0.960 . S
H1616 C1600 0.931 . S
H1617 C1605 0.929 . S
H1618 C1606 0.960 . S
H1619 C1606 0.962 . S
H1620 C1606 0.960 . S
H1621 C1607 0.959 1_554 S
H1622 C1607 0.986 . S
H1623 C1607 0.952 1_554 S
H1624 C1608 0.931 . S
H1625 C1613 0.930 . S
H1626 C1614 0.956 . S
H1627 C1614 0.961 . S
H1628 C1614 0.961 . S
H1629 C1615 0.958 . S
H1630 C1615 0.961 . S
H1631 C1615 0.960 . S
C1632 C1633 1.391 . S
C1632 C1634 1.394 . S
C1632 H1648 0.931 . S
C1633 C1632 1.391 . S
C1633 C1637 1.376 . S
C1634 C1632 1.394 . S
C1634 C1635 1.369 . S
C1634 C1638 1.531 . S
C1635 C1634 1.369 . S
C1635 C1636 1.410 . S
C1635 C1643 1.503 . S
C1636 C1635 1.410 . S
C1636 C1637 1.392 . S
C1636 C1639 1.511 . S
C1637 C1633 1.376 . S
C1637 C1636 1.392 . S
C1637 H1649 0.929 . S
C1638 C1634 1.531 . S
C1638 H1650 0.960 . S
C1638 H1651 0.962 . S
C1638 H1652 0.960 . S
C1639 C1636 1.511 . S
C1639 H1653 0.961 . S
C1639 H1654 0.961 . S
C1639 H1655 0.961 . S
C1640 C1641 1.370 . S
C1640 C1642 1.363 . S
C1640 H1656 0.931 . S
C1641 C1640 1.370 . S
C1641 C1645 1.408 . S
C1642 C1640 1.363 . S
C1642 C1643 1.370 . S
C1642 C1646 1.524 . S
C1643 C1635 1.503 . S
C1643 C1642 1.370 . S
C1643 C1644 1.403 . S
C1644 C1643 1.403 . S
C1644 C1645 1.404 . S
C1644 C1647 1.539 . S
C1645 C1641 1.408 . S
C1645 C1644 1.404 . S
C1645 H1657 0.930 . S
C1646 C1642 1.524 . S
C1646 H1658 0.956 . S
C1646 H1659 0.961 . S
C1646 H1660 0.961 . S
C1647 C1644 1.539 . S
C1647 H1661 0.958 . S
C1647 H1662 0.961 . S
C1647 H1663 0.960 . S
H1648 C1632 0.931 . S
H1649 C1637 0.929 . S
H1650 C1638 0.960 . S
H1651 C1638 0.962 . S
H1652 C1638 0.960 . S
H1653 C1639 0.961 . S
H1654 C1639 0.961 . S
H1655 C1639 0.961 . S
H1656 C1640 0.931 . S
H1657 C1645 0.930 . S
H1658 C1646 0.956 . S
H1659 C1646 0.961 . S
H1660 C1646 0.961 . S
H1661 C1647 0.958 . S
H1662 C1647 0.961 . S
H1663 C1647 0.960 . S
C1664 C1665 1.391 . S
C1664 C1666 1.394 . S
C1664 H1680 0.931 . S
C1665 C1664 1.391 . S
C1665 C1669 1.376 . S
C1666 C1664 1.394 . S
C1666 C1667 1.369 . S
C1666 C1670 1.531 . S
C1667 C1666 1.369 . S
C1667 C1668 1.410 . S
C1667 C1675 1.503 . S
C1668 C1667 1.410 . S
C1668 C1669 1.392 . S
C1668 C1671 1.511 . S
C1669 C1665 1.376 . S
C1669 C1668 1.392 . S
C1669 H1681 0.929 . S
C1670 C1666 1.531 . S
C1670 H1682 0.960 . S
C1670 H1683 0.962 . S
C1670 H1684 0.960 . S
C1671 C1668 1.511 . S
C1671 H1685 0.961 . S
C1671 H1686 0.961 . S
C1671 H1687 0.961 . S
C1672 C1673 1.370 . S
C1672 C1674 1.363 . S
C1672 H1688 0.931 . S
C1673 C1672 1.370 . S
C1673 C1677 1.408 . S
C1674 C1672 1.363 . S
C1674 C1675 1.370 . S
C1674 C1678 1.524 . S
C1675 C1667 1.503 . S
C1675 C1674 1.370 . S
C1675 C1676 1.403 . S
C1676 C1675 1.403 . S
C1676 C1677 1.404 . S
C1676 C1679 1.539 . S
C1677 C1673 1.408 . S
C1677 C1676 1.404 . S
C1677 H1689 0.930 . S
C1678 C1674 1.524 . S
C1678 H1690 0.956 . S
C1678 H1691 0.961 . S
C1678 H1692 0.961 . S
C1679 C1676 1.539 . S
C1679 H1693 0.958 . S
C1679 H1694 0.961 . S
C1679 H1695 0.960 . S
H1680 C1664 0.931 . S
H1681 C1669 0.929 . S
H1682 C1670 0.960 . S
H1683 C1670 0.962 . S
H1684 C1670 0.960 . S
H1685 C1671 0.961 . S
H1686 C1671 0.961 . S
H1687 C1671 0.961 . S
H1688 C1672 0.931 . S
H1689 C1677 0.930 . S
H1690 C1678 0.956 . S
H1691 C1678 0.961 . S
H1692 C1678 0.961 . S
H1693 C1679 0.958 . S
H1694 C1679 0.961 . S
H1695 C1679 0.960 . S
C1696 C1697 1.391 . S
C1696 C1698 1.394 . S
C1696 H1712 0.931 . S
C1697 C1696 1.391 . S
C1697 C1701 1.376 . S
C1698 C1696 1.394 . S
C1698 C1699 1.369 . S
C1698 C1702 1.531 . S
C1699 C1698 1.369 . S
C1699 C1700 1.410 . S
C1699 C1707 1.503 . S
C1700 C1699 1.410 . S
C1700 C1701 1.392 . S
C1700 C1703 1.511 . S
C1701 C1697 1.376 . S
C1701 C1700 1.392 . S
C1701 H1713 0.929 . S
C1702 C1698 1.531 . S
C1702 H1714 0.960 . S
C1702 H1715 0.962 . S
C1702 H1716 0.960 . S
C1703 C1700 1.511 . S
C1703 H1717 0.961 . S
C1703 H1718 0.961 . S
C1703 H1719 0.961 . S
C1704 C1705 1.370 . S
C1704 C1706 1.363 . S
C1704 H1720 0.931 . S
C1705 C1704 1.370 . S
C1705 C1709 1.408 . S
C1706 C1704 1.363 . S
C1706 C1707 1.370 . S
C1706 C1710 1.524 . S
C1707 C1699 1.503 . S
C1707 C1706 1.370 . S
C1707 C1708 1.403 . S
C1708 C1707 1.403 . S
C1708 C1709 1.404 . S
C1708 C1711 1.539 . S
C1709 C1705 1.408 . S
C1709 C1708 1.404 . S
C1709 H1721 0.930 . S
C1710 C1706 1.524 . S
C1710 H1722 0.956 . S
C1710 H1723 0.961 . S
C1710 H1724 0.961 . S
C1711 C1708 1.539 . S
C1711 H1725 0.958 . S
C1711 H1726 0.961 . S
C1711 H1727 0.960 . S
H1712 C1696 0.931 . S
H1713 C1701 0.929 . S
H1714 C1702 0.960 . S
H1715 C1702 0.962 . S
H1716 C1702 0.960 . S
H1717 C1703 0.961 . S
H1718 C1703 0.961 . S
H1719 C1703 0.961 . S
H1720 C1704 0.931 . S
H1721 C1709 0.930 . S
H1722 C1710 0.956 . S
H1723 C1710 0.961 . S
H1724 C1710 0.961 . S
H1725 C1711 0.958 . S
H1726 C1711 0.961 . S
H1727 C1711 0.960 . S
C1728 C1729 1.391 . S
C1728 C1730 1.394 . S
C1728 H1744 0.931 . S
C1729 C1728 1.391 . S
C1729 C1733 1.376 . S
C1730 C1728 1.394 . S
C1730 C1731 1.369 . S
C1730 C1734 1.531 . S
C1731 C1730 1.369 . S
C1731 C1732 1.410 . S
C1731 C1739 1.503 . S
C1732 C1731 1.410 . S
C1732 C1733 1.392 . S
C1732 C1735 1.511 . S
C1733 C1729 1.376 . S
C1733 C1732 1.392 . S
C1733 H1745 0.929 . S
C1734 C1730 1.531 . S
C1734 H1746 0.960 . S
C1734 H1747 0.962 . S
C1734 H1748 0.960 . S
C1735 C1732 1.511 . S
C1735 H1749 0.961 . S
C1735 H1750 0.961 . S
C1735 H1751 0.961 . S
C1736 C1737 1.370 . S
C1736 C1738 1.363 . S
C1736 H1752 0.931 . S
C1737 C1736 1.370 . S
C1737 C1741 1.408 . S
C1738 C1736 1.363 . S
C1738 C1739 1.370 . S
C1738 C1742 1.524 . S
C1739 C1731 1.503 . S
C1739 C1738 1.370 . S
C1739 C1740 1.403 . S
C1740 C1739 1.403 . S
C1740 C1741 1.404 . S
C1740 C1743 1.539 . S
C1741 C1737 1.408 . S
C1741 C1740 1.404 . S
C1741 H1753 0.930 . S
C1742 C1738 1.524 . S
C1742 H1754 0.956 . S
C1742 H1755 0.961 . S
C1742 H1756 0.961 . S
C1743 C1740 1.539 . S
C1743 H1757 0.958 . S
C1743 H1758 0.961 . S
C1743 H1759 0.960 . S
H1744 C1728 0.931 . S
H1745 C1733 0.929 . S
H1746 C1734 0.960 . S
H1747 C1734 0.962 . S
H1748 C1734 0.960 . S
H1749 C1735 0.961 . S
H1750 C1735 0.961 . S
H1751 C1735 0.961 . S
H1752 C1736 0.931 . S
H1753 C1741 0.930 . S
H1754 C1742 0.956 . S
H1755 C1742 0.961 . S
H1756 C1742 0.961 . S
H1757 C1743 0.958 . S
H1758 C1743 0.961 . S
H1759 C1743 0.960 . S
C1760 C1761 1.391 . S
C1760 C1762 1.394 . S
C1760 H1776 0.931 . S
C1761 C1760 1.391 . S
C1761 C1765 1.376 . S
C1762 C1760 1.394 . S
C1762 C1763 1.369 . S
C1762 C1766 1.531 . S
C1763 C1762 1.369 . S
C1763 C1764 1.410 . S
C1763 C1771 1.503 1_556 S
C1764 C1763 1.410 . S
C1764 C1765 1.392 . S
C1764 C1767 1.511 1_556 S
C1765 C1761 1.376 . S
C1765 C1764 1.392 . S
C1765 H1777 0.929 . S
C1766 C1762 1.531 . S
C1766 H1778 0.960 . S
C1766 H1779 0.962 . S
C1766 H1780 0.960 . S
C1767 C1764 1.511 1_554 S
C1767 H1781 0.961 . S
C1767 H1782 0.961 . S
C1767 H1783 0.961 . S
C1768 C1769 1.370 . S
C1768 C1770 1.363 . S
C1768 H1784 0.931 . S
C1769 C1768 1.370 . S
C1769 C1773 1.408 . S
C1770 C1768 1.363 . S
C1770 C1771 1.370 . S
C1770 C1774 1.524 . S
C1771 C1763 1.503 1_554 S
C1771 C1770 1.370 . S
C1771 C1772 1.403 . S
C1772 C1771 1.403 . S
C1772 C1773 1.404 . S
C1772 C1775 1.539 . S
C1773 C1769 1.408 . S
C1773 C1772 1.404 . S
C1773 H1785 0.930 . S
C1774 C1770 1.524 . S
C1774 H1786 0.956 1_554 S
C1774 H1787 0.961 . S
C1774 H1788 0.961 . S
C1775 C1772 1.539 . S
C1775 H1789 0.958 . S
C1775 H1790 0.961 . S
C1775 H1791 0.960 . S
H1776 C1760 0.931 . S
H1777 C1765 0.929 . S
H1778 C1766 0.960 . S
H1779 C1766 0.962 . S
H1780 C1766 0.960 . S
H1781 C1767 0.961 . S
H1782 C1767 0.961 . S
H1783 C1767 0.961 . S
H1784 C1768 0.931 . S
H1785 C1773 0.930 . S
H1786 C1774 0.956 1_556 S
H1787 C1774 0.961 . S
H1788 C1774 0.961 . S
H1789 C1775 0.958 . S
H1790 C1775 0.961 . S
H1791 C1775 0.960 . S
C1792 C1793 1.391 . S
C1792 C1794 1.394 . S
C1792 H1808 0.931 . S
C1793 C1792 1.391 . S
C1793 C1797 1.376 . S
C1794 C1792 1.394 . S
C1794 C1795 1.369 . S
C1794 C1798 1.531 . S
C1795 C1794 1.369 . S
C1795 C1796 1.410 . S
C1795 C1803 1.503 1_556 S
C1796 C1795 1.410 . S
C1796 C1797 1.392 . S
C1796 C1799 1.527 . S
C1797 C1793 1.376 . S
C1797 C1796 1.392 . S
C1797 H1809 0.929 . S
C1798 C1794 1.531 . S
C1798 H1810 0.960 1_556 S
C1798 H1811 0.962 . S
C1798 H1812 0.960 . S
C1799 C1796 1.527 . S
C1799 H1813 0.984 . S
C1799 H1814 0.945 1_556 S
C1799 H1815 0.939 1_556 S
C1800 C1801 1.370 . S
C1800 C1802 1.363 . S
C1800 H1816 0.931 . S
C1801 C1800 1.370 . S
C1801 C1805 1.408 . S
C1802 C1800 1.363 . S
C1802 C1803 1.370 . S
C1802 C1806 1.524 1_554 S
C1803 C1795 1.503 1_554 S
C1803 C1802 1.370 . S
C1803 C1804 1.403 . S
C1804 C1803 1.403 . S
C1804 C1805 1.404 . S
C1804 C1807 1.539 . S
C1805 C1801 1.408 . S
C1805 C1804 1.404 . S
C1805 H1817 0.930 . S
C1806 C1802 1.524 1_556 S
C1806 H1818 0.956 . S
C1806 H1819 0.961 . S
C1806 H1820 0.961 . S
C1807 C1804 1.539 . S
C1807 H1821 0.958 . S
C1807 H1822 0.961 . S
C1807 H1823 0.960 . S
H1808 C1792 0.931 . S
H1809 C1797 0.929 . S
H1810 C1798 0.960 1_554 S
H1811 C1798 0.962 . S
H1812 C1798 0.960 . S
H1813 C1799 0.984 . S
H1814 C1799 0.945 1_554 S
H1815 C1799 0.939 1_554 S
H1816 C1800 0.931 . S
H1817 C1805 0.930 . S
H1818 C1806 0.956 . S
H1819 C1806 0.961 . S
H1820 C1806 0.961 . S
H1821 C1807 0.958 . S
H1822 C1807 0.961 . S
H1823 C1807 0.960 . S
C1824 C1825 1.391 . S
C1824 C1826 1.394 . S
C1824 H1840 0.931 . S
C1825 C1824 1.391 . S
C1825 C1829 1.376 . S
C1826 C1824 1.394 . S
C1826 C1827 1.369 . S
C1826 C1830 1.531 . S
C1827 C1826 1.369 . S
C1827 C1828 1.410 . S
C1827 C1835 1.503 1_554 S
C1828 C1827 1.410 . S
C1828 C1829 1.392 . S
C1828 C1831 1.511 1_554 S
C1829 C1825 1.376 . S
C1829 C1828 1.392 . S
C1829 H1841 0.929 . S
C1830 C1826 1.531 . S
C1830 H1842 0.960 . S
C1830 H1843 0.962 . S
C1830 H1844 0.960 . S
C1831 C1828 1.511 1_556 S
C1831 H1845 0.961 1_556 S
C1831 H1846 0.961 . S
C1831 H1847 0.961 . S
C1832 C1833 1.370 . S
C1832 C1834 1.363 . S
C1832 H1848 0.931 . S
C1833 C1832 1.370 . S
C1833 C1837 1.408 . S
C1834 C1832 1.363 . S
C1834 C1835 1.370 . S
C1834 C1838 1.524 1_556 S
C1835 C1827 1.503 1_556 S
C1835 C1834 1.370 . S
C1835 C1836 1.403 . S
C1836 C1835 1.403 . S
C1836 C1837 1.404 . S
C1836 C1839 1.539 . S
C1837 C1833 1.408 . S
C1837 C1836 1.404 . S
C1837 H1849 0.930 . S
C1838 C1834 1.524 1_554 S
C1838 H1850 0.956 . S
C1838 H1851 0.961 . S
C1838 H1852 0.961 . S
C1839 C1836 1.539 . S
C1839 H1853 0.958 . S
C1839 H1854 0.961 . S
C1839 H1855 0.960 . S
H1840 C1824 0.931 . S
H1841 C1829 0.929 . S
H1842 C1830 0.960 . S
H1843 C1830 0.962 . S
H1844 C1830 0.960 . S
H1845 C1831 0.961 1_554 S
H1846 C1831 0.961 . S
H1847 C1831 0.961 . S
H1848 C1832 0.931 . S
H1849 C1837 0.930 . S
H1850 C1838 0.956 . S
H1851 C1838 0.961 . S
H1852 C1838 0.961 . S
H1853 C1839 0.958 . S
H1854 C1839 0.961 . S
H1855 C1839 0.960 . S
C1856 C1857 1.391 . S
C1856 C1858 1.394 . S
C1856 H1872 0.931 . S
C1857 C1856 1.391 . S
C1857 C1861 1.376 . S
C1858 C1856 1.394 . S
C1858 C1859 1.369 . S
C1858 C1862 1.531 . S
C1859 C1858 1.369 . S
C1859 C1860 1.410 . S
C1859 C1867 1.503 1_554 S
C1860 C1859 1.410 . S
C1860 C1861 1.392 . S
C1860 C1863 1.511 . S
C1861 C1857 1.376 . S
C1861 C1860 1.392 . S
C1861 H1873 0.929 . S
C1862 C1858 1.531 . S
C1862 H1874 0.960 . S
C1862 H1875 0.962 . S
C1862 H1876 0.960 . S
C1863 C1860 1.511 . S
C1863 H1877 0.961 . S
C1863 H1878 0.961 1_554 S
C1863 H1879 0.961 . S
C1864 C1865 1.370 . S
C1864 C1866 1.363 . S
C1864 H1880 0.931 . S
C1865 C1864 1.370 . S
C1865 C1869 1.408 . S
C1866 C1864 1.363 . S
C1866 C1867 1.370 . S
C1866 C1870 1.524 . S
C1867 C1859 1.503 1_556 S
C1867 C1866 1.370 . S
C1867 C1868 1.403 . S
C1868 C1867 1.403 . S
C1868 C1869 1.404 . S
C1868 C1871 1.539 1_556 S
C1869 C1865 1.408 . S
C1869 C1868 1.404 . S
C1869 H1881 0.930 . S
C1870 C1866 1.524 . S
C1870 H1882 0.956 . S
C1870 H1883 0.961 . S
C1870 H1884 0.961 . S
C1871 C1868 1.539 1_554 S
C1871 H1885 0.958 . S
C1871 H1886 0.961 . S
C1871 H1887 0.960 . S
H1872 C1856 0.931 . S
H1873 C1861 0.929 . S
H1874 C1862 0.960 . S
H1875 C1862 0.962 . S
H1876 C1862 0.960 . S
H1877 C1863 0.961 . S
H1878 C1863 0.961 1_556 S
H1879 C1863 0.961 . S
H1880 C1864 0.931 . S
H1881 C1869 0.930 . S
H1882 C1870 0.956 . S
H1883 C1870 0.961 . S
H1884 C1870 0.961 . S
H1885 C1871 0.958 . S
H1886 C1871 0.961 . S
H1887 C1871 0.960 . S
C353 C5 2.273 . S
C361 C119 2.271 . S
C385 C141 2.289 . S
C393 C27 2.266 . S
C417 C49 2.265 . S
C425 C163 2.289 . S
C449 C75 2.241 . S
C457 C93 2.289 . S
C481 C293 2.262 . S
C489 C182 2.291 . S
C513 C315 2.303 . S
C521 C205 2.267 . S
C545 C227 2.287 . S
C553 C336 2.265 . S
C577 C249 2.246 . S
C585 C271 2.291 . S
C609 C4 1.632 . S
C617 C73 1.517 1_545 S
C641 C26 1.619 . S
C649 C6 1.539 . S
C673 C48 1.612 1_455 S
C681 C28 1.533 . S
C705 C74 1.616 1_545 S
C713 C50 1.490 1_455 S
C737 C92 1.602 1_655 S
C745 C117 1.495 1_565 S
C769 C139 1.504 . S
C777 C118 1.624 1_565 S
C801 C140 1.616 . S
C809 C161 1.512 . S
C833 C94 1.488 1_655 S
C841 C162 1.616 . S
C865 C251 1.538 1_565 S
C873 C180 1.628 . S
C897 C206 1.627 . S
C905 C181 1.541 . S
C929 C228 1.603 1_655 S
C937 C207 1.509 . S
C961 C250 1.622 1_565 S
C969 C229 1.500 1_655 S
C993 C272 1.605 1_455 S
C1001 C295 1.487 1_545 S
C1025 C294 1.603 1_545 S
C1033 C317 1.510 . S
C1057 C316 1.617 . S
C1065 C335 1.516 . S
C1089 C334 1.607 . S
C1097 C273 1.500 1_455 S
C1121 C7 0.355 . S
C1129 C51 0.304 . S
C1153 C29 0.375 . S
C1161 C72 0.291 . S
C1185 C138 0.177 . S
C1193 C95 0.301 . S
C1217 C160 0.374 . S
C1225 C116 0.292 . S
C1249 C225 0.291 . S
C1257 C185 0.240 . S
C1281 C247 0.353 . S
C1289 C203 0.238 . S
C1313 C269 0.328 . S
C1321 C313 0.236 . S
C1345 C291 0.388 . S
C1353 C339 0.256 . S
C1377 C8 1.219 . S
C1385 C248 1.205 . S
C1409 C183 1.194 . S
C1417 C30 1.220 . S
C1441 C52 1.218 . S
C1449 C204 1.210 . S
C1473 C226 1.224 . S
C1481 C70 1.217 . S
C1505 C292 1.199 . S
C1513 C96 1.218 . S
C1537 C114 1.213 . S
C1545 C314 1.218 . S
C1569 C337 1.219 . S
C1577 C136 1.216 . S
C1601 C158 1.218 . S
C1609 C270 1.209 . S
C1633 C184 1.211 . S
C1641 C71 1.217 . S
C1665 C202 1.211 . S
C1673 C9 1.218 . S
C1697 C31 1.193 . S
C1705 C224 1.220 . S
C1729 C246 1.217 . S
C1737 C53 1.209 . S
C1761 C268 1.216 . S
C1769 C115 1.209 . S
C1793 C290 1.211 . S
C1801 C137 1.217 . S
C1825 C159 1.193 . S
C1833 C312 1.220 . S
C1857 C97 1.212 . S
C1865 C338 1.217 . S
