# Generated by pormake.
# Topology lcs, (4)-cn, num edge types: 1
# Building blocks:
#     Node 0, Type 0, BuildingBlock: QUQFOY_clean_sbu_1, # of connection points: 4
#     Node 1, Type 0, BuildingBlock: QUQFOY_clean_sbu_1, # of connection points: 4
#     Node 2, Type 0, BuildingBlock: QUQFOY_clean_sbu_1, # of connection points: 4
#     Node 3, Type 0, BuildingBlock: QUQFOY_clean_sbu_1, # of connection points: 4
#     Node 4, Type 0, BuildingBlock: QUQFOY_clean_sbu_1, # of connection points: 4
#     Node 5, Type 0, BuildingBlock: QUQFOY_clean_sbu_1, # of connection points: 4
#     Node 6, Type 0, BuildingBlock: QUQFOY_clean_sbu_1, # of connection points: 4
#     Node 7, Type 0, BuildingBlock: QUQFOY_clean_sbu_1, # of connection points: 4
#     Node 8, Type 0, BuildingBlock: QUQFOY_clean_sbu_1, # of connection points: 4
#     Node 9, Type 0, BuildingBlock: QUQFOY_clean_sbu_1, # of connection points: 4
#     Node 10, Type 0, BuildingBlock: QUQFOY_clean_sbu_1, # of connection points: 4
#     Node 11, Type 0, BuildingBlock: QUQFOY_clean_sbu_1, # of connection points: 4
#     Node 12, Type 0, BuildingBlock: QUQFOY_clean_sbu_1, # of connection points: 4
#     Node 13, Type 0, BuildingBlock: QUQFOY_clean_sbu_1, # of connection points: 4
#     Node 14, Type 0, BuildingBlock: QUQFOY_clean_sbu_1, # of connection points: 4
#     Node 15, Type 0, BuildingBlock: QUQFOY_clean_sbu_1, # of connection points: 4
#     Node 16, Type 0, BuildingBlock: QUQFOY_clean_sbu_1, # of connection points: 4
#     Node 17, Type 0, BuildingBlock: QUQFOY_clean_sbu_1, # of connection points: 4
#     Node 18, Type 0, BuildingBlock: QUQFOY_clean_sbu_1, # of connection points: 4
#     Node 19, Type 0, BuildingBlock: QUQFOY_clean_sbu_1, # of connection points: 4
#     Node 20, Type 0, BuildingBlock: QUQFOY_clean_sbu_1, # of connection points: 4
#     Node 21, Type 0, BuildingBlock: QUQFOY_clean_sbu_1, # of connection points: 4
#     Node 22, Type 0, BuildingBlock: QUQFOY_clean_sbu_1, # of connection points: 4
#     Node 23, Type 0, BuildingBlock: QUQFOY_clean_sbu_1, # of connection points: 4
#     Edge 24, Type (0, 0), BuildingBlock: KIFKEQ_clean_linker_1, # of connection points: 2
#     Edge 25, Type (0, 0), BuildingBlock: KIFKEQ_clean_linker_1, # of connection points: 2
#     Edge 26, Type (0, 0), BuildingBlock: KIFKEQ_clean_linker_1, # of connection points: 2
#     Edge 27, Type (0, 0), BuildingBlock: KIFKEQ_clean_linker_1, # of connection points: 2
#     Edge 28, Type (0, 0), BuildingBlock: KIFKEQ_clean_linker_1, # of connection points: 2
#     Edge 29, Type (0, 0), BuildingBlock: KIFKEQ_clean_linker_1, # of connection points: 2
#     Edge 30, Type (0, 0), BuildingBlock: KIFKEQ_clean_linker_1, # of connection points: 2
#     Edge 31, Type (0, 0), BuildingBlock: KIFKEQ_clean_linker_1, # of connection points: 2
#     Edge 32, Type (0, 0), BuildingBlock: KIFKEQ_clean_linker_1, # of connection points: 2
#     Edge 33, Type (0, 0), BuildingBlock: KIFKEQ_clean_linker_1, # of connection points: 2
#     Edge 34, Type (0, 0), BuildingBlock: KIFKEQ_clean_linker_1, # of connection points: 2
#     Edge 35, Type (0, 0), BuildingBlock: KIFKEQ_clean_linker_1, # of connection points: 2
#     Edge 36, Type (0, 0), BuildingBlock: KIFKEQ_clean_linker_1, # of connection points: 2
#     Edge 37, Type (0, 0), BuildingBlock: KIFKEQ_clean_linker_1, # of connection points: 2
#     Edge 38, Type (0, 0), BuildingBlock: KIFKEQ_clean_linker_1, # of connection points: 2
#     Edge 39, Type (0, 0), BuildingBlock: KIFKEQ_clean_linker_1, # of connection points: 2
#     Edge 40, Type (0, 0), BuildingBlock: KIFKEQ_clean_linker_1, # of connection points: 2
#     Edge 41, Type (0, 0), BuildingBlock: KIFKEQ_clean_linker_1, # of connection points: 2
#     Edge 42, Type (0, 0), BuildingBlock: KIFKEQ_clean_linker_1, # of connection points: 2
#     Edge 43, Type (0, 0), BuildingBlock: KIFKEQ_clean_linker_1, # of connection points: 2
#     Edge 44, Type (0, 0), BuildingBlock: KIFKEQ_clean_linker_1, # of connection points: 2
#     Edge 45, Type (0, 0), BuildingBlock: KIFKEQ_clean_linker_1, # of connection points: 2
#     Edge 46, Type (0, 0), BuildingBlock: KIFKEQ_clean_linker_1, # of connection points: 2
#     Edge 47, Type (0, 0), BuildingBlock: KIFKEQ_clean_linker_1, # of connection points: 2
#     Edge 48, Type (0, 0), BuildingBlock: KIFKEQ_clean_linker_1, # of connection points: 2
#     Edge 49, Type (0, 0), BuildingBlock: KIFKEQ_clean_linker_1, # of connection points: 2
#     Edge 50, Type (0, 0), BuildingBlock: KIFKEQ_clean_linker_1, # of connection points: 2
#     Edge 51, Type (0, 0), BuildingBlock: KIFKEQ_clean_linker_1, # of connection points: 2
#     Edge 52, Type (0, 0), BuildingBlock: KIFKEQ_clean_linker_1, # of connection points: 2
#     Edge 53, Type (0, 0), BuildingBlock: KIFKEQ_clean_linker_1, # of connection points: 2
#     Edge 54, Type (0, 0), BuildingBlock: KIFKEQ_clean_linker_1, # of connection points: 2
#     Edge 55, Type (0, 0), BuildingBlock: KIFKEQ_clean_linker_1, # of connection points: 2
#     Edge 56, Type (0, 0), BuildingBlock: KIFKEQ_clean_linker_1, # of connection points: 2
#     Edge 57, Type (0, 0), BuildingBlock: KIFKEQ_clean_linker_1, # of connection points: 2
#     Edge 58, Type (0, 0), BuildingBlock: KIFKEQ_clean_linker_1, # of connection points: 2
#     Edge 59, Type (0, 0), BuildingBlock: KIFKEQ_clean_linker_1, # of connection points: 2
#     Edge 60, Type (0, 0), BuildingBlock: KIFKEQ_clean_linker_1, # of connection points: 2
#     Edge 61, Type (0, 0), BuildingBlock: KIFKEQ_clean_linker_1, # of connection points: 2
#     Edge 62, Type (0, 0), BuildingBlock: KIFKEQ_clean_linker_1, # of connection points: 2
#     Edge 63, Type (0, 0), BuildingBlock: KIFKEQ_clean_linker_1, # of connection points: 2
#     Edge 64, Type (0, 0), BuildingBlock: KIFKEQ_clean_linker_1, # of connection points: 2
#     Edge 65, Type (0, 0), BuildingBlock: KIFKEQ_clean_linker_1, # of connection points: 2
#     Edge 66, Type (0, 0), BuildingBlock: KIFKEQ_clean_linker_1, # of connection points: 2
#     Edge 67, Type (0, 0), BuildingBlock: KIFKEQ_clean_linker_1, # of connection points: 2
#     Edge 68, Type (0, 0), BuildingBlock: KIFKEQ_clean_linker_1, # of connection points: 2
#     Edge 69, Type (0, 0), BuildingBlock: KIFKEQ_clean_linker_1, # of connection points: 2
#     Edge 70, Type (0, 0), BuildingBlock: KIFKEQ_clean_linker_1, # of connection points: 2
#     Edge 71, Type (0, 0), BuildingBlock: KIFKEQ_clean_linker_1, # of connection points: 2
# Relax obj value: 0.057
# Max RMSD: 0.117
# Mean RMSD: 0.113
data_MOF--net-lcs--node1-QUQFOY_clean_sbu_1--edge1-KIFKEQ_clean_linker_1
_symmetry_space_group_name_H-M    P1
_symmetry_Int_Tables_number       1
_symmetry_cell_setting            triclinic
loop_
_symmetry_equiv_pos_as_xyz
'x, y, z'
_cell_length_a     51.890562
_cell_length_b     51.89008
_cell_length_c     51.894786
_cell_angle_alpha  94.186247
_cell_angle_beta   94.247161
_cell_angle_gamma 94.233976
loop_
_atom_site_label
_atom_site_type_symbol
_atom_site_fract_x
_atom_site_fract_y
_atom_site_fract_z
_atom_type_partial_charge
O0 O 0.06158 0.26317 0.388 0.0
Cd1 Cd 0.03126 0.27112 0.36256 0.0
Cd2 Cd 1.00444 0.26387 0.4054 0.0
O3 O 0.04119 0.26287 0.42385 0.0
O4 O 0.04748 0.28744 0.33341 0.0
O5 O 0.02281 0.30813 0.35963 0.0
C6 C 0.03711 0.30844 0.34027 0.0
C7 C 0.97115 0.28461 0.42462 0.0
C8 C 0.06187 0.26107 0.41229 0.0
C9 C 0.99359 0.22484 0.35875 0.0
O10 O 0.99077 0.23101 0.38245 0.0
O11 O 1.00786 0.23938 0.34604 0.0
O12 O 0.97961 0.26379 0.43299 0.0
O13 O 0.98274 0.29479 0.40618 0.0
O14 O 0.05945 0.73142 0.64214 0.0
Cd15 Cd 0.02934 0.74384 0.6625 0.0
Cd16 Cd 0.01728 0.763 0.61646 0.0
O17 O 0.04342 0.73807 0.60283 0.0
O18 O 0.02962 0.72294 0.69329 0.0
O19 O 0.99667 0.72058 0.66341 0.0
C20 C 1.00699 0.71267 0.68456 0.0
C21 C 0.97663 0.76671 0.59507 0.0
C22 C 0.0607 0.72929 0.61771 0.0
C23 C 0.03552 0.80079 0.66203 0.0
O24 O 0.03266 0.7966 0.6375 0.0
O25 O 0.03226 0.78224 0.67643 0.0
O26 O 0.99768 0.77519 0.58568 0.0
O27 O 0.97872 0.75473 0.61603 0.0
O28 O 0.55923 0.76257 0.88707 0.0
Cd29 Cd 0.52906 0.77066 0.86149 0.0
Cd30 Cd 0.50187 0.7638 0.9041 0.0
O31 O 0.53843 0.76231 0.92268 0.0
O32 O 0.54528 0.78705 0.83239 0.0
O33 O 0.52064 0.80768 0.85873 0.0
C34 C 0.53489 0.80803 0.83932 0.0
C35 C 0.46895 0.78489 0.92357 0.0
C36 C 0.55923 0.76041 0.91134 0.0
C37 C 0.49082 0.72481 0.85745 0.0
O38 O 0.48779 0.73113 0.88107 0.0
O39 O 0.50552 0.73907 0.84488 0.0
O40 O 0.47708 0.76384 0.93171 0.0
O41 O 0.48064 0.79506 0.90518 0.0
O42 O 0.55506 0.22891 0.13591 0.0
Cd43 Cd 0.52752 0.24231 0.15905 0.0
Cd44 Cd 0.51592 0.26758 0.11458 0.0
O45 O 0.5442 0.24612 0.09939 0.0
O46 O 0.52862 0.21864 0.1877 0.0
O47 O 0.49337 0.22185 0.16178 0.0
C48 C 0.50469 0.21124 0.18085 0.0
C49 C 0.47605 0.27179 0.0918 0.0
C50 C 0.55872 0.23224 0.11237 0.0
C51 C 0.53433 0.30019 0.16427 0.0
O52 O 0.52832 0.29912 0.14 0.0
O53 O 0.53444 0.27959 0.17612 0.0
O54 O 0.49732 0.28272 0.08492 0.0
O55 O 0.47757 0.25717 0.1109 0.0
O56 O 0.04387 0.71674 0.13069 0.0
Cd57 Cd 0.03206 0.74592 0.10885 0.0
Cd58 Cd 0.00949 0.75907 0.15368 0.0
O59 O 0.03178 0.73118 0.16865 0.0
O60 O 0.05569 0.74583 0.08024 0.0
O61 O 0.05343 0.7798 0.10819 0.0
C62 C 0.0637 0.7693 0.08847 0.0
C63 C 1.00596 0.79914 0.17629 0.0
C64 C 0.04281 0.71468 0.15483 0.0
C65 C 0.97463 0.74127 0.10513 0.0
O66 O 0.97682 0.74647 0.12956 0.0
O67 O 0.99462 0.74133 0.09238 0.0
O68 O 0.99552 0.77796 0.18384 0.0
O69 O 0.01975 0.79744 0.15658 0.0
O70 O 0.51195 0.71401 0.38396 0.0
Cd71 Cd 0.50422 0.74396 0.40993 0.0
Cd72 Cd 0.5116 0.77154 0.36742 0.0
O73 O 0.51264 0.73505 0.3485 0.0
O74 O 0.48807 0.72721 0.43888 0.0
O75 O 0.4673 0.75251 0.41336 0.0
C76 C 0.46709 0.73783 0.43245 0.0
C77 C 0.49105 0.8051 0.34833 0.0
C78 C 0.51423 0.71414 0.35973 0.0
C79 C 0.5507 0.7814 0.41424 0.0
O80 O 0.54443 0.78475 0.39066 0.0
O81 O 0.53616 0.7669 0.42672 0.0
O82 O 0.512 0.79678 0.34015 0.0
O83 O 0.48069 0.79329 0.36654 0.0
O84 O 0.54654 0.21973 0.63459 0.0
Cd85 Cd 0.53266 0.24871 0.61335 0.0
Cd86 Cd 0.51067 0.25912 0.65889 0.0
O87 O 0.53441 0.23234 0.67306 0.0
O88 O 0.55404 0.24845 0.58291 0.0
O89 O 0.55482 0.28205 0.61176 0.0
C90 C 0.56345 0.27152 0.5911 0.0
C91 C 0.50666 0.29951 0.68052 0.0
C92 C 0.54611 0.2169 0.6587 0.0
C93 C 0.47509 0.24073 0.61174 0.0
O94 O 0.478 0.24429 0.6363 0.0
O95 O 0.49442 0.24371 0.59825 0.0
O96 O 0.49737 0.27838 0.68919 0.0
O97 O 0.51956 0.29762 0.66018 0.0
O98 O 0.01406 0.21599 0.8845 0.0
Cd99 Cd 1.00526 0.2477 0.90791 0.0
Cd100 Cd 0.01249 0.2711 0.86453 0.0
O101 O 0.01095 0.23382 0.84723 0.0
O102 O 0.98898 0.23331 0.93805 0.0
O103 O 0.96789 0.25535 0.90949 0.0
C104 C 0.96771 0.24254 0.92994 0.0
C105 C 0.98935 0.30402 0.84779 0.0
C106 C 0.0143 0.21411 0.85993 0.0
C107 C 0.05218 0.28419 0.9092 0.0
O108 O 0.04717 0.28389 0.88485 0.0
O109 O 0.03622 0.27309 0.92311 0.0
O110 O 0.00844 0.29507 0.83637 0.0
O111 O 0.98243 0.29331 0.86819 0.0
O112 O 0.3887 0.05842 0.25912 0.0
Cd113 Cd 0.36547 0.02744 0.2698 0.0
Cd114 Cd 0.40903 1.0043 0.26229 0.0
O115 O 0.42646 0.04164 0.26405 0.0
O116 O 0.33581 0.0428 0.28603 0.0
O117 O 0.36421 0.02096 0.30753 0.0
C118 C 0.34393 0.034 0.30751 0.0
C119 C 0.42713 0.97047 0.28309 0.0
C120 C 0.41331 0.06077 0.2594 0.0
C121 C 0.36318 0.9913 0.22335 0.0
O122 O 0.38763 0.99221 0.22789 0.0
O123 O 0.34933 1.00167 0.23978 0.0
O124 O 0.43687 0.97975 0.26324 0.0
O125 O 0.40782 0.98148 0.29225 0.0
O126 O 0.2301 0.14004 0.5535 0.0
Cd127 Cd 0.24426 0.16117 0.52459 0.0
Cd128 Cd 0.26619 0.1155 0.51444 0.0
O129 O 0.24221 0.10149 0.54112 0.0
O130 O 0.22304 0.19174 0.52482 0.0
O131 O 0.22222 0.16291 0.4912 0.0
C132 C 0.21365 0.18359 0.50174 0.0
C133 C 0.27053 0.09381 0.47412 0.0
C134 C 0.23044 0.11594 0.55641 0.0
C135 C 0.30179 0.1626 0.53295 0.0
O136 O 0.29881 0.13805 0.52945 0.0
O137 O 0.28253 0.17615 0.5298 0.0
O138 O 0.27964 0.08516 0.49534 0.0
O139 O 0.25759 0.11414 0.47588 0.0
O140 O 0.13624 0.04708 0.71936 0.0
Cd141 Cd 0.11499 0.03246 0.74801 0.0
Cd142 Cd 0.16042 0.01024 0.75796 0.0
O143 O 0.17463 0.03445 0.73161 0.0
O144 O 0.08429 0.05348 0.74805 0.0
O145 O 0.11307 0.05395 0.7817 0.0
C146 C 0.09228 0.06248 0.77129 0.0
C147 C 0.18178 1.00568 0.79839 0.0
C148 C 0.16033 0.04656 0.71647 0.0
C149 C 0.11339 0.97498 0.73873 0.0
O150 O 0.13794 0.97778 0.74244 0.0
O151 O 0.09993 0.99427 0.7421 0.0
O152 O 0.1906 0.99668 0.77724 0.0
O153 O 0.16143 0.01859 0.79651 0.0
O154 O 0.21673 0.88815 0.01389 0.0
Cd155 Cd 0.24768 0.91155 1.0034 0.0
Cd156 Cd 0.27087 0.86809 0.0104 0.0
O157 O 0.2336 0.85053 0.00827 0.0
O158 O 0.23239 0.94115 0.987 0.0
O159 O 0.25434 0.9127 0.96573 0.0
C160 C 0.24127 0.93297 0.9656 0.0
C161 C 0.30468 0.85011 0.98961 0.0
C162 C 0.21444 0.86353 0.01315 0.0
C163 C 0.28383 0.91353 0.04978 0.0
O164 O 0.2829 0.88911 0.04503 0.0
O165 O 0.27346 0.92754 0.03349 0.0
O166 O 0.29535 0.84023 0.00936 0.0
O167 O 0.29376 0.86952 0.98056 0.0
O168 O 0.26019 0.38765 0.05666 0.0
Cd169 Cd 0.27105 0.3652 0.02526 0.0
Cd170 Cd 0.26455 0.40888 1.00312 0.0
O171 O 0.267 0.42563 0.04079 0.0
O172 O 0.28739 0.33507 0.03961 0.0
O173 O 0.30885 0.3646 0.01902 0.0
C174 C 0.30891 0.34381 0.03131 0.0
C175 C 0.28749 0.42548 0.96998 0.0
C176 C 0.26148 0.41228 0.05954 0.0
C177 C 0.22488 0.36439 0.98873 0.0
O178 O 0.22948 0.38888 0.99052 0.0
O179 O 0.24125 0.35016 0.99863 0.0
O180 O 0.26875 0.4372 0.97932 0.0
O181 O 0.29421 0.40489 0.98045 0.0
O182 O 0.72146 0.1378 0.04418 0.0
Cd183 Cd 0.74907 0.11471 0.03085 0.0
Cd184 Cd 0.76072 0.15942 1.00578 0.0
O185 O 0.73234 0.17445 0.02722 0.0
O186 O 0.74786 0.086 0.05447 0.0
O187 O 0.78312 0.11196 0.05146 0.0
C188 C 0.77175 0.09288 0.062 0.0
C189 C 0.80061 0.18228 1.00187 0.0
C190 C 0.71777 0.16133 0.04099 0.0
C191 C 0.7425 0.10978 0.97293 0.0
O192 O 0.74845 0.13407 0.97411 0.0
O193 O 0.74236 0.09783 0.99347 0.0
O194 O 0.77939 0.1892 0.99089 0.0
O195 O 0.79903 0.16307 0.01636 0.0
O196 O 0.14098 0.55728 0.2282 0.0
Cd197 Cd 0.16283 0.52827 0.24094 0.0
Cd198 Cd 0.11769 0.51586 0.26214 0.0
O199 O 0.10245 0.54165 0.23774 0.0
O200 O 0.19215 0.52854 0.21809 0.0
O201 O 0.16431 0.49436 0.21978 0.0
C202 C 0.18424 0.50502 0.20995 0.0
C203 C 0.09665 0.47528 0.267 0.0
C204 C 0.11658 0.55858 0.22759 0.0
C205 C 0.16454 0.53601 0.29796 0.0
O206 O 0.14002 0.5318 0.29478 0.0
O207 O 0.17832 0.53332 0.27884 0.0
O208 O 0.08772 0.4964 0.27591 0.0
O209 O 0.11698 0.47724 0.25409 0.0
O210 O 0.76538 0.88844 0.55866 0.0
Cd211 Cd 0.77297 0.86243 0.52869 0.0
Cd212 Cd 0.76574 0.90497 0.50115 0.0
O213 O 0.76497 0.92394 0.53766 0.0
O214 O 0.78913 0.83345 0.54541 0.0
O215 O 0.80987 0.85897 0.52009 0.0
C216 C 0.81009 0.83989 0.53477 0.0
C217 C 0.78627 0.92379 0.46744 0.0
C218 C 0.7633 0.91271 0.55856 0.0
C219 C 0.7264 0.85834 0.49141 0.0
O220 O 0.73273 0.88191 0.48811 0.0
O221 O 0.74096 0.84575 0.50579 0.0
O222 O 0.76545 0.93219 0.47585 0.0
O223 O 0.79653 0.90551 0.47924 0.0
O224 O 0.88869 0.01406 0.21347 0.0
Cd225 Cd 0.91299 1.00395 0.24371 0.0
Cd226 Cd 0.86979 0.01027 0.26913 0.0
O227 O 0.85176 0.01059 0.23204 0.0
O228 O 0.94217 0.98745 0.22776 0.0
O229 O 0.91459 0.96646 0.25092 0.0
C230 C 0.93443 0.9662 0.23726 0.0
C231 C 0.85079 0.98906 0.30232 0.0
C232 C 0.86418 0.01466 0.21226 0.0
C233 C 0.91619 0.0495 0.28146 0.0
O234 O 0.89214 0.04369 0.28286 0.0
O235 O 0.92952 0.03457 0.26836 0.0
O236 O 0.84193 0.00961 0.2937 0.0
O237 O 0.86963 0.97941 0.29094 0.0
O238 O 0.21826 0.63169 0.54253 0.0
Cd239 Cd 0.24825 0.61129 0.52984 0.0
Cd240 Cd 0.26007 0.65727 0.51061 0.0
O241 O 0.23427 0.67099 0.53583 0.0
O242 O 0.24814 0.58046 0.55069 0.0
O243 O 0.28107 0.61033 0.55288 0.0
C244 C 0.27082 0.58916 0.56083 0.0
C245 C 0.30076 0.67838 0.50654 0.0
C246 C 0.21705 0.65613 0.54472 0.0
C247 C 0.24139 0.6118 0.47293 0.0
O248 O 0.24422 0.63632 0.47714 0.0
O249 O 0.24497 0.59737 0.49142 0.0
O250 O 0.27972 0.68793 0.49828 0.0
O251 O 0.29865 0.65741 0.5185 0.0
O252 O 0.38465 0.51016 0.71308 0.0
Cd253 Cd 0.40957 0.50275 0.74403 0.0
Cd254 Cd 0.36678 0.5096 0.76987 0.0
O255 O 0.34847 0.50933 0.73293 0.0
O256 O 0.43933 0.48677 0.72865 0.0
O257 O 0.41274 0.4659 0.75288 0.0
C258 C 0.43245 0.46577 0.73904 0.0
C259 C 0.34947 0.48678 0.80284 0.0
C260 C 0.36024 0.51148 0.71242 0.0
C261 C 0.41207 0.54972 0.7808 0.0
O262 O 0.38825 0.54355 0.78317 0.0
O263 O 0.42521 0.53483 0.76739 0.0
O264 O 0.33887 0.50651 0.79427 0.0
O265 O 0.3693 0.47902 0.79171 0.0
O266 O 0.64182 0.05466 0.72682 0.0
Cd267 Cd 0.66383 0.02631 0.74042 0.0
Cd268 Cd 0.61866 0.01472 0.76407 0.0
O269 O 0.60444 0.043 0.742 0.0
O270 O 0.69378 0.02688 0.71839 0.0
O271 O 0.66559 0.99284 0.71856 0.0
C272 C 0.68588 1.0036 0.70943 0.0
C273 C 0.59579 0.97473 0.76722 0.0
C274 C 0.61802 0.05796 0.72902 0.0
C275 C 0.66721 0.03229 0.79843 0.0
O276 O 0.64278 0.02705 0.79657 0.0
O277 O 0.67972 0.03191 0.77828 0.0
O278 O 0.58828 0.99588 0.77775 0.0
O279 O 0.6156 0.97644 0.75355 0.0
O280 O 0.72867 0.63854 0.05338 0.0
Cd281 Cd 0.74141 0.66116 0.02513 0.0
Cd282 Cd 0.76642 0.61627 0.01344 0.0
O283 O 0.74549 0.60181 0.04243 0.0
O284 O 0.71855 0.69043 0.02594 0.0
O285 O 0.71947 0.66271 0.99166 0.0
C286 C 0.70987 0.68265 1.00254 0.0
C287 C 0.77129 0.59176 0.97473 0.0
C288 C 0.73194 0.61502 0.05712 0.0
C289 C 0.79924 0.66636 0.03041 0.0
O290 O 0.79797 0.64205 0.02472 0.0
O291 O 0.77873 0.67828 0.03084 0.0
O292 O 0.78281 0.58663 0.9964 0.0
O293 O 0.75557 0.60997 0.97523 0.0
O294 O 0.8931 0.56098 0.76395 0.0
Cd295 Cd 0.86732 0.53041 0.77051 0.0
Cd296 Cd 0.90969 0.5038 0.76337 0.0
O297 O 0.92875 0.54036 0.76348 0.0
O298 O 0.83848 0.54715 0.78676 0.0
O299 O 0.86266 0.52011 0.80669 0.0
C300 C 0.84407 0.53537 0.80723 0.0
C301 C 0.92686 0.47067 0.78601 0.0
C302 C 0.91741 0.56119 0.7621 0.0
C303 C 0.86407 0.494 0.72327 0.0
O304 O 0.88766 0.49077 0.72966 0.0
O305 O 0.85129 0.50807 0.73793 0.0
O306 O 0.93722 0.47897 0.76605 0.0
O307 O 0.9073 0.48209 0.79404 0.0
O308 O 0.71574 0.38519 0.51158 0.0
Cd309 Cd 0.74618 0.41043 0.50347 0.0
Cd310 Cd 0.77291 0.36778 0.51109 0.0
O311 O 0.73618 0.34937 0.51229 0.0
O312 O 0.73026 0.43958 0.48689 0.0
O313 O 0.75482 0.413 0.46649 0.0
C314 C 0.74076 0.43253 0.46602 0.0
C315 C 0.80604 0.34869 0.49 0.0
C316 C 0.71547 0.36094 0.51392 0.0
C317 C 0.784 0.41468 0.54966 0.0
O318 O 0.78678 0.39092 0.54377 0.0
O319 O 0.76964 0.4272 0.53501 0.0
O320 O 0.79783 0.34027 0.5109 0.0
O321 O 0.79428 0.36711 0.47995 0.0
O322 O 0.63668 0.54526 0.21877 0.0
Cd323 Cd 0.61463 0.53214 0.24729 0.0
Cd324 Cd 0.65958 0.50828 0.25888 0.0
O325 O 0.67404 0.53012 0.23058 0.0
O326 O 0.58478 0.55432 0.2464 0.0
O327 O 0.61287 0.55433 0.28056 0.0
C328 C 0.59263 0.56343 0.26964 0.0
C329 C 0.68218 0.50521 0.29899 0.0
C330 C 0.66046 0.54297 0.21548 0.0
C331 C 0.61087 0.47416 0.24159 0.0
O332 O 0.6353 0.47587 0.24663 0.0
O333 O 0.59847 0.4944 0.24202 0.0
O334 O 0.68976 0.49452 0.27794 0.0
O335 O 0.66247 0.51901 0.29709 0.0
H336 H 0.04997 0.46466 0.28661 0.0
H337 H 0.1174 0.42839 0.26243 0.0
H338 H 0.033 0.42388 0.30164 0.0
H339 H 0.10107 0.38786 0.27843 0.0
H340 H 0.05862 0.31268 0.2942 0.0
H341 H 0.07022 0.35202 0.27346 0.0
H342 H 0.04072 0.39772 0.33615 0.0
H343 H 0.02813 0.3582 0.35624 0.0
C344 C 0.06112 0.44791 0.28438 0.0
C345 C 0.08507 0.44978 0.27336 0.0
C346 C 0.0515 0.42454 0.29323 0.0
C347 C 0.06573 0.4025 0.29159 0.0
C348 C 0.08933 0.40423 0.27977 0.0
C349 C 0.0988 0.42754 0.27064 0.0
C350 C 0.05438 0.33113 0.30342 0.0
C351 C 0.0425 0.33232 0.32691 0.0
C352 C 0.06122 0.35375 0.2916 0.0
C353 C 0.05665 0.37821 0.30313 0.0
C354 C 0.04424 0.37929 0.32641 0.0
C355 C 0.03712 0.35661 0.33806 0.0
H356 H 0.9299 0.76293 0.61621 0.0
H357 H 0.9657 0.78481 0.54768 0.0
H358 H 0.88939 0.77877 0.59965 0.0
H359 H 0.92491 0.7997 0.53053 0.0
H360 H 0.85985 0.855 0.52495 0.0
H361 H 0.89923 0.83472 0.53767 0.0
H362 H 0.85325 0.77339 0.56911 0.0
H363 H 0.81407 0.79432 0.55735 0.0
C364 C 0.92895 0.77058 0.59732 0.0
C365 C 0.95107 0.77273 0.58334 0.0
C366 C 0.90564 0.77962 0.58773 0.0
C367 C 0.90379 0.79079 0.56377 0.0
C368 C 0.92568 0.7918 0.54929 0.0
C369 C 0.94905 0.78302 0.55902 0.0
C370 C 0.85817 0.83708 0.53439 0.0
C371 C 0.83385 0.82637 0.54027 0.0
C372 C 0.88076 0.82531 0.54158 0.0
C373 C 0.87957 0.80238 0.55457 0.0
C374 C 0.85507 0.79127 0.55964 0.0
C375 C 0.83254 0.8032 0.55272 0.0
H376 H 0.46172 0.57094 0.77804 0.0
H377 H 0.38917 0.58615 0.80991 0.0
H378 H 0.48035 0.61367 0.79596 0.0
H379 H 0.4076 0.62885 0.82723 0.0
H380 H 0.45786 0.69067 0.87893 0.0
H381 H 0.43949 0.64834 0.86058 0.0
H382 H 0.47661 0.65986 0.79003 0.0
H383 H 0.4956 0.70226 0.80866 0.0
C384 C 0.44976 0.58334 0.78889 0.0
C385 C 0.42398 0.57506 0.79261 0.0
C386 C 0.46037 0.60791 0.79894 0.0
C387 C 0.44543 0.62468 0.81295 0.0
C388 C 0.41973 0.6163 0.8168 0.0
C389 C 0.40914 0.5918 0.80678 0.0
C390 C 0.46205 0.68432 0.85944 0.0
C391 C 0.47823 0.6999 0.84527 0.0
C392 C 0.4514 0.66004 0.84888 0.0
C393 C 0.45661 0.65071 0.82386 0.0
C394 C 0.47252 0.66638 0.8095 0.0
C395 C 0.4832 0.69076 0.82009 0.0
H396 H 0.5757 0.23755 0.06389 0.0
H397 H 0.59327 0.20215 0.13533 0.0
H398 H 0.61444 0.22105 0.04661 0.0
H399 H 0.63198 0.18637 0.1184 0.0
H400 H 0.68317 0.13813 0.07078 0.0
H401 H 0.64444 0.15488 0.08666 0.0
H402 H 0.662 0.22702 0.05262 0.0
H403 H 0.70078 0.20991 0.036 0.0
C404 C 0.58771 0.2262 0.07585 0.0
C405 C 0.58125 0.2211 0.10095 0.0
C406 C 0.61006 0.21696 0.06607 0.0
C407 C 0.62636 0.20239 0.08113 0.0
C408 C 0.61972 0.19719 0.10611 0.0
C409 C 0.59748 0.20636 0.11584 0.0
C410 C 0.67896 0.15763 0.06673 0.0
C411 C 0.69521 0.17268 0.05213 0.0
C412 C 0.65671 0.16728 0.07595 0.0
C413 C 0.65008 0.19232 0.07097 0.0
C414 C 0.66639 0.20752 0.05654 0.0
C415 C 0.68874 0.19782 0.04724 0.0
H416 H 0.06672 0.56178 0.20724 0.0
H417 H 0.14042 0.60649 0.2241 0.0
H418 H 0.04801 0.59989 0.19025 0.0
H419 H 0.12144 0.64454 0.20794 0.0
H420 H 0.06138 0.71045 0.20513 0.0
H421 H 0.07872 0.67224 0.22336 0.0
H422 H 0.06373 0.62918 0.14882 0.0
H423 H 0.04725 0.66733 0.13036 0.0
C424 C 0.07885 0.5797 0.20738 0.0
C425 C 0.10506 0.58111 0.21679 0.0
C426 C 0.06817 0.60143 0.19773 0.0
C427 C 0.08333 0.62504 0.19803 0.0
C428 C 0.10938 0.62655 0.20772 0.0
C429 C 0.12023 0.60473 0.21673 0.0
C430 C 0.06184 0.69283 0.19268 0.0
C431 C 0.05316 0.69192 0.16631 0.0
C432 C 0.07172 0.67106 0.20308 0.0
C433 C 0.07236 0.64789 0.18742 0.0
C434 C 0.06326 0.64682 0.16124 0.0
C435 C 0.05403 0.6687 0.15071 0.0
H436 H 0.5861 0.81262 0.39237 0.0
H437 H 0.57268 0.77684 0.46338 0.0
H438 H 0.62869 0.83005 0.41076 0.0
H439 H 0.61539 0.79498 0.48209 0.0
H440 H 0.6908 0.88055 0.46072 0.0
H441 H 0.64816 0.8623 0.44331 0.0
H442 H 0.66169 0.79053 0.47747 0.0
H443 H 0.70445 0.80911 0.4956 0.0
C444 C 0.59211 0.80867 0.41204 0.0
C445 C 0.5759 0.79334 0.42642 0.0
C446 C 0.61656 0.81877 0.42262 0.0
C447 C 0.62545 0.81393 0.4479 0.0
C448 C 0.60921 0.79879 0.46243 0.0
C449 C 0.58466 0.7886 0.4518 0.0
C450 C 0.68483 0.86082 0.46448 0.0
C451 C 0.70112 0.84627 0.47953 0.0
C452 C 0.66035 0.85032 0.45439 0.0
C453 C 0.65151 0.82494 0.45896 0.0
C454 C 0.66782 0.81026 0.47386 0.0
C455 C 0.6924 0.82081 0.48404 0.0
H456 H 0.48694 0.30994 0.72717 0.0
H457 H 0.51187 0.34657 0.66018 0.0
H458 H 0.47186 0.35068 0.74415 0.0
H459 H 0.49583 0.38705 0.67651 0.0
H460 H 0.47909 0.46195 0.71855 0.0
H461 H 0.50032 0.4228 0.70746 0.0
H462 H 0.43728 0.37663 0.73593 0.0
H463 H 0.41669 0.41596 0.74801 0.0
C464 C 0.48936 0.32677 0.71614 0.0
C465 C 0.50055 0.325 0.69229 0.0
C466 C 0.48048 0.35011 0.72577 0.0
C467 C 0.48228 0.37221 0.71163 0.0
C468 C 0.49435 0.37062 0.68818 0.0
C469 C 0.50351 0.34733 0.67871 0.0
C470 C 0.46991 0.44344 0.72269 0.0
C471 C 0.44616 0.44206 0.7341 0.0
C472 C 0.482 0.42093 0.71615 0.0
C473 C 0.47051 0.3964 0.72056 0.0
C474 C 0.447 0.39512 0.73256 0.0
C475 C 0.43506 0.41769 0.73938 0.0
H476 H 0.91782 0.24871 0.91194 0.0
H477 H 0.96325 0.22444 0.97763 0.0
H478 H 0.87817 0.23632 0.93186 0.0
H479 H 0.92372 0.2131 0.99817 0.0
H480 H 0.84849 0.16427 0.01019 0.0
H481 H 0.88903 0.18105 0.99457 0.0
H482 H 0.85072 0.24524 0.96486 0.0
H483 H 0.80997 0.22772 0.97951 0.0
C484 C 0.91934 0.24116 0.93087 0.0
C485 C 0.94367 0.23742 0.94312 0.0
C486 C 0.89657 0.23417 0.94242 0.0
C487 C 0.89758 0.22356 0.96669 0.0
C488 C 0.92205 0.22068 0.97928 0.0
C489 C 0.94478 0.22737 0.96757 0.0
C490 C 0.84883 0.18216 1.00065 0.0
C491 C 0.82598 0.19457 0.99596 0.0
C492 C 0.87214 0.19189 0.99173 0.0
C493 C 0.87326 0.21446 0.97817 0.0
C494 C 0.85057 0.22751 0.97464 0.0
C495 C 0.82721 0.2176 0.98327 0.0
H496 H 0.29144 0.0477 0.46407 0.0
H497 H 0.26466 0.11362 0.42681 0.0
H498 H 0.30672 0.03076 0.42342 0.0
H499 H 0.28081 0.09729 0.38638 0.0
H500 H 0.29708 0.05398 0.3117 0.0
H501 H 0.2764 0.06562 0.35104 0.0
H502 H 0.34097 0.0396 0.397 0.0
H503 H 0.3611 0.02703 0.35751 0.0
C504 C 0.28866 0.0585 0.44713 0.0
C505 C 0.27688 0.08205 0.4487 0.0
C506 C 0.29765 0.0489 0.42384 0.0
C507 C 0.29534 0.06274 0.40156 0.0
C508 C 0.28271 0.08587 0.40297 0.0
C509 C 0.27348 0.09533 0.42622 0.0
C510 C 0.30675 0.05054 0.33021 0.0
C511 C 0.33078 0.03963 0.33147 0.0
C512 C 0.29496 0.05738 0.35282 0.0
C513 C 0.30701 0.05376 0.37734 0.0
C514 C 0.33085 0.04236 0.37852 0.0
C515 C 0.34253 0.03527 0.35586 0.0
H516 H 0.13611 0.07632 0.68228 0.0
H517 H 0.20885 0.04315 0.69944 0.0
H518 H 0.15232 0.09251 0.64318 0.0
H519 H 0.22515 0.0597 0.66037 0.0
H520 H 0.23357 0.06743 0.57365 0.0
H521 H 0.21685 0.05134 0.61274 0.0
H522 H 0.18461 0.12451 0.62967 0.0
H523 H 0.20096 0.14049 0.59056 0.0
C524 C 0.15566 0.0727 0.67788 0.0
C525 C 0.17117 0.05841 0.69403 0.0
C526 C 0.16497 0.08204 0.65546 0.0
C527 C 0.18996 0.07726 0.64858 0.0
C528 C 0.20566 0.06337 0.66495 0.0
C529 C 0.1964 0.05412 0.68747 0.0
C530 C 0.2227 0.08 0.58557 0.0
C531 C 0.21861 0.10526 0.57893 0.0
C532 C 0.21334 0.07086 0.6081 0.0
C533 C 0.19955 0.08671 0.62439 0.0
C534 C 0.19499 0.11174 0.61744 0.0
C535 C 0.20444 0.12092 0.59503 0.0
H536 H 0.16174 0.01152 0.84556 0.0
H537 H 0.22789 0.98482 0.80871 0.0
H538 H 0.178 0.99552 0.88613 0.0
H539 H 0.24474 0.96969 0.8495 0.0
H540 H 0.24842 0.91561 0.91574 0.0
H541 H 0.23589 0.93552 0.87608 0.0
H542 H 0.20963 1.00022 0.92156 0.0
H543 H 0.22124 0.97975 0.96107 0.0
C544 C 0.18005 1.00274 0.84627 0.0
C545 C 0.19343 0.99933 0.82387 0.0
C546 C 0.18947 0.9936 0.8696 0.0
C547 C 0.21265 0.98106 0.87117 0.0
C548 C 0.22656 0.9787 0.84896 0.0
C549 C 0.21701 0.98761 0.82559 0.0
C550 C 0.24014 0.93417 0.91725 0.0
C551 C 0.2357 0.946 0.94155 0.0
C552 C 0.23307 0.94572 0.89448 0.0
C553 C 0.22161 0.96953 0.89549 0.0
C554 C 0.21791 0.98168 0.91992 0.0
C555 C 0.22474 0.97 0.94263 0.0
H556 H 0.28921 0.8902 0.09487 0.0
H557 H 0.30474 0.96332 0.06187 0.0
H558 H 0.30755 0.90958 0.13725 0.0
H559 H 0.32383 0.98242 0.10432 0.0
H560 H 0.38609 0.98597 0.17804 0.0
H561 H 0.36627 0.968 0.13571 0.0
H562 H 0.29371 0.95189 0.16916 0.0
H563 H 0.31325 0.97062 0.21157 0.0
C564 C 0.29672 0.91035 0.09663 0.0
C565 C 0.29565 0.92526 0.07507 0.0
C566 C 0.30702 0.92141 0.12088 0.0
C567 C 0.31695 0.94739 0.12387 0.0
C568 C 0.31622 0.9623 0.10234 0.0
C569 C 0.30533 0.9514 0.07816 0.0
C570 C 0.36592 0.97856 0.17641 0.0
C571 C 0.3512 0.97959 0.19811 0.0
C572 C 0.3546 0.96848 0.15219 0.0
C573 C 0.32856 0.95872 0.14935 0.0
C574 C 0.31387 0.95937 0.17102 0.0
C575 C 0.32502 0.97005 0.19517 0.0
H576 H 0.31349 0.29594 0.04896 0.0
H577 H 0.35886 0.36245 0.02629 0.0
H578 H 0.35308 0.27555 0.06048 0.0
H579 H 0.39854 0.34263 0.03882 0.0
H580 H 0.46686 0.29495 0.0468 0.0
H581 H 0.42616 0.30982 0.02941 0.0
H582 H 0.38757 0.27888 0.09285 0.0
H583 H 0.42808 0.26309 0.10952 0.0
C584 C 0.33196 0.30622 0.04643 0.0
C585 C 0.33303 0.33085 0.03676 0.0
C586 C 0.35471 0.29459 0.05322 0.0
C587 C 0.37917 0.30742 0.05079 0.0
C588 C 0.38015 0.33189 0.04061 0.0
C589 C 0.35737 0.34339 0.03354 0.0
C590 C 0.44957 0.29097 0.05679 0.0
C591 C 0.45072 0.27788 0.07958 0.0
C592 C 0.42624 0.29973 0.04696 0.0
C593 C 0.40349 0.29591 0.05983 0.0
C594 C 0.40452 0.28197 0.08215 0.0
C595 C 0.42782 0.27294 0.09181 0.0
H596 H 0.01315 0.84676 0.15744 0.0
H597 H 0.98491 0.80886 0.22236 0.0
H598 H 0.99757 0.8873 0.1742 0.0
H599 H 0.97029 0.84963 0.23983 0.0
H600 H 0.91694 0.91632 0.24416 0.0
H601 H 0.93676 0.87669 0.23147 0.0
H602 H 1.0018 0.92231 0.20588 0.0
H603 H 0.98134 0.96178 0.21753 0.0
C604 C 1.00417 0.84725 0.17563 0.0
C605 C 1.00015 0.82456 0.18848 0.0
C606 C 0.99526 0.87056 0.18535 0.0
C607 C 0.98239 0.87184 0.20834 0.0
C608 C 0.97953 0.84934 0.22179 0.0
C609 C 0.98815 0.82598 0.2119 0.0
C610 C 0.93556 0.91785 0.236 0.0
C611 C 0.94747 0.94218 0.23171 0.0
C612 C 0.94706 0.89511 0.22884 0.0
C613 C 0.97094 0.89615 0.2175 0.0
C614 C 0.9832 0.92062 0.21403 0.0
C615 C 0.97154 0.94331 0.22089 0.0
H616 H 0.21355 0.70523 0.56684 0.0
H617 H 0.16932 0.63157 0.54775 0.0
H618 H 0.17539 0.723 0.58449 0.0
H619 H 0.13121 0.6496 0.56472 0.0
H620 H 0.06428 0.70709 0.56866 0.0
H621 H 0.10247 0.68941 0.55099 0.0
H622 H 0.14661 0.70952 0.62436 0.0
H623 H 0.10847 0.72653 0.64229 0.0
C624 C 0.19573 0.69288 0.5664 0.0
C625 C 0.19446 0.66698 0.55607 0.0
C626 C 0.17397 0.70303 0.57649 0.0
C627 C 0.15045 0.68763 0.5758 0.0
C628 C 0.14911 0.66185 0.5653 0.0
C629 C 0.17097 0.65154 0.55578 0.0
C630 C 0.0821 0.70761 0.58102 0.0
C631 C 0.08334 0.71804 0.60689 0.0
C632 C 0.10388 0.6975 0.57094 0.0
C633 C 0.12739 0.69826 0.58635 0.0
C634 C 0.12872 0.70889 0.61209 0.0
C635 C 0.10684 0.71842 0.62235 0.0
H636 H 0.02646 0.68855 0.72596 0.0
H637 H 0.95782 0.6896 0.67367 0.0
H638 H 1.00547 0.65329 0.74741 0.0
H639 H 0.93691 0.65423 0.69508 0.0
H640 H 0.89815 0.60785 0.75419 0.0
H641 H 0.91996 0.64543 0.7373 0.0
H642 H 0.99079 0.60671 0.73688 0.0
H643 H 0.96903 0.56899 0.75396 0.0
C644 C 1.00684 0.68134 0.7191 0.0
C645 C 0.99379 0.69191 0.6981 0.0
C646 C 0.9949 0.66104 0.73132 0.0
C647 C 0.96954 0.65098 0.72297 0.0
C648 C 0.95636 0.66177 0.70218 0.0
C649 C 0.96838 0.68195 0.68982 0.0
C650 C 0.91848 0.6074 0.75085 0.0
C651 C 0.93178 0.58527 0.75532 0.0
C652 C 0.93091 0.62891 0.74096 0.0
C653 C 0.957 0.62894 0.73545 0.0
C654 C 0.97068 0.60733 0.74102 0.0
C655 C 0.9582 0.58569 0.75079 0.0
H656 H 0.18913 0.22471 0.52112 0.0
H657 H 0.19117 0.173 0.45228 0.0
H658 H 0.1538 0.24592 0.50004 0.0
H659 H 0.15564 0.19413 0.43127 0.0
H660 H 0.10831 0.25281 0.39272 0.0
H661 H 0.14599 0.23592 0.41435 0.0
H662 H 0.10755 0.23525 0.48533 0.0
H663 H 0.06977 0.25239 0.46376 0.0
C664 C 0.18213 0.21793 0.50143 0.0
C665 C 0.19299 0.19715 0.48836 0.0
C666 C 0.16176 0.23001 0.48942 0.0
C667 C 0.15189 0.22172 0.464 0.0
C668 C 0.16301 0.20119 0.45078 0.0
C669 C 0.18329 0.18899 0.46285 0.0
C670 C 0.10793 0.24939 0.41303 0.0
C671 C 0.08589 0.25388 0.42645 0.0
C672 C 0.1295 0.2395 0.42536 0.0
C673 C 0.12967 0.23398 0.45147 0.0
C674 C 0.10808 0.23943 0.46522 0.0
C675 C 0.0864 0.24922 0.45284 0.0
H676 H 0.56057 0.4633 0.22161 0.0
H677 H 0.63005 0.42677 0.24438 0.0
H678 H 0.53924 0.42097 0.2058 0.0
H679 H 0.60879 0.38465 0.2284 0.0
H680 H 0.5569 0.31 0.2138 0.0
H681 H 0.57284 0.35209 0.23564 0.0
H682 H 0.54569 0.38988 0.16848 0.0
H683 H 0.52963 0.34804 0.14674 0.0
C684 C 0.5712 0.44625 0.22349 0.0
C685 C 0.59708 0.44843 0.23406 0.0
C686 C 0.55902 0.42205 0.21434 0.0
C687 C 0.57239 0.39955 0.21578 0.0
C688 C 0.59791 0.40162 0.22725 0.0
C689 C 0.61014 0.4258 0.23623 0.0
C690 C 0.55408 0.32731 0.20382 0.0
C691 C 0.54217 0.32565 0.17846 0.0
C692 C 0.56329 0.35138 0.21629 0.0
C693 C 0.56056 0.37424 0.20374 0.0
C694 C 0.54784 0.37263 0.17876 0.0
C695 C 0.53882 0.34861 0.16623 0.0
H696 H 0.32515 0.85995 0.94357 0.0
H697 H 0.33803 0.81895 0.01225 0.0
H698 H 0.36494 0.84473 0.92747 0.0
H699 H 0.37816 0.80497 0.99708 0.0
H700 H 0.45023 0.83241 0.91673 0.0
H701 H 0.41071 0.84865 0.93247 0.0
H702 H 0.39478 0.77665 0.9675 0.0
H703 H 0.4346 0.76125 0.95304 0.0
C704 C 0.3365 0.84774 0.95524 0.0
C705 C 0.32827 0.84044 0.97905 0.0
C706 C 0.35948 0.83921 0.94616 0.0
C707 C 0.37492 0.82348 0.96086 0.0
C708 C 0.36663 0.81647 0.9848 0.0
C709 C 0.34356 0.82462 0.99362 0.0
C710 C 0.43836 0.82025 0.92805 0.0
C711 C 0.44571 0.79565 0.93384 0.0
C712 C 0.41553 0.82942 0.93687 0.0
C713 C 0.39938 0.81406 0.95139 0.0
C714 C 0.40686 0.7894 0.95697 0.0
C715 C 0.42976 0.78046 0.94853 0.0
H716 H 0.9019 0.43942 0.81833 0.0
H717 H 0.97267 0.44939 0.78011 0.0
H718 H 0.9152 0.39844 0.83323 0.0
H719 H 0.98649 0.40922 0.79578 0.0
H720 H 0.99287 0.32422 0.80108 0.0
H721 H 0.97703 0.36438 0.78742 0.0
H722 H 0.94398 0.37728 0.86089 0.0
H723 H 0.95901 0.33633 0.87408 0.0
C724 C 0.92052 0.4331 0.81353 0.0
C725 C 0.93616 0.44757 0.79791 0.0
C726 C 0.92818 0.40959 0.82209 0.0
C727 C 0.95178 0.40017 0.81541 0.0
C728 C 0.96784 0.41535 0.80071 0.0
C729 C 0.96005 0.4386 0.79192 0.0
C730 C 0.98197 0.33548 0.81422 0.0
C731 C 0.97727 0.3271 0.8387 0.0
C732 C 0.9731 0.35872 0.80651 0.0
C733 C 0.95959 0.37449 0.82321 0.0
C734 C 0.95416 0.36567 0.84742 0.0
C735 C 0.96281 0.34217 0.85502 0.0
H736 H 0.31972 0.21353 0.53125 0.0
H737 H 0.34223 0.13998 0.55579 0.0
H738 H 0.36213 0.23416 0.54891 0.0
H739 H 0.38402 0.16076 0.57377 0.0
H740 H 0.43439 0.21829 0.63427 0.0
H741 H 0.39259 0.2005 0.61338 0.0
H742 H 0.41498 0.22491 0.53999 0.0
H743 H 0.4574 0.24237 0.56075 0.0
C744 C 0.3337 0.20179 0.54028 0.0
C745 C 0.32764 0.17516 0.54219 0.0
C746 C 0.35789 0.21356 0.55024 0.0
C747 C 0.37608 0.19895 0.56269 0.0
C748 C 0.37018 0.17235 0.5643 0.0
C749 C 0.34631 0.16051 0.55394 0.0
C750 C 0.43042 0.22009 0.61372 0.0
C751 C 0.44923 0.23164 0.59912 0.0
C752 C 0.40654 0.20984 0.60181 0.0
C753 C 0.40078 0.21137 0.57518 0.0
C754 C 0.41911 0.22364 0.56061 0.0
C755 C 0.44331 0.23348 0.57245 0.0
H756 H 0.52384 0.70727 0.30843 0.0
H757 H 0.52177 0.66716 0.37849 0.0
H758 H 0.54132 0.66989 0.28658 0.0
H759 H 0.53899 0.62987 0.35656 0.0
H760 H 0.55236 0.5888 0.24969 0.0
H761 H 0.53092 0.62393 0.2708 0.0
H762 H 0.58114 0.62054 0.34045 0.0
H763 H 0.60248 0.58522 0.31943 0.0
C764 C 0.5267 0.69037 0.31906 0.0
C765 C 0.5215 0.69034 0.34528 0.0
C766 C 0.5367 0.66892 0.30651 0.0
C767 C 0.54181 0.64701 0.31993 0.0
C768 C 0.5357 0.64662 0.34582 0.0
C769 C 0.52562 0.66797 0.35832 0.0
C770 C 0.55876 0.59544 0.26957 0.0
C771 C 0.57914 0.58418 0.2829 0.0
C772 C 0.54655 0.61568 0.28159 0.0
C773 C 0.5543 0.62503 0.30729 0.0
C774 C 0.57449 0.61357 0.32073 0.0
C775 C 0.58681 0.59341 0.30865 0.0
H776 H 0.07004 0.82112 0.08249 0.0
H777 H 0.1041 0.749 0.06611 0.0
H778 H 0.10403 0.844 0.0611 0.0
H779 H 0.13943 0.77181 0.04679 0.0
H780 H 0.1929 0.81451 0.99771 0.0
H781 H 0.15476 0.7923 0.01337 0.0
H782 H 0.14572 0.86016 0.06466 0.0
H783 H 0.18225 0.88267 0.04727 0.0
C784 C 0.08508 0.81026 0.07457 0.0
C785 C 0.08448 0.78335 0.0759 0.0
C786 C 0.10478 0.82336 0.06245 0.0
C787 C 0.1249 0.80998 0.05214 0.0
C788 C 0.12417 0.78294 0.05376 0.0
C789 C 0.10401 0.76978 0.06512 0.0
C790 C 0.18238 0.82468 0.01202 0.0
C791 C 0.19042 0.85034 0.02113 0.0
C792 C 0.16064 0.81188 0.02132 0.0
C793 C 0.14693 0.82417 0.04061 0.0
C794 C 0.15508 0.85001 0.04945 0.0
C795 C 0.17627 0.86299 0.03958 0.0
H796 H 0.75412 0.96413 0.56553 0.0
H797 H 0.75569 0.89399 0.60554 0.0
H798 H 0.73694 0.98614 0.60299 0.0
H799 H 0.73877 0.91606 0.64292 0.0
H800 H 0.67573 0.9538 0.68779 0.0
H801 H 0.69685 0.93254 0.65244 0.0
H802 H 0.74754 1.00184 0.64892 0.0
H803 H 0.72632 0.02317 0.68406 0.0
C804 C 0.75121 0.95351 0.58242 0.0
C805 C 0.75618 0.92723 0.5824 0.0
C806 C 0.74139 0.96614 0.60392 0.0
C807 C 0.73622 0.95276 0.62583 0.0
C808 C 0.7421 0.92679 0.62617 0.0
C809 C 0.75201 0.9142 0.60477 0.0
C810 C 0.69146 0.96445 0.67957 0.0
C811 C 0.69932 0.99017 0.68875 0.0
C812 C 0.70366 0.95223 0.6594 0.0
C813 C 0.7239 0.96551 0.64787 0.0
C814 C 0.73186 0.99117 0.6572 0.0
C815 C 0.71977 1.00333 0.67746 0.0
H816 H 0.85977 0.94257 0.32237 0.0
H817 H 0.81979 0.01179 0.33578 0.0
H818 H 0.84452 0.92647 0.36216 0.0
H819 H 0.80574 0.99657 0.37587 0.0
H820 H 0.76241 0.95323 0.43313 0.0
H821 H 0.77734 0.9673 0.39293 0.0
H822 H 0.84902 0.93148 0.40796 0.0
H823 H 0.83325 0.91618 0.44787 0.0
C824 C 0.84774 0.95433 0.3338 0.0
C825 C 0.84079 0.97834 0.32574 0.0
C826 C 0.83919 0.94525 0.35679 0.0
C827 C 0.82378 0.96012 0.37242 0.0
C828 C 0.81702 0.98418 0.36423 0.0
C829 C 0.82521 0.99303 0.34117 0.0
C830 C 0.78144 0.94846 0.42799 0.0
C831 C 0.7967 0.9337 0.44384 0.0
C832 C 0.79012 0.95666 0.40487 0.0
C833 C 0.81456 0.95076 0.39704 0.0
C834 C 0.82996 0.93613 0.41305 0.0
C835 C 0.82105 0.92756 0.4361 0.0
H836 H 0.82293 0.08391 0.06758 0.0
H837 H 0.75085 0.07204 0.10296 0.0
H838 H 0.84494 0.06179 0.10157 0.0
H839 H 0.77293 0.05202 0.13831 0.0
H840 H 0.81397 1.00182 0.19236 0.0
H841 H 0.79188 0.01805 0.1544 0.0
H842 H 0.86174 0.06546 0.14294 0.0
H843 H 0.88397 0.04749 0.17923 0.0
C844 C 0.81191 0.07681 0.0829 0.0
C845 C 0.78526 0.07966 0.08269 0.0
C846 C 0.82452 0.06429 0.10263 0.0
C847 C 0.81096 0.05511 0.12318 0.0
C848 C 0.78416 0.05814 0.12277 0.0
C849 C 0.77144 0.0699 0.10258 0.0
C850 C 0.82456 0.01542 0.18136 0.0
C851 C 0.85071 0.02321 0.18862 0.0
C852 C 0.81186 0.02503 0.15971 0.0
C853 C 0.8248 0.04333 0.14529 0.0
C854 C 0.85106 0.05097 0.15279 0.0
C855 C 0.86389 0.04077 0.17386 0.0
H856 H 0.64774 0.02929 0.84568 0.0
H857 H 0.71728 0.05281 0.80963 0.0
H858 H 0.66866 0.04545 0.8879 0.0
H859 H 0.73826 0.06879 0.85205 0.0
H860 H 0.74723 0.12756 0.92518 0.0
H861 H 0.73142 0.10591 0.88321 0.0
H862 H 0.70449 0.03844 0.92064 0.0
H863 H 0.72015 0.06019 0.96284 0.0
C864 C 0.66761 0.03766 0.84678 0.0
C865 C 0.68077 0.03996 0.82424 0.0
C866 C 0.67963 0.04673 0.87102 0.0
C867 C 0.70505 0.05845 0.87326 0.0
C868 C 0.71854 0.06006 0.85085 0.0
C869 C 0.70657 0.05081 0.82658 0.0
C870 C 0.73813 0.10802 0.9245 0.0
C871 C 0.73477 0.09568 0.94739 0.0
C872 C 0.72926 0.09554 0.90041 0.0
C873 C 0.71668 0.0705 0.89865 0.0
C874 C 0.71392 0.05784 0.92145 0.0
C875 C 0.72299 0.07026 0.94559 0.0
H876 H 0.60605 0.7523 0.89249 0.0
H877 H 0.5662 0.75122 0.96272 0.0
H878 H 0.64337 0.73521 0.91461 0.0
H879 H 0.60354 0.73383 0.98473 0.0
H880 H 0.68432 0.72297 0.02199 0.0
H881 H 0.64927 0.7442 1.00048 0.0
H882 H 0.653 0.69349 0.93128 0.0
H883 H 0.6883 0.67239 0.9527 0.0
C884 C 0.6053 0.74867 0.91272 0.0
C885 C 0.58301 0.75305 0.92577 0.0
C886 C 0.62666 0.73866 0.92533 0.0
C887 C 0.62633 0.73289 0.95134 0.0
C888 C 0.60448 0.73821 0.96472 0.0
C889 C 0.58304 0.74814 0.95207 0.0
C890 C 0.67777 0.71641 1.00213 0.0
C891 C 0.68912 0.69596 0.98905 0.0
C892 C 0.65757 0.72851 0.98987 0.0
C893 C 0.64833 0.72055 0.96418 0.0
C894 C 0.65989 0.70031 0.95098 0.0
C895 C 0.68003 0.68811 0.9633 0.0
H896 H 0.10413 0.08606 0.82018 0.0
H897 H 0.04914 0.08477 0.75328 0.0
H898 H 0.08263 0.12114 0.84144 0.0
H899 H 0.02748 0.11951 0.77466 0.0
H900 H 0.02562 0.16924 0.88145 0.0
H901 H 0.04233 0.13112 0.86039 0.0
H902 H 0.03661 0.1657 0.78717 0.0
H903 H 0.01954 0.2037 0.8081 0.0
C904 C 0.08731 0.09307 0.81012 0.0
C905 C 0.07842 0.08265 0.78501 0.0
C906 C 0.07489 0.11308 0.82235 0.0
C907 C 0.05334 0.12318 0.80973 0.0
C908 C 0.04421 0.11242 0.7848 0.0
C909 C 0.05656 0.09239 0.77261 0.0
C910 C 0.02757 0.16861 0.86078 0.0
C911 C 0.02131 0.18964 0.84651 0.0
C912 C 0.03737 0.14681 0.84876 0.0
C913 C 0.04106 0.14544 0.82215 0.0
C914 C 0.03383 0.16602 0.80767 0.0
C915 C 0.02409 0.18786 0.8197 0.0
H916 H 0.9512 0.33135 0.41657 0.0
H917 H 0.93742 0.26105 0.45482 0.0
H918 H 0.91129 0.34703 0.43192 0.0
H919 H 0.89722 0.27588 0.46895 0.0
H920 H 0.84008 0.31851 0.51316 0.0
H921 H 0.88022 0.30464 0.49796 0.0
H922 H 0.86541 0.34191 0.42708 0.0
H923 H 0.82554 0.35699 0.44312 0.0
C924 C 0.93966 0.31925 0.42824 0.0
C925 C 0.94765 0.29507 0.43468 0.0
C926 C 0.9166 0.3281 0.43683 0.0
C927 C 0.90086 0.31281 0.4518 0.0
C928 C 0.90896 0.28857 0.45803 0.0
C929 C 0.93208 0.27995 0.4498 0.0
C930 C 0.84523 0.32363 0.49423 0.0
C931 C 0.82948 0.33875 0.4793 0.0
C932 C 0.86833 0.31555 0.4854 0.0
C933 C 0.87622 0.32194 0.46113 0.0
C934 C 0.86027 0.33688 0.44602 0.0
C935 C 0.83724 0.34532 0.45508 0.0
H936 H 0.61476 0.92717 0.76043 0.0
H937 H 0.54931 0.96493 0.78751 0.0
H938 H 0.59784 0.88666 0.77598 0.0
H939 H 0.53165 0.92416 0.80204 0.0
H940 H 0.52695 0.85787 0.85592 0.0
H941 H 0.5395 0.89737 0.83579 0.0
H942 H 0.56653 0.85148 0.77176 0.0
H943 H 0.55506 0.81216 0.79259 0.0
C944 C 0.59641 0.92665 0.76913 0.0
C945 C 0.58347 0.9493 0.77286 0.0
C946 C 0.5866 0.90335 0.77801 0.0
C947 C 0.56341 0.90203 0.79056 0.0
C948 C 0.54985 0.92448 0.79307 0.0
C949 C 0.55985 0.94784 0.7845 0.0
C950 C 0.53538 0.85625 0.83745 0.0
C951 C 0.54016 0.83191 0.82595 0.0
C952 C 0.54246 0.87892 0.82576 0.0
C953 C 0.55419 0.87778 0.80209 0.0
C954 C 0.55808 0.85326 0.79021 0.0
C955 C 0.55133 0.83065 0.80207 0.0
H956 H 0.99856 0.20228 0.31001 0.0
H957 H 0.96107 0.19037 0.38035 0.0
H958 H 0.98007 0.15966 0.29151 0.0
H959 H 0.94316 0.14783 0.36211 0.0
H960 H 0.89315 0.08545 0.311 0.0
H961 H 0.91136 0.12812 0.32866 0.0
H962 H 0.98434 0.11348 0.29763 0.0
H963 H 0.96593 0.07077 0.27939 0.0
C964 C 0.98632 0.19066 0.32148 0.0
C965 C 0.98128 0.19978 0.34664 0.0
C966 C 0.97593 0.16616 0.31097 0.0
C967 C 0.96022 0.15034 0.32538 0.0
C968 C 0.95494 0.15964 0.35038 0.0
C969 C 0.96531 0.18403 0.36087 0.0
C970 C 0.91313 0.0912 0.30802 0.0
C971 C 0.92809 0.07464 0.29378 0.0
C972 C 0.92359 0.11568 0.31823 0.0
C973 C 0.94928 0.12422 0.3145 0.0
C974 C 0.96437 0.10759 0.30052 0.0
C975 C 0.9539 0.08303 0.2903 0.0
H976 H 0.56992 0.07551 0.7346 0.0
H977 H 0.64085 0.09163 0.69791 0.0
H978 H 0.55287 0.11421 0.71786 0.0
H979 H 0.624 0.13032 0.68164 0.0
H980 H 0.57434 0.1817 0.63398 0.0
H981 H 0.59082 0.14289 0.65042 0.0
H982 H 0.5609 0.16193 0.72434 0.0
H983 H 0.54396 0.20073 0.70775 0.0
C984 C 0.58182 0.08719 0.72288 0.0
C985 C 0.60675 0.08041 0.71759 0.0
C986 C 0.57214 0.10949 0.71349 0.0
C987 C 0.58712 0.1254 0.6985 0.0
C988 C 0.61185 0.11837 0.6929 0.0
C989 C 0.62155 0.09618 0.70233 0.0
C990 C 0.57137 0.17776 0.6538 0.0
C991 C 0.55783 0.19439 0.66954 0.0
C992 C 0.5809 0.1555 0.66325 0.0
C993 C 0.5771 0.14926 0.68866 0.0
C994 C 0.56383 0.16602 0.70455 0.0
C995 C 0.55435 0.18838 0.69512 0.0
H996 H 0.21355 0.31509 0.96641 0.0
H997 H 0.17938 0.38719 0.98381 0.0
H998 H 0.17133 0.29567 0.94708 0.0
H999 H 0.13719 0.36744 0.96519 0.0
H1000 H 0.06413 0.30423 0.95929 0.0
H1001 H 0.1063 0.32393 0.97855 0.0
H1002 H 0.13915 0.31029 0.9053 0.0
H1003 H 0.09702 0.29134 0.88577 0.0
C1004 C 0.19705 0.32673 0.96613 0.0
C1005 C 0.19975 0.35267 0.97647 0.0
C1006 C 0.173 0.31565 0.9551 0.0
C1007 C 0.15119 0.33013 0.95485 0.0
C1008 C 0.15379 0.35594 0.96534 0.0
C1009 C 0.17792 0.36722 0.97579 0.0
C1010 C 0.08034 0.30554 0.94731 0.0
C1011 C 0.0773 0.29638 0.92103 0.0
C1012 C 0.10435 0.31681 0.9583 0.0
C1013 C 0.12579 0.31845 0.94333 0.0
C1014 C 0.12285 0.30908 0.91717 0.0
C1015 C 0.09875 0.29841 0.90603 0.0
H1016 H 0.46319 0.71525 0.478 0.0
H1017 H 0.41733 0.74775 0.41745 0.0
H1018 H 0.42407 0.70364 0.49908 0.0
H1019 H 0.378 0.7352 0.43788 0.0
H1020 H 0.31179 0.72567 0.48825 0.0
H1021 H 0.35253 0.74255 0.47306 0.0
H1022 H 0.38781 0.67324 0.49385 0.0
H1023 H 0.34736 0.65695 0.50999 0.0
C1024 C 0.44471 0.71993 0.46918 0.0
C1025 C 0.44336 0.73237 0.446 0.0
C1026 C 0.42221 0.7131 0.48119 0.0
C1027 C 0.39771 0.71826 0.47017 0.0
C1028 C 0.39647 0.73122 0.44722 0.0
C1029 C 0.41904 0.73832 0.43537 0.0
C1030 C 0.32838 0.71423 0.48994 0.0
C1031 C 0.32631 0.68993 0.50029 0.0
C1032 C 0.35172 0.7238 0.48099 0.0
C1033 C 0.37352 0.7092 0.48189 0.0
C1034 C 0.37163 0.68526 0.49309 0.0
C1035 C 0.34835 0.67582 0.50231 0.0
H1036 H 0.81347 0.57457 0.81784 0.0
H1037 H 0.84364 0.50751 0.85013 0.0
H1038 H 0.79347 0.58508 0.85767 0.0
H1039 H 0.8224 0.51715 0.88972 0.0
H1040 H 0.81147 0.5619 0.96725 0.0
H1041 H 0.82667 0.54597 0.92647 0.0
H1042 H 0.76119 0.5757 0.8851 0.0
H1043 H 0.7468 0.59294 0.92616 0.0
C1044 C 0.81542 0.56177 0.83333 0.0
C1045 C 0.83028 0.54028 0.83088 0.0
C1046 C 0.80372 0.56768 0.85619 0.0
C1047 C 0.80621 0.55203 0.87714 0.0
C1048 C 0.82042 0.53 0.87429 0.0
C1049 C 0.83249 0.52432 0.85152 0.0
C1050 C 0.8001 0.56477 0.94948 0.0
C1051 C 0.77801 0.57887 0.94996 0.0
C1052 C 0.80877 0.55546 0.92597 0.0
C1053 C 0.79536 0.55964 0.90225 0.0
C1054 C 0.77244 0.57261 0.90286 0.0
C1055 C 0.764 0.58231 0.92643 0.0
H1056 H 0.70939 0.53911 0.19925 0.0
H1057 H 0.6368 0.57187 0.18026 0.0
H1058 H 0.72667 0.556 0.1607 0.0
H1059 H 0.65382 0.58815 0.14173 0.0
H1060 H 0.70158 0.63785 0.09141 0.0
H1061 H 0.68543 0.62076 0.12996 0.0
H1062 H 0.7209 0.54936 0.11297 0.0
H1063 H 0.73766 0.56673 0.07439 0.0
C1064 C 0.69715 0.54996 0.18695 0.0
C1065 C 0.67173 0.5542 0.19294 0.0
C1066 C 0.70697 0.55943 0.16474 0.0
C1067 C 0.69161 0.5734 0.14812 0.0
C1068 C 0.6663 0.57776 0.15427 0.0
C1069 C 0.6565 0.56833 0.17637 0.0
C1070 C 0.7059 0.61845 0.09574 0.0
C1071 C 0.7209 0.60365 0.07971 0.0
C1072 C 0.69653 0.60861 0.11785 0.0
C1073 C 0.70185 0.58369 0.12456 0.0
C1074 C 0.71672 0.56876 0.10849 0.0
C1075 C 0.72612 0.57862 0.08626 0.0
H1076 H 0.74897 0.41585 0.41628 0.0
H1077 H 0.72113 0.4795 0.46176 0.0
H1078 H 0.73705 0.43617 0.37673 0.0
H1079 H 0.7103 0.50051 0.4224 0.0
H1080 H 0.72843 0.48463 0.30921 0.0
H1081 H 0.74557 0.46995 0.3501 0.0
H1082 H 0.67925 0.49657 0.38696 0.0
H1083 H 0.66285 0.51225 0.34633 0.0
C1084 C 0.74073 0.43443 0.41784 0.0
C1085 C 0.73583 0.44596 0.44213 0.0
C1086 C 0.73401 0.44623 0.39515 0.0
C1087 C 0.72255 0.47004 0.39621 0.0
C1088 C 0.71855 0.48196 0.42067 0.0
C1089 C 0.72494 0.46998 0.44331 0.0
C1090 C 0.71776 0.48774 0.32618 0.0
C1091 C 0.69425 0.49955 0.32452 0.0
C1092 C 0.72746 0.47908 0.34962 0.0
C1093 C 0.7137 0.48169 0.37191 0.0
C1094 C 0.69064 0.49444 0.37039 0.0
C1095 C 0.68113 0.50341 0.34702 0.0
H1096 H 0.81467 0.49781 0.70179 0.0
H1097 H 0.88627 0.46365 0.68735 0.0
H1098 H 0.79561 0.47923 0.65944 0.0
H1099 H 0.86743 0.44567 0.64502 0.0
H1100 H 0.81608 0.39333 0.58473 0.0
H1101 H 0.83475 0.41249 0.62666 0.0
H1102 H 0.79939 0.48357 0.61293 0.0
H1103 H 0.78011 0.46414 0.57094 0.0
C1104 C 0.82633 0.48635 0.68963 0.0
C1105 C 0.85196 0.48214 0.69802 0.0
C1106 C 0.81548 0.4759 0.66528 0.0
C1107 C 0.83002 0.46101 0.64886 0.0
C1108 C 0.8556 0.45677 0.65733 0.0
C1109 C 0.86642 0.46718 0.6816 0.0
C1110 C 0.81234 0.41309 0.59052 0.0
C1111 C 0.79659 0.4272 0.57443 0.0
C1112 C 0.82315 0.42412 0.61456 0.0
C1113 C 0.81856 0.44955 0.62314 0.0
C1114 C 0.80302 0.46381 0.60699 0.0
C1115 C 0.79217 0.45275 0.58285 0.0
H1116 H 0.39301 0.09333 0.22623 0.0
H1117 H 0.46279 0.0821 0.2732 0.0
H1118 H 0.41484 0.12989 0.20825 0.0
H1119 H 0.48439 0.12025 0.25693 0.0
H1120 H 0.5256 0.1707 0.20246 0.0
H1121 H 0.50353 0.13556 0.2227 0.0
H1122 H 0.43124 0.17153 0.2114 0.0
H1123 H 0.4533 0.20538 0.18911 0.0
C1124 C 0.41292 0.09918 0.23325 0.0
C1125 C 0.4262 0.08484 0.25112 0.0
C1126 C 0.42551 0.12039 0.22303 0.0
C1127 C 0.45161 0.12838 0.23094 0.0
C1128 C 0.46456 0.1145 0.24969 0.0
C1129 C 0.45213 0.09274 0.25934 0.0
C1130 C 0.50496 0.17098 0.20432 0.0
C1131 C 0.4911 0.19063 0.19411 0.0
C1132 C 0.49224 0.15092 0.21622 0.0
C1133 C 0.46538 0.15038 0.21893 0.0
C1134 C 0.45173 0.17063 0.20922 0.0
C1135 C 0.46437 0.19026 0.19658 0.0
H1136 H 0.03263 0.82047 0.71211 0.0
H1137 H 0.05836 0.8405 0.63823 0.0
H1138 H 0.04991 0.86335 0.73163 0.0
H1139 H 0.07595 0.88288 0.65793 0.0
H1140 H 0.13565 0.93505 0.71461 0.0
H1141 H 0.11473 0.8934 0.69642 0.0
H1142 H 0.04177 0.91477 0.72285 0.0
H1143 H 0.06256 0.95701 0.74073 0.0
C1144 C 0.04181 0.83404 0.70004 0.0
C1145 C 0.04422 0.82711 0.67367 0.0
C1146 C 0.05155 0.85852 0.71118 0.0
C1147 C 0.06428 0.87618 0.69622 0.0
C1148 C 0.06628 0.86946 0.66982 0.0
C1149 C 0.05614 0.84526 0.65858 0.0
C1150 C 0.11518 0.93089 0.71671 0.0
C1151 C 0.10072 0.94932 0.72906 0.0
C1152 C 0.10323 0.90712 0.70619 0.0
C1153 C 0.07672 0.90109 0.70822 0.0
C1154 C 0.06229 0.9191 0.72114 0.0
C1155 C 0.07415 0.9432 0.73125 0.0
H1156 H 0.44375 0.82428 0.3552 0.0
H1157 H 0.51517 0.83962 0.31931 0.0
H1158 H 0.42795 0.86412 0.33973 0.0
H1159 H 0.50021 0.87975 0.30511 0.0
H1160 H 0.45843 0.93721 0.26055 0.0
H1161 H 0.47222 0.89694 0.2756 0.0
H1162 H 0.43211 0.90984 0.34497 0.0
H1163 H 0.41711 0.94977 0.329 0.0
C1164 C 0.45607 0.83616 0.34404 0.0
C1165 C 0.4806 0.82862 0.33828 0.0
C1166 C 0.44715 0.85917 0.33537 0.0
C1167 C 0.4627 0.87534 0.32104 0.0
C1168 C 0.4873 0.86769 0.3155 0.0
C1169 C 0.496 0.8446 0.32379 0.0
C1170 C 0.45265 0.93158 0.2791 0.0
C1171 C 0.43679 0.94683 0.29364 0.0
C1172 C 0.46069 0.90842 0.28786 0.0
C1173 C 0.45351 0.89998 0.31168 0.0
C1174 C 0.43777 0.9154 0.32637 0.0
C1175 C 0.42936 0.93847 0.31736 0.0
H1176 H 0.84677 0.64872 0.02427 0.0
H1177 H 0.80971 0.71567 0.05336 0.0
H1178 H 0.88893 0.66994 0.04001 0.0
H1179 H 0.85215 0.73701 0.06898 0.0
H1180 H 0.92763 0.744 0.12523 0.0
H1181 H 0.88511 0.72879 0.10432 0.0
H1182 H 0.92016 0.70717 0.03379 0.0
H1183 H 0.96284 0.72217 0.05472 0.0
C1184 C 0.84763 0.6681 0.03377 0.0
C1185 C 0.82486 0.68043 0.03775 0.0
C1186 C 0.87183 0.68033 0.04261 0.0
C1187 C 0.87382 0.7051 0.05577 0.0
C1188 C 0.85114 0.7178 0.05909 0.0
C1189 C 0.82689 0.70563 0.05003 0.0
C1190 C 0.92629 0.73622 0.10519 0.0
C1191 C 0.94866 0.73408 0.09171 0.0
C1192 C 0.90188 0.7277 0.09316 0.0
C1193 C 0.89934 0.71673 0.06746 0.0
C1194 C 0.92159 0.71532 0.05371 0.0
C1195 C 0.94601 0.724 0.06568 0.0
H1196 H 0.58591 0.32099 0.60176 0.0
H1197 H 0.58811 0.25215 0.55008 0.0
H1198 H 0.6215 0.34201 0.58074 0.0
H1199 H 0.62351 0.27325 0.52899 0.0
H1200 H 0.70754 0.30948 0.52269 0.0
H1201 H 0.66972 0.28795 0.53976 0.0
H1202 H 0.63131 0.35896 0.53901 0.0
H1203 H 0.66904 0.38057 0.52218 0.0
C1204 C 0.59384 0.31042 0.5858 0.0
C1205 C 0.58416 0.2849 0.57762 0.0
C1206 C 0.61415 0.3225 0.57366 0.0
C1207 C 0.62535 0.30928 0.55318 0.0
C1208 C 0.61549 0.28385 0.54486 0.0
C1209 C 0.59509 0.27184 0.55688 0.0
C1210 C 0.69091 0.32043 0.52583 0.0
C1211 C 0.69145 0.34681 0.52116 0.0
C1212 C 0.6692 0.30806 0.53558 0.0
C1213 C 0.64761 0.32182 0.54099 0.0
C1214 C 0.6478 0.34793 0.53547 0.0
C1215 C 0.6694 0.36025 0.52561 0.0
H1216 H 0.22677 0.39281 0.09106 0.0
H1217 H 0.27715 0.46092 0.08202 0.0
H1218 H 0.20908 0.41492 0.12762 0.0
H1219 H 0.26114 0.48268 0.12019 0.0
H1220 H 0.20786 0.52573 0.17043 0.0
H1221 H 0.22774 0.50323 0.13532 0.0
H1222 H 0.21194 0.43055 0.16944 0.0
H1223 H 0.19004 0.45315 0.20321 0.0
C1224 C 0.23458 0.41238 0.09741 0.0
C1225 C 0.25334 0.42514 0.08367 0.0
C1226 C 0.22452 0.42512 0.11862 0.0
C1227 C 0.23347 0.45083 0.12722 0.0
C1228 C 0.2531 0.4632 0.11395 0.0
C1229 C 0.26259 0.45066 0.09219 0.0
C1230 C 0.20866 0.50491 0.17031 0.0
C1231 C 0.1973 0.49114 0.18941 0.0
C1232 C 0.22034 0.49193 0.15026 0.0
C1233 C 0.22168 0.46484 0.14921 0.0
C1234 C 0.21083 0.45124 0.16893 0.0
C1235 C 0.19841 0.46418 0.18851 0.0
H1236 H 0.30361 0.49266 0.8241 0.0
H1237 H 0.37445 0.45456 0.8342 0.0
H1238 H 0.28985 0.47712 0.86435 0.0
H1239 H 0.36119 0.43976 0.87522 0.0
H1240 H 0.3176 0.39907 0.93751 0.0
H1241 H 0.33242 0.41211 0.89644 0.0
H1242 H 0.29936 0.4856 0.90922 0.0
H1243 H 0.28375 0.4721 0.94954 0.0
C1244 C 0.31625 0.48089 0.83493 0.0
C1245 C 0.34016 0.47492 0.82596 0.0
C1246 C 0.30849 0.47218 0.85822 0.0
C1247 C 0.32458 0.45753 0.87345 0.0
C1248 C 0.34818 0.45085 0.86404 0.0
C1249 C 0.35583 0.45936 0.8405 0.0
C1250 C 0.31374 0.4181 0.93162 0.0
C1251 C 0.29936 0.43448 0.94673 0.0
C1252 C 0.32227 0.42562 0.90805 0.0
C1253 C 0.31681 0.4498 0.89917 0.0
C1254 C 0.30334 0.46654 0.91494 0.0
C1255 C 0.29459 0.45892 0.93828 0.0
H1256 H 0.25184 0.54718 0.5844 0.0
H1257 H 0.31979 0.60057 0.58428 0.0
H1258 H 0.27294 0.52576 0.61958 0.0
H1259 H 0.34081 0.57922 0.61963 0.0
H1260 H 0.38017 0.52068 0.66634 0.0
H1261 H 0.35852 0.53758 0.62866 0.0
H1262 H 0.28691 0.53583 0.66612 0.0
H1263 H 0.30848 0.51869 0.70388 0.0
C1264 C 0.27133 0.55429 0.59179 0.0
C1265 C 0.28415 0.5756 0.58151 0.0
C1266 C 0.28335 0.54208 0.61207 0.0
C1267 C 0.30854 0.55076 0.62241 0.0
C1268 C 0.3215 0.57185 0.61188 0.0
C1269 C 0.30941 0.58418 0.59171 0.0
C1270 C 0.35971 0.52355 0.66648 0.0
C1271 C 0.34611 0.51842 0.68827 0.0
C1272 C 0.34737 0.53345 0.64492 0.0
C1273 C 0.32108 0.53834 0.6445 0.0
C1274 C 0.30716 0.53216 0.66578 0.0
C1275 C 0.31955 0.52236 0.68746 0.0
H1276 H 0.14141 0.55888 0.33803 0.0
H1277 H 0.21529 0.53465 0.31634 0.0
H1278 H 0.16173 0.57674 0.38007 0.0
H1279 H 0.23547 0.55217 0.35891 0.0
H1280 H 0.24485 0.56196 0.45284 0.0
H1281 H 0.2275 0.54254 0.40994 0.0
H1282 H 0.19968 0.61582 0.39139 0.0
H1283 H 0.21735 0.63543 0.43379 0.0
C1284 C 0.16193 0.55712 0.34233 0.0
C1285 C 0.17679 0.54542 0.32387 0.0
C1286 C 0.17352 0.56744 0.36632 0.0
C1287 C 0.20009 0.56584 0.37253 0.0
C1288 C 0.21491 0.55353 0.35447 0.0
C1289 C 0.20339 0.54363 0.33017 0.0
C1290 C 0.23523 0.57395 0.4395 0.0
C1291 C 0.2324 0.60019 0.44668 0.0
C1292 C 0.22543 0.56287 0.41501 0.0
C1293 C 0.21223 0.57774 0.39761 0.0
C1294 C 0.2097 0.60399 0.40462 0.0
C1295 C 0.21991 0.61518 0.42882 0.0
loop_
_geom_bond_atom_site_label_1
_geom_bond_atom_site_label_2
_geom_bond_distance
_geom_bond_site_symmetry_2
_ccdc_geom_bond_type
O0 Cd1 2.223 . S
O0 C8 1.315 . S
Cd1 O0 2.223 . S
Cd1 O4 2.297 . S
Cd1 O5 2.439 . S
Cd1 O11 2.240 1_455 S
Cd2 O3 2.240 1_655 S
Cd2 O10 2.223 . S
Cd2 O12 2.297 . S
Cd2 O13 2.439 . S
O3 Cd2 2.240 1_455 S
O3 C8 1.279 . S
O4 Cd1 2.297 . S
O4 C6 1.247 . S
O5 Cd1 2.439 . S
O5 C6 1.208 . S
C6 O4 1.247 . S
C6 O5 1.208 . S
C7 O12 1.247 . S
C7 O13 1.208 . S
C8 O0 1.315 . S
C8 O3 1.279 . S
C9 O10 1.315 . S
C9 O11 1.279 . S
O10 Cd2 2.223 . S
O10 C9 1.315 . S
O11 Cd1 2.240 1_655 S
O11 C9 1.279 . S
O12 Cd2 2.297 . S
O12 C7 1.247 . S
O13 Cd2 2.439 . S
O13 C7 1.208 . S
O14 Cd15 2.223 . S
O14 C22 1.315 . S
Cd15 O14 2.223 . S
Cd15 O18 2.297 . S
Cd15 O19 2.439 1_455 S
Cd15 O25 2.240 . S
Cd16 O17 2.240 . S
Cd16 O24 2.223 . S
Cd16 O26 2.297 1_455 S
Cd16 O27 2.439 1_455 S
O17 Cd16 2.240 . S
O17 C22 1.279 . S
O18 Cd15 2.297 . S
O18 C20 1.247 1_455 S
O19 Cd15 2.439 1_655 S
O19 C20 1.208 . S
C20 O18 1.247 1_655 S
C20 O19 1.208 . S
C21 O26 1.247 . S
C21 O27 1.208 . S
C22 O14 1.315 . S
C22 O17 1.279 . S
C23 O24 1.315 . S
C23 O25 1.279 . S
O24 Cd16 2.223 . S
O24 C23 1.315 . S
O25 Cd15 2.240 . S
O25 C23 1.279 . S
O26 Cd16 2.297 1_655 S
O26 C21 1.247 . S
O27 Cd16 2.439 1_655 S
O27 C21 1.208 . S
O28 Cd29 2.223 . S
O28 C36 1.315 . S
Cd29 O28 2.223 . S
Cd29 O32 2.297 . S
Cd29 O33 2.439 . S
Cd29 O39 2.240 . S
Cd30 O31 2.240 . S
Cd30 O38 2.223 . S
Cd30 O40 2.297 . S
Cd30 O41 2.439 . S
O31 Cd30 2.240 . S
O31 C36 1.279 . S
O32 Cd29 2.297 . S
O32 C34 1.247 . S
O33 Cd29 2.439 . S
O33 C34 1.208 . S
C34 O32 1.247 . S
C34 O33 1.208 . S
C35 O40 1.247 . S
C35 O41 1.208 . S
C36 O28 1.315 . S
C36 O31 1.279 . S
C37 O38 1.315 . S
C37 O39 1.279 . S
O38 Cd30 2.223 . S
O38 C37 1.315 . S
O39 Cd29 2.240 . S
O39 C37 1.279 . S
O40 Cd30 2.297 . S
O40 C35 1.247 . S
O41 Cd30 2.439 . S
O41 C35 1.208 . S
O42 Cd43 2.223 . S
O42 C50 1.315 . S
Cd43 O42 2.223 . S
Cd43 O46 2.297 . S
Cd43 O47 2.439 . S
Cd43 O53 2.240 . S
Cd44 O45 2.240 . S
Cd44 O52 2.223 . S
Cd44 O54 2.297 . S
Cd44 O55 2.439 . S
O45 Cd44 2.240 . S
O45 C50 1.279 . S
O46 Cd43 2.297 . S
O46 C48 1.247 . S
O47 Cd43 2.439 . S
O47 C48 1.208 . S
C48 O46 1.247 . S
C48 O47 1.208 . S
C49 O54 1.247 . S
C49 O55 1.208 . S
C50 O42 1.315 . S
C50 O45 1.279 . S
C51 O52 1.315 . S
C51 O53 1.279 . S
O52 Cd44 2.223 . S
O52 C51 1.315 . S
O53 Cd43 2.240 . S
O53 C51 1.279 . S
O54 Cd44 2.297 . S
O54 C49 1.247 . S
O55 Cd44 2.439 . S
O55 C49 1.208 . S
O56 Cd57 2.223 . S
O56 C64 1.315 . S
Cd57 O56 2.223 . S
Cd57 O60 2.297 . S
Cd57 O61 2.439 . S
Cd57 O67 2.240 1_455 S
Cd58 O59 2.240 1_655 S
Cd58 O66 2.223 . S
Cd58 O68 2.297 . S
Cd58 O69 2.439 . S
O59 Cd58 2.240 1_455 S
O59 C64 1.279 . S
O60 Cd57 2.297 . S
O60 C62 1.247 . S
O61 Cd57 2.439 . S
O61 C62 1.208 . S
C62 O60 1.247 . S
C62 O61 1.208 . S
C63 O68 1.247 . S
C63 O69 1.208 . S
C64 O56 1.315 . S
C64 O59 1.279 . S
C65 O66 1.315 . S
C65 O67 1.279 . S
O66 Cd58 2.223 . S
O66 C65 1.315 . S
O67 Cd57 2.240 1_655 S
O67 C65 1.279 . S
O68 Cd58 2.297 . S
O68 C63 1.247 . S
O69 Cd58 2.439 . S
O69 C63 1.208 . S
O70 Cd71 2.223 . S
O70 C78 1.315 . S
Cd71 O70 2.223 . S
Cd71 O74 2.297 . S
Cd71 O75 2.439 . S
Cd71 O81 2.240 . S
Cd72 O73 2.240 . S
Cd72 O80 2.223 . S
Cd72 O82 2.297 . S
Cd72 O83 2.439 . S
O73 Cd72 2.240 . S
O73 C78 1.279 . S
O74 Cd71 2.297 . S
O74 C76 1.247 . S
O75 Cd71 2.439 . S
O75 C76 1.208 . S
C76 O74 1.247 . S
C76 O75 1.208 . S
C77 O82 1.247 . S
C77 O83 1.208 . S
C78 O70 1.315 . S
C78 O73 1.279 . S
C79 O80 1.315 . S
C79 O81 1.279 . S
O80 Cd72 2.223 . S
O80 C79 1.315 . S
O81 Cd71 2.240 . S
O81 C79 1.279 . S
O82 Cd72 2.297 . S
O82 C77 1.247 . S
O83 Cd72 2.439 . S
O83 C77 1.208 . S
O84 Cd85 2.223 . S
O84 C92 1.315 . S
Cd85 O84 2.223 . S
Cd85 O88 2.297 . S
Cd85 O89 2.439 . S
Cd85 O95 2.240 . S
Cd86 O87 2.240 . S
Cd86 O94 2.223 . S
Cd86 O96 2.297 . S
Cd86 O97 2.439 . S
O87 Cd86 2.240 . S
O87 C92 1.279 . S
O88 Cd85 2.297 . S
O88 C90 1.247 . S
O89 Cd85 2.439 . S
O89 C90 1.208 . S
C90 O88 1.247 . S
C90 O89 1.208 . S
C91 O96 1.247 . S
C91 O97 1.208 . S
C92 O84 1.315 . S
C92 O87 1.279 . S
C93 O94 1.315 . S
C93 O95 1.279 . S
O94 Cd86 2.223 . S
O94 C93 1.315 . S
O95 Cd85 2.240 . S
O95 C93 1.279 . S
O96 Cd86 2.297 . S
O96 C91 1.247 . S
O97 Cd86 2.439 . S
O97 C91 1.208 . S
O98 Cd99 2.223 . S
O98 C106 1.315 . S
Cd99 O98 2.223 . S
Cd99 O102 2.297 1_455 S
Cd99 O103 2.439 1_455 S
Cd99 O109 2.240 . S
Cd100 O101 2.240 . S
Cd100 O108 2.223 . S
Cd100 O110 2.297 . S
Cd100 O111 2.439 1_455 S
O101 Cd100 2.240 . S
O101 C106 1.279 . S
O102 Cd99 2.297 1_655 S
O102 C104 1.247 . S
O103 Cd99 2.439 1_655 S
O103 C104 1.208 . S
C104 O102 1.247 . S
C104 O103 1.208 . S
C105 O110 1.247 1_655 S
C105 O111 1.208 . S
C106 O98 1.315 . S
C106 O101 1.279 . S
C107 O108 1.315 . S
C107 O109 1.279 . S
O108 Cd100 2.223 . S
O108 C107 1.315 . S
O109 Cd99 2.240 . S
O109 C107 1.279 . S
O110 Cd100 2.297 . S
O110 C105 1.247 1_455 S
O111 Cd100 2.439 1_655 S
O111 C105 1.208 . S
O112 Cd113 2.223 . S
O112 C120 1.315 . S
Cd113 O112 2.223 . S
Cd113 O116 2.297 . S
Cd113 O117 2.439 . S
Cd113 O123 2.240 1_545 S
Cd114 O115 2.240 1_565 S
Cd114 O122 2.223 . S
Cd114 O124 2.297 . S
Cd114 O125 2.439 . S
O115 Cd114 2.240 1_545 S
O115 C120 1.279 . S
O116 Cd113 2.297 . S
O116 C118 1.247 . S
O117 Cd113 2.439 . S
O117 C118 1.208 . S
C118 O116 1.247 . S
C118 O117 1.208 . S
C119 O124 1.247 . S
C119 O125 1.208 . S
C120 O112 1.315 . S
C120 O115 1.279 . S
C121 O122 1.315 . S
C121 O123 1.279 . S
O122 Cd114 2.223 . S
O122 C121 1.315 . S
O123 Cd113 2.240 1_565 S
O123 C121 1.279 . S
O124 Cd114 2.297 . S
O124 C119 1.247 . S
O125 Cd114 2.439 . S
O125 C119 1.208 . S
O126 Cd127 2.223 . S
O126 C134 1.315 . S
Cd127 O126 2.223 . S
Cd127 O130 2.297 . S
Cd127 O131 2.439 . S
Cd127 O137 2.240 . S
Cd128 O129 2.240 . S
Cd128 O136 2.223 . S
Cd128 O138 2.297 . S
Cd128 O139 2.439 . S
O129 Cd128 2.240 . S
O129 C134 1.279 . S
O130 Cd127 2.297 . S
O130 C132 1.247 . S
O131 Cd127 2.439 . S
O131 C132 1.208 . S
C132 O130 1.247 . S
C132 O131 1.208 . S
C133 O138 1.247 . S
C133 O139 1.208 . S
C134 O126 1.315 . S
C134 O129 1.279 . S
C135 O136 1.315 . S
C135 O137 1.279 . S
O136 Cd128 2.223 . S
O136 C135 1.315 . S
O137 Cd127 2.240 . S
O137 C135 1.279 . S
O138 Cd128 2.297 . S
O138 C133 1.247 . S
O139 Cd128 2.439 . S
O139 C133 1.208 . S
O140 Cd141 2.223 . S
O140 C148 1.315 . S
Cd141 O140 2.223 . S
Cd141 O144 2.297 . S
Cd141 O145 2.439 . S
Cd141 O151 2.240 1_545 S
Cd142 O143 2.240 1_565 S
Cd142 O150 2.223 . S
Cd142 O152 2.297 . S
Cd142 O153 2.439 . S
O143 Cd142 2.240 1_545 S
O143 C148 1.279 . S
O144 Cd141 2.297 . S
O144 C146 1.247 . S
O145 Cd141 2.439 . S
O145 C146 1.208 . S
C146 O144 1.247 . S
C146 O145 1.208 . S
C147 O152 1.247 . S
C147 O153 1.208 . S
C148 O140 1.315 . S
C148 O143 1.279 . S
C149 O150 1.315 . S
C149 O151 1.279 . S
O150 Cd142 2.223 . S
O150 C149 1.315 . S
O151 Cd141 2.240 1_565 S
O151 C149 1.279 . S
O152 Cd142 2.297 . S
O152 C147 1.247 . S
O153 Cd142 2.439 . S
O153 C147 1.208 . S
O154 Cd155 2.223 . S
O154 C162 1.315 . S
Cd155 O154 2.223 . S
Cd155 O158 2.297 1_554 S
Cd155 O159 2.439 1_554 S
Cd155 O165 2.240 . S
Cd156 O157 2.240 . S
Cd156 O164 2.223 . S
Cd156 O166 2.297 . S
Cd156 O167 2.439 1_554 S
O157 Cd156 2.240 . S
O157 C162 1.279 . S
O158 Cd155 2.297 1_556 S
O158 C160 1.247 . S
O159 Cd155 2.439 1_556 S
O159 C160 1.208 . S
C160 O158 1.247 . S
C160 O159 1.208 . S
C161 O166 1.247 1_556 S
C161 O167 1.208 . S
C162 O154 1.315 . S
C162 O157 1.279 . S
C163 O164 1.315 . S
C163 O165 1.279 . S
O164 Cd156 2.223 . S
O164 C163 1.315 . S
O165 Cd155 2.240 . S
O165 C163 1.279 . S
O166 Cd156 2.297 . S
O166 C161 1.247 1_554 S
O167 Cd156 2.439 1_556 S
O167 C161 1.208 . S
O168 Cd169 2.223 . S
O168 C176 1.315 . S
Cd169 O168 2.223 . S
Cd169 O172 2.297 . S
Cd169 O173 2.439 . S
Cd169 O179 2.240 1_554 S
Cd170 O171 2.240 1_556 S
Cd170 O178 2.223 . S
Cd170 O180 2.297 . S
Cd170 O181 2.439 . S
O171 Cd170 2.240 1_554 S
O171 C176 1.279 . S
O172 Cd169 2.297 . S
O172 C174 1.247 . S
O173 Cd169 2.439 . S
O173 C174 1.208 . S
C174 O172 1.247 . S
C174 O173 1.208 . S
C175 O180 1.247 . S
C175 O181 1.208 . S
C176 O168 1.315 . S
C176 O171 1.279 . S
C177 O178 1.315 . S
C177 O179 1.279 . S
O178 Cd170 2.223 . S
O178 C177 1.315 . S
O179 Cd169 2.240 1_556 S
O179 C177 1.279 . S
O180 Cd170 2.297 . S
O180 C175 1.247 . S
O181 Cd170 2.439 . S
O181 C175 1.208 . S
O182 Cd183 2.223 . S
O182 C190 1.315 . S
Cd183 O182 2.223 . S
Cd183 O186 2.297 . S
Cd183 O187 2.439 . S
Cd183 O193 2.240 1_554 S
Cd184 O185 2.240 1_556 S
Cd184 O192 2.223 . S
Cd184 O194 2.297 . S
Cd184 O195 2.439 . S
O185 Cd184 2.240 1_554 S
O185 C190 1.279 . S
O186 Cd183 2.297 . S
O186 C188 1.247 . S
O187 Cd183 2.439 . S
O187 C188 1.208 . S
C188 O186 1.247 . S
C188 O187 1.208 . S
C189 O194 1.247 . S
C189 O195 1.208 . S
C190 O182 1.315 . S
C190 O185 1.279 . S
C191 O192 1.315 . S
C191 O193 1.279 . S
O192 Cd184 2.223 . S
O192 C191 1.315 . S
O193 Cd183 2.240 1_556 S
O193 C191 1.279 . S
O194 Cd184 2.297 . S
O194 C189 1.247 . S
O195 Cd184 2.439 . S
O195 C189 1.208 . S
O196 Cd197 2.223 . S
O196 C204 1.315 . S
Cd197 O196 2.223 . S
Cd197 O200 2.297 . S
Cd197 O201 2.439 . S
Cd197 O207 2.240 . S
Cd198 O199 2.240 . S
Cd198 O206 2.223 . S
Cd198 O208 2.297 . S
Cd198 O209 2.439 . S
O199 Cd198 2.240 . S
O199 C204 1.279 . S
O200 Cd197 2.297 . S
O200 C202 1.247 . S
O201 Cd197 2.439 . S
O201 C202 1.208 . S
C202 O200 1.247 . S
C202 O201 1.208 . S
C203 O208 1.247 . S
C203 O209 1.208 . S
C204 O196 1.315 . S
C204 O199 1.279 . S
C205 O206 1.315 . S
C205 O207 1.279 . S
O206 Cd198 2.223 . S
O206 C205 1.315 . S
O207 Cd197 2.240 . S
O207 C205 1.279 . S
O208 Cd198 2.297 . S
O208 C203 1.247 . S
O209 Cd198 2.439 . S
O209 C203 1.208 . S
O210 Cd211 2.223 . S
O210 C218 1.315 . S
Cd211 O210 2.223 . S
Cd211 O214 2.297 . S
Cd211 O215 2.439 . S
Cd211 O221 2.240 . S
Cd212 O213 2.240 . S
Cd212 O220 2.223 . S
Cd212 O222 2.297 . S
Cd212 O223 2.439 . S
O213 Cd212 2.240 . S
O213 C218 1.279 . S
O214 Cd211 2.297 . S
O214 C216 1.247 . S
O215 Cd211 2.439 . S
O215 C216 1.208 . S
C216 O214 1.247 . S
C216 O215 1.208 . S
C217 O222 1.247 . S
C217 O223 1.208 . S
C218 O210 1.315 . S
C218 O213 1.279 . S
C219 O220 1.315 . S
C219 O221 1.279 . S
O220 Cd212 2.223 . S
O220 C219 1.315 . S
O221 Cd211 2.240 . S
O221 C219 1.279 . S
O222 Cd212 2.297 . S
O222 C217 1.247 . S
O223 Cd212 2.439 . S
O223 C217 1.208 . S
O224 Cd225 2.223 . S
O224 C232 1.315 . S
Cd225 O224 2.223 . S
Cd225 O228 2.297 1_545 S
Cd225 O229 2.439 1_545 S
Cd225 O235 2.240 . S
Cd226 O227 2.240 . S
Cd226 O234 2.223 . S
Cd226 O236 2.297 . S
Cd226 O237 2.439 1_545 S
O227 Cd226 2.240 . S
O227 C232 1.279 . S
O228 Cd225 2.297 1_565 S
O228 C230 1.247 . S
O229 Cd225 2.439 1_565 S
O229 C230 1.208 . S
C230 O228 1.247 . S
C230 O229 1.208 . S
C231 O236 1.247 1_565 S
C231 O237 1.208 . S
C232 O224 1.315 . S
C232 O227 1.279 . S
C233 O234 1.315 . S
C233 O235 1.279 . S
O234 Cd226 2.223 . S
O234 C233 1.315 . S
O235 Cd225 2.240 . S
O235 C233 1.279 . S
O236 Cd226 2.297 . S
O236 C231 1.247 1_545 S
O237 Cd226 2.439 1_565 S
O237 C231 1.208 . S
O238 Cd239 2.223 . S
O238 C246 1.315 . S
Cd239 O238 2.223 . S
Cd239 O242 2.297 . S
Cd239 O243 2.439 . S
Cd239 O249 2.240 . S
Cd240 O241 2.240 . S
Cd240 O248 2.223 . S
Cd240 O250 2.297 . S
Cd240 O251 2.439 . S
O241 Cd240 2.240 . S
O241 C246 1.279 . S
O242 Cd239 2.297 . S
O242 C244 1.247 . S
O243 Cd239 2.439 . S
O243 C244 1.208 . S
C244 O242 1.247 . S
C244 O243 1.208 . S
C245 O250 1.247 . S
C245 O251 1.208 . S
C246 O238 1.315 . S
C246 O241 1.279 . S
C247 O248 1.315 . S
C247 O249 1.279 . S
O248 Cd240 2.223 . S
O248 C247 1.315 . S
O249 Cd239 2.240 . S
O249 C247 1.279 . S
O250 Cd240 2.297 . S
O250 C245 1.247 . S
O251 Cd240 2.439 . S
O251 C245 1.208 . S
O252 Cd253 2.223 . S
O252 C260 1.315 . S
Cd253 O252 2.223 . S
Cd253 O256 2.297 . S
Cd253 O257 2.439 . S
Cd253 O263 2.240 . S
Cd254 O255 2.240 . S
Cd254 O262 2.223 . S
Cd254 O264 2.297 . S
Cd254 O265 2.439 . S
O255 Cd254 2.240 . S
O255 C260 1.279 . S
O256 Cd253 2.297 . S
O256 C258 1.247 . S
O257 Cd253 2.439 . S
O257 C258 1.208 . S
C258 O256 1.247 . S
C258 O257 1.208 . S
C259 O264 1.247 . S
C259 O265 1.208 . S
C260 O252 1.315 . S
C260 O255 1.279 . S
C261 O262 1.315 . S
C261 O263 1.279 . S
O262 Cd254 2.223 . S
O262 C261 1.315 . S
O263 Cd253 2.240 . S
O263 C261 1.279 . S
O264 Cd254 2.297 . S
O264 C259 1.247 . S
O265 Cd254 2.439 . S
O265 C259 1.208 . S
O266 Cd267 2.223 . S
O266 C274 1.315 . S
Cd267 O266 2.223 . S
Cd267 O270 2.297 . S
Cd267 O271 2.439 1_545 S
Cd267 O277 2.240 . S
Cd268 O269 2.240 . S
Cd268 O276 2.223 . S
Cd268 O278 2.297 1_545 S
Cd268 O279 2.439 1_545 S
O269 Cd268 2.240 . S
O269 C274 1.279 . S
O270 Cd267 2.297 . S
O270 C272 1.247 1_545 S
O271 Cd267 2.439 1_565 S
O271 C272 1.208 . S
C272 O270 1.247 1_565 S
C272 O271 1.208 . S
C273 O278 1.247 . S
C273 O279 1.208 . S
C274 O266 1.315 . S
C274 O269 1.279 . S
C275 O276 1.315 . S
C275 O277 1.279 . S
O276 Cd268 2.223 . S
O276 C275 1.315 . S
O277 Cd267 2.240 . S
O277 C275 1.279 . S
O278 Cd268 2.297 1_565 S
O278 C273 1.247 . S
O279 Cd268 2.439 1_565 S
O279 C273 1.208 . S
O280 Cd281 2.223 . S
O280 C288 1.315 . S
Cd281 O280 2.223 . S
Cd281 O284 2.297 . S
Cd281 O285 2.439 1_554 S
Cd281 O291 2.240 . S
Cd282 O283 2.240 . S
Cd282 O290 2.223 . S
Cd282 O292 2.297 1_554 S
Cd282 O293 2.439 1_554 S
O283 Cd282 2.240 . S
O283 C288 1.279 . S
O284 Cd281 2.297 . S
O284 C286 1.247 1_554 S
O285 Cd281 2.439 1_556 S
O285 C286 1.208 . S
C286 O284 1.247 1_556 S
C286 O285 1.208 . S
C287 O292 1.247 . S
C287 O293 1.208 . S
C288 O280 1.315 . S
C288 O283 1.279 . S
C289 O290 1.315 . S
C289 O291 1.279 . S
O290 Cd282 2.223 . S
O290 C289 1.315 . S
O291 Cd281 2.240 . S
O291 C289 1.279 . S
O292 Cd282 2.297 1_556 S
O292 C287 1.247 . S
O293 Cd282 2.439 1_556 S
O293 C287 1.208 . S
O294 Cd295 2.223 . S
O294 C302 1.315 . S
Cd295 O294 2.223 . S
Cd295 O298 2.297 . S
Cd295 O299 2.439 . S
Cd295 O305 2.240 . S
Cd296 O297 2.240 . S
Cd296 O304 2.223 . S
Cd296 O306 2.297 . S
Cd296 O307 2.439 . S
O297 Cd296 2.240 . S
O297 C302 1.279 . S
O298 Cd295 2.297 . S
O298 C300 1.247 . S
O299 Cd295 2.439 . S
O299 C300 1.208 . S
C300 O298 1.247 . S
C300 O299 1.208 . S
C301 O306 1.247 . S
C301 O307 1.208 . S
C302 O294 1.315 . S
C302 O297 1.279 . S
C303 O304 1.315 . S
C303 O305 1.279 . S
O304 Cd296 2.223 . S
O304 C303 1.315 . S
O305 Cd295 2.240 . S
O305 C303 1.279 . S
O306 Cd296 2.297 . S
O306 C301 1.247 . S
O307 Cd296 2.439 . S
O307 C301 1.208 . S
O308 Cd309 2.223 . S
O308 C316 1.315 . S
Cd309 O308 2.223 . S
Cd309 O312 2.297 . S
Cd309 O313 2.439 . S
Cd309 O319 2.240 . S
Cd310 O311 2.240 . S
Cd310 O318 2.223 . S
Cd310 O320 2.297 . S
Cd310 O321 2.439 . S
O311 Cd310 2.240 . S
O311 C316 1.279 . S
O312 Cd309 2.297 . S
O312 C314 1.247 . S
O313 Cd309 2.439 . S
O313 C314 1.208 . S
C314 O312 1.247 . S
C314 O313 1.208 . S
C315 O320 1.247 . S
C315 O321 1.208 . S
C316 O308 1.315 . S
C316 O311 1.279 . S
C317 O318 1.315 . S
C317 O319 1.279 . S
O318 Cd310 2.223 . S
O318 C317 1.315 . S
O319 Cd309 2.240 . S
O319 C317 1.279 . S
O320 Cd310 2.297 . S
O320 C315 1.247 . S
O321 Cd310 2.439 . S
O321 C315 1.208 . S
O322 Cd323 2.223 . S
O322 C330 1.315 . S
Cd323 O322 2.223 . S
Cd323 O326 2.297 . S
Cd323 O327 2.439 . S
Cd323 O333 2.240 . S
Cd324 O325 2.240 . S
Cd324 O332 2.223 . S
Cd324 O334 2.297 . S
Cd324 O335 2.439 . S
O325 Cd324 2.240 . S
O325 C330 1.279 . S
O326 Cd323 2.297 . S
O326 C328 1.247 . S
O327 Cd323 2.439 . S
O327 C328 1.208 . S
C328 O326 1.247 . S
C328 O327 1.208 . S
C329 O334 1.247 . S
C329 O335 1.208 . S
C330 O322 1.315 . S
C330 O325 1.279 . S
C331 O332 1.315 . S
C331 O333 1.279 . S
O332 Cd324 2.223 . S
O332 C331 1.315 . S
O333 Cd323 2.240 . S
O333 C331 1.279 . S
O334 Cd324 2.297 . S
O334 C329 1.247 . S
O335 Cd324 2.439 . S
O335 C329 1.208 . S
H336 C344 0.950 . S
H337 C349 0.950 . S
H338 C346 0.950 . S
H339 C348 0.950 . S
H340 C350 0.950 . S
H341 C352 0.950 . S
H342 C354 0.950 . S
H343 C355 0.950 . S
C344 H336 0.950 . S
C344 C345 1.386 . S
C344 C346 1.391 . S
C345 C344 1.386 . S
C345 C349 1.393 . S
C346 H338 0.950 . S
C346 C344 1.391 . S
C346 C347 1.400 . S
C347 C346 1.400 . S
C347 C348 1.398 . S
C347 C353 1.491 . S
C348 H339 0.950 . S
C348 C347 1.398 . S
C348 C349 1.391 . S
C349 H337 0.950 . S
C349 C345 1.393 . S
C349 C348 1.391 . S
C350 H340 0.950 . S
C350 C351 1.386 . S
C350 C352 1.391 . S
C351 C350 1.386 . S
C351 C355 1.393 . S
C352 H341 0.950 . S
C352 C350 1.391 . S
C352 C353 1.400 . S
C353 C347 1.491 . S
C353 C352 1.400 . S
C353 C354 1.398 . S
C354 H342 0.950 . S
C354 C353 1.398 . S
C354 C355 1.391 . S
C355 H343 0.950 . S
C355 C351 1.393 . S
C355 C354 1.391 . S
H356 C364 0.950 . S
H357 C369 0.950 . S
H358 C366 0.950 . S
H359 C368 0.950 . S
H360 C370 0.950 . S
H361 C372 0.950 . S
H362 C374 0.950 . S
H363 C375 0.950 . S
C364 H356 0.950 . S
C364 C365 1.386 . S
C364 C366 1.391 . S
C365 C364 1.386 . S
C365 C369 1.393 . S
C366 H358 0.950 . S
C366 C364 1.391 . S
C366 C367 1.400 . S
C367 C366 1.400 . S
C367 C368 1.398 . S
C367 C373 1.491 . S
C368 H359 0.950 . S
C368 C367 1.398 . S
C368 C369 1.391 . S
C369 H357 0.950 . S
C369 C365 1.393 . S
C369 C368 1.391 . S
C370 H360 0.950 . S
C370 C371 1.386 . S
C370 C372 1.391 . S
C371 C370 1.386 . S
C371 C375 1.393 . S
C372 H361 0.950 . S
C372 C370 1.391 . S
C372 C373 1.400 . S
C373 C367 1.491 . S
C373 C372 1.400 . S
C373 C374 1.398 . S
C374 H362 0.950 . S
C374 C373 1.398 . S
C374 C375 1.391 . S
C375 H363 0.950 . S
C375 C371 1.393 . S
C375 C374 1.391 . S
H376 C384 0.950 . S
H377 C389 0.950 . S
H378 C386 0.950 . S
H379 C388 0.950 . S
H380 C390 0.950 . S
H381 C392 0.950 . S
H382 C394 0.950 . S
H383 C395 0.950 . S
C384 H376 0.950 . S
C384 C385 1.386 . S
C384 C386 1.391 . S
C385 C384 1.386 . S
C385 C389 1.393 . S
C386 H378 0.950 . S
C386 C384 1.391 . S
C386 C387 1.400 . S
C387 C386 1.400 . S
C387 C388 1.398 . S
C387 C393 1.491 . S
C388 H379 0.950 . S
C388 C387 1.398 . S
C388 C389 1.391 . S
C389 H377 0.950 . S
C389 C385 1.393 . S
C389 C388 1.391 . S
C390 H380 0.950 . S
C390 C391 1.386 . S
C390 C392 1.391 . S
C391 C390 1.386 . S
C391 C395 1.393 . S
C392 H381 0.950 . S
C392 C390 1.391 . S
C392 C393 1.400 . S
C393 C387 1.491 . S
C393 C392 1.400 . S
C393 C394 1.398 . S
C394 H382 0.950 . S
C394 C393 1.398 . S
C394 C395 1.391 . S
C395 H383 0.950 . S
C395 C391 1.393 . S
C395 C394 1.391 . S
H396 C404 0.950 . S
H397 C409 0.950 . S
H398 C406 0.950 . S
H399 C408 0.950 . S
H400 C410 0.950 . S
H401 C412 0.950 . S
H402 C414 0.950 . S
H403 C415 0.950 . S
C404 H396 0.950 . S
C404 C405 1.386 . S
C404 C406 1.391 . S
C405 C404 1.386 . S
C405 C409 1.393 . S
C406 H398 0.950 . S
C406 C404 1.391 . S
C406 C407 1.400 . S
C407 C406 1.400 . S
C407 C408 1.398 . S
C407 C413 1.491 . S
C408 H399 0.950 . S
C408 C407 1.398 . S
C408 C409 1.391 . S
C409 H397 0.950 . S
C409 C405 1.393 . S
C409 C408 1.391 . S
C410 H400 0.950 . S
C410 C411 1.386 . S
C410 C412 1.391 . S
C411 C410 1.386 . S
C411 C415 1.393 . S
C412 H401 0.950 . S
C412 C410 1.391 . S
C412 C413 1.400 . S
C413 C407 1.491 . S
C413 C412 1.400 . S
C413 C414 1.398 . S
C414 H402 0.950 . S
C414 C413 1.398 . S
C414 C415 1.391 . S
C415 H403 0.950 . S
C415 C411 1.393 . S
C415 C414 1.391 . S
H416 C424 0.950 . S
H417 C429 0.950 . S
H418 C426 0.950 . S
H419 C428 0.950 . S
H420 C430 0.950 . S
H421 C432 0.950 . S
H422 C434 0.950 . S
H423 C435 0.950 . S
C424 H416 0.950 . S
C424 C425 1.386 . S
C424 C426 1.391 . S
C425 C424 1.386 . S
C425 C429 1.393 . S
C426 H418 0.950 . S
C426 C424 1.391 . S
C426 C427 1.400 . S
C427 C426 1.400 . S
C427 C428 1.398 . S
C427 C433 1.491 . S
C428 H419 0.950 . S
C428 C427 1.398 . S
C428 C429 1.391 . S
C429 H417 0.950 . S
C429 C425 1.393 . S
C429 C428 1.391 . S
C430 H420 0.950 . S
C430 C431 1.386 . S
C430 C432 1.391 . S
C431 C430 1.386 . S
C431 C435 1.393 . S
C432 H421 0.950 . S
C432 C430 1.391 . S
C432 C433 1.400 . S
C433 C427 1.491 . S
C433 C432 1.400 . S
C433 C434 1.398 . S
C434 H422 0.950 . S
C434 C433 1.398 . S
C434 C435 1.391 . S
C435 H423 0.950 . S
C435 C431 1.393 . S
C435 C434 1.391 . S
H436 C444 0.950 . S
H437 C449 0.950 . S
H438 C446 0.950 . S
H439 C448 0.950 . S
H440 C450 0.950 . S
H441 C452 0.950 . S
H442 C454 0.950 . S
H443 C455 0.950 . S
C444 H436 0.950 . S
C444 C445 1.386 . S
C444 C446 1.391 . S
C445 C444 1.386 . S
C445 C449 1.393 . S
C446 H438 0.950 . S
C446 C444 1.391 . S
C446 C447 1.400 . S
C447 C446 1.400 . S
C447 C448 1.398 . S
C447 C453 1.491 . S
C448 H439 0.950 . S
C448 C447 1.398 . S
C448 C449 1.391 . S
C449 H437 0.950 . S
C449 C445 1.393 . S
C449 C448 1.391 . S
C450 H440 0.950 . S
C450 C451 1.386 . S
C450 C452 1.391 . S
C451 C450 1.386 . S
C451 C455 1.393 . S
C452 H441 0.950 . S
C452 C450 1.391 . S
C452 C453 1.400 . S
C453 C447 1.491 . S
C453 C452 1.400 . S
C453 C454 1.398 . S
C454 H442 0.950 . S
C454 C453 1.398 . S
C454 C455 1.391 . S
C455 H443 0.950 . S
C455 C451 1.393 . S
C455 C454 1.391 . S
H456 C464 0.950 . S
H457 C469 0.950 . S
H458 C466 0.950 . S
H459 C468 0.950 . S
H460 C470 0.950 . S
H461 C472 0.950 . S
H462 C474 0.950 . S
H463 C475 0.950 . S
C464 H456 0.950 . S
C464 C465 1.386 . S
C464 C466 1.391 . S
C465 C464 1.386 . S
C465 C469 1.393 . S
C466 H458 0.950 . S
C466 C464 1.391 . S
C466 C467 1.400 . S
C467 C466 1.400 . S
C467 C468 1.398 . S
C467 C473 1.491 . S
C468 H459 0.950 . S
C468 C467 1.398 . S
C468 C469 1.391 . S
C469 H457 0.950 . S
C469 C465 1.393 . S
C469 C468 1.391 . S
C470 H460 0.950 . S
C470 C471 1.386 . S
C470 C472 1.391 . S
C471 C470 1.386 . S
C471 C475 1.393 . S
C472 H461 0.950 . S
C472 C470 1.391 . S
C472 C473 1.400 . S
C473 C467 1.491 . S
C473 C472 1.400 . S
C473 C474 1.398 . S
C474 H462 0.950 . S
C474 C473 1.398 . S
C474 C475 1.391 . S
C475 H463 0.950 . S
C475 C471 1.393 . S
C475 C474 1.391 . S
H476 C484 0.950 . S
H477 C489 0.950 . S
H478 C486 0.950 . S
H479 C488 0.950 . S
H480 C490 0.955 1_554 S
H481 C492 0.950 . S
H482 C494 0.950 . S
H483 C495 0.950 . S
C484 H476 0.950 . S
C484 C485 1.386 . S
C484 C486 1.391 . S
C485 C484 1.386 . S
C485 C489 1.393 . S
C486 H478 0.950 . S
C486 C484 1.391 . S
C486 C487 1.400 . S
C487 C486 1.400 . S
C487 C488 1.398 . S
C487 C493 1.491 . S
C488 H479 0.950 . S
C488 C487 1.398 . S
C488 C489 1.391 . S
C489 H477 0.950 . S
C489 C485 1.393 . S
C489 C488 1.391 . S
C490 H480 0.955 1_556 S
C490 C491 1.386 . S
C490 C492 1.391 . S
C491 C490 1.386 . S
C491 C495 1.393 . S
C492 H481 0.950 . S
C492 C490 1.391 . S
C492 C493 1.400 . S
C493 C487 1.491 . S
C493 C492 1.400 . S
C493 C494 1.398 . S
C494 H482 0.950 . S
C494 C493 1.398 . S
C494 C495 1.391 . S
C495 H483 0.950 . S
C495 C491 1.393 . S
C495 C494 1.391 . S
H496 C504 0.950 . S
H497 C509 0.950 . S
H498 C506 0.950 . S
H499 C508 0.950 . S
H500 C510 0.950 . S
H501 C512 0.950 . S
H502 C514 0.950 . S
H503 C515 0.950 . S
C504 H496 0.950 . S
C504 C505 1.386 . S
C504 C506 1.391 . S
C505 C504 1.386 . S
C505 C509 1.393 . S
C506 H498 0.950 . S
C506 C504 1.391 . S
C506 C507 1.400 . S
C507 C506 1.400 . S
C507 C508 1.398 . S
C507 C513 1.491 . S
C508 H499 0.950 . S
C508 C507 1.398 . S
C508 C509 1.391 . S
C509 H497 0.950 . S
C509 C505 1.393 . S
C509 C508 1.391 . S
C510 H500 0.950 . S
C510 C511 1.386 . S
C510 C512 1.391 . S
C511 C510 1.386 . S
C511 C515 1.393 . S
C512 H501 0.950 . S
C512 C510 1.391 . S
C512 C513 1.400 . S
C513 C507 1.491 . S
C513 C512 1.400 . S
C513 C514 1.398 . S
C514 H502 0.950 . S
C514 C513 1.398 . S
C514 C515 1.391 . S
C515 H503 0.950 . S
C515 C511 1.393 . S
C515 C514 1.391 . S
H516 C524 0.950 . S
H517 C529 0.950 . S
H518 C526 0.950 . S
H519 C528 0.950 . S
H520 C530 0.950 . S
H521 C532 0.950 . S
H522 C534 0.950 . S
H523 C535 0.950 . S
C524 H516 0.950 . S
C524 C525 1.386 . S
C524 C526 1.391 . S
C525 C524 1.386 . S
C525 C529 1.393 . S
C526 H518 0.950 . S
C526 C524 1.391 . S
C526 C527 1.400 . S
C527 C526 1.400 . S
C527 C528 1.398 . S
C527 C533 1.491 . S
C528 H519 0.950 . S
C528 C527 1.398 . S
C528 C529 1.391 . S
C529 H517 0.950 . S
C529 C525 1.393 . S
C529 C528 1.391 . S
C530 H520 0.950 . S
C530 C531 1.386 . S
C530 C532 1.391 . S
C531 C530 1.386 . S
C531 C535 1.393 . S
C532 H521 0.950 . S
C532 C530 1.391 . S
C532 C533 1.400 . S
C533 C527 1.491 . S
C533 C532 1.400 . S
C533 C534 1.398 . S
C534 H522 0.950 . S
C534 C533 1.398 . S
C534 C535 1.391 . S
C535 H523 0.950 . S
C535 C531 1.393 . S
C535 C534 1.391 . S
H536 C544 0.950 . S
H537 C549 0.950 . S
H538 C546 0.950 . S
H539 C548 0.950 . S
H540 C550 0.950 . S
H541 C552 0.950 . S
H542 C554 0.950 . S
H543 C555 0.950 . S
C544 H536 0.950 . S
C544 C545 1.386 . S
C544 C546 1.391 . S
C545 C544 1.386 . S
C545 C549 1.393 . S
C546 H538 0.950 . S
C546 C544 1.391 . S
C546 C547 1.400 . S
C547 C546 1.400 . S
C547 C548 1.398 . S
C547 C553 1.491 . S
C548 H539 0.950 . S
C548 C547 1.398 . S
C548 C549 1.391 . S
C549 H537 0.950 . S
C549 C545 1.393 . S
C549 C548 1.391 . S
C550 H540 0.950 . S
C550 C551 1.386 . S
C550 C552 1.391 . S
C551 C550 1.386 . S
C551 C555 1.393 . S
C552 H541 0.950 . S
C552 C550 1.391 . S
C552 C553 1.400 . S
C553 C547 1.491 . S
C553 C552 1.400 . S
C553 C554 1.398 . S
C554 H542 0.950 . S
C554 C553 1.398 . S
C554 C555 1.391 . S
C555 H543 0.950 . S
C555 C551 1.393 . S
C555 C554 1.391 . S
H556 C564 0.950 . S
H557 C569 0.950 . S
H558 C566 0.950 . S
H559 C568 0.950 . S
H560 C570 0.950 . S
H561 C572 0.950 . S
H562 C574 0.950 . S
H563 C575 0.950 . S
C564 H556 0.950 . S
C564 C565 1.386 . S
C564 C566 1.391 . S
C565 C564 1.386 . S
C565 C569 1.393 . S
C566 H558 0.950 . S
C566 C564 1.391 . S
C566 C567 1.400 . S
C567 C566 1.400 . S
C567 C568 1.398 . S
C567 C573 1.491 . S
C568 H559 0.950 . S
C568 C567 1.398 . S
C568 C569 1.391 . S
C569 H557 0.950 . S
C569 C565 1.393 . S
C569 C568 1.391 . S
C570 H560 0.950 . S
C570 C571 1.386 . S
C570 C572 1.391 . S
C571 C570 1.386 . S
C571 C575 1.393 . S
C572 H561 0.950 . S
C572 C570 1.391 . S
C572 C573 1.400 . S
C573 C567 1.491 . S
C573 C572 1.400 . S
C573 C574 1.398 . S
C574 H562 0.950 . S
C574 C573 1.398 . S
C574 C575 1.391 . S
C575 H563 0.950 . S
C575 C571 1.393 . S
C575 C574 1.391 . S
H576 C584 0.950 . S
H577 C589 0.950 . S
H578 C586 0.950 . S
H579 C588 0.950 . S
H580 C590 0.950 . S
H581 C592 0.950 . S
H582 C594 0.950 . S
H583 C595 0.950 . S
C584 H576 0.950 . S
C584 C585 1.386 . S
C584 C586 1.391 . S
C585 C584 1.386 . S
C585 C589 1.393 . S
C586 H578 0.950 . S
C586 C584 1.391 . S
C586 C587 1.400 . S
C587 C586 1.400 . S
C587 C588 1.398 . S
C587 C593 1.491 . S
C588 H579 0.950 . S
C588 C587 1.398 . S
C588 C589 1.391 . S
C589 H577 0.950 . S
C589 C585 1.393 . S
C589 C588 1.391 . S
C590 H580 0.950 . S
C590 C591 1.386 . S
C590 C592 1.391 . S
C591 C590 1.386 . S
C591 C595 1.393 . S
C592 H581 0.950 . S
C592 C590 1.391 . S
C592 C593 1.400 . S
C593 C587 1.491 . S
C593 C592 1.400 . S
C593 C594 1.398 . S
C594 H582 0.950 . S
C594 C593 1.398 . S
C594 C595 1.391 . S
C595 H583 0.950 . S
C595 C591 1.393 . S
C595 C594 1.391 . S
H596 C604 0.950 . S
H597 C609 0.950 . S
H598 C606 0.950 . S
H599 C608 0.950 . S
H600 C610 0.950 . S
H601 C612 0.950 . S
H602 C614 0.950 . S
H603 C615 0.950 . S
C604 H596 0.950 . S
C604 C605 1.386 . S
C604 C606 1.391 . S
C605 C604 1.386 . S
C605 C609 1.393 . S
C606 H598 0.950 . S
C606 C604 1.391 . S
C606 C607 1.400 . S
C607 C606 1.400 . S
C607 C608 1.398 . S
C607 C613 1.491 . S
C608 H599 0.950 . S
C608 C607 1.398 . S
C608 C609 1.391 . S
C609 H597 0.950 . S
C609 C605 1.393 . S
C609 C608 1.391 . S
C610 H600 0.950 . S
C610 C611 1.386 . S
C610 C612 1.391 . S
C611 C610 1.386 . S
C611 C615 1.393 . S
C612 H601 0.950 . S
C612 C610 1.391 . S
C612 C613 1.400 . S
C613 C607 1.491 . S
C613 C612 1.400 . S
C613 C614 1.398 . S
C614 H602 0.950 . S
C614 C613 1.398 . S
C614 C615 1.391 . S
C615 H603 0.950 . S
C615 C611 1.393 . S
C615 C614 1.391 . S
H616 C624 0.950 . S
H617 C629 0.950 . S
H618 C626 0.950 . S
H619 C628 0.950 . S
H620 C630 0.950 . S
H621 C632 0.950 . S
H622 C634 0.950 . S
H623 C635 0.950 . S
C624 H616 0.950 . S
C624 C625 1.386 . S
C624 C626 1.391 . S
C625 C624 1.386 . S
C625 C629 1.393 . S
C626 H618 0.950 . S
C626 C624 1.391 . S
C626 C627 1.400 . S
C627 C626 1.400 . S
C627 C628 1.398 . S
C627 C633 1.491 . S
C628 H619 0.950 . S
C628 C627 1.398 . S
C628 C629 1.391 . S
C629 H617 0.950 . S
C629 C625 1.393 . S
C629 C628 1.391 . S
C630 H620 0.950 . S
C630 C631 1.386 . S
C630 C632 1.391 . S
C631 C630 1.386 . S
C631 C635 1.393 . S
C632 H621 0.950 . S
C632 C630 1.391 . S
C632 C633 1.400 . S
C633 C627 1.491 . S
C633 C632 1.400 . S
C633 C634 1.398 . S
C634 H622 0.950 . S
C634 C633 1.398 . S
C634 C635 1.391 . S
C635 H623 0.950 . S
C635 C631 1.393 . S
C635 C634 1.391 . S
H636 C644 0.950 . S
H637 C649 0.950 . S
H638 C646 0.950 . S
H639 C648 0.950 . S
H640 C650 0.950 . S
H641 C652 0.950 . S
H642 C654 0.950 . S
H643 C655 0.950 . S
C644 H636 0.950 . S
C644 C645 1.386 . S
C644 C646 1.391 . S
C645 C644 1.386 . S
C645 C649 1.393 . S
C646 H638 0.950 . S
C646 C644 1.391 . S
C646 C647 1.400 . S
C647 C646 1.400 . S
C647 C648 1.398 . S
C647 C653 1.491 . S
C648 H639 0.950 . S
C648 C647 1.398 . S
C648 C649 1.391 . S
C649 H637 0.950 . S
C649 C645 1.393 . S
C649 C648 1.391 . S
C650 H640 0.950 . S
C650 C651 1.386 . S
C650 C652 1.391 . S
C651 C650 1.386 . S
C651 C655 1.393 . S
C652 H641 0.950 . S
C652 C650 1.391 . S
C652 C653 1.400 . S
C653 C647 1.491 . S
C653 C652 1.400 . S
C653 C654 1.398 . S
C654 H642 0.950 . S
C654 C653 1.398 . S
C654 C655 1.391 . S
C655 H643 0.950 . S
C655 C651 1.393 . S
C655 C654 1.391 . S
H656 C664 0.950 . S
H657 C669 0.950 . S
H658 C666 0.950 . S
H659 C668 0.950 . S
H660 C670 0.950 . S
H661 C672 0.950 . S
H662 C674 0.950 . S
H663 C675 0.950 . S
C664 H656 0.950 . S
C664 C665 1.386 . S
C664 C666 1.391 . S
C665 C664 1.386 . S
C665 C669 1.393 . S
C666 H658 0.950 . S
C666 C664 1.391 . S
C666 C667 1.400 . S
C667 C666 1.400 . S
C667 C668 1.398 . S
C667 C673 1.491 . S
C668 H659 0.950 . S
C668 C667 1.398 . S
C668 C669 1.391 . S
C669 H657 0.950 . S
C669 C665 1.393 . S
C669 C668 1.391 . S
C670 H660 0.950 . S
C670 C671 1.386 . S
C670 C672 1.391 . S
C671 C670 1.386 . S
C671 C675 1.393 . S
C672 H661 0.950 . S
C672 C670 1.391 . S
C672 C673 1.400 . S
C673 C667 1.491 . S
C673 C672 1.400 . S
C673 C674 1.398 . S
C674 H662 0.950 . S
C674 C673 1.398 . S
C674 C675 1.391 . S
C675 H663 0.950 . S
C675 C671 1.393 . S
C675 C674 1.391 . S
H676 C684 0.950 . S
H677 C689 0.950 . S
H678 C686 0.950 . S
H679 C688 0.950 . S
H680 C690 0.950 . S
H681 C692 0.950 . S
H682 C694 0.950 . S
H683 C695 0.950 . S
C684 H676 0.950 . S
C684 C685 1.386 . S
C684 C686 1.391 . S
C685 C684 1.386 . S
C685 C689 1.393 . S
C686 H678 0.950 . S
C686 C684 1.391 . S
C686 C687 1.400 . S
C687 C686 1.400 . S
C687 C688 1.398 . S
C687 C693 1.491 . S
C688 H679 0.950 . S
C688 C687 1.398 . S
C688 C689 1.391 . S
C689 H677 0.950 . S
C689 C685 1.393 . S
C689 C688 1.391 . S
C690 H680 0.950 . S
C690 C691 1.386 . S
C690 C692 1.391 . S
C691 C690 1.386 . S
C691 C695 1.393 . S
C692 H681 0.950 . S
C692 C690 1.391 . S
C692 C693 1.400 . S
C693 C687 1.491 . S
C693 C692 1.400 . S
C693 C694 1.398 . S
C694 H682 0.950 . S
C694 C693 1.398 . S
C694 C695 1.391 . S
C695 H683 0.950 . S
C695 C691 1.393 . S
C695 C694 1.391 . S
H696 C704 0.950 . S
H697 C709 0.948 . S
H698 C706 0.950 . S
H699 C708 0.950 . S
H700 C710 0.950 . S
H701 C712 0.950 . S
H702 C714 0.950 . S
H703 C715 0.950 . S
C704 H696 0.950 . S
C704 C705 1.386 . S
C704 C706 1.391 . S
C705 C704 1.386 . S
C705 C709 1.393 . S
C706 H698 0.950 . S
C706 C704 1.391 . S
C706 C707 1.400 . S
C707 C706 1.400 . S
C707 C708 1.398 . S
C707 C713 1.491 . S
C708 H699 0.950 . S
C708 C707 1.398 . S
C708 C709 1.391 . S
C709 H697 0.948 . S
C709 C705 1.393 . S
C709 C708 1.391 . S
C710 H700 0.950 . S
C710 C711 1.386 . S
C710 C712 1.391 . S
C711 C710 1.386 . S
C711 C715 1.393 . S
C712 H701 0.950 . S
C712 C710 1.391 . S
C712 C713 1.400 . S
C713 C707 1.491 . S
C713 C712 1.400 . S
C713 C714 1.398 . S
C714 H702 0.950 . S
C714 C713 1.398 . S
C714 C715 1.391 . S
C715 H703 0.950 . S
C715 C711 1.393 . S
C715 C714 1.391 . S
H716 C724 0.950 . S
H717 C729 0.950 . S
H718 C726 0.950 . S
H719 C728 0.950 . S
H720 C730 0.950 1_455 S
H721 C732 0.950 . S
H722 C734 0.950 . S
H723 C735 0.950 . S
C724 H716 0.950 . S
C724 C725 1.386 . S
C724 C726 1.391 . S
C725 C724 1.386 . S
C725 C729 1.393 . S
C726 H718 0.950 . S
C726 C724 1.391 . S
C726 C727 1.400 . S
C727 C726 1.400 . S
C727 C728 1.398 . S
C727 C733 1.491 . S
C728 H719 0.950 . S
C728 C727 1.398 . S
C728 C729 1.391 . S
C729 H717 0.950 . S
C729 C725 1.393 . S
C729 C728 1.391 . S
C730 H720 0.950 1_655 S
C730 C731 1.386 . S
C730 C732 1.391 . S
C731 C730 1.386 . S
C731 C735 1.393 . S
C732 H721 0.950 . S
C732 C730 1.391 . S
C732 C733 1.400 . S
C733 C727 1.491 . S
C733 C732 1.400 . S
C733 C734 1.398 . S
C734 H722 0.950 . S
C734 C733 1.398 . S
C734 C735 1.391 . S
C735 H723 0.950 . S
C735 C731 1.393 . S
C735 C734 1.391 . S
H736 C744 0.950 . S
H737 C749 0.950 . S
H738 C746 0.950 . S
H739 C748 0.950 . S
H740 C750 0.950 . S
H741 C752 0.950 . S
H742 C754 0.950 . S
H743 C755 0.950 . S
C744 H736 0.950 . S
C744 C745 1.386 . S
C744 C746 1.391 . S
C745 C744 1.386 . S
C745 C749 1.393 . S
C746 H738 0.950 . S
C746 C744 1.391 . S
C746 C747 1.400 . S
C747 C746 1.400 . S
C747 C748 1.398 . S
C747 C753 1.491 . S
C748 H739 0.950 . S
C748 C747 1.398 . S
C748 C749 1.391 . S
C749 H737 0.950 . S
C749 C745 1.393 . S
C749 C748 1.391 . S
C750 H740 0.950 . S
C750 C751 1.386 . S
C750 C752 1.391 . S
C751 C750 1.386 . S
C751 C755 1.393 . S
C752 H741 0.950 . S
C752 C750 1.391 . S
C752 C753 1.400 . S
C753 C747 1.491 . S
C753 C752 1.400 . S
C753 C754 1.398 . S
C754 H742 0.950 . S
C754 C753 1.398 . S
C754 C755 1.391 . S
C755 H743 0.950 . S
C755 C751 1.393 . S
C755 C754 1.391 . S
H756 C764 0.950 . S
H757 C769 0.950 . S
H758 C766 0.950 . S
H759 C768 0.950 . S
H760 C770 0.950 . S
H761 C772 0.950 . S
H762 C774 0.950 . S
H763 C775 0.950 . S
C764 H756 0.950 . S
C764 C765 1.386 . S
C764 C766 1.391 . S
C765 C764 1.386 . S
C765 C769 1.393 . S
C766 H758 0.950 . S
C766 C764 1.391 . S
C766 C767 1.400 . S
C767 C766 1.400 . S
C767 C768 1.398 . S
C767 C773 1.491 . S
C768 H759 0.950 . S
C768 C767 1.398 . S
C768 C769 1.391 . S
C769 H757 0.950 . S
C769 C765 1.393 . S
C769 C768 1.391 . S
C770 H760 0.950 . S
C770 C771 1.386 . S
C770 C772 1.391 . S
C771 C770 1.386 . S
C771 C775 1.393 . S
C772 H761 0.950 . S
C772 C770 1.391 . S
C772 C773 1.400 . S
C773 C767 1.491 . S
C773 C772 1.400 . S
C773 C774 1.398 . S
C774 H762 0.950 . S
C774 C773 1.398 . S
C774 C775 1.391 . S
C775 H763 0.950 . S
C775 C771 1.393 . S
C775 C774 1.391 . S
H776 C784 0.950 . S
H777 C789 0.950 . S
H778 C786 0.950 . S
H779 C788 0.950 . S
H780 C790 0.950 . S
H781 C792 0.950 . S
H782 C794 0.950 . S
H783 C795 0.950 . S
C784 H776 0.950 . S
C784 C785 1.386 . S
C784 C786 1.391 . S
C785 C784 1.386 . S
C785 C789 1.393 . S
C786 H778 0.950 . S
C786 C784 1.391 . S
C786 C787 1.400 . S
C787 C786 1.400 . S
C787 C788 1.398 . S
C787 C793 1.491 . S
C788 H779 0.950 . S
C788 C787 1.398 . S
C788 C789 1.391 . S
C789 H777 0.950 . S
C789 C785 1.393 . S
C789 C788 1.391 . S
C790 H780 0.950 . S
C790 C791 1.386 . S
C790 C792 1.391 . S
C791 C790 1.386 . S
C791 C795 1.393 . S
C792 H781 0.950 . S
C792 C790 1.391 . S
C792 C793 1.400 . S
C793 C787 1.491 . S
C793 C792 1.400 . S
C793 C794 1.398 . S
C794 H782 0.950 . S
C794 C793 1.398 . S
C794 C795 1.391 . S
C795 H783 0.950 . S
C795 C791 1.393 . S
C795 C794 1.391 . S
H796 C804 0.950 . S
H797 C809 0.950 . S
H798 C806 0.950 . S
H799 C808 0.950 . S
H800 C810 0.950 . S
H801 C812 0.950 . S
H802 C814 0.950 . S
H803 C815 0.950 . S
C804 H796 0.950 . S
C804 C805 1.386 . S
C804 C806 1.391 . S
C805 C804 1.386 . S
C805 C809 1.393 . S
C806 H798 0.950 . S
C806 C804 1.391 . S
C806 C807 1.400 . S
C807 C806 1.400 . S
C807 C808 1.398 . S
C807 C813 1.491 . S
C808 H799 0.950 . S
C808 C807 1.398 . S
C808 C809 1.391 . S
C809 H797 0.950 . S
C809 C805 1.393 . S
C809 C808 1.391 . S
C810 H800 0.950 . S
C810 C811 1.386 . S
C810 C812 1.391 . S
C811 C810 1.386 . S
C811 C815 1.393 . S
C812 H801 0.950 . S
C812 C810 1.391 . S
C812 C813 1.400 . S
C813 C807 1.491 . S
C813 C812 1.400 . S
C813 C814 1.398 . S
C814 H802 0.950 . S
C814 C813 1.398 . S
C814 C815 1.391 . S
C815 H803 0.950 . S
C815 C811 1.393 . S
C815 C814 1.391 . S
H816 C824 0.950 . S
H817 C829 0.950 1_545 S
H818 C826 0.950 . S
H819 C828 0.950 . S
H820 C830 0.950 . S
H821 C832 0.950 . S
H822 C834 0.950 . S
H823 C835 0.950 . S
C824 H816 0.950 . S
C824 C825 1.386 . S
C824 C826 1.391 . S
C825 C824 1.386 . S
C825 C829 1.393 . S
C826 H818 0.950 . S
C826 C824 1.391 . S
C826 C827 1.400 . S
C827 C826 1.400 . S
C827 C828 1.398 . S
C827 C833 1.491 . S
C828 H819 0.950 . S
C828 C827 1.398 . S
C828 C829 1.391 . S
C829 H817 0.950 1_565 S
C829 C825 1.393 . S
C829 C828 1.391 . S
C830 H820 0.950 . S
C830 C831 1.386 . S
C830 C832 1.391 . S
C831 C830 1.386 . S
C831 C835 1.393 . S
C832 H821 0.950 . S
C832 C830 1.391 . S
C832 C833 1.400 . S
C833 C827 1.491 . S
C833 C832 1.400 . S
C833 C834 1.398 . S
C834 H822 0.950 . S
C834 C833 1.398 . S
C834 C835 1.391 . S
C835 H823 0.950 . S
C835 C831 1.393 . S
C835 C834 1.391 . S
H836 C844 0.950 . S
H837 C849 0.950 . S
H838 C846 0.950 . S
H839 C848 0.950 . S
H840 C850 0.950 . S
H841 C852 0.950 . S
H842 C854 0.950 . S
H843 C855 0.950 . S
C844 H836 0.950 . S
C844 C845 1.386 . S
C844 C846 1.391 . S
C845 C844 1.386 . S
C845 C849 1.393 . S
C846 H838 0.950 . S
C846 C844 1.391 . S
C846 C847 1.400 . S
C847 C846 1.400 . S
C847 C848 1.398 . S
C847 C853 1.491 . S
C848 H839 0.950 . S
C848 C847 1.398 . S
C848 C849 1.391 . S
C849 H837 0.950 . S
C849 C845 1.393 . S
C849 C848 1.391 . S
C850 H840 0.950 . S
C850 C851 1.386 . S
C850 C852 1.391 . S
C851 C850 1.386 . S
C851 C855 1.393 . S
C852 H841 0.950 . S
C852 C850 1.391 . S
C852 C853 1.400 . S
C853 C847 1.491 . S
C853 C852 1.400 . S
C853 C854 1.398 . S
C854 H842 0.950 . S
C854 C853 1.398 . S
C854 C855 1.391 . S
C855 H843 0.950 . S
C855 C851 1.393 . S
C855 C854 1.391 . S
H856 C864 0.950 . S
H857 C869 0.950 . S
H858 C866 0.950 . S
H859 C868 0.950 . S
H860 C870 0.950 . S
H861 C872 0.950 . S
H862 C874 0.950 . S
H863 C875 0.950 . S
C864 H856 0.950 . S
C864 C865 1.386 . S
C864 C866 1.391 . S
C865 C864 1.386 . S
C865 C869 1.393 . S
C866 H858 0.950 . S
C866 C864 1.391 . S
C866 C867 1.400 . S
C867 C866 1.400 . S
C867 C868 1.398 . S
C867 C873 1.491 . S
C868 H859 0.950 . S
C868 C867 1.398 . S
C868 C869 1.391 . S
C869 H857 0.950 . S
C869 C865 1.393 . S
C869 C868 1.391 . S
C870 H860 0.950 . S
C870 C871 1.386 . S
C870 C872 1.391 . S
C871 C870 1.386 . S
C871 C875 1.393 . S
C872 H861 0.950 . S
C872 C870 1.391 . S
C872 C873 1.400 . S
C873 C867 1.491 . S
C873 C872 1.400 . S
C873 C874 1.398 . S
C874 H862 0.950 . S
C874 C873 1.398 . S
C874 C875 1.391 . S
C875 H863 0.950 . S
C875 C871 1.393 . S
C875 C874 1.391 . S
H876 C884 0.950 . S
H877 C889 0.950 . S
H878 C886 0.950 . S
H879 C888 0.950 . S
H880 C890 0.950 1_554 S
H881 C892 0.950 . S
H882 C894 0.950 . S
H883 C895 0.950 . S
C884 H876 0.950 . S
C884 C885 1.386 . S
C884 C886 1.391 . S
C885 C884 1.386 . S
C885 C889 1.393 . S
C886 H878 0.950 . S
C886 C884 1.391 . S
C886 C887 1.400 . S
C887 C886 1.400 . S
C887 C888 1.398 . S
C887 C893 1.491 . S
C888 H879 0.950 . S
C888 C887 1.398 . S
C888 C889 1.391 . S
C889 H877 0.950 . S
C889 C885 1.393 . S
C889 C888 1.391 . S
C890 H880 0.950 1_556 S
C890 C891 1.386 . S
C890 C892 1.391 . S
C891 C890 1.386 . S
C891 C895 1.393 . S
C892 H881 0.950 . S
C892 C890 1.391 . S
C892 C893 1.400 . S
C893 C887 1.491 . S
C893 C892 1.400 . S
C893 C894 1.398 . S
C894 H882 0.950 . S
C894 C893 1.398 . S
C894 C895 1.391 . S
C895 H883 0.950 . S
C895 C891 1.393 . S
C895 C894 1.391 . S
H896 C904 0.950 . S
H897 C909 0.950 . S
H898 C906 0.950 . S
H899 C908 0.950 . S
H900 C910 0.950 . S
H901 C912 0.950 . S
H902 C914 0.950 . S
H903 C915 0.950 . S
C904 H896 0.950 . S
C904 C905 1.386 . S
C904 C906 1.391 . S
C905 C904 1.386 . S
C905 C909 1.393 . S
C906 H898 0.950 . S
C906 C904 1.391 . S
C906 C907 1.400 . S
C907 C906 1.400 . S
C907 C908 1.398 . S
C907 C913 1.491 . S
C908 H899 0.950 . S
C908 C907 1.398 . S
C908 C909 1.391 . S
C909 H897 0.950 . S
C909 C905 1.393 . S
C909 C908 1.391 . S
C910 H900 0.950 . S
C910 C911 1.386 . S
C910 C912 1.391 . S
C911 C910 1.386 . S
C911 C915 1.393 . S
C912 H901 0.950 . S
C912 C910 1.391 . S
C912 C913 1.400 . S
C913 C907 1.491 . S
C913 C912 1.400 . S
C913 C914 1.398 . S
C914 H902 0.950 . S
C914 C913 1.398 . S
C914 C915 1.391 . S
C915 H903 0.950 . S
C915 C911 1.393 . S
C915 C914 1.391 . S
H916 C924 0.950 . S
H917 C929 0.950 . S
H918 C926 0.950 . S
H919 C928 0.950 . S
H920 C930 0.950 . S
H921 C932 0.950 . S
H922 C934 0.950 . S
H923 C935 0.950 . S
C924 H916 0.950 . S
C924 C925 1.386 . S
C924 C926 1.391 . S
C925 C924 1.386 . S
C925 C929 1.393 . S
C926 H918 0.950 . S
C926 C924 1.391 . S
C926 C927 1.400 . S
C927 C926 1.400 . S
C927 C928 1.398 . S
C927 C933 1.491 . S
C928 H919 0.950 . S
C928 C927 1.398 . S
C928 C929 1.391 . S
C929 H917 0.950 . S
C929 C925 1.393 . S
C929 C928 1.391 . S
C930 H920 0.950 . S
C930 C931 1.386 . S
C930 C932 1.391 . S
C931 C930 1.386 . S
C931 C935 1.393 . S
C932 H921 0.950 . S
C932 C930 1.391 . S
C932 C933 1.400 . S
C933 C927 1.491 . S
C933 C932 1.400 . S
C933 C934 1.398 . S
C934 H922 0.950 . S
C934 C933 1.398 . S
C934 C935 1.391 . S
C935 H923 0.950 . S
C935 C931 1.393 . S
C935 C934 1.391 . S
H936 C944 0.950 . S
H937 C949 0.950 . S
H938 C946 0.950 . S
H939 C948 0.950 . S
H940 C950 0.950 . S
H941 C952 0.950 . S
H942 C954 0.950 . S
H943 C955 0.950 . S
C944 H936 0.950 . S
C944 C945 1.386 . S
C944 C946 1.391 . S
C945 C944 1.386 . S
C945 C949 1.393 . S
C946 H938 0.950 . S
C946 C944 1.391 . S
C946 C947 1.400 . S
C947 C946 1.400 . S
C947 C948 1.398 . S
C947 C953 1.491 . S
C948 H939 0.950 . S
C948 C947 1.398 . S
C948 C949 1.391 . S
C949 H937 0.950 . S
C949 C945 1.393 . S
C949 C948 1.391 . S
C950 H940 0.950 . S
C950 C951 1.386 . S
C950 C952 1.391 . S
C951 C950 1.386 . S
C951 C955 1.393 . S
C952 H941 0.950 . S
C952 C950 1.391 . S
C952 C953 1.400 . S
C953 C947 1.491 . S
C953 C952 1.400 . S
C953 C954 1.398 . S
C954 H942 0.950 . S
C954 C953 1.398 . S
C954 C955 1.391 . S
C955 H943 0.950 . S
C955 C951 1.393 . S
C955 C954 1.391 . S
H956 C964 0.950 . S
H957 C969 0.950 . S
H958 C966 0.950 . S
H959 C968 0.950 . S
H960 C970 0.950 . S
H961 C972 0.950 . S
H962 C974 0.950 . S
H963 C975 0.950 . S
C964 H956 0.950 . S
C964 C965 1.386 . S
C964 C966 1.391 . S
C965 C964 1.386 . S
C965 C969 1.393 . S
C966 H958 0.950 . S
C966 C964 1.391 . S
C966 C967 1.400 . S
C967 C966 1.400 . S
C967 C968 1.398 . S
C967 C973 1.491 . S
C968 H959 0.950 . S
C968 C967 1.398 . S
C968 C969 1.391 . S
C969 H957 0.950 . S
C969 C965 1.393 . S
C969 C968 1.391 . S
C970 H960 0.950 . S
C970 C971 1.386 . S
C970 C972 1.391 . S
C971 C970 1.386 . S
C971 C975 1.393 . S
C972 H961 0.950 . S
C972 C970 1.391 . S
C972 C973 1.400 . S
C973 C967 1.491 . S
C973 C972 1.400 . S
C973 C974 1.398 . S
C974 H962 0.950 . S
C974 C973 1.398 . S
C974 C975 1.391 . S
C975 H963 0.950 . S
C975 C971 1.393 . S
C975 C974 1.391 . S
H976 C984 0.950 . S
H977 C989 0.950 . S
H978 C986 0.950 . S
H979 C988 0.950 . S
H980 C990 0.950 . S
H981 C992 0.950 . S
H982 C994 0.950 . S
H983 C995 0.950 . S
C984 H976 0.950 . S
C984 C985 1.386 . S
C984 C986 1.391 . S
C985 C984 1.386 . S
C985 C989 1.393 . S
C986 H978 0.950 . S
C986 C984 1.391 . S
C986 C987 1.400 . S
C987 C986 1.400 . S
C987 C988 1.398 . S
C987 C993 1.491 . S
C988 H979 0.950 . S
C988 C987 1.398 . S
C988 C989 1.391 . S
C989 H977 0.950 . S
C989 C985 1.393 . S
C989 C988 1.391 . S
C990 H980 0.950 . S
C990 C991 1.386 . S
C990 C992 1.391 . S
C991 C990 1.386 . S
C991 C995 1.393 . S
C992 H981 0.950 . S
C992 C990 1.391 . S
C992 C993 1.400 . S
C993 C987 1.491 . S
C993 C992 1.400 . S
C993 C994 1.398 . S
C994 H982 0.950 . S
C994 C993 1.398 . S
C994 C995 1.391 . S
C995 H983 0.950 . S
C995 C991 1.393 . S
C995 C994 1.391 . S
H996 C1004 0.950 . S
H997 C1009 0.950 . S
H998 C1006 0.950 . S
H999 C1008 0.950 . S
H1000 C1010 0.950 . S
H1001 C1012 0.950 . S
H1002 C1014 0.950 . S
H1003 C1015 0.950 . S
C1004 H996 0.950 . S
C1004 C1005 1.386 . S
C1004 C1006 1.391 . S
C1005 C1004 1.386 . S
C1005 C1009 1.393 . S
C1006 H998 0.950 . S
C1006 C1004 1.391 . S
C1006 C1007 1.400 . S
C1007 C1006 1.400 . S
C1007 C1008 1.398 . S
C1007 C1013 1.491 . S
C1008 H999 0.950 . S
C1008 C1007 1.398 . S
C1008 C1009 1.391 . S
C1009 H997 0.950 . S
C1009 C1005 1.393 . S
C1009 C1008 1.391 . S
C1010 H1000 0.950 . S
C1010 C1011 1.386 . S
C1010 C1012 1.391 . S
C1011 C1010 1.386 . S
C1011 C1015 1.393 . S
C1012 H1001 0.950 . S
C1012 C1010 1.391 . S
C1012 C1013 1.400 . S
C1013 C1007 1.491 . S
C1013 C1012 1.400 . S
C1013 C1014 1.398 . S
C1014 H1002 0.950 . S
C1014 C1013 1.398 . S
C1014 C1015 1.391 . S
C1015 H1003 0.950 . S
C1015 C1011 1.393 . S
C1015 C1014 1.391 . S
H1016 C1024 0.950 . S
H1017 C1029 0.950 . S
H1018 C1026 0.950 . S
H1019 C1028 0.950 . S
H1020 C1030 0.950 . S
H1021 C1032 0.950 . S
H1022 C1034 0.950 . S
H1023 C1035 0.950 . S
C1024 H1016 0.950 . S
C1024 C1025 1.386 . S
C1024 C1026 1.391 . S
C1025 C1024 1.386 . S
C1025 C1029 1.393 . S
C1026 H1018 0.950 . S
C1026 C1024 1.391 . S
C1026 C1027 1.400 . S
C1027 C1026 1.400 . S
C1027 C1028 1.398 . S
C1027 C1033 1.491 . S
C1028 H1019 0.950 . S
C1028 C1027 1.398 . S
C1028 C1029 1.391 . S
C1029 H1017 0.950 . S
C1029 C1025 1.393 . S
C1029 C1028 1.391 . S
C1030 H1020 0.950 . S
C1030 C1031 1.386 . S
C1030 C1032 1.391 . S
C1031 C1030 1.386 . S
C1031 C1035 1.393 . S
C1032 H1021 0.950 . S
C1032 C1030 1.391 . S
C1032 C1033 1.400 . S
C1033 C1027 1.491 . S
C1033 C1032 1.400 . S
C1033 C1034 1.398 . S
C1034 H1022 0.950 . S
C1034 C1033 1.398 . S
C1034 C1035 1.391 . S
C1035 H1023 0.950 . S
C1035 C1031 1.393 . S
C1035 C1034 1.391 . S
H1036 C1044 0.950 . S
H1037 C1049 0.950 . S
H1038 C1046 0.950 . S
H1039 C1048 0.950 . S
H1040 C1050 0.950 . S
H1041 C1052 0.950 . S
H1042 C1054 0.950 . S
H1043 C1055 0.950 . S
C1044 H1036 0.950 . S
C1044 C1045 1.386 . S
C1044 C1046 1.391 . S
C1045 C1044 1.386 . S
C1045 C1049 1.393 . S
C1046 H1038 0.950 . S
C1046 C1044 1.391 . S
C1046 C1047 1.400 . S
C1047 C1046 1.400 . S
C1047 C1048 1.398 . S
C1047 C1053 1.491 . S
C1048 H1039 0.950 . S
C1048 C1047 1.398 . S
C1048 C1049 1.391 . S
C1049 H1037 0.950 . S
C1049 C1045 1.393 . S
C1049 C1048 1.391 . S
C1050 H1040 0.950 . S
C1050 C1051 1.386 . S
C1050 C1052 1.391 . S
C1051 C1050 1.386 . S
C1051 C1055 1.393 . S
C1052 H1041 0.950 . S
C1052 C1050 1.391 . S
C1052 C1053 1.400 . S
C1053 C1047 1.491 . S
C1053 C1052 1.400 . S
C1053 C1054 1.398 . S
C1054 H1042 0.950 . S
C1054 C1053 1.398 . S
C1054 C1055 1.391 . S
C1055 H1043 0.950 . S
C1055 C1051 1.393 . S
C1055 C1054 1.391 . S
H1056 C1064 0.950 . S
H1057 C1069 0.950 . S
H1058 C1066 0.950 . S
H1059 C1068 0.950 . S
H1060 C1070 0.950 . S
H1061 C1072 0.950 . S
H1062 C1074 0.950 . S
H1063 C1075 0.950 . S
C1064 H1056 0.950 . S
C1064 C1065 1.386 . S
C1064 C1066 1.391 . S
C1065 C1064 1.386 . S
C1065 C1069 1.393 . S
C1066 H1058 0.950 . S
C1066 C1064 1.391 . S
C1066 C1067 1.400 . S
C1067 C1066 1.400 . S
C1067 C1068 1.398 . S
C1067 C1073 1.491 . S
C1068 H1059 0.950 . S
C1068 C1067 1.398 . S
C1068 C1069 1.391 . S
C1069 H1057 0.950 . S
C1069 C1065 1.393 . S
C1069 C1068 1.391 . S
C1070 H1060 0.950 . S
C1070 C1071 1.386 . S
C1070 C1072 1.391 . S
C1071 C1070 1.386 . S
C1071 C1075 1.393 . S
C1072 H1061 0.950 . S
C1072 C1070 1.391 . S
C1072 C1073 1.400 . S
C1073 C1067 1.491 . S
C1073 C1072 1.400 . S
C1073 C1074 1.398 . S
C1074 H1062 0.950 . S
C1074 C1073 1.398 . S
C1074 C1075 1.391 . S
C1075 H1063 0.950 . S
C1075 C1071 1.393 . S
C1075 C1074 1.391 . S
H1076 C1084 0.950 . S
H1077 C1089 0.950 . S
H1078 C1086 0.950 . S
H1079 C1088 0.950 . S
H1080 C1090 0.950 . S
H1081 C1092 0.950 . S
H1082 C1094 0.950 . S
H1083 C1095 0.950 . S
C1084 H1076 0.950 . S
C1084 C1085 1.386 . S
C1084 C1086 1.391 . S
C1085 C1084 1.386 . S
C1085 C1089 1.393 . S
C1086 H1078 0.950 . S
C1086 C1084 1.391 . S
C1086 C1087 1.400 . S
C1087 C1086 1.400 . S
C1087 C1088 1.398 . S
C1087 C1093 1.491 . S
C1088 H1079 0.950 . S
C1088 C1087 1.398 . S
C1088 C1089 1.391 . S
C1089 H1077 0.950 . S
C1089 C1085 1.393 . S
C1089 C1088 1.391 . S
C1090 H1080 0.950 . S
C1090 C1091 1.386 . S
C1090 C1092 1.391 . S
C1091 C1090 1.386 . S
C1091 C1095 1.393 . S
C1092 H1081 0.950 . S
C1092 C1090 1.391 . S
C1092 C1093 1.400 . S
C1093 C1087 1.491 . S
C1093 C1092 1.400 . S
C1093 C1094 1.398 . S
C1094 H1082 0.950 . S
C1094 C1093 1.398 . S
C1094 C1095 1.391 . S
C1095 H1083 0.950 . S
C1095 C1091 1.393 . S
C1095 C1094 1.391 . S
H1096 C1104 0.950 . S
H1097 C1109 0.950 . S
H1098 C1106 0.950 . S
H1099 C1108 0.950 . S
H1100 C1110 0.950 . S
H1101 C1112 0.950 . S
H1102 C1114 0.950 . S
H1103 C1115 0.950 . S
C1104 H1096 0.950 . S
C1104 C1105 1.386 . S
C1104 C1106 1.391 . S
C1105 C1104 1.386 . S
C1105 C1109 1.393 . S
C1106 H1098 0.950 . S
C1106 C1104 1.391 . S
C1106 C1107 1.400 . S
C1107 C1106 1.400 . S
C1107 C1108 1.398 . S
C1107 C1113 1.491 . S
C1108 H1099 0.950 . S
C1108 C1107 1.398 . S
C1108 C1109 1.391 . S
C1109 H1097 0.950 . S
C1109 C1105 1.393 . S
C1109 C1108 1.391 . S
C1110 H1100 0.950 . S
C1110 C1111 1.386 . S
C1110 C1112 1.391 . S
C1111 C1110 1.386 . S
C1111 C1115 1.393 . S
C1112 H1101 0.950 . S
C1112 C1110 1.391 . S
C1112 C1113 1.400 . S
C1113 C1107 1.491 . S
C1113 C1112 1.400 . S
C1113 C1114 1.398 . S
C1114 H1102 0.950 . S
C1114 C1113 1.398 . S
C1114 C1115 1.391 . S
C1115 H1103 0.950 . S
C1115 C1111 1.393 . S
C1115 C1114 1.391 . S
H1116 C1124 0.950 . S
H1117 C1129 0.950 . S
H1118 C1126 0.950 . S
H1119 C1128 0.950 . S
H1120 C1130 0.950 . S
H1121 C1132 0.950 . S
H1122 C1134 0.950 . S
H1123 C1135 0.950 . S
C1124 H1116 0.950 . S
C1124 C1125 1.386 . S
C1124 C1126 1.391 . S
C1125 C1124 1.386 . S
C1125 C1129 1.393 . S
C1126 H1118 0.950 . S
C1126 C1124 1.391 . S
C1126 C1127 1.400 . S
C1127 C1126 1.400 . S
C1127 C1128 1.398 . S
C1127 C1133 1.491 . S
C1128 H1119 0.950 . S
C1128 C1127 1.398 . S
C1128 C1129 1.391 . S
C1129 H1117 0.950 . S
C1129 C1125 1.393 . S
C1129 C1128 1.391 . S
C1130 H1120 0.950 . S
C1130 C1131 1.386 . S
C1130 C1132 1.391 . S
C1131 C1130 1.386 . S
C1131 C1135 1.393 . S
C1132 H1121 0.950 . S
C1132 C1130 1.391 . S
C1132 C1133 1.400 . S
C1133 C1127 1.491 . S
C1133 C1132 1.400 . S
C1133 C1134 1.398 . S
C1134 H1122 0.950 . S
C1134 C1133 1.398 . S
C1134 C1135 1.391 . S
C1135 H1123 0.950 . S
C1135 C1131 1.393 . S
C1135 C1134 1.391 . S
H1136 C1144 0.950 . S
H1137 C1149 0.950 . S
H1138 C1146 0.950 . S
H1139 C1148 0.950 . S
H1140 C1150 0.950 . S
H1141 C1152 0.950 . S
H1142 C1154 0.950 . S
H1143 C1155 0.950 . S
C1144 H1136 0.950 . S
C1144 C1145 1.386 . S
C1144 C1146 1.391 . S
C1145 C1144 1.386 . S
C1145 C1149 1.393 . S
C1146 H1138 0.950 . S
C1146 C1144 1.391 . S
C1146 C1147 1.400 . S
C1147 C1146 1.400 . S
C1147 C1148 1.398 . S
C1147 C1153 1.491 . S
C1148 H1139 0.950 . S
C1148 C1147 1.398 . S
C1148 C1149 1.391 . S
C1149 H1137 0.950 . S
C1149 C1145 1.393 . S
C1149 C1148 1.391 . S
C1150 H1140 0.950 . S
C1150 C1151 1.386 . S
C1150 C1152 1.391 . S
C1151 C1150 1.386 . S
C1151 C1155 1.393 . S
C1152 H1141 0.950 . S
C1152 C1150 1.391 . S
C1152 C1153 1.400 . S
C1153 C1147 1.491 . S
C1153 C1152 1.400 . S
C1153 C1154 1.398 . S
C1154 H1142 0.950 . S
C1154 C1153 1.398 . S
C1154 C1155 1.391 . S
C1155 H1143 0.950 . S
C1155 C1151 1.393 . S
C1155 C1154 1.391 . S
H1156 C1164 0.950 . S
H1157 C1169 0.950 . S
H1158 C1166 0.950 . S
H1159 C1168 0.950 . S
H1160 C1170 0.950 . S
H1161 C1172 0.950 . S
H1162 C1174 0.950 . S
H1163 C1175 0.950 . S
C1164 H1156 0.950 . S
C1164 C1165 1.386 . S
C1164 C1166 1.391 . S
C1165 C1164 1.386 . S
C1165 C1169 1.393 . S
C1166 H1158 0.950 . S
C1166 C1164 1.391 . S
C1166 C1167 1.400 . S
C1167 C1166 1.400 . S
C1167 C1168 1.398 . S
C1167 C1173 1.491 . S
C1168 H1159 0.950 . S
C1168 C1167 1.398 . S
C1168 C1169 1.391 . S
C1169 H1157 0.950 . S
C1169 C1165 1.393 . S
C1169 C1168 1.391 . S
C1170 H1160 0.950 . S
C1170 C1171 1.386 . S
C1170 C1172 1.391 . S
C1171 C1170 1.386 . S
C1171 C1175 1.393 . S
C1172 H1161 0.950 . S
C1172 C1170 1.391 . S
C1172 C1173 1.400 . S
C1173 C1167 1.491 . S
C1173 C1172 1.400 . S
C1173 C1174 1.398 . S
C1174 H1162 0.950 . S
C1174 C1173 1.398 . S
C1174 C1175 1.391 . S
C1175 H1163 0.950 . S
C1175 C1171 1.393 . S
C1175 C1174 1.391 . S
H1176 C1184 0.950 . S
H1177 C1189 0.950 . S
H1178 C1186 0.950 . S
H1179 C1188 0.950 . S
H1180 C1190 0.950 . S
H1181 C1192 0.950 . S
H1182 C1194 0.950 . S
H1183 C1195 0.950 . S
C1184 H1176 0.950 . S
C1184 C1185 1.386 . S
C1184 C1186 1.391 . S
C1185 C1184 1.386 . S
C1185 C1189 1.393 . S
C1186 H1178 0.950 . S
C1186 C1184 1.391 . S
C1186 C1187 1.400 . S
C1187 C1186 1.400 . S
C1187 C1188 1.398 . S
C1187 C1193 1.491 . S
C1188 H1179 0.950 . S
C1188 C1187 1.398 . S
C1188 C1189 1.391 . S
C1189 H1177 0.950 . S
C1189 C1185 1.393 . S
C1189 C1188 1.391 . S
C1190 H1180 0.950 . S
C1190 C1191 1.386 . S
C1190 C1192 1.391 . S
C1191 C1190 1.386 . S
C1191 C1195 1.393 . S
C1192 H1181 0.950 . S
C1192 C1190 1.391 . S
C1192 C1193 1.400 . S
C1193 C1187 1.491 . S
C1193 C1192 1.400 . S
C1193 C1194 1.398 . S
C1194 H1182 0.950 . S
C1194 C1193 1.398 . S
C1194 C1195 1.391 . S
C1195 H1183 0.950 . S
C1195 C1191 1.393 . S
C1195 C1194 1.391 . S
H1196 C1204 0.950 . S
H1197 C1209 0.950 . S
H1198 C1206 0.950 . S
H1199 C1208 0.950 . S
H1200 C1210 0.950 . S
H1201 C1212 0.950 . S
H1202 C1214 0.950 . S
H1203 C1215 0.950 . S
C1204 H1196 0.950 . S
C1204 C1205 1.386 . S
C1204 C1206 1.391 . S
C1205 C1204 1.386 . S
C1205 C1209 1.393 . S
C1206 H1198 0.950 . S
C1206 C1204 1.391 . S
C1206 C1207 1.400 . S
C1207 C1206 1.400 . S
C1207 C1208 1.398 . S
C1207 C1213 1.491 . S
C1208 H1199 0.950 . S
C1208 C1207 1.398 . S
C1208 C1209 1.391 . S
C1209 H1197 0.950 . S
C1209 C1205 1.393 . S
C1209 C1208 1.391 . S
C1210 H1200 0.950 . S
C1210 C1211 1.386 . S
C1210 C1212 1.391 . S
C1211 C1210 1.386 . S
C1211 C1215 1.393 . S
C1212 H1201 0.950 . S
C1212 C1210 1.391 . S
C1212 C1213 1.400 . S
C1213 C1207 1.491 . S
C1213 C1212 1.400 . S
C1213 C1214 1.398 . S
C1214 H1202 0.950 . S
C1214 C1213 1.398 . S
C1214 C1215 1.391 . S
C1215 H1203 0.950 . S
C1215 C1211 1.393 . S
C1215 C1214 1.391 . S
H1216 C1224 0.950 . S
H1217 C1229 0.950 . S
H1218 C1226 0.950 . S
H1219 C1228 0.950 . S
H1220 C1230 0.950 . S
H1221 C1232 0.950 . S
H1222 C1234 0.950 . S
H1223 C1235 0.950 . S
C1224 H1216 0.950 . S
C1224 C1225 1.386 . S
C1224 C1226 1.391 . S
C1225 C1224 1.386 . S
C1225 C1229 1.393 . S
C1226 H1218 0.950 . S
C1226 C1224 1.391 . S
C1226 C1227 1.400 . S
C1227 C1226 1.400 . S
C1227 C1228 1.398 . S
C1227 C1233 1.491 . S
C1228 H1219 0.950 . S
C1228 C1227 1.398 . S
C1228 C1229 1.391 . S
C1229 H1217 0.950 . S
C1229 C1225 1.393 . S
C1229 C1228 1.391 . S
C1230 H1220 0.950 . S
C1230 C1231 1.386 . S
C1230 C1232 1.391 . S
C1231 C1230 1.386 . S
C1231 C1235 1.393 . S
C1232 H1221 0.950 . S
C1232 C1230 1.391 . S
C1232 C1233 1.400 . S
C1233 C1227 1.491 . S
C1233 C1232 1.400 . S
C1233 C1234 1.398 . S
C1234 H1222 0.950 . S
C1234 C1233 1.398 . S
C1234 C1235 1.391 . S
C1235 H1223 0.950 . S
C1235 C1231 1.393 . S
C1235 C1234 1.391 . S
H1236 C1244 0.950 . S
H1237 C1249 0.950 . S
H1238 C1246 0.950 . S
H1239 C1248 0.950 . S
H1240 C1250 0.950 . S
H1241 C1252 0.950 . S
H1242 C1254 0.950 . S
H1243 C1255 0.950 . S
C1244 H1236 0.950 . S
C1244 C1245 1.386 . S
C1244 C1246 1.391 . S
C1245 C1244 1.386 . S
C1245 C1249 1.393 . S
C1246 H1238 0.950 . S
C1246 C1244 1.391 . S
C1246 C1247 1.400 . S
C1247 C1246 1.400 . S
C1247 C1248 1.398 . S
C1247 C1253 1.491 . S
C1248 H1239 0.950 . S
C1248 C1247 1.398 . S
C1248 C1249 1.391 . S
C1249 H1237 0.950 . S
C1249 C1245 1.393 . S
C1249 C1248 1.391 . S
C1250 H1240 0.950 . S
C1250 C1251 1.386 . S
C1250 C1252 1.391 . S
C1251 C1250 1.386 . S
C1251 C1255 1.393 . S
C1252 H1241 0.950 . S
C1252 C1250 1.391 . S
C1252 C1253 1.400 . S
C1253 C1247 1.491 . S
C1253 C1252 1.400 . S
C1253 C1254 1.398 . S
C1254 H1242 0.950 . S
C1254 C1253 1.398 . S
C1254 C1255 1.391 . S
C1255 H1243 0.950 . S
C1255 C1251 1.393 . S
C1255 C1254 1.391 . S
H1256 C1264 0.950 . S
H1257 C1269 0.950 . S
H1258 C1266 0.950 . S
H1259 C1268 0.950 . S
H1260 C1270 0.950 . S
H1261 C1272 0.950 . S
H1262 C1274 0.950 . S
H1263 C1275 0.950 . S
C1264 H1256 0.950 . S
C1264 C1265 1.386 . S
C1264 C1266 1.391 . S
C1265 C1264 1.386 . S
C1265 C1269 1.393 . S
C1266 H1258 0.950 . S
C1266 C1264 1.391 . S
C1266 C1267 1.400 . S
C1267 C1266 1.400 . S
C1267 C1268 1.398 . S
C1267 C1273 1.491 . S
C1268 H1259 0.950 . S
C1268 C1267 1.398 . S
C1268 C1269 1.391 . S
C1269 H1257 0.950 . S
C1269 C1265 1.393 . S
C1269 C1268 1.391 . S
C1270 H1260 0.950 . S
C1270 C1271 1.386 . S
C1270 C1272 1.391 . S
C1271 C1270 1.386 . S
C1271 C1275 1.393 . S
C1272 H1261 0.950 . S
C1272 C1270 1.391 . S
C1272 C1273 1.400 . S
C1273 C1267 1.491 . S
C1273 C1272 1.400 . S
C1273 C1274 1.398 . S
C1274 H1262 0.950 . S
C1274 C1273 1.398 . S
C1274 C1275 1.391 . S
C1275 H1263 0.950 . S
C1275 C1271 1.393 . S
C1275 C1274 1.391 . S
H1276 C1284 0.950 . S
H1277 C1289 0.950 . S
H1278 C1286 0.950 . S
H1279 C1288 0.950 . S
H1280 C1290 0.950 . S
H1281 C1292 0.950 . S
H1282 C1294 0.950 . S
H1283 C1295 0.950 . S
C1284 H1276 0.950 . S
C1284 C1285 1.386 . S
C1284 C1286 1.391 . S
C1285 C1284 1.386 . S
C1285 C1289 1.393 . S
C1286 H1278 0.950 . S
C1286 C1284 1.391 . S
C1286 C1287 1.400 . S
C1287 C1286 1.400 . S
C1287 C1288 1.398 . S
C1287 C1293 1.491 . S
C1288 H1279 0.950 . S
C1288 C1287 1.398 . S
C1288 C1289 1.391 . S
C1289 H1277 0.950 . S
C1289 C1285 1.393 . S
C1289 C1288 1.391 . S
C1290 H1280 0.950 . S
C1290 C1291 1.386 . S
C1290 C1292 1.391 . S
C1291 C1290 1.386 . S
C1291 C1295 1.393 . S
C1292 H1281 0.950 . S
C1292 C1290 1.391 . S
C1292 C1293 1.400 . S
C1293 C1287 1.491 . S
C1293 C1292 1.400 . S
C1293 C1294 1.398 . S
C1294 H1282 0.950 . S
C1294 C1293 1.398 . S
C1294 C1295 1.391 . S
C1295 H1283 0.950 . S
C1295 C1291 1.393 . S
C1295 C1294 1.391 . S
C345 C203 1.465 . S
C351 C6 1.454 . S
C365 C21 1.455 . S
C371 C216 1.433 . S
C385 C261 1.690 . S
C391 C37 1.692 . S
C405 C50 2.107 . S
C411 C190 2.101 . S
C425 C204 2.109 . S
C431 C64 2.098 . S
C445 C79 1.683 . S
C451 C219 1.694 . S
C465 C91 1.461 . S
C471 C258 1.453 . S
C485 C104 1.444 . S
C491 C189 1.454 . S
C505 C133 1.468 . S
C511 C118 1.449 . S
C525 C148 2.100 . S
C531 C134 2.107 . S
C545 C147 1.464 . S
C551 C160 1.437 . S
C565 C163 1.683 . S
C571 C121 1.694 . S
C585 C174 1.434 . S
C591 C49 1.454 . S
C605 C63 1.468 . S
C611 C230 1.445 . S
C625 C246 2.109 . S
C631 C22 2.098 . S
C645 C20 1.573 . S
C651 C302 1.599 . S
C665 C132 1.570 . S
C671 C8 1.599 . S
C685 C331 1.746 . S
C691 C51 1.747 . S
C705 C161 0.935 . S
C711 C35 0.911 . S
C725 C301 0.912 . S
C731 C105 0.936 . S
C745 C135 1.751 . S
C751 C93 1.750 . S
C765 C78 1.587 . S
C771 C328 1.574 . S
C785 C62 1.577 . S
C791 C162 1.588 . S
C805 C218 1.599 . S
C811 C272 1.570 . S
C825 C231 0.930 . S
C831 C217 0.927 . S
C845 C188 1.572 . S
C851 C232 1.587 . S
C865 C275 1.746 . S
C871 C191 1.745 . S
C885 C36 1.594 . S
C891 C286 1.581 . S
C905 C146 1.565 . S
C911 C106 1.589 . S
C925 C7 0.936 . S
C931 C315 0.918 . S
C945 C273 1.454 . S
C951 C34 1.434 . S
C965 C9 1.688 . S
C971 C233 1.694 . S
C985 C274 2.106 . S
C991 C92 2.102 . S
C1005 C177 1.695 . S
C1011 C107 1.685 . S
C1025 C76 1.433 . S
C1031 C245 1.455 . S
C1045 C300 1.434 . S
C1051 C287 1.454 . S
C1065 C330 2.106 . S
C1071 C288 2.103 . S
C1085 C314 1.435 . S
C1091 C329 1.453 . S
C1105 C303 1.688 . S
C1111 C317 1.694 . S
C1125 C120 1.588 . S
C1131 C48 1.576 . S
C1145 C23 1.748 . S
C1151 C149 1.749 . S
C1165 C77 0.935 . S
C1171 C119 0.918 . S
C1185 C289 1.739 . S
C1191 C65 1.738 . S
C1205 C90 1.581 . S
C1211 C316 1.591 . S
C1225 C176 1.588 . S
C1231 C202 1.575 . S
C1245 C259 0.911 . S
C1251 C175 0.927 . S
C1265 C244 1.564 . S
C1271 C260 1.596 . S
C1285 C205 1.735 . S
C1291 C247 1.735 . S
