# Generated by pormake.
# Topology nia-e, (7)-cn, num edge types: 1
# Building blocks:
#     Node 0, Type 0, BuildingBlock: OLANEW_clean_sbu_0, # of connection points: 7
#     Node 1, Type 0, BuildingBlock: OLANEW_clean_sbu_0, # of connection points: 7
#     Node 2, Type 0, BuildingBlock: OLANEW_clean_sbu_0, # of connection points: 7
#     Node 3, Type 0, BuildingBlock: OLANEW_clean_sbu_0, # of connection points: 7
#     Node 4, Type 0, BuildingBlock: OLANEW_clean_sbu_0, # of connection points: 7
#     Node 5, Type 0, BuildingBlock: OLANEW_clean_sbu_0, # of connection points: 7
#     Node 6, Type 0, BuildingBlock: OLANEW_clean_sbu_0, # of connection points: 7
#     Node 7, Type 0, BuildingBlock: OLANEW_clean_sbu_0, # of connection points: 7
#     Node 8, Type 0, BuildingBlock: OLANEW_clean_sbu_0, # of connection points: 7
#     Node 9, Type 0, BuildingBlock: OLANEW_clean_sbu_0, # of connection points: 7
#     Node 10, Type 0, BuildingBlock: OLANEW_clean_sbu_0, # of connection points: 7
#     Node 11, Type 0, BuildingBlock: OLANEW_clean_sbu_0, # of connection points: 7
#     Edge 12, Type (0, 0), BuildingBlock: OJICUG_clean_linker_0, # of connection points: 2
#     Edge 13, Type (0, 0), BuildingBlock: OJICUG_clean_linker_0, # of connection points: 2
#     Edge 14, Type (0, 0), BuildingBlock: OJICUG_clean_linker_0, # of connection points: 2
#     Edge 15, Type (0, 0), BuildingBlock: OJICUG_clean_linker_0, # of connection points: 2
#     Edge 16, Type (0, 0), BuildingBlock: OJICUG_clean_linker_0, # of connection points: 2
#     Edge 17, Type (0, 0), BuildingBlock: OJICUG_clean_linker_0, # of connection points: 2
#     Edge 18, Type (0, 0), BuildingBlock: OJICUG_clean_linker_0, # of connection points: 2
#     Edge 19, Type (0, 0), BuildingBlock: OJICUG_clean_linker_0, # of connection points: 2
#     Edge 20, Type (0, 0), BuildingBlock: OJICUG_clean_linker_0, # of connection points: 2
#     Edge 21, Type (0, 0), BuildingBlock: OJICUG_clean_linker_0, # of connection points: 2
#     Edge 22, Type (0, 0), BuildingBlock: OJICUG_clean_linker_0, # of connection points: 2
#     Edge 23, Type (0, 0), BuildingBlock: OJICUG_clean_linker_0, # of connection points: 2
#     Edge 24, Type (0, 0), BuildingBlock: OJICUG_clean_linker_0, # of connection points: 2
#     Edge 25, Type (0, 0), BuildingBlock: OJICUG_clean_linker_0, # of connection points: 2
#     Edge 26, Type (0, 0), BuildingBlock: OJICUG_clean_linker_0, # of connection points: 2
#     Edge 27, Type (0, 0), BuildingBlock: OJICUG_clean_linker_0, # of connection points: 2
#     Edge 28, Type (0, 0), BuildingBlock: OJICUG_clean_linker_0, # of connection points: 2
#     Edge 29, Type (0, 0), BuildingBlock: OJICUG_clean_linker_0, # of connection points: 2
#     Edge 30, Type (0, 0), BuildingBlock: OJICUG_clean_linker_0, # of connection points: 2
#     Edge 31, Type (0, 0), BuildingBlock: OJICUG_clean_linker_0, # of connection points: 2
#     Edge 32, Type (0, 0), BuildingBlock: OJICUG_clean_linker_0, # of connection points: 2
#     Edge 33, Type (0, 0), BuildingBlock: OJICUG_clean_linker_0, # of connection points: 2
#     Edge 34, Type (0, 0), BuildingBlock: OJICUG_clean_linker_0, # of connection points: 2
#     Edge 35, Type (0, 0), BuildingBlock: OJICUG_clean_linker_0, # of connection points: 2
#     Edge 36, Type (0, 0), BuildingBlock: OJICUG_clean_linker_0, # of connection points: 2
#     Edge 37, Type (0, 0), BuildingBlock: OJICUG_clean_linker_0, # of connection points: 2
#     Edge 38, Type (0, 0), BuildingBlock: OJICUG_clean_linker_0, # of connection points: 2
#     Edge 39, Type (0, 0), BuildingBlock: OJICUG_clean_linker_0, # of connection points: 2
#     Edge 40, Type (0, 0), BuildingBlock: OJICUG_clean_linker_0, # of connection points: 2
#     Edge 41, Type (0, 0), BuildingBlock: OJICUG_clean_linker_0, # of connection points: 2
#     Edge 42, Type (0, 0), BuildingBlock: OJICUG_clean_linker_0, # of connection points: 2
#     Edge 43, Type (0, 0), BuildingBlock: OJICUG_clean_linker_0, # of connection points: 2
#     Edge 44, Type (0, 0), BuildingBlock: OJICUG_clean_linker_0, # of connection points: 2
#     Edge 45, Type (0, 0), BuildingBlock: OJICUG_clean_linker_0, # of connection points: 2
#     Edge 46, Type (0, 0), BuildingBlock: OJICUG_clean_linker_0, # of connection points: 2
#     Edge 47, Type (0, 0), BuildingBlock: OJICUG_clean_linker_0, # of connection points: 2
#     Edge 48, Type (0, 0), BuildingBlock: OJICUG_clean_linker_0, # of connection points: 2
#     Edge 49, Type (0, 0), BuildingBlock: OJICUG_clean_linker_0, # of connection points: 2
#     Edge 50, Type (0, 0), BuildingBlock: OJICUG_clean_linker_0, # of connection points: 2
#     Edge 51, Type (0, 0), BuildingBlock: OJICUG_clean_linker_0, # of connection points: 2
#     Edge 52, Type (0, 0), BuildingBlock: OJICUG_clean_linker_0, # of connection points: 2
#     Edge 53, Type (0, 0), BuildingBlock: OJICUG_clean_linker_0, # of connection points: 2
# Relax obj value: 0.212
# Max RMSD: 0.284
# Mean RMSD: 0.284
data_MOF--net-nia-e--node1-OLANEW_clean_sbu_0--edge1-OJICUG_clean_linker_0
_symmetry_space_group_name_H-M    P1
_symmetry_Int_Tables_number       1
_symmetry_cell_setting            triclinic
loop_
_symmetry_equiv_pos_as_xyz
'x, y, z'
_cell_length_a     37.087014
_cell_length_b     37.12048
_cell_length_c     51.450119
_cell_angle_alpha  90.184938
_cell_angle_beta   89.886304
_cell_angle_gamma 119.99977
loop_
_atom_site_label
_atom_site_type_symbol
_atom_site_fract_x
_atom_site_fract_y
_atom_site_fract_z
_atom_type_partial_charge
Cd0 Cd 0.12226 0.21148 0.09191 0.0
C1 C 0.03466 0.15373 0.10448 0.0
C2 C 0.18033 0.43508 0.06348 0.0
O3 O 0.16819 0.44914 0.04391 0.0
Cd4 Cd 0.07181 0.15782 0.16453 0.0
C5 C 0.22421 0.4464 0.06673 0.0
C6 C 0.3017 0.45589 0.07991 0.0
C7 C 0.26634 0.4325 0.09521 0.0
N8 N 0.23048 0.4296 0.08781 0.0
C9 C 0.25816 0.47017 0.0504 0.0
C10 C 0.29727 0.47486 0.05725 0.0
Co11 Co 0.18478 0.39743 0.10805 0.0
C12 C 0.26247 0.41078 0.11989 0.0
O13 O 0.2938 0.4091 0.13051 0.0
C14 C 0.21254 0.36517 0.15289 0.0
C15 C 0.19715 0.32309 0.14834 0.0
C16 C 0.1772 0.29405 0.16799 0.0
C17 C 0.17876 0.30808 0.19354 0.0
C18 C 0.19755 0.35088 0.1991 0.0
C19 C 0.21313 0.37952 0.17837 0.0
C20 C 0.14935 0.25019 0.16078 0.0
C21 C 0.10815 0.38679 0.0778 0.0
C22 C 0.0905 0.36995 0.05319 0.0
C23 C 0.08148 0.38486 0.09775 0.0
C24 C 0.03843 0.36389 0.09412 0.0
C25 C 0.02119 0.34579 0.07018 0.0
C26 C 0.04707 0.34992 0.04912 0.0
N27 N 0.15291 0.40838 0.08172 0.0
N28 N 0.22371 0.3921 0.13088 0.0
N29 N 0.17166 0.34598 0.0902 0.0
C30 C 0.19347 0.34221 0.06832 0.0
C31 C 0.17999 0.34317 0.04316 0.0
C32 C 0.22827 0.33752 0.07203 0.0
C33 C 0.20173 0.34079 0.02147 0.0
H34 H 0.15252 0.34575 0.04064 0.0
C35 C 0.23706 0.33675 0.0254 0.0
C36 C 0.25036 0.3347 0.05065 0.0
C37 C 0.18747 0.34227 0.99476 0.0
H38 H 0.23809 0.3361 0.09158 0.0
H39 H 0.25398 0.33478 0.00878 0.0
C40 C 0.28705 0.32934 0.0546 0.0
O41 O 0.20798 0.33908 0.97395 0.0
O42 O 0.15704 0.34631 0.9914 0.0
O43 O 0.29949 0.329 0.07654 0.0
O44 O 0.30689 0.32464 0.03394 0.0
H45 H 0.19913 0.33983 0.95638 0.0
H46 H 0.33075 0.32091 0.03608 0.0
N47 N 0.13956 0.36464 0.12852 0.0
C48 C 0.13366 0.38329 0.14897 0.0
C49 C 0.10183 0.35878 0.16646 0.0
C50 C 0.0782 0.31541 0.16165 0.0
C51 C 0.08669 0.29749 0.13981 0.0
C52 C 0.11892 0.32393 0.12315 0.0
N53 N 0.19096 0.4438 0.12935 0.0
C54 C 0.16242 0.42874 0.14917 0.0
O55 O 0.16019 0.45323 0.16683 0.0
C56 C 0.13635 0.31314 0.10051 0.0
O57 O 0.1868 0.22112 0.07102 0.0
O58 O 0.14166 0.22419 0.0461 0.0
C59 C 0.21881 0.48749 0.12486 0.0
C60 C 0.26224 0.50395 0.12532 0.0
C61 C 0.28916 0.54505 0.11771 0.0
C62 C 0.27285 0.57097 0.11246 0.0
C63 C 0.23018 0.5565 0.11468 0.0
C64 C 0.20286 0.5144 0.12035 0.0
O65 O 0.04716 0.16477 0.08147 0.0
O66 O 0.06093 0.17349 0.12211 0.0
O67 O 0.14245 0.24021 0.13677 0.0
O68 O 0.12757 0.22402 0.17817 0.0
O69 O 0.11624 0.27534 0.08886 0.0
C70 C 0.11988 0.12175 0.12616 0.0
O71 O 0.10445 0.12051 0.14852 0.0
O72 O 0.12427 0.14855 0.10899 0.0
C73 C 0.17585 0.22447 0.04821 0.0
H74 H 0.33158 0.4596 0.08525 0.0
H75 H 0.25469 0.48431 0.03293 0.0
H76 H 0.32407 0.49316 0.04502 0.0
H77 H 0.1975 0.31276 0.12875 0.0
H78 H 0.16365 0.28569 0.20902 0.0
H79 H 0.22538 0.4124 0.18192 0.0
H80 H 0.11042 0.37304 0.03698 0.0
H81 H 0.09365 0.40105 0.1158 0.0
H82 H 0.98776 0.33077 0.06778 0.0
H83 H 0.09551 0.37241 0.18323 0.0
H84 H 0.05362 0.29566 0.17496 0.0
H85 H 0.06933 0.26424 0.13648 0.0
H86 H 0.27519 0.48521 0.13169 0.0
H87 H 0.29393 0.60341 0.10773 0.0
H88 H 0.16963 0.50265 0.12126 0.0
Cd89 Cd 0.93064 0.14007 0.60046 0.0
C90 C 0.88168 0.03406 0.60973 0.0
C91 C 0.75326 0.17773 0.56151 0.0
O92 O 0.72728 0.1629 0.5418 0.0
Cd93 Cd 0.91489 0.0894 0.6589 0.0
C94 C 0.78301 0.22251 0.56407 0.0
C95 C 0.84626 0.30312 0.57625 0.0
C96 C 0.83601 0.26952 0.59279 0.0
N97 N 0.80519 0.23198 0.58584 0.0
C98 C 0.79153 0.25451 0.54648 0.0
C99 C 0.82352 0.29523 0.55285 0.0
Co100 Co 0.79377 0.18883 0.60793 0.0
C101 C 0.85322 0.26939 0.61852 0.0
O102 O 0.88424 0.30301 0.62891 0.0
C103 C 0.85093 0.22505 0.65436 0.0
C104 C 0.88537 0.22027 0.65146 0.0
C105 C 0.89539 0.20023 0.6705 0.0
C106 C 0.8768 0.19389 0.69508 0.0
C107 C 0.84507 0.20335 0.6996 0.0
C108 C 0.83098 0.21778 0.67875 0.0
C109 C 0.9127 0.17438 0.66157 0.0
C110 C 0.7335 0.10759 0.5776 0.0
C111 C 0.73304 0.08946 0.55314 0.0
C112 C 0.70934 0.08093 0.59766 0.0
C113 C 0.68827 0.03783 0.59432 0.0
C114 C 0.68929 0.02033 0.57051 0.0
C115 C 0.71015 0.04595 0.54925 0.0
N116 N 0.75425 0.15258 0.58078 0.0
N117 N 0.83404 0.23199 0.63117 0.0
N118 N 0.83695 0.17924 0.59332 0.0
C119 C 0.86099 0.19851 0.57048 0.0
C120 C 0.84706 0.17956 0.54625 0.0
C121 C 0.89881 0.23591 0.57237 0.0
C122 C 0.86989 0.19832 0.5236 0.0
H123 H 0.8185 0.1501 0.54523 0.0
C124 C 0.90776 0.23605 0.52571 0.0
C125 C 0.9227 0.25488 0.55008 0.0
C126 C 0.85438 0.17848 0.49784 0.0
H127 H 0.90969 0.2501 0.59121 0.0
H128 H 0.92581 0.25059 0.50838 0.0
C129 C 0.9633 0.29406 0.55223 0.0
O130 O 0.87675 0.19638 0.47615 0.0
O131 O 0.82128 0.14583 0.49606 0.0
O132 O 0.97551 0.31123 0.5733 0.0
O133 O 0.98719 0.31091 0.53092 0.0
H134 H 0.86728 0.18391 0.45917 0.0
H135 H 0.01386 0.33629 0.53192 0.0
N136 N 0.78365 0.14634 0.63022 0.0
C137 C 0.75592 0.13873 0.64902 0.0
C138 C 0.74888 0.1081 0.66733 0.0
C139 C 0.77239 0.08767 0.66521 0.0
C140 C 0.80219 0.09808 0.64517 0.0
C141 C 0.80743 0.12886 0.62749 0.0
N142 N 0.74908 0.19168 0.62628 0.0
C143 C 0.73548 0.164 0.6465 0.0
O144 O 0.70656 0.16056 0.66278 0.0
C145 C 0.8373 0.1466 0.60569 0.0
O146 O 0.98309 0.19851 0.57432 0.0
O147 O 0.93162 0.14939 0.55321 0.0
C148 C 0.73257 0.21863 0.6206 0.0
C149 C 0.75875 0.26206 0.62108 0.0
C150 C 0.74476 0.28822 0.61174 0.0
C151 C 0.7028 0.27121 0.60532 0.0
C152 C 0.67473 0.22866 0.60842 0.0
C153 C 0.6898 0.20199 0.61534 0.0
O154 O 0.91018 0.06582 0.59814 0.0
O155 O 0.86431 0.03891 0.62958 0.0
O156 O 0.92216 0.17619 0.63759 0.0
O157 O 0.9059 0.14329 0.67515 0.0
O158 O 0.85757 0.12753 0.59587 0.0
C159 C 0.00988 0.13183 0.63254 0.0
O160 O 0.98636 0.1109 0.65119 0.0
O161 O 0.99619 0.14416 0.614 0.0
C162 C 0.96618 0.18318 0.55257 0.0
H163 H 0.87054 0.33425 0.58125 0.0
H164 H 0.77449 0.24837 0.52843 0.0
H165 H 0.83071 0.3206 0.53966 0.0
H166 H 0.8996 0.22576 0.63247 0.0
H167 H 0.88453 0.17843 0.7101 0.0
H168 H 0.80413 0.2217 0.68115 0.0
H169 H 0.74937 0.10909 0.53675 0.0
H170 H 0.70425 0.09287 0.61542 0.0
H171 H 0.67138 0.98685 0.56831 0.0
H172 H 0.72627 0.10029 0.68274 0.0
H173 H 0.76778 0.06406 0.67922 0.0
H174 H 0.82071 0.08305 0.64383 0.0
H175 H 0.7896 0.2757 0.629 0.0
H176 H 0.69128 0.29185 0.59982 0.0
H177 H 0.66853 0.16883 0.61691 0.0
Cd178 Cd 0.79505 0.91318 0.09245 0.0
C179 C 0.84954 0.87984 0.10587 0.0
C180 C 0.57355 0.74377 0.06116 0.0
O181 O 0.56068 0.71668 0.04197 0.0
Cd182 Cd 0.84349 0.91276 0.16619 0.0
C183 C 0.56135 0.77584 0.06305 0.0
C184 C 0.54988 0.84341 0.07384 0.0
C185 C 0.57309 0.83276 0.09025 0.0
N186 N 0.57683 0.79982 0.08401 0.0
C187 C 0.53785 0.78469 0.04565 0.0
C188 C 0.53208 0.81884 0.05132 0.0
Co189 Co 0.60867 0.78799 0.10574 0.0
C190 C 0.59369 0.85201 0.11505 0.0
O191 O 0.59425 0.88511 0.12471 0.0
C192 C 0.63817 0.84995 0.14976 0.0
C193 C 0.68031 0.8775 0.14596 0.0
C194 C 0.70862 0.88732 0.16623 0.0
C195 C 0.69352 0.8746 0.19153 0.0
C196 C 0.65056 0.84945 0.19624 0.0
C197 C 0.62285 0.83587 0.17498 0.0
C198 C 0.75279 0.9031 0.15988 0.0
C199 C 0.6205 0.72026 0.07862 0.0
C200 C 0.63899 0.71771 0.05502 0.0
C201 C 0.62009 0.69638 0.09971 0.0
C202 C 0.64104 0.67407 0.09847 0.0
C203 C 0.66081 0.67319 0.07564 0.0
C204 C 0.65824 0.69306 0.05302 0.0
N205 N 0.59942 0.74422 0.08041 0.0
N206 N 0.6124 0.833 0.12727 0.0
N207 N 0.66066 0.82607 0.08838 0.0
C208 C 0.66491 0.85042 0.06586 0.0
C209 C 0.66537 0.83505 0.04114 0.0
C210 C 0.66854 0.88962 0.06855 0.0
C211 C 0.66836 0.85813 0.01884 0.0
H212 H 0.66334 0.80508 0.03943 0.0
C213 C 0.67121 0.89717 0.02174 0.0
C214 C 0.67158 0.9133 0.04656 0.0
C215 C 0.66863 0.84159 0.99258 0.0
H216 H 0.66881 0.90153 0.08778 0.0
H217 H 0.67348 0.91517 0.00466 0.0
C218 C 0.67522 0.95481 0.04949 0.0
O219 O 0.67225 0.86424 0.97122 0.0
O220 O 0.66564 0.80742 0.99009 0.0
O221 O 0.67451 0.96833 0.07107 0.0
O222 O 0.67939 0.97798 0.0283 0.0
H223 H 0.67257 0.85409 0.95392 0.0
H224 H 0.68191 0.00514 0.02978 0.0
N225 N 0.6412 0.77734 0.12764 0.0
C226 C 0.62204 0.75384 0.14831 0.0
C227 C 0.64625 0.74811 0.16687 0.0
C228 C 0.68987 0.76839 0.16288 0.0
C229 C 0.70833 0.79373 0.14078 0.0
C230 C 0.68217 0.7979 0.12302 0.0
N231 N 0.56173 0.7483 0.12682 0.0
C232 C 0.57646 0.73647 0.14762 0.0
O233 O 0.55159 0.71067 0.16545 0.0
C234 C 0.69348 0.82498 0.09989 0.0
O235 O 0.7875 0.96907 0.07153 0.0
O236 O 0.78345 0.92058 0.04637 0.0
C237 C 0.51806 0.73153 0.12151 0.0
C238 C 0.50118 0.75803 0.12019 0.0
C239 C 0.46031 0.7429 0.11166 0.0
C240 C 0.43479 0.70023 0.10746 0.0
C241 C 0.44936 0.67253 0.1119 0.0
C242 C 0.49144 0.68825 0.11832 0.0
O243 O 0.83916 0.88184 0.08277 0.0
O244 O 0.83003 0.8871 0.12338 0.0
O245 O 0.76355 0.9056 0.13608 0.0
O246 O 0.778 0.90675 0.17777 0.0
O247 O 0.73184 0.84281 0.08898 0.0
C248 C 0.88856 0.99616 0.12786 0.0
O249 O 0.88757 0.98181 0.1505 0.0
O250 O 0.86098 0.97482 0.11067 0.0
C251 C 0.78399 0.95486 0.04863 0.0
H252 H 0.54542 0.86945 0.07824 0.0
H253 H 0.5247 0.76624 0.02826 0.0
H254 H 0.51394 0.82631 0.03826 0.0
H255 H 0.69141 0.8879 0.12646 0.0
H256 H 0.71529 0.88215 0.20745 0.0
H257 H 0.58999 0.81431 0.17791 0.0
H258 H 0.6369 0.7336 0.03805 0.0
H259 H 0.60232 0.6934 0.11688 0.0
H260 H 0.67699 0.65573 0.0757 0.0
H261 H 0.63221 0.72899 0.18385 0.0
H262 H 0.70939 0.76483 0.17704 0.0
H263 H 0.74176 0.81011 0.13808 0.0
H264 H 0.51936 0.79009 0.12603 0.0
H265 H 0.40234 0.68816 0.10236 0.0
H266 H 0.50331 0.66713 0.121 0.0
Cd267 Cd 0.86568 0.78708 0.58952 0.0
C268 C 0.96801 0.83357 0.59241 0.0
C269 C 0.82468 0.57315 0.56303 0.0
O270 O 0.83905 0.56223 0.54292 0.0
Cd271 Cd 0.92514 0.82876 0.64252 0.0
C272 C 0.77995 0.55835 0.56613 0.0
C273 C 0.69999 0.54233 0.57911 0.0
C274 C 0.73413 0.56552 0.59539 0.0
N275 N 0.77126 0.57132 0.58817 0.0
C276 C 0.74734 0.53496 0.54881 0.0
C277 C 0.70695 0.52683 0.55561 0.0
Co278 Co 0.81555 0.6048 0.60919 0.0
C279 C 0.73559 0.58521 0.62058 0.0
O280 O 0.70271 0.58441 0.63084 0.0
C281 C 0.78248 0.63276 0.65391 0.0
C282 C 0.78821 0.67178 0.6485 0.0
C283 C 0.81113 0.70502 0.66537 0.0
C284 C 0.81988 0.69671 0.69048 0.0
C285 C 0.809 0.65593 0.69773 0.0
C286 C 0.79128 0.62392 0.67895 0.0
C287 C 0.83651 0.74635 0.65346 0.0
C288 C 0.89512 0.61697 0.58106 0.0
C289 C 0.91718 0.63765 0.55822 0.0
C290 C 0.91648 0.60898 0.6005 0.0
C291 C 0.95863 0.62219 0.59785 0.0
C292 C 0.98023 0.64272 0.57547 0.0
C293 C 0.9598 0.65001 0.55481 0.0
N294 N 0.85024 0.59848 0.58246 0.0
N295 N 0.77379 0.60513 0.63236 0.0
N296 N 0.8253 0.65603 0.59242 0.0
C297 C 0.80599 0.65843 0.5689 0.0
C298 C 0.82626 0.66377 0.54512 0.0
C299 C 0.7669 0.65546 0.5696 0.0
C300 C 0.80703 0.66423 0.52176 0.0
H301 H 0.85697 0.6674 0.545 0.0
C302 C 0.76739 0.66048 0.52263 0.0
C303 C 0.74719 0.6564 0.54652 0.0
C304 C 0.82824 0.66849 0.49651 0.0
H305 H 0.75187 0.65239 0.58813 0.0
H306 H 0.75236 0.661 0.50472 0.0
C307 C 0.7056 0.65305 0.54731 0.0
O308 O 0.80932 0.66818 0.47403 0.0
O309 O 0.86294 0.67228 0.49587 0.0
O310 O 0.68748 0.64816 0.56801 0.0
O311 O 0.68747 0.65542 0.52513 0.0
H312 H 0.82265 0.67106 0.45737 0.0
H313 H 0.66042 0.6534 0.5252 0.0
N314 N 0.85944 0.63894 0.6302 0.0
C315 C 0.86735 0.62061 0.64988 0.0
C316 C 0.89858 0.6458 0.66754 0.0
C317 C 0.91955 0.6894 0.66368 0.0
C318 C 0.90908 0.70688 0.6426 0.0
C319 C 0.87758 0.67981 0.6257 0.0
N320 N 0.81269 0.55908 0.62938 0.0
C321 C 0.8407 0.57481 0.64943 0.0
O322 O 0.84459 0.55072 0.66652 0.0
C323 C 0.85937 0.68983 0.60316 0.0
O324 O 0.80455 0.77678 0.56501 0.0
O325 O 0.85114 0.77098 0.54312 0.0
C326 C 0.78619 0.51536 0.62441 0.0
C327 C 0.74273 0.49778 0.62485 0.0
C328 C 0.71691 0.45766 0.61531 0.0
C329 C 0.73426 0.43302 0.60882 0.0
C330 C 0.77697 0.448 0.6118 0.0
C331 C 0.80333 0.48974 0.61893 0.0
O332 O 0.93982 0.83875 0.58219 0.0
O333 O 0.95736 0.80688 0.6103 0.0
O334 O 0.8325 0.74925 0.62909 0.0
O335 O 0.86909 0.77306 0.6651 0.0
O336 O 0.87922 0.72733 0.59107 0.0
C337 C 0.88575 0.88246 0.61397 0.0
O338 O 0.91352 0.88448 0.62925 0.0
O339 O 0.8635 0.8502 0.60044 0.0
C340 C 0.81754 0.77218 0.54312 0.0
H341 H 0.66919 0.53642 0.58426 0.0
H342 H 0.75282 0.52378 0.53061 0.0
H343 H 0.68114 0.50883 0.5426 0.0
H344 H 0.78099 0.67731 0.62908 0.0
H345 H 0.83755 0.72226 0.70381 0.0
H346 H 0.78636 0.59326 0.6833 0.0
H347 H 0.90056 0.64262 0.54278 0.0
H348 H 0.90041 0.59013 0.61701 0.0
H349 H 0.0124 0.65051 0.57406 0.0
H350 H 0.90631 0.6325 0.6838 0.0
H351 H 0.9436 0.70966 0.67716 0.0
H352 H 0.92445 0.74019 0.64006 0.0
H353 H 0.72889 0.51506 0.63249 0.0
H354 H 0.71387 0.40093 0.60296 0.0
H355 H 0.83663 0.50214 0.62023 0.0
Cd356 Cd 0.08894 0.87732 0.09805 0.0
C357 C 0.13638 0.97796 0.11178 0.0
C358 C 0.25775 0.82923 0.06046 0.0
O359 O 0.28326 0.84315 0.04048 0.0
Cd360 Cd 0.09339 0.92496 0.16323 0.0
C361 C 0.22644 0.78485 0.06308 0.0
C362 C 0.16096 0.70555 0.07558 0.0
C363 C 0.17262 0.73969 0.09203 0.0
N364 N 0.20445 0.77651 0.08493 0.0
C365 C 0.2165 0.75222 0.0456 0.0
C366 C 0.18342 0.71217 0.05213 0.0
Co367 Co 0.21764 0.82047 0.10682 0.0
C368 C 0.15546 0.74123 0.1176 0.0
O369 O 0.1234 0.70862 0.12802 0.0
C370 C 0.1592 0.7878 0.15281 0.0
C371 C 0.12861 0.79848 0.14973 0.0
C372 C 0.11904 0.81759 0.16983 0.0
C373 C 0.1354 0.81947 0.19469 0.0
C374 C 0.16359 0.80517 0.19887 0.0
C375 C 0.1765 0.79029 0.17759 0.0
C376 C 0.10137 0.844 0.16278 0.0
C377 C 0.28264 0.90002 0.07793 0.0
C378 C 0.28395 0.92063 0.05439 0.0
C379 C 0.30825 0.92394 0.09843 0.0
C380 C 0.33094 0.96711 0.09686 0.0
C381 C 0.33053 0.9873 0.07421 0.0
C382 C 0.30902 0.96444 0.05199 0.0
N383 N 0.25867 0.85498 0.08003 0.0
N384 N 0.17528 0.77908 0.12979 0.0
N385 N 0.17717 0.83307 0.09149 0.0
C386 C 0.15236 0.81347 0.06896 0.0
C387 C 0.16657 0.83082 0.04442 0.0
C388 C 0.11382 0.77699 0.07143 0.0
C389 C 0.14315 0.81132 0.02206 0.0
H390 H 0.19593 0.85948 0.04291 0.0
C391 C 0.1047 0.77437 0.02473 0.0
C392 C 0.08957 0.75716 0.04939 0.0
C393 C 0.15867 0.82954 0.99598 0.0
H394 H 0.10276 0.76412 0.09053 0.0
H395 H 0.08633 0.75919 0.0076 0.0
C396 C 0.04837 0.71882 0.05207 0.0
O397 O 0.13552 0.8112 0.9746 0.0
O398 O 0.19245 0.86126 0.99365 0.0
O399 O 0.03594 0.70296 0.07341 0.0
O400 O 0.0242 0.70128 0.03094 0.0
H401 H 0.14498 0.82262 0.95742 0.0
H402 H 0.99714 0.67644 0.03227 0.0
N403 N 0.22967 0.86385 0.12896 0.0
C404 C 0.25575 0.86944 0.14839 0.0
C405 C 0.26353 0.90022 0.16686 0.0
C406 C 0.24228 0.92284 0.16426 0.0
C407 C 0.21413 0.91457 0.1435 0.0
C408 C 0.20816 0.8836 0.12564 0.0
N409 N 0.25992 0.81462 0.12582 0.0
C410 C 0.2737 0.84183 0.14638 0.0
O411 O 0.3015 0.84367 0.16296 0.0
C412 C 0.17901 0.86716 0.1034 0.0
O413 O 0.03704 0.81441 0.07504 0.0
O414 O 0.0845 0.86324 0.05138 0.0
C415 C 0.27552 0.78696 0.11985 0.0
C416 C 0.24875 0.74359 0.12054 0.0
C417 C 0.26241 0.71672 0.1118 0.0
C418 C 0.30423 0.73312 0.1051 0.0
C419 C 0.33265 0.77573 0.10746 0.0
C420 C 0.31813 0.80294 0.11429 0.0
O421 O 0.11171 0.95162 0.09531 0.0
O422 O 0.14723 0.96492 0.13136 0.0
O423 O 0.09844 0.85014 0.13877 0.0
O424 O 0.09884 0.86759 0.17962 0.0
O425 O 0.16075 0.88778 0.09315 0.0
C426 C 0.00616 0.88756 0.12695 0.0
O427 O 0.0243 0.90448 0.14816 0.0
O428 O 0.02437 0.87784 0.10961 0.0
C429 C 0.05141 0.82804 0.05252 0.0
H430 H 0.13573 0.67497 0.08065 0.0
H431 H 0.23332 0.75739 0.02751 0.0
H432 H 0.17512 0.68635 0.03901 0.0
H433 H 0.116 0.79639 0.13051 0.0
H434 H 0.12839 0.83444 0.21047 0.0
H435 H 0.20051 0.7821 0.18005 0.0
H436 H 0.26684 0.9024 0.03771 0.0
H437 H 0.31254 0.90955 0.11527 0.0
H438 H 0.34839 0.02091 0.07402 0.0
H439 H 0.28495 0.90646 0.18276 0.0
H440 H 0.24737 0.94652 0.17844 0.0
H441 H 0.19727 0.93125 0.14182 0.0
H442 H 0.21772 0.73061 0.1282 0.0
H443 H 0.3154 0.71201 0.09991 0.0
H444 H 0.33971 0.83609 0.11555 0.0
Cd445 Cd 0.21295 0.07829 0.59758 0.0
C446 C 0.14986 0.10924 0.62689 0.0
C447 C 0.42865 0.25641 0.56389 0.0
O448 O 0.43932 0.28349 0.54489 0.0
Cd449 Cd 0.18412 0.04908 0.64229 0.0
C450 C 0.4446 0.2273 0.56521 0.0
C451 C 0.46482 0.16553 0.57544 0.0
C452 C 0.44018 0.17356 0.59243 0.0
N453 N 0.43196 0.20366 0.58638 0.0
C454 C 0.46939 0.22109 0.54725 0.0
C455 C 0.4795 0.18979 0.55261 0.0
Co456 Co 0.39918 0.21265 0.60924 0.0
C457 C 0.42241 0.15424 0.61767 0.0
O458 O 0.42573 0.12306 0.62696 0.0
C459 C 0.37659 0.15083 0.65294 0.0
C460 C 0.33875 0.11572 0.64814 0.0
C461 C 0.30779 0.1002 0.66694 0.0
C462 C 0.31738 0.11561 0.69236 0.0
C463 C 0.35766 0.1482 0.69879 0.0
C464 C 0.38708 0.16692 0.67844 0.0
C465 C 0.26479 0.07746 0.65767 0.0
C466 C 0.37899 0.27554 0.58246 0.0
C467 C 0.36014 0.2775 0.55887 0.0
C468 C 0.37844 0.29898 0.60365 0.0
C469 C 0.35698 0.32079 0.60237 0.0
C470 C 0.33754 0.32162 0.57944 0.0
C471 C 0.34069 0.30196 0.5568 0.0
N472 N 0.40257 0.25396 0.58371 0.0
N473 N 0.40217 0.171 0.63086 0.0
N474 N 0.34686 0.17062 0.59339 0.0
C475 C 0.34252 0.14903 0.56941 0.0
C476 C 0.32955 0.16042 0.54691 0.0
C477 C 0.34825 0.11454 0.56882 0.0
C478 C 0.32294 0.13797 0.52365 0.0
H479 H 0.32393 0.18633 0.5478 0.0
C480 C 0.32985 0.10403 0.5232 0.0
C481 C 0.34233 0.09194 0.54575 0.0
C482 C 0.30778 0.14912 0.50003 0.0
H483 H 0.3565 0.10477 0.58649 0.0
H484 H 0.32481 0.08653 0.50537 0.0
C485 C 0.34834 0.05528 0.54527 0.0
O486 O 0.30102 0.12702 0.47787 0.0
O487 O 0.30097 0.1781 0.50051 0.0
O488 O 0.36073 0.04573 0.56462 0.0
O489 O 0.34007 0.03214 0.52344 0.0
H490 H 0.29074 0.1335 0.46232 0.0
H491 H 0.34358 0.00802 0.52275 0.0
N492 N 0.36591 0.22044 0.63235 0.0
C493 C 0.38532 0.24571 0.65238 0.0
C494 C 0.36103 0.24958 0.67183 0.0
C495 C 0.31715 0.2258 0.66935 0.0
C496 C 0.29852 0.19889 0.64783 0.0
C497 C 0.32474 0.19662 0.62915 0.0
N498 N 0.44595 0.25576 0.62889 0.0
C499 C 0.43117 0.26664 0.65017 0.0
O500 O 0.4561 0.29378 0.66747 0.0
C501 C 0.31346 0.16932 0.60602 0.0
O502 O 0.23154 0.04093 0.56573 0.0
O503 O 0.21653 0.08634 0.55074 0.0
C504 C 0.48957 0.27307 0.62329 0.0
C505 C 0.50752 0.24749 0.62326 0.0
C506 C 0.54752 0.26209 0.61333 0.0
C507 C 0.57179 0.30413 0.6071 0.0
C508 C 0.55671 0.33163 0.61087 0.0
C509 C 0.515 0.31592 0.61825 0.0
O510 O 0.1672 0.10866 0.60559 0.0
O511 O 0.15267 0.09039 0.64659 0.0
O512 O 0.25858 0.08245 0.6339 0.0
O513 O 0.23456 0.06128 0.6734 0.0
O514 O 0.27465 0.15087 0.59542 0.0
C515 C 0.12643 0.97703 0.61079 0.0
O516 O 0.13802 0.97901 0.63409 0.0
O517 O 0.14556 0.00867 0.59607 0.0
C518 C 0.2253 0.05791 0.54614 0.0
H519 H 0.47275 0.1418 0.57969 0.0
H520 H 0.48037 0.23945 0.5297 0.0
H521 H 0.49872 0.18438 0.53911 0.0
H522 H 0.33174 0.1039 0.62843 0.0
H523 H 0.29265 0.10423 0.70667 0.0
H524 H 0.41747 0.19358 0.68219 0.0
H525 H 0.3624 0.26153 0.54189 0.0
H526 H 0.39626 0.30253 0.62082 0.0
H527 H 0.32123 0.33896 0.57938 0.0
H528 H 0.37524 0.2699 0.68837 0.0
H529 H 0.29761 0.22796 0.6842 0.0
H530 H 0.265 0.18006 0.64621 0.0
H531 H 0.49079 0.21651 0.63097 0.0
H532 H 0.60389 0.31613 0.60113 0.0
H533 H 0.50256 0.3367 0.62028 0.0
Cd534 Cd 0.79097 0.86437 0.39852 0.0
C535 C 0.84597 0.96726 0.38043 0.0
C536 C 0.579 0.8306 0.44024 0.0
O537 O 0.56924 0.84635 0.46016 0.0
Cd538 Cd 0.81579 0.88354 0.3524 0.0
C539 C 0.56328 0.78564 0.43808 0.0
C540 C 0.54515 0.70453 0.4267 0.0
C541 C 0.56739 0.73739 0.40943 0.0
N542 N 0.57433 0.77517 0.41596 0.0
C543 C 0.54099 0.75442 0.45639 0.0
C544 C 0.53178 0.71342 0.45041 0.0
Co545 Co 0.60595 0.81754 0.3933 0.0
C546 C 0.58384 0.73654 0.38352 0.0
O547 O 0.58059 0.70244 0.37343 0.0
C548 C 0.62493 0.77935 0.34685 0.0
C549 C 0.66319 0.78178 0.34914 0.0
C550 C 0.69272 0.79936 0.32945 0.0
C551 C 0.68051 0.80615 0.30506 0.0
C552 C 0.63991 0.79896 0.30123 0.0
C553 C 0.61223 0.78675 0.32257 0.0
C554 C 0.73651 0.82185 0.33752 0.0
C555 C 0.62657 0.90003 0.42183 0.0
C556 C 0.64633 0.92103 0.44528 0.0
C557 C 0.62522 0.92385 0.40124 0.0
C558 C 0.64644 0.96708 0.40259 0.0
C559 C 0.66734 0.98752 0.42516 0.0
C560 C 0.66549 0.96491 0.44754 0.0
N561 N 0.60393 0.85483 0.42024 0.0
N562 N 0.60191 0.77351 0.37036 0.0
N563 N 0.65868 0.82666 0.40749 0.0
C564 C 0.6634 0.80793 0.43055 0.0
C565 C 0.66777 0.8271 0.45465 0.0
C566 C 0.66394 0.77057 0.42902 0.0
C567 C 0.67129 0.80854 0.47752 0.0
H568 H 0.66843 0.85648 0.45543 0.0
C569 C 0.67129 0.77071 0.47579 0.0
C570 C 0.66816 0.75175 0.45156 0.0
C571 C 0.67532 0.82872 0.50314 0.0
H572 H 0.66115 0.75626 0.41027 0.0
H573 H 0.67421 0.75626 0.4933 0.0
C574 C 0.6698 0.71266 0.44983 0.0
O575 O 0.68018 0.81145 0.52497 0.0
O576 O 0.67435 0.8611 0.50467 0.0
O577 O 0.66529 0.69523 0.42888 0.0
O578 O 0.6766 0.69621 0.47137 0.0
H579 H 0.68303 0.82417 0.54185 0.0
H580 H 0.67811 0.67094 0.47063 0.0
N581 N 0.63833 0.85926 0.3705 0.0
C582 C 0.61815 0.8666 0.35169 0.0
C583 C 0.64171 0.89663 0.33304 0.0
C584 C 0.68569 0.91659 0.33478 0.0
C585 C 0.70513 0.90632 0.35479 0.0
C586 C 0.6796 0.87624 0.37287 0.0
N587 N 0.55845 0.81494 0.37528 0.0
C588 C 0.57238 0.84172 0.3546 0.0
O589 O 0.54678 0.84505 0.33845 0.0
C590 C 0.69171 0.85868 0.39473 0.0
O591 O 0.7806 0.80426 0.42412 0.0
O592 O 0.78155 0.85487 0.44562 0.0
C593 C 0.51514 0.78859 0.38162 0.0
C594 C 0.49769 0.7452 0.38195 0.0
C595 C 0.45837 0.71976 0.3927 0.0
C596 C 0.43397 0.73727 0.39951 0.0
C597 C 0.44828 0.77961 0.39539 0.0
C598 C 0.48954 0.80572 0.3872 0.0
O599 O 0.83805 0.94172 0.39903 0.0
O600 O 0.83404 0.95352 0.35763 0.0
O601 O 0.74378 0.82661 0.3619 0.0
O602 O 0.76471 0.84488 0.32165 0.0
O603 O 0.73114 0.87751 0.4043 0.0
C604 C 0.88267 0.86901 0.37202 0.0
O605 O 0.87459 0.87595 0.34934 0.0
O606 O 0.85837 0.86517 0.3907 0.0
C607 C 0.77947 0.81968 0.44596 0.0
H608 H 0.53819 0.67324 0.42208 0.0
H609 H 0.53147 0.76138 0.47474 0.0
H610 H 0.51455 0.68866 0.46418 0.0
H611 H 0.67195 0.77585 0.36798 0.0
H612 H 0.70331 0.81999 0.28961 0.0
H613 H 0.58204 0.78431 0.32053 0.0
H614 H 0.64499 0.90303 0.46207 0.0
H615 H 0.60598 0.90953 0.3846 0.0
H616 H 0.68354 0.02115 0.42521 0.0
H617 H 0.62688 0.9043 0.31764 0.0
H618 H 0.70467 0.9397 0.32049 0.0
H619 H 0.7387 0.92095 0.35583 0.0
H620 H 0.51428 0.73107 0.37374 0.0
H621 H 0.40219 0.71703 0.40598 0.0
H622 H 0.50146 0.83878 0.38492 0.0
Cd623 Cd 0.91688 0.79459 0.91524 0.0
C624 C 0.88623 0.85156 0.90277 0.0
C625 C 0.75055 0.57027 0.93744 0.0
O626 O 0.72368 0.5558 0.95672 0.0
Cd627 Cd 0.92346 0.85119 0.84378 0.0
C628 C 0.78291 0.55863 0.93427 0.0
C629 C 0.85072 0.5486 0.9213 0.0
C630 C 0.83953 0.57266 0.90614 0.0
N631 N 0.80664 0.57582 0.91343 0.0
C632 C 0.79227 0.53416 0.95044 0.0
C633 C 0.82661 0.52922 0.94371 0.0
Co634 Co 0.7943 0.60904 0.89348 0.0
C635 C 0.85843 0.5952 0.8818 0.0
O636 O 0.8918 0.5971 0.8715 0.0
C637 C 0.85672 0.64347 0.84985 0.0
C638 C 0.88414 0.68491 0.85582 0.0
C639 C 0.89417 0.71579 0.83731 0.0
C640 C 0.8821 0.70426 0.81141 0.0
C641 C 0.8575 0.66215 0.80428 0.0
C642 C 0.84341 0.63162 0.82397 0.0
C643 C 0.90987 0.75893 0.84604 0.0
C644 C 0.72725 0.61894 0.92311 0.0
C645 C 0.72552 0.63523 0.94774 0.0
C646 C 0.70329 0.62131 0.90288 0.0
C647 C 0.68116 0.64227 0.9063 0.0
C648 C 0.68116 0.65989 0.93028 0.0
C649 C 0.70205 0.65526 0.95159 0.0
N650 N 0.7506 0.5975 0.91937 0.0
N651 N 0.83925 0.61483 0.87098 0.0
N652 N 0.83226 0.6598 0.91225 0.0
C653 C 0.85523 0.66243 0.93522 0.0
C654 C 0.84051 0.66595 0.95955 0.0
C655 C 0.89303 0.66276 0.93335 0.0
C656 C 0.8623 0.66801 0.9823 0.0
H657 H 0.81216 0.66732 0.96058 0.0
C658 C 0.89974 0.66726 0.98026 0.0
C659 C 0.91551 0.6649 0.95582 0.0
C660 C 0.84606 0.67104 0.00812 0.0
H661 H 0.905 0.66168 0.91437 0.0
H662 H 0.91682 0.66889 0.9977 0.0
C663 C 0.9554 0.66478 0.95383 0.0
O664 O 0.86711 0.67295 0.02997 0.0
O665 O 0.81357 0.67184 0.0098 0.0
O666 O 0.9684 0.66133 0.93265 0.0
O667 O 0.97764 0.66848 0.97544 0.0
H668 H 0.85714 0.67507 0.04699 0.0
H669 H 1.00374 0.66854 0.9746 0.0
N670 N 0.78308 0.64289 0.87331 0.0
C671 C 0.75936 0.62517 0.85244 0.0
C672 C 0.75315 0.65055 0.83512 0.0
C673 C 0.77304 0.69374 0.84055 0.0
C674 C 0.79848 0.71065 0.86284 0.0
C675 C 0.80324 0.6834 0.87929 0.0
N676 N 0.7546 0.56355 0.87137 0.0
C677 C 0.74227 0.57966 0.85159 0.0
O678 O 0.71627 0.55607 0.83339 0.0
C679 C 0.83032 0.69314 0.90238 0.0
O680 O 0.97018 0.78342 0.93639 0.0
O681 O 0.92177 0.78041 0.96122 0.0
C682 C 0.73821 0.51954 0.87508 0.0
C683 C 0.76495 0.5028 0.87461 0.0
C684 C 0.75 0.46114 0.88115 0.0
C685 C 0.70744 0.43508 0.88526 0.0
C686 C 0.6796 0.44994 0.8831 0.0
C687 C 0.69501 0.49251 0.87859 0.0
O688 O 0.88693 0.84027 0.9258 0.0
O689 O 0.89413 0.83255 0.8853 0.0
O690 O 0.91105 0.76659 0.87036 0.0
O691 O 0.91512 0.78645 0.82947 0.0
O692 O 0.84679 0.73012 0.91505 0.0
C693 C 0.00603 0.88589 0.88345 0.0
O694 O 0.99228 0.88774 0.86111 0.0
O695 O 0.98333 0.85864 0.90036 0.0
C696 C 0.95565 0.78001 0.95918 0.0
H697 H 0.87686 0.54473 0.91607 0.0
H698 H 0.77409 0.51967 0.96771 0.0
H699 H 0.83452 0.51042 0.95583 0.0
H700 H 0.89431 0.69328 0.87572 0.0
H701 H 0.8899 0.72819 0.79693 0.0
H702 H 0.8222 0.59924 0.81937 0.0
H703 H 0.74172 0.63172 0.96412 0.0
H704 H 0.69989 0.60546 0.88476 0.0
H705 H 0.66273 0.67492 0.93249 0.0
H706 H 0.73394 0.63769 0.818 0.0
H707 H 0.76906 0.71414 0.82737 0.0
H708 H 0.81447 0.74377 0.86666 0.0
H709 H 0.79703 0.52168 0.86897 0.0
H710 H 0.69563 0.40235 0.88931 0.0
H711 H 0.67376 0.50453 0.87778 0.0
Cd712 Cd 0.12818 0.91669 0.40766 0.0
C713 C 0.0406 0.88057 0.39261 0.0
C714 C 0.18348 0.7527 0.44475 0.0
O715 O 0.17168 0.72882 0.46546 0.0
Cd716 Cd 0.08127 0.92167 0.33263 0.0
C717 C 0.22738 0.78429 0.44023 0.0
C718 C 0.30422 0.85119 0.42493 0.0
C719 C 0.26849 0.83726 0.40969 0.0
N720 N 0.2331 0.80454 0.41791 0.0
C721 C 0.26172 0.79657 0.45659 0.0
C722 C 0.30054 0.83027 0.4486 0.0
Co723 Co 0.18632 0.79043 0.39858 0.0
C724 C 0.26349 0.85345 0.38463 0.0
O725 O 0.29441 0.88554 0.37299 0.0
C726 C 0.21254 0.84689 0.35177 0.0
C727 C 0.19823 0.87483 0.35504 0.0
C728 C 0.18186 0.88575 0.33411 0.0
C729 C 0.18448 0.87224 0.30907 0.0
C730 C 0.20081 0.84573 0.30508 0.0
C731 C 0.21393 0.83204 0.32673 0.0
C732 C 0.15626 0.90514 0.3391 0.0
C733 C 0.11146 0.72156 0.42846 0.0
C734 C 0.08948 0.72157 0.45103 0.0
C735 C 0.09098 0.68982 0.41014 0.0
C736 C 0.04958 0.65935 0.4137 0.0
C737 C 0.02798 0.65943 0.43585 0.0
C738 C 0.04759 0.69004 0.4553 0.0
N739 N 0.15576 0.74988 0.42609 0.0
N740 N 0.22418 0.8329 0.37444 0.0
N741 N 0.17536 0.83054 0.41603 0.0
C742 C 0.19878 0.85671 0.43728 0.0
C743 C 0.18699 0.84319 0.4628 0.0
C744 C 0.23446 0.89508 0.43254 0.0
C745 C 0.21153 0.86703 0.4838 0.0
H746 H 0.15893 0.81383 0.46613 0.0
C747 C 0.24821 0.90483 0.47879 0.0
C748 C 0.25969 0.91938 0.4532 0.0
C749 C 0.19897 0.85248 0.51089 0.0
H750 H 0.2427 0.90564 0.4127 0.0
H751 H 0.26752 0.92328 0.49486 0.0
C752 C 0.2979 0.95984 0.44814 0.0
O753 O 0.22207 0.87608 0.53106 0.0
O754 O 0.16758 0.81912 0.51516 0.0
O755 O 0.30855 0.97184 0.42585 0.0
O756 O 0.32117 0.98374 0.46816 0.0
H757 H 0.21437 0.86725 0.54887 0.0
H758 H 0.34613 0.01027 0.46531 0.0
N759 N 0.13977 0.77737 0.37934 0.0
C760 C 0.1318 0.75117 0.35954 0.0
C761 C 0.09872 0.74312 0.34296 0.0
C762 C 0.07603 0.76382 0.34798 0.0
C763 C 0.08669 0.79192 0.3691 0.0
C764 C 0.12005 0.79833 0.3849 0.0
N765 N 0.19026 0.74844 0.37773 0.0
C766 C 0.16057 0.73447 0.35858 0.0
O767 O 0.15687 0.7068 0.34119 0.0
C768 C 0.13966 0.82814 0.4066 0.0
O769 O 0.18958 0.9499 0.43728 0.0
O770 O 0.13852 0.96156 0.44383 0.0
C771 C 0.21785 0.73217 0.3819 0.0
C772 C 0.26123 0.75899 0.38183 0.0
C773 C 0.28786 0.74488 0.39007 0.0
C774 C 0.27156 0.70255 0.39488 0.0
C775 C 0.22909 0.67427 0.3916 0.0
C776 C 0.20185 0.68915 0.38583 0.0
O777 O 0.05221 0.879 0.41546 0.0
O778 O 0.06868 0.89469 0.37544 0.0
O779 O 0.14684 0.909 0.36239 0.0
O780 O 0.1372 0.91053 0.32037 0.0
O781 O 0.12176 0.84826 0.41802 0.0
C782 C 0.12965 0.00432 0.37003 0.0
O783 O 0.11453 0.99201 0.3474 0.0
O784 O 0.13183 0.97963 0.38638 0.0
C785 C 0.17434 0.96839 0.45032 0.0
H786 H 0.33374 0.87725 0.41894 0.0
H787 H 0.25869 0.78124 0.47498 0.0
H788 H 0.32762 0.84043 0.46086 0.0
H789 H 0.19772 0.88617 0.37434 0.0
H790 H 0.17196 0.88068 0.29265 0.0
H791 H 0.22512 0.81031 0.32419 0.0
H792 H 0.10555 0.74558 0.46543 0.0
H793 H 0.10738 0.68682 0.39378 0.0
H794 H 0.99649 0.63394 0.43809 0.0
H795 H 0.09083 0.72201 0.32666 0.0
H796 H 0.05052 0.75844 0.33534 0.0
H797 H 0.07005 0.80853 0.37255 0.0
H798 H 0.27441 0.79053 0.37524 0.0
H799 H 0.29257 0.69119 0.39981 0.0
H800 H 0.1687 0.66762 0.38436 0.0
Cd801 Cd 0.21685 0.14045 0.90511 0.0
C802 C 0.15882 0.03568 0.88894 0.0
C803 C 0.4335 0.17585 0.93839 0.0
O804 O 0.44513 0.15995 0.95719 0.0
Cd805 Cd 0.19126 0.11765 0.86089 0.0
C806 C 0.44959 0.22089 0.93667 0.0
C807 C 0.47057 0.30282 0.9256 0.0
C808 C 0.44456 0.26971 0.90929 0.0
N809 N 0.43584 0.23141 0.91581 0.0
C810 C 0.47576 0.25235 0.95394 0.0
C811 C 0.4862 0.29373 0.94819 0.0
Co812 Co 0.40279 0.18926 0.89331 0.0
C813 C 0.42641 0.2708 0.8841 0.0
O814 O 0.43033 0.30527 0.87433 0.0
C815 C 0.38138 0.22789 0.84857 0.0
C816 C 0.34311 0.22496 0.85246 0.0
C817 C 0.3117 0.20565 0.83398 0.0
C818 C 0.32183 0.19792 0.80908 0.0
C819 C 0.36219 0.20547 0.8036 0.0
C820 C 0.39193 0.21948 0.8238 0.0
C821 C 0.26882 0.18197 0.84376 0.0
C822 C 0.38021 0.10672 0.92228 0.0
C823 C 0.36357 0.08883 0.94691 0.0
C824 C 0.3751 0.07972 0.90172 0.0
C825 C 0.35165 0.03667 0.90485 0.0
C826 C 0.33429 0.01946 0.9289 0.0
C827 C 0.3416 0.04527 0.95055 0.0
N828 N 0.40594 0.15162 0.91933 0.0
N829 N 0.40607 0.23358 0.87119 0.0
N830 N 0.35063 0.17995 0.90881 0.0
C831 C 0.34679 0.19734 0.93282 0.0
C832 C 0.33697 0.17399 0.95563 0.0
C833 C 0.35122 0.23702 0.93335 0.0
C834 C 0.33309 0.19051 0.97935 0.0
H835 H 0.33207 0.1428 0.95468 0.0
C836 C 0.33805 0.23063 0.97974 0.0
C837 C 0.3468 0.25402 0.95677 0.0
C838 C 0.32372 0.16589 0.00363 0.0
H839 H 0.35754 0.25432 0.91544 0.0
H840 H 0.33476 0.24354 0.99792 0.0
C841 C 0.35097 0.29593 0.95725 0.0
O842 O 0.32027 0.18203 0.02644 0.0
O843 O 0.31912 0.13089 0.00315 0.0
O844 O 0.36014 0.31688 0.93747 0.0
O845 O 0.34453 0.31118 0.97956 0.0
H846 H 0.31407 0.16647 0.04248 0.0
H847 H 0.34692 0.33835 0.98029 0.0
N848 N 0.3694 0.14784 0.87055 0.0
C849 C 0.38881 0.14019 0.85128 0.0
C850 C 0.36444 0.11005 0.8328 0.0
C851 C 0.32055 0.08998 0.8354 0.0
C852 C 0.30196 0.10039 0.85597 0.0
C853 C 0.32823 0.13072 0.87374 0.0
N854 N 0.44951 0.19198 0.8741 0.0
C855 C 0.43468 0.16479 0.85357 0.0
O856 O 0.45959 0.16137 0.8368 0.0
C857 C 0.31703 0.14789 0.89635 0.0
O858 O 0.2266 0.19987 0.93137 0.0
O859 O 0.22687 0.14989 0.95255 0.0
C860 C 0.49315 0.2192 0.87928 0.0
C861 C 0.51085 0.26259 0.87705 0.0
C862 C 0.55116 0.28941 0.88615 0.0
C863 C 0.57555 0.27267 0.89433 0.0
C864 C 0.5605 0.22976 0.89323 0.0
C865 C 0.51878 0.20275 0.88629 0.0
O866 O 0.16692 0.06277 0.90671 0.0
O867 O 0.17273 0.04775 0.86622 0.0
O868 O 0.26335 0.181 0.86835 0.0
O869 O 0.2407 0.15455 0.82951 0.0
O870 O 0.27812 0.12838 0.90688 0.0
C871 C 0.12483 0.13419 0.8779 0.0
O872 O 0.132 0.12448 0.8557 0.0
O873 O 0.14981 0.14009 0.89654 0.0
C874 C 0.22795 0.18463 0.95313 0.0
H875 H 0.47902 0.3345 0.92094 0.0
H876 H 0.48766 0.24536 0.97124 0.0
H877 H 0.50654 0.31871 0.96113 0.0
H878 H 0.33601 0.23134 0.87177 0.0
H879 H 0.29756 0.18275 0.79458 0.0
H880 H 0.42191 0.22182 0.82069 0.0
H881 H 0.36867 0.10871 0.96355 0.0
H882 H 0.39114 0.09123 0.88365 0.0
H883 H 0.3176 0.98594 0.93085 0.0
H884 H 0.37859 0.10226 0.81697 0.0
H885 H 0.30096 0.06665 0.82133 0.0
H886 H 0.26845 0.08558 0.85768 0.0
H887 H 0.49361 0.2756 0.86828 0.0
H888 H 0.60773 0.2936 0.89978 0.0
H889 H 0.50642 0.16942 0.88616 0.0
Cd890 Cd 0.08201 0.21178 0.40542 0.0
C891 C 0.12423 0.1516 0.38322 0.0
C892 C 0.25863 0.4307 0.4423 0.0
O893 O 0.2853 0.44223 0.46165 0.0
Cd894 Cd 0.07374 0.18845 0.36044 0.0
C895 C 0.22915 0.4461 0.44007 0.0
C896 C 0.16652 0.46454 0.4284 0.0
C897 C 0.17554 0.44002 0.41196 0.0
N898 N 0.206 0.43266 0.4187 0.0
C899 C 0.22191 0.47079 0.45753 0.0
C900 C 0.19018 0.48001 0.45145 0.0
Co901 Co 0.21636 0.40005 0.39652 0.0
C902 C 0.15733 0.42195 0.38652 0.0
O903 O 0.12639 0.4249 0.37639 0.0
C904 C 0.15787 0.37848 0.35085 0.0
C905 C 0.12322 0.33973 0.35428 0.0
C906 C 0.1117 0.30918 0.33532 0.0
C907 C 0.12948 0.32035 0.3105 0.0
C908 C 0.16151 0.3612 0.30551 0.0
C909 C 0.17683 0.39027 0.32615 0.0
C910 C 0.09213 0.26605 0.34433 0.0
C911 C 0.27647 0.37869 0.42642 0.0
C912 C 0.27699 0.36162 0.45101 0.0
C913 C 0.29962 0.37468 0.40622 0.0
C914 C 0.31992 0.35192 0.40964 0.0
C915 C 0.31902 0.33407 0.43361 0.0
C916 C 0.299 0.34014 0.45494 0.0
N917 N 0.25658 0.4037 0.42319 0.0
N918 N 0.17567 0.40285 0.37376 0.0
N919 N 0.17341 0.34772 0.41167 0.0
C920 C 0.1502 0.34373 0.43482 0.0
C921 C 0.16387 0.33737 0.45872 0.0
C922 C 0.11335 0.34529 0.43352 0.0
C923 C 0.14183 0.33403 0.48165 0.0
H924 H 0.19161 0.3349 0.45926 0.0
C925 C 0.10491 0.33586 0.48015 0.0
C926 C 0.09025 0.34119 0.4561 0.0
C927 C 0.15728 0.32861 0.50711 0.0
H928 H 0.10257 0.34948 0.4149 0.0
H929 H 0.08746 0.33291 0.4977 0.0
C930 C 0.05086 0.34233 0.45457 0.0
O931 O 0.13583 0.32517 0.5291 0.0
O932 O 0.1895 0.32723 0.50835 0.0
O933 O 0.03879 0.34816 0.43374 0.0
O934 O 0.02797 0.33681 0.47619 0.0
H935 H 0.14526 0.32148 0.54588 0.0
H936 H 1.00213 0.3373 0.47562 0.0
N937 N 0.22554 0.3669 0.37413 0.0
C938 C 0.25268 0.38641 0.35498 0.0
C939 C 0.25871 0.36223 0.33645 0.0
C940 C 0.23505 0.31838 0.33888 0.0
C941 C 0.20614 0.29964 0.35943 0.0
C942 C 0.20181 0.32575 0.37725 0.0
N943 N 0.26057 0.44689 0.37762 0.0
C944 C 0.27344 0.43219 0.35725 0.0
O945 O 0.30181 0.45717 0.34058 0.0
C946 C 0.1728 0.31432 0.3995 0.0
O947 O 0.03366 0.22174 0.43283 0.0
O948 O 0.08378 0.2199 0.45305 0.0
C949 C 0.27666 0.49047 0.3827 0.0
C950 C 0.25033 0.50755 0.38121 0.0
C951 C 0.26379 0.54787 0.39018 0.0
C952 C 0.30541 0.57303 0.39723 0.0
C953 C 0.33368 0.55857 0.39521 0.0
C954 C 0.31913 0.51678 0.38861 0.0
O955 O 0.11091 0.16206 0.40317 0.0
O956 O 0.11931 0.16259 0.36088 0.0
O957 O 0.08941 0.25979 0.36889 0.0
O958 O 0.08819 0.23771 0.32895 0.0
O959 O 0.1535 0.27545 0.40996 0.0
C960 C 0.98903 0.12767 0.37964 0.0
O961 O 1.00405 0.13744 0.35702 0.0
O962 O 0.01128 0.14767 0.39912 0.0
C963 C 0.05068 0.22206 0.45427 0.0
H964 H 0.14253 0.47188 0.42357 0.0
H965 H 0.23978 0.48232 0.47527 0.0
H966 H 0.18398 0.49914 0.46455 0.0
H967 H 0.10947 0.33171 0.37344 0.0
H968 H 0.12065 0.29672 0.29557 0.0
H969 H 0.20378 0.4208 0.32333 0.0
H970 H 0.26126 0.36593 0.46742 0.0
H971 H 0.30446 0.39099 0.38825 0.0
H972 H 0.33626 0.31782 0.4358 0.0
H973 H 0.28065 0.37651 0.32067 0.0
H974 H 0.2389 0.29893 0.32473 0.0
H975 H 0.18754 0.26614 0.36102 0.0
H976 H 0.21973 0.48997 0.37297 0.0
H977 H 0.31653 0.60523 0.40258 0.0
H978 H 0.34052 0.50492 0.38787 0.0
Cd979 Cd 0.88027 0.08961 0.9105 0.0
C980 C 0.96822 0.12688 0.89746 0.0
C981 C 0.83171 0.25958 0.9395 0.0
O982 O 0.84615 0.28669 0.95866 0.0
Cd983 Cd 0.9308 0.08917 0.83785 0.0
C984 C 0.78732 0.22774 0.93776 0.0
C985 C 0.70797 0.16052 0.92721 0.0
C986 C 0.74166 0.17111 0.91057 0.0
N987 N 0.7785 0.2039 0.91669 0.0
C988 C 0.75517 0.21895 0.95538 0.0
C989 C 0.71508 0.18499 0.94983 0.0
Co990 Co 0.82198 0.21539 0.89478 0.0
C991 C 0.74267 0.15185 0.88567 0.0
O992 O 0.70997 0.11871 0.87619 0.0
C993 C 0.78899 0.15274 0.8511 0.0
C994 C 0.80208 0.12414 0.85541 0.0
C995 C 0.8205 0.11329 0.83552 0.0
C996 C 0.8193 0.12602 0.81003 0.0
C997 C 0.80291 0.15226 0.80477 0.0
C998 C 0.78898 0.16681 0.8257 0.0
C999 C 0.84826 0.09704 0.8426 0.0
C1000 C 0.90206 0.28265 0.92178 0.0
C1001 C 0.923 0.28542 0.94542 0.0
C1002 C 0.92575 0.3061 0.90058 0.0
C1003 C 0.96904 0.32824 0.9018 0.0
C1004 C 0.98954 0.3294 0.9247 0.0
C1005 C 0.96692 0.30998 0.9474 0.0
N1006 N 0.85695 0.25903 0.92008 0.0
N1007 N 0.78035 0.17056 0.87328 0.0
N1008 N 0.83544 0.17705 0.91202 0.0
C1009 C 0.8163 0.15362 0.93504 0.0
C1010 C 0.83523 0.16832 0.95919 0.0
C1011 C 0.77965 0.1151 0.93329 0.0
C1012 C 0.81719 0.14531 0.98189 0.0
H1013 H 0.8642 0.19753 0.9601 0.0
C1014 C 0.77986 0.10701 0.97997 0.0
C1015 C 0.76101 0.09148 0.95569 0.0
C1016 C 0.83749 0.16096 0.0075 0.0
H1017 H 0.76594 0.10336 0.91443 0.0
H1018 H 0.76573 0.08901 0.99736 0.0
C1019 C 0.72235 0.05039 0.95373 0.0
O1020 O 0.82039 0.13836 0.02922 0.0
O1021 O 0.86988 0.19431 0.00913 0.0
O1022 O 0.70487 0.03786 0.93279 0.0
O1023 O 0.7063 0.02644 0.97506 0.0
H1024 H 0.83326 0.14786 0.04608 0.0
H1025 H 0.68129 0.99946 0.97417 0.0
N1026 N 0.86492 0.22564 0.87266 0.0
C1027 C 0.86932 0.2491 0.85198 0.0
C1028 C 0.89893 0.25436 0.83322 0.0
C1029 C 0.92182 0.2336 0.837 0.0
C1030 C 0.91487 0.20832 0.85913 0.0
C1031 C 0.8849 0.20467 0.87711 0.0
N1032 N 0.81517 0.2554 0.87385 0.0
C1033 C 0.84154 0.26694 0.8529 0.0
O1034 O 0.84272 0.29293 0.83517 0.0
C1035 C 0.8692 0.17795 0.9004 0.0
O1036 O 0.8165 0.03645 0.93289 0.0
O1037 O 0.86414 0.08438 0.95682 0.0
C1038 C 0.78892 0.27278 0.87956 0.0
C1039 C 0.74557 0.24671 0.88154 0.0
C1040 C 0.72051 0.26222 0.8908 0.0
C1041 C 0.73825 0.30499 0.89494 0.0
C1042 C 0.78039 0.33235 0.88961 0.0
C1043 C 0.80613 0.31615 0.88258 0.0
O1044 O 0.95527 0.12434 0.92047 0.0
O1045 O 0.94127 0.11735 0.87983 0.0
O1046 O 0.85617 0.09555 0.86658 0.0
O1047 O 0.87028 0.09293 0.82515 0.0
O1048 O 0.88999 0.16077 0.91162 0.0
C1049 C 0.89422 0.00712 0.87798 0.0
O1050 O 0.90761 0.0212 0.85527 0.0
O1051 O 0.88676 0.02813 0.89479 0.0
C1052 C 0.82944 0.05091 0.95551 0.0
H1053 H 0.67736 0.13459 0.92291 0.0
H1054 H 0.76074 0.23729 0.97286 0.0
H1055 H 0.68962 0.17755 0.96308 0.0
H1056 H 0.80188 0.11384 0.87505 0.0
H1057 H 0.83352 0.11773 0.79443 0.0
H1058 H 0.77877 0.18912 0.82239 0.0
H1059 H 0.90492 0.26982 0.96246 0.0
H1060 H 0.91113 0.30898 0.88335 0.0
H1061 H 0.0232 0.34679 0.92467 0.0
H1062 H 0.90408 0.27345 0.81623 0.0
H1063 H 0.94461 0.23676 0.82267 0.0
H1064 H 0.93158 0.19161 0.86169 0.0
H1065 H 0.73117 0.21465 0.87561 0.0
H1066 H 0.71832 0.31743 0.90042 0.0
H1067 H 0.83905 0.33698 0.87927 0.0
C1068 C 0.21525 0.60761 0.13573 0.0
C1069 C 0.21689 0.58782 0.11279 0.0
H1070 H 0.22807 0.66536 0.15331 0.0
C1071 C 0.22179 0.60792 0.0889 0.0
H1072 H 0.21232 0.59297 0.1544 0.0
C1073 C 0.23097 0.64928 0.08829 0.0
C1074 C 0.23534 0.67098 0.11156 0.0
H1075 H 0.22386 0.59351 0.07104 0.0
H1076 H 0.2394 0.66568 0.06992 0.0
C1077 C 0.22446 0.6491 0.13513 0.0
C1078 C 0.57795 0.22185 0.63297 0.0
C1079 C 0.56639 0.23537 0.61071 0.0
H1080 H 0.62197 0.2069 0.64932 0.0
C1081 C 0.58238 0.23282 0.58644 0.0
H1082 H 0.56616 0.22383 0.65188 0.0
C1083 C 0.61394 0.2228 0.58493 0.0
C1084 C 0.63003 0.21548 0.60771 0.0
H1085 H 0.57383 0.24314 0.56903 0.0
H1086 H 0.62949 0.22629 0.56648 0.0
C1087 C 0.60966 0.21184 0.63145 0.0
C1088 C 0.3537 0.57718 0.09138 0.0
C1089 C 0.33473 0.56311 0.11574 0.0
H1090 H 0.40732 0.62323 0.07096 0.0
C1091 C 0.35926 0.57741 0.13825 0.0
H1092 H 0.33517 0.56686 0.0738 0.0
C1093 C 0.40077 0.60959 0.1366 0.0
C1094 C 0.41788 0.62779 0.11245 0.0
H1095 H 0.34507 0.56738 0.15724 0.0
H1096 H 0.4175 0.62383 0.1544 0.0
C1097 C 0.39506 0.6093 0.08974 0.0
C1098 C 0.7845 0.35737 0.63341 0.0
C1099 C 0.77183 0.33387 0.61041 0.0
H1100 H 0.79827 0.4149 0.6516 0.0
C1101 C 0.77507 0.35401 0.58674 0.0
H1102 H 0.78199 0.34235 0.65188 0.0
C1103 C 0.78463 0.39548 0.58655 0.0
C1104 C 0.7909 0.41715 0.61004 0.0
H1105 H 0.76545 0.33636 0.56877 0.0
H1106 H 0.78153 0.40869 0.56851 0.0
C1107 C 0.7941 0.39898 0.63321 0.0
C1108 C 0.39237 0.77989 0.08325 0.0
C1109 C 0.3773 0.78863 0.10606 0.0
H1110 H 0.43215 0.75903 0.06725 0.0
C1111 C 0.39895 0.79409 0.12947 0.0
H1112 H 0.37584 0.775 0.06506 0.0
C1113 C 0.43103 0.7846 0.13078 0.0
C1114 C 0.44172 0.76978 0.10864 0.0
H1115 H 0.38745 0.80016 0.14738 0.0
H1116 H 0.44379 0.78397 0.14959 0.0
C1117 C 0.42437 0.77046 0.08454 0.0
C1118 C 0.64661 0.42768 0.63549 0.0
C1119 C 0.67139 0.43935 0.61305 0.0
H1120 H 0.58775 0.38373 0.65204 0.0
C1121 C 0.6525 0.42405 0.5888 0.0
H1122 H 0.66069 0.43902 0.65438 0.0
C1123 C 0.61078 0.39287 0.58741 0.0
C1124 C 0.5877 0.37641 0.6103 0.0
H1125 H 0.67117 0.43278 0.57125 0.0
H1126 H 0.59842 0.3777 0.5689 0.0
C1127 C 0.60477 0.39632 0.6341 0.0
C1128 C 0.3932 0.78577 0.41874 0.0
C1129 C 0.41676 0.79281 0.396 0.0
H1130 H 0.33253 0.76534 0.43451 0.0
C1131 C 0.40024 0.79629 0.37218 0.0
H1132 H 0.40514 0.7825 0.43725 0.0
C1133 C 0.35847 0.78606 0.37056 0.0
C1134 C 0.33323 0.77267 0.3928 0.0
H1135 H 0.41765 0.8011 0.35435 0.0
H1136 H 0.3448 0.78369 0.3516 0.0
C1137 C 0.35159 0.77564 0.41713 0.0
C1138 C 0.61452 0.39822 0.86142 0.0
C1139 C 0.63485 0.41868 0.88448 0.0
H1140 H 0.57051 0.33996 0.84393 0.0
C1141 C 0.61871 0.39899 0.90837 0.0
H1142 H 0.62702 0.41249 0.84275 0.0
C1143 C 0.58674 0.35751 0.90903 0.0
C1144 C 0.57039 0.33524 0.8858 0.0
H1145 H 0.63438 0.41383 0.92634 0.0
H1146 H 0.57809 0.34151 0.92754 0.0
C1147 C 0.58237 0.35663 0.86208 0.0
C1148 C 0.22573 0.57853 0.368 0.0
C1149 C 0.23639 0.56614 0.3911 0.0
H1150 H 0.21287 0.62313 0.35028 0.0
C1151 C 0.23104 0.58142 0.41494 0.0
H1152 H 0.23008 0.56744 0.34941 0.0
C1153 C 0.22095 0.61298 0.41546 0.0
C1154 C 0.21624 0.62969 0.39214 0.0
H1155 H 0.23936 0.5724 0.43296 0.0
H1156 H 0.22227 0.62795 0.43383 0.0
C1157 C 0.21561 0.61021 0.36853 0.0
C1158 C 0.65691 0.23667 0.91792 0.0
C1159 C 0.675 0.23561 0.89414 0.0
H1160 H 0.60366 0.23321 0.9366 0.0
C1161 C 0.64943 0.21848 0.87225 0.0
H1162 H 0.67613 0.24963 0.93507 0.0
C1163 C 0.60774 0.20871 0.87319 0.0
C1164 C 0.59156 0.21621 0.89599 0.0
H1165 H 0.66281 0.21751 0.8537 0.0
H1166 H 0.59017 0.20101 0.85524 0.0
C1167 C 0.61534 0.22687 0.91887 0.0
C1168 C 0.42341 0.6552 0.41905 0.0
C1169 C 0.44013 0.67425 0.39506 0.0
H1170 H 0.37636 0.6007 0.43814 0.0
C1171 C 0.43052 0.64949 0.37265 0.0
H1172 H 0.43072 0.67378 0.4366 0.0
C1173 C 0.39965 0.60746 0.3736 0.0
C1174 C 0.37822 0.59013 0.39693 0.0
H1175 H 0.44305 0.6636 0.35396 0.0
H1176 H 0.3886 0.59034 0.35552 0.0
C1177 C 0.39272 0.61328 0.42 0.0
C1178 C 0.79555 0.39464 0.86389 0.0
C1179 C 0.79392 0.37714 0.88836 0.0
H1180 H 0.78316 0.43675 0.84234 0.0
C1181 C 0.78984 0.39668 0.91068 0.0
H1182 H 0.79784 0.3796 0.84639 0.0
C1183 C 0.78148 0.42929 0.90834 0.0
C1184 C 0.77717 0.44281 0.88369 0.0
H1185 H 0.78779 0.3833 0.92969 0.0
H1186 H 0.77334 0.44039 0.92564 0.0
C1187 C 0.78701 0.42726 0.86155 0.0
C1188 C 0.20379 0.35053 0.2722 0.0
C1189 C 0.18125 0.37006 0.27948 0.0
H1190 H 0.22735 0.33006 0.24094 0.0
C1191 C 0.16977 0.38922 0.26023 0.0
H1192 H 0.21218 0.33477 0.28657 0.0
C1193 C 0.1782 0.38627 0.23388 0.0
C1194 C 0.19791 0.36381 0.22654 0.0
H1195 H 0.15155 0.40365 0.26536 0.0
H1196 H 0.16647 0.39866 0.21921 0.0
C1197 C 0.21213 0.34754 0.24605 0.0
C1198 C 0.82556 0.20893 0.77116 0.0
C1199 C 0.80431 0.16639 0.77755 0.0
H1200 H 0.85488 0.25431 0.74079 0.0
C1201 C 0.79005 0.13692 0.75733 0.0
H1202 H 0.83724 0.2323 0.78635 0.0
C1203 C 0.79987 0.14947 0.73149 0.0
C1204 C 0.82391 0.19178 0.72519 0.0
H1205 H 0.7736 0.10395 0.76167 0.0
H1206 H 0.79148 0.12593 0.71663 0.0
C1207 C 0.83549 0.22153 0.74512 0.0
C1208 C 0.64825 0.85254 0.26933 0.0
C1209 C 0.63024 0.8103 0.27567 0.0
H1210 H 0.66777 0.8979 0.23906 0.0
C1211 C 0.61262 0.78043 0.25576 0.0
H1212 H 0.66314 0.87614 0.28417 0.0
C1213 C 0.6156 0.79289 0.2297 0.0
C1214 C 0.63667 0.8354 0.2233 0.0
H1215 H 0.59952 0.74771 0.26015 0.0
H1216 H 0.60453 0.7695 0.21452 0.0
C1217 C 0.65127 0.86495 0.24347 0.0
C1218 C 0.8033 0.62693 0.76897 0.0
C1219 C 0.84519 0.65214 0.77645 0.0
H1220 H 0.75885 0.60794 0.73767 0.0
C1221 C 0.87523 0.673 0.75701 0.0
H1222 H 0.77941 0.61071 0.7835 0.0
C1223 C 0.86349 0.67178 0.73113 0.0
C1224 C 0.82144 0.64917 0.72388 0.0
H1225 H 0.9078 0.69226 0.76207 0.0
H1226 H 0.88714 0.69034 0.71695 0.0
C1227 C 0.79153 0.62541 0.7428 0.0
C1228 C 0.21315 0.85149 0.23253 0.0
C1229 C 0.18245 0.81135 0.22503 0.0
H1230 H 0.24383 0.8935 0.26415 0.0
C1231 C 0.16338 0.78046 0.24415 0.0
H1232 H 0.22742 0.87605 0.21825 0.0
C1233 C 0.17275 0.79045 0.27057 0.0
C1234 C 0.20106 0.83154 0.27812 0.0
H1235 H 0.1389 0.74954 0.23883 0.0
H1236 H 0.15524 0.76707 0.28512 0.0
C1237 C 0.22241 0.86147 0.2588 0.0
C1238 C 0.39215 0.21998 0.7583 0.0
C1239 C 0.36947 0.19149 0.77807 0.0
H1240 H 0.40617 0.22902 0.71747 0.0
C1241 C 0.34745 0.14898 0.77209 0.0
H1242 H 0.40895 0.25304 0.76242 0.0
C1243 C 0.34656 0.13512 0.74677 0.0
C1244 C 0.36634 0.16351 0.72633 0.0
H1245 H 0.32905 0.12646 0.78678 0.0
H1246 H 0.32857 0.10199 0.74304 0.0
C1247 C 0.39053 0.20614 0.73257 0.0
C1248 C 0.20608 0.22851 0.9778 0.0
C1249 C 0.22391 0.20283 0.97787 0.0
H1250 H 0.17597 0.25468 1.00012 0.0
C1251 C 0.23171 0.18995 0.00183 0.0
H1252 H 0.19947 0.23883 0.95968 0.0
C1253 C 0.2196 0.20045 0.02516 0.0
C1254 C 0.19819 0.22278 0.02481 0.0
H1255 H 0.24517 0.16996 0.00246 0.0
H1256 H 0.22402 0.18826 0.04323 0.0
C1257 C 0.19263 0.23769 1.00098 0.0
C1258 C 0.98636 0.20096 0.48041 0.0
C1259 C 0.02994 0.21937 0.47938 0.0
H1260 H 0.93192 0.17393 0.50448 0.0
C1261 C 0.05252 0.23033 0.50275 0.0
H1262 H 0.96804 0.19179 0.46273 0.0
C1263 C 0.03182 0.2217 0.52669 0.0
C1264 C 0.98807 0.20041 0.52768 0.0
H1265 H 0.08604 0.24415 0.50252 0.0
H1266 H 0.04997 0.22911 0.54439 0.0
C1267 C 0.96562 0.1908 0.50431 0.0
C1268 C 0.77312 0.96003 1.00107 0.0
C1269 C 0.78668 0.97951 0.0254 0.0
H1270 H 0.77451 0.96762 0.95974 0.0
C1271 C 0.80864 0.02317 0.02663 0.0
H1272 H 0.75628 0.92643 0.99954 0.0
C1273 C 0.82027 0.0467 0.00379 0.0
C1274 C 0.80899 0.02712 0.97935 0.0
H1275 H 0.81977 0.03908 0.04507 0.0
H1276 H 0.84006 0.08012 0.00523 0.0
C1277 C 0.78355 0.98365 0.97827 0.0
C1278 C 0.77105 0.81249 0.49423 0.0
C1279 C 0.78103 0.80032 0.47068 0.0
H1280 H 0.77282 0.81116 0.53577 0.0
C1281 C 0.79765 0.77361 0.47129 0.0
H1282 H 0.75861 0.83338 0.49436 0.0
C1283 C 0.80737 0.76224 0.49502 0.0
C1284 C 0.7991 0.77595 0.51856 0.0
H1285 H 0.80601 0.76399 0.45345 0.0
H1286 H 0.82328 0.74451 0.49492 0.0
C1287 C 0.77915 0.79967 0.51795 0.0
C1288 C 0.02395 0.80523 0.9814 0.0
C1289 C 0.98023 0.78294 0.98252 0.0
H1290 H 0.08089 0.83787 0.00287 0.0
C1291 C 0.96071 0.77002 0.00685 0.0
H1292 H 0.0399 0.81589 0.96295 0.0
C1293 C 0.98432 0.78144 0.0297 0.0
C1294 C 0.02781 0.80723 0.02866 0.0
H1295 H 0.92709 0.75306 0.00829 0.0
H1296 H 0.96824 0.77285 0.04821 0.0
C1297 C 0.04747 0.8179 0.00427 0.0
C1298 C 0.21713 0.98632 0.49103 0.0
C1299 C 0.19597 0.9963 0.47241 0.0
H1300 H 0.24343 0.9983 0.52936 0.0
C1301 C 0.19076 0.03079 0.47665 0.0
H1302 H 0.22115 0.95971 0.48824 0.0
C1303 C 0.20384 0.05318 0.49985 0.0
C1304 C 0.22158 0.04096 0.51958 0.0
H1305 H 0.17485 0.03936 0.46243 0.0
H1306 H 0.19745 0.07834 0.50295 0.0
C1307 C 0.22963 0.00832 0.51457 0.0
C1308 C 0.69788 0.70587 0.98278 0.0
C1309 C 0.69547 0.66734 0.9781 0.0
H1310 H 0.68981 0.74509 0.01002 0.0
C1311 C 0.68268 0.63842 0.99842 0.0
H1312 H 0.70773 0.72886 0.96747 0.0
C1313 C 0.67115 0.64706 0.02251 0.0
C1314 C 0.67296 0.6854 0.02738 0.0
H1315 H 0.67965 0.60814 0.9953 0.0
H1316 H 0.65931 0.6227 0.03697 0.0
C1317 C 0.68716 0.71496 0.00717 0.0
C1318 C 0.98133 0.66547 0.48167 0.0
C1319 C 0.02523 0.68631 0.48056 0.0
H1320 H 0.92658 0.63645 0.50503 0.0
C1321 C 0.0471 0.70007 0.50421 0.0
H1322 H 0.96287 0.6557 0.46409 0.0
C1323 C 0.02589 0.69097 0.52804 0.0
C1324 C 0.98204 0.66656 0.52924 0.0
H1325 H 0.08076 0.7163 0.50464 0.0
H1326 H 0.04432 0.70217 0.54557 0.0
C1327 C 0.96017 0.65514 0.5055 0.0
C1328 C 0.29232 0.99102 0.98253 0.0
C1329 C 0.33091 0.0267 0.97715 0.0
H1330 H 0.25436 0.94424 0.01031 0.0
C1331 C 0.36129 0.04233 0.99672 0.0
H1332 H 0.26822 0.97816 0.96782 0.0
C1333 C 0.35392 0.0223 0.02074 0.0
C1334 C 0.31547 0.98635 0.02633 0.0
H1335 H 0.39169 0.0691 0.99306 0.0
H1336 H 0.37929 0.03449 0.03456 0.0
C1337 C 0.28456 0.97131 0.00687 0.0
C1338 C 0.30209 0.28937 0.48636 0.0
C1339 C 0.30519 0.32814 0.48156 0.0
H1340 H 0.30914 0.25 0.51381 0.0
C1341 C 0.31821 0.35726 0.5019 0.0
H1342 H 0.29204 0.26617 0.47109 0.0
C1343 C 0.32915 0.34849 0.52612 0.0
C1344 C 0.32662 0.30988 0.53106 0.0
H1345 H 0.32183 0.38774 0.49875 0.0
H1346 H 0.34107 0.37289 0.54064 0.0
C1347 C 0.31231 0.28024 0.51083 0.0
C1348 C 0.99302 0.29854 0.01795 0.0
C1349 C 0.02889 0.3373 0.02255 0.0
H1350 H 0.94635 0.25863 0.99066 0.0
C1351 C 0.04524 0.36587 0.00206 0.0
H1352 H 0.97975 0.27579 0.03339 0.0
C1353 C 0.02546 0.35669 0.97785 0.0
C1354 C 0.9891 0.31815 0.97309 0.0
H1355 H 0.07233 0.3963 0.00509 0.0
H1356 H 0.03808 0.38078 0.96322 0.0
C1357 C 0.97362 0.2889 0.99347 0.0
C1358 C 0.6901 0.04344 0.50256 0.0
C1359 C 0.70346 0.02744 0.52265 0.0
H1360 H 0.66605 0.03583 0.46421 0.0
C1361 C 0.70604 0.99147 0.51769 0.0
H1362 H 0.68679 0.07048 0.50588 0.0
C1363 C 0.6951 0.97179 0.49324 0.0
C1364 C 0.68045 0.98709 0.47325 0.0
H1365 H 0.71621 0.97834 0.53282 0.0
H1366 H 0.69795 0.94447 0.49017 0.0
C1367 C 0.67833 0.02339 0.47843 0.0
C1368 C 0.1255 0.03409 0.0927 0.0
C1369 C 0.14041 0.0197 0.11299 0.0
H1370 H 0.10803 0.0787 0.08084 0.0
C1371 C 0.15425 0.04315 0.13605 0.0
H1372 H 0.11485 0.01687 0.07464 0.0
C1373 C 0.14957 0.07781 0.13971 0.0
C1374 C 0.13198 0.09042 0.12017 0.0
H1375 H 0.16627 0.03329 0.15201 0.0
H1376 H 0.1582 0.09384 0.15826 0.0
C1377 C 0.12167 0.06948 0.09619 0.0
C1378 C 0.10532 0.13378 0.60551 0.0
C1379 C 0.12161 0.12641 0.62822 0.0
H1380 H 0.05672 0.14183 0.58909 0.0
C1381 C 0.10569 0.12923 0.65247 0.0
H1382 H 0.11719 0.13211 0.58656 0.0
C1383 C 0.07107 0.13438 0.6539 0.0
C1384 C 0.05199 0.13729 0.63112 0.0
H1385 H 0.11815 0.12459 0.67037 0.0
H1386 H 0.05776 0.13359 0.6728 0.0
C1387 C 0.07071 0.13933 0.60696 0.0
C1388 C 0.94721 0.0654 0.14156 0.0
C1389 C 0.92331 0.03818 0.12148 0.0
H1390 H 0.99996 0.12358 0.15192 0.0
C1391 C 0.93458 0.05066 0.09556 0.0
H1392 H 0.93904 0.05706 0.16175 0.0
C1393 C 0.97024 0.08875 0.08993 0.0
C1394 C 0.99503 0.11514 0.11011 0.0
H1395 H 0.91674 0.03042 0.07965 0.0
H1396 H 0.97893 0.097 0.06979 0.0
C1397 C 0.9824 0.10353 0.13593 0.0
C1398 C 0.91437 0.992 0.59751 0.0
C1399 C 0.87908 0.99341 0.60609 0.0
H1400 H 0.94424 0.95548 0.5941 0.0
C1401 C 0.84437 0.95677 0.61523 0.0
H1402 H 0.94176 0.01975 0.5906 0.0
C1403 C 0.84571 0.91983 0.61682 0.0
C1404 C 0.88214 0.91953 0.60995 0.0
H1405 H 0.81689 0.9571 0.62208 0.0
H1406 H 0.81914 0.89213 0.62454 0.0
C1407 C 0.91607 0.95547 0.59978 0.0
C1408 C 0.90255 0.88234 0.1371 0.0
C1409 C 0.88762 0.87783 0.11154 0.0
H1410 H 0.95165 0.88914 0.16202 0.0
C1411 C 0.9105 0.87321 0.09127 0.0
H1412 H 0.88541 0.885 0.15325 0.0
C1413 C 0.94829 0.87477 0.09637 0.0
C1414 C 0.9642 0.88146 0.1218 0.0
H1415 H 0.89967 0.86925 0.07137 0.0
H1416 H 0.96567 0.87213 0.08024 0.0
C1417 C 0.94056 0.88452 0.14216 0.0
C1418 C 0.02314 0.90531 0.5789 0.0
C1419 C 0.01183 0.86769 0.59174 0.0
H1420 H 0.06903 0.96988 0.57476 0.0
C1421 C 0.04137 0.86522 0.60758 0.0
H1422 H 1.00115 0.9082 0.56651 0.0
C1423 C 0.07962 0.90054 0.61264 0.0
C1424 C 0.08957 0.93883 0.60151 0.0
H1425 H 0.03395 0.83663 0.6175 0.0
H1426 H 0.10075 0.89824 0.62616 0.0
C1427 C 0.06192 0.94063 0.58365 0.0
C1428 C 0.93191 0.86288 0.40247 0.0
C1429 C 0.92116 0.86763 0.37704 0.0
H1430 H 0.97817 0.863 0.42734 0.0
C1431 C 0.94859 0.87322 0.35657 0.0
H1432 H 0.91131 0.85825 0.41865 0.0
C1433 C 0.98676 0.8758 0.36156 0.0
C1434 C 0.99836 0.873 0.3871 0.0
H1435 H 0.94109 0.87662 0.33672 0.0
H1436 H 0.00748 0.8809 0.34541 0.0
C1437 C 0.97018 0.86553 0.40745 0.0
C1438 C 0.1183 0.96326 0.87224 0.0
C1439 C 0.12616 0.9917 0.89253 0.0
H1440 H 0.0734 0.90703 0.85353 0.0
C1441 C 0.09725 0.97998 0.91303 0.0
H1442 H 0.14016 0.97099 0.85635 0.0
C1443 C 0.05903 0.9427 0.91155 0.0
C1444 C 0.04939 0.91715 0.88949 0.0
H1445 H 0.10243 1.00117 0.92897 0.0
H1446 H 0.03568 0.93592 0.92635 0.0
C1447 C 0.08007 0.9266 0.87058 0.0
C1448 C 0.15813 0.11553 0.36277 0.0
C1449 C 0.13849 0.12089 0.38465 0.0
H1450 H 0.17072 0.07384 0.34106 0.0
C1451 C 0.12494 0.09121 0.40466 0.0
H1452 H 0.16956 0.13818 0.34721 0.0
C1453 C 0.12631 0.05438 0.40125 0.0
C1454 C 0.14085 0.04692 0.37771 0.0
H1455 H 0.10972 0.09453 0.42175 0.0
H1456 H 0.11225 0.03019 0.41581 0.0
C1457 C 0.15886 0.07871 0.35921 0.0
C1458 C 0.07359 0.13692 0.90822 0.0
C1459 C 0.0865 0.13604 0.88265 0.0
H1460 H 0.02606 0.13454 0.93289 0.0
C1461 C 0.06134 0.13475 0.86186 0.0
H1462 H 0.09227 0.13795 0.92467 0.0
C1463 C 0.02338 0.13302 0.8666 0.0
C1464 C 0.00971 0.1321 0.8922 0.0
H1465 H 0.07069 0.13452 0.84193 0.0
H1466 H 0.00459 0.13182 0.85021 0.0
C1467 C 0.03557 0.13487 0.91293 0.0
C1468 C 0.93724 0.06639 0.40543 0.0
C1469 C 0.94726 0.09123 0.38308 0.0
H1470 H 0.89633 0.00687 0.42232 0.0
C1471 C 0.9189 0.07816 0.36238 0.0
H1472 H 0.95852 0.07601 0.42174 0.0
C1473 C 0.88322 0.0391 0.36283 0.0
C1474 C 0.87554 0.0121 0.38384 0.0
H1475 H 0.92548 0.09716 0.34515 0.0
H1476 H 0.86333 0.02894 0.34583 0.0
C1477 C 0.90158 0.02689 0.40578 0.0
C1478 C 0.88474 0.91584 0.91686 0.0
C1479 C 0.88432 0.88962 0.89691 0.0
H1480 H 0.88779 0.97361 0.9266 0.0
C1481 C 0.88351 0.90081 0.87098 0.0
H1482 H 0.88486 0.90784 0.93707 0.0
C1483 C 0.88572 0.93845 0.865 0.0
C1484 C 0.88797 0.96562 0.88482 0.0
H1485 H 0.88163 0.88074 0.85515 0.0
H1486 H 0.88609 0.94644 0.84473 0.0
C1487 C 0.88636 0.95346 0.91087 0.0
loop_
_geom_bond_atom_site_label_1
_geom_bond_atom_site_label_2
_geom_bond_distance
_geom_bond_site_symmetry_2
_ccdc_geom_bond_type
Cd0 O57 2.350 . S
Cd0 O58 2.277 . S
Cd0 O65 2.173 . S
Cd0 O67 2.263 . S
Cd0 O69 2.366 . S
Cd0 O72 2.329 . S
C1 O65 1.277 . S
C1 O66 1.230 . S
C2 O3 1.246 . S
C2 C5 1.481 . S
C2 N27 1.329 . S
O3 C2 1.246 . S
Cd4 O66 2.250 . S
Cd4 O68 2.308 . S
Cd4 O71 2.352 . S
C5 C2 1.481 . S
C5 N8 1.327 . S
C5 C9 1.407 . S
C6 C7 1.346 . S
C6 C10 1.390 . S
C6 H74 0.930 . S
C7 C6 1.346 . S
C7 N8 1.342 . S
C7 C12 1.516 . S
N8 C5 1.327 . S
N8 C7 1.342 . S
N8 Co11 1.864 . S
C9 C5 1.407 . S
C9 C10 1.364 . S
C9 H75 0.930 . S
C10 C6 1.390 . S
C10 C9 1.364 . S
C10 H76 0.931 . S
Co11 N8 1.864 . S
Co11 N27 1.955 . S
Co11 N28 1.958 . S
Co11 N29 1.953 . S
Co11 N47 1.869 . S
Co11 N53 1.974 . S
C12 C7 1.516 . S
C12 O13 1.238 . S
C12 N28 1.324 . S
O13 C12 1.238 . S
C14 C15 1.394 . S
C14 C19 1.395 . S
C14 N28 1.427 . S
C15 C14 1.394 . S
C15 C16 1.380 . S
C15 H77 0.929 . S
C16 C15 1.380 . S
C16 C17 1.384 . S
C16 C20 1.495 . S
C17 C16 1.384 . S
C17 C18 1.382 . S
C17 H78 0.930 . S
C18 C17 1.382 . S
C18 C19 1.398 . S
C19 C14 1.395 . S
C19 C18 1.398 . S
C19 H79 0.930 . S
C20 C16 1.495 . S
C20 O67 1.258 . S
C20 O68 1.274 . S
C21 C22 1.385 . S
C21 C23 1.381 . S
C21 N27 1.432 . S
C22 C21 1.385 . S
C22 C26 1.388 . S
C22 H80 0.929 . S
C23 C21 1.381 . S
C23 C24 1.371 . S
C23 H81 0.932 . S
C24 C23 1.371 . S
C24 C25 1.400 . S
C25 C24 1.400 . S
C25 C26 1.351 . S
C25 H82 0.930 . S
C26 C22 1.388 . S
C26 C25 1.351 . S
N27 C2 1.329 . S
N27 Co11 1.955 . S
N27 C21 1.432 . S
N28 Co11 1.958 . S
N28 C12 1.324 . S
N28 C14 1.427 . S
N29 Co11 1.953 . S
N29 C30 1.436 . S
N29 C56 1.316 . S
C30 N29 1.436 . S
C30 C31 1.421 . S
C30 C32 1.360 . S
C31 C30 1.421 . S
C31 C33 1.379 . S
C31 H34 0.929 . S
C32 C30 1.360 . S
C32 C36 1.393 . S
C32 H38 0.931 . S
C33 C31 1.379 . S
C33 C35 1.417 . S
C33 C37 1.505 1_554 S
H34 C31 0.929 . S
C35 C33 1.417 . S
C35 C36 1.352 . S
C35 H39 0.929 . S
C36 C32 1.393 . S
C36 C35 1.352 . S
C36 C40 1.482 . S
C37 C33 1.505 1_556 S
C37 O41 1.259 . S
C37 O42 1.229 . S
H38 C32 0.931 . S
H39 C35 0.929 . S
C40 C36 1.482 . S
C40 O43 1.207 . S
C40 O44 1.289 . S
O41 C37 1.259 . S
O41 H45 0.822 . S
O42 C37 1.229 . S
O43 C40 1.207 . S
O44 C40 1.289 . S
O44 H46 0.819 . S
H45 O41 0.822 . S
H46 O44 0.819 . S
N47 Co11 1.869 . S
N47 C48 1.330 . S
N47 C52 1.325 . S
C48 N47 1.330 . S
C48 C49 1.359 . S
C48 C54 1.504 . S
C49 C48 1.359 . S
C49 C50 1.366 . S
C49 H83 0.929 . S
C50 C49 1.366 . S
C50 C51 1.415 . S
C50 H84 0.932 . S
C51 C50 1.415 . S
C51 C52 1.366 . S
C51 H85 0.931 . S
C52 N47 1.325 . S
C52 C51 1.366 . S
C52 C56 1.516 . S
N53 Co11 1.974 . S
N53 C54 1.309 . S
N53 C59 1.423 . S
C54 C48 1.504 . S
C54 N53 1.309 . S
C54 O55 1.258 . S
O55 C54 1.258 . S
C56 N29 1.316 . S
C56 C52 1.516 . S
C56 O69 1.263 . S
O57 Cd0 2.350 . S
O57 C73 1.270 . S
O58 Cd0 2.277 . S
O58 C73 1.248 . S
C59 N53 1.423 . S
C59 C60 1.370 . S
C59 C64 1.403 . S
C60 C59 1.370 . S
C60 C61 1.389 . S
C60 H86 0.931 . S
C61 C60 1.389 . S
C61 C62 1.389 . S
C62 C61 1.389 . S
C62 C63 1.379 . S
C62 H87 0.929 . S
C63 C62 1.379 . S
C63 C64 1.405 . S
C64 C59 1.403 . S
C64 C63 1.405 . S
C64 H88 0.932 . S
O65 Cd0 2.173 . S
O65 C1 1.277 . S
O66 C1 1.230 . S
O66 Cd4 2.250 . S
O67 Cd0 2.263 . S
O67 C20 1.258 . S
O68 Cd4 2.308 . S
O68 C20 1.274 . S
O69 Cd0 2.366 . S
O69 C56 1.263 . S
C70 O71 1.235 . S
C70 O72 1.270 . S
O71 Cd4 2.352 . S
O71 C70 1.235 . S
O72 Cd0 2.329 . S
O72 C70 1.270 . S
C73 O57 1.270 . S
C73 O58 1.248 . S
H74 C6 0.930 . S
H75 C9 0.930 . S
H76 C10 0.931 . S
H77 C15 0.929 . S
H78 C17 0.930 . S
H79 C19 0.930 . S
H80 C22 0.929 . S
H81 C23 0.932 . S
H82 C25 0.930 . S
H83 C49 0.929 . S
H84 C50 0.932 . S
H85 C51 0.931 . S
H86 C60 0.931 . S
H87 C62 0.929 . S
H88 C64 0.932 . S
Cd89 O146 2.350 . S
Cd89 O147 2.277 . S
Cd89 O154 2.173 . S
Cd89 O156 2.263 . S
Cd89 O158 2.366 . S
Cd89 O161 2.329 . S
C90 O154 1.277 . S
C90 O155 1.230 . S
C91 O92 1.246 . S
C91 C94 1.481 . S
C91 N116 1.329 . S
O92 C91 1.246 . S
Cd93 O155 2.250 . S
Cd93 O157 2.308 . S
Cd93 O160 2.352 1_655 S
C94 C91 1.481 . S
C94 N97 1.327 . S
C94 C98 1.407 . S
C95 C96 1.346 . S
C95 C99 1.390 . S
C95 H163 0.930 . S
C96 C95 1.346 . S
C96 N97 1.342 . S
C96 C101 1.516 . S
N97 C94 1.327 . S
N97 C96 1.342 . S
N97 Co100 1.864 . S
C98 C94 1.407 . S
C98 C99 1.364 . S
C98 H164 0.930 . S
C99 C95 1.390 . S
C99 C98 1.364 . S
C99 H165 0.931 . S
Co100 N97 1.864 . S
Co100 N116 1.955 . S
Co100 N117 1.958 . S
Co100 N118 1.953 . S
Co100 N136 1.869 . S
Co100 N142 1.974 . S
C101 C96 1.516 . S
C101 O102 1.238 . S
C101 N117 1.324 . S
O102 C101 1.238 . S
C103 C104 1.394 . S
C103 C108 1.395 . S
C103 N117 1.427 . S
C104 C103 1.394 . S
C104 C105 1.380 . S
C104 H166 0.929 . S
C105 C104 1.380 . S
C105 C106 1.384 . S
C105 C109 1.495 . S
C106 C105 1.384 . S
C106 C107 1.382 . S
C106 H167 0.930 . S
C107 C106 1.382 . S
C107 C108 1.398 . S
C108 C103 1.395 . S
C108 C107 1.398 . S
C108 H168 0.930 . S
C109 C105 1.495 . S
C109 O156 1.258 . S
C109 O157 1.274 . S
C110 C111 1.385 . S
C110 C112 1.381 . S
C110 N116 1.432 . S
C111 C110 1.385 . S
C111 C115 1.388 . S
C111 H169 0.929 . S
C112 C110 1.381 . S
C112 C113 1.371 . S
C112 H170 0.932 . S
C113 C112 1.371 . S
C113 C114 1.400 . S
C114 C113 1.400 . S
C114 C115 1.351 . S
C114 H171 0.930 . S
C115 C111 1.388 . S
C115 C114 1.351 . S
N116 C91 1.329 . S
N116 Co100 1.955 . S
N116 C110 1.432 . S
N117 Co100 1.958 . S
N117 C101 1.324 . S
N117 C103 1.427 . S
N118 Co100 1.953 . S
N118 C119 1.436 . S
N118 C145 1.316 . S
C119 N118 1.436 . S
C119 C120 1.421 . S
C119 C121 1.360 . S
C120 C119 1.421 . S
C120 C122 1.379 . S
C120 H123 0.929 . S
C121 C119 1.360 . S
C121 C125 1.393 . S
C121 H127 0.931 . S
C122 C120 1.379 . S
C122 C124 1.417 . S
C122 C126 1.505 . S
H123 C120 0.929 . S
C124 C122 1.417 . S
C124 C125 1.352 . S
C124 H128 0.929 . S
C125 C121 1.393 . S
C125 C124 1.352 . S
C125 C129 1.482 . S
C126 C122 1.505 . S
C126 O130 1.259 . S
C126 O131 1.229 . S
H127 C121 0.931 . S
H128 C124 0.929 . S
C129 C125 1.482 . S
C129 O132 1.207 . S
C129 O133 1.289 . S
O130 C126 1.259 . S
O130 H134 0.822 . S
O131 C126 1.229 . S
O132 C129 1.207 . S
O133 C129 1.289 . S
O133 H135 0.819 . S
H134 O130 0.822 . S
H135 O133 0.819 . S
N136 Co100 1.869 . S
N136 C137 1.330 . S
N136 C141 1.325 . S
C137 N136 1.330 . S
C137 C138 1.359 . S
C137 C143 1.504 . S
C138 C137 1.359 . S
C138 C139 1.366 . S
C138 H172 0.929 . S
C139 C138 1.366 . S
C139 C140 1.415 . S
C139 H173 0.932 . S
C140 C139 1.415 . S
C140 C141 1.366 . S
C140 H174 0.931 . S
C141 N136 1.325 . S
C141 C140 1.366 . S
C141 C145 1.516 . S
N142 Co100 1.974 . S
N142 C143 1.309 . S
N142 C148 1.423 . S
C143 C137 1.504 . S
C143 N142 1.309 . S
C143 O144 1.258 . S
O144 C143 1.258 . S
C145 N118 1.316 . S
C145 C141 1.516 . S
C145 O158 1.263 . S
O146 Cd89 2.350 . S
O146 C162 1.270 . S
O147 Cd89 2.277 . S
O147 C162 1.248 . S
C148 N142 1.423 . S
C148 C149 1.370 . S
C148 C153 1.403 . S
C149 C148 1.370 . S
C149 C150 1.389 . S
C149 H175 0.931 . S
C150 C149 1.389 . S
C150 C151 1.389 . S
C151 C150 1.389 . S
C151 C152 1.379 . S
C151 H176 0.929 . S
C152 C151 1.379 . S
C152 C153 1.405 . S
C153 C148 1.403 . S
C153 C152 1.405 . S
C153 H177 0.932 . S
O154 Cd89 2.173 . S
O154 C90 1.277 . S
O155 C90 1.230 . S
O155 Cd93 2.250 . S
O156 Cd89 2.263 . S
O156 C109 1.258 . S
O157 Cd93 2.308 . S
O157 C109 1.274 . S
O158 Cd89 2.366 . S
O158 C145 1.263 . S
C159 O160 1.235 . S
C159 O161 1.270 1_455 S
O160 Cd93 2.352 1_455 S
O160 C159 1.235 . S
O161 Cd89 2.329 . S
O161 C159 1.270 1_655 S
C162 O146 1.270 . S
C162 O147 1.248 . S
H163 C95 0.930 . S
H164 C98 0.930 . S
H165 C99 0.931 . S
H166 C104 0.929 . S
H167 C106 0.930 . S
H168 C108 0.930 . S
H169 C111 0.929 . S
H170 C112 0.932 . S
H171 C114 0.930 . S
H172 C138 0.929 . S
H173 C139 0.932 . S
H174 C140 0.931 . S
H175 C149 0.931 . S
H176 C151 0.929 . S
H177 C153 0.932 . S
Cd178 O235 2.350 . S
Cd178 O236 2.277 . S
Cd178 O243 2.173 . S
Cd178 O245 2.263 . S
Cd178 O247 2.366 . S
Cd178 O250 2.329 . S
C179 O243 1.277 . S
C179 O244 1.230 . S
C180 O181 1.246 . S
C180 C183 1.481 . S
C180 N205 1.329 . S
O181 C180 1.246 . S
Cd182 O244 2.250 . S
Cd182 O246 2.308 . S
Cd182 O249 2.352 1_565 S
C183 C180 1.481 . S
C183 N186 1.327 . S
C183 C187 1.407 . S
C184 C185 1.346 . S
C184 C188 1.390 . S
C184 H252 0.930 . S
C185 C184 1.346 . S
C185 N186 1.342 . S
C185 C190 1.516 . S
N186 C183 1.327 . S
N186 C185 1.342 . S
N186 Co189 1.864 . S
C187 C183 1.407 . S
C187 C188 1.364 . S
C187 H253 0.930 . S
C188 C184 1.390 . S
C188 C187 1.364 . S
C188 H254 0.931 . S
Co189 N186 1.864 . S
Co189 N205 1.955 . S
Co189 N206 1.958 . S
Co189 N207 1.953 . S
Co189 N225 1.869 . S
Co189 N231 1.974 . S
C190 C185 1.516 . S
C190 O191 1.238 . S
C190 N206 1.324 . S
O191 C190 1.238 . S
C192 C193 1.394 . S
C192 C197 1.395 . S
C192 N206 1.427 . S
C193 C192 1.394 . S
C193 C194 1.380 . S
C193 H255 0.929 . S
C194 C193 1.380 . S
C194 C195 1.384 . S
C194 C198 1.495 . S
C195 C194 1.384 . S
C195 C196 1.382 . S
C195 H256 0.930 . S
C196 C195 1.382 . S
C196 C197 1.398 . S
C197 C192 1.395 . S
C197 C196 1.398 . S
C197 H257 0.930 . S
C198 C194 1.495 . S
C198 O245 1.258 . S
C198 O246 1.274 . S
C199 C200 1.385 . S
C199 C201 1.381 . S
C199 N205 1.432 . S
C200 C199 1.385 . S
C200 C204 1.388 . S
C200 H258 0.929 . S
C201 C199 1.381 . S
C201 C202 1.371 . S
C201 H259 0.932 . S
C202 C201 1.371 . S
C202 C203 1.400 . S
C203 C202 1.400 . S
C203 C204 1.351 . S
C203 H260 0.930 . S
C204 C200 1.388 . S
C204 C203 1.351 . S
N205 C180 1.329 . S
N205 Co189 1.955 . S
N205 C199 1.432 . S
N206 Co189 1.958 . S
N206 C190 1.324 . S
N206 C192 1.427 . S
N207 Co189 1.953 . S
N207 C208 1.436 . S
N207 C234 1.316 . S
C208 N207 1.436 . S
C208 C209 1.421 . S
C208 C210 1.360 . S
C209 C208 1.421 . S
C209 C211 1.379 . S
C209 H212 0.929 . S
C210 C208 1.360 . S
C210 C214 1.393 . S
C210 H216 0.931 . S
C211 C209 1.379 . S
C211 C213 1.417 . S
C211 C215 1.505 1_554 S
H212 C209 0.929 . S
C213 C211 1.417 . S
C213 C214 1.352 . S
C213 H217 0.929 . S
C214 C210 1.393 . S
C214 C213 1.352 . S
C214 C218 1.482 . S
C215 C211 1.505 1_556 S
C215 O219 1.259 . S
C215 O220 1.229 . S
H216 C210 0.931 . S
H217 C213 0.929 . S
C218 C214 1.482 . S
C218 O221 1.207 . S
C218 O222 1.289 . S
O219 C215 1.259 . S
O219 H223 0.822 . S
O220 C215 1.229 . S
O221 C218 1.207 . S
O222 C218 1.289 . S
O222 H224 0.819 . S
H223 O219 0.822 . S
H224 O222 0.819 . S
N225 Co189 1.869 . S
N225 C226 1.330 . S
N225 C230 1.325 . S
C226 N225 1.330 . S
C226 C227 1.359 . S
C226 C232 1.504 . S
C227 C226 1.359 . S
C227 C228 1.366 . S
C227 H261 0.929 . S
C228 C227 1.366 . S
C228 C229 1.415 . S
C228 H262 0.932 . S
C229 C228 1.415 . S
C229 C230 1.366 . S
C229 H263 0.931 . S
C230 N225 1.325 . S
C230 C229 1.366 . S
C230 C234 1.516 . S
N231 Co189 1.974 . S
N231 C232 1.309 . S
N231 C237 1.423 . S
C232 C226 1.504 . S
C232 N231 1.309 . S
C232 O233 1.258 . S
O233 C232 1.258 . S
C234 N207 1.316 . S
C234 C230 1.516 . S
C234 O247 1.263 . S
O235 Cd178 2.350 . S
O235 C251 1.270 . S
O236 Cd178 2.277 . S
O236 C251 1.248 . S
C237 N231 1.423 . S
C237 C238 1.370 . S
C237 C242 1.403 . S
C238 C237 1.370 . S
C238 C239 1.389 . S
C238 H264 0.931 . S
C239 C238 1.389 . S
C239 C240 1.389 . S
C240 C239 1.389 . S
C240 C241 1.379 . S
C240 H265 0.929 . S
C241 C240 1.379 . S
C241 C242 1.405 . S
C242 C237 1.403 . S
C242 C241 1.405 . S
C242 H266 0.932 . S
O243 Cd178 2.173 . S
O243 C179 1.277 . S
O244 C179 1.230 . S
O244 Cd182 2.250 . S
O245 Cd178 2.263 . S
O245 C198 1.258 . S
O246 Cd182 2.308 . S
O246 C198 1.274 . S
O247 Cd178 2.366 . S
O247 C234 1.263 . S
C248 O249 1.235 . S
C248 O250 1.270 1_545 S
O249 Cd182 2.352 1_545 S
O249 C248 1.235 . S
O250 Cd178 2.329 . S
O250 C248 1.270 1_565 S
C251 O235 1.270 . S
C251 O236 1.248 . S
H252 C184 0.930 . S
H253 C187 0.930 . S
H254 C188 0.931 . S
H255 C193 0.929 . S
H256 C195 0.930 . S
H257 C197 0.930 . S
H258 C200 0.929 . S
H259 C201 0.932 . S
H260 C203 0.930 . S
H261 C227 0.929 . S
H262 C228 0.932 . S
H263 C229 0.931 . S
H264 C238 0.931 . S
H265 C240 0.929 . S
H266 C242 0.932 . S
Cd267 O324 2.350 . S
Cd267 O325 2.277 . S
Cd267 O332 2.173 . S
Cd267 O334 2.263 . S
Cd267 O336 2.366 . S
Cd267 O339 2.329 . S
C268 O332 1.277 . S
C268 O333 1.230 . S
C269 O270 1.246 . S
C269 C272 1.481 . S
C269 N294 1.329 . S
O270 C269 1.246 . S
Cd271 O333 2.250 . S
Cd271 O335 2.308 . S
Cd271 O338 2.352 . S
C272 C269 1.481 . S
C272 N275 1.327 . S
C272 C276 1.407 . S
C273 C274 1.346 . S
C273 C277 1.390 . S
C273 H341 0.930 . S
C274 C273 1.346 . S
C274 N275 1.342 . S
C274 C279 1.516 . S
N275 C272 1.327 . S
N275 C274 1.342 . S
N275 Co278 1.864 . S
C276 C272 1.407 . S
C276 C277 1.364 . S
C276 H342 0.930 . S
C277 C273 1.390 . S
C277 C276 1.364 . S
C277 H343 0.931 . S
Co278 N275 1.864 . S
Co278 N294 1.955 . S
Co278 N295 1.958 . S
Co278 N296 1.953 . S
Co278 N314 1.869 . S
Co278 N320 1.974 . S
C279 C274 1.516 . S
C279 O280 1.238 . S
C279 N295 1.324 . S
O280 C279 1.238 . S
C281 C282 1.394 . S
C281 C286 1.395 . S
C281 N295 1.427 . S
C282 C281 1.394 . S
C282 C283 1.380 . S
C282 H344 0.929 . S
C283 C282 1.380 . S
C283 C284 1.384 . S
C283 C287 1.495 . S
C284 C283 1.384 . S
C284 C285 1.382 . S
C284 H345 0.930 . S
C285 C284 1.382 . S
C285 C286 1.398 . S
C286 C281 1.395 . S
C286 C285 1.398 . S
C286 H346 0.930 . S
C287 C283 1.495 . S
C287 O334 1.258 . S
C287 O335 1.274 . S
C288 C289 1.385 . S
C288 C290 1.381 . S
C288 N294 1.432 . S
C289 C288 1.385 . S
C289 C293 1.388 . S
C289 H347 0.929 . S
C290 C288 1.381 . S
C290 C291 1.371 . S
C290 H348 0.932 . S
C291 C290 1.371 . S
C291 C292 1.400 . S
C292 C291 1.400 . S
C292 C293 1.351 . S
C292 H349 0.930 . S
C293 C289 1.388 . S
C293 C292 1.351 . S
N294 C269 1.329 . S
N294 Co278 1.955 . S
N294 C288 1.432 . S
N295 Co278 1.958 . S
N295 C279 1.324 . S
N295 C281 1.427 . S
N296 Co278 1.953 . S
N296 C297 1.436 . S
N296 C323 1.316 . S
C297 N296 1.436 . S
C297 C298 1.421 . S
C297 C299 1.360 . S
C298 C297 1.421 . S
C298 C300 1.379 . S
C298 H301 0.929 . S
C299 C297 1.360 . S
C299 C303 1.393 . S
C299 H305 0.931 . S
C300 C298 1.379 . S
C300 C302 1.417 . S
C300 C304 1.505 . S
H301 C298 0.929 . S
C302 C300 1.417 . S
C302 C303 1.352 . S
C302 H306 0.929 . S
C303 C299 1.393 . S
C303 C302 1.352 . S
C303 C307 1.482 . S
C304 C300 1.505 . S
C304 O308 1.259 . S
C304 O309 1.229 . S
H305 C299 0.931 . S
H306 C302 0.929 . S
C307 C303 1.482 . S
C307 O310 1.207 . S
C307 O311 1.289 . S
O308 C304 1.259 . S
O308 H312 0.822 . S
O309 C304 1.229 . S
O310 C307 1.207 . S
O311 C307 1.289 . S
O311 H313 0.819 . S
H312 O308 0.822 . S
H313 O311 0.819 . S
N314 Co278 1.869 . S
N314 C315 1.330 . S
N314 C319 1.325 . S
C315 N314 1.330 . S
C315 C316 1.359 . S
C315 C321 1.504 . S
C316 C315 1.359 . S
C316 C317 1.366 . S
C316 H350 0.929 . S
C317 C316 1.366 . S
C317 C318 1.415 . S
C317 H351 0.932 . S
C318 C317 1.415 . S
C318 C319 1.366 . S
C318 H352 0.931 . S
C319 N314 1.325 . S
C319 C318 1.366 . S
C319 C323 1.516 . S
N320 Co278 1.974 . S
N320 C321 1.309 . S
N320 C326 1.423 . S
C321 C315 1.504 . S
C321 N320 1.309 . S
C321 O322 1.258 . S
O322 C321 1.258 . S
C323 N296 1.316 . S
C323 C319 1.516 . S
C323 O336 1.263 . S
O324 Cd267 2.350 . S
O324 C340 1.270 . S
O325 Cd267 2.277 . S
O325 C340 1.248 . S
C326 N320 1.423 . S
C326 C327 1.370 . S
C326 C331 1.403 . S
C327 C326 1.370 . S
C327 C328 1.389 . S
C327 H353 0.931 . S
C328 C327 1.389 . S
C328 C329 1.389 . S
C329 C328 1.389 . S
C329 C330 1.379 . S
C329 H354 0.929 . S
C330 C329 1.379 . S
C330 C331 1.405 . S
C331 C326 1.403 . S
C331 C330 1.405 . S
C331 H355 0.932 . S
O332 Cd267 2.173 . S
O332 C268 1.277 . S
O333 C268 1.230 . S
O333 Cd271 2.250 . S
O334 Cd267 2.263 . S
O334 C287 1.258 . S
O335 Cd271 2.308 . S
O335 C287 1.274 . S
O336 Cd267 2.366 . S
O336 C323 1.263 . S
C337 O338 1.235 . S
C337 O339 1.270 . S
O338 Cd271 2.352 . S
O338 C337 1.235 . S
O339 Cd267 2.329 . S
O339 C337 1.270 . S
C340 O324 1.270 . S
C340 O325 1.248 . S
H341 C273 0.930 . S
H342 C276 0.930 . S
H343 C277 0.931 . S
H344 C282 0.929 . S
H345 C284 0.930 . S
H346 C286 0.930 . S
H347 C289 0.929 . S
H348 C290 0.932 . S
H349 C292 0.930 . S
H350 C316 0.929 . S
H351 C317 0.932 . S
H352 C318 0.931 . S
H353 C327 0.931 . S
H354 C329 0.929 . S
H355 C331 0.932 . S
Cd356 O413 2.350 . S
Cd356 O414 2.277 . S
Cd356 O421 2.173 . S
Cd356 O423 2.263 . S
Cd356 O425 2.366 . S
Cd356 O428 2.329 . S
C357 O421 1.277 . S
C357 O422 1.230 . S
C358 O359 1.246 . S
C358 C361 1.481 . S
C358 N383 1.329 . S
O359 C358 1.246 . S
Cd360 O422 2.250 . S
Cd360 O424 2.308 . S
Cd360 O427 2.352 1_455 S
C361 C358 1.481 . S
C361 N364 1.327 . S
C361 C365 1.407 . S
C362 C363 1.346 . S
C362 C366 1.390 . S
C362 H430 0.930 . S
C363 C362 1.346 . S
C363 N364 1.342 . S
C363 C368 1.516 . S
N364 C361 1.327 . S
N364 C363 1.342 . S
N364 Co367 1.864 . S
C365 C361 1.407 . S
C365 C366 1.364 . S
C365 H431 0.930 . S
C366 C362 1.390 . S
C366 C365 1.364 . S
C366 H432 0.931 . S
Co367 N364 1.864 . S
Co367 N383 1.955 . S
Co367 N384 1.958 . S
Co367 N385 1.953 . S
Co367 N403 1.869 . S
Co367 N409 1.974 . S
C368 C363 1.516 . S
C368 O369 1.238 . S
C368 N384 1.324 . S
O369 C368 1.238 . S
C370 C371 1.394 . S
C370 C375 1.395 . S
C370 N384 1.427 . S
C371 C370 1.394 . S
C371 C372 1.380 . S
C371 H433 0.929 . S
C372 C371 1.380 . S
C372 C373 1.384 . S
C372 C376 1.495 . S
C373 C372 1.384 . S
C373 C374 1.382 . S
C373 H434 0.930 . S
C374 C373 1.382 . S
C374 C375 1.398 . S
C375 C370 1.395 . S
C375 C374 1.398 . S
C375 H435 0.930 . S
C376 C372 1.495 . S
C376 O423 1.258 . S
C376 O424 1.274 . S
C377 C378 1.385 . S
C377 C379 1.381 . S
C377 N383 1.432 . S
C378 C377 1.385 . S
C378 C382 1.388 . S
C378 H436 0.929 . S
C379 C377 1.381 . S
C379 C380 1.371 . S
C379 H437 0.932 . S
C380 C379 1.371 . S
C380 C381 1.400 . S
C381 C380 1.400 . S
C381 C382 1.351 . S
C381 H438 0.930 . S
C382 C378 1.388 . S
C382 C381 1.351 . S
N383 C358 1.329 . S
N383 Co367 1.955 . S
N383 C377 1.432 . S
N384 Co367 1.958 . S
N384 C368 1.324 . S
N384 C370 1.427 . S
N385 Co367 1.953 . S
N385 C386 1.436 . S
N385 C412 1.316 . S
C386 N385 1.436 . S
C386 C387 1.421 . S
C386 C388 1.360 . S
C387 C386 1.421 . S
C387 C389 1.379 . S
C387 H390 0.929 . S
C388 C386 1.360 . S
C388 C392 1.393 . S
C388 H394 0.931 . S
C389 C387 1.379 . S
C389 C391 1.417 . S
C389 C393 1.505 1_554 S
H390 C387 0.929 . S
C391 C389 1.417 . S
C391 C392 1.352 . S
C391 H395 0.929 . S
C392 C388 1.393 . S
C392 C391 1.352 . S
C392 C396 1.482 . S
C393 C389 1.505 1_556 S
C393 O397 1.259 . S
C393 O398 1.229 . S
H394 C388 0.931 . S
H395 C391 0.929 . S
C396 C392 1.482 . S
C396 O399 1.207 . S
C396 O400 1.289 . S
O397 C393 1.259 . S
O397 H401 0.822 . S
O398 C393 1.229 . S
O399 C396 1.207 . S
O400 C396 1.289 . S
O400 H402 0.819 . S
H401 O397 0.822 . S
H402 O400 0.819 . S
N403 Co367 1.869 . S
N403 C404 1.330 . S
N403 C408 1.325 . S
C404 N403 1.330 . S
C404 C405 1.359 . S
C404 C410 1.504 . S
C405 C404 1.359 . S
C405 C406 1.366 . S
C405 H439 0.929 . S
C406 C405 1.366 . S
C406 C407 1.415 . S
C406 H440 0.932 . S
C407 C406 1.415 . S
C407 C408 1.366 . S
C407 H441 0.931 . S
C408 N403 1.325 . S
C408 C407 1.366 . S
C408 C412 1.516 . S
N409 Co367 1.974 . S
N409 C410 1.309 . S
N409 C415 1.423 . S
C410 C404 1.504 . S
C410 N409 1.309 . S
C410 O411 1.258 . S
O411 C410 1.258 . S
C412 N385 1.316 . S
C412 C408 1.516 . S
C412 O425 1.263 . S
O413 Cd356 2.350 . S
O413 C429 1.270 . S
O414 Cd356 2.277 . S
O414 C429 1.248 . S
C415 N409 1.423 . S
C415 C416 1.370 . S
C415 C420 1.403 . S
C416 C415 1.370 . S
C416 C417 1.389 . S
C416 H442 0.931 . S
C417 C416 1.389 . S
C417 C418 1.389 . S
C418 C417 1.389 . S
C418 C419 1.379 . S
C418 H443 0.929 . S
C419 C418 1.379 . S
C419 C420 1.405 . S
C420 C415 1.403 . S
C420 C419 1.405 . S
C420 H444 0.932 . S
O421 Cd356 2.173 . S
O421 C357 1.277 . S
O422 C357 1.230 . S
O422 Cd360 2.250 . S
O423 Cd356 2.263 . S
O423 C376 1.258 . S
O424 Cd360 2.308 . S
O424 C376 1.274 . S
O425 Cd356 2.366 . S
O425 C412 1.263 . S
C426 O427 1.235 . S
C426 O428 1.270 1_655 S
O427 Cd360 2.352 1_655 S
O427 C426 1.235 . S
O428 Cd356 2.329 . S
O428 C426 1.270 1_455 S
C429 O413 1.270 . S
C429 O414 1.248 . S
H430 C362 0.930 . S
H431 C365 0.930 . S
H432 C366 0.931 . S
H433 C371 0.929 . S
H434 C373 0.930 . S
H435 C375 0.930 . S
H436 C378 0.929 . S
H437 C379 0.932 . S
H438 C381 0.930 . S
H439 C405 0.929 . S
H440 C406 0.932 . S
H441 C407 0.931 . S
H442 C416 0.931 . S
H443 C418 0.929 . S
H444 C420 0.932 . S
Cd445 O502 2.350 . S
Cd445 O503 2.277 . S
Cd445 O510 2.173 . S
Cd445 O512 2.263 . S
Cd445 O514 2.366 . S
Cd445 O517 2.329 . S
C446 O510 1.277 . S
C446 O511 1.230 . S
C447 O448 1.246 . S
C447 C450 1.481 . S
C447 N472 1.329 . S
O448 C447 1.246 . S
Cd449 O511 2.250 . S
Cd449 O513 2.308 . S
Cd449 O516 2.352 1_545 S
C450 C447 1.481 . S
C450 N453 1.327 . S
C450 C454 1.407 . S
C451 C452 1.346 . S
C451 C455 1.390 . S
C451 H519 0.930 . S
C452 C451 1.346 . S
C452 N453 1.342 . S
C452 C457 1.516 . S
N453 C450 1.327 . S
N453 C452 1.342 . S
N453 Co456 1.864 . S
C454 C450 1.407 . S
C454 C455 1.364 . S
C454 H520 0.930 . S
C455 C451 1.390 . S
C455 C454 1.364 . S
C455 H521 0.931 . S
Co456 N453 1.864 . S
Co456 N472 1.955 . S
Co456 N473 1.958 . S
Co456 N474 1.953 . S
Co456 N492 1.869 . S
Co456 N498 1.974 . S
C457 C452 1.516 . S
C457 O458 1.238 . S
C457 N473 1.324 . S
O458 C457 1.238 . S
C459 C460 1.394 . S
C459 C464 1.395 . S
C459 N473 1.427 . S
C460 C459 1.394 . S
C460 C461 1.380 . S
C460 H522 0.929 . S
C461 C460 1.380 . S
C461 C462 1.384 . S
C461 C465 1.495 . S
C462 C461 1.384 . S
C462 C463 1.382 . S
C462 H523 0.930 . S
C463 C462 1.382 . S
C463 C464 1.398 . S
C464 C459 1.395 . S
C464 C463 1.398 . S
C464 H524 0.930 . S
C465 C461 1.495 . S
C465 O512 1.258 . S
C465 O513 1.274 . S
C466 C467 1.385 . S
C466 C468 1.381 . S
C466 N472 1.432 . S
C467 C466 1.385 . S
C467 C471 1.388 . S
C467 H525 0.929 . S
C468 C466 1.381 . S
C468 C469 1.371 . S
C468 H526 0.932 . S
C469 C468 1.371 . S
C469 C470 1.400 . S
C470 C469 1.400 . S
C470 C471 1.351 . S
C470 H527 0.930 . S
C471 C467 1.388 . S
C471 C470 1.351 . S
N472 C447 1.329 . S
N472 Co456 1.955 . S
N472 C466 1.432 . S
N473 Co456 1.958 . S
N473 C457 1.324 . S
N473 C459 1.427 . S
N474 Co456 1.953 . S
N474 C475 1.436 . S
N474 C501 1.316 . S
C475 N474 1.436 . S
C475 C476 1.421 . S
C475 C477 1.360 . S
C476 C475 1.421 . S
C476 C478 1.379 . S
C476 H479 0.929 . S
C477 C475 1.360 . S
C477 C481 1.393 . S
C477 H483 0.931 . S
C478 C476 1.379 . S
C478 C480 1.417 . S
C478 C482 1.505 . S
H479 C476 0.929 . S
C480 C478 1.417 . S
C480 C481 1.352 . S
C480 H484 0.929 . S
C481 C477 1.393 . S
C481 C480 1.352 . S
C481 C485 1.482 . S
C482 C478 1.505 . S
C482 O486 1.259 . S
C482 O487 1.229 . S
H483 C477 0.931 . S
H484 C480 0.929 . S
C485 C481 1.482 . S
C485 O488 1.207 . S
C485 O489 1.289 . S
O486 C482 1.259 . S
O486 H490 0.822 . S
O487 C482 1.229 . S
O488 C485 1.207 . S
O489 C485 1.289 . S
O489 H491 0.819 . S
H490 O486 0.822 . S
H491 O489 0.819 . S
N492 Co456 1.869 . S
N492 C493 1.330 . S
N492 C497 1.325 . S
C493 N492 1.330 . S
C493 C494 1.359 . S
C493 C499 1.504 . S
C494 C493 1.359 . S
C494 C495 1.366 . S
C494 H528 0.929 . S
C495 C494 1.366 . S
C495 C496 1.415 . S
C495 H529 0.932 . S
C496 C495 1.415 . S
C496 C497 1.366 . S
C496 H530 0.931 . S
C497 N492 1.325 . S
C497 C496 1.366 . S
C497 C501 1.516 . S
N498 Co456 1.974 . S
N498 C499 1.309 . S
N498 C504 1.423 . S
C499 C493 1.504 . S
C499 N498 1.309 . S
C499 O500 1.258 . S
O500 C499 1.258 . S
C501 N474 1.316 . S
C501 C497 1.516 . S
C501 O514 1.263 . S
O502 Cd445 2.350 . S
O502 C518 1.270 . S
O503 Cd445 2.277 . S
O503 C518 1.248 . S
C504 N498 1.423 . S
C504 C505 1.370 . S
C504 C509 1.403 . S
C505 C504 1.370 . S
C505 C506 1.389 . S
C505 H531 0.931 . S
C506 C505 1.389 . S
C506 C507 1.389 . S
C507 C506 1.389 . S
C507 C508 1.379 . S
C507 H532 0.929 . S
C508 C507 1.379 . S
C508 C509 1.405 . S
C509 C504 1.403 . S
C509 C508 1.405 . S
C509 H533 0.932 . S
O510 Cd445 2.173 . S
O510 C446 1.277 . S
O511 C446 1.230 . S
O511 Cd449 2.250 . S
O512 Cd445 2.263 . S
O512 C465 1.258 . S
O513 Cd449 2.308 . S
O513 C465 1.274 . S
O514 Cd445 2.366 . S
O514 C501 1.263 . S
C515 O516 1.235 . S
C515 O517 1.270 1_565 S
O516 Cd449 2.352 1_565 S
O516 C515 1.235 . S
O517 Cd445 2.329 . S
O517 C515 1.270 1_545 S
C518 O502 1.270 . S
C518 O503 1.248 . S
H519 C451 0.930 . S
H520 C454 0.930 . S
H521 C455 0.931 . S
H522 C460 0.929 . S
H523 C462 0.930 . S
H524 C464 0.930 . S
H525 C467 0.929 . S
H526 C468 0.932 . S
H527 C470 0.930 . S
H528 C494 0.929 . S
H529 C495 0.932 . S
H530 C496 0.931 . S
H531 C505 0.931 . S
H532 C507 0.929 . S
H533 C509 0.932 . S
Cd534 O591 2.350 . S
Cd534 O592 2.277 . S
Cd534 O599 2.173 . S
Cd534 O601 2.263 . S
Cd534 O603 2.366 . S
Cd534 O606 2.329 . S
C535 O599 1.277 . S
C535 O600 1.230 . S
C536 O537 1.246 . S
C536 C539 1.481 . S
C536 N561 1.329 . S
O537 C536 1.246 . S
Cd538 O600 2.250 . S
Cd538 O602 2.308 . S
Cd538 O605 2.352 . S
C539 C536 1.481 . S
C539 N542 1.327 . S
C539 C543 1.407 . S
C540 C541 1.346 . S
C540 C544 1.390 . S
C540 H608 0.930 . S
C541 C540 1.346 . S
C541 N542 1.342 . S
C541 C546 1.516 . S
N542 C539 1.327 . S
N542 C541 1.342 . S
N542 Co545 1.864 . S
C543 C539 1.407 . S
C543 C544 1.364 . S
C543 H609 0.930 . S
C544 C540 1.390 . S
C544 C543 1.364 . S
C544 H610 0.931 . S
Co545 N542 1.864 . S
Co545 N561 1.955 . S
Co545 N562 1.958 . S
Co545 N563 1.953 . S
Co545 N581 1.869 . S
Co545 N587 1.974 . S
C546 C541 1.516 . S
C546 O547 1.238 . S
C546 N562 1.324 . S
O547 C546 1.238 . S
C548 C549 1.394 . S
C548 C553 1.395 . S
C548 N562 1.427 . S
C549 C548 1.394 . S
C549 C550 1.380 . S
C549 H611 0.929 . S
C550 C549 1.380 . S
C550 C551 1.384 . S
C550 C554 1.495 . S
C551 C550 1.384 . S
C551 C552 1.382 . S
C551 H612 0.930 . S
C552 C551 1.382 . S
C552 C553 1.398 . S
C553 C548 1.395 . S
C553 C552 1.398 . S
C553 H613 0.930 . S
C554 C550 1.495 . S
C554 O601 1.258 . S
C554 O602 1.274 . S
C555 C556 1.385 . S
C555 C557 1.381 . S
C555 N561 1.432 . S
C556 C555 1.385 . S
C556 C560 1.388 . S
C556 H614 0.929 . S
C557 C555 1.381 . S
C557 C558 1.371 . S
C557 H615 0.932 . S
C558 C557 1.371 . S
C558 C559 1.400 . S
C559 C558 1.400 . S
C559 C560 1.351 . S
C559 H616 0.930 . S
C560 C556 1.388 . S
C560 C559 1.351 . S
N561 C536 1.329 . S
N561 Co545 1.955 . S
N561 C555 1.432 . S
N562 Co545 1.958 . S
N562 C546 1.324 . S
N562 C548 1.427 . S
N563 Co545 1.953 . S
N563 C564 1.436 . S
N563 C590 1.316 . S
C564 N563 1.436 . S
C564 C565 1.421 . S
C564 C566 1.360 . S
C565 C564 1.421 . S
C565 C567 1.379 . S
C565 H568 0.929 . S
C566 C564 1.360 . S
C566 C570 1.393 . S
C566 H572 0.931 . S
C567 C565 1.379 . S
C567 C569 1.417 . S
C567 C571 1.505 . S
H568 C565 0.929 . S
C569 C567 1.417 . S
C569 C570 1.352 . S
C569 H573 0.929 . S
C570 C566 1.393 . S
C570 C569 1.352 . S
C570 C574 1.482 . S
C571 C567 1.505 . S
C571 O575 1.259 . S
C571 O576 1.229 . S
H572 C566 0.931 . S
H573 C569 0.929 . S
C574 C570 1.482 . S
C574 O577 1.207 . S
C574 O578 1.289 . S
O575 C571 1.259 . S
O575 H579 0.822 . S
O576 C571 1.229 . S
O577 C574 1.207 . S
O578 C574 1.289 . S
O578 H580 0.819 . S
H579 O575 0.822 . S
H580 O578 0.819 . S
N581 Co545 1.869 . S
N581 C582 1.330 . S
N581 C586 1.325 . S
C582 N581 1.330 . S
C582 C583 1.359 . S
C582 C588 1.504 . S
C583 C582 1.359 . S
C583 C584 1.366 . S
C583 H617 0.929 . S
C584 C583 1.366 . S
C584 C585 1.415 . S
C584 H618 0.932 . S
C585 C584 1.415 . S
C585 C586 1.366 . S
C585 H619 0.931 . S
C586 N581 1.325 . S
C586 C585 1.366 . S
C586 C590 1.516 . S
N587 Co545 1.974 . S
N587 C588 1.309 . S
N587 C593 1.423 . S
C588 C582 1.504 . S
C588 N587 1.309 . S
C588 O589 1.258 . S
O589 C588 1.258 . S
C590 N563 1.316 . S
C590 C586 1.516 . S
C590 O603 1.263 . S
O591 Cd534 2.350 . S
O591 C607 1.270 . S
O592 Cd534 2.277 . S
O592 C607 1.248 . S
C593 N587 1.423 . S
C593 C594 1.370 . S
C593 C598 1.403 . S
C594 C593 1.370 . S
C594 C595 1.389 . S
C594 H620 0.931 . S
C595 C594 1.389 . S
C595 C596 1.389 . S
C596 C595 1.389 . S
C596 C597 1.379 . S
C596 H621 0.929 . S
C597 C596 1.379 . S
C597 C598 1.405 . S
C598 C593 1.403 . S
C598 C597 1.405 . S
C598 H622 0.932 . S
O599 Cd534 2.173 . S
O599 C535 1.277 . S
O600 C535 1.230 . S
O600 Cd538 2.250 . S
O601 Cd534 2.263 . S
O601 C554 1.258 . S
O602 Cd538 2.308 . S
O602 C554 1.274 . S
O603 Cd534 2.366 . S
O603 C590 1.263 . S
C604 O605 1.235 . S
C604 O606 1.270 . S
O605 Cd538 2.352 . S
O605 C604 1.235 . S
O606 Cd534 2.329 . S
O606 C604 1.270 . S
C607 O591 1.270 . S
C607 O592 1.248 . S
H608 C540 0.930 . S
H609 C543 0.930 . S
H610 C544 0.931 . S
H611 C549 0.929 . S
H612 C551 0.930 . S
H613 C553 0.930 . S
H614 C556 0.929 . S
H615 C557 0.932 . S
H616 C559 0.930 . S
H617 C583 0.929 . S
H618 C584 0.932 . S
H619 C585 0.931 . S
H620 C594 0.931 . S
H621 C596 0.929 . S
H622 C598 0.932 . S
Cd623 O680 2.350 . S
Cd623 O681 2.277 . S
Cd623 O688 2.173 . S
Cd623 O690 2.263 . S
Cd623 O692 2.366 . S
Cd623 O695 2.329 . S
C624 O688 1.277 . S
C624 O689 1.230 . S
C625 O626 1.246 . S
C625 C628 1.481 . S
C625 N650 1.329 . S
O626 C625 1.246 . S
Cd627 O689 2.250 . S
Cd627 O691 2.308 . S
Cd627 O694 2.352 1_655 S
C628 C625 1.481 . S
C628 N631 1.327 . S
C628 C632 1.407 . S
C629 C630 1.346 . S
C629 C633 1.390 . S
C629 H697 0.930 . S
C630 C629 1.346 . S
C630 N631 1.342 . S
C630 C635 1.516 . S
N631 C628 1.327 . S
N631 C630 1.342 . S
N631 Co634 1.864 . S
C632 C628 1.407 . S
C632 C633 1.364 . S
C632 H698 0.930 . S
C633 C629 1.390 . S
C633 C632 1.364 . S
C633 H699 0.931 . S
Co634 N631 1.864 . S
Co634 N650 1.955 . S
Co634 N651 1.958 . S
Co634 N652 1.953 . S
Co634 N670 1.869 . S
Co634 N676 1.974 . S
C635 C630 1.516 . S
C635 O636 1.238 . S
C635 N651 1.324 . S
O636 C635 1.238 . S
C637 C638 1.394 . S
C637 C642 1.395 . S
C637 N651 1.427 . S
C638 C637 1.394 . S
C638 C639 1.380 . S
C638 H700 0.929 . S
C639 C638 1.380 . S
C639 C640 1.384 . S
C639 C643 1.495 . S
C640 C639 1.384 . S
C640 C641 1.382 . S
C640 H701 0.930 . S
C641 C640 1.382 . S
C641 C642 1.398 . S
C642 C637 1.395 . S
C642 C641 1.398 . S
C642 H702 0.930 . S
C643 C639 1.495 . S
C643 O690 1.258 . S
C643 O691 1.274 . S
C644 C645 1.385 . S
C644 C646 1.381 . S
C644 N650 1.432 . S
C645 C644 1.385 . S
C645 C649 1.388 . S
C645 H703 0.929 . S
C646 C644 1.381 . S
C646 C647 1.371 . S
C646 H704 0.932 . S
C647 C646 1.371 . S
C647 C648 1.400 . S
C648 C647 1.400 . S
C648 C649 1.351 . S
C648 H705 0.930 . S
C649 C645 1.388 . S
C649 C648 1.351 . S
N650 C625 1.329 . S
N650 Co634 1.955 . S
N650 C644 1.432 . S
N651 Co634 1.958 . S
N651 C635 1.324 . S
N651 C637 1.427 . S
N652 Co634 1.953 . S
N652 C653 1.436 . S
N652 C679 1.316 . S
C653 N652 1.436 . S
C653 C654 1.421 . S
C653 C655 1.360 . S
C654 C653 1.421 . S
C654 C656 1.379 . S
C654 H657 0.929 . S
C655 C653 1.360 . S
C655 C659 1.393 . S
C655 H661 0.931 . S
C656 C654 1.379 . S
C656 C658 1.417 . S
C656 C660 1.505 1_556 S
H657 C654 0.929 . S
C658 C656 1.417 . S
C658 C659 1.352 . S
C658 H662 0.929 . S
C659 C655 1.393 . S
C659 C658 1.352 . S
C659 C663 1.482 . S
C660 C656 1.505 1_554 S
C660 O664 1.259 . S
C660 O665 1.229 . S
H661 C655 0.931 . S
H662 C658 0.929 . S
C663 C659 1.482 . S
C663 O666 1.207 . S
C663 O667 1.289 . S
O664 C660 1.259 . S
O664 H668 0.822 . S
O665 C660 1.229 . S
O666 C663 1.207 . S
O667 C663 1.289 . S
O667 H669 0.819 . S
H668 O664 0.822 . S
H669 O667 0.819 . S
N670 Co634 1.869 . S
N670 C671 1.330 . S
N670 C675 1.325 . S
C671 N670 1.330 . S
C671 C672 1.359 . S
C671 C677 1.504 . S
C672 C671 1.359 . S
C672 C673 1.366 . S
C672 H706 0.929 . S
C673 C672 1.366 . S
C673 C674 1.415 . S
C673 H707 0.932 . S
C674 C673 1.415 . S
C674 C675 1.366 . S
C674 H708 0.931 . S
C675 N670 1.325 . S
C675 C674 1.366 . S
C675 C679 1.516 . S
N676 Co634 1.974 . S
N676 C677 1.309 . S
N676 C682 1.423 . S
C677 C671 1.504 . S
C677 N676 1.309 . S
C677 O678 1.258 . S
O678 C677 1.258 . S
C679 N652 1.316 . S
C679 C675 1.516 . S
C679 O692 1.263 . S
O680 Cd623 2.350 . S
O680 C696 1.270 . S
O681 Cd623 2.277 . S
O681 C696 1.248 . S
C682 N676 1.423 . S
C682 C683 1.370 . S
C682 C687 1.403 . S
C683 C682 1.370 . S
C683 C684 1.389 . S
C683 H709 0.931 . S
C684 C683 1.389 . S
C684 C685 1.389 . S
C685 C684 1.389 . S
C685 C686 1.379 . S
C685 H710 0.929 . S
C686 C685 1.379 . S
C686 C687 1.405 . S
C687 C682 1.403 . S
C687 C686 1.405 . S
C687 H711 0.932 . S
O688 Cd623 2.173 . S
O688 C624 1.277 . S
O689 C624 1.230 . S
O689 Cd627 2.250 . S
O690 Cd623 2.263 . S
O690 C643 1.258 . S
O691 Cd627 2.308 . S
O691 C643 1.274 . S
O692 Cd623 2.366 . S
O692 C679 1.263 . S
C693 O694 1.235 . S
C693 O695 1.270 1_455 S
O694 Cd627 2.352 1_455 S
O694 C693 1.235 . S
O695 Cd623 2.329 . S
O695 C693 1.270 1_655 S
C696 O680 1.270 . S
C696 O681 1.248 . S
H697 C629 0.930 . S
H698 C632 0.930 . S
H699 C633 0.931 . S
H700 C638 0.929 . S
H701 C640 0.930 . S
H702 C642 0.930 . S
H703 C645 0.929 . S
H704 C646 0.932 . S
H705 C648 0.930 . S
H706 C672 0.929 . S
H707 C673 0.932 . S
H708 C674 0.931 . S
H709 C683 0.931 . S
H710 C685 0.929 . S
H711 C687 0.932 . S
Cd712 O769 2.350 . S
Cd712 O770 2.277 . S
Cd712 O777 2.173 . S
Cd712 O779 2.263 . S
Cd712 O781 2.366 . S
Cd712 O784 2.329 . S
C713 O777 1.277 . S
C713 O778 1.230 . S
C714 O715 1.246 . S
C714 C717 1.481 . S
C714 N739 1.329 . S
O715 C714 1.246 . S
Cd716 O778 2.250 . S
Cd716 O780 2.308 . S
Cd716 O783 2.352 1_565 S
C717 C714 1.481 . S
C717 N720 1.327 . S
C717 C721 1.407 . S
C718 C719 1.346 . S
C718 C722 1.390 . S
C718 H786 0.930 . S
C719 C718 1.346 . S
C719 N720 1.342 . S
C719 C724 1.516 . S
N720 C717 1.327 . S
N720 C719 1.342 . S
N720 Co723 1.864 . S
C721 C717 1.407 . S
C721 C722 1.364 . S
C721 H787 0.930 . S
C722 C718 1.390 . S
C722 C721 1.364 . S
C722 H788 0.931 . S
Co723 N720 1.864 . S
Co723 N739 1.955 . S
Co723 N740 1.958 . S
Co723 N741 1.953 . S
Co723 N759 1.869 . S
Co723 N765 1.974 . S
C724 C719 1.516 . S
C724 O725 1.238 . S
C724 N740 1.324 . S
O725 C724 1.238 . S
C726 C727 1.394 . S
C726 C731 1.395 . S
C726 N740 1.427 . S
C727 C726 1.394 . S
C727 C728 1.380 . S
C727 H789 0.929 . S
C728 C727 1.380 . S
C728 C729 1.384 . S
C728 C732 1.495 . S
C729 C728 1.384 . S
C729 C730 1.382 . S
C729 H790 0.930 . S
C730 C729 1.382 . S
C730 C731 1.398 . S
C731 C726 1.395 . S
C731 C730 1.398 . S
C731 H791 0.930 . S
C732 C728 1.495 . S
C732 O779 1.258 . S
C732 O780 1.274 . S
C733 C734 1.385 . S
C733 C735 1.381 . S
C733 N739 1.432 . S
C734 C733 1.385 . S
C734 C738 1.388 . S
C734 H792 0.929 . S
C735 C733 1.381 . S
C735 C736 1.371 . S
C735 H793 0.932 . S
C736 C735 1.371 . S
C736 C737 1.400 . S
C737 C736 1.400 . S
C737 C738 1.351 . S
C737 H794 0.930 . S
C738 C734 1.388 . S
C738 C737 1.351 . S
N739 C714 1.329 . S
N739 Co723 1.955 . S
N739 C733 1.432 . S
N740 Co723 1.958 . S
N740 C724 1.324 . S
N740 C726 1.427 . S
N741 Co723 1.953 . S
N741 C742 1.436 . S
N741 C768 1.316 . S
C742 N741 1.436 . S
C742 C743 1.421 . S
C742 C744 1.360 . S
C743 C742 1.421 . S
C743 C745 1.379 . S
C743 H746 0.929 . S
C744 C742 1.360 . S
C744 C748 1.393 . S
C744 H750 0.931 . S
C745 C743 1.379 . S
C745 C747 1.417 . S
C745 C749 1.505 . S
H746 C743 0.929 . S
C747 C745 1.417 . S
C747 C748 1.352 . S
C747 H751 0.929 . S
C748 C744 1.393 . S
C748 C747 1.352 . S
C748 C752 1.482 . S
C749 C745 1.505 . S
C749 O753 1.259 . S
C749 O754 1.229 . S
H750 C744 0.931 . S
H751 C747 0.929 . S
C752 C748 1.482 . S
C752 O755 1.207 . S
C752 O756 1.289 . S
O753 C749 1.259 . S
O753 H757 0.822 . S
O754 C749 1.229 . S
O755 C752 1.207 . S
O756 C752 1.289 . S
O756 H758 0.819 . S
H757 O753 0.822 . S
H758 O756 0.819 . S
N759 Co723 1.869 . S
N759 C760 1.330 . S
N759 C764 1.325 . S
C760 N759 1.330 . S
C760 C761 1.359 . S
C760 C766 1.504 . S
C761 C760 1.359 . S
C761 C762 1.366 . S
C761 H795 0.929 . S
C762 C761 1.366 . S
C762 C763 1.415 . S
C762 H796 0.932 . S
C763 C762 1.415 . S
C763 C764 1.366 . S
C763 H797 0.931 . S
C764 N759 1.325 . S
C764 C763 1.366 . S
C764 C768 1.516 . S
N765 Co723 1.974 . S
N765 C766 1.309 . S
N765 C771 1.423 . S
C766 C760 1.504 . S
C766 N765 1.309 . S
C766 O767 1.258 . S
O767 C766 1.258 . S
C768 N741 1.316 . S
C768 C764 1.516 . S
C768 O781 1.263 . S
O769 Cd712 2.350 . S
O769 C785 1.270 . S
O770 Cd712 2.277 . S
O770 C785 1.248 . S
C771 N765 1.423 . S
C771 C772 1.370 . S
C771 C776 1.403 . S
C772 C771 1.370 . S
C772 C773 1.389 . S
C772 H798 0.931 . S
C773 C772 1.389 . S
C773 C774 1.389 . S
C774 C773 1.389 . S
C774 C775 1.379 . S
C774 H799 0.929 . S
C775 C774 1.379 . S
C775 C776 1.405 . S
C776 C771 1.403 . S
C776 C775 1.405 . S
C776 H800 0.932 . S
O777 Cd712 2.173 . S
O777 C713 1.277 . S
O778 C713 1.230 . S
O778 Cd716 2.250 . S
O779 Cd712 2.263 . S
O779 C732 1.258 . S
O780 Cd716 2.308 . S
O780 C732 1.274 . S
O781 Cd712 2.366 . S
O781 C768 1.263 . S
C782 O783 1.235 . S
C782 O784 1.270 1_545 S
O783 Cd716 2.352 1_545 S
O783 C782 1.235 . S
O784 Cd712 2.329 . S
O784 C782 1.270 1_565 S
C785 O769 1.270 . S
C785 O770 1.248 . S
H786 C718 0.930 . S
H787 C721 0.930 . S
H788 C722 0.931 . S
H789 C727 0.929 . S
H790 C729 0.930 . S
H791 C731 0.930 . S
H792 C734 0.929 . S
H793 C735 0.932 . S
H794 C737 0.930 . S
H795 C761 0.929 . S
H796 C762 0.932 . S
H797 C763 0.931 . S
H798 C772 0.931 . S
H799 C774 0.929 . S
H800 C776 0.932 . S
Cd801 O858 2.350 . S
Cd801 O859 2.277 . S
Cd801 O866 2.173 . S
Cd801 O868 2.263 . S
Cd801 O870 2.366 . S
Cd801 O873 2.329 . S
C802 O866 1.277 . S
C802 O867 1.230 . S
C803 O804 1.246 . S
C803 C806 1.481 . S
C803 N828 1.329 . S
O804 C803 1.246 . S
Cd805 O867 2.250 . S
Cd805 O869 2.308 . S
Cd805 O872 2.352 . S
C806 C803 1.481 . S
C806 N809 1.327 . S
C806 C810 1.407 . S
C807 C808 1.346 . S
C807 C811 1.390 . S
C807 H875 0.930 . S
C808 C807 1.346 . S
C808 N809 1.342 . S
C808 C813 1.516 . S
N809 C806 1.327 . S
N809 C808 1.342 . S
N809 Co812 1.864 . S
C810 C806 1.407 . S
C810 C811 1.364 . S
C810 H876 0.930 . S
C811 C807 1.390 . S
C811 C810 1.364 . S
C811 H877 0.931 . S
Co812 N809 1.864 . S
Co812 N828 1.955 . S
Co812 N829 1.958 . S
Co812 N830 1.953 . S
Co812 N848 1.869 . S
Co812 N854 1.974 . S
C813 C808 1.516 . S
C813 O814 1.238 . S
C813 N829 1.324 . S
O814 C813 1.238 . S
C815 C816 1.394 . S
C815 C820 1.395 . S
C815 N829 1.427 . S
C816 C815 1.394 . S
C816 C817 1.380 . S
C816 H878 0.929 . S
C817 C816 1.380 . S
C817 C818 1.384 . S
C817 C821 1.495 . S
C818 C817 1.384 . S
C818 C819 1.382 . S
C818 H879 0.930 . S
C819 C818 1.382 . S
C819 C820 1.398 . S
C820 C815 1.395 . S
C820 C819 1.398 . S
C820 H880 0.930 . S
C821 C817 1.495 . S
C821 O868 1.258 . S
C821 O869 1.274 . S
C822 C823 1.385 . S
C822 C824 1.381 . S
C822 N828 1.432 . S
C823 C822 1.385 . S
C823 C827 1.388 . S
C823 H881 0.929 . S
C824 C822 1.381 . S
C824 C825 1.371 . S
C824 H882 0.932 . S
C825 C824 1.371 . S
C825 C826 1.400 . S
C826 C825 1.400 . S
C826 C827 1.351 . S
C826 H883 0.930 . S
C827 C823 1.388 . S
C827 C826 1.351 . S
N828 C803 1.329 . S
N828 Co812 1.955 . S
N828 C822 1.432 . S
N829 Co812 1.958 . S
N829 C813 1.324 . S
N829 C815 1.427 . S
N830 Co812 1.953 . S
N830 C831 1.436 . S
N830 C857 1.316 . S
C831 N830 1.436 . S
C831 C832 1.421 . S
C831 C833 1.360 . S
C832 C831 1.421 . S
C832 C834 1.379 . S
C832 H835 0.929 . S
C833 C831 1.360 . S
C833 C837 1.393 . S
C833 H839 0.931 . S
C834 C832 1.379 . S
C834 C836 1.417 . S
C834 C838 1.505 1_556 S
H835 C832 0.929 . S
C836 C834 1.417 . S
C836 C837 1.352 . S
C836 H840 0.929 . S
C837 C833 1.393 . S
C837 C836 1.352 . S
C837 C841 1.482 . S
C838 C834 1.505 1_554 S
C838 O842 1.259 . S
C838 O843 1.229 . S
H839 C833 0.931 . S
H840 C836 0.929 . S
C841 C837 1.482 . S
C841 O844 1.207 . S
C841 O845 1.289 . S
O842 C838 1.259 . S
O842 H846 0.822 . S
O843 C838 1.229 . S
O844 C841 1.207 . S
O845 C841 1.289 . S
O845 H847 0.819 . S
H846 O842 0.822 . S
H847 O845 0.819 . S
N848 Co812 1.869 . S
N848 C849 1.330 . S
N848 C853 1.325 . S
C849 N848 1.330 . S
C849 C850 1.359 . S
C849 C855 1.504 . S
C850 C849 1.359 . S
C850 C851 1.366 . S
C850 H884 0.929 . S
C851 C850 1.366 . S
C851 C852 1.415 . S
C851 H885 0.932 . S
C852 C851 1.415 . S
C852 C853 1.366 . S
C852 H886 0.931 . S
C853 N848 1.325 . S
C853 C852 1.366 . S
C853 C857 1.516 . S
N854 Co812 1.974 . S
N854 C855 1.309 . S
N854 C860 1.423 . S
C855 C849 1.504 . S
C855 N854 1.309 . S
C855 O856 1.258 . S
O856 C855 1.258 . S
C857 N830 1.316 . S
C857 C853 1.516 . S
C857 O870 1.263 . S
O858 Cd801 2.350 . S
O858 C874 1.270 . S
O859 Cd801 2.277 . S
O859 C874 1.248 . S
C860 N854 1.423 . S
C860 C861 1.370 . S
C860 C865 1.403 . S
C861 C860 1.370 . S
C861 C862 1.389 . S
C861 H887 0.931 . S
C862 C861 1.389 . S
C862 C863 1.389 . S
C863 C862 1.389 . S
C863 C864 1.379 . S
C863 H888 0.929 . S
C864 C863 1.379 . S
C864 C865 1.405 . S
C865 C860 1.403 . S
C865 C864 1.405 . S
C865 H889 0.932 . S
O866 Cd801 2.173 . S
O866 C802 1.277 . S
O867 C802 1.230 . S
O867 Cd805 2.250 . S
O868 Cd801 2.263 . S
O868 C821 1.258 . S
O869 Cd805 2.308 . S
O869 C821 1.274 . S
O870 Cd801 2.366 . S
O870 C857 1.263 . S
C871 O872 1.235 . S
C871 O873 1.270 . S
O872 Cd805 2.352 . S
O872 C871 1.235 . S
O873 Cd801 2.329 . S
O873 C871 1.270 . S
C874 O858 1.270 . S
C874 O859 1.248 . S
H875 C807 0.930 . S
H876 C810 0.930 . S
H877 C811 0.931 . S
H878 C816 0.929 . S
H879 C818 0.930 . S
H880 C820 0.930 . S
H881 C823 0.929 . S
H882 C824 0.932 . S
H883 C826 0.930 . S
H884 C850 0.929 . S
H885 C851 0.932 . S
H886 C852 0.931 . S
H887 C861 0.931 . S
H888 C863 0.929 . S
H889 C865 0.932 . S
Cd890 O947 2.350 . S
Cd890 O948 2.277 . S
Cd890 O955 2.173 . S
Cd890 O957 2.263 . S
Cd890 O959 2.366 . S
Cd890 O962 2.329 . S
C891 O955 1.277 . S
C891 O956 1.230 . S
C892 O893 1.246 . S
C892 C895 1.481 . S
C892 N917 1.329 . S
O893 C892 1.246 . S
Cd894 O956 2.250 . S
Cd894 O958 2.308 . S
Cd894 O961 2.352 1_455 S
C895 C892 1.481 . S
C895 N898 1.327 . S
C895 C899 1.407 . S
C896 C897 1.346 . S
C896 C900 1.390 . S
C896 H964 0.930 . S
C897 C896 1.346 . S
C897 N898 1.342 . S
C897 C902 1.516 . S
N898 C895 1.327 . S
N898 C897 1.342 . S
N898 Co901 1.864 . S
C899 C895 1.407 . S
C899 C900 1.364 . S
C899 H965 0.930 . S
C900 C896 1.390 . S
C900 C899 1.364 . S
C900 H966 0.931 . S
Co901 N898 1.864 . S
Co901 N917 1.955 . S
Co901 N918 1.958 . S
Co901 N919 1.953 . S
Co901 N937 1.869 . S
Co901 N943 1.974 . S
C902 C897 1.516 . S
C902 O903 1.238 . S
C902 N918 1.324 . S
O903 C902 1.238 . S
C904 C905 1.394 . S
C904 C909 1.395 . S
C904 N918 1.427 . S
C905 C904 1.394 . S
C905 C906 1.380 . S
C905 H967 0.929 . S
C906 C905 1.380 . S
C906 C907 1.384 . S
C906 C910 1.495 . S
C907 C906 1.384 . S
C907 C908 1.382 . S
C907 H968 0.930 . S
C908 C907 1.382 . S
C908 C909 1.398 . S
C909 C904 1.395 . S
C909 C908 1.398 . S
C909 H969 0.930 . S
C910 C906 1.495 . S
C910 O957 1.258 . S
C910 O958 1.274 . S
C911 C912 1.385 . S
C911 C913 1.381 . S
C911 N917 1.432 . S
C912 C911 1.385 . S
C912 C916 1.388 . S
C912 H970 0.929 . S
C913 C911 1.381 . S
C913 C914 1.371 . S
C913 H971 0.932 . S
C914 C913 1.371 . S
C914 C915 1.400 . S
C915 C914 1.400 . S
C915 C916 1.351 . S
C915 H972 0.930 . S
C916 C912 1.388 . S
C916 C915 1.351 . S
N917 C892 1.329 . S
N917 Co901 1.955 . S
N917 C911 1.432 . S
N918 Co901 1.958 . S
N918 C902 1.324 . S
N918 C904 1.427 . S
N919 Co901 1.953 . S
N919 C920 1.436 . S
N919 C946 1.316 . S
C920 N919 1.436 . S
C920 C921 1.421 . S
C920 C922 1.360 . S
C921 C920 1.421 . S
C921 C923 1.379 . S
C921 H924 0.929 . S
C922 C920 1.360 . S
C922 C926 1.393 . S
C922 H928 0.931 . S
C923 C921 1.379 . S
C923 C925 1.417 . S
C923 C927 1.505 . S
H924 C921 0.929 . S
C925 C923 1.417 . S
C925 C926 1.352 . S
C925 H929 0.929 . S
C926 C922 1.393 . S
C926 C925 1.352 . S
C926 C930 1.482 . S
C927 C923 1.505 . S
C927 O931 1.259 . S
C927 O932 1.229 . S
H928 C922 0.931 . S
H929 C925 0.929 . S
C930 C926 1.482 . S
C930 O933 1.207 . S
C930 O934 1.289 . S
O931 C927 1.259 . S
O931 H935 0.822 . S
O932 C927 1.229 . S
O933 C930 1.207 . S
O934 C930 1.289 . S
O934 H936 0.819 . S
H935 O931 0.822 . S
H936 O934 0.819 . S
N937 Co901 1.869 . S
N937 C938 1.330 . S
N937 C942 1.325 . S
C938 N937 1.330 . S
C938 C939 1.359 . S
C938 C944 1.504 . S
C939 C938 1.359 . S
C939 C940 1.366 . S
C939 H973 0.929 . S
C940 C939 1.366 . S
C940 C941 1.415 . S
C940 H974 0.932 . S
C941 C940 1.415 . S
C941 C942 1.366 . S
C941 H975 0.931 . S
C942 N937 1.325 . S
C942 C941 1.366 . S
C942 C946 1.516 . S
N943 Co901 1.974 . S
N943 C944 1.309 . S
N943 C949 1.423 . S
C944 C938 1.504 . S
C944 N943 1.309 . S
C944 O945 1.258 . S
O945 C944 1.258 . S
C946 N919 1.316 . S
C946 C942 1.516 . S
C946 O959 1.263 . S
O947 Cd890 2.350 . S
O947 C963 1.270 . S
O948 Cd890 2.277 . S
O948 C963 1.248 . S
C949 N943 1.423 . S
C949 C950 1.370 . S
C949 C954 1.403 . S
C950 C949 1.370 . S
C950 C951 1.389 . S
C950 H976 0.931 . S
C951 C950 1.389 . S
C951 C952 1.389 . S
C952 C951 1.389 . S
C952 C953 1.379 . S
C952 H977 0.929 . S
C953 C952 1.379 . S
C953 C954 1.405 . S
C954 C949 1.403 . S
C954 C953 1.405 . S
C954 H978 0.932 . S
O955 Cd890 2.173 . S
O955 C891 1.277 . S
O956 C891 1.230 . S
O956 Cd894 2.250 . S
O957 Cd890 2.263 . S
O957 C910 1.258 . S
O958 Cd894 2.308 . S
O958 C910 1.274 . S
O959 Cd890 2.366 . S
O959 C946 1.263 . S
C960 O961 1.235 . S
C960 O962 1.270 1_655 S
O961 Cd894 2.352 1_655 S
O961 C960 1.235 . S
O962 Cd890 2.329 . S
O962 C960 1.270 1_455 S
C963 O947 1.270 . S
C963 O948 1.248 . S
H964 C896 0.930 . S
H965 C899 0.930 . S
H966 C900 0.931 . S
H967 C905 0.929 . S
H968 C907 0.930 . S
H969 C909 0.930 . S
H970 C912 0.929 . S
H971 C913 0.932 . S
H972 C915 0.930 . S
H973 C939 0.929 . S
H974 C940 0.932 . S
H975 C941 0.931 . S
H976 C950 0.931 . S
H977 C952 0.929 . S
H978 C954 0.932 . S
Cd979 O1036 2.350 . S
Cd979 O1037 2.277 . S
Cd979 O1044 2.173 . S
Cd979 O1046 2.263 . S
Cd979 O1048 2.366 . S
Cd979 O1051 2.329 . S
C980 O1044 1.277 . S
C980 O1045 1.230 . S
C981 O982 1.246 . S
C981 C984 1.481 . S
C981 N1006 1.329 . S
O982 C981 1.246 . S
Cd983 O1045 2.250 . S
Cd983 O1047 2.308 . S
Cd983 O1050 2.352 1_545 S
C984 C981 1.481 . S
C984 N987 1.327 . S
C984 C988 1.407 . S
C985 C986 1.346 . S
C985 C989 1.390 . S
C985 H1053 0.930 . S
C986 C985 1.346 . S
C986 N987 1.342 . S
C986 C991 1.516 . S
N987 C984 1.327 . S
N987 C986 1.342 . S
N987 Co990 1.864 . S
C988 C984 1.407 . S
C988 C989 1.364 . S
C988 H1054 0.930 . S
C989 C985 1.390 . S
C989 C988 1.364 . S
C989 H1055 0.931 . S
Co990 N987 1.864 . S
Co990 N1006 1.955 . S
Co990 N1007 1.958 . S
Co990 N1008 1.953 . S
Co990 N1026 1.869 . S
Co990 N1032 1.974 . S
C991 C986 1.516 . S
C991 O992 1.238 . S
C991 N1007 1.324 . S
O992 C991 1.238 . S
C993 C994 1.394 . S
C993 C998 1.395 . S
C993 N1007 1.427 . S
C994 C993 1.394 . S
C994 C995 1.380 . S
C994 H1056 0.929 . S
C995 C994 1.380 . S
C995 C996 1.384 . S
C995 C999 1.495 . S
C996 C995 1.384 . S
C996 C997 1.382 . S
C996 H1057 0.930 . S
C997 C996 1.382 . S
C997 C998 1.398 . S
C998 C993 1.395 . S
C998 C997 1.398 . S
C998 H1058 0.930 . S
C999 C995 1.495 . S
C999 O1046 1.258 . S
C999 O1047 1.274 . S
C1000 C1001 1.385 . S
C1000 C1002 1.381 . S
C1000 N1006 1.432 . S
C1001 C1000 1.385 . S
C1001 C1005 1.388 . S
C1001 H1059 0.929 . S
C1002 C1000 1.381 . S
C1002 C1003 1.371 . S
C1002 H1060 0.932 . S
C1003 C1002 1.371 . S
C1003 C1004 1.400 . S
C1004 C1003 1.400 . S
C1004 C1005 1.351 . S
C1004 H1061 0.930 . S
C1005 C1001 1.388 . S
C1005 C1004 1.351 . S
N1006 C981 1.329 . S
N1006 Co990 1.955 . S
N1006 C1000 1.432 . S
N1007 Co990 1.958 . S
N1007 C991 1.324 . S
N1007 C993 1.427 . S
N1008 Co990 1.953 . S
N1008 C1009 1.436 . S
N1008 C1035 1.316 . S
C1009 N1008 1.436 . S
C1009 C1010 1.421 . S
C1009 C1011 1.360 . S
C1010 C1009 1.421 . S
C1010 C1012 1.379 . S
C1010 H1013 0.929 . S
C1011 C1009 1.360 . S
C1011 C1015 1.393 . S
C1011 H1017 0.931 . S
C1012 C1010 1.379 . S
C1012 C1014 1.417 . S
C1012 C1016 1.505 1_556 S
H1013 C1010 0.929 . S
C1014 C1012 1.417 . S
C1014 C1015 1.352 . S
C1014 H1018 0.929 . S
C1015 C1011 1.393 . S
C1015 C1014 1.352 . S
C1015 C1019 1.482 . S
C1016 C1012 1.505 1_554 S
C1016 O1020 1.259 . S
C1016 O1021 1.229 . S
H1017 C1011 0.931 . S
H1018 C1014 0.929 . S
C1019 C1015 1.482 . S
C1019 O1022 1.207 . S
C1019 O1023 1.289 . S
O1020 C1016 1.259 . S
O1020 H1024 0.822 . S
O1021 C1016 1.229 . S
O1022 C1019 1.207 . S
O1023 C1019 1.289 . S
O1023 H1025 0.819 . S
H1024 O1020 0.822 . S
H1025 O1023 0.819 . S
N1026 Co990 1.869 . S
N1026 C1027 1.330 . S
N1026 C1031 1.325 . S
C1027 N1026 1.330 . S
C1027 C1028 1.359 . S
C1027 C1033 1.504 . S
C1028 C1027 1.359 . S
C1028 C1029 1.366 . S
C1028 H1062 0.929 . S
C1029 C1028 1.366 . S
C1029 C1030 1.415 . S
C1029 H1063 0.932 . S
C1030 C1029 1.415 . S
C1030 C1031 1.366 . S
C1030 H1064 0.931 . S
C1031 N1026 1.325 . S
C1031 C1030 1.366 . S
C1031 C1035 1.516 . S
N1032 Co990 1.974 . S
N1032 C1033 1.309 . S
N1032 C1038 1.423 . S
C1033 C1027 1.504 . S
C1033 N1032 1.309 . S
C1033 O1034 1.258 . S
O1034 C1033 1.258 . S
C1035 N1008 1.316 . S
C1035 C1031 1.516 . S
C1035 O1048 1.263 . S
O1036 Cd979 2.350 . S
O1036 C1052 1.270 . S
O1037 Cd979 2.277 . S
O1037 C1052 1.248 . S
C1038 N1032 1.423 . S
C1038 C1039 1.370 . S
C1038 C1043 1.403 . S
C1039 C1038 1.370 . S
C1039 C1040 1.389 . S
C1039 H1065 0.931 . S
C1040 C1039 1.389 . S
C1040 C1041 1.389 . S
C1041 C1040 1.389 . S
C1041 C1042 1.379 . S
C1041 H1066 0.929 . S
C1042 C1041 1.379 . S
C1042 C1043 1.405 . S
C1043 C1038 1.403 . S
C1043 C1042 1.405 . S
C1043 H1067 0.932 . S
O1044 Cd979 2.173 . S
O1044 C980 1.277 . S
O1045 C980 1.230 . S
O1045 Cd983 2.250 . S
O1046 Cd979 2.263 . S
O1046 C999 1.258 . S
O1047 Cd983 2.308 . S
O1047 C999 1.274 . S
O1048 Cd979 2.366 . S
O1048 C1035 1.263 . S
C1049 O1050 1.235 . S
C1049 O1051 1.270 1_565 S
O1050 Cd983 2.352 1_565 S
O1050 C1049 1.235 . S
O1051 Cd979 2.329 . S
O1051 C1049 1.270 1_545 S
C1052 O1036 1.270 . S
C1052 O1037 1.248 . S
H1053 C985 0.930 . S
H1054 C988 0.930 . S
H1055 C989 0.931 . S
H1056 C994 0.929 . S
H1057 C996 0.930 . S
H1058 C998 0.930 . S
H1059 C1001 0.929 . S
H1060 C1002 0.932 . S
H1061 C1004 0.930 . S
H1062 C1028 0.929 . S
H1063 C1029 0.932 . S
H1064 C1030 0.931 . S
H1065 C1039 0.931 . S
H1066 C1041 0.929 . S
H1067 C1043 0.932 . S
C1068 C1069 1.387 . S
C1068 H1072 0.950 . S
C1068 C1077 1.390 . S
C1069 C1068 1.387 . S
C1069 C1071 1.387 . S
H1070 C1077 0.950 . S
C1071 C1069 1.387 . S
C1071 C1073 1.390 . S
C1071 H1075 0.950 . S
H1072 C1068 0.950 . S
C1073 C1071 1.390 . S
C1073 C1074 1.387 . S
C1073 H1076 0.950 . S
C1074 C1073 1.387 . S
C1074 C1077 1.387 . S
H1075 C1071 0.950 . S
H1076 C1073 0.950 . S
C1077 C1068 1.390 . S
C1077 H1070 0.950 . S
C1077 C1074 1.387 . S
C1078 C1079 1.387 . S
C1078 H1082 0.950 . S
C1078 C1087 1.390 . S
C1079 C1078 1.387 . S
C1079 C1081 1.387 . S
H1080 C1087 0.950 . S
C1081 C1079 1.387 . S
C1081 C1083 1.390 . S
C1081 H1085 0.950 . S
H1082 C1078 0.950 . S
C1083 C1081 1.390 . S
C1083 C1084 1.387 . S
C1083 H1086 0.950 . S
C1084 C1083 1.387 . S
C1084 C1087 1.387 . S
H1085 C1081 0.950 . S
H1086 C1083 0.950 . S
C1087 C1078 1.390 . S
C1087 H1080 0.950 . S
C1087 C1084 1.387 . S
C1088 C1089 1.387 . S
C1088 H1092 0.950 . S
C1088 C1097 1.390 . S
C1089 C1088 1.387 . S
C1089 C1091 1.387 . S
H1090 C1097 0.950 . S
C1091 C1089 1.387 . S
C1091 C1093 1.390 . S
C1091 H1095 0.950 . S
H1092 C1088 0.950 . S
C1093 C1091 1.390 . S
C1093 C1094 1.387 . S
C1093 H1096 0.950 . S
C1094 C1093 1.387 . S
C1094 C1097 1.387 . S
H1095 C1091 0.950 . S
H1096 C1093 0.950 . S
C1097 C1088 1.390 . S
C1097 H1090 0.950 . S
C1097 C1094 1.387 . S
C1098 C1099 1.387 . S
C1098 H1102 0.950 . S
C1098 C1107 1.390 . S
C1099 C1098 1.387 . S
C1099 C1101 1.387 . S
H1100 C1107 0.950 . S
C1101 C1099 1.387 . S
C1101 C1103 1.390 . S
C1101 H1105 0.950 . S
H1102 C1098 0.950 . S
C1103 C1101 1.390 . S
C1103 C1104 1.387 . S
C1103 H1106 0.950 . S
C1104 C1103 1.387 . S
C1104 C1107 1.387 . S
H1105 C1101 0.950 . S
H1106 C1103 0.950 . S
C1107 C1098 1.390 . S
C1107 H1100 0.950 . S
C1107 C1104 1.387 . S
C1108 C1109 1.387 . S
C1108 H1112 0.950 . S
C1108 C1117 1.390 . S
C1109 C1108 1.387 . S
C1109 C1111 1.387 . S
H1110 C1117 0.950 . S
C1111 C1109 1.387 . S
C1111 C1113 1.390 . S
C1111 H1115 0.950 . S
H1112 C1108 0.950 . S
C1113 C1111 1.390 . S
C1113 C1114 1.387 . S
C1113 H1116 0.950 . S
C1114 C1113 1.387 . S
C1114 C1117 1.387 . S
H1115 C1111 0.950 . S
H1116 C1113 0.950 . S
C1117 C1108 1.390 . S
C1117 H1110 0.950 . S
C1117 C1114 1.387 . S
C1118 C1119 1.387 . S
C1118 H1122 0.950 . S
C1118 C1127 1.390 . S
C1119 C1118 1.387 . S
C1119 C1121 1.387 . S
H1120 C1127 0.950 . S
C1121 C1119 1.387 . S
C1121 C1123 1.390 . S
C1121 H1125 0.950 . S
H1122 C1118 0.950 . S
C1123 C1121 1.390 . S
C1123 C1124 1.387 . S
C1123 H1126 0.950 . S
C1124 C1123 1.387 . S
C1124 C1127 1.387 . S
H1125 C1121 0.950 . S
H1126 C1123 0.950 . S
C1127 C1118 1.390 . S
C1127 H1120 0.950 . S
C1127 C1124 1.387 . S
C1128 C1129 1.387 . S
C1128 H1132 0.950 . S
C1128 C1137 1.390 . S
C1129 C1128 1.387 . S
C1129 C1131 1.387 . S
H1130 C1137 0.950 . S
C1131 C1129 1.387 . S
C1131 C1133 1.390 . S
C1131 H1135 0.950 . S
H1132 C1128 0.950 . S
C1133 C1131 1.390 . S
C1133 C1134 1.387 . S
C1133 H1136 0.950 . S
C1134 C1133 1.387 . S
C1134 C1137 1.387 . S
H1135 C1131 0.950 . S
H1136 C1133 0.950 . S
C1137 C1128 1.390 . S
C1137 H1130 0.950 . S
C1137 C1134 1.387 . S
C1138 C1139 1.387 . S
C1138 H1142 0.950 . S
C1138 C1147 1.390 . S
C1139 C1138 1.387 . S
C1139 C1141 1.387 . S
H1140 C1147 0.950 . S
C1141 C1139 1.387 . S
C1141 C1143 1.390 . S
C1141 H1145 0.950 . S
H1142 C1138 0.950 . S
C1143 C1141 1.390 . S
C1143 C1144 1.387 . S
C1143 H1146 0.950 . S
C1144 C1143 1.387 . S
C1144 C1147 1.387 . S
H1145 C1141 0.950 . S
H1146 C1143 0.950 . S
C1147 C1138 1.390 . S
C1147 H1140 0.950 . S
C1147 C1144 1.387 . S
C1148 C1149 1.387 . S
C1148 H1152 0.950 . S
C1148 C1157 1.390 . S
C1149 C1148 1.387 . S
C1149 C1151 1.387 . S
H1150 C1157 0.950 . S
C1151 C1149 1.387 . S
C1151 C1153 1.390 . S
C1151 H1155 0.950 . S
H1152 C1148 0.950 . S
C1153 C1151 1.390 . S
C1153 C1154 1.387 . S
C1153 H1156 0.950 . S
C1154 C1153 1.387 . S
C1154 C1157 1.387 . S
H1155 C1151 0.950 . S
H1156 C1153 0.950 . S
C1157 C1148 1.390 . S
C1157 H1150 0.950 . S
C1157 C1154 1.387 . S
C1158 C1159 1.387 . S
C1158 H1162 0.950 . S
C1158 C1167 1.390 . S
C1159 C1158 1.387 . S
C1159 C1161 1.387 . S
H1160 C1167 0.950 . S
C1161 C1159 1.387 . S
C1161 C1163 1.390 . S
C1161 H1165 0.950 . S
H1162 C1158 0.950 . S
C1163 C1161 1.390 . S
C1163 C1164 1.387 . S
C1163 H1166 0.950 . S
C1164 C1163 1.387 . S
C1164 C1167 1.387 . S
H1165 C1161 0.950 . S
H1166 C1163 0.950 . S
C1167 C1158 1.390 . S
C1167 H1160 0.950 . S
C1167 C1164 1.387 . S
C1168 C1169 1.387 . S
C1168 H1172 0.950 . S
C1168 C1177 1.390 . S
C1169 C1168 1.387 . S
C1169 C1171 1.387 . S
H1170 C1177 0.950 . S
C1171 C1169 1.387 . S
C1171 C1173 1.390 . S
C1171 H1175 0.950 . S
H1172 C1168 0.950 . S
C1173 C1171 1.390 . S
C1173 C1174 1.387 . S
C1173 H1176 0.950 . S
C1174 C1173 1.387 . S
C1174 C1177 1.387 . S
H1175 C1171 0.950 . S
H1176 C1173 0.950 . S
C1177 C1168 1.390 . S
C1177 H1170 0.950 . S
C1177 C1174 1.387 . S
C1178 C1179 1.387 . S
C1178 H1182 0.950 . S
C1178 C1187 1.390 . S
C1179 C1178 1.387 . S
C1179 C1181 1.387 . S
H1180 C1187 0.950 . S
C1181 C1179 1.387 . S
C1181 C1183 1.390 . S
C1181 H1185 0.950 . S
H1182 C1178 0.950 . S
C1183 C1181 1.390 . S
C1183 C1184 1.387 . S
C1183 H1186 0.950 . S
C1184 C1183 1.387 . S
C1184 C1187 1.387 . S
H1185 C1181 0.950 . S
H1186 C1183 0.950 . S
C1187 C1178 1.390 . S
C1187 H1180 0.950 . S
C1187 C1184 1.387 . S
C1188 C1189 1.387 . S
C1188 H1192 0.950 . S
C1188 C1197 1.390 . S
C1189 C1188 1.387 . S
C1189 C1191 1.387 . S
H1190 C1197 0.950 . S
C1191 C1189 1.387 . S
C1191 C1193 1.390 . S
C1191 H1195 0.950 . S
H1192 C1188 0.950 . S
C1193 C1191 1.390 . S
C1193 C1194 1.387 . S
C1193 H1196 0.950 . S
C1194 C1193 1.387 . S
C1194 C1197 1.387 . S
H1195 C1191 0.950 . S
H1196 C1193 0.950 . S
C1197 C1188 1.390 . S
C1197 H1190 0.950 . S
C1197 C1194 1.387 . S
C1198 C1199 1.387 . S
C1198 H1202 0.950 . S
C1198 C1207 1.390 . S
C1199 C1198 1.387 . S
C1199 C1201 1.387 . S
H1200 C1207 0.950 . S
C1201 C1199 1.387 . S
C1201 C1203 1.390 . S
C1201 H1205 0.950 . S
H1202 C1198 0.950 . S
C1203 C1201 1.390 . S
C1203 C1204 1.387 . S
C1203 H1206 0.950 . S
C1204 C1203 1.387 . S
C1204 C1207 1.387 . S
H1205 C1201 0.950 . S
H1206 C1203 0.950 . S
C1207 C1198 1.390 . S
C1207 H1200 0.950 . S
C1207 C1204 1.387 . S
C1208 C1209 1.387 . S
C1208 H1212 0.950 . S
C1208 C1217 1.390 . S
C1209 C1208 1.387 . S
C1209 C1211 1.387 . S
H1210 C1217 0.950 . S
C1211 C1209 1.387 . S
C1211 C1213 1.390 . S
C1211 H1215 0.950 . S
H1212 C1208 0.950 . S
C1213 C1211 1.390 . S
C1213 C1214 1.387 . S
C1213 H1216 0.950 . S
C1214 C1213 1.387 . S
C1214 C1217 1.387 . S
H1215 C1211 0.950 . S
H1216 C1213 0.950 . S
C1217 C1208 1.390 . S
C1217 H1210 0.950 . S
C1217 C1214 1.387 . S
C1218 C1219 1.387 . S
C1218 H1222 0.950 . S
C1218 C1227 1.390 . S
C1219 C1218 1.387 . S
C1219 C1221 1.387 . S
H1220 C1227 0.950 . S
C1221 C1219 1.387 . S
C1221 C1223 1.390 . S
C1221 H1225 0.950 . S
H1222 C1218 0.950 . S
C1223 C1221 1.390 . S
C1223 C1224 1.387 . S
C1223 H1226 0.950 . S
C1224 C1223 1.387 . S
C1224 C1227 1.387 . S
H1225 C1221 0.950 . S
H1226 C1223 0.950 . S
C1227 C1218 1.390 . S
C1227 H1220 0.950 . S
C1227 C1224 1.387 . S
C1228 C1229 1.387 . S
C1228 H1232 0.950 . S
C1228 C1237 1.390 . S
C1229 C1228 1.387 . S
C1229 C1231 1.387 . S
H1230 C1237 0.950 . S
C1231 C1229 1.387 . S
C1231 C1233 1.390 . S
C1231 H1235 0.950 . S
H1232 C1228 0.950 . S
C1233 C1231 1.390 . S
C1233 C1234 1.387 . S
C1233 H1236 0.950 . S
C1234 C1233 1.387 . S
C1234 C1237 1.387 . S
H1235 C1231 0.950 . S
H1236 C1233 0.950 . S
C1237 C1228 1.390 . S
C1237 H1230 0.950 . S
C1237 C1234 1.387 . S
C1238 C1239 1.387 . S
C1238 H1242 0.950 . S
C1238 C1247 1.390 . S
C1239 C1238 1.387 . S
C1239 C1241 1.387 . S
H1240 C1247 0.950 . S
C1241 C1239 1.387 . S
C1241 C1243 1.390 . S
C1241 H1245 0.950 . S
H1242 C1238 0.950 . S
C1243 C1241 1.390 . S
C1243 C1244 1.387 . S
C1243 H1246 0.950 . S
C1244 C1243 1.387 . S
C1244 C1247 1.387 . S
H1245 C1241 0.950 . S
H1246 C1243 0.950 . S
C1247 C1238 1.390 . S
C1247 H1240 0.950 . S
C1247 C1244 1.387 . S
C1248 C1249 1.387 . S
C1248 H1252 0.950 . S
C1248 C1257 1.390 1_556 S
C1249 C1248 1.387 . S
C1249 C1251 1.387 . S
H1250 C1257 0.950 . S
C1251 C1249 1.387 . S
C1251 C1253 1.390 1_556 S
C1251 H1255 0.950 . S
H1252 C1248 0.950 . S
C1253 C1251 1.390 1_554 S
C1253 C1254 1.387 . S
C1253 H1256 0.950 . S
C1254 C1253 1.387 . S
C1254 C1257 1.387 . S
H1255 C1251 0.950 . S
H1256 C1253 0.950 . S
C1257 C1248 1.390 1_554 S
C1257 H1250 0.950 . S
C1257 C1254 1.387 . S
C1258 C1259 1.387 1_655 S
C1258 H1262 0.950 . S
C1258 C1267 1.390 . S
C1259 C1258 1.387 1_455 S
C1259 C1261 1.387 . S
H1260 C1267 0.950 . S
C1261 C1259 1.387 . S
C1261 C1263 1.390 . S
C1261 H1265 0.950 . S
H1262 C1258 0.950 . S
C1263 C1261 1.390 . S
C1263 C1264 1.387 1_455 S
C1263 H1266 0.950 . S
C1264 C1263 1.387 1_655 S
C1264 C1267 1.387 . S
H1265 C1261 0.950 . S
H1266 C1263 0.950 . S
C1267 C1258 1.390 . S
C1267 H1260 0.950 . S
C1267 C1264 1.387 . S
C1268 C1269 1.387 . S
C1268 H1272 0.950 . S
C1268 C1277 1.390 1_564 S
C1269 C1268 1.387 . S
C1269 C1271 1.387 . S
H1270 C1277 0.950 . S
C1271 C1269 1.387 . S
C1271 C1273 1.390 1_564 S
C1271 H1275 0.950 . S
H1272 C1268 0.950 . S
C1273 C1271 1.390 1_546 S
C1273 C1274 1.387 . S
C1273 H1276 0.950 . S
C1274 C1273 1.387 . S
C1274 C1277 1.387 . S
H1275 C1271 0.950 . S
H1276 C1273 0.950 . S
C1277 C1268 1.390 1_546 S
C1277 H1270 0.950 . S
C1277 C1274 1.387 . S
C1278 C1279 1.387 . S
C1278 H1282 0.950 . S
C1278 C1287 1.390 . S
C1279 C1278 1.387 . S
C1279 C1281 1.387 . S
H1280 C1287 0.950 . S
C1281 C1279 1.387 . S
C1281 C1283 1.390 . S
C1281 H1285 0.950 . S
H1282 C1278 0.950 . S
C1283 C1281 1.390 . S
C1283 C1284 1.387 . S
C1283 H1286 0.950 . S
C1284 C1283 1.387 . S
C1284 C1287 1.387 . S
H1285 C1281 0.950 . S
H1286 C1283 0.950 . S
C1287 C1278 1.390 . S
C1287 H1280 0.950 . S
C1287 C1284 1.387 . S
C1288 C1289 1.387 1_455 S
C1288 H1292 0.950 . S
C1288 C1297 1.390 1_556 S
C1289 C1288 1.387 1_655 S
C1289 C1291 1.387 . S
H1290 C1297 0.950 . S
C1291 C1289 1.387 . S
C1291 C1293 1.390 1_556 S
C1291 H1295 0.950 . S
H1292 C1288 0.950 . S
C1293 C1291 1.390 1_554 S
C1293 C1294 1.387 1_655 S
C1293 H1296 0.950 . S
C1294 C1293 1.387 1_455 S
C1294 C1297 1.387 . S
H1295 C1291 0.950 . S
H1296 C1293 0.950 . S
C1297 C1288 1.390 1_554 S
C1297 H1290 0.950 . S
C1297 C1294 1.387 . S
C1298 C1299 1.387 . S
C1298 H1302 0.950 . S
C1298 C1307 1.390 1_565 S
C1299 C1298 1.387 . S
C1299 C1301 1.387 . S
H1300 C1307 0.950 . S
C1301 C1299 1.387 . S
C1301 C1303 1.390 1_565 S
C1301 H1305 0.950 . S
H1302 C1298 0.950 . S
C1303 C1301 1.390 1_545 S
C1303 C1304 1.387 . S
C1303 H1306 0.950 . S
C1304 C1303 1.387 . S
C1304 C1307 1.387 . S
H1305 C1301 0.950 . S
H1306 C1303 0.950 . S
C1307 C1298 1.390 1_545 S
C1307 H1300 0.950 . S
C1307 C1304 1.387 . S
C1308 C1309 1.387 . S
C1308 H1312 0.950 . S
C1308 C1317 1.390 . S
C1309 C1308 1.387 . S
C1309 C1311 1.387 1_556 S
H1310 C1317 0.950 . S
C1311 C1309 1.387 1_554 S
C1311 C1313 1.390 . S
C1311 H1315 0.950 . S
H1312 C1308 0.950 . S
C1313 C1311 1.390 . S
C1313 C1314 1.387 . S
C1313 H1316 0.950 . S
C1314 C1313 1.387 . S
C1314 C1317 1.387 1_554 S
H1315 C1311 0.950 . S
H1316 C1313 0.950 . S
C1317 C1308 1.390 . S
C1317 H1310 0.950 . S
C1317 C1314 1.387 1_556 S
C1318 C1319 1.387 . S
C1318 H1322 0.950 . S
C1318 C1327 1.390 1_455 S
C1319 C1318 1.387 . S
C1319 C1321 1.387 . S
H1320 C1327 0.950 . S
C1321 C1319 1.387 . S
C1321 C1323 1.390 1_455 S
C1321 H1325 0.950 . S
H1322 C1318 0.950 . S
C1323 C1321 1.390 1_655 S
C1323 C1324 1.387 . S
C1323 H1326 0.950 . S
C1324 C1323 1.387 . S
C1324 C1327 1.387 . S
H1325 C1321 0.950 . S
H1326 C1323 0.950 . S
C1327 C1318 1.390 1_655 S
C1327 H1320 0.950 . S
C1327 C1324 1.387 . S
C1328 C1329 1.387 . S
C1328 H1332 0.950 . S
C1328 C1337 1.390 1_546 S
C1329 C1328 1.387 . S
C1329 C1331 1.387 . S
H1330 C1337 0.950 . S
C1331 C1329 1.387 . S
C1331 C1333 1.390 1_546 S
C1331 H1335 0.950 . S
H1332 C1328 0.950 . S
C1333 C1331 1.390 1_564 S
C1333 C1334 1.387 . S
C1333 H1336 0.950 . S
C1334 C1333 1.387 . S
C1334 C1337 1.387 . S
H1335 C1331 0.950 . S
H1336 C1333 0.950 . S
C1337 C1328 1.390 1_564 S
C1337 H1330 0.950 . S
C1337 C1334 1.387 . S
C1338 C1339 1.387 . S
C1338 H1342 0.950 . S
C1338 C1347 1.390 . S
C1339 C1338 1.387 . S
C1339 C1341 1.387 . S
H1340 C1347 0.950 . S
C1341 C1339 1.387 . S
C1341 C1343 1.390 . S
C1341 H1345 0.950 . S
H1342 C1338 0.950 . S
C1343 C1341 1.390 . S
C1343 C1344 1.387 . S
C1343 H1346 0.950 . S
C1344 C1343 1.387 . S
C1344 C1347 1.387 . S
H1345 C1341 0.950 . S
H1346 C1343 0.950 . S
C1347 C1338 1.390 . S
C1347 H1340 0.950 . S
C1347 C1344 1.387 . S
C1348 C1349 1.387 . S
C1348 H1352 0.950 . S
C1348 C1357 1.390 1_455 S
C1349 C1348 1.387 . S
C1349 C1351 1.387 1_554 S
H1350 C1357 0.950 . S
C1351 C1349 1.387 1_556 S
C1351 C1353 1.390 1_455 S
C1351 H1355 0.950 . S
H1352 C1348 0.950 . S
C1353 C1351 1.390 1_655 S
C1353 C1354 1.387 . S
C1353 H1356 0.950 . S
C1354 C1353 1.387 . S
C1354 C1357 1.387 1_556 S
H1355 C1351 0.950 . S
H1356 C1353 0.950 . S
C1357 C1348 1.390 1_655 S
C1357 H1350 0.950 . S
C1357 C1354 1.387 1_554 S
C1358 C1359 1.387 . S
C1358 H1362 0.950 . S
C1358 C1367 1.390 1_545 S
C1359 C1358 1.387 . S
C1359 C1361 1.387 . S
H1360 C1367 0.950 . S
C1361 C1359 1.387 . S
C1361 C1363 1.390 1_545 S
C1361 H1365 0.950 . S
H1362 C1358 0.950 . S
C1363 C1361 1.390 1_565 S
C1363 C1364 1.387 . S
C1363 H1366 0.950 . S
C1364 C1363 1.387 . S
C1364 C1367 1.387 . S
H1365 C1361 0.950 . S
H1366 C1363 0.950 . S
C1367 C1358 1.390 1_565 S
C1367 H1360 0.950 . S
C1367 C1364 1.387 . S
C1368 C1369 1.392 1_565 S
C1368 H1372 0.950 . S
C1368 C1377 1.390 1_565 S
C1369 C1368 1.392 1_545 S
C1369 C1371 1.410 . S
H1370 C1377 0.950 . S
C1371 C1369 1.410 . S
C1371 C1373 1.390 . S
C1371 H1375 0.950 . S
H1372 C1368 0.950 . S
C1373 C1371 1.390 . S
C1373 C1374 1.387 . S
C1373 H1376 0.950 . S
C1374 C1373 1.387 . S
C1374 C1377 1.387 . S
H1375 C1371 0.950 . S
H1376 C1373 0.950 . S
C1377 C1368 1.390 1_545 S
C1377 H1370 0.950 . S
C1377 C1374 1.387 . S
C1378 C1379 1.387 . S
C1378 H1382 0.950 . S
C1378 C1387 1.390 . S
C1379 C1378 1.387 . S
C1379 C1381 1.387 . S
H1380 C1387 0.950 . S
C1381 C1379 1.387 . S
C1381 C1383 1.390 . S
C1381 H1385 0.950 . S
H1382 C1378 0.950 . S
C1383 C1381 1.390 . S
C1383 C1384 1.387 . S
C1383 H1386 0.950 . S
C1384 C1383 1.387 . S
C1384 C1387 1.387 . S
H1385 C1381 0.950 . S
H1386 C1383 0.950 . S
C1387 C1378 1.390 . S
C1387 H1380 0.950 . S
C1387 C1384 1.387 . S
C1388 C1389 1.387 . S
C1388 H1392 0.950 . S
C1388 C1397 1.389 1_655 S
C1389 C1388 1.387 . S
C1389 C1391 1.387 . S
H1390 C1397 0.954 . S
C1391 C1389 1.387 . S
C1391 C1393 1.390 . S
C1391 H1395 0.950 . S
H1392 C1388 0.950 . S
C1393 C1391 1.390 . S
C1393 C1394 1.404 . S
C1393 H1396 0.950 . S
C1394 C1393 1.404 . S
C1394 C1397 1.374 1_655 S
H1395 C1391 0.950 . S
H1396 C1393 0.950 . S
C1397 C1388 1.389 1_455 S
C1397 H1390 0.954 . S
C1397 C1394 1.374 1_455 S
C1398 C1399 1.394 1_545 S
C1398 H1402 0.950 . S
C1398 C1407 1.390 1_545 S
C1399 C1398 1.394 1_565 S
C1399 C1401 1.403 . S
H1400 C1407 0.950 . S
C1401 C1399 1.403 . S
C1401 C1403 1.390 . S
C1401 H1405 0.950 . S
H1402 C1398 0.950 . S
C1403 C1401 1.390 . S
C1403 C1404 1.387 . S
C1403 H1406 0.950 . S
C1404 C1403 1.387 . S
C1404 C1407 1.387 . S
H1405 C1401 0.950 . S
H1406 C1403 0.950 . S
C1407 C1398 1.390 1_565 S
C1407 H1400 0.950 . S
C1407 C1404 1.387 . S
C1408 C1409 1.387 . S
C1408 H1412 0.950 . S
C1408 C1417 1.390 . S
C1409 C1408 1.387 . S
C1409 C1411 1.387 . S
H1410 C1417 0.950 . S
C1411 C1409 1.387 . S
C1411 C1413 1.390 . S
C1411 H1415 0.950 . S
H1412 C1408 0.950 . S
C1413 C1411 1.390 . S
C1413 C1414 1.387 . S
C1413 H1416 0.950 . S
C1414 C1413 1.387 . S
C1414 C1417 1.387 . S
H1415 C1411 0.950 . S
H1416 C1413 0.950 . S
C1417 C1408 1.390 . S
C1417 H1410 0.950 . S
C1417 C1414 1.387 . S
C1418 C1419 1.374 1_655 S
C1418 H1422 0.950 . S
C1418 C1427 1.390 1_655 S
C1419 C1418 1.374 1_455 S
C1419 C1421 1.407 . S
H1420 C1427 0.950 . S
C1421 C1419 1.407 . S
C1421 C1423 1.390 . S
C1421 H1425 0.950 . S
H1422 C1418 0.950 . S
C1423 C1421 1.390 . S
C1423 C1424 1.387 . S
C1423 H1426 0.950 . S
C1424 C1423 1.387 . S
C1424 C1427 1.387 . S
H1425 C1421 0.950 . S
H1426 C1423 0.950 . S
C1427 C1418 1.390 1_455 S
C1427 H1420 0.950 . S
C1427 C1424 1.387 . S
C1428 C1429 1.387 . S
C1428 H1432 0.950 . S
C1428 C1437 1.390 . S
C1429 C1428 1.387 . S
C1429 C1431 1.387 . S
H1430 C1437 0.950 . S
C1431 C1429 1.387 . S
C1431 C1433 1.390 1_655 S
C1431 H1435 0.950 . S
H1432 C1428 0.950 . S
C1433 C1431 1.390 1_455 S
C1433 C1434 1.400 1_455 S
C1433 H1436 0.950 . S
C1434 C1433 1.400 1_655 S
C1434 C1437 1.403 . S
H1435 C1431 0.950 . S
H1436 C1433 0.950 . S
C1437 C1428 1.390 . S
C1437 H1430 0.950 . S
C1437 C1434 1.403 . S
C1438 C1439 1.406 . S
C1438 H1442 0.950 . S
C1438 C1447 1.390 . S
C1439 C1438 1.406 . S
C1439 C1441 1.376 1_565 S
H1440 C1447 0.950 . S
C1441 C1439 1.376 1_545 S
C1441 C1443 1.390 1_545 S
C1441 H1445 0.950 . S
H1442 C1438 0.950 . S
C1443 C1441 1.390 1_565 S
C1443 C1444 1.387 . S
C1443 H1446 0.950 . S
C1444 C1443 1.387 . S
C1444 C1447 1.387 . S
H1445 C1441 0.950 . S
H1446 C1443 0.950 . S
C1447 C1438 1.390 . S
C1447 H1440 0.950 . S
C1447 C1444 1.387 . S
C1448 C1449 1.387 . S
C1448 H1452 0.950 . S
C1448 C1457 1.390 . S
C1449 C1448 1.387 . S
C1449 C1451 1.387 . S
H1450 C1457 0.950 . S
C1451 C1449 1.387 . S
C1451 C1453 1.390 . S
C1451 H1455 0.950 . S
H1452 C1448 0.950 . S
C1453 C1451 1.390 . S
C1453 C1454 1.387 . S
C1453 H1456 0.950 . S
C1454 C1453 1.387 . S
C1454 C1457 1.387 . S
H1455 C1451 0.950 . S
H1456 C1453 0.950 . S
C1457 C1448 1.390 . S
C1457 H1450 0.950 . S
C1457 C1454 1.387 . S
C1458 C1459 1.387 . S
C1458 H1462 0.950 . S
C1458 C1467 1.390 . S
C1459 C1458 1.387 . S
C1459 C1461 1.387 . S
H1460 C1467 0.950 . S
C1461 C1459 1.387 . S
C1461 C1463 1.390 1_455 S
C1461 H1465 0.950 . S
H1462 C1458 0.950 . S
C1463 C1461 1.390 1_655 S
C1463 C1464 1.400 1_655 S
C1463 H1466 0.950 . S
C1464 C1463 1.400 1_455 S
C1464 C1467 1.402 . S
H1465 C1461 0.950 . S
H1466 C1463 0.950 . S
C1467 C1458 1.390 . S
C1467 H1460 0.950 . S
C1467 C1464 1.402 . S
C1468 C1469 1.387 . S
C1468 H1472 0.950 . S
C1468 C1477 1.390 1_545 S
C1469 C1468 1.387 . S
C1469 C1471 1.387 . S
H1470 C1477 0.950 . S
C1471 C1469 1.387 . S
C1471 C1473 1.390 . S
C1471 H1475 0.950 . S
H1472 C1468 0.950 . S
C1473 C1471 1.390 . S
C1473 C1474 1.403 . S
C1473 H1476 0.950 . S
C1474 C1473 1.403 . S
C1474 C1477 1.381 1_545 S
H1475 C1471 0.950 . S
H1476 C1473 0.950 . S
C1477 C1468 1.390 1_565 S
C1477 H1470 0.950 . S
C1477 C1474 1.381 1_565 S
C1478 C1479 1.387 . S
C1478 H1482 0.950 . S
C1478 C1487 1.390 . S
C1479 C1478 1.387 . S
C1479 C1481 1.387 . S
H1480 C1487 0.950 . S
C1481 C1479 1.387 . S
C1481 C1483 1.390 . S
C1481 H1485 0.950 . S
H1482 C1478 0.950 . S
C1483 C1481 1.390 . S
C1483 C1484 1.387 . S
C1483 H1486 0.950 . S
C1484 C1483 1.387 . S
C1484 C1487 1.387 . S
H1485 C1481 0.950 . S
H1486 C1483 0.950 . S
C1487 C1478 1.390 . S
C1487 H1480 0.950 . S
C1487 C1484 1.387 . S
C1069 C63 2.441 . S
C1074 C417 2.641 . S
C1079 C506 2.643 . S
C1084 C152 2.444 . S
C1089 C61 2.643 . S
C1094 C241 2.441 . S
C1099 C150 2.642 . S
C1104 C330 2.443 . S
C1109 C419 2.440 . S
C1114 C239 2.642 . S
C1119 C328 2.642 . S
C1124 C508 2.443 . S
C1129 C597 2.440 . S
C1134 C773 2.642 . S
C1139 C686 2.443 . S
C1144 C862 2.642 . S
C1149 C951 2.642 . S
C1154 C775 2.443 . S
C1159 C1040 2.642 . S
C1164 C864 2.440 . S
C1169 C595 2.642 . S
C1174 C953 2.441 . S
C1179 C1042 2.442 . S
C1184 C684 2.641 . S
C1189 C908 1.717 . S
C1194 C18 1.717 . S
C1199 C997 1.717 . S
C1204 C107 1.716 . S
C1209 C552 1.717 . S
C1214 C196 1.716 . S
C1219 C641 1.716 . S
C1224 C285 1.716 . S
C1229 C374 1.717 . S
C1234 C730 1.716 . S
C1239 C819 1.716 . S
C1244 C463 1.717 . S
C1249 C874 1.693 . S
C1254 C73 1.691 . S
C1259 C963 1.693 . S
C1264 C162 1.691 . S
C1269 C251 1.692 . S
C1274 C1052 1.692 . S
C1279 C607 1.691 . S
C1284 C340 1.692 . S
C1289 C696 1.693 . S
C1294 C429 1.691 . S
C1299 C785 1.692 . S
C1304 C518 1.692 . S
C1309 C649 1.199 . S
C1314 C204 1.197 . S
C1319 C738 1.198 . S
C1324 C293 1.195 . S
C1329 C827 1.199 . S
C1334 C382 1.199 . S
C1339 C916 1.199 . S
C1344 C471 1.199 . S
C1349 C26 1.199 . S
C1354 C1005 1.197 . S
C1359 C115 1.194 . S
C1364 C560 1.194 . S
C1369 C357 1.601 1_545 S
C1374 C70 1.502 . S
C1379 C446 1.629 . S
C1384 C159 1.506 . S
C1389 C248 1.500 . S
C1394 C1 1.611 1_655 S
C1399 C90 1.603 1_565 S
C1404 C337 1.500 . S
C1409 C179 1.625 . S
C1414 C426 1.500 . S
C1419 C268 1.611 1_455 S
C1424 C515 1.500 . S
C1429 C604 1.506 . S
C1434 C713 1.601 1_655 S
C1439 C802 1.611 1_565 S
C1444 C693 1.504 . S
C1449 C891 1.626 . S
C1454 C782 1.504 . S
C1459 C871 1.506 . S
C1464 C980 1.600 1_455 S
C1469 C960 1.503 . S
C1474 C535 1.610 1_545 S
C1479 C624 1.628 . S
C1484 C1049 1.506 . S
