# Generated by pormake.
# Topology uno, (4)-cn, num edge types: 1
# Building blocks:
#     Node 0, Type 0, BuildingBlock: ESEHIV_clean_sbu_0, # of connection points: 4
#     Node 1, Type 0, BuildingBlock: ESEHIV_clean_sbu_0, # of connection points: 4
#     Node 2, Type 0, BuildingBlock: ESEHIV_clean_sbu_0, # of connection points: 4
#     Node 3, Type 0, BuildingBlock: ESEHIV_clean_sbu_0, # of connection points: 4
#     Node 4, Type 0, BuildingBlock: ESEHIV_clean_sbu_0, # of connection points: 4
#     Node 5, Type 0, BuildingBlock: ESEHIV_clean_sbu_0, # of connection points: 4
#     Node 6, Type 0, BuildingBlock: ESEHIV_clean_sbu_0, # of connection points: 4
#     Node 7, Type 0, BuildingBlock: ESEHIV_clean_sbu_0, # of connection points: 4
#     Node 8, Type 0, BuildingBlock: ESEHIV_clean_sbu_0, # of connection points: 4
#     Node 9, Type 0, BuildingBlock: ESEHIV_clean_sbu_0, # of connection points: 4
#     Node 10, Type 0, BuildingBlock: ESEHIV_clean_sbu_0, # of connection points: 4
#     Node 11, Type 0, BuildingBlock: ESEHIV_clean_sbu_0, # of connection points: 4
#     Node 12, Type 0, BuildingBlock: ESEHIV_clean_sbu_0, # of connection points: 4
#     Node 13, Type 0, BuildingBlock: ESEHIV_clean_sbu_0, # of connection points: 4
#     Node 14, Type 0, BuildingBlock: ESEHIV_clean_sbu_0, # of connection points: 4
#     Node 15, Type 0, BuildingBlock: ESEHIV_clean_sbu_0, # of connection points: 4
#     Node 16, Type 0, BuildingBlock: ESEHIV_clean_sbu_0, # of connection points: 4
#     Node 17, Type 0, BuildingBlock: ESEHIV_clean_sbu_0, # of connection points: 4
#     Node 18, Type 0, BuildingBlock: ESEHIV_clean_sbu_0, # of connection points: 4
#     Node 19, Type 0, BuildingBlock: ESEHIV_clean_sbu_0, # of connection points: 4
#     Node 20, Type 0, BuildingBlock: ESEHIV_clean_sbu_0, # of connection points: 4
#     Node 21, Type 0, BuildingBlock: ESEHIV_clean_sbu_0, # of connection points: 4
#     Node 22, Type 0, BuildingBlock: ESEHIV_clean_sbu_0, # of connection points: 4
#     Node 23, Type 0, BuildingBlock: ESEHIV_clean_sbu_0, # of connection points: 4
#     Edge 24, Type (0, 0), BuildingBlock: TEMPAE_clean_linker_10, # of connection points: 2
#     Edge 25, Type (0, 0), BuildingBlock: TEMPAE_clean_linker_10, # of connection points: 2
#     Edge 26, Type (0, 0), BuildingBlock: TEMPAE_clean_linker_10, # of connection points: 2
#     Edge 27, Type (0, 0), BuildingBlock: TEMPAE_clean_linker_10, # of connection points: 2
#     Edge 28, Type (0, 0), BuildingBlock: TEMPAE_clean_linker_10, # of connection points: 2
#     Edge 29, Type (0, 0), BuildingBlock: TEMPAE_clean_linker_10, # of connection points: 2
#     Edge 30, Type (0, 0), BuildingBlock: TEMPAE_clean_linker_10, # of connection points: 2
#     Edge 31, Type (0, 0), BuildingBlock: TEMPAE_clean_linker_10, # of connection points: 2
#     Edge 32, Type (0, 0), BuildingBlock: TEMPAE_clean_linker_10, # of connection points: 2
#     Edge 33, Type (0, 0), BuildingBlock: TEMPAE_clean_linker_10, # of connection points: 2
#     Edge 34, Type (0, 0), BuildingBlock: TEMPAE_clean_linker_10, # of connection points: 2
#     Edge 35, Type (0, 0), BuildingBlock: TEMPAE_clean_linker_10, # of connection points: 2
#     Edge 36, Type (0, 0), BuildingBlock: TEMPAE_clean_linker_10, # of connection points: 2
#     Edge 37, Type (0, 0), BuildingBlock: TEMPAE_clean_linker_10, # of connection points: 2
#     Edge 38, Type (0, 0), BuildingBlock: TEMPAE_clean_linker_10, # of connection points: 2
#     Edge 39, Type (0, 0), BuildingBlock: TEMPAE_clean_linker_10, # of connection points: 2
#     Edge 40, Type (0, 0), BuildingBlock: TEMPAE_clean_linker_10, # of connection points: 2
#     Edge 41, Type (0, 0), BuildingBlock: TEMPAE_clean_linker_10, # of connection points: 2
#     Edge 42, Type (0, 0), BuildingBlock: TEMPAE_clean_linker_10, # of connection points: 2
#     Edge 43, Type (0, 0), BuildingBlock: TEMPAE_clean_linker_10, # of connection points: 2
#     Edge 44, Type (0, 0), BuildingBlock: TEMPAE_clean_linker_10, # of connection points: 2
#     Edge 45, Type (0, 0), BuildingBlock: TEMPAE_clean_linker_10, # of connection points: 2
#     Edge 46, Type (0, 0), BuildingBlock: TEMPAE_clean_linker_10, # of connection points: 2
#     Edge 47, Type (0, 0), BuildingBlock: TEMPAE_clean_linker_10, # of connection points: 2
#     Edge 48, Type (0, 0), BuildingBlock: TEMPAE_clean_linker_10, # of connection points: 2
#     Edge 49, Type (0, 0), BuildingBlock: TEMPAE_clean_linker_10, # of connection points: 2
#     Edge 50, Type (0, 0), BuildingBlock: TEMPAE_clean_linker_10, # of connection points: 2
#     Edge 51, Type (0, 0), BuildingBlock: TEMPAE_clean_linker_10, # of connection points: 2
#     Edge 52, Type (0, 0), BuildingBlock: TEMPAE_clean_linker_10, # of connection points: 2
#     Edge 53, Type (0, 0), BuildingBlock: TEMPAE_clean_linker_10, # of connection points: 2
#     Edge 54, Type (0, 0), BuildingBlock: TEMPAE_clean_linker_10, # of connection points: 2
#     Edge 55, Type (0, 0), BuildingBlock: TEMPAE_clean_linker_10, # of connection points: 2
#     Edge 56, Type (0, 0), BuildingBlock: TEMPAE_clean_linker_10, # of connection points: 2
#     Edge 57, Type (0, 0), BuildingBlock: TEMPAE_clean_linker_10, # of connection points: 2
#     Edge 58, Type (0, 0), BuildingBlock: TEMPAE_clean_linker_10, # of connection points: 2
#     Edge 59, Type (0, 0), BuildingBlock: TEMPAE_clean_linker_10, # of connection points: 2
#     Edge 60, Type (0, 0), BuildingBlock: TEMPAE_clean_linker_10, # of connection points: 2
#     Edge 61, Type (0, 0), BuildingBlock: TEMPAE_clean_linker_10, # of connection points: 2
#     Edge 62, Type (0, 0), BuildingBlock: TEMPAE_clean_linker_10, # of connection points: 2
#     Edge 63, Type (0, 0), BuildingBlock: TEMPAE_clean_linker_10, # of connection points: 2
#     Edge 64, Type (0, 0), BuildingBlock: TEMPAE_clean_linker_10, # of connection points: 2
#     Edge 65, Type (0, 0), BuildingBlock: TEMPAE_clean_linker_10, # of connection points: 2
#     Edge 66, Type (0, 0), BuildingBlock: TEMPAE_clean_linker_10, # of connection points: 2
#     Edge 67, Type (0, 0), BuildingBlock: TEMPAE_clean_linker_10, # of connection points: 2
#     Edge 68, Type (0, 0), BuildingBlock: TEMPAE_clean_linker_10, # of connection points: 2
#     Edge 69, Type (0, 0), BuildingBlock: TEMPAE_clean_linker_10, # of connection points: 2
#     Edge 70, Type (0, 0), BuildingBlock: TEMPAE_clean_linker_10, # of connection points: 2
#     Edge 71, Type (0, 0), BuildingBlock: TEMPAE_clean_linker_10, # of connection points: 2
# Relax obj value: 0.382
# Max RMSD: 0.210
# Mean RMSD: 0.191
data_MOF--net-uno--node1-ESEHIV_clean_sbu_0--edge1-TEMPAE_clean_linker_10
_symmetry_space_group_name_H-M    P1
_symmetry_Int_Tables_number       1
_symmetry_cell_setting            triclinic
loop_
_symmetry_equiv_pos_as_xyz
'x, y, z'
_cell_length_a     56.783119
_cell_length_b     59.018318
_cell_length_c     58.398576
_cell_angle_alpha  90.575232
_cell_angle_beta   89.869947
_cell_angle_gamma 92.726832
loop_
_atom_site_label
_atom_site_type_symbol
_atom_site_fract_x
_atom_site_fract_y
_atom_site_fract_z
_atom_type_partial_charge
Cu0 Cu 0.07477 0.24653 0.27212 0.0
N1 N 0.09075 0.23408 0.2964 0.0
N2 N 0.11038 0.20729 0.31385 0.0
C3 C 0.09258 0.21168 0.29962 0.0
C4 C 0.11996 0.22777 0.32016 0.0
C5 C 0.10773 0.2443 0.30942 0.0
O6 O 0.05397 0.22238 0.26015 0.0
C7 C 0.09557 0.26652 0.23158 0.0
O8 O 0.07456 0.27346 0.22662 0.0
H9 H 0.08285 0.19877 0.28978 0.0
H10 H 0.11231 0.26231 0.30936 0.0
N11 N 0.05724 0.27062 0.28217 0.0
N12 N 0.04265 0.30499 0.28607 0.0
C13 C 0.05986 0.29272 0.27674 0.0
C14 C 0.03793 0.26879 0.29548 0.0
C15 C 0.02888 0.28991 0.29792 0.0
C16 C 0.0626 0.20685 0.24797 0.0
O17 O 0.08455 0.20958 0.24095 0.0
H18 H 0.07397 0.29958 0.26602 0.0
H19 H 0.0306 0.25304 0.30239 0.0
O20 O 0.09864 0.25558 0.24987 0.0
H21 H 0.13578 0.23052 0.33032 0.0
H22 H 0.01288 0.29363 0.30701 0.0
Cu23 Cu 0.02538 0.81235 0.4674 0.0
N24 N 0.0278 0.82243 0.43743 0.0
N25 N 0.02371 0.84459 0.40696 0.0
C26 C 0.01657 0.83988 0.42859 0.0
C27 C 0.04003 0.82923 0.40217 0.0
C28 C 0.04249 0.81563 0.42096 0.0
O29 O 0.99374 0.79935 0.4716 0.0
C30 C 0.03974 0.83836 0.50701 0.0
O31 O 0.04046 0.81889 0.51762 0.0
H32 H 0.00381 0.84915 0.4382 0.0
H33 H 0.05473 0.80227 0.42281 0.0
N34 N 0.04819 0.79109 0.47227 0.0
N35 N 0.08102 0.77586 0.48474 0.0
C36 C 0.06926 0.79503 0.48243 0.0
C37 C 0.04678 0.76873 0.46743 0.0
C38 C 0.06703 0.75926 0.47515 0.0
C39 C 0.98756 0.78452 0.48637 0.0
O40 O 0.00315 0.77773 0.50107 0.0
H41 H 0.07573 0.81159 0.48836 0.0
H42 H 0.03176 0.75986 0.45951 0.0
O43 O 0.03201 0.83882 0.48661 0.0
H44 H 0.05033 0.82837 0.38661 0.0
H45 H 0.07065 0.74142 0.47473 0.0
Cu46 Cu 0.47256 0.76486 0.73658 0.0
N47 N 0.44435 0.75929 0.75244 0.0
N48 N 0.40907 0.76964 0.76477 0.0
C49 C 0.43197 0.77599 0.76168 0.0
C50 C 0.40699 0.74785 0.75752 0.0
C51 C 0.42876 0.74154 0.74987 0.0
O52 O 0.48828 0.79161 0.7499 0.0
C53 C 0.4543 0.75517 0.69287 0.0
O54 O 0.45681 0.73407 0.69903 0.0
H55 H 0.43894 0.79328 0.7635 0.0
H56 H 0.43224 0.72601 0.74079 0.0
N57 N 0.49283 0.74096 0.7381 0.0
N58 N 0.50768 0.70675 0.74137 0.0
C59 C 0.48787 0.71855 0.74053 0.0
C60 C 0.51649 0.74338 0.73739 0.0
C61 C 0.5257 0.72236 0.7394 0.0
C62 C 0.48185 0.81125 0.74481 0.0
O63 O 0.46503 0.8132 0.72963 0.0
H64 H 0.47019 0.71107 0.7419 0.0
H65 H 0.52632 0.75941 0.73551 0.0
O66 O 0.46295 0.77104 0.70558 0.0
H67 H 0.3906 0.7378 0.75614 0.0
H68 H 0.54423 0.7188 0.73903 0.0
Cu69 Cu 0.5017 0.18611 0.0146 0.0
N70 N 0.4876 0.16907 0.9908 0.0
N71 N 0.48342 0.14325 0.96264 0.0
C72 C 0.49646 0.1507 0.98073 0.0
C73 C 0.46562 0.15757 0.96131 0.0
C74 C 0.46827 0.17347 0.97867 0.0
O75 O 0.52853 0.20354 0.00208 0.0
C76 C 0.50711 0.14656 0.04385 0.0
O77 O 0.51958 0.13606 0.05901 0.0
H78 H 0.51269 0.1435 0.98609 0.0
H79 H 0.45731 0.18768 0.9817 0.0
N80 N 0.48145 0.20677 0.02755 0.0
N81 N 0.44968 0.22399 0.04052 0.0
C82 C 0.45771 0.20603 0.0288 0.0
C83 C 0.48866 0.22596 0.03855 0.0
C84 C 0.4692 0.23661 0.04654 0.0
C85 C 0.54713 0.19389 0.99596 0.0
O86 O 0.54802 0.17183 0.99817 0.0
H87 H 0.44662 0.19238 0.02167 0.0
H88 H 0.5069 0.2317 0.04073 0.0
O89 O 0.51372 0.1667 0.03825 0.0
H90 H 0.45184 0.15687 0.94852 0.0
H91 H 0.4695 0.2525 0.05596 0.0
Cu92 Cu 0.0405 0.00534 0.27691 0.0
N93 N 0.07236 0.01178 0.2828 0.0
N94 N 0.10377 0.02229 0.30403 0.0
C95 C 0.08032 0.02352 0.30129 0.0
C96 C 0.11095 0.00923 0.28647 0.0
C97 C 0.09148 0.00284 0.2733 0.0
O98 O 0.02601 0.03373 0.27135 0.0
C99 C 0.00926 0.97784 0.30504 0.0
O100 O 0.99397 0.97833 0.28822 0.0
H101 H 0.06883 0.03109 0.3137 0.0
H102 H 0.09106 0.99131 0.25878 0.0
N103 N 0.03618 0.98665 0.25124 0.0
N104 N 0.02419 0.95661 0.23006 0.0
C105 C 0.03096 0.96415 0.25104 0.0
C106 C 0.03299 0.99351 0.22962 0.0
C107 C 0.02554 0.975 0.2165 0.0
C108 C 0.02216 0.04806 0.28712 0.0
O109 O 0.02553 0.04252 0.30856 0.0
H110 H 0.03045 0.95384 0.26627 0.0
H111 H 0.03462 0.01096 0.22412 0.0
O112 O 0.02859 0.98951 0.30364 0.0
H113 H 0.1287 0.00371 0.28406 0.0
H114 H 0.02061 0.9752 0.1986 0.0
Cu115 Cu 0.2538 0.7419 0.61607 0.0
N116 N 0.2374 0.73963 0.64386 0.0
N117 N 0.22469 0.75113 0.67811 0.0
C118 C 0.23539 0.75728 0.65834 0.0
C119 C 0.21936 0.72868 0.67586 0.0
C120 C 0.22737 0.72158 0.6547 0.0
O121 O 0.23275 0.75252 0.59274 0.0
C122 C 0.29348 0.75632 0.63894 0.0
O123 O 0.2852 0.73964 0.65183 0.0
H124 H 0.24217 0.77428 0.65454 0.0
H125 H 0.22653 0.70442 0.64801 0.0
N126 N 0.26625 0.7148 0.60617 0.0
N127 N 0.29345 0.69333 0.59036 0.0
C128 C 0.28794 0.71435 0.59701 0.0
C129 C 0.25741 0.69324 0.60518 0.0
C130 C 0.27422 0.6799 0.59534 0.0
C131 C 0.21326 0.74117 0.5903 0.0
O132 O 0.209 0.7234 0.6033 0.0
H133 H 0.29927 0.72942 0.59469 0.0
H134 H 0.24 0.68764 0.61091 0.0
O135 O 0.28166 0.76173 0.62145 0.0
H136 H 0.21111 0.71803 0.68887 0.0
H137 H 0.27245 0.6618 0.59218 0.0
Cu138 Cu 0.51377 0.00244 0.80462 0.0
N139 N 0.48158 0.99804 0.79945 0.0
N140 N 0.44475 0.98829 0.81015 0.0
C141 C 0.46777 0.98443 0.81261 0.0
C142 C 0.44396 0.00492 0.7945 0.0
C143 C 0.46679 0.01084 0.78782 0.0
O144 O 0.52676 0.97284 0.80387 0.0
C145 C 0.52937 0.03438 0.83958 0.0
O146 O 0.545 0.04221 0.82466 0.0
H147 H 0.4746 0.97388 0.82583 0.0
H148 H 0.47223 0.02484 0.77692 0.0
N149 N 0.528 0.0197 0.78151 0.0
N150 N 0.53703 0.0475 0.75691 0.0
C151 C 0.52304 0.0406 0.77452 0.0
C152 C 0.54566 0.01315 0.76798 0.0
C153 C 0.55129 0.03024 0.75281 0.0
C154 C 0.52451 0.95857 0.81995 0.0
O155 O 0.51576 0.9649 0.83972 0.0
H156 H 0.50936 0.05039 0.78212 0.0
H157 H 0.5539 0.99705 0.76917 0.0
O158 O 0.51617 0.0171 0.83443 0.0
H159 H 0.42827 0.01343 0.78969 0.0
H160 H 0.56514 0.03011 0.74006 0.0
Cu161 Cu 0.24306 0.26203 0.10969 0.0
N162 N 0.23244 0.24306 0.13331 0.0
N163 N 0.23281 0.21938 0.16291 0.0
C164 C 0.24508 0.23548 0.15092 0.0
C165 C 0.21164 0.21691 0.15249 0.0
C166 C 0.21155 0.23136 0.13417 0.0
O167 O 0.27327 0.2518 0.09948 0.0
C168 C 0.23841 0.30593 0.13442 0.0
O169 O 0.2473 0.32667 0.13772 0.0
H170 H 0.26339 0.24058 0.15392 0.0
H171 H 0.1976 0.2326 0.12175 0.0
N172 N 0.22235 0.2593 0.08494 0.0
N173 N 0.19439 0.26628 0.0594 0.0
C174 C 0.20802 0.27481 0.07669 0.0
C175 C 0.21805 0.24048 0.0722 0.0
C176 C 0.20082 0.24469 0.05646 0.0
C177 C 0.28425 0.26203 0.08332 0.0
O178 O 0.27468 0.2794 0.07372 0.0
H179 H 0.207 0.29171 0.08386 0.0
H180 H 0.22657 0.22466 0.07453 0.0
O181 O 0.24804 0.29362 0.11932 0.0
H182 H 0.19747 0.20496 0.15728 0.0
H183 H 0.1935 0.23266 0.04398 0.0
Cu184 Cu 0.26691 0.06287 0.28942 0.0
N185 N 0.23428 0.05837 0.28824 0.0
N186 N 0.19708 0.06806 0.2931 0.0
C187 C 0.21955 0.07117 0.30018 0.0
C188 C 0.19761 0.05256 0.27598 0.0
C189 C 0.22067 0.04648 0.27309 0.0
O190 O 0.27674 0.0547 0.31978 0.0
C191 C 0.28832 0.10259 0.26875 0.0
O192 O 0.30452 0.08924 0.26112 0.0
H193 H 0.22552 0.08425 0.31221 0.0
H194 H 0.22723 0.03552 0.25982 0.0
N195 N 0.2813 0.04455 0.26793 0.0
N196 N 0.29353 0.03025 0.23469 0.0
C197 C 0.27888 0.04459 0.245 0.0
C198 C 0.29783 0.02961 0.27229 0.0
C199 C 0.30543 0.02076 0.25182 0.0
C200 C 0.27303 0.06706 0.33722 0.0
O201 O 0.26497 0.08733 0.33435 0.0
H202 H 0.26729 0.05554 0.23607 0.0
H203 H 0.30421 0.02578 0.28919 0.0
O204 O 0.27264 0.09474 0.2825 0.0
H205 H 0.18272 0.04713 0.2654 0.0
H206 H 0.31873 0.00836 0.2497 0.0
Cu207 Cu 0.18856 0.00499 0.51195 0.0
N208 N 0.17001 0.02497 0.49641 0.0
N209 N 0.15306 0.03933 0.46568 0.0
C210 C 0.17227 0.02971 0.47399 0.0
C211 C 0.13822 0.04098 0.48364 0.0
C212 C 0.14879 0.03219 0.50265 0.0
O213 O 0.21664 0.00203 0.49343 0.0
C214 C 0.15533 0.96901 0.50158 0.0
O215 O 0.15335 0.97943 0.48196 0.0
H216 H 0.18649 0.02391 0.4634 0.0
H217 H 0.14073 0.02934 0.51924 0.0
N218 N 0.19738 0.01648 0.54053 0.0
N219 N 0.20483 0.01695 0.57811 0.0
C220 C 0.19392 0.00574 0.56052 0.0
C221 C 0.21079 0.03526 0.54545 0.0
C222 C 0.21538 0.03564 0.56864 0.0
C223 C 0.21756 0.98849 0.47643 0.0
O224 O 0.20067 0.97277 0.47358 0.0
H225 H 0.18396 0.98973 0.56188 0.0
H226 H 0.21749 0.04731 0.53292 0.0
O227 O 0.17008 0.97676 0.51641 0.0
H228 H 0.12036 0.04656 0.48269 0.0
H229 H 0.22649 0.04824 0.57755 0.0
Cu230 Cu 0.23203 0.91907 0.78838 0.0
N231 N 0.26272 0.91271 0.77972 0.0
N232 N 0.29471 0.89291 0.77341 0.0
C233 C 0.27192 0.89212 0.77999 0.0
C234 C 0.30004 0.91487 0.76854 0.0
C235 C 0.28024 0.92708 0.77252 0.0
O236 O 0.23166 0.93019 0.81978 0.0
C237 C 0.21397 0.87351 0.79366 0.0
O238 O 0.22593 0.87384 0.8129 0.0
H239 H 0.26213 0.8768 0.78489 0.0
H240 H 0.27877 0.94516 0.77056 0.0
N241 N 0.2211 0.94196 0.77017 0.0
N242 N 0.21322 0.96328 0.74007 0.0
C243 C 0.22508 0.94557 0.74773 0.0
C244 C 0.20638 0.95792 0.77693 0.0
C245 C 0.20143 0.97109 0.75838 0.0
C246 C 0.24685 0.9251 0.8346 0.0
O247 O 0.26189 0.90956 0.82956 0.0
H248 H 0.23591 0.93505 0.73716 0.0
H249 H 0.19951 0.95965 0.79412 0.0
O250 O 0.21255 0.89181 0.78253 0.0
H251 H 0.31714 0.92171 0.76307 0.0
H252 H 0.19008 0.98531 0.75837 0.0
Cu253 Cu 0.33429 0.01145 0.00236 0.0
N254 N 0.354 0.99061 0.98925 0.0
N255 N 0.3733 0.97316 0.9614 0.0
C256 C 0.35405 0.9845 0.96701 0.0
C257 C 0.38571 0.97179 0.98099 0.0
C258 C 0.37366 0.98251 0.99821 0.0
O259 O 0.30743 0.01294 0.98202 0.0
C260 C 0.36867 0.04669 0.99327 0.0
O261 O 0.37153 0.03551 0.974 0.0
H262 H 0.34149 0.99017 0.95467 0.0
H263 H 0.37967 0.98568 0.01556 0.0
N264 N 0.32313 0.00031 0.03017 0.0
N265 N 0.31358 0.99756 0.06722 0.0
C266 C 0.3252 0.01003 0.05106 0.0
C267 C 0.30985 0.98111 0.03308 0.0
C268 C 0.30392 0.97934 0.05587 0.0
C269 C 0.30805 0.02258 0.96265 0.0
O270 O 0.32625 0.03613 0.95748 0.0
H271 H 0.33496 0.02594 0.05423 0.0
H272 H 0.30445 0.96948 0.01943 0.0
O273 O 0.35272 0.03981 0.0073 0.0
H274 H 0.40296 0.96487 0.98241 0.0
H275 H 0.29277 0.96597 0.0633 0.0
Cu276 Cu 0.73754 0.27644 0.91492 0.0
N277 N 0.73398 0.25663 0.88995 0.0
N278 N 0.72042 0.24408 0.85602 0.0
C279 C 0.7242 0.26222 0.86997 0.0
C280 C 0.72832 0.22632 0.86767 0.0
C281 C 0.73672 0.23414 0.88863 0.0
O282 O 0.70931 0.27227 0.93351 0.0
C283 C 0.75709 0.31057 0.88767 0.0
O284 O 0.77225 0.29483 0.88378 0.0
H285 H 0.71849 0.27906 0.8664 0.0
H286 H 0.74328 0.22396 0.90229 0.0
N287 N 0.76398 0.27008 0.93225 0.0
N288 N 0.7979 0.27435 0.95159 0.0
C289 C 0.78208 0.28447 0.93828 0.0
C290 C 0.76836 0.25024 0.94212 0.0
C291 C 0.78927 0.25278 0.95399 0.0
C292 C 0.68911 0.2746 0.92466 0.0
O293 O 0.68786 0.28197 0.90357 0.0
H294 H 0.78331 0.30213 0.93341 0.0
H295 H 0.75701 0.23504 0.94095 0.0
O296 O 0.74071 0.30667 0.90223 0.0
H297 H 0.7274 0.20884 0.86181 0.0
H298 H 0.79752 0.23967 0.9635 0.0
Cu299 Cu 0.98441 0.51348 0.21213 0.0
N300 N 0.95216 0.51774 0.21231 0.0
N301 N 0.91866 0.53168 0.19988 0.0
C302 C 0.94223 0.53494 0.20162 0.0
C303 C 0.91348 0.51162 0.2101 0.0
C304 C 0.93424 0.50307 0.21784 0.0
O305 O 0.99948 0.54357 0.21384 0.0
C306 C 0.00926 0.48683 0.17965 0.0
O307 O 0.02674 0.48799 0.19439 0.0
H308 H 0.9523 0.54852 0.19329 0.0
H309 H 0.93631 0.48662 0.22538 0.0
N310 N 0.99315 0.49607 0.23684 0.0
N311 N 0.00413 0.46612 0.25654 0.0
C312 C 0.99432 0.47336 0.23706 0.0
C313 C 0.00229 0.50351 0.25692 0.0
C314 C 0.00911 0.48505 0.26913 0.0
C315 C 0.00148 0.55595 0.19619 0.0
O316 O 0.99718 0.54668 0.17598 0.0
H317 H 0.98922 0.46249 0.22268 0.0
H318 H 0.00457 0.52117 0.26195 0.0
O319 O 0.99074 0.49743 0.18387 0.0
H320 H 0.89619 0.50309 0.21066 0.0
H321 H 0.01746 0.48556 0.28579 0.0
Cu322 Cu 0.7807 0.72726 0.44324 0.0
N323 N 0.78828 0.75018 0.42253 0.0
N324 N 0.80902 0.76785 0.39491 0.0
C325 C 0.80598 0.74886 0.4074 0.0
C326 C 0.79226 0.78168 0.40236 0.0
C327 C 0.77953 0.77074 0.41959 0.0
O328 O 0.80836 0.72599 0.46245 0.0
C329 C 0.76194 0.69969 0.40818 0.0
O330 O 0.75021 0.71792 0.40425 0.0
H331 H 0.81626 0.734 0.40542 0.0
H332 H 0.76513 0.77733 0.42937 0.0
N333 N 0.75458 0.73396 0.46112 0.0
N334 N 0.71836 0.73357 0.47617 0.0
C335 C 0.73189 0.72655 0.45865 0.0
C336 C 0.75535 0.74614 0.48072 0.0
C337 C 0.73306 0.74587 0.49009 0.0
C338 C 0.82625 0.71554 0.45578 0.0
O339 O 0.82451 0.70273 0.43728 0.0
H340 H 0.72558 0.7155 0.44485 0.0
H341 H 0.7712 0.75419 0.48795 0.0
O342 O 0.77551 0.69952 0.42547 0.0
H343 H 0.78962 0.79856 0.39608 0.0
H344 H 0.72807 0.75389 0.50602 0.0
Cu345 Cu 0.9133 0.74457 0.20932 0.0
N346 N 0.88658 0.73954 0.19133 0.0
N347 N 0.85095 0.72416 0.18231 0.0
C348 C 0.87121 0.72174 0.19399 0.0
C349 C 0.85405 0.74431 0.1716 0.0
C350 C 0.876 0.75379 0.17728 0.0
O351 O 0.92967 0.71649 0.20996 0.0
C352 C 0.91151 0.76165 0.25622 0.0
O353 O 0.93345 0.76947 0.25419 0.0
H354 H 0.87465 0.70783 0.20521 0.0
H355 H 0.88312 0.77045 0.17267 0.0
N356 N 0.93276 0.76807 0.19756 0.0
N357 N 0.9532 0.80131 0.19397 0.0
C358 C 0.93566 0.78963 0.20521 0.0
C359 C 0.94853 0.76603 0.18061 0.0
C360 C 0.96118 0.78635 0.17838 0.0
C361 C 0.95151 0.71501 0.21421 0.0
O362 O 0.9645 0.73347 0.21894 0.0
H363 H 0.92532 0.79629 0.21905 0.0
H364 H 0.95122 0.75054 0.17111 0.0
O365 O 0.90133 0.75123 0.23957 0.0
H366 H 0.84092 0.75238 0.16152 0.0
H367 H 0.97567 0.78935 0.16661 0.0
Cu368 Cu 0.5688 0.26679 0.70152 0.0
N369 N 0.58347 0.28555 0.67978 0.0
N370 N 0.59866 0.31828 0.66604 0.0
C371 C 0.58382 0.30828 0.6813 0.0
C372 C 0.60802 0.30107 0.65424 0.0
C373 C 0.59843 0.28082 0.66266 0.0
O374 O 0.54206 0.28289 0.7126 0.0
C375 C 0.61056 0.25345 0.72244 0.0
O376 O 0.61584 0.24707 0.70151 0.0
H377 H 0.57495 0.31732 0.69472 0.0
H378 H 0.60314 0.26393 0.65766 0.0
N379 N 0.55883 0.23885 0.68928 0.0
N380 N 0.55076 0.20154 0.68778 0.0
C381 C 0.56133 0.2189 0.69961 0.0
C382 C 0.54625 0.23409 0.67019 0.0
C383 C 0.54116 0.21098 0.66924 0.0
C384 C 0.5453 0.29806 0.72804 0.0
O385 O 0.56581 0.29987 0.73845 0.0
H386 H 0.56988 0.21729 0.71602 0.0
H387 H 0.5407 0.2466 0.65818 0.0
O388 O 0.59083 0.26217 0.72618 0.0
H389 H 0.62172 0.30296 0.64138 0.0
H390 H 0.53099 0.20188 0.65614 0.0
Cu391 Cu 0.5107 0.48532 0.69691 0.0
N392 N 0.53869 0.47649 0.68339 0.0
N393 N 0.56375 0.4581 0.6612 0.0
C394 C 0.54146 0.4587 0.66914 0.0
C395 C 0.57555 0.476 0.67114 0.0
C396 C 0.56004 0.48728 0.68483 0.0
O397 O 0.49323 0.45837 0.70706 0.0
C398 C 0.49747 0.50545 0.65474 0.0
O399 O 0.50996 0.49022 0.6444 0.0
H400 H 0.52721 0.44706 0.66384 0.0
H401 H 0.56391 0.50257 0.69476 0.0
N402 N 0.51783 0.50477 0.72132 0.0
N403 N 0.52199 0.53856 0.73876 0.0
C404 C 0.52107 0.52724 0.7186 0.0
C405 C 0.51687 0.50146 0.74405 0.0
C406 C 0.51945 0.52237 0.75492 0.0
C407 C 0.48373 0.44464 0.69254 0.0
O408 O 0.48233 0.45088 0.67108 0.0
H409 H 0.5211 0.53519 0.702 0.0
H410 H 0.5133 0.48521 0.75208 0.0
O411 O 0.49371 0.50404 0.67615 0.0
H412 H 0.59399 0.48076 0.66851 0.0
H413 H 0.51866 0.52542 0.7732 0.0
Cu414 Cu 0.9933 0.36892 0.99769 0.0
N415 N 0.9846 0.3904 0.97664 0.0
N416 N 0.96257 0.41756 0.96301 0.0
C417 C 0.96362 0.39993 0.97737 0.0
C418 C 0.98389 0.41919 0.95268 0.0
C419 C 0.99747 0.4023 0.96111 0.0
O420 O 0.96717 0.34655 0.99928 0.0
C421 C 0.99901 0.37714 0.04612 0.0
O422 O 0.99439 0.35531 0.04889 0.0
H423 H 0.95003 0.39518 0.98962 0.0
H424 H 0.01579 0.39972 0.95719 0.0
N425 N 0.0206 0.35512 0.98857 0.0
N426 N 0.05513 0.3386 0.99078 0.0
C427 C 0.03832 0.3495 0.00233 0.0
C428 C 0.02629 0.34765 0.96755 0.0
C429 C 0.04761 0.33747 0.96884 0.0
C430 C 0.94836 0.35002 0.01041 0.0
O431 O 0.94761 0.368 0.02379 0.0
H432 H 0.03873 0.3533 0.02049 0.0
H433 H 0.01546 0.34913 0.95248 0.0
O434 O 0.9991 0.38538 0.02611 0.0
H435 H 0.98962 0.43223 0.94073 0.0
H436 H 0.05647 0.32929 0.95481 0.0
Cu437 Cu 0.51334 0.65016 0.51387 0.0
N438 N 0.51194 0.62238 0.49878 0.0
N439 N 0.52048 0.58646 0.49195 0.0
C440 C 0.52459 0.60496 0.50529 0.0
C441 C 0.50461 0.59257 0.47623 0.0
C442 C 0.49926 0.61483 0.48059 0.0
O443 O 0.54191 0.66623 0.5035 0.0
C444 C 0.50198 0.6461 0.56196 0.0
O445 O 0.48559 0.66071 0.55896 0.0
H446 H 0.53698 0.60609 0.51937 0.0
H447 H 0.48706 0.62477 0.47122 0.0
N448 N 0.48562 0.665 0.50859 0.0
N449 N 0.44768 0.67286 0.51242 0.0
C450 C 0.46396 0.65714 0.5149 0.0
C451 C 0.48293 0.68618 0.50108 0.0
C452 C 0.45951 0.69109 0.50342 0.0
C453 C 0.54963 0.68582 0.50999 0.0
O454 O 0.53701 0.69777 0.52412 0.0
H455 H 0.46058 0.64065 0.52251 0.0
H456 H 0.49716 0.69766 0.49551 0.0
O457 O 0.51626 0.64195 0.54581 0.0
H458 H 0.49731 0.58174 0.46269 0.0
H459 H 0.45214 0.70735 0.50029 0.0
Cu460 Cu 0.67198 0.43809 0.5039 0.0
N461 N 0.65832 0.40931 0.5093 0.0
N462 N 0.63547 0.38642 0.53111 0.0
C463 C 0.65344 0.40215 0.53061 0.0
C464 C 0.6295 0.38277 0.50895 0.0
C465 C 0.64378 0.39682 0.49548 0.0
O466 O 0.69192 0.44643 0.53006 0.0
C467 C 0.6259 0.45629 0.50633 0.0
O468 O 0.61892 0.43675 0.51516 0.0
H469 H 0.65991 0.41122 0.5457 0.0
H470 H 0.64129 0.40011 0.47748 0.0
N471 N 0.68898 0.43873 0.47667 0.0
N472 N 0.69702 0.44674 0.44014 0.0
C473 C 0.67998 0.44329 0.45602 0.0
C474 C 0.7125 0.43912 0.4738 0.0
C475 C 0.71754 0.44412 0.45122 0.0
C476 C 0.68252 0.45479 0.54787 0.0
O477 O 0.65998 0.45883 0.54744 0.0
H478 H 0.66144 0.44568 0.45311 0.0
H479 H 0.72511 0.43718 0.48742 0.0
O480 O 0.64748 0.45994 0.50089 0.0
H481 H 0.61389 0.37311 0.5032 0.0
H482 H 0.73493 0.44652 0.44374 0.0
Cu483 Cu 0.73506 0.47423 0.74963 0.0
N484 N 0.70237 0.4716 0.74793 0.0
N485 N 0.66791 0.45675 0.73541 0.0
C486 C 0.69035 0.46273 0.72991 0.0
C487 C 0.66554 0.46251 0.7577 0.0
C488 C 0.68687 0.47186 0.76536 0.0
O489 O 0.74633 0.47391 0.71814 0.0
C490 C 0.73418 0.43038 0.76962 0.0
O491 O 0.71543 0.42647 0.7568 0.0
H492 H 0.69862 0.45801 0.71396 0.0
H493 H 0.69139 0.4763 0.78287 0.0
N494 N 0.74364 0.50121 0.7647 0.0
N495 N 0.75101 0.52524 0.79389 0.0
C496 C 0.74576 0.50353 0.78752 0.0
C497 C 0.74769 0.5221 0.75614 0.0
C498 C 0.75233 0.537 0.77415 0.0
C499 C 0.74727 0.45528 0.70708 0.0
O500 O 0.74494 0.43617 0.71836 0.0
H501 H 0.74351 0.48944 0.79916 0.0
H502 H 0.74695 0.52623 0.73816 0.0
O503 O 0.74575 0.44935 0.76814 0.0
H504 H 0.65023 0.45831 0.76817 0.0
H505 H 0.75586 0.55512 0.77279 0.0
Cu506 Cu 0.80802 0.55616 0.01783 0.0
N507 N 0.8266 0.57855 0.03262 0.0
N508 N 0.84764 0.59254 0.06217 0.0
C509 C 0.82827 0.58019 0.05553 0.0
C510 C 0.85842 0.59932 0.0426 0.0
C511 C 0.84527 0.59075 0.02433 0.0
O512 O 0.78601 0.54444 0.04087 0.0
C513 C 0.84747 0.52838 0.01544 0.0
O514 O 0.85329 0.53804 0.03511 0.0
H515 H 0.81731 0.57002 0.06706 0.0
H516 H 0.85032 0.59129 0.00646 0.0
N517 N 0.79239 0.56814 0.99313 0.0
N518 N 0.78007 0.57186 0.95711 0.0
C519 C 0.79146 0.5589 0.97201 0.0
C520 C 0.78119 0.58764 0.99174 0.0
C521 C 0.77348 0.58996 0.96951 0.0
C522 C 0.79041 0.52777 0.0536 0.0
O523 O 0.80851 0.51555 0.04873 0.0
H524 H 0.79902 0.5429 0.96775 0.0
H525 H 0.77916 0.59948 0.00579 0.0
O526 O 0.82833 0.53325 0.00577 0.0
H527 H 0.87563 0.60797 0.04159 0.0
H528 H 0.76426 0.60413 0.96291 0.0
Cu529 Cu 0.71829 0.56309 0.25068 0.0
N530 N 0.70776 0.58841 0.23574 0.0
N531 N 0.71407 0.62008 0.21543 0.0
C532 C 0.72067 0.59879 0.21927 0.0
C533 C 0.69568 0.62292 0.22977 0.0
C534 C 0.69191 0.60337 0.24237 0.0
O535 O 0.73558 0.54652 0.2279 0.0
C536 C 0.75221 0.5908 0.2756 0.0
O537 O 0.75834 0.59926 0.25562 0.0
H538 H 0.73656 0.59183 0.21245 0.0
H539 H 0.68007 0.60114 0.25679 0.0
N540 N 0.69411 0.5449 0.26342 0.0
N541 N 0.67818 0.52138 0.28948 0.0
C542 C 0.69806 0.52854 0.27858 0.0
C543 C 0.67082 0.54812 0.26451 0.0
C544 C 0.66093 0.53364 0.28073 0.0
C545 C 0.72363 0.53605 0.21233 0.0
O546 O 0.70054 0.53456 0.21422 0.0
H547 H 0.71555 0.52354 0.2831 0.0
H548 H 0.66198 0.56112 0.25543 0.0
O549 O 0.7372 0.57413 0.27642 0.0
H550 H 0.68682 0.63857 0.23239 0.0
H551 H 0.6428 0.53308 0.28656 0.0
C552 C 0.21556 0.30643 0.1708 0.0
C553 C 0.21794 0.298 0.14843 0.0
C554 C 0.19539 0.30096 0.18392 0.0
C555 C 0.17707 0.28677 0.17439 0.0
C556 C 0.17935 0.27822 0.15181 0.0
C557 C 0.19976 0.28402 0.13912 0.0
C558 C 0.19355 0.31063 0.20787 0.0
C559 C 0.16026 0.26297 0.14103 0.0
C560 C 0.13539 0.25755 0.21684 0.0
C561 C 0.11585 0.27122 0.21612 0.0
C562 C 0.15514 0.26203 0.20286 0.0
C563 C 0.15558 0.28094 0.18814 0.0
C564 C 0.13582 0.29469 0.18716 0.0
C565 C 0.11606 0.28952 0.20101 0.0
C566 C 0.17564 0.24667 0.20399 0.0
C567 C 0.13577 0.31514 0.17183 0.0
H568 H 0.22947 0.31749 0.17804 0.0
H569 H 0.20124 0.27792 0.12179 0.0
H570 H 0.17766 0.32079 0.2093 0.0
H571 H 0.19151 0.29667 0.22041 0.0
H572 H 0.20925 0.32158 0.21267 0.0
H573 H 0.16366 0.25965 0.12258 0.0
H574 H 0.15911 0.24652 0.15009 0.0
H575 H 0.14286 0.27059 0.14274 0.0
H576 H 0.1352 0.24321 0.22832 0.0
H577 H 0.10103 0.30016 0.20046 0.0
H578 H 0.1917 0.25645 0.20987 0.0
H579 H 0.17947 0.23986 0.18667 0.0
H580 H 0.17218 0.2322 0.21574 0.0
H581 H 0.15028 0.32744 0.17685 0.0
H582 H 0.11885 0.32383 0.17271 0.0
H583 H 0.13899 0.31003 0.15381 0.0
C584 C 0.00543 0.8817 0.4023 0.0
C585 C 0.01709 0.86329 0.39281 0.0
C586 C 1.00056 0.90069 0.38911 0.0
C587 C 0.0079 0.90158 0.36597 0.0
C588 C 0.01884 0.8828 0.35602 0.0
C589 C 0.02306 0.86385 0.36946 0.0
C590 C 0.9884 0.92019 0.40021 0.0
C591 C 0.02705 0.88312 0.33138 0.0
C592 C 0.98738 0.94467 0.32328 0.0
C593 C 0.00668 0.96043 0.32313 0.0
C594 C 0.98687 0.92596 0.33803 0.0
C595 C 0.00625 0.92284 0.35271 0.0
C596 C 0.02516 0.93933 0.35348 0.0
C597 C 0.02504 0.95799 0.33885 0.0
C598 C 0.96613 0.90901 0.33714 0.0
C599 C 0.04625 0.93662 0.36879 0.0
H600 H 1.00065 0.88176 0.42022 0.0
H601 H 0.03146 0.84964 0.36163 0.0
H602 H 0.00117 0.93487 0.40241 0.0
H603 H 0.97395 0.92575 0.38914 0.0
H604 H 0.98099 0.91567 0.41728 0.0
H605 H 0.03427 0.86676 0.3259 0.0
H606 H 0.01226 0.88689 0.31987 0.0
H607 H 0.04095 0.89678 0.32913 0.0
H608 H 0.97306 0.94647 0.31129 0.0
H609 H 0.03999 0.97012 0.33902 0.0
H610 H 0.96007 0.90462 0.35468 0.0
H611 H 0.97153 0.89314 0.32872 0.0
H612 H 0.9511 0.91551 0.32743 0.0
H613 H 0.04049 0.93397 0.38676 0.0
H614 H 0.05887 0.95159 0.36829 0.0
H615 H 0.05565 0.92141 0.36334 0.0
C616 C 0.33318 0.77054 0.62488 0.0
C617 C 0.31782 0.76519 0.64308 0.0
C618 C 0.35768 0.77313 0.62858 0.0
C619 C 0.36673 0.7703 0.65092 0.0
C620 C 0.35099 0.76679 0.66953 0.0
C621 C 0.32676 0.76437 0.66536 0.0
C622 C 0.37395 0.77757 0.60851 0.0
C623 C 0.35978 0.76393 0.6937 0.0
C624 C 0.4231 0.74244 0.66496 0.0
C625 C 0.43583 0.76028 0.67602 0.0
C626 C 0.40142 0.74598 0.65446 0.0
C627 C 0.39237 0.76795 0.65489 0.0
C628 C 0.40648 0.78649 0.66353 0.0
C629 C 0.42808 0.78243 0.67406 0.0
C630 C 0.38702 0.72562 0.64549 0.0
C631 C 0.39783 0.81026 0.66381 0.0
H632 H 0.32628 0.77115 0.60762 0.0
H633 H 0.31482 0.76051 0.67947 0.0
H634 H 0.38461 0.79356 0.61151 0.0
H635 H 0.38647 0.76378 0.60679 0.0
H636 H 0.36419 0.77892 0.59215 0.0
H637 H 0.34515 0.76095 0.7061 0.0
H638 H 0.37139 0.74935 0.69447 0.0
H639 H 0.37037 0.7793 0.69921 0.0
H640 H 0.42908 0.72531 0.66606 0.0
H641 H 0.43795 0.79644 0.68225 0.0
H642 H 0.37721 0.7298 0.62984 0.0
H643 H 0.37389 0.72014 0.65868 0.0
H644 H 0.39822 0.71114 0.64159 0.0
H645 H 0.38732 0.81353 0.6483 0.0
H646 H 0.41272 0.82313 0.66496 0.0
H647 H 0.38632 0.81248 0.67897 0.0
C648 C 0.48149 0.12598 0.92393 0.0
C649 C 0.48895 0.12533 0.94678 0.0
C650 C 0.48817 0.1096 0.90792 0.0
C651 C 0.50278 0.09214 0.91486 0.0
C652 C 0.50976 0.09093 0.93805 0.0
C653 C 0.50269 0.10749 0.95374 0.0
C654 C 0.4801 0.11134 0.8834 0.0
C655 C 0.52516 0.07247 0.94617 0.0
C656 C 0.50461 0.04161 0.87422 0.0
C657 C 0.52448 0.04748 0.86075 0.0
C658 C 0.49782 0.05552 0.89249 0.0
C659 C 0.51131 0.07572 0.89755 0.0
C660 C 0.53207 0.08112 0.88482 0.0
C661 C 0.53835 0.06698 0.86653 0.0
C662 C 0.47554 0.04917 0.90557 0.0
C663 C 0.54709 0.10236 0.8899 0.0
H664 H 0.47102 0.13972 0.9183 0.0
H665 H 0.50806 0.10653 0.97147 0.0
H666 H 0.49559 0.11443 0.87204 0.0
H667 H 0.47111 0.09514 0.87777 0.0
H668 H 0.46784 0.12524 0.88101 0.0
H669 H 0.52793 0.07315 0.96499 0.0
H670 H 0.51717 0.05555 0.94147 0.0
H671 H 0.54259 0.07413 0.93757 0.0
H672 H 0.49374 0.02657 0.86995 0.0
H673 H 0.55379 0.07159 0.85633 0.0
H674 H 0.46174 0.06112 0.90127 0.0
H675 H 0.47861 0.05056 0.92429 0.0
H676 H 0.4687 0.03167 0.90144 0.0
H677 H 0.53705 0.1175 0.88591 0.0
H678 H 0.56369 0.10315 0.87976 0.0
H679 H 0.55161 0.10332 0.90837 0.0
C680 C 0.17637 0.09117 0.32118 0.0
C681 C 0.17864 0.08307 0.29867 0.0
C682 C 0.16248 0.10963 0.32615 0.0
C683 C 0.15099 0.12042 0.30809 0.0
C684 C 0.15167 0.11114 0.28565 0.0
C685 C 0.16542 0.09244 0.28122 0.0
C686 C 0.16122 0.11845 0.35044 0.0
C687 C 0.13934 0.122 0.26602 0.0
C688 C 0.1066 0.16578 0.31806 0.0
C689 C 0.12087 0.18567 0.31562 0.0
C690 C 0.11626 0.14433 0.31675 0.0
C691 C 0.14062 0.1428 0.31209 0.0
C692 C 0.15517 0.16288 0.31009 0.0
C693 C 0.14514 0.18406 0.31218 0.0
C694 C 0.1001 0.12348 0.3194 0.0
C695 C 0.18115 0.16201 0.30467 0.0
H696 H 0.18644 0.08373 0.33466 0.0
H697 H 0.16726 0.08628 0.2638 0.0
H698 H 0.17071 0.13528 0.35173 0.0
H699 H 0.14259 0.12078 0.35536 0.0
H700 H 0.16916 0.10691 0.36284 0.0
H701 H 0.13953 0.11144 0.25017 0.0
H702 H 0.12078 0.12496 0.27065 0.0
H703 H 0.14817 0.13877 0.26237 0.0
H704 H 0.08779 0.16705 0.32059 0.0
H705 H 0.15609 0.1994 0.30983 0.0
H706 H 0.10956 0.10872 0.32556 0.0
H707 H 0.09221 0.11886 0.30254 0.0
H708 H 0.08551 0.12679 0.33149 0.0
H709 H 0.19005 0.1519 0.3177 0.0
H710 H 0.19007 0.17916 0.30407 0.0
H711 H 0.18353 0.1535 0.28784 0.0
C712 C 0.04797 0.88007 0.50974 0.0
C713 C 0.05438 0.85813 0.51506 0.0
C714 C 0.06425 0.89861 0.51182 0.0
C715 C 0.08772 0.89489 0.51849 0.0
C716 C 0.09379 0.87299 0.52537 0.0
C717 C 0.07686 0.8549 0.52396 0.0
C718 C 0.0568 0.92185 0.50515 0.0
C719 C 0.11872 0.86812 0.53201 0.0
C720 C 0.13281 0.93401 0.48892 0.0
C721 C 0.13964 0.94907 0.5066 0.0
C722 C 0.11666 0.91577 0.4929 0.0
C723 C 0.10644 0.91303 0.51493 0.0
C724 C 0.11345 0.9281 0.53294 0.0
C725 C 0.13031 0.94578 0.52863 0.0
C726 C 0.11022 0.89968 0.47338 0.0
C727 C 0.10244 0.92615 0.55642 0.0
H728 H 0.03055 0.88256 0.50289 0.0
H729 H 0.08192 0.83791 0.52788 0.0
H730 H 0.06378 0.93491 0.51749 0.0
H731 H 0.06413 0.9262 0.48803 0.0
H732 H 0.03731 0.92264 0.50436 0.0
H733 H 0.11978 0.85121 0.54003 0.0
H734 H 0.13 0.86852 0.51646 0.0
H735 H 0.12611 0.88124 0.54405 0.0
H736 H 0.14015 0.93651 0.47192 0.0
H737 H 0.13543 0.95762 0.54225 0.0
H738 H 0.0915 0.90137 0.4686 0.0
H739 H 0.1122 0.88187 0.47871 0.0
H740 H 0.12131 0.90297 0.45796 0.0
H741 H 0.08343 0.92959 0.55531 0.0
H742 H 0.11092 0.93825 0.56894 0.0
H743 H 0.10363 0.90868 0.56299 0.0
C744 C 0.32852 0.87366 0.75676 0.0
C745 C 0.31015 0.87421 0.77278 0.0
C746 C 0.3436 0.85547 0.756 0.0
C747 C 0.34041 0.83758 0.77186 0.0
C748 C 0.32181 0.83797 0.78799 0.0
C749 C 0.30688 0.85624 0.78822 0.0
C750 C 0.36293 0.85537 0.7382 0.0
C751 C 0.31774 0.81913 0.80505 0.0
C752 C 0.369 0.78232 0.75707 0.0
C753 C 0.39045 0.78496 0.76891 0.0
C754 C 0.35217 0.79897 0.75838 0.0
C755 C 0.35692 0.81873 0.77189 0.0
C756 C 0.37804 0.82095 0.78474 0.0
C757 C 0.39454 0.80407 0.78304 0.0
C758 C 0.32998 0.79587 0.74426 0.0
C759 C 0.38356 0.84154 0.79968 0.0
H760 H 0.33089 0.88732 0.7446 0.0
H761 H 0.29287 0.85666 0.80081 0.0
H762 H 0.38037 0.85525 0.74671 0.0
H763 H 0.36097 0.83972 0.72753 0.0
H764 H 0.36277 0.87032 0.72681 0.0
H765 H 0.3024 0.82191 0.8164 0.0
H766 H 0.31467 0.80269 0.79588 0.0
H767 H 0.33366 0.81768 0.81582 0.0
H768 H 0.36582 0.76775 0.7459 0.0
H769 H 0.41099 0.80603 0.79239 0.0
H770 H 0.33255 0.80502 0.72786 0.0
H771 H 0.31457 0.80285 0.7531 0.0
H772 H 0.32582 0.77769 0.74022 0.0
H773 H 0.38557 0.85688 0.78888 0.0
H774 H 0.40002 0.84 0.80969 0.0
H775 H 0.36881 0.8442 0.81175 0.0
C776 C 0.39877 0.07712 0.98284 0.0
C777 C 0.38611 0.06504 0.99979 0.0
C778 C 0.41742 0.0926 0.98864 0.0
C779 C 0.42395 0.09561 0.01189 0.0
C780 C 0.41069 0.084 0.02912 0.0
C781 C 0.39174 0.06906 0.02288 0.0
C782 C 0.43038 0.10544 0.9699 0.0
C783 C 0.41715 0.08665 0.0541 0.0
C784 C 0.48772 0.11193 0.02642 0.0
C785 C 0.48627 0.13449 0.03366 0.0
C786 C 0.46768 0.09934 0.01863 0.0
C787 C 0.4456 0.10956 0.0182 0.0
C788 C 0.44415 0.13253 0.02518 0.0
C789 C 0.46453 0.14462 0.03305 0.0
C790 C 0.47003 0.07486 0.01155 0.0
C791 C 0.42119 0.14439 0.02439 0.0
H792 H 0.3943 0.07421 0.96498 0.0
H793 H 0.38208 0.05968 0.03603 0.0
H794 H 0.42944 0.12392 0.97317 0.0
H795 H 0.44926 0.10144 0.96993 0.0
H796 H 0.42299 0.10141 0.95267 0.0
H797 H 0.40479 0.07682 0.06543 0.0
H798 H 0.43523 0.08084 0.05685 0.0
H799 H 0.41721 0.1048 0.05926 0.0
H800 H 0.50457 0.10404 0.02711 0.0
H801 H 0.46338 0.16172 0.03953 0.0
H802 H 0.46395 0.07219 0.99365 0.0
H803 H 0.45868 0.0637 0.0226 0.0
H804 H 0.48849 0.06953 0.01278 0.0
H805 H 0.41771 0.14925 0.00645 0.0
H806 H 0.42175 0.16001 0.03518 0.0
H807 H 0.40616 0.13315 0.03012 0.0
C808 C 0.11122 0.04899 0.33612 0.0
C809 C 0.1165 0.02894 0.3245 0.0
C810 C 0.11963 0.0535 0.35836 0.0
C811 C 0.13339 0.03743 0.36929 0.0
C812 C 0.14034 0.01807 0.35695 0.0
C813 C 0.13187 0.01409 0.33462 0.0
C814 C 0.11282 0.07483 0.37065 0.0
C815 C 0.15539 0.0008 0.36791 0.0
C816 C 0.16404 0.0501 0.42628 0.0
C817 C 0.14736 0.041 0.44179 0.0
C818 C 0.15951 0.04988 0.40261 0.0
C819 C 0.13814 0.03952 0.39431 0.0
C820 C 0.1212 0.03043 0.41001 0.0
C821 C 0.12591 0.03156 0.43357 0.0
C822 C 0.17797 0.06015 0.38671 0.0
C823 C 0.0984 0.0188 0.4019 0.0
H824 H 0.09968 0.06067 0.3281 0.0
H825 H 0.13597 0.99858 0.3257 0.0
H826 H 0.10114 0.07038 0.38535 0.0
H827 H 0.1288 0.08397 0.37766 0.0
H828 H 0.10346 0.08638 0.35931 0.0
H829 H 0.16048 0.98741 0.3556 0.0
H830 H 0.17165 0.00927 0.37506 0.0
H831 H 0.14561 0.99262 0.38234 0.0
H832 H 0.18067 0.05732 0.43272 0.0
H833 H 0.11324 0.02411 0.44555 0.0
H834 H 0.17031 0.06578 0.37041 0.0
H835 H 0.19102 0.04732 0.38261 0.0
H836 H 0.18755 0.07489 0.39498 0.0
H837 H 0.08822 0.03067 0.39168 0.0
H838 H 0.08718 0.01251 0.41632 0.0
H839 H 0.10228 0.0042 0.39059 0.0
C840 C 0.23738 0.78378 0.70242 0.0
C841 C 0.2213 0.76553 0.69784 0.0
C842 C 0.23375 0.79894 0.72055 0.0
C843 C 0.2135 0.79581 0.73458 0.0
C844 C 0.19766 0.7769 0.73068 0.0
C845 C 0.20176 0.76194 0.71233 0.0
C846 C 0.25131 0.81869 0.72427 0.0
C847 C 0.17607 0.77286 0.74546 0.0
C848 C 0.21865 0.83175 0.78866 0.0
C849 C 0.2085 0.85171 0.7815 0.0
C850 C 0.21876 0.81253 0.77425 0.0
C851 C 0.20847 0.81335 0.75222 0.0
C852 C 0.1963 0.83269 0.74583 0.0
C853 C 0.19642 0.85161 0.76056 0.0
C854 C 0.23167 0.79216 0.78186 0.0
C855 C 0.18499 0.83426 0.72256 0.0
H856 H 0.25285 0.78628 0.6917 0.0
H857 H 0.18932 0.74785 0.70887 0.0
H858 H 0.24252 0.83489 0.72181 0.0
H859 H 0.25807 0.81871 0.74207 0.0
H860 H 0.26655 0.81823 0.71233 0.0
H861 H 0.16681 0.75625 0.74168 0.0
H862 H 0.18098 0.7735 0.76385 0.0
H863 H 0.16363 0.78648 0.74261 0.0
H864 H 0.22796 0.83159 0.80483 0.0
H865 H 0.1883 0.86687 0.75499 0.0
H866 H 0.24926 0.79235 0.77352 0.0
H867 H 0.22199 0.77615 0.7767 0.0
H868 H 0.2343 0.79217 0.80071 0.0
H869 H 0.19895 0.836 0.70927 0.0
H870 H 0.17366 0.84904 0.72138 0.0
H871 H 0.17415 0.8186 0.71856 0.0
C872 C 0.40483 0.97541 0.93254 0.0
C873 C 0.38146 0.96942 0.93842 0.0
C874 C 0.41212 0.9756 0.90961 0.0
C875 C 0.39573 0.96921 0.89216 0.0
C876 C 0.37247 0.96179 0.89811 0.0
C877 C 0.36551 0.96233 0.92119 0.0
C878 C 0.43707 0.98379 0.90399 0.0
C879 C 0.35449 0.9543 0.88028 0.0
C880 C 0.41272 0.99765 0.83651 0.0
C881 C 0.42704 0.98149 0.82667 0.0
C882 C 0.40061 0.99313 0.85706 0.0
C883 C 0.4029 0.97195 0.86782 0.0
C884 C 0.41512 0.95472 0.85657 0.0
C885 C 0.42718 0.95975 0.83614 0.0
C886 C 0.38712 0.01169 0.86826 0.0
C887 C 0.41694 0.93159 0.86699 0.0
H888 H 0.41706 0.98123 0.94579 0.0
H889 H 0.34744 0.95765 0.92578 0.0
H890 H 0.44598 0.97069 0.89386 0.0
H891 H 0.43679 0.99925 0.89335 0.0
H892 H 0.4477 0.98784 0.91958 0.0
H893 H 0.34258 0.94042 0.88695 0.0
H894 H 0.34354 0.96878 0.87617 0.0
H895 H 0.36269 0.9483 0.86421 0.0
H896 H 0.41259 0.01447 0.82927 0.0
H897 H 0.43801 0.94717 0.82829 0.0
H898 H 0.39651 0.01781 0.88396 0.0
H899 H 0.36933 0.00503 0.87351 0.0
H900 H 0.38513 0.02633 0.85673 0.0
H901 H 0.42884 0.93287 0.88204 0.0
H902 H 0.42401 0.91918 0.85463 0.0
H903 H 0.3994 0.92506 0.87308 0.0
C904 C 0.26673 0.13839 0.26498 0.0
C905 C 0.28478 0.12461 0.25752 0.0
C906 C 0.25975 0.15665 0.25177 0.0
C907 C 0.271 0.16115 0.23053 0.0
C908 C 0.29042 0.14841 0.22379 0.0
C909 C 0.29715 0.13036 0.23742 0.0
C910 C 0.23918 0.16999 0.25978 0.0
C911 C 0.30288 0.15261 0.20125 0.0
C912 C 0.23367 0.18252 0.18227 0.0
C913 C 0.24165 0.2053 0.1807 0.0
C914 C 0.2429 0.16816 0.1986 0.0
C915 C 0.26047 0.17678 0.21396 0.0
C916 C 0.26827 0.1999 0.21285 0.0
C917 C 0.25887 0.21387 0.19611 0.0
C918 C 0.23419 0.14356 0.19905 0.0
C919 C 0.28669 0.20978 0.22917 0.0
H920 H 0.25719 0.13423 0.28061 0.0
H921 H 0.31118 0.1199 0.23154 0.0
H922 H 0.24278 0.18842 0.25711 0.0
H923 H 0.22331 0.16478 0.24961 0.0
H924 H 0.23508 0.1671 0.27816 0.0
H925 H 0.31936 0.14327 0.19983 0.0
H926 H 0.29101 0.14703 0.18699 0.0
H927 H 0.30726 0.17097 0.19901 0.0
H928 H 0.22067 0.17567 0.17021 0.0
H929 H 0.26491 0.23152 0.19509 0.0
H930 H 0.22701 0.13926 0.21623 0.0
H931 H 0.24908 0.13246 0.19572 0.0
H932 H 0.22024 0.13961 0.18611 0.0
H933 H 0.28104 0.20671 0.24712 0.0
H934 H 0.29003 0.22831 0.2268 0.0
H935 H 0.30349 0.20124 0.2266 0.0
C936 C 0.72988 0.39151 0.78609 0.0
C937 C 0.74048 0.41346 0.78687 0.0
C938 C 0.73417 0.37569 0.80317 0.0
C939 C 0.74928 0.38202 0.82165 0.0
C940 C 0.76036 0.40403 0.82237 0.0
C941 C 0.75592 0.41947 0.8049 0.0
C942 C 0.72225 0.35228 0.8016 0.0
C943 C 0.77648 0.41141 0.84185 0.0
C944 C 0.73943 0.34655 0.87506 0.0
C945 C 0.75692 0.33069 0.87268 0.0
C946 C 0.73738 0.364 0.8591 0.0
C947 C 0.75313 0.36555 0.84026 0.0
C948 C 0.77145 0.35022 0.83834 0.0
C949 C 0.77317 0.33303 0.8546 0.0
C950 C 0.71773 0.38018 0.86184 0.0
C951 C 0.78856 0.35125 0.81849 0.0
H952 H 0.718 0.3867 0.77218 0.0
H953 H 0.76407 0.43645 0.8057 0.0
H954 H 0.73564 0.33919 0.80193 0.0
H955 H 0.71053 0.34936 0.81661 0.0
H956 H 0.71157 0.34982 0.78577 0.0
H957 H 0.78425 0.42888 0.83957 0.0
H958 H 0.76653 0.41081 0.85822 0.0
H959 H 0.791 0.39959 0.84339 0.0
H960 H 0.72684 0.34493 0.889 0.0
H961 H 0.78681 0.32092 0.85263 0.0
H962 H 0.70478 0.3773 0.84779 0.0
H963 H 0.72479 0.39798 0.86063 0.0
H964 H 0.70835 0.37802 0.87845 0.0
H965 H 0.77901 0.34689 0.80236 0.0
H966 H 0.80298 0.33936 0.82052 0.0
H967 H 0.79645 0.36869 0.81665 0.0
C968 C 0.88761 0.53259 0.17056 0.0
C969 C 0.904 0.54413 0.18489 0.0
C970 C 0.87689 0.54379 0.15255 0.0
C971 C 0.88255 0.56714 0.14895 0.0
C972 C 0.8975 0.57929 0.16459 0.0
C973 C 0.90822 0.56758 0.18226 0.0
C974 C 0.86085 0.53022 0.13638 0.0
C975 C 0.90353 0.60433 0.16219 0.0
C976 C 0.88104 0.58352 0.08649 0.0
C977 C 0.8581 0.59095 0.08443 0.0
C978 C 0.88965 0.57678 0.10772 0.0
C979 C 0.87503 0.57778 0.12735 0.0
C980 C 0.8526 0.5871 0.12569 0.0
C981 C 0.84424 0.59328 0.10413 0.0
C982 C 0.91389 0.5674 0.1089 0.0
C983 C 0.83737 0.59009 0.14659 0.0
H984 H 0.8844 0.51446 0.17242 0.0
H985 H 0.92064 0.57664 0.19353 0.0
H986 H 0.84429 0.53904 0.13359 0.0
H987 H 0.86968 0.52865 0.11949 0.0
H988 H 0.8563 0.51292 0.14284 0.0
H989 H 0.90227 0.61285 0.17914 0.0
H990 H 0.92205 0.60678 0.15622 0.0
H991 H 0.89188 0.61284 0.1501 0.0
H992 H 0.89165 0.5815 0.07123 0.0
H993 H 0.82657 0.59923 0.10245 0.0
H994 H 0.91239 0.54934 0.1141 0.0
H995 H 0.92463 0.57681 0.12205 0.0
H996 H 0.92336 0.56851 0.09225 0.0
H997 H 0.83522 0.57391 0.15602 0.0
H998 H 0.81967 0.59604 0.14222 0.0
H999 H 0.84623 0.60266 0.15836 0.0
C1000 C 0.77899 0.66502 0.39076 0.0
C1001 C 0.76136 0.68091 0.39113 0.0
C1002 C 0.77985 0.64861 0.37318 0.0
C1003 C 0.76255 0.64796 0.35574 0.0
C1004 C 0.74432 0.66352 0.35646 0.0
C1005 C 0.74402 0.67984 0.37406 0.0
C1006 C 0.79963 0.6324 0.37291 0.0
C1007 C 0.72534 0.66323 0.33834 0.0
C1008 C 0.77229 0.62377 0.29618 0.0
C1009 C 0.75865 0.60334 0.29701 0.0
C1010 C 0.7749 0.63788 0.31562 0.0
C1011 C 0.76354 0.63144 0.33634 0.0
C1012 C 0.75105 0.61016 0.33767 0.0
C1013 C 0.74882 0.59634 0.31802 0.0
C1014 C 0.78862 0.66032 0.31356 0.0
C1015 C 0.73869 0.60264 0.35942 0.0
H1016 H 0.79256 0.66584 0.40381 0.0
H1017 H 0.73029 0.69199 0.37427 0.0
H1018 H 0.79239 0.61462 0.37192 0.0
H1019 H 0.81072 0.63536 0.35747 0.0
H1020 H 0.81101 0.63435 0.38832 0.0
H1021 H 0.71193 0.67593 0.34185 0.0
H1022 H 0.73339 0.66684 0.32136 0.0
H1023 H 0.71632 0.64617 0.33725 0.0
H1024 H 0.78007 0.62929 0.28009 0.0
H1025 H 0.73836 0.58052 0.31891 0.0
H1026 H 0.80117 0.66278 0.32801 0.0
H1027 H 0.7763 0.67435 0.31441 0.0
H1028 H 0.79861 0.66166 0.29721 0.0
H1029 H 0.7507 0.60486 0.37431 0.0
H1030 H 0.73213 0.58462 0.35848 0.0
H1031 H 0.72345 0.61334 0.36261 0.0
C1032 C 0.72947 0.6599 0.21228 0.0
C1033 C 0.7286 0.6374 0.20415 0.0
C1034 C 0.74741 0.67552 0.20525 0.0
C1035 C 0.76505 0.66842 0.18995 0.0
C1036 C 0.76304 0.64641 0.18009 0.0
C1037 C 0.74468 0.63129 0.18711 0.0
C1038 C 0.74861 0.699 0.2158 0.0
C1039 C 0.78146 0.63807 0.16376 0.0
C1040 C 0.81134 0.71164 0.16757 0.0
C1041 C 0.8296 0.70975 0.18357 0.0
C1042 C 0.79018 0.69834 0.1693 0.0
C1043 C 0.78731 0.68253 0.18726 0.0
C1044 C 0.80573 0.68024 0.20322 0.0
C1045 C 0.82646 0.69393 0.20129 0.0
C1046 C 0.77081 0.70139 0.15211 0.0
C1047 C 0.80347 0.66346 0.2226 0.0
H1048 H 0.71719 0.66496 0.22535 0.0
H1049 H 0.74377 0.61415 0.18024 0.0
H1050 H 0.7626 0.70006 0.22906 0.0
H1051 H 0.75324 0.71197 0.20272 0.0
H1052 H 0.73167 0.7032 0.22401 0.0
H1053 H 0.7755 0.62203 0.15495 0.0
H1054 H 0.78609 0.65101 0.15067 0.0
H1055 H 0.79778 0.63492 0.17343 0.0
H1056 H 0.81351 0.72353 0.15366 0.0
H1057 H 0.83998 0.6924 0.21409 0.0
H1058 H 0.75471 0.70677 0.16106 0.0
H1059 H 0.76615 0.68503 0.14335 0.0
H1060 H 0.77588 0.71422 0.13898 0.0
H1061 H 0.78871 0.66784 0.23404 0.0
H1062 H 0.81979 0.66312 0.23302 0.0
H1063 H 0.79937 0.64614 0.2157 0.0
C1064 C 0.63096 0.34765 0.6659 0.0
C1065 C 0.60681 0.34172 0.66724 0.0
C1066 C 0.63976 0.36908 0.67341 0.0
C1067 C 0.62397 0.38483 0.68233 0.0
C1068 C 0.59942 0.3798 0.68131 0.0
C1069 C 0.59111 0.35826 0.67381 0.0
C1070 C 0.66607 0.37409 0.67372 0.0
C1071 C 0.58209 0.39641 0.69013 0.0
C1072 C 0.64598 0.42007 0.73311 0.0
C1073 C 0.65359 0.44038 0.72272 0.0
C1074 C 0.63607 0.402 0.72009 0.0
C1075 C 0.63315 0.40457 0.69617 0.0
C1076 C 0.63961 0.42555 0.68581 0.0
C1077 C 0.65023 0.44309 0.69918 0.0
C1078 C 0.62978 0.3798 0.73182 0.0
C1079 C 0.6363 0.42933 0.66057 0.0
H1080 H 0.64315 0.33496 0.66079 0.0
H1081 H 0.57239 0.35381 0.67446 0.0
H1082 H 0.67043 0.39094 0.66618 0.0
H1083 H 0.6724 0.37462 0.6917 0.0
H1084 H 0.67576 0.36111 0.66411 0.0
H1085 H 0.56378 0.39161 0.68478 0.0
H1086 H 0.58269 0.39696 0.7091 0.0
H1087 H 0.58693 0.41378 0.68408 0.0
H1088 H 0.64913 0.41785 0.75122 0.0
H1089 H 0.6564 0.45878 0.69119 0.0
H1090 H 0.64011 0.36611 0.72417 0.0
H1091 H 0.61085 0.37498 0.72923 0.0
H1092 H 0.63333 0.38061 0.75051 0.0
H1093 H 0.63446 0.44759 0.65689 0.0
H1094 H 0.62059 0.41956 0.65393 0.0
H1095 H 0.65201 0.42371 0.65119 0.0
C1096 C 0.51999 0.61917 0.58855 0.0
C1097 C 0.49998 0.62982 0.58094 0.0
C1098 C 0.51789 0.60027 0.60289 0.0
C1099 C 0.49517 0.59142 0.60913 0.0
C1100 C 0.47495 0.60281 0.60243 0.0
C1101 C 0.47763 0.62211 0.58863 0.0
C1102 C 0.53994 0.58903 0.61028 0.0
C1103 C 0.45042 0.59366 0.60831 0.0
C1104 C 0.49319 0.52793 0.61907 0.0
C1105 C 0.49299 0.52693 0.64301 0.0
C1106 C 0.49268 0.54881 0.60782 0.0
C1107 C 0.49265 0.5692 0.62088 0.0
C1108 C 0.49175 0.56825 0.64507 0.0
C1109 C 0.49148 0.54709 0.65582 0.0
C1110 C 0.49314 0.54909 0.58196 0.0
C1111 C 0.49249 0.58958 0.65962 0.0
H1112 H 0.53727 0.62513 0.58257 0.0
H1113 H 0.46208 0.63012 0.58248 0.0
H1114 H 0.53923 0.5853 0.62886 0.0
H1115 H 0.54128 0.57265 0.60098 0.0
H1116 H 0.55613 0.59974 0.60672 0.0
H1117 H 0.43673 0.60567 0.60379 0.0
H1118 H 0.44669 0.57749 0.59884 0.0
H1119 H 0.449 0.58989 0.62684 0.0
H1120 H 0.4943 0.51241 0.60911 0.0
H1121 H 0.49144 0.54649 0.67435 0.0
H1122 H 0.51039 0.55644 0.57594 0.0
H1123 H 0.47927 0.55992 0.57537 0.0
H1124 H 0.49047 0.53181 0.57438 0.0
H1125 H 0.50949 0.59924 0.65686 0.0
H1126 H 0.49068 0.5859 0.67819 0.0
H1127 H 0.47824 0.60071 0.65455 0.0
C1128 C 0.69279 0.22478 0.8287 0.0
C1129 C 0.70733 0.24373 0.83488 0.0
C1130 C 0.67788 0.22531 0.80958 0.0
C1131 C 0.67755 0.24524 0.79629 0.0
C1132 C 0.69289 0.26408 0.80189 0.0
C1133 C 0.70758 0.26308 0.8211 0.0
C1134 C 0.66177 0.20488 0.80416 0.0
C1135 C 0.69323 0.28559 0.78807 0.0
C1136 C 0.64981 0.2424 0.73706 0.0
C1137 C 0.62754 0.25089 0.74138 0.0
C1138 C 0.66625 0.24034 0.75477 0.0
C1139 C 0.66025 0.24687 0.77734 0.0
C1140 C 0.63774 0.25527 0.78185 0.0
C1141 C 0.62168 0.25721 0.76382 0.0
C1142 C 0.69011 0.23137 0.7493 0.0
C1143 C 0.63066 0.26236 0.80572 0.0
H1144 H 0.69231 0.20987 0.83937 0.0
H1145 H 0.71905 0.27764 0.82559 0.0
H1146 H 0.64315 0.20926 0.80669 0.0
H1147 H 0.66375 0.19973 0.78596 0.0
H1148 H 0.66534 0.19017 0.81514 0.0
H1149 H 0.70728 0.29812 0.79377 0.0
H1150 H 0.69595 0.28168 0.76966 0.0
H1151 H 0.67597 0.29353 0.78967 0.0
H1152 H 0.65452 0.23749 0.71977 0.0
H1153 H 0.60452 0.26376 0.76734 0.0
H1154 H 0.69309 0.21618 0.75974 0.0
H1155 H 0.70418 0.24433 0.75378 0.0
H1156 H 0.69192 0.22674 0.73091 0.0
H1157 H 0.63206 0.24796 0.81763 0.0
H1158 H 0.61236 0.26819 0.80643 0.0
H1159 H 0.64283 0.27631 0.81201 0.0
C1160 C 0.98977 0.46817 0.14556 0.0
C1161 C 0.0098 0.47138 0.15948 0.0
C1162 C 0.9892 0.45249 0.12735 0.0
C1163 C 0.00922 0.43977 0.12276 0.0
C1164 C 0.02967 0.44318 0.13644 0.0
C1165 C 0.02969 0.4589 0.15471 0.0
C1166 C 0.96703 0.44934 0.11319 0.0
C1167 C 0.05143 0.4301 0.13189 0.0
C1168 C 0.99796 0.38526 0.08838 0.0
C1169 C 0.00324 0.39251 0.06608 0.0
C1170 C 1.00044 0.40031 0.10713 0.0
C1171 C 0.00861 0.42305 0.10348 0.0
C1172 C 0.01477 0.43021 0.08112 0.0
C1173 C 0.0119 0.41491 0.0627 0.0
C1174 C 0.99354 0.39209 0.13072 0.0
C1175 C 0.02377 0.45424 0.07654 0.0
H1176 H 0.97428 0.47767 0.1491 0.0
H1177 H 0.04524 0.46124 0.16536 0.0
H1178 H 0.97099 0.45307 0.09497 0.0
H1179 H 0.9602 0.43144 0.11401 0.0
H1180 H 0.95294 0.46048 0.11908 0.0
H1181 H 0.06606 0.43507 0.14378 0.0
H1182 H 0.04719 0.41166 0.13366 0.0
H1183 H 0.05758 0.43293 0.11405 0.0
H1184 H 0.99127 0.36799 0.09113 0.0
H1185 H 0.01624 0.42062 0.04555 0.0
H1186 H 0.97823 0.40137 0.13701 0.0
H1187 H 0.00822 0.39567 0.14293 0.0
H1188 H 0.98878 0.37362 0.13089 0.0
H1189 H 0.0097 0.46615 0.08038 0.0
H1190 H 0.02945 0.45664 0.05848 0.0
H1191 H 0.03888 0.45893 0.08792 0.0
C1192 C 0.82143 0.78521 0.35817 0.0
C1193 C 0.82623 0.77163 0.37699 0.0
C1194 C 0.83682 0.78647 0.33928 0.0
C1195 C 0.85736 0.77373 0.33922 0.0
C1196 C 0.863 0.76114 0.35878 0.0
C1197 C 0.84746 0.76038 0.37745 0.0
C1198 C 0.83038 0.80036 0.31886 0.0
C1199 C 0.88467 0.74729 0.35947 0.0
C1200 C 0.87801 0.75091 0.28212 0.0
C1201 C 0.89814 0.76489 0.2777 0.0
C1202 C 0.86465 0.75372 0.30204 0.0
C1203 C 0.87131 0.7712 0.31783 0.0
C1204 C 0.89151 0.78554 0.31342 0.0
C1205 C 0.90485 0.78207 0.29346 0.0
C1206 C 0.84349 0.73778 0.30626 0.0
C1207 C 0.89891 0.80456 0.32972 0.0
H1208 H 0.80512 0.79398 0.3577 0.0
H1209 H 0.85164 0.75039 0.39223 0.0
H1210 H 0.8459 0.81078 0.31282 0.0
H1211 H 0.8247 0.78885 0.30456 0.0
H1212 H 0.81584 0.81173 0.3228 0.0
H1213 H 0.88783 0.74041 0.37678 0.0
H1214 H 0.88255 0.73286 0.3472 0.0
H1215 H 0.90051 0.75766 0.35415 0.0
H1216 H 0.87278 0.73752 0.27006 0.0
H1217 H 0.92028 0.79304 0.29001 0.0
H1218 H 0.82734 0.74754 0.30793 0.0
H1219 H 0.84573 0.72868 0.32259 0.0
H1220 H 0.84073 0.72503 0.29228 0.0
H1221 H 0.88424 0.81613 0.33209 0.0
H1222 H 0.91468 0.81456 0.32353 0.0
H1223 H 0.90289 0.79759 0.34678 0.0
C1224 C 0.59026 0.45043 0.62888 0.0
C1225 C 0.57244 0.4429 0.64399 0.0
C1226 C 0.59852 0.43615 0.61163 0.0
C1227 C 0.58892 0.41362 0.60956 0.0
C1228 C 0.57133 0.40568 0.6251 0.0
C1229 C 0.56289 0.4206 0.64179 0.0
C1230 C 0.61751 0.44527 0.59557 0.0
C1231 C 0.56126 0.38158 0.62398 0.0
C1232 C 0.59741 0.39317 0.54899 0.0
C1233 C 0.61995 0.38461 0.55052 0.0
C1234 C 0.58573 0.40067 0.56864 0.0
C1235 C 0.59675 0.39912 0.59027 0.0
C1236 C 0.61787 0.38745 0.59213 0.0
C1237 C 0.62938 0.38057 0.57214 0.0
C1238 C 0.56318 0.41288 0.56583 0.0
C1239 C 0.62985 0.38449 0.61484 0.0
H1240 H 0.59747 0.4677 0.63024 0.0
H1241 H 0.54908 0.41468 0.6534 0.0
H1242 H 0.63346 0.43526 0.59726 0.0
H1243 H 0.61145 0.44361 0.57755 0.0
H1244 H 0.62254 0.46339 0.5991 0.0
H1245 H 0.55187 0.37673 0.64002 0.0
H1246 H 0.5486 0.37977 0.60957 0.0
H1247 H 0.57537 0.36953 0.62088 0.0
H1248 H 0.59016 0.3965 0.53228 0.0
H1249 H 0.64682 0.37394 0.57327 0.0
H1250 H 0.56704 0.43143 0.5676 0.0
H1251 H 0.55025 0.40781 0.57931 0.0
H1252 H 0.55502 0.40949 0.54878 0.0
H1253 H 0.61699 0.38356 0.62915 0.0
H1254 H 0.64243 0.39914 0.61794 0.0
H1255 H 0.64006 0.36889 0.61478 0.0
C1256 C 0.94956 0.45683 0.96049 0.0
C1257 C 0.94418 0.43357 0.96312 0.0
C1258 C 0.93273 0.47286 0.96555 0.0
C1259 C 0.91014 0.46539 0.97358 0.0
C1260 C 0.90405 0.4419 0.97444 0.0
C1261 C 0.92108 0.4263 0.969 0.0
C1262 C 0.93973 0.49779 0.96396 0.0
C1263 C 0.88018 0.43317 0.9829 0.0
C1264 C 0.88099 0.50269 0.01748 0.0
C1265 C 0.86323 0.51216 0.00458 0.0
C1266 C 0.89633 0.48748 0.00752 0.0
C1267 C 0.89411 0.48187 0.98396 0.0
C1268 C 0.87635 0.49151 0.97075 0.0
C1269 C 0.86097 0.50643 0.98127 0.0
C1270 C 0.91481 0.47728 0.0223 0.0
C1271 C 0.87369 0.48617 0.94553 0.0
H1272 H 0.96733 0.46261 0.95595 0.0
H1273 H 0.91668 0.40831 0.97051 0.0
H1274 H 0.92555 0.50716 0.95582 0.0
H1275 H 0.94246 0.50495 0.98145 0.0
H1276 H 0.95629 0.50079 0.95405 0.0
H1277 H 0.87729 0.41461 0.97997 0.0
H1278 H 0.87875 0.43665 0.00155 0.0
H1279 H 0.8659 0.44203 0.97433 0.0
H1280 H 0.88278 0.50698 0.03551 0.0
H1281 H 0.84738 0.51386 0.97116 0.0
H1282 H 0.93265 0.48163 0.01539 0.0
H1283 H 0.91238 0.45851 0.02206 0.0
H1284 H 0.91408 0.4833 0.04037 0.0
H1285 H 0.89043 0.49061 0.93644 0.0
H1286 H 0.85931 0.49548 0.93756 0.0
H1287 H 0.86991 0.46771 0.94293 0.0
C1288 C 0.61664 0.49631 0.49773 0.0
C1289 C 0.6088 0.47416 0.50329 0.0
C1290 C 0.60067 0.51354 0.49542 0.0
C1291 C 0.57625 0.50844 0.49847 0.0
C1292 C 0.56817 0.48603 0.50367 0.0
C1293 C 0.58457 0.46917 0.50617 0.0
C1294 C 0.60998 0.53733 0.49016 0.0
C1295 C 0.54224 0.47992 0.5068 0.0
C1296 C 0.54032 0.55845 0.51513 0.0
C1297 C 0.53193 0.56529 0.49382 0.0
C1298 C 0.55409 0.5395 0.517 0.0
C1299 C 0.55938 0.52686 0.49709 0.0
C1300 C 0.54983 0.53285 0.47572 0.0
C1301 C 0.53624 0.55206 0.47433 0.0
C1302 C 0.56385 0.53366 0.54015 0.0
C1303 C 0.55479 0.51953 0.45419 0.0
H1304 H 0.63533 0.5003 0.49553 0.0
H1305 H 0.57836 0.45206 0.51037 0.0
H1306 H 0.60174 0.54339 0.47429 0.0
H1307 H 0.60525 0.54903 0.50425 0.0
H1308 H 0.62944 0.5384 0.48794 0.0
H1309 H 0.53878 0.4615 0.50984 0.0
H1310 H 0.53524 0.48952 0.52153 0.0
H1311 H 0.5323 0.48476 0.4914 0.0
H1312 H 0.53651 0.56824 0.53037 0.0
H1313 H 0.52984 0.55725 0.45783 0.0
H1314 H 0.58334 0.53622 0.53995 0.0
H1315 H 0.55971 0.51556 0.54404 0.0
H1316 H 0.55673 0.54424 0.55416 0.0
H1317 H 0.57373 0.52188 0.44966 0.0
H1318 H 0.54413 0.52492 0.43945 0.0
H1319 H 0.55108 0.50113 0.45699 0.0
C1320 C 0.01317 0.0776 0.25844 0.0
C1321 C 0.01934 0.07201 0.28088 0.0
C1322 C 0.01514 0.10013 0.25094 0.0
C1323 C 0.02401 0.11731 0.26609 0.0
C1324 C 0.02845 0.11203 0.28925 0.0
C1325 C 0.02584 0.08943 0.29643 0.0
C1326 C 0.00912 0.1053 0.22645 0.0
C1327 C 0.03738 0.13002 0.30609 0.0
C1328 C 0.06442 0.16495 0.24398 0.0
C1329 C 0.05092 0.1839 0.24786 0.0
C1330 C 0.05536 0.14303 0.2488 0.0
C1331 C 0.03201 0.1399 0.25718 0.0
C1332 C 0.0176 0.15874 0.25921 0.0
C1333 C 0.02734 0.1806 0.2548 0.0
C1334 C 0.07142 0.12343 0.24649 0.0
C1335 C 0.99236 0.15609 0.26724 0.0
H1336 H 0.00774 0.06423 0.24644 0.0
H1337 H 0.03044 0.08528 0.31384 0.0
H1338 H 0.99931 0.12109 0.22554 0.0
H1339 H 0.02559 0.10802 0.2164 0.0
H1340 H 0.99838 0.09123 0.21829 0.0
H1341 H 0.041 0.12293 0.32321 0.0
H1342 H 0.05377 0.13867 0.29953 0.0
H1343 H 0.02414 0.1431 0.30814 0.0
H1344 H 0.08265 0.16731 0.23863 0.0
H1345 H 0.01673 0.19517 0.25766 0.0
H1346 H 0.06312 0.10989 0.23548 0.0
H1347 H 0.07429 0.11598 0.26357 0.0
H1348 H 0.08884 0.12864 0.23904 0.0
H1349 H 0.98373 0.14002 0.26078 0.0
H1350 H 0.98194 0.17049 0.26162 0.0
H1351 H 0.99194 0.15573 0.28622 0.0
C1352 C 0.1726 0.73721 0.5743 0.0
C1353 C 0.19528 0.7477 0.57354 0.0
C1354 C 0.15511 0.74289 0.55877 0.0
C1355 C 0.16042 0.75932 0.54181 0.0
C1356 C 0.18331 0.76992 0.5408 0.0
C1357 C 0.20047 0.76408 0.55679 0.0
C1358 C 0.13083 0.73139 0.56067 0.0
C1359 C 0.18966 0.78735 0.52281 0.0
C1360 C 0.11784 0.75637 0.49165 0.0
C1361 C 0.10227 0.77317 0.49769 0.0
C1362 C 0.13762 0.75247 0.50522 0.0
C1363 C 0.14169 0.76546 0.52549 0.0
C1364 C 0.1264 0.78289 0.53129 0.0
C1365 C 0.10697 0.7866 0.51725 0.0
C1366 C 0.15367 0.7339 0.49832 0.0
C1367 C 0.12991 0.79693 0.55288 0.0
H1368 H 0.16835 0.72462 0.58724 0.0
H1369 H 0.21798 0.77219 0.55604 0.0
H1370 H 0.11748 0.74428 0.56342 0.0
H1371 H 0.12626 0.72224 0.54448 0.0
H1372 H 0.12953 0.7191 0.57495 0.0
H1373 H 0.20836 0.79369 0.52401 0.0
H1374 H 0.18655 0.77992 0.50549 0.0
H1375 H 0.1782 0.80197 0.52458 0.0
H1376 H 0.11438 0.74614 0.47642 0.0
H1377 H 0.09481 0.79935 0.52219 0.0
H1378 H 0.1519 0.71984 0.51076 0.0
H1379 H 0.17234 0.74035 0.49862 0.0
H1380 H 0.14952 0.72697 0.48096 0.0
H1381 H 0.12867 0.78577 0.56806 0.0
H1382 H 0.11664 0.81007 0.55472 0.0
H1383 H 0.14776 0.80542 0.55296 0.0
C1384 C 0.53768 0.92774 0.79422 0.0
C1385 C 0.52557 0.93426 0.81398 0.0
C1386 C 0.53395 0.90596 0.78473 0.0
C1387 C 0.51754 0.89048 0.79516 0.0
C1388 C 0.50693 0.89627 0.81626 0.0
C1389 C 0.51119 0.91811 0.82553 0.0
C1390 C 0.54595 0.90032 0.76243 0.0
C1391 C 0.48933 0.88022 0.82793 0.0
C1392 C 0.48136 0.85244 0.75461 0.0
C1393 C 0.49164 0.83151 0.75726 0.0
C1394 C 0.48961 0.87165 0.76698 0.0
C1395 C 0.50877 0.86997 0.78226 0.0
C1396 C 0.51941 0.84896 0.78489 0.0
C1397 C 0.51065 0.82992 0.77241 0.0
C1398 C 0.47768 0.89375 0.76378 0.0
C1399 C 0.53996 0.84662 0.80091 0.0
H1400 H 0.54901 0.94012 0.78537 0.0
H1401 H 0.50175 0.92304 0.8408 0.0
H1402 H 0.55259 0.88295 0.76281 0.0
H1403 H 0.53302 0.90081 0.74824 0.0
H1404 H 0.56091 0.91252 0.75859 0.0
H1405 H 0.48561 0.88569 0.84579 0.0
H1406 H 0.47253 0.87957 0.81822 0.0
H1407 H 0.49577 0.86278 0.8282 0.0
H1408 H 0.46659 0.85379 0.74306 0.0
H1409 H 0.51868 0.81378 0.77454 0.0
H1410 H 0.49061 0.90692 0.75745 0.0
H1411 H 0.47083 0.89984 0.78043 0.0
H1412 H 0.4628 0.8921 0.75146 0.0
H1413 H 0.55471 0.8586 0.796 0.0
H1414 H 0.54642 0.82915 0.80083 0.0
H1415 H 0.53474 0.85111 0.81864 0.0
C1416 C 0.3208 0.26771 0.0596 0.0
C1417 C 0.30784 0.25499 0.0759 0.0
C1418 C 0.34355 0.26188 0.05307 0.0
C1419 C 0.35359 0.24279 0.06298 0.0
C1420 C 0.34041 0.22956 0.07904 0.0
C1421 C 0.31772 0.23585 0.08536 0.0
C1422 C 0.35708 0.27648 0.03597 0.0
C1423 C 0.35045 0.20901 0.08987 0.0
C1424 C 0.40676 0.21865 0.03327 0.0
C1425 C 0.42552 0.22839 0.04622 0.0
C1426 C 0.38323 0.22292 0.03868 0.0
C1427 C 0.37831 0.2374 0.05739 0.0
C1428 C 0.3971 0.24715 0.07061 0.0
C1429 C 0.4204 0.24246 0.06494 0.0
C1430 C 0.36366 0.21212 0.02424 0.0
C1431 C 0.3926 0.26268 0.09071 0.0
H1432 H 0.31332 0.2825 0.05217 0.0
H1433 H 0.3078 0.22586 0.09788 0.0
H1434 H 0.37312 0.28433 0.04417 0.0
H1435 H 0.36298 0.26592 0.02142 0.0
H1436 H 0.34642 0.2902 0.02915 0.0
H1437 H 0.33748 0.19981 0.10111 0.0
H1438 H 0.35634 0.19713 0.07642 0.0
H1439 H 0.36616 0.21426 0.10025 0.0
H1440 H 0.41041 0.20794 0.01866 0.0
H1441 H 0.4346 0.24971 0.0754 0.0
H1442 H 0.35382 0.22548 0.01575 0.0
H1443 H 0.35093 0.20237 0.03523 0.0
H1444 H 0.37036 0.20054 0.01087 0.0
H1445 H 0.38312 0.27758 0.08489 0.0
H1446 H 0.40916 0.26883 0.09932 0.0
H1447 H 0.38118 0.25369 0.10347 0.0
C1448 C 0.27752 0.028 0.19543 0.0
C1449 C 0.29659 0.02653 0.21047 0.0
C1450 C 0.28019 0.02389 0.17187 0.0
C1451 C 0.30251 0.01839 0.16313 0.0
C1452 C 0.32192 0.01729 0.17817 0.0
C1453 C 0.3187 0.02128 0.20166 0.0
C1454 C 0.25902 0.02501 0.15639 0.0
C1455 C 0.34607 0.01176 0.16947 0.0
C1456 C 0.30532 0.9856 0.10701 0.0
C1457 C 0.31115 0.00284 0.09131 0.0
C1458 C 0.30229 0.99046 0.13037 0.0
C1459 C 0.30545 0.01311 0.13835 0.0
C1460 C 0.31158 0.0306 0.12273 0.0
C1461 C 0.31425 0.02528 0.0994 0.0
C1462 C 0.2957 0.97134 0.1465 0.0
C1463 C 0.31524 0.05495 0.13065 0.0
H1464 H 0.26038 0.03186 0.2022 0.0
H1465 H 0.33357 0.02052 0.21316 0.0
H1466 H 0.26278 0.03734 0.14249 0.0
H1467 H 0.25521 0.0082 0.14816 0.0
H1468 H 0.24303 0.03004 0.16579 0.0
H1469 H 0.35948 0.01228 0.18332 0.0
H1470 H 0.34537 0.9946 0.16152 0.0
H1471 H 0.35189 0.02396 0.15603 0.0
H1472 H 0.30327 0.96818 0.10113 0.0
H1473 H 0.31843 0.03881 0.08748 0.0
H1474 H 0.27903 0.97484 0.15554 0.0
H1475 H 0.30955 0.97006 0.15973 0.0
H1476 H 0.29341 0.95471 0.13749 0.0
H1477 H 0.29883 0.06082 0.13861 0.0
H1478 H 0.32035 0.06651 0.1164 0.0
H1479 H 0.3292 0.05629 0.14393 0.0
C1480 C 0.2247 0.99097 0.43453 0.0
C1481 C 0.2328 0.9952 0.45688 0.0
C1482 C 0.23551 0.00196 0.41584 0.0
C1483 C 0.25538 0.01698 0.41953 0.0
C1484 C 0.26498 0.01962 0.4418 0.0
C1485 C 0.25332 0.00898 0.46032 0.0
C1486 C 0.22447 0.99889 0.39242 0.0
C1487 C 0.28666 0.03477 0.44633 0.0
C1488 C 0.28388 0.03635 0.3639 0.0
C1489 C 0.27259 0.05663 0.36015 0.0
C1490 C 0.27994 0.02402 0.3841 0.0
C1491 C 0.26391 0.03191 0.4006 0.0
C1492 C 0.25369 0.0531 0.39755 0.0
C1493 C 0.25835 0.06533 0.37745 0.0
C1494 C 0.2919 0.00196 0.38717 0.0
C1495 C 0.23655 0.06214 0.41481 0.0
H1496 H 0.20875 0.98047 0.43177 0.0
H1497 H 0.25971 0.01219 0.47759 0.0
H1498 H 0.21795 0.01529 0.38659 0.0
H1499 H 0.23778 0.99358 0.3798 0.0
H1500 H 0.20947 0.9861 0.39233 0.0
H1501 H 0.29493 0.03086 0.46296 0.0
H1502 H 0.29989 0.03305 0.43248 0.0
H1503 H 0.28172 0.05272 0.44687 0.0
H1504 H 0.29513 0.02967 0.35067 0.0
H1505 H 0.24958 0.08099 0.37469 0.0
H1506 H 0.27906 0.98755 0.38391 0.0
H1507 H 0.29833 0.00046 0.405 0.0
H1508 H 0.30699 0.00039 0.37521 0.0
H1509 H 0.22119 0.04995 0.41666 0.0
H1510 H 0.23008 0.07887 0.40987 0.0
H1511 H 0.24505 0.06395 0.43184 0.0
C1512 C 0.19177 0.98042 0.70849 0.0
C1513 C 0.21247 0.9716 0.717 0.0
C1514 C 0.19059 0.98827 0.68596 0.0
C1515 C 0.2107 0.98752 0.67166 0.0
C1516 C 0.23176 0.9789 0.68024 0.0
C1517 C 0.23234 0.97089 0.70278 0.0
C1518 C 0.16769 0.997 0.67733 0.0
C1519 C 0.25366 0.9781 0.66559 0.0
C1520 C 0.20146 0.9868 0.60732 0.0
C1521 C 0.20628 0.00964 0.60162 0.0
C1522 C 0.20278 0.97943 0.63001 0.0
C1523 C 0.20944 0.99516 0.64752 0.0
C1524 C 0.21457 0.01816 0.64199 0.0
C1525 C 0.21277 0.02515 0.61916 0.0
C1526 C 0.19698 0.95477 0.63525 0.0
C1527 C 0.22191 0.0354 0.66021 0.0
H1528 H 0.17629 0.98071 0.71935 0.0
H1529 H 0.24843 0.96433 0.70941 0.0
H1530 H 0.17054 0.01463 0.67115 0.0
H1531 H 0.16122 0.98648 0.66257 0.0
H1532 H 0.15378 0.99675 0.69074 0.0
H1533 H 0.26882 0.97157 0.67507 0.0
H1534 H 0.25011 0.96706 0.65038 0.0
H1535 H 0.25868 0.99531 0.65923 0.0
H1536 H 0.19688 0.97448 0.59405 0.0
H1537 H 0.21627 0.04285 0.61515 0.0
H1538 H 0.18238 0.95336 0.6479 0.0
H1539 H 0.21247 0.94708 0.64305 0.0
H1540 H 0.19172 0.94476 0.61973 0.0
H1541 H 0.20762 0.03674 0.67306 0.0
H1542 H 0.22602 0.05248 0.653 0.0
H1543 H 0.23769 0.02982 0.66938 0.0
C1544 C 0.26759 0.93415 0.87152 0.0
C1545 C 0.25012 0.93914 0.85567 0.0
C1546 C 0.27336 0.94903 0.88975 0.0
C1547 C 0.26135 0.96941 0.89224 0.0
C1548 C 0.24278 0.97394 0.8771 0.0
C1549 C 0.23738 0.95875 0.85896 0.0
C1550 C 0.29298 0.94337 0.90584 0.0
C1551 C 0.22931 0.99528 0.87945 0.0
C1552 C 0.2731 0.99845 0.94956 0.0
C1553 C 0.29247 0.01314 0.94422 0.0
C1554 C 0.26152 0.98524 0.93248 0.0
C1555 C 0.26971 0.98658 0.90961 0.0
C1556 C 0.28809 0.0026 0.90387 0.0
C1557 C 0.29911 0.01584 0.92122 0.0
C1558 C 0.24165 0.96875 0.93923 0.0
C1559 C 0.29735 0.00455 0.87967 0.0
H1560 H 0.27737 0.91894 0.86927 0.0
H1561 H 0.22377 0.96273 0.84687 0.0
H1562 H 0.30696 0.95715 0.90574 0.0
H1563 H 0.28612 0.94214 0.9236 0.0
H1564 H 0.30099 0.92713 0.90124 0.0
H1565 H 0.21339 0.9948 0.86839 0.0
H1566 H 0.22383 0.99793 0.89749 0.0
H1567 H 0.24087 0.01013 0.87455 0.0
H1568 H 0.26772 0.9964 0.96727 0.0
H1569 H 0.31402 0.02715 0.9169 0.0
H1570 H 0.24818 0.95134 0.93957 0.0
H1571 H 0.2271 0.96877 0.92659 0.0
H1572 H 0.23451 0.97276 0.95646 0.0
H1573 H 0.30506 0.98838 0.87438 0.0
H1574 H 0.31108 0.01847 0.87785 0.0
H1575 H 0.28273 0.00759 0.8677 0.0
C1576 C 0.07704 0.3235 0.0234 0.0
C1577 C 0.07604 0.32918 1.00014 0.0
C1578 C 0.09702 0.31392 0.03265 0.0
C1579 C 0.11647 0.30971 0.0183 0.0
C1580 C 0.11572 0.31553 0.99487 0.0
C1581 C 0.09556 0.32525 0.98609 0.0
C1582 C 0.09715 0.30798 0.05776 0.0
C1583 C 0.13612 0.31125 0.97902 0.0
C1584 C 0.17519 0.30099 0.04729 0.0
C1585 C 0.17551 0.27723 0.04799 0.0
C1586 C 0.15629 0.31182 0.03736 0.0
C1587 C 0.13728 0.29859 0.02775 0.0
C1588 C 0.13771 0.27464 0.02792 0.0
C1589 C 0.15674 0.26427 0.03808 0.0
C1590 C 0.15644 0.33741 0.03754 0.0
C1591 C 0.11779 0.25993 0.0178 0.0
H1592 H 0.06201 0.32609 0.03438 0.0
H1593 H 0.09515 0.32985 0.96821 0.0
H1594 H 0.09859 0.28942 0.05968 0.0
H1595 H 0.11271 0.31638 0.06629 0.0
H1596 H 0.08098 0.31313 0.06679 0.0
H1597 H 0.13297 0.31716 0.96134 0.0
H1598 H 0.15247 0.32001 0.98565 0.0
H1599 H 0.13924 0.29284 0.97835 0.0
H1600 H 0.18973 0.31118 0.05455 0.0
H1601 H 0.15655 0.24595 0.03877 0.0
H1602 H 0.14122 0.34318 0.04762 0.0
H1603 H 0.15448 0.34374 0.01986 0.0
H1604 H 0.17289 0.34525 0.04501 0.0
H1605 H 0.10125 0.26267 0.02738 0.0
H1606 H 0.12134 0.24159 0.01829 0.0
H1607 H 0.11474 0.26471 0.99976 0.0
C1608 C 0.66825 0.25934 0.9596 0.0
C1609 C 0.66742 0.26619 0.93669 0.0
C1610 C 0.6483 0.24918 0.97035 0.0
C1611 C 0.62712 0.24551 0.9578 0.0
C1612 C 0.62596 0.25307 0.93492 0.0
C1613 C 0.64606 0.26344 0.9247 0.0
C1614 C 0.65014 0.24166 0.99489 0.0
C1615 C 0.6038 0.24931 0.92087 0.0
C1616 C 0.58564 0.19619 0.9751 0.0
C1617 C 0.56757 0.20725 0.98639 0.0
C1618 C 0.60507 0.20846 0.96575 0.0
C1619 C 0.60669 0.2324 0.96801 0.0
C1620 C 0.58863 0.24368 0.97961 0.0
C1621 C 0.56918 0.23098 0.98851 0.0
C1622 C 0.62378 0.1958 0.95323 0.0
C1623 C 0.58987 0.26914 0.98261 0.0
H1624 H 0.68464 0.2615 0.96903 0.0
H1625 H 0.64523 0.26863 0.90698 0.0
H1626 H 0.63544 0.24818 0.0052 0.0
H1627 H 0.64863 0.22287 0.9956 0.0
H1628 H 0.6671 0.24755 0.00289 0.0
H1629 H 0.60533 0.25736 0.90378 0.0
H1630 H 0.59993 0.23084 0.91837 0.0
H1631 H 0.58853 0.25621 0.93002 0.0
H1632 H 0.58449 0.17787 0.97328 0.0
H1633 H 0.55535 0.23964 0.99733 0.0
H1634 H 0.64116 0.19921 0.96154 0.0
H1635 H 0.62536 0.20184 0.93534 0.0
H1636 H 0.61986 0.17718 0.95288 0.0
H1637 H 0.60644 0.27466 0.99151 0.0
H1638 H 0.57471 0.27528 0.99257 0.0
H1639 H 0.59018 0.2774 0.96562 0.0
C1640 C 0.04752 0.34016 0.26339 0.0
C1641 C 0.03862 0.32874 0.28278 0.0
C1642 C 0.04266 0.36291 0.25944 0.0
C1643 C 0.02841 0.37452 0.27516 0.0
C1644 C 0.0197 0.36327 0.29494 0.0
C1645 C 0.025 0.3406 0.29856 0.0
C1646 C 0.05241 0.37438 0.2382 0.0
C1647 C 0.00443 0.37507 0.31211 0.0
C1648 C 0.02996 0.43902 0.27474 0.0
C1649 C 0.00991 0.44321 0.26174 0.0
C1650 C 0.03626 0.41676 0.27919 0.0
C1651 C 0.02204 0.39824 0.2706 0.0
C1652 C 0.00166 0.40237 0.25765 0.0
C1653 C 0.9959 0.42479 0.2533 0.0
C1654 C 0.05826 0.41305 0.29285 0.0
C1655 C 0.9859 0.38309 0.24839 0.0
H1656 H 0.05781 0.33119 0.25092 0.0
H1657 H 0.0184 0.33214 0.3138 0.0
H1658 H 0.0377 0.37901 0.22696 0.0
H1659 H 0.06243 0.39034 0.24292 0.0
H1660 H 0.06418 0.3634 0.2283 0.0
H1661 H 0.99938 0.36407 0.32682 0.0
H1662 H 0.01383 0.39067 0.31874 0.0
H1663 H 0.98812 0.38034 0.30365 0.0
H1664 H 0.04106 0.45316 0.28101 0.0
H1665 H 0.98027 0.42795 0.24346 0.0
H1666 H 0.0707 0.40328 0.28244 0.0
H1667 H 0.05379 0.40289 0.30827 0.0
H1668 H 0.06736 0.42926 0.29839 0.0
H1669 H 0.9961 0.37221 0.2368 0.0
H1670 H 0.97058 0.38917 0.23881 0.0
H1671 H 0.97924 0.37228 0.26267 0.0
C1672 C 0.9471 0.78109 0.46951 0.0
C1673 C 0.96337 0.77385 0.48561 0.0
C1674 C 0.92469 0.77029 0.46733 0.0
C1675 C 0.91826 0.75177 0.48162 0.0
C1676 C 0.93432 0.74469 0.49832 0.0
C1677 C 0.95672 0.75581 0.50011 0.0
C1678 C 0.90807 0.77841 0.44931 0.0
C1679 C 0.92804 0.72505 0.51389 0.0
C1680 C 0.85232 0.73812 0.48306 0.0
C1681 C 0.84979 0.72163 0.46564 0.0
C1682 C 0.87469 0.74714 0.48952 0.0
C1683 C 0.89499 0.73947 0.47829 0.0
C1684 C 0.89265 0.72171 0.46185 0.0
C1685 C 0.87009 0.71298 0.45575 0.0
C1686 C 0.87645 0.76592 0.50726 0.0
C1687 C 0.91386 0.71298 0.44954 0.0
H1688 H 0.952 0.79505 0.45827 0.0
H1689 H 0.96915 0.7501 0.51261 0.0
H1690 H 0.90411 0.76464 0.43662 0.0
H1691 H 0.89112 0.78279 0.4573 0.0
H1692 H 0.91548 0.79349 0.44007 0.0
H1693 H 0.9419 0.72251 0.52688 0.0
H1694 H 0.91116 0.72784 0.52284 0.0
H1695 H 0.92548 0.70923 0.50357 0.0
H1696 H 0.83676 0.74483 0.49092 0.0
H1697 H 0.86836 0.70014 0.44238 0.0
H1698 H 0.88131 0.78222 0.49875 0.0
H1699 H 0.89046 0.76276 0.51987 0.0
H1700 H 0.85955 0.76779 0.51656 0.0
H1701 H 0.9212 0.72622 0.43781 0.0
H1702 H 0.90938 0.69741 0.43931 0.0
H1703 H 0.92789 0.70924 0.46193 0.0
C1704 C 0.33608 0.70034 0.58402 0.0
C1705 C 0.31521 0.68734 0.57957 0.0
C1706 C 0.35703 0.69625 0.57231 0.0
C1707 C 0.35737 0.67839 0.55598 0.0
C1708 C 0.3366 0.66469 0.55189 0.0
C1709 C 0.31573 0.66934 0.56373 0.0
C1710 C 0.37878 0.71118 0.57741 0.0
C1711 C 0.33632 0.64546 0.53465 0.0
C1712 C 0.40675 0.68531 0.51226 0.0
C1713 C 0.42409 0.67213 0.52175 0.0
C1714 C 0.38449 0.68661 0.52261 0.0
C1715 C 0.37947 0.67452 0.54302 0.0
C1716 C 0.39656 0.66048 0.55219 0.0
C1717 C 0.41862 0.65944 0.54144 0.0
C1718 C 0.36677 0.70184 0.51234 0.0
C1719 C 0.392 0.64741 0.57398 0.0
H1720 H 0.33601 0.7139 0.59665 0.0
H1721 H 0.29968 0.65932 0.56012 0.0
H1722 H 0.39184 0.70122 0.58655 0.0
H1723 H 0.38717 0.71739 0.56133 0.0
H1724 H 0.37472 0.72612 0.58816 0.0
H1725 H 0.31906 0.63578 0.53416 0.0
H1726 H 0.34018 0.65225 0.51732 0.0
H1727 H 0.3503 0.63363 0.53873 0.0
H1728 H 0.41078 0.69495 0.49694 0.0
H1729 H 0.43196 0.64946 0.54915 0.0
H1730 H 0.36413 0.71642 0.52406 0.0
H1731 H 0.34946 0.69253 0.5103 0.0
H1732 H 0.37255 0.7085 0.4954 0.0
H1733 H 0.39104 0.65944 0.58863 0.0
H1734 H 0.40605 0.63545 0.57753 0.0
H1735 H 0.37481 0.63769 0.57302 0.0
C1736 C 0.99496 0.93191 0.20942 0.0
C1737 C 0.01421 0.93439 0.22437 0.0
C1738 C 0.98437 0.91045 0.20448 0.0
C1739 C 0.99353 0.89095 0.21443 0.0
C1740 C 0.01312 0.89334 0.2294 0.0
C1741 C 0.02307 0.91507 0.23436 0.0
C1742 C 0.96321 0.90867 0.18884 0.0
C1743 C 0.02363 0.87294 0.24007 0.0
C1744 C 0.95502 0.83656 0.21782 0.0
C1745 C 0.96272 0.82415 0.19874 0.0
C1746 C 0.96469 0.85836 0.223 0.0
C1747 C 0.98278 0.86803 0.20898 0.0
C1748 C 0.99061 0.85582 0.18968 0.0
C1749 C 0.98039 0.83422 0.18469 0.0
C1750 C 0.95562 0.87103 0.24356 0.0
C1751 C 0.01002 0.8655 0.1744 0.0
H1752 H 0.98779 0.94686 0.20202 0.0
H1753 H 0.038 0.917 0.24586 0.0
H1754 H 0.96706 0.89799 0.17367 0.0
H1755 H 0.94801 0.90028 0.19789 0.0
H1756 H 0.95799 0.92551 0.18284 0.0
H1757 H 0.03905 0.87768 0.25109 0.0
H1758 H 0.01017 0.86359 0.25059 0.0
H1759 H 0.0293 0.86112 0.22645 0.0
H1760 H 0.94155 0.82933 0.22901 0.0
H1761 H 0.98648 0.82533 0.16973 0.0
H1762 H 0.94936 0.88771 0.23825 0.0
H1763 H 0.97008 0.87441 0.25605 0.0
H1764 H 0.94093 0.86148 0.25233 0.0
H1765 H 0.00468 0.88164 0.16683 0.0
H1766 H 0.01444 0.85369 0.16027 0.0
H1767 H 0.02616 0.86944 0.18464 0.0
C1768 C 0.54585 0.07082 0.7228 0.0
C1769 C 0.53728 0.06896 0.7453 0.0
C1770 C 0.54741 0.09181 0.7117 0.0
C1771 C 0.54009 0.1114 0.72333 0.0
C1772 C 0.53079 0.10957 0.74579 0.0
C1773 C 0.52956 0.08839 0.75652 0.0
C1774 C 0.55741 0.0931 0.68773 0.0
C1775 C 0.52278 0.13011 0.75874 0.0
C1776 C 0.5669 0.16915 0.70757 0.0
C1777 C 0.54875 0.17825 0.69488 0.0
C1778 C 0.56452 0.1472 0.71643 0.0
C1779 C 0.54338 0.13404 0.71259 0.0
C1780 C 0.52523 0.14285 0.69922 0.0
C1781 C 0.52818 0.16487 0.69043 0.0
C1782 C 0.5844 0.1383 0.73036 0.0
C1783 C 0.50242 0.12932 0.69485 0.0
H1784 H 0.55143 0.05585 0.71383 0.0
H1785 H 0.52315 0.0872 0.77395 0.0
H1786 H 0.54489 0.10116 0.67614 0.0
H1787 H 0.57397 0.10387 0.68777 0.0
H1788 H 0.56125 0.07613 0.68065 0.0
H1789 H 0.51462 0.12559 0.77549 0.0
H1790 H 0.53805 0.14217 0.76184 0.0
H1791 H 0.5098 0.13907 0.74843 0.0
H1792 H 0.58296 0.17935 0.71071 0.0
H1793 H 0.51403 0.17194 0.68081 0.0
H1794 H 0.58983 0.1219 0.72312 0.0
H1795 H 0.57834 0.13511 0.74817 0.0
H1796 H 0.60006 0.15033 0.73093 0.0
H1797 H 0.50605 0.11246 0.68744 0.0
H1798 H 0.49062 0.13809 0.68305 0.0
H1799 H 0.493 0.12635 0.71129 0.0
C1800 C 0.53892 0.33891 0.73483 0.0
C1801 C 0.52954 0.31726 0.7289 0.0
C1802 C 0.52631 0.35827 0.73072 0.0
C1803 C 0.50341 0.35586 0.72114 0.0
C1804 C 0.4929 0.33391 0.71737 0.0
C1805 C 0.5063 0.31482 0.72084 0.0
C1806 C 0.53812 0.38134 0.73539 0.0
C1807 C 0.468 0.33059 0.7086 0.0
C1808 C 0.47644 0.41318 0.72033 0.0
C1809 C 0.48245 0.42034 0.69818 0.0
C1810 C 0.48067 0.39106 0.7274 0.0
C1811 C 0.49225 0.37631 0.7123 0.0
C1812 C 0.49682 0.383 0.68941 0.0
C1813 C 0.49143 0.40482 0.68252 0.0
C1814 C 0.47419 0.38417 0.75149 0.0
C1815 C 0.50959 0.36806 0.67282 0.0
H1816 H 0.55684 0.34094 0.74116 0.0
H1817 H 0.49886 0.29807 0.71651 0.0
H1818 H 0.53762 0.39206 0.71991 0.0
H1819 H 0.52852 0.39009 0.74916 0.0
H1820 H 0.55677 0.38024 0.74081 0.0
H1821 H 0.46049 0.31329 0.71235 0.0
H1822 H 0.45644 0.34326 0.71632 0.0
H1823 H 0.46785 0.33284 0.68977 0.0
H1824 H 0.46935 0.42516 0.73242 0.0
H1825 H 0.49629 0.41038 0.66544 0.0
H1826 H 0.48929 0.38832 0.76304 0.0
H1827 H 0.46981 0.36568 0.75255 0.0
H1828 H 0.45893 0.39353 0.75786 0.0
H1829 H 0.52776 0.36577 0.67908 0.0
H1830 H 0.51067 0.37532 0.65536 0.0
H1831 H 0.5006 0.35101 0.67165 0.0
C1832 C 0.82897 0.27562 0.98132 0.0
C1833 C 0.81936 0.28444 0.96133 0.0
C1834 C 0.84994 0.28511 0.99084 0.0
C1835 C 0.86159 0.30394 0.98018 0.0
C1836 C 0.85196 0.31301 0.96009 0.0
C1837 C 0.83101 0.30314 0.95091 0.0
C1838 C 0.85962 0.275 0.01231 0.0
C1839 C 0.86386 0.33309 0.9482 0.0
C1840 C 0.90459 0.34314 0.01332 0.0
C1841 C 0.92641 0.33634 0.00506 0.0
C1842 C 0.88336 0.33231 0.00589 0.0
C1843 C 0.88395 0.31416 0.98989 0.0
C1844 C 0.90594 0.30655 0.98228 0.0
C1845 C 0.92689 0.31775 0.98992 0.0
C1846 C 0.86028 0.34093 0.01443 0.0
C1847 C 0.90732 0.28714 0.96536 0.0
H1848 H 0.81997 0.26142 0.98972 0.0
H1849 H 0.82396 0.3099 0.93532 0.0
H1850 H 0.87769 0.26933 0.00908 0.0
H1851 H 0.86093 0.28804 0.02612 0.0
H1852 H 0.84849 0.26031 0.01848 0.0
H1853 H 0.85395 0.3383 0.9329 0.0
H1854 H 0.8657 0.34774 0.96021 0.0
H1855 H 0.88189 0.32889 0.94275 0.0
H1856 H 0.904 0.3575 0.02499 0.0
H1857 H 0.94365 0.31231 0.98348 0.0
H1858 H 0.84892 0.32674 0.02124 0.0
H1859 H 0.85068 0.34834 1.0 0.0
H1860 H 0.86284 0.35408 0.02806 0.0
H1861 H 0.89684 0.27209 0.97158 0.0
H1862 H 0.92574 0.28228 0.96234 0.0
H1863 H 0.89964 0.29199 0.94876 0.0
C1864 C 0.98676 0.69101 0.21137 0.0
C1865 C 0.96222 0.69261 0.21296 0.0
C1866 C 0.99688 0.66981 0.20903 0.0
C1867 C 0.98212 0.6498 0.20853 0.0
C1868 C 0.9574 0.65132 0.21073 0.0
C1869 C 0.94776 0.67268 0.21277 0.0
C1870 C 0.02329 0.66885 0.20664 0.0
C1871 C 0.94109 0.63034 0.21079 0.0
C1872 C 0.99833 0.59475 0.17995 0.0
C1873 C 0.00193 0.58099 0.19896 0.0
C1874 C 0.9934 0.6177 0.18275 0.0
C1875 C 0.99214 0.62714 0.20508 0.0
C1876 C 0.99761 0.61383 0.22421 0.0
C1877 C 0.00247 0.59091 0.22092 0.0
C1878 C 0.98772 0.63131 0.16189 0.0
C1879 C 0.99661 0.62327 0.24829 0.0
H1880 H 0.99804 0.70635 0.21146 0.0
H1881 H 0.92881 0.67375 0.21421 0.0
H1882 H 0.03028 0.65754 0.21981 0.0
H1883 H 0.02769 0.66156 0.18966 0.0
H1884 H 0.03239 0.68586 0.20835 0.0
H1885 H 0.92225 0.63446 0.21219 0.0
H1886 H 0.94357 0.6203 0.19489 0.0
H1887 H 0.94544 0.6194 0.22538 0.0
H1888 H 0.99799 0.58732 0.1629 0.0
H1889 H 0.00539 0.58049 0.23573 0.0
H1890 H 0.99693 0.6483 0.16261 0.0
H1891 H 0.96849 0.6339 0.16146 0.0
H1892 H 0.9927 0.62265 0.14573 0.0
H1893 H 0.00575 0.64028 0.24936 0.0
H1894 H 0.00468 0.61199 0.26088 0.0
H1895 H 0.97794 0.62528 0.25325 0.0
C1896 C 0.58084 0.71702 0.50509 0.0
C1897 C 0.5737 0.69401 0.50313 0.0
C1898 C 0.604 0.7246 0.4995 0.0
C1899 C 0.62052 0.70871 0.49231 0.0
C1900 C 0.6133 0.6855 0.49011 0.0
C1901 C 0.58996 0.67849 0.49529 0.0
C1902 C 0.61088 0.74955 0.50158 0.0
C1903 C 0.63044 0.66793 0.48297 0.0
C1904 C 0.67766 0.72703 0.46198 0.0
C1905 C 0.69377 0.72783 0.48015 0.0
C1906 C 0.65361 0.7215 0.46575 0.0
C1907 C 0.64564 0.71606 0.48814 0.0
C1908 C 0.66191 0.71677 0.50651 0.0
C1909 C 0.6857 0.72289 0.50232 0.0
C1910 C 0.63675 0.72141 0.44581 0.0
C1911 C 0.65429 0.71055 0.53053 0.0
H1912 H 0.56833 0.72911 0.511 0.0
H1913 H 0.58464 0.66065 0.49387 0.0
H1914 H 0.62432 0.75231 0.51521 0.0
H1915 H 0.61894 0.75574 0.48534 0.0
H1916 H 0.59558 0.75991 0.50575 0.0
H1917 H 0.62193 0.65062 0.4817 0.0
H1918 H 0.6384 0.67234 0.46614 0.0
H1919 H 0.64503 0.66767 0.49556 0.0
H1920 H 0.68388 0.73107 0.44488 0.0
H1921 H 0.6982 0.72324 0.51632 0.0
H1922 H 0.62203 0.73257 0.44968 0.0
H1923 H 0.62892 0.70405 0.44293 0.0
H1924 H 0.64551 0.72724 0.42974 0.0
H1925 H 0.64026 0.72169 0.53643 0.0
H1926 H 0.66912 0.71203 0.54291 0.0
H1927 H 0.64676 0.69285 0.53071 0.0
C1928 C 0.70938 0.47204 0.40859 0.0
C1929 C 0.69387 0.45508 0.41732 0.0
C1930 C 0.70549 0.48162 0.3871 0.0
C1931 C 0.68588 0.47369 0.37382 0.0
C1932 C 0.67052 0.45611 0.3823 0.0
C1933 C 0.67455 0.4472 0.40409 0.0
C1934 C 0.72205 0.50063 0.37888 0.0
C1935 C 0.64974 0.44686 0.36844 0.0
C1936 C 0.66498 0.51451 0.32911 0.0
C1937 C 0.67727 0.50756 0.30964 0.0
C1938 C 0.66703 0.50319 0.35001 0.0
C1939 C 0.68134 0.48422 0.35128 0.0
C1940 C 0.69271 0.47639 0.3313 0.0
C1941 C 0.69076 0.48834 0.31078 0.0
C1942 C 0.65495 0.51232 0.37099 0.0
C1943 C 0.70767 0.45593 0.33179 0.0
H1944 H 0.7241 0.47839 0.41895 0.0
H1945 H 0.66265 0.43399 0.41082 0.0
H1946 H 0.7301 0.49588 0.3623 0.0
H1947 H 0.71209 0.51606 0.37594 0.0
H1948 H 0.73641 0.50488 0.39131 0.0
H1949 H 0.64018 0.43242 0.37699 0.0
H1950 H 0.63723 0.46043 0.3656 0.0
H1951 H 0.65577 0.44113 0.35134 0.0
H1952 H 0.65483 0.52957 0.3283 0.0
H1953 H 0.70016 0.48299 0.29565 0.0
H1954 H 0.66842 0.5188 0.38347 0.0
H1955 H 0.64427 0.49862 0.37951 0.0
H1956 H 0.64328 0.5263 0.36684 0.0
H1957 H 0.72374 0.45989 0.34212 0.0
H1958 H 0.71316 0.4506 0.31436 0.0
H1959 H 0.69789 0.44148 0.34006 0.0
C1960 C 0.71934 0.45155 0.57129 0.0
C1961 C 0.69567 0.45719 0.56976 0.0
C1962 C 0.73107 0.45194 0.59251 0.0
C1963 C 0.71872 0.45782 0.61265 0.0
C1964 C 0.695 0.46404 0.6111 0.0
C1965 C 0.68391 0.4639 0.58969 0.0
C1966 C 0.75643 0.44547 0.59347 0.0
C1967 C 0.68112 0.47036 0.63214 0.0
C1968 C 0.73484 0.43539 0.67086 0.0
C1969 C 0.74424 0.45504 0.68186 0.0
C1970 C 0.7274 0.43582 0.64799 0.0
C1971 C 0.72991 0.45629 0.6356 0.0
C1972 C 0.74086 0.47579 0.6461 0.0
C1973 C 0.74771 0.475 0.6692 0.0
C1974 C 0.7153 0.41479 0.63765 0.0
C1975 C 0.74419 0.49783 0.63335 0.0
H1976 H 0.7286 0.44643 0.55598 0.0
H1977 H 0.66573 0.46855 0.58869 0.0
H1978 H 0.76723 0.45865 0.60289 0.0
H1979 H 0.75763 0.42938 0.60295 0.0
H1980 H 0.76413 0.44321 0.57614 0.0
H1981 H 0.66232 0.47302 0.62821 0.0
H1982 H 0.68189 0.45692 0.64522 0.0
H1983 H 0.68902 0.48619 0.63986 0.0
H1984 H 0.73191 0.41991 0.68051 0.0
H1985 H 0.75501 0.49023 0.67755 0.0
H1986 H 0.72313 0.41084 0.62074 0.0
H1987 H 0.69639 0.41782 0.63481 0.0
H1988 H 0.71648 0.39977 0.64883 0.0
H1989 H 0.75171 0.49484 0.61609 0.0
H1990 H 0.75593 0.51034 0.6427 0.0
H1991 H 0.72683 0.50533 0.63095 0.0
C1992 C 0.75708 0.57623 0.92158 0.0
C1993 C 0.77618 0.56726 0.93304 0.0
C1994 C 0.75262 0.57105 0.89841 0.0
C1995 C 0.76756 0.55647 0.88643 0.0
C1996 C 0.78716 0.54776 0.89773 0.0
C1997 C 0.79127 0.55333 0.92082 0.0
C1998 C 0.7316 0.58073 0.88689 0.0
C1999 C 0.80352 0.53214 0.88557 0.0
C2000 C 0.74386 0.52213 0.83552 0.0
C2001 C 0.75426 0.53383 0.81697 0.0
C2002 C 0.74772 0.52956 0.85814 0.0
C2003 C 0.76216 0.54934 0.86241 0.0
C2004 C 0.7722 0.56163 0.84381 0.0
C2005 C 0.76818 0.5537 0.82131 0.0
C2006 C 0.73669 0.51596 0.8775 0.0
C2007 C 0.78762 0.58286 0.8477 0.0
H2008 H 0.74523 0.58687 0.93087 0.0
H2009 H 0.80638 0.54673 0.9293 0.0
H2010 H 0.73717 0.58949 0.87091 0.0
H2011 H 0.71873 0.5668 0.88201 0.0
H2012 H 0.72258 0.59292 0.89812 0.0
H2013 H 0.81838 0.52738 0.8966 0.0
H2014 H 0.79356 0.51641 0.88003 0.0
H2015 H 0.81085 0.54038 0.86994 0.0
H2016 H 0.73265 0.50708 0.83239 0.0
H2017 H 0.77643 0.56278 0.80717 0.0
H2018 H 0.72589 0.52693 0.88842 0.0
H2019 H 0.75072 0.50943 0.88849 0.0
H2020 H 0.72534 0.50134 0.87125 0.0
H2021 H 0.77826 0.59512 0.85851 0.0
H2022 H 0.7929 0.59123 0.83139 0.0
H2023 H 0.8038 0.57861 0.85704 0.0
C2024 C 0.72175 0.51687 0.17398 0.0
C2025 C 0.73477 0.52969 0.19036 0.0
C2026 C 0.73047 0.51377 0.15171 0.0
C2027 C 0.75266 0.5239 0.14562 0.0
C2028 C 0.76641 0.53587 0.16241 0.0
C2029 C 0.75734 0.53854 0.18462 0.0
C2030 C 0.71544 0.50058 0.13442 0.0
C2031 C 0.79014 0.54693 0.15661 0.0
C2032 C 0.78387 0.50735 0.09066 0.0
C2033 C 0.77838 0.52509 0.07605 0.0
C2034 C 0.77513 0.50635 0.11317 0.0
C2035 C 0.76068 0.52358 0.12132 0.0
C2036 C 0.75446 0.54113 0.10644 0.0
C2037 C 0.76328 0.54161 0.08398 0.0
C2038 C 0.78202 0.48729 0.12846 0.0
C2039 C 0.73919 0.55991 0.11452 0.0
H2040 H 0.70434 0.50985 0.17833 0.0
H2041 H 0.76749 0.54854 0.19714 0.0
H2042 H 0.70925 0.51228 0.1212 0.0
H2043 H 0.72594 0.48776 0.12553 0.0
H2044 H 0.6998 0.49183 0.14242 0.0
H2045 H 0.79935 0.5541 0.172 0.0
H2046 H 0.80153 0.5345 0.14828 0.0
H2047 H 0.78784 0.56081 0.14425 0.0
H2048 H 0.79554 0.49451 0.08472 0.0
H2049 H 0.75902 0.55545 0.0729 0.0
H2050 H 0.76617 0.4792 0.1367 0.0
H2051 H 0.79367 0.49417 0.14234 0.0
H2052 H 0.79145 0.47408 0.11893 0.0
H2053 H 0.7223 0.55267 0.12147 0.0
H2054 H 0.73525 0.57184 0.10059 0.0
H2055 H 0.74821 0.56966 0.12858 0.0
C2056 C 0.52914 0.6736 0.75368 0.0
C2057 C 0.50941 0.68255 0.74328 0.0
C2058 C 0.53172 0.6501 0.75465 0.0
C2059 C 0.51416 0.63517 0.74492 0.0
C2060 C 0.49396 0.64406 0.73481 0.0
C2061 C 0.4918 0.66765 0.73417 0.0
C2062 C 0.55345 0.64127 0.76566 0.0
C2063 C 0.47495 0.62868 0.72407 0.0
C2064 C 0.5313 0.57708 0.72432 0.0
C2065 C 0.52196 0.56289 0.74158 0.0
C2066 C 0.52906 0.60061 0.72532 0.0
C2067 C 0.51749 0.61033 0.74424 0.0
C2068 C 0.50875 0.59626 0.76215 0.0
C2069 C 0.51104 0.57269 0.76059 0.0
C2070 C 0.53861 0.615 0.70583 0.0
C2071 C 0.49634 0.60605 0.78261 0.0
H2072 H 0.54262 0.68501 0.76108 0.0
H2073 H 0.47666 0.67445 0.72589 0.0
H2074 H 0.54835 0.62887 0.77915 0.0
H2075 H 0.56388 0.63223 0.75267 0.0
H2076 H 0.5649 0.65506 0.77343 0.0
H2077 H 0.45971 0.63817 0.71814 0.0
H2078 H 0.48231 0.61954 0.70919 0.0
H2079 H 0.46852 0.6157 0.7365 0.0
H2080 H 0.54015 0.56975 0.70979 0.0
H2081 H 0.50355 0.56191 0.77388 0.0
H2082 H 0.5515 0.62819 0.71243 0.0
H2083 H 0.52407 0.62389 0.6977 0.0
H2084 H 0.54737 0.60481 0.69248 0.0
H2085 H 0.50766 0.61968 0.79076 0.0
H2086 H 0.49167 0.593 0.79565 0.0
H2087 H 0.47994 0.61383 0.77698 0.0
loop_
_geom_bond_atom_site_label_1
_geom_bond_atom_site_label_2
_geom_bond_distance
_geom_bond_site_symmetry_2
_ccdc_geom_bond_type
Cu0 N1 1.999 . S
Cu0 O6 1.974 . S
Cu0 N11 1.985 . S
Cu0 O20 1.959 . S
N1 Cu0 1.999 . S
N1 C3 1.263 . S
N1 C5 1.389 . S
N2 C3 1.358 . S
N2 C4 1.400 . S
C3 N1 1.263 . S
C3 N2 1.358 . S
C3 H9 0.930 . S
C4 N2 1.400 . S
C4 C5 1.351 . S
C4 H21 0.930 . S
C5 N1 1.389 . S
C5 C4 1.351 . S
C5 H10 0.930 . S
O6 Cu0 1.974 . S
O6 C16 1.282 . S
C7 O8 1.261 . S
C7 O20 1.251 . S
O8 C7 1.261 . S
H9 C3 0.930 . S
H10 C5 0.930 . S
N11 Cu0 1.985 . S
N11 C13 1.335 . S
N11 C14 1.390 . S
N12 C13 1.345 . S
N12 C15 1.336 . S
C13 N11 1.335 . S
C13 N12 1.345 . S
C13 H18 0.930 . S
C14 N11 1.390 . S
C14 C15 1.346 . S
C14 H19 0.930 . S
C15 N12 1.336 . S
C15 C14 1.346 . S
C15 H22 0.929 . S
C16 O6 1.282 . S
C16 O17 1.216 . S
O17 C16 1.216 . S
H18 C13 0.930 . S
H19 C14 0.930 . S
O20 Cu0 1.959 . S
O20 C7 1.251 . S
H21 C4 0.930 . S
H22 C15 0.929 . S
Cu23 N24 1.989 1_455 S
Cu23 O29 1.974 1_455 S
Cu23 N34 1.985 . S
Cu23 O43 1.959 . S
N24 Cu23 1.989 1_655 S
N24 C26 1.305 . S
N24 C28 1.359 1_655 S
N25 C26 1.358 . S
N25 C27 1.400 1_655 S
C26 N24 1.305 . S
C26 N25 1.358 . S
C26 H32 0.930 . S
C27 N25 1.400 1_455 S
C27 C28 1.351 . S
C27 H44 0.930 . S
C28 N24 1.359 1_455 S
C28 C27 1.351 . S
C28 H33 0.930 . S
O29 Cu23 1.974 1_655 S
O29 C39 1.282 . S
C30 O31 1.261 . S
C30 O43 1.251 . S
O31 C30 1.261 . S
H32 C26 0.930 . S
H33 C28 0.930 . S
N34 Cu23 1.985 . S
N34 C36 1.335 . S
N34 C37 1.390 1_455 S
N35 C36 1.345 . S
N35 C38 1.336 . S
C36 N34 1.335 . S
C36 N35 1.345 . S
C36 H41 0.930 . S
C37 N34 1.390 1_655 S
C37 C38 1.346 1_655 S
C37 H42 0.930 . S
C38 N35 1.336 . S
C38 C37 1.346 1_455 S
C38 H45 0.929 1_455 S
C39 O29 1.282 . S
C39 O40 1.216 . S
O40 C39 1.216 . S
H41 C36 0.930 . S
H42 C37 0.930 . S
O43 Cu23 1.959 . S
O43 C30 1.251 . S
H44 C27 0.930 . S
H45 C38 0.929 1_655 S
Cu46 N47 1.999 . S
Cu46 O52 1.974 . S
Cu46 N57 1.985 . S
Cu46 O66 1.959 . S
N47 Cu46 1.999 . S
N47 C49 1.263 . S
N47 C51 1.389 . S
N48 C49 1.358 . S
N48 C50 1.400 . S
C49 N47 1.263 . S
C49 N48 1.358 . S
C49 H55 0.930 . S
C50 N48 1.400 . S
C50 C51 1.351 . S
C50 H67 0.930 . S
C51 N47 1.389 . S
C51 C50 1.351 . S
C51 H56 0.930 . S
O52 Cu46 1.974 . S
O52 C62 1.282 . S
C53 O54 1.261 . S
C53 O66 1.251 . S
O54 C53 1.261 . S
H55 C49 0.930 . S
H56 C51 0.930 . S
N57 Cu46 1.985 . S
N57 C59 1.335 . S
N57 C60 1.390 . S
N58 C59 1.345 . S
N58 C61 1.336 . S
C59 N57 1.335 . S
C59 N58 1.345 . S
C59 H64 0.930 . S
C60 N57 1.390 . S
C60 C61 1.346 . S
C60 H65 0.930 . S
C61 N58 1.336 . S
C61 C60 1.346 . S
C61 H68 0.929 . S
C62 O52 1.282 . S
C62 O63 1.216 . S
O63 C62 1.216 . S
H64 C59 0.930 . S
H65 C60 0.930 . S
O66 Cu46 1.959 . S
O66 C53 1.251 . S
H67 C50 0.930 . S
H68 C61 0.929 . S
Cu69 N70 1.999 . S
Cu69 O75 1.974 . S
Cu69 N80 1.985 1_556 S
Cu69 O89 1.959 . S
N70 Cu69 1.999 . S
N70 C72 1.263 . S
N70 C74 1.389 . S
N71 C72 1.358 . S
N71 C73 1.400 . S
C72 N70 1.263 . S
C72 N71 1.358 . S
C72 H78 0.930 . S
C73 N71 1.400 . S
C73 C74 1.351 . S
C73 H90 0.930 . S
C74 N70 1.389 . S
C74 C73 1.351 . S
C74 H79 0.930 . S
O75 Cu69 1.974 . S
O75 C85 1.282 . S
C76 O77 1.261 . S
C76 O89 1.251 1_554 S
O77 C76 1.261 . S
H78 C72 0.930 . S
H79 C74 0.930 . S
N80 Cu69 1.985 1_554 S
N80 C82 1.335 . S
N80 C83 1.390 . S
N81 C82 1.345 . S
N81 C84 1.336 . S
C82 N80 1.335 . S
C82 N81 1.345 . S
C82 H87 0.930 . S
C83 N80 1.390 . S
C83 C84 1.346 . S
C83 H88 0.930 . S
C84 N81 1.336 . S
C84 C83 1.346 . S
C84 H91 0.929 . S
C85 O75 1.282 . S
C85 O86 1.216 1_556 S
O86 C85 1.216 1_554 S
H87 C82 0.930 . S
H88 C83 0.930 . S
O89 Cu69 1.959 . S
O89 C76 1.251 1_556 S
H90 C73 0.930 . S
H91 C84 0.929 . S
Cu92 N93 1.999 1_565 S
Cu92 O98 1.974 1_565 S
Cu92 N103 1.985 1_455 S
Cu92 O112 1.959 . S
N93 Cu92 1.999 1_545 S
N93 C95 1.263 . S
N93 C97 1.389 1_545 S
N94 C95 1.358 . S
N94 C96 1.400 . S
C95 N93 1.263 . S
C95 N94 1.358 . S
C95 H101 0.930 . S
C96 N94 1.400 . S
C96 C97 1.351 1_545 S
C96 H113 0.930 1_545 S
C97 N93 1.389 1_565 S
C97 C96 1.351 1_565 S
C97 H102 0.930 . S
O98 Cu92 1.974 1_545 S
O98 C108 1.282 . S
C99 O100 1.261 . S
C99 O112 1.251 1_655 S
O100 C99 1.261 . S
H101 C95 0.930 . S
H102 C97 0.930 . S
N103 Cu92 1.985 1_655 S
N103 C105 1.335 . S
N103 C106 1.390 1_565 S
N104 C105 1.345 . S
N104 C107 1.336 . S
C105 N103 1.335 . S
C105 N104 1.345 . S
C105 H110 0.930 . S
C106 N103 1.390 1_545 S
C106 C107 1.346 1_545 S
C106 H111 0.930 . S
C107 N104 1.336 . S
C107 C106 1.346 1_565 S
C107 H114 0.929 . S
C108 O98 1.282 . S
C108 O109 1.216 1_455 S
O109 C108 1.216 1_655 S
H110 C105 0.930 . S
H111 C106 0.930 . S
O112 Cu92 1.959 . S
O112 C99 1.251 1_455 S
H113 C96 0.930 1_565 S
H114 C107 0.929 . S
Cu115 N116 1.999 . S
Cu115 O121 1.974 . S
Cu115 N126 1.985 . S
Cu115 O135 1.959 . S
N116 Cu115 1.999 . S
N116 C118 1.263 . S
N116 C120 1.389 . S
N117 C118 1.358 . S
N117 C119 1.400 . S
C118 N116 1.263 . S
C118 N117 1.358 . S
C118 H124 0.930 . S
C119 N117 1.400 . S
C119 C120 1.351 . S
C119 H136 0.930 . S
C120 N116 1.389 . S
C120 C119 1.351 . S
C120 H125 0.930 . S
O121 Cu115 1.974 . S
O121 C131 1.282 . S
C122 O123 1.261 . S
C122 O135 1.251 . S
O123 C122 1.261 . S
H124 C118 0.930 . S
H125 C120 0.930 . S
N126 Cu115 1.985 . S
N126 C128 1.335 . S
N126 C129 1.390 . S
N127 C128 1.345 . S
N127 C130 1.336 . S
C128 N126 1.335 . S
C128 N127 1.345 . S
C128 H133 0.930 . S
C129 N126 1.390 . S
C129 C130 1.346 . S
C129 H134 0.930 . S
C130 N127 1.336 . S
C130 C129 1.346 . S
C130 H137 0.929 . S
C131 O121 1.282 . S
C131 O132 1.216 . S
O132 C131 1.216 . S
H133 C128 0.930 . S
H134 C129 0.930 . S
O135 Cu115 1.959 . S
O135 C122 1.251 . S
H136 C119 0.930 . S
H137 C130 0.929 . S
Cu138 N139 1.999 1_545 S
Cu138 O144 1.974 1_545 S
Cu138 N149 1.985 . S
Cu138 O158 1.959 . S
N139 Cu138 1.999 1_565 S
N139 C141 1.263 . S
N139 C143 1.389 1_565 S
N140 C141 1.358 . S
N140 C142 1.400 . S
C141 N139 1.263 . S
C141 N140 1.358 . S
C141 H147 0.930 . S
C142 N140 1.400 . S
C142 C143 1.351 1_565 S
C142 H159 0.930 1_565 S
C143 N139 1.389 1_545 S
C143 C142 1.351 1_545 S
C143 H148 0.930 . S
O144 Cu138 1.974 1_565 S
O144 C154 1.282 . S
C145 O146 1.261 . S
C145 O158 1.251 . S
O146 C145 1.261 . S
H147 C141 0.930 . S
H148 C143 0.930 . S
N149 Cu138 1.985 . S
N149 C151 1.335 . S
N149 C152 1.390 1_545 S
N150 C151 1.345 . S
N150 C153 1.336 . S
C151 N149 1.335 . S
C151 N150 1.345 . S
C151 H156 0.930 . S
C152 N149 1.390 1_565 S
C152 C153 1.346 1_565 S
C152 H157 0.930 . S
C153 N150 1.336 . S
C153 C152 1.346 1_545 S
C153 H160 0.929 . S
C154 O144 1.282 . S
C154 O155 1.216 . S
O155 C154 1.216 . S
H156 C151 0.930 . S
H157 C152 0.930 . S
O158 Cu138 1.959 . S
O158 C145 1.251 . S
H159 C142 0.930 1_545 S
H160 C153 0.929 . S
Cu161 N162 1.999 . S
Cu161 O167 1.974 . S
Cu161 N172 1.985 . S
Cu161 O181 1.959 . S
N162 Cu161 1.999 . S
N162 C164 1.263 . S
N162 C166 1.389 . S
N163 C164 1.358 . S
N163 C165 1.400 . S
C164 N162 1.263 . S
C164 N163 1.358 . S
C164 H170 0.930 . S
C165 N163 1.400 . S
C165 C166 1.351 . S
C165 H182 0.930 . S
C166 N162 1.389 . S
C166 C165 1.351 . S
C166 H171 0.930 . S
O167 Cu161 1.974 . S
O167 C177 1.282 . S
C168 O169 1.261 . S
C168 O181 1.251 . S
O169 C168 1.261 . S
H170 C164 0.930 . S
H171 C166 0.930 . S
N172 Cu161 1.985 . S
N172 C174 1.335 . S
N172 C175 1.390 . S
N173 C174 1.345 . S
N173 C176 1.336 . S
C174 N172 1.335 . S
C174 N173 1.345 . S
C174 H179 0.930 . S
C175 N172 1.390 . S
C175 C176 1.346 . S
C175 H180 0.930 . S
C176 N173 1.336 . S
C176 C175 1.346 . S
C176 H183 0.929 . S
C177 O167 1.282 . S
C177 O178 1.216 . S
O178 C177 1.216 . S
H179 C174 0.930 . S
H180 C175 0.930 . S
O181 Cu161 1.959 . S
O181 C168 1.251 . S
H182 C165 0.930 . S
H183 C176 0.929 . S
Cu184 N185 1.999 . S
Cu184 O190 1.974 . S
Cu184 N195 1.985 . S
Cu184 O204 1.959 . S
N185 Cu184 1.999 . S
N185 C187 1.263 . S
N185 C189 1.389 . S
N186 C187 1.358 . S
N186 C188 1.400 . S
C187 N185 1.263 . S
C187 N186 1.358 . S
C187 H193 0.930 . S
C188 N186 1.400 . S
C188 C189 1.351 . S
C188 H205 0.930 . S
C189 N185 1.389 . S
C189 C188 1.351 . S
C189 H194 0.930 . S
O190 Cu184 1.974 . S
O190 C200 1.282 . S
C191 O192 1.261 . S
C191 O204 1.251 . S
O192 C191 1.261 . S
H193 C187 0.930 . S
H194 C189 0.930 . S
N195 Cu184 1.985 . S
N195 C197 1.335 . S
N195 C198 1.390 . S
N196 C197 1.345 . S
N196 C199 1.336 . S
C197 N195 1.335 . S
C197 N196 1.345 . S
C197 H202 0.930 . S
C198 N195 1.390 . S
C198 C199 1.346 . S
C198 H203 0.930 . S
C199 N196 1.336 . S
C199 C198 1.346 . S
C199 H206 0.929 . S
C200 O190 1.282 . S
C200 O201 1.216 . S
O201 C200 1.216 . S
H202 C197 0.930 . S
H203 C198 0.930 . S
O204 Cu184 1.959 . S
O204 C191 1.251 . S
H205 C188 0.930 . S
H206 C199 0.929 . S
Cu207 N208 1.999 . S
Cu207 O213 1.974 . S
Cu207 N218 1.998 . S
Cu207 O227 1.959 1_545 S
N208 Cu207 1.999 . S
N208 C210 1.263 . S
N208 C212 1.389 . S
N209 C210 1.358 . S
N209 C211 1.400 . S
C210 N208 1.263 . S
C210 N209 1.358 . S
C210 H216 0.930 . S
C211 N209 1.400 . S
C211 C212 1.351 . S
C211 H228 0.930 . S
C212 N208 1.389 . S
C212 C211 1.351 . S
C212 H217 0.930 . S
O213 Cu207 1.974 . S
O213 C223 1.282 . S
C214 O215 1.261 . S
C214 O227 1.251 . S
O215 C214 1.261 . S
H216 C210 0.930 . S
H217 C212 0.930 . S
N218 Cu207 1.998 . S
N218 C220 1.320 1_545 S
N218 C221 1.396 . S
N219 C220 1.345 . S
N219 C222 1.336 . S
C220 N218 1.320 1_565 S
C220 N219 1.345 . S
C220 H225 0.930 . S
C221 N218 1.396 . S
C221 C222 1.346 1_545 S
C221 H226 0.930 . S
C222 N219 1.336 . S
C222 C221 1.346 1_565 S
C222 H229 0.929 . S
C223 O213 1.282 . S
C223 O224 1.216 . S
O224 C223 1.216 . S
H225 C220 0.930 . S
H226 C221 0.930 . S
O227 Cu207 1.959 1_565 S
O227 C214 1.251 . S
H228 C211 0.930 . S
H229 C222 0.929 . S
Cu230 N231 1.999 . S
Cu230 O236 1.974 . S
Cu230 N241 1.985 . S
Cu230 O250 1.959 . S
N231 Cu230 1.999 . S
N231 C233 1.263 . S
N231 C235 1.389 . S
N232 C233 1.358 . S
N232 C234 1.400 . S
C233 N231 1.263 . S
C233 N232 1.358 . S
C233 H239 0.930 . S
C234 N232 1.400 . S
C234 C235 1.351 . S
C234 H251 0.930 . S
C235 N231 1.389 . S
C235 C234 1.351 . S
C235 H240 0.930 . S
O236 Cu230 1.974 . S
O236 C246 1.282 . S
C237 O238 1.261 . S
C237 O250 1.251 . S
O238 C237 1.261 . S
H239 C233 0.930 . S
H240 C235 0.930 . S
N241 Cu230 1.985 . S
N241 C243 1.335 . S
N241 C244 1.390 . S
N242 C243 1.345 . S
N242 C245 1.336 . S
C243 N241 1.335 . S
C243 N242 1.345 . S
C243 H248 0.930 . S
C244 N241 1.390 . S
C244 C245 1.346 . S
C244 H249 0.930 . S
C245 N242 1.336 . S
C245 C244 1.346 . S
C245 H252 0.929 . S
C246 O236 1.282 . S
C246 O247 1.216 . S
O247 C246 1.216 . S
H248 C243 0.930 . S
H249 C244 0.930 . S
O250 Cu230 1.959 . S
O250 C237 1.251 . S
H251 C234 0.930 . S
H252 C245 0.929 . S
Cu253 N254 1.999 1_554 S
Cu253 O259 1.974 1_554 S
Cu253 N264 1.992 . S
Cu253 O273 1.959 1_565 S
N254 Cu253 1.999 1_556 S
N254 C256 1.263 . S
N254 C258 1.389 . S
N255 C256 1.358 . S
N255 C257 1.400 . S
C256 N254 1.263 . S
C256 N255 1.358 . S
C256 H262 0.930 . S
C257 N255 1.400 . S
C257 C258 1.351 . S
C257 H274 0.930 . S
C258 N254 1.389 . S
C258 C257 1.351 . S
C258 H263 0.930 . S
O259 Cu253 1.974 1_556 S
O259 C269 1.282 . S
C260 O261 1.226 1_554 S
C260 O273 1.251 . S
O261 C260 1.226 1_556 S
H262 C256 0.930 . S
H263 C258 0.930 . S
N264 Cu253 1.992 . S
N264 C266 1.326 1_565 S
N264 C267 1.394 . S
N265 C266 1.345 . S
N265 C268 1.336 . S
C266 N264 1.326 1_545 S
C266 N265 1.345 . S
C266 H271 0.930 . S
C267 N264 1.394 . S
C267 C268 1.346 1_565 S
C267 H272 0.930 . S
C268 N265 1.336 . S
C268 C267 1.346 1_545 S
C268 H275 0.929 . S
C269 O259 1.282 . S
C269 O270 1.216 . S
O270 C269 1.216 . S
H271 C266 0.930 . S
H272 C267 0.930 . S
O273 Cu253 1.959 1_545 S
O273 C260 1.251 . S
H274 C257 0.930 . S
H275 C268 0.929 . S
Cu276 N277 1.999 . S
Cu276 O282 1.974 . S
Cu276 N287 1.985 . S
Cu276 O296 1.959 . S
N277 Cu276 1.999 . S
N277 C279 1.263 . S
N277 C281 1.389 . S
N278 C279 1.358 . S
N278 C280 1.400 . S
C279 N277 1.263 . S
C279 N278 1.358 . S
C279 H285 0.930 . S
C280 N278 1.400 . S
C280 C281 1.351 . S
C280 H297 0.930 . S
C281 N277 1.389 . S
C281 C280 1.351 . S
C281 H286 0.930 . S
O282 Cu276 1.974 . S
O282 C292 1.282 . S
C283 O284 1.261 . S
C283 O296 1.251 . S
O284 C283 1.261 . S
H285 C279 0.930 . S
H286 C281 0.930 . S
N287 Cu276 1.985 . S
N287 C289 1.335 . S
N287 C290 1.390 . S
N288 C289 1.345 . S
N288 C291 1.336 . S
C289 N287 1.335 . S
C289 N288 1.345 . S
C289 H294 0.930 . S
C290 N287 1.390 . S
C290 C291 1.346 . S
C290 H295 0.930 . S
C291 N288 1.336 . S
C291 C290 1.346 . S
C291 H298 0.929 . S
C292 O282 1.282 . S
C292 O293 1.216 . S
O293 C292 1.216 . S
H294 C289 0.930 . S
H295 C290 0.930 . S
O296 Cu276 1.959 . S
O296 C283 1.251 . S
H297 C280 0.930 . S
H298 C291 0.929 . S
Cu299 N300 1.999 . S
Cu299 O305 1.974 . S
Cu299 N310 1.985 1_655 S
Cu299 O319 1.959 . S
N300 Cu299 1.999 . S
N300 C302 1.263 . S
N300 C304 1.389 . S
N301 C302 1.358 . S
N301 C303 1.400 . S
C302 N300 1.263 . S
C302 N301 1.358 . S
C302 H308 0.930 . S
C303 N301 1.400 . S
C303 C304 1.351 . S
C303 H320 0.930 . S
C304 N300 1.389 . S
C304 C303 1.351 . S
C304 H309 0.930 . S
O305 Cu299 1.974 . S
O305 C315 1.282 . S
C306 O307 1.261 . S
C306 O319 1.251 1_455 S
O307 C306 1.261 . S
H308 C302 0.930 . S
H309 C304 0.930 . S
N310 Cu299 1.985 1_455 S
N310 C312 1.335 . S
N310 C313 1.390 . S
N311 C312 1.345 . S
N311 C314 1.336 . S
C312 N310 1.335 . S
C312 N311 1.345 . S
C312 H317 0.930 . S
C313 N310 1.390 . S
C313 C314 1.346 . S
C313 H318 0.930 . S
C314 N311 1.336 . S
C314 C313 1.346 . S
C314 H321 0.929 . S
C315 O305 1.282 . S
C315 O316 1.216 1_655 S
O316 C315 1.216 1_455 S
H317 C312 0.930 . S
H318 C313 0.930 . S
O319 Cu299 1.959 . S
O319 C306 1.251 1_655 S
H320 C303 0.930 . S
H321 C314 0.929 . S
Cu322 N323 1.999 . S
Cu322 O328 1.974 . S
Cu322 N333 1.985 . S
Cu322 O342 1.959 . S
N323 Cu322 1.999 . S
N323 C325 1.263 . S
N323 C327 1.389 . S
N324 C325 1.358 . S
N324 C326 1.400 . S
C325 N323 1.263 . S
C325 N324 1.358 . S
C325 H331 0.930 . S
C326 N324 1.400 . S
C326 C327 1.351 . S
C326 H343 0.930 . S
C327 N323 1.389 . S
C327 C326 1.351 . S
C327 H332 0.930 . S
O328 Cu322 1.974 . S
O328 C338 1.282 . S
C329 O330 1.261 . S
C329 O342 1.251 . S
O330 C329 1.261 . S
H331 C325 0.930 . S
H332 C327 0.930 . S
N333 Cu322 1.985 . S
N333 C335 1.335 . S
N333 C336 1.390 . S
N334 C335 1.345 . S
N334 C337 1.336 . S
C335 N333 1.335 . S
C335 N334 1.345 . S
C335 H340 0.930 . S
C336 N333 1.390 . S
C336 C337 1.346 . S
C336 H341 0.930 . S
C337 N334 1.336 . S
C337 C336 1.346 . S
C337 H344 0.929 . S
C338 O328 1.282 . S
C338 O339 1.216 . S
O339 C338 1.216 . S
H340 C335 0.930 . S
H341 C336 0.930 . S
O342 Cu322 1.959 . S
O342 C329 1.251 . S
H343 C326 0.930 . S
H344 C337 0.929 . S
Cu345 N346 1.999 . S
Cu345 O351 1.974 . S
Cu345 N356 1.985 . S
Cu345 O365 1.959 . S
N346 Cu345 1.999 . S
N346 C348 1.263 . S
N346 C350 1.389 . S
N347 C348 1.358 . S
N347 C349 1.400 . S
C348 N346 1.263 . S
C348 N347 1.358 . S
C348 H354 0.930 . S
C349 N347 1.400 . S
C349 C350 1.351 . S
C349 H366 0.930 . S
C350 N346 1.389 . S
C350 C349 1.351 . S
C350 H355 0.930 . S
O351 Cu345 1.974 . S
O351 C361 1.282 . S
C352 O353 1.261 . S
C352 O365 1.251 . S
O353 C352 1.261 . S
H354 C348 0.930 . S
H355 C350 0.930 . S
N356 Cu345 1.985 . S
N356 C358 1.335 . S
N356 C359 1.390 . S
N357 C358 1.345 . S
N357 C360 1.336 . S
C358 N356 1.335 . S
C358 N357 1.345 . S
C358 H363 0.930 . S
C359 N356 1.390 . S
C359 C360 1.346 . S
C359 H364 0.930 . S
C360 N357 1.336 . S
C360 C359 1.346 . S
C360 H367 0.929 . S
C361 O351 1.282 . S
C361 O362 1.216 . S
O362 C361 1.216 . S
H363 C358 0.930 . S
H364 C359 0.930 . S
O365 Cu345 1.959 . S
O365 C352 1.251 . S
H366 C349 0.930 . S
H367 C360 0.929 . S
Cu368 N369 1.999 . S
Cu368 O374 1.974 . S
Cu368 N379 1.985 . S
Cu368 O388 1.959 . S
N369 Cu368 1.999 . S
N369 C371 1.263 . S
N369 C373 1.389 . S
N370 C371 1.358 . S
N370 C372 1.400 . S
C371 N369 1.263 . S
C371 N370 1.358 . S
C371 H377 0.930 . S
C372 N370 1.400 . S
C372 C373 1.351 . S
C372 H389 0.930 . S
C373 N369 1.389 . S
C373 C372 1.351 . S
C373 H378 0.930 . S
O374 Cu368 1.974 . S
O374 C384 1.282 . S
C375 O376 1.261 . S
C375 O388 1.251 . S
O376 C375 1.261 . S
H377 C371 0.930 . S
H378 C373 0.930 . S
N379 Cu368 1.985 . S
N379 C381 1.335 . S
N379 C382 1.390 . S
N380 C381 1.345 . S
N380 C383 1.336 . S
C381 N379 1.335 . S
C381 N380 1.345 . S
C381 H386 0.930 . S
C382 N379 1.390 . S
C382 C383 1.346 . S
C382 H387 0.930 . S
C383 N380 1.336 . S
C383 C382 1.346 . S
C383 H390 0.929 . S
C384 O374 1.282 . S
C384 O385 1.216 . S
O385 C384 1.216 . S
H386 C381 0.930 . S
H387 C382 0.930 . S
O388 Cu368 1.959 . S
O388 C375 1.251 . S
H389 C372 0.930 . S
H390 C383 0.929 . S
Cu391 N392 1.999 . S
Cu391 O397 1.974 . S
Cu391 N402 1.985 . S
Cu391 O411 1.959 . S
N392 Cu391 1.999 . S
N392 C394 1.263 . S
N392 C396 1.389 . S
N393 C394 1.358 . S
N393 C395 1.400 . S
C394 N392 1.263 . S
C394 N393 1.358 . S
C394 H400 0.930 . S
C395 N393 1.400 . S
C395 C396 1.351 . S
C395 H412 0.930 . S
C396 N392 1.389 . S
C396 C395 1.351 . S
C396 H401 0.930 . S
O397 Cu391 1.974 . S
O397 C407 1.282 . S
C398 O399 1.261 . S
C398 O411 1.251 . S
O399 C398 1.261 . S
H400 C394 0.930 . S
H401 C396 0.930 . S
N402 Cu391 1.985 . S
N402 C404 1.335 . S
N402 C405 1.390 . S
N403 C404 1.345 . S
N403 C406 1.336 . S
C404 N402 1.335 . S
C404 N403 1.345 . S
C404 H409 0.930 . S
C405 N402 1.390 . S
C405 C406 1.346 . S
C405 H410 0.930 . S
C406 N403 1.336 . S
C406 C405 1.346 . S
C406 H413 0.929 . S
C407 O397 1.282 . S
C407 O408 1.216 . S
O408 C407 1.216 . S
H409 C404 0.930 . S
H410 C405 0.930 . S
O411 Cu391 1.959 . S
O411 C398 1.251 . S
H412 C395 0.930 . S
H413 C406 0.929 . S
Cu414 N415 1.999 1_455 S
Cu414 O420 1.974 1_455 S
Cu414 N425 1.985 1_556 S
Cu414 O434 1.959 1_556 S
N415 Cu414 1.999 1_655 S
N415 C417 1.263 . S
N415 C419 1.389 . S
N416 C417 1.358 . S
N416 C418 1.400 . S
C417 N415 1.263 . S
C417 N416 1.358 . S
C417 H423 0.930 . S
C418 N416 1.400 . S
C418 C419 1.351 . S
C418 H435 0.930 . S
C419 N415 1.389 . S
C419 C418 1.351 . S
C419 H424 0.942 . S
O420 Cu414 1.974 1_655 S
O420 C430 1.282 . S
C421 O422 1.261 1_455 S
C421 O434 1.251 . S
O422 C421 1.261 1_655 S
H423 C417 0.930 . S
H424 C419 0.942 . S
N425 Cu414 1.985 1_554 S
N425 C427 1.335 . S
N425 C428 1.390 1_554 S
N426 C427 1.345 . S
N426 C429 1.336 . S
C427 N425 1.335 . S
C427 N426 1.345 . S
C427 H432 0.930 . S
C428 N425 1.390 1_556 S
C428 C429 1.346 1_556 S
C428 H433 0.930 . S
C429 N426 1.336 . S
C429 C428 1.346 1_554 S
C429 H436 0.929 . S
C430 O420 1.282 . S
C430 O431 1.216 . S
O431 C430 1.216 . S
H432 C427 0.930 . S
H433 C428 0.930 . S
O434 Cu414 1.959 1_554 S
O434 C421 1.251 . S
H435 C418 0.930 . S
H436 C429 0.929 . S
Cu437 N438 1.999 . S
Cu437 O443 1.974 . S
Cu437 N448 1.985 . S
Cu437 O457 1.959 . S
N438 Cu437 1.999 . S
N438 C440 1.263 . S
N438 C442 1.389 . S
N439 C440 1.358 . S
N439 C441 1.400 . S
C440 N438 1.263 . S
C440 N439 1.358 . S
C440 H446 0.930 . S
C441 N439 1.400 . S
C441 C442 1.351 . S
C441 H458 0.930 . S
C442 N438 1.389 . S
C442 C441 1.351 . S
C442 H447 0.930 . S
O443 Cu437 1.974 . S
O443 C453 1.282 . S
C444 O445 1.261 . S
C444 O457 1.251 . S
O445 C444 1.261 . S
H446 C440 0.930 . S
H447 C442 0.930 . S
N448 Cu437 1.985 . S
N448 C450 1.335 . S
N448 C451 1.390 . S
N449 C450 1.345 . S
N449 C452 1.336 . S
C450 N448 1.335 . S
C450 N449 1.345 . S
C450 H455 0.930 . S
C451 N448 1.390 . S
C451 C452 1.346 . S
C451 H456 0.930 . S
C452 N449 1.336 . S
C452 C451 1.346 . S
C452 H459 0.929 . S
C453 O443 1.282 . S
C453 O454 1.216 . S
O454 C453 1.216 . S
H455 C450 0.930 . S
H456 C451 0.930 . S
O457 Cu437 1.959 . S
O457 C444 1.251 . S
H458 C441 0.930 . S
H459 C452 0.929 . S
Cu460 N461 1.999 . S
Cu460 O466 1.974 . S
Cu460 N471 1.985 . S
Cu460 O480 1.959 . S
N461 Cu460 1.999 . S
N461 C463 1.263 . S
N461 C465 1.389 . S
N462 C463 1.358 . S
N462 C464 1.400 . S
C463 N461 1.263 . S
C463 N462 1.358 . S
C463 H469 0.930 . S
C464 N462 1.400 . S
C464 C465 1.351 . S
C464 H481 0.930 . S
C465 N461 1.389 . S
C465 C464 1.351 . S
C465 H470 0.930 . S
O466 Cu460 1.974 . S
O466 C476 1.282 . S
C467 O468 1.261 . S
C467 O480 1.251 . S
O468 C467 1.261 . S
H469 C463 0.930 . S
H470 C465 0.930 . S
N471 Cu460 1.985 . S
N471 C473 1.335 . S
N471 C474 1.390 . S
N472 C473 1.345 . S
N472 C475 1.336 . S
C473 N471 1.335 . S
C473 N472 1.345 . S
C473 H478 0.930 . S
C474 N471 1.390 . S
C474 C475 1.346 . S
C474 H479 0.930 . S
C475 N472 1.336 . S
C475 C474 1.346 . S
C475 H482 0.929 . S
C476 O466 1.282 . S
C476 O477 1.216 . S
O477 C476 1.216 . S
H478 C473 0.930 . S
H479 C474 0.930 . S
O480 Cu460 1.959 . S
O480 C467 1.251 . S
H481 C464 0.930 . S
H482 C475 0.929 . S
Cu483 N484 1.999 . S
Cu483 O489 1.974 . S
Cu483 N494 1.985 . S
Cu483 O503 1.959 . S
N484 Cu483 1.999 . S
N484 C486 1.263 . S
N484 C488 1.389 . S
N485 C486 1.358 . S
N485 C487 1.400 . S
C486 N484 1.263 . S
C486 N485 1.358 . S
C486 H492 0.930 . S
C487 N485 1.400 . S
C487 C488 1.351 . S
C487 H504 0.930 . S
C488 N484 1.389 . S
C488 C487 1.351 . S
C488 H493 0.930 . S
O489 Cu483 1.974 . S
O489 C499 1.282 . S
C490 O491 1.261 . S
C490 O503 1.251 . S
O491 C490 1.261 . S
H492 C486 0.930 . S
H493 C488 0.930 . S
N494 Cu483 1.985 . S
N494 C496 1.335 . S
N494 C497 1.390 . S
N495 C496 1.345 . S
N495 C498 1.336 . S
C496 N494 1.335 . S
C496 N495 1.345 . S
C496 H501 0.930 . S
C497 N494 1.390 . S
C497 C498 1.346 . S
C497 H502 0.930 . S
C498 N495 1.336 . S
C498 C497 1.346 . S
C498 H505 0.929 . S
C499 O489 1.282 . S
C499 O500 1.216 . S
O500 C499 1.216 . S
H501 C496 0.930 . S
H502 C497 0.930 . S
O503 Cu483 1.959 . S
O503 C490 1.251 . S
H504 C487 0.930 . S
H505 C498 0.929 . S
Cu506 N507 1.999 1_556 S
Cu506 O512 1.974 1_556 S
Cu506 N517 1.985 . S
Cu506 O526 1.959 . S
N507 Cu506 1.999 1_554 S
N507 C509 1.263 . S
N507 C511 1.389 . S
N508 C509 1.358 . S
N508 C510 1.400 . S
C509 N507 1.263 . S
C509 N508 1.358 . S
C509 H515 0.930 . S
C510 N508 1.400 . S
C510 C511 1.351 . S
C510 H527 0.930 . S
C511 N507 1.389 . S
C511 C510 1.351 . S
C511 H516 0.930 . S
O512 Cu506 1.974 1_554 S
O512 C522 1.282 . S
C513 O514 1.261 . S
C513 O526 1.251 . S
O514 C513 1.261 . S
H515 C509 0.930 . S
H516 C511 0.930 . S
N517 Cu506 1.985 . S
N517 C519 1.335 . S
N517 C520 1.390 . S
N518 C519 1.345 . S
N518 C521 1.336 . S
C519 N517 1.335 . S
C519 N518 1.345 . S
C519 H524 0.930 . S
C520 N517 1.390 . S
C520 C521 1.346 . S
C520 H525 0.930 . S
C521 N518 1.336 . S
C521 C520 1.346 . S
C521 H528 0.929 . S
C522 O512 1.282 . S
C522 O523 1.216 . S
O523 C522 1.216 . S
H524 C519 0.930 . S
H525 C520 0.930 . S
O526 Cu506 1.959 . S
O526 C513 1.251 . S
H527 C510 0.930 . S
H528 C521 0.929 . S
Cu529 N530 1.999 . S
Cu529 O535 1.974 . S
Cu529 N540 1.985 . S
Cu529 O549 1.959 . S
N530 Cu529 1.999 . S
N530 C532 1.263 . S
N530 C534 1.389 . S
N531 C532 1.358 . S
N531 C533 1.400 . S
C532 N530 1.263 . S
C532 N531 1.358 . S
C532 H538 0.930 . S
C533 N531 1.400 . S
C533 C534 1.351 . S
C533 H550 0.930 . S
C534 N530 1.389 . S
C534 C533 1.351 . S
C534 H539 0.930 . S
O535 Cu529 1.974 . S
O535 C545 1.282 . S
C536 O537 1.261 . S
C536 O549 1.251 . S
O537 C536 1.261 . S
H538 C532 0.930 . S
H539 C534 0.930 . S
N540 Cu529 1.985 . S
N540 C542 1.335 . S
N540 C543 1.390 . S
N541 C542 1.345 . S
N541 C544 1.336 . S
C542 N540 1.335 . S
C542 N541 1.345 . S
C542 H547 0.930 . S
C543 N540 1.390 . S
C543 C544 1.346 . S
C543 H548 0.930 . S
C544 N541 1.336 . S
C544 C543 1.346 . S
C544 H551 0.929 . S
C545 O535 1.282 . S
C545 O546 1.216 . S
O546 C545 1.216 . S
H547 C542 0.930 . S
H548 C543 0.930 . S
O549 Cu529 1.959 . S
O549 C536 1.251 . S
H550 C533 0.930 . S
H551 C544 0.929 . S
C552 C553 1.391 . S
C552 C554 1.394 . S
C552 H568 0.931 . S
C553 C552 1.391 . S
C553 C557 1.376 . S
C554 C552 1.394 . S
C554 C555 1.369 . S
C554 C558 1.531 . S
C555 C554 1.369 . S
C555 C556 1.410 . S
C555 C563 1.503 . S
C556 C555 1.410 . S
C556 C557 1.392 . S
C556 C559 1.511 . S
C557 C553 1.376 . S
C557 C556 1.392 . S
C557 H569 0.929 . S
C558 C554 1.531 . S
C558 H570 0.960 . S
C558 H571 0.962 . S
C558 H572 0.960 . S
C559 C556 1.511 . S
C559 H573 0.961 . S
C559 H574 0.961 . S
C559 H575 0.961 . S
C560 C561 1.370 . S
C560 C562 1.363 . S
C560 H576 0.931 . S
C561 C560 1.370 . S
C561 C565 1.408 . S
C562 C560 1.363 . S
C562 C563 1.370 . S
C562 C566 1.524 . S
C563 C555 1.503 . S
C563 C562 1.370 . S
C563 C564 1.403 . S
C564 C563 1.403 . S
C564 C565 1.404 . S
C564 C567 1.539 . S
C565 C561 1.408 . S
C565 C564 1.404 . S
C565 H577 0.930 . S
C566 C562 1.524 . S
C566 H578 0.956 . S
C566 H579 0.961 . S
C566 H580 0.961 . S
C567 C564 1.539 . S
C567 H581 0.958 . S
C567 H582 0.961 . S
C567 H583 0.960 . S
H568 C552 0.931 . S
H569 C557 0.929 . S
H570 C558 0.960 . S
H571 C558 0.962 . S
H572 C558 0.960 . S
H573 C559 0.961 . S
H574 C559 0.961 . S
H575 C559 0.961 . S
H576 C560 0.931 . S
H577 C565 0.930 . S
H578 C566 0.956 . S
H579 C566 0.961 . S
H580 C566 0.961 . S
H581 C567 0.958 . S
H582 C567 0.961 . S
H583 C567 0.960 . S
C584 C585 1.391 . S
C584 C586 1.394 . S
C584 H600 0.931 . S
C585 C584 1.391 . S
C585 C589 1.376 . S
C586 C584 1.394 . S
C586 C587 1.369 . S
C586 C590 1.531 . S
C587 C586 1.369 . S
C587 C588 1.410 . S
C587 C595 1.503 . S
C588 C587 1.410 . S
C588 C589 1.392 . S
C588 C591 1.511 . S
C589 C585 1.376 . S
C589 C588 1.392 . S
C589 H601 0.929 . S
C590 C586 1.531 . S
C590 H602 0.960 1_655 S
C590 H603 0.962 . S
C590 H604 0.960 1_655 S
C591 C588 1.511 . S
C591 H605 0.961 . S
C591 H606 0.961 . S
C591 H607 0.961 . S
C592 C593 1.370 . S
C592 C594 1.363 . S
C592 H608 0.931 . S
C593 C592 1.370 . S
C593 C597 1.408 1_655 S
C594 C592 1.363 . S
C594 C595 1.370 . S
C594 C598 1.524 . S
C595 C587 1.503 . S
C595 C594 1.370 . S
C595 C596 1.367 1_655 S
C596 C595 1.367 1_455 S
C596 C597 1.404 . S
C596 C599 1.575 . S
C597 C593 1.408 1_455 S
C597 C596 1.404 . S
C597 H609 0.930 . S
C598 C594 1.524 . S
C598 H610 0.956 . S
C598 H611 0.961 . S
C598 H612 0.961 . S
C599 C596 1.575 . S
C599 H613 0.958 . S
C599 H614 0.961 . S
C599 H615 0.960 . S
H600 C584 0.931 . S
H601 C589 0.929 . S
H602 C590 0.960 1_455 S
H603 C590 0.962 . S
H604 C590 0.960 1_455 S
H605 C591 0.961 . S
H606 C591 0.961 . S
H607 C591 0.961 . S
H608 C592 0.931 . S
H609 C597 0.930 . S
H610 C598 0.956 . S
H611 C598 0.961 . S
H612 C598 0.961 . S
H613 C599 0.958 . S
H614 C599 0.961 . S
H615 C599 0.960 . S
C616 C617 1.391 . S
C616 C618 1.394 . S
C616 H632 0.931 . S
C617 C616 1.391 . S
C617 C621 1.376 . S
C618 C616 1.394 . S
C618 C619 1.369 . S
C618 C622 1.531 . S
C619 C618 1.369 . S
C619 C620 1.410 . S
C619 C627 1.503 . S
C620 C619 1.410 . S
C620 C621 1.392 . S
C620 C623 1.511 . S
C621 C617 1.376 . S
C621 C620 1.392 . S
C621 H633 0.929 . S
C622 C618 1.531 . S
C622 H634 0.960 . S
C622 H635 0.962 . S
C622 H636 0.960 . S
C623 C620 1.511 . S
C623 H637 0.961 . S
C623 H638 0.961 . S
C623 H639 0.961 . S
C624 C625 1.370 . S
C624 C626 1.363 . S
C624 H640 0.931 . S
C625 C624 1.370 . S
C625 C629 1.408 . S
C626 C624 1.363 . S
C626 C627 1.370 . S
C626 C630 1.524 . S
C627 C619 1.503 . S
C627 C626 1.370 . S
C627 C628 1.403 . S
C628 C627 1.403 . S
C628 C629 1.404 . S
C628 C631 1.539 . S
C629 C625 1.408 . S
C629 C628 1.404 . S
C629 H641 0.930 . S
C630 C626 1.524 . S
C630 H642 0.956 . S
C630 H643 0.961 . S
C630 H644 0.961 . S
C631 C628 1.539 . S
C631 H645 0.958 . S
C631 H646 0.961 . S
C631 H647 0.960 . S
H632 C616 0.931 . S
H633 C621 0.929 . S
H634 C622 0.960 . S
H635 C622 0.962 . S
H636 C622 0.960 . S
H637 C623 0.961 . S
H638 C623 0.961 . S
H639 C623 0.961 . S
H640 C624 0.931 . S
H641 C629 0.930 . S
H642 C630 0.956 . S
H643 C630 0.961 . S
H644 C630 0.961 . S
H645 C631 0.958 . S
H646 C631 0.961 . S
H647 C631 0.960 . S
C648 C649 1.391 . S
C648 C650 1.394 . S
C648 H664 0.931 . S
C649 C648 1.391 . S
C649 C653 1.376 . S
C650 C648 1.394 . S
C650 C651 1.369 . S
C650 C654 1.531 . S
C651 C650 1.369 . S
C651 C652 1.410 . S
C651 C659 1.503 . S
C652 C651 1.410 . S
C652 C653 1.392 . S
C652 C655 1.511 . S
C653 C649 1.376 . S
C653 C652 1.392 . S
C653 H665 0.929 . S
C654 C650 1.531 . S
C654 H666 0.960 . S
C654 H667 0.962 . S
C654 H668 0.960 . S
C655 C652 1.511 . S
C655 H669 0.961 . S
C655 H670 0.961 . S
C655 H671 0.961 . S
C656 C657 1.370 . S
C656 C658 1.363 . S
C656 H672 0.931 . S
C657 C656 1.370 . S
C657 C661 1.408 . S
C658 C656 1.363 . S
C658 C659 1.370 . S
C658 C662 1.524 . S
C659 C651 1.503 . S
C659 C658 1.370 . S
C659 C660 1.403 . S
C660 C659 1.403 . S
C660 C661 1.404 . S
C660 C663 1.539 . S
C661 C657 1.408 . S
C661 C660 1.404 . S
C661 H673 0.930 . S
C662 C658 1.524 . S
C662 H674 0.956 . S
C662 H675 0.961 . S
C662 H676 0.961 . S
C663 C660 1.539 . S
C663 H677 0.958 . S
C663 H678 0.961 . S
C663 H679 0.960 . S
H664 C648 0.931 . S
H665 C653 0.929 . S
H666 C654 0.960 . S
H667 C654 0.962 . S
H668 C654 0.960 . S
H669 C655 0.961 . S
H670 C655 0.961 . S
H671 C655 0.961 . S
H672 C656 0.931 . S
H673 C661 0.930 . S
H674 C662 0.956 . S
H675 C662 0.961 . S
H676 C662 0.961 . S
H677 C663 0.958 . S
H678 C663 0.961 . S
H679 C663 0.960 . S
C680 C681 1.391 . S
C680 C682 1.394 . S
C680 H696 0.931 . S
C681 C680 1.391 . S
C681 C685 1.376 . S
C682 C680 1.394 . S
C682 C683 1.369 . S
C682 C686 1.531 . S
C683 C682 1.369 . S
C683 C684 1.410 . S
C683 C691 1.503 . S
C684 C683 1.410 . S
C684 C685 1.392 . S
C684 C687 1.511 . S
C685 C681 1.376 . S
C685 C684 1.392 . S
C685 H697 0.929 . S
C686 C682 1.531 . S
C686 H698 0.960 . S
C686 H699 0.962 . S
C686 H700 0.960 . S
C687 C684 1.511 . S
C687 H701 0.961 . S
C687 H702 0.961 . S
C687 H703 0.961 . S
C688 C689 1.370 . S
C688 C690 1.363 . S
C688 H704 0.931 . S
C689 C688 1.370 . S
C689 C693 1.408 . S
C690 C688 1.363 . S
C690 C691 1.370 . S
C690 C694 1.524 . S
C691 C683 1.503 . S
C691 C690 1.370 . S
C691 C692 1.403 . S
C692 C691 1.403 . S
C692 C693 1.404 . S
C692 C695 1.539 . S
C693 C689 1.408 . S
C693 C692 1.404 . S
C693 H705 0.930 . S
C694 C690 1.524 . S
C694 H706 0.956 . S
C694 H707 0.961 . S
C694 H708 0.961 . S
C695 C692 1.539 . S
C695 H709 0.958 . S
C695 H710 0.961 . S
C695 H711 0.960 . S
H696 C680 0.931 . S
H697 C685 0.929 . S
H698 C686 0.960 . S
H699 C686 0.962 . S
H700 C686 0.960 . S
H701 C687 0.961 . S
H702 C687 0.961 . S
H703 C687 0.961 . S
H704 C688 0.931 . S
H705 C693 0.930 . S
H706 C694 0.956 . S
H707 C694 0.961 . S
H708 C694 0.961 . S
H709 C695 0.958 . S
H710 C695 0.961 . S
H711 C695 0.960 . S
C712 C713 1.391 . S
C712 C714 1.394 . S
C712 H728 0.931 . S
C713 C712 1.391 . S
C713 C717 1.376 . S
C714 C712 1.394 . S
C714 C715 1.369 . S
C714 C718 1.531 . S
C715 C714 1.369 . S
C715 C716 1.410 . S
C715 C723 1.503 . S
C716 C715 1.410 . S
C716 C717 1.392 . S
C716 C719 1.511 . S
C717 C713 1.376 . S
C717 C716 1.392 . S
C717 H729 0.929 . S
C718 C714 1.531 . S
C718 H730 0.960 . S
C718 H731 0.962 . S
C718 H732 0.960 . S
C719 C716 1.511 . S
C719 H733 0.961 . S
C719 H734 0.961 . S
C719 H735 0.961 . S
C720 C721 1.370 . S
C720 C722 1.363 . S
C720 H736 0.931 . S
C721 C720 1.370 . S
C721 C725 1.408 . S
C722 C720 1.363 . S
C722 C723 1.370 . S
C722 C726 1.524 . S
C723 C715 1.503 . S
C723 C722 1.370 . S
C723 C724 1.403 . S
C724 C723 1.403 . S
C724 C725 1.404 . S
C724 C727 1.539 . S
C725 C721 1.408 . S
C725 C724 1.404 . S
C725 H737 0.930 . S
C726 C722 1.524 . S
C726 H738 0.956 . S
C726 H739 0.961 . S
C726 H740 0.961 . S
C727 C724 1.539 . S
C727 H741 0.958 . S
C727 H742 0.961 . S
C727 H743 0.960 . S
H728 C712 0.931 . S
H729 C717 0.929 . S
H730 C718 0.960 . S
H731 C718 0.962 . S
H732 C718 0.960 . S
H733 C719 0.961 . S
H734 C719 0.961 . S
H735 C719 0.961 . S
H736 C720 0.931 . S
H737 C725 0.930 . S
H738 C726 0.956 . S
H739 C726 0.961 . S
H740 C726 0.961 . S
H741 C727 0.958 . S
H742 C727 0.961 . S
H743 C727 0.960 . S
C744 C745 1.391 . S
C744 C746 1.394 . S
C744 H760 0.931 . S
C745 C744 1.391 . S
C745 C749 1.376 . S
C746 C744 1.394 . S
C746 C747 1.369 . S
C746 C750 1.531 . S
C747 C746 1.369 . S
C747 C748 1.410 . S
C747 C755 1.503 . S
C748 C747 1.410 . S
C748 C749 1.392 . S
C748 C751 1.511 . S
C749 C745 1.376 . S
C749 C748 1.392 . S
C749 H761 0.929 . S
C750 C746 1.531 . S
C750 H762 0.960 . S
C750 H763 0.962 . S
C750 H764 0.960 . S
C751 C748 1.511 . S
C751 H765 0.961 . S
C751 H766 0.961 . S
C751 H767 0.961 . S
C752 C753 1.370 . S
C752 C754 1.363 . S
C752 H768 0.931 . S
C753 C752 1.370 . S
C753 C757 1.408 . S
C754 C752 1.363 . S
C754 C755 1.370 . S
C754 C758 1.524 . S
C755 C747 1.503 . S
C755 C754 1.370 . S
C755 C756 1.403 . S
C756 C755 1.403 . S
C756 C757 1.404 . S
C756 C759 1.539 . S
C757 C753 1.408 . S
C757 C756 1.404 . S
C757 H769 0.930 . S
C758 C754 1.524 . S
C758 H770 0.956 . S
C758 H771 0.961 . S
C758 H772 0.961 . S
C759 C756 1.539 . S
C759 H773 0.958 . S
C759 H774 0.961 . S
C759 H775 0.960 . S
H760 C744 0.931 . S
H761 C749 0.929 . S
H762 C750 0.960 . S
H763 C750 0.962 . S
H764 C750 0.960 . S
H765 C751 0.961 . S
H766 C751 0.961 . S
H767 C751 0.961 . S
H768 C752 0.931 . S
H769 C757 0.930 . S
H770 C758 0.956 . S
H771 C758 0.961 . S
H772 C758 0.961 . S
H773 C759 0.958 . S
H774 C759 0.961 . S
H775 C759 0.960 . S
C776 C777 1.391 . S
C776 C778 1.394 . S
C776 H792 0.931 1_554 S
C777 C776 1.391 . S
C777 C781 1.376 . S
C778 C776 1.394 . S
C778 C779 1.369 . S
C778 C782 1.531 1_554 S
C779 C778 1.369 . S
C779 C780 1.410 . S
C779 C787 1.503 . S
C780 C779 1.410 . S
C780 C781 1.392 . S
C780 C783 1.511 . S
C781 C777 1.376 . S
C781 C780 1.392 . S
C781 H793 0.929 . S
C782 C778 1.531 1_556 S
C782 H794 0.960 . S
C782 H795 0.962 . S
C782 H796 0.960 . S
C783 C780 1.511 . S
C783 H797 0.961 . S
C783 H798 0.961 . S
C783 H799 0.961 . S
C784 C785 1.370 . S
C784 C786 1.363 . S
C784 H800 0.931 1_554 S
C785 C784 1.370 . S
C785 C789 1.408 . S
C786 C784 1.363 . S
C786 C787 1.370 . S
C786 C790 1.524 1_554 S
C787 C779 1.503 . S
C787 C786 1.370 . S
C787 C788 1.403 . S
C788 C787 1.403 . S
C788 C789 1.404 . S
C788 C791 1.539 . S
C789 C785 1.408 . S
C789 C788 1.404 . S
C789 H801 0.930 . S
C790 C786 1.524 1_556 S
C790 H802 0.956 . S
C790 H803 0.961 1_556 S
C790 H804 0.961 . S
C791 C788 1.539 . S
C791 H805 0.958 . S
C791 H806 0.961 . S
C791 H807 0.960 . S
H792 C776 0.931 1_556 S
H793 C781 0.929 . S
H794 C782 0.960 . S
H795 C782 0.962 . S
H796 C782 0.960 . S
H797 C783 0.961 . S
H798 C783 0.961 . S
H799 C783 0.961 . S
H800 C784 0.931 1_556 S
H801 C789 0.930 . S
H802 C790 0.956 . S
H803 C790 0.961 1_554 S
H804 C790 0.961 . S
H805 C791 0.958 . S
H806 C791 0.961 . S
H807 C791 0.960 . S
C808 C809 1.391 . S
C808 C810 1.394 . S
C808 H824 0.931 . S
C809 C808 1.391 . S
C809 C813 1.376 . S
C810 C808 1.394 . S
C810 C811 1.369 . S
C810 C814 1.531 . S
C811 C810 1.369 . S
C811 C812 1.410 . S
C811 C819 1.503 . S
C812 C811 1.410 . S
C812 C813 1.392 . S
C812 C815 1.511 . S
C813 C809 1.376 . S
C813 C812 1.392 . S
C813 H825 0.929 . S
C814 C810 1.531 . S
C814 H826 0.960 . S
C814 H827 0.962 . S
C814 H828 0.960 . S
C815 C812 1.511 . S
C815 H829 0.961 1_545 S
C815 H830 0.961 . S
C815 H831 0.961 . S
C816 C817 1.370 . S
C816 C818 1.363 . S
C816 H832 0.931 1_545 S
C817 C816 1.370 . S
C817 C821 1.408 . S
C818 C816 1.363 . S
C818 C819 1.370 . S
C818 C822 1.524 1_545 S
C819 C811 1.503 . S
C819 C818 1.370 . S
C819 C820 1.403 . S
C820 C819 1.403 . S
C820 C821 1.404 . S
C820 C823 1.539 . S
C821 C817 1.408 . S
C821 C820 1.404 . S
C821 H833 0.930 . S
C822 C818 1.524 1_565 S
C822 H834 0.956 1_565 S
C822 H835 0.961 . S
C822 H836 0.961 . S
C823 C820 1.539 . S
C823 H837 0.958 . S
C823 H838 0.961 . S
C823 H839 0.960 . S
H824 C808 0.931 . S
H825 C813 0.929 . S
H826 C814 0.960 . S
H827 C814 0.962 . S
H828 C814 0.960 . S
H829 C815 0.961 1_565 S
H830 C815 0.961 . S
H831 C815 0.961 . S
H832 C816 0.931 1_565 S
H833 C821 0.930 . S
H834 C822 0.956 1_545 S
H835 C822 0.961 . S
H836 C822 0.961 . S
H837 C823 0.958 . S
H838 C823 0.961 . S
H839 C823 0.960 . S
C840 C841 1.391 . S
C840 C842 1.394 . S
C840 H856 0.931 . S
C841 C840 1.391 . S
C841 C845 1.376 . S
C842 C840 1.394 . S
C842 C843 1.369 . S
C842 C846 1.531 . S
C843 C842 1.369 . S
C843 C844 1.410 . S
C843 C851 1.503 . S
C844 C843 1.410 . S
C844 C845 1.392 . S
C844 C847 1.511 . S
C845 C841 1.376 . S
C845 C844 1.392 . S
C845 H857 0.929 . S
C846 C842 1.531 . S
C846 H858 0.960 . S
C846 H859 0.962 . S
C846 H860 0.960 . S
C847 C844 1.511 . S
C847 H861 0.961 . S
C847 H862 0.961 . S
C847 H863 0.961 . S
C848 C849 1.370 . S
C848 C850 1.363 . S
C848 H864 0.931 . S
C849 C848 1.370 . S
C849 C853 1.408 . S
C850 C848 1.363 . S
C850 C851 1.370 . S
C850 C854 1.524 . S
C851 C843 1.503 . S
C851 C850 1.370 . S
C851 C852 1.403 . S
C852 C851 1.403 . S
C852 C853 1.404 . S
C852 C855 1.539 . S
C853 C849 1.408 . S
C853 C852 1.404 . S
C853 H865 0.930 . S
C854 C850 1.524 . S
C854 H866 0.956 . S
C854 H867 0.961 . S
C854 H868 0.961 . S
C855 C852 1.539 . S
C855 H869 0.958 . S
C855 H870 0.961 . S
C855 H871 0.960 . S
H856 C840 0.931 . S
H857 C845 0.929 . S
H858 C846 0.960 . S
H859 C846 0.962 . S
H860 C846 0.960 . S
H861 C847 0.961 . S
H862 C847 0.961 . S
H863 C847 0.961 . S
H864 C848 0.931 . S
H865 C853 0.930 . S
H866 C854 0.956 . S
H867 C854 0.961 . S
H868 C854 0.961 . S
H869 C855 0.958 . S
H870 C855 0.961 . S
H871 C855 0.960 . S
C872 C873 1.391 . S
C872 C874 1.394 . S
C872 H888 0.931 1_565 S
C873 C872 1.391 . S
C873 C877 1.376 . S
C874 C872 1.394 . S
C874 C875 1.369 . S
C874 C878 1.531 1_565 S
C875 C874 1.369 . S
C875 C876 1.410 . S
C875 C883 1.503 . S
C876 C875 1.410 . S
C876 C877 1.392 . S
C876 C879 1.511 . S
C877 C873 1.376 . S
C877 C876 1.392 . S
C877 H889 0.929 . S
C878 C874 1.531 1_545 S
C878 H890 0.960 . S
C878 H891 0.962 . S
C878 H892 0.960 . S
C879 C876 1.511 . S
C879 H893 0.961 . S
C879 H894 0.961 . S
C879 H895 0.961 . S
C880 C881 1.370 . S
C880 C882 1.363 . S
C880 H896 0.931 . S
C881 C880 1.370 . S
C881 C885 1.408 . S
C882 C880 1.363 . S
C882 C883 1.370 . S
C882 C886 1.524 . S
C883 C875 1.503 . S
C883 C882 1.370 . S
C883 C884 1.403 . S
C884 C883 1.403 . S
C884 C885 1.404 . S
C884 C887 1.539 . S
C885 C881 1.408 . S
C885 C884 1.404 . S
C885 H897 0.930 . S
C886 C882 1.524 . S
C886 H898 0.956 . S
C886 H899 0.961 . S
C886 H900 0.961 . S
C887 C884 1.539 . S
C887 H901 0.958 . S
C887 H902 0.961 . S
C887 H903 0.960 . S
H888 C872 0.931 1_545 S
H889 C877 0.929 . S
H890 C878 0.960 . S
H891 C878 0.962 . S
H892 C878 0.960 . S
H893 C879 0.961 . S
H894 C879 0.961 . S
H895 C879 0.961 . S
H896 C880 0.931 . S
H897 C885 0.930 . S
H898 C886 0.956 . S
H899 C886 0.961 . S
H900 C886 0.961 . S
H901 C887 0.958 . S
H902 C887 0.961 . S
H903 C887 0.960 . S
C904 C905 1.391 . S
C904 C906 1.394 . S
C904 H920 0.931 . S
C905 C904 1.391 . S
C905 C909 1.376 . S
C906 C904 1.394 . S
C906 C907 1.369 . S
C906 C910 1.531 . S
C907 C906 1.369 . S
C907 C908 1.410 . S
C907 C915 1.503 . S
C908 C907 1.410 . S
C908 C909 1.392 . S
C908 C911 1.511 . S
C909 C905 1.376 . S
C909 C908 1.392 . S
C909 H921 0.929 . S
C910 C906 1.531 . S
C910 H922 0.960 . S
C910 H923 0.962 . S
C910 H924 0.960 . S
C911 C908 1.511 . S
C911 H925 0.961 . S
C911 H926 0.961 . S
C911 H927 0.961 . S
C912 C913 1.370 . S
C912 C914 1.363 . S
C912 H928 0.931 . S
C913 C912 1.370 . S
C913 C917 1.408 . S
C914 C912 1.363 . S
C914 C915 1.370 . S
C914 C918 1.524 . S
C915 C907 1.503 . S
C915 C914 1.370 . S
C915 C916 1.403 . S
C916 C915 1.403 . S
C916 C917 1.404 . S
C916 C919 1.539 . S
C917 C913 1.408 . S
C917 C916 1.404 . S
C917 H929 0.930 . S
C918 C914 1.524 . S
C918 H930 0.956 . S
C918 H931 0.961 . S
C918 H932 0.961 . S
C919 C916 1.539 . S
C919 H933 0.958 . S
C919 H934 0.961 . S
C919 H935 0.960 . S
H920 C904 0.931 . S
H921 C909 0.929 . S
H922 C910 0.960 . S
H923 C910 0.962 . S
H924 C910 0.960 . S
H925 C911 0.961 . S
H926 C911 0.961 . S
H927 C911 0.961 . S
H928 C912 0.931 . S
H929 C917 0.930 . S
H930 C918 0.956 . S
H931 C918 0.961 . S
H932 C918 0.961 . S
H933 C919 0.958 . S
H934 C919 0.961 . S
H935 C919 0.960 . S
C936 C937 1.391 . S
C936 C938 1.394 . S
C936 H952 0.931 . S
C937 C936 1.391 . S
C937 C941 1.376 . S
C938 C936 1.394 . S
C938 C939 1.369 . S
C938 C942 1.531 . S
C939 C938 1.369 . S
C939 C940 1.410 . S
C939 C947 1.503 . S
C940 C939 1.410 . S
C940 C941 1.392 . S
C940 C943 1.511 . S
C941 C937 1.376 . S
C941 C940 1.392 . S
C941 H953 0.929 . S
C942 C938 1.531 . S
C942 H954 0.960 . S
C942 H955 0.962 . S
C942 H956 0.960 . S
C943 C940 1.511 . S
C943 H957 0.961 . S
C943 H958 0.961 . S
C943 H959 0.961 . S
C944 C945 1.370 . S
C944 C946 1.363 . S
C944 H960 0.931 . S
C945 C944 1.370 . S
C945 C949 1.408 . S
C946 C944 1.363 . S
C946 C947 1.370 . S
C946 C950 1.524 . S
C947 C939 1.503 . S
C947 C946 1.370 . S
C947 C948 1.403 . S
C948 C947 1.403 . S
C948 C949 1.404 . S
C948 C951 1.539 . S
C949 C945 1.408 . S
C949 C948 1.404 . S
C949 H961 0.930 . S
C950 C946 1.524 . S
C950 H962 0.956 . S
C950 H963 0.961 . S
C950 H964 0.961 . S
C951 C948 1.539 . S
C951 H965 0.958 . S
C951 H966 0.961 . S
C951 H967 0.960 . S
H952 C936 0.931 . S
H953 C941 0.929 . S
H954 C942 0.960 . S
H955 C942 0.962 . S
H956 C942 0.960 . S
H957 C943 0.961 . S
H958 C943 0.961 . S
H959 C943 0.961 . S
H960 C944 0.931 . S
H961 C949 0.930 . S
H962 C950 0.956 . S
H963 C950 0.961 . S
H964 C950 0.961 . S
H965 C951 0.958 . S
H966 C951 0.961 . S
H967 C951 0.960 . S
C968 C969 1.391 . S
C968 C970 1.394 . S
C968 H984 0.931 . S
C969 C968 1.391 . S
C969 C973 1.376 . S
C970 C968 1.394 . S
C970 C971 1.369 . S
C970 C974 1.531 . S
C971 C970 1.369 . S
C971 C972 1.410 . S
C971 C979 1.503 . S
C972 C971 1.410 . S
C972 C973 1.392 . S
C972 C975 1.511 . S
C973 C969 1.376 . S
C973 C972 1.392 . S
C973 H985 0.929 . S
C974 C970 1.531 . S
C974 H986 0.960 . S
C974 H987 0.962 . S
C974 H988 0.960 . S
C975 C972 1.511 . S
C975 H989 0.961 . S
C975 H990 0.961 . S
C975 H991 0.961 . S
C976 C977 1.370 . S
C976 C978 1.363 . S
C976 H992 0.931 . S
C977 C976 1.370 . S
C977 C981 1.408 . S
C978 C976 1.363 . S
C978 C979 1.370 . S
C978 C982 1.524 . S
C979 C971 1.503 . S
C979 C978 1.370 . S
C979 C980 1.403 . S
C980 C979 1.403 . S
C980 C981 1.404 . S
C980 C983 1.539 . S
C981 C977 1.408 . S
C981 C980 1.404 . S
C981 H993 0.930 . S
C982 C978 1.524 . S
C982 H994 0.956 . S
C982 H995 0.961 . S
C982 H996 0.961 . S
C983 C980 1.539 . S
C983 H997 0.958 . S
C983 H998 0.961 . S
C983 H999 0.960 . S
H984 C968 0.931 . S
H985 C973 0.929 . S
H986 C974 0.960 . S
H987 C974 0.962 . S
H988 C974 0.960 . S
H989 C975 0.961 . S
H990 C975 0.961 . S
H991 C975 0.961 . S
H992 C976 0.931 . S
H993 C981 0.930 . S
H994 C982 0.956 . S
H995 C982 0.961 . S
H996 C982 0.961 . S
H997 C983 0.958 . S
H998 C983 0.961 . S
H999 C983 0.960 . S
C1000 C1001 1.391 . S
C1000 C1002 1.394 . S
C1000 H1016 0.931 . S
C1001 C1000 1.391 . S
C1001 C1005 1.376 . S
C1002 C1000 1.394 . S
C1002 C1003 1.369 . S
C1002 C1006 1.531 . S
C1003 C1002 1.369 . S
C1003 C1004 1.410 . S
C1003 C1011 1.503 . S
C1004 C1003 1.410 . S
C1004 C1005 1.392 . S
C1004 C1007 1.511 . S
C1005 C1001 1.376 . S
C1005 C1004 1.392 . S
C1005 H1017 0.929 . S
C1006 C1002 1.531 . S
C1006 H1018 0.960 . S
C1006 H1019 0.962 . S
C1006 H1020 0.960 . S
C1007 C1004 1.511 . S
C1007 H1021 0.961 . S
C1007 H1022 0.961 . S
C1007 H1023 0.961 . S
C1008 C1009 1.370 . S
C1008 C1010 1.363 . S
C1008 H1024 0.931 . S
C1009 C1008 1.370 . S
C1009 C1013 1.408 . S
C1010 C1008 1.363 . S
C1010 C1011 1.370 . S
C1010 C1014 1.524 . S
C1011 C1003 1.503 . S
C1011 C1010 1.370 . S
C1011 C1012 1.403 . S
C1012 C1011 1.403 . S
C1012 C1013 1.404 . S
C1012 C1015 1.539 . S
C1013 C1009 1.408 . S
C1013 C1012 1.404 . S
C1013 H1025 0.930 . S
C1014 C1010 1.524 . S
C1014 H1026 0.956 . S
C1014 H1027 0.961 . S
C1014 H1028 0.961 . S
C1015 C1012 1.539 . S
C1015 H1029 0.958 . S
C1015 H1030 0.961 . S
C1015 H1031 0.960 . S
H1016 C1000 0.931 . S
H1017 C1005 0.929 . S
H1018 C1006 0.960 . S
H1019 C1006 0.962 . S
H1020 C1006 0.960 . S
H1021 C1007 0.961 . S
H1022 C1007 0.961 . S
H1023 C1007 0.961 . S
H1024 C1008 0.931 . S
H1025 C1013 0.930 . S
H1026 C1014 0.956 . S
H1027 C1014 0.961 . S
H1028 C1014 0.961 . S
H1029 C1015 0.958 . S
H1030 C1015 0.961 . S
H1031 C1015 0.960 . S
C1032 C1033 1.391 . S
C1032 C1034 1.394 . S
C1032 H1048 0.931 . S
C1033 C1032 1.391 . S
C1033 C1037 1.376 . S
C1034 C1032 1.394 . S
C1034 C1035 1.369 . S
C1034 C1038 1.531 . S
C1035 C1034 1.369 . S
C1035 C1036 1.410 . S
C1035 C1043 1.503 . S
C1036 C1035 1.410 . S
C1036 C1037 1.392 . S
C1036 C1039 1.511 . S
C1037 C1033 1.376 . S
C1037 C1036 1.392 . S
C1037 H1049 0.929 . S
C1038 C1034 1.531 . S
C1038 H1050 0.960 . S
C1038 H1051 0.962 . S
C1038 H1052 0.960 . S
C1039 C1036 1.511 . S
C1039 H1053 0.961 . S
C1039 H1054 0.961 . S
C1039 H1055 0.961 . S
C1040 C1041 1.370 . S
C1040 C1042 1.363 . S
C1040 H1056 0.931 . S
C1041 C1040 1.370 . S
C1041 C1045 1.408 . S
C1042 C1040 1.363 . S
C1042 C1043 1.370 . S
C1042 C1046 1.524 . S
C1043 C1035 1.503 . S
C1043 C1042 1.370 . S
C1043 C1044 1.403 . S
C1044 C1043 1.403 . S
C1044 C1045 1.404 . S
C1044 C1047 1.539 . S
C1045 C1041 1.408 . S
C1045 C1044 1.404 . S
C1045 H1057 0.930 . S
C1046 C1042 1.524 . S
C1046 H1058 0.956 . S
C1046 H1059 0.961 . S
C1046 H1060 0.961 . S
C1047 C1044 1.539 . S
C1047 H1061 0.958 . S
C1047 H1062 0.961 . S
C1047 H1063 0.960 . S
H1048 C1032 0.931 . S
H1049 C1037 0.929 . S
H1050 C1038 0.960 . S
H1051 C1038 0.962 . S
H1052 C1038 0.960 . S
H1053 C1039 0.961 . S
H1054 C1039 0.961 . S
H1055 C1039 0.961 . S
H1056 C1040 0.931 . S
H1057 C1045 0.930 . S
H1058 C1046 0.956 . S
H1059 C1046 0.961 . S
H1060 C1046 0.961 . S
H1061 C1047 0.958 . S
H1062 C1047 0.961 . S
H1063 C1047 0.960 . S
C1064 C1065 1.391 . S
C1064 C1066 1.394 . S
C1064 H1080 0.931 . S
C1065 C1064 1.391 . S
C1065 C1069 1.376 . S
C1066 C1064 1.394 . S
C1066 C1067 1.369 . S
C1066 C1070 1.531 . S
C1067 C1066 1.369 . S
C1067 C1068 1.410 . S
C1067 C1075 1.503 . S
C1068 C1067 1.410 . S
C1068 C1069 1.392 . S
C1068 C1071 1.511 . S
C1069 C1065 1.376 . S
C1069 C1068 1.392 . S
C1069 H1081 0.929 . S
C1070 C1066 1.531 . S
C1070 H1082 0.960 . S
C1070 H1083 0.962 . S
C1070 H1084 0.960 . S
C1071 C1068 1.511 . S
C1071 H1085 0.961 . S
C1071 H1086 0.961 . S
C1071 H1087 0.961 . S
C1072 C1073 1.370 . S
C1072 C1074 1.363 . S
C1072 H1088 0.931 . S
C1073 C1072 1.370 . S
C1073 C1077 1.408 . S
C1074 C1072 1.363 . S
C1074 C1075 1.370 . S
C1074 C1078 1.524 . S
C1075 C1067 1.503 . S
C1075 C1074 1.370 . S
C1075 C1076 1.403 . S
C1076 C1075 1.403 . S
C1076 C1077 1.404 . S
C1076 C1079 1.539 . S
C1077 C1073 1.408 . S
C1077 C1076 1.404 . S
C1077 H1089 0.930 . S
C1078 C1074 1.524 . S
C1078 H1090 0.956 . S
C1078 H1091 0.961 . S
C1078 H1092 0.961 . S
C1079 C1076 1.539 . S
C1079 H1093 0.958 . S
C1079 H1094 0.961 . S
C1079 H1095 0.960 . S
H1080 C1064 0.931 . S
H1081 C1069 0.929 . S
H1082 C1070 0.960 . S
H1083 C1070 0.962 . S
H1084 C1070 0.960 . S
H1085 C1071 0.961 . S
H1086 C1071 0.961 . S
H1087 C1071 0.961 . S
H1088 C1072 0.931 . S
H1089 C1077 0.930 . S
H1090 C1078 0.956 . S
H1091 C1078 0.961 . S
H1092 C1078 0.961 . S
H1093 C1079 0.958 . S
H1094 C1079 0.961 . S
H1095 C1079 0.960 . S
C1096 C1097 1.391 . S
C1096 C1098 1.394 . S
C1096 H1112 0.931 . S
C1097 C1096 1.391 . S
C1097 C1101 1.376 . S
C1098 C1096 1.394 . S
C1098 C1099 1.369 . S
C1098 C1102 1.531 . S
C1099 C1098 1.369 . S
C1099 C1100 1.410 . S
C1099 C1107 1.503 . S
C1100 C1099 1.410 . S
C1100 C1101 1.392 . S
C1100 C1103 1.511 . S
C1101 C1097 1.376 . S
C1101 C1100 1.392 . S
C1101 H1113 0.929 . S
C1102 C1098 1.531 . S
C1102 H1114 0.960 . S
C1102 H1115 0.962 . S
C1102 H1116 0.960 . S
C1103 C1100 1.511 . S
C1103 H1117 0.961 . S
C1103 H1118 0.961 . S
C1103 H1119 0.961 . S
C1104 C1105 1.370 . S
C1104 C1106 1.363 . S
C1104 H1120 0.931 . S
C1105 C1104 1.370 . S
C1105 C1109 1.408 . S
C1106 C1104 1.363 . S
C1106 C1107 1.370 . S
C1106 C1110 1.524 . S
C1107 C1099 1.503 . S
C1107 C1106 1.370 . S
C1107 C1108 1.403 . S
C1108 C1107 1.403 . S
C1108 C1109 1.404 . S
C1108 C1111 1.539 . S
C1109 C1105 1.408 . S
C1109 C1108 1.404 . S
C1109 H1121 0.930 . S
C1110 C1106 1.524 . S
C1110 H1122 0.956 . S
C1110 H1123 0.961 . S
C1110 H1124 0.961 . S
C1111 C1108 1.539 . S
C1111 H1125 0.958 . S
C1111 H1126 0.961 . S
C1111 H1127 0.960 . S
H1112 C1096 0.931 . S
H1113 C1101 0.929 . S
H1114 C1102 0.960 . S
H1115 C1102 0.962 . S
H1116 C1102 0.960 . S
H1117 C1103 0.961 . S
H1118 C1103 0.961 . S
H1119 C1103 0.961 . S
H1120 C1104 0.931 . S
H1121 C1109 0.930 . S
H1122 C1110 0.956 . S
H1123 C1110 0.961 . S
H1124 C1110 0.961 . S
H1125 C1111 0.958 . S
H1126 C1111 0.961 . S
H1127 C1111 0.960 . S
C1128 C1129 1.391 . S
C1128 C1130 1.394 . S
C1128 H1144 0.931 . S
C1129 C1128 1.391 . S
C1129 C1133 1.376 . S
C1130 C1128 1.394 . S
C1130 C1131 1.369 . S
C1130 C1134 1.531 . S
C1131 C1130 1.369 . S
C1131 C1132 1.410 . S
C1131 C1139 1.503 . S
C1132 C1131 1.410 . S
C1132 C1133 1.392 . S
C1132 C1135 1.511 . S
C1133 C1129 1.376 . S
C1133 C1132 1.392 . S
C1133 H1145 0.929 . S
C1134 C1130 1.531 . S
C1134 H1146 0.960 . S
C1134 H1147 0.962 . S
C1134 H1148 0.960 . S
C1135 C1132 1.511 . S
C1135 H1149 0.961 . S
C1135 H1150 0.961 . S
C1135 H1151 0.961 . S
C1136 C1137 1.370 . S
C1136 C1138 1.363 . S
C1136 H1152 0.931 . S
C1137 C1136 1.370 . S
C1137 C1141 1.408 . S
C1138 C1136 1.363 . S
C1138 C1139 1.370 . S
C1138 C1142 1.524 . S
C1139 C1131 1.503 . S
C1139 C1138 1.370 . S
C1139 C1140 1.403 . S
C1140 C1139 1.403 . S
C1140 C1141 1.404 . S
C1140 C1143 1.539 . S
C1141 C1137 1.408 . S
C1141 C1140 1.404 . S
C1141 H1153 0.930 . S
C1142 C1138 1.524 . S
C1142 H1154 0.956 . S
C1142 H1155 0.961 . S
C1142 H1156 0.961 . S
C1143 C1140 1.539 . S
C1143 H1157 0.958 . S
C1143 H1158 0.961 . S
C1143 H1159 0.960 . S
H1144 C1128 0.931 . S
H1145 C1133 0.929 . S
H1146 C1134 0.960 . S
H1147 C1134 0.962 . S
H1148 C1134 0.960 . S
H1149 C1135 0.961 . S
H1150 C1135 0.961 . S
H1151 C1135 0.961 . S
H1152 C1136 0.931 . S
H1153 C1141 0.930 . S
H1154 C1142 0.956 . S
H1155 C1142 0.961 . S
H1156 C1142 0.961 . S
H1157 C1143 0.958 . S
H1158 C1143 0.961 . S
H1159 C1143 0.960 . S
C1160 C1161 1.391 1_655 S
C1160 C1162 1.397 . S
C1160 H1176 0.931 . S
C1161 C1160 1.391 1_455 S
C1161 C1165 1.376 . S
C1162 C1160 1.397 . S
C1162 C1163 1.334 1_655 S
C1162 C1166 1.564 . S
C1163 C1162 1.334 1_455 S
C1163 C1164 1.410 . S
C1163 C1171 1.503 . S
C1164 C1163 1.410 . S
C1164 C1165 1.392 . S
C1164 C1167 1.511 . S
C1165 C1161 1.376 . S
C1165 C1164 1.392 . S
C1165 H1177 0.929 . S
C1166 C1162 1.564 . S
C1166 H1178 0.960 . S
C1166 H1179 0.962 . S
C1166 H1180 0.960 . S
C1167 C1164 1.511 . S
C1167 H1181 0.961 . S
C1167 H1182 0.961 . S
C1167 H1183 0.961 . S
C1168 C1169 1.370 . S
C1168 C1170 1.363 . S
C1168 H1184 0.931 . S
C1169 C1168 1.370 . S
C1169 C1173 1.408 . S
C1170 C1168 1.363 . S
C1170 C1171 1.370 . S
C1170 C1174 1.524 . S
C1171 C1163 1.503 . S
C1171 C1170 1.370 . S
C1171 C1172 1.403 . S
C1172 C1171 1.403 . S
C1172 C1173 1.404 . S
C1172 C1175 1.539 . S
C1173 C1169 1.408 . S
C1173 C1172 1.404 . S
C1173 H1185 0.930 . S
C1174 C1170 1.524 . S
C1174 H1186 0.956 1_455 S
C1174 H1187 0.961 . S
C1174 H1188 0.961 . S
C1175 C1172 1.539 . S
C1175 H1189 0.958 . S
C1175 H1190 0.961 . S
C1175 H1191 0.960 . S
H1176 C1160 0.931 . S
H1177 C1165 0.929 . S
H1178 C1166 0.960 . S
H1179 C1166 0.962 . S
H1180 C1166 0.960 . S
H1181 C1167 0.961 . S
H1182 C1167 0.961 . S
H1183 C1167 0.961 . S
H1184 C1168 0.931 . S
H1185 C1173 0.930 . S
H1186 C1174 0.956 1_655 S
H1187 C1174 0.961 . S
H1188 C1174 0.961 . S
H1189 C1175 0.958 . S
H1190 C1175 0.961 . S
H1191 C1175 0.960 . S
C1192 C1193 1.391 . S
C1192 C1194 1.394 . S
C1192 H1208 0.931 . S
C1193 C1192 1.391 . S
C1193 C1197 1.376 . S
C1194 C1192 1.394 . S
C1194 C1195 1.369 . S
C1194 C1198 1.531 . S
C1195 C1194 1.369 . S
C1195 C1196 1.410 . S
C1195 C1203 1.503 . S
C1196 C1195 1.410 . S
C1196 C1197 1.392 . S
C1196 C1199 1.511 . S
C1197 C1193 1.376 . S
C1197 C1196 1.392 . S
C1197 H1209 0.929 . S
C1198 C1194 1.531 . S
C1198 H1210 0.960 . S
C1198 H1211 0.962 . S
C1198 H1212 0.960 . S
C1199 C1196 1.511 . S
C1199 H1213 0.961 . S
C1199 H1214 0.961 . S
C1199 H1215 0.961 . S
C1200 C1201 1.370 . S
C1200 C1202 1.363 . S
C1200 H1216 0.931 . S
C1201 C1200 1.370 . S
C1201 C1205 1.408 . S
C1202 C1200 1.363 . S
C1202 C1203 1.370 . S
C1202 C1206 1.524 . S
C1203 C1195 1.503 . S
C1203 C1202 1.370 . S
C1203 C1204 1.403 . S
C1204 C1203 1.403 . S
C1204 C1205 1.404 . S
C1204 C1207 1.539 . S
C1205 C1201 1.408 . S
C1205 C1204 1.404 . S
C1205 H1217 0.930 . S
C1206 C1202 1.524 . S
C1206 H1218 0.956 . S
C1206 H1219 0.961 . S
C1206 H1220 0.961 . S
C1207 C1204 1.539 . S
C1207 H1221 0.958 . S
C1207 H1222 0.961 . S
C1207 H1223 0.960 . S
H1208 C1192 0.931 . S
H1209 C1197 0.929 . S
H1210 C1198 0.960 . S
H1211 C1198 0.962 . S
H1212 C1198 0.960 . S
H1213 C1199 0.961 . S
H1214 C1199 0.961 . S
H1215 C1199 0.961 . S
H1216 C1200 0.931 . S
H1217 C1205 0.930 . S
H1218 C1206 0.956 . S
H1219 C1206 0.961 . S
H1220 C1206 0.961 . S
H1221 C1207 0.958 . S
H1222 C1207 0.961 . S
H1223 C1207 0.960 . S
C1224 C1225 1.391 . S
C1224 C1226 1.394 . S
C1224 H1240 0.931 . S
C1225 C1224 1.391 . S
C1225 C1229 1.376 . S
C1226 C1224 1.394 . S
C1226 C1227 1.369 . S
C1226 C1230 1.531 . S
C1227 C1226 1.369 . S
C1227 C1228 1.410 . S
C1227 C1235 1.503 . S
C1228 C1227 1.410 . S
C1228 C1229 1.392 . S
C1228 C1231 1.511 . S
C1229 C1225 1.376 . S
C1229 C1228 1.392 . S
C1229 H1241 0.929 . S
C1230 C1226 1.531 . S
C1230 H1242 0.960 . S
C1230 H1243 0.962 . S
C1230 H1244 0.960 . S
C1231 C1228 1.511 . S
C1231 H1245 0.961 . S
C1231 H1246 0.961 . S
C1231 H1247 0.961 . S
C1232 C1233 1.370 . S
C1232 C1234 1.363 . S
C1232 H1248 0.931 . S
C1233 C1232 1.370 . S
C1233 C1237 1.408 . S
C1234 C1232 1.363 . S
C1234 C1235 1.370 . S
C1234 C1238 1.524 . S
C1235 C1227 1.503 . S
C1235 C1234 1.370 . S
C1235 C1236 1.403 . S
C1236 C1235 1.403 . S
C1236 C1237 1.404 . S
C1236 C1239 1.539 . S
C1237 C1233 1.408 . S
C1237 C1236 1.404 . S
C1237 H1249 0.930 . S
C1238 C1234 1.524 . S
C1238 H1250 0.956 . S
C1238 H1251 0.961 . S
C1238 H1252 0.961 . S
C1239 C1236 1.539 . S
C1239 H1253 0.958 . S
C1239 H1254 0.961 . S
C1239 H1255 0.960 . S
H1240 C1224 0.931 . S
H1241 C1229 0.929 . S
H1242 C1230 0.960 . S
H1243 C1230 0.962 . S
H1244 C1230 0.960 . S
H1245 C1231 0.961 . S
H1246 C1231 0.961 . S
H1247 C1231 0.961 . S
H1248 C1232 0.931 . S
H1249 C1237 0.930 . S
H1250 C1238 0.956 . S
H1251 C1238 0.961 . S
H1252 C1238 0.961 . S
H1253 C1239 0.958 . S
H1254 C1239 0.961 . S
H1255 C1239 0.960 . S
C1256 C1257 1.391 . S
C1256 C1258 1.394 . S
C1256 H1272 0.931 . S
C1257 C1256 1.391 . S
C1257 C1261 1.376 . S
C1258 C1256 1.394 . S
C1258 C1259 1.369 . S
C1258 C1262 1.531 . S
C1259 C1258 1.369 . S
C1259 C1260 1.410 . S
C1259 C1267 1.503 . S
C1260 C1259 1.410 . S
C1260 C1261 1.392 . S
C1260 C1263 1.511 . S
C1261 C1257 1.376 . S
C1261 C1260 1.392 . S
C1261 H1273 0.929 . S
C1262 C1258 1.531 . S
C1262 H1274 0.960 . S
C1262 H1275 0.962 . S
C1262 H1276 0.960 . S
C1263 C1260 1.511 . S
C1263 H1277 0.961 . S
C1263 H1278 0.961 . S
C1263 H1279 0.961 . S
C1264 C1265 1.370 . S
C1264 C1266 1.363 . S
C1264 H1280 0.931 1_556 S
C1265 C1264 1.370 . S
C1265 C1269 1.408 . S
C1266 C1264 1.363 . S
C1266 C1267 1.370 . S
C1266 C1270 1.524 1_556 S
C1267 C1259 1.503 . S
C1267 C1266 1.370 . S
C1267 C1268 1.403 . S
C1268 C1267 1.403 . S
C1268 C1269 1.404 . S
C1268 C1271 1.539 . S
C1269 C1265 1.408 . S
C1269 C1268 1.404 . S
C1269 H1281 0.930 . S
C1270 C1266 1.524 1_554 S
C1270 H1282 0.956 . S
C1270 H1283 0.961 . S
C1270 H1284 0.961 . S
C1271 C1268 1.539 . S
C1271 H1285 0.958 . S
C1271 H1286 0.961 . S
C1271 H1287 0.960 . S
H1272 C1256 0.931 . S
H1273 C1261 0.929 . S
H1274 C1262 0.960 . S
H1275 C1262 0.962 . S
H1276 C1262 0.960 . S
H1277 C1263 0.961 . S
H1278 C1263 0.961 . S
H1279 C1263 0.961 . S
H1280 C1264 0.931 1_554 S
H1281 C1269 0.930 . S
H1282 C1270 0.956 . S
H1283 C1270 0.961 . S
H1284 C1270 0.961 . S
H1285 C1271 0.958 . S
H1286 C1271 0.961 . S
H1287 C1271 0.960 . S
C1288 C1289 1.391 . S
C1288 C1290 1.394 . S
C1288 H1304 0.931 . S
C1289 C1288 1.391 . S
C1289 C1293 1.376 . S
C1290 C1288 1.394 . S
C1290 C1291 1.369 . S
C1290 C1294 1.531 . S
C1291 C1290 1.369 . S
C1291 C1292 1.410 . S
C1291 C1299 1.503 . S
C1292 C1291 1.410 . S
C1292 C1293 1.392 . S
C1292 C1295 1.511 . S
C1293 C1289 1.376 . S
C1293 C1292 1.392 . S
C1293 H1305 0.929 . S
C1294 C1290 1.531 . S
C1294 H1306 0.960 . S
C1294 H1307 0.962 . S
C1294 H1308 0.960 . S
C1295 C1292 1.511 . S
C1295 H1309 0.961 . S
C1295 H1310 0.961 . S
C1295 H1311 0.961 . S
C1296 C1297 1.370 . S
C1296 C1298 1.363 . S
C1296 H1312 0.931 . S
C1297 C1296 1.370 . S
C1297 C1301 1.408 . S
C1298 C1296 1.363 . S
C1298 C1299 1.370 . S
C1298 C1302 1.524 . S
C1299 C1291 1.503 . S
C1299 C1298 1.370 . S
C1299 C1300 1.403 . S
C1300 C1299 1.403 . S
C1300 C1301 1.404 . S
C1300 C1303 1.539 . S
C1301 C1297 1.408 . S
C1301 C1300 1.404 . S
C1301 H1313 0.930 . S
C1302 C1298 1.524 . S
C1302 H1314 0.956 . S
C1302 H1315 0.961 . S
C1302 H1316 0.961 . S
C1303 C1300 1.539 . S
C1303 H1317 0.958 . S
C1303 H1318 0.961 . S
C1303 H1319 0.960 . S
H1304 C1288 0.931 . S
H1305 C1293 0.929 . S
H1306 C1294 0.960 . S
H1307 C1294 0.962 . S
H1308 C1294 0.960 . S
H1309 C1295 0.961 . S
H1310 C1295 0.961 . S
H1311 C1295 0.961 . S
H1312 C1296 0.931 . S
H1313 C1301 0.930 . S
H1314 C1302 0.956 . S
H1315 C1302 0.961 . S
H1316 C1302 0.961 . S
H1317 C1303 0.958 . S
H1318 C1303 0.961 . S
H1319 C1303 0.960 . S
C1320 C1321 1.391 . S
C1320 C1322 1.394 . S
C1320 H1336 0.931 . S
C1321 C1320 1.391 . S
C1321 C1325 1.376 . S
C1322 C1320 1.394 . S
C1322 C1323 1.369 . S
C1322 C1326 1.531 . S
C1323 C1322 1.369 . S
C1323 C1324 1.410 . S
C1323 C1331 1.503 . S
C1324 C1323 1.410 . S
C1324 C1325 1.392 . S
C1324 C1327 1.511 1_455 S
C1325 C1321 1.376 . S
C1325 C1324 1.392 . S
C1325 H1337 0.929 1_455 S
C1326 C1322 1.531 . S
C1326 H1338 0.960 . S
C1326 H1339 0.962 . S
C1326 H1340 0.960 . S
C1327 C1324 1.511 1_655 S
C1327 H1341 0.961 . S
C1327 H1342 0.961 1_655 S
C1327 H1343 0.961 . S
C1328 C1329 1.370 . S
C1328 C1330 1.363 . S
C1328 H1344 0.931 . S
C1329 C1328 1.370 . S
C1329 C1333 1.408 . S
C1330 C1328 1.363 . S
C1330 C1331 1.370 . S
C1330 C1334 1.524 . S
C1331 C1323 1.503 . S
C1331 C1330 1.370 . S
C1331 C1332 1.403 . S
C1332 C1331 1.403 . S
C1332 C1333 1.404 . S
C1332 C1335 1.539 . S
C1333 C1329 1.408 . S
C1333 C1332 1.404 . S
C1333 H1345 0.930 . S
C1334 C1330 1.524 . S
C1334 H1346 0.956 . S
C1334 H1347 0.961 . S
C1334 H1348 0.961 . S
C1335 C1332 1.539 . S
C1335 H1349 0.958 . S
C1335 H1350 0.961 . S
C1335 H1351 0.960 . S
H1336 C1320 0.931 . S
H1337 C1325 0.929 1_655 S
H1338 C1326 0.960 . S
H1339 C1326 0.962 . S
H1340 C1326 0.960 . S
H1341 C1327 0.961 . S
H1342 C1327 0.961 1_455 S
H1343 C1327 0.961 . S
H1344 C1328 0.931 . S
H1345 C1333 0.930 . S
H1346 C1334 0.956 . S
H1347 C1334 0.961 . S
H1348 C1334 0.961 . S
H1349 C1335 0.958 . S
H1350 C1335 0.961 . S
H1351 C1335 0.960 . S
C1352 C1353 1.391 . S
C1352 C1354 1.394 . S
C1352 H1368 0.931 . S
C1353 C1352 1.391 . S
C1353 C1357 1.376 . S
C1354 C1352 1.394 . S
C1354 C1355 1.369 . S
C1354 C1358 1.531 . S
C1355 C1354 1.369 . S
C1355 C1356 1.410 . S
C1355 C1363 1.503 . S
C1356 C1355 1.410 . S
C1356 C1357 1.392 . S
C1356 C1359 1.511 . S
C1357 C1353 1.376 . S
C1357 C1356 1.392 . S
C1357 H1369 0.929 . S
C1358 C1354 1.531 . S
C1358 H1370 0.960 . S
C1358 H1371 0.962 . S
C1358 H1372 0.960 . S
C1359 C1356 1.511 . S
C1359 H1373 0.961 . S
C1359 H1374 0.961 . S
C1359 H1375 0.961 . S
C1360 C1361 1.370 . S
C1360 C1362 1.363 . S
C1360 H1376 0.931 . S
C1361 C1360 1.370 . S
C1361 C1365 1.408 . S
C1362 C1360 1.363 . S
C1362 C1363 1.370 . S
C1362 C1366 1.524 . S
C1363 C1355 1.503 . S
C1363 C1362 1.370 . S
C1363 C1364 1.403 . S
C1364 C1363 1.403 . S
C1364 C1365 1.404 . S
C1364 C1367 1.539 . S
C1365 C1361 1.408 . S
C1365 C1364 1.404 . S
C1365 H1377 0.930 . S
C1366 C1362 1.524 . S
C1366 H1378 0.956 . S
C1366 H1379 0.961 . S
C1366 H1380 0.961 . S
C1367 C1364 1.539 . S
C1367 H1381 0.958 . S
C1367 H1382 0.961 . S
C1367 H1383 0.960 . S
H1368 C1352 0.931 . S
H1369 C1357 0.929 . S
H1370 C1358 0.960 . S
H1371 C1358 0.962 . S
H1372 C1358 0.960 . S
H1373 C1359 0.961 . S
H1374 C1359 0.961 . S
H1375 C1359 0.961 . S
H1376 C1360 0.931 . S
H1377 C1365 0.930 . S
H1378 C1366 0.956 . S
H1379 C1366 0.961 . S
H1380 C1366 0.961 . S
H1381 C1367 0.958 . S
H1382 C1367 0.961 . S
H1383 C1367 0.960 . S
C1384 C1385 1.391 . S
C1384 C1386 1.394 . S
C1384 H1400 0.931 . S
C1385 C1384 1.391 . S
C1385 C1389 1.376 . S
C1386 C1384 1.394 . S
C1386 C1387 1.369 . S
C1386 C1390 1.531 . S
C1387 C1386 1.369 . S
C1387 C1388 1.410 . S
C1387 C1395 1.503 . S
C1388 C1387 1.410 . S
C1388 C1389 1.392 . S
C1388 C1391 1.511 . S
C1389 C1385 1.376 . S
C1389 C1388 1.392 . S
C1389 H1401 0.929 . S
C1390 C1386 1.531 . S
C1390 H1402 0.960 . S
C1390 H1403 0.962 . S
C1390 H1404 0.960 . S
C1391 C1388 1.511 . S
C1391 H1405 0.961 . S
C1391 H1406 0.961 . S
C1391 H1407 0.961 . S
C1392 C1393 1.370 . S
C1392 C1394 1.363 . S
C1392 H1408 0.931 . S
C1393 C1392 1.370 . S
C1393 C1397 1.408 . S
C1394 C1392 1.363 . S
C1394 C1395 1.370 . S
C1394 C1398 1.524 . S
C1395 C1387 1.503 . S
C1395 C1394 1.370 . S
C1395 C1396 1.403 . S
C1396 C1395 1.403 . S
C1396 C1397 1.404 . S
C1396 C1399 1.539 . S
C1397 C1393 1.408 . S
C1397 C1396 1.404 . S
C1397 H1409 0.930 . S
C1398 C1394 1.524 . S
C1398 H1410 0.956 . S
C1398 H1411 0.961 . S
C1398 H1412 0.961 . S
C1399 C1396 1.539 . S
C1399 H1413 0.958 . S
C1399 H1414 0.961 . S
C1399 H1415 0.960 . S
H1400 C1384 0.931 . S
H1401 C1389 0.929 . S
H1402 C1390 0.960 . S
H1403 C1390 0.962 . S
H1404 C1390 0.960 . S
H1405 C1391 0.961 . S
H1406 C1391 0.961 . S
H1407 C1391 0.961 . S
H1408 C1392 0.931 . S
H1409 C1397 0.930 . S
H1410 C1398 0.956 . S
H1411 C1398 0.961 . S
H1412 C1398 0.961 . S
H1413 C1399 0.958 . S
H1414 C1399 0.961 . S
H1415 C1399 0.960 . S
C1416 C1417 1.391 . S
C1416 C1418 1.394 . S
C1416 H1432 0.931 . S
C1417 C1416 1.391 . S
C1417 C1421 1.376 . S
C1418 C1416 1.394 . S
C1418 C1419 1.369 . S
C1418 C1422 1.531 . S
C1419 C1418 1.369 . S
C1419 C1420 1.410 . S
C1419 C1427 1.503 . S
C1420 C1419 1.410 . S
C1420 C1421 1.392 . S
C1420 C1423 1.511 . S
C1421 C1417 1.376 . S
C1421 C1420 1.392 . S
C1421 H1433 0.929 . S
C1422 C1418 1.531 . S
C1422 H1434 0.960 . S
C1422 H1435 0.962 . S
C1422 H1436 0.960 . S
C1423 C1420 1.511 . S
C1423 H1437 0.961 . S
C1423 H1438 0.961 . S
C1423 H1439 0.961 . S
C1424 C1425 1.370 . S
C1424 C1426 1.363 . S
C1424 H1440 0.931 . S
C1425 C1424 1.370 . S
C1425 C1429 1.408 . S
C1426 C1424 1.363 . S
C1426 C1427 1.370 . S
C1426 C1430 1.524 . S
C1427 C1419 1.503 . S
C1427 C1426 1.370 . S
C1427 C1428 1.403 . S
C1428 C1427 1.403 . S
C1428 C1429 1.404 . S
C1428 C1431 1.539 . S
C1429 C1425 1.408 . S
C1429 C1428 1.404 . S
C1429 H1441 0.930 . S
C1430 C1426 1.524 . S
C1430 H1442 0.956 . S
C1430 H1443 0.961 . S
C1430 H1444 0.961 . S
C1431 C1428 1.539 . S
C1431 H1445 0.958 . S
C1431 H1446 0.961 . S
C1431 H1447 0.960 . S
H1432 C1416 0.931 . S
H1433 C1421 0.929 . S
H1434 C1422 0.960 . S
H1435 C1422 0.962 . S
H1436 C1422 0.960 . S
H1437 C1423 0.961 . S
H1438 C1423 0.961 . S
H1439 C1423 0.961 . S
H1440 C1424 0.931 . S
H1441 C1429 0.930 . S
H1442 C1430 0.956 . S
H1443 C1430 0.961 . S
H1444 C1430 0.961 . S
H1445 C1431 0.958 . S
H1446 C1431 0.961 . S
H1447 C1431 0.960 . S
C1448 C1449 1.391 . S
C1448 C1450 1.394 . S
C1448 H1464 0.931 . S
C1449 C1448 1.391 . S
C1449 C1453 1.376 . S
C1450 C1448 1.394 . S
C1450 C1451 1.369 . S
C1450 C1454 1.531 . S
C1451 C1450 1.369 . S
C1451 C1452 1.410 . S
C1451 C1459 1.503 . S
C1452 C1451 1.410 . S
C1452 C1453 1.392 . S
C1452 C1455 1.511 . S
C1453 C1449 1.376 . S
C1453 C1452 1.392 . S
C1453 H1465 0.929 . S
C1454 C1450 1.531 . S
C1454 H1466 0.960 . S
C1454 H1467 0.962 . S
C1454 H1468 0.960 . S
C1455 C1452 1.511 . S
C1455 H1469 0.961 . S
C1455 H1470 0.961 . S
C1455 H1471 0.961 . S
C1456 C1457 1.370 . S
C1456 C1458 1.363 . S
C1456 H1472 0.931 1_545 S
C1457 C1456 1.370 . S
C1457 C1461 1.408 . S
C1458 C1456 1.363 . S
C1458 C1459 1.370 . S
C1458 C1462 1.524 . S
C1459 C1451 1.503 . S
C1459 C1458 1.370 . S
C1459 C1460 1.403 . S
C1460 C1459 1.403 . S
C1460 C1461 1.404 . S
C1460 C1463 1.539 . S
C1461 C1457 1.408 . S
C1461 C1460 1.404 . S
C1461 H1473 0.930 . S
C1462 C1458 1.524 . S
C1462 H1474 0.956 . S
C1462 H1475 0.947 1_545 S
C1462 H1476 0.961 1_545 S
C1463 C1460 1.539 . S
C1463 H1477 0.958 . S
C1463 H1478 0.961 . S
C1463 H1479 0.960 . S
H1464 C1448 0.931 . S
H1465 C1453 0.929 . S
H1466 C1454 0.960 . S
H1467 C1454 0.962 . S
H1468 C1454 0.960 . S
H1469 C1455 0.961 . S
H1470 C1455 0.961 . S
H1471 C1455 0.961 . S
H1472 C1456 0.931 1_565 S
H1473 C1461 0.930 . S
H1474 C1462 0.956 . S
H1475 C1462 0.947 1_565 S
H1476 C1462 0.961 1_565 S
H1477 C1463 0.958 . S
H1478 C1463 0.961 . S
H1479 C1463 0.960 . S
C1480 C1481 1.391 . S
C1480 C1482 1.394 . S
C1480 H1496 0.931 . S
C1481 C1480 1.391 . S
C1481 C1485 1.376 . S
C1482 C1480 1.394 . S
C1482 C1483 1.369 . S
C1482 C1486 1.531 . S
C1483 C1482 1.369 . S
C1483 C1484 1.410 . S
C1483 C1491 1.503 . S
C1484 C1483 1.410 . S
C1484 C1485 1.392 . S
C1484 C1487 1.511 . S
C1485 C1481 1.376 . S
C1485 C1484 1.392 . S
C1485 H1497 0.929 . S
C1486 C1482 1.531 . S
C1486 H1498 0.960 . S
C1486 H1499 0.962 . S
C1486 H1500 0.960 . S
C1487 C1484 1.511 . S
C1487 H1501 0.961 . S
C1487 H1502 0.961 . S
C1487 H1503 0.961 . S
C1488 C1489 1.370 . S
C1488 C1490 1.363 . S
C1488 H1504 0.931 . S
C1489 C1488 1.370 . S
C1489 C1493 1.408 . S
C1490 C1488 1.363 . S
C1490 C1491 1.370 . S
C1490 C1494 1.524 . S
C1491 C1483 1.503 . S
C1491 C1490 1.370 . S
C1491 C1492 1.403 . S
C1492 C1491 1.403 . S
C1492 C1493 1.404 . S
C1492 C1495 1.539 . S
C1493 C1489 1.408 . S
C1493 C1492 1.404 . S
C1493 H1505 0.930 . S
C1494 C1490 1.524 . S
C1494 H1506 0.956 . S
C1494 H1507 0.961 . S
C1494 H1508 0.961 . S
C1495 C1492 1.539 . S
C1495 H1509 0.958 . S
C1495 H1510 0.961 . S
C1495 H1511 0.960 . S
H1496 C1480 0.931 . S
H1497 C1485 0.929 . S
H1498 C1486 0.960 . S
H1499 C1486 0.962 . S
H1500 C1486 0.960 . S
H1501 C1487 0.961 . S
H1502 C1487 0.961 . S
H1503 C1487 0.961 . S
H1504 C1488 0.931 . S
H1505 C1493 0.930 . S
H1506 C1494 0.956 . S
H1507 C1494 0.961 . S
H1508 C1494 0.961 . S
H1509 C1495 0.958 . S
H1510 C1495 0.961 . S
H1511 C1495 0.960 . S
C1512 C1513 1.391 . S
C1512 C1514 1.394 . S
C1512 H1528 0.931 . S
C1513 C1512 1.391 . S
C1513 C1517 1.376 . S
C1514 C1512 1.394 . S
C1514 C1515 1.369 . S
C1514 C1518 1.531 . S
C1515 C1514 1.369 . S
C1515 C1516 1.410 . S
C1515 C1523 1.503 . S
C1516 C1515 1.410 . S
C1516 C1517 1.392 . S
C1516 C1519 1.511 . S
C1517 C1513 1.376 . S
C1517 C1516 1.392 . S
C1517 H1529 0.929 . S
C1518 C1514 1.531 . S
C1518 H1530 0.960 . S
C1518 H1531 0.962 . S
C1518 H1532 0.960 . S
C1519 C1516 1.511 . S
C1519 H1533 0.961 . S
C1519 H1534 0.961 . S
C1519 H1535 0.961 . S
C1520 C1521 1.370 . S
C1520 C1522 1.363 . S
C1520 H1536 0.931 . S
C1521 C1520 1.370 . S
C1521 C1525 1.408 . S
C1522 C1520 1.363 . S
C1522 C1523 1.370 . S
C1522 C1526 1.524 . S
C1523 C1515 1.503 . S
C1523 C1522 1.370 . S
C1523 C1524 1.403 . S
C1524 C1523 1.403 . S
C1524 C1525 1.404 . S
C1524 C1527 1.539 1_565 S
C1525 C1521 1.408 . S
C1525 C1524 1.404 . S
C1525 H1537 0.930 1_565 S
C1526 C1522 1.524 . S
C1526 H1538 0.956 . S
C1526 H1539 0.961 . S
C1526 H1540 0.961 . S
C1527 C1524 1.539 1_545 S
C1527 H1541 0.958 . S
C1527 H1542 0.961 . S
C1527 H1543 0.960 . S
H1528 C1512 0.931 . S
H1529 C1517 0.929 . S
H1530 C1518 0.960 . S
H1531 C1518 0.962 . S
H1532 C1518 0.960 . S
H1533 C1519 0.961 . S
H1534 C1519 0.961 . S
H1535 C1519 0.961 . S
H1536 C1520 0.931 . S
H1537 C1525 0.930 1_545 S
H1538 C1526 0.956 . S
H1539 C1526 0.961 . S
H1540 C1526 0.961 . S
H1541 C1527 0.958 . S
H1542 C1527 0.961 . S
H1543 C1527 0.960 . S
C1544 C1545 1.391 . S
C1544 C1546 1.394 . S
C1544 H1560 0.931 . S
C1545 C1544 1.391 . S
C1545 C1549 1.376 . S
C1546 C1544 1.394 . S
C1546 C1547 1.369 . S
C1546 C1550 1.531 . S
C1547 C1546 1.369 . S
C1547 C1548 1.410 . S
C1547 C1555 1.503 . S
C1548 C1547 1.410 . S
C1548 C1549 1.392 . S
C1548 C1551 1.511 . S
C1549 C1545 1.376 . S
C1549 C1548 1.392 . S
C1549 H1561 0.929 . S
C1550 C1546 1.531 . S
C1550 H1562 0.960 . S
C1550 H1563 0.962 . S
C1550 H1564 0.960 . S
C1551 C1548 1.511 . S
C1551 H1565 0.961 . S
C1551 H1566 0.961 . S
C1551 H1567 0.961 . S
C1552 C1553 1.370 . S
C1552 C1554 1.363 . S
C1552 H1568 0.931 . S
C1553 C1552 1.370 . S
C1553 C1557 1.408 . S
C1554 C1552 1.363 . S
C1554 C1555 1.370 . S
C1554 C1558 1.524 . S
C1555 C1547 1.503 . S
C1555 C1554 1.370 . S
C1555 C1556 1.403 . S
C1556 C1555 1.403 . S
C1556 C1557 1.404 . S
C1556 C1559 1.539 . S
C1557 C1553 1.408 . S
C1557 C1556 1.404 . S
C1557 H1569 0.930 . S
C1558 C1554 1.524 . S
C1558 H1570 0.956 . S
C1558 H1571 0.961 . S
C1558 H1572 0.961 . S
C1559 C1556 1.539 . S
C1559 H1573 0.958 . S
C1559 H1574 0.961 . S
C1559 H1575 0.960 . S
H1560 C1544 0.931 . S
H1561 C1549 0.929 . S
H1562 C1550 0.960 . S
H1563 C1550 0.962 . S
H1564 C1550 0.960 . S
H1565 C1551 0.961 . S
H1566 C1551 0.961 . S
H1567 C1551 0.961 . S
H1568 C1552 0.931 . S
H1569 C1557 0.930 . S
H1570 C1558 0.956 . S
H1571 C1558 0.961 . S
H1572 C1558 0.961 . S
H1573 C1559 0.958 . S
H1574 C1559 0.961 . S
H1575 C1559 0.960 . S
C1576 C1577 1.391 . S
C1576 C1578 1.394 . S
C1576 H1592 0.931 . S
C1577 C1576 1.391 . S
C1577 C1581 1.376 . S
C1578 C1576 1.394 . S
C1578 C1579 1.369 . S
C1578 C1582 1.531 . S
C1579 C1578 1.369 . S
C1579 C1580 1.410 . S
C1579 C1587 1.503 . S
C1580 C1579 1.410 . S
C1580 C1581 1.392 . S
C1580 C1583 1.511 . S
C1581 C1577 1.376 . S
C1581 C1580 1.392 . S
C1581 H1593 0.929 . S
C1582 C1578 1.531 . S
C1582 H1594 0.960 . S
C1582 H1595 0.962 . S
C1582 H1596 0.960 . S
C1583 C1580 1.511 . S
C1583 H1597 0.961 . S
C1583 H1598 0.961 . S
C1583 H1599 0.961 . S
C1584 C1585 1.370 . S
C1584 C1586 1.363 . S
C1584 H1600 0.931 . S
C1585 C1584 1.370 . S
C1585 C1589 1.408 . S
C1586 C1584 1.363 . S
C1586 C1587 1.370 . S
C1586 C1590 1.524 . S
C1587 C1579 1.503 . S
C1587 C1586 1.370 . S
C1587 C1588 1.403 . S
C1588 C1587 1.403 . S
C1588 C1589 1.404 . S
C1588 C1591 1.539 . S
C1589 C1585 1.408 . S
C1589 C1588 1.404 . S
C1589 H1601 0.930 . S
C1590 C1586 1.524 . S
C1590 H1602 0.956 . S
C1590 H1603 0.961 . S
C1590 H1604 0.961 . S
C1591 C1588 1.539 . S
C1591 H1605 0.958 . S
C1591 H1606 0.961 . S
C1591 H1607 0.960 . S
H1592 C1576 0.931 . S
H1593 C1581 0.929 . S
H1594 C1582 0.960 . S
H1595 C1582 0.962 . S
H1596 C1582 0.960 . S
H1597 C1583 0.961 . S
H1598 C1583 0.961 . S
H1599 C1583 0.961 . S
H1600 C1584 0.931 . S
H1601 C1589 0.930 . S
H1602 C1590 0.956 . S
H1603 C1590 0.961 . S
H1604 C1590 0.961 . S
H1605 C1591 0.958 . S
H1606 C1591 0.961 . S
H1607 C1591 0.960 . S
C1608 C1609 1.391 . S
C1608 C1610 1.394 . S
C1608 H1624 0.931 . S
C1609 C1608 1.391 . S
C1609 C1613 1.376 . S
C1610 C1608 1.394 . S
C1610 C1611 1.369 . S
C1610 C1614 1.531 . S
C1611 C1610 1.369 . S
C1611 C1612 1.410 . S
C1611 C1619 1.503 . S
C1612 C1611 1.410 . S
C1612 C1613 1.392 . S
C1612 C1615 1.511 . S
C1613 C1609 1.376 . S
C1613 C1612 1.392 . S
C1613 H1625 0.929 . S
C1614 C1610 1.531 . S
C1614 H1626 0.960 . S
C1614 H1627 0.962 . S
C1614 H1628 0.960 . S
C1615 C1612 1.511 . S
C1615 H1629 0.961 . S
C1615 H1630 0.961 . S
C1615 H1631 0.961 . S
C1616 C1617 1.370 . S
C1616 C1618 1.363 . S
C1616 H1632 0.931 . S
C1617 C1616 1.370 . S
C1617 C1621 1.408 . S
C1618 C1616 1.363 . S
C1618 C1619 1.370 . S
C1618 C1622 1.524 . S
C1619 C1611 1.503 . S
C1619 C1618 1.370 . S
C1619 C1620 1.403 . S
C1620 C1619 1.403 . S
C1620 C1621 1.404 . S
C1620 C1623 1.539 . S
C1621 C1617 1.408 . S
C1621 C1620 1.404 . S
C1621 H1633 0.930 . S
C1622 C1618 1.524 . S
C1622 H1634 0.956 . S
C1622 H1635 0.961 . S
C1622 H1636 0.961 . S
C1623 C1620 1.539 . S
C1623 H1637 0.958 . S
C1623 H1638 0.961 . S
C1623 H1639 0.960 . S
H1624 C1608 0.931 . S
H1625 C1613 0.929 . S
H1626 C1614 0.960 . S
H1627 C1614 0.962 . S
H1628 C1614 0.960 . S
H1629 C1615 0.961 . S
H1630 C1615 0.961 . S
H1631 C1615 0.961 . S
H1632 C1616 0.931 . S
H1633 C1621 0.930 . S
H1634 C1622 0.956 . S
H1635 C1622 0.961 . S
H1636 C1622 0.961 . S
H1637 C1623 0.958 . S
H1638 C1623 0.961 . S
H1639 C1623 0.960 . S
C1640 C1641 1.391 . S
C1640 C1642 1.394 . S
C1640 H1656 0.931 . S
C1641 C1640 1.391 . S
C1641 C1645 1.376 . S
C1642 C1640 1.394 . S
C1642 C1643 1.369 . S
C1642 C1646 1.531 . S
C1643 C1642 1.369 . S
C1643 C1644 1.410 . S
C1643 C1651 1.503 . S
C1644 C1643 1.410 . S
C1644 C1645 1.392 . S
C1644 C1647 1.511 . S
C1645 C1641 1.376 . S
C1645 C1644 1.392 . S
C1645 H1657 0.929 . S
C1646 C1642 1.531 . S
C1646 H1658 0.960 . S
C1646 H1659 0.962 . S
C1646 H1660 0.960 . S
C1647 C1644 1.511 . S
C1647 H1661 0.961 . S
C1647 H1662 0.961 . S
C1647 H1663 0.961 . S
C1648 C1649 1.370 . S
C1648 C1650 1.363 . S
C1648 H1664 0.931 . S
C1649 C1648 1.370 . S
C1649 C1653 1.408 . S
C1650 C1648 1.363 . S
C1650 C1651 1.370 . S
C1650 C1654 1.524 . S
C1651 C1643 1.503 . S
C1651 C1650 1.370 . S
C1651 C1652 1.403 . S
C1652 C1651 1.403 . S
C1652 C1653 1.404 . S
C1652 C1655 1.539 . S
C1653 C1649 1.408 . S
C1653 C1652 1.404 . S
C1653 H1665 0.930 . S
C1654 C1650 1.524 . S
C1654 H1666 0.956 . S
C1654 H1667 0.961 . S
C1654 H1668 0.961 . S
C1655 C1652 1.539 . S
C1655 H1669 0.958 . S
C1655 H1670 0.939 1_455 S
C1655 H1671 0.960 . S
H1656 C1640 0.931 . S
H1657 C1645 0.929 . S
H1658 C1646 0.960 . S
H1659 C1646 0.962 . S
H1660 C1646 0.960 . S
H1661 C1647 0.961 . S
H1662 C1647 0.961 . S
H1663 C1647 0.961 . S
H1664 C1648 0.931 . S
H1665 C1653 0.930 . S
H1666 C1654 0.956 . S
H1667 C1654 0.961 . S
H1668 C1654 0.961 . S
H1669 C1655 0.958 . S
H1670 C1655 0.939 1_655 S
H1671 C1655 0.960 . S
C1672 C1673 1.391 . S
C1672 C1674 1.394 . S
C1672 H1688 0.931 . S
C1673 C1672 1.391 . S
C1673 C1677 1.376 . S
C1674 C1672 1.394 . S
C1674 C1675 1.369 . S
C1674 C1678 1.531 . S
C1675 C1674 1.369 . S
C1675 C1676 1.410 . S
C1675 C1683 1.503 . S
C1676 C1675 1.410 . S
C1676 C1677 1.392 . S
C1676 C1679 1.511 . S
C1677 C1673 1.376 . S
C1677 C1676 1.392 . S
C1677 H1689 0.929 . S
C1678 C1674 1.531 . S
C1678 H1690 0.960 . S
C1678 H1691 0.962 . S
C1678 H1692 0.960 . S
C1679 C1676 1.511 . S
C1679 H1693 0.961 . S
C1679 H1694 0.961 . S
C1679 H1695 0.961 . S
C1680 C1681 1.370 . S
C1680 C1682 1.363 . S
C1680 H1696 0.931 . S
C1681 C1680 1.370 . S
C1681 C1685 1.408 . S
C1682 C1680 1.363 . S
C1682 C1683 1.370 . S
C1682 C1686 1.524 . S
C1683 C1675 1.503 . S
C1683 C1682 1.370 . S
C1683 C1684 1.403 . S
C1684 C1683 1.403 . S
C1684 C1685 1.404 . S
C1684 C1687 1.539 . S
C1685 C1681 1.408 . S
C1685 C1684 1.404 . S
C1685 H1697 0.930 . S
C1686 C1682 1.524 . S
C1686 H1698 0.956 . S
C1686 H1699 0.961 . S
C1686 H1700 0.961 . S
C1687 C1684 1.539 . S
C1687 H1701 0.958 . S
C1687 H1702 0.961 . S
C1687 H1703 0.960 . S
H1688 C1672 0.931 . S
H1689 C1677 0.929 . S
H1690 C1678 0.960 . S
H1691 C1678 0.962 . S
H1692 C1678 0.960 . S
H1693 C1679 0.961 . S
H1694 C1679 0.961 . S
H1695 C1679 0.961 . S
H1696 C1680 0.931 . S
H1697 C1685 0.930 . S
H1698 C1686 0.956 . S
H1699 C1686 0.961 . S
H1700 C1686 0.961 . S
H1701 C1687 0.958 . S
H1702 C1687 0.961 . S
H1703 C1687 0.960 . S
C1704 C1705 1.391 . S
C1704 C1706 1.394 . S
C1704 H1720 0.931 . S
C1705 C1704 1.391 . S
C1705 C1709 1.376 . S
C1706 C1704 1.394 . S
C1706 C1707 1.369 . S
C1706 C1710 1.531 . S
C1707 C1706 1.369 . S
C1707 C1708 1.410 . S
C1707 C1715 1.503 . S
C1708 C1707 1.410 . S
C1708 C1709 1.392 . S
C1708 C1711 1.511 . S
C1709 C1705 1.376 . S
C1709 C1708 1.392 . S
C1709 H1721 0.929 . S
C1710 C1706 1.531 . S
C1710 H1722 0.960 . S
C1710 H1723 0.962 . S
C1710 H1724 0.960 . S
C1711 C1708 1.511 . S
C1711 H1725 0.961 . S
C1711 H1726 0.961 . S
C1711 H1727 0.961 . S
C1712 C1713 1.370 . S
C1712 C1714 1.363 . S
C1712 H1728 0.931 . S
C1713 C1712 1.370 . S
C1713 C1717 1.408 . S
C1714 C1712 1.363 . S
C1714 C1715 1.370 . S
C1714 C1718 1.524 . S
C1715 C1707 1.503 . S
C1715 C1714 1.370 . S
C1715 C1716 1.403 . S
C1716 C1715 1.403 . S
C1716 C1717 1.404 . S
C1716 C1719 1.539 . S
C1717 C1713 1.408 . S
C1717 C1716 1.404 . S
C1717 H1729 0.930 . S
C1718 C1714 1.524 . S
C1718 H1730 0.956 . S
C1718 H1731 0.961 . S
C1718 H1732 0.961 . S
C1719 C1716 1.539 . S
C1719 H1733 0.958 . S
C1719 H1734 0.961 . S
C1719 H1735 0.960 . S
H1720 C1704 0.931 . S
H1721 C1709 0.929 . S
H1722 C1710 0.960 . S
H1723 C1710 0.962 . S
H1724 C1710 0.960 . S
H1725 C1711 0.961 . S
H1726 C1711 0.961 . S
H1727 C1711 0.961 . S
H1728 C1712 0.931 . S
H1729 C1717 0.930 . S
H1730 C1718 0.956 . S
H1731 C1718 0.961 . S
H1732 C1718 0.961 . S
H1733 C1719 0.958 . S
H1734 C1719 0.961 . S
H1735 C1719 0.960 . S
C1736 C1737 1.391 . S
C1736 C1738 1.394 . S
C1736 H1752 0.931 . S
C1737 C1736 1.391 . S
C1737 C1741 1.376 . S
C1738 C1736 1.394 . S
C1738 C1739 1.369 . S
C1738 C1742 1.531 . S
C1739 C1738 1.369 . S
C1739 C1740 1.410 . S
C1739 C1747 1.503 . S
C1740 C1739 1.410 . S
C1740 C1741 1.392 . S
C1740 C1743 1.511 . S
C1741 C1737 1.376 . S
C1741 C1740 1.392 . S
C1741 H1753 0.929 . S
C1742 C1738 1.531 . S
C1742 H1754 0.960 . S
C1742 H1755 0.962 . S
C1742 H1756 0.960 . S
C1743 C1740 1.511 . S
C1743 H1757 0.950 1_655 S
C1743 H1758 0.961 . S
C1743 H1759 0.961 1_655 S
C1744 C1745 1.370 . S
C1744 C1746 1.363 . S
C1744 H1760 0.931 . S
C1745 C1744 1.370 . S
C1745 C1749 1.408 . S
C1746 C1744 1.363 . S
C1746 C1747 1.370 . S
C1746 C1750 1.524 . S
C1747 C1739 1.503 . S
C1747 C1746 1.370 . S
C1747 C1748 1.403 . S
C1748 C1747 1.403 . S
C1748 C1749 1.404 . S
C1748 C1751 1.539 . S
C1749 C1745 1.408 . S
C1749 C1748 1.404 . S
C1749 H1761 0.930 . S
C1750 C1746 1.524 . S
C1750 H1762 0.956 . S
C1750 H1763 0.961 . S
C1750 H1764 0.961 . S
C1751 C1748 1.539 . S
C1751 H1765 0.958 . S
C1751 H1766 0.961 . S
C1751 H1767 0.960 . S
H1752 C1736 0.931 . S
H1753 C1741 0.929 . S
H1754 C1742 0.960 . S
H1755 C1742 0.962 . S
H1756 C1742 0.960 . S
H1757 C1743 0.950 1_455 S
H1758 C1743 0.961 . S
H1759 C1743 0.961 1_455 S
H1760 C1744 0.931 . S
H1761 C1749 0.930 . S
H1762 C1750 0.956 . S
H1763 C1750 0.961 . S
H1764 C1750 0.961 . S
H1765 C1751 0.958 . S
H1766 C1751 0.961 . S
H1767 C1751 0.960 . S
C1768 C1769 1.391 . S
C1768 C1770 1.394 . S
C1768 H1784 0.931 . S
C1769 C1768 1.391 . S
C1769 C1773 1.376 . S
C1770 C1768 1.394 . S
C1770 C1771 1.369 . S
C1770 C1774 1.531 . S
C1771 C1770 1.369 . S
C1771 C1772 1.410 . S
C1771 C1779 1.503 . S
C1772 C1771 1.410 . S
C1772 C1773 1.392 . S
C1772 C1775 1.511 . S
C1773 C1769 1.376 . S
C1773 C1772 1.392 . S
C1773 H1785 0.929 . S
C1774 C1770 1.531 . S
C1774 H1786 0.960 . S
C1774 H1787 0.962 . S
C1774 H1788 0.960 . S
C1775 C1772 1.511 . S
C1775 H1789 0.961 . S
C1775 H1790 0.961 . S
C1775 H1791 0.961 . S
C1776 C1777 1.370 . S
C1776 C1778 1.363 . S
C1776 H1792 0.931 . S
C1777 C1776 1.370 . S
C1777 C1781 1.408 . S
C1778 C1776 1.363 . S
C1778 C1779 1.370 . S
C1778 C1782 1.524 . S
C1779 C1771 1.503 . S
C1779 C1778 1.370 . S
C1779 C1780 1.403 . S
C1780 C1779 1.403 . S
C1780 C1781 1.404 . S
C1780 C1783 1.539 . S
C1781 C1777 1.408 . S
C1781 C1780 1.404 . S
C1781 H1793 0.930 . S
C1782 C1778 1.524 . S
C1782 H1794 0.956 . S
C1782 H1795 0.961 . S
C1782 H1796 0.961 . S
C1783 C1780 1.539 . S
C1783 H1797 0.958 . S
C1783 H1798 0.961 . S
C1783 H1799 0.960 . S
H1784 C1768 0.931 . S
H1785 C1773 0.929 . S
H1786 C1774 0.960 . S
H1787 C1774 0.962 . S
H1788 C1774 0.960 . S
H1789 C1775 0.961 . S
H1790 C1775 0.961 . S
H1791 C1775 0.961 . S
H1792 C1776 0.931 . S
H1793 C1781 0.930 . S
H1794 C1782 0.956 . S
H1795 C1782 0.961 . S
H1796 C1782 0.961 . S
H1797 C1783 0.958 . S
H1798 C1783 0.961 . S
H1799 C1783 0.960 . S
C1800 C1801 1.391 . S
C1800 C1802 1.394 . S
C1800 H1816 0.931 . S
C1801 C1800 1.391 . S
C1801 C1805 1.376 . S
C1802 C1800 1.394 . S
C1802 C1803 1.369 . S
C1802 C1806 1.531 . S
C1803 C1802 1.369 . S
C1803 C1804 1.410 . S
C1803 C1811 1.503 . S
C1804 C1803 1.410 . S
C1804 C1805 1.392 . S
C1804 C1807 1.511 . S
C1805 C1801 1.376 . S
C1805 C1804 1.392 . S
C1805 H1817 0.929 . S
C1806 C1802 1.531 . S
C1806 H1818 0.960 . S
C1806 H1819 0.962 . S
C1806 H1820 0.960 . S
C1807 C1804 1.511 . S
C1807 H1821 0.961 . S
C1807 H1822 0.961 . S
C1807 H1823 0.961 . S
C1808 C1809 1.370 . S
C1808 C1810 1.363 . S
C1808 H1824 0.931 . S
C1809 C1808 1.370 . S
C1809 C1813 1.408 . S
C1810 C1808 1.363 . S
C1810 C1811 1.370 . S
C1810 C1814 1.524 . S
C1811 C1803 1.503 . S
C1811 C1810 1.370 . S
C1811 C1812 1.403 . S
C1812 C1811 1.403 . S
C1812 C1813 1.404 . S
C1812 C1815 1.539 . S
C1813 C1809 1.408 . S
C1813 C1812 1.404 . S
C1813 H1825 0.930 . S
C1814 C1810 1.524 . S
C1814 H1826 0.956 . S
C1814 H1827 0.961 . S
C1814 H1828 0.961 . S
C1815 C1812 1.539 . S
C1815 H1829 0.958 . S
C1815 H1830 0.961 . S
C1815 H1831 0.960 . S
H1816 C1800 0.931 . S
H1817 C1805 0.929 . S
H1818 C1806 0.960 . S
H1819 C1806 0.962 . S
H1820 C1806 0.960 . S
H1821 C1807 0.961 . S
H1822 C1807 0.961 . S
H1823 C1807 0.961 . S
H1824 C1808 0.931 . S
H1825 C1813 0.930 . S
H1826 C1814 0.956 . S
H1827 C1814 0.961 . S
H1828 C1814 0.961 . S
H1829 C1815 0.958 . S
H1830 C1815 0.961 . S
H1831 C1815 0.960 . S
C1832 C1833 1.391 . S
C1832 C1834 1.394 . S
C1832 H1848 0.931 . S
C1833 C1832 1.391 . S
C1833 C1837 1.376 . S
C1834 C1832 1.394 . S
C1834 C1835 1.369 . S
C1834 C1838 1.531 . S
C1835 C1834 1.369 . S
C1835 C1836 1.410 . S
C1835 C1843 1.503 . S
C1836 C1835 1.410 . S
C1836 C1837 1.392 . S
C1836 C1839 1.511 . S
C1837 C1833 1.376 . S
C1837 C1836 1.392 . S
C1837 H1849 0.929 . S
C1838 C1834 1.531 . S
C1838 H1850 0.960 . S
C1838 H1851 0.962 . S
C1838 H1852 0.960 . S
C1839 C1836 1.511 . S
C1839 H1853 0.961 . S
C1839 H1854 0.961 . S
C1839 H1855 0.961 . S
C1840 C1841 1.370 . S
C1840 C1842 1.363 . S
C1840 H1856 0.931 . S
C1841 C1840 1.370 . S
C1841 C1845 1.408 . S
C1842 C1840 1.363 . S
C1842 C1843 1.370 . S
C1842 C1846 1.524 . S
C1843 C1835 1.503 . S
C1843 C1842 1.370 . S
C1843 C1844 1.403 . S
C1844 C1843 1.403 . S
C1844 C1845 1.404 . S
C1844 C1847 1.539 . S
C1845 C1841 1.408 . S
C1845 C1844 1.404 . S
C1845 H1857 0.930 . S
C1846 C1842 1.524 . S
C1846 H1858 0.956 . S
C1846 H1859 0.961 . S
C1846 H1860 0.961 . S
C1847 C1844 1.539 . S
C1847 H1861 0.958 . S
C1847 H1862 0.961 . S
C1847 H1863 0.960 . S
H1848 C1832 0.931 . S
H1849 C1837 0.929 . S
H1850 C1838 0.960 . S
H1851 C1838 0.962 . S
H1852 C1838 0.960 . S
H1853 C1839 0.961 . S
H1854 C1839 0.961 . S
H1855 C1839 0.961 . S
H1856 C1840 0.931 . S
H1857 C1845 0.930 . S
H1858 C1846 0.956 . S
H1859 C1846 0.961 . S
H1860 C1846 0.961 . S
H1861 C1847 0.958 . S
H1862 C1847 0.961 . S
H1863 C1847 0.960 . S
C1864 C1865 1.391 . S
C1864 C1866 1.394 . S
C1864 H1880 0.931 . S
C1865 C1864 1.391 . S
C1865 C1869 1.376 . S
C1866 C1864 1.394 . S
C1866 C1867 1.369 . S
C1866 C1870 1.531 . S
C1867 C1866 1.369 . S
C1867 C1868 1.410 . S
C1867 C1875 1.503 . S
C1868 C1867 1.410 . S
C1868 C1869 1.392 . S
C1868 C1871 1.511 . S
C1869 C1865 1.376 . S
C1869 C1868 1.392 . S
C1869 H1881 0.929 . S
C1870 C1866 1.531 . S
C1870 H1882 0.960 . S
C1870 H1883 0.977 . S
C1870 H1884 0.960 . S
C1871 C1868 1.511 . S
C1871 H1885 0.961 . S
C1871 H1886 0.961 . S
C1871 H1887 0.961 . S
C1872 C1873 1.370 . S
C1872 C1874 1.363 . S
C1872 H1888 0.931 1_655 S
C1873 C1872 1.370 . S
C1873 C1877 1.408 . S
C1874 C1872 1.363 . S
C1874 C1875 1.370 . S
C1874 C1878 1.524 . S
C1875 C1867 1.503 . S
C1875 C1874 1.370 . S
C1875 C1876 1.403 . S
C1876 C1875 1.403 . S
C1876 C1877 1.404 . S
C1876 C1879 1.539 . S
C1877 C1873 1.408 . S
C1877 C1876 1.404 . S
C1877 H1889 0.930 . S
C1878 C1874 1.524 . S
C1878 H1890 0.948 1_655 S
C1878 H1891 0.961 . S
C1878 H1892 0.961 1_655 S
C1879 C1876 1.539 . S
C1879 H1893 0.958 . S
C1879 H1894 0.961 . S
C1879 H1895 0.960 . S
H1880 C1864 0.931 . S
H1881 C1869 0.929 . S
H1882 C1870 0.960 . S
H1883 C1870 0.977 . S
H1884 C1870 0.960 . S
H1885 C1871 0.961 . S
H1886 C1871 0.961 . S
H1887 C1871 0.961 . S
H1888 C1872 0.931 1_455 S
H1889 C1877 0.930 . S
H1890 C1878 0.948 1_455 S
H1891 C1878 0.961 . S
H1892 C1878 0.961 1_455 S
H1893 C1879 0.958 . S
H1894 C1879 0.961 . S
H1895 C1879 0.960 . S
C1896 C1897 1.391 . S
C1896 C1898 1.394 . S
C1896 H1912 0.931 . S
C1897 C1896 1.391 . S
C1897 C1901 1.376 . S
C1898 C1896 1.394 . S
C1898 C1899 1.369 . S
C1898 C1902 1.531 . S
C1899 C1898 1.369 . S
C1899 C1900 1.410 . S
C1899 C1907 1.503 . S
C1900 C1899 1.410 . S
C1900 C1901 1.392 . S
C1900 C1903 1.511 . S
C1901 C1897 1.376 . S
C1901 C1900 1.392 . S
C1901 H1913 0.929 . S
C1902 C1898 1.531 . S
C1902 H1914 0.960 . S
C1902 H1915 0.962 . S
C1902 H1916 0.960 . S
C1903 C1900 1.511 . S
C1903 H1917 0.961 . S
C1903 H1918 0.961 . S
C1903 H1919 0.961 . S
C1904 C1905 1.370 . S
C1904 C1906 1.363 . S
C1904 H1920 0.931 . S
C1905 C1904 1.370 . S
C1905 C1909 1.408 . S
C1906 C1904 1.363 . S
C1906 C1907 1.370 . S
C1906 C1910 1.524 . S
C1907 C1899 1.503 . S
C1907 C1906 1.370 . S
C1907 C1908 1.403 . S
C1908 C1907 1.403 . S
C1908 C1909 1.404 . S
C1908 C1911 1.539 . S
C1909 C1905 1.408 . S
C1909 C1908 1.404 . S
C1909 H1921 0.930 . S
C1910 C1906 1.524 . S
C1910 H1922 0.956 . S
C1910 H1923 0.961 . S
C1910 H1924 0.961 . S
C1911 C1908 1.539 . S
C1911 H1925 0.958 . S
C1911 H1926 0.961 . S
C1911 H1927 0.960 . S
H1912 C1896 0.931 . S
H1913 C1901 0.929 . S
H1914 C1902 0.960 . S
H1915 C1902 0.962 . S
H1916 C1902 0.960 . S
H1917 C1903 0.961 . S
H1918 C1903 0.961 . S
H1919 C1903 0.961 . S
H1920 C1904 0.931 . S
H1921 C1909 0.930 . S
H1922 C1910 0.956 . S
H1923 C1910 0.961 . S
H1924 C1910 0.961 . S
H1925 C1911 0.958 . S
H1926 C1911 0.961 . S
H1927 C1911 0.960 . S
C1928 C1929 1.391 . S
C1928 C1930 1.394 . S
C1928 H1944 0.931 . S
C1929 C1928 1.391 . S
C1929 C1933 1.376 . S
C1930 C1928 1.394 . S
C1930 C1931 1.369 . S
C1930 C1934 1.531 . S
C1931 C1930 1.369 . S
C1931 C1932 1.410 . S
C1931 C1939 1.503 . S
C1932 C1931 1.410 . S
C1932 C1933 1.392 . S
C1932 C1935 1.511 . S
C1933 C1929 1.376 . S
C1933 C1932 1.392 . S
C1933 H1945 0.929 . S
C1934 C1930 1.531 . S
C1934 H1946 0.960 . S
C1934 H1947 0.962 . S
C1934 H1948 0.960 . S
C1935 C1932 1.511 . S
C1935 H1949 0.961 . S
C1935 H1950 0.961 . S
C1935 H1951 0.961 . S
C1936 C1937 1.370 . S
C1936 C1938 1.363 . S
C1936 H1952 0.931 . S
C1937 C1936 1.370 . S
C1937 C1941 1.408 . S
C1938 C1936 1.363 . S
C1938 C1939 1.370 . S
C1938 C1942 1.524 . S
C1939 C1931 1.503 . S
C1939 C1938 1.370 . S
C1939 C1940 1.403 . S
C1940 C1939 1.403 . S
C1940 C1941 1.404 . S
C1940 C1943 1.539 . S
C1941 C1937 1.408 . S
C1941 C1940 1.404 . S
C1941 H1953 0.930 . S
C1942 C1938 1.524 . S
C1942 H1954 0.956 . S
C1942 H1955 0.961 . S
C1942 H1956 0.961 . S
C1943 C1940 1.539 . S
C1943 H1957 0.958 . S
C1943 H1958 0.961 . S
C1943 H1959 0.960 . S
H1944 C1928 0.931 . S
H1945 C1933 0.929 . S
H1946 C1934 0.960 . S
H1947 C1934 0.962 . S
H1948 C1934 0.960 . S
H1949 C1935 0.961 . S
H1950 C1935 0.961 . S
H1951 C1935 0.961 . S
H1952 C1936 0.931 . S
H1953 C1941 0.930 . S
H1954 C1942 0.956 . S
H1955 C1942 0.961 . S
H1956 C1942 0.961 . S
H1957 C1943 0.958 . S
H1958 C1943 0.961 . S
H1959 C1943 0.960 . S
C1960 C1961 1.391 . S
C1960 C1962 1.394 . S
C1960 H1976 0.931 . S
C1961 C1960 1.391 . S
C1961 C1965 1.376 . S
C1962 C1960 1.394 . S
C1962 C1963 1.369 . S
C1962 C1966 1.531 . S
C1963 C1962 1.369 . S
C1963 C1964 1.410 . S
C1963 C1971 1.503 . S
C1964 C1963 1.410 . S
C1964 C1965 1.392 . S
C1964 C1967 1.511 . S
C1965 C1961 1.376 . S
C1965 C1964 1.392 . S
C1965 H1977 0.929 . S
C1966 C1962 1.531 . S
C1966 H1978 0.960 . S
C1966 H1979 0.962 . S
C1966 H1980 0.960 . S
C1967 C1964 1.511 . S
C1967 H1981 0.961 . S
C1967 H1982 0.961 . S
C1967 H1983 0.961 . S
C1968 C1969 1.370 . S
C1968 C1970 1.363 . S
C1968 H1984 0.931 . S
C1969 C1968 1.370 . S
C1969 C1973 1.408 . S
C1970 C1968 1.363 . S
C1970 C1971 1.370 . S
C1970 C1974 1.524 . S
C1971 C1963 1.503 . S
C1971 C1970 1.370 . S
C1971 C1972 1.403 . S
C1972 C1971 1.403 . S
C1972 C1973 1.404 . S
C1972 C1975 1.539 . S
C1973 C1969 1.408 . S
C1973 C1972 1.404 . S
C1973 H1985 0.930 . S
C1974 C1970 1.524 . S
C1974 H1986 0.956 . S
C1974 H1987 0.961 . S
C1974 H1988 0.961 . S
C1975 C1972 1.539 . S
C1975 H1989 0.958 . S
C1975 H1990 0.961 . S
C1975 H1991 0.960 . S
H1976 C1960 0.931 . S
H1977 C1965 0.929 . S
H1978 C1966 0.960 . S
H1979 C1966 0.962 . S
H1980 C1966 0.960 . S
H1981 C1967 0.961 . S
H1982 C1967 0.961 . S
H1983 C1967 0.961 . S
H1984 C1968 0.931 . S
H1985 C1973 0.930 . S
H1986 C1974 0.956 . S
H1987 C1974 0.961 . S
H1988 C1974 0.961 . S
H1989 C1975 0.958 . S
H1990 C1975 0.961 . S
H1991 C1975 0.960 . S
C1992 C1993 1.391 . S
C1992 C1994 1.394 . S
C1992 H2008 0.931 . S
C1993 C1992 1.391 . S
C1993 C1997 1.376 . S
C1994 C1992 1.394 . S
C1994 C1995 1.369 . S
C1994 C1998 1.531 . S
C1995 C1994 1.369 . S
C1995 C1996 1.410 . S
C1995 C2003 1.503 . S
C1996 C1995 1.410 . S
C1996 C1997 1.392 . S
C1996 C1999 1.511 . S
C1997 C1993 1.376 . S
C1997 C1996 1.392 . S
C1997 H2009 0.929 . S
C1998 C1994 1.531 . S
C1998 H2010 0.960 . S
C1998 H2011 0.962 . S
C1998 H2012 0.960 . S
C1999 C1996 1.511 . S
C1999 H2013 0.961 . S
C1999 H2014 0.961 . S
C1999 H2015 0.961 . S
C2000 C2001 1.370 . S
C2000 C2002 1.363 . S
C2000 H2016 0.931 . S
C2001 C2000 1.370 . S
C2001 C2005 1.408 . S
C2002 C2000 1.363 . S
C2002 C2003 1.370 . S
C2002 C2006 1.524 . S
C2003 C1995 1.503 . S
C2003 C2002 1.370 . S
C2003 C2004 1.403 . S
C2004 C2003 1.403 . S
C2004 C2005 1.404 . S
C2004 C2007 1.539 . S
C2005 C2001 1.408 . S
C2005 C2004 1.404 . S
C2005 H2017 0.930 . S
C2006 C2002 1.524 . S
C2006 H2018 0.956 . S
C2006 H2019 0.961 . S
C2006 H2020 0.961 . S
C2007 C2004 1.539 . S
C2007 H2021 0.958 . S
C2007 H2022 0.961 . S
C2007 H2023 0.960 . S
H2008 C1992 0.931 . S
H2009 C1997 0.929 . S
H2010 C1998 0.960 . S
H2011 C1998 0.962 . S
H2012 C1998 0.960 . S
H2013 C1999 0.961 . S
H2014 C1999 0.961 . S
H2015 C1999 0.961 . S
H2016 C2000 0.931 . S
H2017 C2005 0.930 . S
H2018 C2006 0.956 . S
H2019 C2006 0.961 . S
H2020 C2006 0.961 . S
H2021 C2007 0.958 . S
H2022 C2007 0.961 . S
H2023 C2007 0.960 . S
C2024 C2025 1.391 . S
C2024 C2026 1.394 . S
C2024 H2040 0.931 . S
C2025 C2024 1.391 . S
C2025 C2029 1.376 . S
C2026 C2024 1.394 . S
C2026 C2027 1.369 . S
C2026 C2030 1.531 . S
C2027 C2026 1.369 . S
C2027 C2028 1.410 . S
C2027 C2035 1.503 . S
C2028 C2027 1.410 . S
C2028 C2029 1.392 . S
C2028 C2031 1.511 . S
C2029 C2025 1.376 . S
C2029 C2028 1.392 . S
C2029 H2041 0.929 . S
C2030 C2026 1.531 . S
C2030 H2042 0.960 . S
C2030 H2043 0.962 . S
C2030 H2044 0.960 . S
C2031 C2028 1.511 . S
C2031 H2045 0.961 . S
C2031 H2046 0.961 . S
C2031 H2047 0.961 . S
C2032 C2033 1.370 . S
C2032 C2034 1.363 . S
C2032 H2048 0.931 . S
C2033 C2032 1.370 . S
C2033 C2037 1.408 . S
C2034 C2032 1.363 . S
C2034 C2035 1.370 . S
C2034 C2038 1.524 . S
C2035 C2027 1.503 . S
C2035 C2034 1.370 . S
C2035 C2036 1.403 . S
C2036 C2035 1.403 . S
C2036 C2037 1.404 . S
C2036 C2039 1.539 . S
C2037 C2033 1.408 . S
C2037 C2036 1.404 . S
C2037 H2049 0.930 . S
C2038 C2034 1.524 . S
C2038 H2050 0.956 . S
C2038 H2051 0.961 . S
C2038 H2052 0.961 . S
C2039 C2036 1.539 . S
C2039 H2053 0.958 . S
C2039 H2054 0.961 . S
C2039 H2055 0.960 . S
H2040 C2024 0.931 . S
H2041 C2029 0.929 . S
H2042 C2030 0.960 . S
H2043 C2030 0.962 . S
H2044 C2030 0.960 . S
H2045 C2031 0.961 . S
H2046 C2031 0.961 . S
H2047 C2031 0.961 . S
H2048 C2032 0.931 . S
H2049 C2037 0.930 . S
H2050 C2038 0.956 . S
H2051 C2038 0.961 . S
H2052 C2038 0.961 . S
H2053 C2039 0.958 . S
H2054 C2039 0.961 . S
H2055 C2039 0.960 . S
C2056 C2057 1.391 . S
C2056 C2058 1.394 . S
C2056 H2072 0.931 . S
C2057 C2056 1.391 . S
C2057 C2061 1.376 . S
C2058 C2056 1.394 . S
C2058 C2059 1.369 . S
C2058 C2062 1.531 . S
C2059 C2058 1.369 . S
C2059 C2060 1.410 . S
C2059 C2067 1.503 . S
C2060 C2059 1.410 . S
C2060 C2061 1.392 . S
C2060 C2063 1.511 . S
C2061 C2057 1.376 . S
C2061 C2060 1.392 . S
C2061 H2073 0.929 . S
C2062 C2058 1.531 . S
C2062 H2074 0.960 . S
C2062 H2075 0.962 . S
C2062 H2076 0.960 . S
C2063 C2060 1.511 . S
C2063 H2077 0.961 . S
C2063 H2078 0.961 . S
C2063 H2079 0.961 . S
C2064 C2065 1.370 . S
C2064 C2066 1.363 . S
C2064 H2080 0.931 . S
C2065 C2064 1.370 . S
C2065 C2069 1.408 . S
C2066 C2064 1.363 . S
C2066 C2067 1.370 . S
C2066 C2070 1.524 . S
C2067 C2059 1.503 . S
C2067 C2066 1.370 . S
C2067 C2068 1.403 . S
C2068 C2067 1.403 . S
C2068 C2069 1.404 . S
C2068 C2071 1.539 . S
C2069 C2065 1.408 . S
C2069 C2068 1.404 . S
C2069 H2081 0.930 . S
C2070 C2066 1.524 . S
C2070 H2082 0.956 . S
C2070 H2083 0.961 . S
C2070 H2084 0.961 . S
C2071 C2068 1.539 . S
C2071 H2085 0.958 . S
C2071 H2086 0.961 . S
C2071 H2087 0.960 . S
H2072 C2056 0.931 . S
H2073 C2061 0.929 . S
H2074 C2062 0.960 . S
H2075 C2062 0.962 . S
H2076 C2062 0.960 . S
H2077 C2063 0.961 . S
H2078 C2063 0.961 . S
H2079 C2063 0.961 . S
H2080 C2064 0.931 . S
H2081 C2069 0.930 . S
H2082 C2070 0.956 . S
H2083 C2070 0.961 . S
H2084 C2070 0.961 . S
H2085 C2071 0.958 . S
H2086 C2071 0.961 . S
H2087 C2071 0.960 . S
C553 C168 1.724 . S
C561 C7 1.671 . S
C585 N25 0.988 . S
C593 C99 1.125 . S
C617 C122 1.593 . S
C625 C53 1.587 . S
C649 N71 1.223 . S
C657 C145 1.292 . S
C681 N186 0.964 . S
C689 N2 0.995 . S
C713 C30 1.353 . S
C721 C214 1.339 . S
C745 N232 0.878 . S
C753 N48 1.053 . S
C777 C260 1.241 . S
C785 C76 1.231 . S
C809 N94 0.760 . S
C817 N209 0.574 . S
C841 N117 1.216 . S
C849 C237 1.358 . S
C873 N255 0.513 . S
C881 N140 0.692 . S
C905 C191 1.438 . S
C913 N163 1.318 . S
C937 C490 1.763 . S
C945 C283 1.739 . S
C969 N301 0.664 . S
C977 N508 0.762 . S
C1001 C329 1.680 . S
C1009 C536 1.684 . S
C1033 N531 0.687 . S
C1041 N347 0.793 . S
C1065 N370 0.848 . S
C1073 N485 0.820 . S
C1097 C444 1.379 . S
C1105 C398 1.376 . S
C1129 N278 1.301 . S
C1137 C375 1.312 . S
C1161 C306 1.224 . S
C1169 C421 1.275 . S
C1193 N324 1.371 . S
C1201 C352 1.412 . S
C1225 N393 0.709 . S
C1233 N462 0.805 . S
C1257 N416 0.998 . S
C1265 C513 1.035 . S
C1289 C467 1.103 . S
C1297 N439 1.014 . S
C1321 C108 2.552 . S
C1329 C16 2.414 . S
C1353 C131 1.844 . S
C1361 N35 1.848 . S
C1385 C154 2.711 . S
C1393 C62 2.619 . S
C1417 C177 2.235 . S
C1425 N81 2.254 . S
C1449 N196 2.333 . S
C1457 N265 2.417 . S
C1481 C223 2.156 . S
C1489 C200 2.215 . S
C1513 N242 2.034 . S
C1521 N219 2.164 . S
C1545 C246 1.664 . S
C1553 C269 1.604 . S
C1577 N426 2.284 . S
C1585 N173 2.218 . S
C1609 C292 2.101 . S
C1617 C85 2.236 . S
C1641 N12 2.269 . S
C1649 N311 2.245 . S
C1673 C39 2.551 . S
C1681 C338 2.449 . S
C1705 N127 2.077 . S
C1713 N449 2.133 . S
C1737 N104 1.362 . S
C1745 N357 1.406 . S
C1769 N150 1.425 . S
C1777 N380 1.487 . S
C1801 C384 2.087 . S
C1809 C407 2.211 . S
C1833 N288 1.767 . S
C1841 C430 1.679 . S
C1865 C361 1.960 . S
C1873 C315 2.150 . S
C1897 C453 2.170 . S
C1905 N334 2.343 . S
C1929 N472 2.239 . S
C1937 N541 2.135 . S
C1961 C476 2.212 . S
C1969 C499 2.385 . S
C1993 N518 2.482 . S
C2001 N495 2.420 . S
C2025 C545 1.650 . S
C2033 C522 1.586 . S
C2057 N58 2.508 . S
C2065 N403 2.454 . S
