# Generated by pormake.
# Topology uod, (4)-cn, num edge types: 1
# Building blocks:
#     Node 0, Type 0, BuildingBlock: GALJAG_clean_sbu_0, # of connection points: 4
#     Node 1, Type 0, BuildingBlock: GALJAG_clean_sbu_0, # of connection points: 4
#     Node 2, Type 0, BuildingBlock: GALJAG_clean_sbu_0, # of connection points: 4
#     Node 3, Type 0, BuildingBlock: GALJAG_clean_sbu_0, # of connection points: 4
#     Node 4, Type 0, BuildingBlock: GALJAG_clean_sbu_0, # of connection points: 4
#     Node 5, Type 0, BuildingBlock: GALJAG_clean_sbu_0, # of connection points: 4
#     Node 6, Type 0, BuildingBlock: GALJAG_clean_sbu_0, # of connection points: 4
#     Node 7, Type 0, BuildingBlock: GALJAG_clean_sbu_0, # of connection points: 4
#     Node 8, Type 0, BuildingBlock: GALJAG_clean_sbu_0, # of connection points: 4
#     Node 9, Type 0, BuildingBlock: GALJAG_clean_sbu_0, # of connection points: 4
#     Node 10, Type 0, BuildingBlock: GALJAG_clean_sbu_0, # of connection points: 4
#     Node 11, Type 0, BuildingBlock: GALJAG_clean_sbu_0, # of connection points: 4
#     Node 12, Type 0, BuildingBlock: GALJAG_clean_sbu_0, # of connection points: 4
#     Node 13, Type 0, BuildingBlock: GALJAG_clean_sbu_0, # of connection points: 4
#     Node 14, Type 0, BuildingBlock: GALJAG_clean_sbu_0, # of connection points: 4
#     Node 15, Type 0, BuildingBlock: GALJAG_clean_sbu_0, # of connection points: 4
#     Node 16, Type 0, BuildingBlock: GALJAG_clean_sbu_0, # of connection points: 4
#     Node 17, Type 0, BuildingBlock: GALJAG_clean_sbu_0, # of connection points: 4
#     Node 18, Type 0, BuildingBlock: GALJAG_clean_sbu_0, # of connection points: 4
#     Node 19, Type 0, BuildingBlock: GALJAG_clean_sbu_0, # of connection points: 4
#     Node 20, Type 0, BuildingBlock: GALJAG_clean_sbu_0, # of connection points: 4
#     Node 21, Type 0, BuildingBlock: GALJAG_clean_sbu_0, # of connection points: 4
#     Node 22, Type 0, BuildingBlock: GALJAG_clean_sbu_0, # of connection points: 4
#     Node 23, Type 0, BuildingBlock: GALJAG_clean_sbu_0, # of connection points: 4
#     Node 24, Type 0, BuildingBlock: GALJAG_clean_sbu_0, # of connection points: 4
#     Node 25, Type 0, BuildingBlock: GALJAG_clean_sbu_0, # of connection points: 4
#     Node 26, Type 0, BuildingBlock: GALJAG_clean_sbu_0, # of connection points: 4
#     Node 27, Type 0, BuildingBlock: GALJAG_clean_sbu_0, # of connection points: 4
#     Node 28, Type 0, BuildingBlock: GALJAG_clean_sbu_0, # of connection points: 4
#     Node 29, Type 0, BuildingBlock: GALJAG_clean_sbu_0, # of connection points: 4
#     Node 30, Type 0, BuildingBlock: GALJAG_clean_sbu_0, # of connection points: 4
#     Node 31, Type 0, BuildingBlock: GALJAG_clean_sbu_0, # of connection points: 4
#     Edge 32, Type (0, 0), BuildingBlock: ZUJKAS_clean_linker_0, # of connection points: 2
#     Edge 33, Type (0, 0), BuildingBlock: ZUJKAS_clean_linker_0, # of connection points: 2
#     Edge 34, Type (0, 0), BuildingBlock: ZUJKAS_clean_linker_0, # of connection points: 2
#     Edge 35, Type (0, 0), BuildingBlock: ZUJKAS_clean_linker_0, # of connection points: 2
#     Edge 36, Type (0, 0), BuildingBlock: ZUJKAS_clean_linker_0, # of connection points: 2
#     Edge 37, Type (0, 0), BuildingBlock: ZUJKAS_clean_linker_0, # of connection points: 2
#     Edge 38, Type (0, 0), BuildingBlock: ZUJKAS_clean_linker_0, # of connection points: 2
#     Edge 39, Type (0, 0), BuildingBlock: ZUJKAS_clean_linker_0, # of connection points: 2
#     Edge 40, Type (0, 0), BuildingBlock: ZUJKAS_clean_linker_0, # of connection points: 2
#     Edge 41, Type (0, 0), BuildingBlock: ZUJKAS_clean_linker_0, # of connection points: 2
#     Edge 42, Type (0, 0), BuildingBlock: ZUJKAS_clean_linker_0, # of connection points: 2
#     Edge 43, Type (0, 0), BuildingBlock: ZUJKAS_clean_linker_0, # of connection points: 2
#     Edge 44, Type (0, 0), BuildingBlock: ZUJKAS_clean_linker_0, # of connection points: 2
#     Edge 45, Type (0, 0), BuildingBlock: ZUJKAS_clean_linker_0, # of connection points: 2
#     Edge 46, Type (0, 0), BuildingBlock: ZUJKAS_clean_linker_0, # of connection points: 2
#     Edge 47, Type (0, 0), BuildingBlock: ZUJKAS_clean_linker_0, # of connection points: 2
#     Edge 48, Type (0, 0), BuildingBlock: ZUJKAS_clean_linker_0, # of connection points: 2
#     Edge 49, Type (0, 0), BuildingBlock: ZUJKAS_clean_linker_0, # of connection points: 2
#     Edge 50, Type (0, 0), BuildingBlock: ZUJKAS_clean_linker_0, # of connection points: 2
#     Edge 51, Type (0, 0), BuildingBlock: ZUJKAS_clean_linker_0, # of connection points: 2
#     Edge 52, Type (0, 0), BuildingBlock: ZUJKAS_clean_linker_0, # of connection points: 2
#     Edge 53, Type (0, 0), BuildingBlock: ZUJKAS_clean_linker_0, # of connection points: 2
#     Edge 54, Type (0, 0), BuildingBlock: ZUJKAS_clean_linker_0, # of connection points: 2
#     Edge 55, Type (0, 0), BuildingBlock: ZUJKAS_clean_linker_0, # of connection points: 2
#     Edge 56, Type (0, 0), BuildingBlock: ZUJKAS_clean_linker_0, # of connection points: 2
#     Edge 57, Type (0, 0), BuildingBlock: ZUJKAS_clean_linker_0, # of connection points: 2
#     Edge 58, Type (0, 0), BuildingBlock: ZUJKAS_clean_linker_0, # of connection points: 2
#     Edge 59, Type (0, 0), BuildingBlock: ZUJKAS_clean_linker_0, # of connection points: 2
#     Edge 60, Type (0, 0), BuildingBlock: ZUJKAS_clean_linker_0, # of connection points: 2
#     Edge 61, Type (0, 0), BuildingBlock: ZUJKAS_clean_linker_0, # of connection points: 2
#     Edge 62, Type (0, 0), BuildingBlock: ZUJKAS_clean_linker_0, # of connection points: 2
#     Edge 63, Type (0, 0), BuildingBlock: ZUJKAS_clean_linker_0, # of connection points: 2
#     Edge 64, Type (0, 0), BuildingBlock: ZUJKAS_clean_linker_0, # of connection points: 2
#     Edge 65, Type (0, 0), BuildingBlock: ZUJKAS_clean_linker_0, # of connection points: 2
#     Edge 66, Type (0, 0), BuildingBlock: ZUJKAS_clean_linker_0, # of connection points: 2
#     Edge 67, Type (0, 0), BuildingBlock: ZUJKAS_clean_linker_0, # of connection points: 2
#     Edge 68, Type (0, 0), BuildingBlock: ZUJKAS_clean_linker_0, # of connection points: 2
#     Edge 69, Type (0, 0), BuildingBlock: ZUJKAS_clean_linker_0, # of connection points: 2
#     Edge 70, Type (0, 0), BuildingBlock: ZUJKAS_clean_linker_0, # of connection points: 2
#     Edge 71, Type (0, 0), BuildingBlock: ZUJKAS_clean_linker_0, # of connection points: 2
#     Edge 72, Type (0, 0), BuildingBlock: ZUJKAS_clean_linker_0, # of connection points: 2
#     Edge 73, Type (0, 0), BuildingBlock: ZUJKAS_clean_linker_0, # of connection points: 2
#     Edge 74, Type (0, 0), BuildingBlock: ZUJKAS_clean_linker_0, # of connection points: 2
#     Edge 75, Type (0, 0), BuildingBlock: ZUJKAS_clean_linker_0, # of connection points: 2
#     Edge 76, Type (0, 0), BuildingBlock: ZUJKAS_clean_linker_0, # of connection points: 2
#     Edge 77, Type (0, 0), BuildingBlock: ZUJKAS_clean_linker_0, # of connection points: 2
#     Edge 78, Type (0, 0), BuildingBlock: ZUJKAS_clean_linker_0, # of connection points: 2
#     Edge 79, Type (0, 0), BuildingBlock: ZUJKAS_clean_linker_0, # of connection points: 2
#     Edge 80, Type (0, 0), BuildingBlock: ZUJKAS_clean_linker_0, # of connection points: 2
#     Edge 81, Type (0, 0), BuildingBlock: ZUJKAS_clean_linker_0, # of connection points: 2
#     Edge 82, Type (0, 0), BuildingBlock: ZUJKAS_clean_linker_0, # of connection points: 2
#     Edge 83, Type (0, 0), BuildingBlock: ZUJKAS_clean_linker_0, # of connection points: 2
#     Edge 84, Type (0, 0), BuildingBlock: ZUJKAS_clean_linker_0, # of connection points: 2
#     Edge 85, Type (0, 0), BuildingBlock: ZUJKAS_clean_linker_0, # of connection points: 2
#     Edge 86, Type (0, 0), BuildingBlock: ZUJKAS_clean_linker_0, # of connection points: 2
#     Edge 87, Type (0, 0), BuildingBlock: ZUJKAS_clean_linker_0, # of connection points: 2
#     Edge 88, Type (0, 0), BuildingBlock: ZUJKAS_clean_linker_0, # of connection points: 2
#     Edge 89, Type (0, 0), BuildingBlock: ZUJKAS_clean_linker_0, # of connection points: 2
#     Edge 90, Type (0, 0), BuildingBlock: ZUJKAS_clean_linker_0, # of connection points: 2
#     Edge 91, Type (0, 0), BuildingBlock: ZUJKAS_clean_linker_0, # of connection points: 2
#     Edge 92, Type (0, 0), BuildingBlock: ZUJKAS_clean_linker_0, # of connection points: 2
#     Edge 93, Type (0, 0), BuildingBlock: ZUJKAS_clean_linker_0, # of connection points: 2
#     Edge 94, Type (0, 0), BuildingBlock: ZUJKAS_clean_linker_0, # of connection points: 2
#     Edge 95, Type (0, 0), BuildingBlock: ZUJKAS_clean_linker_0, # of connection points: 2
# Relax obj value: 0.120
# Max RMSD: 0.152
# Mean RMSD: 0.152
data_MOF--net-uod--node1-GALJAG_clean_sbu_0--edge1-ZUJKAS_clean_linker_0
_symmetry_space_group_name_H-M    P1
_symmetry_Int_Tables_number       1
_symmetry_cell_setting            triclinic
loop_
_symmetry_equiv_pos_as_xyz
'x, y, z'
_cell_length_a     124.74218
_cell_length_b     36.027283
_cell_length_c     67.92624
_cell_angle_alpha  90.002575
_cell_angle_beta   89.979046
_cell_angle_gamma 89.998041
loop_
_atom_site_label
_atom_site_type_symbol
_atom_site_fract_x
_atom_site_fract_y
_atom_site_fract_z
_atom_type_partial_charge
In0 In 0.04776 0.38488 0.09144 0.0
O1 O 0.04674 0.4256 0.06561 0.0
O2 O 0.03718 0.37695 0.06451 0.0
C3 C 0.06903 0.38965 0.0984 0.0
C4 C 0.03655 0.43499 0.11257 0.0
C5 C 0.04486 0.31207 0.09844 0.0
O6 O 0.06522 0.39089 0.08116 0.0
O7 O 0.06214 0.3862 0.11187 0.0
O8 O 0.04159 0.33681 0.11018 0.0
O9 O 0.04948 0.32417 0.08321 0.0
C10 C 0.03954 0.4076 0.05669 0.0
O11 O 0.03211 0.40769 0.1043 0.0
O12 O 0.04663 0.43538 0.11126 0.0
In13 In 0.20425 0.86125 0.09502 0.0
O14 O 0.2197 0.83957 0.10919 0.0
O15 O 0.20517 0.81108 0.11508 0.0
C16 C 0.20729 0.93431 0.10092 0.0
C17 C 0.21295 0.83628 0.06113 0.0
C18 C 0.18283 0.8575 0.10069 0.0
O19 O 0.20936 0.91043 0.114 0.0
O20 O 0.20375 0.92125 0.08496 0.0
O21 O 0.18696 0.85601 0.08368 0.0
O22 O 0.1895 0.86082 0.11454 0.0
C23 C 0.2152 0.81209 0.11718 0.0
O24 O 0.2054 0.81937 0.0697 0.0
O25 O 0.21546 0.86687 0.06885 0.0
In26 In 0.04823 0.84987 0.14785 0.0
O27 O 0.04716 0.81156 0.17478 0.0
O28 O 0.0366 0.85761 0.17326 0.0
C29 C 0.0696 0.84723 0.14167 0.0
C30 C 0.03797 0.79795 0.12633 0.0
C31 C 0.04519 0.92248 0.14057 0.0
O32 O 0.06562 0.84624 0.1588 0.0
O33 O 0.06282 0.84931 0.12794 0.0
O34 O 0.04235 0.89759 0.12854 0.0
O35 O 0.04947 0.91061 0.15617 0.0
C36 C 0.03935 0.8287 0.18238 0.0
O37 O 0.03325 0.82648 0.13272 0.0
O38 O 0.04788 0.79692 0.12985 0.0
In39 In 0.20325 0.39578 0.14923 0.0
O40 O 0.20405 0.4325 0.17679 0.0
O41 O 0.2146 0.38645 0.17486 0.0
C42 C 0.18186 0.39783 0.14304 0.0
C43 C 0.21374 0.44942 0.1293 0.0
C44 C 0.2068 0.32414 0.1403 0.0
O45 O 0.18581 0.39737 0.16019 0.0
O46 O 0.18867 0.39741 0.12932 0.0
O47 O 0.20881 0.35007 0.12832 0.0
O48 O 0.20305 0.33448 0.15666 0.0
C49 C 0.21177 0.41485 0.18434 0.0
O50 O 0.21839 0.42042 0.13521 0.0
O51 O 0.20379 0.45016 0.13247 0.0
In52 In 0.95718 0.60661 0.89507 0.0
O53 O 0.95641 0.56582 0.921 0.0
O54 O 0.96581 0.61442 0.92425 0.0
C55 C 0.9366 0.60485 0.88282 0.0
C56 C 0.96925 0.55537 0.87648 0.0
C57 C 0.96122 0.67913 0.88948 0.0
O58 O 0.9391 0.60324 0.90086 0.0
O59 O 0.94446 0.6069 0.87116 0.0
O60 O 0.96568 0.65423 0.87923 0.0
O61 O 0.95479 0.66732 0.90237 0.0
C62 C 0.96298 0.58375 0.93146 0.0
O63 O 0.97331 0.58313 0.88499 0.0
O64 O 0.95915 0.55503 0.87621 0.0
In65 In 0.80294 0.12281 0.92625 0.0
O66 O 0.79896 0.12634 0.95923 0.0
O67 O 0.78624 0.11912 0.93861 0.0
C68 C 0.82437 0.12032 0.92098 0.0
C69 C 0.79932 0.19375 0.9166 0.0
C70 C 0.79775 0.05885 0.90864 0.0
O71 O 0.8202 0.11399 0.93768 0.0
O72 O 0.81775 0.12746 0.90749 0.0
O73 O 0.79618 0.09003 0.90056 0.0
O74 O 0.80188 0.06011 0.92563 0.0
C75 C 0.78894 0.12392 0.95632 0.0
O76 O 0.79647 0.16733 0.90549 0.0
O77 O 0.80404 0.18414 0.9322 0.0
In78 In 0.95651 0.1421 0.85586 0.0
O79 O 0.95644 0.18297 0.82988 0.0
O80 O 0.96568 0.13389 0.82724 0.0
C81 C 0.9357 0.1418 0.86682 0.0
C82 C 0.96773 0.19351 0.87611 0.0
C83 C 0.96076 0.06969 0.86108 0.0
O84 O 0.93854 0.14644 0.8491 0.0
O85 O 0.94334 0.1378 0.87882 0.0
O86 O 0.96508 0.09454 0.87156 0.0
O87 O 0.95436 0.08149 0.84814 0.0
C88 C 0.96308 0.16459 0.8198 0.0
O89 O 0.97215 0.16562 0.86835 0.0
O90 O 0.95766 0.19407 0.87467 0.0
In91 In 0.8046 0.62478 0.82246 0.0
O92 O 0.7996 0.61215 0.79046 0.0
O93 O 0.78778 0.61148 0.81313 0.0
C94 C 0.8261 0.63035 0.82546 0.0
C95 C 0.8027 0.56143 0.8427 0.0
C96 C 0.79891 0.69465 0.83111 0.0
O97 O 0.82162 0.62369 0.80907 0.0
O98 O 0.81972 0.635 0.83965 0.0
O99 O 0.79811 0.66834 0.84333 0.0
O100 O 0.80252 0.68561 0.81439 0.0
C101 C 0.78988 0.60666 0.79516 0.0
O102 O 0.79883 0.59164 0.84901 0.0
O103 O 0.80753 0.56355 0.82641 0.0
In104 In 0.04884 0.88312 0.59669 0.0
O105 O 0.04781 0.92315 0.57052 0.0
O106 O 0.03771 0.8758 0.57049 0.0
C107 C 0.0702 0.88593 0.60305 0.0
C108 C 0.03835 0.93431 0.61835 0.0
C109 C 0.04555 0.81059 0.60385 0.0
O110 O 0.06627 0.8873 0.58589 0.0
O111 O 0.06338 0.88325 0.61669 0.0
O112 O 0.04274 0.83557 0.61585 0.0
O113 O 0.04992 0.82231 0.58829 0.0
C114 C 0.04029 0.90576 0.56218 0.0
O115 O 0.03362 0.90677 0.61087 0.0
O116 O 0.04836 0.93461 0.61584 0.0
In117 In 0.20374 0.35664 0.59366 0.0
O118 O 0.20453 0.31516 0.56816 0.0
O119 O 0.21286 0.36608 0.56503 0.0
C120 C 0.18259 0.35233 0.60189 0.0
C121 C 0.21492 0.30603 0.61459 0.0
C122 C 0.2076 0.42891 0.60095 0.0
O123 O 0.18614 0.35023 0.58446 0.0
O124 O 0.1897 0.35648 0.61492 0.0
O125 O 0.21211 0.40326 0.61053 0.0
O126 O 0.20119 0.41806 0.5878 0.0
C127 C 0.21087 0.33451 0.55794 0.0
O128 O 0.21943 0.33108 0.60463 0.0
O129 O 0.20483 0.308 0.61491 0.0
In130 In 0.04895 0.35045 0.65765 0.0
O131 O 0.03367 0.3262 0.64398 0.0
O132 O 0.04839 0.29807 0.63922 0.0
C133 C 0.04573 0.42266 0.64958 0.0
C134 C 0.04052 0.33034 0.69273 0.0
C135 C 0.07025 0.34729 0.65061 0.0
O136 O 0.0424 0.39716 0.63836 0.0
O137 O 0.05057 0.41159 0.66479 0.0
O138 O 0.06648 0.34639 0.66792 0.0
O139 O 0.06329 0.34952 0.63719 0.0
C140 C 0.03838 0.29831 0.63681 0.0
O141 O 0.04777 0.31166 0.68436 0.0
O142 O 0.03817 0.36024 0.68415 0.0
In143 In 0.20425 0.88645 0.65557 0.0
O144 O 0.2195 0.91318 0.6433 0.0
O145 O 0.20456 0.93792 0.63623 0.0
C146 C 0.2081 0.81478 0.64687 0.0
C147 C 0.21205 0.90638 0.69117 0.0
C148 C 0.18297 0.88895 0.6484 0.0
O149 O 0.21211 0.84105 0.63699 0.0
O150 O 0.20224 0.82476 0.66105 0.0
O151 O 0.18672 0.89016 0.6657 0.0
O152 O 0.18994 0.88672 0.63497 0.0
C153 C 0.21463 0.93961 0.63507 0.0
O154 O 0.20498 0.92509 0.68235 0.0
O155 O 0.21451 0.8764 0.68276 0.0
In156 In 0.95393 0.10797 0.40706 0.0
O157 O 0.95477 0.06738 0.433 0.0
O158 O 0.96467 0.11522 0.43381 0.0
C159 C 0.93264 0.10433 0.40005 0.0
C160 C 0.96476 0.0574 0.38554 0.0
C161 C 0.95715 0.18069 0.40026 0.0
O162 O 0.93643 0.1028 0.41732 0.0
O163 O 0.93957 0.10762 0.38663 0.0
O164 O 0.96028 0.1559 0.38842 0.0
O165 O 0.95249 0.16868 0.41547 0.0
C166 C 0.96211 0.08493 0.44179 0.0
O167 O 0.96938 0.08442 0.39372 0.0
O168 O 0.9547 0.05738 0.38726 0.0
In169 In 0.79803 0.63971 0.40177 0.0
O170 O 0.79712 0.67748 0.42896 0.0
O171 O 0.78639 0.63194 0.42714 0.0
C172 C 0.81938 0.64265 0.39531 0.0
C173 C 0.78768 0.6917 0.3804 0.0
C174 C 0.79499 0.56703 0.39461 0.0
O175 O 0.81545 0.64432 0.41247 0.0
O176 O 0.81255 0.63968 0.38169 0.0
O177 O 0.79216 0.59184 0.38253 0.0
O178 O 0.79928 0.57901 0.41019 0.0
C179 C 0.78926 0.66049 0.43645 0.0
O180 O 0.78294 0.66363 0.38727 0.0
O181 O 0.79764 0.69229 0.38338 0.0
In182 In 0.95368 0.64017 0.34482 0.0
O183 O 0.96873 0.6651 0.35903 0.0
O184 O 0.95396 0.69355 0.36246 0.0
C185 C 0.95682 0.56818 0.35358 0.0
C186 C 0.96238 0.65927 0.3098 0.0
C187 C 0.93233 0.6433 0.35122 0.0
O188 O 0.9599 0.59403 0.36482 0.0
O189 O 0.95227 0.57878 0.33798 0.0
O190 O 0.93625 0.64361 0.33403 0.0
O191 O 0.93916 0.64157 0.36488 0.0
C192 C 0.96391 0.69334 0.36553 0.0
O193 O 0.95471 0.67715 0.31738 0.0
O194 O 0.96507 0.6306 0.31919 0.0
In195 In 0.799 0.1052 0.34442 0.0
O196 O 0.79837 0.06483 0.31838 0.0
O197 O 0.78887 0.11359 0.31695 0.0
C198 C 0.82022 0.1009 0.352 0.0
C199 C 0.78758 0.05475 0.36497 0.0
C200 C 0.79581 0.17779 0.35182 0.0
O201 O 0.81656 0.1002 0.33464 0.0
O202 O 0.81319 0.10347 0.36529 0.0
O203 O 0.79242 0.15265 0.36319 0.0
O204 O 0.8007 0.16621 0.33677 0.0
C205 C 0.79136 0.08307 0.30911 0.0
O206 O 0.78322 0.08174 0.35628 0.0
O207 O 0.79767 0.05466 0.36428 0.0
In208 In 0.54938 0.39182 0.58624 0.0
O209 O 0.546 0.39921 0.5532 0.0
O210 O 0.53317 0.38376 0.57216 0.0
C211 C 0.57084 0.39354 0.59069 0.0
C212 C 0.54357 0.45991 0.59815 0.0
C213 C 0.54623 0.32452 0.60203 0.0
O214 O 0.56652 0.38735 0.57413 0.0
O215 O 0.56433 0.39901 0.60463 0.0
O216 O 0.54379 0.35401 0.61113 0.0
O217 O 0.55012 0.32924 0.58504 0.0
C218 C 0.53608 0.39253 0.55501 0.0
O219 O 0.54005 0.43103 0.60656 0.0
O220 O 0.55019 0.45412 0.58445 0.0
In221 In 0.70518 0.85182 0.60089 0.0
O222 O 0.7054 0.81703 0.57256 0.0
O223 O 0.71691 0.85996 0.57573 0.0
C224 C 0.68401 0.85085 0.60908 0.0
C225 C 0.71537 0.79686 0.62027 0.0
C226 C 0.70855 0.92411 0.60832 0.0
O227 O 0.68751 0.8481 0.59164 0.0
O228 O 0.69117 0.8537 0.62213 0.0
O229 O 0.71153 0.89896 0.6201 0.0
O230 O 0.704 0.9126 0.59288 0.0
C231 C 0.71357 0.83305 0.5656 0.0
O232 O 0.72008 0.82642 0.61536 0.0
O233 O 0.70547 0.79642 0.61664 0.0
In234 In 0.55054 0.87375 0.66411 0.0
O235 O 0.54888 0.82645 0.68635 0.0
O236 O 0.54099 0.87727 0.69263 0.0
C237 C 0.57198 0.87147 0.6581 0.0
C238 C 0.54011 0.8287 0.63879 0.0
C239 C 0.54624 0.94669 0.66098 0.0
O240 O 0.56778 0.86079 0.67408 0.0
O241 O 0.5654 0.88343 0.64554 0.0
O242 O 0.54297 0.92319 0.64855 0.0
O243 O 0.55161 0.93332 0.67503 0.0
C244 C 0.54257 0.84395 0.69753 0.0
O245 O 0.53525 0.84906 0.65095 0.0
O246 O 0.55014 0.83267 0.63869 0.0
In247 In 0.70514 0.39025 0.64099 0.0
O248 O 0.7137 0.39179 0.6707 0.0
O249 O 0.70582 0.44082 0.66116 0.0
C250 C 0.6839 0.39205 0.63298 0.0
C251 C 0.71748 0.43371 0.61803 0.0
C252 C 0.70901 0.31677 0.63932 0.0
O253 O 0.68753 0.39664 0.65017 0.0
O254 O 0.69096 0.38681 0.61998 0.0
O255 O 0.71172 0.33869 0.62569 0.0
O256 O 0.70446 0.33202 0.65381 0.0
C257 C 0.71181 0.42571 0.67378 0.0
O258 O 0.72138 0.40904 0.62911 0.0
O259 O 0.70737 0.43398 0.6173 0.0
In260 In 0.45333 0.59876 0.39622 0.0
O261 O 0.4532 0.55322 0.41959 0.0
O262 O 0.46311 0.6002 0.42453 0.0
C263 C 0.43203 0.59612 0.38919 0.0
C264 C 0.46518 0.55135 0.3745 0.0
C265 C 0.45693 0.67207 0.39165 0.0
O266 O 0.43586 0.59529 0.40641 0.0
O267 O 0.43894 0.59809 0.37565 0.0
O268 O 0.45957 0.64852 0.37875 0.0
O269 O 0.45261 0.65854 0.40682 0.0
C270 C 0.4602 0.56848 0.43029 0.0
O271 O 0.46933 0.57709 0.38451 0.0
O272 O 0.45507 0.55149 0.37427 0.0
In273 In 0.29859 0.14221 0.40228 0.0
O274 O 0.2829 0.16497 0.38972 0.0
O275 O 0.29737 0.19245 0.38218 0.0
C276 C 0.29556 0.06947 0.39513 0.0
C277 C 0.29044 0.16491 0.43709 0.0
C278 C 0.31991 0.14679 0.39566 0.0
O279 O 0.29231 0.09436 0.38346 0.0
O280 O 0.30024 0.08139 0.41032 0.0
O281 O 0.316 0.14775 0.41284 0.0
O282 O 0.31307 0.14385 0.38206 0.0
C283 C 0.28729 0.19207 0.38116 0.0
O284 O 0.2974 0.18344 0.42785 0.0
O285 O 0.28828 0.13384 0.42954 0.0
In286 In 0.45447 0.1369 0.34873 0.0
O287 O 0.46538 0.12883 0.32226 0.0
O288 O 0.45536 0.17641 0.32236 0.0
C289 C 0.43314 0.14212 0.35487 0.0
C290 C 0.4656 0.18797 0.36942 0.0
C291 C 0.45731 0.06406 0.35603 0.0
O292 O 0.43715 0.14246 0.33776 0.0
O293 O 0.43988 0.13927 0.36864 0.0
O294 O 0.4603 0.08885 0.368 0.0
O295 O 0.45297 0.07614 0.34053 0.0
C296 C 0.46279 0.15873 0.3139 0.0
O297 O 0.47007 0.16053 0.36134 0.0
O298 O 0.45552 0.18802 0.36824 0.0
In299 In 0.29704 0.60658 0.34712 0.0
O300 O 0.29571 0.56734 0.32066 0.0
O301 O 0.28556 0.61459 0.32153 0.0
C302 C 0.31848 0.6025 0.35205 0.0
C303 C 0.28655 0.55556 0.36894 0.0
C304 C 0.29422 0.67939 0.35435 0.0
O305 O 0.31418 0.60113 0.33519 0.0
O306 O 0.31196 0.60571 0.36616 0.0
O307 O 0.29147 0.65469 0.36656 0.0
O308 O 0.29829 0.66723 0.33862 0.0
C309 C 0.2881 0.58501 0.31278 0.0
O310 O 0.28183 0.58286 0.36122 0.0
O311 O 0.29657 0.55545 0.36667 0.0
In312 In 0.54907 0.89594 0.10223 0.0
O313 O 0.53444 0.91961 0.11838 0.0
O314 O 0.54901 0.94988 0.11949 0.0
C315 C 0.54622 0.82343 0.11014 0.0
C316 C 0.53941 0.91596 0.06826 0.0
C317 C 0.57057 0.89871 0.10669 0.0
O318 O 0.54433 0.84844 0.12272 0.0
O319 O 0.54949 0.83511 0.09369 0.0
O320 O 0.5662 0.89885 0.08987 0.0
O321 O 0.5641 0.89734 0.12096 0.0
C322 C 0.53922 0.94859 0.12397 0.0
O323 O 0.54769 0.93229 0.07457 0.0
O324 O 0.53651 0.88849 0.07841 0.0
In325 In 0.70491 0.35008 0.10455 0.0
O326 O 0.72092 0.32937 0.11657 0.0
O327 O 0.70673 0.30299 0.12657 0.0
C328 C 0.70843 0.4236 0.10817 0.0
C329 C 0.71194 0.31786 0.07111 0.0
C330 C 0.68364 0.34783 0.11188 0.0
O331 O 0.71088 0.40074 0.12153 0.0
O332 O 0.70433 0.40927 0.09298 0.0
O333 O 0.6874 0.34649 0.09461 0.0
O334 O 0.69061 0.35008 0.1253 0.0
C335 C 0.71684 0.30329 0.12642 0.0
O336 O 0.70459 0.30389 0.08152 0.0
O337 O 0.71503 0.34951 0.07666 0.0
In338 In 0.54905 0.36028 0.15791 0.0
O339 O 0.53312 0.33803 0.14611 0.0
O340 O 0.54741 0.31047 0.13759 0.0
C341 C 0.54628 0.4331 0.15049 0.0
C342 C 0.54091 0.33679 0.19252 0.0
C343 C 0.57042 0.35432 0.15227 0.0
O344 O 0.54409 0.40839 0.13794 0.0
O345 O 0.54978 0.42099 0.16668 0.0
O346 O 0.56632 0.35552 0.16929 0.0
O347 O 0.56375 0.35595 0.13835 0.0
C348 C 0.53731 0.31098 0.1372 0.0
O349 O 0.54816 0.31912 0.18352 0.0
O350 O 0.53844 0.36746 0.18481 0.0
In351 In 0.70554 0.88892 0.14977 0.0
O352 O 0.72109 0.91249 0.13693 0.0
O353 O 0.70654 0.94033 0.13046 0.0
C354 C 0.70832 0.81612 0.14227 0.0
C355 C 0.7139 0.91002 0.18471 0.0
C356 C 0.6842 0.89399 0.1436 0.0
O357 O 0.71148 0.84102 0.13051 0.0
O358 O 0.70387 0.82807 0.15769 0.0
O359 O 0.68822 0.89508 0.16069 0.0
O360 O 0.69093 0.89054 0.12986 0.0
C361 C 0.71661 0.94012 0.12905 0.0
O362 O 0.70657 0.92816 0.17625 0.0
O363 O 0.71638 0.88006 0.17628 0.0
In364 In 0.45426 0.09687 0.90168 0.0
O365 O 0.45526 0.06171 0.92979 0.0
O366 O 0.46599 0.10701 0.92667 0.0
C367 C 0.43288 0.09441 0.89571 0.0
C368 C 0.46435 0.04302 0.88113 0.0
C369 C 0.45732 0.16893 0.89302 0.0
O370 O 0.43694 0.09106 0.91269 0.0
O371 O 0.43959 0.09867 0.88199 0.0
O372 O 0.4603 0.1432 0.88161 0.0
O373 O 0.45291 0.15816 0.90875 0.0
C374 C 0.46314 0.07935 0.93674 0.0
O375 O 0.46919 0.07138 0.88738 0.0
O376 O 0.4544 0.043 0.88427 0.0
In377 In 0.29949 0.641 0.90386 0.0
O378 O 0.29872 0.67878 0.93096 0.0
O379 O 0.28869 0.63122 0.93031 0.0
C380 C 0.32078 0.64553 0.89713 0.0
C381 C 0.28842 0.69336 0.88401 0.0
C382 C 0.29648 0.56883 0.89517 0.0
O383 O 0.31694 0.64492 0.91437 0.0
O384 O 0.31389 0.64412 0.88355 0.0
O385 O 0.29339 0.59451 0.88384 0.0
O386 O 0.30096 0.57968 0.91078 0.0
C387 C 0.29132 0.66055 0.9392 0.0
O388 O 0.28392 0.66543 0.89155 0.0
O389 O 0.29849 0.69349 0.88542 0.0
In390 In 0.4548 0.63147 0.84515 0.0
O391 O 0.47071 0.65345 0.85719 0.0
O392 O 0.45634 0.67884 0.86706 0.0
C393 C 0.45786 0.55817 0.85057 0.0
C394 C 0.46264 0.65774 0.81081 0.0
C395 C 0.43352 0.6367 0.85207 0.0
O396 O 0.46107 0.58208 0.86282 0.0
O397 O 0.45319 0.57132 0.83564 0.0
O398 O 0.43739 0.63883 0.83489 0.0
O399 O 0.44037 0.63207 0.8655 0.0
C400 C 0.46644 0.67904 0.86714 0.0
O401 O 0.46475 0.62573 0.81721 0.0
O402 O 0.45586 0.67546 0.82093 0.0
In403 In 0.29842 0.1055 0.84876 0.0
O404 O 0.29722 0.06334 0.82359 0.0
O405 O 0.28763 0.11188 0.82201 0.0
C406 C 0.31977 0.10167 0.85507 0.0
C407 C 0.28752 0.05697 0.87152 0.0
C408 C 0.29548 0.17886 0.85387 0.0
O409 O 0.31571 0.09571 0.8383 0.0
O410 O 0.31309 0.10937 0.8684 0.0
O411 O 0.29231 0.15518 0.8663 0.0
O412 O 0.30003 0.16543 0.83888 0.0
C413 C 0.28996 0.08086 0.81457 0.0
O414 O 0.28295 0.08318 0.86254 0.0
O415 O 0.29758 0.0569 0.87007 0.0
H416 H 0.01653 0.78253 0.12915 0.0
H417 H 0.0082 0.72129 0.12492 0.0
H418 H 0.03825 0.6778 0.10352 0.0
H419 H 0.04653 0.73856 0.10755 0.0
H420 H 0.01961 0.64718 0.08482 0.0
H421 H 0.01756 0.64428 0.16689 0.0
H422 H 0.01069 0.68068 0.15387 0.0
H423 H 0.02507 0.67955 0.15406 0.0
C424 C 0.02124 0.76017 0.12291 0.0
C425 C 0.03221 0.76507 0.11891 0.0
C426 C 0.01649 0.7252 0.12063 0.0
C427 C 0.02267 0.69494 0.11427 0.0
C428 C 0.03334 0.70079 0.10852 0.0
H429 H 0.04414 0.49246 0.13423 0.0
H430 H 0.03624 0.55413 0.13658 0.0
C431 C 0.03808 0.73552 0.11085 0.0
C432 C 0.01881 0.65626 0.11606 0.0
H433 H 0.01709 0.58747 0.15045 0.0
C434 C 0.01867 0.63408 0.0991 0.0
C435 C 0.0176 0.63946 0.13477 0.0
C436 C 0.01776 0.662 0.15351 0.0
C437 C 0.01842 0.59521 0.10042 0.0
C438 C 0.01821 0.57833 0.11925 0.0
C439 C 0.01725 0.60061 0.13609 0.0
C440 C 0.02147 0.53915 0.12186 0.0
C441 C 0.01947 0.57259 0.08179 0.0
C442 C 0.01551 0.50976 0.11387 0.0
C443 C 0.02003 0.47428 0.11255 0.0
C444 C 0.03056 0.46798 0.11918 0.0
C445 C 0.03605 0.49659 0.12891 0.0
C446 C 0.03153 0.53185 0.13026 0.0
H447 H 0.02044 0.59027 0.06851 0.0
H448 H 0.02648 0.55367 0.08282 0.0
H449 H 0.01219 0.5553 0.0798 0.0
H450 H 0.00766 0.51476 0.10758 0.0
H451 H 0.01562 0.45267 0.10497 0.0
H452 H 0.23631 0.79517 0.11088 0.0
H453 H 0.24437 0.73331 0.11396 0.0
H454 H 0.21543 0.69324 0.14148 0.0
H455 H 0.20743 0.75468 0.13867 0.0
H456 H 0.23441 0.65987 0.15613 0.0
H457 H 0.23223 0.65821 0.07403 0.0
H458 H 0.24029 0.69304 0.08587 0.0
H459 H 0.22597 0.69459 0.08817 0.0
C460 C 0.23184 0.77347 0.11827 0.0
C461 C 0.22119 0.77948 0.1243 0.0
C462 C 0.23642 0.73811 0.11985 0.0
C463 C 0.2304 0.70857 0.12752 0.0
C464 C 0.2202 0.71564 0.13542 0.0
H465 H 0.20538 0.50987 0.11119 0.0
H466 H 0.21375 0.57073 0.10817 0.0
C467 C 0.21563 0.75077 0.1338 0.0
C468 C 0.23373 0.66945 0.12492 0.0
H469 H 0.23274 0.60109 0.09017 0.0
C470 C 0.23444 0.64693 0.14171 0.0
C471 C 0.23376 0.65283 0.10602 0.0
C472 C 0.23299 0.6757 0.08743 0.0
C473 C 0.23408 0.6081 0.14021 0.0
C474 C 0.2331 0.59158 0.12139 0.0
C475 C 0.2335 0.61399 0.10453 0.0
C476 C 0.22919 0.55303 0.11928 0.0
C477 C 0.23367 0.58527 0.15884 0.0
C478 C 0.23527 0.5225 0.12557 0.0
C479 C 0.23049 0.48747 0.12724 0.0
C480 C 0.21956 0.48278 0.12272 0.0
C481 C 0.21379 0.51273 0.11486 0.0
C482 C 0.21857 0.54751 0.11311 0.0
H483 H 0.23379 0.60277 0.17231 0.0
H484 H 0.2263 0.56799 0.15906 0.0
H485 H 0.24067 0.5663 0.15934 0.0
H486 H 0.24351 0.52618 0.13019 0.0
H487 H 0.23512 0.46481 0.13338 0.0
H488 H 0.98882 0.2095 0.86919 0.0
H489 H 0.99721 0.2708 0.87183 0.0
H490 H 0.9685 0.31354 0.89904 0.0
H491 H 0.96015 0.25268 0.89656 0.0
H492 H 0.98879 0.32807 0.85147 0.0
H493 H 0.99124 0.36889 0.9294 0.0
H494 H 0.99012 0.3209 0.92186 0.0
H495 H 0.97831 0.34938 0.92447 0.0
C496 C 0.98447 0.23164 0.87646 0.0
C497 C 0.9738 0.22646 0.88258 0.0
C498 C 0.98927 0.26666 0.8779 0.0
C499 C 0.98353 0.29672 0.88576 0.0
C500 C 0.9732 0.29066 0.89332 0.0
H501 H 0.96288 0.49715 0.854 0.0
H502 H 0.97084 0.43547 0.85365 0.0
C503 C 0.96839 0.25586 0.89178 0.0
C504 C 0.98728 0.33537 0.88288 0.0
H505 H 0.987 0.41918 0.90607 0.0
C506 C 0.98877 0.3479 0.86348 0.0
C507 C 0.9875 0.36125 0.89851 0.0
C508 C 0.98682 0.34926 0.91974 0.0
C509 C 0.9892 0.38594 0.85916 0.0
C510 C 0.98796 0.41189 0.87458 0.0
C511 C 0.98777 0.3993 0.89415 0.0
C512 C 0.98481 0.45088 0.87075 0.0
C513 C 0.99034 0.39792 0.83799 0.0
C514 C 0.99014 0.48039 0.88003 0.0
C515 C 0.98558 0.51588 0.88019 0.0
C516 C 0.97554 0.52207 0.87137 0.0
C517 C 0.97064 0.49319 0.86084 0.0
C518 C 0.97523 0.45791 0.86054 0.0
H519 H 0.9953 0.3778 0.82959 0.0
H520 H 0.98229 0.39869 0.83102 0.0
H521 H 0.99401 0.4259 0.83681 0.0
H522 H 0.99748 0.47548 0.88814 0.0
H523 H 0.98948 0.53759 0.88858 0.0
H524 H 0.79121 0.54742 0.87625 0.0
H525 H 0.78921 0.48743 0.89308 0.0
H526 H 0.80947 0.43586 0.84948 0.0
H527 H 0.81153 0.49527 0.8327 0.0
H528 H 0.78129 0.418 0.87592 0.0
H529 H 0.82303 0.40821 0.90358 0.0
H530 H 0.81706 0.45152 0.89585 0.0
H531 H 0.8221 0.41935 0.87786 0.0
C532 C 0.79527 0.52328 0.87036 0.0
C533 C 0.80156 0.52595 0.85324 0.0
C534 C 0.7941 0.48915 0.87993 0.0
C535 C 0.7993 0.45753 0.87259 0.0
C536 C 0.80553 0.46016 0.85549 0.0
H537 H 0.79196 0.22305 0.88202 0.0
H538 H 0.79059 0.28893 0.87345 0.0
C539 C 0.80667 0.49408 0.8459 0.0
C540 C 0.79815 0.42131 0.88243 0.0
H541 H 0.81289 0.35198 0.90312 0.0
C542 C 0.78814 0.40366 0.88215 0.0
C543 C 0.80709 0.40306 0.89073 0.0
C544 C 0.81791 0.4216 0.89223 0.0
C545 C 0.78694 0.36725 0.88916 0.0
C546 C 0.79605 0.34817 0.89632 0.0
C547 C 0.80594 0.36657 0.89744 0.0
C548 C 0.79568 0.30867 0.90208 0.0
C549 C 0.776 0.34949 0.8887 0.0
C550 C 0.79908 0.29804 0.92092 0.0
C551 C 0.8 0.26059 0.92572 0.0
C552 C 0.79756 0.2331 0.91175 0.0
C553 C 0.79386 0.24371 0.89306 0.0
C554 C 0.79299 0.28128 0.88822 0.0
H555 H 0.76953 0.37069 0.88852 0.0
H556 H 0.77524 0.33256 0.87512 0.0
H557 H 0.77479 0.33098 0.90158 0.0
H558 H 0.80124 0.31878 0.93176 0.0
H559 H 0.80282 0.2532 0.94029 0.0
H560 H 0.01716 0.95193 0.61366 0.0
H561 H 0.00919 0.0137 0.61805 0.0
H562 H 0.03885 0.05298 0.64317 0.0
H563 H 0.04677 0.99166 0.63902 0.0
H564 H 0.02001 0.08442 0.66042 0.0
H565 H 0.02032 0.09199 0.57835 0.0
H566 H 0.01276 0.05567 0.59009 0.0
H567 H 0.02713 0.05522 0.59131 0.0
C568 C 0.02183 0.97345 0.62075 0.0
C569 C 0.03263 0.96724 0.62578 0.0
C570 C 0.0173 0.00873 0.6231 0.0
C571 C 0.02351 0.038 0.63056 0.0
C572 C 0.03393 0.03077 0.63732 0.0
H573 H 0.04671 0.24063 0.61627 0.0
H574 H 0.03878 0.17923 0.61249 0.0
C575 C 0.03846 0.99573 0.63491 0.0
C576 C 0.02001 0.07712 0.62902 0.0
H577 H 0.01973 0.14792 0.59564 0.0
C578 C 0.01956 0.09837 0.6463 0.0
C579 C 0.01945 0.09505 0.6105 0.0
C580 C 0.01997 0.07353 0.59144 0.0
C581 C 0.01962 0.13729 0.64557 0.0
C582 C 0.02002 0.15521 0.62703 0.0
C583 C 0.0194 0.13397 0.60978 0.0
C584 C 0.02352 0.19431 0.62539 0.0
C585 C 0.02032 0.15882 0.6646 0.0
C586 C 0.01735 0.22363 0.63292 0.0
C587 C 0.02188 0.25897 0.63504 0.0
C588 C 0.03264 0.26516 0.62973 0.0
C589 C 0.03843 0.23657 0.62059 0.0
C590 C 0.0339 0.20149 0.6184 0.0
H591 H 0.02075 0.14037 0.67768 0.0
H592 H 0.02752 0.17698 0.66451 0.0
H593 H 0.01316 0.17684 0.66615 0.0
H594 H 0.00927 0.21869 0.63817 0.0
H595 H 0.01724 0.28056 0.64215 0.0
H596 H 0.20622 0.99479 0.61268 0.0
H597 H 0.21365 0.05667 0.60791 0.0
H598 H 0.24267 0.02355 0.63763 0.0
H599 H 0.23523 0.96121 0.64247 0.0
H600 H 0.23282 0.0839 0.65473 0.0
H601 H 0.23655 0.10748 0.57482 0.0
H602 H 0.22384 0.08695 0.58058 0.0
H603 H 0.23599 0.06146 0.58539 0.0
C604 C 0.21432 0.00028 0.6176 0.0
C605 C 0.22013 0.97327 0.62798 0.0
C606 C 0.2186 0.03563 0.61477 0.0
C607 C 0.22876 0.04463 0.62226 0.0
C608 C 0.23486 0.01703 0.63159 0.0
H609 H 0.23522 0.28376 0.6053 0.0
H610 H 0.24268 0.2215 0.61012 0.0
C611 C 0.23061 0.98144 0.63427 0.0
C612 C 0.23205 0.08408 0.62301 0.0
H613 H 0.23206 0.16205 0.59467 0.0
C614 C 0.233 0.10095 0.64157 0.0
C615 C 0.23249 0.10626 0.60588 0.0
C616 C 0.23228 0.08948 0.58555 0.0
C617 C 0.23322 0.13971 0.64348 0.0
C618 C 0.23235 0.16194 0.62642 0.0
C619 C 0.23258 0.14501 0.6078 0.0
C620 C 0.22932 0.20163 0.62748 0.0
C621 C 0.23381 0.15646 0.66379 0.0
C622 C 0.21951 0.21142 0.63618 0.0
C623 C 0.21522 0.24677 0.63339 0.0
C624 C 0.22066 0.27296 0.62181 0.0
C625 C 0.23088 0.26417 0.6144 0.0
C626 C 0.23514 0.2286 0.61708 0.0
H627 H 0.23839 0.13824 0.67396 0.0
H628 H 0.23763 0.18431 0.66349 0.0
H629 H 0.22558 0.15935 0.6698 0.0
H630 H 0.21476 0.19087 0.6439 0.0
H631 H 0.20732 0.25275 0.63921 0.0
H632 H 0.95667 0.00112 0.36362 0.0
H633 H 0.96447 0.93958 0.35964 0.0
H634 H 0.99361 0.97683 0.38752 0.0
H635 H 0.98576 0.03881 0.39174 0.0
H636 H 0.98356 0.90748 0.34382 0.0
H637 H 0.9812 0.89836 0.42574 0.0
H638 H 0.97489 0.93577 0.41245 0.0
H639 H 0.98921 0.93447 0.41487 0.0
C640 C 0.96486 0.99658 0.36837 0.0
C641 C 0.97055 0.02453 0.37823 0.0
C642 C 0.96932 0.9614 0.36607 0.0
C643 C 0.97953 0.95352 0.37364 0.0
C644 C 0.98566 0.9823 0.38183 0.0
H645 H 0.98519 0.71061 0.36177 0.0
H646 H 0.99323 0.77224 0.36641 0.0
C647 C 0.98119 0.01771 0.38409 0.0
C648 C 0.98283 0.91419 0.37524 0.0
H649 H 0.98199 0.84275 0.40821 0.0
C650 C 0.98361 0.89325 0.35789 0.0
C651 C 0.98286 0.89589 0.39369 0.0
C652 C 0.98196 0.91705 0.41281 0.0
C653 C 0.98337 0.85432 0.3584 0.0
C654 C 0.98244 0.83608 0.37678 0.0
C655 C 0.98272 0.85695 0.39419 0.0
C656 C 0.97874 0.79714 0.37791 0.0
C657 C 0.98305 0.83317 0.33922 0.0
C658 C 0.96816 0.79038 0.38392 0.0
C659 C 0.96358 0.75545 0.38134 0.0
C660 C 0.96954 0.72659 0.3728 0.0
C661 C 0.98043 0.73242 0.36841 0.0
C662 C 0.98501 0.76761 0.37091 0.0
H663 H 0.98307 0.85186 0.32621 0.0
H664 H 0.99014 0.81467 0.33822 0.0
H665 H 0.97576 0.81551 0.33858 0.0
H666 H 0.9632 0.81281 0.3894 0.0
H667 H 0.95519 0.75169 0.38494 0.0
H668 H 0.76671 0.7103 0.38636 0.0
H669 H 0.7588 0.77204 0.38178 0.0
H670 H 0.78803 0.80942 0.35423 0.0
H671 H 0.79594 0.7482 0.35883 0.0
H672 H 0.76813 0.8319 0.40057 0.0
H673 H 0.76526 0.86108 0.32108 0.0
H674 H 0.76582 0.81434 0.33075 0.0
H675 H 0.77796 0.84047 0.32687 0.0
C676 C 0.77127 0.73132 0.37863 0.0
C677 C 0.78195 0.72462 0.37299 0.0
C678 C 0.76676 0.76657 0.3761 0.0
C679 C 0.77279 0.79522 0.36752 0.0
C680 C 0.78314 0.78757 0.36051 0.0
H681 H 0.79467 -0.00074 0.38865 0.0
H682 H 0.7867 0.93787 0.39213 0.0
C683 C 0.78769 0.7526 0.36324 0.0
C684 C 0.76926 0.83435 0.3689 0.0
H685 H 0.76961 0.91431 0.34217 0.0
C686 C 0.76808 0.84987 0.38775 0.0
C687 C 0.76899 0.85775 0.35222 0.0
C688 C 0.76946 0.84243 0.33159 0.0
C689 C 0.76788 0.88846 0.39044 0.0
C690 C 0.76899 0.91189 0.37389 0.0
C691 C 0.76891 0.89634 0.35492 0.0
C692 C 0.77227 0.9512 0.37587 0.0
C693 C 0.76715 0.90377 0.41105 0.0
C694 C 0.76668 0.97945 0.36602 0.0
C695 C 0.77123 0.01478 0.3641 0.0
C696 C 0.78151 0.02199 0.37167 0.0
C697 C 0.78672 0.99448 0.38273 0.0
C698 C 0.78214 0.95941 0.38482 0.0
H699 H 0.76244 0.88496 0.42071 0.0
H700 H 0.77533 0.90602 0.41734 0.0
H701 H 0.7634 0.93173 0.4112 0.0
H702 H 0.75911 0.97356 0.35886 0.0
H703 H 0.76708 0.03541 0.35537 0.0
H704 H 0.54814 0.7874 0.60876 0.0
H705 H 0.54205 0.72587 0.59888 0.0
H706 H 0.51455 0.73625 0.63702 0.0
H707 H 0.5206 0.79818 0.64692 0.0
H708 H 0.52826 0.67769 0.64635 0.0
H709 H 0.51842 0.67426 0.56714 0.0
H710 H 0.53054 0.69961 0.57178 0.0
H711 H 0.51803 0.71651 0.5815 0.0
C712 C 0.54057 0.7772 0.61444 0.0
C713 C 0.53489 0.79736 0.6287 0.0
C714 C 0.53706 0.7421 0.6087 0.0
C715 C 0.52782 0.72659 0.61716 0.0
C716 C 0.52165 0.74791 0.63022 0.0
H717 H 0.52632 0.48051 0.62074 0.0
H718 H 0.51955 0.54385 0.62593 0.0
C719 C 0.52511 0.78329 0.63581 0.0
C720 C 0.52599 0.68621 0.61525 0.0
H721 H 0.52576 0.61725 0.58095 0.0
C722 C 0.52737 0.66427 0.63215 0.0
C723 C 0.52482 0.66896 0.59673 0.0
C724 C 0.52276 0.69111 0.57829 0.0
C725 C 0.5287 0.6257 0.63076 0.0
C726 C 0.52842 0.60877 0.61199 0.0
C727 C 0.52608 0.63038 0.59531 0.0
C728 C 0.53211 0.57019 0.60894 0.0
C729 C 0.53129 0.60391 0.64913 0.0
C730 C 0.54134 0.56412 0.59759 0.0
C731 C 0.54514 0.52828 0.59453 0.0
C732 C 0.53983 0.4977 0.60282 0.0
C733 C 0.53063 0.50368 0.61437 0.0
C734 C 0.52676 0.53975 0.61732 0.0
H735 H 0.53276 0.6222 0.66203 0.0
H736 H 0.52448 0.58533 0.65272 0.0
H737 H 0.53849 0.58635 0.64677 0.0
H738 H 0.54563 0.58725 0.59111 0.0
H739 H 0.55224 0.52453 0.58554 0.0
H740 H 0.73679 0.78191 0.6162 0.0
H741 H 0.74507 0.72008 0.6167 0.0
H742 H 0.71506 0.67274 0.63586 0.0
H743 H 0.70684 0.73406 0.63562 0.0
H744 H 0.73316 0.63912 0.65289 0.0
H745 H 0.73652 0.65046 0.5712 0.0
H746 H 0.74334 0.68419 0.58615 0.0
H747 H 0.72896 0.6837 0.5854 0.0
C748 C 0.73208 0.75844 0.62116 0.0
C749 C 0.72114 0.76263 0.62569 0.0
C750 C 0.73679 0.72314 0.62124 0.0
C751 C 0.7306 0.6918 0.62589 0.0
C752 C 0.71997 0.69655 0.63213 0.0
H753 H 0.71075 0.49081 0.595 0.0
H754 H 0.71851 0.55279 0.59456 0.0
C755 C 0.71527 0.73162 0.632 0.0
C756 C 0.73452 0.6536 0.62231 0.0
H757 H 0.73723 0.59106 0.58487 0.0
C758 C 0.73441 0.62857 0.63811 0.0
C759 C 0.73612 0.64014 0.60294 0.0
C760 C 0.73622 0.66582 0.58537 0.0
C761 C 0.73478 0.59012 0.63494 0.0
C762 C 0.73554 0.5765 0.6154 0.0
C763 C 0.73669 0.60167 0.59978 0.0
C764 C 0.73279 0.53746 0.61077 0.0
C765 C 0.73329 0.56454 0.65235 0.0
C766 C 0.73863 0.5077 0.61869 0.0
C767 C 0.73415 0.47208 0.61902 0.0
C768 C 0.72382 0.46594 0.61136 0.0
C769 C 0.71867 0.49477 0.60118 0.0
C770 C 0.72311 0.53028 0.60093 0.0
H771 H 0.73157 0.57996 0.66616 0.0
H772 H 0.72658 0.54493 0.6496 0.0
H773 H 0.74069 0.54803 0.65466 0.0
H774 H 0.74622 0.51254 0.62596 0.0
H775 H 0.73835 0.4503 0.62686 0.0
H776 H 0.48585 0.5334 0.38372 0.0
H777 H 0.4939 0.47162 0.38117 0.0
H778 H 0.46623 0.43333 0.34893 0.0
H779 H 0.45823 0.49478 0.3513 0.0
H780 H 0.4841 0.41465 0.39938 0.0
H781 H 0.48981 0.37666 0.32159 0.0
H782 H 0.48865 0.42442 0.3295 0.0
H783 H 0.47682 0.39702 0.32484 0.0
C784 C 0.4817 0.51222 0.37535 0.0
C785 C 0.47137 0.51878 0.36782 0.0
C786 C 0.4863 0.47689 0.37398 0.0
C787 C 0.4807 0.44786 0.36479 0.0
C788 C 0.47082 0.4554 0.35574 0.0
H789 H 0.45811 0.24564 0.39118 0.0
H790 H 0.46594 0.30744 0.39319 0.0
C791 C 0.4662 0.49056 0.3572 0.0
C792 C 0.48398 0.4087 0.36776 0.0
H793 H 0.48436 0.3258 0.34364 0.0
C794 C 0.48452 0.3953 0.38716 0.0
C795 C 0.48475 0.38341 0.35192 0.0
C796 C 0.4851 0.39626 0.33081 0.0
C797 C 0.48459 0.35709 0.3911 0.0
C798 C 0.48396 0.3318 0.37525 0.0
C799 C 0.48466 0.34518 0.35586 0.0
C800 C 0.48066 0.29268 0.37817 0.0
C801 C 0.48474 0.34423 0.41222 0.0
C802 C 0.48643 0.26349 0.36951 0.0
C803 C 0.48195 0.22793 0.36841 0.0
C804 C 0.47156 0.22133 0.37563 0.0
C805 C 0.46615 0.2499 0.38556 0.0
C806 C 0.47066 0.28524 0.38681 0.0
H807 H 0.48931 0.36393 0.42161 0.0
H808 H 0.47641 0.34321 0.4179 0.0
H809 H 0.48835 0.31617 0.41364 0.0
H810 H 0.49412 0.26871 0.3626 0.0
H811 H 0.48627 0.20649 0.36051 0.0
H812 H 0.2657 0.53635 0.36219 0.0
H813 H 0.25797 0.47424 0.36614 0.0
H814 H 0.28694 0.43773 0.39491 0.0
H815 H 0.29467 0.49939 0.39098 0.0
H816 H 0.26776 0.41584 0.34732 0.0
H817 H 0.26405 0.38328 0.4263 0.0
H818 H 0.2646 0.43043 0.41722 0.0
H819 H 0.27676 0.40453 0.4213 0.0
C820 C 0.27023 0.51545 0.37008 0.0
C821 C 0.2808 0.52254 0.37621 0.0
C822 C 0.26582 0.47997 0.37225 0.0
C823 C 0.27184 0.45143 0.38093 0.0
C824 C 0.28205 0.45947 0.38853 0.0
H825 H 0.2945 0.24841 0.35815 0.0
H826 H 0.28649 0.30981 0.3551 0.0
C827 C 0.2865 0.4947 0.38618 0.0
C828 C 0.26853 0.41214 0.37898 0.0
H829 H 0.26884 0.3311 0.40479 0.0
C830 C 0.26763 0.39735 0.35992 0.0
C831 C 0.26816 0.38805 0.39537 0.0
C832 C 0.26833 0.40251 0.4162 0.0
C833 C 0.26758 0.35888 0.35678 0.0
C834 C 0.26857 0.33481 0.37309 0.0
C835 C 0.26824 0.34957 0.39222 0.0
C836 C 0.27192 0.29563 0.37076 0.0
C837 C 0.26712 0.34441 0.33597 0.0
C838 C 0.26627 0.26691 0.3801 0.0
C839 C 0.27085 0.23159 0.38177 0.0
C840 C 0.28122 0.22483 0.37446 0.0
C841 C 0.28649 0.25283 0.36386 0.0
C842 C 0.28188 0.28792 0.36202 0.0
H843 H 0.26246 0.36346 0.32636 0.0
H844 H 0.27537 0.34269 0.32995 0.0
H845 H 0.26345 0.31634 0.33536 0.0
H846 H 0.25863 0.2724 0.38708 0.0
H847 H 0.26664 0.21057 0.39016 0.0
H848 H 0.54374 0.2559 0.11262 0.0
H849 H 0.53595 0.19403 0.11034 0.0
H850 H 0.50944 0.22878 0.14675 0.0
H851 H 0.51721 0.2911 0.14899 0.0
H852 H 0.52098 0.17089 0.16254 0.0
H853 H 0.51098 0.13835 0.08542 0.0
H854 H 0.5238 0.16068 0.08689 0.0
H855 H 0.51194 0.18549 0.09441 0.0
C856 C 0.53603 0.25081 0.11945 0.0
C857 C 0.5311 0.2782 0.13101 0.0
C858 C 0.53154 0.21546 0.11807 0.0
C859 C 0.52207 0.20685 0.12827 0.0
C860 C 0.5167 0.23498 0.13862 0.0
H861 H 0.51792 0.9651 0.12085 0.0
H862 H 0.50973 0.02629 0.12592 0.0
C863 C 0.52113 0.27058 0.1398 0.0
C864 C 0.51914 0.16737 0.13101 0.0
H865 H 0.51784 0.08646 0.10518 0.0
C866 C 0.51992 0.15245 0.15007 0.0
C867 C 0.51756 0.14332 0.11485 0.0
C868 C 0.5159 0.15789 0.09427 0.0
C869 C 0.52041 0.11397 0.15306 0.0
C870 C 0.5202 0.09006 0.13658 0.0
C871 C 0.51815 0.10484 0.11782 0.0
C872 C 0.5241 0.05134 0.1378 0.0
C873 C 0.52184 0.09938 0.1737 0.0
C874 C 0.53479 0.04496 0.1433 0.0
C875 C 0.53949 0.01032 0.14026 0.0
C876 C 0.53357 0.98139 0.13172 0.0
C877 C 0.52264 0.98687 0.12762 0.0
C878 C 0.51796 0.0218 0.13044 0.0
H879 H 0.51797 0.11807 0.18461 0.0
H880 H 0.51842 0.07107 0.17528 0.0
H881 H 0.53052 0.09818 0.1772 0.0
H882 H 0.53975 0.06751 0.14861 0.0
H883 H 0.54794 0.00686 0.14348 0.0
H884 H 0.70905 -0.00163 0.10783 0.0
H885 H 0.71702 0.05996 0.10578 0.0
H886 H 0.74541 0.01988 0.13517 0.0
H887 H 0.73742 0.95787 0.13727 0.0
H888 H 0.73606 0.07684 0.15476 0.0
H889 H 0.7405 0.11575 0.07702 0.0
H890 H 0.7273 0.09743 0.08071 0.0
H891 H 0.73883 0.06807 0.0846 0.0
C892 C 0.71715 0.0023 0.11317 0.0
C893 C 0.72259 0.97342 0.12279 0.0
C894 C 0.72174 0.03753 0.11191 0.0
C895 C 0.73185 0.04452 0.12023 0.0
C896 C 0.73764 0.01501 0.12854 0.0
H897 H 0.73734 0.28534 0.11605 0.0
H898 H 0.74531 0.22332 0.11762 0.0
C899 C 0.73308 0.97958 0.12965 0.0
C900 C 0.73528 0.08349 0.12323 0.0
H901 H 0.73528 0.16685 0.09958 0.0
C902 C 0.73625 0.09646 0.14265 0.0
C903 C 0.73577 0.1091 0.1075 0.0
C904 C 0.73566 0.09669 0.0863 0.0
C905 C 0.73647 0.13459 0.14681 0.0
C906 C 0.73553 0.16024 0.13116 0.0
C907 C 0.73581 0.14723 0.11166 0.0
C908 C 0.73234 0.19937 0.13454 0.0
C909 C 0.73711 0.14698 0.16798 0.0
C910 C 0.72262 0.20684 0.14419 0.0
C911 C 0.71805 0.24215 0.1433 0.0
C912 C 0.7231 0.27058 0.13265 0.0
C913 C 0.7333 0.26402 0.12449 0.0
C914 C 0.73784 0.22854 0.12528 0.0
H915 H 0.74195 0.12717 0.17683 0.0
H916 H 0.74069 0.17509 0.16929 0.0
H917 H 0.72893 0.1476 0.17437 0.0
H918 H 0.7181 0.18468 0.15105 0.0
H919 H 0.71017 0.24635 0.14963 0.0
H920 H 0.48671 0.69986 0.85679 0.0
H921 H 0.49428 0.76223 0.86027 0.0
H922 H 0.46716 0.79448 0.89579 0.0
H923 H 0.45959 0.73251 0.89237 0.0
H924 H 0.48291 0.81962 0.84438 0.0
H925 H 0.49131 0.85118 0.92224 0.0
H926 H 0.49057 0.80414 0.91304 0.0
H927 H 0.47855 0.82874 0.91989 0.0
C928 C 0.4826 0.7198 0.86606 0.0
C929 C 0.47252 0.7115 0.87422 0.0
C930 C 0.48693 0.75545 0.86796 0.0
C931 C 0.48132 0.78296 0.87835 0.0
C932 C 0.47174 0.77356 0.88802 0.0
H933 H 0.45577 0.98458 0.86149 0.0
H934 H 0.46377 0.92334 0.85738 0.0
C935 C 0.46738 0.73813 0.88598 0.0
C936 C 0.48411 0.82267 0.87603 0.0
H937 H 0.4847 0.90324 0.90226 0.0
C938 C 0.48367 0.83788 0.857 0.0
C939 C 0.48529 0.84652 0.8924 0.0
C940 C 0.48657 0.83169 0.91301 0.0
C941 C 0.48316 0.87638 0.85413 0.0
C942 C 0.483 0.90004 0.87071 0.0
C943 C 0.48467 0.88503 0.88954 0.0
C944 C 0.47923 0.93889 0.8693 0.0
C945 C 0.48215 0.89125 0.83347 0.0
C946 C 0.48533 0.96821 0.87699 0.0
C947 C 0.48077 0.00345 0.87923 0.0
C948 C 0.46997 0.00951 0.8742 0.0
C949 C 0.46411 0.9807 0.86542 0.0
C950 C 0.4687 0.94572 0.86298 0.0
H951 H 0.4862 0.87266 0.82273 0.0
H952 H 0.47354 0.89265 0.82941 0.0
H953 H 0.48563 0.91953 0.83221 0.0
H954 H 0.49344 0.96337 0.88213 0.0
H955 H 0.48544 0.02512 0.88621 0.0
H956 H 0.26779 0.71202 0.89305 0.0
H957 H 0.2598 0.77399 0.89026 0.0
H958 H 0.2879 0.81222 0.85926 0.0
H959 H 0.29588 0.75072 0.86205 0.0
H960 H 0.26975 0.83322 0.9083 0.0
H961 H 0.26395 0.8649 0.82963 0.0
H962 H 0.26492 0.81787 0.83876 0.0
H963 H 0.27686 0.84436 0.83364 0.0
C964 C 0.27206 0.7333 0.88496 0.0
C965 C 0.28247 0.72668 0.87778 0.0
C966 C 0.26751 0.76869 0.88346 0.0
C967 C 0.27321 0.79762 0.87441 0.0
C968 C 0.28325 0.79016 0.86594 0.0
H969 H 0.29527 0.0021 0.89494 0.0
H970 H 0.28753 0.94056 0.89916 0.0
C971 C 0.28784 0.75503 0.86762 0.0
C972 C 0.26974 0.83671 0.87659 0.0
H973 H 0.26892 0.91749 0.85061 0.0
C974 C 0.26921 0.85159 0.89568 0.0
C975 C 0.26882 0.86062 0.8602 0.0
C976 C 0.26855 0.84599 0.83941 0.0
C977 C 0.269 0.89009 0.89875 0.0
C978 C 0.26945 0.91409 0.88232 0.0
C979 C 0.26873 0.89911 0.86326 0.0
C980 C 0.27264 0.95352 0.88424 0.0
C981 C 0.26893 0.90469 0.91955 0.0
C982 C 0.26673 0.98168 0.87496 0.0
C983 C 0.27116 0.01708 0.87258 0.0
C984 C 0.28164 0.02449 0.87914 0.0
C985 C 0.28717 0.99717 0.88979 0.0
C986 C 0.28271 0.96199 0.89231 0.0
H987 H 0.26452 0.88553 0.9295 0.0
H988 H 0.2773 0.90668 0.92498 0.0
H989 H 0.26519 0.93263 0.92038 0.0
H990 H 0.25899 0.97562 0.86849 0.0
H991 H 0.26674 0.03756 0.86419 0.0
H992 H 0.97812 0.61633 0.95462 0.0
H993 H 0.99067 0.585 0.97664 0.0
H994 H 0.97374 0.48186 0.96814 0.0
H995 H 0.96124 0.51292 0.94572 0.0
H996 H 0.98913 0.54357 0.01085 0.0
H997 H 0.00389 0.4574 0.94862 0.0
H998 H 0.99512 0.49663 0.94506 0.0
H999 H 0.9898 0.45304 0.95348 0.0
C1000 C 0.97691 0.58714 0.95775 0.0
C1001 C 0.96875 0.567 0.94827 0.0
C1002 C 0.98412 0.56925 0.97031 0.0
C1003 C 0.98331 0.53092 0.97359 0.0
C1004 C 0.97467 0.5113 0.9654 0.0
H1005 H 0.02349 0.37422 0.03603 0.0
H1006 H 0.01017 0.40453 0.01508 0.0
C1007 C 0.96745 0.52917 0.95278 0.0
C1008 C 0.99188 0.51138 0.98464 0.0
H1009 H 0.01144 0.4455 0.97993 0.0
C1010 C 0.99401 0.52214 0.00411 0.0
C1011 C 0.9983 0.4836 0.97573 0.0
C1012 C 0.99676 0.47215 0.95452 0.0
C1013 C 0.00227 0.50546 0.01504 0.0
C1014 C 0.00868 0.47772 0.00611 0.0
C1015 C 0.00653 0.46685 0.98668 0.0
C1016 C 0.01745 0.45891 0.01695 0.0
C1017 C 0.00392 0.51717 0.03616 0.0
C1018 C 0.02623 0.47911 0.02419 0.0
C1019 C 0.0339 0.46181 0.0361 0.0
C1020 C 0.0329 0.42401 0.0409 0.0
C1021 C 0.02447 0.40339 0.0326 0.0
C1022 C 0.01683 0.42068 0.02068 0.0
H1023 H 0.99682 0.53197 0.04215 0.0
H1024 H 0.00563 0.4928 0.04567 0.0
H1025 H 0.01089 0.53627 0.03701 0.0
H1026 H 0.02698 0.50849 0.02111 0.0
H1027 H 0.04029 0.47844 0.04229 0.0
H1028 H 0.27478 0.62672 0.95833 0.0
H1029 H 0.26155 0.65623 0.97981 0.0
H1030 H 0.27957 0.75831 0.97799 0.0
H1031 H 0.2928 0.72909 0.95629 0.0
H1032 H 0.26257 0.69432 0.01645 0.0
H1033 H 0.25002 0.78642 0.95499 0.0
H1034 H 0.25845 0.74631 0.95129 0.0
H1035 H 0.26402 0.78846 0.96104 0.0
C1036 C 0.27606 0.65523 0.96283 0.0
C1037 C 0.28479 0.6757 0.95548 0.0
C1038 C 0.26847 0.67206 0.97507 0.0
C1039 C 0.26946 0.70965 0.98009 0.0
C1040 C 0.27856 0.72944 0.97393 0.0
H1041 H 0.22966 0.86748 0.04135 0.0
H1042 H 0.24291 0.83564 0.02095 0.0
C1043 C 0.28617 0.71262 0.96169 0.0
C1044 C 0.26065 0.72857 0.99075 0.0
H1045 H 0.24177 0.79664 0.98589 0.0
C1046 C 0.258 0.71664 0.00979 0.0
C1047 C 0.25466 0.75749 0.98191 0.0
C1048 C 0.25683 0.7703 0.96112 0.0
C1049 C 0.24967 0.7335 0.02047 0.0
C1050 C 0.24371 0.76255 0.01166 0.0
C1051 C 0.24633 0.77431 0.99257 0.0
C1052 C 0.23503 0.7822 0.02235 0.0
C1053 C 0.24751 0.72075 0.04128 0.0
C1054 C 0.22595 0.76308 0.02919 0.0
C1055 C 0.21833 0.78126 0.04085 0.0
C1056 C 0.21966 0.8189 0.04574 0.0
C1057 C 0.22841 0.83846 0.03785 0.0
C1058 C 0.23602 0.82028 0.02624 0.0
H1059 H 0.25436 0.70476 0.04742 0.0
H1060 H 0.24587 0.74472 0.0511 0.0
H1061 H 0.24036 0.70243 0.04138 0.0
H1062 H 0.22491 0.73386 0.02596 0.0
H1063 H 0.21168 0.76545 0.04672 0.0
H1064 H 0.02248 0.86153 0.2009 0.0
H1065 H 0.00958 0.83214 0.22306 0.0
H1066 H 0.02796 0.7308 0.22151 0.0
H1067 H 0.04099 0.7602 0.19949 0.0
H1068 H 0.99754 0.76993 0.21273 0.0
H1069 H 0.02142 0.74321 0.28023 0.0
H1070 H 0.02565 0.7756 0.26149 0.0
H1071 H 0.02744 0.72657 0.25789 0.0
C1072 C 0.02392 0.83327 0.20565 0.0
C1073 C 0.03276 0.81318 0.19849 0.0
C1074 C 0.01651 0.81647 0.21824 0.0
C1075 C 0.01782 0.77936 0.22399 0.0
C1076 C 0.02688 0.75967 0.21752 0.0
H1077 H 0.97911 0.62517 0.29144 0.0
H1078 H 0.99204 0.65338 0.2689 0.0
C1079 C 0.03432 0.7765 0.20494 0.0
C1080 C 0.00928 0.76055 0.23544 0.0
H1081 H 0.00423 0.71521 0.27857 0.0
C1082 C 0.99898 0.75809 0.22717 0.0
C1083 C 0.0112 0.74498 0.25421 0.0
C1084 C 0.022 0.74792 0.2641 0.0
C1085 C 0.99058 0.74008 0.23707 0.0
C1086 C 0.99249 0.72461 0.25586 0.0
C1087 C 0.0028 0.72698 0.26411 0.0
C1088 C 0.98391 0.70634 0.26746 0.0
C1089 C 0.97979 0.73714 0.22716 0.0
C1090 C 0.9749 0.72649 0.27377 0.0
C1091 C 0.96744 0.71034 0.28656 0.0
C1092 C 0.96894 0.67388 0.2934 0.0
C1093 C 0.97772 0.65328 0.28639 0.0
C1094 C 0.98514 0.6694 0.27358 0.0
H1095 H 0.9804 0.74131 0.211 0.0
H1096 H 0.97605 0.70968 0.23001 0.0
H1097 H 0.97439 0.75889 0.23314 0.0
H1098 H 0.97388 0.75524 0.2695 0.0
H1099 H 0.96083 0.72703 0.29188 0.0
H1100 H 0.21004 0.48248 0.20241 0.0
H1101 H 0.2231 0.5109 0.22478 0.0
H1102 H 0.24135 0.40926 0.22535 0.0
H1103 H 0.22842 0.38079 0.2029 0.0
H1104 H 0.23149 0.48966 0.26273 0.0
H1105 H 0.26252 0.48826 0.20399 0.0
H1106 H 0.24846 0.48102 0.19895 0.0
H1107 H 0.25643 0.44407 0.20904 0.0
C1108 C 0.21671 0.46594 0.20764 0.0
C1109 C 0.21826 0.42951 0.20079 0.0
C1110 C 0.22418 0.48226 0.22034 0.0
C1111 C 0.2333 0.46241 0.22632 0.0
C1112 C 0.23448 0.42526 0.22054 0.0
H1113 H 0.28966 0.5165 0.29561 0.0
H1114 H 0.2765 0.48714 0.27378 0.0
C1115 C 0.22704 0.40897 0.20785 0.0
C1116 C 0.24184 0.481 0.23781 0.0
H1117 H 0.26809 0.50789 0.23565 0.0
C1118 C 0.23948 0.49378 0.25682 0.0
C1119 C 0.25225 0.48632 0.22999 0.0
C1120 C 0.25509 0.47452 0.20931 0.0
C1121 C 0.24733 0.51121 0.26839 0.0
C1122 C 0.25773 0.51655 0.26056 0.0
C1123 C 0.2601 0.50372 0.24157 0.0
C1124 C 0.26625 0.53546 0.27196 0.0
C1125 C 0.24449 0.52315 0.28904 0.0
C1126 C 0.26506 0.57278 0.27741 0.0
C1127 C 0.27257 0.58962 0.28976 0.0
C1128 C 0.28142 0.56947 0.29682 0.0
C1129 C 0.28293 0.53275 0.29038 0.0
C1130 C 0.2754 0.5159 0.27799 0.0
H1131 H 0.23707 0.50941 0.29439 0.0
H1132 H 0.25112 0.51677 0.29941 0.0
H1133 H 0.24314 0.55359 0.28925 0.0
H1134 H 0.25815 0.58855 0.27256 0.0
H1135 H 0.27119 0.618 0.29441 0.0
H1136 H 0.76761 0.10934 0.95462 0.0
H1137 H 0.75359 0.13611 0.97534 0.0
H1138 H 0.77766 0.18603 0.01239 0.0
H1139 H 0.79181 0.15886 0.99177 0.0
H1140 H 0.75856 0.15821 0.03287 0.0
H1141 H 0.74936 0.25021 0.96937 0.0
H1142 H 0.74907 0.20136 0.96405 0.0
H1143 H 0.7615 0.22308 0.97081 0.0
C1144 C 0.76994 0.12522 0.96748 0.0
C1145 C 0.7808 0.13236 0.97148 0.0
C1146 C 0.76191 0.14062 0.97923 0.0
C1147 C 0.7646 0.16369 0.9951 0.0
C1148 C 0.77544 0.16844 0.00011 0.0
H1149 H 0.72864 0.34105 0.04834 0.0
H1150 H 0.7409 0.30205 0.02935 0.0
C1151 C 0.7835 0.15281 0.98838 0.0
C1152 C 0.75617 0.18567 0.00509 0.0
H1153 H 0.73804 0.25512 0.9971 0.0
C1154 C 0.75404 0.17932 0.02509 0.0
C1155 C 0.75041 0.21357 0.99491 0.0
C1156 C 0.75273 0.22282 0.97365 0.0
C1157 C 0.7462 0.2 0.03515 0.0
C1158 C 0.74029 0.22734 0.02483 0.0
C1159 C 0.74249 0.23382 0.00489 0.0
C1160 C 0.73222 0.25106 0.03475 0.0
C1161 C 0.74451 0.19315 0.05685 0.0
C1162 C 0.72302 0.23556 0.04332 0.0
C1163 C 0.71595 0.25783 0.0541 0.0
C1164 C 0.71797 0.29599 0.05641 0.0
C1165 C 0.72685 0.31177 0.0468 0.0
C1166 C 0.7339 0.2895 0.03603 0.0
H1167 H 0.75115 0.17675 0.06342 0.0
H1168 H 0.74379 0.2198 0.06497 0.0
H1169 H 0.73695 0.17746 0.05899 0.0
H1170 H 0.72145 0.20607 0.04211 0.0
H1171 H 0.70919 0.24486 0.06136 0.0
H1172 H 0.96218 0.23561 0.80562 0.0
H1173 H 0.97479 0.2647 0.78266 0.0
H1174 H 0.99046 0.15924 0.77404 0.0
H1175 H 0.97783 0.12998 0.79665 0.0
H1176 H 0.99653 0.26747 0.78958 0.0
H1177 H 0.98875 0.19826 0.71816 0.0
H1178 H 0.97934 0.19664 0.73835 0.0
H1179 H 0.99075 0.16611 0.73798 0.0
C1180 C 0.9681 0.21842 0.79835 0.0
C1181 C 0.969 0.1805 0.80292 0.0
C1182 C 0.97534 0.23512 0.78533 0.0
C1183 C 0.98354 0.21412 0.77655 0.0
C1184 C 0.9841 0.17588 0.78034 0.0
H1185 H 0.04074 0.26019 0.70808 0.0
H1186 H 0.02735 0.23272 0.73011 0.0
C1187 C 0.97687 0.1592 0.79333 0.0
C1188 C 0.99215 0.23263 0.76509 0.0
H1189 H 0.00526 0.23134 0.72097 0.0
C1190 C 0.99837 0.25985 0.77451 0.0
C1191 C 0.99461 0.22241 0.7455 0.0
C1192 C 0.98795 0.19451 0.73433 0.0
C1193 C 0.00712 0.27659 0.765 0.0
C1194 C 0.00963 0.26613 0.74548 0.0
C1195 C 0.00338 0.23907 0.73601 0.0
C1196 C 0.01848 0.28374 0.73428 0.0
C1197 C 0.01376 0.3047 0.77607 0.0
C1198 C 0.01806 0.32167 0.72969 0.0
C1199 C 0.0257 0.33742 0.71718 0.0
C1200 C 0.03389 0.31549 0.70897 0.0
C1201 C 0.03459 0.27787 0.71432 0.0
C1202 C 0.02691 0.26209 0.72678 0.0
H1203 H 0.01258 0.30241 0.79224 0.0
H1204 H 0.02242 0.30132 0.77273 0.0
H1205 H 0.01132 0.33305 0.77151 0.0
H1206 H 0.01154 0.33876 0.73505 0.0
H1207 H 0.0249 0.36642 0.71322 0.0
H1208 H 0.72313 0.39964 0.70526 0.0
H1209 H 0.73558 0.43467 0.72602 0.0
H1210 H 0.72738 0.53516 0.69493 0.0
H1211 H 0.71465 0.50061 0.67473 0.0
H1212 H 0.75303 0.46896 0.71428 0.0
H1213 H 0.72667 0.57277 0.74995 0.0
H1214 H 0.72142 0.53327 0.73681 0.0
H1215 H 0.72573 0.57399 0.72362 0.0
C1216 C 0.72377 0.42939 0.70326 0.0
C1217 C 0.71784 0.44744 0.68853 0.0
C1218 C 0.73094 0.44935 0.71502 0.0
C1219 C 0.73238 0.48767 0.71216 0.0
C1220 C 0.72624 0.50587 0.69778 0.0
H1221 H 0.79119 0.59764 0.75493 0.0
H1222 H 0.77738 0.57163 0.73312 0.0
C1223 C 0.71896 0.48603 0.68622 0.0
C1224 C 0.74085 0.50786 0.72323 0.0
H1225 H 0.74546 0.58308 0.75261 0.0
C1226 C 0.75136 0.49383 0.72275 0.0
C1227 C 0.73868 0.54031 0.73429 0.0
C1228 C 0.72749 0.55576 0.73638 0.0
C1229 C 0.75972 0.51096 0.73319 0.0
C1230 C 0.7576 0.54384 0.74392 0.0
C1231 C 0.74712 0.55814 0.74419 0.0
C1232 C 0.76586 0.56191 0.75645 0.0
C1233 C 0.77063 0.49281 0.73321 0.0
C1234 C 0.76383 0.56654 0.7766 0.0
C1235 C 0.77157 0.58198 0.7889 0.0
C1236 C 0.78159 0.59298 0.78139 0.0
C1237 C 0.78358 0.58918 0.76113 0.0
C1238 C 0.77572 0.57406 0.74871 0.0
H1239 H 0.77021 0.46332 0.72848 0.0
H1240 H 0.77595 0.5077 0.72277 0.0
H1241 H 0.77433 0.49394 0.74806 0.0
H1242 H 0.7563 0.55747 0.78294 0.0
H1243 H 0.76977 0.58448 0.80445 0.0
H1244 H 0.96089 0.01449 0.45661 0.0
H1245 H 0.97398 0.98391 0.47805 0.0
H1246 H 0.99148 0.08667 0.48333 0.0
H1247 H 0.97839 0.11745 0.46218 0.0
H1248 H 0.99553 0.97746 0.46838 0.0
H1249 H 0.99092 0.0498 0.53996 0.0
H1250 H 0.98087 0.05195 0.52087 0.0
H1251 H 0.99263 0.08069 0.51947 0.0
C1252 C 0.96735 0.03081 0.46282 0.0
C1253 C 0.9686 0.0684 0.45775 0.0
C1254 C 0.97486 0.01326 0.47496 0.0
C1255 C 0.98368 0.03305 0.48237 0.0
C1256 C 0.98465 0.07099 0.47807 0.0
H1257 H 0.04144 0.976 0.54708 0.0
H1258 H 0.02822 0.00639 0.52583 0.0
C1259 C 0.97716 0.08854 0.46593 0.0
C1260 C 0.99236 0.01344 0.49304 0.0
H1261 H 0.00658 0.01274 0.53598 0.0
C1262 C 0.9979 0.98496 0.48323 0.0
C1263 C 0.9955 0.02352 0.51232 0.0
C1264 C 0.98961 0.05293 0.52387 0.0
C1265 C 0.00659 0.96665 0.49206 0.0
C1266 C 0.00974 0.97677 0.51132 0.0
C1267 C 0.0042 0.00523 0.52114 0.0
C1268 C 0.01846 0.95727 0.52194 0.0
C1269 C 0.01247 0.93718 0.48054 0.0
C1270 C 0.01748 0.91941 0.52643 0.0
C1271 C 0.02503 0.90198 0.53848 0.0
C1272 C 0.03368 0.92215 0.54635 0.0
C1273 C 0.03492 0.95965 0.5411 0.0
C1274 C 0.02734 0.9771 0.52907 0.0
H1275 H 0.01108 0.94002 0.46445 0.0
H1276 H 0.02123 0.9384 0.48339 0.0
H1277 H 0.00953 0.90943 0.48512 0.0
H1278 H 0.01061 0.90372 0.52138 0.0
H1279 H 0.02381 0.87313 0.54238 0.0
H1280 H 0.29049 0.23638 0.45058 0.0
H1281 H 0.27699 0.26556 0.47171 0.0
H1282 H 0.26144 0.15965 0.47947 0.0
H1283 H 0.27494 0.13028 0.45857 0.0
H1284 H 0.2551 0.26593 0.46237 0.0
H1285 H 0.26197 0.20133 0.53543 0.0
H1286 H 0.27189 0.20042 0.51607 0.0
H1287 H 0.26081 0.16855 0.51564 0.0
C1288 C 0.28438 0.21913 0.45727 0.0
C1289 C 0.28379 0.18101 0.45296 0.0
C1290 C 0.27663 0.23588 0.46922 0.0
C1291 C 0.26824 0.21475 0.47722 0.0
C1292 C 0.26794 0.17638 0.47371 0.0
H1293 H 0.21069 0.26323 0.54421 0.0
H1294 H 0.22395 0.23451 0.52244 0.0
C1295 C 0.27566 0.15964 0.46174 0.0
C1296 C 0.25929 0.23317 0.48776 0.0
H1297 H 0.24566 0.23456 0.53132 0.0
C1298 C 0.25307 0.2593 0.4775 0.0
C1299 C 0.25661 0.2242 0.50741 0.0
C1300 C 0.26322 0.19734 0.51937 0.0
C1301 C 0.24414 0.27629 0.48627 0.0
C1302 C 0.24145 0.26729 0.50593 0.0
C1303 C 0.24768 0.24119 0.51619 0.0
C1304 C 0.23249 0.28559 0.51651 0.0
C1305 C 0.23752 0.30312 0.4743 0.0
C1306 C 0.23271 0.32399 0.51994 0.0
C1307 C 0.22511 0.34049 0.53227 0.0
C1308 C 0.2172 0.31881 0.54153 0.0
C1309 C 0.21664 0.2807 0.53721 0.0
C1310 C 0.22425 0.26422 0.52487 0.0
H1311 H 0.23872 0.29892 0.45824 0.0
H1312 H 0.22886 0.30023 0.4777 0.0
H1313 H 0.23999 0.33191 0.47791 0.0
H1314 H 0.23909 0.34093 0.51392 0.0
H1315 H 0.2258 0.36987 0.53542 0.0
H1316 H 0.21068 0.97534 0.7078 0.0
H1317 H 0.22383 0.00449 0.72965 0.0
H1318 H 0.24146 0.90171 0.73262 0.0
H1319 H 0.2283 0.87225 0.71099 0.0
H1320 H 0.24031 0.94055 0.76894 0.0
H1321 H 0.25364 0.03114 0.7074 0.0
H1322 H 0.23959 0.03383 0.71305 0.0
H1323 H 0.24511 0.99129 0.70367 0.0
C1324 C 0.21721 0.95871 0.71348 0.0
C1325 C 0.2185 0.92159 0.70756 0.0
C1326 C 0.22477 0.97549 0.72581 0.0
C1327 C 0.23375 0.95548 0.73233 0.0
C1328 C 0.23464 0.91772 0.72759 0.0
H1329 H 0.29117 0.01011 0.80007 0.0
H1330 H 0.27801 0.97897 0.779 0.0
C1331 C 0.22709 0.90092 0.71527 0.0
C1332 C 0.24253 0.9743 0.74313 0.0
H1333 H 0.26162 0.04175 0.73849 0.0
C1334 C 0.24499 0.96262 0.7623 0.0
C1335 C 0.24867 0.0029 0.73433 0.0
C1336 C 0.24672 0.0154 0.71342 0.0
C1337 C 0.25327 0.97942 0.77313 0.0
C1338 C 0.25938 0.00815 0.76436 0.0
C1339 C 0.25694 0.01967 0.74514 0.0
C1340 C 0.26803 0.0276 0.77519 0.0
C1341 C 0.25521 0.96696 0.79405 0.0
C1342 C 0.26712 0.06571 0.77908 0.0
C1343 C 0.27468 0.08364 0.79089 0.0
C1344 C 0.28332 0.06379 0.79898 0.0
C1345 C 0.2846 0.02613 0.79406 0.0
C1346 C 0.27702 0.00821 0.78222 0.0
H1347 H 0.24828 0.95124 0.80006 0.0
H1348 H 0.26232 0.9485 0.79444 0.0
H1349 H 0.25681 0.99107 0.8038 0.0
H1350 H 0.2603 0.08127 0.77364 0.0
H1351 H 0.27348 0.11268 0.7944 0.0
H1352 H 0.77189 0.62882 0.45398 0.0
H1353 H 0.75906 0.65871 0.47607 0.0
H1354 H 0.77877 0.75699 0.47749 0.0
H1355 H 0.7916 0.72743 0.45507 0.0
H1356 H 0.76054 0.69044 0.51347 0.0
H1357 H 0.74995 0.79556 0.45686 0.0
H1358 H 0.75775 0.7547 0.45123 0.0
H1359 H 0.76394 0.79383 0.46306 0.0
C1360 C 0.77359 0.65659 0.45924 0.0
C1361 C 0.78272 0.6759 0.45267 0.0
C1362 C 0.76624 0.67364 0.47184 0.0
C1363 C 0.76784 0.71035 0.47804 0.0
C1364 C 0.77727 0.72892 0.4725 0.0
H1365 H 0.73105 0.86411 0.54815 0.0
H1366 H 0.74372 0.83381 0.52592 0.0
C1367 C 0.78465 0.71187 0.45986 0.0
C1368 C 0.7594 0.72951 0.48959 0.0
H1369 H 0.74188 0.80238 0.4882 0.0
C1370 C 0.75643 0.71486 0.50795 0.0
C1371 C 0.75401 0.76121 0.48226 0.0
C1372 C 0.75648 0.77714 0.4622 0.0
C1373 C 0.74838 0.73155 0.51939 0.0
C1374 C 0.74303 0.76334 0.51207 0.0
C1375 C 0.74597 0.77793 0.49371 0.0
C1376 C 0.73468 0.78277 0.5237 0.0
C1377 C 0.74585 0.71555 0.5394 0.0
C1378 C 0.72514 0.76471 0.52911 0.0
C1379 C 0.71784 0.78204 0.54177 0.0
C1380 C 0.71996 0.81774 0.54917 0.0
C1381 C 0.72919 0.83657 0.54272 0.0
C1382 C 0.73646 0.81927 0.53007 0.0
H1383 H 0.75227 0.69659 0.54466 0.0
H1384 H 0.74474 0.73794 0.55045 0.0
H1385 H 0.73829 0.69943 0.53854 0.0
H1386 H 0.72351 0.73679 0.52401 0.0
H1387 H 0.71081 0.76682 0.5465 0.0
H1388 H 0.7301 0.87602 0.20468 0.0
H1389 H 0.74324 0.90539 0.22632 0.0
H1390 H 0.72605 0.00895 0.22226 0.0
H1391 H 0.71289 0.9798 0.2004 0.0
H1392 H 0.74787 0.01435 0.21265 0.0
H1393 H 0.74233 0.94041 0.2836 0.0
H1394 H 0.74389 0.91031 0.26272 0.0
H1395 H 0.73233 0.93995 0.26437 0.0
C1396 C 0.72895 0.9048 0.2088 0.0
C1397 C 0.72045 0.9256 0.20086 0.0
C1398 C 0.73647 0.92153 0.2212 0.0
C1399 C 0.73559 0.9593 0.22598 0.0
C1400 C 0.72685 0.97973 0.21878 0.0
H1401 H 0.77552 0.11669 0.28802 0.0
H1402 H 0.76262 0.08681 0.26614 0.0
C1403 C 0.7193 0.96298 0.20641 0.0
C1404 C 0.74429 0.97812 0.23701 0.0
H1405 H 0.75799 0.97747 0.28049 0.0
C1406 C 0.75005 0.00648 0.22754 0.0
C1407 C 0.74718 0.96753 0.25633 0.0
C1408 C 0.74106 0.93811 0.26745 0.0
C1409 C 0.75871 0.02423 0.23678 0.0
C1410 C 0.76158 0.01372 0.25614 0.0
C1411 C 0.75583 0.98531 0.26559 0.0
C1412 C 0.7702 0.03281 0.26725 0.0
C1413 C 0.76484 0.05355 0.22561 0.0
C1414 C 0.77883 0.01251 0.275 0.0
C1415 C 0.78623 0.02955 0.28757 0.0
C1416 C 0.78505 0.06711 0.29274 0.0
C1417 C 0.77669 0.08777 0.28421 0.0
C1418 C 0.76932 0.07075 0.27165 0.0
H1419 H 0.76374 0.05065 0.20945 0.0
H1420 H 0.76185 0.08137 0.22995 0.0
H1421 H 0.77354 0.05222 0.22898 0.0
H1422 H 0.77964 0.98317 0.27184 0.0
H1423 H 0.79253 0.01283 0.29402 0.0
H1424 H 0.45834 0.49527 0.44007 0.0
H1425 H 0.47016 0.45965 0.46179 0.0
H1426 H 0.48719 0.55986 0.47687 0.0
H1427 H 0.47541 0.59566 0.45525 0.0
H1428 H 0.49283 0.45578 0.45667 0.0
H1429 H 0.48173 0.50946 0.53052 0.0
H1430 H 0.47317 0.51471 0.50926 0.0
H1431 H 0.48449 0.5449 0.51261 0.0
C1432 C 0.46443 0.50986 0.4484 0.0
C1433 C 0.46593 0.54829 0.44602 0.0
C1434 C 0.47122 0.48943 0.46068 0.0
C1435 C 0.47951 0.50716 0.47097 0.0
C1436 C 0.48074 0.54574 0.46926 0.0
H1437 H 0.53915 0.42805 0.51976 0.0
H1438 H 0.52514 0.45143 0.49769 0.0
C1439 C 0.474 0.56614 0.4569 0.0
C1440 C 0.48736 0.48513 0.48242 0.0
H1441 H 0.4979 0.4746 0.5284 0.0
C1442 C 0.49389 0.4596 0.47239 0.0
C1443 C 0.48866 0.49006 0.50291 0.0
C1444 C 0.48158 0.51601 0.51454 0.0
C1445 C 0.50191 0.43954 0.48228 0.0
C1446 C 0.50345 0.44544 0.50264 0.0
C1447 C 0.49673 0.47028 0.51274 0.0
C1448 C 0.51204 0.42657 0.51392 0.0
C1449 C 0.50863 0.41212 0.4709 0.0
C1450 C 0.50933 0.40429 0.53009 0.0
C1451 C 0.51729 0.39102 0.54268 0.0
C1452 C 0.52812 0.39995 0.5394 0.0
C1453 C 0.53089 0.42048 0.52256 0.0
C1454 C 0.52289 0.43383 0.50994 0.0
H1455 H 0.50477 0.40415 0.45678 0.0
H1456 H 0.51651 0.42489 0.46748 0.0
H1457 H 0.51009 0.38666 0.47971 0.0
H1458 H 0.50101 0.39838 0.53341 0.0
H1459 H 0.5149 0.37522 0.55552 0.0
H1460 H 0.52762 0.87528 0.72167 0.0
H1461 H 0.51416 0.84288 0.74144 0.0
H1462 H 0.52855 0.73788 0.72623 0.0
H1463 H 0.5421 0.77008 0.70659 0.0
H1464 H 0.49978 0.79172 0.72511 0.0
H1465 H 0.52334 0.72768 0.78555 0.0
H1466 H 0.52845 0.76535 0.77073 0.0
H1467 H 0.52848 0.71874 0.76131 0.0
C1468 C 0.5281 0.84535 0.72296 0.0
C1469 C 0.53593 0.82522 0.71259 0.0
C1470 C 0.52036 0.82689 0.73418 0.0
C1471 C 0.52037 0.78801 0.73535 0.0
C1472 C 0.52849 0.76793 0.72579 0.0
H1473 H 0.47771 0.6252 0.78739 0.0
H1474 H 0.4911 0.65667 0.76705 0.0
C1475 C 0.53624 0.78639 0.71456 0.0
C1476 C 0.51136 0.76841 0.74511 0.0
H1477 H 0.50531 0.70772 0.78203 0.0
C1478 C 0.50097 0.77349 0.73763 0.0
C1479 C 0.51296 0.74445 0.76131 0.0
C1480 C 0.52389 0.73889 0.77035 0.0
C1481 C 0.49213 0.75486 0.74577 0.0
C1482 C 0.49371 0.73099 0.76203 0.0
C1483 C 0.50412 0.72588 0.76949 0.0
C1484 C 0.4847 0.71171 0.77196 0.0
C1485 C 0.48122 0.76031 0.73663 0.0
C1486 C 0.47647 0.73211 0.78102 0.0
C1487 C 0.46874 0.71416 0.7925 0.0
C1488 C 0.46919 0.67553 0.79531 0.0
C1489 C 0.47713 0.65498 0.78545 0.0
C1490 C 0.48482 0.67293 0.77391 0.0
H1491 H 0.48183 0.77049 0.72123 0.0
H1492 H 0.47655 0.73408 0.73671 0.0
H1493 H 0.47672 0.78132 0.74526 0.0
H1494 H 0.47633 0.76211 0.78003 0.0
H1495 H 0.4628 0.73079 0.8001 0.0
H1496 H 0.47937 0.12613 0.2943 0.0
H1497 H 0.49259 0.1569 0.27333 0.0
H1498 H 0.4746 0.25886 0.27691 0.0
H1499 H 0.46137 0.22838 0.29811 0.0
H1500 H 0.49142 0.19643 0.2374 0.0
H1501 H 0.50421 0.28638 0.2996 0.0
H1502 H 0.49577 0.2462 0.30301 0.0
H1503 H 0.49019 0.2887 0.2937 0.0
C1504 C 0.4781 0.15491 0.29031 0.0
C1505 C 0.46937 0.17493 0.29797 0.0
C1506 C 0.48569 0.17246 0.27837 0.0
C1507 C 0.4847 0.21034 0.27398 0.0
C1508 C 0.47561 0.22978 0.2805 0.0
H1509 H 0.52448 0.36882 0.21276 0.0
H1510 H 0.51129 0.33742 0.23353 0.0
C1511 C 0.46801 0.21223 0.29244 0.0
C1512 C 0.49346 0.22974 0.26342 0.0
H1513 H 0.5124 0.2975 0.26872 0.0
C1514 C 0.49603 0.21848 0.24423 0.0
C1515 C 0.49948 0.25835 0.27246 0.0
C1516 C 0.49737 0.2705 0.29339 0.0
C1517 C 0.50434 0.23561 0.23364 0.0
C1518 C 0.51036 0.26423 0.24268 0.0
C1519 C 0.50779 0.27545 0.26189 0.0
C1520 C 0.51908 0.28384 0.23211 0.0
C1521 C 0.50641 0.22357 0.21268 0.0
C1522 C 0.52811 0.26451 0.22521 0.0
C1523 C 0.53569 0.28241 0.21336 0.0
C1524 C 0.53437 0.31998 0.20832 0.0
C1525 C 0.52571 0.33983 0.21637 0.0
C1526 C 0.51814 0.32192 0.22819 0.0
H1527 H 0.49952 0.20793 0.20646 0.0
H1528 H 0.50806 0.24787 0.20309 0.0
H1529 H 0.51353 0.20513 0.21232 0.0
H1530 H 0.52911 0.23528 0.22846 0.0
H1531 H 0.54227 0.26639 0.20738 0.0
H1532 H 0.48073 0.11204 0.95297 0.0
H1533 H 0.49356 0.08397 0.97572 0.0
H1534 H 0.47347 0.98698 0.98047 0.0
H1535 H 0.46064 0.01468 0.95741 0.0
H1536 H 0.4921 0.05633 0.01408 0.0
H1537 H 0.50204 0.94492 0.96053 0.0
H1538 H 0.4944 0.9855 0.9538 0.0
H1539 H 0.4881 0.94801 0.96687 0.0
C1540 C 0.47894 0.08498 0.9591 0.0
C1541 C 0.46972 0.06542 0.95328 0.0
C1542 C 0.4863 0.06896 0.97206 0.0
C1543 C 0.48458 0.03306 0.9794 0.0
C1544 C 0.47505 0.01439 0.9746 0.0
H1545 H 0.52145 0.88475 0.0527 0.0
H1546 H 0.50857 0.91365 0.03037 0.0
C1547 C 0.46768 0.03039 0.96159 0.0
C1548 C 0.493 0.01478 0.99138 0.0
H1549 H 0.51026 0.94112 0.99187 0.0
C1550 C 0.49609 0.03119 0.00923 0.0
C1551 C 0.49824 0.98211 0.98492 0.0
C1552 C 0.49562 0.9642 0.96541 0.0
C1553 C 0.50413 0.01537 0.02102 0.0
C1554 C 0.50934 0.98265 0.01458 0.0
C1555 C 0.50627 0.96627 0.99672 0.0
C1556 C 0.51771 0.96416 0.0266 0.0
C1557 C 0.50679 0.03331 0.0405 0.0
C1558 C 0.52733 0.98241 0.03126 0.0
C1559 C 0.53474 0.96589 0.04401 0.0
C1560 C 0.53265 0.93082 0.05222 0.0
C1561 C 0.52328 0.91183 0.04665 0.0
C1562 C 0.5159 0.92832 0.03392 0.0
H1563 H 0.50043 0.05292 0.04531 0.0
H1564 H 0.50791 0.01202 0.05215 0.0
H1565 H 0.51438 0.04911 0.03905 0.0
H1566 H 0.52898 0.00979 0.02541 0.0
H1567 H 0.54189 0.98118 0.04803 0.0
H1568 H 0.17205 0.40077 0.1073 0.0
H1569 H 0.15285 0.401 0.10029 0.0
H1570 H 0.14603 0.39566 0.16248 0.0
H1571 H 0.16531 0.39598 0.16965 0.0
H1572 H 0.13785 0.34742 0.10965 0.0
H1573 H 0.12732 0.48226 0.14424 0.0
H1574 H 0.14099 0.46898 0.13906 0.0
H1575 H 0.13419 0.45041 0.16021 0.0
C1576 C 0.16648 0.39987 0.11952 0.0
C1577 C 0.17019 0.39849 0.13905 0.0
C1578 C 0.1555 0.39996 0.11548 0.0
C1579 C 0.148 0.39883 0.13085 0.0
C1580 C 0.15167 0.39731 0.15039 0.0
H1581 H 0.07861 0.38816 0.13442 0.0
H1582 H 0.09777 0.39021 0.14186 0.0
C1583 C 0.16268 0.39728 0.15447 0.0
C1584 C 0.13636 0.39807 0.12625 0.0
H1585 H 0.11288 0.44526 0.13286 0.0
C1586 C 0.13239 0.36888 0.11466 0.0
C1587 C 0.12926 0.42609 0.13281 0.0
C1588 C 0.13314 0.45892 0.14463 0.0
C1589 C 0.12148 0.36663 0.10968 0.0
C1590 C 0.11439 0.39468 0.1162 0.0
C1591 C 0.11835 0.42383 0.12784 0.0
C1592 C 0.10278 0.39389 0.11144 0.0
C1593 C 0.1176 0.33381 0.09786 0.0
C1594 C 0.09921 0.39576 0.09184 0.0
C1595 C 0.08824 0.39456 0.08751 0.0
C1596 C 0.08065 0.39164 0.10274 0.0
C1597 C 0.08425 0.39031 0.12235 0.0
C1598 C 0.0952 0.39153 0.12664 0.0
H1599 H 0.12344 0.31052 0.09815 0.0
H1600 H 0.10978 0.32363 0.1035 0.0
H1601 H 0.1165 0.34237 0.08231 0.0
H1602 H 0.10492 0.39828 0.07989 0.0
H1603 H 0.08571 0.39583 0.07228 0.0
H1604 H 0.07952 0.8463 0.10597 0.0
H1605 H 0.09875 0.84617 0.09914 0.0
H1606 H 0.10536 0.84744 0.16146 0.0
H1607 H 0.08607 0.84694 0.16843 0.0
H1608 H 0.11377 0.89854 0.1093 0.0
H1609 H 0.12409 0.76213 0.14221 0.0
H1610 H 0.11044 0.77587 0.13722 0.0
H1611 H 0.11725 0.79309 0.15869 0.0
C1612 C 0.08506 0.8463 0.11825 0.0
C1613 C 0.08128 0.84648 0.13776 0.0
C1614 C 0.09605 0.84627 0.11431 0.0
C1615 C 0.1035 0.84629 0.12977 0.0
C1616 C 0.09976 0.84662 0.14929 0.0
H1617 H 0.17267 0.85857 0.13615 0.0
H1618 H 0.15341 0.856 0.14257 0.0
C1619 C 0.08874 0.84655 0.15326 0.0
C1620 C 0.11516 0.84721 0.12534 0.0
H1621 H 0.13864 0.80011 0.13212 0.0
C1622 C 0.11921 0.87693 0.1142 0.0
C1623 C 0.12223 0.81896 0.13173 0.0
C1624 C 0.11829 0.78551 0.14297 0.0
C1625 C 0.13016 0.87954 0.1096 0.0
C1626 C 0.13723 0.85139 0.11606 0.0
C1627 C 0.13319 0.82164 0.12717 0.0
C1628 C 0.1489 0.85276 0.11188 0.0
C1629 C 0.13412 0.91287 0.09827 0.0
C1630 C 0.15277 0.85139 0.09246 0.0
C1631 C 0.16381 0.85287 0.08872 0.0
C1632 C 0.17115 0.8556 0.10436 0.0
C1633 C 0.16723 0.85658 0.12377 0.0
C1634 C 0.15622 0.85505 0.12748 0.0
H1635 H 0.12819 0.93589 0.09838 0.0
H1636 H 0.14179 0.92323 0.10447 0.0
H1637 H 0.13555 0.90479 0.08273 0.0
H1638 H 0.14726 0.84899 0.08021 0.0
H1639 H 0.16659 0.85188 0.07363 0.0
H1640 H 0.83657 0.64414 0.85966 0.0
H1641 H 0.85569 0.63872 0.86637 0.0
H1642 H 0.86149 0.61018 0.80566 0.0
H1643 H 0.84217 0.61547 0.79873 0.0
H1644 H 0.86809 0.57013 0.85874 0.0
H1645 H 0.88365 0.6955 0.82012 0.0
H1646 H 0.86984 0.69173 0.8279 0.0
H1647 H 0.87448 0.66569 0.80709 0.0
C1648 C 0.84189 0.63706 0.84762 0.0
C1649 C 0.83785 0.63019 0.82863 0.0
C1650 C 0.85282 0.63392 0.85153 0.0
C1651 C 0.85999 0.62414 0.83653 0.0
C1652 C 0.85607 0.61808 0.8174 0.0
H1653 H 0.92963 0.60268 0.8448 0.0
H1654 H 0.91114 0.6048 0.83288 0.0
C1655 C 0.84506 0.62108 0.81346 0.0
C1656 C 0.87146 0.61878 0.84143 0.0
H1657 H 0.89618 0.65859 0.83707 0.0
C1658 C 0.87426 0.58929 0.85391 0.0
C1659 C 0.87946 0.64374 0.83503 0.0
C1660 C 0.87678 0.67614 0.82186 0.0
C1661 C 0.88486 0.58425 0.86033 0.0
C1662 C 0.89283 0.61 0.85451 0.0
C1663 C 0.89006 0.63898 0.84161 0.0
C1664 C 0.90403 0.60774 0.86189 0.0
C1665 C 0.88742 0.55117 0.87311 0.0
C1666 C 0.90621 0.60894 0.88219 0.0
C1667 C 0.91678 0.60743 0.88906 0.0
C1668 C 0.92538 0.60521 0.87574 0.0
C1669 C 0.92318 0.60429 0.85544 0.0
C1670 C 0.91262 0.60557 0.84859 0.0
H1671 H 0.88143 0.52862 0.87116 0.0
H1672 H 0.89551 0.53992 0.86979 0.0
H1673 H 0.88723 0.55974 0.8888 0.0
H1674 H 0.89974 0.61155 0.89273 0.0
H1675 H 0.91822 0.60854 0.90477 0.0
H1676 H 0.91768 0.14864 0.84405 0.0
H1677 H 0.89895 0.14497 0.85484 0.0
H1678 H 0.90937 0.12799 0.91469 0.0
H1679 H 0.92807 0.13122 0.90401 0.0
H1680 H 0.89335 0.07844 0.90277 0.0
H1681 H 0.8822 0.22395 0.88553 0.0
H1682 H 0.88804 0.19923 0.86523 0.0
H1683 H 0.89596 0.20861 0.88678 0.0
C1684 C 0.91598 0.14431 0.85951 0.0
C1685 C 0.92435 0.1404 0.87319 0.0
C1686 C 0.90528 0.14238 0.86567 0.0
C1687 C 0.90277 0.13671 0.88562 0.0
C1688 C 0.91112 0.13254 0.89925 0.0
H1689 H 0.84098 0.11151 0.94732 0.0
H1690 H 0.86029 0.1148 0.94013 0.0
C1691 C 0.9218 0.13448 0.89312 0.0
C1692 C 0.89144 0.13441 0.89224 0.0
H1693 H 0.86795 0.18299 0.89374 0.0
C1694 C 0.8878 0.10137 0.90095 0.0
C1695 C 0.88424 0.16443 0.88992 0.0
C1696 C 0.8878 0.2012 0.88153 0.0
C1697 C 0.87705 0.09708 0.90678 0.0
C1698 C 0.86982 0.12689 0.90413 0.0
C1699 C 0.87352 0.16015 0.89576 0.0
C1700 C 0.85823 0.12361 0.90882 0.0
C1701 C 0.87345 0.06031 0.91509 0.0
C1702 C 0.85069 0.12786 0.8937 0.0
C1703 C 0.83974 0.12622 0.89777 0.0
C1704 C 0.83605 0.1204 0.9171 0.0
C1705 C 0.84359 0.11584 0.93228 0.0
C1706 C 0.85461 0.11755 0.92817 0.0
H1707 H 0.87939 0.03795 0.9123 0.0
H1708 H 0.87239 0.06297 0.93125 0.0
H1709 H 0.86563 0.0519 0.90867 0.0
H1710 H 0.85328 0.13257 0.87868 0.0
H1711 H 0.83416 0.12983 0.88571 0.0
H1712 H 0.16619 0.89079 0.67446 0.0
H1713 H 0.14698 0.89092 0.66671 0.0
H1714 H 0.15434 0.88857 0.6047 0.0
H1715 H 0.1735 0.88874 0.61228 0.0
H1716 H 0.13853 0.94113 0.61511 0.0
H1717 H 0.12961 0.80173 0.64602 0.0
H1718 H 0.13623 0.83305 0.66263 0.0
H1719 H 0.1431 0.8172 0.64095 0.0
C1720 C 0.1637 0.89029 0.65919 0.0
C1721 C 0.17135 0.88961 0.64399 0.0
C1722 C 0.15273 0.89016 0.65478 0.0
C1723 C 0.14924 0.88924 0.63513 0.0
C1724 C 0.15687 0.88912 0.61996 0.0
H1725 H 0.08679 0.88896 0.57655 0.0
H1726 H 0.10605 0.89018 0.58384 0.0
C1727 C 0.16781 0.88917 0.62433 0.0
C1728 C 0.13764 0.88876 0.63028 0.0
H1729 H 0.11479 0.83741 0.63527 0.0
C1730 C 0.13334 0.91843 0.61946 0.0
C1731 C 0.1309 0.85906 0.63593 0.0
C1732 C 0.13518 0.82575 0.64688 0.0
C1733 C 0.12241 0.91957 0.61448 0.0
C1734 C 0.11565 0.88986 0.62015 0.0
C1735 C 0.11998 0.86015 0.63092 0.0
C1736 C 0.10402 0.88939 0.6155 0.0
C1737 C 0.11813 0.953 0.60364 0.0
C1738 C 0.0965 0.8877 0.63082 0.0
C1739 C 0.08554 0.88671 0.6267 0.0
C1740 C 0.08185 0.88725 0.60714 0.0
C1741 C 0.08939 0.88874 0.59176 0.0
C1742 C 0.10039 0.88966 0.59592 0.0
H1743 H 0.12364 0.97714 0.60482 0.0
H1744 H 0.11724 0.94607 0.58781 0.0
H1745 H 0.11015 0.96123 0.6094 0.0
H1746 H 0.09912 0.88732 0.64603 0.0
H1747 H 0.07994 0.8855 0.63888 0.0
H1748 H 0.08712 0.34677 0.67655 0.0
H1749 H 0.10633 0.34735 0.66855 0.0
H1750 H 0.09872 0.34567 0.60663 0.0
H1751 H 0.07962 0.34568 0.61446 0.0
H1752 H 0.11861 0.29659 0.64704 0.0
H1753 H 0.11877 0.43456 0.61084 0.0
H1754 H 0.10773 0.41864 0.62581 0.0
H1755 H 0.10906 0.4031 0.60076 0.0
C1756 C 0.08956 0.34658 0.66125 0.0
C1757 C 0.08186 0.34646 0.64614 0.0
C1758 C 0.10052 0.3469 0.6567 0.0
C1759 C 0.10395 0.34727 0.63699 0.0
C1760 C 0.09626 0.3463 0.62193 0.0
H1761 H 0.16551 0.34677 0.57667 0.0
H1762 H 0.14642 0.3442 0.58534 0.0
C1763 C 0.08534 0.34608 0.62644 0.0
C1764 C 0.11555 0.34816 0.63206 0.0
H1765 H 0.13449 0.39791 0.60706 0.0
C1766 C 0.1221 0.31885 0.63842 0.0
C1767 C 0.12009 0.37721 0.62076 0.0
C1768 C 0.11358 0.41035 0.61429 0.0
C1769 C 0.13303 0.31741 0.63343 0.0
C1770 C 0.13754 0.34631 0.622 0.0
C1771 C 0.131 0.37568 0.61571 0.0
C1772 C 0.14909 0.34705 0.61678 0.0
C1773 C 0.13961 0.28459 0.64006 0.0
C1774 C 0.15689 0.34989 0.63156 0.0
C1775 C 0.16776 0.35143 0.62667 0.0
C1776 C 0.17105 0.35029 0.60687 0.0
C1777 C 0.16323 0.34758 0.59205 0.0
C1778 C 0.15233 0.34615 0.59697 0.0
H1779 H 0.13448 0.26068 0.6443 0.0
H1780 H 0.14522 0.27554 0.62829 0.0
H1781 H 0.14444 0.29265 0.6531 0.0
H1782 H 0.15456 0.35135 0.64691 0.0
H1783 H 0.17359 0.35369 0.63842 0.0
H1784 H 0.82949 0.10001 0.3883 0.0
H1785 H 0.8486 0.09964 0.39625 0.0
H1786 H 0.85631 0.09799 0.33437 0.0
H1787 H 0.83714 0.09867 0.32626 0.0
H1788 H 0.86451 0.0472 0.38593 0.0
H1789 H 0.87348 0.18714 0.35574 0.0
H1790 H 0.85998 0.17147 0.36052 0.0
H1791 H 0.86697 0.15596 0.3389 0.0
C1792 C 0.83524 0.09958 0.37636 0.0
C1793 C 0.83181 0.09957 0.35664 0.0
C1794 C 0.84616 0.09931 0.38094 0.0
C1795 C 0.85387 0.09929 0.36592 0.0
C1796 C 0.85049 0.09866 0.34619 0.0
H1797 H 0.9232 0.10479 0.36394 0.0
H1798 H 0.9041 0.10229 0.35624 0.0
C1799 C 0.83954 0.09886 0.34158 0.0
C1800 C 0.86544 0.09979 0.37099 0.0
H1801 H 0.88825 0.15158 0.36675 0.0
C1802 C 0.86971 0.07003 0.38179 0.0
C1803 C 0.87218 0.12967 0.3656 0.0
C1804 C 0.86794 0.16307 0.3547 0.0
C1805 C 0.88061 0.069 0.38702 0.0
C1806 C 0.88735 0.0989 0.38163 0.0
C1807 C 0.88307 0.12869 0.37087 0.0
C1808 C 0.89895 0.09959 0.38661 0.0
C1809 C 0.88485 0.0355 0.39783 0.0
C1810 C 0.90242 0.09916 0.4063 0.0
C1811 C 0.91338 0.10046 0.41077 0.0
C1812 C 0.92103 0.10252 0.39562 0.0
C1813 C 0.91751 0.10317 0.37596 0.0
C1814 C 0.90659 0.10178 0.37152 0.0
H1815 H 0.8794 0.01126 0.39639 0.0
H1816 H 0.8929 0.02753 0.39227 0.0
H1817 H 0.88559 0.0422 0.41372 0.0
H1818 H 0.89665 0.09826 0.41821 0.0
H1819 H 0.91584 0.10015 0.42606 0.0
H1820 H 0.91572 0.64414 0.32474 0.0
H1821 H 0.89646 0.64507 0.33207 0.0
H1822 H 0.90342 0.64655 0.39425 0.0
H1823 H 0.9226 0.64504 0.38708 0.0
H1824 H 0.88797 0.59516 0.38444 0.0
H1825 H 0.87847 0.73233 0.35153 0.0
H1826 H 0.88502 0.70062 0.33505 0.0
H1827 H 0.89204 0.71747 0.35636 0.0
C1828 C 0.91313 0.64485 0.33996 0.0
C1829 C 0.92068 0.64462 0.35533 0.0
C1830 C 0.90213 0.64559 0.34413 0.0
C1831 C 0.8985 0.64642 0.36372 0.0
C1832 C 0.90603 0.64607 0.37904 0.0
H1833 H 0.83594 0.64687 0.42179 0.0
H1834 H 0.85521 0.64797 0.41452 0.0
C1835 C 0.917 0.64525 0.3749 0.0
C1836 C 0.88687 0.64655 0.36839 0.0
H1837 H 0.86373 0.69595 0.36225 0.0
C1838 C 0.88267 0.61728 0.37966 0.0
C1839 C 0.87997 0.67545 0.36215 0.0
C1840 C 0.8841 0.70845 0.35075 0.0
C1841 C 0.87174 0.61577 0.38459 0.0
C1842 C 0.86485 0.64462 0.37833 0.0
C1843 C 0.86904 0.6739 0.36705 0.0
C1844 C 0.85322 0.64448 0.38291 0.0
C1845 C 0.86761 0.58287 0.39606 0.0
C1846 C 0.84571 0.64301 0.36757 0.0
C1847 C 0.83474 0.64252 0.37167 0.0
C1848 C 0.83103 0.64374 0.39122 0.0
C1849 C 0.83855 0.64573 0.40659 0.0
C1850 C 0.84956 0.64616 0.40246 0.0
H1851 H 0.87333 0.55922 0.39572 0.0
H1852 H 0.86643 0.59108 0.41166 0.0
H1853 H 0.85978 0.57336 0.39016 0.0
H1854 H 0.84836 0.64185 0.35238 0.0
H1855 H 0.82916 0.64108 0.35948 0.0
H1856 H 0.58136 0.40608 0.6251 0.0
H1857 H 0.60067 0.40587 0.63094 0.0
H1858 H 0.60624 0.38098 0.56969 0.0
H1859 H 0.58683 0.38152 0.56364 0.0
H1860 H 0.61504 0.34723 0.62484 0.0
H1861 H 0.62589 0.47069 0.57998 0.0
H1862 H 0.61227 0.46078 0.58724 0.0
H1863 H 0.61833 0.43559 0.56732 0.0
C1864 C 0.58668 0.40075 0.61282 0.0
C1865 C 0.58257 0.39394 0.59388 0.0
C1866 C 0.59772 0.40059 0.6162 0.0
C1867 C 0.6049 0.39382 0.60073 0.0
C1868 C 0.60084 0.38691 0.58177 0.0
H1869 H 0.67453 0.38169 0.59714 0.0
H1870 H 0.65539 0.38117 0.58935 0.0
C1871 C 0.58976 0.38706 0.57836 0.0
C1872 C 0.61659 0.39308 0.60472 0.0
H1873 H 0.64018 0.43688 0.59416 0.0
C1874 C 0.62055 0.36683 0.61815 0.0
C1875 C 0.62374 0.41866 0.59594 0.0
C1876 C 0.61987 0.44826 0.58193 0.0
C1877 C 0.63149 0.36528 0.62295 0.0
C1878 C 0.63863 0.39114 0.61436 0.0
C1879 C 0.63469 0.41715 0.60077 0.0
C1880 C 0.65022 0.39161 0.61925 0.0
C1881 C 0.63533 0.33553 0.63691 0.0
C1882 C 0.65369 0.39814 0.63862 0.0
C1883 C 0.66464 0.39837 0.64313 0.0
C1884 C 0.67231 0.39234 0.62832 0.0
C1885 C 0.66882 0.38634 0.60889 0.0
C1886 C 0.65788 0.38607 0.6044 0.0
H1887 H 0.62951 0.31228 0.63801 0.0
H1888 H 0.6432 0.32423 0.63218 0.0
H1889 H 0.6363 0.34767 0.65182 0.0
H1890 H 0.64793 0.40324 0.65023 0.0
H1891 H 0.66709 0.40329 0.65821 0.0
H1892 H 0.58252 0.89998 0.62649 0.0
H1893 H 0.6016 0.89504 0.61866 0.0
H1894 H 0.60686 0.83319 0.67212 0.0
H1895 H 0.5877 0.83813 0.68016 0.0
H1896 H 0.61965 0.91911 0.64311 0.0
H1897 H 0.61972 0.76793 0.6262 0.0
H1898 H 0.60759 0.79536 0.62628 0.0
H1899 H 0.61366 0.78176 0.64911 0.0
C1900 C 0.58773 0.88536 0.63662 0.0
C1901 C 0.58361 0.86936 0.65393 0.0
C1902 C 0.59862 0.88259 0.63212 0.0
C1903 C 0.6056 0.86344 0.6447 0.0
C1904 C 0.60156 0.84772 0.66211 0.0
H1905 H 0.67504 0.86333 0.64502 0.0
H1906 H 0.656 0.8661 0.65339 0.0
C1907 C 0.59064 0.85072 0.66673 0.0
C1908 C 0.61711 0.8604 0.63957 0.0
H1909 H 0.63643 0.79887 0.62513 0.0
C1910 C 0.62333 0.89284 0.63922 0.0
C1911 C 0.62183 0.82613 0.63427 0.0
C1912 C 0.61538 0.79074 0.6338 0.0
C1913 C 0.63422 0.89183 0.63396 0.0
C1914 C 0.63898 0.8575 0.62895 0.0
C1915 C 0.63274 0.82511 0.62905 0.0
C1916 C 0.65049 0.8548 0.62382 0.0
C1917 C 0.64054 0.92752 0.63357 0.0
C1918 C 0.65369 0.84699 0.60444 0.0
C1919 C 0.6646 0.84555 0.59955 0.0
C1920 C 0.67246 0.85152 0.61405 0.0
C1921 C 0.66919 0.85867 0.6335 0.0
C1922 C 0.65832 0.86035 0.63833 0.0
H1923 H 0.63526 0.95233 0.63425 0.0
H1924 H 0.64603 0.92826 0.64642 0.0
H1925 H 0.64551 0.92913 0.62003 0.0
H1926 H 0.64775 0.84253 0.59306 0.0
H1927 H 0.66687 0.83989 0.58446 0.0
H1928 H 0.41555 0.59505 0.41577 0.0
H1929 H 0.39627 0.59476 0.40874 0.0
H1930 H 0.40295 0.59575 0.34646 0.0
H1931 H 0.4222 0.59578 0.35333 0.0
H1932 H 0.38456 0.6486 0.38693 0.0
H1933 H 0.38178 0.50872 0.35287 0.0
H1934 H 0.39311 0.52304 0.36756 0.0
H1935 H 0.39187 0.53851 0.34252 0.0
C1936 C 0.4129 0.59497 0.40058 0.0
C1937 C 0.42038 0.5953 0.3851 0.0
C1938 C 0.4019 0.59485 0.3966 0.0
C1939 C 0.39819 0.59473 0.37708 0.0
C1940 C 0.40564 0.59514 0.36161 0.0
H1941 H 0.3344 0.59849 0.32429 0.0
H1942 H 0.35383 0.59745 0.33004 0.0
C1943 C 0.41664 0.59535 0.36558 0.0
C1944 C 0.38652 0.59546 0.37291 0.0
H1945 H 0.36626 0.54652 0.35123 0.0
C1946 C 0.38054 0.62623 0.3792 0.0
C1947 C 0.38133 0.56635 0.36269 0.0
C1948 C 0.38731 0.5321 0.35614 0.0
C1949 C 0.36951 0.6289 0.37536 0.0
C1950 C 0.36428 0.59962 0.36532 0.0
C1951 C 0.37028 0.56894 0.3589 0.0
C1952 C 0.35254 0.59991 0.36179 0.0
C1953 C 0.36359 0.66338 0.38178 0.0
C1954 C 0.3454 0.60098 0.37772 0.0
C1955 C 0.33434 0.60167 0.37449 0.0
C1956 C 0.3302 0.60097 0.35524 0.0
C1957 C 0.33736 0.59917 0.33928 0.0
C1958 C 0.34845 0.59855 0.34254 0.0
H1959 H 0.36915 0.6871 0.38409 0.0
H1960 H 0.35746 0.67157 0.37076 0.0
H1961 H 0.35946 0.65781 0.39595 0.0
H1962 H 0.34837 0.60118 0.3927 0.0
H1963 H 0.32904 0.60278 0.38711 0.0
H1964 H 0.4168 0.14537 0.32794 0.0
H1965 H 0.39749 0.14855 0.33469 0.0
H1966 H 0.40388 0.14698 0.39707 0.0
H1967 H 0.42312 0.14407 0.39048 0.0
H1968 H 0.38499 0.09686 0.35632 0.0
H1969 H 0.38384 0.23676 0.39051 0.0
H1970 H 0.39505 0.22074 0.37599 0.0
H1971 H 0.39354 0.2058 0.40109 0.0
C1972 C 0.41408 0.14593 0.34308 0.0
C1973 C 0.42148 0.14461 0.35868 0.0
C1974 C 0.40306 0.14772 0.34691 0.0
C1975 C 0.39927 0.14856 0.36638 0.0
C1976 C 0.40664 0.14712 0.38195 0.0
H1977 H 0.33646 0.1496 0.42217 0.0
H1978 H 0.35574 0.14978 0.41495 0.0
C1979 C 0.41763 0.14524 0.37814 0.0
C1980 C 0.38759 0.14953 0.37049 0.0
H1981 H 0.36801 0.20037 0.3931 0.0
C1982 C 0.38125 0.11959 0.36424 0.0
C1983 C 0.38276 0.17912 0.38093 0.0
C1984 C 0.38911 0.21261 0.38739 0.0
C1985 C 0.37024 0.11809 0.36849 0.0
C1986 C 0.3654 0.14769 0.37893 0.0
C1987 C 0.37174 0.17767 0.38514 0.0
C1988 C 0.35374 0.14824 0.38331 0.0
C1989 C 0.36394 0.08436 0.36218 0.0
C1990 C 0.34624 0.14803 0.36793 0.0
C1991 C 0.33526 0.14784 0.37201 0.0
C1992 C 0.33156 0.14818 0.39156 0.0
C1993 C 0.33907 0.14922 0.40697 0.0
C1994 C 0.35008 0.14935 0.40286 0.0
H1995 H 0.36925 0.06022 0.35927 0.0
H1996 H 0.35798 0.07636 0.37356 0.0
H1997 H 0.35956 0.09078 0.34838 0.0
H1998 H 0.34888 0.14803 0.35274 0.0
H1999 H 0.32968 0.14731 0.3598 0.0
H2000 H 0.67412 0.89214 0.10805 0.0
H2001 H 0.65487 0.89507 0.10149 0.0
H2002 H 0.6486 0.90295 0.16379 0.0
H2003 H 0.66791 0.90049 0.17048 0.0
H2004 H 0.63896 0.84685 0.11418 0.0
H2005 H 0.63136 0.98979 0.14131 0.0
H2006 H 0.64469 0.97253 0.13642 0.0
H2007 H 0.6379 0.96005 0.1588 0.0
C2008 C 0.66865 0.89471 0.12037 0.0
C2009 C 0.67253 0.89623 0.13979 0.0
C2010 C 0.65765 0.89634 0.11658 0.0
C2011 C 0.65031 0.89974 0.13212 0.0
C2012 C 0.65414 0.90109 0.15155 0.0
H2013 H 0.58126 0.9016 0.14158 0.0
H2014 H 0.60063 0.90195 0.14695 0.0
C2015 C 0.66517 0.89947 0.15536 0.0
C2016 C 0.63863 0.90068 0.12793 0.0
H2017 H 0.61607 0.9535 0.13333 0.0
C2018 C 0.63396 0.87025 0.11826 0.0
C2019 C 0.63213 0.93127 0.13324 0.0
C2020 C 0.63676 0.96544 0.14286 0.0
C2021 C 0.62293 0.8692 0.11415 0.0
C2022 C 0.61642 0.89967 0.11959 0.0
C2023 C 0.62109 0.93019 0.12917 0.0
C2024 C 0.60469 0.89993 0.11601 0.0
C2025 C 0.61828 0.83509 0.10451 0.0
C2026 C 0.60054 0.89915 0.09679 0.0
C2027 C 0.58943 0.89898 0.09365 0.0
C2028 C 0.58232 0.89967 0.1097 0.0
C2029 C 0.58652 0.90093 0.1289 0.0
C2030 C 0.59759 0.90119 0.13201 0.0
H2031 H 0.62385 0.81106 0.10529 0.0
H2032 H 0.61057 0.82719 0.11154 0.0
H2033 H 0.61668 0.84109 0.08875 0.0
H2034 H 0.60588 0.89878 0.08423 0.0
H2035 H 0.58643 0.89816 0.0787 0.0
H2036 H 0.66701 0.34396 0.08568 0.0
H2037 H 0.64776 0.34432 0.0931 0.0
H2038 H 0.65481 0.35022 0.15517 0.0
H2039 H 0.67401 0.35031 0.14789 0.0
H2040 H 0.63577 0.29445 0.11622 0.0
H2041 H 0.63414 0.43718 0.1469 0.0
H2042 H 0.64539 0.42045 0.1327 0.0
H2043 H 0.644 0.40776 0.15817 0.0
C2044 C 0.66445 0.34541 0.1009 0.0
C2045 C 0.67202 0.34732 0.1162 0.0
C2046 C 0.65346 0.34558 0.10512 0.0
C2047 C 0.64986 0.34789 0.12467 0.0
C2048 C 0.65741 0.34921 0.13996 0.0
H2049 H 0.58664 0.35381 0.17948 0.0
H2050 H 0.60599 0.35051 0.17308 0.0
C2051 C 0.66838 0.34904 0.13577 0.0
C2052 C 0.63822 0.34836 0.12912 0.0
H2053 H 0.61847 0.40047 0.15037 0.0
C2054 C 0.63197 0.31767 0.12362 0.0
C2055 C 0.6333 0.37866 0.13883 0.0
C2056 C 0.63952 0.41305 0.14436 0.0
C2057 C 0.62095 0.31624 0.1278 0.0
C2058 C 0.61603 0.34657 0.13747 0.0
C2059 C 0.62228 0.37719 0.14305 0.0
C2060 C 0.60434 0.34758 0.14141 0.0
C2061 C 0.6147 0.28202 0.12212 0.0
C2062 C 0.59703 0.34739 0.12572 0.0
C2063 C 0.58602 0.34932 0.12932 0.0
C2064 C 0.5821 0.35163 0.1487 0.0
C2065 C 0.58942 0.35191 0.16441 0.0
C2066 C 0.60046 0.35008 0.16078 0.0
H2067 H 0.62005 0.25777 0.11971 0.0
H2068 H 0.60873 0.27479 0.13362 0.0
H2069 H 0.61033 0.28745 0.10819 0.0
H2070 H 0.59985 0.34624 0.11065 0.0
H2071 H 0.58058 0.34922 0.11689 0.0
H2072 H 0.4227 0.1091 0.86114 0.0
H2073 H 0.4034 0.10951 0.85472 0.0
H2074 H 0.39728 0.07899 0.91503 0.0
H2075 H 0.41665 0.07881 0.9217 0.0
H2076 H 0.38602 0.03581 0.88044 0.0
H2077 H 0.38173 0.18971 0.88079 0.0
H2078 H 0.39291 0.1702 0.86754 0.0
H2079 H 0.39238 0.16622 0.89383 0.0
C2080 C 0.41726 0.10243 0.87306 0.0
C2081 C 0.42119 0.09399 0.89195 0.0
C2082 C 0.40625 0.10273 0.86936 0.0
C2083 C 0.39896 0.09444 0.88442 0.0
C2084 C 0.40282 0.08551 0.90324 0.0
H2085 H 0.3301 0.12166 0.88873 0.0
H2086 H 0.34932 0.11887 0.89563 0.0
C2087 C 0.41386 0.08549 0.90702 0.0
C2088 C 0.3873 0.09536 0.88043 0.0
H2089 H 0.36649 0.15474 0.87179 0.0
C2090 C 0.38172 0.06174 0.87857 0.0
C2091 C 0.38177 0.12929 0.87806 0.0
C2092 C 0.38744 0.16605 0.88024 0.0
C2093 C 0.37071 0.06122 0.87417 0.0
C2094 C 0.36521 0.09517 0.87155 0.0
C2095 C 0.37077 0.12878 0.87367 0.0
C2096 C 0.35358 0.09642 0.86717 0.0
C2097 C 0.36499 0.02448 0.87257 0.0
C2098 C 0.34964 0.08502 0.84878 0.0
C2099 C 0.33864 0.08683 0.84471 0.0
C2100 C 0.33143 0.09991 0.85903 0.0
C2101 C 0.33544 0.11134 0.87741 0.0
C2102 C 0.34642 0.10981 0.88139 0.0
H2103 H 0.36997 0.00111 0.87805 0.0
H2104 H 0.35736 0.02517 0.881 0.0
H2105 H 0.36298 0.01908 0.85691 0.0
H2106 H 0.35508 0.07495 0.83755 0.0
H2107 H 0.33578 0.07788 0.83043 0.0
H2108 H 0.42382 0.63418 0.88797 0.0
H2109 H 0.40465 0.63705 0.89526 0.0
H2110 H 0.39775 0.64807 0.83333 0.0
H2111 H 0.41698 0.64487 0.82587 0.0
H2112 H 0.38979 0.69368 0.88644 0.0
H2113 H 0.37885 0.56025 0.85067 0.0
H2114 H 0.39253 0.57246 0.85641 0.0
H2115 H 0.38604 0.59223 0.83526 0.0
C2116 C 0.41823 0.63716 0.87588 0.0
C2117 C 0.42191 0.63911 0.85632 0.0
C2118 C 0.40728 0.63886 0.88008 0.0
C2119 C 0.39977 0.64229 0.86483 0.0
C2120 C 0.40341 0.64476 0.8453 0.0
H2121 H 0.33039 0.64967 0.86121 0.0
H2122 H 0.34956 0.65058 0.85385 0.0
C2123 C 0.41439 0.64311 0.84107 0.0
C2124 C 0.38816 0.64351 0.86949 0.0
H2125 H 0.36458 0.59716 0.86261 0.0
C2126 C 0.38427 0.67256 0.88128 0.0
C2127 C 0.38099 0.61588 0.86275 0.0
C2128 C 0.38479 0.58323 0.85071 0.0
C2129 C 0.37335 0.67509 0.88623 0.0
C2130 C 0.36618 0.64741 0.87952 0.0
C2131 C 0.37008 0.61836 0.86774 0.0
C2132 C 0.35457 0.64818 0.88431 0.0
C2133 C 0.36956 0.70781 0.89822 0.0
C2134 C 0.35099 0.64639 0.90391 0.0
C2135 C 0.34001 0.64601 0.90819 0.0
C2136 C 0.33242 0.64708 0.89291 0.0
C2137 C 0.33603 0.64885 0.87332 0.0
C2138 C 0.34699 0.64933 0.86907 0.0
H2139 H 0.37539 0.73112 0.89778 0.0
H2140 H 0.36168 0.71799 0.89287 0.0
H2141 H 0.36861 0.69916 0.9138 0.0
H2142 H 0.3567 0.6447 0.91589 0.0
H2143 H 0.33746 0.64439 0.92341 0.0
H2144 H 0.05086 0.97993 0.16439 0.0
H2145 H 0.04947 0.04631 0.15743 0.0
H2146 H 0.03548 0.02202 0.10083 0.0
H2147 H 0.03674 0.95538 0.10776 0.0
H2148 H 0.05929 0.08304 0.12595 0.0
H2149 H 0.01503 0.1003 0.12449 0.0
H2150 H 0.02148 0.06029 0.13528 0.0
H2151 H 0.02013 0.06388 0.10902 0.0
C2152 C 0.04739 0.98869 0.15052 0.0
C2153 C 0.0439 0.9625 0.13661 0.0
C2154 C 0.04661 0.0266 0.14659 0.0
C2155 C 0.04227 0.03901 0.12873 0.0
C2156 C 0.03867 0.01297 0.11485 0.0
H2157 H 0.05182 0.25475 0.07565 0.0
H2158 H 0.0508 0.18839 0.08294 0.0
C2159 C 0.03946 0.97496 0.11878 0.0
C2160 C 0.04209 0.07917 0.12426 0.0
H2161 H 0.02545 0.152 0.1142 0.0
C2162 C 0.05189 0.09816 0.12342 0.0
C2163 C 0.03241 0.09877 0.12116 0.0
C2164 C 0.02164 0.07993 0.12268 0.0
C2165 C 0.0523 0.13624 0.11931 0.0
C2166 C 0.04266 0.15566 0.1157 0.0
C2167 C 0.03283 0.13685 0.11682 0.0
C2168 C 0.04267 0.19561 0.11081 0.0
C2169 C 0.06305 0.15552 0.11909 0.0
C2170 C 0.03816 0.22147 0.12385 0.0
C2171 C 0.03872 0.25944 0.11972 0.0
C2172 C 0.04373 0.272 0.10243 0.0
C2173 C 0.04796 0.24591 0.08914 0.0
C2174 C 0.04742 0.20802 0.0933 0.0
H2175 H 0.06933 0.13878 0.12653 0.0
H2176 H 0.06558 0.16005 0.10361 0.0
H2177 H 0.06254 0.18303 0.12641 0.0
H2178 H 0.03444 0.2123 0.13741 0.0
H2179 H 0.03536 0.27893 0.13018 0.0
H2180 H 0.21123 0.97024 0.13556 0.0
H2181 H 0.21229 0.03739 0.14092 0.0
H2182 H 0.20781 0.056 0.07872 0.0
H2183 H 0.2064 0.98909 0.07337 0.0
H2184 H 0.22578 0.09048 0.12682 0.0
H2185 H 0.18418 0.11866 0.10194 0.0
H2186 H 0.18904 0.07231 0.10652 0.0
H2187 H 0.1922 0.0955 0.08378 0.0
C2188 C 0.21048 0.98869 0.12305 0.0
C2189 C 0.20861 0.97454 0.10409 0.0
C2190 C 0.2111 0.02699 0.12612 0.0
C2191 C 0.2099 0.05168 0.11028 0.0
C2192 C 0.20846 0.03749 0.09123 0.0
H2193 H 0.21133 0.29366 0.10439 0.0
H2194 H 0.213 0.22742 0.09643 0.0
C2195 C 0.20772 -0.00074 0.08818 0.0
C2196 C 0.21005 0.09226 0.11374 0.0
H2197 H 0.19511 0.17109 0.10842 0.0
C2198 C 0.21907 0.1081 0.12281 0.0
C2199 C 0.20126 0.11516 0.10856 0.0
C2200 C 0.19108 0.09954 0.09984 0.0
C2201 C 0.21955 0.1463 0.12675 0.0
C2202 C 0.2108 0.16903 0.12146 0.0
C2203 C 0.20184 0.1534 0.11224 0.0
C2204 C 0.21053 0.20887 0.12637 0.0
C2205 C 0.22937 0.16226 0.13655 0.0
C2206 C 0.20857 0.22001 0.1458 0.0
C2207 C 0.20751 0.2576 0.15034 0.0
C2208 C 0.20844 0.28463 0.13552 0.0
C2209 C 0.21061 0.2734 0.1161 0.0
C2210 C 0.21156 0.2357 0.11153 0.0
H2211 H 0.23609 0.14207 0.13701 0.0
H2212 H 0.23205 0.18765 0.12869 0.0
H2213 H 0.22734 0.17034 0.15188 0.0
H2214 H 0.20766 0.19955 0.15736 0.0
H2215 H 0.20586 0.26546 0.16543 0.0
H2216 H 0.97727 0.71183 0.86818 0.0
H2217 H 0.98057 0.77852 0.86406 0.0
H2218 H 0.95277 0.80268 0.89967 0.0
H2219 H 0.94971 0.73649 0.90443 0.0
H2220 H 0.96891 0.82995 0.84724 0.0
H2221 H 0.97414 0.86956 0.92503 0.0
H2222 H 0.97407 0.82172 0.91716 0.0
H2223 H 0.96165 0.84576 0.92189 0.0
C2224 C 0.97194 0.73147 0.87525 0.0
C2225 C 0.96328 0.71907 0.88673 0.0
C2226 C 0.97384 0.76949 0.87292 0.0
C2227 C 0.96708 0.79563 0.88196 0.0
C2228 C 0.95832 0.78313 0.89313 0.0
H2229 H 0.94951 0.01212 0.84568 0.0
H2230 H 0.95274 0.94597 0.85028 0.0
C2231 C 0.95652 0.74525 0.89568 0.0
C2232 C 0.96869 0.83596 0.87881 0.0
H2233 H 0.96871 0.919 0.90294 0.0
C2234 C 0.96906 0.84939 0.85943 0.0
C2235 C 0.96918 0.86137 0.89469 0.0
C2236 C 0.96987 0.84877 0.91584 0.0
C2237 C 0.96922 0.8876 0.8555 0.0
C2238 C 0.96862 0.913 0.87136 0.0
C2239 C 0.96895 0.89957 0.89075 0.0
C2240 C 0.96694 0.9533 0.86822 0.0
C2241 C 0.96995 0.90022 0.83436 0.0
C2242 C 0.97358 0.97956 0.87743 0.0
C2243 C 0.97159 0.01754 0.8752 0.0
C2244 C 0.96294 0.02978 0.86365 0.0
C2245 C 0.9563 0.00348 0.85449 0.0
C2246 C 0.95821 0.96563 0.85695 0.0
H2247 H 0.97431 0.87956 0.82521 0.0
H2248 H 0.96175 0.90298 0.82821 0.0
H2249 H 0.97409 0.9274 0.83307 0.0
H2250 H 0.9803 0.97067 0.88636 0.0
H2251 H 0.97683 0.03727 0.88242 0.0
H2252 H 0.79268 0.04797 0.86996 0.0
H2253 H 0.78999 0.98838 0.85316 0.0
H2254 H 0.79466 0.93066 0.9081 0.0
H2255 H 0.79747 0.98988 0.92494 0.0
H2256 H 0.80665 0.92818 0.8551 0.0
H2257 H 0.76644 0.8859 0.88223 0.0
H2258 H 0.77074 0.9338 0.88131 0.0
H2259 H 0.7755 0.90381 0.90052 0.0
C2260 C 0.793 0.02258 0.87848 0.0
C2261 C 0.79531 0.02346 0.89873 0.0
C2262 C 0.79145 0.98868 0.86888 0.0
C2263 C 0.79202 0.95536 0.87948 0.0
C2264 C 0.79405 0.95623 0.89977 0.0
H2265 H 0.79457 0.72201 0.86756 0.0
H2266 H 0.7919 0.78683 0.87683 0.0
C2267 C 0.79571 0.99001 0.90932 0.0
C2268 C 0.79143 0.91934 0.86922 0.0
H2269 H 0.77709 0.83891 0.86721 0.0
C2270 C 0.80012 0.90877 0.85741 0.0
C2271 C 0.78291 0.89431 0.87246 0.0
C2272 C 0.77331 0.90498 0.8847 0.0
C2273 C 0.80082 0.87284 0.84958 0.0
C2274 C 0.79241 0.8473 0.85324 0.0
C2275 C 0.78351 0.85853 0.86441 0.0
C2276 C 0.79316 0.80797 0.84708 0.0
C2277 C 0.81082 0.862 0.83845 0.0
C2278 C 0.7945 0.79826 0.82722 0.0
C2279 C 0.79618 0.76123 0.82191 0.0
C2280 C 0.79636 0.73334 0.83637 0.0
C2281 C 0.79451 0.74294 0.85611 0.0
C2282 C 0.79295 0.77995 0.86142 0.0
H2283 H 0.81748 0.88193 0.84097 0.0
H2284 H 0.81358 0.83388 0.84283 0.0
H2285 H 0.80907 0.86163 0.82245 0.0
H2286 H 0.79442 0.81936 0.81586 0.0
H2287 H 0.79747 0.7545 0.80655 0.0
H2288 H 0.03748 0.77819 0.63708 0.0
H2289 H 0.0364 0.71166 0.64442 0.0
H2290 H 0.04939 0.68649 0.5871 0.0
H2291 H 0.0506 0.75279 0.57973 0.0
H2292 H 0.0258 0.65232 0.62403 0.0
H2293 H 0.07007 0.63524 0.62604 0.0
H2294 H 0.06367 0.68014 0.6269 0.0
H2295 H 0.06494 0.65591 0.6039 0.0
C2296 C 0.04005 0.75845 0.62602 0.0
C2297 C 0.04421 0.77063 0.60791 0.0
C2298 C 0.03941 0.72053 0.63021 0.0
C2299 C 0.04296 0.69432 0.6164 0.0
C2300 C 0.04678 0.70638 0.59807 0.0
H2301 H 0.03559 0.45393 0.61795 0.0
H2302 H 0.03424 0.52018 0.61001 0.0
C2303 C 0.04743 0.74423 0.59387 0.0
C2304 C 0.04299 0.65438 0.62137 0.0
H2305 H 0.05966 0.58051 0.62841 0.0
C2306 C 0.03319 0.63654 0.62501 0.0
C2307 C 0.05267 0.63413 0.62282 0.0
C2308 C 0.06345 0.6523 0.61989 0.0
C2309 C 0.03281 0.59867 0.62985 0.0
C2310 C 0.04247 0.5783 0.6309 0.0
C2311 C 0.05227 0.59625 0.62744 0.0
C2312 C 0.04269 0.53847 0.63608 0.0
C2313 C 0.02211 0.58088 0.63417 0.0
C2314 C 0.04796 0.52696 0.65325 0.0
C2315 C 0.04877 0.48931 0.65777 0.0
C2316 C 0.04439 0.46246 0.64511 0.0
C2317 C 0.03901 0.47404 0.62799 0.0
C2318 C 0.03819 0.51181 0.6235 0.0
H2319 H 0.01575 0.60188 0.63679 0.0
H2320 H 0.01968 0.56358 0.62141 0.0
H2321 H 0.02267 0.5625 0.64726 0.0
H2322 H 0.05153 0.54717 0.66309 0.0
H2323 H 0.05297 0.48123 0.67106 0.0
H2324 H 0.19556 0.48736 0.58875 0.0
H2325 H 0.19834 0.55299 0.59591 0.0
H2326 H 0.227 0.526 0.62852 0.0
H2327 H 0.22394 0.45988 0.62211 0.0
H2328 H 0.21566 0.57337 0.64826 0.0
H2329 H 0.21844 0.62582 0.57218 0.0
H2330 H 0.20613 0.60099 0.57547 0.0
H2331 H 0.21874 0.57689 0.57777 0.0
C2332 C 0.20249 0.49544 0.59733 0.0
C2333 C 0.20955 0.4686 0.60483 0.0
C2334 C 0.20414 0.53302 0.60125 0.0
C2335 C 0.21304 0.5446 0.61232 0.0
C2336 C 0.22013 0.51776 0.6198 0.0
H2337 H 0.22318 0.78531 0.62216 0.0
H2338 H 0.22608 0.71951 0.61455 0.0
C2339 C 0.21837 0.48004 0.61615 0.0
C2340 C 0.21449 0.58446 0.61714 0.0
H2341 H 0.21371 0.6712 0.59701 0.0
C2342 C 0.21541 0.59473 0.63701 0.0
C2343 C 0.21444 0.61242 0.60249 0.0
C2344 C 0.21451 0.6034 0.58079 0.0
C2345 C 0.2157 0.63214 0.64268 0.0
C2346 C 0.21463 0.66005 0.62814 0.0
C2347 C 0.21432 0.64984 0.60821 0.0
C2348 C 0.21325 0.69977 0.63333 0.0
C2349 C 0.21714 0.64122 0.66421 0.0
C2350 C 0.20502 0.71056 0.64621 0.0
C2351 C 0.20346 0.74792 0.65076 0.0
C2352 C 0.20995 0.77534 0.64217 0.0
C2353 C 0.21808 0.76469 0.62901 0.0
C2354 C 0.21974 0.72716 0.62467 0.0
H2355 H 0.22169 0.61904 0.6719 0.0
H2356 H 0.22141 0.66797 0.66628 0.0
H2357 H 0.20915 0.6432 0.67133 0.0
H2358 H 0.19967 0.69013 0.65254 0.0
H2359 H 0.19705 0.75537 0.66077 0.0
H2360 H 0.95037 0.50876 0.33187 0.0
H2361 H 0.95159 0.4431 0.34066 0.0
H2362 H 0.96725 0.47213 0.39511 0.0
H2363 H 0.96612 0.53809 0.38637 0.0
H2364 H 0.97674 0.41052 0.37363 0.0
H2365 H 0.9328 0.39591 0.3846 0.0
H2366 H 0.93667 0.41564 0.36136 0.0
H2367 H 0.9394 0.44047 0.38374 0.0
C2368 C 0.95412 0.5012 0.34568 0.0
C2369 C 0.95808 0.52854 0.35851 0.0
C2370 C 0.95477 0.46371 0.35069 0.0
C2371 C 0.95938 0.45294 0.36863 0.0
C2372 C 0.96363 0.48003 0.38123 0.0
H2373 H 0.95098 0.23808 0.42374 0.0
H2374 H 0.95239 0.30448 0.41682 0.0
C2375 C 0.96296 0.51761 0.37624 0.0
C2376 C 0.9595 0.41339 0.37437 0.0
H2377 H 0.94304 0.34049 0.38494 0.0
C2378 C 0.96939 0.39515 0.37619 0.0
C2379 C 0.94989 0.3937 0.37791 0.0
C2380 C 0.93908 0.41242 0.37699 0.0
C2381 C 0.9699 0.35732 0.38107 0.0
C2382 C 0.96027 0.33736 0.38398 0.0
C2383 C 0.9504 0.35585 0.38255 0.0
C2384 C 0.96018 0.29726 0.38862 0.0
C2385 C 0.98073 0.33911 0.38328 0.0
C2386 C 0.9641 0.27124 0.37503 0.0
C2387 C 0.96331 0.23324 0.37894 0.0
C2388 C 0.95852 0.22073 0.39645 0.0
C2389 C 0.95472 0.24689 0.41012 0.0
C2390 C 0.95551 0.28481 0.4062 0.0
H2391 H 0.9872 0.3599 0.38542 0.0
H2392 H 0.98077 0.31958 0.39592 0.0
H2393 H 0.98256 0.32308 0.36974 0.0
H2394 H 0.96754 0.2803 0.3612 0.0
H2395 H 0.96627 0.21369 0.36811 0.0
H2396 H 0.80326 0.23583 0.33013 0.0
H2397 H 0.80195 0.30198 0.33781 0.0
H2398 H 0.78419 0.27636 0.39055 0.0
H2399 H 0.78543 0.20991 0.38295 0.0
H2400 H 0.77577 0.33742 0.36657 0.0
H2401 H 0.81916 0.35037 0.38386 0.0
H2402 H 0.81615 0.32926 0.36052 0.0
H2403 H 0.81236 0.30616 0.3829 0.0
C2404 C 0.79903 0.24425 0.34332 0.0
C2405 C 0.79451 0.21773 0.35602 0.0
C2406 C 0.79832 0.28201 0.3477 0.0
C2407 C 0.79309 0.29388 0.36485 0.0
C2408 C 0.78829 0.2676 0.37728 0.0
H2409 H 0.80004 0.50981 0.41905 0.0
H2410 H 0.7987 0.44337 0.41227 0.0
C2411 C 0.78902 0.22974 0.37294 0.0
C2412 C 0.79289 0.3337 0.37 0.0
H2413 H 0.80916 0.40616 0.38226 0.0
C2414 C 0.78304 0.35252 0.37007 0.0
C2415 C 0.8024 0.35304 0.37476 0.0
C2416 C 0.81312 0.33371 0.3757 0.0
C2417 C 0.78249 0.39058 0.37444 0.0
C2418 C 0.79205 0.41015 0.37864 0.0
C2419 C 0.80186 0.3911 0.3789 0.0
C2420 C 0.79212 0.45037 0.38303 0.0
C2421 C 0.77169 0.4094 0.37479 0.0
C2422 C 0.78885 0.4763 0.36882 0.0
C2423 C 0.78959 0.51434 0.37267 0.0
C2424 C 0.79369 0.52698 0.39074 0.0
C2425 C 0.79685 0.50091 0.40499 0.0
C2426 C 0.79609 0.46297 0.40115 0.0
H2427 H 0.76504 0.38902 0.37615 0.0
H2428 H 0.77116 0.42943 0.38718 0.0
H2429 H 0.77055 0.42498 0.36086 0.0
H2430 H 0.78596 0.46713 0.3546 0.0
H2431 H 0.78714 0.53382 0.36139 0.0
H2432 H 0.55254 0.00217 0.68573 0.0
H2433 H 0.55067 0.06912 0.68063 0.0
H2434 H 0.53414 0.04884 0.6259 0.0
H2435 H 0.53584 0.98196 0.63104 0.0
H2436 H 0.5594 0.10678 0.64974 0.0
H2437 H 0.51546 0.12841 0.65112 0.0
H2438 H 0.52172 0.08685 0.66058 0.0
H2439 H 0.5194 0.09204 0.63457 0.0
C2440 C 0.54836 0.012 0.67277 0.0
C2441 C 0.54435 0.98689 0.65875 0.0
C2442 C 0.54729 0.05021 0.66989 0.0
C2443 C 0.54214 0.06392 0.65303 0.0
C2444 C 0.53792 0.03886 0.63925 0.0
H2445 H 0.55206 0.25866 0.58575 0.0
H2446 H 0.55074 0.19694 0.60038 0.0
C2447 C 0.53897 0.00066 0.64212 0.0
C2448 C 0.54214 0.1042 0.6488 0.0
H2449 H 0.52596 0.1766 0.6358 0.0
C2450 C 0.55207 0.12218 0.647 0.0
C2451 C 0.53258 0.12435 0.64543 0.0
C2452 C 0.52168 0.10702 0.64822 0.0
C2453 C 0.55272 0.15929 0.64096 0.0
C2454 C 0.5432 0.17868 0.63639 0.0
C2455 C 0.53324 0.1614 0.63913 0.0
C2456 C 0.54354 0.21607 0.62752 0.0
C2457 C 0.5636 0.17728 0.63915 0.0
C2458 C 0.53968 0.24706 0.63782 0.0
C2459 C 0.54044 0.2825 0.62949 0.0
C2460 C 0.54497 0.28723 0.6107 0.0
C2461 C 0.54857 0.25592 0.60028 0.0
C2462 C 0.54785 0.22067 0.60863 0.0
H2463 H 0.56977 0.16226 0.64787 0.0
H2464 H 0.56613 0.17697 0.62349 0.0
H2465 H 0.56333 0.20663 0.64413 0.0
H2466 H 0.53628 0.24388 0.65239 0.0
H2467 H 0.53757 0.30615 0.63781 0.0
H2468 H 0.71808 0.2774 0.60927 0.0
H2469 H 0.71922 0.20977 0.60609 0.0
H2470 H 0.70454 0.19703 0.66317 0.0
H2471 H 0.70329 0.26455 0.66642 0.0
H2472 H 0.72894 0.1542 0.63127 0.0
H2473 H 0.68468 0.13968 0.62464 0.0
H2474 H 0.69144 0.18368 0.62186 0.0
H2475 H 0.68933 0.16448 0.64595 0.0
C2476 C 0.71517 0.26019 0.62121 0.0
C2477 C 0.71051 0.27621 0.63802 0.0
C2478 C 0.71585 0.22162 0.61939 0.0
C2479 C 0.71184 0.19854 0.63429 0.0
C2480 C 0.70754 0.21445 0.6514 0.0
H2481 H 0.7176 0.95658 0.64077 0.0
H2482 H 0.71902 0.0232 0.64783 0.0
C2483 C 0.70686 0.25299 0.65324 0.0
C2484 C 0.71171 0.15785 0.63152 0.0
H2485 H 0.69481 0.08443 0.625 0.0
C2486 C 0.7215 0.13883 0.62997 0.0
C2487 C 0.70197 0.13811 0.62964 0.0
C2488 C 0.69124 0.15745 0.63044 0.0
C2489 C 0.72178 0.10038 0.62658 0.0
C2490 C 0.71203 0.08065 0.62485 0.0
C2491 C 0.70227 0.0997 0.62646 0.0
C2492 C 0.71172 0.04048 0.62042 0.0
C2493 C 0.73248 0.0813 0.62434 0.0
C2494 C 0.70707 0.02828 0.60279 0.0
C2495 C 0.70622 0.99044 0.59877 0.0
C2496 C 0.70995 0.96406 0.61238 0.0
C2497 C 0.7147 0.97631 0.62998 0.0
C2498 C 0.71556 0.01429 0.634 0.0
H2499 H 0.73912 0.10147 0.62222 0.0
H2500 H 0.73418 0.0649 0.63781 0.0
H2501 H 0.73235 0.06187 0.61165 0.0
H2502 H 0.70403 0.04811 0.59217 0.0
H2503 H 0.70251 0.98187 0.58508 0.0
H2504 H 0.45096 0.72727 0.41678 0.0
H2505 H 0.45221 0.79428 0.41143 0.0
H2506 H 0.46725 0.77528 0.35516 0.0
H2507 H 0.46606 0.70804 0.3604 0.0
H2508 H 0.47694 0.83333 0.3798 0.0
H2509 H 0.43288 0.84813 0.3701 0.0
H2510 H 0.43707 0.82442 0.39207 0.0
H2511 H 0.43963 0.80391 0.36844 0.0
C2512 C 0.45459 0.73733 0.40331 0.0
C2513 C 0.45834 0.71244 0.38893 0.0
C2514 C 0.45528 0.77558 0.40028 0.0
C2515 C 0.45971 0.78958 0.38282 0.0
C2516 C 0.46378 0.76489 0.36871 0.0
H2517 H 0.45132 0.00699 0.33224 0.0
H2518 H 0.45265 0.94052 0.33891 0.0
C2519 C 0.46307 0.72657 0.37171 0.0
C2520 C 0.45972 0.82997 0.37899 0.0
H2521 H 0.44305 0.90341 0.3707 0.0
C2522 C 0.46955 0.84875 0.37781 0.0
C2523 C 0.45005 0.84976 0.37621 0.0
C2524 C 0.43929 0.8306 0.37659 0.0
C2525 C 0.46996 0.88709 0.3741 0.0
C2526 C 0.46027 0.90698 0.37168 0.0
C2527 C 0.45046 0.88807 0.3727 0.0
C2528 C 0.46009 0.94726 0.36745 0.0
C2529 C 0.48072 0.9059 0.37242 0.0
C2530 C 0.46383 0.97305 0.38133 0.0
C2531 C 0.46308 0.01115 0.37756 0.0
C2532 C 0.45852 0.02395 0.3599 0.0
C2533 C 0.45487 -0.00201 0.34599 0.0
C2534 C 0.45562 0.96002 0.34976 0.0
H2535 H 0.48732 0.88556 0.37036 0.0
H2536 H 0.4808 0.92575 0.35991 0.0
H2537 H 0.48233 0.92175 0.38611 0.0
H2538 H 0.46714 0.96374 0.39522 0.0
H2539 H 0.46592 0.03054 0.38857 0.0
H2540 H 0.28652 0.71303 0.3876 0.0
H2541 H 0.28551 0.77983 0.39427 0.0
H2542 H 0.29823 0.8028 0.33649 0.0
H2543 H 0.29939 0.73629 0.32981 0.0
H2544 H 0.30882 0.8399 0.36675 0.0
H2545 H 0.26469 0.85823 0.37211 0.0
H2546 H 0.27012 0.82211 0.3874 0.0
H2547 H 0.27078 0.81776 0.36108 0.0
C2548 C 0.28901 0.73236 0.37627 0.0
C2549 C 0.29304 0.71949 0.3582 0.0
C2550 C 0.28837 0.77046 0.38005 0.0
C2551 C 0.29168 0.79619 0.36577 0.0
C2552 C 0.2956 0.78336 0.34766 0.0
H2553 H 0.28551 0.0366 0.36388 0.0
H2554 H 0.28425 0.96995 0.35679 0.0
C2555 C 0.29625 0.74537 0.34388 0.0
C2556 C 0.29168 0.83645 0.37004 0.0
H2557 H 0.27547 0.90987 0.38124 0.0
C2558 C 0.30153 0.85523 0.36988 0.0
C2559 C 0.28214 0.85634 0.37391 0.0
C2560 C 0.27131 0.83774 0.37349 0.0
C2561 C 0.30212 0.89337 0.37375 0.0
C2562 C 0.29262 0.91308 0.37814 0.0
C2563 C 0.28274 0.89449 0.37801 0.0
C2564 C 0.29286 0.95306 0.38293 0.0
C2565 C 0.31289 0.91242 0.37293 0.0
C2566 C 0.29794 0.96535 0.40013 0.0
C2567 C 0.29867 0.00323 0.40422 0.0
C2568 C 0.2943 0.02944 0.39116 0.0
C2569 C 0.28898 0.01701 0.37416 0.0
C2570 C 0.28823 0.97904 0.37011 0.0
H2571 H 0.31897 0.89533 0.36514 0.0
H2572 H 0.31225 0.93971 0.36543 0.0
H2573 H 0.31579 0.91738 0.38815 0.0
H2574 H 0.30144 0.94562 0.41031 0.0
H2575 H 0.30277 0.01196 0.41748 0.0
H2576 H 0.54216 0.46681 0.11525 0.0
H2577 H 0.54143 0.53364 0.10857 0.0
H2578 H 0.54682 0.55631 0.17014 0.0
H2579 H 0.54787 0.48978 0.1768 0.0
H2580 H 0.52834 0.58855 0.12238 0.0
H2581 H 0.57039 0.61609 0.14449 0.0
H2582 H 0.56528 0.56974 0.14091 0.0
H2583 H 0.56268 0.59419 0.16352 0.0
C2584 C 0.54318 0.4861 0.12734 0.0
C2585 C 0.54519 0.47317 0.1465 0.0
C2586 C 0.54275 0.5242 0.12351 0.0
C2587 C 0.5443 0.54991 0.13879 0.0
C2588 C 0.54591 0.53698 0.15804 0.0
H2589 H 0.54241 0.79057 0.14572 0.0
H2590 H 0.54128 0.72384 0.15271 0.0
C2591 C 0.54644 0.49896 0.16184 0.0
C2592 C 0.54427 0.59026 0.13461 0.0
H2593 H 0.55938 0.66894 0.13888 0.0
C2594 C 0.53514 0.6061 0.12591 0.0
C2595 C 0.55319 0.61306 0.13913 0.0
C2596 C 0.56348 0.59738 0.14734 0.0
C2597 C 0.53463 0.64429 0.12191 0.0
C2598 C 0.54346 0.667 0.12677 0.0
C2599 C 0.55259 0.65128 0.1354 0.0
C2600 C 0.54353 0.7071 0.12242 0.0
C2601 C 0.52467 0.66033 0.11267 0.0
C2602 C 0.54519 0.71943 0.1031 0.0
C2603 C 0.54594 0.75735 0.0991 0.0
C2604 C 0.54498 0.78349 0.11436 0.0
C2605 C 0.54315 0.77103 0.13368 0.0
C2606 C 0.5425 0.73304 0.13769 0.0
H2607 H 0.51801 0.63988 0.11208 0.0
H2608 H 0.52197 0.68511 0.12103 0.0
H2609 H 0.52652 0.66943 0.09743 0.0
H2610 H 0.54609 0.69967 0.09119 0.0
H2611 H 0.54735 0.76616 0.08407 0.0
H2612 H 0.7168 0.4611 0.13957 0.0
H2613 H 0.71784 0.52853 0.14404 0.0
H2614 H 0.70418 0.54484 0.08638 0.0
H2615 H 0.70305 0.47757 0.08183 0.0
H2616 H 0.7281 0.58522 0.12014 0.0
H2617 H 0.68381 0.60085 0.12472 0.0
H2618 H 0.69042 0.55654 0.12733 0.0
H2619 H 0.6887 0.57672 0.10336 0.0
C2620 C 0.71408 0.47907 0.1278 0.0
C2621 C 0.70977 0.4641 0.11042 0.0
C2622 C 0.7147 0.51752 0.13036 0.0
C2623 C 0.71096 0.54154 0.11563 0.0
C2624 C 0.70697 0.52669 0.09802 0.0
H2625 H 0.71758 0.7829 0.11022 0.0
H2626 H 0.7188 0.71617 0.10333 0.0
C2627 C 0.70636 0.48829 0.09543 0.0
C2628 C 0.71088 0.5821 0.11899 0.0
H2629 H 0.69407 0.65593 0.12508 0.0
C2630 C 0.72068 0.60078 0.12118 0.0
C2631 C 0.70116 0.60209 0.12053 0.0
C2632 C 0.69041 0.5831 0.11903 0.0
C2633 C 0.72101 0.63916 0.12479 0.0
C2634 C 0.71129 0.6592 0.12607 0.0
C2635 C 0.7015 0.64045 0.12394 0.0
C2636 C 0.71102 0.69944 0.1304 0.0
C2637 C 0.73172 0.65786 0.12764 0.0
C2638 C 0.70616 0.71202 0.14777 0.0
C2639 C 0.70543 0.74995 0.1517 0.0
C2640 C 0.70949 0.77604 0.13825 0.0
C2641 C 0.71442 0.76341 0.12088 0.0
C2642 C 0.71516 0.72535 0.11697 0.0
H2643 H 0.73825 0.63745 0.13018 0.0
H2644 H 0.73372 0.67411 0.11426 0.0
H2645 H 0.73143 0.67735 0.1403 0.0
H2646 H 0.70288 0.69242 0.15828 0.0
H2647 H 0.70157 0.75881 0.1652 0.0
H2648 H 0.45098 0.22809 0.91506 0.0
H2649 H 0.45214 0.29385 0.90648 0.0
H2650 H 0.46743 0.26552 0.85154 0.0
H2651 H 0.46635 0.19944 0.86007 0.0
H2652 H 0.47713 0.32651 0.87306 0.0
H2653 H 0.43316 0.3424 0.8633 0.0
H2654 H 0.43712 0.32204 0.88633 0.0
H2655 H 0.43969 0.29767 0.86373 0.0
C2656 C 0.45463 0.23582 0.90118 0.0
C2657 C 0.45852 0.20864 0.88816 0.0
C2658 C 0.45525 0.27337 0.89628 0.0
C2659 C 0.45973 0.28438 0.87828 0.0
C2660 C 0.46389 0.25744 0.86547 0.0
H2661 H 0.45134 0.50245 0.82627 0.0
H2662 H 0.45264 0.43559 0.83198 0.0
C2663 C 0.46326 0.21979 0.87035 0.0
C2664 C 0.45989 0.32405 0.87276 0.0
H2665 H 0.44348 0.39772 0.86345 0.0
C2666 C 0.46979 0.34213 0.87084 0.0
C2667 C 0.45029 0.34407 0.86966 0.0
C2668 C 0.43945 0.32557 0.87067 0.0
C2669 C 0.47034 0.38014 0.86638 0.0
C2670 C 0.46073 0.40044 0.864 0.0
C2671 C 0.45084 0.3821 0.86545 0.0
C2672 C 0.46068 0.44083 0.86006 0.0
C2673 C 0.48118 0.39819 0.86409 0.0
C2674 C 0.46477 0.46587 0.87398 0.0
C2675 C 0.46404 0.50412 0.87077 0.0
C2676 C 0.45914 0.51786 0.85362 0.0
C2677 C 0.45516 0.49268 0.83961 0.0
C2678 C 0.4559 0.4545 0.84284 0.0
H2679 H 0.48758 0.37735 0.86139 0.0
H2680 H 0.48115 0.41845 0.85177 0.0
H2681 H 0.48319 0.41335 0.87782 0.0
H2682 H 0.46831 0.45586 0.88754 0.0
H2683 H 0.46714 0.52289 0.88185 0.0
H2684 H 0.30199 0.2343 0.82932 0.0
H2685 H 0.30106 0.30124 0.83514 0.0
H2686 H 0.28561 0.28171 0.89099 0.0
H2687 H 0.28642 0.21461 0.88522 0.0
H2688 H 0.27633 0.34039 0.86764 0.0
H2689 H 0.3205 0.35357 0.87612 0.0
H2690 H 0.31612 0.33149 0.8538 0.0
H2691 H 0.31369 0.3094 0.87709 0.0
C2692 C 0.29834 0.24425 0.8428 0.0
C2693 C 0.29435 0.21925 0.85689 0.0
C2694 C 0.29785 0.28246 0.84611 0.0
C2695 C 0.2934 0.29628 0.8636 0.0
C2696 C 0.2891 0.27148 0.87743 0.0
H2697 H 0.30268 0.50994 0.91747 0.0
H2698 H 0.30125 0.44406 0.90939 0.0
C2699 C 0.28959 0.23322 0.87413 0.0
C2700 C 0.29355 0.33656 0.86776 0.0
H2701 H 0.31045 0.40916 0.87647 0.0
C2702 C 0.28377 0.35553 0.86955 0.0
C2703 C 0.30329 0.35598 0.87043 0.0
C2704 C 0.31401 0.33662 0.86944 0.0
C2705 C 0.28348 0.39365 0.87385 0.0
C2706 C 0.29324 0.41315 0.87623 0.0
C2707 C 0.303 0.3941 0.8745 0.0
C2708 C 0.29354 0.45308 0.88126 0.0
C2709 C 0.27278 0.41259 0.87626 0.0
C2710 C 0.28968 0.47994 0.86809 0.0
C2711 C 0.29048 0.5177 0.87267 0.0
C2712 C 0.29521 0.52907 0.89046 0.0
C2713 C 0.29899 0.50204 0.90366 0.0
C2714 C 0.29819 0.46441 0.89907 0.0
H2715 H 0.26615 0.39229 0.87814 0.0
H2716 H 0.27287 0.43155 0.88915 0.0
H2717 H 0.27108 0.42944 0.86295 0.0
H2718 H 0.28623 0.47173 0.85412 0.0
H2719 H 0.28754 0.53795 0.8622 0.0
loop_
_geom_bond_atom_site_label_1
_geom_bond_atom_site_label_2
_geom_bond_distance
_geom_bond_site_symmetry_2
_ccdc_geom_bond_type
In0 O1 2.294 . S
In0 O2 2.326 . S
In0 O6 2.266 . S
In0 O7 2.326 . S
In0 O8 2.266 . S
In0 O9 2.326 . S
In0 O11 2.294 . S
In0 O12 2.326 . S
O1 In0 2.294 . S
O1 C10 1.240 . S
O2 In0 2.326 . S
O2 C10 1.252 . S
C3 O6 1.252 . S
C3 O7 1.260 . S
C4 O11 1.240 . S
C4 O12 1.252 . S
C5 O8 1.252 . S
C5 O9 1.260 . S
O6 In0 2.266 . S
O6 C3 1.252 . S
O7 In0 2.326 . S
O7 C3 1.260 . S
O8 In0 2.266 . S
O8 C5 1.252 . S
O9 In0 2.326 . S
O9 C5 1.260 . S
C10 O1 1.240 . S
C10 O2 1.252 . S
O11 In0 2.294 . S
O11 C4 1.240 . S
O12 In0 2.326 . S
O12 C4 1.252 . S
In13 O14 2.294 . S
In13 O15 2.326 . S
In13 O19 2.266 . S
In13 O20 2.326 . S
In13 O21 2.266 . S
In13 O22 2.326 . S
In13 O24 2.294 . S
In13 O25 2.326 . S
O14 In13 2.294 . S
O14 C23 1.240 . S
O15 In13 2.326 . S
O15 C23 1.252 . S
C16 O19 1.252 . S
C16 O20 1.260 . S
C17 O24 1.240 . S
C17 O25 1.252 . S
C18 O21 1.252 . S
C18 O22 1.260 . S
O19 In13 2.266 . S
O19 C16 1.252 . S
O20 In13 2.326 . S
O20 C16 1.260 . S
O21 In13 2.266 . S
O21 C18 1.252 . S
O22 In13 2.326 . S
O22 C18 1.260 . S
C23 O14 1.240 . S
C23 O15 1.252 . S
O24 In13 2.294 . S
O24 C17 1.240 . S
O25 In13 2.326 . S
O25 C17 1.252 . S
In26 O27 2.294 . S
In26 O28 2.326 . S
In26 O32 2.266 . S
In26 O33 2.326 . S
In26 O34 2.266 . S
In26 O35 2.326 . S
In26 O37 2.294 . S
In26 O38 2.326 . S
O27 In26 2.294 . S
O27 C36 1.240 . S
O28 In26 2.326 . S
O28 C36 1.252 . S
C29 O32 1.252 . S
C29 O33 1.260 . S
C30 O37 1.240 . S
C30 O38 1.252 . S
C31 O34 1.252 . S
C31 O35 1.260 . S
O32 In26 2.266 . S
O32 C29 1.252 . S
O33 In26 2.326 . S
O33 C29 1.260 . S
O34 In26 2.266 . S
O34 C31 1.252 . S
O35 In26 2.326 . S
O35 C31 1.260 . S
C36 O27 1.240 . S
C36 O28 1.252 . S
O37 In26 2.294 . S
O37 C30 1.240 . S
O38 In26 2.326 . S
O38 C30 1.252 . S
In39 O40 2.294 . S
In39 O41 2.326 . S
In39 O45 2.266 . S
In39 O46 2.326 . S
In39 O47 2.266 . S
In39 O48 2.326 . S
In39 O50 2.294 . S
In39 O51 2.326 . S
O40 In39 2.294 . S
O40 C49 1.240 . S
O41 In39 2.326 . S
O41 C49 1.252 . S
C42 O45 1.252 . S
C42 O46 1.260 . S
C43 O50 1.240 . S
C43 O51 1.252 . S
C44 O47 1.252 . S
C44 O48 1.260 . S
O45 In39 2.266 . S
O45 C42 1.252 . S
O46 In39 2.326 . S
O46 C42 1.260 . S
O47 In39 2.266 . S
O47 C44 1.252 . S
O48 In39 2.326 . S
O48 C44 1.260 . S
C49 O40 1.240 . S
C49 O41 1.252 . S
O50 In39 2.294 . S
O50 C43 1.240 . S
O51 In39 2.326 . S
O51 C43 1.252 . S
In52 O53 2.294 . S
In52 O54 2.326 . S
In52 O58 2.266 . S
In52 O59 2.326 . S
In52 O60 2.266 . S
In52 O61 2.326 . S
In52 O63 2.294 . S
In52 O64 2.326 . S
O53 In52 2.294 . S
O53 C62 1.240 . S
O54 In52 2.326 . S
O54 C62 1.252 . S
C55 O58 1.252 . S
C55 O59 1.260 . S
C56 O63 1.240 . S
C56 O64 1.252 . S
C57 O60 1.252 . S
C57 O61 1.260 . S
O58 In52 2.266 . S
O58 C55 1.252 . S
O59 In52 2.326 . S
O59 C55 1.260 . S
O60 In52 2.266 . S
O60 C57 1.252 . S
O61 In52 2.326 . S
O61 C57 1.260 . S
C62 O53 1.240 . S
C62 O54 1.252 . S
O63 In52 2.294 . S
O63 C56 1.240 . S
O64 In52 2.326 . S
O64 C56 1.252 . S
In65 O66 2.294 . S
In65 O67 2.326 . S
In65 O71 2.266 . S
In65 O72 2.326 . S
In65 O73 2.266 . S
In65 O74 2.326 . S
In65 O76 2.294 . S
In65 O77 2.326 . S
O66 In65 2.294 . S
O66 C75 1.240 . S
O67 In65 2.326 . S
O67 C75 1.252 . S
C68 O71 1.252 . S
C68 O72 1.260 . S
C69 O76 1.240 . S
C69 O77 1.252 . S
C70 O73 1.252 . S
C70 O74 1.260 . S
O71 In65 2.266 . S
O71 C68 1.252 . S
O72 In65 2.326 . S
O72 C68 1.260 . S
O73 In65 2.266 . S
O73 C70 1.252 . S
O74 In65 2.326 . S
O74 C70 1.260 . S
C75 O66 1.240 . S
C75 O67 1.252 . S
O76 In65 2.294 . S
O76 C69 1.240 . S
O77 In65 2.326 . S
O77 C69 1.252 . S
In78 O79 2.294 . S
In78 O80 2.326 . S
In78 O84 2.266 . S
In78 O85 2.326 . S
In78 O86 2.266 . S
In78 O87 2.326 . S
In78 O89 2.294 . S
In78 O90 2.326 . S
O79 In78 2.294 . S
O79 C88 1.240 . S
O80 In78 2.326 . S
O80 C88 1.252 . S
C81 O84 1.252 . S
C81 O85 1.260 . S
C82 O89 1.240 . S
C82 O90 1.252 . S
C83 O86 1.252 . S
C83 O87 1.260 . S
O84 In78 2.266 . S
O84 C81 1.252 . S
O85 In78 2.326 . S
O85 C81 1.260 . S
O86 In78 2.266 . S
O86 C83 1.252 . S
O87 In78 2.326 . S
O87 C83 1.260 . S
C88 O79 1.240 . S
C88 O80 1.252 . S
O89 In78 2.294 . S
O89 C82 1.240 . S
O90 In78 2.326 . S
O90 C82 1.252 . S
In91 O92 2.294 . S
In91 O93 2.326 . S
In91 O97 2.266 . S
In91 O98 2.326 . S
In91 O99 2.266 . S
In91 O100 2.326 . S
In91 O102 2.294 . S
In91 O103 2.326 . S
O92 In91 2.294 . S
O92 C101 1.240 . S
O93 In91 2.326 . S
O93 C101 1.252 . S
C94 O97 1.252 . S
C94 O98 1.260 . S
C95 O102 1.240 . S
C95 O103 1.252 . S
C96 O99 1.252 . S
C96 O100 1.260 . S
O97 In91 2.266 . S
O97 C94 1.252 . S
O98 In91 2.326 . S
O98 C94 1.260 . S
O99 In91 2.266 . S
O99 C96 1.252 . S
O100 In91 2.326 . S
O100 C96 1.260 . S
C101 O92 1.240 . S
C101 O93 1.252 . S
O102 In91 2.294 . S
O102 C95 1.240 . S
O103 In91 2.326 . S
O103 C95 1.252 . S
In104 O105 2.294 . S
In104 O106 2.326 . S
In104 O110 2.266 . S
In104 O111 2.326 . S
In104 O112 2.266 . S
In104 O113 2.326 . S
In104 O115 2.294 . S
In104 O116 2.326 . S
O105 In104 2.294 . S
O105 C114 1.240 . S
O106 In104 2.326 . S
O106 C114 1.252 . S
C107 O110 1.252 . S
C107 O111 1.260 . S
C108 O115 1.240 . S
C108 O116 1.252 . S
C109 O112 1.252 . S
C109 O113 1.260 . S
O110 In104 2.266 . S
O110 C107 1.252 . S
O111 In104 2.326 . S
O111 C107 1.260 . S
O112 In104 2.266 . S
O112 C109 1.252 . S
O113 In104 2.326 . S
O113 C109 1.260 . S
C114 O105 1.240 . S
C114 O106 1.252 . S
O115 In104 2.294 . S
O115 C108 1.240 . S
O116 In104 2.326 . S
O116 C108 1.252 . S
In117 O118 2.294 . S
In117 O119 2.326 . S
In117 O123 2.266 . S
In117 O124 2.326 . S
In117 O125 2.266 . S
In117 O126 2.326 . S
In117 O128 2.294 . S
In117 O129 2.326 . S
O118 In117 2.294 . S
O118 C127 1.240 . S
O119 In117 2.326 . S
O119 C127 1.252 . S
C120 O123 1.252 . S
C120 O124 1.260 . S
C121 O128 1.240 . S
C121 O129 1.252 . S
C122 O125 1.252 . S
C122 O126 1.260 . S
O123 In117 2.266 . S
O123 C120 1.252 . S
O124 In117 2.326 . S
O124 C120 1.260 . S
O125 In117 2.266 . S
O125 C122 1.252 . S
O126 In117 2.326 . S
O126 C122 1.260 . S
C127 O118 1.240 . S
C127 O119 1.252 . S
O128 In117 2.294 . S
O128 C121 1.240 . S
O129 In117 2.326 . S
O129 C121 1.252 . S
In130 O131 2.294 . S
In130 O132 2.326 . S
In130 O136 2.266 . S
In130 O137 2.326 . S
In130 O138 2.266 . S
In130 O139 2.326 . S
In130 O141 2.294 . S
In130 O142 2.326 . S
O131 In130 2.294 . S
O131 C140 1.240 . S
O132 In130 2.326 . S
O132 C140 1.252 . S
C133 O136 1.252 . S
C133 O137 1.260 . S
C134 O141 1.240 . S
C134 O142 1.252 . S
C135 O138 1.252 . S
C135 O139 1.260 . S
O136 In130 2.266 . S
O136 C133 1.252 . S
O137 In130 2.326 . S
O137 C133 1.260 . S
O138 In130 2.266 . S
O138 C135 1.252 . S
O139 In130 2.326 . S
O139 C135 1.260 . S
C140 O131 1.240 . S
C140 O132 1.252 . S
O141 In130 2.294 . S
O141 C134 1.240 . S
O142 In130 2.326 . S
O142 C134 1.252 . S
In143 O144 2.294 . S
In143 O145 2.326 . S
In143 O149 2.266 . S
In143 O150 2.326 . S
In143 O151 2.266 . S
In143 O152 2.326 . S
In143 O154 2.294 . S
In143 O155 2.326 . S
O144 In143 2.294 . S
O144 C153 1.240 . S
O145 In143 2.326 . S
O145 C153 1.252 . S
C146 O149 1.252 . S
C146 O150 1.260 . S
C147 O154 1.240 . S
C147 O155 1.252 . S
C148 O151 1.252 . S
C148 O152 1.260 . S
O149 In143 2.266 . S
O149 C146 1.252 . S
O150 In143 2.326 . S
O150 C146 1.260 . S
O151 In143 2.266 . S
O151 C148 1.252 . S
O152 In143 2.326 . S
O152 C148 1.260 . S
C153 O144 1.240 . S
C153 O145 1.252 . S
O154 In143 2.294 . S
O154 C147 1.240 . S
O155 In143 2.326 . S
O155 C147 1.252 . S
In156 O157 2.294 . S
In156 O158 2.326 . S
In156 O162 2.266 . S
In156 O163 2.326 . S
In156 O164 2.266 . S
In156 O165 2.326 . S
In156 O167 2.294 . S
In156 O168 2.326 . S
O157 In156 2.294 . S
O157 C166 1.240 . S
O158 In156 2.326 . S
O158 C166 1.252 . S
C159 O162 1.252 . S
C159 O163 1.260 . S
C160 O167 1.240 . S
C160 O168 1.252 . S
C161 O164 1.252 . S
C161 O165 1.260 . S
O162 In156 2.266 . S
O162 C159 1.252 . S
O163 In156 2.326 . S
O163 C159 1.260 . S
O164 In156 2.266 . S
O164 C161 1.252 . S
O165 In156 2.326 . S
O165 C161 1.260 . S
C166 O157 1.240 . S
C166 O158 1.252 . S
O167 In156 2.294 . S
O167 C160 1.240 . S
O168 In156 2.326 . S
O168 C160 1.252 . S
In169 O170 2.294 . S
In169 O171 2.326 . S
In169 O175 2.266 . S
In169 O176 2.326 . S
In169 O177 2.266 . S
In169 O178 2.326 . S
In169 O180 2.294 . S
In169 O181 2.326 . S
O170 In169 2.294 . S
O170 C179 1.240 . S
O171 In169 2.326 . S
O171 C179 1.252 . S
C172 O175 1.252 . S
C172 O176 1.260 . S
C173 O180 1.240 . S
C173 O181 1.252 . S
C174 O177 1.252 . S
C174 O178 1.260 . S
O175 In169 2.266 . S
O175 C172 1.252 . S
O176 In169 2.326 . S
O176 C172 1.260 . S
O177 In169 2.266 . S
O177 C174 1.252 . S
O178 In169 2.326 . S
O178 C174 1.260 . S
C179 O170 1.240 . S
C179 O171 1.252 . S
O180 In169 2.294 . S
O180 C173 1.240 . S
O181 In169 2.326 . S
O181 C173 1.252 . S
In182 O183 2.294 . S
In182 O184 2.326 . S
In182 O188 2.266 . S
In182 O189 2.326 . S
In182 O190 2.266 . S
In182 O191 2.326 . S
In182 O193 2.294 . S
In182 O194 2.326 . S
O183 In182 2.294 . S
O183 C192 1.240 . S
O184 In182 2.326 . S
O184 C192 1.252 . S
C185 O188 1.252 . S
C185 O189 1.260 . S
C186 O193 1.240 . S
C186 O194 1.252 . S
C187 O190 1.252 . S
C187 O191 1.260 . S
O188 In182 2.266 . S
O188 C185 1.252 . S
O189 In182 2.326 . S
O189 C185 1.260 . S
O190 In182 2.266 . S
O190 C187 1.252 . S
O191 In182 2.326 . S
O191 C187 1.260 . S
C192 O183 1.240 . S
C192 O184 1.252 . S
O193 In182 2.294 . S
O193 C186 1.240 . S
O194 In182 2.326 . S
O194 C186 1.252 . S
In195 O196 2.294 . S
In195 O197 2.326 . S
In195 O201 2.266 . S
In195 O202 2.326 . S
In195 O203 2.266 . S
In195 O204 2.326 . S
In195 O206 2.294 . S
In195 O207 2.326 . S
O196 In195 2.294 . S
O196 C205 1.240 . S
O197 In195 2.326 . S
O197 C205 1.252 . S
C198 O201 1.252 . S
C198 O202 1.260 . S
C199 O206 1.240 . S
C199 O207 1.252 . S
C200 O203 1.252 . S
C200 O204 1.260 . S
O201 In195 2.266 . S
O201 C198 1.252 . S
O202 In195 2.326 . S
O202 C198 1.260 . S
O203 In195 2.266 . S
O203 C200 1.252 . S
O204 In195 2.326 . S
O204 C200 1.260 . S
C205 O196 1.240 . S
C205 O197 1.252 . S
O206 In195 2.294 . S
O206 C199 1.240 . S
O207 In195 2.326 . S
O207 C199 1.252 . S
In208 O209 2.294 . S
In208 O210 2.326 . S
In208 O214 2.266 . S
In208 O215 2.326 . S
In208 O216 2.266 . S
In208 O217 2.326 . S
In208 O219 2.294 . S
In208 O220 2.326 . S
O209 In208 2.294 . S
O209 C218 1.240 . S
O210 In208 2.326 . S
O210 C218 1.252 . S
C211 O214 1.252 . S
C211 O215 1.260 . S
C212 O219 1.240 . S
C212 O220 1.252 . S
C213 O216 1.252 . S
C213 O217 1.260 . S
O214 In208 2.266 . S
O214 C211 1.252 . S
O215 In208 2.326 . S
O215 C211 1.260 . S
O216 In208 2.266 . S
O216 C213 1.252 . S
O217 In208 2.326 . S
O217 C213 1.260 . S
C218 O209 1.240 . S
C218 O210 1.252 . S
O219 In208 2.294 . S
O219 C212 1.240 . S
O220 In208 2.326 . S
O220 C212 1.252 . S
In221 O222 2.294 . S
In221 O223 2.326 . S
In221 O227 2.266 . S
In221 O228 2.326 . S
In221 O229 2.266 . S
In221 O230 2.326 . S
In221 O232 2.294 . S
In221 O233 2.326 . S
O222 In221 2.294 . S
O222 C231 1.240 . S
O223 In221 2.326 . S
O223 C231 1.252 . S
C224 O227 1.252 . S
C224 O228 1.260 . S
C225 O232 1.240 . S
C225 O233 1.252 . S
C226 O229 1.252 . S
C226 O230 1.260 . S
O227 In221 2.266 . S
O227 C224 1.252 . S
O228 In221 2.326 . S
O228 C224 1.260 . S
O229 In221 2.266 . S
O229 C226 1.252 . S
O230 In221 2.326 . S
O230 C226 1.260 . S
C231 O222 1.240 . S
C231 O223 1.252 . S
O232 In221 2.294 . S
O232 C225 1.240 . S
O233 In221 2.326 . S
O233 C225 1.252 . S
In234 O235 2.294 . S
In234 O236 2.326 . S
In234 O240 2.266 . S
In234 O241 2.326 . S
In234 O242 2.266 . S
In234 O243 2.326 . S
In234 O245 2.294 . S
In234 O246 2.326 . S
O235 In234 2.294 . S
O235 C244 1.240 . S
O236 In234 2.326 . S
O236 C244 1.252 . S
C237 O240 1.252 . S
C237 O241 1.260 . S
C238 O245 1.240 . S
C238 O246 1.252 . S
C239 O242 1.252 . S
C239 O243 1.260 . S
O240 In234 2.266 . S
O240 C237 1.252 . S
O241 In234 2.326 . S
O241 C237 1.260 . S
O242 In234 2.266 . S
O242 C239 1.252 . S
O243 In234 2.326 . S
O243 C239 1.260 . S
C244 O235 1.240 . S
C244 O236 1.252 . S
O245 In234 2.294 . S
O245 C238 1.240 . S
O246 In234 2.326 . S
O246 C238 1.252 . S
In247 O248 2.294 . S
In247 O249 2.326 . S
In247 O253 2.266 . S
In247 O254 2.326 . S
In247 O255 2.266 . S
In247 O256 2.326 . S
In247 O258 2.294 . S
In247 O259 2.326 . S
O248 In247 2.294 . S
O248 C257 1.240 . S
O249 In247 2.326 . S
O249 C257 1.252 . S
C250 O253 1.252 . S
C250 O254 1.260 . S
C251 O258 1.240 . S
C251 O259 1.252 . S
C252 O255 1.252 . S
C252 O256 1.260 . S
O253 In247 2.266 . S
O253 C250 1.252 . S
O254 In247 2.326 . S
O254 C250 1.260 . S
O255 In247 2.266 . S
O255 C252 1.252 . S
O256 In247 2.326 . S
O256 C252 1.260 . S
C257 O248 1.240 . S
C257 O249 1.252 . S
O258 In247 2.294 . S
O258 C251 1.240 . S
O259 In247 2.326 . S
O259 C251 1.252 . S
In260 O261 2.294 . S
In260 O262 2.326 . S
In260 O266 2.266 . S
In260 O267 2.326 . S
In260 O268 2.266 . S
In260 O269 2.326 . S
In260 O271 2.294 . S
In260 O272 2.326 . S
O261 In260 2.294 . S
O261 C270 1.240 . S
O262 In260 2.326 . S
O262 C270 1.252 . S
C263 O266 1.252 . S
C263 O267 1.260 . S
C264 O271 1.240 . S
C264 O272 1.252 . S
C265 O268 1.252 . S
C265 O269 1.260 . S
O266 In260 2.266 . S
O266 C263 1.252 . S
O267 In260 2.326 . S
O267 C263 1.260 . S
O268 In260 2.266 . S
O268 C265 1.252 . S
O269 In260 2.326 . S
O269 C265 1.260 . S
C270 O261 1.240 . S
C270 O262 1.252 . S
O271 In260 2.294 . S
O271 C264 1.240 . S
O272 In260 2.326 . S
O272 C264 1.252 . S
In273 O274 2.294 . S
In273 O275 2.326 . S
In273 O279 2.266 . S
In273 O280 2.326 . S
In273 O281 2.266 . S
In273 O282 2.326 . S
In273 O284 2.294 . S
In273 O285 2.326 . S
O274 In273 2.294 . S
O274 C283 1.240 . S
O275 In273 2.326 . S
O275 C283 1.252 . S
C276 O279 1.252 . S
C276 O280 1.260 . S
C277 O284 1.240 . S
C277 O285 1.252 . S
C278 O281 1.252 . S
C278 O282 1.260 . S
O279 In273 2.266 . S
O279 C276 1.252 . S
O280 In273 2.326 . S
O280 C276 1.260 . S
O281 In273 2.266 . S
O281 C278 1.252 . S
O282 In273 2.326 . S
O282 C278 1.260 . S
C283 O274 1.240 . S
C283 O275 1.252 . S
O284 In273 2.294 . S
O284 C277 1.240 . S
O285 In273 2.326 . S
O285 C277 1.252 . S
In286 O287 2.294 . S
In286 O288 2.326 . S
In286 O292 2.266 . S
In286 O293 2.326 . S
In286 O294 2.266 . S
In286 O295 2.326 . S
In286 O297 2.294 . S
In286 O298 2.326 . S
O287 In286 2.294 . S
O287 C296 1.240 . S
O288 In286 2.326 . S
O288 C296 1.252 . S
C289 O292 1.252 . S
C289 O293 1.260 . S
C290 O297 1.240 . S
C290 O298 1.252 . S
C291 O294 1.252 . S
C291 O295 1.260 . S
O292 In286 2.266 . S
O292 C289 1.252 . S
O293 In286 2.326 . S
O293 C289 1.260 . S
O294 In286 2.266 . S
O294 C291 1.252 . S
O295 In286 2.326 . S
O295 C291 1.260 . S
C296 O287 1.240 . S
C296 O288 1.252 . S
O297 In286 2.294 . S
O297 C290 1.240 . S
O298 In286 2.326 . S
O298 C290 1.252 . S
In299 O300 2.294 . S
In299 O301 2.326 . S
In299 O305 2.266 . S
In299 O306 2.326 . S
In299 O307 2.266 . S
In299 O308 2.326 . S
In299 O310 2.294 . S
In299 O311 2.326 . S
O300 In299 2.294 . S
O300 C309 1.240 . S
O301 In299 2.326 . S
O301 C309 1.252 . S
C302 O305 1.252 . S
C302 O306 1.260 . S
C303 O310 1.240 . S
C303 O311 1.252 . S
C304 O307 1.252 . S
C304 O308 1.260 . S
O305 In299 2.266 . S
O305 C302 1.252 . S
O306 In299 2.326 . S
O306 C302 1.260 . S
O307 In299 2.266 . S
O307 C304 1.252 . S
O308 In299 2.326 . S
O308 C304 1.260 . S
C309 O300 1.240 . S
C309 O301 1.252 . S
O310 In299 2.294 . S
O310 C303 1.240 . S
O311 In299 2.326 . S
O311 C303 1.252 . S
In312 O313 2.294 . S
In312 O314 2.326 . S
In312 O318 2.266 . S
In312 O319 2.326 . S
In312 O320 2.266 . S
In312 O321 2.326 . S
In312 O323 2.294 . S
In312 O324 2.326 . S
O313 In312 2.294 . S
O313 C322 1.240 . S
O314 In312 2.326 . S
O314 C322 1.252 . S
C315 O318 1.252 . S
C315 O319 1.260 . S
C316 O323 1.240 . S
C316 O324 1.252 . S
C317 O320 1.252 . S
C317 O321 1.260 . S
O318 In312 2.266 . S
O318 C315 1.252 . S
O319 In312 2.326 . S
O319 C315 1.260 . S
O320 In312 2.266 . S
O320 C317 1.252 . S
O321 In312 2.326 . S
O321 C317 1.260 . S
C322 O313 1.240 . S
C322 O314 1.252 . S
O323 In312 2.294 . S
O323 C316 1.240 . S
O324 In312 2.326 . S
O324 C316 1.252 . S
In325 O326 2.294 . S
In325 O327 2.326 . S
In325 O331 2.266 . S
In325 O332 2.326 . S
In325 O333 2.266 . S
In325 O334 2.326 . S
In325 O336 2.294 . S
In325 O337 2.326 . S
O326 In325 2.294 . S
O326 C335 1.240 . S
O327 In325 2.326 . S
O327 C335 1.252 . S
C328 O331 1.252 . S
C328 O332 1.260 . S
C329 O336 1.240 . S
C329 O337 1.252 . S
C330 O333 1.252 . S
C330 O334 1.260 . S
O331 In325 2.266 . S
O331 C328 1.252 . S
O332 In325 2.326 . S
O332 C328 1.260 . S
O333 In325 2.266 . S
O333 C330 1.252 . S
O334 In325 2.326 . S
O334 C330 1.260 . S
C335 O326 1.240 . S
C335 O327 1.252 . S
O336 In325 2.294 . S
O336 C329 1.240 . S
O337 In325 2.326 . S
O337 C329 1.252 . S
In338 O339 2.294 . S
In338 O340 2.326 . S
In338 O344 2.266 . S
In338 O345 2.326 . S
In338 O346 2.266 . S
In338 O347 2.326 . S
In338 O349 2.294 . S
In338 O350 2.326 . S
O339 In338 2.294 . S
O339 C348 1.240 . S
O340 In338 2.326 . S
O340 C348 1.252 . S
C341 O344 1.252 . S
C341 O345 1.260 . S
C342 O349 1.240 . S
C342 O350 1.252 . S
C343 O346 1.252 . S
C343 O347 1.260 . S
O344 In338 2.266 . S
O344 C341 1.252 . S
O345 In338 2.326 . S
O345 C341 1.260 . S
O346 In338 2.266 . S
O346 C343 1.252 . S
O347 In338 2.326 . S
O347 C343 1.260 . S
C348 O339 1.240 . S
C348 O340 1.252 . S
O349 In338 2.294 . S
O349 C342 1.240 . S
O350 In338 2.326 . S
O350 C342 1.252 . S
In351 O352 2.294 . S
In351 O353 2.326 . S
In351 O357 2.266 . S
In351 O358 2.326 . S
In351 O359 2.266 . S
In351 O360 2.326 . S
In351 O362 2.294 . S
In351 O363 2.326 . S
O352 In351 2.294 . S
O352 C361 1.240 . S
O353 In351 2.326 . S
O353 C361 1.252 . S
C354 O357 1.252 . S
C354 O358 1.260 . S
C355 O362 1.240 . S
C355 O363 1.252 . S
C356 O359 1.252 . S
C356 O360 1.260 . S
O357 In351 2.266 . S
O357 C354 1.252 . S
O358 In351 2.326 . S
O358 C354 1.260 . S
O359 In351 2.266 . S
O359 C356 1.252 . S
O360 In351 2.326 . S
O360 C356 1.260 . S
C361 O352 1.240 . S
C361 O353 1.252 . S
O362 In351 2.294 . S
O362 C355 1.240 . S
O363 In351 2.326 . S
O363 C355 1.252 . S
In364 O365 2.294 . S
In364 O366 2.326 . S
In364 O370 2.266 . S
In364 O371 2.326 . S
In364 O372 2.266 . S
In364 O373 2.326 . S
In364 O375 2.294 . S
In364 O376 2.326 . S
O365 In364 2.294 . S
O365 C374 1.240 . S
O366 In364 2.326 . S
O366 C374 1.252 . S
C367 O370 1.252 . S
C367 O371 1.260 . S
C368 O375 1.240 . S
C368 O376 1.252 . S
C369 O372 1.252 . S
C369 O373 1.260 . S
O370 In364 2.266 . S
O370 C367 1.252 . S
O371 In364 2.326 . S
O371 C367 1.260 . S
O372 In364 2.266 . S
O372 C369 1.252 . S
O373 In364 2.326 . S
O373 C369 1.260 . S
C374 O365 1.240 . S
C374 O366 1.252 . S
O375 In364 2.294 . S
O375 C368 1.240 . S
O376 In364 2.326 . S
O376 C368 1.252 . S
In377 O378 2.294 . S
In377 O379 2.326 . S
In377 O383 2.266 . S
In377 O384 2.326 . S
In377 O385 2.266 . S
In377 O386 2.326 . S
In377 O388 2.294 . S
In377 O389 2.326 . S
O378 In377 2.294 . S
O378 C387 1.240 . S
O379 In377 2.326 . S
O379 C387 1.252 . S
C380 O383 1.252 . S
C380 O384 1.260 . S
C381 O388 1.240 . S
C381 O389 1.252 . S
C382 O385 1.252 . S
C382 O386 1.260 . S
O383 In377 2.266 . S
O383 C380 1.252 . S
O384 In377 2.326 . S
O384 C380 1.260 . S
O385 In377 2.266 . S
O385 C382 1.252 . S
O386 In377 2.326 . S
O386 C382 1.260 . S
C387 O378 1.240 . S
C387 O379 1.252 . S
O388 In377 2.294 . S
O388 C381 1.240 . S
O389 In377 2.326 . S
O389 C381 1.252 . S
In390 O391 2.294 . S
In390 O392 2.326 . S
In390 O396 2.266 . S
In390 O397 2.326 . S
In390 O398 2.266 . S
In390 O399 2.326 . S
In390 O401 2.294 . S
In390 O402 2.326 . S
O391 In390 2.294 . S
O391 C400 1.240 . S
O392 In390 2.326 . S
O392 C400 1.252 . S
C393 O396 1.252 . S
C393 O397 1.260 . S
C394 O401 1.240 . S
C394 O402 1.252 . S
C395 O398 1.252 . S
C395 O399 1.260 . S
O396 In390 2.266 . S
O396 C393 1.252 . S
O397 In390 2.326 . S
O397 C393 1.260 . S
O398 In390 2.266 . S
O398 C395 1.252 . S
O399 In390 2.326 . S
O399 C395 1.260 . S
C400 O391 1.240 . S
C400 O392 1.252 . S
O401 In390 2.294 . S
O401 C394 1.240 . S
O402 In390 2.326 . S
O402 C394 1.252 . S
In403 O404 2.294 . S
In403 O405 2.326 . S
In403 O409 2.266 . S
In403 O410 2.326 . S
In403 O411 2.266 . S
In403 O412 2.326 . S
In403 O414 2.294 . S
In403 O415 2.326 . S
O404 In403 2.294 . S
O404 C413 1.240 . S
O405 In403 2.326 . S
O405 C413 1.252 . S
C406 O409 1.252 . S
C406 O410 1.260 . S
C407 O414 1.240 . S
C407 O415 1.252 . S
C408 O411 1.252 . S
C408 O412 1.260 . S
O409 In403 2.266 . S
O409 C406 1.252 . S
O410 In403 2.326 . S
O410 C406 1.260 . S
O411 In403 2.266 . S
O411 C408 1.252 . S
O412 In403 2.326 . S
O412 C408 1.260 . S
C413 O404 1.240 . S
C413 O405 1.252 . S
O414 In403 2.294 . S
O414 C407 1.240 . S
O415 In403 2.326 . S
O415 C407 1.252 . S
H416 C424 0.929 . S
H417 C426 0.930 . S
H418 C428 0.930 . S
H419 C431 0.929 . S
H420 C434 0.930 . S
H421 C436 0.960 . S
H422 C436 0.960 . S
H423 C436 0.960 . S
C424 H416 0.929 . S
C424 C425 1.377 . S
C424 C426 1.384 . S
C425 C424 1.377 . S
C425 C431 1.390 . S
C426 H417 0.930 . S
C426 C424 1.384 . S
C426 C427 1.372 . S
C427 C426 1.372 . S
C427 C428 1.400 . S
C427 C432 1.490 . S
C428 H418 0.930 . S
C428 C427 1.400 . S
C428 C431 1.386 . S
H429 C445 0.930 . S
H430 C446 0.931 . S
C431 H419 0.929 . S
C431 C425 1.390 . S
C431 C428 1.386 . S
C432 C427 1.490 . S
C432 C434 1.395 . S
C432 C435 1.403 . S
H433 C439 0.930 . S
C434 H420 0.930 . S
C434 C432 1.395 . S
C434 C437 1.403 . S
C435 C432 1.403 . S
C435 C436 1.524 . S
C435 C439 1.400 . S
C436 H421 0.960 . S
C436 H422 0.960 . S
C436 H423 0.960 . S
C436 C435 1.524 . S
C437 C434 1.403 . S
C437 C438 1.392 . S
C437 C441 1.495 . S
C438 C437 1.392 . S
C438 C439 1.385 . S
C438 C440 1.478 . S
C439 H433 0.930 . S
C439 C435 1.400 . S
C439 C438 1.385 . S
C440 C438 1.478 . S
C440 C442 1.381 . S
C440 C446 1.383 . S
C441 C437 1.495 . S
C441 H447 0.959 . S
C441 H448 0.961 . S
C441 H449 0.960 . S
C442 C440 1.381 . S
C442 C443 1.394 . S
C442 H450 0.930 . S
C443 C442 1.394 . S
C443 C444 1.383 . S
C443 H451 0.929 . S
C444 C443 1.383 . S
C444 C445 1.377 . S
C445 H429 0.930 . S
C445 C444 1.377 . S
C445 C446 1.379 . S
C446 H430 0.931 . S
C446 C440 1.383 . S
C446 C445 1.379 . S
H447 C441 0.959 . S
H448 C441 0.961 . S
H449 C441 0.960 . S
H450 C442 0.930 . S
H451 C443 0.929 . S
H452 C460 0.929 . S
H453 C462 0.930 . S
H454 C464 0.930 . S
H455 C467 0.929 . S
H456 C470 0.930 . S
H457 C472 0.960 . S
H458 C472 0.960 . S
H459 C472 0.960 . S
C460 H452 0.929 . S
C460 C461 1.377 . S
C460 C462 1.384 . S
C461 C460 1.377 . S
C461 C467 1.390 . S
C462 H453 0.930 . S
C462 C460 1.384 . S
C462 C463 1.372 . S
C463 C462 1.372 . S
C463 C464 1.400 . S
C463 C468 1.490 . S
C464 H454 0.930 . S
C464 C463 1.400 . S
C464 C467 1.386 . S
H465 C481 0.930 . S
H466 C482 0.931 . S
C467 H455 0.929 . S
C467 C461 1.390 . S
C467 C464 1.386 . S
C468 C463 1.490 . S
C468 C470 1.395 . S
C468 C471 1.403 . S
H469 C475 0.930 . S
C470 H456 0.930 . S
C470 C468 1.395 . S
C470 C473 1.403 . S
C471 C468 1.403 . S
C471 C472 1.524 . S
C471 C475 1.400 . S
C472 H457 0.960 . S
C472 H458 0.960 . S
C472 H459 0.960 . S
C472 C471 1.524 . S
C473 C470 1.403 . S
C473 C474 1.392 . S
C473 C477 1.495 . S
C474 C473 1.392 . S
C474 C475 1.385 . S
C474 C476 1.478 . S
C475 H469 0.930 . S
C475 C471 1.400 . S
C475 C474 1.385 . S
C476 C474 1.478 . S
C476 C478 1.381 . S
C476 C482 1.383 . S
C477 C473 1.495 . S
C477 H483 0.959 . S
C477 H484 0.961 . S
C477 H485 0.960 . S
C478 C476 1.381 . S
C478 C479 1.394 . S
C478 H486 0.930 . S
C479 C478 1.394 . S
C479 C480 1.383 . S
C479 H487 0.929 . S
C480 C479 1.383 . S
C480 C481 1.377 . S
C481 H465 0.930 . S
C481 C480 1.377 . S
C481 C482 1.379 . S
C482 H466 0.931 . S
C482 C476 1.383 . S
C482 C481 1.379 . S
H483 C477 0.959 . S
H484 C477 0.961 . S
H485 C477 0.960 . S
H486 C478 0.930 . S
H487 C479 0.929 . S
H488 C496 0.929 . S
H489 C498 0.930 . S
H490 C500 0.930 . S
H491 C503 0.929 . S
H492 C506 0.930 . S
H493 C508 0.960 . S
H494 C508 0.960 . S
H495 C508 0.960 . S
C496 H488 0.929 . S
C496 C497 1.377 . S
C496 C498 1.384 . S
C497 C496 1.377 . S
C497 C503 1.390 . S
C498 H489 0.930 . S
C498 C496 1.384 . S
C498 C499 1.372 . S
C499 C498 1.372 . S
C499 C500 1.400 . S
C499 C504 1.490 . S
C500 H490 0.930 . S
C500 C499 1.400 . S
C500 C503 1.386 . S
H501 C517 0.930 . S
H502 C518 0.931 . S
C503 H491 0.929 . S
C503 C497 1.390 . S
C503 C500 1.386 . S
C504 C499 1.490 . S
C504 C506 1.395 . S
C504 C507 1.403 . S
H505 C511 0.930 . S
C506 H492 0.930 . S
C506 C504 1.395 . S
C506 C509 1.403 . S
C507 C504 1.403 . S
C507 C508 1.524 . S
C507 C511 1.400 . S
C508 H493 0.960 . S
C508 H494 0.960 . S
C508 H495 0.960 . S
C508 C507 1.524 . S
C509 C506 1.403 . S
C509 C510 1.392 . S
C509 C513 1.495 . S
C510 C509 1.392 . S
C510 C511 1.385 . S
C510 C512 1.478 . S
C511 H505 0.930 . S
C511 C507 1.400 . S
C511 C510 1.385 . S
C512 C510 1.478 . S
C512 C514 1.381 . S
C512 C518 1.383 . S
C513 C509 1.495 . S
C513 H519 0.959 . S
C513 H520 0.961 . S
C513 H521 0.960 . S
C514 C512 1.381 . S
C514 C515 1.394 . S
C514 H522 0.930 . S
C515 C514 1.394 . S
C515 C516 1.383 . S
C515 H523 0.929 . S
C516 C515 1.383 . S
C516 C517 1.377 . S
C517 H501 0.930 . S
C517 C516 1.377 . S
C517 C518 1.379 . S
C518 H502 0.931 . S
C518 C512 1.383 . S
C518 C517 1.379 . S
H519 C513 0.959 . S
H520 C513 0.961 . S
H521 C513 0.960 . S
H522 C514 0.930 . S
H523 C515 0.929 . S
H524 C532 0.929 . S
H525 C534 0.930 . S
H526 C536 0.930 . S
H527 C539 0.929 . S
H528 C542 0.930 . S
H529 C544 0.960 . S
H530 C544 0.960 . S
H531 C544 0.960 . S
C532 H524 0.929 . S
C532 C533 1.377 . S
C532 C534 1.384 . S
C533 C532 1.377 . S
C533 C539 1.390 . S
C534 H525 0.930 . S
C534 C532 1.384 . S
C534 C535 1.372 . S
C535 C534 1.372 . S
C535 C536 1.400 . S
C535 C540 1.490 . S
C536 H526 0.930 . S
C536 C535 1.400 . S
C536 C539 1.386 . S
H537 C553 0.930 . S
H538 C554 0.931 . S
C539 H527 0.929 . S
C539 C533 1.390 . S
C539 C536 1.386 . S
C540 C535 1.490 . S
C540 C542 1.395 . S
C540 C543 1.403 . S
H541 C547 0.930 . S
C542 H528 0.930 . S
C542 C540 1.395 . S
C542 C545 1.403 . S
C543 C540 1.403 . S
C543 C544 1.524 . S
C543 C547 1.400 . S
C544 H529 0.960 . S
C544 H530 0.960 . S
C544 H531 0.960 . S
C544 C543 1.524 . S
C545 C542 1.403 . S
C545 C546 1.392 . S
C545 C549 1.495 . S
C546 C545 1.392 . S
C546 C547 1.385 . S
C546 C548 1.478 . S
C547 H541 0.930 . S
C547 C543 1.400 . S
C547 C546 1.385 . S
C548 C546 1.478 . S
C548 C550 1.381 . S
C548 C554 1.383 . S
C549 C545 1.495 . S
C549 H555 0.959 . S
C549 H556 0.961 . S
C549 H557 0.960 . S
C550 C548 1.381 . S
C550 C551 1.394 . S
C550 H558 0.930 . S
C551 C550 1.394 . S
C551 C552 1.383 . S
C551 H559 0.929 . S
C552 C551 1.383 . S
C552 C553 1.377 . S
C553 H537 0.930 . S
C553 C552 1.377 . S
C553 C554 1.379 . S
C554 H538 0.931 . S
C554 C548 1.383 . S
C554 C553 1.379 . S
H555 C549 0.959 . S
H556 C549 0.961 . S
H557 C549 0.960 . S
H558 C550 0.930 . S
H559 C551 0.929 . S
H560 C568 0.929 . S
H561 C570 0.930 . S
H562 C572 0.930 . S
H563 C575 0.929 . S
H564 C578 0.930 . S
H565 C580 0.960 . S
H566 C580 0.960 . S
H567 C580 0.960 . S
C568 H560 0.929 . S
C568 C569 1.377 . S
C568 C570 1.384 1_565 S
C569 C568 1.377 . S
C569 C575 1.390 . S
C570 H561 0.930 . S
C570 C568 1.384 1_545 S
C570 C571 1.372 . S
C571 C570 1.372 . S
C571 C572 1.400 . S
C571 C576 1.490 . S
C572 H562 0.930 . S
C572 C571 1.400 . S
C572 C575 1.386 1_545 S
H573 C589 0.930 . S
H574 C590 0.931 . S
C575 H563 0.929 . S
C575 C569 1.390 . S
C575 C572 1.386 1_565 S
C576 C571 1.490 . S
C576 C578 1.395 . S
C576 C579 1.403 . S
H577 C583 0.930 . S
C578 H564 0.930 . S
C578 C576 1.395 . S
C578 C581 1.403 . S
C579 C576 1.403 . S
C579 C580 1.524 . S
C579 C583 1.400 . S
C580 H565 0.960 . S
C580 H566 0.960 . S
C580 H567 0.960 . S
C580 C579 1.524 . S
C581 C578 1.403 . S
C581 C582 1.392 . S
C581 C585 1.495 . S
C582 C581 1.392 . S
C582 C583 1.385 . S
C582 C584 1.478 . S
C583 H577 0.930 . S
C583 C579 1.400 . S
C583 C582 1.385 . S
C584 C582 1.478 . S
C584 C586 1.381 . S
C584 C590 1.383 . S
C585 C581 1.495 . S
C585 H591 0.959 . S
C585 H592 0.961 . S
C585 H593 0.960 . S
C586 C584 1.381 . S
C586 C587 1.394 . S
C586 H594 0.930 . S
C587 C586 1.394 . S
C587 C588 1.383 . S
C587 H595 0.929 . S
C588 C587 1.383 . S
C588 C589 1.377 . S
C589 H573 0.930 . S
C589 C588 1.377 . S
C589 C590 1.379 . S
C590 H574 0.931 . S
C590 C584 1.383 . S
C590 C589 1.379 . S
H591 C585 0.959 . S
H592 C585 0.961 . S
H593 C585 0.960 . S
H594 C586 0.930 . S
H595 C587 0.929 . S
H596 C604 0.929 . S
H597 C606 0.930 . S
H598 C608 0.930 . S
H599 C611 0.929 . S
H600 C614 0.930 . S
H601 C616 0.960 . S
H602 C616 0.960 . S
H603 C616 0.960 . S
C604 H596 0.929 . S
C604 C605 1.377 . S
C604 C606 1.384 1_565 S
C605 C604 1.377 . S
C605 C611 1.390 . S
C606 H597 0.930 . S
C606 C604 1.384 1_545 S
C606 C607 1.372 . S
C607 C606 1.372 . S
C607 C608 1.400 . S
C607 C612 1.490 . S
C608 H598 0.930 . S
C608 C607 1.400 . S
C608 C611 1.386 1_545 S
H609 C625 0.930 . S
H610 C626 0.931 . S
C611 H599 0.929 . S
C611 C605 1.390 . S
C611 C608 1.386 1_565 S
C612 C607 1.490 . S
C612 C614 1.395 . S
C612 C615 1.403 . S
H613 C619 0.930 . S
C614 H600 0.930 . S
C614 C612 1.395 . S
C614 C617 1.403 . S
C615 C612 1.403 . S
C615 C616 1.524 . S
C615 C619 1.400 . S
C616 H601 0.960 . S
C616 H602 0.960 . S
C616 H603 0.960 . S
C616 C615 1.524 . S
C617 C614 1.403 . S
C617 C618 1.392 . S
C617 C621 1.495 . S
C618 C617 1.392 . S
C618 C619 1.385 . S
C618 C620 1.478 . S
C619 H613 0.930 . S
C619 C615 1.400 . S
C619 C618 1.385 . S
C620 C618 1.478 . S
C620 C622 1.381 . S
C620 C626 1.383 . S
C621 C617 1.495 . S
C621 H627 0.959 . S
C621 H628 0.961 . S
C621 H629 0.960 . S
C622 C620 1.381 . S
C622 C623 1.394 . S
C622 H630 0.930 . S
C623 C622 1.394 . S
C623 C624 1.383 . S
C623 H631 0.929 . S
C624 C623 1.383 . S
C624 C625 1.377 . S
C625 H609 0.930 . S
C625 C624 1.377 . S
C625 C626 1.379 . S
C626 H610 0.931 . S
C626 C620 1.383 . S
C626 C625 1.379 . S
H627 C621 0.959 . S
H628 C621 0.961 . S
H629 C621 0.960 . S
H630 C622 0.930 . S
H631 C623 0.929 . S
H632 C640 0.929 . S
H633 C642 0.930 . S
H634 C644 0.930 . S
H635 C647 0.929 . S
H636 C650 0.930 . S
H637 C652 0.960 . S
H638 C652 0.960 . S
H639 C652 0.960 . S
C640 H632 0.929 . S
C640 C641 1.377 . S
C640 C642 1.384 1_545 S
C641 C640 1.377 . S
C641 C647 1.390 . S
C642 H633 0.930 . S
C642 C640 1.384 1_565 S
C642 C643 1.372 . S
C643 C642 1.372 . S
C643 C644 1.400 . S
C643 C648 1.490 . S
C644 H634 0.930 . S
C644 C643 1.400 . S
C644 C647 1.386 1_565 S
H645 C661 0.930 . S
H646 C662 0.931 . S
C647 H635 0.929 . S
C647 C641 1.390 . S
C647 C644 1.386 1_545 S
C648 C643 1.490 . S
C648 C650 1.395 . S
C648 C651 1.403 . S
H649 C655 0.930 . S
C650 H636 0.930 . S
C650 C648 1.395 . S
C650 C653 1.403 . S
C651 C648 1.403 . S
C651 C652 1.524 . S
C651 C655 1.400 . S
C652 H637 0.960 . S
C652 H638 0.960 . S
C652 H639 0.960 . S
C652 C651 1.524 . S
C653 C650 1.403 . S
C653 C654 1.392 . S
C653 C657 1.495 . S
C654 C653 1.392 . S
C654 C655 1.385 . S
C654 C656 1.478 . S
C655 H649 0.930 . S
C655 C651 1.400 . S
C655 C654 1.385 . S
C656 C654 1.478 . S
C656 C658 1.381 . S
C656 C662 1.383 . S
C657 C653 1.495 . S
C657 H663 0.959 . S
C657 H664 0.961 . S
C657 H665 0.960 . S
C658 C656 1.381 . S
C658 C659 1.394 . S
C658 H666 0.930 . S
C659 C658 1.394 . S
C659 C660 1.383 . S
C659 H667 0.929 . S
C660 C659 1.383 . S
C660 C661 1.377 . S
C661 H645 0.930 . S
C661 C660 1.377 . S
C661 C662 1.379 . S
C662 H646 0.931 . S
C662 C656 1.383 . S
C662 C661 1.379 . S
H663 C657 0.959 . S
H664 C657 0.961 . S
H665 C657 0.960 . S
H666 C658 0.930 . S
H667 C659 0.929 . S
H668 C676 0.929 . S
H669 C678 0.930 . S
H670 C680 0.930 . S
H671 C683 0.929 . S
H672 C686 0.930 . S
H673 C688 0.960 . S
H674 C688 0.960 . S
H675 C688 0.960 . S
C676 H668 0.929 . S
C676 C677 1.377 . S
C676 C678 1.384 . S
C677 C676 1.377 . S
C677 C683 1.390 . S
C678 H669 0.930 . S
C678 C676 1.384 . S
C678 C679 1.372 . S
C679 C678 1.372 . S
C679 C680 1.400 . S
C679 C684 1.490 . S
C680 H670 0.930 . S
C680 C679 1.400 . S
C680 C683 1.386 . S
H681 C697 0.930 . S
H682 C698 0.931 . S
C683 H671 0.929 . S
C683 C677 1.390 . S
C683 C680 1.386 . S
C684 C679 1.490 . S
C684 C686 1.395 . S
C684 C687 1.403 . S
H685 C691 0.930 . S
C686 H672 0.930 . S
C686 C684 1.395 . S
C686 C689 1.403 . S
C687 C684 1.403 . S
C687 C688 1.524 . S
C687 C691 1.400 . S
C688 H673 0.960 . S
C688 H674 0.960 . S
C688 H675 0.960 . S
C688 C687 1.524 . S
C689 C686 1.403 . S
C689 C690 1.392 . S
C689 C693 1.495 . S
C690 C689 1.392 . S
C690 C691 1.385 . S
C690 C692 1.478 . S
C691 H685 0.930 . S
C691 C687 1.400 . S
C691 C690 1.385 . S
C692 C690 1.478 . S
C692 C694 1.381 . S
C692 C698 1.383 . S
C693 C689 1.495 . S
C693 H699 0.959 . S
C693 H700 0.961 . S
C693 H701 0.960 . S
C694 C692 1.381 . S
C694 C695 1.394 1_565 S
C694 H702 0.930 . S
C695 C694 1.394 1_545 S
C695 C696 1.383 . S
C695 H703 0.929 . S
C696 C695 1.383 . S
C696 C697 1.377 . S
C697 H681 0.930 . S
C697 C696 1.377 . S
C697 C698 1.379 1_545 S
C698 H682 0.931 . S
C698 C692 1.383 . S
C698 C697 1.379 1_565 S
H699 C693 0.959 . S
H700 C693 0.961 . S
H701 C693 0.960 . S
H702 C694 0.930 . S
H703 C695 0.929 . S
H704 C712 0.929 . S
H705 C714 0.930 . S
H706 C716 0.930 . S
H707 C719 0.929 . S
H708 C722 0.930 . S
H709 C724 0.960 . S
H710 C724 0.960 . S
H711 C724 0.960 . S
C712 H704 0.929 . S
C712 C713 1.377 . S
C712 C714 1.384 . S
C713 C712 1.377 . S
C713 C719 1.390 . S
C714 H705 0.930 . S
C714 C712 1.384 . S
C714 C715 1.372 . S
C715 C714 1.372 . S
C715 C716 1.400 . S
C715 C720 1.490 . S
C716 H706 0.930 . S
C716 C715 1.400 . S
C716 C719 1.386 . S
H717 C733 0.930 . S
H718 C734 0.931 . S
C719 H707 0.929 . S
C719 C713 1.390 . S
C719 C716 1.386 . S
C720 C715 1.490 . S
C720 C722 1.395 . S
C720 C723 1.403 . S
H721 C727 0.930 . S
C722 H708 0.930 . S
C722 C720 1.395 . S
C722 C725 1.403 . S
C723 C720 1.403 . S
C723 C724 1.524 . S
C723 C727 1.400 . S
C724 H709 0.960 . S
C724 H710 0.960 . S
C724 H711 0.960 . S
C724 C723 1.524 . S
C725 C722 1.403 . S
C725 C726 1.392 . S
C725 C729 1.495 . S
C726 C725 1.392 . S
C726 C727 1.385 . S
C726 C728 1.478 . S
C727 H721 0.930 . S
C727 C723 1.400 . S
C727 C726 1.385 . S
C728 C726 1.478 . S
C728 C730 1.381 . S
C728 C734 1.383 . S
C729 C725 1.495 . S
C729 H735 0.959 . S
C729 H736 0.961 . S
C729 H737 0.960 . S
C730 C728 1.381 . S
C730 C731 1.394 . S
C730 H738 0.930 . S
C731 C730 1.394 . S
C731 C732 1.383 . S
C731 H739 0.929 . S
C732 C731 1.383 . S
C732 C733 1.377 . S
C733 H717 0.930 . S
C733 C732 1.377 . S
C733 C734 1.379 . S
C734 H718 0.931 . S
C734 C728 1.383 . S
C734 C733 1.379 . S
H735 C729 0.959 . S
H736 C729 0.961 . S
H737 C729 0.960 . S
H738 C730 0.930 . S
H739 C731 0.929 . S
H740 C748 0.929 . S
H741 C750 0.930 . S
H742 C752 0.930 . S
H743 C755 0.929 . S
H744 C758 0.930 . S
H745 C760 0.960 . S
H746 C760 0.960 . S
H747 C760 0.960 . S
C748 H740 0.929 . S
C748 C749 1.377 . S
C748 C750 1.384 . S
C749 C748 1.377 . S
C749 C755 1.390 . S
C750 H741 0.930 . S
C750 C748 1.384 . S
C750 C751 1.372 . S
C751 C750 1.372 . S
C751 C752 1.400 . S
C751 C756 1.490 . S
C752 H742 0.930 . S
C752 C751 1.400 . S
C752 C755 1.386 . S
H753 C769 0.930 . S
H754 C770 0.931 . S
C755 H743 0.929 . S
C755 C749 1.390 . S
C755 C752 1.386 . S
C756 C751 1.490 . S
C756 C758 1.395 . S
C756 C759 1.403 . S
H757 C763 0.930 . S
C758 H744 0.930 . S
C758 C756 1.395 . S
C758 C761 1.403 . S
C759 C756 1.403 . S
C759 C760 1.524 . S
C759 C763 1.400 . S
C760 H745 0.960 . S
C760 H746 0.960 . S
C760 H747 0.960 . S
C760 C759 1.524 . S
C761 C758 1.403 . S
C761 C762 1.392 . S
C761 C765 1.495 . S
C762 C761 1.392 . S
C762 C763 1.385 . S
C762 C764 1.478 . S
C763 H757 0.930 . S
C763 C759 1.400 . S
C763 C762 1.385 . S
C764 C762 1.478 . S
C764 C766 1.381 . S
C764 C770 1.383 . S
C765 C761 1.495 . S
C765 H771 0.959 . S
C765 H772 0.961 . S
C765 H773 0.960 . S
C766 C764 1.381 . S
C766 C767 1.394 . S
C766 H774 0.930 . S
C767 C766 1.394 . S
C767 C768 1.383 . S
C767 H775 0.929 . S
C768 C767 1.383 . S
C768 C769 1.377 . S
C769 H753 0.930 . S
C769 C768 1.377 . S
C769 C770 1.379 . S
C770 H754 0.931 . S
C770 C764 1.383 . S
C770 C769 1.379 . S
H771 C765 0.959 . S
H772 C765 0.961 . S
H773 C765 0.960 . S
H774 C766 0.930 . S
H775 C767 0.929 . S
H776 C784 0.929 . S
H777 C786 0.930 . S
H778 C788 0.930 . S
H779 C791 0.929 . S
H780 C794 0.930 . S
H781 C796 0.960 . S
H782 C796 0.960 . S
H783 C796 0.960 . S
C784 H776 0.929 . S
C784 C785 1.377 . S
C784 C786 1.384 . S
C785 C784 1.377 . S
C785 C791 1.390 . S
C786 H777 0.930 . S
C786 C784 1.384 . S
C786 C787 1.372 . S
C787 C786 1.372 . S
C787 C788 1.400 . S
C787 C792 1.490 . S
C788 H778 0.930 . S
C788 C787 1.400 . S
C788 C791 1.386 . S
H789 C805 0.930 . S
H790 C806 0.931 . S
C791 H779 0.929 . S
C791 C785 1.390 . S
C791 C788 1.386 . S
C792 C787 1.490 . S
C792 C794 1.395 . S
C792 C795 1.403 . S
H793 C799 0.930 . S
C794 H780 0.930 . S
C794 C792 1.395 . S
C794 C797 1.403 . S
C795 C792 1.403 . S
C795 C796 1.524 . S
C795 C799 1.400 . S
C796 H781 0.960 . S
C796 H782 0.960 . S
C796 H783 0.960 . S
C796 C795 1.524 . S
C797 C794 1.403 . S
C797 C798 1.392 . S
C797 C801 1.495 . S
C798 C797 1.392 . S
C798 C799 1.385 . S
C798 C800 1.478 . S
C799 H793 0.930 . S
C799 C795 1.400 . S
C799 C798 1.385 . S
C800 C798 1.478 . S
C800 C802 1.381 . S
C800 C806 1.383 . S
C801 C797 1.495 . S
C801 H807 0.959 . S
C801 H808 0.961 . S
C801 H809 0.960 . S
C802 C800 1.381 . S
C802 C803 1.394 . S
C802 H810 0.930 . S
C803 C802 1.394 . S
C803 C804 1.383 . S
C803 H811 0.929 . S
C804 C803 1.383 . S
C804 C805 1.377 . S
C805 H789 0.930 . S
C805 C804 1.377 . S
C805 C806 1.379 . S
C806 H790 0.931 . S
C806 C800 1.383 . S
C806 C805 1.379 . S
H807 C801 0.959 . S
H808 C801 0.961 . S
H809 C801 0.960 . S
H810 C802 0.930 . S
H811 C803 0.929 . S
H812 C820 0.929 . S
H813 C822 0.930 . S
H814 C824 0.930 . S
H815 C827 0.929 . S
H816 C830 0.930 . S
H817 C832 0.960 . S
H818 C832 0.960 . S
H819 C832 0.960 . S
C820 H812 0.929 . S
C820 C821 1.377 . S
C820 C822 1.384 . S
C821 C820 1.377 . S
C821 C827 1.390 . S
C822 H813 0.930 . S
C822 C820 1.384 . S
C822 C823 1.372 . S
C823 C822 1.372 . S
C823 C824 1.400 . S
C823 C828 1.490 . S
C824 H814 0.930 . S
C824 C823 1.400 . S
C824 C827 1.386 . S
H825 C841 0.930 . S
H826 C842 0.931 . S
C827 H815 0.929 . S
C827 C821 1.390 . S
C827 C824 1.386 . S
C828 C823 1.490 . S
C828 C830 1.395 . S
C828 C831 1.403 . S
H829 C835 0.930 . S
C830 H816 0.930 . S
C830 C828 1.395 . S
C830 C833 1.403 . S
C831 C828 1.403 . S
C831 C832 1.524 . S
C831 C835 1.400 . S
C832 H817 0.960 . S
C832 H818 0.960 . S
C832 H819 0.960 . S
C832 C831 1.524 . S
C833 C830 1.403 . S
C833 C834 1.392 . S
C833 C837 1.495 . S
C834 C833 1.392 . S
C834 C835 1.385 . S
C834 C836 1.478 . S
C835 H829 0.930 . S
C835 C831 1.400 . S
C835 C834 1.385 . S
C836 C834 1.478 . S
C836 C838 1.381 . S
C836 C842 1.383 . S
C837 C833 1.495 . S
C837 H843 0.959 . S
C837 H844 0.961 . S
C837 H845 0.960 . S
C838 C836 1.381 . S
C838 C839 1.394 . S
C838 H846 0.930 . S
C839 C838 1.394 . S
C839 C840 1.383 . S
C839 H847 0.929 . S
C840 C839 1.383 . S
C840 C841 1.377 . S
C841 H825 0.930 . S
C841 C840 1.377 . S
C841 C842 1.379 . S
C842 H826 0.931 . S
C842 C836 1.383 . S
C842 C841 1.379 . S
H843 C837 0.959 . S
H844 C837 0.961 . S
H845 C837 0.960 . S
H846 C838 0.930 . S
H847 C839 0.929 . S
H848 C856 0.929 . S
H849 C858 0.930 . S
H850 C860 0.930 . S
H851 C863 0.929 . S
H852 C866 0.930 . S
H853 C868 0.960 . S
H854 C868 0.960 . S
H855 C868 0.960 . S
C856 H848 0.929 . S
C856 C857 1.377 . S
C856 C858 1.384 . S
C857 C856 1.377 . S
C857 C863 1.390 . S
C858 H849 0.930 . S
C858 C856 1.384 . S
C858 C859 1.372 . S
C859 C858 1.372 . S
C859 C860 1.400 . S
C859 C864 1.490 . S
C860 H850 0.930 . S
C860 C859 1.400 . S
C860 C863 1.386 . S
H861 C877 0.930 . S
H862 C878 0.931 . S
C863 H851 0.929 . S
C863 C857 1.390 . S
C863 C860 1.386 . S
C864 C859 1.490 . S
C864 C866 1.395 . S
C864 C867 1.403 . S
H865 C871 0.930 . S
C866 H852 0.930 . S
C866 C864 1.395 . S
C866 C869 1.403 . S
C867 C864 1.403 . S
C867 C868 1.524 . S
C867 C871 1.400 . S
C868 H853 0.960 . S
C868 H854 0.960 . S
C868 H855 0.960 . S
C868 C867 1.524 . S
C869 C866 1.403 . S
C869 C870 1.392 . S
C869 C873 1.495 . S
C870 C869 1.392 . S
C870 C871 1.385 . S
C870 C872 1.478 . S
C871 H865 0.930 . S
C871 C867 1.400 . S
C871 C870 1.385 . S
C872 C870 1.478 . S
C872 C874 1.381 . S
C872 C878 1.383 . S
C873 C869 1.495 . S
C873 H879 0.959 . S
C873 H880 0.961 . S
C873 H881 0.960 . S
C874 C872 1.381 . S
C874 C875 1.394 1_545 S
C874 H882 0.930 . S
C875 C874 1.394 1_565 S
C875 C876 1.383 . S
C875 H883 0.929 . S
C876 C875 1.383 . S
C876 C877 1.377 . S
C877 H861 0.930 . S
C877 C876 1.377 . S
C877 C878 1.379 1_565 S
C878 H862 0.931 . S
C878 C872 1.383 . S
C878 C877 1.379 1_545 S
H879 C873 0.959 . S
H880 C873 0.961 . S
H881 C873 0.960 . S
H882 C874 0.930 . S
H883 C875 0.929 . S
H884 C892 0.929 . S
H885 C894 0.930 . S
H886 C896 0.930 . S
H887 C899 0.929 . S
H888 C902 0.930 . S
H889 C904 0.960 . S
H890 C904 0.960 . S
H891 C904 0.960 . S
C892 H884 0.929 . S
C892 C893 1.377 . S
C892 C894 1.384 1_565 S
C893 C892 1.377 . S
C893 C899 1.390 . S
C894 H885 0.930 . S
C894 C892 1.384 1_545 S
C894 C895 1.372 . S
C895 C894 1.372 . S
C895 C896 1.400 . S
C895 C900 1.490 . S
C896 H886 0.930 . S
C896 C895 1.400 . S
C896 C899 1.386 1_545 S
H897 C913 0.930 . S
H898 C914 0.931 . S
C899 H887 0.929 . S
C899 C893 1.390 . S
C899 C896 1.386 1_565 S
C900 C895 1.490 . S
C900 C902 1.395 . S
C900 C903 1.403 . S
H901 C907 0.930 . S
C902 H888 0.930 . S
C902 C900 1.395 . S
C902 C905 1.403 . S
C903 C900 1.403 . S
C903 C904 1.524 . S
C903 C907 1.400 . S
C904 H889 0.960 . S
C904 H890 0.960 . S
C904 H891 0.960 . S
C904 C903 1.524 . S
C905 C902 1.403 . S
C905 C906 1.392 . S
C905 C909 1.495 . S
C906 C905 1.392 . S
C906 C907 1.385 . S
C906 C908 1.478 . S
C907 H901 0.930 . S
C907 C903 1.400 . S
C907 C906 1.385 . S
C908 C906 1.478 . S
C908 C910 1.381 . S
C908 C914 1.383 . S
C909 C905 1.495 . S
C909 H915 0.959 . S
C909 H916 0.961 . S
C909 H917 0.960 . S
C910 C908 1.381 . S
C910 C911 1.394 . S
C910 H918 0.930 . S
C911 C910 1.394 . S
C911 C912 1.383 . S
C911 H919 0.929 . S
C912 C911 1.383 . S
C912 C913 1.377 . S
C913 H897 0.930 . S
C913 C912 1.377 . S
C913 C914 1.379 . S
C914 H898 0.931 . S
C914 C908 1.383 . S
C914 C913 1.379 . S
H915 C909 0.959 . S
H916 C909 0.961 . S
H917 C909 0.960 . S
H918 C910 0.930 . S
H919 C911 0.929 . S
H920 C928 0.929 . S
H921 C930 0.930 . S
H922 C932 0.930 . S
H923 C935 0.929 . S
H924 C938 0.930 . S
H925 C940 0.960 . S
H926 C940 0.960 . S
H927 C940 0.960 . S
C928 H920 0.929 . S
C928 C929 1.377 . S
C928 C930 1.384 . S
C929 C928 1.377 . S
C929 C935 1.390 . S
C930 H921 0.930 . S
C930 C928 1.384 . S
C930 C931 1.372 . S
C931 C930 1.372 . S
C931 C932 1.400 . S
C931 C936 1.490 . S
C932 H922 0.930 . S
C932 C931 1.400 . S
C932 C935 1.386 . S
H933 C949 0.930 . S
H934 C950 0.931 . S
C935 H923 0.929 . S
C935 C929 1.390 . S
C935 C932 1.386 . S
C936 C931 1.490 . S
C936 C938 1.395 . S
C936 C939 1.403 . S
H937 C943 0.930 . S
C938 H924 0.930 . S
C938 C936 1.395 . S
C938 C941 1.403 . S
C939 C936 1.403 . S
C939 C940 1.524 . S
C939 C943 1.400 . S
C940 H925 0.960 . S
C940 H926 0.960 . S
C940 H927 0.960 . S
C940 C939 1.524 . S
C941 C938 1.403 . S
C941 C942 1.392 . S
C941 C945 1.495 . S
C942 C941 1.392 . S
C942 C943 1.385 . S
C942 C944 1.478 . S
C943 H937 0.930 . S
C943 C939 1.400 . S
C943 C942 1.385 . S
C944 C942 1.478 . S
C944 C946 1.381 . S
C944 C950 1.383 . S
C945 C941 1.495 . S
C945 H951 0.959 . S
C945 H952 0.961 . S
C945 H953 0.960 . S
C946 C944 1.381 . S
C946 C947 1.394 1_565 S
C946 H954 0.930 . S
C947 C946 1.394 1_545 S
C947 C948 1.383 . S
C947 H955 0.929 . S
C948 C947 1.383 . S
C948 C949 1.377 . S
C949 H933 0.930 . S
C949 C948 1.377 . S
C949 C950 1.379 1_545 S
C950 H934 0.931 . S
C950 C944 1.383 . S
C950 C949 1.379 1_565 S
H951 C945 0.959 . S
H952 C945 0.961 . S
H953 C945 0.960 . S
H954 C946 0.930 . S
H955 C947 0.929 . S
H956 C964 0.929 . S
H957 C966 0.930 . S
H958 C968 0.930 . S
H959 C971 0.929 . S
H960 C974 0.930 . S
H961 C976 0.960 . S
H962 C976 0.960 . S
H963 C976 0.960 . S
C964 H956 0.929 . S
C964 C965 1.377 . S
C964 C966 1.384 . S
C965 C964 1.377 . S
C965 C971 1.390 . S
C966 H957 0.930 . S
C966 C964 1.384 . S
C966 C967 1.372 . S
C967 C966 1.372 . S
C967 C968 1.400 . S
C967 C972 1.490 . S
C968 H958 0.930 . S
C968 C967 1.400 . S
C968 C971 1.386 . S
H969 C985 0.930 . S
H970 C986 0.931 . S
C971 H959 0.929 . S
C971 C965 1.390 . S
C971 C968 1.386 . S
C972 C967 1.490 . S
C972 C974 1.395 . S
C972 C975 1.403 . S
H973 C979 0.930 . S
C974 H960 0.930 . S
C974 C972 1.395 . S
C974 C977 1.403 . S
C975 C972 1.403 . S
C975 C976 1.524 . S
C975 C979 1.400 . S
C976 H961 0.960 . S
C976 H962 0.960 . S
C976 H963 0.960 . S
C976 C975 1.524 . S
C977 C974 1.403 . S
C977 C978 1.392 . S
C977 C981 1.495 . S
C978 C977 1.392 . S
C978 C979 1.385 . S
C978 C980 1.478 . S
C979 H973 0.930 . S
C979 C975 1.400 . S
C979 C978 1.385 . S
C980 C978 1.478 . S
C980 C982 1.381 . S
C980 C986 1.383 . S
C981 C977 1.495 . S
C981 H987 0.959 . S
C981 H988 0.961 . S
C981 H989 0.960 . S
C982 C980 1.381 . S
C982 C983 1.394 1_565 S
C982 H990 0.930 . S
C983 C982 1.394 1_545 S
C983 C984 1.383 . S
C983 H991 0.929 . S
C984 C983 1.383 . S
C984 C985 1.377 . S
C985 H969 0.930 . S
C985 C984 1.377 . S
C985 C986 1.379 1_545 S
C986 H970 0.931 . S
C986 C980 1.383 . S
C986 C985 1.379 1_565 S
H987 C981 0.959 . S
H988 C981 0.961 . S
H989 C981 0.960 . S
H990 C982 0.930 . S
H991 C983 0.929 . S
H992 C1000 0.929 . S
H993 C1002 0.930 . S
H994 C1004 0.930 . S
H995 C1007 0.929 . S
H996 C1010 0.930 . S
H997 C1012 0.960 . S
H998 C1012 0.960 . S
H999 C1012 1.001 . S
C1000 H992 0.929 . S
C1000 C1001 1.377 . S
C1000 C1002 1.384 . S
C1001 C1000 1.377 . S
C1001 C1007 1.390 . S
C1002 H993 0.930 . S
C1002 C1000 1.384 . S
C1002 C1003 1.372 . S
C1003 C1002 1.372 . S
C1003 C1004 1.400 . S
C1003 C1008 1.490 . S
C1004 H994 0.930 . S
C1004 C1003 1.400 . S
C1004 C1007 1.386 . S
H1005 C1021 0.930 . S
H1006 C1022 0.931 . S
C1007 H995 0.929 . S
C1007 C1001 1.390 . S
C1007 C1004 1.386 . S
C1008 C1003 1.490 . S
C1008 C1010 1.395 1_556 S
C1008 C1011 1.403 1_655 S
H1009 C1015 0.930 . S
C1010 H996 0.930 . S
C1010 C1008 1.395 1_554 S
C1010 C1013 1.403 . S
C1011 C1008 1.403 1_455 S
C1011 C1012 1.524 . S
C1011 C1015 1.400 . S
C1012 H997 0.960 . S
C1012 H998 0.960 . S
C1012 H999 1.001 . S
C1012 C1011 1.524 . S
C1013 C1010 1.403 . S
C1013 C1014 1.392 1_655 S
C1013 C1017 1.495 . S
C1014 C1013 1.392 1_455 S
C1014 C1015 1.385 1_554 S
C1014 C1016 1.478 . S
C1015 H1009 0.930 . S
C1015 C1011 1.400 . S
C1015 C1014 1.385 1_556 S
C1016 C1014 1.478 . S
C1016 C1018 1.381 . S
C1016 C1022 1.383 . S
C1017 C1013 1.495 . S
C1017 H1023 0.959 . S
C1017 H1024 0.961 . S
C1017 H1025 1.016 . S
C1018 C1016 1.381 . S
C1018 C1019 1.394 . S
C1018 H1026 0.930 . S
C1019 C1018 1.394 . S
C1019 C1020 1.383 . S
C1019 H1027 0.929 . S
C1020 C1019 1.383 . S
C1020 C1021 1.377 . S
C1021 H1005 0.930 . S
C1021 C1020 1.377 . S
C1021 C1022 1.379 . S
C1022 H1006 0.931 . S
C1022 C1016 1.383 . S
C1022 C1021 1.379 . S
H1023 C1017 0.959 . S
H1024 C1017 0.961 . S
H1025 C1017 1.016 . S
H1026 C1018 0.930 . S
H1027 C1019 0.929 . S
H1028 C1036 0.929 . S
H1029 C1038 0.930 . S
H1030 C1040 0.930 . S
H1031 C1043 0.929 . S
H1032 C1046 0.930 . S
H1033 C1048 0.960 . S
H1034 C1048 0.960 . S
H1035 C1048 0.960 . S
C1036 H1028 0.929 . S
C1036 C1037 1.377 . S
C1036 C1038 1.384 . S
C1037 C1036 1.377 . S
C1037 C1043 1.390 . S
C1038 H1029 0.930 . S
C1038 C1036 1.384 . S
C1038 C1039 1.372 . S
C1039 C1038 1.372 . S
C1039 C1040 1.400 . S
C1039 C1044 1.490 . S
C1040 H1030 0.930 . S
C1040 C1039 1.400 . S
C1040 C1043 1.386 . S
H1041 C1057 0.930 . S
H1042 C1058 0.931 . S
C1043 H1031 0.929 . S
C1043 C1037 1.390 . S
C1043 C1040 1.386 . S
C1044 C1039 1.490 . S
C1044 C1046 1.395 . S
C1044 C1047 1.403 . S
H1045 C1051 0.930 . S
C1046 H1032 0.930 . S
C1046 C1044 1.395 . S
C1046 C1049 1.403 1_556 S
C1047 C1044 1.403 . S
C1047 C1048 1.524 . S
C1047 C1051 1.400 1_556 S
C1048 H1033 0.960 . S
C1048 H1034 0.960 . S
C1048 H1035 0.960 . S
C1048 C1047 1.524 . S
C1049 C1046 1.403 1_554 S
C1049 C1050 1.392 . S
C1049 C1053 1.495 . S
C1050 C1049 1.392 . S
C1050 C1051 1.385 . S
C1050 C1052 1.478 . S
C1051 H1045 0.930 . S
C1051 C1047 1.400 1_554 S
C1051 C1050 1.385 . S
C1052 C1050 1.478 . S
C1052 C1054 1.381 . S
C1052 C1058 1.383 . S
C1053 C1049 1.495 . S
C1053 H1059 0.959 . S
C1053 H1060 0.961 . S
C1053 H1061 0.960 . S
C1054 C1052 1.381 . S
C1054 C1055 1.394 . S
C1054 H1062 0.930 . S
C1055 C1054 1.394 . S
C1055 C1056 1.383 . S
C1055 H1063 0.929 . S
C1056 C1055 1.383 . S
C1056 C1057 1.377 . S
C1057 H1041 0.930 . S
C1057 C1056 1.377 . S
C1057 C1058 1.379 . S
C1058 H1042 0.931 . S
C1058 C1052 1.383 . S
C1058 C1057 1.379 . S
H1059 C1053 0.959 . S
H1060 C1053 0.961 . S
H1061 C1053 0.960 . S
H1062 C1054 0.930 . S
H1063 C1055 0.929 . S
H1064 C1072 0.929 . S
H1065 C1074 0.930 . S
H1066 C1076 0.930 . S
H1067 C1079 0.929 . S
H1068 C1082 0.941 . S
H1069 C1084 0.960 . S
H1070 C1084 0.960 . S
H1071 C1084 0.960 . S
C1072 H1064 0.929 . S
C1072 C1073 1.377 . S
C1072 C1074 1.384 . S
C1073 C1072 1.377 . S
C1073 C1079 1.390 . S
C1074 H1065 0.930 . S
C1074 C1072 1.384 . S
C1074 C1075 1.372 . S
C1075 C1074 1.372 . S
C1075 C1076 1.400 . S
C1075 C1080 1.490 . S
C1076 H1066 0.930 . S
C1076 C1075 1.400 . S
C1076 C1079 1.386 . S
H1077 C1093 0.930 . S
H1078 C1094 0.931 . S
C1079 H1067 0.929 . S
C1079 C1073 1.390 . S
C1079 C1076 1.386 . S
C1080 C1075 1.490 . S
C1080 C1082 1.429 . S
C1080 C1083 1.403 . S
H1081 C1087 0.930 . S
C1082 H1068 0.941 . S
C1082 C1080 1.429 . S
C1082 C1085 1.363 1_455 S
C1083 C1080 1.403 . S
C1083 C1084 1.524 . S
C1083 C1087 1.400 1_455 S
C1084 H1069 0.960 . S
C1084 H1070 0.960 . S
C1084 H1071 0.960 . S
C1084 C1083 1.524 . S
C1085 C1082 1.363 1_655 S
C1085 C1086 1.392 . S
C1085 C1089 1.495 . S
C1086 C1085 1.392 . S
C1086 C1087 1.385 . S
C1086 C1088 1.478 . S
C1087 H1081 0.930 . S
C1087 C1083 1.400 1_655 S
C1087 C1086 1.385 . S
C1088 C1086 1.478 . S
C1088 C1090 1.381 . S
C1088 C1094 1.383 . S
C1089 C1085 1.495 . S
C1089 H1095 0.959 . S
C1089 H1096 0.961 . S
C1089 H1097 0.960 . S
C1090 C1088 1.381 . S
C1090 C1091 1.394 . S
C1090 H1098 0.930 . S
C1091 C1090 1.394 . S
C1091 C1092 1.383 . S
C1091 H1099 0.929 . S
C1092 C1091 1.383 . S
C1092 C1093 1.377 . S
C1093 H1077 0.930 . S
C1093 C1092 1.377 . S
C1093 C1094 1.379 . S
C1094 H1078 0.931 . S
C1094 C1088 1.383 . S
C1094 C1093 1.379 . S
H1095 C1089 0.959 . S
H1096 C1089 0.961 . S
H1097 C1089 0.960 . S
H1098 C1090 0.930 . S
H1099 C1091 0.929 . S
H1100 C1108 0.929 . S
H1101 C1110 0.930 . S
H1102 C1112 0.930 . S
H1103 C1115 0.929 . S
H1104 C1118 0.930 . S
H1105 C1120 0.960 . S
H1106 C1120 0.960 . S
H1107 C1120 0.960 . S
C1108 H1100 0.929 . S
C1108 C1109 1.377 . S
C1108 C1110 1.384 . S
C1109 C1108 1.377 . S
C1109 C1115 1.390 . S
C1110 H1101 0.930 . S
C1110 C1108 1.384 . S
C1110 C1111 1.372 . S
C1111 C1110 1.372 . S
C1111 C1112 1.400 . S
C1111 C1116 1.490 . S
C1112 H1102 0.930 . S
C1112 C1111 1.400 . S
C1112 C1115 1.386 . S
H1113 C1129 0.930 . S
H1114 C1130 0.931 . S
C1115 H1103 0.929 . S
C1115 C1109 1.390 . S
C1115 C1112 1.386 . S
C1116 C1111 1.490 . S
C1116 C1118 1.395 . S
C1116 C1119 1.403 . S
H1117 C1123 0.930 . S
C1118 H1104 0.930 . S
C1118 C1116 1.395 . S
C1118 C1121 1.403 . S
C1119 C1116 1.403 . S
C1119 C1120 1.524 . S
C1119 C1123 1.400 . S
C1120 H1105 0.960 . S
C1120 H1106 0.960 . S
C1120 H1107 0.960 . S
C1120 C1119 1.524 . S
C1121 C1118 1.403 . S
C1121 C1122 1.392 . S
C1121 C1125 1.495 . S
C1122 C1121 1.392 . S
C1122 C1123 1.385 . S
C1122 C1124 1.478 . S
C1123 H1117 0.930 . S
C1123 C1119 1.400 . S
C1123 C1122 1.385 . S
C1124 C1122 1.478 . S
C1124 C1126 1.381 . S
C1124 C1130 1.383 . S
C1125 C1121 1.495 . S
C1125 H1131 0.959 . S
C1125 H1132 0.961 . S
C1125 H1133 0.960 . S
C1126 C1124 1.381 . S
C1126 C1127 1.394 . S
C1126 H1134 0.930 . S
C1127 C1126 1.394 . S
C1127 C1128 1.383 . S
C1127 H1135 0.929 . S
C1128 C1127 1.383 . S
C1128 C1129 1.377 . S
C1129 H1113 0.930 . S
C1129 C1128 1.377 . S
C1129 C1130 1.379 . S
C1130 H1114 0.931 . S
C1130 C1124 1.383 . S
C1130 C1129 1.379 . S
H1131 C1125 0.959 . S
H1132 C1125 0.961 . S
H1133 C1125 0.960 . S
H1134 C1126 0.930 . S
H1135 C1127 0.929 . S
H1136 C1144 0.929 . S
H1137 C1146 0.930 . S
H1138 C1148 0.930 . S
H1139 C1151 0.929 . S
H1140 C1154 0.930 . S
H1141 C1156 0.979 . S
H1142 C1156 0.938 1_556 S
H1143 C1156 0.965 . S
C1144 H1136 0.929 . S
C1144 C1145 1.377 . S
C1144 C1146 1.384 . S
C1145 C1144 1.377 . S
C1145 C1151 1.390 . S
C1146 H1137 0.930 . S
C1146 C1144 1.384 . S
C1146 C1147 1.372 . S
C1147 C1146 1.372 . S
C1147 C1148 1.400 . S
C1147 C1152 1.490 . S
C1148 H1138 0.930 . S
C1148 C1147 1.400 . S
C1148 C1151 1.386 . S
H1149 C1165 0.930 . S
H1150 C1166 0.931 . S
C1151 H1139 0.929 . S
C1151 C1145 1.390 . S
C1151 C1148 1.386 . S
C1152 C1147 1.490 . S
C1152 C1154 1.395 . S
C1152 C1155 1.426 . S
H1153 C1159 0.930 . S
C1154 H1140 0.930 . S
C1154 C1152 1.395 . S
C1154 C1157 1.403 . S
C1155 C1152 1.426 . S
C1155 C1156 1.522 1_556 S
C1155 C1159 1.379 1_556 S
C1156 H1141 0.979 . S
C1156 H1142 0.938 1_554 S
C1156 H1143 0.965 . S
C1156 C1155 1.522 1_554 S
C1157 C1154 1.403 . S
C1157 C1158 1.392 1_556 S
C1157 C1161 1.495 . S
C1158 C1157 1.392 1_554 S
C1158 C1159 1.385 . S
C1158 C1160 1.478 . S
C1159 H1153 0.930 . S
C1159 C1155 1.379 1_554 S
C1159 C1158 1.385 . S
C1160 C1158 1.478 . S
C1160 C1162 1.381 . S
C1160 C1166 1.383 . S
C1161 C1157 1.495 . S
C1161 H1167 0.959 . S
C1161 H1168 0.961 1_556 S
C1161 H1169 0.960 . S
C1162 C1160 1.381 . S
C1162 C1163 1.394 . S
C1162 H1170 0.930 . S
C1163 C1162 1.394 . S
C1163 C1164 1.383 . S
C1163 H1171 0.929 . S
C1164 C1163 1.383 . S
C1164 C1165 1.377 . S
C1165 H1149 0.930 . S
C1165 C1164 1.377 . S
C1165 C1166 1.379 . S
C1166 H1150 0.931 . S
C1166 C1160 1.383 . S
C1166 C1165 1.379 . S
H1167 C1161 0.959 . S
H1168 C1161 0.961 1_554 S
H1169 C1161 0.960 . S
H1170 C1162 0.930 . S
H1171 C1163 0.929 . S
H1172 C1180 0.929 . S
H1173 C1182 0.930 . S
H1174 C1184 0.930 . S
H1175 C1187 0.929 . S
H1176 C1190 0.930 . S
H1177 C1192 0.960 . S
H1178 C1192 0.960 . S
H1179 C1192 0.960 . S
C1180 H1172 0.929 . S
C1180 C1181 1.377 . S
C1180 C1182 1.384 . S
C1181 C1180 1.377 . S
C1181 C1187 1.390 . S
C1182 H1173 0.930 . S
C1182 C1180 1.384 . S
C1182 C1183 1.372 . S
C1183 C1182 1.372 . S
C1183 C1184 1.400 . S
C1183 C1188 1.490 . S
C1184 H1174 0.930 . S
C1184 C1183 1.400 . S
C1184 C1187 1.386 . S
H1185 C1201 0.930 . S
H1186 C1202 0.931 . S
C1187 H1175 0.929 . S
C1187 C1181 1.390 . S
C1187 C1184 1.386 . S
C1188 C1183 1.490 . S
C1188 C1190 1.395 1_655 S
C1188 C1191 1.403 . S
H1189 C1195 0.935 . S
C1190 H1176 0.930 . S
C1190 C1188 1.395 1_455 S
C1190 C1193 1.403 . S
C1191 C1188 1.403 . S
C1191 C1192 1.524 . S
C1191 C1195 1.430 . S
C1192 H1177 0.960 . S
C1192 H1178 0.960 . S
C1192 H1179 0.960 . S
C1192 C1191 1.524 . S
C1193 C1190 1.403 . S
C1193 C1194 1.392 . S
C1193 C1197 1.495 . S
C1194 C1193 1.392 . S
C1194 C1195 1.353 1_455 S
C1194 C1196 1.478 . S
C1195 H1189 0.935 . S
C1195 C1191 1.430 . S
C1195 C1194 1.353 1_655 S
C1196 C1194 1.478 . S
C1196 C1198 1.381 . S
C1196 C1202 1.383 . S
C1197 C1193 1.495 . S
C1197 H1203 0.959 . S
C1197 H1204 0.961 . S
C1197 H1205 0.960 . S
C1198 C1196 1.381 . S
C1198 C1199 1.394 . S
C1198 H1206 0.930 . S
C1199 C1198 1.394 . S
C1199 C1200 1.383 . S
C1199 H1207 0.929 . S
C1200 C1199 1.383 . S
C1200 C1201 1.377 . S
C1201 H1185 0.930 . S
C1201 C1200 1.377 . S
C1201 C1202 1.379 . S
C1202 H1186 0.931 . S
C1202 C1196 1.383 . S
C1202 C1201 1.379 . S
H1203 C1197 0.959 . S
H1204 C1197 0.961 . S
H1205 C1197 0.960 . S
H1206 C1198 0.930 . S
H1207 C1199 0.929 . S
H1208 C1216 0.929 . S
H1209 C1218 0.930 . S
H1210 C1220 0.930 . S
H1211 C1223 0.929 . S
H1212 C1226 0.930 . S
H1213 C1228 0.960 . S
H1214 C1228 0.960 . S
H1215 C1228 0.960 . S
C1216 H1208 0.929 . S
C1216 C1217 1.377 . S
C1216 C1218 1.384 . S
C1217 C1216 1.377 . S
C1217 C1223 1.390 . S
C1218 H1209 0.930 . S
C1218 C1216 1.384 . S
C1218 C1219 1.372 . S
C1219 C1218 1.372 . S
C1219 C1220 1.400 . S
C1219 C1224 1.490 . S
C1220 H1210 0.930 . S
C1220 C1219 1.400 . S
C1220 C1223 1.386 . S
H1221 C1237 0.930 . S
H1222 C1238 0.931 . S
C1223 H1211 0.929 . S
C1223 C1217 1.390 . S
C1223 C1220 1.386 . S
C1224 C1219 1.490 . S
C1224 C1226 1.395 . S
C1224 C1227 1.403 . S
H1225 C1231 0.930 . S
C1226 H1212 0.930 . S
C1226 C1224 1.395 . S
C1226 C1229 1.403 . S
C1227 C1224 1.403 . S
C1227 C1228 1.524 . S
C1227 C1231 1.400 . S
C1228 H1213 0.960 . S
C1228 H1214 0.960 . S
C1228 H1215 0.960 . S
C1228 C1227 1.524 . S
C1229 C1226 1.403 . S
C1229 C1230 1.392 . S
C1229 C1233 1.495 . S
C1230 C1229 1.392 . S
C1230 C1231 1.385 . S
C1230 C1232 1.478 . S
C1231 H1225 0.930 . S
C1231 C1227 1.400 . S
C1231 C1230 1.385 . S
C1232 C1230 1.478 . S
C1232 C1234 1.381 . S
C1232 C1238 1.383 . S
C1233 C1229 1.495 . S
C1233 H1239 0.959 . S
C1233 H1240 0.961 . S
C1233 H1241 0.960 . S
C1234 C1232 1.381 . S
C1234 C1235 1.394 . S
C1234 H1242 0.930 . S
C1235 C1234 1.394 . S
C1235 C1236 1.383 . S
C1235 H1243 0.929 . S
C1236 C1235 1.383 . S
C1236 C1237 1.377 . S
C1237 H1221 0.930 . S
C1237 C1236 1.377 . S
C1237 C1238 1.379 . S
C1238 H1222 0.931 . S
C1238 C1232 1.383 . S
C1238 C1237 1.379 . S
H1239 C1233 0.959 . S
H1240 C1233 0.961 . S
H1241 C1233 0.960 . S
H1242 C1234 0.930 . S
H1243 C1235 0.929 . S
H1244 C1252 0.929 . S
H1245 C1254 0.930 . S
H1246 C1256 0.930 . S
H1247 C1259 0.929 . S
H1248 C1262 0.930 . S
H1249 C1264 0.960 . S
H1250 C1264 0.974 . S
H1251 C1264 0.960 . S
C1252 H1244 0.929 . S
C1252 C1253 1.377 . S
C1252 C1254 1.384 . S
C1253 C1252 1.377 . S
C1253 C1259 1.390 . S
C1254 H1245 0.930 . S
C1254 C1252 1.384 . S
C1254 C1255 1.372 . S
C1255 C1254 1.372 . S
C1255 C1256 1.400 . S
C1255 C1260 1.490 . S
C1256 H1246 0.930 . S
C1256 C1255 1.400 . S
C1256 C1259 1.386 . S
H1257 C1273 0.930 . S
H1258 C1274 0.931 . S
C1259 H1247 0.929 . S
C1259 C1253 1.390 . S
C1259 C1256 1.386 . S
C1260 C1255 1.490 . S
C1260 C1262 1.395 1_545 S
C1260 C1263 1.403 1_655 S
H1261 C1267 0.930 . S
C1262 H1248 0.930 . S
C1262 C1260 1.395 1_565 S
C1262 C1265 1.403 . S
C1263 C1260 1.403 1_455 S
C1263 C1264 1.524 . S
C1263 C1267 1.400 . S
C1264 H1249 0.960 . S
C1264 H1250 0.974 . S
C1264 H1251 0.960 . S
C1264 C1263 1.524 . S
C1265 C1262 1.403 . S
C1265 C1266 1.392 1_655 S
C1265 C1269 1.495 . S
C1266 C1265 1.392 1_455 S
C1266 C1267 1.385 1_565 S
C1266 C1268 1.478 . S
C1267 H1261 0.930 . S
C1267 C1263 1.400 . S
C1267 C1266 1.385 1_545 S
C1268 C1266 1.478 . S
C1268 C1270 1.381 . S
C1268 C1274 1.383 . S
C1269 C1265 1.495 . S
C1269 H1275 0.959 . S
C1269 H1276 0.961 . S
C1269 H1277 0.960 . S
C1270 C1268 1.381 . S
C1270 C1271 1.394 . S
C1270 H1278 0.930 . S
C1271 C1270 1.394 . S
C1271 C1272 1.383 . S
C1271 H1279 0.929 . S
C1272 C1271 1.383 . S
C1272 C1273 1.377 . S
C1273 H1257 0.930 . S
C1273 C1272 1.377 . S
C1273 C1274 1.379 . S
C1274 H1258 0.931 . S
C1274 C1268 1.383 . S
C1274 C1273 1.379 . S
H1275 C1269 0.959 . S
H1276 C1269 0.961 . S
H1277 C1269 0.960 . S
H1278 C1270 0.930 . S
H1279 C1271 0.929 . S
H1280 C1288 0.929 . S
H1281 C1290 0.930 . S
H1282 C1292 0.930 . S
H1283 C1295 0.929 . S
H1284 C1298 0.930 . S
H1285 C1300 0.960 . S
H1286 C1300 0.960 . S
H1287 C1300 0.960 . S
C1288 H1280 0.929 . S
C1288 C1289 1.377 . S
C1288 C1290 1.384 . S
C1289 C1288 1.377 . S
C1289 C1295 1.390 . S
C1290 H1281 0.930 . S
C1290 C1288 1.384 . S
C1290 C1291 1.372 . S
C1291 C1290 1.372 . S
C1291 C1292 1.400 . S
C1291 C1296 1.490 . S
C1292 H1282 0.930 . S
C1292 C1291 1.400 . S
C1292 C1295 1.386 . S
H1293 C1309 0.930 . S
H1294 C1310 0.931 . S
C1295 H1283 0.929 . S
C1295 C1289 1.390 . S
C1295 C1292 1.386 . S
C1296 C1291 1.490 . S
C1296 C1298 1.395 . S
C1296 C1299 1.403 . S
H1297 C1303 0.930 . S
C1298 H1284 0.930 . S
C1298 C1296 1.395 . S
C1298 C1301 1.403 . S
C1299 C1296 1.403 . S
C1299 C1300 1.524 . S
C1299 C1303 1.400 . S
C1300 H1285 0.960 . S
C1300 H1286 0.960 . S
C1300 H1287 0.960 . S
C1300 C1299 1.524 . S
C1301 C1298 1.403 . S
C1301 C1302 1.392 . S
C1301 C1305 1.495 . S
C1302 C1301 1.392 . S
C1302 C1303 1.385 . S
C1302 C1304 1.478 . S
C1303 H1297 0.930 . S
C1303 C1299 1.400 . S
C1303 C1302 1.385 . S
C1304 C1302 1.478 . S
C1304 C1306 1.381 . S
C1304 C1310 1.383 . S
C1305 C1301 1.495 . S
C1305 H1311 0.959 . S
C1305 H1312 0.961 . S
C1305 H1313 0.960 . S
C1306 C1304 1.381 . S
C1306 C1307 1.394 . S
C1306 H1314 0.930 . S
C1307 C1306 1.394 . S
C1307 C1308 1.383 . S
C1307 H1315 0.929 . S
C1308 C1307 1.383 . S
C1308 C1309 1.377 . S
C1309 H1293 0.930 . S
C1309 C1308 1.377 . S
C1309 C1310 1.379 . S
C1310 H1294 0.931 . S
C1310 C1304 1.383 . S
C1310 C1309 1.379 . S
H1311 C1305 0.959 . S
H1312 C1305 0.961 . S
H1313 C1305 0.960 . S
H1314 C1306 0.930 . S
H1315 C1307 0.929 . S
H1316 C1324 0.929 . S
H1317 C1326 0.930 . S
H1318 C1328 0.930 . S
H1319 C1331 0.929 . S
H1320 C1334 0.930 . S
H1321 C1336 0.960 . S
H1322 C1336 0.960 . S
H1323 C1336 0.960 . S
C1324 H1316 0.929 . S
C1324 C1325 1.377 . S
C1324 C1326 1.384 . S
C1325 C1324 1.377 . S
C1325 C1331 1.390 . S
C1326 H1317 0.930 . S
C1326 C1324 1.384 . S
C1326 C1327 1.372 . S
C1327 C1326 1.372 . S
C1327 C1328 1.400 . S
C1327 C1332 1.490 . S
C1328 H1318 0.930 . S
C1328 C1327 1.400 . S
C1328 C1331 1.386 . S
H1329 C1345 0.930 . S
H1330 C1346 0.931 . S
C1331 H1319 0.929 . S
C1331 C1325 1.390 . S
C1331 C1328 1.386 . S
C1332 C1327 1.490 . S
C1332 C1334 1.395 . S
C1332 C1335 1.403 1_565 S
H1333 C1339 0.930 . S
C1334 H1320 0.930 . S
C1334 C1332 1.395 . S
C1334 C1337 1.403 . S
C1335 C1332 1.403 1_545 S
C1335 C1336 1.524 . S
C1335 C1339 1.400 . S
C1336 H1321 0.960 . S
C1336 H1322 0.960 . S
C1336 H1323 0.960 . S
C1336 C1335 1.524 . S
C1337 C1334 1.403 . S
C1337 C1338 1.392 1_565 S
C1337 C1341 1.495 . S
C1338 C1337 1.392 1_545 S
C1338 C1339 1.385 . S
C1338 C1340 1.478 . S
C1339 H1333 0.930 . S
C1339 C1335 1.400 . S
C1339 C1338 1.385 . S
C1340 C1338 1.478 . S
C1340 C1342 1.381 . S
C1340 C1346 1.383 . S
C1341 C1337 1.495 . S
C1341 H1347 0.959 . S
C1341 H1348 0.961 . S
C1341 H1349 0.960 . S
C1342 C1340 1.381 . S
C1342 C1343 1.394 . S
C1342 H1350 0.930 . S
C1343 C1342 1.394 . S
C1343 C1344 1.383 . S
C1343 H1351 0.929 . S
C1344 C1343 1.383 . S
C1344 C1345 1.377 . S
C1345 H1329 0.930 . S
C1345 C1344 1.377 . S
C1345 C1346 1.379 . S
C1346 H1330 0.931 . S
C1346 C1340 1.383 . S
C1346 C1345 1.379 . S
H1347 C1341 0.959 . S
H1348 C1341 0.961 . S
H1349 C1341 0.960 . S
H1350 C1342 0.930 . S
H1351 C1343 0.929 . S
H1352 C1360 0.929 . S
H1353 C1362 0.930 . S
H1354 C1364 0.930 . S
H1355 C1367 0.929 . S
H1356 C1370 0.930 . S
H1357 C1372 0.960 . S
H1358 C1372 0.960 . S
H1359 C1372 0.960 . S
C1360 H1352 0.929 . S
C1360 C1361 1.377 . S
C1360 C1362 1.384 . S
C1361 C1360 1.377 . S
C1361 C1367 1.390 . S
C1362 H1353 0.930 . S
C1362 C1360 1.384 . S
C1362 C1363 1.372 . S
C1363 C1362 1.372 . S
C1363 C1364 1.400 . S
C1363 C1368 1.490 . S
C1364 H1354 0.930 . S
C1364 C1363 1.400 . S
C1364 C1367 1.386 . S
H1365 C1381 0.930 . S
H1366 C1382 0.931 . S
C1367 H1355 0.929 . S
C1367 C1361 1.390 . S
C1367 C1364 1.386 . S
C1368 C1363 1.490 . S
C1368 C1370 1.395 . S
C1368 C1371 1.403 . S
H1369 C1375 0.930 . S
C1370 H1356 0.930 . S
C1370 C1368 1.395 . S
C1370 C1373 1.403 . S
C1371 C1368 1.403 . S
C1371 C1372 1.524 . S
C1371 C1375 1.400 . S
C1372 H1357 0.960 . S
C1372 H1358 0.960 . S
C1372 H1359 0.960 . S
C1372 C1371 1.524 . S
C1373 C1370 1.403 . S
C1373 C1374 1.392 . S
C1373 C1377 1.495 . S
C1374 C1373 1.392 . S
C1374 C1375 1.385 . S
C1374 C1376 1.478 . S
C1375 H1369 0.930 . S
C1375 C1371 1.400 . S
C1375 C1374 1.385 . S
C1376 C1374 1.478 . S
C1376 C1378 1.381 . S
C1376 C1382 1.383 . S
C1377 C1373 1.495 . S
C1377 H1383 0.959 . S
C1377 H1384 0.961 . S
C1377 H1385 0.960 . S
C1378 C1376 1.381 . S
C1378 C1379 1.394 . S
C1378 H1386 0.930 . S
C1379 C1378 1.394 . S
C1379 C1380 1.383 . S
C1379 H1387 0.929 . S
C1380 C1379 1.383 . S
C1380 C1381 1.377 . S
C1381 H1365 0.930 . S
C1381 C1380 1.377 . S
C1381 C1382 1.379 . S
C1382 H1366 0.931 . S
C1382 C1376 1.383 . S
C1382 C1381 1.379 . S
H1383 C1377 0.959 . S
H1384 C1377 0.961 . S
H1385 C1377 0.960 . S
H1386 C1378 0.930 . S
H1387 C1379 0.929 . S
H1388 C1396 0.929 . S
H1389 C1398 0.930 . S
H1390 C1400 0.930 . S
H1391 C1403 0.929 . S
H1392 C1406 0.930 . S
H1393 C1408 0.960 . S
H1394 C1408 0.960 . S
H1395 C1408 0.960 . S
C1396 H1388 0.929 . S
C1396 C1397 1.377 . S
C1396 C1398 1.384 . S
C1397 C1396 1.377 . S
C1397 C1403 1.390 . S
C1398 H1389 0.930 . S
C1398 C1396 1.384 . S
C1398 C1399 1.372 . S
C1399 C1398 1.372 . S
C1399 C1400 1.400 . S
C1399 C1404 1.490 . S
C1400 H1390 0.930 . S
C1400 C1399 1.400 . S
C1400 C1403 1.386 . S
H1401 C1417 0.930 . S
H1402 C1418 0.931 . S
C1403 H1391 0.929 . S
C1403 C1397 1.390 . S
C1403 C1400 1.386 . S
C1404 C1399 1.490 . S
C1404 C1406 1.395 1_565 S
C1404 C1407 1.403 . S
H1405 C1411 0.930 . S
C1406 H1392 0.930 . S
C1406 C1404 1.395 1_545 S
C1406 C1409 1.403 . S
C1407 C1404 1.403 . S
C1407 C1408 1.524 . S
C1407 C1411 1.400 . S
C1408 H1393 0.960 . S
C1408 H1394 0.960 . S
C1408 H1395 0.960 . S
C1408 C1407 1.524 . S
C1409 C1406 1.403 . S
C1409 C1410 1.392 . S
C1409 C1413 1.495 . S
C1410 C1409 1.392 . S
C1410 C1411 1.385 1_545 S
C1410 C1412 1.478 . S
C1411 H1405 0.930 . S
C1411 C1407 1.400 . S
C1411 C1410 1.385 1_565 S
C1412 C1410 1.478 . S
C1412 C1414 1.381 . S
C1412 C1418 1.383 . S
C1413 C1409 1.495 . S
C1413 H1419 0.959 . S
C1413 H1420 0.961 . S
C1413 H1421 0.960 . S
C1414 C1412 1.381 . S
C1414 C1415 1.394 . S
C1414 H1422 0.930 . S
C1415 C1414 1.394 . S
C1415 C1416 1.383 . S
C1415 H1423 0.929 . S
C1416 C1415 1.383 . S
C1416 C1417 1.377 . S
C1417 H1401 0.930 . S
C1417 C1416 1.377 . S
C1417 C1418 1.379 . S
C1418 H1402 0.931 . S
C1418 C1412 1.383 . S
C1418 C1417 1.379 . S
H1419 C1413 0.959 . S
H1420 C1413 0.961 . S
H1421 C1413 0.960 . S
H1422 C1414 0.930 . S
H1423 C1415 0.929 . S
H1424 C1432 0.929 . S
H1425 C1434 0.930 . S
H1426 C1436 0.930 . S
H1427 C1439 0.929 . S
H1428 C1442 0.930 . S
H1429 C1444 0.960 . S
H1430 C1444 0.960 . S
H1431 C1444 0.960 . S
C1432 H1424 0.929 . S
C1432 C1433 1.377 . S
C1432 C1434 1.384 . S
C1433 C1432 1.377 . S
C1433 C1439 1.390 . S
C1434 H1425 0.930 . S
C1434 C1432 1.384 . S
C1434 C1435 1.372 . S
C1435 C1434 1.372 . S
C1435 C1436 1.400 . S
C1435 C1440 1.490 . S
C1436 H1426 0.930 . S
C1436 C1435 1.400 . S
C1436 C1439 1.386 . S
H1437 C1453 0.930 . S
H1438 C1454 0.931 . S
C1439 H1427 0.929 . S
C1439 C1433 1.390 . S
C1439 C1436 1.386 . S
C1440 C1435 1.490 . S
C1440 C1442 1.395 . S
C1440 C1443 1.403 . S
H1441 C1447 0.930 . S
C1442 H1428 0.930 . S
C1442 C1440 1.395 . S
C1442 C1445 1.403 . S
C1443 C1440 1.403 . S
C1443 C1444 1.524 . S
C1443 C1447 1.400 . S
C1444 H1429 0.960 . S
C1444 H1430 0.960 . S
C1444 H1431 0.960 . S
C1444 C1443 1.524 . S
C1445 C1442 1.403 . S
C1445 C1446 1.392 . S
C1445 C1449 1.495 . S
C1446 C1445 1.392 . S
C1446 C1447 1.385 . S
C1446 C1448 1.478 . S
C1447 H1441 0.930 . S
C1447 C1443 1.400 . S
C1447 C1446 1.385 . S
C1448 C1446 1.478 . S
C1448 C1450 1.381 . S
C1448 C1454 1.383 . S
C1449 C1445 1.495 . S
C1449 H1455 0.959 . S
C1449 H1456 0.961 . S
C1449 H1457 0.960 . S
C1450 C1448 1.381 . S
C1450 C1451 1.394 . S
C1450 H1458 0.930 . S
C1451 C1450 1.394 . S
C1451 C1452 1.383 . S
C1451 H1459 0.929 . S
C1452 C1451 1.383 . S
C1452 C1453 1.377 . S
C1453 H1437 0.930 . S
C1453 C1452 1.377 . S
C1453 C1454 1.379 . S
C1454 H1438 0.931 . S
C1454 C1448 1.383 . S
C1454 C1453 1.379 . S
H1455 C1449 0.959 . S
H1456 C1449 0.961 . S
H1457 C1449 0.960 . S
H1458 C1450 0.930 . S
H1459 C1451 0.929 . S
H1460 C1468 0.929 . S
H1461 C1470 0.930 . S
H1462 C1472 0.930 . S
H1463 C1475 0.929 . S
H1464 C1478 0.930 . S
H1465 C1480 0.960 . S
H1466 C1480 0.960 . S
H1467 C1480 0.960 . S
C1468 H1460 0.929 . S
C1468 C1469 1.377 . S
C1468 C1470 1.384 . S
C1469 C1468 1.377 . S
C1469 C1475 1.390 . S
C1470 H1461 0.930 . S
C1470 C1468 1.384 . S
C1470 C1471 1.372 . S
C1471 C1470 1.372 . S
C1471 C1472 1.400 . S
C1471 C1476 1.490 . S
C1472 H1462 0.930 . S
C1472 C1471 1.400 . S
C1472 C1475 1.386 . S
H1473 C1489 0.930 . S
H1474 C1490 0.931 . S
C1475 H1463 0.929 . S
C1475 C1469 1.390 . S
C1475 C1472 1.386 . S
C1476 C1471 1.490 . S
C1476 C1478 1.395 . S
C1476 C1479 1.403 . S
H1477 C1483 0.930 . S
C1478 H1464 0.930 . S
C1478 C1476 1.395 . S
C1478 C1481 1.403 . S
C1479 C1476 1.403 . S
C1479 C1480 1.524 . S
C1479 C1483 1.400 . S
C1480 H1465 0.960 . S
C1480 H1466 0.960 . S
C1480 H1467 0.960 . S
C1480 C1479 1.524 . S
C1481 C1478 1.403 . S
C1481 C1482 1.392 . S
C1481 C1485 1.495 . S
C1482 C1481 1.392 . S
C1482 C1483 1.385 . S
C1482 C1484 1.478 . S
C1483 H1477 0.930 . S
C1483 C1479 1.400 . S
C1483 C1482 1.385 . S
C1484 C1482 1.478 . S
C1484 C1486 1.381 . S
C1484 C1490 1.383 . S
C1485 C1481 1.495 . S
C1485 H1491 0.959 . S
C1485 H1492 0.961 . S
C1485 H1493 0.960 . S
C1486 C1484 1.381 . S
C1486 C1487 1.394 . S
C1486 H1494 0.930 . S
C1487 C1486 1.394 . S
C1487 C1488 1.383 . S
C1487 H1495 0.929 . S
C1488 C1487 1.383 . S
C1488 C1489 1.377 . S
C1489 H1473 0.930 . S
C1489 C1488 1.377 . S
C1489 C1490 1.379 . S
C1490 H1474 0.931 . S
C1490 C1484 1.383 . S
C1490 C1489 1.379 . S
H1491 C1485 0.959 . S
H1492 C1485 0.961 . S
H1493 C1485 0.960 . S
H1494 C1486 0.930 . S
H1495 C1487 0.929 . S
H1496 C1504 0.929 . S
H1497 C1506 0.930 . S
H1498 C1508 0.930 . S
H1499 C1511 0.929 . S
H1500 C1514 0.930 . S
H1501 C1516 0.960 . S
H1502 C1516 0.960 . S
H1503 C1516 0.960 . S
C1504 H1496 0.929 . S
C1504 C1505 1.377 . S
C1504 C1506 1.384 . S
C1505 C1504 1.377 . S
C1505 C1511 1.390 . S
C1506 H1497 0.930 . S
C1506 C1504 1.384 . S
C1506 C1507 1.372 . S
C1507 C1506 1.372 . S
C1507 C1508 1.400 . S
C1507 C1512 1.490 . S
C1508 H1498 0.930 . S
C1508 C1507 1.400 . S
C1508 C1511 1.386 . S
H1509 C1525 0.930 . S
H1510 C1526 0.931 . S
C1511 H1499 0.929 . S
C1511 C1505 1.390 . S
C1511 C1508 1.386 . S
C1512 C1507 1.490 . S
C1512 C1514 1.395 . S
C1512 C1515 1.403 . S
H1513 C1519 0.930 . S
C1514 H1500 0.930 . S
C1514 C1512 1.395 . S
C1514 C1517 1.403 . S
C1515 C1512 1.403 . S
C1515 C1516 1.524 . S
C1515 C1519 1.400 . S
C1516 H1501 0.960 . S
C1516 H1502 0.960 . S
C1516 H1503 0.960 . S
C1516 C1515 1.524 . S
C1517 C1514 1.403 . S
C1517 C1518 1.392 . S
C1517 C1521 1.495 . S
C1518 C1517 1.392 . S
C1518 C1519 1.385 . S
C1518 C1520 1.478 . S
C1519 H1513 0.930 . S
C1519 C1515 1.400 . S
C1519 C1518 1.385 . S
C1520 C1518 1.478 . S
C1520 C1522 1.381 . S
C1520 C1526 1.383 . S
C1521 C1517 1.495 . S
C1521 H1527 0.959 . S
C1521 H1528 0.961 . S
C1521 H1529 0.960 . S
C1522 C1520 1.381 . S
C1522 C1523 1.394 . S
C1522 H1530 0.930 . S
C1523 C1522 1.394 . S
C1523 C1524 1.383 . S
C1523 H1531 0.929 . S
C1524 C1523 1.383 . S
C1524 C1525 1.377 . S
C1525 H1509 0.930 . S
C1525 C1524 1.377 . S
C1525 C1526 1.379 . S
C1526 H1510 0.931 . S
C1526 C1520 1.383 . S
C1526 C1525 1.379 . S
H1527 C1521 0.959 . S
H1528 C1521 0.961 . S
H1529 C1521 0.960 . S
H1530 C1522 0.930 . S
H1531 C1523 0.929 . S
H1532 C1540 0.929 . S
H1533 C1542 0.930 1_565 S
H1534 C1544 0.930 . S
H1535 C1547 0.929 . S
H1536 C1550 0.930 . S
H1537 C1552 0.960 . S
H1538 C1552 0.960 . S
H1539 C1552 0.960 . S
C1540 H1532 0.929 . S
C1540 C1541 1.377 . S
C1540 C1542 1.384 . S
C1541 C1540 1.377 . S
C1541 C1547 1.390 . S
C1542 H1533 0.930 1_545 S
C1542 C1540 1.384 . S
C1542 C1543 1.372 . S
C1543 C1542 1.372 . S
C1543 C1544 1.400 . S
C1543 C1548 1.490 . S
C1544 H1534 0.930 . S
C1544 C1543 1.400 . S
C1544 C1547 1.386 . S
H1545 C1561 0.930 . S
H1546 C1562 0.931 1_545 S
C1547 H1535 0.929 . S
C1547 C1541 1.390 . S
C1547 C1544 1.386 . S
C1548 C1543 1.490 . S
C1548 C1550 1.395 . S
C1548 C1551 1.403 1_556 S
H1549 C1555 0.930 . S
C1550 H1536 0.930 . S
C1550 C1548 1.395 . S
C1550 C1553 1.403 1_545 S
C1551 C1548 1.403 1_554 S
C1551 C1552 1.524 . S
C1551 C1555 1.400 1_545 S
C1552 H1537 0.960 . S
C1552 H1538 0.960 . S
C1552 H1539 0.960 . S
C1552 C1551 1.524 . S
C1553 C1550 1.403 1_565 S
C1553 C1554 1.392 1_556 S
C1553 C1557 1.495 . S
C1554 C1553 1.392 1_554 S
C1554 C1555 1.385 . S
C1554 C1556 1.478 . S
C1555 H1549 0.930 . S
C1555 C1551 1.400 1_565 S
C1555 C1554 1.385 . S
C1556 C1554 1.478 . S
C1556 C1558 1.381 . S
C1556 C1562 1.383 . S
C1557 C1553 1.495 . S
C1557 H1563 0.959 . S
C1557 H1564 0.961 . S
C1557 H1565 0.960 . S
C1558 C1556 1.381 . S
C1558 C1559 1.394 . S
C1558 H1566 0.930 . S
C1559 C1558 1.394 . S
C1559 C1560 1.383 . S
C1559 H1567 0.929 . S
C1560 C1559 1.383 . S
C1560 C1561 1.377 . S
C1561 H1545 0.930 . S
C1561 C1560 1.377 . S
C1561 C1562 1.379 . S
C1562 H1546 0.931 1_565 S
C1562 C1556 1.383 . S
C1562 C1561 1.379 . S
H1563 C1557 0.959 . S
H1564 C1557 0.961 . S
H1565 C1557 0.960 . S
H1566 C1558 0.930 . S
H1567 C1559 0.929 . S
H1568 C1576 0.929 . S
H1569 C1578 0.930 . S
H1570 C1580 0.930 . S
H1571 C1583 0.929 . S
H1572 C1586 0.930 . S
H1573 C1588 0.960 . S
H1574 C1588 0.960 . S
H1575 C1588 0.960 . S
C1576 H1568 0.929 . S
C1576 C1577 1.377 . S
C1576 C1578 1.384 . S
C1577 C1576 1.377 . S
C1577 C1583 1.390 . S
C1578 H1569 0.930 . S
C1578 C1576 1.384 . S
C1578 C1579 1.372 . S
C1579 C1578 1.372 . S
C1579 C1580 1.400 . S
C1579 C1584 1.490 . S
C1580 H1570 0.930 . S
C1580 C1579 1.400 . S
C1580 C1583 1.386 . S
H1581 C1597 0.930 . S
H1582 C1598 0.931 . S
C1583 H1571 0.929 . S
C1583 C1577 1.390 . S
C1583 C1580 1.386 . S
C1584 C1579 1.490 . S
C1584 C1586 1.395 . S
C1584 C1587 1.403 . S
H1585 C1591 0.930 . S
C1586 H1572 0.930 . S
C1586 C1584 1.395 . S
C1586 C1589 1.403 . S
C1587 C1584 1.403 . S
C1587 C1588 1.524 . S
C1587 C1591 1.400 . S
C1588 H1573 0.960 . S
C1588 H1574 0.960 . S
C1588 H1575 0.960 . S
C1588 C1587 1.524 . S
C1589 C1586 1.403 . S
C1589 C1590 1.392 . S
C1589 C1593 1.495 . S
C1590 C1589 1.392 . S
C1590 C1591 1.385 . S
C1590 C1592 1.478 . S
C1591 H1585 0.930 . S
C1591 C1587 1.400 . S
C1591 C1590 1.385 . S
C1592 C1590 1.478 . S
C1592 C1594 1.381 . S
C1592 C1598 1.383 . S
C1593 C1589 1.495 . S
C1593 H1599 0.959 . S
C1593 H1600 0.961 . S
C1593 H1601 0.960 . S
C1594 C1592 1.381 . S
C1594 C1595 1.394 . S
C1594 H1602 0.930 . S
C1595 C1594 1.394 . S
C1595 C1596 1.383 . S
C1595 H1603 0.929 . S
C1596 C1595 1.383 . S
C1596 C1597 1.377 . S
C1597 H1581 0.930 . S
C1597 C1596 1.377 . S
C1597 C1598 1.379 . S
C1598 H1582 0.931 . S
C1598 C1592 1.383 . S
C1598 C1597 1.379 . S
H1599 C1593 0.959 . S
H1600 C1593 0.961 . S
H1601 C1593 0.960 . S
H1602 C1594 0.930 . S
H1603 C1595 0.929 . S
H1604 C1612 0.929 . S
H1605 C1614 0.930 . S
H1606 C1616 0.930 . S
H1607 C1619 0.929 . S
H1608 C1622 0.930 . S
H1609 C1624 0.960 . S
H1610 C1624 0.960 . S
H1611 C1624 0.960 . S
C1612 H1604 0.929 . S
C1612 C1613 1.377 . S
C1612 C1614 1.384 . S
C1613 C1612 1.377 . S
C1613 C1619 1.390 . S
C1614 H1605 0.930 . S
C1614 C1612 1.384 . S
C1614 C1615 1.372 . S
C1615 C1614 1.372 . S
C1615 C1616 1.400 . S
C1615 C1620 1.490 . S
C1616 H1606 0.930 . S
C1616 C1615 1.400 . S
C1616 C1619 1.386 . S
H1617 C1633 0.930 . S
H1618 C1634 0.931 . S
C1619 H1607 0.929 . S
C1619 C1613 1.390 . S
C1619 C1616 1.386 . S
C1620 C1615 1.490 . S
C1620 C1622 1.395 . S
C1620 C1623 1.403 . S
H1621 C1627 0.930 . S
C1622 H1608 0.930 . S
C1622 C1620 1.395 . S
C1622 C1625 1.403 . S
C1623 C1620 1.403 . S
C1623 C1624 1.524 . S
C1623 C1627 1.400 . S
C1624 H1609 0.960 . S
C1624 H1610 0.960 . S
C1624 H1611 0.960 . S
C1624 C1623 1.524 . S
C1625 C1622 1.403 . S
C1625 C1626 1.392 . S
C1625 C1629 1.495 . S
C1626 C1625 1.392 . S
C1626 C1627 1.385 . S
C1626 C1628 1.478 . S
C1627 H1621 0.930 . S
C1627 C1623 1.400 . S
C1627 C1626 1.385 . S
C1628 C1626 1.478 . S
C1628 C1630 1.381 . S
C1628 C1634 1.383 . S
C1629 C1625 1.495 . S
C1629 H1635 0.959 . S
C1629 H1636 0.961 . S
C1629 H1637 0.960 . S
C1630 C1628 1.381 . S
C1630 C1631 1.394 . S
C1630 H1638 0.930 . S
C1631 C1630 1.394 . S
C1631 C1632 1.383 . S
C1631 H1639 0.929 . S
C1632 C1631 1.383 . S
C1632 C1633 1.377 . S
C1633 H1617 0.930 . S
C1633 C1632 1.377 . S
C1633 C1634 1.379 . S
C1634 H1618 0.931 . S
C1634 C1628 1.383 . S
C1634 C1633 1.379 . S
H1635 C1629 0.959 . S
H1636 C1629 0.961 . S
H1637 C1629 0.960 . S
H1638 C1630 0.930 . S
H1639 C1631 0.929 . S
H1640 C1648 0.929 . S
H1641 C1650 0.930 . S
H1642 C1652 0.930 . S
H1643 C1655 0.929 . S
H1644 C1658 0.930 . S
H1645 C1660 0.960 . S
H1646 C1660 0.960 . S
H1647 C1660 0.960 . S
C1648 H1640 0.929 . S
C1648 C1649 1.377 . S
C1648 C1650 1.384 . S
C1649 C1648 1.377 . S
C1649 C1655 1.390 . S
C1650 H1641 0.930 . S
C1650 C1648 1.384 . S
C1650 C1651 1.372 . S
C1651 C1650 1.372 . S
C1651 C1652 1.400 . S
C1651 C1656 1.490 . S
C1652 H1642 0.930 . S
C1652 C1651 1.400 . S
C1652 C1655 1.386 . S
H1653 C1669 0.930 . S
H1654 C1670 0.931 . S
C1655 H1643 0.929 . S
C1655 C1649 1.390 . S
C1655 C1652 1.386 . S
C1656 C1651 1.490 . S
C1656 C1658 1.395 . S
C1656 C1659 1.403 . S
H1657 C1663 0.930 . S
C1658 H1644 0.930 . S
C1658 C1656 1.395 . S
C1658 C1661 1.403 . S
C1659 C1656 1.403 . S
C1659 C1660 1.524 . S
C1659 C1663 1.400 . S
C1660 H1645 0.960 . S
C1660 H1646 0.960 . S
C1660 H1647 0.960 . S
C1660 C1659 1.524 . S
C1661 C1658 1.403 . S
C1661 C1662 1.392 . S
C1661 C1665 1.495 . S
C1662 C1661 1.392 . S
C1662 C1663 1.385 . S
C1662 C1664 1.478 . S
C1663 H1657 0.930 . S
C1663 C1659 1.400 . S
C1663 C1662 1.385 . S
C1664 C1662 1.478 . S
C1664 C1666 1.381 . S
C1664 C1670 1.383 . S
C1665 C1661 1.495 . S
C1665 H1671 0.959 . S
C1665 H1672 0.961 . S
C1665 H1673 0.960 . S
C1666 C1664 1.381 . S
C1666 C1667 1.394 . S
C1666 H1674 0.930 . S
C1667 C1666 1.394 . S
C1667 C1668 1.383 . S
C1667 H1675 0.929 . S
C1668 C1667 1.383 . S
C1668 C1669 1.377 . S
C1669 H1653 0.930 . S
C1669 C1668 1.377 . S
C1669 C1670 1.379 . S
C1670 H1654 0.931 . S
C1670 C1664 1.383 . S
C1670 C1669 1.379 . S
H1671 C1665 0.959 . S
H1672 C1665 0.961 . S
H1673 C1665 0.960 . S
H1674 C1666 0.930 . S
H1675 C1667 0.929 . S
H1676 C1684 0.929 . S
H1677 C1686 0.930 . S
H1678 C1688 0.930 . S
H1679 C1691 0.929 . S
H1680 C1694 0.930 . S
H1681 C1696 0.960 . S
H1682 C1696 0.960 . S
H1683 C1696 0.960 . S
C1684 H1676 0.929 . S
C1684 C1685 1.377 . S
C1684 C1686 1.384 . S
C1685 C1684 1.377 . S
C1685 C1691 1.390 . S
C1686 H1677 0.930 . S
C1686 C1684 1.384 . S
C1686 C1687 1.372 . S
C1687 C1686 1.372 . S
C1687 C1688 1.400 . S
C1687 C1692 1.490 . S
C1688 H1678 0.930 . S
C1688 C1687 1.400 . S
C1688 C1691 1.386 . S
H1689 C1705 0.930 . S
H1690 C1706 0.931 . S
C1691 H1679 0.929 . S
C1691 C1685 1.390 . S
C1691 C1688 1.386 . S
C1692 C1687 1.490 . S
C1692 C1694 1.395 . S
C1692 C1695 1.403 . S
H1693 C1699 0.930 . S
C1694 H1680 0.930 . S
C1694 C1692 1.395 . S
C1694 C1697 1.403 . S
C1695 C1692 1.403 . S
C1695 C1696 1.524 . S
C1695 C1699 1.400 . S
C1696 H1681 0.960 . S
C1696 H1682 0.960 . S
C1696 H1683 0.960 . S
C1696 C1695 1.524 . S
C1697 C1694 1.403 . S
C1697 C1698 1.392 . S
C1697 C1701 1.495 . S
C1698 C1697 1.392 . S
C1698 C1699 1.385 . S
C1698 C1700 1.478 . S
C1699 H1693 0.930 . S
C1699 C1695 1.400 . S
C1699 C1698 1.385 . S
C1700 C1698 1.478 . S
C1700 C1702 1.381 . S
C1700 C1706 1.383 . S
C1701 C1697 1.495 . S
C1701 H1707 0.959 . S
C1701 H1708 0.961 . S
C1701 H1709 0.960 . S
C1702 C1700 1.381 . S
C1702 C1703 1.394 . S
C1702 H1710 0.930 . S
C1703 C1702 1.394 . S
C1703 C1704 1.383 . S
C1703 H1711 0.929 . S
C1704 C1703 1.383 . S
C1704 C1705 1.377 . S
C1705 H1689 0.930 . S
C1705 C1704 1.377 . S
C1705 C1706 1.379 . S
C1706 H1690 0.931 . S
C1706 C1700 1.383 . S
C1706 C1705 1.379 . S
H1707 C1701 0.959 . S
H1708 C1701 0.961 . S
H1709 C1701 0.960 . S
H1710 C1702 0.930 . S
H1711 C1703 0.929 . S
H1712 C1720 0.929 . S
H1713 C1722 0.930 . S
H1714 C1724 0.930 . S
H1715 C1727 0.929 . S
H1716 C1730 0.930 . S
H1717 C1732 0.960 . S
H1718 C1732 0.960 . S
H1719 C1732 0.960 . S
C1720 H1712 0.929 . S
C1720 C1721 1.377 . S
C1720 C1722 1.384 . S
C1721 C1720 1.377 . S
C1721 C1727 1.390 . S
C1722 H1713 0.930 . S
C1722 C1720 1.384 . S
C1722 C1723 1.372 . S
C1723 C1722 1.372 . S
C1723 C1724 1.400 . S
C1723 C1728 1.490 . S
C1724 H1714 0.930 . S
C1724 C1723 1.400 . S
C1724 C1727 1.386 . S
H1725 C1741 0.930 . S
H1726 C1742 0.931 . S
C1727 H1715 0.929 . S
C1727 C1721 1.390 . S
C1727 C1724 1.386 . S
C1728 C1723 1.490 . S
C1728 C1730 1.395 . S
C1728 C1731 1.403 . S
H1729 C1735 0.930 . S
C1730 H1716 0.930 . S
C1730 C1728 1.395 . S
C1730 C1733 1.403 . S
C1731 C1728 1.403 . S
C1731 C1732 1.524 . S
C1731 C1735 1.400 . S
C1732 H1717 0.960 . S
C1732 H1718 0.960 . S
C1732 H1719 0.960 . S
C1732 C1731 1.524 . S
C1733 C1730 1.403 . S
C1733 C1734 1.392 . S
C1733 C1737 1.495 . S
C1734 C1733 1.392 . S
C1734 C1735 1.385 . S
C1734 C1736 1.478 . S
C1735 H1729 0.930 . S
C1735 C1731 1.400 . S
C1735 C1734 1.385 . S
C1736 C1734 1.478 . S
C1736 C1738 1.381 . S
C1736 C1742 1.383 . S
C1737 C1733 1.495 . S
C1737 H1743 0.959 . S
C1737 H1744 0.961 . S
C1737 H1745 0.960 . S
C1738 C1736 1.381 . S
C1738 C1739 1.394 . S
C1738 H1746 0.930 . S
C1739 C1738 1.394 . S
C1739 C1740 1.383 . S
C1739 H1747 0.929 . S
C1740 C1739 1.383 . S
C1740 C1741 1.377 . S
C1741 H1725 0.930 . S
C1741 C1740 1.377 . S
C1741 C1742 1.379 . S
C1742 H1726 0.931 . S
C1742 C1736 1.383 . S
C1742 C1741 1.379 . S
H1743 C1737 0.959 . S
H1744 C1737 0.961 . S
H1745 C1737 0.960 . S
H1746 C1738 0.930 . S
H1747 C1739 0.929 . S
H1748 C1756 0.929 . S
H1749 C1758 0.930 . S
H1750 C1760 0.930 . S
H1751 C1763 0.929 . S
H1752 C1766 0.930 . S
H1753 C1768 0.960 . S
H1754 C1768 0.960 . S
H1755 C1768 0.960 . S
C1756 H1748 0.929 . S
C1756 C1757 1.377 . S
C1756 C1758 1.384 . S
C1757 C1756 1.377 . S
C1757 C1763 1.390 . S
C1758 H1749 0.930 . S
C1758 C1756 1.384 . S
C1758 C1759 1.372 . S
C1759 C1758 1.372 . S
C1759 C1760 1.400 . S
C1759 C1764 1.490 . S
C1760 H1750 0.930 . S
C1760 C1759 1.400 . S
C1760 C1763 1.386 . S
H1761 C1777 0.930 . S
H1762 C1778 0.931 . S
C1763 H1751 0.929 . S
C1763 C1757 1.390 . S
C1763 C1760 1.386 . S
C1764 C1759 1.490 . S
C1764 C1766 1.395 . S
C1764 C1767 1.403 . S
H1765 C1771 0.930 . S
C1766 H1752 0.930 . S
C1766 C1764 1.395 . S
C1766 C1769 1.403 . S
C1767 C1764 1.403 . S
C1767 C1768 1.524 . S
C1767 C1771 1.400 . S
C1768 H1753 0.960 . S
C1768 H1754 0.960 . S
C1768 H1755 0.960 . S
C1768 C1767 1.524 . S
C1769 C1766 1.403 . S
C1769 C1770 1.392 . S
C1769 C1773 1.495 . S
C1770 C1769 1.392 . S
C1770 C1771 1.385 . S
C1770 C1772 1.478 . S
C1771 H1765 0.930 . S
C1771 C1767 1.400 . S
C1771 C1770 1.385 . S
C1772 C1770 1.478 . S
C1772 C1774 1.381 . S
C1772 C1778 1.383 . S
C1773 C1769 1.495 . S
C1773 H1779 0.959 . S
C1773 H1780 0.961 . S
C1773 H1781 0.960 . S
C1774 C1772 1.381 . S
C1774 C1775 1.394 . S
C1774 H1782 0.930 . S
C1775 C1774 1.394 . S
C1775 C1776 1.383 . S
C1775 H1783 0.929 . S
C1776 C1775 1.383 . S
C1776 C1777 1.377 . S
C1777 H1761 0.930 . S
C1777 C1776 1.377 . S
C1777 C1778 1.379 . S
C1778 H1762 0.931 . S
C1778 C1772 1.383 . S
C1778 C1777 1.379 . S
H1779 C1773 0.959 . S
H1780 C1773 0.961 . S
H1781 C1773 0.960 . S
H1782 C1774 0.930 . S
H1783 C1775 0.929 . S
H1784 C1792 0.929 . S
H1785 C1794 0.930 . S
H1786 C1796 0.930 . S
H1787 C1799 0.929 . S
H1788 C1802 0.930 . S
H1789 C1804 0.960 . S
H1790 C1804 0.960 . S
H1791 C1804 0.960 . S
C1792 H1784 0.929 . S
C1792 C1793 1.377 . S
C1792 C1794 1.384 . S
C1793 C1792 1.377 . S
C1793 C1799 1.390 . S
C1794 H1785 0.930 . S
C1794 C1792 1.384 . S
C1794 C1795 1.372 . S
C1795 C1794 1.372 . S
C1795 C1796 1.400 . S
C1795 C1800 1.490 . S
C1796 H1786 0.930 . S
C1796 C1795 1.400 . S
C1796 C1799 1.386 . S
H1797 C1813 0.930 . S
H1798 C1814 0.931 . S
C1799 H1787 0.929 . S
C1799 C1793 1.390 . S
C1799 C1796 1.386 . S
C1800 C1795 1.490 . S
C1800 C1802 1.395 . S
C1800 C1803 1.403 . S
H1801 C1807 0.930 . S
C1802 H1788 0.930 . S
C1802 C1800 1.395 . S
C1802 C1805 1.403 . S
C1803 C1800 1.403 . S
C1803 C1804 1.524 . S
C1803 C1807 1.400 . S
C1804 H1789 0.960 . S
C1804 H1790 0.960 . S
C1804 H1791 0.960 . S
C1804 C1803 1.524 . S
C1805 C1802 1.403 . S
C1805 C1806 1.392 . S
C1805 C1809 1.495 . S
C1806 C1805 1.392 . S
C1806 C1807 1.385 . S
C1806 C1808 1.478 . S
C1807 H1801 0.930 . S
C1807 C1803 1.400 . S
C1807 C1806 1.385 . S
C1808 C1806 1.478 . S
C1808 C1810 1.381 . S
C1808 C1814 1.383 . S
C1809 C1805 1.495 . S
C1809 H1815 0.959 . S
C1809 H1816 0.961 . S
C1809 H1817 0.960 . S
C1810 C1808 1.381 . S
C1810 C1811 1.394 . S
C1810 H1818 0.930 . S
C1811 C1810 1.394 . S
C1811 C1812 1.383 . S
C1811 H1819 0.929 . S
C1812 C1811 1.383 . S
C1812 C1813 1.377 . S
C1813 H1797 0.930 . S
C1813 C1812 1.377 . S
C1813 C1814 1.379 . S
C1814 H1798 0.931 . S
C1814 C1808 1.383 . S
C1814 C1813 1.379 . S
H1815 C1809 0.959 . S
H1816 C1809 0.961 . S
H1817 C1809 0.960 . S
H1818 C1810 0.930 . S
H1819 C1811 0.929 . S
H1820 C1828 0.929 . S
H1821 C1830 0.930 . S
H1822 C1832 0.930 . S
H1823 C1835 0.929 . S
H1824 C1838 0.930 . S
H1825 C1840 0.960 . S
H1826 C1840 0.960 . S
H1827 C1840 0.960 . S
C1828 H1820 0.929 . S
C1828 C1829 1.377 . S
C1828 C1830 1.384 . S
C1829 C1828 1.377 . S
C1829 C1835 1.390 . S
C1830 H1821 0.930 . S
C1830 C1828 1.384 . S
C1830 C1831 1.372 . S
C1831 C1830 1.372 . S
C1831 C1832 1.400 . S
C1831 C1836 1.490 . S
C1832 H1822 0.930 . S
C1832 C1831 1.400 . S
C1832 C1835 1.386 . S
H1833 C1849 0.930 . S
H1834 C1850 0.931 . S
C1835 H1823 0.929 . S
C1835 C1829 1.390 . S
C1835 C1832 1.386 . S
C1836 C1831 1.490 . S
C1836 C1838 1.395 . S
C1836 C1839 1.403 . S
H1837 C1843 0.930 . S
C1838 H1824 0.930 . S
C1838 C1836 1.395 . S
C1838 C1841 1.403 . S
C1839 C1836 1.403 . S
C1839 C1840 1.524 . S
C1839 C1843 1.400 . S
C1840 H1825 0.960 . S
C1840 H1826 0.960 . S
C1840 H1827 0.960 . S
C1840 C1839 1.524 . S
C1841 C1838 1.403 . S
C1841 C1842 1.392 . S
C1841 C1845 1.495 . S
C1842 C1841 1.392 . S
C1842 C1843 1.385 . S
C1842 C1844 1.478 . S
C1843 H1837 0.930 . S
C1843 C1839 1.400 . S
C1843 C1842 1.385 . S
C1844 C1842 1.478 . S
C1844 C1846 1.381 . S
C1844 C1850 1.383 . S
C1845 C1841 1.495 . S
C1845 H1851 0.959 . S
C1845 H1852 0.961 . S
C1845 H1853 0.960 . S
C1846 C1844 1.381 . S
C1846 C1847 1.394 . S
C1846 H1854 0.930 . S
C1847 C1846 1.394 . S
C1847 C1848 1.383 . S
C1847 H1855 0.929 . S
C1848 C1847 1.383 . S
C1848 C1849 1.377 . S
C1849 H1833 0.930 . S
C1849 C1848 1.377 . S
C1849 C1850 1.379 . S
C1850 H1834 0.931 . S
C1850 C1844 1.383 . S
C1850 C1849 1.379 . S
H1851 C1845 0.959 . S
H1852 C1845 0.961 . S
H1853 C1845 0.960 . S
H1854 C1846 0.930 . S
H1855 C1847 0.929 . S
H1856 C1864 0.929 . S
H1857 C1866 0.930 . S
H1858 C1868 0.930 . S
H1859 C1871 0.929 . S
H1860 C1874 0.930 . S
H1861 C1876 0.960 . S
H1862 C1876 0.960 . S
H1863 C1876 0.960 . S
C1864 H1856 0.929 . S
C1864 C1865 1.377 . S
C1864 C1866 1.384 . S
C1865 C1864 1.377 . S
C1865 C1871 1.390 . S
C1866 H1857 0.930 . S
C1866 C1864 1.384 . S
C1866 C1867 1.372 . S
C1867 C1866 1.372 . S
C1867 C1868 1.400 . S
C1867 C1872 1.490 . S
C1868 H1858 0.930 . S
C1868 C1867 1.400 . S
C1868 C1871 1.386 . S
H1869 C1885 0.930 . S
H1870 C1886 0.931 . S
C1871 H1859 0.929 . S
C1871 C1865 1.390 . S
C1871 C1868 1.386 . S
C1872 C1867 1.490 . S
C1872 C1874 1.395 . S
C1872 C1875 1.403 . S
H1873 C1879 0.930 . S
C1874 H1860 0.930 . S
C1874 C1872 1.395 . S
C1874 C1877 1.403 . S
C1875 C1872 1.403 . S
C1875 C1876 1.524 . S
C1875 C1879 1.400 . S
C1876 H1861 0.960 . S
C1876 H1862 0.960 . S
C1876 H1863 0.960 . S
C1876 C1875 1.524 . S
C1877 C1874 1.403 . S
C1877 C1878 1.392 . S
C1877 C1881 1.495 . S
C1878 C1877 1.392 . S
C1878 C1879 1.385 . S
C1878 C1880 1.478 . S
C1879 H1873 0.930 . S
C1879 C1875 1.400 . S
C1879 C1878 1.385 . S
C1880 C1878 1.478 . S
C1880 C1882 1.381 . S
C1880 C1886 1.383 . S
C1881 C1877 1.495 . S
C1881 H1887 0.959 . S
C1881 H1888 0.961 . S
C1881 H1889 0.960 . S
C1882 C1880 1.381 . S
C1882 C1883 1.394 . S
C1882 H1890 0.930 . S
C1883 C1882 1.394 . S
C1883 C1884 1.383 . S
C1883 H1891 0.929 . S
C1884 C1883 1.383 . S
C1884 C1885 1.377 . S
C1885 H1869 0.930 . S
C1885 C1884 1.377 . S
C1885 C1886 1.379 . S
C1886 H1870 0.931 . S
C1886 C1880 1.383 . S
C1886 C1885 1.379 . S
H1887 C1881 0.959 . S
H1888 C1881 0.961 . S
H1889 C1881 0.960 . S
H1890 C1882 0.930 . S
H1891 C1883 0.929 . S
H1892 C1900 0.929 . S
H1893 C1902 0.930 . S
H1894 C1904 0.930 . S
H1895 C1907 0.929 . S
H1896 C1910 0.930 . S
H1897 C1912 0.960 . S
H1898 C1912 0.960 . S
H1899 C1912 0.960 . S
C1900 H1892 0.929 . S
C1900 C1901 1.377 . S
C1900 C1902 1.384 . S
C1901 C1900 1.377 . S
C1901 C1907 1.390 . S
C1902 H1893 0.930 . S
C1902 C1900 1.384 . S
C1902 C1903 1.372 . S
C1903 C1902 1.372 . S
C1903 C1904 1.400 . S
C1903 C1908 1.490 . S
C1904 H1894 0.930 . S
C1904 C1903 1.400 . S
C1904 C1907 1.386 . S
H1905 C1921 0.930 . S
H1906 C1922 0.931 . S
C1907 H1895 0.929 . S
C1907 C1901 1.390 . S
C1907 C1904 1.386 . S
C1908 C1903 1.490 . S
C1908 C1910 1.395 . S
C1908 C1911 1.403 . S
H1909 C1915 0.930 . S
C1910 H1896 0.930 . S
C1910 C1908 1.395 . S
C1910 C1913 1.403 . S
C1911 C1908 1.403 . S
C1911 C1912 1.524 . S
C1911 C1915 1.400 . S
C1912 H1897 0.960 . S
C1912 H1898 0.960 . S
C1912 H1899 0.960 . S
C1912 C1911 1.524 . S
C1913 C1910 1.403 . S
C1913 C1914 1.392 . S
C1913 C1917 1.495 . S
C1914 C1913 1.392 . S
C1914 C1915 1.385 . S
C1914 C1916 1.478 . S
C1915 H1909 0.930 . S
C1915 C1911 1.400 . S
C1915 C1914 1.385 . S
C1916 C1914 1.478 . S
C1916 C1918 1.381 . S
C1916 C1922 1.383 . S
C1917 C1913 1.495 . S
C1917 H1923 0.959 . S
C1917 H1924 0.961 . S
C1917 H1925 0.960 . S
C1918 C1916 1.381 . S
C1918 C1919 1.394 . S
C1918 H1926 0.930 . S
C1919 C1918 1.394 . S
C1919 C1920 1.383 . S
C1919 H1927 0.929 . S
C1920 C1919 1.383 . S
C1920 C1921 1.377 . S
C1921 H1905 0.930 . S
C1921 C1920 1.377 . S
C1921 C1922 1.379 . S
C1922 H1906 0.931 . S
C1922 C1916 1.383 . S
C1922 C1921 1.379 . S
H1923 C1917 0.959 . S
H1924 C1917 0.961 . S
H1925 C1917 0.960 . S
H1926 C1918 0.930 . S
H1927 C1919 0.929 . S
H1928 C1936 0.929 . S
H1929 C1938 0.930 . S
H1930 C1940 0.930 . S
H1931 C1943 0.929 . S
H1932 C1946 0.930 . S
H1933 C1948 0.960 . S
H1934 C1948 0.960 . S
H1935 C1948 0.960 . S
C1936 H1928 0.929 . S
C1936 C1937 1.377 . S
C1936 C1938 1.384 . S
C1937 C1936 1.377 . S
C1937 C1943 1.390 . S
C1938 H1929 0.930 . S
C1938 C1936 1.384 . S
C1938 C1939 1.372 . S
C1939 C1938 1.372 . S
C1939 C1940 1.400 . S
C1939 C1944 1.490 . S
C1940 H1930 0.930 . S
C1940 C1939 1.400 . S
C1940 C1943 1.386 . S
H1941 C1957 0.930 . S
H1942 C1958 0.931 . S
C1943 H1931 0.929 . S
C1943 C1937 1.390 . S
C1943 C1940 1.386 . S
C1944 C1939 1.490 . S
C1944 C1946 1.395 . S
C1944 C1947 1.403 . S
H1945 C1951 0.930 . S
C1946 H1932 0.930 . S
C1946 C1944 1.395 . S
C1946 C1949 1.403 . S
C1947 C1944 1.403 . S
C1947 C1948 1.524 . S
C1947 C1951 1.400 . S
C1948 H1933 0.960 . S
C1948 H1934 0.960 . S
C1948 H1935 0.960 . S
C1948 C1947 1.524 . S
C1949 C1946 1.403 . S
C1949 C1950 1.392 . S
C1949 C1953 1.495 . S
C1950 C1949 1.392 . S
C1950 C1951 1.385 . S
C1950 C1952 1.478 . S
C1951 H1945 0.930 . S
C1951 C1947 1.400 . S
C1951 C1950 1.385 . S
C1952 C1950 1.478 . S
C1952 C1954 1.381 . S
C1952 C1958 1.383 . S
C1953 C1949 1.495 . S
C1953 H1959 0.959 . S
C1953 H1960 0.961 . S
C1953 H1961 0.960 . S
C1954 C1952 1.381 . S
C1954 C1955 1.394 . S
C1954 H1962 0.930 . S
C1955 C1954 1.394 . S
C1955 C1956 1.383 . S
C1955 H1963 0.929 . S
C1956 C1955 1.383 . S
C1956 C1957 1.377 . S
C1957 H1941 0.930 . S
C1957 C1956 1.377 . S
C1957 C1958 1.379 . S
C1958 H1942 0.931 . S
C1958 C1952 1.383 . S
C1958 C1957 1.379 . S
H1959 C1953 0.959 . S
H1960 C1953 0.961 . S
H1961 C1953 0.960 . S
H1962 C1954 0.930 . S
H1963 C1955 0.929 . S
H1964 C1972 0.929 . S
H1965 C1974 0.930 . S
H1966 C1976 0.930 . S
H1967 C1979 0.929 . S
H1968 C1982 0.930 . S
H1969 C1984 0.960 . S
H1970 C1984 0.960 . S
H1971 C1984 0.960 . S
C1972 H1964 0.929 . S
C1972 C1973 1.377 . S
C1972 C1974 1.384 . S
C1973 C1972 1.377 . S
C1973 C1979 1.390 . S
C1974 H1965 0.930 . S
C1974 C1972 1.384 . S
C1974 C1975 1.372 . S
C1975 C1974 1.372 . S
C1975 C1976 1.400 . S
C1975 C1980 1.490 . S
C1976 H1966 0.930 . S
C1976 C1975 1.400 . S
C1976 C1979 1.386 . S
H1977 C1993 0.930 . S
H1978 C1994 0.931 . S
C1979 H1967 0.929 . S
C1979 C1973 1.390 . S
C1979 C1976 1.386 . S
C1980 C1975 1.490 . S
C1980 C1982 1.395 . S
C1980 C1983 1.403 . S
H1981 C1987 0.930 . S
C1982 H1968 0.930 . S
C1982 C1980 1.395 . S
C1982 C1985 1.403 . S
C1983 C1980 1.403 . S
C1983 C1984 1.524 . S
C1983 C1987 1.400 . S
C1984 H1969 0.960 . S
C1984 H1970 0.960 . S
C1984 H1971 0.960 . S
C1984 C1983 1.524 . S
C1985 C1982 1.403 . S
C1985 C1986 1.392 . S
C1985 C1989 1.495 . S
C1986 C1985 1.392 . S
C1986 C1987 1.385 . S
C1986 C1988 1.478 . S
C1987 H1981 0.930 . S
C1987 C1983 1.400 . S
C1987 C1986 1.385 . S
C1988 C1986 1.478 . S
C1988 C1990 1.381 . S
C1988 C1994 1.383 . S
C1989 C1985 1.495 . S
C1989 H1995 0.959 . S
C1989 H1996 0.961 . S
C1989 H1997 0.960 . S
C1990 C1988 1.381 . S
C1990 C1991 1.394 . S
C1990 H1998 0.930 . S
C1991 C1990 1.394 . S
C1991 C1992 1.383 . S
C1991 H1999 0.929 . S
C1992 C1991 1.383 . S
C1992 C1993 1.377 . S
C1993 H1977 0.930 . S
C1993 C1992 1.377 . S
C1993 C1994 1.379 . S
C1994 H1978 0.931 . S
C1994 C1988 1.383 . S
C1994 C1993 1.379 . S
H1995 C1989 0.959 . S
H1996 C1989 0.961 . S
H1997 C1989 0.960 . S
H1998 C1990 0.930 . S
H1999 C1991 0.929 . S
H2000 C2008 0.929 . S
H2001 C2010 0.930 . S
H2002 C2012 0.930 . S
H2003 C2015 0.929 . S
H2004 C2018 0.930 . S
H2005 C2020 0.960 . S
H2006 C2020 0.960 . S
H2007 C2020 0.960 . S
C2008 H2000 0.929 . S
C2008 C2009 1.377 . S
C2008 C2010 1.384 . S
C2009 C2008 1.377 . S
C2009 C2015 1.390 . S
C2010 H2001 0.930 . S
C2010 C2008 1.384 . S
C2010 C2011 1.372 . S
C2011 C2010 1.372 . S
C2011 C2012 1.400 . S
C2011 C2016 1.490 . S
C2012 H2002 0.930 . S
C2012 C2011 1.400 . S
C2012 C2015 1.386 . S
H2013 C2029 0.930 . S
H2014 C2030 0.931 . S
C2015 H2003 0.929 . S
C2015 C2009 1.390 . S
C2015 C2012 1.386 . S
C2016 C2011 1.490 . S
C2016 C2018 1.395 . S
C2016 C2019 1.403 . S
H2017 C2023 0.930 . S
C2018 H2004 0.930 . S
C2018 C2016 1.395 . S
C2018 C2021 1.403 . S
C2019 C2016 1.403 . S
C2019 C2020 1.524 . S
C2019 C2023 1.400 . S
C2020 H2005 0.960 . S
C2020 H2006 0.960 . S
C2020 H2007 0.960 . S
C2020 C2019 1.524 . S
C2021 C2018 1.403 . S
C2021 C2022 1.392 . S
C2021 C2025 1.495 . S
C2022 C2021 1.392 . S
C2022 C2023 1.385 . S
C2022 C2024 1.478 . S
C2023 H2017 0.930 . S
C2023 C2019 1.400 . S
C2023 C2022 1.385 . S
C2024 C2022 1.478 . S
C2024 C2026 1.381 . S
C2024 C2030 1.383 . S
C2025 C2021 1.495 . S
C2025 H2031 0.959 . S
C2025 H2032 0.961 . S
C2025 H2033 0.960 . S
C2026 C2024 1.381 . S
C2026 C2027 1.394 . S
C2026 H2034 0.930 . S
C2027 C2026 1.394 . S
C2027 C2028 1.383 . S
C2027 H2035 0.929 . S
C2028 C2027 1.383 . S
C2028 C2029 1.377 . S
C2029 H2013 0.930 . S
C2029 C2028 1.377 . S
C2029 C2030 1.379 . S
C2030 H2014 0.931 . S
C2030 C2024 1.383 . S
C2030 C2029 1.379 . S
H2031 C2025 0.959 . S
H2032 C2025 0.961 . S
H2033 C2025 0.960 . S
H2034 C2026 0.930 . S
H2035 C2027 0.929 . S
H2036 C2044 0.929 . S
H2037 C2046 0.930 . S
H2038 C2048 0.930 . S
H2039 C2051 0.929 . S
H2040 C2054 0.930 . S
H2041 C2056 0.960 . S
H2042 C2056 0.960 . S
H2043 C2056 0.960 . S
C2044 H2036 0.929 . S
C2044 C2045 1.377 . S
C2044 C2046 1.384 . S
C2045 C2044 1.377 . S
C2045 C2051 1.390 . S
C2046 H2037 0.930 . S
C2046 C2044 1.384 . S
C2046 C2047 1.372 . S
C2047 C2046 1.372 . S
C2047 C2048 1.400 . S
C2047 C2052 1.490 . S
C2048 H2038 0.930 . S
C2048 C2047 1.400 . S
C2048 C2051 1.386 . S
H2049 C2065 0.930 . S
H2050 C2066 0.931 . S
C2051 H2039 0.929 . S
C2051 C2045 1.390 . S
C2051 C2048 1.386 . S
C2052 C2047 1.490 . S
C2052 C2054 1.395 . S
C2052 C2055 1.403 . S
H2053 C2059 0.930 . S
C2054 H2040 0.930 . S
C2054 C2052 1.395 . S
C2054 C2057 1.403 . S
C2055 C2052 1.403 . S
C2055 C2056 1.524 . S
C2055 C2059 1.400 . S
C2056 H2041 0.960 . S
C2056 H2042 0.960 . S
C2056 H2043 0.960 . S
C2056 C2055 1.524 . S
C2057 C2054 1.403 . S
C2057 C2058 1.392 . S
C2057 C2061 1.495 . S
C2058 C2057 1.392 . S
C2058 C2059 1.385 . S
C2058 C2060 1.478 . S
C2059 H2053 0.930 . S
C2059 C2055 1.400 . S
C2059 C2058 1.385 . S
C2060 C2058 1.478 . S
C2060 C2062 1.381 . S
C2060 C2066 1.383 . S
C2061 C2057 1.495 . S
C2061 H2067 0.959 . S
C2061 H2068 0.961 . S
C2061 H2069 0.960 . S
C2062 C2060 1.381 . S
C2062 C2063 1.394 . S
C2062 H2070 0.930 . S
C2063 C2062 1.394 . S
C2063 C2064 1.383 . S
C2063 H2071 0.929 . S
C2064 C2063 1.383 . S
C2064 C2065 1.377 . S
C2065 H2049 0.930 . S
C2065 C2064 1.377 . S
C2065 C2066 1.379 . S
C2066 H2050 0.931 . S
C2066 C2060 1.383 . S
C2066 C2065 1.379 . S
H2067 C2061 0.959 . S
H2068 C2061 0.961 . S
H2069 C2061 0.960 . S
H2070 C2062 0.930 . S
H2071 C2063 0.929 . S
H2072 C2080 0.929 . S
H2073 C2082 0.930 . S
H2074 C2084 0.930 . S
H2075 C2087 0.929 . S
H2076 C2090 0.930 . S
H2077 C2092 0.960 . S
H2078 C2092 0.960 . S
H2079 C2092 0.960 . S
C2080 H2072 0.929 . S
C2080 C2081 1.377 . S
C2080 C2082 1.384 . S
C2081 C2080 1.377 . S
C2081 C2087 1.390 . S
C2082 H2073 0.930 . S
C2082 C2080 1.384 . S
C2082 C2083 1.372 . S
C2083 C2082 1.372 . S
C2083 C2084 1.400 . S
C2083 C2088 1.490 . S
C2084 H2074 0.930 . S
C2084 C2083 1.400 . S
C2084 C2087 1.386 . S
H2085 C2101 0.930 . S
H2086 C2102 0.931 . S
C2087 H2075 0.929 . S
C2087 C2081 1.390 . S
C2087 C2084 1.386 . S
C2088 C2083 1.490 . S
C2088 C2090 1.395 . S
C2088 C2091 1.403 . S
H2089 C2095 0.930 . S
C2090 H2076 0.930 . S
C2090 C2088 1.395 . S
C2090 C2093 1.403 . S
C2091 C2088 1.403 . S
C2091 C2092 1.524 . S
C2091 C2095 1.400 . S
C2092 H2077 0.960 . S
C2092 H2078 0.960 . S
C2092 H2079 0.960 . S
C2092 C2091 1.524 . S
C2093 C2090 1.403 . S
C2093 C2094 1.392 . S
C2093 C2097 1.495 . S
C2094 C2093 1.392 . S
C2094 C2095 1.385 . S
C2094 C2096 1.478 . S
C2095 H2089 0.930 . S
C2095 C2091 1.400 . S
C2095 C2094 1.385 . S
C2096 C2094 1.478 . S
C2096 C2098 1.381 . S
C2096 C2102 1.383 . S
C2097 C2093 1.495 . S
C2097 H2103 0.959 . S
C2097 H2104 0.961 . S
C2097 H2105 0.960 . S
C2098 C2096 1.381 . S
C2098 C2099 1.394 . S
C2098 H2106 0.930 . S
C2099 C2098 1.394 . S
C2099 C2100 1.383 . S
C2099 H2107 0.929 . S
C2100 C2099 1.383 . S
C2100 C2101 1.377 . S
C2101 H2085 0.930 . S
C2101 C2100 1.377 . S
C2101 C2102 1.379 . S
C2102 H2086 0.931 . S
C2102 C2096 1.383 . S
C2102 C2101 1.379 . S
H2103 C2097 0.959 . S
H2104 C2097 0.961 . S
H2105 C2097 0.960 . S
H2106 C2098 0.930 . S
H2107 C2099 0.929 . S
H2108 C2116 0.929 . S
H2109 C2118 0.930 . S
H2110 C2120 0.930 . S
H2111 C2123 0.929 . S
H2112 C2126 0.930 . S
H2113 C2128 0.960 . S
H2114 C2128 0.960 . S
H2115 C2128 0.960 . S
C2116 H2108 0.929 . S
C2116 C2117 1.377 . S
C2116 C2118 1.384 . S
C2117 C2116 1.377 . S
C2117 C2123 1.390 . S
C2118 H2109 0.930 . S
C2118 C2116 1.384 . S
C2118 C2119 1.372 . S
C2119 C2118 1.372 . S
C2119 C2120 1.400 . S
C2119 C2124 1.490 . S
C2120 H2110 0.930 . S
C2120 C2119 1.400 . S
C2120 C2123 1.386 . S
H2121 C2137 0.930 . S
H2122 C2138 0.931 . S
C2123 H2111 0.929 . S
C2123 C2117 1.390 . S
C2123 C2120 1.386 . S
C2124 C2119 1.490 . S
C2124 C2126 1.395 . S
C2124 C2127 1.403 . S
H2125 C2131 0.930 . S
C2126 H2112 0.930 . S
C2126 C2124 1.395 . S
C2126 C2129 1.403 . S
C2127 C2124 1.403 . S
C2127 C2128 1.524 . S
C2127 C2131 1.400 . S
C2128 H2113 0.960 . S
C2128 H2114 0.960 . S
C2128 H2115 0.960 . S
C2128 C2127 1.524 . S
C2129 C2126 1.403 . S
C2129 C2130 1.392 . S
C2129 C2133 1.495 . S
C2130 C2129 1.392 . S
C2130 C2131 1.385 . S
C2130 C2132 1.478 . S
C2131 H2125 0.930 . S
C2131 C2127 1.400 . S
C2131 C2130 1.385 . S
C2132 C2130 1.478 . S
C2132 C2134 1.381 . S
C2132 C2138 1.383 . S
C2133 C2129 1.495 . S
C2133 H2139 0.959 . S
C2133 H2140 0.961 . S
C2133 H2141 0.960 . S
C2134 C2132 1.381 . S
C2134 C2135 1.394 . S
C2134 H2142 0.930 . S
C2135 C2134 1.394 . S
C2135 C2136 1.383 . S
C2135 H2143 0.929 . S
C2136 C2135 1.383 . S
C2136 C2137 1.377 . S
C2137 H2121 0.930 . S
C2137 C2136 1.377 . S
C2137 C2138 1.379 . S
C2138 H2122 0.931 . S
C2138 C2132 1.383 . S
C2138 C2137 1.379 . S
H2139 C2133 0.959 . S
H2140 C2133 0.961 . S
H2141 C2133 0.960 . S
H2142 C2134 0.930 . S
H2143 C2135 0.929 . S
H2144 C2152 0.929 . S
H2145 C2154 0.930 . S
H2146 C2156 0.930 . S
H2147 C2159 0.929 . S
H2148 C2162 0.930 . S
H2149 C2164 0.960 . S
H2150 C2164 0.960 . S
H2151 C2164 0.960 . S
C2152 H2144 0.929 . S
C2152 C2153 1.377 . S
C2152 C2154 1.384 1_565 S
C2153 C2152 1.377 . S
C2153 C2159 1.390 . S
C2154 H2145 0.930 . S
C2154 C2152 1.384 1_545 S
C2154 C2155 1.372 . S
C2155 C2154 1.372 . S
C2155 C2156 1.400 . S
C2155 C2160 1.490 . S
C2156 H2146 0.930 . S
C2156 C2155 1.400 . S
C2156 C2159 1.386 1_545 S
H2157 C2173 0.930 . S
H2158 C2174 0.931 . S
C2159 H2147 0.929 . S
C2159 C2153 1.390 . S
C2159 C2156 1.386 1_565 S
C2160 C2155 1.490 . S
C2160 C2162 1.395 . S
C2160 C2163 1.403 . S
H2161 C2167 0.930 . S
C2162 H2148 0.930 . S
C2162 C2160 1.395 . S
C2162 C2165 1.403 . S
C2163 C2160 1.403 . S
C2163 C2164 1.524 . S
C2163 C2167 1.400 . S
C2164 H2149 0.960 . S
C2164 H2150 0.960 . S
C2164 H2151 0.960 . S
C2164 C2163 1.524 . S
C2165 C2162 1.403 . S
C2165 C2166 1.392 . S
C2165 C2169 1.495 . S
C2166 C2165 1.392 . S
C2166 C2167 1.385 . S
C2166 C2168 1.478 . S
C2167 H2161 0.930 . S
C2167 C2163 1.400 . S
C2167 C2166 1.385 . S
C2168 C2166 1.478 . S
C2168 C2170 1.381 . S
C2168 C2174 1.383 . S
C2169 C2165 1.495 . S
C2169 H2175 0.959 . S
C2169 H2176 0.961 . S
C2169 H2177 0.960 . S
C2170 C2168 1.381 . S
C2170 C2171 1.394 . S
C2170 H2178 0.930 . S
C2171 C2170 1.394 . S
C2171 C2172 1.383 . S
C2171 H2179 0.929 . S
C2172 C2171 1.383 . S
C2172 C2173 1.377 . S
C2173 H2157 0.930 . S
C2173 C2172 1.377 . S
C2173 C2174 1.379 . S
C2174 H2158 0.931 . S
C2174 C2168 1.383 . S
C2174 C2173 1.379 . S
H2175 C2169 0.959 . S
H2176 C2169 0.961 . S
H2177 C2169 0.960 . S
H2178 C2170 0.930 . S
H2179 C2171 0.929 . S
H2180 C2188 0.929 . S
H2181 C2190 0.930 . S
H2182 C2192 0.930 . S
H2183 C2195 0.929 . S
H2184 C2198 0.930 . S
H2185 C2200 0.960 . S
H2186 C2200 0.960 . S
H2187 C2200 0.960 . S
C2188 H2180 0.929 . S
C2188 C2189 1.377 . S
C2188 C2190 1.384 1_565 S
C2189 C2188 1.377 . S
C2189 C2195 1.390 . S
C2190 H2181 0.930 . S
C2190 C2188 1.384 1_545 S
C2190 C2191 1.372 . S
C2191 C2190 1.372 . S
C2191 C2192 1.400 . S
C2191 C2196 1.490 . S
C2192 H2182 0.930 . S
C2192 C2191 1.400 . S
C2192 C2195 1.386 1_545 S
H2193 C2209 0.930 . S
H2194 C2210 0.931 . S
C2195 H2183 0.929 . S
C2195 C2189 1.390 . S
C2195 C2192 1.386 1_565 S
C2196 C2191 1.490 . S
C2196 C2198 1.395 . S
C2196 C2199 1.403 . S
H2197 C2203 0.930 . S
C2198 H2184 0.930 . S
C2198 C2196 1.395 . S
C2198 C2201 1.403 . S
C2199 C2196 1.403 . S
C2199 C2200 1.524 . S
C2199 C2203 1.400 . S
C2200 H2185 0.960 . S
C2200 H2186 0.960 . S
C2200 H2187 0.960 . S
C2200 C2199 1.524 . S
C2201 C2198 1.403 . S
C2201 C2202 1.392 . S
C2201 C2205 1.495 . S
C2202 C2201 1.392 . S
C2202 C2203 1.385 . S
C2202 C2204 1.478 . S
C2203 H2197 0.930 . S
C2203 C2199 1.400 . S
C2203 C2202 1.385 . S
C2204 C2202 1.478 . S
C2204 C2206 1.381 . S
C2204 C2210 1.383 . S
C2205 C2201 1.495 . S
C2205 H2211 0.959 . S
C2205 H2212 0.961 . S
C2205 H2213 0.960 . S
C2206 C2204 1.381 . S
C2206 C2207 1.394 . S
C2206 H2214 0.930 . S
C2207 C2206 1.394 . S
C2207 C2208 1.383 . S
C2207 H2215 0.929 . S
C2208 C2207 1.383 . S
C2208 C2209 1.377 . S
C2209 H2193 0.930 . S
C2209 C2208 1.377 . S
C2209 C2210 1.379 . S
C2210 H2194 0.931 . S
C2210 C2204 1.383 . S
C2210 C2209 1.379 . S
H2211 C2205 0.959 . S
H2212 C2205 0.961 . S
H2213 C2205 0.960 . S
H2214 C2206 0.930 . S
H2215 C2207 0.929 . S
H2216 C2224 0.929 . S
H2217 C2226 0.930 . S
H2218 C2228 0.930 . S
H2219 C2231 0.929 . S
H2220 C2234 0.930 . S
H2221 C2236 0.960 . S
H2222 C2236 0.960 . S
H2223 C2236 0.960 . S
C2224 H2216 0.929 . S
C2224 C2225 1.377 . S
C2224 C2226 1.384 . S
C2225 C2224 1.377 . S
C2225 C2231 1.390 . S
C2226 H2217 0.930 . S
C2226 C2224 1.384 . S
C2226 C2227 1.372 . S
C2227 C2226 1.372 . S
C2227 C2228 1.400 . S
C2227 C2232 1.490 . S
C2228 H2218 0.930 . S
C2228 C2227 1.400 . S
C2228 C2231 1.386 . S
H2229 C2245 0.930 . S
H2230 C2246 0.931 . S
C2231 H2219 0.929 . S
C2231 C2225 1.390 . S
C2231 C2228 1.386 . S
C2232 C2227 1.490 . S
C2232 C2234 1.395 . S
C2232 C2235 1.403 . S
H2233 C2239 0.930 . S
C2234 H2220 0.930 . S
C2234 C2232 1.395 . S
C2234 C2237 1.403 . S
C2235 C2232 1.403 . S
C2235 C2236 1.524 . S
C2235 C2239 1.400 . S
C2236 H2221 0.960 . S
C2236 H2222 0.960 . S
C2236 H2223 0.960 . S
C2236 C2235 1.524 . S
C2237 C2234 1.403 . S
C2237 C2238 1.392 . S
C2237 C2241 1.495 . S
C2238 C2237 1.392 . S
C2238 C2239 1.385 . S
C2238 C2240 1.478 . S
C2239 H2233 0.930 . S
C2239 C2235 1.400 . S
C2239 C2238 1.385 . S
C2240 C2238 1.478 . S
C2240 C2242 1.381 . S
C2240 C2246 1.383 . S
C2241 C2237 1.495 . S
C2241 H2247 0.959 . S
C2241 H2248 0.961 . S
C2241 H2249 0.960 . S
C2242 C2240 1.381 . S
C2242 C2243 1.394 1_565 S
C2242 H2250 0.930 . S
C2243 C2242 1.394 1_545 S
C2243 C2244 1.383 . S
C2243 H2251 0.929 . S
C2244 C2243 1.383 . S
C2244 C2245 1.377 . S
C2245 H2229 0.930 . S
C2245 C2244 1.377 . S
C2245 C2246 1.379 1_545 S
C2246 H2230 0.931 . S
C2246 C2240 1.383 . S
C2246 C2245 1.379 1_565 S
H2247 C2241 0.959 . S
H2248 C2241 0.961 . S
H2249 C2241 0.960 . S
H2250 C2242 0.930 . S
H2251 C2243 0.929 . S
H2252 C2260 0.929 . S
H2253 C2262 0.930 . S
H2254 C2264 0.930 . S
H2255 C2267 0.929 . S
H2256 C2270 0.930 . S
H2257 C2272 0.960 . S
H2258 C2272 0.960 . S
H2259 C2272 0.960 . S
C2260 H2252 0.929 . S
C2260 C2261 1.377 . S
C2260 C2262 1.384 1_545 S
C2261 C2260 1.377 . S
C2261 C2267 1.390 . S
C2262 H2253 0.930 . S
C2262 C2260 1.384 1_565 S
C2262 C2263 1.372 . S
C2263 C2262 1.372 . S
C2263 C2264 1.400 . S
C2263 C2268 1.490 . S
C2264 H2254 0.930 . S
C2264 C2263 1.400 . S
C2264 C2267 1.386 1_565 S
H2265 C2281 0.930 . S
H2266 C2282 0.931 . S
C2267 H2255 0.929 . S
C2267 C2261 1.390 . S
C2267 C2264 1.386 1_545 S
C2268 C2263 1.490 . S
C2268 C2270 1.395 . S
C2268 C2271 1.403 . S
H2269 C2275 0.930 . S
C2270 H2256 0.930 . S
C2270 C2268 1.395 . S
C2270 C2273 1.403 . S
C2271 C2268 1.403 . S
C2271 C2272 1.524 . S
C2271 C2275 1.400 . S
C2272 H2257 0.960 . S
C2272 H2258 0.960 . S
C2272 H2259 0.960 . S
C2272 C2271 1.524 . S
C2273 C2270 1.403 . S
C2273 C2274 1.392 . S
C2273 C2277 1.495 . S
C2274 C2273 1.392 . S
C2274 C2275 1.385 . S
C2274 C2276 1.478 . S
C2275 H2269 0.930 . S
C2275 C2271 1.400 . S
C2275 C2274 1.385 . S
C2276 C2274 1.478 . S
C2276 C2278 1.381 . S
C2276 C2282 1.383 . S
C2277 C2273 1.495 . S
C2277 H2283 0.959 . S
C2277 H2284 0.961 . S
C2277 H2285 0.960 . S
C2278 C2276 1.381 . S
C2278 C2279 1.394 . S
C2278 H2286 0.930 . S
C2279 C2278 1.394 . S
C2279 C2280 1.383 . S
C2279 H2287 0.929 . S
C2280 C2279 1.383 . S
C2280 C2281 1.377 . S
C2281 H2265 0.930 . S
C2281 C2280 1.377 . S
C2281 C2282 1.379 . S
C2282 H2266 0.931 . S
C2282 C2276 1.383 . S
C2282 C2281 1.379 . S
H2283 C2277 0.959 . S
H2284 C2277 0.961 . S
H2285 C2277 0.960 . S
H2286 C2278 0.930 . S
H2287 C2279 0.929 . S
H2288 C2296 0.929 . S
H2289 C2298 0.930 . S
H2290 C2300 0.930 . S
H2291 C2303 0.929 . S
H2292 C2306 0.930 . S
H2293 C2308 0.960 . S
H2294 C2308 0.960 . S
H2295 C2308 0.960 . S
C2296 H2288 0.929 . S
C2296 C2297 1.377 . S
C2296 C2298 1.384 . S
C2297 C2296 1.377 . S
C2297 C2303 1.390 . S
C2298 H2289 0.930 . S
C2298 C2296 1.384 . S
C2298 C2299 1.372 . S
C2299 C2298 1.372 . S
C2299 C2300 1.400 . S
C2299 C2304 1.490 . S
C2300 H2290 0.930 . S
C2300 C2299 1.400 . S
C2300 C2303 1.386 . S
H2301 C2317 0.930 . S
H2302 C2318 0.931 . S
C2303 H2291 0.929 . S
C2303 C2297 1.390 . S
C2303 C2300 1.386 . S
C2304 C2299 1.490 . S
C2304 C2306 1.395 . S
C2304 C2307 1.403 . S
H2305 C2311 0.930 . S
C2306 H2292 0.930 . S
C2306 C2304 1.395 . S
C2306 C2309 1.403 . S
C2307 C2304 1.403 . S
C2307 C2308 1.524 . S
C2307 C2311 1.400 . S
C2308 H2293 0.960 . S
C2308 H2294 0.960 . S
C2308 H2295 0.960 . S
C2308 C2307 1.524 . S
C2309 C2306 1.403 . S
C2309 C2310 1.392 . S
C2309 C2313 1.495 . S
C2310 C2309 1.392 . S
C2310 C2311 1.385 . S
C2310 C2312 1.478 . S
C2311 H2305 0.930 . S
C2311 C2307 1.400 . S
C2311 C2310 1.385 . S
C2312 C2310 1.478 . S
C2312 C2314 1.381 . S
C2312 C2318 1.383 . S
C2313 C2309 1.495 . S
C2313 H2319 0.959 . S
C2313 H2320 0.961 . S
C2313 H2321 0.960 . S
C2314 C2312 1.381 . S
C2314 C2315 1.394 . S
C2314 H2322 0.930 . S
C2315 C2314 1.394 . S
C2315 C2316 1.383 . S
C2315 H2323 0.929 . S
C2316 C2315 1.383 . S
C2316 C2317 1.377 . S
C2317 H2301 0.930 . S
C2317 C2316 1.377 . S
C2317 C2318 1.379 . S
C2318 H2302 0.931 . S
C2318 C2312 1.383 . S
C2318 C2317 1.379 . S
H2319 C2313 0.959 . S
H2320 C2313 0.961 . S
H2321 C2313 0.960 . S
H2322 C2314 0.930 . S
H2323 C2315 0.929 . S
H2324 C2332 0.929 . S
H2325 C2334 0.930 . S
H2326 C2336 0.930 . S
H2327 C2339 0.929 . S
H2328 C2342 0.930 . S
H2329 C2344 0.960 . S
H2330 C2344 0.960 . S
H2331 C2344 0.960 . S
C2332 H2324 0.929 . S
C2332 C2333 1.377 . S
C2332 C2334 1.384 . S
C2333 C2332 1.377 . S
C2333 C2339 1.390 . S
C2334 H2325 0.930 . S
C2334 C2332 1.384 . S
C2334 C2335 1.372 . S
C2335 C2334 1.372 . S
C2335 C2336 1.400 . S
C2335 C2340 1.490 . S
C2336 H2326 0.930 . S
C2336 C2335 1.400 . S
C2336 C2339 1.386 . S
H2337 C2353 0.930 . S
H2338 C2354 0.931 . S
C2339 H2327 0.929 . S
C2339 C2333 1.390 . S
C2339 C2336 1.386 . S
C2340 C2335 1.490 . S
C2340 C2342 1.395 . S
C2340 C2343 1.403 . S
H2341 C2347 0.930 . S
C2342 H2328 0.930 . S
C2342 C2340 1.395 . S
C2342 C2345 1.403 . S
C2343 C2340 1.403 . S
C2343 C2344 1.524 . S
C2343 C2347 1.400 . S
C2344 H2329 0.960 . S
C2344 H2330 0.960 . S
C2344 H2331 0.960 . S
C2344 C2343 1.524 . S
C2345 C2342 1.403 . S
C2345 C2346 1.392 . S
C2345 C2349 1.495 . S
C2346 C2345 1.392 . S
C2346 C2347 1.385 . S
C2346 C2348 1.478 . S
C2347 H2341 0.930 . S
C2347 C2343 1.400 . S
C2347 C2346 1.385 . S
C2348 C2346 1.478 . S
C2348 C2350 1.381 . S
C2348 C2354 1.383 . S
C2349 C2345 1.495 . S
C2349 H2355 0.959 . S
C2349 H2356 0.961 . S
C2349 H2357 0.960 . S
C2350 C2348 1.381 . S
C2350 C2351 1.394 . S
C2350 H2358 0.930 . S
C2351 C2350 1.394 . S
C2351 C2352 1.383 . S
C2351 H2359 0.929 . S
C2352 C2351 1.383 . S
C2352 C2353 1.377 . S
C2353 H2337 0.930 . S
C2353 C2352 1.377 . S
C2353 C2354 1.379 . S
C2354 H2338 0.931 . S
C2354 C2348 1.383 . S
C2354 C2353 1.379 . S
H2355 C2349 0.959 . S
H2356 C2349 0.961 . S
H2357 C2349 0.960 . S
H2358 C2350 0.930 . S
H2359 C2351 0.929 . S
H2360 C2368 0.929 . S
H2361 C2370 0.930 . S
H2362 C2372 0.930 . S
H2363 C2375 0.929 . S
H2364 C2378 0.930 . S
H2365 C2380 0.960 . S
H2366 C2380 0.960 . S
H2367 C2380 0.960 . S
C2368 H2360 0.929 . S
C2368 C2369 1.377 . S
C2368 C2370 1.384 . S
C2369 C2368 1.377 . S
C2369 C2375 1.390 . S
C2370 H2361 0.930 . S
C2370 C2368 1.384 . S
C2370 C2371 1.372 . S
C2371 C2370 1.372 . S
C2371 C2372 1.400 . S
C2371 C2376 1.490 . S
C2372 H2362 0.930 . S
C2372 C2371 1.400 . S
C2372 C2375 1.386 . S
H2373 C2389 0.930 . S
H2374 C2390 0.931 . S
C2375 H2363 0.929 . S
C2375 C2369 1.390 . S
C2375 C2372 1.386 . S
C2376 C2371 1.490 . S
C2376 C2378 1.395 . S
C2376 C2379 1.403 . S
H2377 C2383 0.930 . S
C2378 H2364 0.930 . S
C2378 C2376 1.395 . S
C2378 C2381 1.403 . S
C2379 C2376 1.403 . S
C2379 C2380 1.524 . S
C2379 C2383 1.400 . S
C2380 H2365 0.960 . S
C2380 H2366 0.960 . S
C2380 H2367 0.960 . S
C2380 C2379 1.524 . S
C2381 C2378 1.403 . S
C2381 C2382 1.392 . S
C2381 C2385 1.495 . S
C2382 C2381 1.392 . S
C2382 C2383 1.385 . S
C2382 C2384 1.478 . S
C2383 H2377 0.930 . S
C2383 C2379 1.400 . S
C2383 C2382 1.385 . S
C2384 C2382 1.478 . S
C2384 C2386 1.381 . S
C2384 C2390 1.383 . S
C2385 C2381 1.495 . S
C2385 H2391 0.959 . S
C2385 H2392 0.961 . S
C2385 H2393 0.960 . S
C2386 C2384 1.381 . S
C2386 C2387 1.394 . S
C2386 H2394 0.930 . S
C2387 C2386 1.394 . S
C2387 C2388 1.383 . S
C2387 H2395 0.929 . S
C2388 C2387 1.383 . S
C2388 C2389 1.377 . S
C2389 H2373 0.930 . S
C2389 C2388 1.377 . S
C2389 C2390 1.379 . S
C2390 H2374 0.931 . S
C2390 C2384 1.383 . S
C2390 C2389 1.379 . S
H2391 C2385 0.959 . S
H2392 C2385 0.961 . S
H2393 C2385 0.960 . S
H2394 C2386 0.930 . S
H2395 C2387 0.929 . S
H2396 C2404 0.929 . S
H2397 C2406 0.930 . S
H2398 C2408 0.930 . S
H2399 C2411 0.929 . S
H2400 C2414 0.930 . S
H2401 C2416 0.960 . S
H2402 C2416 0.960 . S
H2403 C2416 0.960 . S
C2404 H2396 0.929 . S
C2404 C2405 1.377 . S
C2404 C2406 1.384 . S
C2405 C2404 1.377 . S
C2405 C2411 1.390 . S
C2406 H2397 0.930 . S
C2406 C2404 1.384 . S
C2406 C2407 1.372 . S
C2407 C2406 1.372 . S
C2407 C2408 1.400 . S
C2407 C2412 1.490 . S
C2408 H2398 0.930 . S
C2408 C2407 1.400 . S
C2408 C2411 1.386 . S
H2409 C2425 0.930 . S
H2410 C2426 0.931 . S
C2411 H2399 0.929 . S
C2411 C2405 1.390 . S
C2411 C2408 1.386 . S
C2412 C2407 1.490 . S
C2412 C2414 1.395 . S
C2412 C2415 1.403 . S
H2413 C2419 0.930 . S
C2414 H2400 0.930 . S
C2414 C2412 1.395 . S
C2414 C2417 1.403 . S
C2415 C2412 1.403 . S
C2415 C2416 1.524 . S
C2415 C2419 1.400 . S
C2416 H2401 0.960 . S
C2416 H2402 0.960 . S
C2416 H2403 0.960 . S
C2416 C2415 1.524 . S
C2417 C2414 1.403 . S
C2417 C2418 1.392 . S
C2417 C2421 1.495 . S
C2418 C2417 1.392 . S
C2418 C2419 1.385 . S
C2418 C2420 1.478 . S
C2419 H2413 0.930 . S
C2419 C2415 1.400 . S
C2419 C2418 1.385 . S
C2420 C2418 1.478 . S
C2420 C2422 1.381 . S
C2420 C2426 1.383 . S
C2421 C2417 1.495 . S
C2421 H2427 0.959 . S
C2421 H2428 0.961 . S
C2421 H2429 0.960 . S
C2422 C2420 1.381 . S
C2422 C2423 1.394 . S
C2422 H2430 0.930 . S
C2423 C2422 1.394 . S
C2423 C2424 1.383 . S
C2423 H2431 0.929 . S
C2424 C2423 1.383 . S
C2424 C2425 1.377 . S
C2425 H2409 0.930 . S
C2425 C2424 1.377 . S
C2425 C2426 1.379 . S
C2426 H2410 0.931 . S
C2426 C2420 1.383 . S
C2426 C2425 1.379 . S
H2427 C2421 0.959 . S
H2428 C2421 0.961 . S
H2429 C2421 0.960 . S
H2430 C2422 0.930 . S
H2431 C2423 0.929 . S
H2432 C2440 0.929 . S
H2433 C2442 0.930 . S
H2434 C2444 0.930 . S
H2435 C2447 0.929 . S
H2436 C2450 0.930 . S
H2437 C2452 0.960 . S
H2438 C2452 0.960 . S
H2439 C2452 0.960 . S
C2440 H2432 0.929 . S
C2440 C2441 1.377 . S
C2440 C2442 1.384 1_565 S
C2441 C2440 1.377 . S
C2441 C2447 1.390 . S
C2442 H2433 0.930 . S
C2442 C2440 1.384 1_545 S
C2442 C2443 1.372 . S
C2443 C2442 1.372 . S
C2443 C2444 1.400 . S
C2443 C2448 1.490 . S
C2444 H2434 0.930 . S
C2444 C2443 1.400 . S
C2444 C2447 1.386 1_545 S
H2445 C2461 0.930 . S
H2446 C2462 0.931 . S
C2447 H2435 0.929 . S
C2447 C2441 1.390 . S
C2447 C2444 1.386 1_565 S
C2448 C2443 1.490 . S
C2448 C2450 1.395 . S
C2448 C2451 1.403 . S
H2449 C2455 0.930 . S
C2450 H2436 0.930 . S
C2450 C2448 1.395 . S
C2450 C2453 1.403 . S
C2451 C2448 1.403 . S
C2451 C2452 1.524 . S
C2451 C2455 1.400 . S
C2452 H2437 0.960 . S
C2452 H2438 0.960 . S
C2452 H2439 0.960 . S
C2452 C2451 1.524 . S
C2453 C2450 1.403 . S
C2453 C2454 1.392 . S
C2453 C2457 1.495 . S
C2454 C2453 1.392 . S
C2454 C2455 1.385 . S
C2454 C2456 1.478 . S
C2455 H2449 0.930 . S
C2455 C2451 1.400 . S
C2455 C2454 1.385 . S
C2456 C2454 1.478 . S
C2456 C2458 1.381 . S
C2456 C2462 1.383 . S
C2457 C2453 1.495 . S
C2457 H2463 0.959 . S
C2457 H2464 0.961 . S
C2457 H2465 0.960 . S
C2458 C2456 1.381 . S
C2458 C2459 1.394 . S
C2458 H2466 0.930 . S
C2459 C2458 1.394 . S
C2459 C2460 1.383 . S
C2459 H2467 0.929 . S
C2460 C2459 1.383 . S
C2460 C2461 1.377 . S
C2461 H2445 0.930 . S
C2461 C2460 1.377 . S
C2461 C2462 1.379 . S
C2462 H2446 0.931 . S
C2462 C2456 1.383 . S
C2462 C2461 1.379 . S
H2463 C2457 0.959 . S
H2464 C2457 0.961 . S
H2465 C2457 0.960 . S
H2466 C2458 0.930 . S
H2467 C2459 0.929 . S
H2468 C2476 0.929 . S
H2469 C2478 0.930 . S
H2470 C2480 0.930 . S
H2471 C2483 0.929 . S
H2472 C2486 0.930 . S
H2473 C2488 0.960 . S
H2474 C2488 0.960 . S
H2475 C2488 0.960 . S
C2476 H2468 0.929 . S
C2476 C2477 1.377 . S
C2476 C2478 1.384 . S
C2477 C2476 1.377 . S
C2477 C2483 1.390 . S
C2478 H2469 0.930 . S
C2478 C2476 1.384 . S
C2478 C2479 1.372 . S
C2479 C2478 1.372 . S
C2479 C2480 1.400 . S
C2479 C2484 1.490 . S
C2480 H2470 0.930 . S
C2480 C2479 1.400 . S
C2480 C2483 1.386 . S
H2481 C2497 0.930 . S
H2482 C2498 0.931 . S
C2483 H2471 0.929 . S
C2483 C2477 1.390 . S
C2483 C2480 1.386 . S
C2484 C2479 1.490 . S
C2484 C2486 1.395 . S
C2484 C2487 1.403 . S
H2485 C2491 0.930 . S
C2486 H2472 0.930 . S
C2486 C2484 1.395 . S
C2486 C2489 1.403 . S
C2487 C2484 1.403 . S
C2487 C2488 1.524 . S
C2487 C2491 1.400 . S
C2488 H2473 0.960 . S
C2488 H2474 0.960 . S
C2488 H2475 0.960 . S
C2488 C2487 1.524 . S
C2489 C2486 1.403 . S
C2489 C2490 1.392 . S
C2489 C2493 1.495 . S
C2490 C2489 1.392 . S
C2490 C2491 1.385 . S
C2490 C2492 1.478 . S
C2491 H2485 0.930 . S
C2491 C2487 1.400 . S
C2491 C2490 1.385 . S
C2492 C2490 1.478 . S
C2492 C2494 1.381 . S
C2492 C2498 1.383 . S
C2493 C2489 1.495 . S
C2493 H2499 0.959 . S
C2493 H2500 0.961 . S
C2493 H2501 0.960 . S
C2494 C2492 1.381 . S
C2494 C2495 1.394 1_545 S
C2494 H2502 0.930 . S
C2495 C2494 1.394 1_565 S
C2495 C2496 1.383 . S
C2495 H2503 0.929 . S
C2496 C2495 1.383 . S
C2496 C2497 1.377 . S
C2497 H2481 0.930 . S
C2497 C2496 1.377 . S
C2497 C2498 1.379 1_565 S
C2498 H2482 0.931 . S
C2498 C2492 1.383 . S
C2498 C2497 1.379 1_545 S
H2499 C2493 0.959 . S
H2500 C2493 0.961 . S
H2501 C2493 0.960 . S
H2502 C2494 0.930 . S
H2503 C2495 0.929 . S
H2504 C2512 0.929 . S
H2505 C2514 0.930 . S
H2506 C2516 0.930 . S
H2507 C2519 0.929 . S
H2508 C2522 0.930 . S
H2509 C2524 0.960 . S
H2510 C2524 0.960 . S
H2511 C2524 0.960 . S
C2512 H2504 0.929 . S
C2512 C2513 1.377 . S
C2512 C2514 1.384 . S
C2513 C2512 1.377 . S
C2513 C2519 1.390 . S
C2514 H2505 0.930 . S
C2514 C2512 1.384 . S
C2514 C2515 1.372 . S
C2515 C2514 1.372 . S
C2515 C2516 1.400 . S
C2515 C2520 1.490 . S
C2516 H2506 0.930 . S
C2516 C2515 1.400 . S
C2516 C2519 1.386 . S
H2517 C2533 0.930 . S
H2518 C2534 0.931 . S
C2519 H2507 0.929 . S
C2519 C2513 1.390 . S
C2519 C2516 1.386 . S
C2520 C2515 1.490 . S
C2520 C2522 1.395 . S
C2520 C2523 1.403 . S
H2521 C2527 0.930 . S
C2522 H2508 0.930 . S
C2522 C2520 1.395 . S
C2522 C2525 1.403 . S
C2523 C2520 1.403 . S
C2523 C2524 1.524 . S
C2523 C2527 1.400 . S
C2524 H2509 0.960 . S
C2524 H2510 0.960 . S
C2524 H2511 0.960 . S
C2524 C2523 1.524 . S
C2525 C2522 1.403 . S
C2525 C2526 1.392 . S
C2525 C2529 1.495 . S
C2526 C2525 1.392 . S
C2526 C2527 1.385 . S
C2526 C2528 1.478 . S
C2527 H2521 0.930 . S
C2527 C2523 1.400 . S
C2527 C2526 1.385 . S
C2528 C2526 1.478 . S
C2528 C2530 1.381 . S
C2528 C2534 1.383 . S
C2529 C2525 1.495 . S
C2529 H2535 0.959 . S
C2529 H2536 0.961 . S
C2529 H2537 0.960 . S
C2530 C2528 1.381 . S
C2530 C2531 1.394 1_565 S
C2530 H2538 0.930 . S
C2531 C2530 1.394 1_545 S
C2531 C2532 1.383 . S
C2531 H2539 0.929 . S
C2532 C2531 1.383 . S
C2532 C2533 1.377 . S
C2533 H2517 0.930 . S
C2533 C2532 1.377 . S
C2533 C2534 1.379 1_545 S
C2534 H2518 0.931 . S
C2534 C2528 1.383 . S
C2534 C2533 1.379 1_565 S
H2535 C2529 0.959 . S
H2536 C2529 0.961 . S
H2537 C2529 0.960 . S
H2538 C2530 0.930 . S
H2539 C2531 0.929 . S
H2540 C2548 0.929 . S
H2541 C2550 0.930 . S
H2542 C2552 0.930 . S
H2543 C2555 0.929 . S
H2544 C2558 0.930 . S
H2545 C2560 0.960 . S
H2546 C2560 0.960 . S
H2547 C2560 0.960 . S
C2548 H2540 0.929 . S
C2548 C2549 1.377 . S
C2548 C2550 1.384 . S
C2549 C2548 1.377 . S
C2549 C2555 1.390 . S
C2550 H2541 0.930 . S
C2550 C2548 1.384 . S
C2550 C2551 1.372 . S
C2551 C2550 1.372 . S
C2551 C2552 1.400 . S
C2551 C2556 1.490 . S
C2552 H2542 0.930 . S
C2552 C2551 1.400 . S
C2552 C2555 1.386 . S
H2553 C2569 0.930 . S
H2554 C2570 0.931 . S
C2555 H2543 0.929 . S
C2555 C2549 1.390 . S
C2555 C2552 1.386 . S
C2556 C2551 1.490 . S
C2556 C2558 1.395 . S
C2556 C2559 1.403 . S
H2557 C2563 0.930 . S
C2558 H2544 0.930 . S
C2558 C2556 1.395 . S
C2558 C2561 1.403 . S
C2559 C2556 1.403 . S
C2559 C2560 1.524 . S
C2559 C2563 1.400 . S
C2560 H2545 0.960 . S
C2560 H2546 0.960 . S
C2560 H2547 0.960 . S
C2560 C2559 1.524 . S
C2561 C2558 1.403 . S
C2561 C2562 1.392 . S
C2561 C2565 1.495 . S
C2562 C2561 1.392 . S
C2562 C2563 1.385 . S
C2562 C2564 1.478 . S
C2563 H2557 0.930 . S
C2563 C2559 1.400 . S
C2563 C2562 1.385 . S
C2564 C2562 1.478 . S
C2564 C2566 1.381 . S
C2564 C2570 1.383 . S
C2565 C2561 1.495 . S
C2565 H2571 0.959 . S
C2565 H2572 0.961 . S
C2565 H2573 0.960 . S
C2566 C2564 1.381 . S
C2566 C2567 1.394 1_565 S
C2566 H2574 0.930 . S
C2567 C2566 1.394 1_545 S
C2567 C2568 1.383 . S
C2567 H2575 0.929 . S
C2568 C2567 1.383 . S
C2568 C2569 1.377 . S
C2569 H2553 0.930 . S
C2569 C2568 1.377 . S
C2569 C2570 1.379 1_545 S
C2570 H2554 0.931 . S
C2570 C2564 1.383 . S
C2570 C2569 1.379 1_565 S
H2571 C2565 0.959 . S
H2572 C2565 0.961 . S
H2573 C2565 0.960 . S
H2574 C2566 0.930 . S
H2575 C2567 0.929 . S
H2576 C2584 0.929 . S
H2577 C2586 0.930 . S
H2578 C2588 0.930 . S
H2579 C2591 0.929 . S
H2580 C2594 0.930 . S
H2581 C2596 0.960 . S
H2582 C2596 0.960 . S
H2583 C2596 0.960 . S
C2584 H2576 0.929 . S
C2584 C2585 1.377 . S
C2584 C2586 1.384 . S
C2585 C2584 1.377 . S
C2585 C2591 1.390 . S
C2586 H2577 0.930 . S
C2586 C2584 1.384 . S
C2586 C2587 1.372 . S
C2587 C2586 1.372 . S
C2587 C2588 1.400 . S
C2587 C2592 1.490 . S
C2588 H2578 0.930 . S
C2588 C2587 1.400 . S
C2588 C2591 1.386 . S
H2589 C2605 0.930 . S
H2590 C2606 0.931 . S
C2591 H2579 0.929 . S
C2591 C2585 1.390 . S
C2591 C2588 1.386 . S
C2592 C2587 1.490 . S
C2592 C2594 1.395 . S
C2592 C2595 1.403 . S
H2593 C2599 0.930 . S
C2594 H2580 0.930 . S
C2594 C2592 1.395 . S
C2594 C2597 1.403 . S
C2595 C2592 1.403 . S
C2595 C2596 1.524 . S
C2595 C2599 1.400 . S
C2596 H2581 0.960 . S
C2596 H2582 0.960 . S
C2596 H2583 0.960 . S
C2596 C2595 1.524 . S
C2597 C2594 1.403 . S
C2597 C2598 1.392 . S
C2597 C2601 1.495 . S
C2598 C2597 1.392 . S
C2598 C2599 1.385 . S
C2598 C2600 1.478 . S
C2599 H2593 0.930 . S
C2599 C2595 1.400 . S
C2599 C2598 1.385 . S
C2600 C2598 1.478 . S
C2600 C2602 1.381 . S
C2600 C2606 1.383 . S
C2601 C2597 1.495 . S
C2601 H2607 0.959 . S
C2601 H2608 0.961 . S
C2601 H2609 0.960 . S
C2602 C2600 1.381 . S
C2602 C2603 1.394 . S
C2602 H2610 0.930 . S
C2603 C2602 1.394 . S
C2603 C2604 1.383 . S
C2603 H2611 0.929 . S
C2604 C2603 1.383 . S
C2604 C2605 1.377 . S
C2605 H2589 0.930 . S
C2605 C2604 1.377 . S
C2605 C2606 1.379 . S
C2606 H2590 0.931 . S
C2606 C2600 1.383 . S
C2606 C2605 1.379 . S
H2607 C2601 0.959 . S
H2608 C2601 0.961 . S
H2609 C2601 0.960 . S
H2610 C2602 0.930 . S
H2611 C2603 0.929 . S
H2612 C2620 0.929 . S
H2613 C2622 0.930 . S
H2614 C2624 0.930 . S
H2615 C2627 0.929 . S
H2616 C2630 0.930 . S
H2617 C2632 0.960 . S
H2618 C2632 0.960 . S
H2619 C2632 0.960 . S
C2620 H2612 0.929 . S
C2620 C2621 1.377 . S
C2620 C2622 1.384 . S
C2621 C2620 1.377 . S
C2621 C2627 1.390 . S
C2622 H2613 0.930 . S
C2622 C2620 1.384 . S
C2622 C2623 1.372 . S
C2623 C2622 1.372 . S
C2623 C2624 1.400 . S
C2623 C2628 1.490 . S
C2624 H2614 0.930 . S
C2624 C2623 1.400 . S
C2624 C2627 1.386 . S
H2625 C2641 0.930 . S
H2626 C2642 0.931 . S
C2627 H2615 0.929 . S
C2627 C2621 1.390 . S
C2627 C2624 1.386 . S
C2628 C2623 1.490 . S
C2628 C2630 1.395 . S
C2628 C2631 1.403 . S
H2629 C2635 0.930 . S
C2630 H2616 0.930 . S
C2630 C2628 1.395 . S
C2630 C2633 1.403 . S
C2631 C2628 1.403 . S
C2631 C2632 1.524 . S
C2631 C2635 1.400 . S
C2632 H2617 0.960 . S
C2632 H2618 0.960 . S
C2632 H2619 0.960 . S
C2632 C2631 1.524 . S
C2633 C2630 1.403 . S
C2633 C2634 1.392 . S
C2633 C2637 1.495 . S
C2634 C2633 1.392 . S
C2634 C2635 1.385 . S
C2634 C2636 1.478 . S
C2635 H2629 0.930 . S
C2635 C2631 1.400 . S
C2635 C2634 1.385 . S
C2636 C2634 1.478 . S
C2636 C2638 1.381 . S
C2636 C2642 1.383 . S
C2637 C2633 1.495 . S
C2637 H2643 0.959 . S
C2637 H2644 0.961 . S
C2637 H2645 0.960 . S
C2638 C2636 1.381 . S
C2638 C2639 1.394 . S
C2638 H2646 0.930 . S
C2639 C2638 1.394 . S
C2639 C2640 1.383 . S
C2639 H2647 0.929 . S
C2640 C2639 1.383 . S
C2640 C2641 1.377 . S
C2641 H2625 0.930 . S
C2641 C2640 1.377 . S
C2641 C2642 1.379 . S
C2642 H2626 0.931 . S
C2642 C2636 1.383 . S
C2642 C2641 1.379 . S
H2643 C2637 0.959 . S
H2644 C2637 0.961 . S
H2645 C2637 0.960 . S
H2646 C2638 0.930 . S
H2647 C2639 0.929 . S
H2648 C2656 0.929 . S
H2649 C2658 0.930 . S
H2650 C2660 0.930 . S
H2651 C2663 0.929 . S
H2652 C2666 0.930 . S
H2653 C2668 0.960 . S
H2654 C2668 0.960 . S
H2655 C2668 0.960 . S
C2656 H2648 0.929 . S
C2656 C2657 1.377 . S
C2656 C2658 1.384 . S
C2657 C2656 1.377 . S
C2657 C2663 1.390 . S
C2658 H2649 0.930 . S
C2658 C2656 1.384 . S
C2658 C2659 1.372 . S
C2659 C2658 1.372 . S
C2659 C2660 1.400 . S
C2659 C2664 1.490 . S
C2660 H2650 0.930 . S
C2660 C2659 1.400 . S
C2660 C2663 1.386 . S
H2661 C2677 0.930 . S
H2662 C2678 0.931 . S
C2663 H2651 0.929 . S
C2663 C2657 1.390 . S
C2663 C2660 1.386 . S
C2664 C2659 1.490 . S
C2664 C2666 1.395 . S
C2664 C2667 1.403 . S
H2665 C2671 0.930 . S
C2666 H2652 0.930 . S
C2666 C2664 1.395 . S
C2666 C2669 1.403 . S
C2667 C2664 1.403 . S
C2667 C2668 1.524 . S
C2667 C2671 1.400 . S
C2668 H2653 0.960 . S
C2668 H2654 0.960 . S
C2668 H2655 0.960 . S
C2668 C2667 1.524 . S
C2669 C2666 1.403 . S
C2669 C2670 1.392 . S
C2669 C2673 1.495 . S
C2670 C2669 1.392 . S
C2670 C2671 1.385 . S
C2670 C2672 1.478 . S
C2671 H2665 0.930 . S
C2671 C2667 1.400 . S
C2671 C2670 1.385 . S
C2672 C2670 1.478 . S
C2672 C2674 1.381 . S
C2672 C2678 1.383 . S
C2673 C2669 1.495 . S
C2673 H2679 0.959 . S
C2673 H2680 0.961 . S
C2673 H2681 0.960 . S
C2674 C2672 1.381 . S
C2674 C2675 1.394 . S
C2674 H2682 0.930 . S
C2675 C2674 1.394 . S
C2675 C2676 1.383 . S
C2675 H2683 0.929 . S
C2676 C2675 1.383 . S
C2676 C2677 1.377 . S
C2677 H2661 0.930 . S
C2677 C2676 1.377 . S
C2677 C2678 1.379 . S
C2678 H2662 0.931 . S
C2678 C2672 1.383 . S
C2678 C2677 1.379 . S
H2679 C2673 0.959 . S
H2680 C2673 0.961 . S
H2681 C2673 0.960 . S
H2682 C2674 0.930 . S
H2683 C2675 0.929 . S
H2684 C2692 0.929 . S
H2685 C2694 0.930 . S
H2686 C2696 0.930 . S
H2687 C2699 0.929 . S
H2688 C2702 0.930 . S
H2689 C2704 0.960 . S
H2690 C2704 0.960 . S
H2691 C2704 0.960 . S
C2692 H2684 0.929 . S
C2692 C2693 1.377 . S
C2692 C2694 1.384 . S
C2693 C2692 1.377 . S
C2693 C2699 1.390 . S
C2694 H2685 0.930 . S
C2694 C2692 1.384 . S
C2694 C2695 1.372 . S
C2695 C2694 1.372 . S
C2695 C2696 1.400 . S
C2695 C2700 1.490 . S
C2696 H2686 0.930 . S
C2696 C2695 1.400 . S
C2696 C2699 1.386 . S
H2697 C2713 0.930 . S
H2698 C2714 0.931 . S
C2699 H2687 0.929 . S
C2699 C2693 1.390 . S
C2699 C2696 1.386 . S
C2700 C2695 1.490 . S
C2700 C2702 1.395 . S
C2700 C2703 1.403 . S
H2701 C2707 0.930 . S
C2702 H2688 0.930 . S
C2702 C2700 1.395 . S
C2702 C2705 1.403 . S
C2703 C2700 1.403 . S
C2703 C2704 1.524 . S
C2703 C2707 1.400 . S
C2704 H2689 0.960 . S
C2704 H2690 0.960 . S
C2704 H2691 0.960 . S
C2704 C2703 1.524 . S
C2705 C2702 1.403 . S
C2705 C2706 1.392 . S
C2705 C2709 1.495 . S
C2706 C2705 1.392 . S
C2706 C2707 1.385 . S
C2706 C2708 1.478 . S
C2707 H2701 0.930 . S
C2707 C2703 1.400 . S
C2707 C2706 1.385 . S
C2708 C2706 1.478 . S
C2708 C2710 1.381 . S
C2708 C2714 1.383 . S
C2709 C2705 1.495 . S
C2709 H2715 0.959 . S
C2709 H2716 0.961 . S
C2709 H2717 0.960 . S
C2710 C2708 1.381 . S
C2710 C2711 1.394 . S
C2710 H2718 0.930 . S
C2711 C2710 1.394 . S
C2711 C2712 1.383 . S
C2711 H2719 0.929 . S
C2712 C2711 1.383 . S
C2712 C2713 1.377 . S
C2713 H2697 0.930 . S
C2713 C2712 1.377 . S
C2713 C2714 1.379 . S
C2714 H2698 0.931 . S
C2714 C2708 1.383 . S
C2714 C2713 1.379 . S
H2715 C2709 0.959 . S
H2716 C2709 0.961 . S
H2717 C2709 0.960 . S
H2718 C2710 0.930 . S
H2719 C2711 0.929 . S
C425 C30 0.468 . S
C444 C4 0.446 . S
C461 C23 0.466 . S
C480 C43 0.455 . S
C497 C82 0.489 . S
C516 C56 0.540 . S
C533 C95 0.481 . S
C552 C69 0.491 . S
C569 C108 0.470 . S
C588 C140 0.436 . S
C605 C153 0.471 . S
C624 C121 0.540 . S
C641 C160 0.466 . S
C660 C192 0.422 . S
C677 C173 0.489 . S
C696 C199 0.538 . S
C713 C238 0.488 . S
C732 C212 0.486 . S
C749 C225 0.465 . S
C768 C251 0.461 . S
C785 C264 0.484 . S
C804 C290 0.528 . S
C821 C303 0.488 . S
C840 C283 0.539 . S
C857 C348 0.488 . S
C876 C322 0.483 . S
C893 C361 0.480 . S
C912 C335 0.528 . S
C929 C400 0.480 . S
C948 C368 0.514 . S
C965 C381 0.486 . S
C984 C407 0.519 . S
C1001 C62 1.572 . S
C1020 C10 1.559 . S
C1037 C387 1.566 . S
C1056 C17 1.549 . S
C1073 C36 1.571 . S
C1092 C186 1.580 . S
C1109 C49 1.567 . S
C1128 C309 1.553 . S
C1145 C75 1.565 . S
C1164 C329 1.558 . S
C1181 C88 1.567 . S
C1200 C134 1.574 . S
C1217 C257 1.572 . S
C1236 C101 1.563 . S
C1253 C166 1.573 . S
C1272 C114 1.581 . S
C1289 C277 1.568 . S
C1308 C127 1.578 . S
C1325 C147 1.570 . S
C1344 C413 1.551 . S
C1361 C179 1.565 . S
C1380 C231 1.552 . S
C1397 C355 1.573 . S
C1416 C205 1.580 . S
C1433 C270 1.568 . S
C1452 C218 1.577 . S
C1469 C244 1.571 . S
C1488 C394 1.560 . S
C1505 C296 1.570 . S
C1524 C342 1.557 . S
C1541 C374 1.567 . S
C1560 C316 1.571 . S
C1577 C42 1.555 . S
C1596 C3 1.559 . S
C1613 C29 1.554 . S
C1632 C18 1.558 . S
C1649 C94 1.557 . S
C1668 C55 1.555 . S
C1685 C81 1.556 . S
C1704 C68 1.561 . S
C1721 C148 1.556 . S
C1740 C107 1.554 . S
C1757 C135 1.556 . S
C1776 C120 1.541 . S
C1793 C198 1.557 . S
C1812 C159 1.560 . S
C1829 C187 1.557 . S
C1848 C172 1.561 . S
C1865 C211 1.555 . S
C1884 C250 1.560 . S
C1901 C237 1.552 . S
C1920 C224 1.554 . S
C1937 C263 1.553 . S
C1956 C302 1.544 . S
C1973 C289 1.553 . S
C1992 C278 1.547 . S
C2009 C356 1.553 . S
C2028 C317 1.559 . S
C2045 C330 1.556 . S
C2064 C343 1.547 . S
C2081 C367 1.553 . S
C2100 C406 1.541 . S
C2117 C395 1.556 . S
C2136 C380 1.556 . S
C2153 C31 1.408 . S
C2172 C5 1.402 . S
C2189 C16 1.406 . S
C2208 C44 1.408 . S
C2225 C57 1.406 . S
C2244 C83 1.402 . S
C2261 C70 1.409 . S
C2280 C96 1.391 . S
C2297 C109 1.406 . S
C2316 C133 1.408 . S
C2333 C122 1.404 . S
C2352 C146 1.393 . S
C2369 C185 1.405 . S
C2388 C161 1.411 . S
C2405 C200 1.405 . S
C2424 C174 1.414 . S
C2441 C239 1.408 . S
C2460 C213 1.403 . S
C2477 C252 1.407 . S
C2496 C226 1.413 . S
C2513 C265 1.405 . S
C2532 C291 1.416 . S
C2549 C304 1.408 . S
C2568 C276 1.403 . S
C2585 C341 1.405 . S
C2604 C315 1.404 . S
C2621 C328 1.409 . S
C2640 C354 1.416 . S
C2657 C369 1.404 . S
C2676 C393 1.415 . S
C2693 C408 1.405 . S
C2712 C382 1.414 . S
