# Generated by pormake.
# Topology dia-a, (4)-cn, num edge types: 1
# Building blocks:
#     Node 0, Type 0, BuildingBlock: NAHDIM_clean_sbu_0, # of connection points: 4
#     Node 1, Type 0, BuildingBlock: NAHDIM_clean_sbu_0, # of connection points: 4
#     Node 2, Type 0, BuildingBlock: NAHDIM_clean_sbu_0, # of connection points: 4
#     Node 3, Type 0, BuildingBlock: NAHDIM_clean_sbu_0, # of connection points: 4
#     Node 4, Type 0, BuildingBlock: NAHDIM_clean_sbu_0, # of connection points: 4
#     Node 5, Type 0, BuildingBlock: NAHDIM_clean_sbu_0, # of connection points: 4
#     Node 6, Type 0, BuildingBlock: NAHDIM_clean_sbu_0, # of connection points: 4
#     Node 7, Type 0, BuildingBlock: NAHDIM_clean_sbu_0, # of connection points: 4
#     Node 8, Type 0, BuildingBlock: NAHDIM_clean_sbu_0, # of connection points: 4
#     Node 9, Type 0, BuildingBlock: NAHDIM_clean_sbu_0, # of connection points: 4
#     Node 10, Type 0, BuildingBlock: NAHDIM_clean_sbu_0, # of connection points: 4
#     Node 11, Type 0, BuildingBlock: NAHDIM_clean_sbu_0, # of connection points: 4
#     Node 12, Type 0, BuildingBlock: NAHDIM_clean_sbu_0, # of connection points: 4
#     Node 13, Type 0, BuildingBlock: NAHDIM_clean_sbu_0, # of connection points: 4
#     Node 14, Type 0, BuildingBlock: NAHDIM_clean_sbu_0, # of connection points: 4
#     Node 15, Type 0, BuildingBlock: NAHDIM_clean_sbu_0, # of connection points: 4
#     Node 16, Type 0, BuildingBlock: NAHDIM_clean_sbu_0, # of connection points: 4
#     Node 17, Type 0, BuildingBlock: NAHDIM_clean_sbu_0, # of connection points: 4
#     Node 18, Type 0, BuildingBlock: NAHDIM_clean_sbu_0, # of connection points: 4
#     Node 19, Type 0, BuildingBlock: NAHDIM_clean_sbu_0, # of connection points: 4
#     Node 20, Type 0, BuildingBlock: NAHDIM_clean_sbu_0, # of connection points: 4
#     Node 21, Type 0, BuildingBlock: NAHDIM_clean_sbu_0, # of connection points: 4
#     Node 22, Type 0, BuildingBlock: NAHDIM_clean_sbu_0, # of connection points: 4
#     Node 23, Type 0, BuildingBlock: NAHDIM_clean_sbu_0, # of connection points: 4
#     Node 24, Type 0, BuildingBlock: NAHDIM_clean_sbu_0, # of connection points: 4
#     Node 25, Type 0, BuildingBlock: NAHDIM_clean_sbu_0, # of connection points: 4
#     Node 26, Type 0, BuildingBlock: NAHDIM_clean_sbu_0, # of connection points: 4
#     Node 27, Type 0, BuildingBlock: NAHDIM_clean_sbu_0, # of connection points: 4
#     Node 28, Type 0, BuildingBlock: NAHDIM_clean_sbu_0, # of connection points: 4
#     Node 29, Type 0, BuildingBlock: NAHDIM_clean_sbu_0, # of connection points: 4
#     Node 30, Type 0, BuildingBlock: NAHDIM_clean_sbu_0, # of connection points: 4
#     Node 31, Type 0, BuildingBlock: NAHDIM_clean_sbu_0, # of connection points: 4
#     Edge 32, Type (0, 0), BuildingBlock: AJUNOK_clean_linker_0, # of connection points: 2
#     Edge 33, Type (0, 0), BuildingBlock: AJUNOK_clean_linker_0, # of connection points: 2
#     Edge 34, Type (0, 0), BuildingBlock: AJUNOK_clean_linker_0, # of connection points: 2
#     Edge 35, Type (0, 0), BuildingBlock: AJUNOK_clean_linker_0, # of connection points: 2
#     Edge 36, Type (0, 0), BuildingBlock: AJUNOK_clean_linker_0, # of connection points: 2
#     Edge 37, Type (0, 0), BuildingBlock: AJUNOK_clean_linker_0, # of connection points: 2
#     Edge 38, Type (0, 0), BuildingBlock: AJUNOK_clean_linker_0, # of connection points: 2
#     Edge 39, Type (0, 0), BuildingBlock: AJUNOK_clean_linker_0, # of connection points: 2
#     Edge 40, Type (0, 0), BuildingBlock: AJUNOK_clean_linker_0, # of connection points: 2
#     Edge 41, Type (0, 0), BuildingBlock: AJUNOK_clean_linker_0, # of connection points: 2
#     Edge 42, Type (0, 0), BuildingBlock: AJUNOK_clean_linker_0, # of connection points: 2
#     Edge 43, Type (0, 0), BuildingBlock: AJUNOK_clean_linker_0, # of connection points: 2
#     Edge 44, Type (0, 0), BuildingBlock: AJUNOK_clean_linker_0, # of connection points: 2
#     Edge 45, Type (0, 0), BuildingBlock: AJUNOK_clean_linker_0, # of connection points: 2
#     Edge 46, Type (0, 0), BuildingBlock: AJUNOK_clean_linker_0, # of connection points: 2
#     Edge 47, Type (0, 0), BuildingBlock: AJUNOK_clean_linker_0, # of connection points: 2
#     Edge 48, Type (0, 0), BuildingBlock: AJUNOK_clean_linker_0, # of connection points: 2
#     Edge 49, Type (0, 0), BuildingBlock: AJUNOK_clean_linker_0, # of connection points: 2
#     Edge 50, Type (0, 0), BuildingBlock: AJUNOK_clean_linker_0, # of connection points: 2
#     Edge 51, Type (0, 0), BuildingBlock: AJUNOK_clean_linker_0, # of connection points: 2
#     Edge 52, Type (0, 0), BuildingBlock: AJUNOK_clean_linker_0, # of connection points: 2
#     Edge 53, Type (0, 0), BuildingBlock: AJUNOK_clean_linker_0, # of connection points: 2
#     Edge 54, Type (0, 0), BuildingBlock: AJUNOK_clean_linker_0, # of connection points: 2
#     Edge 55, Type (0, 0), BuildingBlock: AJUNOK_clean_linker_0, # of connection points: 2
#     Edge 56, Type (0, 0), BuildingBlock: AJUNOK_clean_linker_0, # of connection points: 2
#     Edge 57, Type (0, 0), BuildingBlock: AJUNOK_clean_linker_0, # of connection points: 2
#     Edge 58, Type (0, 0), BuildingBlock: AJUNOK_clean_linker_0, # of connection points: 2
#     Edge 59, Type (0, 0), BuildingBlock: AJUNOK_clean_linker_0, # of connection points: 2
#     Edge 60, Type (0, 0), BuildingBlock: AJUNOK_clean_linker_0, # of connection points: 2
#     Edge 61, Type (0, 0), BuildingBlock: AJUNOK_clean_linker_0, # of connection points: 2
#     Edge 62, Type (0, 0), BuildingBlock: AJUNOK_clean_linker_0, # of connection points: 2
#     Edge 63, Type (0, 0), BuildingBlock: AJUNOK_clean_linker_0, # of connection points: 2
#     Edge 64, Type (0, 0), BuildingBlock: AJUNOK_clean_linker_0, # of connection points: 2
#     Edge 65, Type (0, 0), BuildingBlock: AJUNOK_clean_linker_0, # of connection points: 2
#     Edge 66, Type (0, 0), BuildingBlock: AJUNOK_clean_linker_0, # of connection points: 2
#     Edge 67, Type (0, 0), BuildingBlock: AJUNOK_clean_linker_0, # of connection points: 2
#     Edge 68, Type (0, 0), BuildingBlock: AJUNOK_clean_linker_0, # of connection points: 2
#     Edge 69, Type (0, 0), BuildingBlock: AJUNOK_clean_linker_0, # of connection points: 2
#     Edge 70, Type (0, 0), BuildingBlock: AJUNOK_clean_linker_0, # of connection points: 2
#     Edge 71, Type (0, 0), BuildingBlock: AJUNOK_clean_linker_0, # of connection points: 2
#     Edge 72, Type (0, 0), BuildingBlock: AJUNOK_clean_linker_0, # of connection points: 2
#     Edge 73, Type (0, 0), BuildingBlock: AJUNOK_clean_linker_0, # of connection points: 2
#     Edge 74, Type (0, 0), BuildingBlock: AJUNOK_clean_linker_0, # of connection points: 2
#     Edge 75, Type (0, 0), BuildingBlock: AJUNOK_clean_linker_0, # of connection points: 2
#     Edge 76, Type (0, 0), BuildingBlock: AJUNOK_clean_linker_0, # of connection points: 2
#     Edge 77, Type (0, 0), BuildingBlock: AJUNOK_clean_linker_0, # of connection points: 2
#     Edge 78, Type (0, 0), BuildingBlock: AJUNOK_clean_linker_0, # of connection points: 2
#     Edge 79, Type (0, 0), BuildingBlock: AJUNOK_clean_linker_0, # of connection points: 2
#     Edge 80, Type (0, 0), BuildingBlock: AJUNOK_clean_linker_0, # of connection points: 2
#     Edge 81, Type (0, 0), BuildingBlock: AJUNOK_clean_linker_0, # of connection points: 2
#     Edge 82, Type (0, 0), BuildingBlock: AJUNOK_clean_linker_0, # of connection points: 2
#     Edge 83, Type (0, 0), BuildingBlock: AJUNOK_clean_linker_0, # of connection points: 2
#     Edge 84, Type (0, 0), BuildingBlock: AJUNOK_clean_linker_0, # of connection points: 2
#     Edge 85, Type (0, 0), BuildingBlock: AJUNOK_clean_linker_0, # of connection points: 2
#     Edge 86, Type (0, 0), BuildingBlock: AJUNOK_clean_linker_0, # of connection points: 2
#     Edge 87, Type (0, 0), BuildingBlock: AJUNOK_clean_linker_0, # of connection points: 2
#     Edge 88, Type (0, 0), BuildingBlock: AJUNOK_clean_linker_0, # of connection points: 2
#     Edge 89, Type (0, 0), BuildingBlock: AJUNOK_clean_linker_0, # of connection points: 2
#     Edge 90, Type (0, 0), BuildingBlock: AJUNOK_clean_linker_0, # of connection points: 2
#     Edge 91, Type (0, 0), BuildingBlock: AJUNOK_clean_linker_0, # of connection points: 2
#     Edge 92, Type (0, 0), BuildingBlock: AJUNOK_clean_linker_0, # of connection points: 2
#     Edge 93, Type (0, 0), BuildingBlock: AJUNOK_clean_linker_0, # of connection points: 2
#     Edge 94, Type (0, 0), BuildingBlock: AJUNOK_clean_linker_0, # of connection points: 2
#     Edge 95, Type (0, 0), BuildingBlock: AJUNOK_clean_linker_0, # of connection points: 2
# Relax obj value: 0.779
# Max RMSD: 0.306
# Mean RMSD: 0.290
data_MOF--net-dia-a--node1-NAHDIM_clean_sbu_0--edge1-AJUNOK_clean_linker_0
_symmetry_space_group_name_H-M    P1
_symmetry_Int_Tables_number       1
_symmetry_cell_setting            triclinic
loop_
_symmetry_equiv_pos_as_xyz
'x, y, z'
_cell_length_a     54.135757
_cell_length_b     48.818184
_cell_length_c     36.898679
_cell_angle_alpha  95.487141
_cell_angle_beta   93.924079
_cell_angle_gamma 88.365022
loop_
_atom_site_label
_atom_site_type_symbol
_atom_site_fract_x
_atom_site_fract_y
_atom_site_fract_z
_atom_type_partial_charge
C0 C 0.04813 0.97792 0.48011 0.0
O1 O 0.04242 0.00286 0.47134 0.0
O2 O 0.09069 0.03743 0.47921 0.0
Zn3 Zn 0.08737 0.00764 0.51337 0.0
O4 O 0.06623 0.02361 0.55285 0.0
C5 C 0.13861 0.01493 0.53737 0.0
O6 O 0.13827 0.03033 0.51005 0.0
O7 O 0.06984 0.97329 0.49366 0.0
C8 C 0.06572 0.01237 0.58245 0.0
O9 O 0.07939 -0.00984 0.58714 0.0
C10 C 0.07522 0.05758 0.47927 0.0
O11 O 0.05495 0.05618 0.49658 0.0
O12 O 0.1199 0.00047 0.5406 0.0
C13 C 0.8959 0.16781 0.79501 0.0
O14 O 0.88914 0.17145 0.82867 0.0
O15 O 0.83511 0.21953 0.80255 0.0
Zn16 Zn 0.87084 0.2194 0.79051 0.0
O17 O 0.88967 0.2321 0.83725 0.0
C18 C 0.85845 0.26132 0.74013 0.0
O19 O 0.83574 0.2526 0.74054 0.0
O20 O 0.88696 0.18387 0.77205 0.0
C21 C 0.91219 0.23892 0.83891 0.0
O22 O 0.92403 0.23734 0.80883 0.0
C23 C 0.83094 0.21575 0.83518 0.0
O24 O 0.84859 0.20449 0.85541 0.0
O25 O 0.87587 0.24914 0.75756 0.0
C26 C 0.63028 0.25219 0.9727 0.0
O27 O 0.62654 0.22891 0.9524 0.0
O28 O 0.59466 0.19162 0.99308 0.0
Zn29 Zn 0.61168 0.22176 0.02651 0.0
O30 O 0.64248 0.20379 0.04691 0.0
C31 C 0.57422 0.21792 0.07723 0.0
O32 O 0.56262 0.2036 0.04957 0.0
O33 O 0.62216 0.255 0.00431 0.0
C34 C 0.6564 0.21482 0.07305 0.0
O35 O 0.65195 0.24051 0.08539 0.0
C36 C 0.60779 0.17222 0.9781 0.0
O37 O 0.63188 0.17516 0.97894 0.0
O38 O 0.59336 0.23091 0.07168 0.0
C39 C 0.83695 -0.01663 0.23057 0.0
O40 O 0.85621 -0.01184 0.25367 0.0
O41 O 0.87621 0.93158 0.27684 0.0
Zn42 Zn 0.84264 0.92714 0.24983 0.0
O43 O 0.81853 0.92504 0.28843 0.0
C44 C 0.85955 0.87395 0.21942 0.0
O45 O 0.88133 0.8845 0.22895 0.0
O46 O 0.83045 0.95865 0.22197 0.0
C47 C 0.82476 0.90989 0.31378 0.0
O48 O 0.84589 0.896 0.31323 0.0
C49 C 0.87798 0.94499 0.30816 0.0
O50 O 0.8593 0.96109 0.31817 0.0
O51 O 0.84047 0.88965 0.22163 0.0
C52 C -0.00768 0.1157 0.78247 0.0
O53 O -0.00354 0.08911 0.77612 0.0
O54 O 0.07313 0.12958 0.78463 0.0
Zn55 Zn 0.04076 0.1227 0.75523 0.0
O56 O 0.04084 0.08471 0.72943 0.0
C57 C 0.04563 0.17182 0.71587 0.0
O58 O 0.05274 0.18477 0.74755 0.0
O59 O 0.00941 0.13244 0.77935 0.0
C60 C 0.02605 0.08102 0.70123 0.0
O61 O 0.00907 0.10011 0.69518 0.0
C62 C 0.08729 0.10952 0.79263 0.0
O63 O 0.0784 0.08458 0.78802 0.0
O64 O 0.04031 0.14656 0.71402 0.0
C65 C 0.71775 0.31464 0.9683 0.0
O66 O 0.73749 0.29959 0.97638 0.0
O67 O 0.77729 0.36056 0.99373 0.0
Zn68 Zn 0.75567 0.34599 0.94962 0.0
O69 O 0.77154 0.3105 0.92942 0.0
C70 C 0.76988 0.3938 0.91794 0.0
O71 O 0.77385 0.40341 0.95222 0.0
O72 O 0.72037 0.33843 0.95815 0.0
C73 C 0.76396 0.29761 0.89935 0.0
O74 O 0.74509 0.30776 0.88024 0.0
C75 C 0.79316 0.34505 0.00922 0.0
O76 O 0.79103 0.31827 0.0027 0.0
O77 O 0.75878 0.37121 0.91035 0.0
C78 C 0.75655 0.0627 0.22957 0.0
O79 O 0.73513 0.05136 0.23219 0.0
O80 O 0.71156 0.07383 0.16609 0.0
Zn81 Zn 0.72246 0.10089 0.20877 0.0
O82 O 0.69725 0.10019 0.24691 0.0
C83 C 0.69956 0.13946 0.16959 0.0
O84 O 0.68281 0.1209 0.17197 0.0
O85 O 0.7569 0.08788 0.22373 0.0
C86 C 0.68749 0.12185 0.26243 0.0
O87 O 0.69646 0.14582 0.25748 0.0
C88 C 0.69595 0.05503 0.16719 0.0
O89 O 0.68651 0.05175 0.1983 0.0
O90 O 0.72061 0.13714 0.18664 0.0
C91 C 0.96615 0.91103 0.50951 0.0
O92 O 0.94427 0.92332 0.51079 0.0
O93 O 0.90946 0.86959 0.5311 0.0
Zn94 Zn 0.93397 0.86907 0.4922 0.0
O95 O 0.92005 0.89175 0.45249 0.0
C96 C 0.92293 0.81135 0.47581 0.0
O97 O 0.91097 0.81489 0.50572 0.0
O98 O 0.96727 0.88491 0.50683 0.0
C99 C 0.93151 0.89187 0.42357 0.0
O100 O 0.95192 0.87691 0.42018 0.0
C101 C 0.88967 0.88392 0.52719 0.0
O102 O 0.89064 0.90673 0.51123 0.0
O103 O 0.93609 0.83071 0.46747 0.0
C104 C 0.54823 -0.01808 0.978 0.0
O105 O 0.54233 0.00674 0.96896 0.0
O106 O 0.59085 0.04195 0.97858 0.0
Zn107 Zn 0.58866 0.0112 0.01174 0.0
O108 O 0.5701 0.02724 0.0539 0.0
C109 C 0.63991 0.01779 0.03482 0.0
O110 O 0.63855 0.03608 0.0108 0.0
O111 O 0.56976 0.97763 0.99245 0.0
C112 C 0.56624 0.01377 0.08067 0.0
O113 O 0.57443 -0.01183 0.08062 0.0
C114 C 0.57485 0.06162 0.9803 0.0
O115 O 0.55534 0.05917 -0.0011 0.0
O116 O 0.62175 0.00209 0.03591 0.0
C117 C 0.89567 0.67411 0.30055 0.0
O118 O 0.88241 0.66959 0.3278 0.0
O119 O 0.82506 0.69587 0.28295 0.0
Zn120 Zn 0.85947 0.71736 0.29116 0.0
O121 O 0.86771 0.73195 0.34331 0.0
C122 C 0.84477 0.75998 0.23964 0.0
O123 O 0.82293 0.7487 0.23407 0.0
O124 O 0.88809 0.69194 0.27914 0.0
C125 C 0.88927 0.74191 0.34774 0.0
O126 O 0.90263 0.7415 0.31926 0.0
C127 C 0.80456 0.69915 0.29881 0.0
O128 O 0.82481 0.69503 0.28198 0.0
O129 O 0.86114 0.74966 0.261 0.0
C130 C 0.14502 0.2467 0.51076 0.0
O131 O 0.15554 0.22219 0.50603 0.0
O132 O 0.09801 0.18547 0.50014 0.0
Zn133 Zn 0.11222 0.21374 0.53911 0.0
O134 O 0.14233 0.1963 0.56321 0.0
C135 C 0.0688 0.20808 0.57863 0.0
O136 O 0.06077 0.19441 0.54793 0.0
O137 O 0.12337 0.24896 0.52205 0.0
C138 C 0.15404 0.20869 0.59073 0.0
O139 O 0.14617 0.23315 0.60368 0.0
C140 C 0.11179 0.16655 0.48555 0.0
O141 O 0.13591 0.16864 0.49108 0.0
O142 O 0.0892 0.22046 0.57966 0.0
C143 C 0.84332 0.48316 0.71779 0.0
O144 O 0.86267 0.48941 0.74013 0.0
O145 O 0.88449 0.43638 0.768 0.0
Zn146 Zn 0.8519 0.42824 0.73988 0.0
O147 O 0.8275 0.42562 0.77803 0.0
C148 C 0.87198 0.37479 0.71606 0.0
O149 O 0.89277 0.38615 0.72934 0.0
O150 O 0.83811 0.45795 0.70995 0.0
C151 C 0.83386 0.41116 0.80409 0.0
O152 O 0.85534 0.39793 0.80428 0.0
C153 C 0.8845 0.4507 0.79864 0.0
O154 O 0.8645 0.46533 0.80659 0.0
O155 O 0.85253 0.38994 0.71373 0.0
C156 C 0.49194 0.12105 0.28548 0.0
O157 O 0.50005 0.09613 0.29117 0.0
O158 O 0.57052 0.13356 0.28575 0.0
Zn159 Zn 0.53922 0.13244 0.25199 0.0
O160 O 0.53959 0.10012 0.21437 0.0
C161 C 0.5623 0.1704 0.21131 0.0
O162 O 0.58235 0.15798 0.22435 0.0
O163 O 0.50598 0.1377 0.27279 0.0
C164 C 0.53609 0.07444 0.2131 0.0
O165 O 0.53155 0.06311 0.24276 0.0
C166 C 0.58454 0.11237 0.28823 0.0
O167 O 0.57543 0.08816 0.27706 0.0
O168 O 0.54134 0.16363 0.22062 0.0
C169 C 0.70292 0.81799 0.44229 0.0
O170 O 0.70827 0.81489 0.40791 0.0
O171 O 0.77978 0.83982 0.48951 0.0
Zn172 Zn 0.75351 0.83004 0.44902 0.0
O173 O 0.76342 0.79492 0.41931 0.0
C174 C 0.76433 0.88214 0.42585 0.0
O175 O 0.76907 0.88842 0.46099 0.0
O176 O 0.71979 0.82569 0.46644 0.0
C177 C 0.7799 0.7954 0.3964 0.0
O178 O 0.79051 0.81881 0.39304 0.0
C179 C 0.79892 0.82456 0.49383 0.0
O180 O 0.79919 0.79953 0.47731 0.0
O181 O 0.7539 0.85959 0.41496 0.0
C182 C 0.2573 0.0583 0.72614 0.0
O183 O 0.23581 0.04648 0.72594 0.0
O184 O 0.20924 0.07544 0.66838 0.0
Zn185 Zn 0.22336 0.0992 0.71236 0.0
O186 O 0.19962 0.0977 0.75211 0.0
C187 C 0.22593 0.13974 0.66303 0.0
O188 O 0.23584 0.11881 0.6436 0.0
O189 O 0.25765 0.08407 0.7239 0.0
C190 C 0.19008 0.11951 0.76757 0.0
O191 O 0.19896 0.14337 0.76187 0.0
C192 C 0.19348 0.0568 0.6695 0.0
O193 O 0.18539 0.05217 0.70107 0.0
O194 O 0.22226 0.13721 0.69615 0.0
C195 C 0.96507 0.41785 0.00748 0.0
O196 O 0.94278 0.42909 0.00454 0.0
O197 O 0.90909 0.36835 0.0147 0.0
Zn198 Zn 0.93657 0.37334 0.98157 0.0
O199 O 0.9234 0.39685 0.94258 0.0
C200 C 0.93763 0.31436 0.96344 0.0
O201 O 0.92706 0.31396 0.99437 0.0
O202 O 0.96723 0.3918 0.0037 0.0
C203 C 0.937 0.40081 0.91692 0.0
O204 O 0.95917 0.38916 0.91634 0.0
C205 C 0.89137 0.38593 0.01775 0.0
O206 O 0.89331 0.40957 0.00405 0.0
O207 O 0.9448 0.33715 0.95446 0.0
C208 C 0.04795 0.48942 -0.00119 0.0
O209 O 0.04257 0.51576 0.99834 0.0
O210 O 0.09599 0.54543 6e-05 0.0
Zn211 Zn 0.09054 0.51359 0.03027 0.0
O212 O 0.07089 0.5293 0.07162 0.0
C213 C 0.14334 0.50963 0.04522 0.0
O214 O 0.14392 0.52164 0.01491 0.0
O215 O 0.0702 0.48224 0.00697 0.0
C216 C 0.07244 0.52127 0.10343 0.0
O217 O 0.08831 0.5015 0.11125 0.0
C218 C 0.08152 0.56647 0.00261 0.0
O219 O 0.06166 0.56557 0.02092 0.0
O220 O 0.12274 0.5015 0.05411 0.0
C221 C 0.46352 0.40865 0.51416 0.0
O222 O 0.44021 0.41684 0.51401 0.0
O223 O 0.40936 0.36012 0.51156 0.0
Zn224 Zn 0.43928 0.36287 0.48175 0.0
O225 O 0.42809 0.38432 0.43979 0.0
C226 C 0.43969 0.30378 0.46812 0.0
O227 O 0.42794 0.30523 0.49823 0.0
O228 O 0.46836 0.38335 0.50577 0.0
C229 C 0.43813 0.38168 0.40949 0.0
O230 O 0.4568 0.3642 0.40485 0.0
C231 C 0.39128 0.37722 0.50874 0.0
O232 O 0.3939 0.39879 0.49076 0.0
O233 O 0.44858 0.32558 0.45862 0.0
C234 C 0.12861 0.75489 0.98687 0.0
O235 O 0.12214 0.73107 0.96981 0.0
O236 O 0.10209 0.69547 0.01776 0.0
Zn237 Zn 0.11342 0.73001 0.04856 0.0
O238 O 0.14402 0.71987 0.07848 0.0
C239 C 0.06786 0.72851 0.08328 0.0
O240 O 0.06068 0.71491 0.0521 0.0
O241 O 0.12361 0.76023 0.01996 0.0
C242 C 0.14393 0.69792 0.09425 0.0
O243 O 0.12413 0.6827 0.09056 0.0
C244 C 0.1166 0.67652 0.00506 0.0
O245 O 0.14058 0.68056 0.00816 0.0
O246 O 0.08849 0.74057 0.08575 0.0
C247 C -0.00217 0.63551 0.29447 0.0
O248 O 0.00261 0.60921 0.28631 0.0
O249 O 0.07804 0.6516 0.28502 0.0
Zn250 Zn 0.04397 0.64315 0.26193 0.0
O251 O 0.04456 0.60403 0.24011 0.0
C252 C 0.04474 0.69064 0.21969 0.0
O253 O 0.0516 0.70417 0.2511 0.0
O254 O 0.01418 0.65295 0.29037 0.0
C255 C 0.03033 0.59764 0.21198 0.0
O256 O 0.01309 0.61551 0.20234 0.0
C257 C 0.0929 0.63177 0.29163 0.0
O258 O 0.08367 0.6078 0.29596 0.0
O259 O 0.04041 0.66514 0.21859 0.0
C260 C 0.21423 0.80625 0.93982 0.0
O261 O 0.22249 0.79871 0.90762 0.0
O262 O 0.28469 0.84663 0.98702 0.0
Zn263 Zn 0.26138 0.8288 0.94719 0.0
O264 O 0.27687 0.79412 0.92352 0.0
C265 C 0.26461 0.87821 0.91027 0.0
O266 O 0.27209 0.88924 0.94288 0.0
O267 O 0.22811 0.82028 0.9634 0.0
C268 C 0.29428 0.79715 0.9029 0.0
O269 O 0.30306 0.82187 0.90202 0.0
C270 C 0.30112 0.83346 0.00505 0.0
O271 O 0.30149 0.80644 0.00045 0.0
O272 O 0.25723 0.85359 0.90673 0.0
C273 C 0.34139 -0.01712 0.73074 0.0
O274 O 0.3599 -0.01153 0.75495 0.0
O275 O 0.38104 0.93186 0.77879 0.0
Zn276 Zn 0.34901 0.92645 0.74833 0.0
O277 O 0.32443 0.92341 0.7858 0.0
C278 C 0.36872 0.87498 0.71539 0.0
O279 O 0.39002 0.88608 0.72679 0.0
O280 O 0.33658 0.95787 0.7206 0.0
C281 C 0.30336 0.91248 0.78076 0.0
O282 O 0.29583 0.90189 0.74792 0.0
C283 C 0.37971 0.94493 0.81014 0.0
O284 O 0.3595 0.95949 0.81703 0.0
O285 O 0.34901 0.88948 0.7188 0.0
C286 C 0.46706 0.91652 0.01203 0.0
O287 O 0.44527 0.92893 0.01378 0.0
O288 O 0.41167 0.87313 0.03939 0.0
Zn289 Zn 0.43492 0.87408 -0.001 0.0
O290 O 0.41949 0.89611 0.95966 0.0
C291 C 0.41545 0.82585 0.96596 0.0
O292 O 0.39594 0.84009 0.97683 0.0
O293 O 0.46836 0.89047 0.01158 0.0
C294 C 0.4316 0.8971 0.93149 0.0
O295 O 0.45296 0.88375 0.92964 0.0
C296 C 0.39255 0.88886 0.03933 0.0
O297 O 0.39331 0.91172 0.02334 0.0
O298 O 0.43678 0.83593 0.97378 0.0
C299 C 0.2628 0.56256 0.23584 0.0
O300 O 0.24118 0.55795 0.24786 0.0
O301 O 0.21874 0.57251 0.16343 0.0
Zn302 Zn 0.23273 0.60054 0.20231 0.0
O303 O 0.20707 0.6085 0.24008 0.0
C304 C 0.22516 0.65617 0.18388 0.0
O305 O 0.22227 0.6628 0.21871 0.0
O306 O 0.26521 0.5839 0.21945 0.0
C307 C 0.18615 0.61596 0.22591 0.0
O308 O 0.18327 0.61638 0.19035 0.0
C309 C 0.20559 0.55215 0.16803 0.0
O310 O 0.19987 0.54821 0.20112 0.0
O311 O 0.23592 0.63344 0.17436 0.0
C312 C 0.39902 0.67541 0.79698 0.0
O313 O 0.38329 0.67143 0.82142 0.0
O314 O 0.33124 0.70322 0.77357 0.0
Zn315 Zn 0.36688 0.72184 0.78255 0.0
O316 O 0.37257 0.73875 0.83397 0.0
C317 C 0.35954 0.75874 0.72195 0.0
O318 O 0.34103 0.74337 0.70818 0.0
O319 O 0.39449 0.69417 0.77568 0.0
C320 C 0.39446 0.74706 0.84214 0.0
O321 O 0.41078 0.74344 0.81725 0.0
C322 C 0.31259 0.70664 0.79352 0.0
O323 O 0.3308 0.70236 0.77233 0.0
O324 O 0.3719 0.75232 0.75057 0.0
C325 C 0.53416 0.4945 0.50485 0.0
O326 O 0.52611 0.52005 0.51084 0.0
O327 O 0.58255 0.54953 0.47928 0.0
Zn328 Zn 0.57824 0.52279 0.51686 0.0
O329 O 0.56193 0.54375 0.55857 0.0
C330 C 0.63027 0.52537 0.53595 0.0
O331 O 0.62934 0.54245 0.51048 0.0
O332 O 0.55719 0.48999 0.5019 0.0
C333 C 0.56065 0.53273 0.58819 0.0
O334 O 0.57053 0.50809 0.59114 0.0
C335 C 0.56741 0.5698 0.47714 0.0
O336 O 0.54649 0.56919 0.49303 0.0
O337 O 0.61114 0.5118 0.53993 0.0
C338 C 0.62262 0.75907 0.49036 0.0
O339 O 0.61329 0.73886 0.46798 0.0
O340 O 0.59745 0.69453 0.50718 0.0
Zn341 Zn 0.61303 0.72294 0.54458 0.0
O342 O 0.64463 0.7061 0.56521 0.0
C343 C 0.57183 0.71502 0.58669 0.0
O344 O 0.56208 0.70454 0.55501 0.0
O345 O 0.62221 0.75764 0.52448 0.0
C346 C 0.65373 0.71535 0.59654 0.0
O347 O 0.64301 0.73679 0.61376 0.0
C348 C 0.60999 0.67604 0.48948 0.0
O349 O 0.63425 0.67753 0.49182 0.0
O350 O 0.59176 0.72826 0.58761 0.0
C351 C 0.75769 0.55617 0.71499 0.0
O352 O 0.7366 0.54329 0.7121 0.0
O353 O 0.70694 0.57622 0.66626 0.0
Zn354 Zn 0.72248 0.59761 0.71096 0.0
O355 O 0.70059 0.59362 0.75227 0.0
C356 C 0.72305 0.64095 0.66529 0.0
O357 O 0.73303 0.62117 0.64395 0.0
O358 O 0.75726 0.58232 0.71822 0.0
C359 C 0.6936 0.61445 0.77273 0.0
O360 O 0.70397 0.63816 0.77046 0.0
C361 C 0.69099 0.55766 0.6662 0.0
O362 O 0.68375 0.55105 0.69745 0.0
O363 O 0.72001 0.63665 0.69809 0.0
C364 C 0.49872 0.62858 0.80154 0.0
O365 O 0.50213 0.60238 0.79094 0.0
O366 O 0.57989 0.6342 0.80515 0.0
Zn367 Zn 0.54731 0.63509 0.77538 0.0
O368 O 0.54332 0.59999 0.74245 0.0
C369 C 0.56422 0.65783 0.71462 0.0
O370 O 0.57629 0.63407 0.7128 0.0
O371 O 0.51654 0.64498 0.80131 0.0
C372 C 0.52854 0.6005 0.71423 0.0
O373 O 0.51371 0.62206 0.71133 0.0
C374 C 0.59203 0.61163 0.80697 0.0
O375 O 0.58056 0.58852 0.79681 0.0
O376 O 0.55052 0.66421 0.74086 0.0
C377 C 0.21485 0.33172 0.50291 0.0
O378 O 0.23557 0.33216 0.52366 0.0
O379 O 0.27456 0.36123 0.48823 0.0
Zn380 Zn 0.24734 0.34682 0.4516 0.0
O381 O 0.26028 0.3106 0.42931 0.0
C382 C 0.25411 0.39409 0.4128 0.0
O383 O 0.26335 0.40449 0.44484 0.0
O384 O 0.21492 0.34015 0.47149 0.0
C385 C 0.25193 0.29859 0.39908 0.0
O386 O 0.23268 0.30947 0.38157 0.0
C387 C 0.29005 0.34452 0.50232 0.0
O388 O 0.28534 0.31813 0.49802 0.0
O389 O 0.24397 0.37079 0.41034 0.0
C390 C 0.33544 0.47313 0.22529 0.0
O391 O 0.35522 0.47663 0.2477 0.0
O392 O 0.37562 0.41935 0.26545 0.0
Zn393 Zn 0.34109 0.41726 0.24159 0.0
O394 O 0.31903 0.41928 0.2831 0.0
C395 C 0.35568 0.36455 0.20745 0.0
O396 O 0.37714 0.37658 0.20861 0.0
O397 O 0.32922 0.4488 0.21357 0.0
C398 C 0.29582 0.41577 0.27974 0.0
O399 O 0.28498 0.40943 0.24718 0.0
C400 C 0.3787 0.43152 0.29737 0.0
O401 O 0.36071 0.44749 0.31009 0.0
O402 O 0.33672 0.37916 0.21585 0.0
C403 C 0.39178 0.16329 0.29985 0.0
O404 O 0.38457 0.16728 0.33326 0.0
O405 O 0.3315 0.21406 0.3094 0.0
Zn406 Zn 0.36658 0.21444 0.29422 0.0
O407 O 0.38641 0.22731 0.34024 0.0
C408 C 0.35112 0.25146 0.23871 0.0
O409 O 0.32989 0.23898 0.23809 0.0
O410 O 0.38273 0.17879 0.27623 0.0
C411 C 0.40955 0.23128 0.34286 0.0
O412 O 0.42219 0.22723 0.31359 0.0
C413 C 0.32642 0.23807 0.32394 0.0
O414 O 0.34296 0.25735 0.32518 0.0
O415 O 0.36932 0.24344 0.25901 0.0
C416 C -0.01631 0.9531 0.48953 0.0
C417 C -0.01221 0.92704 0.50238 0.0
C418 C 0.00328 0.96854 0.4805 0.0
C419 C 0.02795 0.95885 0.48442 0.0
H420 H 0.96511 0.96171 0.48603 0.0
H421 H -0.00107 -0.01134 0.47134 0.0
S422 S 0.04868 0.89134 0.51569 0.0
N423 N 0.01826 0.8916 0.51729 0.0
N424 N 0.05538 0.92098 0.50097 0.0
C425 C 0.03237 0.93255 0.4966 0.0
C426 C 0.01225 0.9166 0.50546 0.0
C427 C 0.92708 0.13127 0.81088 0.0
C428 C 0.91854 0.15112 0.78731 0.0
C429 C 0.95074 0.11891 0.8085 0.0
C430 C 0.96675 0.12658 0.7831 0.0
H431 H 0.91573 0.12589 0.83209 0.0
H432 H 0.95692 0.10423 0.82761 0.0
S433 S 0.95275 0.17511 0.71267 0.0
N434 N 0.92751 0.17582 0.73547 0.0
N435 N 0.97199 0.15309 0.73184 0.0
C436 C 0.9581 0.14531 0.75829 0.0
C437 C 0.93394 0.15743 0.76013 0.0
C438 C 0.67402 0.31191 0.98468 0.0
C439 C 0.69356 0.3016 0.96398 0.0
C440 C 0.65247 0.29668 0.98518 0.0
C441 C 0.64974 0.27095 0.96453 0.0
H442 H 0.67601 0.33093 0.00222 0.0
H443 H 0.63842 0.30444 0.0033 0.0
S444 S 0.69462 0.2377 0.90129 0.0
N445 N 0.70815 0.26613 0.91942 0.0
N446 N 0.66755 0.23775 0.91935 0.0
C447 C 0.66845 0.26179 0.94125 0.0
C448 C 0.69047 0.27704 0.94135 0.0
C449 C 0.8011 0.05091 0.24495 0.0
C450 C 0.77861 0.04477 0.2251 0.0
C451 C 0.82092 0.03169 0.24434 0.0
C452 C 0.81884 0.00593 0.22355 0.0
H453 H 0.80289 0.06991 0.26259 0.0
H454 H 0.83736 0.03646 0.26196 0.0
S455 S 0.7653 -0.01679 0.16056 0.0
N456 N 0.75646 0.01343 0.17996 0.0
N457 N 0.79369 0.97761 0.17802 0.0
C458 C 0.79715 0.00093 0.20088 0.0
C459 C 0.77699 0.02026 0.20195 0.0
C460 C 0.53218 0.94129 0.00513 0.0
C461 C 0.52833 0.96232 0.98148 0.0
C462 C 0.51236 0.92604 0.01451 0.0
C463 C 0.48807 0.9316 0.00098 0.0
H464 H 0.55042 0.93734 0.01778 0.0
H465 H 0.51594 0.91054 0.03346 0.0
S466 S 0.46867 0.98072 0.93305 0.0
N467 N 0.49876 -0.01495 0.94092 0.0
N468 N 0.4616 0.95681 0.9591 0.0
C469 C 0.48418 0.95131 0.97564 0.0
C470 C 0.50431 0.96652 0.96571 0.0
C471 C 0.93945 0.67948 0.28669 0.0
C472 C 0.92138 0.66328 0.29932 0.0
C473 C 0.96427 0.67078 0.28687 0.0
C474 C 0.972 0.64526 0.29901 0.0
H475 H 0.93449 0.69929 0.27697 0.0
H476 H 0.97735 0.68392 0.27638 0.0
S477 S 0.93197 0.59521 0.33513 0.0
N478 N 0.91289 0.62082 0.32512 0.0
N479 N 0.95962 0.60395 0.32434 0.0
C480 C 0.95415 0.62883 0.31181 0.0
C481 C 0.92884 0.63799 0.3123 0.0
C482 C 0.20056 0.29132 0.53086 0.0
C483 C 0.19473 0.31375 0.51037 0.0
C484 C 0.18391 0.27011 0.5314 0.0
C485 C 0.16062 0.27087 0.51225 0.0
H486 H 0.21871 0.28915 0.54471 0.0
H487 H 0.18955 0.2526 0.54624 0.0
S488 S 0.13492 0.32667 0.4588 0.0
N489 N 0.16313 0.33666 0.47312 0.0
N490 N 0.13138 0.29686 0.4754 0.0
C491 C 0.15369 0.29404 0.49401 0.0
C492 C 0.1709 0.31549 0.49275 0.0
C493 C 0.77998 0.51308 0.69429 0.0
C494 C 0.78099 0.5399 0.71188 0.0
C495 C 0.8009 0.49572 0.69359 0.0
C496 C 0.8237 0.50426 0.71099 0.0
H497 H 0.76269 0.50506 0.68162 0.0
H498 H 0.79871 0.47491 0.6809 0.0
S499 S 0.83691 0.57403 0.75651 0.0
N500 N 0.80713 0.57543 0.74353 0.0
N501 N 0.84667 0.54261 0.74283 0.0
C502 C 0.82543 0.53177 0.72646 0.0
C503 C 0.80401 0.54962 0.72681 0.0
C504 C 0.45462 0.14712 0.26392 0.0
C505 C 0.4655 0.12892 0.28805 0.0
C506 C 0.4301 0.15641 0.26624 0.0
C507 C 0.41549 0.14832 0.29329 0.0
H508 H 0.46525 0.15461 0.24322 0.0
H509 H 0.42306 0.17119 0.24777 0.0
S510 S 0.4345 0.09899 0.3611 0.0
N511 N 0.45929 0.10131 0.33792 0.0
N512 N 0.41314 0.11945 0.34312 0.0
C513 C 0.42576 0.12916 0.31663 0.0
C514 C 0.45076 0.11927 0.31379 0.0
C515 C 0.66549 0.78918 0.42877 0.0
C516 C 0.67927 0.80779 0.4531 0.0
C517 C 0.64576 0.77505 0.44034 0.0
C518 C 0.63902 0.77903 0.47667 0.0
H519 H 0.67086 0.78416 0.40113 0.0
H520 H 0.63678 0.75968 0.42114 0.0
S521 S 0.66577 0.83006 0.54882 0.0
N522 N 0.68238 0.83271 0.51347 0.0
N523 N 0.64515 0.80633 0.53525 0.0
C524 C 0.65112 0.79957 0.50028 0.0
C525 C 0.67131 0.81387 0.48851 0.0
C526 C 0.27795 0.01343 0.70949 0.0
C527 C 0.28 0.04092 0.72432 0.0
C528 C 0.29844 -0.00453 0.70906 0.0
C529 C 0.32185 0.00407 0.72413 0.0
H530 H 0.26021 0.00547 0.69854 0.0
H531 H 0.29546 0.97428 0.69842 0.0
S532 S 0.33762 0.07501 0.76257 0.0
N533 N 0.30761 0.07683 0.7512 0.0
N534 N 0.34635 0.04279 0.75128 0.0
C535 C 0.3245 0.03199 0.73722 0.0
C536 C 0.30352 0.05048 0.73714 0.0
C537 C -0.01681 0.46324 0.00137 0.0
C538 C -0.01306 0.43525 0.00667 0.0
C539 C 0.00301 0.48008 0.99729 0.0
C540 C 0.02756 0.46982 0.9987 0.0
H541 H 0.96472 0.47236 -9e-05 0.0
H542 H -0.00109 0.50153 0.99363 0.0
S543 S 0.04759 0.39782 0.01162 0.0
N544 N 0.01715 0.39776 0.01263 0.0
N545 N 0.0546 0.42965 0.00538 0.0
C546 C 0.0317 0.44179 0.00377 0.0
C547 C 0.01137 0.4245 0.00775 0.0
C548 C 0.47615 0.45747 0.52109 0.0
C549 C 0.48296 0.42947 0.51522 0.0
C550 C 0.49278 0.4781 0.51709 0.0
C551 C 0.51707 0.47173 0.50729 0.0
H552 H 0.45756 0.46367 0.52806 0.0
H553 H 0.48637 0.49929 0.52176 0.0
S554 S 0.5448 0.40158 0.49065 0.0
N555 N 0.51608 0.39633 0.50033 0.0
N556 N 0.54754 0.43531 0.49313 0.0
C557 C 0.52447 0.44382 0.50226 0.0
C558 C 0.50741 0.42267 0.50626 0.0
C559 C 0.15916 0.76034 0.94055 0.0
C560 C 0.14724 0.77143 0.97156 0.0
C561 C 0.18024 0.77243 0.92968 0.0
C562 C 0.19029 0.79605 0.94943 0.0
H563 H 0.153 0.74134 0.92549 0.0
H564 H 0.18935 0.76238 0.90659 0.0
S565 S 0.16367 0.83595 0.02873 0.0
N566 N 0.14522 0.80953 0.01903 0.0
N567 N 0.18503 0.8321 0.99867 0.0
C568 C 0.17764 0.80846 0.97896 0.0
C569 C 0.15604 0.79623 0.98994 0.0
C570 C 0.3243 0.52342 0.23253 0.0
C571 C 0.31697 0.49603 0.22316 0.0
C572 C 0.30673 0.54506 0.23633 0.0
C573 C 0.28127 0.5399 0.23192 0.0
H574 H 0.34373 0.52812 0.23765 0.0
H575 H 0.31308 0.56583 0.24367 0.0
S576 S 0.25223 0.47246 0.20454 0.0
N577 N 0.28226 0.46547 0.20712 0.0
N578 N 0.24949 0.50595 0.21521 0.0
C579 C 0.27368 0.51283 0.22156 0.0
C580 C 0.29147 0.49094 0.21687 0.0
C581 C 0.46838 0.66707 0.79383 0.0
C582 C 0.47329 0.64024 0.80379 0.0
C583 C 0.44425 0.67787 0.79113 0.0
C584 C 0.42402 0.66256 0.79902 0.0
H585 H 0.4832 0.67965 0.78686 0.0
H586 H 0.4415 0.69857 0.78308 0.0
S587 S 0.4268 0.59177 0.82775 0.0
N588 N 0.45592 0.59868 0.82209 0.0
N589 N 0.41038 0.61955 0.81826 0.0
C590 C 0.4286 0.636 0.80997 0.0
C591 C 0.45326 0.62469 0.81198 0.0
C592 C 0.07606 0.13472 0.47815 0.0
C593 C 0.101 0.13941 0.47262 0.0
C594 C 0.06715 0.10797 0.47665 0.0
C595 C 0.0828 0.08481 0.46948 0.0
H596 H 0.06371 0.15166 0.4865 0.0
H597 H 0.04833 0.10552 0.48386 0.0
S598 S 0.14764 0.08618 0.44287 0.0
N599 N 0.13976 0.11888 0.4522 0.0
N600 N 0.12296 0.06857 0.44919 0.0
C601 C 0.10682 0.08931 0.4592 0.0
C602 C 0.11593 0.11663 0.46083 0.0
C603 C 0.84606 0.33267 0.70957 0.0
C604 C 0.8697 0.34436 0.71354 0.0
C605 C 0.84276 0.30515 0.7157 0.0
C606 C 0.86297 0.28816 0.72606 0.0
H607 H 0.82971 0.34525 0.70384 0.0
H608 H 0.82404 0.2977 0.71435 0.0
S609 S 0.92922 0.30713 0.73302 0.0
N610 N 0.91404 0.33554 0.72312 0.0
N611 N 0.90786 0.2839 0.73465 0.0
C612 C 0.88692 0.29884 0.7268 0.0
C613 C 0.89028 0.32689 0.72052 0.0
C614 C 0.60557 0.09455 0.96271 0.0
C615 C 0.5811 0.0892 0.97009 0.0
C616 C 0.61354 0.12158 0.96221 0.0
C617 C 0.59737 0.14435 0.96908 0.0
H618 H 0.61919 0.07794 0.95978 0.0
H619 H 0.63297 0.12456 0.95884 0.0
S620 S 0.53007 0.14117 0.98158 0.0
N621 N 0.53973 0.10871 0.97821 0.0
N622 N 0.55472 0.15944 0.9773 0.0
C623 C 0.57225 0.13915 0.97263 0.0
C624 C 0.56413 0.1116 0.97314 0.0
C625 C 0.82902 0.80487 0.21839 0.0
C626 C 0.84914 0.7872 0.22674 0.0
C627 C 0.83265 0.83254 0.21323 0.0
C628 C 0.85657 0.84358 0.21605 0.0
H629 H 0.8102 0.79781 0.21804 0.0
H630 H 0.81645 0.84568 0.20906 0.0
S631 S 0.9157 0.80434 0.23033 0.0
N632 N 0.89399 0.7816 0.23243 0.0
N633 N 0.90088 0.83341 0.22249 0.0
C634 C 0.87695 0.82542 0.22106 0.0
C635 C 0.87322 0.79731 0.22653 0.0
C636 C 0.1555 0.09229 0.7866 0.0
C637 C 0.16573 0.11812 0.78365 0.0
C638 C 0.13047 0.08988 0.79296 0.0
C639 C 0.11456 0.11319 0.7964 0.0
H640 H 0.16649 0.07357 0.78174 0.0
H641 H 0.12325 0.06939 0.79259 0.0
S642 S 0.13329 0.18597 0.79868 0.0
N643 N 0.15886 0.16783 0.79067 0.0
N644 N 0.11182 0.16325 0.8024 0.0
C645 C 0.12512 0.13931 0.79732 0.0
C646 C 0.15069 0.14178 0.791 0.0
C647 C 0.83834 0.33873 0.02604 0.0
C648 C 0.81753 0.35656 0.02305 0.0
C649 C 0.86244 0.34872 0.02787 0.0
C650 C 0.8667 0.37695 0.02676 0.0
H651 H 0.83613 0.31664 0.02401 0.0
H652 H 0.87771 0.33389 0.02725 0.0
S653 S 0.81875 0.43287 0.02922 0.0
N654 N 0.80291 0.40428 0.02679 0.0
N655 N 0.84819 0.42305 0.02988 0.0
C656 C 0.84617 0.39527 0.02834 0.0
C657 C 0.82159 0.38508 0.02661 0.0
C658 C 0.65238 0.09427 0.27923 0.0
C659 C 0.66306 0.12015 0.27832 0.0
C660 C 0.62739 0.09198 0.28594 0.0
C661 C 0.61194 0.11545 0.29197 0.0
H662 H 0.66296 0.07552 0.27253 0.0
H663 H 0.61982 0.07155 0.28395 0.0
S664 S 0.63205 0.18804 0.30011 0.0
N665 N 0.65714 0.16978 0.28974 0.0
N666 N 0.61026 0.16545 0.30256 0.0
C667 C 0.62301 0.14143 0.29497 0.0
C668 C 0.64852 0.14378 0.28804 0.0
C669 C 0.84926 0.8678 0.54614 0.0
C670 C 0.86678 0.86834 0.51984 0.0
C671 C 0.82725 0.85309 0.53806 0.0
C672 C 0.82262 0.83816 0.50383 0.0
H673 H 0.85246 0.87901 0.57275 0.0
H674 H 0.81379 0.85344 0.55852 0.0
S675 S 0.86178 0.83543 0.42491 0.0
N676 N 0.87734 0.85437 0.45777 0.0
N677 N 0.83652 0.82637 0.44296 0.0
C678 C 0.84 0.83881 0.47744 0.0
C679 C 0.862 0.85401 0.48538 0.0
C680 C 0.54944 0.03044 0.17868 0.0
C681 C 0.53992 0.05751 0.17854 0.0
C682 C 0.55696 0.01586 0.14651 0.0
C683 C 0.55509 0.02786 0.11315 0.0
H684 H 0.55228 0.02096 0.20406 0.0
H685 H 0.56524 -0.00447 0.14818 0.0
S686 S 0.52761 0.0967 0.09753 0.0
N687 N 0.52635 0.09459 0.14173 0.0
N688 N 0.54025 0.06728 0.0814 0.0
C689 C 0.54402 0.05425 0.11235 0.0
C690 C 0.53649 0.06905 0.14501 0.0
C691 C 0.8129 0.74776 0.3267 0.0
C692 C 0.79978 0.7232 0.32518 0.0
C693 C 0.80666 0.77076 0.35036 0.0
C694 C 0.78686 0.7702 0.37315 0.0
H695 H 0.82761 0.74962 0.30894 0.0
H696 H 0.81726 0.78924 0.35027 0.0
S697 S 0.74656 0.71065 0.37893 0.0
N698 N 0.76619 0.69958 0.34815 0.0
N699 N 0.75423 0.74266 0.39256 0.0
C700 C 0.77371 0.74563 0.37199 0.0
C701 C 0.78016 0.72226 0.34791 0.0
C702 C 0.20623 0.1572 0.60643 0.0
C703 C 0.21198 0.16146 0.6443 0.0
C704 C 0.18816 0.17339 0.58911 0.0
C705 C 0.17542 0.19476 0.60884 0.0
H706 H 0.21454 0.14013 0.59026 0.0
H707 H 0.18355 0.16847 0.56022 0.0
S708 S 0.18612 0.21706 0.70752 0.0
N709 N 0.20539 0.19057 0.70029 0.0
N710 N 0.17159 0.22125 0.66754 0.0
C711 C 0.18237 0.20073 0.64611 0.0
C712 C 0.20063 0.18403 0.66389 0.0
C713 C 0.89613 0.44977 0.86504 0.0
C714 C 0.90219 0.44309 0.82869 0.0
C715 C 0.90829 0.43682 0.89366 0.0
C716 C 0.92723 0.41705 0.88714 0.0
H717 H 0.88074 0.46367 0.87136 0.0
H718 H 0.90212 0.44157 0.92092 0.0
S719 S 0.95301 0.39562 0.79793 0.0
N720 N 0.93057 0.41795 0.78845 0.0
N721 N 0.95353 0.39375 0.84242 0.0
C722 C 0.93502 0.41199 0.8515 0.0
C723 C 0.92249 0.42502 0.82223 0.0
C724 C 0.19666 0.54407 0.10064 0.0
C725 C 0.19379 0.53601 0.13572 0.0
C726 C 0.18185 0.53329 0.07037 0.0
C727 C 0.16366 0.51393 0.07402 0.0
H728 H 0.20938 0.5601 0.09673 0.0
H729 H 0.1835 0.54178 0.0446 0.0
S730 S 0.1535 0.48049 0.15787 0.0
N731 N 0.17482 0.50354 0.17093 0.0
N732 N 0.14712 0.48301 0.11391 0.0
C733 C 0.16273 0.50322 0.10801 0.0
C734 C 0.17774 0.51434 0.13893 0.0
C735 C 0.54708 0.20054 0.12162 0.0
C736 C 0.56964 0.21208 0.11485 0.0
C737 C 0.54418 0.18887 0.15428 0.0
C738 C 0.56389 0.18791 0.18108 0.0
H739 H 0.53195 0.19925 0.10078 0.0
H740 H 0.52692 0.17893 0.15741 0.0
S741 S 0.62568 0.21834 0.17898 0.0
N742 N 0.61118 0.22446 0.13966 0.0
N743 N 0.60575 0.20204 0.20059 0.0
C744 C 0.58593 0.20105 0.17583 0.0
C745 C 0.58879 0.21332 0.14284 0.0
C746 C 0.78328 0.90203 0.3356 0.0
C747 C 0.80849 0.90753 0.34347 0.0
C748 C 0.76843 0.89553 0.36311 0.0
C749 C 0.77819 0.89523 0.39941 0.0
H750 H 0.77539 0.90111 0.30773 0.0
H751 H 0.74948 0.8896 0.3557 0.0
S752 S 0.8425 0.91188 0.43431 0.0
N753 N 0.84217 0.9145 0.39001 0.0
N754 N 0.81417 0.90338 0.4421 0.0
C755 C 0.80297 0.90272 0.40791 0.0
C756 C 0.81819 0.90855 0.37976 0.0
C757 C 0.17312 0.04245 0.56941 0.0
C758 C 0.15652 0.02075 0.56926 0.0
C759 C 0.18595 0.05306 0.60168 0.0
C760 C 0.18269 0.04242 0.63512 0.0
H761 H 0.1752 0.05247 0.54487 0.0
H762 H 0.19752 0.07067 0.60061 0.0
S763 S 0.14527 -0.01796 0.64829 0.0
N764 N 0.14045 -0.01371 0.60451 0.0
N765 N 0.16449 0.00639 0.66519 0.0
C766 C 0.16783 0.01923 0.63485 0.0
C767 C 0.15483 0.0083 0.6019 0.0
C768 C 0.44863 0.27942 0.40766 0.0
C769 C 0.43637 0.28 0.44023 0.0
C770 C 0.44112 0.26191 0.37682 0.0
C771 C 0.42096 0.24452 0.3774 0.0
H772 H 0.46312 0.29385 0.40515 0.0
H773 H 0.45003 0.26351 0.35172 0.0
S774 S 0.38607 0.23381 0.45783 0.0
N775 N 0.40572 0.25825 0.47273 0.0
N776 N 0.39149 0.22558 0.41462 0.0
C777 C 0.41017 0.24288 0.41071 0.0
C778 C 0.41796 0.26051 0.44223 0.0
C779 C 0.06025 0.72699 0.1842 0.0
C780 C 0.04587 0.70356 0.18514 0.0
C781 C 0.0656 0.73641 0.15097 0.0
C782 C 0.05666 0.72288 0.11739 0.0
H783 H 0.06874 0.73715 0.20916 0.0
H784 H 0.07803 0.75348 0.15164 0.0
S785 S 0.01433 0.66358 0.10539 0.0
N786 N 0.01994 0.66932 0.14996 0.0
N787 N 0.02982 0.68705 0.08753 0.0
C788 C 0.04033 0.70099 0.11813 0.0
C789 C 0.03504 0.69128 0.15199 0.0
C790 C 0.94064 0.2737 0.87145 0.0
C791 C 0.92301 0.25337 0.87301 0.0
C792 C 0.94687 0.29207 0.90199 0.0
C793 C 0.9358 0.29064 0.93522 0.0
H794 H 0.94839 0.27676 0.84587 0.0
H795 H 0.95932 0.30852 0.89878 0.0
S796 S 0.8926 0.23712 0.95522 0.0
N797 N 0.89755 0.22995 0.91166 0.0
N798 N 0.90936 0.26431 0.96924 0.0
C799 C 0.92012 0.26855 0.93809 0.0
C800 C 0.91365 0.24998 0.90688 0.0
C801 C 0.15905 0.6083 0.27623 0.0
C802 C 0.16497 0.62394 0.24811 0.0
C803 C 0.13628 0.61237 0.29235 0.0
C804 C 0.11894 0.63259 0.28143 0.0
H805 H 0.1713 0.59163 0.28407 0.0
H806 H 0.13169 0.59865 0.31218 0.0
S807 S 0.12765 0.68153 0.21228 0.0
N808 N 0.15309 0.66209 0.21247 0.0
N809 N 0.11075 0.67035 0.24317 0.0
C810 C 0.12573 0.64988 0.25542 0.0
C811 C 0.14862 0.64533 0.23859 0.0
C812 C 0.3241 0.8771 0.02181 0.0
C813 C 0.32254 0.84855 0.02396 0.0
C814 C 0.34637 0.89082 0.03091 0.0
C815 C 0.36801 0.87656 0.0425 0.0
H816 H 0.30854 0.8887 0.01056 0.0
H817 H 0.34699 0.9123 0.026 0.0
S818 S 0.37202 0.80326 0.0621 0.0
N819 N 0.34327 0.80765 0.04538 0.0
N820 N 0.38506 0.83347 0.06281 0.0
C821 C 0.36584 0.84882 0.04929 0.0
C822 C 0.34315 0.83478 0.03982 0.0
C823 C 0.1151 0.59863 0.99278 0.0
C824 C 0.08969 0.59354 0.99346 0.0
C825 C 0.12362 0.62558 0.99364 0.0
C826 C 0.10705 0.64839 0.99514 0.0
H827 H 0.12866 0.58196 0.99429 0.0
H828 H 0.14344 0.62855 0.99559 0.0
S829 S 0.03839 0.64548 0.98964 0.0
N830 N 0.04786 0.61307 0.98999 0.0
N831 N 0.0638 0.6636 0.99135 0.0
C832 C 0.08149 0.64329 0.99217 0.0
C833 C 0.07283 0.61589 0.9914 0.0
C834 C 0.38782 0.82789 0.71697 0.0
C835 C 0.36716 0.8446 0.70774 0.0
C836 C 0.38554 0.79955 0.71867 0.0
C837 C 0.36264 0.78668 0.71064 0.0
H838 H 0.40557 0.83693 0.72544 0.0
H839 H 0.4016 0.78788 0.72831 0.0
S840 S 0.30378 0.82029 0.67907 0.0
N841 N 0.32368 0.84556 0.68598 0.0
N842 N 0.31954 0.79219 0.68884 0.0
C843 C 0.34237 0.80261 0.69799 0.0
C844 C 0.3446 0.83161 0.69665 0.0
C845 C 0.42381 0.7768 0.8822 0.0
C846 C 0.40092 0.76347 0.87716 0.0
C847 C 0.42921 0.79561 0.91256 0.0
C848 C 0.41189 0.80181 0.93893 0.0
H849 H 0.43731 0.77372 0.86175 0.0
H850 H 0.44646 0.80653 0.91415 0.0
S851 S 0.35143 0.76864 0.94251 0.0
N852 N 0.36232 0.7549 0.90398 0.0
N853 N 0.3725 0.79045 0.96099 0.0
C854 C 0.38978 0.78709 0.93578 0.0
C855 C 0.38427 0.76786 0.9049 0.0
C856 C 0.06916 0.2154 0.64673 0.0
C857 C 0.0582 0.20327 0.61348 0.0
C858 C 0.06369 0.20646 0.6802 0.0
C859 C 0.04718 0.18496 0.68163 0.0
H860 H 0.08315 0.23084 0.64689 0.0
H861 H 0.07369 0.21525 0.70481 0.0
S862 S 0.00981 0.15011 0.60341 0.0
N863 N 0.02718 0.17148 0.58483 0.0
N864 N 0.0171 0.15463 0.6477 0.0
C865 C 0.03443 0.1744 0.64901 0.0
C866 C 0.03985 0.18361 0.61494 0.0
C867 C 0.29547 0.74694 0.88105 0.0
C868 C 0.30191 0.77408 0.87654 0.0
C869 C 0.30002 0.72522 0.85442 0.0
C870 C 0.31132 0.72971 0.82244 0.0
H871 H 0.28634 0.74248 0.90498 0.0
H872 H 0.29419 0.70477 0.8586 0.0
S873 S 0.33029 0.79712 0.79617 0.0
N874 N 0.31985 0.80426 0.83703 0.0
N875 N 0.3274 0.76358 0.78671 0.0
C876 C 0.31792 0.75668 0.81757 0.0
C877 C 0.31355 0.7788 0.84479 0.0
C878 C 0.90503 0.93028 0.40152 0.0
C879 C 0.9213 0.90788 0.39372 0.0
C880 C 0.89283 0.94392 0.37355 0.0
C881 C 0.89604 0.93537 0.3366 0.0
H882 H 0.90107 0.93683 0.42946 0.0
H883 H 0.87961 0.9602 0.38109 0.0
S884 S 0.93912 0.87986 0.30187 0.0
N885 N 0.942 0.87945 0.34665 0.0
N886 N 0.91892 0.90491 0.29396 0.0
C887 C 0.91367 0.91424 0.32854 0.0
C888 C 0.92627 0.90048 0.35713 0.0
C889 C 0.54851 0.55772 0.6858 0.0
C890 C 0.53278 0.58087 0.68194 0.0
C891 C 0.55662 0.54158 0.65528 0.0
C892 C 0.54957 0.54818 0.61973 0.0
H893 H 0.5554 0.55257 0.71263 0.0
H894 H 0.56939 0.52454 0.65968 0.0
S895 S 0.50639 0.60466 0.59439 0.0
N896 N 0.50853 0.60791 0.63942 0.0
N897 N 0.52423 0.57785 0.58217 0.0
C898 C 0.53283 0.57035 0.61536 0.0
C899 C 0.52426 0.58657 0.64643 0.0
C900 C 0.77621 0.26514 0.84667 0.0
C901 C 0.778 0.2731 0.88439 0.0
C902 C 0.79224 0.24492 0.83113 0.0
C903 C 0.81049 0.2317 0.85277 0.0
H904 H 0.7633 0.27562 0.82867 0.0
H905 H 0.79112 0.24067 0.80171 0.0
S906 S 0.81983 0.24193 0.9539 0.0
N907 N 0.79729 0.26387 0.94358 0.0
N908 N 0.8272 0.22575 0.91465 0.0
C909 C 0.81099 0.23785 0.89094 0.0
C910 C 0.79484 0.25863 0.90667 0.0
C911 C 0.06853 0.5389 0.16853 0.0
C912 C 0.05862 0.53663 0.13222 0.0
C913 C 0.0581 0.55734 0.19499 0.0
C914 C 0.03729 0.57403 0.1861 0.0
H915 H 0.08533 0.52763 0.17613 0.0
H916 H 0.06726 0.55954 0.22211 0.0
S917 S 0.00178 0.57176 0.09611 0.0
N918 N 0.02501 0.54959 0.08967 0.0
N919 N 0.0052 0.5841 0.13935 0.0
C920 C 0.02596 0.57008 0.15055 0.0
C921 C 0.03672 0.55146 0.12359 0.0
C922 C 0.60215 0.59975 0.46506 0.0
C923 C 0.57663 0.59664 0.46843 0.0
C924 C 0.61262 0.62587 0.46843 0.0
C925 C 0.59797 0.64987 0.47512 0.0
H926 H 0.61451 0.58193 0.46275 0.0
H927 H 0.63258 0.62702 0.46861 0.0
S928 S 0.52938 0.65319 0.47552 0.0
N929 N 0.53637 0.61996 0.47102 0.0
N930 N 0.55603 0.66902 0.4771 0.0
C931 C 0.57209 0.64716 0.47369 0.0
C932 C 0.56142 0.62054 0.47035 0.0
C933 C 0.65758 0.58825 0.78927 0.0
C934 C 0.67014 0.61327 0.79127 0.0
C935 C 0.63282 0.58754 0.79795 0.0
C936 C 0.61955 0.61183 0.80882 0.0
H937 H 0.66635 0.56922 0.77864 0.0
H938 H 0.6236 0.56799 0.79347 0.0
S939 S 0.64557 0.68177 0.82666 0.0
N940 N 0.6687 0.66228 0.8112 0.0
N941 N 0.62217 0.66091 0.82736 0.0
C942 C 0.63269 0.63652 0.81487 0.0
C943 C 0.65798 0.63724 0.80612 0.0
C944 C 0.1979 0.69512 0.16457 0.0
C945 C 0.2076 0.66828 0.15686 0.0
C946 C 0.17783 0.70518 0.14317 0.0
C947 C 0.16642 0.68839 0.11415 0.0
H948 H 0.20534 0.7081 0.18801 0.0
H949 H 0.17048 0.72569 0.15041 0.0
S950 S 0.18522 0.61751 0.08079 0.0
N951 N 0.20501 0.62591 0.11587 0.0
N952 N 0.16666 0.64464 0.07721 0.0
C953 C 0.17628 0.662 0.10532 0.0
C954 C 0.19712 0.65201 0.12622 0.0
C955 C 0.55819 0.67549 0.61732 0.0
C956 C 0.56567 0.70304 0.62013 0.0
C957 C 0.55743 0.66126 0.64831 0.0
C958 C 0.5633 0.67427 0.68326 0.0
H959 H 0.55437 0.66422 0.59086 0.0
H960 H 0.55272 0.63971 0.64483 0.0
S961 S 0.58185 0.74659 0.70596 0.0
N962 N 0.57799 0.74314 0.66094 0.0
N963 N 0.57527 0.71649 0.71953 0.0
C964 C 0.56936 0.70216 0.68684 0.0
C965 C 0.57085 0.71654 0.65514 0.0
C966 C 0.79167 0.40946 0.82717 0.0
C967 C 0.81756 0.40952 0.83414 0.0
C968 C 0.776 0.40549 0.85488 0.0
C969 C 0.78573 0.40256 0.89061 0.0
H970 H 0.78355 0.41127 0.79981 0.0
H971 H 0.75625 0.4041 0.84821 0.0
S972 S 0.85207 0.40281 0.92333 0.0
N973 N 0.85212 0.4071 0.87949 0.0
N974 N 0.82266 0.40076 0.9318 0.0
C975 C 0.81148 0.40383 0.89824 0.0
C976 C 0.82742 0.40703 0.8699 0.0
C977 C 0.93058 0.78449 0.4168 0.0
C978 C 0.91625 0.78891 0.44724 0.0
C979 C 0.9221 0.76818 0.3855 0.0
C980 C 0.89884 0.75574 0.38319 0.0
H981 H 0.94804 0.79474 0.41642 0.0
H982 H 0.93356 0.76633 0.36241 0.0
S983 S 0.85542 0.75794 0.45708 0.0
N984 N 0.87873 0.77708 0.47466 0.0
N985 N 0.8626 0.74673 0.4154 0.0
C986 C 0.885 0.75841 0.41429 0.0
C987 C 0.8938 0.77484 0.44648 0.0
C988 C 0.3464 0.38922 0.51289 0.0
C989 C 0.366 0.37001 0.51742 0.0
C990 C 0.32167 0.38131 0.51135 0.0
C991 C 0.31549 0.35383 0.5142 0.0
H992 H 0.35011 0.41023 0.50815 0.0
H993 H 0.3074 0.39655 0.50541 0.0
S994 S 0.35978 0.2968 0.5342 0.0
N995 N 0.37748 0.32326 0.53071 0.0
N996 N 0.33101 0.30835 0.52784 0.0
C997 C 0.33484 0.33507 0.5227 0.0
C998 C 0.36009 0.34317 0.52432 0.0
C999 C 0.33175 0.32164 0.20971 0.0
C1000 C 0.35458 0.33406 0.20651 0.0
C1001 C 0.33066 0.29416 0.21748 0.0
C1002 C 0.35236 0.27806 0.22266 0.0
H1003 H 0.31462 0.33362 0.20824 0.0
H1004 H 0.31275 0.28612 0.22179 0.0
S1005 S 0.41638 0.29888 0.21032 0.0
N1006 N 0.39915 0.32663 0.20372 0.0
N1007 N 0.397 0.27518 0.21892 0.0
C1008 C 0.3751 0.28941 0.21648 0.0
C1009 C 0.37622 0.31733 0.20817 0.0
C1010 C 0.28328 0.2562 0.32346 0.0
C1011 C 0.30368 0.24463 0.34254 0.0
C1012 C 0.26508 0.27165 0.34221 0.0
C1013 C 0.26708 0.27641 0.38058 0.0
H1014 H 0.28244 0.25518 0.29393 0.0
H1015 H 0.25056 0.28177 0.32638 0.0
S1016 S 0.31555 0.24707 0.44274 0.0
N1017 N 0.32367 0.23627 0.40136 0.0
N1018 N 0.28955 0.2651 0.43688 0.0
C1019 C 0.28635 0.26282 0.39986 0.0
C1020 C 0.30471 0.24704 0.38072 0.0
C1021 C 0.05151 0.04041 0.67795 0.0
C1022 C 0.03214 0.05964 0.6717 0.0
C1023 C 0.06135 0.0239 0.64902 0.0
C1024 C 0.05234 0.02623 0.61279 0.0
H1025 H 0.06 0.03902 0.70518 0.0
H1026 H 0.07706 0.01042 0.65495 0.0
S1027 S -0.00076 0.06983 0.58207 0.0
N1028 N 0.00222 0.07728 0.62672 0.0
N1029 N 0.02107 0.04649 0.57246 0.0
C1030 C 0.03185 0.0438 0.60635 0.0
C1031 C 0.02161 0.0604 0.6358 0.0
C1032 C 0.68213 0.20628 0.13017 0.0
C1033 C 0.67315 0.19694 0.09445 0.0
C1034 C 0.69273 0.18784 0.15413 0.0
C1035 C 0.69466 0.15965 0.14291 0.0
H1036 H 0.67944 0.22758 0.14059 0.0
H1037 H 0.69778 0.19535 0.18217 0.0
S1038 S 0.67848 0.12539 0.05076 0.0
N1039 N 0.67057 0.15805 0.04777 0.0
N1040 N 0.68996 0.12363 0.0931 0.0
C1041 C 0.68782 0.15045 0.10658 0.0
C1042 C 0.67727 0.16908 0.08216 0.0
C1043 C 0.39978 0.43376 0.35964 0.0
C1044 C 0.39852 0.42195 0.32326 0.0
C1045 C 0.41372 0.42126 0.38706 0.0
C1046 C 0.42721 0.39665 0.37915 0.0
H1047 H 0.38881 0.452 0.36752 0.0
H1048 H 0.41315 0.43042 0.41494 0.0
S1049 S 0.43274 0.35904 0.28776 0.0
N1050 N 0.41404 0.3855 0.28027 0.0
N1051 N 0.44039 0.36216 0.33202 0.0
C1052 C 0.42777 0.38573 0.34257 0.0
C1053 C 0.41341 0.39838 0.31454 0.0
C1054 C 0.64555 0.51821 0.59978 0.0
C1055 C 0.64965 0.52842 0.56631 0.0
C1056 C 0.65989 0.52667 0.63164 0.0
C1057 C 0.679 0.54552 0.63127 0.0
H1058 H 0.63012 0.50495 0.60204 0.0
H1059 H 0.65511 0.51934 0.657 0.0
S1060 S 0.70053 0.57397 0.54929 0.0
N1061 N 0.67657 0.55513 0.5337 0.0
N1062 N 0.70367 0.57094 0.59353 0.0
C1063 C 0.68482 0.55385 0.59738 0.0
C1064 C 0.67013 0.54528 0.56491 0.0
C1065 C 0.26346 0.87796 0.84239 0.0
C1066 C 0.27017 0.89126 0.87714 0.0
C1067 C 0.27294 0.88616 0.81084 0.0
C1068 C 0.28959 0.90789 0.81286 0.0
H1069 H 0.25182 0.86009 0.83962 0.0
H1070 H 0.26834 0.87427 0.78507 0.0
S1071 S 0.30965 0.95265 0.89613 0.0
N1072 N 0.29192 0.92969 0.91088 0.0
N1073 N 0.30973 0.94502 0.8516 0.0
C1074 C 0.29481 0.92285 0.84694 0.0
C1075 C 0.28507 0.91459 0.87907 0.0
C1076 C 0.69032 0.05019 0.09915 0.0
C1077 C 0.6855 0.04053 0.13266 0.0
C1078 C 0.67689 0.04088 0.06679 0.0
C1079 C 0.65825 0.02135 0.06658 0.0
H1080 H 0.70351 0.06632 0.0981 0.0
H1081 H 0.68015 0.05033 0.04221 0.0
S1082 S 0.64234 -0.01487 0.14575 0.0
N1083 N 0.66365 0.00718 0.16272 0.0
N1084 N 0.63854 -0.01064 0.10186 0.0
C1085 C 0.65512 0.00937 0.09922 0.0
C1086 C 0.66868 0.01907 0.13228 0.0
C1087 C 0.40131 0.93087 0.90614 0.0
C1088 C 0.42127 0.91221 0.9008 0.0
C1089 C 0.38927 0.94318 0.8769 0.0
C1090 C 0.39651 0.93706 0.84103 0.0
H1091 H 0.39438 0.93541 0.93297 0.0
H1092 H 0.37328 0.95639 0.88237 0.0
S1093 S 0.44989 0.89243 0.81315 0.0
N1094 N 0.44951 0.89047 0.85752 0.0
N1095 N 0.42667 0.91344 0.80244 0.0
C1096 C 0.41754 0.91993 0.83567 0.0
C1097 C 0.42995 0.90752 0.86557 0.0
C1098 C 0.68881 0.68104 0.59396 0.0
C1099 C 0.67427 0.70004 0.61482 0.0
C1100 C 0.70603 0.66347 0.61063 0.0
C1101 C 0.70921 0.66393 0.64889 0.0
H1102 H 0.68629 0.67903 0.56445 0.0
H1103 H 0.71589 0.6484 0.59322 0.0
S1104 S 0.67743 0.71184 0.71597 0.0
N1105 N 0.66564 0.71992 0.67583 0.0
N1106 N 0.6979 0.68679 0.70719 0.0
C1107 C 0.6959 0.68404 0.67009 0.0
C1108 C 0.67844 0.7021 0.65306 0.0
C1109 C 0.26147 0.39831 0.31236 0.0
C1110 C 0.28206 0.41523 0.31285 0.0
C1111 C 0.25119 0.39326 0.34484 0.0
C1112 C 0.261 0.40515 0.37892 0.0
H1113 H 0.25422 0.38747 0.28704 0.0
H1114 H 0.23633 0.37871 0.34331 0.0
S1115 S 0.31178 0.45544 0.39381 0.0
N1116 N 0.30962 0.44707 0.34932 0.0
N1117 N 0.29025 0.43783 0.41038 0.0
C1118 C 0.28007 0.42422 0.37931 0.0
C1119 C 0.29066 0.42914 0.34626 0.0
loop_
_geom_bond_atom_site_label_1
_geom_bond_atom_site_label_2
_geom_bond_distance
_geom_bond_site_symmetry_2
_ccdc_geom_bond_type
C0 O1 1.160 . S
C0 O7 1.187 . S
O1 C0 1.160 . S
O2 Zn3 1.899 . S
O2 C10 1.284 . S
Zn3 O2 1.899 . S
Zn3 O4 2.032 . S
Zn3 O7 2.108 . S
Zn3 O12 1.977 . S
O4 Zn3 2.032 . S
O4 C8 1.278 . S
C5 O6 1.203 . S
C5 O12 1.267 . S
O6 C5 1.203 . S
O7 C0 1.187 . S
O7 Zn3 2.108 . S
C8 O4 1.278 . S
C8 O9 1.211 . S
O9 C8 1.211 . S
C10 O2 1.284 . S
C10 O11 1.273 . S
O11 C10 1.273 . S
O12 Zn3 1.977 . S
O12 C5 1.267 . S
C13 O14 1.160 . S
C13 O20 1.185 . S
O14 C13 1.160 . S
O15 Zn16 1.899 . S
O15 C23 1.284 . S
Zn16 O15 1.899 . S
Zn16 O17 2.032 . S
Zn16 O20 2.086 . S
Zn16 O25 1.977 . S
O17 Zn16 2.032 . S
O17 C21 1.278 . S
C18 O19 1.203 . S
C18 O25 1.267 . S
O19 C18 1.203 . S
O20 C13 1.185 . S
O20 Zn16 2.086 . S
C21 O17 1.278 . S
C21 O22 1.211 . S
O22 C21 1.211 . S
C23 O15 1.284 . S
C23 O24 1.273 . S
O24 C23 1.273 . S
O25 Zn16 1.977 . S
O25 C18 1.267 . S
C26 O27 1.160 . S
C26 O33 1.185 1_556 S
O27 C26 1.160 . S
O28 Zn29 1.908 . S
O28 C36 1.285 . S
Zn29 O28 1.908 . S
Zn29 O30 2.032 . S
Zn29 O33 2.086 . S
Zn29 O38 1.977 . S
O30 Zn29 2.032 . S
O30 C34 1.278 . S
C31 O32 1.203 . S
C31 O38 1.267 . S
O32 C31 1.203 . S
O33 C26 1.185 1_554 S
O33 Zn29 2.086 . S
C34 O30 1.278 . S
C34 O35 1.211 . S
O35 C34 1.211 . S
C36 O28 1.285 . S
C36 O37 1.279 . S
O37 C36 1.279 . S
O38 Zn29 1.977 . S
O38 C31 1.267 . S
C39 O40 1.160 1_565 S
C39 O46 1.185 . S
O40 C39 1.160 1_545 S
O41 Zn42 1.899 . S
O41 C49 1.284 . S
Zn42 O41 1.899 . S
Zn42 O43 2.032 . S
Zn42 O46 2.086 . S
Zn42 O51 1.977 . S
O43 Zn42 2.032 . S
O43 C47 1.278 . S
C44 O45 1.203 . S
C44 O51 1.267 . S
O45 C44 1.203 . S
O46 C39 1.185 . S
O46 Zn42 2.086 . S
C47 O43 1.278 . S
C47 O48 1.211 . S
O48 C47 1.211 . S
C49 O41 1.284 . S
C49 O50 1.273 . S
O50 C49 1.273 . S
O51 Zn42 1.977 . S
O51 C44 1.267 . S
C52 O53 1.160 . S
C52 O59 1.185 . S
O53 C52 1.160 . S
O54 Zn55 1.899 . S
O54 C62 1.284 . S
Zn55 O54 1.899 . S
Zn55 O56 2.032 . S
Zn55 O59 2.086 . S
Zn55 O64 1.977 . S
O56 Zn55 2.032 . S
O56 C60 1.278 . S
C57 O58 1.203 . S
C57 O64 1.267 . S
O58 C57 1.203 . S
O59 C52 1.185 . S
O59 Zn55 2.086 . S
C60 O56 1.278 . S
C60 O61 1.211 . S
O61 C60 1.211 . S
C62 O54 1.284 . S
C62 O63 1.273 . S
O63 C62 1.273 . S
O64 Zn55 1.977 . S
O64 C57 1.267 . S
C65 O66 1.160 1_556 S
C65 O72 1.185 . S
O66 C65 1.160 1_554 S
O67 Zn68 1.899 . S
O67 C75 1.284 . S
Zn68 O67 1.899 . S
Zn68 O69 2.032 . S
Zn68 O72 2.086 . S
Zn68 O77 1.977 . S
O69 Zn68 2.032 . S
O69 C73 1.278 . S
C70 O71 1.203 . S
C70 O77 1.267 . S
O71 C70 1.203 . S
O72 C65 1.185 . S
O72 Zn68 2.086 . S
C73 O69 1.278 . S
C73 O74 1.211 . S
O74 C73 1.211 . S
C75 O67 1.284 . S
C75 O76 1.273 . S
O76 C75 1.273 . S
O77 Zn68 1.977 . S
O77 C70 1.267 . S
C78 O79 1.160 . S
C78 O85 1.185 . S
O79 C78 1.160 . S
O80 Zn81 1.899 . S
O80 C88 1.284 . S
Zn81 O80 1.899 . S
Zn81 O82 2.032 . S
Zn81 O85 2.086 . S
Zn81 O90 1.977 . S
O82 Zn81 2.032 . S
O82 C86 1.278 . S
C83 O84 1.203 . S
C83 O90 1.267 . S
O84 C83 1.203 . S
O85 C78 1.185 . S
O85 Zn81 2.086 . S
C86 O82 1.278 . S
C86 O87 1.211 . S
O87 C86 1.211 . S
C88 O80 1.284 . S
C88 O89 1.273 . S
O89 C88 1.273 . S
O90 Zn81 1.977 . S
O90 C83 1.267 . S
C91 O92 1.160 . S
C91 O98 1.185 . S
O92 C91 1.160 . S
O93 Zn94 1.899 . S
O93 C101 1.284 . S
Zn94 O93 1.899 . S
Zn94 O95 2.032 . S
Zn94 O98 2.086 . S
Zn94 O103 1.977 . S
O95 Zn94 2.032 . S
O95 C99 1.278 . S
C96 O97 1.203 . S
C96 O103 1.267 . S
O97 C96 1.203 . S
O98 C91 1.185 . S
O98 Zn94 2.086 . S
C99 O95 1.278 . S
C99 O100 1.211 . S
O100 C99 1.211 . S
C101 O93 1.284 . S
C101 O102 1.273 . S
O102 C101 1.273 . S
O103 Zn94 1.977 . S
O103 C96 1.267 . S
C104 O105 1.160 . S
C104 O111 1.187 1_556 S
O105 C104 1.160 . S
O106 Zn107 1.899 1_556 S
O106 C114 1.284 . S
Zn107 O106 1.899 1_554 S
Zn107 O108 2.032 . S
Zn107 O111 2.108 . S
Zn107 O116 1.977 . S
O108 Zn107 2.032 . S
O108 C112 1.278 . S
C109 O110 1.203 . S
C109 O116 1.267 . S
O110 C109 1.203 . S
O111 C104 1.187 1_554 S
O111 Zn107 2.108 . S
C112 O108 1.278 . S
C112 O113 1.211 . S
O113 C112 1.211 . S
C114 O106 1.284 . S
C114 O115 1.273 1_556 S
O115 C114 1.273 1_554 S
O116 Zn107 1.977 . S
O116 C109 1.267 . S
C117 O118 1.160 . S
C117 O124 1.185 . S
O118 C117 1.160 . S
O119 Zn120 1.899 . S
O119 C127 1.284 . S
Zn120 O119 1.899 . S
Zn120 O121 2.032 . S
Zn120 O124 2.086 . S
Zn120 O129 1.977 . S
O121 Zn120 2.032 . S
O121 C125 1.278 . S
C122 O123 1.203 . S
C122 O129 1.267 . S
O123 C122 1.203 . S
O124 C117 1.185 . S
O124 Zn120 2.086 . S
C125 O121 1.278 . S
C125 O126 1.211 . S
O126 C125 1.211 . S
C127 O119 1.284 . S
C127 O128 1.273 . S
O128 C127 1.273 . S
O129 Zn120 1.977 . S
O129 C122 1.267 . S
C130 O131 1.160 . S
C130 O137 1.185 . S
O131 C130 1.160 . S
O132 Zn133 1.899 . S
O132 C140 1.284 . S
Zn133 O132 1.899 . S
Zn133 O134 2.032 . S
Zn133 O137 2.086 . S
Zn133 O142 1.977 . S
O134 Zn133 2.032 . S
O134 C138 1.278 . S
C135 O136 1.203 . S
C135 O142 1.267 . S
O136 C135 1.203 . S
O137 C130 1.185 . S
O137 Zn133 2.086 . S
C138 O134 1.278 . S
C138 O139 1.211 . S
O139 C138 1.211 . S
C140 O132 1.284 . S
C140 O141 1.273 . S
O141 C140 1.273 . S
O142 Zn133 1.977 . S
O142 C135 1.267 . S
C143 O144 1.160 . S
C143 O150 1.185 . S
O144 C143 1.160 . S
O145 Zn146 1.899 . S
O145 C153 1.284 . S
Zn146 O145 1.899 . S
Zn146 O147 2.032 . S
Zn146 O150 2.086 . S
Zn146 O155 1.977 . S
O147 Zn146 2.032 . S
O147 C151 1.278 . S
C148 O149 1.203 . S
C148 O155 1.267 . S
O149 C148 1.203 . S
O150 C143 1.185 . S
O150 Zn146 2.086 . S
C151 O147 1.278 . S
C151 O152 1.211 . S
O152 C151 1.211 . S
C153 O145 1.284 . S
C153 O154 1.273 . S
O154 C153 1.273 . S
O155 Zn146 1.977 . S
O155 C148 1.267 . S
C156 O157 1.160 . S
C156 O163 1.185 . S
O157 C156 1.160 . S
O158 Zn159 1.899 . S
O158 C166 1.284 . S
Zn159 O158 1.899 . S
Zn159 O160 2.032 . S
Zn159 O163 2.086 . S
Zn159 O168 1.977 . S
O160 Zn159 2.032 . S
O160 C164 1.278 . S
C161 O162 1.203 . S
C161 O168 1.267 . S
O162 C161 1.203 . S
O163 C156 1.185 . S
O163 Zn159 2.086 . S
C164 O160 1.278 . S
C164 O165 1.211 . S
O165 C164 1.211 . S
C166 O158 1.284 . S
C166 O167 1.273 . S
O167 C166 1.273 . S
O168 Zn159 1.977 . S
O168 C161 1.267 . S
C169 O170 1.160 . S
C169 O176 1.185 . S
O170 C169 1.160 . S
O171 Zn172 1.899 . S
O171 C179 1.284 . S
Zn172 O171 1.899 . S
Zn172 O173 2.032 . S
Zn172 O176 2.086 . S
Zn172 O181 1.977 . S
O173 Zn172 2.032 . S
O173 C177 1.278 . S
C174 O175 1.203 . S
C174 O181 1.267 . S
O175 C174 1.203 . S
O176 C169 1.185 . S
O176 Zn172 2.086 . S
C177 O173 1.278 . S
C177 O178 1.211 . S
O178 C177 1.211 . S
C179 O171 1.284 . S
C179 O180 1.273 . S
O180 C179 1.273 . S
O181 Zn172 1.977 . S
O181 C174 1.267 . S
C182 O183 1.160 . S
C182 O189 1.185 . S
O183 C182 1.160 . S
O184 Zn185 1.899 . S
O184 C192 1.284 . S
Zn185 O184 1.899 . S
Zn185 O186 2.032 . S
Zn185 O189 2.086 . S
Zn185 O194 1.977 . S
O186 Zn185 2.032 . S
O186 C190 1.278 . S
C187 O188 1.203 . S
C187 O194 1.267 . S
O188 C187 1.203 . S
O189 C182 1.185 . S
O189 Zn185 2.086 . S
C190 O186 1.278 . S
C190 O191 1.211 . S
O191 C190 1.211 . S
C192 O184 1.284 . S
C192 O193 1.273 . S
O193 C192 1.273 . S
O194 Zn185 1.977 . S
O194 C187 1.267 . S
C195 O196 1.160 . S
C195 O202 1.187 1_554 S
O196 C195 1.160 . S
O197 Zn198 1.899 1_554 S
O197 C205 1.284 . S
Zn198 O197 1.899 1_556 S
Zn198 O199 2.032 . S
Zn198 O202 2.085 . S
Zn198 O207 1.977 . S
O199 Zn198 2.032 . S
O199 C203 1.278 . S
C200 O201 1.203 . S
C200 O207 1.267 . S
O201 C200 1.203 . S
O202 C195 1.187 1_556 S
O202 Zn198 2.085 . S
C203 O199 1.278 . S
C203 O204 1.211 . S
O204 C203 1.211 . S
C205 O197 1.284 . S
C205 O206 1.273 1_554 S
O206 C205 1.273 1_556 S
O207 Zn198 1.977 . S
O207 C200 1.267 . S
C208 O209 1.160 . S
C208 O215 1.185 1_556 S
O209 C208 1.160 . S
O210 Zn211 1.899 1_556 S
O210 C218 1.284 . S
Zn211 O210 1.899 1_554 S
Zn211 O212 2.032 . S
Zn211 O215 2.086 . S
Zn211 O220 1.977 . S
O212 Zn211 2.032 . S
O212 C216 1.278 . S
C213 O214 1.203 . S
C213 O220 1.267 . S
O214 C213 1.203 . S
O215 C208 1.185 1_554 S
O215 Zn211 2.086 . S
C216 O212 1.278 . S
C216 O217 1.211 . S
O217 C216 1.211 . S
C218 O210 1.284 . S
C218 O219 1.273 1_556 S
O219 C218 1.273 1_554 S
O220 Zn211 1.977 . S
O220 C213 1.267 . S
C221 O222 1.160 . S
C221 O228 1.185 . S
O222 C221 1.160 . S
O223 Zn224 1.899 . S
O223 C231 1.284 . S
Zn224 O223 1.899 . S
Zn224 O225 2.032 . S
Zn224 O228 2.086 . S
Zn224 O233 1.977 . S
O225 Zn224 2.032 . S
O225 C229 1.278 . S
C226 O227 1.203 . S
C226 O233 1.267 . S
O227 C226 1.203 . S
O228 C221 1.185 . S
O228 Zn224 2.086 . S
C229 O225 1.278 . S
C229 O230 1.211 . S
O230 C229 1.211 . S
C231 O223 1.284 . S
C231 O232 1.273 . S
O232 C231 1.273 . S
O233 Zn224 1.977 . S
O233 C226 1.267 . S
C234 O235 1.160 . S
C234 O241 1.185 1_556 S
O235 C234 1.160 . S
O236 Zn237 1.912 . S
O236 C244 1.285 . S
Zn237 O236 1.912 . S
Zn237 O238 2.032 . S
Zn237 O241 2.086 . S
Zn237 O246 1.977 . S
O238 Zn237 2.032 . S
O238 C242 1.278 . S
C239 O240 1.203 . S
C239 O246 1.267 . S
O240 C239 1.203 . S
O241 C234 1.185 1_554 S
O241 Zn237 2.086 . S
C242 O238 1.278 . S
C242 O243 1.211 . S
O243 C242 1.211 . S
C244 O236 1.285 . S
C244 O245 1.283 . S
O245 C244 1.283 . S
O246 Zn237 1.977 . S
O246 C239 1.267 . S
C247 O248 1.160 . S
C247 O254 1.185 . S
O248 C247 1.160 . S
O249 Zn250 1.899 . S
O249 C257 1.284 . S
Zn250 O249 1.899 . S
Zn250 O251 2.032 . S
Zn250 O254 2.086 . S
Zn250 O259 1.977 . S
O251 Zn250 2.032 . S
O251 C255 1.278 . S
C252 O253 1.203 . S
C252 O259 1.267 . S
O253 C252 1.203 . S
O254 C247 1.185 . S
O254 Zn250 2.086 . S
C255 O251 1.278 . S
C255 O256 1.211 . S
O256 C255 1.211 . S
C257 O249 1.284 . S
C257 O258 1.273 . S
O258 C257 1.273 . S
O259 Zn250 1.977 . S
O259 C252 1.267 . S
C260 O261 1.160 1_556 S
C260 O267 1.185 . S
O261 C260 1.160 1_554 S
O262 Zn263 1.899 . S
O262 C270 1.284 . S
Zn263 O262 1.899 . S
Zn263 O264 2.032 . S
Zn263 O267 2.086 . S
Zn263 O272 1.977 . S
O264 Zn263 2.032 . S
O264 C268 1.278 . S
C265 O266 1.203 . S
C265 O272 1.267 . S
O266 C265 1.203 . S
O267 C260 1.185 . S
O267 Zn263 2.086 . S
C268 O264 1.278 . S
C268 O269 1.211 . S
O269 C268 1.211 . S
C270 O262 1.284 . S
C270 O271 1.273 . S
O271 C270 1.273 . S
O272 Zn263 1.977 . S
O272 C265 1.267 . S
C273 O274 1.160 1_565 S
C273 O280 1.185 . S
O274 C273 1.160 1_545 S
O275 Zn276 1.899 . S
O275 C283 1.284 . S
Zn276 O275 1.899 . S
Zn276 O277 2.032 . S
Zn276 O280 2.086 . S
Zn276 O285 1.977 . S
O277 Zn276 2.032 . S
O277 C281 1.278 . S
C278 O279 1.203 . S
C278 O285 1.267 . S
O279 C278 1.203 . S
O280 C273 1.185 . S
O280 Zn276 2.086 . S
C281 O277 1.278 . S
C281 O282 1.211 . S
O282 C281 1.211 . S
C283 O275 1.284 . S
C283 O284 1.273 . S
O284 C283 1.273 . S
O285 Zn276 1.977 . S
O285 C278 1.267 . S
C286 O287 1.160 . S
C286 O293 1.186 1_554 S
O287 C286 1.160 . S
O288 Zn289 1.899 1_554 S
O288 C296 1.284 . S
Zn289 O288 1.899 1_556 S
Zn289 O290 2.032 . S
Zn289 O293 2.086 . S
Zn289 O298 1.977 . S
O290 Zn289 2.032 . S
O290 C294 1.278 . S
C291 O292 1.203 . S
C291 O298 1.267 . S
O292 C291 1.203 . S
O293 C286 1.186 1_556 S
O293 Zn289 2.086 . S
C294 O290 1.278 . S
C294 O295 1.211 . S
O295 C294 1.211 . S
C296 O288 1.284 . S
C296 O297 1.273 1_554 S
O297 C296 1.273 1_556 S
O298 Zn289 1.977 . S
O298 C291 1.267 . S
C299 O300 1.160 . S
C299 O306 1.185 . S
O300 C299 1.160 . S
O301 Zn302 1.899 . S
O301 C309 1.284 . S
Zn302 O301 1.899 . S
Zn302 O303 2.032 . S
Zn302 O306 2.086 . S
Zn302 O311 1.977 . S
O303 Zn302 2.032 . S
O303 C307 1.278 . S
C304 O305 1.203 . S
C304 O311 1.267 . S
O305 C304 1.203 . S
O306 C299 1.185 . S
O306 Zn302 2.086 . S
C307 O303 1.278 . S
C307 O308 1.211 . S
O308 C307 1.211 . S
C309 O301 1.284 . S
C309 O310 1.273 . S
O310 C309 1.273 . S
O311 Zn302 1.977 . S
O311 C304 1.267 . S
C312 O313 1.160 . S
C312 O319 1.185 . S
O313 C312 1.160 . S
O314 Zn315 1.899 . S
O314 C322 1.284 . S
Zn315 O314 1.899 . S
Zn315 O316 2.032 . S
Zn315 O319 2.086 . S
Zn315 O324 1.977 . S
O316 Zn315 2.032 . S
O316 C320 1.278 . S
C317 O318 1.203 . S
C317 O324 1.267 . S
O318 C317 1.203 . S
O319 C312 1.185 . S
O319 Zn315 2.086 . S
C320 O316 1.278 . S
C320 O321 1.211 . S
O321 C320 1.211 . S
C322 O314 1.284 . S
C322 O323 1.273 . S
O323 C322 1.273 . S
O324 Zn315 1.977 . S
O324 C317 1.267 . S
C325 O326 1.160 . S
C325 O332 1.185 . S
O326 C325 1.160 . S
O327 Zn328 1.899 . S
O327 C335 1.284 . S
Zn328 O327 1.899 . S
Zn328 O329 2.032 . S
Zn328 O332 2.086 . S
Zn328 O337 1.977 . S
O329 Zn328 2.032 . S
O329 C333 1.278 . S
C330 O331 1.203 . S
C330 O337 1.267 . S
O331 C330 1.203 . S
O332 C325 1.185 . S
O332 Zn328 2.086 . S
C333 O329 1.278 . S
C333 O334 1.211 . S
O334 C333 1.211 . S
C335 O327 1.284 . S
C335 O336 1.273 . S
O336 C335 1.273 . S
O337 Zn328 1.977 . S
O337 C330 1.267 . S
C338 O339 1.160 . S
C338 O345 1.185 . S
O339 C338 1.160 . S
O340 Zn341 1.899 . S
O340 C348 1.284 . S
Zn341 O340 1.899 . S
Zn341 O342 2.032 . S
Zn341 O345 2.086 . S
Zn341 O350 1.977 . S
O342 Zn341 2.032 . S
O342 C346 1.278 . S
C343 O344 1.203 . S
C343 O350 1.267 . S
O344 C343 1.203 . S
O345 C338 1.185 . S
O345 Zn341 2.086 . S
C346 O342 1.278 . S
C346 O347 1.211 . S
O347 C346 1.211 . S
C348 O340 1.284 . S
C348 O349 1.273 . S
O349 C348 1.273 . S
O350 Zn341 1.977 . S
O350 C343 1.267 . S
C351 O352 1.160 . S
C351 O358 1.185 . S
O352 C351 1.160 . S
O353 Zn354 1.899 . S
O353 C361 1.284 . S
Zn354 O353 1.899 . S
Zn354 O355 2.032 . S
Zn354 O358 2.086 . S
Zn354 O363 1.977 . S
O355 Zn354 2.032 . S
O355 C359 1.278 . S
C356 O357 1.203 . S
C356 O363 1.267 . S
O357 C356 1.203 . S
O358 C351 1.185 . S
O358 Zn354 2.086 . S
C359 O355 1.278 . S
C359 O360 1.211 . S
O360 C359 1.211 . S
C361 O353 1.284 . S
C361 O362 1.273 . S
O362 C361 1.273 . S
O363 Zn354 1.977 . S
O363 C356 1.267 . S
C364 O365 1.160 . S
C364 O371 1.185 . S
O365 C364 1.160 . S
O366 Zn367 1.899 . S
O366 C374 1.284 . S
Zn367 O366 1.899 . S
Zn367 O368 2.032 . S
Zn367 O371 2.086 . S
Zn367 O376 1.977 . S
O368 Zn367 2.032 . S
O368 C372 1.278 . S
C369 O370 1.203 . S
C369 O376 1.267 . S
O370 C369 1.203 . S
O371 C364 1.185 . S
O371 Zn367 2.086 . S
C372 O368 1.278 . S
C372 O373 1.211 . S
O373 C372 1.211 . S
C374 O366 1.284 . S
C374 O375 1.273 . S
O375 C374 1.273 . S
O376 Zn367 1.977 . S
O376 C369 1.267 . S
C377 O378 1.160 . S
C377 O384 1.185 . S
O378 C377 1.160 . S
O379 Zn380 1.899 . S
O379 C387 1.284 . S
Zn380 O379 1.899 . S
Zn380 O381 2.032 . S
Zn380 O384 2.086 . S
Zn380 O389 1.977 . S
O381 Zn380 2.032 . S
O381 C385 1.278 . S
C382 O383 1.203 . S
C382 O389 1.267 . S
O383 C382 1.203 . S
O384 C377 1.185 . S
O384 Zn380 2.086 . S
C385 O381 1.278 . S
C385 O386 1.211 . S
O386 C385 1.211 . S
C387 O379 1.284 . S
C387 O388 1.273 . S
O388 C387 1.273 . S
O389 Zn380 1.977 . S
O389 C382 1.267 . S
C390 O391 1.160 . S
C390 O397 1.185 . S
O391 C390 1.160 . S
O392 Zn393 1.899 . S
O392 C400 1.284 . S
Zn393 O392 1.899 . S
Zn393 O394 2.032 . S
Zn393 O397 2.086 . S
Zn393 O402 1.977 . S
O394 Zn393 2.032 . S
O394 C398 1.278 . S
C395 O396 1.203 . S
C395 O402 1.267 . S
O396 C395 1.203 . S
O397 C390 1.185 . S
O397 Zn393 2.086 . S
C398 O394 1.278 . S
C398 O399 1.211 . S
O399 C398 1.211 . S
C400 O392 1.284 . S
C400 O401 1.273 . S
O401 C400 1.273 . S
O402 Zn393 1.977 . S
O402 C395 1.267 . S
C403 O404 1.160 . S
C403 O410 1.185 . S
O404 C403 1.160 . S
O405 Zn406 1.899 . S
O405 C413 1.284 . S
Zn406 O405 1.899 . S
Zn406 O407 2.032 . S
Zn406 O410 2.086 . S
Zn406 O415 1.977 . S
O407 Zn406 2.032 . S
O407 C411 1.278 . S
C408 O409 1.203 . S
C408 O415 1.267 . S
O409 C408 1.203 . S
O410 C403 1.185 . S
O410 Zn406 2.086 . S
C411 O407 1.278 . S
C411 O412 1.211 . S
O412 C411 1.211 . S
C413 O405 1.284 . S
C413 O414 1.273 . S
O414 C413 1.273 . S
O415 Zn406 1.977 . S
O415 C408 1.267 . S
C416 C417 1.369 . S
C416 C418 1.419 . S
C416 H420 0.930 . S
C417 C416 1.369 . S
C417 C426 1.429 . S
C418 C416 1.419 . S
C418 C419 1.363 . S
C418 H421 0.929 . S
C419 C418 1.363 . S
C419 C425 1.428 . S
H420 C416 0.930 . S
H421 C418 0.929 . S
S422 N423 1.613 . S
S422 N424 1.610 . S
N423 S422 1.613 . S
N423 C426 1.350 . S
N424 S422 1.610 . S
N424 C425 1.351 . S
C425 C419 1.428 . S
C425 N424 1.351 . S
C425 C426 1.434 . S
C426 C417 1.429 . S
C426 N423 1.350 . S
C426 C425 1.434 . S
C427 C428 1.369 . S
C427 C429 1.419 . S
C427 H431 0.930 . S
C428 C427 1.369 . S
C428 C437 1.429 . S
C429 C427 1.419 . S
C429 C430 1.363 . S
C429 H432 0.929 . S
C430 C429 1.363 . S
C430 C436 1.428 . S
H431 C427 0.930 . S
H432 C429 0.929 . S
S433 N434 1.613 . S
S433 N435 1.609 1_655 S
N434 S433 1.613 . S
N434 C437 1.350 . S
N435 S433 1.609 1_455 S
N435 C436 1.349 1_455 S
C436 C430 1.428 . S
C436 N435 1.349 1_655 S
C436 C437 1.434 . S
C437 C428 1.429 . S
C437 N434 1.350 . S
C437 C436 1.434 . S
C438 C439 1.369 1_554 S
C438 C440 1.419 . S
C438 H442 0.930 . S
C439 C438 1.369 1_556 S
C439 C448 1.429 . S
C440 C438 1.419 . S
C440 C441 1.363 1_554 S
C440 H443 0.929 . S
C441 C440 1.363 1_556 S
C441 C447 1.428 . S
H442 C438 0.930 . S
H443 C440 0.929 . S
S444 N445 1.613 . S
S444 N446 1.610 . S
N445 S444 1.613 . S
N445 C448 1.350 . S
N446 S444 1.610 . S
N446 C447 1.351 . S
C447 C441 1.428 . S
C447 N446 1.351 . S
C447 C448 1.434 . S
C448 C439 1.429 . S
C448 N445 1.350 . S
C448 C447 1.434 . S
C449 C450 1.369 . S
C449 C451 1.419 . S
C449 H453 0.930 . S
C450 C449 1.369 . S
C450 C459 1.429 . S
C451 C449 1.419 . S
C451 C452 1.363 . S
C451 H454 0.929 . S
C452 C451 1.363 . S
C452 C458 1.428 . S
H453 C449 0.930 . S
H454 C451 0.929 . S
S455 N456 1.613 . S
S455 N457 1.610 1_545 S
N456 S455 1.613 . S
N456 C459 1.350 . S
N457 S455 1.610 1_565 S
N457 C458 1.351 1_565 S
C458 C452 1.428 . S
C458 N457 1.351 1_545 S
C458 C459 1.434 . S
C459 C450 1.429 . S
C459 N456 1.350 . S
C459 C458 1.434 . S
C460 C461 1.369 1_554 S
C460 C462 1.419 . S
C460 H464 0.930 . S
C461 C460 1.369 1_556 S
C461 C470 1.429 . S
C462 C460 1.419 . S
C462 C463 1.363 . S
C462 H465 0.929 . S
C463 C462 1.363 . S
C463 C469 1.428 1_554 S
H464 C460 0.930 . S
H465 C462 0.929 . S
S466 N467 1.613 . S
S466 N468 1.610 . S
N467 S466 1.613 . S
N467 C470 1.350 . S
N468 S466 1.610 . S
N468 C469 1.351 . S
C469 C463 1.428 1_556 S
C469 N468 1.351 . S
C469 C470 1.434 . S
C470 C461 1.429 . S
C470 N467 1.350 . S
C470 C469 1.434 . S
C471 C472 1.369 . S
C471 C473 1.419 . S
C471 H475 0.930 . S
C472 C471 1.369 . S
C472 C481 1.429 . S
C473 C471 1.419 . S
C473 C474 1.363 . S
C473 H476 0.930 . S
C474 C473 1.363 . S
C474 C480 1.428 . S
H475 C471 0.930 . S
H476 C473 0.930 . S
S477 N478 1.613 . S
S477 N479 1.610 . S
N478 S477 1.613 . S
N478 C481 1.350 . S
N479 S477 1.610 . S
N479 C480 1.351 . S
C480 C474 1.428 . S
C480 N479 1.351 . S
C480 C481 1.434 . S
C481 C472 1.429 . S
C481 N478 1.350 . S
C481 C480 1.434 . S
C482 C483 1.369 . S
C482 C484 1.419 . S
C482 H486 0.930 . S
C483 C482 1.369 . S
C483 C492 1.429 . S
C484 C482 1.419 . S
C484 C485 1.363 . S
C484 H487 0.929 . S
C485 C484 1.363 . S
C485 C491 1.428 . S
H486 C482 0.930 . S
H487 C484 0.929 . S
S488 N489 1.613 . S
S488 N490 1.610 . S
N489 S488 1.613 . S
N489 C492 1.350 . S
N490 S488 1.610 . S
N490 C491 1.351 . S
C491 C485 1.428 . S
C491 N490 1.351 . S
C491 C492 1.434 . S
C492 C483 1.429 . S
C492 N489 1.350 . S
C492 C491 1.434 . S
C493 C494 1.369 . S
C493 C495 1.419 . S
C493 H497 0.930 . S
C494 C493 1.369 . S
C494 C503 1.429 . S
C495 C493 1.419 . S
C495 C496 1.363 . S
C495 H498 0.929 . S
C496 C495 1.363 . S
C496 C502 1.428 . S
H497 C493 0.930 . S
H498 C495 0.929 . S
S499 N500 1.613 . S
S499 N501 1.610 . S
N500 S499 1.613 . S
N500 C503 1.350 . S
N501 S499 1.610 . S
N501 C502 1.351 . S
C502 C496 1.428 . S
C502 N501 1.351 . S
C502 C503 1.434 . S
C503 C494 1.429 . S
C503 N500 1.350 . S
C503 C502 1.434 . S
C504 C505 1.369 . S
C504 C506 1.419 . S
C504 H508 0.930 . S
C505 C504 1.369 . S
C505 C514 1.429 . S
C506 C504 1.419 . S
C506 C507 1.363 . S
C506 H509 0.929 . S
C507 C506 1.363 . S
C507 C513 1.428 . S
H508 C504 0.930 . S
H509 C506 0.929 . S
S510 N511 1.613 . S
S510 N512 1.610 . S
N511 S510 1.613 . S
N511 C514 1.350 . S
N512 S510 1.610 . S
N512 C513 1.351 . S
C513 C507 1.428 . S
C513 N512 1.351 . S
C513 C514 1.434 . S
C514 C505 1.429 . S
C514 N511 1.350 . S
C514 C513 1.434 . S
C515 C516 1.369 . S
C515 C517 1.419 . S
C515 H519 0.930 . S
C516 C515 1.369 . S
C516 C525 1.429 . S
C517 C515 1.419 . S
C517 C518 1.363 . S
C517 H520 0.929 . S
C518 C517 1.363 . S
C518 C524 1.428 . S
H519 C515 0.930 . S
H520 C517 0.929 . S
S521 N522 1.613 . S
S521 N523 1.610 . S
N522 S521 1.613 . S
N522 C525 1.350 . S
N523 S521 1.610 . S
N523 C524 1.351 . S
C524 C518 1.428 . S
C524 N523 1.351 . S
C524 C525 1.434 . S
C525 C516 1.429 . S
C525 N522 1.350 . S
C525 C524 1.434 . S
C526 C527 1.369 . S
C526 C528 1.419 . S
C526 H530 0.930 . S
C527 C526 1.369 . S
C527 C536 1.429 . S
C528 C526 1.419 . S
C528 C529 1.363 . S
C528 H531 0.929 . S
C529 C528 1.363 . S
C529 C535 1.428 . S
H530 C526 0.930 . S
H531 C528 0.929 . S
S532 N533 1.613 . S
S532 N534 1.610 . S
N533 S532 1.613 . S
N533 C536 1.350 . S
N534 S532 1.610 . S
N534 C535 1.351 . S
C535 C529 1.428 . S
C535 N534 1.351 . S
C535 C536 1.434 . S
C536 C527 1.429 . S
C536 N533 1.350 . S
C536 C535 1.434 . S
C537 C538 1.369 . S
C537 C539 1.419 1_554 S
C537 H541 0.930 1_455 S
C538 C537 1.369 . S
C538 C547 1.429 . S
C539 C537 1.419 1_556 S
C539 C540 1.363 . S
C539 H542 0.929 . S
C540 C539 1.363 . S
C540 C546 1.428 1_556 S
H541 C537 0.930 1_655 S
H542 C539 0.929 . S
S543 N544 1.613 . S
S543 N545 1.610 . S
N544 S543 1.613 . S
N544 C547 1.350 . S
N545 S543 1.610 . S
N545 C546 1.351 . S
C546 C540 1.428 1_554 S
C546 N545 1.351 . S
C546 C547 1.434 . S
C547 C538 1.429 . S
C547 N544 1.350 . S
C547 C546 1.434 . S
C548 C549 1.369 . S
C548 C550 1.419 . S
C548 H552 0.930 . S
C549 C548 1.369 . S
C549 C558 1.429 . S
C550 C548 1.419 . S
C550 C551 1.363 . S
C550 H553 0.929 . S
C551 C550 1.363 . S
C551 C557 1.428 . S
H552 C548 0.930 . S
H553 C550 0.929 . S
S554 N555 1.613 . S
S554 N556 1.610 . S
N555 S554 1.613 . S
N555 C558 1.350 . S
N556 S554 1.610 . S
N556 C557 1.351 . S
C557 C551 1.428 . S
C557 N556 1.351 . S
C557 C558 1.434 . S
C558 C549 1.429 . S
C558 N555 1.350 . S
C558 C557 1.434 . S
C559 C560 1.369 1_554 S
C559 C561 1.419 . S
C559 H563 0.930 . S
C560 C559 1.369 1_556 S
C560 C569 1.429 . S
C561 C559 1.419 . S
C561 C562 1.363 1_554 S
C561 H564 0.929 . S
C562 C561 1.363 1_556 S
C562 C568 1.428 . S
H563 C559 0.930 . S
H564 C561 0.929 . S
S565 N566 1.613 . S
S565 N567 1.610 . S
N566 S565 1.613 . S
N566 C569 1.350 . S
N567 S565 1.610 . S
N567 C568 1.351 . S
C568 C562 1.428 . S
C568 N567 1.351 . S
C568 C569 1.434 . S
C569 C560 1.429 . S
C569 N566 1.350 . S
C569 C568 1.434 . S
C570 C571 1.369 . S
C570 C572 1.419 . S
C570 H574 0.930 . S
C571 C570 1.369 . S
C571 C580 1.429 . S
C572 C570 1.419 . S
C572 C573 1.363 . S
C572 H575 0.929 . S
C573 C572 1.363 . S
C573 C579 1.428 . S
H574 C570 0.930 . S
H575 C572 0.929 . S
S576 N577 1.613 . S
S576 N578 1.610 . S
N577 S576 1.613 . S
N577 C580 1.350 . S
N578 S576 1.610 . S
N578 C579 1.351 . S
C579 C573 1.428 . S
C579 N578 1.351 . S
C579 C580 1.434 . S
C580 C571 1.429 . S
C580 N577 1.350 . S
C580 C579 1.434 . S
C581 C582 1.369 . S
C581 C583 1.419 . S
C581 H585 0.930 . S
C582 C581 1.369 . S
C582 C591 1.429 . S
C583 C581 1.419 . S
C583 C584 1.363 . S
C583 H586 0.929 . S
C584 C583 1.363 . S
C584 C590 1.428 . S
H585 C581 0.930 . S
H586 C583 0.929 . S
S587 N588 1.613 . S
S587 N589 1.610 . S
N588 S587 1.613 . S
N588 C591 1.350 . S
N589 S587 1.610 . S
N589 C590 1.351 . S
C590 C584 1.428 . S
C590 N589 1.351 . S
C590 C591 1.434 . S
C591 C582 1.429 . S
C591 N588 1.350 . S
C591 C590 1.434 . S
C592 C593 1.369 . S
C592 C594 1.419 . S
C592 H596 0.930 . S
C593 C592 1.369 . S
C593 C602 1.429 . S
C594 C592 1.419 . S
C594 C595 1.363 . S
C594 H597 0.929 . S
C595 C594 1.363 . S
C595 C601 1.428 . S
H596 C592 0.930 . S
H597 C594 0.929 . S
S598 N599 1.613 . S
S598 N600 1.610 . S
N599 S598 1.613 . S
N599 C602 1.350 . S
N600 S598 1.610 . S
N600 C601 1.351 . S
C601 C595 1.428 . S
C601 N600 1.351 . S
C601 C602 1.434 . S
C602 C593 1.429 . S
C602 N599 1.350 . S
C602 C601 1.434 . S
C603 C604 1.369 . S
C603 C605 1.419 . S
C603 H607 0.930 . S
C604 C603 1.369 . S
C604 C613 1.429 . S
C605 C603 1.419 . S
C605 C606 1.363 . S
C605 H608 0.929 . S
C606 C605 1.363 . S
C606 C612 1.428 . S
H607 C603 0.930 . S
H608 C605 0.929 . S
S609 N610 1.613 . S
S609 N611 1.610 . S
N610 S609 1.613 . S
N610 C613 1.350 . S
N611 S609 1.610 . S
N611 C612 1.351 . S
C612 C606 1.428 . S
C612 N611 1.351 . S
C612 C613 1.434 . S
C613 C604 1.429 . S
C613 N610 1.350 . S
C613 C612 1.434 . S
C614 C615 1.369 . S
C614 C616 1.419 . S
C614 H618 0.930 . S
C615 C614 1.369 . S
C615 C624 1.429 . S
C616 C614 1.419 . S
C616 C617 1.363 . S
C616 H619 0.929 . S
C617 C616 1.363 . S
C617 C623 1.428 . S
H618 C614 0.930 . S
H619 C616 0.929 . S
S620 N621 1.613 1_554 S
S620 N622 1.610 . S
N621 S620 1.613 1_556 S
N621 C624 1.350 . S
N622 S620 1.610 . S
N622 C623 1.352 1_554 S
C623 C617 1.428 . S
C623 N622 1.352 1_556 S
C623 C624 1.434 . S
C624 C615 1.429 . S
C624 N621 1.350 . S
C624 C623 1.434 . S
C625 C626 1.369 . S
C625 C627 1.419 . S
C625 H629 0.930 . S
C626 C625 1.369 . S
C626 C635 1.429 . S
C627 C625 1.419 . S
C627 C628 1.363 . S
C627 H630 0.929 . S
C628 C627 1.363 . S
C628 C634 1.428 . S
H629 C625 0.930 . S
H630 C627 0.929 . S
S631 N632 1.613 . S
S631 N633 1.610 . S
N632 S631 1.613 . S
N632 C635 1.350 . S
N633 S631 1.610 . S
N633 C634 1.351 . S
C634 C628 1.428 . S
C634 N633 1.351 . S
C634 C635 1.434 . S
C635 C626 1.429 . S
C635 N632 1.350 . S
C635 C634 1.434 . S
C636 C637 1.369 . S
C636 C638 1.419 . S
C636 H640 0.930 . S
C637 C636 1.369 . S
C637 C646 1.429 . S
C638 C636 1.419 . S
C638 C639 1.363 . S
C638 H641 0.929 . S
C639 C638 1.363 . S
C639 C645 1.428 . S
H640 C636 0.930 . S
H641 C638 0.929 . S
S642 N643 1.613 . S
S642 N644 1.610 . S
N643 S642 1.613 . S
N643 C646 1.350 . S
N644 S642 1.610 . S
N644 C645 1.351 . S
C645 C639 1.428 . S
C645 N644 1.351 . S
C645 C646 1.434 . S
C646 C637 1.429 . S
C646 N643 1.350 . S
C646 C645 1.434 . S
C647 C648 1.369 . S
C647 C649 1.419 . S
C647 H651 0.930 . S
C648 C647 1.369 . S
C648 C657 1.429 . S
C649 C647 1.419 . S
C649 C650 1.363 . S
C649 H652 0.929 . S
C650 C649 1.363 . S
C650 C656 1.428 . S
H651 C647 0.930 . S
H652 C649 0.929 . S
S653 N654 1.613 . S
S653 N655 1.610 . S
N654 S653 1.613 . S
N654 C657 1.350 . S
N655 S653 1.610 . S
N655 C656 1.351 . S
C656 C650 1.428 . S
C656 N655 1.351 . S
C656 C657 1.434 . S
C657 C648 1.429 . S
C657 N654 1.350 . S
C657 C656 1.434 . S
C658 C659 1.369 . S
C658 C660 1.419 . S
C658 H662 0.930 . S
C659 C658 1.369 . S
C659 C668 1.429 . S
C660 C658 1.419 . S
C660 C661 1.363 . S
C660 H663 0.929 . S
C661 C660 1.363 . S
C661 C667 1.428 . S
H662 C658 0.930 . S
H663 C660 0.929 . S
S664 N665 1.613 . S
S664 N666 1.610 . S
N665 S664 1.613 . S
N665 C668 1.350 . S
N666 S664 1.610 . S
N666 C667 1.351 . S
C667 C661 1.428 . S
C667 N666 1.351 . S
C667 C668 1.434 . S
C668 C659 1.429 . S
C668 N665 1.350 . S
C668 C667 1.434 . S
C669 C670 1.369 . S
C669 C671 1.419 . S
C669 H673 0.930 . S
C670 C669 1.369 . S
C670 C679 1.429 . S
C671 C669 1.419 . S
C671 C672 1.363 . S
C671 H674 0.929 . S
C672 C671 1.363 . S
C672 C678 1.428 . S
H673 C669 0.930 . S
H674 C671 0.929 . S
S675 N676 1.613 . S
S675 N677 1.610 . S
N676 S675 1.613 . S
N676 C679 1.350 . S
N677 S675 1.610 . S
N677 C678 1.351 . S
C678 C672 1.428 . S
C678 N677 1.351 . S
C678 C679 1.434 . S
C679 C670 1.429 . S
C679 N676 1.350 . S
C679 C678 1.434 . S
C680 C681 1.369 . S
C680 C682 1.419 . S
C680 H684 0.930 . S
C681 C680 1.369 . S
C681 C690 1.429 . S
C682 C680 1.419 . S
C682 C683 1.363 . S
C682 H685 0.929 . S
C683 C682 1.363 . S
C683 C689 1.428 . S
H684 C680 0.930 . S
H685 C682 0.929 . S
S686 N687 1.613 . S
S686 N688 1.610 . S
N687 S686 1.613 . S
N687 C690 1.350 . S
N688 S686 1.610 . S
N688 C689 1.351 . S
C689 C683 1.428 . S
C689 N688 1.351 . S
C689 C690 1.434 . S
C690 C681 1.429 . S
C690 N687 1.350 . S
C690 C689 1.434 . S
C691 C692 1.369 . S
C691 C693 1.419 . S
C691 H695 0.930 . S
C692 C691 1.369 . S
C692 C701 1.429 . S
C693 C691 1.419 . S
C693 C694 1.363 . S
C693 H696 0.929 . S
C694 C693 1.363 . S
C694 C700 1.428 . S
H695 C691 0.930 . S
H696 C693 0.929 . S
S697 N698 1.613 . S
S697 N699 1.610 . S
N698 S697 1.613 . S
N698 C701 1.350 . S
N699 S697 1.610 . S
N699 C700 1.351 . S
C700 C694 1.428 . S
C700 N699 1.351 . S
C700 C701 1.434 . S
C701 C692 1.429 . S
C701 N698 1.350 . S
C701 C700 1.434 . S
C702 C703 1.369 . S
C702 C704 1.419 . S
C702 H706 0.930 . S
C703 C702 1.369 . S
C703 C712 1.429 . S
C704 C702 1.419 . S
C704 C705 1.363 . S
C704 H707 0.929 . S
C705 C704 1.363 . S
C705 C711 1.428 . S
H706 C702 0.930 . S
H707 C704 0.929 . S
S708 N709 1.613 . S
S708 N710 1.610 . S
N709 S708 1.613 . S
N709 C712 1.350 . S
N710 S708 1.610 . S
N710 C711 1.351 . S
C711 C705 1.428 . S
C711 N710 1.351 . S
C711 C712 1.434 . S
C712 C703 1.429 . S
C712 N709 1.350 . S
C712 C711 1.434 . S
C713 C714 1.369 . S
C713 C715 1.419 . S
C713 H717 0.930 . S
C714 C713 1.369 . S
C714 C723 1.429 . S
C715 C713 1.419 . S
C715 C716 1.363 . S
C715 H718 0.929 . S
C716 C715 1.363 . S
C716 C722 1.428 . S
H717 C713 0.930 . S
H718 C715 0.929 . S
S719 N720 1.613 . S
S719 N721 1.610 . S
N720 S719 1.613 . S
N720 C723 1.350 . S
N721 S719 1.610 . S
N721 C722 1.351 . S
C722 C716 1.428 . S
C722 N721 1.351 . S
C722 C723 1.434 . S
C723 C714 1.429 . S
C723 N720 1.350 . S
C723 C722 1.434 . S
C724 C725 1.369 . S
C724 C726 1.419 . S
C724 H728 0.930 . S
C725 C724 1.369 . S
C725 C734 1.429 . S
C726 C724 1.419 . S
C726 C727 1.363 . S
C726 H729 0.929 . S
C727 C726 1.363 . S
C727 C733 1.428 . S
H728 C724 0.930 . S
H729 C726 0.929 . S
S730 N731 1.613 . S
S730 N732 1.610 . S
N731 S730 1.613 . S
N731 C734 1.350 . S
N732 S730 1.610 . S
N732 C733 1.351 . S
C733 C727 1.428 . S
C733 N732 1.351 . S
C733 C734 1.434 . S
C734 C725 1.429 . S
C734 N731 1.350 . S
C734 C733 1.434 . S
C735 C736 1.369 . S
C735 C737 1.419 . S
C735 H739 0.930 . S
C736 C735 1.369 . S
C736 C745 1.429 . S
C737 C735 1.419 . S
C737 C738 1.363 . S
C737 H740 0.929 . S
C738 C737 1.363 . S
C738 C744 1.428 . S
H739 C735 0.930 . S
H740 C737 0.929 . S
S741 N742 1.613 . S
S741 N743 1.610 . S
N742 S741 1.613 . S
N742 C745 1.350 . S
N743 S741 1.610 . S
N743 C744 1.351 . S
C744 C738 1.428 . S
C744 N743 1.351 . S
C744 C745 1.434 . S
C745 C736 1.429 . S
C745 N742 1.350 . S
C745 C744 1.434 . S
C746 C747 1.369 . S
C746 C748 1.419 . S
C746 H750 0.930 . S
C747 C746 1.369 . S
C747 C756 1.429 . S
C748 C746 1.419 . S
C748 C749 1.363 . S
C748 H751 0.929 . S
C749 C748 1.363 . S
C749 C755 1.428 . S
H750 C746 0.930 . S
H751 C748 0.929 . S
S752 N753 1.613 . S
S752 N754 1.610 . S
N753 S752 1.613 . S
N753 C756 1.350 . S
N754 S752 1.610 . S
N754 C755 1.351 . S
C755 C749 1.428 . S
C755 N754 1.351 . S
C755 C756 1.434 . S
C756 C747 1.429 . S
C756 N753 1.350 . S
C756 C755 1.434 . S
C757 C758 1.369 . S
C757 C759 1.419 . S
C757 H761 0.930 . S
C758 C757 1.369 . S
C758 C767 1.429 . S
C759 C757 1.419 . S
C759 C760 1.363 . S
C759 H762 0.929 . S
C760 C759 1.363 . S
C760 C766 1.428 . S
H761 C757 0.930 . S
H762 C759 0.929 . S
S763 N764 1.613 . S
S763 N765 1.610 . S
N764 S763 1.613 . S
N764 C767 1.350 . S
N765 S763 1.610 . S
N765 C766 1.351 . S
C766 C760 1.428 . S
C766 N765 1.351 . S
C766 C767 1.434 . S
C767 C758 1.429 . S
C767 N764 1.350 . S
C767 C766 1.434 . S
C768 C769 1.369 . S
C768 C770 1.419 . S
C768 H772 0.930 . S
C769 C768 1.369 . S
C769 C778 1.429 . S
C770 C768 1.419 . S
C770 C771 1.363 . S
C770 H773 0.929 . S
C771 C770 1.363 . S
C771 C777 1.428 . S
H772 C768 0.930 . S
H773 C770 0.929 . S
S774 N775 1.613 . S
S774 N776 1.610 . S
N775 S774 1.613 . S
N775 C778 1.350 . S
N776 S774 1.610 . S
N776 C777 1.351 . S
C777 C771 1.428 . S
C777 N776 1.351 . S
C777 C778 1.434 . S
C778 C769 1.429 . S
C778 N775 1.350 . S
C778 C777 1.434 . S
C779 C780 1.369 . S
C779 C781 1.419 . S
C779 H783 0.930 . S
C780 C779 1.369 . S
C780 C789 1.429 . S
C781 C779 1.419 . S
C781 C782 1.363 . S
C781 H784 0.929 . S
C782 C781 1.363 . S
C782 C788 1.428 . S
H783 C779 0.930 . S
H784 C781 0.929 . S
S785 N786 1.613 . S
S785 N787 1.610 . S
N786 S785 1.613 . S
N786 C789 1.350 . S
N787 S785 1.610 . S
N787 C788 1.351 . S
C788 C782 1.428 . S
C788 N787 1.351 . S
C788 C789 1.434 . S
C789 C780 1.429 . S
C789 N786 1.350 . S
C789 C788 1.434 . S
C790 C791 1.369 . S
C790 C792 1.419 . S
C790 H794 0.930 . S
C791 C790 1.369 . S
C791 C800 1.429 . S
C792 C790 1.419 . S
C792 C793 1.363 . S
C792 H795 0.929 . S
C793 C792 1.363 . S
C793 C799 1.428 . S
H794 C790 0.930 . S
H795 C792 0.929 . S
S796 N797 1.613 . S
S796 N798 1.610 . S
N797 S796 1.613 . S
N797 C800 1.350 . S
N798 S796 1.610 . S
N798 C799 1.351 . S
C799 C793 1.428 . S
C799 N798 1.351 . S
C799 C800 1.434 . S
C800 C791 1.429 . S
C800 N797 1.350 . S
C800 C799 1.434 . S
C801 C802 1.369 . S
C801 C803 1.419 . S
C801 H805 0.930 . S
C802 C801 1.369 . S
C802 C811 1.429 . S
C803 C801 1.419 . S
C803 C804 1.363 . S
C803 H806 0.929 . S
C804 C803 1.363 . S
C804 C810 1.428 . S
H805 C801 0.930 . S
H806 C803 0.929 . S
S807 N808 1.613 . S
S807 N809 1.610 . S
N808 S807 1.613 . S
N808 C811 1.350 . S
N809 S807 1.610 . S
N809 C810 1.351 . S
C810 C804 1.428 . S
C810 N809 1.351 . S
C810 C811 1.434 . S
C811 C802 1.429 . S
C811 N808 1.350 . S
C811 C810 1.434 . S
C812 C813 1.369 . S
C812 C814 1.419 . S
C812 H816 0.930 . S
C813 C812 1.369 . S
C813 C822 1.429 . S
C814 C812 1.419 . S
C814 C815 1.363 . S
C814 H817 0.929 . S
C815 C814 1.363 . S
C815 C821 1.428 . S
H816 C812 0.930 . S
H817 C814 0.929 . S
S818 N819 1.613 1_554 S
S818 N820 1.610 . S
N819 S818 1.613 1_556 S
N819 C822 1.350 1_556 S
N820 S818 1.610 . S
N820 C821 1.351 . S
C821 C815 1.428 . S
C821 N820 1.351 . S
C821 C822 1.434 . S
C822 C813 1.429 . S
C822 N819 1.350 1_554 S
C822 C821 1.434 . S
C823 C824 1.369 . S
C823 C825 1.419 . S
C823 H827 0.930 . S
C824 C823 1.369 . S
C824 C833 1.429 . S
C825 C823 1.419 . S
C825 C826 1.363 . S
C825 H828 0.929 . S
C826 C825 1.363 . S
C826 C832 1.428 . S
H827 C823 0.930 . S
H828 C825 0.929 . S
S829 N830 1.613 . S
S829 N831 1.610 . S
N830 S829 1.613 . S
N830 C833 1.350 . S
N831 S829 1.610 . S
N831 C832 1.351 . S
C832 C826 1.428 . S
C832 N831 1.351 . S
C832 C833 1.434 . S
C833 C824 1.429 . S
C833 N830 1.350 . S
C833 C832 1.434 . S
C834 C835 1.369 . S
C834 C836 1.419 . S
C834 H838 0.930 . S
C835 C834 1.369 . S
C835 C844 1.429 . S
C836 C834 1.419 . S
C836 C837 1.363 . S
C836 H839 0.929 . S
C837 C836 1.363 . S
C837 C843 1.428 . S
H838 C834 0.930 . S
H839 C836 0.929 . S
S840 N841 1.613 . S
S840 N842 1.610 . S
N841 S840 1.613 . S
N841 C844 1.350 . S
N842 S840 1.610 . S
N842 C843 1.351 . S
C843 C837 1.428 . S
C843 N842 1.351 . S
C843 C844 1.434 . S
C844 C835 1.429 . S
C844 N841 1.350 . S
C844 C843 1.434 . S
C845 C846 1.369 . S
C845 C847 1.419 . S
C845 H849 0.930 . S
C846 C845 1.369 . S
C846 C855 1.429 . S
C847 C845 1.419 . S
C847 C848 1.363 . S
C847 H850 0.929 . S
C848 C847 1.363 . S
C848 C854 1.428 . S
H849 C845 0.930 . S
H850 C847 0.929 . S
S851 N852 1.613 . S
S851 N853 1.610 . S
N852 S851 1.613 . S
N852 C855 1.350 . S
N853 S851 1.610 . S
N853 C854 1.351 . S
C854 C848 1.428 . S
C854 N853 1.351 . S
C854 C855 1.434 . S
C855 C846 1.429 . S
C855 N852 1.350 . S
C855 C854 1.434 . S
C856 C857 1.369 . S
C856 C858 1.419 . S
C856 H860 0.930 . S
C857 C856 1.369 . S
C857 C866 1.429 . S
C858 C856 1.419 . S
C858 C859 1.363 . S
C858 H861 0.929 . S
C859 C858 1.363 . S
C859 C865 1.428 . S
H860 C856 0.930 . S
H861 C858 0.929 . S
S862 N863 1.613 . S
S862 N864 1.610 . S
N863 S862 1.613 . S
N863 C866 1.350 . S
N864 S862 1.610 . S
N864 C865 1.351 . S
C865 C859 1.428 . S
C865 N864 1.351 . S
C865 C866 1.434 . S
C866 C857 1.429 . S
C866 N863 1.350 . S
C866 C865 1.434 . S
C867 C868 1.369 . S
C867 C869 1.419 . S
C867 H871 0.930 . S
C868 C867 1.369 . S
C868 C877 1.429 . S
C869 C867 1.419 . S
C869 C870 1.363 . S
C869 H872 0.929 . S
C870 C869 1.363 . S
C870 C876 1.428 . S
H871 C867 0.930 . S
H872 C869 0.929 . S
S873 N874 1.613 . S
S873 N875 1.610 . S
N874 S873 1.613 . S
N874 C877 1.350 . S
N875 S873 1.610 . S
N875 C876 1.351 . S
C876 C870 1.428 . S
C876 N875 1.351 . S
C876 C877 1.434 . S
C877 C868 1.429 . S
C877 N874 1.350 . S
C877 C876 1.434 . S
C878 C879 1.369 . S
C878 C880 1.419 . S
C878 H882 0.930 . S
C879 C878 1.369 . S
C879 C888 1.429 . S
C880 C878 1.419 . S
C880 C881 1.363 . S
C880 H883 0.929 . S
C881 C880 1.363 . S
C881 C887 1.428 . S
H882 C878 0.930 . S
H883 C880 0.929 . S
S884 N885 1.613 . S
S884 N886 1.610 . S
N885 S884 1.613 . S
N885 C888 1.350 . S
N886 S884 1.610 . S
N886 C887 1.351 . S
C887 C881 1.428 . S
C887 N886 1.351 . S
C887 C888 1.434 . S
C888 C879 1.429 . S
C888 N885 1.350 . S
C888 C887 1.434 . S
C889 C890 1.369 . S
C889 C891 1.419 . S
C889 H893 0.930 . S
C890 C889 1.369 . S
C890 C899 1.429 . S
C891 C889 1.419 . S
C891 C892 1.363 . S
C891 H894 0.929 . S
C892 C891 1.363 . S
C892 C898 1.428 . S
H893 C889 0.930 . S
H894 C891 0.929 . S
S895 N896 1.613 . S
S895 N897 1.610 . S
N896 S895 1.613 . S
N896 C899 1.350 . S
N897 S895 1.610 . S
N897 C898 1.351 . S
C898 C892 1.428 . S
C898 N897 1.351 . S
C898 C899 1.434 . S
C899 C890 1.429 . S
C899 N896 1.350 . S
C899 C898 1.434 . S
C900 C901 1.369 . S
C900 C902 1.419 . S
C900 H904 0.930 . S
C901 C900 1.369 . S
C901 C910 1.429 . S
C902 C900 1.419 . S
C902 C903 1.363 . S
C902 H905 0.929 . S
C903 C902 1.363 . S
C903 C909 1.428 . S
H904 C900 0.930 . S
H905 C902 0.929 . S
S906 N907 1.613 . S
S906 N908 1.610 . S
N907 S906 1.613 . S
N907 C910 1.350 . S
N908 S906 1.610 . S
N908 C909 1.351 . S
C909 C903 1.428 . S
C909 N908 1.351 . S
C909 C910 1.434 . S
C910 C901 1.429 . S
C910 N907 1.350 . S
C910 C909 1.434 . S
C911 C912 1.369 . S
C911 C913 1.419 . S
C911 H915 0.930 . S
C912 C911 1.369 . S
C912 C921 1.429 . S
C913 C911 1.419 . S
C913 C914 1.363 . S
C913 H916 0.929 . S
C914 C913 1.363 . S
C914 C920 1.428 . S
H915 C911 0.930 . S
H916 C913 0.929 . S
S917 N918 1.613 . S
S917 N919 1.610 . S
N918 S917 1.613 . S
N918 C921 1.350 . S
N919 S917 1.610 . S
N919 C920 1.351 . S
C920 C914 1.428 . S
C920 N919 1.351 . S
C920 C921 1.434 . S
C921 C912 1.429 . S
C921 N918 1.350 . S
C921 C920 1.434 . S
C922 C923 1.369 . S
C922 C924 1.419 . S
C922 H926 0.930 . S
C923 C922 1.369 . S
C923 C932 1.429 . S
C924 C922 1.419 . S
C924 C925 1.363 . S
C924 H927 0.929 . S
C925 C924 1.363 . S
C925 C931 1.428 . S
H926 C922 0.930 . S
H927 C924 0.929 . S
S928 N929 1.613 . S
S928 N930 1.610 . S
N929 S928 1.613 . S
N929 C932 1.350 . S
N930 S928 1.610 . S
N930 C931 1.351 . S
C931 C925 1.428 . S
C931 N930 1.351 . S
C931 C932 1.434 . S
C932 C923 1.429 . S
C932 N929 1.350 . S
C932 C931 1.434 . S
C933 C934 1.369 . S
C933 C935 1.419 . S
C933 H937 0.930 . S
C934 C933 1.369 . S
C934 C943 1.429 . S
C935 C933 1.419 . S
C935 C936 1.363 . S
C935 H938 0.929 . S
C936 C935 1.363 . S
C936 C942 1.428 . S
H937 C933 0.930 . S
H938 C935 0.929 . S
S939 N940 1.613 . S
S939 N941 1.610 . S
N940 S939 1.613 . S
N940 C943 1.350 . S
N941 S939 1.610 . S
N941 C942 1.351 . S
C942 C936 1.428 . S
C942 N941 1.351 . S
C942 C943 1.434 . S
C943 C934 1.429 . S
C943 N940 1.350 . S
C943 C942 1.434 . S
C944 C945 1.369 . S
C944 C946 1.419 . S
C944 H948 0.930 . S
C945 C944 1.369 . S
C945 C954 1.429 . S
C946 C944 1.419 . S
C946 C947 1.363 . S
C946 H949 0.929 . S
C947 C946 1.363 . S
C947 C953 1.428 . S
H948 C944 0.930 . S
H949 C946 0.929 . S
S950 N951 1.613 . S
S950 N952 1.610 . S
N951 S950 1.613 . S
N951 C954 1.350 . S
N952 S950 1.610 . S
N952 C953 1.351 . S
C953 C947 1.428 . S
C953 N952 1.351 . S
C953 C954 1.434 . S
C954 C945 1.429 . S
C954 N951 1.350 . S
C954 C953 1.434 . S
C955 C956 1.369 . S
C955 C957 1.419 . S
C955 H959 0.930 . S
C956 C955 1.369 . S
C956 C965 1.429 . S
C957 C955 1.419 . S
C957 C958 1.363 . S
C957 H960 0.929 . S
C958 C957 1.363 . S
C958 C964 1.428 . S
H959 C955 0.930 . S
H960 C957 0.929 . S
S961 N962 1.613 . S
S961 N963 1.610 . S
N962 S961 1.613 . S
N962 C965 1.350 . S
N963 S961 1.610 . S
N963 C964 1.351 . S
C964 C958 1.428 . S
C964 N963 1.351 . S
C964 C965 1.434 . S
C965 C956 1.429 . S
C965 N962 1.350 . S
C965 C964 1.434 . S
C966 C967 1.369 . S
C966 C968 1.419 . S
C966 H970 0.930 . S
C967 C966 1.369 . S
C967 C976 1.429 . S
C968 C966 1.419 . S
C968 C969 1.363 . S
C968 H971 0.929 . S
C969 C968 1.363 . S
C969 C975 1.428 . S
H970 C966 0.930 . S
H971 C968 0.929 . S
S972 N973 1.613 . S
S972 N974 1.610 . S
N973 S972 1.613 . S
N973 C976 1.350 . S
N974 S972 1.610 . S
N974 C975 1.351 . S
C975 C969 1.428 . S
C975 N974 1.351 . S
C975 C976 1.434 . S
C976 C967 1.429 . S
C976 N973 1.350 . S
C976 C975 1.434 . S
C977 C978 1.369 . S
C977 C979 1.419 . S
C977 H981 0.930 . S
C978 C977 1.369 . S
C978 C987 1.429 . S
C979 C977 1.419 . S
C979 C980 1.363 . S
C979 H982 0.929 . S
C980 C979 1.363 . S
C980 C986 1.428 . S
H981 C977 0.930 . S
H982 C979 0.929 . S
S983 N984 1.613 . S
S983 N985 1.610 . S
N984 S983 1.613 . S
N984 C987 1.350 . S
N985 S983 1.610 . S
N985 C986 1.351 . S
C986 C980 1.428 . S
C986 N985 1.351 . S
C986 C987 1.434 . S
C987 C978 1.429 . S
C987 N984 1.350 . S
C987 C986 1.434 . S
C988 C989 1.369 . S
C988 C990 1.419 . S
C988 H992 0.930 . S
C989 C988 1.369 . S
C989 C998 1.429 . S
C990 C988 1.419 . S
C990 C991 1.363 . S
C990 H993 0.929 . S
C991 C990 1.363 . S
C991 C997 1.428 . S
H992 C988 0.930 . S
H993 C990 0.929 . S
S994 N995 1.613 . S
S994 N996 1.610 . S
N995 S994 1.613 . S
N995 C998 1.350 . S
N996 S994 1.610 . S
N996 C997 1.351 . S
C997 C991 1.428 . S
C997 N996 1.351 . S
C997 C998 1.434 . S
C998 C989 1.429 . S
C998 N995 1.350 . S
C998 C997 1.434 . S
C999 C1000 1.369 . S
C999 C1001 1.419 . S
C999 H1003 0.930 . S
C1000 C999 1.369 . S
C1000 C1009 1.429 . S
C1001 C999 1.419 . S
C1001 C1002 1.363 . S
C1001 H1004 0.929 . S
C1002 C1001 1.363 . S
C1002 C1008 1.428 . S
H1003 C999 0.930 . S
H1004 C1001 0.929 . S
S1005 N1006 1.613 . S
S1005 N1007 1.610 . S
N1006 S1005 1.613 . S
N1006 C1009 1.350 . S
N1007 S1005 1.610 . S
N1007 C1008 1.351 . S
C1008 C1002 1.428 . S
C1008 N1007 1.351 . S
C1008 C1009 1.434 . S
C1009 C1000 1.429 . S
C1009 N1006 1.350 . S
C1009 C1008 1.434 . S
C1010 C1011 1.369 . S
C1010 C1012 1.419 . S
C1010 H1014 0.930 . S
C1011 C1010 1.369 . S
C1011 C1020 1.429 . S
C1012 C1010 1.419 . S
C1012 C1013 1.363 . S
C1012 H1015 0.929 . S
C1013 C1012 1.363 . S
C1013 C1019 1.428 . S
H1014 C1010 0.930 . S
H1015 C1012 0.929 . S
S1016 N1017 1.613 . S
S1016 N1018 1.610 . S
N1017 S1016 1.613 . S
N1017 C1020 1.350 . S
N1018 S1016 1.610 . S
N1018 C1019 1.351 . S
C1019 C1013 1.428 . S
C1019 N1018 1.351 . S
C1019 C1020 1.434 . S
C1020 C1011 1.429 . S
C1020 N1017 1.350 . S
C1020 C1019 1.434 . S
C1021 C1022 1.369 . S
C1021 C1023 1.419 . S
C1021 H1025 0.930 . S
C1022 C1021 1.369 . S
C1022 C1031 1.429 . S
C1023 C1021 1.419 . S
C1023 C1024 1.363 . S
C1023 H1026 0.929 . S
C1024 C1023 1.363 . S
C1024 C1030 1.428 . S
H1025 C1021 0.930 . S
H1026 C1023 0.929 . S
S1027 N1028 1.613 . S
S1027 N1029 1.610 . S
N1028 S1027 1.613 . S
N1028 C1031 1.350 . S
N1029 S1027 1.610 . S
N1029 C1030 1.351 . S
C1030 C1024 1.428 . S
C1030 N1029 1.351 . S
C1030 C1031 1.434 . S
C1031 C1022 1.429 . S
C1031 N1028 1.350 . S
C1031 C1030 1.434 . S
C1032 C1033 1.369 . S
C1032 C1034 1.419 . S
C1032 H1036 0.930 . S
C1033 C1032 1.369 . S
C1033 C1042 1.429 . S
C1034 C1032 1.419 . S
C1034 C1035 1.363 . S
C1034 H1037 0.929 . S
C1035 C1034 1.363 . S
C1035 C1041 1.428 . S
H1036 C1032 0.930 . S
H1037 C1034 0.929 . S
S1038 N1039 1.613 . S
S1038 N1040 1.610 . S
N1039 S1038 1.613 . S
N1039 C1042 1.350 . S
N1040 S1038 1.610 . S
N1040 C1041 1.351 . S
C1041 C1035 1.428 . S
C1041 N1040 1.351 . S
C1041 C1042 1.434 . S
C1042 C1033 1.429 . S
C1042 N1039 1.350 . S
C1042 C1041 1.434 . S
C1043 C1044 1.369 . S
C1043 C1045 1.419 . S
C1043 H1047 0.930 . S
C1044 C1043 1.369 . S
C1044 C1053 1.429 . S
C1045 C1043 1.419 . S
C1045 C1046 1.363 . S
C1045 H1048 0.929 . S
C1046 C1045 1.363 . S
C1046 C1052 1.428 . S
H1047 C1043 0.930 . S
H1048 C1045 0.929 . S
S1049 N1050 1.613 . S
S1049 N1051 1.610 . S
N1050 S1049 1.613 . S
N1050 C1053 1.350 . S
N1051 S1049 1.610 . S
N1051 C1052 1.351 . S
C1052 C1046 1.428 . S
C1052 N1051 1.351 . S
C1052 C1053 1.434 . S
C1053 C1044 1.429 . S
C1053 N1050 1.350 . S
C1053 C1052 1.434 . S
C1054 C1055 1.369 . S
C1054 C1056 1.419 . S
C1054 H1058 0.930 . S
C1055 C1054 1.369 . S
C1055 C1064 1.429 . S
C1056 C1054 1.419 . S
C1056 C1057 1.363 . S
C1056 H1059 0.929 . S
C1057 C1056 1.363 . S
C1057 C1063 1.428 . S
H1058 C1054 0.930 . S
H1059 C1056 0.929 . S
S1060 N1061 1.613 . S
S1060 N1062 1.610 . S
N1061 S1060 1.613 . S
N1061 C1064 1.350 . S
N1062 S1060 1.610 . S
N1062 C1063 1.351 . S
C1063 C1057 1.428 . S
C1063 N1062 1.351 . S
C1063 C1064 1.434 . S
C1064 C1055 1.429 . S
C1064 N1061 1.350 . S
C1064 C1063 1.434 . S
C1065 C1066 1.369 . S
C1065 C1067 1.419 . S
C1065 H1069 0.930 . S
C1066 C1065 1.369 . S
C1066 C1075 1.429 . S
C1067 C1065 1.419 . S
C1067 C1068 1.363 . S
C1067 H1070 0.929 . S
C1068 C1067 1.363 . S
C1068 C1074 1.428 . S
H1069 C1065 0.930 . S
H1070 C1067 0.929 . S
S1071 N1072 1.613 . S
S1071 N1073 1.610 . S
N1072 S1071 1.613 . S
N1072 C1075 1.350 . S
N1073 S1071 1.610 . S
N1073 C1074 1.351 . S
C1074 C1068 1.428 . S
C1074 N1073 1.351 . S
C1074 C1075 1.434 . S
C1075 C1066 1.429 . S
C1075 N1072 1.350 . S
C1075 C1074 1.434 . S
C1076 C1077 1.369 . S
C1076 C1078 1.419 . S
C1076 H1080 0.930 . S
C1077 C1076 1.369 . S
C1077 C1086 1.429 . S
C1078 C1076 1.419 . S
C1078 C1079 1.363 . S
C1078 H1081 0.929 . S
C1079 C1078 1.363 . S
C1079 C1085 1.428 . S
H1080 C1076 0.930 . S
H1081 C1078 0.929 . S
S1082 N1083 1.620 . S
S1082 N1084 1.611 . S
N1083 S1082 1.620 . S
N1083 C1086 1.350 . S
N1084 S1082 1.611 . S
N1084 C1085 1.351 . S
C1085 C1079 1.428 . S
C1085 N1084 1.351 . S
C1085 C1086 1.434 . S
C1086 C1077 1.429 . S
C1086 N1083 1.350 . S
C1086 C1085 1.434 . S
C1087 C1088 1.369 . S
C1087 C1089 1.419 . S
C1087 H1091 0.930 . S
C1088 C1087 1.369 . S
C1088 C1097 1.429 . S
C1089 C1087 1.419 . S
C1089 C1090 1.363 . S
C1089 H1092 0.929 . S
C1090 C1089 1.363 . S
C1090 C1096 1.428 . S
H1091 C1087 0.930 . S
H1092 C1089 0.929 . S
S1093 N1094 1.613 . S
S1093 N1095 1.610 . S
N1094 S1093 1.613 . S
N1094 C1097 1.350 . S
N1095 S1093 1.610 . S
N1095 C1096 1.351 . S
C1096 C1090 1.428 . S
C1096 N1095 1.351 . S
C1096 C1097 1.434 . S
C1097 C1088 1.429 . S
C1097 N1094 1.350 . S
C1097 C1096 1.434 . S
C1098 C1099 1.369 . S
C1098 C1100 1.419 . S
C1098 H1102 0.930 . S
C1099 C1098 1.369 . S
C1099 C1108 1.429 . S
C1100 C1098 1.419 . S
C1100 C1101 1.363 . S
C1100 H1103 0.929 . S
C1101 C1100 1.363 . S
C1101 C1107 1.428 . S
H1102 C1098 0.930 . S
H1103 C1100 0.929 . S
S1104 N1105 1.613 . S
S1104 N1106 1.610 . S
N1105 S1104 1.613 . S
N1105 C1108 1.350 . S
N1106 S1104 1.610 . S
N1106 C1107 1.351 . S
C1107 C1101 1.428 . S
C1107 N1106 1.351 . S
C1107 C1108 1.434 . S
C1108 C1099 1.429 . S
C1108 N1105 1.350 . S
C1108 C1107 1.434 . S
C1109 C1110 1.369 . S
C1109 C1111 1.419 . S
C1109 H1113 0.930 . S
C1110 C1109 1.369 . S
C1110 C1119 1.429 . S
C1111 C1109 1.419 . S
C1111 C1112 1.363 . S
C1111 H1114 0.929 . S
C1112 C1111 1.363 . S
C1112 C1118 1.428 . S
H1113 C1109 0.930 . S
H1114 C1111 0.929 . S
S1115 N1116 1.613 . S
S1115 N1117 1.610 . S
N1116 S1115 1.613 . S
N1116 C1119 1.350 . S
N1117 S1115 1.610 . S
N1117 C1118 1.351 . S
C1118 C1112 1.428 . S
C1118 N1117 1.351 . S
C1118 C1119 1.434 . S
C1119 C1110 1.429 . S
C1119 N1116 1.350 . S
C1119 C1118 1.434 . S
C417 C91 1.701 1_455 S
C419 C0 1.669 1_565 S
C428 C13 1.725 . S
C430 C52 1.762 1_655 S
C439 C65 1.475 . S
C441 C26 1.449 . S
C450 C78 1.444 . S
C452 C39 1.545 1_545 S
C461 C104 1.671 1_565 S
C463 C286 1.697 . S
C472 C117 1.721 . S
C474 C247 1.765 1_655 S
C483 C377 1.478 . S
C485 C130 1.453 . S
C494 C351 1.452 . S
C496 C143 1.544 . S
C505 C156 1.765 . S
C507 C403 1.722 . S
C516 C169 1.478 . S
C518 C338 1.452 . S
C527 C182 1.449 . S
C529 C273 1.546 1_545 S
C538 C195 1.703 1_455 S
C540 C208 1.673 . S
C549 C221 1.698 . S
C551 C325 1.676 . S
C560 C234 1.453 . S
C562 C260 1.477 . S
C571 C390 1.547 . S
C573 C299 1.444 . S
C582 C364 1.764 . S
C584 C312 1.724 . S
C593 C140 0.856 . S
C595 C10 0.851 . S
C604 C148 1.002 . S
C606 C18 1.135 . S
C615 C114 0.852 . S
C617 C36 0.866 1_556 S
C626 C122 1.134 . S
C628 C44 1.003 . S
C637 C190 1.075 . S
C639 C62 1.010 . S
C648 C75 0.944 1_554 S
C650 C205 0.876 . S
C659 C86 1.081 . S
C661 C166 1.017 . S
C670 C101 0.867 . S
C672 C179 0.934 . S
C681 C164 0.830 . S
C683 C112 1.015 . S
C692 C127 0.983 . S
C694 C177 1.354 . S
C703 C187 0.800 . S
C705 C138 1.051 . S
C714 C153 0.922 . S
C716 C203 1.099 . S
C725 C309 1.233 . S
C727 C213 0.962 . S
C736 C31 0.970 . S
C738 C161 1.307 . S
C747 C47 0.921 . S
C749 C174 0.805 . S
C758 C5 0.964 . S
C760 C192 1.233 . S
C769 C226 0.874 . S
C771 C411 0.981 . S
C780 C252 1.306 . S
C782 C239 0.980 . S
C791 C21 0.978 . S
C793 C200 0.867 . S
C802 C307 1.086 . S
C804 C257 1.022 . S
C813 C270 0.936 1_554 S
C815 C296 0.885 . S
C824 C218 0.859 . S
C826 C244 0.865 1_556 S
C835 C278 1.008 . S
C837 C317 1.140 . S
C846 C320 0.974 . S
C848 C291 0.861 . S
C857 C135 0.971 . S
C859 C57 1.307 . S
C868 C268 1.354 . S
C870 C322 0.962 . S
C879 C99 1.098 . S
C881 C49 0.920 . S
C890 C372 0.860 . S
C892 C333 1.015 . S
C901 C73 1.353 . S
C903 C23 0.963 . S
C912 C216 1.020 . S
C914 C255 0.853 . S
C923 C335 0.857 . S
C925 C348 0.873 . S
C934 C359 1.090 . S
C936 C374 1.026 . S
C945 C304 0.799 . S
C947 C242 1.056 . S
C956 C343 0.993 . S
C958 C369 1.310 . S
C967 C151 0.920 . S
C969 C70 0.806 . S
C978 C96 0.865 . S
C980 C125 0.978 . S
C989 C231 0.894 . S
C991 C387 0.945 . S
C1000 C395 1.022 . S
C1002 C408 1.145 . S
C1011 C413 0.970 . S
C1013 C385 1.358 . S
C1022 C60 0.860 . S
C1024 C8 1.015 . S
C1033 C34 1.060 . S
C1035 C83 0.809 . S
C1044 C400 0.910 . S
C1046 C229 1.102 . S
C1055 C330 0.981 . S
C1057 C361 1.235 . S
C1066 C265 0.817 . S
C1068 C281 0.925 . S
C1077 C88 1.235 . S
C1079 C109 0.978 . S
C1088 C294 1.098 . S
C1090 C283 0.922 . S
C1099 C346 1.050 . S
C1101 C356 0.804 . S
C1110 C398 0.921 . S
C1112 C382 0.805 . S
