# Generated by pormake.
# Topology umc, (4)-cn, num edge types: 1
# Building blocks:
#     Node 0, Type 0, BuildingBlock: GALJAG_clean_sbu_0, # of connection points: 4
#     Node 1, Type 0, BuildingBlock: GALJAG_clean_sbu_0, # of connection points: 4
#     Node 2, Type 0, BuildingBlock: GALJAG_clean_sbu_0, # of connection points: 4
#     Node 3, Type 0, BuildingBlock: GALJAG_clean_sbu_0, # of connection points: 4
#     Node 4, Type 0, BuildingBlock: GALJAG_clean_sbu_0, # of connection points: 4
#     Node 5, Type 0, BuildingBlock: GALJAG_clean_sbu_0, # of connection points: 4
#     Node 6, Type 0, BuildingBlock: GALJAG_clean_sbu_0, # of connection points: 4
#     Node 7, Type 0, BuildingBlock: GALJAG_clean_sbu_0, # of connection points: 4
#     Node 8, Type 0, BuildingBlock: GALJAG_clean_sbu_0, # of connection points: 4
#     Node 9, Type 0, BuildingBlock: GALJAG_clean_sbu_0, # of connection points: 4
#     Node 10, Type 0, BuildingBlock: GALJAG_clean_sbu_0, # of connection points: 4
#     Node 11, Type 0, BuildingBlock: GALJAG_clean_sbu_0, # of connection points: 4
#     Node 12, Type 0, BuildingBlock: GALJAG_clean_sbu_0, # of connection points: 4
#     Node 13, Type 0, BuildingBlock: GALJAG_clean_sbu_0, # of connection points: 4
#     Node 14, Type 0, BuildingBlock: GALJAG_clean_sbu_0, # of connection points: 4
#     Node 15, Type 0, BuildingBlock: GALJAG_clean_sbu_0, # of connection points: 4
#     Edge 16, Type (0, 0), BuildingBlock: UVAHIK_clean_linker_0, # of connection points: 2
#     Edge 17, Type (0, 0), BuildingBlock: UVAHIK_clean_linker_0, # of connection points: 2
#     Edge 18, Type (0, 0), BuildingBlock: UVAHIK_clean_linker_0, # of connection points: 2
#     Edge 19, Type (0, 0), BuildingBlock: UVAHIK_clean_linker_0, # of connection points: 2
#     Edge 20, Type (0, 0), BuildingBlock: UVAHIK_clean_linker_0, # of connection points: 2
#     Edge 21, Type (0, 0), BuildingBlock: UVAHIK_clean_linker_0, # of connection points: 2
#     Edge 22, Type (0, 0), BuildingBlock: UVAHIK_clean_linker_0, # of connection points: 2
#     Edge 23, Type (0, 0), BuildingBlock: UVAHIK_clean_linker_0, # of connection points: 2
#     Edge 24, Type (0, 0), BuildingBlock: UVAHIK_clean_linker_0, # of connection points: 2
#     Edge 25, Type (0, 0), BuildingBlock: UVAHIK_clean_linker_0, # of connection points: 2
#     Edge 26, Type (0, 0), BuildingBlock: UVAHIK_clean_linker_0, # of connection points: 2
#     Edge 27, Type (0, 0), BuildingBlock: UVAHIK_clean_linker_0, # of connection points: 2
#     Edge 28, Type (0, 0), BuildingBlock: UVAHIK_clean_linker_0, # of connection points: 2
#     Edge 29, Type (0, 0), BuildingBlock: UVAHIK_clean_linker_0, # of connection points: 2
#     Edge 30, Type (0, 0), BuildingBlock: UVAHIK_clean_linker_0, # of connection points: 2
#     Edge 31, Type (0, 0), BuildingBlock: UVAHIK_clean_linker_0, # of connection points: 2
#     Edge 32, Type (0, 0), BuildingBlock: UVAHIK_clean_linker_0, # of connection points: 2
#     Edge 33, Type (0, 0), BuildingBlock: UVAHIK_clean_linker_0, # of connection points: 2
#     Edge 34, Type (0, 0), BuildingBlock: UVAHIK_clean_linker_0, # of connection points: 2
#     Edge 35, Type (0, 0), BuildingBlock: UVAHIK_clean_linker_0, # of connection points: 2
#     Edge 36, Type (0, 0), BuildingBlock: UVAHIK_clean_linker_0, # of connection points: 2
#     Edge 37, Type (0, 0), BuildingBlock: UVAHIK_clean_linker_0, # of connection points: 2
#     Edge 38, Type (0, 0), BuildingBlock: UVAHIK_clean_linker_0, # of connection points: 2
#     Edge 39, Type (0, 0), BuildingBlock: UVAHIK_clean_linker_0, # of connection points: 2
#     Edge 40, Type (0, 0), BuildingBlock: UVAHIK_clean_linker_0, # of connection points: 2
#     Edge 41, Type (0, 0), BuildingBlock: UVAHIK_clean_linker_0, # of connection points: 2
#     Edge 42, Type (0, 0), BuildingBlock: UVAHIK_clean_linker_0, # of connection points: 2
#     Edge 43, Type (0, 0), BuildingBlock: UVAHIK_clean_linker_0, # of connection points: 2
#     Edge 44, Type (0, 0), BuildingBlock: UVAHIK_clean_linker_0, # of connection points: 2
#     Edge 45, Type (0, 0), BuildingBlock: UVAHIK_clean_linker_0, # of connection points: 2
#     Edge 46, Type (0, 0), BuildingBlock: UVAHIK_clean_linker_0, # of connection points: 2
#     Edge 47, Type (0, 0), BuildingBlock: UVAHIK_clean_linker_0, # of connection points: 2
# Relax obj value: 0.064
# Max RMSD: 0.131
# Mean RMSD: 0.131
data_MOF--net-umc--node1-GALJAG_clean_sbu_0--edge1-UVAHIK_clean_linker_0
_symmetry_space_group_name_H-M    P1
_symmetry_Int_Tables_number       1
_symmetry_cell_setting            triclinic
loop_
_symmetry_equiv_pos_as_xyz
'x, y, z'
_cell_length_a     53.372306
_cell_length_b     48.949177
_cell_length_c     73.344321
_cell_angle_alpha  89.956672
_cell_angle_beta   89.983153
_cell_angle_gamma 90.002562
loop_
_atom_site_label
_atom_site_type_symbol
_atom_site_fract_x
_atom_site_fract_y
_atom_site_fract_z
_atom_type_partial_charge
In0 In 0.32839 0.06338 0.36797 0.0
O1 O 0.33213 0.10993 0.36757 0.0
O2 O 0.29557 0.09253 0.36634 0.0
C3 C 0.37653 0.04632 0.36789 0.0
C4 C 0.31339 0.04995 0.40179 0.0
C5 C 0.31267 0.0466 0.33506 0.0
O6 O 0.37068 0.0713 0.36704 0.0
O7 O 0.35817 0.03018 0.36895 0.0
O8 O 0.30377 0.03676 0.34963 0.0
O9 O 0.3295 0.06438 0.33724 0.0
C10 C 0.30874 0.11394 0.36666 0.0
O11 O 0.30803 0.03522 0.38819 0.0
O12 O 0.32649 0.07072 0.39825 0.0
In13 In 0.67942 0.93366 0.36674 0.0
O14 O 0.7023 0.95632 0.38854 0.0
O15 O 0.669 0.93569 0.39654 0.0
C16 C 0.69847 0.95343 0.33543 0.0
C17 C 0.69863 0.88276 0.36819 0.0
C18 C 0.63133 0.94937 0.36228 0.0
O19 O 0.70057 0.96601 0.35039 0.0
O20 O 0.68707 0.9309 0.33638 0.0
O21 O 0.63751 0.92448 0.3634 0.0
O22 O 0.64937 0.96596 0.36308 0.0
C23 C 0.68739 0.95018 0.40128 0.0
O24 O 0.6755 0.88713 0.36591 0.0
O25 O 0.71186 0.90399 0.36976 0.0
In26 In 0.32714 0.93586 0.12182 0.0
O27 O 0.33194 0.88943 0.12277 0.0
O28 O 0.29505 0.90586 0.12454 0.0
C29 C 0.37492 0.95405 0.12059 0.0
C30 C 0.31061 0.94784 0.08813 0.0
C31 C 0.31219 0.95344 0.15475 0.0
O32 O 0.3696 0.92899 0.122 0.0
O33 O 0.35621 0.96972 0.11968 0.0
O34 O 0.30265 0.96259 0.1402 0.0
O35 O 0.32927 0.93595 0.15253 0.0
C36 C 0.30869 0.88481 0.12424 0.0
O37 O 0.30535 0.96278 0.10165 0.0
O38 O 0.32434 0.92757 0.09168 0.0
In39 In 0.67792 0.06911 0.12174 0.0
O40 O 0.6752 0.11565 0.12065 0.0
O41 O 0.71149 0.09747 0.12183 0.0
C42 C 0.62923 0.05353 0.122 0.0
C43 C 0.69317 0.05206 0.08866 0.0
C44 C 0.69332 0.054 0.15518 0.0
O45 O 0.63563 0.07837 0.12162 0.0
O46 O 0.64726 0.03694 0.12227 0.0
O47 O 0.69927 0.04075 0.14104 0.0
O48 O 0.67962 0.07457 0.15239 0.0
C49 C 0.6987 0.11916 0.12105 0.0
O50 O 0.69838 0.03893 0.103 0.0
O51 O 0.68031 0.07334 0.09109 0.0
In52 In 0.67664 0.9344 0.62521 0.0
O53 O 0.69947 0.95775 0.60371 0.0
O54 O 0.66645 0.9369 0.59537 0.0
C55 C 0.69664 0.95227 0.65667 0.0
C56 C 0.69546 0.88334 0.62322 0.0
C57 C 0.62881 0.95096 0.62995 0.0
O58 O 0.69923 0.96519 0.64186 0.0
O59 O 0.68408 0.93052 0.6555 0.0
O60 O 0.63459 0.92602 0.62831 0.0
O61 O 0.64713 0.96722 0.62951 0.0
C62 C 0.68478 0.95164 0.59084 0.0
O63 O 0.67242 0.88783 0.62587 0.0
O64 O 0.70873 0.9045 0.62147 0.0
In65 In 0.32668 0.0679 0.62252 0.0
O66 O 0.32982 0.11452 0.62206 0.0
O67 O 0.29347 0.09667 0.62373 0.0
C68 C 0.37502 0.05125 0.62381 0.0
C69 C 0.31236 0.05387 0.58865 0.0
C70 C 0.3097 0.04991 0.65485 0.0
O71 O 0.36898 0.07613 0.6251 0.0
O72 O 0.35683 0.03516 0.62176 0.0
O73 O 0.30387 0.03843 0.64003 0.0
O74 O 0.32409 0.07023 0.65329 0.0
C75 C 0.30639 0.11825 0.62296 0.0
O76 O 0.30587 0.04011 0.60244 0.0
O77 O 0.32619 0.07413 0.59201 0.0
In78 In 0.67785 0.05836 0.86963 0.0
O79 O 0.67284 0.10484 0.8697 0.0
O80 O 0.7087 0.08871 0.8763 0.0
C81 C 0.62943 0.04412 0.86473 0.0
C82 C 0.68854 0.03631 0.90242 0.0
C83 C 0.69772 0.04408 0.83724 0.0
O84 O 0.63588 0.06809 0.86911 0.0
O85 O 0.64738 0.02766 0.8626 0.0
O86 O 0.69764 0.02806 0.85074 0.0
O87 O 0.68784 0.06705 0.84012 0.0
C88 C 0.69535 0.10968 0.87395 0.0
O89 O 0.70348 0.03467 0.88913 0.0
O90 O 0.66846 0.0489 0.89911 0.0
In91 In 0.3252 0.93367 0.86732 0.0
O92 O 0.30256 0.95963 0.88749 0.0
O93 O 0.32552 0.9276 0.89782 0.0
C94 C 0.30802 0.95153 0.835 0.0
C95 C 0.30573 0.88301 0.86698 0.0
C96 C 0.37363 0.95005 0.86612 0.0
O97 O 0.30493 0.96507 0.84948 0.0
O98 O 0.31981 0.92941 0.83688 0.0
O99 O 0.36737 0.92534 0.8642 0.0
O100 O 0.35558 0.96617 0.86868 0.0
C101 C 0.31021 0.94652 0.90125 0.0
O102 O 0.32913 0.88721 0.86724 0.0
O103 O 0.29238 0.90433 0.86687 0.0
In104 In 0.82351 0.56139 0.36766 0.0
O105 O 0.80111 0.53828 0.38955 0.0
O106 O 0.83527 0.55756 0.3971 0.0
C107 C 0.80172 0.5453 0.33639 0.0
C108 C 0.80576 0.61269 0.37075 0.0
C109 C 0.87087 0.54475 0.36104 0.0
O110 O 0.80164 0.53043 0.35049 0.0
O111 O 0.81257 0.56801 0.33819 0.0
O112 O 0.86544 0.56963 0.36349 0.0
O113 O 0.85244 0.52865 0.36164 0.0
C114 C 0.81672 0.54345 0.40203 0.0
O115 O 0.82851 0.60779 0.36721 0.0
O116 O 0.79226 0.59177 0.37294 0.0
In117 In 0.17319 0.43016 0.36654 0.0
O118 O 0.17021 0.38365 0.36534 0.0
O119 O 0.20649 0.40154 0.36765 0.0
C120 C 0.12481 0.44608 0.3635 0.0
C121 C 0.18411 0.44463 0.40101 0.0
C122 C 0.19313 0.44796 0.33504 0.0
O123 O 0.13112 0.42121 0.36341 0.0
O124 O 0.14277 0.46257 0.36516 0.0
O125 O 0.19825 0.45899 0.35016 0.0
O126 O 0.17793 0.42829 0.3359 0.0
C127 C 0.19363 0.37996 0.36646 0.0
O128 O 0.19056 0.4591 0.38755 0.0
O129 O 0.17211 0.42326 0.39705 0.0
In130 In 0.82969 0.43758 0.12382 0.0
O131 O 0.83442 0.391 0.1238 0.0
O132 O 0.79829 0.40737 0.11844 0.0
C133 C 0.87785 0.45284 0.12857 0.0
C134 C 0.81973 0.45779 0.0904 0.0
C135 C 0.80978 0.45369 0.1558 0.0
O136 O 0.87166 0.4283 0.12564 0.0
O137 O 0.85977 0.46941 0.12929 0.0
O138 O 0.80781 0.46774 0.14143 0.0
O139 O 0.82179 0.43168 0.15399 0.0
C140 C 0.81164 0.38631 0.1203 0.0
O141 O 0.80487 0.46088 0.10364 0.0
O142 O 0.8394 0.44467 0.09408 0.0
In143 In 0.18156 0.56443 0.1251 0.0
O144 O 0.20338 0.5399 0.10367 0.0
O145 O 0.17759 0.57027 0.09476 0.0
C146 C 0.2012 0.54634 0.15662 0.0
C147 C 0.20059 0.61527 0.12528 0.0
C148 C 0.13341 0.54761 0.12795 0.0
O149 O 0.20284 0.53268 0.14206 0.0
O150 O 0.18962 0.56866 0.15521 0.0
O151 O 0.13946 0.57253 0.12872 0.0
O152 O 0.15155 0.53146 0.12582 0.0
C153 C 0.19351 0.5524 0.09041 0.0
O154 O 0.17735 0.61075 0.12699 0.0
O155 O 0.214 0.59417 0.12348 0.0
In156 In 0.17422 0.43618 0.62448 0.0
O157 O 0.16958 0.38957 0.62514 0.0
O158 O 0.20545 0.40595 0.61886 0.0
C159 C 0.12683 0.45286 0.63089 0.0
C160 C 0.1819 0.45493 0.59041 0.0
C161 C 0.19603 0.45297 0.65558 0.0
O162 O 0.13224 0.428 0.62835 0.0
O163 O 0.14527 0.46896 0.63035 0.0
O164 O 0.19742 0.46657 0.64097 0.0
O165 O 0.18375 0.43103 0.65441 0.0
C166 C 0.19226 0.3849 0.62128 0.0
O167 O 0.19743 0.45899 0.60311 0.0
O168 O 0.16272 0.44151 0.59494 0.0
In169 In 0.82441 0.5637 0.62637 0.0
O170 O 0.80214 0.54038 0.6046 0.0
O171 O 0.83596 0.56018 0.59681 0.0
C172 C 0.80321 0.54586 0.65748 0.0
C173 C 0.80538 0.61451 0.62334 0.0
C174 C 0.8723 0.54884 0.63297 0.0
O175 O 0.80385 0.53138 0.64324 0.0
O176 O 0.81304 0.56916 0.65592 0.0
O177 O 0.86589 0.5736 0.63134 0.0
O178 O 0.85458 0.53196 0.6315 0.0
C179 C 0.81752 0.54579 0.59201 0.0
O180 O 0.82838 0.61026 0.62637 0.0
O181 O 0.79226 0.5932 0.62167 0.0
In182 In 0.1759 0.56378 0.86704 0.0
O183 O 0.17174 0.61021 0.86539 0.0
O184 O 0.20833 0.59346 0.8688 0.0
C185 C 0.12793 0.54623 0.86474 0.0
C186 C 0.1885 0.55105 0.9015 0.0
C187 C 0.19509 0.5473 0.83503 0.0
O188 O 0.13353 0.5713 0.86497 0.0
O189 O 0.14643 0.53028 0.86554 0.0
O190 O 0.1979 0.53348 0.84946 0.0
O191 O 0.18247 0.56889 0.83682 0.0
C192 C 0.19499 0.61463 0.86712 0.0
O193 O 0.19807 0.53874 0.88805 0.0
O194 O 0.17249 0.56898 0.89745 0.0
In195 In 0.82576 0.4285 0.86894 0.0
O196 O 0.80669 0.45797 0.88886 0.0
O197 O 0.82437 0.42245 0.89953 0.0
C198 C 0.80805 0.44579 0.83659 0.0
C199 C 0.80606 0.37787 0.86906 0.0
C200 C 0.87413 0.44515 0.86757 0.0
O201 O 0.80141 0.45654 0.85148 0.0
O202 O 0.82359 0.42649 0.83808 0.0
O203 O 0.86812 0.42022 0.86677 0.0
O204 O 0.85588 0.4613 0.86907 0.0
C205 C 0.8121 0.44391 0.90274 0.0
O206 O 0.82945 0.38198 0.8697 0.0
O207 O 0.79285 0.39924 0.86824 0.0
C208 C 0.29662 0.0181 0.42578 0.0
C209 C 0.30457 0.04429 0.42044 0.0
C210 C 0.28942 0.01316 0.44389 0.0
C211 C 0.2688 0.04857 0.48564 0.0
H212 H 0.30866 0.99584 0.51241 0.0
C213 C 0.30497 0.06806 0.55664 0.0
C214 C 0.30401 0.04755 0.56998 0.0
C215 C 0.29764 0.06257 0.53882 0.0
C216 C 0.29686 0.01012 0.50509 0.0
H217 H 0.31044 0.08596 0.42951 0.0
H218 H 0.29765 0.07751 0.46075 0.0
H219 H 0.30866 0.99504 0.47902 0.0
H220 H 0.29456 0.00522 0.57528 0.0
H221 H 0.28242 0.99527 0.54358 0.0
H222 H 0.25845 0.06494 0.5116 0.0
C223 C 0.29694 0.06076 0.45111 0.0
C224 C 0.29684 0.00965 0.48601 0.0
C225 C 0.30451 0.06554 0.43326 0.0
C226 C 0.29541 0.02138 0.5652 0.0
C227 C 0.28849 0.01569 0.54716 0.0
C228 C 0.26885 0.04907 0.50463 0.0
C229 C 0.28952 0.03453 0.45668 0.0
C230 C 0.28387 0.02982 0.47617 0.0
C231 C 0.28951 0.03633 0.53386 0.0
C232 C 0.28391 0.03077 0.51448 0.0
H233 H 0.29654 0.00138 0.41612 0.0
H234 H 0.28389 0.99274 0.44791 0.0
H235 H 0.25833 0.06407 0.47834 0.0
H236 H 0.31143 0.08844 0.55997 0.0
H237 H 0.29901 0.07872 0.52876 0.0
C238 C 0.71156 0.97113 0.56584 0.0
C239 C 0.68845 0.96071 0.57186 0.0
C240 C 0.71497 0.9781 0.54746 0.0
C241 C 0.67989 0.99395 0.50532 0.0
H242 H 0.73411 0.95763 0.4798 0.0
C243 C 0.6706 0.95665 0.43254 0.0
C244 C 0.69068 0.95918 0.4203 0.0
C245 C 0.67338 0.96418 0.45071 0.0
C246 C 0.71923 0.96848 0.48675 0.0
H247 H 0.65063 0.95022 0.56365 0.0
H248 H 0.65646 0.9625 0.53185 0.0
H249 H 0.73359 0.95805 0.51316 0.0
H250 H 0.72938 0.97186 0.41737 0.0
H251 H 0.73445 0.98461 0.44959 0.0
H252 H 0.66481 0.00312 0.47901 0.0
C253 C 0.67194 0.96541 0.5412 0.0
C254 C 0.71893 0.96872 0.50583 0.0
C255 C 0.66867 0.95814 0.55939 0.0
C256 C 0.71361 0.96974 0.42656 0.0
C257 C 0.71651 0.97697 0.44493 0.0
C258 C 0.68019 0.99371 0.48632 0.0
C259 C 0.69516 0.9752 0.53498 0.0
C260 C 0.69866 0.98041 0.51525 0.0
C261 C 0.69638 0.97421 0.45716 0.0
C262 C 0.69926 0.97992 0.47687 0.0
H263 H 0.72712 0.97327 0.5752 0.0
H264 H 0.73305 0.98558 0.54299 0.0
H265 H 0.66429 0.00355 0.51226 0.0
H266 H 0.65269 0.94864 0.4281 0.0
H267 H 0.65766 0.96136 0.45987 0.0
C268 C 0.30204 0.93165 0.05675 0.0
C269 C 0.30125 0.95291 0.06955 0.0
C270 C 0.29417 0.936 0.03891 0.0
C271 C 0.29138 0.98761 0.00418 0.0
H272 H 0.25701 0.9298 0.97807 0.0
C273 C 0.29082 0.97711 0.92486 0.0
C274 C 0.30145 0.95189 0.91995 0.0
C275 C 0.28349 0.98191 0.94294 0.0
C276 C 0.26625 0.94636 0.98519 0.0
H277 H 0.29128 0.99533 0.07388 0.0
H278 H 0.27801 0.00322 0.04216 0.0
H279 H 0.25662 0.93011 0.01134 0.0
H280 H 0.31205 0.91172 0.92976 0.0
H281 H 0.29888 0.91987 0.961 0.0
H282 H 0.30231 0.00283 0.97791 0.0
C283 C 0.2845 0.98312 0.04616 0.0
C284 C 0.26607 0.94653 0.00419 0.0
C285 C 0.29204 0.97861 0.06423 0.0
C286 C 0.30402 0.93139 0.93319 0.0
C287 C 0.29627 0.93596 0.95103 0.0
C288 C 0.2915 0.98749 0.9851 0.0
C289 C 0.28555 0.96179 0.03335 0.0
C290 C 0.27977 0.96628 0.01385 0.0
C291 C 0.2861 0.96127 0.95613 0.0
C292 C 0.28004 0.96603 0.97552 0.0
H293 H 0.30894 0.91159 0.06048 0.0
H294 H 0.29566 0.91931 0.02928 0.0
H295 H 0.30214 0.00304 0.0113 0.0
H296 H 0.2887 0.99324 0.91486 0.0
H297 H 0.27582 0.00164 0.94663 0.0
C298 C 0.71935 0.02091 0.92604 0.0
C299 C 0.69447 0.02604 0.92082 0.0
C300 C 0.72506 0.01492 0.94423 0.0
C301 C 0.69733 0.99573 0.98884 0.0
H302 H 0.74353 0.04899 0.00885 0.0
C303 C 0.70207 0.06277 0.05622 0.0
C304 C 0.70109 0.04342 0.07032 0.0
C305 C 0.70781 0.05479 0.03849 0.0
C306 C 0.73094 0.03366 0.00344 0.0
H307 H 0.65592 0.02708 0.93009 0.0
H308 H 0.6658 0.01641 0.96169 0.0
H309 H 0.74071 0.04313 0.97587 0.0
H310 H 0.70584 0.00065 0.07713 0.0
H311 H 0.71514 0.98642 0.04569 0.0
H312 H 0.68651 0.9875 0.01644 0.0
C313 C 0.68093 0.01701 0.95184 0.0
C314 C 0.72943 0.03016 0.98459 0.0
C315 C 0.67528 0.02337 0.93378 0.0
C316 C 0.70655 0.01595 0.06646 0.0
C317 C 0.71182 0.00782 0.04855 0.0
C318 C 0.69904 0.99904 0.00773 0.0
C319 C 0.70592 0.0135 0.95737 0.0
C320 C 0.71181 0.01204 0.97709 0.0
C321 C 0.7123 0.02721 0.0344 0.0
C322 C 0.71505 0.01891 0.01512 0.0
H323 H 0.73449 0.02282 0.91628 0.0
H324 H 0.74447 0.01225 0.94815 0.0
H325 H 0.68373 0.98148 0.98339 0.0
H326 H 0.69804 0.08411 0.05885 0.0
H327 H 0.7077 0.07009 0.0278 0.0
C328 C 0.83458 0.53873 0.56084 0.0
C329 C 0.81442 0.53647 0.57303 0.0
C330 C 0.83179 0.53124 0.54264 0.0
C331 C 0.7855 0.52741 0.50669 0.0
H332 H 0.83998 0.49233 0.48067 0.0
C333 C 0.79073 0.52437 0.42762 0.0
C334 C 0.81375 0.53428 0.42107 0.0
C335 C 0.78798 0.51755 0.44608 0.0
C336 C 0.82452 0.50198 0.48775 0.0
H337 H 0.77559 0.52419 0.57587 0.0
H338 H 0.77055 0.51144 0.54368 0.0
H339 H 0.84018 0.493 0.51392 0.0
H340 H 0.8521 0.54391 0.42842 0.0
H341 H 0.84737 0.53201 0.46036 0.0
H342 H 0.77053 0.5376 0.48045 0.0
C343 C 0.78854 0.5189 0.54836 0.0
C344 C 0.82464 0.50236 0.50676 0.0
C345 C 0.79144 0.52611 0.56673 0.0
C346 C 0.83411 0.5364 0.43308 0.0
C347 C 0.83146 0.52933 0.45137 0.0
C348 C 0.7854 0.52705 0.48762 0.0
C349 C 0.8087 0.52151 0.53615 0.0
C350 C 0.80568 0.51605 0.5164 0.0
C351 C 0.80833 0.52014 0.45814 0.0
C352 C 0.80547 0.51532 0.47798 0.0
H353 H 0.85253 0.5466 0.56531 0.0
H354 H 0.84755 0.53393 0.5335 0.0
H355 H 0.7707 0.5382 0.51378 0.0
H356 H 0.77473 0.52256 0.41862 0.0
H357 H 0.76995 0.51049 0.45096 0.0
C358 C 0.21043 0.47011 0.56529 0.0
C359 C 0.18619 0.46385 0.57149 0.0
C360 C 0.21468 0.47546 0.5468 0.0
C361 C 0.18386 0.49308 0.50333 0.0
H362 H 0.23062 0.44201 0.48149 0.0
C363 C 0.18996 0.43134 0.43343 0.0
C364 C 0.19008 0.45179 0.42001 0.0
C365 C 0.19461 0.43786 0.4516 0.0
C366 C 0.21782 0.4567 0.48743 0.0
H367 H 0.14722 0.45989 0.56359 0.0
H368 H 0.15458 0.46964 0.53143 0.0
H369 H 0.22877 0.44646 0.51466 0.0
H370 H 0.19535 0.49503 0.41492 0.0
H371 H 0.20265 0.50666 0.4471 0.0
H372 H 0.17216 0.50238 0.47606 0.0
C373 C 0.17029 0.47032 0.54077 0.0
C374 C 0.21686 0.45938 0.50636 0.0
C375 C 0.16612 0.46451 0.55914 0.0
C376 C 0.19522 0.47891 0.42505 0.0
C377 C 0.19935 0.48555 0.44337 0.0
C378 C 0.18509 0.4907 0.48436 0.0
C379 C 0.19468 0.47519 0.53435 0.0
C380 C 0.19923 0.47683 0.51449 0.0
C381 C 0.19902 0.46504 0.45677 0.0
C382 C 0.20143 0.47173 0.47632 0.0
H383 H 0.22622 0.46972 0.57456 0.0
H384 H 0.23365 0.47917 0.54216 0.0
H385 H 0.17018 0.50676 0.5093 0.0
H386 H 0.18614 0.41026 0.42989 0.0
H387 H 0.19393 0.42174 0.46172 0.0
C388 C 0.80013 0.47921 0.9259 0.0
C389 C 0.80512 0.45183 0.92143 0.0
C390 C 0.79566 0.48666 0.94404 0.0
C391 C 0.80995 0.4937 0.98472 0.0
H392 H 0.76797 0.44988 0.01653 0.0
C393 C 0.83339 0.46866 0.05879 0.0
C394 C 0.81411 0.46724 0.07177 0.0
C395 C 0.82796 0.47463 0.04063 0.0
C396 C 0.77938 0.46273 0.00782 0.0
H397 H 0.80818 0.41066 0.93209 0.0
H398 H 0.79987 0.42355 0.96359 0.0
H399 H 0.76466 0.4446 0.9835 0.0
H400 H 0.77421 0.47206 0.07621 0.0
H401 H 0.76459 0.48187 0.04416 0.0
H402 H 0.82584 0.51054 0.00909 0.0
C403 C 0.79954 0.43926 0.95318 0.0
C404 C 0.77759 0.45957 0.98895 0.0
C405 C 0.8045 0.43192 0.93519 0.0
C406 C 0.7894 0.47303 0.06643 0.0
C407 C 0.7839 0.47859 0.04815 0.0
C408 C 0.81197 0.49662 0.00361 0.0
C409 C 0.79551 0.46673 0.95783 0.0
C410 C 0.79348 0.47433 0.97728 0.0
C411 C 0.80311 0.47895 0.03503 0.0
C412 C 0.79731 0.48045 0.01533 0.0
H413 H 0.80056 0.49493 0.9155 0.0
H414 H 0.79267 0.50798 0.94734 0.0
H415 H 0.8225 0.50521 0.976 0.0
H416 H 0.85262 0.4644 0.06257 0.0
H417 H 0.8431 0.47443 0.03078 0.0
C418 C 0.21375 0.52421 0.06581 0.0
C419 C 0.20056 0.54771 0.07124 0.0
C420 C 0.21993 0.52027 0.04741 0.0
C421 C 0.22919 0.55822 0.00481 0.0
H422 H 0.20141 0.49569 0.9794 0.0
C423 C 0.18981 0.56577 0.9338 0.0
C424 C 0.19619 0.54634 0.92054 0.0
C425 C 0.19725 0.56231 0.95182 0.0
C426 C 0.20988 0.51289 0.98635 0.0
H427 H 0.18387 0.58561 0.06187 0.0
H428 H 0.19491 0.57895 0.03008 0.0
H429 H 0.20245 0.49609 0.01286 0.0
H430 H 0.21514 0.50785 0.91569 0.0
H431 H 0.22764 0.50135 0.94775 0.0
H432 H 0.23508 0.57584 0.97847 0.0
C433 C 0.20049 0.56358 0.03992 0.0
C434 C 0.21048 0.51312 0.00544 0.0
C435 C 0.19398 0.56727 0.0581 0.0
C436 C 0.21004 0.52314 0.92569 0.0
C437 C 0.21716 0.51942 0.94394 0.0
C438 C 0.22858 0.55799 0.98583 0.0
C439 C 0.21349 0.54009 0.03437 0.0
C440 C 0.21899 0.5364 0.01477 0.0
C441 C 0.21101 0.53919 0.95707 0.0
C442 C 0.21778 0.53593 0.97648 0.0
H443 H 0.21899 0.50881 0.07572 0.0
H444 H 0.22985 0.50192 0.04339 0.0
H445 H 0.23617 0.57623 0.01172 0.0
H446 H 0.17921 0.58388 0.93025 0.0
H447 H 0.1919 0.57762 0.96175 0.0
C448 C 0.58508 0.94007 0.36204 0.0
C449 C 0.60503 0.95873 0.36115 0.0
C450 C 0.56026 0.94937 0.36216 0.0
C451 C 0.52276 0.01082 0.37283 0.0
H452 H 0.47035 0.97338 0.34612 0.0
C453 C 0.42274 0.05498 0.36575 0.0
C454 C 0.40272 0.0365 0.36728 0.0
C455 C 0.44743 0.04548 0.36481 0.0
C456 C 0.48473 0.9839 0.35381 0.0
H457 H 0.61467 0.00169 0.35918 0.0
H458 H 0.57153 0.01783 0.35914 0.0
H459 H 0.51334 0.95658 0.34449 0.0
H460 H 0.39284 0.99361 0.36917 0.0
H461 H 0.43586 0.97707 0.36772 0.0
H462 H 0.49419 0.0381 0.38218 0.0
C463 C 0.57496 0.99607 0.36008 0.0
C464 C 0.50937 0.97427 0.35288 0.0
C465 C 0.5997 0.98679 0.35997 0.0
C466 C 0.40787 0.00837 0.36795 0.0
C467 C 0.43252 0.99887 0.36699 0.0
C468 C 0.49815 0.02045 0.37376 0.0
C469 C 0.55494 0.97752 0.3614 0.0
C470 C 0.52869 0.98764 0.36236 0.0
C471 C 0.45261 0.01729 0.36536 0.0
C472 C 0.47883 0.00712 0.36427 0.0
H473 H 0.58862 0.91834 0.36302 0.0
H474 H 0.54528 0.93455 0.36334 0.0
H475 H 0.5371 0.02132 0.38057 0.0
H476 H 0.41933 0.07677 0.36515 0.0
H477 H 0.46245 0.0602 0.36336 0.0
C478 C 0.40555 0.99267 0.11913 0.0
C479 C 0.40094 0.96447 0.12037 0.0
C480 C 0.43007 0.00272 0.1193 0.0
C481 C 0.49447 0.98418 0.13307 0.0
H482 H 0.51355 0.04372 0.10103 0.0
C483 C 0.59739 0.0162 0.12299 0.0
C484 C 0.60285 0.04425 0.12207 0.0
C485 C 0.57261 0.00706 0.12299 0.0
C486 C 0.50844 0.02731 0.11022 0.0
H487 H 0.41839 0.92463 0.12259 0.0
H488 H 0.46126 0.94212 0.1227 0.0
H489 H 0.47072 0.02631 0.10031 0.0
H490 H 0.58662 0.08475 0.12045 0.0
H491 H 0.54315 0.06876 0.12054 0.0
H492 H 0.53219 0.98509 0.14292 0.0
C493 C 0.4459 0.95653 0.12184 0.0
C494 C 0.48389 0.01731 0.1098 0.0
C495 C 0.42136 0.94648 0.12167 0.0
C496 C 0.58297 0.06301 0.12115 0.0
C497 C 0.55811 0.05384 0.1211 0.0
C498 C 0.519 0.99415 0.13347 0.0
C499 C 0.45055 0.98479 0.12072 0.0
C500 C 0.47663 0.99554 0.12118 0.0
C501 C 0.55265 0.02573 0.12206 0.0
C502 C 0.52632 0.01575 0.12199 0.0
H503 H 0.3902 0.00707 0.11817 0.0
H504 H 0.43293 0.0246 0.11864 0.0
H505 H 0.48941 0.96775 0.14226 0.0
H506 H 0.61229 0.0012 0.12365 0.0
H507 H 0.56911 0.98527 0.12347 0.0
C508 C 0.58246 0.94237 0.63 0.0
C509 C 0.60263 0.96071 0.63125 0.0
C510 C 0.55776 0.952 0.63004 0.0
C511 C 0.51868 0.01209 0.64187 0.0
H512 H 0.47241 0.98098 0.60683 0.0
C513 C 0.42125 0.05961 0.62715 0.0
C514 C 0.40119 0.04137 0.62484 0.0
C515 C 0.44588 0.04989 0.62827 0.0
C516 C 0.48499 0.9897 0.61685 0.0
H517 H 0.61274 0.00344 0.6339 0.0
H518 H 0.56976 0.0202 0.63387 0.0
H519 H 0.51498 0.9633 0.60882 0.0
H520 H 0.39118 0.99863 0.62197 0.0
H521 H 0.43394 0.98171 0.6241 0.0
H522 H 0.48865 0.03853 0.64987 0.0
C523 C 0.57294 0.99838 0.63302 0.0
C524 C 0.5094 0.97952 0.618 0.0
C525 C 0.5976 0.98877 0.63294 0.0
C526 C 0.40624 0.01325 0.62367 0.0
C527 C 0.43079 0.00354 0.62479 0.0
C528 C 0.49423 0.02226 0.64073 0.0
C529 C 0.55272 0.98015 0.63137 0.0
C530 C 0.52656 0.99059 0.63051 0.0
C531 C 0.45094 0.02171 0.62708 0.0
C532 C 0.47707 0.01118 0.6282 0.0
H533 H 0.58575 0.92062 0.62871 0.0
H534 H 0.5426 0.93737 0.62899 0.0
H535 H 0.53133 0.02087 0.65181 0.0
H536 H 0.41792 0.0814 0.62807 0.0
H537 H 0.46099 0.06447 0.62983 0.0
C538 C 0.58338 0.05393 0.86647 0.0
C539 C 0.60298 0.03546 0.86312 0.0
C540 C 0.55843 0.04518 0.86593 0.0
C541 C 0.5175 0.98914 0.84927 0.0
H542 H 0.47252 0.0148 0.88708 0.0
C543 C 0.4196 0.94144 0.86173 0.0
C544 C 0.39989 0.95964 0.86538 0.0
C545 C 0.44437 0.95083 0.86099 0.0
C546 C 0.48476 0.00765 0.87631 0.0
H547 H 0.61182 0.99346 0.85628 0.0
H548 H 0.56841 0.97815 0.85551 0.0
H549 H 0.51553 0.03141 0.88619 0.0
H550 H 0.39062 0.00193 0.87106 0.0
H551 H 0.43368 0.01827 0.8697 0.0
H552 H 0.48671 0.96521 0.8395 0.0
C553 C 0.57221 0.99946 0.85835 0.0
C554 C 0.50942 0.01723 0.87577 0.0
C555 C 0.59712 0.00821 0.85888 0.0
C556 C 0.40541 0.98737 0.86827 0.0
C557 C 0.43011 0.99672 0.86759 0.0
C558 C 0.49284 0.97952 0.84983 0.0
C559 C 0.55255 0.01777 0.86202 0.0
C560 C 0.52612 0.00808 0.86226 0.0
C561 C 0.4499 0.97858 0.86396 0.0
C562 C 0.47618 0.98866 0.86337 0.0
H563 H 0.58731 0.07508 0.86973 0.0
H564 H 0.54373 0.05991 0.86857 0.0
H565 H 0.52976 0.98195 0.83853 0.0
H566 H 0.41591 0.91995 0.85946 0.0
H567 H 0.45921 0.93628 0.85835 0.0
C568 C 0.90143 0.50673 0.35643 0.0
C569 C 0.89684 0.53479 0.3587 0.0
C570 C 0.92593 0.49682 0.35548 0.0
C571 C 0.99167 0.51743 0.34727 0.0
H572 H 0.00698 0.45226 0.37525 0.0
C573 C 0.09307 0.48352 0.36226 0.0
C574 C 0.09857 0.45546 0.36182 0.0
C575 C 0.06837 0.49268 0.36082 0.0
C576 C 0.00297 0.47024 0.36715 0.0
H577 H 0.91429 0.57457 0.36132 0.0
H578 H 0.9572 0.55723 0.35976 0.0
H579 H 0.96416 0.46944 0.37442 0.0
H580 H 0.08253 0.41496 0.35938 0.0
H581 H 0.03927 0.43096 0.3567 0.0
H582 H 0.03054 0.51831 0.34011 0.0
C583 C 0.94182 0.54291 0.35857 0.0
C584 C 0.97841 0.48011 0.36668 0.0
C585 C 0.91726 0.55284 0.35954 0.0
C586 C 0.07884 0.43671 0.35982 0.0
C587 C 0.05407 0.44589 0.35838 0.0
C588 C 0.01624 0.50752 0.34773 0.0
C589 C 0.94644 0.51473 0.35677 0.0
C590 C 0.97248 0.5039 0.35681 0.0
C591 C 0.04855 0.474 0.35888 0.0
C592 C 0.02222 0.4839 0.35777 0.0
H593 H 0.88608 0.4923 0.35566 0.0
H594 H 0.92881 0.47506 0.35379 0.0
H595 H 0.98766 0.53557 0.33933 0.0
H596 H 0.10786 0.49849 0.36383 0.0
H597 H 0.06478 0.51443 0.36155 0.0
C598 C 0.10193 0.50984 0.1278 0.0
C599 C 0.10722 0.53789 0.12915 0.0
C600 C 0.07725 0.50043 0.12855 0.0
C601 C 0.01353 0.51957 0.14352 0.0
H602 H 0.99293 0.46309 0.10963 0.0
C603 C 0.90983 0.48958 0.1329 0.0
C604 C 0.90421 0.46183 0.13024 0.0
C605 C 0.9347 0.49846 0.13363 0.0
C606 C 0.99845 0.47859 0.11937 0.0
H607 H 0.09083 0.57807 0.13249 0.0
H608 H 0.04758 0.56165 0.1337 0.0
H609 H 0.03597 0.47961 0.10913 0.0
H610 H 0.92021 0.42151 0.12659 0.0
H611 H 0.9637 0.43694 0.12806 0.0
H612 H 0.97595 0.51859 0.15371 0.0
C613 C 0.06257 0.5469 0.13222 0.0
C614 C 0.02313 0.4881 0.11906 0.0
C615 C 0.08732 0.55634 0.13143 0.0
C616 C 0.92397 0.44304 0.1286 0.0
C617 C 0.94887 0.45192 0.12933 0.0
C618 C 0.98883 0.51003 0.14384 0.0
C619 C 0.05725 0.51884 0.13069 0.0
C620 C 0.03097 0.50873 0.13111 0.0
C621 C 0.95453 0.47978 0.13171 0.0
C622 C 0.98097 0.48946 0.13174 0.0
H623 H 0.11687 0.49509 0.1261 0.0
H624 H 0.07385 0.47866 0.1276 0.0
H625 H 0.01906 0.5352 0.15316 0.0
H626 H 0.89501 0.50458 0.13416 0.0
H627 H 0.93835 0.52008 0.13524 0.0
C628 C 0.90433 0.51197 0.63623 0.0
C629 C 0.89856 0.53996 0.63551 0.0
C630 C 0.92917 0.50322 0.63756 0.0
C631 C 0.99376 0.52614 0.6282 0.0
H632 H 0.01178 0.46218 0.65656 0.0
C633 C 0.09627 0.49087 0.63561 0.0
C634 C 0.10091 0.46277 0.63359 0.0
C635 C 0.07179 0.50064 0.63727 0.0
C636 C 0.007 0.47995 0.64847 0.0
H637 H 0.91424 0.58077 0.63609 0.0
H638 H 0.95772 0.56553 0.63869 0.0
H639 H 0.96878 0.4791 0.65731 0.0
H640 H 0.08356 0.42281 0.63207 0.0
H641 H 0.04067 0.4399 0.63489 0.0
H642 H 0.03192 0.52691 0.61929 0.0
C643 C 0.94303 0.55031 0.63793 0.0
C644 C 0.98235 0.48966 0.64889 0.0
C645 C 0.91813 0.55907 0.63655 0.0
C646 C 0.08056 0.44457 0.63362 0.0
C647 C 0.05602 0.45435 0.63533 0.0
C648 C 0.01839 0.51648 0.62782 0.0
C649 C 0.94887 0.52226 0.63826 0.0
C650 C 0.97538 0.51277 0.63865 0.0
C651 C 0.05135 0.48254 0.63697 0.0
C652 C 0.02527 0.49317 0.63786 0.0
H653 H 0.88967 0.49672 0.63541 0.0
H654 H 0.93294 0.48149 0.63753 0.0
H655 H 0.98898 0.54368 0.61989 0.0
H656 H 0.11156 0.50542 0.63572 0.0
H657 H 0.06887 0.52242 0.63878 0.0
C658 C 0.0815 0.55432 0.8643 0.0
C659 C 0.10183 0.5361 0.86401 0.0
C660 C 0.05688 0.54448 0.86419 0.0
C661 C 0.01885 0.48342 0.85306 0.0
H662 H 0.97025 0.51656 0.88552 0.0
C663 C 0.92049 0.43667 0.86557 0.0
C664 C 0.90032 0.45502 0.86682 0.0
C665 C 0.94517 0.44637 0.86498 0.0
C666 C 0.9835 0.50726 0.87621 0.0
H667 H 0.11231 0.49331 0.86317 0.0
H668 H 0.06944 0.47617 0.86306 0.0
H669 H 0.0129 0.53423 0.88454 0.0
H670 H 0.89017 0.49787 0.86824 0.0
H671 H 0.93302 0.51472 0.86698 0.0
H672 H 0.98941 0.45646 0.84471 0.0
C673 C 0.07246 0.49805 0.86321 0.0
C674 C 0.00796 0.51742 0.87565 0.0
C675 C 0.09704 0.50788 0.86338 0.0
C676 C 0.90531 0.48319 0.86737 0.0
C677 C 0.92991 0.49286 0.86677 0.0
C678 C 0.99435 0.47328 0.8536 0.0
C679 C 0.05207 0.51621 0.86371 0.0
C680 C 0.02593 0.50564 0.86407 0.0
C681 C 0.95017 0.4746 0.86563 0.0
C682 C 0.97636 0.48509 0.86517 0.0
H683 H 0.08461 0.57618 0.86476 0.0
H684 H 0.04159 0.55902 0.86437 0.0
H685 H 0.03216 0.47409 0.84381 0.0
H686 H 0.91721 0.41484 0.86515 0.0
H687 H 0.96035 0.43172 0.86429 0.0
C688 C 0.23147 0.35003 0.36755 0.0
C689 C 0.2053 0.35261 0.36639 0.0
C690 C 0.24271 0.32428 0.36746 0.0
C691 C 0.2297 0.25152 0.37625 0.0
H692 H 0.29033 0.23984 0.34813 0.0
C693 C 0.27124 0.14427 0.3651 0.0
C694 C 0.29738 0.14145 0.36626 0.0
C695 C 0.26021 0.17012 0.36504 0.0
C696 C 0.27358 0.24286 0.35622 0.0
H697 H 0.17036 0.3303 0.36419 0.0
H698 H 0.19003 0.28521 0.3639 0.0
H699 H 0.27044 0.28471 0.34806 0.0
H700 H 0.33252 0.16344 0.3682 0.0
H701 H 0.31321 0.20875 0.36824 0.0
H702 H 0.23284 0.2097 0.38443 0.0
C703 C 0.20183 0.30312 0.36508 0.0
C704 C 0.26216 0.26855 0.35617 0.0
C705 C 0.19057 0.32892 0.36515 0.0
C706 C 0.31232 0.16501 0.36725 0.0
C707 C 0.30126 0.19093 0.36719 0.0
C708 C 0.24112 0.22584 0.37631 0.0
C709 C 0.22804 0.30052 0.36622 0.0
C710 C 0.24008 0.27317 0.36617 0.0
C711 C 0.27506 0.19376 0.36615 0.0
C712 C 0.26316 0.22119 0.36626 0.0
H713 H 0.24333 0.36793 0.36858 0.0
H714 H 0.26291 0.32298 0.36861 0.0
H715 H 0.21295 0.25452 0.38434 0.0
H716 H 0.25922 0.12648 0.36425 0.0
H717 H 0.24001 0.17157 0.36394 0.0
C718 C 0.69417 0.83179 0.36889 0.0
C719 C 0.70958 0.85505 0.36883 0.0
C720 C 0.70472 0.80564 0.36953 0.0
C721 C 0.76273 0.76808 0.35938 0.0
H722 H 0.73562 0.71356 0.39229 0.0
C723 C 0.81096 0.66359 0.37002 0.0
C724 C 0.79533 0.64063 0.37158 0.0
C725 C 0.80079 0.68993 0.37022 0.0
C726 C 0.74325 0.72842 0.38285 0.0
H727 H 0.74809 0.86922 0.36933 0.0
H728 H 0.76646 0.82361 0.37036 0.0
H729 H 0.71691 0.75898 0.3912 0.0
H730 H 0.75683 0.6272 0.3746 0.0
H731 H 0.73906 0.67297 0.37457 0.0
H732 H 0.78881 0.73751 0.35078 0.0
C733 C 0.74625 0.82556 0.36984 0.0
C734 C 0.73253 0.75445 0.38226 0.0
C735 C 0.73572 0.85167 0.36935 0.0
C736 C 0.76938 0.64451 0.37347 0.0
C737 C 0.75921 0.67079 0.37356 0.0
C738 C 0.77335 0.74199 0.35987 0.0
C739 C 0.73088 0.80227 0.36996 0.0
C740 C 0.74216 0.77456 0.37052 0.0
C741 C 0.77475 0.69386 0.37189 0.0
C742 C 0.76375 0.72181 0.37161 0.0
H743 H 0.67397 0.83378 0.36848 0.0
H744 H 0.69241 0.78805 0.36945 0.0
H745 H 0.77037 0.78306 0.35002 0.0
H746 H 0.83104 0.66121 0.3686 0.0
H747 H 0.81336 0.70722 0.36918 0.0
C748 C 0.2375 0.64655 0.1238 0.0
C749 C 0.21148 0.64301 0.12548 0.0
C750 C 0.24799 0.67268 0.12405 0.0
C751 C 0.23252 0.74516 0.11649 0.0
H752 H 0.29401 0.7582 0.14329 0.0
C753 C 0.27199 0.85348 0.12701 0.0
C754 C 0.29799 0.85701 0.12514 0.0
C755 C 0.26156 0.82735 0.12741 0.0
C756 C 0.27699 0.75482 0.13558 0.0
H757 H 0.17602 0.66401 0.12877 0.0
H758 H 0.19437 0.70975 0.1293 0.0
H759 H 0.27533 0.71271 0.14337 0.0
H760 H 0.3335 0.83595 0.12237 0.0
H761 H 0.31524 0.79015 0.12289 0.0
H762 H 0.2342 0.78721 0.10863 0.0
C763 C 0.20663 0.69231 0.12761 0.0
C764 C 0.26627 0.72877 0.13563 0.0
C765 C 0.19613 0.66613 0.1274 0.0
C766 C 0.3134 0.83384 0.12386 0.0
C767 C 0.30294 0.80763 0.12425 0.0
C768 C 0.24324 0.77119 0.11642 0.0
C769 C 0.23269 0.69587 0.12595 0.0
C770 C 0.24392 0.72364 0.12608 0.0
C771 C 0.27688 0.8041 0.12592 0.0
C772 C 0.26559 0.77634 0.12597 0.0
H773 H 0.24982 0.62911 0.12226 0.0
H774 H 0.26808 0.67473 0.12248 0.0
H775 H 0.21552 0.74178 0.10875 0.0
H776 H 0.25962 0.87096 0.12811 0.0
H777 H 0.24147 0.82535 0.12901 0.0
C778 C 0.73667 0.14898 0.12196 0.0
C779 C 0.71052 0.14645 0.12053 0.0
C780 C 0.74802 0.17468 0.12143 0.0
C781 C 0.73786 0.2455 0.10614 0.0
H782 H 0.79087 0.26248 0.14046 0.0
C783 C 0.77524 0.35494 0.11605 0.0
C784 C 0.80102 0.35849 0.11907 0.0
C785 C 0.76479 0.32881 0.11554 0.0
C786 C 0.77636 0.25795 0.1306 0.0
H787 H 0.67573 0.16881 0.1174 0.0
H788 H 0.69558 0.21381 0.11651 0.0
H789 H 0.77127 0.2175 0.14109 0.0
H790 H 0.83618 0.33745 0.12365 0.0
H791 H 0.81799 0.29164 0.12251 0.0
H792 H 0.74295 0.28589 0.09561 0.0
C793 C 0.70731 0.19587 0.1179 0.0
C794 C 0.76508 0.23219 0.131 0.0
C795 C 0.69593 0.17014 0.11852 0.0
C796 C 0.81623 0.33533 0.12135 0.0
C797 C 0.80578 0.30912 0.1208 0.0
C798 C 0.74919 0.27123 0.1057 0.0
C799 C 0.73349 0.19842 0.11938 0.0
C800 C 0.74562 0.22571 0.11883 0.0
C801 C 0.77989 0.30557 0.11799 0.0
C802 C 0.76849 0.27783 0.118 0.0
H803 H 0.74842 0.13109 0.12348 0.0
H804 H 0.76824 0.17593 0.12239 0.0
H805 H 0.72319 0.24098 0.09639 0.0
H806 H 0.763 0.3724 0.11431 0.0
H807 H 0.74475 0.32688 0.11362 0.0
C808 C 0.69096 0.83234 0.62308 0.0
C809 C 0.70635 0.85559 0.62254 0.0
C810 C 0.7015 0.80617 0.62262 0.0
C811 C 0.76023 0.76936 0.61072 0.0
H812 H 0.73183 0.71213 0.64089 0.0
C813 C 0.80952 0.66555 0.62323 0.0
C814 C 0.79432 0.64215 0.62239 0.0
C815 C 0.79878 0.69162 0.62277 0.0
C816 C 0.73983 0.72784 0.63226 0.0
H817 H 0.74481 0.86973 0.6212 0.0
H818 H 0.76319 0.82426 0.62081 0.0
H819 H 0.71294 0.75746 0.641 0.0
H820 H 0.75601 0.62768 0.6203 0.0
H821 H 0.73732 0.67312 0.61955 0.0
H822 H 0.78737 0.73972 0.60223 0.0
C823 C 0.74298 0.82609 0.62119 0.0
C824 C 0.72897 0.75382 0.63228 0.0
C825 C 0.73244 0.85219 0.62153 0.0
C826 C 0.76822 0.64533 0.62099 0.0
C827 C 0.75749 0.67134 0.62067 0.0
C828 C 0.77119 0.74342 0.6108 0.0
C829 C 0.72767 0.80272 0.62172 0.0
C830 C 0.73902 0.77493 0.62151 0.0
C831 C 0.77263 0.69478 0.62162 0.0
C832 C 0.7611 0.72238 0.62156 0.0
H833 H 0.67077 0.83435 0.62379 0.0
H834 H 0.68911 0.78865 0.62279 0.0
H835 H 0.76823 0.78496 0.60201 0.0
H836 H 0.82968 0.66372 0.62433 0.0
H837 H 0.81091 0.70931 0.62367 0.0
C838 C 0.18816 0.33391 0.6234 0.0
C839 C 0.20305 0.35712 0.62032 0.0
C840 C 0.19886 0.3078 0.62317 0.0
C841 C 0.25518 0.26987 0.60756 0.0
H842 H 0.23498 0.21738 0.64435 0.0
C843 C 0.30925 0.16924 0.62036 0.0
C844 C 0.29471 0.14562 0.62286 0.0
C845 C 0.29789 0.19501 0.61988 0.0
C846 C 0.24066 0.23173 0.63388 0.0
H847 H 0.24073 0.3712 0.61444 0.0
H848 H 0.25938 0.32588 0.61428 0.0
H849 H 0.21503 0.26217 0.64339 0.0
H850 H 0.25693 0.13042 0.62693 0.0
H851 H 0.23718 0.17529 0.6261 0.0
H852 H 0.281 0.23947 0.59819 0.0
C853 C 0.23941 0.32768 0.6166 0.0
C854 C 0.22917 0.25737 0.63329 0.0
C855 C 0.22873 0.3537 0.6168 0.0
C856 C 0.26866 0.14827 0.62501 0.0
C857 C 0.25734 0.17398 0.62463 0.0
C858 C 0.26674 0.24426 0.6082 0.0
C859 C 0.22465 0.30439 0.61986 0.0
C860 C 0.23633 0.27679 0.62015 0.0
C861 C 0.2718 0.19764 0.62201 0.0
C862 C 0.25963 0.22492 0.62139 0.0
H863 H 0.1683 0.33593 0.62612 0.0
H864 H 0.18689 0.29028 0.6255 0.0
H865 H 0.26088 0.28416 0.59707 0.0
H866 H 0.32937 0.16783 0.61867 0.0
H867 H 0.30957 0.21289 0.61803 0.0
C868 C 0.73141 0.14139 0.87877 0.0
C869 C 0.70581 0.13758 0.87511 0.0
C870 C 0.74182 0.16756 0.8788 0.0
C871 C 0.73083 0.23716 0.86103 0.0
H872 H 0.7825 0.25708 0.89574 0.0
C873 C 0.76874 0.34716 0.86759 0.0
C874 C 0.79476 0.35032 0.86958 0.0
C875 C 0.75781 0.32127 0.86841 0.0
C876 C 0.76827 0.25171 0.88584 0.0
H877 H 0.6709 0.15825 0.86901 0.0
H878 H 0.68898 0.20411 0.86934 0.0
H879 H 0.76297 0.21211 0.89759 0.0
H880 H 0.82977 0.32885 0.87393 0.0
H881 H 0.81064 0.28349 0.87536 0.0
H882 H 0.73609 0.27684 0.84935 0.0
C883 C 0.70111 0.18679 0.87189 0.0
C884 C 0.75706 0.22595 0.8869 0.0
C885 C 0.6907 0.16055 0.87183 0.0
C886 C 0.80966 0.32703 0.87236 0.0
C887 C 0.79869 0.3011 0.87328 0.0
C888 C 0.74198 0.26295 0.86003 0.0
C889 C 0.72686 0.19059 0.87521 0.0
C890 C 0.73825 0.21831 0.87447 0.0
C891 C 0.77263 0.29795 0.87133 0.0
C892 C 0.76086 0.2705 0.87239 0.0
H893 H 0.74357 0.12407 0.88129 0.0
H894 H 0.76175 0.16966 0.88116 0.0
H895 H 0.71674 0.2318 0.85103 0.0
H896 H 0.75675 0.36473 0.86547 0.0
H897 H 0.73766 0.31956 0.86706 0.0
C898 C 0.23208 0.64562 0.8686 0.0
C899 C 0.20602 0.64232 0.86711 0.0
C900 C 0.24275 0.67166 0.86856 0.0
C901 C 0.23026 0.74311 0.85516 0.0
H902 H 0.28535 0.75895 0.88798 0.0
C903 C 0.26846 0.85221 0.86582 0.0
C904 C 0.29459 0.85538 0.86682 0.0
C905 C 0.25773 0.82619 0.86573 0.0
C906 C 0.27017 0.75475 0.87859 0.0
H907 H 0.17064 0.66368 0.86446 0.0
H908 H 0.18925 0.70931 0.86461 0.0
H909 H 0.26613 0.71377 0.8883 0.0
H910 H 0.32999 0.83383 0.86847 0.0
H911 H 0.31122 0.78827 0.86824 0.0
H912 H 0.23426 0.78417 0.84553 0.0
C913 C 0.20148 0.69172 0.86557 0.0
C914 C 0.25914 0.72886 0.87877 0.0
C915 C 0.1908 0.66561 0.86558 0.0
C916 C 0.30979 0.83201 0.86772 0.0
C917 C 0.29904 0.80594 0.86769 0.0
C918 C 0.24126 0.76902 0.85501 0.0
C919 C 0.22759 0.69504 0.86707 0.0
C920 C 0.23908 0.72271 0.86704 0.0
C921 C 0.27287 0.80276 0.86668 0.0
C922 C 0.26135 0.77513 0.86672 0.0
H923 H 0.24433 0.62805 0.86972 0.0
H924 H 0.26294 0.67344 0.86946 0.0
H925 H 0.21511 0.73893 0.84575 0.0
H926 H 0.25624 0.86985 0.86515 0.0
H927 H 0.23751 0.82445 0.86518 0.0
C928 C 0.31505 0.05042 0.3013 0.0
C929 C 0.30436 0.03814 0.31675 0.0
C930 C 0.30819 0.04201 0.28387 0.0
C931 C 0.28452 0.98228 0.25971 0.0
H932 H 0.28508 0.03271 0.21888 0.0
C933 C 0.28581 0.98245 0.1754 0.0
C934 C 0.30419 0.96221 0.17307 0.0
C935 C 0.27906 0.99107 0.19292 0.0
C936 C 0.28434 0.01835 0.23011 0.0
H937 H 0.27749 0.00805 0.32614 0.0
H938 H 0.26537 0.99327 0.29549 0.0
H939 H 0.2844 0.0504 0.24991 0.0
H940 H 0.32948 0.93468 0.18716 0.0
H941 H 0.31812 0.94992 0.21751 0.0
H942 H 0.28485 0.95023 0.23991 0.0
C943 C 0.27924 0.00927 0.29692 0.0
C944 C 0.28424 0.02848 0.24789 0.0
C945 C 0.28614 0.01773 0.31444 0.0
C946 C 0.31527 0.95034 0.18851 0.0
C947 C 0.30854 0.95888 0.20594 0.0
C948 C 0.2845 0.97215 0.24192 0.0
C949 C 0.29041 0.02116 0.28145 0.0
C950 C 0.28536 0.01057 0.26287 0.0
C951 C 0.29053 0.97949 0.20837 0.0
C952 C 0.28544 0.99007 0.22695 0.0
H953 H 0.32912 0.06623 0.30264 0.0
H954 H 0.31754 0.05124 0.27229 0.0
H955 H 0.28541 0.96791 0.27092 0.0
H956 H 0.27687 0.99184 0.1637 0.0
H957 H 0.26503 0.0069 0.19437 0.0
C958 C 0.70833 0.01891 0.17741 0.0
C959 C 0.70112 0.04589 0.17366 0.0
C960 C 0.71356 0.01084 0.1953 0.0
C961 C 0.70026 0.03209 0.24284 0.0
H962 H 0.74572 0.97282 0.25454 0.0
C963 C 0.71192 0.99302 0.31625 0.0
C964 C 0.70679 0.96499 0.31789 0.0
C965 C 0.7165 0.00452 0.29911 0.0
C966 C 0.73307 0.9895 0.25144 0.0
H967 H 0.69523 0.08603 0.18532 0.0
H968 H 0.70543 0.07238 0.21635 0.0
H969 H 0.74421 0.99066 0.22343 0.0
H970 H 0.70394 0.9267 0.30319 0.0
H971 H 0.71231 0.94674 0.27331 0.0
H972 H 0.68916 0.03086 0.27085 0.0
C973 C 0.7061 0.05707 0.20571 0.0
C974 C 0.73205 -0.00039 0.23361 0.0
C975 C 0.70039 0.06497 0.18791 0.0
C976 C 0.70774 0.9484 0.30228 0.0
C977 C 0.71268 0.95982 0.28521 0.0
C978 C 0.70159 0.02228 0.26067 0.0
C979 C 0.71213 0.02974 0.20974 0.0
C980 C 0.71523 0.02067 0.229 0.0
C981 C 0.71642 0.98809 0.28341 0.0
C982 C 0.71763 0.00056 0.26506 0.0
H983 H 0.70897 0.00379 0.16664 0.0
H984 H 0.71779 0.98955 0.19785 0.0
H985 H 0.68669 0.0479 0.23983 0.0
H986 H 0.71131 0.00626 0.32807 0.0
H987 H 0.71945 0.02636 0.29806 0.0
C988 C 0.71041 0.00863 0.81455 0.0
C989 C 0.70718 0.03623 0.81911 0.0
C990 C 0.71645 0.00118 0.79669 0.0
C991 C 0.71026 0.02811 0.74993 0.0
H992 H 0.74603 0.96178 0.7374 0.0
C993 C 0.71469 0.98943 0.67604 0.0
C994 C 0.70625 0.9624 0.67425 0.0
C995 C 0.72114 -0.00026 0.69318 0.0
C996 C 0.73612 0.98044 0.74072 0.0
H997 H 0.70948 0.0778 0.80907 0.0
H998 H 0.7209 0.06493 0.77809 0.0
H999 H 0.74634 0.97805 0.76889 0.0
H1000 H 0.69928 0.92448 0.68869 0.0
H1001 H 0.71062 0.94242 0.71855 0.0
H1002 H 0.69971 0.03022 0.72185 0.0
C1003 C 0.71793 0.04892 0.78806 0.0
C1004 C 0.73618 0.9897 0.75875 0.0
C1005 C 0.71152 0.05633 0.80582 0.0
C1006 C 0.70561 0.94545 0.6897 0.0
C1007 C 0.7123 0.95565 0.70677 0.0
C1008 C 0.71044 0.01901 0.73192 0.0
C1009 C 0.71972 0.02123 0.78311 0.0
C1010 C 0.72268 0.01326 0.76366 0.0
C1011 C 0.71953 0.98307 0.70875 0.0
C1012 C 0.72282 0.99473 0.72722 0.0
H1013 H 0.70714 0.99274 0.82456 0.0
H1014 H 0.71736 0.97965 0.79338 0.0
H1015 H 0.69929 0.04605 0.75319 0.0
H1016 H 0.71543 0.00291 0.66433 0.0
H1017 H 0.7268 0.02092 0.69434 0.0
C1018 C 0.29529 0.94186 0.80308 0.0
C1019 C 0.2994 0.96092 0.81702 0.0
C1020 C 0.2895 0.95058 0.78549 0.0
C1021 C 0.27336 0.01219 0.75762 0.0
H1022 H 0.30794 0.97156 0.71984 0.0
C1023 C 0.30427 0.05634 0.68831 0.0
C1024 C 0.30119 0.03995 0.67276 0.0
C1025 C 0.29811 0.04626 0.70553 0.0
C1026 C 0.2978 0.98285 0.73018 0.0
H1027 H 0.29983 0.00393 0.82385 0.0
H1028 H 0.291 0.0194 0.79288 0.0
H1029 H 0.30834 0.95466 0.75093 0.0
H1030 H 0.28845 0.00062 0.66286 0.0
H1031 H 0.27821 0.98271 0.69315 0.0
H1032 H 0.2643 0.04129 0.73675 0.0
C1033 C 0.29145 0.99766 0.79555 0.0
C1034 C 0.29792 0.97314 0.74805 0.0
C1035 C 0.29669 0.98886 0.81328 0.0
C1036 C 0.29105 0.01363 0.67464 0.0
C1037 C 0.28523 0.0034 0.69192 0.0
C1038 C 0.27359 0.02213 0.73975 0.0
C1039 C 0.28834 0.97861 0.78133 0.0
C1040 C 0.286 0.98785 0.76207 0.0
C1041 C 0.28908 0.0195 0.70753 0.0
C1042 C 0.2861 0.00769 0.72594 0.0
H1043 H 0.2969 0.92014 0.80573 0.0
H1044 H 0.28651 0.93528 0.77505 0.0
H1045 H 0.2636 0.02381 0.76798 0.0
H1046 H 0.31192 0.07677 0.68721 0.0
H1047 H 0.30149 0.05897 0.71736 0.0
C1048 C 0.80127 0.44542 0.1888 0.0
C1049 C 0.79995 0.46279 0.17358 0.0
C1050 C 0.79404 0.45474 0.206 0.0
C1051 C 0.79206 0.51775 0.23181 0.0
H1052 H 0.75783 0.47403 0.26823 0.0
C1053 C 0.78632 0.55569 0.30516 0.0
C1054 C 0.79187 0.53628 0.31865 0.0
C1055 C 0.78051 0.54742 0.28747 0.0
C1056 C 0.76751 0.48644 0.25824 0.0
H1057 H 0.78897 0.50306 0.1642 0.0
H1058 H 0.77654 0.51945 0.19436 0.0
H1059 H 0.76016 0.45787 0.23673 0.0
H1060 H 0.79445 0.49304 0.32461 0.0
H1061 H 0.78533 0.47848 0.29351 0.0
H1062 H 0.8007 0.54558 0.25321 0.0
C1063 C 0.78326 0.49868 0.19296 0.0
C1064 C 0.76875 0.47723 0.24021 0.0
C1065 C 0.79032 0.48929 0.17572 0.0
C1066 C 0.79018 0.5084 0.31443 0.0
C1067 C 0.78482 0.50009 0.29661 0.0
C1068 C 0.79105 0.52681 0.2498 0.0
C1069 C 0.78551 0.48165 0.20832 0.0
C1070 C 0.78139 0.49262 0.2269 0.0
C1071 C 0.78068 0.51956 0.28278 0.0
C1072 C 0.77912 0.5111 0.26333 0.0
H1073 H 0.80852 0.42484 0.18753 0.0
H1074 H 0.79623 0.44125 0.21761 0.0
H1075 H 0.80231 0.52983 0.22192 0.0
H1076 H 0.78715 0.57734 0.30816 0.0
H1077 H 0.77671 0.56296 0.27732 0.0
C1078 C 0.21481 0.48345 0.31623 0.0
C1079 C 0.20337 0.45769 0.31756 0.0
C1080 C 0.22225 0.49358 0.29925 0.0
C1081 C 0.23526 0.47482 0.25146 0.0
H1082 H 0.20411 0.54428 0.24011 0.0
C1083 C 0.21271 0.50874 0.17807 0.0
C1084 C 0.21086 0.53674 0.17426 0.0
C1085 C 0.21836 0.49988 0.19572 0.0
C1086 C 0.21358 0.52522 0.24304 0.0
H1087 H 0.19206 0.42166 0.30247 0.0
H1088 H 0.20522 0.43926 0.27287 0.0
H1089 H 0.20308 0.52726 0.27113 0.0
H1090 H 0.21555 0.57747 0.18525 0.0
H1091 H 0.22666 0.56216 0.21576 0.0
H1092 H 0.24554 0.4726 0.22329 0.0
C1093 C 0.20841 0.45163 0.2849 0.0
C1094 C 0.21289 0.51545 0.26088 0.0
C1095 C 0.20067 0.44167 0.3018 0.0
C1096 C 0.21647 0.55573 0.18797 0.0
C1097 C 0.22267 0.54693 0.20547 0.0
C1098 C 0.23628 0.48479 0.2336 0.0
C1099 C 0.21872 0.47792 0.2834 0.0
C1100 C 0.22314 0.48987 0.26517 0.0
C1101 C 0.22274 0.51892 0.20978 0.0
C1102 C 0.22486 0.5098 0.22907 0.0
H1103 H 0.21717 0.49616 0.32819 0.0
H1104 H 0.23024 0.51389 0.29843 0.0
H1105 H 0.24347 0.45509 0.25448 0.0
H1106 H 0.2084 0.49373 0.16769 0.0
H1107 H 0.21798 0.47817 0.19851 0.0
C1108 C 0.20919 0.51117 0.81325 0.0
C1109 C 0.205 0.53882 0.8172 0.0
C1110 C 0.21558 0.50315 0.79555 0.0
C1111 C 0.2089 0.52842 0.74835 0.0
H1112 H 0.2461 0.46273 0.73657 0.0
C1113 C 0.21469 0.48981 0.67485 0.0
C1114 C 0.20629 0.46277 0.67304 0.0
C1115 C 0.22128 0.50002 0.69198 0.0
C1116 C 0.23581 0.48122 0.73969 0.0
H1117 H 0.20617 0.57999 0.80638 0.0
H1118 H 0.21843 0.56625 0.77579 0.0
H1119 H 0.24568 0.47955 0.76796 0.0
H1120 H 0.19981 0.42465 0.68738 0.0
H1121 H 0.21134 0.44248 0.71725 0.0
H1122 H 0.19873 0.52988 0.7202 0.0
C1123 C 0.21577 0.55055 0.78602 0.0
C1124 C 0.23543 0.49078 0.75766 0.0
C1125 C 0.20888 0.55846 0.80356 0.0
C1126 C 0.20607 0.44564 0.68841 0.0
C1127 C 0.21287 0.45578 0.70549 0.0
C1128 C 0.20954 0.51907 0.73042 0.0
C1129 C 0.21833 0.52273 0.7816 0.0
C1130 C 0.22148 0.51417 0.76228 0.0
C1131 C 0.21981 0.48327 0.70751 0.0
C1132 C 0.22251 0.49506 0.72598 0.0
H1133 H 0.20629 0.49566 0.82358 0.0
H1134 H 0.21715 0.48153 0.79266 0.0
H1135 H 0.19749 0.54614 0.75136 0.0
H1136 H 0.21516 0.50341 0.6632 0.0
H1137 H 0.22676 0.52126 0.69317 0.0
C1138 C 0.79292 0.50773 0.67883 0.0
C1139 C 0.79362 0.53582 0.67507 0.0
C1140 C 0.78745 0.49849 0.69642 0.0
C1141 C 0.79031 0.52347 0.74393 0.0
H1142 H 0.76292 0.45187 0.75465 0.0
C1143 C 0.78701 0.48084 0.81706 0.0
C1144 C 0.79908 0.45547 0.81872 0.0
C1145 C 0.78049 0.49092 0.79986 0.0
C1146 C 0.77046 0.47198 0.75182 0.0
H1147 H 0.7872 0.57621 0.68616 0.0
H1148 H 0.77645 0.56014 0.71661 0.0
H1149 H 0.76097 0.46963 0.72353 0.0
H1150 H 0.81269 0.42013 0.8039 0.0
H1151 H 0.80107 0.43763 0.77391 0.0
H1152 H 0.79993 0.52568 0.7722 0.0
C1153 C 0.78114 0.5452 0.70628 0.0
C1154 C 0.7695 0.48211 0.734 0.0
C1155 C 0.78711 0.55443 0.68881 0.0
C1156 C 0.80351 0.43982 0.803 0.0
C1157 C 0.79669 0.44972 0.78586 0.0
C1158 C 0.79093 0.51351 0.76175 0.0
C1159 C 0.78213 0.51717 0.7105 0.0
C1160 C 0.77999 0.50772 0.72974 0.0
C1161 C 0.78559 0.47559 0.7841 0.0
C1162 C 0.78157 0.48743 0.76577 0.0
H1163 H 0.79796 0.49298 0.66845 0.0
H1164 H 0.78869 0.47679 0.69913 0.0
H1165 H 0.79905 0.54301 0.74122 0.0
H1166 H 0.78333 0.49327 0.82897 0.0
H1167 H 0.77187 0.5109 0.79884 0.0
loop_
_geom_bond_atom_site_label_1
_geom_bond_atom_site_label_2
_geom_bond_distance
_geom_bond_site_symmetry_2
_ccdc_geom_bond_type
In0 O1 2.294 . S
In0 O2 2.326 . S
In0 O6 2.266 . S
In0 O7 2.326 . S
In0 O8 2.266 . S
In0 O9 2.326 . S
In0 O11 2.294 . S
In0 O12 2.326 . S
O1 In0 2.294 . S
O1 C10 1.240 . S
O2 In0 2.326 . S
O2 C10 1.252 . S
C3 O6 1.252 . S
C3 O7 1.260 . S
C4 O11 1.240 . S
C4 O12 1.252 . S
C5 O8 1.252 . S
C5 O9 1.260 . S
O6 In0 2.266 . S
O6 C3 1.252 . S
O7 In0 2.326 . S
O7 C3 1.260 . S
O8 In0 2.266 . S
O8 C5 1.252 . S
O9 In0 2.326 . S
O9 C5 1.260 . S
C10 O1 1.240 . S
C10 O2 1.252 . S
O11 In0 2.294 . S
O11 C4 1.240 . S
O12 In0 2.326 . S
O12 C4 1.252 . S
In13 O14 2.294 . S
In13 O15 2.326 . S
In13 O19 2.266 . S
In13 O20 2.326 . S
In13 O21 2.266 . S
In13 O22 2.326 . S
In13 O24 2.294 . S
In13 O25 2.326 . S
O14 In13 2.294 . S
O14 C23 1.240 . S
O15 In13 2.326 . S
O15 C23 1.252 . S
C16 O19 1.252 . S
C16 O20 1.260 . S
C17 O24 1.240 . S
C17 O25 1.252 . S
C18 O21 1.252 . S
C18 O22 1.260 . S
O19 In13 2.266 . S
O19 C16 1.252 . S
O20 In13 2.326 . S
O20 C16 1.260 . S
O21 In13 2.266 . S
O21 C18 1.252 . S
O22 In13 2.326 . S
O22 C18 1.260 . S
C23 O14 1.240 . S
C23 O15 1.252 . S
O24 In13 2.294 . S
O24 C17 1.240 . S
O25 In13 2.326 . S
O25 C17 1.252 . S
In26 O27 2.294 . S
In26 O28 2.326 . S
In26 O32 2.266 . S
In26 O33 2.326 . S
In26 O34 2.266 . S
In26 O35 2.326 . S
In26 O37 2.294 . S
In26 O38 2.326 . S
O27 In26 2.294 . S
O27 C36 1.240 . S
O28 In26 2.326 . S
O28 C36 1.252 . S
C29 O32 1.252 . S
C29 O33 1.260 . S
C30 O37 1.240 . S
C30 O38 1.252 . S
C31 O34 1.252 . S
C31 O35 1.260 . S
O32 In26 2.266 . S
O32 C29 1.252 . S
O33 In26 2.326 . S
O33 C29 1.260 . S
O34 In26 2.266 . S
O34 C31 1.252 . S
O35 In26 2.326 . S
O35 C31 1.260 . S
C36 O27 1.240 . S
C36 O28 1.252 . S
O37 In26 2.294 . S
O37 C30 1.240 . S
O38 In26 2.326 . S
O38 C30 1.252 . S
In39 O40 2.294 . S
In39 O41 2.326 . S
In39 O45 2.266 . S
In39 O46 2.326 . S
In39 O47 2.266 . S
In39 O48 2.326 . S
In39 O50 2.294 . S
In39 O51 2.326 . S
O40 In39 2.294 . S
O40 C49 1.240 . S
O41 In39 2.326 . S
O41 C49 1.252 . S
C42 O45 1.252 . S
C42 O46 1.260 . S
C43 O50 1.240 . S
C43 O51 1.252 . S
C44 O47 1.252 . S
C44 O48 1.260 . S
O45 In39 2.266 . S
O45 C42 1.252 . S
O46 In39 2.326 . S
O46 C42 1.260 . S
O47 In39 2.266 . S
O47 C44 1.252 . S
O48 In39 2.326 . S
O48 C44 1.260 . S
C49 O40 1.240 . S
C49 O41 1.252 . S
O50 In39 2.294 . S
O50 C43 1.240 . S
O51 In39 2.326 . S
O51 C43 1.252 . S
In52 O53 2.294 . S
In52 O54 2.326 . S
In52 O58 2.266 . S
In52 O59 2.326 . S
In52 O60 2.266 . S
In52 O61 2.326 . S
In52 O63 2.294 . S
In52 O64 2.326 . S
O53 In52 2.294 . S
O53 C62 1.240 . S
O54 In52 2.326 . S
O54 C62 1.252 . S
C55 O58 1.252 . S
C55 O59 1.260 . S
C56 O63 1.240 . S
C56 O64 1.252 . S
C57 O60 1.252 . S
C57 O61 1.260 . S
O58 In52 2.266 . S
O58 C55 1.252 . S
O59 In52 2.326 . S
O59 C55 1.260 . S
O60 In52 2.266 . S
O60 C57 1.252 . S
O61 In52 2.326 . S
O61 C57 1.260 . S
C62 O53 1.240 . S
C62 O54 1.252 . S
O63 In52 2.294 . S
O63 C56 1.240 . S
O64 In52 2.326 . S
O64 C56 1.252 . S
In65 O66 2.294 . S
In65 O67 2.326 . S
In65 O71 2.266 . S
In65 O72 2.326 . S
In65 O73 2.266 . S
In65 O74 2.326 . S
In65 O76 2.294 . S
In65 O77 2.326 . S
O66 In65 2.294 . S
O66 C75 1.240 . S
O67 In65 2.326 . S
O67 C75 1.252 . S
C68 O71 1.252 . S
C68 O72 1.260 . S
C69 O76 1.240 . S
C69 O77 1.252 . S
C70 O73 1.252 . S
C70 O74 1.260 . S
O71 In65 2.266 . S
O71 C68 1.252 . S
O72 In65 2.326 . S
O72 C68 1.260 . S
O73 In65 2.266 . S
O73 C70 1.252 . S
O74 In65 2.326 . S
O74 C70 1.260 . S
C75 O66 1.240 . S
C75 O67 1.252 . S
O76 In65 2.294 . S
O76 C69 1.240 . S
O77 In65 2.326 . S
O77 C69 1.252 . S
In78 O79 2.294 . S
In78 O80 2.326 . S
In78 O84 2.266 . S
In78 O85 2.326 . S
In78 O86 2.266 . S
In78 O87 2.326 . S
In78 O89 2.294 . S
In78 O90 2.326 . S
O79 In78 2.294 . S
O79 C88 1.240 . S
O80 In78 2.326 . S
O80 C88 1.252 . S
C81 O84 1.252 . S
C81 O85 1.260 . S
C82 O89 1.240 . S
C82 O90 1.252 . S
C83 O86 1.252 . S
C83 O87 1.260 . S
O84 In78 2.266 . S
O84 C81 1.252 . S
O85 In78 2.326 . S
O85 C81 1.260 . S
O86 In78 2.266 . S
O86 C83 1.252 . S
O87 In78 2.326 . S
O87 C83 1.260 . S
C88 O79 1.240 . S
C88 O80 1.252 . S
O89 In78 2.294 . S
O89 C82 1.240 . S
O90 In78 2.326 . S
O90 C82 1.252 . S
In91 O92 2.294 . S
In91 O93 2.326 . S
In91 O97 2.266 . S
In91 O98 2.326 . S
In91 O99 2.266 . S
In91 O100 2.326 . S
In91 O102 2.294 . S
In91 O103 2.326 . S
O92 In91 2.294 . S
O92 C101 1.240 . S
O93 In91 2.326 . S
O93 C101 1.252 . S
C94 O97 1.252 . S
C94 O98 1.260 . S
C95 O102 1.240 . S
C95 O103 1.252 . S
C96 O99 1.252 . S
C96 O100 1.260 . S
O97 In91 2.266 . S
O97 C94 1.252 . S
O98 In91 2.326 . S
O98 C94 1.260 . S
O99 In91 2.266 . S
O99 C96 1.252 . S
O100 In91 2.326 . S
O100 C96 1.260 . S
C101 O92 1.240 . S
C101 O93 1.252 . S
O102 In91 2.294 . S
O102 C95 1.240 . S
O103 In91 2.326 . S
O103 C95 1.252 . S
In104 O105 2.294 . S
In104 O106 2.326 . S
In104 O110 2.266 . S
In104 O111 2.326 . S
In104 O112 2.266 . S
In104 O113 2.326 . S
In104 O115 2.294 . S
In104 O116 2.326 . S
O105 In104 2.294 . S
O105 C114 1.240 . S
O106 In104 2.326 . S
O106 C114 1.252 . S
C107 O110 1.252 . S
C107 O111 1.260 . S
C108 O115 1.240 . S
C108 O116 1.252 . S
C109 O112 1.252 . S
C109 O113 1.260 . S
O110 In104 2.266 . S
O110 C107 1.252 . S
O111 In104 2.326 . S
O111 C107 1.260 . S
O112 In104 2.266 . S
O112 C109 1.252 . S
O113 In104 2.326 . S
O113 C109 1.260 . S
C114 O105 1.240 . S
C114 O106 1.252 . S
O115 In104 2.294 . S
O115 C108 1.240 . S
O116 In104 2.326 . S
O116 C108 1.252 . S
In117 O118 2.294 . S
In117 O119 2.326 . S
In117 O123 2.266 . S
In117 O124 2.326 . S
In117 O125 2.266 . S
In117 O126 2.326 . S
In117 O128 2.294 . S
In117 O129 2.326 . S
O118 In117 2.294 . S
O118 C127 1.240 . S
O119 In117 2.326 . S
O119 C127 1.252 . S
C120 O123 1.252 . S
C120 O124 1.260 . S
C121 O128 1.240 . S
C121 O129 1.252 . S
C122 O125 1.252 . S
C122 O126 1.260 . S
O123 In117 2.266 . S
O123 C120 1.252 . S
O124 In117 2.326 . S
O124 C120 1.260 . S
O125 In117 2.266 . S
O125 C122 1.252 . S
O126 In117 2.326 . S
O126 C122 1.260 . S
C127 O118 1.240 . S
C127 O119 1.252 . S
O128 In117 2.294 . S
O128 C121 1.240 . S
O129 In117 2.326 . S
O129 C121 1.252 . S
In130 O131 2.294 . S
In130 O132 2.326 . S
In130 O136 2.266 . S
In130 O137 2.326 . S
In130 O138 2.266 . S
In130 O139 2.326 . S
In130 O141 2.294 . S
In130 O142 2.326 . S
O131 In130 2.294 . S
O131 C140 1.240 . S
O132 In130 2.326 . S
O132 C140 1.252 . S
C133 O136 1.252 . S
C133 O137 1.260 . S
C134 O141 1.240 . S
C134 O142 1.252 . S
C135 O138 1.252 . S
C135 O139 1.260 . S
O136 In130 2.266 . S
O136 C133 1.252 . S
O137 In130 2.326 . S
O137 C133 1.260 . S
O138 In130 2.266 . S
O138 C135 1.252 . S
O139 In130 2.326 . S
O139 C135 1.260 . S
C140 O131 1.240 . S
C140 O132 1.252 . S
O141 In130 2.294 . S
O141 C134 1.240 . S
O142 In130 2.326 . S
O142 C134 1.252 . S
In143 O144 2.294 . S
In143 O145 2.326 . S
In143 O149 2.266 . S
In143 O150 2.326 . S
In143 O151 2.266 . S
In143 O152 2.326 . S
In143 O154 2.294 . S
In143 O155 2.326 . S
O144 In143 2.294 . S
O144 C153 1.240 . S
O145 In143 2.326 . S
O145 C153 1.252 . S
C146 O149 1.252 . S
C146 O150 1.260 . S
C147 O154 1.240 . S
C147 O155 1.252 . S
C148 O151 1.252 . S
C148 O152 1.260 . S
O149 In143 2.266 . S
O149 C146 1.252 . S
O150 In143 2.326 . S
O150 C146 1.260 . S
O151 In143 2.266 . S
O151 C148 1.252 . S
O152 In143 2.326 . S
O152 C148 1.260 . S
C153 O144 1.240 . S
C153 O145 1.252 . S
O154 In143 2.294 . S
O154 C147 1.240 . S
O155 In143 2.326 . S
O155 C147 1.252 . S
In156 O157 2.294 . S
In156 O158 2.326 . S
In156 O162 2.266 . S
In156 O163 2.326 . S
In156 O164 2.266 . S
In156 O165 2.326 . S
In156 O167 2.294 . S
In156 O168 2.326 . S
O157 In156 2.294 . S
O157 C166 1.240 . S
O158 In156 2.326 . S
O158 C166 1.252 . S
C159 O162 1.252 . S
C159 O163 1.260 . S
C160 O167 1.240 . S
C160 O168 1.252 . S
C161 O164 1.252 . S
C161 O165 1.260 . S
O162 In156 2.266 . S
O162 C159 1.252 . S
O163 In156 2.326 . S
O163 C159 1.260 . S
O164 In156 2.266 . S
O164 C161 1.252 . S
O165 In156 2.326 . S
O165 C161 1.260 . S
C166 O157 1.240 . S
C166 O158 1.252 . S
O167 In156 2.294 . S
O167 C160 1.240 . S
O168 In156 2.326 . S
O168 C160 1.252 . S
In169 O170 2.294 . S
In169 O171 2.326 . S
In169 O175 2.266 . S
In169 O176 2.326 . S
In169 O177 2.266 . S
In169 O178 2.326 . S
In169 O180 2.294 . S
In169 O181 2.326 . S
O170 In169 2.294 . S
O170 C179 1.240 . S
O171 In169 2.326 . S
O171 C179 1.252 . S
C172 O175 1.252 . S
C172 O176 1.260 . S
C173 O180 1.240 . S
C173 O181 1.252 . S
C174 O177 1.252 . S
C174 O178 1.260 . S
O175 In169 2.266 . S
O175 C172 1.252 . S
O176 In169 2.326 . S
O176 C172 1.260 . S
O177 In169 2.266 . S
O177 C174 1.252 . S
O178 In169 2.326 . S
O178 C174 1.260 . S
C179 O170 1.240 . S
C179 O171 1.252 . S
O180 In169 2.294 . S
O180 C173 1.240 . S
O181 In169 2.326 . S
O181 C173 1.252 . S
In182 O183 2.294 . S
In182 O184 2.326 . S
In182 O188 2.266 . S
In182 O189 2.326 . S
In182 O190 2.266 . S
In182 O191 2.326 . S
In182 O193 2.294 . S
In182 O194 2.326 . S
O183 In182 2.294 . S
O183 C192 1.240 . S
O184 In182 2.326 . S
O184 C192 1.252 . S
C185 O188 1.252 . S
C185 O189 1.260 . S
C186 O193 1.240 . S
C186 O194 1.252 . S
C187 O190 1.252 . S
C187 O191 1.260 . S
O188 In182 2.266 . S
O188 C185 1.252 . S
O189 In182 2.326 . S
O189 C185 1.260 . S
O190 In182 2.266 . S
O190 C187 1.252 . S
O191 In182 2.326 . S
O191 C187 1.260 . S
C192 O183 1.240 . S
C192 O184 1.252 . S
O193 In182 2.294 . S
O193 C186 1.240 . S
O194 In182 2.326 . S
O194 C186 1.252 . S
In195 O196 2.294 . S
In195 O197 2.326 . S
In195 O201 2.266 . S
In195 O202 2.326 . S
In195 O203 2.266 . S
In195 O204 2.326 . S
In195 O206 2.294 . S
In195 O207 2.326 . S
O196 In195 2.294 . S
O196 C205 1.240 . S
O197 In195 2.326 . S
O197 C205 1.252 . S
C198 O201 1.252 . S
C198 O202 1.260 . S
C199 O206 1.240 . S
C199 O207 1.252 . S
C200 O203 1.252 . S
C200 O204 1.260 . S
O201 In195 2.266 . S
O201 C198 1.252 . S
O202 In195 2.326 . S
O202 C198 1.260 . S
O203 In195 2.266 . S
O203 C200 1.252 . S
O204 In195 2.326 . S
O204 C200 1.260 . S
C205 O196 1.240 . S
C205 O197 1.252 . S
O206 In195 2.294 . S
O206 C199 1.240 . S
O207 In195 2.326 . S
O207 C199 1.252 . S
C208 C209 1.349 . S
C208 C210 1.327 . S
C208 H233 0.950 . S
C209 C208 1.349 . S
C209 C225 1.349 . S
C210 C208 1.327 . S
C210 C229 1.429 . S
C210 H234 0.950 . S
C211 C228 1.574 . S
C211 C230 1.368 . S
C211 H235 0.949 . S
H212 C216 0.949 . S
C213 C214 1.349 . S
C213 C215 1.327 . S
C213 H236 0.950 . S
C214 C213 1.349 . S
C214 C226 1.349 . S
C215 C213 1.327 . S
C215 C231 1.429 . S
C215 H237 0.950 . S
C216 H212 0.949 . S
C216 C224 1.574 . S
C216 C232 1.368 . S
H217 C225 0.950 . S
H218 C223 0.950 . S
H219 C224 0.949 . S
H220 C226 0.950 . S
H221 C227 0.950 . S
H222 C228 0.949 . S
C223 H218 0.950 . S
C223 C225 1.327 . S
C223 C229 1.429 . S
C224 C216 1.574 . S
C224 H219 0.949 . S
C224 C230 1.368 . S
C225 C209 1.349 . S
C225 H217 0.950 . S
C225 C223 1.327 . S
C226 C214 1.349 . S
C226 H220 0.950 . S
C226 C227 1.327 . S
C227 H221 0.950 . S
C227 C226 1.327 . S
C227 C231 1.429 . S
C228 C211 1.574 . S
C228 H222 0.949 . S
C228 C232 1.368 . S
C229 C210 1.429 . S
C229 C223 1.429 . S
C229 C230 1.523 . S
C230 C211 1.368 . S
C230 C224 1.368 . S
C230 C229 1.523 . S
C231 C215 1.429 . S
C231 C227 1.429 . S
C231 C232 1.523 . S
C232 C216 1.368 . S
C232 C228 1.368 . S
C232 C231 1.523 . S
H233 C208 0.950 . S
H234 C210 0.950 . S
H235 C211 0.949 . S
H236 C213 0.950 . S
H237 C215 0.950 . S
C238 C239 1.349 . S
C238 C240 1.327 . S
C238 H263 0.950 . S
C239 C238 1.349 . S
C239 C255 1.349 . S
C240 C238 1.327 . S
C240 C259 1.429 . S
C240 H264 0.950 . S
C241 C258 1.574 . S
C241 C260 1.368 . S
C241 H265 0.949 . S
H242 C246 0.949 . S
C243 C244 1.349 . S
C243 C245 1.327 . S
C243 H266 0.950 . S
C244 C243 1.349 . S
C244 C256 1.349 . S
C245 C243 1.327 . S
C245 C261 1.429 . S
C245 H267 0.950 . S
C246 H242 0.949 . S
C246 C254 1.574 . S
C246 C262 1.368 . S
H247 C255 0.950 . S
H248 C253 0.950 . S
H249 C254 0.949 . S
H250 C256 0.950 . S
H251 C257 0.950 . S
H252 C258 0.949 . S
C253 H248 0.950 . S
C253 C255 1.327 . S
C253 C259 1.429 . S
C254 C246 1.574 . S
C254 H249 0.949 . S
C254 C260 1.368 . S
C255 C239 1.349 . S
C255 H247 0.950 . S
C255 C253 1.327 . S
C256 C244 1.349 . S
C256 H250 0.950 . S
C256 C257 1.327 . S
C257 H251 0.950 . S
C257 C256 1.327 . S
C257 C261 1.429 . S
C258 C241 1.574 . S
C258 H252 0.949 . S
C258 C262 1.368 . S
C259 C240 1.429 . S
C259 C253 1.429 . S
C259 C260 1.523 . S
C260 C241 1.368 . S
C260 C254 1.368 . S
C260 C259 1.523 . S
C261 C245 1.429 . S
C261 C257 1.429 . S
C261 C262 1.523 . S
C262 C246 1.368 . S
C262 C258 1.368 . S
C262 C261 1.523 . S
H263 C238 0.950 . S
H264 C240 0.950 . S
H265 C241 0.949 . S
H266 C243 0.950 . S
H267 C245 0.950 . S
C268 C269 1.349 . S
C268 C270 1.327 . S
C268 H293 0.950 . S
C269 C268 1.349 . S
C269 C285 1.349 . S
C270 C268 1.327 . S
C270 C289 1.429 . S
C270 H294 0.950 . S
C271 C288 1.574 1_554 S
C271 C290 1.368 . S
C271 H295 0.949 . S
H272 C276 0.949 . S
C273 C274 1.349 . S
C273 C275 1.327 . S
C273 H296 0.950 . S
C274 C273 1.349 . S
C274 C286 1.349 . S
C275 C273 1.327 . S
C275 C291 1.429 . S
C275 H297 0.950 . S
C276 H272 0.949 . S
C276 C284 1.574 1_556 S
C276 C292 1.368 . S
H277 C285 0.950 . S
H278 C283 0.950 . S
H279 C284 0.949 . S
H280 C286 0.950 . S
H281 C287 0.950 . S
H282 C288 0.949 . S
C283 H278 0.950 . S
C283 C285 1.327 . S
C283 C289 1.429 . S
C284 C276 1.574 1_554 S
C284 H279 0.949 . S
C284 C290 1.368 . S
C285 C269 1.349 . S
C285 H277 0.950 . S
C285 C283 1.327 . S
C286 C274 1.349 . S
C286 H280 0.950 . S
C286 C287 1.327 . S
C287 H281 0.950 . S
C287 C286 1.327 . S
C287 C291 1.429 . S
C288 C271 1.574 1_556 S
C288 H282 0.949 . S
C288 C292 1.368 . S
C289 C270 1.429 . S
C289 C283 1.429 . S
C289 C290 1.523 . S
C290 C271 1.368 . S
C290 C284 1.368 . S
C290 C289 1.523 . S
C291 C275 1.429 . S
C291 C287 1.429 . S
C291 C292 1.523 . S
C292 C276 1.368 . S
C292 C288 1.368 . S
C292 C291 1.523 . S
H293 C268 0.950 . S
H294 C270 0.950 . S
H295 C271 0.949 . S
H296 C273 0.950 . S
H297 C275 0.950 . S
C298 C299 1.349 . S
C298 C300 1.327 . S
C298 H323 0.950 . S
C299 C298 1.349 . S
C299 C315 1.349 . S
C300 C298 1.327 . S
C300 C319 1.429 . S
C300 H324 0.950 . S
C301 C318 1.574 1_556 S
C301 C320 1.368 . S
C301 H325 0.949 . S
H302 C306 0.949 . S
C303 C304 1.349 . S
C303 C305 1.327 . S
C303 H326 0.950 . S
C304 C303 1.349 . S
C304 C316 1.349 . S
C305 C303 1.327 . S
C305 C321 1.429 . S
C305 H327 0.950 . S
C306 H302 0.949 . S
C306 C314 1.574 1_554 S
C306 C322 1.368 . S
H307 C315 0.950 . S
H308 C313 0.950 . S
H309 C314 0.949 . S
H310 C316 0.950 . S
H311 C317 0.950 . S
H312 C318 0.949 . S
C313 H308 0.950 . S
C313 C315 1.327 . S
C313 C319 1.429 . S
C314 C306 1.574 1_556 S
C314 H309 0.949 . S
C314 C320 1.368 . S
C315 C299 1.349 . S
C315 H307 0.950 . S
C315 C313 1.327 . S
C316 C304 1.349 . S
C316 H310 0.950 . S
C316 C317 1.327 . S
C317 H311 0.950 . S
C317 C316 1.327 . S
C317 C321 1.429 . S
C318 C301 1.574 1_554 S
C318 H312 0.949 . S
C318 C322 1.368 . S
C319 C300 1.429 . S
C319 C313 1.429 . S
C319 C320 1.523 . S
C320 C301 1.368 . S
C320 C314 1.368 . S
C320 C319 1.523 . S
C321 C305 1.429 . S
C321 C317 1.429 . S
C321 C322 1.523 . S
C322 C306 1.368 . S
C322 C318 1.368 . S
C322 C321 1.523 . S
H323 C298 0.950 . S
H324 C300 0.950 . S
H325 C301 0.949 . S
H326 C303 0.950 . S
H327 C305 0.950 . S
C328 C329 1.349 . S
C328 C330 1.327 . S
C328 H353 0.950 . S
C329 C328 1.349 . S
C329 C345 1.349 . S
C330 C328 1.327 . S
C330 C349 1.429 . S
C330 H354 0.950 . S
C331 C348 1.574 . S
C331 C350 1.368 . S
C331 H355 0.949 . S
H332 C336 0.949 . S
C333 C334 1.349 . S
C333 C335 1.327 . S
C333 H356 0.950 . S
C334 C333 1.349 . S
C334 C346 1.349 . S
C335 C333 1.327 . S
C335 C351 1.429 . S
C335 H357 0.950 . S
C336 H332 0.949 . S
C336 C344 1.574 . S
C336 C352 1.368 . S
H337 C345 0.950 . S
H338 C343 0.950 . S
H339 C344 0.949 . S
H340 C346 0.950 . S
H341 C347 0.950 . S
H342 C348 0.949 . S
C343 H338 0.950 . S
C343 C345 1.327 . S
C343 C349 1.429 . S
C344 C336 1.574 . S
C344 H339 0.949 . S
C344 C350 1.368 . S
C345 C329 1.349 . S
C345 H337 0.950 . S
C345 C343 1.327 . S
C346 C334 1.349 . S
C346 H340 0.950 . S
C346 C347 1.327 . S
C347 H341 0.950 . S
C347 C346 1.327 . S
C347 C351 1.429 . S
C348 C331 1.574 . S
C348 H342 0.949 . S
C348 C352 1.368 . S
C349 C330 1.429 . S
C349 C343 1.429 . S
C349 C350 1.523 . S
C350 C331 1.368 . S
C350 C344 1.368 . S
C350 C349 1.523 . S
C351 C335 1.429 . S
C351 C347 1.429 . S
C351 C352 1.523 . S
C352 C336 1.368 . S
C352 C348 1.368 . S
C352 C351 1.523 . S
H353 C328 0.950 . S
H354 C330 0.950 . S
H355 C331 0.949 . S
H356 C333 0.950 . S
H357 C335 0.950 . S
C358 C359 1.349 . S
C358 C360 1.327 . S
C358 H383 0.950 . S
C359 C358 1.349 . S
C359 C375 1.349 . S
C360 C358 1.327 . S
C360 C379 1.429 . S
C360 H384 0.950 . S
C361 C378 1.574 . S
C361 C380 1.368 . S
C361 H385 0.949 . S
H362 C366 0.949 . S
C363 C364 1.349 . S
C363 C365 1.327 . S
C363 H386 0.950 . S
C364 C363 1.349 . S
C364 C376 1.349 . S
C365 C363 1.327 . S
C365 C381 1.429 . S
C365 H387 0.950 . S
C366 H362 0.949 . S
C366 C374 1.574 . S
C366 C382 1.368 . S
H367 C375 0.950 . S
H368 C373 0.950 . S
H369 C374 0.949 . S
H370 C376 0.950 . S
H371 C377 0.950 . S
H372 C378 0.949 . S
C373 H368 0.950 . S
C373 C375 1.327 . S
C373 C379 1.429 . S
C374 C366 1.574 . S
C374 H369 0.949 . S
C374 C380 1.368 . S
C375 C359 1.349 . S
C375 H367 0.950 . S
C375 C373 1.327 . S
C376 C364 1.349 . S
C376 H370 0.950 . S
C376 C377 1.327 . S
C377 H371 0.950 . S
C377 C376 1.327 . S
C377 C381 1.429 . S
C378 C361 1.574 . S
C378 H372 0.949 . S
C378 C382 1.368 . S
C379 C360 1.429 . S
C379 C373 1.429 . S
C379 C380 1.523 . S
C380 C361 1.368 . S
C380 C374 1.368 . S
C380 C379 1.523 . S
C381 C365 1.429 . S
C381 C377 1.429 . S
C381 C382 1.523 . S
C382 C366 1.368 . S
C382 C378 1.368 . S
C382 C381 1.523 . S
H383 C358 0.950 . S
H384 C360 0.950 . S
H385 C361 0.949 . S
H386 C363 0.950 . S
H387 C365 0.950 . S
C388 C389 1.349 . S
C388 C390 1.327 . S
C388 H413 0.950 . S
C389 C388 1.349 . S
C389 C405 1.349 . S
C390 C388 1.327 . S
C390 C409 1.429 . S
C390 H414 0.950 . S
C391 C408 1.574 1_556 S
C391 C410 1.368 . S
C391 H415 0.949 . S
H392 C396 0.949 . S
C393 C394 1.349 . S
C393 C395 1.327 . S
C393 H416 0.950 . S
C394 C393 1.349 . S
C394 C406 1.349 . S
C395 C393 1.327 . S
C395 C411 1.429 . S
C395 H417 0.950 . S
C396 H392 0.949 . S
C396 C404 1.574 1_554 S
C396 C412 1.368 . S
H397 C405 0.950 . S
H398 C403 0.950 . S
H399 C404 0.949 . S
H400 C406 0.950 . S
H401 C407 0.950 . S
H402 C408 0.949 . S
C403 H398 0.950 . S
C403 C405 1.327 . S
C403 C409 1.429 . S
C404 C396 1.574 1_556 S
C404 H399 0.949 . S
C404 C410 1.368 . S
C405 C389 1.349 . S
C405 H397 0.950 . S
C405 C403 1.327 . S
C406 C394 1.349 . S
C406 H400 0.950 . S
C406 C407 1.327 . S
C407 H401 0.950 . S
C407 C406 1.327 . S
C407 C411 1.429 . S
C408 C391 1.574 1_554 S
C408 H402 0.949 . S
C408 C412 1.368 . S
C409 C390 1.429 . S
C409 C403 1.429 . S
C409 C410 1.523 . S
C410 C391 1.368 . S
C410 C404 1.368 . S
C410 C409 1.523 . S
C411 C395 1.429 . S
C411 C407 1.429 . S
C411 C412 1.523 . S
C412 C396 1.368 . S
C412 C408 1.368 . S
C412 C411 1.523 . S
H413 C388 0.950 . S
H414 C390 0.950 . S
H415 C391 0.949 . S
H416 C393 0.950 . S
H417 C395 0.950 . S
C418 C419 1.349 . S
C418 C420 1.327 . S
C418 H443 0.950 . S
C419 C418 1.349 . S
C419 C435 1.349 . S
C420 C418 1.327 . S
C420 C439 1.429 . S
C420 H444 0.950 . S
C421 C438 1.574 1_554 S
C421 C440 1.368 . S
C421 H445 0.949 . S
H422 C426 0.949 . S
C423 C424 1.349 . S
C423 C425 1.327 . S
C423 H446 0.950 . S
C424 C423 1.349 . S
C424 C436 1.349 . S
C425 C423 1.327 . S
C425 C441 1.429 . S
C425 H447 0.950 . S
C426 H422 0.949 . S
C426 C434 1.574 1_556 S
C426 C442 1.368 . S
H427 C435 0.950 . S
H428 C433 0.950 . S
H429 C434 0.949 . S
H430 C436 0.950 . S
H431 C437 0.950 . S
H432 C438 0.949 . S
C433 H428 0.950 . S
C433 C435 1.327 . S
C433 C439 1.429 . S
C434 C426 1.574 1_554 S
C434 H429 0.949 . S
C434 C440 1.368 . S
C435 C419 1.349 . S
C435 H427 0.950 . S
C435 C433 1.327 . S
C436 C424 1.349 . S
C436 H430 0.950 . S
C436 C437 1.327 . S
C437 H431 0.950 . S
C437 C436 1.327 . S
C437 C441 1.429 . S
C438 C421 1.574 1_556 S
C438 H432 0.949 . S
C438 C442 1.368 . S
C439 C420 1.429 . S
C439 C433 1.429 . S
C439 C440 1.523 . S
C440 C421 1.368 . S
C440 C434 1.368 . S
C440 C439 1.523 . S
C441 C425 1.429 . S
C441 C437 1.429 . S
C441 C442 1.523 . S
C442 C426 1.368 . S
C442 C438 1.368 . S
C442 C441 1.523 . S
H443 C418 0.950 . S
H444 C420 0.950 . S
H445 C421 0.949 . S
H446 C423 0.950 . S
H447 C425 0.950 . S
C448 C449 1.349 . S
C448 C450 1.327 . S
C448 H473 0.950 . S
C449 C448 1.349 . S
C449 C465 1.349 . S
C450 C448 1.327 . S
C450 C469 1.429 . S
C450 H474 0.950 . S
C451 C468 1.574 . S
C451 C470 1.368 1_545 S
C451 H475 0.949 . S
H452 C456 0.949 . S
C453 C454 1.349 . S
C453 C455 1.327 . S
C453 H476 0.950 . S
C454 C453 1.349 . S
C454 C466 1.349 . S
C455 C453 1.327 . S
C455 C471 1.429 . S
C455 H477 0.950 . S
C456 H452 0.949 . S
C456 C464 1.574 . S
C456 C472 1.368 1_565 S
H457 C465 0.950 . S
H458 C463 0.978 . S
H459 C464 0.949 . S
H460 C466 0.950 . S
H461 C467 0.978 . S
H462 C468 0.949 . S
C463 H458 0.978 . S
C463 C465 1.327 . S
C463 C469 1.429 . S
C464 C456 1.574 . S
C464 H459 0.949 . S
C464 C470 1.368 . S
C465 C449 1.349 . S
C465 H457 0.950 . S
C465 C463 1.327 . S
C466 C454 1.349 . S
C466 H460 0.950 . S
C466 C467 1.327 . S
C467 H461 0.978 . S
C467 C466 1.327 . S
C467 C471 1.429 . S
C468 C451 1.574 . S
C468 H462 0.949 . S
C468 C472 1.368 . S
C469 C450 1.429 . S
C469 C463 1.429 . S
C469 C470 1.523 . S
C470 C451 1.368 1_565 S
C470 C464 1.368 . S
C470 C469 1.523 . S
C471 C455 1.429 . S
C471 C467 1.429 . S
C471 C472 1.523 . S
C472 C456 1.368 1_545 S
C472 C468 1.368 . S
C472 C471 1.523 . S
H473 C448 0.950 . S
H474 C450 0.950 . S
H475 C451 0.949 . S
H476 C453 0.950 . S
H477 C455 0.950 . S
C478 C479 1.349 . S
C478 C480 1.327 . S
C478 H503 0.950 . S
C479 C478 1.349 . S
C479 C495 1.349 . S
C480 C478 1.327 . S
C480 C499 1.429 . S
C480 H504 0.978 . S
C481 C498 1.574 . S
C481 C500 1.368 . S
C481 H505 0.949 . S
H482 C486 0.949 . S
C483 C484 1.349 . S
C483 C485 1.327 . S
C483 H506 0.950 . S
C484 C483 1.349 . S
C484 C496 1.349 . S
C485 C483 1.327 . S
C485 C501 1.429 . S
C485 H507 0.978 . S
C486 H482 0.949 . S
C486 C494 1.574 . S
C486 C502 1.368 . S
H487 C495 0.950 . S
H488 C493 0.950 . S
H489 C494 0.949 . S
H490 C496 0.950 . S
H491 C497 0.950 . S
H492 C498 0.949 . S
C493 H488 0.950 . S
C493 C495 1.327 . S
C493 C499 1.429 . S
C494 C486 1.574 . S
C494 H489 0.949 . S
C494 C500 1.368 1_545 S
C495 C479 1.349 . S
C495 H487 0.950 . S
C495 C493 1.327 . S
C496 C484 1.349 . S
C496 H490 0.950 . S
C496 C497 1.327 . S
C497 H491 0.950 . S
C497 C496 1.327 . S
C497 C501 1.429 . S
C498 C481 1.574 . S
C498 H492 0.949 . S
C498 C502 1.368 1_565 S
C499 C480 1.429 . S
C499 C493 1.429 . S
C499 C500 1.523 . S
C500 C481 1.368 . S
C500 C494 1.368 1_565 S
C500 C499 1.523 . S
C501 C485 1.429 . S
C501 C497 1.429 . S
C501 C502 1.523 . S
C502 C486 1.368 . S
C502 C498 1.368 1_545 S
C502 C501 1.523 . S
H503 C478 0.950 . S
H504 C480 0.978 . S
H505 C481 0.949 . S
H506 C483 0.950 . S
H507 C485 0.978 . S
C508 C509 1.349 . S
C508 C510 1.327 . S
C508 H533 0.950 . S
C509 C508 1.349 . S
C509 C525 1.349 . S
C510 C508 1.327 . S
C510 C529 1.429 . S
C510 H534 0.950 . S
C511 C528 1.574 . S
C511 C530 1.368 1_545 S
C511 H535 0.949 . S
H512 C516 0.949 . S
C513 C514 1.349 . S
C513 C515 1.327 . S
C513 H536 0.950 . S
C514 C513 1.349 . S
C514 C526 1.349 . S
C515 C513 1.327 . S
C515 C531 1.429 . S
C515 H537 0.950 . S
C516 H512 0.949 . S
C516 C524 1.574 . S
C516 C532 1.368 1_565 S
H517 C525 0.950 . S
H518 C523 0.978 . S
H519 C524 0.949 . S
H520 C526 0.950 . S
H521 C527 0.978 . S
H522 C528 0.949 . S
C523 H518 0.978 . S
C523 C525 1.327 . S
C523 C529 1.429 . S
C524 C516 1.574 . S
C524 H519 0.949 . S
C524 C530 1.368 . S
C525 C509 1.349 . S
C525 H517 0.950 . S
C525 C523 1.327 . S
C526 C514 1.349 . S
C526 H520 0.950 . S
C526 C527 1.327 . S
C527 H521 0.978 . S
C527 C526 1.327 . S
C527 C531 1.429 . S
C528 C511 1.574 . S
C528 H522 0.949 . S
C528 C532 1.368 . S
C529 C510 1.429 . S
C529 C523 1.429 . S
C529 C530 1.523 . S
C530 C511 1.368 1_565 S
C530 C524 1.368 . S
C530 C529 1.523 . S
C531 C515 1.429 . S
C531 C527 1.429 . S
C531 C532 1.523 . S
C532 C516 1.368 1_545 S
C532 C528 1.368 . S
C532 C531 1.523 . S
H533 C508 0.950 . S
H534 C510 0.950 . S
H535 C511 0.949 . S
H536 C513 0.950 . S
H537 C515 0.950 . S
C538 C539 1.349 . S
C538 C540 1.327 . S
C538 H563 0.950 . S
C539 C538 1.349 . S
C539 C555 1.349 . S
C540 C538 1.327 . S
C540 C559 1.429 . S
C540 H564 0.950 . S
C541 C558 1.574 . S
C541 C560 1.368 1_565 S
C541 H565 0.949 . S
H542 C546 0.949 . S
C543 C544 1.349 . S
C543 C545 1.327 . S
C543 H566 0.950 . S
C544 C543 1.349 . S
C544 C556 1.349 . S
C545 C543 1.327 . S
C545 C561 1.429 . S
C545 H567 0.950 . S
C546 H542 0.949 . S
C546 C554 1.574 . S
C546 C562 1.368 1_545 S
H547 C555 0.950 . S
H548 C553 0.978 . S
H549 C554 0.949 . S
H550 C556 0.950 . S
H551 C557 0.978 . S
H552 C558 0.949 . S
C553 H548 0.978 . S
C553 C555 1.327 . S
C553 C559 1.429 . S
C554 C546 1.574 . S
C554 H549 0.949 . S
C554 C560 1.368 . S
C555 C539 1.349 . S
C555 H547 0.950 . S
C555 C553 1.327 . S
C556 C544 1.349 . S
C556 H550 0.950 . S
C556 C557 1.327 . S
C557 H551 0.978 . S
C557 C556 1.327 . S
C557 C561 1.429 . S
C558 C541 1.574 . S
C558 H552 0.949 . S
C558 C562 1.368 . S
C559 C540 1.429 . S
C559 C553 1.429 . S
C559 C560 1.523 . S
C560 C541 1.368 1_545 S
C560 C554 1.368 . S
C560 C559 1.523 . S
C561 C545 1.429 . S
C561 C557 1.429 . S
C561 C562 1.523 . S
C562 C546 1.368 1_565 S
C562 C558 1.368 . S
C562 C561 1.523 . S
H563 C538 0.950 . S
H564 C540 0.950 . S
H565 C541 0.949 . S
H566 C543 0.950 . S
H567 C545 0.950 . S
C568 C569 1.349 . S
C568 C570 1.327 . S
C568 H593 0.950 . S
C569 C568 1.349 . S
C569 C585 1.349 . S
C570 C568 1.327 . S
C570 C589 1.429 . S
C570 H594 0.950 . S
C571 C588 1.574 1_655 S
C571 C590 1.368 . S
C571 H595 0.949 . S
H572 C576 0.949 . S
C573 C574 1.349 . S
C573 C575 1.327 . S
C573 H596 0.950 . S
C574 C573 1.349 . S
C574 C586 1.349 . S
C575 C573 1.327 . S
C575 C591 1.429 . S
C575 H597 0.950 . S
C576 H572 0.949 . S
C576 C584 1.574 1_455 S
C576 C592 1.368 . S
H577 C585 0.950 . S
H578 C583 0.950 . S
H579 C584 0.949 . S
H580 C586 0.950 . S
H581 C587 0.950 . S
H582 C588 0.949 . S
C583 H578 0.950 . S
C583 C585 1.327 . S
C583 C589 1.429 . S
C584 C576 1.574 1_655 S
C584 H579 0.949 . S
C584 C590 1.368 . S
C585 C569 1.349 . S
C585 H577 0.950 . S
C585 C583 1.327 . S
C586 C574 1.349 . S
C586 H580 0.950 . S
C586 C587 1.327 . S
C587 H581 0.950 . S
C587 C586 1.327 . S
C587 C591 1.429 . S
C588 C571 1.574 1_455 S
C588 H582 0.949 . S
C588 C592 1.368 . S
C589 C570 1.429 . S
C589 C583 1.429 . S
C589 C590 1.523 . S
C590 C571 1.368 . S
C590 C584 1.368 . S
C590 C589 1.523 . S
C591 C575 1.429 . S
C591 C587 1.429 . S
C591 C592 1.523 . S
C592 C576 1.368 . S
C592 C588 1.368 . S
C592 C591 1.523 . S
H593 C568 0.950 . S
H594 C570 0.950 . S
H595 C571 0.949 . S
H596 C573 0.950 . S
H597 C575 0.950 . S
C598 C599 1.349 . S
C598 C600 1.327 . S
C598 H623 0.950 . S
C599 C598 1.349 . S
C599 C615 1.349 . S
C600 C598 1.327 . S
C600 C619 1.429 . S
C600 H624 0.950 . S
C601 C618 1.574 1_455 S
C601 C620 1.368 . S
C601 H625 0.949 . S
H602 C606 0.949 . S
C603 C604 1.349 . S
C603 C605 1.327 . S
C603 H626 0.950 . S
C604 C603 1.349 . S
C604 C616 1.349 . S
C605 C603 1.327 . S
C605 C621 1.429 . S
C605 H627 0.950 . S
C606 H602 0.949 . S
C606 C614 1.574 1_655 S
C606 C622 1.368 . S
H607 C615 0.950 . S
H608 C613 0.950 . S
H609 C614 0.949 . S
H610 C616 0.950 . S
H611 C617 0.950 . S
H612 C618 0.949 . S
C613 H608 0.950 . S
C613 C615 1.327 . S
C613 C619 1.429 . S
C614 C606 1.574 1_455 S
C614 H609 0.949 . S
C614 C620 1.368 . S
C615 C599 1.349 . S
C615 H607 0.950 . S
C615 C613 1.327 . S
C616 C604 1.349 . S
C616 H610 0.950 . S
C616 C617 1.327 . S
C617 H611 0.950 . S
C617 C616 1.327 . S
C617 C621 1.429 . S
C618 C601 1.574 1_655 S
C618 H612 0.949 . S
C618 C622 1.368 . S
C619 C600 1.429 . S
C619 C613 1.429 . S
C619 C620 1.523 . S
C620 C601 1.368 . S
C620 C614 1.368 . S
C620 C619 1.523 . S
C621 C605 1.429 . S
C621 C617 1.429 . S
C621 C622 1.523 . S
C622 C606 1.368 . S
C622 C618 1.368 . S
C622 C621 1.523 . S
H623 C598 0.950 . S
H624 C600 0.950 . S
H625 C601 0.949 . S
H626 C603 0.950 . S
H627 C605 0.950 . S
C628 C629 1.349 . S
C628 C630 1.327 . S
C628 H653 0.950 . S
C629 C628 1.349 . S
C629 C645 1.349 . S
C630 C628 1.327 . S
C630 C649 1.429 . S
C630 H654 0.950 . S
C631 C648 1.574 1_655 S
C631 C650 1.368 . S
C631 H655 0.949 . S
H632 C636 0.949 . S
C633 C634 1.349 . S
C633 C635 1.327 . S
C633 H656 0.950 . S
C634 C633 1.349 . S
C634 C646 1.349 . S
C635 C633 1.327 . S
C635 C651 1.429 . S
C635 H657 0.950 . S
C636 H632 0.949 . S
C636 C644 1.574 1_455 S
C636 C652 1.368 . S
H637 C645 0.950 . S
H638 C643 0.950 . S
H639 C644 0.949 . S
H640 C646 0.950 . S
H641 C647 0.950 . S
H642 C648 0.949 . S
C643 H638 0.950 . S
C643 C645 1.327 . S
C643 C649 1.429 . S
C644 C636 1.574 1_655 S
C644 H639 0.949 . S
C644 C650 1.368 . S
C645 C629 1.349 . S
C645 H637 0.950 . S
C645 C643 1.327 . S
C646 C634 1.349 . S
C646 H640 0.950 . S
C646 C647 1.327 . S
C647 H641 0.950 . S
C647 C646 1.327 . S
C647 C651 1.429 . S
C648 C631 1.574 1_455 S
C648 H642 0.949 . S
C648 C652 1.368 . S
C649 C630 1.429 . S
C649 C643 1.429 . S
C649 C650 1.523 . S
C650 C631 1.368 . S
C650 C644 1.368 . S
C650 C649 1.523 . S
C651 C635 1.429 . S
C651 C647 1.429 . S
C651 C652 1.523 . S
C652 C636 1.368 . S
C652 C648 1.368 . S
C652 C651 1.523 . S
H653 C628 0.950 . S
H654 C630 0.950 . S
H655 C631 0.949 . S
H656 C633 0.950 . S
H657 C635 0.950 . S
C658 C659 1.349 . S
C658 C660 1.327 . S
C658 H683 0.950 . S
C659 C658 1.349 . S
C659 C675 1.349 . S
C660 C658 1.327 . S
C660 C679 1.429 . S
C660 H684 0.950 . S
C661 C678 1.574 1_455 S
C661 C680 1.368 . S
C661 H685 0.949 . S
H662 C666 0.949 . S
C663 C664 1.349 . S
C663 C665 1.327 . S
C663 H686 0.950 . S
C664 C663 1.349 . S
C664 C676 1.349 . S
C665 C663 1.327 . S
C665 C681 1.429 . S
C665 H687 0.950 . S
C666 H662 0.949 . S
C666 C674 1.574 1_655 S
C666 C682 1.368 . S
H667 C675 0.950 . S
H668 C673 0.950 . S
H669 C674 0.949 . S
H670 C676 0.950 . S
H671 C677 0.950 . S
H672 C678 0.949 . S
C673 H668 0.950 . S
C673 C675 1.327 . S
C673 C679 1.429 . S
C674 C666 1.574 1_455 S
C674 H669 0.949 . S
C674 C680 1.368 . S
C675 C659 1.349 . S
C675 H667 0.950 . S
C675 C673 1.327 . S
C676 C664 1.349 . S
C676 H670 0.950 . S
C676 C677 1.327 . S
C677 H671 0.950 . S
C677 C676 1.327 . S
C677 C681 1.429 . S
C678 C661 1.574 1_655 S
C678 H672 0.949 . S
C678 C682 1.368 . S
C679 C660 1.429 . S
C679 C673 1.429 . S
C679 C680 1.523 . S
C680 C661 1.368 . S
C680 C674 1.368 . S
C680 C679 1.523 . S
C681 C665 1.429 . S
C681 C677 1.429 . S
C681 C682 1.523 . S
C682 C666 1.368 . S
C682 C678 1.368 . S
C682 C681 1.523 . S
H683 C658 0.950 . S
H684 C660 0.950 . S
H685 C661 0.949 . S
H686 C663 0.950 . S
H687 C665 0.950 . S
C688 C689 1.349 . S
C688 C690 1.327 . S
C688 H713 0.950 . S
C689 C688 1.349 . S
C689 C705 1.349 . S
C690 C688 1.327 . S
C690 C709 1.429 . S
C690 H714 0.950 . S
C691 C708 1.574 . S
C691 C710 1.368 . S
C691 H715 0.949 . S
H692 C696 0.949 . S
C693 C694 1.349 . S
C693 C695 1.327 . S
C693 H716 0.950 . S
C694 C693 1.349 . S
C694 C706 1.349 . S
C695 C693 1.327 . S
C695 C711 1.429 . S
C695 H717 0.950 . S
C696 H692 0.949 . S
C696 C704 1.574 . S
C696 C712 1.368 . S
H697 C705 0.950 . S
H698 C703 0.950 . S
H699 C704 0.949 . S
H700 C706 0.950 . S
H701 C707 0.950 . S
H702 C708 0.949 . S
C703 H698 0.950 . S
C703 C705 1.327 . S
C703 C709 1.429 . S
C704 C696 1.574 . S
C704 H699 0.949 . S
C704 C710 1.368 . S
C705 C689 1.349 . S
C705 H697 0.950 . S
C705 C703 1.327 . S
C706 C694 1.349 . S
C706 H700 0.950 . S
C706 C707 1.327 . S
C707 H701 0.950 . S
C707 C706 1.327 . S
C707 C711 1.429 . S
C708 C691 1.574 . S
C708 H702 0.949 . S
C708 C712 1.368 . S
C709 C690 1.429 . S
C709 C703 1.429 . S
C709 C710 1.523 . S
C710 C691 1.368 . S
C710 C704 1.368 . S
C710 C709 1.523 . S
C711 C695 1.429 . S
C711 C707 1.429 . S
C711 C712 1.523 . S
C712 C696 1.368 . S
C712 C708 1.368 . S
C712 C711 1.523 . S
H713 C688 0.950 . S
H714 C690 0.950 . S
H715 C691 0.949 . S
H716 C693 0.950 . S
H717 C695 0.950 . S
C718 C719 1.349 . S
C718 C720 1.327 . S
C718 H743 0.950 . S
C719 C718 1.349 . S
C719 C735 1.349 . S
C720 C718 1.327 . S
C720 C739 1.429 . S
C720 H744 0.950 . S
C721 C738 1.574 . S
C721 C740 1.368 . S
C721 H745 0.949 . S
H722 C726 0.949 . S
C723 C724 1.349 . S
C723 C725 1.327 . S
C723 H746 0.950 . S
C724 C723 1.349 . S
C724 C736 1.349 . S
C725 C723 1.327 . S
C725 C741 1.429 . S
C725 H747 0.950 . S
C726 H722 0.949 . S
C726 C734 1.574 . S
C726 C742 1.368 . S
H727 C735 0.950 . S
H728 C733 0.950 . S
H729 C734 0.949 . S
H730 C736 0.950 . S
H731 C737 0.950 . S
H732 C738 0.949 . S
C733 H728 0.950 . S
C733 C735 1.327 . S
C733 C739 1.429 . S
C734 C726 1.574 . S
C734 H729 0.949 . S
C734 C740 1.368 . S
C735 C719 1.349 . S
C735 H727 0.950 . S
C735 C733 1.327 . S
C736 C724 1.349 . S
C736 H730 0.950 . S
C736 C737 1.327 . S
C737 H731 0.950 . S
C737 C736 1.327 . S
C737 C741 1.429 . S
C738 C721 1.574 . S
C738 H732 0.949 . S
C738 C742 1.368 . S
C739 C720 1.429 . S
C739 C733 1.429 . S
C739 C740 1.523 . S
C740 C721 1.368 . S
C740 C734 1.368 . S
C740 C739 1.523 . S
C741 C725 1.429 . S
C741 C737 1.429 . S
C741 C742 1.523 . S
C742 C726 1.368 . S
C742 C738 1.368 . S
C742 C741 1.523 . S
H743 C718 0.950 . S
H744 C720 0.950 . S
H745 C721 0.949 . S
H746 C723 0.950 . S
H747 C725 0.950 . S
C748 C749 1.349 . S
C748 C750 1.327 . S
C748 H773 0.950 . S
C749 C748 1.349 . S
C749 C765 1.349 . S
C750 C748 1.327 . S
C750 C769 1.429 . S
C750 H774 0.950 . S
C751 C768 1.574 . S
C751 C770 1.368 . S
C751 H775 0.949 . S
H752 C756 0.949 . S
C753 C754 1.349 . S
C753 C755 1.327 . S
C753 H776 0.950 . S
C754 C753 1.349 . S
C754 C766 1.349 . S
C755 C753 1.327 . S
C755 C771 1.429 . S
C755 H777 0.950 . S
C756 H752 0.949 . S
C756 C764 1.574 . S
C756 C772 1.368 . S
H757 C765 0.950 . S
H758 C763 0.950 . S
H759 C764 0.949 . S
H760 C766 0.950 . S
H761 C767 0.950 . S
H762 C768 0.949 . S
C763 H758 0.950 . S
C763 C765 1.327 . S
C763 C769 1.429 . S
C764 C756 1.574 . S
C764 H759 0.949 . S
C764 C770 1.368 . S
C765 C749 1.349 . S
C765 H757 0.950 . S
C765 C763 1.327 . S
C766 C754 1.349 . S
C766 H760 0.950 . S
C766 C767 1.327 . S
C767 H761 0.950 . S
C767 C766 1.327 . S
C767 C771 1.429 . S
C768 C751 1.574 . S
C768 H762 0.949 . S
C768 C772 1.368 . S
C769 C750 1.429 . S
C769 C763 1.429 . S
C769 C770 1.523 . S
C770 C751 1.368 . S
C770 C764 1.368 . S
C770 C769 1.523 . S
C771 C755 1.429 . S
C771 C767 1.429 . S
C771 C772 1.523 . S
C772 C756 1.368 . S
C772 C768 1.368 . S
C772 C771 1.523 . S
H773 C748 0.950 . S
H774 C750 0.950 . S
H775 C751 0.949 . S
H776 C753 0.950 . S
H777 C755 0.950 . S
C778 C779 1.349 . S
C778 C780 1.327 . S
C778 H803 0.950 . S
C779 C778 1.349 . S
C779 C795 1.349 . S
C780 C778 1.327 . S
C780 C799 1.429 . S
C780 H804 0.950 . S
C781 C798 1.574 . S
C781 C800 1.368 . S
C781 H805 0.949 . S
H782 C786 0.949 . S
C783 C784 1.349 . S
C783 C785 1.327 . S
C783 H806 0.950 . S
C784 C783 1.349 . S
C784 C796 1.349 . S
C785 C783 1.327 . S
C785 C801 1.429 . S
C785 H807 0.950 . S
C786 H782 0.949 . S
C786 C794 1.574 . S
C786 C802 1.368 . S
H787 C795 0.950 . S
H788 C793 0.950 . S
H789 C794 0.949 . S
H790 C796 0.950 . S
H791 C797 0.950 . S
H792 C798 0.949 . S
C793 H788 0.950 . S
C793 C795 1.327 . S
C793 C799 1.429 . S
C794 C786 1.574 . S
C794 H789 0.949 . S
C794 C800 1.368 . S
C795 C779 1.349 . S
C795 H787 0.950 . S
C795 C793 1.327 . S
C796 C784 1.349 . S
C796 H790 0.950 . S
C796 C797 1.327 . S
C797 H791 0.950 . S
C797 C796 1.327 . S
C797 C801 1.429 . S
C798 C781 1.574 . S
C798 H792 0.949 . S
C798 C802 1.368 . S
C799 C780 1.429 . S
C799 C793 1.429 . S
C799 C800 1.523 . S
C800 C781 1.368 . S
C800 C794 1.368 . S
C800 C799 1.523 . S
C801 C785 1.429 . S
C801 C797 1.429 . S
C801 C802 1.523 . S
C802 C786 1.368 . S
C802 C798 1.368 . S
C802 C801 1.523 . S
H803 C778 0.950 . S
H804 C780 0.950 . S
H805 C781 0.949 . S
H806 C783 0.950 . S
H807 C785 0.950 . S
C808 C809 1.349 . S
C808 C810 1.327 . S
C808 H833 0.950 . S
C809 C808 1.349 . S
C809 C825 1.349 . S
C810 C808 1.327 . S
C810 C829 1.429 . S
C810 H834 0.950 . S
C811 C828 1.574 . S
C811 C830 1.368 . S
C811 H835 0.949 . S
H812 C816 0.949 . S
C813 C814 1.349 . S
C813 C815 1.327 . S
C813 H836 0.950 . S
C814 C813 1.349 . S
C814 C826 1.349 . S
C815 C813 1.327 . S
C815 C831 1.429 . S
C815 H837 0.950 . S
C816 H812 0.949 . S
C816 C824 1.574 . S
C816 C832 1.368 . S
H817 C825 0.950 . S
H818 C823 0.950 . S
H819 C824 0.949 . S
H820 C826 0.950 . S
H821 C827 0.950 . S
H822 C828 0.949 . S
C823 H818 0.950 . S
C823 C825 1.327 . S
C823 C829 1.429 . S
C824 C816 1.574 . S
C824 H819 0.949 . S
C824 C830 1.368 . S
C825 C809 1.349 . S
C825 H817 0.950 . S
C825 C823 1.327 . S
C826 C814 1.349 . S
C826 H820 0.950 . S
C826 C827 1.327 . S
C827 H821 0.950 . S
C827 C826 1.327 . S
C827 C831 1.429 . S
C828 C811 1.574 . S
C828 H822 0.949 . S
C828 C832 1.368 . S
C829 C810 1.429 . S
C829 C823 1.429 . S
C829 C830 1.523 . S
C830 C811 1.368 . S
C830 C824 1.368 . S
C830 C829 1.523 . S
C831 C815 1.429 . S
C831 C827 1.429 . S
C831 C832 1.523 . S
C832 C816 1.368 . S
C832 C828 1.368 . S
C832 C831 1.523 . S
H833 C808 0.950 . S
H834 C810 0.950 . S
H835 C811 0.949 . S
H836 C813 0.950 . S
H837 C815 0.950 . S
C838 C839 1.349 . S
C838 C840 1.327 . S
C838 H863 0.950 . S
C839 C838 1.349 . S
C839 C855 1.349 . S
C840 C838 1.327 . S
C840 C859 1.429 . S
C840 H864 0.950 . S
C841 C858 1.574 . S
C841 C860 1.368 . S
C841 H865 0.949 . S
H842 C846 0.949 . S
C843 C844 1.349 . S
C843 C845 1.327 . S
C843 H866 0.950 . S
C844 C843 1.349 . S
C844 C856 1.349 . S
C845 C843 1.327 . S
C845 C861 1.429 . S
C845 H867 0.950 . S
C846 H842 0.949 . S
C846 C854 1.574 . S
C846 C862 1.368 . S
H847 C855 0.950 . S
H848 C853 0.950 . S
H849 C854 0.949 . S
H850 C856 0.950 . S
H851 C857 0.950 . S
H852 C858 0.949 . S
C853 H848 0.950 . S
C853 C855 1.327 . S
C853 C859 1.429 . S
C854 C846 1.574 . S
C854 H849 0.949 . S
C854 C860 1.368 . S
C855 C839 1.349 . S
C855 H847 0.950 . S
C855 C853 1.327 . S
C856 C844 1.349 . S
C856 H850 0.950 . S
C856 C857 1.327 . S
C857 H851 0.950 . S
C857 C856 1.327 . S
C857 C861 1.429 . S
C858 C841 1.574 . S
C858 H852 0.949 . S
C858 C862 1.368 . S
C859 C840 1.429 . S
C859 C853 1.429 . S
C859 C860 1.523 . S
C860 C841 1.368 . S
C860 C854 1.368 . S
C860 C859 1.523 . S
C861 C845 1.429 . S
C861 C857 1.429 . S
C861 C862 1.523 . S
C862 C846 1.368 . S
C862 C858 1.368 . S
C862 C861 1.523 . S
H863 C838 0.950 . S
H864 C840 0.950 . S
H865 C841 0.949 . S
H866 C843 0.950 . S
H867 C845 0.950 . S
C868 C869 1.349 . S
C868 C870 1.327 . S
C868 H893 0.950 . S
C869 C868 1.349 . S
C869 C885 1.349 . S
C870 C868 1.327 . S
C870 C889 1.429 . S
C870 H894 0.950 . S
C871 C888 1.574 . S
C871 C890 1.368 . S
C871 H895 0.949 . S
H872 C876 0.949 . S
C873 C874 1.349 . S
C873 C875 1.327 . S
C873 H896 0.950 . S
C874 C873 1.349 . S
C874 C886 1.349 . S
C875 C873 1.327 . S
C875 C891 1.429 . S
C875 H897 0.950 . S
C876 H872 0.949 . S
C876 C884 1.574 . S
C876 C892 1.368 . S
H877 C885 0.950 . S
H878 C883 0.950 . S
H879 C884 0.949 . S
H880 C886 0.950 . S
H881 C887 0.950 . S
H882 C888 0.949 . S
C883 H878 0.950 . S
C883 C885 1.327 . S
C883 C889 1.429 . S
C884 C876 1.574 . S
C884 H879 0.949 . S
C884 C890 1.368 . S
C885 C869 1.349 . S
C885 H877 0.950 . S
C885 C883 1.327 . S
C886 C874 1.349 . S
C886 H880 0.950 . S
C886 C887 1.327 . S
C887 H881 0.950 . S
C887 C886 1.327 . S
C887 C891 1.429 . S
C888 C871 1.574 . S
C888 H882 0.949 . S
C888 C892 1.368 . S
C889 C870 1.429 . S
C889 C883 1.429 . S
C889 C890 1.523 . S
C890 C871 1.368 . S
C890 C884 1.368 . S
C890 C889 1.523 . S
C891 C875 1.429 . S
C891 C887 1.429 . S
C891 C892 1.523 . S
C892 C876 1.368 . S
C892 C888 1.368 . S
C892 C891 1.523 . S
H893 C868 0.950 . S
H894 C870 0.950 . S
H895 C871 0.949 . S
H896 C873 0.950 . S
H897 C875 0.950 . S
C898 C899 1.349 . S
C898 C900 1.327 . S
C898 H923 0.950 . S
C899 C898 1.349 . S
C899 C915 1.349 . S
C900 C898 1.327 . S
C900 C919 1.429 . S
C900 H924 0.950 . S
C901 C918 1.574 . S
C901 C920 1.368 . S
C901 H925 0.949 . S
H902 C906 0.949 . S
C903 C904 1.349 . S
C903 C905 1.327 . S
C903 H926 0.950 . S
C904 C903 1.349 . S
C904 C916 1.349 . S
C905 C903 1.327 . S
C905 C921 1.429 . S
C905 H927 0.950 . S
C906 H902 0.949 . S
C906 C914 1.574 . S
C906 C922 1.368 . S
H907 C915 0.950 . S
H908 C913 0.950 . S
H909 C914 0.949 . S
H910 C916 0.950 . S
H911 C917 0.950 . S
H912 C918 0.949 . S
C913 H908 0.950 . S
C913 C915 1.327 . S
C913 C919 1.429 . S
C914 C906 1.574 . S
C914 H909 0.949 . S
C914 C920 1.368 . S
C915 C899 1.349 . S
C915 H907 0.950 . S
C915 C913 1.327 . S
C916 C904 1.349 . S
C916 H910 0.950 . S
C916 C917 1.327 . S
C917 H911 0.950 . S
C917 C916 1.327 . S
C917 C921 1.429 . S
C918 C901 1.574 . S
C918 H912 0.949 . S
C918 C922 1.368 . S
C919 C900 1.429 . S
C919 C913 1.429 . S
C919 C920 1.523 . S
C920 C901 1.368 . S
C920 C914 1.368 . S
C920 C919 1.523 . S
C921 C905 1.429 . S
C921 C917 1.429 . S
C921 C922 1.523 . S
C922 C906 1.368 . S
C922 C918 1.368 . S
C922 C921 1.523 . S
H923 C898 0.950 . S
H924 C900 0.950 . S
H925 C901 0.949 . S
H926 C903 0.950 . S
H927 C905 0.950 . S
C928 C929 1.349 . S
C928 C930 1.327 . S
C928 H953 0.950 . S
C929 C928 1.349 . S
C929 C945 1.349 . S
C930 C928 1.327 . S
C930 C949 1.429 . S
C930 H954 0.950 . S
C931 C948 1.574 1_545 S
C931 C950 1.368 . S
C931 H955 0.949 . S
H932 C936 0.949 . S
C933 C934 1.349 . S
C933 C935 1.327 . S
C933 H956 0.950 . S
C934 C933 1.349 . S
C934 C946 1.349 . S
C935 C933 1.327 . S
C935 C951 1.429 . S
C935 H957 0.950 . S
C936 H932 0.949 . S
C936 C944 1.574 1_565 S
C936 C952 1.368 . S
H937 C945 0.950 . S
H938 C943 0.950 . S
H939 C944 0.949 . S
H940 C946 0.950 . S
H941 C947 0.950 . S
H942 C948 0.949 . S
C943 H938 0.950 . S
C943 C945 1.327 . S
C943 C949 1.429 . S
C944 C936 1.574 1_545 S
C944 H939 0.949 . S
C944 C950 1.368 . S
C945 C929 1.349 . S
C945 H937 0.950 . S
C945 C943 1.327 . S
C946 C934 1.349 . S
C946 H940 0.950 . S
C946 C947 1.327 . S
C947 H941 0.950 . S
C947 C946 1.327 . S
C947 C951 1.429 . S
C948 C931 1.574 1_565 S
C948 H942 0.949 . S
C948 C952 1.368 . S
C949 C930 1.429 . S
C949 C943 1.429 . S
C949 C950 1.523 . S
C950 C931 1.368 . S
C950 C944 1.368 . S
C950 C949 1.523 . S
C951 C935 1.429 . S
C951 C947 1.429 . S
C951 C952 1.523 . S
C952 C936 1.368 . S
C952 C948 1.368 . S
C952 C951 1.523 . S
H953 C928 0.950 . S
H954 C930 0.950 . S
H955 C931 0.949 . S
H956 C933 0.950 . S
H957 C935 0.950 . S
C958 C959 1.349 . S
C958 C960 1.334 . S
C958 H983 0.950 1_545 S
C959 C958 1.349 . S
C959 C975 1.349 . S
C960 C958 1.334 . S
C960 C979 1.440 . S
C960 H984 0.932 1_545 S
C961 C978 1.574 . S
C961 C980 1.368 . S
C961 H985 0.949 . S
H962 C966 0.949 . S
C963 C964 1.349 . S
C963 C965 1.334 . S
C963 H986 0.950 1_565 S
C964 C963 1.349 . S
C964 C976 1.349 . S
C965 C963 1.334 . S
C965 C981 1.440 . S
C965 H987 0.932 1_565 S
C966 H962 0.949 . S
C966 C974 1.574 . S
C966 C982 1.368 . S
H967 C975 0.950 . S
H968 C973 0.950 . S
H969 C974 0.949 . S
H970 C976 0.950 . S
H971 C977 0.950 . S
H972 C978 0.949 . S
C973 H968 0.950 . S
C973 C975 1.327 . S
C973 C979 1.429 . S
C974 C966 1.574 . S
C974 H969 0.949 . S
C974 C980 1.368 1_565 S
C975 C959 1.349 . S
C975 H967 0.950 . S
C975 C973 1.327 . S
C976 C964 1.349 . S
C976 H970 0.950 . S
C976 C977 1.327 . S
C977 H971 0.950 . S
C977 C976 1.327 . S
C977 C981 1.429 . S
C978 C961 1.574 . S
C978 H972 0.949 . S
C978 C982 1.368 1_545 S
C979 C960 1.440 . S
C979 C973 1.429 . S
C979 C980 1.523 . S
C980 C961 1.368 . S
C980 C974 1.368 1_545 S
C980 C979 1.523 . S
C981 C965 1.440 . S
C981 C977 1.429 . S
C981 C982 1.523 . S
C982 C966 1.368 . S
C982 C978 1.368 1_565 S
C982 C981 1.523 . S
H983 C958 0.950 1_565 S
H984 C960 0.932 1_565 S
H985 C961 0.949 . S
H986 C963 0.950 1_545 S
H987 C965 0.932 1_545 S
C988 C989 1.349 . S
C988 C990 1.327 . S
C988 H1013 0.938 1_545 S
C989 C988 1.349 . S
C989 C1005 1.349 . S
C990 C988 1.327 . S
C990 C1009 1.429 . S
C990 H1014 0.950 1_545 S
C991 C1008 1.574 . S
C991 C1010 1.368 . S
C991 H1015 0.949 . S
H992 C996 0.949 . S
C993 C994 1.349 . S
C993 C995 1.327 . S
C993 H1016 0.938 1_565 S
C994 C993 1.349 . S
C994 C1006 1.349 . S
C995 C993 1.327 . S
C995 C1011 1.429 . S
C995 H1017 0.950 1_565 S
C996 H992 0.949 . S
C996 C1004 1.574 . S
C996 C1012 1.368 . S
H997 C1005 0.950 . S
H998 C1003 0.950 . S
H999 C1004 0.949 . S
H1000 C1006 0.950 . S
H1001 C1007 0.950 . S
H1002 C1008 0.949 . S
C1003 H998 0.950 . S
C1003 C1005 1.327 . S
C1003 C1009 1.429 . S
C1004 C996 1.574 . S
C1004 H999 0.949 . S
C1004 C1010 1.368 1_565 S
C1005 C989 1.349 . S
C1005 H997 0.950 . S
C1005 C1003 1.327 . S
C1006 C994 1.349 . S
C1006 H1000 0.950 . S
C1006 C1007 1.327 . S
C1007 H1001 0.950 . S
C1007 C1006 1.327 . S
C1007 C1011 1.429 . S
C1008 C991 1.574 . S
C1008 H1002 0.949 . S
C1008 C1012 1.368 1_545 S
C1009 C990 1.429 . S
C1009 C1003 1.429 . S
C1009 C1010 1.523 . S
C1010 C991 1.368 . S
C1010 C1004 1.368 1_545 S
C1010 C1009 1.523 . S
C1011 C995 1.429 . S
C1011 C1007 1.429 . S
C1011 C1012 1.523 . S
C1012 C996 1.368 . S
C1012 C1008 1.368 1_565 S
C1012 C1011 1.523 . S
H1013 C988 0.938 1_565 S
H1014 C990 0.950 1_565 S
H1015 C991 0.949 . S
H1016 C993 0.938 1_545 S
H1017 C995 0.950 1_545 S
C1018 C1019 1.349 . S
C1018 C1020 1.327 . S
C1018 H1043 0.950 . S
C1019 C1018 1.349 . S
C1019 C1035 1.349 . S
C1020 C1018 1.327 . S
C1020 C1039 1.429 . S
C1020 H1044 0.950 . S
C1021 C1038 1.574 . S
C1021 C1040 1.368 1_545 S
C1021 H1045 0.949 . S
H1022 C1026 0.949 . S
C1023 C1024 1.349 . S
C1023 C1025 1.327 . S
C1023 H1046 0.950 . S
C1024 C1023 1.349 . S
C1024 C1036 1.349 . S
C1025 C1023 1.327 . S
C1025 C1041 1.429 . S
C1025 H1047 0.950 . S
C1026 H1022 0.949 . S
C1026 C1034 1.574 . S
C1026 C1042 1.368 1_565 S
H1027 C1035 0.950 . S
H1028 C1033 0.950 1_545 S
H1029 C1034 0.949 . S
H1030 C1036 0.950 . S
H1031 C1037 0.950 1_565 S
H1032 C1038 0.949 . S
C1033 H1028 0.950 1_565 S
C1033 C1035 1.327 . S
C1033 C1039 1.429 . S
C1034 C1026 1.574 . S
C1034 H1029 0.949 . S
C1034 C1040 1.368 . S
C1035 C1019 1.349 . S
C1035 H1027 0.950 . S
C1035 C1033 1.327 . S
C1036 C1024 1.349 . S
C1036 H1030 0.950 . S
C1036 C1037 1.327 . S
C1037 H1031 0.950 1_545 S
C1037 C1036 1.327 . S
C1037 C1041 1.429 . S
C1038 C1021 1.574 . S
C1038 H1032 0.949 . S
C1038 C1042 1.368 . S
C1039 C1020 1.429 . S
C1039 C1033 1.429 . S
C1039 C1040 1.523 . S
C1040 C1021 1.368 1_565 S
C1040 C1034 1.368 . S
C1040 C1039 1.523 . S
C1041 C1025 1.429 . S
C1041 C1037 1.429 . S
C1041 C1042 1.523 . S
C1042 C1026 1.368 1_545 S
C1042 C1038 1.368 . S
C1042 C1041 1.523 . S
H1043 C1018 0.950 . S
H1044 C1020 0.950 . S
H1045 C1021 0.949 . S
H1046 C1023 0.950 . S
H1047 C1025 0.950 . S
C1048 C1049 1.349 . S
C1048 C1050 1.327 . S
C1048 H1073 0.950 . S
C1049 C1048 1.349 . S
C1049 C1065 1.349 . S
C1050 C1048 1.327 . S
C1050 C1069 1.429 . S
C1050 H1074 0.950 . S
C1051 C1068 1.574 . S
C1051 C1070 1.368 . S
C1051 H1075 0.949 . S
H1052 C1056 0.949 . S
C1053 C1054 1.349 . S
C1053 C1055 1.327 . S
C1053 H1076 0.950 . S
C1054 C1053 1.349 . S
C1054 C1066 1.349 . S
C1055 C1053 1.327 . S
C1055 C1071 1.429 . S
C1055 H1077 0.950 . S
C1056 H1052 0.949 . S
C1056 C1064 1.574 . S
C1056 C1072 1.368 . S
H1057 C1065 0.950 . S
H1058 C1063 0.950 . S
H1059 C1064 0.949 . S
H1060 C1066 0.950 . S
H1061 C1067 0.950 . S
H1062 C1068 0.949 . S
C1063 H1058 0.950 . S
C1063 C1065 1.327 . S
C1063 C1069 1.429 . S
C1064 C1056 1.574 . S
C1064 H1059 0.949 . S
C1064 C1070 1.368 . S
C1065 C1049 1.349 . S
C1065 H1057 0.950 . S
C1065 C1063 1.327 . S
C1066 C1054 1.349 . S
C1066 H1060 0.950 . S
C1066 C1067 1.327 . S
C1067 H1061 0.950 . S
C1067 C1066 1.327 . S
C1067 C1071 1.429 . S
C1068 C1051 1.574 . S
C1068 H1062 0.949 . S
C1068 C1072 1.368 . S
C1069 C1050 1.429 . S
C1069 C1063 1.429 . S
C1069 C1070 1.523 . S
C1070 C1051 1.368 . S
C1070 C1064 1.368 . S
C1070 C1069 1.523 . S
C1071 C1055 1.429 . S
C1071 C1067 1.429 . S
C1071 C1072 1.523 . S
C1072 C1056 1.368 . S
C1072 C1068 1.368 . S
C1072 C1071 1.523 . S
H1073 C1048 0.950 . S
H1074 C1050 0.950 . S
H1075 C1051 0.949 . S
H1076 C1053 0.950 . S
H1077 C1055 0.950 . S
C1078 C1079 1.349 . S
C1078 C1080 1.327 . S
C1078 H1103 0.950 . S
C1079 C1078 1.349 . S
C1079 C1095 1.349 . S
C1080 C1078 1.327 . S
C1080 C1099 1.429 . S
C1080 H1104 0.950 . S
C1081 C1098 1.574 . S
C1081 C1100 1.368 . S
C1081 H1105 0.949 . S
H1082 C1086 0.949 . S
C1083 C1084 1.349 . S
C1083 C1085 1.327 . S
C1083 H1106 0.950 . S
C1084 C1083 1.349 . S
C1084 C1096 1.349 . S
C1085 C1083 1.327 . S
C1085 C1101 1.429 . S
C1085 H1107 0.950 . S
C1086 H1082 0.949 . S
C1086 C1094 1.574 . S
C1086 C1102 1.368 . S
H1087 C1095 0.950 . S
H1088 C1093 0.950 . S
H1089 C1094 0.949 . S
H1090 C1096 0.950 . S
H1091 C1097 0.950 . S
H1092 C1098 0.949 . S
C1093 H1088 0.950 . S
C1093 C1095 1.327 . S
C1093 C1099 1.429 . S
C1094 C1086 1.574 . S
C1094 H1089 0.949 . S
C1094 C1100 1.368 . S
C1095 C1079 1.349 . S
C1095 H1087 0.950 . S
C1095 C1093 1.327 . S
C1096 C1084 1.349 . S
C1096 H1090 0.950 . S
C1096 C1097 1.327 . S
C1097 H1091 0.950 . S
C1097 C1096 1.327 . S
C1097 C1101 1.429 . S
C1098 C1081 1.574 . S
C1098 H1092 0.949 . S
C1098 C1102 1.368 . S
C1099 C1080 1.429 . S
C1099 C1093 1.429 . S
C1099 C1100 1.523 . S
C1100 C1081 1.368 . S
C1100 C1094 1.368 . S
C1100 C1099 1.523 . S
C1101 C1085 1.429 . S
C1101 C1097 1.429 . S
C1101 C1102 1.523 . S
C1102 C1086 1.368 . S
C1102 C1098 1.368 . S
C1102 C1101 1.523 . S
H1103 C1078 0.950 . S
H1104 C1080 0.950 . S
H1105 C1081 0.949 . S
H1106 C1083 0.950 . S
H1107 C1085 0.950 . S
C1108 C1109 1.349 . S
C1108 C1110 1.327 . S
C1108 H1133 0.950 . S
C1109 C1108 1.349 . S
C1109 C1125 1.349 . S
C1110 C1108 1.327 . S
C1110 C1129 1.429 . S
C1110 H1134 0.950 . S
C1111 C1128 1.574 . S
C1111 C1130 1.368 . S
C1111 H1135 0.949 . S
H1112 C1116 0.949 . S
C1113 C1114 1.349 . S
C1113 C1115 1.327 . S
C1113 H1136 0.950 . S
C1114 C1113 1.349 . S
C1114 C1126 1.349 . S
C1115 C1113 1.327 . S
C1115 C1131 1.429 . S
C1115 H1137 0.950 . S
C1116 H1112 0.949 . S
C1116 C1124 1.574 . S
C1116 C1132 1.368 . S
H1117 C1125 0.950 . S
H1118 C1123 0.950 . S
H1119 C1124 0.949 . S
H1120 C1126 0.950 . S
H1121 C1127 0.950 . S
H1122 C1128 0.949 . S
C1123 H1118 0.950 . S
C1123 C1125 1.327 . S
C1123 C1129 1.429 . S
C1124 C1116 1.574 . S
C1124 H1119 0.949 . S
C1124 C1130 1.368 . S
C1125 C1109 1.349 . S
C1125 H1117 0.950 . S
C1125 C1123 1.327 . S
C1126 C1114 1.349 . S
C1126 H1120 0.950 . S
C1126 C1127 1.327 . S
C1127 H1121 0.950 . S
C1127 C1126 1.327 . S
C1127 C1131 1.429 . S
C1128 C1111 1.574 . S
C1128 H1122 0.949 . S
C1128 C1132 1.368 . S
C1129 C1110 1.429 . S
C1129 C1123 1.429 . S
C1129 C1130 1.523 . S
C1130 C1111 1.368 . S
C1130 C1124 1.368 . S
C1130 C1129 1.523 . S
C1131 C1115 1.429 . S
C1131 C1127 1.429 . S
C1131 C1132 1.523 . S
C1132 C1116 1.368 . S
C1132 C1128 1.368 . S
C1132 C1131 1.523 . S
H1133 C1108 0.950 . S
H1134 C1110 0.950 . S
H1135 C1111 0.949 . S
H1136 C1113 0.950 . S
H1137 C1115 0.950 . S
C1138 C1139 1.349 . S
C1138 C1140 1.327 . S
C1138 H1163 0.950 . S
C1139 C1138 1.349 . S
C1139 C1155 1.349 . S
C1140 C1138 1.327 . S
C1140 C1159 1.429 . S
C1140 H1164 0.950 . S
C1141 C1158 1.574 . S
C1141 C1160 1.368 . S
C1141 H1165 0.949 . S
H1142 C1146 0.949 . S
C1143 C1144 1.349 . S
C1143 C1145 1.327 . S
C1143 H1166 0.950 . S
C1144 C1143 1.349 . S
C1144 C1156 1.349 . S
C1145 C1143 1.327 . S
C1145 C1161 1.429 . S
C1145 H1167 0.950 . S
C1146 H1142 0.949 . S
C1146 C1154 1.574 . S
C1146 C1162 1.368 . S
H1147 C1155 0.950 . S
H1148 C1153 0.950 . S
H1149 C1154 0.949 . S
H1150 C1156 0.950 . S
H1151 C1157 0.950 . S
H1152 C1158 0.949 . S
C1153 H1148 0.950 . S
C1153 C1155 1.327 . S
C1153 C1159 1.429 . S
C1154 C1146 1.574 . S
C1154 H1149 0.949 . S
C1154 C1160 1.368 . S
C1155 C1139 1.349 . S
C1155 H1147 0.950 . S
C1155 C1153 1.327 . S
C1156 C1144 1.349 . S
C1156 H1150 0.950 . S
C1156 C1157 1.327 . S
C1157 H1151 0.950 . S
C1157 C1156 1.327 . S
C1157 C1161 1.429 . S
C1158 C1141 1.574 . S
C1158 H1152 0.949 . S
C1158 C1162 1.368 . S
C1159 C1140 1.429 . S
C1159 C1153 1.429 . S
C1159 C1160 1.523 . S
C1160 C1141 1.368 . S
C1160 C1154 1.368 . S
C1160 C1159 1.523 . S
C1161 C1145 1.429 . S
C1161 C1157 1.429 . S
C1161 C1162 1.523 . S
C1162 C1146 1.368 . S
C1162 C1158 1.368 . S
C1162 C1161 1.523 . S
H1163 C1138 0.950 . S
H1164 C1140 0.950 . S
H1165 C1141 0.949 . S
H1166 C1143 0.950 . S
H1167 C1145 0.950 . S
C209 C4 1.304 . S
C214 C69 1.304 . S
C239 C62 1.304 . S
C244 C23 1.304 . S
C269 C30 1.304 . S
C274 C101 1.304 . S
C299 C82 1.304 . S
C304 C43 1.304 . S
C329 C179 1.304 . S
C334 C114 1.304 . S
C359 C160 1.304 . S
C364 C121 1.304 . S
C389 C205 1.304 . S
C394 C134 1.304 . S
C419 C153 1.304 . S
C424 C186 1.304 . S
C449 C18 1.514 . S
C454 C3 1.514 . S
C479 C29 1.514 . S
C484 C42 1.514 . S
C509 C57 1.514 . S
C514 C68 1.514 . S
C539 C81 1.514 . S
C544 C96 1.514 . S
C569 C109 1.514 . S
C574 C120 1.514 . S
C599 C148 1.514 . S
C604 C133 1.514 . S
C629 C174 1.514 . S
C634 C159 1.514 . S
C659 C185 1.514 . S
C664 C200 1.514 . S
C689 C127 1.503 . S
C694 C10 1.503 . S
C719 C17 1.503 . S
C724 C108 1.503 . S
C749 C147 1.503 . S
C754 C36 1.503 . S
C779 C49 1.503 . S
C784 C140 1.503 . S
C809 C56 1.503 . S
C814 C173 1.503 . S
C839 C166 1.503 . S
C844 C75 1.503 . S
C869 C88 1.503 . S
C874 C199 1.503 . S
C899 C192 1.503 . S
C904 C95 1.503 . S
C929 C5 1.211 . S
C934 C31 1.211 . S
C959 C44 1.211 . S
C964 C16 1.211 . S
C989 C83 1.211 . S
C994 C55 1.211 . S
C1019 C94 1.211 . S
C1024 C70 1.211 . S
C1049 C135 1.211 . S
C1054 C107 1.211 . S
C1079 C122 1.211 . S
C1084 C146 1.211 . S
C1109 C187 1.211 . S
C1114 C161 1.211 . S
C1139 C172 1.211 . S
C1144 C198 1.211 . S
