# Generated by pormake.
# Topology uot, (4)-cn, num edge types: 1
# Building blocks:
#     Node 0, Type 0, BuildingBlock: TATPOV_clean_sbu_0, # of connection points: 4
#     Node 1, Type 0, BuildingBlock: TATPOV_clean_sbu_0, # of connection points: 4
#     Node 2, Type 0, BuildingBlock: TATPOV_clean_sbu_0, # of connection points: 4
#     Node 3, Type 0, BuildingBlock: TATPOV_clean_sbu_0, # of connection points: 4
#     Node 4, Type 0, BuildingBlock: TATPOV_clean_sbu_0, # of connection points: 4
#     Node 5, Type 0, BuildingBlock: TATPOV_clean_sbu_0, # of connection points: 4
#     Node 6, Type 0, BuildingBlock: TATPOV_clean_sbu_0, # of connection points: 4
#     Node 7, Type 0, BuildingBlock: TATPOV_clean_sbu_0, # of connection points: 4
#     Node 8, Type 0, BuildingBlock: TATPOV_clean_sbu_0, # of connection points: 4
#     Node 9, Type 0, BuildingBlock: TATPOV_clean_sbu_0, # of connection points: 4
#     Node 10, Type 0, BuildingBlock: TATPOV_clean_sbu_0, # of connection points: 4
#     Node 11, Type 0, BuildingBlock: TATPOV_clean_sbu_0, # of connection points: 4
#     Node 12, Type 0, BuildingBlock: TATPOV_clean_sbu_0, # of connection points: 4
#     Node 13, Type 0, BuildingBlock: TATPOV_clean_sbu_0, # of connection points: 4
#     Node 14, Type 0, BuildingBlock: TATPOV_clean_sbu_0, # of connection points: 4
#     Node 15, Type 0, BuildingBlock: TATPOV_clean_sbu_0, # of connection points: 4
#     Edge 16, Type (0, 0), BuildingBlock: EZIPEK_clean_linker_0, # of connection points: 2
#     Edge 17, Type (0, 0), BuildingBlock: EZIPEK_clean_linker_0, # of connection points: 2
#     Edge 18, Type (0, 0), BuildingBlock: EZIPEK_clean_linker_0, # of connection points: 2
#     Edge 19, Type (0, 0), BuildingBlock: EZIPEK_clean_linker_0, # of connection points: 2
#     Edge 20, Type (0, 0), BuildingBlock: EZIPEK_clean_linker_0, # of connection points: 2
#     Edge 21, Type (0, 0), BuildingBlock: EZIPEK_clean_linker_0, # of connection points: 2
#     Edge 22, Type (0, 0), BuildingBlock: EZIPEK_clean_linker_0, # of connection points: 2
#     Edge 23, Type (0, 0), BuildingBlock: EZIPEK_clean_linker_0, # of connection points: 2
#     Edge 24, Type (0, 0), BuildingBlock: EZIPEK_clean_linker_0, # of connection points: 2
#     Edge 25, Type (0, 0), BuildingBlock: EZIPEK_clean_linker_0, # of connection points: 2
#     Edge 26, Type (0, 0), BuildingBlock: EZIPEK_clean_linker_0, # of connection points: 2
#     Edge 27, Type (0, 0), BuildingBlock: EZIPEK_clean_linker_0, # of connection points: 2
#     Edge 28, Type (0, 0), BuildingBlock: EZIPEK_clean_linker_0, # of connection points: 2
#     Edge 29, Type (0, 0), BuildingBlock: EZIPEK_clean_linker_0, # of connection points: 2
#     Edge 30, Type (0, 0), BuildingBlock: EZIPEK_clean_linker_0, # of connection points: 2
#     Edge 31, Type (0, 0), BuildingBlock: EZIPEK_clean_linker_0, # of connection points: 2
#     Edge 32, Type (0, 0), BuildingBlock: EZIPEK_clean_linker_0, # of connection points: 2
#     Edge 33, Type (0, 0), BuildingBlock: EZIPEK_clean_linker_0, # of connection points: 2
#     Edge 34, Type (0, 0), BuildingBlock: EZIPEK_clean_linker_0, # of connection points: 2
#     Edge 35, Type (0, 0), BuildingBlock: EZIPEK_clean_linker_0, # of connection points: 2
#     Edge 36, Type (0, 0), BuildingBlock: EZIPEK_clean_linker_0, # of connection points: 2
#     Edge 37, Type (0, 0), BuildingBlock: EZIPEK_clean_linker_0, # of connection points: 2
#     Edge 38, Type (0, 0), BuildingBlock: EZIPEK_clean_linker_0, # of connection points: 2
#     Edge 39, Type (0, 0), BuildingBlock: EZIPEK_clean_linker_0, # of connection points: 2
#     Edge 40, Type (0, 0), BuildingBlock: EZIPEK_clean_linker_0, # of connection points: 2
#     Edge 41, Type (0, 0), BuildingBlock: EZIPEK_clean_linker_0, # of connection points: 2
#     Edge 42, Type (0, 0), BuildingBlock: EZIPEK_clean_linker_0, # of connection points: 2
#     Edge 43, Type (0, 0), BuildingBlock: EZIPEK_clean_linker_0, # of connection points: 2
#     Edge 44, Type (0, 0), BuildingBlock: EZIPEK_clean_linker_0, # of connection points: 2
#     Edge 45, Type (0, 0), BuildingBlock: EZIPEK_clean_linker_0, # of connection points: 2
#     Edge 46, Type (0, 0), BuildingBlock: EZIPEK_clean_linker_0, # of connection points: 2
#     Edge 47, Type (0, 0), BuildingBlock: EZIPEK_clean_linker_0, # of connection points: 2
# Relax obj value: 0.138
# Max RMSD: 0.189
# Mean RMSD: 0.189
data_MOF--net-uot--node1-TATPOV_clean_sbu_0--edge1-EZIPEK_clean_linker_0
_symmetry_space_group_name_H-M    P1
_symmetry_Int_Tables_number       1
_symmetry_cell_setting            triclinic
loop_
_symmetry_equiv_pos_as_xyz
'x, y, z'
_cell_length_a     32.081334
_cell_length_b     31.995946
_cell_length_c     30.902277
_cell_angle_alpha  89.826746
_cell_angle_beta   90.153991
_cell_angle_gamma 89.795255
loop_
_atom_site_label
_atom_site_type_symbol
_atom_site_fract_x
_atom_site_fract_y
_atom_site_fract_z
_atom_type_partial_charge
Zn0 Zn 0.12671 0.439 0.39094 0.0
Zn1 Zn 0.18721 0.42085 0.33582 0.0
O2 O 0.14971 0.36914 0.34001 0.0
O3 O 0.10027 0.38203 0.38673 0.0
O4 O 0.23478 0.39713 0.3022 0.0
O5 O 0.16803 0.45301 0.43715 0.0
O6 O 0.21797 0.44305 0.38948 0.0
C7 C 0.11726 0.35724 0.36021 0.0
C8 C 0.12735 0.48866 0.31051 0.0
O9 O 0.15867 0.46646 0.29958 0.0
O10 O 0.11023 0.48346 0.3471 0.0
C11 C 0.26888 0.41558 0.29428 0.0
O12 O 0.27285 0.45557 0.3028 0.0
C13 C 0.20617 0.4539 0.42704 0.0
Zn14 Zn 0.5109 0.86174 0.67482 0.0
Zn15 Zn 0.46774 0.79445 0.69619 0.0
O16 O 0.42332 0.8411 0.68939 0.0
O17 O 0.458 0.8953 0.66581 0.0
O18 O 0.43235 0.74414 0.7064 0.0
O19 O 0.5378 0.83144 0.62545 0.0
O20 O 0.49915 0.77713 0.64114 0.0
C21 C 0.4235 0.87868 0.67561 0.0
C22 C 0.53047 0.82836 0.75974 0.0
O23 O 0.50447 0.79983 0.75031 0.0
O24 O 0.53758 0.85812 0.73375 0.0
C25 C 0.40362 0.74394 0.73454 0.0
O26 O 0.39895 0.7761 0.7604 0.0
C27 C 0.52664 0.79433 0.61753 0.0
Zn28 Zn 0.85 0.56544 0.34034 0.0
Zn29 Zn 0.77294 0.58066 0.31339 0.0
O30 O 0.8065 0.63595 0.30941 0.0
O31 O 0.86789 0.62531 0.3384 0.0
O32 O 0.71542 0.60216 0.29878 0.0
O33 O 0.82887 0.53999 0.39474 0.0
O34 O 0.76446 0.55288 0.37313 0.0
C35 C 0.84183 0.65006 0.3212 0.0
C36 C 0.82536 0.51977 0.26307 0.0
O37 O 0.78987 0.53719 0.26789 0.0
O38 O 0.85548 0.52808 0.28815 0.0
C39 C 0.71185 0.62931 0.26887 0.0
O40 O 0.74327 0.63561 0.24256 0.0
C41 C 0.79002 0.53802 0.40083 0.0
Zn42 Zn 0.52441 0.10936 0.63881 0.0
Zn43 Zn 0.56669 0.17913 0.63944 0.0
O44 O 0.61018 0.13368 0.65344 0.0
O45 O 0.57717 0.07472 0.64432 0.0
O46 O 0.60198 0.23075 0.6422 0.0
O47 O 0.50001 0.12461 0.58117 0.0
O48 O 0.54335 0.17748 0.57665 0.0
C49 C 0.61078 0.09393 0.65224 0.0
C50 C 0.49877 0.16369 0.70641 0.0
O51 O 0.52429 0.18876 0.68863 0.0
O52 O 0.49419 0.12699 0.6922 0.0
C53 C 0.62156 0.23723 0.67738 0.0
O54 O 0.61641 0.21158 0.71018 0.0
C55 C 0.51551 0.15436 0.55955 0.0
Zn56 Zn 0.15332 0.55321 0.6222 0.0
Zn57 Zn 0.22357 0.57108 0.66316 0.0
O58 O 0.18697 0.62482 0.66241 0.0
O59 O 0.13032 0.61142 0.62557 0.0
O60 O 0.27615 0.59314 0.68958 0.0
O61 O 0.18555 0.53507 0.57059 0.0
O62 O 0.24447 0.54771 0.605 0.0
C63 C 0.15244 0.63721 0.64628 0.0
C64 C 0.16882 0.50371 0.70009 0.0
O65 O 0.20252 0.52446 0.70313 0.0
O66 O 0.14328 0.51067 0.66954 0.0
C67 C 0.27361 0.62045 0.7192 0.0
O68 O 0.2375 0.62773 0.73763 0.0
C69 C 0.22492 0.53482 0.57177 0.0
Zn70 Zn 0.52238 0.87223 0.39735 0.0
Zn71 Zn 0.54698 0.81327 0.34776 0.0
O72 O 0.5857 0.86066 0.32818 0.0
O73 O 0.56011 0.91278 0.36627 0.0
O74 O 0.56997 0.76232 0.3183 0.0
O75 O 0.53927 0.84679 0.45284 0.0
O76 O 0.54987 0.79199 0.41143 0.0
C77 C 0.58456 0.89945 0.33726 0.0
C78 C 0.45937 0.84736 0.33848 0.0
O79 O 0.48943 0.82666 0.32209 0.0
O80 O 0.46346 0.86353 0.37556 0.0
C81 C 0.58925 0.76136 0.28249 0.0
O82 O 0.59091 0.79514 0.25835 0.0
C83 C 0.54774 0.80849 0.44882 0.0
Zn84 Zn 0.87831 0.4348 0.60655 0.0
Zn85 Zn 0.80713 0.41534 0.64529 0.0
O86 O 0.84619 0.36362 0.65083 0.0
O87 O 0.90334 0.37757 0.61529 0.0
O88 O 0.75212 0.39182 0.66424 0.0
O89 O 0.84916 0.45095 0.55162 0.0
O90 O 0.79026 0.43763 0.58536 0.0
C91 C 0.88194 0.3521 0.6373 0.0
C92 C 0.8565 0.48563 0.68268 0.0
O93 O 0.82363 0.46348 0.68546 0.0
O94 O 0.8831 0.47897 0.65319 0.0
C95 C 0.75005 0.36256 0.69194 0.0
O96 O 0.78315 0.35285 0.71494 0.0
C97 C 0.80978 0.45059 0.55221 0.0
Zn98 Zn 0.43622 0.12718 0.30147 0.0
Zn99 Zn 0.41205 0.20459 0.30378 0.0
O100 O 0.35782 0.17269 0.29034 0.0
O101 O 0.37672 0.10712 0.29746 0.0
O102 O 0.3899 0.26342 0.30271 0.0
O103 O 0.46423 0.13427 0.35906 0.0
O104 O 0.43346 0.19529 0.36653 0.0
C105 C 0.34841 0.13413 0.29102 0.0
C106 C 0.47658 0.17388 0.23704 0.0
O107 O 0.45782 0.20376 0.25616 0.0
O108 O 0.4702 0.13644 0.24824 0.0
C109 C 0.38679 0.28447 0.26786 0.0
O110 O 0.40262 0.26972 0.23183 0.0
C111 C 0.45561 0.16567 0.38221 0.0
Zn112 Zn 0.66262 0.98481 0.86326 0.0
Zn113 Zn 0.7267 0.9374 0.83781 0.0
O114 O 0.67808 0.89681 0.84706 0.0
O115 O 0.62634 0.93425 0.87215 0.0
O116 O 0.77217 0.89748 0.82023 0.0
O117 O 0.69733 0.00653 0.91178 0.0
O118 O 0.7496 0.96561 0.8931 0.0
C119 C 0.64099 0.89896 0.86155 0.0
C120 C 0.69018 0.00342 0.77687 0.0
O121 O 0.71769 0.97551 0.78456 0.0
O122 O 0.66337 0.01304 0.80511 0.0
C123 C 0.8066 0.90793 0.80324 0.0
O124 O 0.81466 0.94753 0.7958 0.0
C125 C 0.73377 0.99266 0.91843 0.0
Zn126 Zn 0.99427 0.36805 0.16926 0.0
Zn127 Zn 0.94373 0.30352 0.17284 0.0
O128 O 0.90372 0.3527 0.18271 0.0
O129 O 0.94447 0.40683 0.17414 0.0
O130 O 0.9054 0.25403 0.17609 0.0
O131 O 0.01436 0.35064 0.11072 0.0
O132 O 0.96527 0.30274 0.10983 0.0
C133 C 0.9083 0.39209 0.18005 0.0
C134 C 0.01553 0.31402 0.23842 0.0
O135 O 0.98607 0.29226 0.22253 0.0
O136 O 0.02492 0.34894 0.22199 0.0
C137 C 0.89367 0.23921 0.21228 0.0
O138 O 0.90762 0.25563 0.24839 0.0
C139 C 0.994 0.32297 0.09063 0.0
Zn140 Zn 0.38423 0.02975 0.83431 0.0
Zn141 Zn 0.31502 0.0631 0.82299 0.0
O142 O 0.35875 0.10915 0.81355 0.0
O143 O 0.41553 0.08371 0.84253 0.0
O144 O 0.26263 0.09782 0.81658 0.0
O145 O 0.36418 0.99499 0.88355 0.0
O146 O 0.31149 0.03871 0.88535 0.0
C147 C 0.39634 0.11432 0.82567 0.0
C148 C 0.34731 0.99973 0.75848 0.0
O149 O 0.31545 0.01845 0.77393 0.0
O150 O 0.38256 0.00355 0.77629 0.0
C151 C 0.23365 0.09415 0.78877 0.0
O152 O 0.23457 0.06345 0.76069 0.0
C153 C 0.33252 0.0092 0.9028 0.0
Zn154 Zn 0.969 0.63998 0.15694 0.0
Zn155 Zn 0.02484 0.69834 0.1704 0.0
O156 O 0.05136 0.6483 0.20237 0.0
O157 O 0.00903 0.59775 0.18261 0.0
O158 O 0.0665 0.74478 0.17557 0.0
O159 O 0.96741 0.64889 0.09356 0.0
O160 O 0.02022 0.69152 0.10389 0.0
C161 C 0.04133 0.60978 0.20262 0.0
C162 C 0.93858 0.70546 0.21113 0.0
O163 O 0.97422 0.72123 0.20372 0.0
O164 O 0.92889 0.67052 0.19496 0.0
C165 C 0.0824 0.75549 0.21151 0.0
O166 O 0.0722 0.73554 0.24712 0.0
C167 C 0.99561 0.67218 0.0785 0.0
Zn168 Zn 0.63283 0.04364 0.12244 0.0
Zn169 Zn 0.69096 0.08485 0.16559 0.0
O170 O 0.64176 0.12602 0.15927 0.0
O171 O 0.59516 0.09428 0.11953 0.0
O172 O 0.73524 0.12195 0.18986 0.0
O173 O 0.67231 0.02982 0.07458 0.0
O174 O 0.72078 0.06372 0.11064 0.0
C175 C 0.60655 0.12647 0.14009 0.0
C176 C 0.65108 0.01089 0.20894 0.0
O177 O 0.67795 0.04003 0.21142 0.0
O178 O 0.62916 0.0064 0.1751 0.0
C179 C 0.77071 0.10849 0.20181 0.0
O180 O 0.77789 0.06806 0.20322 0.0
C181 C 0.70937 0.04268 0.07785 0.0
Zn182 Zn 0.00535 0.35468 0.82313 0.0
Zn183 Zn 0.05611 0.28947 0.81897 0.0
O184 O 0.0941 0.33744 0.79894 0.0
O185 O 0.05229 0.39206 0.80399 0.0
O186 O 0.09385 0.23879 0.81717 0.0
O187 O 0.99404 0.34465 0.88554 0.0
O188 O 0.04024 0.29361 0.88395 0.0
C189 C 0.0874 0.37651 0.79444 0.0
C190 C 0.97804 0.29674 0.7605 0.0
O191 O 0.01017 0.27648 0.77323 0.0
O192 O 0.96831 0.33107 0.77792 0.0
C193 C 0.11346 0.2294 0.78284 0.0
O194 O 0.10862 0.25248 0.74796 0.0
C195 C 0.01497 0.31673 0.90495 0.0
Zn196 Zn 0.33256 0.97799 0.16217 0.0
Zn197 Zn 0.26434 0.93987 0.16753 0.0
O198 O 0.30534 0.90619 0.20629 0.0
O199 O 0.36604 0.93501 0.19312 0.0
O200 O 0.21396 0.90277 0.17059 0.0
O201 O 0.33322 0.98266 0.09935 0.0
O202 O 0.27637 0.9445 0.10079 0.0
C203 C 0.3446 0.90748 0.21206 0.0
C204 C 0.27203 0.02593 0.20695 0.0
O205 O 0.24801 0.99538 0.19816 0.0
O206 O 0.30975 0.02532 0.19541 0.0
C207 C 0.20066 0.89118 0.2074 0.0
O208 O 0.21768 0.90633 0.24272 0.0
C209 C 0.30441 0.96395 0.07952 0.0
Zn210 Zn 0.01777 0.63275 0.81089 0.0
Zn211 Zn 0.9672 0.69917 0.8049 0.0
O212 O 0.92966 0.65246 0.78135 0.0
O213 O 0.97071 0.5973 0.78796 0.0
O214 O 0.9304 0.75028 0.8053 0.0
O215 O 0.02604 0.64066 0.87428 0.0
O216 O 0.98067 0.69233 0.8697 0.0
C217 C 0.93618 0.61339 0.77679 0.0
C218 C 0.04859 0.69496 0.75305 0.0
O219 O 0.01552 0.71466 0.76348 0.0
O220 O 0.05673 0.6596 0.76942 0.0
C221 C 0.9186 0.76976 0.77152 0.0
O222 O 0.93061 0.75682 0.73321 0.0
C223 C 0.00433 0.66868 0.89223 0.0
C224 C 0.29988 0.36291 0.2448 0.0
C225 C 0.30492 0.38971 0.2808 0.0
C226 C 0.37123 0.35512 0.29797 0.0
C227 C 0.36166 0.32339 0.2677 0.0
N228 N 0.31373 0.29459 0.215 0.0
N229 N 0.34396 0.40877 0.34497 0.0
C230 C 0.32553 0.32687 0.24118 0.0
C231 C 0.34061 0.38576 0.30793 0.0
N232 N 0.27027 0.37187 0.21426 0.0
N233 N 0.40965 0.35597 0.31713 0.0
H234 H 0.32218 0.43111 0.35439 0.0
H235 H 0.36681 0.40327 0.36834 0.0
H236 H 0.43289 0.33413 0.31006 0.0
H237 H 0.41981 0.38061 0.33639 0.0
H238 H 0.26758 0.35558 0.18525 0.0
H239 H 0.25131 0.3984 0.21602 0.0
H240 H 0.28512 0.29375 0.19902 0.0
H241 H 0.33056 0.26687 0.21211 0.0
C242 C 0.36306 0.6842 0.76607 0.0
C243 C 0.37037 0.71227 0.73132 0.0
C244 C 0.31591 0.67861 0.68812 0.0
C245 C 0.30725 0.6516 0.72359 0.0
N246 N 0.31811 0.63154 0.798 0.0
N247 N 0.34913 0.74177 0.66263 0.0
C248 C 0.32942 0.65537 0.76318 0.0
C249 C 0.34571 0.71085 0.69315 0.0
N250 N 0.38931 0.68408 0.801 0.0
N251 N 0.29554 0.67371 0.64948 0.0
H252 H 0.3707 0.76593 0.66454 0.0
H253 H 0.32832 0.74575 0.63703 0.0
H254 H 0.27017 0.65395 0.6451 0.0
H255 H 0.30505 0.68784 0.62079 0.0
H256 H 0.38859 0.66164 0.82543 0.0
H257 H 0.41406 0.70493 0.80416 0.0
H258 H 0.32973 0.63592 0.82912 0.0
H259 H 0.29501 0.60873 0.79637 0.0
C260 C 0.61668 0.69752 0.24408 0.0
C261 C 0.62094 0.72817 0.27681 0.0
C262 C 0.68169 0.69146 0.30656 0.0
C263 C 0.6792 0.66198 0.2723 0.0
N264 N 0.64805 0.63936 0.20535 0.0
N265 N 0.66299 0.76029 0.3323 0.0
C266 C 0.64783 0.66582 0.23999 0.0
C267 C 0.65495 0.72677 0.30615 0.0
N268 N 0.58231 0.69811 0.21786 0.0
N269 N 0.7095 0.6859 0.33975 0.0
H270 H 0.64477 0.78735 0.33243 0.0
H271 H 0.69008 0.76321 0.35066 0.0
H272 H 0.73198 0.66238 0.34052 0.0
H273 H 0.70856 0.70317 0.36825 0.0
H274 H 0.57491 0.67429 0.19633 0.0
H275 H 0.55961 0.72148 0.21959 0.0
H276 H 0.62889 0.64314 0.17837 0.0
H277 H 0.66927 0.61475 0.20243 0.0
C278 C 0.65064 0.30121 0.71322 0.0
C279 C 0.65332 0.27059 0.68014 0.0
C280 C 0.7168 0.30337 0.65244 0.0
C281 C 0.71616 0.33167 0.68779 0.0
N282 N 0.68599 0.35483 0.75485 0.0
N283 N 0.69333 0.23733 0.62364 0.0
C284 C 0.68413 0.32974 0.71918 0.0
C285 C 0.68743 0.27038 0.65098 0.0
N286 N 0.61536 0.30405 0.73779 0.0
N287 N 0.74547 0.30792 0.62007 0.0
H288 H 0.67311 0.21199 0.62179 0.0
H289 H 0.72035 0.23294 0.6056 0.0
H290 H 0.76932 0.32993 0.62071 0.0
H291 H 0.74388 0.29175 0.59092 0.0
H292 H 0.60968 0.32824 0.75947 0.0
H293 H 0.58994 0.28418 0.73381 0.0
H294 H 0.66619 0.35174 0.78129 0.0
H295 H 0.70934 0.37703 0.75935 0.0
C296 C 0.82529 0.84334 0.76197 0.0
C297 C 0.83713 0.87501 0.79157 0.0
C298 C 0.9055 0.84161 0.80057 0.0
C299 C 0.89145 0.80708 0.77584 0.0
N300 N 0.83593 0.77231 0.73741 0.0
N301 N 0.88646 0.90185 0.84357 0.0
C302 C 0.85089 0.80728 0.75738 0.0
C303 C 0.87684 0.87373 0.81188 0.0
N304 N 0.79008 0.84824 0.73742 0.0
N305 N 0.94654 0.84426 0.81227 0.0
H306 H 0.86629 0.9257 0.85312 0.0
H307 H 0.91297 0.89944 0.86296 0.0
H308 H 0.96858 0.82164 0.80395 0.0
H309 H 0.95952 0.87069 0.82646 0.0
H310 H 0.78211 0.82831 0.71216 0.0
H311 H 0.77088 0.87456 0.73945 0.0
H312 H 0.80498 0.76903 0.72779 0.0
H313 H 0.85341 0.74503 0.73372 0.0
C314 C 0.79851 0.17262 0.23774 0.0
C315 C 0.80476 0.13891 0.20875 0.0
C316 C 0.87329 0.16698 0.18982 0.0
C317 C 0.86409 0.20378 0.21344 0.0
N318 N 0.81457 0.24456 0.25459 0.0
N319 N 0.84513 0.10821 0.15077 0.0
C320 C 0.82593 0.20735 0.23634 0.0
C321 C 0.8415 0.13693 0.18324 0.0
N322 N 0.76675 0.17113 0.26708 0.0
N323 N 0.91264 0.16024 0.17443 0.0
H324 H 0.82206 0.08656 0.14328 0.0
H325 H 0.86933 0.10864 0.12834 0.0
H326 H 0.93708 0.18109 0.17952 0.0
H327 H 0.92201 0.13203 0.16069 0.0
H328 H 0.76316 0.19294 0.29177 0.0
H329 H 0.74652 0.14576 0.26949 0.0
H330 H 0.78511 0.25002 0.26756 0.0
H331 H 0.83292 0.27133 0.25311 0.0
C332 C 0.12981 0.15274 0.78976 0.0
C333 C 0.14377 0.19431 0.783 0.0
C334 C 0.21528 0.16878 0.77335 0.0
C335 C 0.2021 0.12791 0.78477 0.0
N336 N 0.148 0.08125 0.8087 0.0
N337 N 0.20058 0.24303 0.77529 0.0
C338 C 0.15961 0.11987 0.79412 0.0
C339 C 0.18672 0.20266 0.77651 0.0
N340 N 0.08803 0.1445 0.7906 0.0
N341 N 0.25477 0.17501 0.75812 0.0
H342 H 0.18081 0.26883 0.778 0.0
H343 H 0.23202 0.251 0.77556 0.0
H344 H 0.27647 0.15089 0.75472 0.0
H345 H 0.26479 0.20323 0.74495 0.0
H346 H 0.07579 0.11441 0.79078 0.0
H347 H 0.06533 0.16775 0.7874 0.0
H348 H 0.11845 0.07469 0.82076 0.0
H349 H 0.16888 0.05635 0.8118 0.0
C350 C 0.12778 0.86438 0.19861 0.0
C351 C 0.16993 0.85692 0.21036 0.0
C352 C 0.15482 0.78261 0.22247 0.0
C353 C 0.11226 0.79058 0.21293 0.0
N354 N 0.05641 0.83944 0.19913 0.0
N355 N 0.22341 0.81058 0.23798 0.0
C356 C 0.09822 0.8316 0.20289 0.0
C357 C 0.18333 0.81655 0.22395 0.0
N358 N 0.11613 0.90273 0.18297 0.0
N359 N 0.16838 0.74231 0.22781 0.0
H360 H 0.2462 0.83368 0.23661 0.0
H361 H 0.23367 0.78343 0.25336 0.0
H362 H 0.14847 0.71662 0.22703 0.0
H363 H 0.19965 0.73378 0.22981 0.0
H364 H 0.0872 0.90883 0.16896 0.0
H365 H 0.13638 0.92813 0.18155 0.0
H366 H 0.0437 0.8693 0.19635 0.0
H367 H 0.03386 0.81624 0.20243 0.0
C368 C 0.06344 0.51604 0.27424 0.0
C369 C 0.1073 0.518 0.27947 0.0
C370 C 0.10911 0.57711 0.22874 0.0
C371 C 0.0648 0.57904 0.22947 0.0
N372 N 0.0009 0.55658 0.26407 0.0
N373 N 0.17165 0.55505 0.26678 0.0
C374 C 0.04221 0.55024 0.25533 0.0
C375 C 0.13025 0.54975 0.25802 0.0
N376 N 0.042 0.48104 0.28621 0.0
N377 N 0.131 0.6 0.19921 0.0
H378 H 0.18809 0.53628 0.28857 0.0
H379 H 0.18867 0.58046 0.25536 0.0
H380 H 0.11673 0.61913 0.17613 0.0
H381 H 0.16302 0.59666 0.19476 0.0
H382 H 0.01039 0.47707 0.27948 0.0
H383 H 0.05665 0.45413 0.29798 0.0
H384 H 0.98436 0.53799 0.28578 0.0
H385 H 0.98457 0.58321 0.25424 0.0
C386 C 0.53954 0.85236 0.83545 0.0
C387 C 0.55393 0.82753 0.8007 0.0
C388 C 0.62436 0.82847 0.83066 0.0
C389 C 0.61206 0.8628 0.85637 0.0
N390 N 0.55752 0.8893 0.90169 0.0
N391 N 0.60733 0.7845 0.76917 0.0
C392 C 0.56918 0.86852 0.86517 0.0
C393 C 0.59537 0.81214 0.80037 0.0
N394 N 0.49831 0.86279 0.83777 0.0
N395 N 0.66325 0.81179 0.83576 0.0
H396 H 0.58591 0.77127 0.74775 0.0
H397 H 0.63813 0.77557 0.7639 0.0
H398 H 0.68323 0.82207 0.86022 0.0
H399 H 0.67373 0.78536 0.81946 0.0
H400 H 0.48625 0.88447 0.85948 0.0
H401 H 0.47623 0.84992 0.81685 0.0
H402 H 0.52671 0.89308 0.91141 0.0
H403 H 0.57958 0.89903 0.92442 0.0
C404 C 0.87638 0.46317 0.17098 0.0
C405 C 0.87283 0.42183 0.1872 0.0
C406 C 0.82127 0.44528 0.24001 0.0
C407 C 0.83206 0.4872 0.23012 0.0
N408 N 0.86496 0.5373 0.18337 0.0
N409 N 0.825 0.37239 0.21904 0.0
C410 C 0.85735 0.49653 0.19393 0.0
C411 C 0.83984 0.41224 0.21604 0.0
N412 N 0.89694 0.46985 0.13295 0.0
N413 N 0.79543 0.4371 0.27406 0.0
H414 H 0.83402 0.3488 0.19788 0.0
H415 H 0.79945 0.36406 0.23782 0.0
H416 H 0.77978 0.46064 0.29079 0.0
H417 H 0.79089 0.40735 0.2869 0.0
H418 H 0.89873 0.49874 0.11753 0.0
H419 H 0.90852 0.44513 0.11448 0.0
H420 H 0.88705 0.54666 0.16077 0.0
H421 H 0.84965 0.56208 0.19855 0.0
C422 C 0.43232 0.18516 0.74076 0.0
C423 C 0.47516 0.17545 0.74531 0.0
C424 C 0.46365 0.15315 0.81985 0.0
C425 C 0.42061 0.15118 0.8102 0.0
N426 N 0.36441 0.18817 0.77557 0.0
N427 N 0.53387 0.16039 0.79125 0.0
C428 C 0.40494 0.17521 0.77527 0.0
C429 C 0.49173 0.16403 0.7862 0.0
N430 N 0.41785 0.20085 0.70243 0.0
N431 N 0.4769 0.14392 0.86076 0.0
H432 H 0.55454 0.16943 0.76695 0.0
H433 H 0.54822 0.14824 0.8188 0.0
H434 H 0.45563 0.13753 0.88543 0.0
H435 H 0.50773 0.14611 0.87098 0.0
H436 H 0.38633 0.20432 0.69509 0.0
H437 H 0.43806 0.20945 0.67753 0.0
H438 H 0.35137 0.20748 0.75193 0.0
H439 H 0.34536 0.18313 0.80242 0.0
C440 C 0.1473 0.47539 0.77261 0.0
C441 C 0.16015 0.46831 0.72945 0.0
C442 C 0.13323 0.39697 0.73196 0.0
C443 C 0.11909 0.40425 0.77485 0.0
N444 N 0.1232 0.44498 0.84012 0.0
N445 N 0.17837 0.41943 0.6736 0.0
C446 C 0.1298 0.44176 0.79659 0.0
C447 C 0.15766 0.4279 0.71118 0.0
N448 N 0.14962 0.51464 0.78974 0.0
N449 N 0.12057 0.36241 0.70961 0.0
H450 H 0.19663 0.44171 0.65786 0.0
H451 H 0.18097 0.3895 0.66068 0.0
H452 H 0.10181 0.33916 0.72272 0.0
H453 H 0.12589 0.35838 0.67665 0.0
H454 H 0.13615 0.52294 0.81911 0.0
H455 H 0.16327 0.53961 0.77335 0.0
H456 H 0.13341 0.47011 0.85862 0.0
H457 H 0.111 0.42044 0.85842 0.0
C458 C 0.37802 0.84511 0.24849 0.0
C459 C 0.36363 0.88687 0.24994 0.0
C460 C 0.40892 0.90194 0.31089 0.0
C461 C 0.42311 0.85958 0.31108 0.0
N462 N 0.41226 0.78853 0.28739 0.0
N463 N 0.35287 0.94919 0.2919 0.0
C464 C 0.40476 0.83027 0.28218 0.0
C465 C 0.37447 0.91295 0.28482 0.0
N466 N 0.36724 0.82028 0.21446 0.0
N467 N 0.4305 0.93293 0.33149 0.0
H468 H 0.32737 0.95819 0.27292 0.0
H469 H 0.35745 0.96763 0.31926 0.0
H470 H 0.45903 0.92873 0.34691 0.0
H471 H 0.42285 0.96448 0.32824 0.0
H472 H 0.3804 0.79096 0.20905 0.0
H473 H 0.34641 0.8302 0.19049 0.0
H474 H 0.39727 0.76559 0.26933 0.0
H475 H 0.4303 0.7767 0.3128 0.0
C476 C 0.87563 0.51498 0.7554 0.0
C477 C 0.86376 0.52151 0.71173 0.0
C478 C 0.8909 0.59287 0.71365 0.0
C479 C 0.90441 0.5859 0.7569 0.0
N480 N 0.89841 0.54621 0.82291 0.0
N481 N 0.84708 0.56967 0.65435 0.0
C482 C 0.89285 0.54882 0.77913 0.0
C483 C 0.86686 0.5617 0.69274 0.0
N484 N 0.87285 0.47599 0.77329 0.0
N485 N 0.90369 0.62745 0.69127 0.0
H486 H 0.82914 0.54717 0.6386 0.0
H487 H 0.84492 0.59937 0.64061 0.0
H488 H 0.92171 0.65106 0.7048 0.0
H489 H 0.89898 0.63134 0.65815 0.0
H490 H 0.88578 0.46807 0.80317 0.0
H491 H 0.85942 0.45082 0.75713 0.0
H492 H 0.8875 0.52147 0.84164 0.0
H493 H 0.91036 0.57093 0.84104 0.0
C494 C 0.58184 0.18673 0.1857 0.0
C495 C 0.57499 0.15961 0.15035 0.0
C496 C 0.49978 0.16554 0.16075 0.0
C497 C 0.50762 0.18165 0.20268 0.0
N498 N 0.55493 0.21376 0.25336 0.0
N499 N 0.52884 0.14436 0.09139 0.0
C500 C 0.54816 0.19546 0.21412 0.0
C501 C 0.53414 0.15612 0.13344 0.0
N502 N 0.62006 0.2045 0.19119 0.0
N503 N 0.45976 0.1571 0.14851 0.0
H504 H 0.55432 0.14014 0.07086 0.0
H505 H 0.50005 0.14291 0.0759 0.0
H506 H 0.43426 0.16568 0.1675 0.0
H507 H 0.45183 0.14119 0.12037 0.0
H508 H 0.62658 0.22662 0.21488 0.0
H509 H 0.64369 0.20073 0.16835 0.0
H510 H 0.58451 0.21967 0.26581 0.0
H511 H 0.53073 0.22168 0.27428 0.0
C512 C 0.66528 0.00198 0.70032 0.0
C513 C 0.68657 0.02336 0.73388 0.0
C514 C 0.67829 0.08932 0.69451 0.0
C515 C 0.6479 0.06977 0.6682 0.0
N516 N 0.631 0.00685 0.63012 0.0
N517 N 0.71907 0.08578 0.76075 0.0
C518 C 0.64754 0.02561 0.66582 0.0
C519 C 0.69566 0.0665 0.72976 0.0
N520 N 0.65929 0.95981 0.70331 0.0
N521 N 0.69162 0.12862 0.68455 0.0
H522 H 0.73378 0.06912 0.78561 0.0
H523 H 0.72271 0.11805 0.76266 0.0
H524 H 0.68285 0.14341 0.65582 0.0
H525 H 0.71527 0.14397 0.7012 0.0
H526 H 0.63972 0.94309 0.68284 0.0
H527 H 0.67306 0.94158 0.7275 0.0
H528 H 0.63187 0.97478 0.62467 0.0
H529 H 0.62043 0.02434 0.60366 0.0
C530 C 0.10925 0.29888 0.3073 0.0
C531 C 0.0936 0.3204 0.34369 0.0
C532 C 0.02243 0.30972 0.31857 0.0
C533 C 0.03885 0.30034 0.27718 0.0
N534 N 0.09567 0.27556 0.23372 0.0
N535 N 0.03754 0.32202 0.39477 0.0
C536 C 0.08162 0.29028 0.27246 0.0
C537 C 0.05066 0.31729 0.35315 0.0
N538 N 0.15034 0.2879 0.30635 0.0
N539 N 0.98048 0.31484 0.32361 0.0
H540 H 0.05886 0.32555 0.42009 0.0
H541 H 0.00676 0.3181 0.40452 0.0
H542 H 0.95939 0.30838 0.29878 0.0
H543 H 0.96682 0.32633 0.3517 0.0
H544 H 0.16403 0.27079 0.28154 0.0
H545 H 0.16976 0.29321 0.33296 0.0
H546 H 0.12701 0.27126 0.22632 0.0
H547 H 0.07517 0.26805 0.20862 0.0
C548 C 0.36734 0.97982 0.68426 0.0
C549 C 0.34462 0.97011 0.72213 0.0
C550 C 0.35267 0.89558 0.70714 0.0
C551 C 0.38541 0.90585 0.6784 0.0
N552 N 0.40676 0.95356 0.62274 0.0
N553 N 0.30819 0.91968 0.76553 0.0
C554 C 0.38684 0.94684 0.66108 0.0
C555 C 0.33374 0.92817 0.7314 0.0
N556 N 0.37275 0.02073 0.67301 0.0
N557 N 0.33924 0.85531 0.71013 0.0
H558 H 0.29286 0.94328 0.78251 0.0
H559 H 0.30315 0.88971 0.7776 0.0
H560 H 0.34997 0.83235 0.68904 0.0
H561 H 0.31408 0.846 0.72899 0.0
H562 H 0.39251 0.03081 0.64849 0.0
H563 H 0.35735 0.04478 0.68935 0.0
H564 H 0.40775 0.98232 0.60699 0.0
H565 H 0.419 0.92878 0.60481 0.0
C566 C 0.89643 0.70564 0.31928 0.0
C567 C 0.85659 0.69178 0.30593 0.0
C568 C 0.86697 0.72192 0.23469 0.0
C569 C 0.91012 0.72312 0.24395 0.0
N570 N 0.9626 0.73666 0.29765 0.0
N571 N 0.79716 0.71172 0.2632 0.0
C572 C 0.92361 0.72283 0.2876 0.0
C573 C 0.83929 0.70879 0.26767 0.0
N574 N 0.90812 0.70026 0.3614 0.0
N575 N 0.85357 0.72981 0.19357 0.0
H576 H 0.77741 0.70441 0.28887 0.0
H577 H 0.78251 0.72541 0.23657 0.0
H578 H 0.87414 0.74025 0.16974 0.0
H579 H 0.82302 0.72515 0.18322 0.0
H580 H 0.93751 0.70727 0.37359 0.0
H581 H 0.88698 0.68931 0.38443 0.0
H582 H 0.97504 0.73671 0.32875 0.0
H583 H 0.98145 0.75107 0.27462 0.0
C584 C 0.5972 0.99239 0.26236 0.0
C585 C 0.63858 0.98697 0.24775 0.0
C586 C 0.64766 0.92841 0.29843 0.0
C587 C 0.6043 0.93004 0.30765 0.0
N588 N 0.53608 0.95742 0.28865 0.0
N589 N 0.70337 0.94882 0.24951 0.0
C590 C 0.57858 0.96059 0.28731 0.0
C591 C 0.66415 0.95491 0.26541 0.0
N592 N 0.57553 0.02796 0.25209 0.0
N593 N 0.67297 0.90216 0.3216 0.0
H594 H 0.71644 0.96843 0.2262 0.0
H595 H 0.72192 0.92318 0.25756 0.0
H596 H 0.66172 0.88262 0.34597 0.0
H597 H 0.70532 0.90218 0.31911 0.0
H598 H 0.54649 0.03505 0.26528 0.0
H599 H 0.58854 0.05236 0.23419 0.0
H600 H 0.51625 0.97683 0.27083 0.0
H601 H 0.52064 0.93235 0.30289 0.0
C602 C 0.88432 0.29261 0.69085 0.0
C603 C 0.90248 0.31367 0.6554 0.0
C604 C 0.97178 0.29299 0.68034 0.0
C605 C 0.95418 0.28462 0.72155 0.0
N606 N 0.89442 0.26651 0.76411 0.0
N607 N 0.95882 0.3107 0.60473 0.0
C608 C 0.91048 0.27998 0.72571 0.0
C609 C 0.94491 0.30586 0.6461 0.0
N610 N 0.84269 0.28433 0.69037 0.0
N611 N 0.01403 0.29236 0.67526 0.0
H612 H 0.9383 0.31795 0.57947 0.0
H613 H 0.98896 0.3034 0.59483 0.0
H614 H 0.03411 0.28125 0.69928 0.0
H615 H 0.02917 0.30332 0.64775 0.0
H616 H 0.82754 0.26723 0.7143 0.0
H617 H 0.82447 0.29096 0.66316 0.0
H618 H 0.86273 0.26672 0.77128 0.0
H619 H 0.91367 0.25592 0.7892 0.0
C620 C 0.29104 0.08314 0.3029 0.0
C621 C 0.30555 0.11922 0.28095 0.0
C622 C 0.26401 0.10118 0.21768 0.0
C623 C 0.25956 0.06067 0.23524 0.0
N624 N 0.25166 0.01813 0.29827 0.0
N625 N 0.28863 0.17227 0.22809 0.0
C626 C 0.26615 0.054 0.27983 0.0
C627 C 0.28576 0.13188 0.24197 0.0
N628 N 0.30336 0.07622 0.34463 0.0
N629 N 0.25104 0.10826 0.17623 0.0
H630 H 0.30209 0.19553 0.24698 0.0
H631 H 0.27376 0.18366 0.20049 0.0
H632 H 0.23474 0.08542 0.15905 0.0
H633 H 0.25699 0.13556 0.15897 0.0
H634 H 0.29653 0.04937 0.36224 0.0
H635 H 0.32038 0.09853 0.36177 0.0
H636 H 0.25516 0.01045 0.33081 0.0
H637 H 0.23377 0.997 0.28051 0.0
C638 C 0.14871 0.69828 0.69699 0.0
C639 C 0.13354 0.67792 0.65969 0.0
C640 C 0.06338 0.70323 0.67493 0.0
C641 C 0.07639 0.70959 0.71824 0.0
N642 N 0.13137 0.72499 0.76832 0.0
N643 N 0.0838 0.68278 0.60197 0.0
C644 C 0.1194 0.71236 0.72807 0.0
C645 C 0.09314 0.68825 0.64464 0.0
N646 N 0.19051 0.70386 0.70211 0.0
N647 N 0.0223 0.70769 0.66429 0.0
H648 H 0.10657 0.6731 0.58001 0.0
H649 H 0.05541 0.691 0.58794 0.0
H650 H 0.00071 0.72015 0.68592 0.0
H651 H 0.00969 0.69924 0.63454 0.0
H652 H 0.20375 0.71997 0.7279 0.0
H653 H 0.21138 0.69587 0.67761 0.0
H654 H 0.16197 0.72362 0.77957 0.0
H655 H 0.10966 0.73618 0.79066 0.0
C656 C 0.24822 0.53726 0.49578 0.0
C657 C 0.24674 0.51513 0.53533 0.0
C658 C 0.24304 0.44867 0.49728 0.0
C659 C 0.23568 0.47135 0.4587 0.0
N660 N 0.24579 0.53397 0.41709 0.0
N661 N 0.25784 0.45138 0.57462 0.0
C662 C 0.24411 0.51468 0.4565 0.0
C663 C 0.25025 0.4711 0.53615 0.0
N664 N 0.2503 0.57986 0.49659 0.0
N665 N 0.24019 0.40611 0.49667 0.0
H666 H 0.26299 0.46816 0.60305 0.0
H667 H 0.26169 0.41925 0.57804 0.0
H668 H 0.23609 0.38977 0.46776 0.0
H669 H 0.24181 0.38716 0.52403 0.0
H670 H 0.24788 0.59892 0.46937 0.0
H671 H 0.25438 0.59608 0.52558 0.0
H672 H 0.25298 0.56536 0.41267 0.0
H673 H 0.24279 0.51735 0.38825 0.0
C674 C 0.51773 0.7608 0.5042 0.0
C675 C 0.55249 0.78341 0.48853 0.0
C676 C 0.58157 0.78719 0.56137 0.0
C677 C 0.54239 0.77422 0.57737 0.0
N678 N 0.48526 0.72692 0.56591 0.0
N679 N 0.62246 0.80772 0.49847 0.0
C680 C 0.51436 0.75349 0.54939 0.0
C681 C 0.58665 0.79222 0.516 0.0
N682 N 0.48668 0.74936 0.47639 0.0
N683 N 0.6128 0.79563 0.5901 0.0
H684 H 0.62637 0.81029 0.46501 0.0
H685 H 0.64821 0.81729 0.51633 0.0
H686 H 0.609 0.7904 0.62325 0.0
H687 H 0.64255 0.80534 0.58149 0.0
H688 H 0.45808 0.73759 0.48645 0.0
H689 H 0.48924 0.75304 0.44295 0.0
H690 H 0.46524 0.70922 0.54682 0.0
H691 H 0.48501 0.71843 0.59849 0.0
C692 C 0.77256 0.53608 0.47908 0.0
C693 C 0.77548 0.51494 0.43912 0.0
C694 C 0.78456 0.44789 0.47599 0.0
C695 C 0.78714 0.46972 0.51563 0.0
N696 N 0.77139 0.53107 0.55758 0.0
N697 N 0.77076 0.45129 0.39858 0.0
C698 C 0.77645 0.51271 0.51806 0.0
C699 C 0.77646 0.47076 0.43741 0.0
N700 N 0.76874 0.57862 0.47928 0.0
N701 N 0.79196 0.40581 0.47536 0.0
H702 H 0.76447 0.46806 0.37027 0.0
H703 H 0.7689 0.41905 0.39482 0.0
H704 H 0.79607 0.38841 0.5037 0.0
H705 H 0.79488 0.3883 0.44722 0.0
H706 H 0.77098 0.59695 0.50692 0.0
H707 H 0.76412 0.5958 0.45087 0.0
H708 H 0.76121 0.56167 0.56189 0.0
H709 H 0.77433 0.51444 0.58651 0.0
C710 C 0.46983 0.12668 0.45091 0.0
C711 C 0.46935 0.16536 0.42834 0.0
C712 C 0.49548 0.19935 0.49419 0.0
C713 C 0.50244 0.15944 0.51347 0.0
N714 N 0.50912 0.08489 0.50126 0.0
N715 N 0.49124 0.23777 0.42672 0.0
C716 C 0.49358 0.12299 0.48913 0.0
C717 C 0.48485 0.20167 0.44938 0.0
N718 N 0.44634 0.09373 0.43713 0.0
N719 N 0.49706 0.23487 0.5185 0.0
H720 H 0.4861 0.24042 0.39354 0.0
H721 H 0.50601 0.26367 0.44014 0.0
H722 H 0.50243 0.23469 0.55175 0.0
H723 H 0.48846 0.26409 0.50634 0.0
H724 H 0.44403 0.06599 0.45478 0.0
H725 H 0.42504 0.09608 0.41166 0.0
H726 H 0.50535 0.05821 0.48233 0.0
H727 H 0.53024 0.08108 0.5267 0.0
C728 C 0.74722 0.06295 0.01076 0.0
C729 C 0.73874 0.03241 0.04273 0.0
C730 C 0.7587 0.97685 0.99271 0.0
C731 C 0.75486 0.00614 0.95863 0.0
N732 N 0.75892 0.07694 0.93408 0.0
N733 N 0.74505 0.96186 0.06862 0.0
C734 C 0.75473 0.04945 0.96766 0.0
C735 C 0.74838 0.9898 0.03531 0.0
N736 N 0.74568 0.10432 0.0214 0.0
N737 N 0.77065 0.93683 0.98381 0.0
H738 H 0.73925 0.9715 0.10031 0.0
H739 H 0.7474 0.92962 0.06506 0.0
H740 H 0.77949 0.92768 0.95281 0.0
H741 H 0.7756 0.91396 0.00728 0.0
H742 H 0.75177 0.12863 -3e-05 0.0
H743 H 0.74039 0.1143 0.05302 0.0
H744 H 0.75664 0.10924 0.93685 0.0
H745 H 0.76535 0.06654 0.90277 0.0
C746 C 0.00607 0.2783 0.97644 0.0
C747 C 0.0135 0.31575 0.9529 0.0
C748 C 0.00223 0.3566 0.01825 0.0
C749 C -0.00017 0.31935 0.04316 0.0
N750 N 0.00748 0.24427 0.04672 0.0
N751 N 0.03257 0.38879 0.9554 0.0
C752 C 0.00405 0.27991 0.02253 0.0
C753 C 0.01601 0.35434 0.97509 0.0
N754 N 0.99924 0.24168 0.95502 0.0
N755 N 0.9891 0.39401 0.03472 0.0
H756 H 0.04553 0.38794 0.92447 0.0
H757 H 0.03799 0.41666 0.97186 0.0
H758 H 0.97502 0.39693 0.06494 0.0
H759 H 0.98725 0.42116 0.01605 0.0
H760 H 0.98946 0.21446 0.9705 0.0
H761 H -0.00015 0.23936 0.9214 0.0
H762 H 0.01459 0.21524 0.03342 0.0
H763 H 0.00718 0.24436 0.08046 0.0
C764 C 0.28068 0.98788 0.9609 0.0
C765 C 0.32259 0.99309 0.9468 0.0
C766 C 0.34648 0.95969 0.0134 0.0
C767 C 0.30641 0.96421 0.03162 0.0
N768 N 0.23458 0.98601 0.02282 0.0
N769 N 0.39584 0.99376 0.96737 0.0
C770 C 0.27296 0.97881 0.00537 0.0
C771 C 0.35578 0.9813 0.97492 0.0
N772 N 0.24845 0.99016 0.93204 0.0
N773 N 0.37613 0.93607 0.03385 0.0
H774 H 0.40392 0.01487 0.94309 0.0
H775 H 0.42006 0.98794 0.98918 0.0
H776 H 0.36968 0.91914 0.06199 0.0
H777 H 0.40515 0.92981 0.0201 0.0
H778 H 0.21779 0.98321 0.94041 0.0
H779 H 0.25288 0.99418 0.89889 0.0
H780 H 0.21075 0.00118 0.00591 0.0
H781 H 0.22736 0.9794 0.05493 0.0
C782 C 0.00879 0.7094 0.96187 0.0
C783 C 0.00348 0.67078 0.93999 0.0
C784 C 0.00357 0.63399 0.00919 0.0
C785 C 0.00207 0.67275 0.03118 0.0
N786 N 0.99721 0.74809 0.02806 0.0
N787 N 0.98465 0.5976 0.94407 0.0
C788 C 0.00322 0.71082 0.00751 0.0
C789 C 0.99783 0.63335 0.96394 0.0
N790 N 0.02044 0.74431 0.93946 0.0
N791 N 0.01159 0.59775 0.03131 0.0
H792 H 0.97693 0.59617 0.91131 0.0
H793 H 0.97654 0.57072 0.96119 0.0
H794 H 0.01815 0.59705 0.0644 0.0
H795 H 0.01656 0.56924 0.01588 0.0
H796 H 0.02862 0.77222 0.9545 0.0
H797 H 0.02593 0.74425 0.90622 0.0
H798 H 0.99338 0.7763 0.01156 0.0
H799 H 0.99237 0.75045 0.0613 0.0
loop_
_geom_bond_atom_site_label_1
_geom_bond_atom_site_label_2
_geom_bond_distance
_geom_bond_site_symmetry_2
_ccdc_geom_bond_type
Zn0 O3 2.031 . S
Zn0 O5 2.049 . S
Zn0 O10 2.067 . S
Zn1 O2 1.962 . S
Zn1 O4 1.986 . S
Zn1 O6 1.996 . S
Zn1 O9 1.943 . S
O2 Zn1 1.962 . S
O2 C7 1.254 . S
O3 Zn0 2.031 . S
O3 C7 1.269 . S
O4 Zn1 1.986 . S
O4 C11 1.262 . S
O5 Zn0 2.049 . S
O5 C13 1.260 . S
O6 Zn1 1.996 . S
O6 C13 1.257 . S
C7 O2 1.254 . S
C7 O3 1.269 . S
C8 O9 1.249 . S
C8 O10 1.270 . S
O9 Zn1 1.943 . S
O9 C8 1.249 . S
O10 Zn0 2.067 . S
O10 C8 1.270 . S
C11 O4 1.262 . S
C11 O12 1.232 . S
O12 C11 1.232 . S
C13 O5 1.260 . S
C13 O6 1.257 . S
Zn14 O17 2.031 . S
Zn14 O19 2.049 . S
Zn14 O24 2.067 . S
Zn15 O16 1.962 . S
Zn15 O18 1.986 . S
Zn15 O20 1.996 . S
Zn15 O23 1.943 . S
O16 Zn15 1.962 . S
O16 C21 1.254 . S
O17 Zn14 2.031 . S
O17 C21 1.269 . S
O18 Zn15 1.986 . S
O18 C25 1.262 . S
O19 Zn14 2.049 . S
O19 C27 1.260 . S
O20 Zn15 1.996 . S
O20 C27 1.257 . S
C21 O16 1.254 . S
C21 O17 1.269 . S
C22 O23 1.249 . S
C22 O24 1.270 . S
O23 Zn15 1.943 . S
O23 C22 1.249 . S
O24 Zn14 2.067 . S
O24 C22 1.270 . S
C25 O18 1.262 . S
C25 O26 1.232 . S
O26 C25 1.232 . S
C27 O19 1.260 . S
C27 O20 1.257 . S
Zn28 O31 2.031 . S
Zn28 O33 2.049 . S
Zn28 O38 2.067 . S
Zn29 O30 1.962 . S
Zn29 O32 1.986 . S
Zn29 O34 1.996 . S
Zn29 O37 1.943 . S
O30 Zn29 1.962 . S
O30 C35 1.254 . S
O31 Zn28 2.031 . S
O31 C35 1.269 . S
O32 Zn29 1.986 . S
O32 C39 1.262 . S
O33 Zn28 2.049 . S
O33 C41 1.260 . S
O34 Zn29 1.996 . S
O34 C41 1.257 . S
C35 O30 1.254 . S
C35 O31 1.269 . S
C36 O37 1.249 . S
C36 O38 1.270 . S
O37 Zn29 1.943 . S
O37 C36 1.249 . S
O38 Zn28 2.067 . S
O38 C36 1.270 . S
C39 O32 1.262 . S
C39 O40 1.232 . S
O40 C39 1.232 . S
C41 O33 1.260 . S
C41 O34 1.257 . S
Zn42 O45 2.031 . S
Zn42 O47 2.049 . S
Zn42 O52 2.067 . S
Zn43 O44 1.962 . S
Zn43 O46 1.986 . S
Zn43 O48 1.996 . S
Zn43 O51 1.943 . S
O44 Zn43 1.962 . S
O44 C49 1.254 . S
O45 Zn42 2.031 . S
O45 C49 1.269 . S
O46 Zn43 1.986 . S
O46 C53 1.262 . S
O47 Zn42 2.049 . S
O47 C55 1.260 . S
O48 Zn43 1.996 . S
O48 C55 1.257 . S
C49 O44 1.254 . S
C49 O45 1.269 . S
C50 O51 1.249 . S
C50 O52 1.270 . S
O51 Zn43 1.943 . S
O51 C50 1.249 . S
O52 Zn42 2.067 . S
O52 C50 1.270 . S
C53 O46 1.262 . S
C53 O54 1.232 . S
O54 C53 1.232 . S
C55 O47 1.260 . S
C55 O48 1.257 . S
Zn56 O59 2.031 . S
Zn56 O61 2.049 . S
Zn56 O66 2.067 . S
Zn57 O58 1.962 . S
Zn57 O60 1.986 . S
Zn57 O62 1.996 . S
Zn57 O65 1.943 . S
O58 Zn57 1.962 . S
O58 C63 1.254 . S
O59 Zn56 2.031 . S
O59 C63 1.269 . S
O60 Zn57 1.986 . S
O60 C67 1.262 . S
O61 Zn56 2.049 . S
O61 C69 1.260 . S
O62 Zn57 1.996 . S
O62 C69 1.257 . S
C63 O58 1.254 . S
C63 O59 1.269 . S
C64 O65 1.249 . S
C64 O66 1.270 . S
O65 Zn57 1.943 . S
O65 C64 1.249 . S
O66 Zn56 2.067 . S
O66 C64 1.270 . S
C67 O60 1.262 . S
C67 O68 1.232 . S
O68 C67 1.232 . S
C69 O61 1.260 . S
C69 O62 1.257 . S
Zn70 O73 2.031 . S
Zn70 O75 2.049 . S
Zn70 O80 2.067 . S
Zn71 O72 1.962 . S
Zn71 O74 1.986 . S
Zn71 O76 1.996 . S
Zn71 O79 1.943 . S
O72 Zn71 1.962 . S
O72 C77 1.254 . S
O73 Zn70 2.031 . S
O73 C77 1.269 . S
O74 Zn71 1.986 . S
O74 C81 1.262 . S
O75 Zn70 2.049 . S
O75 C83 1.260 . S
O76 Zn71 1.996 . S
O76 C83 1.257 . S
C77 O72 1.254 . S
C77 O73 1.269 . S
C78 O79 1.249 . S
C78 O80 1.270 . S
O79 Zn71 1.943 . S
O79 C78 1.249 . S
O80 Zn70 2.067 . S
O80 C78 1.270 . S
C81 O74 1.262 . S
C81 O82 1.232 . S
O82 C81 1.232 . S
C83 O75 1.260 . S
C83 O76 1.257 . S
Zn84 O87 2.031 . S
Zn84 O89 2.049 . S
Zn84 O94 2.067 . S
Zn85 O86 1.962 . S
Zn85 O88 1.986 . S
Zn85 O90 1.996 . S
Zn85 O93 1.943 . S
O86 Zn85 1.962 . S
O86 C91 1.254 . S
O87 Zn84 2.031 . S
O87 C91 1.269 . S
O88 Zn85 1.986 . S
O88 C95 1.262 . S
O89 Zn84 2.049 . S
O89 C97 1.260 . S
O90 Zn85 1.996 . S
O90 C97 1.257 . S
C91 O86 1.254 . S
C91 O87 1.269 . S
C92 O93 1.249 . S
C92 O94 1.270 . S
O93 Zn85 1.943 . S
O93 C92 1.249 . S
O94 Zn84 2.067 . S
O94 C92 1.270 . S
C95 O88 1.262 . S
C95 O96 1.232 . S
O96 C95 1.232 . S
C97 O89 1.260 . S
C97 O90 1.257 . S
Zn98 O101 2.031 . S
Zn98 O103 2.049 . S
Zn98 O108 2.067 . S
Zn99 O100 1.962 . S
Zn99 O102 1.986 . S
Zn99 O104 1.996 . S
Zn99 O107 1.943 . S
O100 Zn99 1.962 . S
O100 C105 1.254 . S
O101 Zn98 2.031 . S
O101 C105 1.269 . S
O102 Zn99 1.986 . S
O102 C109 1.262 . S
O103 Zn98 2.049 . S
O103 C111 1.260 . S
O104 Zn99 1.996 . S
O104 C111 1.257 . S
C105 O100 1.254 . S
C105 O101 1.269 . S
C106 O107 1.249 . S
C106 O108 1.270 . S
O107 Zn99 1.943 . S
O107 C106 1.249 . S
O108 Zn98 2.067 . S
O108 C106 1.270 . S
C109 O102 1.262 . S
C109 O110 1.232 . S
O110 C109 1.232 . S
C111 O103 1.260 . S
C111 O104 1.257 . S
Zn112 O115 2.031 . S
Zn112 O117 2.049 . S
Zn112 O122 2.067 1_565 S
Zn113 O114 1.962 . S
Zn113 O116 1.986 . S
Zn113 O118 1.996 . S
Zn113 O121 1.943 . S
O114 Zn113 1.962 . S
O114 C119 1.254 . S
O115 Zn112 2.031 . S
O115 C119 1.269 . S
O116 Zn113 1.986 . S
O116 C123 1.262 . S
O117 Zn112 2.049 . S
O117 C125 1.260 . S
O118 Zn113 1.996 . S
O118 C125 1.257 . S
C119 O114 1.254 . S
C119 O115 1.269 . S
C120 O121 1.249 . S
C120 O122 1.270 1_565 S
O121 Zn113 1.943 . S
O121 C120 1.249 . S
O122 Zn112 2.067 1_545 S
O122 C120 1.270 1_545 S
C123 O116 1.262 . S
C123 O124 1.232 . S
O124 C123 1.232 . S
C125 O117 1.260 . S
C125 O118 1.257 . S
Zn126 O129 2.031 . S
Zn126 O131 2.049 . S
Zn126 O136 2.067 1_655 S
Zn127 O128 1.962 . S
Zn127 O130 1.986 . S
Zn127 O132 1.996 . S
Zn127 O135 1.943 . S
O128 Zn127 1.962 . S
O128 C133 1.254 . S
O129 Zn126 2.031 . S
O129 C133 1.269 . S
O130 Zn127 1.986 . S
O130 C137 1.262 . S
O131 Zn126 2.049 . S
O131 C139 1.260 . S
O132 Zn127 1.996 . S
O132 C139 1.257 . S
C133 O128 1.254 . S
C133 O129 1.269 . S
C134 O135 1.249 . S
C134 O136 1.270 1_655 S
O135 Zn127 1.943 . S
O135 C134 1.249 . S
O136 Zn126 2.067 1_455 S
O136 C134 1.270 1_455 S
C137 O130 1.262 . S
C137 O138 1.232 . S
O138 C137 1.232 . S
C139 O131 1.260 . S
C139 O132 1.257 . S
Zn140 O143 2.031 . S
Zn140 O145 2.049 . S
Zn140 O150 2.067 1_545 S
Zn141 O142 1.962 . S
Zn141 O144 1.986 . S
Zn141 O146 1.996 . S
Zn141 O149 1.943 . S
O142 Zn141 1.962 . S
O142 C147 1.254 . S
O143 Zn140 2.031 . S
O143 C147 1.269 . S
O144 Zn141 1.986 . S
O144 C151 1.262 . S
O145 Zn140 2.049 . S
O145 C153 1.260 . S
O146 Zn141 1.996 . S
O146 C153 1.257 . S
C147 O142 1.254 . S
C147 O143 1.269 . S
C148 O149 1.249 . S
C148 O150 1.270 1_545 S
O149 Zn141 1.943 . S
O149 C148 1.249 . S
O150 Zn140 2.067 1_565 S
O150 C148 1.270 1_565 S
C151 O144 1.262 . S
C151 O152 1.232 . S
O152 C151 1.232 . S
C153 O145 1.260 . S
C153 O146 1.257 . S
Zn154 O157 2.031 . S
Zn154 O159 2.049 . S
Zn154 O164 2.067 1_455 S
Zn155 O156 1.962 . S
Zn155 O158 1.986 . S
Zn155 O160 1.996 . S
Zn155 O163 1.943 . S
O156 Zn155 1.962 . S
O156 C161 1.254 . S
O157 Zn154 2.031 . S
O157 C161 1.269 . S
O158 Zn155 1.986 . S
O158 C165 1.262 . S
O159 Zn154 2.049 . S
O159 C167 1.260 . S
O160 Zn155 1.996 . S
O160 C167 1.257 . S
C161 O156 1.254 . S
C161 O157 1.269 . S
C162 O163 1.249 . S
C162 O164 1.270 1_455 S
O163 Zn155 1.943 . S
O163 C162 1.249 . S
O164 Zn154 2.067 1_655 S
O164 C162 1.270 1_655 S
C165 O158 1.262 . S
C165 O166 1.232 . S
O166 C165 1.232 . S
C167 O159 1.260 . S
C167 O160 1.257 . S
Zn168 O171 2.031 . S
Zn168 O173 2.049 . S
Zn168 O178 2.067 1_545 S
Zn169 O170 1.962 . S
Zn169 O172 1.986 . S
Zn169 O174 1.996 . S
Zn169 O177 1.943 . S
O170 Zn169 1.962 . S
O170 C175 1.254 . S
O171 Zn168 2.031 . S
O171 C175 1.269 . S
O172 Zn169 1.986 . S
O172 C179 1.262 . S
O173 Zn168 2.049 . S
O173 C181 1.260 . S
O174 Zn169 1.996 . S
O174 C181 1.257 . S
C175 O170 1.254 . S
C175 O171 1.269 . S
C176 O177 1.249 . S
C176 O178 1.270 1_545 S
O177 Zn169 1.943 . S
O177 C176 1.249 . S
O178 Zn168 2.067 1_565 S
O178 C176 1.270 1_565 S
C179 O172 1.262 . S
C179 O180 1.232 . S
O180 C179 1.232 . S
C181 O173 1.260 . S
C181 O174 1.257 . S
Zn182 O185 2.031 . S
Zn182 O187 2.049 . S
Zn182 O192 2.067 1_455 S
Zn183 O184 1.962 . S
Zn183 O186 1.986 . S
Zn183 O188 1.996 . S
Zn183 O191 1.943 . S
O184 Zn183 1.962 . S
O184 C189 1.254 . S
O185 Zn182 2.031 . S
O185 C189 1.269 . S
O186 Zn183 1.986 . S
O186 C193 1.262 . S
O187 Zn182 2.049 . S
O187 C195 1.260 . S
O188 Zn183 1.996 . S
O188 C195 1.257 . S
C189 O184 1.254 . S
C189 O185 1.269 . S
C190 O191 1.249 . S
C190 O192 1.270 1_455 S
O191 Zn183 1.943 . S
O191 C190 1.249 . S
O192 Zn182 2.067 1_655 S
O192 C190 1.270 1_655 S
C193 O186 1.262 . S
C193 O194 1.232 . S
O194 C193 1.232 . S
C195 O187 1.260 . S
C195 O188 1.257 . S
Zn196 O199 2.031 . S
Zn196 O201 2.049 . S
Zn196 O206 2.067 1_565 S
Zn197 O198 1.962 . S
Zn197 O200 1.986 . S
Zn197 O202 1.996 . S
Zn197 O205 1.943 . S
O198 Zn197 1.962 . S
O198 C203 1.254 . S
O199 Zn196 2.031 . S
O199 C203 1.269 . S
O200 Zn197 1.986 . S
O200 C207 1.262 . S
O201 Zn196 2.049 . S
O201 C209 1.260 . S
O202 Zn197 1.996 . S
O202 C209 1.257 . S
C203 O198 1.254 . S
C203 O199 1.269 . S
C204 O205 1.249 . S
C204 O206 1.270 1_565 S
O205 Zn197 1.943 . S
O205 C204 1.249 . S
O206 Zn196 2.067 1_545 S
O206 C204 1.270 1_545 S
C207 O200 1.262 . S
C207 O208 1.232 . S
O208 C207 1.232 . S
C209 O201 1.260 . S
C209 O202 1.257 . S
Zn210 O213 2.031 . S
Zn210 O215 2.049 . S
Zn210 O220 2.067 1_655 S
Zn211 O212 1.962 . S
Zn211 O214 1.986 . S
Zn211 O216 1.996 . S
Zn211 O219 1.943 . S
O212 Zn211 1.962 . S
O212 C217 1.254 . S
O213 Zn210 2.031 . S
O213 C217 1.269 . S
O214 Zn211 1.986 . S
O214 C221 1.262 . S
O215 Zn210 2.049 . S
O215 C223 1.260 . S
O216 Zn211 1.996 . S
O216 C223 1.257 . S
C217 O212 1.254 . S
C217 O213 1.269 . S
C218 O219 1.249 . S
C218 O220 1.270 1_655 S
O219 Zn211 1.943 . S
O219 C218 1.249 . S
O220 Zn210 2.067 1_455 S
O220 C218 1.270 1_455 S
C221 O214 1.262 . S
C221 O222 1.232 . S
O222 C221 1.232 . S
C223 O215 1.260 . S
C223 O216 1.257 . S
C224 C225 1.363 . S
C224 C230 1.379 . S
C224 N232 1.356 . S
C225 C224 1.363 . S
C225 C231 1.363 . S
C226 C227 1.363 . S
C226 C231 1.379 . S
C226 N233 1.356 . S
C227 C226 1.363 . S
C227 C230 1.363 . S
N228 C230 1.356 . S
N228 H240 0.984 . S
N228 H241 0.985 . S
N229 C231 1.356 . S
N229 H234 0.984 . S
N229 H235 0.985 . S
C230 C224 1.379 . S
C230 C227 1.363 . S
C230 N228 1.356 . S
C231 C225 1.363 . S
C231 C226 1.379 . S
C231 N229 1.356 . S
N232 C224 1.356 . S
N232 H238 0.984 . S
N232 H239 0.984 . S
N233 C226 1.356 . S
N233 H236 0.984 . S
N233 H237 0.985 . S
H234 N229 0.984 . S
H235 N229 0.985 . S
H236 N233 0.984 . S
H237 N233 0.985 . S
H238 N232 0.984 . S
H239 N232 0.984 . S
H240 N228 0.984 . S
H241 N228 0.985 . S
C242 C243 1.363 . S
C242 C248 1.379 . S
C242 N250 1.356 . S
C243 C242 1.363 . S
C243 C249 1.363 . S
C244 C245 1.363 . S
C244 C249 1.379 . S
C244 N251 1.356 . S
C245 C244 1.363 . S
C245 C248 1.363 . S
N246 C248 1.356 . S
N246 H258 0.984 . S
N246 H259 0.985 . S
N247 C249 1.356 . S
N247 H252 0.984 . S
N247 H253 0.985 . S
C248 C242 1.379 . S
C248 C245 1.363 . S
C248 N246 1.356 . S
C249 C243 1.363 . S
C249 C244 1.379 . S
C249 N247 1.356 . S
N250 C242 1.356 . S
N250 H256 0.984 . S
N250 H257 0.984 . S
N251 C244 1.356 . S
N251 H254 0.984 . S
N251 H255 0.985 . S
H252 N247 0.984 . S
H253 N247 0.985 . S
H254 N251 0.984 . S
H255 N251 0.985 . S
H256 N250 0.984 . S
H257 N250 0.984 . S
H258 N246 0.984 . S
H259 N246 0.985 . S
C260 C261 1.363 . S
C260 C266 1.379 . S
C260 N268 1.356 . S
C261 C260 1.363 . S
C261 C267 1.363 . S
C262 C263 1.363 . S
C262 C267 1.379 . S
C262 N269 1.356 . S
C263 C262 1.363 . S
C263 C266 1.363 . S
N264 C266 1.356 . S
N264 H276 0.984 . S
N264 H277 0.985 . S
N265 C267 1.356 . S
N265 H270 0.984 . S
N265 H271 0.985 . S
C266 C260 1.379 . S
C266 C263 1.363 . S
C266 N264 1.356 . S
C267 C261 1.363 . S
C267 C262 1.379 . S
C267 N265 1.356 . S
N268 C260 1.356 . S
N268 H274 0.984 . S
N268 H275 0.984 . S
N269 C262 1.356 . S
N269 H272 0.984 . S
N269 H273 0.985 . S
H270 N265 0.984 . S
H271 N265 0.985 . S
H272 N269 0.984 . S
H273 N269 0.985 . S
H274 N268 0.984 . S
H275 N268 0.984 . S
H276 N264 0.984 . S
H277 N264 0.985 . S
C278 C279 1.363 . S
C278 C284 1.379 . S
C278 N286 1.356 . S
C279 C278 1.363 . S
C279 C285 1.363 . S
C280 C281 1.363 . S
C280 C285 1.379 . S
C280 N287 1.356 . S
C281 C280 1.363 . S
C281 C284 1.363 . S
N282 C284 1.356 . S
N282 H294 0.984 . S
N282 H295 0.985 . S
N283 C285 1.356 . S
N283 H288 0.984 . S
N283 H289 0.985 . S
C284 C278 1.379 . S
C284 C281 1.363 . S
C284 N282 1.356 . S
C285 C279 1.363 . S
C285 C280 1.379 . S
C285 N283 1.356 . S
N286 C278 1.356 . S
N286 H292 0.984 . S
N286 H293 0.984 . S
N287 C280 1.356 . S
N287 H290 0.984 . S
N287 H291 0.985 . S
H288 N283 0.984 . S
H289 N283 0.985 . S
H290 N287 0.984 . S
H291 N287 0.985 . S
H292 N286 0.984 . S
H293 N286 0.984 . S
H294 N282 0.984 . S
H295 N282 0.985 . S
C296 C297 1.363 . S
C296 C302 1.379 . S
C296 N304 1.356 . S
C297 C296 1.363 . S
C297 C303 1.363 . S
C298 C299 1.363 . S
C298 C303 1.379 . S
C298 N305 1.356 . S
C299 C298 1.363 . S
C299 C302 1.363 . S
N300 C302 1.356 . S
N300 H312 0.984 . S
N300 H313 0.985 . S
N301 C303 1.356 . S
N301 H306 0.984 . S
N301 H307 0.985 . S
C302 C296 1.379 . S
C302 C299 1.363 . S
C302 N300 1.356 . S
C303 C297 1.363 . S
C303 C298 1.379 . S
C303 N301 1.356 . S
N304 C296 1.356 . S
N304 H310 0.984 . S
N304 H311 0.984 . S
N305 C298 1.356 . S
N305 H308 0.984 . S
N305 H309 0.985 . S
H306 N301 0.984 . S
H307 N301 0.985 . S
H308 N305 0.984 . S
H309 N305 0.985 . S
H310 N304 0.984 . S
H311 N304 0.984 . S
H312 N300 0.984 . S
H313 N300 0.985 . S
C314 C315 1.363 . S
C314 C320 1.379 . S
C314 N322 1.356 . S
C315 C314 1.363 . S
C315 C321 1.363 . S
C316 C317 1.363 . S
C316 C321 1.379 . S
C316 N323 1.356 . S
C317 C316 1.363 . S
C317 C320 1.363 . S
N318 C320 1.356 . S
N318 H330 0.984 . S
N318 H331 0.985 . S
N319 C321 1.356 . S
N319 H324 0.984 . S
N319 H325 0.985 . S
C320 C314 1.379 . S
C320 C317 1.363 . S
C320 N318 1.356 . S
C321 C315 1.363 . S
C321 C316 1.379 . S
C321 N319 1.356 . S
N322 C314 1.356 . S
N322 H328 0.984 . S
N322 H329 0.984 . S
N323 C316 1.356 . S
N323 H326 0.984 . S
N323 H327 0.985 . S
H324 N319 0.984 . S
H325 N319 0.985 . S
H326 N323 0.984 . S
H327 N323 0.985 . S
H328 N322 0.984 . S
H329 N322 0.984 . S
H330 N318 0.984 . S
H331 N318 0.985 . S
C332 C333 1.363 . S
C332 C338 1.379 . S
C332 N340 1.356 . S
C333 C332 1.363 . S
C333 C339 1.363 . S
C334 C335 1.363 . S
C334 C339 1.379 . S
C334 N341 1.356 . S
C335 C334 1.363 . S
C335 C338 1.363 . S
N336 C338 1.356 . S
N336 H348 0.984 . S
N336 H349 0.985 . S
N337 C339 1.356 . S
N337 H342 0.984 . S
N337 H343 0.985 . S
C338 C332 1.379 . S
C338 C335 1.363 . S
C338 N336 1.356 . S
C339 C333 1.363 . S
C339 C334 1.379 . S
C339 N337 1.356 . S
N340 C332 1.356 . S
N340 H346 0.984 . S
N340 H347 0.984 . S
N341 C334 1.356 . S
N341 H344 0.984 . S
N341 H345 0.985 . S
H342 N337 0.984 . S
H343 N337 0.985 . S
H344 N341 0.984 . S
H345 N341 0.985 . S
H346 N340 0.984 . S
H347 N340 0.984 . S
H348 N336 0.984 . S
H349 N336 0.985 . S
C350 C351 1.363 . S
C350 C356 1.379 . S
C350 N358 1.356 . S
C351 C350 1.363 . S
C351 C357 1.363 . S
C352 C353 1.363 . S
C352 C357 1.379 . S
C352 N359 1.356 . S
C353 C352 1.363 . S
C353 C356 1.363 . S
N354 C356 1.356 . S
N354 H366 0.984 . S
N354 H367 0.985 . S
N355 C357 1.356 . S
N355 H360 0.984 . S
N355 H361 0.985 . S
C356 C350 1.379 . S
C356 C353 1.363 . S
C356 N354 1.356 . S
C357 C351 1.363 . S
C357 C352 1.379 . S
C357 N355 1.356 . S
N358 C350 1.356 . S
N358 H364 0.984 . S
N358 H365 0.984 . S
N359 C352 1.356 . S
N359 H362 0.984 . S
N359 H363 0.985 . S
H360 N355 0.984 . S
H361 N355 0.985 . S
H362 N359 0.984 . S
H363 N359 0.985 . S
H364 N358 0.984 . S
H365 N358 0.984 . S
H366 N354 0.984 . S
H367 N354 0.985 . S
C368 C369 1.363 . S
C368 C374 1.379 . S
C368 N376 1.356 . S
C369 C368 1.363 . S
C369 C375 1.363 . S
C370 C371 1.363 . S
C370 C375 1.379 . S
C370 N377 1.356 . S
C371 C370 1.363 . S
C371 C374 1.363 . S
N372 C374 1.356 . S
N372 H384 0.984 . S
N372 H385 0.985 . S
N373 C375 1.356 . S
N373 H378 0.984 . S
N373 H379 0.985 . S
C374 C368 1.379 . S
C374 C371 1.363 . S
C374 N372 1.356 . S
C375 C369 1.363 . S
C375 C370 1.379 . S
C375 N373 1.356 . S
N376 C368 1.356 . S
N376 H382 0.984 . S
N376 H383 0.984 . S
N377 C370 1.356 . S
N377 H380 0.984 . S
N377 H381 0.985 . S
H378 N373 0.984 . S
H379 N373 0.985 . S
H380 N377 0.984 . S
H381 N377 0.985 . S
H382 N376 0.984 . S
H383 N376 0.984 . S
H384 N372 0.984 . S
H385 N372 0.985 . S
C386 C387 1.363 . S
C386 C392 1.379 . S
C386 N394 1.356 . S
C387 C386 1.363 . S
C387 C393 1.363 . S
C388 C389 1.363 . S
C388 C393 1.379 . S
C388 N395 1.356 . S
C389 C388 1.363 . S
C389 C392 1.363 . S
N390 C392 1.356 . S
N390 H402 0.984 . S
N390 H403 0.985 . S
N391 C393 1.356 . S
N391 H396 0.984 . S
N391 H397 0.985 . S
C392 C386 1.379 . S
C392 C389 1.363 . S
C392 N390 1.356 . S
C393 C387 1.363 . S
C393 C388 1.379 . S
C393 N391 1.356 . S
N394 C386 1.356 . S
N394 H400 0.984 . S
N394 H401 0.984 . S
N395 C388 1.356 . S
N395 H398 0.984 . S
N395 H399 0.985 . S
H396 N391 0.984 . S
H397 N391 0.985 . S
H398 N395 0.984 . S
H399 N395 0.985 . S
H400 N394 0.984 . S
H401 N394 0.984 . S
H402 N390 0.984 . S
H403 N390 0.985 . S
C404 C405 1.363 . S
C404 C410 1.379 . S
C404 N412 1.356 . S
C405 C404 1.363 . S
C405 C411 1.363 . S
C406 C407 1.363 . S
C406 C411 1.379 . S
C406 N413 1.356 . S
C407 C406 1.363 . S
C407 C410 1.363 . S
N408 C410 1.356 . S
N408 H420 0.984 . S
N408 H421 0.985 . S
N409 C411 1.356 . S
N409 H414 0.984 . S
N409 H415 0.985 . S
C410 C404 1.379 . S
C410 C407 1.363 . S
C410 N408 1.356 . S
C411 C405 1.363 . S
C411 C406 1.379 . S
C411 N409 1.356 . S
N412 C404 1.356 . S
N412 H418 0.984 . S
N412 H419 0.984 . S
N413 C406 1.356 . S
N413 H416 0.984 . S
N413 H417 0.985 . S
H414 N409 0.984 . S
H415 N409 0.985 . S
H416 N413 0.984 . S
H417 N413 0.985 . S
H418 N412 0.984 . S
H419 N412 0.984 . S
H420 N408 0.984 . S
H421 N408 0.985 . S
C422 C423 1.363 . S
C422 C428 1.379 . S
C422 N430 1.356 . S
C423 C422 1.363 . S
C423 C429 1.363 . S
C424 C425 1.363 . S
C424 C429 1.379 . S
C424 N431 1.356 . S
C425 C424 1.363 . S
C425 C428 1.363 . S
N426 C428 1.356 . S
N426 H438 0.984 . S
N426 H439 0.985 . S
N427 C429 1.356 . S
N427 H432 0.984 . S
N427 H433 0.985 . S
C428 C422 1.379 . S
C428 C425 1.363 . S
C428 N426 1.356 . S
C429 C423 1.363 . S
C429 C424 1.379 . S
C429 N427 1.356 . S
N430 C422 1.356 . S
N430 H436 0.984 . S
N430 H437 0.984 . S
N431 C424 1.356 . S
N431 H434 0.984 . S
N431 H435 0.985 . S
H432 N427 0.984 . S
H433 N427 0.985 . S
H434 N431 0.984 . S
H435 N431 0.985 . S
H436 N430 0.984 . S
H437 N430 0.984 . S
H438 N426 0.984 . S
H439 N426 0.985 . S
C440 C441 1.363 . S
C440 C446 1.379 . S
C440 N448 1.356 . S
C441 C440 1.363 . S
C441 C447 1.363 . S
C442 C443 1.363 . S
C442 C447 1.379 . S
C442 N449 1.356 . S
C443 C442 1.363 . S
C443 C446 1.363 . S
N444 C446 1.356 . S
N444 H456 0.984 . S
N444 H457 0.985 . S
N445 C447 1.356 . S
N445 H450 0.984 . S
N445 H451 0.985 . S
C446 C440 1.379 . S
C446 C443 1.363 . S
C446 N444 1.356 . S
C447 C441 1.363 . S
C447 C442 1.379 . S
C447 N445 1.356 . S
N448 C440 1.356 . S
N448 H454 0.984 . S
N448 H455 0.984 . S
N449 C442 1.356 . S
N449 H452 0.984 . S
N449 H453 0.985 . S
H450 N445 0.984 . S
H451 N445 0.985 . S
H452 N449 0.984 . S
H453 N449 0.985 . S
H454 N448 0.984 . S
H455 N448 0.984 . S
H456 N444 0.984 . S
H457 N444 0.985 . S
C458 C459 1.363 . S
C458 C464 1.379 . S
C458 N466 1.356 . S
C459 C458 1.363 . S
C459 C465 1.363 . S
C460 C461 1.363 . S
C460 C465 1.379 . S
C460 N467 1.356 . S
C461 C460 1.363 . S
C461 C464 1.363 . S
N462 C464 1.356 . S
N462 H474 0.984 . S
N462 H475 0.985 . S
N463 C465 1.356 . S
N463 H468 0.984 . S
N463 H469 0.985 . S
C464 C458 1.379 . S
C464 C461 1.363 . S
C464 N462 1.356 . S
C465 C459 1.363 . S
C465 C460 1.379 . S
C465 N463 1.356 . S
N466 C458 1.356 . S
N466 H472 0.984 . S
N466 H473 0.984 . S
N467 C460 1.356 . S
N467 H470 0.984 . S
N467 H471 0.985 . S
H468 N463 0.984 . S
H469 N463 0.985 . S
H470 N467 0.984 . S
H471 N467 0.985 . S
H472 N466 0.984 . S
H473 N466 0.984 . S
H474 N462 0.984 . S
H475 N462 0.985 . S
C476 C477 1.363 . S
C476 C482 1.379 . S
C476 N484 1.356 . S
C477 C476 1.363 . S
C477 C483 1.363 . S
C478 C479 1.363 . S
C478 C483 1.379 . S
C478 N485 1.356 . S
C479 C478 1.363 . S
C479 C482 1.363 . S
N480 C482 1.356 . S
N480 H492 0.984 . S
N480 H493 0.985 . S
N481 C483 1.356 . S
N481 H486 0.984 . S
N481 H487 0.985 . S
C482 C476 1.379 . S
C482 C479 1.363 . S
C482 N480 1.356 . S
C483 C477 1.363 . S
C483 C478 1.379 . S
C483 N481 1.356 . S
N484 C476 1.356 . S
N484 H490 0.984 . S
N484 H491 0.984 . S
N485 C478 1.356 . S
N485 H488 0.984 . S
N485 H489 0.985 . S
H486 N481 0.984 . S
H487 N481 0.985 . S
H488 N485 0.984 . S
H489 N485 0.985 . S
H490 N484 0.984 . S
H491 N484 0.984 . S
H492 N480 0.984 . S
H493 N480 0.985 . S
C494 C495 1.363 . S
C494 C500 1.379 . S
C494 N502 1.356 . S
C495 C494 1.363 . S
C495 C501 1.363 . S
C496 C497 1.363 . S
C496 C501 1.379 . S
C496 N503 1.356 . S
C497 C496 1.363 . S
C497 C500 1.363 . S
N498 C500 1.356 . S
N498 H510 0.984 . S
N498 H511 0.985 . S
N499 C501 1.356 . S
N499 H504 0.984 . S
N499 H505 0.985 . S
C500 C494 1.379 . S
C500 C497 1.363 . S
C500 N498 1.356 . S
C501 C495 1.363 . S
C501 C496 1.379 . S
C501 N499 1.356 . S
N502 C494 1.356 . S
N502 H508 0.984 . S
N502 H509 0.984 . S
N503 C496 1.356 . S
N503 H506 0.984 . S
N503 H507 0.985 . S
H504 N499 0.984 . S
H505 N499 0.985 . S
H506 N503 0.984 . S
H507 N503 0.985 . S
H508 N502 0.984 . S
H509 N502 0.984 . S
H510 N498 0.984 . S
H511 N498 0.985 . S
C512 C513 1.363 . S
C512 C518 1.379 . S
C512 N520 1.356 1_545 S
C513 C512 1.363 . S
C513 C519 1.363 . S
C514 C515 1.363 . S
C514 C519 1.379 . S
C514 N521 1.356 . S
C515 C514 1.363 . S
C515 C518 1.363 . S
N516 C518 1.356 . S
N516 H528 0.984 . S
N516 H529 0.985 . S
N517 C519 1.356 . S
N517 H522 0.984 . S
N517 H523 0.985 . S
C518 C512 1.379 . S
C518 C515 1.363 . S
C518 N516 1.356 . S
C519 C513 1.363 . S
C519 C514 1.379 . S
C519 N517 1.356 . S
N520 C512 1.356 1_565 S
N520 H526 0.984 . S
N520 H527 0.984 . S
N521 C514 1.356 . S
N521 H524 0.984 . S
N521 H525 0.985 . S
H522 N517 0.984 . S
H523 N517 0.985 . S
H524 N521 0.984 . S
H525 N521 0.985 . S
H526 N520 0.984 . S
H527 N520 0.984 . S
H528 N516 0.984 . S
H529 N516 0.985 . S
C530 C531 1.363 . S
C530 C536 1.379 . S
C530 N538 1.356 . S
C531 C530 1.363 . S
C531 C537 1.363 . S
C532 C533 1.363 . S
C532 C537 1.379 . S
C532 N539 1.356 1_455 S
C533 C532 1.363 . S
C533 C536 1.363 . S
N534 C536 1.356 . S
N534 H546 0.984 . S
N534 H547 0.985 . S
N535 C537 1.356 . S
N535 H540 0.984 . S
N535 H541 0.985 . S
C536 C530 1.379 . S
C536 C533 1.363 . S
C536 N534 1.356 . S
C537 C531 1.363 . S
C537 C532 1.379 . S
C537 N535 1.356 . S
N538 C530 1.356 . S
N538 H544 0.984 . S
N538 H545 0.984 . S
N539 C532 1.356 1_655 S
N539 H542 0.984 . S
N539 H543 0.985 . S
H540 N535 0.984 . S
H541 N535 0.985 . S
H542 N539 0.984 . S
H543 N539 0.985 . S
H544 N538 0.984 . S
H545 N538 0.984 . S
H546 N534 0.984 . S
H547 N534 0.985 . S
C548 C549 1.363 . S
C548 C554 1.379 . S
C548 N556 1.356 1_565 S
C549 C548 1.363 . S
C549 C555 1.363 . S
C550 C551 1.363 . S
C550 C555 1.379 . S
C550 N557 1.356 . S
C551 C550 1.363 . S
C551 C554 1.363 . S
N552 C554 1.356 . S
N552 H564 0.984 . S
N552 H565 0.985 . S
N553 C555 1.356 . S
N553 H558 0.984 . S
N553 H559 0.985 . S
C554 C548 1.379 . S
C554 C551 1.363 . S
C554 N552 1.356 . S
C555 C549 1.363 . S
C555 C550 1.379 . S
C555 N553 1.356 . S
N556 C548 1.356 1_545 S
N556 H562 0.984 . S
N556 H563 0.984 . S
N557 C550 1.356 . S
N557 H560 0.984 . S
N557 H561 0.985 . S
H558 N553 0.984 . S
H559 N553 0.985 . S
H560 N557 0.984 . S
H561 N557 0.985 . S
H562 N556 0.984 . S
H563 N556 0.984 . S
H564 N552 0.984 . S
H565 N552 0.985 . S
C566 C567 1.363 . S
C566 C572 1.379 . S
C566 N574 1.356 . S
C567 C566 1.363 . S
C567 C573 1.363 . S
C568 C569 1.363 . S
C568 C573 1.379 . S
C568 N575 1.356 . S
C569 C568 1.363 . S
C569 C572 1.363 . S
N570 C572 1.356 1_455 S
N570 H582 0.984 . S
N570 H583 0.985 . S
N571 C573 1.356 . S
N571 H576 0.984 . S
N571 H577 0.985 . S
C572 C566 1.379 . S
C572 C569 1.363 . S
C572 N570 1.356 1_655 S
C573 C567 1.363 . S
C573 C568 1.379 . S
C573 N571 1.356 . S
N574 C566 1.356 . S
N574 H580 0.984 . S
N574 H581 0.984 . S
N575 C568 1.356 . S
N575 H578 0.984 1_655 S
N575 H579 0.985 . S
H576 N571 0.984 . S
H577 N571 0.985 . S
H578 N575 0.984 1_455 S
H579 N575 0.985 . S
H580 N574 0.984 . S
H581 N574 0.984 . S
H582 N570 0.984 . S
H583 N570 0.985 . S
C584 C585 1.363 . S
C584 C590 1.379 . S
C584 N592 1.356 . S
C585 C584 1.363 . S
C585 C591 1.363 . S
C586 C587 1.363 . S
C586 C591 1.379 . S
C586 N593 1.356 . S
C587 C586 1.363 . S
C587 C590 1.363 . S
N588 C590 1.356 . S
N588 H600 0.984 . S
N588 H601 0.985 . S
N589 C591 1.356 1_545 S
N589 H594 0.984 . S
N589 H595 0.985 . S
C590 C584 1.379 . S
C590 C587 1.363 . S
C590 N588 1.356 . S
C591 C585 1.363 . S
C591 C586 1.379 . S
C591 N589 1.356 1_565 S
N592 C584 1.356 . S
N592 H598 0.984 . S
N592 H599 0.984 1_565 S
N593 C586 1.356 . S
N593 H596 0.984 . S
N593 H597 0.985 . S
H594 N589 0.984 . S
H595 N589 0.985 . S
H596 N593 0.984 . S
H597 N593 0.985 . S
H598 N592 0.984 . S
H599 N592 0.984 1_545 S
H600 N588 0.984 . S
H601 N588 0.985 . S
C602 C603 1.363 . S
C602 C608 1.379 . S
C602 N610 1.356 . S
C603 C602 1.363 . S
C603 C609 1.363 . S
C604 C605 1.363 . S
C604 C609 1.379 . S
C604 N611 1.356 . S
C605 C604 1.363 . S
C605 C608 1.363 . S
N606 C608 1.356 . S
N606 H618 0.984 . S
N606 H619 0.985 1_655 S
N607 C609 1.356 . S
N607 H612 0.984 . S
N607 H613 0.985 . S
C608 C602 1.379 . S
C608 C605 1.363 . S
C608 N606 1.356 . S
C609 C603 1.363 . S
C609 C604 1.379 . S
C609 N607 1.356 . S
N610 C602 1.356 . S
N610 H616 0.984 . S
N610 H617 0.984 . S
N611 C604 1.356 . S
N611 H614 0.984 1_655 S
N611 H615 0.985 . S
H612 N607 0.984 . S
H613 N607 0.985 . S
H614 N611 0.984 1_455 S
H615 N611 0.985 . S
H616 N610 0.984 . S
H617 N610 0.984 . S
H618 N606 0.984 . S
H619 N606 0.985 1_455 S
C620 C621 1.363 . S
C620 C626 1.379 . S
C620 N628 1.356 . S
C621 C620 1.363 . S
C621 C627 1.363 . S
C622 C623 1.363 . S
C622 C627 1.379 . S
C622 N629 1.356 . S
C623 C622 1.363 . S
C623 C626 1.363 . S
N624 C626 1.356 1_565 S
N624 H636 0.984 . S
N624 H637 0.985 . S
N625 C627 1.356 . S
N625 H630 0.984 . S
N625 H631 0.985 . S
C626 C620 1.379 . S
C626 C623 1.363 . S
C626 N624 1.356 1_545 S
C627 C621 1.363 . S
C627 C622 1.379 . S
C627 N625 1.356 . S
N628 C620 1.356 . S
N628 H634 0.984 . S
N628 H635 0.984 . S
N629 C622 1.356 . S
N629 H632 0.984 . S
N629 H633 0.985 . S
H630 N625 0.984 . S
H631 N625 0.985 . S
H632 N629 0.984 . S
H633 N629 0.985 . S
H634 N628 0.984 . S
H635 N628 0.984 . S
H636 N624 0.984 . S
H637 N624 0.985 . S
C638 C639 1.363 . S
C638 C644 1.379 . S
C638 N646 1.356 . S
C639 C638 1.363 . S
C639 C645 1.363 . S
C640 C641 1.363 . S
C640 C645 1.379 . S
C640 N647 1.356 1_455 S
C641 C640 1.363 . S
C641 C644 1.363 . S
N642 C644 1.356 . S
N642 H654 0.984 . S
N642 H655 0.985 . S
N643 C645 1.356 . S
N643 H648 0.984 . S
N643 H649 0.985 . S
C644 C638 1.379 . S
C644 C641 1.363 . S
C644 N642 1.356 . S
C645 C639 1.363 . S
C645 C640 1.379 . S
C645 N643 1.356 . S
N646 C638 1.356 . S
N646 H652 0.984 . S
N646 H653 0.984 . S
N647 C640 1.356 1_655 S
N647 H650 0.984 . S
N647 H651 0.985 . S
H648 N643 0.984 . S
H649 N643 0.985 . S
H650 N647 0.984 . S
H651 N647 0.985 . S
H652 N646 0.984 . S
H653 N646 0.984 . S
H654 N642 0.984 . S
H655 N642 0.985 . S
C656 C657 1.363 . S
C656 C662 1.379 . S
C656 N664 1.356 . S
C657 C656 1.363 . S
C657 C663 1.363 . S
C658 C659 1.363 . S
C658 C663 1.379 . S
C658 N665 1.356 . S
C659 C658 1.363 . S
C659 C662 1.363 . S
N660 C662 1.356 . S
N660 H672 0.984 . S
N660 H673 0.985 . S
N661 C663 1.356 . S
N661 H666 0.984 . S
N661 H667 0.985 . S
C662 C656 1.379 . S
C662 C659 1.363 . S
C662 N660 1.356 . S
C663 C657 1.363 . S
C663 C658 1.379 . S
C663 N661 1.356 . S
N664 C656 1.356 . S
N664 H670 0.984 . S
N664 H671 0.984 . S
N665 C658 1.356 . S
N665 H668 0.984 . S
N665 H669 0.985 . S
H666 N661 0.984 . S
H667 N661 0.985 . S
H668 N665 0.984 . S
H669 N665 0.985 . S
H670 N664 0.984 . S
H671 N664 0.984 . S
H672 N660 0.984 . S
H673 N660 0.985 . S
C674 C675 1.363 . S
C674 C680 1.379 . S
C674 N682 1.356 . S
C675 C674 1.363 . S
C675 C681 1.363 . S
C676 C677 1.363 . S
C676 C681 1.379 . S
C676 N683 1.356 . S
C677 C676 1.363 . S
C677 C680 1.363 . S
N678 C680 1.356 . S
N678 H690 0.984 . S
N678 H691 0.985 . S
N679 C681 1.356 . S
N679 H684 0.984 . S
N679 H685 0.985 . S
C680 C674 1.379 . S
C680 C677 1.363 . S
C680 N678 1.356 . S
C681 C675 1.363 . S
C681 C676 1.379 . S
C681 N679 1.356 . S
N682 C674 1.356 . S
N682 H688 0.984 . S
N682 H689 0.984 . S
N683 C676 1.356 . S
N683 H686 0.984 . S
N683 H687 0.985 . S
H684 N679 0.984 . S
H685 N679 0.985 . S
H686 N683 0.984 . S
H687 N683 0.985 . S
H688 N682 0.984 . S
H689 N682 0.984 . S
H690 N678 0.984 . S
H691 N678 0.985 . S
C692 C693 1.363 . S
C692 C698 1.379 . S
C692 N700 1.356 . S
C693 C692 1.363 . S
C693 C699 1.363 . S
C694 C695 1.363 . S
C694 C699 1.379 . S
C694 N701 1.356 . S
C695 C694 1.363 . S
C695 C698 1.363 . S
N696 C698 1.356 . S
N696 H708 0.984 . S
N696 H709 0.985 . S
N697 C699 1.356 . S
N697 H702 0.984 . S
N697 H703 0.985 . S
C698 C692 1.379 . S
C698 C695 1.363 . S
C698 N696 1.356 . S
C699 C693 1.363 . S
C699 C694 1.379 . S
C699 N697 1.356 . S
N700 C692 1.356 . S
N700 H706 0.984 . S
N700 H707 0.984 . S
N701 C694 1.356 . S
N701 H704 0.984 . S
N701 H705 0.985 . S
H702 N697 0.984 . S
H703 N697 0.985 . S
H704 N701 0.984 . S
H705 N701 0.985 . S
H706 N700 0.984 . S
H707 N700 0.984 . S
H708 N696 0.984 . S
H709 N696 0.985 . S
C710 C711 1.363 . S
C710 C716 1.379 . S
C710 N718 1.356 . S
C711 C710 1.363 . S
C711 C717 1.363 . S
C712 C713 1.363 . S
C712 C717 1.379 . S
C712 N719 1.356 . S
C713 C712 1.363 . S
C713 C716 1.363 . S
N714 C716 1.356 . S
N714 H726 0.984 . S
N714 H727 0.985 . S
N715 C717 1.356 . S
N715 H720 0.984 . S
N715 H721 0.985 . S
C716 C710 1.379 . S
C716 C713 1.363 . S
C716 N714 1.356 . S
C717 C711 1.363 . S
C717 C712 1.379 . S
C717 N715 1.356 . S
N718 C710 1.356 . S
N718 H724 0.984 . S
N718 H725 0.984 . S
N719 C712 1.356 . S
N719 H722 0.984 . S
N719 H723 0.985 . S
H720 N715 0.984 . S
H721 N715 0.985 . S
H722 N719 0.984 . S
H723 N719 0.985 . S
H724 N718 0.984 . S
H725 N718 0.984 . S
H726 N714 0.984 . S
H727 N714 0.985 . S
C728 C729 1.363 . S
C728 C734 1.379 1_554 S
C728 N736 1.356 . S
C729 C728 1.363 . S
C729 C735 1.363 1_545 S
C730 C731 1.363 . S
C730 C735 1.379 1_556 S
C730 N737 1.356 . S
C731 C730 1.363 . S
C731 C734 1.363 1_565 S
N732 C734 1.356 . S
N732 H744 0.984 . S
N732 H745 0.985 1_545 S
N733 C735 1.356 . S
N733 H738 0.984 1_565 S
N733 H739 0.985 . S
C734 C728 1.379 1_556 S
C734 C731 1.363 1_545 S
C734 N732 1.356 . S
C735 C729 1.363 1_565 S
C735 C730 1.379 1_554 S
C735 N733 1.356 . S
N736 C728 1.356 . S
N736 H742 0.984 1_554 S
N736 H743 0.984 . S
N737 C730 1.356 . S
N737 H740 0.984 . S
N737 H741 0.985 1_556 S
H738 N733 0.984 1_545 S
H739 N733 0.985 . S
H740 N737 0.984 . S
H741 N737 0.985 1_554 S
H742 N736 0.984 1_556 S
H743 N736 0.984 . S
H744 N732 0.984 . S
H745 N732 0.985 1_565 S
C746 C747 1.363 1_655 S
C746 C752 1.379 1_556 S
C746 N754 1.356 . S
C747 C746 1.363 1_455 S
C747 C753 1.363 . S
C748 C749 1.363 1_455 S
C748 C753 1.379 1_554 S
C748 N755 1.356 . S
C749 C748 1.363 1_655 S
C749 C752 1.363 . S
N750 C752 1.356 . S
N750 H762 0.984 . S
N750 H763 0.985 . S
N751 C753 1.356 . S
N751 H756 0.984 . S
N751 H757 0.985 . S
C752 C746 1.379 1_554 S
C752 C749 1.363 . S
C752 N750 1.356 . S
C753 C747 1.363 . S
C753 C748 1.379 1_556 S
C753 N751 1.356 . S
N754 C746 1.356 . S
N754 H760 0.984 . S
N754 H761 0.984 1_655 S
N755 C748 1.356 . S
N755 H758 0.984 1_455 S
N755 H759 0.985 . S
H756 N751 0.984 . S
H757 N751 0.985 . S
H758 N755 0.984 1_655 S
H759 N755 0.985 . S
H760 N754 0.984 . S
H761 N754 0.984 1_455 S
H762 N750 0.984 . S
H763 N750 0.985 . S
C764 C765 1.363 . S
C764 C770 1.379 1_556 S
C764 N772 1.356 . S
C765 C764 1.363 . S
C765 C771 1.363 1_545 S
C766 C767 1.363 . S
C766 C771 1.379 1_554 S
C766 N773 1.356 . S
C767 C766 1.363 . S
C767 C770 1.363 1_565 S
N768 C770 1.356 . S
N768 H780 0.984 . S
N768 H781 0.985 1_545 S
N769 C771 1.356 . S
N769 H774 0.984 1_565 S
N769 H775 0.985 . S
C770 C764 1.379 1_554 S
C770 C767 1.363 1_545 S
C770 N768 1.356 . S
C771 C765 1.363 1_565 S
C771 C766 1.379 1_556 S
C771 N769 1.356 . S
N772 C764 1.356 . S
N772 H778 0.984 . S
N772 H779 0.984 . S
N773 C766 1.356 . S
N773 H776 0.984 . S
N773 H777 0.985 . S
H774 N769 0.984 1_545 S
H775 N769 0.985 . S
H776 N773 0.984 . S
H777 N773 0.985 . S
H778 N772 0.984 . S
H779 N772 0.984 . S
H780 N768 0.984 . S
H781 N768 0.985 1_565 S
C782 C783 1.363 1_455 S
C782 C788 1.379 1_556 S
C782 N790 1.356 . S
C783 C782 1.363 1_655 S
C783 C789 1.363 . S
C784 C785 1.363 1_655 S
C784 C789 1.379 1_554 S
C784 N791 1.356 . S
C785 C784 1.363 1_455 S
C785 C788 1.363 . S
N786 C788 1.356 . S
N786 H798 0.984 . S
N786 H799 0.985 . S
N787 C789 1.356 . S
N787 H792 0.984 . S
N787 H793 0.985 . S
C788 C782 1.379 1_554 S
C788 C785 1.363 . S
C788 N786 1.356 . S
C789 C783 1.363 . S
C789 C784 1.379 1_556 S
C789 N787 1.356 . S
N790 C782 1.356 . S
N790 H796 0.984 . S
N790 H797 0.984 1_455 S
N791 C784 1.356 . S
N791 H794 0.984 1_655 S
N791 H795 0.985 . S
H792 N787 0.984 . S
H793 N787 0.985 . S
H794 N791 0.984 1_455 S
H795 N791 0.985 . S
H796 N790 0.984 . S
H797 N790 0.984 1_655 S
H798 N786 0.984 . S
H799 N786 0.985 . S
C225 C11 1.322 . S
C227 C109 1.322 . S
C243 C25 1.322 . S
C245 C67 1.322 . S
C261 C81 1.322 . S
C263 C39 1.322 . S
C279 C53 1.322 . S
C281 C95 1.322 . S
C297 C123 1.322 . S
C299 C221 1.322 . S
C315 C179 1.322 . S
C317 C137 1.322 . S
C333 C193 1.322 . S
C335 C151 1.322 . S
C351 C207 1.322 . S
C353 C165 1.322 . S
C369 C8 1.164 . S
C371 C161 1.237 . S
C387 C22 1.164 . S
C389 C119 1.237 . S
C405 C133 1.237 . S
C407 C36 1.164 . S
C423 C50 1.164 . S
C425 C147 1.237 . S
C441 C64 1.164 . S
C443 C189 1.237 . S
C459 C203 1.237 . S
C461 C78 1.164 . S
C477 C92 1.164 . S
C479 C217 1.237 . S
C495 C175 1.237 . S
C497 C106 1.164 . S
C513 C120 1.164 1_545 S
C515 C49 1.237 . S
C531 C7 1.237 . S
C533 C134 1.164 1_455 S
C549 C148 1.164 1_565 S
C551 C21 1.237 . S
C567 C35 1.237 . S
C569 C162 1.164 1_655 S
C585 C176 1.164 1_565 S
C587 C77 1.237 . S
C603 C91 1.237 . S
C605 C190 1.164 1_655 S
C621 C105 1.237 . S
C623 C204 1.164 1_545 S
C639 C63 1.237 . S
C641 C218 1.164 1_455 S
C657 C69 1.461 . S
C659 C13 1.461 . S
C675 C83 1.461 . S
C677 C27 1.461 . S
C693 C41 1.461 . S
C695 C97 1.461 . S
C711 C111 1.461 . S
C713 C55 1.461 . S
C729 C181 1.461 . S
C731 C125 1.461 . S
C747 C195 1.461 . S
C749 C139 1.461 . S
C765 C153 1.461 . S
C767 C209 1.461 . S
C783 C223 1.461 . S
C785 C167 1.461 . S
