# Generated by pormake.
# Topology umb, (4)-cn, num edge types: 1
# Building blocks:
#     Node 0, Type 0, BuildingBlock: KUFVIS_clean_sbu_0, # of connection points: 4
#     Node 1, Type 0, BuildingBlock: KUFVIS_clean_sbu_0, # of connection points: 4
#     Node 2, Type 0, BuildingBlock: KUFVIS_clean_sbu_0, # of connection points: 4
#     Node 3, Type 0, BuildingBlock: KUFVIS_clean_sbu_0, # of connection points: 4
#     Node 4, Type 0, BuildingBlock: KUFVIS_clean_sbu_0, # of connection points: 4
#     Node 5, Type 0, BuildingBlock: KUFVIS_clean_sbu_0, # of connection points: 4
#     Node 6, Type 0, BuildingBlock: KUFVIS_clean_sbu_0, # of connection points: 4
#     Node 7, Type 0, BuildingBlock: KUFVIS_clean_sbu_0, # of connection points: 4
#     Node 8, Type 0, BuildingBlock: KUFVIS_clean_sbu_0, # of connection points: 4
#     Node 9, Type 0, BuildingBlock: KUFVIS_clean_sbu_0, # of connection points: 4
#     Node 10, Type 0, BuildingBlock: KUFVIS_clean_sbu_0, # of connection points: 4
#     Node 11, Type 0, BuildingBlock: KUFVIS_clean_sbu_0, # of connection points: 4
#     Edge 12, Type (0, 0), BuildingBlock: KIFKEQ_clean_linker_1, # of connection points: 2
#     Edge 13, Type (0, 0), BuildingBlock: KIFKEQ_clean_linker_1, # of connection points: 2
#     Edge 14, Type (0, 0), BuildingBlock: KIFKEQ_clean_linker_1, # of connection points: 2
#     Edge 15, Type (0, 0), BuildingBlock: KIFKEQ_clean_linker_1, # of connection points: 2
#     Edge 16, Type (0, 0), BuildingBlock: KIFKEQ_clean_linker_1, # of connection points: 2
#     Edge 17, Type (0, 0), BuildingBlock: KIFKEQ_clean_linker_1, # of connection points: 2
#     Edge 18, Type (0, 0), BuildingBlock: KIFKEQ_clean_linker_1, # of connection points: 2
#     Edge 19, Type (0, 0), BuildingBlock: KIFKEQ_clean_linker_1, # of connection points: 2
#     Edge 20, Type (0, 0), BuildingBlock: KIFKEQ_clean_linker_1, # of connection points: 2
#     Edge 21, Type (0, 0), BuildingBlock: KIFKEQ_clean_linker_1, # of connection points: 2
#     Edge 22, Type (0, 0), BuildingBlock: KIFKEQ_clean_linker_1, # of connection points: 2
#     Edge 23, Type (0, 0), BuildingBlock: KIFKEQ_clean_linker_1, # of connection points: 2
#     Edge 24, Type (0, 0), BuildingBlock: KIFKEQ_clean_linker_1, # of connection points: 2
#     Edge 25, Type (0, 0), BuildingBlock: KIFKEQ_clean_linker_1, # of connection points: 2
#     Edge 26, Type (0, 0), BuildingBlock: KIFKEQ_clean_linker_1, # of connection points: 2
#     Edge 27, Type (0, 0), BuildingBlock: KIFKEQ_clean_linker_1, # of connection points: 2
#     Edge 28, Type (0, 0), BuildingBlock: KIFKEQ_clean_linker_1, # of connection points: 2
#     Edge 29, Type (0, 0), BuildingBlock: KIFKEQ_clean_linker_1, # of connection points: 2
#     Edge 30, Type (0, 0), BuildingBlock: KIFKEQ_clean_linker_1, # of connection points: 2
#     Edge 31, Type (0, 0), BuildingBlock: KIFKEQ_clean_linker_1, # of connection points: 2
#     Edge 32, Type (0, 0), BuildingBlock: KIFKEQ_clean_linker_1, # of connection points: 2
#     Edge 33, Type (0, 0), BuildingBlock: KIFKEQ_clean_linker_1, # of connection points: 2
#     Edge 34, Type (0, 0), BuildingBlock: KIFKEQ_clean_linker_1, # of connection points: 2
#     Edge 35, Type (0, 0), BuildingBlock: KIFKEQ_clean_linker_1, # of connection points: 2
# Relax obj value: 0.255
# Max RMSD: 0.280
# Mean RMSD: 0.280
data_MOF--net-umb--node1-KUFVIS_clean_sbu_0--edge1-KIFKEQ_clean_linker_1
_symmetry_space_group_name_H-M    P1
_symmetry_Int_Tables_number       1
_symmetry_cell_setting            triclinic
loop_
_symmetry_equiv_pos_as_xyz
'x, y, z'
_cell_length_a     48.047362
_cell_length_b     47.95907
_cell_length_c     37.38924
_cell_angle_alpha  89.983744
_cell_angle_beta   90.053851
_cell_angle_gamma 119.25616
loop_
_atom_site_label
_atom_site_type_symbol
_atom_site_fract_x
_atom_site_fract_y
_atom_site_fract_z
_atom_type_partial_charge
Mn0 Mn 0.50463 0.14071 0.34934 0.0
Mn1 Mn 0.55896 0.11612 0.36023 0.0
C2 C 0.55529 0.1766 0.36754 0.0
C3 C 0.4804 0.15845 0.30676 0.0
C4 C 0.509 0.10599 0.41621 0.0
O5 O 0.4833 0.09642 0.32717 0.0
O6 O 0.52476 0.08702 0.32766 0.0
C7 C 0.58378 0.12734 0.28612 0.0
N8 N 0.58906 0.13186 0.32198 0.0
C9 C 0.64588 0.1598 0.3134 0.0
C10 C 0.64111 0.15524 0.27638 0.0
C11 C 0.60991 0.13919 0.26266 0.0
C12 C 0.61892 0.14814 0.33536 0.0
H13 H 0.55982 0.11474 0.27554 0.0
C14 C 0.49675 0.08037 0.3178 0.0
O15 O 0.46659 0.14658 0.33726 0.0
O16 O 0.50748 0.15965 0.30138 0.0
N17 N 0.59433 0.14196 0.39067 0.0
C18 C 0.59481 0.14507 0.42693 0.0
C19 C 0.62415 0.16014 0.44499 0.0
C20 C 0.65266 0.17121 0.42571 0.0
C21 C 0.65167 0.16803 0.38835 0.0
C22 C 0.62172 0.15298 0.37182 0.0
H23 H 0.57302 0.1356 0.44212 0.0
O24 O 0.53253 0.18363 0.36993 0.0
O25 O 0.54836 0.14988 0.35185 0.0
O26 O 0.49697 0.1217 0.4008 0.0
O27 O 0.52945 0.09989 0.40141 0.0
C28 C 0.67915 0.17869 0.36691 0.0
C29 C 0.67629 0.17515 0.32943 0.0
H30 H 0.66122 0.16397 0.25826 0.0
H31 H 0.60601 0.13569 0.23412 0.0
H32 H 0.62475 0.16256 0.4738 0.0
H33 H 0.67517 0.18199 0.43994 0.0
H34 H 0.70268 0.18985 0.3789 0.0
H35 H 0.69762 0.18402 0.31322 0.0
Mn36 Mn 0.32877 0.50909 0.69635 0.0
Mn37 Mn 0.39599 0.57909 0.70898 0.0
C38 C 0.32517 0.5542 0.70911 0.0
C39 C 0.29263 0.47581 0.65217 0.0
C40 C 0.36812 0.52697 0.76553 0.0
O41 O 0.36392 0.50051 0.6781 0.0
O42 O 0.40547 0.55047 0.68015 0.0
C43 C 0.4051 0.60067 0.63369 0.0
N44 N 0.40188 0.60597 0.66885 0.0
C45 C 0.4038 0.6558 0.65522 0.0
C46 C 0.4074 0.65109 0.61888 0.0
C47 C 0.40809 0.62339 0.60808 0.0
C48 C 0.40119 0.63249 0.67954 0.0
H49 H 0.4051 0.57914 0.62522 0.0
C50 C 0.39282 0.52111 0.67117 0.0
O51 O 0.29374 0.46432 0.68339 0.0
O52 O 0.31259 0.50554 0.64688 0.0
N53 N 0.39066 0.60973 0.73637 0.0
C54 C 0.38644 0.6104 0.77234 0.0
C55 C 0.38678 0.63724 0.78776 0.0
C56 C 0.39132 0.66299 0.76602 0.0
C57 C 0.39517 0.66151 0.72904 0.0
C58 C 0.39593 0.63478 0.71541 0.0
H59 H 0.38333 0.59087 0.78927 0.0
O60 O 0.30036 0.52623 0.71255 0.0
O61 O 0.35084 0.55472 0.69746 0.0
O62 O 0.34202 0.50774 0.74925 0.0
O63 O 0.39035 0.55256 0.7516 0.0
C64 C 0.39751 0.6851 0.70503 0.0
C65 C 0.40148 0.68211 0.66812 0.0
H66 H 0.40933 0.6684 0.59904 0.0
H67 H 0.41061 0.61942 0.58006 0.0
H68 H 0.3837 0.63815 0.81633 0.0
H69 H 0.39194 0.68381 0.77804 0.0
H70 H 0.39518 0.7051 0.71463 0.0
H71 H 0.40203 0.69973 0.64973 0.0
Mn72 Mn 0.7904 0.33781 1.01159 0.0
Mn73 Mn 0.81277 0.41609 1.0219 0.0
C74 C 0.75249 0.35295 1.02087 0.0
C75 C 0.77622 0.29604 0.96986 0.0
C76 C 0.8166 0.37511 0.08175 0.0
O77 O 0.83709 0.36035 0.99628 0.0
O78 O 0.84585 0.41099 0.99678 0.0
C79 C 0.81211 0.43155 0.94536 0.0
N80 N 0.80243 0.43143 0.97961 0.0
C81 C 0.77346 0.4583 0.96209 0.0
C82 C 0.78342 0.45907 0.92669 0.0
C83 C 0.80267 0.44545 0.91826 0.0
C84 C 0.78343 0.4439 0.98791 0.0
H85 H 0.82687 0.42108 0.9388 0.0
C86 C 0.85394 0.39002 0.98922 0.0
O87 O 0.78509 0.2938 1.00217 0.0
O88 O 0.77691 0.32253 0.96188 0.0
N89 N 0.78296 0.42533 1.04558 0.0
C90 C 0.77482 0.42197 0.08086 0.0
C91 C 0.75502 0.4337 0.09356 0.0
C92 C 0.74448 0.44946 0.0701 0.0
C93 C 0.75386 0.4534 1.03411 0.0
C94 C 0.77347 0.44107 1.02295 0.0
H95 H 0.78324 0.41035 0.09919 0.0
O96 O 0.74537 0.32339 1.02482 0.0
O97 O 0.781 0.37253 1.00964 0.0
O98 O 0.80339 0.34803 0.06531 0.0
O99 O 0.82319 0.40166 0.06687 0.0
C100 C 0.7445 0.46899 1.0088 0.0
C101 C 0.75397 0.47114 0.97277 0.0
H102 H 0.77626 0.46988 0.90574 0.0
H103 H 0.81028 0.44575 0.89096 0.0
H104 H 0.74805 0.43075 0.12141 0.0
H105 H 0.72924 0.45843 0.0801 0.0
H106 H 0.73007 0.47948 1.01664 0.0
H107 H 0.74617 0.48278 0.95353 0.0
Mn108 Mn 0.3975 0.80419 0.35483 0.0
Mn109 Mn 0.33821 0.82154 0.36932 0.0
C110 C 0.34959 0.76575 0.377 0.0
C111 C 0.42295 0.78777 0.3125 0.0
C112 C 0.3933 0.83976 0.42092 0.0
O113 O 0.41291 0.84681 0.32976 0.0
O114 O 0.36868 0.85156 0.33412 0.0
C115 C 0.30826 0.80578 0.29758 0.0
N116 N 0.30582 0.80181 0.33373 0.0
C117 C 0.24901 0.76768 0.32993 0.0
C118 C 0.25084 0.77153 0.29267 0.0
C119 C 0.28063 0.79048 0.27641 0.0
C120 C 0.2774 0.78309 0.34956 0.0
H121 H 0.33108 0.82059 0.28505 0.0
C122 C 0.39653 0.86031 0.32176 0.0
O123 O 0.43757 0.80262 0.34161 0.0
O124 O 0.39438 0.78324 0.30797 0.0
N125 N 0.30628 0.79415 0.40262 0.0
C126 C 0.30877 0.79176 0.43868 0.0
C127 C 0.28122 0.7731 0.4589 0.0
C128 C 0.25131 0.75771 0.44202 0.0
C129 C 0.24927 0.76069 0.40493 0.0
C130 C 0.27759 0.77929 0.3861 0.0
H131 H 0.33152 0.80411 0.45201 0.0
O132 O 0.37449 0.76197 0.3786 0.0
O133 O 0.35282 0.79079 0.36012 0.0
O134 O 0.4067 0.82574 0.40487 0.0
O135 O 0.36985 0.84201 0.40792 0.0
C136 C 0.22025 0.74618 0.38592 0.0
C137 C 0.22014 0.74925 0.34839 0.0
H138 H 0.22955 0.75998 0.27629 0.0
H139 H 0.28226 0.7935 0.24767 0.0
H140 H 0.28298 0.77099 0.48753 0.0
H141 H 0.23011 0.74389 0.4579 0.0
H142 H 0.19785 0.73228 0.3998 0.0
H143 H 0.19772 0.73738 0.33402 0.0
Mn144 Mn 0.59765 0.43602 0.67513 0.0
Mn145 Mn 0.52178 0.37581 0.68103 0.0
C146 C 0.58826 0.38456 0.68235 0.0
C147 C 0.63923 0.46721 0.63478 0.0
C148 C 0.55699 0.41999 0.74328 0.0
O149 O 0.5712 0.45672 0.65968 0.0
O150 O 0.52302 0.41259 0.65626 0.0
C151 C 0.51107 0.36131 0.60369 0.0
N152 N 0.51092 0.35144 0.63789 0.0
C153 C 0.49377 0.29772 0.61835 0.0
C154 C 0.4933 0.30716 0.58296 0.0
C155 C 0.50208 0.33913 0.5756 0.0
C156 C 0.50279 0.32085 0.64526 0.0
H157 H 0.51819 0.38595 0.59788 0.0
C158 C 0.54179 0.4423 0.65084 0.0
O159 O 0.63958 0.477 0.66737 0.0
O160 O 0.61469 0.44059 0.62589 0.0
N161 N 0.51635 0.33796 0.70418 0.0
C162 C 0.51865 0.33284 0.73967 0.0
C163 C 0.51073 0.30206 0.75152 0.0
C164 C 0.50026 0.27687 0.72685 0.0
C165 C 0.49753 0.28264 0.6906 0.0
C166 C 0.50515 0.31361 0.68046 0.0
H167 H 0.52648 0.35204 0.75883 0.0
O168 O 0.61645 0.40842 0.68799 0.0
O169 O 0.56678 0.39147 0.67115 0.0
O170 O 0.58466 0.43583 0.72851 0.0
O171 O 0.532 0.39942 0.72672 0.0
C172 C 0.48837 0.25907 0.66399 0.0
C173 C 0.48644 0.26649 0.62791 0.0
H174 H 0.48659 0.29016 0.56121 0.0
H175 H 0.50207 0.3467 0.54833 0.0
H176 H 0.51282 0.2978 0.77957 0.0
H177 H 0.49455 0.25326 0.736 0.0
H178 H 0.48372 0.23548 0.67093 0.0
H179 H 0.47974 0.24811 0.60772 0.0
Mn180 Mn 0.13265 0.60718 1.02119 0.0
Mn181 Mn 0.11142 0.52902 1.03174 0.0
C182 C 0.1713 0.59264 1.02652 0.0
C183 C 0.14414 0.64866 0.97997 0.0
C184 C 0.11158 0.5709 0.09276 0.0
O185 O 0.0852 0.58419 1.00924 0.0
O186 O 0.07665 0.53358 1.01012 0.0
C187 C 0.107 0.5124 0.95492 0.0
N188 N 0.11913 0.51325 0.98809 0.0
C189 C 0.14809 0.48751 0.96671 0.0
C190 C 0.1357 0.48609 0.93237 0.0
C191 C 0.11518 0.49873 0.92643 0.0
C192 C 0.13926 0.50161 0.99398 0.0
H193 H 0.09124 0.5221 0.95025 0.0
C194 C 0.06802 0.55432 1.00358 0.0
O195 O 0.13704 0.65092 1.01306 0.0
O196 O 0.14303 0.62217 0.97094 0.0
N197 N 0.14275 0.52015 0.05225 0.0
C198 C 0.15229 0.52295 0.08703 0.0
C199 C 0.17306 0.51165 0.09744 0.0
C200 C 0.18308 0.49676 0.07224 0.0
C201 C 0.17197 0.49297 1.03692 0.0
C202 C 0.15134 0.50477 1.02811 0.0
H203 H 0.14416 0.5337 0.10673 0.0
O204 O 0.17837 0.62217 1.03061 0.0
O205 O 0.14218 0.57257 1.01752 0.0
O206 O 0.1233 0.59761 0.07569 0.0
O207 O 0.10403 0.54407 0.07801 0.0
C208 C 0.18065 0.47809 1.01006 0.0
C209 C 0.16894 0.47558 0.97492 0.0
H210 H 0.14189 0.47548 0.91035 0.0
H211 H 0.10563 0.49788 0.89997 0.0
H212 H 0.18122 0.51432 0.12486 0.0
H213 H 0.19922 0.4883 0.08043 0.0
H214 H 0.19632 0.46853 1.01608 0.0
H215 H 0.17607 0.46437 0.95445 0.0
Mn216 Mn 0.79373 0.43305 0.41476 0.0
Mn217 Mn 0.80492 0.36926 0.4051 0.0
C218 C 0.75035 0.38315 0.40661 0.0
C219 C 0.78572 0.46513 0.45696 0.0
C220 C 0.81613 0.41653 0.34513 0.0
O221 O 0.84027 0.45016 0.42945 0.0
O222 O 0.84091 0.4035 0.43104 0.0
C223 C 0.80019 0.35151 0.48156 0.0
N224 N 0.79045 0.34339 0.44706 0.0
C225 C 0.75255 0.2897 0.46422 0.0
C226 C 0.76244 0.29733 0.49987 0.0
C227 C 0.78632 0.32841 0.50858 0.0
C228 C 0.76735 0.31368 0.43842 0.0
H229 H 0.81826 0.37547 0.48841 0.0
C230 C 0.85331 0.43331 0.43747 0.0
O231 O 0.79521 0.47544 0.42459 0.0
O232 O 0.7824 0.43748 0.46465 0.0
N233 N 0.77168 0.33353 0.3806 0.0
C234 C 0.76436 0.3302 0.34506 0.0
C235 C 0.74106 0.30044 0.33188 0.0
C236 C 0.72572 0.27441 0.35531 0.0
C237 C 0.73391 0.27839 0.39166 0.0
C238 C 0.75781 0.30834 0.4031 0.0
H239 H 0.77626 0.35 0.32682 0.0
O240 O 0.7475 0.4084 0.40224 0.0
O241 O 0.77803 0.3878 0.41696 0.0
O242 O 0.80554 0.43331 0.36102 0.0
O243 O 0.81935 0.3944 0.36047 0.0
C244 C 0.71872 0.25403 0.41717 0.0
C245 C 0.72798 0.25954 0.45339 0.0
H246 H 0.75161 0.27962 0.52081 0.0
H247 H 0.7939 0.33459 0.53608 0.0
H248 H 0.73494 0.29757 0.30376 0.0
H249 H 0.7077 0.25149 0.34513 0.0
H250 H 0.69916 0.2314 0.40929 0.0
H251 H 0.7157 0.2406 0.47274 0.0
Mn252 Mn 0.3285 0.80616 0.75067 0.0
Mn253 Mn 0.40214 0.819 0.73097 0.0
C254 C 0.3348 0.76511 0.72709 0.0
C255 C 0.29009 0.79221 0.79633 0.0
C256 C 0.36488 0.84059 0.68343 0.0
O257 O 0.35798 0.84891 0.77455 0.0
O258 O 0.40449 0.84884 0.76845 0.0
C259 C 0.41871 0.80002 0.79968 0.0
N260 N 0.41584 0.79748 0.76345 0.0
C261 C 0.44465 0.76833 0.76082 0.0
C262 C 0.44781 0.77039 0.79817 0.0
C263 C 0.43438 0.78594 0.81773 0.0
C264 C 0.42727 0.78126 0.7446 0.0
H265 H 0.40948 0.81305 0.81454 0.0
C266 C 0.38749 0.85997 0.78177 0.0
O267 O 0.2889 0.80705 0.76769 0.0
O268 O 0.31347 0.78624 0.79839 0.0
N269 N 0.40458 0.79188 0.69509 0.0
C270 C 0.39837 0.79096 0.65942 0.0
C271 C 0.41062 0.77685 0.63587 0.0
C272 C 0.43001 0.76481 0.64908 0.0
C273 C 0.43579 0.76566 0.68594 0.0
C274 C 0.42199 0.77899 0.70822 0.0
H275 H 0.38499 0.80169 0.64882 0.0
O276 O 0.30704 0.76342 0.7274 0.0
O277 O 0.35767 0.78992 0.74256 0.0
O278 O 0.33828 0.82702 0.70038 0.0
O279 O 0.39044 0.84177 0.69512 0.0
C280 C 0.45515 0.75431 0.70142 0.0
C281 C 0.45888 0.75487 0.73893 0.0
H282 H 0.46073 0.76042 0.81205 0.0
H283 H 0.43685 0.78778 0.84654 0.0
H284 H 0.406 0.77624 0.60746 0.0
H285 H 0.44029 0.7549 0.63068 0.0
H286 H 0.46642 0.74416 0.68483 0.0
H287 H 0.47299 0.74518 0.75061 0.0
Mn288 Mn 0.50211 0.34246 0.07632 0.0
Mn289 Mn 0.55554 0.42056 0.06328 0.0
C290 C 0.55425 0.3574 0.06401 0.0
C291 C 0.47684 0.30179 0.11957 0.0
C292 C 0.50963 0.37837 1.00566 0.0
O293 O 0.47829 0.36528 0.09347 0.0
O294 O 0.51867 0.41602 0.09067 0.0
C295 C 0.57474 0.43775 0.13884 0.0
N296 N 0.58273 0.43678 0.10411 0.0
C297 C 0.63863 0.46401 0.11852 0.0
C298 C 0.63103 0.46562 0.15439 0.0
C299 C 0.59892 0.45224 0.16463 0.0
C300 C 0.61349 0.44902 0.09409 0.0
H301 H 0.55012 0.42752 0.14679 0.0
C302 C 0.49061 0.39504 0.09996 0.0
O303 O 0.46462 0.29885 0.08776 0.0
O304 O 0.50269 0.32814 0.12602 0.0
N305 N 0.59328 0.42921 1.03747 0.0
C306 C 0.59657 0.42494 1.00199 0.0
C307 C 0.62718 0.43632 0.98758 0.0
C308 C 0.65412 0.45268 1.00953 0.0
C309 C 0.65021 0.45744 1.04579 0.0
C310 C 0.6191 0.44538 0.0587 0.0
H311 H 0.57604 0.41291 0.98479 0.0
O312 O 0.53239 0.32774 0.06129 0.0
O313 O 0.54541 0.37721 0.07598 0.0
O314 O 0.497 0.35165 1.02279 0.0
O315 O 0.52917 0.40526 1.0197 0.0
C316 C 0.6759 0.47369 0.06966 0.0
C317 C 0.67013 0.47664 0.10605 0.0
H318 H 0.64965 0.47691 0.17431 0.0
H319 H 0.59282 0.4532 0.19229 0.0
H320 H 0.63003 0.43272 0.95954 0.0
H321 H 0.67761 0.46153 0.99813 0.0
H322 H 0.70021 0.48412 0.06044 0.0
H323 H 0.69012 0.48875 0.1242 0.0
Mn324 Mn 0.13774 0.49544 0.4222 0.0
Mn325 Mn 0.11282 0.55014 0.41223 0.0
C326 C 0.1745 0.54895 0.42067 0.0
C327 C 0.14946 0.46532 0.46351 0.0
C328 C 0.11956 0.5133 0.34979 0.0
O329 O 0.08992 0.46892 0.43094 0.0
O330 O 0.07793 0.50877 0.42803 0.0
C331 C 0.10065 0.5546 0.48907 0.0
N332 N 0.11512 0.56906 0.45787 0.0
C333 C 0.13935 0.62096 0.48549 0.0
C334 C 0.12449 0.60667 0.51785 0.0
C335 C 0.10516 0.57332 0.51968 0.0
C336 C 0.13415 0.60104 0.45597 0.0
H337 H 0.08585 0.52899 0.49061 0.0
C338 C 0.07061 0.47981 0.43377 0.0
O339 O 0.14453 0.45727 0.42988 0.0
O340 O 0.14629 0.48951 0.47279 0.0
N341 N 0.1436 0.59214 0.39714 0.0
C342 C 0.15511 0.60231 0.36356 0.0
C343 C 0.1746 0.63506 0.35701 0.0
C344 C 0.18131 0.65709 0.38479 0.0
C345 C 0.16803 0.64626 0.41873 0.0
C346 C 0.14869 0.61332 0.4236 0.0
H347 H 0.14934 0.58562 0.34189 0.0
O348 O 0.18335 0.52772 0.41595 0.0
O349 O 0.14458 0.53845 0.42781 0.0
O350 O 0.13029 0.4973 0.36722 0.0
O351 O 0.11124 0.53223 0.36439 0.0
C352 C 0.17336 0.66678 0.44796 0.0
C353 C 0.15921 0.65415 0.48138 0.0
H354 H 0.12786 0.62105 0.54148 0.0
H355 H 0.09373 0.56207 0.54459 0.0
H356 H 0.18438 0.6433 0.3306 0.0
H357 H 0.1967 0.68219 0.37968 0.0
H358 H 0.18837 0.69228 0.44509 0.0
H359 H 0.16367 0.6702 0.5037 0.0
Mn360 Mn 0.58333 0.13528 0.74663 0.0
Mn361 Mn 0.50666 0.11622 0.73269 0.0
C362 C 0.57167 0.17383 0.72687 0.0
C363 C 0.62417 0.151 0.78988 0.0
C364 C 0.5455 0.10183 0.67916 0.0
O365 O 0.55797 0.09111 0.76926 0.0
O366 O 0.50903 0.08627 0.76693 0.0
C367 C 0.49247 0.13055 0.80528 0.0
N368 N 0.49272 0.13438 0.76918 0.0
C369 C 0.4657 0.16515 0.7744 0.0
C370 C 0.4648 0.16128 0.81164 0.0
C371 C 0.47855 0.14418 0.82717 0.0
C372 C 0.4806 0.15172 0.75408 0.0
H373 H 0.50278 0.11719 0.81722 0.0
C374 C 0.52859 0.07736 0.77798 0.0
O375 O 0.6255 0.13792 0.75988 0.0
O376 O 0.59928 0.15421 0.79463 0.0
N377 N 0.49983 0.14323 0.70039 0.0
C378 C 0.50364 0.14568 0.6642 0.0
C379 C 0.4909 0.16167 0.64443 0.0
C380 C 0.4738 0.1744 0.66192 0.0
C381 C 0.47054 0.17205 0.69926 0.0
C382 C 0.48385 0.15593 0.71755 0.0
H383 H 0.51564 0.13493 0.65033 0.0
O384 O 0.60062 0.17861 0.72542 0.0
O385 O 0.55086 0.14772 0.74234 0.0
O386 O 0.5726 0.1162 0.69527 0.0
O387 O 0.51934 0.09741 0.69312 0.0
C388 C 0.45402 0.18443 0.71902 0.0
C389 C 0.45217 0.18156 0.7566 0.0
H390 H 0.45369 0.17139 0.82855 0.0
H391 H 0.47812 0.14123 0.8559 0.0
H392 H 0.49355 0.16344 0.61564 0.0
H393 H 0.46304 0.18563 0.64627 0.0
H394 H 0.44275 0.19636 0.70567 0.0
H395 H 0.44001 0.19178 0.77151 0.0
Mn396 Mn 0.41674 0.59968 0.096 0.0
Mn397 Mn 0.36467 0.5214 0.08209 0.0
C398 C 0.36537 0.58412 0.07916 0.0
C399 C 0.43946 0.64112 0.13865 0.0
C400 C 0.41378 0.56361 1.02714 0.0
O401 O 0.43991 0.57711 0.11627 0.0
O402 O 0.39938 0.52645 0.11394 0.0
C403 C 0.33954 0.50437 0.15583 0.0
N404 N 0.33433 0.50499 0.12011 0.0
C405 C 0.27747 0.47646 0.12852 0.0
C406 C 0.28219 0.47513 0.16536 0.0
C407 C 0.31338 0.48937 0.1791 0.0
C408 C 0.30446 0.49201 0.10671 0.0
H409 H 0.36347 0.51529 0.16645 0.0
C410 C 0.42709 0.54755 0.1243 0.0
O411 O 0.45329 0.64355 0.10799 0.0
O412 O 0.41365 0.61459 0.14468 0.0
N413 N 0.32902 0.51233 0.0519 0.0
C414 C 0.32849 0.5167 1.01593 0.0
C415 C 0.29913 0.50467 0.99814 0.0
C416 C 0.27059 0.48754 1.0173 0.0
C417 C 0.27166 0.4828 0.05418 0.0
C418 C 0.30164 0.49557 0.07051 0.0
H419 H 0.35025 0.52918 1.00081 0.0
O420 O 0.38707 0.6139 0.07725 0.0
O421 O 0.37368 0.56464 0.09328 0.0
O422 O 0.4247 0.59042 1.04375 0.0
O423 O 0.39432 0.53662 1.04104 0.0
C424 C 0.24419 0.46581 0.07537 0.0
C425 C 0.24706 0.46301 0.11257 0.0
H426 H 0.26207 0.46344 0.18336 0.0
H427 H 0.31724 0.48867 0.20753 0.0
H428 H 0.29851 0.50827 0.96964 0.0
H429 H 0.24806 0.47803 1.00332 0.0
H430 H 0.22072 0.45484 0.06337 0.0
H431 H 0.22571 0.45042 0.12865 0.0
H432 H 0.51295 0.14682 0.46913 0.0
H433 H 0.50008 0.0524 0.45142 0.0
H434 H 0.52396 0.14315 0.53251 0.0
H435 H 0.51028 0.04839 0.51493 0.0
H436 H 0.50025 0.05038 0.64244 0.0
H437 H 0.48763 0.04875 0.57872 0.0
H438 H 0.57175 0.1404 0.56394 0.0
H439 H 0.5848 0.14162 0.62752 0.0
C440 C 0.51106 0.12473 0.47906 0.0
C441 C 0.50497 0.09964 0.45533 0.0
C442 C 0.51806 0.12289 0.51521 0.0
C443 C 0.51849 0.09566 0.52864 0.0
C444 C 0.51021 0.0697 0.50545 0.0
C445 C 0.50398 0.07184 0.46916 0.0
C446 C 0.51677 0.06953 0.62527 0.0
C447 C 0.54391 0.09581 0.63998 0.0
C448 C 0.50932 0.06879 0.58885 0.0
C449 C 0.52834 0.09472 0.56641 0.0
C450 C 0.55637 0.12024 0.58066 0.0
C451 C 0.56425 0.12062 0.61693 0.0
H452 H 0.41789 0.52481 0.79734 0.0
H453 H 0.33012 0.52494 0.82049 0.0
H454 H 0.43328 0.53525 0.86053 0.0
H455 H 0.34586 0.53632 0.8836 0.0
H456 H 0.42529 0.52214 0.98833 0.0
H457 H 0.41356 0.50957 0.9247 0.0
H458 H 0.39357 0.5876 0.91395 0.0
H459 H 0.40619 0.60072 0.97736 0.0
C460 C 0.40138 0.52592 0.81624 0.0
C461 C 0.37239 0.52317 0.80415 0.0
C462 C 0.41037 0.53231 0.85231 0.0
C463 C 0.39103 0.53711 0.87693 0.0
C464 C 0.36143 0.53308 0.86515 0.0
C465 C 0.35208 0.5259 0.82921 0.0
C466 C 0.41975 0.53746 0.972 0.0
C467 C 0.4174 0.5629 0.98776 0.0
C468 C 0.41261 0.52999 0.93568 0.0
C469 C 0.40207 0.54721 0.91447 0.0
C470 C 0.40125 0.57364 0.92974 0.0
C471 C 0.40918 0.58161 0.96587 0.0
H472 H 0.7753 0.41445 0.29299 0.0
H473 H 0.86645 0.41936 0.30889 0.0
H474 H 0.7767 0.40202 0.2295 0.0
H475 H 0.86821 0.40756 0.24553 0.0
H476 H 0.86871 0.41677 0.11977 0.0
H477 H 0.87054 0.43009 0.18322 0.0
H478 H 0.77385 0.35357 0.19589 0.0
H479 H 0.77231 0.33991 0.13235 0.0
C480 C 0.7962 0.41414 0.28262 0.0
C481 C 0.82109 0.41859 0.30579 0.0
C482 C 0.79671 0.40635 0.24644 0.0
C483 C 0.82239 0.40337 0.2325 0.0
C484 C 0.8481 0.40968 0.2553 0.0
C485 C 0.84726 0.41677 0.29153 0.0
C486 C 0.84827 0.40204 0.13644 0.0
C487 C 0.82064 0.37677 0.12122 0.0
C488 C 0.84919 0.40989 0.17271 0.0
C489 C 0.82219 0.39322 0.19457 0.0
C490 C 0.79493 0.36715 0.17969 0.0
C491 C 0.79425 0.35886 0.14349 0.0
H492 H 0.39755 0.80334 0.47397 0.0
H493 H 0.39889 0.89267 0.4548 0.0
H494 H 0.38882 0.80765 0.53787 0.0
H495 H 0.39126 0.89748 0.51898 0.0
H496 H 0.41148 0.89268 0.64906 0.0
H497 H 0.4227 0.8968 0.58469 0.0
H498 H 0.33453 0.80947 0.56703 0.0
H499 H 0.32271 0.80591 0.63118 0.0
C500 C 0.39755 0.82463 0.48362 0.0
C501 C 0.39952 0.84796 0.45941 0.0
C502 C 0.39191 0.82678 0.52007 0.0
C503 C 0.3889 0.85267 0.53317 0.0
C504 C 0.39336 0.87724 0.50951 0.0
C505 C 0.39815 0.87468 0.47291 0.0
C506 C 0.39379 0.8752 0.63121 0.0
C507 C 0.36593 0.84927 0.64517 0.0
C508 C 0.40043 0.87735 0.59447 0.0
C509 C 0.37976 0.85315 0.57109 0.0
C510 C 0.35098 0.82829 0.58462 0.0
C511 C 0.34392 0.8266 0.62123 0.0
H512 H 0.51956 0.34216 0.95645 0.0
H513 H 0.49818 0.41927 0.96605 0.0
H514 H 0.53281 0.35543 0.89311 0.0
H515 H 0.51092 0.43229 0.90285 0.0
H516 H 0.50932 0.42388 0.77785 0.0
H517 H 0.49393 0.41139 0.84056 0.0
H518 H 0.57777 0.40243 0.8599 0.0
H519 H 0.59333 0.41535 0.79693 0.0
C520 C 0.51632 0.36102 0.94465 0.0
C521 C 0.50705 0.37915 0.9661 0.0
C522 C 0.52464 0.36913 0.90857 0.0
C523 C 0.5234 0.39526 0.89294 0.0
C524 C 0.51214 0.41204 0.91388 0.0
C525 C 0.50445 0.40433 0.95003 0.0
C526 C 0.52504 0.42032 0.79579 0.0
C527 C 0.55294 0.42134 0.78256 0.0
C528 C 0.51605 0.41285 0.83169 0.0
C529 C 0.53433 0.40544 0.85526 0.0
C530 C 0.56289 0.40758 0.84237 0.0
C531 C 0.57221 0.41566 0.80649 0.0
H532 H 0.16972 0.5539 0.31019 0.0
H533 H 0.07187 0.48007 0.30132 0.0
H534 H 0.16777 0.57257 0.25092 0.0
H535 H 0.0703 0.49568 0.2398 0.0
H536 H 0.06165 0.54109 0.13913 0.0
H537 H 0.06447 0.52594 0.20043 0.0
H538 H 0.16777 0.57777 0.1937 0.0
H539 H 0.16399 0.59553 0.13447 0.0
C540 C 0.14817 0.54054 0.29455 0.0
C541 C 0.12115 0.51519 0.31025 0.0
C542 C 0.14683 0.55136 0.26009 0.0
C543 C 0.11859 0.53643 0.2394 0.0
C544 C 0.09229 0.50915 0.25447 0.0
C545 C 0.09334 0.49924 0.28964 0.0
C546 C 0.08483 0.55045 0.15173 0.0
C547 C 0.11255 0.57033 0.13236 0.0
C548 C 0.08669 0.54088 0.18678 0.0
C549 C 0.11646 0.54949 0.20302 0.0
C550 C 0.14416 0.57053 0.18359 0.0
C551 C 0.14215 0.58118 0.14922 0.0
H552 H 0.72356 0.33865 0.45836 0.0
H553 H 0.71387 0.35866 0.34805 0.0
H554 H 0.67803 0.28482 0.45199 0.0
H555 H 0.66785 0.30535 0.3415 0.0
H556 H 0.60787 0.20189 0.32617 0.0
H557 H 0.65716 0.25124 0.33812 0.0
H558 H 0.62179 0.25628 0.44297 0.0
H559 H 0.57301 0.20631 0.43105 0.0
C560 C 0.71154 0.33126 0.43276 0.0
C561 C 0.72259 0.35168 0.40317 0.0
C562 C 0.68541 0.30074 0.42916 0.0
C563 C 0.66999 0.29055 0.39593 0.0
C564 C 0.68004 0.31207 0.36703 0.0
C565 C 0.70607 0.34255 0.37074 0.0
C566 C 0.61148 0.21287 0.35232 0.0
C567 C 0.58733 0.20038 0.37803 0.0
C568 C 0.63936 0.24135 0.35901 0.0
C569 C 0.64314 0.25787 0.39132 0.0
C570 C 0.61969 0.24405 0.41794 0.0
C571 C 0.59184 0.21555 0.4112 0.0
H572 H 0.31479 0.72825 0.66779 0.0
H573 H 0.35407 0.73527 0.77318 0.0
H574 H 0.30455 0.67319 0.6628 0.0
H575 H 0.34257 0.6802 0.76941 0.0
H576 H 0.33207 0.59317 0.6542 0.0
H577 H 0.33011 0.64289 0.65624 0.0
H578 H 0.30432 0.62638 0.76825 0.0
H579 H 0.3073 0.57691 0.76587 0.0
C580 C 0.32205 0.71812 0.68939 0.0
C581 C 0.33626 0.736 0.72027 0.0
C582 C 0.31584 0.68656 0.68683 0.0
C583 C 0.32294 0.67218 0.71561 0.0
C584 C 0.33698 0.69037 0.74658 0.0
C585 C 0.34421 0.72216 0.74857 0.0
C586 C 0.32599 0.60038 0.67914 0.0
C587 C 0.32151 0.5826 0.71036 0.0
C588 C 0.32429 0.62853 0.68027 0.0
C589 C 0.31799 0.63921 0.71272 0.0
C590 C 0.31044 0.61949 0.74315 0.0
C591 C 0.31207 0.59124 0.7419 0.0
H592 H 0.57594 0.34686 1.00237 0.0
H593 H 0.60481 0.38565 0.10849 0.0
H594 H 0.62912 0.35436 0.99107 0.0
H595 H 0.65874 0.39462 0.09692 0.0
H596 H 0.73004 0.38002 0.97392 0.0
H597 H 0.68612 0.39133 0.98398 0.0
H598 H 0.67539 0.35417 0.09158 0.0
H599 H 0.71987 0.34416 0.08166 0.0
C600 C 0.59414 0.35782 1.02281 0.0
C601 C 0.58703 0.36637 0.05589 0.0
C602 C 0.62456 0.36248 1.01629 0.0
C603 C 0.64799 0.3752 1.04311 0.0
C604 C 0.64098 0.38467 0.07591 0.0
C605 C 0.61043 0.37981 0.08245 0.0
C606 C 0.71865 0.3752 0.99991 0.0
C607 C 0.72841 0.36217 1.02746 0.0
C608 C 0.69358 0.38142 1.00561 0.0
C609 C 0.67767 0.3739 1.03865 0.0
C610 C 0.68778 0.36099 0.06619 0.0
C611 C 0.71283 0.35488 0.06047 0.0
H612 H 0.29598 0.73532 0.33782 0.0
H613 H 0.33635 0.73712 0.44145 0.0
H614 H 0.24937 0.68431 0.3524 0.0
H615 H 0.29032 0.68533 0.45577 0.0
H616 H 0.21055 0.57713 0.36338 0.0
H617 H 0.25004 0.63336 0.35657 0.0
H618 H 0.23176 0.65164 0.46492 0.0
H619 H 0.19229 0.59477 0.47162 0.0
C620 C 0.29414 0.72526 0.36423 0.0
C621 C 0.31907 0.73996 0.38886 0.0
C622 C 0.26782 0.69599 0.37242 0.0
C623 C 0.26665 0.68078 0.40497 0.0
C624 C 0.29063 0.69666 0.4306 0.0
C625 C 0.31691 0.72606 0.42242 0.0
C626 C 0.21497 0.59335 0.38553 0.0
C627 C 0.19784 0.58251 0.4174 0.0
C628 C 0.23726 0.62541 0.38165 0.0
C629 C 0.24308 0.64691 0.40987 0.0
C630 C 0.22728 0.63555 0.44265 0.0
C631 C 0.2047 0.60333 0.44641 0.0
H632 H 0.59668 0.35879 0.74226 0.0
H633 H 0.57044 0.33922 0.6311 0.0
H634 H 0.58816 0.30467 0.75004 0.0
H635 H 0.56096 0.28449 0.6387 0.0
H636 H 0.58716 0.20459 0.66373 0.0
H637 H 0.58873 0.25515 0.65029 0.0
H638 H 0.54453 0.25092 0.75241 0.0
H639 H 0.54459 0.20127 0.76622 0.0
C640 C 0.58874 0.34256 0.71966 0.0
C641 C 0.58276 0.35215 0.68658 0.0
C642 C 0.58362 0.31163 0.72406 0.0
C643 C 0.57293 0.29005 0.69522 0.0
C644 C 0.56886 0.30049 0.66147 0.0
C645 C 0.57391 0.33151 0.65717 0.0
C646 C 0.57706 0.21425 0.68272 0.0
C647 C 0.56521 0.19913 0.71562 0.0
C648 C 0.57783 0.24303 0.67506 0.0
C649 C 0.56707 0.25714 0.70048 0.0
C650 C 0.55339 0.24081 0.73252 0.0
C651 C 0.55285 0.21217 0.74022 0.0
H652 H 0.194 0.56602 0.9791 0.0
H653 H 0.2043 0.60192 0.08683 0.0
H654 H 0.23735 0.55374 0.98969 0.0
H655 H 0.2477 0.59056 0.09742 0.0
H656 H 0.31227 0.55466 0.11935 0.0
H657 H 0.25941 0.54646 0.10346 0.0
H658 H 0.29519 0.5882 0.99949 0.0
H659 H 0.34737 0.59466 1.01495 0.0
C660 C 0.20534 0.57072 1.00513 0.0
C661 C 0.19559 0.58371 1.03271 0.0
C662 C 0.23002 0.56392 1.01113 0.0
C663 C 0.24523 0.57054 1.0446 0.0
C664 C 0.23561 0.58417 0.0718 0.0
C665 C 0.21114 0.591 0.06573 0.0
C666 C 0.30822 0.5608 0.09269 0.0
C667 C 0.33314 0.57467 0.06799 0.0
C668 C 0.27827 0.55637 0.08368 0.0
C669 C 0.27349 0.56698 0.05041 0.0
C670 C 0.29818 0.57944 1.0251 0.0
C671 C 0.328 0.58352 1.03402 0.0
H672 H 0.52058 0.0548 0.27014 0.0
H673 H 0.43271 0.03949 0.31876 0.0
H674 H 0.49435 -0.00047 0.24982 0.0
H675 H 0.40672 -0.01595 0.29964 0.0
H676 H 0.36565 0.88436 0.28198 0.0
H677 H 0.38825 0.93892 0.25997 0.0
H678 H 0.48226 0.95657 0.29082 0.0
H679 H 0.45979 0.90198 0.31183 0.0
C680 C 0.49539 0.03979 0.27561 0.0
C681 C 0.4788 0.05093 0.29695 0.0
C682 C 0.4804 0.00819 0.26395 0.0
C683 C 0.44881 -0.01282 0.27403 0.0
C684 C 0.43113 -0.00044 0.29136 0.0
C685 C 0.44604 0.03133 0.3026 0.0
C686 C 0.39129 0.89969 0.28301 0.0
C687 C 0.41094 0.88941 0.29971 0.0
C688 C 0.40418 0.93087 0.27033 0.0
C689 C 0.43685 0.9523 0.27453 0.0
C690 C 0.45695 0.94071 0.28708 0.0
C691 C 0.44408 0.90941 0.29945 0.0
H692 H 0.38311 0.46026 0.66217 0.0
H693 H 0.45084 0.55943 0.64094 0.0
H694 H 0.42267 0.44535 0.64369 0.0
H695 H 0.49019 0.5444 0.62237 0.0
H696 H 0.49291 0.42142 0.60364 0.0
H697 H 0.45709 0.44334 0.59567 0.0
H698 H 0.51972 0.52499 0.66012 0.0
H699 H 0.55583 0.50317 0.6677 0.0
C700 C 0.40609 0.47875 0.65274 0.0
C701 C 0.41405 0.51103 0.65382 0.0
C702 C 0.42874 0.47023 0.64194 0.0
C703 C 0.45964 0.49384 0.63195 0.0
C704 C 0.46673 0.52582 0.63044 0.0
C705 C 0.44414 0.53433 0.64116 0.0
C706 C 0.49956 0.4446 0.61508 0.0
C707 C 0.52676 0.46039 0.63689 0.0
C708 C 0.47898 0.45702 0.61063 0.0
C709 C 0.48523 0.4854 0.62798 0.0
C710 C 0.51431 0.50303 0.64639 0.0
C711 C 0.53504 0.49061 0.65073 0.0
H712 H 0.90312 0.39075 1.02429 0.0
H713 H 0.87785 0.42196 0.92742 0.0
H714 H 0.95696 0.43634 1.02075 0.0
H715 H 0.93171 0.46766 0.92383 0.0
H716 H 0.04724 0.53462 0.93649 0.0
H717 H -0.00508 0.4884 0.9239 0.0
H718 H -0.03581 0.49456 1.03065 0.0
H719 H 0.01637 0.54058 1.04307 0.0
C720 C 0.9097 0.40619 1.00105 0.0
C721 C 0.88655 0.40317 0.97627 0.0
C722 C 0.94019 0.43265 0.99945 0.0
C723 C 0.94775 0.45591 0.97277 0.0
C724 C 0.92614 0.4502 0.94489 0.0
C725 C 0.89555 0.42386 0.94668 0.0
C726 C 0.02859 0.52712 0.95643 0.0
C727 C 0.03545 0.54104 0.99062 0.0
C728 C -0.00101 0.50043 0.94946 0.0
C729 C -0.02371 0.48746 0.97682 0.0
C730 C -0.01815 0.50379 1.00951 0.0
C731 C 0.01129 0.53056 1.01633 0.0
H732 H 0.02322 0.4464 0.38757 0.0
H733 H 0.04374 0.47094 0.49902 0.0
H734 H -0.03054 0.43851 0.39597 0.0
H735 H -0.01015 0.46313 0.5076 0.0
H736 H 0.87504 0.41717 0.49615 0.0
H737 H 0.9283 0.4228 0.50084 0.0
H738 H -0.04156 0.48589 0.40949 0.0
H739 H 0.90515 0.48023 0.40489 0.0
C740 C 0.01551 0.4482 0.4143 0.0
C741 C 0.03725 0.45897 0.44273 0.0
C742 C -0.01485 0.44456 0.41893 0.0
C743 C -0.02379 0.45144 0.45212 0.0
C744 C -0.00352 0.45814 0.48168 0.0
C745 C 0.027 0.46201 0.47693 0.0
C746 C 0.89358 0.43351 0.47826 0.0
C747 C 0.88624 0.4483 0.45015 0.0
C748 C 0.92384 0.43638 0.48069 0.0
C749 C 0.94686 0.45382 0.45476 0.0
C750 C 0.94062 0.47163 0.42923 0.0
C751 C 0.91046 0.46903 0.42706 0.0
H752 H 0.5433 0.02917 0.77643 0.0
H753 H 0.48186 0.0593 0.82753 0.0
H754 H 0.50832 -0.02538 0.79648 0.0
H755 H 0.44722 0.00499 0.8483 0.0
H756 H 0.4407 0.87767 0.82184 0.0
H757 H 0.47861 0.93199 0.84008 0.0
H758 H 0.4118 0.96297 0.80713 0.0
H759 H 0.37385 0.90865 0.78931 0.0
C760 C 0.52316 0.02439 0.79336 0.0
C761 C 0.51475 0.04809 0.79966 0.0
C762 C 0.50309 -0.00685 0.805 0.0
C763 C 0.47455 -0.01457 0.82327 0.0
C764 C 0.46863 0.01014 0.83362 0.0
C765 C 0.4885 0.0412 0.82175 0.0
C766 C 0.43371 0.89594 0.81967 0.0
C767 C 0.40474 0.88927 0.80323 0.0
C768 C 0.45545 0.927 0.8301 0.0
C769 C 0.44854 0.95184 0.82423 0.0
C770 C 0.41787 0.94433 0.81209 0.0
C771 C 0.39605 0.91318 0.80174 0.0
H772 H 0.48456 0.55565 0.10422 0.0
H773 H 0.40919 0.50825 0.18159 0.0
H774 H 0.49858 0.51332 0.11089 0.0
H775 H 0.4231 0.46585 0.18797 0.0
H776 H 0.49821 0.41512 0.1684 0.0
H777 H 0.48793 0.45778 0.18926 0.0
H778 H 0.43491 0.44836 0.09264 0.0
H779 H 0.44556 0.40616 0.0716 0.0
C780 C 0.47248 0.53743 0.1244 0.0
C781 C 0.44559 0.53477 0.14201 0.0
C782 C 0.48022 0.51307 0.12792 0.0
C783 C 0.46137 0.48638 0.14941 0.0
C784 C 0.43779 0.48631 0.17128 0.0
C785 C 0.43002 0.51063 0.16772 0.0
C786 C 0.48306 0.4212 0.15254 0.0
C787 C 0.47244 0.40751 0.11857 0.0
C788 C 0.47751 0.44567 0.16431 0.0
C789 C 0.46128 0.45637 0.14208 0.0
C790 C 0.44771 0.44033 0.10992 0.0
C791 C 0.45327 0.41593 0.09818 0.0
H792 H 0.44513 0.18923 0.31593 0.0
H793 H 0.48817 0.15834 0.23516 0.0
H794 H 0.43428 0.21972 0.27037 0.0
H795 H 0.47718 0.1882 0.18994 0.0
H796 H 0.44573 0.23653 0.10982 0.0
H797 H 0.43685 0.19604 0.15535 0.0
H798 H 0.4723 0.26921 0.23676 0.0
H799 H 0.48134 0.30931 0.19152 0.0
C800 C 0.4514 0.18818 0.28834 0.0
C801 C 0.46761 0.17151 0.27916 0.0
C802 C 0.44541 0.20579 0.26227 0.0
C803 C 0.45494 0.20652 0.22642 0.0
C804 C 0.46917 0.18799 0.21706 0.0
C805 C 0.47565 0.17098 0.2431 0.0
C806 C 0.45068 0.24371 0.13759 0.0
C807 C 0.46435 0.27611 0.14705 0.0
C808 C 0.44584 0.2206 0.16366 0.0
C809 C 0.45404 0.22937 0.19977 0.0
C810 C 0.46543 0.26146 0.2094 0.0
C811 C 0.47076 0.28452 0.18337 0.0
H812 H 0.18691 0.43728 0.45207 0.0
H813 H 0.14133 0.46268 0.53535 0.0
H814 H 0.21787 0.4272 0.49749 0.0
H815 H 0.17203 0.45292 0.58041 0.0
H816 H 0.2285 0.43368 0.66001 0.0
H817 H 0.18779 0.41868 0.61311 0.0
H818 H 0.26212 0.46545 0.53429 0.0
H819 H 0.30222 0.48012 0.58083 0.0
C820 C 0.1827 0.43965 0.48007 0.0
C821 C 0.16183 0.45098 0.49008 0.0
C822 C 0.20064 0.43417 0.50614 0.0
C823 C 0.19778 0.43956 0.54275 0.0
C824 C 0.17481 0.44821 0.55269 0.0
C825 C 0.15725 0.454 0.52673 0.0
C826 C 0.23601 0.43952 0.63244 0.0
C827 C 0.26852 0.45807 0.62409 0.0
C828 C 0.21273 0.43129 0.60557 0.0
C829 C 0.22157 0.44116 0.56982 0.0
C830 C 0.25423 0.45714 0.56127 0.0
C831 C 0.27732 0.46566 0.58805 0.0
H832 H 0.77933 0.30021 0.89753 0.0
H833 H 0.74003 0.23163 0.98327 0.0
H834 H 0.74632 0.25911 0.85443 0.0
H835 H 0.70646 0.19021 0.93995 0.0
H836 H 0.68895 0.17631 0.78009 0.0
H837 H 0.73115 0.20656 0.82416 0.0
H838 H 0.65952 0.18544 0.90506 0.0
H839 H 0.61779 0.15585 0.86126 0.0
C840 C 0.76427 0.27604 0.90703 0.0
C841 C 0.76229 0.26918 0.94383 0.0
C842 C 0.74537 0.2524 0.88225 0.0
C843 C 0.7235 0.22135 0.89366 0.0
C844 C 0.72292 0.21395 0.93028 0.0
C845 C 0.74235 0.23757 0.95509 0.0
C846 C 0.68236 0.17748 0.80751 0.0
C847 C 0.65005 0.1638 0.81715 0.0
C848 C 0.70648 0.19496 0.83271 0.0
C849 C 0.69876 0.19852 0.86821 0.0
C850 C 0.66644 0.18298 0.87819 0.0
C851 C 0.64246 0.16612 0.85296 0.0
H852 H 0.43367 0.63673 0.21088 0.0
H853 H 0.46657 0.70542 0.1249 0.0
H854 H 0.4389 0.67806 0.25275 0.0
H855 H 0.47116 0.74691 0.16687 0.0
H856 H 0.41161 0.78051 0.24114 0.0
H857 H 0.42534 0.75024 0.19911 0.0
H858 H 0.47682 0.73242 0.28249 0.0
H859 H 0.46358 0.76358 0.32463 0.0
C860 C 0.44286 0.66093 0.20113 0.0
C861 C 0.44978 0.66783 0.1646 0.0
C862 C 0.44593 0.68465 0.22517 0.0
C863 C 0.45531 0.71577 0.21317 0.0
C864 C 0.46381 0.72313 0.17692 0.0
C865 C 0.46143 0.69946 0.15294 0.0
C866 C 0.42657 0.77085 0.25031 0.0
C867 C 0.43651 0.77443 0.28621 0.0
C868 C 0.43457 0.7536 0.22614 0.0
C869 C 0.45214 0.73884 0.23741 0.0
C870 C 0.46323 0.7435 0.273 0.0
C871 C 0.45582 0.76147 0.29707 0.0
H872 H 0.70375 0.50005 0.64898 0.0
H873 H 0.63554 0.46737 0.5626 0.0
H874 H 0.74667 0.51172 0.60594 0.0
H875 H 0.67787 0.47875 0.5199 0.0
H876 H 0.75732 0.50214 0.44465 0.0
H877 H 0.72706 0.51485 0.48838 0.0
H878 H 0.75831 0.47478 0.5725 0.0
H879 H 0.78831 0.46237 0.52911 0.0
C880 C 0.69809 0.49646 0.62073 0.0
C881 C 0.66625 0.48269 0.60922 0.0
C882 C 0.72261 0.50281 0.59605 0.0
C883 C 0.7158 0.49589 0.55933 0.0
C884 C 0.68426 0.48471 0.54773 0.0
C885 C 0.65986 0.47803 0.57233 0.0
C886 C 0.75863 0.49719 0.47268 0.0
C887 C 0.77509 0.48114 0.48339 0.0
C888 C 0.74102 0.50415 0.49774 0.0
C889 C 0.73986 0.49553 0.53406 0.0
C890 C 0.75871 0.48205 0.545 0.0
C891 C 0.77589 0.47479 0.52 0.0
H892 H 0.18136 0.71278 0.99379 0.0
H893 H 0.13784 0.64516 0.90776 0.0
H894 H 0.21368 0.75439 0.95013 0.0
H895 H 0.16957 0.68654 0.86432 0.0
H896 H 0.29913 0.78647 0.86682 0.0
H897 H 0.25882 0.7576 0.91222 0.0
H898 H 0.18468 0.74025 0.83581 0.0
H899 H 0.22546 0.76989 0.79018 0.0
C900 C 0.17782 0.70712 0.96553 0.0
C901 C 0.15709 0.67569 0.95422 0.0
C902 C 0.19651 0.73085 0.94052 0.0
C903 C 0.19438 0.72376 0.90368 0.0
C904 C 0.17168 0.69297 0.89235 0.0
C905 C 0.15352 0.66919 0.91731 0.0
C906 C 0.27424 0.77727 0.85993 0.0
C907 C 0.26547 0.78042 0.8249 0.0
C908 C 0.2511 0.76082 0.88606 0.0
C909 C 0.21846 0.74648 0.87771 0.0
C910 C 0.20963 0.75095 0.84308 0.0
C911 C 0.23295 0.76808 0.81702 0.0
loop_
_geom_bond_atom_site_label_1
_geom_bond_atom_site_label_2
_geom_bond_distance
_geom_bond_site_symmetry_2
_ccdc_geom_bond_type
Mn0 O5 2.095 . S
Mn0 O15 2.162 . S
Mn0 O16 2.297 . S
Mn0 O24 2.385 . S
Mn0 O25 2.209 . S
Mn0 O26 2.094 . S
Mn1 O6 2.121 . S
Mn1 N8 2.257 . S
Mn1 N17 2.282 . S
Mn1 O25 2.215 . S
Mn1 O27 2.117 . S
C2 O24 1.234 . S
C2 O25 1.283 . S
C3 O15 1.281 . S
C3 O16 1.236 . S
C4 O26 1.240 . S
C4 O27 1.264 . S
O5 Mn0 2.095 . S
O5 C14 1.250 . S
O6 Mn1 2.121 . S
O6 C14 1.258 . S
C7 N8 1.326 . S
C7 C11 1.460 . S
C7 H13 0.929 . S
N8 Mn1 2.257 . S
N8 C7 1.326 . S
N8 C12 1.362 . S
C9 C10 1.258 . S
C9 C12 1.431 . S
C9 C29 1.449 . S
C10 C9 1.258 . S
C10 C11 1.477 . S
C10 H30 0.931 . S
C11 C7 1.460 . S
C11 C10 1.477 . S
C11 H31 0.930 . S
C12 N8 1.362 . S
C12 C9 1.431 . S
C12 C22 1.476 . S
H13 C7 0.929 . S
C14 O5 1.250 . S
C14 O6 1.258 . S
O15 Mn0 2.162 . S
O15 C3 1.281 . S
O16 Mn0 2.297 . S
O16 C3 1.236 . S
N17 Mn1 2.282 . S
N17 C18 1.328 . S
N17 C22 1.318 . S
C18 N17 1.328 . S
C18 C19 1.457 . S
C18 H23 0.929 . S
C19 C18 1.457 . S
C19 C20 1.291 . S
C19 H32 0.931 . S
C20 C19 1.291 . S
C20 C21 1.373 . S
C20 H33 0.929 . S
C21 C20 1.373 . S
C21 C22 1.396 . S
C21 C28 1.403 . S
C22 C12 1.476 . S
C22 N17 1.318 . S
C22 C21 1.396 . S
H23 C18 0.929 . S
O24 Mn0 2.385 . S
O24 C2 1.234 . S
O25 Mn0 2.209 . S
O25 Mn1 2.215 . S
O25 C2 1.283 . S
O26 Mn0 2.094 . S
O26 C4 1.240 . S
O27 Mn1 2.117 . S
O27 C4 1.264 . S
C28 C21 1.403 . S
C28 C29 1.399 . S
C28 H34 0.929 . S
C29 C9 1.449 . S
C29 C28 1.399 . S
C29 H35 0.930 . S
H30 C10 0.931 . S
H31 C11 0.930 . S
H32 C19 0.931 . S
H33 C20 0.929 . S
H34 C28 0.929 . S
H35 C29 0.930 . S
Mn36 O41 2.095 . S
Mn36 O51 2.162 . S
Mn36 O52 2.297 . S
Mn36 O60 2.385 . S
Mn36 O61 2.209 . S
Mn36 O62 2.094 . S
Mn37 O42 2.121 . S
Mn37 N44 2.257 . S
Mn37 N53 2.282 . S
Mn37 O61 2.215 . S
Mn37 O63 2.117 . S
C38 O60 1.234 . S
C38 O61 1.283 . S
C39 O51 1.281 . S
C39 O52 1.236 . S
C40 O62 1.240 . S
C40 O63 1.264 . S
O41 Mn36 2.095 . S
O41 C50 1.250 . S
O42 Mn37 2.121 . S
O42 C50 1.258 . S
C43 N44 1.326 . S
C43 C47 1.460 . S
C43 H49 0.929 . S
N44 Mn37 2.257 . S
N44 C43 1.326 . S
N44 C48 1.362 . S
C45 C46 1.258 . S
C45 C48 1.431 . S
C45 C65 1.449 . S
C46 C45 1.258 . S
C46 C47 1.477 . S
C46 H66 0.931 . S
C47 C43 1.460 . S
C47 C46 1.477 . S
C47 H67 0.930 . S
C48 N44 1.362 . S
C48 C45 1.431 . S
C48 C58 1.476 . S
H49 C43 0.929 . S
C50 O41 1.250 . S
C50 O42 1.258 . S
O51 Mn36 2.162 . S
O51 C39 1.281 . S
O52 Mn36 2.297 . S
O52 C39 1.236 . S
N53 Mn37 2.282 . S
N53 C54 1.328 . S
N53 C58 1.318 . S
C54 N53 1.328 . S
C54 C55 1.457 . S
C54 H59 0.929 . S
C55 C54 1.457 . S
C55 C56 1.291 . S
C55 H68 0.931 . S
C56 C55 1.291 . S
C56 C57 1.373 . S
C56 H69 0.929 . S
C57 C56 1.373 . S
C57 C58 1.396 . S
C57 C64 1.403 . S
C58 C48 1.476 . S
C58 N53 1.318 . S
C58 C57 1.396 . S
H59 C54 0.929 . S
O60 Mn36 2.385 . S
O60 C38 1.234 . S
O61 Mn36 2.209 . S
O61 Mn37 2.215 . S
O61 C38 1.283 . S
O62 Mn36 2.094 . S
O62 C40 1.240 . S
O63 Mn37 2.117 . S
O63 C40 1.264 . S
C64 C57 1.403 . S
C64 C65 1.399 . S
C64 H70 0.929 . S
C65 C45 1.449 . S
C65 C64 1.399 . S
C65 H71 0.930 . S
H66 C46 0.931 . S
H67 C47 0.930 . S
H68 C55 0.931 . S
H69 C56 0.929 . S
H70 C64 0.929 . S
H71 C65 0.930 . S
Mn72 O77 2.095 . S
Mn72 O87 2.162 . S
Mn72 O88 2.297 . S
Mn72 O96 2.385 . S
Mn72 O97 2.209 . S
Mn72 O98 2.094 1_556 S
Mn73 O78 2.121 1_554 S
Mn73 N80 2.257 . S
Mn73 N89 2.282 . S
Mn73 O97 2.215 1_554 S
Mn73 O99 2.117 . S
C74 O96 1.234 . S
C74 O97 1.283 . S
C75 O87 1.281 . S
C75 O88 1.236 . S
C76 O98 1.240 . S
C76 O99 1.264 . S
O77 Mn72 2.095 . S
O77 C86 1.250 . S
O78 Mn73 2.121 1_556 S
O78 C86 1.258 . S
C79 N80 1.326 1_556 S
C79 C83 1.460 . S
C79 H85 0.929 . S
N80 Mn73 2.257 . S
N80 C79 1.326 1_554 S
N80 C84 1.362 . S
C81 C82 1.258 1_554 S
C81 C84 1.431 . S
C81 C101 1.449 . S
C82 C81 1.258 1_556 S
C82 C83 1.477 . S
C82 H102 0.931 . S
C83 C79 1.460 . S
C83 C82 1.477 . S
C83 H103 0.930 . S
C84 N80 1.362 . S
C84 C81 1.431 . S
C84 C94 1.476 . S
H85 C79 0.929 . S
C86 O77 1.250 . S
C86 O78 1.258 . S
O87 Mn72 2.162 . S
O87 C75 1.281 . S
O88 Mn72 2.297 . S
O88 C75 1.236 . S
N89 Mn73 2.282 . S
N89 C90 1.328 . S
N89 C94 1.318 . S
C90 N89 1.328 . S
C90 C91 1.457 . S
C90 H95 0.929 . S
C91 C90 1.457 . S
C91 C92 1.291 . S
C91 H104 0.931 . S
C92 C91 1.291 . S
C92 C93 1.373 . S
C92 H105 0.929 . S
C93 C92 1.373 . S
C93 C94 1.396 . S
C93 C100 1.403 . S
C94 C84 1.476 . S
C94 N89 1.318 . S
C94 C93 1.396 . S
H95 C90 0.929 . S
O96 Mn72 2.385 . S
O96 C74 1.234 . S
O97 Mn72 2.209 . S
O97 Mn73 2.215 1_556 S
O97 C74 1.283 . S
O98 Mn72 2.094 1_554 S
O98 C76 1.240 . S
O99 Mn73 2.117 . S
O99 C76 1.264 . S
C100 C93 1.403 . S
C100 C101 1.399 . S
C100 H106 0.929 . S
C101 C81 1.449 . S
C101 C100 1.399 . S
C101 H107 0.930 . S
H102 C82 0.931 . S
H103 C83 0.930 . S
H104 C91 0.931 . S
H105 C92 0.929 . S
H106 C100 0.929 . S
H107 C101 0.930 . S
Mn108 O113 2.095 . S
Mn108 O123 2.162 . S
Mn108 O124 2.297 . S
Mn108 O132 2.385 . S
Mn108 O133 2.209 . S
Mn108 O134 2.094 . S
Mn109 O114 2.121 . S
Mn109 N116 2.257 . S
Mn109 N125 2.282 . S
Mn109 O133 2.215 . S
Mn109 O135 2.117 . S
C110 O132 1.234 . S
C110 O133 1.283 . S
C111 O123 1.281 . S
C111 O124 1.236 . S
C112 O134 1.240 . S
C112 O135 1.264 . S
O113 Mn108 2.095 . S
O113 C122 1.250 . S
O114 Mn109 2.121 . S
O114 C122 1.258 . S
C115 N116 1.326 . S
C115 C119 1.460 . S
C115 H121 0.929 . S
N116 Mn109 2.257 . S
N116 C115 1.326 . S
N116 C120 1.362 . S
C117 C118 1.258 . S
C117 C120 1.431 . S
C117 C137 1.449 . S
C118 C117 1.258 . S
C118 C119 1.477 . S
C118 H138 0.931 . S
C119 C115 1.460 . S
C119 C118 1.477 . S
C119 H139 0.930 . S
C120 N116 1.362 . S
C120 C117 1.431 . S
C120 C130 1.476 . S
H121 C115 0.929 . S
C122 O113 1.250 . S
C122 O114 1.258 . S
O123 Mn108 2.162 . S
O123 C111 1.281 . S
O124 Mn108 2.297 . S
O124 C111 1.236 . S
N125 Mn109 2.282 . S
N125 C126 1.328 . S
N125 C130 1.318 . S
C126 N125 1.328 . S
C126 C127 1.457 . S
C126 H131 0.929 . S
C127 C126 1.457 . S
C127 C128 1.291 . S
C127 H140 0.931 . S
C128 C127 1.291 . S
C128 C129 1.373 . S
C128 H141 0.929 . S
C129 C128 1.373 . S
C129 C130 1.396 . S
C129 C136 1.403 . S
C130 C120 1.476 . S
C130 N125 1.318 . S
C130 C129 1.396 . S
H131 C126 0.929 . S
O132 Mn108 2.385 . S
O132 C110 1.234 . S
O133 Mn108 2.209 . S
O133 Mn109 2.215 . S
O133 C110 1.283 . S
O134 Mn108 2.094 . S
O134 C112 1.240 . S
O135 Mn109 2.117 . S
O135 C112 1.264 . S
C136 C129 1.403 . S
C136 C137 1.399 . S
C136 H142 0.929 . S
C137 C117 1.449 . S
C137 C136 1.399 . S
C137 H143 0.930 . S
H138 C118 0.931 . S
H139 C119 0.930 . S
H140 C127 0.931 . S
H141 C128 0.929 . S
H142 C136 0.929 . S
H143 C137 0.930 . S
Mn144 O149 2.095 . S
Mn144 O159 2.162 . S
Mn144 O160 2.297 . S
Mn144 O168 2.385 . S
Mn144 O169 2.209 . S
Mn144 O170 2.094 . S
Mn145 O150 2.121 . S
Mn145 N152 2.257 . S
Mn145 N161 2.282 . S
Mn145 O169 2.215 . S
Mn145 O171 2.117 . S
C146 O168 1.234 . S
C146 O169 1.283 . S
C147 O159 1.281 . S
C147 O160 1.236 . S
C148 O170 1.240 . S
C148 O171 1.264 . S
O149 Mn144 2.095 . S
O149 C158 1.250 . S
O150 Mn145 2.121 . S
O150 C158 1.258 . S
C151 N152 1.326 . S
C151 C155 1.460 . S
C151 H157 0.929 . S
N152 Mn145 2.257 . S
N152 C151 1.326 . S
N152 C156 1.362 . S
C153 C154 1.258 . S
C153 C156 1.431 . S
C153 C173 1.449 . S
C154 C153 1.258 . S
C154 C155 1.477 . S
C154 H174 0.931 . S
C155 C151 1.460 . S
C155 C154 1.477 . S
C155 H175 0.930 . S
C156 N152 1.362 . S
C156 C153 1.431 . S
C156 C166 1.476 . S
H157 C151 0.929 . S
C158 O149 1.250 . S
C158 O150 1.258 . S
O159 Mn144 2.162 . S
O159 C147 1.281 . S
O160 Mn144 2.297 . S
O160 C147 1.236 . S
N161 Mn145 2.282 . S
N161 C162 1.328 . S
N161 C166 1.318 . S
C162 N161 1.328 . S
C162 C163 1.457 . S
C162 H167 0.929 . S
C163 C162 1.457 . S
C163 C164 1.291 . S
C163 H176 0.931 . S
C164 C163 1.291 . S
C164 C165 1.373 . S
C164 H177 0.929 . S
C165 C164 1.373 . S
C165 C166 1.396 . S
C165 C172 1.403 . S
C166 C156 1.476 . S
C166 N161 1.318 . S
C166 C165 1.396 . S
H167 C162 0.929 . S
O168 Mn144 2.385 . S
O168 C146 1.234 . S
O169 Mn144 2.209 . S
O169 Mn145 2.215 . S
O169 C146 1.283 . S
O170 Mn144 2.094 . S
O170 C148 1.240 . S
O171 Mn145 2.117 . S
O171 C148 1.264 . S
C172 C165 1.403 . S
C172 C173 1.399 . S
C172 H178 0.929 . S
C173 C153 1.449 . S
C173 C172 1.399 . S
C173 H179 0.930 . S
H174 C154 0.931 . S
H175 C155 0.930 . S
H176 C163 0.931 . S
H177 C164 0.929 . S
H178 C172 0.929 . S
H179 C173 0.930 . S
Mn180 O185 2.095 . S
Mn180 O195 2.162 . S
Mn180 O196 2.297 . S
Mn180 O204 2.385 . S
Mn180 O205 2.209 . S
Mn180 O206 2.094 1_556 S
Mn181 O186 2.121 1_554 S
Mn181 N188 2.257 . S
Mn181 N197 2.282 . S
Mn181 O205 2.215 1_554 S
Mn181 O207 2.117 . S
C182 O204 1.234 . S
C182 O205 1.283 . S
C183 O195 1.281 . S
C183 O196 1.236 . S
C184 O206 1.240 . S
C184 O207 1.264 . S
O185 Mn180 2.095 . S
O185 C194 1.250 . S
O186 Mn181 2.121 1_556 S
O186 C194 1.258 . S
C187 N188 1.326 1_556 S
C187 C191 1.460 . S
C187 H193 0.929 . S
N188 Mn181 2.257 . S
N188 C187 1.326 1_554 S
N188 C192 1.362 . S
C189 C190 1.258 1_554 S
C189 C192 1.431 . S
C189 C209 1.449 . S
C190 C189 1.258 1_556 S
C190 C191 1.477 . S
C190 H210 0.931 . S
C191 C187 1.460 . S
C191 C190 1.477 . S
C191 H211 0.930 . S
C192 N188 1.362 . S
C192 C189 1.431 . S
C192 C202 1.476 . S
H193 C187 0.929 . S
C194 O185 1.250 . S
C194 O186 1.258 . S
O195 Mn180 2.162 . S
O195 C183 1.281 . S
O196 Mn180 2.297 . S
O196 C183 1.236 . S
N197 Mn181 2.282 . S
N197 C198 1.328 . S
N197 C202 1.318 . S
C198 N197 1.328 . S
C198 C199 1.457 . S
C198 H203 0.929 . S
C199 C198 1.457 . S
C199 C200 1.291 . S
C199 H212 0.931 . S
C200 C199 1.291 . S
C200 C201 1.373 . S
C200 H213 0.929 . S
C201 C200 1.373 . S
C201 C202 1.396 . S
C201 C208 1.403 . S
C202 C192 1.476 . S
C202 N197 1.318 . S
C202 C201 1.396 . S
H203 C198 0.929 . S
O204 Mn180 2.385 . S
O204 C182 1.234 . S
O205 Mn180 2.209 . S
O205 Mn181 2.215 1_556 S
O205 C182 1.283 . S
O206 Mn180 2.094 1_554 S
O206 C184 1.240 . S
O207 Mn181 2.117 . S
O207 C184 1.264 . S
C208 C201 1.403 . S
C208 C209 1.399 . S
C208 H214 0.929 . S
C209 C189 1.449 . S
C209 C208 1.399 . S
C209 H215 0.930 . S
H210 C190 0.931 . S
H211 C191 0.930 . S
H212 C199 0.931 . S
H213 C200 0.929 . S
H214 C208 0.929 . S
H215 C209 0.930 . S
Mn216 O221 2.095 . S
Mn216 O231 2.162 . S
Mn216 O232 2.297 . S
Mn216 O240 2.385 . S
Mn216 O241 2.209 . S
Mn216 O242 2.094 . S
Mn217 O222 2.121 . S
Mn217 N224 2.257 . S
Mn217 N233 2.282 . S
Mn217 O241 2.215 . S
Mn217 O243 2.117 . S
C218 O240 1.234 . S
C218 O241 1.283 . S
C219 O231 1.281 . S
C219 O232 1.236 . S
C220 O242 1.240 . S
C220 O243 1.264 . S
O221 Mn216 2.095 . S
O221 C230 1.250 . S
O222 Mn217 2.121 . S
O222 C230 1.258 . S
C223 N224 1.326 . S
C223 C227 1.460 . S
C223 H229 0.929 . S
N224 Mn217 2.257 . S
N224 C223 1.326 . S
N224 C228 1.362 . S
C225 C226 1.258 . S
C225 C228 1.431 . S
C225 C245 1.449 . S
C226 C225 1.258 . S
C226 C227 1.477 . S
C226 H246 0.931 . S
C227 C223 1.460 . S
C227 C226 1.477 . S
C227 H247 0.930 . S
C228 N224 1.362 . S
C228 C225 1.431 . S
C228 C238 1.476 . S
H229 C223 0.929 . S
C230 O221 1.250 . S
C230 O222 1.258 . S
O231 Mn216 2.162 . S
O231 C219 1.281 . S
O232 Mn216 2.297 . S
O232 C219 1.236 . S
N233 Mn217 2.282 . S
N233 C234 1.328 . S
N233 C238 1.318 . S
C234 N233 1.328 . S
C234 C235 1.457 . S
C234 H239 0.929 . S
C235 C234 1.457 . S
C235 C236 1.291 . S
C235 H248 0.931 . S
C236 C235 1.291 . S
C236 C237 1.373 . S
C236 H249 0.929 . S
C237 C236 1.373 . S
C237 C238 1.396 . S
C237 C244 1.403 . S
C238 C228 1.476 . S
C238 N233 1.318 . S
C238 C237 1.396 . S
H239 C234 0.929 . S
O240 Mn216 2.385 . S
O240 C218 1.234 . S
O241 Mn216 2.209 . S
O241 Mn217 2.215 . S
O241 C218 1.283 . S
O242 Mn216 2.094 . S
O242 C220 1.240 . S
O243 Mn217 2.117 . S
O243 C220 1.264 . S
C244 C237 1.403 . S
C244 C245 1.399 . S
C244 H250 0.929 . S
C245 C225 1.449 . S
C245 C244 1.399 . S
C245 H251 0.930 . S
H246 C226 0.931 . S
H247 C227 0.930 . S
H248 C235 0.931 . S
H249 C236 0.929 . S
H250 C244 0.929 . S
H251 C245 0.930 . S
Mn252 O257 2.095 . S
Mn252 O267 2.162 . S
Mn252 O268 2.297 . S
Mn252 O276 2.385 . S
Mn252 O277 2.209 . S
Mn252 O278 2.094 . S
Mn253 O258 2.121 . S
Mn253 N260 2.257 . S
Mn253 N269 2.282 . S
Mn253 O277 2.215 . S
Mn253 O279 2.117 . S
C254 O276 1.234 . S
C254 O277 1.283 . S
C255 O267 1.281 . S
C255 O268 1.236 . S
C256 O278 1.240 . S
C256 O279 1.264 . S
O257 Mn252 2.095 . S
O257 C266 1.250 . S
O258 Mn253 2.121 . S
O258 C266 1.258 . S
C259 N260 1.326 . S
C259 C263 1.460 . S
C259 H265 0.929 . S
N260 Mn253 2.257 . S
N260 C259 1.326 . S
N260 C264 1.362 . S
C261 C262 1.258 . S
C261 C264 1.431 . S
C261 C281 1.449 . S
C262 C261 1.258 . S
C262 C263 1.477 . S
C262 H282 0.931 . S
C263 C259 1.460 . S
C263 C262 1.477 . S
C263 H283 0.930 . S
C264 N260 1.362 . S
C264 C261 1.431 . S
C264 C274 1.476 . S
H265 C259 0.929 . S
C266 O257 1.250 . S
C266 O258 1.258 . S
O267 Mn252 2.162 . S
O267 C255 1.281 . S
O268 Mn252 2.297 . S
O268 C255 1.236 . S
N269 Mn253 2.282 . S
N269 C270 1.328 . S
N269 C274 1.318 . S
C270 N269 1.328 . S
C270 C271 1.457 . S
C270 H275 0.929 . S
C271 C270 1.457 . S
C271 C272 1.291 . S
C271 H284 0.931 . S
C272 C271 1.291 . S
C272 C273 1.373 . S
C272 H285 0.929 . S
C273 C272 1.373 . S
C273 C274 1.396 . S
C273 C280 1.403 . S
C274 C264 1.476 . S
C274 N269 1.318 . S
C274 C273 1.396 . S
H275 C270 0.929 . S
O276 Mn252 2.385 . S
O276 C254 1.234 . S
O277 Mn252 2.209 . S
O277 Mn253 2.215 . S
O277 C254 1.283 . S
O278 Mn252 2.094 . S
O278 C256 1.240 . S
O279 Mn253 2.117 . S
O279 C256 1.264 . S
C280 C273 1.403 . S
C280 C281 1.399 . S
C280 H286 0.929 . S
C281 C261 1.449 . S
C281 C280 1.399 . S
C281 H287 0.930 . S
H282 C262 0.931 . S
H283 C263 0.930 . S
H284 C271 0.931 . S
H285 C272 0.929 . S
H286 C280 0.929 . S
H287 C281 0.930 . S
Mn288 O293 2.095 . S
Mn288 O303 2.162 . S
Mn288 O304 2.297 . S
Mn288 O312 2.385 . S
Mn288 O313 2.209 . S
Mn288 O314 2.094 1_554 S
Mn289 O294 2.121 1_556 S
Mn289 N296 2.257 . S
Mn289 N305 2.282 . S
Mn289 O313 2.215 1_556 S
Mn289 O315 2.117 . S
C290 O312 1.234 . S
C290 O313 1.283 . S
C291 O303 1.281 . S
C291 O304 1.236 . S
C292 O314 1.240 . S
C292 O315 1.264 . S
O293 Mn288 2.095 . S
O293 C302 1.250 . S
O294 Mn289 2.121 1_554 S
O294 C302 1.258 . S
C295 N296 1.326 1_554 S
C295 C299 1.460 . S
C295 H301 0.929 . S
N296 Mn289 2.257 . S
N296 C295 1.326 1_556 S
N296 C300 1.362 . S
C297 C298 1.258 1_556 S
C297 C300 1.431 . S
C297 C317 1.449 . S
C298 C297 1.258 1_554 S
C298 C299 1.477 . S
C298 H318 0.931 . S
C299 C295 1.460 . S
C299 C298 1.477 . S
C299 H319 0.930 . S
C300 N296 1.362 . S
C300 C297 1.431 . S
C300 C310 1.476 . S
H301 C295 0.929 . S
C302 O293 1.250 . S
C302 O294 1.258 . S
O303 Mn288 2.162 . S
O303 C291 1.281 . S
O304 Mn288 2.297 . S
O304 C291 1.236 . S
N305 Mn289 2.282 . S
N305 C306 1.328 . S
N305 C310 1.318 . S
C306 N305 1.328 . S
C306 C307 1.457 . S
C306 H311 0.929 . S
C307 C306 1.457 . S
C307 C308 1.291 . S
C307 H320 0.931 . S
C308 C307 1.291 . S
C308 C309 1.373 . S
C308 H321 0.929 . S
C309 C308 1.373 . S
C309 C310 1.396 . S
C309 C316 1.403 . S
C310 C300 1.476 . S
C310 N305 1.318 . S
C310 C309 1.396 . S
H311 C306 0.929 . S
O312 Mn288 2.385 . S
O312 C290 1.234 . S
O313 Mn288 2.209 . S
O313 Mn289 2.215 1_554 S
O313 C290 1.283 . S
O314 Mn288 2.094 1_556 S
O314 C292 1.240 . S
O315 Mn289 2.117 . S
O315 C292 1.264 . S
C316 C309 1.403 . S
C316 C317 1.399 . S
C316 H322 0.929 . S
C317 C297 1.449 . S
C317 C316 1.399 . S
C317 H323 0.930 . S
H318 C298 0.931 . S
H319 C299 0.930 . S
H320 C307 0.931 . S
H321 C308 0.929 . S
H322 C316 0.929 . S
H323 C317 0.930 . S
Mn324 O329 2.095 . S
Mn324 O339 2.162 . S
Mn324 O340 2.297 . S
Mn324 O348 2.385 . S
Mn324 O349 2.209 . S
Mn324 O350 2.094 . S
Mn325 O330 2.121 . S
Mn325 N332 2.257 . S
Mn325 N341 2.282 . S
Mn325 O349 2.215 . S
Mn325 O351 2.117 . S
C326 O348 1.234 . S
C326 O349 1.283 . S
C327 O339 1.281 . S
C327 O340 1.236 . S
C328 O350 1.240 . S
C328 O351 1.264 . S
O329 Mn324 2.095 . S
O329 C338 1.250 . S
O330 Mn325 2.121 . S
O330 C338 1.258 . S
C331 N332 1.326 . S
C331 C335 1.460 . S
C331 H337 0.929 . S
N332 Mn325 2.257 . S
N332 C331 1.326 . S
N332 C336 1.362 . S
C333 C334 1.258 . S
C333 C336 1.431 . S
C333 C353 1.449 . S
C334 C333 1.258 . S
C334 C335 1.477 . S
C334 H354 0.931 . S
C335 C331 1.460 . S
C335 C334 1.477 . S
C335 H355 0.930 . S
C336 N332 1.362 . S
C336 C333 1.431 . S
C336 C346 1.476 . S
H337 C331 0.929 . S
C338 O329 1.250 . S
C338 O330 1.258 . S
O339 Mn324 2.162 . S
O339 C327 1.281 . S
O340 Mn324 2.297 . S
O340 C327 1.236 . S
N341 Mn325 2.282 . S
N341 C342 1.328 . S
N341 C346 1.318 . S
C342 N341 1.328 . S
C342 C343 1.457 . S
C342 H347 0.929 . S
C343 C342 1.457 . S
C343 C344 1.291 . S
C343 H356 0.931 . S
C344 C343 1.291 . S
C344 C345 1.373 . S
C344 H357 0.929 . S
C345 C344 1.373 . S
C345 C346 1.396 . S
C345 C352 1.403 . S
C346 C336 1.476 . S
C346 N341 1.318 . S
C346 C345 1.396 . S
H347 C342 0.929 . S
O348 Mn324 2.385 . S
O348 C326 1.234 . S
O349 Mn324 2.209 . S
O349 Mn325 2.215 . S
O349 C326 1.283 . S
O350 Mn324 2.094 . S
O350 C328 1.240 . S
O351 Mn325 2.117 . S
O351 C328 1.264 . S
C352 C345 1.403 . S
C352 C353 1.399 . S
C352 H358 0.929 . S
C353 C333 1.449 . S
C353 C352 1.399 . S
C353 H359 0.930 . S
H354 C334 0.931 . S
H355 C335 0.930 . S
H356 C343 0.931 . S
H357 C344 0.929 . S
H358 C352 0.929 . S
H359 C353 0.930 . S
Mn360 O365 2.095 . S
Mn360 O375 2.162 . S
Mn360 O376 2.297 . S
Mn360 O384 2.385 . S
Mn360 O385 2.209 . S
Mn360 O386 2.094 . S
Mn361 O366 2.121 . S
Mn361 N368 2.257 . S
Mn361 N377 2.282 . S
Mn361 O385 2.215 . S
Mn361 O387 2.117 . S
C362 O384 1.234 . S
C362 O385 1.283 . S
C363 O375 1.281 . S
C363 O376 1.236 . S
C364 O386 1.240 . S
C364 O387 1.264 . S
O365 Mn360 2.095 . S
O365 C374 1.250 . S
O366 Mn361 2.121 . S
O366 C374 1.258 . S
C367 N368 1.326 . S
C367 C371 1.460 . S
C367 H373 0.929 . S
N368 Mn361 2.257 . S
N368 C367 1.326 . S
N368 C372 1.362 . S
C369 C370 1.258 . S
C369 C372 1.431 . S
C369 C389 1.449 . S
C370 C369 1.258 . S
C370 C371 1.477 . S
C370 H390 0.931 . S
C371 C367 1.460 . S
C371 C370 1.477 . S
C371 H391 0.930 . S
C372 N368 1.362 . S
C372 C369 1.431 . S
C372 C382 1.476 . S
H373 C367 0.929 . S
C374 O365 1.250 . S
C374 O366 1.258 . S
O375 Mn360 2.162 . S
O375 C363 1.281 . S
O376 Mn360 2.297 . S
O376 C363 1.236 . S
N377 Mn361 2.282 . S
N377 C378 1.328 . S
N377 C382 1.318 . S
C378 N377 1.328 . S
C378 C379 1.457 . S
C378 H383 0.929 . S
C379 C378 1.457 . S
C379 C380 1.291 . S
C379 H392 0.931 . S
C380 C379 1.291 . S
C380 C381 1.373 . S
C380 H393 0.929 . S
C381 C380 1.373 . S
C381 C382 1.396 . S
C381 C388 1.403 . S
C382 C372 1.476 . S
C382 N377 1.318 . S
C382 C381 1.396 . S
H383 C378 0.929 . S
O384 Mn360 2.385 . S
O384 C362 1.234 . S
O385 Mn360 2.209 . S
O385 Mn361 2.215 . S
O385 C362 1.283 . S
O386 Mn360 2.094 . S
O386 C364 1.240 . S
O387 Mn361 2.117 . S
O387 C364 1.264 . S
C388 C381 1.403 . S
C388 C389 1.399 . S
C388 H394 0.929 . S
C389 C369 1.449 . S
C389 C388 1.399 . S
C389 H395 0.930 . S
H390 C370 0.931 . S
H391 C371 0.930 . S
H392 C379 0.931 . S
H393 C380 0.929 . S
H394 C388 0.929 . S
H395 C389 0.930 . S
Mn396 O401 2.095 . S
Mn396 O411 2.162 . S
Mn396 O412 2.297 . S
Mn396 O420 2.385 . S
Mn396 O421 2.209 . S
Mn396 O422 2.094 1_554 S
Mn397 O402 2.121 1_556 S
Mn397 N404 2.257 . S
Mn397 N413 2.282 . S
Mn397 O421 2.215 1_556 S
Mn397 O423 2.117 . S
C398 O420 1.234 . S
C398 O421 1.283 . S
C399 O411 1.281 . S
C399 O412 1.236 . S
C400 O422 1.240 . S
C400 O423 1.264 . S
O401 Mn396 2.095 . S
O401 C410 1.250 . S
O402 Mn397 2.121 1_554 S
O402 C410 1.258 . S
C403 N404 1.326 1_554 S
C403 C407 1.460 . S
C403 H409 0.929 . S
N404 Mn397 2.257 . S
N404 C403 1.326 1_556 S
N404 C408 1.362 . S
C405 C406 1.258 1_556 S
C405 C408 1.431 . S
C405 C425 1.449 . S
C406 C405 1.258 1_554 S
C406 C407 1.477 . S
C406 H426 0.931 . S
C407 C403 1.460 . S
C407 C406 1.477 . S
C407 H427 0.930 . S
C408 N404 1.362 . S
C408 C405 1.431 . S
C408 C418 1.476 . S
H409 C403 0.929 . S
C410 O401 1.250 . S
C410 O402 1.258 . S
O411 Mn396 2.162 . S
O411 C399 1.281 . S
O412 Mn396 2.297 . S
O412 C399 1.236 . S
N413 Mn397 2.282 . S
N413 C414 1.328 . S
N413 C418 1.318 . S
C414 N413 1.328 . S
C414 C415 1.457 . S
C414 H419 0.929 . S
C415 C414 1.457 . S
C415 C416 1.291 . S
C415 H428 0.931 . S
C416 C415 1.291 . S
C416 C417 1.373 . S
C416 H429 0.929 . S
C417 C416 1.373 . S
C417 C418 1.396 . S
C417 C424 1.403 . S
C418 C408 1.476 . S
C418 N413 1.318 . S
C418 C417 1.396 . S
H419 C414 0.929 . S
O420 Mn396 2.385 . S
O420 C398 1.234 . S
O421 Mn396 2.209 . S
O421 Mn397 2.215 1_554 S
O421 C398 1.283 . S
O422 Mn396 2.094 1_556 S
O422 C400 1.240 . S
O423 Mn397 2.117 . S
O423 C400 1.264 . S
C424 C417 1.403 . S
C424 C425 1.399 . S
C424 H430 0.929 . S
C425 C405 1.449 . S
C425 C424 1.399 . S
C425 H431 0.930 . S
H426 C406 0.931 . S
H427 C407 0.930 . S
H428 C415 0.931 . S
H429 C416 0.929 . S
H430 C424 0.929 . S
H431 C425 0.930 . S
H432 C440 0.950 . S
H433 C445 0.950 . S
H434 C442 0.950 . S
H435 C444 0.950 . S
H436 C446 0.950 . S
H437 C448 0.950 . S
H438 C450 0.950 . S
H439 C451 0.950 . S
C440 H432 0.950 . S
C440 C441 1.386 . S
C440 C442 1.391 . S
C441 C440 1.386 . S
C441 C445 1.393 . S
C442 H434 0.950 . S
C442 C440 1.391 . S
C442 C443 1.400 . S
C443 C442 1.400 . S
C443 C444 1.398 . S
C443 C449 1.491 . S
C444 H435 0.950 . S
C444 C443 1.398 . S
C444 C445 1.391 . S
C445 H433 0.950 . S
C445 C441 1.393 . S
C445 C444 1.391 . S
C446 H436 0.950 . S
C446 C447 1.386 . S
C446 C448 1.391 . S
C447 C446 1.386 . S
C447 C451 1.393 . S
C448 H437 0.950 . S
C448 C446 1.391 . S
C448 C449 1.400 . S
C449 C443 1.491 . S
C449 C448 1.400 . S
C449 C450 1.398 . S
C450 H438 0.950 . S
C450 C449 1.398 . S
C450 C451 1.391 . S
C451 H439 0.950 . S
C451 C447 1.393 . S
C451 C450 1.391 . S
H452 C460 0.950 . S
H453 C465 0.950 . S
H454 C462 0.950 . S
H455 C464 0.950 . S
H456 C466 0.950 . S
H457 C468 0.950 . S
H458 C470 0.950 . S
H459 C471 0.950 . S
C460 H452 0.950 . S
C460 C461 1.386 . S
C460 C462 1.391 . S
C461 C460 1.386 . S
C461 C465 1.393 . S
C462 H454 0.950 . S
C462 C460 1.391 . S
C462 C463 1.400 . S
C463 C462 1.400 . S
C463 C464 1.398 . S
C463 C469 1.491 . S
C464 H455 0.950 . S
C464 C463 1.398 . S
C464 C465 1.391 . S
C465 H453 0.950 . S
C465 C461 1.393 . S
C465 C464 1.391 . S
C466 H456 0.950 . S
C466 C467 1.386 . S
C466 C468 1.391 . S
C467 C466 1.386 . S
C467 C471 1.393 . S
C468 H457 0.950 . S
C468 C466 1.391 . S
C468 C469 1.400 . S
C469 C463 1.491 . S
C469 C468 1.400 . S
C469 C470 1.398 . S
C470 H458 0.950 . S
C470 C469 1.398 . S
C470 C471 1.391 . S
C471 H459 0.950 . S
C471 C467 1.393 . S
C471 C470 1.391 . S
H472 C480 0.950 . S
H473 C485 0.950 . S
H474 C482 0.950 . S
H475 C484 0.950 . S
H476 C486 0.950 . S
H477 C488 0.950 . S
H478 C490 0.950 . S
H479 C491 0.950 . S
C480 H472 0.950 . S
C480 C481 1.386 . S
C480 C482 1.391 . S
C481 C480 1.386 . S
C481 C485 1.393 . S
C482 H474 0.950 . S
C482 C480 1.391 . S
C482 C483 1.400 . S
C483 C482 1.400 . S
C483 C484 1.398 . S
C483 C489 1.491 . S
C484 H475 0.950 . S
C484 C483 1.398 . S
C484 C485 1.391 . S
C485 H473 0.950 . S
C485 C481 1.393 . S
C485 C484 1.391 . S
C486 H476 0.950 . S
C486 C487 1.386 . S
C486 C488 1.391 . S
C487 C486 1.386 . S
C487 C491 1.393 . S
C488 H477 0.950 . S
C488 C486 1.391 . S
C488 C489 1.400 . S
C489 C483 1.491 . S
C489 C488 1.400 . S
C489 C490 1.398 . S
C490 H478 0.950 . S
C490 C489 1.398 . S
C490 C491 1.391 . S
C491 H479 0.950 . S
C491 C487 1.393 . S
C491 C490 1.391 . S
H492 C500 0.950 . S
H493 C505 0.950 . S
H494 C502 0.950 . S
H495 C504 0.950 . S
H496 C506 0.950 . S
H497 C508 0.950 . S
H498 C510 0.950 . S
H499 C511 0.950 . S
C500 H492 0.950 . S
C500 C501 1.386 . S
C500 C502 1.391 . S
C501 C500 1.386 . S
C501 C505 1.393 . S
C502 H494 0.950 . S
C502 C500 1.391 . S
C502 C503 1.400 . S
C503 C502 1.400 . S
C503 C504 1.398 . S
C503 C509 1.491 . S
C504 H495 0.950 . S
C504 C503 1.398 . S
C504 C505 1.391 . S
C505 H493 0.950 . S
C505 C501 1.393 . S
C505 C504 1.391 . S
C506 H496 0.950 . S
C506 C507 1.386 . S
C506 C508 1.391 . S
C507 C506 1.386 . S
C507 C511 1.393 . S
C508 H497 0.950 . S
C508 C506 1.391 . S
C508 C509 1.400 . S
C509 C503 1.491 . S
C509 C508 1.400 . S
C509 C510 1.398 . S
C510 H498 0.950 . S
C510 C509 1.398 . S
C510 C511 1.391 . S
C511 H499 0.950 . S
C511 C507 1.393 . S
C511 C510 1.391 . S
H512 C520 0.950 . S
H513 C525 0.950 . S
H514 C522 0.950 . S
H515 C524 0.950 . S
H516 C526 0.950 . S
H517 C528 0.950 . S
H518 C530 0.950 . S
H519 C531 0.950 . S
C520 H512 0.950 . S
C520 C521 1.386 . S
C520 C522 1.391 . S
C521 C520 1.386 . S
C521 C525 1.393 . S
C522 H514 0.950 . S
C522 C520 1.391 . S
C522 C523 1.400 . S
C523 C522 1.400 . S
C523 C524 1.398 . S
C523 C529 1.491 . S
C524 H515 0.950 . S
C524 C523 1.398 . S
C524 C525 1.391 . S
C525 H513 0.950 . S
C525 C521 1.393 . S
C525 C524 1.391 . S
C526 H516 0.950 . S
C526 C527 1.386 . S
C526 C528 1.391 . S
C527 C526 1.386 . S
C527 C531 1.393 . S
C528 H517 0.950 . S
C528 C526 1.391 . S
C528 C529 1.400 . S
C529 C523 1.491 . S
C529 C528 1.400 . S
C529 C530 1.398 . S
C530 H518 0.950 . S
C530 C529 1.398 . S
C530 C531 1.391 . S
C531 H519 0.950 . S
C531 C527 1.393 . S
C531 C530 1.391 . S
H532 C540 0.950 . S
H533 C545 0.950 . S
H534 C542 0.950 . S
H535 C544 0.950 . S
H536 C546 0.950 . S
H537 C548 0.950 . S
H538 C550 0.950 . S
H539 C551 0.950 . S
C540 H532 0.950 . S
C540 C541 1.386 . S
C540 C542 1.391 . S
C541 C540 1.386 . S
C541 C545 1.393 . S
C542 H534 0.950 . S
C542 C540 1.391 . S
C542 C543 1.400 . S
C543 C542 1.400 . S
C543 C544 1.398 . S
C543 C549 1.491 . S
C544 H535 0.950 . S
C544 C543 1.398 . S
C544 C545 1.391 . S
C545 H533 0.950 . S
C545 C541 1.393 . S
C545 C544 1.391 . S
C546 H536 0.950 . S
C546 C547 1.386 . S
C546 C548 1.391 . S
C547 C546 1.386 . S
C547 C551 1.393 . S
C548 H537 0.950 . S
C548 C546 1.391 . S
C548 C549 1.400 . S
C549 C543 1.491 . S
C549 C548 1.400 . S
C549 C550 1.398 . S
C550 H538 0.950 . S
C550 C549 1.398 . S
C550 C551 1.391 . S
C551 H539 0.950 . S
C551 C547 1.393 . S
C551 C550 1.391 . S
H552 C560 0.950 . S
H553 C565 0.950 . S
H554 C562 0.950 . S
H555 C564 0.950 . S
H556 C566 0.950 . S
H557 C568 0.950 . S
H558 C570 0.950 . S
H559 C571 0.950 . S
C560 H552 0.950 . S
C560 C561 1.386 . S
C560 C562 1.391 . S
C561 C560 1.386 . S
C561 C565 1.393 . S
C562 H554 0.950 . S
C562 C560 1.391 . S
C562 C563 1.400 . S
C563 C562 1.400 . S
C563 C564 1.398 . S
C563 C569 1.491 . S
C564 H555 0.950 . S
C564 C563 1.398 . S
C564 C565 1.391 . S
C565 H553 0.950 . S
C565 C561 1.393 . S
C565 C564 1.391 . S
C566 H556 0.950 . S
C566 C567 1.386 . S
C566 C568 1.391 . S
C567 C566 1.386 . S
C567 C571 1.393 . S
C568 H557 0.950 . S
C568 C566 1.391 . S
C568 C569 1.400 . S
C569 C563 1.491 . S
C569 C568 1.400 . S
C569 C570 1.398 . S
C570 H558 0.950 . S
C570 C569 1.398 . S
C570 C571 1.391 . S
C571 H559 0.950 . S
C571 C567 1.393 . S
C571 C570 1.391 . S
H572 C580 0.950 . S
H573 C585 0.950 . S
H574 C582 0.950 . S
H575 C584 0.950 . S
H576 C586 0.950 . S
H577 C588 0.950 . S
H578 C590 0.950 . S
H579 C591 0.950 . S
C580 H572 0.950 . S
C580 C581 1.386 . S
C580 C582 1.391 . S
C581 C580 1.386 . S
C581 C585 1.393 . S
C582 H574 0.950 . S
C582 C580 1.391 . S
C582 C583 1.400 . S
C583 C582 1.400 . S
C583 C584 1.398 . S
C583 C589 1.491 . S
C584 H575 0.950 . S
C584 C583 1.398 . S
C584 C585 1.391 . S
C585 H573 0.950 . S
C585 C581 1.393 . S
C585 C584 1.391 . S
C586 H576 0.950 . S
C586 C587 1.386 . S
C586 C588 1.391 . S
C587 C586 1.386 . S
C587 C591 1.393 . S
C588 H577 0.950 . S
C588 C586 1.391 . S
C588 C589 1.400 . S
C589 C583 1.491 . S
C589 C588 1.400 . S
C589 C590 1.398 . S
C590 H578 0.950 . S
C590 C589 1.398 . S
C590 C591 1.391 . S
C591 H579 0.950 . S
C591 C587 1.393 . S
C591 C590 1.391 . S
H592 C600 0.950 . S
H593 C605 0.950 . S
H594 C602 0.950 . S
H595 C604 0.950 . S
H596 C606 0.950 . S
H597 C608 0.950 . S
H598 C610 0.950 . S
H599 C611 0.950 . S
C600 H592 0.950 . S
C600 C601 1.386 1_556 S
C600 C602 1.391 . S
C601 C600 1.386 1_554 S
C601 C605 1.393 . S
C602 H594 0.950 . S
C602 C600 1.391 . S
C602 C603 1.400 1_556 S
C603 C602 1.400 1_554 S
C603 C604 1.398 . S
C603 C609 1.491 1_554 S
C604 H595 0.950 . S
C604 C603 1.398 . S
C604 C605 1.391 . S
C605 H593 0.950 . S
C605 C601 1.393 . S
C605 C604 1.391 . S
C606 H596 0.950 . S
C606 C607 1.386 1_554 S
C606 C608 1.391 . S
C607 C606 1.386 1_556 S
C607 C611 1.393 . S
C608 H597 0.950 . S
C608 C606 1.391 . S
C608 C609 1.400 1_554 S
C609 C603 1.491 1_556 S
C609 C608 1.400 1_556 S
C609 C610 1.398 . S
C610 H598 0.950 . S
C610 C609 1.398 . S
C610 C611 1.391 . S
C611 H599 0.950 . S
C611 C607 1.393 . S
C611 C610 1.391 . S
H612 C620 0.950 . S
H613 C625 0.950 . S
H614 C622 0.950 . S
H615 C624 0.950 . S
H616 C626 0.950 . S
H617 C628 0.950 . S
H618 C630 0.950 . S
H619 C631 0.950 . S
C620 H612 0.950 . S
C620 C621 1.386 . S
C620 C622 1.391 . S
C621 C620 1.386 . S
C621 C625 1.393 . S
C622 H614 0.950 . S
C622 C620 1.391 . S
C622 C623 1.400 . S
C623 C622 1.400 . S
C623 C624 1.398 . S
C623 C629 1.491 . S
C624 H615 0.950 . S
C624 C623 1.398 . S
C624 C625 1.391 . S
C625 H613 0.950 . S
C625 C621 1.393 . S
C625 C624 1.391 . S
C626 H616 0.950 . S
C626 C627 1.386 . S
C626 C628 1.391 . S
C627 C626 1.386 . S
C627 C631 1.393 . S
C628 H617 0.950 . S
C628 C626 1.391 . S
C628 C629 1.400 . S
C629 C623 1.491 . S
C629 C628 1.400 . S
C629 C630 1.398 . S
C630 H618 0.950 . S
C630 C629 1.398 . S
C630 C631 1.391 . S
C631 H619 0.950 . S
C631 C627 1.393 . S
C631 C630 1.391 . S
H632 C640 0.950 . S
H633 C645 0.950 . S
H634 C642 0.950 . S
H635 C644 0.950 . S
H636 C646 0.950 . S
H637 C648 0.950 . S
H638 C650 0.950 . S
H639 C651 0.950 . S
C640 H632 0.950 . S
C640 C641 1.386 . S
C640 C642 1.391 . S
C641 C640 1.386 . S
C641 C645 1.393 . S
C642 H634 0.950 . S
C642 C640 1.391 . S
C642 C643 1.400 . S
C643 C642 1.400 . S
C643 C644 1.398 . S
C643 C649 1.491 . S
C644 H635 0.950 . S
C644 C643 1.398 . S
C644 C645 1.391 . S
C645 H633 0.950 . S
C645 C641 1.393 . S
C645 C644 1.391 . S
C646 H636 0.950 . S
C646 C647 1.386 . S
C646 C648 1.391 . S
C647 C646 1.386 . S
C647 C651 1.393 . S
C648 H637 0.950 . S
C648 C646 1.391 . S
C648 C649 1.400 . S
C649 C643 1.491 . S
C649 C648 1.400 . S
C649 C650 1.398 . S
C650 H638 0.950 . S
C650 C649 1.398 . S
C650 C651 1.391 . S
C651 H639 0.950 . S
C651 C647 1.393 . S
C651 C650 1.391 . S
H652 C660 0.950 . S
H653 C665 0.950 . S
H654 C662 0.950 . S
H655 C664 0.950 . S
H656 C666 0.950 . S
H657 C668 0.950 . S
H658 C670 0.950 . S
H659 C671 0.950 . S
C660 H652 0.950 . S
C660 C661 1.386 . S
C660 C662 1.391 . S
C661 C660 1.386 . S
C661 C665 1.393 1_556 S
C662 H654 0.950 . S
C662 C660 1.391 . S
C662 C663 1.400 . S
C663 C662 1.400 . S
C663 C664 1.398 1_556 S
C663 C669 1.491 1_556 S
C664 H655 0.950 . S
C664 C663 1.398 1_554 S
C664 C665 1.391 . S
C665 H653 0.950 . S
C665 C661 1.393 1_554 S
C665 C664 1.391 . S
C666 H656 0.950 . S
C666 C667 1.386 . S
C666 C668 1.391 . S
C667 C666 1.386 . S
C667 C671 1.393 1_554 S
C668 H657 0.950 . S
C668 C666 1.391 . S
C668 C669 1.400 . S
C669 C663 1.491 1_554 S
C669 C668 1.400 . S
C669 C670 1.398 1_554 S
C670 H658 0.950 . S
C670 C669 1.398 1_556 S
C670 C671 1.391 . S
C671 H659 0.950 . S
C671 C667 1.393 1_556 S
C671 C670 1.391 . S
H672 C680 0.950 . S
H673 C685 0.950 . S
H674 C682 0.950 . S
H675 C684 0.950 . S
H676 C686 0.950 . S
H677 C688 0.950 . S
H678 C690 0.950 . S
H679 C691 0.950 . S
C680 H672 0.950 . S
C680 C681 1.386 . S
C680 C682 1.391 . S
C681 C680 1.386 . S
C681 C685 1.393 . S
C682 H674 0.950 . S
C682 C680 1.391 . S
C682 C683 1.400 . S
C683 C682 1.400 . S
C683 C684 1.398 . S
C683 C689 1.491 1_545 S
C684 H675 0.950 . S
C684 C683 1.398 . S
C684 C685 1.391 . S
C685 H673 0.950 . S
C685 C681 1.393 . S
C685 C684 1.391 . S
C686 H676 0.950 . S
C686 C687 1.386 . S
C686 C688 1.391 . S
C687 C686 1.386 . S
C687 C691 1.393 . S
C688 H677 0.950 . S
C688 C686 1.391 . S
C688 C689 1.400 . S
C689 C683 1.491 1_565 S
C689 C688 1.400 . S
C689 C690 1.398 . S
C690 H678 0.950 . S
C690 C689 1.398 . S
C690 C691 1.391 . S
C691 H679 0.950 . S
C691 C687 1.393 . S
C691 C690 1.391 . S
H692 C700 0.950 . S
H693 C705 0.950 . S
H694 C702 0.950 . S
H695 C704 0.950 . S
H696 C706 0.950 . S
H697 C708 0.950 . S
H698 C710 0.950 . S
H699 C711 0.950 . S
C700 H692 0.950 . S
C700 C701 1.386 . S
C700 C702 1.391 . S
C701 C700 1.386 . S
C701 C705 1.393 . S
C702 H694 0.950 . S
C702 C700 1.391 . S
C702 C703 1.400 . S
C703 C702 1.400 . S
C703 C704 1.398 . S
C703 C709 1.491 . S
C704 H695 0.950 . S
C704 C703 1.398 . S
C704 C705 1.391 . S
C705 H693 0.950 . S
C705 C701 1.393 . S
C705 C704 1.391 . S
C706 H696 0.950 . S
C706 C707 1.386 . S
C706 C708 1.391 . S
C707 C706 1.386 . S
C707 C711 1.393 . S
C708 H697 0.950 . S
C708 C706 1.391 . S
C708 C709 1.400 . S
C709 C703 1.491 . S
C709 C708 1.400 . S
C709 C710 1.398 . S
C710 H698 0.950 . S
C710 C709 1.398 . S
C710 C711 1.391 . S
C711 H699 0.950 . S
C711 C707 1.393 . S
C711 C710 1.391 . S
H712 C720 0.950 1_554 S
H713 C725 0.950 . S
H714 C722 0.950 1_554 S
H715 C724 0.950 . S
H716 C726 0.950 . S
H717 C728 0.950 . S
H718 C730 0.935 1_554 S
H719 C731 0.938 1_554 S
C720 H712 0.950 1_556 S
C720 C721 1.386 . S
C720 C722 1.391 . S
C721 C720 1.386 . S
C721 C725 1.393 . S
C722 H714 0.950 1_556 S
C722 C720 1.391 . S
C722 C723 1.400 . S
C723 C722 1.400 . S
C723 C724 1.398 . S
C723 C729 1.491 1_655 S
C724 H715 0.950 . S
C724 C723 1.398 . S
C724 C725 1.391 . S
C725 H713 0.950 . S
C725 C721 1.393 . S
C725 C724 1.391 . S
C726 H716 0.950 . S
C726 C727 1.386 . S
C726 C728 1.391 . S
C727 C726 1.386 . S
C727 C731 1.404 . S
C728 H717 0.950 . S
C728 C726 1.391 . S
C728 C729 1.400 . S
C729 C723 1.491 1_455 S
C729 C728 1.400 . S
C729 C730 1.413 . S
C730 H718 0.935 1_556 S
C730 C729 1.413 . S
C730 C731 1.391 . S
C731 H719 0.938 1_556 S
C731 C727 1.404 . S
C731 C730 1.391 . S
H732 C740 0.950 . S
H733 C745 0.950 . S
H734 C742 0.950 . S
H735 C744 0.950 . S
H736 C746 0.950 . S
H737 C748 0.950 . S
H738 C750 0.950 . S
H739 C751 0.950 . S
C740 H732 0.950 . S
C740 C741 1.386 . S
C740 C742 1.391 . S
C741 C740 1.386 . S
C741 C745 1.393 . S
C742 H734 0.950 . S
C742 C740 1.391 . S
C742 C743 1.400 . S
C743 C742 1.400 . S
C743 C744 1.398 . S
C743 C749 1.491 1_455 S
C744 H735 0.950 . S
C744 C743 1.398 . S
C744 C745 1.391 . S
C745 H733 0.950 . S
C745 C741 1.393 . S
C745 C744 1.391 . S
C746 H736 0.950 . S
C746 C747 1.386 . S
C746 C748 1.391 . S
C747 C746 1.386 . S
C747 C751 1.393 . S
C748 H737 0.950 . S
C748 C746 1.391 . S
C748 C749 1.400 . S
C749 C743 1.491 1_655 S
C749 C748 1.400 . S
C749 C750 1.398 . S
C750 H738 0.950 . S
C750 C749 1.398 . S
C750 C751 1.391 . S
C751 H739 0.950 . S
C751 C747 1.393 . S
C751 C750 1.391 . S
H752 C760 0.950 . S
H753 C765 0.950 . S
H754 C762 0.950 . S
H755 C764 0.950 . S
H756 C766 0.950 . S
H757 C768 0.950 . S
H758 C770 0.950 . S
H759 C771 0.950 . S
C760 H752 0.950 . S
C760 C761 1.386 . S
C760 C762 1.391 . S
C761 C760 1.386 . S
C761 C765 1.393 . S
C762 H754 0.950 . S
C762 C760 1.391 . S
C762 C763 1.400 . S
C763 C762 1.400 . S
C763 C764 1.398 . S
C763 C769 1.491 1_545 S
C764 H755 0.950 . S
C764 C763 1.398 . S
C764 C765 1.391 . S
C765 H753 0.950 . S
C765 C761 1.393 . S
C765 C764 1.391 . S
C766 H756 0.950 . S
C766 C767 1.386 . S
C766 C768 1.391 . S
C767 C766 1.386 . S
C767 C771 1.393 . S
C768 H757 0.950 . S
C768 C766 1.391 . S
C768 C769 1.400 . S
C769 C763 1.491 1_565 S
C769 C768 1.400 . S
C769 C770 1.398 . S
C770 H758 0.950 . S
C770 C769 1.398 . S
C770 C771 1.391 . S
C771 H759 0.950 . S
C771 C767 1.393 . S
C771 C770 1.391 . S
H772 C780 0.950 1_556 S
H773 C785 0.950 . S
H774 C782 0.950 1_556 S
H775 C784 0.950 . S
H776 C786 0.950 . S
H777 C788 0.950 . S
H778 C790 0.950 . S
H779 C791 0.960 . S
C780 H772 0.950 1_554 S
C780 C781 1.386 . S
C780 C782 1.391 . S
C781 C780 1.386 . S
C781 C785 1.393 . S
C782 H774 0.950 1_554 S
C782 C780 1.391 . S
C782 C783 1.400 . S
C783 C782 1.400 . S
C783 C784 1.398 . S
C783 C789 1.491 . S
C784 H775 0.950 . S
C784 C783 1.398 . S
C784 C785 1.391 . S
C785 H773 0.950 . S
C785 C781 1.393 . S
C785 C784 1.391 . S
C786 H776 0.950 . S
C786 C787 1.386 . S
C786 C788 1.391 . S
C787 C786 1.386 . S
C787 C791 1.393 . S
C788 H777 0.950 . S
C788 C786 1.391 . S
C788 C789 1.400 . S
C789 C783 1.491 . S
C789 C788 1.400 . S
C789 C790 1.398 . S
C790 H778 0.950 . S
C790 C789 1.398 . S
C790 C791 1.391 . S
C791 H779 0.960 . S
C791 C787 1.393 . S
C791 C790 1.391 . S
H792 C800 0.950 . S
H793 C805 0.950 . S
H794 C802 0.950 . S
H795 C804 0.950 . S
H796 C806 0.950 . S
H797 C808 0.950 . S
H798 C810 0.950 . S
H799 C811 0.950 . S
C800 H792 0.950 . S
C800 C801 1.386 . S
C800 C802 1.391 . S
C801 C800 1.386 . S
C801 C805 1.393 . S
C802 H794 0.950 . S
C802 C800 1.391 . S
C802 C803 1.400 . S
C803 C802 1.400 . S
C803 C804 1.398 . S
C803 C809 1.491 . S
C804 H795 0.950 . S
C804 C803 1.398 . S
C804 C805 1.391 . S
C805 H793 0.950 . S
C805 C801 1.393 . S
C805 C804 1.391 . S
C806 H796 0.950 . S
C806 C807 1.386 . S
C806 C808 1.391 . S
C807 C806 1.386 . S
C807 C811 1.393 . S
C808 H797 0.950 . S
C808 C806 1.391 . S
C808 C809 1.400 . S
C809 C803 1.491 . S
C809 C808 1.400 . S
C809 C810 1.398 . S
C810 H798 0.950 . S
C810 C809 1.398 . S
C810 C811 1.391 . S
C811 H799 0.950 . S
C811 C807 1.393 . S
C811 C810 1.391 . S
H812 C820 0.950 . S
H813 C825 0.950 . S
H814 C822 0.950 . S
H815 C824 0.950 . S
H816 C826 0.950 . S
H817 C828 0.950 . S
H818 C830 0.950 . S
H819 C831 0.950 . S
C820 H812 0.950 . S
C820 C821 1.386 . S
C820 C822 1.391 . S
C821 C820 1.386 . S
C821 C825 1.393 . S
C822 H814 0.950 . S
C822 C820 1.391 . S
C822 C823 1.400 . S
C823 C822 1.400 . S
C823 C824 1.398 . S
C823 C829 1.491 . S
C824 H815 0.950 . S
C824 C823 1.398 . S
C824 C825 1.391 . S
C825 H813 0.950 . S
C825 C821 1.393 . S
C825 C824 1.391 . S
C826 H816 0.950 . S
C826 C827 1.386 . S
C826 C828 1.391 . S
C827 C826 1.386 . S
C827 C831 1.393 . S
C828 H817 0.950 . S
C828 C826 1.391 . S
C828 C829 1.400 . S
C829 C823 1.491 . S
C829 C828 1.400 . S
C829 C830 1.398 . S
C830 H818 0.950 . S
C830 C829 1.398 . S
C830 C831 1.391 . S
C831 H819 0.950 . S
C831 C827 1.393 . S
C831 C830 1.391 . S
H832 C840 0.950 . S
H833 C845 0.950 . S
H834 C842 0.950 . S
H835 C844 0.950 . S
H836 C846 0.950 . S
H837 C848 0.950 . S
H838 C850 0.950 . S
H839 C851 0.950 . S
C840 H832 0.950 . S
C840 C841 1.386 . S
C840 C842 1.391 . S
C841 C840 1.386 . S
C841 C845 1.393 . S
C842 H834 0.950 . S
C842 C840 1.391 . S
C842 C843 1.400 . S
C843 C842 1.400 . S
C843 C844 1.398 . S
C843 C849 1.491 . S
C844 H835 0.950 . S
C844 C843 1.398 . S
C844 C845 1.391 . S
C845 H833 0.950 . S
C845 C841 1.393 . S
C845 C844 1.391 . S
C846 H836 0.950 . S
C846 C847 1.386 . S
C846 C848 1.391 . S
C847 C846 1.386 . S
C847 C851 1.393 . S
C848 H837 0.950 . S
C848 C846 1.391 . S
C848 C849 1.400 . S
C849 C843 1.491 . S
C849 C848 1.400 . S
C849 C850 1.398 . S
C850 H838 0.950 . S
C850 C849 1.398 . S
C850 C851 1.391 . S
C851 H839 0.950 . S
C851 C847 1.393 . S
C851 C850 1.391 . S
H852 C860 0.950 . S
H853 C865 0.950 . S
H854 C862 0.950 . S
H855 C864 0.950 . S
H856 C866 0.950 . S
H857 C868 0.950 . S
H858 C870 0.950 . S
H859 C871 0.950 . S
C860 H852 0.950 . S
C860 C861 1.386 . S
C860 C862 1.391 . S
C861 C860 1.386 . S
C861 C865 1.393 . S
C862 H854 0.950 . S
C862 C860 1.391 . S
C862 C863 1.400 . S
C863 C862 1.400 . S
C863 C864 1.398 . S
C863 C869 1.491 . S
C864 H855 0.950 . S
C864 C863 1.398 . S
C864 C865 1.391 . S
C865 H853 0.950 . S
C865 C861 1.393 . S
C865 C864 1.391 . S
C866 H856 0.950 . S
C866 C867 1.386 . S
C866 C868 1.391 . S
C867 C866 1.386 . S
C867 C871 1.393 . S
C868 H857 0.950 . S
C868 C866 1.391 . S
C868 C869 1.400 . S
C869 C863 1.491 . S
C869 C868 1.400 . S
C869 C870 1.398 . S
C870 H858 0.950 . S
C870 C869 1.398 . S
C870 C871 1.391 . S
C871 H859 0.950 . S
C871 C867 1.393 . S
C871 C870 1.391 . S
H872 C880 0.950 . S
H873 C885 0.950 . S
H874 C882 0.950 . S
H875 C884 0.950 . S
H876 C886 0.950 . S
H877 C888 0.950 . S
H878 C890 0.950 . S
H879 C891 0.950 . S
C880 H872 0.950 . S
C880 C881 1.386 . S
C880 C882 1.391 . S
C881 C880 1.386 . S
C881 C885 1.393 . S
C882 H874 0.950 . S
C882 C880 1.391 . S
C882 C883 1.400 . S
C883 C882 1.400 . S
C883 C884 1.398 . S
C883 C889 1.491 . S
C884 H875 0.950 . S
C884 C883 1.398 . S
C884 C885 1.391 . S
C885 H873 0.950 . S
C885 C881 1.393 . S
C885 C884 1.391 . S
C886 H876 0.950 . S
C886 C887 1.386 . S
C886 C888 1.391 . S
C887 C886 1.386 . S
C887 C891 1.393 . S
C888 H877 0.950 . S
C888 C886 1.391 . S
C888 C889 1.400 . S
C889 C883 1.491 . S
C889 C888 1.400 . S
C889 C890 1.398 . S
C890 H878 0.950 . S
C890 C889 1.398 . S
C890 C891 1.391 . S
C891 H879 0.950 . S
C891 C887 1.393 . S
C891 C890 1.391 . S
H892 C900 0.950 . S
H893 C905 0.950 . S
H894 C902 0.950 . S
H895 C904 0.950 . S
H896 C906 0.950 . S
H897 C908 0.950 . S
H898 C910 0.950 . S
H899 C911 0.950 . S
C900 H892 0.950 . S
C900 C901 1.386 . S
C900 C902 1.391 . S
C901 C900 1.386 . S
C901 C905 1.393 . S
C902 H894 0.950 . S
C902 C900 1.391 . S
C902 C903 1.400 . S
C903 C902 1.400 . S
C903 C904 1.398 . S
C903 C909 1.491 . S
C904 H895 0.950 . S
C904 C903 1.398 . S
C904 C905 1.391 . S
C905 H893 0.950 . S
C905 C901 1.393 . S
C905 C904 1.391 . S
C906 H896 0.950 . S
C906 C907 1.386 . S
C906 C908 1.391 . S
C907 C906 1.386 . S
C907 C911 1.393 . S
C908 H897 0.950 . S
C908 C906 1.391 . S
C908 C909 1.400 . S
C909 C903 1.491 . S
C909 C908 1.400 . S
C909 C910 1.398 . S
C910 H898 0.950 . S
C910 C909 1.398 . S
C910 C911 1.391 . S
C911 H899 0.950 . S
C911 C907 1.393 . S
C911 C910 1.391 . S
C441 C4 1.541 . S
C447 C364 1.539 . S
C461 C40 1.529 . S
C467 C400 1.532 . S
C481 C220 1.540 . S
C487 C76 1.541 . S
C501 C112 1.542 . S
C507 C256 1.541 . S
C521 C292 1.540 . S
C527 C148 1.541 . S
C541 C328 1.535 . S
C547 C184 1.537 . S
C561 C218 0.409 . S
C567 C2 0.464 . S
C581 C254 0.444 . S
C587 C38 0.407 . S
C601 C290 0.460 . S
C607 C74 0.407 . S
C621 C110 0.440 . S
C627 C326 0.486 . S
C641 C146 0.465 . S
C647 C362 0.409 . S
C661 C182 0.424 . S
C667 C398 0.480 . S
C681 C14 1.200 . S
C687 C122 1.232 . S
C701 C50 1.211 . S
C707 C158 1.239 . S
C721 C86 1.236 . S
C727 C194 1.219 . S
C741 C338 1.239 . S
C747 C230 1.207 . S
C761 C374 1.233 . S
C767 C266 1.224 . S
C781 C410 1.214 . S
C787 C302 1.238 . S
C801 C3 1.527 . S
C807 C291 1.542 . S
C821 C327 1.529 . S
C827 C39 1.536 . S
C841 C75 1.539 . S
C847 C363 1.526 . S
C861 C399 1.542 . S
C867 C111 1.526 . S
C881 C147 1.526 . S
C887 C219 1.540 . S
C901 C183 1.540 . S
C907 C255 1.530 . S
