# Generated by pormake.
# Topology wnt, (7)-cn, num edge types: 1
# Building blocks:
#     Node 0, Type 0, BuildingBlock: OLANEW_clean_sbu_3, # of connection points: 7
#     Node 1, Type 0, BuildingBlock: OLANEW_clean_sbu_3, # of connection points: 7
#     Node 2, Type 0, BuildingBlock: OLANEW_clean_sbu_3, # of connection points: 7
#     Node 3, Type 0, BuildingBlock: OLANEW_clean_sbu_3, # of connection points: 7
#     Node 4, Type 0, BuildingBlock: OLANEW_clean_sbu_3, # of connection points: 7
#     Node 5, Type 0, BuildingBlock: OLANEW_clean_sbu_3, # of connection points: 7
#     Node 6, Type 0, BuildingBlock: OLANEW_clean_sbu_3, # of connection points: 7
#     Node 7, Type 0, BuildingBlock: OLANEW_clean_sbu_3, # of connection points: 7
#     Node 8, Type 0, BuildingBlock: OLANEW_clean_sbu_3, # of connection points: 7
#     Node 9, Type 0, BuildingBlock: OLANEW_clean_sbu_3, # of connection points: 7
#     Node 10, Type 0, BuildingBlock: OLANEW_clean_sbu_3, # of connection points: 7
#     Node 11, Type 0, BuildingBlock: OLANEW_clean_sbu_3, # of connection points: 7
#     Edge 12, Type (0, 0), None
#     Edge 13, Type (0, 0), None
#     Edge 14, Type (0, 0), None
#     Edge 15, Type (0, 0), None
#     Edge 16, Type (0, 0), None
#     Edge 17, Type (0, 0), None
#     Edge 18, Type (0, 0), None
#     Edge 19, Type (0, 0), None
#     Edge 20, Type (0, 0), None
#     Edge 21, Type (0, 0), None
#     Edge 22, Type (0, 0), None
#     Edge 23, Type (0, 0), None
#     Edge 24, Type (0, 0), None
#     Edge 25, Type (0, 0), None
#     Edge 26, Type (0, 0), None
#     Edge 27, Type (0, 0), None
#     Edge 28, Type (0, 0), None
#     Edge 29, Type (0, 0), None
#     Edge 30, Type (0, 0), None
#     Edge 31, Type (0, 0), None
#     Edge 32, Type (0, 0), None
#     Edge 33, Type (0, 0), None
#     Edge 34, Type (0, 0), None
#     Edge 35, Type (0, 0), None
#     Edge 36, Type (0, 0), None
#     Edge 37, Type (0, 0), None
#     Edge 38, Type (0, 0), None
#     Edge 39, Type (0, 0), None
#     Edge 40, Type (0, 0), None
#     Edge 41, Type (0, 0), None
#     Edge 42, Type (0, 0), None
#     Edge 43, Type (0, 0), None
#     Edge 44, Type (0, 0), None
#     Edge 45, Type (0, 0), None
#     Edge 46, Type (0, 0), None
#     Edge 47, Type (0, 0), None
#     Edge 48, Type (0, 0), None
#     Edge 49, Type (0, 0), None
#     Edge 50, Type (0, 0), None
#     Edge 51, Type (0, 0), None
#     Edge 52, Type (0, 0), None
#     Edge 53, Type (0, 0), None
# Relax obj value: 0.251
# Max RMSD: 0.282
# Mean RMSD: 0.282
data_MOF--net-wnt--node1-OLANEW_clean_sbu_3--edge1-none
_symmetry_space_group_name_H-M    P1
_symmetry_Int_Tables_number       1
_symmetry_cell_setting            triclinic
loop_
_symmetry_equiv_pos_as_xyz
'x, y, z'
_cell_length_a     26.795402
_cell_length_b     26.788457
_cell_length_c     35.451326
_cell_angle_alpha  90.000036
_cell_angle_beta   89.872268
_cell_angle_gamma 119.98881
loop_
_atom_site_label
_atom_site_type_symbol
_atom_site_fract_x
_atom_site_fract_y
_atom_site_fract_z
_atom_type_partial_charge
C0 C 0.40701 0.20971 0.18344 0.0
C1 C 0.36685 0.1691 0.20849 0.0
C2 C 0.30761 0.1469 0.2008 0.0
C3 C 0.28977 0.16471 0.1684 0.0
C4 C 0.33217 0.20518 0.14441 0.0
N5 N 0.38721 0.22512 0.15367 0.0
C6 C 0.32538 0.23004 0.10864 0.0
C7 C 0.37971 0.30452 0.05945 0.0
C8 C 0.35307 0.27462 0.02609 0.0
C9 C 0.35761 0.30456 0.99282 0.0
C10 C 0.38749 0.36464 0.9925 0.0
C11 C 0.41204 0.39485 0.02569 0.0
C12 C 0.40796 0.36505 0.05896 0.0
Cd13 Cd 0.18662 0.20727 0.07465 0.0
Cd14 Cd 0.15083 0.18844 0.13551 0.0
C15 C 0.55937 0.30095 0.14689 0.0
C16 C 0.65003 0.39153 0.14306 0.0
C17 C 0.65798 0.36901 0.10925 0.0
C18 C 0.64147 0.30977 0.11066 0.0
C19 C 0.58512 0.2743 0.12574 0.0
C20 C 0.59597 0.35731 0.16037 0.0
Co21 Co 0.44153 0.27878 0.1222 0.0
N22 N 0.44147 0.22212 0.08731 0.0
N23 N 0.49697 0.33341 0.09165 0.0
C24 C 0.5144 0.314 0.06277 0.0
C25 C 0.56052 0.35415 0.0408 0.0
C26 C 0.58703 0.413 0.0512 0.0
C27 C 0.56798 0.43033 0.08331 0.0
C28 C 0.52175 0.38771 0.10401 0.0
N29 N 0.45008 0.34383 0.15306 0.0
N30 N 0.37627 0.27409 0.09391 0.0
N31 N 0.49812 0.273 0.15393 0.0
O32 O 0.05598 0.1675 0.13843 0.0
O33 O 0.07305 0.14703 0.08165 0.0
C34 C 0.21163 0.27307 1.00494 0.0
O35 O 0.19354 0.28676 0.0341 0.0
O36 O 0.21638 0.22839 1.00785 0.0
C37 C 0.1538 0.07595 0.09958 0.0
O38 O 0.16167 0.10362 0.06888 0.0
O39 O 0.15136 0.09867 0.13047 0.0
C40 C 0.4821 0.25057 0.05981 0.0
O41 O 0.4898 0.22324 0.03161 0.0
O42 O 0.24792 0.27641 0.12813 0.0
O43 O 0.20742 0.24948 0.18389 0.0
C44 C 0.4949 0.39387 0.13894 0.0
O45 O 0.50772 0.44463 0.15239 0.0
C46 C 0.40644 0.34387 0.17721 0.0
C47 C 0.35622 0.33714 0.16075 0.0
C48 C 0.30662 0.32041 0.1823 0.0
C49 C 0.31167 0.32491 0.22178 0.0
C50 C 0.36462 0.34097 0.23943 0.0
C51 C 0.41146 0.34751 0.21697 0.0
C52 C 0.03698 0.14203 0.10732 0.0
O53 O 0.2763 0.20229 0.08787 0.0
C54 C 0.24999 0.28401 0.16395 0.0
C55 C 0.39396 0.16419 0.08246 0.0
C56 C 0.37895 0.12338 0.11127 0.0
C57 C 0.32712 0.07115 0.10961 0.0
C58 C 0.29037 0.05847 0.07878 0.0
C59 C 0.30634 0.0969 0.04819 0.0
C60 C 0.35913 0.14921 0.05 0.0
C61 C 0.47057 0.23677 0.18352 0.0
O62 O 0.49848 0.22472 0.20906 0.0
H63 H 0.38046 0.1547 0.23287 0.0
H64 H 0.27555 0.11562 0.21978 0.0
H65 H 0.24471 0.148 0.1628 0.0
H66 H 0.32803 0.22832 0.02547 0.0
H67 H 0.3907 0.3877 0.96675 0.0
H68 H 0.42547 0.38967 0.08433 0.0
H69 H 0.69328 0.39883 0.0916 0.0
H70 H 0.56274 0.22795 0.12235 0.0
H71 H 0.58257 0.37419 0.18361 0.0
H72 H 0.57625 0.34069 0.01698 0.0
H73 H 0.62305 0.44496 0.03488 0.0
H74 H 0.58914 0.47509 0.0918 0.0
H75 H 0.35369 0.33867 0.13057 0.0
H76 H 0.27367 0.31234 0.23896 0.0
H77 H 0.45053 0.35367 0.23022 0.0
H78 H 0.40679 0.13218 0.13531 0.0
H79 H 0.25054 0.01757 0.07835 0.0
H80 H 0.3731 0.17868 0.02641 0.0
C81 C 0.79222 0.16642 0.19152 0.0
C82 C 0.8271 0.16279 0.21943 0.0
C83 C 0.85712 0.13329 0.21058 0.0
C84 C 0.85165 0.10817 0.1746 0.0
C85 C 0.81621 0.11372 0.14807 0.0
N86 N 0.79016 0.14315 0.15794 0.0
C87 C 0.79857 0.08688 0.11037 0.0
C88 C 0.72494 0.06264 0.05984 0.0
C89 C 0.75726 0.07473 0.02643 0.0
C90 C 0.72985 0.05328 0.99191 0.0
C91 C 0.67019 0.0175 0.99042 0.0
C92 C 0.63802 1.0022 0.02366 0.0
C93 C 0.66524 0.02433 0.05816 0.0
Cd94 Cd 0.84451 0.98922 0.07624 0.0
Cd95 Cd 0.86849 0.98152 0.13825 0.0
C96 C 0.72747 0.24633 0.14947 0.0
C97 C 0.68668 0.29507 0.11218 0.0
C98 C 0.74479 0.34052 0.11002 0.0
C99 C 0.77664 0.35165 0.1434 0.0
C100 C 0.77214 0.30218 0.16036 0.0
C101 C 0.67993 0.24394 0.12958 0.0
Co102 Co 0.73629 0.14082 0.12558 0.0
N103 N 0.79191 0.20434 0.09348 0.0
N104 N 0.6809 0.13764 0.09416 0.0
C105 C 0.69887 0.17643 0.06642 0.0
C106 C 0.65732 0.17827 0.04353 0.0
C107 C 0.59851 0.13949 0.0517 0.0
C108 C 0.58241 0.10066 0.08247 0.0
C109 C 0.62633 0.10157 0.10431 0.0
N110 N 0.67256 0.07635 0.15295 0.0
N111 N 0.75194 0.08866 0.09524 0.0
N112 N 0.73001 0.19504 0.16046 0.0
O113 O 0.90451 0.91896 0.13972 0.0
O114 O 0.90693 0.93856 0.07946 0.0
C115 C 0.78105 0.95272 1.00626 0.0
O116 O 0.76834 0.91865 0.03413 0.0
O117 O 0.82534 1.00225 1.01001 0.0
C118 C 0.97577 0.09615 0.1062 0.0
O119 O 0.94985 0.07102 0.07582 0.0
O120 O 0.95124 0.07589 0.13761 0.0
C121 C 0.76206 0.2143 0.06587 0.0
O122 O 0.78833 0.25323 0.03936 0.0
O123 O 0.76907 0.9667 0.12873 0.0
O124 O 0.79954 0.96143 0.18512 0.0
C125 C 0.62138 0.06651 0.13793 0.0
O126 O 0.57169 0.02322 0.14908 0.0
C127 C 0.67699 0.03464 0.17665 0.0
C128 C 0.69296 0.99739 0.16009 0.0
C129 C 0.71579 0.97001 0.18187 0.0
C130 C 0.70894 0.96839 0.22124 0.0
C131 C 0.68474 0.99852 0.2388 0.0
C132 C 0.67135 0.03414 0.21637 0.0
C133 C 0.92126 0.91689 0.10671 0.0
O134 O 0.83406 0.07529 0.08933 0.0
C135 C 0.76052 0.9601 0.16443 0.0
C136 C 0.85175 0.22005 0.08865 0.0
C137 C 0.89016 0.24321 0.11886 0.0
C138 C 0.94516 0.24981 0.11632 0.0
C139 C 0.96278 0.23379 0.08359 0.0
C140 C 0.92614 0.21243 0.05214 0.0
C141 C 0.87138 0.20798 0.05455 0.0
C142 C 0.75662 0.19425 0.19343 0.0
O143 O 0.75585 0.22223 0.22371 0.0
H144 H 0.83067 0.18137 0.24708 0.0
H145 H 0.88373 0.12902 0.23179 0.0
H146 H 0.8723 0.08339 0.16852 0.0
H147 H 0.8035 0.10011 0.02668 0.0
H148 H 0.64913 1.00066 0.96367 0.0
H149 H 0.63943 1.01043 0.0834 0.0
H150 H 0.75698 0.37708 0.09177 0.0
H151 H 0.8031 0.30791 0.18187 0.0
H152 H 0.63864 0.20474 0.12984 0.0
H153 H 0.66958 0.20903 0.02068 0.0
H154 H 0.56544 0.14011 0.03457 0.0
H155 H 0.53748 0.07166 0.08906 0.0
H156 H 0.69447 0.99545 0.12982 0.0
H157 H 0.72636 0.94733 0.23854 0.0
H158 H 0.65897 0.06273 0.22969 0.0
H159 H 0.87721 0.25505 0.14471 0.0
H160 H 1.00538 0.23865 0.08293 0.0
H161 H 0.84341 0.19385 0.03027 0.0
C162 C 0.87165 0.65085 0.18737 0.0
C163 C 0.8739 0.69334 0.21141 0.0
C164 C 0.90587 0.75138 0.19937 0.0
C165 C 0.93395 0.76554 0.1639 0.0
C166 C 0.92956 0.72081 0.14131 0.0
N167 N 0.89937 0.66711 0.15447 0.0
C168 C 0.9556 0.7241 0.10395 0.0
C169 C 0.97478 0.66741 0.05649 0.0
C170 C 0.96424 0.68691 0.02219 0.0
C171 C 0.98933 0.68257 0.98867 0.0
C172 C 0.02615 0.65983 0.98902 0.0
C173 C 0.03879 0.64248 0.02305 0.0
C174 C 1.01356 0.64654 0.05659 0.0
Cd175 Cd 0.0626 0.86468 0.07199 0.0
Cd176 Cd 0.08507 0.90537 0.13223 0.0
C177 C 0.80105 0.49563 0.15928 0.0
C178 C 0.77623 0.39498 0.16639 0.0
C179 C 0.72122 0.38346 0.17868 0.0
C180 C 0.70043 0.4194 0.16528 0.0
C181 C 0.74168 0.47714 0.1575 0.0
C182 C 0.81786 0.45336 0.16068 0.0
Co183 Co 0.89629 0.60975 0.12481 0.0
N184 N 0.83239 0.60213 0.09385 0.0
N185 N 0.89354 0.552 0.09575 0.0
C186 C 0.85158 0.52894 0.07021 0.0
C187 C 0.84506 0.48162 0.04945 0.0
C188 C 0.8828 0.46028 0.05735 0.0
C189 C 0.92545 0.48587 0.08567 0.0
C190 C 0.92937 0.53303 0.10531 0.0
N191 N 0.95905 0.60796 0.15179 0.0
N192 N 0.94991 0.67268 0.09135 0.0
N193 N 0.84234 0.55643 0.1625 0.0
O194 O 0.15574 1.00074 0.13157 0.0
O195 O 0.11096 0.97817 0.07697 0.0
C196 C 0.1051 0.8387 1.00289 0.0
O197 O 0.13672 0.85866 0.03194 0.0
O198 O 0.05548 0.83377 1.00523 0.0
C199 C 0.96737 0.90209 0.10314 0.0
O200 O 0.98214 0.88949 0.07188 0.0
O201 O 0.9966 0.90755 0.13253 0.0
C202 C 0.81712 0.55795 0.06868 0.0
O203 O 0.77675 0.54468 0.04326 0.0
O204 O 0.07501 0.81015 0.12782 0.0
O205 O 0.09408 0.85402 0.18262 0.0
C206 C 0.9669 0.56493 0.13749 0.0
O207 O 1.00854 0.55636 0.14918 0.0
C208 C 0.99959 0.65225 0.17649 0.0
C209 C 0.03947 0.70465 0.16055 0.0
C210 C 0.06649 0.75466 0.18242 0.0
C211 C 0.06274 0.74952 0.22202 0.0
C212 C 0.02867 0.69528 0.23922 0.0
C213 C 0.99506 0.64682 0.21611 0.0
C214 C 0.14328 1.01647 0.10111 0.0
O215 O 0.97193 0.77039 0.08101 0.0
C216 C 0.08401 0.81026 0.16335 0.0
C217 C 0.81728 0.64641 0.08855 0.0
C218 C 0.79352 0.66199 0.11835 0.0
C219 C 0.78639 0.70997 0.1151 0.0
C220 C 0.8021 0.74252 0.08194 0.0
C221 C 0.82338 0.72627 0.0508 0.0
C222 C 0.82934 0.67699 0.05415 0.0
C223 C 0.83918 0.58788 0.19202 0.0
O224 O 0.80522 0.56331 0.22123 0.0
H225 H 0.85177 0.68229 0.23831 0.0
H226 H 0.90882 0.7853 0.21745 0.0
H227 H 0.95901 0.80966 0.15496 0.0
H228 H 0.93766 0.70651 0.02112 0.0
H229 H 0.0457 0.65668 0.96307 0.0
H230 H 0.02621 0.63525 0.08255 0.0
H231 H 0.68963 0.33893 0.18508 0.0
H232 H 0.72791 0.50741 0.14946 0.0
H233 H 0.86238 0.46498 0.15774 0.0
H234 H 0.81173 0.46136 0.02833 0.0
H235 H 0.87844 0.42344 0.04193 0.0
H236 H 0.9534 0.46874 0.09232 0.0
H237 H 0.04364 0.70757 0.13022 0.0
H238 H 0.08339 0.78783 0.23947 0.0
H239 H 0.96407 0.60605 0.2287 0.0
H240 H 0.78109 0.63749 0.14428 0.0
H241 H 0.79673 0.77994 0.08063 0.0
H242 H 0.84411 0.66274 0.03032 0.0
C243 C 0.25835 0.39948 0.3287 0.0
C244 C 0.22347 0.36097 0.30079 0.0
C245 C 0.19346 0.30147 0.30963 0.0
C246 C 0.19892 0.2818 0.34561 0.0
C247 C 0.23435 0.32278 0.37215 0.0
N248 N 0.2604 0.37826 0.36228 0.0
C249 C 0.25198 0.31357 0.40985 0.0
C250 C 0.3256 0.36295 0.46038 0.0
C251 C 0.29328 0.34272 0.49379 0.0
C252 C 0.32069 0.34869 0.52832 0.0
C253 C 0.38034 0.37256 0.5298 0.0
C254 C 0.41252 0.38943 0.49657 0.0
C255 C 0.38531 0.38435 0.46206 0.0
Cd256 Cd 0.20604 0.16997 0.44398 0.0
Cd257 Cd 0.18206 0.13831 0.38196 0.0
C258 C 0.3231 0.54414 0.37076 0.0
C259 C 0.36391 0.63367 0.40807 0.0
C260 C 0.30579 0.62098 0.41021 0.0
C261 C 0.27394 0.60029 0.37682 0.0
C262 C 0.27844 0.55532 0.35986 0.0
C263 C 0.37064 0.58927 0.39065 0.0
Co264 Co 0.31427 0.4298 0.39465 0.0
N265 N 0.25864 0.43769 0.42674 0.0
N266 N 0.36965 0.48199 0.42607 0.0
C267 C 0.35168 0.50281 0.4538 0.0
C268 C 0.39323 0.54619 0.4767 0.0
C269 C 0.45204 0.56622 0.46853 0.0
C270 C 0.46814 0.54349 0.43776 0.0
C271 C 0.42422 0.50048 0.41592 0.0
N272 N 0.37801 0.42905 0.36728 0.0
N273 N 0.29861 0.36198 0.42498 0.0
N274 N 0.32056 0.49029 0.35977 0.0
O275 O 0.14603 0.03973 0.38049 0.0
O276 O 0.14363 0.05691 0.44076 0.0
C277 C 0.26949 0.19693 0.51396 0.0
O278 O 0.28221 0.17558 0.48609 0.0
O279 O 0.2252 0.20217 0.51021 0.0
C280 C 0.07478 0.14567 0.41402 0.0
O281 O 0.1007 0.14644 0.44439 0.0
O282 O 0.09932 0.14996 0.38261 0.0
C283 C 0.28849 0.4775 0.45435 0.0
O284 O 0.26222 0.49016 0.48086 0.0
O285 O 0.28149 0.2229 0.39149 0.0
O286 O 0.25101 0.18716 0.3351 0.0
C287 C 0.42918 0.47038 0.38231 0.0
O288 O 0.47887 0.47677 0.37115 0.0
C289 C 0.37357 0.38291 0.34357 0.0
C290 C 0.3576 0.32969 0.36014 0.0
C291 C 0.33477 0.27949 0.33836 0.0
C292 C 0.34162 0.28472 0.29898 0.0
C293 C 0.36581 0.33904 0.28142 0.0
C294 C 0.37921 0.38805 0.30385 0.0
C295 C 0.12929 0.02091 0.41351 0.0
O296 O 0.2165 0.2665 0.43088 0.0
C297 C 0.29004 0.22485 0.35579 0.0
C298 C 0.19881 0.39357 0.43157 0.0
C299 C 0.1604 0.37832 0.40136 0.0
C300 C 0.1054 0.32992 0.4039 0.0
C301 C 0.08778 0.29628 0.43663 0.0
C302 C 0.12442 0.31156 0.46808 0.0
C303 C 0.17918 0.36188 0.46567 0.0
C304 C 0.29396 0.46291 0.32679 0.0
O305 O 0.29473 0.49166 0.29652 0.0
H306 H 0.21991 0.376 0.27313 0.0
H307 H 0.16684 0.27058 0.28842 0.0
H308 H 0.17826 0.23637 0.35169 0.0
H309 H 0.24704 0.32186 0.49353 0.0
H310 H 0.4014 0.37678 0.55656 0.0
H311 H 0.41112 0.39625 0.43683 0.0
H312 H 0.29359 0.64534 0.42846 0.0
H313 H 0.24749 0.53011 0.33834 0.0
H314 H 0.41193 0.59136 0.39039 0.0
H315 H 0.38097 0.56469 0.49955 0.0
H316 H 0.48511 0.5999 0.48567 0.0
H317 H 0.51308 0.55942 0.43118 0.0
H318 H 0.35609 0.32623 0.3904 0.0
H319 H 0.3242 0.24624 0.28168 0.0
H320 H 0.39159 0.42903 0.29054 0.0
H321 H 0.17334 0.4031 0.37551 0.0
H322 H 0.04518 0.25854 0.43729 0.0
H323 H 0.20714 0.37571 0.48995 0.0
C324 C 0.64356 0.82799 0.33678 0.0
C325 C 0.68373 0.82755 0.31173 0.0
C326 C 0.74296 0.86459 0.31942 0.0
C327 C 0.76081 0.90025 0.35182 0.0
C328 C 0.7184 0.8983 0.37581 0.0
N329 N 0.66336 0.8632 0.36655 0.0
C330 C 0.72518 0.92994 0.41158 0.0
C331 C 0.67084 0.95008 0.46078 0.0
C332 C 0.6975 0.94684 0.49413 0.0
C333 C 0.69295 0.97222 0.5274 0.0
C334 C 0.66306 1.00242 0.52772 0.0
C335 C 0.6385 1.00808 0.49453 0.0
C336 C 0.64258 0.98236 0.46127 0.0
Cd337 Cd 0.86394 0.04594 0.44557 0.0
Cd338 Cd 0.89973 0.06291 0.38471 0.0
C339 C 0.4912 0.76687 0.37332 0.0
C340 C 0.40053 0.76679 0.37715 0.0
C341 C 0.39257 0.7363 0.41096 0.0
C342 C 0.40909 0.69358 0.40952 0.0
C343 C 0.46545 0.71444 0.39446 0.0
C344 C 0.4546 0.78664 0.35985 0.0
Co345 Co 0.60904 0.86253 0.39801 0.0
N346 N 0.60911 0.80594 0.43291 0.0
N347 N 0.55359 0.86171 0.42857 0.0
C348 C 0.53616 0.82487 0.45744 0.0
C349 C 0.49004 0.81889 0.47942 0.0
C350 C 0.46352 0.85123 0.46902 0.0
C351 C 0.48257 0.88762 0.43691 0.0
C352 C 0.52881 0.89123 0.41621 0.0
N353 N 0.60048 0.91903 0.36716 0.0
N354 N 0.67429 0.9231 0.42631 0.0
N355 N 0.55246 0.80016 0.36629 0.0
O356 O 0.99458 0.13682 0.38179 0.0
O357 O 0.97751 0.09927 0.43857 0.0
C358 C 0.83893 0.08673 0.51528 0.0
O359 O 0.85701 0.1185 0.48613 0.0
O360 O 0.83418 0.03729 0.51238 0.0
C361 C 0.89677 0.94745 0.42064 0.0
O362 O 0.88889 0.96724 0.45135 0.0
O363 O 0.89921 0.97261 0.38976 0.0
C364 C 0.56847 0.79375 0.4604 0.0
O365 O 0.56077 0.75871 0.48861 0.0
O366 O 0.80263 0.05378 0.39209 0.0
O367 O 0.84314 0.06736 0.33634 0.0
C368 C 0.55565 0.92424 0.38128 0.0
O369 O 0.54282 0.96218 0.36784 0.0
C370 C 0.64411 0.96271 0.34301 0.0
C371 C 0.69433 1.0062 0.35947 0.0
C372 C 0.74393 0.03908 0.33792 0.0
C373 C 0.73888 0.03853 0.29845 0.0
C374 C 0.68593 1.00163 0.28079 0.0
C375 C 0.63909 0.96133 0.30325 0.0
C376 C 1.01357 0.13034 0.4129 0.0
O377 O 0.77426 0.95128 0.43235 0.0
C378 C 0.80056 0.05931 0.35628 0.0
C379 C 0.65662 0.79552 0.43776 0.0
C380 C 0.67164 0.76973 0.40895 0.0
C381 C 0.72347 0.76934 0.4106 0.0
C382 C 0.76022 0.79341 0.44143 0.0
C383 C 0.74425 0.81587 0.47203 0.0
C384 C 0.69145 0.81538 0.47021 0.0
C385 C 0.58001 0.79149 0.3367 0.0
O386 O 0.55211 0.75154 0.31116 0.0
H387 H 0.67012 0.79955 0.28734 0.0
H388 H 0.77503 0.86538 0.30043 0.0
H389 H 0.80586 0.92859 0.35741 0.0
H390 H 0.72254 0.92558 0.49475 0.0
H391 H 0.65985 0.02226 0.55348 0.0
H392 H 0.62507 0.98947 0.4359 0.0
H393 H 0.35726 0.7308 0.42861 0.0
H394 H 0.48782 0.69047 0.39785 0.0
H395 H 0.468 0.81692 0.33662 0.0
H396 H 0.47431 0.7897 0.50324 0.0
H397 H 0.4275 0.84717 0.48534 0.0
H398 H 0.46141 0.91121 0.42842 0.0
H399 H 0.69686 1.01026 0.38966 0.0
H400 H 0.77688 0.06396 0.28126 0.0
H401 H 0.60003 0.92843 0.29 0.0
H402 H 0.6438 0.75068 0.3849 0.0
H403 H 0.80005 0.79233 0.44186 0.0
H404 H 0.67747 0.83086 0.4938 0.0
C405 C 0.1789 0.80447 0.33285 0.0
C406 C 0.17664 0.84469 0.30881 0.0
C407 C 0.14467 0.87078 0.32084 0.0
C408 C 0.11661 0.85686 0.35631 0.0
C409 C 0.12099 0.81652 0.37891 0.0
N410 N 0.15119 0.79302 0.36575 0.0
C411 C 0.09496 0.79378 0.41627 0.0
C412 C 0.07578 0.71791 0.46373 0.0
C413 C 0.08633 0.74796 0.49803 0.0
C414 C 0.06124 0.71853 0.53155 0.0
C415 C 1.02442 0.65897 0.5312 0.0
C416 C 1.01177 0.62898 0.49718 0.0
C417 C 0.037 0.65827 0.46363 0.0
Cd418 Cd 0.98797 0.82737 0.44822 0.0
Cd419 Cd 0.96549 0.84559 0.38799 0.0
C420 C 0.24952 0.71986 0.36094 0.0
C421 C 0.27435 0.64403 0.35384 0.0
C422 C 0.32935 0.68752 0.34154 0.0
C423 C 0.35014 0.74426 0.35494 0.0
C424 C 0.30888 0.76074 0.3627 0.0
C425 C 0.23271 0.66078 0.35955 0.0
Co426 Co 0.15427 0.73873 0.3954 0.0
N427 N 0.21817 0.79501 0.42637 0.0
N428 N 0.15702 0.68374 0.42446 0.0
C429 C 0.19899 0.70264 0.45001 0.0
C430 C 0.20551 0.66184 0.47077 0.0
C431 C 0.16776 0.60276 0.46288 0.0
C432 C 0.12511 0.5857 0.43455 0.0
C433 C 0.12119 0.62894 0.41492 0.0
N434 N 0.09151 0.67419 0.36844 0.0
N435 N 0.10065 0.74805 0.42887 0.0
N436 N 0.20822 0.73936 0.35772 0.0
O437 O 0.89482 0.8703 0.38865 0.0
O438 O 0.9396 0.8925 0.44325 0.0
C439 C 0.94547 0.75889 0.51733 0.0
O440 O 0.91384 0.74722 0.48828 0.0
O441 O 0.99508 0.80357 0.51499 0.0
C442 C 0.08319 0.96001 0.41708 0.0
O443 O 0.06842 0.93263 0.44834 0.0
O444 O 0.05396 0.93623 0.38768 0.0
C445 C 0.23345 0.76611 0.45154 0.0
O446 O 0.27382 0.79321 0.47696 0.0
O447 O 0.97555 0.76042 0.39239 0.0
O448 O 0.95648 0.78522 0.3376 0.0
C449 C 0.08366 0.62331 0.38274 0.0
O450 O 0.04202 0.5731 0.37104 0.0
C451 C 0.05097 0.67794 0.34373 0.0
C452 C 1.01109 0.69047 0.35967 0.0
C453 C 0.98406 0.71345 0.3378 0.0
C454 C 0.98782 0.71206 0.29819 0.0
C455 C 1.02189 0.6919 0.281 0.0
C456 C 0.0555 0.67704 0.30411 0.0
C457 C 0.90728 0.89849 0.41911 0.0
O458 O 0.07864 0.82375 0.43921 0.0
C459 C 0.96655 0.75154 0.35687 0.0
C460 C 0.23329 0.85441 0.43166 0.0
C461 C 0.25704 0.89373 0.40186 0.0
C462 C 0.26417 0.94884 0.40511 0.0
C463 C 0.24846 0.96569 0.43827 0.0
C464 C 0.22719 0.92817 0.46941 0.0
C465 C 0.22123 0.87292 0.46607 0.0
C466 C 0.21137 0.77396 0.32819 0.0
O467 O 0.24532 0.78334 0.29898 0.0
H468 H 0.19877 0.85578 0.2819 0.0
H469 H 0.14172 0.90174 0.30277 0.0
H470 H 0.09154 0.87592 0.36525 0.0
H471 H 0.11291 0.79413 0.4991 0.0
H472 H 1.00487 0.63628 0.55715 0.0
H473 H 1.02435 0.63432 0.43767 0.0
H474 H 0.36095 0.67458 0.33514 0.0
H475 H 0.32265 0.80479 0.37074 0.0
H476 H 0.1882 0.62788 0.3625 0.0
H477 H 0.23884 0.6749 0.49189 0.0
H478 H 0.17212 0.57028 0.47829 0.0
H479 H 0.09716 0.54062 0.42791 0.0
H480 H 1.00692 0.68922 0.39 0.0
H481 H 0.96716 0.72972 0.28075 0.0
H482 H 0.08649 0.66725 0.29152 0.0
H483 H 0.26946 0.88166 0.37593 0.0
H484 H 0.25384 1.00848 0.43959 0.0
H485 H 0.20646 0.84391 0.4899 0.0
C486 C 0.64355 0.82412 0.83678 0.0
C487 C 0.68372 0.86473 0.81173 0.0
C488 C 0.74295 0.88693 0.81942 0.0
C489 C 0.7608 0.86911 0.85182 0.0
C490 C 0.71839 0.82864 0.87581 0.0
N491 N 0.66336 0.8087 0.86655 0.0
C492 C 0.72518 0.80379 0.91158 0.0
C493 C 0.67085 0.7293 0.96077 0.0
C494 C 0.6975 0.7592 0.99413 0.0
C495 C 0.69295 0.72926 0.0274 0.0
C496 C 0.66307 0.66918 0.02771 0.0
C497 C 0.63852 0.63897 0.99453 0.0
C498 C 0.6426 0.66877 0.96126 0.0
Cd499 Cd 0.86395 0.82656 0.94557 0.0
Cd500 Cd 0.89973 0.84538 0.88471 0.0
C501 C 0.4912 0.73287 0.87333 0.0
C502 C 0.40053 0.6423 0.87716 0.0
C503 C 0.39259 0.66482 0.91097 0.0
C504 C 0.40909 0.72405 0.90956 0.0
C505 C 0.46544 0.75952 0.89448 0.0
C506 C 0.45459 0.67651 0.85985 0.0
Co507 Co 0.60904 0.75504 0.89801 0.0
N508 N 0.6091 0.8117 0.93291 0.0
N509 N 0.5536 0.70042 0.92857 0.0
C510 C 0.53616 0.71982 0.95744 0.0
C511 C 0.49004 0.67967 0.97942 0.0
C512 C 0.46353 0.62082 0.96902 0.0
C513 C 0.48259 0.60349 0.93691 0.0
C514 C 0.52882 0.64612 0.91621 0.0
N515 N 0.60049 0.68999 0.86716 0.0
N516 N 0.67429 0.75973 0.9263 0.0
N517 N 0.55245 0.76083 0.86629 0.0
O518 O 0.99458 0.86632 0.88179 0.0
O519 O 0.97752 0.8868 0.93857 0.0
C520 C 0.83893 0.76075 0.01528 0.0
O521 O 0.85702 0.74706 0.98612 0.0
O522 O 0.83418 0.80544 0.01237 0.0
C523 C 0.89676 0.95787 0.92064 0.0
O524 O 0.88889 0.9302 0.95134 0.0
O525 O 0.89921 0.93516 0.88975 0.0
C526 C 0.56847 0.78325 0.96041 0.0
O527 O 0.56076 0.81059 0.98861 0.0
O528 O 0.80265 0.75742 0.89209 0.0
O529 O 0.84315 0.78434 0.83633 0.0
C530 C 0.55566 0.63996 0.88128 0.0
O531 O 0.54284 0.58919 0.86783 0.0
C532 C 0.64412 0.68995 0.843 0.0
C533 C 0.69435 0.69669 0.85947 0.0
C534 C 0.74395 0.71342 0.83792 0.0
C535 C 0.73889 0.70892 0.79844 0.0
C536 C 0.68594 0.69285 0.78078 0.0
C537 C 0.63911 0.68632 0.80325 0.0
C538 C 1.01359 0.8918 0.9129 0.0
O539 O 0.77426 0.83153 0.93235 0.0
C540 C 0.80058 0.74982 0.85627 0.0
C541 C 0.6566 0.86964 0.93776 0.0
C542 C 0.67161 0.91044 0.90895 0.0
C543 C 0.72344 0.96267 0.91061 0.0
C544 C 0.76019 0.97535 0.94143 0.0
C545 C 0.74423 0.93692 0.97203 0.0
C546 C 0.69144 0.88461 0.97022 0.0
C547 C 0.58 0.79706 0.8367 0.0
O548 O 0.55209 0.8091 0.81116 0.0
H549 H 0.6701 0.87912 0.78735 0.0
H550 H 0.77501 0.9182 0.80044 0.0
H551 H 0.80585 0.88582 0.85742 0.0
H552 H 0.72254 0.8055 0.99475 0.0
H553 H 0.65986 0.64612 0.05347 0.0
H554 H 0.62509 0.64415 0.93589 0.0
H555 H 0.35729 0.635 0.92862 0.0
H556 H 0.48782 0.80587 0.89787 0.0
H557 H 0.46799 0.65964 0.83661 0.0
H558 H 0.47431 0.69313 1.00324 0.0
H559 H 0.42751 0.58886 0.98534 0.0
H560 H 0.46142 0.55873 0.92841 0.0
H561 H 0.69687 0.69516 0.88965 0.0
H562 H 0.7769 0.72149 0.78126 0.0
H563 H 0.60004 0.68015 0.79 0.0
H564 H 0.64377 0.90165 0.88491 0.0
H565 H 0.80002 1.01625 0.94186 0.0
H566 H 0.67746 0.85514 0.99381 0.0
C567 C 0.25835 0.8674 0.8287 0.0
C568 C 0.22346 0.87104 0.80079 0.0
C569 C 0.19345 0.90053 0.80964 0.0
C570 C 0.19892 0.92566 0.84561 0.0
C571 C 0.23435 0.92011 0.87215 0.0
N572 N 0.2604 0.89068 0.86228 0.0
C573 C 0.25199 0.94694 0.90985 0.0
C574 C 0.32562 0.97119 0.96037 0.0
C575 C 0.2933 0.9591 0.99379 0.0
C576 C 0.32072 0.98054 0.02831 0.0
C577 C 0.38037 1.01632 0.0298 0.0
C578 C 0.41255 0.03162 0.99656 0.0
C579 C 0.38533 1.00949 0.96205 0.0
Cd580 Cd 0.20605 0.04461 0.94398 0.0
Cd581 Cd 0.18207 0.0523 0.88196 0.0
C582 C 0.32309 0.78749 0.87075 0.0
C583 C 0.36389 0.73875 0.90804 0.0
C584 C 0.30577 0.69331 0.9102 0.0
C585 C 0.27392 0.68218 0.87682 0.0
C586 C 0.27842 0.73165 0.85985 0.0
C587 C 0.37063 0.78988 0.89064 0.0
Co588 Co 0.31427 0.893 0.89464 0.0
N589 N 0.25865 0.82949 0.92673 0.0
N590 N 0.36966 0.89619 0.92606 0.0
C591 C 0.35169 0.8574 0.9538 0.0
C592 C 0.39324 0.85556 0.97669 0.0
C593 C 0.45206 0.89434 0.96852 0.0
C594 C 0.46815 0.93317 0.93775 0.0
C595 C 0.42423 0.93226 0.91591 0.0
N596 N 0.37801 0.95748 0.86727 0.0
N597 N 0.29862 0.94517 0.92498 0.0
N598 N 0.32055 0.83879 0.85976 0.0
O599 O 0.14605 0.11486 0.8805 0.0
O600 O 0.14363 0.09526 0.94076 0.0
C601 C 0.26951 0.0811 0.01396 0.0
O602 O 0.28222 0.11517 0.98609 0.0
O603 O 0.22522 0.03157 0.01021 0.0
C604 C 0.0748 0.93768 0.91402 0.0
O605 O 0.10072 0.96281 0.9444 0.0
O606 O 0.09933 0.95793 0.88261 0.0
C607 C 0.2885 0.81952 0.95435 0.0
O608 O 0.26223 0.7806 0.98086 0.0
O609 O 0.2815 0.06712 0.89149 0.0
O610 O 0.25102 0.0724 0.8351 0.0
C611 C 0.42918 0.96731 0.88229 0.0
O612 O 0.47887 1.0106 0.87114 0.0
C613 C 0.37357 0.99918 0.84357 0.0
C614 C 0.35761 0.03643 0.86013 0.0
C615 C 0.33477 0.06381 0.83835 0.0
C616 C 0.34163 0.06543 0.79898 0.0
C617 C 0.36582 0.0353 0.78141 0.0
C618 C 0.37921 0.99969 0.80385 0.0
C619 C 0.1293 0.11694 0.91351 0.0
O620 O 0.21651 0.95853 0.93089 0.0
C621 C 0.29005 0.07372 0.85579 0.0
C622 C 0.19882 0.81377 0.93157 0.0
C623 C 0.1604 0.79062 0.90136 0.0
C624 C 0.1054 0.78401 0.9039 0.0
C625 C 0.08778 0.80004 0.93663 0.0
C626 C 0.12442 0.82139 0.96808 0.0
C627 C 0.17919 0.82584 0.96566 0.0
C628 C 0.29394 0.83957 0.82679 0.0
O629 O 0.29471 0.81159 0.79651 0.0
H630 H 0.2199 0.85245 0.77313 0.0
H631 H 0.16683 0.90481 0.78843 0.0
H632 H 0.17826 0.95043 0.8517 0.0
H633 H 0.24707 0.93372 0.99354 0.0
H634 H 0.40144 0.03316 0.05655 0.0
H635 H 0.41113 0.0234 0.93682 0.0
H636 H 0.29358 0.65674 0.92845 0.0
H637 H 0.24746 0.72591 0.83835 0.0
H638 H 0.41193 0.82908 0.89038 0.0
H639 H 0.38098 0.8248 0.99953 0.0
H640 H 0.48512 0.89372 0.98565 0.0
H641 H 0.51308 0.96217 0.93116 0.0
H642 H 0.35609 0.03837 0.8904 0.0
H643 H 0.3242 0.08649 0.78168 0.0
H644 H 0.39159 0.97109 0.79053 0.0
H645 H 0.17335 0.77878 0.87551 0.0
H646 H 0.04518 0.79517 0.93729 0.0
H647 H 0.20715 0.83997 0.98995 0.0
C648 C 0.17892 0.38297 0.83285 0.0
C649 C 0.17666 0.34049 0.80881 0.0
C650 C 0.14469 0.28244 0.82085 0.0
C651 C 0.11662 0.26829 0.85632 0.0
C652 C 0.121 0.31301 0.87891 0.0
N653 N 0.1512 0.36671 0.86575 0.0
C654 C 0.09496 0.30972 0.91627 0.0
C655 C 0.07578 0.36641 0.96373 0.0
C656 C 0.08633 0.34691 0.99803 0.0
C657 C 0.06123 0.35126 0.03155 0.0
C658 C 1.02441 0.37399 0.0312 0.0
C659 C 1.01177 0.39134 0.99717 0.0
C660 C 0.037 0.38728 0.96363 0.0
Cd661 Cd 0.98797 0.16914 0.94823 0.0
Cd662 Cd 0.96549 0.12845 0.88799 0.0
C663 C 0.24952 0.53819 0.86094 0.0
C664 C 0.27433 0.63885 0.85383 0.0
C665 C 0.32934 0.65036 0.84153 0.0
C666 C 0.35013 0.61442 0.85494 0.0
C667 C 0.30888 0.55668 0.86271 0.0
C668 C 0.2327 0.58047 0.85954 0.0
Co669 Co 0.15427 0.42408 0.89541 0.0
N670 N 0.21818 0.4317 0.92637 0.0
N671 N 0.15702 0.48182 0.92446 0.0
C672 C 0.19898 0.50488 0.95001 0.0
C673 C 0.2055 0.5522 0.97077 0.0
C674 C 0.16776 0.57354 0.96287 0.0
C675 C 0.12511 0.54795 0.93455 0.0
C676 C 0.1212 0.50079 0.91491 0.0
N677 N 0.09152 0.42586 0.86843 0.0
N678 N 0.10065 0.36114 0.92887 0.0
N679 N 0.20823 0.47739 0.85772 0.0
O680 O 0.89482 0.03308 0.88865 0.0
O681 O 0.9396 0.05565 0.94325 0.0
C682 C 0.94547 0.19513 0.01733 0.0
O683 O 0.91384 0.17517 0.98828 0.0
O684 O 0.99508 0.20006 0.01499 0.0
C685 C 0.0832 0.13173 0.91708 0.0
O686 O 0.06842 0.14433 0.94834 0.0
O687 O 0.05396 0.12627 0.88769 0.0
C688 C 0.23344 0.47587 0.95154 0.0
O689 O 0.27382 0.48914 0.97696 0.0
O690 O 0.97555 0.22368 0.89239 0.0
O691 O 0.95648 0.17981 0.8376 0.0
C692 C 0.08367 0.4689 0.88273 0.0
O693 O 0.04203 0.47747 0.87103 0.0
C694 C 0.05097 0.38157 0.84373 0.0
C695 C 1.0111 0.32917 0.85967 0.0
C696 C 0.98407 0.27916 0.8378 0.0
C697 C 0.98782 0.28431 0.79819 0.0
C698 C 1.0219 0.33854 0.781 0.0
C699 C 0.05551 0.387 0.80411 0.0
C700 C 0.90728 0.01735 0.91911 0.0
O701 O 0.07864 0.26343 0.93921 0.0
C702 C 0.96656 0.22357 0.85687 0.0
C703 C 0.23329 0.38741 0.93167 0.0
C704 C 0.25704 0.37183 0.90187 0.0
C705 C 0.26417 0.32386 0.90512 0.0
C706 C 0.24846 0.2913 0.93828 0.0
C707 C 0.22718 0.30755 0.96942 0.0
C708 C 0.22122 0.35684 0.96607 0.0
C709 C 0.21138 0.44594 0.8282 0.0
O710 O 0.24534 0.47051 0.79899 0.0
H711 H 0.1988 0.35153 0.78191 0.0
H712 H 0.14175 0.24852 0.80277 0.0
H713 H 0.09156 0.22417 0.86526 0.0
H714 H 0.1129 0.32732 0.9991 0.0
H715 H 1.00486 0.37714 0.05715 0.0
H716 H 1.02435 0.39858 0.93767 0.0
H717 H 0.36093 0.6949 0.83514 0.0
H718 H 0.32265 0.52641 0.87076 0.0
H719 H 0.18818 0.56884 0.86248 0.0
H720 H 0.23883 0.57247 0.99189 0.0
H721 H 0.17212 0.61038 0.97828 0.0
H722 H 0.09717 0.56508 0.9279 0.0
H723 H 1.00692 0.32625 0.89 0.0
H724 H 0.96717 0.24599 0.78075 0.0
H725 H 0.0865 0.42778 0.79151 0.0
H726 H 0.26947 0.39634 0.87594 0.0
H727 H 0.25383 0.25389 0.93959 0.0
H728 H 0.20645 0.37108 0.9899 0.0
C729 C 0.79221 0.63434 0.69152 0.0
C730 C 0.82709 0.67285 0.71943 0.0
C731 C 0.85711 0.73236 0.71059 0.0
C732 C 0.85164 0.75202 0.67461 0.0
C733 C 0.81622 0.71105 0.64807 0.0
N734 N 0.79016 0.65557 0.65794 0.0
C735 C 0.79858 0.72025 0.61037 0.0
C736 C 0.72496 0.67088 0.55984 0.0
C737 C 0.75729 0.6911 0.52642 0.0
C738 C 0.72988 0.68514 0.4919 0.0
C739 C 0.67022 0.66126 0.49042 0.0
C740 C 0.63804 0.64439 0.52365 0.0
C741 C 0.66526 0.64948 0.55816 0.0
Cd742 Cd 0.84453 0.86385 0.57624 0.0
Cd743 Cd 0.86851 0.89551 0.63826 0.0
C744 C 0.72746 0.48969 0.64946 0.0
C745 C 0.68665 0.40016 0.61215 0.0
C746 C 0.74478 0.41284 0.61001 0.0
C747 C 0.77662 0.43354 0.6434 0.0
C748 C 0.77212 0.4785 0.66036 0.0
C749 C 0.67993 0.44455 0.62957 0.0
Co750 Co 0.7363 0.60403 0.62557 0.0
N751 N 0.79192 0.59613 0.59348 0.0
N752 N 0.68091 0.55183 0.59415 0.0
C753 C 0.69889 0.53101 0.56642 0.0
C754 C 0.65734 0.48763 0.54352 0.0
C755 C 0.59852 0.4676 0.55168 0.0
C756 C 0.58242 0.49034 0.58246 0.0
C757 C 0.62634 0.53334 0.6043 0.0
N758 N 0.67256 0.60477 0.65294 0.0
N759 N 0.75195 0.67185 0.59524 0.0
N760 N 0.73001 0.54353 0.66045 0.0
O761 O 0.90454 0.99409 0.63972 0.0
O762 O 0.90693 0.97691 0.57946 0.0
C763 C 0.78107 0.83688 0.50626 0.0
O764 O 0.76835 0.85824 0.53413 0.0
O765 O 0.82536 0.83165 0.51001 0.0
C766 C 0.97578 0.88815 0.6062 0.0
O767 O 0.94986 0.88738 0.57582 0.0
O768 O 0.95124 0.88386 0.63761 0.0
C769 C 0.76207 0.55632 0.56586 0.0
O770 O 0.78835 0.54367 0.53936 0.0
O771 O 0.76907 0.81092 0.62873 0.0
O772 O 0.79955 0.84666 0.68512 0.0
C773 C 0.62138 0.56344 0.63791 0.0
O774 O 0.5717 0.55705 0.64907 0.0
C775 C 0.677 0.65091 0.67665 0.0
C776 C 0.69296 0.70413 0.66008 0.0
C777 C 0.7158 0.75434 0.68186 0.0
C778 C 0.70894 0.7491 0.72124 0.0
C779 C 0.68476 0.69478 0.7388 0.0
C780 C 0.67136 0.64577 0.71637 0.0
C781 C 0.92127 1.01292 0.60671 0.0
O782 O 0.83407 0.76732 0.58934 0.0
C783 C 0.76053 0.80897 0.66443 0.0
C784 C 0.85176 0.64025 0.58865 0.0
C785 C 0.89017 0.65551 0.61886 0.0
C786 C 0.94517 0.7039 0.61632 0.0
C787 C 0.96279 0.73755 0.58359 0.0
C788 C 0.92615 0.72226 0.55214 0.0
C789 C 0.87138 0.67195 0.55455 0.0
C790 C 0.75661 0.57091 0.69342 0.0
O791 O 0.75583 0.54216 0.7237 0.0
H792 H 0.83065 0.65783 0.74709 0.0
H793 H 0.88372 0.76324 0.7318 0.0
H794 H 0.8723 0.79745 0.66853 0.0
H795 H 0.80352 0.71196 0.52669 0.0
H796 H 0.64916 0.65704 0.46366 0.0
H797 H 0.63944 0.63758 0.58339 0.0
H798 H 0.75698 0.38848 0.59176 0.0
H799 H 0.80308 0.50372 0.68188 0.0
H800 H 0.63863 0.44246 0.62983 0.0
H801 H 0.6696 0.46913 0.52067 0.0
H802 H 0.56546 0.43393 0.53455 0.0
H803 H 0.53749 0.47441 0.58904 0.0
H804 H 0.69448 0.70759 0.62982 0.0
H805 H 0.72637 0.78758 0.73854 0.0
H806 H 0.65897 0.6048 0.72968 0.0
H807 H 0.87722 0.63072 0.64471 0.0
H808 H 1.00538 0.77528 0.58293 0.0
H809 H 0.84342 0.65811 0.53026 0.0
C810 C 0.407 0.20584 0.68344 0.0
C811 C 0.36683 0.20627 0.70849 0.0
C812 C 0.3076 0.16924 0.7008 0.0
C813 C 0.28976 0.13358 0.6684 0.0
C814 C 0.33216 0.13552 0.64441 0.0
N815 N 0.3872 0.17062 0.65367 0.0
C816 C 0.32538 0.10389 0.60864 0.0
C817 C 0.37972 0.08374 0.55944 0.0
C818 C 0.35307 0.08699 0.52609 0.0
C819 C 0.35762 0.0616 0.49282 0.0
C820 C 0.3875 0.0314 0.4925 0.0
C821 C 0.41206 0.02574 0.52569 0.0
C822 C 0.40798 0.05147 0.55895 0.0
Cd823 Cd 0.18662 0.98788 0.57465 0.0
Cd824 Cd 0.15084 0.97092 0.63551 0.0
C825 C 0.55936 0.26695 0.6469 0.0
C826 C 0.65003 0.26704 0.64306 0.0
C827 C 0.65799 0.29753 0.60926 0.0
C828 C 0.64147 0.34024 0.61069 0.0
C829 C 0.58512 0.31938 0.62576 0.0
C830 C 0.59596 0.24719 0.66036 0.0
Co831 Co 0.44153 0.17129 0.6222 0.0
N832 N 0.44146 0.22788 0.58731 0.0
N833 N 0.49697 0.17211 0.59165 0.0
C834 C 0.51441 0.20895 0.56278 0.0
C835 C 0.56053 0.21493 0.5408 0.0
C836 C 0.58704 0.18259 0.5512 0.0
C837 C 0.56799 0.14621 0.58331 0.0
C838 C 0.52176 0.14259 0.60401 0.0
N839 N 0.45008 0.11479 0.65306 0.0
N840 N 0.37628 0.11072 0.59391 0.0
N841 N 0.49811 0.23366 0.65393 0.0
O842 O 0.05599 0.897 0.63843 0.0
O843 O 0.07306 0.93456 0.58165 0.0
C844 C 0.21164 0.94709 0.50494 0.0
O845 O 0.19355 0.91532 0.53409 0.0
O846 O 0.21639 0.99653 0.50784 0.0
C847 C 0.1538 0.08638 0.59957 0.0
O848 O 0.16167 0.06658 0.56887 0.0
O849 O 0.15136 0.06121 0.63046 0.0
C850 C 0.48209 0.24008 0.55981 0.0
O851 O 0.48979 0.27511 0.53161 0.0
O852 O 0.24793 0.98005 0.62813 0.0
O853 O 0.20743 0.96646 0.68388 0.0
C854 C 0.49491 0.10958 0.63894 0.0
O855 O 0.50774 0.07164 0.65238 0.0
C856 C 0.40645 0.07112 0.67721 0.0
C857 C 0.35623 0.02763 0.66075 0.0
C858 C 0.30663 0.99475 0.6823 0.0
C859 C 0.31168 0.9953 0.72177 0.0
C860 C 0.36463 0.0322 0.73943 0.0
C861 C 0.41147 0.0725 0.71697 0.0
C862 C 0.03699 0.90348 0.60732 0.0
O863 O 0.2763 0.08254 0.58787 0.0
C864 C 0.25 0.97451 0.66394 0.0
C865 C 0.39394 0.23831 0.58246 0.0
C866 C 0.37893 0.2641 0.61127 0.0
C867 C 0.32709 0.26449 0.60962 0.0
C868 C 0.29034 0.24042 0.57879 0.0
C869 C 0.30631 0.21796 0.54819 0.0
C870 C 0.35911 0.21845 0.55001 0.0
C871 C 0.47056 0.24234 0.68352 0.0
O872 O 0.49846 0.28229 0.70906 0.0
H873 H 0.38044 0.23428 0.73287 0.0
H874 H 0.27554 0.16845 0.71979 0.0
H875 H 0.2447 0.10523 0.6628 0.0
H876 H 0.32802 0.10824 0.52547 0.0
H877 H 0.39072 1.01156 0.46674 0.0
H878 H 0.42549 0.04435 0.58432 0.0
H879 H 0.6933 0.30303 0.59161 0.0
H880 H 0.56275 0.34336 0.62237 0.0
H881 H 0.58256 0.2169 0.6836 0.0
H882 H 0.57625 0.24412 0.51698 0.0
H883 H 0.62307 0.18666 0.53488 0.0
H884 H 0.58916 0.12261 0.5918 0.0
H885 H 0.35371 0.02357 0.63056 0.0
H886 H 0.27368 0.96986 0.73896 0.0
H887 H 0.45054 0.1054 0.73022 0.0
H888 H 0.40676 0.28314 0.63531 0.0
H889 H 0.25051 0.24149 0.57836 0.0
H890 H 0.37309 0.20296 0.52641 0.0
C891 C 0.87166 0.22935 0.68737 0.0
C892 C 0.87392 0.18913 0.71141 0.0
C893 C 0.90589 0.16305 0.69938 0.0
C894 C 0.93396 0.17696 0.66391 0.0
C895 C 0.92957 0.2173 0.64131 0.0
N896 N 0.89937 0.2408 0.65447 0.0
C897 C 0.95561 0.24004 0.60395 0.0
C898 C 0.97478 0.31591 0.55648 0.0
C899 C 0.96423 0.28587 0.52218 0.0
C900 C 0.98933 0.3153 0.48867 0.0
C901 C 0.02615 0.37485 0.48902 0.0
C902 C 0.03879 0.40484 0.52304 0.0
C903 C 1.01356 0.37555 0.55659 0.0
Cd904 Cd 0.0626 0.20645 0.57199 0.0
Cd905 Cd 0.08507 0.18823 0.63223 0.0
C906 C 0.80104 0.31396 0.65928 0.0
C907 C 0.77621 0.38979 0.66638 0.0
C908 C 0.72121 0.3463 0.67868 0.0
C909 C 0.70043 0.28957 0.66528 0.0
C910 C 0.74168 0.27308 0.65752 0.0
C911 C 0.81785 0.37305 0.66067 0.0
Co912 Co 0.8963 0.29509 0.62481 0.0
N913 N 0.83239 0.23881 0.59385 0.0
N914 N 0.89354 0.35008 0.59575 0.0
C915 C 0.85158 0.33119 0.57021 0.0
C916 C 0.84506 0.37198 0.54945 0.0
C917 C 0.8828 0.43106 0.55734 0.0
C918 C 0.92546 0.44812 0.58567 0.0
C919 C 0.92937 0.40488 0.6053 0.0
N920 N 0.95905 0.35963 0.65178 0.0
N921 N 0.94991 0.28577 0.59135 0.0
N922 N 0.84234 0.29446 0.6625 0.0
O923 O 0.15574 0.16352 0.63157 0.0
O924 O 0.11096 0.14132 0.57697 0.0
C925 C 0.10509 0.27494 0.50289 0.0
O926 O 0.13672 0.2866 0.53194 0.0
O927 O 0.05548 0.23025 0.50523 0.0
C928 C 0.96737 0.07382 0.60314 0.0
O929 O 0.98215 0.10119 0.57188 0.0
O930 O 0.99661 0.09759 0.63254 0.0
C931 C 0.81712 0.26772 0.56868 0.0
O932 O 0.77674 0.24061 0.54326 0.0
O933 O 0.07502 0.2734 0.62783 0.0
O934 O 0.09409 0.2486 0.68262 0.0
C935 C 0.9669 0.41052 0.63748 0.0
O936 O 1.00855 0.46073 0.64918 0.0
C937 C 0.9996 0.35588 0.67649 0.0
C938 C 0.03947 0.34335 0.66055 0.0
C939 C 0.0665 0.32037 0.68242 0.0
C940 C 0.06275 0.32176 0.72202 0.0
C941 C 0.02867 0.34193 0.73922 0.0
C942 C 0.99506 0.35679 0.71611 0.0
C943 C 0.14328 0.13534 0.60111 0.0
O944 O 0.97193 0.21007 0.58101 0.0
C945 C 0.08401 0.28229 0.66335 0.0
C946 C 0.81728 0.17941 0.58856 0.0
C947 C 0.79353 0.14009 0.61835 0.0
C948 C 0.7864 0.08498 0.61511 0.0
C949 C 0.8021 0.06814 0.58195 0.0
C950 C 0.82338 0.10566 0.5508 0.0
C951 C 0.82934 0.16091 0.55415 0.0
C952 C 0.83919 0.25986 0.69203 0.0
O953 O 0.80524 0.25048 0.72123 0.0
H954 H 0.85179 0.17804 0.73832 0.0
H955 H 0.90884 0.13208 0.71745 0.0
H956 H 0.95902 0.1579 0.65497 0.0
H957 H 0.93765 0.23969 0.52112 0.0
H958 H 0.04569 0.39754 0.46307 0.0
H959 H 0.02622 0.3995 0.58255 0.0
H960 H 0.68962 0.35924 0.68508 0.0
H961 H 0.72792 0.22904 0.64948 0.0
H962 H 0.86237 0.40594 0.65772 0.0
H963 H 0.81173 0.35892 0.52833 0.0
H964 H 0.87845 0.46354 0.54193 0.0
H965 H 0.9534 0.4932 0.59231 0.0
H966 H 0.04365 0.34461 0.63022 0.0
H967 H 0.0834 0.3041 0.73947 0.0
H968 H 0.96407 0.36657 0.7287 0.0
H969 H 0.7811 0.15216 0.64429 0.0
H970 H 0.79673 0.02535 0.58063 0.0
H971 H 0.8441 0.18992 0.53032 0.0
loop_
_geom_bond_atom_site_label_1
_geom_bond_atom_site_label_2
_geom_bond_distance
_geom_bond_site_symmetry_2
_ccdc_geom_bond_type
C0 C1 1.359 . S
C0 N5 1.330 . S
C0 C61 1.504 . S
C1 C0 1.359 . S
C1 C2 1.366 . S
C1 H63 0.929 . S
C2 C1 1.366 . S
C2 C3 1.415 . S
C2 H64 0.932 . S
C3 C2 1.415 . S
C3 C4 1.366 . S
C3 H65 0.931 . S
C4 C3 1.366 . S
C4 N5 1.325 . S
C4 C6 1.516 . S
N5 C0 1.330 . S
N5 C4 1.325 . S
N5 Co21 1.869 . S
C6 C4 1.516 . S
C6 N30 1.316 . S
C6 O53 1.263 . S
C7 C8 1.421 . S
C7 C12 1.360 . S
C7 N30 1.436 . S
C8 C7 1.421 . S
C8 C9 1.379 1_554 S
C8 H66 0.929 . S
C9 C8 1.379 1_556 S
C9 C10 1.417 . S
C10 C9 1.417 . S
C10 C11 1.352 1_556 S
C10 H67 0.929 . S
C11 C10 1.352 1_554 S
C11 C12 1.393 . S
C12 C7 1.360 . S
C12 C11 1.393 . S
C12 H68 0.931 . S
Cd13 O33 2.329 . S
Cd13 O35 2.350 . S
Cd13 O36 2.277 . S
Cd13 O38 2.173 . S
Cd13 O42 2.263 . S
Cd13 O53 2.366 . S
Cd14 O32 2.352 1_455 S
Cd14 O39 2.250 . S
Cd14 O43 2.308 . S
C15 C19 1.403 . S
C15 C20 1.370 . S
C15 N31 1.423 . S
C16 C17 1.389 . S
C16 C20 1.389 . S
C17 C16 1.389 . S
C17 C18 1.379 . S
C17 H69 0.929 . S
C18 C17 1.379 . S
C18 C19 1.405 . S
C19 C15 1.403 . S
C19 C18 1.405 . S
C19 H70 0.932 . S
C20 C15 1.370 . S
C20 C16 1.389 . S
C20 H71 0.931 . S
Co21 N5 1.869 . S
Co21 N22 1.955 . S
Co21 N23 1.864 . S
Co21 N29 1.958 . S
Co21 N30 1.953 . S
Co21 N31 1.974 . S
N22 Co21 1.955 . S
N22 C40 1.329 . S
N22 C55 1.432 . S
N23 Co21 1.864 . S
N23 C24 1.327 . S
N23 C28 1.342 . S
C24 N23 1.327 . S
C24 C25 1.407 . S
C24 C40 1.481 . S
C25 C24 1.407 . S
C25 C26 1.364 . S
C25 H72 0.930 . S
C26 C25 1.364 . S
C26 C27 1.390 . S
C26 H73 0.931 . S
C27 C26 1.390 . S
C27 C28 1.346 . S
C27 H74 0.930 . S
C28 N23 1.342 . S
C28 C27 1.346 . S
C28 C44 1.516 . S
N29 Co21 1.958 . S
N29 C44 1.324 . S
N29 C46 1.427 . S
N30 C6 1.316 . S
N30 C7 1.436 . S
N30 Co21 1.953 . S
N31 C15 1.423 . S
N31 Co21 1.974 . S
N31 C61 1.309 . S
O32 Cd14 2.352 1_655 S
O32 C52 1.235 1_655 S
O33 Cd13 2.329 . S
O33 C52 1.270 . S
C34 O35 1.270 . S
C34 O36 1.248 . S
O35 Cd13 2.350 . S
O35 C34 1.270 . S
O36 Cd13 2.277 . S
O36 C34 1.248 . S
C37 O38 1.277 . S
C37 O39 1.230 . S
O38 Cd13 2.173 . S
O38 C37 1.277 . S
O39 Cd14 2.250 . S
O39 C37 1.230 . S
C40 N22 1.329 . S
C40 C24 1.481 . S
C40 O41 1.246 . S
O41 C40 1.246 . S
O42 Cd13 2.263 . S
O42 C54 1.258 . S
O43 Cd14 2.308 . S
O43 C54 1.274 . S
C44 C28 1.516 . S
C44 N29 1.324 . S
C44 O45 1.238 . S
O45 C44 1.238 . S
C46 N29 1.427 . S
C46 C47 1.394 . S
C46 C51 1.395 . S
C47 C46 1.394 . S
C47 C48 1.380 . S
C47 H75 0.929 . S
C48 C47 1.380 . S
C48 C49 1.384 . S
C48 C54 1.495 . S
C49 C48 1.384 . S
C49 C50 1.382 . S
C49 H76 0.930 . S
C50 C49 1.382 . S
C50 C51 1.398 . S
C51 C46 1.395 . S
C51 C50 1.398 . S
C51 H77 0.930 . S
C52 O32 1.235 1_455 S
C52 O33 1.270 . S
O53 C6 1.263 . S
O53 Cd13 2.366 . S
C54 O42 1.258 . S
C54 O43 1.274 . S
C54 C48 1.495 . S
C55 N22 1.432 . S
C55 C56 1.381 . S
C55 C60 1.385 . S
C56 C55 1.381 . S
C56 C57 1.371 . S
C56 H78 0.932 . S
C57 C56 1.371 . S
C57 C58 1.400 . S
C58 C57 1.400 . S
C58 C59 1.351 . S
C58 H79 0.930 . S
C59 C58 1.351 . S
C59 C60 1.388 . S
C60 C55 1.385 . S
C60 C59 1.388 . S
C60 H80 0.929 . S
C61 C0 1.504 . S
C61 N31 1.309 . S
C61 O62 1.258 . S
O62 C61 1.258 . S
H63 C1 0.929 . S
H64 C2 0.932 . S
H65 C3 0.931 . S
H66 C8 0.929 . S
H67 C10 0.929 . S
H68 C12 0.931 . S
H69 C17 0.929 . S
H70 C19 0.932 . S
H71 C20 0.931 . S
H72 C25 0.930 . S
H73 C26 0.931 . S
H74 C27 0.930 . S
H75 C47 0.929 . S
H76 C49 0.930 . S
H77 C51 0.930 . S
H78 C56 0.932 . S
H79 C58 0.930 . S
H80 C60 0.929 . S
C81 C82 1.359 . S
C81 N86 1.330 . S
C81 C142 1.504 . S
C82 C81 1.359 . S
C82 C83 1.366 . S
C82 H144 0.929 . S
C83 C82 1.366 . S
C83 C84 1.415 . S
C83 H145 0.932 . S
C84 C83 1.415 . S
C84 C85 1.366 . S
C84 H146 0.931 . S
C85 C84 1.366 . S
C85 N86 1.325 . S
C85 C87 1.516 . S
N86 C81 1.330 . S
N86 C85 1.325 . S
N86 Co102 1.869 . S
C87 C85 1.516 . S
C87 N111 1.316 . S
C87 O134 1.263 . S
C88 C89 1.421 . S
C88 C93 1.360 . S
C88 N111 1.436 . S
C89 C88 1.421 . S
C89 C90 1.379 1_554 S
C89 H147 0.929 . S
C90 C89 1.379 1_556 S
C90 C91 1.417 1_545 S
C91 C90 1.417 1_565 S
C91 C92 1.352 1_556 S
C91 H148 0.929 . S
C92 C91 1.352 1_554 S
C92 C93 1.393 1_565 S
C93 C88 1.360 . S
C93 C92 1.393 1_545 S
C93 H149 0.931 1_545 S
Cd94 O114 2.329 . S
Cd94 O116 2.350 . S
Cd94 O117 2.277 . S
Cd94 O119 2.173 1_565 S
Cd94 O123 2.263 . S
Cd94 O134 2.366 1_565 S
Cd95 O113 2.352 . S
Cd95 O120 2.250 . S
Cd95 O124 2.308 . S
C96 C100 1.403 . S
C96 C101 1.370 . S
C96 N112 1.423 . S
C97 C98 1.389 . S
C97 C101 1.389 . S
C98 C97 1.389 . S
C98 C99 1.379 . S
C98 H150 0.929 . S
C99 C98 1.379 . S
C99 C100 1.405 . S
C100 C96 1.403 . S
C100 C99 1.405 . S
C100 H151 0.932 . S
C101 C96 1.370 . S
C101 C97 1.389 . S
C101 H152 0.931 . S
Co102 N86 1.869 . S
Co102 N103 1.955 . S
Co102 N104 1.864 . S
Co102 N110 1.958 . S
Co102 N111 1.953 . S
Co102 N112 1.974 . S
N103 Co102 1.955 . S
N103 C121 1.329 . S
N103 C136 1.432 . S
N104 Co102 1.864 . S
N104 C105 1.327 . S
N104 C109 1.342 . S
C105 N104 1.327 . S
C105 C106 1.407 . S
C105 C121 1.481 . S
C106 C105 1.407 . S
C106 C107 1.364 . S
C106 H153 0.930 . S
C107 C106 1.364 . S
C107 C108 1.390 . S
C107 H154 0.931 . S
C108 C107 1.390 . S
C108 C109 1.346 . S
C108 H155 0.930 . S
C109 N104 1.342 . S
C109 C108 1.346 . S
C109 C125 1.516 . S
N110 Co102 1.958 . S
N110 C125 1.324 . S
N110 C127 1.427 . S
N111 C87 1.316 . S
N111 C88 1.436 . S
N111 Co102 1.953 . S
N112 C96 1.423 . S
N112 Co102 1.974 . S
N112 C142 1.309 . S
O113 Cd95 2.352 . S
O113 C133 1.235 . S
O114 Cd94 2.329 . S
O114 C133 1.270 . S
C115 O116 1.270 . S
C115 O117 1.248 . S
O116 Cd94 2.350 . S
O116 C115 1.270 . S
O117 Cd94 2.277 . S
O117 C115 1.248 . S
C118 O119 1.277 . S
C118 O120 1.230 1_545 S
O119 Cd94 2.173 1_545 S
O119 C118 1.277 . S
O120 Cd95 2.250 . S
O120 C118 1.230 1_565 S
C121 N103 1.329 . S
C121 C105 1.481 . S
C121 O122 1.246 . S
O122 C121 1.246 . S
O123 Cd94 2.263 . S
O123 C135 1.258 . S
O124 Cd95 2.308 . S
O124 C135 1.274 . S
C125 C109 1.516 . S
C125 N110 1.324 . S
C125 O126 1.238 . S
O126 C125 1.238 . S
C127 N110 1.427 . S
C127 C128 1.394 . S
C127 C132 1.395 . S
C128 C127 1.394 . S
C128 C129 1.380 1_545 S
C128 H156 0.929 . S
C129 C128 1.380 1_565 S
C129 C130 1.384 1_565 S
C129 C135 1.495 . S
C130 C129 1.384 1_545 S
C130 C131 1.382 . S
C130 H157 0.930 1_545 S
C131 C130 1.382 . S
C131 C132 1.398 . S
C132 C127 1.395 . S
C132 C131 1.398 . S
C132 H158 0.930 . S
C133 O113 1.235 . S
C133 O114 1.270 . S
O134 C87 1.263 . S
O134 Cd94 2.366 1_545 S
C135 O123 1.258 . S
C135 O124 1.274 . S
C135 C129 1.495 . S
C136 N103 1.432 . S
C136 C137 1.381 . S
C136 C141 1.385 . S
C137 C136 1.381 . S
C137 C138 1.371 . S
C137 H159 0.932 . S
C138 C137 1.371 . S
C138 C139 1.400 . S
C139 C138 1.400 . S
C139 C140 1.351 . S
C139 H160 0.930 . S
C140 C139 1.351 . S
C140 C141 1.388 . S
C141 C136 1.385 . S
C141 C140 1.388 . S
C141 H161 0.929 . S
C142 C81 1.504 . S
C142 N112 1.309 . S
C142 O143 1.258 . S
O143 C142 1.258 . S
H144 C82 0.929 . S
H145 C83 0.932 . S
H146 C84 0.931 . S
H147 C89 0.929 . S
H148 C91 0.929 . S
H149 C93 0.931 1_565 S
H150 C98 0.929 . S
H151 C100 0.932 . S
H152 C101 0.931 . S
H153 C106 0.930 . S
H154 C107 0.931 . S
H155 C108 0.930 . S
H156 C128 0.929 . S
H157 C130 0.930 1_565 S
H158 C132 0.930 . S
H159 C137 0.932 . S
H160 C139 0.930 . S
H161 C141 0.929 . S
C162 C163 1.359 . S
C162 N167 1.330 . S
C162 C223 1.504 . S
C163 C162 1.359 . S
C163 C164 1.366 . S
C163 H225 0.929 . S
C164 C163 1.366 . S
C164 C165 1.415 . S
C164 H226 0.932 . S
C165 C164 1.415 . S
C165 C166 1.366 . S
C165 H227 0.931 . S
C166 C165 1.366 . S
C166 N167 1.325 . S
C166 C168 1.516 . S
N167 C162 1.330 . S
N167 C166 1.325 . S
N167 Co183 1.869 . S
C168 C166 1.516 . S
C168 N192 1.316 . S
C168 O215 1.263 . S
C169 C170 1.421 . S
C169 C174 1.360 . S
C169 N192 1.436 . S
C170 C169 1.421 . S
C170 C171 1.379 1_554 S
C170 H228 0.929 . S
C171 C170 1.379 1_556 S
C171 C172 1.417 1_655 S
C172 C171 1.417 1_455 S
C172 C173 1.352 1_556 S
C172 H229 0.929 . S
C173 C172 1.352 1_554 S
C173 C174 1.393 1_455 S
C174 C169 1.360 . S
C174 C173 1.393 1_655 S
C174 H230 0.931 1_655 S
Cd175 O195 2.329 . S
Cd175 O197 2.350 . S
Cd175 O198 2.277 . S
Cd175 O200 2.173 1_455 S
Cd175 O204 2.263 . S
Cd175 O215 2.366 1_455 S
Cd176 O194 2.352 1_565 S
Cd176 O201 2.250 . S
Cd176 O205 2.308 . S
C177 C181 1.403 . S
C177 C182 1.370 . S
C177 N193 1.423 . S
C178 C179 1.389 . S
C178 C182 1.389 . S
C179 C178 1.389 . S
C179 C180 1.379 . S
C179 H231 0.929 . S
C180 C179 1.379 . S
C180 C181 1.405 . S
C181 C177 1.403 . S
C181 C180 1.405 . S
C181 H232 0.932 . S
C182 C177 1.370 . S
C182 C178 1.389 . S
C182 H233 0.931 . S
Co183 N167 1.869 . S
Co183 N184 1.955 . S
Co183 N185 1.864 . S
Co183 N191 1.958 . S
Co183 N192 1.953 . S
Co183 N193 1.974 . S
N184 Co183 1.955 . S
N184 C202 1.329 . S
N184 C217 1.432 . S
N185 Co183 1.864 . S
N185 C186 1.327 . S
N185 C190 1.342 . S
C186 N185 1.327 . S
C186 C187 1.407 . S
C186 C202 1.481 . S
C187 C186 1.407 . S
C187 C188 1.364 . S
C187 H234 0.930 . S
C188 C187 1.364 . S
C188 C189 1.390 . S
C188 H235 0.931 . S
C189 C188 1.390 . S
C189 C190 1.346 . S
C189 H236 0.930 . S
C190 N185 1.342 . S
C190 C189 1.346 . S
C190 C206 1.516 . S
N191 Co183 1.958 . S
N191 C206 1.324 . S
N191 C208 1.427 . S
N192 C168 1.316 . S
N192 C169 1.436 . S
N192 Co183 1.953 . S
N193 C177 1.423 . S
N193 Co183 1.974 . S
N193 C223 1.309 . S
O194 Cd176 2.352 1_545 S
O194 C214 1.235 1_545 S
O195 Cd175 2.329 . S
O195 C214 1.270 . S
C196 O197 1.270 . S
C196 O198 1.248 . S
O197 Cd175 2.350 . S
O197 C196 1.270 . S
O198 Cd175 2.277 . S
O198 C196 1.248 . S
C199 O200 1.277 . S
C199 O201 1.230 1_655 S
O200 Cd175 2.173 1_655 S
O200 C199 1.277 . S
O201 Cd176 2.250 . S
O201 C199 1.230 1_455 S
C202 N184 1.329 . S
C202 C186 1.481 . S
C202 O203 1.246 . S
O203 C202 1.246 . S
O204 Cd175 2.263 . S
O204 C216 1.258 . S
O205 Cd176 2.308 . S
O205 C216 1.274 . S
C206 C190 1.516 . S
C206 N191 1.324 . S
C206 O207 1.238 . S
O207 C206 1.238 . S
C208 N191 1.427 . S
C208 C209 1.394 . S
C208 C213 1.395 . S
C209 C208 1.394 . S
C209 C210 1.380 1_655 S
C209 H237 0.929 . S
C210 C209 1.380 1_455 S
C210 C211 1.384 1_455 S
C210 C216 1.495 . S
C211 C210 1.384 1_655 S
C211 C212 1.382 . S
C211 H238 0.930 1_655 S
C212 C211 1.382 . S
C212 C213 1.398 . S
C213 C208 1.395 . S
C213 C212 1.398 . S
C213 H239 0.930 . S
C214 O194 1.235 1_565 S
C214 O195 1.270 . S
O215 C168 1.263 . S
O215 Cd175 2.366 1_655 S
C216 O204 1.258 . S
C216 O205 1.274 . S
C216 C210 1.495 . S
C217 N184 1.432 . S
C217 C218 1.381 . S
C217 C222 1.385 . S
C218 C217 1.381 . S
C218 C219 1.371 . S
C218 H240 0.932 . S
C219 C218 1.371 . S
C219 C220 1.400 . S
C220 C219 1.400 . S
C220 C221 1.351 . S
C220 H241 0.930 . S
C221 C220 1.351 . S
C221 C222 1.388 . S
C222 C217 1.385 . S
C222 C221 1.388 . S
C222 H242 0.929 . S
C223 C162 1.504 . S
C223 N193 1.309 . S
C223 O224 1.258 . S
O224 C223 1.258 . S
H225 C163 0.929 . S
H226 C164 0.932 . S
H227 C165 0.931 . S
H228 C170 0.929 . S
H229 C172 0.929 . S
H230 C174 0.931 1_455 S
H231 C179 0.929 . S
H232 C181 0.932 . S
H233 C182 0.931 . S
H234 C187 0.930 . S
H235 C188 0.931 . S
H236 C189 0.930 . S
H237 C209 0.929 . S
H238 C211 0.930 1_455 S
H239 C213 0.930 . S
H240 C218 0.932 . S
H241 C220 0.930 . S
H242 C222 0.929 . S
C243 C244 1.359 . S
C243 N248 1.330 . S
C243 C304 1.504 . S
C244 C243 1.359 . S
C244 C245 1.366 . S
C244 H306 0.929 . S
C245 C244 1.366 . S
C245 C246 1.415 . S
C245 H307 0.932 . S
C246 C245 1.415 . S
C246 C247 1.366 . S
C246 H308 0.931 . S
C247 C246 1.366 . S
C247 N248 1.325 . S
C247 C249 1.516 . S
N248 C243 1.330 . S
N248 C247 1.325 . S
N248 Co264 1.869 . S
C249 C247 1.516 . S
C249 N273 1.316 . S
C249 O296 1.263 . S
C250 C251 1.421 . S
C250 C255 1.360 . S
C250 N273 1.436 . S
C251 C250 1.421 . S
C251 C252 1.379 . S
C251 H309 0.929 . S
C252 C251 1.379 . S
C252 C253 1.417 . S
C253 C252 1.417 . S
C253 C254 1.352 . S
C253 H310 0.929 . S
C254 C253 1.352 . S
C254 C255 1.393 . S
C255 C250 1.360 . S
C255 C254 1.393 . S
C255 H311 0.931 . S
Cd256 O276 2.329 . S
Cd256 O278 2.350 . S
Cd256 O279 2.277 . S
Cd256 O281 2.173 . S
Cd256 O285 2.263 . S
Cd256 O296 2.366 . S
Cd257 O275 2.352 1_545 S
Cd257 O282 2.250 . S
Cd257 O286 2.308 . S
C258 C262 1.403 . S
C258 C263 1.370 . S
C258 N274 1.423 . S
C259 C260 1.389 . S
C259 C263 1.389 . S
C260 C259 1.389 . S
C260 C261 1.379 . S
C260 H312 0.929 . S
C261 C260 1.379 . S
C261 C262 1.405 . S
C262 C258 1.403 . S
C262 C261 1.405 . S
C262 H313 0.932 . S
C263 C258 1.370 . S
C263 C259 1.389 . S
C263 H314 0.931 . S
Co264 N248 1.869 . S
Co264 N265 1.955 . S
Co264 N266 1.864 . S
Co264 N272 1.958 . S
Co264 N273 1.953 . S
Co264 N274 1.974 . S
N265 Co264 1.955 . S
N265 C283 1.329 . S
N265 C298 1.432 . S
N266 Co264 1.864 . S
N266 C267 1.327 . S
N266 C271 1.342 . S
C267 N266 1.327 . S
C267 C268 1.407 . S
C267 C283 1.481 . S
C268 C267 1.407 . S
C268 C269 1.364 . S
C268 H315 0.930 . S
C269 C268 1.364 . S
C269 C270 1.390 . S
C269 H316 0.931 . S
C270 C269 1.390 . S
C270 C271 1.346 . S
C270 H317 0.930 . S
C271 N266 1.342 . S
C271 C270 1.346 . S
C271 C287 1.516 . S
N272 Co264 1.958 . S
N272 C287 1.324 . S
N272 C289 1.427 . S
N273 C249 1.316 . S
N273 C250 1.436 . S
N273 Co264 1.953 . S
N274 C258 1.423 . S
N274 Co264 1.974 . S
N274 C304 1.309 . S
O275 Cd257 2.352 1_565 S
O275 C295 1.235 1_565 S
O276 Cd256 2.329 . S
O276 C295 1.270 . S
C277 O278 1.270 . S
C277 O279 1.248 . S
O278 Cd256 2.350 . S
O278 C277 1.270 . S
O279 Cd256 2.277 . S
O279 C277 1.248 . S
C280 O281 1.277 . S
C280 O282 1.230 . S
O281 Cd256 2.173 . S
O281 C280 1.277 . S
O282 Cd257 2.250 . S
O282 C280 1.230 . S
C283 N265 1.329 . S
C283 C267 1.481 . S
C283 O284 1.246 . S
O284 C283 1.246 . S
O285 Cd256 2.263 . S
O285 C297 1.258 . S
O286 Cd257 2.308 . S
O286 C297 1.274 . S
C287 C271 1.516 . S
C287 N272 1.324 . S
C287 O288 1.238 . S
O288 C287 1.238 . S
C289 N272 1.427 . S
C289 C290 1.394 . S
C289 C294 1.395 . S
C290 C289 1.394 . S
C290 C291 1.380 . S
C290 H318 0.929 . S
C291 C290 1.380 . S
C291 C292 1.384 . S
C291 C297 1.495 . S
C292 C291 1.384 . S
C292 C293 1.382 . S
C292 H319 0.930 . S
C293 C292 1.382 . S
C293 C294 1.398 . S
C294 C289 1.395 . S
C294 C293 1.398 . S
C294 H320 0.930 . S
C295 O275 1.235 1_545 S
C295 O276 1.270 . S
O296 C249 1.263 . S
O296 Cd256 2.366 . S
C297 O285 1.258 . S
C297 O286 1.274 . S
C297 C291 1.495 . S
C298 N265 1.432 . S
C298 C299 1.381 . S
C298 C303 1.385 . S
C299 C298 1.381 . S
C299 C300 1.371 . S
C299 H321 0.932 . S
C300 C299 1.371 . S
C300 C301 1.400 . S
C301 C300 1.400 . S
C301 C302 1.351 . S
C301 H322 0.930 . S
C302 C301 1.351 . S
C302 C303 1.388 . S
C303 C298 1.385 . S
C303 C302 1.388 . S
C303 H323 0.929 . S
C304 C243 1.504 . S
C304 N274 1.309 . S
C304 O305 1.258 . S
O305 C304 1.258 . S
H306 C244 0.929 . S
H307 C245 0.932 . S
H308 C246 0.931 . S
H309 C251 0.929 . S
H310 C253 0.929 . S
H311 C255 0.931 . S
H312 C260 0.929 . S
H313 C262 0.932 . S
H314 C263 0.931 . S
H315 C268 0.930 . S
H316 C269 0.931 . S
H317 C270 0.930 . S
H318 C290 0.929 . S
H319 C292 0.930 . S
H320 C294 0.930 . S
H321 C299 0.932 . S
H322 C301 0.930 . S
H323 C303 0.929 . S
C324 C325 1.359 . S
C324 N329 1.330 . S
C324 C385 1.504 . S
C325 C324 1.359 . S
C325 C326 1.366 . S
C325 H387 0.929 . S
C326 C325 1.366 . S
C326 C327 1.415 . S
C326 H388 0.932 . S
C327 C326 1.415 . S
C327 C328 1.366 . S
C327 H389 0.931 . S
C328 C327 1.366 . S
C328 N329 1.325 . S
C328 C330 1.516 . S
N329 C324 1.330 . S
N329 C328 1.325 . S
N329 Co345 1.869 . S
C330 C328 1.516 . S
C330 N354 1.316 . S
C330 O377 1.263 . S
C331 C332 1.421 . S
C331 C336 1.360 . S
C331 N354 1.436 . S
C332 C331 1.421 . S
C332 C333 1.379 . S
C332 H390 0.929 . S
C333 C332 1.379 . S
C333 C334 1.417 1_565 S
C334 C333 1.417 1_545 S
C334 C335 1.352 . S
C334 H391 0.929 . S
C335 C334 1.352 . S
C335 C336 1.393 1_545 S
C336 C331 1.360 . S
C336 C335 1.393 1_565 S
C336 H392 0.931 1_565 S
Cd337 O357 2.329 . S
Cd337 O359 2.350 . S
Cd337 O360 2.277 . S
Cd337 O362 2.173 1_545 S
Cd337 O366 2.263 . S
Cd337 O377 2.366 1_545 S
Cd338 O356 2.352 1_655 S
Cd338 O363 2.250 . S
Cd338 O367 2.308 . S
C339 C343 1.403 . S
C339 C344 1.370 . S
C339 N355 1.423 . S
C340 C341 1.389 . S
C340 C344 1.389 . S
C341 C340 1.389 . S
C341 C342 1.379 . S
C341 H393 0.929 . S
C342 C341 1.379 . S
C342 C343 1.405 . S
C343 C339 1.403 . S
C343 C342 1.405 . S
C343 H394 0.932 . S
C344 C339 1.370 . S
C344 C340 1.389 . S
C344 H395 0.931 . S
Co345 N329 1.869 . S
Co345 N346 1.955 . S
Co345 N347 1.864 . S
Co345 N353 1.958 . S
Co345 N354 1.953 . S
Co345 N355 1.974 . S
N346 Co345 1.955 . S
N346 C364 1.329 . S
N346 C379 1.432 . S
N347 Co345 1.864 . S
N347 C348 1.327 . S
N347 C352 1.342 . S
C348 N347 1.327 . S
C348 C349 1.407 . S
C348 C364 1.481 . S
C349 C348 1.407 . S
C349 C350 1.364 . S
C349 H396 0.930 . S
C350 C349 1.364 . S
C350 C351 1.390 . S
C350 H397 0.931 . S
C351 C350 1.390 . S
C351 C352 1.346 . S
C351 H398 0.930 . S
C352 N347 1.342 . S
C352 C351 1.346 . S
C352 C368 1.516 . S
N353 Co345 1.958 . S
N353 C368 1.324 . S
N353 C370 1.427 . S
N354 C330 1.316 . S
N354 C331 1.436 . S
N354 Co345 1.953 . S
N355 C339 1.423 . S
N355 Co345 1.974 . S
N355 C385 1.309 . S
O356 Cd338 2.352 1_455 S
O356 C376 1.235 1_455 S
O357 Cd337 2.329 . S
O357 C376 1.270 . S
C358 O359 1.270 . S
C358 O360 1.248 . S
O359 Cd337 2.350 . S
O359 C358 1.270 . S
O360 Cd337 2.277 . S
O360 C358 1.248 . S
C361 O362 1.277 . S
C361 O363 1.230 1_565 S
O362 Cd337 2.173 1_565 S
O362 C361 1.277 . S
O363 Cd338 2.250 . S
O363 C361 1.230 1_545 S
C364 N346 1.329 . S
C364 C348 1.481 . S
C364 O365 1.246 . S
O365 C364 1.246 . S
O366 Cd337 2.263 . S
O366 C378 1.258 . S
O367 Cd338 2.308 . S
O367 C378 1.274 . S
C368 C352 1.516 . S
C368 N353 1.324 . S
C368 O369 1.238 . S
O369 C368 1.238 . S
C370 N353 1.427 . S
C370 C371 1.394 . S
C370 C375 1.395 . S
C371 C370 1.394 . S
C371 C372 1.380 1_565 S
C371 H399 0.929 . S
C372 C371 1.380 1_545 S
C372 C373 1.384 1_545 S
C372 C378 1.495 . S
C373 C372 1.384 1_565 S
C373 C374 1.382 . S
C373 H400 0.930 1_565 S
C374 C373 1.382 . S
C374 C375 1.398 . S
C375 C370 1.395 . S
C375 C374 1.398 . S
C375 H401 0.930 . S
C376 O356 1.235 1_655 S
C376 O357 1.270 . S
O377 C330 1.263 . S
O377 Cd337 2.366 1_565 S
C378 O366 1.258 . S
C378 O367 1.274 . S
C378 C372 1.495 . S
C379 N346 1.432 . S
C379 C380 1.381 . S
C379 C384 1.385 . S
C380 C379 1.381 . S
C380 C381 1.371 . S
C380 H402 0.932 . S
C381 C380 1.371 . S
C381 C382 1.400 . S
C382 C381 1.400 . S
C382 C383 1.351 . S
C382 H403 0.930 . S
C383 C382 1.351 . S
C383 C384 1.388 . S
C384 C379 1.385 . S
C384 C383 1.388 . S
C384 H404 0.929 . S
C385 C324 1.504 . S
C385 N355 1.309 . S
C385 O386 1.258 . S
O386 C385 1.258 . S
H387 C325 0.929 . S
H388 C326 0.932 . S
H389 C327 0.931 . S
H390 C332 0.929 . S
H391 C334 0.929 . S
H392 C336 0.931 1_545 S
H393 C341 0.929 . S
H394 C343 0.932 . S
H395 C344 0.931 . S
H396 C349 0.930 . S
H397 C350 0.931 . S
H398 C351 0.930 . S
H399 C371 0.929 . S
H400 C373 0.930 1_545 S
H401 C375 0.930 . S
H402 C380 0.932 . S
H403 C382 0.930 . S
H404 C384 0.929 . S
C405 C406 1.359 . S
C405 N410 1.330 . S
C405 C466 1.504 . S
C406 C405 1.359 . S
C406 C407 1.366 . S
C406 H468 0.929 . S
C407 C406 1.366 . S
C407 C408 1.415 . S
C407 H469 0.932 . S
C408 C407 1.415 . S
C408 C409 1.366 . S
C408 H470 0.931 . S
C409 C408 1.366 . S
C409 N410 1.325 . S
C409 C411 1.516 . S
N410 C405 1.330 . S
N410 C409 1.325 . S
N410 Co426 1.869 . S
C411 C409 1.516 . S
C411 N435 1.316 . S
C411 O458 1.263 . S
C412 C413 1.421 . S
C412 C417 1.360 . S
C412 N435 1.436 . S
C413 C412 1.421 . S
C413 C414 1.379 . S
C413 H471 0.929 . S
C414 C413 1.379 . S
C414 C415 1.417 1_455 S
C415 C414 1.417 1_655 S
C415 C416 1.352 . S
C415 H472 0.929 . S
C416 C415 1.352 . S
C416 C417 1.393 1_655 S
C417 C412 1.360 . S
C417 C416 1.393 1_455 S
C417 H473 0.931 1_455 S
Cd418 O438 2.329 . S
Cd418 O440 2.350 . S
Cd418 O441 2.277 . S
Cd418 O443 2.173 1_655 S
Cd418 O447 2.263 . S
Cd418 O458 2.366 1_655 S
Cd419 O437 2.352 . S
Cd419 O444 2.250 . S
Cd419 O448 2.308 . S
C420 C424 1.403 . S
C420 C425 1.370 . S
C420 N436 1.423 . S
C421 C422 1.389 . S
C421 C425 1.389 . S
C422 C421 1.389 . S
C422 C423 1.379 . S
C422 H474 0.929 . S
C423 C422 1.379 . S
C423 C424 1.405 . S
C424 C420 1.403 . S
C424 C423 1.405 . S
C424 H475 0.932 . S
C425 C420 1.370 . S
C425 C421 1.389 . S
C425 H476 0.931 . S
Co426 N410 1.869 . S
Co426 N427 1.955 . S
Co426 N428 1.864 . S
Co426 N434 1.958 . S
Co426 N435 1.953 . S
Co426 N436 1.974 . S
N427 Co426 1.955 . S
N427 C445 1.329 . S
N427 C460 1.432 . S
N428 Co426 1.864 . S
N428 C429 1.327 . S
N428 C433 1.342 . S
C429 N428 1.327 . S
C429 C430 1.407 . S
C429 C445 1.481 . S
C430 C429 1.407 . S
C430 C431 1.364 . S
C430 H477 0.930 . S
C431 C430 1.364 . S
C431 C432 1.390 . S
C431 H478 0.931 . S
C432 C431 1.390 . S
C432 C433 1.346 . S
C432 H479 0.930 . S
C433 N428 1.342 . S
C433 C432 1.346 . S
C433 C449 1.516 . S
N434 Co426 1.958 . S
N434 C449 1.324 . S
N434 C451 1.427 . S
N435 C411 1.316 . S
N435 C412 1.436 . S
N435 Co426 1.953 . S
N436 C420 1.423 . S
N436 Co426 1.974 . S
N436 C466 1.309 . S
O437 Cd419 2.352 . S
O437 C457 1.235 . S
O438 Cd418 2.329 . S
O438 C457 1.270 . S
C439 O440 1.270 . S
C439 O441 1.248 . S
O440 Cd418 2.350 . S
O440 C439 1.270 . S
O441 Cd418 2.277 . S
O441 C439 1.248 . S
C442 O443 1.277 . S
C442 O444 1.230 1_455 S
O443 Cd418 2.173 1_455 S
O443 C442 1.277 . S
O444 Cd419 2.250 . S
O444 C442 1.230 1_655 S
C445 N427 1.329 . S
C445 C429 1.481 . S
C445 O446 1.246 . S
O446 C445 1.246 . S
O447 Cd418 2.263 . S
O447 C459 1.258 . S
O448 Cd419 2.308 . S
O448 C459 1.274 . S
C449 C433 1.516 . S
C449 N434 1.324 . S
C449 O450 1.238 . S
O450 C449 1.238 . S
C451 N434 1.427 . S
C451 C452 1.394 . S
C451 C456 1.395 . S
C452 C451 1.394 . S
C452 C453 1.380 1_455 S
C452 H480 0.929 . S
C453 C452 1.380 1_655 S
C453 C454 1.384 1_655 S
C453 C459 1.495 . S
C454 C453 1.384 1_455 S
C454 C455 1.382 . S
C454 H481 0.930 1_455 S
C455 C454 1.382 . S
C455 C456 1.398 . S
C456 C451 1.395 . S
C456 C455 1.398 . S
C456 H482 0.930 . S
C457 O437 1.235 . S
C457 O438 1.270 . S
O458 C411 1.263 . S
O458 Cd418 2.366 1_455 S
C459 O447 1.258 . S
C459 O448 1.274 . S
C459 C453 1.495 . S
C460 N427 1.432 . S
C460 C461 1.381 . S
C460 C465 1.385 . S
C461 C460 1.381 . S
C461 C462 1.371 . S
C461 H483 0.932 . S
C462 C461 1.371 . S
C462 C463 1.400 . S
C463 C462 1.400 . S
C463 C464 1.351 . S
C463 H484 0.930 . S
C464 C463 1.351 . S
C464 C465 1.388 . S
C465 C460 1.385 . S
C465 C464 1.388 . S
C465 H485 0.929 . S
C466 C405 1.504 . S
C466 N436 1.309 . S
C466 O467 1.258 . S
O467 C466 1.258 . S
H468 C406 0.929 . S
H469 C407 0.932 . S
H470 C408 0.931 . S
H471 C413 0.929 . S
H472 C415 0.929 . S
H473 C417 0.931 1_655 S
H474 C422 0.929 . S
H475 C424 0.932 . S
H476 C425 0.931 . S
H477 C430 0.930 . S
H478 C431 0.931 . S
H479 C432 0.930 . S
H480 C452 0.929 . S
H481 C454 0.930 1_655 S
H482 C456 0.930 . S
H483 C461 0.932 . S
H484 C463 0.930 . S
H485 C465 0.929 . S
C486 C487 1.359 . S
C486 N491 1.330 . S
C486 C547 1.504 . S
C487 C486 1.359 . S
C487 C488 1.366 . S
C487 H549 0.929 . S
C488 C487 1.366 . S
C488 C489 1.415 . S
C488 H550 0.932 . S
C489 C488 1.415 . S
C489 C490 1.366 . S
C489 H551 0.931 . S
C490 C489 1.366 . S
C490 N491 1.325 . S
C490 C492 1.516 . S
N491 C486 1.330 . S
N491 C490 1.325 . S
N491 Co507 1.869 . S
C492 C490 1.516 . S
C492 N516 1.316 . S
C492 O539 1.263 . S
C493 C494 1.421 . S
C493 C498 1.360 . S
C493 N516 1.436 . S
C494 C493 1.421 . S
C494 C495 1.379 1_556 S
C494 H552 0.929 . S
C495 C494 1.379 1_554 S
C495 C496 1.417 . S
C496 C495 1.417 . S
C496 C497 1.352 1_554 S
C496 H553 0.929 . S
C497 C496 1.352 1_556 S
C497 C498 1.393 . S
C498 C493 1.360 . S
C498 C497 1.393 . S
C498 H554 0.931 . S
Cd499 O519 2.329 . S
Cd499 O521 2.350 . S
Cd499 O522 2.277 . S
Cd499 O524 2.173 . S
Cd499 O528 2.263 . S
Cd499 O539 2.366 . S
Cd500 O518 2.352 1_655 S
Cd500 O525 2.250 . S
Cd500 O529 2.308 . S
C501 C505 1.403 . S
C501 C506 1.370 . S
C501 N517 1.423 . S
C502 C503 1.389 . S
C502 C506 1.389 . S
C503 C502 1.389 . S
C503 C504 1.379 . S
C503 H555 0.929 . S
C504 C503 1.379 . S
C504 C505 1.405 . S
C505 C501 1.403 . S
C505 C504 1.405 . S
C505 H556 0.932 . S
C506 C501 1.370 . S
C506 C502 1.389 . S
C506 H557 0.931 . S
Co507 N491 1.869 . S
Co507 N508 1.955 . S
Co507 N509 1.864 . S
Co507 N515 1.958 . S
Co507 N516 1.953 . S
Co507 N517 1.974 . S
N508 Co507 1.955 . S
N508 C526 1.329 . S
N508 C541 1.432 . S
N509 Co507 1.864 . S
N509 C510 1.327 . S
N509 C514 1.342 . S
C510 N509 1.327 . S
C510 C511 1.407 . S
C510 C526 1.481 . S
C511 C510 1.407 . S
C511 C512 1.364 . S
C511 H558 0.930 . S
C512 C511 1.364 . S
C512 C513 1.390 . S
C512 H559 0.931 . S
C513 C512 1.390 . S
C513 C514 1.346 . S
C513 H560 0.930 . S
C514 N509 1.342 . S
C514 C513 1.346 . S
C514 C530 1.516 . S
N515 Co507 1.958 . S
N515 C530 1.324 . S
N515 C532 1.427 . S
N516 C492 1.316 . S
N516 C493 1.436 . S
N516 Co507 1.953 . S
N517 C501 1.423 . S
N517 Co507 1.974 . S
N517 C547 1.309 . S
O518 Cd500 2.352 1_455 S
O518 C538 1.235 1_455 S
O519 Cd499 2.329 . S
O519 C538 1.270 . S
C520 O521 1.270 . S
C520 O522 1.248 . S
O521 Cd499 2.350 . S
O521 C520 1.270 . S
O522 Cd499 2.277 . S
O522 C520 1.248 . S
C523 O524 1.277 . S
C523 O525 1.230 . S
O524 Cd499 2.173 . S
O524 C523 1.277 . S
O525 Cd500 2.250 . S
O525 C523 1.230 . S
C526 N508 1.329 . S
C526 C510 1.481 . S
C526 O527 1.246 . S
O527 C526 1.246 . S
O528 Cd499 2.263 . S
O528 C540 1.258 . S
O529 Cd500 2.308 . S
O529 C540 1.274 . S
C530 C514 1.516 . S
C530 N515 1.324 . S
C530 O531 1.238 . S
O531 C530 1.238 . S
C532 N515 1.427 . S
C532 C533 1.394 . S
C532 C537 1.395 . S
C533 C532 1.394 . S
C533 C534 1.380 . S
C533 H561 0.929 . S
C534 C533 1.380 . S
C534 C535 1.384 . S
C534 C540 1.495 . S
C535 C534 1.384 . S
C535 C536 1.382 . S
C535 H562 0.930 . S
C536 C535 1.382 . S
C536 C537 1.398 . S
C537 C532 1.395 . S
C537 C536 1.398 . S
C537 H563 0.930 . S
C538 O518 1.235 1_655 S
C538 O519 1.270 . S
O539 C492 1.263 . S
O539 Cd499 2.366 . S
C540 O528 1.258 . S
C540 O529 1.274 . S
C540 C534 1.495 . S
C541 N508 1.432 . S
C541 C542 1.381 . S
C541 C546 1.385 . S
C542 C541 1.381 . S
C542 C543 1.371 . S
C542 H564 0.932 . S
C543 C542 1.371 . S
C543 C544 1.400 . S
C544 C543 1.400 . S
C544 C545 1.351 . S
C544 H565 0.930 . S
C545 C544 1.351 . S
C545 C546 1.388 . S
C546 C541 1.385 . S
C546 C545 1.388 . S
C546 H566 0.929 . S
C547 C486 1.504 . S
C547 N517 1.309 . S
C547 O548 1.258 . S
O548 C547 1.258 . S
H549 C487 0.929 . S
H550 C488 0.932 . S
H551 C489 0.931 . S
H552 C494 0.929 . S
H553 C496 0.929 . S
H554 C498 0.931 . S
H555 C503 0.929 . S
H556 C505 0.932 . S
H557 C506 0.931 . S
H558 C511 0.930 . S
H559 C512 0.931 . S
H560 C513 0.930 . S
H561 C533 0.929 . S
H562 C535 0.930 . S
H563 C537 0.930 . S
H564 C542 0.932 . S
H565 C544 0.930 . S
H566 C546 0.929 . S
C567 C568 1.359 . S
C567 N572 1.330 . S
C567 C628 1.504 . S
C568 C567 1.359 . S
C568 C569 1.366 . S
C568 H630 0.929 . S
C569 C568 1.366 . S
C569 C570 1.415 . S
C569 H631 0.932 . S
C570 C569 1.415 . S
C570 C571 1.366 . S
C570 H632 0.931 . S
C571 C570 1.366 . S
C571 N572 1.325 . S
C571 C573 1.516 . S
N572 C567 1.330 . S
N572 C571 1.325 . S
N572 Co588 1.869 . S
C573 C571 1.516 . S
C573 N597 1.316 . S
C573 O620 1.263 . S
C574 C575 1.421 . S
C574 C579 1.360 . S
C574 N597 1.436 . S
C575 C574 1.421 . S
C575 C576 1.379 1_556 S
C575 H633 0.929 . S
C576 C575 1.379 1_554 S
C576 C577 1.417 1_565 S
C577 C576 1.417 1_545 S
C577 C578 1.352 1_554 S
C577 H634 0.929 . S
C578 C577 1.352 1_556 S
C578 C579 1.393 1_545 S
C579 C574 1.360 . S
C579 C578 1.393 1_565 S
C579 H635 0.931 1_565 S
Cd580 O600 2.329 . S
Cd580 O602 2.350 . S
Cd580 O603 2.277 . S
Cd580 O605 2.173 1_545 S
Cd580 O609 2.263 . S
Cd580 O620 2.366 1_545 S
Cd581 O599 2.352 . S
Cd581 O606 2.250 . S
Cd581 O610 2.308 . S
C582 C586 1.403 . S
C582 C587 1.370 . S
C582 N598 1.423 . S
C583 C584 1.389 . S
C583 C587 1.389 . S
C584 C583 1.389 . S
C584 C585 1.379 . S
C584 H636 0.929 . S
C585 C584 1.379 . S
C585 C586 1.405 . S
C586 C582 1.403 . S
C586 C585 1.405 . S
C586 H637 0.932 . S
C587 C582 1.370 . S
C587 C583 1.389 . S
C587 H638 0.931 . S
Co588 N572 1.869 . S
Co588 N589 1.955 . S
Co588 N590 1.864 . S
Co588 N596 1.958 . S
Co588 N597 1.953 . S
Co588 N598 1.974 . S
N589 Co588 1.955 . S
N589 C607 1.329 . S
N589 C622 1.432 . S
N590 Co588 1.864 . S
N590 C591 1.327 . S
N590 C595 1.342 . S
C591 N590 1.327 . S
C591 C592 1.407 . S
C591 C607 1.481 . S
C592 C591 1.407 . S
C592 C593 1.364 . S
C592 H639 0.930 . S
C593 C592 1.364 . S
C593 C594 1.390 . S
C593 H640 0.931 . S
C594 C593 1.390 . S
C594 C595 1.346 . S
C594 H641 0.930 . S
C595 N590 1.342 . S
C595 C594 1.346 . S
C595 C611 1.516 . S
N596 Co588 1.958 . S
N596 C611 1.324 . S
N596 C613 1.427 . S
N597 C573 1.316 . S
N597 C574 1.436 . S
N597 Co588 1.953 . S
N598 C582 1.423 . S
N598 Co588 1.974 . S
N598 C628 1.309 . S
O599 Cd581 2.352 . S
O599 C619 1.235 . S
O600 Cd580 2.329 . S
O600 C619 1.270 . S
C601 O602 1.270 . S
C601 O603 1.248 . S
O602 Cd580 2.350 . S
O602 C601 1.270 . S
O603 Cd580 2.277 . S
O603 C601 1.248 . S
C604 O605 1.277 . S
C604 O606 1.230 1_565 S
O605 Cd580 2.173 1_565 S
O605 C604 1.277 . S
O606 Cd581 2.250 . S
O606 C604 1.230 1_545 S
C607 N589 1.329 . S
C607 C591 1.481 . S
C607 O608 1.246 . S
O608 C607 1.246 . S
O609 Cd580 2.263 . S
O609 C621 1.258 . S
O610 Cd581 2.308 . S
O610 C621 1.274 . S
C611 C595 1.516 . S
C611 N596 1.324 . S
C611 O612 1.238 . S
O612 C611 1.238 . S
C613 N596 1.427 . S
C613 C614 1.394 . S
C613 C618 1.395 . S
C614 C613 1.394 . S
C614 C615 1.380 1_565 S
C614 H642 0.929 . S
C615 C614 1.380 1_545 S
C615 C616 1.384 1_545 S
C615 C621 1.495 . S
C616 C615 1.384 1_565 S
C616 C617 1.382 . S
C616 H643 0.930 1_565 S
C617 C616 1.382 . S
C617 C618 1.398 . S
C618 C613 1.395 . S
C618 C617 1.398 . S
C618 H644 0.930 . S
C619 O599 1.235 . S
C619 O600 1.270 . S
O620 C573 1.263 . S
O620 Cd580 2.366 1_565 S
C621 O609 1.258 . S
C621 O610 1.274 . S
C621 C615 1.495 . S
C622 N589 1.432 . S
C622 C623 1.381 . S
C622 C627 1.385 . S
C623 C622 1.381 . S
C623 C624 1.371 . S
C623 H645 0.932 . S
C624 C623 1.371 . S
C624 C625 1.400 . S
C625 C624 1.400 . S
C625 C626 1.351 . S
C625 H646 0.930 . S
C626 C625 1.351 . S
C626 C627 1.388 . S
C627 C622 1.385 . S
C627 C626 1.388 . S
C627 H647 0.929 . S
C628 C567 1.504 . S
C628 N598 1.309 . S
C628 O629 1.258 . S
O629 C628 1.258 . S
H630 C568 0.929 . S
H631 C569 0.932 . S
H632 C570 0.931 . S
H633 C575 0.929 . S
H634 C577 0.929 . S
H635 C579 0.931 1_545 S
H636 C584 0.929 . S
H637 C586 0.932 . S
H638 C587 0.931 . S
H639 C592 0.930 . S
H640 C593 0.931 . S
H641 C594 0.930 . S
H642 C614 0.929 . S
H643 C616 0.930 1_545 S
H644 C618 0.930 . S
H645 C623 0.932 . S
H646 C625 0.930 . S
H647 C627 0.929 . S
C648 C649 1.359 . S
C648 N653 1.330 . S
C648 C709 1.504 . S
C649 C648 1.359 . S
C649 C650 1.366 . S
C649 H711 0.929 . S
C650 C649 1.366 . S
C650 C651 1.415 . S
C650 H712 0.932 . S
C651 C650 1.415 . S
C651 C652 1.366 . S
C651 H713 0.931 . S
C652 C651 1.366 . S
C652 N653 1.325 . S
C652 C654 1.516 . S
N653 C648 1.330 . S
N653 C652 1.325 . S
N653 Co669 1.869 . S
C654 C652 1.516 . S
C654 N678 1.316 . S
C654 O701 1.263 . S
C655 C656 1.421 . S
C655 C660 1.360 . S
C655 N678 1.436 . S
C656 C655 1.421 . S
C656 C657 1.379 1_556 S
C656 H714 0.929 . S
C657 C656 1.379 1_554 S
C657 C658 1.417 1_455 S
C658 C657 1.417 1_655 S
C658 C659 1.352 1_554 S
C658 H715 0.929 . S
C659 C658 1.352 1_556 S
C659 C660 1.393 1_655 S
C660 C655 1.360 . S
C660 C659 1.393 1_455 S
C660 H716 0.931 1_455 S
Cd661 O681 2.329 . S
Cd661 O683 2.350 . S
Cd661 O684 2.277 . S
Cd661 O686 2.173 1_655 S
Cd661 O690 2.263 . S
Cd661 O701 2.366 1_655 S
Cd662 O680 2.352 1_545 S
Cd662 O687 2.250 . S
Cd662 O691 2.308 . S
C663 C667 1.403 . S
C663 C668 1.370 . S
C663 N679 1.423 . S
C664 C665 1.389 . S
C664 C668 1.389 . S
C665 C664 1.389 . S
C665 C666 1.379 . S
C665 H717 0.929 . S
C666 C665 1.379 . S
C666 C667 1.405 . S
C667 C663 1.403 . S
C667 C666 1.405 . S
C667 H718 0.932 . S
C668 C663 1.370 . S
C668 C664 1.389 . S
C668 H719 0.931 . S
Co669 N653 1.869 . S
Co669 N670 1.955 . S
Co669 N671 1.864 . S
Co669 N677 1.958 . S
Co669 N678 1.953 . S
Co669 N679 1.974 . S
N670 Co669 1.955 . S
N670 C688 1.329 . S
N670 C703 1.432 . S
N671 Co669 1.864 . S
N671 C672 1.327 . S
N671 C676 1.342 . S
C672 N671 1.327 . S
C672 C673 1.407 . S
C672 C688 1.481 . S
C673 C672 1.407 . S
C673 C674 1.364 . S
C673 H720 0.930 . S
C674 C673 1.364 . S
C674 C675 1.390 . S
C674 H721 0.931 . S
C675 C674 1.390 . S
C675 C676 1.346 . S
C675 H722 0.930 . S
C676 N671 1.342 . S
C676 C675 1.346 . S
C676 C692 1.516 . S
N677 Co669 1.958 . S
N677 C692 1.324 . S
N677 C694 1.427 . S
N678 C654 1.316 . S
N678 C655 1.436 . S
N678 Co669 1.953 . S
N679 C663 1.423 . S
N679 Co669 1.974 . S
N679 C709 1.309 . S
O680 Cd662 2.352 1_565 S
O680 C700 1.235 1_565 S
O681 Cd661 2.329 . S
O681 C700 1.270 . S
C682 O683 1.270 . S
C682 O684 1.248 . S
O683 Cd661 2.350 . S
O683 C682 1.270 . S
O684 Cd661 2.277 . S
O684 C682 1.248 . S
C685 O686 1.277 . S
C685 O687 1.230 1_455 S
O686 Cd661 2.173 1_455 S
O686 C685 1.277 . S
O687 Cd662 2.250 . S
O687 C685 1.230 1_655 S
C688 N670 1.329 . S
C688 C672 1.481 . S
C688 O689 1.246 . S
O689 C688 1.246 . S
O690 Cd661 2.263 . S
O690 C702 1.258 . S
O691 Cd662 2.308 . S
O691 C702 1.274 . S
C692 C676 1.516 . S
C692 N677 1.324 . S
C692 O693 1.238 . S
O693 C692 1.238 . S
C694 N677 1.427 . S
C694 C695 1.394 . S
C694 C699 1.395 . S
C695 C694 1.394 . S
C695 C696 1.380 1_455 S
C695 H723 0.929 . S
C696 C695 1.380 1_655 S
C696 C697 1.384 1_655 S
C696 C702 1.495 . S
C697 C696 1.384 1_455 S
C697 C698 1.382 . S
C697 H724 0.930 1_455 S
C698 C697 1.382 . S
C698 C699 1.398 . S
C699 C694 1.395 . S
C699 C698 1.398 . S
C699 H725 0.930 . S
C700 O680 1.235 1_545 S
C700 O681 1.270 . S
O701 C654 1.263 . S
O701 Cd661 2.366 1_455 S
C702 O690 1.258 . S
C702 O691 1.274 . S
C702 C696 1.495 . S
C703 N670 1.432 . S
C703 C704 1.381 . S
C703 C708 1.385 . S
C704 C703 1.381 . S
C704 C705 1.371 . S
C704 H726 0.932 . S
C705 C704 1.371 . S
C705 C706 1.400 . S
C706 C705 1.400 . S
C706 C707 1.351 . S
C706 H727 0.930 . S
C707 C706 1.351 . S
C707 C708 1.388 . S
C708 C703 1.385 . S
C708 C707 1.388 . S
C708 H728 0.929 . S
C709 C648 1.504 . S
C709 N679 1.309 . S
C709 O710 1.258 . S
O710 C709 1.258 . S
H711 C649 0.929 . S
H712 C650 0.932 . S
H713 C651 0.931 . S
H714 C656 0.929 . S
H715 C658 0.929 . S
H716 C660 0.931 1_655 S
H717 C665 0.929 . S
H718 C667 0.932 . S
H719 C668 0.931 . S
H720 C673 0.930 . S
H721 C674 0.931 . S
H722 C675 0.930 . S
H723 C695 0.929 . S
H724 C697 0.930 1_655 S
H725 C699 0.930 . S
H726 C704 0.932 . S
H727 C706 0.930 . S
H728 C708 0.929 . S
C729 C730 1.359 . S
C729 N734 1.330 . S
C729 C790 1.504 . S
C730 C729 1.359 . S
C730 C731 1.366 . S
C730 H792 0.929 . S
C731 C730 1.366 . S
C731 C732 1.415 . S
C731 H793 0.932 . S
C732 C731 1.415 . S
C732 C733 1.366 . S
C732 H794 0.931 . S
C733 C732 1.366 . S
C733 N734 1.325 . S
C733 C735 1.516 . S
N734 C729 1.330 . S
N734 C733 1.325 . S
N734 Co750 1.869 . S
C735 C733 1.516 . S
C735 N759 1.316 . S
C735 O782 1.263 . S
C736 C737 1.421 . S
C736 C741 1.360 . S
C736 N759 1.436 . S
C737 C736 1.421 . S
C737 C738 1.379 . S
C737 H795 0.929 . S
C738 C737 1.379 . S
C738 C739 1.417 . S
C739 C738 1.417 . S
C739 C740 1.352 . S
C739 H796 0.929 . S
C740 C739 1.352 . S
C740 C741 1.393 . S
C741 C736 1.360 . S
C741 C740 1.393 . S
C741 H797 0.931 . S
Cd742 O762 2.329 . S
Cd742 O764 2.350 . S
Cd742 O765 2.277 . S
Cd742 O767 2.173 . S
Cd742 O771 2.263 . S
Cd742 O782 2.366 . S
Cd743 O761 2.352 1_565 S
Cd743 O768 2.250 . S
Cd743 O772 2.308 . S
C744 C748 1.403 . S
C744 C749 1.370 . S
C744 N760 1.423 . S
C745 C746 1.389 . S
C745 C749 1.389 . S
C746 C745 1.389 . S
C746 C747 1.379 . S
C746 H798 0.929 . S
C747 C746 1.379 . S
C747 C748 1.405 . S
C748 C744 1.403 . S
C748 C747 1.405 . S
C748 H799 0.932 . S
C749 C744 1.370 . S
C749 C745 1.389 . S
C749 H800 0.931 . S
Co750 N734 1.869 . S
Co750 N751 1.955 . S
Co750 N752 1.864 . S
Co750 N758 1.958 . S
Co750 N759 1.953 . S
Co750 N760 1.974 . S
N751 Co750 1.955 . S
N751 C769 1.329 . S
N751 C784 1.432 . S
N752 Co750 1.864 . S
N752 C753 1.327 . S
N752 C757 1.342 . S
C753 N752 1.327 . S
C753 C754 1.407 . S
C753 C769 1.481 . S
C754 C753 1.407 . S
C754 C755 1.364 . S
C754 H801 0.930 . S
C755 C754 1.364 . S
C755 C756 1.390 . S
C755 H802 0.931 . S
C756 C755 1.390 . S
C756 C757 1.346 . S
C756 H803 0.930 . S
C757 N752 1.342 . S
C757 C756 1.346 . S
C757 C773 1.516 . S
N758 Co750 1.958 . S
N758 C773 1.324 . S
N758 C775 1.427 . S
N759 C735 1.316 . S
N759 C736 1.436 . S
N759 Co750 1.953 . S
N760 C744 1.423 . S
N760 Co750 1.974 . S
N760 C790 1.309 . S
O761 Cd743 2.352 1_545 S
O761 C781 1.235 1_545 S
O762 Cd742 2.329 . S
O762 C781 1.270 . S
C763 O764 1.270 . S
C763 O765 1.248 . S
O764 Cd742 2.350 . S
O764 C763 1.270 . S
O765 Cd742 2.277 . S
O765 C763 1.248 . S
C766 O767 1.277 . S
C766 O768 1.230 . S
O767 Cd742 2.173 . S
O767 C766 1.277 . S
O768 Cd743 2.250 . S
O768 C766 1.230 . S
C769 N751 1.329 . S
C769 C753 1.481 . S
C769 O770 1.246 . S
O770 C769 1.246 . S
O771 Cd742 2.263 . S
O771 C783 1.258 . S
O772 Cd743 2.308 . S
O772 C783 1.274 . S
C773 C757 1.516 . S
C773 N758 1.324 . S
C773 O774 1.238 . S
O774 C773 1.238 . S
C775 N758 1.427 . S
C775 C776 1.394 . S
C775 C780 1.395 . S
C776 C775 1.394 . S
C776 C777 1.380 . S
C776 H804 0.929 . S
C777 C776 1.380 . S
C777 C778 1.384 . S
C777 C783 1.495 . S
C778 C777 1.384 . S
C778 C779 1.382 . S
C778 H805 0.930 . S
C779 C778 1.382 . S
C779 C780 1.398 . S
C780 C775 1.395 . S
C780 C779 1.398 . S
C780 H806 0.930 . S
C781 O761 1.235 1_565 S
C781 O762 1.270 . S
O782 C735 1.263 . S
O782 Cd742 2.366 . S
C783 O771 1.258 . S
C783 O772 1.274 . S
C783 C777 1.495 . S
C784 N751 1.432 . S
C784 C785 1.381 . S
C784 C789 1.385 . S
C785 C784 1.381 . S
C785 C786 1.371 . S
C785 H807 0.932 . S
C786 C785 1.371 . S
C786 C787 1.400 . S
C787 C786 1.400 . S
C787 C788 1.351 . S
C787 H808 0.930 . S
C788 C787 1.351 . S
C788 C789 1.388 . S
C789 C784 1.385 . S
C789 C788 1.388 . S
C789 H809 0.929 . S
C790 C729 1.504 . S
C790 N760 1.309 . S
C790 O791 1.258 . S
O791 C790 1.258 . S
H792 C730 0.929 . S
H793 C731 0.932 . S
H794 C732 0.931 . S
H795 C737 0.929 . S
H796 C739 0.929 . S
H797 C741 0.931 . S
H798 C746 0.929 . S
H799 C748 0.932 . S
H800 C749 0.931 . S
H801 C754 0.930 . S
H802 C755 0.931 . S
H803 C756 0.930 . S
H804 C776 0.929 . S
H805 C778 0.930 . S
H806 C780 0.930 . S
H807 C785 0.932 . S
H808 C787 0.930 . S
H809 C789 0.929 . S
C810 C811 1.359 . S
C810 N815 1.330 . S
C810 C871 1.504 . S
C811 C810 1.359 . S
C811 C812 1.366 . S
C811 H873 0.929 . S
C812 C811 1.366 . S
C812 C813 1.415 . S
C812 H874 0.932 . S
C813 C812 1.415 . S
C813 C814 1.366 . S
C813 H875 0.931 . S
C814 C813 1.366 . S
C814 N815 1.325 . S
C814 C816 1.516 . S
N815 C810 1.330 . S
N815 C814 1.325 . S
N815 Co831 1.869 . S
C816 C814 1.516 . S
C816 N840 1.316 . S
C816 O863 1.263 . S
C817 C818 1.421 . S
C817 C822 1.360 . S
C817 N840 1.436 . S
C818 C817 1.421 . S
C818 C819 1.379 . S
C818 H876 0.929 . S
C819 C818 1.379 . S
C819 C820 1.417 1_545 S
C820 C819 1.417 1_565 S
C820 C821 1.352 . S
C820 H877 0.929 . S
C821 C820 1.352 . S
C821 C822 1.393 1_565 S
C822 C817 1.360 . S
C822 C821 1.393 1_545 S
C822 H878 0.931 1_545 S
Cd823 O843 2.329 . S
Cd823 O845 2.350 . S
Cd823 O846 2.277 . S
Cd823 O848 2.173 1_565 S
Cd823 O852 2.263 . S
Cd823 O863 2.366 1_565 S
Cd824 O842 2.352 1_455 S
Cd824 O849 2.250 . S
Cd824 O853 2.308 . S
C825 C829 1.403 . S
C825 C830 1.370 . S
C825 N841 1.423 . S
C826 C827 1.389 . S
C826 C830 1.389 . S
C827 C826 1.389 . S
C827 C828 1.379 . S
C827 H879 0.929 . S
C828 C827 1.379 . S
C828 C829 1.405 . S
C829 C825 1.403 . S
C829 C828 1.405 . S
C829 H880 0.932 . S
C830 C825 1.370 . S
C830 C826 1.389 . S
C830 H881 0.931 . S
Co831 N815 1.869 . S
Co831 N832 1.955 . S
Co831 N833 1.864 . S
Co831 N839 1.958 . S
Co831 N840 1.953 . S
Co831 N841 1.974 . S
N832 Co831 1.955 . S
N832 C850 1.329 . S
N832 C865 1.432 . S
N833 Co831 1.864 . S
N833 C834 1.327 . S
N833 C838 1.342 . S
C834 N833 1.327 . S
C834 C835 1.407 . S
C834 C850 1.481 . S
C835 C834 1.407 . S
C835 C836 1.364 . S
C835 H882 0.930 . S
C836 C835 1.364 . S
C836 C837 1.390 . S
C836 H883 0.931 . S
C837 C836 1.390 . S
C837 C838 1.346 . S
C837 H884 0.930 . S
C838 N833 1.342 . S
C838 C837 1.346 . S
C838 C854 1.516 . S
N839 Co831 1.958 . S
N839 C854 1.324 . S
N839 C856 1.427 . S
N840 C816 1.316 . S
N840 C817 1.436 . S
N840 Co831 1.953 . S
N841 C825 1.423 . S
N841 Co831 1.974 . S
N841 C871 1.309 . S
O842 Cd824 2.352 1_655 S
O842 C862 1.235 1_655 S
O843 Cd823 2.329 . S
O843 C862 1.270 . S
C844 O845 1.270 . S
C844 O846 1.248 . S
O845 Cd823 2.350 . S
O845 C844 1.270 . S
O846 Cd823 2.277 . S
O846 C844 1.248 . S
C847 O848 1.277 . S
C847 O849 1.230 1_545 S
O848 Cd823 2.173 1_545 S
O848 C847 1.277 . S
O849 Cd824 2.250 . S
O849 C847 1.230 1_565 S
C850 N832 1.329 . S
C850 C834 1.481 . S
C850 O851 1.246 . S
O851 C850 1.246 . S
O852 Cd823 2.263 . S
O852 C864 1.258 . S
O853 Cd824 2.308 . S
O853 C864 1.274 . S
C854 C838 1.516 . S
C854 N839 1.324 . S
C854 O855 1.238 . S
O855 C854 1.238 . S
C856 N839 1.427 . S
C856 C857 1.394 . S
C856 C861 1.395 . S
C857 C856 1.394 . S
C857 C858 1.380 1_545 S
C857 H885 0.929 . S
C858 C857 1.380 1_565 S
C858 C859 1.384 1_565 S
C858 C864 1.495 . S
C859 C858 1.384 1_545 S
C859 C860 1.382 . S
C859 H886 0.930 1_545 S
C860 C859 1.382 . S
C860 C861 1.398 . S
C861 C856 1.395 . S
C861 C860 1.398 . S
C861 H887 0.930 . S
C862 O842 1.235 1_455 S
C862 O843 1.270 . S
O863 C816 1.263 . S
O863 Cd823 2.366 1_545 S
C864 O852 1.258 . S
C864 O853 1.274 . S
C864 C858 1.495 . S
C865 N832 1.432 . S
C865 C866 1.381 . S
C865 C870 1.385 . S
C866 C865 1.381 . S
C866 C867 1.371 . S
C866 H888 0.932 . S
C867 C866 1.371 . S
C867 C868 1.400 . S
C868 C867 1.400 . S
C868 C869 1.351 . S
C868 H889 0.930 . S
C869 C868 1.351 . S
C869 C870 1.388 . S
C870 C865 1.385 . S
C870 C869 1.388 . S
C870 H890 0.929 . S
C871 C810 1.504 . S
C871 N841 1.309 . S
C871 O872 1.258 . S
O872 C871 1.258 . S
H873 C811 0.929 . S
H874 C812 0.932 . S
H875 C813 0.931 . S
H876 C818 0.929 . S
H877 C820 0.929 . S
H878 C822 0.931 1_565 S
H879 C827 0.929 . S
H880 C829 0.932 . S
H881 C830 0.931 . S
H882 C835 0.930 . S
H883 C836 0.931 . S
H884 C837 0.930 . S
H885 C857 0.929 . S
H886 C859 0.930 1_565 S
H887 C861 0.930 . S
H888 C866 0.932 . S
H889 C868 0.930 . S
H890 C870 0.929 . S
C891 C892 1.359 . S
C891 N896 1.330 . S
C891 C952 1.504 . S
C892 C891 1.359 . S
C892 C893 1.366 . S
C892 H954 0.929 . S
C893 C892 1.366 . S
C893 C894 1.415 . S
C893 H955 0.932 . S
C894 C893 1.415 . S
C894 C895 1.366 . S
C894 H956 0.931 . S
C895 C894 1.366 . S
C895 N896 1.325 . S
C895 C897 1.516 . S
N896 C891 1.330 . S
N896 C895 1.325 . S
N896 Co912 1.869 . S
C897 C895 1.516 . S
C897 N921 1.316 . S
C897 O944 1.263 . S
C898 C899 1.421 . S
C898 C903 1.360 . S
C898 N921 1.436 . S
C899 C898 1.421 . S
C899 C900 1.379 . S
C899 H957 0.929 . S
C900 C899 1.379 . S
C900 C901 1.417 1_655 S
C901 C900 1.417 1_455 S
C901 C902 1.352 . S
C901 H958 0.929 . S
C902 C901 1.352 . S
C902 C903 1.393 1_455 S
C903 C898 1.360 . S
C903 C902 1.393 1_655 S
C903 H959 0.931 1_655 S
Cd904 O924 2.329 . S
Cd904 O926 2.350 . S
Cd904 O927 2.277 . S
Cd904 O929 2.173 1_455 S
Cd904 O933 2.263 . S
Cd904 O944 2.366 1_455 S
Cd905 O923 2.352 . S
Cd905 O930 2.250 . S
Cd905 O934 2.308 . S
C906 C910 1.403 . S
C906 C911 1.370 . S
C906 N922 1.423 . S
C907 C908 1.389 . S
C907 C911 1.389 . S
C908 C907 1.389 . S
C908 C909 1.379 . S
C908 H960 0.929 . S
C909 C908 1.379 . S
C909 C910 1.405 . S
C910 C906 1.403 . S
C910 C909 1.405 . S
C910 H961 0.932 . S
C911 C906 1.370 . S
C911 C907 1.389 . S
C911 H962 0.931 . S
Co912 N896 1.869 . S
Co912 N913 1.955 . S
Co912 N914 1.864 . S
Co912 N920 1.958 . S
Co912 N921 1.953 . S
Co912 N922 1.974 . S
N913 Co912 1.955 . S
N913 C931 1.329 . S
N913 C946 1.432 . S
N914 Co912 1.864 . S
N914 C915 1.327 . S
N914 C919 1.342 . S
C915 N914 1.327 . S
C915 C916 1.407 . S
C915 C931 1.481 . S
C916 C915 1.407 . S
C916 C917 1.364 . S
C916 H963 0.930 . S
C917 C916 1.364 . S
C917 C918 1.390 . S
C917 H964 0.931 . S
C918 C917 1.390 . S
C918 C919 1.346 . S
C918 H965 0.930 . S
C919 N914 1.342 . S
C919 C918 1.346 . S
C919 C935 1.516 . S
N920 Co912 1.958 . S
N920 C935 1.324 . S
N920 C937 1.427 . S
N921 C897 1.316 . S
N921 C898 1.436 . S
N921 Co912 1.953 . S
N922 C906 1.423 . S
N922 Co912 1.974 . S
N922 C952 1.309 . S
O923 Cd905 2.352 . S
O923 C943 1.235 . S
O924 Cd904 2.329 . S
O924 C943 1.270 . S
C925 O926 1.270 . S
C925 O927 1.248 . S
O926 Cd904 2.350 . S
O926 C925 1.270 . S
O927 Cd904 2.277 . S
O927 C925 1.248 . S
C928 O929 1.277 . S
C928 O930 1.230 1_655 S
O929 Cd904 2.173 1_655 S
O929 C928 1.277 . S
O930 Cd905 2.250 . S
O930 C928 1.230 1_455 S
C931 N913 1.329 . S
C931 C915 1.481 . S
C931 O932 1.246 . S
O932 C931 1.246 . S
O933 Cd904 2.263 . S
O933 C945 1.258 . S
O934 Cd905 2.308 . S
O934 C945 1.274 . S
C935 C919 1.516 . S
C935 N920 1.324 . S
C935 O936 1.238 . S
O936 C935 1.238 . S
C937 N920 1.427 . S
C937 C938 1.394 . S
C937 C942 1.395 . S
C938 C937 1.394 . S
C938 C939 1.380 1_655 S
C938 H966 0.929 . S
C939 C938 1.380 1_455 S
C939 C940 1.384 1_455 S
C939 C945 1.495 . S
C940 C939 1.384 1_655 S
C940 C941 1.382 . S
C940 H967 0.930 1_655 S
C941 C940 1.382 . S
C941 C942 1.398 . S
C942 C937 1.395 . S
C942 C941 1.398 . S
C942 H968 0.930 . S
C943 O923 1.235 . S
C943 O924 1.270 . S
O944 C897 1.263 . S
O944 Cd904 2.366 1_655 S
C945 O933 1.258 . S
C945 O934 1.274 . S
C945 C939 1.495 . S
C946 N913 1.432 . S
C946 C947 1.381 . S
C946 C951 1.385 . S
C947 C946 1.381 . S
C947 C948 1.371 . S
C947 H969 0.932 . S
C948 C947 1.371 . S
C948 C949 1.400 . S
C949 C948 1.400 . S
C949 C950 1.351 . S
C949 H970 0.930 . S
C950 C949 1.351 . S
C950 C951 1.388 . S
C951 C946 1.385 . S
C951 C950 1.388 . S
C951 H971 0.929 . S
C952 C891 1.504 . S
C952 N922 1.309 . S
C952 O953 1.258 . S
O953 C952 1.258 . S
H954 C892 0.929 . S
H955 C893 0.932 . S
H956 C894 0.931 . S
H957 C899 0.929 . S
H958 C901 0.929 . S
H959 C903 0.931 1_455 S
H960 C908 0.929 . S
H961 C910 0.932 . S
H962 C911 0.931 . S
H963 C916 0.930 . S
H964 C917 0.931 . S
H965 C918 0.930 . S
H966 C938 0.929 . S
H967 C940 0.930 1_455 S
H968 C942 0.930 . S
H969 C947 0.932 . S
H970 C949 0.930 . S
H971 C951 0.929 . S
C52 C118 2.948 1_455 S
C133 C199 2.948 . S
C214 C37 2.948 1_565 S
C442 C295 2.948 1_565 S
C280 C376 2.948 1_455 S
C361 C457 2.948 . S
C538 C604 2.948 1_655 S
C619 C685 2.948 . S
C700 C523 2.948 1_545 S
C928 C781 2.948 1_545 S
C766 C862 2.948 1_655 S
C943 C847 2.948 . S
C59 C601 2.654 1_554 S
C140 C682 2.654 1_554 S
C520 C221 2.654 1_556 S
C925 C302 2.654 . S
C383 C763 2.654 . S
C844 C464 2.654 . S
C545 C115 2.654 1_556 S
C196 C626 2.654 1_554 S
C707 C34 2.654 1_556 S
C439 C788 2.654 . S
C277 C869 2.654 . S
C358 C950 2.654 . S
C18 C97 3.195 . S
C178 C99 3.195 . S
C180 C16 3.195 . S
C421 C261 3.195 . S
C259 C342 3.195 . S
C340 C423 3.195 . S
C504 C583 3.195 . S
C664 C585 3.195 . S
C666 C502 3.195 . S
C747 C907 3.195 . S
C745 C828 3.195 . S
C909 C826 3.195 . S
C293 C50 2.578 . S
C374 C131 2.578 1_565 S
C212 C455 2.578 1_655 S
C536 C779 2.578 . S
C860 C617 2.578 1_545 S
C941 C698 2.578 1_655 S
