# Generated by pormake.
# Topology noy, (5)-cn, num edge types: 1
# Building blocks:
#     Node 0, Type 0, BuildingBlock: XOMCOT_clean_sbu_0, # of connection points: 5
#     Node 1, Type 0, BuildingBlock: XOMCOT_clean_sbu_0, # of connection points: 5
#     Node 2, Type 0, BuildingBlock: XOMCOT_clean_sbu_0, # of connection points: 5
#     Node 3, Type 0, BuildingBlock: XOMCOT_clean_sbu_0, # of connection points: 5
#     Node 4, Type 0, BuildingBlock: XOMCOT_clean_sbu_0, # of connection points: 5
#     Node 5, Type 0, BuildingBlock: XOMCOT_clean_sbu_0, # of connection points: 5
#     Node 6, Type 0, BuildingBlock: XOMCOT_clean_sbu_0, # of connection points: 5
#     Node 7, Type 0, BuildingBlock: XOMCOT_clean_sbu_0, # of connection points: 5
#     Edge 8, Type (0, 0), BuildingBlock: ZUJKAS_clean_linker_0, # of connection points: 2
#     Edge 9, Type (0, 0), BuildingBlock: ZUJKAS_clean_linker_0, # of connection points: 2
#     Edge 10, Type (0, 0), BuildingBlock: ZUJKAS_clean_linker_0, # of connection points: 2
#     Edge 11, Type (0, 0), BuildingBlock: ZUJKAS_clean_linker_0, # of connection points: 2
#     Edge 12, Type (0, 0), BuildingBlock: ZUJKAS_clean_linker_0, # of connection points: 2
#     Edge 13, Type (0, 0), BuildingBlock: ZUJKAS_clean_linker_0, # of connection points: 2
#     Edge 14, Type (0, 0), BuildingBlock: ZUJKAS_clean_linker_0, # of connection points: 2
#     Edge 15, Type (0, 0), BuildingBlock: ZUJKAS_clean_linker_0, # of connection points: 2
#     Edge 16, Type (0, 0), BuildingBlock: ZUJKAS_clean_linker_0, # of connection points: 2
#     Edge 17, Type (0, 0), BuildingBlock: ZUJKAS_clean_linker_0, # of connection points: 2
#     Edge 18, Type (0, 0), BuildingBlock: ZUJKAS_clean_linker_0, # of connection points: 2
#     Edge 19, Type (0, 0), BuildingBlock: ZUJKAS_clean_linker_0, # of connection points: 2
#     Edge 20, Type (0, 0), BuildingBlock: ZUJKAS_clean_linker_0, # of connection points: 2
#     Edge 21, Type (0, 0), BuildingBlock: ZUJKAS_clean_linker_0, # of connection points: 2
#     Edge 22, Type (0, 0), BuildingBlock: ZUJKAS_clean_linker_0, # of connection points: 2
#     Edge 23, Type (0, 0), BuildingBlock: ZUJKAS_clean_linker_0, # of connection points: 2
#     Edge 24, Type (0, 0), BuildingBlock: ZUJKAS_clean_linker_0, # of connection points: 2
#     Edge 25, Type (0, 0), BuildingBlock: ZUJKAS_clean_linker_0, # of connection points: 2
#     Edge 26, Type (0, 0), BuildingBlock: ZUJKAS_clean_linker_0, # of connection points: 2
#     Edge 27, Type (0, 0), BuildingBlock: ZUJKAS_clean_linker_0, # of connection points: 2
# Relax obj value: 0.201
# Max RMSD: 0.217
# Mean RMSD: 0.217
data_MOF--net-noy--node1-XOMCOT_clean_sbu_0--edge1-ZUJKAS_clean_linker_0
_symmetry_space_group_name_H-M    P1
_symmetry_Int_Tables_number       1
_symmetry_cell_setting            triclinic
loop_
_symmetry_equiv_pos_as_xyz
'x, y, z'
_cell_length_a     61.374257
_cell_length_b     60.118085
_cell_length_c     25.274975
_cell_angle_alpha  90.006024
_cell_angle_beta   89.803047
_cell_angle_gamma 90.015244
loop_
_atom_site_label
_atom_site_type_symbol
_atom_site_fract_x
_atom_site_fract_y
_atom_site_fract_z
_atom_type_partial_charge
Co0 Co 0.31779 0.3819 0.32217 0.0
C1 C 0.32479 0.41433 0.23101 0.0
C2 C 0.29299 0.39965 0.2344 0.0
C3 C 0.29377 0.41365 0.19161 0.0
N4 N 0.31253 0.39959 0.25875 0.0
N5 N 0.31374 0.42287 0.18945 0.0
H6 H 0.34128 0.41895 0.24021 0.0
H7 H 0.27902 0.39004 0.24708 0.0
C8 C 0.308 0.34966 0.23712 0.0
O9 O 0.32199 0.36102 0.20836 0.0
N10 N 0.32155 0.36437 0.38544 0.0
C11 C 0.33793 0.36549 0.4206 0.0
C12 C 0.33355 0.35089 0.46136 0.0
C13 C 0.30744 0.34926 0.40507 0.0
N14 N 0.31436 0.3407 0.45154 0.0
C15 C 0.36295 0.38948 0.29941 0.0
C16 C 0.37495 0.3454 0.2892 0.0
C17 C 0.39108 0.36187 0.28606 0.0
C18 C 0.38479 0.38415 0.29103 0.0
C19 C 0.35314 0.35152 0.29678 0.0
N20 N 0.34721 0.37343 0.30026 0.0
H21 H 0.35895 0.40654 0.30816 0.0
H22 H 0.34122 0.33852 0.30242 0.0
H23 H 0.35195 0.37631 0.41708 0.0
H24 H 0.29212 0.34514 0.3864 0.0
O25 O 0.32524 0.40837 0.36062 0.0
O26 O 0.29171 0.39521 0.35336 0.0
O27 O 0.30445 0.35519 0.28533 0.0
C28 C 0.30471 0.41054 0.37171 0.0
H29 H 0.28048 0.41722 0.16486 0.0
H30 H 0.34376 0.34798 0.49549 0.0
H31 H 0.3792 0.32794 0.2869 0.0
H32 H 0.39683 0.39733 0.29128 0.0
Co33 Co 0.69583 0.63533 0.82077 0.0
C34 C 0.68925 0.60399 0.73069 0.0
C35 C 0.71718 0.62516 0.72072 0.0
C36 C 0.7162 0.61088 0.67852 0.0
N37 N 0.70031 0.62095 0.75332 0.0
N38 N 0.69876 0.59743 0.68481 0.0
H39 H 0.6751 0.59617 0.74832 0.0
H40 H 0.72975 0.63739 0.72777 0.0
C41 C 0.70379 0.68371 0.79669 0.0
O42 O 0.68714 0.68887 0.82713 0.0
N43 N 0.69249 0.65004 0.88905 0.0
C44 C 0.67574 0.64988 0.92373 0.0
C45 C 0.68114 0.66278 0.96672 0.0
C46 C 0.70805 0.6625 0.91254 0.0
N47 N 0.70148 0.67085 0.95975 0.0
C48 C 0.64933 0.63284 0.82198 0.0
C49 C 0.64101 0.66366 0.74374 0.0
C50 C 0.62339 0.65438 0.77168 0.0
C51 C 0.62787 0.63823 0.80999 0.0
C52 C 0.66241 0.65766 0.75706 0.0
N53 N 0.6664 0.6436 0.79851 0.0
H54 H 0.65209 0.61991 0.8507 0.0
H55 H 0.67564 0.66427 0.73366 0.0
H56 H 0.66063 0.64102 0.91943 0.0
H57 H 0.72387 0.66537 0.89489 0.0
O58 O 0.6889 0.60709 0.85235 0.0
O59 O 0.72218 0.62107 0.84744 0.0
O60 O 0.7092 0.66334 0.79031 0.0
C61 C 0.70949 0.60478 0.86213 0.0
H62 H 0.72762 0.61037 0.64584 0.0
H63 H 0.67058 0.66608 1.00012 0.0
H64 H 0.63834 0.6756 0.71235 0.0
H65 H 0.61485 0.62958 0.83044 0.0
Co66 Co 0.31883 0.63889 0.69432 0.0
C67 C 0.32869 0.60668 0.78127 0.0
C68 C 0.31445 0.6368 0.81092 0.0
C69 C 0.31856 0.623 0.85296 0.0
N70 N 0.32094 0.62675 0.76573 0.0
N71 N 0.32742 0.60408 0.83433 0.0
H72 H 0.3351 0.59419 0.75464 0.0
H73 H 0.3071 0.65305 0.81395 0.0
C74 C 0.31116 0.6874 0.72006 0.0
O75 O 0.32698 0.69306 0.68754 0.0
N76 N 0.31593 0.65089 0.6225 0.0
C77 C 0.32423 0.64223 0.57743 0.0
C78 C 0.31678 0.65421 0.53491 0.0
C79 C 0.30256 0.66738 0.6058 0.0
N80 N 0.30324 0.67024 0.55263 0.0
C81 C 0.36373 0.6427 0.66504 0.0
C82 C 0.37716 0.66905 0.74823 0.0
C83 C 0.39261 0.66227 0.71043 0.0
C84 C 0.38556 0.64879 0.66868 0.0
C85 C 0.35532 0.66255 0.74298 0.0
N86 N 0.34864 0.65011 0.70067 0.0
H87 H 0.35927 0.63118 0.63453 0.0
H88 H 0.34389 0.66746 0.77333 0.0
H89 H 0.3341 0.62742 0.57458 0.0
H90 H 0.292 0.67669 0.63175 0.0
O91 O 0.32571 0.61014 0.66543 0.0
O92 O 0.29222 0.62191 0.6827 0.0
O93 O 0.30569 0.66697 0.72505 0.0
C94 C 0.30492 0.60614 0.66502 0.0
H95 H 0.31469 0.62634 0.89403 0.0
H96 H 0.32054 0.65069 0.49393 0.0
H97 H 0.38188 0.67919 0.78169 0.0
H98 H 0.39699 0.64221 0.63992 0.0
Co99 Co 0.69406 0.37937 0.19783 0.0
C100 C 0.68761 0.41148 0.28609 0.0
C101 C 0.71563 0.39054 0.29691 0.0
C102 C 0.71469 0.40544 0.33801 0.0
N103 N 0.6987 0.39429 0.26445 0.0
N104 N 0.69717 0.41868 0.33114 0.0
H105 H 0.67346 0.41908 0.26818 0.0
H106 H 0.7282 0.37823 0.29038 0.0
C107 C 0.7006 0.33122 0.22538 0.0
O108 O 0.68337 0.32634 0.19689 0.0
N109 N 0.69052 0.36417 0.13031 0.0
C110 C 0.67505 0.36657 0.09292 0.0
C111 C 0.68042 0.35359 0.04988 0.0
C112 C 0.70538 0.35028 0.10849 0.0
N113 N 0.69948 0.34328 0.05979 0.0
C114 C 0.64757 0.38243 0.19687 0.0
C115 C 0.63902 0.35423 0.28063 0.0
C116 C 0.62153 0.36401 0.25374 0.0
C117 C 0.62608 0.37855 0.21199 0.0
C118 C 0.66045 0.35894 0.26467 0.0
N119 N 0.66451 0.37183 0.22105 0.0
H120 H 0.65047 0.39453 0.16628 0.0
H121 H 0.67366 0.35254 0.28822 0.0
H122 H 0.66112 0.37739 0.09506 0.0
H123 H 0.7205 0.3458 0.1276 0.0
O124 O 0.68758 0.40745 0.16508 0.0
O125 O 0.72064 0.39296 0.17006 0.0
O126 O 0.70694 0.35141 0.22949 0.0
C127 C 0.70821 0.40934 0.15487 0.0
H128 H 0.72624 0.40663 0.37017 0.0
H129 H 0.67096 0.35193 0.01405 0.0
H130 H 0.63617 0.34358 0.31451 0.0
H131 H 0.61308 0.38689 0.19095 0.0
Co132 Co 0.813 0.88074 0.31939 0.0
C133 C 0.82148 0.91074 0.22743 0.0
C134 C 0.79563 0.88742 0.21321 0.0
C135 C 0.79764 0.90093 0.16978 0.0
N136 N 0.81059 0.89344 0.2493 0.0
N137 N 0.81374 0.91575 0.17868 0.0
H138 H 0.83419 0.9199 0.24749 0.0
H139 H 0.78362 0.87446 0.21843 0.0
C140 C 0.80737 0.83202 0.29382 0.0
O141 O 0.82473 0.8274 0.32206 0.0
N142 N 0.81427 0.8679 0.39045 0.0
C143 C 0.82471 0.87594 0.43338 0.0
C144 C 0.81894 0.86363 0.47708 0.0
C145 C 0.80141 0.85147 0.40981 0.0
N146 N 0.80428 0.84818 0.46225 0.0
C147 C 0.85903 0.87989 0.33494 0.0
C148 C 0.87006 0.85361 0.24938 0.0
C149 C 0.8865 0.86037 0.28443 0.0
C150 C 0.88071 0.87412 0.32685 0.0
C151 C 0.84833 0.85977 0.25923 0.0
N152 N 0.84291 0.87174 0.30343 0.0
H153 H 0.85542 0.89153 0.36588 0.0
H154 H 0.8359 0.85485 0.23141 0.0
H155 H 0.83474 0.89067 0.43447 0.0
H156 H 0.78921 0.84292 0.38677 0.0
O157 O 0.81937 0.90969 0.34757 0.0
O158 O 0.78612 0.89573 0.34006 0.0
O159 O 0.80048 0.85205 0.29054 0.0
C160 C 0.79857 0.91224 0.35455 0.0
H161 H 0.78777 0.89996 0.13448 0.0
H162 H 0.82476 0.86629 0.51694 0.0
H163 H 0.87389 0.84353 0.21508 0.0
H164 H 0.89296 0.88087 0.35312 0.0
Co165 Co 0.19362 0.13565 0.81914 0.0
C166 C 0.18509 0.10219 0.73438 0.0
C167 C 0.2166 0.11766 0.72819 0.0
C168 C 0.21496 0.10177 0.68938 0.0
N169 N 0.19797 0.11789 0.75644 0.0
N170 N 0.19521 0.09207 0.69328 0.0
H171 H 0.1691 0.09773 0.74913 0.0
H172 H 0.23064 0.12797 0.73624 0.0
C173 C 0.20241 0.18269 0.78368 0.0
O174 O 0.18675 0.18965 0.81515 0.0
N175 N 0.19025 0.15365 0.88277 0.0
C176 C 0.17241 0.15732 0.91302 0.0
C177 C 0.17766 0.172 0.95271 0.0
C178 C 0.20625 0.16567 0.90583 0.0
N179 N 0.1989 0.17723 0.94807 0.0
C180 C 0.14732 0.13121 0.8212 0.0
C181 C 0.13727 0.16148 0.74298 0.0
C182 C 0.12029 0.15207 0.7729 0.0
C183 C 0.12561 0.13609 0.81091 0.0
C184 C 0.15899 0.15601 0.75464 0.0
N185 N 0.16384 0.14227 0.79615 0.0
H186 H 0.15068 0.11912 0.85154 0.0
H187 H 0.17171 0.16289 0.73011 0.0
H188 H 0.15652 0.15017 0.90755 0.0
H189 H 0.22274 0.16664 0.89062 0.0
O190 O 0.18751 0.10928 0.85974 0.0
O191 O 0.22047 0.12337 0.84833 0.0
O192 O 0.2066 0.1619 0.77994 0.0
C193 C 0.20821 0.10798 0.86919 0.0
H194 H 0.2274 0.09752 0.66064 0.0
H195 H 0.1667 0.17837 0.98275 0.0
H196 H 0.13387 0.17326 0.71168 0.0
H197 H 0.11306 0.12749 0.83315 0.0
Co198 Co 0.81543 0.13532 0.69711 0.0
C199 C 0.82355 0.10298 0.78436 0.0
C200 C 0.79575 0.1239 0.79842 0.0
C201 C 0.79735 0.10901 0.8393 0.0
N202 N 0.81216 0.12022 0.7641 0.0
N203 N 0.81471 0.09572 0.83044 0.0
H204 H 0.83737 0.09536 0.76478 0.0
H205 H 0.783 0.13608 0.79324 0.0
C206 C 0.80721 0.18358 0.7242 0.0
O207 O 0.82276 0.18953 0.69125 0.0
N208 N 0.81768 0.15067 0.62942 0.0
C209 C 0.83405 0.15089 0.59368 0.0
C210 C 0.82802 0.16383 0.55135 0.0
C211 C 0.80169 0.16297 0.60721 0.0
N212 N 0.80764 0.17153 0.55974 0.0
C213 C 0.86173 0.13208 0.69082 0.0
C214 C 0.8723 0.16398 0.76491 0.0
C215 C 0.88898 0.15445 0.73423 0.0
C216 C 0.88345 0.13773 0.6983 0.0
C217 C 0.85052 0.15783 0.75579 0.0
N218 N 0.84537 0.14322 0.71619 0.0
H219 H 0.8582 0.11899 0.66305 0.0
H220 H 0.838 0.16485 0.7807 0.0
H221 H 0.8493 0.1422 0.59671 0.0
H222 H 0.786 0.16549 0.62583 0.0
O223 O 0.82151 0.10741 0.66298 0.0
O224 O 0.78847 0.12148 0.67251 0.0
O225 O 0.80271 0.16299 0.73086 0.0
C226 C 0.80076 0.10535 0.65513 0.0
H227 H 0.78632 0.10788 0.87269 0.0
H228 H 0.83816 0.16734 0.51729 0.0
H229 H 0.87599 0.17631 0.7948 0.0
H230 H 0.89587 0.12905 0.6758 0.0
Co231 Co 0.19208 0.88196 0.19034 0.0
C232 C 0.18293 0.91504 0.27565 0.0
C233 C 0.21319 0.89756 0.28589 0.0
C234 C 0.21148 0.91337 0.32484 0.0
N235 N 0.19539 0.89861 0.25503 0.0
N236 N 0.19253 0.92435 0.31839 0.0
H237 H 0.16778 0.92071 0.25849 0.0
H238 H 0.22688 0.88657 0.27925 0.0
C239 C 0.19943 0.83441 0.22348 0.0
O240 O 0.18406 0.82812 0.19065 0.0
N241 N 0.18985 0.86515 0.12466 0.0
C242 C 0.17423 0.86585 0.08728 0.0
C243 C 0.18031 0.85247 0.04564 0.0
C244 C 0.20556 0.8519 0.10408 0.0
N245 N 0.19999 0.8436 0.05623 0.0
C246 C 0.14574 0.8856 0.18364 0.0
C247 C 0.13481 0.85592 0.26263 0.0
C248 C 0.11813 0.86513 0.23162 0.0
C249 C 0.12392 0.88074 0.19299 0.0
C250 C 0.15664 0.8614 0.25197 0.0
N251 N 0.16197 0.87488 0.21024 0.0
H252 H 0.14944 0.89803 0.15428 0.0
H253 H 0.16907 0.85485 0.27766 0.0
H254 H 0.15972 0.87587 0.0883 0.0
H255 H 0.22071 0.84836 0.12412 0.0
O256 O 0.18651 0.90898 0.15201 0.0
O257 O 0.21934 0.89477 0.16444 0.0
O258 O 0.20425 0.85502 0.22812 0.0
C259 C 0.20733 0.91045 0.14408 0.0
H260 H 0.22344 0.91684 0.35514 0.0
H261 H 0.17118 0.85011 0.00953 0.0
H262 H 0.13111 0.84441 0.29435 0.0
H263 H 0.11163 0.88935 0.17015 0.0
H264 H 0.42152 0.38049 0.22084 0.0
H265 H 0.46091 0.37404 0.2206 0.0
H266 H 0.45323 0.32436 0.34225 0.0
H267 H 0.41371 0.33076 0.34275 0.0
H268 H 0.48497 0.35944 0.36327 0.0
H269 H 0.4972 0.31947 0.1675 0.0
H270 H 0.4805 0.34402 0.16629 0.0
H271 H 0.47116 0.31976 0.20114 0.0
C272 C 0.4282 0.36799 0.24705 0.0
C273 C 0.41455 0.3561 0.28174 0.0
C274 C 0.45067 0.36423 0.24666 0.0
C275 C 0.45994 0.34859 0.28108 0.0
C276 C 0.44634 0.33638 0.3151 0.0
H277 H 0.60146 0.32377 0.26739 0.0
H278 H 0.5623 0.31695 0.28104 0.0
C279 C 0.42379 0.33996 0.31512 0.0
C280 C 0.48396 0.34636 0.284 0.0
H281 H 0.52889 0.33456 0.20908 0.0
C282 C 0.49459 0.35366 0.32992 0.0
C283 C 0.49644 0.33864 0.24062 0.0
C284 C 0.48578 0.32983 0.1912 0.0
C285 C 0.51743 0.35457 0.33247 0.0
C286 C 0.52989 0.34806 0.28795 0.0
C287 C 0.51928 0.33963 0.24311 0.0
C288 C 0.55374 0.35181 0.28521 0.0
C289 C 0.5281 0.36298 0.38228 0.0
C290 C 0.56182 0.37362 0.28351 0.0
C291 C 0.58401 0.37752 0.27537 0.0
C292 C 0.59857 0.35967 0.26899 0.0
C293 C 0.5906 0.33779 0.27266 0.0
C294 C 0.56828 0.3339 0.28018 0.0
H295 H 0.51695 0.36181 0.41691 0.0
H296 H 0.54319 0.35349 0.39092 0.0
H297 H 0.53262 0.38071 0.37688 0.0
H298 H 0.55084 0.38767 0.28665 0.0
H299 H 0.58974 0.39453 0.27288 0.0
H300 H 0.59088 0.66088 0.84392 0.0
H301 H 0.55228 0.66723 0.82734 0.0
H302 H 0.56503 0.67014 0.65958 0.0
H303 H 0.60374 0.66274 0.67575 0.0
H304 H 0.52932 0.70042 0.78035 0.0
H305 H 0.5195 0.62148 0.66832 0.0
H306 H 0.54382 0.62784 0.70518 0.0
H307 H 0.53941 0.64023 0.64135 0.0
C308 C 0.5855 0.66273 0.80339 0.0
C309 C 0.60038 0.66083 0.76109 0.0
C310 C 0.56343 0.66657 0.79402 0.0
C311 C 0.55565 0.6687 0.74218 0.0
C312 C 0.57058 0.66803 0.69988 0.0
H313 H 0.42116 0.67364 0.63146 0.0
H314 H 0.46067 0.67798 0.63773 0.0
C315 C 0.59275 0.66405 0.70922 0.0
C316 C 0.53182 0.67072 0.73302 0.0
H317 H 0.48837 0.64402 0.67759 0.0
C318 C 0.52038 0.68816 0.75763 0.0
C319 C 0.52013 0.65463 0.70361 0.0
C320 C 0.53126 0.63487 0.67846 0.0
C321 C 0.49759 0.68985 0.75389 0.0
C322 C 0.48594 0.67361 0.72512 0.0
C323 C 0.49739 0.65648 0.69951 0.0
C324 C 0.46179 0.67344 0.72252 0.0
C325 C 0.48613 0.709 0.78068 0.0
C326 C 0.44927 0.66968 0.76827 0.0
C327 C 0.42665 0.66698 0.7648 0.0
C328 C 0.41616 0.66788 0.71542 0.0
C329 C 0.42873 0.67249 0.67 0.0
C330 C 0.4513 0.6751 0.6735 0.0
H331 H 0.49754 0.72282 0.78976 0.0
H332 H 0.47274 0.71548 0.75558 0.0
H333 H 0.47891 0.70312 0.81849 0.0
H334 H 0.45708 0.66794 0.8064 0.0
H335 H 0.41756 0.66316 0.80045 0.0
H336 H 0.08741 0.85867 0.15526 0.0
H337 H 0.04832 0.8533 0.16679 0.0
H338 H 0.05668 0.85127 0.33606 0.0
H339 H 0.09585 0.8578 0.32496 0.0
H340 H 0.02321 0.82133 0.21086 0.0
H341 H 0.01273 0.90078 0.3202 0.0
H342 H 0.0378 0.89358 0.28701 0.0
H343 H 0.03146 0.88183 0.35069 0.0
C344 C 0.08096 0.85725 0.19506 0.0
C345 C 0.09476 0.85917 0.23925 0.0
C346 C 0.0586 0.85395 0.20153 0.0
C347 C 0.04946 0.85238 0.25229 0.0
C348 C 0.0633 0.85299 0.29651 0.0
H349 H 0.91529 0.84709 0.35993 0.0
H350 H 0.95468 0.84257 0.35102 0.0
C351 C 0.08574 0.85646 0.29009 0.0
C352 C 0.02539 0.851 0.25842 0.0
H353 H 0.98149 0.87824 0.3108 0.0
C354 C 0.01409 0.83375 0.2328 0.0
C355 C 0.01346 0.86734 0.2866 0.0
C356 C 0.02441 0.88705 0.31228 0.0
C357 C 0.99122 0.83233 0.23499 0.0
C358 C 0.97939 0.84862 0.26333 0.0
C359 C 0.99066 0.86572 0.28927 0.0
C360 C 0.95527 0.84847 0.26667 0.0
C361 C 0.97986 0.81336 0.20747 0.0
C362 C 0.94246 0.85289 0.2219 0.0
C363 C 0.91985 0.85565 0.2269 0.0
C364 C 0.90978 0.85418 0.27685 0.0
C365 C 0.9226 0.84869 0.32104 0.0
C366 C 0.9451 0.846 0.31603 0.0
H367 H 0.99137 0.79988 0.19633 0.0
H368 H 0.96687 0.8063 0.23315 0.0
H369 H 0.97205 0.81965 0.17087 0.0
H370 H 0.95005 0.85516 0.18354 0.0
H371 H 0.91047 0.86005 0.19224 0.0
H372 H 0.08996 0.15975 0.84968 0.0
H373 H 0.0509 0.16555 0.83908 0.0
H374 H 0.05886 0.16581 0.66948 0.0
H375 H 0.09807 0.15911 0.6798 0.0
H376 H 0.02569 0.19758 0.7917 0.0
H377 H 0.01522 0.11574 0.69265 0.0
H378 H 0.0402 0.12359 0.72501 0.0
H379 H 0.034 0.1342 0.66028 0.0
C380 C 0.08343 0.16098 0.81003 0.0
C381 C 0.09707 0.15847 0.76553 0.0
C382 C 0.0611 0.1645 0.80408 0.0
C383 C 0.05187 0.16565 0.75353 0.0
C384 C 0.06558 0.16448 0.7089 0.0
H385 H 0.91694 0.16392 0.65389 0.0
H386 H 0.95626 0.16969 0.65887 0.0
C387 C 0.08801 0.16087 0.71483 0.0
C388 C 0.0278 0.16684 0.74816 0.0
H389 H 0.98384 0.13785 0.70266 0.0
C390 C 0.01652 0.18458 0.77203 0.0
C391 C 0.01584 0.14974 0.72299 0.0
C392 C 0.02686 0.12962 0.69917 0.0
C393 C 0.99363 0.18574 0.77101 0.0
C394 C 0.98174 0.1686 0.74596 0.0
C395 C 0.99302 0.15101 0.72171 0.0
C396 C 0.95757 0.1683 0.74429 0.0
C397 C 0.98235 0.20536 0.79626 0.0
C398 C 0.94512 0.16608 0.79083 0.0
C399 C 0.92253 0.16275 0.78809 0.0
C400 C 0.91214 0.16135 0.73873 0.0
C401 C 0.92455 0.16462 0.69247 0.0
C402 C 0.947 0.16799 0.69523 0.0
H403 H 0.99371 0.21951 0.80248 0.0
H404 H 0.96852 0.21109 0.77156 0.0
H405 H 0.97576 0.2003 0.83538 0.0
H406 H 0.953 0.16591 0.8291 0.0
H407 H 0.9134 0.16012 0.82431 0.0
H408 H 0.31991 0.56102 0.80876 0.0
H409 H 0.32296 0.52887 0.86835 0.0
H410 H 0.34973 0.57135 0.98938 0.0
H411 H 0.346 0.60347 0.9306 0.0
H412 H 0.35542 0.50804 0.92323 0.0
H413 H 0.29693 0.54663 0.06358 0.0
H414 H 0.30192 0.55782 0.99851 0.0
H415 H 0.32053 0.56352 0.05175 0.0
C416 C 0.32675 0.56334 0.84779 0.0
C417 C 0.33244 0.58471 0.86548 0.0
C418 C 0.32844 0.54502 0.88186 0.0
C419 C 0.336 0.54781 0.93391 0.0
C420 C 0.34319 0.5689 0.95007 0.0
H421 H 0.34039 0.45809 0.20665 0.0
H422 H 0.34905 0.48797 0.14352 0.0
C423 C 0.34118 0.58721 0.91643 0.0
C424 C 0.33528 0.52903 0.97218 0.0
H425 H 0.31381 0.51331 0.09145 0.0
C426 C 0.34634 0.5092 0.96001 0.0
C427 C 0.32329 0.53047 0.02011 0.0
C428 C 0.30981 0.55066 0.03411 0.0
C429 C 0.34585 0.49089 0.99466 0.0
C430 C 0.33399 0.49246 0.04256 0.0
C431 C 0.32313 0.5123 0.05498 0.0
C432 C 0.33118 0.47325 0.07871 0.0
C433 C 0.358 0.46997 0.97998 0.0
C434 C 0.31841 0.45509 0.06302 0.0
C435 C 0.31332 0.43822 0.09898 0.0
C436 C 0.32097 0.43912 0.15133 0.0
C437 C 0.33446 0.45689 0.16647 0.0
C438 C 0.33934 0.47396 0.13055 0.0
H439 H 0.37013 0.47299 0.94805 0.0
H440 H 0.36649 0.46298 0.01496 0.0
H441 H 0.34621 0.45733 0.96576 0.0
H442 H 0.31171 0.45438 0.02346 0.0
H443 H 0.30305 0.42462 0.08615 0.0
H444 H 0.72465 0.4455 0.38451 0.0
H445 H 0.71516 0.47653 0.44221 0.0
H446 H 0.64706 0.46636 0.40894 0.0
H447 H 0.65652 0.43482 0.35077 0.0
H448 H 0.68458 0.51659 0.40685 0.0
H449 H 0.65941 0.46622 0.58195 0.0
H450 H 0.67898 0.45522 0.53527 0.0
H451 H 0.65113 0.45857 0.51588 0.0
C452 C 0.70763 0.44968 0.38966 0.0
C453 C 0.69131 0.43754 0.36346 0.0
C454 C 0.70225 0.46751 0.42243 0.0
C455 C 0.68044 0.47358 0.43006 0.0
C456 C 0.664 0.46179 0.40363 0.0
H457 H 0.65828 0.57992 0.66902 0.0
H458 H 0.64853 0.55034 0.60582 0.0
C459 C 0.66941 0.44392 0.3703 0.0
C460 C 0.67548 0.49245 0.46574 0.0
H461 H 0.66677 0.5043 0.5963 0.0
C462 C 0.6801 0.51402 0.44796 0.0
C463 C 0.66958 0.48901 0.51922 0.0
C464 C 0.66443 0.46604 0.53967 0.0
C465 C 0.6803 0.53209 0.48309 0.0
C466 C 0.67618 0.52838 0.53749 0.0
C467 C 0.66997 0.50708 0.5546 0.0
C468 C 0.6815 0.54557 0.57748 0.0
C469 C 0.68594 0.55488 0.46215 0.0
C470 C 0.70325 0.55211 0.58351 0.0
C471 C 0.70883 0.5687 0.61945 0.0
C472 C 0.69278 0.57925 0.6504 0.0
C473 C 0.671 0.57214 0.64576 0.0
C474 C 0.6654 0.55535 0.60957 0.0
H475 H 0.68217 0.55633 0.41932 0.0
H476 H 0.67698 0.56805 0.48402 0.0
H477 H 0.70366 0.55782 0.46722 0.0
H478 H 0.71599 0.54438 0.56008 0.0
H479 H 0.72582 0.57322 0.62296 0.0
H480 H 0.74907 0.5974 0.91063 0.0
H481 H 0.76039 0.56358 0.95845 0.0
H482 H 0.69906 0.5326 0.92023 0.0
H483 H 0.68775 0.56591 0.87319 0.0
H484 H 0.73753 0.54426 0.04657 0.0
H485 H 0.74414 0.48446 0.88122 0.0
H486 H 0.74516 0.51424 0.87147 0.0
H487 H 0.71937 0.50026 0.8785 0.0
C488 C 0.73819 0.58323 0.91197 0.0
C489 C 0.71752 0.58432 0.88825 0.0
C490 C 0.74465 0.56397 0.93925 0.0
C491 C 0.73071 0.54543 0.94212 0.0
C492 C 0.71028 0.54648 0.91762 0.0
H493 H 0.68751 0.4488 0.145 0.0
H494 H 0.69931 0.48168 0.09666 0.0
C495 C 0.70376 0.56566 0.89108 0.0
C496 C 0.73624 0.5255 0.97406 0.0
H497 H 0.73554 0.46875 0.96736 0.0
C498 C 0.73774 0.52776 0.02918 0.0
C499 C 0.73679 0.50397 0.95143 0.0
C500 C 0.73651 0.50057 0.89232 0.0
C501 C 0.73777 0.50902 0.0624 0.0
C502 C 0.73608 0.48754 0.0399 0.0
C503 C 0.73661 0.48523 0.98467 0.0
C504 C 0.73031 0.46783 0.07247 0.0
C505 C 0.73852 0.51239 0.12149 0.0
C506 C 0.74374 0.44891 0.07454 0.0
C507 C 0.73702 0.42991 0.10263 0.0
C508 C 0.71657 0.42949 0.12792 0.0
C509 C 0.70333 0.44854 0.12587 0.0
C510 C 0.71013 0.46746 0.09857 0.0
H511 H 0.74674 0.52828 0.13177 0.0
H512 H 0.72163 0.51312 0.13721 0.0
H513 H 0.74714 0.49847 0.14131 0.0
H514 H 0.75928 0.44878 0.05411 0.0
H515 H 0.74749 0.41542 0.10335 0.0
H516 H 0.32822 0.44697 0.39796 0.0
H517 H 0.31701 0.47882 0.45076 0.0
H518 H 0.25297 0.45043 0.46987 0.0
H519 H 0.26413 0.41807 0.41605 0.0
H520 H 0.277 0.50831 0.43063 0.0
H521 H 0.28031 0.46447 0.62484 0.0
H522 H 0.29585 0.45444 0.56893 0.0
H523 H 0.26677 0.45186 0.56909 0.0
C524 C 0.3117 0.44738 0.41318 0.0
C525 C 0.29707 0.42991 0.40296 0.0
C526 C 0.30532 0.46569 0.44325 0.0
C527 C 0.28422 0.46695 0.46426 0.0
C528 C 0.26937 0.44969 0.45401 0.0
H529 H 0.26377 0.59617 0.62863 0.0
H530 H 0.2524 0.56177 0.58336 0.0
C531 C 0.27574 0.43128 0.42329 0.0
C532 C 0.27851 0.48638 0.49769 0.0
H533 H 0.27987 0.50359 0.62637 0.0
C534 C 0.27691 0.50731 0.47348 0.0
C535 C 0.27862 0.48493 0.55348 0.0
C536 C 0.28049 0.46278 0.58107 0.0
C537 C 0.27682 0.52697 0.50359 0.0
C538 C 0.27833 0.52559 0.55934 0.0
C539 C 0.27855 0.50458 0.58366 0.0
C540 C 0.28364 0.54546 0.59173 0.0
C541 C 0.27685 0.54911 0.47547 0.0
C542 C 0.30468 0.54739 0.61259 0.0
C543 C 0.31117 0.56688 0.63796 0.0
C544 C 0.2967 0.58485 0.64352 0.0
C545 C 0.27524 0.58257 0.62492 0.0
C546 C 0.26877 0.56301 0.59892 0.0
H547 H 0.27733 0.54726 0.43175 0.0
H548 H 0.26193 0.55851 0.4863 0.0
H549 H 0.29113 0.55914 0.48802 0.0
H550 H 0.3164 0.53408 0.60748 0.0
H551 H 0.32776 0.56804 0.65221 0.0
H552 H 0.78812 0.07001 0.88999 0.0
H553 H 0.79842 0.03936 0.94761 0.0
H554 H 0.86555 0.04687 0.90052 0.0
H555 H 0.85537 0.07826 0.84277 0.0
H556 H 0.83439 0.99805 0.90268 0.0
H557 H 0.84823 0.04888 0.08357 0.0
H558 H 0.82704 0.05754 0.03877 0.0
H559 H 0.85497 0.05885 0.01799 0.0
C560 C 0.80514 0.06542 0.89211 0.0
C561 C 0.82097 0.07683 0.86222 0.0
C562 C 0.81096 0.04778 0.92488 0.0
C563 C 0.83272 0.04105 0.92859 0.0
C564 C 0.84866 0.05196 0.89822 0.0
H565 H 0.85291 0.93723 0.17356 0.0
H566 H 0.86311 0.9672 0.11181 0.0
C567 C 0.84281 0.06976 0.86513 0.0
C568 C 0.83814 0.02239 0.96436 0.0
H569 H 0.84156 0.01026 0.09607 0.0
C570 C 0.83662 1.00064 0.94479 0.0
C571 C 0.84106 0.02587 0.01916 0.0
C572 C 0.84305 0.04903 0.0415 0.0
C573 C 0.83643 0.9823 0.97918 0.0
C574 C 0.83745 0.98589 0.03448 0.0
C575 C 0.8407 1.00754 0.05371 0.0
C576 C 0.83186 0.96795 0.07252 0.0
C577 C 0.83408 0.95927 0.95622 0.0
C578 C 0.8108 0.95898 0.07185 0.0
C579 C 0.80491 0.94218 0.10706 0.0
C580 C 0.81994 0.93383 0.14402 0.0
C581 C 0.84095 0.94325 0.14566 0.0
C582 C 0.84684 0.96027 0.11026 0.0
H583 H 0.84034 0.95855 0.91495 0.0
H584 H 0.84287 0.94678 0.98046 0.0
H585 H 0.81656 0.95469 0.9555 0.0
H586 H 0.79879 0.9651 0.04411 0.0
H587 H 0.78841 0.93592 0.1055 0.0
H588 H 0.15496 0.08706 0.65099 0.0
H589 H 0.14375 0.05827 0.58688 0.0
H590 H 0.20716 0.02786 0.5988 0.0
H591 H 0.21837 0.05654 0.6617 0.0
H592 H 0.17025 0.04978 0.48553 0.0
H593 H 0.16022 0.97586 0.61485 0.0
H594 H 0.15712 1.00405 0.63882 0.0
H595 H 0.18384 0.9926 0.62859 0.0
C596 C 0.16627 0.07395 0.64047 0.0
C597 C 0.18753 0.07399 0.66097 0.0
C598 C 0.15992 0.05763 0.60385 0.0
C599 C 0.17461 0.04088 0.58847 0.0
C600 C 0.19553 0.04051 0.61054 0.0
H601 H 0.21718 0.95876 0.34963 0.0
H602 H 0.2069 0.98838 0.41113 0.0
C603 C 0.20195 0.05693 0.6462 0.0
C604 C 0.16918 0.02469 0.54627 0.0
H605 H 0.16714 0.9688 0.5228 0.0
C606 C 0.16895 0.03211 0.49363 0.0
C607 C 0.16744 1.00168 0.55696 0.0
C608 C 0.16697 0.993 0.6129 0.0
C609 C 0.16869 0.01694 0.45132 0.0
C610 C 0.16866 0.99386 0.46205 0.0
C611 C 0.16719 0.98651 0.51464 0.0
C612 C 0.17357 0.97729 0.42023 0.0
C613 C 0.16957 0.02562 0.3954 0.0
C614 C 0.15815 0.96132 0.40454 0.0
C615 C 0.16398 0.94447 0.36869 0.0
C616 C 0.18543 0.94311 0.34931 0.0
C617 C 0.20059 0.95942 0.36425 0.0
C618 C 0.1947 0.97638 0.39911 0.0
H619 H 0.16385 0.04313 0.39306 0.0
H620 H 0.18666 0.02503 0.38096 0.0
H621 H 0.1595 0.01518 0.36871 0.0
H622 H 0.1418 0.96166 0.4208 0.0
H623 H 0.15211 0.93194 0.35801 0.0
H624 H 0.186 0.084 0.9419 0.0
H625 H 0.19837 0.05151 0.99099 0.0
H626 H 0.26188 0.05714 0.91883 0.0
H627 H 0.24959 0.09027 0.86967 0.0
H628 H 0.23863 0.01319 0.91122 0.0
H629 H 0.24336 0.04563 0.11599 0.0
H630 H 0.21947 0.0545 0.08089 0.0
H631 H 0.24593 0.06328 0.05834 0.0
C632 C 0.20271 0.07856 0.93693 0.0
C633 C 0.21684 0.08964 0.90192 0.0
C634 C 0.20979 0.06006 0.96529 0.0
C635 C 0.23109 0.05207 0.95898 0.0
C636 C 0.24544 0.06322 0.9246 0.0
H637 H 0.24843 0.92884 0.14803 0.0
H638 H 0.2611 0.96243 0.10087 0.0
C639 C 0.23843 0.08211 0.89669 0.0
C640 C 0.23717 0.03092 0.98517 0.0
H641 H 0.23634 1.00623 0.10679 0.0
C642 C 0.23886 0.01169 0.95398 0.0
C643 C 0.23759 0.029 0.04091 0.0
C644 C 0.2367 0.04923 0.07608 0.0
C645 C 0.2389 0.99045 0.9772 0.0
C646 C 0.2372 0.9885 0.0328 0.0
C647 C 0.23758 1.00776 0.06412 0.0
C648 C 0.23098 0.96719 0.05812 0.0
C649 C 0.23938 0.97021 0.94203 0.0
C650 C 0.20994 0.95889 0.04969 0.0
C651 C 0.20264 0.94015 0.0769 0.0
C652 C 0.21629 0.92912 0.11286 0.0
C653 C 0.23765 0.93697 0.12026 0.0
C654 C 0.24487 0.95611 0.09349 0.0
H655 H 0.24674 0.97403 0.90284 0.0
H656 H 0.24868 0.95648 0.96079 0.0
H657 H 0.22245 0.96435 0.93547 0.0
H658 H 0.19887 0.96736 0.02312 0.0
H659 H 0.18613 0.93445 0.07023 0.0
H660 H 0.82245 0.06707 0.63557 0.0
H661 H 0.81037 0.03499 0.58492 0.0
H662 H 0.74788 0.06602 0.56048 0.0
H663 H 0.76001 0.09865 0.61178 0.0
H664 H 0.77264 1.00627 0.60073 0.0
H665 H 0.77277 0.05182 0.40853 0.0
H666 H 0.78689 0.06256 0.46564 0.0
H667 H 0.7577 0.06315 0.46359 0.0
C668 C 0.80606 0.06713 0.61976 0.0
C669 C 0.79222 0.0855 0.62737 0.0
C670 C 0.79916 0.04869 0.59097 0.0
C671 C 0.7783 0.04815 0.56867 0.0
C672 C 0.76411 0.06619 0.57711 0.0
H673 H 0.75832 0.9197 0.40022 0.0
H674 H 0.74687 0.953 0.44996 0.0
C675 C 0.77102 0.08475 0.60651 0.0
C676 C 0.77237 0.0289 0.53485 0.0
H677 H 0.77138 0.0129 0.40522 0.0
C678 C 0.7717 1.00768 0.55802 0.0
C679 C 0.77132 0.03086 0.47917 0.0
C680 C 0.77226 0.05326 0.45234 0.0
C681 C 0.77149 0.98831 0.52687 0.0
C682 C 0.77181 0.99025 0.47109 0.0
C683 C 0.771 0.01149 0.448 0.0
C684 C 0.77702 0.97089 0.4368 0.0
C685 C 0.77268 0.96593 0.55374 0.0
C686 C 0.79743 0.97019 0.41181 0.0
C687 C 0.80395 0.95135 0.38379 0.0
C688 C 0.79015 0.93277 0.3797 0.0
C689 C 0.76928 0.93377 0.40273 0.0
C690 C 0.76278 0.95272 0.4313 0.0
H691 H 0.77426 0.96741 0.59737 0.0
H692 H 0.75768 0.95632 0.545 0.0
H693 H 0.78677 0.95631 0.53829 0.0
H694 H 0.80869 0.98399 0.41553 0.0
H695 H 0.82008 0.9512 0.36622 0.0
H696 H 0.29781 0.34508 0.13367 0.0
H697 H 0.27941 0.31409 0.09069 0.0
H698 H 0.27461 0.28006 0.24069 0.0
H699 H 0.29206 0.31186 0.28451 0.0
H700 H 0.29103 0.27355 0.07762 0.0
H701 H 0.21377 0.27271 0.19189 0.0
H702 H 0.23337 0.29488 0.19785 0.0
H703 H 0.23735 0.26907 0.23265 0.0
C704 C 0.29266 0.33107 0.15762 0.0
C705 C 0.29629 0.33089 0.21244 0.0
C706 C 0.28217 0.31331 0.13297 0.0
C707 C 0.27534 0.29473 0.16233 0.0
C708 C 0.27913 0.29441 0.21725 0.0
H709 H 0.24024 0.17373 0.98375 0.0
H710 H 0.25975 0.20062 0.03932 0.0
C711 C 0.28922 0.31251 0.24225 0.0
C712 C 0.26488 0.27567 0.13447 0.0
H713 H 0.21922 0.24319 0.13136 0.0
C714 C 0.2753 0.26695 0.08939 0.0
C715 C 0.24426 0.26711 0.14943 0.0
C716 C 0.23142 0.27656 0.19526 0.0
C717 C 0.26552 0.25042 0.05817 0.0
C718 C 0.24511 0.24152 0.07373 0.0
C719 C 0.23492 0.24987 0.11952 0.0
C720 C 0.23337 0.22459 0.0415 0.0
C721 C 0.27679 0.2435 0.00757 0.0
C722 C 0.21178 0.22859 0.02584 0.0
C723 C 0.20051 0.21298 0.9955 0.0
C724 C 0.21065 0.19315 0.97949 0.0
C725 C 0.23222 0.18906 0.99503 0.0
C726 C 0.24337 0.20448 0.0265 0.0
H727 H 0.28853 0.25634 0.99377 0.0
H728 H 0.28608 0.22796 0.01464 0.0
H729 H 0.26486 0.24042 0.97547 0.0
H730 H 0.20366 0.24393 0.03671 0.0
H731 H 0.18394 0.21657 0.98369 0.0
H732 H 0.73894 0.67903 0.73055 0.0
H733 H 0.75594 0.70744 0.67495 0.0
H734 H 0.71092 0.75641 0.73503 0.0
H735 H 0.69363 0.72804 0.79059 0.0
H736 H 0.71511 0.75622 0.62327 0.0
H737 H 0.79578 0.75891 0.72186 0.0
H738 H 0.78697 0.73158 0.70263 0.0
H739 H 0.77206 0.74656 0.75248 0.0
C740 C 0.73271 0.69586 0.7323 0.0
C741 C 0.71491 0.70123 0.76519 0.0
C742 C 0.74254 0.71211 0.7006 0.0
C743 C 0.73485 0.73409 0.70123 0.0
C744 C 0.71716 0.73955 0.73408 0.0
H745 H 0.79765 0.85082 0.56855 0.0
H746 H 0.78036 0.82314 0.62545 0.0
C747 C 0.70734 0.72332 0.76594 0.0
C748 C 0.74487 0.75123 0.66648 0.0
H749 H 0.79256 0.77856 0.64082 0.0
C750 C 0.73202 0.76116 0.62716 0.0
C751 C 0.76689 0.75777 0.6719 0.0
C752 C 0.78123 0.74833 0.71476 0.0
C753 C 0.74069 0.77725 0.59263 0.0
C754 C 0.76286 0.7834 0.59724 0.0
C755 C 0.77562 0.77369 0.63705 0.0
C756 C 0.77304 0.80025 0.56195 0.0
C757 C 0.72597 0.7878 0.55207 0.0
C758 C 0.77482 0.79654 0.50725 0.0
C759 C 0.78485 0.81233 0.47448 0.0
C760 C 0.79341 0.83212 0.49579 0.0
C761 C 0.79155 0.83572 0.55068 0.0
C762 C 0.78155 0.81993 0.58335 0.0
H763 H 0.70848 0.78522 0.56176 0.0
H764 H 0.72914 0.80594 0.54893 0.0
H765 H 0.72921 0.7802 0.51281 0.0
H766 H 0.76874 0.78127 0.48999 0.0
H767 H 0.7863 0.80879 0.43264 0.0
H768 H 0.2439 0.83669 0.05616 0.0
H769 H 0.26447 0.81152 0.99845 0.0
H770 H 0.20484 0.79123 0.9229 0.0
H771 H 0.18416 0.81599 0.98057 0.0
H772 H 0.2604 0.76506 0.98559 0.0
H773 H 0.24391 0.80957 0.79779 0.0
H774 H 0.23943 0.82208 0.86187 0.0
H775 H 0.2198 0.80298 0.83509 0.0
C776 C 0.23512 0.82681 0.02752 0.0
C777 C 0.21233 0.82861 0.02284 0.0
C778 C 0.24694 0.8125 0.99437 0.0
C779 C 0.23624 0.79982 0.95568 0.0
C780 C 0.21351 0.80127 0.95153 0.0
H781 H 0.27733 0.68155 0.78955 0.0
H782 H 0.26032 0.70935 0.84671 0.0
C783 C 0.2017 0.8155 0.98461 0.0
C784 C 0.24867 0.78465 0.92035 0.0
H785 H 0.25903 0.77316 0.79023 0.0
C786 C 0.26024 0.76691 0.9429 0.0
C787 C 0.24868 0.78725 0.86468 0.0
C788 C 0.23747 0.80662 0.83833 0.0
C789 C 0.27124 0.7513 0.91119 0.0
C790 C 0.27042 0.75333 0.85543 0.0
C791 C 0.25945 0.77148 0.83295 0.0
C792 C 0.28055 0.73659 0.81978 0.0
C793 C 0.28374 0.73281 0.9377 0.0
C794 C 0.29714 0.74278 0.78431 0.0
C795 C 0.30689 0.72691 0.75129 0.0
C796 C 0.30013 0.70455 0.75287 0.0
C797 C 0.28312 0.69855 0.78756 0.0
C798 C 0.27343 0.71441 0.82055 0.0
H799 H 0.2877 0.73696 0.97941 0.0
H800 H 0.27366 0.71748 0.9378 0.0
H801 H 0.29913 0.72919 0.91613 0.0
H802 H 0.30276 0.75985 0.78277 0.0
H803 H 0.31989 0.73213 0.72502 0.0
H804 H 0.68513 0.28972 0.24943 0.0
H805 H 0.70164 0.262 0.30767 0.0
H806 H 0.75696 0.30513 0.3311 0.0
H807 H 0.74017 0.33324 0.27454 0.0
H808 H 0.73782 0.23879 0.30273 0.0
H809 H 0.74151 0.29176 0.48138 0.0
H810 H 0.72679 0.29994 0.4229 0.0
H811 H 0.75582 0.30404 0.42678 0.0
C812 C 0.70083 0.29331 0.26695 0.0
C813 C 0.71126 0.31377 0.25767 0.0
C814 C 0.71024 0.27744 0.30034 0.0
C815 C 0.73033 0.28164 0.3249 0.0
C816 C 0.74113 0.30175 0.31411 0.0
H817 H 0.81628 0.18231 0.45681 0.0
H818 H 0.79675 0.20845 0.40146 0.0
C819 C 0.7316 0.31775 0.28133 0.0
C820 C 0.74012 0.26482 0.361 0.0
H821 H 0.76214 0.25807 0.48395 0.0
C822 C 0.74298 0.24298 0.3425 0.0
C823 C 0.74646 0.27009 0.41339 0.0
C824 C 0.74227 0.29266 0.4375 0.0
C825 C 0.75251 0.22647 0.37427 0.0
C826 C 0.76006 0.23209 0.42547 0.0
C827 C 0.75664 0.25377 0.44451 0.0
C828 C 0.77185 0.21591 0.4596 0.0
C829 C 0.75402 0.2031 0.35278 0.0
C830 C 0.7649 0.21185 0.51172 0.0
C831 C 0.77646 0.19722 0.5444 0.0
C832 C 0.79526 0.18624 0.52569 0.0
C833 C 0.80207 0.19038 0.47328 0.0
C834 C 0.79066 0.20518 0.44096 0.0
H835 H 0.74131 0.19995 0.32249 0.0
H836 H 0.77012 0.20078 0.33347 0.0
H837 H 0.75226 0.19054 0.38471 0.0
H838 H 0.75054 0.22007 0.52726 0.0
H839 H 0.77074 0.19488 0.5845 0.0
H840 H 0.69153 0.68173 0.06198 0.0
H841 H 0.70985 0.70863 0.11804 0.0
H842 H 0.75743 0.72041 0.99538 0.0
H843 H 0.73852 0.6945 0.93754 0.0
H844 H 0.7493 0.71016 0.15912 0.0
H845 H 0.73908 0.7829 0.02692 0.0
H846 H 0.72535 0.75683 0.01542 0.0
H847 H 0.75336 0.76039 0.99576 0.0
C848 C 0.70567 0.69016 0.0462 0.0
C849 C 0.71319 0.68591 0.99439 0.0
C850 C 0.7163 0.7055 0.07878 0.0
C851 C 0.7348 0.71695 0.06072 0.0
C852 C 0.74284 0.71227 0.00983 0.0
H853 H 0.82264 0.79036 0.27019 0.0
H854 H 0.8054 0.76215 0.21454 0.0
C855 C 0.73208 0.69711 0.9769 0.0
C856 C 0.74563 0.73365 0.09544 0.0
H857 H 0.76206 0.78791 0.10133 0.0
C858 C 0.75204 0.72718 0.14651 0.0
C859 C 0.74892 0.75598 0.07942 0.0
C860 C 0.74112 0.76453 0.02662 0.0
C861 C 0.76171 0.74231 0.18178 0.0
C862 C 0.76571 0.76444 0.16506 0.0
C863 C 0.7592 0.77092 0.11409 0.0
C864 C 0.77615 0.78131 0.2 0.0
C865 C 0.76695 0.73456 0.23708 0.0
C866 C 0.76577 0.80177 0.20947 0.0
C867 C 0.77577 0.81808 0.24054 0.0
C868 C 0.79635 0.81427 0.26311 0.0
C869 C 0.80666 0.79372 0.25399 0.0
C870 C 0.79675 0.77751 0.22235 0.0
H871 H 0.75705 0.71982 0.24842 0.0
H872 H 0.78436 0.72967 0.23891 0.0
H873 H 0.76405 0.74794 0.26655 0.0
H874 H 0.74991 0.80516 0.19264 0.0
H875 H 0.76737 0.83371 0.24672 0.0
H876 H 0.23224 0.17386 0.70544 0.0
H877 H 0.25141 0.20052 0.64899 0.0
H878 H 0.21906 0.25471 0.72876 0.0
H879 H 0.19949 0.22815 0.78478 0.0
H880 H 0.21866 0.25976 0.62146 0.0
H881 H 0.30236 0.24006 0.68875 0.0
H882 H 0.28766 0.21628 0.66499 0.0
H883 H 0.27839 0.2305 0.7235 0.0
C884 C 0.22925 0.19145 0.71122 0.0
C885 C 0.21436 0.19885 0.74986 0.0
C886 C 0.24034 0.20669 0.67904 0.0
C887 C 0.23697 0.22966 0.68516 0.0
C888 C 0.22201 0.23708 0.72344 0.0
H889 H 0.31759 0.33597 0.55806 0.0
H890 H 0.29852 0.30904 0.6139 0.0
C891 C 0.21084 0.22185 0.7555 0.0
C892 C 0.24862 0.24595 0.6509 0.0
H893 H 0.29933 0.26367 0.61371 0.0
C894 C 0.2363 0.26065 0.61985 0.0
C895 C 0.27165 0.24732 0.64928 0.0
C896 C 0.28582 0.23286 0.68377 0.0
C897 C 0.24634 0.27647 0.58684 0.0
C898 C 0.26937 0.27736 0.58395 0.0
C899 C 0.28169 0.26284 0.61548 0.0
C900 C 0.28102 0.29358 0.54946 0.0
C901 C 0.23216 0.29241 0.55627 0.0
C902 C 0.2778 0.2937 0.49446 0.0
C903 C 0.2887 0.30913 0.46237 0.0
C904 C 0.30324 0.32462 0.48453 0.0
C905 C 0.30669 0.32419 0.53955 0.0
C906 C 0.29572 0.30883 0.5716 0.0
H907 H 0.21553 0.29359 0.57357 0.0
H908 H 0.23945 0.30932 0.55526 0.0
H909 H 0.23055 0.28641 0.51495 0.0
H910 H 0.26697 0.28173 0.47624 0.0
H911 H 0.28595 0.3087 0.42012 0.0
H912 H 0.8122 0.22896 0.72148 0.0
H913 H 0.79428 0.25666 0.77776 0.0
H914 H 0.75928 0.20447 0.85848 0.0
H915 H 0.77674 0.17677 0.80194 0.0
H916 H 0.7329 0.23934 0.83346 0.0
H917 H 0.80774 0.26997 0.93207 0.0
H918 H 0.80877 0.27151 0.86116 0.0
H919 H 0.80728 0.24482 0.89309 0.0
C920 C 0.80069 0.22336 0.75121 0.0
C921 C 0.79602 0.20058 0.75727 0.0
C922 C 0.79057 0.23923 0.78363 0.0
C923 C 0.77572 0.23264 0.82305 0.0
C924 C 0.77077 0.20996 0.82857 0.0
H925 H 0.72737 0.31048 0.0892 0.0
H926 H 0.74589 0.2838 0.03136 0.0
C927 C 0.78081 0.19412 0.79613 0.0
C928 C 0.765 0.24931 0.85806 0.0
H929 H 0.77514 0.29004 0.94916 0.0
C930 C 0.74214 0.25042 0.85877 0.0
C931 C 0.77704 0.26353 0.89174 0.0
C932 C 0.80155 0.26232 0.89502 0.0
C933 C 0.73101 0.2655 0.89166 0.0
C934 C 0.74307 0.28022 0.92407 0.0
C935 C 0.76592 0.27892 0.92391 0.0
C936 C 0.73224 0.29686 0.95892 0.0
C937 C 0.70643 0.26519 0.89221 0.0
C938 C 0.71872 0.31336 0.93745 0.0
C939 C 0.70813 0.32866 0.97041 0.0
C940 C 0.71098 0.32793 0.02563 0.0
C941 C 0.72494 0.31168 0.04691 0.0
C942 C 0.73548 0.29634 0.01389 0.0
H943 H 0.69988 0.24926 0.87661 0.0
H944 H 0.69998 0.26774 0.93287 0.0
H945 H 0.70025 0.27883 0.86679 0.0
H946 H 0.71639 0.31446 0.89508 0.0
H947 H 0.69787 0.34117 0.95252 0.0
H948 H 0.19775 0.78899 0.21632 0.0
H949 H 0.21481 0.76172 0.27477 0.0
H950 H 0.24158 0.81485 0.36906 0.0
H951 H 0.2251 0.84222 0.30992 0.0
H952 H 0.27136 0.78374 0.35173 0.0
H953 H 0.19551 0.74282 0.41996 0.0
H954 H 0.19823 0.74239 0.3493 0.0
H955 H 0.19538 0.76856 0.38327 0.0
C956 C 0.20722 0.79488 0.24957 0.0
C957 C 0.20998 0.8178 0.2585 0.0
C958 C 0.21684 0.77925 0.28325 0.0
C959 C 0.22911 0.78618 0.32711 0.0
C960 C 0.23208 0.80906 0.33572 0.0
H961 H 0.2694 0.69724 0.58274 0.0
H962 H 0.25191 0.7261 0.53014 0.0
C963 C 0.22265 0.82471 0.30179 0.0
C964 C 0.23942 0.76963 0.36304 0.0
H965 H 0.22882 0.72408 0.43992 0.0
C966 C 0.26201 0.77078 0.37125 0.0
C967 C 0.22722 0.75295 0.38943 0.0
C968 C 0.20272 0.75171 0.38554 0.0
C969 C 0.2728 0.75544 0.40391 0.0
C970 C 0.26077 0.73803 0.42797 0.0
C971 C 0.2381 0.73722 0.42094 0.0
C972 C 0.27146 0.72039 0.46007 0.0
C973 C 0.29693 0.7583 0.4129 0.0
C974 C 0.28807 0.70726 0.43811 0.0
C975 C 0.29837 0.6909 0.4683 0.0
C976 C 0.29209 0.6869 0.52118 0.0
C977 C 0.27504 0.69981 0.54266 0.0
C978 C 0.26485 0.71633 0.51243 0.0
H979 H 0.30213 0.77579 0.40617 0.0
H980 H 0.30156 0.75341 0.45371 0.0
H981 H 0.30603 0.74765 0.38459 0.0
H982 H 0.29312 0.70966 0.39741 0.0
H983 H 0.31145 0.68163 0.44998 0.0
loop_
_geom_bond_atom_site_label_1
_geom_bond_atom_site_label_2
_geom_bond_distance
_geom_bond_site_symmetry_2
_ccdc_geom_bond_type
Co0 N4 2.148 . S
Co0 N10 2.128 . S
Co0 N20 2.194 . S
Co0 O25 2.351 . S
Co0 O26 2.155 . S
Co0 O27 2.096 . S
C1 N4 1.301 . S
C1 N5 1.328 . S
C1 H6 0.930 . S
C2 C3 1.333 . S
C2 N4 1.317 . S
C2 H7 0.930 . S
C3 C2 1.333 . S
C3 N5 1.350 . S
C3 H29 0.931 . S
N4 Co0 2.148 . S
N4 C1 1.301 . S
N4 C2 1.317 . S
N5 C1 1.328 . S
N5 C3 1.350 . S
H6 C1 0.930 . S
H7 C2 0.930 . S
C8 O9 1.224 . S
C8 O27 1.247 . S
O9 C8 1.224 . S
N10 Co0 2.128 . S
N10 C11 1.355 . S
N10 C13 1.311 . S
C11 N10 1.355 . S
C11 C12 1.363 . S
C11 H23 0.929 . S
C12 C11 1.363 . S
C12 N14 1.375 . S
C12 H30 0.931 . S
C13 N10 1.311 . S
C13 N14 1.347 . S
C13 H24 0.929 . S
N14 C12 1.375 . S
N14 C13 1.347 . S
C15 C18 1.365 . S
C15 N20 1.328 . S
C15 H21 0.929 . S
C16 C17 1.362 . S
C16 C19 1.378 . S
C16 H31 0.929 . S
C17 C16 1.362 . S
C17 C18 1.366 . S
C18 C15 1.365 . S
C18 C17 1.366 . S
C18 H32 0.930 . S
C19 C16 1.378 . S
C19 N20 1.315 . S
C19 H22 0.930 . S
N20 Co0 2.194 . S
N20 C15 1.328 . S
N20 C19 1.315 . S
H21 C15 0.929 . S
H22 C19 0.930 . S
H23 C11 0.929 . S
H24 C13 0.929 . S
O25 Co0 2.351 . S
O25 C28 1.244 . S
O26 Co0 2.155 . S
O26 C28 1.240 . S
O27 Co0 2.096 . S
O27 C8 1.247 . S
C28 O25 1.244 . S
C28 O26 1.240 . S
H29 C3 0.931 . S
H30 C12 0.931 . S
H31 C16 0.929 . S
H32 C18 0.930 . S
Co33 N37 2.148 . S
Co33 N43 2.128 . S
Co33 N53 2.194 . S
Co33 O58 2.351 . S
Co33 O59 2.155 . S
Co33 O60 2.096 . S
C34 N37 1.301 . S
C34 N38 1.328 . S
C34 H39 0.930 . S
C35 C36 1.333 . S
C35 N37 1.317 . S
C35 H40 0.930 . S
C36 C35 1.333 . S
C36 N38 1.350 . S
C36 H62 0.931 . S
N37 Co33 2.148 . S
N37 C34 1.301 . S
N37 C35 1.317 . S
N38 C34 1.328 . S
N38 C36 1.350 . S
H39 C34 0.930 . S
H40 C35 0.930 . S
C41 O42 1.224 . S
C41 O60 1.247 . S
O42 C41 1.224 . S
N43 Co33 2.128 . S
N43 C44 1.355 . S
N43 C46 1.311 . S
C44 N43 1.355 . S
C44 C45 1.363 . S
C44 H56 0.929 . S
C45 C44 1.363 . S
C45 N47 1.375 . S
C45 H63 0.931 . S
C46 N43 1.311 . S
C46 N47 1.347 . S
C46 H57 0.929 . S
N47 C45 1.375 . S
N47 C46 1.347 . S
C48 C51 1.365 . S
C48 N53 1.328 . S
C48 H54 0.929 . S
C49 C50 1.362 . S
C49 C52 1.378 . S
C49 H64 0.929 . S
C50 C49 1.362 . S
C50 C51 1.366 . S
C51 C48 1.365 . S
C51 C50 1.366 . S
C51 H65 0.930 . S
C52 C49 1.378 . S
C52 N53 1.315 . S
C52 H55 0.930 . S
N53 Co33 2.194 . S
N53 C48 1.328 . S
N53 C52 1.315 . S
H54 C48 0.929 . S
H55 C52 0.930 . S
H56 C44 0.929 . S
H57 C46 0.929 . S
O58 Co33 2.351 . S
O58 C61 1.244 . S
O59 Co33 2.155 . S
O59 C61 1.240 . S
O60 Co33 2.096 . S
O60 C41 1.247 . S
C61 O58 1.244 . S
C61 O59 1.240 . S
H62 C36 0.931 . S
H63 C45 0.931 . S
H64 C49 0.929 . S
H65 C51 0.930 . S
Co66 N70 2.148 . S
Co66 N76 2.128 . S
Co66 N86 2.194 . S
Co66 O91 2.351 . S
Co66 O92 2.155 . S
Co66 O93 2.096 . S
C67 N70 1.301 . S
C67 N71 1.328 . S
C67 H72 0.930 . S
C68 C69 1.333 . S
C68 N70 1.317 . S
C68 H73 0.930 . S
C69 C68 1.333 . S
C69 N71 1.350 . S
C69 H95 0.931 . S
N70 Co66 2.148 . S
N70 C67 1.301 . S
N70 C68 1.317 . S
N71 C67 1.328 . S
N71 C69 1.350 . S
H72 C67 0.930 . S
H73 C68 0.930 . S
C74 O75 1.224 . S
C74 O93 1.247 . S
O75 C74 1.224 . S
N76 Co66 2.128 . S
N76 C77 1.355 . S
N76 C79 1.311 . S
C77 N76 1.355 . S
C77 C78 1.363 . S
C77 H89 0.929 . S
C78 C77 1.363 . S
C78 N80 1.375 . S
C78 H96 0.931 . S
C79 N76 1.311 . S
C79 N80 1.347 . S
C79 H90 0.929 . S
N80 C78 1.375 . S
N80 C79 1.347 . S
C81 C84 1.365 . S
C81 N86 1.328 . S
C81 H87 0.929 . S
C82 C83 1.362 . S
C82 C85 1.378 . S
C82 H97 0.929 . S
C83 C82 1.362 . S
C83 C84 1.366 . S
C84 C81 1.365 . S
C84 C83 1.366 . S
C84 H98 0.930 . S
C85 C82 1.378 . S
C85 N86 1.315 . S
C85 H88 0.930 . S
N86 Co66 2.194 . S
N86 C81 1.328 . S
N86 C85 1.315 . S
H87 C81 0.929 . S
H88 C85 0.930 . S
H89 C77 0.929 . S
H90 C79 0.929 . S
O91 Co66 2.351 . S
O91 C94 1.244 . S
O92 Co66 2.155 . S
O92 C94 1.240 . S
O93 Co66 2.096 . S
O93 C74 1.247 . S
C94 O91 1.244 . S
C94 O92 1.240 . S
H95 C69 0.931 . S
H96 C78 0.931 . S
H97 C82 0.929 . S
H98 C84 0.930 . S
Co99 N103 2.148 . S
Co99 N109 2.128 . S
Co99 N119 2.194 . S
Co99 O124 2.351 . S
Co99 O125 2.155 . S
Co99 O126 2.096 . S
C100 N103 1.301 . S
C100 N104 1.328 . S
C100 H105 0.930 . S
C101 C102 1.333 . S
C101 N103 1.317 . S
C101 H106 0.930 . S
C102 C101 1.333 . S
C102 N104 1.350 . S
C102 H128 0.931 . S
N103 Co99 2.148 . S
N103 C100 1.301 . S
N103 C101 1.317 . S
N104 C100 1.328 . S
N104 C102 1.350 . S
H105 C100 0.930 . S
H106 C101 0.930 . S
C107 O108 1.224 . S
C107 O126 1.247 . S
O108 C107 1.224 . S
N109 Co99 2.128 . S
N109 C110 1.355 . S
N109 C112 1.311 . S
C110 N109 1.355 . S
C110 C111 1.363 . S
C110 H122 0.929 . S
C111 C110 1.363 . S
C111 N113 1.375 . S
C111 H129 0.931 . S
C112 N109 1.311 . S
C112 N113 1.347 . S
C112 H123 0.929 . S
N113 C111 1.375 . S
N113 C112 1.347 . S
C114 C117 1.365 . S
C114 N119 1.328 . S
C114 H120 0.929 . S
C115 C116 1.362 . S
C115 C118 1.378 . S
C115 H130 0.929 . S
C116 C115 1.362 . S
C116 C117 1.366 . S
C117 C114 1.365 . S
C117 C116 1.366 . S
C117 H131 0.930 . S
C118 C115 1.378 . S
C118 N119 1.315 . S
C118 H121 0.930 . S
N119 Co99 2.194 . S
N119 C114 1.328 . S
N119 C118 1.315 . S
H120 C114 0.929 . S
H121 C118 0.930 . S
H122 C110 0.929 . S
H123 C112 0.929 . S
O124 Co99 2.351 . S
O124 C127 1.244 . S
O125 Co99 2.155 . S
O125 C127 1.240 . S
O126 Co99 2.096 . S
O126 C107 1.247 . S
C127 O124 1.244 . S
C127 O125 1.240 . S
H128 C102 0.931 . S
H129 C111 0.931 . S
H130 C115 0.929 . S
H131 C117 0.930 . S
Co132 N136 2.148 . S
Co132 N142 2.128 . S
Co132 N152 2.194 . S
Co132 O157 2.351 . S
Co132 O158 2.155 . S
Co132 O159 2.096 . S
C133 N136 1.301 . S
C133 N137 1.328 . S
C133 H138 0.930 . S
C134 C135 1.333 . S
C134 N136 1.317 . S
C134 H139 0.930 . S
C135 C134 1.333 . S
C135 N137 1.350 . S
C135 H161 0.931 . S
N136 Co132 2.148 . S
N136 C133 1.301 . S
N136 C134 1.317 . S
N137 C133 1.328 . S
N137 C135 1.350 . S
H138 C133 0.930 . S
H139 C134 0.930 . S
C140 O141 1.224 . S
C140 O159 1.247 . S
O141 C140 1.224 . S
N142 Co132 2.128 . S
N142 C143 1.355 . S
N142 C145 1.311 . S
C143 N142 1.355 . S
C143 C144 1.363 . S
C143 H155 0.929 . S
C144 C143 1.363 . S
C144 N146 1.375 . S
C144 H162 0.931 . S
C145 N142 1.311 . S
C145 N146 1.347 . S
C145 H156 0.929 . S
N146 C144 1.375 . S
N146 C145 1.347 . S
C147 C150 1.365 . S
C147 N152 1.328 . S
C147 H153 0.929 . S
C148 C149 1.362 . S
C148 C151 1.378 . S
C148 H163 0.929 . S
C149 C148 1.362 . S
C149 C150 1.366 . S
C150 C147 1.365 . S
C150 C149 1.366 . S
C150 H164 0.930 . S
C151 C148 1.378 . S
C151 N152 1.315 . S
C151 H154 0.930 . S
N152 Co132 2.194 . S
N152 C147 1.328 . S
N152 C151 1.315 . S
H153 C147 0.929 . S
H154 C151 0.930 . S
H155 C143 0.929 . S
H156 C145 0.929 . S
O157 Co132 2.351 . S
O157 C160 1.244 . S
O158 Co132 2.155 . S
O158 C160 1.240 . S
O159 Co132 2.096 . S
O159 C140 1.247 . S
C160 O157 1.244 . S
C160 O158 1.240 . S
H161 C135 0.931 . S
H162 C144 0.931 . S
H163 C148 0.929 . S
H164 C150 0.930 . S
Co165 N169 2.148 . S
Co165 N175 2.128 . S
Co165 N185 2.194 . S
Co165 O190 2.351 . S
Co165 O191 2.155 . S
Co165 O192 2.096 . S
C166 N169 1.301 . S
C166 N170 1.328 . S
C166 H171 0.930 . S
C167 C168 1.333 . S
C167 N169 1.317 . S
C167 H172 0.930 . S
C168 C167 1.333 . S
C168 N170 1.350 . S
C168 H194 0.931 . S
N169 Co165 2.148 . S
N169 C166 1.301 . S
N169 C167 1.317 . S
N170 C166 1.328 . S
N170 C168 1.350 . S
H171 C166 0.930 . S
H172 C167 0.930 . S
C173 O174 1.224 . S
C173 O192 1.247 . S
O174 C173 1.224 . S
N175 Co165 2.128 . S
N175 C176 1.355 . S
N175 C178 1.311 . S
C176 N175 1.355 . S
C176 C177 1.363 . S
C176 H188 0.929 . S
C177 C176 1.363 . S
C177 N179 1.375 . S
C177 H195 0.931 . S
C178 N175 1.311 . S
C178 N179 1.347 . S
C178 H189 0.929 . S
N179 C177 1.375 . S
N179 C178 1.347 . S
C180 C183 1.365 . S
C180 N185 1.328 . S
C180 H186 0.929 . S
C181 C182 1.362 . S
C181 C184 1.378 . S
C181 H196 0.929 . S
C182 C181 1.362 . S
C182 C183 1.366 . S
C183 C180 1.365 . S
C183 C182 1.366 . S
C183 H197 0.930 . S
C184 C181 1.378 . S
C184 N185 1.315 . S
C184 H187 0.930 . S
N185 Co165 2.194 . S
N185 C180 1.328 . S
N185 C184 1.315 . S
H186 C180 0.929 . S
H187 C184 0.930 . S
H188 C176 0.929 . S
H189 C178 0.929 . S
O190 Co165 2.351 . S
O190 C193 1.244 . S
O191 Co165 2.155 . S
O191 C193 1.240 . S
O192 Co165 2.096 . S
O192 C173 1.247 . S
C193 O190 1.244 . S
C193 O191 1.240 . S
H194 C168 0.931 . S
H195 C177 0.931 . S
H196 C181 0.929 . S
H197 C183 0.930 . S
Co198 N202 2.148 . S
Co198 N208 2.128 . S
Co198 N218 2.194 . S
Co198 O223 2.351 . S
Co198 O224 2.155 . S
Co198 O225 2.096 . S
C199 N202 1.301 . S
C199 N203 1.328 . S
C199 H204 0.930 . S
C200 C201 1.333 . S
C200 N202 1.317 . S
C200 H205 0.930 . S
C201 C200 1.333 . S
C201 N203 1.350 . S
C201 H227 0.931 . S
N202 Co198 2.148 . S
N202 C199 1.301 . S
N202 C200 1.317 . S
N203 C199 1.328 . S
N203 C201 1.350 . S
H204 C199 0.930 . S
H205 C200 0.930 . S
C206 O207 1.224 . S
C206 O225 1.247 . S
O207 C206 1.224 . S
N208 Co198 2.128 . S
N208 C209 1.355 . S
N208 C211 1.311 . S
C209 N208 1.355 . S
C209 C210 1.363 . S
C209 H221 0.929 . S
C210 C209 1.363 . S
C210 N212 1.375 . S
C210 H228 0.931 . S
C211 N208 1.311 . S
C211 N212 1.347 . S
C211 H222 0.929 . S
N212 C210 1.375 . S
N212 C211 1.347 . S
C213 C216 1.365 . S
C213 N218 1.328 . S
C213 H219 0.929 . S
C214 C215 1.362 . S
C214 C217 1.378 . S
C214 H229 0.929 . S
C215 C214 1.362 . S
C215 C216 1.366 . S
C216 C213 1.365 . S
C216 C215 1.366 . S
C216 H230 0.930 . S
C217 C214 1.378 . S
C217 N218 1.315 . S
C217 H220 0.930 . S
N218 Co198 2.194 . S
N218 C213 1.328 . S
N218 C217 1.315 . S
H219 C213 0.929 . S
H220 C217 0.930 . S
H221 C209 0.929 . S
H222 C211 0.929 . S
O223 Co198 2.351 . S
O223 C226 1.244 . S
O224 Co198 2.155 . S
O224 C226 1.240 . S
O225 Co198 2.096 . S
O225 C206 1.247 . S
C226 O223 1.244 . S
C226 O224 1.240 . S
H227 C201 0.931 . S
H228 C210 0.931 . S
H229 C214 0.929 . S
H230 C216 0.930 . S
Co231 N235 2.148 . S
Co231 N241 2.128 . S
Co231 N251 2.194 . S
Co231 O256 2.351 . S
Co231 O257 2.155 . S
Co231 O258 2.096 . S
C232 N235 1.301 . S
C232 N236 1.328 . S
C232 H237 0.930 . S
C233 C234 1.333 . S
C233 N235 1.317 . S
C233 H238 0.930 . S
C234 C233 1.333 . S
C234 N236 1.350 . S
C234 H260 0.931 . S
N235 Co231 2.148 . S
N235 C232 1.301 . S
N235 C233 1.317 . S
N236 C232 1.328 . S
N236 C234 1.350 . S
H237 C232 0.930 . S
H238 C233 0.930 . S
C239 O240 1.224 . S
C239 O258 1.247 . S
O240 C239 1.224 . S
N241 Co231 2.128 . S
N241 C242 1.355 . S
N241 C244 1.311 . S
C242 N241 1.355 . S
C242 C243 1.363 . S
C242 H254 0.929 . S
C243 C242 1.363 . S
C243 N245 1.375 . S
C243 H261 0.931 . S
C244 N241 1.311 . S
C244 N245 1.347 . S
C244 H255 0.929 . S
N245 C243 1.375 . S
N245 C244 1.347 . S
C246 C249 1.365 . S
C246 N251 1.328 . S
C246 H252 0.929 . S
C247 C248 1.362 . S
C247 C250 1.378 . S
C247 H262 0.929 . S
C248 C247 1.362 . S
C248 C249 1.366 . S
C249 C246 1.365 . S
C249 C248 1.366 . S
C249 H263 0.930 . S
C250 C247 1.378 . S
C250 N251 1.315 . S
C250 H253 0.930 . S
N251 Co231 2.194 . S
N251 C246 1.328 . S
N251 C250 1.315 . S
H252 C246 0.929 . S
H253 C250 0.930 . S
H254 C242 0.929 . S
H255 C244 0.929 . S
O256 Co231 2.351 . S
O256 C259 1.244 . S
O257 Co231 2.155 . S
O257 C259 1.240 . S
O258 Co231 2.096 . S
O258 C239 1.247 . S
C259 O256 1.244 . S
C259 O257 1.240 . S
H260 C234 0.931 . S
H261 C243 0.931 . S
H262 C247 0.929 . S
H263 C249 0.930 . S
H264 C272 0.929 . S
H265 C274 0.930 . S
H266 C276 0.930 . S
H267 C279 0.929 . S
H268 C282 0.930 . S
H269 C284 0.960 . S
H270 C284 0.960 . S
H271 C284 0.960 . S
C272 H264 0.929 . S
C272 C273 1.377 . S
C272 C274 1.384 . S
C273 C272 1.377 . S
C273 C279 1.390 . S
C274 H265 0.930 . S
C274 C272 1.384 . S
C274 C275 1.372 . S
C275 C274 1.372 . S
C275 C276 1.400 . S
C275 C280 1.490 . S
C276 H266 0.930 . S
C276 C275 1.400 . S
C276 C279 1.386 . S
H277 C293 0.930 . S
H278 C294 0.931 . S
C279 H267 0.929 . S
C279 C273 1.390 . S
C279 C276 1.386 . S
C280 C275 1.490 . S
C280 C282 1.395 . S
C280 C283 1.403 . S
H281 C287 0.930 . S
C282 H268 0.930 . S
C282 C280 1.395 . S
C282 C285 1.403 . S
C283 C280 1.403 . S
C283 C284 1.524 . S
C283 C287 1.400 . S
C284 H269 0.960 . S
C284 H270 0.960 . S
C284 H271 0.960 . S
C284 C283 1.524 . S
C285 C282 1.403 . S
C285 C286 1.392 . S
C285 C289 1.495 . S
C286 C285 1.392 . S
C286 C287 1.385 . S
C286 C288 1.478 . S
C287 H281 0.930 . S
C287 C283 1.400 . S
C287 C286 1.385 . S
C288 C286 1.478 . S
C288 C290 1.381 . S
C288 C294 1.383 . S
C289 C285 1.495 . S
C289 H295 0.959 . S
C289 H296 0.961 . S
C289 H297 0.960 . S
C290 C288 1.381 . S
C290 C291 1.394 . S
C290 H298 0.930 . S
C291 C290 1.394 . S
C291 C292 1.383 . S
C291 H299 0.929 . S
C292 C291 1.383 . S
C292 C293 1.377 . S
C293 H277 0.930 . S
C293 C292 1.377 . S
C293 C294 1.379 . S
C294 H278 0.931 . S
C294 C288 1.383 . S
C294 C293 1.379 . S
H295 C289 0.959 . S
H296 C289 0.961 . S
H297 C289 0.960 . S
H298 C290 0.930 . S
H299 C291 0.929 . S
H300 C308 0.929 . S
H301 C310 0.930 . S
H302 C312 0.930 . S
H303 C315 0.929 . S
H304 C318 0.930 . S
H305 C320 0.960 . S
H306 C320 0.960 . S
H307 C320 0.960 . S
C308 H300 0.929 . S
C308 C309 1.377 . S
C308 C310 1.384 . S
C309 C308 1.377 . S
C309 C315 1.390 . S
C310 H301 0.930 . S
C310 C308 1.384 . S
C310 C311 1.372 . S
C311 C310 1.372 . S
C311 C312 1.400 . S
C311 C316 1.490 . S
C312 H302 0.930 . S
C312 C311 1.400 . S
C312 C315 1.386 . S
H313 C329 0.930 . S
H314 C330 0.931 . S
C315 H303 0.929 . S
C315 C309 1.390 . S
C315 C312 1.386 . S
C316 C311 1.490 . S
C316 C318 1.395 . S
C316 C319 1.403 . S
H317 C323 0.930 . S
C318 H304 0.930 . S
C318 C316 1.395 . S
C318 C321 1.403 . S
C319 C316 1.403 . S
C319 C320 1.524 . S
C319 C323 1.400 . S
C320 H305 0.960 . S
C320 H306 0.960 . S
C320 H307 0.960 . S
C320 C319 1.524 . S
C321 C318 1.403 . S
C321 C322 1.392 . S
C321 C325 1.495 . S
C322 C321 1.392 . S
C322 C323 1.385 . S
C322 C324 1.478 . S
C323 H317 0.930 . S
C323 C319 1.400 . S
C323 C322 1.385 . S
C324 C322 1.478 . S
C324 C326 1.381 . S
C324 C330 1.383 . S
C325 C321 1.495 . S
C325 H331 0.959 . S
C325 H332 0.961 . S
C325 H333 0.960 . S
C326 C324 1.381 . S
C326 C327 1.394 . S
C326 H334 0.930 . S
C327 C326 1.394 . S
C327 C328 1.383 . S
C327 H335 0.929 . S
C328 C327 1.383 . S
C328 C329 1.377 . S
C329 H313 0.930 . S
C329 C328 1.377 . S
C329 C330 1.379 . S
C330 H314 0.931 . S
C330 C324 1.383 . S
C330 C329 1.379 . S
H331 C325 0.959 . S
H332 C325 0.961 . S
H333 C325 0.960 . S
H334 C326 0.930 . S
H335 C327 0.929 . S
H336 C344 0.929 . S
H337 C346 0.930 . S
H338 C348 0.930 . S
H339 C351 0.929 . S
H340 C354 0.930 . S
H341 C356 0.960 . S
H342 C356 0.960 . S
H343 C356 0.960 . S
C344 H336 0.929 . S
C344 C345 1.377 . S
C344 C346 1.384 . S
C345 C344 1.377 . S
C345 C351 1.390 . S
C346 H337 0.930 . S
C346 C344 1.384 . S
C346 C347 1.372 . S
C347 C346 1.372 . S
C347 C348 1.400 . S
C347 C352 1.490 . S
C348 H338 0.930 . S
C348 C347 1.400 . S
C348 C351 1.386 . S
H349 C365 0.930 . S
H350 C366 0.931 . S
C351 H339 0.929 . S
C351 C345 1.390 . S
C351 C348 1.386 . S
C352 C347 1.490 . S
C352 C354 1.395 . S
C352 C355 1.403 . S
H353 C359 0.930 . S
C354 H340 0.930 . S
C354 C352 1.395 . S
C354 C357 1.403 1_455 S
C355 C352 1.403 . S
C355 C356 1.524 . S
C355 C359 1.400 1_455 S
C356 H341 0.960 . S
C356 H342 0.960 . S
C356 H343 0.960 . S
C356 C355 1.524 . S
C357 C354 1.403 1_655 S
C357 C358 1.392 . S
C357 C361 1.495 . S
C358 C357 1.392 . S
C358 C359 1.385 . S
C358 C360 1.478 . S
C359 H353 0.930 . S
C359 C355 1.400 1_655 S
C359 C358 1.385 . S
C360 C358 1.478 . S
C360 C362 1.381 . S
C360 C366 1.383 . S
C361 C357 1.495 . S
C361 H367 0.959 . S
C361 H368 0.961 . S
C361 H369 0.960 . S
C362 C360 1.381 . S
C362 C363 1.394 . S
C362 H370 0.930 . S
C363 C362 1.394 . S
C363 C364 1.383 . S
C363 H371 0.929 . S
C364 C363 1.383 . S
C364 C365 1.377 . S
C365 H349 0.930 . S
C365 C364 1.377 . S
C365 C366 1.379 . S
C366 H350 0.931 . S
C366 C360 1.383 . S
C366 C365 1.379 . S
H367 C361 0.959 . S
H368 C361 0.961 . S
H369 C361 0.960 . S
H370 C362 0.930 . S
H371 C363 0.929 . S
H372 C380 0.929 . S
H373 C382 0.930 . S
H374 C384 0.930 . S
H375 C387 0.929 . S
H376 C390 0.930 . S
H377 C392 0.960 . S
H378 C392 0.960 . S
H379 C392 0.960 . S
C380 H372 0.929 . S
C380 C381 1.377 . S
C380 C382 1.384 . S
C381 C380 1.377 . S
C381 C387 1.390 . S
C382 H373 0.930 . S
C382 C380 1.384 . S
C382 C383 1.372 . S
C383 C382 1.372 . S
C383 C384 1.400 . S
C383 C388 1.490 . S
C384 H374 0.930 . S
C384 C383 1.400 . S
C384 C387 1.386 . S
H385 C401 0.930 . S
H386 C402 0.931 . S
C387 H375 0.929 . S
C387 C381 1.390 . S
C387 C384 1.386 . S
C388 C383 1.490 . S
C388 C390 1.395 . S
C388 C391 1.403 . S
H389 C395 0.930 . S
C390 H376 0.930 . S
C390 C388 1.395 . S
C390 C393 1.403 1_455 S
C391 C388 1.403 . S
C391 C392 1.524 . S
C391 C395 1.400 1_455 S
C392 H377 0.960 . S
C392 H378 0.960 . S
C392 H379 0.960 . S
C392 C391 1.524 . S
C393 C390 1.403 1_655 S
C393 C394 1.392 . S
C393 C397 1.495 . S
C394 C393 1.392 . S
C394 C395 1.385 . S
C394 C396 1.478 . S
C395 H389 0.930 . S
C395 C391 1.400 1_655 S
C395 C394 1.385 . S
C396 C394 1.478 . S
C396 C398 1.381 . S
C396 C402 1.383 . S
C397 C393 1.495 . S
C397 H403 0.959 . S
C397 H404 0.961 . S
C397 H405 0.960 . S
C398 C396 1.381 . S
C398 C399 1.394 . S
C398 H406 0.930 . S
C399 C398 1.394 . S
C399 C400 1.383 . S
C399 H407 0.929 . S
C400 C399 1.383 . S
C400 C401 1.377 . S
C401 H385 0.930 . S
C401 C400 1.377 . S
C401 C402 1.379 . S
C402 H386 0.931 . S
C402 C396 1.383 . S
C402 C401 1.379 . S
H403 C397 0.959 . S
H404 C397 0.961 . S
H405 C397 0.960 . S
H406 C398 0.930 . S
H407 C399 0.929 . S
H408 C416 0.929 . S
H409 C418 0.930 . S
H410 C420 0.930 . S
H411 C423 0.929 . S
H412 C426 0.930 . S
H413 C428 0.960 . S
H414 C428 0.960 . S
H415 C428 0.960 . S
C416 H408 0.929 . S
C416 C417 1.377 . S
C416 C418 1.384 . S
C417 C416 1.377 . S
C417 C423 1.390 . S
C418 H409 0.930 . S
C418 C416 1.384 . S
C418 C419 1.372 . S
C419 C418 1.372 . S
C419 C420 1.400 . S
C419 C424 1.490 . S
C420 H410 0.930 . S
C420 C419 1.400 . S
C420 C423 1.386 . S
H421 C437 0.930 . S
H422 C438 0.931 . S
C423 H411 0.929 . S
C423 C417 1.390 . S
C423 C420 1.386 . S
C424 C419 1.490 . S
C424 C426 1.395 . S
C424 C427 1.403 1_556 S
H425 C431 0.930 . S
C426 H412 0.930 . S
C426 C424 1.395 . S
C426 C429 1.403 . S
C427 C424 1.403 1_554 S
C427 C428 1.524 . S
C427 C431 1.400 . S
C428 H413 0.960 . S
C428 H414 0.960 . S
C428 H415 0.960 . S
C428 C427 1.524 . S
C429 C426 1.403 . S
C429 C430 1.392 1_556 S
C429 C433 1.495 . S
C430 C429 1.392 1_554 S
C430 C431 1.385 . S
C430 C432 1.478 . S
C431 H425 0.930 . S
C431 C427 1.400 . S
C431 C430 1.385 . S
C432 C430 1.478 . S
C432 C434 1.381 . S
C432 C438 1.383 . S
C433 C429 1.495 . S
C433 H439 0.959 . S
C433 H440 0.961 . S
C433 H441 0.960 . S
C434 C432 1.381 . S
C434 C435 1.394 . S
C434 H442 0.930 . S
C435 C434 1.394 . S
C435 C436 1.383 . S
C435 H443 0.929 . S
C436 C435 1.383 . S
C436 C437 1.377 . S
C437 H421 0.930 . S
C437 C436 1.377 . S
C437 C438 1.379 . S
C438 H422 0.931 . S
C438 C432 1.383 . S
C438 C437 1.379 . S
H439 C433 0.959 . S
H440 C433 0.961 . S
H441 C433 0.960 . S
H442 C434 0.930 . S
H443 C435 0.929 . S
H444 C452 0.929 . S
H445 C454 0.930 . S
H446 C456 0.930 . S
H447 C459 0.929 . S
H448 C462 0.930 . S
H449 C464 0.960 . S
H450 C464 0.960 . S
H451 C464 0.960 . S
C452 H444 0.929 . S
C452 C453 1.377 . S
C452 C454 1.384 . S
C453 C452 1.377 . S
C453 C459 1.390 . S
C454 H445 0.930 . S
C454 C452 1.384 . S
C454 C455 1.372 . S
C455 C454 1.372 . S
C455 C456 1.400 . S
C455 C460 1.490 . S
C456 H446 0.930 . S
C456 C455 1.400 . S
C456 C459 1.386 . S
H457 C473 0.930 . S
H458 C474 0.931 . S
C459 H447 0.929 . S
C459 C453 1.390 . S
C459 C456 1.386 . S
C460 C455 1.490 . S
C460 C462 1.395 . S
C460 C463 1.403 . S
H461 C467 0.930 . S
C462 H448 0.930 . S
C462 C460 1.395 . S
C462 C465 1.403 . S
C463 C460 1.403 . S
C463 C464 1.524 . S
C463 C467 1.400 . S
C464 H449 0.960 . S
C464 H450 0.960 . S
C464 H451 0.960 . S
C464 C463 1.524 . S
C465 C462 1.403 . S
C465 C466 1.392 . S
C465 C469 1.495 . S
C466 C465 1.392 . S
C466 C467 1.385 . S
C466 C468 1.478 . S
C467 H461 0.930 . S
C467 C463 1.400 . S
C467 C466 1.385 . S
C468 C466 1.478 . S
C468 C470 1.381 . S
C468 C474 1.383 . S
C469 C465 1.495 . S
C469 H475 0.959 . S
C469 H476 0.961 . S
C469 H477 0.960 . S
C470 C468 1.381 . S
C470 C471 1.394 . S
C470 H478 0.930 . S
C471 C470 1.394 . S
C471 C472 1.383 . S
C471 H479 0.929 . S
C472 C471 1.383 . S
C472 C473 1.377 . S
C473 H457 0.930 . S
C473 C472 1.377 . S
C473 C474 1.379 . S
C474 H458 0.931 . S
C474 C468 1.383 . S
C474 C473 1.379 . S
H475 C469 0.959 . S
H476 C469 0.961 . S
H477 C469 0.960 . S
H478 C470 0.930 . S
H479 C471 0.929 . S
H480 C488 0.929 . S
H481 C490 0.930 . S
H482 C492 0.930 . S
H483 C495 0.929 . S
H484 C498 0.930 . S
H485 C500 0.964 . S
H486 C500 0.953 1_556 S
H487 C500 0.963 . S
C488 H480 0.929 . S
C488 C489 1.377 . S
C488 C490 1.384 . S
C489 C488 1.377 . S
C489 C495 1.390 . S
C490 H481 0.930 . S
C490 C488 1.384 . S
C490 C491 1.372 . S
C491 C490 1.372 . S
C491 C492 1.400 . S
C491 C496 1.490 . S
C492 H482 0.930 . S
C492 C491 1.400 . S
C492 C495 1.386 . S
H493 C509 0.930 . S
H494 C510 0.931 . S
C495 H483 0.929 . S
C495 C489 1.390 . S
C495 C492 1.386 . S
C496 C491 1.490 . S
C496 C498 1.395 . S
C496 C499 1.403 . S
H497 C503 0.930 . S
C498 H484 0.930 . S
C498 C496 1.395 . S
C498 C501 1.403 . S
C499 C496 1.403 . S
C499 C500 1.523 1_556 S
C499 C503 1.400 1_556 S
C500 H485 0.964 . S
C500 H486 0.953 1_554 S
C500 H487 0.963 . S
C500 C499 1.523 1_554 S
C501 C498 1.403 . S
C501 C502 1.392 1_556 S
C501 C505 1.495 . S
C502 C501 1.392 1_554 S
C502 C503 1.385 . S
C502 C504 1.478 . S
C503 H497 0.930 . S
C503 C499 1.400 1_554 S
C503 C502 1.385 . S
C504 C502 1.478 . S
C504 C506 1.381 . S
C504 C510 1.383 . S
C505 C501 1.495 . S
C505 H511 0.959 . S
C505 H512 0.961 1_556 S
C505 H513 0.960 . S
C506 C504 1.381 . S
C506 C507 1.394 . S
C506 H514 0.930 1_554 S
C507 C506 1.394 . S
C507 C508 1.383 . S
C507 H515 0.929 . S
C508 C507 1.383 . S
C508 C509 1.377 . S
C509 H493 0.930 . S
C509 C508 1.377 . S
C509 C510 1.379 . S
C510 H494 0.931 . S
C510 C504 1.383 . S
C510 C509 1.379 . S
H511 C505 0.959 . S
H512 C505 0.961 1_554 S
H513 C505 0.960 . S
H514 C506 0.930 1_556 S
H515 C507 0.929 . S
H516 C524 0.929 . S
H517 C526 0.930 . S
H518 C528 0.930 . S
H519 C531 0.929 . S
H520 C534 0.930 . S
H521 C536 0.960 . S
H522 C536 0.960 . S
H523 C536 0.960 . S
C524 H516 0.929 . S
C524 C525 1.377 . S
C524 C526 1.384 . S
C525 C524 1.377 . S
C525 C531 1.390 . S
C526 H517 0.930 . S
C526 C524 1.384 . S
C526 C527 1.372 . S
C527 C526 1.372 . S
C527 C528 1.400 . S
C527 C532 1.490 . S
C528 H518 0.930 . S
C528 C527 1.400 . S
C528 C531 1.386 . S
H529 C545 0.930 . S
H530 C546 0.931 . S
C531 H519 0.929 . S
C531 C525 1.390 . S
C531 C528 1.386 . S
C532 C527 1.490 . S
C532 C534 1.395 . S
C532 C535 1.403 . S
H533 C539 0.930 . S
C534 H520 0.930 . S
C534 C532 1.395 . S
C534 C537 1.403 . S
C535 C532 1.403 . S
C535 C536 1.524 . S
C535 C539 1.400 . S
C536 H521 0.960 . S
C536 H522 0.960 . S
C536 H523 0.960 . S
C536 C535 1.524 . S
C537 C534 1.403 . S
C537 C538 1.392 . S
C537 C541 1.495 . S
C538 C537 1.392 . S
C538 C539 1.385 . S
C538 C540 1.478 . S
C539 H533 0.930 . S
C539 C535 1.400 . S
C539 C538 1.385 . S
C540 C538 1.478 . S
C540 C542 1.381 . S
C540 C546 1.383 . S
C541 C537 1.495 . S
C541 H547 0.959 . S
C541 H548 0.961 . S
C541 H549 0.960 . S
C542 C540 1.381 . S
C542 C543 1.394 . S
C542 H550 0.930 . S
C543 C542 1.394 . S
C543 C544 1.383 . S
C543 H551 0.929 . S
C544 C543 1.383 . S
C544 C545 1.377 . S
C545 H529 0.930 . S
C545 C544 1.377 . S
C545 C546 1.379 . S
C546 H530 0.931 . S
C546 C540 1.383 . S
C546 C545 1.379 . S
H547 C541 0.959 . S
H548 C541 0.961 . S
H549 C541 0.960 . S
H550 C542 0.930 . S
H551 C543 0.929 . S
H552 C560 0.929 . S
H553 C562 0.930 . S
H554 C564 0.930 . S
H555 C567 0.929 . S
H556 C570 0.930 . S
H557 C572 0.960 . S
H558 C572 0.960 . S
H559 C572 0.960 . S
C560 H552 0.929 . S
C560 C561 1.377 . S
C560 C562 1.384 . S
C561 C560 1.377 . S
C561 C567 1.390 . S
C562 H553 0.930 . S
C562 C560 1.384 . S
C562 C563 1.372 . S
C563 C562 1.372 . S
C563 C564 1.400 . S
C563 C568 1.490 . S
C564 H554 0.930 . S
C564 C563 1.400 . S
C564 C567 1.386 . S
H565 C581 0.930 . S
H566 C582 0.931 . S
C567 H555 0.929 . S
C567 C561 1.390 . S
C567 C564 1.386 . S
C568 C563 1.490 . S
C568 C570 1.395 1_545 S
C568 C571 1.403 1_556 S
H569 C575 0.930 . S
C570 H556 0.930 . S
C570 C568 1.395 1_565 S
C570 C573 1.403 . S
C571 C568 1.403 1_554 S
C571 C572 1.524 . S
C571 C575 1.400 . S
C572 H557 0.960 . S
C572 H558 0.960 . S
C572 H559 0.960 . S
C572 C571 1.524 . S
C573 C570 1.403 . S
C573 C574 1.392 1_556 S
C573 C577 1.495 . S
C574 C573 1.392 1_554 S
C574 C575 1.385 1_565 S
C574 C576 1.478 . S
C575 H569 0.930 . S
C575 C571 1.400 . S
C575 C574 1.385 1_545 S
C576 C574 1.478 . S
C576 C578 1.381 . S
C576 C582 1.383 . S
C577 C573 1.495 . S
C577 H583 0.959 . S
C577 H584 0.961 . S
C577 H585 0.960 . S
C578 C576 1.381 . S
C578 C579 1.394 . S
C578 H586 0.930 . S
C579 C578 1.394 . S
C579 C580 1.383 . S
C579 H587 0.929 . S
C580 C579 1.383 . S
C580 C581 1.377 . S
C581 H565 0.930 . S
C581 C580 1.377 . S
C581 C582 1.379 . S
C582 H566 0.931 . S
C582 C576 1.383 . S
C582 C581 1.379 . S
H583 C577 0.959 . S
H584 C577 0.961 . S
H585 C577 0.960 . S
H586 C578 0.930 . S
H587 C579 0.929 . S
H588 C596 0.929 . S
H589 C598 0.930 . S
H590 C600 0.930 . S
H591 C603 0.929 . S
H592 C606 0.930 . S
H593 C608 0.960 . S
H594 C608 0.960 1_545 S
H595 C608 0.960 . S
C596 H588 0.929 . S
C596 C597 1.377 . S
C596 C598 1.384 . S
C597 C596 1.377 . S
C597 C603 1.390 . S
C598 H589 0.930 . S
C598 C596 1.384 . S
C598 C599 1.372 . S
C599 C598 1.372 . S
C599 C600 1.400 . S
C599 C604 1.490 . S
C600 H590 0.930 . S
C600 C599 1.400 . S
C600 C603 1.386 . S
H601 C617 0.930 . S
H602 C618 0.931 . S
C603 H591 0.929 . S
C603 C597 1.390 . S
C603 C600 1.386 . S
C604 C599 1.490 . S
C604 C606 1.395 . S
C604 C607 1.403 1_545 S
H605 C611 0.930 . S
C606 H592 0.930 . S
C606 C604 1.395 . S
C606 C609 1.403 . S
C607 C604 1.403 1_565 S
C607 C608 1.524 . S
C607 C611 1.400 . S
C608 H593 0.960 . S
C608 H594 0.960 1_565 S
C608 H595 0.960 . S
C608 C607 1.524 . S
C609 C606 1.403 . S
C609 C610 1.392 1_545 S
C609 C613 1.495 . S
C610 C609 1.392 1_565 S
C610 C611 1.385 . S
C610 C612 1.478 . S
C611 H605 0.930 . S
C611 C607 1.400 . S
C611 C610 1.385 . S
C612 C610 1.478 . S
C612 C614 1.381 . S
C612 C618 1.383 . S
C613 C609 1.495 . S
C613 H619 0.959 . S
C613 H620 0.961 . S
C613 H621 0.960 . S
C614 C612 1.381 . S
C614 C615 1.394 . S
C614 H622 0.930 . S
C615 C614 1.394 . S
C615 C616 1.383 . S
C615 H623 0.929 . S
C616 C615 1.383 . S
C616 C617 1.377 . S
C617 H601 0.930 . S
C617 C616 1.377 . S
C617 C618 1.379 . S
C618 H602 0.931 . S
C618 C612 1.383 . S
C618 C617 1.379 . S
H619 C613 0.959 . S
H620 C613 0.961 . S
H621 C613 0.960 . S
H622 C614 0.930 . S
H623 C615 0.929 . S
H624 C632 0.929 . S
H625 C634 0.930 . S
H626 C636 0.945 . S
H627 C639 0.929 . S
H628 C642 0.930 . S
H629 C644 0.960 . S
H630 C644 0.960 1_556 S
H631 C644 0.960 . S
C632 H624 0.929 . S
C632 C633 1.377 . S
C632 C634 1.384 . S
C633 C632 1.377 . S
C633 C639 1.390 . S
C634 H625 0.930 . S
C634 C632 1.384 . S
C634 C635 1.372 . S
C635 C634 1.372 . S
C635 C636 1.400 . S
C635 C640 1.490 . S
C636 H626 0.945 . S
C636 C635 1.400 . S
C636 C639 1.386 . S
H637 C653 0.930 . S
H638 C654 0.931 . S
C639 H627 0.929 . S
C639 C633 1.390 . S
C639 C636 1.386 . S
C640 C635 1.490 . S
C640 C642 1.395 . S
C640 C643 1.403 1_556 S
H641 C647 0.930 . S
C642 H628 0.930 . S
C642 C640 1.395 . S
C642 C645 1.403 1_545 S
C643 C640 1.403 1_554 S
C643 C644 1.524 . S
C643 C647 1.400 1_545 S
C644 H629 0.960 . S
C644 H630 0.960 1_554 S
C644 H631 0.960 . S
C644 C643 1.524 . S
C645 C642 1.403 1_565 S
C645 C646 1.392 1_556 S
C645 C649 1.495 . S
C646 C645 1.392 1_554 S
C646 C647 1.385 . S
C646 C648 1.478 . S
C647 H641 0.930 . S
C647 C643 1.400 1_565 S
C647 C646 1.385 . S
C648 C646 1.478 . S
C648 C650 1.381 . S
C648 C654 1.383 . S
C649 C645 1.495 . S
C649 H655 0.959 . S
C649 H656 0.961 1_556 S
C649 H657 0.960 . S
C650 C648 1.381 . S
C650 C651 1.394 . S
C650 H658 0.930 1_554 S
C651 C650 1.394 . S
C651 C652 1.383 . S
C651 H659 0.929 . S
C652 C651 1.383 . S
C652 C653 1.377 . S
C653 H637 0.930 . S
C653 C652 1.377 . S
C653 C654 1.379 . S
C654 H638 0.931 . S
C654 C648 1.383 . S
C654 C653 1.379 . S
H655 C649 0.959 . S
H656 C649 0.961 1_554 S
H657 C649 0.960 . S
H658 C650 0.930 1_556 S
H659 C651 0.929 . S
H660 C668 0.929 . S
H661 C670 0.930 . S
H662 C672 0.930 . S
H663 C675 0.929 . S
H664 C678 0.930 . S
H665 C680 0.960 . S
H666 C680 0.960 . S
H667 C680 0.960 . S
C668 H660 0.929 . S
C668 C669 1.377 . S
C668 C670 1.384 . S
C669 C668 1.377 . S
C669 C675 1.390 . S
C670 H661 0.930 . S
C670 C668 1.384 . S
C670 C671 1.372 . S
C671 C670 1.372 . S
C671 C672 1.400 . S
C671 C676 1.490 . S
C672 H662 0.930 . S
C672 C671 1.400 . S
C672 C675 1.386 . S
H673 C689 0.930 . S
H674 C690 0.931 . S
C675 H663 0.929 . S
C675 C669 1.390 . S
C675 C672 1.386 . S
C676 C671 1.490 . S
C676 C678 1.395 . S
C676 C679 1.403 . S
H677 C683 0.930 . S
C678 H664 0.930 . S
C678 C676 1.395 . S
C678 C681 1.403 1_545 S
C679 C676 1.403 . S
C679 C680 1.524 . S
C679 C683 1.400 1_545 S
C680 H665 0.960 . S
C680 H666 0.960 . S
C680 H667 0.960 . S
C680 C679 1.524 . S
C681 C678 1.403 1_565 S
C681 C682 1.392 . S
C681 C685 1.495 . S
C682 C681 1.392 . S
C682 C683 1.385 . S
C682 C684 1.478 . S
C683 H677 0.930 . S
C683 C679 1.400 1_565 S
C683 C682 1.385 . S
C684 C682 1.478 . S
C684 C686 1.381 . S
C684 C690 1.383 . S
C685 C681 1.495 . S
C685 H691 0.959 . S
C685 H692 0.961 . S
C685 H693 0.960 . S
C686 C684 1.381 . S
C686 C687 1.394 . S
C686 H694 0.930 . S
C687 C686 1.394 . S
C687 C688 1.383 . S
C687 H695 0.929 . S
C688 C687 1.383 . S
C688 C689 1.377 . S
C689 H673 0.930 . S
C689 C688 1.377 . S
C689 C690 1.379 . S
C690 H674 0.931 . S
C690 C684 1.383 . S
C690 C689 1.379 . S
H691 C685 0.959 . S
H692 C685 0.961 . S
H693 C685 0.960 . S
H694 C686 0.930 . S
H695 C687 0.929 . S
H696 C704 0.929 . S
H697 C706 0.930 . S
H698 C708 0.930 . S
H699 C711 0.929 . S
H700 C714 0.930 . S
H701 C716 0.960 . S
H702 C716 0.960 . S
H703 C716 0.960 . S
C704 H696 0.929 . S
C704 C705 1.377 . S
C704 C706 1.384 . S
C705 C704 1.377 . S
C705 C711 1.390 . S
C706 H697 0.930 . S
C706 C704 1.384 . S
C706 C707 1.372 . S
C707 C706 1.372 . S
C707 C708 1.400 . S
C707 C712 1.490 . S
C708 H698 0.930 . S
C708 C707 1.400 . S
C708 C711 1.386 . S
H709 C725 0.930 . S
H710 C726 0.931 1_554 S
C711 H699 0.929 . S
C711 C705 1.390 . S
C711 C708 1.386 . S
C712 C707 1.490 . S
C712 C714 1.395 . S
C712 C715 1.403 . S
H713 C719 0.930 . S
C714 H700 0.930 . S
C714 C712 1.395 . S
C714 C717 1.403 . S
C715 C712 1.403 . S
C715 C716 1.524 . S
C715 C719 1.400 . S
C716 H701 0.960 . S
C716 H702 0.960 . S
C716 H703 0.960 . S
C716 C715 1.524 . S
C717 C714 1.403 . S
C717 C718 1.392 . S
C717 C721 1.495 1_554 S
C718 C717 1.392 . S
C718 C719 1.385 . S
C718 C720 1.478 1_554 S
C719 H713 0.930 . S
C719 C715 1.400 . S
C719 C718 1.385 . S
C720 C718 1.478 1_556 S
C720 C722 1.381 . S
C720 C726 1.383 . S
C721 C717 1.495 1_556 S
C721 H727 0.959 . S
C721 H728 0.961 . S
C721 H729 0.960 . S
C722 C720 1.381 . S
C722 C723 1.394 . S
C722 H730 0.930 . S
C723 C722 1.394 . S
C723 C724 1.383 . S
C723 H731 0.929 . S
C724 C723 1.383 . S
C724 C725 1.377 . S
C725 H709 0.930 . S
C725 C724 1.377 . S
C725 C726 1.379 . S
C726 H710 0.931 1_556 S
C726 C720 1.383 . S
C726 C725 1.379 . S
H727 C721 0.959 . S
H728 C721 0.961 . S
H729 C721 0.960 . S
H730 C722 0.930 . S
H731 C723 0.929 . S
H732 C740 0.929 . S
H733 C742 0.930 . S
H734 C744 0.930 . S
H735 C747 0.929 . S
H736 C750 0.930 . S
H737 C752 0.960 . S
H738 C752 0.960 . S
H739 C752 0.960 . S
C740 H732 0.929 . S
C740 C741 1.377 . S
C740 C742 1.384 . S
C741 C740 1.377 . S
C741 C747 1.390 . S
C742 H733 0.930 . S
C742 C740 1.384 . S
C742 C743 1.372 . S
C743 C742 1.372 . S
C743 C744 1.400 . S
C743 C748 1.490 . S
C744 H734 0.930 . S
C744 C743 1.400 . S
C744 C747 1.386 . S
H745 C761 0.930 . S
H746 C762 0.931 . S
C747 H735 0.929 . S
C747 C741 1.390 . S
C747 C744 1.386 . S
C748 C743 1.490 . S
C748 C750 1.395 . S
C748 C751 1.403 . S
H749 C755 0.930 . S
C750 H736 0.930 . S
C750 C748 1.395 . S
C750 C753 1.403 . S
C751 C748 1.403 . S
C751 C752 1.524 . S
C751 C755 1.400 . S
C752 H737 0.960 . S
C752 H738 0.960 . S
C752 H739 0.960 . S
C752 C751 1.524 . S
C753 C750 1.403 . S
C753 C754 1.392 . S
C753 C757 1.495 . S
C754 C753 1.392 . S
C754 C755 1.385 . S
C754 C756 1.478 . S
C755 H749 0.930 . S
C755 C751 1.400 . S
C755 C754 1.385 . S
C756 C754 1.478 . S
C756 C758 1.381 . S
C756 C762 1.383 . S
C757 C753 1.495 . S
C757 H763 0.959 . S
C757 H764 0.961 . S
C757 H765 0.960 . S
C758 C756 1.381 . S
C758 C759 1.394 . S
C758 H766 0.930 . S
C759 C758 1.394 . S
C759 C760 1.383 . S
C759 H767 0.929 . S
C760 C759 1.383 . S
C760 C761 1.377 . S
C761 H745 0.930 . S
C761 C760 1.377 . S
C761 C762 1.379 . S
C762 H746 0.931 . S
C762 C756 1.383 . S
C762 C761 1.379 . S
H763 C757 0.959 . S
H764 C757 0.961 . S
H765 C757 0.960 . S
H766 C758 0.930 . S
H767 C759 0.929 . S
H768 C776 0.929 . S
H769 C778 0.930 . S
H770 C780 0.930 1_556 S
H771 C783 0.929 . S
H772 C786 0.930 1_554 S
H773 C788 0.960 . S
H774 C788 0.960 . S
H775 C788 0.960 . S
C776 H768 0.929 . S
C776 C777 1.377 . S
C776 C778 1.384 . S
C777 C776 1.377 . S
C777 C783 1.390 . S
C778 H769 0.930 . S
C778 C776 1.384 . S
C778 C779 1.372 . S
C779 C778 1.372 . S
C779 C780 1.400 . S
C779 C784 1.490 1_554 S
C780 H770 0.930 1_554 S
C780 C779 1.400 . S
C780 C783 1.386 . S
H781 C797 0.930 . S
H782 C798 0.931 . S
C783 H771 0.929 . S
C783 C777 1.390 . S
C783 C780 1.386 . S
C784 C779 1.490 1_556 S
C784 C786 1.395 . S
C784 C787 1.403 . S
H785 C791 0.930 . S
C786 H772 0.930 1_556 S
C786 C784 1.395 . S
C786 C789 1.403 . S
C787 C784 1.403 . S
C787 C788 1.524 . S
C787 C791 1.400 . S
C788 H773 0.960 . S
C788 H774 0.960 . S
C788 H775 0.960 . S
C788 C787 1.524 . S
C789 C786 1.403 . S
C789 C790 1.392 . S
C789 C793 1.495 . S
C790 C789 1.392 . S
C790 C791 1.385 . S
C790 C792 1.478 . S
C791 H785 0.930 . S
C791 C787 1.400 . S
C791 C790 1.385 . S
C792 C790 1.478 . S
C792 C794 1.381 . S
C792 C798 1.383 . S
C793 C789 1.495 . S
C793 H799 0.959 1_556 S
C793 H800 0.961 . S
C793 H801 0.960 . S
C794 C792 1.381 . S
C794 C795 1.394 . S
C794 H802 0.930 . S
C795 C794 1.394 . S
C795 C796 1.383 . S
C795 H803 0.929 . S
C796 C795 1.383 . S
C796 C797 1.377 . S
C797 H781 0.930 . S
C797 C796 1.377 . S
C797 C798 1.379 . S
C798 H782 0.931 . S
C798 C792 1.383 . S
C798 C797 1.379 . S
H799 C793 0.959 1_554 S
H800 C793 0.961 . S
H801 C793 0.960 . S
H802 C794 0.930 . S
H803 C795 0.929 . S
H804 C812 0.929 . S
H805 C814 0.930 . S
H806 C816 0.930 . S
H807 C819 0.929 . S
H808 C822 0.930 . S
H809 C824 0.960 . S
H810 C824 0.960 . S
H811 C824 0.960 . S
C812 H804 0.929 . S
C812 C813 1.377 . S
C812 C814 1.384 . S
C813 C812 1.377 . S
C813 C819 1.390 . S
C814 H805 0.930 . S
C814 C812 1.384 . S
C814 C815 1.372 . S
C815 C814 1.372 . S
C815 C816 1.400 . S
C815 C820 1.490 . S
C816 H806 0.930 . S
C816 C815 1.400 . S
C816 C819 1.386 . S
H817 C833 0.930 . S
H818 C834 0.931 . S
C819 H807 0.929 . S
C819 C813 1.390 . S
C819 C816 1.386 . S
C820 C815 1.490 . S
C820 C822 1.395 . S
C820 C823 1.403 . S
H821 C827 0.930 . S
C822 H808 0.930 . S
C822 C820 1.395 . S
C822 C825 1.403 . S
C823 C820 1.403 . S
C823 C824 1.524 . S
C823 C827 1.400 . S
C824 H809 0.960 . S
C824 H810 0.960 . S
C824 H811 0.960 . S
C824 C823 1.524 . S
C825 C822 1.403 . S
C825 C826 1.392 . S
C825 C829 1.495 . S
C826 C825 1.392 . S
C826 C827 1.385 . S
C826 C828 1.478 . S
C827 H821 0.930 . S
C827 C823 1.400 . S
C827 C826 1.385 . S
C828 C826 1.478 . S
C828 C830 1.381 . S
C828 C834 1.383 . S
C829 C825 1.495 . S
C829 H835 0.959 . S
C829 H836 0.961 . S
C829 H837 0.960 . S
C830 C828 1.381 . S
C830 C831 1.394 . S
C830 H838 0.930 . S
C831 C830 1.394 . S
C831 C832 1.383 . S
C831 H839 0.929 . S
C832 C831 1.383 . S
C832 C833 1.377 . S
C833 H817 0.930 . S
C833 C832 1.377 . S
C833 C834 1.379 . S
C834 H818 0.931 . S
C834 C828 1.383 . S
C834 C833 1.379 . S
H835 C829 0.959 . S
H836 C829 0.961 . S
H837 C829 0.960 . S
H838 C830 0.930 . S
H839 C831 0.929 . S
H840 C848 0.929 . S
H841 C850 0.930 . S
H842 C852 0.930 . S
H843 C855 0.929 . S
H844 C858 0.930 . S
H845 C860 0.960 . S
H846 C860 0.960 . S
H847 C860 0.960 . S
C848 H840 0.929 . S
C848 C849 1.377 . S
C848 C850 1.384 1_556 S
C849 C848 1.377 . S
C849 C855 1.390 . S
C850 H841 0.930 . S
C850 C848 1.384 1_554 S
C850 C851 1.372 1_554 S
C851 C850 1.372 1_556 S
C851 C852 1.400 . S
C851 C856 1.490 1_556 S
C852 H842 0.930 . S
C852 C851 1.400 . S
C852 C855 1.386 . S
H853 C869 0.930 . S
H854 C870 0.931 . S
C855 H843 0.929 . S
C855 C849 1.390 . S
C855 C852 1.386 . S
C856 C851 1.490 1_554 S
C856 C858 1.395 . S
C856 C859 1.403 . S
H857 C863 0.930 . S
C858 H844 0.930 . S
C858 C856 1.395 . S
C858 C861 1.403 . S
C859 C856 1.403 . S
C859 C860 1.524 1_554 S
C859 C863 1.400 . S
C860 H845 0.960 . S
C860 H846 0.960 . S
C860 H847 0.960 . S
C860 C859 1.524 1_556 S
C861 C858 1.403 . S
C861 C862 1.392 . S
C861 C865 1.495 . S
C862 C861 1.392 . S
C862 C863 1.385 . S
C862 C864 1.478 . S
C863 H857 0.930 . S
C863 C859 1.400 . S
C863 C862 1.385 . S
C864 C862 1.478 . S
C864 C866 1.381 . S
C864 C870 1.383 . S
C865 C861 1.495 . S
C865 H871 0.959 . S
C865 H872 0.961 . S
C865 H873 0.960 . S
C866 C864 1.381 . S
C866 C867 1.394 . S
C866 H874 0.930 . S
C867 C866 1.394 . S
C867 C868 1.383 . S
C867 H875 0.929 . S
C868 C867 1.383 . S
C868 C869 1.377 . S
C869 H853 0.930 . S
C869 C868 1.377 . S
C869 C870 1.379 . S
C870 H854 0.931 . S
C870 C864 1.383 . S
C870 C869 1.379 . S
H871 C865 0.959 . S
H872 C865 0.961 . S
H873 C865 0.960 . S
H874 C866 0.930 . S
H875 C867 0.929 . S
H876 C884 0.929 . S
H877 C886 0.930 . S
H878 C888 0.930 . S
H879 C891 0.929 . S
H880 C894 0.930 . S
H881 C896 0.960 . S
H882 C896 0.960 . S
H883 C896 0.960 . S
C884 H876 0.929 . S
C884 C885 1.377 . S
C884 C886 1.384 . S
C885 C884 1.377 . S
C885 C891 1.390 . S
C886 H877 0.930 . S
C886 C884 1.384 . S
C886 C887 1.372 . S
C887 C886 1.372 . S
C887 C888 1.400 . S
C887 C892 1.490 . S
C888 H878 0.930 . S
C888 C887 1.400 . S
C888 C891 1.386 . S
H889 C905 0.930 . S
H890 C906 0.931 . S
C891 H879 0.929 . S
C891 C885 1.390 . S
C891 C888 1.386 . S
C892 C887 1.490 . S
C892 C894 1.395 . S
C892 C895 1.403 . S
H893 C899 0.930 . S
C894 H880 0.930 . S
C894 C892 1.395 . S
C894 C897 1.403 . S
C895 C892 1.403 . S
C895 C896 1.524 . S
C895 C899 1.400 . S
C896 H881 0.960 . S
C896 H882 0.960 . S
C896 H883 0.960 . S
C896 C895 1.524 . S
C897 C894 1.403 . S
C897 C898 1.392 . S
C897 C901 1.495 . S
C898 C897 1.392 . S
C898 C899 1.385 . S
C898 C900 1.478 . S
C899 H893 0.930 . S
C899 C895 1.400 . S
C899 C898 1.385 . S
C900 C898 1.478 . S
C900 C902 1.381 . S
C900 C906 1.383 . S
C901 C897 1.495 . S
C901 H907 0.959 . S
C901 H908 0.961 . S
C901 H909 0.960 . S
C902 C900 1.381 . S
C902 C903 1.394 . S
C902 H910 0.930 . S
C903 C902 1.394 . S
C903 C904 1.383 . S
C903 H911 0.929 . S
C904 C903 1.383 . S
C904 C905 1.377 . S
C905 H889 0.930 . S
C905 C904 1.377 . S
C905 C906 1.379 . S
C906 H890 0.931 . S
C906 C900 1.383 . S
C906 C905 1.379 . S
H907 C901 0.959 . S
H908 C901 0.961 . S
H909 C901 0.960 . S
H910 C902 0.930 . S
H911 C903 0.929 . S
H912 C920 0.929 . S
H913 C922 0.930 . S
H914 C924 0.930 . S
H915 C927 0.929 . S
H916 C930 0.930 . S
H917 C932 0.960 . S
H918 C932 0.960 . S
H919 C932 0.960 . S
C920 H912 0.929 . S
C920 C921 1.377 . S
C920 C922 1.384 . S
C921 C920 1.377 . S
C921 C927 1.390 . S
C922 H913 0.930 . S
C922 C920 1.384 . S
C922 C923 1.372 . S
C923 C922 1.372 . S
C923 C924 1.400 . S
C923 C928 1.490 . S
C924 H914 0.930 . S
C924 C923 1.400 . S
C924 C927 1.386 . S
H925 C941 0.930 . S
H926 C942 0.931 . S
C927 H915 0.929 . S
C927 C921 1.390 . S
C927 C924 1.386 . S
C928 C923 1.490 . S
C928 C930 1.395 . S
C928 C931 1.403 . S
H929 C935 0.930 . S
C930 H916 0.930 . S
C930 C928 1.395 . S
C930 C933 1.403 . S
C931 C928 1.403 . S
C931 C932 1.524 . S
C931 C935 1.400 . S
C932 H917 0.960 . S
C932 H918 0.960 . S
C932 H919 0.960 . S
C932 C931 1.524 . S
C933 C930 1.403 . S
C933 C934 1.392 . S
C933 C937 1.495 . S
C934 C933 1.392 . S
C934 C935 1.385 . S
C934 C936 1.478 1_556 S
C935 H929 0.930 . S
C935 C931 1.400 . S
C935 C934 1.385 . S
C936 C934 1.478 1_554 S
C936 C938 1.381 1_554 S
C936 C942 1.383 . S
C937 C933 1.495 . S
C937 H943 0.959 . S
C937 H944 0.961 . S
C937 H945 0.960 . S
C938 C936 1.381 1_556 S
C938 C939 1.394 1_556 S
C938 H946 0.930 . S
C939 C938 1.394 1_554 S
C939 C940 1.383 . S
C939 H947 0.929 . S
C940 C939 1.383 . S
C940 C941 1.377 . S
C941 H925 0.930 . S
C941 C940 1.377 . S
C941 C942 1.379 . S
C942 H926 0.931 . S
C942 C936 1.383 . S
C942 C941 1.379 . S
H943 C937 0.959 . S
H944 C937 0.961 . S
H945 C937 0.960 . S
H946 C938 0.930 . S
H947 C939 0.929 . S
H948 C956 0.929 . S
H949 C958 0.930 . S
H950 C960 0.930 . S
H951 C963 0.929 . S
H952 C966 0.930 . S
H953 C968 0.960 . S
H954 C968 0.960 . S
H955 C968 0.960 . S
C956 H948 0.929 . S
C956 C957 1.377 . S
C956 C958 1.384 . S
C957 C956 1.377 . S
C957 C963 1.390 . S
C958 H949 0.930 . S
C958 C956 1.384 . S
C958 C959 1.372 . S
C959 C958 1.372 . S
C959 C960 1.400 . S
C959 C964 1.490 . S
C960 H950 0.930 . S
C960 C959 1.400 . S
C960 C963 1.386 . S
H961 C977 0.930 . S
H962 C978 0.931 . S
C963 H951 0.929 . S
C963 C957 1.390 . S
C963 C960 1.386 . S
C964 C959 1.490 . S
C964 C966 1.395 . S
C964 C967 1.403 . S
H965 C971 0.930 . S
C966 H952 0.930 . S
C966 C964 1.395 . S
C966 C969 1.403 . S
C967 C964 1.403 . S
C967 C968 1.524 . S
C967 C971 1.400 . S
C968 H953 0.960 . S
C968 H954 0.960 . S
C968 H955 0.960 . S
C968 C967 1.524 . S
C969 C966 1.403 . S
C969 C970 1.392 . S
C969 C973 1.495 . S
C970 C969 1.392 . S
C970 C971 1.385 . S
C970 C972 1.478 . S
C971 H965 0.930 . S
C971 C967 1.400 . S
C971 C970 1.385 . S
C972 C970 1.478 . S
C972 C974 1.381 . S
C972 C978 1.383 . S
C973 C969 1.495 . S
C973 H979 0.959 . S
C973 H980 0.961 . S
C973 H981 0.960 . S
C974 C972 1.381 . S
C974 C975 1.394 . S
C974 H982 0.930 . S
C975 C974 1.394 . S
C975 C976 1.383 . S
C975 H983 0.929 . S
C976 C975 1.383 . S
C976 C977 1.377 . S
C977 H961 0.930 . S
C977 C976 1.377 . S
C977 C978 1.379 . S
C978 H962 0.931 . S
C978 C972 1.383 . S
C978 C977 1.379 . S
H979 C973 0.959 . S
H980 C973 0.961 . S
H981 C973 0.960 . S
H982 C974 0.930 . S
H983 C975 0.929 . S
C273 C17 1.459 . S
C292 C116 1.446 . S
C309 C50 1.460 . S
C328 C83 1.463 . S
C345 C248 1.459 . S
C364 C149 1.457 . S
C381 C182 1.463 . S
C400 C215 1.474 . S
C417 N71 1.105 . S
C436 N5 1.100 . S
C453 N104 1.102 . S
C472 N38 1.075 . S
C489 C61 1.420 . S
C508 C127 1.434 . S
C525 C28 1.421 . S
C544 C94 1.408 . S
C561 N203 1.102 . S
C580 N137 1.083 . S
C597 N170 1.113 . S
C616 N236 1.113 . S
C633 C193 1.419 . S
C652 C259 1.433 . S
C669 C226 1.421 . S
C688 C160 1.407 . S
C705 C8 1.278 . S
C724 N179 1.285 . S
C741 C41 1.275 . S
C760 N146 1.267 . S
C777 N245 1.269 . S
C796 C74 1.266 . S
C813 C107 1.274 . S
C832 N212 1.260 . S
C849 N47 1.272 . S
C868 C140 1.268 . S
C885 C173 1.277 . S
C904 N14 1.276 . S
C921 C206 1.273 . S
C940 N113 1.273 . S
C957 C239 1.274 . S
C976 N80 1.278 . S
