# Generated by pormake.
# Topology vcp, (7)-cn, num edge types: 1
# Building blocks:
#     Node 0, Type 0, BuildingBlock: HICVOG_clean_sbu_0, # of connection points: 7
#     Node 1, Type 0, BuildingBlock: HICVOG_clean_sbu_0, # of connection points: 7
#     Node 2, Type 0, BuildingBlock: HICVOG_clean_sbu_0, # of connection points: 7
#     Node 3, Type 0, BuildingBlock: HICVOG_clean_sbu_0, # of connection points: 7
#     Node 4, Type 0, BuildingBlock: HICVOG_clean_sbu_0, # of connection points: 7
#     Node 5, Type 0, BuildingBlock: HICVOG_clean_sbu_0, # of connection points: 7
#     Node 6, Type 0, BuildingBlock: HICVOG_clean_sbu_0, # of connection points: 7
#     Node 7, Type 0, BuildingBlock: HICVOG_clean_sbu_0, # of connection points: 7
#     Node 8, Type 0, BuildingBlock: HICVOG_clean_sbu_0, # of connection points: 7
#     Node 9, Type 0, BuildingBlock: HICVOG_clean_sbu_0, # of connection points: 7
#     Node 10, Type 0, BuildingBlock: HICVOG_clean_sbu_0, # of connection points: 7
#     Node 11, Type 0, BuildingBlock: HICVOG_clean_sbu_0, # of connection points: 7
#     Node 12, Type 0, BuildingBlock: HICVOG_clean_sbu_0, # of connection points: 7
#     Node 13, Type 0, BuildingBlock: HICVOG_clean_sbu_0, # of connection points: 7
#     Node 14, Type 0, BuildingBlock: HICVOG_clean_sbu_0, # of connection points: 7
#     Node 15, Type 0, BuildingBlock: HICVOG_clean_sbu_0, # of connection points: 7
#     Edge 16, Type (0, 0), None
#     Edge 17, Type (0, 0), None
#     Edge 18, Type (0, 0), None
#     Edge 19, Type (0, 0), None
#     Edge 20, Type (0, 0), None
#     Edge 21, Type (0, 0), None
#     Edge 22, Type (0, 0), None
#     Edge 23, Type (0, 0), None
#     Edge 24, Type (0, 0), None
#     Edge 25, Type (0, 0), None
#     Edge 26, Type (0, 0), None
#     Edge 27, Type (0, 0), None
#     Edge 28, Type (0, 0), None
#     Edge 29, Type (0, 0), None
#     Edge 30, Type (0, 0), None
#     Edge 31, Type (0, 0), None
#     Edge 32, Type (0, 0), None
#     Edge 33, Type (0, 0), None
#     Edge 34, Type (0, 0), None
#     Edge 35, Type (0, 0), None
#     Edge 36, Type (0, 0), None
#     Edge 37, Type (0, 0), None
#     Edge 38, Type (0, 0), None
#     Edge 39, Type (0, 0), None
#     Edge 40, Type (0, 0), None
#     Edge 41, Type (0, 0), None
#     Edge 42, Type (0, 0), None
#     Edge 43, Type (0, 0), None
#     Edge 44, Type (0, 0), None
#     Edge 45, Type (0, 0), None
#     Edge 46, Type (0, 0), None
#     Edge 47, Type (0, 0), None
#     Edge 48, Type (0, 0), None
#     Edge 49, Type (0, 0), None
#     Edge 50, Type (0, 0), None
#     Edge 51, Type (0, 0), None
#     Edge 52, Type (0, 0), None
#     Edge 53, Type (0, 0), None
#     Edge 54, Type (0, 0), None
#     Edge 55, Type (0, 0), None
#     Edge 56, Type (0, 0), None
#     Edge 57, Type (0, 0), None
#     Edge 58, Type (0, 0), None
#     Edge 59, Type (0, 0), None
#     Edge 60, Type (0, 0), None
#     Edge 61, Type (0, 0), None
#     Edge 62, Type (0, 0), None
#     Edge 63, Type (0, 0), None
#     Edge 64, Type (0, 0), None
#     Edge 65, Type (0, 0), None
#     Edge 66, Type (0, 0), None
#     Edge 67, Type (0, 0), None
#     Edge 68, Type (0, 0), None
#     Edge 69, Type (0, 0), None
#     Edge 70, Type (0, 0), None
#     Edge 71, Type (0, 0), None
# Relax obj value: 0.230
# Max RMSD: 0.252
# Mean RMSD: 0.252
data_MOF--net-vcp--node1-HICVOG_clean_sbu_0--edge1-none
_symmetry_space_group_name_H-M    P1
_symmetry_Int_Tables_number       1
_symmetry_cell_setting            triclinic
loop_
_symmetry_equiv_pos_as_xyz
'x, y, z'
_cell_length_a     46.364024
_cell_length_b     11.758406
_cell_length_c     16.172491
_cell_angle_alpha  90.000357
_cell_angle_beta   90.003747
_cell_angle_gamma 89.995489
loop_
_atom_site_label
_atom_site_type_symbol
_atom_site_fract_x
_atom_site_fract_y
_atom_site_fract_z
_atom_type_partial_charge
Zn0 Zn 0.11618 0.13411 0.55858 0.0
C1 C 0.16022 0.2529 0.36382 0.0
N2 N 0.15576 0.35261 0.40335 0.0
C3 C 0.14761 0.31995 0.48001 0.0
N4 N 0.14525 0.20659 0.48607 0.0
N5 N 0.15569 0.16262 0.41668 0.0
C6 C 0.13224 0.87292 0.28503 0.0
O7 O 0.1077 0.87654 0.32549 0.0
O8 O 0.11056 0.21281 0.66542 0.0
Zn9 Zn 0.16593 0.99543 0.41638 0.0
N10 N 0.07875 0.10757 0.51151 0.0
C11 C 0.04442 0.09007 0.40351 0.0
C12 C 0.07176 0.12284 0.43083 0.0
C13 C 0.05971 0.0612 0.56598 0.0
N14 N 0.02539 0.04348 0.45794 0.0
C15 C 0.03224 0.02768 0.53914 0.0
O16 O 0.1553 0.89696 0.51917 0.0
C17 C 0.14163 0.90122 0.58734 0.0
O18 O 0.12718 0.98722 0.60634 0.0
H19 H 0.08737 0.15796 0.38816 0.0
H20 H 0.06638 0.04864 0.62946 0.0
C21 C 0.23116 0.02241 0.41841 0.0
C22 C 0.25848 0.96792 0.41971 0.0
C23 C 0.23547 0.78851 0.41559 0.0
C24 C 0.20885 0.84214 0.41132 0.0
N25 N 0.20691 0.9575 0.41435 0.0
N26 N 0.25965 0.85243 0.41895 0.0
H27 H 0.22916 0.11407 0.42032 0.0
C28 C 0.133 0.18236 0.70412 0.0
O29 O 0.15668 0.16328 0.66164 0.0
O30 O 0.15444 0.92137 0.31309 0.0
H31 H 0.1896 0.79192 0.40553 0.0
H32 H 0.03847 0.10034 0.33937 0.0
H33 H 0.23697 0.69669 0.41441 0.0
Zn34 Zn 0.42787 0.86595 0.55877 0.0
C35 C 0.38357 0.74683 0.36453 0.0
N36 N 0.38806 0.64714 0.40407 0.0
C37 C 0.39637 0.67985 0.48059 0.0
N38 N 0.39877 0.79322 0.48655 0.0
N39 N 0.38824 0.83714 0.41724 0.0
C40 C 0.41214 0.12752 0.2855 0.0
O41 O 0.43669 0.12508 0.32598 0.0
O42 O 0.43399 0.78681 0.66536 0.0
Zn43 Zn 0.3782 0.00448 0.4167 0.0
N44 N 0.46504 0.89442 0.51089 0.0
C45 C 0.49836 0.92264 0.40152 0.0
C46 C 0.47133 0.8866 0.42918 0.0
C47 C 0.48446 0.93651 0.56606 0.0
N48 N 0.51777 0.96499 0.45666 0.0
C49 C 0.51161 0.97332 0.5389 0.0
O50 O 0.38868 0.10278 0.51965 0.0
C51 C 0.40228 0.09836 0.58793 0.0
O52 O 0.41672 0.01237 0.60695 0.0
H53 H 0.45535 0.85532 0.38603 0.0
H54 H 0.47829 0.94378 0.63037 0.0
C55 C 0.31301 0.97806 0.41848 0.0
C56 C 0.28569 0.0326 0.41937 0.0
C57 C 0.30872 0.2119 0.41367 0.0
C58 C 0.33533 0.15814 0.40979 0.0
N59 N 0.33726 0.04285 0.4138 0.0
N60 N 0.28453 0.14808 0.41762 0.0
H61 H 0.315 0.88644 0.42128 0.0
C62 C 0.41163 0.81695 0.70455 0.0
O63 O 0.38784 0.83581 0.66254 0.0
O64 O 0.39005 0.07848 0.31367 0.0
H65 H 0.3546 0.20824 0.40366 0.0
H66 H 0.50373 0.91847 0.33659 0.0
H67 H 0.30724 0.30369 0.4118 0.0
Zn68 Zn 0.61584 0.86429 0.07602 0.0
C69 C 0.66052 0.74758 0.27126 0.0
N70 N 0.65644 0.64784 0.23156 0.0
C71 C 0.64793 0.68044 0.15525 0.0
N72 N 0.64491 0.79362 0.14965 0.0
N73 N 0.65535 0.8379 0.21897 0.0
C74 C 0.62962 0.1287 0.35033 0.0
O75 O 0.60499 0.12342 0.3104 0.0
O76 O 0.61189 0.7856 0.96912 0.0
Zn77 Zn 0.66521 0.00545 0.21991 0.0
N78 N 0.57725 0.87777 0.11789 0.0
C79 C 0.53669 0.82211 0.19747 0.0
C80 C 0.56605 0.81303 0.17941 0.0
C81 C 0.56044 0.95047 0.07352 0.0
N82 N 0.5199 0.89486 0.15324 0.0
C83 C 0.53094 0.96001 0.09118 0.0
O84 O 0.6552 0.10147 0.11545 0.0
C85 C 0.64097 0.0989 1.04815 0.0
O86 O 0.62588 0.01421 1.02984 0.0
H87 H 0.57958 0.75347 0.21252 0.0
H88 H 0.56999 0.99816 1.02333 0.0
C89 C 0.73054 0.97875 0.21993 0.0
C90 C 0.75791 0.0331 0.2189 0.0
C91 C 0.73491 0.21251 0.2239 0.0
C92 C 0.70827 0.15897 0.22819 0.0
N93 N 0.70628 0.04371 0.22448 0.0
N94 N 0.75909 0.14857 0.22017 0.0
H95 H 0.72853 0.88714 0.2171 0.0
C96 C 0.63413 0.81981 0.93142 0.0
O97 O 0.65738 0.84318 0.97477 0.0
O98 O 0.65202 0.08181 0.32176 0.0
H99 H 0.68903 0.20923 0.23422 0.0
H100 H 0.52718 0.77057 0.24527 0.0
H101 H 0.73642 0.30432 0.22531 0.0
Zn102 Zn 0.9275 0.13601 0.07628 0.0
C103 C 0.88303 0.25255 0.2719 0.0
N104 N 0.88709 0.35232 0.23223 0.0
C105 C 0.89547 0.31979 0.15579 0.0
N106 N 0.89845 0.20661 0.15008 0.0
N107 N 0.88807 0.16228 0.21945 0.0
C108 C 0.91315 0.87214 0.35069 0.0
O109 O 0.93775 0.87866 0.31074 0.0
O110 O 0.93115 0.21425 0.96921 0.0
Zn111 Zn 0.87792 0.99493 0.22008 0.0
N112 N 0.96624 0.12339 0.1175 0.0
C113 C 1.00724 0.18417 0.19324 0.0
C114 C 0.97777 0.1919 0.17632 0.0
C115 C 0.98286 0.04819 0.07471 0.0
N116 N 0.02384 0.10901 0.15055 0.0
C117 C 1.01248 0.04008 0.09117 0.0
O118 O 0.88816 0.89863 0.11588 0.0
C119 C 0.90244 0.90115 1.04868 0.0
O120 O 0.9175 0.98594 1.03037 0.0
H121 H 0.96442 0.25354 0.20798 0.0
H122 H 0.97309 0.99762 1.02642 0.0
C123 C 0.81254 0.02251 0.21994 0.0
C124 C 0.78516 0.96827 0.21835 0.0
C125 C 0.80812 0.78868 0.22088 0.0
C126 C 0.83477 0.84202 0.22569 0.0
N127 N 0.83679 0.95735 0.22347 0.0
N128 N 0.78395 0.85279 0.21812 0.0
H129 H 0.81457 0.11418 0.21844 0.0
C130 C 0.90886 0.17989 0.93178 0.0
O131 O 0.88566 0.15657 0.97537 0.0
O132 O 0.89065 0.91849 0.32232 0.0
H133 H 0.85399 0.79157 0.23113 0.0
H134 H 1.01701 0.23876 0.23878 0.0
H135 H 0.80658 0.69686 0.22124 0.0
Zn136 Zn 0.92741 0.86615 0.5771 0.0
C137 C 0.88338 0.74717 0.7718 0.0
N138 N 0.88781 0.64748 0.73222 0.0
C139 C 0.89596 0.68016 0.65555 0.0
N140 N 0.89835 0.79352 0.64954 0.0
N141 N 0.88794 0.83747 0.71897 0.0
C142 C 0.91143 0.12711 0.85066 0.0
O143 O 0.93596 0.12349 0.81017 0.0
O144 O 0.93319 0.78743 0.47028 0.0
Zn145 Zn 0.87776 0.00469 0.71933 0.0
N146 N 0.96474 0.89368 0.62448 0.0
C147 C 0.99885 0.91323 0.73287 0.0
C148 C 0.97162 0.87946 0.70535 0.0
C149 C 0.98379 0.94003 0.57004 0.0
N150 N 1.0179 0.95974 0.67845 0.0
C151 C 1.01116 0.97454 0.59708 0.0
O152 O 0.88836 0.10333 0.61659 0.0
C153 C 0.90193 0.09888 0.54827 0.0
O154 O 0.91631 0.01275 0.52918 0.0
H155 H 0.95598 0.84445 0.748 0.0
H156 H 0.97721 0.9518 0.50641 0.0
C157 C 0.81259 0.97744 0.71758 0.0
C158 C 0.78525 0.03173 0.71628 0.0
C159 C 0.80818 0.21133 0.71984 0.0
C160 C 0.83482 0.15788 0.72417 0.0
N161 N 0.8368 0.04254 0.72137 0.0
N162 N 0.78403 0.14722 0.71674 0.0
H163 H 0.81463 0.88578 0.71591 0.0
C164 C 0.91074 0.8176 0.43147 0.0
O165 O 0.88702 0.83651 0.47381 0.0
O166 O 0.88923 0.07865 0.82265 0.0
H167 H 0.85405 0.20824 0.72987 0.0
H168 H 1.00471 0.90381 0.79716 0.0
H169 H 0.80664 0.30314 0.72082 0.0
Zn170 Zn 0.61642 0.13358 0.57694 0.0
C171 C 0.66032 0.25285 0.77147 0.0
N172 N 0.65597 0.35254 0.73181 0.0
C173 C 0.64788 0.31985 0.65508 0.0
N174 N 0.64546 0.20649 0.64911 0.0
N175 N 0.65578 0.16254 0.71866 0.0
C176 C 0.63149 0.87246 0.85028 0.0
O177 O 0.60703 0.87458 0.80939 0.0
O178 O 0.60995 0.21305 0.47061 0.0
Zn179 Zn 0.66564 0.99502 0.71941 0.0
N180 N 0.57944 0.10306 0.62534 0.0
C181 C 0.54649 0.07147 0.73518 0.0
C182 C 0.57334 0.10924 0.70725 0.0
C183 C 0.56001 0.06086 0.57025 0.0
N184 N 0.52706 0.02913 0.68008 0.0
C185 C 0.53304 0.02237 0.59765 0.0
O186 O 0.65533 0.89634 0.61641 0.0
C187 C 0.64203 0.90144 0.54765 0.0
O188 O 0.62782 0.98789 0.52836 0.0
H189 H 0.58934 0.14051 0.75033 0.0
H190 H 0.56604 0.0549 0.50575 0.0
C191 C 0.73075 0.02125 0.71765 0.0
C192 C 0.75808 0.96686 0.71714 0.0
C193 C 0.73512 0.78755 0.72447 0.0
C194 C 0.70849 0.84121 0.72801 0.0
N195 N 0.70653 0.95643 0.723 0.0
N196 N 0.75928 0.85143 0.71987 0.0
H197 H 0.72872 0.11281 0.71399 0.0
C198 C 0.63227 0.18352 0.43097 0.0
O199 O 0.6562 0.16523 0.47249 0.0
O200 O 0.65362 0.92154 0.8224 0.0
H201 H 0.68924 0.7911 0.73461 0.0
H202 H 0.54128 0.07436 0.80026 0.0
H203 H 0.73664 0.69579 0.72707 0.0
Zn204 Zn 0.37831 0.99412 0.91537 0.0
C205 C 0.39523 0.31931 0.9804 0.0
N206 N 0.38704 0.35186 0.90379 0.0
C207 C 0.38305 0.25212 0.86403 0.0
N208 N 0.38797 0.16185 0.91656 0.0
N209 N 0.39813 0.2061 0.98621 0.0
C210 C 0.40936 0.18045 0.20446 0.0
O211 O 0.38599 0.15745 0.16159 0.0
O212 O 0.39172 0.9183 0.81364 0.0
Zn213 Zn 0.42728 0.13549 1.05954 0.0
N214 N 0.3373 0.95553 0.90997 0.0
C215 C 0.30863 0.78684 0.90893 0.0
C216 C 0.33529 0.84035 0.90506 0.0
C217 C 0.31306 0.02047 0.91533 0.0
N218 N 0.28447 0.8508 0.91341 0.0
C219 C 0.28569 0.96623 0.91588 0.0
O220 O 0.41712 0.98599 0.10601 0.0
C221 C 0.40218 0.90097 0.08755 0.0
O222 O 0.38814 0.8979 1.01994 0.0
H223 H 0.35451 0.79013 0.89849 0.0
H224 H 0.3151 0.112 0.91921 0.0
C225 C 0.48254 0.04816 1.06123 0.0
C226 C 0.51194 0.03734 1.0427 0.0
C227 C 0.50605 0.17359 0.93534 0.0
C228 C 0.47679 0.18396 0.95429 0.0
N229 N 0.4657 0.12068 1.01677 0.0
N230 N 0.52288 0.10107 0.9797 0.0
H231 H 0.47308 0.00162 0.11213 0.0
C232 C 0.41416 0.87142 0.78533 0.0
O233 O 0.43871 0.8764 0.82565 0.0
O234 O 0.43156 0.2143 0.16632 0.0
H235 H 0.46324 0.24329 0.92101 0.0
H236 H 0.3071 0.69507 0.90663 0.0
H237 H 0.51546 0.22392 0.8867 0.0
Zn238 Zn 0.11621 0.86396 1.05935 0.0
C239 C 0.16063 0.74748 0.86367 0.0
N240 N 0.15658 0.64771 0.90333 0.0
C241 C 0.14823 0.68021 0.97981 0.0
N242 N 0.14526 0.79338 0.98555 0.0
N243 N 0.1556 0.83773 0.91614 0.0
C244 C 0.1306 0.12783 0.78489 0.0
O245 O 0.106 0.12137 0.82487 0.0
O246 O 0.11253 0.7858 0.16646 0.0
Zn247 Zn 0.16573 0.00503 0.91552 0.0
N248 N 0.07749 0.8768 1.01797 0.0
C249 C 0.03657 0.81695 0.94153 0.0
C250 C 0.06601 0.80884 0.95875 0.0
C251 C 0.06086 0.95183 1.06086 0.0
N252 N 1.01996 0.89195 0.98434 0.0
C253 C 0.03128 0.96035 1.0441 0.0
O254 O 0.15549 0.10144 1.01965 0.0
C255 C 0.14124 0.09883 0.0869 0.0
O256 O 0.12622 0.01399 0.10524 0.0
H257 H 0.07937 0.74738 0.92695 0.0
H258 H 0.0706 0.002 0.10943 0.0
C259 C 0.23107 0.97713 0.91546 0.0
C260 C 0.25847 0.0312 0.91702 0.0
C261 C 0.23559 0.21095 0.91499 0.0
C262 C 0.20891 0.15778 0.91017 0.0
N263 N 0.20685 0.04245 0.9122 0.0
N264 N 0.25972 0.14667 0.91749 0.0
H265 H 0.22901 0.88547 0.91672 0.0
C266 C 0.13482 0.82017 0.2039 0.0
O267 O 0.15802 0.84355 0.16034 0.0
O268 O 0.15309 0.08139 0.81322 0.0
H269 H 0.18971 0.20834 0.90483 0.0
H270 H 0.02683 0.76284 0.89563 0.0
H271 H 0.23716 0.30276 0.91477 0.0
Zn272 Zn 0.61642 0.6354 0.55985 0.0
C273 C 0.6606 0.75284 0.36453 0.0
N274 N 0.65647 0.85252 0.40424 0.0
C275 C 0.64824 0.81983 0.48078 0.0
N276 N 0.64549 0.70655 0.48656 0.0
N277 N 0.65578 0.66243 0.41701 0.0
C278 C 0.62999 0.37246 0.28582 0.0
O279 O 0.60543 0.37885 0.326 0.0
O280 O 0.61204 0.71374 0.66685 0.0
Zn281 Zn 0.66575 0.49492 0.41599 0.0
N282 N 0.57813 0.61922 0.51646 0.0
C283 C 0.53848 0.66397 0.42983 0.0
C284 C 0.56751 0.67706 0.45062 0.0
C285 C 0.56107 0.54939 0.56242 0.0
N286 N 0.52142 0.59408 0.47567 0.0
C287 C 0.5319 0.53569 0.54196 0.0
O288 O 0.65583 0.3986 0.52048 0.0
C289 C 0.64168 0.40135 0.58791 0.0
O290 O 0.62663 0.48608 0.60628 0.0
H291 H 0.58128 0.73383 0.41576 0.0
H292 H 0.5702 0.50677 0.61559 0.0
C293 C 0.73109 0.52232 0.41507 0.0
C294 C 0.75849 0.46818 0.41613 0.0
C295 C 0.73557 0.28853 0.4128 0.0
C296 C 0.70889 0.34183 0.4085 0.0
N297 N 0.70685 0.45712 0.41139 0.0
N298 N 0.75972 0.3527 0.4157 0.0
H299 H 0.72904 0.61396 0.4172 0.0
C300 C 0.63432 0.68033 0.70485 0.0
O301 O 0.65769 0.65789 0.66177 0.0
O302 O 0.65254 0.41857 0.31411 0.0
H303 H 0.68967 0.29137 0.40305 0.0
H304 H 0.52945 0.70988 0.37835 0.0
H305 H 0.73712 0.19672 0.41197 0.0
Zn306 Zn 0.92756 0.36502 0.56004 0.0
C307 C 0.88317 0.24728 0.36517 0.0
N308 N 0.88736 0.14762 0.40489 0.0
C309 C 0.89572 0.1804 0.48131 0.0
N310 N 0.89847 0.29368 0.487 0.0
N311 N 0.88811 0.33773 0.41751 0.0
C312 C 0.91448 0.62836 0.28624 0.0
O313 O 0.93906 0.62323 0.32642 0.0
O314 O 0.93234 0.28618 0.66681 0.0
Zn315 Zn 0.87839 0.50544 0.41619 0.0
N316 N 0.96562 0.38274 0.51579 0.0
C317 C 1.00452 0.34649 0.42446 0.0
C318 C 0.9757 0.33094 0.4467 0.0
C319 C 0.983 0.44893 0.56359 0.0
N320 N 0.0219 0.41281 0.47211 0.0
C321 C 1.01194 0.46519 0.54166 0.0
O322 O 0.88811 0.60153 0.5209 0.0
C323 C 0.90219 0.59869 0.58844 0.0
O324 O 0.91726 0.51402 0.60683 0.0
H325 H 0.96165 0.27736 0.41013 0.0
H326 H 0.97422 0.48713 0.61901 0.0
C327 C 0.8131 0.47888 0.41513 0.0
C328 C 0.78572 0.53312 0.41559 0.0
C329 C 0.80868 0.71257 0.40984 0.0
C330 C 0.83534 0.6591 0.40612 0.0
N331 N 0.83735 0.54388 0.41048 0.0
N332 N 0.78451 0.64857 0.41368 0.0
H333 H 0.81514 0.38732 0.41856 0.0
C334 C 0.9101 0.31926 0.70516 0.0
O335 O 0.88665 0.34161 0.66242 0.0
O336 O 0.89202 0.58167 0.3147 0.0
H337 H 0.85458 0.70938 0.40012 0.0
H338 H 1.01311 0.3055 0.37024 0.0
H339 H 0.80714 0.80436 0.40797 0.0
Zn340 Zn 0.16549 0.50502 0.21863 0.0
C341 C 0.14745 0.18028 0.15413 0.0
N342 N 0.15556 0.14745 0.23081 0.0
C343 C 0.1601 0.24707 0.27038 0.0
N344 N 0.15567 0.33745 0.21756 0.0
N345 N 0.14528 0.29373 0.14802 0.0
C346 C 0.1318 0.31679 0.92986 0.0
O347 O 0.15577 0.33457 0.97128 0.0
O348 O 0.15309 0.57882 0.32136 0.0
Zn349 Zn 0.11624 0.36705 0.07605 0.0
N350 N 0.20642 0.54345 0.22294 0.0
C351 C 0.23505 0.71219 0.22457 0.0
C352 C 0.2084 0.65866 0.22779 0.0
C353 C 0.23064 0.47849 0.21804 0.0
N354 N 0.25921 0.64819 0.22041 0.0
C355 C 0.25799 0.53275 0.21784 0.0
O356 O 0.12779 0.51228 1.02729 0.0
C357 C 0.14206 0.59854 1.04661 0.0
O358 O 0.15535 0.60354 0.11538 0.0
H359 H 0.18915 0.70887 0.23397 0.0
H360 H 0.2286 0.38694 0.21446 0.0
C361 C 0.05939 0.43537 0.06973 0.0
C362 C 0.03296 0.47892 0.09749 0.0
C363 C 0.04833 0.44766 0.23612 0.0
C364 C 0.07462 0.40482 0.20781 0.0
N365 N 0.07952 0.39969 0.1252 0.0
N366 N 0.02821 0.48362 0.18064 0.0
H367 H 0.06456 0.43332 1.00451 0.0
C368 C 0.13098 0.62804 0.34931 0.0
O369 O 0.10653 0.62655 0.30833 0.0
O370 O 0.10947 0.28771 0.96968 0.0
H371 H 0.09125 0.37946 0.25098 0.0
H372 H 0.23658 0.80395 0.22704 0.0
H373 H 0.04415 0.45426 0.30167 0.0
Zn374 Zn 0.3777 0.49489 0.21894 0.0
C375 C 0.39596 0.81949 0.15473 0.0
N376 N 0.388 0.85228 0.23153 0.0
C377 C 0.38347 0.75266 0.27109 0.0
N378 N 0.38774 0.66229 0.21814 0.0
N379 N 0.39807 0.70603 0.14853 0.0
C380 C 0.41111 0.68253 0.93039 0.0
O381 O 0.38722 0.66473 0.97217 0.0
O382 O 0.38974 0.42106 0.32194 0.0
Zn383 Zn 0.4271 0.63278 0.07645 0.0
N384 N 0.33674 0.45691 0.22238 0.0
C385 C 0.30808 0.2882 0.22265 0.0
C386 C 0.33474 0.34162 0.22625 0.0
C387 C 0.31252 0.52199 0.21812 0.0
N388 N 0.28393 0.35231 0.2191 0.0
C389 C 0.28517 0.46778 0.2175 0.0
O390 O 0.41565 0.48725 1.02798 0.0
C391 C 0.40137 0.40101 1.04725 0.0
O392 O 0.38801 0.39613 0.11591 0.0
H393 H 0.35398 0.29129 0.23209 0.0
H394 H 0.31457 0.6136 0.21542 0.0
C395 C 0.48382 0.5625 0.06987 0.0
C396 C 0.5105 0.52132 0.09765 0.0
C397 C 0.49599 0.56118 0.23586 0.0
C398 C 0.46945 0.60161 0.20756 0.0
N399 N 0.46401 0.60136 0.12514 0.0
N400 N 0.5158 0.52213 0.18059 0.0
H401 H 0.47826 0.56068 1.0049 0.0
C402 C 0.41197 0.37249 0.34974 0.0
O403 O 0.43641 0.37534 0.30878 0.0
O404 O 0.43351 0.71171 0.96985 0.0
H405 H 0.4531 0.62975 0.2507 0.0
H406 H 0.30654 0.19641 0.22444 0.0
H407 H 0.50065 0.55916 0.30131 0.0
Zn408 Zn 0.42785 0.36421 0.57564 0.0
C409 C 0.38331 0.24679 0.77077 0.0
N410 N 0.3876 0.14711 0.73118 0.0
C411 C 0.39607 0.17985 0.65487 0.0
N412 N 0.3988 0.29312 0.64913 0.0
N413 N 0.38827 0.33722 0.71841 0.0
C414 C 0.41359 0.62759 0.84972 0.0
O415 O 0.43822 0.62097 0.80992 0.0
O416 O 0.43184 0.2861 0.46848 0.0
Zn417 Zn 0.37811 0.50456 0.71921 0.0
N418 N 0.46633 0.37864 0.61808 0.0
C419 C 0.50627 0.3304 0.70262 0.0
C420 C 0.47711 0.31895 0.68283 0.0
C421 C 0.48338 0.44861 0.57216 0.0
N422 N 0.5233 0.40054 0.6569 0.0
C423 C 0.51267 0.46069 0.59164 0.0
O424 O 0.38825 0.60063 0.61485 0.0
C425 C 0.40261 0.59844 0.54778 0.0
O426 O 0.41782 0.51407 0.52958 0.0
H427 H 0.46336 0.26191 0.71753 0.0
H428 H 0.47412 0.49265 0.51978 0.0
C429 C 0.31268 0.47698 0.72002 0.0
C430 C 0.2853 0.53127 0.71849 0.0
C431 C 0.30829 0.71082 0.71993 0.0
C432 C 0.33495 0.65746 0.72465 0.0
N433 N 0.33695 0.54211 0.72295 0.0
N434 N 0.28411 0.64675 0.71775 0.0
H435 H 0.3147 0.3853 0.7189 0.0
C436 C 0.4095 0.31998 0.431 0.0
O437 O 0.38628 0.34303 0.47453 0.0
O438 O 0.39108 0.58139 0.82121 0.0
H439 H 0.35418 0.70791 0.72957 0.0
H440 H 0.51544 0.28297 0.75317 0.0
H441 H 0.30677 0.80265 0.7199 0.0
Zn442 Zn 0.11602 0.63516 0.57551 0.0
C443 C 0.16045 0.7528 0.7704 0.0
N444 N 0.15622 0.85247 0.73072 0.0
C445 C 0.14783 0.81971 0.65433 0.0
N446 N 0.14511 0.70642 0.64862 0.0
N447 N 0.15552 0.66236 0.71804 0.0
C448 C 0.12921 0.37169 0.8492 0.0
O449 O 0.10462 0.37687 0.80905 0.0
O450 O 0.11141 0.71395 0.4687 0.0
Zn451 Zn 0.16532 0.4947 0.71927 0.0
N452 N 0.07786 0.61832 0.61934 0.0
C453 C 0.03879 0.65652 0.70968 0.0
C454 C 0.06769 0.67117 0.68791 0.0
C455 C 0.06049 0.55204 0.57157 0.0
N456 N 1.02143 0.59006 0.66208 0.0
C457 C 0.03147 0.5367 0.59303 0.0
O458 O 0.15556 0.39877 0.61454 0.0
C459 C 0.14138 0.40142 0.54714 0.0
O460 O 0.12623 0.48593 0.52885 0.0
H461 H 0.08172 0.72492 0.7244 0.0
H462 H 0.06933 0.51307 0.51653 0.0
C463 C 0.23066 0.52097 0.72004 0.0
C464 C 0.25803 0.46653 0.71959 0.0
C465 C 0.23499 0.28729 0.72595 0.0
C466 C 0.20834 0.34096 0.72959 0.0
N467 N 0.20638 0.45618 0.72497 0.0
N468 N 0.25918 0.35109 0.72184 0.0
H469 H 0.22867 0.61253 0.71634 0.0
C470 C 0.13365 0.68067 0.4305 0.0
O471 O 0.15706 0.65809 0.47333 0.0
O472 O 0.15166 0.41836 0.82073 0.0
H473 H 0.18908 0.29081 0.73568 0.0
H474 H 0.03012 0.69836 0.76346 0.0
H475 H 0.23648 0.1955 0.72803 0.0
Zn476 Zn 0.92752 0.6329 1.05947 0.0
C477 C 0.88352 0.75292 0.86524 0.0
N478 N 0.88803 0.85254 0.90484 0.0
C479 C 0.89623 0.81971 0.98144 0.0
N480 N 0.89851 0.70628 0.9874 0.0
N481 N 0.88805 0.6625 0.91796 0.0
C482 C 0.91278 0.37193 0.78634 0.0
O483 O 0.93724 0.37361 0.82726 0.0
O484 O 0.93423 0.71228 0.16583 0.0
Zn485 Zn 0.87817 0.49495 0.91698 0.0
N486 N 0.96429 0.60056 1.01044 0.0
C487 C 0.99562 0.55385 0.89957 0.0
C488 C 0.96926 0.59613 0.92785 0.0
C489 C 0.9844 0.56481 1.06592 0.0
N490 N 1.01572 0.51778 0.95506 0.0
C491 C 1.01089 0.52183 1.03819 0.0
O492 O 0.88829 0.39659 1.0203 0.0
C493 C 0.90165 0.40145 0.08897 0.0
O494 O 0.91599 0.48758 0.1082 0.0
H495 H 0.95265 0.62165 0.88465 0.0
H496 H 0.97918 0.56639 0.13112 0.0
C497 C 0.81297 0.52129 0.91772 0.0
C498 C 0.78564 0.46688 0.91796 0.0
C499 C 0.80863 0.2876 0.91076 0.0
C500 C 0.83527 0.34126 0.90755 0.0
N501 N 0.83722 0.45647 0.91259 0.0
N502 N 0.78445 0.35145 0.91515 0.0
H503 H 0.81499 0.61283 0.92151 0.0
C504 C 0.91189 0.68319 0.20556 0.0
O505 O 0.88793 0.66541 0.16412 0.0
O506 O 0.89065 0.42098 0.81435 0.0
H507 H 0.85453 0.29114 0.90127 0.0
H508 H 0.99988 0.54786 0.83402 0.0
H509 H 0.80713 0.19584 0.90815 0.0
Zn510 Zn 0.616 0.36695 1.0592 0.0
C511 C 0.66011 0.24708 0.86492 0.0
N512 N 0.6555 0.14747 0.90442 0.0
C513 C 0.64724 0.18029 0.98095 0.0
N514 N 0.64503 0.29373 0.98698 0.0
N515 N 0.6556 0.33749 0.91767 0.0
C516 C 0.63172 0.62754 0.786 0.0
O517 O 0.60719 0.62425 0.82651 0.0
O518 O 0.60987 0.28829 0.16602 0.0
Zn519 Zn 0.66583 0.50473 0.9171 0.0
N520 N 0.57893 0.39681 1.01095 0.0
C521 C 0.54662 0.43416 0.9005 0.0
C522 C 0.57332 0.39517 0.92864 0.0
C523 C 0.55913 0.43559 1.06629 0.0
N524 N 0.52683 0.47323 0.95582 0.0
C525 C 0.53229 0.47538 1.03867 0.0
O526 O 0.65539 0.60312 1.02011 0.0
C527 C 0.64175 0.59887 0.08834 0.0
O528 O 0.62725 0.51307 0.10735 0.0
H529 H 0.58965 0.36699 0.88543 0.0
H530 H 0.56481 0.43849 0.13115 0.0
C531 C 0.73108 0.47739 0.91782 0.0
C532 C 0.75843 0.5317 0.91883 0.0
C533 C 0.73546 0.71127 0.91544 0.0
C534 C 0.70881 0.65781 0.91147 0.0
N535 N 0.70684 0.54246 0.91429 0.0
N536 N 0.75963 0.6472 0.9183 0.0
H537 H 0.72906 0.38573 0.91962 0.0
C538 C 0.63234 0.31788 0.20501 0.0
O539 O 0.65612 0.33615 0.16281 0.0
O540 O 0.65393 0.57912 0.81411 0.0
H541 H 0.68956 0.70816 0.90613 0.0
H542 H 0.54182 0.43507 0.83513 0.0
H543 H 0.73698 0.80308 0.91444 0.0
loop_
_geom_bond_atom_site_label_1
_geom_bond_atom_site_label_2
_geom_bond_distance
_geom_bond_site_symmetry_2
_ccdc_geom_bond_type
Zn0 N4 2.020 . S
Zn0 O8 2.019 . S
Zn0 N10 2.119 . S
Zn0 O18 1.975 1_545 S
C1 N2 1.334 . S
C1 N5 1.336 . S
N2 C1 1.334 . S
N2 C3 1.334 . S
C3 N2 1.334 . S
C3 N4 1.336 . S
N4 Zn0 2.020 . S
N4 C3 1.336 . S
N4 N5 1.354 . S
N5 C1 1.336 . S
N5 N4 1.354 . S
N5 Zn9 2.020 . S
C6 O7 1.244 . S
C6 O30 1.257 . S
O7 C6 1.244 . S
O8 Zn0 2.019 . S
O8 C28 1.257 . S
Zn9 N5 2.020 . S
Zn9 O16 1.975 1_545 S
Zn9 N25 2.119 . S
Zn9 O30 2.019 1_545 S
N10 Zn0 2.119 . S
N10 C12 1.334 . S
N10 C13 1.328 . S
C11 C12 1.391 1_565 S
C11 N14 1.329 . S
C11 H32 0.930 . S
C12 N10 1.334 . S
C12 C11 1.391 1_545 S
C12 H19 0.930 1_545 S
C13 N10 1.328 . S
C13 C15 1.392 . S
C13 H20 0.930 . S
N14 C11 1.329 . S
N14 C15 1.331 1_565 S
C15 C13 1.392 . S
C15 N14 1.331 1_545 S
O16 Zn9 1.975 1_565 S
O16 C17 1.252 . S
C17 O16 1.252 . S
C17 O18 1.252 . S
O18 Zn0 1.975 1_565 S
O18 C17 1.252 . S
H19 C12 0.930 1_565 S
H20 C13 0.930 . S
C21 C22 1.392 . S
C21 N25 1.328 1_565 S
C21 H27 0.930 . S
C22 C21 1.392 . S
C22 N26 1.331 . S
C23 C24 1.391 . S
C23 N26 1.329 1_545 S
C23 H33 0.930 . S
C24 C23 1.391 . S
C24 N25 1.334 . S
C24 H31 0.930 . S
N25 Zn9 2.119 . S
N25 C21 1.328 1_545 S
N25 C24 1.334 . S
N26 C22 1.331 . S
N26 C23 1.329 1_565 S
H27 C21 0.930 . S
C28 O8 1.257 . S
C28 O29 1.244 . S
O29 C28 1.244 . S
O30 C6 1.257 . S
O30 Zn9 2.019 1_565 S
H31 C24 0.930 . S
H32 C11 0.930 . S
H33 C23 0.930 . S
Zn34 N38 2.020 . S
Zn34 O42 2.019 . S
Zn34 N44 2.119 . S
Zn34 O52 1.975 1_565 S
C35 N36 1.334 . S
C35 N39 1.336 . S
N36 C35 1.334 . S
N36 C37 1.334 . S
C37 N36 1.334 . S
C37 N38 1.336 . S
N38 Zn34 2.020 . S
N38 C37 1.336 . S
N38 N39 1.354 . S
N39 C35 1.336 . S
N39 N38 1.354 . S
N39 Zn43 2.020 . S
C40 O41 1.244 . S
C40 O64 1.257 . S
O41 C40 1.244 . S
O42 Zn34 2.019 . S
O42 C62 1.257 . S
Zn43 N39 2.020 . S
Zn43 O50 1.975 1_565 S
Zn43 N59 2.119 . S
Zn43 O64 2.019 1_565 S
N44 Zn34 2.119 . S
N44 C46 1.334 . S
N44 C47 1.328 . S
C45 C46 1.391 1_545 S
C45 N48 1.329 . S
C45 H66 0.930 . S
C46 N44 1.334 . S
C46 C45 1.391 1_565 S
C46 H53 0.930 1_565 S
C47 N44 1.328 . S
C47 C49 1.392 . S
C47 H54 0.930 . S
N48 C45 1.329 . S
N48 C49 1.331 1_545 S
C49 C47 1.392 . S
C49 N48 1.331 1_565 S
O50 Zn43 1.975 1_545 S
O50 C51 1.252 . S
C51 O50 1.252 . S
C51 O52 1.252 . S
O52 Zn34 1.975 1_545 S
O52 C51 1.252 . S
H53 C46 0.930 1_545 S
H54 C47 0.930 . S
C55 C56 1.392 . S
C55 N59 1.328 1_545 S
C55 H61 0.930 . S
C56 C55 1.392 . S
C56 N60 1.331 . S
C57 C58 1.391 . S
C57 N60 1.329 1_565 S
C57 H67 0.930 . S
C58 C57 1.391 . S
C58 N59 1.334 . S
C58 H65 0.930 . S
N59 Zn43 2.119 . S
N59 C55 1.328 1_565 S
N59 C58 1.334 . S
N60 C56 1.331 . S
N60 C57 1.329 1_545 S
H61 C55 0.930 . S
C62 O42 1.257 . S
C62 O63 1.244 . S
O63 C62 1.244 . S
O64 C40 1.257 . S
O64 Zn43 2.019 1_545 S
H65 C58 0.930 . S
H66 C45 0.930 . S
H67 C57 0.930 . S
Zn68 N72 2.016 1_556 S
Zn68 O76 2.024 . S
Zn68 N78 2.117 1_556 S
Zn68 O86 1.974 1_566 S
C69 N70 1.334 . S
C69 N73 1.336 . S
N70 C69 1.334 . S
N70 C71 1.334 . S
C71 N70 1.334 . S
C71 N72 1.336 . S
N72 Zn68 2.016 1_554 S
N72 C71 1.336 . S
N72 N73 1.354 . S
N73 C69 1.336 . S
N73 N72 1.354 . S
N73 Zn77 2.020 . S
C74 O75 1.244 . S
C74 O98 1.257 . S
O75 C74 1.244 . S
O76 Zn68 2.024 . S
O76 C96 1.257 . S
Zn77 N73 2.020 . S
Zn77 O84 1.975 1_565 S
Zn77 N93 2.119 . S
Zn77 O98 2.019 1_565 S
N78 Zn68 2.117 1_554 S
N78 C80 1.334 . S
N78 C81 1.328 1_554 S
C79 C80 1.391 1_545 S
C79 N82 1.329 . S
C79 H100 0.930 . S
C80 N78 1.334 . S
C80 C79 1.391 1_565 S
C80 H87 0.930 1_565 S
C81 N78 1.328 1_556 S
C81 C83 1.392 1_556 S
C81 H88 0.930 . S
N82 C79 1.329 . S
N82 C83 1.331 1_545 S
C83 C81 1.392 1_554 S
C83 N82 1.331 1_565 S
O84 Zn77 1.975 1_545 S
O84 C85 1.252 . S
C85 O84 1.252 . S
C85 O86 1.252 . S
O86 Zn68 1.974 1_544 S
O86 C85 1.252 . S
H87 C80 0.930 1_545 S
H88 C81 0.930 . S
C89 C90 1.392 . S
C89 N93 1.328 1_545 S
C89 H95 0.930 . S
C90 C89 1.392 . S
C90 N94 1.331 . S
C91 C92 1.391 . S
C91 N94 1.329 1_565 S
C91 H101 0.930 . S
C92 C91 1.391 . S
C92 N93 1.334 . S
C92 H99 0.930 . S
N93 Zn77 2.119 . S
N93 C89 1.328 1_565 S
N93 C92 1.334 . S
N94 C90 1.331 . S
N94 C91 1.329 1_545 S
H95 C89 0.930 . S
C96 O76 1.257 . S
C96 O97 1.244 . S
O97 C96 1.244 . S
O98 C74 1.257 . S
O98 Zn77 2.019 1_545 S
H99 C92 0.930 . S
H100 C79 0.930 . S
H101 C91 0.930 . S
Zn102 N106 2.016 1_556 S
Zn102 O110 2.024 . S
Zn102 N112 2.117 1_556 S
Zn102 O120 1.974 1_546 S
C103 N104 1.334 . S
C103 N107 1.336 . S
N104 C103 1.334 . S
N104 C105 1.334 . S
C105 N104 1.334 . S
C105 N106 1.336 . S
N106 Zn102 2.016 1_554 S
N106 C105 1.336 . S
N106 N107 1.354 . S
N107 C103 1.336 . S
N107 N106 1.354 . S
N107 Zn111 2.020 . S
C108 O109 1.244 . S
C108 O132 1.257 . S
O109 C108 1.244 . S
O110 Zn102 2.024 . S
O110 C130 1.257 . S
Zn111 N107 2.020 . S
Zn111 O118 1.975 1_545 S
Zn111 N127 2.119 . S
Zn111 O132 2.019 1_545 S
N112 Zn102 2.117 1_554 S
N112 C114 1.334 . S
N112 C115 1.328 1_554 S
C113 C114 1.391 1_565 S
C113 N116 1.329 . S
C113 H134 0.930 . S
C114 N112 1.334 . S
C114 C113 1.391 1_545 S
C114 H121 0.930 1_545 S
C115 N112 1.328 1_556 S
C115 C117 1.392 1_556 S
C115 H122 0.930 . S
N116 C113 1.329 . S
N116 C117 1.331 1_565 S
C117 C115 1.392 1_554 S
C117 N116 1.331 1_545 S
O118 Zn111 1.975 1_565 S
O118 C119 1.252 . S
C119 O118 1.252 . S
C119 O120 1.252 . S
O120 Zn102 1.974 1_564 S
O120 C119 1.252 . S
H121 C114 0.930 1_565 S
H122 C115 0.930 . S
C123 C124 1.392 . S
C123 N127 1.328 1_565 S
C123 H129 0.930 . S
C124 C123 1.392 . S
C124 N128 1.331 . S
C125 C126 1.391 . S
C125 N128 1.329 1_545 S
C125 H135 0.930 . S
C126 C125 1.391 . S
C126 N127 1.334 . S
C126 H133 0.930 . S
N127 Zn111 2.119 . S
N127 C123 1.328 1_545 S
N127 C126 1.334 . S
N128 C124 1.331 . S
N128 C125 1.329 1_565 S
H129 C123 0.930 . S
C130 O110 1.257 . S
C130 O131 1.244 . S
O131 C130 1.244 . S
O132 C108 1.257 . S
O132 Zn111 2.019 1_565 S
H133 C126 0.930 . S
H134 C113 0.930 . S
H135 C125 0.930 . S
Zn136 N140 2.020 . S
Zn136 O144 2.019 . S
Zn136 N146 2.119 . S
Zn136 O154 1.975 1_565 S
C137 N138 1.334 . S
C137 N141 1.336 . S
N138 C137 1.334 . S
N138 C139 1.334 . S
C139 N138 1.334 . S
C139 N140 1.336 . S
N140 Zn136 2.020 . S
N140 C139 1.336 . S
N140 N141 1.354 . S
N141 C137 1.336 . S
N141 N140 1.354 . S
N141 Zn145 2.020 . S
C142 O143 1.244 . S
C142 O166 1.257 . S
O143 C142 1.244 . S
O144 Zn136 2.019 . S
O144 C164 1.257 . S
Zn145 N141 2.020 . S
Zn145 O152 1.975 1_565 S
Zn145 N161 2.119 . S
Zn145 O166 2.019 1_565 S
N146 Zn136 2.119 . S
N146 C148 1.334 . S
N146 C149 1.328 . S
C147 C148 1.391 1_545 S
C147 N150 1.329 . S
C147 H168 0.930 . S
C148 N146 1.334 . S
C148 C147 1.391 1_565 S
C148 H155 0.930 1_565 S
C149 N146 1.328 . S
C149 C151 1.392 . S
C149 H156 0.930 . S
N150 C147 1.329 . S
N150 C151 1.331 1_545 S
C151 C149 1.392 . S
C151 N150 1.331 1_565 S
O152 Zn145 1.975 1_545 S
O152 C153 1.252 . S
C153 O152 1.252 . S
C153 O154 1.252 . S
O154 Zn136 1.975 1_545 S
O154 C153 1.252 . S
H155 C148 0.930 1_545 S
H156 C149 0.930 . S
C157 C158 1.392 . S
C157 N161 1.328 1_545 S
C157 H163 0.930 . S
C158 C157 1.392 . S
C158 N162 1.331 . S
C159 C160 1.391 . S
C159 N162 1.329 1_565 S
C159 H169 0.930 . S
C160 C159 1.391 . S
C160 N161 1.334 . S
C160 H167 0.930 . S
N161 Zn145 2.119 . S
N161 C157 1.328 1_565 S
N161 C160 1.334 . S
N162 C158 1.331 . S
N162 C159 1.329 1_545 S
H163 C157 0.930 . S
C164 O144 1.257 . S
C164 O165 1.244 . S
O165 C164 1.244 . S
O166 C142 1.257 . S
O166 Zn145 2.019 1_545 S
H167 C160 0.930 . S
H168 C147 0.930 . S
H169 C159 0.930 . S
Zn170 N174 2.020 . S
Zn170 O178 2.019 . S
Zn170 N180 2.119 . S
Zn170 O188 1.975 1_545 S
C171 N172 1.334 . S
C171 N175 1.336 . S
N172 C171 1.334 . S
N172 C173 1.334 . S
C173 N172 1.334 . S
C173 N174 1.336 . S
N174 Zn170 2.020 . S
N174 C173 1.336 . S
N174 N175 1.354 . S
N175 C171 1.336 . S
N175 N174 1.354 . S
N175 Zn179 2.020 . S
C176 O177 1.244 . S
C176 O200 1.257 . S
O177 C176 1.244 . S
O178 Zn170 2.019 . S
O178 C198 1.257 . S
Zn179 N175 2.020 . S
Zn179 O186 1.975 1_545 S
Zn179 N195 2.119 . S
Zn179 O200 2.019 1_545 S
N180 Zn170 2.119 . S
N180 C182 1.334 . S
N180 C183 1.328 . S
C181 C182 1.391 1_565 S
C181 N184 1.329 . S
C181 H202 0.930 . S
C182 N180 1.334 . S
C182 C181 1.391 1_545 S
C182 H189 0.930 1_545 S
C183 N180 1.328 . S
C183 C185 1.392 . S
C183 H190 0.930 . S
N184 C181 1.329 . S
N184 C185 1.331 1_565 S
C185 C183 1.392 . S
C185 N184 1.331 1_545 S
O186 Zn179 1.975 1_565 S
O186 C187 1.252 . S
C187 O186 1.252 . S
C187 O188 1.252 . S
O188 Zn170 1.975 1_565 S
O188 C187 1.252 . S
H189 C182 0.930 1_565 S
H190 C183 0.930 . S
C191 C192 1.392 . S
C191 N195 1.328 1_565 S
C191 H197 0.930 . S
C192 C191 1.392 . S
C192 N196 1.331 . S
C193 C194 1.391 . S
C193 N196 1.329 1_545 S
C193 H203 0.930 . S
C194 C193 1.391 . S
C194 N195 1.334 . S
C194 H201 0.930 . S
N195 Zn179 2.119 . S
N195 C191 1.328 1_545 S
N195 C194 1.334 . S
N196 C192 1.331 . S
N196 C193 1.329 1_565 S
H197 C191 0.930 . S
C198 O178 1.257 . S
C198 O199 1.244 . S
O199 C198 1.244 . S
O200 C176 1.257 . S
O200 Zn179 2.019 1_565 S
H201 C194 0.930 . S
H202 C181 0.930 . S
H203 C193 0.930 . S
Zn204 N208 2.020 . S
Zn204 O212 2.019 1_545 S
Zn204 N214 2.119 . S
Zn204 O222 1.975 1_545 S
C205 N206 1.334 . S
C205 N209 1.336 . S
N206 C205 1.334 . S
N206 C207 1.334 . S
C207 N206 1.334 . S
C207 N208 1.336 . S
N208 Zn204 2.020 . S
N208 C207 1.336 . S
N208 N209 1.354 . S
N209 C205 1.336 . S
N209 N208 1.354 . S
N209 Zn213 2.016 1_556 S
C210 O211 1.244 . S
C210 O234 1.257 . S
O211 C210 1.244 . S
O212 Zn204 2.019 1_565 S
O212 C232 1.257 . S
Zn213 N209 2.016 1_554 S
Zn213 O220 1.974 1_544 S
Zn213 N229 2.117 1_554 S
Zn213 O234 2.024 . S
N214 Zn204 2.119 . S
N214 C216 1.334 . S
N214 C217 1.328 1_545 S
C215 C216 1.391 . S
C215 N218 1.329 1_545 S
C215 H236 0.930 . S
C216 N214 1.334 . S
C216 C215 1.391 . S
C216 H223 0.930 . S
C217 N214 1.328 1_565 S
C217 C219 1.392 . S
C217 H224 0.930 . S
N218 C215 1.329 1_565 S
N218 C219 1.331 . S
C219 C217 1.392 . S
C219 N218 1.331 . S
O220 Zn213 1.974 1_566 S
O220 C221 1.252 . S
C221 O220 1.252 . S
C221 O222 1.252 . S
O222 Zn204 1.975 1_565 S
O222 C221 1.252 . S
H223 C216 0.930 . S
H224 C217 0.930 . S
C225 C226 1.392 1_554 S
C225 N229 1.328 1_554 S
C225 H231 0.930 . S
C226 C225 1.392 1_556 S
C226 N230 1.331 1_545 S
C227 C228 1.391 1_565 S
C227 N230 1.329 . S
C227 H237 0.930 . S
C228 C227 1.391 1_545 S
C228 N229 1.334 . S
C228 H235 0.930 1_545 S
N229 Zn213 2.117 1_556 S
N229 C225 1.328 1_556 S
N229 C228 1.334 . S
N230 C226 1.331 1_565 S
N230 C227 1.329 . S
H231 C225 0.930 . S
C232 O212 1.257 . S
C232 O233 1.244 . S
O233 C232 1.244 . S
O234 C210 1.257 . S
O234 Zn213 2.024 . S
H235 C228 0.930 1_565 S
H236 C215 0.930 . S
H237 C227 0.930 . S
Zn238 N242 2.016 1_554 S
Zn238 O246 2.024 . S
Zn238 N248 2.117 1_554 S
Zn238 O256 1.974 1_564 S
C239 N240 1.334 . S
C239 N243 1.336 . S
N240 C239 1.334 . S
N240 C241 1.334 . S
C241 N240 1.334 . S
C241 N242 1.336 . S
N242 Zn238 2.016 1_556 S
N242 C241 1.336 . S
N242 N243 1.354 . S
N243 C239 1.336 . S
N243 N242 1.354 . S
N243 Zn247 2.020 . S
C244 O245 1.244 . S
C244 O268 1.257 . S
O245 C244 1.244 . S
O246 Zn238 2.024 . S
O246 C266 1.257 . S
Zn247 N243 2.020 . S
Zn247 O254 1.975 1_565 S
Zn247 N263 2.119 . S
Zn247 O268 2.019 1_565 S
N248 Zn238 2.117 1_556 S
N248 C250 1.334 . S
N248 C251 1.328 1_556 S
C249 C250 1.391 1_545 S
C249 N252 1.329 . S
C249 H270 0.930 . S
C250 N248 1.334 . S
C250 C249 1.391 1_565 S
C250 H257 0.930 1_565 S
C251 N248 1.328 1_554 S
C251 C253 1.392 1_554 S
C251 H258 0.930 . S
N252 C249 1.329 . S
N252 C253 1.331 1_545 S
C253 C251 1.392 1_556 S
C253 N252 1.331 1_565 S
O254 Zn247 1.975 1_545 S
O254 C255 1.252 . S
C255 O254 1.252 . S
C255 O256 1.252 . S
O256 Zn238 1.974 1_546 S
O256 C255 1.252 . S
H257 C250 0.930 1_545 S
H258 C251 0.930 . S
C259 C260 1.392 . S
C259 N263 1.328 1_545 S
C259 H265 0.930 . S
C260 C259 1.392 . S
C260 N264 1.331 . S
C261 C262 1.391 . S
C261 N264 1.329 1_565 S
C261 H271 0.930 . S
C262 C261 1.391 . S
C262 N263 1.334 . S
C262 H269 0.930 . S
N263 Zn247 2.119 . S
N263 C259 1.328 1_565 S
N263 C262 1.334 . S
N264 C260 1.331 . S
N264 C261 1.329 1_545 S
H265 C259 0.930 . S
C266 O246 1.257 . S
C266 O267 1.244 . S
O267 C266 1.244 . S
O268 C244 1.257 . S
O268 Zn247 2.019 1_545 S
H269 C262 0.930 . S
H270 C249 0.930 . S
H271 C261 0.930 . S
Zn272 N276 2.020 . S
Zn272 O280 2.019 . S
Zn272 N282 2.119 . S
Zn272 O290 1.975 . S
C273 N274 1.334 . S
C273 N277 1.336 . S
N274 C273 1.334 . S
N274 C275 1.334 . S
C275 N274 1.334 . S
C275 N276 1.336 . S
N276 Zn272 2.020 . S
N276 C275 1.336 . S
N276 N277 1.354 . S
N277 C273 1.336 . S
N277 N276 1.354 . S
N277 Zn281 2.020 . S
C278 O279 1.244 . S
C278 O302 1.257 . S
O279 C278 1.244 . S
O280 Zn272 2.019 . S
O280 C300 1.257 . S
Zn281 N277 2.020 . S
Zn281 O288 1.975 . S
Zn281 N297 2.119 . S
Zn281 O302 2.019 . S
N282 Zn272 2.119 . S
N282 C284 1.334 . S
N282 C285 1.328 . S
C283 C284 1.391 . S
C283 N286 1.329 . S
C283 H304 0.930 . S
C284 N282 1.334 . S
C284 C283 1.391 . S
C284 H291 0.930 . S
C285 N282 1.328 . S
C285 C287 1.392 . S
C285 H292 0.930 . S
N286 C283 1.329 . S
N286 C287 1.331 . S
C287 C285 1.392 . S
C287 N286 1.331 . S
O288 Zn281 1.975 . S
O288 C289 1.252 . S
C289 O288 1.252 . S
C289 O290 1.252 . S
O290 Zn272 1.975 . S
O290 C289 1.252 . S
H291 C284 0.930 . S
H292 C285 0.930 . S
C293 C294 1.392 . S
C293 N297 1.328 . S
C293 H299 0.930 . S
C294 C293 1.392 . S
C294 N298 1.331 . S
C295 C296 1.391 . S
C295 N298 1.329 . S
C295 H305 0.930 . S
C296 C295 1.391 . S
C296 N297 1.334 . S
C296 H303 0.930 . S
N297 Zn281 2.119 . S
N297 C293 1.328 . S
N297 C296 1.334 . S
N298 C294 1.331 . S
N298 C295 1.329 . S
H299 C293 0.930 . S
C300 O280 1.257 . S
C300 O301 1.244 . S
O301 C300 1.244 . S
O302 C278 1.257 . S
O302 Zn281 2.019 . S
H303 C296 0.930 . S
H304 C283 0.930 . S
H305 C295 0.930 . S
Zn306 N310 2.020 . S
Zn306 O314 2.019 . S
Zn306 N316 2.119 . S
Zn306 O324 1.975 . S
C307 N308 1.334 . S
C307 N311 1.336 . S
N308 C307 1.334 . S
N308 C309 1.334 . S
C309 N308 1.334 . S
C309 N310 1.336 . S
N310 Zn306 2.020 . S
N310 C309 1.336 . S
N310 N311 1.354 . S
N311 C307 1.336 . S
N311 N310 1.354 . S
N311 Zn315 2.020 . S
C312 O313 1.244 . S
C312 O336 1.257 . S
O313 C312 1.244 . S
O314 Zn306 2.019 . S
O314 C334 1.257 . S
Zn315 N311 2.020 . S
Zn315 O322 1.975 . S
Zn315 N331 2.119 . S
Zn315 O336 2.019 . S
N316 Zn306 2.119 . S
N316 C318 1.334 . S
N316 C319 1.328 . S
C317 C318 1.391 . S
C317 N320 1.329 . S
C317 H338 0.930 . S
C318 N316 1.334 . S
C318 C317 1.391 . S
C318 H325 0.930 . S
C319 N316 1.328 . S
C319 C321 1.392 . S
C319 H326 0.930 . S
N320 C317 1.329 . S
N320 C321 1.331 . S
C321 C319 1.392 . S
C321 N320 1.331 . S
O322 Zn315 1.975 . S
O322 C323 1.252 . S
C323 O322 1.252 . S
C323 O324 1.252 . S
O324 Zn306 1.975 . S
O324 C323 1.252 . S
H325 C318 0.930 . S
H326 C319 0.930 . S
C327 C328 1.392 . S
C327 N331 1.328 . S
C327 H333 0.930 . S
C328 C327 1.392 . S
C328 N332 1.331 . S
C329 C330 1.391 . S
C329 N332 1.329 . S
C329 H339 0.930 . S
C330 C329 1.391 . S
C330 N331 1.334 . S
C330 H337 0.930 . S
N331 Zn315 2.119 . S
N331 C327 1.328 . S
N331 C330 1.334 . S
N332 C328 1.331 . S
N332 C329 1.329 . S
H333 C327 0.930 . S
C334 O314 1.257 . S
C334 O335 1.244 . S
O335 C334 1.244 . S
O336 C312 1.257 . S
O336 Zn315 2.019 . S
H337 C330 0.930 . S
H338 C317 0.930 . S
H339 C329 0.930 . S
Zn340 N344 2.020 . S
Zn340 O348 2.019 . S
Zn340 N350 2.119 . S
Zn340 O358 1.975 . S
C341 N342 1.334 . S
C341 N345 1.336 . S
N342 C341 1.334 . S
N342 C343 1.334 . S
C343 N342 1.334 . S
C343 N344 1.336 . S
N344 Zn340 2.020 . S
N344 C343 1.336 . S
N344 N345 1.354 . S
N345 C341 1.336 . S
N345 N344 1.354 . S
N345 Zn349 2.016 1_554 S
C346 O347 1.244 . S
C346 O370 1.257 . S
O347 C346 1.244 . S
O348 Zn340 2.019 . S
O348 C368 1.257 . S
Zn349 N345 2.016 1_556 S
Zn349 O356 1.974 1_556 S
Zn349 N365 2.117 1_556 S
Zn349 O370 2.024 . S
N350 Zn340 2.119 . S
N350 C352 1.334 . S
N350 C353 1.328 . S
C351 C352 1.391 . S
C351 N354 1.329 . S
C351 H372 0.930 . S
C352 N350 1.334 . S
C352 C351 1.391 . S
C352 H359 0.930 . S
C353 N350 1.328 . S
C353 C355 1.392 . S
C353 H360 0.930 . S
N354 C351 1.329 . S
N354 C355 1.331 . S
C355 C353 1.392 . S
C355 N354 1.331 . S
O356 Zn349 1.974 1_554 S
O356 C357 1.252 . S
C357 O356 1.252 . S
C357 O358 1.252 . S
O358 Zn340 1.975 . S
O358 C357 1.252 . S
H359 C352 0.930 . S
H360 C353 0.930 . S
C361 C362 1.392 1_556 S
C361 N365 1.328 1_556 S
C361 H367 0.930 . S
C362 C361 1.392 1_554 S
C362 N366 1.331 . S
C363 C364 1.391 . S
C363 N366 1.329 . S
C363 H373 0.930 . S
C364 C363 1.391 . S
C364 N365 1.334 . S
C364 H371 0.930 . S
N365 Zn349 2.117 1_554 S
N365 C361 1.328 1_554 S
N365 C364 1.334 . S
N366 C362 1.331 . S
N366 C363 1.329 . S
H367 C361 0.930 . S
C368 O348 1.257 . S
C368 O369 1.244 . S
O369 C368 1.244 . S
O370 C346 1.257 . S
O370 Zn349 2.024 . S
H371 C364 0.930 . S
H372 C351 0.930 . S
H373 C363 0.930 . S
Zn374 N378 2.020 . S
Zn374 O382 2.019 . S
Zn374 N384 2.119 . S
Zn374 O392 1.975 . S
C375 N376 1.334 . S
C375 N379 1.336 . S
N376 C375 1.334 . S
N376 C377 1.334 . S
C377 N376 1.334 . S
C377 N378 1.336 . S
N378 Zn374 2.020 . S
N378 C377 1.336 . S
N378 N379 1.354 . S
N379 C375 1.336 . S
N379 N378 1.354 . S
N379 Zn383 2.016 1_554 S
C380 O381 1.244 . S
C380 O404 1.257 . S
O381 C380 1.244 . S
O382 Zn374 2.019 . S
O382 C402 1.257 . S
Zn383 N379 2.016 1_556 S
Zn383 O390 1.974 1_556 S
Zn383 N399 2.117 1_556 S
Zn383 O404 2.024 . S
N384 Zn374 2.119 . S
N384 C386 1.334 . S
N384 C387 1.328 . S
C385 C386 1.391 . S
C385 N388 1.329 . S
C385 H406 0.930 . S
C386 N384 1.334 . S
C386 C385 1.391 . S
C386 H393 0.930 . S
C387 N384 1.328 . S
C387 C389 1.392 . S
C387 H394 0.930 . S
N388 C385 1.329 . S
N388 C389 1.331 . S
C389 C387 1.392 . S
C389 N388 1.331 . S
O390 Zn383 1.974 1_554 S
O390 C391 1.252 . S
C391 O390 1.252 . S
C391 O392 1.252 . S
O392 Zn374 1.975 . S
O392 C391 1.252 . S
H393 C386 0.930 . S
H394 C387 0.930 . S
C395 C396 1.392 1_556 S
C395 N399 1.328 1_556 S
C395 H401 0.930 . S
C396 C395 1.392 1_554 S
C396 N400 1.331 . S
C397 C398 1.391 . S
C397 N400 1.329 . S
C397 H407 0.930 . S
C398 C397 1.391 . S
C398 N399 1.334 . S
C398 H405 0.930 . S
N399 Zn383 2.117 1_554 S
N399 C395 1.328 1_554 S
N399 C398 1.334 . S
N400 C396 1.331 . S
N400 C397 1.329 . S
H401 C395 0.930 . S
C402 O382 1.257 . S
C402 O403 1.244 . S
O403 C402 1.244 . S
O404 C380 1.257 . S
O404 Zn383 2.024 . S
H405 C398 0.930 . S
H406 C385 0.930 . S
H407 C397 0.930 . S
Zn408 N412 2.020 . S
Zn408 O416 2.019 . S
Zn408 N418 2.119 . S
Zn408 O426 1.975 . S
C409 N410 1.334 . S
C409 N413 1.336 . S
N410 C409 1.334 . S
N410 C411 1.334 . S
C411 N410 1.334 . S
C411 N412 1.336 . S
N412 Zn408 2.020 . S
N412 C411 1.336 . S
N412 N413 1.354 . S
N413 C409 1.336 . S
N413 N412 1.354 . S
N413 Zn417 2.020 . S
C414 O415 1.244 . S
C414 O438 1.257 . S
O415 C414 1.244 . S
O416 Zn408 2.019 . S
O416 C436 1.257 . S
Zn417 N413 2.020 . S
Zn417 O424 1.975 . S
Zn417 N433 2.119 . S
Zn417 O438 2.019 . S
N418 Zn408 2.119 . S
N418 C420 1.334 . S
N418 C421 1.328 . S
C419 C420 1.391 . S
C419 N422 1.329 . S
C419 H440 0.930 . S
C420 N418 1.334 . S
C420 C419 1.391 . S
C420 H427 0.930 . S
C421 N418 1.328 . S
C421 C423 1.392 . S
C421 H428 0.930 . S
N422 C419 1.329 . S
N422 C423 1.331 . S
C423 C421 1.392 . S
C423 N422 1.331 . S
O424 Zn417 1.975 . S
O424 C425 1.252 . S
C425 O424 1.252 . S
C425 O426 1.252 . S
O426 Zn408 1.975 . S
O426 C425 1.252 . S
H427 C420 0.930 . S
H428 C421 0.930 . S
C429 C430 1.392 . S
C429 N433 1.328 . S
C429 H435 0.930 . S
C430 C429 1.392 . S
C430 N434 1.331 . S
C431 C432 1.391 . S
C431 N434 1.329 . S
C431 H441 0.930 . S
C432 C431 1.391 . S
C432 N433 1.334 . S
C432 H439 0.930 . S
N433 Zn417 2.119 . S
N433 C429 1.328 . S
N433 C432 1.334 . S
N434 C430 1.331 . S
N434 C431 1.329 . S
H435 C429 0.930 . S
C436 O416 1.257 . S
C436 O437 1.244 . S
O437 C436 1.244 . S
O438 C414 1.257 . S
O438 Zn417 2.019 . S
H439 C432 0.930 . S
H440 C419 0.930 . S
H441 C431 0.930 . S
Zn442 N446 2.020 . S
Zn442 O450 2.019 . S
Zn442 N452 2.119 . S
Zn442 O460 1.975 . S
C443 N444 1.334 . S
C443 N447 1.336 . S
N444 C443 1.334 . S
N444 C445 1.334 . S
C445 N444 1.334 . S
C445 N446 1.336 . S
N446 Zn442 2.020 . S
N446 C445 1.336 . S
N446 N447 1.354 . S
N447 C443 1.336 . S
N447 N446 1.354 . S
N447 Zn451 2.020 . S
C448 O449 1.244 . S
C448 O472 1.257 . S
O449 C448 1.244 . S
O450 Zn442 2.019 . S
O450 C470 1.257 . S
Zn451 N447 2.020 . S
Zn451 O458 1.975 . S
Zn451 N467 2.119 . S
Zn451 O472 2.019 . S
N452 Zn442 2.119 . S
N452 C454 1.334 . S
N452 C455 1.328 . S
C453 C454 1.391 . S
C453 N456 1.329 . S
C453 H474 0.930 . S
C454 N452 1.334 . S
C454 C453 1.391 . S
C454 H461 0.930 . S
C455 N452 1.328 . S
C455 C457 1.392 . S
C455 H462 0.930 . S
N456 C453 1.329 . S
N456 C457 1.331 . S
C457 C455 1.392 . S
C457 N456 1.331 . S
O458 Zn451 1.975 . S
O458 C459 1.252 . S
C459 O458 1.252 . S
C459 O460 1.252 . S
O460 Zn442 1.975 . S
O460 C459 1.252 . S
H461 C454 0.930 . S
H462 C455 0.930 . S
C463 C464 1.392 . S
C463 N467 1.328 . S
C463 H469 0.930 . S
C464 C463 1.392 . S
C464 N468 1.331 . S
C465 C466 1.391 . S
C465 N468 1.329 . S
C465 H475 0.930 . S
C466 C465 1.391 . S
C466 N467 1.334 . S
C466 H473 0.930 . S
N467 Zn451 2.119 . S
N467 C463 1.328 . S
N467 C466 1.334 . S
N468 C464 1.331 . S
N468 C465 1.329 . S
H469 C463 0.930 . S
C470 O450 1.257 . S
C470 O471 1.244 . S
O471 C470 1.244 . S
O472 C448 1.257 . S
O472 Zn451 2.019 . S
H473 C466 0.930 . S
H474 C453 0.930 . S
H475 C465 0.930 . S
Zn476 N480 2.016 1_554 S
Zn476 O484 2.024 . S
Zn476 N486 2.117 1_554 S
Zn476 O494 1.974 1_554 S
C477 N478 1.334 . S
C477 N481 1.336 . S
N478 C477 1.334 . S
N478 C479 1.334 . S
C479 N478 1.334 . S
C479 N480 1.336 . S
N480 Zn476 2.016 1_556 S
N480 C479 1.336 . S
N480 N481 1.354 . S
N481 C477 1.336 . S
N481 N480 1.354 . S
N481 Zn485 2.020 . S
C482 O483 1.244 . S
C482 O506 1.257 . S
O483 C482 1.244 . S
O484 Zn476 2.024 . S
O484 C504 1.257 . S
Zn485 N481 2.020 . S
Zn485 O492 1.975 . S
Zn485 N501 2.119 . S
Zn485 O506 2.019 . S
N486 Zn476 2.117 1_556 S
N486 C488 1.334 . S
N486 C489 1.328 1_556 S
C487 C488 1.391 . S
C487 N490 1.329 . S
C487 H508 0.930 . S
C488 N486 1.334 . S
C488 C487 1.391 . S
C488 H495 0.930 . S
C489 N486 1.328 1_554 S
C489 C491 1.392 1_554 S
C489 H496 0.930 . S
N490 C487 1.329 . S
N490 C491 1.331 . S
C491 C489 1.392 1_556 S
C491 N490 1.331 . S
O492 Zn485 1.975 . S
O492 C493 1.252 . S
C493 O492 1.252 . S
C493 O494 1.252 . S
O494 Zn476 1.974 1_556 S
O494 C493 1.252 . S
H495 C488 0.930 . S
H496 C489 0.930 . S
C497 C498 1.392 . S
C497 N501 1.328 . S
C497 H503 0.930 . S
C498 C497 1.392 . S
C498 N502 1.331 . S
C499 C500 1.391 . S
C499 N502 1.329 . S
C499 H509 0.930 . S
C500 C499 1.391 . S
C500 N501 1.334 . S
C500 H507 0.930 . S
N501 Zn485 2.119 . S
N501 C497 1.328 . S
N501 C500 1.334 . S
N502 C498 1.331 . S
N502 C499 1.329 . S
H503 C497 0.930 . S
C504 O484 1.257 . S
C504 O505 1.244 . S
O505 C504 1.244 . S
O506 C482 1.257 . S
O506 Zn485 2.019 . S
H507 C500 0.930 . S
H508 C487 0.930 . S
H509 C499 0.930 . S
Zn510 N514 2.016 1_554 S
Zn510 O518 2.024 . S
Zn510 N520 2.117 1_554 S
Zn510 O528 1.974 1_554 S
C511 N512 1.334 . S
C511 N515 1.336 . S
N512 C511 1.334 . S
N512 C513 1.334 . S
C513 N512 1.334 . S
C513 N514 1.336 . S
N514 Zn510 2.016 1_556 S
N514 C513 1.336 . S
N514 N515 1.354 . S
N515 C511 1.336 . S
N515 N514 1.354 . S
N515 Zn519 2.020 . S
C516 O517 1.244 . S
C516 O540 1.257 . S
O517 C516 1.244 . S
O518 Zn510 2.024 . S
O518 C538 1.257 . S
Zn519 N515 2.020 . S
Zn519 O526 1.975 . S
Zn519 N535 2.119 . S
Zn519 O540 2.019 . S
N520 Zn510 2.117 1_556 S
N520 C522 1.334 . S
N520 C523 1.328 1_556 S
C521 C522 1.391 . S
C521 N524 1.329 . S
C521 H542 0.930 . S
C522 N520 1.334 . S
C522 C521 1.391 . S
C522 H529 0.930 . S
C523 N520 1.328 1_554 S
C523 C525 1.392 1_554 S
C523 H530 0.930 . S
N524 C521 1.329 . S
N524 C525 1.331 . S
C525 C523 1.392 1_556 S
C525 N524 1.331 . S
O526 Zn519 1.975 . S
O526 C527 1.252 . S
C527 O526 1.252 . S
C527 O528 1.252 . S
O528 Zn510 1.974 1_556 S
O528 C527 1.252 . S
H529 C522 0.930 . S
H530 C523 0.930 . S
C531 C532 1.392 . S
C531 N535 1.328 . S
C531 H537 0.930 . S
C532 C531 1.392 . S
C532 N536 1.331 . S
C533 C534 1.391 . S
C533 N536 1.329 . S
C533 H543 0.930 . S
C534 C533 1.391 . S
C534 N535 1.334 . S
C534 H541 0.930 . S
N535 Zn519 2.119 . S
N535 C531 1.328 . S
N535 C534 1.334 . S
N536 C532 1.331 . S
N536 C533 1.329 . S
H537 C531 0.930 . S
C538 O518 1.257 . S
C538 O539 1.244 . S
O539 C538 1.244 . S
O540 C516 1.257 . S
O540 Zn519 2.019 . S
H541 C534 0.930 . S
H542 C521 0.930 . S
H543 C533 0.930 . S
C15 C151 1.502 1_445 S
C185 C49 1.502 1_545 S
C226 C83 1.502 1_546 S
C253 C117 1.502 1_466 S
C287 C423 1.502 . S
C457 C321 1.502 1_455 S
C362 C491 1.502 1_454 S
C396 C525 1.502 1_554 S
C17 C445 2.830 . S
C51 C411 2.830 . S
C85 C513 2.830 1_554 S
C479 C119 2.830 1_556 S
C153 C309 2.830 . S
C187 C275 2.830 . S
C375 C221 2.830 1_554 S
C255 C341 2.830 1_556 S
C289 C173 2.830 . S
C139 C323 2.830 . S
C357 C241 2.830 1_554 S
C391 C205 2.830 1_554 S
C425 C37 2.830 . S
C3 C459 2.830 . S
C105 C493 2.830 1_554 S
C527 C71 2.830 1_556 S
C56 C22 1.968 1_545 S
C90 C124 1.968 1_545 S
C158 C192 1.968 1_545 S
C219 C260 1.968 1_565 S
C328 C294 1.968 . S
C389 C355 1.968 . S
C464 C430 1.968 . S
C498 C532 1.968 . S
C6 C266 1.203 . S
C210 C40 1.202 . S
C74 C198 1.203 . S
C164 C108 1.202 . S
C142 C130 1.203 . S
C176 C96 1.202 . S
C232 C62 1.203 . S
C28 C244 1.202 . S
C278 C538 1.203 . S
C312 C504 1.202 . S
C470 C368 1.203 . S
C402 C436 1.202 . S
C414 C380 1.203 . S
C448 C346 1.202 . S
C482 C334 1.203 . S
C300 C516 1.202 . S
C343 C1 2.860 . S
C35 C377 2.860 . S
C273 C69 2.860 . S
C103 C307 2.860 . S
C137 C477 2.860 . S
C511 C171 2.860 . S
C409 C207 2.860 . S
C443 C239 2.860 . S
