# Generated by pormake.
# Topology cag, (4)-cn, num edge types: 1
# Building blocks:
#     Node 0, Type 0, BuildingBlock: CEKHIL_clean_sbu_0, # of connection points: 4
#     Node 1, Type 0, BuildingBlock: CEKHIL_clean_sbu_0, # of connection points: 4
#     Node 2, Type 0, BuildingBlock: CEKHIL_clean_sbu_0, # of connection points: 4
#     Node 3, Type 0, BuildingBlock: CEKHIL_clean_sbu_0, # of connection points: 4
#     Node 4, Type 0, BuildingBlock: CEKHIL_clean_sbu_0, # of connection points: 4
#     Node 5, Type 0, BuildingBlock: CEKHIL_clean_sbu_0, # of connection points: 4
#     Node 6, Type 0, BuildingBlock: CEKHIL_clean_sbu_0, # of connection points: 4
#     Node 7, Type 0, BuildingBlock: CEKHIL_clean_sbu_0, # of connection points: 4
#     Node 8, Type 0, BuildingBlock: CEKHIL_clean_sbu_0, # of connection points: 4
#     Node 9, Type 0, BuildingBlock: CEKHIL_clean_sbu_0, # of connection points: 4
#     Node 10, Type 0, BuildingBlock: CEKHIL_clean_sbu_0, # of connection points: 4
#     Node 11, Type 0, BuildingBlock: CEKHIL_clean_sbu_0, # of connection points: 4
#     Node 12, Type 0, BuildingBlock: CEKHIL_clean_sbu_0, # of connection points: 4
#     Node 13, Type 0, BuildingBlock: CEKHIL_clean_sbu_0, # of connection points: 4
#     Node 14, Type 0, BuildingBlock: CEKHIL_clean_sbu_0, # of connection points: 4
#     Node 15, Type 0, BuildingBlock: CEKHIL_clean_sbu_0, # of connection points: 4
#     Edge 16, Type (0, 0), BuildingBlock: OJICUG_clean_linker_0, # of connection points: 2
#     Edge 17, Type (0, 0), BuildingBlock: OJICUG_clean_linker_0, # of connection points: 2
#     Edge 18, Type (0, 0), BuildingBlock: OJICUG_clean_linker_0, # of connection points: 2
#     Edge 19, Type (0, 0), BuildingBlock: OJICUG_clean_linker_0, # of connection points: 2
#     Edge 20, Type (0, 0), BuildingBlock: OJICUG_clean_linker_0, # of connection points: 2
#     Edge 21, Type (0, 0), BuildingBlock: OJICUG_clean_linker_0, # of connection points: 2
#     Edge 22, Type (0, 0), BuildingBlock: OJICUG_clean_linker_0, # of connection points: 2
#     Edge 23, Type (0, 0), BuildingBlock: OJICUG_clean_linker_0, # of connection points: 2
#     Edge 24, Type (0, 0), BuildingBlock: OJICUG_clean_linker_0, # of connection points: 2
#     Edge 25, Type (0, 0), BuildingBlock: OJICUG_clean_linker_0, # of connection points: 2
#     Edge 26, Type (0, 0), BuildingBlock: OJICUG_clean_linker_0, # of connection points: 2
#     Edge 27, Type (0, 0), BuildingBlock: OJICUG_clean_linker_0, # of connection points: 2
#     Edge 28, Type (0, 0), BuildingBlock: OJICUG_clean_linker_0, # of connection points: 2
#     Edge 29, Type (0, 0), BuildingBlock: OJICUG_clean_linker_0, # of connection points: 2
#     Edge 30, Type (0, 0), BuildingBlock: OJICUG_clean_linker_0, # of connection points: 2
#     Edge 31, Type (0, 0), BuildingBlock: OJICUG_clean_linker_0, # of connection points: 2
#     Edge 32, Type (0, 0), BuildingBlock: OJICUG_clean_linker_0, # of connection points: 2
#     Edge 33, Type (0, 0), BuildingBlock: OJICUG_clean_linker_0, # of connection points: 2
#     Edge 34, Type (0, 0), BuildingBlock: OJICUG_clean_linker_0, # of connection points: 2
#     Edge 35, Type (0, 0), BuildingBlock: OJICUG_clean_linker_0, # of connection points: 2
#     Edge 36, Type (0, 0), BuildingBlock: OJICUG_clean_linker_0, # of connection points: 2
#     Edge 37, Type (0, 0), BuildingBlock: OJICUG_clean_linker_0, # of connection points: 2
#     Edge 38, Type (0, 0), BuildingBlock: OJICUG_clean_linker_0, # of connection points: 2
#     Edge 39, Type (0, 0), BuildingBlock: OJICUG_clean_linker_0, # of connection points: 2
#     Edge 40, Type (0, 0), BuildingBlock: OJICUG_clean_linker_0, # of connection points: 2
#     Edge 41, Type (0, 0), BuildingBlock: OJICUG_clean_linker_0, # of connection points: 2
#     Edge 42, Type (0, 0), BuildingBlock: OJICUG_clean_linker_0, # of connection points: 2
#     Edge 43, Type (0, 0), BuildingBlock: OJICUG_clean_linker_0, # of connection points: 2
#     Edge 44, Type (0, 0), BuildingBlock: OJICUG_clean_linker_0, # of connection points: 2
#     Edge 45, Type (0, 0), BuildingBlock: OJICUG_clean_linker_0, # of connection points: 2
#     Edge 46, Type (0, 0), BuildingBlock: OJICUG_clean_linker_0, # of connection points: 2
#     Edge 47, Type (0, 0), BuildingBlock: OJICUG_clean_linker_0, # of connection points: 2
# Relax obj value: 0.093
# Max RMSD: 0.131
# Mean RMSD: 0.130
data_MOF--net-cag--node1-CEKHIL_clean_sbu_0--edge1-OJICUG_clean_linker_0
_symmetry_space_group_name_H-M    P1
_symmetry_Int_Tables_number       1
_symmetry_cell_setting            triclinic
loop_
_symmetry_equiv_pos_as_xyz
'x, y, z'
_cell_length_a     32.094889
_cell_length_b     35.25796
_cell_length_c     28.991073
_cell_angle_alpha  89.836576
_cell_angle_beta   90.070589
_cell_angle_gamma 89.936833
loop_
_atom_site_label
_atom_site_type_symbol
_atom_site_fract_x
_atom_site_fract_y
_atom_site_fract_z
_atom_type_partial_charge
Co0 Co 0.32075 0.1385 0.07966 0.0
O1 O 0.26535 0.15234 0.05881 0.0
O2 O 0.32097 0.1892 0.05442 0.0
C3 C 0.32132 0.08055 0.04672 0.0
O4 O 0.3833 0.13484 0.09369 0.0
Co5 Co 0.34155 0.07038 0.14308 0.0
O6 O 0.39735 0.07487 0.11448 0.0
C7 C 0.3038 0.13975 0.18304 0.0
C8 C 0.28168 0.18429 0.04556 0.0
C9 C 0.40895 0.10711 0.09956 0.0
O10 O 0.30673 0.15744 0.14411 0.0
O11 O 0.31443 0.10504 0.18875 0.0
O12 O 0.32982 0.11057 0.02239 0.0
O13 O 0.31056 0.08657 0.08898 0.0
Co14 Co 0.18966 0.86893 0.57768 0.0
O15 O 0.24552 0.8562 0.55726 0.0
O16 O 0.19039 0.81888 0.55125 0.0
C17 C 0.18758 0.92754 0.5464 0.0
O18 O 0.12696 0.87127 0.59001 0.0
Co19 Co 0.16751 0.93497 0.64349 0.0
O20 O 0.10905 0.92536 0.62565 0.0
C21 C 0.20823 0.86611 0.68069 0.0
C22 C 0.22965 0.82437 0.54302 0.0
C23 C 0.09944 0.89486 0.60489 0.0
O24 O 0.20356 0.8487 0.64188 0.0
O25 O 0.19824 0.90084 0.68693 0.0
O26 O 0.18045 0.89786 0.52111 0.0
O27 O 0.1985 0.92087 0.58856 0.0
Co28 Co 0.31874 0.86977 0.94287 0.0
O29 O 0.26266 0.85728 0.96274 0.0
O30 O 0.31757 0.81963 0.96943 0.0
C31 C 0.32082 0.92831 0.97409 0.0
O32 O 0.38156 0.87187 0.93099 0.0
Co33 Co 0.34123 0.93577 0.87687 0.0
O34 O 0.39968 0.92567 0.89453 0.0
C35 C 0.3009 0.86702 0.83967 0.0
C36 C 0.27824 0.82528 0.97712 0.0
C37 C 0.40918 0.8952 0.91568 0.0
O38 O 0.30525 0.84967 0.87869 0.0
O39 O 0.31093 0.90172 0.83323 0.0
O40 O 0.32767 0.89847 0.99942 0.0
O41 O 0.31009 0.92187 0.93185 0.0
Co42 Co 0.18964 0.13908 0.4441 0.0
O43 O 0.24526 0.15159 0.46562 0.0
O44 O 0.19021 0.1892 0.47044 0.0
C45 C 0.18707 0.0805 0.47544 0.0
O46 O 0.12709 0.13695 0.43041 0.0
Co47 Co 0.16835 0.073 0.37797 0.0
O48 O 0.10957 0.08312 0.39395 0.0
C49 C 0.21047 0.14136 0.34178 0.0
C50 C 0.22935 0.18355 0.47942 0.0
C51 C 0.09971 0.11362 0.4146 0.0
O52 O 0.2046 0.1591 0.38017 0.0
O53 O 0.20075 0.10659 0.33558 0.0
O54 O 0.17957 0.11022 0.50054 0.0
O55 O 0.19854 0.08711 0.4335 0.0
Co56 Co 0.67363 0.88174 0.91418 0.0
O57 O 0.72859 0.8861 0.8858 0.0
O58 O 0.67135 0.86836 0.84964 0.0
C59 C 0.67439 0.9376 0.95285 0.0
O60 O 0.61126 0.87608 0.92635 0.0
Co61 Co 0.65343 0.87955 0.01895 0.0
O62 O 0.59419 0.88391 1.00075 0.0
C63 C 0.69233 0.81311 0.97435 0.0
C64 C 0.71076 0.87601 0.84732 0.0
C65 C 0.58407 0.87947 0.95868 0.0
O66 O 0.68674 0.82747 0.93372 0.0
O67 O 0.6837 0.83047 0.01178 0.0
O68 O 0.66582 0.93681 0.90896 0.0
O69 O 0.68478 0.90554 0.97098 0.0
Co70 Co 0.83456 0.12797 0.41169 0.0
O71 O 0.77917 0.12479 0.38388 0.0
O72 O 0.83643 0.14134 0.34701 0.0
C73 C 0.83275 0.07208 0.45077 0.0
O74 O 0.89722 0.13243 0.4234 0.0
Co75 Co 0.85551 0.12959 0.51641 0.0
O76 O 0.91451 0.12466 0.49787 0.0
C77 C 0.81917 0.19736 0.47148 0.0
C78 C 0.79679 0.13458 0.34516 0.0
C79 C 0.9245 0.12889 0.45573 0.0
O80 O 0.8231 0.18252 0.43096 0.0
O81 O 0.82789 0.17992 0.50898 0.0
O82 O 0.84095 0.07271 0.4068 0.0
O83 O 0.8233 0.10436 0.4687 0.0
Co84 Co 0.67153 0.12986 0.10227 0.0
O85 O 0.72632 0.12604 0.13109 0.0
O86 O 0.66891 0.14373 0.16682 0.0
C87 C 0.67389 0.07353 0.0646 0.0
O88 O 0.60914 0.13546 0.08858 0.0
Co89 Co 0.65236 0.12985 0.99721 0.0
O90 O 0.59602 0.11402 0.01728 0.0
C91 C 0.68686 0.19888 0.04133 0.0
C92 C 0.70841 0.13622 0.16939 0.0
C93 C 0.58386 0.12334 0.05741 0.0
O94 O 0.68404 0.18397 0.08202 0.0
O95 O 0.67737 0.18143 1.00414 0.0
O96 O 0.66438 0.0747 0.10821 0.0
O97 O 0.68382 0.10557 0.04622 0.0
Co98 Co 0.83502 0.8811 0.60424 0.0
O99 O 0.77985 0.88491 0.63227 0.0
O100 O 0.83728 0.86825 0.66901 0.0
C101 C 0.8333 0.93671 0.5646 0.0
O102 O 0.89753 0.87618 0.59259 0.0
Co103 Co 0.85597 0.87857 0.49973 0.0
O104 O 0.91502 0.88369 0.51823 0.0
C105 C 0.81927 0.81131 0.54527 0.0
C106 C 0.79773 0.87541 0.67103 0.0
C107 C 0.92489 0.8796 0.56045 0.0
O108 O 0.82319 0.82648 0.58561 0.0
O109 O 0.8282 0.82838 0.50761 0.0
O110 O 0.84172 0.9363 0.60854 0.0
O111 O 0.82367 0.90437 0.54693 0.0
Co112 Co 0.82088 0.63961 0.07874 0.0
O113 O 0.76588 0.65387 0.05702 0.0
O114 O 0.82178 0.69042 0.05382 0.0
C115 C 0.82145 0.58177 0.0455 0.0
O116 O 0.88322 0.63546 0.09379 0.0
Co117 Co 0.8402 0.57107 0.14214 0.0
O118 O 0.89643 0.57531 0.11454 0.0
C119 C 0.80245 0.64054 0.18182 0.0
C120 C 0.78259 0.68579 0.04423 0.0
C121 C 0.90853 0.6075 0.09996 0.0
O122 O 0.80614 0.6584 0.14308 0.0
O123 O 0.81264 0.60573 0.18749 0.0
O124 O 0.83051 0.61181 0.02146 0.0
O125 O 0.81015 0.58774 0.0876 0.0
Co126 Co 0.69014 0.36891 0.57641 0.0
O127 O 0.74579 0.35628 0.5552 0.0
O128 O 0.69067 0.31887 0.54995 0.0
C129 C 0.68768 0.42754 0.54518 0.0
O130 O 0.62758 0.37114 0.5896 0.0
Co131 Co 0.66851 0.43495 0.64246 0.0
O132 O 0.60986 0.42513 0.62559 0.0
C133 C 0.7099 0.36622 0.67911 0.0
C134 C 0.72982 0.32443 0.54113 0.0
C135 C 0.60013 0.39461 0.60494 0.0
O136 O 0.70477 0.34872 0.64042 0.0
O137 O 0.69996 0.40094 0.6854 0.0
O138 O 0.68028 0.39787 0.51997 0.0
O139 O 0.69901 0.42086 0.5872 0.0
Co140 Co 0.81916 0.37103 0.9415 0.0
O141 O 0.76287 0.35858 0.96065 0.0
O142 O 0.81771 0.32092 0.96809 0.0
C143 C 0.821 0.42959 0.97265 0.0
O144 O 0.88208 0.37307 0.93044 0.0
Co145 Co 0.84244 0.43689 0.87567 0.0
O146 O 0.90068 0.42683 0.89419 0.0
C147 C 0.8026 0.36806 0.83803 0.0
C148 C 0.7783 0.32658 0.97525 0.0
C149 C 0.9099 0.39636 0.9155 0.0
O150 O 0.80635 0.35085 0.8772 0.0
O151 O 0.81282 0.40272 0.83159 0.0
O152 O 0.82753 0.39976 0.9981 0.0
O153 O 0.81069 0.42314 0.93029 0.0
Co154 Co 0.68931 0.63914 0.44313 0.0
O155 O 0.74506 0.65182 0.46404 0.0
O156 O 0.68991 0.68925 0.46947 0.0
C157 C 0.68716 0.58055 0.47444 0.0
O158 O 0.62665 0.63684 0.43017 0.0
Co159 Co 0.66761 0.57308 0.37716 0.0
O160 O 0.60899 0.58287 0.39414 0.0
C161 C 0.70913 0.64159 0.34055 0.0
C162 C 0.72915 0.68373 0.47801 0.0
C163 C 0.59922 0.61335 0.41488 0.0
O164 O 0.70363 0.65925 0.37906 0.0
O165 O 0.69939 0.60682 0.33437 0.0
O166 O 0.67983 0.61024 0.49966 0.0
O167 O 0.69826 0.5872 0.43238 0.0
Co168 Co 0.17412 0.38093 0.91685 0.0
O169 O 0.22928 0.3848 0.88876 0.0
O170 O 0.17198 0.36766 0.85229 0.0
C171 C 0.17529 0.43672 0.95565 0.0
O172 O 0.11163 0.37587 0.92854 0.0
Co173 Co 0.15313 0.37883 0.02141 0.0
O174 O 0.0941 0.38401 1.00274 0.0
C175 C 0.19106 0.31182 0.97696 0.0
C176 C 0.21148 0.37494 0.85017 0.0
C177 C 0.08424 0.37963 0.96059 0.0
O178 O 0.18645 0.32651 0.93634 0.0
O179 O 0.18212 0.32911 0.01435 0.0
O180 O 0.16699 0.43607 0.91169 0.0
O181 O 0.18521 0.40454 0.97381 0.0
Co182 Co 0.33425 0.62741 0.4149 0.0
O183 O 0.27877 0.62423 0.38726 0.0
O184 O 0.33595 0.64077 0.35025 0.0
C185 C 0.33259 0.57154 0.454 0.0
O186 O 0.39694 0.63186 0.42624 0.0
Co187 Co 0.35581 0.62906 0.51942 0.0
O188 O 0.41472 0.62401 0.50055 0.0
C189 C 0.31935 0.69689 0.47471 0.0
C190 C 0.29631 0.634 0.34849 0.0
C191 C 0.42443 0.62826 0.45833 0.0
O192 O 0.3229 0.68197 0.4342 0.0
O193 O 0.32837 0.6795 0.51216 0.0
O194 O 0.34061 0.57216 0.40999 0.0
O195 O 0.32323 0.60382 0.472 0.0
Co196 Co 0.17154 0.62888 0.1053 0.0
O197 O 0.22621 0.6251 0.13437 0.0
O198 O 0.16865 0.64275 0.16985 0.0
C199 C 0.17417 0.57254 0.06765 0.0
O200 O 0.1092 0.63445 0.09127 0.0
Co201 Co 0.15284 0.62876 1.00012 0.0
O202 O 0.09635 0.61311 0.01987 0.0
C203 C 0.18721 0.6978 0.04436 0.0
C204 C 0.20815 0.63528 0.17259 0.0
C205 C 0.08402 0.62246 0.05993 0.0
O206 O 0.18411 0.68299 0.08508 0.0
O207 O 0.17795 0.68028 1.00714 0.0
O208 O 0.16442 0.57369 0.11119 0.0
O209 O 0.18411 0.60459 0.04933 0.0
Co210 Co 0.33558 0.3803 0.60698 0.0
O211 O 0.28052 0.38403 0.63524 0.0
O212 O 0.33805 0.36728 0.67173 0.0
C213 C 0.3337 0.43602 0.56758 0.0
O214 O 0.39806 0.37542 0.59496 0.0
Co215 Co 0.35595 0.37807 0.50228 0.0
O216 O 0.41507 0.38314 0.52047 0.0
C217 C 0.31941 0.31072 0.54777 0.0
C218 C 0.2985 0.37443 0.6739 0.0
C219 C 0.42521 0.37895 0.5626 0.0
O220 O 0.32365 0.32573 0.58817 0.0
O221 O 0.32808 0.32793 0.51013 0.0
O222 O 0.3423 0.43551 0.61147 0.0
O223 O 0.32398 0.40373 0.54985 0.0
C224 C 0.27685 0.24116 0.99376 0.0
C225 C 0.25696 0.21377 0.02139 0.0
H226 H 0.27057 0.29318 0.95564 0.0
C227 C 0.21358 0.21579 0.02713 0.0
H228 H 0.31022 0.24007 0.98836 0.0
C229 C 0.19107 0.24633 1.0087 0.0
C230 C 0.2113 0.27464 0.98294 0.0
H231 H 0.19742 0.19504 0.04812 0.0
H232 H 0.15823 0.24896 0.0167 0.0
C233 C 0.25412 0.27116 0.97433 0.0
C234 C 0.32005 0.76174 0.50801 0.0
C235 C 0.29999 0.73445 0.48059 0.0
H236 H 0.3136 0.8122 0.54867 0.0
C237 C 0.2577 0.73922 0.46987 0.0
H238 H 0.35248 0.75814 0.51752 0.0
C239 C 0.23512 0.76927 0.4891 0.0
C240 C 0.25468 0.79547 0.51855 0.0
H241 H 0.24135 0.71805 0.44978 0.0
H242 H 0.202 0.77123 0.48222 0.0
C243 C 0.29773 0.79238 0.52622 0.0
C244 C 0.27163 0.77024 0.03132 0.0
C245 C 0.25274 0.79633 1.00098 0.0
H246 H 0.26458 0.71917 0.07107 0.0
C247 C 0.20994 0.79306 0.99182 0.0
H248 H 0.30453 0.77234 0.03932 0.0
C249 C 0.18731 0.76238 1.00955 0.0
C250 C 0.20673 0.73525 0.038 0.0
H251 H 0.1946 0.81279 0.96866 0.0
H252 H 0.15516 0.75869 0.99904 0.0
C253 C 0.24869 0.74019 0.05011 0.0
C254 C 0.31993 0.24536 0.51598 0.0
C255 C 0.29971 0.2733 0.54227 0.0
H256 H 0.3136 0.19448 0.47611 0.0
C257 C 0.25711 0.2693 0.55174 0.0
H258 H 0.3526 0.24838 0.50737 0.0
C259 C 0.23449 0.23932 0.53243 0.0
C260 C 0.25427 0.21244 0.50409 0.0
H261 H 0.24065 0.291 0.57088 0.0
H262 H 0.2012 0.23796 0.53834 0.0
C263 C 0.29754 0.21481 0.49768 0.0
C264 C 0.77897 0.74401 0.99452 0.0
C265 C 0.75839 0.71546 0.01969 0.0
H266 H 0.77331 0.79687 0.95805 0.0
C267 C 0.71471 0.71639 0.02247 0.0
H268 H 0.8126 0.74385 0.99141 0.0
C269 C 0.69236 0.74684 1.00354 0.0
C270 C 0.71316 0.77622 0.98025 0.0
H271 H 0.69799 0.69475 0.04149 0.0
H272 H 0.65906 0.74854 1.00931 0.0
C273 C 0.75649 0.77398 0.97468 0.0
C274 C 0.7571 0.23914 0.46787 0.0
C275 C 0.7997 0.23486 0.4773 0.0
H276 H 0.70135 0.27065 0.48164 0.0
C277 C 0.8201 0.2625 0.50387 0.0
H278 H 0.74051 0.21767 0.44852 0.0
C279 C 0.79787 0.29302 0.52253 0.0
C280 C 0.7546 0.29563 0.51618 0.0
H281 H 0.85278 0.25925 0.51244 0.0
H282 H 0.81406 0.31312 0.54431 0.0
C283 C 0.73464 0.26908 0.48753 0.0
C284 C 0.70998 0.29404 0.98859 0.0
C285 C 0.75256 0.2976 0.99872 0.0
H286 H 0.65533 0.25937 0.99475 0.0
C287 C 0.77109 0.27173 0.02961 0.0
H288 H 0.69493 0.31359 0.96497 0.0
C289 C 0.74802 0.24161 0.04804 0.0
C290 C 0.70634 0.23635 0.03498 0.0
H291 H 0.80381 0.27406 0.03834 0.0
H292 H 0.76366 0.22078 0.0695 0.0
C293 C 0.68725 0.26327 1.00595 0.0
C294 C 0.81974 0.74601 0.51326 0.0
C295 C 0.79965 0.77385 0.53984 0.0
H296 H 0.81327 0.69509 0.47349 0.0
C297 C 0.7572 0.76961 0.54994 0.0
H298 H 0.8523 0.74919 0.50419 0.0
C299 C 0.73455 0.73951 0.53095 0.0
C300 C 0.75417 0.71274 0.50233 0.0
H301 H 0.74083 0.79121 0.56934 0.0
H302 H 0.70134 0.73796 0.53734 0.0
C303 C 0.79734 0.71534 0.49529 0.0
C304 C 0.3244 0.01028 0.05784 0.0
C305 C 0.32428 0.04173 0.02793 0.0
H306 H 0.32411 0.94974 0.06423 0.0
C307 C 0.32522 0.03558 0.98011 0.0
H308 H 0.32387 0.01412 0.09489 0.0
C309 C 0.32473 0.99865 0.96255 0.0
C310 C 0.32404 0.96723 0.99251 0.0
H311 H 0.32513 0.05929 0.95626 0.0
H312 H 0.32447 0.99473 0.92551 0.0
C313 C 0.32465 0.9734 0.04031 0.0
C314 C 0.18337 0.99765 0.55852 0.0
C315 C 0.1841 0.96659 0.52824 0.0
H316 H 0.18301 0.05815 0.5655 0.0
C317 C 0.18336 0.97329 0.4805 0.0
H318 H 0.18371 0.99332 0.59552 0.0
C319 C 0.18355 0.01039 0.46335 0.0
C320 C 0.18376 0.04146 0.49363 0.0
H321 H 0.18391 0.9499 0.45636 0.0
H322 H 0.18406 0.01472 0.42635 0.0
C323 C 0.18284 0.03475 0.54137 0.0
C324 C 0.67089 0.00839 0.96058 0.0
C325 C 0.67133 0.97239 0.98127 0.0
H326 H 0.67189 0.06845 0.97069 0.0
C327 C 0.67063 0.96986 0.02978 0.0
H328 H 0.67149 0.01128 0.92338 0.0
C329 C 0.67014 1.00263 0.05701 0.0
C330 C 0.67116 0.03863 0.03631 0.0
H331 H 0.67083 0.94249 0.04682 0.0
H332 H 0.67014 0.99976 0.09422 0.0
C333 C 0.67121 0.04113 0.9878 0.0
C334 C 0.83611 0.04011 0.52807 0.0
C335 C 0.83559 0.03734 0.4796 0.0
H336 H 0.8365 0.0106 0.59293 0.0
C337 C 0.8362 1.00121 0.45944 0.0
H338 H 0.83577 0.06755 0.54475 0.0
C339 C 0.83596 0.96859 0.48716 0.0
C340 C 0.83587 0.97138 0.53563 0.0
H341 H 0.83575 0.99813 0.42228 0.0
H342 H 0.83551 0.94114 0.47052 0.0
C343 C 0.83662 0.0075 0.55577 0.0
C344 C 0.82433 0.47464 0.03893 0.0
C345 C 0.82416 0.4685 0.99111 0.0
H346 H 0.82321 0.5153 0.09354 0.0
C347 C 0.82529 0.49995 0.9612 0.0
H348 H 0.82346 0.45097 0.06281 0.0
C349 C 0.82579 0.53687 0.97883 0.0
C350 C 0.82441 0.54297 0.02664 0.0
H351 H 0.82537 0.49606 0.92416 0.0
H352 H 0.82604 0.5606 0.95502 0.0
C353 C 0.82408 0.5115 0.0565 0.0
C354 C 0.68311 0.47334 0.47935 0.0
C355 C 0.68415 0.46659 0.52708 0.0
H356 H 0.68359 0.51482 0.42526 0.0
C357 C 0.68376 0.49763 0.55741 0.0
H358 H 0.6834 0.44997 0.45518 0.0
C359 C 0.68327 0.53475 0.54031 0.0
C360 C 0.68388 0.5415 0.49258 0.0
H361 H 0.68435 0.49327 0.5944 0.0
H362 H 0.68369 0.55812 0.56448 0.0
C363 C 0.68333 0.51046 0.46225 0.0
C364 C 0.17228 0.54021 0.99079 0.0
C365 C 0.17168 0.53765 0.03929 0.0
H366 H 0.17313 0.51045 0.92633 0.0
C367 C 0.17036 0.50163 0.05991 0.0
H368 H 0.17323 0.56754 0.97373 0.0
C369 C 0.17102 0.46888 0.03262 0.0
C370 C 0.17222 0.47148 0.98413 0.0
H371 H 0.16993 0.49872 0.09711 0.0
H372 H 0.17093 0.4415 0.04962 0.0
C373 C 0.17214 0.5075 0.96351 0.0
C374 C 0.33614 0.50068 0.46256 0.0
C375 C 0.33556 0.53678 0.48279 0.0
H376 H 0.33557 0.4406 0.47352 0.0
C377 C 0.33625 0.53949 0.53126 0.0
H378 H 0.33557 0.49764 0.4254 0.0
C379 C 0.33691 0.50684 0.5589 0.0
C380 C 0.33613 0.47075 0.53869 0.0
H381 H 0.33595 0.56691 0.54798 0.0
H382 H 0.33692 0.50989 0.59607 0.0
C383 C 0.33605 0.46802 0.49021 0.0
C384 C 0.51662 0.08839 0.05254 0.0
C385 C 0.53903 0.12001 0.06822 0.0
H386 H 0.45803 0.05932 0.05125 0.0
C387 C 0.51825 0.14791 0.09406 0.0
H388 H 0.53196 0.06643 0.03274 0.0
C389 C 0.47552 0.14442 0.1034 0.0
C390 C 0.45346 0.11231 0.0885 0.0
H391 H 0.53488 0.17261 0.10639 0.0
H392 H 0.45996 0.16631 0.12309 0.0
C393 C 0.47444 0.08427 0.06324 0.0
C394 C 1.0002 0.8673 0.54276 0.0
C395 C 0.9695 0.88039 0.57339 0.0
H396 H 0.06554 0.86062 0.52945 0.0
C397 C 0.98189 0.896 0.61579 0.0
H398 H 0.99151 0.85502 0.50992 0.0
C399 C 0.02417 0.89997 0.62648 0.0
C400 C 0.05488 0.8874 0.59558 0.0
H401 H 0.95892 0.90648 0.63997 0.0
H402 H 0.03285 0.91326 0.65873 0.0
C403 C 0.0425 0.87028 0.55406 0.0
C404 C 0.48428 0.89952 0.8932 0.0
C405 C 0.45377 0.88746 0.92469 0.0
H406 H 0.54943 0.90555 0.87888 0.0
C407 C 0.46643 0.87061 0.96641 0.0
H408 H 0.47538 0.91258 0.86078 0.0
C409 C 0.50884 0.86747 0.97731 0.0
C410 C 0.53934 0.88012 0.9461 0.0
H411 H 0.44356 0.86133 0.99145 0.0
H412 H 0.51776 0.85548 0.01032 0.0
C413 C 0.52664 0.89539 0.90351 0.0
C414 C 0.02469 0.10857 0.39141 0.0
C415 C 0.05498 0.12127 0.42284 0.0
H416 H 0.95961 0.10193 0.37675 0.0
C417 C 0.04197 0.13861 0.46396 0.0
H418 H 0.03385 0.09512 0.35944 0.0
C419 C 0.99951 0.1416 0.47441 0.0
C420 C 0.96924 0.1283 0.44334 0.0
H421 H 0.06463 0.14838 0.48896 0.0
H422 H 0.99036 0.154 0.50701 0.0
C423 C 0.98224 0.11256 0.40126 0.0
C424 C 0.01825 0.64755 0.0957 0.0
C425 C 0.0391 0.61938 0.07038 0.0
H426 H 0.95977 0.66651 0.12376 0.0
C427 C 0.01663 0.58779 0.05471 0.0
H428 H 0.03493 0.67224 0.108 0.0
C429 C 0.97431 0.58401 0.06487 0.0
C430 C 0.95324 0.61233 0.08957 0.0
H431 H 0.03202 0.56562 0.03529 0.0
H432 H 0.95784 0.55909 0.05287 0.0
C433 C 0.97539 0.64439 0.10449 0.0
C434 C 0.52505 0.39959 0.62747 0.0
C435 C 0.5555 0.38701 0.59625 0.0
H436 H 0.45991 0.40601 0.6417 0.0
C437 C 0.54275 0.36971 0.55496 0.0
H438 H 0.53402 0.413 0.65955 0.0
C439 C 0.50035 0.36661 0.5442 0.0
C440 C 0.46992 0.37975 0.57512 0.0
H441 H 0.56557 0.36003 0.53012 0.0
H442 H 0.49138 0.35423 0.51151 0.0
C443 C 0.48268 0.39549 0.61731 0.0
C444 C 0.00876 0.36826 0.97842 0.0
C445 C 0.03965 0.3807 0.94757 0.0
H446 H 0.94331 0.36247 0.99177 0.0
C447 C 0.02747 0.39608 0.90485 0.0
H448 H 0.01727 0.3562 0.01153 0.0
C449 C 0.98525 0.40046 0.89403 0.0
C450 C 0.95435 0.38854 0.92514 0.0
H451 H 0.05057 0.40609 0.88048 0.0
H452 H 0.97675 0.41355 0.8615 0.0
C453 C 0.96649 0.37164 0.96702 0.0
C454 C 0.54197 0.63801 0.46517 0.0
C455 C 0.55457 0.6208 0.4238 0.0
H456 H 0.4908 0.65322 0.50896 0.0
C457 C 0.52398 0.60808 0.39277 0.0
H458 H 0.56489 0.64778 0.48989 0.0
C459 C 0.48163 0.61197 0.4032 0.0
C460 C 0.46906 0.62762 0.44548 0.0
H461 H 0.53282 0.59471 0.36063 0.0
H462 H 0.45877 0.60135 0.37895 0.0
C463 C 0.49963 0.64089 0.4762 0.0
C464 C 0.30169 0.15732 0.266 0.0
C465 C 0.28231 0.15751 0.2225 0.0
H466 H 0.29321 0.15438 0.33929 0.0
C467 C 0.23903 0.16307 0.22005 0.0
H468 H 0.33493 0.15234 0.26878 0.0
C469 C 0.21503 0.16329 0.26046 0.0
C470 C 0.23412 0.15907 0.30384 0.0
H471 H 0.22326 0.16243 0.18699 0.0
H472 H 0.18138 0.16273 0.25754 0.0
C473 C 0.2778 0.15861 0.30639 0.0
C474 C 0.29828 0.84697 0.75763 0.0
C475 C 0.27878 0.84879 0.80097 0.0
H476 H 0.29018 0.84882 0.68419 0.0
C477 C 0.23524 0.84556 0.80324 0.0
H478 H 0.33175 0.85024 0.75497 0.0
C479 C 0.21139 0.84571 0.76268 0.0
C480 C 0.23081 0.84806 0.71933 0.0
H481 H 0.21944 0.84782 0.83613 0.0
H482 H 0.17782 0.84809 0.76533 0.0
C483 C 0.27445 0.84608 0.71709 0.0
C484 C 0.77695 0.87513 0.80044 0.0
C485 C 0.73324 0.87479 0.80236 0.0
H486 H 0.83141 0.87497 0.75769 0.0
C487 C 0.71079 0.87404 0.76052 0.0
H488 H 0.7952 0.8757 0.83189 0.0
C489 C 0.7315 0.87424 0.71788 0.0
C490 C 0.77521 0.87446 0.71598 0.0
H491 H 0.67704 0.87393 0.76067 0.0
H492 H 0.71326 0.87412 0.68642 0.0
C493 C 0.79767 0.87461 0.75782 0.0
C494 C 0.73006 0.13702 0.29884 0.0
C495 C 0.77382 0.13636 0.30041 0.0
H496 H 0.67522 0.1382 0.25641 0.0
C497 C 0.79589 0.13659 0.25841 0.0
H498 H 0.7121 0.13691 0.33044 0.0
C499 C 0.7748 0.13672 0.21596 0.0
C500 C 0.73106 0.13736 0.21434 0.0
H501 H 0.82963 0.13595 0.25826 0.0
H502 H 0.79281 0.1363 0.18439 0.0
C503 C 0.70896 0.13788 0.25633 0.0
C504 C 0.71325 0.66295 0.25897 0.0
C505 C 0.73243 0.65941 0.30239 0.0
H506 H 0.72148 0.66175 0.18553 0.0
C507 C 0.7761 0.65985 0.30494 0.0
H508 H 0.67962 0.66171 0.25607 0.0
C509 C 0.80003 0.65877 0.26455 0.0
C510 C 0.78065 0.65829 0.22106 0.0
H511 H 0.7916 0.65615 0.33789 0.0
H512 H 0.83337 0.65444 0.26737 0.0
C513 C 0.73724 0.66294 0.21857 0.0
C514 C 0.77661 0.34745 0.71519 0.0
C515 C 0.73293 0.34828 0.71748 0.0
H516 H 0.83379 0.3528 0.75304 0.0
C517 C 0.71362 0.34515 0.76082 0.0
H518 H 0.79221 0.35081 0.68231 0.0
C519 C 0.7375 0.34534 0.80137 0.0
C520 C 0.78092 0.34973 0.79908 0.0
H521 H 0.67999 0.34667 0.76351 0.0
H522 H 0.72165 0.34696 0.83429 0.0
C523 C 0.80042 0.34868 0.75572 0.0
C524 C 0.29848 0.37324 0.76073 0.0
C525 C 0.27604 0.37337 0.71888 0.0
H526 H 0.29599 0.37412 0.83482 0.0
C527 C 0.23232 0.37336 0.72078 0.0
H528 H 0.33223 0.37342 0.7606 0.0
C529 C 0.2116 0.37314 0.76341 0.0
C530 C 0.23404 0.37366 0.80525 0.0
H531 H 0.21408 0.37344 0.68932 0.0
H532 H 0.17786 0.37323 0.76352 0.0
C533 C 0.27776 0.37374 0.80336 0.0
C534 C 0.29545 0.63612 0.26177 0.0
C535 C 0.27333 0.63569 0.30375 0.0
H536 H 0.29248 0.63591 0.18776 0.0
C537 C 0.22957 0.63605 0.30211 0.0
H538 H 0.32919 0.63571 0.26166 0.0
C539 C 0.20852 0.63681 0.25956 0.0
C540 C 0.23069 0.6365 0.2176 0.0
H541 H 0.21157 0.63576 0.33368 0.0
H542 H 0.17477 0.63688 0.25957 0.0
C543 C 0.27442 0.63616 0.2193 0.0
loop_
_geom_bond_atom_site_label_1
_geom_bond_atom_site_label_2
_geom_bond_distance
_geom_bond_site_symmetry_2
_ccdc_geom_bond_type
Co0 O1 2.216 . S
Co0 O2 2.091 . S
Co0 O4 2.004 . S
Co0 O10 2.021 . S
Co0 O12 2.137 . S
Co0 O13 2.244 . S
O1 Co0 2.216 . S
O1 C8 1.247 . S
O2 Co0 2.091 . S
O2 C8 1.261 . S
C3 O12 1.247 . S
C3 O13 1.272 . S
O4 Co0 2.004 . S
O4 C9 1.259 . S
Co5 O6 2.061 . S
Co5 O11 2.052 . S
Co5 O13 2.135 . S
O6 Co5 2.061 . S
O6 C9 1.235 . S
C7 O10 1.238 . S
C7 O11 1.241 . S
C8 O1 1.247 . S
C8 O2 1.261 . S
C9 O4 1.259 . S
C9 O6 1.235 . S
O10 Co0 2.021 . S
O10 C7 1.238 . S
O11 Co5 2.052 . S
O11 C7 1.241 . S
O12 Co0 2.137 . S
O12 C3 1.247 . S
O13 Co0 2.244 . S
O13 C3 1.272 . S
O13 Co5 2.135 . S
Co14 O15 2.216 . S
Co14 O16 2.091 . S
Co14 O18 2.004 . S
Co14 O24 2.021 . S
Co14 O26 2.137 . S
Co14 O27 2.244 . S
O15 Co14 2.216 . S
O15 C22 1.247 . S
O16 Co14 2.091 . S
O16 C22 1.261 . S
C17 O26 1.247 . S
C17 O27 1.272 . S
O18 Co14 2.004 . S
O18 C23 1.259 . S
Co19 O20 2.061 . S
Co19 O25 2.052 . S
Co19 O27 2.135 . S
O20 Co19 2.061 . S
O20 C23 1.235 . S
C21 O24 1.238 . S
C21 O25 1.241 . S
C22 O15 1.247 . S
C22 O16 1.261 . S
C23 O18 1.259 . S
C23 O20 1.235 . S
O24 Co14 2.021 . S
O24 C21 1.238 . S
O25 Co19 2.052 . S
O25 C21 1.241 . S
O26 Co14 2.137 . S
O26 C17 1.247 . S
O27 Co14 2.244 . S
O27 C17 1.272 . S
O27 Co19 2.135 . S
Co28 O29 2.216 . S
Co28 O30 2.091 . S
Co28 O32 2.004 . S
Co28 O38 2.021 . S
Co28 O40 2.137 . S
Co28 O41 2.244 . S
O29 Co28 2.216 . S
O29 C36 1.247 . S
O30 Co28 2.091 . S
O30 C36 1.261 . S
C31 O40 1.247 . S
C31 O41 1.272 . S
O32 Co28 2.004 . S
O32 C37 1.259 . S
Co33 O34 2.061 . S
Co33 O39 2.052 . S
Co33 O41 2.135 . S
O34 Co33 2.061 . S
O34 C37 1.235 . S
C35 O38 1.238 . S
C35 O39 1.241 . S
C36 O29 1.247 . S
C36 O30 1.261 . S
C37 O32 1.259 . S
C37 O34 1.235 . S
O38 Co28 2.021 . S
O38 C35 1.238 . S
O39 Co33 2.052 . S
O39 C35 1.241 . S
O40 Co28 2.137 . S
O40 C31 1.247 . S
O41 Co28 2.244 . S
O41 C31 1.272 . S
O41 Co33 2.135 . S
Co42 O43 2.216 . S
Co42 O44 2.091 . S
Co42 O46 2.004 . S
Co42 O52 2.021 . S
Co42 O54 2.137 . S
Co42 O55 2.244 . S
O43 Co42 2.216 . S
O43 C50 1.247 . S
O44 Co42 2.091 . S
O44 C50 1.261 . S
C45 O54 1.247 . S
C45 O55 1.272 . S
O46 Co42 2.004 . S
O46 C51 1.259 . S
Co47 O48 2.061 . S
Co47 O53 2.052 . S
Co47 O55 2.135 . S
O48 Co47 2.061 . S
O48 C51 1.235 . S
C49 O52 1.238 . S
C49 O53 1.241 . S
C50 O43 1.247 . S
C50 O44 1.261 . S
C51 O46 1.259 . S
C51 O48 1.235 . S
O52 Co42 2.021 . S
O52 C49 1.238 . S
O53 Co47 2.052 . S
O53 C49 1.241 . S
O54 Co42 2.137 . S
O54 C45 1.247 . S
O55 Co42 2.244 . S
O55 C45 1.272 . S
O55 Co47 2.135 . S
Co56 O57 2.216 . S
Co56 O58 2.091 . S
Co56 O60 2.004 . S
Co56 O66 2.021 . S
Co56 O68 2.137 . S
Co56 O69 2.244 . S
O57 Co56 2.216 . S
O57 C64 1.247 . S
O58 Co56 2.091 . S
O58 C64 1.261 . S
C59 O68 1.247 . S
C59 O69 1.272 . S
O60 Co56 2.004 . S
O60 C65 1.259 . S
Co61 O62 2.061 1_554 S
Co61 O67 2.052 1_554 S
Co61 O69 2.135 1_554 S
O62 Co61 2.061 1_556 S
O62 C65 1.235 . S
C63 O66 1.238 . S
C63 O67 1.241 . S
C64 O57 1.247 . S
C64 O58 1.261 . S
C65 O60 1.259 . S
C65 O62 1.235 . S
O66 Co56 2.021 . S
O66 C63 1.238 . S
O67 Co61 2.052 1_556 S
O67 C63 1.241 . S
O68 Co56 2.137 . S
O68 C59 1.247 . S
O69 Co56 2.244 . S
O69 C59 1.272 . S
O69 Co61 2.135 1_556 S
Co70 O71 2.216 . S
Co70 O72 2.091 . S
Co70 O74 2.004 . S
Co70 O80 2.021 . S
Co70 O82 2.137 . S
Co70 O83 2.244 . S
O71 Co70 2.216 . S
O71 C78 1.247 . S
O72 Co70 2.091 . S
O72 C78 1.261 . S
C73 O82 1.247 . S
C73 O83 1.272 . S
O74 Co70 2.004 . S
O74 C79 1.259 . S
Co75 O76 2.061 . S
Co75 O81 2.052 . S
Co75 O83 2.135 . S
O76 Co75 2.061 . S
O76 C79 1.235 . S
C77 O80 1.238 . S
C77 O81 1.241 . S
C78 O71 1.247 . S
C78 O72 1.261 . S
C79 O74 1.259 . S
C79 O76 1.235 . S
O80 Co70 2.021 . S
O80 C77 1.238 . S
O81 Co75 2.052 . S
O81 C77 1.241 . S
O82 Co70 2.137 . S
O82 C73 1.247 . S
O83 Co70 2.244 . S
O83 C73 1.272 . S
O83 Co75 2.135 . S
Co84 O85 2.216 . S
Co84 O86 2.091 . S
Co84 O88 2.004 . S
Co84 O94 2.021 . S
Co84 O96 2.137 . S
Co84 O97 2.244 . S
O85 Co84 2.216 . S
O85 C92 1.247 . S
O86 Co84 2.091 . S
O86 C92 1.261 . S
C87 O96 1.247 . S
C87 O97 1.272 . S
O88 Co84 2.004 . S
O88 C93 1.259 . S
Co89 O90 2.061 1_556 S
Co89 O95 2.052 1_556 S
Co89 O97 2.135 1_556 S
O90 Co89 2.061 1_554 S
O90 C93 1.235 . S
C91 O94 1.238 . S
C91 O95 1.241 . S
C92 O85 1.247 . S
C92 O86 1.261 . S
C93 O88 1.259 . S
C93 O90 1.235 . S
O94 Co84 2.021 . S
O94 C91 1.238 . S
O95 Co89 2.052 1_554 S
O95 C91 1.241 . S
O96 Co84 2.137 . S
O96 C87 1.247 . S
O97 Co84 2.244 . S
O97 C87 1.272 . S
O97 Co89 2.135 1_554 S
Co98 O99 2.216 . S
Co98 O100 2.091 . S
Co98 O102 2.004 . S
Co98 O108 2.021 . S
Co98 O110 2.137 . S
Co98 O111 2.244 . S
O99 Co98 2.216 . S
O99 C106 1.247 . S
O100 Co98 2.091 . S
O100 C106 1.261 . S
C101 O110 1.247 . S
C101 O111 1.272 . S
O102 Co98 2.004 . S
O102 C107 1.259 . S
Co103 O104 2.061 . S
Co103 O109 2.052 . S
Co103 O111 2.135 . S
O104 Co103 2.061 . S
O104 C107 1.235 . S
C105 O108 1.238 . S
C105 O109 1.241 . S
C106 O99 1.247 . S
C106 O100 1.261 . S
C107 O102 1.259 . S
C107 O104 1.235 . S
O108 Co98 2.021 . S
O108 C105 1.238 . S
O109 Co103 2.052 . S
O109 C105 1.241 . S
O110 Co98 2.137 . S
O110 C101 1.247 . S
O111 Co98 2.244 . S
O111 C101 1.272 . S
O111 Co103 2.135 . S
Co112 O113 2.216 . S
Co112 O114 2.091 . S
Co112 O116 2.004 . S
Co112 O122 2.021 . S
Co112 O124 2.137 . S
Co112 O125 2.244 . S
O113 Co112 2.216 . S
O113 C120 1.247 . S
O114 Co112 2.091 . S
O114 C120 1.261 . S
C115 O124 1.247 . S
C115 O125 1.272 . S
O116 Co112 2.004 . S
O116 C121 1.259 . S
Co117 O118 2.061 . S
Co117 O123 2.052 . S
Co117 O125 2.135 . S
O118 Co117 2.061 . S
O118 C121 1.235 . S
C119 O122 1.238 . S
C119 O123 1.241 . S
C120 O113 1.247 . S
C120 O114 1.261 . S
C121 O116 1.259 . S
C121 O118 1.235 . S
O122 Co112 2.021 . S
O122 C119 1.238 . S
O123 Co117 2.052 . S
O123 C119 1.241 . S
O124 Co112 2.137 . S
O124 C115 1.247 . S
O125 Co112 2.244 . S
O125 C115 1.272 . S
O125 Co117 2.135 . S
Co126 O127 2.216 . S
Co126 O128 2.091 . S
Co126 O130 2.004 . S
Co126 O136 2.021 . S
Co126 O138 2.137 . S
Co126 O139 2.244 . S
O127 Co126 2.216 . S
O127 C134 1.247 . S
O128 Co126 2.091 . S
O128 C134 1.261 . S
C129 O138 1.247 . S
C129 O139 1.272 . S
O130 Co126 2.004 . S
O130 C135 1.259 . S
Co131 O132 2.061 . S
Co131 O137 2.052 . S
Co131 O139 2.135 . S
O132 Co131 2.061 . S
O132 C135 1.235 . S
C133 O136 1.238 . S
C133 O137 1.241 . S
C134 O127 1.247 . S
C134 O128 1.261 . S
C135 O130 1.259 . S
C135 O132 1.235 . S
O136 Co126 2.021 . S
O136 C133 1.238 . S
O137 Co131 2.052 . S
O137 C133 1.241 . S
O138 Co126 2.137 . S
O138 C129 1.247 . S
O139 Co126 2.244 . S
O139 C129 1.272 . S
O139 Co131 2.135 . S
Co140 O141 2.216 . S
Co140 O142 2.091 . S
Co140 O144 2.004 . S
Co140 O150 2.021 . S
Co140 O152 2.137 . S
Co140 O153 2.244 . S
O141 Co140 2.216 . S
O141 C148 1.247 . S
O142 Co140 2.091 . S
O142 C148 1.261 . S
C143 O152 1.247 . S
C143 O153 1.272 . S
O144 Co140 2.004 . S
O144 C149 1.259 . S
Co145 O146 2.061 . S
Co145 O151 2.052 . S
Co145 O153 2.135 . S
O146 Co145 2.061 . S
O146 C149 1.235 . S
C147 O150 1.238 . S
C147 O151 1.241 . S
C148 O141 1.247 . S
C148 O142 1.261 . S
C149 O144 1.259 . S
C149 O146 1.235 . S
O150 Co140 2.021 . S
O150 C147 1.238 . S
O151 Co145 2.052 . S
O151 C147 1.241 . S
O152 Co140 2.137 . S
O152 C143 1.247 . S
O153 Co140 2.244 . S
O153 C143 1.272 . S
O153 Co145 2.135 . S
Co154 O155 2.216 . S
Co154 O156 2.091 . S
Co154 O158 2.004 . S
Co154 O164 2.021 . S
Co154 O166 2.137 . S
Co154 O167 2.244 . S
O155 Co154 2.216 . S
O155 C162 1.247 . S
O156 Co154 2.091 . S
O156 C162 1.261 . S
C157 O166 1.247 . S
C157 O167 1.272 . S
O158 Co154 2.004 . S
O158 C163 1.259 . S
Co159 O160 2.061 . S
Co159 O165 2.052 . S
Co159 O167 2.135 . S
O160 Co159 2.061 . S
O160 C163 1.235 . S
C161 O164 1.238 . S
C161 O165 1.241 . S
C162 O155 1.247 . S
C162 O156 1.261 . S
C163 O158 1.259 . S
C163 O160 1.235 . S
O164 Co154 2.021 . S
O164 C161 1.238 . S
O165 Co159 2.052 . S
O165 C161 1.241 . S
O166 Co154 2.137 . S
O166 C157 1.247 . S
O167 Co154 2.244 . S
O167 C157 1.272 . S
O167 Co159 2.135 . S
Co168 O169 2.216 . S
Co168 O170 2.091 . S
Co168 O172 2.004 . S
Co168 O178 2.021 . S
Co168 O180 2.137 . S
Co168 O181 2.244 . S
O169 Co168 2.216 . S
O169 C176 1.247 . S
O170 Co168 2.091 . S
O170 C176 1.261 . S
C171 O180 1.247 . S
C171 O181 1.272 . S
O172 Co168 2.004 . S
O172 C177 1.259 . S
Co173 O174 2.061 1_554 S
Co173 O179 2.052 1_554 S
Co173 O181 2.135 1_554 S
O174 Co173 2.061 1_556 S
O174 C177 1.235 . S
C175 O178 1.238 . S
C175 O179 1.241 . S
C176 O169 1.247 . S
C176 O170 1.261 . S
C177 O172 1.259 . S
C177 O174 1.235 . S
O178 Co168 2.021 . S
O178 C175 1.238 . S
O179 Co173 2.052 1_556 S
O179 C175 1.241 . S
O180 Co168 2.137 . S
O180 C171 1.247 . S
O181 Co168 2.244 . S
O181 C171 1.272 . S
O181 Co173 2.135 1_556 S
Co182 O183 2.216 . S
Co182 O184 2.091 . S
Co182 O186 2.004 . S
Co182 O192 2.021 . S
Co182 O194 2.137 . S
Co182 O195 2.244 . S
O183 Co182 2.216 . S
O183 C190 1.247 . S
O184 Co182 2.091 . S
O184 C190 1.261 . S
C185 O194 1.247 . S
C185 O195 1.272 . S
O186 Co182 2.004 . S
O186 C191 1.259 . S
Co187 O188 2.061 . S
Co187 O193 2.052 . S
Co187 O195 2.135 . S
O188 Co187 2.061 . S
O188 C191 1.235 . S
C189 O192 1.238 . S
C189 O193 1.241 . S
C190 O183 1.247 . S
C190 O184 1.261 . S
C191 O186 1.259 . S
C191 O188 1.235 . S
O192 Co182 2.021 . S
O192 C189 1.238 . S
O193 Co187 2.052 . S
O193 C189 1.241 . S
O194 Co182 2.137 . S
O194 C185 1.247 . S
O195 Co182 2.244 . S
O195 C185 1.272 . S
O195 Co187 2.135 . S
Co196 O197 2.216 . S
Co196 O198 2.091 . S
Co196 O200 2.004 . S
Co196 O206 2.021 . S
Co196 O208 2.137 . S
Co196 O209 2.244 . S
O197 Co196 2.216 . S
O197 C204 1.247 . S
O198 Co196 2.091 . S
O198 C204 1.261 . S
C199 O208 1.247 . S
C199 O209 1.272 . S
O200 Co196 2.004 . S
O200 C205 1.259 . S
Co201 O202 2.061 1_556 S
Co201 O207 2.052 1_556 S
Co201 O209 2.135 1_556 S
O202 Co201 2.061 1_554 S
O202 C205 1.235 . S
C203 O206 1.238 . S
C203 O207 1.241 . S
C204 O197 1.247 . S
C204 O198 1.261 . S
C205 O200 1.259 . S
C205 O202 1.235 . S
O206 Co196 2.021 . S
O206 C203 1.238 . S
O207 Co201 2.052 1_554 S
O207 C203 1.241 . S
O208 Co196 2.137 . S
O208 C199 1.247 . S
O209 Co196 2.244 . S
O209 C199 1.272 . S
O209 Co201 2.135 1_554 S
Co210 O211 2.216 . S
Co210 O212 2.091 . S
Co210 O214 2.004 . S
Co210 O220 2.021 . S
Co210 O222 2.137 . S
Co210 O223 2.244 . S
O211 Co210 2.216 . S
O211 C218 1.247 . S
O212 Co210 2.091 . S
O212 C218 1.261 . S
C213 O222 1.247 . S
C213 O223 1.272 . S
O214 Co210 2.004 . S
O214 C219 1.259 . S
Co215 O216 2.061 . S
Co215 O221 2.052 . S
Co215 O223 2.135 . S
O216 Co215 2.061 . S
O216 C219 1.235 . S
C217 O220 1.238 . S
C217 O221 1.241 . S
C218 O211 1.247 . S
C218 O212 1.261 . S
C219 O214 1.259 . S
C219 O216 1.235 . S
O220 Co210 2.021 . S
O220 C217 1.238 . S
O221 Co215 2.052 . S
O221 C217 1.241 . S
O222 Co210 2.137 . S
O222 C213 1.247 . S
O223 Co210 2.244 . S
O223 C213 1.272 . S
O223 Co215 2.135 . S
C224 C225 1.387 1_556 S
C224 H228 0.950 . S
C224 C233 1.390 . S
C225 C224 1.387 1_554 S
C225 C227 1.387 . S
H226 C233 0.950 . S
C227 C225 1.387 . S
C227 C229 1.390 . S
C227 H231 0.950 . S
H228 C224 0.950 . S
C229 C227 1.390 . S
C229 C230 1.387 1_554 S
C229 H232 0.950 . S
C230 C229 1.387 1_556 S
C230 C233 1.387 . S
H231 C227 0.950 . S
H232 C229 0.950 . S
C233 C224 1.390 . S
C233 H226 0.950 . S
C233 C230 1.387 . S
C234 C235 1.387 . S
C234 H238 0.950 . S
C234 C243 1.390 . S
C235 C234 1.387 . S
C235 C237 1.387 . S
H236 C243 0.950 . S
C237 C235 1.387 . S
C237 C239 1.390 . S
C237 H241 0.950 . S
H238 C234 0.950 . S
C239 C237 1.390 . S
C239 C240 1.387 . S
C239 H242 0.950 . S
C240 C239 1.387 . S
C240 C243 1.387 . S
H241 C237 0.950 . S
H242 C239 0.950 . S
C243 C234 1.390 . S
C243 H236 0.950 . S
C243 C240 1.387 . S
C244 C245 1.387 . S
C244 H248 0.950 . S
C244 C253 1.390 . S
C245 C244 1.387 . S
C245 C247 1.387 1_556 S
H246 C253 0.950 . S
C247 C245 1.387 1_554 S
C247 C249 1.390 . S
C247 H251 0.950 . S
H248 C244 0.950 . S
C249 C247 1.390 . S
C249 C250 1.387 . S
C249 H252 0.950 . S
C250 C249 1.387 . S
C250 C253 1.387 1_554 S
H251 C247 0.950 . S
H252 C249 0.950 . S
C253 C244 1.390 . S
C253 H246 0.950 . S
C253 C250 1.387 1_556 S
C254 C255 1.387 . S
C254 H258 0.950 . S
C254 C263 1.390 . S
C255 C254 1.387 . S
C255 C257 1.387 . S
H256 C263 0.950 . S
C257 C255 1.387 . S
C257 C259 1.390 . S
C257 H261 0.950 . S
H258 C254 0.950 . S
C259 C257 1.390 . S
C259 C260 1.387 . S
C259 H262 0.950 . S
C260 C259 1.387 . S
C260 C263 1.387 . S
H261 C257 0.950 . S
H262 C259 0.950 . S
C263 C254 1.390 . S
C263 H256 0.950 . S
C263 C260 1.387 . S
C264 C265 1.387 . S
C264 H268 0.950 . S
C264 C273 1.390 . S
C265 C264 1.387 . S
C265 C267 1.387 1_554 S
H266 C273 0.950 . S
C267 C265 1.387 1_556 S
C267 C269 1.390 . S
C267 H271 0.950 . S
H268 C264 0.950 . S
C269 C267 1.390 . S
C269 C270 1.387 . S
C269 H272 0.950 . S
C270 C269 1.387 . S
C270 C273 1.387 1_556 S
H271 C267 0.950 . S
H272 C269 0.950 . S
C273 C264 1.390 . S
C273 H266 0.950 . S
C273 C270 1.387 1_554 S
C274 C275 1.387 . S
C274 H278 0.950 . S
C274 C283 1.390 . S
C275 C274 1.387 . S
C275 C277 1.387 . S
H276 C283 0.950 . S
C277 C275 1.387 . S
C277 C279 1.390 . S
C277 H281 0.950 . S
H278 C274 0.950 . S
C279 C277 1.390 . S
C279 C280 1.387 . S
C279 H282 0.950 . S
C280 C279 1.387 . S
C280 C283 1.387 . S
H281 C277 0.950 . S
H282 C279 0.950 . S
C283 C274 1.390 . S
C283 H276 0.950 . S
C283 C280 1.387 . S
C284 C285 1.387 . S
C284 H288 0.950 . S
C284 C293 1.390 1_556 S
C285 C284 1.387 . S
C285 C287 1.387 1_556 S
H286 C293 0.953 . S
C287 C285 1.387 1_554 S
C287 C289 1.390 . S
C287 H291 0.950 . S
H288 C284 0.950 . S
C289 C287 1.390 . S
C289 C290 1.387 . S
C289 H292 0.950 . S
C290 C289 1.387 . S
C290 C293 1.387 . S
H291 C287 0.950 . S
H292 C289 0.950 . S
C293 C284 1.390 1_554 S
C293 H286 0.953 . S
C293 C290 1.387 . S
C294 C295 1.387 . S
C294 H298 0.950 . S
C294 C303 1.390 . S
C295 C294 1.387 . S
C295 C297 1.387 . S
H296 C303 0.950 . S
C297 C295 1.387 . S
C297 C299 1.390 . S
C297 H301 0.950 . S
H298 C294 0.950 . S
C299 C297 1.390 . S
C299 C300 1.387 . S
C299 H302 0.950 . S
C300 C299 1.387 . S
C300 C303 1.387 . S
H301 C297 0.950 . S
H302 C299 0.950 . S
C303 C294 1.390 . S
C303 H296 0.950 . S
C303 C300 1.387 . S
C304 C305 1.387 . S
C304 H308 0.950 . S
C304 C313 1.390 1_544 S
C305 C304 1.387 . S
C305 C307 1.387 . S
H306 C313 0.950 . S
C307 C305 1.387 . S
C307 C309 1.390 1_544 S
C307 H311 0.950 . S
H308 C304 0.950 . S
C309 C307 1.390 1_566 S
C309 C310 1.387 . S
C309 H312 0.950 . S
C310 C309 1.387 . S
C310 C313 1.387 . S
H311 C307 0.950 . S
H312 C309 0.950 . S
C313 C304 1.390 1_566 S
C313 H306 0.950 . S
C313 C310 1.387 . S
C314 C315 1.387 . S
C314 H318 0.950 . S
C314 C323 1.390 1_565 S
C315 C314 1.387 . S
C315 C317 1.387 . S
H316 C323 0.950 . S
C317 C315 1.387 . S
C317 C319 1.390 1_565 S
C317 H321 0.950 . S
H318 C314 0.950 . S
C319 C317 1.390 1_545 S
C319 C320 1.387 . S
C319 H322 0.950 . S
C320 C319 1.387 . S
C320 C323 1.387 . S
H321 C317 0.950 . S
H322 C319 0.950 . S
C323 C314 1.390 1_545 S
C323 H316 0.950 . S
C323 C320 1.387 . S
C324 C325 1.387 . S
C324 H328 0.950 . S
C324 C333 1.390 1_566 S
C325 C324 1.387 . S
C325 C327 1.387 . S
H326 C333 0.950 . S
C327 C325 1.387 . S
C327 C329 1.390 1_566 S
C327 H331 0.950 . S
H328 C324 0.950 . S
C329 C327 1.390 1_544 S
C329 C330 1.387 . S
C329 H332 0.950 . S
C330 C329 1.387 . S
C330 C333 1.387 . S
H331 C327 0.950 . S
H332 C329 0.950 . S
C333 C324 1.390 1_544 S
C333 H326 0.950 . S
C333 C330 1.387 . S
C334 C335 1.387 . S
C334 H338 0.950 . S
C334 C343 1.390 1_545 S
C335 C334 1.387 . S
C335 C337 1.387 . S
H336 C343 0.950 . S
C337 C335 1.387 . S
C337 C339 1.390 1_545 S
C337 H341 0.950 . S
H338 C334 0.950 . S
C339 C337 1.390 1_565 S
C339 C340 1.387 . S
C339 H342 0.950 . S
C340 C339 1.387 . S
C340 C343 1.387 . S
H341 C337 0.950 . S
H342 C339 0.950 . S
C343 C334 1.390 1_565 S
C343 H336 0.950 . S
C343 C340 1.387 . S
C344 C345 1.387 . S
C344 H348 0.950 . S
C344 C353 1.390 1_556 S
C345 C344 1.387 . S
C345 C347 1.387 . S
H346 C353 0.950 . S
C347 C345 1.387 . S
C347 C349 1.390 1_556 S
C347 H351 0.950 . S
H348 C344 0.950 . S
C349 C347 1.390 1_554 S
C349 C350 1.387 . S
C349 H352 0.950 . S
C350 C349 1.387 . S
C350 C353 1.387 . S
H351 C347 0.950 . S
H352 C349 0.950 . S
C353 C344 1.390 1_554 S
C353 H346 0.950 . S
C353 C350 1.387 . S
C354 C355 1.387 . S
C354 H358 0.950 . S
C354 C363 1.390 . S
C355 C354 1.387 . S
C355 C357 1.387 . S
H356 C363 0.950 . S
C357 C355 1.387 . S
C357 C359 1.390 . S
C357 H361 0.950 . S
H358 C354 0.950 . S
C359 C357 1.390 . S
C359 C360 1.387 . S
C359 H362 0.950 . S
C360 C359 1.387 . S
C360 C363 1.387 . S
H361 C357 0.950 . S
H362 C359 0.950 . S
C363 C354 1.390 . S
C363 H356 0.950 . S
C363 C360 1.387 . S
C364 C365 1.387 . S
C364 H368 0.950 . S
C364 C373 1.390 1_554 S
C365 C364 1.387 . S
C365 C367 1.387 . S
H366 C373 0.950 . S
C367 C365 1.387 . S
C367 C369 1.390 1_554 S
C367 H371 0.950 . S
H368 C364 0.950 . S
C369 C367 1.390 1_556 S
C369 C370 1.387 . S
C369 H372 0.950 . S
C370 C369 1.387 . S
C370 C373 1.387 . S
H371 C367 0.950 . S
H372 C369 0.950 . S
C373 C364 1.390 1_556 S
C373 H366 0.950 . S
C373 C370 1.387 . S
C374 C375 1.387 . S
C374 H378 0.950 . S
C374 C383 1.390 . S
C375 C374 1.387 . S
C375 C377 1.387 . S
H376 C383 0.950 . S
C377 C375 1.387 . S
C377 C379 1.390 . S
C377 H381 0.950 . S
H378 C374 0.950 . S
C379 C377 1.390 . S
C379 C380 1.387 . S
C379 H382 0.950 . S
C380 C379 1.387 . S
C380 C383 1.387 . S
H381 C377 0.950 . S
H382 C379 0.950 . S
C383 C374 1.390 . S
C383 H376 0.950 . S
C383 C380 1.387 . S
C384 C385 1.387 . S
C384 H388 0.950 . S
C384 C393 1.390 . S
C385 C384 1.387 . S
C385 C387 1.387 . S
H386 C393 0.950 . S
C387 C385 1.387 . S
C387 C389 1.390 . S
C387 H391 0.950 . S
H388 C384 0.950 . S
C389 C387 1.390 . S
C389 C390 1.387 . S
C389 H392 0.950 . S
C390 C389 1.387 . S
C390 C393 1.387 . S
H391 C387 0.950 . S
H392 C389 0.950 . S
C393 C384 1.390 . S
C393 H386 0.950 . S
C393 C390 1.387 . S
C394 C395 1.387 1_455 S
C394 H398 0.950 1_455 S
C394 C403 1.390 . S
C395 C394 1.387 1_655 S
C395 C397 1.387 1_655 S
H396 C403 0.950 . S
C397 C395 1.387 1_455 S
C397 C399 1.390 . S
C397 H401 0.950 1_455 S
H398 C394 0.950 1_655 S
C399 C397 1.390 . S
C399 C400 1.387 . S
C399 H402 0.950 . S
C400 C399 1.387 . S
C400 C403 1.387 . S
H401 C397 0.950 1_655 S
H402 C399 0.950 . S
C403 C394 1.390 . S
C403 H396 0.950 . S
C403 C400 1.387 . S
C404 C405 1.387 . S
C404 H408 0.950 . S
C404 C413 1.390 . S
C405 C404 1.387 . S
C405 C407 1.387 . S
H406 C413 0.950 . S
C407 C405 1.387 . S
C407 C409 1.390 . S
C407 H411 0.950 . S
H408 C404 0.950 . S
C409 C407 1.390 . S
C409 C410 1.387 . S
C409 H412 0.950 . S
C410 C409 1.387 . S
C410 C413 1.387 . S
H411 C407 0.950 . S
H412 C409 0.950 . S
C413 C404 1.390 . S
C413 H406 0.950 . S
C413 C410 1.387 . S
C414 C415 1.387 . S
C414 H418 0.950 . S
C414 C423 1.390 . S
C415 C414 1.387 . S
C415 C417 1.387 . S
H416 C423 0.950 1_655 S
C417 C415 1.387 . S
C417 C419 1.390 . S
C417 H421 0.950 . S
H418 C414 0.950 . S
C419 C417 1.390 . S
C419 C420 1.387 1_455 S
C419 H422 0.950 . S
C420 C419 1.387 1_655 S
C420 C423 1.387 1_655 S
H421 C417 0.950 . S
H422 C419 0.950 . S
C423 C414 1.390 . S
C423 H416 0.950 1_455 S
C423 C420 1.387 1_455 S
C424 C425 1.387 1_655 S
C424 H428 0.950 1_655 S
C424 C433 1.390 . S
C425 C424 1.387 1_455 S
C425 C427 1.387 1_455 S
H426 C433 0.950 . S
C427 C425 1.387 1_655 S
C427 C429 1.390 . S
C427 H431 0.950 1_655 S
H428 C424 0.950 1_455 S
C429 C427 1.390 . S
C429 C430 1.387 . S
C429 H432 0.950 . S
C430 C429 1.387 . S
C430 C433 1.387 . S
H431 C427 0.950 1_455 S
H432 C429 0.950 . S
C433 C424 1.390 . S
C433 H426 0.950 . S
C433 C430 1.387 . S
C434 C435 1.387 . S
C434 H438 0.950 . S
C434 C443 1.390 . S
C435 C434 1.387 . S
C435 C437 1.387 . S
H436 C443 0.950 . S
C437 C435 1.387 . S
C437 C439 1.390 . S
C437 H441 0.950 . S
H438 C434 0.950 . S
C439 C437 1.390 . S
C439 C440 1.387 . S
C439 H442 0.950 . S
C440 C439 1.387 . S
C440 C443 1.387 . S
H441 C437 0.950 . S
H442 C439 0.950 . S
C443 C434 1.390 . S
C443 H436 0.950 . S
C443 C440 1.387 . S
C444 C445 1.387 1_655 S
C444 H448 0.950 1_655 S
C444 C453 1.390 . S
C445 C444 1.387 1_455 S
C445 C447 1.387 1_455 S
H446 C453 0.950 . S
C447 C445 1.387 1_655 S
C447 C449 1.390 . S
C447 H451 0.950 1_655 S
H448 C444 0.950 1_455 S
C449 C447 1.390 . S
C449 C450 1.387 . S
C449 H452 0.950 . S
C450 C449 1.387 . S
C450 C453 1.387 . S
H451 C447 0.950 1_455 S
H452 C449 0.950 . S
C453 C444 1.390 . S
C453 H446 0.950 . S
C453 C450 1.387 . S
C454 C455 1.387 . S
C454 H458 0.950 . S
C454 C463 1.390 . S
C455 C454 1.387 . S
C455 C457 1.387 . S
H456 C463 0.950 . S
C457 C455 1.387 . S
C457 C459 1.390 . S
C457 H461 0.950 . S
H458 C454 0.950 . S
C459 C457 1.390 . S
C459 C460 1.387 . S
C459 H462 0.950 . S
C460 C459 1.387 . S
C460 C463 1.387 . S
H461 C457 0.950 . S
H462 C459 0.950 . S
C463 C454 1.390 . S
C463 H456 0.950 . S
C463 C460 1.387 . S
C464 C465 1.387 . S
C464 H468 0.950 . S
C464 C473 1.390 . S
C465 C464 1.387 . S
C465 C467 1.387 . S
H466 C473 0.950 . S
C467 C465 1.387 . S
C467 C469 1.390 . S
C467 H471 0.950 . S
H468 C464 0.950 . S
C469 C467 1.390 . S
C469 C470 1.387 . S
C469 H472 0.950 . S
C470 C469 1.387 . S
C470 C473 1.387 . S
H471 C467 0.950 . S
H472 C469 0.950 . S
C473 C464 1.390 . S
C473 H466 0.950 . S
C473 C470 1.387 . S
C474 C475 1.387 . S
C474 H478 0.950 . S
C474 C483 1.390 . S
C475 C474 1.387 . S
C475 C477 1.387 . S
H476 C483 0.950 . S
C477 C475 1.387 . S
C477 C479 1.390 . S
C477 H481 0.950 . S
H478 C474 0.950 . S
C479 C477 1.390 . S
C479 C480 1.387 . S
C479 H482 0.950 . S
C480 C479 1.387 . S
C480 C483 1.387 . S
H481 C477 0.950 . S
H482 C479 0.950 . S
C483 C474 1.390 . S
C483 H476 0.950 . S
C483 C480 1.387 . S
C484 C485 1.387 . S
C484 H488 0.950 . S
C484 C493 1.390 . S
C485 C484 1.387 . S
C485 C487 1.387 . S
H486 C493 0.950 . S
C487 C485 1.387 . S
C487 C489 1.390 . S
C487 H491 0.950 . S
H488 C484 0.950 . S
C489 C487 1.390 . S
C489 C490 1.387 . S
C489 H492 0.950 . S
C490 C489 1.387 . S
C490 C493 1.387 . S
H491 C487 0.950 . S
H492 C489 0.950 . S
C493 C484 1.390 . S
C493 H486 0.950 . S
C493 C490 1.387 . S
C494 C495 1.387 . S
C494 H498 0.950 . S
C494 C503 1.390 . S
C495 C494 1.387 . S
C495 C497 1.387 . S
H496 C503 0.950 . S
C497 C495 1.387 . S
C497 C499 1.390 . S
C497 H501 0.950 . S
H498 C494 0.950 . S
C499 C497 1.390 . S
C499 C500 1.387 . S
C499 H502 0.950 . S
C500 C499 1.387 . S
C500 C503 1.387 . S
H501 C497 0.950 . S
H502 C499 0.950 . S
C503 C494 1.390 . S
C503 H496 0.950 . S
C503 C500 1.387 . S
C504 C505 1.387 . S
C504 H508 0.950 . S
C504 C513 1.390 . S
C505 C504 1.387 . S
C505 C507 1.387 . S
H506 C513 0.950 . S
C507 C505 1.387 . S
C507 C509 1.390 . S
C507 H511 0.950 . S
H508 C504 0.950 . S
C509 C507 1.390 . S
C509 C510 1.387 . S
C509 H512 0.950 . S
C510 C509 1.387 . S
C510 C513 1.387 . S
H511 C507 0.950 . S
H512 C509 0.950 . S
C513 C504 1.390 . S
C513 H506 0.950 . S
C513 C510 1.387 . S
C514 C515 1.387 . S
C514 H518 0.950 . S
C514 C523 1.390 . S
C515 C514 1.387 . S
C515 C517 1.387 . S
H516 C523 0.950 . S
C517 C515 1.387 . S
C517 C519 1.390 . S
C517 H521 0.950 . S
H518 C514 0.950 . S
C519 C517 1.390 . S
C519 C520 1.387 . S
C519 H522 0.950 . S
C520 C519 1.387 . S
C520 C523 1.387 . S
H521 C517 0.950 . S
H522 C519 0.950 . S
C523 C514 1.390 . S
C523 H516 0.950 . S
C523 C520 1.387 . S
C524 C525 1.387 . S
C524 H528 0.950 . S
C524 C533 1.390 . S
C525 C524 1.387 . S
C525 C527 1.387 . S
H526 C533 0.950 . S
C527 C525 1.387 . S
C527 C529 1.390 . S
C527 H531 0.950 . S
H528 C524 0.950 . S
C529 C527 1.390 . S
C529 C530 1.387 . S
C529 H532 0.950 . S
C530 C529 1.387 . S
C530 C533 1.387 . S
H531 C527 0.950 . S
H532 C529 0.950 . S
C533 C524 1.390 . S
C533 H526 0.950 . S
C533 C530 1.387 . S
C534 C535 1.387 . S
C534 H538 0.950 . S
C534 C543 1.390 . S
C535 C534 1.387 . S
C535 C537 1.387 . S
H536 C543 0.950 . S
C537 C535 1.387 . S
C537 C539 1.390 . S
C537 H541 0.950 . S
H538 C534 0.950 . S
C539 C537 1.390 . S
C539 C540 1.387 . S
C539 H542 0.950 . S
C540 C539 1.387 . S
C540 C543 1.387 . S
H541 C537 0.950 . S
H542 C539 0.950 . S
C543 C534 1.390 . S
C543 H536 0.950 . S
C543 C540 1.387 . S
C225 C8 1.510 . S
C230 C175 1.483 . S
C235 C189 1.483 . S
C240 C22 1.512 . S
C245 C36 1.512 . S
C250 C203 1.483 . S
C255 C217 1.481 . S
C260 C50 1.511 . S
C265 C120 1.512 . S
C270 C63 1.483 . S
C275 C77 1.483 . S
C280 C134 1.512 . S
C285 C148 1.511 . S
C290 C91 1.481 . S
C295 C105 1.481 . S
C300 C162 1.510 . S
C305 C3 1.569 . S
C310 C31 1.569 . S
C315 C17 1.570 . S
C320 C45 1.570 . S
C325 C59 1.553 . S
C330 C87 1.553 . S
C335 C73 1.555 . S
C340 C101 1.555 . S
C345 C143 1.569 . S
C350 C115 1.569 . S
C355 C129 1.570 . S
C360 C157 1.570 . S
C365 C199 1.553 . S
C370 C171 1.553 . S
C375 C185 1.553 . S
C380 C213 1.553 . S
C385 C93 1.539 . S
C390 C9 1.554 . S
C395 C107 1.539 . S
C400 C23 1.553 . S
C405 C37 1.554 . S
C410 C65 1.538 . S
C415 C51 1.554 . S
C420 C79 1.538 . S
C425 C205 1.538 . S
C430 C121 1.553 . S
C435 C135 1.554 . S
C440 C219 1.538 . S
C445 C177 1.539 . S
C450 C149 1.553 . S
C455 C163 1.553 . S
C460 C191 1.539 . S
C465 C7 1.335 . S
C470 C49 1.335 . S
C475 C35 1.336 . S
C480 C21 1.336 . S
C485 C64 1.581 . S
C490 C106 1.581 . S
C495 C78 1.582 . S
C500 C92 1.582 . S
C505 C161 1.336 . S
C510 C119 1.336 . S
C515 C133 1.336 . S
C520 C147 1.336 . S
C525 C218 1.581 . S
C530 C176 1.581 . S
C535 C190 1.582 . S
C540 C204 1.582 . S
