# Generated by pormake.
# Topology usf, (4)-cn, num edge types: 1
# Building blocks:
#     Node 0, Type 0, BuildingBlock: NAWXER_clean_sbu_0, # of connection points: 4
#     Node 1, Type 0, BuildingBlock: NAWXER_clean_sbu_0, # of connection points: 4
#     Node 2, Type 0, BuildingBlock: NAWXER_clean_sbu_0, # of connection points: 4
#     Node 3, Type 0, BuildingBlock: NAWXER_clean_sbu_0, # of connection points: 4
#     Node 4, Type 0, BuildingBlock: NAWXER_clean_sbu_0, # of connection points: 4
#     Node 5, Type 0, BuildingBlock: NAWXER_clean_sbu_0, # of connection points: 4
#     Node 6, Type 0, BuildingBlock: NAWXER_clean_sbu_0, # of connection points: 4
#     Node 7, Type 0, BuildingBlock: NAWXER_clean_sbu_0, # of connection points: 4
#     Node 8, Type 0, BuildingBlock: NAWXER_clean_sbu_0, # of connection points: 4
#     Node 9, Type 0, BuildingBlock: NAWXER_clean_sbu_0, # of connection points: 4
#     Node 10, Type 0, BuildingBlock: NAWXER_clean_sbu_0, # of connection points: 4
#     Node 11, Type 0, BuildingBlock: NAWXER_clean_sbu_0, # of connection points: 4
#     Node 12, Type 0, BuildingBlock: NAWXER_clean_sbu_0, # of connection points: 4
#     Node 13, Type 0, BuildingBlock: NAWXER_clean_sbu_0, # of connection points: 4
#     Node 14, Type 0, BuildingBlock: NAWXER_clean_sbu_0, # of connection points: 4
#     Node 15, Type 0, BuildingBlock: NAWXER_clean_sbu_0, # of connection points: 4
#     Node 16, Type 0, BuildingBlock: NAWXER_clean_sbu_0, # of connection points: 4
#     Node 17, Type 0, BuildingBlock: NAWXER_clean_sbu_0, # of connection points: 4
#     Edge 18, Type (0, 0), BuildingBlock: UVAHIK_clean_linker_0, # of connection points: 2
#     Edge 19, Type (0, 0), BuildingBlock: UVAHIK_clean_linker_0, # of connection points: 2
#     Edge 20, Type (0, 0), BuildingBlock: UVAHIK_clean_linker_0, # of connection points: 2
#     Edge 21, Type (0, 0), BuildingBlock: UVAHIK_clean_linker_0, # of connection points: 2
#     Edge 22, Type (0, 0), BuildingBlock: UVAHIK_clean_linker_0, # of connection points: 2
#     Edge 23, Type (0, 0), BuildingBlock: UVAHIK_clean_linker_0, # of connection points: 2
#     Edge 24, Type (0, 0), BuildingBlock: UVAHIK_clean_linker_0, # of connection points: 2
#     Edge 25, Type (0, 0), BuildingBlock: UVAHIK_clean_linker_0, # of connection points: 2
#     Edge 26, Type (0, 0), BuildingBlock: UVAHIK_clean_linker_0, # of connection points: 2
#     Edge 27, Type (0, 0), BuildingBlock: UVAHIK_clean_linker_0, # of connection points: 2
#     Edge 28, Type (0, 0), BuildingBlock: UVAHIK_clean_linker_0, # of connection points: 2
#     Edge 29, Type (0, 0), BuildingBlock: UVAHIK_clean_linker_0, # of connection points: 2
#     Edge 30, Type (0, 0), BuildingBlock: UVAHIK_clean_linker_0, # of connection points: 2
#     Edge 31, Type (0, 0), BuildingBlock: UVAHIK_clean_linker_0, # of connection points: 2
#     Edge 32, Type (0, 0), BuildingBlock: UVAHIK_clean_linker_0, # of connection points: 2
#     Edge 33, Type (0, 0), BuildingBlock: UVAHIK_clean_linker_0, # of connection points: 2
#     Edge 34, Type (0, 0), BuildingBlock: UVAHIK_clean_linker_0, # of connection points: 2
#     Edge 35, Type (0, 0), BuildingBlock: UVAHIK_clean_linker_0, # of connection points: 2
#     Edge 36, Type (0, 0), BuildingBlock: UVAHIK_clean_linker_0, # of connection points: 2
#     Edge 37, Type (0, 0), BuildingBlock: UVAHIK_clean_linker_0, # of connection points: 2
#     Edge 38, Type (0, 0), BuildingBlock: UVAHIK_clean_linker_0, # of connection points: 2
#     Edge 39, Type (0, 0), BuildingBlock: UVAHIK_clean_linker_0, # of connection points: 2
#     Edge 40, Type (0, 0), BuildingBlock: UVAHIK_clean_linker_0, # of connection points: 2
#     Edge 41, Type (0, 0), BuildingBlock: UVAHIK_clean_linker_0, # of connection points: 2
#     Edge 42, Type (0, 0), BuildingBlock: UVAHIK_clean_linker_0, # of connection points: 2
#     Edge 43, Type (0, 0), BuildingBlock: UVAHIK_clean_linker_0, # of connection points: 2
#     Edge 44, Type (0, 0), BuildingBlock: UVAHIK_clean_linker_0, # of connection points: 2
#     Edge 45, Type (0, 0), BuildingBlock: UVAHIK_clean_linker_0, # of connection points: 2
#     Edge 46, Type (0, 0), BuildingBlock: UVAHIK_clean_linker_0, # of connection points: 2
#     Edge 47, Type (0, 0), BuildingBlock: UVAHIK_clean_linker_0, # of connection points: 2
#     Edge 48, Type (0, 0), BuildingBlock: UVAHIK_clean_linker_0, # of connection points: 2
#     Edge 49, Type (0, 0), BuildingBlock: UVAHIK_clean_linker_0, # of connection points: 2
#     Edge 50, Type (0, 0), BuildingBlock: UVAHIK_clean_linker_0, # of connection points: 2
#     Edge 51, Type (0, 0), BuildingBlock: UVAHIK_clean_linker_0, # of connection points: 2
#     Edge 52, Type (0, 0), BuildingBlock: UVAHIK_clean_linker_0, # of connection points: 2
#     Edge 53, Type (0, 0), BuildingBlock: UVAHIK_clean_linker_0, # of connection points: 2
# Relax obj value: 0.054
# Max RMSD: 0.096
# Mean RMSD: 0.096
data_MOF--net-usf--node1-NAWXER_clean_sbu_0--edge1-UVAHIK_clean_linker_0
_symmetry_space_group_name_H-M    P1
_symmetry_Int_Tables_number       1
_symmetry_cell_setting            triclinic
loop_
_symmetry_equiv_pos_as_xyz
'x, y, z'
_cell_length_a     62.940035
_cell_length_b     62.970257
_cell_length_c     37.335839
_cell_angle_alpha  89.937549
_cell_angle_beta   90.036341
_cell_angle_gamma 120.05912
loop_
_atom_site_label
_atom_site_type_symbol
_atom_site_fract_x
_atom_site_fract_y
_atom_site_fract_z
_atom_type_partial_charge
C0 C 0.97524 0.48454 0.93686 0.0
C1 C 0.99138 0.47467 0.06142 0.0
O2 O 0.99489 0.50287 0.94908 0.0
Zn3 Zn 0.01534 0.51407 -0.00225 0.0
O4 O 0.96177 0.46653 0.95719 0.0
Zn5 Zn 0.98171 0.47947 -0.00018 0.0
O6 O 0.97819 0.51047 0.01388 0.0
O7 O 0.0147 0.54372 0.0106 0.0
O8 O 0.97225 0.46039 0.0436 0.0
O9 O 0.00807 0.49468 0.04731 0.0
O10 O 0.04574 0.51532 0.98302 0.0
O11 O 0.01356 0.47793 0.98409 0.0
C12 C 0.99186 0.53377 0.01719 0.0
C13 C 0.03652 0.49231 0.97847 0.0
C14 C 0.55803 0.50778 0.04966 0.0
C15 C 0.53387 0.48419 0.92514 0.0
O16 O 0.53867 0.50821 0.04021 0.0
Zn17 Zn 0.51587 0.50101 0.99437 0.0
O18 O 0.56908 0.5016 0.02707 0.0
Zn19 Zn 0.5469 0.49591 0.98728 0.0
O20 O 0.55359 0.53221 0.97569 0.0
O21 O 0.51933 0.53297 0.98464 0.0
O22 O 0.5522 0.4851 0.94103 0.0
O23 O 0.51966 0.48964 0.94236 0.0
O24 O 0.48472 0.47348 0.0107 0.0
O25 O 0.51412 0.4643 0.00583 0.0
C26 C 0.54185 0.544 0.97555 0.0
C27 C 0.4919 0.45792 0.01383 0.0
C28 C 0.49274 0.96175 0.0857 0.0
C29 C 0.51216 0.96214 0.95925 0.0
O30 O 0.4937 0.94499 0.06809 0.0
Zn31 Zn 0.50442 0.96246 0.02324 0.0
O32 O 0.49874 0.98225 0.07035 0.0
Zn33 Zn 0.51061 0.99861 0.01813 0.0
O34 O 0.48447 0.00494 0.00484 0.0
O35 O 0.473 0.96565 0.00873 0.0
O36 O 0.51447 0.98264 0.96944 0.0
O37 O 0.50687 0.94523 0.98207 0.0
O38 O 0.54166 0.99081 0.03402 0.0
O39 O 0.54287 0.02612 0.02669 0.0
C40 C 0.46775 0.98254 0.00244 0.0
C41 C 0.55378 0.01436 0.03447 0.0
C42 C 0.47127 0.95536 0.5841 0.0
C43 C 0.45071 0.95492 0.45764 0.0
O44 O 0.4873 0.97418 0.56675 0.0
Zn45 Zn 0.49317 0.98885 0.5137 0.0
O46 O 0.45211 0.93925 0.56805 0.0
Zn47 Zn 0.4597 0.95476 0.52122 0.0
O48 O 0.49062 0.95169 0.50554 0.0
O49 O 0.52283 0.9887 0.49909 0.0
O50 O 0.438 0.93867 0.48089 0.0
O51 O 0.47084 0.97399 0.46691 0.0
O52 O 0.49358 0.01959 0.52055 0.0
O53 O 0.45697 0.98709 0.52897 0.0
C54 C 0.51333 0.96549 0.49768 0.0
C55 C 0.47096 0.01048 0.52806 0.0
C56 C 0.01586 0.50972 0.56189 0.0
C57 C 0.01195 0.48992 0.43524 0.0
O58 O 0.99691 0.50788 0.54618 0.0
Zn59 Zn 0.98082 0.50012 0.49407 0.0
O60 O 0.03171 0.50726 0.54409 0.0
Zn61 Zn 0.01551 0.50144 0.49813 0.0
O62 O 0.01779 0.53552 0.48511 0.0
O63 O 0.98032 0.52984 0.48145 0.0
O64 O 0.02963 0.49492 0.45652 0.0
O65 O 0.99342 0.49139 0.44616 0.0
O66 O 0.95045 0.46945 0.50334 0.0
O67 O 0.98387 0.46648 0.50761 0.0
C68 C 1.00341 0.54407 0.4793 0.0
C69 C 0.96047 0.45652 0.50912 0.0
C70 C 0.5351 0.49643 0.42267 0.0
C71 C 0.50781 0.47624 0.54577 0.0
O72 O 0.52834 0.47643 0.43922 0.0
Zn73 Zn 0.51942 0.48553 0.48347 0.0
O74 O 0.53321 0.51366 0.43789 0.0
Zn75 Zn 0.52083 0.51954 0.48869 0.0
O76 O 0.54984 0.54854 0.50526 0.0
O77 O 0.55397 0.51577 0.50235 0.0
O78 O 0.51047 0.49705 0.53636 0.0
O79 O 0.51093 0.46311 0.52295 0.0
O80 O 0.48554 0.4846 0.47087 0.0
O81 O 0.49231 0.52224 0.47729 0.0
C82 C 0.56298 0.53862 0.50965 0.0
C83 C 0.47776 0.49993 0.46944 0.0
C84 C 0.69616 0.84915 0.38911 0.0
C85 C 0.68114 0.86268 0.26551 0.0
O86 O 0.7102 0.86725 0.36931 0.0
Zn87 Zn 0.69018 0.85603 0.32649 0.0
O88 O 0.67614 0.83158 0.3764 0.0
Zn89 Zn 0.65581 0.82208 0.32764 0.0
O90 O 0.65505 0.79198 0.31296 0.0
O91 O 0.69201 0.82463 0.30966 0.0
O92 O 0.66391 0.84266 0.27887 0.0
O93 O 0.70037 0.8761 0.28374 0.0
O94 O 0.65916 0.85871 0.34294 0.0
O95 O 0.6261 0.82188 0.34316 0.0
C96 C 0.67772 0.80151 0.30539 0.0
C97 C 0.6361 0.8449 0.34843 0.0
C98 C 0.19303 0.87408 0.30756 0.0
C99 C 0.14131 0.78964 0.34886 0.0
O100 O 0.20464 0.86217 0.30845 0.0
Zn101 Zn 0.19686 0.82571 0.32203 0.0
O102 O 0.17058 0.86337 0.31677 0.0
Zn103 Zn 0.16672 0.83167 0.3277 0.0
O104 O 0.18902 0.83856 0.37472 0.0
O105 O 0.21903 0.83142 0.36127 0.0
O106 O 0.13502 0.80571 0.34391 0.0
O107 O 0.16337 0.7949 0.34169 0.0
O108 O 0.20223 0.81356 0.27749 0.0
O109 O 0.17003 0.81865 0.27623 0.0
C110 C 0.20819 0.83768 0.38407 0.0
C111 C 0.18418 0.8124 0.26052 0.0
C112 C 0.17639 0.3292 0.39322 0.0
C113 C 0.20118 0.34439 0.26783 0.0
O114 O 0.18083 0.31558 0.37311 0.0
Zn115 Zn 0.18677 0.3347 0.32967 0.0
O116 O 0.17695 0.34834 0.38035 0.0
Zn117 Zn 0.18495 0.36797 0.33095 0.0
O118 O 0.15377 0.36584 0.31824 0.0
O119 O 0.15173 0.3299 0.31599 0.0
O120 O 0.19733 0.36078 0.28167 0.0
O121 O 0.19676 0.32549 0.28594 0.0
O122 O 0.21971 0.36715 0.34496 0.0
O123 O 0.21407 0.39902 0.34505 0.0
C124 C 0.14137 0.34286 0.31235 0.0
C125 C 0.22807 0.39009 0.35019 0.0
C126 C 0.19916 0.31877 0.82012 0.0
C127 C 0.16442 0.37068 0.8512 0.0
O128 O 0.17664 0.31144 0.82638 0.0
Zn129 Zn 0.18084 0.34375 0.83541 0.0
O130 O 0.21494 0.34174 0.82137 0.0
Zn131 Zn 0.21645 0.37593 0.83096 0.0
O132 O 0.23775 0.38806 0.87263 0.0
O133 O 0.20251 0.35416 0.88302 0.0
O134 O 0.18757 0.38292 0.84502 0.0
O135 O 0.1531 0.34742 0.84862 0.0
O136 O 0.19022 0.35944 0.78323 0.0
O137 O 0.22778 0.39151 0.78452 0.0
C138 C 0.22357 0.37103 0.89393 0.0
C139 C 0.20848 0.37711 0.7671 0.0
C140 C 0.71698 0.88317 0.81983 0.0
C141 C 0.66825 0.79572 0.852 0.0
O142 O 0.72556 0.869 0.82608 0.0
Zn143 Zn 0.6938 0.83939 0.83497 0.0
O144 O 0.69373 0.87452 0.82062 0.0
Zn145 Zn 0.6605 0.84067 0.82956 0.0
O146 O 0.64699 0.84907 0.87004 0.0
O147 O 0.68179 0.84986 0.88202 0.0
O148 O 0.65526 0.8057 0.84512 0.0
O149 O 0.6915 0.80848 0.84922 0.0
O150 O 0.67839 0.83202 0.78251 0.0
O151 O 0.64502 0.83525 0.78306 0.0
C152 C 0.66404 0.85298 0.89199 0.0
C153 C 0.66021 0.83135 0.76604 0.0
C154 C 0.17849 0.80111 0.88139 0.0
C155 C 0.20886 0.82495 0.75985 0.0
O156 O 0.18538 0.79003 0.86003 0.0
Zn157 Zn 0.19285 0.81231 0.8204 0.0
O158 O 0.17874 0.82072 0.87123 0.0
Zn159 Zn 0.18884 0.84371 0.8243 0.0
O160 O 0.15842 0.8418 0.81061 0.0
O161 O 0.15731 0.80639 0.80513 0.0
O162 O 0.20362 0.84014 0.77457 0.0
O163 O 0.20513 0.80589 0.7768 0.0
O164 O 0.22397 0.84481 0.84176 0.0
O165 O 0.21507 0.87456 0.84229 0.0
C166 C 0.14664 0.81916 0.80256 0.0
C167 C 0.23004 0.86708 0.84891 0.0
C168 C 0.28893 0.11412 0.70517 0.0
C169 C 0.2836 0.13645 0.58174 0.0
O170 O 0.30768 0.13436 0.69536 0.0
Zn171 Zn 0.32072 0.15707 0.64858 0.0
O172 O 0.27202 0.10156 0.68274 0.0
Zn173 Zn 0.28663 0.12377 0.64252 0.0
O174 O 0.31844 0.1212 0.62939 0.0
O175 O 0.35105 0.15773 0.63705 0.0
O176 O 0.26907 0.11642 0.59745 0.0
O177 O 0.30304 0.15258 0.59782 0.0
O178 O 0.32188 0.18653 0.66623 0.0
O179 O 0.28434 0.15475 0.66169 0.0
C180 C 0.34181 0.13535 0.62822 0.0
C181 C 0.2988 0.1773 0.66989 0.0
C182 C 0.81315 0.18321 0.75184 0.0
C183 C 0.7909 0.15906 0.62684 0.0
O184 O 0.79294 0.17755 0.73653 0.0
Zn185 Zn 0.80084 0.16962 0.69009 0.0
O186 O 0.83001 0.18206 0.73411 0.0
Zn187 Zn 0.8358 0.17296 0.68087 0.0
O188 O 0.86322 0.20379 0.66434 0.0
O189 O 0.82901 0.20486 0.67204 0.0
O190 O 0.81224 0.16266 0.635 0.0
O191 O 0.77755 0.16072 0.65095 0.0
O192 O 0.80275 0.13701 0.70083 0.0
O193 O 0.84035 0.14509 0.68848 0.0
C194 C 0.85167 0.21555 0.6629 0.0
C195 C 0.81877 0.13009 0.6993 0.0
C196 C 0.89657 0.71384 0.68142 0.0
C197 C 0.81063 0.67539 0.64447 0.0
O198 O 0.89005 0.72936 0.67221 0.0
Zn199 Zn 0.85798 0.72941 0.65314 0.0
O200 O 0.88109 0.69101 0.67972 0.0
Zn201 Zn 0.85355 0.69403 0.66277 0.0
O202 O 0.86443 0.70778 0.60958 0.0
O203 O 0.86823 0.74451 0.60644 0.0
O204 O 0.82227 0.6648 0.65475 0.0
O205 O 0.82177 0.69891 0.64298 0.0
O206 O 0.85264 0.74712 0.69102 0.0
O207 O 0.84616 0.71062 0.70752 0.0
C208 C 0.86943 0.72703 0.59145 0.0
C209 C 0.84662 0.73072 0.71498 0.0
C210 C 0.8819 0.71477 0.21127 0.0
C211 C 0.86331 0.7201 0.08651 0.0
O212 O 0.89336 0.7326 0.18977 0.0
Zn213 Zn 0.87345 0.71693 0.14835 0.0
O214 O 0.86348 0.69473 0.20007 0.0
Zn215 Zn 0.84331 0.68074 0.15093 0.0
O216 O 0.84779 0.65334 0.1395 0.0
O217 O 0.88211 0.68882 0.13477 0.0
O218 O 0.84844 0.69906 0.10016 0.0
O219 O 0.88089 0.73606 0.10529 0.0
O220 O 0.83891 0.71358 0.16388 0.0
O221 O 0.81086 0.67428 0.16492 0.0
C222 C 0.87059 0.66533 0.13242 0.0
C223 C 0.81666 0.69658 0.1693 0.0
C224 C 0.34348 0.20734 0.13394 0.0
C225 C 0.30407 0.12072 0.16919 0.0
O226 O 0.3538 0.19508 0.14233 0.0
Zn227 Zn 0.32443 0.16382 0.15088 0.0
O228 O 0.31996 0.19668 0.13382 0.0
Zn229 Zn 0.28923 0.1607 0.14431 0.0
O230 O 0.27309 0.16614 0.18475 0.0
O231 O 0.30926 0.17047 0.1979 0.0
O232 O 0.28886 0.128 0.1617 0.0
O233 O 0.327 0.1356 0.166 0.0
O234 O 0.3089 0.15317 0.09866 0.0
O235 O 0.27272 0.15076 0.09822 0.0
C236 C 0.28978 0.17056 0.20768 0.0
C237 C 0.28932 0.14871 0.08188 0.0
C238 C 0.84623 0.22412 0.12841 0.0
C239 C 0.82434 0.20172 0.25419 0.0
O240 O 0.84855 0.20595 0.13869 0.0
Zn241 Zn 0.84333 0.18468 0.18608 0.0
O242 O 0.83963 0.23497 0.15071 0.0
Zn243 Zn 0.83646 0.21453 0.19179 0.0
O244 O 0.87368 0.22361 0.20299 0.0
O245 O 0.87596 0.19007 0.19557 0.0
O246 O 0.82473 0.21952 0.23748 0.0
O247 O 0.83092 0.18803 0.23792 0.0
O248 O 0.81694 0.15249 0.17055 0.0
O249 O 0.80592 0.1806 0.17422 0.0
C250 C 0.88631 0.21273 0.20356 0.0
C251 C 0.8006 0.15861 0.16682 0.0
C252 C 0.98999 0.47009 0.37877 0.0
C253 C 0.01214 0.48221 0.39799 0.0
C254 C 0.98985 0.46411 0.34284 0.0
C255 C 0.02805 0.48654 0.26422 0.0
H256 H 0.9769 0.42671 0.2207 0.0
C257 C 0.01877 0.47863 0.11202 0.0
C258 C 0.99487 0.46884 0.09842 0.0
C259 C 0.0226 0.4757 0.148 0.0
C260 C 0.99124 0.44356 0.23242 0.0
H261 H 0.05143 0.49674 0.39508 0.0
H262 H 0.05124 0.48665 0.33159 0.0
H263 H 0.98092 0.42973 0.28588 0.0
H264 H 0.95619 0.44733 0.11121 0.0
H265 H 0.96277 0.44298 0.17468 0.0
H266 H 0.03761 0.50103 0.21133 0.0
C267 C 0.03401 0.48175 0.34461 0.0
C268 C 0.99362 0.44522 0.26969 0.0
C269 C 0.03412 0.48748 0.38086 0.0
C270 C 0.9748 0.45504 0.12108 0.0
C271 C 0.97863 0.45246 0.15738 0.0
C272 C 0.02555 0.48499 0.22706 0.0
C273 C 0.01188 0.47031 0.32519 0.0
C274 C 0.01172 0.46693 0.28594 0.0
C275 C 1.00261 0.46332 0.17144 0.0
C276 C 0.0068 0.46367 0.21069 0.0
H277 H 0.97271 0.46556 0.39133 0.0
H278 H 0.97257 0.45557 0.32848 0.0
H279 H 0.04192 0.50364 0.27601 0.0
H280 H 0.0346 0.48898 0.09492 0.0
H281 H 0.04129 0.48371 0.15763 0.0
C282 C 0.56208 0.52388 0.37412 0.0
C283 C 0.54542 0.50014 0.38625 0.0
C284 C 0.57126 0.52768 0.33924 0.0
C285 C 0.57334 0.53325 0.25927 0.0
H286 H 0.57614 0.48255 0.20423 0.0
C287 C 0.55537 0.52322 0.10972 0.0
C288 C 0.56599 0.5131 0.08746 0.0
C289 C 0.55984 0.52545 0.14638 0.0
C290 C 0.57601 0.49718 0.21926 0.0
H291 H 0.52564 0.46167 0.37188 0.0
H292 H 0.5404 0.46829 0.31034 0.0
H293 H 0.5717 0.4786 0.26903 0.0
H294 H 0.59076 0.49859 0.08598 0.0
H295 H 0.59894 0.50282 0.1506 0.0
H296 H 0.57809 0.55204 0.20971 0.0
C297 C 0.54721 0.48401 0.32795 0.0
C298 C 0.573 0.4947 0.25645 0.0
C299 C 0.5385 0.48017 0.36316 0.0
C300 C 0.58228 0.50642 0.10249 0.0
C301 C 0.5868 0.50867 0.13949 0.0
C302 C 0.57677 0.53592 0.2223 0.0
C303 C 0.56348 0.50788 0.31532 0.0
C304 C 0.57066 0.51224 0.27678 0.0
C305 C 0.5752 0.51777 0.16193 0.0
C306 C 0.57705 0.51743 0.20163 0.0
H307 H 0.56806 0.53957 0.39164 0.0
H308 H 0.58424 0.54624 0.33097 0.0
H309 H 0.57151 0.54716 0.27368 0.0
H310 H 0.54282 0.5287 0.09903 0.0
H311 H 0.5502 0.53213 0.1627 0.0
C312 C 0.48509 0.97705 0.14328 0.0
C313 C 0.48392 0.95761 0.12324 0.0
C314 C 0.47611 0.97324 0.17826 0.0
C315 C 0.46055 0.93132 0.25549 0.0
H316 H 0.43044 0.96811 0.29026 0.0
C317 C 0.43311 0.92778 0.40389 0.0
C318 C 0.44425 0.95129 0.41926 0.0
C319 C 0.43196 0.92508 0.36656 0.0
C320 C 0.43868 0.95761 0.28087 0.0
H321 H 0.47227 0.91885 0.12428 0.0
H322 H 0.45628 0.91212 0.18538 0.0
H323 H 0.44065 0.96986 0.2269 0.0
H324 H 0.46123 0.99019 0.40797 0.0
H325 H 0.45872 0.98547 0.34315 0.0
H326 H 0.45893 0.91945 0.30972 0.0
C327 C 0.46446 0.93041 0.17413 0.0
C328 C 0.4447 0.95873 0.24463 0.0
C329 C 0.47359 0.93425 0.13908 0.0
C330 C 0.45256 0.97185 0.39682 0.0
C331 C 0.45104 0.96913 0.35968 0.0
C332 C 0.45435 0.93006 0.29172 0.0
C333 C 0.46553 0.94986 0.19411 0.0
C334 C 0.45639 0.94619 0.23168 0.0
C335 C 0.44149 0.94581 0.34413 0.0
C336 C 0.44398 0.94374 0.30494 0.0
H337 H 0.49304 0.99531 0.13201 0.0
H338 H 0.47779 0.9888 0.19306 0.0
H339 H 0.46969 0.92158 0.24657 0.0
H340 H 0.42673 0.91164 0.4206 0.0
H341 H 0.42437 0.90687 0.35523 0.0
C342 C 0.02191 0.49546 0.62118 0.0
C343 C 0.01685 0.51126 0.60117 0.0
C344 C 0.01673 0.4923 0.65786 0.0
C345 C 0.9779 0.50122 0.72486 0.0
H346 H 0.01255 0.4827 0.79248 0.0
C347 C 0.97554 0.50503 0.88 0.0
C348 C 0.97079 0.48356 0.89815 0.0
C349 C 0.97758 0.50632 0.84276 0.0
C350 C 1.00258 0.48759 0.77366 0.0
H351 H 1.00436 0.53758 0.60373 0.0
H352 H 0.99709 0.53359 0.66805 0.0
H353 H 0.02685 0.49202 0.73067 0.0
H354 H 0.96359 0.44634 0.89197 0.0
H355 H 0.96793 0.44887 0.82648 0.0
H356 H 0.95454 0.49805 0.76883 0.0
C357 C 1.00379 0.52259 0.65548 0.0
C358 C 0.01072 0.49292 0.73823 0.0
C359 C 0.00835 0.52524 0.61872 0.0
C360 C 0.96683 0.46293 0.87842 0.0
C361 C 0.96954 0.46444 0.84116 0.0
C362 C 0.97015 0.49643 0.76047 0.0
C363 C 0.00688 0.50529 0.6753 0.0
C364 C 0.99854 0.49989 0.7133 0.0
C365 C 0.97557 0.48637 0.82326 0.0
C366 C 0.98241 0.48955 0.78506 0.0
H367 H 0.02809 0.48419 0.60804 0.0
H368 H 0.0192 0.47866 0.67197 0.0
H369 H 0.96755 0.50581 0.7064 0.0
H370 H 0.97892 0.52123 0.8948 0.0
H371 H 0.98235 0.52343 0.82943 0.0
C372 C 0.49335 0.47892 0.60673 0.0
C373 C 0.50421 0.46937 0.58397 0.0
C374 C 0.49391 0.47635 0.64377 0.0
C375 C 0.50978 0.44614 0.717 0.0
H376 H 0.52279 0.50502 0.76821 0.0
C377 C 0.54324 0.47091 0.86631 0.0
C378 C 0.52912 0.47815 0.88661 0.0
C379 C 0.53921 0.46684 0.82936 0.0
C380 C 0.5191 0.48843 0.75425 0.0
H381 H 0.52305 0.44852 0.58179 0.0
H382 H 0.52487 0.44477 0.64661 0.0
H383 H 0.51645 0.50285 0.70391 0.0
H384 H 0.49918 0.48596 0.88418 0.0
H385 H 0.49263 0.4793 0.82021 0.0
H386 H 0.51331 0.43227 0.76799 0.0
C387 C 0.51542 0.45379 0.63597 0.0
C388 C 0.5152 0.48704 0.71742 0.0
C389 C 0.51441 0.45596 0.59878 0.0
C390 C 0.51053 0.48054 0.86945 0.0
C391 C 0.50674 0.47677 0.83275 0.0
C392 C 0.51404 0.4477 0.75402 0.0
C393 C 0.50591 0.4647 0.65894 0.0
C394 C 0.51011 0.46576 0.69831 0.0
C395 C 0.52126 0.47028 0.81227 0.0
C396 C 0.51839 0.46876 0.77292 0.0
H397 H 0.48511 0.4891 0.59595 0.0
H398 H 0.48564 0.48426 0.66056 0.0
H399 H 0.50584 0.42945 0.7032 0.0
H400 H 0.55762 0.46881 0.8788 0.0
H401 H 0.55066 0.46188 0.81396 0.0
C402 C 0.52462 0.97753 0.8968 0.0
C403 C 0.51288 0.95762 0.92054 0.0
C404 C 0.52212 0.97378 0.85983 0.0
C405 C 0.47802 0.9333 0.79439 0.0
H406 H 0.53131 0.96808 0.72696 0.0
C407 C 0.46165 0.9304 0.64075 0.0
C408 C 0.47572 0.95267 0.62236 0.0
C409 C 0.46685 0.92806 0.67659 0.0
C410 C 0.51616 0.95838 0.74541 0.0
H411 H 0.49004 0.91807 0.92418 0.0
H412 H 0.48534 0.91156 0.85928 0.0
H413 H 0.54029 0.96921 0.79069 0.0
H414 H 0.50593 0.99007 0.62746 0.0
H415 H 0.51444 0.98624 0.68967 0.0
H416 H 0.45374 0.92343 0.74947 0.0
C417 C 0.49658 0.93003 0.86944 0.0
C418 C 0.52137 0.95892 0.78188 0.0
C419 C 0.49943 0.93375 0.90652 0.0
C420 C 0.49484 0.97256 0.64067 0.0
C421 C 0.49988 0.9703 0.67637 0.0
C422 C 0.47276 0.93298 0.7579 0.0
C423 C 0.50753 0.95008 0.84579 0.0
C424 C 0.50232 0.94679 0.80681 0.0
C425 C 0.48613 0.94799 0.69479 0.0
C426 C 0.49174 0.946 0.73303 0.0
H427 H 0.5351 0.99613 0.90682 0.0
H428 H 0.53063 0.98959 0.84225 0.0
H429 H 0.46295 0.92398 0.81309 0.0
H430 H 0.44687 0.9147 0.62733 0.0
H431 H 0.45597 0.91055 0.68984 0.0
C432 C 0.66736 0.81449 0.71014 0.0
C433 C 0.6593 0.82915 0.72678 0.0
C434 C 0.67136 0.81598 0.67324 0.0
C435 C 0.66303 0.84312 0.58868 0.0
H436 H 0.71782 0.83583 0.55728 0.0
C437 C 0.70715 0.87074 0.44782 0.0
C438 C 0.70042 0.84941 0.42786 0.0
C439 C 0.70478 0.86945 0.48513 0.0
C440 C 0.70259 0.83803 0.56587 0.0
H441 H 0.64841 0.85634 0.71811 0.0
H442 H 0.65638 0.85987 0.65393 0.0
H443 H 0.7062 0.83016 0.62037 0.0
H444 H 0.6877 0.8105 0.43093 0.0
H445 H 0.68481 0.80855 0.49641 0.0
H446 H 0.66029 0.85191 0.53396 0.0
C447 C 0.65889 0.84656 0.6689 0.0
C448 C 0.69562 0.83445 0.60188 0.0
C449 C 0.65427 0.84457 0.70575 0.0
C450 C 0.69317 0.82721 0.44585 0.0
C451 C 0.69144 0.82607 0.48314 0.0
C452 C 0.6704 0.84725 0.55284 0.0
C453 C 0.66813 0.83275 0.65227 0.0
C454 C 0.67554 0.83666 0.61378 0.0
C455 C 0.69634 0.84697 0.50286 0.0
C456 C 0.69009 0.84456 0.54121 0.0
H457 H 0.67128 0.80239 0.72589 0.0
H458 H 0.67762 0.80439 0.66139 0.0
H459 H 0.64727 0.84461 0.59646 0.0
H460 H 0.71239 0.88797 0.43447 0.0
H461 H 0.7086 0.88574 0.50003 0.0
C462 C 0.21289 0.80975 0.6998 0.0
C463 C 0.21815 0.82939 0.72278 0.0
C464 C 0.21879 0.81398 0.6634 0.0
C465 C 0.23795 0.8271 0.58745 0.0
H466 H 0.22636 0.87693 0.54626 0.0
C467 C 0.23597 0.8396 0.43399 0.0
C468 C 0.21627 0.84225 0.42189 0.0
C469 C 0.24183 0.84172 0.4705 0.0
C470 C 0.22964 0.86291 0.55727 0.0
H471 H 0.23549 0.86895 0.72665 0.0
H472 H 0.24687 0.8765 0.66372 0.0
H473 H 0.22612 0.87257 0.61066 0.0
H474 H 0.18777 0.84996 0.43853 0.0
H475 H 0.19755 0.85314 0.50163 0.0
H476 H 0.23959 0.81632 0.53364 0.0
C477 C 0.23724 0.85772 0.67318 0.0
C478 C 0.2299 0.86063 0.59439 0.0
C479 C 0.23086 0.85343 0.70932 0.0
C480 C 0.20309 0.84784 0.44683 0.0
C481 C 0.20886 0.84987 0.48314 0.0
C482 C 0.23737 0.82919 0.5502 0.0
C483 C 0.23049 0.83801 0.64944 0.0
C484 C 0.23348 0.84232 0.61004 0.0
C485 C 0.22809 0.84655 0.49556 0.0
C486 C 0.23251 0.84668 0.5347 0.0
H487 H 0.20303 0.79102 0.70952 0.0
H488 H 0.21302 0.79829 0.64601 0.0
H489 H 0.24125 0.8131 0.5985 0.0
H490 H 0.24653 0.83534 0.41541 0.0
H491 H 0.25693 0.83933 0.47914 0.0
C492 C 0.19249 0.32346 0.45103 0.0
C493 C 0.17458 0.32603 0.43232 0.0
C494 C 0.19558 0.32801 0.4879 0.0
C495 C 0.18207 0.3624 0.5567 0.0
H496 H 0.20937 0.3344 0.62199 0.0
C497 C 0.18507 0.3716 0.71101 0.0
C498 C 0.2075 0.37818 0.72779 0.0
C499 C 0.18228 0.3673 0.67418 0.0
C500 C 0.20198 0.34252 0.60384 0.0
H501 H 0.14448 0.33315 0.43743 0.0
H502 H 0.14851 0.33922 0.50202 0.0
H503 H 0.19927 0.31894 0.56074 0.0
H504 H 0.2448 0.38606 0.71939 0.0
H505 H 0.23972 0.37793 0.65469 0.0
H506 H 0.18389 0.38522 0.60053 0.0
C507 C 0.16108 0.33498 0.48831 0.0
C508 C 0.19617 0.33368 0.56874 0.0
C509 C 0.15843 0.33105 0.45139 0.0
C510 C 0.22745 0.38139 0.70692 0.0
C511 C 0.22447 0.37648 0.67012 0.0
C512 C 0.18743 0.37086 0.59193 0.0
C513 C 0.18049 0.33478 0.50679 0.0
C514 C 0.18607 0.34347 0.54465 0.0
C515 C 0.2017 0.36891 0.65365 0.0
C516 C 0.19746 0.36103 0.61577 0.0
H517 H 0.20546 0.32004 0.43672 0.0
H518 H 0.21082 0.32777 0.50096 0.0
H519 H 0.17505 0.37099 0.53884 0.0
H520 H 0.16938 0.36882 0.72664 0.0
H521 H 0.16453 0.36142 0.66209 0.0
C522 C 0.69867 0.88314 0.20663 0.0
C523 C 0.67825 0.86946 0.22877 0.0
C524 C 0.69537 0.88659 0.17045 0.0
C525 C 0.64874 0.85665 0.09951 0.0
H526 H 0.69552 0.91202 0.04278 0.0
C527 C 0.64204 0.8566 0.94568 0.0
C528 C 0.66389 0.86102 0.92905 0.0
C529 C 0.64201 0.86216 0.98198 0.0
C530 C 0.68222 0.89652 0.05838 0.0
H531 H 0.63851 0.85043 0.23151 0.0
H532 H 0.63276 0.85725 0.16904 0.0
H533 H 0.69886 0.91383 0.10806 0.0
H534 H 0.70306 0.87612 0.93658 0.0
H535 H 0.70299 0.88587 -0.00048 0.0
H536 H 0.63244 0.83917 0.04986 0.0
C537 C 0.65129 0.86449 0.17895 0.0
C538 C 0.68421 0.89748 0.09572 0.0
C539 C 0.65458 0.86068 0.21481 0.0
C540 C 0.68587 0.87227 0.94877 0.0
C541 C 0.68589 0.8781 0.98475 0.0
C542 C 0.64663 0.8558 0.06229 0.0
C543 C 0.67159 0.87675 0.15598 0.0
C544 C 0.66786 0.87728 0.1167 0.0
C545 C 0.66391 0.8726 0.00196 0.0
C546 C 0.66373 0.87545 0.04131 0.0
H547 H 0.71711 0.89007 0.21678 0.0
H548 H 0.71144 0.89593 0.15354 0.0
H549 H 0.63605 0.84054 0.11461 0.0
H550 H 0.62486 0.848 0.93107 0.0
H551 H 0.62482 0.85782 0.99464 0.0
C552 C 0.15626 0.7985 0.93765 0.0
C553 C 0.17231 0.79316 0.9189 0.0
C554 C 0.1536 0.79518 0.97463 0.0
C555 C 0.17008 0.77038 0.05428 0.0
H556 H 0.16903 0.82477 0.1012 0.0
C557 C 0.19508 0.79829 0.20401 0.0
C558 C 0.17978 0.8049 0.22247 0.0
C559 C 0.19171 0.793 0.16733 0.0
C560 C 0.16903 0.80929 0.08853 0.0
H561 H 0.19717 0.77891 0.92353 0.0
H562 H 0.19331 0.77397 0.98852 0.0
H563 H 0.16684 0.82187 0.03647 0.0
H564 H 0.14826 0.81002 0.21721 0.0
H565 H 0.14258 0.80099 0.15352 0.0
H566 H 0.17329 0.75854 0.10699 0.0
C567 C 0.18231 0.78019 0.97466 0.0
C568 C 0.16762 0.80751 0.05136 0.0
C569 C 0.18458 0.78305 0.93743 0.0
C570 C 0.16053 0.80523 0.20382 0.0
C571 C 0.15728 0.8001 0.16729 0.0
C572 C 0.17176 0.77233 0.09167 0.0
C573 C 0.16743 0.78704 0.99384 0.0
C574 C 0.16801 0.788 0.03367 0.0
C575 C 0.17309 0.7944 0.14853 0.0
C576 C 0.17115 0.79179 0.10909 0.0
H577 H 0.14634 0.80602 0.92386 0.0
H578 H 0.14135 0.79988 0.98832 0.0
H579 H 0.17029 0.75504 0.04157 0.0
H580 H 0.21 0.79777 0.21766 0.0
H581 H 0.20422 0.78877 0.15341 0.0
C582 C 0.21958 0.3477 0.94964 0.0
C583 C 0.23057 0.37027 0.93142 0.0
C584 C 0.22349 0.34672 0.98618 0.0
C585 C 0.23396 0.38315 0.06549 0.0
H586 H 0.24026 0.33156 0.1124 0.0
C587 C 0.22498 0.3722 0.21776 0.0
C588 C 0.21107 0.34821 0.2311 0.0
C589 C 0.2329 0.37635 0.18227 0.0
C590 C 0.23833 0.34598 0.09973 0.0
H591 H 0.2552 0.40942 0.9367 0.0
H592 H 0.2617 0.40779 0.00128 0.0
H593 H 0.24528 0.33668 0.04748 0.0
H594 H 0.19527 0.3097 0.21826 0.0
H595 H 0.20819 0.3168 0.15553 0.0
H596 H 0.22562 0.39169 0.11694 0.0
C597 C 0.25014 0.39086 0.987 0.0
C598 C 0.24139 0.34901 0.06261 0.0
C599 C 0.24651 0.39179 0.95013 0.0
C600 C 0.20597 0.32838 0.2086 0.0
C601 C 0.21353 0.33251 0.17273 0.0
C602 C 0.23064 0.37997 0.10245 0.0
C603 C 0.23824 0.36834 0.00546 0.0
C604 C 0.23882 0.36737 0.04508 0.0
C605 C 0.22668 0.35658 0.15895 0.0
C606 C 0.23238 0.3611 0.12003 0.0
H607 H 0.20736 0.33077 0.9358 0.0
H608 H 0.21389 0.32915 -0.0003 0.0
H609 H 0.23142 0.39715 0.05265 0.0
H610 H 0.22959 0.38788 0.23473 0.0
H611 H 0.24356 0.39512 0.17299 0.0
C612 C 0.26466 0.13372 0.02482 0.0
C613 C 0.2867 0.14146 0.04367 0.0
C614 C 0.26285 0.12723 0.98854 0.0
C615 C 0.3016 0.13966 0.90946 0.0
H616 H 0.24771 0.08029 0.86922 0.0
C617 C 0.30703 0.11527 0.76473 0.0
C618 C 0.28605 0.10789 0.7436 0.0
C619 C 0.30548 0.11523 0.80198 0.0
C620 C 0.26279 0.09703 0.88001 0.0
H621 H 0.32395 0.14805 0.03926 0.0
H622 H 0.32079 0.13701 0.97647 0.0
H623 H 0.2475 0.0893 0.9331 0.0
H624 H 0.24672 0.09317 0.74468 0.0
H625 H 0.24403 0.09369 0.80999 0.0
H626 H 0.31675 0.14794 0.85687 0.0
C627 C 0.30496 0.13604 0.98955 0.0
C628 C 0.26263 0.10218 0.91653 0.0
C629 C 0.30671 0.1423 0.02563 0.0
C630 C 0.26315 0.09875 0.76043 0.0
C631 C 0.26164 0.09911 0.79786 0.0
C632 C 0.30168 0.13466 0.87314 0.0
C633 C 0.28313 0.12866 0.9705 0.0
C634 C 0.28222 0.12343 0.93162 0.0
C635 C 0.283 0.10835 0.81898 0.0
C636 C 0.28247 0.11314 0.85795 0.0
H637 H 0.24889 0.13277 0.03801 0.0
H638 H 0.24583 0.12169 0.9744 0.0
H639 H 0.31671 0.15642 0.92019 0.0
H640 H 0.32488 0.12222 0.75238 0.0
H641 H 0.32217 0.12168 0.81742 0.0
C642 C 0.83883 0.1943 0.80723 0.0
C643 C 0.81755 0.191 0.78989 0.0
C644 C 0.84312 0.20116 0.84319 0.0
C645 C 0.82763 0.22989 0.91656 0.0
H646 H 0.84733 0.19239 0.97638 0.0
C647 C 0.83134 0.23459 0.07261 0.0
C648 C 0.84834 0.22976 0.08977 0.0
C649 C 0.82935 0.23355 0.03516 0.0
C650 C 0.84234 0.20344 0.96007 0.0
H651 H 0.78433 0.19292 0.79666 0.0
H652 H 0.79192 0.20503 0.85985 0.0
H653 H 0.83976 0.18289 0.91312 0.0
H654 H 0.87806 0.22237 0.08147 0.0
H655 H 0.87557 0.22187 0.01641 0.0
H656 H 0.83038 0.25057 0.96373 0.0
C657 C 0.80526 0.20229 0.84535 0.0
C658 C 0.83784 0.19785 0.92375 0.0
C659 C 0.80084 0.1952 0.80928 0.0
C660 C 0.86466 0.22598 0.06888 0.0
C661 C 0.863 0.22539 0.0316 0.0
C662 C 0.83236 0.23567 0.95305 0.0
C663 C 0.82632 0.20505 0.86276 0.0
C664 C 0.83054 0.21104 0.90152 0.0
C665 C 0.84454 0.22796 0.01428 0.0
C666 C 0.83992 0.22258 0.97523 0.0
H667 H 0.85218 0.19135 0.79315 0.0
H668 H 0.85965 0.20344 0.85573 0.0
H669 H 0.82215 0.24045 0.89998 0.0
H670 H 0.81836 0.23729 0.08816 0.0
H671 H 0.8149 0.2356 0.02283 0.0
C672 C 0.87384 0.74943 0.03507 0.0
C673 C 0.85953 0.72572 0.04936 0.0
C674 C 0.86999 0.75457 -2e-05 0.0
C675 C 0.82497 0.72965 0.92496 0.0
H676 H 0.88241 0.7667 0.86525 0.0
C677 C 0.82769 0.71496 0.77459 0.0
C678 C 0.84208 0.73508 0.75223 0.0
C679 C 0.82668 0.71825 0.81131 0.0
C680 C 0.86616 0.7568 0.88171 0.0
H681 H 0.82992 0.68885 0.03802 0.0
H682 H 0.82367 0.69761 0.97684 0.0
H683 H 0.88744 0.76388 0.92944 0.0
H684 H 0.86563 0.77458 0.7503 0.0
H685 H 0.86423 0.78033 0.81507 0.0
H686 H 0.80385 0.72145 0.87671 0.0
C687 C 0.83747 0.71243 0.99287 0.0
C688 C 0.86903 0.75514 0.91853 0.0
C689 C 0.84123 0.70733 0.02791 0.0
C690 C 0.85433 0.75878 0.76697 0.0
C691 C 0.85365 0.76204 0.80396 0.0
C692 C 0.82213 0.73116 0.88811 0.0
C693 C 0.85181 0.73609 0.97842 0.0
C694 C 0.84852 0.74089 0.94041 0.0
C695 C 0.84031 0.7417 0.82654 0.0
C696 C 0.84275 0.74413 0.866 0.0
H697 H 0.88797 0.76406 0.05101 0.0
H698 H 0.88122 0.77304 0.98978 0.0
H699 H 0.80875 0.71903 0.94118 0.0
H700 H 0.81799 0.6965 0.76387 0.0
H701 H 0.81643 0.70221 0.82805 0.0
C702 C 0.30622 0.18077 0.26978 0.0
C703 C 0.28634 0.17348 0.24622 0.0
C704 C 0.30281 0.18011 0.30669 0.0
C705 C 0.25523 0.14836 0.37518 0.0
H706 H 0.30811 0.19306 0.43736 0.0
C707 C 0.28705 0.16606 0.53474 0.0
C708 C 0.27846 0.14168 0.54522 0.0
C709 C 0.28403 0.17161 0.49958 0.0
C710 C 0.29283 0.18058 0.42073 0.0
H711 H 0.24743 0.16094 0.24299 0.0
H712 H 0.24149 0.16018 0.30796 0.0
H713 H 0.31006 0.2019 0.37403 0.0
H714 H 0.25931 0.10387 0.5276 0.0
H715 H 0.25512 0.11352 0.46554 0.0
H716 H 0.23779 0.12725 0.42216 0.0
C717 C 0.25968 0.16603 0.29766 0.0
C718 C 0.29416 0.18552 0.38412 0.0
C719 C 0.26311 0.16669 0.26046 0.0
C720 C 0.26607 0.12282 0.52016 0.0
C721 C 0.26353 0.12841 0.48464 0.0
C722 C 0.25372 0.14357 0.41201 0.0
C723 C 0.27944 0.17227 0.32121 0.0
C724 C 0.2758 0.16908 0.36068 0.0
C725 C 0.27291 0.15296 0.47371 0.0
C726 C 0.27284 0.15928 0.43517 0.0
H727 H 0.32439 0.18617 0.25978 0.0
H728 H 0.31842 0.18469 0.32382 0.0
H729 H 0.24078 0.13522 0.35794 0.0
H730 H 0.29629 0.18094 0.55373 0.0
H731 H 0.29083 0.19063 0.49262 0.0
C732 C 0.8049 0.20782 0.3094 0.0
C733 C 0.81607 0.19615 0.29197 0.0
C734 C 0.79656 0.20164 0.34481 0.0
C735 C 0.78126 0.15287 0.41354 0.0
H736 H 0.79321 0.20418 0.48148 0.0
C737 C 0.79377 0.14642 0.56468 0.0
C738 C 0.78386 0.15634 0.58864 0.0
C739 C 0.79152 0.1482 0.52775 0.0
C740 C 0.78931 0.18957 0.4627 0.0
H741 H 0.82762 0.16916 0.29839 0.0
H742 H 0.81383 0.15896 0.35978 0.0
H743 H 0.80203 0.21429 0.41808 0.0
H744 H 0.76297 0.17506 0.59283 0.0
H745 H 0.7594 0.17858 0.5279 0.0
H746 H 0.76978 0.12844 0.45854 0.0
C747 C 0.81077 0.17235 0.34605 0.0
C748 C 0.79437 0.19536 0.42632 0.0
C749 C 0.81892 0.1784 0.3108 0.0
C750 C 0.77057 0.16702 0.57495 0.0
C751 C 0.76873 0.16925 0.53787 0.0
C752 C 0.77647 0.14717 0.44988 0.0
C753 C 0.79931 0.18372 0.36352 0.0
C754 C 0.79105 0.17719 0.40141 0.0
C755 C 0.77969 0.16034 0.51394 0.0
C756 C 0.78099 0.16556 0.47496 0.0
H757 H 0.80233 0.22151 0.29559 0.0
H758 H 0.78771 0.21068 0.35734 0.0
H759 H 0.77783 0.13826 0.39503 0.0
H760 H 0.80417 0.13816 0.5745 0.0
H761 H 0.80032 0.14133 0.51001 0.0
C762 C 0.87361 0.70712 0.53631 0.0
C763 C 0.87554 0.72802 0.55301 0.0
C764 C 0.87776 0.70708 0.49969 0.0
C765 C 0.90671 0.74536 0.42105 0.0
H766 H 0.85503 0.69024 0.36945 0.0
C767 C 0.89881 0.74085 0.26601 0.0
C768 C 0.88791 0.71762 0.24979 0.0
C769 C 0.90055 0.74301 0.30333 0.0
C770 C 0.86992 0.70552 0.38339 0.0
H771 H 0.88427 0.76563 0.54449 0.0
H772 H 0.89173 0.76556 0.48002 0.0
H773 H 0.852 0.69277 0.43391 0.0
H774 H 0.87218 0.67866 0.25949 0.0
H775 H 0.8762 0.68245 0.32431 0.0
H776 H 0.92479 0.75797 0.37043 0.0
C777 C 0.88693 0.74924 0.49559 0.0
C778 C 0.86806 0.70703 0.42036 0.0
C779 C 0.88254 0.74922 0.53237 0.0
C780 C 0.88036 0.69678 0.27133 0.0
C781 C 0.88248 0.69896 0.3085 0.0
C782 C 0.90873 0.74371 0.38393 0.0
C783 C 0.88412 0.72799 0.47887 0.0
C784 C 0.88641 0.72691 0.43957 0.0
C785 C 0.89172 0.72199 0.32506 0.0
C786 C 0.89035 0.72371 0.36466 0.0
H787 H 0.86837 0.6905 0.55137 0.0
H788 H 0.87575 0.69056 0.48751 0.0
H789 H 0.92116 0.76081 0.43535 0.0
H790 H 0.90469 0.75723 0.25002 0.0
H791 H 0.90764 0.76102 0.31509 0.0
C792 C 0.07644 0.49614 0.95725 0.0
C793 C 0.05153 0.48151 0.96641 0.0
C794 C 0.08989 0.48526 0.94521 0.0
C795 C 0.08888 0.42581 0.94552 0.0
H796 H 0.13176 0.45216 0.86309 0.0
C797 C 0.12668 0.37092 0.87268 0.0
C798 C 0.15151 0.38383 0.86255 0.0
C799 C 0.11507 0.38352 0.88513 0.0
C800 C 0.12004 0.44471 0.88636 0.0
H801 H 0.0213 0.44393 0.97009 0.0
H802 H 0.0445 0.42528 0.94907 0.0
H803 H 0.11139 0.47359 0.88656 0.0
H804 H 0.18349 0.42017 0.85694 0.0
H805 H 0.16329 0.44199 0.87874 0.0
H806 H 0.09733 0.39687 0.94527 0.0
C807 C 0.05384 0.44507 0.95157 0.0
C808 C 0.10843 0.45704 0.89987 0.0
C809 C 0.04047 0.45586 0.96343 0.0
C810 C 0.16432 0.40961 0.86451 0.0
C811 C 0.15271 0.42218 0.87684 0.0
C812 C 0.10043 0.4135 0.93203 0.0
C813 C 0.0787 0.45956 0.94234 0.0
C814 C 0.0925 0.44758 0.92938 0.0
C815 C 0.12802 0.40929 0.88762 0.0
C816 C 0.11598 0.42266 0.90209 0.0
H817 H 0.08548 0.51593 0.9592 0.0
H818 H 0.10908 0.49692 0.93848 0.0
H819 H 0.07708 0.41826 0.96871 0.0
H820 H 0.11626 0.35108 0.87144 0.0
H821 H 0.09591 0.37305 0.89274 0.0
C822 C 0.66916 0.75773 0.87126 0.0
C823 C 0.65586 0.76974 0.86416 0.0
C824 C 0.65713 0.73339 0.88358 0.0
C825 C 0.6 0.68729 0.92878 0.0
H826 H 0.61645 0.64025 0.89012 0.0
C827 C 0.54208 0.58307 0.95961 0.0
C828 C 0.55476 0.57017 0.96427 0.0
C829 C 0.55447 0.60752 0.94786 0.0
C830 C 0.61181 0.6532 0.90159 0.0
H831 H 0.61938 0.76539 0.86429 0.0
H832 H 0.59861 0.72324 0.88549 0.0
H833 H 0.6384 0.68261 0.8691 0.0
H834 H 0.59059 0.57315 0.96089 0.0
H835 H 0.6121 0.61562 0.9412 0.0
H836 H 0.57352 0.65798 0.96141 0.0
C837 C 0.61833 0.73262 0.88195 0.0
C838 C 0.62443 0.67751 0.88948 0.0
C839 C 0.63028 0.75681 0.86951 0.0
C840 C 0.58015 0.58241 0.95736 0.0
C841 C 0.59251 0.6068 0.94579 0.0
C842 C 0.58745 0.66301 0.941 0.0
C843 C 0.63158 0.72061 0.88929 0.0
C844 C 0.61862 0.69485 0.90282 0.0
C845 C 0.57985 0.61968 0.94061 0.0
C846 C 0.59315 0.64559 0.92754 0.0
H847 H 0.68887 0.76714 0.8675 0.0
H848 H 0.66791 0.72473 0.88922 0.0
H849 H 0.5953 0.70026 0.94002 0.0
H850 H 0.52251 0.57419 0.96456 0.0
H851 H 0.54405 0.61675 0.94382 0.0
C852 C 0.26391 0.90885 0.86793 0.0
C853 C 0.25388 0.88326 0.86649 0.0
C854 C 0.28633 0.92369 0.88538 0.0
C855 C 0.32552 0.92121 0.95568 0.0
H856 H 0.3809 0.97369 0.90548 0.0
C857 C 0.42391 0.95064 0.99367 0.0
C858 C 0.44239 0.97541 0.99166 0.0
C859 C 0.40019 0.94315 0.98192 0.0
C860 C 0.3655 0.95947 0.92019 0.0
H861 H 0.25942 0.8532 0.88237 0.0
H862 H 0.29806 0.87893 0.91304 0.0
H863 H 0.34015 0.95366 0.87764 0.0
H864 H 0.4503 0.01186 0.97617 0.0
H865 H 0.40846 0.99862 0.95547 0.0
H866 H 0.35066 0.92646 -0.00217 0.0
C867 C 0.28869 0.88755 0.90067 0.0
C868 C 0.34222 0.948 0.90421 0.0
C869 C 0.26664 0.87284 0.88285 0.0
C870 C 0.43644 0.99265 0.97812 0.0
C871 C 0.41255 0.98506 0.96611 0.0
C872 C 0.34863 0.93275 0.97171 0.0
C873 C 0.29873 0.91307 0.90225 0.0
C874 C 0.32225 0.92818 0.92132 0.0
C875 C 0.3942 0.96018 0.96782 0.0
C876 C 0.36908 0.95135 0.95359 0.0
H877 H 0.2545 0.91739 0.8555 0.0
H878 H 0.29376 0.94336 0.88621 0.0
H879 H 0.3103 0.90624 0.96967 0.0
H880 H 0.42779 0.93684 0.00392 0.0
H881 H 0.38667 0.92378 0.98301 0.0
C882 C 0.43476 0.01591 0.53838 0.0
C883 C 0.46035 0.0264 0.5356 0.0
C884 C 0.42434 0.03045 0.54568 0.0
C885 C 0.43658 0.08828 0.58667 0.0
H886 H 0.37744 0.07488 0.53565 0.0
C887 C 0.38329 0.14025 0.61468 0.0
C888 C 0.35758 0.1254 0.61623 0.0
C889 C 0.39785 0.13056 0.60285 0.0
C890 C 0.39386 0.07877 0.55032 0.0
H891 H 0.4951 0.06052 0.53848 0.0
H892 H 0.47675 0.08605 0.5516 0.0
H893 H 0.39941 0.05385 0.51823 0.0
H894 H 0.32711 0.08865 0.60686 0.0
H895 H 0.35231 0.07185 0.5867 0.0
H896 H 0.4306 0.11281 0.61935 0.0
C897 C 0.46484 0.06647 0.54805 0.0
C898 C 0.40647 0.06674 0.54027 0.0
C899 C 0.47532 0.05188 0.54039 0.0
C900 C 0.34681 0.10068 0.60588 0.0
C901 C 0.36129 0.09107 0.59403 0.0
C902 C 0.42388 0.10031 0.59683 0.0
C903 C 0.4392 0.05588 0.5506 0.0
C904 C 0.42764 0.0709 0.55884 0.0
C905 C 0.38696 0.10587 0.59215 0.0
C906 C 0.40203 0.09523 0.57929 0.0
H907 H 0.42264 0.99636 0.53489 0.0
H908 H 0.40457 0.02166 0.54803 0.0
H909 H 0.45278 0.09178 0.60159 0.0
H910 H 0.39219 0.15937 0.62247 0.0
H911 H 0.41756 0.14247 0.60156 0.0
C912 C 0.88642 0.25188 0.63205 0.0
C913 C 0.86332 0.2409 0.64875 0.0
C914 C 0.89607 0.27501 0.61598 0.0
C915 C 0.89021 0.33066 0.6141 0.0
H916 H 0.92046 0.34048 0.52056 0.0
C917 C 0.92217 0.42009 0.53323 0.0
C918 C 0.94601 0.43033 0.51921 0.0
C919 C 0.91018 0.39607 0.5467 0.0
C920 C 0.91215 0.33805 0.54675 0.0
H921 H 0.83259 0.24591 0.66258 0.0
H922 H 0.84934 0.28594 0.63461 0.0
H923 H 0.90482 0.30107 0.55079 0.0
H924 H 0.97545 0.42305 0.50659 0.0
H925 H 0.95471 0.38157 0.52996 0.0
H926 H 0.89777 0.36773 0.61021 0.0
C927 C 0.86009 0.27686 0.63403 0.0
C928 C 0.90331 0.31552 0.56414 0.0
C929 C 0.85044 0.25381 0.64993 0.0
C930 C 0.95712 0.41577 0.51741 0.0
C931 C 0.94516 0.39187 0.53059 0.0
C932 C 0.89907 0.35321 0.59672 0.0
C933 C 0.88286 0.28761 0.61649 0.0
C934 C 0.8924 0.31163 0.59812 0.0
C935 C 0.92175 0.38186 0.546 0.0
C936 C 0.91034 0.35723 0.56298 0.0
H937 H 0.89678 0.24242 0.63066 0.0
H938 H 0.91384 0.28299 0.60306 0.0
H939 H 0.8821 0.32831 0.64042 0.0
H940 H 0.91318 0.43089 0.535 0.0
H941 H 0.89201 0.38873 0.55811 0.0
C942 C 0.77279 0.63529 0.62982 0.0
C943 C 0.78459 0.66094 0.63324 0.0
C944 C 0.74854 0.62199 0.61755 0.0
C945 C 0.70246 0.62991 0.56647 0.0
H946 H 0.65648 0.56628 0.6064 0.0
C947 C 0.59914 0.57825 0.53034 0.0
C948 C 0.58831 0.55294 0.52384 0.0
C949 C 0.62294 0.59152 0.54424 0.0
C950 C 0.66918 0.58394 0.59477 0.0
H951 H 0.77988 0.69264 0.62737 0.0
H952 H 0.73763 0.66949 0.60671 0.0
H953 H 0.69815 0.58907 0.63018 0.0
H954 H 0.59407 0.52175 0.5269 0.0
H955 H 0.6355 0.5449 0.55095 0.0
H956 H 0.67345 0.6248 0.53117 0.0
C957 C 0.74722 0.65965 0.61271 0.0
C958 C 0.69307 0.59699 0.60836 0.0
C959 C 0.77144 0.67292 0.6248 0.0
C960 C 0.60182 0.54123 0.53156 0.0
C961 C 0.62553 0.55445 0.5456 0.0
C962 C 0.67856 0.61691 0.55299 0.0
C963 C 0.73553 0.63405 0.60856 0.0
C964 C 0.71003 0.62013 0.59434 0.0
C965 C 0.63637 0.57974 0.55213 0.0
C966 C 0.66166 0.59375 0.56692 0.0
H967 H 0.78242 0.62551 0.636 0.0
H968 H 0.7402 0.60233 0.61434 0.0
H969 H 0.71514 0.64747 0.55457 0.0
H970 H 0.58922 0.58783 0.52478 0.0
H971 H 0.63072 0.61096 0.54929 0.0
C972 C 0.90914 0.66572 0.11382 0.0
C973 C 0.88384 0.65242 0.12135 0.0
C974 C 0.92166 0.65364 0.1032 0.0
C975 C 0.91718 0.59266 0.10455 0.0
H976 H 0.96581 0.62001 0.02884 0.0
C977 C 0.95546 0.53674 0.03703 0.0
C978 C 0.98069 0.54851 0.02911 0.0
C979 C 0.94462 0.55013 0.04882 0.0
C980 C 0.95252 0.61229 0.05033 0.0
H981 H 0.8519 0.61591 0.12348 0.0
H982 H 0.87366 0.59488 0.10465 0.0
H983 H 0.94488 0.64182 0.04827 0.0
H984 H 0.01427 0.58377 0.02721 0.0
H985 H 0.99526 0.60727 0.048 0.0
H986 H 0.92466 0.56307 0.10647 0.0
C987 C 0.88391 0.61466 0.10742 0.0
C988 C 0.9405 0.62478 0.06148 0.0
C989 C 0.87139 0.62674 0.11803 0.0
C990 C 0.99479 0.57413 0.03304 0.0
C991 C 0.98388 0.5876 0.04481 0.0
C992 C 0.92916 0.58018 0.09339 0.0
C993 C 0.90922 0.62795 0.09987 0.0
C994 C 0.92253 0.61503 0.08855 0.0
C995 C 0.95866 0.57571 0.05304 0.0
C996 C 0.94683 0.58971 0.06593 0.0
H997 H 0.91935 0.68552 0.11617 0.0
H998 H 0.94119 0.66445 0.09806 0.0
H999 H 0.90383 0.58484 0.12595 0.0
H1000 H 0.94395 0.51705 0.03419 0.0
H1001 H 0.92509 0.54042 0.05428 0.0
C1002 C 0.38393 0.24521 0.12052 0.0
C1003 C 0.35827 0.23365 0.12383 0.0
C1004 C 0.39765 0.26986 0.11017 0.0
C1005 C 0.39165 0.31927 0.06505 0.0
H1006 H 0.45577 0.36133 0.10678 0.0
C1007 C 0.45031 0.42388 0.03398 0.0
C1008 C 0.47536 0.43267 0.02737 0.0
C1009 C 0.43519 0.39998 0.047 0.0
C1010 C 0.43795 0.34978 0.0947 0.0
H1011 H 0.32699 0.23917 0.1193 0.0
H1012 H 0.3509 0.28213 0.1019 0.0
H1013 H 0.43124 0.31905 0.12725 0.0
H1014 H 0.50405 0.4231 0.02934 0.0
H1015 H 0.47785 0.38181 0.05179 0.0
H1016 H 0.39848 0.35014 0.03249 0.0
C1017 C 0.36043 0.27207 0.10663 0.0
C1018 C 0.4239 0.32549 0.10636 0.0
C1019 C 0.34671 0.24742 0.11686 0.0
C1020 C 0.48487 0.41704 0.03411 0.0
C1021 C 0.46987 0.39335 0.04728 0.0
C1022 C 0.40569 0.34363 0.05348 0.0
C1023 C 0.38608 0.28362 0.10299 0.0
C1024 C 0.40067 0.3098 0.09143 0.0
C1025 C 0.44487 0.3845 0.05398 0.0
C1026 C 0.42914 0.35909 0.06786 0.0
H1027 H 0.39343 0.23514 0.12553 0.0
H1028 H 0.41732 0.278 0.10716 0.0
H1029 H 0.37399 0.30767 0.05259 0.0
H1030 H 0.4424 0.43544 0.0291 0.0
H1031 H 0.416 0.39373 0.05207 0.0
C1032 C 0.76797 0.11651 0.14583 0.0
C1033 C 0.77584 0.14138 0.15232 0.0
C1034 C 0.74468 0.10097 0.13105 0.0
C1035 C 0.69658 0.10305 0.07707 0.0
H1036 H 0.65175 0.0399 0.11937 0.0
C1037 C 0.59299 0.05337 0.04767 0.0
C1038 C 0.58008 0.02766 0.04487 0.0
C1039 C 0.61756 0.06589 0.0585 0.0
C1040 C 0.66416 0.05731 0.10684 0.0
H1041 H 0.76522 0.16926 0.14849 0.0
H1042 H 0.72513 0.14241 0.12293 0.0
H1043 H 0.69368 0.06379 0.14231 0.0
H1044 H 0.58307 0.99498 0.05091 0.0
H1045 H 0.62606 0.01688 0.06935 0.0
H1046 H 0.66726 0.09684 0.04178 0.0
C1047 C 0.73689 0.13488 0.12893 0.0
C1048 C 0.68818 0.07098 0.12002 0.0
C1049 C 0.75989 0.15025 0.14389 0.0
C1050 C 0.59243 0.01479 0.05286 0.0
C1051 C 0.61706 0.02734 0.06365 0.0
C1052 C 0.67269 0.08939 0.06381 0.0
C1053 C 0.72903 0.11012 0.12208 0.0
C1054 C 0.70446 0.09425 0.10577 0.0
C1055 C 0.62992 0.05306 0.06671 0.0
C1056 C 0.65598 0.06657 0.07899 0.0
H1057 H 0.77981 0.10911 0.15201 0.0
H1058 H 0.73909 0.08194 0.12602 0.0
H1059 H 0.70885 0.12073 0.06508 0.0
H1060 H 0.58405 0.06388 0.0419 0.0
H1061 H 0.62671 0.08566 0.06113 0.0
C1062 C 0.55109 0.96773 0.47066 0.0
C1063 C 0.52744 0.95385 0.48528 0.0
C1064 C 0.56316 0.95602 0.45642 0.0
C1065 C 0.56222 0.89652 0.45615 0.0
H1066 H 0.59586 0.91966 0.36529 0.0
C1067 C 0.59807 0.84226 0.37523 0.0
C1068 C 0.62198 0.85635 0.3616 0.0
C1069 C 0.58586 0.85378 0.38968 0.0
C1070 C 0.58667 0.91307 0.39079 0.0
H1071 H 0.49824 0.91681 0.49726 0.0
H1072 H 0.51906 0.89664 0.47234 0.0
H1073 H 0.57736 0.94138 0.39361 0.0
H1074 H 0.65155 0.89356 0.35161 0.0
H1075 H 0.63043 0.91338 0.3767 0.0
H1076 H 0.57151 0.86816 0.45324 0.0
C1077 C 0.52846 0.9165 0.47209 0.0
C1078 C 0.57618 0.9256 0.40711 0.0
C1079 C 0.51645 0.92814 0.48621 0.0
C1080 C 0.63315 0.88208 0.36195 0.0
C1081 C 0.62098 0.89352 0.37613 0.0
C1082 C 0.57268 0.88396 0.43979 0.0
C1083 C 0.55184 0.93024 0.45668 0.0
C1084 C 0.56384 0.91748 0.44 0.0
C1085 C 0.59729 0.87957 0.39045 0.0
C1086 C 0.58508 0.89213 0.40697 0.0
H1087 H 0.56005 0.98755 0.46953 0.0
H1088 H 0.58131 0.96715 0.4451 0.0
H1089 H 0.5531 0.88994 0.4817 0.0
H1090 H 0.58899 0.82242 0.37536 0.0
H1091 H 0.5675 0.84254 0.40026 0.0
C1092 C 0.99941 0.58029 0.45955 0.0
C1093 C 0.01416 0.57034 0.46973 0.0
C1094 C 0.01019 0.60505 0.44954 0.0
C1095 C 0.06869 0.66432 0.45674 0.0
H1096 H 0.04779 0.68204 0.36949 0.0
C1097 C 0.13277 0.75008 0.37661 0.0
C1098 C 0.12391 0.76526 0.36409 0.0
C1099 C 0.11689 0.72734 0.39196 0.0
C1100 C 0.05356 0.67742 0.39421 0.0
H1101 H 0.05178 0.57873 0.4776 0.0
H1102 H 0.07031 0.62135 0.46004 0.0
H1103 H 0.02411 0.64007 0.39269 0.0
H1104 H 0.09127 0.76825 0.35745 0.0
H1105 H 0.06327 0.72798 0.38394 0.0
H1106 H 0.09862 0.70129 0.45756 0.0
C1107 C 0.05047 0.61029 0.4602 0.0
C1108 C 0.04 0.65343 0.40753 0.0
C1109 C 0.03979 0.58571 0.47003 0.0
C1110 C 0.09865 0.75698 0.36691 0.0
C1111 C 0.08263 0.73395 0.38194 0.0
C1112 C 0.08225 0.68815 0.44335 0.0
C1113 C 0.03587 0.62032 0.44981 0.0
C1114 C 0.04787 0.64645 0.43838 0.0
C1115 C 0.09169 0.71905 0.39494 0.0
C1116 C 0.07524 0.69477 0.41143 0.0
H1117 H 0.97961 0.56893 0.459 0.0
H1118 H 0.99844 0.61226 0.44177 0.0
H1119 H 0.07491 0.65972 0.48104 0.0
H1120 H 0.1521 0.75584 0.37493 0.0
H1121 H 0.12435 0.7161 0.40125 0.0
C1122 C 0.2647 0.43049 0.36973 0.0
C1123 C 0.25368 0.40511 0.36341 0.0
C1124 C 0.28874 0.44372 0.38339 0.0
C1125 C 0.33344 0.4339 0.43449 0.0
H1126 H 0.38394 0.49397 0.39078 0.0
C1127 C 0.43549 0.4664 0.45329 0.0
C1128 C 0.45197 0.49147 0.45899 0.0
C1129 C 0.41111 0.45818 0.44388 0.0
C1130 C 0.36996 0.4774 0.40362 0.0
H1131 H 0.25961 0.37395 0.36604 0.0
H1132 H 0.30082 0.39674 0.38946 0.0
H1133 H 0.34127 0.47588 0.37054 0.0
H1134 H 0.45568 0.52764 0.45886 0.0
H1135 H 0.41294 0.51319 0.44228 0.0
H1136 H 0.36193 0.43495 0.46698 0.0
C1137 C 0.29099 0.40647 0.3844 0.0
C1138 C 0.34554 0.46709 0.39207 0.0
C1139 C 0.26729 0.39342 0.37067 0.0
C1140 C 0.44347 0.50819 0.45472 0.0
C1141 C 0.41902 0.49994 0.44507 0.0
C1142 C 0.35771 0.44414 0.44596 0.0
C1143 C 0.30196 0.43169 0.39132 0.0
C1144 C 0.32715 0.44483 0.40672 0.0
C1145 C 0.40251 0.4748 0.4398 0.0
C1146 C 0.37639 0.46564 0.43003 0.0
H1147 H 0.25474 0.44005 0.36438 0.0
H1148 H 0.29679 0.46318 0.38842 0.0
H1149 H 0.3196 0.41701 0.44686 0.0
H1150 H 0.44138 0.453 0.4562 0.0
H1151 H 0.399 0.43873 0.43943 0.0
C1152 C 0.80483 0.72824 0.18157 0.0
C1153 C 0.79826 0.70338 0.18065 0.0
C1154 C 0.78804 0.73521 0.19251 0.0
C1155 C 0.73256 0.71595 0.24614 0.0
H1156 H 0.73248 0.76987 0.19599 0.0
C1157 C 0.67413 0.76091 0.28872 0.0
C1158 C 0.68794 0.78669 0.29035 0.0
C1159 C 0.68426 0.74751 0.27364 0.0
C1160 C 0.73225 0.75477 0.21026 0.0
H1161 H 0.76873 0.66627 0.19073 0.0
H1162 H 0.73919 0.67858 0.21011 0.0
H1163 H 0.75601 0.75204 0.17202 0.0
H1164 H 0.72325 0.81851 0.27756 0.0
H1165 H 0.74058 0.79535 0.25138 0.0
H1166 H 0.70912 0.71923 0.28487 0.0
C1167 C 0.75748 0.69262 0.20229 0.0
C1168 C 0.74576 0.74458 0.19658 0.0
C1169 C 0.77435 0.68558 0.19105 0.0
C1170 C 0.71201 0.7987 0.27677 0.0
C1171 C 0.72194 0.78543 0.26148 0.0
C1172 C 0.71891 0.72616 0.25985 0.0
C1173 C 0.76415 0.71754 0.20294 0.0
C1174 C 0.74676 0.7256 0.21493 0.0
C1175 C 0.70819 0.75973 0.25948 0.0
C1176 C 0.71929 0.74621 0.2426 0.0
H1177 H 0.82308 0.74249 0.17387 0.0
H1178 H 0.79395 0.75458 0.19333 0.0
H1179 H 0.733 0.70136 0.26094 0.0
H1180 H 0.65556 0.75111 0.29902 0.0
H1181 H 0.67327 0.7277 0.27246 0.0
C1182 C 0.2692 0.08057 0.18973 0.0
C1183 C 0.29449 0.09545 0.18306 0.0
C1184 C 0.25981 0.05717 0.20434 0.0
C1185 C 0.27178 0.0063 0.21598 0.0
H1186 H 0.22309 0.98686 0.29133 0.0
C1187 C 0.23103 0.91228 0.28761 0.0
C1188 C 0.20575 0.89998 0.2953 0.0
C1189 C 0.24301 0.93653 0.27534 0.0
C1190 C 0.23645 0.99186 0.27005 0.0
H1191 H 0.3297 0.0971 0.18607 0.0
H1192 H 0.31311 0.05584 0.21149 0.0
H1193 H 0.24217 0.02829 0.26704 0.0
H1194 H 0.17326 0.90361 0.29605 0.0
H1195 H 0.19403 0.94572 0.2741 0.0
H1196 H 0.2657 0.9697 0.21846 0.0
C1197 C 0.30064 0.06249 0.20531 0.0
C1198 C 0.24745 0.01565 0.2562 0.0
C1199 C 0.31014 0.08612 0.19085 0.0
C1200 C 0.19277 0.91256 0.29057 0.0
C1201 C 0.20473 0.93678 0.27816 0.0
C1202 C 0.26066 0.9824 0.22971 0.0
C1203 C 0.27539 0.0479 0.21257 0.0
C1204 C 0.26502 0.02307 0.22873 0.0
C1205 C 0.23001 0.94908 0.27033 0.0
C1206 C 0.24265 0.9748 0.25667 0.0
H1207 H 0.25654 0.08706 0.18403 0.0
H1208 H 0.24022 0.04625 0.20902 0.0
H1209 H 0.28509 0.01141 0.1946 0.0
H1210 H 0.24163 0.90318 0.29109 0.0
H1211 H 0.26254 0.9455 0.2701 0.0
C1212 C 0.10252 0.30541 0.29323 0.0
C1213 C 0.11522 0.3307 0.3009 0.0
C1214 C 0.07806 0.29359 0.28202 0.0
C1215 C 0.02203 0.29857 0.28209 0.0
H1216 H 1.00142 0.24955 0.20714 0.0
C1217 C 0.92411 0.25186 0.22153 0.0
C1218 C 0.9127 0.22664 0.21375 0.0
C1219 C 0.94887 0.26507 0.23148 0.0
C1220 C 0.00676 0.26297 0.22839 0.0
H1221 H 0.11188 0.36331 0.3029 0.0
H1222 H 0.06898 0.34258 0.28317 0.0
H1223 H 0.04432 0.27195 0.22546 0.0
H1224 H 0.91856 0.19557 0.21042 0.0
H1225 H 0.96165 0.21852 0.22817 0.0
H1226 H 0.98441 0.28943 0.28522 0.0
C1227 C 0.07806 0.33192 0.2861 0.0
C1228 C 0.03142 0.27587 0.23888 0.0
C1229 C 0.10268 0.34383 0.29725 0.0
C1230 C 0.92674 0.21498 0.21609 0.0
C1231 C 0.95152 0.22819 0.22609 0.0
C1232 C 0.99733 0.28562 0.27165 0.0
C1233 C 0.06549 0.30665 0.27816 0.0
C1234 C 0.03937 0.29373 0.26604 0.0
C1235 C 0.96293 0.25343 0.23397 0.0
C1236 C 0.98932 0.26753 0.24478 0.0
H1237 H 0.11147 0.29462 0.29583 0.0
H1238 H 0.0689 0.27406 0.27678 0.0
H1239 H 0.02743 0.31196 0.3034 0.0
H1240 H 0.91393 0.26151 0.2199 0.0
H1241 H 0.95706 0.28451 0.23681 0.0
C1242 C 0.26263 0.18128 0.68717 0.0
C1243 C 0.28826 0.19177 0.68492 0.0
C1244 C 0.2523 0.19404 0.70305 0.0
C1245 C 0.26613 0.24376 0.76688 0.0
H1246 H 0.20931 0.24259 0.72427 0.0
C1247 C 0.23301 0.31001 0.80883 0.0
C1248 C 0.20767 0.30156 0.80995 0.0
C1249 C 0.24173 0.29498 0.79627 0.0
C1250 C 0.2249 0.24274 0.73684 0.0
H1251 H 0.32316 0.22411 0.69716 0.0
H1252 H 0.30506 0.24659 0.72473 0.0
H1253 H 0.22737 0.22061 0.69541 0.0
H1254 H 0.17156 0.27036 0.7998 0.0
H1255 H 0.18691 0.24384 0.77782 0.0
H1256 H 0.26379 0.26605 0.80814 0.0
C1257 C 0.29299 0.2283 0.7145 0.0
C1258 C 0.23533 0.23025 0.72022 0.0
C1259 C 0.30337 0.21552 0.69847 0.0
C1260 C 0.19117 0.27738 0.79924 0.0
C1261 C 0.19997 0.26229 0.78644 0.0
C1262 C 0.25569 0.25623 0.7835 0.0
C1263 C 0.26733 0.21762 0.71714 0.0
C1264 C 0.25618 0.23079 0.7349 0.0
C1265 C 0.22538 0.27108 0.78443 0.0
C1266 C 0.23511 0.25607 0.76848 0.0
H1267 H 0.25041 0.16299 0.67706 0.0
H1268 H 0.2325 0.18518 0.705 0.0
H1269 H 0.28188 0.24412 0.77923 0.0
H1270 H 0.24627 0.32852 0.817 0.0
H1271 H 0.2614 0.30245 0.79468 0.0
C1272 C 0.78953 0.09029 0.72873 0.0
C1273 C 0.8122 0.10514 0.71175 0.0
C1274 C 0.78353 0.06729 0.74226 0.0
C1275 C 0.79592 0.01658 0.73439 0.0
H1276 H 0.76503 0.99936 0.82793 0.0
C1277 C 0.75713 0.91928 0.79891 0.0
C1278 C 0.73301 0.9096 0.81175 0.0
C1279 C 0.77099 0.94414 0.78904 0.0
C1280 C 0.77365 1.00386 0.80178 0.0
H1281 H 0.84614 0.10711 0.69495 0.0
H1282 H 0.83539 0.06652 0.71837 0.0
H1283 H 0.781 0.04084 0.80505 0.0
H1284 H 0.70489 0.91859 0.8253 0.0
H1285 H 0.72879 0.96134 0.80844 0.0
H1286 H 0.78769 0.97917 0.73075 0.0
C1287 C 0.82239 0.0729 0.72126 0.0
C1288 C 0.78276 0.02762 0.78866 0.0
C1289 C 0.82854 0.09614 0.70796 0.0
C1290 C 0.72336 0.92536 0.81541 0.0
C1291 C 0.73717 0.95001 0.80599 0.0
C1292 C 0.78667 0.99265 0.74753 0.0
C1293 C 0.79994 0.05839 0.739 0.0
C1294 C 0.79332 0.03406 0.75439 0.0
C1295 C 0.76107 0.95973 0.79246 0.0
C1296 C 0.77474 0.98586 0.78092 0.0
H1297 H 0.77646 0.09655 0.73209 0.0
H1298 H 0.7659 0.05636 0.75523 0.0
H1299 H 0.80397 0.02103 0.70788 0.0
H1300 H 0.76501 0.90756 0.79568 0.0
H1301 H 0.7894 0.95115 0.77874 0.0
C1302 C 0.10915 0.82131 0.78574 0.0
C1303 C 0.12071 0.80738 0.79072 0.0
C1304 C 0.08461 0.81006 0.7749 0.0
C1305 C 0.03542 0.75381 0.73178 0.0
H1306 H 0.9932 0.77593 0.77251 0.0
C1307 C 0.93068 0.70684 0.70229 0.0
C1308 C 0.92189 0.72295 0.69462 0.0
C1309 C 0.95464 0.71593 0.71506 0.0
C1310 C 1.0048 0.76964 0.76074 0.0
H1311 H 0.11548 0.77062 0.78828 0.0
H1312 H 0.07264 0.75099 0.7699 0.0
H1313 H 0.03559 0.79423 0.7927 0.0
H1314 H 0.93145 0.76123 0.69437 0.0
H1315 H 0.97293 0.77688 0.71647 0.0
H1316 H 1.00447 0.72919 0.69982 0.0
C1317 C 0.08262 0.77067 0.77382 0.0
C1318 C 0.02913 0.78019 0.77222 0.0
C1319 C 0.10718 0.78193 0.78456 0.0
C1320 C 0.93755 0.74825 0.7 0.0
C1321 C 0.96132 0.75726 0.71294 0.0
C1322 C 0.01102 0.74318 0.7204 0.0
C1323 C 0.07101 0.78458 0.76891 0.0
C1324 C 0.04485 0.77263 0.75758 0.0
C1325 C 0.97015 0.74124 0.72071 0.0
C1326 C 0.99554 0.75121 0.73443 0.0
H1327 H 0.11906 0.84096 0.7901 0.0
H1328 H 0.07638 0.82141 0.77081 0.0
H1329 H 0.04708 0.74772 0.71965 0.0
H1330 H 0.91907 0.68725 0.69844 0.0
H1331 H 0.96092 0.70314 0.721 0.0
loop_
_geom_bond_atom_site_label_1
_geom_bond_atom_site_label_2
_geom_bond_distance
_geom_bond_site_symmetry_2
_ccdc_geom_bond_type
C0 O2 1.247 1_655 S
C0 O4 1.258 . S
C1 O8 1.247 1_455 S
C1 O9 1.258 . S
O2 C0 1.247 1_455 S
O2 Zn3 2.019 1_556 S
Zn3 O2 2.019 1_554 S
Zn3 O7 2.035 1_455 S
Zn3 O9 2.044 . S
Zn3 O10 2.027 1_554 S
O4 C0 1.258 . S
O4 Zn5 2.010 1_556 S
Zn5 O4 2.010 1_554 S
Zn5 O6 2.032 . S
Zn5 O8 2.053 . S
Zn5 O11 2.009 1_654 S
O6 Zn5 2.032 . S
O6 C12 1.247 . S
O7 Zn3 2.035 1_655 S
O7 C12 1.260 . S
O8 C1 1.247 1_655 S
O8 Zn5 2.053 . S
O9 C1 1.258 . S
O9 Zn3 2.044 . S
O10 Zn3 2.027 1_556 S
O10 C13 1.247 . S
O11 Zn5 2.009 1_456 S
O11 C13 1.278 . S
C12 O6 1.247 . S
C12 O7 1.260 . S
C13 O10 1.247 . S
C13 O11 1.278 . S
C14 O16 1.247 . S
C14 O18 1.258 . S
C15 O22 1.247 . S
C15 O23 1.258 . S
O16 C14 1.247 . S
O16 Zn17 2.053 . S
Zn17 O16 2.053 . S
Zn17 O21 2.031 1_554 S
Zn17 O23 2.010 1_554 S
Zn17 O24 2.032 . S
O18 C14 1.258 . S
O18 Zn19 2.044 . S
Zn19 O18 2.044 . S
Zn19 O20 2.026 1_554 S
Zn19 O22 2.019 1_554 S
Zn19 O25 2.037 . S
O20 Zn19 2.026 1_556 S
O20 C26 1.247 . S
O21 Zn17 2.031 1_556 S
O21 C26 1.258 . S
O22 C15 1.247 . S
O22 Zn19 2.019 1_556 S
O23 C15 1.258 . S
O23 Zn17 2.010 1_556 S
O24 Zn17 2.032 . S
O24 C27 1.247 . S
O25 Zn19 2.037 . S
O25 C27 1.258 . S
C26 O20 1.247 . S
C26 O21 1.258 . S
C27 O24 1.247 . S
C27 O25 1.258 . S
C28 O30 1.247 . S
C28 O32 1.258 1_565 S
C29 O36 1.247 . S
C29 O37 1.258 1_545 S
O30 C28 1.247 . S
O30 Zn31 2.053 . S
Zn31 O30 2.053 . S
Zn31 O35 2.031 1_554 S
Zn31 O37 2.010 1_554 S
Zn31 O38 2.024 1_565 S
O32 C28 1.258 1_545 S
O32 Zn33 2.044 . S
Zn33 O32 2.044 . S
Zn33 O34 2.027 1_554 S
Zn33 O36 2.020 1_554 S
Zn33 O39 2.037 . S
O34 Zn33 2.027 1_556 S
O34 C40 1.245 1_545 S
O35 Zn31 2.031 1_556 S
O35 C40 1.258 . S
O36 C29 1.247 . S
O36 Zn33 2.020 1_556 S
O37 C29 1.258 1_565 S
O37 Zn31 2.010 1_556 S
O38 Zn31 2.024 1_545 S
O38 C41 1.293 . S
O39 Zn33 2.037 . S
O39 C41 1.258 . S
C40 O34 1.245 1_565 S
C40 O35 1.258 . S
C41 O38 1.293 . S
C41 O39 1.258 . S
C42 O44 1.247 1_565 S
C42 O46 1.258 . S
C43 O50 1.247 1_545 S
C43 O51 1.258 . S
O44 C42 1.247 1_545 S
O44 Zn45 2.028 . S
Zn45 O44 2.028 . S
Zn45 O49 2.042 . S
Zn45 O51 2.035 . S
Zn45 O52 2.028 . S
O46 C42 1.258 . S
O46 Zn47 2.035 . S
Zn47 O46 2.035 . S
Zn47 O48 2.028 . S
Zn47 O50 2.028 . S
Zn47 O53 1.993 1_565 S
O48 Zn47 2.028 . S
O48 C54 1.247 . S
O49 Zn45 2.042 . S
O49 C54 1.252 1_545 S
O50 C43 1.247 1_565 S
O50 Zn47 2.028 . S
O51 C43 1.258 . S
O51 Zn45 2.035 . S
O52 Zn45 2.028 . S
O52 C55 1.247 . S
O53 Zn47 1.993 1_545 S
O53 C55 1.296 . S
C54 O48 1.247 . S
C54 O49 1.252 1_565 S
C55 O52 1.247 . S
C55 O53 1.296 . S
C56 O58 1.247 1_455 S
C56 O60 1.258 . S
C57 O64 1.247 1_655 S
C57 O65 1.258 . S
O58 C56 1.247 1_655 S
O58 Zn59 2.028 . S
Zn59 O58 2.028 . S
Zn59 O63 2.031 1_655 S
Zn59 O65 2.035 . S
Zn59 O66 2.028 . S
O60 C56 1.258 . S
O60 Zn61 2.035 . S
Zn61 O60 2.035 . S
Zn61 O62 2.028 . S
Zn61 O64 2.028 . S
Zn61 O67 2.035 1_455 S
O62 Zn61 2.028 . S
O62 C68 1.247 . S
O63 Zn59 2.031 1_455 S
O63 C68 1.279 . S
O64 C57 1.247 1_455 S
O64 Zn61 2.028 . S
O65 C57 1.258 . S
O65 Zn59 2.035 . S
O66 Zn59 2.028 . S
O66 C69 1.247 . S
O67 Zn61 2.035 1_655 S
O67 C69 1.260 . S
C68 O62 1.247 . S
C68 O63 1.279 . S
C69 O66 1.247 . S
C69 O67 1.260 . S
C70 O72 1.247 . S
C70 O74 1.258 . S
C71 O78 1.247 . S
C71 O79 1.258 . S
O72 C70 1.247 . S
O72 Zn73 2.028 . S
Zn73 O72 2.028 . S
Zn73 O77 2.035 . S
Zn73 O79 2.035 . S
Zn73 O80 2.028 . S
O74 C70 1.258 . S
O74 Zn75 2.035 . S
Zn75 O74 2.035 . S
Zn75 O76 2.028 . S
Zn75 O78 2.028 . S
Zn75 O81 2.035 . S
O76 Zn75 2.028 . S
O76 C82 1.247 . S
O77 Zn73 2.035 . S
O77 C82 1.258 . S
O78 C71 1.247 . S
O78 Zn75 2.028 . S
O79 C71 1.258 . S
O79 Zn73 2.035 . S
O80 Zn73 2.028 . S
O80 C83 1.247 . S
O81 Zn75 2.035 . S
O81 C83 1.258 . S
C82 O76 1.247 . S
C82 O77 1.258 . S
C83 O80 1.247 . S
C83 O81 1.258 . S
C84 O86 1.247 . S
C84 O88 1.258 . S
C85 O92 1.247 . S
C85 O93 1.258 . S
O86 C84 1.247 . S
O86 Zn87 2.028 . S
Zn87 O86 2.028 . S
Zn87 O91 2.035 . S
Zn87 O93 2.035 . S
Zn87 O94 2.028 . S
O88 C84 1.258 . S
O88 Zn89 2.035 . S
Zn89 O88 2.035 . S
Zn89 O90 2.028 . S
Zn89 O92 2.028 . S
Zn89 O95 2.035 . S
O90 Zn89 2.028 . S
O90 C96 1.247 . S
O91 Zn87 2.035 . S
O91 C96 1.258 . S
O92 C85 1.247 . S
O92 Zn89 2.028 . S
O93 C85 1.258 . S
O93 Zn87 2.035 . S
O94 Zn87 2.028 . S
O94 C97 1.247 . S
O95 Zn89 2.035 . S
O95 C97 1.258 . S
C96 O90 1.247 . S
C96 O91 1.258 . S
C97 O94 1.247 . S
C97 O95 1.258 . S
C98 O100 1.247 . S
C98 O102 1.258 . S
C99 O106 1.247 . S
C99 O107 1.258 . S
O100 C98 1.247 . S
O100 Zn101 2.028 . S
Zn101 O100 2.028 . S
Zn101 O105 2.035 . S
Zn101 O107 2.035 . S
Zn101 O108 2.028 . S
O102 C98 1.258 . S
O102 Zn103 2.035 . S
Zn103 O102 2.035 . S
Zn103 O104 2.028 . S
Zn103 O106 2.028 . S
Zn103 O109 2.035 . S
O104 Zn103 2.028 . S
O104 C110 1.247 . S
O105 Zn101 2.035 . S
O105 C110 1.258 . S
O106 C99 1.247 . S
O106 Zn103 2.028 . S
O107 C99 1.258 . S
O107 Zn101 2.035 . S
O108 Zn101 2.028 . S
O108 C111 1.247 . S
O109 Zn103 2.035 . S
O109 C111 1.258 . S
C110 O104 1.247 . S
C110 O105 1.258 . S
C111 O108 1.247 . S
C111 O109 1.258 . S
C112 O114 1.247 . S
C112 O116 1.258 . S
C113 O120 1.247 . S
C113 O121 1.258 . S
O114 C112 1.247 . S
O114 Zn115 2.028 . S
Zn115 O114 2.028 . S
Zn115 O119 2.035 . S
Zn115 O121 2.035 . S
Zn115 O122 2.028 . S
O116 C112 1.258 . S
O116 Zn117 2.035 . S
Zn117 O116 2.035 . S
Zn117 O118 2.028 . S
Zn117 O120 2.028 . S
Zn117 O123 2.035 . S
O118 Zn117 2.028 . S
O118 C124 1.247 . S
O119 Zn115 2.035 . S
O119 C124 1.258 . S
O120 C113 1.247 . S
O120 Zn117 2.028 . S
O121 C113 1.258 . S
O121 Zn115 2.035 . S
O122 Zn115 2.028 . S
O122 C125 1.247 . S
O123 Zn117 2.035 . S
O123 C125 1.258 . S
C124 O118 1.247 . S
C124 O119 1.258 . S
C125 O122 1.247 . S
C125 O123 1.258 . S
C126 O128 1.247 . S
C126 O130 1.258 . S
C127 O134 1.247 . S
C127 O135 1.258 . S
O128 C126 1.247 . S
O128 Zn129 2.028 . S
Zn129 O128 2.028 . S
Zn129 O133 2.035 . S
Zn129 O135 2.035 . S
Zn129 O136 2.028 . S
O130 C126 1.258 . S
O130 Zn131 2.035 . S
Zn131 O130 2.035 . S
Zn131 O132 2.028 . S
Zn131 O134 2.028 . S
Zn131 O137 2.035 . S
O132 Zn131 2.028 . S
O132 C138 1.247 . S
O133 Zn129 2.035 . S
O133 C138 1.258 . S
O134 C127 1.247 . S
O134 Zn131 2.028 . S
O135 C127 1.258 . S
O135 Zn129 2.035 . S
O136 Zn129 2.028 . S
O136 C139 1.247 . S
O137 Zn131 2.035 . S
O137 C139 1.258 . S
C138 O132 1.247 . S
C138 O133 1.258 . S
C139 O136 1.247 . S
C139 O137 1.258 . S
C140 O142 1.247 . S
C140 O144 1.258 . S
C141 O148 1.247 . S
C141 O149 1.258 . S
O142 C140 1.247 . S
O142 Zn143 2.028 . S
Zn143 O142 2.028 . S
Zn143 O147 2.035 . S
Zn143 O149 2.035 . S
Zn143 O150 2.028 . S
O144 C140 1.258 . S
O144 Zn145 2.035 . S
Zn145 O144 2.035 . S
Zn145 O146 2.028 . S
Zn145 O148 2.028 . S
Zn145 O151 2.035 . S
O146 Zn145 2.028 . S
O146 C152 1.247 . S
O147 Zn143 2.035 . S
O147 C152 1.258 . S
O148 C141 1.247 . S
O148 Zn145 2.028 . S
O149 C141 1.258 . S
O149 Zn143 2.035 . S
O150 Zn143 2.028 . S
O150 C153 1.247 . S
O151 Zn145 2.035 . S
O151 C153 1.258 . S
C152 O146 1.247 . S
C152 O147 1.258 . S
C153 O150 1.247 . S
C153 O151 1.258 . S
C154 O156 1.247 . S
C154 O158 1.258 . S
C155 O162 1.247 . S
C155 O163 1.258 . S
O156 C154 1.247 . S
O156 Zn157 2.028 . S
Zn157 O156 2.028 . S
Zn157 O161 2.035 . S
Zn157 O163 2.035 . S
Zn157 O164 2.028 . S
O158 C154 1.258 . S
O158 Zn159 2.035 . S
Zn159 O158 2.035 . S
Zn159 O160 2.028 . S
Zn159 O162 2.028 . S
Zn159 O165 2.035 . S
O160 Zn159 2.028 . S
O160 C166 1.247 . S
O161 Zn157 2.035 . S
O161 C166 1.258 . S
O162 C155 1.247 . S
O162 Zn159 2.028 . S
O163 C155 1.258 . S
O163 Zn157 2.035 . S
O164 Zn157 2.028 . S
O164 C167 1.247 . S
O165 Zn159 2.035 . S
O165 C167 1.258 . S
C166 O160 1.247 . S
C166 O161 1.258 . S
C167 O164 1.247 . S
C167 O165 1.258 . S
C168 O170 1.247 . S
C168 O172 1.258 . S
C169 O176 1.247 . S
C169 O177 1.258 . S
O170 C168 1.247 . S
O170 Zn171 2.028 . S
Zn171 O170 2.028 . S
Zn171 O175 2.035 . S
Zn171 O177 2.035 . S
Zn171 O178 2.028 . S
O172 C168 1.258 . S
O172 Zn173 2.035 . S
Zn173 O172 2.035 . S
Zn173 O174 2.028 . S
Zn173 O176 2.028 . S
Zn173 O179 2.035 . S
O174 Zn173 2.028 . S
O174 C180 1.247 . S
O175 Zn171 2.035 . S
O175 C180 1.258 . S
O176 C169 1.247 . S
O176 Zn173 2.028 . S
O177 C169 1.258 . S
O177 Zn171 2.035 . S
O178 Zn171 2.028 . S
O178 C181 1.247 . S
O179 Zn173 2.035 . S
O179 C181 1.258 . S
C180 O174 1.247 . S
C180 O175 1.258 . S
C181 O178 1.247 . S
C181 O179 1.258 . S
C182 O184 1.247 . S
C182 O186 1.258 . S
C183 O190 1.247 . S
C183 O191 1.258 . S
O184 C182 1.247 . S
O184 Zn185 2.028 . S
Zn185 O184 2.028 . S
Zn185 O189 2.035 . S
Zn185 O191 2.035 . S
Zn185 O192 2.028 . S
O186 C182 1.258 . S
O186 Zn187 2.035 . S
Zn187 O186 2.035 . S
Zn187 O188 2.028 . S
Zn187 O190 2.028 . S
Zn187 O193 2.035 . S
O188 Zn187 2.028 . S
O188 C194 1.247 . S
O189 Zn185 2.035 . S
O189 C194 1.258 . S
O190 C183 1.247 . S
O190 Zn187 2.028 . S
O191 C183 1.258 . S
O191 Zn185 2.035 . S
O192 Zn185 2.028 . S
O192 C195 1.247 . S
O193 Zn187 2.035 . S
O193 C195 1.258 . S
C194 O188 1.247 . S
C194 O189 1.258 . S
C195 O192 1.247 . S
C195 O193 1.258 . S
C196 O198 1.247 . S
C196 O200 1.258 . S
C197 O204 1.247 . S
C197 O205 1.258 . S
O198 C196 1.247 . S
O198 Zn199 2.028 . S
Zn199 O198 2.028 . S
Zn199 O203 2.035 . S
Zn199 O205 2.035 . S
Zn199 O206 2.028 . S
O200 C196 1.258 . S
O200 Zn201 2.035 . S
Zn201 O200 2.035 . S
Zn201 O202 2.028 . S
Zn201 O204 2.028 . S
Zn201 O207 2.035 . S
O202 Zn201 2.028 . S
O202 C208 1.247 . S
O203 Zn199 2.035 . S
O203 C208 1.258 . S
O204 C197 1.247 . S
O204 Zn201 2.028 . S
O205 C197 1.258 . S
O205 Zn199 2.035 . S
O206 Zn199 2.028 . S
O206 C209 1.247 . S
O207 Zn201 2.035 . S
O207 C209 1.258 . S
C208 O202 1.247 . S
C208 O203 1.258 . S
C209 O206 1.247 . S
C209 O207 1.258 . S
C210 O212 1.247 . S
C210 O214 1.258 . S
C211 O218 1.247 . S
C211 O219 1.258 . S
O212 C210 1.247 . S
O212 Zn213 2.028 . S
Zn213 O212 2.028 . S
Zn213 O217 2.035 . S
Zn213 O219 2.035 . S
Zn213 O220 2.028 . S
O214 C210 1.258 . S
O214 Zn215 2.035 . S
Zn215 O214 2.035 . S
Zn215 O216 2.028 . S
Zn215 O218 2.028 . S
Zn215 O221 2.035 . S
O216 Zn215 2.028 . S
O216 C222 1.247 . S
O217 Zn213 2.035 . S
O217 C222 1.258 . S
O218 C211 1.247 . S
O218 Zn215 2.028 . S
O219 C211 1.258 . S
O219 Zn213 2.035 . S
O220 Zn213 2.028 . S
O220 C223 1.247 . S
O221 Zn215 2.035 . S
O221 C223 1.258 . S
C222 O216 1.247 . S
C222 O217 1.258 . S
C223 O220 1.247 . S
C223 O221 1.258 . S
C224 O226 1.247 . S
C224 O228 1.258 . S
C225 O232 1.247 . S
C225 O233 1.258 . S
O226 C224 1.247 . S
O226 Zn227 2.028 . S
Zn227 O226 2.028 . S
Zn227 O231 2.035 . S
Zn227 O233 2.035 . S
Zn227 O234 2.028 . S
O228 C224 1.258 . S
O228 Zn229 2.035 . S
Zn229 O228 2.035 . S
Zn229 O230 2.028 . S
Zn229 O232 2.028 . S
Zn229 O235 2.035 . S
O230 Zn229 2.028 . S
O230 C236 1.247 . S
O231 Zn227 2.035 . S
O231 C236 1.258 . S
O232 C225 1.247 . S
O232 Zn229 2.028 . S
O233 C225 1.258 . S
O233 Zn227 2.035 . S
O234 Zn227 2.028 . S
O234 C237 1.247 . S
O235 Zn229 2.035 . S
O235 C237 1.258 . S
C236 O230 1.247 . S
C236 O231 1.258 . S
C237 O234 1.247 . S
C237 O235 1.258 . S
C238 O240 1.247 . S
C238 O242 1.258 . S
C239 O246 1.247 . S
C239 O247 1.258 . S
O240 C238 1.247 . S
O240 Zn241 2.028 . S
Zn241 O240 2.028 . S
Zn241 O245 2.035 . S
Zn241 O247 2.035 . S
Zn241 O248 2.028 . S
O242 C238 1.258 . S
O242 Zn243 2.035 . S
Zn243 O242 2.035 . S
Zn243 O244 2.028 . S
Zn243 O246 2.028 . S
Zn243 O249 2.035 . S
O244 Zn243 2.028 . S
O244 C250 1.247 . S
O245 Zn241 2.035 . S
O245 C250 1.258 . S
O246 C239 1.247 . S
O246 Zn243 2.028 . S
O247 C239 1.258 . S
O247 Zn241 2.035 . S
O248 Zn241 2.028 . S
O248 C251 1.247 . S
O249 Zn243 2.035 . S
O249 C251 1.258 . S
C250 O244 1.247 . S
C250 O245 1.258 . S
C251 O248 1.247 . S
C251 O249 1.258 . S
C252 C253 1.349 . S
C252 C254 1.327 . S
C252 H277 0.950 . S
C253 C252 1.349 . S
C253 C269 1.349 1_655 S
C254 C252 1.327 . S
C254 C273 1.429 . S
C254 H278 0.950 . S
C255 C272 1.574 . S
C255 C274 1.356 1_455 S
C255 H279 0.949 . S
H256 C260 0.949 . S
C257 C258 1.349 . S
C257 C259 1.327 . S
C257 H280 0.950 . S
C258 C257 1.349 . S
C258 C270 1.349 1_455 S
C259 C257 1.327 . S
C259 C275 1.429 . S
C259 H281 0.950 . S
C260 H256 0.949 . S
C260 C268 1.574 . S
C260 C276 1.345 1_655 S
H261 C269 0.950 . S
H262 C267 0.950 . S
H263 C268 0.949 . S
H264 C270 0.950 . S
H265 C271 0.950 . S
H266 C272 0.949 . S
C267 H262 0.950 . S
C267 C269 1.327 . S
C267 C273 1.429 1_455 S
C268 C260 1.574 . S
C268 H263 0.949 . S
C268 C274 1.380 . S
C269 C253 1.349 1_455 S
C269 H261 0.950 . S
C269 C267 1.327 . S
C270 C258 1.349 1_655 S
C270 H264 0.950 . S
C270 C271 1.327 . S
C271 H265 0.950 . S
C271 C270 1.327 . S
C271 C275 1.429 1_655 S
C272 C255 1.574 . S
C272 H266 0.949 . S
C272 C276 1.392 . S
C273 C254 1.429 . S
C273 C267 1.429 1_655 S
C273 C274 1.524 . S
C274 C255 1.356 1_655 S
C274 C268 1.380 . S
C274 C273 1.524 . S
C275 C259 1.429 . S
C275 C271 1.429 1_455 S
C275 C276 1.525 . S
C276 C260 1.345 1_455 S
C276 C272 1.392 . S
C276 C275 1.525 . S
H277 C252 0.950 . S
H278 C254 0.950 . S
H279 C255 0.949 . S
H280 C257 0.950 . S
H281 C259 0.950 . S
C282 C283 1.349 . S
C282 C284 1.327 . S
C282 H307 0.950 . S
C283 C282 1.349 . S
C283 C299 1.349 . S
C284 C282 1.327 . S
C284 C303 1.429 . S
C284 H308 0.950 . S
C285 C302 1.574 . S
C285 C304 1.368 . S
C285 H309 0.949 . S
H286 C290 0.949 . S
C287 C288 1.349 . S
C287 C289 1.327 . S
C287 H310 0.950 . S
C288 C287 1.349 . S
C288 C300 1.349 . S
C289 C287 1.327 . S
C289 C305 1.429 . S
C289 H311 0.950 . S
C290 H286 0.949 . S
C290 C298 1.574 . S
C290 C306 1.368 . S
H291 C299 0.950 . S
H292 C297 0.950 . S
H293 C298 0.949 . S
H294 C300 0.950 . S
H295 C301 0.950 . S
H296 C302 0.949 . S
C297 H292 0.950 . S
C297 C299 1.327 . S
C297 C303 1.429 . S
C298 C290 1.574 . S
C298 H293 0.949 . S
C298 C304 1.368 . S
C299 C283 1.349 . S
C299 H291 0.950 . S
C299 C297 1.327 . S
C300 C288 1.349 . S
C300 H294 0.950 . S
C300 C301 1.327 . S
C301 H295 0.950 . S
C301 C300 1.327 . S
C301 C305 1.429 . S
C302 C285 1.574 . S
C302 H296 0.949 . S
C302 C306 1.368 . S
C303 C284 1.429 . S
C303 C297 1.429 . S
C303 C304 1.523 . S
C304 C285 1.368 . S
C304 C298 1.368 . S
C304 C303 1.523 . S
C305 C289 1.429 . S
C305 C301 1.429 . S
C305 C306 1.523 . S
C306 C290 1.368 . S
C306 C302 1.368 . S
C306 C305 1.523 . S
H307 C282 0.950 . S
H308 C284 0.950 . S
H309 C285 0.949 . S
H310 C287 0.950 . S
H311 C289 0.950 . S
C312 C313 1.349 1_545 S
C312 C314 1.327 . S
C312 H337 0.950 . S
C313 C312 1.349 1_565 S
C313 C329 1.349 . S
C314 C312 1.327 . S
C314 C333 1.390 1_545 S
C314 H338 0.950 . S
C315 C332 1.574 . S
C315 C334 1.369 . S
C315 H339 0.949 . S
H316 C320 0.949 . S
C317 C318 1.349 1_565 S
C317 C319 1.327 . S
C317 H340 0.950 . S
C318 C317 1.349 1_545 S
C318 C330 1.349 . S
C319 C317 1.327 . S
C319 C335 1.429 1_565 S
C319 H341 0.950 . S
C320 H316 0.949 . S
C320 C328 1.574 . S
C320 C336 1.368 . S
H321 C329 0.950 . S
H322 C327 0.950 . S
H323 C328 0.949 . S
H324 C330 0.950 . S
H325 C331 0.950 . S
H326 C332 0.949 . S
C327 H322 0.950 . S
C327 C329 1.327 . S
C327 C333 1.469 . S
C328 C320 1.574 . S
C328 H323 0.949 . S
C328 C334 1.368 1_545 S
C329 C313 1.349 . S
C329 H321 0.950 . S
C329 C327 1.327 . S
C330 C318 1.349 . S
C330 H324 0.950 . S
C330 C331 1.327 . S
C331 H325 0.950 . S
C331 C330 1.327 . S
C331 C335 1.429 . S
C332 C315 1.574 . S
C332 H326 0.949 . S
C332 C336 1.368 1_565 S
C333 C314 1.390 1_565 S
C333 C327 1.469 . S
C333 C334 1.523 . S
C334 C315 1.369 . S
C334 C328 1.368 1_565 S
C334 C333 1.523 . S
C335 C319 1.429 1_545 S
C335 C331 1.429 . S
C335 C336 1.523 . S
C336 C320 1.368 . S
C336 C332 1.368 1_545 S
C336 C335 1.523 . S
H337 C312 0.950 . S
H338 C314 0.950 . S
H339 C315 0.949 . S
H340 C317 0.950 . S
H341 C319 0.950 . S
C342 C343 1.349 . S
C342 C344 1.327 . S
C342 H367 0.950 . S
C343 C342 1.349 . S
C343 C359 1.365 . S
C344 C342 1.327 . S
C344 C363 1.429 . S
C344 H368 0.950 . S
C345 C362 1.574 . S
C345 C364 1.345 1_655 S
C345 H369 0.949 . S
H346 C350 0.949 . S
C347 C348 1.349 . S
C347 C349 1.327 . S
C347 H370 0.950 . S
C348 C347 1.349 . S
C348 C360 1.354 . S
C349 C347 1.327 . S
C349 C365 1.429 . S
C349 H371 0.950 . S
C350 H346 0.949 . S
C350 C358 1.574 . S
C350 C366 1.356 1_455 S
H351 C359 0.922 1_655 S
H352 C357 0.949 . S
H353 C358 0.949 . S
H354 C360 0.922 1_455 S
H355 C361 0.961 . S
H356 C362 0.949 . S
C357 H352 0.949 . S
C357 C359 1.326 1_655 S
C357 C363 1.429 1_655 S
C358 C350 1.574 . S
C358 H353 0.949 . S
C358 C364 1.392 . S
C359 C343 1.365 . S
C359 H351 0.922 1_455 S
C359 C357 1.326 1_455 S
C360 C348 1.354 . S
C360 H354 0.922 1_655 S
C360 C361 1.326 1_655 S
C361 H355 0.961 . S
C361 C360 1.326 1_455 S
C361 C365 1.418 1_455 S
C362 C345 1.574 . S
C362 H356 0.949 . S
C362 C366 1.380 . S
C363 C344 1.429 . S
C363 C357 1.429 1_455 S
C363 C364 1.525 . S
C364 C345 1.345 1_455 S
C364 C358 1.392 . S
C364 C363 1.525 . S
C365 C349 1.429 . S
C365 C361 1.418 1_655 S
C365 C366 1.524 . S
C366 C350 1.356 1_655 S
C366 C362 1.380 . S
C366 C365 1.524 . S
H367 C342 0.950 . S
H368 C344 0.950 . S
H369 C345 0.949 . S
H370 C347 0.950 . S
H371 C349 0.950 . S
C372 C373 1.349 . S
C372 C374 1.327 . S
C372 H397 0.950 . S
C373 C372 1.349 . S
C373 C389 1.349 . S
C374 C372 1.327 . S
C374 C393 1.429 . S
C374 H398 0.950 . S
C375 C392 1.574 . S
C375 C394 1.368 . S
C375 H399 0.949 . S
H376 C380 0.949 . S
C377 C378 1.349 . S
C377 C379 1.327 . S
C377 H400 0.950 . S
C378 C377 1.349 . S
C378 C390 1.349 . S
C379 C377 1.327 . S
C379 C395 1.429 . S
C379 H401 0.950 . S
C380 H376 0.949 . S
C380 C388 1.574 . S
C380 C396 1.368 . S
H381 C389 0.950 . S
H382 C387 0.950 . S
H383 C388 0.949 . S
H384 C390 0.950 . S
H385 C391 0.950 . S
H386 C392 0.949 . S
C387 H382 0.950 . S
C387 C389 1.327 . S
C387 C393 1.429 . S
C388 C380 1.574 . S
C388 H383 0.949 . S
C388 C394 1.368 . S
C389 C373 1.349 . S
C389 H381 0.950 . S
C389 C387 1.327 . S
C390 C378 1.349 . S
C390 H384 0.950 . S
C390 C391 1.327 . S
C391 H385 0.950 . S
C391 C390 1.327 . S
C391 C395 1.429 . S
C392 C375 1.574 . S
C392 H386 0.949 . S
C392 C396 1.368 . S
C393 C374 1.429 . S
C393 C387 1.429 . S
C393 C394 1.523 . S
C394 C375 1.368 . S
C394 C388 1.368 . S
C394 C393 1.523 . S
C395 C379 1.429 . S
C395 C391 1.429 . S
C395 C396 1.523 . S
C396 C380 1.368 . S
C396 C392 1.368 . S
C396 C395 1.523 . S
H397 C372 0.950 . S
H398 C374 0.950 . S
H399 C375 0.949 . S
H400 C377 0.950 . S
H401 C379 0.950 . S
C402 C403 1.349 . S
C402 C404 1.327 . S
C402 H427 0.950 . S
C403 C402 1.349 . S
C403 C419 1.349 1_545 S
C404 C402 1.327 . S
C404 C423 1.429 . S
C404 H428 0.950 . S
C405 C422 1.574 . S
C405 C424 1.368 1_565 S
C405 H429 0.949 . S
H406 C410 0.949 . S
C407 C408 1.349 . S
C407 C409 1.327 . S
C407 H430 0.950 . S
C408 C407 1.349 . S
C408 C420 1.349 1_565 S
C409 C407 1.327 . S
C409 C425 1.446 . S
C409 H431 0.950 . S
C410 H406 0.949 . S
C410 C418 1.574 . S
C410 C426 1.368 1_545 S
H411 C419 0.950 . S
H412 C417 0.950 . S
H413 C418 0.949 . S
H414 C420 0.950 . S
H415 C421 0.950 . S
H416 C422 0.949 . S
C417 H412 0.950 . S
C417 C419 1.327 . S
C417 C423 1.429 1_565 S
C418 C410 1.574 . S
C418 H413 0.949 . S
C418 C424 1.368 . S
C419 C403 1.349 1_565 S
C419 H411 0.950 . S
C419 C417 1.327 . S
C420 C408 1.349 1_545 S
C420 H414 0.950 . S
C420 C421 1.327 . S
C421 H415 0.950 . S
C421 C420 1.327 . S
C421 C425 1.414 1_545 S
C422 C405 1.574 . S
C422 H416 0.949 . S
C422 C426 1.369 . S
C423 C404 1.429 . S
C423 C417 1.429 1_545 S
C423 C424 1.523 . S
C424 C405 1.368 1_545 S
C424 C418 1.368 . S
C424 C423 1.523 . S
C425 C409 1.446 . S
C425 C421 1.414 1_565 S
C425 C426 1.523 . S
C426 C410 1.368 1_565 S
C426 C422 1.369 . S
C426 C425 1.523 . S
H427 C402 0.950 . S
H428 C404 0.950 . S
H429 C405 0.949 . S
H430 C407 0.950 . S
H431 C409 0.950 . S
C432 C433 1.349 . S
C432 C434 1.327 . S
C432 H457 0.950 . S
C433 C432 1.349 . S
C433 C449 1.349 . S
C434 C432 1.327 . S
C434 C453 1.429 . S
C434 H458 0.950 . S
C435 C452 1.574 . S
C435 C454 1.368 . S
C435 H459 0.949 . S
H436 C440 0.949 . S
C437 C438 1.349 . S
C437 C439 1.327 . S
C437 H460 0.950 . S
C438 C437 1.349 . S
C438 C450 1.349 . S
C439 C437 1.327 . S
C439 C455 1.429 . S
C439 H461 0.950 . S
C440 H436 0.949 . S
C440 C448 1.574 . S
C440 C456 1.368 . S
H441 C449 0.950 . S
H442 C447 0.950 . S
H443 C448 0.949 . S
H444 C450 0.950 . S
H445 C451 0.950 . S
H446 C452 0.949 . S
C447 H442 0.950 . S
C447 C449 1.327 . S
C447 C453 1.429 . S
C448 C440 1.574 . S
C448 H443 0.949 . S
C448 C454 1.368 . S
C449 C433 1.349 . S
C449 H441 0.950 . S
C449 C447 1.327 . S
C450 C438 1.349 . S
C450 H444 0.950 . S
C450 C451 1.327 . S
C451 H445 0.950 . S
C451 C450 1.327 . S
C451 C455 1.429 . S
C452 C435 1.574 . S
C452 H446 0.949 . S
C452 C456 1.368 . S
C453 C434 1.429 . S
C453 C447 1.429 . S
C453 C454 1.523 . S
C454 C435 1.368 . S
C454 C448 1.368 . S
C454 C453 1.523 . S
C455 C439 1.429 . S
C455 C451 1.429 . S
C455 C456 1.523 . S
C456 C440 1.368 . S
C456 C452 1.368 . S
C456 C455 1.523 . S
H457 C432 0.950 . S
H458 C434 0.950 . S
H459 C435 0.949 . S
H460 C437 0.950 . S
H461 C439 0.950 . S
C462 C463 1.349 . S
C462 C464 1.327 . S
C462 H487 0.950 . S
C463 C462 1.349 . S
C463 C479 1.349 . S
C464 C462 1.327 . S
C464 C483 1.429 . S
C464 H488 0.950 . S
C465 C482 1.574 . S
C465 C484 1.368 . S
C465 H489 0.949 . S
H466 C470 0.949 . S
C467 C468 1.349 . S
C467 C469 1.327 . S
C467 H490 0.950 . S
C468 C467 1.349 . S
C468 C480 1.349 . S
C469 C467 1.327 . S
C469 C485 1.429 . S
C469 H491 0.950 . S
C470 H466 0.949 . S
C470 C478 1.574 . S
C470 C486 1.368 . S
H471 C479 0.950 . S
H472 C477 0.950 . S
H473 C478 0.949 . S
H474 C480 0.950 . S
H475 C481 0.950 . S
H476 C482 0.949 . S
C477 H472 0.950 . S
C477 C479 1.327 . S
C477 C483 1.429 . S
C478 C470 1.574 . S
C478 H473 0.949 . S
C478 C484 1.368 . S
C479 C463 1.349 . S
C479 H471 0.950 . S
C479 C477 1.327 . S
C480 C468 1.349 . S
C480 H474 0.950 . S
C480 C481 1.327 . S
C481 H475 0.950 . S
C481 C480 1.327 . S
C481 C485 1.429 . S
C482 C465 1.574 . S
C482 H476 0.949 . S
C482 C486 1.368 . S
C483 C464 1.429 . S
C483 C477 1.429 . S
C483 C484 1.523 . S
C484 C465 1.368 . S
C484 C478 1.368 . S
C484 C483 1.523 . S
C485 C469 1.429 . S
C485 C481 1.429 . S
C485 C486 1.523 . S
C486 C470 1.368 . S
C486 C482 1.368 . S
C486 C485 1.523 . S
H487 C462 0.950 . S
H488 C464 0.950 . S
H489 C465 0.949 . S
H490 C467 0.950 . S
H491 C469 0.950 . S
C492 C493 1.349 . S
C492 C494 1.327 . S
C492 H517 0.950 . S
C493 C492 1.349 . S
C493 C509 1.349 . S
C494 C492 1.327 . S
C494 C513 1.429 . S
C494 H518 0.950 . S
C495 C512 1.574 . S
C495 C514 1.368 . S
C495 H519 0.949 . S
H496 C500 0.949 . S
C497 C498 1.349 . S
C497 C499 1.327 . S
C497 H520 0.950 . S
C498 C497 1.349 . S
C498 C510 1.349 . S
C499 C497 1.327 . S
C499 C515 1.429 . S
C499 H521 0.950 . S
C500 H496 0.949 . S
C500 C508 1.574 . S
C500 C516 1.368 . S
H501 C509 0.950 . S
H502 C507 0.950 . S
H503 C508 0.949 . S
H504 C510 0.950 . S
H505 C511 0.950 . S
H506 C512 0.949 . S
C507 H502 0.950 . S
C507 C509 1.327 . S
C507 C513 1.429 . S
C508 C500 1.574 . S
C508 H503 0.949 . S
C508 C514 1.368 . S
C509 C493 1.349 . S
C509 H501 0.950 . S
C509 C507 1.327 . S
C510 C498 1.349 . S
C510 H504 0.950 . S
C510 C511 1.327 . S
C511 H505 0.950 . S
C511 C510 1.327 . S
C511 C515 1.429 . S
C512 C495 1.574 . S
C512 H506 0.949 . S
C512 C516 1.368 . S
C513 C494 1.429 . S
C513 C507 1.429 . S
C513 C514 1.523 . S
C514 C495 1.368 . S
C514 C508 1.368 . S
C514 C513 1.523 . S
C515 C499 1.429 . S
C515 C511 1.429 . S
C515 C516 1.523 . S
C516 C500 1.368 . S
C516 C512 1.368 . S
C516 C515 1.523 . S
H517 C492 0.950 . S
H518 C494 0.950 . S
H519 C495 0.949 . S
H520 C497 0.950 . S
H521 C499 0.950 . S
C522 C523 1.349 . S
C522 C524 1.327 . S
C522 H547 0.950 . S
C523 C522 1.349 . S
C523 C539 1.349 . S
C524 C522 1.327 . S
C524 C543 1.429 . S
C524 H548 0.950 . S
C525 C542 1.574 . S
C525 C544 1.368 . S
C525 H549 0.949 . S
H526 C530 0.949 . S
C527 C528 1.349 . S
C527 C529 1.327 . S
C527 H550 0.950 . S
C528 C527 1.349 . S
C528 C540 1.349 . S
C529 C527 1.327 . S
C529 C545 1.429 1_556 S
C529 H551 0.950 . S
C530 H526 0.949 . S
C530 C538 1.574 . S
C530 C546 1.368 . S
H531 C539 0.950 . S
H532 C537 0.950 . S
H533 C538 0.949 . S
H534 C540 0.950 . S
H535 C541 0.948 . S
H536 C542 0.949 . S
C537 H532 0.950 . S
C537 C539 1.327 . S
C537 C543 1.429 . S
C538 C530 1.574 . S
C538 H533 0.949 . S
C538 C544 1.368 . S
C539 C523 1.349 . S
C539 H531 0.950 . S
C539 C537 1.327 . S
C540 C528 1.349 . S
C540 H534 0.950 . S
C540 C541 1.327 . S
C541 H535 0.948 . S
C541 C540 1.327 . S
C541 C545 1.429 1_556 S
C542 C525 1.574 . S
C542 H536 0.949 . S
C542 C546 1.368 . S
C543 C524 1.429 . S
C543 C537 1.429 . S
C543 C544 1.523 . S
C544 C525 1.368 . S
C544 C538 1.368 . S
C544 C543 1.523 . S
C545 C529 1.429 1_554 S
C545 C541 1.429 1_554 S
C545 C546 1.523 . S
C546 C530 1.368 . S
C546 C542 1.368 . S
C546 C545 1.523 . S
H547 C522 0.950 . S
H548 C524 0.950 . S
H549 C525 0.949 . S
H550 C527 0.950 . S
H551 C529 0.950 . S
C552 C553 1.349 . S
C552 C554 1.327 . S
C552 H577 0.950 . S
C553 C552 1.349 . S
C553 C569 1.349 . S
C554 C552 1.327 . S
C554 C573 1.429 1_556 S
C554 H578 0.949 . S
C555 C572 1.574 . S
C555 C574 1.368 . S
C555 H579 0.949 . S
H556 C560 0.949 . S
C557 C558 1.349 . S
C557 C559 1.327 . S
C557 H580 0.950 . S
C558 C557 1.349 . S
C558 C570 1.349 . S
C559 C557 1.327 . S
C559 C575 1.429 . S
C559 H581 0.950 . S
C560 H556 0.949 . S
C560 C568 1.574 . S
C560 C576 1.368 . S
H561 C569 0.950 . S
H562 C567 0.950 . S
H563 C568 0.949 . S
H564 C570 0.950 . S
H565 C571 0.950 . S
H566 C572 0.949 . S
C567 H562 0.950 . S
C567 C569 1.327 . S
C567 C573 1.429 1_556 S
C568 C560 1.574 . S
C568 H563 0.949 . S
C568 C574 1.368 . S
C569 C553 1.349 . S
C569 H561 0.950 . S
C569 C567 1.327 . S
C570 C558 1.349 . S
C570 H564 0.950 . S
C570 C571 1.327 . S
C571 H565 0.950 . S
C571 C570 1.327 . S
C571 C575 1.429 . S
C572 C555 1.574 . S
C572 H566 0.949 . S
C572 C576 1.368 . S
C573 C554 1.429 1_554 S
C573 C567 1.429 1_554 S
C573 C574 1.523 . S
C574 C555 1.368 . S
C574 C568 1.368 . S
C574 C573 1.523 . S
C575 C559 1.429 . S
C575 C571 1.429 . S
C575 C576 1.523 . S
C576 C560 1.368 . S
C576 C572 1.368 . S
C576 C575 1.523 . S
H577 C552 0.950 . S
H578 C554 0.949 . S
H579 C555 0.949 . S
H580 C557 0.950 . S
H581 C559 0.950 . S
C582 C583 1.349 . S
C582 C584 1.327 . S
C582 H607 0.950 . S
C583 C582 1.349 . S
C583 C599 1.349 . S
C584 C582 1.327 . S
C584 C603 1.429 1_556 S
C584 H608 0.951 . S
C585 C602 1.574 . S
C585 C604 1.368 . S
C585 H609 0.949 . S
H586 C590 0.949 . S
C587 C588 1.349 . S
C587 C589 1.327 . S
C587 H610 0.950 . S
C588 C587 1.349 . S
C588 C600 1.349 . S
C589 C587 1.327 . S
C589 C605 1.429 . S
C589 H611 0.950 . S
C590 H586 0.949 . S
C590 C598 1.574 . S
C590 C606 1.368 . S
H591 C599 0.950 . S
H592 C597 0.950 . S
H593 C598 0.949 . S
H594 C600 0.950 . S
H595 C601 0.950 . S
H596 C602 0.949 . S
C597 H592 0.950 . S
C597 C599 1.327 . S
C597 C603 1.429 1_556 S
C598 C590 1.574 . S
C598 H593 0.949 . S
C598 C604 1.368 . S
C599 C583 1.349 . S
C599 H591 0.950 . S
C599 C597 1.327 . S
C600 C588 1.349 . S
C600 H594 0.950 . S
C600 C601 1.327 . S
C601 H595 0.950 . S
C601 C600 1.327 . S
C601 C605 1.429 . S
C602 C585 1.574 . S
C602 H596 0.949 . S
C602 C606 1.368 . S
C603 C584 1.429 1_554 S
C603 C597 1.429 1_554 S
C603 C604 1.523 . S
C604 C585 1.368 . S
C604 C598 1.368 . S
C604 C603 1.523 . S
C605 C589 1.429 . S
C605 C601 1.429 . S
C605 C606 1.523 . S
C606 C590 1.368 . S
C606 C602 1.368 . S
C606 C605 1.523 . S
H607 C582 0.950 . S
H608 C584 0.951 . S
H609 C585 0.949 . S
H610 C587 0.950 . S
H611 C589 0.950 . S
C612 C613 1.349 . S
C612 C614 1.327 . S
C612 H637 0.950 . S
C613 C612 1.349 . S
C613 C629 1.349 . S
C614 C612 1.327 . S
C614 C633 1.429 1_554 S
C614 H638 0.950 . S
C615 C632 1.574 . S
C615 C634 1.368 . S
C615 H639 0.949 . S
H616 C620 0.949 . S
C617 C618 1.349 . S
C617 C619 1.327 . S
C617 H640 0.950 . S
C618 C617 1.349 . S
C618 C630 1.349 . S
C619 C617 1.327 . S
C619 C635 1.429 . S
C619 H641 0.950 . S
C620 H616 0.949 . S
C620 C628 1.574 . S
C620 C636 1.368 . S
H621 C629 0.950 . S
H622 C627 0.950 . S
H623 C628 0.949 . S
H624 C630 0.950 . S
H625 C631 0.950 . S
H626 C632 0.949 . S
C627 H622 0.950 . S
C627 C629 1.327 . S
C627 C633 1.429 1_554 S
C628 C620 1.574 . S
C628 H623 0.949 . S
C628 C634 1.368 . S
C629 C613 1.349 . S
C629 H621 0.950 . S
C629 C627 1.327 . S
C630 C618 1.349 . S
C630 H624 0.950 . S
C630 C631 1.327 . S
C631 H625 0.950 . S
C631 C630 1.327 . S
C631 C635 1.429 . S
C632 C615 1.574 . S
C632 H626 0.949 . S
C632 C636 1.368 . S
C633 C614 1.429 1_556 S
C633 C627 1.429 1_556 S
C633 C634 1.523 . S
C634 C615 1.368 . S
C634 C628 1.368 . S
C634 C633 1.523 . S
C635 C619 1.429 . S
C635 C631 1.429 . S
C635 C636 1.523 . S
C636 C620 1.368 . S
C636 C632 1.368 . S
C636 C635 1.523 . S
H637 C612 0.950 . S
H638 C614 0.950 . S
H639 C615 0.949 . S
H640 C617 0.950 . S
H641 C619 0.950 . S
C642 C643 1.349 . S
C642 C644 1.327 . S
C642 H667 0.950 . S
C643 C642 1.349 . S
C643 C659 1.349 . S
C644 C642 1.327 . S
C644 C663 1.429 . S
C644 H668 0.950 . S
C645 C662 1.574 . S
C645 C664 1.368 . S
C645 H669 0.949 . S
H646 C650 0.949 . S
C647 C648 1.349 . S
C647 C649 1.327 . S
C647 H670 0.950 . S
C648 C647 1.349 . S
C648 C660 1.349 . S
C649 C647 1.327 . S
C649 C665 1.429 1_554 S
C649 H671 0.950 . S
C650 H646 0.949 . S
C650 C658 1.574 . S
C650 C666 1.368 . S
H651 C659 0.950 . S
H652 C657 0.950 . S
H653 C658 0.949 . S
H654 C660 0.950 . S
H655 C661 0.950 . S
H656 C662 0.949 . S
C657 H652 0.950 . S
C657 C659 1.327 . S
C657 C663 1.429 . S
C658 C650 1.574 . S
C658 H653 0.949 . S
C658 C664 1.368 . S
C659 C643 1.349 . S
C659 H651 0.950 . S
C659 C657 1.327 . S
C660 C648 1.349 . S
C660 H654 0.950 . S
C660 C661 1.327 . S
C661 H655 0.950 . S
C661 C660 1.327 . S
C661 C665 1.429 1_554 S
C662 C645 1.574 . S
C662 H656 0.949 . S
C662 C666 1.368 . S
C663 C644 1.429 . S
C663 C657 1.429 . S
C663 C664 1.523 . S
C664 C645 1.368 . S
C664 C658 1.368 . S
C664 C663 1.523 . S
C665 C649 1.429 1_556 S
C665 C661 1.429 1_556 S
C665 C666 1.523 . S
C666 C650 1.368 . S
C666 C662 1.368 . S
C666 C665 1.523 . S
H667 C642 0.950 . S
H668 C644 0.950 . S
H669 C645 0.949 . S
H670 C647 0.950 . S
H671 C649 0.950 . S
C672 C673 1.349 . S
C672 C674 1.327 . S
C672 H697 0.950 . S
C673 C672 1.349 . S
C673 C689 1.349 . S
C674 C672 1.327 . S
C674 C693 1.429 1_554 S
C674 H698 0.950 . S
C675 C692 1.574 . S
C675 C694 1.368 . S
C675 H699 0.949 . S
H676 C680 0.949 . S
C677 C678 1.349 . S
C677 C679 1.327 . S
C677 H700 0.950 . S
C678 C677 1.349 . S
C678 C690 1.349 . S
C679 C677 1.327 . S
C679 C695 1.429 . S
C679 H701 0.950 . S
C680 H676 0.949 . S
C680 C688 1.574 . S
C680 C696 1.368 . S
H681 C689 0.950 . S
H682 C687 0.950 . S
H683 C688 0.949 . S
H684 C690 0.950 . S
H685 C691 0.950 . S
H686 C692 0.949 . S
C687 H682 0.950 . S
C687 C689 1.327 . S
C687 C693 1.429 1_554 S
C688 C680 1.574 . S
C688 H683 0.949 . S
C688 C694 1.368 . S
C689 C673 1.349 . S
C689 H681 0.950 . S
C689 C687 1.327 . S
C690 C678 1.349 . S
C690 H684 0.950 . S
C690 C691 1.327 . S
C691 H685 0.950 . S
C691 C690 1.327 . S
C691 C695 1.429 . S
C692 C675 1.574 . S
C692 H686 0.949 . S
C692 C696 1.368 . S
C693 C674 1.429 1_556 S
C693 C687 1.429 1_556 S
C693 C694 1.523 . S
C694 C675 1.368 . S
C694 C688 1.368 . S
C694 C693 1.523 . S
C695 C679 1.429 . S
C695 C691 1.429 . S
C695 C696 1.523 . S
C696 C680 1.368 . S
C696 C692 1.368 . S
C696 C695 1.523 . S
H697 C672 0.950 . S
H698 C674 0.950 . S
H699 C675 0.949 . S
H700 C677 0.950 . S
H701 C679 0.950 . S
C702 C703 1.349 . S
C702 C704 1.327 . S
C702 H727 0.950 . S
C703 C702 1.349 . S
C703 C719 1.349 . S
C704 C702 1.327 . S
C704 C723 1.429 . S
C704 H728 0.950 . S
C705 C722 1.574 . S
C705 C724 1.368 . S
C705 H729 0.949 . S
H706 C710 0.949 . S
C707 C708 1.349 . S
C707 C709 1.327 . S
C707 H730 0.950 . S
C708 C707 1.349 . S
C708 C720 1.349 . S
C709 C707 1.327 . S
C709 C725 1.429 . S
C709 H731 0.950 . S
C710 H706 0.949 . S
C710 C718 1.574 . S
C710 C726 1.368 . S
H711 C719 0.950 . S
H712 C717 0.950 . S
H713 C718 0.949 . S
H714 C720 0.950 . S
H715 C721 0.950 . S
H716 C722 0.949 . S
C717 H712 0.950 . S
C717 C719 1.327 . S
C717 C723 1.429 . S
C718 C710 1.574 . S
C718 H713 0.949 . S
C718 C724 1.368 . S
C719 C703 1.349 . S
C719 H711 0.950 . S
C719 C717 1.327 . S
C720 C708 1.349 . S
C720 H714 0.950 . S
C720 C721 1.327 . S
C721 H715 0.950 . S
C721 C720 1.327 . S
C721 C725 1.429 . S
C722 C705 1.574 . S
C722 H716 0.949 . S
C722 C726 1.368 . S
C723 C704 1.429 . S
C723 C717 1.429 . S
C723 C724 1.523 . S
C724 C705 1.368 . S
C724 C718 1.368 . S
C724 C723 1.523 . S
C725 C709 1.429 . S
C725 C721 1.429 . S
C725 C726 1.523 . S
C726 C710 1.368 . S
C726 C722 1.368 . S
C726 C725 1.523 . S
H727 C702 0.950 . S
H728 C704 0.950 . S
H729 C705 0.949 . S
H730 C707 0.950 . S
H731 C709 0.950 . S
C732 C733 1.349 . S
C732 C734 1.327 . S
C732 H757 0.950 . S
C733 C732 1.349 . S
C733 C749 1.349 . S
C734 C732 1.327 . S
C734 C753 1.429 . S
C734 H758 0.950 . S
C735 C752 1.574 . S
C735 C754 1.368 . S
C735 H759 0.949 . S
H736 C740 0.949 . S
C737 C738 1.349 . S
C737 C739 1.327 . S
C737 H760 0.950 . S
C738 C737 1.349 . S
C738 C750 1.349 . S
C739 C737 1.327 . S
C739 C755 1.429 . S
C739 H761 0.950 . S
C740 H736 0.949 . S
C740 C748 1.574 . S
C740 C756 1.368 . S
H741 C749 0.950 . S
H742 C747 0.950 . S
H743 C748 0.949 . S
H744 C750 0.950 . S
H745 C751 0.950 . S
H746 C752 0.949 . S
C747 H742 0.950 . S
C747 C749 1.327 . S
C747 C753 1.429 . S
C748 C740 1.574 . S
C748 H743 0.949 . S
C748 C754 1.368 . S
C749 C733 1.349 . S
C749 H741 0.950 . S
C749 C747 1.327 . S
C750 C738 1.349 . S
C750 H744 0.950 . S
C750 C751 1.327 . S
C751 H745 0.950 . S
C751 C750 1.327 . S
C751 C755 1.429 . S
C752 C735 1.574 . S
C752 H746 0.949 . S
C752 C756 1.368 . S
C753 C734 1.429 . S
C753 C747 1.429 . S
C753 C754 1.523 . S
C754 C735 1.368 . S
C754 C748 1.368 . S
C754 C753 1.523 . S
C755 C739 1.429 . S
C755 C751 1.429 . S
C755 C756 1.523 . S
C756 C740 1.368 . S
C756 C752 1.368 . S
C756 C755 1.523 . S
H757 C732 0.950 . S
H758 C734 0.950 . S
H759 C735 0.949 . S
H760 C737 0.950 . S
H761 C739 0.950 . S
C762 C763 1.349 . S
C762 C764 1.327 . S
C762 H787 0.950 . S
C763 C762 1.349 . S
C763 C779 1.349 . S
C764 C762 1.327 . S
C764 C783 1.429 . S
C764 H788 0.950 . S
C765 C782 1.574 . S
C765 C784 1.368 . S
C765 H789 0.949 . S
H766 C770 0.949 . S
C767 C768 1.349 . S
C767 C769 1.327 . S
C767 H790 0.950 . S
C768 C767 1.349 . S
C768 C780 1.349 . S
C769 C767 1.327 . S
C769 C785 1.429 . S
C769 H791 0.950 . S
C770 H766 0.949 . S
C770 C778 1.574 . S
C770 C786 1.368 . S
H771 C779 0.950 . S
H772 C777 0.950 . S
H773 C778 0.949 . S
H774 C780 0.950 . S
H775 C781 0.950 . S
H776 C782 0.949 . S
C777 H772 0.950 . S
C777 C779 1.327 . S
C777 C783 1.429 . S
C778 C770 1.574 . S
C778 H773 0.949 . S
C778 C784 1.368 . S
C779 C763 1.349 . S
C779 H771 0.950 . S
C779 C777 1.327 . S
C780 C768 1.349 . S
C780 H774 0.950 . S
C780 C781 1.327 . S
C781 H775 0.950 . S
C781 C780 1.327 . S
C781 C785 1.429 . S
C782 C765 1.574 . S
C782 H776 0.949 . S
C782 C786 1.368 . S
C783 C764 1.429 . S
C783 C777 1.429 . S
C783 C784 1.523 . S
C784 C765 1.368 . S
C784 C778 1.368 . S
C784 C783 1.523 . S
C785 C769 1.429 . S
C785 C781 1.429 . S
C785 C786 1.523 . S
C786 C770 1.368 . S
C786 C782 1.368 . S
C786 C785 1.523 . S
H787 C762 0.950 . S
H788 C764 0.950 . S
H789 C765 0.949 . S
H790 C767 0.950 . S
H791 C769 0.950 . S
C792 C793 1.349 . S
C792 C794 1.327 . S
C792 H817 0.950 . S
C793 C792 1.349 . S
C793 C809 1.349 . S
C794 C792 1.327 . S
C794 C813 1.429 . S
C794 H818 0.950 . S
C795 C812 1.574 . S
C795 C814 1.368 . S
C795 H819 0.949 . S
H796 C800 0.949 . S
C797 C798 1.349 . S
C797 C799 1.327 . S
C797 H820 0.950 . S
C798 C797 1.349 . S
C798 C810 1.349 . S
C799 C797 1.327 . S
C799 C815 1.429 . S
C799 H821 0.950 . S
C800 H796 0.949 . S
C800 C808 1.574 . S
C800 C816 1.368 . S
H801 C809 0.950 . S
H802 C807 0.950 . S
H803 C808 0.949 . S
H804 C810 0.950 . S
H805 C811 0.950 . S
H806 C812 0.949 . S
C807 H802 0.950 . S
C807 C809 1.327 . S
C807 C813 1.429 . S
C808 C800 1.574 . S
C808 H803 0.949 . S
C808 C814 1.368 . S
C809 C793 1.349 . S
C809 H801 0.950 . S
C809 C807 1.327 . S
C810 C798 1.349 . S
C810 H804 0.950 . S
C810 C811 1.327 . S
C811 H805 0.950 . S
C811 C810 1.327 . S
C811 C815 1.429 . S
C812 C795 1.574 . S
C812 H806 0.949 . S
C812 C816 1.368 . S
C813 C794 1.429 . S
C813 C807 1.429 . S
C813 C814 1.523 . S
C814 C795 1.368 . S
C814 C808 1.368 . S
C814 C813 1.523 . S
C815 C799 1.429 . S
C815 C811 1.429 . S
C815 C816 1.523 . S
C816 C800 1.368 . S
C816 C812 1.368 . S
C816 C815 1.523 . S
H817 C792 0.950 . S
H818 C794 0.950 . S
H819 C795 0.949 . S
H820 C797 0.950 . S
H821 C799 0.950 . S
C822 C823 1.349 . S
C822 C824 1.327 . S
C822 H847 0.950 . S
C823 C822 1.349 . S
C823 C839 1.349 . S
C824 C822 1.327 . S
C824 C843 1.429 . S
C824 H848 0.950 . S
C825 C842 1.574 . S
C825 C844 1.368 . S
C825 H849 0.949 . S
H826 C830 0.949 . S
C827 C828 1.349 . S
C827 C829 1.327 . S
C827 H850 0.950 1_556 S
C828 C827 1.349 . S
C828 C840 1.349 . S
C829 C827 1.327 . S
C829 C845 1.429 . S
C829 H851 0.950 . S
C830 H826 0.949 . S
C830 C838 1.574 . S
C830 C846 1.368 . S
H831 C839 0.950 . S
H832 C837 0.950 . S
H833 C838 0.949 . S
H834 C840 0.950 . S
H835 C841 0.950 . S
H836 C842 0.949 . S
C837 H832 0.950 . S
C837 C839 1.327 . S
C837 C843 1.429 . S
C838 C830 1.574 . S
C838 H833 0.949 . S
C838 C844 1.368 . S
C839 C823 1.349 . S
C839 H831 0.950 . S
C839 C837 1.327 . S
C840 C828 1.349 . S
C840 H834 0.950 . S
C840 C841 1.327 . S
C841 H835 0.950 . S
C841 C840 1.327 . S
C841 C845 1.429 . S
C842 C825 1.574 . S
C842 H836 0.949 . S
C842 C846 1.368 . S
C843 C824 1.429 . S
C843 C837 1.429 . S
C843 C844 1.523 . S
C844 C825 1.368 . S
C844 C838 1.368 . S
C844 C843 1.523 . S
C845 C829 1.429 . S
C845 C841 1.429 . S
C845 C846 1.523 . S
C846 C830 1.368 . S
C846 C842 1.368 . S
C846 C845 1.523 . S
H847 C822 0.950 . S
H848 C824 0.950 . S
H849 C825 0.949 . S
H850 C827 0.950 1_554 S
H851 C829 0.950 . S
C852 C853 1.349 . S
C852 C854 1.327 . S
C852 H877 0.950 . S
C853 C852 1.349 . S
C853 C869 1.349 . S
C854 C852 1.327 . S
C854 C873 1.429 . S
C854 H878 0.950 . S
C855 C872 1.574 . S
C855 C874 1.368 . S
C855 H879 0.949 . S
H856 C860 0.949 . S
C857 C858 1.349 . S
C857 C859 1.327 . S
C857 H880 0.950 . S
C858 C857 1.349 . S
C858 C870 1.349 . S
C859 C857 1.327 . S
C859 C875 1.429 . S
C859 H881 0.950 . S
C860 H856 0.949 . S
C860 C868 1.574 . S
C860 C876 1.368 . S
H861 C869 0.950 . S
H862 C867 0.950 . S
H863 C868 0.949 . S
H864 C870 0.950 . S
H865 C871 0.950 . S
H866 C872 0.949 . S
C867 H862 0.950 . S
C867 C869 1.327 . S
C867 C873 1.429 . S
C868 C860 1.574 . S
C868 H863 0.949 . S
C868 C874 1.368 . S
C869 C853 1.349 . S
C869 H861 0.950 . S
C869 C867 1.327 . S
C870 C858 1.349 . S
C870 H864 0.950 . S
C870 C871 1.327 . S
C871 H865 0.950 . S
C871 C870 1.327 . S
C871 C875 1.429 . S
C872 C855 1.574 . S
C872 H866 0.949 . S
C872 C876 1.368 . S
C873 C854 1.429 . S
C873 C867 1.429 . S
C873 C874 1.523 . S
C874 C855 1.368 . S
C874 C868 1.368 . S
C874 C873 1.523 . S
C875 C859 1.429 . S
C875 C871 1.429 . S
C875 C876 1.523 . S
C876 C860 1.368 . S
C876 C872 1.368 . S
C876 C875 1.523 . S
H877 C852 0.950 . S
H878 C854 0.950 . S
H879 C855 0.949 . S
H880 C857 0.950 . S
H881 C859 0.950 . S
C882 C883 1.349 . S
C882 C884 1.327 . S
C882 H907 0.950 . S
C883 C882 1.349 . S
C883 C899 1.349 . S
C884 C882 1.327 . S
C884 C903 1.429 . S
C884 H908 0.950 . S
C885 C902 1.574 . S
C885 C904 1.368 . S
C885 H909 0.949 . S
H886 C890 0.949 . S
C887 C888 1.349 . S
C887 C889 1.327 . S
C887 H910 0.950 . S
C888 C887 1.349 . S
C888 C900 1.349 . S
C889 C887 1.327 . S
C889 C905 1.429 . S
C889 H911 0.950 . S
C890 H886 0.949 . S
C890 C898 1.574 . S
C890 C906 1.368 . S
H891 C899 0.950 . S
H892 C897 0.950 . S
H893 C898 0.949 . S
H894 C900 0.950 . S
H895 C901 0.950 . S
H896 C902 0.949 . S
C897 H892 0.950 . S
C897 C899 1.327 . S
C897 C903 1.429 . S
C898 C890 1.574 . S
C898 H893 0.949 . S
C898 C904 1.368 . S
C899 C883 1.349 . S
C899 H891 0.950 . S
C899 C897 1.327 . S
C900 C888 1.349 . S
C900 H894 0.950 . S
C900 C901 1.327 . S
C901 H895 0.950 . S
C901 C900 1.327 . S
C901 C905 1.429 . S
C902 C885 1.574 . S
C902 H896 0.949 . S
C902 C906 1.368 . S
C903 C884 1.429 . S
C903 C897 1.429 . S
C903 C904 1.523 . S
C904 C885 1.368 . S
C904 C898 1.368 . S
C904 C903 1.523 . S
C905 C889 1.429 . S
C905 C901 1.429 . S
C905 C906 1.523 . S
C906 C890 1.368 . S
C906 C902 1.368 . S
C906 C905 1.523 . S
H907 C882 0.950 . S
H908 C884 0.950 . S
H909 C885 0.949 . S
H910 C887 0.950 . S
H911 C889 0.950 . S
C912 C913 1.349 . S
C912 C914 1.327 . S
C912 H937 0.950 . S
C913 C912 1.349 . S
C913 C929 1.349 . S
C914 C912 1.327 . S
C914 C933 1.429 . S
C914 H938 0.950 . S
C915 C932 1.574 . S
C915 C934 1.368 . S
C915 H939 0.949 . S
H916 C920 0.949 . S
C917 C918 1.349 . S
C917 C919 1.327 . S
C917 H940 0.950 . S
C918 C917 1.349 . S
C918 C930 1.349 . S
C919 C917 1.327 . S
C919 C935 1.429 . S
C919 H941 0.950 . S
C920 H916 0.949 . S
C920 C928 1.574 . S
C920 C936 1.368 . S
H921 C929 0.950 . S
H922 C927 0.950 . S
H923 C928 0.949 . S
H924 C930 0.950 . S
H925 C931 0.950 . S
H926 C932 0.949 . S
C927 H922 0.950 . S
C927 C929 1.327 . S
C927 C933 1.429 . S
C928 C920 1.574 . S
C928 H923 0.949 . S
C928 C934 1.368 . S
C929 C913 1.349 . S
C929 H921 0.950 . S
C929 C927 1.327 . S
C930 C918 1.349 . S
C930 H924 0.950 . S
C930 C931 1.327 . S
C931 H925 0.950 . S
C931 C930 1.327 . S
C931 C935 1.429 . S
C932 C915 1.574 . S
C932 H926 0.949 . S
C932 C936 1.368 . S
C933 C914 1.429 . S
C933 C927 1.429 . S
C933 C934 1.523 . S
C934 C915 1.368 . S
C934 C928 1.368 . S
C934 C933 1.523 . S
C935 C919 1.429 . S
C935 C931 1.429 . S
C935 C936 1.523 . S
C936 C920 1.368 . S
C936 C932 1.368 . S
C936 C935 1.523 . S
H937 C912 0.950 . S
H938 C914 0.950 . S
H939 C915 0.949 . S
H940 C917 0.950 . S
H941 C919 0.950 . S
C942 C943 1.349 . S
C942 C944 1.327 . S
C942 H967 0.950 . S
C943 C942 1.349 . S
C943 C959 1.349 . S
C944 C942 1.327 . S
C944 C963 1.429 . S
C944 H968 0.950 . S
C945 C962 1.574 . S
C945 C964 1.368 . S
C945 H969 0.949 . S
H946 C950 0.949 . S
C947 C948 1.349 . S
C947 C949 1.327 . S
C947 H970 0.950 . S
C948 C947 1.349 . S
C948 C960 1.349 . S
C949 C947 1.327 . S
C949 C965 1.429 . S
C949 H971 0.950 . S
C950 H946 0.949 . S
C950 C958 1.574 . S
C950 C966 1.368 . S
H951 C959 0.950 . S
H952 C957 0.950 . S
H953 C958 0.949 . S
H954 C960 0.950 . S
H955 C961 0.950 . S
H956 C962 0.949 . S
C957 H952 0.950 . S
C957 C959 1.327 . S
C957 C963 1.429 . S
C958 C950 1.574 . S
C958 H953 0.949 . S
C958 C964 1.368 . S
C959 C943 1.349 . S
C959 H951 0.950 . S
C959 C957 1.327 . S
C960 C948 1.349 . S
C960 H954 0.950 . S
C960 C961 1.327 . S
C961 H955 0.950 . S
C961 C960 1.327 . S
C961 C965 1.429 . S
C962 C945 1.574 . S
C962 H956 0.949 . S
C962 C966 1.368 . S
C963 C944 1.429 . S
C963 C957 1.429 . S
C963 C964 1.523 . S
C964 C945 1.368 . S
C964 C958 1.368 . S
C964 C963 1.523 . S
C965 C949 1.429 . S
C965 C961 1.429 . S
C965 C966 1.523 . S
C966 C950 1.368 . S
C966 C962 1.368 . S
C966 C965 1.523 . S
H967 C942 0.950 . S
H968 C944 0.950 . S
H969 C945 0.949 . S
H970 C947 0.950 . S
H971 C949 0.950 . S
C972 C973 1.349 . S
C972 C974 1.327 . S
C972 H997 0.950 . S
C973 C972 1.349 . S
C973 C989 1.349 . S
C974 C972 1.327 . S
C974 C993 1.429 . S
C974 H998 0.950 . S
C975 C992 1.574 . S
C975 C994 1.368 . S
C975 H999 0.949 . S
H976 C980 0.949 . S
C977 C978 1.349 . S
C977 C979 1.327 . S
C977 H1000 0.950 . S
C978 C977 1.349 . S
C978 C990 1.349 . S
C979 C977 1.327 . S
C979 C995 1.429 . S
C979 H1001 0.950 . S
C980 H976 0.949 . S
C980 C988 1.574 . S
C980 C996 1.368 . S
H981 C989 0.950 . S
H982 C987 0.950 . S
H983 C988 0.949 . S
H984 C990 0.950 1_556 S
H985 C991 0.950 . S
H986 C992 0.949 . S
C987 H982 0.950 . S
C987 C989 1.327 . S
C987 C993 1.429 . S
C988 C980 1.574 . S
C988 H983 0.949 . S
C988 C994 1.368 . S
C989 C973 1.349 . S
C989 H981 0.950 . S
C989 C987 1.327 . S
C990 C978 1.349 . S
C990 H984 0.950 1_554 S
C990 C991 1.327 . S
C991 H985 0.950 . S
C991 C990 1.327 . S
C991 C995 1.429 . S
C992 C975 1.574 . S
C992 H986 0.949 . S
C992 C996 1.368 . S
C993 C974 1.429 . S
C993 C987 1.429 . S
C993 C994 1.523 . S
C994 C975 1.368 . S
C994 C988 1.368 . S
C994 C993 1.523 . S
C995 C979 1.429 . S
C995 C991 1.429 . S
C995 C996 1.523 . S
C996 C980 1.368 . S
C996 C992 1.368 . S
C996 C995 1.523 . S
H997 C972 0.950 . S
H998 C974 0.950 . S
H999 C975 0.949 . S
H1000 C977 0.950 . S
H1001 C979 0.950 . S
C1002 C1003 1.349 . S
C1002 C1004 1.327 . S
C1002 H1027 0.950 . S
C1003 C1002 1.349 . S
C1003 C1019 1.349 . S
C1004 C1002 1.327 . S
C1004 C1023 1.429 . S
C1004 H1028 0.950 . S
C1005 C1022 1.574 . S
C1005 C1024 1.368 . S
C1005 H1029 0.949 . S
H1006 C1010 0.949 . S
C1007 C1008 1.349 . S
C1007 C1009 1.327 . S
C1007 H1030 0.950 1_554 S
C1008 C1007 1.349 . S
C1008 C1020 1.349 . S
C1009 C1007 1.327 . S
C1009 C1025 1.429 . S
C1009 H1031 0.950 . S
C1010 H1006 0.949 . S
C1010 C1018 1.574 . S
C1010 C1026 1.368 . S
H1011 C1019 0.950 . S
H1012 C1017 0.950 . S
H1013 C1018 0.949 . S
H1014 C1020 0.950 . S
H1015 C1021 0.950 . S
H1016 C1022 0.949 . S
C1017 H1012 0.950 . S
C1017 C1019 1.327 . S
C1017 C1023 1.429 . S
C1018 C1010 1.574 . S
C1018 H1013 0.949 . S
C1018 C1024 1.368 . S
C1019 C1003 1.349 . S
C1019 H1011 0.950 . S
C1019 C1017 1.327 . S
C1020 C1008 1.349 . S
C1020 H1014 0.950 . S
C1020 C1021 1.327 . S
C1021 H1015 0.950 . S
C1021 C1020 1.327 . S
C1021 C1025 1.429 . S
C1022 C1005 1.574 . S
C1022 H1016 0.949 . S
C1022 C1026 1.368 . S
C1023 C1004 1.429 . S
C1023 C1017 1.429 . S
C1023 C1024 1.523 . S
C1024 C1005 1.368 . S
C1024 C1018 1.368 . S
C1024 C1023 1.523 . S
C1025 C1009 1.429 . S
C1025 C1021 1.429 . S
C1025 C1026 1.523 . S
C1026 C1010 1.368 . S
C1026 C1022 1.368 . S
C1026 C1025 1.523 . S
H1027 C1002 0.950 . S
H1028 C1004 0.950 . S
H1029 C1005 0.949 . S
H1030 C1007 0.950 1_556 S
H1031 C1009 0.950 . S
C1032 C1033 1.349 . S
C1032 C1034 1.327 . S
C1032 H1057 0.950 . S
C1033 C1032 1.349 . S
C1033 C1049 1.349 . S
C1034 C1032 1.327 . S
C1034 C1053 1.429 . S
C1034 H1058 0.950 . S
C1035 C1052 1.574 . S
C1035 C1054 1.368 . S
C1035 H1059 0.949 . S
H1036 C1040 0.949 . S
C1037 C1038 1.349 . S
C1037 C1039 1.327 . S
C1037 H1060 0.950 1_554 S
C1038 C1037 1.349 . S
C1038 C1050 1.349 . S
C1039 C1037 1.327 . S
C1039 C1055 1.429 . S
C1039 H1061 0.950 . S
C1040 H1036 0.949 . S
C1040 C1048 1.574 . S
C1040 C1056 1.368 . S
H1041 C1049 0.950 . S
H1042 C1047 0.950 . S
H1043 C1048 0.949 . S
H1044 C1050 0.950 . S
H1045 C1051 0.950 . S
H1046 C1052 0.949 . S
C1047 H1042 0.950 . S
C1047 C1049 1.327 . S
C1047 C1053 1.429 . S
C1048 C1040 1.574 . S
C1048 H1043 0.949 . S
C1048 C1054 1.368 . S
C1049 C1033 1.349 . S
C1049 H1041 0.950 . S
C1049 C1047 1.327 . S
C1050 C1038 1.349 . S
C1050 H1044 0.950 . S
C1050 C1051 1.327 . S
C1051 H1045 0.950 . S
C1051 C1050 1.327 . S
C1051 C1055 1.429 . S
C1052 C1035 1.574 . S
C1052 H1046 0.949 . S
C1052 C1056 1.368 . S
C1053 C1034 1.429 . S
C1053 C1047 1.429 . S
C1053 C1054 1.523 . S
C1054 C1035 1.368 . S
C1054 C1048 1.368 . S
C1054 C1053 1.523 . S
C1055 C1039 1.429 . S
C1055 C1051 1.429 . S
C1055 C1056 1.523 . S
C1056 C1040 1.368 . S
C1056 C1052 1.368 . S
C1056 C1055 1.523 . S
H1057 C1032 0.950 . S
H1058 C1034 0.950 . S
H1059 C1035 0.949 . S
H1060 C1037 0.950 1_556 S
H1061 C1039 0.950 . S
C1062 C1063 1.349 . S
C1062 C1064 1.327 . S
C1062 H1087 0.950 . S
C1063 C1062 1.349 . S
C1063 C1079 1.349 . S
C1064 C1062 1.327 . S
C1064 C1083 1.429 . S
C1064 H1088 0.950 . S
C1065 C1082 1.574 . S
C1065 C1084 1.368 . S
C1065 H1089 0.949 . S
H1066 C1070 0.949 . S
C1067 C1068 1.349 . S
C1067 C1069 1.327 . S
C1067 H1090 0.950 . S
C1068 C1067 1.349 . S
C1068 C1080 1.349 . S
C1069 C1067 1.327 . S
C1069 C1085 1.429 . S
C1069 H1091 0.950 . S
C1070 H1066 0.949 . S
C1070 C1078 1.574 . S
C1070 C1086 1.368 . S
H1071 C1079 0.950 . S
H1072 C1077 0.950 . S
H1073 C1078 0.949 . S
H1074 C1080 0.950 . S
H1075 C1081 0.950 . S
H1076 C1082 0.949 . S
C1077 H1072 0.950 . S
C1077 C1079 1.327 . S
C1077 C1083 1.429 . S
C1078 C1070 1.574 . S
C1078 H1073 0.949 . S
C1078 C1084 1.368 . S
C1079 C1063 1.349 . S
C1079 H1071 0.950 . S
C1079 C1077 1.327 . S
C1080 C1068 1.349 . S
C1080 H1074 0.950 . S
C1080 C1081 1.327 . S
C1081 H1075 0.950 . S
C1081 C1080 1.327 . S
C1081 C1085 1.429 . S
C1082 C1065 1.574 . S
C1082 H1076 0.949 . S
C1082 C1086 1.368 . S
C1083 C1064 1.429 . S
C1083 C1077 1.429 . S
C1083 C1084 1.523 . S
C1084 C1065 1.368 . S
C1084 C1078 1.368 . S
C1084 C1083 1.523 . S
C1085 C1069 1.429 . S
C1085 C1081 1.429 . S
C1085 C1086 1.523 . S
C1086 C1070 1.368 . S
C1086 C1082 1.368 . S
C1086 C1085 1.523 . S
H1087 C1062 0.950 . S
H1088 C1064 0.950 . S
H1089 C1065 0.949 . S
H1090 C1067 0.950 . S
H1091 C1069 0.950 . S
C1092 C1093 1.349 . S
C1092 C1094 1.327 . S
C1092 H1117 0.950 . S
C1093 C1092 1.349 . S
C1093 C1109 1.349 . S
C1094 C1092 1.327 . S
C1094 C1113 1.429 . S
C1094 H1118 0.950 . S
C1095 C1112 1.574 . S
C1095 C1114 1.368 . S
C1095 H1119 0.949 . S
H1096 C1100 0.949 . S
C1097 C1098 1.349 . S
C1097 C1099 1.327 . S
C1097 H1120 0.950 . S
C1098 C1097 1.349 . S
C1098 C1110 1.349 . S
C1099 C1097 1.327 . S
C1099 C1115 1.429 . S
C1099 H1121 0.950 . S
C1100 H1096 0.949 . S
C1100 C1108 1.574 . S
C1100 C1116 1.368 . S
H1101 C1109 0.950 . S
H1102 C1107 0.950 . S
H1103 C1108 0.949 . S
H1104 C1110 0.950 . S
H1105 C1111 0.950 . S
H1106 C1112 0.949 . S
C1107 H1102 0.950 . S
C1107 C1109 1.327 . S
C1107 C1113 1.429 . S
C1108 C1100 1.574 . S
C1108 H1103 0.949 . S
C1108 C1114 1.368 . S
C1109 C1093 1.349 . S
C1109 H1101 0.950 . S
C1109 C1107 1.327 . S
C1110 C1098 1.349 . S
C1110 H1104 0.950 . S
C1110 C1111 1.327 . S
C1111 H1105 0.950 . S
C1111 C1110 1.327 . S
C1111 C1115 1.429 . S
C1112 C1095 1.574 . S
C1112 H1106 0.949 . S
C1112 C1116 1.368 . S
C1113 C1094 1.429 . S
C1113 C1107 1.429 . S
C1113 C1114 1.523 . S
C1114 C1095 1.368 . S
C1114 C1108 1.368 . S
C1114 C1113 1.523 . S
C1115 C1099 1.429 . S
C1115 C1111 1.429 . S
C1115 C1116 1.523 . S
C1116 C1100 1.368 . S
C1116 C1112 1.368 . S
C1116 C1115 1.523 . S
H1117 C1092 0.950 . S
H1118 C1094 0.950 . S
H1119 C1095 0.949 . S
H1120 C1097 0.950 . S
H1121 C1099 0.950 . S
C1122 C1123 1.349 . S
C1122 C1124 1.327 . S
C1122 H1147 0.950 . S
C1123 C1122 1.349 . S
C1123 C1139 1.349 . S
C1124 C1122 1.327 . S
C1124 C1143 1.429 . S
C1124 H1148 0.950 . S
C1125 C1142 1.574 . S
C1125 C1144 1.368 . S
C1125 H1149 0.949 . S
H1126 C1130 0.949 . S
C1127 C1128 1.349 . S
C1127 C1129 1.327 . S
C1127 H1150 0.950 . S
C1128 C1127 1.349 . S
C1128 C1140 1.349 . S
C1129 C1127 1.327 . S
C1129 C1145 1.429 . S
C1129 H1151 0.950 . S
C1130 H1126 0.949 . S
C1130 C1138 1.574 . S
C1130 C1146 1.368 . S
H1131 C1139 0.950 . S
H1132 C1137 0.950 . S
H1133 C1138 0.949 . S
H1134 C1140 0.950 . S
H1135 C1141 0.950 . S
H1136 C1142 0.949 . S
C1137 H1132 0.950 . S
C1137 C1139 1.327 . S
C1137 C1143 1.429 . S
C1138 C1130 1.574 . S
C1138 H1133 0.949 . S
C1138 C1144 1.368 . S
C1139 C1123 1.349 . S
C1139 H1131 0.950 . S
C1139 C1137 1.327 . S
C1140 C1128 1.349 . S
C1140 H1134 0.950 . S
C1140 C1141 1.327 . S
C1141 H1135 0.950 . S
C1141 C1140 1.327 . S
C1141 C1145 1.429 . S
C1142 C1125 1.574 . S
C1142 H1136 0.949 . S
C1142 C1146 1.368 . S
C1143 C1124 1.429 . S
C1143 C1137 1.429 . S
C1143 C1144 1.523 . S
C1144 C1125 1.368 . S
C1144 C1138 1.368 . S
C1144 C1143 1.523 . S
C1145 C1129 1.429 . S
C1145 C1141 1.429 . S
C1145 C1146 1.523 . S
C1146 C1130 1.368 . S
C1146 C1142 1.368 . S
C1146 C1145 1.523 . S
H1147 C1122 0.950 . S
H1148 C1124 0.950 . S
H1149 C1125 0.949 . S
H1150 C1127 0.950 . S
H1151 C1129 0.950 . S
C1152 C1153 1.349 . S
C1152 C1154 1.327 . S
C1152 H1177 0.950 . S
C1153 C1152 1.349 . S
C1153 C1169 1.349 . S
C1154 C1152 1.327 . S
C1154 C1173 1.429 . S
C1154 H1178 0.950 . S
C1155 C1172 1.574 . S
C1155 C1174 1.368 . S
C1155 H1179 0.949 . S
H1156 C1160 0.949 . S
C1157 C1158 1.349 . S
C1157 C1159 1.327 . S
C1157 H1180 0.950 . S
C1158 C1157 1.349 . S
C1158 C1170 1.349 . S
C1159 C1157 1.327 . S
C1159 C1175 1.429 . S
C1159 H1181 0.950 . S
C1160 H1156 0.949 . S
C1160 C1168 1.574 . S
C1160 C1176 1.368 . S
H1161 C1169 0.950 . S
H1162 C1167 0.950 . S
H1163 C1168 0.949 . S
H1164 C1170 0.950 . S
H1165 C1171 0.950 . S
H1166 C1172 0.949 . S
C1167 H1162 0.950 . S
C1167 C1169 1.327 . S
C1167 C1173 1.429 . S
C1168 C1160 1.574 . S
C1168 H1163 0.949 . S
C1168 C1174 1.368 . S
C1169 C1153 1.349 . S
C1169 H1161 0.950 . S
C1169 C1167 1.327 . S
C1170 C1158 1.349 . S
C1170 H1164 0.950 . S
C1170 C1171 1.327 . S
C1171 H1165 0.950 . S
C1171 C1170 1.327 . S
C1171 C1175 1.429 . S
C1172 C1155 1.574 . S
C1172 H1166 0.949 . S
C1172 C1176 1.368 . S
C1173 C1154 1.429 . S
C1173 C1167 1.429 . S
C1173 C1174 1.523 . S
C1174 C1155 1.368 . S
C1174 C1168 1.368 . S
C1174 C1173 1.523 . S
C1175 C1159 1.429 . S
C1175 C1171 1.429 . S
C1175 C1176 1.523 . S
C1176 C1160 1.368 . S
C1176 C1172 1.368 . S
C1176 C1175 1.523 . S
H1177 C1152 0.950 . S
H1178 C1154 0.950 . S
H1179 C1155 0.949 . S
H1180 C1157 0.950 . S
H1181 C1159 0.950 . S
C1182 C1183 1.349 . S
C1182 C1184 1.327 . S
C1182 H1207 0.950 . S
C1183 C1182 1.349 . S
C1183 C1199 1.349 . S
C1184 C1182 1.327 . S
C1184 C1203 1.429 . S
C1184 H1208 0.950 . S
C1185 C1202 1.574 1_545 S
C1185 C1204 1.368 . S
C1185 H1209 0.949 . S
H1186 C1190 0.949 . S
C1187 C1188 1.349 . S
C1187 C1189 1.327 . S
C1187 H1210 0.950 . S
C1188 C1187 1.349 . S
C1188 C1200 1.349 . S
C1189 C1187 1.327 . S
C1189 C1205 1.429 . S
C1189 H1211 0.950 . S
C1190 H1186 0.949 . S
C1190 C1198 1.574 1_565 S
C1190 C1206 1.368 . S
H1191 C1199 0.950 . S
H1192 C1197 0.950 . S
H1193 C1198 0.949 . S
H1194 C1200 0.950 . S
H1195 C1201 0.950 . S
H1196 C1202 0.949 . S
C1197 H1192 0.950 . S
C1197 C1199 1.327 . S
C1197 C1203 1.429 . S
C1198 C1190 1.574 1_545 S
C1198 H1193 0.949 . S
C1198 C1204 1.368 . S
C1199 C1183 1.349 . S
C1199 H1191 0.950 . S
C1199 C1197 1.327 . S
C1200 C1188 1.349 . S
C1200 H1194 0.950 . S
C1200 C1201 1.327 . S
C1201 H1195 0.950 . S
C1201 C1200 1.327 . S
C1201 C1205 1.429 . S
C1202 C1185 1.574 1_565 S
C1202 H1196 0.949 . S
C1202 C1206 1.368 . S
C1203 C1184 1.429 . S
C1203 C1197 1.429 . S
C1203 C1204 1.523 . S
C1204 C1185 1.368 . S
C1204 C1198 1.368 . S
C1204 C1203 1.523 . S
C1205 C1189 1.429 . S
C1205 C1201 1.429 . S
C1205 C1206 1.523 . S
C1206 C1190 1.368 . S
C1206 C1202 1.368 . S
C1206 C1205 1.523 . S
H1207 C1182 0.950 . S
H1208 C1184 0.950 . S
H1209 C1185 0.949 . S
H1210 C1187 0.950 . S
H1211 C1189 0.950 . S
C1212 C1213 1.349 . S
C1212 C1214 1.327 . S
C1212 H1237 0.950 . S
C1213 C1212 1.349 . S
C1213 C1229 1.349 . S
C1214 C1212 1.327 . S
C1214 C1233 1.429 . S
C1214 H1238 0.950 . S
C1215 C1232 1.574 1_455 S
C1215 C1234 1.368 . S
C1215 H1239 0.949 . S
H1216 C1220 0.949 . S
C1217 C1218 1.349 . S
C1217 C1219 1.327 . S
C1217 H1240 0.950 . S
C1218 C1217 1.349 . S
C1218 C1230 1.349 . S
C1219 C1217 1.327 . S
C1219 C1235 1.429 . S
C1219 H1241 0.950 . S
C1220 H1216 0.949 . S
C1220 C1228 1.574 1_655 S
C1220 C1236 1.368 . S
H1221 C1229 0.950 . S
H1222 C1227 0.950 . S
H1223 C1228 0.949 . S
H1224 C1230 0.950 . S
H1225 C1231 0.950 . S
H1226 C1232 0.949 . S
C1227 H1222 0.950 . S
C1227 C1229 1.327 . S
C1227 C1233 1.429 . S
C1228 C1220 1.574 1_455 S
C1228 H1223 0.949 . S
C1228 C1234 1.368 . S
C1229 C1213 1.349 . S
C1229 H1221 0.950 . S
C1229 C1227 1.327 . S
C1230 C1218 1.349 . S
C1230 H1224 0.950 . S
C1230 C1231 1.327 . S
C1231 H1225 0.950 . S
C1231 C1230 1.327 . S
C1231 C1235 1.429 . S
C1232 C1215 1.574 1_655 S
C1232 H1226 0.949 . S
C1232 C1236 1.368 . S
C1233 C1214 1.429 . S
C1233 C1227 1.429 . S
C1233 C1234 1.523 . S
C1234 C1215 1.368 . S
C1234 C1228 1.368 . S
C1234 C1233 1.523 . S
C1235 C1219 1.429 . S
C1235 C1231 1.429 . S
C1235 C1236 1.523 . S
C1236 C1220 1.368 . S
C1236 C1232 1.368 . S
C1236 C1235 1.523 . S
H1237 C1212 0.950 . S
H1238 C1214 0.950 . S
H1239 C1215 0.949 . S
H1240 C1217 0.950 . S
H1241 C1219 0.950 . S
C1242 C1243 1.349 . S
C1242 C1244 1.327 . S
C1242 H1267 0.950 . S
C1243 C1242 1.349 . S
C1243 C1259 1.349 . S
C1244 C1242 1.327 . S
C1244 C1263 1.429 . S
C1244 H1268 0.950 . S
C1245 C1262 1.574 . S
C1245 C1264 1.368 . S
C1245 H1269 0.949 . S
H1246 C1250 0.949 . S
C1247 C1248 1.349 . S
C1247 C1249 1.327 . S
C1247 H1270 0.950 . S
C1248 C1247 1.349 . S
C1248 C1260 1.349 . S
C1249 C1247 1.327 . S
C1249 C1265 1.429 . S
C1249 H1271 0.950 . S
C1250 H1246 0.949 . S
C1250 C1258 1.574 . S
C1250 C1266 1.368 . S
H1251 C1259 0.950 . S
H1252 C1257 0.950 . S
H1253 C1258 0.949 . S
H1254 C1260 0.950 . S
H1255 C1261 0.950 . S
H1256 C1262 0.949 . S
C1257 H1252 0.950 . S
C1257 C1259 1.327 . S
C1257 C1263 1.429 . S
C1258 C1250 1.574 . S
C1258 H1253 0.949 . S
C1258 C1264 1.368 . S
C1259 C1243 1.349 . S
C1259 H1251 0.950 . S
C1259 C1257 1.327 . S
C1260 C1248 1.349 . S
C1260 H1254 0.950 . S
C1260 C1261 1.327 . S
C1261 H1255 0.950 . S
C1261 C1260 1.327 . S
C1261 C1265 1.429 . S
C1262 C1245 1.574 . S
C1262 H1256 0.949 . S
C1262 C1266 1.368 . S
C1263 C1244 1.429 . S
C1263 C1257 1.429 . S
C1263 C1264 1.523 . S
C1264 C1245 1.368 . S
C1264 C1258 1.368 . S
C1264 C1263 1.523 . S
C1265 C1249 1.429 . S
C1265 C1261 1.429 . S
C1265 C1266 1.523 . S
C1266 C1250 1.368 . S
C1266 C1262 1.368 . S
C1266 C1265 1.523 . S
H1267 C1242 0.950 . S
H1268 C1244 0.950 . S
H1269 C1245 0.949 . S
H1270 C1247 0.950 . S
H1271 C1249 0.950 . S
C1272 C1273 1.349 . S
C1272 C1274 1.327 . S
C1272 H1297 0.950 . S
C1273 C1272 1.349 . S
C1273 C1289 1.349 . S
C1274 C1272 1.327 . S
C1274 C1293 1.429 . S
C1274 H1298 0.950 . S
C1275 C1292 1.574 1_545 S
C1275 C1294 1.368 . S
C1275 H1299 0.949 . S
H1276 C1280 0.949 . S
C1277 C1278 1.349 . S
C1277 C1279 1.327 . S
C1277 H1300 0.950 . S
C1278 C1277 1.349 . S
C1278 C1290 1.349 . S
C1279 C1277 1.327 . S
C1279 C1295 1.429 . S
C1279 H1301 0.950 . S
C1280 H1276 0.949 . S
C1280 C1288 1.574 1_565 S
C1280 C1296 1.368 . S
H1281 C1289 0.950 . S
H1282 C1287 0.950 . S
H1283 C1288 0.949 . S
H1284 C1290 0.950 . S
H1285 C1291 0.950 . S
H1286 C1292 0.949 . S
C1287 H1282 0.950 . S
C1287 C1289 1.327 . S
C1287 C1293 1.429 . S
C1288 C1280 1.574 1_545 S
C1288 H1283 0.949 . S
C1288 C1294 1.368 . S
C1289 C1273 1.349 . S
C1289 H1281 0.950 . S
C1289 C1287 1.327 . S
C1290 C1278 1.349 . S
C1290 H1284 0.950 . S
C1290 C1291 1.327 . S
C1291 H1285 0.950 . S
C1291 C1290 1.327 . S
C1291 C1295 1.429 . S
C1292 C1275 1.574 1_565 S
C1292 H1286 0.949 . S
C1292 C1296 1.368 . S
C1293 C1274 1.429 . S
C1293 C1287 1.429 . S
C1293 C1294 1.523 . S
C1294 C1275 1.368 . S
C1294 C1288 1.368 . S
C1294 C1293 1.523 . S
C1295 C1279 1.429 . S
C1295 C1291 1.429 . S
C1295 C1296 1.523 . S
C1296 C1280 1.368 . S
C1296 C1292 1.368 . S
C1296 C1295 1.523 . S
H1297 C1272 0.950 . S
H1298 C1274 0.950 . S
H1299 C1275 0.949 . S
H1300 C1277 0.950 . S
H1301 C1279 0.950 . S
C1302 C1303 1.349 . S
C1302 C1304 1.327 . S
C1302 H1327 0.950 . S
C1303 C1302 1.349 . S
C1303 C1319 1.349 . S
C1304 C1302 1.327 . S
C1304 C1323 1.429 . S
C1304 H1328 0.950 . S
C1305 C1322 1.574 1_455 S
C1305 C1324 1.368 . S
C1305 H1329 0.949 . S
H1306 C1310 0.949 . S
C1307 C1308 1.349 . S
C1307 C1309 1.327 . S
C1307 H1330 0.950 . S
C1308 C1307 1.349 . S
C1308 C1320 1.349 . S
C1309 C1307 1.327 . S
C1309 C1325 1.429 . S
C1309 H1331 0.950 . S
C1310 H1306 0.949 . S
C1310 C1318 1.574 1_655 S
C1310 C1326 1.368 . S
H1311 C1319 0.950 . S
H1312 C1317 0.950 . S
H1313 C1318 0.949 . S
H1314 C1320 0.950 . S
H1315 C1321 0.950 . S
H1316 C1322 0.949 . S
C1317 H1312 0.950 . S
C1317 C1319 1.327 . S
C1317 C1323 1.429 . S
C1318 C1310 1.574 1_455 S
C1318 H1313 0.949 . S
C1318 C1324 1.368 . S
C1319 C1303 1.349 . S
C1319 H1311 0.950 . S
C1319 C1317 1.327 . S
C1320 C1308 1.349 . S
C1320 H1314 0.950 . S
C1320 C1321 1.327 . S
C1321 H1315 0.950 . S
C1321 C1320 1.327 . S
C1321 C1325 1.429 . S
C1322 C1305 1.574 1_655 S
C1322 H1316 0.949 . S
C1322 C1326 1.368 . S
C1323 C1304 1.429 . S
C1323 C1317 1.429 . S
C1323 C1324 1.523 . S
C1324 C1305 1.368 . S
C1324 C1318 1.368 . S
C1324 C1323 1.523 . S
C1325 C1309 1.429 . S
C1325 C1321 1.429 . S
C1325 C1326 1.523 . S
C1326 C1310 1.368 . S
C1326 C1322 1.368 . S
C1326 C1325 1.523 . S
H1327 C1302 0.950 . S
H1328 C1304 0.950 . S
H1329 C1305 0.949 . S
H1330 C1307 0.950 . S
H1331 C1309 0.950 . S
C253 C57 1.135 . S
C258 C1 1.135 . S
C283 C70 1.135 . S
C288 C14 1.135 . S
C313 C28 1.135 . S
C318 C43 1.135 . S
C343 C56 1.135 . S
C348 C0 1.135 . S
C373 C71 1.135 . S
C378 C15 1.135 . S
C403 C29 1.135 . S
C408 C42 1.135 . S
C433 C153 1.135 . S
C438 C84 1.135 . S
C463 C155 1.135 . S
C468 C110 1.135 . S
C493 C112 1.135 . S
C498 C139 1.135 . S
C523 C85 1.135 . S
C528 C152 1.135 . S
C553 C154 1.135 . S
C558 C111 1.135 . S
C583 C138 1.135 . S
C588 C113 1.135 . S
C613 C237 1.135 . S
C618 C168 1.135 . S
C643 C182 1.135 . S
C648 C238 1.135 . S
C673 C211 1.135 . S
C678 C209 1.135 . S
C703 C236 1.135 . S
C708 C169 1.135 . S
C733 C239 1.135 . S
C738 C183 1.135 . S
C763 C208 1.135 . S
C768 C210 1.135 . S
C793 C13 1.523 . S
C798 C127 1.523 . S
C823 C141 1.523 . S
C828 C26 1.523 . S
C853 C167 1.523 . S
C858 C40 1.523 . S
C883 C55 1.523 . S
C888 C180 1.523 . S
C913 C194 1.523 . S
C918 C69 1.523 . S
C943 C197 1.523 . S
C948 C82 1.523 . S
C973 C222 1.523 . S
C978 C12 1.523 . S
C1003 C224 1.523 . S
C1008 C27 1.523 . S
C1033 C251 1.523 . S
C1038 C41 1.523 . S
C1063 C54 1.523 . S
C1068 C97 1.523 . S
C1093 C68 1.523 . S
C1098 C99 1.523 . S
C1123 C125 1.523 . S
C1128 C83 1.523 . S
C1153 C223 1.523 . S
C1158 C96 1.523 . S
C1183 C225 1.523 . S
C1188 C98 1.523 . S
C1213 C124 1.523 . S
C1218 C250 1.523 . S
C1243 C181 1.523 . S
C1248 C126 1.523 . S
C1273 C195 1.523 . S
C1278 C140 1.523 . S
C1303 C166 1.523 . S
C1308 C196 1.523 . S
