# Generated by pormake.
# Topology ukm, (4)-cn, num edge types: 1
# Building blocks:
#     Node 0, Type 0, BuildingBlock: QUQFOY_clean_sbu_3, # of connection points: 4
#     Node 1, Type 0, BuildingBlock: QUQFOY_clean_sbu_3, # of connection points: 4
#     Node 2, Type 0, BuildingBlock: QUQFOY_clean_sbu_3, # of connection points: 4
#     Node 3, Type 0, BuildingBlock: QUQFOY_clean_sbu_3, # of connection points: 4
#     Node 4, Type 0, BuildingBlock: QUQFOY_clean_sbu_3, # of connection points: 4
#     Node 5, Type 0, BuildingBlock: QUQFOY_clean_sbu_3, # of connection points: 4
#     Node 6, Type 0, BuildingBlock: QUQFOY_clean_sbu_3, # of connection points: 4
#     Node 7, Type 0, BuildingBlock: QUQFOY_clean_sbu_3, # of connection points: 4
#     Node 8, Type 0, BuildingBlock: QUQFOY_clean_sbu_3, # of connection points: 4
#     Node 9, Type 0, BuildingBlock: QUQFOY_clean_sbu_3, # of connection points: 4
#     Node 10, Type 0, BuildingBlock: QUQFOY_clean_sbu_3, # of connection points: 4
#     Node 11, Type 0, BuildingBlock: QUQFOY_clean_sbu_3, # of connection points: 4
#     Node 12, Type 0, BuildingBlock: QUQFOY_clean_sbu_3, # of connection points: 4
#     Node 13, Type 0, BuildingBlock: QUQFOY_clean_sbu_3, # of connection points: 4
#     Node 14, Type 0, BuildingBlock: QUQFOY_clean_sbu_3, # of connection points: 4
#     Node 15, Type 0, BuildingBlock: QUQFOY_clean_sbu_3, # of connection points: 4
#     Node 16, Type 0, BuildingBlock: QUQFOY_clean_sbu_3, # of connection points: 4
#     Node 17, Type 0, BuildingBlock: QUQFOY_clean_sbu_3, # of connection points: 4
#     Node 18, Type 0, BuildingBlock: QUQFOY_clean_sbu_3, # of connection points: 4
#     Node 19, Type 0, BuildingBlock: QUQFOY_clean_sbu_3, # of connection points: 4
#     Node 20, Type 0, BuildingBlock: QUQFOY_clean_sbu_3, # of connection points: 4
#     Node 21, Type 0, BuildingBlock: QUQFOY_clean_sbu_3, # of connection points: 4
#     Node 22, Type 0, BuildingBlock: QUQFOY_clean_sbu_3, # of connection points: 4
#     Node 23, Type 0, BuildingBlock: QUQFOY_clean_sbu_3, # of connection points: 4
#     Node 24, Type 0, BuildingBlock: QUQFOY_clean_sbu_3, # of connection points: 4
#     Node 25, Type 0, BuildingBlock: QUQFOY_clean_sbu_3, # of connection points: 4
#     Node 26, Type 0, BuildingBlock: QUQFOY_clean_sbu_3, # of connection points: 4
#     Node 27, Type 0, BuildingBlock: QUQFOY_clean_sbu_3, # of connection points: 4
#     Node 28, Type 0, BuildingBlock: QUQFOY_clean_sbu_3, # of connection points: 4
#     Node 29, Type 0, BuildingBlock: QUQFOY_clean_sbu_3, # of connection points: 4
#     Node 30, Type 0, BuildingBlock: QUQFOY_clean_sbu_3, # of connection points: 4
#     Node 31, Type 0, BuildingBlock: QUQFOY_clean_sbu_3, # of connection points: 4
#     Edge 32, Type (0, 0), BuildingBlock: EZIPEK_clean_linker_0, # of connection points: 2
#     Edge 33, Type (0, 0), BuildingBlock: EZIPEK_clean_linker_0, # of connection points: 2
#     Edge 34, Type (0, 0), BuildingBlock: EZIPEK_clean_linker_0, # of connection points: 2
#     Edge 35, Type (0, 0), BuildingBlock: EZIPEK_clean_linker_0, # of connection points: 2
#     Edge 36, Type (0, 0), BuildingBlock: EZIPEK_clean_linker_0, # of connection points: 2
#     Edge 37, Type (0, 0), BuildingBlock: EZIPEK_clean_linker_0, # of connection points: 2
#     Edge 38, Type (0, 0), BuildingBlock: EZIPEK_clean_linker_0, # of connection points: 2
#     Edge 39, Type (0, 0), BuildingBlock: EZIPEK_clean_linker_0, # of connection points: 2
#     Edge 40, Type (0, 0), BuildingBlock: EZIPEK_clean_linker_0, # of connection points: 2
#     Edge 41, Type (0, 0), BuildingBlock: EZIPEK_clean_linker_0, # of connection points: 2
#     Edge 42, Type (0, 0), BuildingBlock: EZIPEK_clean_linker_0, # of connection points: 2
#     Edge 43, Type (0, 0), BuildingBlock: EZIPEK_clean_linker_0, # of connection points: 2
#     Edge 44, Type (0, 0), BuildingBlock: EZIPEK_clean_linker_0, # of connection points: 2
#     Edge 45, Type (0, 0), BuildingBlock: EZIPEK_clean_linker_0, # of connection points: 2
#     Edge 46, Type (0, 0), BuildingBlock: EZIPEK_clean_linker_0, # of connection points: 2
#     Edge 47, Type (0, 0), BuildingBlock: EZIPEK_clean_linker_0, # of connection points: 2
#     Edge 48, Type (0, 0), BuildingBlock: EZIPEK_clean_linker_0, # of connection points: 2
#     Edge 49, Type (0, 0), BuildingBlock: EZIPEK_clean_linker_0, # of connection points: 2
#     Edge 50, Type (0, 0), BuildingBlock: EZIPEK_clean_linker_0, # of connection points: 2
#     Edge 51, Type (0, 0), BuildingBlock: EZIPEK_clean_linker_0, # of connection points: 2
#     Edge 52, Type (0, 0), BuildingBlock: EZIPEK_clean_linker_0, # of connection points: 2
#     Edge 53, Type (0, 0), BuildingBlock: EZIPEK_clean_linker_0, # of connection points: 2
#     Edge 54, Type (0, 0), BuildingBlock: EZIPEK_clean_linker_0, # of connection points: 2
#     Edge 55, Type (0, 0), BuildingBlock: EZIPEK_clean_linker_0, # of connection points: 2
#     Edge 56, Type (0, 0), BuildingBlock: EZIPEK_clean_linker_0, # of connection points: 2
#     Edge 57, Type (0, 0), BuildingBlock: EZIPEK_clean_linker_0, # of connection points: 2
#     Edge 58, Type (0, 0), BuildingBlock: EZIPEK_clean_linker_0, # of connection points: 2
#     Edge 59, Type (0, 0), BuildingBlock: EZIPEK_clean_linker_0, # of connection points: 2
#     Edge 60, Type (0, 0), BuildingBlock: EZIPEK_clean_linker_0, # of connection points: 2
#     Edge 61, Type (0, 0), BuildingBlock: EZIPEK_clean_linker_0, # of connection points: 2
#     Edge 62, Type (0, 0), BuildingBlock: EZIPEK_clean_linker_0, # of connection points: 2
#     Edge 63, Type (0, 0), BuildingBlock: EZIPEK_clean_linker_0, # of connection points: 2
#     Edge 64, Type (0, 0), BuildingBlock: EZIPEK_clean_linker_0, # of connection points: 2
#     Edge 65, Type (0, 0), BuildingBlock: EZIPEK_clean_linker_0, # of connection points: 2
#     Edge 66, Type (0, 0), BuildingBlock: EZIPEK_clean_linker_0, # of connection points: 2
#     Edge 67, Type (0, 0), BuildingBlock: EZIPEK_clean_linker_0, # of connection points: 2
#     Edge 68, Type (0, 0), BuildingBlock: EZIPEK_clean_linker_0, # of connection points: 2
#     Edge 69, Type (0, 0), BuildingBlock: EZIPEK_clean_linker_0, # of connection points: 2
#     Edge 70, Type (0, 0), BuildingBlock: EZIPEK_clean_linker_0, # of connection points: 2
#     Edge 71, Type (0, 0), BuildingBlock: EZIPEK_clean_linker_0, # of connection points: 2
#     Edge 72, Type (0, 0), BuildingBlock: EZIPEK_clean_linker_0, # of connection points: 2
#     Edge 73, Type (0, 0), BuildingBlock: EZIPEK_clean_linker_0, # of connection points: 2
#     Edge 74, Type (0, 0), BuildingBlock: EZIPEK_clean_linker_0, # of connection points: 2
#     Edge 75, Type (0, 0), BuildingBlock: EZIPEK_clean_linker_0, # of connection points: 2
#     Edge 76, Type (0, 0), BuildingBlock: EZIPEK_clean_linker_0, # of connection points: 2
#     Edge 77, Type (0, 0), BuildingBlock: EZIPEK_clean_linker_0, # of connection points: 2
#     Edge 78, Type (0, 0), BuildingBlock: EZIPEK_clean_linker_0, # of connection points: 2
#     Edge 79, Type (0, 0), BuildingBlock: EZIPEK_clean_linker_0, # of connection points: 2
#     Edge 80, Type (0, 0), BuildingBlock: EZIPEK_clean_linker_0, # of connection points: 2
#     Edge 81, Type (0, 0), BuildingBlock: EZIPEK_clean_linker_0, # of connection points: 2
#     Edge 82, Type (0, 0), BuildingBlock: EZIPEK_clean_linker_0, # of connection points: 2
#     Edge 83, Type (0, 0), BuildingBlock: EZIPEK_clean_linker_0, # of connection points: 2
#     Edge 84, Type (0, 0), BuildingBlock: EZIPEK_clean_linker_0, # of connection points: 2
#     Edge 85, Type (0, 0), BuildingBlock: EZIPEK_clean_linker_0, # of connection points: 2
#     Edge 86, Type (0, 0), BuildingBlock: EZIPEK_clean_linker_0, # of connection points: 2
#     Edge 87, Type (0, 0), BuildingBlock: EZIPEK_clean_linker_0, # of connection points: 2
#     Edge 88, Type (0, 0), BuildingBlock: EZIPEK_clean_linker_0, # of connection points: 2
#     Edge 89, Type (0, 0), BuildingBlock: EZIPEK_clean_linker_0, # of connection points: 2
#     Edge 90, Type (0, 0), BuildingBlock: EZIPEK_clean_linker_0, # of connection points: 2
#     Edge 91, Type (0, 0), BuildingBlock: EZIPEK_clean_linker_0, # of connection points: 2
#     Edge 92, Type (0, 0), BuildingBlock: EZIPEK_clean_linker_0, # of connection points: 2
#     Edge 93, Type (0, 0), BuildingBlock: EZIPEK_clean_linker_0, # of connection points: 2
#     Edge 94, Type (0, 0), BuildingBlock: EZIPEK_clean_linker_0, # of connection points: 2
#     Edge 95, Type (0, 0), BuildingBlock: EZIPEK_clean_linker_0, # of connection points: 2
# Relax obj value: 0.277
# Max RMSD: 0.198
# Mean RMSD: 0.198
data_MOF--net-ukm--node1-QUQFOY_clean_sbu_3--edge1-EZIPEK_clean_linker_0
_symmetry_space_group_name_H-M    P1
_symmetry_Int_Tables_number       1
_symmetry_cell_setting            triclinic
loop_
_symmetry_equiv_pos_as_xyz
'x, y, z'
_cell_length_a     19.195914
_cell_length_b     75.85178
_cell_length_c     31.318681
_cell_angle_alpha  90.04854
_cell_angle_beta   89.964512
_cell_angle_gamma 90.134677
loop_
_atom_site_label
_atom_site_type_symbol
_atom_site_fract_x
_atom_site_fract_y
_atom_site_fract_z
_atom_type_partial_charge
C0 C 0.12499 0.26021 0.24605 0.0
O1 O 0.07801 0.26967 0.22921 0.0
Cd2 Cd 0.07983 0.30087 0.22318 0.0
O3 O 0.18077 0.26688 0.26135 0.0
Cd4 Cd 0.23043 0.2971 0.26846 0.0
C5 C 0.22496 0.30467 0.16173 0.0
O6 O 0.11983 0.30868 0.29282 0.0
O7 O 0.20065 0.32806 0.28429 0.0
O8 O 0.29955 0.28809 0.3312 0.0
C9 C 0.13968 0.32442 0.29701 0.0
O10 O 0.15929 0.3066 0.16403 0.0
C11 C 0.35502 0.29546 0.31787 0.0
O12 O 0.26073 0.30072 0.19437 0.0
O13 O 0.3524 0.30313 0.28198 0.0
C14 C 0.33634 0.963 0.23439 0.0
O15 O 0.38285 0.95145 0.2279 0.0
Cd16 Cd 0.35922 0.9207 0.24271 0.0
O17 O 0.27874 0.95894 0.25176 0.0
Cd18 Cd 0.21997 0.93265 0.27797 0.0
C19 C 0.22145 0.91591 0.17804 0.0
O20 O 0.31315 0.91659 0.31492 0.0
O21 O 0.21889 0.90218 0.29912 0.0
O22 O 0.15186 0.94606 0.33676 0.0
C23 C 0.27513 0.90303 0.32015 0.0
O24 O 0.28492 0.91147 0.18233 0.0
C25 C 0.09421 0.94341 0.31772 0.0
O26 O 0.18991 0.92412 0.20743 0.0
O27 O 0.0967 0.93636 0.28107 0.0
C28 C 0.95485 0.95441 0.94155 0.0
O29 O 0.90774 0.94576 0.96093 0.0
Cd30 Cd 0.90516 0.91416 0.96938 0.0
O31 O 0.00716 0.94683 0.92486 0.0
Cd32 Cd 0.05386 0.91711 0.91827 0.0
C33 C 0.05436 0.91098 0.02652 0.0
O34 O 0.94267 0.90282 0.90163 0.0
O35 O 0.03251 0.88594 0.90675 0.0
O36 O 0.11962 0.92772 0.85591 0.0
C37 C 0.96778 0.88742 0.90011 0.0
O38 O 0.98868 0.90872 0.0272 0.0
C39 C 0.17761 0.92244 0.87082 0.0
O40 O 0.0862 0.91512 0.99245 0.0
O41 O 0.17671 0.91398 0.90571 0.0
C42 C 0.36666 0.25322 0.91925 0.0
O43 O 0.41401 0.26424 0.90993 0.0
Cd44 Cd 0.39146 0.29495 0.89549 0.0
O45 O 0.30271 0.25751 0.9176 0.0
Cd46 Cd 0.234 0.28388 0.90267 0.0
C47 C 0.31087 0.3016 0.9895 0.0
O48 O 0.29677 0.29996 0.84619 0.0
O49 O 0.23081 0.31468 0.8897 0.0
O50 O 0.13336 0.27108 0.86408 0.0
C51 C 0.2658 0.31425 0.85547 0.0
O52 O 0.3635 0.30596 0.96707 0.0
C53 C 0.08928 0.27633 0.89163 0.0
O54 O 0.26107 0.29256 0.97417 0.0
O55 O 0.11289 0.28415 0.9244 0.0
C56 C 0.02188 0.69291 0.73228 0.0
O57 O 0.07978 0.68576 0.74119 0.0
Cd58 Cd 0.10387 0.65507 0.72714 0.0
O59 O 0.97332 0.68426 0.71446 0.0
Cd60 Cd 0.9508 0.65437 0.69103 0.0
C61 C 0.97754 0.64089 0.79226 0.0
O62 O 0.06211 0.64714 0.65733 0.0
O63 O 0.99205 0.62565 0.67271 0.0
O64 O 0.87668 0.66635 0.63462 0.0
C65 C 0.04754 0.63087 0.65468 0.0
O66 O 0.04275 0.6401 0.78525 0.0
C67 C 0.82271 0.65796 0.64662 0.0
O68 O 0.93567 0.64674 0.76438 0.0
O69 O 0.82942 0.64725 0.67745 0.0
C70 C 0.73704 0.03825 0.72443 0.0
O71 O 0.69446 0.04942 0.74013 0.0
Cd72 Cd 0.66829 0.08013 0.72593 0.0
O73 O 0.77667 0.04188 0.69277 0.0
Cd74 Cd 0.79868 0.06712 0.64596 0.0
C75 C 0.83527 0.09352 0.73752 0.0
O76 O 0.68746 0.0789 0.65335 0.0
O77 O 0.71587 0.07818 0.5882 0.0
O78 O 0.87034 0.05171 0.59235 0.0
C79 C 0.67099 0.08272 0.6158 0.0
O80 O 0.7728 0.09433 0.75118 0.0
C81 C 0.91581 0.064 0.59054 0.0
O82 O 0.85008 0.08485 0.70389 0.0
O83 O 0.90546 0.07753 0.61375 0.0
C84 C 0.94405 0.02992 0.9565 0.0
O85 O 1.00013 0.03868 0.96096 0.0
Cd86 Cd 0.00967 0.06917 0.98053 0.0
O87 O 0.88461 0.03719 0.96 0.0
Cd88 Cd 0.84289 0.06731 0.9725 0.0
C89 C 0.93857 0.08671 0.89269 0.0
O90 O 0.92014 0.0724 0.03319 0.0
O91 O 0.8545 0.09403 0.01371 0.0
O92 O 0.73751 0.05596 0.00676 0.0
C93 C 0.89647 0.08763 0.04069 0.0
O94 O 0.99325 0.08609 0.91547 0.0
C95 C 0.69591 0.06545 0.98532 0.0
O96 O 0.88129 0.08005 0.90536 0.0
O97 O 0.72194 0.07481 0.95571 0.0
C98 C 0.72786 0.69814 0.96655 0.0
O99 O 0.67243 0.69005 0.95611 0.0
Cd100 Cd 0.65229 0.6601 0.97579 0.0
O101 O 0.77129 0.69145 0.9925 0.0
Cd102 Cd 0.7903 0.66576 0.03766 0.0
C103 C 0.81234 0.64609 0.94172 0.0
O104 O 0.66769 0.65896 0.0519 0.0
O105 O 0.74371 0.63921 0.06875 0.0
O106 O 0.84617 0.68386 0.09387 0.0
C107 C 0.68049 0.64396 0.06766 0.0
O108 O 0.74715 0.64669 0.93443 0.0
C109 C 0.90242 0.67499 0.09261 0.0
O110 O 0.83807 0.6519 0.97626 0.0
O111 O 0.9039 0.66165 0.06816 0.0
C112 C 0.96431 0.76414 0.78336 0.0
O113 O 0.91556 0.77339 0.76739 0.0
Cd114 Cd 0.89134 0.80483 0.77408 0.0
O115 O 0.01098 0.77071 0.8074 0.0
Cd116 Cd 0.04443 0.79915 0.83582 0.0
C117 C 0.04315 0.8191 0.73359 0.0
O118 O 0.93424 0.81236 0.84249 0.0
O119 O 0.99678 0.81549 0.89812 0.0
O120 O 0.13331 0.7847 0.87911 0.0
C121 C 0.94157 0.81967 0.87833 0.0
O122 O 0.97823 0.81718 0.72657 0.0
C123 C 0.18023 0.79583 0.86879 0.0
O124 O 0.07069 0.81418 0.76859 0.0
O125 O 0.16254 0.80871 0.84521 0.0
C126 C 0.22787 0.44461 0.74699 0.0
O127 O 0.26779 0.43382 0.72801 0.0
Cd128 Cd 0.25086 0.40268 0.72327 0.0
O129 O 0.17238 0.43955 0.76584 0.0
Cd130 Cd 0.11022 0.41133 0.77814 0.0
C131 C 0.0942 0.40307 0.67192 0.0
O132 O 0.21653 0.39514 0.79418 0.0
O133 O 0.12253 0.37971 0.79231 0.0
O134 O 0.05364 0.42234 0.84395 0.0
C135 C 0.1875 0.38033 0.79902 0.0
O136 O 0.15864 0.39923 0.67005 0.0
C137 C 0.99322 0.41756 0.83175 0.0
O138 O 0.06637 0.4082 0.70649 0.0
O139 O 0.98826 0.41015 0.79563 0.0
C140 C 0.95016 0.45026 0.41041 0.0
O141 O 0.89861 0.44003 0.40501 0.0
Cd142 Cd 0.91464 0.40863 0.40782 0.0
O143 O 0.01149 0.44426 0.41425 0.0
Cd144 Cd 0.07018 0.41587 0.41402 0.0
C145 C 0.98912 0.40512 0.50484 0.0
O146 O 0.00559 0.39868 0.36057 0.0
O147 O 0.06487 0.3845 0.40781 0.0
O148 O 0.17139 0.42618 0.37311 0.0
C149 C 0.03061 0.38414 0.37326 0.0
O150 O 0.93554 0.40104 0.48308 0.0
C151 C 0.21511 0.42169 0.40152 0.0
O152 O 0.04229 0.41206 0.48761 0.0
O153 O 0.19137 0.41492 0.43557 0.0
C154 C 0.31 0.78842 0.52631 0.0
O155 O 0.35583 0.80014 0.53338 0.0
Cd156 Cd 0.33566 0.83072 0.51687 0.0
O157 O 0.2523 0.79223 0.50881 0.0
Cd158 Cd 0.19273 0.8184 0.48189 0.0
C159 C 0.1986 0.83404 0.58314 0.0
O160 O 0.28938 0.83309 0.44531 0.0
O161 O 0.19757 0.8488 0.45816 0.0
O162 O 0.14171 0.80073 0.4242 0.0
C163 C 0.25493 0.84706 0.43855 0.0
O164 O 0.25966 0.83983 0.57571 0.0
C165 C 0.07964 0.80557 0.43181 0.0
O166 O 0.16527 0.82527 0.55524 0.0
O167 O 0.07006 0.81602 0.46294 0.0
C168 C 0.03762 0.18792 0.25025 0.0
O169 O 0.07943 0.17518 0.25586 0.0
Cd170 Cd 0.04818 0.14474 0.25312 0.0
O171 O 0.9725 0.18539 0.2447 0.0
Cd172 Cd 0.89615 0.15905 0.24369 0.0
C173 C 0.94958 0.14308 0.34021 0.0
O174 O 0.97087 0.14376 0.1931 0.0
O175 O 0.88323 0.12896 0.21748 0.0
O176 O 0.80406 0.17108 0.19709 0.0
C177 C 0.93079 0.13061 0.1897 0.0
O178 O 0.00492 0.13698 0.32369 0.0
C179 C 0.75486 0.16795 0.22323 0.0
O180 O 0.90659 0.15197 0.31837 0.0
O181 O 0.77216 0.16223 0.25974 0.0
C182 C 0.6971 0.53299 0.23582 0.0
O183 O 0.64421 0.54193 0.24678 0.0
Cd184 Cd 0.63217 0.57217 0.22887 0.0
O185 O 0.74339 0.53911 0.21073 0.0
Cd186 Cd 0.76886 0.56581 0.16906 0.0
C187 C 0.79316 0.58344 0.26691 0.0
O188 O 0.64675 0.57253 0.1522 0.0
O189 O 0.72481 0.59218 0.13702 0.0
O190 O 0.82906 0.54896 0.11188 0.0
C191 C 0.66179 0.58724 0.13564 0.0
O192 O 0.72811 0.5825 0.27437 0.0
C193 C 0.88497 0.55793 0.11561 0.0
O194 O 0.81761 0.5794 0.23066 0.0
O195 O 0.88438 0.57066 0.14185 0.0
C196 C 0.97722 0.52211 0.46006 0.0
O197 O 0.03796 0.52844 0.45489 0.0
Cd198 Cd 0.07263 0.55768 0.4768 0.0
O199 O 0.92965 0.53089 0.4785 0.0
Cd200 Cd 0.91425 0.55964 0.51138 0.0
C201 C 0.9524 0.57915 0.417 0.0
O202 O 0.02763 0.56249 0.54671 0.0
O203 O 0.9639 0.58586 0.54127 0.0
O204 O 0.84014 0.5462 0.56604 0.0
C205 C 0.01871 0.57864 0.5554 0.0
O206 O 0.01671 0.57707 0.42523 0.0
C207 C 0.78791 0.55595 0.55832 0.0
O208 O 0.90554 0.57299 0.44161 0.0
O209 O 0.79467 0.56751 0.52928 0.0
C210 C 0.78523 0.20603 0.55941 0.0
O211 O 0.72914 0.20145 0.54112 0.0
Cd212 Cd 0.683 0.17252 0.54008 0.0
O213 O 0.81988 0.19539 0.58239 0.0
Cd214 Cd 0.81346 0.16473 0.60693 0.0
C215 C 0.83376 0.15356 0.50295 0.0
O216 O 0.68578 0.16033 0.61002 0.0
O217 O 0.75126 0.13719 0.61146 0.0
O218 O 0.86139 0.17015 0.67954 0.0
C219 C 0.69046 0.14366 0.61139 0.0
O220 O 0.7706 0.15784 0.49615 0.0
C221 C 0.91732 0.16173 0.67176 0.0
O222 O 0.86161 0.15524 0.53953 0.0
O223 O 0.92219 0.15436 0.63549 0.0
C224 C 0.51929 0.2509 0.82896 0.0
O225 O 0.47186 0.26248 0.82591 0.0
Cd226 Cd 0.48508 0.29374 0.82959 0.0
O227 O 0.58292 0.25512 0.83478 0.0
Cd228 Cd 0.64878 0.28297 0.84251 0.0
C229 C 0.59533 0.29853 0.746 0.0
O230 O 0.56363 0.2981 0.88776 0.0
O231 O 0.64755 0.31392 0.86305 0.0
O232 O 0.7447 0.27126 0.8874 0.0
C233 C 0.59414 0.31286 0.88659 0.0
O234 O 0.53565 0.30244 0.76087 0.0
C235 C 0.79191 0.27648 0.86175 0.0
O236 O 0.64037 0.29045 0.76821 0.0
O237 O 0.77225 0.28409 0.82784 0.0
C238 C 0.72487 0.96797 0.79152 0.0
O239 O 0.77707 0.95783 0.79493 0.0
Cd240 Cd 0.76939 0.92672 0.78474 0.0
O241 O 0.66298 0.96196 0.78925 0.0
Cd242 Cd 0.60102 0.93364 0.79239 0.0
C243 C 0.66811 0.92849 0.69416 0.0
O244 O 0.68378 0.91616 0.8331 0.0
O245 O 0.60866 0.90222 0.79458 0.0
O246 O 0.50356 0.93996 0.84093 0.0
C247 C 0.65759 0.90159 0.8216 0.0
O248 O 0.72739 0.9252 0.71063 0.0
C249 C 0.45775 0.9354 0.81364 0.0
O250 O 0.61555 0.93223 0.71698 0.0
O251 O 0.47861 0.9313 0.77653 0.0
C252 C 0.5304 0.96726 0.41386 0.0
O253 O 0.49405 0.95338 0.41035 0.0
Cd254 Cd 0.54712 0.92537 0.41878 0.0
O255 O 0.59647 0.96652 0.4167 0.0
Cd256 Cd 0.68449 0.94288 0.41577 0.0
C257 C 0.63492 0.93185 0.51199 0.0
O258 O 0.63844 0.92044 0.36799 0.0
O259 O 0.69721 0.91101 0.4219 0.0
O260 O 0.76485 0.95583 0.36363 0.0
C261 C 0.67198 0.90797 0.38526 0.0
O262 O 0.58655 0.9234 0.49311 0.0
C263 C 0.81851 0.95318 0.38644 0.0
O264 O 0.67647 0.9418 0.49164 0.0
O265 O 0.80885 0.94731 0.42385 0.0
C266 C 0.8406 0.2764 0.5123 0.0
O267 O 0.88831 0.28747 0.52062 0.0
Cd268 Cd 0.86132 0.31807 0.5224 0.0
O269 O 0.78177 0.28118 0.49766 0.0
Cd270 Cd 0.71885 0.30767 0.47562 0.0
C271 C 0.71111 0.31292 0.58116 0.0
O272 O 0.81728 0.32585 0.4535 0.0
O273 O 0.72337 0.33922 0.47345 0.0
O274 O 0.66586 0.29594 0.40938 0.0
C275 C 0.78287 0.34 0.45602 0.0
O276 O 0.77428 0.3181 0.5803 0.0
C277 C 0.60462 0.30058 0.42017 0.0
O278 O 0.67972 0.30805 0.54756 0.0
O279 O 0.59739 0.30803 0.45614 0.0
C280 C 0.443 0.71122 0.22564 0.0
O281 O 0.48603 0.69875 0.23105 0.0
Cd282 Cd 0.46443 0.66799 0.22869 0.0
O283 O 0.37951 0.70833 0.21551 0.0
Cd284 Cd 0.30759 0.68131 0.20371 0.0
C285 C 0.33991 0.67006 0.30581 0.0
O286 O 0.39407 0.66298 0.16759 0.0
O287 O 0.30552 0.64957 0.1945 0.0
O288 O 0.22334 0.6894 0.14729 0.0
C289 C 0.35989 0.64883 0.1717 0.0
O290 O 0.40018 0.66465 0.29515 0.0
C291 C 0.17062 0.68646 0.17098 0.0
O292 O 0.29872 0.67691 0.27892 0.0
O293 O 0.18226 0.6828 0.20981 0.0
C294 C 0.27959 0.03231 0.17681 0.0
O295 O 0.22544 0.03789 0.19576 0.0
Cd296 Cd 0.1784 0.06707 0.1921 0.0
O297 O 0.31386 0.04203 0.15116 0.0
Cd298 Cd 0.31314 0.07233 0.12227 0.0
C299 C 0.32812 0.08707 0.2259 0.0
O300 O 0.18761 0.07722 0.12055 0.0
O301 O 0.25026 0.09859 0.09749 0.0
O302 O 0.36721 0.06333 0.05413 0.0
C303 C 0.19018 0.09314 0.10814 0.0
O304 O 0.26531 0.08262 0.23331 0.0
C305 C 0.42473 0.07098 0.06272 0.0
O306 O 0.35611 0.08473 0.18947 0.0
O307 O 0.4275 0.07987 0.09707 0.0
C308 C 0.43843 0.03682 0.45349 0.0
O309 O 0.49091 0.04691 0.45735 0.0
Cd310 Cd 0.49012 0.07678 0.48141 0.0
O311 O 0.3768 0.04212 0.46122 0.0
Cd312 Cd 0.32597 0.07079 0.48026 0.0
C313 C 0.40613 0.09083 0.39522 0.0
O314 O 0.40694 0.07648 0.53782 0.0
O315 O 0.34058 0.09823 0.51942 0.0
O316 O 0.23241 0.05804 0.52379 0.0
C317 C 0.38119 0.09136 0.54665 0.0
O318 O 0.4605 0.09318 0.41763 0.0
C319 C 0.18254 0.06517 0.5036 0.0
O320 O 0.35357 0.08253 0.40981 0.0
O321 O 0.19881 0.0739 0.47042 0.0
C322 C 0.31556 0.71564 0.57615 0.0
O323 O 0.25513 0.709 0.58021 0.0
Cd324 Cd 0.22598 0.67816 0.58219 0.0
O325 O 0.36962 0.70601 0.5754 0.0
Cd326 Cd 0.39505 0.67447 0.57617 0.0
C327 C 0.30105 0.67086 0.48592 0.0
O328 O 0.30699 0.66156 0.62299 0.0
O329 O 0.35726 0.64466 0.57676 0.0
O330 O 0.49784 0.67594 0.62172 0.0
C331 C 0.31387 0.64627 0.60701 0.0
O332 O 0.24518 0.67035 0.50784 0.0
C333 C 0.53928 0.67004 0.59344 0.0
O334 O 0.36039 0.67363 0.5027 0.0
O335 O 0.51404 0.66659 0.55689 0.0
C336 C 0.5584 0.77932 0.26591 0.0
O337 O 0.52176 0.79313 0.26262 0.0
Cd338 Cd 0.57064 0.82169 0.25769 0.0
O339 O 0.62391 0.78017 0.27259 0.0
Cd340 Cd 0.71152 0.80413 0.28248 0.0
C341 C 0.6898 0.81296 0.17949 0.0
O342 O 0.64487 0.82738 0.31688 0.0
O343 O 0.73455 0.83556 0.27969 0.0
O344 O 0.77658 0.7962 0.34698 0.0
C345 C 0.68831 0.83931 0.30709 0.0
O346 O 0.63412 0.82088 0.19025 0.0
C347 C 0.83491 0.79535 0.32788 0.0
O348 O 0.72694 0.80483 0.20657 0.0
O349 O 0.83406 0.79628 0.28742 0.0
C350 C 0.73746 0.46503 0.31219 0.0
O351 O 0.79698 0.45778 0.31086 0.0
Cd352 Cd 0.82165 0.42761 0.32797 0.0
O353 O 0.68346 0.45667 0.32421 0.0
Cd354 Cd 0.65251 0.42678 0.34454 0.0
C355 C 0.71659 0.41322 0.24874 0.0
O356 O 0.75282 0.41967 0.38884 0.0
O357 O 0.68618 0.3982 0.36841 0.0
O358 O 0.55479 0.43571 0.39045 0.0
C359 C 0.73775 0.40342 0.39023 0.0
O360 O 0.77885 0.41356 0.2627 0.0
C361 C 0.51049 0.42669 0.36945 0.0
O362 O 0.6655 0.41836 0.27125 0.0
O363 O 0.53257 0.41785 0.33784 0.0
C364 C 0.48484 0.44449 0.00467 0.0
O365 O 0.44225 0.43225 0.01388 0.0
Cd366 Cd 0.47067 0.40167 0.01333 0.0
O367 O 0.54577 0.44112 0.99075 0.0
Cd368 Cd 0.61341 0.41415 0.97493 0.0
C369 C 0.60944 0.40565 0.07981 0.0
O370 O 0.52422 0.39418 0.94634 0.0
O371 O 0.61729 0.38248 0.97278 0.0
O372 O 0.67834 0.42397 0.91104 0.0
C373 C 0.56242 0.38072 0.95082 0.0
O374 O 0.54766 0.39977 0.07562 0.0
C375 C 0.73736 0.42081 0.92784 0.0
O376 O 0.64251 0.41206 0.04839 0.0
O377 O 0.73796 0.41546 0.96613 0.0
C378 C 0.74994 0.7671 0.89946 0.0
O379 O 0.79987 0.7775 0.89083 0.0
Cd380 Cd 0.78728 0.8087 0.89772 0.0
O381 O 0.68881 0.77276 0.90696 0.0
Cd382 Cd 0.62111 0.79988 0.90973 0.0
C383 C 0.71525 0.8086 -0.00193 0.0
O384 O 0.68636 0.8174 0.85893 0.0
O385 O 0.62083 0.83132 0.90382 0.0
O386 O 0.51616 0.79108 0.87045 0.0
C387 C 0.66101 0.83186 0.87176 0.0
O388 O 0.76809 0.81196 0.97484 0.0
C389 C 0.47548 0.79406 0.90173 0.0
O390 O 0.65793 0.80341 0.98212 0.0
O391 O 0.50303 0.79868 0.93683 0.0
C392 C 0.44561 0.1781 0.80289 0.0
O393 O 0.49575 0.16743 0.79743 0.0
Cd394 Cd 0.48628 0.13754 0.77375 0.0
O395 O 0.38237 0.17345 0.79732 0.0
Cd396 Cd 0.32025 0.14598 0.77844 0.0
C397 C 0.39581 0.12121 0.85762 0.0
O398 O 0.39981 0.14022 0.7197 0.0
O399 O 0.32 0.12073 0.73067 0.0
O400 O 0.22685 0.16274 0.74361 0.0
C401 C 0.36872 0.12649 0.70718 0.0
O402 O 0.45215 0.1209 0.83637 0.0
C403 C 0.17735 0.15429 0.76114 0.0
O404 O 0.34367 0.13001 0.84439 0.0
O405 O 0.19389 0.143 0.78928 0.0
C406 C 0.29475 0.51837 0.7332 0.0
O407 O 0.24808 0.52918 0.74484 0.0
Cd408 Cd 0.25191 0.56052 0.73934 0.0
O409 O 0.35209 0.52354 0.71683 0.0
Cd410 Cd 0.40434 0.55264 0.70084 0.0
C411 C 0.39518 0.56926 0.80058 0.0
O412 O 0.29921 0.56603 0.67059 0.0
O413 O 0.385 0.58338 0.68541 0.0
O414 O 0.47277 0.54463 0.63698 0.0
C415 C 0.32575 0.58126 0.66849 0.0
O416 O 0.33008 0.57134 0.79476 0.0
C417 C 0.53032 0.54955 0.65324 0.0
O418 O 0.4312 0.56092 0.77328 0.0
O419 O 0.52923 0.55483 0.69164 0.0
C420 C 0.42763 0.51623 0.05272 0.0
O421 O 0.47966 0.52529 0.06487 0.0
Cd422 Cd 0.48322 0.55665 0.07506 0.0
O423 O 0.36794 0.52311 0.04721 0.0
Cd424 Cd 0.31551 0.55248 0.05361 0.0
C425 C 0.42508 0.56589 0.97493 0.0
O426 O 0.38154 0.5659 0.1121 0.0
O427 O 0.3246 0.58312 0.06958 0.0
O428 O 0.20724 0.54462 0.09022 0.0
C429 C 0.36174 0.58138 0.10272 0.0
O430 O 0.47452 0.56706 0.00186 0.0
C431 C 0.1675 0.54975 0.06025 0.0
O432 O 0.36487 0.56021 0.98521 0.0
O433 O 0.19656 0.55504 0.0261 0.0
C434 C 0.32201 0.19482 0.02326 0.0
O435 O 0.25835 0.19087 0.01751 0.0
Cd436 Cd 0.20044 0.16599 0.04672 0.0
O437 O 0.35914 0.18678 0.05084 0.0
Cd438 Cd 0.35052 0.16354 0.10715 0.0
C439 C 0.33051 0.13694 0.01936 0.0
O440 O 0.22712 0.16587 0.12045 0.0
O441 O 0.27832 0.14666 0.15877 0.0
O442 O 0.42861 0.18013 0.15525 0.0
C443 C 0.22091 0.15297 0.14586 0.0
O444 O 0.27113 0.1438 0.01245 0.0
C445 C 0.47434 0.16798 0.15599 0.0
O446 O 0.3664 0.14105 0.05208 0.0
O447 O 0.46046 0.15383 0.13589 0.0
C448 C 0.0384 0.36721 0.30425 0.0
C449 C 0.02631 0.36744 0.34881 0.0
C450 C 0.06657 0.3371 0.35552 0.0
C451 C 0.09196 0.33812 0.31298 0.0
N452 N 0.09343 0.35238 0.24419 0.0
N453 N 0.99677 0.35074 0.41116 0.0
C454 C 0.07436 0.35258 0.28628 0.0
C455 C 0.02937 0.35161 0.37242 0.0
N456 N 0.01341 0.38054 0.27935 0.0
N457 N 0.0831 0.32303 0.38084 0.0
H458 H 0.96877 0.3614 0.42341 0.0
H459 H 0.99127 0.3392 0.42882 0.0
H460 H 0.11112 0.31216 0.37003 0.0
H461 H 0.07294 0.32254 0.41346 0.0
H462 H 0.01809 0.38099 0.24631 0.0
H463 H 0.98025 0.39022 0.29125 0.0
H464 H 0.08954 0.36317 0.22387 0.0
H465 H 0.11489 0.3413 0.2295 0.0
C466 C 0.29663 0.87147 0.33591 0.0
C467 C 0.29197 0.889 0.35108 0.0
C468 C 0.28951 0.87819 0.42465 0.0
C469 C 0.27945 0.86086 0.4089 0.0
N470 N 0.27124 0.8407 0.3493 0.0
N471 N 0.28291 0.90946 0.40999 0.0
C472 C 0.28395 0.85731 0.36448 0.0
C473 C 0.28973 0.89254 0.39557 0.0
N474 N 0.31297 0.86846 0.29406 0.0
N475 N 0.29903 0.88083 0.46743 0.0
H476 H 0.28382 0.92041 0.38992 0.0
H477 H 0.2721 0.91263 0.44167 0.0
H478 H 0.29968 0.87046 0.48933 0.0
H479 H 0.31301 0.89294 0.48059 0.0
H480 H 0.32335 0.85598 0.28173 0.0
H481 H 0.32302 0.87872 0.27269 0.0
H482 H 0.26538 0.83782 0.31699 0.0
H483 H 0.2617 0.82991 0.36904 0.0
C484 C 0.89281 0.86542 0.8622 0.0
C485 C 0.9232 0.87155 0.90061 0.0
C486 C 0.91241 0.84232 0.93232 0.0
C487 C 0.9019 0.83565 0.89081 0.0
N488 N 0.84446 0.84026 0.82375 0.0
N489 N 0.9414 0.86784 0.97598 0.0
C490 C 0.87845 0.8471 0.85822 0.0
C491 C 0.92452 0.86066 0.93736 0.0
N492 N 0.88176 0.87689 0.82936 0.0
N493 N 0.91419 0.83083 0.96578 0.0
H494 H 0.94812 0.8814 0.97982 0.0
H495 H 0.94766 0.86067 0.00398 0.0
H496 H 0.90512 0.81737 0.96118 0.0
H497 H 0.92063 0.8345 -0.00247 0.0
H498 H 0.86488 0.87315 0.79913 0.0
H499 H 0.89005 0.89043 0.83266 0.0
H500 H 0.82672 0.84769 0.7981 0.0
H501 H 0.8281 0.82713 0.82326 0.0
C502 C 0.21712 0.34956 0.77803 0.0
C503 C 0.22809 0.36406 0.80591 0.0
C504 C 0.29994 0.34545 0.85169 0.0
C505 C 0.27303 0.33051 0.83038 0.0
N506 N 0.21123 0.31775 0.77107 0.0
N507 N 0.28329 0.37624 0.86891 0.0
C508 C 0.23469 0.33237 0.79215 0.0
C509 C 0.27226 0.3623 0.84204 0.0
N510 N 0.19045 0.35232 0.73816 0.0
N511 N 0.35042 0.34326 0.88193 0.0
H512 H 0.26337 0.38879 0.86348 0.0
H513 H 0.30862 0.37511 0.89818 0.0
H514 H 0.37083 0.33084 0.88899 0.0
H515 H 0.37655 0.35369 0.89654 0.0
H516 H 0.18623 0.34246 0.71515 0.0
H517 H 0.17928 0.36492 0.72665 0.0
H518 H 0.17545 0.31822 0.74612 0.0
H519 H 0.22578 0.30502 0.77984 0.0
C520 C 0.08682 0.58637 0.62045 0.0
C521 C 0.07176 0.58951 0.57697 0.0
C522 C 0.09618 0.62082 0.58549 0.0
C523 C 0.08932 0.61822 0.62992 0.0
N524 N 0.10902 0.59958 0.6902 0.0
N525 N 0.09096 0.60726 0.51493 0.0
C526 C 0.0968 0.60118 0.64747 0.0
C527 C 0.08764 0.606 0.55835 0.0
N528 N 0.08643 0.56955 0.63582 0.0
N529 N 0.10687 0.6374 0.56985 0.0
H530 H 0.08563 0.59612 0.49555 0.0
H531 H 0.10221 0.6188 0.49836 0.0
H532 H 0.11878 0.64798 0.58982 0.0
H533 H 0.10788 0.64055 0.53757 0.0
H534 H 0.09283 0.56628 0.66781 0.0
H535 H 0.08183 0.55866 0.61569 0.0
H536 H 0.11595 0.58765 0.70596 0.0
H537 H 0.1162 0.61071 0.70943 0.0
C538 C 0.59008 0.10558 0.64183 0.0
C539 C 0.61564 0.09582 0.60681 0.0
C540 C 0.62738 0.1225 0.56557 0.0
C541 C 0.63039 0.13178 0.60487 0.0
N542 N 0.58991 0.13428 0.67693 0.0
N543 N 0.6149 0.09381 0.53086 0.0
C544 C 0.6008 0.1241 0.6417 0.0
C545 C 0.61745 0.10399 0.56667 0.0
N546 N 0.5612 0.09687 0.67546 0.0
N547 N 0.6401 0.13122 0.52845 0.0
H548 H 0.60835 0.08015 0.53318 0.0
H549 H 0.61481 0.09879 0.49993 0.0
H550 H 0.64411 0.14487 0.52801 0.0
H551 H 0.64488 0.12515 0.49879 0.0
H552 H 0.54072 0.10311 0.70227 0.0
H553 H 0.55429 0.0832 0.67442 0.0
H554 H 0.57315 0.12936 0.70621 0.0
H555 H 0.598 0.1479 0.67599 0.0
C556 C 0.92919 0.10075 0.15627 0.0
C557 C 0.93211 0.11929 0.15147 0.0
C558 C 0.93335 0.11586 0.07394 0.0
C559 C 0.91693 0.09778 0.07888 0.0
N560 N 0.8889 0.07335 0.12581 0.0
N561 N 0.92327 0.14479 0.10497 0.0
C562 C 0.91292 0.09017 0.12029 0.0
C563 C 0.93126 0.127 0.11011 0.0
N564 N 0.94242 0.09324 0.19506 0.0
N565 N 0.95123 0.12235 0.03472 0.0
H566 H 0.9164 0.15356 0.1302 0.0
H567 H 0.91548 0.15066 0.0753 0.0
H568 H 0.95695 0.11432 0.00789 0.0
H569 H 0.96792 0.13526 0.02984 0.0
H570 H 0.94755 0.07968 0.1993 0.0
H571 H 0.95587 0.10062 0.22197 0.0
H572 H 0.87806 0.06801 0.15574 0.0
H573 H 0.87309 0.06523 0.1008 0.0
C574 C 0.58996 0.61371 0.13813 0.0
C575 C 0.60999 0.59857 0.11513 0.0
C576 C 0.62411 0.61565 0.05052 0.0
C577 C 0.62566 0.6309 0.07654 0.0
N578 N 0.58393 0.64584 0.13887 0.0
N579 N 0.61366 0.58361 0.04827 0.0
C580 C 0.59765 0.63041 0.11819 0.0
C581 C 0.61361 0.59909 0.07037 0.0
N582 N 0.57011 0.61189 0.17968 0.0
N583 N 0.63909 0.61709 0.0081 0.0
H584 H 0.60785 0.57157 0.06411 0.0
H585 H 0.61538 0.58271 0.01515 0.0
H586 H 0.64639 0.62936 0.99382 0.0
H587 H 0.64375 0.60644 0.98736 0.0
H588 H 0.55687 0.62233 0.19962 0.0
H589 H 0.56519 0.5994 0.19342 0.0
H590 H 0.56374 0.64663 0.16964 0.0
H591 H 0.59009 0.65797 0.12355 0.0
C592 C 0.54264 0.3603 0.88936 0.0
C593 C 0.54322 0.36326 0.934 0.0
C594 C 0.55448 0.33169 0.94777 0.0
C595 C 0.56124 0.329 0.90323 0.0
N596 N 0.53405 0.33886 0.83224 0.0
N597 N 0.52429 0.35204 0.00479 0.0
C598 C 0.54581 0.34274 0.87419 0.0
C599 C 0.54019 0.34894 0.96294 0.0
N600 N 0.5443 0.37418 0.86159 0.0
N601 N 0.56607 0.31809 0.97544 0.0
H602 H 0.51297 0.36468 0.0161 0.0
H603 H 0.51585 0.3421 0.02711 0.0
H604 H 0.57502 0.30521 0.96524 0.0
H605 H 0.56981 0.31967 0.00836 0.0
H606 H 0.5531 0.37277 0.82894 0.0
H607 H 0.54035 0.38727 0.87137 0.0
H608 H 0.51653 0.34805 0.81002 0.0
H609 H 0.53478 0.32594 0.82088 0.0
C610 C 0.68049 0.85353 0.81245 0.0
C611 C 0.68629 0.84895 0.85606 0.0
C612 C 0.70061 0.87977 0.87629 0.0
C613 C 0.68787 0.88442 0.83318 0.0
N614 N 0.70106 0.87616 0.75944 0.0
N615 N 0.73391 0.8564 0.92477 0.0
C616 C 0.69016 0.87136 0.8009 0.0
C617 C 0.70735 0.86169 0.88647 0.0
N618 N 0.66163 0.84129 0.78258 0.0
N619 N 0.70149 0.89221 0.90783 0.0
H620 H 0.74156 0.8431 0.93182 0.0
H621 H 0.75572 0.86508 0.94687 0.0
H622 H 0.69876 0.90569 0.90211 0.0
H623 H 0.7018 0.88904 0.94019 0.0
H624 H 0.64918 0.84459 0.75123 0.0
H625 H 0.65435 0.828 0.78959 0.0
H626 H 0.70833 0.86708 0.73485 0.0
H627 H 0.71083 0.88925 0.75095 0.0
C628 C 0.62411 0.86729 0.32121 0.0
C629 C 0.68475 0.85696 0.32633 0.0
C630 C 0.74005 0.88079 0.36637 0.0
C631 C 0.67603 0.89024 0.36578 0.0
N632 N 0.55164 0.88971 0.35236 0.0
N633 N 0.7953 0.85225 0.36119 0.0
C634 C 0.61637 0.88275 0.34592 0.0
C635 C 0.74139 0.86323 0.35102 0.0
N636 N 0.57498 0.86274 0.29167 0.0
N637 N 0.80026 0.88868 0.3799 0.0
H638 H 0.79751 0.83913 0.35135 0.0
H639 H 0.83428 0.85564 0.38287 0.0
H640 H 0.80292 0.90159 0.39098 0.0
H641 H 0.84916 0.88293 0.37618 0.0
H642 H 0.53284 0.87079 0.28406 0.0
H643 H 0.58087 0.85201 0.27129 0.0
H644 H 0.50616 0.88364 0.34158 0.0
H645 H 0.5423 0.90024 0.37284 0.0
C646 C 0.80388 0.37142 0.47053 0.0
C647 C 0.8106 0.3571 0.44194 0.0
C648 C 0.81308 0.37737 0.38197 0.0
C649 C 0.78442 0.39032 0.40923 0.0
N650 N 0.76561 0.40165 0.48003 0.0
N651 N 0.83723 0.34634 0.37131 0.0
C652 C 0.78594 0.38817 0.45398 0.0
C653 C 0.82247 0.36009 0.39795 0.0
N654 N 0.81242 0.36859 0.51324 0.0
N655 N 0.82941 0.38169 0.34088 0.0
H656 H 0.8483 0.33373 0.3825 0.0
H657 H 0.83797 0.34734 0.33816 0.0
H658 H 0.8229 0.39448 0.3294 0.0
H659 H 0.85513 0.37328 0.31986 0.0
H660 H 0.81248 0.3786 0.53598 0.0
H661 H 0.8258 0.35618 0.5251 0.0
H662 H 0.75854 0.40035 0.51282 0.0
H663 H 0.75464 0.41421 0.46831 0.0
C664 C 0.41248 0.61135 0.09877 0.0
C665 C 0.38833 0.59728 0.12458 0.0
C666 C 0.38368 0.6172 0.18554 0.0
C667 C 0.38666 0.63165 0.15693 0.0
N668 N 0.40911 0.6427 0.08567 0.0
N669 N 0.35543 0.58635 0.19424 0.0
C670 C 0.40462 0.62888 0.11352 0.0
C671 C 0.37712 0.59991 0.16882 0.0
N672 N 0.44206 0.60781 0.06006 0.0
N673 N 0.38718 0.62013 0.22852 0.0
H674 H 0.35113 0.57339 0.18355 0.0
H675 H 0.33816 0.58814 0.22548 0.0
H676 H 0.39435 0.63274 0.2412 0.0
H677 H 0.39082 0.61004 0.25093 0.0
H678 H 0.46564 0.61738 0.04104 0.0
H679 H 0.4498 0.59492 0.04948 0.0
H680 H 0.41361 0.64108 0.05276 0.0
H681 H 0.4043 0.65582 0.09484 0.0
C682 C 0.12626 0.13784 0.10588 0.0
C683 C 0.15894 0.14111 0.14542 0.0
C684 C 0.13372 0.11069 0.1642 0.0
C685 C 0.13752 0.10652 0.1204 0.0
N686 N 0.11449 0.11627 0.04903 0.0
N687 N 0.17079 0.13169 0.21818 0.0
C688 C 0.12401 0.12018 0.09101 0.0
C689 C 0.15349 0.12792 0.17707 0.0
N690 N 0.0973 0.15135 0.08377 0.0
N691 N 0.11077 0.0984 0.19236 0.0
H692 H 0.18423 0.1445 0.22741 0.0
H693 H 0.17245 0.12217 0.24212 0.0
H694 H 0.08961 0.08657 0.18119 0.0
H695 H 0.10442 0.10093 0.22483 0.0
H696 H 0.07045 0.14953 0.05519 0.0
H697 H 0.09662 0.1641 0.09642 0.0
H698 H 0.11114 0.12593 0.02544 0.0
H699 H 0.11208 0.1032 0.03856 0.0
C700 C 0.37912 0.09013 0.62667 0.0
C701 C 0.39259 0.09966 0.58851 0.0
C702 C 0.39867 0.12715 0.62857 0.0
C703 C 0.38734 0.11751 0.66697 0.0
N704 N 0.39441 0.08949 0.70315 0.0
N705 N 0.43971 0.12577 0.55556 0.0
C706 C 0.38678 0.09886 0.66621 0.0
C707 C 0.41079 0.1177 0.5903 0.0
N708 N 0.35419 0.07324 0.62555 0.0
N709 N 0.39255 0.14509 0.62743 0.0
H710 H 0.45051 0.11899 0.52729 0.0
H711 H 0.46001 0.13852 0.55662 0.0
H712 H 0.37925 0.15278 0.65365 0.0
H713 H 0.39369 0.15225 0.59904 0.0
H714 H 0.33707 0.06663 0.65278 0.0
H715 H 0.3437 0.06638 0.59746 0.0
H716 H 0.40028 0.07583 0.70359 0.0
H717 H 0.40367 0.09555 0.73256 0.0
C718 C 0.26507 0.62794 0.66633 0.0
C719 C 0.27523 0.63056 0.62221 0.0
C720 C 0.27237 0.59878 0.60997 0.0
C721 C 0.28593 0.59665 0.65404 0.0
N722 N 0.27864 0.6078 0.72584 0.0
N723 N 0.25778 0.61951 0.55125 0.0
C724 C 0.27557 0.6108 0.68291 0.0
C725 C 0.26754 0.61618 0.59367 0.0
N726 N 0.24481 0.64164 0.69166 0.0
N727 N 0.26771 0.58432 0.58409 0.0
H728 H 0.24959 0.63232 0.54015 0.0
H729 H 0.25461 0.60992 0.52759 0.0
H730 H 0.26999 0.5715 0.59598 0.0
H731 H 0.25844 0.58481 0.55143 0.0
H732 H 0.23343 0.64034 0.724 0.0
H733 H 0.23075 0.65381 0.67895 0.0
H734 H 0.27953 0.61776 0.7487 0.0
H735 H 0.28158 0.59508 0.73833 0.0
C736 C 0.51012 0.3144 0.37732 0.0
C737 C 0.54412 0.29885 0.39117 0.0
C738 C 0.45681 0.28082 0.35395 0.0
C739 C 0.41905 0.29637 0.34411 0.0
N740 N 0.40292 0.32772 0.35291 0.0
N741 N 0.54657 0.26717 0.39729 0.0
C742 C 0.44391 0.31311 0.35749 0.0
C743 C 0.51682 0.282 0.38059 0.0
N744 N 0.54221 0.33041 0.38196 0.0
N745 N 0.43668 0.26505 0.33672 0.0
H746 H 0.59102 0.26753 0.41639 0.0
H747 H 0.5245 0.25466 0.39478 0.0
H748 H 0.39282 0.26369 0.31731 0.0
H749 H 0.46623 0.2536 0.33885 0.0
H750 H 0.52332 0.342 0.36847 0.0
H751 H 0.59141 0.33188 0.39566 0.0
H752 H 0.41507 0.33992 0.36628 0.0
H753 H 0.35334 0.32732 0.33931 0.0
C754 C 0.97628 0.93249 0.33662 0.0
C755 C 0.02575 0.94638 0.33826 0.0
C756 C 0.93944 0.96516 0.37392 0.0
C757 C 0.8883 0.95195 0.36699 0.0
N758 N 0.85491 0.92454 0.33311 0.0
N759 N 0.05217 0.97692 0.35313 0.0
C760 C 0.90569 0.93613 0.34547 0.0
C761 C 0.00703 0.96302 0.3557 0.0
N762 N 0.99724 0.91556 0.32889 0.0
N763 N 0.92348 0.97964 0.39791 0.0
H764 H 0.10155 0.97593 0.33947 0.0
H765 H 0.03864 -0.01023 0.36141 0.0
H766 H 0.87362 0.98186 0.41004 0.0
H767 H 0.96053 -0.01119 0.40792 0.0
H768 H 0.96397 0.90473 0.33152 0.0
H769 H 0.04939 0.91205 0.32502 0.0
H770 H 0.86472 0.91379 0.31325 0.0
H771 H 0.80213 0.92642 0.33939 0.0
C772 C 0.35678 0.91515 0.82521 0.0
C773 C 0.38414 0.93258 0.82572 0.0
C774 C 0.27283 0.94383 0.8525 0.0
C775 C 0.24479 0.9265 0.85006 0.0
N776 N 0.254 0.89651 0.82572 0.0
N777 N 0.36599 0.96387 0.83226 0.0
C778 C 0.28497 0.91243 0.83369 0.0
C779 C 0.34145 0.94706 0.8371 0.0
N780 N 0.40016 0.90109 0.8189 0.0
N781 N 0.23518 0.95699 0.87135 0.0
H782 H 0.41626 0.96665 0.82143 0.0
H783 H 0.33506 0.97504 0.83568 0.0
H784 H 0.18425 0.95526 0.88218 0.0
H785 H 0.25579 0.96933 0.87876 0.0
H786 H 0.38463 0.88804 0.82288 0.0
H787 H 0.45353 0.9024 0.81348 0.0
H788 H 0.27867 0.88623 0.80969 0.0
H789 H 0.20123 0.89417 0.83148 0.0
C790 C 0.90309 0.29196 0.87857 0.0
C791 C 0.86705 0.27581 0.87247 0.0
C792 C 0.97663 0.25954 0.88148 0.0
C793 C 0.01319 0.27581 0.88354 0.0
N794 N 0.01314 0.30746 0.87503 0.0
N795 N 0.86918 0.24429 0.86308 0.0
C796 C 0.97692 0.29202 0.87967 0.0
C797 C 0.90366 0.25957 0.8727 0.0
N798 N 0.86657 0.30722 0.8846 0.0
N799 N 0.01123 0.24414 0.88915 0.0
H800 H 0.81568 0.24385 0.85731 0.0
H801 H 0.89408 0.2323 0.85801 0.0
H802 H 0.06463 0.24368 0.89519 0.0
H803 H 0.98644 0.232 0.89257 0.0
H804 H 0.88978 0.31907 0.89376 0.0
H805 H 0.81226 0.30771 0.88465 0.0
H806 H 0.98959 0.3194 0.86739 0.0
H807 H 0.06743 0.30811 0.87448 0.0
C808 C 0.71542 0.64774 0.60843 0.0
C809 C 0.75324 0.66157 0.62824 0.0
C810 C 0.65505 0.68165 0.61716 0.0
C811 C 0.614 0.66724 0.60293 0.0
N812 N 0.60214 0.63602 0.58932 0.0
N813 N 0.75626 0.69116 0.65703 0.0
C814 C 0.64349 0.65014 0.59929 0.0
C815 C 0.7226 0.67845 0.63382 0.0
N816 N 0.74868 0.63245 0.59768 0.0
N817 N 0.63025 0.69847 0.61361 0.0
H818 H 0.80559 0.68942 0.67024 0.0
H819 H 0.73282 0.70292 0.66635 0.0
H820 H 0.58137 0.70136 0.6009 0.0
H821 H 0.66065 0.70962 0.61926 0.0
H822 H 0.72597 0.62258 0.57915 0.0
H823 H 0.8014 0.63032 0.60388 0.0
H824 H 0.61926 0.62302 0.59036 0.0
H825 H 0.54891 0.63708 0.58332 0.0
C826 C 0.02303 0.04802 0.56289 0.0
C827 C 0.97872 0.06301 0.56261 0.0
C828 C 0.06722 0.07951 0.52258 0.0
C829 C 0.1095 0.06414 0.52004 0.0
N830 N 0.11645 0.0325 0.52707 0.0
N831 N 0.95019 0.09088 0.52987 0.0
C832 C 0.0838 0.04798 0.53679 0.0
C833 C 0.99809 0.07805 0.53839 0.0
N834 N 0.01004 0.03423 0.58981 0.0
N835 N 0.09388 0.09576 0.51303 0.0
H836 H 0.89823 0.08994 0.53945 0.0
H837 H 0.9601 0.10133 0.50914 0.0
H838 H 0.14549 0.09793 0.50429 0.0
H839 H 0.06661 0.10741 0.51859 0.0
H840 H 0.04507 0.02392 0.59431 0.0
H841 H 0.96797 0.03385 0.61079 0.0
H842 H 0.09622 0.0202 0.53535 0.0
H843 H 0.15919 0.03186 0.50655 0.0
C844 C 0.51422 0.05289 0.02236 0.0
C845 C 0.48757 0.0696 0.03505 0.0
C846 C 0.59687 0.08373 0.01299 0.0
C847 C 0.62192 0.06721 -0.00179 0.0
N848 N 0.59877 0.03698 0.97953 0.0
N849 N 0.49663 0.10127 0.03245 0.0
C850 C 0.57857 0.05208 -0.00019 0.0
C851 C 0.52673 0.08513 0.02693 0.0
N852 N 0.48135 0.03768 0.03448 0.0
N853 N 0.64105 0.09785 0.01638 0.0
H854 H 0.44437 0.10281 0.04077 0.0
H855 H 0.52134 0.11306 0.02472 0.0
H856 H 0.69333 0.09747 0.00749 0.0
H857 H 0.6278 0.10954 0.03181 0.0
H858 H 0.50304 0.02522 0.0303 0.0
H859 H 0.43546 0.03741 0.05217 0.0
H860 H 0.5663 0.02605 0.9759 0.0
H861 H 0.64554 0.03603 0.96268 0.0
C862 C 1.00153 0.69567 0.11069 0.0
C863 C 0.96495 0.67962 0.11807 0.0
C864 C 0.0642 0.66809 0.15807 0.0
C865 C 0.09935 0.68449 0.15319 0.0
N866 N 0.09646 0.715 0.13201 0.0
N867 N 0.9538 0.65262 0.15784 0.0
C868 C 0.06646 0.69865 0.13166 0.0
C869 C 0.99392 0.66652 0.14477 0.0
N870 N 0.97634 0.70763 0.08201 0.0
N871 N 0.0991 0.65362 0.17285 0.0
H872 H 0.90154 0.65125 0.14923 0.0
H873 H 0.97003 0.64355 0.18072 0.0
H874 H 0.15171 0.65379 0.18106 0.0
H875 H 0.07789 0.64096 0.17266 0.0
H876 H 0.00467 0.71853 0.0716 0.0
H877 H 0.92899 0.70604 0.06619 0.0
H878 H 0.07162 0.72626 0.12068 0.0
H879 H 0.1439 0.71758 0.14702 0.0
C880 C 0.35937 0.80901 0.90651 0.0
C881 C 0.39877 0.79369 0.89667 0.0
C882 C 0.29334 0.77908 0.87007 0.0
C883 C 0.25352 0.79399 0.88261 0.0
N884 N 0.24569 0.82108 0.92252 0.0
N885 N 0.40116 0.76283 0.8781 0.0
C886 C 0.2857 0.80829 0.904 0.0
C887 C 0.3651 0.7783 0.88119 0.0
N888 N 0.39217 0.82459 0.91565 0.0
N889 N 0.26392 0.76614 0.84556 0.0
H890 H 0.45354 0.76174 0.88649 0.0
H891 H 0.37756 0.75078 0.87118 0.0
H892 H 0.21178 0.76621 0.83628 0.0
H893 H 0.2926 0.75606 0.83142 0.0
H894 H 0.36585 0.83653 0.91851 0.0
H895 H 0.44615 0.82606 0.91602 0.0
H896 H 0.26611 0.83091 0.94216 0.0
H897 H 0.19132 0.82078 0.92192 0.0
C898 C 0.83231 0.40391 0.89272 0.0
C899 C 0.80225 0.4205 0.90248 0.0
C900 C 0.89892 0.4356 0.86643 0.0
C901 C 0.93108 0.41901 0.85939 0.0
N902 N 0.93612 0.38776 0.87297 0.0
N903 N 0.80958 0.45219 0.90396 0.0
C904 C 0.89997 0.40327 0.87465 0.0
C905 C 0.83626 0.4364 0.89081 0.0
N906 N 0.79503 0.38875 0.89929 0.0
N907 N 0.92693 0.45044 0.84854 0.0
H908 H 0.76299 0.45319 0.92097 0.0
H909 H 0.83561 0.46416 0.90054 0.0
H910 H 0.9735 0.45035 0.83136 0.0
H911 H 0.90207 0.46262 0.84839 0.0
H912 H 0.81104 0.37642 0.88846 0.0
H913 H 0.74482 0.38863 0.91207 0.0
H914 H 0.91933 0.3762 0.88768 0.0
H915 H 0.9863 0.38682 0.86035 0.0
C916 C 0.40593 0.40939 0.39151 0.0
C917 C 0.43602 0.42596 0.38138 0.0
C918 C 0.32204 0.44013 0.3893 0.0
C919 C 0.29101 0.42328 0.39454 0.0
N920 N 0.30134 0.39155 0.39346 0.0
N921 N 0.4222 0.45684 0.36487 0.0
C922 C 0.33239 0.4078 0.39386 0.0
C923 C 0.39407 0.44132 0.37895 0.0
N924 N 0.44783 0.39527 0.40008 0.0
N925 N 0.2832 0.455 0.3955 0.0
H926 H 0.47471 0.45827 0.35703 0.0
H927 H 0.39255 0.46793 0.35773 0.0
H928 H 0.2303 0.45464 0.40311 0.0
H929 H 0.30454 0.46763 0.39669 0.0
H930 H 0.42915 0.38333 0.4119 0.0
H931 H 0.5021 0.39602 0.39944 0.0
H932 H 0.32855 0.37988 0.3882 0.0
H933 H 0.24746 0.38976 0.39433 0.0
C934 C 0.94811 0.81069 0.34336 0.0
C935 C 0.90141 0.79651 0.35194 0.0
C936 C 0.97349 0.78768 0.41303 0.0
C937 C 0.02185 0.80117 0.40253 0.0
N938 N 0.06368 0.82293 0.35254 0.0
N939 N 0.87583 0.76963 0.38985 0.0
C940 C 0.01209 0.81172 0.3658 0.0
C941 C 0.9159 0.78443 0.38537 0.0
N942 N 0.92931 0.82404 0.31636 0.0
N943 N 0.98202 0.77823 0.44978 0.0
H944 H 0.83416 0.76675 0.36962 0.0
H945 H 0.88743 0.75947 0.41102 0.0
H946 H 0.02521 0.77981 0.46966 0.0
H947 H 0.94459 0.76961 0.46183 0.0
H948 H 0.95791 0.83565 0.31308 0.0
H949 H 0.88164 0.82461 0.30062 0.0
H950 H 0.06254 0.82942 0.32324 0.0
H951 H 0.11055 0.82457 0.36892 0.0
C952 C 0.63504 0.15451 0.21692 0.0
C953 C 0.68036 0.16914 0.21024 0.0
C954 C 0.58836 0.18397 0.1694 0.0
C955 C 0.5419 0.16985 0.17879 0.0
N956 N 0.51565 0.14443 0.22208 0.0
N957 N 0.69399 0.19954 0.18927 0.0
C958 C 0.56357 0.15604 0.20609 0.0
C959 C 0.65507 0.18444 0.18933 0.0
N960 N 0.66063 0.13869 0.23063 0.0
N961 N 0.57094 0.19637 0.13965 0.0
H962 H 0.74225 0.20047 0.2044 0.0
H963 H 0.67527 0.21156 0.17811 0.0
H964 H 0.52343 0.19645 0.12359 0.0
H965 H 0.60608 0.20572 0.12818 0.0
H966 H 0.63057 0.12724 0.23172 0.0
H967 H 0.71327 0.13636 0.23623 0.0
H968 H 0.5277 0.13508 0.2453 0.0
H969 H 0.46244 0.14544 0.21569 0.0
C970 C 0.05532 0.56699 0.06097 0.0
C971 C 0.09079 0.5507 0.06642 0.0
C972 C 0.98549 0.53773 0.09809 0.0
C973 C 0.94991 0.55392 0.09178 0.0
N974 N 0.94402 0.58186 0.05572 0.0
N975 N 0.0842 0.51941 0.07899 0.0
C976 C 0.98266 0.56782 0.06919 0.0
C977 C 0.05399 0.53568 0.08135 0.0
N978 N 0.09142 0.58203 0.05119 0.0
N979 N 0.95604 0.52471 0.12231 0.0
H980 H 0.1338 0.51745 0.06619 0.0
H981 H 0.05758 0.50775 0.08561 0.0
H982 H 0.906 0.52554 0.13499 0.0
H983 H 0.98315 0.51358 0.13234 0.0
H984 H 0.06898 0.59452 0.05167 0.0
H985 H 0.14514 0.58241 0.04661 0.0
H986 H 0.96357 0.59165 0.03565 0.0
H987 H 0.89039 0.58267 0.06089 0.0
C988 C 0.68517 0.53781 0.5823 0.0
C989 C 0.72195 0.5541 0.58251 0.0
C990 C 0.62796 0.56769 0.62377 0.0
C991 C 0.59497 0.55098 0.6276 0.0
N992 N 0.59706 0.51956 0.61605 0.0
N993 N 0.73515 0.5836 0.61044 0.0
C994 C 0.62479 0.53586 0.6083 0.0
C995 C 0.69522 0.5688 0.60517 0.0
N996 N 0.70624 0.52445 0.55601 0.0
N997 N 0.59385 0.58263 0.63633 0.0
H998 H 0.78535 0.58485 0.59805 0.0
H999 H 0.72132 0.59393 0.63065 0.0
H1000 H 0.54338 0.58254 0.64869 0.0
H1001 H 0.61268 0.59529 0.63051 0.0
H1002 H 0.67729 0.51299 0.55111 0.0
H1003 H 0.74955 0.52542 0.53602 0.0
H1004 H 0.62103 0.50786 0.60676 0.0
H1005 H 0.55297 0.51762 0.63498 0.0
C1006 C 0.00279 0.14286 0.71001 0.0
C1007 C 0.97518 0.15992 0.70306 0.0
C1008 C 0.07153 0.17261 0.74474 0.0
C1009 C 0.10471 0.15591 0.74519 0.0
N1010 N 0.10588 0.12538 0.7226 0.0
N1011 N 0.98665 0.19152 0.71056 0.0
C1012 C 0.0711 0.14102 0.72678 0.0
C1013 C 0.00976 0.17496 0.72012 0.0
N1014 N 0.96335 0.12838 0.70048 0.0
N1015 N 0.09872 0.18616 0.76823 0.0
H1016 H 0.94213 0.19392 0.69252 0.0
H1017 H 0.01455 0.20293 0.71782 0.0
H1018 H 0.14361 0.18479 0.78671 0.0
H1019 H 0.07335 0.19815 0.77264 0.0
H1020 H 0.9791 0.11558 0.70691 0.0
H1021 H 0.91187 0.12924 0.68999 0.0
H1022 H 0.08696 0.11477 0.70495 0.0
H1023 H 0.15671 0.12341 0.73314 0.0
C1024 C 0.10306 0.21227 0.2145 0.0
C1025 C 0.06531 0.20603 0.25045 0.0
C1026 C 0.08123 0.23433 0.28688 0.0
C1027 C 0.11225 0.24112 0.24922 0.0
N1028 N 0.15125 0.23745 0.17666 0.0
N1029 N 0.01583 0.21064 0.32037 0.0
C1030 C 0.12334 0.23029 0.21295 0.0
C1031 C 0.0539 0.21691 0.28664 0.0
N1032 N 0.11951 0.20095 0.18198 0.0
N1033 N 0.07857 0.24455 0.32287 0.0
H1034 H 0.99812 0.19765 0.32229 0.0
H1035 H 0.99854 0.21843 0.34558 0.0
H1036 H 0.09711 0.25748 0.32385 0.0
H1037 H 0.06286 0.23995 0.35264 0.0
H1038 H 0.15329 0.2041 0.15713 0.0
H1039 H 0.10267 0.18787 0.18099 0.0
H1040 H 0.15328 0.23096 0.1474 0.0
H1041 H 0.1698 0.25038 0.17521 0.0
C1042 C 0.33133 0.98397 0.17338 0.0
C1043 C 0.34376 0.98106 0.2175 0.0
C1044 C 0.33282 0.01265 0.23158 0.0
C1045 C 0.30816 0.015 0.1892 0.0
N1046 N 0.28309 0.00332 0.1193 0.0
N1047 N 0.36093 -0.00783 0.28862 0.0
C1048 C 0.30854 0.00085 0.15964 0.0
C1049 C 0.34676 -0.00466 0.24654 0.0
N1050 N 0.34023 0.97051 0.14485 0.0
N1051 N 0.34372 0.02704 0.25712 0.0
H1052 H 0.37582 0.97976 0.29971 0.0
H1053 H 0.35599 0.00155 0.3127 0.0
H1054 H 0.3343 0.03991 0.247 0.0
H1055 H 0.36712 0.02646 0.28703 0.0
H1056 H 0.33826 0.97213 0.11188 0.0
H1057 H 0.35557 0.95789 0.15391 0.0
H1058 H 0.27391 -0.00689 0.09777 0.0
H1059 H 0.26666 0.01555 0.10804 0.0
C1060 C 0.98264 0.00055 0.9829 0.0
C1061 C 0.94797 0.01064 0.95129 0.0
C1062 C 0.91529 0.98359 0.91328 0.0
C1063 C 0.95416 0.97377 0.9434 0.0
N1064 N 0.03918 0.97307 0.00015 0.0
N1065 N 0.89157 0.01234 0.88258 0.0
C1066 C 0.99243 0.98231 0.97608 0.0
C1067 C 0.91692 0.00233 0.91533 0.0
N1068 N 0.00292 0.00816 0.02053 0.0
N1069 N 0.87699 0.97498 0.88292 0.0
H1070 H 0.89292 0.02609 0.88283 0.0
H1071 H 0.87461 0.00713 0.85364 0.0
H1072 H 0.87664 0.96128 0.87984 0.0
H1073 H 0.84283 0.98127 0.86223 0.0
H1074 H 0.02159 0.00095 0.0464 0.0
H1075 H 0.9945 0.0214 0.02781 0.0
H1076 H 0.07373 0.97905 0.02138 0.0
H1077 H 0.04846 0.95966 -0.00414 0.0
C1078 C 0.39004 0.22283 0.00994 0.0
C1079 C 0.3541 0.20785 -0.00597 0.0
C1080 C 0.35277 0.22063 0.92229 0.0
C1081 C 0.38384 0.23607 0.93897 0.0
N1082 N 0.45932 0.24857 0.9927 0.0
N1083 N 0.32638 0.18968 0.93301 0.0
C1084 C 0.41223 0.236 0.98074 0.0
C1085 C 0.34375 0.20581 0.94936 0.0
N1086 N 0.39848 0.22522 0.05289 0.0
N1087 N 0.33014 0.22043 0.88096 0.0
H1088 H 0.32227 0.17843 0.95206 0.0
H1089 H 0.32337 0.18706 0.90041 0.0
H1090 H 0.34063 0.23079 0.85995 0.0
H1091 H 0.29983 0.21035 0.86804 0.0
H1092 H 0.41727 0.23688 0.06619 0.0
H1093 H 0.38166 0.21616 0.07566 0.0
H1094 H 0.48566 0.24826 0.02176 0.0
H1095 H 0.47829 0.25807 0.97172 0.0
C1096 C 0.03913 0.72533 0.72343 0.0
C1097 C 0.00762 0.71115 0.74571 0.0
C1098 C 0.94538 0.7318 0.79242 0.0
C1099 C 0.97421 0.74592 0.76871 0.0
N1100 N 0.04047 0.75673 0.70869 0.0
N1101 N 0.92654 0.70029 0.7987 0.0
C1102 C 0.01884 0.74285 0.73332 0.0
C1103 C 0.95927 0.71421 0.77938 0.0
N1104 N 0.08885 0.72202 0.69315 0.0
N1105 N 0.90659 0.73527 0.82811 0.0
H1106 H 0.93868 0.68717 0.7922 0.0
H1107 H 0.88495 0.7016 0.81978 0.0
H1108 H 0.89316 0.74804 0.83744 0.0
H1109 H 0.89073 0.7257 0.84985 0.0
H1110 H 0.11968 0.73173 0.67916 0.0
H1111 H 0.10273 0.70932 0.68367 0.0
H1112 H 0.06735 0.75537 0.68003 0.0
H1113 H 0.02709 0.76979 0.71519 0.0
C1114 C 0.73133 0.00057 0.80437 0.0
C1115 C 0.73686 0.98601 0.77642 0.0
C1116 C 0.73764 0.00556 0.71478 0.0
C1117 C 0.73881 0.02031 0.7426 0.0
N1118 N 0.75494 0.03166 0.81422 0.0
N1119 N 0.76459 0.97477 0.70608 0.0
C1120 C 0.74088 0.01781 0.78764 0.0
C1121 C 0.74691 -0.01144 0.73202 0.0
N1122 N 0.71632 -0.00202 0.84653 0.0
N1123 N 0.72248 0.00752 0.67237 0.0
H1124 H 0.76999 0.96186 0.71692 0.0
H1125 H 0.77953 0.97646 0.67434 0.0
H1126 H 0.7091 0.01955 0.65862 0.0
H1127 H 0.71486 -0.00312 0.65183 0.0
H1128 H 0.70475 0.00824 0.86749 0.0
H1129 H 0.71111 0.98543 0.85981 0.0
H1130 H 0.76251 0.03023 0.84698 0.0
H1131 H 0.76648 0.04428 0.80307 0.0
C1132 C 0.74382 0.73482 0.88505 0.0
C1133 C 0.76475 0.74887 0.91173 0.0
C1134 C 0.76429 0.72967 0.97393 0.0
C1135 C 0.74378 0.71541 0.94738 0.0
N1136 N 0.73703 0.70317 0.87611 0.0
N1137 N 0.81812 0.75846 0.97749 0.0
C1138 C 0.74055 0.71757 0.90231 0.0
C1139 C 0.78353 0.7458 0.95474 0.0
N1140 N 0.72591 0.73807 0.84362 0.0
N1141 N 0.76046 0.72832 0.01743 0.0
H1142 H 0.83216 0.77061 0.96452 0.0
H1143 H 0.83866 0.75623 0.0078 0.0
H1144 H 0.74187 0.71717 0.03318 0.0
H1145 H 0.76874 0.73895 0.0379 0.0
H1146 H 0.70265 0.72869 0.82389 0.0
H1147 H 0.73183 0.75049 0.82971 0.0
H1148 H 0.74084 0.704 0.84299 0.0
H1149 H 0.7378 0.69027 0.88757 0.0
C1150 C 0.3146 0.48893 0.76706 0.0
C1151 C 0.27963 0.49938 0.73632 0.0
C1152 C 0.20621 0.47434 0.71597 0.0
C1153 C 0.24425 0.46357 0.74463 0.0
N1154 N 0.33884 0.45965 0.79436 0.0
N1155 N 0.20078 0.50181 0.6767 0.0
C1156 C 0.2999 0.47058 0.76922 0.0
C1157 C 0.22757 0.49205 0.70953 0.0
N1158 N 0.35966 0.49671 0.79522 0.0
N1159 N 0.14951 0.46765 0.69501 0.0
H1160 H 0.2156 0.51482 0.67069 0.0
H1161 H 0.1684 0.49667 0.65312 0.0
H1162 H 0.13433 0.45448 0.6971 0.0
H1163 H 0.11461 0.47534 0.67777 0.0
H1164 H 0.38105 0.49026 0.82142 0.0
H1165 H 0.37215 0.5101 0.79422 0.0
H1166 H 0.38494 0.46348 0.80925 0.0
H1167 H 0.32721 0.44632 0.79852 0.0
C1168 C 0.96186 0.48179 0.38891 0.0
C1169 C 0.93949 0.46911 0.4191 0.0
C1170 C 0.93926 0.49127 0.47564 0.0
C1171 C 0.96139 0.50407 0.44549 0.0
N1172 N 0.97649 0.51278 0.37196 0.0
N1173 N 0.88842 0.46246 0.48759 0.0
C1174 C 0.9675 0.49972 0.40155 0.0
C1175 C 0.92149 0.47414 0.46121 0.0
N1176 N 0.97902 0.47656 0.3485 0.0
N1177 N 0.93973 0.49507 0.51837 0.0
H1178 H 0.87512 0.44972 0.47815 0.0
H1179 H 0.868 0.46593 0.51725 0.0
H1180 H 0.95451 0.5073 0.53065 0.0
H1181 H 0.93179 0.48564 0.54203 0.0
H1182 H 0.00349 0.48472 0.32637 0.0
H1183 H 0.97113 0.46367 0.33774 0.0
H1184 H 0.97447 0.51063 0.33915 0.0
H1185 H 0.9797 0.5261 0.38014 0.0
C1186 C 0.35224 0.7399 0.52657 0.0
C1187 C 0.32205 0.73459 0.5661 0.0
C1188 C 0.28597 0.76493 0.58016 0.0
C1189 C 0.32006 0.77033 0.54209 0.0
N1190 N 0.3974 0.7639 0.48359 0.0
N1191 N 0.27301 0.74238 0.63441 0.0
C1192 C 0.35756 0.75812 0.51697 0.0
C1193 C 0.2928 0.74723 0.59414 0.0
N1194 N 0.37089 0.72759 0.49672 0.0
N1195 N 0.2453 0.77658 0.60222 0.0
H1196 H 0.2783 0.72952 0.64581 0.0
H1197 H 0.25746 0.75133 0.65774 0.0
H1198 H 0.24042 0.78979 0.5936 0.0
H1199 H 0.21248 0.77287 0.62716 0.0
H1200 H 0.38555 0.73081 0.46566 0.0
H1201 H 0.36522 0.71405 0.50118 0.0
H1202 H 0.43163 0.75578 0.46689 0.0
H1203 H 0.40081 0.77716 0.47498 0.0
C1204 C 0.75568 0.49766 0.31315 0.0
C1205 C 0.72833 0.48249 0.29268 0.0
C1206 C 0.68544 0.50039 0.23314 0.0
C1207 C 0.70805 0.51563 0.25516 0.0
N1208 N 0.75964 0.52963 0.31675 0.0
N1209 N 0.66315 0.46899 0.23504 0.0
C1210 C 0.74199 0.51452 0.29535 0.0
C1211 C 0.69195 0.48373 0.25319 0.0
N1212 N 0.79475 0.49588 0.34942 0.0
N1213 N 0.65945 0.50185 0.1926 0.0
H1214 H 0.67064 0.4563 0.24675 0.0
H1215 H 0.62872 0.4693 0.20939 0.0
H1216 H 0.65199 0.51395 0.17745 0.0
H1217 H 0.64959 0.49115 0.17267 0.0
H1218 H 0.8223 0.50614 0.36361 0.0
H1219 H 0.80287 0.48379 0.36443 0.0
H1220 H 0.77832 0.52992 0.34792 0.0
H1221 H 0.75185 0.54221 0.3042 0.0
C1222 C 0.81765 0.23663 0.58123 0.0
C1223 C 0.81468 0.2234 0.5494 0.0
C1224 C 0.84777 0.24459 0.4942 0.0
C1225 C 0.84793 0.25796 0.52567 0.0
N1226 N 0.85095 0.26644 0.60009 0.0
N1227 N 0.84464 0.21328 0.47869 0.0
C1228 C 0.83957 0.25383 0.56962 0.0
C1229 C 0.83565 0.22691 0.50679 0.0
N1230 N 0.79512 0.23303 0.62176 0.0
N1231 N 0.85677 0.24896 0.45222 0.0
H1232 H 0.8361 0.20013 0.48704 0.0
H1233 H 0.86608 0.21476 0.44838 0.0
H1234 H 0.87002 0.26169 0.44248 0.0
H1235 H 0.8486 0.24023 0.42702 0.0
H1236 H 0.78752 0.24262 0.64508 0.0
H1237 H 0.77947 0.22049 0.63151 0.0
H1238 H 0.85239 0.26379 0.63266 0.0
H1239 H 0.86449 0.27941 0.59293 0.0
C1240 C 0.50676 0.22014 0.85714 0.0
C1241 C 0.50038 0.23222 0.82274 0.0
C1242 C 0.45908 0.20865 0.77552 0.0
C1243 C 0.46193 0.19679 0.81043 0.0
N1244 N 0.48138 0.19087 0.88494 0.0
N1245 N 0.46592 0.23875 0.75024 0.0
C1246 C 0.48414 0.20241 0.85141 0.0
C1247 C 0.47484 0.22671 0.78229 0.0
N1248 N 0.5341 0.22567 0.8952 0.0
N1249 N 0.44476 0.20243 0.73539 0.0
H1250 H 0.48294 0.25179 0.75218 0.0
H1251 H 0.43858 0.23614 0.72224 0.0
H1252 H 0.43194 0.18932 0.72905 0.0
H1253 H 0.45028 0.20987 0.70768 0.0
H1254 H 0.54689 0.2173 0.92023 0.0
H1255 H 0.5467 0.2388 0.90153 0.0
H1256 H 0.49057 0.19436 0.91657 0.0
H1257 H 0.46507 0.17781 0.8816 0.0
C1258 C 0.44708 0.00509 0.47284 0.0
C1259 C 0.4502 0.01838 0.44116 0.0
C1260 C 0.49801 -0.00251 0.38931 0.0
C1261 C 0.49557 0.98424 0.42115 0.0
N1262 N 0.45533 0.97407 0.49008 0.0
N1263 N 0.46418 0.02703 0.3677 0.0
C1264 C 0.46555 0.98759 0.46182 0.0
C1265 C 0.47114 0.01449 0.39877 0.0
N1266 N 0.4306 0.00943 0.51406 0.0
N1267 N 0.52713 -0.00618 0.35044 0.0
H1268 H 0.44372 0.03951 0.37382 0.0
H1269 H 0.47346 0.02477 0.33544 0.0
H1270 H 0.54375 0.98121 0.34189 0.0
H1271 H 0.53748 0.00328 0.32725 0.0
H1272 H 0.43635 0.00088 0.5398 0.0
H1273 H 0.4153 0.02205 0.5233 0.0
H1274 H 0.4265 0.9753 0.51808 0.0
H1275 H 0.4713 0.96116 0.4844 0.0
C1276 C 0.51745 0.74945 0.28878 0.0
C1277 C 0.52574 0.76217 0.2561 0.0
C1278 C 0.47692 0.74168 0.20314 0.0
C1279 C 0.46643 0.72922 0.23612 0.0
N1280 N 0.46552 0.72178 0.31102 0.0
N1281 N 0.50708 0.77158 0.18316 0.0
C1282 C 0.48358 0.73326 0.27919 0.0
C1283 C 0.50313 0.75868 0.2136 0.0
N1284 N 0.54271 0.7528 0.32883 0.0
N1285 N 0.46529 0.73692 0.16159 0.0
H1286 H 0.53096 0.78376 0.18819 0.0
H1287 H 0.48356 0.77066 0.15332 0.0
H1288 H 0.4449 0.72468 0.15286 0.0
H1289 H 0.47994 0.74453 0.13545 0.0
H1290 H 0.54599 0.74334 0.35279 0.0
H1291 H 0.56435 0.7649 0.33762 0.0
H1292 H 0.46917 0.7247 0.34342 0.0
H1293 H 0.44167 0.70965 0.30519 0.0
C1294 C 0.4573 0.4756 0.98436 0.0
C1295 C 0.46715 0.46274 0.01653 0.0
C1296 C 0.44242 0.4846 0.07219 0.0
C1297 C 0.43857 0.49774 0.04028 0.0
N1298 N 0.44971 0.50666 0.9666 0.0
N1299 N 0.47939 0.45515 0.09114 0.0
C1300 C 0.44782 0.4935 -0.00355 0.0
C1301 C 0.46218 0.46725 0.06052 0.0
N1302 N 0.45503 0.4706 0.94242 0.0
N1303 N 0.42574 0.48867 0.1135 0.0
H1304 H 0.4937 0.44222 0.08417 0.0
H1305 H 0.48502 0.45827 0.12332 0.0
H1306 H 0.41205 0.50137 0.1232 0.0
H1307 H 0.41997 0.47928 0.13746 0.0
H1308 H 0.44067 0.479 0.91767 0.0
H1309 H 0.46226 0.45759 0.93257 0.0
H1310 H 0.46425 0.5047 0.93492 0.0
H1311 H 0.44127 0.51989 0.97406 0.0
C1312 C 0.25198 0.32095 0.09413 0.0
C1313 C 0.25952 0.30562 0.1197 0.0
C1314 C 0.3284 0.29172 0.06338 0.0
C1315 C 0.30886 0.3054 0.0354 0.0
N1316 N 0.25369 0.33331 0.0226 0.0
N1317 N 0.29828 0.27534 0.12671 0.0
C1318 C 0.2719 0.32026 0.05046 0.0
C1319 C 0.29717 0.2908 0.10423 0.0
N1320 N 0.22686 0.33614 0.11181 0.0
N1321 N 0.37564 0.27941 0.0503 0.0
H1322 H 0.27315 0.27358 0.15589 0.0
H1323 H 0.31849 0.26365 0.11448 0.0
H1324 H 0.39899 0.2799 0.02022 0.0
H1325 H 0.39692 0.27 0.07065 0.0
H1326 H 0.22566 0.34815 0.09576 0.0
H1327 H 0.213 0.33709 0.14394 0.0
H1328 H 0.21963 0.34349 0.03026 0.0
H1329 H 0.2708 0.33345 0.99093 0.0
C1330 C 0.10481 0.92786 0.08659 0.0
C1331 C 0.09402 0.91136 0.06668 0.0
C1332 C 0.16947 0.89714 0.11951 0.0
C1333 C 0.18489 0.914 0.13685 0.0
N1334 N 0.18162 0.94569 0.12977 0.0
N1335 N 0.12167 0.88052 0.05989 0.0
C1336 C 0.15686 0.92946 0.11818 0.0
C1337 C 0.12819 0.89602 0.08179 0.0
N1338 N 0.06391 0.94193 0.07612 0.0
N1339 N 0.19159 0.88227 0.13996 0.0
H1340 H 0.08949 0.87917 0.03323 0.0
H1341 H 0.15114 0.86934 0.06659 0.0
H1342 H 0.22231 0.88265 0.1674 0.0
H1343 H 0.17572 0.86961 0.13145 0.0
H1344 H 0.0653 0.95389 0.0925 0.0
H1345 H 0.02333 0.94103 0.0541 0.0
H1346 H 0.16788 0.95729 0.11414 0.0
H1347 H 0.22163 0.94739 0.15196 0.0
C1348 C 0.90429 0.62539 0.84652 0.0
C1349 C 0.95073 0.63928 0.83596 0.0
C1350 C 0.90491 0.65731 0.89357 0.0
C1351 C 0.86068 0.64317 0.90595 0.0
N1352 N 0.82593 0.61275 0.89935 0.0
N1353 N 0.00902 0.66626 0.85629 0.0
C1354 C 0.86279 0.62682 0.88405 0.0
C1355 C 0.95624 0.65437 0.86222 0.0
N1356 N 0.89868 0.61117 0.81997 0.0
N1357 N 0.8942 0.67399 0.90899 0.0
H1358 H 0.04716 0.66486 0.83288 0.0
H1359 H 0.01882 0.67662 0.87737 0.0
H1360 H 0.854 0.67723 0.92991 0.0
H1361 H 0.91999 0.68506 0.89718 0.0
H1362 H 0.86037 0.60152 0.82308 0.0
H1363 H 0.93125 0.60948 0.79357 0.0
H1364 H 0.83008 0.60006 0.88694 0.0
H1365 H 0.79493 0.61354 0.92667 0.0
C1366 C 0.87488 0.11196 0.79847 0.0
C1367 C 0.8916 0.0993 0.76701 0.0
C1368 C 0.97102 0.08456 0.81577 0.0
C1369 C 0.94088 0.09439 0.84956 0.0
N1370 N 0.88017 0.12022 0.87361 0.0
N1371 N 0.98398 0.08114 0.73914 0.0
C1372 C 0.89919 0.10935 0.84084 0.0
C1373 C 0.94972 0.08816 0.77334 0.0
N1374 N 0.83396 0.12591 0.78738 0.0
N1375 N 0.01512 0.07092 0.82446 0.0
H1376 H 0.97188 0.08459 0.70781 0.0
H1377 H 0.0296 0.07383 0.74181 0.0
H1378 H 0.03345 0.06825 0.8551 0.0
H1379 H 0.03128 0.06181 0.80164 0.0
H1380 H 0.81922 0.13595 0.80811 0.0
H1381 H 0.81805 0.12776 0.75581 0.0
H1382 H 0.84644 0.13084 0.87049 0.0
H1383 H 0.8997 0.11858 0.90448 0.0
C1384 C 0.07161 0.84038 0.67434 0.0
C1385 C 0.08922 0.8252 0.6986 0.0
C1386 C 0.19534 0.82176 0.65624 0.0
C1387 C 0.17016 0.83439 0.62688 0.0
N1388 N 0.08401 0.85582 0.60687 0.0
N1389 N 0.16171 0.79919 0.70609 0.0
C1390 C 0.10829 0.84384 0.63575 0.0
C1391 C 0.15004 0.81539 0.68833 0.0
N1392 N 0.0213 0.85164 0.68865 0.0
N1393 N 0.26156 0.81535 0.65275 0.0
H1394 H 0.12694 0.79293 0.72667 0.0
H1395 H 0.20196 0.79092 0.69634 0.0
H1396 H 0.29628 0.81939 0.62913 0.0
H1397 H 0.28412 0.80732 0.67591 0.0
H1398 H 0.01039 0.86366 0.67409 0.0
H1399 H 0.99524 0.8498 0.71756 0.0
H1400 H 0.03502 0.86163 0.60906 0.0
H1401 H 0.11207 0.85929 0.57957 0.0
C1402 C 0.04854 0.38619 0.6092 0.0
C1403 C 0.05152 0.40219 0.63272 0.0
C1404 C 0.98122 0.41673 0.57799 0.0
C1405 C 0.99169 0.40208 0.55108 0.0
N1406 N 0.03079 0.37235 0.54006 0.0
N1407 N 0.02309 0.43323 0.63872 0.0
C1408 C 0.02293 0.3865 0.56666 0.0
C1409 C 0.01708 0.41754 0.61746 0.0
N1410 N 0.06932 0.37078 0.6278 0.0
N1411 N 0.93805 0.42998 0.56508 0.0
H1412 H 0.05024 0.4347 0.66724 0.0
H1413 H 0.00589 0.44518 0.62634 0.0
H1414 H 0.91115 0.42937 0.53617 0.0
H1415 H 0.9234 0.44046 0.5846 0.0
H1416 H 0.06314 0.35847 0.6136 0.0
H1417 H 0.08699 0.37015 0.65928 0.0
H1418 H 0.06062 0.36133 0.54755 0.0
H1419 H 0.00913 0.37201 0.5095 0.0
C1420 C 0.8823 0.13037 0.4009 0.0
C1421 C 0.9366 0.1415 0.38631 0.0
C1422 C 0.93327 0.15845 0.45251 0.0
C1423 C 0.87664 0.14781 0.46649 0.0
N1424 N 0.81067 0.12088 0.46061 0.0
N1425 N 0.02765 0.16241 0.4019 0.0
C1426 C 0.85564 0.13279 0.44279 0.0
C1427 C 0.96724 0.15416 0.41369 0.0
N1428 N 0.85466 0.11802 0.37398 0.0
N1429 N 0.95097 0.17345 0.47429 0.0
H1430 H 0.05292 0.15977 0.37313 0.0
H1431 H 0.05617 0.17054 0.42223 0.0
H1432 H 0.92766 0.1773 0.50284 0.0
H1433 H 0.98542 0.18289 0.4625 0.0
H1434 H 0.80956 0.11088 0.38064 0.0
H1435 H 0.87591 0.11541 0.34395 0.0
H1436 H 0.79751 0.10892 0.44643 0.0
H1437 H 0.79132 0.1223 0.49158 0.0
C1438 C 0.87452 0.59791 0.37208 0.0
C1439 C 0.93033 0.58574 0.37474 0.0
C1440 C 0.89797 0.57295 0.30676 0.0
C1441 C 0.84274 0.58534 0.30276 0.0
N1442 N 0.78965 0.61241 0.32662 0.0
N1443 N 0.01224 0.56773 0.33548 0.0
C1444 C 0.83459 0.59881 0.33383 0.0
C1445 C 0.94843 0.57553 0.33873 0.0
N1446 N 0.85898 0.60821 0.40652 0.0
N1447 N 0.89921 0.55776 0.28314 0.0
H1448 H 0.0525 0.57005 0.35702 0.0
H1449 H 0.02805 0.56099 0.30811 0.0
H1450 H 0.85936 0.55388 0.26265 0.0
H1451 H 0.93544 0.54777 0.28843 0.0
H1452 H 0.81416 0.61588 0.40864 0.0
H1453 H 0.89054 0.60852 0.43368 0.0
H1454 H 0.78559 0.62332 0.34669 0.0
H1455 H 0.76101 0.61354 0.29846 0.0
C1456 C 0.65991 0.32408 0.64963 0.0
C1457 C 0.67672 0.30976 0.62246 0.0
C1458 C 0.62258 0.28906 0.67232 0.0
C1459 C 0.61387 0.30301 0.70179 0.0
N1460 N 0.62856 0.33358 0.72106 0.0
N1461 N 0.68392 0.2783 0.61024 0.0
C1462 C 0.63308 0.32053 0.69107 0.0
C1463 C 0.66026 0.29215 0.63422 0.0
N1464 N 0.66821 0.341 0.63546 0.0
N1465 N 0.59409 0.27289 0.6807 0.0
H1466 H 0.713 0.27987 0.58237 0.0
H1467 H 0.68037 0.26521 0.61996 0.0
H1468 H 0.56588 0.27025 0.70846 0.0
H1469 H 0.59254 0.26265 0.65852 0.0
H1470 H 0.65033 0.35199 0.65205 0.0
H1471 H 0.68824 0.344 0.60532 0.0
H1472 H 0.64931 0.34616 0.7169 0.0
H1473 H 0.60768 0.33152 0.75138 0.0
C1474 C 0.67011 0.91524 0.5772 0.0
C1475 C 0.64183 0.93065 0.55854 0.0
C1476 C 0.63725 0.9451 0.62814 0.0
C1477 C 0.66044 0.9292 0.6474 0.0
N1478 N 0.68732 0.89821 0.64171 0.0
N1479 N 0.5882 0.95921 0.56571 0.0
C1480 C 0.67396 0.914 0.62235 0.0
C1481 C 0.62246 0.9453 0.58387 0.0
N1482 N 0.69512 0.90203 0.55174 0.0
N1483 N 0.63186 0.96021 0.65182 0.0
H1484 H 0.57754 0.95996 0.53313 0.0
H1485 H 0.56526 0.96931 0.58326 0.0
H1486 H 0.64175 0.96075 0.68449 0.0
H1487 H 0.62314 0.97259 0.63857 0.0
H1488 H 0.72355 0.89138 0.56332 0.0
H1489 H 0.69213 0.90237 0.5185 0.0
H1490 H 0.69015 0.88629 0.6253 0.0
H1491 H 0.68953 0.89672 0.67477 0.0
C1492 C 0.31529 0.65372 0.41869 0.0
C1493 C 0.29724 0.66967 0.4394 0.0
C1494 C 0.30272 0.68573 0.3722 0.0
C1495 C 0.31952 0.66969 0.35104 0.0
N1496 N 0.32508 0.63793 0.35163 0.0
N1497 N 0.25725 0.69973 0.43585 0.0
C1498 C 0.32066 0.65349 0.37354 0.0
C1499 C 0.28497 0.68528 0.41601 0.0
N1500 N 0.32913 0.63899 0.44229 0.0
N1501 N 0.30852 0.70154 0.35146 0.0
H1502 H 0.24528 0.70001 0.46834 0.0
H1503 H 0.24033 0.71087 0.41949 0.0
H1504 H 0.32231 0.70276 0.31945 0.0
H1505 H 0.30563 0.71368 0.36691 0.0
H1506 H 0.35044 0.62753 0.42949 0.0
H1507 H 0.32284 0.63857 0.47536 0.0
H1508 H 0.31975 0.62562 0.36594 0.0
H1509 H 0.3276 0.63734 0.31837 0.0
C1510 C 0.36296 0.10742 0.33164 0.0
C1511 C 0.40811 0.09459 0.34909 0.0
C1512 C 0.42104 0.0805 0.27939 0.0
C1513 C 0.371 0.09242 0.26279 0.0
N1514 N 0.31457 0.1205 0.26736 0.0
N1515 N 0.49827 0.07291 0.33757 0.0
C1516 C 0.34902 0.10708 0.28714 0.0
C1517 C 0.44401 0.08264 0.32209 0.0
N1518 N 0.33148 0.11935 0.35795 0.0
N1519 N 0.44192 0.06623 0.25596 0.0
H1520 H 0.51539 0.07364 0.36906 0.0
H1521 H 0.53064 0.06531 0.31827 0.0
H1522 H 0.4285 0.06427 0.22412 0.0
H1523 H 0.46958 0.05569 0.26876 0.0
H1524 H 0.29203 0.12781 0.34806 0.0
H1525 H 0.34368 0.1203 0.39036 0.0
H1526 H 0.30069 0.1322 0.28249 0.0
H1527 H 0.3062 0.12044 0.23441 0.0
C1528 C 0.73297 0.82571 0.06591 0.0
C1529 C 0.72079 0.8094 0.04492 0.0
C1530 C 0.69391 0.79513 0.11293 0.0
C1531 C 0.70666 0.81137 0.13395 0.0
N1532 N 0.75231 0.84095 0.1331 0.0
N1533 N 0.70656 0.77782 0.04853 0.0
C1534 C 0.73079 0.82631 0.11122 0.0
C1535 C 0.70664 0.79385 0.06854 0.0
N1536 N 0.74272 0.84074 0.04261 0.0
N1537 N 0.66634 0.78118 0.13495 0.0
H1538 H 0.71546 0.77637 0.01589 0.0
H1539 H 0.70389 0.76585 0.0647 0.0
H1540 H 0.65774 0.78135 0.16783 0.0
H1541 H 0.64728 0.76982 0.12031 0.0
H1542 H 0.74377 0.85333 0.05589 0.0
H1543 H 0.74525 0.84082 0.00941 0.0
H1544 H 0.77699 0.85165 0.11876 0.0
H1545 H 0.75085 0.84175 0.16637 0.0
C1546 C 0.66875 0.42321 0.13645 0.0
C1547 C 0.64174 0.40674 0.12242 0.0
C1548 C 0.67253 0.39341 0.19098 0.0
C1549 C 0.70309 0.40961 0.20351 0.0
N1550 N 0.74716 0.43834 0.18444 0.0
N1551 N 0.63119 0.37527 0.1324 0.0
C1552 C 0.70724 0.42393 0.1748 0.0
C1553 C 0.64744 0.39152 0.14853 0.0
N1554 N 0.65355 0.43842 0.11493 0.0
N1555 N 0.66635 0.38002 0.2199 0.0
H1556 H 0.61418 0.37336 0.1011 0.0
H1557 H 0.64047 0.36356 0.14871 0.0
H1558 H 0.68765 0.38075 0.2505 0.0
H1559 H 0.63729 0.36863 0.21427 0.0
H1560 H 0.66562 0.45091 0.12665 0.0
H1561 H 0.62213 0.43882 0.08782 0.0
H1562 H 0.75718 0.44843 0.1627 0.0
H1563 H 0.77561 0.43943 0.21267 0.0
C1564 C 0.33102 0.10941 0.92044 0.0
C1565 C 0.39492 0.11491 0.90242 0.0
C1566 C 0.42796 0.12967 0.96779 0.0
C1567 C 0.36078 0.1259 0.98505 0.0
N1568 N 0.26074 0.10663 0.9846 0.0
N1569 N 0.51611 0.11977 0.91815 0.0
C1570 C 0.31666 0.11367 0.96373 0.0
C1571 C 0.44784 0.12122 0.92954 0.0
N1572 N 0.28325 0.10106 0.89529 0.0
N1573 N 0.47053 0.14232 0.98483 0.0
H1574 H 0.53149 0.11265 0.89125 0.0
H1575 H 0.55669 0.12344 0.93848 0.0
H1576 H 0.45876 0.14979 0.01166 0.0
H1577 H 0.51622 0.14641 0.96973 0.0
H1578 H 0.23234 0.0984 0.90485 0.0
H1579 H 0.29525 0.09727 0.86405 0.0
H1580 H 0.22889 0.09687 0.97164 0.0
H1581 H 0.25057 0.10951 0.01657 0.0
C1582 C 0.48281 0.56173 0.90403 0.0
C1583 C 0.43667 0.57139 0.93053 0.0
C1584 C 0.39004 0.58682 0.86838 0.0
C1585 C 0.42621 0.57467 0.8422 0.0
N1586 N 0.5364 0.55978 0.8343 0.0
N1587 N 0.36076 0.59627 0.94058 0.0
C1588 C 0.48243 0.56504 0.85962 0.0
C1589 C 0.39539 0.58518 0.91347 0.0
N1590 N 0.52337 0.54862 0.92057 0.0
N1591 N 0.35208 0.5999 0.8496 0.0
H1592 H 0.36701 0.5957 0.97367 0.0
H1593 H 0.32736 0.60626 0.93088 0.0
H1594 H 0.35384 0.60204 0.81668 0.0
H1595 H 0.32254 0.60916 0.86601 0.0
H1596 H 0.55108 0.5398 0.90156 0.0
H1597 H 0.52588 0.54577 0.95306 0.0
H1598 H 0.58082 0.55364 0.8462 0.0
H1599 H 0.54157 0.56401 0.80279 0.0
loop_
_geom_bond_atom_site_label_1
_geom_bond_atom_site_label_2
_geom_bond_distance
_geom_bond_site_symmetry_2
_ccdc_geom_bond_type
C0 O1 1.306 1_455 S
C0 O3 1.160 . S
O1 C0 1.306 1_655 S
O1 Cd2 2.228 . S
Cd2 O1 2.228 . S
Cd2 O6 2.273 1_655 S
Cd2 O10 2.277 1_655 S
O3 C0 1.160 . S
O3 Cd4 2.203 . S
Cd4 O3 2.203 . S
Cd4 O6 2.411 . S
Cd4 O7 2.333 . S
Cd4 O8 2.352 . S
Cd4 O12 2.277 . S
Cd4 O13 2.356 . S
C5 O10 1.209 . S
C5 O12 1.226 . S
O6 Cd2 2.273 1_455 S
O6 Cd4 2.411 . S
O6 C9 1.320 . S
O7 Cd4 2.333 . S
O7 C9 1.214 . S
O8 Cd4 2.352 . S
O8 C11 1.258 . S
C9 O6 1.320 . S
C9 O7 1.214 . S
O10 Cd2 2.277 1_455 S
O10 C5 1.209 . S
C11 O8 1.258 . S
C11 O13 1.282 . S
O12 Cd4 2.277 . S
O12 C5 1.226 . S
O13 Cd4 2.356 . S
O13 C11 1.282 . S
C14 O15 1.306 . S
C14 O17 1.160 . S
O15 C14 1.306 . S
O15 Cd16 2.228 . S
Cd16 O15 2.228 . S
Cd16 O20 2.273 . S
Cd16 O24 2.277 . S
O17 C14 1.160 . S
O17 Cd18 2.203 . S
Cd18 O17 2.203 . S
Cd18 O20 2.411 . S
Cd18 O21 2.333 . S
Cd18 O22 2.352 . S
Cd18 O26 2.277 . S
Cd18 O27 2.356 1_455 S
C19 O24 1.209 . S
C19 O26 1.226 . S
O20 Cd16 2.273 . S
O20 Cd18 2.411 . S
O20 C23 1.320 . S
O21 Cd18 2.333 . S
O21 C23 1.214 . S
O22 Cd18 2.352 . S
O22 C25 1.258 . S
C23 O20 1.320 . S
C23 O21 1.214 . S
O24 Cd16 2.277 . S
O24 C19 1.209 . S
C25 O22 1.258 . S
C25 O27 1.282 1_455 S
O26 Cd18 2.277 . S
O26 C19 1.226 . S
O27 Cd18 2.356 1_655 S
O27 C25 1.282 1_655 S
C28 O29 1.306 1_455 S
C28 O31 1.160 . S
O29 C28 1.306 1_655 S
O29 Cd30 2.228 . S
Cd30 O29 2.228 . S
Cd30 O34 2.273 1_655 S
Cd30 O38 2.277 1_656 S
O31 C28 1.160 . S
O31 Cd32 2.203 . S
Cd32 O31 2.203 . S
Cd32 O34 2.411 . S
Cd32 O35 2.333 . S
Cd32 O36 2.352 . S
Cd32 O40 2.277 1_556 S
Cd32 O41 2.356 . S
C33 O38 1.209 . S
C33 O40 1.226 . S
O34 Cd30 2.273 1_455 S
O34 Cd32 2.411 . S
O34 C37 1.320 . S
O35 Cd32 2.333 . S
O35 C37 1.214 . S
O36 Cd32 2.352 . S
O36 C39 1.258 . S
C37 O34 1.320 . S
C37 O35 1.214 . S
O38 Cd30 2.277 1_454 S
O38 C33 1.209 . S
C39 O36 1.258 . S
C39 O41 1.282 . S
O40 Cd32 2.277 1_554 S
O40 C33 1.226 . S
O41 Cd32 2.356 . S
O41 C39 1.282 . S
C42 O43 1.306 . S
C42 O45 1.160 . S
O43 C42 1.306 . S
O43 Cd44 2.228 . S
Cd44 O43 2.228 . S
Cd44 O48 2.273 . S
Cd44 O52 2.277 1_556 S
O45 C42 1.160 . S
O45 Cd46 2.203 . S
Cd46 O45 2.203 . S
Cd46 O48 2.411 . S
Cd46 O49 2.333 . S
Cd46 O50 2.352 . S
Cd46 O54 2.277 1_556 S
Cd46 O55 2.356 1_455 S
C47 O52 1.209 . S
C47 O54 1.226 . S
O48 Cd44 2.273 . S
O48 Cd46 2.411 . S
O48 C51 1.320 . S
O49 Cd46 2.333 . S
O49 C51 1.214 . S
O50 Cd46 2.352 . S
O50 C53 1.258 . S
C51 O48 1.320 . S
C51 O49 1.214 . S
O52 Cd44 2.277 1_554 S
O52 C47 1.209 . S
C53 O50 1.258 . S
C53 O55 1.282 1_455 S
O54 Cd46 2.277 1_554 S
O54 C47 1.226 . S
O55 Cd46 2.356 1_655 S
O55 C53 1.282 1_655 S
C56 O57 1.306 1_655 S
C56 O59 1.160 . S
O57 C56 1.306 1_455 S
O57 Cd58 2.228 . S
Cd58 O57 2.228 . S
Cd58 O62 2.273 1_455 S
Cd58 O66 2.277 1_455 S
O59 C56 1.160 . S
O59 Cd60 2.203 . S
Cd60 O59 2.203 . S
Cd60 O62 2.411 . S
Cd60 O63 2.333 . S
Cd60 O64 2.352 . S
Cd60 O68 2.277 . S
Cd60 O69 2.356 . S
C61 O66 1.209 . S
C61 O68 1.226 . S
O62 Cd58 2.273 1_655 S
O62 Cd60 2.411 . S
O62 C65 1.320 . S
O63 Cd60 2.333 . S
O63 C65 1.214 . S
O64 Cd60 2.352 . S
O64 C67 1.258 . S
C65 O62 1.320 . S
C65 O63 1.214 . S
O66 Cd58 2.277 1_655 S
O66 C61 1.209 . S
C67 O64 1.258 . S
C67 O69 1.282 . S
O68 Cd60 2.277 . S
O68 C61 1.226 . S
O69 Cd60 2.356 . S
O69 C67 1.282 . S
C70 O71 1.306 . S
C70 O73 1.160 . S
O71 C70 1.306 . S
O71 Cd72 2.228 . S
Cd72 O71 2.228 . S
Cd72 O76 2.273 . S
Cd72 O80 2.277 . S
O73 C70 1.160 . S
O73 Cd74 2.203 . S
Cd74 O73 2.203 . S
Cd74 O76 2.411 . S
Cd74 O77 2.333 . S
Cd74 O78 2.352 . S
Cd74 O82 2.277 . S
Cd74 O83 2.356 1_655 S
C75 O80 1.209 . S
C75 O82 1.226 . S
O76 Cd72 2.273 . S
O76 Cd74 2.411 . S
O76 C79 1.320 . S
O77 Cd74 2.333 . S
O77 C79 1.214 . S
O78 Cd74 2.352 . S
O78 C81 1.258 . S
C79 O76 1.320 . S
C79 O77 1.214 . S
O80 Cd72 2.277 . S
O80 C75 1.209 . S
C81 O78 1.258 . S
C81 O83 1.282 1_655 S
O82 Cd74 2.277 . S
O82 C75 1.226 . S
O83 Cd74 2.356 1_455 S
O83 C81 1.282 1_455 S
C84 O85 1.306 1_655 S
C84 O87 1.160 . S
O85 C84 1.306 1_455 S
O85 Cd86 2.228 . S
Cd86 O85 2.228 . S
Cd86 O90 2.273 1_455 S
Cd86 O94 2.277 1_454 S
O87 C84 1.160 . S
O87 Cd88 2.203 . S
Cd88 O87 2.203 . S
Cd88 O90 2.411 . S
Cd88 O91 2.333 . S
Cd88 O92 2.352 . S
Cd88 O96 2.277 1_554 S
Cd88 O97 2.356 . S
C89 O94 1.209 . S
C89 O96 1.226 . S
O90 Cd86 2.273 1_655 S
O90 Cd88 2.411 . S
O90 C93 1.320 . S
O91 Cd88 2.333 . S
O91 C93 1.214 . S
O92 Cd88 2.352 . S
O92 C95 1.258 . S
C93 O90 1.320 . S
C93 O91 1.214 . S
O94 Cd86 2.277 1_656 S
O94 C89 1.209 . S
C95 O92 1.258 . S
C95 O97 1.282 . S
O96 Cd88 2.277 1_556 S
O96 C89 1.226 . S
O97 Cd88 2.356 . S
O97 C95 1.282 . S
C98 O99 1.306 . S
C98 O101 1.160 . S
O99 C98 1.306 . S
O99 Cd100 2.228 . S
Cd100 O99 2.228 . S
Cd100 O104 2.273 . S
Cd100 O108 2.277 1_554 S
O101 C98 1.160 . S
O101 Cd102 2.203 . S
Cd102 O101 2.203 . S
Cd102 O104 2.411 . S
Cd102 O105 2.333 . S
Cd102 O106 2.352 . S
Cd102 O110 2.277 1_554 S
Cd102 O111 2.356 1_655 S
C103 O108 1.209 . S
C103 O110 1.226 . S
O104 Cd100 2.273 . S
O104 Cd102 2.411 . S
O104 C107 1.320 . S
O105 Cd102 2.333 . S
O105 C107 1.214 . S
O106 Cd102 2.352 . S
O106 C109 1.258 . S
C107 O104 1.320 . S
C107 O105 1.214 . S
O108 Cd100 2.277 1_556 S
O108 C103 1.209 . S
C109 O106 1.258 . S
C109 O111 1.282 1_655 S
O110 Cd102 2.277 1_556 S
O110 C103 1.226 . S
O111 Cd102 2.356 1_455 S
O111 C109 1.282 1_455 S
C112 O113 1.306 1_455 S
C112 O115 1.160 . S
O113 C112 1.306 1_655 S
O113 Cd114 2.228 . S
Cd114 O113 2.228 . S
Cd114 O118 2.273 1_655 S
Cd114 O122 2.277 1_655 S
O115 C112 1.160 . S
O115 Cd116 2.203 . S
Cd116 O115 2.203 . S
Cd116 O118 2.411 . S
Cd116 O119 2.333 . S
Cd116 O120 2.352 . S
Cd116 O124 2.277 . S
Cd116 O125 2.356 . S
C117 O122 1.209 . S
C117 O124 1.226 . S
O118 Cd114 2.273 1_455 S
O118 Cd116 2.411 . S
O118 C121 1.320 . S
O119 Cd116 2.333 . S
O119 C121 1.214 . S
O120 Cd116 2.352 . S
O120 C123 1.258 . S
C121 O118 1.320 . S
C121 O119 1.214 . S
O122 Cd114 2.277 1_455 S
O122 C117 1.209 . S
C123 O120 1.258 . S
C123 O125 1.282 . S
O124 Cd116 2.277 . S
O124 C117 1.226 . S
O125 Cd116 2.356 . S
O125 C123 1.282 . S
C126 O127 1.306 . S
C126 O129 1.160 . S
O127 C126 1.306 . S
O127 Cd128 2.228 . S
Cd128 O127 2.228 . S
Cd128 O132 2.273 . S
Cd128 O136 2.277 . S
O129 C126 1.160 . S
O129 Cd130 2.203 . S
Cd130 O129 2.203 . S
Cd130 O132 2.411 . S
Cd130 O133 2.333 . S
Cd130 O134 2.352 . S
Cd130 O138 2.277 . S
Cd130 O139 2.356 1_455 S
C131 O136 1.209 . S
C131 O138 1.226 . S
O132 Cd128 2.273 . S
O132 Cd130 2.411 . S
O132 C135 1.320 . S
O133 Cd130 2.333 . S
O133 C135 1.214 . S
O134 Cd130 2.352 . S
O134 C137 1.258 . S
C135 O132 1.320 . S
C135 O133 1.214 . S
O136 Cd128 2.277 . S
O136 C131 1.209 . S
C137 O134 1.258 . S
C137 O139 1.282 1_455 S
O138 Cd130 2.277 . S
O138 C131 1.226 . S
O139 Cd130 2.356 1_655 S
O139 C137 1.282 1_655 S
C140 O141 1.306 1_455 S
C140 O143 1.160 . S
O141 C140 1.306 1_655 S
O141 Cd142 2.228 . S
Cd142 O141 2.228 . S
Cd142 O146 2.273 1_655 S
Cd142 O150 2.277 1_655 S
O143 C140 1.160 . S
O143 Cd144 2.203 . S
Cd144 O143 2.203 . S
Cd144 O146 2.411 . S
Cd144 O147 2.333 . S
Cd144 O148 2.352 . S
Cd144 O152 2.277 . S
Cd144 O153 2.356 . S
C145 O150 1.209 . S
C145 O152 1.226 . S
O146 Cd142 2.273 1_455 S
O146 Cd144 2.411 . S
O146 C149 1.320 . S
O147 Cd144 2.333 . S
O147 C149 1.214 . S
O148 Cd144 2.352 . S
O148 C151 1.258 . S
C149 O146 1.320 . S
C149 O147 1.214 . S
O150 Cd142 2.277 1_455 S
O150 C145 1.209 . S
C151 O148 1.258 . S
C151 O153 1.282 . S
O152 Cd144 2.277 . S
O152 C145 1.226 . S
O153 Cd144 2.356 . S
O153 C151 1.282 . S
C154 O155 1.306 . S
C154 O157 1.160 . S
O155 C154 1.306 . S
O155 Cd156 2.228 . S
Cd156 O155 2.228 . S
Cd156 O160 2.273 . S
Cd156 O164 2.277 . S
O157 C154 1.160 . S
O157 Cd158 2.203 . S
Cd158 O157 2.203 . S
Cd158 O160 2.411 . S
Cd158 O161 2.333 . S
Cd158 O162 2.352 . S
Cd158 O166 2.277 . S
Cd158 O167 2.356 1_455 S
C159 O164 1.209 . S
C159 O166 1.226 . S
O160 Cd156 2.273 . S
O160 Cd158 2.411 . S
O160 C163 1.320 . S
O161 Cd158 2.333 . S
O161 C163 1.214 . S
O162 Cd158 2.352 . S
O162 C165 1.258 . S
C163 O160 1.320 . S
C163 O161 1.214 . S
O164 Cd156 2.277 . S
O164 C159 1.209 . S
C165 O162 1.258 . S
C165 O167 1.282 1_455 S
O166 Cd158 2.277 . S
O166 C159 1.226 . S
O167 Cd158 2.356 1_655 S
O167 C165 1.282 1_655 S
C168 O169 1.306 1_655 S
C168 O171 1.160 . S
O169 C168 1.306 1_455 S
O169 Cd170 2.228 . S
Cd170 O169 2.228 . S
Cd170 O174 2.273 1_455 S
Cd170 O178 2.277 1_455 S
O171 C168 1.160 . S
O171 Cd172 2.203 . S
Cd172 O171 2.203 . S
Cd172 O174 2.411 . S
Cd172 O175 2.333 . S
Cd172 O176 2.352 . S
Cd172 O180 2.277 . S
Cd172 O181 2.356 . S
C173 O178 1.209 . S
C173 O180 1.226 . S
O174 Cd170 2.273 1_655 S
O174 Cd172 2.411 . S
O174 C177 1.320 . S
O175 Cd172 2.333 . S
O175 C177 1.214 . S
O176 Cd172 2.352 . S
O176 C179 1.258 . S
C177 O174 1.320 . S
C177 O175 1.214 . S
O178 Cd170 2.277 1_655 S
O178 C173 1.209 . S
C179 O176 1.258 . S
C179 O181 1.282 . S
O180 Cd172 2.277 . S
O180 C173 1.226 . S
O181 Cd172 2.356 . S
O181 C179 1.282 . S
C182 O183 1.306 . S
C182 O185 1.160 . S
O183 C182 1.306 . S
O183 Cd184 2.228 . S
Cd184 O183 2.228 . S
Cd184 O188 2.273 . S
Cd184 O192 2.277 . S
O185 C182 1.160 . S
O185 Cd186 2.203 . S
Cd186 O185 2.203 . S
Cd186 O188 2.411 . S
Cd186 O189 2.333 . S
Cd186 O190 2.352 . S
Cd186 O194 2.277 . S
Cd186 O195 2.356 1_655 S
C187 O192 1.209 . S
C187 O194 1.226 . S
O188 Cd184 2.273 . S
O188 Cd186 2.411 . S
O188 C191 1.320 . S
O189 Cd186 2.333 . S
O189 C191 1.214 . S
O190 Cd186 2.352 . S
O190 C193 1.258 . S
C191 O188 1.320 . S
C191 O189 1.214 . S
O192 Cd184 2.277 . S
O192 C187 1.209 . S
C193 O190 1.258 . S
C193 O195 1.282 1_655 S
O194 Cd186 2.277 . S
O194 C187 1.226 . S
O195 Cd186 2.356 1_455 S
O195 C193 1.282 1_455 S
C196 O197 1.306 1_655 S
C196 O199 1.160 . S
O197 C196 1.306 1_455 S
O197 Cd198 2.228 . S
Cd198 O197 2.228 . S
Cd198 O202 2.273 1_455 S
Cd198 O206 2.277 1_455 S
O199 C196 1.160 . S
O199 Cd200 2.203 . S
Cd200 O199 2.203 . S
Cd200 O202 2.411 . S
Cd200 O203 2.333 . S
Cd200 O204 2.352 . S
Cd200 O208 2.277 . S
Cd200 O209 2.356 . S
C201 O206 1.209 . S
C201 O208 1.226 . S
O202 Cd198 2.273 1_655 S
O202 Cd200 2.411 . S
O202 C205 1.320 . S
O203 Cd200 2.333 . S
O203 C205 1.214 . S
O204 Cd200 2.352 . S
O204 C207 1.258 . S
C205 O202 1.320 . S
C205 O203 1.214 . S
O206 Cd198 2.277 1_655 S
O206 C201 1.209 . S
C207 O204 1.258 . S
C207 O209 1.282 . S
O208 Cd200 2.277 . S
O208 C201 1.226 . S
O209 Cd200 2.356 . S
O209 C207 1.282 . S
C210 O211 1.306 . S
C210 O213 1.160 . S
O211 C210 1.306 . S
O211 Cd212 2.228 . S
Cd212 O211 2.228 . S
Cd212 O216 2.273 . S
Cd212 O220 2.277 . S
O213 C210 1.160 . S
O213 Cd214 2.203 . S
Cd214 O213 2.203 . S
Cd214 O216 2.411 . S
Cd214 O217 2.333 . S
Cd214 O218 2.352 . S
Cd214 O222 2.277 . S
Cd214 O223 2.356 1_655 S
C215 O220 1.209 . S
C215 O222 1.226 . S
O216 Cd212 2.273 . S
O216 Cd214 2.411 . S
O216 C219 1.320 . S
O217 Cd214 2.333 . S
O217 C219 1.214 . S
O218 Cd214 2.352 . S
O218 C221 1.258 . S
C219 O216 1.320 . S
C219 O217 1.214 . S
O220 Cd212 2.277 . S
O220 C215 1.209 . S
C221 O218 1.258 . S
C221 O223 1.282 1_655 S
O222 Cd214 2.277 . S
O222 C215 1.226 . S
O223 Cd214 2.356 1_455 S
O223 C221 1.282 1_455 S
C224 O225 1.306 . S
C224 O227 1.160 . S
O225 C224 1.306 . S
O225 Cd226 2.228 . S
Cd226 O225 2.228 . S
Cd226 O230 2.273 . S
Cd226 O234 2.277 . S
O227 C224 1.160 . S
O227 Cd228 2.203 . S
Cd228 O227 2.203 . S
Cd228 O230 2.411 . S
Cd228 O231 2.333 . S
Cd228 O232 2.352 . S
Cd228 O236 2.277 . S
Cd228 O237 2.356 . S
C229 O234 1.209 . S
C229 O236 1.226 . S
O230 Cd226 2.273 . S
O230 Cd228 2.411 . S
O230 C233 1.320 . S
O231 Cd228 2.333 . S
O231 C233 1.214 . S
O232 Cd228 2.352 . S
O232 C235 1.258 . S
C233 O230 1.320 . S
C233 O231 1.214 . S
O234 Cd226 2.277 . S
O234 C229 1.209 . S
C235 O232 1.258 . S
C235 O237 1.282 . S
O236 Cd228 2.277 . S
O236 C229 1.226 . S
O237 Cd228 2.356 . S
O237 C235 1.282 . S
C238 O239 1.306 . S
C238 O241 1.160 . S
O239 C238 1.306 . S
O239 Cd240 2.228 . S
Cd240 O239 2.228 . S
Cd240 O244 2.273 . S
Cd240 O248 2.277 . S
O241 C238 1.160 . S
O241 Cd242 2.203 . S
Cd242 O241 2.203 . S
Cd242 O244 2.411 . S
Cd242 O245 2.333 . S
Cd242 O246 2.352 . S
Cd242 O250 2.277 . S
Cd242 O251 2.356 . S
C243 O248 1.209 . S
C243 O250 1.226 . S
O244 Cd240 2.273 . S
O244 Cd242 2.411 . S
O244 C247 1.320 . S
O245 Cd242 2.333 . S
O245 C247 1.214 . S
O246 Cd242 2.352 . S
O246 C249 1.258 . S
C247 O244 1.320 . S
C247 O245 1.214 . S
O248 Cd240 2.277 . S
O248 C243 1.209 . S
C249 O246 1.258 . S
C249 O251 1.282 . S
O250 Cd242 2.277 . S
O250 C243 1.226 . S
O251 Cd242 2.356 . S
O251 C249 1.282 . S
C252 O253 1.306 . S
C252 O255 1.160 . S
O253 C252 1.306 . S
O253 Cd254 2.228 . S
Cd254 O253 2.228 . S
Cd254 O258 2.273 . S
Cd254 O262 2.277 . S
O255 C252 1.160 . S
O255 Cd256 2.203 . S
Cd256 O255 2.203 . S
Cd256 O258 2.411 . S
Cd256 O259 2.333 . S
Cd256 O260 2.352 . S
Cd256 O264 2.277 . S
Cd256 O265 2.356 . S
C257 O262 1.209 . S
C257 O264 1.226 . S
O258 Cd254 2.273 . S
O258 Cd256 2.411 . S
O258 C261 1.320 . S
O259 Cd256 2.333 . S
O259 C261 1.214 . S
O260 Cd256 2.352 . S
O260 C263 1.258 . S
C261 O258 1.320 . S
C261 O259 1.214 . S
O262 Cd254 2.277 . S
O262 C257 1.209 . S
C263 O260 1.258 . S
C263 O265 1.282 . S
O264 Cd256 2.277 . S
O264 C257 1.226 . S
O265 Cd256 2.356 . S
O265 C263 1.282 . S
C266 O267 1.306 . S
C266 O269 1.160 . S
O267 C266 1.306 . S
O267 Cd268 2.228 . S
Cd268 O267 2.228 . S
Cd268 O272 2.273 . S
Cd268 O276 2.277 . S
O269 C266 1.160 . S
O269 Cd270 2.203 . S
Cd270 O269 2.203 . S
Cd270 O272 2.411 . S
Cd270 O273 2.333 . S
Cd270 O274 2.352 . S
Cd270 O278 2.277 . S
Cd270 O279 2.356 . S
C271 O276 1.209 . S
C271 O278 1.226 . S
O272 Cd268 2.273 . S
O272 Cd270 2.411 . S
O272 C275 1.320 . S
O273 Cd270 2.333 . S
O273 C275 1.214 . S
O274 Cd270 2.352 . S
O274 C277 1.258 . S
C275 O272 1.320 . S
C275 O273 1.214 . S
O276 Cd268 2.277 . S
O276 C271 1.209 . S
C277 O274 1.258 . S
C277 O279 1.282 . S
O278 Cd270 2.277 . S
O278 C271 1.226 . S
O279 Cd270 2.356 . S
O279 C277 1.282 . S
C280 O281 1.306 . S
C280 O283 1.160 . S
O281 C280 1.306 . S
O281 Cd282 2.228 . S
Cd282 O281 2.228 . S
Cd282 O286 2.273 . S
Cd282 O290 2.277 . S
O283 C280 1.160 . S
O283 Cd284 2.203 . S
Cd284 O283 2.203 . S
Cd284 O286 2.411 . S
Cd284 O287 2.333 . S
Cd284 O288 2.352 . S
Cd284 O292 2.277 . S
Cd284 O293 2.356 . S
C285 O290 1.209 . S
C285 O292 1.226 . S
O286 Cd282 2.273 . S
O286 Cd284 2.411 . S
O286 C289 1.320 . S
O287 Cd284 2.333 . S
O287 C289 1.214 . S
O288 Cd284 2.352 . S
O288 C291 1.258 . S
C289 O286 1.320 . S
C289 O287 1.214 . S
O290 Cd282 2.277 . S
O290 C285 1.209 . S
C291 O288 1.258 . S
C291 O293 1.282 . S
O292 Cd284 2.277 . S
O292 C285 1.226 . S
O293 Cd284 2.356 . S
O293 C291 1.282 . S
C294 O295 1.306 . S
C294 O297 1.160 . S
O295 C294 1.306 . S
O295 Cd296 2.228 . S
Cd296 O295 2.228 . S
Cd296 O300 2.273 . S
Cd296 O304 2.277 . S
O297 C294 1.160 . S
O297 Cd298 2.203 . S
Cd298 O297 2.203 . S
Cd298 O300 2.411 . S
Cd298 O301 2.333 . S
Cd298 O302 2.352 . S
Cd298 O306 2.277 . S
Cd298 O307 2.356 . S
C299 O304 1.209 . S
C299 O306 1.226 . S
O300 Cd296 2.273 . S
O300 Cd298 2.411 . S
O300 C303 1.320 . S
O301 Cd298 2.333 . S
O301 C303 1.214 . S
O302 Cd298 2.352 . S
O302 C305 1.258 . S
C303 O300 1.320 . S
C303 O301 1.214 . S
O304 Cd296 2.277 . S
O304 C299 1.209 . S
C305 O302 1.258 . S
C305 O307 1.282 . S
O306 Cd298 2.277 . S
O306 C299 1.226 . S
O307 Cd298 2.356 . S
O307 C305 1.282 . S
C308 O309 1.306 . S
C308 O311 1.160 . S
O309 C308 1.306 . S
O309 Cd310 2.228 . S
Cd310 O309 2.228 . S
Cd310 O314 2.273 . S
Cd310 O318 2.277 . S
O311 C308 1.160 . S
O311 Cd312 2.203 . S
Cd312 O311 2.203 . S
Cd312 O314 2.411 . S
Cd312 O315 2.333 . S
Cd312 O316 2.352 . S
Cd312 O320 2.277 . S
Cd312 O321 2.356 . S
C313 O318 1.209 . S
C313 O320 1.226 . S
O314 Cd310 2.273 . S
O314 Cd312 2.411 . S
O314 C317 1.320 . S
O315 Cd312 2.333 . S
O315 C317 1.214 . S
O316 Cd312 2.352 . S
O316 C319 1.258 . S
C317 O314 1.320 . S
C317 O315 1.214 . S
O318 Cd310 2.277 . S
O318 C313 1.209 . S
C319 O316 1.258 . S
C319 O321 1.282 . S
O320 Cd312 2.277 . S
O320 C313 1.226 . S
O321 Cd312 2.356 . S
O321 C319 1.282 . S
C322 O323 1.306 . S
C322 O325 1.160 . S
O323 C322 1.306 . S
O323 Cd324 2.228 . S
Cd324 O323 2.228 . S
Cd324 O328 2.273 . S
Cd324 O332 2.277 . S
O325 C322 1.160 . S
O325 Cd326 2.203 . S
Cd326 O325 2.203 . S
Cd326 O328 2.411 . S
Cd326 O329 2.333 . S
Cd326 O330 2.352 . S
Cd326 O334 2.277 . S
Cd326 O335 2.356 . S
C327 O332 1.209 . S
C327 O334 1.226 . S
O328 Cd324 2.273 . S
O328 Cd326 2.411 . S
O328 C331 1.320 . S
O329 Cd326 2.333 . S
O329 C331 1.214 . S
O330 Cd326 2.352 . S
O330 C333 1.258 . S
C331 O328 1.320 . S
C331 O329 1.214 . S
O332 Cd324 2.277 . S
O332 C327 1.209 . S
C333 O330 1.258 . S
C333 O335 1.282 . S
O334 Cd326 2.277 . S
O334 C327 1.226 . S
O335 Cd326 2.356 . S
O335 C333 1.282 . S
C336 O337 1.306 . S
C336 O339 1.160 . S
O337 C336 1.306 . S
O337 Cd338 2.228 . S
Cd338 O337 2.228 . S
Cd338 O342 2.273 . S
Cd338 O346 2.277 . S
O339 C336 1.160 . S
O339 Cd340 2.203 . S
Cd340 O339 2.203 . S
Cd340 O342 2.411 . S
Cd340 O343 2.333 . S
Cd340 O344 2.352 . S
Cd340 O348 2.277 . S
Cd340 O349 2.356 . S
C341 O346 1.209 . S
C341 O348 1.226 . S
O342 Cd338 2.273 . S
O342 Cd340 2.411 . S
O342 C345 1.320 . S
O343 Cd340 2.333 . S
O343 C345 1.214 . S
O344 Cd340 2.352 . S
O344 C347 1.258 . S
C345 O342 1.320 . S
C345 O343 1.214 . S
O346 Cd338 2.277 . S
O346 C341 1.209 . S
C347 O344 1.258 . S
C347 O349 1.282 . S
O348 Cd340 2.277 . S
O348 C341 1.226 . S
O349 Cd340 2.356 . S
O349 C347 1.282 . S
C350 O351 1.306 . S
C350 O353 1.160 . S
O351 C350 1.306 . S
O351 Cd352 2.228 . S
Cd352 O351 2.228 . S
Cd352 O356 2.273 . S
Cd352 O360 2.277 . S
O353 C350 1.160 . S
O353 Cd354 2.203 . S
Cd354 O353 2.203 . S
Cd354 O356 2.411 . S
Cd354 O357 2.333 . S
Cd354 O358 2.352 . S
Cd354 O362 2.277 . S
Cd354 O363 2.356 . S
C355 O360 1.209 . S
C355 O362 1.226 . S
O356 Cd352 2.273 . S
O356 Cd354 2.411 . S
O356 C359 1.320 . S
O357 Cd354 2.333 . S
O357 C359 1.214 . S
O358 Cd354 2.352 . S
O358 C361 1.258 . S
C359 O356 1.320 . S
C359 O357 1.214 . S
O360 Cd352 2.277 . S
O360 C355 1.209 . S
C361 O358 1.258 . S
C361 O363 1.282 . S
O362 Cd354 2.277 . S
O362 C355 1.226 . S
O363 Cd354 2.356 . S
O363 C361 1.282 . S
C364 O365 1.306 . S
C364 O367 1.160 . S
O365 C364 1.306 . S
O365 Cd366 2.228 . S
Cd366 O365 2.228 . S
Cd366 O370 2.273 . S
Cd366 O374 2.277 1_556 S
O367 C364 1.160 . S
O367 Cd368 2.203 . S
Cd368 O367 2.203 . S
Cd368 O370 2.411 . S
Cd368 O371 2.333 . S
Cd368 O372 2.352 . S
Cd368 O376 2.277 1_556 S
Cd368 O377 2.356 . S
C369 O374 1.209 . S
C369 O376 1.226 . S
O370 Cd366 2.273 . S
O370 Cd368 2.411 . S
O370 C373 1.320 . S
O371 Cd368 2.333 . S
O371 C373 1.214 . S
O372 Cd368 2.352 . S
O372 C375 1.258 . S
C373 O370 1.320 . S
C373 O371 1.214 . S
O374 Cd366 2.277 1_554 S
O374 C369 1.209 . S
C375 O372 1.258 . S
C375 O377 1.282 . S
O376 Cd368 2.277 1_554 S
O376 C369 1.226 . S
O377 Cd368 2.356 . S
O377 C375 1.282 . S
C378 O379 1.306 . S
C378 O381 1.160 . S
O379 C378 1.306 . S
O379 Cd380 2.228 . S
Cd380 O379 2.228 . S
Cd380 O384 2.273 . S
Cd380 O388 2.277 1_556 S
O381 C378 1.160 . S
O381 Cd382 2.203 . S
Cd382 O381 2.203 . S
Cd382 O384 2.411 . S
Cd382 O385 2.333 . S
Cd382 O386 2.352 . S
Cd382 O390 2.277 1_556 S
Cd382 O391 2.356 . S
C383 O388 1.209 . S
C383 O390 1.226 . S
O384 Cd380 2.273 . S
O384 Cd382 2.411 . S
O384 C387 1.320 . S
O385 Cd382 2.333 . S
O385 C387 1.214 . S
O386 Cd382 2.352 . S
O386 C389 1.258 . S
C387 O384 1.320 . S
C387 O385 1.214 . S
O388 Cd380 2.277 1_554 S
O388 C383 1.209 . S
C389 O386 1.258 . S
C389 O391 1.282 . S
O390 Cd382 2.277 1_554 S
O390 C383 1.226 . S
O391 Cd382 2.356 . S
O391 C389 1.282 . S
C392 O393 1.306 . S
C392 O395 1.160 . S
O393 C392 1.306 . S
O393 Cd394 2.228 . S
Cd394 O393 2.228 . S
Cd394 O398 2.273 . S
Cd394 O402 2.277 . S
O395 C392 1.160 . S
O395 Cd396 2.203 . S
Cd396 O395 2.203 . S
Cd396 O398 2.411 . S
Cd396 O399 2.333 . S
Cd396 O400 2.352 . S
Cd396 O404 2.277 . S
Cd396 O405 2.356 . S
C397 O402 1.209 . S
C397 O404 1.226 . S
O398 Cd394 2.273 . S
O398 Cd396 2.411 . S
O398 C401 1.320 . S
O399 Cd396 2.333 . S
O399 C401 1.214 . S
O400 Cd396 2.352 . S
O400 C403 1.258 . S
C401 O398 1.320 . S
C401 O399 1.214 . S
O402 Cd394 2.277 . S
O402 C397 1.209 . S
C403 O400 1.258 . S
C403 O405 1.282 . S
O404 Cd396 2.277 . S
O404 C397 1.226 . S
O405 Cd396 2.356 . S
O405 C403 1.282 . S
C406 O407 1.306 . S
C406 O409 1.160 . S
O407 C406 1.306 . S
O407 Cd408 2.228 . S
Cd408 O407 2.228 . S
Cd408 O412 2.273 . S
Cd408 O416 2.277 . S
O409 C406 1.160 . S
O409 Cd410 2.203 . S
Cd410 O409 2.203 . S
Cd410 O412 2.411 . S
Cd410 O413 2.333 . S
Cd410 O414 2.352 . S
Cd410 O418 2.277 . S
Cd410 O419 2.356 . S
C411 O416 1.209 . S
C411 O418 1.226 . S
O412 Cd408 2.273 . S
O412 Cd410 2.411 . S
O412 C415 1.320 . S
O413 Cd410 2.333 . S
O413 C415 1.214 . S
O414 Cd410 2.352 . S
O414 C417 1.258 . S
C415 O412 1.320 . S
C415 O413 1.214 . S
O416 Cd408 2.277 . S
O416 C411 1.209 . S
C417 O414 1.258 . S
C417 O419 1.282 . S
O418 Cd410 2.277 . S
O418 C411 1.226 . S
O419 Cd410 2.356 . S
O419 C417 1.282 . S
C420 O421 1.306 . S
C420 O423 1.160 . S
O421 C420 1.306 . S
O421 Cd422 2.228 . S
Cd422 O421 2.228 . S
Cd422 O426 2.273 . S
Cd422 O430 2.277 1_554 S
O423 C420 1.160 . S
O423 Cd424 2.203 . S
Cd424 O423 2.203 . S
Cd424 O426 2.411 . S
Cd424 O427 2.333 . S
Cd424 O428 2.352 . S
Cd424 O432 2.277 1_554 S
Cd424 O433 2.356 . S
C425 O430 1.209 . S
C425 O432 1.226 . S
O426 Cd422 2.273 . S
O426 Cd424 2.411 . S
O426 C429 1.320 . S
O427 Cd424 2.333 . S
O427 C429 1.214 . S
O428 Cd424 2.352 . S
O428 C431 1.258 . S
C429 O426 1.320 . S
C429 O427 1.214 . S
O430 Cd422 2.277 1_556 S
O430 C425 1.209 . S
C431 O428 1.258 . S
C431 O433 1.282 . S
O432 Cd424 2.277 1_556 S
O432 C425 1.226 . S
O433 Cd424 2.356 . S
O433 C431 1.282 . S
C434 O435 1.306 . S
C434 O437 1.160 . S
O435 C434 1.306 . S
O435 Cd436 2.228 . S
Cd436 O435 2.228 . S
Cd436 O440 2.273 . S
Cd436 O444 2.277 1_554 S
O437 C434 1.160 . S
O437 Cd438 2.203 . S
Cd438 O437 2.203 . S
Cd438 O440 2.411 . S
Cd438 O441 2.333 . S
Cd438 O442 2.352 . S
Cd438 O446 2.277 1_554 S
Cd438 O447 2.356 . S
C439 O444 1.209 . S
C439 O446 1.226 . S
O440 Cd436 2.273 . S
O440 Cd438 2.411 . S
O440 C443 1.320 . S
O441 Cd438 2.333 . S
O441 C443 1.214 . S
O442 Cd438 2.352 . S
O442 C445 1.258 . S
C443 O440 1.320 . S
C443 O441 1.214 . S
O444 Cd436 2.277 1_556 S
O444 C439 1.209 . S
C445 O442 1.258 . S
C445 O447 1.282 . S
O446 Cd438 2.277 1_556 S
O446 C439 1.226 . S
O447 Cd438 2.356 . S
O447 C445 1.282 . S
C448 C449 1.363 . S
C448 C454 1.379 . S
C448 N456 1.356 1_455 S
C449 C448 1.363 . S
C449 C455 1.363 . S
C450 C451 1.363 . S
C450 C455 1.379 . S
C450 N457 1.356 . S
C451 C450 1.363 . S
C451 C454 1.363 . S
N452 C454 1.356 1_655 S
N452 H464 0.984 . S
N452 H465 0.985 . S
N453 C455 1.356 . S
N453 H458 0.984 . S
N453 H459 0.985 . S
C454 C448 1.379 . S
C454 C451 1.363 . S
C454 N452 1.356 1_455 S
C455 C449 1.363 . S
C455 C450 1.379 . S
C455 N453 1.356 . S
N456 C448 1.356 1_655 S
N456 H462 0.984 . S
N456 H463 0.984 . S
N457 C450 1.356 . S
N457 H460 0.984 . S
N457 H461 0.985 . S
H458 N453 0.984 . S
H459 N453 0.985 . S
H460 N457 0.984 . S
H461 N457 0.985 . S
H462 N456 0.984 . S
H463 N456 0.984 . S
H464 N452 0.984 . S
H465 N452 0.985 . S
C466 C467 1.363 . S
C466 C472 1.379 . S
C466 N474 1.356 . S
C467 C466 1.363 . S
C467 C473 1.363 . S
C468 C469 1.363 . S
C468 C473 1.379 . S
C468 N475 1.356 . S
C469 C468 1.363 . S
C469 C472 1.363 . S
N470 C472 1.356 . S
N470 H482 0.984 . S
N470 H483 0.985 . S
N471 C473 1.356 . S
N471 H476 0.984 . S
N471 H477 0.985 . S
C472 C466 1.379 . S
C472 C469 1.363 . S
C472 N470 1.356 . S
C473 C467 1.363 . S
C473 C468 1.379 . S
C473 N471 1.356 . S
N474 C466 1.356 . S
N474 H480 0.984 . S
N474 H481 0.984 . S
N475 C468 1.356 . S
N475 H478 0.984 . S
N475 H479 0.985 . S
H476 N471 0.984 . S
H477 N471 0.985 . S
H478 N475 0.984 . S
H479 N475 0.985 . S
H480 N474 0.984 . S
H481 N474 0.984 . S
H482 N470 0.984 . S
H483 N470 0.985 . S
C484 C485 1.363 . S
C484 C490 1.379 . S
C484 N492 1.356 1_455 S
C485 C484 1.363 . S
C485 C491 1.363 . S
C486 C487 1.363 . S
C486 C491 1.379 . S
C486 N493 1.356 . S
C487 C486 1.363 . S
C487 C490 1.363 . S
N488 C490 1.356 1_655 S
N488 H500 0.984 . S
N488 H501 0.985 . S
N489 C491 1.356 . S
N489 H494 0.984 . S
N489 H495 0.985 . S
C490 C484 1.379 . S
C490 C487 1.363 . S
C490 N488 1.356 1_455 S
C491 C485 1.363 . S
C491 C486 1.379 . S
C491 N489 1.356 . S
N492 C484 1.356 1_655 S
N492 H498 0.984 . S
N492 H499 0.984 . S
N493 C486 1.356 . S
N493 H496 0.984 . S
N493 H497 0.985 . S
H494 N489 0.984 . S
H495 N489 0.985 . S
H496 N493 0.984 . S
H497 N493 0.985 . S
H498 N492 0.984 . S
H499 N492 0.984 . S
H500 N488 0.984 . S
H501 N488 0.985 . S
C502 C503 1.363 . S
C502 C508 1.379 . S
C502 N510 1.356 . S
C503 C502 1.363 . S
C503 C509 1.363 . S
C504 C505 1.363 . S
C504 C509 1.379 . S
C504 N511 1.356 . S
C505 C504 1.363 . S
C505 C508 1.363 . S
N506 C508 1.356 . S
N506 H518 0.984 . S
N506 H519 0.985 . S
N507 C509 1.356 . S
N507 H512 0.984 . S
N507 H513 0.985 . S
C508 C502 1.379 . S
C508 C505 1.363 . S
C508 N506 1.356 . S
C509 C503 1.363 . S
C509 C504 1.379 . S
C509 N507 1.356 . S
N510 C502 1.356 . S
N510 H516 0.984 . S
N510 H517 0.984 . S
N511 C504 1.356 . S
N511 H514 0.984 . S
N511 H515 0.985 . S
H512 N507 0.984 . S
H513 N507 0.985 . S
H514 N511 0.984 . S
H515 N511 0.985 . S
H516 N510 0.984 . S
H517 N510 0.984 . S
H518 N506 0.984 . S
H519 N506 0.985 . S
C520 C521 1.363 . S
C520 C526 1.379 . S
C520 N528 1.356 . S
C521 C520 1.363 . S
C521 C527 1.363 . S
C522 C523 1.363 . S
C522 C527 1.379 . S
C522 N529 1.356 . S
C523 C522 1.363 . S
C523 C526 1.363 . S
N524 C526 1.356 . S
N524 H536 0.984 . S
N524 H537 0.985 . S
N525 C527 1.356 . S
N525 H530 0.984 . S
N525 H531 0.985 . S
C526 C520 1.379 . S
C526 C523 1.363 . S
C526 N524 1.356 . S
C527 C521 1.363 . S
C527 C522 1.379 . S
C527 N525 1.356 . S
N528 C520 1.356 . S
N528 H534 0.984 . S
N528 H535 0.984 . S
N529 C522 1.356 . S
N529 H532 0.984 . S
N529 H533 0.985 . S
H530 N525 0.984 . S
H531 N525 0.985 . S
H532 N529 0.984 . S
H533 N529 0.985 . S
H534 N528 0.984 . S
H535 N528 0.984 . S
H536 N524 0.984 . S
H537 N524 0.985 . S
C538 C539 1.363 . S
C538 C544 1.379 . S
C538 N546 1.356 . S
C539 C538 1.363 . S
C539 C545 1.363 . S
C540 C541 1.363 . S
C540 C545 1.379 . S
C540 N547 1.356 . S
C541 C540 1.363 . S
C541 C544 1.363 . S
N542 C544 1.356 . S
N542 H554 0.984 . S
N542 H555 0.985 . S
N543 C545 1.356 . S
N543 H548 0.984 . S
N543 H549 0.985 . S
C544 C538 1.379 . S
C544 C541 1.363 . S
C544 N542 1.356 . S
C545 C539 1.363 . S
C545 C540 1.379 . S
C545 N543 1.356 . S
N546 C538 1.356 . S
N546 H552 0.984 . S
N546 H553 0.984 . S
N547 C540 1.356 . S
N547 H550 0.984 . S
N547 H551 0.985 . S
H548 N543 0.984 . S
H549 N543 0.985 . S
H550 N547 0.984 . S
H551 N547 0.985 . S
H552 N546 0.984 . S
H553 N546 0.984 . S
H554 N542 0.984 . S
H555 N542 0.985 . S
C556 C557 1.363 . S
C556 C562 1.379 . S
C556 N564 1.356 1_655 S
C557 C556 1.363 . S
C557 C563 1.363 . S
C558 C559 1.363 . S
C558 C563 1.379 . S
C558 N565 1.356 . S
C559 C558 1.363 . S
C559 C562 1.363 . S
N560 C562 1.356 1_455 S
N560 H572 0.984 . S
N560 H573 0.985 . S
N561 C563 1.356 . S
N561 H566 0.984 . S
N561 H567 0.985 . S
C562 C556 1.379 . S
C562 C559 1.363 . S
C562 N560 1.356 1_655 S
C563 C557 1.363 . S
C563 C558 1.379 . S
C563 N561 1.356 . S
N564 C556 1.356 1_455 S
N564 H570 0.984 . S
N564 H571 0.984 . S
N565 C558 1.356 . S
N565 H568 0.984 . S
N565 H569 0.985 . S
H566 N561 0.984 . S
H567 N561 0.985 . S
H568 N565 0.984 . S
H569 N565 0.985 . S
H570 N564 0.984 . S
H571 N564 0.984 . S
H572 N560 0.984 . S
H573 N560 0.985 . S
C574 C575 1.363 . S
C574 C580 1.379 . S
C574 N582 1.356 . S
C575 C574 1.363 . S
C575 C581 1.363 . S
C576 C577 1.363 . S
C576 C581 1.379 . S
C576 N583 1.356 . S
C577 C576 1.363 . S
C577 C580 1.363 . S
N578 C580 1.356 . S
N578 H590 0.984 . S
N578 H591 0.985 . S
N579 C581 1.356 . S
N579 H584 0.984 . S
N579 H585 0.985 . S
C580 C574 1.379 . S
C580 C577 1.363 . S
C580 N578 1.356 . S
C581 C575 1.363 . S
C581 C576 1.379 . S
C581 N579 1.356 . S
N582 C574 1.356 . S
N582 H588 0.984 . S
N582 H589 0.984 . S
N583 C576 1.356 . S
N583 H586 0.984 . S
N583 H587 0.985 . S
H584 N579 0.984 . S
H585 N579 0.985 . S
H586 N583 0.984 . S
H587 N583 0.985 . S
H588 N582 0.984 . S
H589 N582 0.984 . S
H590 N578 0.984 . S
H591 N578 0.985 . S
C592 C593 1.363 . S
C592 C598 1.379 . S
C592 N600 1.356 . S
C593 C592 1.363 . S
C593 C599 1.363 . S
C594 C595 1.363 . S
C594 C599 1.379 . S
C594 N601 1.356 . S
C595 C594 1.363 . S
C595 C598 1.363 . S
N596 C598 1.356 . S
N596 H608 0.984 . S
N596 H609 0.985 . S
N597 C599 1.356 . S
N597 H602 0.984 . S
N597 H603 0.985 . S
C598 C592 1.379 . S
C598 C595 1.363 . S
C598 N596 1.356 . S
C599 C593 1.363 . S
C599 C594 1.379 . S
C599 N597 1.356 . S
N600 C592 1.356 . S
N600 H606 0.984 . S
N600 H607 0.984 . S
N601 C594 1.356 . S
N601 H604 0.984 . S
N601 H605 0.985 . S
H602 N597 0.984 . S
H603 N597 0.985 . S
H604 N601 0.984 . S
H605 N601 0.985 . S
H606 N600 0.984 . S
H607 N600 0.984 . S
H608 N596 0.984 . S
H609 N596 0.985 . S
C610 C611 1.363 . S
C610 C616 1.379 . S
C610 N618 1.356 . S
C611 C610 1.363 . S
C611 C617 1.363 . S
C612 C613 1.363 . S
C612 C617 1.379 . S
C612 N619 1.356 . S
C613 C612 1.363 . S
C613 C616 1.363 . S
N614 C616 1.356 . S
N614 H626 0.984 . S
N614 H627 0.985 . S
N615 C617 1.356 . S
N615 H620 0.984 . S
N615 H621 0.985 . S
C616 C610 1.379 . S
C616 C613 1.363 . S
C616 N614 1.356 . S
C617 C611 1.363 . S
C617 C612 1.379 . S
C617 N615 1.356 . S
N618 C610 1.356 . S
N618 H624 0.984 . S
N618 H625 0.984 . S
N619 C612 1.356 . S
N619 H622 0.984 . S
N619 H623 0.985 . S
H620 N615 0.984 . S
H621 N615 0.985 . S
H622 N619 0.984 . S
H623 N619 0.985 . S
H624 N618 0.984 . S
H625 N618 0.984 . S
H626 N614 0.984 . S
H627 N614 0.985 . S
C628 C629 1.363 . S
C628 C634 1.379 . S
C628 N636 1.356 . S
C629 C628 1.363 . S
C629 C635 1.363 . S
C630 C631 1.363 . S
C630 C635 1.379 . S
C630 N637 1.356 . S
C631 C630 1.363 . S
C631 C634 1.363 . S
N632 C634 1.356 . S
N632 H644 0.984 . S
N632 H645 0.985 . S
N633 C635 1.356 . S
N633 H638 0.984 . S
N633 H639 0.985 . S
C634 C628 1.379 . S
C634 C631 1.363 . S
C634 N632 1.356 . S
C635 C629 1.363 . S
C635 C630 1.379 . S
C635 N633 1.356 . S
N636 C628 1.356 . S
N636 H642 0.984 . S
N636 H643 0.984 . S
N637 C630 1.356 . S
N637 H640 0.984 . S
N637 H641 0.985 . S
H638 N633 0.984 . S
H639 N633 0.985 . S
H640 N637 0.984 . S
H641 N637 0.985 . S
H642 N636 0.984 . S
H643 N636 0.984 . S
H644 N632 0.984 . S
H645 N632 0.985 . S
C646 C647 1.363 . S
C646 C652 1.379 . S
C646 N654 1.356 . S
C647 C646 1.363 . S
C647 C653 1.363 . S
C648 C649 1.363 . S
C648 C653 1.379 . S
C648 N655 1.356 . S
C649 C648 1.363 . S
C649 C652 1.363 . S
N650 C652 1.356 . S
N650 H662 0.984 . S
N650 H663 0.985 . S
N651 C653 1.356 . S
N651 H656 0.984 . S
N651 H657 0.985 . S
C652 C646 1.379 . S
C652 C649 1.363 . S
C652 N650 1.356 . S
C653 C647 1.363 . S
C653 C648 1.379 . S
C653 N651 1.356 . S
N654 C646 1.356 . S
N654 H660 0.984 . S
N654 H661 0.984 . S
N655 C648 1.356 . S
N655 H658 0.984 . S
N655 H659 0.985 . S
H656 N651 0.984 . S
H657 N651 0.985 . S
H658 N655 0.984 . S
H659 N655 0.985 . S
H660 N654 0.984 . S
H661 N654 0.984 . S
H662 N650 0.984 . S
H663 N650 0.985 . S
C664 C665 1.363 . S
C664 C670 1.379 . S
C664 N672 1.356 . S
C665 C664 1.363 . S
C665 C671 1.363 . S
C666 C667 1.363 . S
C666 C671 1.379 . S
C666 N673 1.356 . S
C667 C666 1.363 . S
C667 C670 1.363 . S
N668 C670 1.356 . S
N668 H680 0.984 . S
N668 H681 0.985 . S
N669 C671 1.356 . S
N669 H674 0.984 . S
N669 H675 0.985 . S
C670 C664 1.379 . S
C670 C667 1.363 . S
C670 N668 1.356 . S
C671 C665 1.363 . S
C671 C666 1.379 . S
C671 N669 1.356 . S
N672 C664 1.356 . S
N672 H678 0.984 . S
N672 H679 0.984 . S
N673 C666 1.356 . S
N673 H676 0.984 . S
N673 H677 0.985 . S
H674 N669 0.984 . S
H675 N669 0.985 . S
H676 N673 0.984 . S
H677 N673 0.985 . S
H678 N672 0.984 . S
H679 N672 0.984 . S
H680 N668 0.984 . S
H681 N668 0.985 . S
C682 C683 1.363 . S
C682 C688 1.379 . S
C682 N690 1.356 . S
C683 C682 1.363 . S
C683 C689 1.363 . S
C684 C685 1.363 . S
C684 C689 1.379 . S
C684 N691 1.356 . S
C685 C684 1.363 . S
C685 C688 1.363 . S
N686 C688 1.356 . S
N686 H698 0.984 . S
N686 H699 0.985 . S
N687 C689 1.356 . S
N687 H692 0.984 . S
N687 H693 0.985 . S
C688 C682 1.379 . S
C688 C685 1.363 . S
C688 N686 1.356 . S
C689 C683 1.363 . S
C689 C684 1.379 . S
C689 N687 1.356 . S
N690 C682 1.356 . S
N690 H696 0.984 . S
N690 H697 0.984 . S
N691 C684 1.356 . S
N691 H694 0.984 . S
N691 H695 0.985 . S
H692 N687 0.984 . S
H693 N687 0.985 . S
H694 N691 0.984 . S
H695 N691 0.985 . S
H696 N690 0.984 . S
H697 N690 0.984 . S
H698 N686 0.984 . S
H699 N686 0.985 . S
C700 C701 1.363 . S
C700 C706 1.379 . S
C700 N708 1.356 . S
C701 C700 1.363 . S
C701 C707 1.363 . S
C702 C703 1.363 . S
C702 C707 1.379 . S
C702 N709 1.356 . S
C703 C702 1.363 . S
C703 C706 1.363 . S
N704 C706 1.356 . S
N704 H716 0.984 . S
N704 H717 0.985 . S
N705 C707 1.356 . S
N705 H710 0.984 . S
N705 H711 0.985 . S
C706 C700 1.379 . S
C706 C703 1.363 . S
C706 N704 1.356 . S
C707 C701 1.363 . S
C707 C702 1.379 . S
C707 N705 1.356 . S
N708 C700 1.356 . S
N708 H714 0.984 . S
N708 H715 0.984 . S
N709 C702 1.356 . S
N709 H712 0.984 . S
N709 H713 0.985 . S
H710 N705 0.984 . S
H711 N705 0.985 . S
H712 N709 0.984 . S
H713 N709 0.985 . S
H714 N708 0.984 . S
H715 N708 0.984 . S
H716 N704 0.984 . S
H717 N704 0.985 . S
C718 C719 1.363 . S
C718 C724 1.379 . S
C718 N726 1.356 . S
C719 C718 1.363 . S
C719 C725 1.363 . S
C720 C721 1.363 . S
C720 C725 1.379 . S
C720 N727 1.356 . S
C721 C720 1.363 . S
C721 C724 1.363 . S
N722 C724 1.356 . S
N722 H734 0.984 . S
N722 H735 0.985 . S
N723 C725 1.356 . S
N723 H728 0.984 . S
N723 H729 0.985 . S
C724 C718 1.379 . S
C724 C721 1.363 . S
C724 N722 1.356 . S
C725 C719 1.363 . S
C725 C720 1.379 . S
C725 N723 1.356 . S
N726 C718 1.356 . S
N726 H732 0.984 . S
N726 H733 0.984 . S
N727 C720 1.356 . S
N727 H730 0.984 . S
N727 H731 0.985 . S
H728 N723 0.984 . S
H729 N723 0.985 . S
H730 N727 0.984 . S
H731 N727 0.985 . S
H732 N726 0.984 . S
H733 N726 0.984 . S
H734 N722 0.984 . S
H735 N722 0.985 . S
C736 C737 1.363 . S
C736 C742 1.379 . S
C736 N744 1.356 . S
C737 C736 1.363 . S
C737 C743 1.363 . S
C738 C739 1.363 . S
C738 C743 1.379 . S
C738 N745 1.356 . S
C739 C738 1.363 . S
C739 C742 1.363 . S
N740 C742 1.356 . S
N740 H752 0.984 . S
N740 H753 0.985 . S
N741 C743 1.356 . S
N741 H746 0.984 . S
N741 H747 0.985 . S
C742 C736 1.379 . S
C742 C739 1.363 . S
C742 N740 1.356 . S
C743 C737 1.363 . S
C743 C738 1.379 . S
C743 N741 1.356 . S
N744 C736 1.356 . S
N744 H750 0.984 . S
N744 H751 0.984 . S
N745 C738 1.356 . S
N745 H748 0.984 . S
N745 H749 0.985 . S
H746 N741 0.984 . S
H747 N741 0.985 . S
H748 N745 0.984 . S
H749 N745 0.985 . S
H750 N744 0.984 . S
H751 N744 0.984 . S
H752 N740 0.984 . S
H753 N740 0.985 . S
C754 C755 1.363 . S
C754 C760 1.379 . S
C754 N762 1.356 . S
C755 C754 1.363 . S
C755 C761 1.363 . S
C756 C757 1.363 . S
C756 C761 1.379 . S
C756 N763 1.356 . S
C757 C756 1.363 . S
C757 C760 1.363 . S
N758 C760 1.356 . S
N758 H770 0.984 . S
N758 H771 0.985 . S
N759 C761 1.356 . S
N759 H764 0.984 1_655 S
N759 H765 0.985 . S
C760 C754 1.379 . S
C760 C757 1.363 . S
C760 N758 1.356 . S
C761 C755 1.363 . S
C761 C756 1.379 . S
C761 N759 1.356 . S
N762 C754 1.356 . S
N762 H768 0.984 . S
N762 H769 0.984 . S
N763 C756 1.356 . S
N763 H766 0.984 . S
N763 H767 0.985 . S
H764 N759 0.984 1_455 S
H765 N759 0.985 . S
H766 N763 0.984 . S
H767 N763 0.985 . S
H768 N762 0.984 . S
H769 N762 0.984 . S
H770 N758 0.984 . S
H771 N758 0.985 . S
C772 C773 1.363 . S
C772 C778 1.379 . S
C772 N780 1.356 . S
C773 C772 1.363 . S
C773 C779 1.363 . S
C774 C775 1.363 . S
C774 C779 1.379 . S
C774 N781 1.356 . S
C775 C774 1.363 . S
C775 C778 1.363 . S
N776 C778 1.356 . S
N776 H788 0.984 . S
N776 H789 0.985 . S
N777 C779 1.356 . S
N777 H782 0.984 . S
N777 H783 0.985 . S
C778 C772 1.379 . S
C778 C775 1.363 . S
C778 N776 1.356 . S
C779 C773 1.363 . S
C779 C774 1.379 . S
C779 N777 1.356 . S
N780 C772 1.356 . S
N780 H786 0.984 . S
N780 H787 0.984 . S
N781 C774 1.356 . S
N781 H784 0.984 . S
N781 H785 0.985 . S
H782 N777 0.984 . S
H783 N777 0.985 . S
H784 N781 0.984 . S
H785 N781 0.985 . S
H786 N780 0.984 . S
H787 N780 0.984 . S
H788 N776 0.984 . S
H789 N776 0.985 . S
C790 C791 1.363 . S
C790 C796 1.379 . S
C790 N798 1.356 . S
C791 C790 1.363 . S
C791 C797 1.363 . S
C792 C793 1.363 . S
C792 C797 1.379 . S
C792 N799 1.356 . S
C793 C792 1.363 . S
C793 C796 1.363 . S
N794 C796 1.356 . S
N794 H806 0.984 . S
N794 H807 0.985 1_655 S
N795 C797 1.356 . S
N795 H800 0.984 . S
N795 H801 0.985 . S
C796 C790 1.379 . S
C796 C793 1.363 . S
C796 N794 1.356 . S
C797 C791 1.363 . S
C797 C792 1.379 . S
C797 N795 1.356 . S
N798 C790 1.356 . S
N798 H804 0.984 . S
N798 H805 0.984 . S
N799 C792 1.356 . S
N799 H802 0.984 . S
N799 H803 0.985 . S
H800 N795 0.984 . S
H801 N795 0.985 . S
H802 N799 0.984 . S
H803 N799 0.985 . S
H804 N798 0.984 . S
H805 N798 0.984 . S
H806 N794 0.984 . S
H807 N794 0.985 1_455 S
C808 C809 1.363 . S
C808 C814 1.379 . S
C808 N816 1.356 . S
C809 C808 1.363 . S
C809 C815 1.363 . S
C810 C811 1.363 . S
C810 C815 1.379 . S
C810 N817 1.356 . S
C811 C810 1.363 . S
C811 C814 1.363 . S
N812 C814 1.356 . S
N812 H824 0.984 . S
N812 H825 0.985 . S
N813 C815 1.356 . S
N813 H818 0.984 . S
N813 H819 0.985 . S
C814 C808 1.379 . S
C814 C811 1.363 . S
C814 N812 1.356 . S
C815 C809 1.363 . S
C815 C810 1.379 . S
C815 N813 1.356 . S
N816 C808 1.356 . S
N816 H822 0.984 . S
N816 H823 0.984 . S
N817 C810 1.356 . S
N817 H820 0.984 . S
N817 H821 0.985 . S
H818 N813 0.984 . S
H819 N813 0.985 . S
H820 N817 0.984 . S
H821 N817 0.985 . S
H822 N816 0.984 . S
H823 N816 0.984 . S
H824 N812 0.984 . S
H825 N812 0.985 . S
C826 C827 1.363 . S
C826 C832 1.379 . S
C826 N834 1.356 . S
C827 C826 1.363 . S
C827 C833 1.363 . S
C828 C829 1.363 . S
C828 C833 1.379 . S
C828 N835 1.356 . S
C829 C828 1.363 . S
C829 C832 1.363 . S
N830 C832 1.356 . S
N830 H842 0.984 . S
N830 H843 0.985 . S
N831 C833 1.356 . S
N831 H836 0.984 1_455 S
N831 H837 0.985 . S
C832 C826 1.379 . S
C832 C829 1.363 . S
C832 N830 1.356 . S
C833 C827 1.363 . S
C833 C828 1.379 . S
C833 N831 1.356 . S
N834 C826 1.356 . S
N834 H840 0.984 . S
N834 H841 0.984 . S
N835 C828 1.356 . S
N835 H838 0.984 . S
N835 H839 0.985 . S
H836 N831 0.984 1_655 S
H837 N831 0.985 . S
H838 N835 0.984 . S
H839 N835 0.985 . S
H840 N834 0.984 . S
H841 N834 0.984 . S
H842 N830 0.984 . S
H843 N830 0.985 . S
C844 C845 1.363 . S
C844 C850 1.379 . S
C844 N852 1.356 . S
C845 C844 1.363 . S
C845 C851 1.363 . S
C846 C847 1.363 . S
C846 C851 1.379 . S
C846 N853 1.356 . S
C847 C846 1.363 . S
C847 C850 1.363 . S
N848 C850 1.356 . S
N848 H860 0.984 . S
N848 H861 0.985 . S
N849 C851 1.356 . S
N849 H854 0.984 . S
N849 H855 0.985 . S
C850 C844 1.379 . S
C850 C847 1.363 . S
C850 N848 1.356 . S
C851 C845 1.363 . S
C851 C846 1.379 . S
C851 N849 1.356 . S
N852 C844 1.356 . S
N852 H858 0.984 . S
N852 H859 0.984 . S
N853 C846 1.356 . S
N853 H856 0.984 . S
N853 H857 0.985 . S
H854 N849 0.984 . S
H855 N849 0.985 . S
H856 N853 0.984 . S
H857 N853 0.985 . S
H858 N852 0.984 . S
H859 N852 0.984 . S
H860 N848 0.984 . S
H861 N848 0.985 . S
C862 C863 1.363 . S
C862 C868 1.379 . S
C862 N870 1.356 . S
C863 C862 1.363 . S
C863 C869 1.363 . S
C864 C865 1.363 . S
C864 C869 1.379 . S
C864 N871 1.356 . S
C865 C864 1.363 . S
C865 C868 1.363 . S
N866 C868 1.356 . S
N866 H878 0.984 . S
N866 H879 0.985 . S
N867 C869 1.356 . S
N867 H872 0.984 1_455 S
N867 H873 0.985 . S
C868 C862 1.379 . S
C868 C865 1.363 . S
C868 N866 1.356 . S
C869 C863 1.363 . S
C869 C864 1.379 . S
C869 N867 1.356 . S
N870 C862 1.356 . S
N870 H876 0.984 . S
N870 H877 0.984 . S
N871 C864 1.356 . S
N871 H874 0.984 . S
N871 H875 0.985 . S
H872 N867 0.984 1_655 S
H873 N867 0.985 . S
H874 N871 0.984 . S
H875 N871 0.985 . S
H876 N870 0.984 . S
H877 N870 0.984 . S
H878 N866 0.984 . S
H879 N866 0.985 . S
C880 C881 1.363 . S
C880 C886 1.379 . S
C880 N888 1.356 . S
C881 C880 1.363 . S
C881 C887 1.363 . S
C882 C883 1.363 . S
C882 C887 1.379 . S
C882 N889 1.356 . S
C883 C882 1.363 . S
C883 C886 1.363 . S
N884 C886 1.356 . S
N884 H896 0.984 . S
N884 H897 0.985 . S
N885 C887 1.356 . S
N885 H890 0.984 . S
N885 H891 0.985 . S
C886 C880 1.379 . S
C886 C883 1.363 . S
C886 N884 1.356 . S
C887 C881 1.363 . S
C887 C882 1.379 . S
C887 N885 1.356 . S
N888 C880 1.356 . S
N888 H894 0.984 . S
N888 H895 0.984 . S
N889 C882 1.356 . S
N889 H892 0.984 . S
N889 H893 0.985 . S
H890 N885 0.984 . S
H891 N885 0.985 . S
H892 N889 0.984 . S
H893 N889 0.985 . S
H894 N888 0.984 . S
H895 N888 0.984 . S
H896 N884 0.984 . S
H897 N884 0.985 . S
C898 C899 1.363 . S
C898 C904 1.379 . S
C898 N906 1.356 . S
C899 C898 1.363 . S
C899 C905 1.363 . S
C900 C901 1.363 . S
C900 C905 1.379 . S
C900 N907 1.356 . S
C901 C900 1.363 . S
C901 C904 1.363 . S
N902 C904 1.356 . S
N902 H914 0.984 . S
N902 H915 0.985 1_655 S
N903 C905 1.356 . S
N903 H908 0.984 . S
N903 H909 0.985 . S
C904 C898 1.379 . S
C904 C901 1.363 . S
C904 N902 1.356 . S
C905 C899 1.363 . S
C905 C900 1.379 . S
C905 N903 1.356 . S
N906 C898 1.356 . S
N906 H912 0.984 . S
N906 H913 0.984 . S
N907 C900 1.356 . S
N907 H910 0.984 . S
N907 H911 0.985 . S
H908 N903 0.984 . S
H909 N903 0.985 . S
H910 N907 0.984 . S
H911 N907 0.985 . S
H912 N906 0.984 . S
H913 N906 0.984 . S
H914 N902 0.984 . S
H915 N902 0.985 1_455 S
C916 C917 1.363 . S
C916 C922 1.379 . S
C916 N924 1.356 . S
C917 C916 1.363 . S
C917 C923 1.363 . S
C918 C919 1.363 . S
C918 C923 1.379 . S
C918 N925 1.356 . S
C919 C918 1.363 . S
C919 C922 1.363 . S
N920 C922 1.356 . S
N920 H932 0.984 . S
N920 H933 0.985 . S
N921 C923 1.356 . S
N921 H926 0.984 . S
N921 H927 0.985 . S
C922 C916 1.379 . S
C922 C919 1.363 . S
C922 N920 1.356 . S
C923 C917 1.363 . S
C923 C918 1.379 . S
C923 N921 1.356 . S
N924 C916 1.356 . S
N924 H930 0.984 . S
N924 H931 0.984 . S
N925 C918 1.356 . S
N925 H928 0.984 . S
N925 H929 0.985 . S
H926 N921 0.984 . S
H927 N921 0.985 . S
H928 N925 0.984 . S
H929 N925 0.985 . S
H930 N924 0.984 . S
H931 N924 0.984 . S
H932 N920 0.984 . S
H933 N920 0.985 . S
C934 C935 1.363 . S
C934 C940 1.379 . S
C934 N942 1.356 . S
C935 C934 1.363 . S
C935 C941 1.363 . S
C936 C937 1.363 . S
C936 C941 1.379 . S
C936 N943 1.356 . S
C937 C936 1.363 . S
C937 C940 1.363 . S
N938 C940 1.356 . S
N938 H950 0.984 . S
N938 H951 0.985 1_655 S
N939 C941 1.356 . S
N939 H944 0.984 . S
N939 H945 0.985 . S
C940 C934 1.379 . S
C940 C937 1.363 . S
C940 N938 1.356 . S
C941 C935 1.363 . S
C941 C936 1.379 . S
C941 N939 1.356 . S
N942 C934 1.356 . S
N942 H948 0.984 . S
N942 H949 0.984 . S
N943 C936 1.356 . S
N943 H946 0.984 . S
N943 H947 0.985 . S
H944 N939 0.984 . S
H945 N939 0.985 . S
H946 N943 0.984 . S
H947 N943 0.985 . S
H948 N942 0.984 . S
H949 N942 0.984 . S
H950 N938 0.984 . S
H951 N938 0.985 1_455 S
C952 C953 1.363 . S
C952 C958 1.379 . S
C952 N960 1.356 . S
C953 C952 1.363 . S
C953 C959 1.363 . S
C954 C955 1.363 . S
C954 C959 1.379 . S
C954 N961 1.356 . S
C955 C954 1.363 . S
C955 C958 1.363 . S
N956 C958 1.356 . S
N956 H968 0.984 . S
N956 H969 0.985 . S
N957 C959 1.356 . S
N957 H962 0.984 . S
N957 H963 0.985 . S
C958 C952 1.379 . S
C958 C955 1.363 . S
C958 N956 1.356 . S
C959 C953 1.363 . S
C959 C954 1.379 . S
C959 N957 1.356 . S
N960 C952 1.356 . S
N960 H966 0.984 . S
N960 H967 0.984 . S
N961 C954 1.356 . S
N961 H964 0.984 . S
N961 H965 0.985 . S
H962 N957 0.984 . S
H963 N957 0.985 . S
H964 N961 0.984 . S
H965 N961 0.985 . S
H966 N960 0.984 . S
H967 N960 0.984 . S
H968 N956 0.984 . S
H969 N956 0.985 . S
C970 C971 1.363 . S
C970 C976 1.379 . S
C970 N978 1.356 . S
C971 C970 1.363 . S
C971 C977 1.363 . S
C972 C973 1.363 . S
C972 C977 1.379 . S
C972 N979 1.356 . S
C973 C972 1.363 . S
C973 C976 1.363 . S
N974 C976 1.356 . S
N974 H986 0.984 . S
N974 H987 0.985 . S
N975 C977 1.356 . S
N975 H980 0.984 . S
N975 H981 0.985 . S
C976 C970 1.379 . S
C976 C973 1.363 . S
C976 N974 1.356 . S
C977 C971 1.363 . S
C977 C972 1.379 . S
C977 N975 1.356 . S
N978 C970 1.356 . S
N978 H984 0.984 . S
N978 H985 0.984 . S
N979 C972 1.356 . S
N979 H982 0.984 1_455 S
N979 H983 0.985 . S
H980 N975 0.984 . S
H981 N975 0.985 . S
H982 N979 0.984 1_655 S
H983 N979 0.985 . S
H984 N978 0.984 . S
H985 N978 0.984 . S
H986 N974 0.984 . S
H987 N974 0.985 . S
C988 C989 1.363 . S
C988 C994 1.379 . S
C988 N996 1.356 . S
C989 C988 1.363 . S
C989 C995 1.363 . S
C990 C991 1.363 . S
C990 C995 1.379 . S
C990 N997 1.356 . S
C991 C990 1.363 . S
C991 C994 1.363 . S
N992 C994 1.356 . S
N992 H1004 0.984 . S
N992 H1005 0.985 . S
N993 C995 1.356 . S
N993 H998 0.984 . S
N993 H999 0.985 . S
C994 C988 1.379 . S
C994 C991 1.363 . S
C994 N992 1.356 . S
C995 C989 1.363 . S
C995 C990 1.379 . S
C995 N993 1.356 . S
N996 C988 1.356 . S
N996 H1002 0.984 . S
N996 H1003 0.984 . S
N997 C990 1.356 . S
N997 H1000 0.984 . S
N997 H1001 0.985 . S
H998 N993 0.984 . S
H999 N993 0.985 . S
H1000 N997 0.984 . S
H1001 N997 0.985 . S
H1002 N996 0.984 . S
H1003 N996 0.984 . S
H1004 N992 0.984 . S
H1005 N992 0.985 . S
C1006 C1007 1.363 . S
C1006 C1012 1.379 . S
C1006 N1014 1.356 . S
C1007 C1006 1.363 . S
C1007 C1013 1.363 . S
C1008 C1009 1.363 . S
C1008 C1013 1.379 . S
C1008 N1015 1.356 . S
C1009 C1008 1.363 . S
C1009 C1012 1.363 . S
N1010 C1012 1.356 . S
N1010 H1022 0.984 . S
N1010 H1023 0.985 . S
N1011 C1013 1.356 . S
N1011 H1016 0.984 . S
N1011 H1017 0.985 . S
C1012 C1006 1.379 . S
C1012 C1009 1.363 . S
C1012 N1010 1.356 . S
C1013 C1007 1.363 . S
C1013 C1008 1.379 . S
C1013 N1011 1.356 . S
N1014 C1006 1.356 . S
N1014 H1020 0.984 . S
N1014 H1021 0.984 1_455 S
N1015 C1008 1.356 . S
N1015 H1018 0.984 . S
N1015 H1019 0.985 . S
H1016 N1011 0.984 . S
H1017 N1011 0.985 . S
H1018 N1015 0.984 . S
H1019 N1015 0.985 . S
H1020 N1014 0.984 . S
H1021 N1014 0.984 1_655 S
H1022 N1010 0.984 . S
H1023 N1010 0.985 . S
C1024 C1025 1.363 1_455 S
C1024 C1030 1.379 . S
C1024 N1032 1.356 1_455 S
C1025 C1024 1.363 1_655 S
C1025 C1031 1.363 . S
C1026 C1027 1.363 1_655 S
C1026 C1031 1.379 . S
C1026 N1033 1.356 1_655 S
C1027 C1026 1.363 1_455 S
C1027 C1030 1.363 . S
N1028 C1030 1.356 . S
N1028 H1040 0.984 . S
N1028 H1041 0.985 . S
N1029 C1031 1.356 . S
N1029 H1034 0.984 . S
N1029 H1035 0.985 . S
C1030 C1024 1.379 . S
C1030 C1027 1.363 . S
C1030 N1028 1.356 . S
C1031 C1025 1.363 . S
C1031 C1026 1.379 . S
C1031 N1029 1.356 . S
N1032 C1024 1.356 1_655 S
N1032 H1038 0.985 1_655 S
N1032 H1039 0.984 . S
N1033 C1026 1.356 1_455 S
N1033 H1036 0.984 . S
N1033 H1037 0.985 1_455 S
H1034 N1029 0.984 . S
H1035 N1029 0.985 . S
H1036 N1033 0.984 . S
H1037 N1033 0.985 1_655 S
H1038 N1032 0.985 1_455 S
H1039 N1032 0.984 . S
H1040 N1028 0.984 . S
H1041 N1028 0.985 . S
C1042 C1043 1.363 . S
C1042 C1048 1.379 . S
C1042 N1050 1.356 . S
C1043 C1042 1.363 . S
C1043 C1049 1.363 1_565 S
C1044 C1045 1.363 . S
C1044 C1049 1.379 . S
C1044 N1051 1.356 . S
C1045 C1044 1.363 . S
C1045 C1048 1.363 1_545 S
N1046 C1048 1.364 . S
N1046 H1058 1.030 . S
N1046 H1059 0.933 1_565 S
N1047 C1049 1.364 . S
N1047 H1052 0.933 1_545 S
N1047 H1053 1.030 . S
C1048 C1042 1.379 . S
C1048 C1045 1.363 1_565 S
C1048 N1046 1.364 . S
C1049 C1043 1.363 1_545 S
C1049 C1044 1.379 . S
C1049 N1047 1.364 . S
N1050 C1042 1.356 . S
N1050 H1056 0.984 . S
N1050 H1057 0.984 . S
N1051 C1044 1.356 . S
N1051 H1054 0.984 . S
N1051 H1055 0.985 . S
H1052 N1047 0.933 1_565 S
H1053 N1047 1.030 . S
H1054 N1051 0.984 . S
H1055 N1051 0.985 . S
H1056 N1050 0.984 . S
H1057 N1050 0.984 . S
H1058 N1046 1.030 . S
H1059 N1046 0.933 1_545 S
C1060 C1061 1.363 1_455 S
C1060 C1066 1.379 1_545 S
C1060 N1068 1.356 . S
C1061 C1060 1.363 1_655 S
C1061 C1067 1.363 1_554 S
C1062 C1063 1.363 1_655 S
C1062 C1067 1.379 1_565 S
C1062 N1069 1.356 . S
C1063 C1062 1.363 1_455 S
C1063 C1066 1.363 1_556 S
N1064 C1066 1.356 . S
N1064 H1076 0.984 . S
N1064 H1077 0.985 1_554 S
N1065 C1067 1.356 . S
N1065 H1070 0.984 1_556 S
N1065 H1071 0.985 . S
C1066 C1060 1.379 1_565 S
C1066 C1063 1.363 1_554 S
C1066 N1064 1.356 . S
C1067 C1061 1.363 1_556 S
C1067 C1062 1.379 1_545 S
C1067 N1065 1.356 . S
N1068 C1060 1.356 . S
N1068 H1074 0.984 . S
N1068 H1075 0.984 . S
N1069 C1062 1.356 . S
N1069 H1072 0.984 . S
N1069 H1073 0.985 . S
H1070 N1065 0.984 1_554 S
H1071 N1065 0.985 . S
H1072 N1069 0.984 . S
H1073 N1069 0.985 . S
H1074 N1068 0.984 . S
H1075 N1068 0.984 . S
H1076 N1064 0.984 . S
H1077 N1064 0.985 1_556 S
C1078 C1079 1.363 . S
C1078 C1084 1.385 . S
C1078 N1086 1.356 . S
C1079 C1078 1.363 . S
C1079 C1085 1.357 1_554 S
C1080 C1081 1.363 . S
C1080 C1085 1.385 . S
C1080 N1087 1.356 . S
C1081 C1080 1.363 . S
C1081 C1084 1.357 1_556 S
N1082 C1084 1.354 1_556 S
N1082 H1094 0.984 1_556 S
N1082 H1095 0.985 . S
N1083 C1085 1.354 1_554 S
N1083 H1088 0.984 . S
N1083 H1089 0.985 1_554 S
C1084 C1078 1.385 . S
C1084 C1081 1.357 1_554 S
C1084 N1082 1.354 1_554 S
C1085 C1079 1.357 1_556 S
C1085 C1080 1.385 . S
C1085 N1083 1.354 1_556 S
N1086 C1078 1.356 . S
N1086 H1092 0.984 . S
N1086 H1093 0.984 . S
N1087 C1080 1.356 . S
N1087 H1090 0.984 . S
N1087 H1091 0.985 . S
H1088 N1083 0.984 . S
H1089 N1083 0.985 1_556 S
H1090 N1087 0.984 . S
H1091 N1087 0.985 . S
H1092 N1086 0.984 . S
H1093 N1086 0.984 . S
H1094 N1082 0.984 1_554 S
H1095 N1082 0.985 . S
C1096 C1097 1.363 1_455 S
C1096 C1102 1.379 . S
C1096 N1104 1.356 . S
C1097 C1096 1.363 1_655 S
C1097 C1103 1.363 . S
C1098 C1099 1.363 1_655 S
C1098 C1103 1.379 . S
C1098 N1105 1.356 . S
C1099 C1098 1.363 1_455 S
C1099 C1102 1.363 . S
N1100 C1102 1.356 . S
N1100 H1112 0.984 . S
N1100 H1113 0.985 . S
N1101 C1103 1.356 . S
N1101 H1106 0.984 . S
N1101 H1107 0.985 . S
C1102 C1096 1.379 . S
C1102 C1099 1.363 . S
C1102 N1100 1.356 . S
C1103 C1097 1.363 . S
C1103 C1098 1.379 . S
C1103 N1101 1.356 . S
N1104 C1096 1.356 . S
N1104 H1110 0.984 . S
N1104 H1111 0.984 . S
N1105 C1098 1.356 . S
N1105 H1108 0.984 . S
N1105 H1109 0.985 . S
H1106 N1101 0.984 . S
H1107 N1101 0.985 . S
H1108 N1105 0.984 . S
H1109 N1105 0.985 . S
H1110 N1104 0.984 . S
H1111 N1104 0.984 . S
H1112 N1100 0.984 . S
H1113 N1100 0.985 . S
C1114 C1115 1.363 1_545 S
C1114 C1120 1.379 . S
C1114 N1122 1.356 1_545 S
C1115 C1114 1.363 1_565 S
C1115 C1121 1.363 . S
C1116 C1117 1.363 1_565 S
C1116 C1121 1.379 . S
C1116 N1123 1.356 1_565 S
C1117 C1116 1.363 1_545 S
C1117 C1120 1.363 . S
N1118 C1120 1.356 . S
N1118 H1130 0.984 . S
N1118 H1131 0.985 . S
N1119 C1121 1.356 . S
N1119 H1124 0.984 . S
N1119 H1125 0.985 . S
C1120 C1114 1.379 . S
C1120 C1117 1.363 . S
C1120 N1118 1.356 . S
C1121 C1115 1.363 . S
C1121 C1116 1.379 . S
C1121 N1119 1.356 . S
N1122 C1114 1.356 1_565 S
N1122 H1128 0.984 1_565 S
N1122 H1129 0.984 . S
N1123 C1116 1.356 1_545 S
N1123 H1126 0.984 . S
N1123 H1127 0.985 1_545 S
H1124 N1119 0.984 . S
H1125 N1119 0.985 . S
H1126 N1123 0.984 . S
H1127 N1123 0.985 1_565 S
H1128 N1122 0.984 1_545 S
H1129 N1122 0.984 . S
H1130 N1118 0.984 . S
H1131 N1118 0.985 . S
C1132 C1133 1.363 . S
C1132 C1138 1.379 1_556 S
C1132 N1140 1.356 . S
C1133 C1132 1.363 . S
C1133 C1139 1.363 . S
C1134 C1135 1.363 . S
C1134 C1139 1.379 1_554 S
C1134 N1141 1.356 . S
C1135 C1134 1.363 . S
C1135 C1138 1.363 . S
N1136 C1138 1.356 . S
N1136 H1148 0.984 1_554 S
N1136 H1149 0.985 . S
N1137 C1139 1.356 . S
N1137 H1142 0.984 . S
N1137 H1143 0.985 1_556 S
C1138 C1132 1.379 1_554 S
C1138 C1135 1.363 . S
C1138 N1136 1.356 . S
C1139 C1133 1.363 . S
C1139 C1134 1.379 1_556 S
C1139 N1137 1.356 . S
N1140 C1132 1.356 . S
N1140 H1146 0.984 . S
N1140 H1147 0.984 . S
N1141 C1134 1.356 . S
N1141 H1144 0.984 . S
N1141 H1145 0.985 . S
H1142 N1137 0.984 . S
H1143 N1137 0.985 1_554 S
H1144 N1141 0.984 . S
H1145 N1141 0.985 . S
H1146 N1140 0.984 . S
H1147 N1140 0.984 . S
H1148 N1136 0.984 1_556 S
H1149 N1136 0.985 . S
C1150 C1151 1.363 . S
C1150 C1156 1.379 . S
C1150 N1158 1.356 . S
C1151 C1150 1.363 . S
C1151 C1157 1.363 . S
C1152 C1153 1.363 . S
C1152 C1157 1.379 . S
C1152 N1159 1.356 . S
C1153 C1152 1.363 . S
C1153 C1156 1.363 . S
N1154 C1156 1.356 . S
N1154 H1166 0.984 . S
N1154 H1167 0.985 . S
N1155 C1157 1.356 . S
N1155 H1160 0.984 . S
N1155 H1161 0.985 . S
C1156 C1150 1.379 . S
C1156 C1153 1.363 . S
C1156 N1154 1.356 . S
C1157 C1151 1.363 . S
C1157 C1152 1.379 . S
C1157 N1155 1.356 . S
N1158 C1150 1.356 . S
N1158 H1164 0.984 . S
N1158 H1165 0.984 . S
N1159 C1152 1.356 . S
N1159 H1162 0.984 . S
N1159 H1163 0.985 . S
H1160 N1155 0.984 . S
H1161 N1155 0.985 . S
H1162 N1159 0.984 . S
H1163 N1159 0.985 . S
H1164 N1158 0.984 . S
H1165 N1158 0.984 . S
H1166 N1154 0.984 . S
H1167 N1154 0.985 . S
C1168 C1169 1.363 . S
C1168 C1174 1.379 1_455 S
C1168 N1176 1.356 . S
C1169 C1168 1.363 . S
C1169 C1175 1.363 . S
C1170 C1171 1.363 . S
C1170 C1175 1.379 1_655 S
C1170 N1177 1.356 . S
C1171 C1170 1.363 . S
C1171 C1174 1.363 . S
N1172 C1174 1.356 . S
N1172 H1184 0.984 . S
N1172 H1185 0.985 . S
N1173 C1175 1.356 . S
N1173 H1178 0.984 . S
N1173 H1179 0.985 . S
C1174 C1168 1.379 1_655 S
C1174 C1171 1.363 . S
C1174 N1172 1.356 . S
C1175 C1169 1.363 . S
C1175 C1170 1.379 1_455 S
C1175 N1173 1.356 . S
N1176 C1168 1.356 . S
N1176 H1182 0.984 . S
N1176 H1183 0.984 . S
N1177 C1170 1.356 . S
N1177 H1180 0.984 . S
N1177 H1181 0.985 . S
H1178 N1173 0.984 . S
H1179 N1173 0.985 . S
H1180 N1177 0.984 . S
H1181 N1177 0.985 . S
H1182 N1176 0.984 . S
H1183 N1176 0.984 . S
H1184 N1172 0.984 . S
H1185 N1172 0.985 . S
C1186 C1187 1.363 . S
C1186 C1192 1.379 . S
C1186 N1194 1.356 . S
C1187 C1186 1.363 . S
C1187 C1193 1.363 . S
C1188 C1189 1.363 . S
C1188 C1193 1.379 . S
C1188 N1195 1.356 . S
C1189 C1188 1.363 . S
C1189 C1192 1.363 . S
N1190 C1192 1.356 . S
N1190 H1202 0.984 . S
N1190 H1203 0.985 . S
N1191 C1193 1.356 . S
N1191 H1196 0.984 . S
N1191 H1197 0.985 . S
C1192 C1186 1.379 . S
C1192 C1189 1.363 . S
C1192 N1190 1.356 . S
C1193 C1187 1.363 . S
C1193 C1188 1.379 . S
C1193 N1191 1.356 . S
N1194 C1186 1.356 . S
N1194 H1200 0.984 . S
N1194 H1201 0.984 . S
N1195 C1188 1.356 . S
N1195 H1198 0.984 . S
N1195 H1199 0.985 . S
H1196 N1191 0.984 . S
H1197 N1191 0.985 . S
H1198 N1195 0.984 . S
H1199 N1195 0.985 . S
H1200 N1194 0.984 . S
H1201 N1194 0.984 . S
H1202 N1190 0.984 . S
H1203 N1190 0.985 . S
C1204 C1205 1.363 . S
C1204 C1210 1.379 . S
C1204 N1212 1.356 . S
C1205 C1204 1.363 . S
C1205 C1211 1.363 . S
C1206 C1207 1.363 . S
C1206 C1211 1.379 . S
C1206 N1213 1.356 . S
C1207 C1206 1.363 . S
C1207 C1210 1.363 . S
N1208 C1210 1.356 . S
N1208 H1220 0.984 . S
N1208 H1221 0.985 . S
N1209 C1211 1.356 . S
N1209 H1214 0.984 . S
N1209 H1215 0.985 . S
C1210 C1204 1.379 . S
C1210 C1207 1.363 . S
C1210 N1208 1.356 . S
C1211 C1205 1.363 . S
C1211 C1206 1.379 . S
C1211 N1209 1.356 . S
N1212 C1204 1.356 . S
N1212 H1218 0.984 . S
N1212 H1219 0.984 . S
N1213 C1206 1.356 . S
N1213 H1216 0.984 . S
N1213 H1217 0.985 . S
H1214 N1209 0.984 . S
H1215 N1209 0.985 . S
H1216 N1213 0.984 . S
H1217 N1213 0.985 . S
H1218 N1212 0.984 . S
H1219 N1212 0.984 . S
H1220 N1208 0.984 . S
H1221 N1208 0.985 . S
C1222 C1223 1.363 . S
C1222 C1228 1.379 . S
C1222 N1230 1.356 . S
C1223 C1222 1.363 . S
C1223 C1229 1.363 . S
C1224 C1225 1.363 . S
C1224 C1229 1.379 . S
C1224 N1231 1.356 . S
C1225 C1224 1.363 . S
C1225 C1228 1.363 . S
N1226 C1228 1.356 . S
N1226 H1238 0.984 . S
N1226 H1239 0.985 . S
N1227 C1229 1.356 . S
N1227 H1232 0.984 . S
N1227 H1233 0.985 . S
C1228 C1222 1.379 . S
C1228 C1225 1.363 . S
C1228 N1226 1.356 . S
C1229 C1223 1.363 . S
C1229 C1224 1.379 . S
C1229 N1227 1.356 . S
N1230 C1222 1.356 . S
N1230 H1236 0.984 . S
N1230 H1237 0.984 . S
N1231 C1224 1.356 . S
N1231 H1234 0.984 . S
N1231 H1235 0.985 . S
H1232 N1227 0.984 . S
H1233 N1227 0.985 . S
H1234 N1231 0.984 . S
H1235 N1231 0.985 . S
H1236 N1230 0.984 . S
H1237 N1230 0.984 . S
H1238 N1226 0.984 . S
H1239 N1226 0.985 . S
C1240 C1241 1.363 . S
C1240 C1246 1.379 . S
C1240 N1248 1.356 . S
C1241 C1240 1.363 . S
C1241 C1247 1.363 . S
C1242 C1243 1.363 . S
C1242 C1247 1.379 . S
C1242 N1249 1.356 . S
C1243 C1242 1.363 . S
C1243 C1246 1.363 . S
N1244 C1246 1.356 . S
N1244 H1256 0.984 . S
N1244 H1257 0.985 . S
N1245 C1247 1.356 . S
N1245 H1250 0.984 . S
N1245 H1251 0.985 . S
C1246 C1240 1.379 . S
C1246 C1243 1.363 . S
C1246 N1244 1.356 . S
C1247 C1241 1.363 . S
C1247 C1242 1.379 . S
C1247 N1245 1.356 . S
N1248 C1240 1.356 . S
N1248 H1254 0.984 . S
N1248 H1255 0.984 . S
N1249 C1242 1.356 . S
N1249 H1252 0.984 . S
N1249 H1253 0.985 . S
H1250 N1245 0.984 . S
H1251 N1245 0.985 . S
H1252 N1249 0.984 . S
H1253 N1249 0.985 . S
H1254 N1248 0.984 . S
H1255 N1248 0.984 . S
H1256 N1244 0.984 . S
H1257 N1244 0.985 . S
C1258 C1259 1.335 1_565 S
C1258 C1264 1.405 . S
C1258 N1266 1.349 1_565 S
C1259 C1258 1.335 1_545 S
C1259 C1265 1.363 . S
C1260 C1261 1.335 1_545 S
C1260 C1265 1.405 . S
C1260 N1267 1.349 1_545 S
C1261 C1260 1.335 1_565 S
C1261 C1264 1.363 . S
N1262 C1264 1.356 . S
N1262 H1274 0.984 . S
N1262 H1275 0.985 . S
N1263 C1265 1.356 . S
N1263 H1268 0.984 . S
N1263 H1269 0.985 . S
C1264 C1258 1.405 . S
C1264 C1261 1.363 . S
C1264 N1262 1.356 . S
C1265 C1259 1.363 . S
C1265 C1260 1.405 . S
C1265 N1263 1.356 . S
N1266 C1258 1.349 1_545 S
N1266 H1272 0.984 1_545 S
N1266 H1273 0.984 . S
N1267 C1260 1.349 1_565 S
N1267 H1270 0.984 . S
N1267 H1271 0.985 1_565 S
H1268 N1263 0.984 . S
H1269 N1263 0.985 . S
H1270 N1267 0.984 . S
H1271 N1267 0.985 1_545 S
H1272 N1266 0.984 1_565 S
H1273 N1266 0.984 . S
H1274 N1262 0.984 . S
H1275 N1262 0.985 . S
C1276 C1277 1.363 . S
C1276 C1282 1.379 . S
C1276 N1284 1.356 . S
C1277 C1276 1.363 . S
C1277 C1283 1.363 . S
C1278 C1279 1.363 . S
C1278 C1283 1.379 . S
C1278 N1285 1.356 . S
C1279 C1278 1.363 . S
C1279 C1282 1.363 . S
N1280 C1282 1.356 . S
N1280 H1292 0.984 . S
N1280 H1293 0.985 . S
N1281 C1283 1.356 . S
N1281 H1286 0.984 . S
N1281 H1287 0.985 . S
C1282 C1276 1.379 . S
C1282 C1279 1.363 . S
C1282 N1280 1.356 . S
C1283 C1277 1.363 . S
C1283 C1278 1.379 . S
C1283 N1281 1.356 . S
N1284 C1276 1.356 . S
N1284 H1290 0.984 . S
N1284 H1291 0.984 . S
N1285 C1278 1.356 . S
N1285 H1288 0.984 . S
N1285 H1289 0.985 . S
H1286 N1281 0.984 . S
H1287 N1281 0.985 . S
H1288 N1285 0.984 . S
H1289 N1285 0.985 . S
H1290 N1284 0.984 . S
H1291 N1284 0.984 . S
H1292 N1280 0.984 . S
H1293 N1280 0.985 . S
C1294 C1295 1.363 . S
C1294 C1300 1.379 . S
C1294 N1302 1.356 . S
C1295 C1294 1.363 . S
C1295 C1301 1.363 1_556 S
C1296 C1297 1.363 . S
C1296 C1301 1.379 . S
C1296 N1303 1.356 . S
C1297 C1296 1.363 . S
C1297 C1300 1.363 1_554 S
N1298 C1300 1.356 . S
N1298 H1310 0.984 . S
N1298 H1311 0.985 1_556 S
N1299 C1301 1.356 . S
N1299 H1304 0.984 1_554 S
N1299 H1305 0.985 . S
C1300 C1294 1.379 . S
C1300 C1297 1.363 1_556 S
C1300 N1298 1.356 . S
C1301 C1295 1.363 1_554 S
C1301 C1296 1.379 . S
C1301 N1299 1.356 . S
N1302 C1294 1.356 . S
N1302 H1308 0.984 . S
N1302 H1309 0.984 . S
N1303 C1296 1.356 . S
N1303 H1306 0.984 . S
N1303 H1307 0.985 . S
H1304 N1299 0.984 1_556 S
H1305 N1299 0.985 . S
H1306 N1303 0.984 . S
H1307 N1303 0.985 . S
H1308 N1302 0.984 . S
H1309 N1302 0.984 . S
H1310 N1298 0.984 . S
H1311 N1298 0.985 1_554 S
C1312 C1313 1.363 . S
C1312 C1318 1.379 . S
C1312 N1320 1.356 . S
C1313 C1312 1.363 . S
C1313 C1319 1.363 . S
C1314 C1315 1.363 . S
C1314 C1319 1.379 . S
C1314 N1321 1.356 . S
C1315 C1314 1.363 . S
C1315 C1318 1.363 . S
N1316 C1318 1.356 . S
N1316 H1328 0.984 . S
N1316 H1329 0.985 . S
N1317 C1319 1.356 . S
N1317 H1322 0.984 . S
N1317 H1323 0.985 . S
C1318 C1312 1.379 . S
C1318 C1315 1.363 . S
C1318 N1316 1.356 . S
C1319 C1313 1.363 . S
C1319 C1314 1.379 . S
C1319 N1317 1.356 . S
N1320 C1312 1.356 . S
N1320 H1326 0.984 . S
N1320 H1327 0.984 . S
N1321 C1314 1.356 . S
N1321 H1324 0.984 . S
N1321 H1325 0.985 . S
H1322 N1317 0.984 . S
H1323 N1317 0.985 . S
H1324 N1321 0.984 . S
H1325 N1321 0.985 . S
H1326 N1320 0.984 . S
H1327 N1320 0.984 . S
H1328 N1316 0.984 . S
H1329 N1316 0.985 . S
C1330 C1331 1.363 . S
C1330 C1336 1.379 . S
C1330 N1338 1.356 . S
C1331 C1330 1.363 . S
C1331 C1337 1.363 . S
C1332 C1333 1.363 . S
C1332 C1337 1.379 . S
C1332 N1339 1.356 . S
C1333 C1332 1.363 . S
C1333 C1336 1.363 . S
N1334 C1336 1.356 . S
N1334 H1346 0.984 . S
N1334 H1347 0.985 . S
N1335 C1337 1.356 . S
N1335 H1340 0.984 . S
N1335 H1341 0.985 . S
C1336 C1330 1.379 . S
C1336 C1333 1.363 . S
C1336 N1334 1.356 . S
C1337 C1331 1.363 . S
C1337 C1332 1.379 . S
C1337 N1335 1.356 . S
N1338 C1330 1.356 . S
N1338 H1344 0.984 . S
N1338 H1345 0.984 . S
N1339 C1332 1.356 . S
N1339 H1342 0.984 . S
N1339 H1343 0.985 . S
H1340 N1335 0.984 . S
H1341 N1335 0.985 . S
H1342 N1339 0.984 . S
H1343 N1339 0.985 . S
H1344 N1338 0.984 . S
H1345 N1338 0.984 . S
H1346 N1334 0.984 . S
H1347 N1334 0.985 . S
C1348 C1349 1.363 . S
C1348 C1354 1.379 . S
C1348 N1356 1.356 . S
C1349 C1348 1.363 . S
C1349 C1355 1.363 . S
C1350 C1351 1.363 . S
C1350 C1355 1.379 . S
C1350 N1357 1.356 . S
C1351 C1350 1.363 . S
C1351 C1354 1.363 . S
N1352 C1354 1.356 . S
N1352 H1364 0.984 . S
N1352 H1365 0.985 . S
N1353 C1355 1.356 . S
N1353 H1358 0.984 . S
N1353 H1359 0.985 . S
C1354 C1348 1.379 . S
C1354 C1351 1.363 . S
C1354 N1352 1.356 . S
C1355 C1349 1.363 . S
C1355 C1350 1.379 . S
C1355 N1353 1.356 . S
N1356 C1348 1.356 . S
N1356 H1362 0.984 . S
N1356 H1363 0.984 . S
N1357 C1350 1.356 . S
N1357 H1360 0.984 . S
N1357 H1361 0.985 . S
H1358 N1353 0.984 . S
H1359 N1353 0.985 . S
H1360 N1357 0.984 . S
H1361 N1357 0.985 . S
H1362 N1356 0.984 . S
H1363 N1356 0.984 . S
H1364 N1352 0.984 . S
H1365 N1352 0.985 . S
C1366 C1367 1.363 . S
C1366 C1372 1.379 . S
C1366 N1374 1.356 . S
C1367 C1366 1.363 . S
C1367 C1373 1.363 . S
C1368 C1369 1.363 . S
C1368 C1373 1.379 . S
C1368 N1375 1.356 . S
C1369 C1368 1.363 . S
C1369 C1372 1.363 . S
N1370 C1372 1.356 . S
N1370 H1382 0.984 . S
N1370 H1383 0.985 . S
N1371 C1373 1.356 . S
N1371 H1376 0.984 . S
N1371 H1377 0.985 . S
C1372 C1366 1.379 . S
C1372 C1369 1.363 . S
C1372 N1370 1.356 . S
C1373 C1367 1.363 . S
C1373 C1368 1.379 . S
C1373 N1371 1.356 . S
N1374 C1366 1.356 . S
N1374 H1380 0.984 . S
N1374 H1381 0.984 . S
N1375 C1368 1.356 . S
N1375 H1378 0.984 . S
N1375 H1379 0.985 . S
H1376 N1371 0.984 . S
H1377 N1371 0.985 . S
H1378 N1375 0.984 . S
H1379 N1375 0.985 . S
H1380 N1374 0.984 . S
H1381 N1374 0.984 . S
H1382 N1370 0.984 . S
H1383 N1370 0.985 . S
C1384 C1385 1.363 . S
C1384 C1390 1.379 . S
C1384 N1392 1.356 . S
C1385 C1384 1.363 . S
C1385 C1391 1.363 . S
C1386 C1387 1.363 . S
C1386 C1391 1.379 . S
C1386 N1393 1.356 . S
C1387 C1386 1.363 . S
C1387 C1390 1.363 . S
N1388 C1390 1.356 . S
N1388 H1400 0.984 . S
N1388 H1401 0.985 . S
N1389 C1391 1.356 . S
N1389 H1394 0.984 . S
N1389 H1395 0.985 . S
C1390 C1384 1.379 . S
C1390 C1387 1.363 . S
C1390 N1388 1.356 . S
C1391 C1385 1.363 . S
C1391 C1386 1.379 . S
C1391 N1389 1.356 . S
N1392 C1384 1.356 . S
N1392 H1398 0.984 . S
N1392 H1399 0.984 . S
N1393 C1386 1.356 . S
N1393 H1396 0.984 . S
N1393 H1397 0.985 . S
H1394 N1389 0.984 . S
H1395 N1389 0.985 . S
H1396 N1393 0.984 . S
H1397 N1393 0.985 . S
H1398 N1392 0.984 . S
H1399 N1392 0.984 . S
H1400 N1388 0.984 . S
H1401 N1388 0.985 . S
C1402 C1403 1.363 . S
C1402 C1408 1.379 . S
C1402 N1410 1.356 . S
C1403 C1402 1.363 . S
C1403 C1409 1.363 . S
C1404 C1405 1.363 . S
C1404 C1409 1.379 . S
C1404 N1411 1.356 . S
C1405 C1404 1.363 . S
C1405 C1408 1.363 . S
N1406 C1408 1.356 . S
N1406 H1418 0.984 . S
N1406 H1419 0.985 . S
N1407 C1409 1.356 . S
N1407 H1412 0.984 . S
N1407 H1413 0.985 . S
C1408 C1402 1.379 . S
C1408 C1405 1.363 . S
C1408 N1406 1.356 . S
C1409 C1403 1.363 . S
C1409 C1404 1.379 . S
C1409 N1407 1.356 . S
N1410 C1402 1.356 . S
N1410 H1416 0.984 . S
N1410 H1417 0.984 . S
N1411 C1404 1.356 . S
N1411 H1414 0.984 . S
N1411 H1415 0.985 . S
H1412 N1407 0.984 . S
H1413 N1407 0.985 . S
H1414 N1411 0.984 . S
H1415 N1411 0.985 . S
H1416 N1410 0.984 . S
H1417 N1410 0.984 . S
H1418 N1406 0.984 . S
H1419 N1406 0.985 . S
C1420 C1421 1.363 . S
C1420 C1426 1.379 . S
C1420 N1428 1.356 . S
C1421 C1420 1.363 . S
C1421 C1427 1.363 . S
C1422 C1423 1.363 . S
C1422 C1427 1.379 . S
C1422 N1429 1.356 . S
C1423 C1422 1.363 . S
C1423 C1426 1.363 . S
N1424 C1426 1.356 . S
N1424 H1436 0.984 . S
N1424 H1437 0.985 . S
N1425 C1427 1.356 . S
N1425 H1430 0.984 . S
N1425 H1431 0.985 . S
C1426 C1420 1.379 . S
C1426 C1423 1.363 . S
C1426 N1424 1.356 . S
C1427 C1421 1.363 . S
C1427 C1422 1.379 . S
C1427 N1425 1.356 . S
N1428 C1420 1.356 . S
N1428 H1434 0.984 . S
N1428 H1435 0.984 . S
N1429 C1422 1.356 . S
N1429 H1432 0.984 . S
N1429 H1433 0.985 . S
H1430 N1425 0.984 . S
H1431 N1425 0.985 . S
H1432 N1429 0.984 . S
H1433 N1429 0.985 . S
H1434 N1428 0.984 . S
H1435 N1428 0.984 . S
H1436 N1424 0.984 . S
H1437 N1424 0.985 . S
C1438 C1439 1.363 . S
C1438 C1444 1.379 . S
C1438 N1446 1.356 . S
C1439 C1438 1.363 . S
C1439 C1445 1.363 . S
C1440 C1441 1.363 . S
C1440 C1445 1.379 . S
C1440 N1447 1.356 . S
C1441 C1440 1.363 . S
C1441 C1444 1.363 . S
N1442 C1444 1.356 . S
N1442 H1454 0.984 . S
N1442 H1455 0.985 . S
N1443 C1445 1.356 . S
N1443 H1448 0.984 . S
N1443 H1449 0.985 . S
C1444 C1438 1.379 . S
C1444 C1441 1.363 . S
C1444 N1442 1.356 . S
C1445 C1439 1.363 . S
C1445 C1440 1.379 . S
C1445 N1443 1.356 . S
N1446 C1438 1.356 . S
N1446 H1452 0.984 . S
N1446 H1453 0.984 . S
N1447 C1440 1.356 . S
N1447 H1450 0.984 . S
N1447 H1451 0.985 . S
H1448 N1443 0.984 . S
H1449 N1443 0.985 . S
H1450 N1447 0.984 . S
H1451 N1447 0.985 . S
H1452 N1446 0.984 . S
H1453 N1446 0.984 . S
H1454 N1442 0.984 . S
H1455 N1442 0.985 . S
C1456 C1457 1.363 . S
C1456 C1462 1.379 . S
C1456 N1464 1.356 . S
C1457 C1456 1.363 . S
C1457 C1463 1.363 . S
C1458 C1459 1.363 . S
C1458 C1463 1.379 . S
C1458 N1465 1.356 . S
C1459 C1458 1.363 . S
C1459 C1462 1.363 . S
N1460 C1462 1.356 . S
N1460 H1472 0.984 . S
N1460 H1473 0.985 . S
N1461 C1463 1.356 . S
N1461 H1466 0.984 . S
N1461 H1467 0.985 . S
C1462 C1456 1.379 . S
C1462 C1459 1.363 . S
C1462 N1460 1.356 . S
C1463 C1457 1.363 . S
C1463 C1458 1.379 . S
C1463 N1461 1.356 . S
N1464 C1456 1.356 . S
N1464 H1470 0.984 . S
N1464 H1471 0.984 . S
N1465 C1458 1.356 . S
N1465 H1468 0.984 . S
N1465 H1469 0.985 . S
H1466 N1461 0.984 . S
H1467 N1461 0.985 . S
H1468 N1465 0.984 . S
H1469 N1465 0.985 . S
H1470 N1464 0.984 . S
H1471 N1464 0.984 . S
H1472 N1460 0.984 . S
H1473 N1460 0.985 . S
C1474 C1475 1.363 . S
C1474 C1480 1.379 . S
C1474 N1482 1.356 . S
C1475 C1474 1.363 . S
C1475 C1481 1.363 . S
C1476 C1477 1.363 . S
C1476 C1481 1.379 . S
C1476 N1483 1.356 . S
C1477 C1476 1.363 . S
C1477 C1480 1.363 . S
N1478 C1480 1.356 . S
N1478 H1490 0.984 . S
N1478 H1491 0.985 . S
N1479 C1481 1.356 . S
N1479 H1484 0.984 . S
N1479 H1485 0.985 . S
C1480 C1474 1.379 . S
C1480 C1477 1.363 . S
C1480 N1478 1.356 . S
C1481 C1475 1.363 . S
C1481 C1476 1.379 . S
C1481 N1479 1.356 . S
N1482 C1474 1.356 . S
N1482 H1488 0.984 . S
N1482 H1489 0.984 . S
N1483 C1476 1.356 . S
N1483 H1486 0.984 . S
N1483 H1487 0.985 . S
H1484 N1479 0.984 . S
H1485 N1479 0.985 . S
H1486 N1483 0.984 . S
H1487 N1483 0.985 . S
H1488 N1482 0.984 . S
H1489 N1482 0.984 . S
H1490 N1478 0.984 . S
H1491 N1478 0.985 . S
C1492 C1493 1.363 . S
C1492 C1498 1.379 . S
C1492 N1500 1.356 . S
C1493 C1492 1.363 . S
C1493 C1499 1.363 . S
C1494 C1495 1.363 . S
C1494 C1499 1.379 . S
C1494 N1501 1.356 . S
C1495 C1494 1.363 . S
C1495 C1498 1.363 . S
N1496 C1498 1.356 . S
N1496 H1508 0.984 . S
N1496 H1509 0.985 . S
N1497 C1499 1.356 . S
N1497 H1502 0.984 . S
N1497 H1503 0.985 . S
C1498 C1492 1.379 . S
C1498 C1495 1.363 . S
C1498 N1496 1.356 . S
C1499 C1493 1.363 . S
C1499 C1494 1.379 . S
C1499 N1497 1.356 . S
N1500 C1492 1.356 . S
N1500 H1506 0.984 . S
N1500 H1507 0.984 . S
N1501 C1494 1.356 . S
N1501 H1504 0.984 . S
N1501 H1505 0.985 . S
H1502 N1497 0.984 . S
H1503 N1497 0.985 . S
H1504 N1501 0.984 . S
H1505 N1501 0.985 . S
H1506 N1500 0.984 . S
H1507 N1500 0.984 . S
H1508 N1496 0.984 . S
H1509 N1496 0.985 . S
C1510 C1511 1.363 . S
C1510 C1516 1.379 . S
C1510 N1518 1.356 . S
C1511 C1510 1.363 . S
C1511 C1517 1.363 . S
C1512 C1513 1.363 . S
C1512 C1517 1.379 . S
C1512 N1519 1.356 . S
C1513 C1512 1.363 . S
C1513 C1516 1.363 . S
N1514 C1516 1.356 . S
N1514 H1526 0.984 . S
N1514 H1527 0.985 . S
N1515 C1517 1.356 . S
N1515 H1520 0.984 . S
N1515 H1521 0.985 . S
C1516 C1510 1.379 . S
C1516 C1513 1.363 . S
C1516 N1514 1.356 . S
C1517 C1511 1.363 . S
C1517 C1512 1.379 . S
C1517 N1515 1.356 . S
N1518 C1510 1.356 . S
N1518 H1524 0.984 . S
N1518 H1525 0.984 . S
N1519 C1512 1.356 . S
N1519 H1522 0.984 . S
N1519 H1523 0.985 . S
H1520 N1515 0.984 . S
H1521 N1515 0.985 . S
H1522 N1519 0.984 . S
H1523 N1519 0.985 . S
H1524 N1518 0.984 . S
H1525 N1518 0.984 . S
H1526 N1514 0.984 . S
H1527 N1514 0.985 . S
C1528 C1529 1.363 . S
C1528 C1534 1.379 . S
C1528 N1536 1.356 . S
C1529 C1528 1.363 . S
C1529 C1535 1.363 . S
C1530 C1531 1.363 . S
C1530 C1535 1.379 . S
C1530 N1537 1.356 . S
C1531 C1530 1.363 . S
C1531 C1534 1.363 . S
N1532 C1534 1.356 . S
N1532 H1544 0.984 . S
N1532 H1545 0.985 . S
N1533 C1535 1.356 . S
N1533 H1538 0.984 . S
N1533 H1539 0.985 . S
C1534 C1528 1.379 . S
C1534 C1531 1.363 . S
C1534 N1532 1.356 . S
C1535 C1529 1.363 . S
C1535 C1530 1.379 . S
C1535 N1533 1.356 . S
N1536 C1528 1.356 . S
N1536 H1542 0.984 . S
N1536 H1543 0.984 . S
N1537 C1530 1.356 . S
N1537 H1540 0.984 . S
N1537 H1541 0.985 . S
H1538 N1533 0.984 . S
H1539 N1533 0.985 . S
H1540 N1537 0.984 . S
H1541 N1537 0.985 . S
H1542 N1536 0.984 . S
H1543 N1536 0.984 . S
H1544 N1532 0.984 . S
H1545 N1532 0.985 . S
C1546 C1547 1.363 . S
C1546 C1552 1.379 . S
C1546 N1554 1.356 . S
C1547 C1546 1.363 . S
C1547 C1553 1.363 . S
C1548 C1549 1.363 . S
C1548 C1553 1.379 . S
C1548 N1555 1.356 . S
C1549 C1548 1.363 . S
C1549 C1552 1.363 . S
N1550 C1552 1.356 . S
N1550 H1562 0.984 . S
N1550 H1563 0.985 . S
N1551 C1553 1.356 . S
N1551 H1556 0.984 . S
N1551 H1557 0.985 . S
C1552 C1546 1.379 . S
C1552 C1549 1.363 . S
C1552 N1550 1.356 . S
C1553 C1547 1.363 . S
C1553 C1548 1.379 . S
C1553 N1551 1.356 . S
N1554 C1546 1.356 . S
N1554 H1560 0.984 . S
N1554 H1561 0.984 . S
N1555 C1548 1.356 . S
N1555 H1558 0.984 . S
N1555 H1559 0.985 . S
H1556 N1551 0.984 . S
H1557 N1551 0.985 . S
H1558 N1555 0.984 . S
H1559 N1555 0.985 . S
H1560 N1554 0.984 . S
H1561 N1554 0.984 . S
H1562 N1550 0.984 . S
H1563 N1550 0.985 . S
C1564 C1565 1.363 . S
C1564 C1570 1.379 . S
C1564 N1572 1.356 . S
C1565 C1564 1.363 . S
C1565 C1571 1.363 . S
C1566 C1567 1.363 . S
C1566 C1571 1.379 . S
C1566 N1573 1.356 . S
C1567 C1566 1.363 . S
C1567 C1570 1.363 . S
N1568 C1570 1.356 . S
N1568 H1580 0.984 . S
N1568 H1581 0.985 . S
N1569 C1571 1.356 . S
N1569 H1574 0.984 . S
N1569 H1575 0.985 . S
C1570 C1564 1.379 . S
C1570 C1567 1.363 . S
C1570 N1568 1.356 . S
C1571 C1565 1.363 . S
C1571 C1566 1.379 . S
C1571 N1569 1.356 . S
N1572 C1564 1.356 . S
N1572 H1578 0.984 . S
N1572 H1579 0.984 . S
N1573 C1566 1.356 . S
N1573 H1576 0.984 . S
N1573 H1577 0.985 . S
H1574 N1569 0.984 . S
H1575 N1569 0.985 . S
H1576 N1573 0.984 . S
H1577 N1573 0.985 . S
H1578 N1572 0.984 . S
H1579 N1572 0.984 . S
H1580 N1568 0.984 . S
H1581 N1568 0.985 . S
C1582 C1583 1.363 . S
C1582 C1588 1.379 . S
C1582 N1590 1.356 . S
C1583 C1582 1.363 . S
C1583 C1589 1.363 . S
C1584 C1585 1.363 . S
C1584 C1589 1.379 . S
C1584 N1591 1.356 . S
C1585 C1584 1.363 . S
C1585 C1588 1.363 . S
N1586 C1588 1.356 . S
N1586 H1598 0.984 . S
N1586 H1599 0.985 . S
N1587 C1589 1.356 . S
N1587 H1592 0.984 . S
N1587 H1593 0.985 . S
C1588 C1582 1.379 . S
C1588 C1585 1.363 . S
C1588 N1586 1.356 . S
C1589 C1583 1.363 . S
C1589 C1584 1.379 . S
C1589 N1587 1.356 . S
N1590 C1582 1.356 . S
N1590 H1596 0.984 . S
N1590 H1597 0.984 . S
N1591 C1584 1.356 . S
N1591 H1594 0.984 . S
N1591 H1595 0.985 . S
H1592 N1587 0.984 . S
H1593 N1587 0.985 . S
H1594 N1591 0.984 . S
H1595 N1591 0.985 . S
H1596 N1590 0.984 . S
H1597 N1590 0.984 . S
H1598 N1586 0.984 . S
H1599 N1586 0.985 . S
C449 C149 1.361 . S
C451 C9 1.361 . S
C467 C23 1.361 . S
C469 C163 1.361 . S
C485 C37 1.361 . S
C487 C121 1.361 . S
C503 C135 1.361 . S
C505 C51 1.361 . S
C521 C205 1.361 . S
C523 C65 1.361 . S
C539 C79 1.361 . S
C541 C219 1.361 . S
C557 C177 1.361 . S
C559 C93 1.361 . S
C575 C191 1.361 . S
C577 C107 1.361 . S
C593 C373 1.361 . S
C595 C233 1.361 . S
C611 C387 1.361 . S
C613 C247 1.361 . S
C629 C345 1.361 . S
C631 C261 1.361 . S
C647 C275 1.361 . S
C649 C359 1.361 . S
C665 C429 1.361 . S
C667 C289 1.361 . S
C683 C443 1.361 . S
C685 C303 1.361 . S
C701 C317 1.361 . S
C703 C401 1.361 . S
C719 C331 1.361 . S
C721 C415 1.361 . S
C737 C277 1.382 . S
C739 C11 1.382 . S
C755 C25 1.382 1_655 S
C757 C263 1.382 . S
C773 C249 1.382 . S
C775 C39 1.382 . S
C791 C235 1.382 . S
C793 C53 1.382 1_655 S
C809 C67 1.382 . S
C811 C333 1.382 . S
C827 C81 1.382 1_455 S
C829 C319 1.382 . S
C845 C305 1.382 . S
C847 C95 1.382 . S
C863 C109 1.382 1_455 S
C865 C291 1.382 . S
C881 C389 1.382 . S
C883 C123 1.382 . S
C899 C375 1.382 . S
C901 C137 1.382 1_655 S
C917 C361 1.382 . S
C919 C151 1.382 . S
C935 C347 1.382 . S
C937 C165 1.382 1_655 S
C953 C179 1.382 . S
C955 C445 1.382 . S
C971 C431 1.382 . S
C973 C193 1.382 1_455 S
C989 C207 1.382 . S
C991 C417 1.382 . S
C1007 C221 1.382 1_455 S
C1009 C403 1.382 . S
C1025 C168 1.465 . S
C1027 C0 1.465 . S
C1043 C14 1.465 . S
C1045 C294 1.465 . S
C1061 C84 1.465 . S
C1063 C28 1.465 . S
C1079 C434 1.465 . S
C1081 C42 1.465 . S
C1097 C56 1.465 . S
C1099 C112 1.465 . S
C1115 C238 1.465 . S
C1117 C70 1.465 . S
C1133 C378 1.465 . S
C1135 C98 1.465 . S
C1151 C406 1.465 . S
C1153 C126 1.465 . S
C1169 C140 1.465 . S
C1171 C196 1.465 . S
C1187 C322 1.465 . S
C1189 C154 1.465 . S
C1205 C350 1.465 . S
C1207 C182 1.465 . S
C1223 C210 1.465 . S
C1225 C266 1.465 . S
C1241 C224 1.465 . S
C1243 C392 1.465 . S
C1259 C308 1.465 . S
C1261 C252 1.465 . S
C1277 C336 1.465 . S
C1279 C280 1.465 . S
C1295 C364 1.465 . S
C1297 C420 1.465 . S
C1313 C5 1.251 . S
C1315 C47 1.251 . S
C1331 C33 1.251 . S
C1333 C19 1.251 . S
C1349 C61 1.251 . S
C1351 C103 1.251 . S
C1367 C75 1.251 . S
C1369 C89 1.251 . S
C1385 C117 1.251 . S
C1387 C159 1.251 . S
C1403 C131 1.251 . S
C1405 C145 1.251 . S
C1421 C173 1.251 . S
C1423 C215 1.251 . S
C1439 C201 1.251 . S
C1441 C187 1.251 . S
C1457 C271 1.251 . S
C1459 C229 1.251 . S
C1475 C257 1.251 . S
C1477 C243 1.251 . S
C1493 C327 1.251 . S
C1495 C285 1.251 . S
C1511 C313 1.251 . S
C1513 C299 1.251 . S
C1529 C383 1.251 . S
C1531 C341 1.251 . S
C1547 C369 1.251 . S
C1549 C355 1.251 . S
C1565 C397 1.251 . S
C1567 C439 1.251 . S
C1583 C425 1.251 . S
C1585 C411 1.251 . S
