# Generated by pormake.
# Topology uli, (4)-cn, num edge types: 1
# Building blocks:
#     Node 0, Type 0, BuildingBlock: QUQFOY_clean_sbu_1, # of connection points: 4
#     Node 1, Type 0, BuildingBlock: QUQFOY_clean_sbu_1, # of connection points: 4
#     Node 2, Type 0, BuildingBlock: QUQFOY_clean_sbu_1, # of connection points: 4
#     Node 3, Type 0, BuildingBlock: QUQFOY_clean_sbu_1, # of connection points: 4
#     Node 4, Type 0, BuildingBlock: QUQFOY_clean_sbu_1, # of connection points: 4
#     Node 5, Type 0, BuildingBlock: QUQFOY_clean_sbu_1, # of connection points: 4
#     Node 6, Type 0, BuildingBlock: QUQFOY_clean_sbu_1, # of connection points: 4
#     Node 7, Type 0, BuildingBlock: QUQFOY_clean_sbu_1, # of connection points: 4
#     Node 8, Type 0, BuildingBlock: QUQFOY_clean_sbu_1, # of connection points: 4
#     Node 9, Type 0, BuildingBlock: QUQFOY_clean_sbu_1, # of connection points: 4
#     Node 10, Type 0, BuildingBlock: QUQFOY_clean_sbu_1, # of connection points: 4
#     Node 11, Type 0, BuildingBlock: QUQFOY_clean_sbu_1, # of connection points: 4
#     Node 12, Type 0, BuildingBlock: QUQFOY_clean_sbu_1, # of connection points: 4
#     Node 13, Type 0, BuildingBlock: QUQFOY_clean_sbu_1, # of connection points: 4
#     Node 14, Type 0, BuildingBlock: QUQFOY_clean_sbu_1, # of connection points: 4
#     Node 15, Type 0, BuildingBlock: QUQFOY_clean_sbu_1, # of connection points: 4
#     Node 16, Type 0, BuildingBlock: QUQFOY_clean_sbu_1, # of connection points: 4
#     Node 17, Type 0, BuildingBlock: QUQFOY_clean_sbu_1, # of connection points: 4
#     Node 18, Type 0, BuildingBlock: QUQFOY_clean_sbu_1, # of connection points: 4
#     Node 19, Type 0, BuildingBlock: QUQFOY_clean_sbu_1, # of connection points: 4
#     Node 20, Type 0, BuildingBlock: QUQFOY_clean_sbu_1, # of connection points: 4
#     Node 21, Type 0, BuildingBlock: QUQFOY_clean_sbu_1, # of connection points: 4
#     Node 22, Type 0, BuildingBlock: QUQFOY_clean_sbu_1, # of connection points: 4
#     Node 23, Type 0, BuildingBlock: QUQFOY_clean_sbu_1, # of connection points: 4
#     Node 24, Type 0, BuildingBlock: QUQFOY_clean_sbu_1, # of connection points: 4
#     Node 25, Type 0, BuildingBlock: QUQFOY_clean_sbu_1, # of connection points: 4
#     Node 26, Type 0, BuildingBlock: QUQFOY_clean_sbu_1, # of connection points: 4
#     Node 27, Type 0, BuildingBlock: QUQFOY_clean_sbu_1, # of connection points: 4
#     Node 28, Type 0, BuildingBlock: QUQFOY_clean_sbu_1, # of connection points: 4
#     Node 29, Type 0, BuildingBlock: QUQFOY_clean_sbu_1, # of connection points: 4
#     Node 30, Type 0, BuildingBlock: QUQFOY_clean_sbu_1, # of connection points: 4
#     Node 31, Type 0, BuildingBlock: QUQFOY_clean_sbu_1, # of connection points: 4
#     Node 32, Type 0, BuildingBlock: QUQFOY_clean_sbu_1, # of connection points: 4
#     Node 33, Type 0, BuildingBlock: QUQFOY_clean_sbu_1, # of connection points: 4
#     Node 34, Type 0, BuildingBlock: QUQFOY_clean_sbu_1, # of connection points: 4
#     Node 35, Type 0, BuildingBlock: QUQFOY_clean_sbu_1, # of connection points: 4
#     Node 36, Type 0, BuildingBlock: QUQFOY_clean_sbu_1, # of connection points: 4
#     Node 37, Type 0, BuildingBlock: QUQFOY_clean_sbu_1, # of connection points: 4
#     Node 38, Type 0, BuildingBlock: QUQFOY_clean_sbu_1, # of connection points: 4
#     Node 39, Type 0, BuildingBlock: QUQFOY_clean_sbu_1, # of connection points: 4
#     Node 40, Type 0, BuildingBlock: QUQFOY_clean_sbu_1, # of connection points: 4
#     Node 41, Type 0, BuildingBlock: QUQFOY_clean_sbu_1, # of connection points: 4
#     Node 42, Type 0, BuildingBlock: QUQFOY_clean_sbu_1, # of connection points: 4
#     Node 43, Type 0, BuildingBlock: QUQFOY_clean_sbu_1, # of connection points: 4
#     Node 44, Type 0, BuildingBlock: QUQFOY_clean_sbu_1, # of connection points: 4
#     Node 45, Type 0, BuildingBlock: QUQFOY_clean_sbu_1, # of connection points: 4
#     Node 46, Type 0, BuildingBlock: QUQFOY_clean_sbu_1, # of connection points: 4
#     Node 47, Type 0, BuildingBlock: QUQFOY_clean_sbu_1, # of connection points: 4
#     Edge 48, Type (0, 0), BuildingBlock: XIVTED_clean_linker_0, # of connection points: 2
#     Edge 49, Type (0, 0), BuildingBlock: XIVTED_clean_linker_0, # of connection points: 2
#     Edge 50, Type (0, 0), BuildingBlock: XIVTED_clean_linker_0, # of connection points: 2
#     Edge 51, Type (0, 0), BuildingBlock: XIVTED_clean_linker_0, # of connection points: 2
#     Edge 52, Type (0, 0), BuildingBlock: XIVTED_clean_linker_0, # of connection points: 2
#     Edge 53, Type (0, 0), BuildingBlock: XIVTED_clean_linker_0, # of connection points: 2
#     Edge 54, Type (0, 0), BuildingBlock: XIVTED_clean_linker_0, # of connection points: 2
#     Edge 55, Type (0, 0), BuildingBlock: XIVTED_clean_linker_0, # of connection points: 2
#     Edge 56, Type (0, 0), BuildingBlock: XIVTED_clean_linker_0, # of connection points: 2
#     Edge 57, Type (0, 0), BuildingBlock: XIVTED_clean_linker_0, # of connection points: 2
#     Edge 58, Type (0, 0), BuildingBlock: XIVTED_clean_linker_0, # of connection points: 2
#     Edge 59, Type (0, 0), BuildingBlock: XIVTED_clean_linker_0, # of connection points: 2
#     Edge 60, Type (0, 0), BuildingBlock: XIVTED_clean_linker_0, # of connection points: 2
#     Edge 61, Type (0, 0), BuildingBlock: XIVTED_clean_linker_0, # of connection points: 2
#     Edge 62, Type (0, 0), BuildingBlock: XIVTED_clean_linker_0, # of connection points: 2
#     Edge 63, Type (0, 0), BuildingBlock: XIVTED_clean_linker_0, # of connection points: 2
#     Edge 64, Type (0, 0), BuildingBlock: XIVTED_clean_linker_0, # of connection points: 2
#     Edge 65, Type (0, 0), BuildingBlock: XIVTED_clean_linker_0, # of connection points: 2
#     Edge 66, Type (0, 0), BuildingBlock: XIVTED_clean_linker_0, # of connection points: 2
#     Edge 67, Type (0, 0), BuildingBlock: XIVTED_clean_linker_0, # of connection points: 2
#     Edge 68, Type (0, 0), BuildingBlock: XIVTED_clean_linker_0, # of connection points: 2
#     Edge 69, Type (0, 0), BuildingBlock: XIVTED_clean_linker_0, # of connection points: 2
#     Edge 70, Type (0, 0), BuildingBlock: XIVTED_clean_linker_0, # of connection points: 2
#     Edge 71, Type (0, 0), BuildingBlock: XIVTED_clean_linker_0, # of connection points: 2
#     Edge 72, Type (0, 0), BuildingBlock: XIVTED_clean_linker_0, # of connection points: 2
#     Edge 73, Type (0, 0), BuildingBlock: XIVTED_clean_linker_0, # of connection points: 2
#     Edge 74, Type (0, 0), BuildingBlock: XIVTED_clean_linker_0, # of connection points: 2
#     Edge 75, Type (0, 0), BuildingBlock: XIVTED_clean_linker_0, # of connection points: 2
#     Edge 76, Type (0, 0), BuildingBlock: XIVTED_clean_linker_0, # of connection points: 2
#     Edge 77, Type (0, 0), BuildingBlock: XIVTED_clean_linker_0, # of connection points: 2
#     Edge 78, Type (0, 0), BuildingBlock: XIVTED_clean_linker_0, # of connection points: 2
#     Edge 79, Type (0, 0), BuildingBlock: XIVTED_clean_linker_0, # of connection points: 2
#     Edge 80, Type (0, 0), BuildingBlock: XIVTED_clean_linker_0, # of connection points: 2
#     Edge 81, Type (0, 0), BuildingBlock: XIVTED_clean_linker_0, # of connection points: 2
#     Edge 82, Type (0, 0), BuildingBlock: XIVTED_clean_linker_0, # of connection points: 2
#     Edge 83, Type (0, 0), BuildingBlock: XIVTED_clean_linker_0, # of connection points: 2
#     Edge 84, Type (0, 0), BuildingBlock: XIVTED_clean_linker_0, # of connection points: 2
#     Edge 85, Type (0, 0), BuildingBlock: XIVTED_clean_linker_0, # of connection points: 2
#     Edge 86, Type (0, 0), BuildingBlock: XIVTED_clean_linker_0, # of connection points: 2
#     Edge 87, Type (0, 0), BuildingBlock: XIVTED_clean_linker_0, # of connection points: 2
#     Edge 88, Type (0, 0), BuildingBlock: XIVTED_clean_linker_0, # of connection points: 2
#     Edge 89, Type (0, 0), BuildingBlock: XIVTED_clean_linker_0, # of connection points: 2
#     Edge 90, Type (0, 0), BuildingBlock: XIVTED_clean_linker_0, # of connection points: 2
#     Edge 91, Type (0, 0), BuildingBlock: XIVTED_clean_linker_0, # of connection points: 2
#     Edge 92, Type (0, 0), BuildingBlock: XIVTED_clean_linker_0, # of connection points: 2
#     Edge 93, Type (0, 0), BuildingBlock: XIVTED_clean_linker_0, # of connection points: 2
#     Edge 94, Type (0, 0), BuildingBlock: XIVTED_clean_linker_0, # of connection points: 2
#     Edge 95, Type (0, 0), BuildingBlock: XIVTED_clean_linker_0, # of connection points: 2
#     Edge 96, Type (0, 0), BuildingBlock: XIVTED_clean_linker_0, # of connection points: 2
#     Edge 97, Type (0, 0), BuildingBlock: XIVTED_clean_linker_0, # of connection points: 2
#     Edge 98, Type (0, 0), BuildingBlock: XIVTED_clean_linker_0, # of connection points: 2
#     Edge 99, Type (0, 0), BuildingBlock: XIVTED_clean_linker_0, # of connection points: 2
#     Edge 100, Type (0, 0), BuildingBlock: XIVTED_clean_linker_0, # of connection points: 2
#     Edge 101, Type (0, 0), BuildingBlock: XIVTED_clean_linker_0, # of connection points: 2
#     Edge 102, Type (0, 0), BuildingBlock: XIVTED_clean_linker_0, # of connection points: 2
#     Edge 103, Type (0, 0), BuildingBlock: XIVTED_clean_linker_0, # of connection points: 2
#     Edge 104, Type (0, 0), BuildingBlock: XIVTED_clean_linker_0, # of connection points: 2
#     Edge 105, Type (0, 0), BuildingBlock: XIVTED_clean_linker_0, # of connection points: 2
#     Edge 106, Type (0, 0), BuildingBlock: XIVTED_clean_linker_0, # of connection points: 2
#     Edge 107, Type (0, 0), BuildingBlock: XIVTED_clean_linker_0, # of connection points: 2
#     Edge 108, Type (0, 0), BuildingBlock: XIVTED_clean_linker_0, # of connection points: 2
#     Edge 109, Type (0, 0), BuildingBlock: XIVTED_clean_linker_0, # of connection points: 2
#     Edge 110, Type (0, 0), BuildingBlock: XIVTED_clean_linker_0, # of connection points: 2
#     Edge 111, Type (0, 0), BuildingBlock: XIVTED_clean_linker_0, # of connection points: 2
#     Edge 112, Type (0, 0), BuildingBlock: XIVTED_clean_linker_0, # of connection points: 2
#     Edge 113, Type (0, 0), BuildingBlock: XIVTED_clean_linker_0, # of connection points: 2
#     Edge 114, Type (0, 0), BuildingBlock: XIVTED_clean_linker_0, # of connection points: 2
#     Edge 115, Type (0, 0), BuildingBlock: XIVTED_clean_linker_0, # of connection points: 2
#     Edge 116, Type (0, 0), BuildingBlock: XIVTED_clean_linker_0, # of connection points: 2
#     Edge 117, Type (0, 0), BuildingBlock: XIVTED_clean_linker_0, # of connection points: 2
#     Edge 118, Type (0, 0), BuildingBlock: XIVTED_clean_linker_0, # of connection points: 2
#     Edge 119, Type (0, 0), BuildingBlock: XIVTED_clean_linker_0, # of connection points: 2
#     Edge 120, Type (0, 0), BuildingBlock: XIVTED_clean_linker_0, # of connection points: 2
#     Edge 121, Type (0, 0), BuildingBlock: XIVTED_clean_linker_0, # of connection points: 2
#     Edge 122, Type (0, 0), BuildingBlock: XIVTED_clean_linker_0, # of connection points: 2
#     Edge 123, Type (0, 0), BuildingBlock: XIVTED_clean_linker_0, # of connection points: 2
#     Edge 124, Type (0, 0), BuildingBlock: XIVTED_clean_linker_0, # of connection points: 2
#     Edge 125, Type (0, 0), BuildingBlock: XIVTED_clean_linker_0, # of connection points: 2
#     Edge 126, Type (0, 0), BuildingBlock: XIVTED_clean_linker_0, # of connection points: 2
#     Edge 127, Type (0, 0), BuildingBlock: XIVTED_clean_linker_0, # of connection points: 2
#     Edge 128, Type (0, 0), BuildingBlock: XIVTED_clean_linker_0, # of connection points: 2
#     Edge 129, Type (0, 0), BuildingBlock: XIVTED_clean_linker_0, # of connection points: 2
#     Edge 130, Type (0, 0), BuildingBlock: XIVTED_clean_linker_0, # of connection points: 2
#     Edge 131, Type (0, 0), BuildingBlock: XIVTED_clean_linker_0, # of connection points: 2
#     Edge 132, Type (0, 0), BuildingBlock: XIVTED_clean_linker_0, # of connection points: 2
#     Edge 133, Type (0, 0), BuildingBlock: XIVTED_clean_linker_0, # of connection points: 2
#     Edge 134, Type (0, 0), BuildingBlock: XIVTED_clean_linker_0, # of connection points: 2
#     Edge 135, Type (0, 0), BuildingBlock: XIVTED_clean_linker_0, # of connection points: 2
#     Edge 136, Type (0, 0), BuildingBlock: XIVTED_clean_linker_0, # of connection points: 2
#     Edge 137, Type (0, 0), BuildingBlock: XIVTED_clean_linker_0, # of connection points: 2
#     Edge 138, Type (0, 0), BuildingBlock: XIVTED_clean_linker_0, # of connection points: 2
#     Edge 139, Type (0, 0), BuildingBlock: XIVTED_clean_linker_0, # of connection points: 2
#     Edge 140, Type (0, 0), BuildingBlock: XIVTED_clean_linker_0, # of connection points: 2
#     Edge 141, Type (0, 0), BuildingBlock: XIVTED_clean_linker_0, # of connection points: 2
#     Edge 142, Type (0, 0), BuildingBlock: XIVTED_clean_linker_0, # of connection points: 2
#     Edge 143, Type (0, 0), BuildingBlock: XIVTED_clean_linker_0, # of connection points: 2
# Relax obj value: 0.320
# Max RMSD: 0.107
# Mean RMSD: 0.107
data_MOF--net-uli--node1-QUQFOY_clean_sbu_1--edge1-XIVTED_clean_linker_0
_symmetry_space_group_name_H-M    P1
_symmetry_Int_Tables_number       1
_symmetry_cell_setting            triclinic
loop_
_symmetry_equiv_pos_as_xyz
'x, y, z'
_cell_length_a     72.744155
_cell_length_b     72.715224
_cell_length_c     72.706859
_cell_angle_alpha  89.985419
_cell_angle_beta   90.000394
_cell_angle_gamma 89.992922
loop_
_atom_site_label
_atom_site_type_symbol
_atom_site_fract_x
_atom_site_fract_y
_atom_site_fract_z
_atom_type_partial_charge
O0 O 0.11614 0.22949 0.22753 0.0
Cd1 Cd 0.09775 0.24013 0.20905 0.0
Cd2 Cd 0.12393 0.27059 0.21074 0.0
O3 O 0.13628 0.2522 0.22876 0.0
O4 O 0.07761 0.22175 0.20986 0.0
O5 O 0.0737 0.25076 0.21801 0.0
C6 C 0.06695 0.23445 0.21606 0.0
C7 C 0.13311 0.30141 0.21414 0.0
C8 C 0.13104 0.23623 0.23362 0.0
C9 C 0.1166 0.25061 0.1742 0.0
O10 O 0.12384 0.26358 0.18335 0.0
O11 O 0.1057 0.23934 0.18186 0.0
O12 O 0.14402 0.28889 0.20824 0.0
O13 O 0.11676 0.29653 0.21894 0.0
O14 O 0.772 0.09685 0.19723 0.0
Cd15 Cd 0.74805 0.08568 0.18757 0.0
Cd16 Cd 0.73239 0.1055 0.21328 0.0
O17 O 0.75882 0.10259 0.22377 0.0
O18 O 0.75456 0.06074 0.17921 0.0
O19 O 0.73753 0.06638 0.20398 0.0
C20 C 0.74662 0.05479 0.19398 0.0
C21 C 0.70899 0.11021 0.23475 0.0
C22 C 0.7733 0.101 0.21411 0.0
C23 C 0.72807 0.11653 0.17306 0.0
O24 O 0.72809 0.12124 0.1899 0.0
O25 O 0.73385 0.10073 0.16841 0.0
O26 O 0.72202 0.12189 0.2324 0.0
O27 O 0.70931 0.09523 0.22525 0.0
O28 O 0.89001 0.7646 0.24821 0.0
Cd29 Cd 0.89574 0.74158 0.2328 0.0
Cd30 Cd 0.87484 0.72757 0.25755 0.0
O31 O 0.87997 0.75072 0.27316 0.0
O32 O 0.9165 0.74977 0.21702 0.0
O33 O 0.91943 0.72876 0.23885 0.0
C34 C 0.92698 0.73914 0.22659 0.0
C35 C 0.88125 0.69697 0.26291 0.0
C36 C 0.88487 0.76533 0.26489 0.0
C37 C 0.85867 0.7305 0.22063 0.0
O38 O 0.85496 0.73052 0.23771 0.0
O39 O 0.87524 0.7323 0.21533 0.0
O40 O 0.86851 0.70533 0.27207 0.0
O41 O 0.89178 0.70666 0.25235 0.0
O42 O 0.20932 0.90751 0.19908 0.0
Cd43 Cd 0.23471 0.91746 0.192 0.0
Cd44 Cd 0.24721 0.89604 0.21845 0.0
O45 O 0.21973 0.89834 0.22597 0.0
O46 O 0.23214 0.9439 0.18617 0.0
O47 O 0.24631 0.93327 0.21111 0.0
C48 C 0.24004 0.94707 0.2018 0.0
C49 C 0.26893 0.89084 0.24152 0.0
C50 C 0.20631 0.90162 0.21523 0.0
C51 C 0.25588 0.88662 0.17851 0.0
O52 O 0.2544 0.88144 0.19514 0.0
O53 O 0.25001 0.90233 0.17365 0.0
O54 O 0.25616 0.87917 0.23792 0.0
O55 O 0.26896 0.90621 0.23266 0.0
O56 O 0.09883 0.77073 0.76576 0.0
Cd57 Cd 0.08968 0.74752 0.77886 0.0
Cd58 Cd 0.11029 0.73172 0.75495 0.0
O59 O 0.10789 0.75635 0.74073 0.0
O60 O 0.06535 0.7541 0.78921 0.0
O61 O 0.06923 0.7346 0.76605 0.0
C62 C 0.05828 0.744 0.77641 0.0
C63 C 0.10721 0.70215 0.7434 0.0
C64 C 0.10441 0.77125 0.74922 0.0
C65 C 0.12317 0.73148 0.79389 0.0
O66 O 0.12796 0.73127 0.77708 0.0
O67 O 0.10681 0.73581 0.79824 0.0
O68 O 0.12041 0.71275 0.73808 0.0
O69 O 0.09452 0.7091 0.75369 0.0
O70 O 0.21509 0.09817 0.81009 0.0
Cd71 Cd 0.23999 0.08708 0.81722 0.0
Cd72 Cd 0.2531 0.10743 0.78954 0.0
O73 O 0.22554 0.10459 0.78244 0.0
O74 O 0.23578 0.06116 0.82414 0.0
O75 O 0.25002 0.06979 0.79848 0.0
C76 C 0.24284 0.05686 0.80839 0.0
C77 C 0.27361 0.11513 0.766 0.0
C78 C 0.21213 0.10273 0.79352 0.0
C79 C 0.26232 0.11722 0.82956 0.0
O80 O 0.26071 0.12187 0.8128 0.0
O81 O 0.25612 0.10186 0.83506 0.0
O82 O 0.26032 0.12576 0.7707 0.0
O83 O 0.27482 0.0993 0.77393 0.0
O84 O 0.89258 0.23313 0.74601 0.0
Cd85 Cd 0.8988 0.25603 0.76139 0.0
Cd86 Cd 0.87666 0.27004 0.73766 0.0
O87 O 0.8811 0.247 0.72168 0.0
O88 O 0.9199 0.24761 0.7766 0.0
O89 O 0.92242 0.26887 0.75498 0.0
C90 C 0.93019 0.25839 0.76702 0.0
C91 C 0.88301 0.30067 0.73248 0.0
C92 C 0.88655 0.2324 0.72963 0.0
C93 C 0.86216 0.26674 0.77521 0.0
O94 O 0.85768 0.26687 0.75833 0.0
O95 O 0.87897 0.265 0.77974 0.0
O96 O 0.86985 0.29251 0.72373 0.0
O97 O 0.89392 0.29077 0.74243 0.0
O98 O 0.77284 0.87876 0.77572 0.0
Cd99 Cd 0.76173 0.89703 0.794 0.0
Cd100 Cd 0.73126 0.86977 0.79069 0.0
O101 O 0.75016 0.85885 0.77234 0.0
O102 O 0.78079 0.91656 0.79362 0.0
O103 O 0.75226 0.92137 0.78443 0.0
C104 C 0.7688 0.92747 0.78653 0.0
C105 C 0.7011 0.85882 0.78642 0.0
C106 C 0.7663 0.86431 0.76846 0.0
C107 C 0.75035 0.87715 0.82802 0.0
O108 O 0.73814 0.86952 0.81815 0.0
O109 O 0.76136 0.88884 0.82116 0.0
O110 O 0.71412 0.84857 0.79242 0.0
O111 O 0.70506 0.8756 0.78227 0.0
O112 O 0.25026 0.11143 0.2282 0.0
Cd113 Cd 0.23539 0.10518 0.25141 0.0
Cd114 Cd 0.26019 0.12603 0.26504 0.0
O115 O 0.27555 0.12109 0.24167 0.0
O116 O 0.21942 0.08507 0.2423 0.0
O117 O 0.24136 0.08076 0.26291 0.0
C118 C 0.2291 0.07389 0.25206 0.0
C119 C 0.266 0.11934 0.29548 0.0
C120 C 0.26697 0.11637 0.22719 0.0
C121 C 0.22309 0.1419 0.26322 0.0
O122 O 0.2401 0.14582 0.26265 0.0
O123 O 0.21794 0.12527 0.2615 0.0
O124 O 0.27499 0.13219 0.28708 0.0
O125 O 0.25536 0.10883 0.28585 0.0
O126 O 0.8898 0.21658 0.22879 0.0
Cd127 Cd 0.90439 0.19821 0.24442 0.0
Cd128 Cd 0.87636 0.20806 0.27063 0.0
O129 O 0.86974 0.2261 0.24953 0.0
O130 O 0.92718 0.19439 0.22999 0.0
O131 O 0.92709 0.20705 0.25766 0.0
C132 C 0.93614 0.20199 0.24324 0.0
C133 C 0.86501 0.21541 0.29999 0.0
C134 C 0.87638 0.22679 0.23335 0.0
C135 C 0.87931 0.16838 0.25588 0.0
O136 O 0.87173 0.18059 0.26576 0.0
O137 O 0.89335 0.17222 0.24626 0.0
O138 O 0.85443 0.21108 0.28657 0.0
O139 O 0.88238 0.21665 0.29674 0.0
O140 O 0.8016 0.89763 0.21875 0.0
Cd141 Cd 0.80923 0.90954 0.24314 0.0
Cd142 Cd 0.78182 0.89062 0.25717 0.0
O143 O 0.77385 0.89322 0.22982 0.0
O144 O 0.81662 0.93505 0.23758 0.0
O145 O 0.79094 0.92767 0.25248 0.0
C146 C 0.80097 0.94 0.24446 0.0
C147 C 0.7588 0.88579 0.279 0.0
C148 C 0.78474 0.89398 0.21616 0.0
C149 C 0.82139 0.87963 0.26584 0.0
O150 O 0.80459 0.87508 0.26424 0.0
O151 O 0.8269 0.89501 0.25969 0.0
O152 O 0.76197 0.87423 0.26603 0.0
O153 O 0.76809 0.9009 0.27921 0.0
O154 O 0.10556 0.77506 0.21794 0.0
Cd155 Cd 0.08754 0.79071 0.23278 0.0
Cd156 Cd 0.11594 0.7858 0.26071 0.0
O157 O 0.12626 0.76966 0.2395 0.0
O158 O 0.06446 0.78932 0.21834 0.0
O159 O 0.06713 0.77819 0.24656 0.0
C160 C 0.05725 0.78059 0.23197 0.0
C161 C 0.12896 0.78002 0.28981 0.0
C162 C 0.12042 0.76756 0.22313 0.0
C163 C 0.10579 0.82449 0.24594 0.0
O164 O 0.11461 0.81378 0.25654 0.0
O165 O 0.09382 0.81823 0.2349 0.0
O166 O 0.1382 0.78696 0.2765 0.0
O167 O 0.11213 0.77548 0.28663 0.0
O168 O 0.21003 0.89172 0.76739 0.0
Cd169 Cd 0.19554 0.90738 0.74898 0.0
Cd170 Cd 0.21505 0.88821 0.72445 0.0
O171 O 0.23033 0.88131 0.74751 0.0
O172 O 0.18816 0.92905 0.7636 0.0
O173 O 0.20794 0.93048 0.74043 0.0
C174 C 0.19981 0.93847 0.75409 0.0
C175 C 0.23016 0.889 0.69622 0.0
C176 C 0.22474 0.88299 0.76399 0.0
C177 C 0.17378 0.88149 0.72751 0.0
O178 O 0.18946 0.87635 0.72183 0.0
O179 O 0.17237 0.89545 0.73791 0.0
O180 O 0.22794 0.87399 0.70524 0.0
O181 O 0.22446 0.90416 0.70345 0.0
O182 O 0.11045 0.22931 0.77515 0.0
Cd183 Cd 0.0924 0.21141 0.76315 0.0
Cd184 Cd 0.11964 0.21283 0.73408 0.0
O185 O 0.13086 0.23131 0.75275 0.0
O186 O 0.06974 0.21409 0.77808 0.0
O187 O 0.07116 0.22138 0.74855 0.0
C188 C 0.06181 0.22063 0.76364 0.0
C189 C 0.13106 0.21553 0.7039 0.0
C190 C 0.12531 0.2358 0.76873 0.0
C191 C 0.11091 0.17636 0.75407 0.0
O192 O 0.11898 0.18553 0.7416 0.0
O193 O 0.09937 0.18401 0.76469 0.0
O194 O 0.141 0.20988 0.71732 0.0
O195 O 0.11441 0.22044 0.70748 0.0
O196 O 0.80957 0.09347 0.77986 0.0
Cd197 Cd 0.81723 0.08361 0.75451 0.0
Cd198 Cd 0.78851 0.10182 0.74214 0.0
O199 O 0.78162 0.09899 0.76971 0.0
O200 O 0.82659 0.05823 0.75743 0.0
O201 O 0.79992 0.06509 0.74415 0.0
C202 C 0.81123 0.0528 0.75028 0.0
C203 C 0.7647 0.10467 0.7208 0.0
C204 C 0.79287 0.09745 0.78302 0.0
C205 C 0.82688 0.11547 0.73266 0.0
O206 O 0.80988 0.11899 0.73465 0.0
O207 O 0.83338 0.10029 0.73833 0.0
O208 O 0.76722 0.11654 0.73364 0.0
O209 O 0.77514 0.09034 0.72047 0.0
O210 O 0.88814 0.74378 0.76472 0.0
Cd211 Cd 0.89541 0.75941 0.74238 0.0
Cd212 Cd 0.87398 0.73628 0.72688 0.0
O213 O 0.87765 0.71973 0.74969 0.0
O214 O 0.91724 0.77292 0.75159 0.0
O215 O 0.91863 0.75184 0.72966 0.0
C216 C 0.92704 0.76277 0.74085 0.0
C217 C 0.87982 0.73024 0.69624 0.0
C218 C 0.88237 0.72731 0.76472 0.0
C219 C 0.85965 0.77408 0.73086 0.0
O220 O 0.8552 0.75721 0.72991 0.0
O221 O 0.87637 0.77853 0.73343 0.0
O222 O 0.86652 0.72212 0.70479 0.0
O223 O 0.89104 0.74026 0.70571 0.0
O224 O 0.22031 0.19695 0.09297 0.0
Cd225 Cd 0.24522 0.18997 0.08179 0.0
Cd226 Cd 0.25845 0.21713 0.10196 0.0
O227 O 0.23086 0.22436 0.10022 0.0
O228 O 0.24168 0.18499 0.05524 0.0
O229 O 0.256 0.20968 0.0662 0.0
C230 C 0.24914 0.2009 0.05235 0.0
C231 C 0.28005 0.24044 0.10622 0.0
C232 C 0.21741 0.21336 0.09816 0.0
C233 C 0.2678 0.17741 0.1119 0.0
O234 O 0.26629 0.19416 0.11668 0.0
O235 O 0.26142 0.17205 0.09654 0.0
O236 O 0.26758 0.23696 0.11824 0.0
O237 O 0.27986 0.2313 0.09102 0.0
O238 O 0.22628 0.76152 0.88355 0.0
Cd239 Cd 0.24682 0.77732 0.8947 0.0
Cd240 Cd 0.26671 0.75842 0.87224 0.0
O241 O 0.24434 0.74092 0.87076 0.0
O242 O 0.23626 0.78613 0.91821 0.0
O243 O 0.25997 0.76705 0.91666 0.0
C244 C 0.24793 0.77566 0.92651 0.0
C245 C 0.29708 0.74901 0.87517 0.0
C246 C 0.22831 0.74644 0.87502 0.0
C247 C 0.26046 0.79796 0.86292 0.0
O248 O 0.26453 0.78209 0.85687 0.0
O249 O 0.25476 0.79984 0.87935 0.0
O250 O 0.28746 0.74489 0.86087 0.0
O251 O 0.28906 0.7574 0.88861 0.0
O252 O 0.24273 0.23515 0.89287 0.0
Cd253 Cd 0.22895 0.25883 0.89969 0.0
Cd254 Cd 0.25312 0.2717 0.87795 0.0
O255 O 0.26821 0.24822 0.88327 0.0
O256 O 0.21421 0.25035 0.92092 0.0
O257 O 0.23713 0.27022 0.92348 0.0
C258 C 0.2252 0.25961 0.93129 0.0
C259 C 0.26161 0.30212 0.88116 0.0
C260 C 0.25943 0.23387 0.88798 0.0
C261 C 0.21522 0.27001 0.86367 0.0
O262 O 0.23208 0.26894 0.85922 0.0
O263 O 0.21063 0.26902 0.88052 0.0
O264 O 0.26897 0.29182 0.8687 0.0
O265 O 0.25087 0.29452 0.89315 0.0
O266 O 0.77513 0.22675 0.88184 0.0
Cd267 Cd 0.76387 0.20905 0.90059 0.0
Cd268 Cd 0.73409 0.21006 0.87446 0.0
O269 O 0.75239 0.2279 0.86177 0.0
O270 O 0.78057 0.21154 0.92203 0.0
O271 O 0.75119 0.21925 0.92302 0.0
C272 C 0.76696 0.21829 0.93113 0.0
C273 C 0.70318 0.21419 0.8659 0.0
C274 C 0.76841 0.23269 0.86686 0.0
C275 C 0.75397 0.17366 0.88266 0.0
O276 O 0.74115 0.18263 0.87493 0.0
O277 O 0.76493 0.18157 0.89371 0.0
O278 O 0.71527 0.20772 0.8548 0.0
O279 O 0.70854 0.21886 0.88214 0.0
O280 O 0.80192 0.76999 0.90426 0.0
Cd281 Cd 0.80941 0.74416 0.91297 0.0
Cd282 Cd 0.78147 0.73287 0.89305 0.0
O283 O 0.77413 0.7601 0.89762 0.0
O284 O 0.81731 0.74546 0.93898 0.0
O285 O 0.79117 0.73255 0.92977 0.0
C286 C 0.80171 0.73793 0.94305 0.0
C287 C 0.7584 0.71121 0.88779 0.0
C288 C 0.78529 0.77333 0.90016 0.0
C289 C 0.82038 0.72446 0.88031 0.0
O290 O 0.80355 0.72681 0.87626 0.0
O291 O 0.8263 0.72903 0.89609 0.0
O292 O 0.76091 0.72498 0.877 0.0
O293 O 0.76826 0.71018 0.9025 0.0
O294 O 0.76653 0.76693 0.11736 0.0
Cd295 Cd 0.75488 0.78396 0.09822 0.0
Cd296 Cd 0.7255 0.78268 0.12542 0.0
O297 O 0.74422 0.76509 0.13786 0.0
O298 O 0.77291 0.78199 0.07786 0.0
O299 O 0.74406 0.77295 0.07511 0.0
C300 C 0.76028 0.77447 0.06804 0.0
C301 C 0.69484 0.779 0.13497 0.0
C302 C 0.76028 0.76081 0.13246 0.0
C303 C 0.74469 0.81929 0.11609 0.0
O304 O 0.73249 0.81006 0.1245 0.0
O305 O 0.75528 0.81158 0.10454 0.0
O306 O 0.70734 0.78542 0.14562 0.0
O307 O 0.69965 0.77398 0.11866 0.0
O308 O 0.24116 0.77583 0.09974 0.0
Cd309 Cd 0.22702 0.7528 0.09156 0.0
Cd310 Cd 0.24999 0.73775 0.11353 0.0
O311 O 0.2653 0.76157 0.11109 0.0
O312 O 0.21465 0.76056 0.06851 0.0
O313 O 0.23692 0.73979 0.06938 0.0
C314 C 0.22591 0.74995 0.05982 0.0
C315 C 0.25908 0.70751 0.10961 0.0
C316 C 0.25728 0.77639 0.10641 0.0
C317 C 0.21139 0.73996 0.12642 0.0
O318 O 0.22813 0.73931 0.13135 0.0
O319 O 0.20736 0.74303 0.10967 0.0
O320 O 0.26547 0.71735 0.12294 0.0
O321 O 0.24909 0.71552 0.09728 0.0
O322 O 0.76588 0.22716 0.10056 0.0
Cd323 Cd 0.78208 0.24935 0.09381 0.0
Cd324 Cd 0.75887 0.26592 0.11441 0.0
O325 O 0.7422 0.24332 0.1102 0.0
O326 O 0.79543 0.2416 0.07134 0.0
O327 O 0.77415 0.26343 0.07148 0.0
C328 C 0.78526 0.25301 0.06233 0.0
C329 C 0.7506 0.29657 0.11171 0.0
C330 C 0.74927 0.22792 0.10591 0.0
C331 C 0.79636 0.2609 0.12968 0.0
O332 O 0.77943 0.26268 0.13359 0.0
O333 O 0.80116 0.25764 0.11319 0.0
O334 O 0.74342 0.28615 0.12415 0.0
O335 O 0.76121 0.2891 0.09956 0.0
O336 O 0.59799 0.71666 0.69404 0.0
Cd337 Cd 0.58721 0.74179 0.68717 0.0
Cd338 Cd 0.60735 0.75445 0.71423 0.0
O339 O 0.60464 0.72697 0.72167 0.0
O340 O 0.56113 0.73798 0.68065 0.0
O341 O 0.57039 0.75202 0.70619 0.0
C342 C 0.55721 0.74505 0.6965 0.0
C343 C 0.61182 0.776 0.7376 0.0
C344 C 0.6026 0.71359 0.71059 0.0
C345 C 0.61783 0.76353 0.67466 0.0
O346 O 0.62268 0.76167 0.69136 0.0
O347 O 0.60216 0.75788 0.66943 0.0
O348 O 0.62358 0.76325 0.73427 0.0
O349 O 0.59677 0.77618 0.7282 0.0
O350 O 0.26639 0.61269 0.7473 0.0
Cd351 Cd 0.24559 0.60334 0.73063 0.0
Cd352 Cd 0.22711 0.62484 0.75151 0.0
O353 O 0.24903 0.62364 0.7695 0.0
O354 O 0.25659 0.5814 0.71872 0.0
O355 O 0.23336 0.57982 0.73834 0.0
C356 C 0.24547 0.5715 0.72835 0.0
C357 C 0.19638 0.61947 0.75767 0.0
C358 C 0.26484 0.61954 0.76328 0.0
C359 C 0.23301 0.63763 0.71335 0.0
O360 O 0.23032 0.64272 0.72984 0.0
O361 O 0.23712 0.62097 0.70995 0.0
O362 O 0.20491 0.6333 0.76483 0.0
O363 O 0.20582 0.60759 0.74841 0.0
O364 O 0.39081 0.27467 0.71224 0.0
Cd365 Cd 0.40793 0.25744 0.69808 0.0
Cd366 Cd 0.37764 0.2316 0.70895 0.0
O367 O 0.37123 0.25482 0.72429 0.0
O368 O 0.42987 0.27333 0.69541 0.0
O369 O 0.43003 0.24766 0.71169 0.0
C370 C 0.43842 0.2624 0.7064 0.0
C371 C 0.36112 0.20504 0.71747 0.0
C372 C 0.37737 0.27113 0.72276 0.0
C373 C 0.3865 0.24109 0.66791 0.0
O374 O 0.37735 0.23345 0.68068 0.0
O375 O 0.40026 0.25116 0.67159 0.0
O376 O 0.35335 0.21921 0.71043 0.0
O377 O 0.37854 0.20597 0.72059 0.0
O378 O 0.73426 0.39283 0.75677 0.0
Cd379 Cd 0.75654 0.39819 0.74021 0.0
Cd380 Cd 0.77154 0.37775 0.76491 0.0
O381 O 0.74902 0.38307 0.78133 0.0
O382 O 0.74755 0.41844 0.72416 0.0
O383 O 0.76946 0.42214 0.74493 0.0
C384 C 0.75854 0.42926 0.73288 0.0
C385 C 0.8023 0.38447 0.76845 0.0
C386 C 0.73414 0.3879 0.77353 0.0
C387 C 0.76724 0.36076 0.72854 0.0
O388 O 0.76788 0.35742 0.74567 0.0
O389 O 0.76518 0.37722 0.72294 0.0
O390 O 0.79454 0.37192 0.7784 0.0
O391 O 0.79197 0.39473 0.75825 0.0
O392 O 0.61052 0.27414 0.28478 0.0
Cd393 Cd 0.59475 0.25961 0.30304 0.0
Cd394 Cd 0.62143 0.23175 0.29498 0.0
O395 O 0.63024 0.25232 0.27727 0.0
O396 O 0.57238 0.27494 0.30554 0.0
O397 O 0.57197 0.24691 0.2937 0.0
C398 C 0.56326 0.2618 0.29793 0.0
C399 C 0.63077 0.20185 0.287 0.0
C400 C 0.62429 0.26869 0.27556 0.0
C401 C 0.61772 0.24703 0.33428 0.0
O402 O 0.625 0.23613 0.32275 0.0
O403 O 0.60485 0.25777 0.32943 0.0
O404 O 0.64213 0.21415 0.29251 0.0
O405 O 0.61375 0.20649 0.2853 0.0
O406 O 0.72964 0.60414 0.24689 0.0
Cd407 Cd 0.75188 0.59613 0.2623 0.0
Cd408 Cd 0.76771 0.61801 0.2398 0.0
O409 O 0.74482 0.61525 0.2232 0.0
O410 O 0.74289 0.57364 0.27488 0.0
O411 O 0.76476 0.57337 0.25368 0.0
C412 C 0.75374 0.56439 0.26434 0.0
C413 C 0.79837 0.61271 0.2335 0.0
C414 C 0.72973 0.6105 0.23063 0.0
C415 C 0.76388 0.63127 0.27803 0.0
O416 O 0.76495 0.63615 0.26129 0.0
O417 O 0.76095 0.61449 0.28205 0.0
O418 O 0.78966 0.62617 0.22582 0.0
O419 O 0.78903 0.60098 0.24306 0.0
O420 O 0.3799 0.73134 0.27564 0.0
Cd421 Cd 0.39795 0.74298 0.29379 0.0
Cd422 Cd 0.36919 0.77289 0.28974 0.0
O423 O 0.35968 0.75356 0.27107 0.0
O424 O 0.41711 0.72357 0.29418 0.0
O425 O 0.42254 0.75168 0.28411 0.0
C426 C 0.42828 0.73509 0.28676 0.0
C427 C 0.35608 0.80227 0.28594 0.0
C428 C 0.36558 0.73743 0.26776 0.0
C429 C 0.37735 0.75431 0.32737 0.0
O430 O 0.36911 0.76584 0.31716 0.0
O431 O 0.38973 0.74386 0.32089 0.0
O432 O 0.34677 0.78838 0.2915 0.0
O433 O 0.37313 0.79964 0.28187 0.0
O434 O 0.27563 0.40776 0.2938 0.0
Cd435 Cd 0.25071 0.41816 0.30188 0.0
Cd436 Cd 0.23755 0.39877 0.27473 0.0
O437 O 0.26464 0.40188 0.26626 0.0
O438 O 0.25433 0.44421 0.30882 0.0
O439 O 0.23965 0.43519 0.28356 0.0
C440 C 0.24667 0.44832 0.29329 0.0
C441 C 0.21456 0.39517 0.25268 0.0
C442 C 0.27829 0.40362 0.27706 0.0
C443 C 0.22992 0.38668 0.31398 0.0
O444 O 0.23165 0.38233 0.29714 0.0
O445 O 0.23518 0.40239 0.31953 0.0
O446 O 0.22769 0.38348 0.25447 0.0
O447 O 0.21492 0.40979 0.26272 0.0
O448 O 0.72721 0.60879 0.71969 0.0
Cd449 Cd 0.71008 0.59114 0.73333 0.0
Cd450 Cd 0.714 0.61854 0.76173 0.0
O451 O 0.73152 0.62914 0.74183 0.0
O452 O 0.71178 0.56788 0.71918 0.0
O453 O 0.72103 0.57051 0.74808 0.0
C454 C 0.71931 0.56055 0.73345 0.0
C455 C 0.71881 0.62997 0.79165 0.0
C456 C 0.73458 0.62348 0.72555 0.0
C457 C 0.67608 0.61038 0.74437 0.0
O458 O 0.68632 0.61859 0.75589 0.0
O459 O 0.6827 0.59833 0.73361 0.0
O460 O 0.71288 0.64008 0.77848 0.0
O461 O 0.72282 0.61311 0.7879 0.0
O462 O 0.39698 0.71436 0.7286 0.0
Cd463 Cd 0.40731 0.70479 0.75306 0.0
Cd464 Cd 0.38809 0.73075 0.76596 0.0
O465 O 0.39134 0.74182 0.73984 0.0
O466 O 0.4311 0.69348 0.74649 0.0
O467 O 0.42852 0.71935 0.76254 0.0
C468 C 0.43878 0.70777 0.75375 0.0
C469 C 0.39044 0.74614 0.79375 0.0
C470 C 0.3931 0.73119 0.72605 0.0
C471 C 0.37447 0.69256 0.77161 0.0
O472 O 0.36988 0.70922 0.76901 0.0
O473 O 0.39082 0.68744 0.76821 0.0
O474 O 0.37774 0.75019 0.78205 0.0
O475 O 0.40316 0.73479 0.78875 0.0
O476 O 0.26168 0.39634 0.72187 0.0
Cd477 Cd 0.27726 0.40666 0.74298 0.0
Cd478 Cd 0.25625 0.38569 0.76194 0.0
O479 O 0.23913 0.38611 0.73921 0.0
O480 O 0.28656 0.43071 0.7341 0.0
O481 O 0.26649 0.42776 0.7569 0.0
C482 C 0.27554 0.4383 0.74578 0.0
C483 C 0.24735 0.38815 0.79253 0.0
C484 C 0.24574 0.3894 0.72334 0.0
C485 C 0.29518 0.37357 0.75654 0.0
O486 O 0.2787 0.36866 0.75962 0.0
O487 O 0.29859 0.39 0.75159 0.0
O488 O 0.24191 0.37466 0.78239 0.0
O489 O 0.25647 0.4013 0.78481 0.0
O490 O 0.59913 0.30683 0.72868 0.0
Cd491 Cd 0.58834 0.31482 0.75351 0.0
Cd492 Cd 0.60666 0.28662 0.76701 0.0
O493 O 0.60395 0.27905 0.73959 0.0
O494 O 0.56318 0.32393 0.74898 0.0
O495 O 0.56939 0.29757 0.76319 0.0
C496 C 0.55745 0.30859 0.75594 0.0
C497 C 0.6104 0.26308 0.78854 0.0
C498 C 0.60283 0.29 0.72599 0.0
C499 C 0.6193 0.32559 0.77584 0.0
O500 O 0.62318 0.30862 0.77426 0.0
O501 O 0.60411 0.33168 0.76979 0.0
O502 O 0.62215 0.26596 0.77568 0.0
O503 O 0.59572 0.27302 0.78885 0.0
O504 O 0.74254 0.39228 0.27127 0.0
Cd505 Cd 0.7277 0.39956 0.24843 0.0
Cd506 Cd 0.75025 0.37723 0.23308 0.0
O507 O 0.7661 0.38042 0.25649 0.0
O508 O 0.71619 0.42324 0.25547 0.0
O509 O 0.73771 0.42073 0.23402 0.0
C510 C 0.7274 0.43107 0.24416 0.0
C511 C 0.75994 0.38012 0.20284 0.0
C512 C 0.7587 0.3857 0.27142 0.0
C513 C 0.71152 0.36454 0.23693 0.0
O514 O 0.72821 0.35961 0.23545 0.0
O515 O 0.70763 0.38131 0.24004 0.0
O516 O 0.76582 0.36693 0.21316 0.0
O517 O 0.74976 0.39268 0.2102 0.0
O518 O 0.59312 0.69302 0.27749 0.0
Cd519 Cd 0.58312 0.68493 0.25233 0.0
Cd520 Cd 0.60142 0.71305 0.23958 0.0
O521 O 0.59828 0.72085 0.26686 0.0
O522 O 0.55768 0.67593 0.25564 0.0
O523 O 0.56476 0.70224 0.24173 0.0
C524 C 0.5524 0.69124 0.24825 0.0
C525 C 0.60384 0.7358 0.21709 0.0
C526 C 0.59686 0.70982 0.28037 0.0
C527 C 0.61499 0.67456 0.23102 0.0
O528 O 0.61876 0.69151 0.23302 0.0
O529 O 0.59957 0.66837 0.23638 0.0
O530 O 0.61574 0.73416 0.23005 0.0
O531 O 0.58966 0.72515 0.21735 0.0
O532 O 0.25158 0.61085 0.26234 0.0
Cd533 Cd 0.26697 0.60363 0.23982 0.0
Cd534 Cd 0.24342 0.62459 0.22481 0.0
O535 O 0.22692 0.62002 0.24748 0.0
O536 O 0.281 0.58241 0.24951 0.0
O537 O 0.25956 0.5798 0.22805 0.0
C538 C 0.27067 0.57201 0.23953 0.0
C539 C 0.23733 0.62013 0.19398 0.0
C540 C 0.23484 0.61577 0.26247 0.0
C541 C 0.2809 0.63958 0.2287 0.0
O542 O 0.26393 0.64371 0.22837 0.0
O543 O 0.28573 0.62287 0.23055 0.0
O544 O 0.22899 0.63281 0.20323 0.0
O545 O 0.24759 0.60859 0.20282 0.0
O546 O 0.38516 0.27887 0.26957 0.0
Cd547 Cd 0.40256 0.29688 0.25666 0.0
Cd548 Cd 0.37524 0.29074 0.22697 0.0
O549 O 0.36548 0.27308 0.24714 0.0
O550 O 0.42297 0.29881 0.27464 0.0
O551 O 0.42673 0.28751 0.24669 0.0
C552 C 0.43361 0.29144 0.26258 0.0
C553 C 0.36361 0.28499 0.19731 0.0
C554 C 0.37102 0.27059 0.26355 0.0
C555 C 0.38148 0.32941 0.24352 0.0
O556 O 0.37394 0.31851 0.23218 0.0
O557 O 0.39361 0.32367 0.25468 0.0
O558 O 0.35347 0.29075 0.21052 0.0
O559 O 0.38065 0.28166 0.20087 0.0
O560 O 0.73028 0.74386 0.60087 0.0
Cd561 Cd 0.75304 0.72859 0.59386 0.0
Cd562 Cd 0.76801 0.75209 0.61525 0.0
O563 O 0.7449 0.76811 0.61149 0.0
O564 O 0.74455 0.71402 0.57241 0.0
O565 O 0.76565 0.73588 0.57041 0.0
C566 C 0.75516 0.72404 0.56234 0.0
C567 C 0.79857 0.75879 0.60994 0.0
C568 C 0.73 0.7603 0.60675 0.0
C569 C 0.76494 0.71445 0.62988 0.0
O570 O 0.76546 0.73134 0.63428 0.0
O571 O 0.76242 0.7099 0.61317 0.0
O572 O 0.78957 0.76685 0.62298 0.0
O573 O 0.78953 0.74856 0.59854 0.0
O574 O 0.72391 0.30137 0.41075 0.0
Cd575 Cd 0.74906 0.31066 0.41951 0.0
Cd576 Cd 0.76245 0.28305 0.39999 0.0
O577 O 0.73553 0.27434 0.40376 0.0
O578 O 0.74621 0.32017 0.44479 0.0
O579 O 0.76122 0.29442 0.43794 0.0
C580 C 0.7546 0.30546 0.45023 0.0
C581 C 0.78474 0.26054 0.39462 0.0
C582 C 0.72163 0.28464 0.40632 0.0
C583 C 0.76853 0.3224 0.3869 0.0
O584 O 0.76771 0.30535 0.38319 0.0
O585 O 0.76306 0.32826 0.4024 0.0
O586 O 0.77107 0.26299 0.38372 0.0
O587 O 0.78546 0.27026 0.40944 0.0
O588 O 0.72361 0.72071 0.38332 0.0
Cd589 Cd 0.7066 0.73467 0.40083 0.0
Cd590 Cd 0.71072 0.76262 0.37299 0.0
O591 O 0.72836 0.74261 0.36282 0.0
O592 O 0.70803 0.72012 0.42385 0.0
O593 O 0.71774 0.7489 0.42177 0.0
C594 C 0.71583 0.7341 0.43144 0.0
C595 C 0.7159 0.79241 0.36142 0.0
C596 C 0.73122 0.72637 0.36868 0.0
C597 C 0.6727 0.74558 0.38129 0.0
O598 O 0.68302 0.75681 0.37279 0.0
O599 O 0.67922 0.73514 0.39367 0.0
O600 O 0.70991 0.77925 0.35134 0.0
O601 O 0.71968 0.78874 0.37835 0.0
O602 O 0.27214 0.6971 0.40105 0.0
Cd603 Cd 0.24725 0.68806 0.41074 0.0
Cd604 Cd 0.23386 0.71615 0.39165 0.0
O605 O 0.26073 0.72469 0.39632 0.0
O606 O 0.25137 0.67829 0.43574 0.0
O607 O 0.23641 0.70433 0.42993 0.0
C608 C 0.24369 0.69317 0.44174 0.0
C609 C 0.21176 0.7386 0.38532 0.0
C610 C 0.27455 0.71408 0.39785 0.0
C611 C 0.22714 0.67685 0.37857 0.0
O612 O 0.22864 0.69385 0.37482 0.0
O613 O 0.23229 0.67081 0.39411 0.0
O614 O 0.22582 0.73613 0.37493 0.0
O615 O 0.21064 0.72909 0.40025 0.0
O616 O 0.24921 0.27197 0.3847 0.0
Cd617 Cd 0.26432 0.24957 0.39288 0.0
Cd618 Cd 0.24169 0.23397 0.37114 0.0
O619 O 0.22528 0.25701 0.37388 0.0
O620 O 0.27744 0.25924 0.41472 0.0
O621 O 0.25612 0.23759 0.41637 0.0
C622 C 0.267 0.24892 0.42465 0.0
C623 C 0.23522 0.20349 0.37722 0.0
C624 C 0.23291 0.27206 0.37848 0.0
C625 C 0.27992 0.23723 0.35779 0.0
O626 O 0.26317 0.23637 0.35289 0.0
O627 O 0.28392 0.2401 0.37458 0.0
O628 O 0.22753 0.21194 0.36359 0.0
O629 O 0.24496 0.21302 0.38863 0.0
O630 O 0.27901 0.28715 0.59311 0.0
Cd631 Cd 0.25374 0.29634 0.58461 0.0
Cd632 Cd 0.24114 0.2702 0.60559 0.0
O633 O 0.26752 0.26032 0.60092 0.0
O634 O 0.25683 0.30532 0.55918 0.0
O635 O 0.24129 0.28001 0.56645 0.0
C636 C 0.24823 0.29065 0.55398 0.0
C637 C 0.21715 0.24949 0.61052 0.0
C638 C 0.28138 0.27046 0.59765 0.0
C639 C 0.236 0.30976 0.61753 0.0
O640 O 0.23749 0.29299 0.62222 0.0
O641 O 0.24014 0.31467 0.60129 0.0
O642 O 0.23096 0.25056 0.6215 0.0
O643 O 0.21734 0.25946 0.59583 0.0
O644 O 0.72908 0.2692 0.62543 0.0
Cd645 Cd 0.71123 0.25824 0.60667 0.0
Cd646 Cd 0.71291 0.22843 0.63392 0.0
O647 O 0.73071 0.24706 0.64615 0.0
O648 O 0.71228 0.27762 0.58749 0.0
O649 O 0.72116 0.24907 0.58233 0.0
C650 C 0.71938 0.26574 0.57649 0.0
C651 C 0.71731 0.19763 0.64278 0.0
C652 C 0.73527 0.26297 0.6405 0.0
C653 C 0.67628 0.24786 0.62561 0.0
O654 O 0.6855 0.2354 0.63364 0.0
O655 O 0.68386 0.25855 0.61407 0.0
O656 O 0.711 0.20984 0.65384 0.0
O657 O 0.72166 0.20282 0.62639 0.0
O658 O 0.27891 0.72782 0.61211 0.0
Cd659 Cd 0.29553 0.74209 0.59446 0.0
Cd660 Cd 0.28436 0.7709 0.61679 0.0
O661 O 0.26716 0.75096 0.62778 0.0
O662 O 0.29779 0.72493 0.57346 0.0
O663 O 0.284 0.752 0.57135 0.0
C664 C 0.28831 0.73645 0.56388 0.0
C665 C 0.27519 0.80161 0.6193 0.0
C666 C 0.26798 0.73384 0.6243 0.0
C667 C 0.32487 0.7588 0.61648 0.0
O668 O 0.31187 0.76857 0.62279 0.0
O669 O 0.32182 0.74723 0.60376 0.0
O670 O 0.27987 0.79201 0.63335 0.0
O671 O 0.2747 0.79363 0.60348 0.0
H672 H 0.95987 0.18491 0.22004 0.0
H673 H 0.0421 0.25557 0.23528 0.0
H674 H 0.95742 0.22734 0.26145 0.0
H675 H 0.04818 0.20312 0.20813 0.0
H676 H 0.01047 0.24707 0.24361 0.0
H677 H 0.9919 0.19272 0.21429 0.0
C678 C 0.96614 0.1958 0.22804 0.0
C679 C 0.956 0.20551 0.24123 0.0
C680 C 0.01881 0.23745 0.23589 0.0
C681 C 0.99265 0.21474 0.23452 0.0
C682 C 0.03678 0.24233 0.23104 0.0
C683 C 0.04775 0.23006 0.22096 0.0
C684 C 0.01179 0.22031 0.2304 0.0
C685 C 0.04023 0.21303 0.21591 0.0
C686 C 0.98445 0.20026 0.22475 0.0
C687 C 0.96482 0.21947 0.25122 0.0
N688 N 0.02272 0.20871 0.2206 0.0
N689 N 0.98265 0.22383 0.24752 0.0
H690 H 0.81662 0.96684 0.22355 0.0
H691 H 0.73421 0.03797 0.22558 0.0
H692 H 0.76788 0.95483 0.25528 0.0
H693 H 0.76949 0.02951 0.17855 0.0
H694 H 0.74728 0.01021 0.23979 0.0
H695 H 0.80152 0.99408 0.21126 0.0
C696 C 0.80286 0.9701 0.22823 0.0
C697 C 0.79345 0.95843 0.24036 0.0
C698 C 0.75191 0.01438 0.22626 0.0
C699 C 0.77601 0.98952 0.2261 0.0
C700 C 0.74439 0.0301 0.21807 0.0
C701 C 0.75085 0.03615 0.20088 0.0
C702 C 0.76617 0.00497 0.2173 0.0
C703 C 0.76412 0.02546 0.19184 0.0
C704 C 0.79418 0.98554 0.22102 0.0
C705 C 0.77561 0.96343 0.2459 0.0
N706 N 0.77154 0.01059 0.20028 0.0
N707 N 0.76739 0.97861 0.23865 0.0
H708 H 0.03336 0.7845 0.20337 0.0
H709 H 0.95312 0.72561 0.25014 0.0
H710 H 0.03848 0.75917 0.25683 0.0
H711 H 0.94671 0.75712 0.20023 0.0
H712 H 0.98572 0.73393 0.25076 0.0
H713 H 0.00271 0.77141 0.2004 0.0
C714 C 0.02802 0.7762 0.21453 0.0
C715 C 0.03846 0.77304 0.23045 0.0
C716 C 0.97721 0.73883 0.23956 0.0
C717 C 0.00331 0.75785 0.22706 0.0
C718 C 0.95864 0.73396 0.23911 0.0
C719 C 0.94716 0.74083 0.22519 0.0
C720 C 0.9843 0.75059 0.22597 0.0
C721 C 0.95503 0.75164 0.2113 0.0
C722 C 0.01051 0.76867 0.21279 0.0
C723 C 0.03084 0.76207 0.24439 0.0
N724 N 0.97307 0.75631 0.21213 0.0
N725 N 0.01369 0.75489 0.24239 0.0
H726 H 0.25658 0.9591 0.23358 0.0
H727 H 0.20478 0.05585 0.23003 0.0
H728 H 0.22245 0.97737 0.18854 0.0
H729 H 0.25164 0.04658 0.26529 0.0
H730 H 0.20754 0.0245 0.21864 0.0
H731 H 0.25254 0.98922 0.24828 0.0
C732 C 0.24842 0.96949 0.22669 0.0
C733 C 0.23988 0.96574 0.20977 0.0
C734 C 0.21713 0.02926 0.22899 0.0
C735 C 0.23485 -0.00012 0.22671 0.0
C736 C 0.21546 0.04712 0.23564 0.0
C737 C 0.22814 0.05393 0.24848 0.0
C738 C 0.23155 0.01806 0.23523 0.0
C739 C 0.24162 0.04191 0.25533 0.0
C740 C 0.24605 0.9866 0.23514 0.0
C741 C 0.22937 0.97965 0.20152 0.0
N742 N 0.2431 0.02456 0.24847 0.0
N743 N 0.22705 0.99603 0.21014 0.0
H744 H 0.95159 0.73997 0.7235 0.0
H745 H 0.03222 0.7644 0.79413 0.0
H746 H 0.94817 0.78272 0.76457 0.0
H747 H 0.03933 0.72678 0.74874 0.0
H748 H 0.00072 0.76993 0.7842 0.0
H749 H 0.98363 0.73464 0.7323 0.0
C750 C 0.95766 0.74846 0.73413 0.0
C751 C 0.94715 0.76175 0.74338 0.0
C752 C 0.00912 0.76039 0.77644 0.0
C753 C 0.98361 0.75545 0.75376 0.0
C754 C 0.02708 0.7571 0.78221 0.0
C755 C 0.03845 0.74513 0.77224 0.0
C756 C 0.00242 0.75165 0.76058 0.0
C757 C 0.03104 0.73611 0.75685 0.0
C758 C 0.9759 0.74531 0.73924 0.0
C759 C 0.9557 0.77228 0.7571 0.0
N760 N 0.01349 0.73961 0.75144 0.0
N761 N 0.97336 0.76878 0.76198 0.0
H762 H 0.25326 0.04361 0.77454 0.0
H763 H 0.18621 0.95756 0.78326 0.0
H764 H 0.22541 0.02789 0.82458 0.0
H765 H 0.22635 0.96131 0.73966 0.0
H766 H 0.19848 0.98563 0.7966 0.0
H767 H 0.24287 0.01488 0.76023 0.0
C768 C 0.24527 0.03399 0.78263 0.0
C769 C 0.2401 0.03822 0.80076 0.0
C770 C 0.2046 0.98038 0.78408 0.0
C771 C 0.22783 0.0057 0.78435 0.0
C772 C 0.19747 0.96441 0.77633 0.0
C773 C 0.20531 0.95701 0.76034 0.0
C774 C 0.21963 0.98915 0.77577 0.0
C775 C 0.21989 0.96656 0.75201 0.0
C776 C 0.23926 0.01767 0.77441 0.0
C777 C 0.22968 0.02528 0.81056 0.0
N778 N 0.22664 0.98216 0.75986 0.0
N779 N 0.22371 0.00974 0.80216 0.0
H780 H 0.03838 0.21835 0.79281 0.0
H781 H 0.95602 0.27157 0.74294 0.0
H782 H 0.04193 0.23894 0.73722 0.0
H783 H 0.95027 0.24135 0.79372 0.0
H784 H 0.98884 0.26402 0.74262 0.0
H785 H 0.00721 0.23038 0.79497 0.0
C786 C 0.03259 0.22539 0.78102 0.0
C787 C 0.04274 0.22753 0.76475 0.0
C788 C 0.98041 0.25922 0.75392 0.0
C789 C 0.00702 0.2415 0.76721 0.0
C790 C 0.96172 0.26366 0.7542 0.0
C791 C 0.95039 0.25695 0.76831 0.0
C792 C 0.98777 0.24812 0.76791 0.0
C793 C 0.95847 0.24669 0.7825 0.0
C794 C 0.01479 0.2323 0.78229 0.0
C795 C 0.03454 0.23686 0.74997 0.0
N796 N 0.97664 0.24249 0.78187 0.0
N797 N 0.01712 0.24351 0.75155 0.0
H798 H 0.83258 0.02359 0.76026 0.0
H799 H 0.74776 0.95397 0.76948 0.0
H800 H 0.7774 0.0376 0.74348 0.0
H801 H 0.80284 0.94282 0.7886 0.0
H802 H 0.75836 0.98379 0.75772 0.0
H803 H 0.82217 0.99262 0.76757 0.0
C804 C 0.81831 0.02007 0.75784 0.0
C805 C 0.80582 0.03325 0.75138 0.0
C806 C 0.76809 0.97478 0.76449 0.0
C807 C 0.79368 0.99783 0.76009 0.0
C808 C 0.76203 0.95782 0.77128 0.0
C809 C 0.7744 0.94593 0.78012 0.0
C810 C 0.78664 0.9798 0.76652 0.0
C811 C 0.79277 0.95155 0.78195 0.0
C812 C 0.81234 0.00239 0.76213 0.0
C813 C 0.7875 0.02787 0.74846 0.0
N814 N 0.7983 0.96803 0.77523 0.0
N815 N 0.78192 0.0106 0.75304 0.0
H816 H 0.26507 0.23312 0.04078 0.0
H817 H 0.20201 0.23793 0.95118 0.0
H818 H 0.22868 0.18971 0.02303 0.0
H819 H 0.25129 0.27062 0.95633 0.0
H820 H 0.20826 0.22433 0.98113 0.0
H821 H 0.25801 0.25007 0.01244 0.0
C822 C 0.25581 0.22704 0.03083 0.0
C823 C 0.24749 0.20994 0.03424 0.0
C824 C 0.21762 0.23462 0.9758 0.0
C825 C 0.23898 0.22947 0.00223 0.0
C826 C 0.21396 0.24256 0.95877 0.0
C827 C 0.22628 0.25527 0.95111 0.0
C828 C 0.23367 0.23946 0.98532 0.0
C829 C 0.24147 0.2608 0.96169 0.0
C830 C 0.25171 0.23677 0.01475 0.0
C831 C 0.2355 0.20278 0.02095 0.0
N832 N 0.24487 0.25271 0.97822 0.0
N833 N 0.23148 0.21265 0.00563 0.0
H834 H 0.26787 0.75189 0.94812 0.0
H835 H 0.20422 0.76943 0.03624 0.0
H836 H 0.22353 0.7913 0.95025 0.0
H837 H 0.2518 0.73396 0.03747 0.0
H838 H 0.20999 0.77556 0.00384 0.0
H839 H 0.26188 0.74404 0.98037 0.0
C840 C 0.25703 0.75904 0.95541 0.0
C841 C 0.24619 0.77228 0.94647 0.0
C842 C 0.21913 0.76634 0.01113 0.0
C843 C 0.23906 0.76314 0.98317 0.0
C844 C 0.21576 0.76272 0.02963 0.0
C845 C 0.2276 0.75123 0.03961 0.0
C846 C 0.23449 0.75845 0.00248 0.0
C847 C 0.24232 0.74291 0.03029 0.0
C848 C 0.25354 0.75447 0.97377 0.0
C849 C 0.23225 0.78102 0.95655 0.0
N850 N 0.24544 0.74679 0.01225 0.0
N851 N 0.22905 0.77623 0.97429 0.0
H852 H 0.74237 0.23643 0.9534 0.0
H853 H 0.81055 0.23762 0.03934 0.0
H854 H 0.79811 0.21609 0.95183 0.0
H855 H 0.75841 0.26594 0.03927 0.0
H856 H 0.80669 0.23106 0.0067 0.0
H857 H 0.74796 0.24807 0.98456 0.0
C858 C 0.75575 0.23439 0.95961 0.0
C859 C 0.76975 0.22517 0.95005 0.0
C860 C 0.79617 0.23892 0.01372 0.0
C861 C 0.77627 0.23852 0.98555 0.0
C862 C 0.79842 0.24273 0.03236 0.0
C863 C 0.78473 0.25224 0.04205 0.0
C864 C 0.77999 0.24441 0.00472 0.0
C865 C 0.76931 0.25857 0.03231 0.0
C866 C 0.75897 0.24113 0.97733 0.0
C867 C 0.78687 0.22303 0.95869 0.0
N868 N 0.76722 0.25431 0.01421 0.0
N869 N 0.78961 0.22958 0.97594 0.0
H870 H 0.76703 0.7303 0.95564 0.0
H871 H 0.73815 0.7548 0.04444 0.0
H872 H 0.82106 0.74641 0.97406 0.0
H873 H 0.79289 0.77703 0.04994 0.0
H874 H 0.74682 0.74174 0.01477 0.0
H875 H 0.75498 0.73683 0.98613 0.0
C876 C 0.77645 0.73478 0.96627 0.0
C877 C 0.79506 0.73796 0.96224 0.0
C878 C 0.75694 0.7496 0.02227 0.0
C879 C 0.78136 0.74561 0.99739 0.0
C880 C 0.75194 0.75708 0.03929 0.0
C881 C 0.76475 0.76715 0.04962 0.0
C882 C 0.77489 0.75233 0.01554 0.0
C883 C 0.78249 0.76946 0.04244 0.0
C884 C 0.76953 0.73859 0.98379 0.0
C885 C 0.8066 0.74389 0.97649 0.0
N886 N 0.78699 0.76214 0.0259 0.0
N887 N 0.79952 0.74769 0.99332 0.0
H888 H 0.52864 0.72563 0.68207 0.0
H889 H 0.45927 0.73745 0.76521 0.0
H890 H 0.54395 0.7579 0.72952 0.0
H891 H 0.46175 0.68905 0.73087 0.0
H892 H 0.48824 0.7481 0.75148 0.0
H893 H 0.50066 0.71626 0.69789 0.0
C894 C 0.52598 0.73103 0.69569 0.0
C895 C 0.53873 0.74248 0.70452 0.0
C896 C 0.4825 0.73504 0.7472 0.0
C897 C 0.50679 0.73157 0.7228 0.0
C898 C 0.46607 0.72889 0.7551 0.0
C899 C 0.45801 0.71238 0.7491 0.0
C900 C 0.49061 0.72477 0.73303 0.0
C901 C 0.46738 0.70189 0.73589 0.0
C902 C 0.5101 0.72549 0.7048 0.0
C903 C 0.5345 0.749 0.72223 0.0
N904 N 0.48301 0.7084 0.72811 0.0
N905 N 0.51886 0.74341 0.73086 0.0
H906 H 0.25053 0.45836 0.76572 0.0
H907 H 0.26878 0.55034 0.70798 0.0
H908 H 0.29188 0.46367 0.72345 0.0
H909 H 0.22866 0.54692 0.75159 0.0
H910 H 0.27639 0.5181 0.71285 0.0
H911 H 0.24211 0.49062 0.76097 0.0
C912 C 0.258 0.46635 0.75562 0.0
C913 C 0.27193 0.45829 0.74496 0.0
C914 C 0.26584 0.52433 0.72131 0.0
C915 C 0.26215 0.49507 0.73924 0.0
C916 C 0.2614 0.54274 0.71845 0.0
C917 C 0.24809 0.55137 0.72943 0.0
C918 C 0.25697 0.51441 0.7353 0.0
C919 C 0.23898 0.54081 0.74279 0.0
C920 C 0.25309 0.48473 0.75282 0.0
C921 C 0.28105 0.46928 0.73199 0.0
N922 N 0.24368 0.52289 0.74544 0.0
N923 N 0.27594 0.48705 0.72944 0.0
H924 H 0.46014 0.24378 0.7313 0.0
H925 H 0.52929 0.32871 0.74152 0.0
H926 H 0.45741 0.29383 0.69943 0.0
H927 H 0.54207 0.27479 0.76289 0.0
H928 H 0.49996 0.31702 0.73046 0.0
H929 H 0.4882 0.25534 0.74616 0.0
C930 C 0.46552 0.25708 0.7273 0.0
C931 C 0.45643 0.26784 0.71408 0.0
C932 C 0.50909 0.30776 0.73771 0.0
C933 C 0.48811 0.28125 0.73127 0.0
C934 C 0.5258 0.31447 0.74418 0.0
C935 C 0.53825 0.30267 0.75298 0.0
C936 C 0.50475 0.28908 0.74 0.0
C937 C 0.5329 0.28436 0.75611 0.0
C938 C 0.48144 0.2637 0.73586 0.0
C939 C 0.46393 0.28502 0.70951 0.0
N940 N 0.51659 0.27805 0.74945 0.0
N941 N 0.47923 0.29121 0.71815 0.0
H942 H 0.77278 0.45622 0.75503 0.0
H943 H 0.71533 0.53591 0.70547 0.0
H944 H 0.73977 0.44807 0.70637 0.0
H945 H 0.73954 0.5419 0.75935 0.0
H946 H 0.72763 0.5048 0.70372 0.0
H947 H 0.76479 0.48893 0.7545 0.0
C948 C 0.76415 0.46136 0.74403 0.0
C949 C 0.75681 0.44939 0.7308 0.0
C950 C 0.73027 0.5129 0.71594 0.0
C951 C 0.74746 0.48666 0.73026 0.0
C952 C 0.72321 0.53067 0.71697 0.0
C953 C 0.72631 0.54149 0.73265 0.0
C954 C 0.74059 0.50585 0.73065 0.0
C955 C 0.73671 0.53398 0.74707 0.0
C956 C 0.75947 0.48 0.74384 0.0
C957 C 0.74564 0.45678 0.71692 0.0
N958 N 0.74348 0.51659 0.74573 0.0
N959 N 0.7412 0.47491 0.71709 0.0
H960 H 0.45286 0.30383 0.29209 0.0
H961 H 0.54182 0.24198 0.27392 0.0
H962 H 0.45802 0.26909 0.24424 0.0
H963 H 0.54023 0.28792 0.31147 0.0
H964 H 0.51 0.24885 0.26485 0.0
H965 H 0.48397 0.29556 0.30115 0.0
C966 C 0.46058 0.29449 0.28343 0.0
C967 C 0.45286 0.28717 0.26735 0.0
C968 C 0.51665 0.25735 0.27511 0.0
C969 C 0.48853 0.27747 0.27777 0.0
C970 C 0.53472 0.25336 0.28039 0.0
C971 C 0.54366 0.26442 0.29343 0.0
C972 C 0.5075 0.27235 0.28313 0.0
C973 C 0.5339 0.27907 0.3013 0.0
C974 C 0.47837 0.28977 0.28862 0.0
C975 C 0.46352 0.27513 0.25668 0.0
N976 N 0.51637 0.28259 0.29603 0.0
N977 N 0.48084 0.27056 0.26213 0.0
H978 H 0.75251 0.45183 0.2251 0.0
H979 H 0.73138 0.542 0.28448 0.0
H980 H 0.7089 0.45603 0.26518 0.0
H981 H 0.77103 0.54099 0.24031 0.0
H982 H 0.72443 0.50978 0.27857 0.0
H983 H 0.75999 0.48422 0.23044 0.0
C984 C 0.74432 0.45962 0.2348 0.0
C985 C 0.73009 0.45119 0.24475 0.0
C986 C 0.73473 0.51655 0.27021 0.0
C987 C 0.73882 0.48808 0.25119 0.0
C988 C 0.73882 0.53493 0.27369 0.0
C989 C 0.75177 0.54423 0.26283 0.0
C990 C 0.74363 0.50734 0.25576 0.0
C991 C 0.76096 0.53435 0.24902 0.0
C992 C 0.74869 0.47807 0.23794 0.0
C993 C 0.72001 0.46193 0.25721 0.0
N994 N 0.75663 0.51644 0.2458 0.0
N995 N 0.72466 0.47975 0.26017 0.0
H996 H 0.5375 0.72485 0.23977 0.0
H997 H 0.44315 0.701 0.29066 0.0
H998 H 0.52324 0.67112 0.26061 0.0
H999 H 0.45485 0.7547 0.26818 0.0
H1000 H 0.47223 0.68988 0.27863 0.0
H1001 H 0.50675 0.73579 0.24798 0.0
C1002 C 0.5278 0.71526 0.24574 0.0
C1003 C 0.533 0.69707 0.24965 0.0
C1004 C 0.4685 0.7041 0.27629 0.0
C1005 C 0.49797 0.70958 0.25934 0.0
C1006 C 0.4519 0.71052 0.28326 0.0
C1007 C 0.44657 0.72885 0.28049 0.0
C1008 C 0.48 0.71608 0.26646 0.0
C1009 C 0.45847 0.74049 0.27072 0.0
C1010 C 0.5103 0.72156 0.25055 0.0
C1011 C 0.51989 0.68527 0.25745 0.0
N1012 N 0.47468 0.7339 0.26405 0.0
N1013 N 0.50307 0.69178 0.26219 0.0
H1014 H 0.24665 0.5466 0.22518 0.0
H1015 H 0.26495 0.4775 0.30813 0.0
H1016 H 0.29096 0.55249 0.26425 0.0
H1017 H 0.23281 0.46167 0.26078 0.0
H1018 H 0.27198 0.50663 0.2932 0.0
H1019 H 0.24003 0.5161 0.23797 0.0
C1020 C 0.25525 0.54133 0.23614 0.0
C1021 C 0.26929 0.55218 0.24376 0.0
C1022 C 0.26334 0.49682 0.28608 0.0
C1023 C 0.26144 0.51766 0.25873 0.0
C1024 C 0.25913 0.48025 0.2947 0.0
C1025 C 0.24829 0.46709 0.28569 0.0
C1026 C 0.25657 0.50038 0.26834 0.0
C1027 C 0.24122 0.47143 0.26823 0.0
C1028 C 0.25135 0.524 0.24353 0.0
C1029 C 0.27992 0.54469 0.25802 0.0
N1030 N 0.24551 0.48772 0.26008 0.0
N1031 N 0.27561 0.52803 0.2652 0.0
H1032 H 0.73885 0.69748 0.54156 0.0
H1033 H 0.73572 0.75964 0.45099 0.0
H1034 H 0.76688 0.7496 0.53723 0.0
H1035 H 0.71257 0.70512 0.45495 0.0
H1036 H 0.74824 0.7561 0.48211 0.0
H1037 H 0.73088 0.69941 0.50909 0.0
C1038 C 0.74358 0.70921 0.53369 0.0
C1039 C 0.75343 0.72346 0.54213 0.0
C1040 C 0.74046 0.74491 0.47611 0.0
C1041 C 0.74401 0.72598 0.50497 0.0
C1042 C 0.73322 0.74697 0.45841 0.0
C1043 C 0.72299 0.7327 0.45041 0.0
C1044 C 0.73738 0.72849 0.48584 0.0
C1045 C 0.72029 0.71653 0.46058 0.0
C1046 C 0.73895 0.71035 0.51514 0.0
C1047 C 0.75926 0.73831 0.53125 0.0
N1048 N 0.72739 0.7149 0.47775 0.0
N1049 N 0.75425 0.73931 0.51325 0.0
H1050 H 0.7634 0.27219 0.46573 0.0
H1051 H 0.71802 0.30011 0.5618 0.0
H1052 H 0.74435 0.32673 0.47936 0.0
H1053 H 0.73617 0.2449 0.54964 0.0
H1054 H 0.72984 0.31026 0.53228 0.0
H1055 H 0.75663 0.26236 0.49723 0.0
C1056 C 0.75817 0.28219 0.47544 0.0
C1057 C 0.75427 0.30028 0.46987 0.0
C1058 C 0.73129 0.29592 0.53601 0.0
C1059 C 0.74624 0.28905 0.50576 0.0
C1060 C 0.72445 0.29007 0.55288 0.0
C1061 C 0.72599 0.27158 0.55817 0.0
C1062 C 0.73974 0.28321 0.52419 0.0
C1063 C 0.73458 0.25926 0.54605 0.0
C1064 C 0.75417 0.27653 0.49337 0.0
C1065 C 0.74743 0.31262 0.48299 0.0
N1066 N 0.7411 0.26529 0.52955 0.0
N1067 N 0.74347 0.30674 0.50025 0.0
H1068 H 0.25672 0.67214 0.46994 0.0
H1069 H 0.26634 0.75631 0.54027 0.0
H1070 H 0.23629 0.72654 0.45776 0.0
H1071 H 0.29372 0.70395 0.54614 0.0
H1072 H 0.25257 0.74536 0.51145 0.0
H1073 H 0.26647 0.68288 0.5001 0.0
C1074 C 0.25399 0.68628 0.47373 0.0
C1075 C 0.24583 0.6985 0.46123 0.0
C1076 C 0.26163 0.73633 0.51907 0.0
C1077 C 0.25734 0.71103 0.49569 0.0
C1078 C 0.26959 0.7426 0.53543 0.0
C1079 C 0.28125 0.73106 0.5456 0.0
C1080 C 0.2653 0.71836 0.51297 0.0
C1081 C 0.28486 0.71337 0.53877 0.0
C1082 C 0.25971 0.69246 0.49092 0.0
C1083 C 0.24258 0.71666 0.46696 0.0
N1084 N 0.27688 0.70758 0.52295 0.0
N1085 N 0.24854 0.72246 0.48372 0.0
H1086 H 0.26381 0.309 0.52528 0.0
H1087 H 0.244 0.23224 0.44962 0.0
H1088 H 0.23408 0.25928 0.53831 0.0
H1089 H 0.28643 0.27351 0.44512 0.0
H1090 H 0.2382 0.24228 0.48132 0.0
H1091 H 0.26897 0.29745 0.49432 0.0
C1092 C 0.25813 0.29575 0.52157 0.0
C1093 C 0.24857 0.28505 0.53446 0.0
C1094 C 0.2489 0.24896 0.47341 0.0
C1095 C 0.2547 0.2716 0.499 0.0
C1096 C 0.25231 0.24316 0.45538 0.0
C1097 C 0.26566 0.25212 0.44467 0.0
C1098 C 0.25878 0.26391 0.4806 0.0
C1099 C 0.27596 0.26625 0.45281 0.0
C1100 C 0.26125 0.28907 0.50391 0.0
C1101 C 0.24154 0.26797 0.52881 0.0
N1102 N 0.27216 0.27183 0.47018 0.0
N1103 N 0.24481 0.26171 0.51147 0.0
H1104 H 0.22913 0.17908 0.26465 0.0
H1105 H 0.12332 0.2026 0.24862 0.0
H1106 H 0.18556 0.13876 0.26458 0.0
H1107 H 0.1671 0.24233 0.24311 0.0
H1108 H 0.14532 0.1805 0.26087 0.0
H1109 H 0.20611 0.20347 0.26283 0.0
C1110 C 0.21472 0.17534 0.26446 0.0
C1111 C 0.20929 0.15681 0.26446 0.0
C1112 C 0.15009 0.19413 0.25722 0.0
C1113 C 0.18287 0.1847 0.26236 0.0
C1114 C 0.13751 0.2068 0.25026 0.0
C1115 C 0.14342 0.22426 0.24449 0.0
C1116 C 0.16876 0.19887 0.25834 0.0
C1117 C 0.16195 0.22897 0.24719 0.0
C1118 C 0.20158 0.1893 0.26343 0.0
C1119 C 0.19041 0.15283 0.26438 0.0
N1120 N 0.17402 0.21624 0.25365 0.0
N1121 N 0.1779 0.16665 0.26313 0.0
H1122 H 0.88115 0.14493 0.22638 0.0
H1123 H 0.78131 0.10804 0.25021 0.0
H1124 H 0.85404 0.15258 0.27861 0.0
H1125 H 0.80679 0.10262 0.19685 0.0
H1126 H 0.81074 0.11786 0.2629 0.0
H1127 H 0.85759 0.12249 0.21786 0.0
C1128 C 0.8706 0.14145 0.2363 0.0
C1129 C 0.86929 0.15094 0.25305 0.0
C1130 C 0.80997 0.11431 0.24846 0.0
C1131 C 0.84215 0.12562 0.24327 0.0
C1132 C 0.79313 0.10875 0.24118 0.0
C1133 C 0.79148 0.10487 0.22235 0.0
C1134 C 0.82527 0.11619 0.2368 0.0
C1135 C 0.80736 0.10575 0.2114 0.0
C1136 C 0.85705 0.12876 0.23136 0.0
C1137 C 0.85535 0.14585 0.26538 0.0
N1138 N 0.82353 0.11159 0.21872 0.0
N1139 N 0.84212 0.13381 0.26011 0.0
H1140 H 0.90123 0.79777 0.2557 0.0
H1141 H 0.81395 0.85113 0.28896 0.0
H1142 H 0.86076 0.77459 0.29234 0.0
H1143 H 0.85849 0.87691 0.25946 0.0
H1144 H 0.83391 0.82512 0.2959 0.0
H1145 H 0.88955 0.82843 0.2626 0.0
C1146 C 0.89018 0.79919 0.26559 0.0
C1147 C 0.88167 0.7836 0.27315 0.0
C1148 C 0.83949 0.83659 0.28822 0.0
C1149 C 0.86793 0.81863 0.28078 0.0
C1150 C 0.82807 0.85145 0.2842 0.0
C1151 C 0.83448 0.866 0.27327 0.0
C1152 C 0.85735 0.83609 0.28092 0.0
C1153 C 0.85295 0.86586 0.26776 0.0
C1154 C 0.88348 0.81672 0.2695 0.0
C1155 C 0.86759 0.78623 0.28605 0.0
N1156 N 0.86363 0.85092 0.27128 0.0
N1157 N 0.86084 0.80339 0.28911 0.0
H1158 H 0.17496 0.90042 0.19424 0.0
H1159 H 0.12257 0.84531 0.27215 0.0
H1160 H 0.19443 0.89285 0.24982 0.0
H1161 H 0.10547 0.8465 0.21536 0.0
H1162 H 0.14328 0.87097 0.26616 0.0
H1163 H 0.14493 0.88845 0.20355 0.0
C1164 C 0.17285 0.89654 0.20847 0.0
C1165 C 0.18737 0.89723 0.22118 0.0
C1166 C 0.13469 0.86595 0.25508 0.0
C1167 C 0.15305 0.88359 0.2319 0.0
C1168 C 0.12275 0.85137 0.25853 0.0
C1169 C 0.11263 0.84351 0.24412 0.0
C1170 C 0.13673 0.87248 0.23702 0.0
C1171 C 0.1132 0.85203 0.22682 0.0
C1172 C 0.15568 0.88972 0.21377 0.0
C1173 C 0.18377 0.8922 0.23946 0.0
N1174 N 0.12548 0.86577 0.2236 0.0
N1175 N 0.16706 0.88537 0.2442 0.0
H1176 H 0.0939 0.80518 0.76136 0.0
H1177 H 0.17062 0.85417 0.70195 0.0
H1178 H 0.12445 0.77851 0.71802 0.0
H1179 H 0.14097 0.88046 0.74612 0.0
H1180 H 0.14846 0.82904 0.70239 0.0
H1181 H 0.10555 0.83483 0.75096 0.0
C1182 C 0.10286 0.80558 0.74946 0.0
C1183 C 0.10855 0.78929 0.7408 0.0
C1184 C 0.14655 0.84046 0.71174 0.0
C1185 C 0.12209 0.82325 0.72891 0.0
C1186 C 0.15919 0.85487 0.71148 0.0
C1187 C 0.15789 0.86923 0.72433 0.0
C1188 C 0.13263 0.8403 0.7251 0.0
C1189 C 0.14264 0.86955 0.73613 0.0
C1190 C 0.10949 0.82255 0.74351 0.0
C1191 C 0.11989 0.79069 0.72526 0.0
N1192 N 0.13082 0.85507 0.73651 0.0
N1193 N 0.12657 0.80736 0.72002 0.0
H1194 H 0.18099 0.10708 0.81444 0.0
H1195 H 0.12793 0.15255 0.73067 0.0
H1196 H 0.20021 0.10811 0.75827 0.0
H1197 H 0.11137 0.15859 0.78732 0.0
H1198 H 0.14901 0.12812 0.73974 0.0
H1199 H 0.15106 0.11841 0.80398 0.0
C1200 C 0.17884 0.10941 0.79988 0.0
C1201 C 0.19326 0.10703 0.78725 0.0
C1202 C 0.14048 0.13447 0.75016 0.0
C1203 C 0.15906 0.1199 0.77523 0.0
C1204 C 0.12833 0.14834 0.74496 0.0
C1205 C 0.11821 0.15789 0.75833 0.0
C1206 C 0.14272 0.13032 0.76889 0.0
C1207 C 0.11908 0.15172 0.7766 0.0
C1208 C 0.16175 0.11586 0.79393 0.0
C1209 C 0.18963 0.1101 0.76855 0.0
N1210 N 0.13153 0.13862 0.78144 0.0
N1211 N 0.17298 0.11657 0.76315 0.0
H1212 H 0.86123 0.22308 0.70329 0.0
H1213 H 0.86439 0.11857 0.73587 0.0
H1214 H 0.90337 0.19999 0.73809 0.0
H1215 H 0.81699 0.14532 0.71221 0.0
H1216 H 0.88299 0.14555 0.728 0.0
H1217 H 0.84967 0.19202 0.69739 0.0
C1218 C 0.86842 0.21145 0.70921 0.0
C1219 C 0.88301 0.21412 0.72153 0.0
C1220 C 0.86858 0.14534 0.72423 0.0
C1221 C 0.86974 0.17867 0.71507 0.0
C1222 C 0.85798 0.12994 0.72869 0.0
C1223 C 0.83904 0.1299 0.72507 0.0
C1224 C 0.86017 0.16071 0.71604 0.0
C1225 C 0.83147 0.14495 0.71563 0.0
C1226 C 0.86173 0.19373 0.70596 0.0
C1227 C 0.89183 0.19855 0.7288 0.0
N1228 N 0.842 0.15984 0.71166 0.0
N1229 N 0.88486 0.18151 0.72573 0.0
H1230 H 0.82248 0.76922 0.72743 0.0
H1231 H 0.80058 0.87285 0.75559 0.0
H1232 H 0.86369 0.81146 0.73398 0.0
H1233 H 0.76007 0.82943 0.7553 0.0
H1234 H 0.82261 0.85196 0.74144 0.0
H1235 H 0.79856 0.79241 0.73149 0.0
C1236 C 0.82652 0.78341 0.72949 0.0
C1237 C 0.84515 0.78835 0.73068 0.0
C1238 C 0.80884 0.84705 0.74426 0.0
C1239 C 0.81779 0.81495 0.73539 0.0
C1240 C 0.79621 0.85899 0.75232 0.0
C1241 C 0.77852 0.85279 0.75697 0.0
C1242 C 0.80381 0.82874 0.74087 0.0
C1243 C 0.77361 0.83475 0.75216 0.0
C1244 C 0.81283 0.79664 0.73183 0.0
C1245 C 0.84952 0.80697 0.73319 0.0
N1246 N 0.78628 0.82327 0.7446 0.0
N1247 N 0.83594 0.81956 0.73567 0.0
H1248 H 0.25728 0.09943 0.19524 0.0
H1249 H 0.29228 0.18448 0.13926 0.0
H1250 H 0.29458 0.14 0.21712 0.0
H1251 H 0.26041 0.14055 0.11536 0.0
H1252 H 0.29922 0.16485 0.16552 0.0
H1253 H 0.26424 0.1101 0.16422 0.0
C1254 C 0.2673 0.11031 0.19347 0.0
C1255 C 0.27505 0.11914 0.20877 0.0
C1256 C 0.29102 0.1593 0.1544 0.0
C1257 C 0.28278 0.13171 0.17332 0.0
C1258 C 0.28703 0.17053 0.13939 0.0
C1259 C 0.27542 0.16424 0.12533 0.0
C1260 C 0.28302 0.14178 0.15555 0.0
C1261 C 0.26926 0.14599 0.12602 0.0
C1262 C 0.27126 0.11642 0.17573 0.0
C1263 C 0.28814 0.13296 0.2057 0.0
N1264 N 0.27278 0.13552 0.14113 0.0
N1265 N 0.29125 0.13913 0.18832 0.0
H1266 H 0.83345 0.25424 0.12736 0.0
H1267 H 0.84459 0.24697 0.23625 0.0
H1268 H 0.79072 0.26814 0.16617 0.0
H1269 H 0.88678 0.23145 0.19745 0.0
H1270 H 0.82674 0.26005 0.21097 0.0
H1271 H 0.85502 0.25091 0.15293 0.0
C1272 C 0.82865 0.25681 0.14122 0.0
C1273 C 0.81017 0.26118 0.14464 0.0
C1274 C 0.84003 0.25401 0.20802 0.0
C1275 C 0.83476 0.2573 0.17398 0.0
C1276 C 0.85026 0.24658 0.22248 0.0
C1277 C 0.86707 0.23779 0.21895 0.0
C1278 C 0.8466 0.25256 0.1899 0.0
C1279 C 0.87377 0.23784 0.20082 0.0
C1280 C 0.84097 0.2549 0.15583 0.0
C1281 C 0.80478 0.26449 0.16289 0.0
N1282 N 0.8634 0.24485 0.18696 0.0
N1283 N 0.81695 0.26229 0.17687 0.0
H1284 H 0.74905 0.89085 0.20488 0.0
H1285 H 0.77734 0.83808 0.11427 0.0
H1286 H 0.80481 0.88718 0.18492 0.0
H1287 H 0.72181 0.84249 0.13465 0.0
H1288 H 0.78656 0.86275 0.13515 0.0
H1289 H 0.73806 0.87958 0.1753 0.0
C1290 C 0.75899 0.88784 0.1942 0.0
C1291 C 0.7779 0.88956 0.19753 0.0
C1292 C 0.77225 0.85866 0.13471 0.0
C1293 C 0.76541 0.87649 0.16358 0.0
C1294 C 0.76694 0.84468 0.12264 0.0
C1295 C 0.74887 0.8379 0.12309 0.0
C1296 C 0.7594 0.86579 0.14727 0.0
C1297 C 0.73598 0.84702 0.13417 0.0
C1298 C 0.7527 0.88146 0.17726 0.0
C1299 C 0.79011 0.88579 0.18305 0.0
N1300 N 0.74158 0.86021 0.14612 0.0
N1301 N 0.78368 0.87911 0.16681 0.0
H1302 H 0.11228 0.76058 0.18703 0.0
H1303 H 0.21534 0.73211 0.16298 0.0
H1304 H 0.15489 0.75279 0.22767 0.0
H1305 H 0.17419 0.74496 0.12214 0.0
H1306 H 0.19188 0.73407 0.18683 0.0
H1307 H 0.13318 0.74928 0.16339 0.0
C1308 C 0.12595 0.75626 0.19106 0.0
C1309 C 0.13192 0.75794 0.20936 0.0
C1310 C 0.18793 0.73628 0.17264 0.0
C1311 C 0.15598 0.74507 0.18225 0.0
C1312 C 0.20133 0.73516 0.15898 0.0
C1313 C 0.19679 0.73867 0.14053 0.0
C1314 C 0.16985 0.74102 0.16786 0.0
C1315 C 0.17835 0.74233 0.13619 0.0
C1316 C 0.13789 0.74983 0.17751 0.0
C1317 C 0.14973 0.75193 0.21373 0.0
N1318 N 0.16559 0.74362 0.14979 0.0
N1319 N 0.1612 0.74598 0.20023 0.0
H1320 H 0.25316 0.85822 0.76184 0.0
H1321 H 0.24623 0.83249 0.86846 0.0
H1322 H 0.21866 0.88669 0.8009 0.0
H1323 H 0.27431 0.79932 0.82799 0.0
H1324 H 0.24155 0.85625 0.84514 0.0
H1325 H 0.2663 0.84033 0.78712 0.0
C1326 C 0.24852 0.86089 0.77574 0.0
C1327 C 0.23457 0.87376 0.77922 0.0
C1328 C 0.24895 0.84387 0.84144 0.0
C1329 C 0.2495 0.85332 0.80817 0.0
C1330 C 0.2517 0.83032 0.85477 0.0
C1331 C 0.26039 0.81375 0.85009 0.0
C1332 C 0.25495 0.8408 0.82332 0.0
C1333 C 0.26727 0.81176 0.83215 0.0
C1334 C 0.256 0.85065 0.79017 0.0
C1335 C 0.22918 0.87671 0.79753 0.0
N1336 N 0.2642 0.82502 0.81936 0.0
N1337 N 0.23653 0.86644 0.81129 0.0
H1338 H 0.16016 0.24866 0.76191 0.0
H1339 H 0.17773 0.27061 0.8678 0.0
H1340 H 0.11774 0.24814 0.80347 0.0
H1341 H 0.22028 0.27093 0.82638 0.0
H1342 H 0.15471 0.26751 0.84356 0.0
H1343 H 0.18133 0.26207 0.78428 0.0
C1344 C 0.15519 0.25164 0.77563 0.0
C1345 C 0.13723 0.24694 0.7809 0.0
C1346 C 0.16907 0.26848 0.83975 0.0
C1347 C 0.16145 0.26212 0.80663 0.0
C1348 C 0.18223 0.27026 0.8536 0.0
C1349 C 0.20099 0.27072 0.84915 0.0
C1350 C 0.17471 0.26705 0.82132 0.0
C1351 C 0.20598 0.27038 0.83049 0.0
C1352 C 0.16731 0.25926 0.78843 0.0
C1353 C 0.13154 0.25126 0.79885 0.0
N1354 N 0.19294 0.26833 0.81728 0.0
N1355 N 0.14368 0.25836 0.81113 0.0
H1356 H 0.814 0.10279 0.81388 0.0
H1357 H 0.73048 0.14975 0.86583 0.0
H1358 H 0.75766 0.10224 0.79524 0.0
H1359 H 0.78711 0.15568 0.88243 0.0
H1360 H 0.73939 0.12473 0.84539 0.0
H1361 H 0.80367 0.11496 0.84352 0.0
C1362 C 0.79943 0.10492 0.81611 0.0
C1363 C 0.78671 0.10187 0.80191 0.0
C1364 C 0.74984 0.13121 0.85379 0.0
C1365 C 0.77483 0.11577 0.83577 0.0
C1366 C 0.74473 0.14543 0.86557 0.0
C1367 C 0.75814 0.15509 0.87552 0.0
C1368 C 0.76853 0.12679 0.85175 0.0
C1369 C 0.77635 0.14874 0.87484 0.0
C1370 C 0.79355 0.11187 0.83305 0.0
C1371 C 0.768 0.10472 0.80565 0.0
N1372 N 0.78111 0.13528 0.86275 0.0
N1373 N 0.76267 0.11173 0.82211 0.0
H1374 H 0.85789 0.72841 0.87826 0.0
H1375 H 0.8574 0.70014 0.77247 0.0
H1376 H 0.81152 0.70505 0.84955 0.0
H1377 H 0.89828 0.73489 0.79777 0.0
H1378 H 0.84545 0.69266 0.80306 0.0
H1379 H 0.87721 0.72195 0.8514 0.0
C1380 C 0.85187 0.72158 0.86648 0.0
C1381 C 0.833 0.71765 0.86593 0.0
C1382 C 0.85732 0.70158 0.80192 0.0
C1383 C 0.85494 0.71023 0.83528 0.0
C1384 C 0.86422 0.70574 0.78447 0.0
C1385 C 0.87855 0.71849 0.7826 0.0
C1386 C 0.86485 0.71022 0.81749 0.0
C1387 C 0.88692 0.7253 0.79861 0.0
C1388 C 0.86288 0.71792 0.85115 0.0
C1389 C 0.82593 0.70869 0.85037 0.0
N1390 N 0.87974 0.72135 0.81538 0.0
N1391 N 0.83684 0.7055 0.83557 0.0
H1392 H 0.13361 0.27458 0.1509 0.0
H1393 H 0.1864 0.19225 0.10243 0.0
H1394 H 0.11753 0.21768 0.15584 0.0
H1395 H 0.20556 0.24838 0.10484 0.0
H1396 H 0.15669 0.20227 0.11465 0.0
H1397 H 0.15458 0.2662 0.12614 0.0
C1398 C 0.13411 0.26038 0.14642 0.0
C1399 C 0.12414 0.24673 0.15574 0.0
C1400 C 0.16731 0.21242 0.11221 0.0
C1401 C 0.14849 0.23697 0.12773 0.0
C1402 C 0.18428 0.20672 0.10525 0.0
C1403 C 0.19862 0.21944 0.10299 0.0
C1404 C 0.16467 0.23098 0.11687 0.0
C1405 C 0.19503 0.23803 0.10671 0.0
C1406 C 0.14619 0.25557 0.13235 0.0
C1407 C 0.12513 0.2286 0.14918 0.0
N1408 N 0.1785 0.24319 0.11366 0.0
N1409 N 0.13748 0.22415 0.13585 0.0
H1410 H 0.19259 0.75091 0.88567 0.0
H1411 H 0.15678 0.71537 0.78952 0.0
H1412 H 0.22646 0.72135 0.84693 0.0
H1413 H 0.12134 0.73897 0.83086 0.0
H1414 H 0.18125 0.71296 0.81228 0.0
H1415 H 0.16536 0.74186 0.86831 0.0
C1416 C 0.19427 0.74217 0.87372 0.0
C1417 C 0.21185 0.73718 0.86752 0.0
C1418 C 0.16806 0.71843 0.81648 0.0
C1419 C 0.18075 0.72706 0.84738 0.0
C1420 C 0.15408 0.71989 0.80346 0.0
C1421 C 0.1371 0.72772 0.80822 0.0
C1422 C 0.16516 0.7251 0.83437 0.0
C1423 C 0.13429 0.73304 0.82655 0.0
C1424 C 0.1787 0.73704 0.86378 0.0
C1425 C 0.21318 0.72567 0.8521 0.0
N1426 N 0.14829 0.73191 0.83889 0.0
N1427 N 0.19786 0.72132 0.84233 0.0
H1428 H 0.24902 0.20217 0.90498 0.0
H1429 H 0.28681 0.14451 0.8224 0.0
H1430 H 0.28756 0.22335 0.86516 0.0
H1431 H 0.2543 0.12126 0.86621 0.0
H1432 H 0.29305 0.17129 0.84155 0.0
H1433 H 0.25645 0.17097 0.89523 0.0
C1434 C 0.25937 0.20022 0.89444 0.0
C1435 C 0.26738 0.21536 0.88555 0.0
C1436 C 0.28487 0.1602 0.84719 0.0
C1437 C 0.2757 0.17969 0.87407 0.0
C1438 C 0.28129 0.1449 0.83624 0.0
C1439 C 0.26969 0.13087 0.84262 0.0
C1440 C 0.27644 0.16168 0.86449 0.0
C1441 C 0.26315 0.13188 0.86072 0.0
C1442 C 0.26362 0.18238 0.88888 0.0
C1443 C 0.2809 0.21206 0.87222 0.0
N1444 N 0.26625 0.14728 0.87089 0.0
N1445 N 0.28432 0.19456 0.86656 0.0
H1446 H 0.76122 0.24389 0.83148 0.0
H1447 H 0.8665 0.26726 0.81266 0.0
H1448 H 0.80288 0.24604 0.87375 0.0
H1449 H 0.82481 0.26699 0.77038 0.0
H1450 H 0.84249 0.26398 0.83586 0.0
H1451 H 0.78321 0.25697 0.80968 0.0
C1452 C 0.77487 0.24739 0.83627 0.0
C1453 C 0.78029 0.24355 0.8544 0.0
C1454 C 0.83856 0.26484 0.82152 0.0
C1455 C 0.80558 0.25834 0.82948 0.0
C1456 C 0.85229 0.26671 0.80826 0.0
C1457 C 0.8477 0.26711 0.78952 0.0
C1458 C 0.82011 0.26322 0.81603 0.0
C1459 C 0.82902 0.26653 0.78466 0.0
C1460 C 0.78745 0.25481 0.8238 0.0
C1461 C 0.79815 0.24849 0.85984 0.0
N1462 N 0.81593 0.26437 0.79781 0.0
N1463 N 0.81021 0.25538 0.84738 0.0
H1464 H 0.78257 0.87715 0.84767 0.0
H1465 H 0.75005 0.78594 0.89692 0.0
H1466 H 0.72639 0.85826 0.84983 0.0
H1467 H 0.80647 0.80424 0.89554 0.0
H1468 H 0.7403 0.8162 0.88633 0.0
H1469 H 0.79046 0.85525 0.87196 0.0
C1470 C 0.77175 0.86887 0.85369 0.0
C1471 C 0.75388 0.86919 0.8464 0.0
C1472 C 0.7548 0.81373 0.88859 0.0
C1473 C 0.76289 0.84387 0.87387 0.0
C1474 C 0.76039 0.79641 0.89461 0.0
C1475 C 0.77913 0.79242 0.89673 0.0
C1476 C 0.76807 0.82713 0.88436 0.0
C1477 C 0.79188 0.80664 0.89384 0.0
C1478 C 0.7763 0.85623 0.86746 0.0
C1479 C 0.74043 0.85817 0.85477 0.0
N1480 N 0.78614 0.82326 0.88746 0.0
N1481 N 0.74528 0.8457 0.86777 0.0
H1482 H 0.75483 0.75057 0.16846 0.0
H1483 H 0.86129 0.72936 0.18303 0.0
H1484 H 0.79452 0.74761 0.12438 0.0
H1485 H 0.82159 0.73 0.22719 0.0
H1486 H 0.83618 0.73174 0.1609 0.0
H1487 H 0.77804 0.73853 0.18962 0.0
C1488 C 0.7683 0.74709 0.16315 0.0
C1489 C 0.77281 0.75041 0.14468 0.0
C1490 C 0.83293 0.73116 0.17542 0.0
C1491 C 0.79949 0.73684 0.16884 0.0
C1492 C 0.84728 0.72982 0.18808 0.0
C1493 C 0.84357 0.72976 0.20701 0.0
C1494 C 0.81472 0.73261 0.18173 0.0
C1495 C 0.82513 0.7302 0.21272 0.0
C1496 C 0.78158 0.74027 0.17526 0.0
C1497 C 0.79048 0.74555 0.13857 0.0
N1498 N 0.81141 0.73184 0.20015 0.0
N1499 N 0.80322 0.73925 0.15066 0.0
H1500 H 0.24819 0.81002 0.09246 0.0
H1501 H 0.27808 0.85712 0.18479 0.0
H1502 H 0.28332 0.78401 0.13258 0.0
H1503 H 0.25009 0.88603 0.14118 0.0
H1504 H 0.28527 0.83235 0.16342 0.0
H1505 H 0.25408 0.83969 0.10691 0.0
C1506 C 0.25752 0.81062 0.10405 0.0
C1507 C 0.26496 0.79447 0.11159 0.0
C1508 C 0.27784 0.84423 0.15838 0.0
C1509 C 0.27145 0.82836 0.12846 0.0
C1510 C 0.27368 0.85837 0.17061 0.0
C1511 C 0.26314 0.87347 0.16483 0.0
C1512 C 0.27112 0.84499 0.14029 0.0
C1513 C 0.25808 0.87453 0.14625 0.0
C1514 C 0.26086 0.82759 0.11233 0.0
C1515 C 0.27714 0.79609 0.12645 0.0
N1516 N 0.26178 0.86027 0.13472 0.0
N1517 N 0.27966 0.81269 0.13468 0.0
H1518 H 0.70829 0.14811 0.17749 0.0
H1519 H 0.75713 0.19359 0.09285 0.0
H1520 H 0.73818 0.11704 0.13672 0.0
H1521 H 0.7192 0.22266 0.12802 0.0
H1522 H 0.7457 0.16451 0.10504 0.0
H1523 H 0.70724 0.17418 0.15643 0.0
C1524 C 0.71433 0.14665 0.16394 0.0
C1525 C 0.72368 0.13052 0.15898 0.0
C1526 C 0.73957 0.17721 0.10983 0.0
C1527 C 0.72281 0.16046 0.1349 0.0
C1528 C 0.74611 0.19384 0.10287 0.0
C1529 C 0.73938 0.21058 0.10973 0.0
C1530 C 0.72645 0.17733 0.124 0.0
C1531 C 0.72493 0.21008 0.1225 0.0
C1532 C 0.7137 0.16156 0.1519 0.0
C1533 C 0.73101 0.1293 0.14118 0.0
N1534 N 0.71923 0.19372 0.12953 0.0
N1535 N 0.73078 0.14423 0.12992 0.0
H1536 H 0.65574 0.61 0.71262 0.0
H1537 H 0.60734 0.70136 0.74581 0.0
H1538 H 0.65464 0.62897 0.76882 0.0
H1539 H 0.60717 0.68264 0.68948 0.0
H1540 H 0.61824 0.67118 0.75549 0.0
H1541 H 0.63125 0.63183 0.70517 0.0
C1542 C 0.64989 0.61826 0.72355 0.0
C1543 C 0.65753 0.61802 0.74127 0.0
C1544 C 0.61559 0.67354 0.74102 0.0
C1545 C 0.62989 0.64327 0.73277 0.0
C1546 C 0.60942 0.69083 0.73548 0.0
C1547 C 0.60674 0.69466 0.71677 0.0
C1548 C 0.61939 0.66003 0.72774 0.0
C1549 C 0.60932 0.68036 0.70404 0.0
C1550 C 0.63602 0.63087 0.71925 0.0
C1551 C 0.64941 0.62902 0.75488 0.0
N1552 N 0.61584 0.66378 0.70972 0.0
N1553 N 0.63631 0.64147 0.75026 0.0
H1554 H 0.26831 0.6465 0.7894 0.0
H1555 H 0.37568 0.6549 0.76917 0.0
H1556 H 0.29977 0.60682 0.75846 0.0
H1557 H 0.34102 0.69966 0.78701 0.0
H1558 H 0.35006 0.63361 0.77417 0.0
H1559 H 0.29695 0.66195 0.79795 0.0
C1560 C 0.28126 0.6407 0.78488 0.0
C1561 C 0.28167 0.62561 0.77287 0.0
C1562 C 0.34819 0.64805 0.77728 0.0
C1563 C 0.31436 0.6433 0.78239 0.0
C1564 C 0.3628 0.6602 0.77445 0.0
C1565 C 0.36032 0.67912 0.77729 0.0
C1566 C 0.33108 0.6549 0.78309 0.0
C1567 C 0.34339 0.68522 0.78427 0.0
C1568 C 0.29759 0.64961 0.78964 0.0
C1569 C 0.29884 0.61866 0.76745 0.0
N1570 N 0.32935 0.67318 0.78672 0.0
N1571 N 0.31449 0.62774 0.77199 0.0
H1572 H 0.3867 0.3076 0.72236 0.0
H1573 H 0.29313 0.33866 0.77017 0.0
H1574 H 0.34666 0.26987 0.74473 0.0
H1575 H 0.33055 0.37626 0.74351 0.0
H1576 H 0.3154 0.31399 0.76604 0.0
H1577 H 0.36909 0.33324 0.73486 0.0
C1578 C 0.37431 0.30467 0.73007 0.0
C1579 C 0.36801 0.28652 0.73225 0.0
C1580 C 0.31886 0.32767 0.76128 0.0
C1581 C 0.34775 0.31591 0.74657 0.0
C1582 C 0.30615 0.3418 0.76365 0.0
C1583 C 0.30985 0.35951 0.75689 0.0
C1584 C 0.33538 0.3312 0.75198 0.0
C1585 C 0.32705 0.36279 0.74879 0.0
C1586 C 0.36425 0.31935 0.7372 0.0
C1587 C 0.35195 0.28361 0.74253 0.0
N1588 N 0.33909 0.34869 0.74633 0.0
N1589 N 0.34228 0.29817 0.74915 0.0
H1590 H 0.64856 0.31696 0.79762 0.0
H1591 H 0.70168 0.40503 0.76609 0.0
H1592 H 0.62238 0.36286 0.77063 0.0
H1593 H 0.72558 0.3631 0.80057 0.0
H1594 H 0.67115 0.39336 0.7735 0.0
H1595 H 0.67497 0.3364 0.80449 0.0
C1596 C 0.64825 0.33124 0.7934 0.0
C1597 C 0.63343 0.33821 0.78318 0.0
C1598 C 0.683 0.38695 0.77984 0.0
C1599 C 0.66378 0.36051 0.79078 0.0
C1600 C 0.70045 0.39366 0.77565 0.0
C1601 C 0.71618 0.38476 0.78243 0.0
C1602 C 0.68129 0.371 0.79058 0.0
C1603 C 0.71382 0.37025 0.7949 0.0
C1604 C 0.66333 0.34237 0.79738 0.0
C1605 C 0.63361 0.35688 0.77835 0.0
N1606 N 0.6967 0.3635 0.79821 0.0
N1607 N 0.64875 0.36729 0.78184 0.0
H1608 H 0.71498 0.32782 0.22955 0.0
H1609 H 0.61526 0.30454 0.26836 0.0
H1610 H 0.67474 0.36892 0.24427 0.0
H1611 H 0.65686 0.26367 0.25714 0.0
H1612 H 0.63471 0.32781 0.25407 0.0
H1613 H 0.69184 0.30399 0.23405 0.0
C1614 C 0.70121 0.33187 0.23351 0.0
C1615 C 0.69689 0.3504 0.23684 0.0
C1616 C 0.6395 0.31371 0.25452 0.0
C1617 C 0.67033 0.3231 0.24214 0.0
C1618 C 0.62838 0.30038 0.26267 0.0
C1619 C 0.63457 0.28214 0.26425 0.0
C1620 C 0.65698 0.30883 0.24797 0.0
C1621 C 0.6516 0.27758 0.25642 0.0
C1622 C 0.688 0.31823 0.23609 0.0
C1623 C 0.67875 0.35481 0.24173 0.0
N1624 N 0.66232 0.29089 0.24884 0.0
N1625 N 0.6662 0.34123 0.24447 0.0
H1626 H 0.72237 0.63702 0.20484 0.0
H1627 H 0.61677 0.63691 0.23363 0.0
H1628 H 0.69646 0.59476 0.23745 0.0
H1629 H 0.64592 0.68386 0.21196 0.0
H1630 H 0.64333 0.61755 0.22626 0.0
H1631 H 0.692 0.64996 0.19819 0.0
C1632 C 0.71027 0.63012 0.21011 0.0
C1633 C 0.71192 0.61506 0.22205 0.0
C1634 C 0.64375 0.63204 0.22282 0.0
C1635 C 0.67728 0.62988 0.21475 0.0
C1636 C 0.62859 0.64308 0.227 0.0
C1637 C 0.62932 0.66209 0.2238 0.0
C1638 C 0.65966 0.64008 0.21535 0.0
C1639 C 0.64493 0.66933 0.21505 0.0
C1640 C 0.69295 0.63759 0.20644 0.0
C1641 C 0.69579 0.60664 0.22848 0.0
N1642 N 0.65958 0.65837 0.21136 0.0
N1643 N 0.67915 0.61435 0.22503 0.0
H1644 H 0.3184 0.63636 0.23137 0.0
H1645 H 0.3315 0.74305 0.2524 0.0
H1646 H 0.27511 0.67668 0.22619 0.0
H1647 H 0.37487 0.7027 0.25675 0.0
H1648 H 0.312 0.71988 0.23783 0.0
H1649 H 0.3405 0.66126 0.23579 0.0
C1650 C 0.31357 0.65044 0.23092 0.0
C1651 C 0.29482 0.65441 0.22872 0.0
C1652 C 0.32588 0.71618 0.24175 0.0
C1653 C 0.32002 0.68298 0.23392 0.0
C1654 C 0.33704 0.72943 0.25003 0.0
C1655 C 0.35474 0.72474 0.25612 0.0
C1656 C 0.33244 0.69811 0.23963 0.0
C1657 C 0.36121 0.70688 0.25256 0.0
C1658 C 0.3262 0.66467 0.23346 0.0
C1659 C 0.2894 0.67294 0.22809 0.0
N1660 N 0.34998 0.69417 0.24478 0.0
N1661 N 0.30189 0.68652 0.23093 0.0
H1662 H 0.38254 0.35174 0.27392 0.0
H1663 H 0.2894 0.39768 0.2416 0.0
H1664 H 0.36081 0.3486 0.21879 0.0
H1665 H 0.30995 0.40007 0.29726 0.0
H1666 H 0.31925 0.38636 0.23141 0.0
H1667 H 0.36063 0.37631 0.28075 0.0
C1668 C 0.3736 0.35663 0.26306 0.0
C1669 C 0.37316 0.3478 0.2459 0.0
C1670 C 0.31735 0.3896 0.24582 0.0
C1671 C 0.34785 0.37558 0.25372 0.0
C1672 C 0.30026 0.39603 0.25166 0.0
C1673 C 0.29703 0.39943 0.27038 0.0
C1674 C 0.33127 0.38631 0.25881 0.0
C1675 C 0.31173 0.39735 0.28273 0.0
C1676 C 0.36096 0.37056 0.26702 0.0
C1677 C 0.36132 0.35475 0.23234 0.0
N1678 N 0.32812 0.39061 0.27678 0.0
N1679 N 0.34888 0.36796 0.23666 0.0
H1680 H 0.74476 0.61524 0.69026 0.0
H1681 H 0.7697 0.7194 0.66691 0.0
H1682 H 0.74796 0.65839 0.73095 0.0
H1683 H 0.76219 0.67702 0.62599 0.0
H1684 H 0.76735 0.69612 0.69098 0.0
H1685 H 0.7569 0.63643 0.6673 0.0
C1686 C 0.74826 0.6291 0.69445 0.0
C1687 C 0.74502 0.63513 0.71252 0.0
C1688 C 0.76641 0.69188 0.67673 0.0
C1689 C 0.75879 0.65953 0.68617 0.0
C1690 C 0.76775 0.70517 0.66296 0.0
C1691 C 0.76584 0.7002 0.64439 0.0
C1692 C 0.76308 0.67348 0.67193 0.0
C1693 C 0.76353 0.68152 0.64012 0.0
C1694 C 0.75517 0.64121 0.6813 0.0
C1695 C 0.75004 0.65318 0.71715 0.0
N1696 N 0.76202 0.66888 0.65379 0.0
N1697 N 0.75644 0.66482 0.704 0.0
H1698 H 0.39704 0.71229 0.69377 0.0
H1699 H 0.33869 0.78585 0.63844 0.0
H1700 H 0.38081 0.76524 0.71518 0.0
H1701 H 0.35045 0.73116 0.61867 0.0
H1702 H 0.36136 0.78164 0.66278 0.0
H1703 H 0.3869 0.72186 0.66326 0.0
C1704 C 0.39154 0.72603 0.69203 0.0
C1705 C 0.3894 0.73785 0.70717 0.0
C1706 C 0.35931 0.77069 0.65289 0.0
C1707 C 0.37775 0.74887 0.67219 0.0
C1708 C 0.34643 0.77313 0.6389 0.0
C1709 C 0.34238 0.75866 0.62677 0.0
C1710 C 0.36804 0.7536 0.65487 0.0
C1711 C 0.353 0.7426 0.62785 0.0
C1712 C 0.3858 0.73149 0.67457 0.0
C1713 C 0.38247 0.75557 0.70399 0.0
N1714 N 0.36505 0.74032 0.64197 0.0
N1715 N 0.37664 0.76044 0.6869 0.0
H1716 H 0.2161 0.36605 0.72092 0.0
H1717 H 0.22027 0.30338 0.65096 0.0
H1718 H 0.25477 0.39629 0.68754 0.0
H1719 H 0.23972 0.34735 0.61616 0.0
H1720 H 0.21595 0.32522 0.67579 0.0
H1721 H 0.20686 0.34865 0.69372 0.0
C1722 C 0.22244 0.36924 0.70782 0.0
C1723 C 0.23663 0.38226 0.70662 0.0
C1724 C 0.22059 0.33034 0.66261 0.0
C1725 C 0.22673 0.36186 0.67561 0.0
C1726 C 0.22328 0.31775 0.64843 0.0
C1727 C 0.23063 0.3235 0.63153 0.0
C1728 C 0.22538 0.34887 0.65996 0.0
C1729 C 0.23415 0.3423 0.62901 0.0
C1730 C 0.21737 0.35908 0.69232 0.0
C1731 C 0.24411 0.38603 0.68921 0.0
N1732 N 0.23184 0.35426 0.6432 0.0
N1733 N 0.2393 0.37566 0.67447 0.0
H1734 H 0.65291 0.22484 0.64383 0.0
H1735 H 0.60771 0.31013 0.69438 0.0
H1736 H 0.65808 0.28086 0.62498 0.0
H1737 H 0.6075 0.25439 0.71486 0.0
H1738 H 0.61897 0.2988 0.66476 0.0
H1739 H 0.62853 0.23443 0.66473 0.0
C1740 C 0.64854 0.23908 0.64371 0.0
C1741 C 0.65784 0.25215 0.63298 0.0
C1742 C 0.61617 0.28903 0.67565 0.0
C1743 C 0.63031 0.26334 0.65727 0.0
C1744 C 0.60976 0.29549 0.69258 0.0
C1745 C 0.60706 0.28323 0.70726 0.0
C1746 C 0.61988 0.2702 0.67341 0.0
C1747 C 0.60975 0.2644 0.70406 0.0
C1748 C 0.63469 0.24459 0.65575 0.0
C1749 C 0.65143 0.27036 0.63318 0.0
N1750 N 0.61623 0.2585 0.68757 0.0
N1751 N 0.63837 0.27553 0.64553 0.0
H1752 H 0.75092 0.40142 0.30458 0.0
H1753 H 0.78914 0.31481 0.35655 0.0
H1754 H 0.78598 0.36086 0.27917 0.0
H1755 H 0.76075 0.35922 0.38379 0.0
H1756 H 0.7933 0.33432 0.32963 0.0
H1757 H 0.75956 0.3896 0.33475 0.0
C1758 C 0.76076 0.39026 0.30537 0.0
C1759 C 0.76744 0.38183 0.28934 0.0
C1760 C 0.78645 0.33997 0.34159 0.0
C1761 C 0.77713 0.36801 0.32384 0.0
C1762 C 0.78403 0.3288 0.35697 0.0
C1763 C 0.77424 0.33529 0.37228 0.0
C1764 C 0.77873 0.35766 0.34136 0.0
C1765 C 0.7682 0.35361 0.3722 0.0
C1766 C 0.76569 0.38351 0.32262 0.0
C1767 C 0.78035 0.36763 0.29117 0.0
N1768 N 0.7702 0.36404 0.3568 0.0
N1769 N 0.78446 0.36088 0.30812 0.0
H1770 H 0.60091 0.74532 0.29207 0.0
H1771 H 0.65192 0.71415 0.38298 0.0
H1772 H 0.60247 0.68926 0.31155 0.0
H1773 H 0.65151 0.76957 0.36179 0.0
H1774 H 0.62689 0.70632 0.36192 0.0
H1775 H 0.61262 0.75561 0.32173 0.0
C1776 C 0.6035 0.73518 0.30267 0.0
C1777 C 0.6011 0.71636 0.29917 0.0
C1778 C 0.63195 0.72032 0.36222 0.0
C1779 C 0.61471 0.72805 0.33319 0.0
C1780 C 0.64614 0.72484 0.37438 0.0
C1781 C 0.65409 0.74242 0.37381 0.0
C1782 C 0.62577 0.73348 0.34946 0.0
C1783 C 0.64603 0.75573 0.36239 0.0
C1784 C 0.61016 0.74107 0.31965 0.0
C1785 C 0.60438 0.70389 0.31356 0.0
N1786 N 0.63258 0.7509 0.35041 0.0
N1787 N 0.61135 0.70992 0.32983 0.0
H1788 H 0.20618 0.68518 0.34869 0.0
H1789 H 0.24265 0.59917 0.29508 0.0
H1790 H 0.23403 0.63989 0.37503 0.0
H1791 H 0.20731 0.64014 0.27077 0.0
H1792 H 0.23425 0.61034 0.32556 0.0
H1793 H 0.20113 0.66604 0.32166 0.0
C1794 C 0.21098 0.67107 0.34888 0.0
C1795 C 0.2209 0.66421 0.36395 0.0
C1796 C 0.22797 0.61665 0.31361 0.0
C1797 C 0.21538 0.64228 0.33291 0.0
C1798 C 0.23275 0.61026 0.2962 0.0
C1799 C 0.22594 0.61901 0.2804 0.0
C1800 C 0.21658 0.63215 0.31523 0.0
C1801 C 0.213 0.63312 0.2826 0.0
C1802 C 0.20804 0.66012 0.33344 0.0
C1803 C 0.22651 0.64577 0.36361 0.0
N1804 N 0.20907 0.63956 0.29971 0.0
N1805 N 0.22402 0.63555 0.34814 0.0
H1806 H 0.27614 0.23112 0.32084 0.0
H1807 H 0.37912 0.26154 0.2992 0.0
H1808 H 0.31708 0.24173 0.36251 0.0
H1809 H 0.33713 0.25499 0.25771 0.0
H1810 H 0.35824 0.24851 0.32195 0.0
H1811 H 0.29981 0.23413 0.29726 0.0
C1812 C 0.29015 0.23388 0.32507 0.0
C1813 C 0.29457 0.23649 0.34369 0.0
C1814 C 0.35366 0.24969 0.30783 0.0
C1815 C 0.32174 0.24003 0.31669 0.0
C1816 C 0.3656 0.25711 0.29479 0.0
C1817 C 0.35977 0.25968 0.27655 0.0
C1818 C 0.33571 0.24487 0.30265 0.0
C1819 C 0.34217 0.25347 0.27164 0.0
C1820 C 0.30367 0.23559 0.31157 0.0
C1821 C 0.313 0.23982 0.34832 0.0
N1822 N 0.33067 0.24659 0.28468 0.0
N1823 N 0.32586 0.24171 0.3349 0.0
H1824 H 0.69665 0.75186 0.59183 0.0
H1825 H 0.64758 0.78518 0.68162 0.0
H1826 H 0.72233 0.78747 0.63172 0.0
H1827 H 0.6191 0.75779 0.63737 0.0
H1828 H 0.67317 0.79145 0.66091 0.0
H1829 H 0.66669 0.75927 0.60491 0.0
C1830 C 0.69593 0.76162 0.60307 0.0
C1831 C 0.71203 0.76875 0.61097 0.0
C1832 C 0.6612 0.78439 0.65558 0.0
C1833 C 0.6778 0.77697 0.6263 0.0
C1834 C 0.64659 0.78075 0.66743 0.0
C1835 C 0.63137 0.7706 0.66129 0.0
C1836 C 0.66078 0.77749 0.63754 0.0
C1837 C 0.63067 0.76548 0.64271 0.0
C1838 C 0.6788 0.76583 0.61056 0.0
C1839 C 0.71028 0.7815 0.62533 0.0
N1840 N 0.64537 0.76862 0.63158 0.0
N1841 N 0.6935 0.78486 0.63284 0.0
H1842 H 0.68901 0.30366 0.40557 0.0
H1843 H 0.6397 0.22251 0.35226 0.0
H1844 H 0.71164 0.24924 0.39838 0.0
H1845 H 0.61736 0.27729 0.35677 0.0
H1846 H 0.66197 0.22993 0.37617 0.0
H1847 H 0.65937 0.29239 0.39443 0.0
C1848 C 0.68769 0.28928 0.40193 0.0
C1849 C 0.70297 0.27747 0.40252 0.0
C1850 C 0.65197 0.24024 0.37224 0.0
C1851 C 0.66908 0.26451 0.38974 0.0
C1852 C 0.63917 0.23597 0.35864 0.0
C1853 C 0.62693 0.24944 0.35223 0.0
C1854 C 0.65273 0.25821 0.37929 0.0
C1855 C 0.6267 0.26655 0.36116 0.0
C1856 C 0.67074 0.28285 0.39558 0.0
C1857 C 0.70036 0.25894 0.39783 0.0
N1858 N 0.63973 0.27061 0.37393 0.0
N1859 N 0.68384 0.2531 0.39141 0.0
H1860 H 0.77042 0.66811 0.27414 0.0
H1861 H 0.74019 0.69077 0.37704 0.0
H1862 H 0.75879 0.62678 0.31519 0.0
H1863 H 0.74625 0.73173 0.33444 0.0
H1864 H 0.75292 0.66774 0.35626 0.0
H1865 H 0.76745 0.69184 0.29764 0.0
C1866 C 0.76743 0.66398 0.28814 0.0
C1867 C 0.76454 0.64542 0.29263 0.0
C1868 C 0.75168 0.68181 0.35153 0.0
C1869 C 0.76106 0.6726 0.31961 0.0
C1870 C 0.74443 0.69501 0.3634 0.0
C1871 C 0.74183 0.71318 0.35737 0.0
C1872 C 0.75631 0.68678 0.33347 0.0
C1873 C 0.7478 0.71786 0.33962 0.0
C1874 C 0.76574 0.67757 0.30156 0.0
C1875 C 0.76093 0.64092 0.31105 0.0
N1876 N 0.75454 0.70468 0.32821 0.0
N1877 N 0.75908 0.65444 0.32383 0.0
H1878 H 0.28513 0.75004 0.39467 0.0
H1879 H 0.37918 0.72258 0.34773 0.0
H1880 H 0.30665 0.69473 0.39354 0.0
H1881 H 0.35666 0.77748 0.3484 0.0
H1882 H 0.35735 0.71373 0.3717 0.0
H1883 H 0.31498 0.76152 0.38468 0.0
C1884 C 0.2962 0.74031 0.39252 0.0
C1885 C 0.29326 0.72135 0.39453 0.0
C1886 C 0.3575 0.72784 0.36695 0.0
C1887 C 0.32751 0.73441 0.38293 0.0
C1888 C 0.3701 0.73296 0.35337 0.0
C1889 C 0.36939 0.75067 0.34572 0.0
C1890 C 0.34414 0.74053 0.37281 0.0
C1891 C 0.35738 0.76354 0.35361 0.0
C1892 C 0.3133 0.74689 0.38687 0.0
C1893 C 0.30822 0.70944 0.39189 0.0
N1894 N 0.34496 0.75812 0.36644 0.0
N1895 N 0.32461 0.71613 0.38589 0.0
H1896 H 0.20588 0.27953 0.35323 0.0
H1897 H 0.23484 0.38513 0.35143 0.0
H1898 H 0.24094 0.30543 0.39348 0.0
H1899 H 0.20979 0.3561 0.30614 0.0
H1900 H 0.22868 0.35858 0.37129 0.0
H1901 H 0.19854 0.30991 0.34068 0.0
C1902 C 0.2116 0.29163 0.35977 0.0
C1903 C 0.22436 0.28996 0.37412 0.0
C1904 C 0.22423 0.35819 0.35709 0.0
C1905 C 0.21625 0.32464 0.35975 0.0
C1906 C 0.2277 0.37335 0.34577 0.0
C1907 C 0.22321 0.37262 0.32703 0.0
C1908 C 0.21616 0.3423 0.34957 0.0
C1909 C 0.21386 0.35706 0.32043 0.0
C1910 C 0.20751 0.30896 0.35253 0.0
C1911 C 0.23133 0.3061 0.38212 0.0
N1912 N 0.21088 0.34243 0.33162 0.0
N1913 N 0.22744 0.32274 0.37463 0.0
H1914 H 0.38872 0.26785 0.64147 0.0
H1915 H 0.29169 0.23508 0.60547 0.0
H1916 H 0.36476 0.21475 0.65259 0.0
H1917 H 0.31399 0.28937 0.59652 0.0
H1918 H 0.32203 0.22457 0.61511 0.0
H1919 H 0.36603 0.27258 0.61708 0.0
C1920 C 0.37916 0.25688 0.6383 0.0
C1921 C 0.37828 0.24109 0.64935 0.0
C1922 C 0.32038 0.23872 0.61076 0.0
C1923 C 0.35207 0.24657 0.62187 0.0
C1924 C 0.30301 0.24475 0.6053 0.0
C1925 C 0.30017 0.26325 0.60063 0.0
C1926 C 0.33499 0.25132 0.61179 0.0
C1927 C 0.31546 0.27505 0.60034 0.0
C1928 C 0.36606 0.25966 0.6245 0.0
C1929 C 0.36562 0.22731 0.64464 0.0
N1930 N 0.33213 0.26898 0.60619 0.0
N1931 N 0.35275 0.23055 0.63154 0.0
H1932 H 0.75024 0.29619 0.63136 0.0
H1933 H 0.76871 0.32383 0.73589 0.0
H1934 H 0.74464 0.25841 0.67686 0.0
H1935 H 0.7667 0.36253 0.69087 0.0
H1936 H 0.76594 0.29861 0.71389 0.0
H1937 H 0.76266 0.31914 0.65234 0.0
C1938 C 0.75187 0.2926 0.64573 0.0
C1939 C 0.74607 0.27543 0.65242 0.0
C1940 C 0.7663 0.31261 0.70882 0.0
C1941 C 0.76014 0.30181 0.67657 0.0
C1942 C 0.76789 0.32704 0.72136 0.0
C1943 C 0.76766 0.34537 0.71524 0.0
C1944 C 0.76449 0.31652 0.69 0.0
C1945 C 0.76671 0.34865 0.69624 0.0
C1946 C 0.75894 0.30576 0.65772 0.0
C1947 C 0.74877 0.27152 0.67113 0.0
N1948 N 0.76499 0.33437 0.68432 0.0
N1949 N 0.75537 0.28472 0.68261 0.0
H1950 H 0.23971 0.63233 0.67659 0.0
H1951 H 0.24865 0.73985 0.65626 0.0
H1952 H 0.22633 0.67459 0.71612 0.0
H1953 H 0.26346 0.69717 0.61773 0.0
H1954 H 0.23554 0.71639 0.67655 0.0
H1955 H 0.2436 0.65605 0.65314 0.0
C1956 C 0.23737 0.64657 0.6803 0.0
C1957 C 0.23297 0.65148 0.69843 0.0
C1958 C 0.24146 0.7122 0.66354 0.0
C1959 C 0.23755 0.67875 0.67167 0.0
C1960 C 0.24889 0.7256 0.65193 0.0
C1961 C 0.25744 0.72045 0.63541 0.0
C1962 C 0.24261 0.69355 0.65857 0.0
C1963 C 0.25728 0.70177 0.63047 0.0
C1964 C 0.23962 0.66013 0.6669 0.0
C1965 C 0.22996 0.67016 0.70237 0.0
N1966 N 0.25019 0.68901 0.64208 0.0
N1967 N 0.23252 0.68312 0.68916 0.0
H1968 H 0.17832 0.39822 0.26184 0.0
H1969 H 0.15708 0.31792 0.19118 0.0
H1970 H 0.21462 0.37932 0.21901 0.0
H1971 H 0.12423 0.32826 0.23943 0.0
H1972 H 0.17262 0.3472 0.19569 0.0
H1973 H 0.15338 0.37984 0.24834 0.0
C1974 C 0.18079 0.39084 0.24914 0.0
C1975 C 0.1985 0.39009 0.24154 0.0
C1976 C 0.16184 0.34327 0.20519 0.0
C1977 C 0.17035 0.36895 0.2263 0.0
C1978 C 0.15299 0.32653 0.20263 0.0
C1979 C 0.13968 0.32054 0.2152 0.0
C1980 C 0.15771 0.35396 0.22071 0.0
C1981 C 0.13459 0.33236 0.22956 0.0
C1982 C 0.16664 0.3802 0.24157 0.0
C1983 C 0.20114 0.38012 0.22531 0.0
N1984 N 0.14394 0.34839 0.23221 0.0
N1985 N 0.1873 0.36975 0.21837 0.0
H1986 H 0.71109 0.1208 0.27022 0.0
H1987 H 0.61782 0.17667 0.2617 0.0
H1988 H 0.67254 0.11212 0.22613 0.0
H1989 H 0.65929 0.18468 0.30331 0.0
H1990 H 0.63333 0.14799 0.25242 0.0
H1991 H 0.6878 0.13813 0.28693 0.0
C1992 C 0.69746 0.1221 0.26436 0.0
C1993 C 0.69364 0.11512 0.24686 0.0
C1994 C 0.63879 0.15587 0.26382 0.0
C1995 C 0.66718 0.1358 0.26533 0.0
C1996 C 0.62994 0.17218 0.2691 0.0
C1997 C 0.63756 0.18318 0.28299 0.0
C1998 C 0.65519 0.15061 0.27266 0.0
C1999 C 0.65321 0.17679 0.29223 0.0
C2000 C 0.68418 0.13213 0.27379 0.0
C2001 C 0.67588 0.11726 0.2397 0.0
N2002 N 0.66157 0.16107 0.2868 0.0
N2003 N 0.66337 0.12785 0.24877 0.0
H2004 H 0.81942 0.60127 0.26227 0.0
H2005 H 0.89265 0.67638 0.23374 0.0
H2006 H 0.82295 0.62762 0.20924 0.0
H2007 H 0.86713 0.67177 0.28709 0.0
H2008 H 0.87973 0.64649 0.22535 0.0
H2009 H 0.84912 0.61474 0.27056 0.0
C2010 C 0.82686 0.60911 0.252 0.0
C2011 C 0.81856 0.61373 0.23519 0.0
C2012 C 0.87764 0.65169 0.23915 0.0
C2013 C 0.8524 0.62904 0.24461 0.0
C2014 C 0.88509 0.66871 0.24403 0.0
C2015 C 0.88051 0.67677 0.26098 0.0
C2016 C 0.86583 0.64266 0.25144 0.0
C2017 C 0.87066 0.66619 0.27374 0.0
C2018 C 0.84374 0.61688 0.25683 0.0
C2019 C 0.82877 0.62401 0.22247 0.0
N2020 N 0.86329 0.64981 0.26857 0.0
N2021 N 0.84503 0.63165 0.22758 0.0
H2022 H 0.32701 0.81444 0.30556 0.0
H2023 H 0.30574 0.89697 0.23689 0.0
H2024 H 0.36428 0.83102 0.26251 0.0
H2025 H 0.26649 0.87108 0.27296 0.0
H2026 H 0.33051 0.87953 0.25195 0.0
H2027 H 0.30845 0.84162 0.29971 0.0
C2028 C 0.33139 0.82396 0.29497 0.0
C2029 C 0.34696 0.8203 0.28422 0.0
C2030 C 0.31653 0.87808 0.25689 0.0
C2031 C 0.32555 0.85139 0.2772 0.0
C2032 C 0.30245 0.88815 0.24844 0.0
C2033 C 0.28411 0.88528 0.25367 0.0
C2034 C 0.31211 0.86529 0.27069 0.0
C2035 C 0.28048 0.87355 0.26848 0.0
C2036 C 0.32079 0.83951 0.29164 0.0
C2037 C 0.35223 0.83328 0.27096 0.0
N2038 N 0.29431 0.86384 0.27633 0.0
N2039 N 0.3413 0.84813 0.26753 0.0
H2040 H 0.09735 0.67605 0.76829 0.0
H2041 H 0.17507 0.61107 0.72819 0.0
H2042 H 0.12346 0.68289 0.7155 0.0
H2043 H 0.17213 0.63045 0.78413 0.0
H2044 H 0.1445 0.62406 0.72244 0.0
H2045 H 0.11274 0.6463 0.77168 0.0
C2046 C 0.10553 0.67088 0.75697 0.0
C2047 C 0.10948 0.68207 0.74174 0.0
C2048 C 0.15023 0.62469 0.73618 0.0
C2049 C 0.12693 0.64816 0.74554 0.0
C2050 C 0.16759 0.61718 0.73953 0.0
C2051 C 0.17618 0.61998 0.75659 0.0
C2052 C 0.14138 0.63466 0.75012 0.0
C2053 C 0.16601 0.62821 0.77074 0.0
C2054 C 0.1144 0.65396 0.759 0.0
C2055 C 0.12031 0.67475 0.72757 0.0
N2056 N 0.14923 0.63556 0.76711 0.0
N2057 N 0.12897 0.65837 0.72996 0.0
H2058 H 0.32748 0.19704 0.70379 0.0
H2059 H 0.31083 0.10952 0.76784 0.0
H2060 H 0.36958 0.17507 0.73938 0.0
H2061 H 0.26895 0.13798 0.73702 0.0
H2062 H 0.33434 0.12866 0.75279 0.0
H2063 H 0.30791 0.17111 0.71123 0.0
C2064 C 0.33264 0.18671 0.71321 0.0
C2065 C 0.35007 0.18841 0.72127 0.0
C2066 C 0.32004 0.13039 0.74904 0.0
C2067 C 0.32752 0.15851 0.72998 0.0
C2068 C 0.30667 0.11934 0.75744 0.0
C2069 C 0.28797 0.12231 0.75369 0.0
C2070 C 0.31455 0.14429 0.73676 0.0
C2071 C 0.28322 0.13536 0.74036 0.0
C2072 C 0.32145 0.17182 0.71741 0.0
C2073 C 0.35614 0.17436 0.73304 0.0
N2074 N 0.29639 0.14597 0.73253 0.0
N2075 N 0.34475 0.16007 0.73728 0.0
H2076 H 0.82107 0.39582 0.73803 0.0
H2077 H 0.89612 0.32081 0.76127 0.0
H2078 H 0.82893 0.37014 0.79093 0.0
H2079 H 0.86764 0.32629 0.70952 0.0
H2080 H 0.88383 0.35062 0.7708 0.0
H2081 H 0.85014 0.38255 0.72764 0.0
C2082 C 0.82931 0.38814 0.74778 0.0
C2083 C 0.82234 0.38361 0.76522 0.0
C2084 C 0.88092 0.34562 0.75707 0.0
C2085 C 0.85552 0.36849 0.75337 0.0
C2086 C 0.88801 0.32865 0.75154 0.0
C2087 C 0.88245 0.32085 0.73476 0.0
C2088 C 0.86846 0.35487 0.74561 0.0
C2089 C 0.87193 0.33165 0.72273 0.0
C2090 C 0.84585 0.38048 0.74175 0.0
C2091 C 0.83364 0.37362 0.77724 0.0
N2092 N 0.86493 0.34797 0.72855 0.0
N2093 N 0.84951 0.36603 0.77096 0.0
H2094 H 0.68605 0.83116 0.80612 0.0
H2095 H 0.60712 0.81297 0.73267 0.0
H2096 H 0.67412 0.86841 0.76153 0.0
H2097 H 0.62923 0.77289 0.77031 0.0
H2098 H 0.62439 0.83716 0.74884 0.0
H2099 H 0.65819 0.81406 0.79905 0.0
C2100 C 0.67738 0.83587 0.79495 0.0
C2101 C 0.68256 0.85095 0.78412 0.0
C2102 C 0.62501 0.82315 0.75387 0.0
C2103 C 0.65075 0.8312 0.7757 0.0
C2104 C 0.61503 0.80941 0.74478 0.0
C2105 C 0.61694 0.79098 0.75016 0.0
C2106 C 0.63673 0.8183 0.76845 0.0
C2107 C 0.62753 0.78696 0.76571 0.0
C2108 C 0.66146 0.82611 0.79093 0.0
C2109 C 0.67066 0.85671 0.77007 0.0
N2110 N 0.63718 0.80046 0.77418 0.0
N2111 N 0.65544 0.84656 0.76597 0.0
H2112 H 0.21064 0.17894 0.3629 0.0
H2113 H 0.2905 0.13324 0.32041 0.0
H2114 H 0.26359 0.18224 0.38931 0.0
H2115 H 0.2369 0.10826 0.31635 0.0
H2116 H 0.28188 0.14612 0.35015 0.0
H2117 H 0.21886 0.14871 0.35091 0.0
C2118 C 0.22372 0.17295 0.3668 0.0
C2119 C 0.23661 0.18325 0.37674 0.0
C2120 C 0.27221 0.13723 0.34314 0.0
C2121 C 0.24644 0.14906 0.36245 0.0
C2122 C 0.27718 0.12983 0.32613 0.0
C2123 C 0.26423 0.1201 0.31569 0.0
C2124 C 0.254 0.13538 0.34934 0.0
C2125 C 0.24721 0.11597 0.32383 0.0
C2126 C 0.22846 0.15568 0.35991 0.0
C2127 C 0.25333 0.17483 0.38148 0.0
N2128 N 0.2423 0.12423 0.33986 0.0
N2129 N 0.25807 0.1585 0.3737 0.0
H2130 H 0.83602 0.19727 0.31409 0.0
H2131 H 0.82164 0.26754 0.39632 0.0
H2132 H 0.87585 0.23898 0.32779 0.0
H2133 H 0.7821 0.22741 0.37803 0.0
H2134 H 0.8451 0.25271 0.37699 0.0
H2135 H 0.81988 0.20349 0.34264 0.0
C2136 C 0.84142 0.20772 0.32324 0.0
C2137 C 0.85703 0.21791 0.31845 0.0
C2138 C 0.83143 0.24684 0.37765 0.0
C2139 C 0.83838 0.22542 0.35117 0.0
C2140 C 0.81813 0.25516 0.38882 0.0
C2141 C 0.79995 0.24869 0.38858 0.0
C2142 C 0.8264 0.23198 0.36635 0.0
C2143 C 0.79596 0.23285 0.37845 0.0
C2144 C 0.83223 0.21124 0.33961 0.0
C2145 C 0.86371 0.23098 0.33097 0.0
N2146 N 0.80899 0.22518 0.36757 0.0
N2147 N 0.85409 0.23466 0.34666 0.0
H2148 H 0.72518 0.87019 0.27644 0.0
H2149 H 0.73868 0.82069 0.37258 0.0
H2150 H 0.76594 0.88743 0.31578 0.0
H2151 H 0.69811 0.80616 0.33183 0.0
H2152 H 0.74479 0.84934 0.35557 0.0
H2153 H 0.71032 0.85184 0.3002 0.0
C2154 C 0.73062 0.87054 0.29031 0.0
C2155 C 0.74677 0.88021 0.29422 0.0
C2156 C 0.73432 0.84001 0.35057 0.0
C2157 C 0.73051 0.85847 0.32131 0.0
C2158 C 0.73086 0.82369 0.36026 0.0
C2159 C 0.71819 0.8109 0.35334 0.0
C2160 C 0.72493 0.84347 0.334 0.0
C2161 C 0.70832 0.81545 0.33742 0.0
C2162 C 0.72227 0.85993 0.30387 0.0
C2163 C 0.75341 0.88017 0.31233 0.0
N2164 N 0.71202 0.83122 0.32823 0.0
N2165 N 0.74553 0.86903 0.32516 0.0
H2166 H 0.17485 0.73177 0.38771 0.0
H2167 H 0.15809 0.79898 0.30294 0.0
H2168 H 0.21425 0.77046 0.36624 0.0
H2169 H 0.11987 0.75621 0.31805 0.0
H2170 H 0.17514 0.79345 0.3311 0.0
H2171 H 0.15118 0.74539 0.36776 0.0
C2172 C 0.17831 0.74359 0.37934 0.0
C2173 C 0.1965 0.74998 0.37846 0.0
C2174 C 0.16296 0.78532 0.32843 0.0
C2175 C 0.16978 0.76531 0.35553 0.0
C2176 C 0.15323 0.78843 0.31228 0.0
C2177 C 0.13777 0.77776 0.30798 0.0
C2178 C 0.15744 0.77117 0.34034 0.0
C2179 C 0.13186 0.76459 0.32079 0.0
C2180 C 0.16488 0.7512 0.36781 0.0
C2181 C 0.2004 0.76509 0.3672 0.0
N2182 N 0.14192 0.76141 0.3363 0.0
N2183 N 0.18722 0.77209 0.35603 0.0
H2184 H 0.24519 0.82122 0.60739 0.0
H2185 H 0.266 0.89235 0.68651 0.0
H2186 H 0.29597 0.82619 0.63746 0.0
H2187 H 0.21208 0.88134 0.66478 0.0
H2188 H 0.27958 0.8776 0.65947 0.0
H2189 H 0.23565 0.85144 0.61934 0.0
C2190 C 0.25455 0.82899 0.61599 0.0
C2191 C 0.27117 0.82123 0.62181 0.0
C2192 C 0.26477 0.87898 0.66024 0.0
C2193 C 0.26051 0.85543 0.63547 0.0
C2194 C 0.25707 0.8876 0.67557 0.0
C2195 C 0.23799 0.88797 0.67773 0.0
C2196 C 0.25321 0.87027 0.64739 0.0
C2197 C 0.22691 0.8813 0.66345 0.0
C2198 C 0.24913 0.84615 0.62285 0.0
C2199 C 0.28287 0.83167 0.63297 0.0
N2200 N 0.23467 0.87229 0.64905 0.0
N2201 N 0.27722 0.84812 0.63965 0.0
H2202 H 0.18106 0.2594 0.60697 0.0
H2203 H 0.15674 0.19268 0.68999 0.0
H2204 H 0.2163 0.21692 0.62856 0.0
H2205 H 0.12357 0.23966 0.67554 0.0
H2206 H 0.1739 0.19626 0.66152 0.0
H2207 H 0.15562 0.24727 0.62565 0.0
C2208 C 0.18322 0.24708 0.61508 0.0
C2209 C 0.20077 0.2392 0.61643 0.0
C2210 C 0.16274 0.2057 0.66437 0.0
C2211 C 0.17203 0.22551 0.63789 0.0
C2212 C 0.15295 0.20367 0.68066 0.0
C2213 C 0.13901 0.21614 0.68526 0.0
C2214 C 0.15888 0.22058 0.6527 0.0
C2215 C 0.13439 0.22988 0.67253 0.0
C2216 C 0.16878 0.2403 0.62587 0.0
C2217 C 0.20298 0.22347 0.62729 0.0
N2218 N 0.1446 0.23201 0.65694 0.0
N2219 N 0.18886 0.21728 0.63777 0.0
H2220 H 0.72984 0.11728 0.72372 0.0
H2221 H 0.74141 0.17114 0.63029 0.0
H2222 H 0.77166 0.10388 0.684 0.0
H2223 H 0.69873 0.18085 0.67029 0.0
H2224 H 0.74852 0.14185 0.64567 0.0
H2225 H 0.71355 0.13487 0.70031 0.0
C2226 C 0.73523 0.11756 0.70983 0.0
C2227 C 0.75208 0.10926 0.70573 0.0
C2228 C 0.73734 0.15023 0.65082 0.0
C2229 C 0.73416 0.13022 0.67908 0.0
C2230 C 0.7333 0.16691 0.64204 0.0
C2231 C 0.71978 0.17858 0.64933 0.0
C2232 C 0.72772 0.14529 0.66688 0.0
C2233 C 0.70958 0.17246 0.6645 0.0
C2234 C 0.72605 0.12775 0.69646 0.0
C2235 C 0.75862 0.11009 0.6876 0.0
N2236 N 0.7139 0.15639 0.67288 0.0
N2237 N 0.74991 0.12087 0.67501 0.0
H2238 H 0.82242 0.78387 0.62455 0.0
H2239 H 0.86586 0.70536 0.67179 0.0
H2240 H 0.82037 0.73015 0.59958 0.0
H2241 H 0.89133 0.7588 0.67488 0.0
H2242 H 0.85402 0.71314 0.64136 0.0
H2243 H 0.85199 0.776 0.63829 0.0
C2244 C 0.82858 0.77069 0.62133 0.0
C2245 C 0.81876 0.7575 0.61129 0.0
C2246 C 0.86279 0.72295 0.64835 0.0
C2247 C 0.85216 0.74809 0.62757 0.0
C2248 C 0.86957 0.71847 0.66573 0.0
C2249 C 0.87923 0.7316 0.676 0.0
C2250 C 0.86513 0.7409 0.64157 0.0
C2251 C 0.88373 0.74835 0.6675 0.0
C2252 C 0.84547 0.76615 0.62923 0.0
C2253 C 0.82739 0.74065 0.60746 0.0
N2254 N 0.87606 0.75281 0.65104 0.0
N2255 N 0.84329 0.73614 0.6162 0.0
H2256 H 0.27751 0.2742 0.12154 0.0
H2257 H 0.37439 0.26166 0.16931 0.0
H2258 H 0.3168 0.23363 0.10372 0.0
H2259 H 0.33425 0.30297 0.18346 0.0
H2260 H 0.35701 0.25516 0.14097 0.0
H2261 H 0.30159 0.28955 0.13903 0.0
C2262 C 0.29142 0.2689 0.12088 0.0
C2263 C 0.29525 0.25268 0.1113 0.0
C2264 C 0.35224 0.26588 0.15014 0.0
C2265 C 0.32272 0.26949 0.13208 0.0
C2266 C 0.36214 0.26957 0.16627 0.0
C2267 C 0.35547 0.28254 0.17889 0.0
C2268 C 0.3357 0.27535 0.1467 0.0
C2269 C 0.33963 0.29252 0.17431 0.0
C2270 C 0.30517 0.27754 0.13099 0.0
C2271 C 0.31341 0.24622 0.11092 0.0
N2272 N 0.33022 0.28859 0.15873 0.0
N2273 N 0.32644 0.25437 0.12162 0.0
H2274 H 0.3757 0.7774 0.80839 0.0
H2275 H 0.31696 0.71908 0.86482 0.0
H2276 H 0.39666 0.72395 0.82313 0.0
H2277 H 0.32235 0.77563 0.8816 0.0
H2278 H 0.34825 0.72005 0.85254 0.0
H2279 H 0.3591 0.77856 0.83761 0.0
C2280 C 0.37746 0.76628 0.81816 0.0
C2281 C 0.38736 0.75048 0.8133 0.0
C2282 C 0.3429 0.73204 0.85957 0.0
C2283 C 0.36778 0.75132 0.84623 0.0
C2284 C 0.32507 0.73146 0.86659 0.0
C2285 C 0.31718 0.74729 0.87418 0.0
C2286 C 0.35249 0.74882 0.8594 0.0
C2287 C 0.32808 0.76311 0.87592 0.0
C2288 C 0.36794 0.76691 0.83482 0.0
C2289 C 0.38911 0.73637 0.82637 0.0
N2290 N 0.34499 0.76371 0.86794 0.0
N2291 N 0.37879 0.73678 0.84196 0.0
H2292 H 0.28932 0.32315 0.86705 0.0
H2293 H 0.21973 0.37367 0.8133 0.0
H2294 H 0.23415 0.32646 0.88842 0.0
H2295 H 0.27423 0.39657 0.81708 0.0
H2296 H 0.22378 0.35981 0.84366 0.0
H2297 H 0.28503 0.35301 0.85223 0.0
C2298 C 0.27657 0.33053 0.86924 0.0
C2299 C 0.26198 0.32225 0.87873 0.0
C2300 C 0.23461 0.36846 0.8382 0.0
C2301 C 0.25669 0.35596 0.86122 0.0
C2302 C 0.23226 0.3764 0.82088 0.0
C2303 C 0.24672 0.38611 0.81267 0.0
C2304 C 0.2518 0.36964 0.84694 0.0
C2305 C 0.26275 0.38915 0.82298 0.0
C2306 C 0.27409 0.34757 0.86075 0.0
C2307 C 0.24571 0.33235 0.88112 0.0
N2308 N 0.26515 0.38036 0.83932 0.0
N2309 N 0.24324 0.3484 0.87183 0.0
H2310 H 0.60791 0.26913 0.82551 0.0
H2311 H 0.68561 0.19387 0.84021 0.0
H2312 H 0.62537 0.22919 0.78539 0.0
H2313 H 0.67741 0.23974 0.87687 0.0
H2314 H 0.65655 0.20091 0.8252 0.0
H2315 H 0.62599 0.25289 0.84904 0.0
C2316 C 0.61491 0.25649 0.82187 0.0
C2317 C 0.61533 0.25048 0.80354 0.0
C2318 C 0.66091 0.20932 0.83669 0.0
C2319 C 0.63611 0.23213 0.83008 0.0
C2320 C 0.67752 0.20532 0.84526 0.0
C2321 C 0.68408 0.21651 0.8595 0.0
C2322 C 0.65089 0.2249 0.84213 0.0
C2323 C 0.67289 0.23092 0.86577 0.0
C2324 C 0.62537 0.24736 0.83522 0.0
C2325 C 0.62482 0.23427 0.79938 0.0
N2326 N 0.65697 0.23499 0.85675 0.0
N2327 N 0.63501 0.22579 0.81249 0.0
H2328 H 0.74092 0.61856 0.82039 0.0
H2329 H 0.72514 0.7137 0.8713 0.0
H2330 H 0.70072 0.65946 0.80521 0.0
H2331 H 0.76592 0.67446 0.8888 0.0
H2332 H 0.71114 0.69019 0.85199 0.0
H2333 H 0.74614 0.63517 0.84945 0.0
C2334 C 0.73301 0.63083 0.82331 0.0
C2335 C 0.72069 0.6379 0.81025 0.0
C2336 C 0.72291 0.68649 0.86032 0.0
C2337 C 0.7264 0.65678 0.84329 0.0
C2338 C 0.73077 0.6999 0.87148 0.0
C2339 C 0.74671 0.69597 0.88151 0.0
C2340 C 0.73141 0.66919 0.85871 0.0
C2341 C 0.75357 0.67794 0.88126 0.0
C2342 C 0.73596 0.64029 0.83986 0.0
C2343 C 0.71068 0.65376 0.81471 0.0
N2344 N 0.74616 0.66528 0.86961 0.0
N2345 N 0.71388 0.66271 0.83072 0.0
H2346 H 0.67821 0.80099 0.15984 0.0
H2347 H 0.60023 0.72768 0.18062 0.0
H2348 H 0.66842 0.75337 0.12591 0.0
H2349 H 0.61877 0.76989 0.21783 0.0
H2350 H 0.61768 0.74243 0.15572 0.0
H2351 H 0.64937 0.79533 0.17581 0.0
C2352 C 0.66981 0.78944 0.1556 0.0
C2353 C 0.67585 0.77737 0.14186 0.0
C2354 C 0.61743 0.74878 0.1692 0.0
C2355 C 0.64294 0.77055 0.16036 0.0
C2356 C 0.60732 0.7405 0.18333 0.0
C2357 C 0.60827 0.74756 0.20126 0.0
C2358 C 0.62836 0.76422 0.17314 0.0
C2359 C 0.61784 0.76398 0.20419 0.0
C2360 C 0.65332 0.78622 0.1647 0.0
C2361 C 0.66429 0.76286 0.13661 0.0
N2362 N 0.62772 0.77162 0.19034 0.0
N2363 N 0.64851 0.75958 0.14618 0.0
H2364 H 0.21145 0.63345 0.17025 0.0
H2365 H 0.28566 0.68607 0.12525 0.0
H2366 H 0.26676 0.61226 0.17226 0.0
H2367 H 0.23263 0.68328 0.09893 0.0
H2368 H 0.28033 0.65567 0.13851 0.0
H2369 H 0.2183 0.64765 0.14059 0.0
C2370 C 0.22481 0.63116 0.16407 0.0
C2371 C 0.23864 0.62195 0.17383 0.0
C2372 C 0.27013 0.66136 0.12926 0.0
C2373 C 0.24683 0.63878 0.14034 0.0
C2374 C 0.27321 0.67872 0.12166 0.0
C2375 C 0.25944 0.68729 0.11126 0.0
C2376 C 0.25291 0.65292 0.12697 0.0
C2377 C 0.24356 0.67718 0.10702 0.0
C2378 C 0.22875 0.6393 0.14714 0.0
C2379 C 0.25573 0.61938 0.16522 0.0
N2380 N 0.2404 0.66079 0.11546 0.0
N2381 N 0.25959 0.62835 0.14927 0.0
H2382 H 0.78858 0.36592 0.18325 0.0
H2383 H 0.72214 0.31736 0.12447 0.0
H2384 H 0.73447 0.38923 0.177 0.0
H2385 H 0.77839 0.32094 0.10625 0.0
H2386 H 0.72562 0.34691 0.14006 0.0
H2387 H 0.78629 0.35308 0.15228 0.0
C2388 C 0.77651 0.36892 0.17505 0.0
C2389 C 0.76161 0.37841 0.18272 0.0
C2390 C 0.73701 0.34163 0.13204 0.0
C2391 C 0.75855 0.36317 0.14767 0.0
C2392 C 0.73498 0.32477 0.12311 0.0
C2393 C 0.75007 0.31665 0.1143 0.0
C2394 C 0.75443 0.34995 0.13275 0.0
C2395 C 0.76645 0.32674 0.11299 0.0
C2396 C 0.77518 0.3616 0.15737 0.0
C2397 C 0.74624 0.3819 0.17158 0.0
N2398 N 0.76844 0.34258 0.12274 0.0
N2399 N 0.7448 0.37371 0.15483 0.0
loop_
_geom_bond_atom_site_label_1
_geom_bond_atom_site_label_2
_geom_bond_distance
_geom_bond_site_symmetry_2
_ccdc_geom_bond_type
O0 Cd1 2.223 . S
O0 C8 1.315 . S
Cd1 O0 2.223 . S
Cd1 O4 2.297 . S
Cd1 O5 2.439 . S
Cd1 O11 2.240 . S
Cd2 O3 2.240 . S
Cd2 O10 2.223 . S
Cd2 O12 2.297 . S
Cd2 O13 2.439 . S
O3 Cd2 2.240 . S
O3 C8 1.279 . S
O4 Cd1 2.297 . S
O4 C6 1.247 . S
O5 Cd1 2.439 . S
O5 C6 1.208 . S
C6 O4 1.247 . S
C6 O5 1.208 . S
C7 O12 1.247 . S
C7 O13 1.208 . S
C8 O0 1.315 . S
C8 O3 1.279 . S
C9 O10 1.315 . S
C9 O11 1.279 . S
O10 Cd2 2.223 . S
O10 C9 1.315 . S
O11 Cd1 2.240 . S
O11 C9 1.279 . S
O12 Cd2 2.297 . S
O12 C7 1.247 . S
O13 Cd2 2.439 . S
O13 C7 1.208 . S
O14 Cd15 2.223 . S
O14 C22 1.315 . S
Cd15 O14 2.223 . S
Cd15 O18 2.297 . S
Cd15 O19 2.439 . S
Cd15 O25 2.240 . S
Cd16 O17 2.240 . S
Cd16 O24 2.223 . S
Cd16 O26 2.297 . S
Cd16 O27 2.439 . S
O17 Cd16 2.240 . S
O17 C22 1.279 . S
O18 Cd15 2.297 . S
O18 C20 1.247 . S
O19 Cd15 2.439 . S
O19 C20 1.208 . S
C20 O18 1.247 . S
C20 O19 1.208 . S
C21 O26 1.247 . S
C21 O27 1.208 . S
C22 O14 1.315 . S
C22 O17 1.279 . S
C23 O24 1.315 . S
C23 O25 1.279 . S
O24 Cd16 2.223 . S
O24 C23 1.315 . S
O25 Cd15 2.240 . S
O25 C23 1.279 . S
O26 Cd16 2.297 . S
O26 C21 1.247 . S
O27 Cd16 2.439 . S
O27 C21 1.208 . S
O28 Cd29 2.223 . S
O28 C36 1.315 . S
Cd29 O28 2.223 . S
Cd29 O32 2.297 . S
Cd29 O33 2.439 . S
Cd29 O39 2.240 . S
Cd30 O31 2.240 . S
Cd30 O38 2.223 . S
Cd30 O40 2.297 . S
Cd30 O41 2.439 . S
O31 Cd30 2.240 . S
O31 C36 1.279 . S
O32 Cd29 2.297 . S
O32 C34 1.247 . S
O33 Cd29 2.439 . S
O33 C34 1.208 . S
C34 O32 1.247 . S
C34 O33 1.208 . S
C35 O40 1.247 . S
C35 O41 1.208 . S
C36 O28 1.315 . S
C36 O31 1.279 . S
C37 O38 1.315 . S
C37 O39 1.279 . S
O38 Cd30 2.223 . S
O38 C37 1.315 . S
O39 Cd29 2.240 . S
O39 C37 1.279 . S
O40 Cd30 2.297 . S
O40 C35 1.247 . S
O41 Cd30 2.439 . S
O41 C35 1.208 . S
O42 Cd43 2.223 . S
O42 C50 1.315 . S
Cd43 O42 2.223 . S
Cd43 O46 2.297 . S
Cd43 O47 2.439 . S
Cd43 O53 2.240 . S
Cd44 O45 2.240 . S
Cd44 O52 2.223 . S
Cd44 O54 2.297 . S
Cd44 O55 2.439 . S
O45 Cd44 2.240 . S
O45 C50 1.279 . S
O46 Cd43 2.297 . S
O46 C48 1.247 . S
O47 Cd43 2.439 . S
O47 C48 1.208 . S
C48 O46 1.247 . S
C48 O47 1.208 . S
C49 O54 1.247 . S
C49 O55 1.208 . S
C50 O42 1.315 . S
C50 O45 1.279 . S
C51 O52 1.315 . S
C51 O53 1.279 . S
O52 Cd44 2.223 . S
O52 C51 1.315 . S
O53 Cd43 2.240 . S
O53 C51 1.279 . S
O54 Cd44 2.297 . S
O54 C49 1.247 . S
O55 Cd44 2.439 . S
O55 C49 1.208 . S
O56 Cd57 2.223 . S
O56 C64 1.315 . S
Cd57 O56 2.223 . S
Cd57 O60 2.297 . S
Cd57 O61 2.439 . S
Cd57 O67 2.240 . S
Cd58 O59 2.240 . S
Cd58 O66 2.223 . S
Cd58 O68 2.297 . S
Cd58 O69 2.439 . S
O59 Cd58 2.240 . S
O59 C64 1.279 . S
O60 Cd57 2.297 . S
O60 C62 1.247 . S
O61 Cd57 2.439 . S
O61 C62 1.208 . S
C62 O60 1.247 . S
C62 O61 1.208 . S
C63 O68 1.247 . S
C63 O69 1.208 . S
C64 O56 1.315 . S
C64 O59 1.279 . S
C65 O66 1.315 . S
C65 O67 1.279 . S
O66 Cd58 2.223 . S
O66 C65 1.315 . S
O67 Cd57 2.240 . S
O67 C65 1.279 . S
O68 Cd58 2.297 . S
O68 C63 1.247 . S
O69 Cd58 2.439 . S
O69 C63 1.208 . S
O70 Cd71 2.223 . S
O70 C78 1.315 . S
Cd71 O70 2.223 . S
Cd71 O74 2.297 . S
Cd71 O75 2.439 . S
Cd71 O81 2.240 . S
Cd72 O73 2.240 . S
Cd72 O80 2.223 . S
Cd72 O82 2.297 . S
Cd72 O83 2.439 . S
O73 Cd72 2.240 . S
O73 C78 1.279 . S
O74 Cd71 2.297 . S
O74 C76 1.247 . S
O75 Cd71 2.439 . S
O75 C76 1.208 . S
C76 O74 1.247 . S
C76 O75 1.208 . S
C77 O82 1.247 . S
C77 O83 1.208 . S
C78 O70 1.315 . S
C78 O73 1.279 . S
C79 O80 1.315 . S
C79 O81 1.279 . S
O80 Cd72 2.223 . S
O80 C79 1.315 . S
O81 Cd71 2.240 . S
O81 C79 1.279 . S
O82 Cd72 2.297 . S
O82 C77 1.247 . S
O83 Cd72 2.439 . S
O83 C77 1.208 . S
O84 Cd85 2.223 . S
O84 C92 1.315 . S
Cd85 O84 2.223 . S
Cd85 O88 2.297 . S
Cd85 O89 2.439 . S
Cd85 O95 2.240 . S
Cd86 O87 2.240 . S
Cd86 O94 2.223 . S
Cd86 O96 2.297 . S
Cd86 O97 2.439 . S
O87 Cd86 2.240 . S
O87 C92 1.279 . S
O88 Cd85 2.297 . S
O88 C90 1.247 . S
O89 Cd85 2.439 . S
O89 C90 1.208 . S
C90 O88 1.247 . S
C90 O89 1.208 . S
C91 O96 1.247 . S
C91 O97 1.208 . S
C92 O84 1.315 . S
C92 O87 1.279 . S
C93 O94 1.315 . S
C93 O95 1.279 . S
O94 Cd86 2.223 . S
O94 C93 1.315 . S
O95 Cd85 2.240 . S
O95 C93 1.279 . S
O96 Cd86 2.297 . S
O96 C91 1.247 . S
O97 Cd86 2.439 . S
O97 C91 1.208 . S
O98 Cd99 2.223 . S
O98 C106 1.315 . S
Cd99 O98 2.223 . S
Cd99 O102 2.297 . S
Cd99 O103 2.439 . S
Cd99 O109 2.240 . S
Cd100 O101 2.240 . S
Cd100 O108 2.223 . S
Cd100 O110 2.297 . S
Cd100 O111 2.439 . S
O101 Cd100 2.240 . S
O101 C106 1.279 . S
O102 Cd99 2.297 . S
O102 C104 1.247 . S
O103 Cd99 2.439 . S
O103 C104 1.208 . S
C104 O102 1.247 . S
C104 O103 1.208 . S
C105 O110 1.247 . S
C105 O111 1.208 . S
C106 O98 1.315 . S
C106 O101 1.279 . S
C107 O108 1.315 . S
C107 O109 1.279 . S
O108 Cd100 2.223 . S
O108 C107 1.315 . S
O109 Cd99 2.240 . S
O109 C107 1.279 . S
O110 Cd100 2.297 . S
O110 C105 1.247 . S
O111 Cd100 2.439 . S
O111 C105 1.208 . S
O112 Cd113 2.223 . S
O112 C120 1.315 . S
Cd113 O112 2.223 . S
Cd113 O116 2.297 . S
Cd113 O117 2.439 . S
Cd113 O123 2.240 . S
Cd114 O115 2.240 . S
Cd114 O122 2.223 . S
Cd114 O124 2.297 . S
Cd114 O125 2.439 . S
O115 Cd114 2.240 . S
O115 C120 1.279 . S
O116 Cd113 2.297 . S
O116 C118 1.247 . S
O117 Cd113 2.439 . S
O117 C118 1.208 . S
C118 O116 1.247 . S
C118 O117 1.208 . S
C119 O124 1.247 . S
C119 O125 1.208 . S
C120 O112 1.315 . S
C120 O115 1.279 . S
C121 O122 1.315 . S
C121 O123 1.279 . S
O122 Cd114 2.223 . S
O122 C121 1.315 . S
O123 Cd113 2.240 . S
O123 C121 1.279 . S
O124 Cd114 2.297 . S
O124 C119 1.247 . S
O125 Cd114 2.439 . S
O125 C119 1.208 . S
O126 Cd127 2.223 . S
O126 C134 1.315 . S
Cd127 O126 2.223 . S
Cd127 O130 2.297 . S
Cd127 O131 2.439 . S
Cd127 O137 2.240 . S
Cd128 O129 2.240 . S
Cd128 O136 2.223 . S
Cd128 O138 2.297 . S
Cd128 O139 2.439 . S
O129 Cd128 2.240 . S
O129 C134 1.279 . S
O130 Cd127 2.297 . S
O130 C132 1.247 . S
O131 Cd127 2.439 . S
O131 C132 1.208 . S
C132 O130 1.247 . S
C132 O131 1.208 . S
C133 O138 1.247 . S
C133 O139 1.208 . S
C134 O126 1.315 . S
C134 O129 1.279 . S
C135 O136 1.315 . S
C135 O137 1.279 . S
O136 Cd128 2.223 . S
O136 C135 1.315 . S
O137 Cd127 2.240 . S
O137 C135 1.279 . S
O138 Cd128 2.297 . S
O138 C133 1.247 . S
O139 Cd128 2.439 . S
O139 C133 1.208 . S
O140 Cd141 2.223 . S
O140 C148 1.315 . S
Cd141 O140 2.223 . S
Cd141 O144 2.297 . S
Cd141 O145 2.439 . S
Cd141 O151 2.240 . S
Cd142 O143 2.240 . S
Cd142 O150 2.223 . S
Cd142 O152 2.297 . S
Cd142 O153 2.439 . S
O143 Cd142 2.240 . S
O143 C148 1.279 . S
O144 Cd141 2.297 . S
O144 C146 1.247 . S
O145 Cd141 2.439 . S
O145 C146 1.208 . S
C146 O144 1.247 . S
C146 O145 1.208 . S
C147 O152 1.247 . S
C147 O153 1.208 . S
C148 O140 1.315 . S
C148 O143 1.279 . S
C149 O150 1.315 . S
C149 O151 1.279 . S
O150 Cd142 2.223 . S
O150 C149 1.315 . S
O151 Cd141 2.240 . S
O151 C149 1.279 . S
O152 Cd142 2.297 . S
O152 C147 1.247 . S
O153 Cd142 2.439 . S
O153 C147 1.208 . S
O154 Cd155 2.223 . S
O154 C162 1.315 . S
Cd155 O154 2.223 . S
Cd155 O158 2.297 . S
Cd155 O159 2.439 . S
Cd155 O165 2.240 . S
Cd156 O157 2.240 . S
Cd156 O164 2.223 . S
Cd156 O166 2.297 . S
Cd156 O167 2.439 . S
O157 Cd156 2.240 . S
O157 C162 1.279 . S
O158 Cd155 2.297 . S
O158 C160 1.247 . S
O159 Cd155 2.439 . S
O159 C160 1.208 . S
C160 O158 1.247 . S
C160 O159 1.208 . S
C161 O166 1.247 . S
C161 O167 1.208 . S
C162 O154 1.315 . S
C162 O157 1.279 . S
C163 O164 1.315 . S
C163 O165 1.279 . S
O164 Cd156 2.223 . S
O164 C163 1.315 . S
O165 Cd155 2.240 . S
O165 C163 1.279 . S
O166 Cd156 2.297 . S
O166 C161 1.247 . S
O167 Cd156 2.439 . S
O167 C161 1.208 . S
O168 Cd169 2.223 . S
O168 C176 1.315 . S
Cd169 O168 2.223 . S
Cd169 O172 2.297 . S
Cd169 O173 2.439 . S
Cd169 O179 2.240 . S
Cd170 O171 2.240 . S
Cd170 O178 2.223 . S
Cd170 O180 2.297 . S
Cd170 O181 2.439 . S
O171 Cd170 2.240 . S
O171 C176 1.279 . S
O172 Cd169 2.297 . S
O172 C174 1.247 . S
O173 Cd169 2.439 . S
O173 C174 1.208 . S
C174 O172 1.247 . S
C174 O173 1.208 . S
C175 O180 1.247 . S
C175 O181 1.208 . S
C176 O168 1.315 . S
C176 O171 1.279 . S
C177 O178 1.315 . S
C177 O179 1.279 . S
O178 Cd170 2.223 . S
O178 C177 1.315 . S
O179 Cd169 2.240 . S
O179 C177 1.279 . S
O180 Cd170 2.297 . S
O180 C175 1.247 . S
O181 Cd170 2.439 . S
O181 C175 1.208 . S
O182 Cd183 2.223 . S
O182 C190 1.315 . S
Cd183 O182 2.223 . S
Cd183 O186 2.297 . S
Cd183 O187 2.439 . S
Cd183 O193 2.240 . S
Cd184 O185 2.240 . S
Cd184 O192 2.223 . S
Cd184 O194 2.297 . S
Cd184 O195 2.439 . S
O185 Cd184 2.240 . S
O185 C190 1.279 . S
O186 Cd183 2.297 . S
O186 C188 1.247 . S
O187 Cd183 2.439 . S
O187 C188 1.208 . S
C188 O186 1.247 . S
C188 O187 1.208 . S
C189 O194 1.247 . S
C189 O195 1.208 . S
C190 O182 1.315 . S
C190 O185 1.279 . S
C191 O192 1.315 . S
C191 O193 1.279 . S
O192 Cd184 2.223 . S
O192 C191 1.315 . S
O193 Cd183 2.240 . S
O193 C191 1.279 . S
O194 Cd184 2.297 . S
O194 C189 1.247 . S
O195 Cd184 2.439 . S
O195 C189 1.208 . S
O196 Cd197 2.223 . S
O196 C204 1.315 . S
Cd197 O196 2.223 . S
Cd197 O200 2.297 . S
Cd197 O201 2.439 . S
Cd197 O207 2.240 . S
Cd198 O199 2.240 . S
Cd198 O206 2.223 . S
Cd198 O208 2.297 . S
Cd198 O209 2.439 . S
O199 Cd198 2.240 . S
O199 C204 1.279 . S
O200 Cd197 2.297 . S
O200 C202 1.247 . S
O201 Cd197 2.439 . S
O201 C202 1.208 . S
C202 O200 1.247 . S
C202 O201 1.208 . S
C203 O208 1.247 . S
C203 O209 1.208 . S
C204 O196 1.315 . S
C204 O199 1.279 . S
C205 O206 1.315 . S
C205 O207 1.279 . S
O206 Cd198 2.223 . S
O206 C205 1.315 . S
O207 Cd197 2.240 . S
O207 C205 1.279 . S
O208 Cd198 2.297 . S
O208 C203 1.247 . S
O209 Cd198 2.439 . S
O209 C203 1.208 . S
O210 Cd211 2.223 . S
O210 C218 1.315 . S
Cd211 O210 2.223 . S
Cd211 O214 2.297 . S
Cd211 O215 2.439 . S
Cd211 O221 2.240 . S
Cd212 O213 2.240 . S
Cd212 O220 2.223 . S
Cd212 O222 2.297 . S
Cd212 O223 2.439 . S
O213 Cd212 2.240 . S
O213 C218 1.279 . S
O214 Cd211 2.297 . S
O214 C216 1.247 . S
O215 Cd211 2.439 . S
O215 C216 1.208 . S
C216 O214 1.247 . S
C216 O215 1.208 . S
C217 O222 1.247 . S
C217 O223 1.208 . S
C218 O210 1.315 . S
C218 O213 1.279 . S
C219 O220 1.315 . S
C219 O221 1.279 . S
O220 Cd212 2.223 . S
O220 C219 1.315 . S
O221 Cd211 2.240 . S
O221 C219 1.279 . S
O222 Cd212 2.297 . S
O222 C217 1.247 . S
O223 Cd212 2.439 . S
O223 C217 1.208 . S
O224 Cd225 2.223 . S
O224 C232 1.315 . S
Cd225 O224 2.223 . S
Cd225 O228 2.297 . S
Cd225 O229 2.439 . S
Cd225 O235 2.240 . S
Cd226 O227 2.240 . S
Cd226 O234 2.223 . S
Cd226 O236 2.297 . S
Cd226 O237 2.439 . S
O227 Cd226 2.240 . S
O227 C232 1.279 . S
O228 Cd225 2.297 . S
O228 C230 1.247 . S
O229 Cd225 2.439 . S
O229 C230 1.208 . S
C230 O228 1.247 . S
C230 O229 1.208 . S
C231 O236 1.247 . S
C231 O237 1.208 . S
C232 O224 1.315 . S
C232 O227 1.279 . S
C233 O234 1.315 . S
C233 O235 1.279 . S
O234 Cd226 2.223 . S
O234 C233 1.315 . S
O235 Cd225 2.240 . S
O235 C233 1.279 . S
O236 Cd226 2.297 . S
O236 C231 1.247 . S
O237 Cd226 2.439 . S
O237 C231 1.208 . S
O238 Cd239 2.223 . S
O238 C246 1.315 . S
Cd239 O238 2.223 . S
Cd239 O242 2.297 . S
Cd239 O243 2.439 . S
Cd239 O249 2.240 . S
Cd240 O241 2.240 . S
Cd240 O248 2.223 . S
Cd240 O250 2.297 . S
Cd240 O251 2.439 . S
O241 Cd240 2.240 . S
O241 C246 1.279 . S
O242 Cd239 2.297 . S
O242 C244 1.247 . S
O243 Cd239 2.439 . S
O243 C244 1.208 . S
C244 O242 1.247 . S
C244 O243 1.208 . S
C245 O250 1.247 . S
C245 O251 1.208 . S
C246 O238 1.315 . S
C246 O241 1.279 . S
C247 O248 1.315 . S
C247 O249 1.279 . S
O248 Cd240 2.223 . S
O248 C247 1.315 . S
O249 Cd239 2.240 . S
O249 C247 1.279 . S
O250 Cd240 2.297 . S
O250 C245 1.247 . S
O251 Cd240 2.439 . S
O251 C245 1.208 . S
O252 Cd253 2.223 . S
O252 C260 1.315 . S
Cd253 O252 2.223 . S
Cd253 O256 2.297 . S
Cd253 O257 2.439 . S
Cd253 O263 2.240 . S
Cd254 O255 2.240 . S
Cd254 O262 2.223 . S
Cd254 O264 2.297 . S
Cd254 O265 2.439 . S
O255 Cd254 2.240 . S
O255 C260 1.279 . S
O256 Cd253 2.297 . S
O256 C258 1.247 . S
O257 Cd253 2.439 . S
O257 C258 1.208 . S
C258 O256 1.247 . S
C258 O257 1.208 . S
C259 O264 1.247 . S
C259 O265 1.208 . S
C260 O252 1.315 . S
C260 O255 1.279 . S
C261 O262 1.315 . S
C261 O263 1.279 . S
O262 Cd254 2.223 . S
O262 C261 1.315 . S
O263 Cd253 2.240 . S
O263 C261 1.279 . S
O264 Cd254 2.297 . S
O264 C259 1.247 . S
O265 Cd254 2.439 . S
O265 C259 1.208 . S
O266 Cd267 2.223 . S
O266 C274 1.315 . S
Cd267 O266 2.223 . S
Cd267 O270 2.297 . S
Cd267 O271 2.439 . S
Cd267 O277 2.240 . S
Cd268 O269 2.240 . S
Cd268 O276 2.223 . S
Cd268 O278 2.297 . S
Cd268 O279 2.439 . S
O269 Cd268 2.240 . S
O269 C274 1.279 . S
O270 Cd267 2.297 . S
O270 C272 1.247 . S
O271 Cd267 2.439 . S
O271 C272 1.208 . S
C272 O270 1.247 . S
C272 O271 1.208 . S
C273 O278 1.247 . S
C273 O279 1.208 . S
C274 O266 1.315 . S
C274 O269 1.279 . S
C275 O276 1.315 . S
C275 O277 1.279 . S
O276 Cd268 2.223 . S
O276 C275 1.315 . S
O277 Cd267 2.240 . S
O277 C275 1.279 . S
O278 Cd268 2.297 . S
O278 C273 1.247 . S
O279 Cd268 2.439 . S
O279 C273 1.208 . S
O280 Cd281 2.223 . S
O280 C288 1.315 . S
Cd281 O280 2.223 . S
Cd281 O284 2.297 . S
Cd281 O285 2.439 . S
Cd281 O291 2.240 . S
Cd282 O283 2.240 . S
Cd282 O290 2.223 . S
Cd282 O292 2.297 . S
Cd282 O293 2.439 . S
O283 Cd282 2.240 . S
O283 C288 1.279 . S
O284 Cd281 2.297 . S
O284 C286 1.247 . S
O285 Cd281 2.439 . S
O285 C286 1.208 . S
C286 O284 1.247 . S
C286 O285 1.208 . S
C287 O292 1.247 . S
C287 O293 1.208 . S
C288 O280 1.315 . S
C288 O283 1.279 . S
C289 O290 1.315 . S
C289 O291 1.279 . S
O290 Cd282 2.223 . S
O290 C289 1.315 . S
O291 Cd281 2.240 . S
O291 C289 1.279 . S
O292 Cd282 2.297 . S
O292 C287 1.247 . S
O293 Cd282 2.439 . S
O293 C287 1.208 . S
O294 Cd295 2.223 . S
O294 C302 1.315 . S
Cd295 O294 2.223 . S
Cd295 O298 2.297 . S
Cd295 O299 2.439 . S
Cd295 O305 2.240 . S
Cd296 O297 2.240 . S
Cd296 O304 2.223 . S
Cd296 O306 2.297 . S
Cd296 O307 2.439 . S
O297 Cd296 2.240 . S
O297 C302 1.279 . S
O298 Cd295 2.297 . S
O298 C300 1.247 . S
O299 Cd295 2.439 . S
O299 C300 1.208 . S
C300 O298 1.247 . S
C300 O299 1.208 . S
C301 O306 1.247 . S
C301 O307 1.208 . S
C302 O294 1.315 . S
C302 O297 1.279 . S
C303 O304 1.315 . S
C303 O305 1.279 . S
O304 Cd296 2.223 . S
O304 C303 1.315 . S
O305 Cd295 2.240 . S
O305 C303 1.279 . S
O306 Cd296 2.297 . S
O306 C301 1.247 . S
O307 Cd296 2.439 . S
O307 C301 1.208 . S
O308 Cd309 2.223 . S
O308 C316 1.315 . S
Cd309 O308 2.223 . S
Cd309 O312 2.297 . S
Cd309 O313 2.439 . S
Cd309 O319 2.240 . S
Cd310 O311 2.240 . S
Cd310 O318 2.223 . S
Cd310 O320 2.297 . S
Cd310 O321 2.439 . S
O311 Cd310 2.240 . S
O311 C316 1.279 . S
O312 Cd309 2.297 . S
O312 C314 1.247 . S
O313 Cd309 2.439 . S
O313 C314 1.208 . S
C314 O312 1.247 . S
C314 O313 1.208 . S
C315 O320 1.247 . S
C315 O321 1.208 . S
C316 O308 1.315 . S
C316 O311 1.279 . S
C317 O318 1.315 . S
C317 O319 1.279 . S
O318 Cd310 2.223 . S
O318 C317 1.315 . S
O319 Cd309 2.240 . S
O319 C317 1.279 . S
O320 Cd310 2.297 . S
O320 C315 1.247 . S
O321 Cd310 2.439 . S
O321 C315 1.208 . S
O322 Cd323 2.223 . S
O322 C330 1.315 . S
Cd323 O322 2.223 . S
Cd323 O326 2.297 . S
Cd323 O327 2.439 . S
Cd323 O333 2.240 . S
Cd324 O325 2.240 . S
Cd324 O332 2.223 . S
Cd324 O334 2.297 . S
Cd324 O335 2.439 . S
O325 Cd324 2.240 . S
O325 C330 1.279 . S
O326 Cd323 2.297 . S
O326 C328 1.247 . S
O327 Cd323 2.439 . S
O327 C328 1.208 . S
C328 O326 1.247 . S
C328 O327 1.208 . S
C329 O334 1.247 . S
C329 O335 1.208 . S
C330 O322 1.315 . S
C330 O325 1.279 . S
C331 O332 1.315 . S
C331 O333 1.279 . S
O332 Cd324 2.223 . S
O332 C331 1.315 . S
O333 Cd323 2.240 . S
O333 C331 1.279 . S
O334 Cd324 2.297 . S
O334 C329 1.247 . S
O335 Cd324 2.439 . S
O335 C329 1.208 . S
O336 Cd337 2.223 . S
O336 C344 1.315 . S
Cd337 O336 2.223 . S
Cd337 O340 2.297 . S
Cd337 O341 2.439 . S
Cd337 O347 2.240 . S
Cd338 O339 2.240 . S
Cd338 O346 2.223 . S
Cd338 O348 2.297 . S
Cd338 O349 2.439 . S
O339 Cd338 2.240 . S
O339 C344 1.279 . S
O340 Cd337 2.297 . S
O340 C342 1.247 . S
O341 Cd337 2.439 . S
O341 C342 1.208 . S
C342 O340 1.247 . S
C342 O341 1.208 . S
C343 O348 1.247 . S
C343 O349 1.208 . S
C344 O336 1.315 . S
C344 O339 1.279 . S
C345 O346 1.315 . S
C345 O347 1.279 . S
O346 Cd338 2.223 . S
O346 C345 1.315 . S
O347 Cd337 2.240 . S
O347 C345 1.279 . S
O348 Cd338 2.297 . S
O348 C343 1.247 . S
O349 Cd338 2.439 . S
O349 C343 1.208 . S
O350 Cd351 2.223 . S
O350 C358 1.315 . S
Cd351 O350 2.223 . S
Cd351 O354 2.297 . S
Cd351 O355 2.439 . S
Cd351 O361 2.240 . S
Cd352 O353 2.240 . S
Cd352 O360 2.223 . S
Cd352 O362 2.297 . S
Cd352 O363 2.439 . S
O353 Cd352 2.240 . S
O353 C358 1.279 . S
O354 Cd351 2.297 . S
O354 C356 1.247 . S
O355 Cd351 2.439 . S
O355 C356 1.208 . S
C356 O354 1.247 . S
C356 O355 1.208 . S
C357 O362 1.247 . S
C357 O363 1.208 . S
C358 O350 1.315 . S
C358 O353 1.279 . S
C359 O360 1.315 . S
C359 O361 1.279 . S
O360 Cd352 2.223 . S
O360 C359 1.315 . S
O361 Cd351 2.240 . S
O361 C359 1.279 . S
O362 Cd352 2.297 . S
O362 C357 1.247 . S
O363 Cd352 2.439 . S
O363 C357 1.208 . S
O364 Cd365 2.223 . S
O364 C372 1.315 . S
Cd365 O364 2.223 . S
Cd365 O368 2.297 . S
Cd365 O369 2.439 . S
Cd365 O375 2.240 . S
Cd366 O367 2.240 . S
Cd366 O374 2.223 . S
Cd366 O376 2.297 . S
Cd366 O377 2.439 . S
O367 Cd366 2.240 . S
O367 C372 1.279 . S
O368 Cd365 2.297 . S
O368 C370 1.247 . S
O369 Cd365 2.439 . S
O369 C370 1.208 . S
C370 O368 1.247 . S
C370 O369 1.208 . S
C371 O376 1.247 . S
C371 O377 1.208 . S
C372 O364 1.315 . S
C372 O367 1.279 . S
C373 O374 1.315 . S
C373 O375 1.279 . S
O374 Cd366 2.223 . S
O374 C373 1.315 . S
O375 Cd365 2.240 . S
O375 C373 1.279 . S
O376 Cd366 2.297 . S
O376 C371 1.247 . S
O377 Cd366 2.439 . S
O377 C371 1.208 . S
O378 Cd379 2.223 . S
O378 C386 1.315 . S
Cd379 O378 2.223 . S
Cd379 O382 2.297 . S
Cd379 O383 2.439 . S
Cd379 O389 2.240 . S
Cd380 O381 2.240 . S
Cd380 O388 2.223 . S
Cd380 O390 2.297 . S
Cd380 O391 2.439 . S
O381 Cd380 2.240 . S
O381 C386 1.279 . S
O382 Cd379 2.297 . S
O382 C384 1.247 . S
O383 Cd379 2.439 . S
O383 C384 1.208 . S
C384 O382 1.247 . S
C384 O383 1.208 . S
C385 O390 1.247 . S
C385 O391 1.208 . S
C386 O378 1.315 . S
C386 O381 1.279 . S
C387 O388 1.315 . S
C387 O389 1.279 . S
O388 Cd380 2.223 . S
O388 C387 1.315 . S
O389 Cd379 2.240 . S
O389 C387 1.279 . S
O390 Cd380 2.297 . S
O390 C385 1.247 . S
O391 Cd380 2.439 . S
O391 C385 1.208 . S
O392 Cd393 2.223 . S
O392 C400 1.315 . S
Cd393 O392 2.223 . S
Cd393 O396 2.297 . S
Cd393 O397 2.439 . S
Cd393 O403 2.240 . S
Cd394 O395 2.240 . S
Cd394 O402 2.223 . S
Cd394 O404 2.297 . S
Cd394 O405 2.439 . S
O395 Cd394 2.240 . S
O395 C400 1.279 . S
O396 Cd393 2.297 . S
O396 C398 1.247 . S
O397 Cd393 2.439 . S
O397 C398 1.208 . S
C398 O396 1.247 . S
C398 O397 1.208 . S
C399 O404 1.247 . S
C399 O405 1.208 . S
C400 O392 1.315 . S
C400 O395 1.279 . S
C401 O402 1.315 . S
C401 O403 1.279 . S
O402 Cd394 2.223 . S
O402 C401 1.315 . S
O403 Cd393 2.240 . S
O403 C401 1.279 . S
O404 Cd394 2.297 . S
O404 C399 1.247 . S
O405 Cd394 2.439 . S
O405 C399 1.208 . S
O406 Cd407 2.223 . S
O406 C414 1.315 . S
Cd407 O406 2.223 . S
Cd407 O410 2.297 . S
Cd407 O411 2.439 . S
Cd407 O417 2.240 . S
Cd408 O409 2.240 . S
Cd408 O416 2.223 . S
Cd408 O418 2.297 . S
Cd408 O419 2.439 . S
O409 Cd408 2.240 . S
O409 C414 1.279 . S
O410 Cd407 2.297 . S
O410 C412 1.247 . S
O411 Cd407 2.439 . S
O411 C412 1.208 . S
C412 O410 1.247 . S
C412 O411 1.208 . S
C413 O418 1.247 . S
C413 O419 1.208 . S
C414 O406 1.315 . S
C414 O409 1.279 . S
C415 O416 1.315 . S
C415 O417 1.279 . S
O416 Cd408 2.223 . S
O416 C415 1.315 . S
O417 Cd407 2.240 . S
O417 C415 1.279 . S
O418 Cd408 2.297 . S
O418 C413 1.247 . S
O419 Cd408 2.439 . S
O419 C413 1.208 . S
O420 Cd421 2.223 . S
O420 C428 1.315 . S
Cd421 O420 2.223 . S
Cd421 O424 2.297 . S
Cd421 O425 2.439 . S
Cd421 O431 2.240 . S
Cd422 O423 2.240 . S
Cd422 O430 2.223 . S
Cd422 O432 2.297 . S
Cd422 O433 2.439 . S
O423 Cd422 2.240 . S
O423 C428 1.279 . S
O424 Cd421 2.297 . S
O424 C426 1.247 . S
O425 Cd421 2.439 . S
O425 C426 1.208 . S
C426 O424 1.247 . S
C426 O425 1.208 . S
C427 O432 1.247 . S
C427 O433 1.208 . S
C428 O420 1.315 . S
C428 O423 1.279 . S
C429 O430 1.315 . S
C429 O431 1.279 . S
O430 Cd422 2.223 . S
O430 C429 1.315 . S
O431 Cd421 2.240 . S
O431 C429 1.279 . S
O432 Cd422 2.297 . S
O432 C427 1.247 . S
O433 Cd422 2.439 . S
O433 C427 1.208 . S
O434 Cd435 2.223 . S
O434 C442 1.315 . S
Cd435 O434 2.223 . S
Cd435 O438 2.297 . S
Cd435 O439 2.439 . S
Cd435 O445 2.240 . S
Cd436 O437 2.240 . S
Cd436 O444 2.223 . S
Cd436 O446 2.297 . S
Cd436 O447 2.439 . S
O437 Cd436 2.240 . S
O437 C442 1.279 . S
O438 Cd435 2.297 . S
O438 C440 1.247 . S
O439 Cd435 2.439 . S
O439 C440 1.208 . S
C440 O438 1.247 . S
C440 O439 1.208 . S
C441 O446 1.247 . S
C441 O447 1.208 . S
C442 O434 1.315 . S
C442 O437 1.279 . S
C443 O444 1.315 . S
C443 O445 1.279 . S
O444 Cd436 2.223 . S
O444 C443 1.315 . S
O445 Cd435 2.240 . S
O445 C443 1.279 . S
O446 Cd436 2.297 . S
O446 C441 1.247 . S
O447 Cd436 2.439 . S
O447 C441 1.208 . S
O448 Cd449 2.223 . S
O448 C456 1.315 . S
Cd449 O448 2.223 . S
Cd449 O452 2.297 . S
Cd449 O453 2.439 . S
Cd449 O459 2.240 . S
Cd450 O451 2.240 . S
Cd450 O458 2.223 . S
Cd450 O460 2.297 . S
Cd450 O461 2.439 . S
O451 Cd450 2.240 . S
O451 C456 1.279 . S
O452 Cd449 2.297 . S
O452 C454 1.247 . S
O453 Cd449 2.439 . S
O453 C454 1.208 . S
C454 O452 1.247 . S
C454 O453 1.208 . S
C455 O460 1.247 . S
C455 O461 1.208 . S
C456 O448 1.315 . S
C456 O451 1.279 . S
C457 O458 1.315 . S
C457 O459 1.279 . S
O458 Cd450 2.223 . S
O458 C457 1.315 . S
O459 Cd449 2.240 . S
O459 C457 1.279 . S
O460 Cd450 2.297 . S
O460 C455 1.247 . S
O461 Cd450 2.439 . S
O461 C455 1.208 . S
O462 Cd463 2.223 . S
O462 C470 1.315 . S
Cd463 O462 2.223 . S
Cd463 O466 2.297 . S
Cd463 O467 2.439 . S
Cd463 O473 2.240 . S
Cd464 O465 2.240 . S
Cd464 O472 2.223 . S
Cd464 O474 2.297 . S
Cd464 O475 2.439 . S
O465 Cd464 2.240 . S
O465 C470 1.279 . S
O466 Cd463 2.297 . S
O466 C468 1.247 . S
O467 Cd463 2.439 . S
O467 C468 1.208 . S
C468 O466 1.247 . S
C468 O467 1.208 . S
C469 O474 1.247 . S
C469 O475 1.208 . S
C470 O462 1.315 . S
C470 O465 1.279 . S
C471 O472 1.315 . S
C471 O473 1.279 . S
O472 Cd464 2.223 . S
O472 C471 1.315 . S
O473 Cd463 2.240 . S
O473 C471 1.279 . S
O474 Cd464 2.297 . S
O474 C469 1.247 . S
O475 Cd464 2.439 . S
O475 C469 1.208 . S
O476 Cd477 2.223 . S
O476 C484 1.315 . S
Cd477 O476 2.223 . S
Cd477 O480 2.297 . S
Cd477 O481 2.439 . S
Cd477 O487 2.240 . S
Cd478 O479 2.240 . S
Cd478 O486 2.223 . S
Cd478 O488 2.297 . S
Cd478 O489 2.439 . S
O479 Cd478 2.240 . S
O479 C484 1.279 . S
O480 Cd477 2.297 . S
O480 C482 1.247 . S
O481 Cd477 2.439 . S
O481 C482 1.208 . S
C482 O480 1.247 . S
C482 O481 1.208 . S
C483 O488 1.247 . S
C483 O489 1.208 . S
C484 O476 1.315 . S
C484 O479 1.279 . S
C485 O486 1.315 . S
C485 O487 1.279 . S
O486 Cd478 2.223 . S
O486 C485 1.315 . S
O487 Cd477 2.240 . S
O487 C485 1.279 . S
O488 Cd478 2.297 . S
O488 C483 1.247 . S
O489 Cd478 2.439 . S
O489 C483 1.208 . S
O490 Cd491 2.223 . S
O490 C498 1.315 . S
Cd491 O490 2.223 . S
Cd491 O494 2.297 . S
Cd491 O495 2.439 . S
Cd491 O501 2.240 . S
Cd492 O493 2.240 . S
Cd492 O500 2.223 . S
Cd492 O502 2.297 . S
Cd492 O503 2.439 . S
O493 Cd492 2.240 . S
O493 C498 1.279 . S
O494 Cd491 2.297 . S
O494 C496 1.247 . S
O495 Cd491 2.439 . S
O495 C496 1.208 . S
C496 O494 1.247 . S
C496 O495 1.208 . S
C497 O502 1.247 . S
C497 O503 1.208 . S
C498 O490 1.315 . S
C498 O493 1.279 . S
C499 O500 1.315 . S
C499 O501 1.279 . S
O500 Cd492 2.223 . S
O500 C499 1.315 . S
O501 Cd491 2.240 . S
O501 C499 1.279 . S
O502 Cd492 2.297 . S
O502 C497 1.247 . S
O503 Cd492 2.439 . S
O503 C497 1.208 . S
O504 Cd505 2.223 . S
O504 C512 1.315 . S
Cd505 O504 2.223 . S
Cd505 O508 2.297 . S
Cd505 O509 2.439 . S
Cd505 O515 2.240 . S
Cd506 O507 2.240 . S
Cd506 O514 2.223 . S
Cd506 O516 2.297 . S
Cd506 O517 2.439 . S
O507 Cd506 2.240 . S
O507 C512 1.279 . S
O508 Cd505 2.297 . S
O508 C510 1.247 . S
O509 Cd505 2.439 . S
O509 C510 1.208 . S
C510 O508 1.247 . S
C510 O509 1.208 . S
C511 O516 1.247 . S
C511 O517 1.208 . S
C512 O504 1.315 . S
C512 O507 1.279 . S
C513 O514 1.315 . S
C513 O515 1.279 . S
O514 Cd506 2.223 . S
O514 C513 1.315 . S
O515 Cd505 2.240 . S
O515 C513 1.279 . S
O516 Cd506 2.297 . S
O516 C511 1.247 . S
O517 Cd506 2.439 . S
O517 C511 1.208 . S
O518 Cd519 2.223 . S
O518 C526 1.315 . S
Cd519 O518 2.223 . S
Cd519 O522 2.297 . S
Cd519 O523 2.439 . S
Cd519 O529 2.240 . S
Cd520 O521 2.240 . S
Cd520 O528 2.223 . S
Cd520 O530 2.297 . S
Cd520 O531 2.439 . S
O521 Cd520 2.240 . S
O521 C526 1.279 . S
O522 Cd519 2.297 . S
O522 C524 1.247 . S
O523 Cd519 2.439 . S
O523 C524 1.208 . S
C524 O522 1.247 . S
C524 O523 1.208 . S
C525 O530 1.247 . S
C525 O531 1.208 . S
C526 O518 1.315 . S
C526 O521 1.279 . S
C527 O528 1.315 . S
C527 O529 1.279 . S
O528 Cd520 2.223 . S
O528 C527 1.315 . S
O529 Cd519 2.240 . S
O529 C527 1.279 . S
O530 Cd520 2.297 . S
O530 C525 1.247 . S
O531 Cd520 2.439 . S
O531 C525 1.208 . S
O532 Cd533 2.223 . S
O532 C540 1.315 . S
Cd533 O532 2.223 . S
Cd533 O536 2.297 . S
Cd533 O537 2.439 . S
Cd533 O543 2.240 . S
Cd534 O535 2.240 . S
Cd534 O542 2.223 . S
Cd534 O544 2.297 . S
Cd534 O545 2.439 . S
O535 Cd534 2.240 . S
O535 C540 1.279 . S
O536 Cd533 2.297 . S
O536 C538 1.247 . S
O537 Cd533 2.439 . S
O537 C538 1.208 . S
C538 O536 1.247 . S
C538 O537 1.208 . S
C539 O544 1.247 . S
C539 O545 1.208 . S
C540 O532 1.315 . S
C540 O535 1.279 . S
C541 O542 1.315 . S
C541 O543 1.279 . S
O542 Cd534 2.223 . S
O542 C541 1.315 . S
O543 Cd533 2.240 . S
O543 C541 1.279 . S
O544 Cd534 2.297 . S
O544 C539 1.247 . S
O545 Cd534 2.439 . S
O545 C539 1.208 . S
O546 Cd547 2.223 . S
O546 C554 1.315 . S
Cd547 O546 2.223 . S
Cd547 O550 2.297 . S
Cd547 O551 2.439 . S
Cd547 O557 2.240 . S
Cd548 O549 2.240 . S
Cd548 O556 2.223 . S
Cd548 O558 2.297 . S
Cd548 O559 2.439 . S
O549 Cd548 2.240 . S
O549 C554 1.279 . S
O550 Cd547 2.297 . S
O550 C552 1.247 . S
O551 Cd547 2.439 . S
O551 C552 1.208 . S
C552 O550 1.247 . S
C552 O551 1.208 . S
C553 O558 1.247 . S
C553 O559 1.208 . S
C554 O546 1.315 . S
C554 O549 1.279 . S
C555 O556 1.315 . S
C555 O557 1.279 . S
O556 Cd548 2.223 . S
O556 C555 1.315 . S
O557 Cd547 2.240 . S
O557 C555 1.279 . S
O558 Cd548 2.297 . S
O558 C553 1.247 . S
O559 Cd548 2.439 . S
O559 C553 1.208 . S
O560 Cd561 2.223 . S
O560 C568 1.315 . S
Cd561 O560 2.223 . S
Cd561 O564 2.297 . S
Cd561 O565 2.439 . S
Cd561 O571 2.240 . S
Cd562 O563 2.240 . S
Cd562 O570 2.223 . S
Cd562 O572 2.297 . S
Cd562 O573 2.439 . S
O563 Cd562 2.240 . S
O563 C568 1.279 . S
O564 Cd561 2.297 . S
O564 C566 1.247 . S
O565 Cd561 2.439 . S
O565 C566 1.208 . S
C566 O564 1.247 . S
C566 O565 1.208 . S
C567 O572 1.247 . S
C567 O573 1.208 . S
C568 O560 1.315 . S
C568 O563 1.279 . S
C569 O570 1.315 . S
C569 O571 1.279 . S
O570 Cd562 2.223 . S
O570 C569 1.315 . S
O571 Cd561 2.240 . S
O571 C569 1.279 . S
O572 Cd562 2.297 . S
O572 C567 1.247 . S
O573 Cd562 2.439 . S
O573 C567 1.208 . S
O574 Cd575 2.223 . S
O574 C582 1.315 . S
Cd575 O574 2.223 . S
Cd575 O578 2.297 . S
Cd575 O579 2.439 . S
Cd575 O585 2.240 . S
Cd576 O577 2.240 . S
Cd576 O584 2.223 . S
Cd576 O586 2.297 . S
Cd576 O587 2.439 . S
O577 Cd576 2.240 . S
O577 C582 1.279 . S
O578 Cd575 2.297 . S
O578 C580 1.247 . S
O579 Cd575 2.439 . S
O579 C580 1.208 . S
C580 O578 1.247 . S
C580 O579 1.208 . S
C581 O586 1.247 . S
C581 O587 1.208 . S
C582 O574 1.315 . S
C582 O577 1.279 . S
C583 O584 1.315 . S
C583 O585 1.279 . S
O584 Cd576 2.223 . S
O584 C583 1.315 . S
O585 Cd575 2.240 . S
O585 C583 1.279 . S
O586 Cd576 2.297 . S
O586 C581 1.247 . S
O587 Cd576 2.439 . S
O587 C581 1.208 . S
O588 Cd589 2.223 . S
O588 C596 1.315 . S
Cd589 O588 2.223 . S
Cd589 O592 2.297 . S
Cd589 O593 2.439 . S
Cd589 O599 2.240 . S
Cd590 O591 2.240 . S
Cd590 O598 2.223 . S
Cd590 O600 2.297 . S
Cd590 O601 2.439 . S
O591 Cd590 2.240 . S
O591 C596 1.279 . S
O592 Cd589 2.297 . S
O592 C594 1.247 . S
O593 Cd589 2.439 . S
O593 C594 1.208 . S
C594 O592 1.247 . S
C594 O593 1.208 . S
C595 O600 1.247 . S
C595 O601 1.208 . S
C596 O588 1.315 . S
C596 O591 1.279 . S
C597 O598 1.315 . S
C597 O599 1.279 . S
O598 Cd590 2.223 . S
O598 C597 1.315 . S
O599 Cd589 2.240 . S
O599 C597 1.279 . S
O600 Cd590 2.297 . S
O600 C595 1.247 . S
O601 Cd590 2.439 . S
O601 C595 1.208 . S
O602 Cd603 2.223 . S
O602 C610 1.315 . S
Cd603 O602 2.223 . S
Cd603 O606 2.297 . S
Cd603 O607 2.439 . S
Cd603 O613 2.240 . S
Cd604 O605 2.240 . S
Cd604 O612 2.223 . S
Cd604 O614 2.297 . S
Cd604 O615 2.439 . S
O605 Cd604 2.240 . S
O605 C610 1.279 . S
O606 Cd603 2.297 . S
O606 C608 1.247 . S
O607 Cd603 2.439 . S
O607 C608 1.208 . S
C608 O606 1.247 . S
C608 O607 1.208 . S
C609 O614 1.247 . S
C609 O615 1.208 . S
C610 O602 1.315 . S
C610 O605 1.279 . S
C611 O612 1.315 . S
C611 O613 1.279 . S
O612 Cd604 2.223 . S
O612 C611 1.315 . S
O613 Cd603 2.240 . S
O613 C611 1.279 . S
O614 Cd604 2.297 . S
O614 C609 1.247 . S
O615 Cd604 2.439 . S
O615 C609 1.208 . S
O616 Cd617 2.223 . S
O616 C624 1.315 . S
Cd617 O616 2.223 . S
Cd617 O620 2.297 . S
Cd617 O621 2.439 . S
Cd617 O627 2.240 . S
Cd618 O619 2.240 . S
Cd618 O626 2.223 . S
Cd618 O628 2.297 . S
Cd618 O629 2.439 . S
O619 Cd618 2.240 . S
O619 C624 1.279 . S
O620 Cd617 2.297 . S
O620 C622 1.247 . S
O621 Cd617 2.439 . S
O621 C622 1.208 . S
C622 O620 1.247 . S
C622 O621 1.208 . S
C623 O628 1.247 . S
C623 O629 1.208 . S
C624 O616 1.315 . S
C624 O619 1.279 . S
C625 O626 1.315 . S
C625 O627 1.279 . S
O626 Cd618 2.223 . S
O626 C625 1.315 . S
O627 Cd617 2.240 . S
O627 C625 1.279 . S
O628 Cd618 2.297 . S
O628 C623 1.247 . S
O629 Cd618 2.439 . S
O629 C623 1.208 . S
O630 Cd631 2.223 . S
O630 C638 1.315 . S
Cd631 O630 2.223 . S
Cd631 O634 2.297 . S
Cd631 O635 2.439 . S
Cd631 O641 2.240 . S
Cd632 O633 2.240 . S
Cd632 O640 2.223 . S
Cd632 O642 2.297 . S
Cd632 O643 2.439 . S
O633 Cd632 2.240 . S
O633 C638 1.279 . S
O634 Cd631 2.297 . S
O634 C636 1.247 . S
O635 Cd631 2.439 . S
O635 C636 1.208 . S
C636 O634 1.247 . S
C636 O635 1.208 . S
C637 O642 1.247 . S
C637 O643 1.208 . S
C638 O630 1.315 . S
C638 O633 1.279 . S
C639 O640 1.315 . S
C639 O641 1.279 . S
O640 Cd632 2.223 . S
O640 C639 1.315 . S
O641 Cd631 2.240 . S
O641 C639 1.279 . S
O642 Cd632 2.297 . S
O642 C637 1.247 . S
O643 Cd632 2.439 . S
O643 C637 1.208 . S
O644 Cd645 2.223 . S
O644 C652 1.315 . S
Cd645 O644 2.223 . S
Cd645 O648 2.297 . S
Cd645 O649 2.439 . S
Cd645 O655 2.240 . S
Cd646 O647 2.240 . S
Cd646 O654 2.223 . S
Cd646 O656 2.297 . S
Cd646 O657 2.439 . S
O647 Cd646 2.240 . S
O647 C652 1.279 . S
O648 Cd645 2.297 . S
O648 C650 1.247 . S
O649 Cd645 2.439 . S
O649 C650 1.208 . S
C650 O648 1.247 . S
C650 O649 1.208 . S
C651 O656 1.247 . S
C651 O657 1.208 . S
C652 O644 1.315 . S
C652 O647 1.279 . S
C653 O654 1.315 . S
C653 O655 1.279 . S
O654 Cd646 2.223 . S
O654 C653 1.315 . S
O655 Cd645 2.240 . S
O655 C653 1.279 . S
O656 Cd646 2.297 . S
O656 C651 1.247 . S
O657 Cd646 2.439 . S
O657 C651 1.208 . S
O658 Cd659 2.223 . S
O658 C666 1.315 . S
Cd659 O658 2.223 . S
Cd659 O662 2.297 . S
Cd659 O663 2.439 . S
Cd659 O669 2.240 . S
Cd660 O661 2.240 . S
Cd660 O668 2.223 . S
Cd660 O670 2.297 . S
Cd660 O671 2.439 . S
O661 Cd660 2.240 . S
O661 C666 1.279 . S
O662 Cd659 2.297 . S
O662 C664 1.247 . S
O663 Cd659 2.439 . S
O663 C664 1.208 . S
C664 O662 1.247 . S
C664 O663 1.208 . S
C665 O670 1.247 . S
C665 O671 1.208 . S
C666 O658 1.315 . S
C666 O661 1.279 . S
C667 O668 1.315 . S
C667 O669 1.279 . S
O668 Cd660 2.223 . S
O668 C667 1.315 . S
O669 Cd659 2.240 . S
O669 C667 1.279 . S
O670 Cd660 2.297 . S
O670 C665 1.247 . S
O671 Cd660 2.439 . S
O671 C665 1.208 . S
H672 C678 0.930 . S
H673 C682 0.930 . S
H674 C687 0.929 . S
H675 C685 0.929 . S
H676 C680 0.929 . S
H677 C686 0.929 . S
C678 H672 0.930 . S
C678 C679 1.367 . S
C678 C686 1.378 . S
C679 C678 1.367 . S
C679 C687 1.433 . S
C680 H676 0.929 . S
C680 C682 1.378 . S
C680 C684 1.350 . S
C681 C684 1.463 1_655 S
C681 C686 1.350 . S
C681 N689 1.427 . S
C682 H673 0.930 . S
C682 C680 1.378 . S
C682 C683 1.367 . S
C683 C682 1.367 . S
C683 C685 1.433 . S
C684 C680 1.350 . S
C684 C681 1.463 1_455 S
C684 N688 1.427 . S
C685 H675 0.929 . S
C685 C683 1.433 . S
C685 N688 1.384 . S
C686 H677 0.929 . S
C686 C678 1.378 . S
C686 C681 1.350 . S
C687 H674 0.929 . S
C687 C679 1.433 . S
C687 N689 1.384 . S
N688 C684 1.427 . S
N688 C685 1.384 . S
N689 C681 1.427 . S
N689 C687 1.384 . S
H690 C696 0.930 . S
H691 C700 0.930 . S
H692 C705 0.929 . S
H693 C703 0.929 . S
H694 C698 0.929 . S
H695 C704 0.929 . S
C696 H690 0.930 . S
C696 C697 1.367 . S
C696 C704 1.378 . S
C697 C696 1.367 . S
C697 C705 1.433 . S
C698 H694 0.929 . S
C698 C700 1.378 . S
C698 C702 1.350 . S
C699 C702 1.463 1_565 S
C699 C704 1.350 . S
C699 N707 1.427 . S
C700 H691 0.930 . S
C700 C698 1.378 . S
C700 C701 1.367 . S
C701 C700 1.367 . S
C701 C703 1.433 . S
C702 C698 1.350 . S
C702 C699 1.463 1_545 S
C702 N706 1.427 . S
C703 H693 0.929 . S
C703 C701 1.433 . S
C703 N706 1.384 . S
C704 H695 0.929 . S
C704 C696 1.378 . S
C704 C699 1.350 . S
C705 H692 0.929 . S
C705 C697 1.433 . S
C705 N707 1.384 . S
N706 C702 1.427 . S
N706 C703 1.384 . S
N707 C699 1.427 . S
N707 C705 1.384 . S
H708 C714 0.930 . S
H709 C718 0.930 . S
H710 C723 0.929 . S
H711 C721 0.929 . S
H712 C716 0.929 . S
H713 C722 0.929 . S
C714 H708 0.930 . S
C714 C715 1.367 . S
C714 C722 1.378 . S
C715 C714 1.367 . S
C715 C723 1.433 . S
C716 H712 0.929 . S
C716 C718 1.378 . S
C716 C720 1.350 . S
C717 C720 1.463 1_455 S
C717 C722 1.350 . S
C717 N725 1.427 . S
C718 H709 0.930 . S
C718 C716 1.378 . S
C718 C719 1.367 . S
C719 C718 1.367 . S
C719 C721 1.433 . S
C720 C716 1.350 . S
C720 C717 1.463 1_655 S
C720 N724 1.427 . S
C721 H711 0.929 . S
C721 C719 1.433 . S
C721 N724 1.384 . S
C722 H713 0.929 . S
C722 C714 1.378 . S
C722 C717 1.350 . S
C723 H710 0.929 . S
C723 C715 1.433 . S
C723 N725 1.384 . S
N724 C720 1.427 . S
N724 C721 1.384 . S
N725 C717 1.427 . S
N725 C723 1.384 . S
H726 C732 0.930 . S
H727 C736 0.930 . S
H728 C741 0.929 . S
H729 C739 0.929 . S
H730 C734 0.929 1_565 S
H731 C740 0.929 1_545 S
C732 H726 0.930 . S
C732 C733 1.367 . S
C732 C740 1.378 . S
C733 C732 1.367 . S
C733 C741 1.433 . S
C734 H730 0.929 1_545 S
C734 C736 1.378 . S
C734 C738 1.350 . S
C735 C738 1.463 1_565 S
C735 C740 1.350 . S
C735 N743 1.427 . S
C736 H727 0.930 . S
C736 C734 1.378 . S
C736 C737 1.367 . S
C737 C736 1.367 . S
C737 C739 1.433 . S
C738 C734 1.350 . S
C738 C735 1.463 1_545 S
C738 N742 1.427 . S
C739 H729 0.929 . S
C739 C737 1.433 . S
C739 N742 1.384 . S
C740 H731 0.929 1_565 S
C740 C732 1.378 . S
C740 C735 1.350 . S
C741 H728 0.929 . S
C741 C733 1.433 . S
C741 N743 1.384 . S
N742 C738 1.427 . S
N742 C739 1.384 . S
N743 C735 1.427 . S
N743 C741 1.384 . S
H744 C750 0.930 . S
H745 C754 0.930 . S
H746 C759 0.929 . S
H747 C757 0.929 . S
H748 C752 0.929 . S
H749 C758 0.929 . S
C750 H744 0.930 . S
C750 C751 1.367 . S
C750 C758 1.378 . S
C751 C750 1.367 . S
C751 C759 1.433 . S
C752 H748 0.929 . S
C752 C754 1.378 . S
C752 C756 1.350 . S
C753 C756 1.463 1_655 S
C753 C758 1.350 . S
C753 N761 1.427 . S
C754 H745 0.930 . S
C754 C752 1.378 . S
C754 C755 1.367 . S
C755 C754 1.367 . S
C755 C757 1.433 . S
C756 C752 1.350 . S
C756 C753 1.463 1_455 S
C756 N760 1.427 . S
C757 H747 0.929 . S
C757 C755 1.433 . S
C757 N760 1.384 . S
C758 H749 0.929 . S
C758 C750 1.378 . S
C758 C753 1.350 . S
C759 H746 0.929 . S
C759 C751 1.433 . S
C759 N761 1.384 . S
N760 C756 1.427 . S
N760 C757 1.384 . S
N761 C753 1.427 . S
N761 C759 1.384 . S
H762 C768 0.930 . S
H763 C772 0.930 . S
H764 C777 0.929 . S
H765 C775 0.929 . S
H766 C770 0.929 . S
H767 C776 0.929 . S
C768 H762 0.930 . S
C768 C769 1.367 . S
C768 C776 1.378 . S
C769 C768 1.367 . S
C769 C777 1.433 . S
C770 H766 0.929 . S
C770 C772 1.378 . S
C770 C774 1.350 . S
C771 C774 1.463 1_545 S
C771 C776 1.350 . S
C771 N779 1.427 . S
C772 H763 0.930 . S
C772 C770 1.378 . S
C772 C773 1.367 . S
C773 C772 1.367 . S
C773 C775 1.433 . S
C774 C770 1.350 . S
C774 C771 1.463 1_565 S
C774 N778 1.427 . S
C775 H765 0.929 . S
C775 C773 1.433 . S
C775 N778 1.384 . S
C776 H767 0.929 . S
C776 C768 1.378 . S
C776 C771 1.350 . S
C777 H764 0.929 . S
C777 C769 1.433 . S
C777 N779 1.384 . S
N778 C774 1.427 . S
N778 C775 1.384 . S
N779 C771 1.427 . S
N779 C777 1.384 . S
H780 C786 0.930 . S
H781 C790 0.930 . S
H782 C795 0.929 . S
H783 C793 0.929 . S
H784 C788 0.929 1_455 S
H785 C794 0.929 1_655 S
C786 H780 0.930 . S
C786 C787 1.367 . S
C786 C794 1.378 . S
C787 C786 1.367 . S
C787 C795 1.433 . S
C788 H784 0.929 1_655 S
C788 C790 1.378 . S
C788 C792 1.350 . S
C789 C792 1.463 1_455 S
C789 C794 1.350 . S
C789 N797 1.427 . S
C790 H781 0.930 . S
C790 C788 1.378 . S
C790 C791 1.367 . S
C791 C790 1.367 . S
C791 C793 1.433 . S
C792 C788 1.350 . S
C792 C789 1.463 1_655 S
C792 N796 1.427 . S
C793 H783 0.929 . S
C793 C791 1.433 . S
C793 N796 1.384 . S
C794 H785 0.929 1_455 S
C794 C786 1.378 . S
C794 C789 1.350 . S
C795 H782 0.929 . S
C795 C787 1.433 . S
C795 N797 1.384 . S
N796 C792 1.427 . S
N796 C793 1.384 . S
N797 C789 1.427 . S
N797 C795 1.384 . S
H798 C804 0.930 . S
H799 C808 0.930 . S
H800 C813 0.929 . S
H801 C811 0.929 . S
H802 C806 0.929 . S
H803 C812 0.929 . S
C804 H798 0.930 . S
C804 C805 1.367 . S
C804 C812 1.378 . S
C805 C804 1.367 . S
C805 C813 1.433 . S
C806 H802 0.929 . S
C806 C808 1.378 . S
C806 C810 1.350 . S
C807 C810 1.463 1_545 S
C807 C812 1.350 . S
C807 N815 1.427 . S
C808 H799 0.930 . S
C808 C806 1.378 . S
C808 C809 1.367 . S
C809 C808 1.367 . S
C809 C811 1.433 . S
C810 C806 1.350 . S
C810 C807 1.463 1_565 S
C810 N814 1.427 . S
C811 H801 0.929 . S
C811 C809 1.433 . S
C811 N814 1.384 . S
C812 H803 0.929 . S
C812 C804 1.378 . S
C812 C807 1.350 . S
C813 H800 0.929 . S
C813 C805 1.433 . S
C813 N815 1.384 . S
N814 C810 1.427 . S
N814 C811 1.384 . S
N815 C807 1.427 . S
N815 C813 1.384 . S
H816 C822 0.930 . S
H817 C826 0.930 . S
H818 C831 0.929 . S
H819 C829 0.929 . S
H820 C824 0.929 . S
H821 C830 0.929 . S
C822 H816 0.930 . S
C822 C823 1.367 . S
C822 C830 1.378 . S
C823 C822 1.367 . S
C823 C831 1.433 . S
C824 H820 0.929 . S
C824 C826 1.378 . S
C824 C828 1.350 . S
C825 C828 1.463 1_554 S
C825 C830 1.350 . S
C825 N833 1.427 . S
C826 H817 0.930 . S
C826 C824 1.378 . S
C826 C827 1.367 . S
C827 C826 1.367 . S
C827 C829 1.433 . S
C828 C824 1.350 . S
C828 C825 1.463 1_556 S
C828 N832 1.427 . S
C829 H819 0.929 . S
C829 C827 1.433 . S
C829 N832 1.384 . S
C830 H821 0.929 . S
C830 C822 1.378 . S
C830 C825 1.350 . S
C831 H818 0.929 . S
C831 C823 1.433 . S
C831 N833 1.384 . S
N832 C828 1.427 . S
N832 C829 1.384 . S
N833 C825 1.427 . S
N833 C831 1.384 . S
H834 C840 0.930 . S
H835 C844 0.930 . S
H836 C849 0.929 . S
H837 C847 0.929 . S
H838 C842 0.929 . S
H839 C848 0.929 . S
C840 H834 0.930 . S
C840 C841 1.367 . S
C840 C848 1.378 . S
C841 C840 1.367 . S
C841 C849 1.433 . S
C842 H838 0.929 . S
C842 C844 1.378 . S
C842 C846 1.350 . S
C843 C846 1.463 1_556 S
C843 C848 1.350 . S
C843 N851 1.427 . S
C844 H835 0.930 . S
C844 C842 1.378 . S
C844 C845 1.367 . S
C845 C844 1.367 . S
C845 C847 1.433 . S
C846 C842 1.350 . S
C846 C843 1.463 1_554 S
C846 N850 1.427 . S
C847 H837 0.929 . S
C847 C845 1.433 . S
C847 N850 1.384 . S
C848 H839 0.929 . S
C848 C840 1.378 . S
C848 C843 1.350 . S
C849 H836 0.929 . S
C849 C841 1.433 . S
C849 N851 1.384 . S
N850 C846 1.427 . S
N850 C847 1.384 . S
N851 C843 1.427 . S
N851 C849 1.384 . S
H852 C858 0.930 . S
H853 C862 0.930 . S
H854 C867 0.929 . S
H855 C865 0.929 . S
H856 C860 0.929 . S
H857 C866 0.929 . S
C858 H852 0.930 . S
C858 C859 1.367 . S
C858 C866 1.378 . S
C859 C858 1.367 . S
C859 C867 1.433 . S
C860 H856 0.929 . S
C860 C862 1.378 . S
C860 C864 1.350 . S
C861 C864 1.463 1_556 S
C861 C866 1.350 . S
C861 N869 1.427 . S
C862 H853 0.930 . S
C862 C860 1.378 . S
C862 C863 1.367 . S
C863 C862 1.367 . S
C863 C865 1.433 . S
C864 C860 1.350 . S
C864 C861 1.463 1_554 S
C864 N868 1.427 . S
C865 H855 0.929 . S
C865 C863 1.433 . S
C865 N868 1.384 . S
C866 H857 0.929 . S
C866 C858 1.378 . S
C866 C861 1.350 . S
C867 H854 0.929 . S
C867 C859 1.433 . S
C867 N869 1.384 . S
N868 C864 1.427 . S
N868 C865 1.384 . S
N869 C861 1.427 . S
N869 C867 1.384 . S
H870 C876 0.930 . S
H871 C880 0.930 . S
H872 C885 0.929 . S
H873 C883 0.929 . S
H874 C878 0.929 . S
H875 C884 0.929 . S
C876 H870 0.930 . S
C876 C877 1.367 . S
C876 C884 1.378 . S
C877 C876 1.367 . S
C877 C885 1.433 . S
C878 H874 0.929 . S
C878 C880 1.378 . S
C878 C882 1.350 . S
C879 C882 1.463 1_556 S
C879 C884 1.350 . S
C879 N887 1.427 . S
C880 H871 0.930 . S
C880 C878 1.378 . S
C880 C881 1.367 . S
C881 C880 1.367 . S
C881 C883 1.433 . S
C882 C878 1.350 . S
C882 C879 1.463 1_554 S
C882 N886 1.427 . S
C883 H873 0.929 . S
C883 C881 1.433 . S
C883 N886 1.384 . S
C884 H875 0.929 . S
C884 C876 1.378 . S
C884 C879 1.350 . S
C885 H872 0.929 . S
C885 C877 1.433 . S
C885 N887 1.384 . S
N886 C882 1.427 . S
N886 C883 1.384 . S
N887 C879 1.427 . S
N887 C885 1.384 . S
H888 C894 0.930 . S
H889 C898 0.930 . S
H890 C903 0.929 . S
H891 C901 0.929 . S
H892 C896 0.929 . S
H893 C902 0.929 . S
C894 H888 0.930 . S
C894 C895 1.367 . S
C894 C902 1.378 . S
C895 C894 1.367 . S
C895 C903 1.433 . S
C896 H892 0.929 . S
C896 C898 1.378 . S
C896 C900 1.350 . S
C897 C900 1.463 . S
C897 C902 1.350 . S
C897 N905 1.427 . S
C898 H889 0.930 . S
C898 C896 1.378 . S
C898 C899 1.367 . S
C899 C898 1.367 . S
C899 C901 1.433 . S
C900 C896 1.350 . S
C900 C897 1.463 . S
C900 N904 1.427 . S
C901 H891 0.929 . S
C901 C899 1.433 . S
C901 N904 1.384 . S
C902 H893 0.929 . S
C902 C894 1.378 . S
C902 C897 1.350 . S
C903 H890 0.929 . S
C903 C895 1.433 . S
C903 N905 1.384 . S
N904 C900 1.427 . S
N904 C901 1.384 . S
N905 C897 1.427 . S
N905 C903 1.384 . S
H906 C912 0.930 . S
H907 C916 0.930 . S
H908 C921 0.929 . S
H909 C919 0.929 . S
H910 C914 0.929 . S
H911 C920 0.929 . S
C912 H906 0.930 . S
C912 C913 1.367 . S
C912 C920 1.378 . S
C913 C912 1.367 . S
C913 C921 1.433 . S
C914 H910 0.929 . S
C914 C916 1.378 . S
C914 C918 1.350 . S
C915 C918 1.463 . S
C915 C920 1.350 . S
C915 N923 1.427 . S
C916 H907 0.930 . S
C916 C914 1.378 . S
C916 C917 1.367 . S
C917 C916 1.367 . S
C917 C919 1.433 . S
C918 C914 1.350 . S
C918 C915 1.463 . S
C918 N922 1.427 . S
C919 H909 0.929 . S
C919 C917 1.433 . S
C919 N922 1.384 . S
C920 H911 0.929 . S
C920 C912 1.378 . S
C920 C915 1.350 . S
C921 H908 0.929 . S
C921 C913 1.433 . S
C921 N923 1.384 . S
N922 C918 1.427 . S
N922 C919 1.384 . S
N923 C915 1.427 . S
N923 C921 1.384 . S
H924 C930 0.930 . S
H925 C934 0.930 . S
H926 C939 0.929 . S
H927 C937 0.929 . S
H928 C932 0.929 . S
H929 C938 0.929 . S
C930 H924 0.930 . S
C930 C931 1.367 . S
C930 C938 1.378 . S
C931 C930 1.367 . S
C931 C939 1.433 . S
C932 H928 0.929 . S
C932 C934 1.378 . S
C932 C936 1.350 . S
C933 C936 1.463 . S
C933 C938 1.350 . S
C933 N941 1.427 . S
C934 H925 0.930 . S
C934 C932 1.378 . S
C934 C935 1.367 . S
C935 C934 1.367 . S
C935 C937 1.433 . S
C936 C932 1.350 . S
C936 C933 1.463 . S
C936 N940 1.427 . S
C937 H927 0.929 . S
C937 C935 1.433 . S
C937 N940 1.384 . S
C938 H929 0.929 . S
C938 C930 1.378 . S
C938 C933 1.350 . S
C939 H926 0.929 . S
C939 C931 1.433 . S
C939 N941 1.384 . S
N940 C936 1.427 . S
N940 C937 1.384 . S
N941 C933 1.427 . S
N941 C939 1.384 . S
H942 C948 0.930 . S
H943 C952 0.930 . S
H944 C957 0.929 . S
H945 C955 0.929 . S
H946 C950 0.929 . S
H947 C956 0.929 . S
C948 H942 0.930 . S
C948 C949 1.367 . S
C948 C956 1.378 . S
C949 C948 1.367 . S
C949 C957 1.433 . S
C950 H946 0.929 . S
C950 C952 1.378 . S
C950 C954 1.350 . S
C951 C954 1.463 . S
C951 C956 1.350 . S
C951 N959 1.427 . S
C952 H943 0.930 . S
C952 C950 1.378 . S
C952 C953 1.367 . S
C953 C952 1.367 . S
C953 C955 1.433 . S
C954 C950 1.350 . S
C954 C951 1.463 . S
C954 N958 1.427 . S
C955 H945 0.929 . S
C955 C953 1.433 . S
C955 N958 1.384 . S
C956 H947 0.929 . S
C956 C948 1.378 . S
C956 C951 1.350 . S
C957 H944 0.929 . S
C957 C949 1.433 . S
C957 N959 1.384 . S
N958 C954 1.427 . S
N958 C955 1.384 . S
N959 C951 1.427 . S
N959 C957 1.384 . S
H960 C966 0.930 . S
H961 C970 0.930 . S
H962 C975 0.929 . S
H963 C973 0.929 . S
H964 C968 0.929 . S
H965 C974 0.929 . S
C966 H960 0.930 . S
C966 C967 1.367 . S
C966 C974 1.378 . S
C967 C966 1.367 . S
C967 C975 1.433 . S
C968 H964 0.929 . S
C968 C970 1.378 . S
C968 C972 1.350 . S
C969 C972 1.463 . S
C969 C974 1.350 . S
C969 N977 1.427 . S
C970 H961 0.930 . S
C970 C968 1.378 . S
C970 C971 1.367 . S
C971 C970 1.367 . S
C971 C973 1.433 . S
C972 C968 1.350 . S
C972 C969 1.463 . S
C972 N976 1.427 . S
C973 H963 0.929 . S
C973 C971 1.433 . S
C973 N976 1.384 . S
C974 H965 0.929 . S
C974 C966 1.378 . S
C974 C969 1.350 . S
C975 H962 0.929 . S
C975 C967 1.433 . S
C975 N977 1.384 . S
N976 C972 1.427 . S
N976 C973 1.384 . S
N977 C969 1.427 . S
N977 C975 1.384 . S
H978 C984 0.930 . S
H979 C988 0.930 . S
H980 C993 0.929 . S
H981 C991 0.929 . S
H982 C986 0.929 . S
H983 C992 0.929 . S
C984 H978 0.930 . S
C984 C985 1.367 . S
C984 C992 1.378 . S
C985 C984 1.367 . S
C985 C993 1.433 . S
C986 H982 0.929 . S
C986 C988 1.378 . S
C986 C990 1.350 . S
C987 C990 1.463 . S
C987 C992 1.350 . S
C987 N995 1.427 . S
C988 H979 0.930 . S
C988 C986 1.378 . S
C988 C989 1.367 . S
C989 C988 1.367 . S
C989 C991 1.433 . S
C990 C986 1.350 . S
C990 C987 1.463 . S
C990 N994 1.427 . S
C991 H981 0.929 . S
C991 C989 1.433 . S
C991 N994 1.384 . S
C992 H983 0.929 . S
C992 C984 1.378 . S
C992 C987 1.350 . S
C993 H980 0.929 . S
C993 C985 1.433 . S
C993 N995 1.384 . S
N994 C990 1.427 . S
N994 C991 1.384 . S
N995 C987 1.427 . S
N995 C993 1.384 . S
H996 C1002 0.930 . S
H997 C1006 0.930 . S
H998 C1011 0.929 . S
H999 C1009 0.929 . S
H1000 C1004 0.929 . S
H1001 C1010 0.929 . S
C1002 H996 0.930 . S
C1002 C1003 1.367 . S
C1002 C1010 1.378 . S
C1003 C1002 1.367 . S
C1003 C1011 1.433 . S
C1004 H1000 0.929 . S
C1004 C1006 1.378 . S
C1004 C1008 1.350 . S
C1005 C1008 1.463 . S
C1005 C1010 1.350 . S
C1005 N1013 1.427 . S
C1006 H997 0.930 . S
C1006 C1004 1.378 . S
C1006 C1007 1.367 . S
C1007 C1006 1.367 . S
C1007 C1009 1.433 . S
C1008 C1004 1.350 . S
C1008 C1005 1.463 . S
C1008 N1012 1.427 . S
C1009 H999 0.929 . S
C1009 C1007 1.433 . S
C1009 N1012 1.384 . S
C1010 H1001 0.929 . S
C1010 C1002 1.378 . S
C1010 C1005 1.350 . S
C1011 H998 0.929 . S
C1011 C1003 1.433 . S
C1011 N1013 1.384 . S
N1012 C1008 1.427 . S
N1012 C1009 1.384 . S
N1013 C1005 1.427 . S
N1013 C1011 1.384 . S
H1014 C1020 0.930 . S
H1015 C1024 0.930 . S
H1016 C1029 0.929 . S
H1017 C1027 0.929 . S
H1018 C1022 0.929 . S
H1019 C1028 0.929 . S
C1020 H1014 0.930 . S
C1020 C1021 1.367 . S
C1020 C1028 1.378 . S
C1021 C1020 1.367 . S
C1021 C1029 1.433 . S
C1022 H1018 0.929 . S
C1022 C1024 1.378 . S
C1022 C1026 1.350 . S
C1023 C1026 1.463 . S
C1023 C1028 1.350 . S
C1023 N1031 1.427 . S
C1024 H1015 0.930 . S
C1024 C1022 1.378 . S
C1024 C1025 1.367 . S
C1025 C1024 1.367 . S
C1025 C1027 1.433 . S
C1026 C1022 1.350 . S
C1026 C1023 1.463 . S
C1026 N1030 1.427 . S
C1027 H1017 0.929 . S
C1027 C1025 1.433 . S
C1027 N1030 1.384 . S
C1028 H1019 0.929 . S
C1028 C1020 1.378 . S
C1028 C1023 1.350 . S
C1029 H1016 0.929 . S
C1029 C1021 1.433 . S
C1029 N1031 1.384 . S
N1030 C1026 1.427 . S
N1030 C1027 1.384 . S
N1031 C1023 1.427 . S
N1031 C1029 1.384 . S
H1032 C1038 0.930 . S
H1033 C1042 0.930 . S
H1034 C1047 0.929 . S
H1035 C1045 0.929 . S
H1036 C1040 0.929 . S
H1037 C1046 0.929 . S
C1038 H1032 0.930 . S
C1038 C1039 1.367 . S
C1038 C1046 1.378 . S
C1039 C1038 1.367 . S
C1039 C1047 1.433 . S
C1040 H1036 0.929 . S
C1040 C1042 1.378 . S
C1040 C1044 1.350 . S
C1041 C1044 1.463 . S
C1041 C1046 1.350 . S
C1041 N1049 1.427 . S
C1042 H1033 0.930 . S
C1042 C1040 1.378 . S
C1042 C1043 1.367 . S
C1043 C1042 1.367 . S
C1043 C1045 1.433 . S
C1044 C1040 1.350 . S
C1044 C1041 1.463 . S
C1044 N1048 1.427 . S
C1045 H1035 0.929 . S
C1045 C1043 1.433 . S
C1045 N1048 1.384 . S
C1046 H1037 0.929 . S
C1046 C1038 1.378 . S
C1046 C1041 1.350 . S
C1047 H1034 0.929 . S
C1047 C1039 1.433 . S
C1047 N1049 1.384 . S
N1048 C1044 1.427 . S
N1048 C1045 1.384 . S
N1049 C1041 1.427 . S
N1049 C1047 1.384 . S
H1050 C1056 0.930 . S
H1051 C1060 0.930 . S
H1052 C1065 0.929 . S
H1053 C1063 0.929 . S
H1054 C1058 0.929 . S
H1055 C1064 0.929 . S
C1056 H1050 0.930 . S
C1056 C1057 1.367 . S
C1056 C1064 1.378 . S
C1057 C1056 1.367 . S
C1057 C1065 1.433 . S
C1058 H1054 0.929 . S
C1058 C1060 1.378 . S
C1058 C1062 1.350 . S
C1059 C1062 1.463 . S
C1059 C1064 1.350 . S
C1059 N1067 1.427 . S
C1060 H1051 0.930 . S
C1060 C1058 1.378 . S
C1060 C1061 1.367 . S
C1061 C1060 1.367 . S
C1061 C1063 1.433 . S
C1062 C1058 1.350 . S
C1062 C1059 1.463 . S
C1062 N1066 1.427 . S
C1063 H1053 0.929 . S
C1063 C1061 1.433 . S
C1063 N1066 1.384 . S
C1064 H1055 0.929 . S
C1064 C1056 1.378 . S
C1064 C1059 1.350 . S
C1065 H1052 0.929 . S
C1065 C1057 1.433 . S
C1065 N1067 1.384 . S
N1066 C1062 1.427 . S
N1066 C1063 1.384 . S
N1067 C1059 1.427 . S
N1067 C1065 1.384 . S
H1068 C1074 0.930 . S
H1069 C1078 0.930 . S
H1070 C1083 0.929 . S
H1071 C1081 0.929 . S
H1072 C1076 0.929 . S
H1073 C1082 0.929 . S
C1074 H1068 0.930 . S
C1074 C1075 1.367 . S
C1074 C1082 1.378 . S
C1075 C1074 1.367 . S
C1075 C1083 1.433 . S
C1076 H1072 0.929 . S
C1076 C1078 1.378 . S
C1076 C1080 1.350 . S
C1077 C1080 1.463 . S
C1077 C1082 1.350 . S
C1077 N1085 1.427 . S
C1078 H1069 0.930 . S
C1078 C1076 1.378 . S
C1078 C1079 1.367 . S
C1079 C1078 1.367 . S
C1079 C1081 1.433 . S
C1080 C1076 1.350 . S
C1080 C1077 1.463 . S
C1080 N1084 1.427 . S
C1081 H1071 0.929 . S
C1081 C1079 1.433 . S
C1081 N1084 1.384 . S
C1082 H1073 0.929 . S
C1082 C1074 1.378 . S
C1082 C1077 1.350 . S
C1083 H1070 0.929 . S
C1083 C1075 1.433 . S
C1083 N1085 1.384 . S
N1084 C1080 1.427 . S
N1084 C1081 1.384 . S
N1085 C1077 1.427 . S
N1085 C1083 1.384 . S
H1086 C1092 0.930 . S
H1087 C1096 0.930 . S
H1088 C1101 0.929 . S
H1089 C1099 0.929 . S
H1090 C1094 0.929 . S
H1091 C1100 0.929 . S
C1092 H1086 0.930 . S
C1092 C1093 1.367 . S
C1092 C1100 1.378 . S
C1093 C1092 1.367 . S
C1093 C1101 1.433 . S
C1094 H1090 0.929 . S
C1094 C1096 1.378 . S
C1094 C1098 1.350 . S
C1095 C1098 1.463 . S
C1095 C1100 1.350 . S
C1095 N1103 1.427 . S
C1096 H1087 0.930 . S
C1096 C1094 1.378 . S
C1096 C1097 1.367 . S
C1097 C1096 1.367 . S
C1097 C1099 1.433 . S
C1098 C1094 1.350 . S
C1098 C1095 1.463 . S
C1098 N1102 1.427 . S
C1099 H1089 0.929 . S
C1099 C1097 1.433 . S
C1099 N1102 1.384 . S
C1100 H1091 0.929 . S
C1100 C1092 1.378 . S
C1100 C1095 1.350 . S
C1101 H1088 0.929 . S
C1101 C1093 1.433 . S
C1101 N1103 1.384 . S
N1102 C1098 1.427 . S
N1102 C1099 1.384 . S
N1103 C1095 1.427 . S
N1103 C1101 1.384 . S
H1104 C1110 0.930 . S
H1105 C1114 0.930 . S
H1106 C1119 0.929 . S
H1107 C1117 0.929 . S
H1108 C1112 0.929 . S
H1109 C1118 0.929 . S
C1110 H1104 0.930 . S
C1110 C1111 1.367 . S
C1110 C1118 1.378 . S
C1111 C1110 1.367 . S
C1111 C1119 1.433 . S
C1112 H1108 0.929 . S
C1112 C1114 1.378 . S
C1112 C1116 1.350 . S
C1113 C1116 1.463 . S
C1113 C1118 1.350 . S
C1113 N1121 1.427 . S
C1114 H1105 0.930 . S
C1114 C1112 1.378 . S
C1114 C1115 1.367 . S
C1115 C1114 1.367 . S
C1115 C1117 1.433 . S
C1116 C1112 1.350 . S
C1116 C1113 1.463 . S
C1116 N1120 1.427 . S
C1117 H1107 0.929 . S
C1117 C1115 1.433 . S
C1117 N1120 1.384 . S
C1118 H1109 0.929 . S
C1118 C1110 1.378 . S
C1118 C1113 1.350 . S
C1119 H1106 0.929 . S
C1119 C1111 1.433 . S
C1119 N1121 1.384 . S
N1120 C1116 1.427 . S
N1120 C1117 1.384 . S
N1121 C1113 1.427 . S
N1121 C1119 1.384 . S
H1122 C1128 0.930 . S
H1123 C1132 0.930 . S
H1124 C1137 0.929 . S
H1125 C1135 0.929 . S
H1126 C1130 0.929 . S
H1127 C1136 0.929 . S
C1128 H1122 0.930 . S
C1128 C1129 1.367 . S
C1128 C1136 1.378 . S
C1129 C1128 1.367 . S
C1129 C1137 1.433 . S
C1130 H1126 0.929 . S
C1130 C1132 1.378 . S
C1130 C1134 1.350 . S
C1131 C1134 1.463 . S
C1131 C1136 1.350 . S
C1131 N1139 1.427 . S
C1132 H1123 0.930 . S
C1132 C1130 1.378 . S
C1132 C1133 1.367 . S
C1133 C1132 1.367 . S
C1133 C1135 1.433 . S
C1134 C1130 1.350 . S
C1134 C1131 1.463 . S
C1134 N1138 1.427 . S
C1135 H1125 0.929 . S
C1135 C1133 1.433 . S
C1135 N1138 1.384 . S
C1136 H1127 0.929 . S
C1136 C1128 1.378 . S
C1136 C1131 1.350 . S
C1137 H1124 0.929 . S
C1137 C1129 1.433 . S
C1137 N1139 1.384 . S
N1138 C1134 1.427 . S
N1138 C1135 1.384 . S
N1139 C1131 1.427 . S
N1139 C1137 1.384 . S
H1140 C1146 0.930 . S
H1141 C1150 0.930 . S
H1142 C1155 0.929 . S
H1143 C1153 0.929 . S
H1144 C1148 0.929 . S
H1145 C1154 0.929 . S
C1146 H1140 0.930 . S
C1146 C1147 1.367 . S
C1146 C1154 1.378 . S
C1147 C1146 1.367 . S
C1147 C1155 1.433 . S
C1148 H1144 0.929 . S
C1148 C1150 1.378 . S
C1148 C1152 1.350 . S
C1149 C1152 1.463 . S
C1149 C1154 1.350 . S
C1149 N1157 1.427 . S
C1150 H1141 0.930 . S
C1150 C1148 1.378 . S
C1150 C1151 1.367 . S
C1151 C1150 1.367 . S
C1151 C1153 1.433 . S
C1152 C1148 1.350 . S
C1152 C1149 1.463 . S
C1152 N1156 1.427 . S
C1153 H1143 0.929 . S
C1153 C1151 1.433 . S
C1153 N1156 1.384 . S
C1154 H1145 0.929 . S
C1154 C1146 1.378 . S
C1154 C1149 1.350 . S
C1155 H1142 0.929 . S
C1155 C1147 1.433 . S
C1155 N1157 1.384 . S
N1156 C1152 1.427 . S
N1156 C1153 1.384 . S
N1157 C1149 1.427 . S
N1157 C1155 1.384 . S
H1158 C1164 0.930 . S
H1159 C1168 0.930 . S
H1160 C1173 0.929 . S
H1161 C1171 0.929 . S
H1162 C1166 0.929 . S
H1163 C1172 0.929 . S
C1164 H1158 0.930 . S
C1164 C1165 1.367 . S
C1164 C1172 1.378 . S
C1165 C1164 1.367 . S
C1165 C1173 1.433 . S
C1166 H1162 0.929 . S
C1166 C1168 1.378 . S
C1166 C1170 1.350 . S
C1167 C1170 1.463 . S
C1167 C1172 1.350 . S
C1167 N1175 1.427 . S
C1168 H1159 0.930 . S
C1168 C1166 1.378 . S
C1168 C1169 1.367 . S
C1169 C1168 1.367 . S
C1169 C1171 1.433 . S
C1170 C1166 1.350 . S
C1170 C1167 1.463 . S
C1170 N1174 1.427 . S
C1171 H1161 0.929 . S
C1171 C1169 1.433 . S
C1171 N1174 1.384 . S
C1172 H1163 0.929 . S
C1172 C1164 1.378 . S
C1172 C1167 1.350 . S
C1173 H1160 0.929 . S
C1173 C1165 1.433 . S
C1173 N1175 1.384 . S
N1174 C1170 1.427 . S
N1174 C1171 1.384 . S
N1175 C1167 1.427 . S
N1175 C1173 1.384 . S
H1176 C1182 0.930 . S
H1177 C1186 0.930 . S
H1178 C1191 0.929 . S
H1179 C1189 0.929 . S
H1180 C1184 0.929 . S
H1181 C1190 0.929 . S
C1182 H1176 0.930 . S
C1182 C1183 1.367 . S
C1182 C1190 1.378 . S
C1183 C1182 1.367 . S
C1183 C1191 1.433 . S
C1184 H1180 0.929 . S
C1184 C1186 1.378 . S
C1184 C1188 1.350 . S
C1185 C1188 1.463 . S
C1185 C1190 1.350 . S
C1185 N1193 1.427 . S
C1186 H1177 0.930 . S
C1186 C1184 1.378 . S
C1186 C1187 1.367 . S
C1187 C1186 1.367 . S
C1187 C1189 1.433 . S
C1188 C1184 1.350 . S
C1188 C1185 1.463 . S
C1188 N1192 1.427 . S
C1189 H1179 0.929 . S
C1189 C1187 1.433 . S
C1189 N1192 1.384 . S
C1190 H1181 0.929 . S
C1190 C1182 1.378 . S
C1190 C1185 1.350 . S
C1191 H1178 0.929 . S
C1191 C1183 1.433 . S
C1191 N1193 1.384 . S
N1192 C1188 1.427 . S
N1192 C1189 1.384 . S
N1193 C1185 1.427 . S
N1193 C1191 1.384 . S
H1194 C1200 0.930 . S
H1195 C1204 0.930 . S
H1196 C1209 0.929 . S
H1197 C1207 0.929 . S
H1198 C1202 0.929 . S
H1199 C1208 0.929 . S
C1200 H1194 0.930 . S
C1200 C1201 1.367 . S
C1200 C1208 1.378 . S
C1201 C1200 1.367 . S
C1201 C1209 1.433 . S
C1202 H1198 0.929 . S
C1202 C1204 1.378 . S
C1202 C1206 1.350 . S
C1203 C1206 1.463 . S
C1203 C1208 1.350 . S
C1203 N1211 1.427 . S
C1204 H1195 0.930 . S
C1204 C1202 1.378 . S
C1204 C1205 1.367 . S
C1205 C1204 1.367 . S
C1205 C1207 1.433 . S
C1206 C1202 1.350 . S
C1206 C1203 1.463 . S
C1206 N1210 1.427 . S
C1207 H1197 0.929 . S
C1207 C1205 1.433 . S
C1207 N1210 1.384 . S
C1208 H1199 0.929 . S
C1208 C1200 1.378 . S
C1208 C1203 1.350 . S
C1209 H1196 0.929 . S
C1209 C1201 1.433 . S
C1209 N1211 1.384 . S
N1210 C1206 1.427 . S
N1210 C1207 1.384 . S
N1211 C1203 1.427 . S
N1211 C1209 1.384 . S
H1212 C1218 0.930 . S
H1213 C1222 0.930 . S
H1214 C1227 0.929 . S
H1215 C1225 0.929 . S
H1216 C1220 0.929 . S
H1217 C1226 0.929 . S
C1218 H1212 0.930 . S
C1218 C1219 1.367 . S
C1218 C1226 1.378 . S
C1219 C1218 1.367 . S
C1219 C1227 1.433 . S
C1220 H1216 0.929 . S
C1220 C1222 1.378 . S
C1220 C1224 1.350 . S
C1221 C1224 1.463 . S
C1221 C1226 1.350 . S
C1221 N1229 1.427 . S
C1222 H1213 0.930 . S
C1222 C1220 1.378 . S
C1222 C1223 1.367 . S
C1223 C1222 1.367 . S
C1223 C1225 1.433 . S
C1224 C1220 1.350 . S
C1224 C1221 1.463 . S
C1224 N1228 1.427 . S
C1225 H1215 0.929 . S
C1225 C1223 1.433 . S
C1225 N1228 1.384 . S
C1226 H1217 0.929 . S
C1226 C1218 1.378 . S
C1226 C1221 1.350 . S
C1227 H1214 0.929 . S
C1227 C1219 1.433 . S
C1227 N1229 1.384 . S
N1228 C1224 1.427 . S
N1228 C1225 1.384 . S
N1229 C1221 1.427 . S
N1229 C1227 1.384 . S
H1230 C1236 0.930 . S
H1231 C1240 0.930 . S
H1232 C1245 0.929 . S
H1233 C1243 0.929 . S
H1234 C1238 0.929 . S
H1235 C1244 0.929 . S
C1236 H1230 0.930 . S
C1236 C1237 1.367 . S
C1236 C1244 1.378 . S
C1237 C1236 1.367 . S
C1237 C1245 1.433 . S
C1238 H1234 0.929 . S
C1238 C1240 1.378 . S
C1238 C1242 1.350 . S
C1239 C1242 1.463 . S
C1239 C1244 1.350 . S
C1239 N1247 1.427 . S
C1240 H1231 0.930 . S
C1240 C1238 1.378 . S
C1240 C1241 1.367 . S
C1241 C1240 1.367 . S
C1241 C1243 1.433 . S
C1242 C1238 1.350 . S
C1242 C1239 1.463 . S
C1242 N1246 1.427 . S
C1243 H1233 0.929 . S
C1243 C1241 1.433 . S
C1243 N1246 1.384 . S
C1244 H1235 0.929 . S
C1244 C1236 1.378 . S
C1244 C1239 1.350 . S
C1245 H1232 0.929 . S
C1245 C1237 1.433 . S
C1245 N1247 1.384 . S
N1246 C1242 1.427 . S
N1246 C1243 1.384 . S
N1247 C1239 1.427 . S
N1247 C1245 1.384 . S
H1248 C1254 0.930 . S
H1249 C1258 0.930 . S
H1250 C1263 0.929 . S
H1251 C1261 0.929 . S
H1252 C1256 0.929 . S
H1253 C1262 0.929 . S
C1254 H1248 0.930 . S
C1254 C1255 1.367 . S
C1254 C1262 1.378 . S
C1255 C1254 1.367 . S
C1255 C1263 1.433 . S
C1256 H1252 0.929 . S
C1256 C1258 1.378 . S
C1256 C1260 1.350 . S
C1257 C1260 1.463 . S
C1257 C1262 1.350 . S
C1257 N1265 1.427 . S
C1258 H1249 0.930 . S
C1258 C1256 1.378 . S
C1258 C1259 1.367 . S
C1259 C1258 1.367 . S
C1259 C1261 1.433 . S
C1260 C1256 1.350 . S
C1260 C1257 1.463 . S
C1260 N1264 1.427 . S
C1261 H1251 0.929 . S
C1261 C1259 1.433 . S
C1261 N1264 1.384 . S
C1262 H1253 0.929 . S
C1262 C1254 1.378 . S
C1262 C1257 1.350 . S
C1263 H1250 0.929 . S
C1263 C1255 1.433 . S
C1263 N1265 1.384 . S
N1264 C1260 1.427 . S
N1264 C1261 1.384 . S
N1265 C1257 1.427 . S
N1265 C1263 1.384 . S
H1266 C1272 0.930 . S
H1267 C1276 0.930 . S
H1268 C1281 0.929 . S
H1269 C1279 0.929 . S
H1270 C1274 0.929 . S
H1271 C1280 0.929 . S
C1272 H1266 0.930 . S
C1272 C1273 1.367 . S
C1272 C1280 1.378 . S
C1273 C1272 1.367 . S
C1273 C1281 1.433 . S
C1274 H1270 0.929 . S
C1274 C1276 1.378 . S
C1274 C1278 1.350 . S
C1275 C1278 1.463 . S
C1275 C1280 1.350 . S
C1275 N1283 1.427 . S
C1276 H1267 0.930 . S
C1276 C1274 1.378 . S
C1276 C1277 1.367 . S
C1277 C1276 1.367 . S
C1277 C1279 1.433 . S
C1278 C1274 1.350 . S
C1278 C1275 1.463 . S
C1278 N1282 1.427 . S
C1279 H1269 0.929 . S
C1279 C1277 1.433 . S
C1279 N1282 1.384 . S
C1280 H1271 0.929 . S
C1280 C1272 1.378 . S
C1280 C1275 1.350 . S
C1281 H1268 0.929 . S
C1281 C1273 1.433 . S
C1281 N1283 1.384 . S
N1282 C1278 1.427 . S
N1282 C1279 1.384 . S
N1283 C1275 1.427 . S
N1283 C1281 1.384 . S
H1284 C1290 0.930 . S
H1285 C1294 0.930 . S
H1286 C1299 0.929 . S
H1287 C1297 0.929 . S
H1288 C1292 0.929 . S
H1289 C1298 0.929 . S
C1290 H1284 0.930 . S
C1290 C1291 1.367 . S
C1290 C1298 1.378 . S
C1291 C1290 1.367 . S
C1291 C1299 1.433 . S
C1292 H1288 0.929 . S
C1292 C1294 1.378 . S
C1292 C1296 1.350 . S
C1293 C1296 1.463 . S
C1293 C1298 1.350 . S
C1293 N1301 1.427 . S
C1294 H1285 0.930 . S
C1294 C1292 1.378 . S
C1294 C1295 1.367 . S
C1295 C1294 1.367 . S
C1295 C1297 1.433 . S
C1296 C1292 1.350 . S
C1296 C1293 1.463 . S
C1296 N1300 1.427 . S
C1297 H1287 0.929 . S
C1297 C1295 1.433 . S
C1297 N1300 1.384 . S
C1298 H1289 0.929 . S
C1298 C1290 1.378 . S
C1298 C1293 1.350 . S
C1299 H1286 0.929 . S
C1299 C1291 1.433 . S
C1299 N1301 1.384 . S
N1300 C1296 1.427 . S
N1300 C1297 1.384 . S
N1301 C1293 1.427 . S
N1301 C1299 1.384 . S
H1302 C1308 0.930 . S
H1303 C1312 0.930 . S
H1304 C1317 0.929 . S
H1305 C1315 0.929 . S
H1306 C1310 0.929 . S
H1307 C1316 0.929 . S
C1308 H1302 0.930 . S
C1308 C1309 1.367 . S
C1308 C1316 1.378 . S
C1309 C1308 1.367 . S
C1309 C1317 1.433 . S
C1310 H1306 0.929 . S
C1310 C1312 1.378 . S
C1310 C1314 1.350 . S
C1311 C1314 1.463 . S
C1311 C1316 1.350 . S
C1311 N1319 1.427 . S
C1312 H1303 0.930 . S
C1312 C1310 1.378 . S
C1312 C1313 1.367 . S
C1313 C1312 1.367 . S
C1313 C1315 1.433 . S
C1314 C1310 1.350 . S
C1314 C1311 1.463 . S
C1314 N1318 1.427 . S
C1315 H1305 0.929 . S
C1315 C1313 1.433 . S
C1315 N1318 1.384 . S
C1316 H1307 0.929 . S
C1316 C1308 1.378 . S
C1316 C1311 1.350 . S
C1317 H1304 0.929 . S
C1317 C1309 1.433 . S
C1317 N1319 1.384 . S
N1318 C1314 1.427 . S
N1318 C1315 1.384 . S
N1319 C1311 1.427 . S
N1319 C1317 1.384 . S
H1320 C1326 0.930 . S
H1321 C1330 0.930 . S
H1322 C1335 0.929 . S
H1323 C1333 0.929 . S
H1324 C1328 0.929 . S
H1325 C1334 0.929 . S
C1326 H1320 0.930 . S
C1326 C1327 1.367 . S
C1326 C1334 1.378 . S
C1327 C1326 1.367 . S
C1327 C1335 1.433 . S
C1328 H1324 0.929 . S
C1328 C1330 1.378 . S
C1328 C1332 1.350 . S
C1329 C1332 1.463 . S
C1329 C1334 1.350 . S
C1329 N1337 1.427 . S
C1330 H1321 0.930 . S
C1330 C1328 1.378 . S
C1330 C1331 1.367 . S
C1331 C1330 1.367 . S
C1331 C1333 1.433 . S
C1332 C1328 1.350 . S
C1332 C1329 1.463 . S
C1332 N1336 1.427 . S
C1333 H1323 0.929 . S
C1333 C1331 1.433 . S
C1333 N1336 1.384 . S
C1334 H1325 0.929 . S
C1334 C1326 1.378 . S
C1334 C1329 1.350 . S
C1335 H1322 0.929 . S
C1335 C1327 1.433 . S
C1335 N1337 1.384 . S
N1336 C1332 1.427 . S
N1336 C1333 1.384 . S
N1337 C1329 1.427 . S
N1337 C1335 1.384 . S
H1338 C1344 0.930 . S
H1339 C1348 0.930 . S
H1340 C1353 0.929 . S
H1341 C1351 0.929 . S
H1342 C1346 0.929 . S
H1343 C1352 0.929 . S
C1344 H1338 0.930 . S
C1344 C1345 1.367 . S
C1344 C1352 1.378 . S
C1345 C1344 1.367 . S
C1345 C1353 1.433 . S
C1346 H1342 0.929 . S
C1346 C1348 1.378 . S
C1346 C1350 1.350 . S
C1347 C1350 1.463 . S
C1347 C1352 1.350 . S
C1347 N1355 1.427 . S
C1348 H1339 0.930 . S
C1348 C1346 1.378 . S
C1348 C1349 1.367 . S
C1349 C1348 1.367 . S
C1349 C1351 1.433 . S
C1350 C1346 1.350 . S
C1350 C1347 1.463 . S
C1350 N1354 1.427 . S
C1351 H1341 0.929 . S
C1351 C1349 1.433 . S
C1351 N1354 1.384 . S
C1352 H1343 0.929 . S
C1352 C1344 1.378 . S
C1352 C1347 1.350 . S
C1353 H1340 0.929 . S
C1353 C1345 1.433 . S
C1353 N1355 1.384 . S
N1354 C1350 1.427 . S
N1354 C1351 1.384 . S
N1355 C1347 1.427 . S
N1355 C1353 1.384 . S
H1356 C1362 0.930 . S
H1357 C1366 0.930 . S
H1358 C1371 0.929 . S
H1359 C1369 0.929 . S
H1360 C1364 0.929 . S
H1361 C1370 0.929 . S
C1362 H1356 0.930 . S
C1362 C1363 1.367 . S
C1362 C1370 1.378 . S
C1363 C1362 1.367 . S
C1363 C1371 1.433 . S
C1364 H1360 0.929 . S
C1364 C1366 1.378 . S
C1364 C1368 1.350 . S
C1365 C1368 1.463 . S
C1365 C1370 1.350 . S
C1365 N1373 1.427 . S
C1366 H1357 0.930 . S
C1366 C1364 1.378 . S
C1366 C1367 1.367 . S
C1367 C1366 1.367 . S
C1367 C1369 1.433 . S
C1368 C1364 1.350 . S
C1368 C1365 1.463 . S
C1368 N1372 1.427 . S
C1369 H1359 0.929 . S
C1369 C1367 1.433 . S
C1369 N1372 1.384 . S
C1370 H1361 0.929 . S
C1370 C1362 1.378 . S
C1370 C1365 1.350 . S
C1371 H1358 0.929 . S
C1371 C1363 1.433 . S
C1371 N1373 1.384 . S
N1372 C1368 1.427 . S
N1372 C1369 1.384 . S
N1373 C1365 1.427 . S
N1373 C1371 1.384 . S
H1374 C1380 0.930 . S
H1375 C1384 0.930 . S
H1376 C1389 0.929 . S
H1377 C1387 0.929 . S
H1378 C1382 0.929 . S
H1379 C1388 0.929 . S
C1380 H1374 0.930 . S
C1380 C1381 1.367 . S
C1380 C1388 1.378 . S
C1381 C1380 1.367 . S
C1381 C1389 1.433 . S
C1382 H1378 0.929 . S
C1382 C1384 1.378 . S
C1382 C1386 1.350 . S
C1383 C1386 1.463 . S
C1383 C1388 1.350 . S
C1383 N1391 1.427 . S
C1384 H1375 0.930 . S
C1384 C1382 1.378 . S
C1384 C1385 1.367 . S
C1385 C1384 1.367 . S
C1385 C1387 1.433 . S
C1386 C1382 1.350 . S
C1386 C1383 1.463 . S
C1386 N1390 1.427 . S
C1387 H1377 0.929 . S
C1387 C1385 1.433 . S
C1387 N1390 1.384 . S
C1388 H1379 0.929 . S
C1388 C1380 1.378 . S
C1388 C1383 1.350 . S
C1389 H1376 0.929 . S
C1389 C1381 1.433 . S
C1389 N1391 1.384 . S
N1390 C1386 1.427 . S
N1390 C1387 1.384 . S
N1391 C1383 1.427 . S
N1391 C1389 1.384 . S
H1392 C1398 0.930 . S
H1393 C1402 0.930 . S
H1394 C1407 0.929 . S
H1395 C1405 0.929 . S
H1396 C1400 0.929 . S
H1397 C1406 0.929 . S
C1398 H1392 0.930 . S
C1398 C1399 1.367 . S
C1398 C1406 1.378 . S
C1399 C1398 1.367 . S
C1399 C1407 1.433 . S
C1400 H1396 0.929 . S
C1400 C1402 1.378 . S
C1400 C1404 1.350 . S
C1401 C1404 1.463 . S
C1401 C1406 1.350 . S
C1401 N1409 1.427 . S
C1402 H1393 0.930 . S
C1402 C1400 1.378 . S
C1402 C1403 1.367 . S
C1403 C1402 1.367 . S
C1403 C1405 1.433 . S
C1404 C1400 1.350 . S
C1404 C1401 1.463 . S
C1404 N1408 1.427 . S
C1405 H1395 0.929 . S
C1405 C1403 1.433 . S
C1405 N1408 1.384 . S
C1406 H1397 0.929 . S
C1406 C1398 1.378 . S
C1406 C1401 1.350 . S
C1407 H1394 0.929 . S
C1407 C1399 1.433 . S
C1407 N1409 1.384 . S
N1408 C1404 1.427 . S
N1408 C1405 1.384 . S
N1409 C1401 1.427 . S
N1409 C1407 1.384 . S
H1410 C1416 0.930 . S
H1411 C1420 0.930 . S
H1412 C1425 0.929 . S
H1413 C1423 0.929 . S
H1414 C1418 0.929 . S
H1415 C1424 0.929 . S
C1416 H1410 0.930 . S
C1416 C1417 1.367 . S
C1416 C1424 1.378 . S
C1417 C1416 1.367 . S
C1417 C1425 1.433 . S
C1418 H1414 0.929 . S
C1418 C1420 1.378 . S
C1418 C1422 1.350 . S
C1419 C1422 1.463 . S
C1419 C1424 1.350 . S
C1419 N1427 1.427 . S
C1420 H1411 0.930 . S
C1420 C1418 1.378 . S
C1420 C1421 1.367 . S
C1421 C1420 1.367 . S
C1421 C1423 1.433 . S
C1422 C1418 1.350 . S
C1422 C1419 1.463 . S
C1422 N1426 1.427 . S
C1423 H1413 0.929 . S
C1423 C1421 1.433 . S
C1423 N1426 1.384 . S
C1424 H1415 0.929 . S
C1424 C1416 1.378 . S
C1424 C1419 1.350 . S
C1425 H1412 0.929 . S
C1425 C1417 1.433 . S
C1425 N1427 1.384 . S
N1426 C1422 1.427 . S
N1426 C1423 1.384 . S
N1427 C1419 1.427 . S
N1427 C1425 1.384 . S
H1428 C1434 0.930 . S
H1429 C1438 0.930 . S
H1430 C1443 0.929 . S
H1431 C1441 0.929 . S
H1432 C1436 0.929 . S
H1433 C1442 0.929 . S
C1434 H1428 0.930 . S
C1434 C1435 1.367 . S
C1434 C1442 1.378 . S
C1435 C1434 1.367 . S
C1435 C1443 1.433 . S
C1436 H1432 0.929 . S
C1436 C1438 1.378 . S
C1436 C1440 1.350 . S
C1437 C1440 1.463 . S
C1437 C1442 1.350 . S
C1437 N1445 1.427 . S
C1438 H1429 0.930 . S
C1438 C1436 1.378 . S
C1438 C1439 1.367 . S
C1439 C1438 1.367 . S
C1439 C1441 1.433 . S
C1440 C1436 1.350 . S
C1440 C1437 1.463 . S
C1440 N1444 1.427 . S
C1441 H1431 0.929 . S
C1441 C1439 1.433 . S
C1441 N1444 1.384 . S
C1442 H1433 0.929 . S
C1442 C1434 1.378 . S
C1442 C1437 1.350 . S
C1443 H1430 0.929 . S
C1443 C1435 1.433 . S
C1443 N1445 1.384 . S
N1444 C1440 1.427 . S
N1444 C1441 1.384 . S
N1445 C1437 1.427 . S
N1445 C1443 1.384 . S
H1446 C1452 0.930 . S
H1447 C1456 0.930 . S
H1448 C1461 0.929 . S
H1449 C1459 0.929 . S
H1450 C1454 0.929 . S
H1451 C1460 0.929 . S
C1452 H1446 0.930 . S
C1452 C1453 1.367 . S
C1452 C1460 1.378 . S
C1453 C1452 1.367 . S
C1453 C1461 1.433 . S
C1454 H1450 0.929 . S
C1454 C1456 1.378 . S
C1454 C1458 1.350 . S
C1455 C1458 1.463 . S
C1455 C1460 1.350 . S
C1455 N1463 1.427 . S
C1456 H1447 0.930 . S
C1456 C1454 1.378 . S
C1456 C1457 1.367 . S
C1457 C1456 1.367 . S
C1457 C1459 1.433 . S
C1458 C1454 1.350 . S
C1458 C1455 1.463 . S
C1458 N1462 1.427 . S
C1459 H1449 0.929 . S
C1459 C1457 1.433 . S
C1459 N1462 1.384 . S
C1460 H1451 0.929 . S
C1460 C1452 1.378 . S
C1460 C1455 1.350 . S
C1461 H1448 0.929 . S
C1461 C1453 1.433 . S
C1461 N1463 1.384 . S
N1462 C1458 1.427 . S
N1462 C1459 1.384 . S
N1463 C1455 1.427 . S
N1463 C1461 1.384 . S
H1464 C1470 0.930 . S
H1465 C1474 0.930 . S
H1466 C1479 0.929 . S
H1467 C1477 0.929 . S
H1468 C1472 0.929 . S
H1469 C1478 0.929 . S
C1470 H1464 0.930 . S
C1470 C1471 1.367 . S
C1470 C1478 1.378 . S
C1471 C1470 1.367 . S
C1471 C1479 1.433 . S
C1472 H1468 0.929 . S
C1472 C1474 1.378 . S
C1472 C1476 1.350 . S
C1473 C1476 1.463 . S
C1473 C1478 1.350 . S
C1473 N1481 1.427 . S
C1474 H1465 0.930 . S
C1474 C1472 1.378 . S
C1474 C1475 1.367 . S
C1475 C1474 1.367 . S
C1475 C1477 1.433 . S
C1476 C1472 1.350 . S
C1476 C1473 1.463 . S
C1476 N1480 1.427 . S
C1477 H1467 0.929 . S
C1477 C1475 1.433 . S
C1477 N1480 1.384 . S
C1478 H1469 0.929 . S
C1478 C1470 1.378 . S
C1478 C1473 1.350 . S
C1479 H1466 0.929 . S
C1479 C1471 1.433 . S
C1479 N1481 1.384 . S
N1480 C1476 1.427 . S
N1480 C1477 1.384 . S
N1481 C1473 1.427 . S
N1481 C1479 1.384 . S
H1482 C1488 0.930 . S
H1483 C1492 0.930 . S
H1484 C1497 0.929 . S
H1485 C1495 0.929 . S
H1486 C1490 0.929 . S
H1487 C1496 0.929 . S
C1488 H1482 0.930 . S
C1488 C1489 1.367 . S
C1488 C1496 1.378 . S
C1489 C1488 1.367 . S
C1489 C1497 1.433 . S
C1490 H1486 0.929 . S
C1490 C1492 1.378 . S
C1490 C1494 1.350 . S
C1491 C1494 1.463 . S
C1491 C1496 1.350 . S
C1491 N1499 1.427 . S
C1492 H1483 0.930 . S
C1492 C1490 1.378 . S
C1492 C1493 1.367 . S
C1493 C1492 1.367 . S
C1493 C1495 1.433 . S
C1494 C1490 1.350 . S
C1494 C1491 1.463 . S
C1494 N1498 1.427 . S
C1495 H1485 0.929 . S
C1495 C1493 1.433 . S
C1495 N1498 1.384 . S
C1496 H1487 0.929 . S
C1496 C1488 1.378 . S
C1496 C1491 1.350 . S
C1497 H1484 0.929 . S
C1497 C1489 1.433 . S
C1497 N1499 1.384 . S
N1498 C1494 1.427 . S
N1498 C1495 1.384 . S
N1499 C1491 1.427 . S
N1499 C1497 1.384 . S
H1500 C1506 0.930 . S
H1501 C1510 0.930 . S
H1502 C1515 0.929 . S
H1503 C1513 0.929 . S
H1504 C1508 0.929 . S
H1505 C1514 0.929 . S
C1506 H1500 0.930 . S
C1506 C1507 1.367 . S
C1506 C1514 1.378 . S
C1507 C1506 1.367 . S
C1507 C1515 1.433 . S
C1508 H1504 0.929 . S
C1508 C1510 1.378 . S
C1508 C1512 1.350 . S
C1509 C1512 1.463 . S
C1509 C1514 1.350 . S
C1509 N1517 1.427 . S
C1510 H1501 0.930 . S
C1510 C1508 1.378 . S
C1510 C1511 1.367 . S
C1511 C1510 1.367 . S
C1511 C1513 1.433 . S
C1512 C1508 1.350 . S
C1512 C1509 1.463 . S
C1512 N1516 1.427 . S
C1513 H1503 0.929 . S
C1513 C1511 1.433 . S
C1513 N1516 1.384 . S
C1514 H1505 0.929 . S
C1514 C1506 1.378 . S
C1514 C1509 1.350 . S
C1515 H1502 0.929 . S
C1515 C1507 1.433 . S
C1515 N1517 1.384 . S
N1516 C1512 1.427 . S
N1516 C1513 1.384 . S
N1517 C1509 1.427 . S
N1517 C1515 1.384 . S
H1518 C1524 0.930 . S
H1519 C1528 0.930 . S
H1520 C1533 0.929 . S
H1521 C1531 0.929 . S
H1522 C1526 0.929 . S
H1523 C1532 0.929 . S
C1524 H1518 0.930 . S
C1524 C1525 1.367 . S
C1524 C1532 1.378 . S
C1525 C1524 1.367 . S
C1525 C1533 1.433 . S
C1526 H1522 0.929 . S
C1526 C1528 1.378 . S
C1526 C1530 1.350 . S
C1527 C1530 1.463 . S
C1527 C1532 1.350 . S
C1527 N1535 1.427 . S
C1528 H1519 0.930 . S
C1528 C1526 1.378 . S
C1528 C1529 1.367 . S
C1529 C1528 1.367 . S
C1529 C1531 1.433 . S
C1530 C1526 1.350 . S
C1530 C1527 1.463 . S
C1530 N1534 1.427 . S
C1531 H1521 0.929 . S
C1531 C1529 1.433 . S
C1531 N1534 1.384 . S
C1532 H1523 0.929 . S
C1532 C1524 1.378 . S
C1532 C1527 1.350 . S
C1533 H1520 0.929 . S
C1533 C1525 1.433 . S
C1533 N1535 1.384 . S
N1534 C1530 1.427 . S
N1534 C1531 1.384 . S
N1535 C1527 1.427 . S
N1535 C1533 1.384 . S
H1536 C1542 0.930 . S
H1537 C1546 0.930 . S
H1538 C1551 0.929 . S
H1539 C1549 0.929 . S
H1540 C1544 0.929 . S
H1541 C1550 0.929 . S
C1542 H1536 0.930 . S
C1542 C1543 1.367 . S
C1542 C1550 1.378 . S
C1543 C1542 1.367 . S
C1543 C1551 1.433 . S
C1544 H1540 0.929 . S
C1544 C1546 1.378 . S
C1544 C1548 1.350 . S
C1545 C1548 1.463 . S
C1545 C1550 1.350 . S
C1545 N1553 1.427 . S
C1546 H1537 0.930 . S
C1546 C1544 1.378 . S
C1546 C1547 1.367 . S
C1547 C1546 1.367 . S
C1547 C1549 1.433 . S
C1548 C1544 1.350 . S
C1548 C1545 1.463 . S
C1548 N1552 1.427 . S
C1549 H1539 0.929 . S
C1549 C1547 1.433 . S
C1549 N1552 1.384 . S
C1550 H1541 0.929 . S
C1550 C1542 1.378 . S
C1550 C1545 1.350 . S
C1551 H1538 0.929 . S
C1551 C1543 1.433 . S
C1551 N1553 1.384 . S
N1552 C1548 1.427 . S
N1552 C1549 1.384 . S
N1553 C1545 1.427 . S
N1553 C1551 1.384 . S
H1554 C1560 0.930 . S
H1555 C1564 0.930 . S
H1556 C1569 0.929 . S
H1557 C1567 0.929 . S
H1558 C1562 0.929 . S
H1559 C1568 0.929 . S
C1560 H1554 0.930 . S
C1560 C1561 1.367 . S
C1560 C1568 1.378 . S
C1561 C1560 1.367 . S
C1561 C1569 1.433 . S
C1562 H1558 0.929 . S
C1562 C1564 1.378 . S
C1562 C1566 1.350 . S
C1563 C1566 1.463 . S
C1563 C1568 1.350 . S
C1563 N1571 1.427 . S
C1564 H1555 0.930 . S
C1564 C1562 1.378 . S
C1564 C1565 1.367 . S
C1565 C1564 1.367 . S
C1565 C1567 1.433 . S
C1566 C1562 1.350 . S
C1566 C1563 1.463 . S
C1566 N1570 1.427 . S
C1567 H1557 0.929 . S
C1567 C1565 1.433 . S
C1567 N1570 1.384 . S
C1568 H1559 0.929 . S
C1568 C1560 1.378 . S
C1568 C1563 1.350 . S
C1569 H1556 0.929 . S
C1569 C1561 1.433 . S
C1569 N1571 1.384 . S
N1570 C1566 1.427 . S
N1570 C1567 1.384 . S
N1571 C1563 1.427 . S
N1571 C1569 1.384 . S
H1572 C1578 0.930 . S
H1573 C1582 0.930 . S
H1574 C1587 0.929 . S
H1575 C1585 0.929 . S
H1576 C1580 0.929 . S
H1577 C1586 0.929 . S
C1578 H1572 0.930 . S
C1578 C1579 1.367 . S
C1578 C1586 1.378 . S
C1579 C1578 1.367 . S
C1579 C1587 1.433 . S
C1580 H1576 0.929 . S
C1580 C1582 1.378 . S
C1580 C1584 1.350 . S
C1581 C1584 1.463 . S
C1581 C1586 1.350 . S
C1581 N1589 1.427 . S
C1582 H1573 0.930 . S
C1582 C1580 1.378 . S
C1582 C1583 1.367 . S
C1583 C1582 1.367 . S
C1583 C1585 1.433 . S
C1584 C1580 1.350 . S
C1584 C1581 1.463 . S
C1584 N1588 1.427 . S
C1585 H1575 0.929 . S
C1585 C1583 1.433 . S
C1585 N1588 1.384 . S
C1586 H1577 0.929 . S
C1586 C1578 1.378 . S
C1586 C1581 1.350 . S
C1587 H1574 0.929 . S
C1587 C1579 1.433 . S
C1587 N1589 1.384 . S
N1588 C1584 1.427 . S
N1588 C1585 1.384 . S
N1589 C1581 1.427 . S
N1589 C1587 1.384 . S
H1590 C1596 0.930 . S
H1591 C1600 0.930 . S
H1592 C1605 0.929 . S
H1593 C1603 0.929 . S
H1594 C1598 0.929 . S
H1595 C1604 0.929 . S
C1596 H1590 0.930 . S
C1596 C1597 1.367 . S
C1596 C1604 1.378 . S
C1597 C1596 1.367 . S
C1597 C1605 1.433 . S
C1598 H1594 0.929 . S
C1598 C1600 1.378 . S
C1598 C1602 1.350 . S
C1599 C1602 1.463 . S
C1599 C1604 1.350 . S
C1599 N1607 1.427 . S
C1600 H1591 0.930 . S
C1600 C1598 1.378 . S
C1600 C1601 1.367 . S
C1601 C1600 1.367 . S
C1601 C1603 1.433 . S
C1602 C1598 1.350 . S
C1602 C1599 1.463 . S
C1602 N1606 1.427 . S
C1603 H1593 0.929 . S
C1603 C1601 1.433 . S
C1603 N1606 1.384 . S
C1604 H1595 0.929 . S
C1604 C1596 1.378 . S
C1604 C1599 1.350 . S
C1605 H1592 0.929 . S
C1605 C1597 1.433 . S
C1605 N1607 1.384 . S
N1606 C1602 1.427 . S
N1606 C1603 1.384 . S
N1607 C1599 1.427 . S
N1607 C1605 1.384 . S
H1608 C1614 0.930 . S
H1609 C1618 0.930 . S
H1610 C1623 0.929 . S
H1611 C1621 0.929 . S
H1612 C1616 0.929 . S
H1613 C1622 0.929 . S
C1614 H1608 0.930 . S
C1614 C1615 1.367 . S
C1614 C1622 1.378 . S
C1615 C1614 1.367 . S
C1615 C1623 1.433 . S
C1616 H1612 0.929 . S
C1616 C1618 1.378 . S
C1616 C1620 1.350 . S
C1617 C1620 1.463 . S
C1617 C1622 1.350 . S
C1617 N1625 1.427 . S
C1618 H1609 0.930 . S
C1618 C1616 1.378 . S
C1618 C1619 1.367 . S
C1619 C1618 1.367 . S
C1619 C1621 1.433 . S
C1620 C1616 1.350 . S
C1620 C1617 1.463 . S
C1620 N1624 1.427 . S
C1621 H1611 0.929 . S
C1621 C1619 1.433 . S
C1621 N1624 1.384 . S
C1622 H1613 0.929 . S
C1622 C1614 1.378 . S
C1622 C1617 1.350 . S
C1623 H1610 0.929 . S
C1623 C1615 1.433 . S
C1623 N1625 1.384 . S
N1624 C1620 1.427 . S
N1624 C1621 1.384 . S
N1625 C1617 1.427 . S
N1625 C1623 1.384 . S
H1626 C1632 0.930 . S
H1627 C1636 0.930 . S
H1628 C1641 0.929 . S
H1629 C1639 0.929 . S
H1630 C1634 0.929 . S
H1631 C1640 0.929 . S
C1632 H1626 0.930 . S
C1632 C1633 1.367 . S
C1632 C1640 1.378 . S
C1633 C1632 1.367 . S
C1633 C1641 1.433 . S
C1634 H1630 0.929 . S
C1634 C1636 1.378 . S
C1634 C1638 1.350 . S
C1635 C1638 1.463 . S
C1635 C1640 1.350 . S
C1635 N1643 1.427 . S
C1636 H1627 0.930 . S
C1636 C1634 1.378 . S
C1636 C1637 1.367 . S
C1637 C1636 1.367 . S
C1637 C1639 1.433 . S
C1638 C1634 1.350 . S
C1638 C1635 1.463 . S
C1638 N1642 1.427 . S
C1639 H1629 0.929 . S
C1639 C1637 1.433 . S
C1639 N1642 1.384 . S
C1640 H1631 0.929 . S
C1640 C1632 1.378 . S
C1640 C1635 1.350 . S
C1641 H1628 0.929 . S
C1641 C1633 1.433 . S
C1641 N1643 1.384 . S
N1642 C1638 1.427 . S
N1642 C1639 1.384 . S
N1643 C1635 1.427 . S
N1643 C1641 1.384 . S
H1644 C1650 0.930 . S
H1645 C1654 0.930 . S
H1646 C1659 0.929 . S
H1647 C1657 0.929 . S
H1648 C1652 0.929 . S
H1649 C1658 0.929 . S
C1650 H1644 0.930 . S
C1650 C1651 1.367 . S
C1650 C1658 1.378 . S
C1651 C1650 1.367 . S
C1651 C1659 1.433 . S
C1652 H1648 0.929 . S
C1652 C1654 1.378 . S
C1652 C1656 1.350 . S
C1653 C1656 1.463 . S
C1653 C1658 1.350 . S
C1653 N1661 1.427 . S
C1654 H1645 0.930 . S
C1654 C1652 1.378 . S
C1654 C1655 1.367 . S
C1655 C1654 1.367 . S
C1655 C1657 1.433 . S
C1656 C1652 1.350 . S
C1656 C1653 1.463 . S
C1656 N1660 1.427 . S
C1657 H1647 0.929 . S
C1657 C1655 1.433 . S
C1657 N1660 1.384 . S
C1658 H1649 0.929 . S
C1658 C1650 1.378 . S
C1658 C1653 1.350 . S
C1659 H1646 0.929 . S
C1659 C1651 1.433 . S
C1659 N1661 1.384 . S
N1660 C1656 1.427 . S
N1660 C1657 1.384 . S
N1661 C1653 1.427 . S
N1661 C1659 1.384 . S
H1662 C1668 0.930 . S
H1663 C1672 0.930 . S
H1664 C1677 0.929 . S
H1665 C1675 0.929 . S
H1666 C1670 0.929 . S
H1667 C1676 0.929 . S
C1668 H1662 0.930 . S
C1668 C1669 1.367 . S
C1668 C1676 1.378 . S
C1669 C1668 1.367 . S
C1669 C1677 1.433 . S
C1670 H1666 0.929 . S
C1670 C1672 1.378 . S
C1670 C1674 1.350 . S
C1671 C1674 1.463 . S
C1671 C1676 1.350 . S
C1671 N1679 1.427 . S
C1672 H1663 0.930 . S
C1672 C1670 1.378 . S
C1672 C1673 1.367 . S
C1673 C1672 1.367 . S
C1673 C1675 1.433 . S
C1674 C1670 1.350 . S
C1674 C1671 1.463 . S
C1674 N1678 1.427 . S
C1675 H1665 0.929 . S
C1675 C1673 1.433 . S
C1675 N1678 1.384 . S
C1676 H1667 0.929 . S
C1676 C1668 1.378 . S
C1676 C1671 1.350 . S
C1677 H1664 0.929 . S
C1677 C1669 1.433 . S
C1677 N1679 1.384 . S
N1678 C1674 1.427 . S
N1678 C1675 1.384 . S
N1679 C1671 1.427 . S
N1679 C1677 1.384 . S
H1680 C1686 0.930 . S
H1681 C1690 0.930 . S
H1682 C1695 0.929 . S
H1683 C1693 0.929 . S
H1684 C1688 0.929 . S
H1685 C1694 0.929 . S
C1686 H1680 0.930 . S
C1686 C1687 1.367 . S
C1686 C1694 1.378 . S
C1687 C1686 1.367 . S
C1687 C1695 1.433 . S
C1688 H1684 0.929 . S
C1688 C1690 1.378 . S
C1688 C1692 1.350 . S
C1689 C1692 1.463 . S
C1689 C1694 1.350 . S
C1689 N1697 1.427 . S
C1690 H1681 0.930 . S
C1690 C1688 1.378 . S
C1690 C1691 1.367 . S
C1691 C1690 1.367 . S
C1691 C1693 1.433 . S
C1692 C1688 1.350 . S
C1692 C1689 1.463 . S
C1692 N1696 1.427 . S
C1693 H1683 0.929 . S
C1693 C1691 1.433 . S
C1693 N1696 1.384 . S
C1694 H1685 0.929 . S
C1694 C1686 1.378 . S
C1694 C1689 1.350 . S
C1695 H1682 0.929 . S
C1695 C1687 1.433 . S
C1695 N1697 1.384 . S
N1696 C1692 1.427 . S
N1696 C1693 1.384 . S
N1697 C1689 1.427 . S
N1697 C1695 1.384 . S
H1698 C1704 0.930 . S
H1699 C1708 0.930 . S
H1700 C1713 0.929 . S
H1701 C1711 0.929 . S
H1702 C1706 0.929 . S
H1703 C1712 0.929 . S
C1704 H1698 0.930 . S
C1704 C1705 1.367 . S
C1704 C1712 1.378 . S
C1705 C1704 1.367 . S
C1705 C1713 1.433 . S
C1706 H1702 0.929 . S
C1706 C1708 1.378 . S
C1706 C1710 1.350 . S
C1707 C1710 1.463 . S
C1707 C1712 1.350 . S
C1707 N1715 1.427 . S
C1708 H1699 0.930 . S
C1708 C1706 1.378 . S
C1708 C1709 1.367 . S
C1709 C1708 1.367 . S
C1709 C1711 1.433 . S
C1710 C1706 1.350 . S
C1710 C1707 1.463 . S
C1710 N1714 1.427 . S
C1711 H1701 0.929 . S
C1711 C1709 1.433 . S
C1711 N1714 1.384 . S
C1712 H1703 0.929 . S
C1712 C1704 1.378 . S
C1712 C1707 1.350 . S
C1713 H1700 0.929 . S
C1713 C1705 1.433 . S
C1713 N1715 1.384 . S
N1714 C1710 1.427 . S
N1714 C1711 1.384 . S
N1715 C1707 1.427 . S
N1715 C1713 1.384 . S
H1716 C1722 0.930 . S
H1717 C1726 0.930 . S
H1718 C1731 0.929 . S
H1719 C1729 0.929 . S
H1720 C1724 0.929 . S
H1721 C1730 0.929 . S
C1722 H1716 0.930 . S
C1722 C1723 1.367 . S
C1722 C1730 1.378 . S
C1723 C1722 1.367 . S
C1723 C1731 1.433 . S
C1724 H1720 0.929 . S
C1724 C1726 1.378 . S
C1724 C1728 1.350 . S
C1725 C1728 1.463 . S
C1725 C1730 1.350 . S
C1725 N1733 1.427 . S
C1726 H1717 0.930 . S
C1726 C1724 1.378 . S
C1726 C1727 1.367 . S
C1727 C1726 1.367 . S
C1727 C1729 1.433 . S
C1728 C1724 1.350 . S
C1728 C1725 1.463 . S
C1728 N1732 1.427 . S
C1729 H1719 0.929 . S
C1729 C1727 1.433 . S
C1729 N1732 1.384 . S
C1730 H1721 0.929 . S
C1730 C1722 1.378 . S
C1730 C1725 1.350 . S
C1731 H1718 0.929 . S
C1731 C1723 1.433 . S
C1731 N1733 1.384 . S
N1732 C1728 1.427 . S
N1732 C1729 1.384 . S
N1733 C1725 1.427 . S
N1733 C1731 1.384 . S
H1734 C1740 0.930 . S
H1735 C1744 0.930 . S
H1736 C1749 0.929 . S
H1737 C1747 0.929 . S
H1738 C1742 0.929 . S
H1739 C1748 0.929 . S
C1740 H1734 0.930 . S
C1740 C1741 1.367 . S
C1740 C1748 1.378 . S
C1741 C1740 1.367 . S
C1741 C1749 1.433 . S
C1742 H1738 0.929 . S
C1742 C1744 1.378 . S
C1742 C1746 1.350 . S
C1743 C1746 1.463 . S
C1743 C1748 1.350 . S
C1743 N1751 1.427 . S
C1744 H1735 0.930 . S
C1744 C1742 1.378 . S
C1744 C1745 1.367 . S
C1745 C1744 1.367 . S
C1745 C1747 1.433 . S
C1746 C1742 1.350 . S
C1746 C1743 1.463 . S
C1746 N1750 1.427 . S
C1747 H1737 0.929 . S
C1747 C1745 1.433 . S
C1747 N1750 1.384 . S
C1748 H1739 0.929 . S
C1748 C1740 1.378 . S
C1748 C1743 1.350 . S
C1749 H1736 0.929 . S
C1749 C1741 1.433 . S
C1749 N1751 1.384 . S
N1750 C1746 1.427 . S
N1750 C1747 1.384 . S
N1751 C1743 1.427 . S
N1751 C1749 1.384 . S
H1752 C1758 0.930 . S
H1753 C1762 0.930 . S
H1754 C1767 0.929 . S
H1755 C1765 0.929 . S
H1756 C1760 0.929 . S
H1757 C1766 0.929 . S
C1758 H1752 0.930 . S
C1758 C1759 1.367 . S
C1758 C1766 1.378 . S
C1759 C1758 1.367 . S
C1759 C1767 1.433 . S
C1760 H1756 0.929 . S
C1760 C1762 1.378 . S
C1760 C1764 1.350 . S
C1761 C1764 1.463 . S
C1761 C1766 1.350 . S
C1761 N1769 1.427 . S
C1762 H1753 0.930 . S
C1762 C1760 1.378 . S
C1762 C1763 1.367 . S
C1763 C1762 1.367 . S
C1763 C1765 1.433 . S
C1764 C1760 1.350 . S
C1764 C1761 1.463 . S
C1764 N1768 1.427 . S
C1765 H1755 0.929 . S
C1765 C1763 1.433 . S
C1765 N1768 1.384 . S
C1766 H1757 0.929 . S
C1766 C1758 1.378 . S
C1766 C1761 1.350 . S
C1767 H1754 0.929 . S
C1767 C1759 1.433 . S
C1767 N1769 1.384 . S
N1768 C1764 1.427 . S
N1768 C1765 1.384 . S
N1769 C1761 1.427 . S
N1769 C1767 1.384 . S
H1770 C1776 0.930 . S
H1771 C1780 0.930 . S
H1772 C1785 0.929 . S
H1773 C1783 0.929 . S
H1774 C1778 0.929 . S
H1775 C1784 0.929 . S
C1776 H1770 0.930 . S
C1776 C1777 1.367 . S
C1776 C1784 1.378 . S
C1777 C1776 1.367 . S
C1777 C1785 1.433 . S
C1778 H1774 0.929 . S
C1778 C1780 1.378 . S
C1778 C1782 1.350 . S
C1779 C1782 1.463 . S
C1779 C1784 1.350 . S
C1779 N1787 1.427 . S
C1780 H1771 0.930 . S
C1780 C1778 1.378 . S
C1780 C1781 1.367 . S
C1781 C1780 1.367 . S
C1781 C1783 1.433 . S
C1782 C1778 1.350 . S
C1782 C1779 1.463 . S
C1782 N1786 1.427 . S
C1783 H1773 0.929 . S
C1783 C1781 1.433 . S
C1783 N1786 1.384 . S
C1784 H1775 0.929 . S
C1784 C1776 1.378 . S
C1784 C1779 1.350 . S
C1785 H1772 0.929 . S
C1785 C1777 1.433 . S
C1785 N1787 1.384 . S
N1786 C1782 1.427 . S
N1786 C1783 1.384 . S
N1787 C1779 1.427 . S
N1787 C1785 1.384 . S
H1788 C1794 0.930 . S
H1789 C1798 0.930 . S
H1790 C1803 0.929 . S
H1791 C1801 0.929 . S
H1792 C1796 0.929 . S
H1793 C1802 0.929 . S
C1794 H1788 0.930 . S
C1794 C1795 1.367 . S
C1794 C1802 1.378 . S
C1795 C1794 1.367 . S
C1795 C1803 1.433 . S
C1796 H1792 0.929 . S
C1796 C1798 1.378 . S
C1796 C1800 1.350 . S
C1797 C1800 1.463 . S
C1797 C1802 1.350 . S
C1797 N1805 1.427 . S
C1798 H1789 0.930 . S
C1798 C1796 1.378 . S
C1798 C1799 1.367 . S
C1799 C1798 1.367 . S
C1799 C1801 1.433 . S
C1800 C1796 1.350 . S
C1800 C1797 1.463 . S
C1800 N1804 1.427 . S
C1801 H1791 0.929 . S
C1801 C1799 1.433 . S
C1801 N1804 1.384 . S
C1802 H1793 0.929 . S
C1802 C1794 1.378 . S
C1802 C1797 1.350 . S
C1803 H1790 0.929 . S
C1803 C1795 1.433 . S
C1803 N1805 1.384 . S
N1804 C1800 1.427 . S
N1804 C1801 1.384 . S
N1805 C1797 1.427 . S
N1805 C1803 1.384 . S
H1806 C1812 0.930 . S
H1807 C1816 0.930 . S
H1808 C1821 0.929 . S
H1809 C1819 0.929 . S
H1810 C1814 0.929 . S
H1811 C1820 0.929 . S
C1812 H1806 0.930 . S
C1812 C1813 1.367 . S
C1812 C1820 1.378 . S
C1813 C1812 1.367 . S
C1813 C1821 1.433 . S
C1814 H1810 0.929 . S
C1814 C1816 1.378 . S
C1814 C1818 1.350 . S
C1815 C1818 1.463 . S
C1815 C1820 1.350 . S
C1815 N1823 1.427 . S
C1816 H1807 0.930 . S
C1816 C1814 1.378 . S
C1816 C1817 1.367 . S
C1817 C1816 1.367 . S
C1817 C1819 1.433 . S
C1818 C1814 1.350 . S
C1818 C1815 1.463 . S
C1818 N1822 1.427 . S
C1819 H1809 0.929 . S
C1819 C1817 1.433 . S
C1819 N1822 1.384 . S
C1820 H1811 0.929 . S
C1820 C1812 1.378 . S
C1820 C1815 1.350 . S
C1821 H1808 0.929 . S
C1821 C1813 1.433 . S
C1821 N1823 1.384 . S
N1822 C1818 1.427 . S
N1822 C1819 1.384 . S
N1823 C1815 1.427 . S
N1823 C1821 1.384 . S
H1824 C1830 0.930 . S
H1825 C1834 0.930 . S
H1826 C1839 0.929 . S
H1827 C1837 0.929 . S
H1828 C1832 0.929 . S
H1829 C1838 0.929 . S
C1830 H1824 0.930 . S
C1830 C1831 1.367 . S
C1830 C1838 1.378 . S
C1831 C1830 1.367 . S
C1831 C1839 1.433 . S
C1832 H1828 0.929 . S
C1832 C1834 1.378 . S
C1832 C1836 1.350 . S
C1833 C1836 1.463 . S
C1833 C1838 1.350 . S
C1833 N1841 1.427 . S
C1834 H1825 0.930 . S
C1834 C1832 1.378 . S
C1834 C1835 1.367 . S
C1835 C1834 1.367 . S
C1835 C1837 1.433 . S
C1836 C1832 1.350 . S
C1836 C1833 1.463 . S
C1836 N1840 1.427 . S
C1837 H1827 0.929 . S
C1837 C1835 1.433 . S
C1837 N1840 1.384 . S
C1838 H1829 0.929 . S
C1838 C1830 1.378 . S
C1838 C1833 1.350 . S
C1839 H1826 0.929 . S
C1839 C1831 1.433 . S
C1839 N1841 1.384 . S
N1840 C1836 1.427 . S
N1840 C1837 1.384 . S
N1841 C1833 1.427 . S
N1841 C1839 1.384 . S
H1842 C1848 0.930 . S
H1843 C1852 0.930 . S
H1844 C1857 0.929 . S
H1845 C1855 0.929 . S
H1846 C1850 0.929 . S
H1847 C1856 0.929 . S
C1848 H1842 0.930 . S
C1848 C1849 1.367 . S
C1848 C1856 1.378 . S
C1849 C1848 1.367 . S
C1849 C1857 1.433 . S
C1850 H1846 0.929 . S
C1850 C1852 1.378 . S
C1850 C1854 1.350 . S
C1851 C1854 1.463 . S
C1851 C1856 1.350 . S
C1851 N1859 1.427 . S
C1852 H1843 0.930 . S
C1852 C1850 1.378 . S
C1852 C1853 1.367 . S
C1853 C1852 1.367 . S
C1853 C1855 1.433 . S
C1854 C1850 1.350 . S
C1854 C1851 1.463 . S
C1854 N1858 1.427 . S
C1855 H1845 0.929 . S
C1855 C1853 1.433 . S
C1855 N1858 1.384 . S
C1856 H1847 0.929 . S
C1856 C1848 1.378 . S
C1856 C1851 1.350 . S
C1857 H1844 0.929 . S
C1857 C1849 1.433 . S
C1857 N1859 1.384 . S
N1858 C1854 1.427 . S
N1858 C1855 1.384 . S
N1859 C1851 1.427 . S
N1859 C1857 1.384 . S
H1860 C1866 0.930 . S
H1861 C1870 0.930 . S
H1862 C1875 0.929 . S
H1863 C1873 0.929 . S
H1864 C1868 0.929 . S
H1865 C1874 0.929 . S
C1866 H1860 0.930 . S
C1866 C1867 1.367 . S
C1866 C1874 1.378 . S
C1867 C1866 1.367 . S
C1867 C1875 1.433 . S
C1868 H1864 0.929 . S
C1868 C1870 1.378 . S
C1868 C1872 1.350 . S
C1869 C1872 1.463 . S
C1869 C1874 1.350 . S
C1869 N1877 1.427 . S
C1870 H1861 0.930 . S
C1870 C1868 1.378 . S
C1870 C1871 1.367 . S
C1871 C1870 1.367 . S
C1871 C1873 1.433 . S
C1872 C1868 1.350 . S
C1872 C1869 1.463 . S
C1872 N1876 1.427 . S
C1873 H1863 0.929 . S
C1873 C1871 1.433 . S
C1873 N1876 1.384 . S
C1874 H1865 0.929 . S
C1874 C1866 1.378 . S
C1874 C1869 1.350 . S
C1875 H1862 0.929 . S
C1875 C1867 1.433 . S
C1875 N1877 1.384 . S
N1876 C1872 1.427 . S
N1876 C1873 1.384 . S
N1877 C1869 1.427 . S
N1877 C1875 1.384 . S
H1878 C1884 0.930 . S
H1879 C1888 0.930 . S
H1880 C1893 0.929 . S
H1881 C1891 0.929 . S
H1882 C1886 0.929 . S
H1883 C1892 0.929 . S
C1884 H1878 0.930 . S
C1884 C1885 1.367 . S
C1884 C1892 1.378 . S
C1885 C1884 1.367 . S
C1885 C1893 1.433 . S
C1886 H1882 0.929 . S
C1886 C1888 1.378 . S
C1886 C1890 1.350 . S
C1887 C1890 1.463 . S
C1887 C1892 1.350 . S
C1887 N1895 1.427 . S
C1888 H1879 0.930 . S
C1888 C1886 1.378 . S
C1888 C1889 1.367 . S
C1889 C1888 1.367 . S
C1889 C1891 1.433 . S
C1890 C1886 1.350 . S
C1890 C1887 1.463 . S
C1890 N1894 1.427 . S
C1891 H1881 0.929 . S
C1891 C1889 1.433 . S
C1891 N1894 1.384 . S
C1892 H1883 0.929 . S
C1892 C1884 1.378 . S
C1892 C1887 1.350 . S
C1893 H1880 0.929 . S
C1893 C1885 1.433 . S
C1893 N1895 1.384 . S
N1894 C1890 1.427 . S
N1894 C1891 1.384 . S
N1895 C1887 1.427 . S
N1895 C1893 1.384 . S
H1896 C1902 0.930 . S
H1897 C1906 0.930 . S
H1898 C1911 0.929 . S
H1899 C1909 0.929 . S
H1900 C1904 0.929 . S
H1901 C1910 0.929 . S
C1902 H1896 0.930 . S
C1902 C1903 1.367 . S
C1902 C1910 1.378 . S
C1903 C1902 1.367 . S
C1903 C1911 1.433 . S
C1904 H1900 0.929 . S
C1904 C1906 1.378 . S
C1904 C1908 1.350 . S
C1905 C1908 1.463 . S
C1905 C1910 1.350 . S
C1905 N1913 1.427 . S
C1906 H1897 0.930 . S
C1906 C1904 1.378 . S
C1906 C1907 1.367 . S
C1907 C1906 1.367 . S
C1907 C1909 1.433 . S
C1908 C1904 1.350 . S
C1908 C1905 1.463 . S
C1908 N1912 1.427 . S
C1909 H1899 0.929 . S
C1909 C1907 1.433 . S
C1909 N1912 1.384 . S
C1910 H1901 0.929 . S
C1910 C1902 1.378 . S
C1910 C1905 1.350 . S
C1911 H1898 0.929 . S
C1911 C1903 1.433 . S
C1911 N1913 1.384 . S
N1912 C1908 1.427 . S
N1912 C1909 1.384 . S
N1913 C1905 1.427 . S
N1913 C1911 1.384 . S
H1914 C1920 0.930 . S
H1915 C1924 0.930 . S
H1916 C1929 0.929 . S
H1917 C1927 0.929 . S
H1918 C1922 0.929 . S
H1919 C1928 0.929 . S
C1920 H1914 0.930 . S
C1920 C1921 1.367 . S
C1920 C1928 1.378 . S
C1921 C1920 1.367 . S
C1921 C1929 1.433 . S
C1922 H1918 0.929 . S
C1922 C1924 1.378 . S
C1922 C1926 1.350 . S
C1923 C1926 1.463 . S
C1923 C1928 1.350 . S
C1923 N1931 1.427 . S
C1924 H1915 0.930 . S
C1924 C1922 1.378 . S
C1924 C1925 1.367 . S
C1925 C1924 1.367 . S
C1925 C1927 1.433 . S
C1926 C1922 1.350 . S
C1926 C1923 1.463 . S
C1926 N1930 1.427 . S
C1927 H1917 0.929 . S
C1927 C1925 1.433 . S
C1927 N1930 1.384 . S
C1928 H1919 0.929 . S
C1928 C1920 1.378 . S
C1928 C1923 1.350 . S
C1929 H1916 0.929 . S
C1929 C1921 1.433 . S
C1929 N1931 1.384 . S
N1930 C1926 1.427 . S
N1930 C1927 1.384 . S
N1931 C1923 1.427 . S
N1931 C1929 1.384 . S
H1932 C1938 0.930 . S
H1933 C1942 0.930 . S
H1934 C1947 0.929 . S
H1935 C1945 0.929 . S
H1936 C1940 0.929 . S
H1937 C1946 0.929 . S
C1938 H1932 0.930 . S
C1938 C1939 1.367 . S
C1938 C1946 1.378 . S
C1939 C1938 1.367 . S
C1939 C1947 1.433 . S
C1940 H1936 0.929 . S
C1940 C1942 1.378 . S
C1940 C1944 1.350 . S
C1941 C1944 1.463 . S
C1941 C1946 1.350 . S
C1941 N1949 1.427 . S
C1942 H1933 0.930 . S
C1942 C1940 1.378 . S
C1942 C1943 1.367 . S
C1943 C1942 1.367 . S
C1943 C1945 1.433 . S
C1944 C1940 1.350 . S
C1944 C1941 1.463 . S
C1944 N1948 1.427 . S
C1945 H1935 0.929 . S
C1945 C1943 1.433 . S
C1945 N1948 1.384 . S
C1946 H1937 0.929 . S
C1946 C1938 1.378 . S
C1946 C1941 1.350 . S
C1947 H1934 0.929 . S
C1947 C1939 1.433 . S
C1947 N1949 1.384 . S
N1948 C1944 1.427 . S
N1948 C1945 1.384 . S
N1949 C1941 1.427 . S
N1949 C1947 1.384 . S
H1950 C1956 0.930 . S
H1951 C1960 0.930 . S
H1952 C1965 0.929 . S
H1953 C1963 0.929 . S
H1954 C1958 0.929 . S
H1955 C1964 0.929 . S
C1956 H1950 0.930 . S
C1956 C1957 1.367 . S
C1956 C1964 1.378 . S
C1957 C1956 1.367 . S
C1957 C1965 1.433 . S
C1958 H1954 0.929 . S
C1958 C1960 1.378 . S
C1958 C1962 1.350 . S
C1959 C1962 1.463 . S
C1959 C1964 1.350 . S
C1959 N1967 1.427 . S
C1960 H1951 0.930 . S
C1960 C1958 1.378 . S
C1960 C1961 1.367 . S
C1961 C1960 1.367 . S
C1961 C1963 1.433 . S
C1962 C1958 1.350 . S
C1962 C1959 1.463 . S
C1962 N1966 1.427 . S
C1963 H1953 0.929 . S
C1963 C1961 1.433 . S
C1963 N1966 1.384 . S
C1964 H1955 0.929 . S
C1964 C1956 1.378 . S
C1964 C1959 1.350 . S
C1965 H1952 0.929 . S
C1965 C1957 1.433 . S
C1965 N1967 1.384 . S
N1966 C1962 1.427 . S
N1966 C1963 1.384 . S
N1967 C1959 1.427 . S
N1967 C1965 1.384 . S
H1968 C1974 0.930 . S
H1969 C1978 0.930 . S
H1970 C1983 0.929 . S
H1971 C1981 0.929 . S
H1972 C1976 0.929 . S
H1973 C1982 0.929 . S
C1974 H1968 0.930 . S
C1974 C1975 1.367 . S
C1974 C1982 1.378 . S
C1975 C1974 1.367 . S
C1975 C1983 1.433 . S
C1976 H1972 0.929 . S
C1976 C1978 1.378 . S
C1976 C1980 1.350 . S
C1977 C1980 1.463 . S
C1977 C1982 1.350 . S
C1977 N1985 1.427 . S
C1978 H1969 0.930 . S
C1978 C1976 1.378 . S
C1978 C1979 1.367 . S
C1979 C1978 1.367 . S
C1979 C1981 1.433 . S
C1980 C1976 1.350 . S
C1980 C1977 1.463 . S
C1980 N1984 1.427 . S
C1981 H1971 0.929 . S
C1981 C1979 1.433 . S
C1981 N1984 1.384 . S
C1982 H1973 0.929 . S
C1982 C1974 1.378 . S
C1982 C1977 1.350 . S
C1983 H1970 0.929 . S
C1983 C1975 1.433 . S
C1983 N1985 1.384 . S
N1984 C1980 1.427 . S
N1984 C1981 1.384 . S
N1985 C1977 1.427 . S
N1985 C1983 1.384 . S
H1986 C1992 0.930 . S
H1987 C1996 0.930 . S
H1988 C2001 0.929 . S
H1989 C1999 0.929 . S
H1990 C1994 0.929 . S
H1991 C2000 0.929 . S
C1992 H1986 0.930 . S
C1992 C1993 1.367 . S
C1992 C2000 1.378 . S
C1993 C1992 1.367 . S
C1993 C2001 1.433 . S
C1994 H1990 0.929 . S
C1994 C1996 1.378 . S
C1994 C1998 1.350 . S
C1995 C1998 1.463 . S
C1995 C2000 1.350 . S
C1995 N2003 1.427 . S
C1996 H1987 0.930 . S
C1996 C1994 1.378 . S
C1996 C1997 1.367 . S
C1997 C1996 1.367 . S
C1997 C1999 1.433 . S
C1998 C1994 1.350 . S
C1998 C1995 1.463 . S
C1998 N2002 1.427 . S
C1999 H1989 0.929 . S
C1999 C1997 1.433 . S
C1999 N2002 1.384 . S
C2000 H1991 0.929 . S
C2000 C1992 1.378 . S
C2000 C1995 1.350 . S
C2001 H1988 0.929 . S
C2001 C1993 1.433 . S
C2001 N2003 1.384 . S
N2002 C1998 1.427 . S
N2002 C1999 1.384 . S
N2003 C1995 1.427 . S
N2003 C2001 1.384 . S
H2004 C2010 0.930 . S
H2005 C2014 0.930 . S
H2006 C2019 0.929 . S
H2007 C2017 0.929 . S
H2008 C2012 0.929 . S
H2009 C2018 0.929 . S
C2010 H2004 0.930 . S
C2010 C2011 1.367 . S
C2010 C2018 1.378 . S
C2011 C2010 1.367 . S
C2011 C2019 1.433 . S
C2012 H2008 0.929 . S
C2012 C2014 1.378 . S
C2012 C2016 1.350 . S
C2013 C2016 1.463 . S
C2013 C2018 1.350 . S
C2013 N2021 1.427 . S
C2014 H2005 0.930 . S
C2014 C2012 1.378 . S
C2014 C2015 1.367 . S
C2015 C2014 1.367 . S
C2015 C2017 1.433 . S
C2016 C2012 1.350 . S
C2016 C2013 1.463 . S
C2016 N2020 1.427 . S
C2017 H2007 0.929 . S
C2017 C2015 1.433 . S
C2017 N2020 1.384 . S
C2018 H2009 0.929 . S
C2018 C2010 1.378 . S
C2018 C2013 1.350 . S
C2019 H2006 0.929 . S
C2019 C2011 1.433 . S
C2019 N2021 1.384 . S
N2020 C2016 1.427 . S
N2020 C2017 1.384 . S
N2021 C2013 1.427 . S
N2021 C2019 1.384 . S
H2022 C2028 0.930 . S
H2023 C2032 0.930 . S
H2024 C2037 0.929 . S
H2025 C2035 0.929 . S
H2026 C2030 0.929 . S
H2027 C2036 0.929 . S
C2028 H2022 0.930 . S
C2028 C2029 1.367 . S
C2028 C2036 1.378 . S
C2029 C2028 1.367 . S
C2029 C2037 1.433 . S
C2030 H2026 0.929 . S
C2030 C2032 1.378 . S
C2030 C2034 1.350 . S
C2031 C2034 1.463 . S
C2031 C2036 1.350 . S
C2031 N2039 1.427 . S
C2032 H2023 0.930 . S
C2032 C2030 1.378 . S
C2032 C2033 1.367 . S
C2033 C2032 1.367 . S
C2033 C2035 1.433 . S
C2034 C2030 1.350 . S
C2034 C2031 1.463 . S
C2034 N2038 1.427 . S
C2035 H2025 0.929 . S
C2035 C2033 1.433 . S
C2035 N2038 1.384 . S
C2036 H2027 0.929 . S
C2036 C2028 1.378 . S
C2036 C2031 1.350 . S
C2037 H2024 0.929 . S
C2037 C2029 1.433 . S
C2037 N2039 1.384 . S
N2038 C2034 1.427 . S
N2038 C2035 1.384 . S
N2039 C2031 1.427 . S
N2039 C2037 1.384 . S
H2040 C2046 0.930 . S
H2041 C2050 0.930 . S
H2042 C2055 0.929 . S
H2043 C2053 0.929 . S
H2044 C2048 0.929 . S
H2045 C2054 0.929 . S
C2046 H2040 0.930 . S
C2046 C2047 1.367 . S
C2046 C2054 1.378 . S
C2047 C2046 1.367 . S
C2047 C2055 1.433 . S
C2048 H2044 0.929 . S
C2048 C2050 1.378 . S
C2048 C2052 1.350 . S
C2049 C2052 1.463 . S
C2049 C2054 1.350 . S
C2049 N2057 1.427 . S
C2050 H2041 0.930 . S
C2050 C2048 1.378 . S
C2050 C2051 1.367 . S
C2051 C2050 1.367 . S
C2051 C2053 1.433 . S
C2052 C2048 1.350 . S
C2052 C2049 1.463 . S
C2052 N2056 1.427 . S
C2053 H2043 0.929 . S
C2053 C2051 1.433 . S
C2053 N2056 1.384 . S
C2054 H2045 0.929 . S
C2054 C2046 1.378 . S
C2054 C2049 1.350 . S
C2055 H2042 0.929 . S
C2055 C2047 1.433 . S
C2055 N2057 1.384 . S
N2056 C2052 1.427 . S
N2056 C2053 1.384 . S
N2057 C2049 1.427 . S
N2057 C2055 1.384 . S
H2058 C2064 0.930 . S
H2059 C2068 0.930 . S
H2060 C2073 0.929 . S
H2061 C2071 0.929 . S
H2062 C2066 0.929 . S
H2063 C2072 0.929 . S
C2064 H2058 0.930 . S
C2064 C2065 1.367 . S
C2064 C2072 1.378 . S
C2065 C2064 1.367 . S
C2065 C2073 1.433 . S
C2066 H2062 0.929 . S
C2066 C2068 1.378 . S
C2066 C2070 1.350 . S
C2067 C2070 1.463 . S
C2067 C2072 1.350 . S
C2067 N2075 1.427 . S
C2068 H2059 0.930 . S
C2068 C2066 1.378 . S
C2068 C2069 1.367 . S
C2069 C2068 1.367 . S
C2069 C2071 1.433 . S
C2070 C2066 1.350 . S
C2070 C2067 1.463 . S
C2070 N2074 1.427 . S
C2071 H2061 0.929 . S
C2071 C2069 1.433 . S
C2071 N2074 1.384 . S
C2072 H2063 0.929 . S
C2072 C2064 1.378 . S
C2072 C2067 1.350 . S
C2073 H2060 0.929 . S
C2073 C2065 1.433 . S
C2073 N2075 1.384 . S
N2074 C2070 1.427 . S
N2074 C2071 1.384 . S
N2075 C2067 1.427 . S
N2075 C2073 1.384 . S
H2076 C2082 0.930 . S
H2077 C2086 0.930 . S
H2078 C2091 0.929 . S
H2079 C2089 0.929 . S
H2080 C2084 0.929 . S
H2081 C2090 0.929 . S
C2082 H2076 0.930 . S
C2082 C2083 1.367 . S
C2082 C2090 1.378 . S
C2083 C2082 1.367 . S
C2083 C2091 1.433 . S
C2084 H2080 0.929 . S
C2084 C2086 1.378 . S
C2084 C2088 1.350 . S
C2085 C2088 1.463 . S
C2085 C2090 1.350 . S
C2085 N2093 1.427 . S
C2086 H2077 0.930 . S
C2086 C2084 1.378 . S
C2086 C2087 1.367 . S
C2087 C2086 1.367 . S
C2087 C2089 1.433 . S
C2088 C2084 1.350 . S
C2088 C2085 1.463 . S
C2088 N2092 1.427 . S
C2089 H2079 0.929 . S
C2089 C2087 1.433 . S
C2089 N2092 1.384 . S
C2090 H2081 0.929 . S
C2090 C2082 1.378 . S
C2090 C2085 1.350 . S
C2091 H2078 0.929 . S
C2091 C2083 1.433 . S
C2091 N2093 1.384 . S
N2092 C2088 1.427 . S
N2092 C2089 1.384 . S
N2093 C2085 1.427 . S
N2093 C2091 1.384 . S
H2094 C2100 0.930 . S
H2095 C2104 0.930 . S
H2096 C2109 0.929 . S
H2097 C2107 0.929 . S
H2098 C2102 0.929 . S
H2099 C2108 0.929 . S
C2100 H2094 0.930 . S
C2100 C2101 1.367 . S
C2100 C2108 1.378 . S
C2101 C2100 1.367 . S
C2101 C2109 1.433 . S
C2102 H2098 0.929 . S
C2102 C2104 1.378 . S
C2102 C2106 1.350 . S
C2103 C2106 1.463 . S
C2103 C2108 1.350 . S
C2103 N2111 1.427 . S
C2104 H2095 0.930 . S
C2104 C2102 1.378 . S
C2104 C2105 1.367 . S
C2105 C2104 1.367 . S
C2105 C2107 1.433 . S
C2106 C2102 1.350 . S
C2106 C2103 1.463 . S
C2106 N2110 1.427 . S
C2107 H2097 0.929 . S
C2107 C2105 1.433 . S
C2107 N2110 1.384 . S
C2108 H2099 0.929 . S
C2108 C2100 1.378 . S
C2108 C2103 1.350 . S
C2109 H2096 0.929 . S
C2109 C2101 1.433 . S
C2109 N2111 1.384 . S
N2110 C2106 1.427 . S
N2110 C2107 1.384 . S
N2111 C2103 1.427 . S
N2111 C2109 1.384 . S
H2112 C2118 0.930 . S
H2113 C2122 0.930 . S
H2114 C2127 0.929 . S
H2115 C2125 0.929 . S
H2116 C2120 0.929 . S
H2117 C2126 0.929 . S
C2118 H2112 0.930 . S
C2118 C2119 1.367 . S
C2118 C2126 1.378 . S
C2119 C2118 1.367 . S
C2119 C2127 1.433 . S
C2120 H2116 0.929 . S
C2120 C2122 1.378 . S
C2120 C2124 1.350 . S
C2121 C2124 1.463 . S
C2121 C2126 1.350 . S
C2121 N2129 1.427 . S
C2122 H2113 0.930 . S
C2122 C2120 1.378 . S
C2122 C2123 1.367 . S
C2123 C2122 1.367 . S
C2123 C2125 1.433 . S
C2124 C2120 1.350 . S
C2124 C2121 1.463 . S
C2124 N2128 1.427 . S
C2125 H2115 0.929 . S
C2125 C2123 1.433 . S
C2125 N2128 1.384 . S
C2126 H2117 0.929 . S
C2126 C2118 1.378 . S
C2126 C2121 1.350 . S
C2127 H2114 0.929 . S
C2127 C2119 1.433 . S
C2127 N2129 1.384 . S
N2128 C2124 1.427 . S
N2128 C2125 1.384 . S
N2129 C2121 1.427 . S
N2129 C2127 1.384 . S
H2130 C2136 0.930 . S
H2131 C2140 0.930 . S
H2132 C2145 0.929 . S
H2133 C2143 0.929 . S
H2134 C2138 0.929 . S
H2135 C2144 0.929 . S
C2136 H2130 0.930 . S
C2136 C2137 1.367 . S
C2136 C2144 1.378 . S
C2137 C2136 1.367 . S
C2137 C2145 1.433 . S
C2138 H2134 0.929 . S
C2138 C2140 1.378 . S
C2138 C2142 1.350 . S
C2139 C2142 1.463 . S
C2139 C2144 1.350 . S
C2139 N2147 1.427 . S
C2140 H2131 0.930 . S
C2140 C2138 1.378 . S
C2140 C2141 1.367 . S
C2141 C2140 1.367 . S
C2141 C2143 1.433 . S
C2142 C2138 1.350 . S
C2142 C2139 1.463 . S
C2142 N2146 1.427 . S
C2143 H2133 0.929 . S
C2143 C2141 1.433 . S
C2143 N2146 1.384 . S
C2144 H2135 0.929 . S
C2144 C2136 1.378 . S
C2144 C2139 1.350 . S
C2145 H2132 0.929 . S
C2145 C2137 1.433 . S
C2145 N2147 1.384 . S
N2146 C2142 1.427 . S
N2146 C2143 1.384 . S
N2147 C2139 1.427 . S
N2147 C2145 1.384 . S
H2148 C2154 0.930 . S
H2149 C2158 0.930 . S
H2150 C2163 0.929 . S
H2151 C2161 0.929 . S
H2152 C2156 0.929 . S
H2153 C2162 0.929 . S
C2154 H2148 0.930 . S
C2154 C2155 1.367 . S
C2154 C2162 1.378 . S
C2155 C2154 1.367 . S
C2155 C2163 1.433 . S
C2156 H2152 0.929 . S
C2156 C2158 1.378 . S
C2156 C2160 1.350 . S
C2157 C2160 1.463 . S
C2157 C2162 1.350 . S
C2157 N2165 1.427 . S
C2158 H2149 0.930 . S
C2158 C2156 1.378 . S
C2158 C2159 1.367 . S
C2159 C2158 1.367 . S
C2159 C2161 1.433 . S
C2160 C2156 1.350 . S
C2160 C2157 1.463 . S
C2160 N2164 1.427 . S
C2161 H2151 0.929 . S
C2161 C2159 1.433 . S
C2161 N2164 1.384 . S
C2162 H2153 0.929 . S
C2162 C2154 1.378 . S
C2162 C2157 1.350 . S
C2163 H2150 0.929 . S
C2163 C2155 1.433 . S
C2163 N2165 1.384 . S
N2164 C2160 1.427 . S
N2164 C2161 1.384 . S
N2165 C2157 1.427 . S
N2165 C2163 1.384 . S
H2166 C2172 0.930 . S
H2167 C2176 0.930 . S
H2168 C2181 0.929 . S
H2169 C2179 0.929 . S
H2170 C2174 0.929 . S
H2171 C2180 0.929 . S
C2172 H2166 0.930 . S
C2172 C2173 1.367 . S
C2172 C2180 1.378 . S
C2173 C2172 1.367 . S
C2173 C2181 1.433 . S
C2174 H2170 0.929 . S
C2174 C2176 1.378 . S
C2174 C2178 1.350 . S
C2175 C2178 1.463 . S
C2175 C2180 1.350 . S
C2175 N2183 1.427 . S
C2176 H2167 0.930 . S
C2176 C2174 1.378 . S
C2176 C2177 1.367 . S
C2177 C2176 1.367 . S
C2177 C2179 1.433 . S
C2178 C2174 1.350 . S
C2178 C2175 1.463 . S
C2178 N2182 1.427 . S
C2179 H2169 0.929 . S
C2179 C2177 1.433 . S
C2179 N2182 1.384 . S
C2180 H2171 0.929 . S
C2180 C2172 1.378 . S
C2180 C2175 1.350 . S
C2181 H2168 0.929 . S
C2181 C2173 1.433 . S
C2181 N2183 1.384 . S
N2182 C2178 1.427 . S
N2182 C2179 1.384 . S
N2183 C2175 1.427 . S
N2183 C2181 1.384 . S
H2184 C2190 0.930 . S
H2185 C2194 0.930 . S
H2186 C2199 0.929 . S
H2187 C2197 0.929 . S
H2188 C2192 0.929 . S
H2189 C2198 0.929 . S
C2190 H2184 0.930 . S
C2190 C2191 1.367 . S
C2190 C2198 1.378 . S
C2191 C2190 1.367 . S
C2191 C2199 1.433 . S
C2192 H2188 0.929 . S
C2192 C2194 1.378 . S
C2192 C2196 1.350 . S
C2193 C2196 1.463 . S
C2193 C2198 1.350 . S
C2193 N2201 1.427 . S
C2194 H2185 0.930 . S
C2194 C2192 1.378 . S
C2194 C2195 1.367 . S
C2195 C2194 1.367 . S
C2195 C2197 1.433 . S
C2196 C2192 1.350 . S
C2196 C2193 1.463 . S
C2196 N2200 1.427 . S
C2197 H2187 0.929 . S
C2197 C2195 1.433 . S
C2197 N2200 1.384 . S
C2198 H2189 0.929 . S
C2198 C2190 1.378 . S
C2198 C2193 1.350 . S
C2199 H2186 0.929 . S
C2199 C2191 1.433 . S
C2199 N2201 1.384 . S
N2200 C2196 1.427 . S
N2200 C2197 1.384 . S
N2201 C2193 1.427 . S
N2201 C2199 1.384 . S
H2202 C2208 0.930 . S
H2203 C2212 0.930 . S
H2204 C2217 0.929 . S
H2205 C2215 0.929 . S
H2206 C2210 0.929 . S
H2207 C2216 0.929 . S
C2208 H2202 0.930 . S
C2208 C2209 1.367 . S
C2208 C2216 1.378 . S
C2209 C2208 1.367 . S
C2209 C2217 1.433 . S
C2210 H2206 0.929 . S
C2210 C2212 1.378 . S
C2210 C2214 1.350 . S
C2211 C2214 1.463 . S
C2211 C2216 1.350 . S
C2211 N2219 1.427 . S
C2212 H2203 0.930 . S
C2212 C2210 1.378 . S
C2212 C2213 1.367 . S
C2213 C2212 1.367 . S
C2213 C2215 1.433 . S
C2214 C2210 1.350 . S
C2214 C2211 1.463 . S
C2214 N2218 1.427 . S
C2215 H2205 0.929 . S
C2215 C2213 1.433 . S
C2215 N2218 1.384 . S
C2216 H2207 0.929 . S
C2216 C2208 1.378 . S
C2216 C2211 1.350 . S
C2217 H2204 0.929 . S
C2217 C2209 1.433 . S
C2217 N2219 1.384 . S
N2218 C2214 1.427 . S
N2218 C2215 1.384 . S
N2219 C2211 1.427 . S
N2219 C2217 1.384 . S
H2220 C2226 0.930 . S
H2221 C2230 0.930 . S
H2222 C2235 0.929 . S
H2223 C2233 0.929 . S
H2224 C2228 0.929 . S
H2225 C2234 0.929 . S
C2226 H2220 0.930 . S
C2226 C2227 1.367 . S
C2226 C2234 1.378 . S
C2227 C2226 1.367 . S
C2227 C2235 1.433 . S
C2228 H2224 0.929 . S
C2228 C2230 1.378 . S
C2228 C2232 1.350 . S
C2229 C2232 1.463 . S
C2229 C2234 1.350 . S
C2229 N2237 1.427 . S
C2230 H2221 0.930 . S
C2230 C2228 1.378 . S
C2230 C2231 1.367 . S
C2231 C2230 1.367 . S
C2231 C2233 1.433 . S
C2232 C2228 1.350 . S
C2232 C2229 1.463 . S
C2232 N2236 1.427 . S
C2233 H2223 0.929 . S
C2233 C2231 1.433 . S
C2233 N2236 1.384 . S
C2234 H2225 0.929 . S
C2234 C2226 1.378 . S
C2234 C2229 1.350 . S
C2235 H2222 0.929 . S
C2235 C2227 1.433 . S
C2235 N2237 1.384 . S
N2236 C2232 1.427 . S
N2236 C2233 1.384 . S
N2237 C2229 1.427 . S
N2237 C2235 1.384 . S
H2238 C2244 0.930 . S
H2239 C2248 0.930 . S
H2240 C2253 0.929 . S
H2241 C2251 0.929 . S
H2242 C2246 0.929 . S
H2243 C2252 0.929 . S
C2244 H2238 0.930 . S
C2244 C2245 1.367 . S
C2244 C2252 1.378 . S
C2245 C2244 1.367 . S
C2245 C2253 1.433 . S
C2246 H2242 0.929 . S
C2246 C2248 1.378 . S
C2246 C2250 1.350 . S
C2247 C2250 1.463 . S
C2247 C2252 1.350 . S
C2247 N2255 1.427 . S
C2248 H2239 0.930 . S
C2248 C2246 1.378 . S
C2248 C2249 1.367 . S
C2249 C2248 1.367 . S
C2249 C2251 1.433 . S
C2250 C2246 1.350 . S
C2250 C2247 1.463 . S
C2250 N2254 1.427 . S
C2251 H2241 0.929 . S
C2251 C2249 1.433 . S
C2251 N2254 1.384 . S
C2252 H2243 0.929 . S
C2252 C2244 1.378 . S
C2252 C2247 1.350 . S
C2253 H2240 0.929 . S
C2253 C2245 1.433 . S
C2253 N2255 1.384 . S
N2254 C2250 1.427 . S
N2254 C2251 1.384 . S
N2255 C2247 1.427 . S
N2255 C2253 1.384 . S
H2256 C2262 0.930 . S
H2257 C2266 0.930 . S
H2258 C2271 0.929 . S
H2259 C2269 0.929 . S
H2260 C2264 0.929 . S
H2261 C2270 0.929 . S
C2262 H2256 0.930 . S
C2262 C2263 1.367 . S
C2262 C2270 1.378 . S
C2263 C2262 1.367 . S
C2263 C2271 1.433 . S
C2264 H2260 0.929 . S
C2264 C2266 1.378 . S
C2264 C2268 1.350 . S
C2265 C2268 1.463 . S
C2265 C2270 1.350 . S
C2265 N2273 1.427 . S
C2266 H2257 0.930 . S
C2266 C2264 1.378 . S
C2266 C2267 1.367 . S
C2267 C2266 1.367 . S
C2267 C2269 1.433 . S
C2268 C2264 1.350 . S
C2268 C2265 1.463 . S
C2268 N2272 1.427 . S
C2269 H2259 0.929 . S
C2269 C2267 1.433 . S
C2269 N2272 1.384 . S
C2270 H2261 0.929 . S
C2270 C2262 1.378 . S
C2270 C2265 1.350 . S
C2271 H2258 0.929 . S
C2271 C2263 1.433 . S
C2271 N2273 1.384 . S
N2272 C2268 1.427 . S
N2272 C2269 1.384 . S
N2273 C2265 1.427 . S
N2273 C2271 1.384 . S
H2274 C2280 0.930 . S
H2275 C2284 0.930 . S
H2276 C2289 0.929 . S
H2277 C2287 0.929 . S
H2278 C2282 0.929 . S
H2279 C2288 0.929 . S
C2280 H2274 0.930 . S
C2280 C2281 1.367 . S
C2280 C2288 1.378 . S
C2281 C2280 1.367 . S
C2281 C2289 1.433 . S
C2282 H2278 0.929 . S
C2282 C2284 1.378 . S
C2282 C2286 1.350 . S
C2283 C2286 1.463 . S
C2283 C2288 1.350 . S
C2283 N2291 1.427 . S
C2284 H2275 0.930 . S
C2284 C2282 1.378 . S
C2284 C2285 1.367 . S
C2285 C2284 1.367 . S
C2285 C2287 1.433 . S
C2286 C2282 1.350 . S
C2286 C2283 1.463 . S
C2286 N2290 1.427 . S
C2287 H2277 0.929 . S
C2287 C2285 1.433 . S
C2287 N2290 1.384 . S
C2288 H2279 0.929 . S
C2288 C2280 1.378 . S
C2288 C2283 1.350 . S
C2289 H2276 0.929 . S
C2289 C2281 1.433 . S
C2289 N2291 1.384 . S
N2290 C2286 1.427 . S
N2290 C2287 1.384 . S
N2291 C2283 1.427 . S
N2291 C2289 1.384 . S
H2292 C2298 0.930 . S
H2293 C2302 0.930 . S
H2294 C2307 0.929 . S
H2295 C2305 0.929 . S
H2296 C2300 0.929 . S
H2297 C2306 0.929 . S
C2298 H2292 0.930 . S
C2298 C2299 1.367 . S
C2298 C2306 1.378 . S
C2299 C2298 1.367 . S
C2299 C2307 1.433 . S
C2300 H2296 0.929 . S
C2300 C2302 1.378 . S
C2300 C2304 1.350 . S
C2301 C2304 1.463 . S
C2301 C2306 1.350 . S
C2301 N2309 1.427 . S
C2302 H2293 0.930 . S
C2302 C2300 1.378 . S
C2302 C2303 1.367 . S
C2303 C2302 1.367 . S
C2303 C2305 1.433 . S
C2304 C2300 1.350 . S
C2304 C2301 1.463 . S
C2304 N2308 1.427 . S
C2305 H2295 0.929 . S
C2305 C2303 1.433 . S
C2305 N2308 1.384 . S
C2306 H2297 0.929 . S
C2306 C2298 1.378 . S
C2306 C2301 1.350 . S
C2307 H2294 0.929 . S
C2307 C2299 1.433 . S
C2307 N2309 1.384 . S
N2308 C2304 1.427 . S
N2308 C2305 1.384 . S
N2309 C2301 1.427 . S
N2309 C2307 1.384 . S
H2310 C2316 0.930 . S
H2311 C2320 0.930 . S
H2312 C2325 0.929 . S
H2313 C2323 0.929 . S
H2314 C2318 0.929 . S
H2315 C2324 0.929 . S
C2316 H2310 0.930 . S
C2316 C2317 1.367 . S
C2316 C2324 1.378 . S
C2317 C2316 1.367 . S
C2317 C2325 1.433 . S
C2318 H2314 0.929 . S
C2318 C2320 1.378 . S
C2318 C2322 1.350 . S
C2319 C2322 1.463 . S
C2319 C2324 1.350 . S
C2319 N2327 1.427 . S
C2320 H2311 0.930 . S
C2320 C2318 1.378 . S
C2320 C2321 1.367 . S
C2321 C2320 1.367 . S
C2321 C2323 1.433 . S
C2322 C2318 1.350 . S
C2322 C2319 1.463 . S
C2322 N2326 1.427 . S
C2323 H2313 0.929 . S
C2323 C2321 1.433 . S
C2323 N2326 1.384 . S
C2324 H2315 0.929 . S
C2324 C2316 1.378 . S
C2324 C2319 1.350 . S
C2325 H2312 0.929 . S
C2325 C2317 1.433 . S
C2325 N2327 1.384 . S
N2326 C2322 1.427 . S
N2326 C2323 1.384 . S
N2327 C2319 1.427 . S
N2327 C2325 1.384 . S
H2328 C2334 0.930 . S
H2329 C2338 0.930 . S
H2330 C2343 0.929 . S
H2331 C2341 0.929 . S
H2332 C2336 0.929 . S
H2333 C2342 0.929 . S
C2334 H2328 0.930 . S
C2334 C2335 1.367 . S
C2334 C2342 1.378 . S
C2335 C2334 1.367 . S
C2335 C2343 1.433 . S
C2336 H2332 0.929 . S
C2336 C2338 1.378 . S
C2336 C2340 1.350 . S
C2337 C2340 1.463 . S
C2337 C2342 1.350 . S
C2337 N2345 1.427 . S
C2338 H2329 0.930 . S
C2338 C2336 1.378 . S
C2338 C2339 1.367 . S
C2339 C2338 1.367 . S
C2339 C2341 1.433 . S
C2340 C2336 1.350 . S
C2340 C2337 1.463 . S
C2340 N2344 1.427 . S
C2341 H2331 0.929 . S
C2341 C2339 1.433 . S
C2341 N2344 1.384 . S
C2342 H2333 0.929 . S
C2342 C2334 1.378 . S
C2342 C2337 1.350 . S
C2343 H2330 0.929 . S
C2343 C2335 1.433 . S
C2343 N2345 1.384 . S
N2344 C2340 1.427 . S
N2344 C2341 1.384 . S
N2345 C2337 1.427 . S
N2345 C2343 1.384 . S
H2346 C2352 0.930 . S
H2347 C2356 0.930 . S
H2348 C2361 0.929 . S
H2349 C2359 0.929 . S
H2350 C2354 0.929 . S
H2351 C2360 0.929 . S
C2352 H2346 0.930 . S
C2352 C2353 1.367 . S
C2352 C2360 1.378 . S
C2353 C2352 1.367 . S
C2353 C2361 1.433 . S
C2354 H2350 0.929 . S
C2354 C2356 1.378 . S
C2354 C2358 1.350 . S
C2355 C2358 1.463 . S
C2355 C2360 1.350 . S
C2355 N2363 1.427 . S
C2356 H2347 0.930 . S
C2356 C2354 1.378 . S
C2356 C2357 1.367 . S
C2357 C2356 1.367 . S
C2357 C2359 1.433 . S
C2358 C2354 1.350 . S
C2358 C2355 1.463 . S
C2358 N2362 1.427 . S
C2359 H2349 0.929 . S
C2359 C2357 1.433 . S
C2359 N2362 1.384 . S
C2360 H2351 0.929 . S
C2360 C2352 1.378 . S
C2360 C2355 1.350 . S
C2361 H2348 0.929 . S
C2361 C2353 1.433 . S
C2361 N2363 1.384 . S
N2362 C2358 1.427 . S
N2362 C2359 1.384 . S
N2363 C2355 1.427 . S
N2363 C2361 1.384 . S
H2364 C2370 0.930 . S
H2365 C2374 0.930 . S
H2366 C2379 0.929 . S
H2367 C2377 0.929 . S
H2368 C2372 0.929 . S
H2369 C2378 0.929 . S
C2370 H2364 0.930 . S
C2370 C2371 1.367 . S
C2370 C2378 1.378 . S
C2371 C2370 1.367 . S
C2371 C2379 1.433 . S
C2372 H2368 0.929 . S
C2372 C2374 1.378 . S
C2372 C2376 1.350 . S
C2373 C2376 1.463 . S
C2373 C2378 1.350 . S
C2373 N2381 1.427 . S
C2374 H2365 0.930 . S
C2374 C2372 1.378 . S
C2374 C2375 1.367 . S
C2375 C2374 1.367 . S
C2375 C2377 1.433 . S
C2376 C2372 1.350 . S
C2376 C2373 1.463 . S
C2376 N2380 1.427 . S
C2377 H2367 0.929 . S
C2377 C2375 1.433 . S
C2377 N2380 1.384 . S
C2378 H2369 0.929 . S
C2378 C2370 1.378 . S
C2378 C2373 1.350 . S
C2379 H2366 0.929 . S
C2379 C2371 1.433 . S
C2379 N2381 1.384 . S
N2380 C2376 1.427 . S
N2380 C2377 1.384 . S
N2381 C2373 1.427 . S
N2381 C2379 1.384 . S
H2382 C2388 0.930 . S
H2383 C2392 0.930 . S
H2384 C2397 0.929 . S
H2385 C2395 0.929 . S
H2386 C2390 0.929 . S
H2387 C2396 0.929 . S
C2388 H2382 0.930 . S
C2388 C2389 1.367 . S
C2388 C2396 1.378 . S
C2389 C2388 1.367 . S
C2389 C2397 1.433 . S
C2390 H2386 0.929 . S
C2390 C2392 1.378 . S
C2390 C2394 1.350 . S
C2391 C2394 1.463 . S
C2391 C2396 1.350 . S
C2391 N2399 1.427 . S
C2392 H2383 0.930 . S
C2392 C2390 1.378 . S
C2392 C2393 1.367 . S
C2393 C2392 1.367 . S
C2393 C2395 1.433 . S
C2394 C2390 1.350 . S
C2394 C2391 1.463 . S
C2394 N2398 1.427 . S
C2395 H2385 0.929 . S
C2395 C2393 1.433 . S
C2395 N2398 1.384 . S
C2396 H2387 0.929 . S
C2396 C2388 1.378 . S
C2396 C2391 1.350 . S
C2397 H2384 0.929 . S
C2397 C2389 1.433 . S
C2397 N2399 1.384 . S
N2398 C2394 1.427 . S
N2398 C2395 1.384 . S
N2399 C2391 1.427 . S
N2399 C2397 1.384 . S
C679 C132 1.518 . S
C683 C6 1.527 . S
C697 C146 1.518 . S
C701 C20 1.526 . S
C715 C160 1.519 . S
C719 C34 1.529 . S
C733 C48 1.533 . S
C737 C118 1.528 . S
C751 C216 1.530 . S
C755 C62 1.520 . S
C769 C76 1.532 . S
C773 C174 1.521 . S
C787 C188 1.530 . S
C791 C90 1.532 . S
C805 C202 1.523 . S
C809 C104 1.533 . S
C823 C230 1.528 . S
C827 C258 1.518 . S
C841 C244 1.531 . S
C845 C314 1.520 . S
C859 C272 1.532 . S
C863 C328 1.522 . S
C877 C286 1.520 . S
C881 C300 1.520 . S
C895 C342 1.521 . S
C899 C468 1.532 . S
C913 C482 1.525 . S
C917 C356 1.518 . S
C931 C370 1.532 . S
C935 C496 1.521 . S
C949 C384 1.522 . S
C953 C454 1.519 . S
C967 C552 1.522 . S
C971 C398 1.533 . S
C985 C510 1.531 . S
C989 C412 1.521 . S
C1003 C524 1.533 . S
C1007 C426 1.523 . S
C1021 C538 1.533 . S
C1025 C440 1.523 . S
C1039 C566 1.522 . S
C1043 C594 1.532 . S
C1057 C580 1.532 . S
C1061 C650 1.522 . S
C1075 C608 1.525 . S
C1079 C664 1.533 . S
C1093 C636 1.528 . S
C1097 C622 1.533 . S
C1111 C121 1.357 . S
C1115 C8 1.462 . S
C1129 C135 1.356 . S
C1133 C22 1.461 . S
C1147 C36 1.462 . S
C1151 C149 1.358 . S
C1165 C50 1.463 . S
C1169 C163 1.373 . S
C1183 C64 1.463 . S
C1187 C177 1.375 . S
C1201 C78 1.463 . S
C1205 C191 1.375 . S
C1219 C92 1.461 . S
C1223 C205 1.365 . S
C1237 C219 1.357 . S
C1241 C106 1.462 . S
C1255 C120 1.462 . S
C1259 C233 1.357 . S
C1273 C331 1.376 . S
C1277 C134 1.462 . S
C1291 C148 1.462 . S
C1295 C303 1.375 . S
C1309 C162 1.463 . S
C1313 C317 1.374 . S
C1327 C176 1.461 . S
C1331 C247 1.372 . S
C1345 C190 1.460 . S
C1349 C261 1.361 . S
C1363 C204 1.462 . S
C1367 C275 1.358 . S
C1381 C289 1.376 . S
C1385 C218 1.463 . S
C1399 C9 1.360 . S
C1403 C232 1.463 . S
C1417 C246 1.462 . S
C1421 C65 1.357 . S
C1435 C260 1.463 . S
C1439 C79 1.364 . S
C1453 C274 1.463 . S
C1457 C93 1.376 . S
C1471 C107 1.357 . S
C1475 C288 1.461 . S
C1489 C302 1.462 . S
C1493 C37 1.374 . S
C1507 C316 1.462 . S
C1511 C51 1.356 . S
C1525 C23 1.356 . S
C1529 C330 1.461 . S
C1543 C457 1.374 . S
C1547 C344 1.462 . S
C1561 C358 1.462 . S
C1565 C471 1.375 . S
C1579 C372 1.463 . S
C1583 C485 1.373 . S
C1597 C499 1.368 . S
C1601 C386 1.463 . S
C1615 C513 1.360 . S
C1619 C400 1.462 . S
C1633 C414 1.460 . S
C1637 C527 1.359 . S
C1651 C541 1.371 . S
C1655 C428 1.461 . S
C1669 C555 1.371 . S
C1673 C442 1.461 . S
C1687 C456 1.463 . S
C1691 C569 1.362 . S
C1705 C470 1.463 . S
C1709 C667 1.374 . S
C1723 C484 1.463 . S
C1727 C639 1.376 . S
C1741 C653 1.360 . S
C1745 C498 1.462 . S
C1759 C512 1.462 . S
C1763 C583 1.357 . S
C1777 C526 1.461 . S
C1781 C597 1.372 . S
C1795 C611 1.357 . S
C1799 C540 1.462 . S
C1813 C625 1.370 . S
C1817 C554 1.463 . S
C1831 C568 1.463 . S
C1835 C345 1.365 . S
C1849 C582 1.463 . S
C1853 C401 1.375 . S
C1867 C415 1.356 . S
C1871 C596 1.461 . S
C1885 C610 1.461 . S
C1889 C429 1.371 . S
C1903 C624 1.461 . S
C1907 C443 1.372 . S
C1921 C373 1.371 . S
C1925 C638 1.461 . S
C1939 C652 1.461 . S
C1943 C387 1.356 . S
C1957 C359 1.376 . S
C1961 C666 1.462 . S
C1975 C441 1.647 . S
C1979 C7 1.633 . S
C1993 C21 1.628 . S
C1997 C399 1.641 . S
C2011 C413 1.639 . S
C2015 C35 1.644 . S
C2029 C427 1.629 . S
C2033 C49 1.647 . S
C2047 C63 1.647 . S
C2051 C357 1.635 . S
C2065 C371 1.629 . S
C2069 C77 1.647 . S
C2083 C385 1.642 . S
C2087 C91 1.642 . S
C2101 C105 1.636 . S
C2105 C343 1.646 . S
C2119 C623 1.634 . S
C2123 C119 1.631 . S
C2137 C133 1.627 . S
C2141 C581 1.644 . S
C2155 C147 1.628 . S
C2159 C595 1.647 . S
C2173 C609 1.647 . S
C2177 C161 1.632 . S
C2191 C665 1.640 . S
C2195 C175 1.628 . S
C2209 C637 1.648 . S
C2213 C189 1.632 . S
C2227 C203 1.627 . S
C2231 C651 1.645 . S
C2245 C567 1.640 . S
C2249 C217 1.628 . S
C2263 C231 1.630 . S
C2267 C553 1.636 . S
C2281 C469 1.634 . S
C2285 C245 1.632 . S
C2299 C259 1.628 . S
C2303 C483 1.641 . S
C2317 C497 1.647 . S
C2321 C273 1.629 . S
C2335 C455 1.638 . S
C2339 C287 1.629 . S
C2353 C301 1.630 . S
C2357 C525 1.647 . S
C2371 C539 1.627 . S
C2375 C315 1.642 . S
C2389 C511 1.640 . S
C2393 C329 1.628 . S
