# Generated by pormake.
# Topology wiq, (6)-cn, num edge types: 1
# Building blocks:
#     Node 0, Type 0, BuildingBlock: MAKGUD_clean_sbu_1, # of connection points: 6
#     Node 1, Type 0, BuildingBlock: MAKGUD_clean_sbu_1, # of connection points: 6
#     Node 2, Type 0, BuildingBlock: MAKGUD_clean_sbu_1, # of connection points: 6
#     Node 3, Type 0, BuildingBlock: MAKGUD_clean_sbu_1, # of connection points: 6
#     Node 4, Type 0, BuildingBlock: MAKGUD_clean_sbu_1, # of connection points: 6
#     Node 5, Type 0, BuildingBlock: MAKGUD_clean_sbu_1, # of connection points: 6
#     Node 6, Type 0, BuildingBlock: MAKGUD_clean_sbu_1, # of connection points: 6
#     Node 7, Type 0, BuildingBlock: MAKGUD_clean_sbu_1, # of connection points: 6
#     Node 8, Type 0, BuildingBlock: MAKGUD_clean_sbu_1, # of connection points: 6
#     Node 9, Type 0, BuildingBlock: MAKGUD_clean_sbu_1, # of connection points: 6
#     Node 10, Type 0, BuildingBlock: MAKGUD_clean_sbu_1, # of connection points: 6
#     Node 11, Type 0, BuildingBlock: MAKGUD_clean_sbu_1, # of connection points: 6
#     Node 12, Type 0, BuildingBlock: MAKGUD_clean_sbu_1, # of connection points: 6
#     Node 13, Type 0, BuildingBlock: MAKGUD_clean_sbu_1, # of connection points: 6
#     Node 14, Type 0, BuildingBlock: MAKGUD_clean_sbu_1, # of connection points: 6
#     Node 15, Type 0, BuildingBlock: MAKGUD_clean_sbu_1, # of connection points: 6
#     Node 16, Type 0, BuildingBlock: MAKGUD_clean_sbu_1, # of connection points: 6
#     Node 17, Type 0, BuildingBlock: MAKGUD_clean_sbu_1, # of connection points: 6
#     Node 18, Type 0, BuildingBlock: MAKGUD_clean_sbu_1, # of connection points: 6
#     Node 19, Type 0, BuildingBlock: MAKGUD_clean_sbu_1, # of connection points: 6
#     Node 20, Type 0, BuildingBlock: MAKGUD_clean_sbu_1, # of connection points: 6
#     Node 21, Type 0, BuildingBlock: MAKGUD_clean_sbu_1, # of connection points: 6
#     Node 22, Type 0, BuildingBlock: MAKGUD_clean_sbu_1, # of connection points: 6
#     Node 23, Type 0, BuildingBlock: MAKGUD_clean_sbu_1, # of connection points: 6
#     Node 24, Type 0, BuildingBlock: MAKGUD_clean_sbu_1, # of connection points: 6
#     Node 25, Type 0, BuildingBlock: MAKGUD_clean_sbu_1, # of connection points: 6
#     Node 26, Type 0, BuildingBlock: MAKGUD_clean_sbu_1, # of connection points: 6
#     Node 27, Type 0, BuildingBlock: MAKGUD_clean_sbu_1, # of connection points: 6
#     Node 28, Type 0, BuildingBlock: MAKGUD_clean_sbu_1, # of connection points: 6
#     Node 29, Type 0, BuildingBlock: MAKGUD_clean_sbu_1, # of connection points: 6
#     Node 30, Type 0, BuildingBlock: MAKGUD_clean_sbu_1, # of connection points: 6
#     Node 31, Type 0, BuildingBlock: MAKGUD_clean_sbu_1, # of connection points: 6
#     Edge 32, Type (0, 0), BuildingBlock: XIVTED_clean_linker_0, # of connection points: 2
#     Edge 33, Type (0, 0), BuildingBlock: XIVTED_clean_linker_0, # of connection points: 2
#     Edge 34, Type (0, 0), BuildingBlock: XIVTED_clean_linker_0, # of connection points: 2
#     Edge 35, Type (0, 0), BuildingBlock: XIVTED_clean_linker_0, # of connection points: 2
#     Edge 36, Type (0, 0), BuildingBlock: XIVTED_clean_linker_0, # of connection points: 2
#     Edge 37, Type (0, 0), BuildingBlock: XIVTED_clean_linker_0, # of connection points: 2
#     Edge 38, Type (0, 0), BuildingBlock: XIVTED_clean_linker_0, # of connection points: 2
#     Edge 39, Type (0, 0), BuildingBlock: XIVTED_clean_linker_0, # of connection points: 2
#     Edge 40, Type (0, 0), BuildingBlock: XIVTED_clean_linker_0, # of connection points: 2
#     Edge 41, Type (0, 0), BuildingBlock: XIVTED_clean_linker_0, # of connection points: 2
#     Edge 42, Type (0, 0), BuildingBlock: XIVTED_clean_linker_0, # of connection points: 2
#     Edge 43, Type (0, 0), BuildingBlock: XIVTED_clean_linker_0, # of connection points: 2
#     Edge 44, Type (0, 0), BuildingBlock: XIVTED_clean_linker_0, # of connection points: 2
#     Edge 45, Type (0, 0), BuildingBlock: XIVTED_clean_linker_0, # of connection points: 2
#     Edge 46, Type (0, 0), BuildingBlock: XIVTED_clean_linker_0, # of connection points: 2
#     Edge 47, Type (0, 0), BuildingBlock: XIVTED_clean_linker_0, # of connection points: 2
#     Edge 48, Type (0, 0), BuildingBlock: XIVTED_clean_linker_0, # of connection points: 2
#     Edge 49, Type (0, 0), BuildingBlock: XIVTED_clean_linker_0, # of connection points: 2
#     Edge 50, Type (0, 0), BuildingBlock: XIVTED_clean_linker_0, # of connection points: 2
#     Edge 51, Type (0, 0), BuildingBlock: XIVTED_clean_linker_0, # of connection points: 2
#     Edge 52, Type (0, 0), BuildingBlock: XIVTED_clean_linker_0, # of connection points: 2
#     Edge 53, Type (0, 0), BuildingBlock: XIVTED_clean_linker_0, # of connection points: 2
#     Edge 54, Type (0, 0), BuildingBlock: XIVTED_clean_linker_0, # of connection points: 2
#     Edge 55, Type (0, 0), BuildingBlock: XIVTED_clean_linker_0, # of connection points: 2
#     Edge 56, Type (0, 0), BuildingBlock: XIVTED_clean_linker_0, # of connection points: 2
#     Edge 57, Type (0, 0), BuildingBlock: XIVTED_clean_linker_0, # of connection points: 2
#     Edge 58, Type (0, 0), BuildingBlock: XIVTED_clean_linker_0, # of connection points: 2
#     Edge 59, Type (0, 0), BuildingBlock: XIVTED_clean_linker_0, # of connection points: 2
#     Edge 60, Type (0, 0), BuildingBlock: XIVTED_clean_linker_0, # of connection points: 2
#     Edge 61, Type (0, 0), BuildingBlock: XIVTED_clean_linker_0, # of connection points: 2
#     Edge 62, Type (0, 0), BuildingBlock: XIVTED_clean_linker_0, # of connection points: 2
#     Edge 63, Type (0, 0), BuildingBlock: XIVTED_clean_linker_0, # of connection points: 2
#     Edge 64, Type (0, 0), BuildingBlock: XIVTED_clean_linker_0, # of connection points: 2
#     Edge 65, Type (0, 0), BuildingBlock: XIVTED_clean_linker_0, # of connection points: 2
#     Edge 66, Type (0, 0), BuildingBlock: XIVTED_clean_linker_0, # of connection points: 2
#     Edge 67, Type (0, 0), BuildingBlock: XIVTED_clean_linker_0, # of connection points: 2
#     Edge 68, Type (0, 0), BuildingBlock: XIVTED_clean_linker_0, # of connection points: 2
#     Edge 69, Type (0, 0), BuildingBlock: XIVTED_clean_linker_0, # of connection points: 2
#     Edge 70, Type (0, 0), BuildingBlock: XIVTED_clean_linker_0, # of connection points: 2
#     Edge 71, Type (0, 0), BuildingBlock: XIVTED_clean_linker_0, # of connection points: 2
#     Edge 72, Type (0, 0), BuildingBlock: XIVTED_clean_linker_0, # of connection points: 2
#     Edge 73, Type (0, 0), BuildingBlock: XIVTED_clean_linker_0, # of connection points: 2
#     Edge 74, Type (0, 0), BuildingBlock: XIVTED_clean_linker_0, # of connection points: 2
#     Edge 75, Type (0, 0), BuildingBlock: XIVTED_clean_linker_0, # of connection points: 2
#     Edge 76, Type (0, 0), BuildingBlock: XIVTED_clean_linker_0, # of connection points: 2
#     Edge 77, Type (0, 0), BuildingBlock: XIVTED_clean_linker_0, # of connection points: 2
#     Edge 78, Type (0, 0), BuildingBlock: XIVTED_clean_linker_0, # of connection points: 2
#     Edge 79, Type (0, 0), BuildingBlock: XIVTED_clean_linker_0, # of connection points: 2
#     Edge 80, Type (0, 0), BuildingBlock: XIVTED_clean_linker_0, # of connection points: 2
#     Edge 81, Type (0, 0), BuildingBlock: XIVTED_clean_linker_0, # of connection points: 2
#     Edge 82, Type (0, 0), BuildingBlock: XIVTED_clean_linker_0, # of connection points: 2
#     Edge 83, Type (0, 0), BuildingBlock: XIVTED_clean_linker_0, # of connection points: 2
#     Edge 84, Type (0, 0), BuildingBlock: XIVTED_clean_linker_0, # of connection points: 2
#     Edge 85, Type (0, 0), BuildingBlock: XIVTED_clean_linker_0, # of connection points: 2
#     Edge 86, Type (0, 0), BuildingBlock: XIVTED_clean_linker_0, # of connection points: 2
#     Edge 87, Type (0, 0), BuildingBlock: XIVTED_clean_linker_0, # of connection points: 2
#     Edge 88, Type (0, 0), BuildingBlock: XIVTED_clean_linker_0, # of connection points: 2
#     Edge 89, Type (0, 0), BuildingBlock: XIVTED_clean_linker_0, # of connection points: 2
#     Edge 90, Type (0, 0), BuildingBlock: XIVTED_clean_linker_0, # of connection points: 2
#     Edge 91, Type (0, 0), BuildingBlock: XIVTED_clean_linker_0, # of connection points: 2
#     Edge 92, Type (0, 0), BuildingBlock: XIVTED_clean_linker_0, # of connection points: 2
#     Edge 93, Type (0, 0), BuildingBlock: XIVTED_clean_linker_0, # of connection points: 2
#     Edge 94, Type (0, 0), BuildingBlock: XIVTED_clean_linker_0, # of connection points: 2
#     Edge 95, Type (0, 0), BuildingBlock: XIVTED_clean_linker_0, # of connection points: 2
#     Edge 96, Type (0, 0), BuildingBlock: XIVTED_clean_linker_0, # of connection points: 2
#     Edge 97, Type (0, 0), BuildingBlock: XIVTED_clean_linker_0, # of connection points: 2
#     Edge 98, Type (0, 0), BuildingBlock: XIVTED_clean_linker_0, # of connection points: 2
#     Edge 99, Type (0, 0), BuildingBlock: XIVTED_clean_linker_0, # of connection points: 2
#     Edge 100, Type (0, 0), BuildingBlock: XIVTED_clean_linker_0, # of connection points: 2
#     Edge 101, Type (0, 0), BuildingBlock: XIVTED_clean_linker_0, # of connection points: 2
#     Edge 102, Type (0, 0), BuildingBlock: XIVTED_clean_linker_0, # of connection points: 2
#     Edge 103, Type (0, 0), BuildingBlock: XIVTED_clean_linker_0, # of connection points: 2
#     Edge 104, Type (0, 0), BuildingBlock: XIVTED_clean_linker_0, # of connection points: 2
#     Edge 105, Type (0, 0), BuildingBlock: XIVTED_clean_linker_0, # of connection points: 2
#     Edge 106, Type (0, 0), BuildingBlock: XIVTED_clean_linker_0, # of connection points: 2
#     Edge 107, Type (0, 0), BuildingBlock: XIVTED_clean_linker_0, # of connection points: 2
#     Edge 108, Type (0, 0), BuildingBlock: XIVTED_clean_linker_0, # of connection points: 2
#     Edge 109, Type (0, 0), BuildingBlock: XIVTED_clean_linker_0, # of connection points: 2
#     Edge 110, Type (0, 0), BuildingBlock: XIVTED_clean_linker_0, # of connection points: 2
#     Edge 111, Type (0, 0), BuildingBlock: XIVTED_clean_linker_0, # of connection points: 2
#     Edge 112, Type (0, 0), BuildingBlock: XIVTED_clean_linker_0, # of connection points: 2
#     Edge 113, Type (0, 0), BuildingBlock: XIVTED_clean_linker_0, # of connection points: 2
#     Edge 114, Type (0, 0), BuildingBlock: XIVTED_clean_linker_0, # of connection points: 2
#     Edge 115, Type (0, 0), BuildingBlock: XIVTED_clean_linker_0, # of connection points: 2
#     Edge 116, Type (0, 0), BuildingBlock: XIVTED_clean_linker_0, # of connection points: 2
#     Edge 117, Type (0, 0), BuildingBlock: XIVTED_clean_linker_0, # of connection points: 2
#     Edge 118, Type (0, 0), BuildingBlock: XIVTED_clean_linker_0, # of connection points: 2
#     Edge 119, Type (0, 0), BuildingBlock: XIVTED_clean_linker_0, # of connection points: 2
#     Edge 120, Type (0, 0), BuildingBlock: XIVTED_clean_linker_0, # of connection points: 2
#     Edge 121, Type (0, 0), BuildingBlock: XIVTED_clean_linker_0, # of connection points: 2
#     Edge 122, Type (0, 0), BuildingBlock: XIVTED_clean_linker_0, # of connection points: 2
#     Edge 123, Type (0, 0), BuildingBlock: XIVTED_clean_linker_0, # of connection points: 2
#     Edge 124, Type (0, 0), BuildingBlock: XIVTED_clean_linker_0, # of connection points: 2
#     Edge 125, Type (0, 0), BuildingBlock: XIVTED_clean_linker_0, # of connection points: 2
#     Edge 126, Type (0, 0), BuildingBlock: XIVTED_clean_linker_0, # of connection points: 2
#     Edge 127, Type (0, 0), BuildingBlock: XIVTED_clean_linker_0, # of connection points: 2
# Relax obj value: 0.262
# Max RMSD: 0.259
# Mean RMSD: 0.259
data_MOF--net-wiq--node1-MAKGUD_clean_sbu_1--edge1-XIVTED_clean_linker_0
_symmetry_space_group_name_H-M    P1
_symmetry_Int_Tables_number       1
_symmetry_cell_setting            triclinic
loop_
_symmetry_equiv_pos_as_xyz
'x, y, z'
_cell_length_a     53.489597
_cell_length_b     53.647699
_cell_length_c     55.888899
_cell_angle_alpha  89.880614
_cell_angle_beta   89.834974
_cell_angle_gamma 89.827833
loop_
_atom_site_label
_atom_site_type_symbol
_atom_site_fract_x
_atom_site_fract_y
_atom_site_fract_z
_atom_type_partial_charge
O0 O 0.16623 0.25994 0.36785 0.0
Tb1 Tb 0.15756 0.22092 0.36034 0.0
C2 C 0.14449 0.16745 0.36981 0.0
O3 O 0.20422 0.18478 0.32725 0.0
Tb4 Tb 0.1748 0.1566 0.32377 0.0
C5 C 0.19271 0.11015 0.32061 0.0
O6 O 0.17734 0.21787 0.32667 0.0
O7 O 0.15302 0.16386 0.29167 0.0
C8 C 0.16365 0.1735 0.27252 0.0
O9 O 0.18686 0.18128 0.27393 0.0
O10 O 0.1624 0.18351 0.37374 0.0
O11 O 0.1439 0.15555 0.3493 0.0
O12 O 0.11776 0.22541 0.35599 0.0
C13 C 0.20023 0.20908 0.3264 0.0
C14 C 0.17226 0.25675 0.39018 0.0
O15 O 0.18728 0.12456 0.30262 0.0
O16 O 0.18865 0.1222 0.34045 0.0
C17 C 0.1094 0.24142 0.3401 0.0
O18 O 0.12533 0.25196 0.3253 0.0
O19 O 0.17091 0.23314 0.39541 0.0
O20 O 0.16635 0.9347 0.58979 0.0
Tb21 Tb 0.13118 0.92084 0.57453 0.0
C22 C 0.0802 0.94873 0.57427 0.0
O23 O 0.10574 0.90779 0.62724 0.0
Tb24 Tb 0.07113 0.90522 0.60735 0.0
C25 C 0.03108 0.91329 0.63492 0.0
O26 O 0.13246 0.89017 0.60036 0.0
O27 O 0.07129 0.86537 0.6021 0.0
C28 C 0.06964 0.85166 0.62152 0.0
O29 O 0.07133 0.86279 0.64237 0.0
O30 O 0.10434 0.95166 0.57802 0.0
O31 O 0.07065 0.92632 0.57446 0.0
O32 O 0.12235 0.90001 0.54222 0.0
C33 C 0.12404 0.89225 0.62242 0.0
C34 C 0.17822 0.93712 0.56956 0.0
O35 O 0.03166 0.89972 0.61571 0.0
O36 O 0.05306 0.92303 0.63831 0.0
C37 C 0.11384 0.91174 0.52318 0.0
O38 O 0.10799 0.93546 0.52496 0.0
O39 O 0.16335 0.93093 0.55223 0.0
O40 O 0.35845 0.91672 0.84329 0.0
Tb41 Tb 0.37206 0.88235 0.82632 0.0
C42 C 0.34533 0.83004 0.83066 0.0
O43 O 0.38655 0.86077 0.87802 0.0
Tb44 Tb 0.39126 0.82389 0.86315 0.0
C45 C 0.3867 0.78996 0.8978 0.0
O46 O 0.40433 0.8852 0.84986 0.0
O47 O 0.42556 0.81448 0.8447 0.0
C48 C 0.4476 0.82005 0.85337 0.0
O49 O 0.44926 0.83524 0.87168 0.0
O50 O 0.34243 0.85451 0.83194 0.0
O51 O 0.36751 0.81968 0.83217 0.0
O52 O 0.392 0.8746 0.79315 0.0
C53 C 0.40302 0.8777 0.87218 0.0
C54 C 0.35393 0.92889 0.82361 0.0
O55 O 0.40418 0.80664 0.89628 0.0
O56 O 0.37143 0.79246 0.8798 0.0
C57 C 0.3802 0.8655 0.77449 0.0
O58 O 0.35687 0.85835 0.77699 0.0
O59 O 0.35893 0.91452 0.80549 0.0
O60 O 0.37659 0.10666 0.09419 0.0
Tb61 Tb 0.41171 0.12061 0.07873 0.0
C62 C 0.46286 0.09176 0.07953 0.0
O63 O 0.43426 0.13839 0.13141 0.0
Tb64 Tb 0.46811 0.13861 0.1101 0.0
C65 C 0.50752 0.13867 0.13937 0.0
O66 O 0.40806 0.15273 0.10257 0.0
O67 O 0.46889 0.17378 0.09114 0.0
C68 C 0.46481 0.19476 0.10258 0.0
O69 O 0.45516 0.194 0.1242 0.0
O70 O 0.43858 0.08977 0.0835 0.0
O71 O 0.47389 0.11347 0.08057 0.0
O72 O 0.42112 0.14083 1.04615 0.0
C73 C 0.41499 0.15194 0.12509 0.0
C74 C 0.3649 0.10364 0.07402 0.0
O75 O 0.49177 0.12035 0.1372 0.0
O76 O 0.5011 0.15657 0.12501 0.0
C77 C 0.42917 0.12884 1.02709 0.0
O78 O 0.43433 0.10496 1.02891 0.0
O79 O 0.37986 0.10954 1.05654 0.0
O80 O 0.18493 0.91261 0.28969 0.0
Tb81 Tb 0.1701 0.87847 0.30614 0.0
C82 C 0.19778 0.82757 0.30742 0.0
O83 O 0.1572 0.85346 0.25353 0.0
Tb84 Tb 0.15495 0.81884 0.27346 0.0
C85 C 0.16345 0.779 0.24601 0.0
O86 O 0.13922 0.87966 0.28056 0.0
O87 O 0.11497 0.81864 0.27855 0.0
C88 C 0.1014 0.81704 0.2591 0.0
O89 O 0.11268 0.81918 0.23828 0.0
O90 O 0.20087 0.85156 0.30332 0.0
O91 O 0.17535 0.81799 0.30669 0.0
O92 O 0.14942 0.87071 0.33897 0.0
C93 C 0.14145 0.87152 0.25845 0.0
C94 C 0.18757 0.92499 0.30952 0.0
O95 O 0.17353 0.80085 0.24285 0.0
O96 O 0.1493 0.77961 0.26491 0.0
C97 C 0.16124 0.86233 0.35802 0.0
O98 O 0.18492 0.85608 0.35603 0.0
O99 O 0.18078 0.91098 0.32735 0.0
O100 O 0.3783 0.93603 0.53911 0.0
Tb101 Tb 0.41184 0.92041 0.55618 0.0
C102 C 0.46256 0.94868 0.55761 0.0
O103 O 0.43843 0.90354 0.50449 0.0
Tb104 Tb 0.47164 0.90323 0.52658 0.0
C105 C 0.51237 0.90853 0.49926 0.0
O106 O 0.41087 0.88843 0.532 0.0
O107 O 0.47091 0.86445 0.53699 0.0
C108 C 0.47469 0.84787 0.52012 0.0
O109 O 0.47484 0.85543 0.49774 0.0
O110 O 0.43853 0.95132 0.55295 0.0
O111 O 0.47256 0.92642 0.55805 0.0
O112 O 0.41999 0.90128 0.58968 0.0
C113 C 0.4194 0.88925 0.50991 0.0
C114 C 0.36463 0.93702 0.5584 0.0
O115 O 0.51055 0.89438 0.51804 0.0
O116 O 0.4913 0.9203 0.49611 0.0
C117 C 0.42723 0.91391 0.60859 0.0
O118 O 0.43217 0.93776 0.60624 0.0
O119 O 0.3778 0.92922 0.57644 0.0
O120 O 0.35914 0.12683 0.79369 0.0
Tb121 Tb 0.37403 0.16089 0.81002 0.0
C122 C 0.34772 0.21374 0.80699 0.0
O123 O 0.38758 0.18282 0.7587 0.0
Tb124 Tb 0.39402 0.2189 0.77459 0.0
C125 C 0.3906 0.25344 0.74045 0.0
O126 O 0.40555 0.15701 0.78542 0.0
O127 O 0.42862 0.22623 0.7932 0.0
C128 C 0.45047 0.22041 0.78404 0.0
O129 O 0.45158 0.2062 0.76496 0.0
O130 O 0.34458 0.18933 0.80522 0.0
O131 O 0.37 0.22375 0.80543 0.0
O132 O 0.39492 0.16852 0.84252 0.0
C133 C 0.40372 0.16515 0.76336 0.0
C134 C 0.35524 0.11476 0.81357 0.0
O135 O 0.40756 0.23612 0.74165 0.0
O136 O 0.37529 0.25134 0.75852 0.0
C137 C 0.38358 0.17758 0.86155 0.0
O138 O 0.36016 0.18478 0.85974 0.0
O139 O 0.36123 0.12902 0.83143 0.0
O140 O 0.03718 0.15005 1.01133 0.0
Tb141 Tb 0.07418 0.13729 1.02232 0.0
C142 C 0.12715 0.15096 1.00912 0.0
O143 O 0.10448 0.08909 1.05096 0.0
Tb144 Tb 0.13143 0.11954 1.05551 0.0
C145 C 0.17856 0.1029 1.0592 0.0
O146 O 0.06998 0.114 1.05361 0.0
O147 O 0.1227 0.13942 0.0884 0.0
C148 C 0.11473 0.12729 0.10742 0.0
O149 O 0.10925 0.10353 0.10543 0.0
O150 O 0.10884 0.13652 1.00219 0.0
O151 O 0.13319 0.15195 1.03188 0.0
O152 O 0.07652 0.17574 1.03346 0.0
C153 C 0.08022 0.09184 1.05451 0.0
C154 C 0.03455 0.13495 0.99341 0.0
O155 O 0.16365 0.10784 0.07699 0.0
O156 O 0.16663 0.10668 1.03923 0.0
C157 C 0.06167 0.18394 1.05048 0.0
O158 O 0.04913 0.16768 1.06336 0.0
O159 O 0.05425 0.12068 0.99185 0.0
O160 O 0.85846 0.91251 0.78917 0.0
Tb161 Tb 0.87306 0.87842 0.80601 0.0
C162 C 0.84545 0.82713 0.80695 0.0
O163 O 0.88835 0.85389 0.75353 0.0
Tb164 Tb 0.89061 0.82017 0.77473 0.0
C165 C 0.88766 0.78021 0.74642 0.0
O166 O 0.90454 0.88042 0.78103 0.0
O167 O 0.92945 0.82298 0.78473 0.0
C168 C 0.93806 0.80861 0.8019 0.0
O169 O 0.92201 0.79684 0.81569 0.0
O170 O 0.84264 0.85118 0.80257 0.0
O171 O 0.86771 0.817 0.80639 0.0
O172 O 0.89346 0.87066 0.83891 0.0
C173 C 0.90284 0.87274 0.75876 0.0
C174 C 0.85544 0.92515 0.80882 0.0
O175 O 0.87355 0.79997 0.74473 0.0
O176 O 0.90288 0.78289 0.76426 0.0
C177 C 0.88166 0.86213 0.85793 0.0
O178 O 0.85807 0.85571 0.85594 0.0
O179 O 0.86176 0.91118 0.82686 0.0
O180 O 0.8795 0.1095 0.53953 0.0
Tb181 Tb 0.91368 0.1248 0.55547 0.0
C182 C 0.96574 0.09653 0.55396 0.0
O183 O 0.93486 0.14038 0.50276 0.0
Tb184 Tb 0.96945 0.14359 0.52235 0.0
C185 C 1.00692 0.14626 0.49082 0.0
O186 O 0.9095 0.15652 0.53119 0.0
O187 O 0.9726 0.17607 0.54505 0.0
C188 C 0.96636 0.19835 0.53734 0.0
O189 O 0.95316 0.20046 0.51766 0.0
O190 O 0.94127 0.09445 0.55108 0.0
O191 O 0.97725 0.11786 0.55105 0.0
O192 O 0.92199 0.14478 0.58834 0.0
C193 C 0.91601 0.15467 0.50861 0.0
C194 C 0.86716 0.10669 0.55945 0.0
O195 O 0.99568 0.16513 0.50067 0.0
O196 O 0.99711 0.12563 0.49879 0.0
C197 C 0.93027 0.13268 0.60725 0.0
O198 O 0.93645 0.10907 0.60503 0.0
O199 O 0.88134 0.11343 0.57712 0.0
O200 O 0.68515 0.12634 0.29077 0.0
Tb201 Tb 0.67132 0.16091 0.30724 0.0
C202 C 0.69816 0.21205 0.30811 0.0
O203 O 0.65765 0.18773 0.25558 0.0
Tb204 Tb 0.65494 0.22242 0.27517 0.0
C205 C 0.66517 0.26205 0.24788 0.0
O206 O 0.64023 0.16039 0.28193 0.0
O207 O 0.61486 0.22396 0.27958 0.0
C208 C 0.60185 0.22765 0.26001 0.0
O209 O 0.61362 0.22679 0.23936 0.0
O210 O 0.70174 0.18807 0.30419 0.0
O211 O 0.67539 0.221 0.30834 0.0
O212 O 0.65037 0.16868 0.33984 0.0
C213 C 0.64172 0.16982 0.26021 0.0
C214 C 0.6882 0.11402 0.31065 0.0
O215 O 0.67309 0.23946 0.24386 0.0
O216 O 0.65233 0.26229 0.26764 0.0
C217 C 0.66199 0.17698 0.35895 0.0
O218 O 0.68567 0.18317 0.35714 0.0
O219 O 0.68231 0.12836 0.32852 0.0
O220 O 0.66433 0.93333 1.04049 0.0
Tb221 Tb 0.63088 0.91721 1.05738 0.0
C222 C 0.57979 0.94564 1.05925 0.0
O223 O 0.60477 0.90264 1.0061 0.0
Tb224 Tb 0.57069 0.90146 1.02694 0.0
C225 C 0.53152 0.90899 0.99825 0.0
O226 O 0.6318 0.88555 1.03275 0.0
O227 O 0.57089 0.86225 1.03589 0.0
C228 C 0.56673 0.84637 1.01852 0.0
O229 O 0.56601 0.85479 0.99644 0.0
O230 O 0.60389 0.94815 1.05465 0.0
O231 O 0.56961 0.92351 1.05914 0.0
O232 O 0.62255 0.89816 0.0909 0.0
C233 C 0.62277 0.88684 1.01092 0.0
C234 C 0.6781 0.93359 1.05966 0.0
O235 O 0.55282 0.92055 0.99666 0.0
O236 O 0.53215 0.89382 1.01638 0.0
C237 C 0.61512 0.9109 0.10975 0.0
O238 O 0.61021 0.93477 0.10731 0.0
O239 O 0.66502 0.9252 0.07755 0.0
O240 O 0.85582 0.12296 0.84126 0.0
Tb241 Tb 0.87021 0.15723 0.8248 0.0
C242 C 0.84388 0.20996 0.8293 0.0
O243 O 0.88343 0.17922 0.8759 0.0
Tb244 Tb 0.88998 0.21602 0.86143 0.0
C245 C 0.8847 0.2499 0.89592 0.0
O246 O 0.90174 0.15367 0.84917 0.0
O247 O 0.92566 0.22367 0.84482 0.0
C248 C 0.94673 0.21749 0.85522 0.0
O249 O 0.94631 0.20317 0.87429 0.0
O250 O 0.84075 0.18549 0.83026 0.0
O251 O 0.86625 0.21984 0.83032 0.0
O252 O 0.89109 0.16556 0.79228 0.0
C253 C 0.90008 0.16202 0.87115 0.0
C254 C 0.8521 0.11086 0.82144 0.0
O255 O 0.89972 0.23086 0.8965 0.0
O256 O 0.87224 0.24977 0.87593 0.0
C257 C 0.87977 0.17485 0.77337 0.0
O258 O 0.85624 0.18168 0.77522 0.0
O259 O 0.85783 0.12524 0.8035 0.0
O260 O 0.66814 0.10602 0.59337 0.0
Tb261 Tb 0.63351 0.1193 0.57645 0.0
C262 C 0.58156 0.0925 0.57656 0.0
O263 O 0.60664 0.13417 0.62708 0.0
Tb264 Tb 0.57143 0.13699 0.6085 0.0
C265 C 0.53236 0.12928 0.63746 0.0
O266 O 0.63428 0.15103 0.60083 0.0
O267 O 0.57168 0.17665 0.60174 0.0
C268 C 0.55665 0.18595 0.58545 0.0
O269 O 0.54497 0.17062 0.57101 0.0
O270 O 0.60578 0.08934 0.58023 0.0
O271 O 0.57188 0.11496 0.57621 0.0
O272 O 0.62555 0.13984 0.54371 0.0
C273 C 0.62395 0.15062 0.62219 0.0
C274 C 0.68075 0.1027 0.57367 0.0
O275 O 0.55476 0.12037 0.64077 0.0
O276 O 0.53194 0.14177 0.61753 0.0
C277 C 0.61697 0.12825 0.52471 0.0
O278 O 0.61081 0.10463 0.52656 0.0
O279 O 0.66644 0.10802 0.55559 0.0
O280 O 0.68518 0.91611 0.34312 0.0
Tb281 Tb 0.67154 0.8814 0.32701 0.0
C282 C 0.69958 0.83071 0.32656 0.0
O283 O 0.65768 0.85571 0.37969 0.0
Tb284 Tb 0.6559 0.82126 0.35959 0.0
C285 C 0.66415 0.78121 0.38698 0.0
O286 O 0.6404 0.8822 0.35241 0.0
O287 O 0.616 0.82079 0.35396 0.0
C288 C 0.60203 0.81924 0.37325 0.0
O289 O 0.61286 0.82162 0.39419 0.0
O290 O 0.7025 0.85476 0.33036 0.0
O291 O 0.67713 0.82114 0.32672 0.0
O292 O 0.65097 0.87306 0.29444 0.0
C293 C 0.64225 0.87399 0.37455 0.0
C294 C 0.68795 0.92834 0.32315 0.0
O295 O 0.67391 0.80313 0.39042 0.0
O296 O 0.65049 0.78186 0.36782 0.0
C297 C 0.66277 0.86438 0.27549 0.0
O298 O 0.68645 0.85816 0.27743 0.0
O299 O 0.682 0.91391 0.30543 0.0
O300 O 0.87649 0.93179 0.09035 0.0
Tb301 Tb 0.91191 0.91846 0.0748 0.0
C302 C 0.96256 0.94704 0.07478 0.0
O303 O 0.93696 0.90334 0.12729 0.0
Tb304 Tb 0.97104 0.90186 0.10637 0.0
C305 C 1.01096 0.90674 0.13467 0.0
O306 O 0.91027 0.88709 0.09984 0.0
O307 O 0.96993 0.86302 0.09639 0.0
C308 C 0.97289 0.84649 0.11349 0.0
O309 O 0.97242 0.85417 0.13581 0.0
O310 O 0.93836 0.94947 0.07885 0.0
O311 O 0.97285 0.9249 0.07477 0.0
O312 O 0.92103 0.89819 1.04216 0.0
C313 C 0.91829 0.88859 0.12202 0.0
C314 C 0.86468 0.93461 0.07018 0.0
O315 O 1.00964 0.89273 0.11581 0.0
O316 O 0.98987 0.91861 0.13733 0.0
C317 C 0.92925 0.91023 1.02316 0.0
O318 O 0.93476 0.93398 1.02515 0.0
O319 O 0.87974 0.92896 1.05272 0.0
O320 O 0.6357 0.7497 0.87173 0.0
Tb321 Tb 0.65311 0.71594 0.85761 0.0
C322 C 0.63991 0.6631 0.87263 0.0
O323 O 0.70207 0.68592 0.83085 0.0
Tb324 Tb 0.6713 0.65911 0.82624 0.0
C325 C 0.68846 0.61225 0.82266 0.0
O326 O 0.67809 0.72109 0.82773 0.0
O327 O 0.6515 0.66795 0.79329 0.0
C328 C 0.66369 0.67634 0.77444 0.0
O329 O 0.68745 0.68201 0.77664 0.0
O330 O 0.65367 0.68215 0.87877 0.0
O331 O 0.63893 0.65617 0.85011 0.0
O332 O 0.61733 0.71623 0.83969 0.0
C333 C 0.69994 0.71012 0.82682 0.0
C334 C 0.6531 0.7553 0.88689 0.0
O335 O 0.68289 0.62682 0.80482 0.0
O336 O 0.68501 0.62437 0.84255 0.0
C337 C 0.59664 0.71268 0.8519 0.0
O338 O 0.59804 0.70395 0.87382 0.0
O339 O 0.67094 0.73878 0.88546 0.0
O340 O 0.66761 0.43279 0.09006 0.0
Tb341 Tb 0.63292 0.41829 0.07449 0.0
C342 C 0.58042 0.44496 0.07855 0.0
O343 O 0.61155 0.40496 0.12672 0.0
Tb344 Tb 0.57499 0.39926 0.11132 0.0
C345 C 0.5403 0.40323 0.14546 0.0
O346 O 0.63656 0.38693 0.09914 0.0
O347 O 0.56691 0.3647 0.09318 0.0
C348 C 0.57239 0.34295 0.10259 0.0
O349 O 0.58699 0.3418 0.12142 0.0
O350 O 0.60493 0.44803 0.07969 0.0
O351 O 0.57045 0.42273 0.08012 0.0
O352 O 0.6242 0.39759 1.04215 0.0
C353 C 0.62911 0.38887 0.12144 0.0
C354 C 0.67948 0.43606 0.06994 0.0
O355 O 0.55761 0.38624 0.1444 0.0
O356 O 0.54258 0.41834 0.1273 0.0
C357 C 0.61522 0.40913 1.02322 0.0
O358 O 0.60875 0.43269 1.02509 0.0
O359 O 0.66478 0.43005 1.0524 0.0
O360 O 0.85552 0.41625 0.3424 0.0
Tb361 Tb 0.86959 0.38207 0.32547 0.0
C362 C 0.84241 0.33098 0.324 0.0
O363 O 0.88355 0.35527 0.37662 0.0
Tb364 Tb 0.88603 0.32088 0.35664 0.0
C365 C 0.8764 0.28145 0.38436 0.0
O366 O 0.90092 0.38272 0.35053 0.0
O367 O 0.92588 0.32075 0.35034 0.0
C368 C 0.94033 0.31508 0.36851 0.0
O369 O 0.93005 0.31223 0.38971 0.0
O370 O 0.83907 0.35492 0.32831 0.0
O371 O 0.86504 0.32171 0.32379 0.0
O372 O 0.89067 0.37479 0.29283 0.0
C373 C 0.89973 0.37295 0.37211 0.0
C374 C 0.85246 0.42885 0.32269 0.0
O375 O 0.88978 0.28124 0.36492 0.0
O376 O 0.86782 0.30388 0.38789 0.0
C377 C 0.87936 0.3662 0.27367 0.0
O378 O 0.85583 0.35945 0.27533 0.0
O379 O 0.85851 0.41485 0.30462 0.0
O380 O 0.87732 0.60718 0.59259 0.0
Tb381 Tb 0.91227 0.61989 0.57582 0.0
C382 C 0.96345 0.59234 0.57629 0.0
O383 O 0.93943 0.6327 0.62746 0.0
Tb384 Tb 0.9749 0.63558 0.60884 0.0
C385 C 1.01426 0.62412 0.63615 0.0
O386 O 0.9123 0.65079 0.60126 0.0
O387 O 0.97746 0.67545 0.60435 0.0
C388 C 0.9806 0.68848 0.62395 0.0
O389 O 0.97879 0.67696 0.64465 0.0
O390 O 0.93919 0.58917 0.5792 0.0
O391 O 0.97262 0.61492 0.57583 0.0
O392 O 0.9201 0.64073 0.54317 0.0
C393 C 0.92181 0.64909 0.62292 0.0
C394 C 0.865 0.60386 0.5728 0.0
O395 O 0.991 0.62007 0.64181 0.0
O396 O 1.01522 0.63373 0.61481 0.0
C397 C 0.92845 0.62914 0.52398 0.0
O398 O 0.93476 0.60553 0.52571 0.0
O399 O 0.87955 0.60899 0.55481 0.0
O400 O 0.68605 0.41432 0.79036 0.0
Tb401 Tb 0.67077 0.37993 0.80593 0.0
C402 C 0.69908 0.32789 0.80409 0.0
O403 O 0.65579 0.36048 0.7528 0.0
Tb404 Tb 0.65219 0.32572 0.77205 0.0
C405 C 0.6485 0.28881 0.7404 0.0
O406 O 0.63913 0.38474 0.78162 0.0
O407 O 0.61929 0.32308 0.79454 0.0
C408 C 0.59718 0.32964 0.7865 0.0
O409 O 0.5957 0.34298 0.76682 0.0
O410 O 0.70128 0.35237 0.8018 0.0
O411 O 0.67774 0.31658 0.80049 0.0
O412 O 0.65001 0.37114 0.83839 0.0
C413 C 0.64121 0.37898 0.7589 0.0
C414 C 0.68872 0.42629 0.81042 0.0
O415 O 0.62992 0.30014 0.75071 0.0
O416 O 0.66948 0.29825 0.74791 0.0
C417 C 0.66164 0.36236 0.85736 0.0
O418 O 0.68533 0.35612 0.85545 0.0
O419 O 0.68201 0.41179 0.82795 0.0
O420 O 0.8785 0.43064 1.03856 0.0
Tb421 Tb 0.91365 0.41985 1.05611 0.0
C422 C 0.96415 0.4483 1.05371 0.0
O423 O 0.93879 0.40058 1.00404 0.0
Tb424 Tb 0.97348 0.40183 1.02399 0.0
C425 C 1.01341 0.40735 0.99557 0.0
O426 O 0.91388 0.38621 1.03417 0.0
O427 O 0.97437 0.36323 1.03503 0.0
C428 C 0.97874 0.34661 1.01834 0.0
O429 O 0.97881 0.35395 0.99589 0.0
O430 O 0.93988 0.45067 1.05036 0.0
O431 O 0.97426 0.4261 1.05474 0.0
O432 O 0.92185 0.40143 0.08993 0.0
C433 C 0.9207 0.38607 1.01154 0.0
C434 C 0.8661 0.43559 1.05808 0.0
O435 O 0.99126 0.41647 0.9913 0.0
O436 O 1.01302 0.39574 1.01597 0.0
C437 C 0.92942 0.41423 0.1086 0.0
O438 O 0.93477 0.43796 0.10589 0.0
O439 O 0.88073 0.43223 0.07635 0.0
O440 O 0.85751 0.62676 0.28977 0.0
Tb441 Tb 0.87192 0.66083 0.30643 0.0
C442 C 0.84397 0.71162 0.3075 0.0
O443 O 0.88542 0.68605 0.25375 0.0
Tb444 Tb 0.88709 0.72064 0.27363 0.0
C445 C 0.87866 0.76044 0.246 0.0
O446 O 0.90312 0.65997 0.28106 0.0
O447 O 0.927 0.72121 0.27897 0.0
C448 C 0.94076 0.72339 0.25961 0.0
O449 O 0.92974 0.72143 0.23871 0.0
O450 O 0.84101 0.68759 0.30361 0.0
O451 O 0.86638 0.72126 0.3068 0.0
O452 O 0.89251 0.66854 0.33916 0.0
C453 C 0.90118 0.66806 0.2589 0.0
C454 C 0.8549 0.61411 0.30951 0.0
O455 O 0.8688 0.73852 0.24282 0.0
O456 O 0.89251 0.75993 0.26503 0.0
C457 C 0.88065 0.67639 0.35841 0.0
O458 O 0.85683 0.68218 0.35675 0.0
O459 O 0.86142 0.62798 0.32745 0.0
O460 O 0.53473 0.65008 0.51711 0.0
Tb461 Tb 0.57283 0.63926 0.52653 0.0
C462 C 0.62539 0.65183 0.5101 0.0
O463 O 0.60458 0.5914 0.5539 0.0
Tb464 Tb 0.63157 0.62201 0.55734 0.0
C465 C 0.67855 0.60503 0.56115 0.0
O466 O 0.57053 0.61649 0.55829 0.0
O467 O 0.62322 0.64244 0.59006 0.0
C468 C 0.61473 0.6306 0.60906 0.0
O469 O 0.60858 0.607 0.60707 0.0
O470 O 0.60647 0.63734 0.50499 0.0
O471 O 0.63347 0.65333 0.53227 0.0
O472 O 0.5752 0.67818 0.53597 0.0
C473 C 0.58051 0.59421 0.55845 0.0
C474 C 0.53235 0.63529 0.49892 0.0
O475 O 0.66406 0.61123 0.57887 0.0
O476 O 0.66631 0.60779 0.54121 0.0
C477 C 0.56087 0.68685 0.55318 0.0
O478 O 0.5493 0.67092 0.56723 0.0
O479 O 0.55274 0.6222 0.49646 0.0
O480 O 0.35715 0.41604 0.29067 0.0
Tb481 Tb 0.36945 0.38134 0.30799 0.0
C482 C 0.34189 0.33068 0.3071 0.0
O483 O 0.38555 0.35801 0.25449 0.0
Tb484 Tb 0.38517 0.32238 0.27293 0.0
C485 C 0.37591 0.28333 0.24485 0.0
O486 O 0.40223 0.38104 0.2846 0.0
O487 O 0.42502 0.32016 0.27864 0.0
C488 C 0.43919 0.31924 0.25944 0.0
O489 O 0.42869 0.3228 0.23848 0.0
O490 O 0.33861 0.35485 0.30441 0.0
O491 O 0.36448 0.32131 0.30616 0.0
O492 O 0.38933 0.37369 0.3411 0.0
C493 C 0.40126 0.37509 0.2618 0.0
C494 C 0.35326 0.42847 0.31033 0.0
O495 O 0.36687 0.30568 0.2416 0.0
O496 O 0.38949 0.28309 0.26405 0.0
C497 C 0.37741 0.36537 0.36011 0.0
O498 O 0.35382 0.35896 0.35812 0.0
O499 O 0.35796 0.41412 0.32855 0.0
O500 O 0.37698 0.60632 1.04038 0.0
Tb501 Tb 0.41165 0.61791 1.05814 0.0
C502 C 0.46277 0.59031 1.05646 0.0
O503 O 0.43419 0.63576 1.00484 0.0
Tb504 Tb 0.46972 0.63457 1.02333 0.0
C505 C 0.50853 0.62718 0.99406 0.0
O506 O 0.41157 0.65145 1.03586 0.0
O507 O 0.47054 0.67383 1.03177 0.0
C508 C 0.48588 0.68201 1.04827 0.0
O509 O 0.49754 0.66578 1.06193 0.0
O510 O 0.4385 0.58722 1.05366 0.0
O511 O 0.47222 0.61274 1.05572 0.0
O512 O 0.41938 0.63637 0.09196 0.0
C513 C 0.41695 0.65103 1.01288 0.0
C514 C 0.36429 0.602 1.05987 0.0
O515 O 0.48683 0.61642 0.99197 0.0
O516 O 0.50826 0.6416 1.01268 0.0
C517 C 0.42715 0.62348 0.11058 0.0
O518 O 0.43271 0.59979 0.10778 0.0
O519 O 0.37854 0.60603 0.07825 0.0
O520 O 0.18642 0.62814 0.78848 0.0
Tb521 Tb 0.17221 0.6626 0.80488 0.0
C522 C 0.20043 0.71344 0.80578 0.0
O523 O 0.15648 0.68788 0.75258 0.0
Tb524 Tb 0.15504 0.72136 0.77411 0.0
C525 C 0.15927 0.76151 0.74597 0.0
O526 O 0.14076 0.66067 0.77999 0.0
O527 O 0.11627 0.71969 0.78488 0.0
C528 C 0.09935 0.72272 0.76816 0.0
O529 O 0.10664 0.72257 0.74568 0.0
O530 O 0.20302 0.68942 0.80133 0.0
O531 O 0.17824 0.72372 0.8055 0.0
O532 O 0.15147 0.67064 0.8376 0.0
C533 C 0.14211 0.66889 0.75784 0.0
C534 C 0.18957 0.61584 0.80834 0.0
O535 O 0.17198 0.74094 0.74351 0.0
O536 O 0.14473 0.75955 0.76452 0.0
C537 C 0.1632 0.67851 0.85683 0.0
O538 O 0.18702 0.68417 0.85517 0.0
O539 O 0.18347 0.63013 0.8262 0.0
O540 O 0.1641 0.43103 0.54065 0.0
Tb541 Tb 0.12963 0.41625 0.55673 0.0
C542 C 0.07803 0.44485 0.55495 0.0
O543 O 0.10911 0.39868 0.50351 0.0
Tb544 Tb 0.07437 0.3978 0.52344 0.0
C545 C 0.03641 0.39603 0.49258 0.0
O546 O 0.13361 0.38386 0.53335 0.0
O547 O 0.07115 0.36489 0.54571 0.0
C548 C 0.07697 0.34271 0.53746 0.0
O549 O 0.08968 0.34094 0.51739 0.0
O550 O 0.10249 0.44687 0.55206 0.0
O551 O 0.06659 0.4235 0.55215 0.0
O552 O 0.12086 0.39674 0.58986 0.0
C553 C 0.12803 0.38504 0.51051 0.0
C554 C 0.17628 0.43389 0.56058 0.0
O555 O 0.04851 0.41618 0.49835 0.0
O556 O 0.04571 0.37719 0.50416 0.0
C557 C 0.11308 0.40915 0.60877 0.0
O558 O 0.1076 0.43292 0.60646 0.0
O559 O 0.16188 0.42745 0.57831 0.0
O560 O 0.35782 0.62625 0.34457 0.0
Tb561 Tb 0.37207 0.6606 0.328 0.0
C562 C 0.34439 0.71138 0.3267 0.0
O563 O 0.3865 0.68725 0.37986 0.0
Tb564 Tb 0.38816 0.72143 0.35916 0.0
C565 C 0.37963 0.76182 0.38591 0.0
O566 O 0.40338 0.66 0.35303 0.0
O567 O 0.42808 0.72228 0.35352 0.0
C568 C 0.4418 0.72472 0.37279 0.0
O569 O 0.43078 0.72272 0.39375 0.0
O570 O 0.34129 0.68744 0.33105 0.0
O571 O 0.36694 0.72074 0.3264 0.0
O572 O 0.39243 0.66846 0.29508 0.0
C573 C 0.40192 0.66889 0.37493 0.0
C574 C 0.35531 0.61378 0.32477 0.0
O575 O 0.37041 0.73977 0.39004 0.0
O576 O 0.39285 0.7611 0.3664 0.0
C577 C 0.3801 0.67441 0.27552 0.0
O578 O 0.35593 0.67856 0.27706 0.0
O579 O 0.36175 0.62789 0.3069 0.0
O580 O 0.16537 0.60816 0.09008 0.0
Tb581 Tb 0.13078 0.62287 0.0742 0.0
C582 C 0.07996 0.59439 0.07333 0.0
O583 O 0.10604 0.63686 0.12705 0.0
Tb584 Tb 0.07219 0.63896 0.106 0.0
C585 C 0.03193 0.6352 0.13422 0.0
O586 O 0.13257 0.65373 0.09964 0.0
O587 O 0.07447 0.67789 0.09646 0.0
C588 C 0.06044 0.68645 0.07901 0.0
O589 O 0.04956 0.67044 1.06468 0.0
O590 O 0.10412 0.59196 0.0775 0.0
O591 O 0.06935 0.61636 0.07425 0.0
O592 O 0.12237 0.64367 1.04166 0.0
C593 C 0.12478 0.65163 0.1219 0.0
C594 C 0.17778 0.60596 0.07013 0.0
O595 O 0.03427 0.65006 0.116 0.0
O596 O 0.05223 0.62192 0.13637 0.0
C597 C 0.11443 0.63197 1.02245 0.0
O598 O 0.10876 0.60822 1.02413 0.0
O599 O 0.16348 0.61275 1.05251 0.0
O600 O 0.18959 0.41842 0.84085 0.0
Tb601 Tb 0.17547 0.3838 0.82509 0.0
C602 C 0.20181 0.33121 0.8289 0.0
O603 O 0.16278 0.35915 0.8752 0.0
Tb604 Tb 0.15551 0.32278 0.86023 0.0
C605 C 0.16251 0.28808 0.89379 0.0
O606 O 0.14461 0.38699 0.85052 0.0
O607 O 0.11911 0.31609 0.84497 0.0
C608 C 0.09851 0.32137 0.85669 0.0
O609 O 0.09972 0.3342 0.87663 0.0
O610 O 0.20509 0.35563 0.8301 0.0
O611 O 0.17927 0.3217 0.82883 0.0
O612 O 0.15371 0.37552 0.79326 0.0
C613 C 0.14608 0.37663 0.87174 0.0
C614 C 0.19338 0.43016 0.82078 0.0
O615 O 0.14981 0.30855 0.89642 0.0
O616 O 0.1717 0.2872 0.8722 0.0
C617 C 0.16449 0.36595 0.77416 0.0
O618 O 0.18795 0.35876 0.77551 0.0
O619 O 0.18779 0.41544 0.80314 0.0
O620 O 0.37525 0.43374 0.59429 0.0
Tb621 Tb 0.41034 0.42259 0.57668 0.0
C622 C 0.46097 0.45073 0.57754 0.0
O623 O 0.43547 0.40517 0.62911 0.0
Tb624 Tb 0.47038 0.40602 0.60938 0.0
C625 C 0.50964 0.41438 0.63767 0.0
O626 O 0.41107 0.38945 0.59948 0.0
O627 O 0.472 0.36689 0.60032 0.0
C628 C 0.47688 0.35099 0.61759 0.0
O629 O 0.47746 0.3592 0.63972 0.0
O630 O 0.43672 0.45355 0.58092 0.0
O631 O 0.47064 0.42833 0.57722 0.0
O632 O 0.41834 0.40326 0.54335 0.0
C633 C 0.41788 0.38994 0.62207 0.0
C634 C 0.36265 0.43783 0.57476 0.0
O635 O 0.48736 0.42368 0.64087 0.0
O636 O 0.50976 0.40096 0.61836 0.0
C637 C 0.42629 0.41548 0.52439 0.0
O638 O 0.43208 0.43916 0.5265 0.0
O639 O 0.37717 0.43396 0.55644 0.0
H640 H 0.19887 0.08253 0.28003 0.0
H641 H 0.19291 0.95249 0.35015 0.0
H642 H 0.19809 0.07635 0.35696 0.0
H643 H 0.19617 0.95833 0.27325 0.0
H644 H 0.19887 0.99758 0.35306 0.0
H645 H 0.2021 0.0371 0.27717 0.0
C646 C 0.19974 0.0716 0.29633 0.0
C647 C 0.1981 0.08317 0.31877 0.0
C648 C 0.19853 0.98902 0.33554 0.0
C649 C 0.20148 0.03114 0.31566 0.0
C650 C 0.19517 0.96327 0.33387 0.0
C651 C 0.19393 0.95172 0.31142 0.0
C652 C 0.20052 1.00341 0.31457 0.0
C653 C 0.19697 0.96653 0.29092 0.0
C654 C 0.20151 0.04566 0.29469 0.0
C655 C 0.19926 0.06815 0.3393 0.0
N656 N 0.19991 0.99164 0.29297 0.0
N657 N 0.20065 0.04291 0.33726 0.0
H658 H 0.3343 0.95208 0.52172 0.0
H659 H 0.20481 0.94048 0.52804 0.0
H660 H 0.33315 0.93403 0.59689 0.0
H661 H 0.2132 0.94477 0.60458 0.0
H662 H 0.24987 0.94411 0.52345 0.0
H663 H 0.28895 0.95693 0.52261 0.0
C664 C 0.32443 0.94917 0.53844 0.0
C665 C 0.33747 0.94242 0.55919 0.0
C666 C 0.24208 0.94495 0.54128 0.0
C667 C 0.28517 0.94695 0.56032 0.0
C668 C 0.21619 0.9427 0.54389 0.0
C669 C 0.20524 0.94236 0.56671 0.0
C670 C 0.25729 0.94693 0.56172 0.0
C671 C 0.22088 0.94503 0.58664 0.0
C672 C 0.29837 0.95163 0.53893 0.0
C673 C 0.3238 0.93911 0.58043 0.0
N674 N 0.2461 0.94697 0.58369 0.0
N675 N 0.29843 0.94125 0.5804 0.0
H676 H 0.34981 0.08676 0.85417 0.0
H677 H 0.34725 0.95704 0.78327 0.0
H678 H 0.34787 0.08143 0.77725 0.0
H679 H 0.34865 0.96237 0.86021 0.0
H680 H 0.34326 1.00247 0.78077 0.0
H681 H 0.34519 0.04142 0.85687 0.0
C682 C 0.34807 0.07606 0.83785 0.0
C683 C 0.3493 0.08786 0.81545 0.0
C684 C 0.34418 0.99373 0.79822 0.0
C685 C 0.34429 0.03585 0.81836 0.0
C686 C 0.34638 0.96777 0.79965 0.0
C687 C 0.34836 0.95593 0.82198 0.0
C688 C 0.34408 1.00804 0.81928 0.0
C689 C 0.3472 0.97075 0.84262 0.0
C690 C 0.34551 0.05015 0.83939 0.0
C691 C 0.34702 0.07308 0.79488 0.0
N692 N 0.34534 0.99601 0.84078 0.0
N693 N 0.34483 0.04786 0.79682 0.0
H694 H 0.33803 0.09939 1.0327 0.0
H695 H 0.20559 0.09666 0.10018 0.0
H696 H 0.33011 0.09647 0.10943 0.0
H697 H 0.21339 0.09815 1.0234 0.0
H698 H 0.25106 0.09295 0.10384 0.0
H699 H 0.29262 0.09532 1.02879 0.0
C700 C 0.32674 0.09758 1.04873 0.0
C701 C 0.33785 0.09833 0.07143 0.0
C702 C 0.24286 0.09385 0.08617 0.0
C703 C 0.28575 0.09393 0.06713 0.0
C704 C 0.21688 0.0959 0.08407 0.0
C705 C 0.20571 0.09778 1.06145 0.0
C706 C 0.25789 0.0938 1.06548 0.0
C707 C 0.22124 0.09676 1.04119 0.0
C708 C 0.30079 0.09533 1.04649 0.0
C709 C 0.32232 0.09598 0.09158 0.0
N710 N 0.24652 0.09503 1.04368 0.0
N711 N 0.29708 0.09408 0.08897 0.0
H712 H 0.84761 0.95801 0.772 0.0
H713 H 0.84494 0.07766 0.858 0.0
H714 H 0.85048 0.95375 0.84897 0.0
H715 H 0.84798 0.08241 0.78104 0.0
H716 H 0.84166 0.03225 0.85498 0.0
H717 H 0.84256 1.00337 0.77485 0.0
C718 C 0.84686 0.9666 0.78951 0.0
C719 C 0.84955 0.95212 0.81028 0.0
C720 C 0.8428 0.0432 0.83872 0.0
C721 C 0.84397 1.00405 0.81372 0.0
C722 C 0.84456 0.06915 0.84045 0.0
C723 C 0.84682 0.08381 0.81974 0.0
C724 C 0.84333 0.03175 0.81611 0.0
C725 C 0.84631 0.07179 0.79746 0.0
C726 C 0.84406 0.99251 0.79114 0.0
C727 C 0.84852 0.96422 0.8325 0.0
N728 N 0.8448 0.04648 0.79623 0.0
N729 N 0.84596 0.98945 0.83363 0.0
H730 H 0.83399 0.09759 0.52329 0.0
H731 H 0.71424 0.09732 0.61034 0.0
H732 H 0.83876 0.10301 0.60009 0.0
H733 H 0.70943 0.09782 0.53336 0.0
H734 H 0.75989 0.09437 0.60714 0.0
H735 H 0.78858 0.09263 0.52678 0.0
C736 C 0.8255 0.09742 0.54091 0.0
C737 C 0.84015 0.10079 0.56143 0.0
C738 C 0.74886 0.09489 0.59093 0.0
C739 C 0.78811 0.09534 0.56559 0.0
C740 C 0.72278 0.09647 0.59276 0.0
C741 C 0.70803 0.09789 0.57208 0.0
C742 C 0.76032 0.09473 0.56824 0.0
C743 C 0.7201 0.09681 0.54977 0.0
C744 C 0.79955 0.09468 0.5429 0.0
C745 C 0.82816 0.1005 0.5838 0.0
N746 N 0.7455 0.09545 0.54844 0.0
N747 N 0.80286 0.09799 0.58528 0.0
H748 H 0.69366 0.08643 0.35139 0.0
H749 H 0.69269 0.95585 0.28225 0.0
H750 H 0.69439 0.08012 0.2745 0.0
H751 H 0.69481 0.96224 0.3591 0.0
H752 H 0.6969 1.00116 0.27896 0.0
H753 H 0.69771 0.04109 0.35455 0.0
C754 C 0.69498 0.07549 0.33516 0.0
C755 C 0.69361 0.08702 0.31264 0.0
C756 C 0.6967 0.99268 0.29656 0.0
C757 C 0.69796 0.03502 0.3161 0.0
C758 C 0.69434 0.9668 0.29844 0.0
C759 C 0.69331 0.95531 0.32099 0.0
C760 C 0.69788 1.00725 0.3174 0.0
C761 C 0.6955 0.97036 0.34137 0.0
C762 C 0.69724 0.04959 0.33697 0.0
C763 C 0.69537 0.07196 0.29221 0.0
N764 N 0.69748 0.99556 0.3391 0.0
N765 N 0.69725 0.04674 0.29442 0.0
H766 H 0.83813 0.93865 1.02878 0.0
H767 H 0.70839 0.9495 1.02314 0.0
H768 H 0.82944 0.94107 0.10542 0.0
H769 H 0.70962 0.92965 0.09788 0.0
H770 H 0.75372 0.95445 1.02394 0.0
H771 H 0.79302 0.94193 1.02439 0.0
C772 C 0.82667 0.94038 1.04471 0.0
C773 C 0.83757 0.93964 0.06749 0.0
C774 C 0.74432 0.94873 1.04017 0.0
C775 C 0.78544 0.94377 1.06273 0.0
C776 C 0.71828 0.94621 1.03974 0.0
C777 C 0.70526 0.93894 1.0604 0.0
C778 C 0.75754 0.94362 1.06141 0.0
C779 C 0.71895 0.93514 0.08149 0.0
C780 C 0.80074 0.94242 1.04222 0.0
C781 C 0.82181 0.94167 0.08751 0.0
N782 N 0.7443 0.93738 0.08141 0.0
N783 N 0.79657 0.94342 0.08466 0.0
H784 H 0.69431 0.58465 0.78195 0.0
H785 H 0.69252 0.4538 0.85138 0.0
H786 H 0.69418 0.57818 0.85884 0.0
H787 H 0.69659 0.4603 0.77458 0.0
H788 H 0.69644 0.49915 0.85461 0.0
H789 H 0.69844 0.53927 0.77892 0.0
C790 C 0.69546 0.57368 0.79821 0.0
C791 C 0.69384 0.58519 0.82068 0.0
C792 C 0.69674 0.49068 0.83704 0.0
C793 C 0.69828 0.53313 0.81739 0.0
C794 C 0.69457 0.46476 0.8352 0.0
C795 C 0.69417 0.45327 0.81267 0.0
C796 C 0.69836 0.50531 0.81618 0.0
C797 C 0.69681 0.4684 0.7923 0.0
C798 C 0.69776 0.54775 0.79648 0.0
C799 C 0.69536 0.57007 0.84115 0.0
N800 N 0.69858 0.49362 0.79453 0.0
N801 N 0.69729 0.54484 0.83902 0.0
H802 H 0.83814 0.44402 0.09822 0.0
H803 H 0.70717 0.43944 1.02885 0.0
H804 H 0.83208 0.43822 1.02154 0.0
H805 H 0.71352 0.44405 0.10559 0.0
H806 H 0.7527 0.44312 1.02547 0.0
H807 H 0.79263 0.44812 0.10097 0.0
C808 C 0.82722 0.44389 0.08193 0.0
C809 C 0.83889 0.4407 1.05962 0.0
C810 C 0.74415 0.44357 1.04305 0.0
C811 C 0.78666 0.44516 1.06262 0.0
C812 C 0.71814 0.44156 1.04498 0.0
C813 C 0.70656 0.44138 0.06754 0.0
C814 C 0.75877 0.44532 1.06385 0.0
C815 C 0.72168 0.44409 0.08784 0.0
C816 C 0.80121 0.44617 0.08351 0.0
C817 C 0.82383 0.44063 1.0391 0.0
N818 N 0.74698 0.44577 0.08553 0.0
N819 N 0.79851 0.44264 1.0411 0.0
H820 H 0.84538 0.46182 0.35941 0.0
H821 H 0.84642 0.58138 0.27294 0.0
H822 H 0.84782 0.45734 0.28242 0.0
H823 H 0.85048 0.58569 0.34986 0.0
H824 H 0.84136 0.53609 0.27609 0.0
H825 H 0.84161 0.50725 0.35634 0.0
C826 C 0.84478 0.47039 0.34186 0.0
C827 C 0.84703 0.45585 0.32114 0.0
C828 C 0.84312 0.54695 0.2923 0.0
C829 C 0.84295 0.50781 0.31745 0.0
C830 C 0.84593 0.57281 0.2905 0.0
C831 C 0.84899 0.58724 0.31116 0.0
C832 C 0.84339 0.53546 0.31495 0.0
C833 C 0.84826 0.57521 0.33347 0.0
C834 C 0.84272 0.49633 0.3401 0.0
C835 C 0.8462 0.4679 0.29884 0.0
N836 N 0.8457 0.55002 0.33477 0.0
N837 N 0.84441 0.49317 0.29758 0.0
H838 H 0.70619 0.6006 0.60195 0.0
H839 H 0.83728 0.59818 0.53224 0.0
H840 H 0.71261 0.59776 0.5251 0.0
H841 H 0.83088 0.5987 0.60914 0.0
H842 H 0.79178 0.59449 0.52931 0.0
H843 H 0.75166 0.59638 0.60506 0.0
C844 C 0.71718 0.59878 0.58573 0.0
C845 C 0.70564 0.5996 0.56323 0.0
C846 C 0.80029 0.59517 0.54685 0.0
C847 C 0.75779 0.59503 0.56661 0.0
C848 C 0.82629 0.59723 0.54852 0.0
C849 C 0.83785 0.59882 0.57097 0.0
C850 C 0.78566 0.59486 0.56778 0.0
C851 C 0.82272 0.59754 0.59148 0.0
C852 C 0.74316 0.59643 0.58751 0.0
C853 C 0.72076 0.59722 0.5428 0.0
N854 N 0.79741 0.59583 0.5894 0.0
N855 N 0.74605 0.59524 0.54497 0.0
H856 H 0.34832 0.46202 0.27366 0.0
H857 H 0.34659 0.5805 0.36107 0.0
H858 H 0.34709 0.4565 0.35063 0.0
H859 H 0.35165 0.58584 0.28422 0.0
H860 H 0.34186 0.5352 0.35751 0.0
H861 H 0.34464 0.50744 0.27699 0.0
C862 C 0.34695 0.47037 0.29125 0.0
C863 C 0.34811 0.45553 0.3119 0.0
C864 C 0.34378 0.54629 0.3414 0.0
C865 C 0.34413 0.50747 0.31591 0.0
C866 C 0.34639 0.57215 0.34344 0.0
C867 C 0.34962 0.58688 0.32292 0.0
C868 C 0.34444 0.53509 0.31866 0.0
C869 C 0.34928 0.57513 0.30051 0.0
C870 C 0.34493 0.4963 0.29316 0.0
C871 C 0.34633 0.46728 0.33425 0.0
N872 N 0.34692 0.54994 0.29899 0.0
N873 N 0.3446 0.49255 0.33567 0.0
H874 H 0.33588 0.59426 0.09982 0.0
H875 H 0.20589 0.60297 1.02935 0.0
H876 H 0.33069 0.59951 1.02301 0.0
H877 H 0.21124 0.59656 0.10607 0.0
H878 H 0.25132 0.598 1.02635 0.0
H879 H 0.29029 0.59127 0.1022 0.0
C880 C 0.32513 0.59448 0.08342 0.0
C881 C 0.33706 0.59722 1.06119 0.0
C882 C 0.24258 0.59744 1.04384 0.0
C883 C 0.28477 0.59408 1.06376 0.0
C884 C 0.21662 0.60022 1.04555 0.0
C885 C 0.20481 0.60026 0.068 0.0
C886 C 0.25689 0.59478 1.06476 0.0
C887 C 0.21961 0.59667 0.08841 0.0
C888 C 0.29908 0.59284 0.08479 0.0
C889 C 0.32223 0.59743 1.04052 0.0
N890 N 0.24488 0.59427 0.08632 0.0
N891 N 0.29686 0.5961 1.04232 0.0
H892 H 0.19548 0.58823 0.84903 0.0
H893 H 0.19817 0.45766 0.77975 0.0
H894 H 0.19657 0.58213 0.77214 0.0
H895 H 0.19974 0.4642 0.8566 0.0
H896 H 0.20137 0.5031 0.77644 0.0
H897 H 0.20073 0.543 0.85209 0.0
C898 C 0.19711 0.57737 0.83278 0.0
C899 C 0.1955 0.58892 0.8103 0.0
C900 C 0.20129 0.49461 0.79404 0.0
C901 C 0.20126 0.53702 0.81362 0.0
C902 C 0.19954 0.46865 0.79593 0.0
C903 C 0.19861 0.45717 0.81849 0.0
C904 C 0.20197 0.50924 0.81488 0.0
C905 C 0.20037 0.47231 0.83885 0.0
C906 C 0.20006 0.55152 0.83453 0.0
C907 C 0.1977 0.57396 0.78983 0.0
N908 N 0.20176 0.49754 0.83657 0.0
N909 N 0.20026 0.54878 0.79197 0.0
H910 H 0.20976 0.44305 0.52449 0.0
H911 H 0.32888 0.44119 0.6116 0.0
H912 H 0.20436 0.43714 0.60126 0.0
H913 H 0.33418 0.44408 0.53467 0.0
H914 H 0.28323 0.44404 0.60848 0.0
H915 H 0.25516 0.44782 0.52807 0.0
C916 C 0.21811 0.44306 0.54212 0.0
C917 C 0.20329 0.43962 0.5626 0.0
C918 C 0.29437 0.44428 0.59227 0.0
C919 C 0.25531 0.44484 0.56688 0.0
C920 C 0.32044 0.44273 0.59407 0.0
C921 C 0.33532 0.44233 0.57337 0.0
C922 C 0.28306 0.44538 0.56959 0.0
C923 C 0.3234 0.44429 0.55109 0.0
C924 C 0.24405 0.44571 0.54417 0.0
C925 C 0.2151 0.43972 0.585 0.0
N926 N 0.29802 0.44558 0.54979 0.0
N927 N 0.24039 0.44211 0.58654 0.0
H928 H 0.29167 0.34199 0.31101 0.0
H929 H 0.25054 0.19863 0.32393 0.0
H930 H 0.34337 0.28003 0.3117 0.0
H931 H 0.19822 0.26007 0.32422 0.0
H932 H 0.28484 0.22843 0.31997 0.0
H933 H 0.25709 0.31253 0.31639 0.0
C934 C 0.29578 0.32226 0.31235 0.0
C935 C 0.3205 0.31354 0.31091 0.0
C936 C 0.26585 0.2354 0.32094 0.0
C937 C 0.28105 0.27971 0.31699 0.0
C938 C 0.24624 0.21836 0.3232 0.0
C939 C 0.22142 0.22679 0.32437 0.0
C940 C 0.26064 0.26111 0.31981 0.0
C941 C 0.21703 0.25264 0.32335 0.0
C942 C 0.27603 0.30543 0.31541 0.0
C943 C 0.32466 0.28771 0.31275 0.0
N944 N 0.23641 0.26884 0.3211 0.0
N945 N 0.3052 0.27178 0.31564 0.0
H946 H 1.01499 0.0963 0.56645 0.0
H947 H 0.02969 0.94796 0.56681 0.0
H948 H 0.95327 0.04642 0.55362 0.0
H949 H 0.09133 0.99885 0.57558 0.0
H950 H 1.00123 0.98337 0.56337 0.0
H951 H 0.04245 0.06065 0.57181 0.0
C952 C 1.00708 0.07782 0.56485 0.0
C953 C 0.98166 0.07446 0.55938 0.0
C954 C 1.02096 0.98682 0.56602 0.0
C955 C 1.01345 0.03321 0.5655 0.0
C956 C 0.03732 0.96659 0.56795 0.0
C957 C 0.06307 0.97038 0.57145 0.0
C958 C 0.0303 1.01116 0.56763 0.0
C959 C 0.0717 0.99499 0.57284 0.0
C960 C 0.02291 0.0574 0.5679 0.0
C961 C 0.97269 0.04995 0.55779 0.0
N962 N 0.05535 1.01441 0.57094 0.0
N963 N 0.9886 0.03026 0.56071 0.0
H964 H 0.29538 0.84246 0.82663 0.0
H965 H 0.25054 0.70086 0.80789 0.0
H966 H 0.34568 0.77935 0.82558 0.0
H967 H 0.20019 0.76366 0.81347 0.0
H968 H 0.28584 0.7293 0.81379 0.0
H969 H 0.26025 0.81387 0.82091 0.0
C970 C 0.29908 0.82266 0.82513 0.0
C971 C 0.32358 0.8134 0.82657 0.0
C972 C 0.26703 0.7368 0.81376 0.0
C973 C 0.28344 0.78049 0.82008 0.0
C974 C 0.24688 0.72054 0.81043 0.0
C975 C 0.22232 0.72979 0.81019 0.0
C976 C 0.26259 0.7625 0.81679 0.0
C977 C 0.21875 0.75556 0.81353 0.0
C978 C 0.27901 0.80631 0.82191 0.0
C979 C 0.32717 0.78747 0.82456 0.0
N980 N 0.23859 0.77094 0.81663 0.0
N981 N 0.30739 0.772 0.82143 0.0
H982 H 0.45035 0.04174 0.08105 0.0
H983 H 0.59162 0.99567 1.0574 0.0
H984 H 0.51249 0.09122 0.06816 0.0
H985 H 0.52968 0.94561 0.06898 0.0
H986 H 0.56277 0.03101 1.06153 0.0
H987 H 0.47886 1.00609 0.07625 0.0
C988 C 0.46987 0.04513 0.07707 0.0
C989 C 0.47895 0.06957 0.0751 0.0
C990 C 0.55552 1.01226 1.0632 0.0
C991 C 0.51175 0.02893 0.06977 0.0
C992 C 0.57203 0.99208 1.06092 0.0
C993 C 0.56315 0.96759 1.06283 0.0
C994 C 0.52991 1.00795 0.06744 0.0
C995 C 0.53748 0.96413 0.06734 0.0
C996 C 0.48618 0.02479 0.07441 0.0
C997 C 0.50453 0.07278 0.06996 0.0
N998 N 0.52182 0.98401 0.06945 0.0
N999 N 0.51995 0.05279 0.06756 0.0
H1000 H 0.19675 0.77733 0.31537 0.0
H1001 H 0.34542 0.76177 0.31967 0.0
H1002 H 0.24803 0.8389 0.30806 0.0
H1003 H 0.2941 0.70023 0.32692 0.0
H1004 H 0.31008 0.79016 0.31559 0.0
H1005 H 0.23208 0.74906 0.3201 0.0
C1006 C 0.21546 0.78498 0.31484 0.0
C1007 C 0.21938 0.81063 0.31128 0.0
C1008 C 0.30649 0.77046 0.31804 0.0
C1009 C 0.2601 0.77808 0.31663 0.0
C1010 C 0.3267 0.75415 0.32033 0.0
C1011 C 0.32277 0.72847 0.32361 0.0
C1012 C 0.28204 0.76114 0.31901 0.0
C1013 C 0.29805 0.71984 0.3244 0.0
C1014 C 0.23566 0.76874 0.31752 0.0
C1015 C 0.24409 0.81931 0.31076 0.0
N1016 N 0.27863 0.73614 0.32212 0.0
N1017 N 0.26351 0.80306 0.31336 0.0
H1018 H 0.45074 0.99888 0.55677 0.0
H1019 H 0.59293 0.04231 0.57713 0.0
H1020 H 0.51264 0.94812 0.56679 0.0
H1021 H 0.53102 0.0935 0.56935 0.0
H1022 H 0.5637 1.00748 0.57308 0.0
H1023 H 0.47972 0.03394 0.5614 0.0
C1024 C 0.47033 0.99509 0.56004 0.0
C1025 C 0.47918 0.97047 0.56138 0.0
C1026 C 0.55653 0.02636 0.57225 0.0
C1027 C 0.5125 1.01046 0.56655 0.0
C1028 C 0.57325 0.04625 0.57452 0.0
C1029 C 0.56451 0.07091 0.57357 0.0
C1030 C 0.53086 0.03113 0.56898 0.0
C1031 C 0.53872 0.07483 0.57018 0.0
C1032 C 0.4869 1.0151 0.56264 0.0
C1033 C 0.50485 0.96672 0.56561 0.0
N1034 N 0.52287 0.05522 0.56802 0.0
N1035 N 0.52053 0.98642 0.56798 0.0
H1036 H 0.20068 0.28036 0.82571 0.0
H1037 H 0.34873 0.26441 0.8118 0.0
H1038 H 0.25218 0.34217 0.82544 0.0
H1039 H 0.29745 0.2024 0.81159 0.0
H1040 H 0.31372 0.29282 0.8174 0.0
H1041 H 0.23571 0.2517 0.82105 0.0
C1042 C 0.21937 0.288 0.82464 0.0
C1043 C 0.22338 0.31388 0.82592 0.0
C1044 C 0.31005 0.27302 0.81619 0.0
C1045 C 0.26385 0.28079 0.82059 0.0
C1046 C 0.3301 0.25665 0.81302 0.0
C1047 C 0.32615 0.2308 0.81122 0.0
C1048 C 0.28565 0.26366 0.81759 0.0
C1049 C 0.30146 0.22211 0.81289 0.0
C1050 C 0.23941 0.27151 0.82199 0.0
C1051 C 0.24811 0.32245 0.8245 0.0
N1052 N 0.28217 0.2385 0.81595 0.0
N1053 N 0.26738 0.30596 0.8219 0.0
H1054 H 0.95034 0.99714 0.07539 0.0
H1055 H 0.09231 0.04178 1.05503 0.0
H1056 H 1.01284 0.94687 1.06641 0.0
H1057 H 0.02989 0.09234 1.063 0.0
H1058 H 0.06348 1.00667 1.05984 0.0
H1059 H 0.97914 0.03242 0.07106 0.0
C1060 C 0.97003 0.9935 0.07243 0.0
C1061 C 0.9791 0.96896 0.07126 0.0
C1062 C 0.05613 0.02547 1.06058 0.0
C1063 C 1.01221 1.00919 1.06643 0.0
C1064 C 0.07262 0.04553 1.0579 0.0
C1065 C 0.0636 0.07009 1.05857 0.0
C1066 C 0.03041 0.03 1.06396 0.0
C1067 C 0.0378 0.07376 1.06231 0.0
C1068 C 0.9865 1.01363 0.07001 0.0
C1069 C 1.00489 0.96541 0.06744 0.0
N1070 N 0.02218 0.054 1.0648 0.0
N1071 N 1.02046 0.98522 1.0652 0.0
H1072 H 0.7502 0.69781 0.82895 0.0
H1073 H 0.79521 0.83875 0.80527 0.0
H1074 H 0.70019 0.7595 0.81519 0.0
H1075 H 0.84599 0.77725 0.81702 0.0
H1076 H 0.76005 0.80986 0.80942 0.0
H1077 H 0.78575 0.72637 0.82445 0.0
C1078 C 0.74667 0.71724 0.82483 0.0
C1079 C 0.72212 0.72618 0.82253 0.0
C1080 C 0.77891 0.80271 0.81113 0.0
C1081 C 0.76262 0.75902 0.81756 0.0
C1082 C 0.79899 0.81925 0.80884 0.0
C1083 C 0.82363 0.8105 0.81076 0.0
C1084 C 0.78349 0.7772 0.81537 0.0
C1085 C 0.82735 0.78493 0.81535 0.0
C1086 C 0.76695 0.73357 0.82236 0.0
C1087 C 0.71872 0.75164 0.81725 0.0
N1088 N 0.80756 0.76924 0.81745 0.0
N1089 N 0.73865 0.76708 0.81503 0.0
H1090 H 0.69597 0.26251 0.31435 0.0
H1091 H 0.8443 0.28074 0.31656 0.0
H1092 H 0.74872 0.20185 0.30759 0.0
H1093 H 0.79181 0.34147 0.32462 0.0
H1094 H 0.80956 0.25188 0.31273 0.0
H1095 H 0.73065 0.29159 0.31782 0.0
C1096 C 0.71487 0.25523 0.31365 0.0
C1097 C 0.71939 0.22958 0.3107 0.0
C1098 C 0.80557 0.2715 0.31529 0.0
C1099 C 0.75936 0.26307 0.31461 0.0
C1100 C 0.82544 0.28809 0.31745 0.0
C1101 C 0.82103 0.31369 0.32092 0.0
C1102 C 0.78093 0.28042 0.31659 0.0
C1103 C 0.79613 0.32194 0.32195 0.0
C1104 C 0.73469 0.27194 0.31561 0.0
C1105 C 0.74432 0.22141 0.30987 0.0
N1106 N 0.77702 0.30535 0.31982 0.0
N1107 N 0.76335 0.2381 0.3118 0.0
H1108 H 0.79376 0.1984 0.82585 0.0
H1109 H 0.74913 0.34065 0.80809 0.0
H1110 H 0.84451 0.26084 0.82524 0.0
H1111 H 0.69904 0.27783 0.81285 0.0
H1112 H 0.78449 0.31208 0.81473 0.0
H1113 H 0.75879 0.22753 0.82095 0.0
C1114 C 0.7976 0.21817 0.82464 0.0
C1115 C 0.82219 0.22706 0.8259 0.0
C1116 C 0.7657 0.30464 0.81439 0.0
C1117 C 0.78218 0.26066 0.82034 0.0
C1118 C 0.74551 0.32097 0.81067 0.0
C1119 C 0.721 0.31174 0.80978 0.0
C1120 C 0.76134 0.2789 0.8172 0.0
C1121 C 0.71753 0.28596 0.81322 0.0
C1122 C 0.7776 0.23485 0.82189 0.0
C1123 C 0.82592 0.253 0.82429 0.0
N1124 N 0.73738 0.27055 0.81667 0.0
N1125 N 0.8062 0.26881 0.82158 0.0
H1126 H 0.7938 0.70002 0.30856 0.0
H1127 H 0.74977 0.84226 0.32592 0.0
H1128 H 0.84472 0.762 0.31438 0.0
H1129 H 0.69888 0.78027 0.32011 0.0
H1130 H 0.78491 0.81314 0.3217 0.0
H1131 H 0.75868 0.72911 0.31309 0.0
C1132 C 0.79762 0.71968 0.31087 0.0
C1133 C 0.82227 0.72852 0.31108 0.0
C1134 C 0.76603 0.80594 0.32132 0.0
C1135 C 0.7822 0.76197 0.31617 0.0
C1136 C 0.74597 0.82259 0.3237 0.0
C1137 C 0.72131 0.81377 0.32336 0.0
C1138 C 0.7614 0.78028 0.31861 0.0
C1139 C 0.71753 0.78801 0.32045 0.0
C1140 C 0.77757 0.73631 0.31341 0.0
C1141 C 0.82606 0.75426 0.31411 0.0
N1142 N 0.73731 0.77223 0.31822 0.0
N1143 N 0.80629 0.77002 0.31649 0.0
H1144 H 0.52954 0.44398 0.0746 0.0
H1145 H 0.51359 0.59157 1.06088 0.0
H1146 H 0.59179 0.49504 0.07388 0.0
H1147 H 0.45167 0.54015 1.05997 0.0
H1148 H 0.54229 0.55666 1.06589 0.0
H1149 H 0.50101 0.4789 0.06933 0.0
C1150 C 0.53732 0.46255 0.07326 0.0
C1151 C 0.56327 0.46647 0.07466 0.0
C1152 C 0.52245 0.55295 1.06463 0.0
C1153 C 0.5303 0.50685 0.06868 0.0
C1154 C 0.50594 0.57292 1.0618 0.0
C1155 C 0.48003 0.56887 1.06003 0.0
C1156 C 0.51314 0.52857 1.06572 0.0
C1157 C 0.47142 0.54422 1.06127 0.0
C1158 C 0.52089 0.48254 0.07027 0.0
C1159 C 0.572 0.49106 0.07286 0.0
N1160 N 0.48793 0.52502 1.06404 0.0
N1161 N 0.55555 0.5103 0.06999 0.0
H1162 H 0.02862 0.445 0.56704 0.0
H1163 H 1.01433 0.59335 0.57092 0.0
H1164 H 0.09074 0.49492 0.55569 0.0
H1165 H 0.95244 0.54224 0.57687 0.0
H1166 H 0.04293 0.55799 0.5674 0.0
H1167 H 1.0013 0.4806 0.57316 0.0
C1168 C 0.03664 0.46348 0.56591 0.0
C1169 C 0.06214 0.46687 0.56065 0.0
C1170 C 0.02311 0.55449 0.56948 0.0
C1171 C 0.03051 0.50809 0.56765 0.0
C1172 C 1.00669 0.57469 0.57147 0.0
C1173 C 0.98082 0.57081 0.57411 0.0
C1174 C 1.0137 0.53013 0.57017 0.0
C1175 C 0.97216 0.54617 0.5748 0.0
C1176 C 1.0209 0.48388 0.56941 0.0
C1177 C 0.07126 0.49137 0.55967 0.0
N1178 N 0.98855 0.52681 0.57283 0.0
N1179 N 0.05542 0.51106 0.56302 0.0
H1180 H 0.09287 0.54452 0.07271 0.0
H1181 H 0.95154 0.49823 1.0531 0.0
H1182 H 0.02984 0.5942 1.06416 0.0
H1183 H 1.01472 0.44851 1.06024 0.0
H1184 H 0.97999 0.53375 1.05692 0.0
H1185 H 0.06464 0.50899 0.06757 0.0
C1186 C 0.07318 0.54799 0.06963 0.0
C1187 C 0.06379 0.57242 0.06892 0.0
C1188 C 0.9876 0.51504 1.05765 0.0
C1189 C 0.0313 0.53188 1.06318 0.0
C1190 C 0.97133 0.49476 1.05551 0.0
C1191 C 0.98066 0.47032 1.05641 0.0
C1192 C 1.0134 0.51085 1.0607 0.0
C1193 C 1.00657 0.46699 1.05951 0.0
C1194 C 0.05703 0.5277 0.06675 0.0
C1195 C 0.03802 0.57574 1.06491 0.0
N1196 N 0.02196 0.48696 1.06154 0.0
N1197 N 0.02274 0.55576 1.06227 0.0
H1198 H 0.59211 0.54398 0.55817 0.0
H1199 H 0.44954 0.50096 0.57789 0.0
H1200 H 0.53033 0.59507 0.5675 0.0
H1201 H 0.51154 0.44977 0.57075 0.0
H1202 H 0.47887 0.5358 0.57391 0.0
H1203 H 0.56294 0.50909 0.56292 0.0
C1204 C 0.5725 0.54789 0.56132 0.0
C1205 C 0.56375 0.57254 0.56241 0.0
C1206 C 0.48602 0.51692 0.57321 0.0
C1207 C 0.53019 0.53273 0.56771 0.0
C1208 C 0.46925 0.49703 0.57543 0.0
C1209 C 0.47799 0.47237 0.57462 0.0
C1210 C 0.51174 0.51212 0.57014 0.0
C1211 C 0.50383 0.46843 0.57145 0.0
C1212 C 0.55582 0.52797 0.56398 0.0
C1213 C 0.53805 0.57643 0.5665 0.0
N1214 N 0.51971 0.48803 0.56933 0.0
N1215 N 0.52224 0.5568 0.56893 0.0
H1216 H 0.17972 0.25276 0.43848 0.0
H1217 H 0.12799 0.38949 0.46194 0.0
H1218 H 0.16708 0.30668 0.38246 0.0
H1219 H 0.15573 0.34257 0.51881 0.0
H1220 H 0.14445 0.36 0.43271 0.0
H1221 H 0.1739 0.28576 0.4683 0.0
C1222 C 0.17624 0.27165 0.43246 0.0
C1223 C 0.17372 0.277 0.408 0.0
C1224 C 0.14722 0.35622 0.45156 0.0
C1225 C 0.16658 0.3147 0.44194 0.0
C1226 C 0.13774 0.37304 0.46829 0.0
C1227 C 0.14032 0.36841 0.49288 0.0
C1228 C 0.15909 0.33429 0.45938 0.0
C1229 C 0.15331 0.34687 0.50003 0.0
C1230 C 0.17283 0.29047 0.44948 0.0
C1231 C 0.1691 0.30174 0.40115 0.0
N1232 N 0.16193 0.33042 0.48336 0.0
N1233 N 0.16534 0.31959 0.41802 0.0
H1234 H 0.02993 0.93233 0.68053 0.0
H1235 H 0.90081 0.86402 0.71073 0.0
H1236 H 0.98496 0.89332 0.62889 0.0
H1237 H 0.94295 0.90451 0.76362 0.0
H1238 H 0.92997 0.87795 0.68005 0.0
H1239 H 0.99689 0.92603 0.71058 0.0
C1240 C 1.01292 0.92284 0.67542 0.0
C1241 C 1.01016 0.91324 0.65225 0.0
C1242 C 0.93283 0.88397 0.69831 0.0
C1243 C 0.97253 0.90571 0.68646 0.0
C1244 C 0.91615 0.87597 0.71591 0.0
C1245 C 0.91951 0.88292 0.73988 0.0
C1246 C 0.95327 0.89894 0.70461 0.0
C1247 C 0.93967 0.89862 0.74538 0.0
C1248 C 0.99413 0.91914 0.69259 0.0
C1249 C 0.98787 0.90095 0.64658 0.0
N1250 N 0.95593 0.90593 0.72792 0.0
N1251 N 0.97004 0.89739 0.66358 0.0
H1252 H 0.36621 0.7434 0.8941 0.0
H1253 H 0.40529 0.69905 1.02509 0.0
H1254 H 0.40671 0.79097 0.9424 0.0
H1255 H 0.40916 0.64934 0.96463 0.0
H1256 H 0.39436 0.73335 0.99786 0.0
H1257 H 0.37043 0.70893 0.92304 0.0
C1258 C 0.37557 0.74667 0.91097 0.0
C1259 C 0.38621 0.76994 0.91593 0.0
C1260 C 0.39735 0.71485 0.99066 0.0
C1261 C 0.39076 0.73099 0.94897 0.0
C1262 C 0.40344 0.69528 1.00615 0.0
C1263 C 0.4082 0.67137 0.99704 0.0
C1264 C 0.39538 0.71032 0.96601 0.0
C1265 C 0.40578 0.66755 0.97231 0.0
C1266 C 0.3781 0.72703 0.92733 0.0
C1267 C 0.39834 0.77323 0.93791 0.0
N1268 N 0.39943 0.68682 0.95763 0.0
N1269 N 0.40022 0.754 0.95368 0.0
H1270 H 0.63967 0.18616 0.21394 0.0
H1271 H 0.51802 0.10821 0.17776 0.0
H1272 H 0.60256 0.13662 0.26348 0.0
H1273 H 0.5448 0.17272 0.13946 0.0
H1274 H 0.55204 0.11354 0.20692 0.0
H1275 H 0.60835 0.17641 0.18392 0.0
C1276 C 0.62499 0.17312 0.21852 0.0
C1277 C 0.62364 0.16243 0.24144 0.0
C1278 C 0.55048 0.12641 0.19204 0.0
C1279 C 0.58759 0.15103 0.20687 0.0
C1280 C 0.53119 0.12331 0.17539 0.0
C1281 C 0.52864 0.14009 0.15626 0.0
C1282 C 0.56741 0.14623 0.18927 0.0
C1283 C 0.54607 0.15941 0.15401 0.0
C1284 C 0.60705 0.16758 0.20133 0.0
C1285 C 0.60426 0.14544 0.24613 0.0
N1286 N 0.56468 0.16193 0.17027 0.0
N1287 N 0.58692 0.14031 0.22901 0.0
H1288 H 0.11554 0.64922 0.16991 0.0
H1289 H 0.18346 0.77794 0.20065 0.0
H1290 H 0.15652 0.69178 0.1173 0.0
H1291 H 0.14322 0.73305 0.25185 0.0
H1292 H 0.17766 0.74509 0.17059 0.0
H1293 H 0.12905 0.67815 0.20071 0.0
C1294 C 0.12751 0.6646 0.16482 0.0
C1295 C 0.13471 0.66814 0.14089 0.0
C1296 C 0.17038 0.74231 0.18849 0.0
C1297 C 0.15026 0.70165 0.17628 0.0
C1298 C 0.1738 0.76099 0.20566 0.0
C1299 C 0.16371 0.75821 0.22871 0.0
C1300 C 0.15675 0.72079 0.19448 0.0
C1301 C 0.15122 0.73599 0.23426 0.0
C1302 C 0.13527 0.68115 0.18248 0.0
C1303 C 0.15044 0.68835 0.13549 0.0
N1304 N 0.14794 0.71827 0.21725 0.0
N1305 N 0.15751 0.70448 0.15301 0.0
H1306 H 0.55706 0.88521 0.50525 0.0
H1307 H 0.6017 0.90537 0.36969 0.0
H1308 H 0.5157 0.92972 0.45458 0.0
H1309 H 0.64277 0.86296 0.42232 0.0
H1310 H 0.57149 0.91714 0.40078 0.0
H1311 H 0.59018 0.87974 0.4756 0.0
C1312 C 0.55511 0.89409 0.48792 0.0
C1313 C 0.53362 0.90789 0.48232 0.0
C1314 C 0.58722 0.90541 0.40553 0.0
C1315 C 0.57136 0.90143 0.44803 0.0
C1316 C 0.60451 0.8987 0.38779 0.0
C1317 C 0.62475 0.88298 0.39333 0.0
C1318 C 0.5902 0.89635 0.42897 0.0
C1319 C 0.6274 0.87495 0.41712 0.0
C1320 C 0.57401 0.89091 0.47094 0.0
C1321 C 0.53203 0.91896 0.4596 0.0
N1322 N 0.61029 0.88159 0.43396 0.0
N1323 N 0.55056 0.91531 0.44318 0.0
H1324 H 0.40625 0.3417 0.61117 0.0
H1325 H 0.37052 0.30031 0.74388 0.0
H1326 H 0.41176 0.39269 0.67047 0.0
H1327 H 0.41037 0.2516 0.69569 0.0
H1328 H 0.37426 0.33418 0.71425 0.0
H1329 H 0.39643 0.30798 0.63945 0.0
C1330 C 0.40498 0.34586 0.63009 0.0
C1331 C 0.40983 0.36996 0.63857 0.0
C1332 C 0.38192 0.31597 0.71017 0.0
C1333 C 0.3983 0.33172 0.67077 0.0
C1334 C 0.37969 0.29668 0.72693 0.0
C1335 C 0.39025 0.27327 0.72215 0.0
C1336 C 0.3942 0.31148 0.68834 0.0
C1337 C 0.40209 0.26948 0.70003 0.0
C1338 C 0.39954 0.32664 0.64616 0.0
C1339 C 0.40824 0.37431 0.66328 0.0
N1340 N 0.40367 0.28837 0.68387 0.0
N1341 N 0.40249 0.35539 0.67855 0.0
H1342 H 0.941 0.13105 0.8665 0.0
H1343 H 0.992 0.16219 0.9977 0.0
H1344 H 0.90249 0.17778 0.91754 0.0
H1345 H 0.02924 0.11054 0.95043 0.0
H1346 H 0.9585 0.16685 0.96855 0.0
H1347 H 0.97298 0.12216 0.89677 0.0
C1348 C 0.93918 0.13934 0.88407 0.0
C1349 C 0.91906 0.1553 0.88941 0.0
C1350 C 0.97386 0.15435 0.96451 0.0
C1351 C 0.95559 0.14522 0.9241 0.0
C1352 C 0.99301 0.15166 0.9812 0.0
C1353 C 1.01342 0.13598 0.97644 0.0
C1354 C 0.97513 0.14141 0.94271 0.0
C1355 C 1.01377 0.1228 0.95477 0.0
C1356 C 0.95745 0.13425 0.90134 0.0
C1357 C 0.91768 0.16546 0.91251 0.0
N1358 N 0.99497 0.12593 0.9386 0.0
N1359 N 0.9357 0.16034 0.92889 0.0
H1360 H 0.93667 0.64969 0.66967 0.0
H1361 H 0.86316 0.7754 0.70351 0.0
H1362 H 0.88985 0.68934 0.61952 0.0
H1363 H 0.9155 0.73796 0.74994 0.0
H1364 H 0.86933 0.74233 0.67365 0.0
H1365 H 0.92596 0.68016 0.70028 0.0
C1366 C 0.92405 0.66477 0.66508 0.0
C1367 C 0.9143 0.667 0.64187 0.0
C1368 C 0.8793 0.74128 0.69045 0.0
C1369 C 0.90184 0.70214 0.67708 0.0
C1370 C 0.8757 0.76007 0.70751 0.0
C1371 C 0.88888 0.75939 0.72917 0.0
C1372 C 0.89615 0.7217 0.69518 0.0
C1373 C 0.90499 0.73922 0.73345 0.0
C1374 C 0.91792 0.68222 0.68262 0.0
C1375 C 0.8979 0.68691 0.63713 0.0
N1376 N 0.90823 0.72127 0.71661 0.0
N1377 N 0.89226 0.70377 0.65455 0.0
H1378 H 0.02735 0.10961 0.46258 0.0
H1379 H 0.13192 0.19867 0.40661 0.0
H1380 H 0.03274 0.18798 0.4787 0.0
H1381 H 0.11033 0.12957 0.37324 0.0
H1382 H 0.09851 0.19318 0.43603 0.0
H1383 H 0.06074 0.11455 0.43259 0.0
C1384 C 0.03563 0.1278 0.45985 0.0
C1385 C 0.02733 0.14842 0.47308 0.0
C1386 C 0.10104 0.17923 0.42225 0.0
C1387 C 0.06544 0.15418 0.43908 0.0
C1388 C 0.12017 0.18231 0.40547 0.0
C1389 C 0.12393 0.16455 0.38741 0.0
C1390 C 0.08574 0.15802 0.42125 0.0
C1391 C 0.10801 0.14378 0.38679 0.0
C1392 C 0.05456 0.13063 0.4427 0.0
C1393 C 0.03859 0.17161 0.46884 0.0
N1394 N 0.08971 0.14099 0.40357 0.0
N1395 N 0.05712 0.17383 0.45231 0.0
H1396 H 0.65991 0.34795 0.11627 0.0
H1397 H 0.64757 0.3091 0.25442 0.0
H1398 H 0.6186 0.38971 0.16926 0.0
H1399 H 0.68246 0.26191 0.20156 0.0
H1400 H 0.64177 0.34127 0.224 0.0
H1401 H 0.6726 0.31838 0.14758 0.0
C1402 C 0.65364 0.351 0.13448 0.0
C1403 C 0.63806 0.3713 0.1401 0.0
C1404 C 0.65093 0.324 0.21902 0.0
C1405 C 0.65258 0.33763 0.17598 0.0
C1406 C 0.65437 0.30568 0.23645 0.0
C1407 C 0.66544 0.28281 0.23047 0.0
C1408 C 0.65849 0.31944 0.19532 0.0
C1409 C 0.67385 0.27934 0.20689 0.0
C1410 C 0.66087 0.33411 0.15233 0.0
C1411 C 0.63051 0.3743 0.16401 0.0
N1412 N 0.67001 0.29738 0.19009 0.0
N1413 N 0.63778 0.35766 0.18098 0.0
H1414 H 0.44287 0.90939 0.86598 0.0
H1415 H 0.52982 0.93552 0.9563 0.0
H1416 H 0.40569 0.86452 0.91936 0.0
H1417 H 0.48809 0.88278 0.99867 0.0
H1418 H 0.49881 0.93192 0.92461 0.0
H1419 H 0.47398 0.9211 0.89556 0.0
C1420 C 0.44116 0.90215 0.88401 0.0
C1421 C 0.42164 0.8859 0.89012 0.0
C1422 C 0.49622 0.92104 0.9407 0.0
C1423 C 0.45724 0.89942 0.92455 0.0
C1424 C 0.51394 0.92333 0.95896 0.0
C1425 C 0.51154 0.90937 0.98007 0.0
C1426 C 0.47602 0.90449 0.94357 0.0
C1427 C 0.49068 0.89386 0.98264 0.0
C1428 C 0.45899 0.90893 0.90108 0.0
C1429 C 0.42041 0.87706 0.91375 0.0
N1430 N 0.47386 0.89175 0.96459 0.0
N1431 N 0.43795 0.88386 0.92998 0.0
H1432 H 0.90336 0.33973 1.0234 0.0
H1433 H 0.87079 0.29863 0.88995 0.0
H1434 H 0.91696 0.38784 0.96283 0.0
H1435 H 0.89932 0.24687 0.94236 0.0
H1436 H 0.87647 0.33273 0.91883 0.0
H1437 H 0.89081 0.30649 0.99585 0.0
C1438 C 0.90336 0.3434 1.00433 0.0
C1439 C 0.91128 0.36651 0.99533 0.0
C1440 C 0.88117 0.31383 0.92402 0.0
C1441 C 0.89665 0.32881 0.9639 0.0
C1442 C 0.87779 0.29442 0.90768 0.0
C1443 C 0.88468 0.27001 0.91386 0.0
C1444 C 0.89095 0.3086 0.94679 0.0
C1445 C 0.89387 0.26549 0.93694 0.0
C1446 C 0.89633 0.32443 0.98867 0.0
C1447 C 0.91113 0.37022 0.97046 0.0
N1448 N 0.8967 0.2846 0.95262 0.0
N1449 N 0.90384 0.35158 0.95558 0.0
H1450 H 0.53265 0.11081 0.68336 0.0
H1451 H 0.40292 0.17751 0.71602 0.0
H1452 H 0.48591 0.14925 0.63243 0.0
H1453 H 0.44493 0.13435 0.76738 0.0
H1454 H 0.43269 0.16564 0.68507 0.0
H1455 H 0.50025 0.11699 0.71409 0.0
C1456 C 0.51541 0.12019 0.67857 0.0
C1457 C 0.51194 0.12959 0.65536 0.0
C1458 C 0.43542 0.1586 0.70305 0.0
C1459 C 0.47504 0.13701 0.69037 0.0
C1460 C 0.41838 0.16544 0.72081 0.0
C1461 C 0.42142 0.15699 0.74441 0.0
C1462 C 0.45588 0.14329 0.70882 0.0
C1463 C 0.44185 0.14131 0.74943 0.0
C1464 C 0.49699 0.12382 0.69612 0.0
C1465 C 0.48937 0.14174 0.65011 0.0
N1466 N 0.4584 0.13508 0.73181 0.0
N1467 N 0.4719 0.14524 0.66749 0.0
H1468 H 0.68361 0.77972 0.43245 0.0
H1469 H 0.61581 0.65044 0.46218 0.0
H1470 H 0.64407 0.73526 0.38079 0.0
H1471 H 0.6572 0.69187 0.51493 0.0
H1472 H 0.62918 0.67997 0.43164 0.0
H1473 H 0.67766 0.74648 0.46226 0.0
C1474 C 0.67407 0.76279 0.42729 0.0
C1475 C 0.66423 0.76023 0.40418 0.0
C1476 C 0.63552 0.68259 0.44984 0.0
C1477 C 0.6571 0.72237 0.43813 0.0
C1478 C 0.62784 0.6657 0.46736 0.0
C1479 C 0.63521 0.66874 0.49125 0.0
C1480 C 0.65059 0.70293 0.45616 0.0
C1481 C 0.651 0.68882 0.49675 0.0
C1482 C 0.67057 0.74389 0.44432 0.0
C1483 C 0.65189 0.73803 0.39843 0.0
N1484 N 0.65799 0.70529 0.47938 0.0
N1485 N 0.64852 0.72009 0.41531 0.0
H1486 H 0.14315 0.86077 0.21071 0.0
H1487 H 1.01339 0.92837 0.17912 0.0
H1488 H 0.09996 0.90187 0.2628 0.0
H1489 H 0.05556 0.88283 0.12989 0.0
H1490 H 0.0465 0.9226 0.20907 0.0
H1491 H 0.11294 0.87228 0.18008 0.0
C1492 C 0.12737 0.87236 0.21572 0.0
C1493 C 0.12405 0.88019 0.23948 0.0
C1494 C 0.0486 0.91407 0.19164 0.0
C1495 C 0.08913 0.89348 0.20425 0.0
C1496 C 0.02977 0.91745 0.17453 0.0
C1497 C 0.03176 0.90602 0.15204 0.0
C1498 C 0.06953 0.89918 0.18614 0.0
C1499 C 0.05327 0.89194 0.14703 0.0
C1500 C 0.11007 0.87893 0.19816 0.0
C1501 C 0.10326 0.89533 0.24476 0.0
N1502 N 0.07121 0.88885 0.16394 0.0
N1503 N 0.08651 0.90136 0.22732 0.0
H1504 H 0.61984 0.79341 0.88621 0.0
H1505 H 0.65678 0.84813 1.01419 0.0
H1506 H 0.68207 0.76443 0.92659 0.0
H1507 H 0.60596 0.88395 0.96497 0.0
H1508 H 0.66656 0.81702 0.98329 0.0
H1509 H 0.61458 0.8264 0.9157 0.0
C1510 C 0.63253 0.79412 0.90127 0.0
C1511 C 0.65141 0.7762 0.90399 0.0
C1512 C 0.65342 0.83182 0.97927 0.0
C1513 C 0.64534 0.81387 0.93815 0.0
C1514 C 0.64781 0.84958 0.99689 0.0
C1515 C 0.6304 0.86865 0.99226 0.0
C1516 C 0.6414 0.83309 0.95696 0.0
C1517 C 0.6194 0.86958 0.96949 0.0
C1518 C 0.62954 0.81299 0.91813 0.0
C1519 C 0.66733 0.77799 0.92384 0.0
N1520 N 0.62495 0.85202 0.95284 0.0
N1521 N 0.66381 0.7964 0.94033 0.0
H1522 H 0.49311 0.4227 0.14119 0.0
H1523 H 0.44955 0.38652 0.27317 0.0
H1524 H 0.54145 0.38368 0.1903 0.0
H1525 H 0.3992 0.38119 0.21326 0.0
H1526 H 0.48373 0.39634 0.24537 0.0
H1527 H 0.45852 0.41844 0.17013 0.0
C1528 C 0.49651 0.41362 0.15821 0.0
C1529 C 0.52005 0.40346 0.16344 0.0
C1530 C 0.46512 0.39325 0.23839 0.0
C1531 C 0.48098 0.39886 0.19647 0.0
C1532 C 0.44561 0.38781 0.25421 0.0
C1533 C 0.42154 0.38303 0.24545 0.0
C1534 C 0.46038 0.39457 0.21374 0.0
C1535 C 0.41753 0.38466 0.22068 0.0
C1536 C 0.47681 0.41106 0.17457 0.0
C1537 C 0.52351 0.39168 0.18561 0.0
N1538 N 0.43675 0.39043 0.20566 0.0
N1539 N 0.50421 0.38979 0.20139 0.0
H1540 H 0.92075 0.1501 0.46034 0.0
H1541 H 0.85818 0.282 0.4303 0.0
H1542 H 0.8863 0.19641 0.51426 0.0
H1543 H 0.89377 0.23424 0.37835 0.0
H1544 H 0.86349 0.24922 0.46066 0.0
H1545 H 0.90638 0.17887 0.42964 0.0
C1546 C 0.90999 0.16628 0.46574 0.0
C1547 C 0.90494 0.17096 0.48997 0.0
C1548 C 0.86982 0.2458 0.44254 0.0
C1549 C 0.88847 0.20431 0.45469 0.0
C1550 C 0.86669 0.26444 0.4252 0.0
C1551 C 0.87567 0.26081 0.40185 0.0
C1552 C 0.88203 0.22346 0.43639 0.0
C1553 C 0.88667 0.23783 0.39617 0.0
C1554 C 0.90174 0.18275 0.44814 0.0
C1555 C 0.89067 0.19212 0.4958 0.0
N1556 N 0.8897 0.22014 0.41334 0.0
N1557 N 0.88315 0.20819 0.47829 0.0
H1558 H 0.0635 0.63072 0.62575 0.0
H1559 H 0.14287 0.67957 0.71009 0.0
H1560 H 1.01322 0.61796 0.6849 0.0
H1561 H 0.1035 0.63519 0.76243 0.0
H1562 H 0.11431 0.66519 0.67951 0.0
H1563 H 0.0974 0.6378 0.65399 0.0
C1564 C 0.05967 0.62925 0.64475 0.0
C1565 C 0.0355 0.62403 0.65302 0.0
C1566 C 0.11218 0.65795 0.69747 0.0
C1567 C 0.07396 0.63338 0.68566 0.0
C1568 C 0.12842 0.66644 0.71511 0.0
C1569 C 0.12569 0.65855 0.73893 0.0
C1570 C 0.09291 0.64131 0.70354 0.0
C1571 C 0.1064 0.64168 0.74428 0.0
C1572 C 0.07896 0.63369 0.66093 0.0
C1573 C 0.03161 0.62206 0.6778 0.0
N1574 N 0.09059 0.63381 0.72677 0.0
N1575 N 0.0506 0.627 0.69329 0.0
H1576 H 0.6633 0.18347 0.623 0.0
H1577 H 0.60603 0.26378 0.72996 0.0
H1578 H 0.59566 0.16389 0.66085 0.0
H1579 H 0.68426 0.26745 0.71142 0.0
H1580 H 0.60069 0.23008 0.70119 0.0
H1581 H 0.67028 0.21718 0.65194 0.0
C1582 C 0.64995 0.18624 0.63737 0.0
C1583 C 0.6289 0.17081 0.63954 0.0
C1584 C 0.61906 0.23816 0.70342 0.0
C1585 C 0.63663 0.20934 0.67241 0.0
C1586 C 0.62211 0.25745 0.71979 0.0
C1587 C 0.64563 0.26832 0.72307 0.0
C1588 C 0.63963 0.22983 0.68995 0.0
C1589 C 0.66583 0.25943 0.70944 0.0
C1590 C 0.654 0.20539 0.65389 0.0
C1591 C 0.61223 0.1752 0.65852 0.0
N1592 N 0.66236 0.24073 0.69332 0.0
N1593 N 0.61638 0.19412 0.67409 0.0
H1594 H 0.06111 0.39323 1.00509 0.0
H1595 H 0.14446 0.35776 0.91708 0.0
H1596 H 1.0142 0.41954 0.94772 0.0
H1597 H 0.10597 0.40909 0.87033 0.0
H1598 H 0.11402 0.36629 0.94817 0.0
H1599 H 0.09527 0.38765 0.97682 0.0
C1600 C 0.05803 0.39779 0.98644 0.0
C1601 C 0.03475 0.40663 0.9787 0.0
C1602 C 0.11239 0.37629 0.93144 0.0
C1603 C 0.07357 0.39907 0.94566 0.0
C1604 C 0.12974 0.37113 0.91344 0.0
C1605 C 0.12789 0.38276 0.891 0.0
C1606 C 0.093 0.39352 0.92723 0.0
C1607 C 0.10821 0.39976 0.88738 0.0
C1608 C 0.0775 0.39424 0.97013 0.0
C1609 C 0.03189 0.41259 0.95439 0.0
N1610 N 0.09148 0.40454 0.90526 0.0
N1611 N 0.05102 0.40852 0.93868 0.0
H1612 H 0.92762 0.89025 0.16995 0.0
H1613 H 0.8595 0.76136 0.20039 0.0
H1614 H 0.88668 0.84837 0.11719 0.0
H1615 H 0.89853 0.80648 0.25186 0.0
H1616 H 0.86575 0.79422 0.17023 0.0
H1617 H 0.91403 0.861 0.20058 0.0
C1618 C 0.91563 0.87495 0.16479 0.0
C1619 C 0.90842 0.87173 0.14087 0.0
C1620 C 0.87266 0.79704 0.18821 0.0
C1621 C 0.89279 0.83783 0.1761 0.0
C1622 C 0.86898 0.77836 0.20543 0.0
C1623 C 0.8786 0.78121 0.2286 0.0
C1624 C 0.88608 0.81863 0.19427 0.0
C1625 C 0.89088 0.80349 0.23419 0.0
C1626 C 0.90783 0.85821 0.18236 0.0
C1627 C 0.89273 0.85157 0.13539 0.0
N1628 N 0.89442 0.8212 0.21714 0.0
N1629 N 0.8856 0.83525 0.15283 0.0
H1630 H 0.48854 0.66026 0.50446 0.0
H1631 H 0.44197 0.63682 0.37035 0.0
H1632 H 0.52817 0.61284 0.45494 0.0
H1633 H 0.40227 0.68145 0.4223 0.0
H1634 H 0.47239 0.62548 0.40129 0.0
H1635 H 0.45537 0.66569 0.47505 0.0
C1636 C 0.49011 0.65076 0.48743 0.0
C1637 C 0.51113 0.63613 0.48208 0.0
C1638 C 0.45692 0.63762 0.40592 0.0
C1639 C 0.47331 0.64252 0.44805 0.0
C1640 C 0.43951 0.64408 0.38828 0.0
C1641 C 0.41959 0.66027 0.39366 0.0
C1642 C 0.45437 0.6474 0.42912 0.0
C1643 C 0.41738 0.66907 0.41722 0.0
C1644 C 0.47117 0.65391 0.47059 0.0
C1645 C 0.51222 0.62426 0.45975 0.0
N1646 N 0.43459 0.66264 0.43397 0.0
N1647 N 0.49366 0.62788 0.44344 0.0
H1648 H 0.41916 0.14916 0.17355 0.0
H1649 H 0.35899 0.28337 0.19834 0.0
H1650 H 0.38561 0.19362 0.11772 0.0
H1651 H 0.39148 0.23589 0.25233 0.0
H1652 H 0.36409 0.24954 0.16901 0.0
H1653 H 0.40485 0.17932 0.20301 0.0
C1654 C 0.40858 0.16522 0.16748 0.0
C1655 C 0.40377 0.16894 0.14307 0.0
C1656 C 0.36977 0.24645 0.18736 0.0
C1657 C 0.38742 0.20394 0.1769 0.0
C1658 C 0.36675 0.26569 0.2041 0.0
C1659 C 0.37496 0.26241 0.22772 0.0
C1660 C 0.38107 0.22388 0.19442 0.0
C1661 C 0.38503 0.23924 0.23426 0.0
C1662 C 0.40038 0.18249 0.18436 0.0
C1663 C 0.38977 0.19003 0.13635 0.0
N1664 N 0.38796 0.221 0.2177 0.0
N1665 N 0.38232 0.20691 0.15316 0.0
H1666 H 0.50895 0.60805 0.94834 0.0
H1667 H 0.64325 0.66735 0.92097 0.0
H1668 H 0.55537 0.64487 1.00028 0.0
H1669 H 0.59766 0.63451 0.86589 0.0
H1670 H 0.61306 0.65398 0.95087 0.0
H1671 H 0.54276 0.61238 0.9186 0.0
C1672 C 0.52639 0.61666 0.95356 0.0
C1673 C 0.52938 0.62627 0.97671 0.0
C1674 C 0.60963 0.64948 0.9323 0.0
C1675 C 0.56788 0.63138 0.94298 0.0
C1676 C 0.62693 0.65712 0.91516 0.0
C1677 C 0.62289 0.65226 0.89083 0.0
C1678 C 0.58784 0.637 0.92518 0.0
C1679 C 0.60149 0.63869 0.88445 0.0
C1680 C 0.5456 0.61922 0.9366 0.0
C1681 C 0.55223 0.63735 0.98259 0.0
N1682 N 0.58458 0.63176 0.90151 0.0
N1683 N 0.57048 0.63972 0.96584 0.0
H1684 H 0.18218 0.76511 0.70205 0.0
H1685 H 0.11235 0.89335 0.67004 0.0
H1686 H 0.13387 0.80521 0.7505 0.0
H1687 H 0.15525 0.85147 0.6183 0.0
H1688 H 0.12382 0.86314 0.70069 0.0
H1689 H 0.1764 0.79836 0.67223 0.0
C1690 C 0.17064 0.78107 0.7065 0.0
C1691 C 0.15844 0.78243 0.72872 0.0
C1692 C 0.13087 0.86056 0.68268 0.0
C1693 C 0.15161 0.82036 0.69477 0.0
C1694 C 0.12433 0.87786 0.66511 0.0
C1695 C 0.13267 0.87489 0.64144 0.0
C1696 C 0.14593 0.83999 0.67669 0.0
C1697 C 0.1483 0.85448 0.63628 0.0
C1698 C 0.16725 0.79997 0.68947 0.0
C1699 C 0.14359 0.80341 0.73357 0.0
N1700 N 0.1543 0.83772 0.65372 0.0
N1701 N 0.14052 0.82145 0.71673 0.0
H1702 H 0.93753 0.40777 0.36983 0.0
H1703 H 1.00473 0.35718 0.48713 0.0
H1704 H 0.90555 0.35183 0.41627 0.0
H1705 H 1.02056 0.43048 0.45927 0.0
H1706 H 0.97068 0.35316 0.45844 0.0
H1707 H 0.97025 0.4151 0.39978 0.0
C1708 C 0.93729 0.39712 0.38631 0.0
C1709 C 0.91883 0.379 0.39041 0.0
C1710 C 0.98148 0.3702 0.45863 0.0
C1711 C 0.95629 0.38712 0.42451 0.0
C1712 C 1.00097 0.37247 0.47495 0.0
C1713 C 1.01542 0.39421 0.47556 0.0
C1714 C 0.97656 0.38965 0.44244 0.0
C1715 C 1.00975 0.41346 0.45939 0.0
C1716 C 0.95594 0.40135 0.40338 0.0
C1717 C 0.91943 0.36586 0.41217 0.0
N1718 N 0.99085 0.41066 0.4433 0.0
N1719 N 0.93795 0.37 0.42822 0.0
H1720 H 0.38619 0.85046 0.51544 0.0
H1721 H 0.39894 0.80795 0.37849 0.0
H1722 H 0.43005 0.88895 0.46206 0.0
H1723 H 0.36171 0.76344 0.43204 0.0
H1724 H 0.40532 0.84061 0.40814 0.0
H1725 H 0.37248 0.82101 0.48464 0.0
C1726 C 0.39277 0.85287 0.49724 0.0
C1727 C 0.40943 0.87217 0.49139 0.0
C1728 C 0.39553 0.82384 0.41344 0.0
C1729 C 0.39377 0.83856 0.45608 0.0
C1730 C 0.39177 0.80522 0.39646 0.0
C1731 C 0.37986 0.78293 0.40286 0.0
C1732 C 0.38746 0.82016 0.43713 0.0
C1733 C 0.37097 0.78038 0.42639 0.0
C1734 C 0.38497 0.83601 0.47968 0.0
C1735 C 0.41734 0.87432 0.4675 0.0
N1736 N 0.37515 0.79869 0.44277 0.0
N1737 N 0.40951 0.85773 0.45082 0.0
H1738 H 0.94209 0.6371 0.26373 0.0
H1739 H 0.98812 0.66025 0.12908 0.0
H1740 H 0.90097 0.67963 0.21124 0.0
H1741 H 0.02792 0.61271 0.17834 0.0
H1742 H 0.95499 0.66551 0.15873 0.0
H1743 H 0.9727 0.62602 0.23273 0.0
C1744 C 0.93936 0.64394 0.24569 0.0
C1745 C 0.91897 0.65948 0.24017 0.0
C1746 C 0.97082 0.65374 0.16308 0.0
C1747 C 0.95399 0.64694 0.20463 0.0
C1748 C 0.98974 0.6507 0.14611 0.0
C1749 C 1.01078 0.63606 0.1513 0.0
C1750 C 0.97299 0.64225 0.18561 0.0
C1751 C 1.01194 0.62412 0.17364 0.0
C1752 C 0.95687 0.63763 0.228 0.0
C1753 C 0.91643 0.66776 0.21644 0.0
N1754 N 0.99339 0.62765 0.19009 0.0
N1755 N 0.93377 0.66152 0.19966 0.0
H1756 H 0.15389 0.29164 0.94158 0.0
H1757 H 0.12837 0.14856 0.96026 0.0
H1758 H 0.17141 0.23841 0.88629 0.0
H1759 H 0.14809 0.19622 1.01932 0.0
H1760 H 0.14158 0.18136 0.93237 0.0
H1761 H 0.14941 0.25732 0.97023 0.0
C1762 C 0.15711 0.2727 0.93558 0.0
C1763 C 0.16304 0.26777 0.9116 0.0
C1764 C 0.14328 0.18449 0.95144 0.0
C1765 C 0.15735 0.22847 0.94406 0.0
C1766 C 0.13566 0.16585 0.96735 0.0
C1767 C 0.13707 0.16971 0.99214 0.0
C1768 C 0.15182 0.20735 0.96039 0.0
C1769 C 0.14674 0.19243 1.00035 0.0
C1770 C 0.15458 0.25316 0.95191 0.0
C1771 C 0.16693 0.24294 0.90468 0.0
N1772 N 0.1534 0.21054 0.98452 0.0
N1773 N 0.16361 0.22413 0.92076 0.0
H1774 H 0.6447 0.37443 0.71052 0.0
H1775 H 0.50966 0.43267 0.68361 0.0
H1776 H 0.59848 0.40718 0.76558 0.0
H1777 H 0.55692 0.39727 0.63102 0.0
H1778 H 0.54336 0.42828 0.7132 0.0
H1779 H 0.6144 0.38745 0.68062 0.0
C1780 C 0.62822 0.38455 0.71633 0.0
C1781 C 0.62404 0.38949 0.74066 0.0
C1782 C 0.54643 0.42176 0.6951 0.0
C1783 C 0.5889 0.40438 0.7063 0.0
C1784 C 0.52726 0.42436 0.67821 0.0
C1785 C 0.53052 0.41521 0.6549 0.0
C1786 C 0.56895 0.40997 0.68854 0.0
C1787 C 0.55359 0.40448 0.64883 0.0
C1788 C 0.61086 0.392 0.69919 0.0
C1789 C 0.60243 0.40291 0.74702 0.0
N1790 N 0.57181 0.40203 0.66555 0.0
N1791 N 0.5855 0.40967 0.72997 0.0
H1792 H 0.08487 0.27321 0.30962 0.0
H1793 H 0.97257 0.29529 0.40115 0.0
H1794 H 0.07544 0.23193 0.37545 0.0
H1795 H 0.9674 0.31646 0.32672 0.0
H1796 H 1.01349 0.27699 0.39327 0.0
H1797 H 0.04402 0.29287 0.31628 0.0
C1798 C 0.07411 0.26809 0.32532 0.0
C1799 C 0.08359 0.25097 0.34204 0.0
C1800 C 1.00344 0.2857 0.37867 0.0
C1801 C 0.0373 0.27371 0.34995 0.0
C1802 C 0.98015 0.29634 0.38318 0.0
C1803 C 0.96645 0.30722 0.3645 0.0
C1804 C 1.01324 0.28611 0.35536 0.0
C1805 C 0.97729 0.30811 0.34161 0.0
C1806 C 0.05088 0.27937 0.32913 0.0
C1807 C 0.06889 0.24502 0.36207 0.0
N1808 N 1.00008 0.29759 0.33764 0.0
N1809 N 0.04659 0.25656 0.36557 0.0
H1810 H 0.05479 0.82541 0.5819 0.0
H1811 H 0.99137 0.71894 0.66142 0.0
H1812 H 0.06182 0.81969 0.65867 0.0
H1813 H 0.99491 0.71527 0.58431 0.0
H1814 H 1.01474 0.75776 0.66018 0.0
H1815 H 0.03211 0.78581 0.58176 0.0
C1816 C 0.05191 0.81566 0.59867 0.0
C1817 C 0.06001 0.82596 0.62036 0.0
C1818 C 1.01037 0.74854 0.64349 0.0
C1819 C 0.03374 0.78105 0.62036 0.0
C1820 C 0.99684 0.72644 0.64418 0.0
C1821 C 0.99132 0.71376 0.62294 0.0
C1822 C 1.01842 0.75814 0.6214 0.0
C1823 C 0.99881 0.72444 0.60112 0.0
C1824 C 0.03883 0.79316 0.59859 0.0
C1825 C 0.05574 0.81255 0.64154 0.0
N1826 N 1.01211 0.746 0.60091 0.0
N1827 N 0.04271 0.79093 0.64102 0.0
H1828 H 0.44695 0.77258 0.83648 0.0
H1829 H 0.59356 0.75535 0.82569 0.0
H1830 H 0.49734 0.83212 0.85507 0.0
H1831 H 0.54811 0.70091 0.86235 0.0
H1832 H 0.5566 0.78202 0.82107 0.0
H1833 H 0.48289 0.74481 0.83079 0.0
C1834 C 0.4656 0.77999 0.83879 0.0
C1835 C 0.46926 0.80468 0.84631 0.0
C1836 C 0.55473 0.76398 0.82963 0.0
C1837 C 0.51014 0.77314 0.83946 0.0
C1838 C 0.57566 0.74865 0.83209 0.0
C1839 C 0.57379 0.72589 0.84443 0.0
C1840 C 0.53176 0.75615 0.839 0.0
C1841 C 0.55025 0.71832 0.85274 0.0
C1842 C 0.48598 0.76409 0.83567 0.0
C1843 C 0.49379 0.8132 0.84934 0.0
N1844 N 0.53005 0.73347 0.84988 0.0
N1845 N 0.51341 0.79741 0.84586 0.0
H1846 H 0.50858 0.19689 0.07777 0.0
H1847 H 0.52534 0.34321 0.08432 0.0
H1848 H 0.45271 0.24347 0.11128 0.0
H1849 H 0.58453 0.29339 0.10628 0.0
H1850 H 0.49774 0.30732 0.0791 0.0
H1851 H 0.53549 0.23345 0.07291 0.0
C1852 C 0.50164 0.21494 0.08342 0.0
C1853 C 0.47838 0.21726 0.09494 0.0
C1854 C 0.51692 0.30433 0.08462 0.0
C1855 C 0.50893 0.25883 0.08923 0.0
C1856 C 0.53274 0.32468 0.08746 0.0
C1857 C 0.55726 0.32118 0.09579 0.0
C1858 C 0.52591 0.28034 0.08949 0.0
C1859 C 0.56574 0.29681 0.0999 0.0
C1860 C 0.5171 0.23564 0.08083 0.0
C1861 C 0.47051 0.24098 0.10231 0.0
N1862 N 0.55004 0.2772 0.09666 0.0
N1863 N 0.4858 0.26096 0.09932 0.0
H1864 H 0.96669 0.73777 0.29958 0.0
H1865 H 0.06958 0.80933 0.22191 0.0
H1866 H 0.97197 0.73447 0.22253 0.0
H1867 H 0.07551 0.80051 0.29851 0.0
H1868 H 0.03102 0.78537 0.22266 0.0
H1869 H 1.00519 0.76236 0.30033 0.0
C1870 C 0.97613 0.74188 0.28286 0.0
C1871 C 0.96601 0.73422 0.26094 0.0
C1872 C 0.04067 0.78875 0.23934 0.0
C1873 C 1.0096 0.7627 0.26166 0.0
C1874 C 0.0626 0.80263 0.23896 0.0
C1875 C 0.07591 0.80671 0.26015 0.0
C1876 C 0.03191 0.77892 0.26109 0.0
C1877 C 0.06587 0.79771 0.28173 0.0
C1878 C 0.99798 0.75606 0.2833 0.0
C1879 C 0.97898 0.74011 0.23983 0.0
N1880 N 0.0445 0.78405 0.28164 0.0
N1881 N 0.99996 0.75419 0.24072 0.0
H1882 H 0.5727 0.72182 0.51945 0.0
H1883 H 0.47609 0.82503 0.56413 0.0
H1884 H 0.52832 0.71106 0.58332 0.0
H1885 H 0.49792 0.81499 0.49032 0.0
H1886 H 0.49921 0.7869 0.57453 0.0
H1887 H 0.55116 0.76122 0.51244 0.0
C1888 C 0.55875 0.72793 0.53227 0.0
C1889 C 0.55206 0.71293 0.55185 0.0
C1890 C 0.49872 0.79306 0.55607 0.0
C1891 C 0.52718 0.75794 0.54372 0.0
C1892 C 0.48547 0.81468 0.5501 0.0
C1893 C 0.4851 0.8232 0.52633 0.0
C1894 C 0.512 0.78025 0.5382 0.0
C1895 C 0.49763 0.80913 0.50886 0.0
C1896 C 0.54629 0.75032 0.5281 0.0
C1897 C 0.5339 0.72195 0.56789 0.0
N1898 N 0.51077 0.78851 0.51519 0.0
N1899 N 0.52192 0.74385 0.56338 0.0
H1900 H 0.49989 0.20799 0.77837 0.0
H1901 H 0.54793 0.3432 0.78355 0.0
H1902 H 0.4514 0.26556 0.80621 0.0
H1903 H 0.59634 0.28328 0.80644 0.0
H1904 H 0.5118 0.31562 0.78915 0.0
H1905 H 0.53595 0.23519 0.78564 0.0
C1906 C 0.49689 0.22614 0.78636 0.0
C1907 C 0.47268 0.23455 0.79168 0.0
C1908 C 0.53033 0.30877 0.79342 0.0
C1909 C 0.51349 0.26578 0.79936 0.0
C1910 C 0.55088 0.32446 0.79026 0.0
C1911 C 0.57509 0.31551 0.79456 0.0
C1912 C 0.53422 0.28383 0.80015 0.0
C1913 C 0.57796 0.29099 0.80306 0.0
C1914 C 0.51741 0.24158 0.79054 0.0
C1915 C 0.46977 0.25829 0.80194 0.0
N1916 N 0.5578 0.27578 0.80503 0.0
N1917 N 0.4899 0.27332 0.80497 0.0
H1918 H 0.97878 0.32337 1.06221 0.0
H1919 H 0.07656 0.22036 1.0194 0.0
H1920 H 1.00369 0.31445 0.98916 0.0
H1921 H 0.02789 0.20744 0.07996 0.0
H1922 H 0.05631 0.26056 1.01303 0.0
H1923 H 1.00141 0.28498 0.07293 0.0
C1924 C 0.98878 0.31324 1.04842 0.0
C1925 C 0.98933 0.32207 1.02476 0.0
C1926 C 0.05024 0.249 1.02785 0.0
C1927 C 1.01567 0.2789 1.03701 0.0
C1928 C 0.06194 0.22614 1.03166 0.0
C1929 C 0.05363 0.2103 1.05003 0.0
C1930 C 0.03028 0.25624 1.04263 0.0
C1931 C 0.0347 0.21896 1.06543 0.0
C1932 C 1.00174 0.29148 1.05457 0.0
C1933 C 1.00263 0.30831 1.00759 0.0
N1934 N 0.02347 0.24133 1.06127 0.0
N1935 N 1.01546 0.28756 1.01411 0.0
H1936 H 0.07687 0.7243 0.81237 0.0
H1937 H 0.97324 0.82056 0.76831 0.0
H1938 H 0.06587 0.74529 0.7385 0.0
H1939 H 0.96228 0.77606 0.83197 0.0
H1940 H 1.01268 0.79898 0.76116 0.0
H1941 H 0.03867 0.74733 0.82302 0.0
C1942 C 0.06628 0.73346 0.79838 0.0
C1943 C 0.07456 0.7329 0.77452 0.0
C1944 C 1.00172 0.7941 0.77681 0.0
C1945 C 0.03157 0.75972 0.78666 0.0
C1946 C 0.97931 0.80659 0.78107 0.0
C1947 C 0.96424 0.79986 0.80061 0.0
C1948 C 1.00928 0.77494 0.79232 0.0
C1949 C 0.97322 0.78167 0.81656 0.0
C1950 C 0.04463 0.74667 0.80449 0.0
C1951 C 0.0602 0.74515 0.75711 0.0
N1952 N 0.99515 0.76966 0.81198 0.0
N1953 N 0.03957 0.75828 0.76357 0.0
H1954 H 0.08957 0.29337 0.53389 0.0
H1955 H 0.95367 0.24776 0.53429 0.0
H1956 H 0.03164 0.34263 0.55983 0.0
H1957 H 1.01176 0.19825 0.55935 0.0
H1958 H 0.98147 0.28327 0.54158 0.0
H1959 H 0.06174 0.2578 0.54112 0.0
C1960 C 0.07124 0.29662 0.5416 0.0
C1961 C 0.06289 0.32092 0.54626 0.0
C1962 C 0.98784 0.26463 0.54596 0.0
C1963 C 0.03088 0.28066 0.55377 0.0
C1964 C 0.97203 0.24443 0.54181 0.0
C1965 C 0.98043 0.22008 0.54619 0.0
C1966 C 1.0124 0.26029 0.55378 0.0
C1967 C 1.00447 0.21674 0.5558 0.0
C1968 C 0.05541 0.27639 0.54571 0.0
C1969 C 0.03888 0.32417 0.55609 0.0
N1970 N 1.01986 0.23658 0.55873 0.0
N1971 N 0.02347 0.30431 0.55898 0.0
H1972 H 0.47249 0.3138 0.22285 0.0
H1973 H 0.57427 0.23983 0.2999 0.0
H1974 H 0.46384 0.30062 0.29866 0.0
H1975 H 0.57192 0.24068 0.22268 0.0
H1976 H 0.53519 0.26379 0.30073 0.0
H1977 H 0.51161 0.29048 0.22357 0.0
C1978 C 0.47896 0.30623 0.23972 0.0
C1979 C 0.46475 0.30893 0.26068 0.0
C1980 C 0.54318 0.25855 0.28364 0.0
C1981 C 0.50943 0.28191 0.26157 0.0
C1982 C 0.56538 0.24474 0.28315 0.0
C1983 C 0.57645 0.23839 0.26118 0.0
C1984 C 0.53218 0.26614 0.26202 0.0
C1985 C 0.56416 0.24529 0.24003 0.0
C1986 C 0.50122 0.29275 0.24009 0.0
C1987 C 0.47418 0.29889 0.28206 0.0
N1988 N 0.54282 0.25895 0.24099 0.0
N1989 N 0.4959 0.28565 0.28195 0.0
H1990 H 0.5673 0.82152 1.06155 0.0
H1991 H 0.47267 0.71781 1.01585 0.0
H1992 H 0.54345 0.8144 0.98813 0.0
H1993 H 0.51947 0.70543 0.07763 0.0
H1994 H 0.493 0.75788 1.00952 0.0
H1995 H 0.54592 0.78223 0.07097 0.0
C1996 C 0.55782 0.81159 1.04739 0.0
C1997 C 0.55712 0.82124 1.02403 0.0
C1998 C 0.4987 0.74645 1.02455 0.0
C1999 C 0.53223 0.77692 1.03481 0.0
C2000 C 0.48695 0.72366 1.02833 0.0
C2001 C 0.49461 0.70808 1.04715 0.0
C2002 C 0.51805 0.75389 1.03982 0.0
C2003 C 0.51314 0.71678 1.06279 0.0
C2004 C 0.54557 0.78928 1.0528 0.0
C2005 C 0.54453 0.80766 1.00637 0.0
N2006 N 0.52437 0.73911 1.05871 0.0
N2007 N 0.53238 0.78634 1.01219 0.0
H2008 H 0.99533 0.20271 0.86089 0.0
H2009 H 0.05019 0.33533 0.86591 0.0
H2010 H 0.94975 0.26434 0.83688 0.0
H2011 H 0.0946 0.27658 0.83441 0.0
H2012 H 1.01267 0.3096 0.86037 0.0
H2013 H 0.03262 0.229 0.85617 0.0
C2014 C 0.99326 0.2216 0.85428 0.0
C2015 C 0.96956 0.23139 0.84917 0.0
C2016 C 0.03065 0.30264 0.85435 0.0
C2017 C 1.01162 0.26149 0.84455 0.0
C2018 C 0.05195 0.31722 0.85753 0.0
C2019 C 0.0754 0.30805 0.85054 0.0
C2020 C 0.0331 0.27853 0.84491 0.0
C2021 C 0.0768 0.2844 0.83988 0.0
C2022 C 1.01443 0.23651 0.85158 0.0
C2023 C 0.96775 0.25604 0.84081 0.0
N2024 N 0.05597 0.27019 0.83783 0.0
N2025 N 0.98849 0.27047 0.83923 0.0
H2026 H 0.47664 0.32677 0.57436 0.0
H2027 H 0.56866 0.21962 0.62016 0.0
H2028 H 0.50028 0.31853 0.64777 0.0
H2029 H 0.52486 0.21166 0.55583 0.0
H2030 H 0.54883 0.25992 0.62727 0.0
H2031 H 0.49787 0.28742 0.5647 0.0
C2032 C 0.48607 0.31659 0.58847 0.0
C2033 C 0.48671 0.32594 0.6119 0.0
C2034 C 0.54368 0.24942 0.61152 0.0
C2035 C 0.51141 0.28144 0.60086 0.0
C2036 C 0.55517 0.2265 0.6073 0.0
C2037 C 0.54823 0.21212 0.58747 0.0
C2038 C 0.52529 0.25816 0.5957 0.0
C2039 C 0.53063 0.22207 0.57143 0.0
C2040 C 0.49824 0.29423 0.58292 0.0
C2041 C 0.49923 0.31203 0.62948 0.0
N2042 N 0.51965 0.24447 0.57596 0.0
N2043 N 0.51126 0.29061 0.62355 0.0
H2044 H 0.46765 0.73959 0.33266 0.0
H2045 H 0.56944 0.81197 0.41009 0.0
H2046 H 0.47288 0.73594 0.40969 0.0
H2047 H 0.57698 0.80208 0.33374 0.0
H2048 H 0.53094 0.78793 0.40923 0.0
H2049 H 0.50603 0.76445 0.33177 0.0
C2050 C 0.47705 0.74368 0.34934 0.0
C2051 C 0.46697 0.73582 0.3713 0.0
C2052 C 0.54093 0.79109 0.39263 0.0
C2053 C 0.51038 0.76462 0.37041 0.0
C2054 C 0.56283 0.80501 0.39307 0.0
C2055 C 0.57658 0.80882 0.37199 0.0
C2056 C 0.53262 0.78094 0.37094 0.0
C2057 C 0.56699 0.79949 0.35043 0.0
C2058 C 0.49882 0.75801 0.34881 0.0
C2059 C 0.47987 0.74172 0.39235 0.0
N2060 N 0.54563 0.7858 0.35047 0.0
N2061 N 0.50075 0.75594 0.39138 0.0
H2062 H 0.99295 0.81261 0.14442 0.0
H2063 H 0.02942 0.71082 1.04762 0.0
H2064 H 0.97694 0.82411 0.0695 0.0
H2065 H 0.06888 0.72054 0.11426 0.0
H2066 H 1.00695 0.74997 1.05513 0.0
H2067 H 1.01603 0.77489 0.13417 0.0
C2068 C 0.99396 0.80703 0.12582 0.0
C2069 C 0.98313 0.82163 0.10776 0.0
C2070 C 1.02077 0.7436 0.0679 0.0
C2071 C 1.00978 0.77856 0.09592 0.0
C2072 C 0.03369 0.72138 1.06359 0.0
C2073 C 0.05089 0.71227 0.08044 0.0
C2074 C 0.02485 0.75647 0.08936 0.0
C2075 C 0.05571 0.72672 0.10081 0.0
C2076 C 1.0074 0.78563 0.11998 0.0
C2077 C 0.98511 0.81343 0.08397 0.0
N2078 N 0.04247 0.74789 0.10487 0.0
N2079 N 0.99826 0.79239 0.0787 0.0
H2080 H 0.13724 0.17127 0.11992 0.0
H2081 H 0.12134 0.14749 0.26075 0.0
H2082 H 0.09629 0.10938 0.14989 0.0
H2083 H 0.17808 0.19499 0.23015 0.0
H2084 H 0.10506 0.13984 0.22054 0.0
H2085 H 0.14521 0.18647 0.16045 0.0
C2086 C 0.12954 0.16109 0.13498 0.0
C2087 C 0.11628 0.13885 0.13148 0.0
C2088 C 0.12089 0.15216 0.22267 0.0
C2089 C 0.12542 0.15616 0.17794 0.0
C2090 C 0.13014 0.15665 0.24564 0.0
C2091 C 0.15129 0.17172 0.24884 0.0
C2092 C 0.13273 0.16297 0.20274 0.0
C2093 C 0.16188 0.18306 0.22854 0.0
C2094 C 0.13423 0.16973 0.15813 0.0
C2095 C 0.1068 0.12648 0.15173 0.0
N2096 N 0.1526 0.17834 0.20637 0.0
N2097 N 0.11169 0.1352 0.17407 0.0
H2098 H 0.09262 0.92809 0.48146 0.0
H2099 H 0.17764 0.84132 0.39981 0.0
H2100 H 0.13842 0.86884 0.51005 0.0
H2101 H 0.11875 0.88771 0.37134 0.0
H2102 H 0.16204 0.84942 0.44022 0.0
H2103 H 0.10015 0.9121 0.44114 0.0
C2104 C 0.10398 0.9115 0.4793 0.0
C2105 C 0.11505 0.89991 0.4992 0.0
C2106 C 0.15229 0.85756 0.42514 0.0
C2107 C 0.12408 0.88168 0.45293 0.0
C2108 C 0.16121 0.85295 0.40202 0.0
C2109 C 0.14961 0.86399 0.38212 0.0
C2110 C 0.13182 0.87366 0.42849 0.0
C2111 C 0.12832 0.87881 0.38613 0.0
C2112 C 0.10828 0.90237 0.45624 0.0
C2113 C 0.12952 0.87841 0.49527 0.0
N2114 N 0.12034 0.8835 0.40885 0.0
N2115 N 0.13392 0.87022 0.47259 0.0
H2116 H 0.36355 0.84453 0.7328 0.0
H2117 H 0.44681 0.93186 0.65032 0.0
H2118 H 0.42216 0.89116 0.76074 0.0
H2119 H 0.4038 0.87068 0.62224 0.0
H2120 H 0.43915 0.91634 0.69085 0.0
H2121 H 0.3789 0.85268 0.69226 0.0
C2122 C 0.37985 0.85622 0.73045 0.0
C2123 C 0.39146 0.86731 0.75024 0.0
C2124 C 0.43166 0.9061 0.67582 0.0
C2125 C 0.40893 0.87703 0.70377 0.0
C2126 C 0.43602 0.91497 0.65265 0.0
C2127 C 0.42581 0.90265 0.63283 0.0
C2128 C 0.41661 0.88496 0.67929 0.0
C2129 C 0.41204 0.8808 0.63697 0.0
C2130 C 0.38862 0.86086 0.70727 0.0
C2131 C 0.41257 0.88224 0.74606 0.0
N2132 N 0.40754 0.87286 0.65973 0.0
N2133 N 0.4204 0.88694 0.7233 0.0
H2134 H 0.42612 0.15197 0.87392 0.0
H2135 H 0.40671 0.17305 1.01466 0.0
H2136 H 0.36771 0.19809 0.90386 0.0
H2137 H 0.44849 0.11156 0.98478 0.0
H2138 H 0.39948 0.18892 0.97415 0.0
H2139 H 0.44152 0.1437 0.91437 0.0
C2140 C 0.41677 0.16072 0.88894 0.0
C2141 C 0.39541 0.17557 0.88547 0.0
C2142 C 0.41049 0.17212 0.9765 0.0
C2143 C 0.41297 0.16611 0.93185 0.0
C2144 C 0.41475 0.16311 0.99964 0.0
C2145 C 0.42804 0.14078 1.00314 0.0
C2146 C 0.41976 0.15887 0.95671 0.0
C2147 C 0.43795 0.12871 0.98293 0.0
C2148 C 0.42551 0.15587 0.91205 0.0
C2149 C 0.38409 0.18636 0.90568 0.0
N2150 N 0.43349 0.13781 0.9606 0.0
N2151 N 0.3929 0.1813 0.92799 0.0
H2152 H 0.94991 0.92723 0.98135 0.0
H2153 H 0.86527 0.84103 0.89976 0.0
H2154 H 0.90512 0.86733 1.00988 0.0
H2155 H 0.924 0.88739 0.87114 0.0
H2156 H 0.8809 0.84888 0.94011 0.0
H2157 H 0.94226 0.91164 0.94095 0.0
C2158 C 0.93874 0.91059 0.97915 0.0
C2159 C 0.928 0.89869 0.99907 0.0
C2160 C 0.8906 0.85707 0.925 0.0
C2161 C 0.91883 0.88092 0.95273 0.0
C2162 C 0.88167 0.8526 0.90193 0.0
C2163 C 0.89322 0.86371 0.882 0.0
C2164 C 0.91103 0.8731 0.92829 0.0
C2165 C 0.91447 0.87846 0.88594 0.0
C2166 C 0.93438 0.90168 0.95605 0.0
C2167 C 0.91377 0.87713 0.99509 0.0
N2168 N 0.92245 0.88301 0.90863 0.0
N2169 N 0.90929 0.86917 0.97238 0.0
H2170 H 0.90558 0.17546 0.62039 0.0
H2171 H 0.92331 0.15098 0.76084 0.0
H2172 H 0.94969 0.11513 0.64938 0.0
H2173 H 0.86378 0.19585 0.73131 0.0
H2174 H 0.9397 0.14448 0.72039 0.0
H2175 H 0.89687 0.18978 0.66115 0.0
C2176 C 0.91381 0.16547 0.63528 0.0
C2177 C 0.92821 0.1439 0.63143 0.0
C2178 C 0.92321 0.15597 0.72281 0.0
C2179 C 0.91823 0.16019 0.67816 0.0
C2180 C 0.91389 0.15981 0.74592 0.0
C2181 C 0.89196 0.1738 0.74949 0.0
C2182 C 0.91066 0.16636 0.7031 0.0
C2183 C 0.8806 0.18475 0.72941 0.0
C2184 C 0.9087 0.17359 0.65856 0.0
C2185 C 0.93832 0.13171 0.65148 0.0
N2186 N 0.88998 0.18068 0.70709 0.0
N2187 N 0.93302 0.13993 0.67396 0.0
H2188 H 0.64024 0.1719 0.51218 0.0
H2189 H 0.61915 0.15211 0.37159 0.0
H2190 H 0.59692 0.1117 0.48259 0.0
H2191 H 0.67819 0.19716 0.40108 0.0
H2192 H 0.6039 0.14393 0.41221 0.0
H2193 H 0.64722 0.18793 0.47167 0.0
C2194 C 0.63184 0.16227 0.49723 0.0
C2195 C 0.61818 0.14025 0.5008 0.0
C2196 C 0.62 0.15585 0.40975 0.0
C2197 C 0.62616 0.15852 0.45436 0.0
C2198 C 0.62865 0.16066 0.38656 0.0
C2199 C 0.65015 0.17516 0.38292 0.0
C2200 C 0.6328 0.16579 0.42946 0.0
C2201 C 0.6617 0.18568 0.40304 0.0
C2202 C 0.63595 0.17137 0.47409 0.0
C2203 C 0.60777 0.12859 0.48068 0.0
N2204 N 0.65298 0.18067 0.42542 0.0
N2205 N 0.6121 0.13777 0.45834 0.0
H2206 H 0.67888 0.84252 0.23398 0.0
H2207 H 0.5953 0.92923 0.15138 0.0
H2208 H 0.62045 0.88982 0.26208 0.0
H2209 H 0.63838 0.86756 0.12364 0.0
H2210 H 0.60284 0.914 0.192 0.0
H2211 H 0.66315 0.85005 0.19356 0.0
C2212 C 0.66252 0.85422 0.23169 0.0
C2213 C 0.65109 0.86569 0.25147 0.0
C2214 C 0.61036 0.90358 0.17703 0.0
C2215 C 0.63318 0.87473 0.20512 0.0
C2216 C 0.60607 0.91229 0.15381 0.0
C2217 C 0.61637 0.89976 0.13405 0.0
C2218 C 0.62541 0.88241 0.18062 0.0
C2219 C 0.6301 0.87784 0.13832 0.0
C2220 C 0.65353 0.85851 0.20858 0.0
C2221 C 0.62989 0.8806 0.24738 0.0
N2222 N 0.63453 0.87008 0.16113 0.0
N2223 N 0.62186 0.88499 0.22466 0.0
H2224 H 0.59334 0.61433 0.65079 0.0
H2225 H 0.68122 0.69677 0.7327 0.0
H2226 H 0.6404 0.67256 0.6224 0.0
H2227 H 0.62033 0.65304 0.76102 0.0
H2228 H 0.66539 0.6897 0.69227 0.0
H2229 H 0.60149 0.62957 0.69121 0.0
C2230 C 0.60512 0.63055 0.65302 0.0
C2231 C 0.61634 0.64207 0.63315 0.0
C2232 C 0.65527 0.68194 0.70734 0.0
C2233 C 0.6261 0.6594 0.67951 0.0
C2234 C 0.66432 0.68596 0.73045 0.0
C2235 C 0.65221 0.67534 0.75031 0.0
C2236 C 0.63415 0.66685 0.70396 0.0
C2237 C 0.63033 0.66157 0.74628 0.0
C2238 C 0.60976 0.63925 0.67614 0.0
C2239 C 0.63136 0.66307 0.63717 0.0
N2240 N 0.62222 0.65743 0.72356 0.0
N2241 N 0.6361 0.67083 0.65989 0.0
H2242 H 0.61827 0.38648 0.87004 0.0
H2243 H 0.63934 0.36587 1.01061 0.0
H2244 H 0.67821 0.3421 0.8995 0.0
H2245 H 0.59485 0.42565 0.9811 0.0
H2246 H 0.64681 0.35029 0.97008 0.0
H2247 H 0.60276 0.3941 0.91064 0.0
C2248 C 0.62793 0.37796 0.88499 0.0
C2249 C 0.64975 0.36382 0.88134 0.0
C2250 C 0.63517 0.36664 0.97251 0.0
C2251 C 0.63208 0.37255 0.92788 0.0
C2252 C 0.63077 0.37549 0.99567 0.0
C2253 C 0.61663 0.39727 0.99928 0.0
C2254 C 0.62519 0.37952 0.9528 0.0
C2255 C 0.60605 0.40893 0.97917 0.0
C2256 C 0.61913 0.38245 0.90818 0.0
C2257 C 0.66147 0.35331 0.90145 0.0
N2258 N 0.61067 0.40001 0.95681 0.0
N2259 N 0.65259 0.35801 0.92384 0.0
H2260 H 0.94754 0.4333 0.15059 0.0
H2261 H 0.86466 0.34441 0.23179 0.0
H2262 H 0.90704 0.37052 0.12229 0.0
H2263 H 0.92108 0.39286 0.26097 0.0
H2264 H 0.881 0.35261 0.19165 0.0
H2265 H 0.9394 0.41797 0.19113 0.0
C2266 C 0.93721 0.41611 0.15287 0.0
C2267 C 0.9278 0.40329 0.13297 0.0
C2268 C 0.89004 0.36119 0.20684 0.0
C2269 C 0.9181 0.38582 0.17941 0.0
C2270 C 0.8807 0.35652 0.22979 0.0
C2271 C 0.8914 0.36809 0.24979 0.0
C2272 C 0.90998 0.3779 0.20376 0.0
C2273 C 0.91222 0.38355 0.24609 0.0
C2274 C 0.93259 0.40736 0.17604 0.0
C2275 C 0.91462 0.38107 0.13706 0.0
N2276 N 0.92059 0.38829 0.22351 0.0
N2277 N 0.90986 0.37324 0.1598 0.0
H2278 H 0.90367 0.67215 0.51159 0.0
H2279 H 0.92418 0.65238 0.37072 0.0
H2280 H 0.94856 0.61292 0.48162 0.0
H2281 H 0.86391 0.69595 0.40078 0.0
H2282 H 0.93986 0.64457 0.4112 0.0
H2283 H 0.89567 0.68772 0.47109 0.0
C2284 C 0.91221 0.66266 0.49655 0.0
C2285 C 0.92663 0.64104 0.50003 0.0
C2286 C 0.92337 0.65608 0.40889 0.0
C2287 C 0.91748 0.65876 0.4536 0.0
C2288 C 0.91448 0.66068 0.38577 0.0
C2289 C 0.89255 0.67467 0.38233 0.0
C2290 C 0.9104 0.66574 0.42873 0.0
C2291 C 0.88075 0.68488 0.40258 0.0
C2292 C 0.90751 0.67149 0.47342 0.0
C2293 C 0.93715 0.62951 0.4798 0.0
N2294 N 0.88973 0.6801 0.42488 0.0
N2295 N 0.93225 0.63842 0.45747 0.0
H2296 H 0.44566 0.43288 0.4821 0.0
H2297 H 0.36082 0.34531 0.40238 0.0
H2298 H 0.4026 0.37225 0.5117 0.0
H2299 H 0.41995 0.39047 0.37271 0.0
H2300 H 0.37671 0.35385 0.44253 0.0
H2301 H 0.4376 0.41683 0.44192 0.0
C2302 C 0.43478 0.41601 0.48018 0.0
C2303 C 0.42465 0.40401 0.50032 0.0
C2304 C 0.38643 0.36161 0.42722 0.0
C2305 C 0.41502 0.38573 0.45431 0.0
C2306 C 0.37735 0.35675 0.40428 0.0
C2307 C 0.38895 0.36733 0.38413 0.0
C2308 C 0.40703 0.3775 0.43011 0.0
C2309 C 0.41036 0.38195 0.3877 0.0
C2310 C 0.4302 0.40684 0.45722 0.0
C2311 C 0.41076 0.38216 0.49672 0.0
N2312 N 0.41848 0.3869 0.41024 0.0
N2313 N 0.40606 0.37393 0.47416 0.0
H2314 H 0.42645 0.65526 0.26468 0.0
H2315 H 0.44641 0.60425 0.15205 0.0
H2316 H 0.36087 0.68732 0.23181 0.0
H2317 H 0.40438 0.66691 0.12485 0.0
H2318 H 0.43939 0.61931 0.19267 0.0
H2319 H 0.44293 0.64553 0.22492 0.0
C2320 C 0.4156 0.66046 0.24911 0.0
C2321 C 0.39205 0.67181 0.25164 0.0
C2322 C 0.43226 0.6302 0.17786 0.0
C2323 C 0.41053 0.66012 0.206 0.0
C2324 C 0.43611 0.62147 0.15459 0.0
C2325 C 0.42598 0.63432 0.13496 0.0
C2326 C 0.41797 0.65189 0.18161 0.0
C2327 C 0.41264 0.65644 0.13941 0.0
C2328 C 0.4249 0.6546 0.22638 0.0
C2329 C 0.37896 0.67828 0.23076 0.0
N2330 N 0.4087 0.6643 0.16226 0.0
N2331 N 0.38832 0.67224 0.20885 0.0
H2332 H 0.1388 0.6751 1.01002 0.0
H2333 H 0.11957 0.65483 0.86916 0.0
H2334 H 0.0947 0.61564 0.98013 0.0
H2335 H 0.17962 0.69814 0.89917 0.0
H2336 H 0.10357 0.64727 0.90964 0.0
H2337 H 0.14701 0.69055 0.96947 0.0
C2338 C 0.13045 0.66554 0.99499 0.0
C2339 C 0.11621 0.64388 0.9985 0.0
C2340 C 0.12008 0.65867 0.90732 0.0
C2341 C 0.12561 0.66146 0.95203 0.0
C2342 C 0.12916 0.66312 0.8842 0.0
C2343 C 0.15112 0.67696 0.88074 0.0
C2344 C 0.13289 0.66833 0.92715 0.0
C2345 C 0.16276 0.68717 0.90098 0.0
C2346 C 0.13528 0.6743 0.97183 0.0
C2347 C 0.10597 0.63227 0.97828 0.0
N2348 N 0.1536 0.68254 0.92329 0.0
N2349 N 0.11098 0.6411 0.95594 0.0
H2350 H 0.13632 0.36553 0.62178 0.0
H2351 H 0.12144 0.39099 0.76235 0.0
H2352 H 0.09484 0.42751 0.65111 0.0
H2353 H 0.17912 0.34426 0.73199 0.0
H2354 H 0.10462 0.39785 0.72217 0.0
H2355 H 0.14503 0.35102 0.66249 0.0
C2356 C 0.12865 0.37586 0.63674 0.0
C2357 C 0.11501 0.39793 0.633 0.0
C2358 C 0.12078 0.38587 0.72436 0.0
C2359 C 0.125 0.38141 0.67965 0.0
C2360 C 0.13034 0.38182 0.74731 0.0
C2361 C 0.1519 0.36721 0.75055 0.0
C2362 C 0.13271 0.37505 0.70448 0.0
C2363 C 0.16261 0.35585 0.73033 0.0
C2364 C 0.13377 0.36762 0.65999 0.0
C2365 C 0.10561 0.41053 0.65313 0.0
N2366 N 0.15301 0.36012 0.70817 0.0
N2367 N 0.11091 0.40219 0.67557 0.0
loop_
_geom_bond_atom_site_label_1
_geom_bond_atom_site_label_2
_geom_bond_distance
_geom_bond_site_symmetry_2
_ccdc_geom_bond_type
O0 Tb1 2.506 . S
O0 C14 1.265 . S
Tb1 O0 2.506 . S
Tb1 O6 2.312 . S
Tb1 O10 2.271 . S
Tb1 O12 2.338 . S
Tb1 O19 2.441 . S
C2 O10 1.252 . S
C2 O11 1.253 . S
O3 Tb4 2.271 . S
O3 C13 1.252 . S
Tb4 O3 2.271 . S
Tb4 O7 2.338 . S
Tb4 O11 2.312 . S
Tb4 O15 2.441 . S
Tb4 O16 2.506 . S
C5 O15 1.244 . S
C5 O16 1.265 . S
O6 Tb1 2.312 . S
O6 C13 1.253 . S
O7 Tb4 2.338 . S
O7 C8 1.258 . S
C8 O7 1.258 . S
C8 O9 1.251 . S
O9 C8 1.251 . S
O10 Tb1 2.271 . S
O10 C2 1.252 . S
O11 C2 1.253 . S
O11 Tb4 2.312 . S
O12 Tb1 2.338 . S
O12 C17 1.258 . S
C13 O3 1.252 . S
C13 O6 1.253 . S
C14 O0 1.265 . S
C14 O19 1.244 . S
O15 Tb4 2.441 . S
O15 C5 1.244 . S
O16 Tb4 2.506 . S
O16 C5 1.265 . S
C17 O12 1.258 . S
C17 O18 1.251 . S
O18 C17 1.251 . S
O19 Tb1 2.441 . S
O19 C14 1.244 . S
O20 Tb21 2.506 . S
O20 C34 1.265 . S
Tb21 O20 2.506 . S
Tb21 O26 2.312 . S
Tb21 O30 2.271 . S
Tb21 O32 2.338 . S
Tb21 O39 2.441 . S
C22 O30 1.252 . S
C22 O31 1.253 . S
O23 Tb24 2.271 . S
O23 C33 1.252 . S
Tb24 O23 2.271 . S
Tb24 O27 2.338 . S
Tb24 O31 2.312 . S
Tb24 O35 2.441 . S
Tb24 O36 2.506 . S
C25 O35 1.244 . S
C25 O36 1.265 . S
O26 Tb21 2.312 . S
O26 C33 1.253 . S
O27 Tb24 2.338 . S
O27 C28 1.258 . S
C28 O27 1.258 . S
C28 O29 1.251 . S
O29 C28 1.251 . S
O30 Tb21 2.271 . S
O30 C22 1.252 . S
O31 C22 1.253 . S
O31 Tb24 2.312 . S
O32 Tb21 2.338 . S
O32 C37 1.258 . S
C33 O23 1.252 . S
C33 O26 1.253 . S
C34 O20 1.265 . S
C34 O39 1.244 . S
O35 Tb24 2.441 . S
O35 C25 1.244 . S
O36 Tb24 2.506 . S
O36 C25 1.265 . S
C37 O32 1.258 . S
C37 O38 1.251 . S
O38 C37 1.251 . S
O39 Tb21 2.441 . S
O39 C34 1.244 . S
O40 Tb41 2.506 . S
O40 C54 1.265 . S
Tb41 O40 2.506 . S
Tb41 O46 2.312 . S
Tb41 O50 2.271 . S
Tb41 O52 2.338 . S
Tb41 O59 2.441 . S
C42 O50 1.252 . S
C42 O51 1.253 . S
O43 Tb44 2.271 . S
O43 C53 1.252 . S
Tb44 O43 2.271 . S
Tb44 O47 2.338 . S
Tb44 O51 2.312 . S
Tb44 O55 2.441 . S
Tb44 O56 2.506 . S
C45 O55 1.244 . S
C45 O56 1.265 . S
O46 Tb41 2.312 . S
O46 C53 1.253 . S
O47 Tb44 2.338 . S
O47 C48 1.258 . S
C48 O47 1.258 . S
C48 O49 1.251 . S
O49 C48 1.251 . S
O50 Tb41 2.271 . S
O50 C42 1.252 . S
O51 C42 1.253 . S
O51 Tb44 2.312 . S
O52 Tb41 2.338 . S
O52 C57 1.258 . S
C53 O43 1.252 . S
C53 O46 1.253 . S
C54 O40 1.265 . S
C54 O59 1.244 . S
O55 Tb44 2.441 . S
O55 C45 1.244 . S
O56 Tb44 2.506 . S
O56 C45 1.265 . S
C57 O52 1.258 . S
C57 O58 1.251 . S
O58 C57 1.251 . S
O59 Tb41 2.441 . S
O59 C54 1.244 . S
O60 Tb61 2.506 . S
O60 C74 1.265 . S
Tb61 O60 2.506 . S
Tb61 O66 2.312 . S
Tb61 O70 2.271 . S
Tb61 O72 2.338 1_554 S
Tb61 O79 2.441 . S
C62 O70 1.252 . S
C62 O71 1.253 . S
O63 Tb64 2.271 . S
O63 C73 1.252 . S
Tb64 O63 2.271 . S
Tb64 O67 2.338 . S
Tb64 O71 2.312 . S
Tb64 O75 2.441 . S
Tb64 O76 2.506 . S
C65 O75 1.244 . S
C65 O76 1.265 . S
O66 Tb61 2.312 . S
O66 C73 1.253 . S
O67 Tb64 2.338 . S
O67 C68 1.258 . S
C68 O67 1.258 . S
C68 O69 1.251 . S
O69 C68 1.251 . S
O70 Tb61 2.271 . S
O70 C62 1.252 . S
O71 C62 1.253 . S
O71 Tb64 2.312 . S
O72 Tb61 2.338 1_556 S
O72 C77 1.258 . S
C73 O63 1.252 . S
C73 O66 1.253 . S
C74 O60 1.265 . S
C74 O79 1.244 . S
O75 Tb64 2.441 . S
O75 C65 1.244 . S
O76 Tb64 2.506 . S
O76 C65 1.265 . S
C77 O72 1.258 . S
C77 O78 1.251 . S
O78 C77 1.251 . S
O79 Tb61 2.441 . S
O79 C74 1.244 . S
O80 Tb81 2.506 . S
O80 C94 1.265 . S
Tb81 O80 2.506 . S
Tb81 O86 2.312 . S
Tb81 O90 2.271 . S
Tb81 O92 2.338 . S
Tb81 O99 2.441 . S
C82 O90 1.252 . S
C82 O91 1.253 . S
O83 Tb84 2.271 . S
O83 C93 1.252 . S
Tb84 O83 2.271 . S
Tb84 O87 2.338 . S
Tb84 O91 2.312 . S
Tb84 O95 2.441 . S
Tb84 O96 2.506 . S
C85 O95 1.244 . S
C85 O96 1.265 . S
O86 Tb81 2.312 . S
O86 C93 1.253 . S
O87 Tb84 2.338 . S
O87 C88 1.258 . S
C88 O87 1.258 . S
C88 O89 1.251 . S
O89 C88 1.251 . S
O90 Tb81 2.271 . S
O90 C82 1.252 . S
O91 C82 1.253 . S
O91 Tb84 2.312 . S
O92 Tb81 2.338 . S
O92 C97 1.258 . S
C93 O83 1.252 . S
C93 O86 1.253 . S
C94 O80 1.265 . S
C94 O99 1.244 . S
O95 Tb84 2.441 . S
O95 C85 1.244 . S
O96 Tb84 2.506 . S
O96 C85 1.265 . S
C97 O92 1.258 . S
C97 O98 1.251 . S
O98 C97 1.251 . S
O99 Tb81 2.441 . S
O99 C94 1.244 . S
O100 Tb101 2.506 . S
O100 C114 1.265 . S
Tb101 O100 2.506 . S
Tb101 O106 2.312 . S
Tb101 O110 2.271 . S
Tb101 O112 2.338 . S
Tb101 O119 2.441 . S
C102 O110 1.252 . S
C102 O111 1.253 . S
O103 Tb104 2.271 . S
O103 C113 1.252 . S
Tb104 O103 2.271 . S
Tb104 O107 2.338 . S
Tb104 O111 2.312 . S
Tb104 O115 2.441 . S
Tb104 O116 2.506 . S
C105 O115 1.244 . S
C105 O116 1.265 . S
O106 Tb101 2.312 . S
O106 C113 1.253 . S
O107 Tb104 2.338 . S
O107 C108 1.258 . S
C108 O107 1.258 . S
C108 O109 1.251 . S
O109 C108 1.251 . S
O110 Tb101 2.271 . S
O110 C102 1.252 . S
O111 C102 1.253 . S
O111 Tb104 2.312 . S
O112 Tb101 2.338 . S
O112 C117 1.258 . S
C113 O103 1.252 . S
C113 O106 1.253 . S
C114 O100 1.265 . S
C114 O119 1.244 . S
O115 Tb104 2.441 . S
O115 C105 1.244 . S
O116 Tb104 2.506 . S
O116 C105 1.265 . S
C117 O112 1.258 . S
C117 O118 1.251 . S
O118 C117 1.251 . S
O119 Tb101 2.441 . S
O119 C114 1.244 . S
O120 Tb121 2.506 . S
O120 C134 1.265 . S
Tb121 O120 2.506 . S
Tb121 O126 2.312 . S
Tb121 O130 2.271 . S
Tb121 O132 2.338 . S
Tb121 O139 2.441 . S
C122 O130 1.252 . S
C122 O131 1.253 . S
O123 Tb124 2.271 . S
O123 C133 1.252 . S
Tb124 O123 2.271 . S
Tb124 O127 2.338 . S
Tb124 O131 2.312 . S
Tb124 O135 2.441 . S
Tb124 O136 2.506 . S
C125 O135 1.244 . S
C125 O136 1.265 . S
O126 Tb121 2.312 . S
O126 C133 1.253 . S
O127 Tb124 2.338 . S
O127 C128 1.258 . S
C128 O127 1.258 . S
C128 O129 1.251 . S
O129 C128 1.251 . S
O130 Tb121 2.271 . S
O130 C122 1.252 . S
O131 C122 1.253 . S
O131 Tb124 2.312 . S
O132 Tb121 2.338 . S
O132 C137 1.258 . S
C133 O123 1.252 . S
C133 O126 1.253 . S
C134 O120 1.265 . S
C134 O139 1.244 . S
O135 Tb124 2.441 . S
O135 C125 1.244 . S
O136 Tb124 2.506 . S
O136 C125 1.265 . S
C137 O132 1.258 . S
C137 O138 1.251 . S
O138 C137 1.251 . S
O139 Tb121 2.441 . S
O139 C134 1.244 . S
O140 Tb141 2.506 . S
O140 C154 1.265 . S
Tb141 O140 2.506 . S
Tb141 O146 2.312 . S
Tb141 O150 2.271 . S
Tb141 O152 2.338 . S
Tb141 O159 2.441 . S
C142 O150 1.252 . S
C142 O151 1.253 . S
O143 Tb144 2.271 . S
O143 C153 1.252 . S
Tb144 O143 2.271 . S
Tb144 O147 2.338 1_556 S
Tb144 O151 2.312 . S
Tb144 O155 2.441 . S
Tb144 O156 2.506 . S
C145 O155 1.244 . S
C145 O156 1.265 . S
O146 Tb141 2.312 . S
O146 C153 1.253 . S
O147 Tb144 2.338 1_554 S
O147 C148 1.258 . S
C148 O147 1.258 . S
C148 O149 1.251 . S
O149 C148 1.251 . S
O150 Tb141 2.271 . S
O150 C142 1.252 . S
O151 C142 1.253 . S
O151 Tb144 2.312 . S
O152 Tb141 2.338 . S
O152 C157 1.258 . S
C153 O143 1.252 . S
C153 O146 1.253 . S
C154 O140 1.265 . S
C154 O159 1.244 . S
O155 Tb144 2.441 . S
O155 C145 1.244 . S
O156 Tb144 2.506 . S
O156 C145 1.265 . S
C157 O152 1.258 . S
C157 O158 1.251 . S
O158 C157 1.251 . S
O159 Tb141 2.441 . S
O159 C154 1.244 . S
O160 Tb161 2.506 . S
O160 C174 1.265 . S
Tb161 O160 2.506 . S
Tb161 O166 2.312 . S
Tb161 O170 2.271 . S
Tb161 O172 2.338 . S
Tb161 O179 2.441 . S
C162 O170 1.252 . S
C162 O171 1.253 . S
O163 Tb164 2.271 . S
O163 C173 1.252 . S
Tb164 O163 2.271 . S
Tb164 O167 2.338 . S
Tb164 O171 2.312 . S
Tb164 O175 2.441 . S
Tb164 O176 2.506 . S
C165 O175 1.244 . S
C165 O176 1.265 . S
O166 Tb161 2.312 . S
O166 C173 1.253 . S
O167 Tb164 2.338 . S
O167 C168 1.258 . S
C168 O167 1.258 . S
C168 O169 1.251 . S
O169 C168 1.251 . S
O170 Tb161 2.271 . S
O170 C162 1.252 . S
O171 C162 1.253 . S
O171 Tb164 2.312 . S
O172 Tb161 2.338 . S
O172 C177 1.258 . S
C173 O163 1.252 . S
C173 O166 1.253 . S
C174 O160 1.265 . S
C174 O179 1.244 . S
O175 Tb164 2.441 . S
O175 C165 1.244 . S
O176 Tb164 2.506 . S
O176 C165 1.265 . S
C177 O172 1.258 . S
C177 O178 1.251 . S
O178 C177 1.251 . S
O179 Tb161 2.441 . S
O179 C174 1.244 . S
O180 Tb181 2.506 . S
O180 C194 1.265 . S
Tb181 O180 2.506 . S
Tb181 O186 2.312 . S
Tb181 O190 2.271 . S
Tb181 O192 2.338 . S
Tb181 O199 2.441 . S
C182 O190 1.252 . S
C182 O191 1.253 . S
O183 Tb184 2.271 . S
O183 C193 1.252 . S
Tb184 O183 2.271 . S
Tb184 O187 2.338 . S
Tb184 O191 2.312 . S
Tb184 O195 2.441 . S
Tb184 O196 2.506 . S
C185 O195 1.244 . S
C185 O196 1.265 . S
O186 Tb181 2.312 . S
O186 C193 1.253 . S
O187 Tb184 2.338 . S
O187 C188 1.258 . S
C188 O187 1.258 . S
C188 O189 1.251 . S
O189 C188 1.251 . S
O190 Tb181 2.271 . S
O190 C182 1.252 . S
O191 C182 1.253 . S
O191 Tb184 2.312 . S
O192 Tb181 2.338 . S
O192 C197 1.258 . S
C193 O183 1.252 . S
C193 O186 1.253 . S
C194 O180 1.265 . S
C194 O199 1.244 . S
O195 Tb184 2.441 . S
O195 C185 1.244 . S
O196 Tb184 2.506 . S
O196 C185 1.265 . S
C197 O192 1.258 . S
C197 O198 1.251 . S
O198 C197 1.251 . S
O199 Tb181 2.441 . S
O199 C194 1.244 . S
O200 Tb201 2.506 . S
O200 C214 1.265 . S
Tb201 O200 2.506 . S
Tb201 O206 2.312 . S
Tb201 O210 2.271 . S
Tb201 O212 2.338 . S
Tb201 O219 2.441 . S
C202 O210 1.252 . S
C202 O211 1.253 . S
O203 Tb204 2.271 . S
O203 C213 1.252 . S
Tb204 O203 2.271 . S
Tb204 O207 2.338 . S
Tb204 O211 2.312 . S
Tb204 O215 2.441 . S
Tb204 O216 2.506 . S
C205 O215 1.244 . S
C205 O216 1.265 . S
O206 Tb201 2.312 . S
O206 C213 1.253 . S
O207 Tb204 2.338 . S
O207 C208 1.258 . S
C208 O207 1.258 . S
C208 O209 1.251 . S
O209 C208 1.251 . S
O210 Tb201 2.271 . S
O210 C202 1.252 . S
O211 C202 1.253 . S
O211 Tb204 2.312 . S
O212 Tb201 2.338 . S
O212 C217 1.258 . S
C213 O203 1.252 . S
C213 O206 1.253 . S
C214 O200 1.265 . S
C214 O219 1.244 . S
O215 Tb204 2.441 . S
O215 C205 1.244 . S
O216 Tb204 2.506 . S
O216 C205 1.265 . S
C217 O212 1.258 . S
C217 O218 1.251 . S
O218 C217 1.251 . S
O219 Tb201 2.441 . S
O219 C214 1.244 . S
O220 Tb221 2.506 . S
O220 C234 1.265 . S
Tb221 O220 2.506 . S
Tb221 O226 2.312 . S
Tb221 O230 2.271 . S
Tb221 O232 2.338 1_556 S
Tb221 O239 2.441 . S
C222 O230 1.252 . S
C222 O231 1.253 . S
O223 Tb224 2.271 . S
O223 C233 1.252 . S
Tb224 O223 2.271 . S
Tb224 O227 2.338 . S
Tb224 O231 2.312 . S
Tb224 O235 2.441 . S
Tb224 O236 2.506 . S
C225 O235 1.244 . S
C225 O236 1.265 . S
O226 Tb221 2.312 . S
O226 C233 1.253 . S
O227 Tb224 2.338 . S
O227 C228 1.258 . S
C228 O227 1.258 . S
C228 O229 1.251 . S
O229 C228 1.251 . S
O230 Tb221 2.271 . S
O230 C222 1.252 . S
O231 C222 1.253 . S
O231 Tb224 2.312 . S
O232 Tb221 2.338 1_554 S
O232 C237 1.258 . S
C233 O223 1.252 . S
C233 O226 1.253 . S
C234 O220 1.265 . S
C234 O239 1.244 . S
O235 Tb224 2.441 . S
O235 C225 1.244 . S
O236 Tb224 2.506 . S
O236 C225 1.265 . S
C237 O232 1.258 . S
C237 O238 1.251 . S
O238 C237 1.251 . S
O239 Tb221 2.441 . S
O239 C234 1.244 . S
O240 Tb241 2.506 . S
O240 C254 1.265 . S
Tb241 O240 2.506 . S
Tb241 O246 2.312 . S
Tb241 O250 2.271 . S
Tb241 O252 2.338 . S
Tb241 O259 2.441 . S
C242 O250 1.252 . S
C242 O251 1.253 . S
O243 Tb244 2.271 . S
O243 C253 1.252 . S
Tb244 O243 2.271 . S
Tb244 O247 2.338 . S
Tb244 O251 2.312 . S
Tb244 O255 2.441 . S
Tb244 O256 2.506 . S
C245 O255 1.244 . S
C245 O256 1.265 . S
O246 Tb241 2.312 . S
O246 C253 1.253 . S
O247 Tb244 2.338 . S
O247 C248 1.258 . S
C248 O247 1.258 . S
C248 O249 1.251 . S
O249 C248 1.251 . S
O250 Tb241 2.271 . S
O250 C242 1.252 . S
O251 C242 1.253 . S
O251 Tb244 2.312 . S
O252 Tb241 2.338 . S
O252 C257 1.258 . S
C253 O243 1.252 . S
C253 O246 1.253 . S
C254 O240 1.265 . S
C254 O259 1.244 . S
O255 Tb244 2.441 . S
O255 C245 1.244 . S
O256 Tb244 2.506 . S
O256 C245 1.265 . S
C257 O252 1.258 . S
C257 O258 1.251 . S
O258 C257 1.251 . S
O259 Tb241 2.441 . S
O259 C254 1.244 . S
O260 Tb261 2.506 . S
O260 C274 1.265 . S
Tb261 O260 2.506 . S
Tb261 O266 2.312 . S
Tb261 O270 2.271 . S
Tb261 O272 2.338 . S
Tb261 O279 2.441 . S
C262 O270 1.252 . S
C262 O271 1.253 . S
O263 Tb264 2.271 . S
O263 C273 1.252 . S
Tb264 O263 2.271 . S
Tb264 O267 2.338 . S
Tb264 O271 2.312 . S
Tb264 O275 2.441 . S
Tb264 O276 2.506 . S
C265 O275 1.244 . S
C265 O276 1.265 . S
O266 Tb261 2.312 . S
O266 C273 1.253 . S
O267 Tb264 2.338 . S
O267 C268 1.258 . S
C268 O267 1.258 . S
C268 O269 1.251 . S
O269 C268 1.251 . S
O270 Tb261 2.271 . S
O270 C262 1.252 . S
O271 C262 1.253 . S
O271 Tb264 2.312 . S
O272 Tb261 2.338 . S
O272 C277 1.258 . S
C273 O263 1.252 . S
C273 O266 1.253 . S
C274 O260 1.265 . S
C274 O279 1.244 . S
O275 Tb264 2.441 . S
O275 C265 1.244 . S
O276 Tb264 2.506 . S
O276 C265 1.265 . S
C277 O272 1.258 . S
C277 O278 1.251 . S
O278 C277 1.251 . S
O279 Tb261 2.441 . S
O279 C274 1.244 . S
O280 Tb281 2.506 . S
O280 C294 1.265 . S
Tb281 O280 2.506 . S
Tb281 O286 2.312 . S
Tb281 O290 2.271 . S
Tb281 O292 2.338 . S
Tb281 O299 2.441 . S
C282 O290 1.252 . S
C282 O291 1.253 . S
O283 Tb284 2.271 . S
O283 C293 1.252 . S
Tb284 O283 2.271 . S
Tb284 O287 2.338 . S
Tb284 O291 2.312 . S
Tb284 O295 2.441 . S
Tb284 O296 2.506 . S
C285 O295 1.244 . S
C285 O296 1.265 . S
O286 Tb281 2.312 . S
O286 C293 1.253 . S
O287 Tb284 2.338 . S
O287 C288 1.258 . S
C288 O287 1.258 . S
C288 O289 1.251 . S
O289 C288 1.251 . S
O290 Tb281 2.271 . S
O290 C282 1.252 . S
O291 C282 1.253 . S
O291 Tb284 2.312 . S
O292 Tb281 2.338 . S
O292 C297 1.258 . S
C293 O283 1.252 . S
C293 O286 1.253 . S
C294 O280 1.265 . S
C294 O299 1.244 . S
O295 Tb284 2.441 . S
O295 C285 1.244 . S
O296 Tb284 2.506 . S
O296 C285 1.265 . S
C297 O292 1.258 . S
C297 O298 1.251 . S
O298 C297 1.251 . S
O299 Tb281 2.441 . S
O299 C294 1.244 . S
O300 Tb301 2.506 . S
O300 C314 1.265 . S
Tb301 O300 2.506 . S
Tb301 O306 2.312 . S
Tb301 O310 2.271 . S
Tb301 O312 2.338 1_554 S
Tb301 O319 2.441 . S
C302 O310 1.252 . S
C302 O311 1.253 . S
O303 Tb304 2.271 . S
O303 C313 1.252 . S
Tb304 O303 2.271 . S
Tb304 O307 2.338 . S
Tb304 O311 2.312 . S
Tb304 O315 2.441 . S
Tb304 O316 2.506 . S
C305 O315 1.244 . S
C305 O316 1.265 . S
O306 Tb301 2.312 . S
O306 C313 1.253 . S
O307 Tb304 2.338 . S
O307 C308 1.258 . S
C308 O307 1.258 . S
C308 O309 1.251 . S
O309 C308 1.251 . S
O310 Tb301 2.271 . S
O310 C302 1.252 . S
O311 C302 1.253 . S
O311 Tb304 2.312 . S
O312 Tb301 2.338 1_556 S
O312 C317 1.258 . S
C313 O303 1.252 . S
C313 O306 1.253 . S
C314 O300 1.265 . S
C314 O319 1.244 . S
O315 Tb304 2.441 . S
O315 C305 1.244 . S
O316 Tb304 2.506 . S
O316 C305 1.265 . S
C317 O312 1.258 . S
C317 O318 1.251 . S
O318 C317 1.251 . S
O319 Tb301 2.441 . S
O319 C314 1.244 . S
O320 Tb321 2.506 . S
O320 C334 1.265 . S
Tb321 O320 2.506 . S
Tb321 O326 2.312 . S
Tb321 O330 2.271 . S
Tb321 O332 2.338 . S
Tb321 O339 2.441 . S
C322 O330 1.252 . S
C322 O331 1.253 . S
O323 Tb324 2.271 . S
O323 C333 1.252 . S
Tb324 O323 2.271 . S
Tb324 O327 2.338 . S
Tb324 O331 2.312 . S
Tb324 O335 2.441 . S
Tb324 O336 2.506 . S
C325 O335 1.244 . S
C325 O336 1.265 . S
O326 Tb321 2.312 . S
O326 C333 1.253 . S
O327 Tb324 2.338 . S
O327 C328 1.258 . S
C328 O327 1.258 . S
C328 O329 1.251 . S
O329 C328 1.251 . S
O330 Tb321 2.271 . S
O330 C322 1.252 . S
O331 C322 1.253 . S
O331 Tb324 2.312 . S
O332 Tb321 2.338 . S
O332 C337 1.258 . S
C333 O323 1.252 . S
C333 O326 1.253 . S
C334 O320 1.265 . S
C334 O339 1.244 . S
O335 Tb324 2.441 . S
O335 C325 1.244 . S
O336 Tb324 2.506 . S
O336 C325 1.265 . S
C337 O332 1.258 . S
C337 O338 1.251 . S
O338 C337 1.251 . S
O339 Tb321 2.441 . S
O339 C334 1.244 . S
O340 Tb341 2.506 . S
O340 C354 1.265 . S
Tb341 O340 2.506 . S
Tb341 O346 2.312 . S
Tb341 O350 2.271 . S
Tb341 O352 2.338 1_554 S
Tb341 O359 2.441 . S
C342 O350 1.252 . S
C342 O351 1.253 . S
O343 Tb344 2.271 . S
O343 C353 1.252 . S
Tb344 O343 2.271 . S
Tb344 O347 2.338 . S
Tb344 O351 2.312 . S
Tb344 O355 2.441 . S
Tb344 O356 2.506 . S
C345 O355 1.244 . S
C345 O356 1.265 . S
O346 Tb341 2.312 . S
O346 C353 1.253 . S
O347 Tb344 2.338 . S
O347 C348 1.258 . S
C348 O347 1.258 . S
C348 O349 1.251 . S
O349 C348 1.251 . S
O350 Tb341 2.271 . S
O350 C342 1.252 . S
O351 C342 1.253 . S
O351 Tb344 2.312 . S
O352 Tb341 2.338 1_556 S
O352 C357 1.258 . S
C353 O343 1.252 . S
C353 O346 1.253 . S
C354 O340 1.265 . S
C354 O359 1.244 . S
O355 Tb344 2.441 . S
O355 C345 1.244 . S
O356 Tb344 2.506 . S
O356 C345 1.265 . S
C357 O352 1.258 . S
C357 O358 1.251 . S
O358 C357 1.251 . S
O359 Tb341 2.441 . S
O359 C354 1.244 . S
O360 Tb361 2.506 . S
O360 C374 1.265 . S
Tb361 O360 2.506 . S
Tb361 O366 2.312 . S
Tb361 O370 2.271 . S
Tb361 O372 2.338 . S
Tb361 O379 2.441 . S
C362 O370 1.252 . S
C362 O371 1.253 . S
O363 Tb364 2.271 . S
O363 C373 1.252 . S
Tb364 O363 2.271 . S
Tb364 O367 2.338 . S
Tb364 O371 2.312 . S
Tb364 O375 2.441 . S
Tb364 O376 2.506 . S
C365 O375 1.244 . S
C365 O376 1.265 . S
O366 Tb361 2.312 . S
O366 C373 1.253 . S
O367 Tb364 2.338 . S
O367 C368 1.258 . S
C368 O367 1.258 . S
C368 O369 1.251 . S
O369 C368 1.251 . S
O370 Tb361 2.271 . S
O370 C362 1.252 . S
O371 C362 1.253 . S
O371 Tb364 2.312 . S
O372 Tb361 2.338 . S
O372 C377 1.258 . S
C373 O363 1.252 . S
C373 O366 1.253 . S
C374 O360 1.265 . S
C374 O379 1.244 . S
O375 Tb364 2.441 . S
O375 C365 1.244 . S
O376 Tb364 2.506 . S
O376 C365 1.265 . S
C377 O372 1.258 . S
C377 O378 1.251 . S
O378 C377 1.251 . S
O379 Tb361 2.441 . S
O379 C374 1.244 . S
O380 Tb381 2.506 . S
O380 C394 1.265 . S
Tb381 O380 2.506 . S
Tb381 O386 2.312 . S
Tb381 O390 2.271 . S
Tb381 O392 2.338 . S
Tb381 O399 2.441 . S
C382 O390 1.252 . S
C382 O391 1.253 . S
O383 Tb384 2.271 . S
O383 C393 1.252 . S
Tb384 O383 2.271 . S
Tb384 O387 2.338 . S
Tb384 O391 2.312 . S
Tb384 O395 2.441 . S
Tb384 O396 2.506 . S
C385 O395 1.244 . S
C385 O396 1.265 . S
O386 Tb381 2.312 . S
O386 C393 1.253 . S
O387 Tb384 2.338 . S
O387 C388 1.258 . S
C388 O387 1.258 . S
C388 O389 1.251 . S
O389 C388 1.251 . S
O390 Tb381 2.271 . S
O390 C382 1.252 . S
O391 C382 1.253 . S
O391 Tb384 2.312 . S
O392 Tb381 2.338 . S
O392 C397 1.258 . S
C393 O383 1.252 . S
C393 O386 1.253 . S
C394 O380 1.265 . S
C394 O399 1.244 . S
O395 Tb384 2.441 . S
O395 C385 1.244 . S
O396 Tb384 2.506 . S
O396 C385 1.265 . S
C397 O392 1.258 . S
C397 O398 1.251 . S
O398 C397 1.251 . S
O399 Tb381 2.441 . S
O399 C394 1.244 . S
O400 Tb401 2.506 . S
O400 C414 1.265 . S
Tb401 O400 2.506 . S
Tb401 O406 2.312 . S
Tb401 O410 2.271 . S
Tb401 O412 2.338 . S
Tb401 O419 2.441 . S
C402 O410 1.252 . S
C402 O411 1.253 . S
O403 Tb404 2.271 . S
O403 C413 1.252 . S
Tb404 O403 2.271 . S
Tb404 O407 2.338 . S
Tb404 O411 2.312 . S
Tb404 O415 2.441 . S
Tb404 O416 2.506 . S
C405 O415 1.244 . S
C405 O416 1.265 . S
O406 Tb401 2.312 . S
O406 C413 1.253 . S
O407 Tb404 2.338 . S
O407 C408 1.258 . S
C408 O407 1.258 . S
C408 O409 1.251 . S
O409 C408 1.251 . S
O410 Tb401 2.271 . S
O410 C402 1.252 . S
O411 C402 1.253 . S
O411 Tb404 2.312 . S
O412 Tb401 2.338 . S
O412 C417 1.258 . S
C413 O403 1.252 . S
C413 O406 1.253 . S
C414 O400 1.265 . S
C414 O419 1.244 . S
O415 Tb404 2.441 . S
O415 C405 1.244 . S
O416 Tb404 2.506 . S
O416 C405 1.265 . S
C417 O412 1.258 . S
C417 O418 1.251 . S
O418 C417 1.251 . S
O419 Tb401 2.441 . S
O419 C414 1.244 . S
O420 Tb421 2.506 . S
O420 C434 1.265 . S
Tb421 O420 2.506 . S
Tb421 O426 2.312 . S
Tb421 O430 2.271 . S
Tb421 O432 2.338 1_556 S
Tb421 O439 2.441 . S
C422 O430 1.252 . S
C422 O431 1.253 . S
O423 Tb424 2.271 . S
O423 C433 1.252 . S
Tb424 O423 2.271 . S
Tb424 O427 2.338 . S
Tb424 O431 2.312 . S
Tb424 O435 2.441 . S
Tb424 O436 2.506 . S
C425 O435 1.244 . S
C425 O436 1.265 . S
O426 Tb421 2.312 . S
O426 C433 1.253 . S
O427 Tb424 2.338 . S
O427 C428 1.258 . S
C428 O427 1.258 . S
C428 O429 1.251 . S
O429 C428 1.251 . S
O430 Tb421 2.271 . S
O430 C422 1.252 . S
O431 C422 1.253 . S
O431 Tb424 2.312 . S
O432 Tb421 2.338 1_554 S
O432 C437 1.258 . S
C433 O423 1.252 . S
C433 O426 1.253 . S
C434 O420 1.265 . S
C434 O439 1.244 . S
O435 Tb424 2.441 . S
O435 C425 1.244 . S
O436 Tb424 2.506 . S
O436 C425 1.265 . S
C437 O432 1.258 . S
C437 O438 1.251 . S
O438 C437 1.251 . S
O439 Tb421 2.441 . S
O439 C434 1.244 . S
O440 Tb441 2.506 . S
O440 C454 1.265 . S
Tb441 O440 2.506 . S
Tb441 O446 2.312 . S
Tb441 O450 2.271 . S
Tb441 O452 2.338 . S
Tb441 O459 2.441 . S
C442 O450 1.252 . S
C442 O451 1.253 . S
O443 Tb444 2.271 . S
O443 C453 1.252 . S
Tb444 O443 2.271 . S
Tb444 O447 2.338 . S
Tb444 O451 2.312 . S
Tb444 O455 2.441 . S
Tb444 O456 2.506 . S
C445 O455 1.244 . S
C445 O456 1.265 . S
O446 Tb441 2.312 . S
O446 C453 1.253 . S
O447 Tb444 2.338 . S
O447 C448 1.258 . S
C448 O447 1.258 . S
C448 O449 1.251 . S
O449 C448 1.251 . S
O450 Tb441 2.271 . S
O450 C442 1.252 . S
O451 C442 1.253 . S
O451 Tb444 2.312 . S
O452 Tb441 2.338 . S
O452 C457 1.258 . S
C453 O443 1.252 . S
C453 O446 1.253 . S
C454 O440 1.265 . S
C454 O459 1.244 . S
O455 Tb444 2.441 . S
O455 C445 1.244 . S
O456 Tb444 2.506 . S
O456 C445 1.265 . S
C457 O452 1.258 . S
C457 O458 1.251 . S
O458 C457 1.251 . S
O459 Tb441 2.441 . S
O459 C454 1.244 . S
O460 Tb461 2.506 . S
O460 C474 1.265 . S
Tb461 O460 2.506 . S
Tb461 O466 2.312 . S
Tb461 O470 2.271 . S
Tb461 O472 2.338 . S
Tb461 O479 2.441 . S
C462 O470 1.252 . S
C462 O471 1.253 . S
O463 Tb464 2.271 . S
O463 C473 1.252 . S
Tb464 O463 2.271 . S
Tb464 O467 2.338 . S
Tb464 O471 2.312 . S
Tb464 O475 2.441 . S
Tb464 O476 2.506 . S
C465 O475 1.244 . S
C465 O476 1.265 . S
O466 Tb461 2.312 . S
O466 C473 1.253 . S
O467 Tb464 2.338 . S
O467 C468 1.258 . S
C468 O467 1.258 . S
C468 O469 1.251 . S
O469 C468 1.251 . S
O470 Tb461 2.271 . S
O470 C462 1.252 . S
O471 C462 1.253 . S
O471 Tb464 2.312 . S
O472 Tb461 2.338 . S
O472 C477 1.258 . S
C473 O463 1.252 . S
C473 O466 1.253 . S
C474 O460 1.265 . S
C474 O479 1.244 . S
O475 Tb464 2.441 . S
O475 C465 1.244 . S
O476 Tb464 2.506 . S
O476 C465 1.265 . S
C477 O472 1.258 . S
C477 O478 1.251 . S
O478 C477 1.251 . S
O479 Tb461 2.441 . S
O479 C474 1.244 . S
O480 Tb481 2.506 . S
O480 C494 1.265 . S
Tb481 O480 2.506 . S
Tb481 O486 2.312 . S
Tb481 O490 2.271 . S
Tb481 O492 2.338 . S
Tb481 O499 2.441 . S
C482 O490 1.252 . S
C482 O491 1.253 . S
O483 Tb484 2.271 . S
O483 C493 1.252 . S
Tb484 O483 2.271 . S
Tb484 O487 2.338 . S
Tb484 O491 2.312 . S
Tb484 O495 2.441 . S
Tb484 O496 2.506 . S
C485 O495 1.244 . S
C485 O496 1.265 . S
O486 Tb481 2.312 . S
O486 C493 1.253 . S
O487 Tb484 2.338 . S
O487 C488 1.258 . S
C488 O487 1.258 . S
C488 O489 1.251 . S
O489 C488 1.251 . S
O490 Tb481 2.271 . S
O490 C482 1.252 . S
O491 C482 1.253 . S
O491 Tb484 2.312 . S
O492 Tb481 2.338 . S
O492 C497 1.258 . S
C493 O483 1.252 . S
C493 O486 1.253 . S
C494 O480 1.265 . S
C494 O499 1.244 . S
O495 Tb484 2.441 . S
O495 C485 1.244 . S
O496 Tb484 2.506 . S
O496 C485 1.265 . S
C497 O492 1.258 . S
C497 O498 1.251 . S
O498 C497 1.251 . S
O499 Tb481 2.441 . S
O499 C494 1.244 . S
O500 Tb501 2.506 . S
O500 C514 1.265 . S
Tb501 O500 2.506 . S
Tb501 O506 2.312 . S
Tb501 O510 2.271 . S
Tb501 O512 2.338 1_556 S
Tb501 O519 2.441 . S
C502 O510 1.252 . S
C502 O511 1.253 . S
O503 Tb504 2.271 . S
O503 C513 1.252 . S
Tb504 O503 2.271 . S
Tb504 O507 2.338 . S
Tb504 O511 2.312 . S
Tb504 O515 2.441 . S
Tb504 O516 2.506 . S
C505 O515 1.244 . S
C505 O516 1.265 . S
O506 Tb501 2.312 . S
O506 C513 1.253 . S
O507 Tb504 2.338 . S
O507 C508 1.258 . S
C508 O507 1.258 . S
C508 O509 1.251 . S
O509 C508 1.251 . S
O510 Tb501 2.271 . S
O510 C502 1.252 . S
O511 C502 1.253 . S
O511 Tb504 2.312 . S
O512 Tb501 2.338 1_554 S
O512 C517 1.258 . S
C513 O503 1.252 . S
C513 O506 1.253 . S
C514 O500 1.265 . S
C514 O519 1.244 . S
O515 Tb504 2.441 . S
O515 C505 1.244 . S
O516 Tb504 2.506 . S
O516 C505 1.265 . S
C517 O512 1.258 . S
C517 O518 1.251 . S
O518 C517 1.251 . S
O519 Tb501 2.441 . S
O519 C514 1.244 . S
O520 Tb521 2.506 . S
O520 C534 1.265 . S
Tb521 O520 2.506 . S
Tb521 O526 2.312 . S
Tb521 O530 2.271 . S
Tb521 O532 2.338 . S
Tb521 O539 2.441 . S
C522 O530 1.252 . S
C522 O531 1.253 . S
O523 Tb524 2.271 . S
O523 C533 1.252 . S
Tb524 O523 2.271 . S
Tb524 O527 2.338 . S
Tb524 O531 2.312 . S
Tb524 O535 2.441 . S
Tb524 O536 2.506 . S
C525 O535 1.244 . S
C525 O536 1.265 . S
O526 Tb521 2.312 . S
O526 C533 1.253 . S
O527 Tb524 2.338 . S
O527 C528 1.258 . S
C528 O527 1.258 . S
C528 O529 1.251 . S
O529 C528 1.251 . S
O530 Tb521 2.271 . S
O530 C522 1.252 . S
O531 C522 1.253 . S
O531 Tb524 2.312 . S
O532 Tb521 2.338 . S
O532 C537 1.258 . S
C533 O523 1.252 . S
C533 O526 1.253 . S
C534 O520 1.265 . S
C534 O539 1.244 . S
O535 Tb524 2.441 . S
O535 C525 1.244 . S
O536 Tb524 2.506 . S
O536 C525 1.265 . S
C537 O532 1.258 . S
C537 O538 1.251 . S
O538 C537 1.251 . S
O539 Tb521 2.441 . S
O539 C534 1.244 . S
O540 Tb541 2.506 . S
O540 C554 1.265 . S
Tb541 O540 2.506 . S
Tb541 O546 2.312 . S
Tb541 O550 2.271 . S
Tb541 O552 2.338 . S
Tb541 O559 2.441 . S
C542 O550 1.252 . S
C542 O551 1.253 . S
O543 Tb544 2.271 . S
O543 C553 1.252 . S
Tb544 O543 2.271 . S
Tb544 O547 2.338 . S
Tb544 O551 2.312 . S
Tb544 O555 2.441 . S
Tb544 O556 2.506 . S
C545 O555 1.244 . S
C545 O556 1.265 . S
O546 Tb541 2.312 . S
O546 C553 1.253 . S
O547 Tb544 2.338 . S
O547 C548 1.258 . S
C548 O547 1.258 . S
C548 O549 1.251 . S
O549 C548 1.251 . S
O550 Tb541 2.271 . S
O550 C542 1.252 . S
O551 C542 1.253 . S
O551 Tb544 2.312 . S
O552 Tb541 2.338 . S
O552 C557 1.258 . S
C553 O543 1.252 . S
C553 O546 1.253 . S
C554 O540 1.265 . S
C554 O559 1.244 . S
O555 Tb544 2.441 . S
O555 C545 1.244 . S
O556 Tb544 2.506 . S
O556 C545 1.265 . S
C557 O552 1.258 . S
C557 O558 1.251 . S
O558 C557 1.251 . S
O559 Tb541 2.441 . S
O559 C554 1.244 . S
O560 Tb561 2.506 . S
O560 C574 1.265 . S
Tb561 O560 2.506 . S
Tb561 O566 2.312 . S
Tb561 O570 2.271 . S
Tb561 O572 2.338 . S
Tb561 O579 2.441 . S
C562 O570 1.252 . S
C562 O571 1.253 . S
O563 Tb564 2.271 . S
O563 C573 1.252 . S
Tb564 O563 2.271 . S
Tb564 O567 2.338 . S
Tb564 O571 2.312 . S
Tb564 O575 2.441 . S
Tb564 O576 2.506 . S
C565 O575 1.244 . S
C565 O576 1.265 . S
O566 Tb561 2.312 . S
O566 C573 1.253 . S
O567 Tb564 2.338 . S
O567 C568 1.258 . S
C568 O567 1.258 . S
C568 O569 1.251 . S
O569 C568 1.251 . S
O570 Tb561 2.271 . S
O570 C562 1.252 . S
O571 C562 1.253 . S
O571 Tb564 2.312 . S
O572 Tb561 2.338 . S
O572 C577 1.258 . S
C573 O563 1.252 . S
C573 O566 1.253 . S
C574 O560 1.265 . S
C574 O579 1.244 . S
O575 Tb564 2.441 . S
O575 C565 1.244 . S
O576 Tb564 2.506 . S
O576 C565 1.265 . S
C577 O572 1.258 . S
C577 O578 1.251 . S
O578 C577 1.251 . S
O579 Tb561 2.441 . S
O579 C574 1.244 . S
O580 Tb581 2.506 . S
O580 C594 1.265 . S
Tb581 O580 2.506 . S
Tb581 O586 2.312 . S
Tb581 O590 2.271 . S
Tb581 O592 2.338 1_554 S
Tb581 O599 2.441 . S
C582 O590 1.252 . S
C582 O591 1.253 . S
O583 Tb584 2.271 . S
O583 C593 1.252 . S
Tb584 O583 2.271 . S
Tb584 O587 2.338 . S
Tb584 O591 2.312 . S
Tb584 O595 2.441 . S
Tb584 O596 2.506 . S
C585 O595 1.244 . S
C585 O596 1.265 . S
O586 Tb581 2.312 . S
O586 C593 1.253 . S
O587 Tb584 2.338 . S
O587 C588 1.258 . S
C588 O587 1.258 . S
C588 O589 1.251 . S
O589 C588 1.251 . S
O590 Tb581 2.271 . S
O590 C582 1.252 . S
O591 C582 1.253 . S
O591 Tb584 2.312 . S
O592 Tb581 2.338 1_556 S
O592 C597 1.258 . S
C593 O583 1.252 . S
C593 O586 1.253 . S
C594 O580 1.265 . S
C594 O599 1.244 . S
O595 Tb584 2.441 . S
O595 C585 1.244 . S
O596 Tb584 2.506 . S
O596 C585 1.265 . S
C597 O592 1.258 . S
C597 O598 1.251 . S
O598 C597 1.251 . S
O599 Tb581 2.441 . S
O599 C594 1.244 . S
O600 Tb601 2.506 . S
O600 C614 1.265 . S
Tb601 O600 2.506 . S
Tb601 O606 2.312 . S
Tb601 O610 2.271 . S
Tb601 O612 2.338 . S
Tb601 O619 2.441 . S
C602 O610 1.252 . S
C602 O611 1.253 . S
O603 Tb604 2.271 . S
O603 C613 1.252 . S
Tb604 O603 2.271 . S
Tb604 O607 2.338 . S
Tb604 O611 2.312 . S
Tb604 O615 2.441 . S
Tb604 O616 2.506 . S
C605 O615 1.244 . S
C605 O616 1.265 . S
O606 Tb601 2.312 . S
O606 C613 1.253 . S
O607 Tb604 2.338 . S
O607 C608 1.258 . S
C608 O607 1.258 . S
C608 O609 1.251 . S
O609 C608 1.251 . S
O610 Tb601 2.271 . S
O610 C602 1.252 . S
O611 C602 1.253 . S
O611 Tb604 2.312 . S
O612 Tb601 2.338 . S
O612 C617 1.258 . S
C613 O603 1.252 . S
C613 O606 1.253 . S
C614 O600 1.265 . S
C614 O619 1.244 . S
O615 Tb604 2.441 . S
O615 C605 1.244 . S
O616 Tb604 2.506 . S
O616 C605 1.265 . S
C617 O612 1.258 . S
C617 O618 1.251 . S
O618 C617 1.251 . S
O619 Tb601 2.441 . S
O619 C614 1.244 . S
O620 Tb621 2.506 . S
O620 C634 1.265 . S
Tb621 O620 2.506 . S
Tb621 O626 2.312 . S
Tb621 O630 2.271 . S
Tb621 O632 2.338 . S
Tb621 O639 2.441 . S
C622 O630 1.252 . S
C622 O631 1.253 . S
O623 Tb624 2.271 . S
O623 C633 1.252 . S
Tb624 O623 2.271 . S
Tb624 O627 2.338 . S
Tb624 O631 2.312 . S
Tb624 O635 2.441 . S
Tb624 O636 2.506 . S
C625 O635 1.244 . S
C625 O636 1.265 . S
O626 Tb621 2.312 . S
O626 C633 1.253 . S
O627 Tb624 2.338 . S
O627 C628 1.258 . S
C628 O627 1.258 . S
C628 O629 1.251 . S
O629 C628 1.251 . S
O630 Tb621 2.271 . S
O630 C622 1.252 . S
O631 C622 1.253 . S
O631 Tb624 2.312 . S
O632 Tb621 2.338 . S
O632 C637 1.258 . S
C633 O623 1.252 . S
C633 O626 1.253 . S
C634 O620 1.265 . S
C634 O639 1.244 . S
O635 Tb624 2.441 . S
O635 C625 1.244 . S
O636 Tb624 2.506 . S
O636 C625 1.265 . S
C637 O632 1.258 . S
C637 O638 1.251 . S
O638 C637 1.251 . S
O639 Tb621 2.441 . S
O639 C634 1.244 . S
H640 C646 0.930 . S
H641 C650 0.930 . S
H642 C655 0.929 . S
H643 C653 0.929 . S
H644 C648 0.929 . S
H645 C654 0.929 . S
C646 H640 0.930 . S
C646 C647 1.367 . S
C646 C654 1.378 . S
C647 C646 1.367 . S
C647 C655 1.433 . S
C648 H644 0.929 . S
C648 C650 1.378 . S
C648 C652 1.350 . S
C649 C652 1.463 1_545 S
C649 C654 1.350 . S
C649 N657 1.427 . S
C650 H641 0.930 . S
C650 C648 1.378 . S
C650 C651 1.367 . S
C651 C650 1.367 . S
C651 C653 1.433 . S
C652 C648 1.350 . S
C652 C649 1.463 1_565 S
C652 N656 1.427 . S
C653 H643 0.929 . S
C653 C651 1.433 . S
C653 N656 1.384 . S
C654 H645 0.929 . S
C654 C646 1.378 . S
C654 C649 1.350 . S
C655 H642 0.929 . S
C655 C647 1.433 . S
C655 N657 1.384 . S
N656 C652 1.427 . S
N656 C653 1.384 . S
N657 C649 1.427 . S
N657 C655 1.384 . S
H658 C664 0.930 . S
H659 C668 0.930 . S
H660 C673 0.929 . S
H661 C671 0.929 . S
H662 C666 0.929 . S
H663 C672 0.929 . S
C664 H658 0.930 . S
C664 C665 1.367 . S
C664 C672 1.378 . S
C665 C664 1.367 . S
C665 C673 1.433 . S
C666 H662 0.929 . S
C666 C668 1.378 . S
C666 C670 1.350 . S
C667 C670 1.463 . S
C667 C672 1.350 . S
C667 N675 1.427 . S
C668 H659 0.930 . S
C668 C666 1.378 . S
C668 C669 1.367 . S
C669 C668 1.367 . S
C669 C671 1.433 . S
C670 C666 1.350 . S
C670 C667 1.463 . S
C670 N674 1.427 . S
C671 H661 0.929 . S
C671 C669 1.433 . S
C671 N674 1.384 . S
C672 H663 0.929 . S
C672 C664 1.378 . S
C672 C667 1.350 . S
C673 H660 0.929 . S
C673 C665 1.433 . S
C673 N675 1.384 . S
N674 C670 1.427 . S
N674 C671 1.384 . S
N675 C667 1.427 . S
N675 C673 1.384 . S
H676 C682 0.930 . S
H677 C686 0.930 . S
H678 C691 0.929 . S
H679 C689 0.929 . S
H680 C684 0.929 . S
H681 C690 0.929 . S
C682 H676 0.930 . S
C682 C683 1.367 . S
C682 C690 1.378 . S
C683 C682 1.367 . S
C683 C691 1.433 . S
C684 H680 0.929 . S
C684 C686 1.378 . S
C684 C688 1.350 . S
C685 C688 1.463 1_545 S
C685 C690 1.350 . S
C685 N693 1.427 . S
C686 H677 0.930 . S
C686 C684 1.378 . S
C686 C687 1.367 . S
C687 C686 1.367 . S
C687 C689 1.433 . S
C688 C684 1.350 . S
C688 C685 1.463 1_565 S
C688 N692 1.427 . S
C689 H679 0.929 . S
C689 C687 1.433 . S
C689 N692 1.384 . S
C690 H681 0.929 . S
C690 C682 1.378 . S
C690 C685 1.350 . S
C691 H678 0.929 . S
C691 C683 1.433 . S
C691 N693 1.384 . S
N692 C688 1.427 . S
N692 C689 1.384 . S
N693 C685 1.427 . S
N693 C691 1.384 . S
H694 C700 0.930 . S
H695 C704 0.930 . S
H696 C709 0.929 . S
H697 C707 0.929 . S
H698 C702 0.929 . S
H699 C708 0.929 . S
C700 H694 0.930 . S
C700 C701 1.367 1_556 S
C700 C708 1.378 . S
C701 C700 1.367 1_554 S
C701 C709 1.433 . S
C702 H698 0.929 . S
C702 C704 1.378 . S
C702 C706 1.350 1_554 S
C703 C706 1.463 1_554 S
C703 C708 1.350 1_554 S
C703 N711 1.427 . S
C704 H695 0.930 . S
C704 C702 1.378 . S
C704 C705 1.367 1_554 S
C705 C704 1.367 1_556 S
C705 C707 1.433 . S
C706 C702 1.350 1_556 S
C706 C703 1.463 1_556 S
C706 N710 1.427 . S
C707 H697 0.929 . S
C707 C705 1.433 . S
C707 N710 1.384 . S
C708 H699 0.929 . S
C708 C700 1.378 . S
C708 C703 1.350 1_556 S
C709 H696 0.929 . S
C709 C701 1.433 . S
C709 N711 1.384 . S
N710 C706 1.427 . S
N710 C707 1.384 . S
N711 C703 1.427 . S
N711 C709 1.384 . S
H712 C718 0.930 . S
H713 C722 0.930 . S
H714 C727 0.929 . S
H715 C725 0.929 . S
H716 C720 0.929 . S
H717 C726 0.929 . S
C718 H712 0.930 . S
C718 C719 1.367 . S
C718 C726 1.378 . S
C719 C718 1.367 . S
C719 C727 1.433 . S
C720 H716 0.929 . S
C720 C722 1.378 . S
C720 C724 1.350 . S
C721 C724 1.463 1_565 S
C721 C726 1.350 . S
C721 N729 1.427 . S
C722 H713 0.930 . S
C722 C720 1.378 . S
C722 C723 1.367 . S
C723 C722 1.367 . S
C723 C725 1.433 . S
C724 C720 1.350 . S
C724 C721 1.463 1_545 S
C724 N728 1.427 . S
C725 H715 0.929 . S
C725 C723 1.433 . S
C725 N728 1.384 . S
C726 H717 0.929 . S
C726 C718 1.378 . S
C726 C721 1.350 . S
C727 H714 0.929 . S
C727 C719 1.433 . S
C727 N729 1.384 . S
N728 C724 1.427 . S
N728 C725 1.384 . S
N729 C721 1.427 . S
N729 C727 1.384 . S
H730 C736 0.930 . S
H731 C740 0.930 . S
H732 C745 0.929 . S
H733 C743 0.929 . S
H734 C738 0.929 . S
H735 C744 0.929 . S
C736 H730 0.930 . S
C736 C737 1.367 . S
C736 C744 1.378 . S
C737 C736 1.367 . S
C737 C745 1.433 . S
C738 H734 0.929 . S
C738 C740 1.378 . S
C738 C742 1.350 . S
C739 C742 1.463 . S
C739 C744 1.350 . S
C739 N747 1.427 . S
C740 H731 0.930 . S
C740 C738 1.378 . S
C740 C741 1.367 . S
C741 C740 1.367 . S
C741 C743 1.433 . S
C742 C738 1.350 . S
C742 C739 1.463 . S
C742 N746 1.427 . S
C743 H733 0.929 . S
C743 C741 1.433 . S
C743 N746 1.384 . S
C744 H735 0.929 . S
C744 C736 1.378 . S
C744 C739 1.350 . S
C745 H732 0.929 . S
C745 C737 1.433 . S
C745 N747 1.384 . S
N746 C742 1.427 . S
N746 C743 1.384 . S
N747 C739 1.427 . S
N747 C745 1.384 . S
H748 C754 0.930 . S
H749 C758 0.930 . S
H750 C763 0.929 . S
H751 C761 0.929 . S
H752 C756 0.929 . S
H753 C762 0.929 . S
C754 H748 0.930 . S
C754 C755 1.367 . S
C754 C762 1.378 . S
C755 C754 1.367 . S
C755 C763 1.433 . S
C756 H752 0.929 . S
C756 C758 1.378 . S
C756 C760 1.350 . S
C757 C760 1.463 1_545 S
C757 C762 1.350 . S
C757 N765 1.427 . S
C758 H749 0.930 . S
C758 C756 1.378 . S
C758 C759 1.367 . S
C759 C758 1.367 . S
C759 C761 1.433 . S
C760 C756 1.350 . S
C760 C757 1.463 1_565 S
C760 N764 1.427 . S
C761 H751 0.929 . S
C761 C759 1.433 . S
C761 N764 1.384 . S
C762 H753 0.929 . S
C762 C754 1.378 . S
C762 C757 1.350 . S
C763 H750 0.929 . S
C763 C755 1.433 . S
C763 N765 1.384 . S
N764 C760 1.427 . S
N764 C761 1.384 . S
N765 C757 1.427 . S
N765 C763 1.384 . S
H766 C772 0.930 . S
H767 C776 0.930 . S
H768 C781 0.929 . S
H769 C779 0.929 . S
H770 C774 0.929 . S
H771 C780 0.929 . S
C772 H766 0.930 . S
C772 C773 1.367 . S
C772 C780 1.378 . S
C773 C772 1.367 . S
C773 C781 1.433 . S
C774 H770 0.929 . S
C774 C776 1.378 . S
C774 C778 1.350 . S
C775 C778 1.463 1_554 S
C775 C780 1.350 . S
C775 N783 1.429 . S
C776 H767 0.930 . S
C776 C774 1.378 . S
C776 C777 1.367 . S
C777 C776 1.367 . S
C777 C779 1.433 . S
C778 C774 1.350 . S
C778 C775 1.463 1_556 S
C778 N782 1.429 . S
C779 H769 0.929 . S
C779 C777 1.433 . S
C779 N782 1.387 . S
C780 H771 0.929 . S
C780 C772 1.378 . S
C780 C775 1.350 . S
C781 H768 0.929 . S
C781 C773 1.433 . S
C781 N783 1.387 . S
N782 C778 1.429 . S
N782 C779 1.387 . S
N783 C775 1.429 . S
N783 C781 1.387 . S
H784 C790 0.930 . S
H785 C794 0.930 . S
H786 C799 0.929 . S
H787 C797 0.929 . S
H788 C792 0.929 . S
H789 C798 0.929 . S
C790 H784 0.930 . S
C790 C791 1.367 . S
C790 C798 1.378 . S
C791 C790 1.367 . S
C791 C799 1.433 . S
C792 H788 0.929 . S
C792 C794 1.378 . S
C792 C796 1.350 . S
C793 C796 1.463 . S
C793 C798 1.350 . S
C793 N801 1.427 . S
C794 H785 0.930 . S
C794 C792 1.378 . S
C794 C795 1.367 . S
C795 C794 1.367 . S
C795 C797 1.433 . S
C796 C792 1.350 . S
C796 C793 1.463 . S
C796 N800 1.427 . S
C797 H787 0.929 . S
C797 C795 1.433 . S
C797 N800 1.384 . S
C798 H789 0.929 . S
C798 C790 1.378 . S
C798 C793 1.350 . S
C799 H786 0.929 . S
C799 C791 1.433 . S
C799 N801 1.384 . S
N800 C796 1.427 . S
N800 C797 1.384 . S
N801 C793 1.427 . S
N801 C799 1.384 . S
H802 C808 0.930 . S
H803 C812 0.930 . S
H804 C817 0.929 . S
H805 C815 0.929 . S
H806 C810 0.929 . S
H807 C816 0.929 . S
C808 H802 0.930 . S
C808 C809 1.367 1_554 S
C808 C816 1.378 . S
C809 C808 1.367 1_556 S
C809 C817 1.433 . S
C810 H806 0.929 . S
C810 C812 1.378 . S
C810 C814 1.350 1_556 S
C811 C814 1.463 1_556 S
C811 C816 1.350 1_556 S
C811 N819 1.427 . S
C812 H803 0.930 . S
C812 C810 1.378 . S
C812 C813 1.367 1_556 S
C813 C812 1.367 1_554 S
C813 C815 1.433 . S
C814 C810 1.350 1_554 S
C814 C811 1.463 1_554 S
C814 N818 1.427 . S
C815 H805 0.929 . S
C815 C813 1.433 . S
C815 N818 1.384 . S
C816 H807 0.929 . S
C816 C808 1.378 . S
C816 C811 1.350 1_554 S
C817 H804 0.929 . S
C817 C809 1.433 . S
C817 N819 1.384 . S
N818 C814 1.427 . S
N818 C815 1.384 . S
N819 C811 1.427 . S
N819 C817 1.384 . S
H820 C826 0.930 . S
H821 C830 0.930 . S
H822 C835 0.929 . S
H823 C833 0.929 . S
H824 C828 0.929 . S
H825 C834 0.929 . S
C826 H820 0.930 . S
C826 C827 1.367 . S
C826 C834 1.378 . S
C827 C826 1.367 . S
C827 C835 1.433 . S
C828 H824 0.929 . S
C828 C830 1.378 . S
C828 C832 1.350 . S
C829 C832 1.463 . S
C829 C834 1.350 . S
C829 N837 1.427 . S
C830 H821 0.930 . S
C830 C828 1.378 . S
C830 C831 1.367 . S
C831 C830 1.367 . S
C831 C833 1.433 . S
C832 C828 1.350 . S
C832 C829 1.463 . S
C832 N836 1.427 . S
C833 H823 0.929 . S
C833 C831 1.433 . S
C833 N836 1.384 . S
C834 H825 0.929 . S
C834 C826 1.378 . S
C834 C829 1.350 . S
C835 H822 0.929 . S
C835 C827 1.433 . S
C835 N837 1.384 . S
N836 C832 1.427 . S
N836 C833 1.384 . S
N837 C829 1.427 . S
N837 C835 1.384 . S
H838 C844 0.930 . S
H839 C848 0.930 . S
H840 C853 0.929 . S
H841 C851 0.929 . S
H842 C846 0.929 . S
H843 C852 0.929 . S
C844 H838 0.930 . S
C844 C845 1.367 . S
C844 C852 1.378 . S
C845 C844 1.367 . S
C845 C853 1.433 . S
C846 H842 0.929 . S
C846 C848 1.378 . S
C846 C850 1.350 . S
C847 C850 1.463 . S
C847 C852 1.350 . S
C847 N855 1.427 . S
C848 H839 0.930 . S
C848 C846 1.378 . S
C848 C849 1.367 . S
C849 C848 1.367 . S
C849 C851 1.433 . S
C850 C846 1.350 . S
C850 C847 1.463 . S
C850 N854 1.427 . S
C851 H841 0.929 . S
C851 C849 1.433 . S
C851 N854 1.384 . S
C852 H843 0.929 . S
C852 C844 1.378 . S
C852 C847 1.350 . S
C853 H840 0.929 . S
C853 C845 1.433 . S
C853 N855 1.384 . S
N854 C850 1.427 . S
N854 C851 1.384 . S
N855 C847 1.427 . S
N855 C853 1.384 . S
H856 C862 0.930 . S
H857 C866 0.930 . S
H858 C871 0.929 . S
H859 C869 0.929 . S
H860 C864 0.929 . S
H861 C870 0.929 . S
C862 H856 0.930 . S
C862 C863 1.367 . S
C862 C870 1.378 . S
C863 C862 1.367 . S
C863 C871 1.433 . S
C864 H860 0.929 . S
C864 C866 1.378 . S
C864 C868 1.350 . S
C865 C868 1.463 . S
C865 C870 1.350 . S
C865 N873 1.427 . S
C866 H857 0.930 . S
C866 C864 1.378 . S
C866 C867 1.367 . S
C867 C866 1.367 . S
C867 C869 1.433 . S
C868 C864 1.350 . S
C868 C865 1.463 . S
C868 N872 1.427 . S
C869 H859 0.929 . S
C869 C867 1.433 . S
C869 N872 1.384 . S
C870 H861 0.929 . S
C870 C862 1.378 . S
C870 C865 1.350 . S
C871 H858 0.929 . S
C871 C863 1.433 . S
C871 N873 1.384 . S
N872 C868 1.427 . S
N872 C869 1.384 . S
N873 C865 1.427 . S
N873 C871 1.384 . S
H874 C880 0.930 . S
H875 C884 0.930 . S
H876 C889 0.929 . S
H877 C887 0.929 . S
H878 C882 0.929 . S
H879 C888 0.929 . S
C880 H874 0.930 . S
C880 C881 1.367 1_554 S
C880 C888 1.378 . S
C881 C880 1.367 1_556 S
C881 C889 1.433 . S
C882 H878 0.929 . S
C882 C884 1.378 . S
C882 C886 1.350 1_556 S
C883 C886 1.463 1_556 S
C883 C888 1.350 1_556 S
C883 N891 1.427 . S
C884 H875 0.930 . S
C884 C882 1.378 . S
C884 C885 1.367 1_556 S
C885 C884 1.367 1_554 S
C885 C887 1.433 . S
C886 C882 1.350 1_554 S
C886 C883 1.463 1_554 S
C886 N890 1.427 . S
C887 H877 0.929 . S
C887 C885 1.433 . S
C887 N890 1.384 . S
C888 H879 0.929 . S
C888 C880 1.378 . S
C888 C883 1.350 1_554 S
C889 H876 0.929 . S
C889 C881 1.433 . S
C889 N891 1.384 . S
N890 C886 1.427 . S
N890 C887 1.384 . S
N891 C883 1.427 . S
N891 C889 1.384 . S
H892 C898 0.930 . S
H893 C902 0.930 . S
H894 C907 0.929 . S
H895 C905 0.929 . S
H896 C900 0.929 . S
H897 C906 0.929 . S
C898 H892 0.930 . S
C898 C899 1.367 . S
C898 C906 1.378 . S
C899 C898 1.367 . S
C899 C907 1.433 . S
C900 H896 0.929 . S
C900 C902 1.378 . S
C900 C904 1.350 . S
C901 C904 1.463 . S
C901 C906 1.350 . S
C901 N909 1.427 . S
C902 H893 0.930 . S
C902 C900 1.378 . S
C902 C903 1.367 . S
C903 C902 1.367 . S
C903 C905 1.433 . S
C904 C900 1.350 . S
C904 C901 1.463 . S
C904 N908 1.427 . S
C905 H895 0.929 . S
C905 C903 1.433 . S
C905 N908 1.384 . S
C906 H897 0.929 . S
C906 C898 1.378 . S
C906 C901 1.350 . S
C907 H894 0.929 . S
C907 C899 1.433 . S
C907 N909 1.384 . S
N908 C904 1.427 . S
N908 C905 1.384 . S
N909 C901 1.427 . S
N909 C907 1.384 . S
H910 C916 0.930 . S
H911 C920 0.930 . S
H912 C925 0.929 . S
H913 C923 0.929 . S
H914 C918 0.929 . S
H915 C924 0.929 . S
C916 H910 0.930 . S
C916 C917 1.367 . S
C916 C924 1.378 . S
C917 C916 1.367 . S
C917 C925 1.433 . S
C918 H914 0.929 . S
C918 C920 1.378 . S
C918 C922 1.350 . S
C919 C922 1.463 . S
C919 C924 1.350 . S
C919 N927 1.427 . S
C920 H911 0.930 . S
C920 C918 1.378 . S
C920 C921 1.367 . S
C921 C920 1.367 . S
C921 C923 1.433 . S
C922 C918 1.350 . S
C922 C919 1.463 . S
C922 N926 1.427 . S
C923 H913 0.929 . S
C923 C921 1.433 . S
C923 N926 1.384 . S
C924 H915 0.929 . S
C924 C916 1.378 . S
C924 C919 1.350 . S
C925 H912 0.929 . S
C925 C917 1.433 . S
C925 N927 1.384 . S
N926 C922 1.427 . S
N926 C923 1.384 . S
N927 C919 1.427 . S
N927 C925 1.384 . S
H928 C934 0.930 . S
H929 C938 0.930 . S
H930 C943 0.929 . S
H931 C941 0.929 . S
H932 C936 0.929 . S
H933 C942 0.929 . S
C934 H928 0.930 . S
C934 C935 1.367 . S
C934 C942 1.378 . S
C935 C934 1.367 . S
C935 C943 1.433 . S
C936 H932 0.929 . S
C936 C938 1.378 . S
C936 C940 1.350 . S
C937 C940 1.463 . S
C937 C942 1.350 . S
C937 N945 1.427 . S
C938 H929 0.930 . S
C938 C936 1.378 . S
C938 C939 1.367 . S
C939 C938 1.367 . S
C939 C941 1.433 . S
C940 C936 1.350 . S
C940 C937 1.463 . S
C940 N944 1.427 . S
C941 H931 0.929 . S
C941 C939 1.433 . S
C941 N944 1.384 . S
C942 H933 0.929 . S
C942 C934 1.378 . S
C942 C937 1.350 . S
C943 H930 0.929 . S
C943 C935 1.433 . S
C943 N945 1.384 . S
N944 C940 1.427 . S
N944 C941 1.384 . S
N945 C937 1.427 . S
N945 C943 1.384 . S
H946 C952 0.930 . S
H947 C956 0.930 . S
H948 C961 0.929 . S
H949 C959 0.929 . S
H950 C954 0.929 . S
H951 C960 0.929 . S
C952 H946 0.930 . S
C952 C953 1.367 . S
C952 C960 1.378 . S
C953 C952 1.367 . S
C953 C961 1.433 . S
C954 H950 0.929 . S
C954 C956 1.378 . S
C954 C958 1.350 . S
C955 C958 1.463 1_645 S
C955 C960 1.350 . S
C955 N963 1.427 . S
C956 H947 0.930 . S
C956 C954 1.378 . S
C956 C957 1.367 . S
C957 C956 1.367 . S
C957 C959 1.433 . S
C958 C954 1.350 . S
C958 C955 1.463 1_465 S
C958 N962 1.427 . S
C959 H949 0.929 . S
C959 C957 1.433 . S
C959 N962 1.384 . S
C960 H951 0.929 . S
C960 C952 1.378 . S
C960 C955 1.350 . S
C961 H948 0.929 . S
C961 C953 1.433 . S
C961 N963 1.384 . S
N962 C958 1.427 . S
N962 C959 1.384 . S
N963 C955 1.427 . S
N963 C961 1.384 . S
H964 C970 0.930 . S
H965 C974 0.930 . S
H966 C979 0.929 . S
H967 C977 0.929 . S
H968 C972 0.929 . S
H969 C978 0.929 . S
C970 H964 0.930 . S
C970 C971 1.367 . S
C970 C978 1.378 . S
C971 C970 1.367 . S
C971 C979 1.433 . S
C972 H968 0.929 . S
C972 C974 1.378 . S
C972 C976 1.350 . S
C973 C976 1.463 . S
C973 C978 1.350 . S
C973 N981 1.427 . S
C974 H965 0.930 . S
C974 C972 1.378 . S
C974 C975 1.367 . S
C975 C974 1.367 . S
C975 C977 1.433 . S
C976 C972 1.350 . S
C976 C973 1.463 . S
C976 N980 1.427 . S
C977 H967 0.929 . S
C977 C975 1.433 . S
C977 N980 1.384 . S
C978 H969 0.929 . S
C978 C970 1.378 . S
C978 C973 1.350 . S
C979 H966 0.929 . S
C979 C971 1.433 . S
C979 N981 1.384 . S
N980 C976 1.427 . S
N980 C977 1.384 . S
N981 C973 1.427 . S
N981 C979 1.384 . S
H982 C988 0.930 . S
H983 C992 0.930 . S
H984 C997 0.929 . S
H985 C995 0.929 . S
H986 C990 0.929 1_545 S
H987 C996 0.929 1_565 S
C988 H982 0.930 . S
C988 C989 1.367 . S
C988 C996 1.378 . S
C989 C988 1.367 . S
C989 C997 1.433 1_554 S
C990 H986 0.929 1_565 S
C990 C992 1.378 . S
C990 C994 1.350 . S
C991 C994 1.463 1_544 S
C991 C996 1.350 . S
C991 N999 1.427 1_554 S
C992 H983 0.930 . S
C992 C990 1.378 . S
C992 C993 1.367 . S
C993 C992 1.367 . S
C993 C995 1.433 1_556 S
C994 C990 1.350 . S
C994 C991 1.463 1_566 S
C994 N998 1.427 1_556 S
C995 H985 0.929 . S
C995 C993 1.433 1_554 S
C995 N998 1.384 . S
C996 H987 0.929 1_545 S
C996 C988 1.378 . S
C996 C991 1.350 . S
C997 H984 0.929 . S
C997 C989 1.433 1_556 S
C997 N999 1.384 . S
N998 C994 1.427 1_554 S
N998 C995 1.384 . S
N999 C991 1.427 1_556 S
N999 C997 1.384 . S
H1000 C1006 0.930 . S
H1001 C1010 0.930 . S
H1002 C1015 0.929 . S
H1003 C1013 0.929 . S
H1004 C1008 0.929 . S
H1005 C1014 0.929 . S
C1006 H1000 0.930 . S
C1006 C1007 1.367 . S
C1006 C1014 1.378 . S
C1007 C1006 1.367 . S
C1007 C1015 1.433 . S
C1008 H1004 0.929 . S
C1008 C1010 1.378 . S
C1008 C1012 1.350 . S
C1009 C1012 1.463 . S
C1009 C1014 1.350 . S
C1009 N1017 1.427 . S
C1010 H1001 0.930 . S
C1010 C1008 1.378 . S
C1010 C1011 1.367 . S
C1011 C1010 1.367 . S
C1011 C1013 1.433 . S
C1012 C1008 1.350 . S
C1012 C1009 1.463 . S
C1012 N1016 1.427 . S
C1013 H1003 0.929 . S
C1013 C1011 1.433 . S
C1013 N1016 1.384 . S
C1014 H1005 0.929 . S
C1014 C1006 1.378 . S
C1014 C1009 1.350 . S
C1015 H1002 0.929 . S
C1015 C1007 1.433 . S
C1015 N1017 1.384 . S
N1016 C1012 1.427 . S
N1016 C1013 1.384 . S
N1017 C1009 1.427 . S
N1017 C1015 1.384 . S
H1018 C1024 0.930 . S
H1019 C1028 0.930 . S
H1020 C1033 0.929 . S
H1021 C1031 0.929 . S
H1022 C1026 0.929 1_565 S
H1023 C1032 0.929 1_545 S
C1024 H1018 0.930 . S
C1024 C1025 1.367 . S
C1024 C1032 1.378 . S
C1025 C1024 1.367 . S
C1025 C1033 1.433 . S
C1026 H1022 0.929 1_545 S
C1026 C1028 1.378 . S
C1026 C1030 1.350 . S
C1027 C1030 1.463 1_565 S
C1027 C1032 1.350 . S
C1027 N1035 1.427 . S
C1028 H1019 0.930 . S
C1028 C1026 1.378 . S
C1028 C1029 1.367 . S
C1029 C1028 1.367 . S
C1029 C1031 1.433 . S
C1030 C1026 1.350 . S
C1030 C1027 1.463 1_545 S
C1030 N1034 1.427 . S
C1031 H1021 0.929 . S
C1031 C1029 1.433 . S
C1031 N1034 1.384 . S
C1032 H1023 0.929 1_565 S
C1032 C1024 1.378 . S
C1032 C1027 1.350 . S
C1033 H1020 0.929 . S
C1033 C1025 1.433 . S
C1033 N1035 1.384 . S
N1034 C1030 1.427 . S
N1034 C1031 1.384 . S
N1035 C1027 1.427 . S
N1035 C1033 1.384 . S
H1036 C1042 0.930 . S
H1037 C1046 0.930 . S
H1038 C1051 0.929 . S
H1039 C1049 0.929 . S
H1040 C1044 0.929 . S
H1041 C1050 0.929 . S
C1042 H1036 0.930 . S
C1042 C1043 1.367 . S
C1042 C1050 1.378 . S
C1043 C1042 1.367 . S
C1043 C1051 1.433 . S
C1044 H1040 0.929 . S
C1044 C1046 1.378 . S
C1044 C1048 1.350 . S
C1045 C1048 1.463 . S
C1045 C1050 1.350 . S
C1045 N1053 1.427 . S
C1046 H1037 0.930 . S
C1046 C1044 1.378 . S
C1046 C1047 1.367 . S
C1047 C1046 1.367 . S
C1047 C1049 1.433 . S
C1048 C1044 1.350 . S
C1048 C1045 1.463 . S
C1048 N1052 1.427 . S
C1049 H1039 0.929 . S
C1049 C1047 1.433 . S
C1049 N1052 1.384 . S
C1050 H1041 0.929 . S
C1050 C1042 1.378 . S
C1050 C1045 1.350 . S
C1051 H1038 0.929 . S
C1051 C1043 1.433 . S
C1051 N1053 1.384 . S
N1052 C1048 1.427 . S
N1052 C1049 1.384 . S
N1053 C1045 1.427 . S
N1053 C1051 1.384 . S
H1054 C1060 0.937 . S
H1055 C1064 0.937 . S
H1056 C1069 0.929 . S
H1057 C1067 0.929 . S
H1058 C1062 0.929 1_565 S
H1059 C1068 0.929 1_545 S
C1060 H1054 0.937 . S
C1060 C1061 1.367 . S
C1060 C1068 1.378 1_554 S
C1061 C1060 1.367 . S
C1061 C1069 1.433 . S
C1062 H1058 0.929 1_545 S
C1062 C1064 1.378 1_554 S
C1062 C1066 1.350 1_554 S
C1063 C1066 1.463 1_664 S
C1063 C1068 1.350 1_554 S
C1063 N1071 1.427 . S
C1064 H1055 0.937 . S
C1064 C1062 1.378 1_556 S
C1064 C1065 1.367 . S
C1065 C1064 1.367 . S
C1065 C1067 1.433 . S
C1066 C1062 1.350 1_556 S
C1066 C1063 1.463 1_446 S
C1066 N1070 1.427 . S
C1067 H1057 0.929 . S
C1067 C1065 1.433 . S
C1067 N1070 1.384 . S
C1068 H1059 0.929 1_565 S
C1068 C1060 1.378 1_556 S
C1068 C1063 1.350 1_556 S
C1069 H1056 0.929 . S
C1069 C1061 1.433 . S
C1069 N1071 1.384 . S
N1070 C1066 1.427 . S
N1070 C1067 1.384 . S
N1071 C1063 1.427 . S
N1071 C1069 1.384 . S
H1072 C1078 0.930 . S
H1073 C1082 0.930 . S
H1074 C1087 0.929 . S
H1075 C1085 0.929 . S
H1076 C1080 0.929 . S
H1077 C1086 0.929 . S
C1078 H1072 0.930 . S
C1078 C1079 1.367 . S
C1078 C1086 1.378 . S
C1079 C1078 1.367 . S
C1079 C1087 1.433 . S
C1080 H1076 0.929 . S
C1080 C1082 1.378 . S
C1080 C1084 1.350 . S
C1081 C1084 1.463 . S
C1081 C1086 1.350 . S
C1081 N1089 1.427 . S
C1082 H1073 0.930 . S
C1082 C1080 1.378 . S
C1082 C1083 1.367 . S
C1083 C1082 1.367 . S
C1083 C1085 1.433 . S
C1084 C1080 1.350 . S
C1084 C1081 1.463 . S
C1084 N1088 1.427 . S
C1085 H1075 0.929 . S
C1085 C1083 1.433 . S
C1085 N1088 1.384 . S
C1086 H1077 0.929 . S
C1086 C1078 1.378 . S
C1086 C1081 1.350 . S
C1087 H1074 0.929 . S
C1087 C1079 1.433 . S
C1087 N1089 1.384 . S
N1088 C1084 1.427 . S
N1088 C1085 1.384 . S
N1089 C1081 1.427 . S
N1089 C1087 1.384 . S
H1090 C1096 0.930 . S
H1091 C1100 0.930 . S
H1092 C1105 0.929 . S
H1093 C1103 0.929 . S
H1094 C1098 0.929 . S
H1095 C1104 0.929 . S
C1096 H1090 0.930 . S
C1096 C1097 1.367 . S
C1096 C1104 1.378 . S
C1097 C1096 1.367 . S
C1097 C1105 1.433 . S
C1098 H1094 0.929 . S
C1098 C1100 1.378 . S
C1098 C1102 1.350 . S
C1099 C1102 1.463 . S
C1099 C1104 1.350 . S
C1099 N1107 1.427 . S
C1100 H1091 0.930 . S
C1100 C1098 1.378 . S
C1100 C1101 1.367 . S
C1101 C1100 1.367 . S
C1101 C1103 1.433 . S
C1102 C1098 1.350 . S
C1102 C1099 1.463 . S
C1102 N1106 1.427 . S
C1103 H1093 0.929 . S
C1103 C1101 1.433 . S
C1103 N1106 1.384 . S
C1104 H1095 0.929 . S
C1104 C1096 1.378 . S
C1104 C1099 1.350 . S
C1105 H1092 0.929 . S
C1105 C1097 1.433 . S
C1105 N1107 1.384 . S
N1106 C1102 1.427 . S
N1106 C1103 1.384 . S
N1107 C1099 1.427 . S
N1107 C1105 1.384 . S
H1108 C1114 0.930 . S
H1109 C1118 0.930 . S
H1110 C1123 0.929 . S
H1111 C1121 0.929 . S
H1112 C1116 0.929 . S
H1113 C1122 0.929 . S
C1114 H1108 0.930 . S
C1114 C1115 1.367 . S
C1114 C1122 1.378 . S
C1115 C1114 1.367 . S
C1115 C1123 1.433 . S
C1116 H1112 0.929 . S
C1116 C1118 1.378 . S
C1116 C1120 1.350 . S
C1117 C1120 1.463 . S
C1117 C1122 1.350 . S
C1117 N1125 1.427 . S
C1118 H1109 0.930 . S
C1118 C1116 1.378 . S
C1118 C1119 1.367 . S
C1119 C1118 1.367 . S
C1119 C1121 1.433 . S
C1120 C1116 1.350 . S
C1120 C1117 1.463 . S
C1120 N1124 1.427 . S
C1121 H1111 0.929 . S
C1121 C1119 1.433 . S
C1121 N1124 1.384 . S
C1122 H1113 0.929 . S
C1122 C1114 1.378 . S
C1122 C1117 1.350 . S
C1123 H1110 0.929 . S
C1123 C1115 1.433 . S
C1123 N1125 1.384 . S
N1124 C1120 1.427 . S
N1124 C1121 1.384 . S
N1125 C1117 1.427 . S
N1125 C1123 1.384 . S
H1126 C1132 0.930 . S
H1127 C1136 0.930 . S
H1128 C1141 0.929 . S
H1129 C1139 0.929 . S
H1130 C1134 0.929 . S
H1131 C1140 0.929 . S
C1132 H1126 0.930 . S
C1132 C1133 1.367 . S
C1132 C1140 1.378 . S
C1133 C1132 1.367 . S
C1133 C1141 1.433 . S
C1134 H1130 0.929 . S
C1134 C1136 1.378 . S
C1134 C1138 1.350 . S
C1135 C1138 1.463 . S
C1135 C1140 1.350 . S
C1135 N1143 1.427 . S
C1136 H1127 0.930 . S
C1136 C1134 1.378 . S
C1136 C1137 1.367 . S
C1137 C1136 1.367 . S
C1137 C1139 1.433 . S
C1138 C1134 1.350 . S
C1138 C1135 1.463 . S
C1138 N1142 1.427 . S
C1139 H1129 0.929 . S
C1139 C1137 1.433 . S
C1139 N1142 1.384 . S
C1140 H1131 0.929 . S
C1140 C1132 1.378 . S
C1140 C1135 1.350 . S
C1141 H1128 0.929 . S
C1141 C1133 1.433 . S
C1141 N1143 1.384 . S
N1142 C1138 1.427 . S
N1142 C1139 1.384 . S
N1143 C1135 1.427 . S
N1143 C1141 1.384 . S
H1144 C1150 0.930 . S
H1145 C1154 0.930 . S
H1146 C1159 0.929 . S
H1147 C1157 0.929 . S
H1148 C1152 0.929 . S
H1149 C1158 0.929 . S
C1150 H1144 0.930 . S
C1150 C1151 1.367 1_556 S
C1150 C1158 1.378 . S
C1151 C1150 1.367 1_554 S
C1151 C1159 1.433 . S
C1152 H1148 0.929 . S
C1152 C1154 1.378 . S
C1152 C1156 1.350 1_554 S
C1153 C1156 1.463 1_554 S
C1153 C1158 1.350 1_554 S
C1153 N1161 1.427 . S
C1154 H1145 0.930 . S
C1154 C1152 1.378 . S
C1154 C1155 1.367 1_554 S
C1155 C1154 1.367 1_556 S
C1155 C1157 1.433 . S
C1156 C1152 1.350 1_556 S
C1156 C1153 1.463 1_556 S
C1156 N1160 1.427 . S
C1157 H1147 0.929 . S
C1157 C1155 1.433 . S
C1157 N1160 1.384 . S
C1158 H1149 0.929 . S
C1158 C1150 1.378 . S
C1158 C1153 1.350 1_556 S
C1159 H1146 0.929 . S
C1159 C1151 1.433 . S
C1159 N1161 1.384 . S
N1160 C1156 1.427 . S
N1160 C1157 1.384 . S
N1161 C1153 1.427 . S
N1161 C1159 1.384 . S
H1162 C1168 0.930 . S
H1163 C1172 0.930 . S
H1164 C1177 0.929 . S
H1165 C1175 0.929 . S
H1166 C1170 0.929 . S
H1167 C1176 0.929 . S
C1168 H1162 0.930 . S
C1168 C1169 1.367 . S
C1168 C1176 1.378 . S
C1169 C1168 1.367 . S
C1169 C1177 1.433 . S
C1170 H1166 0.929 . S
C1170 C1172 1.378 . S
C1170 C1174 1.350 . S
C1171 C1174 1.463 1_455 S
C1171 C1176 1.350 . S
C1171 N1179 1.427 . S
C1172 H1163 0.930 . S
C1172 C1170 1.378 . S
C1172 C1173 1.367 . S
C1173 C1172 1.367 . S
C1173 C1175 1.433 . S
C1174 C1170 1.350 . S
C1174 C1171 1.463 1_655 S
C1174 N1178 1.427 . S
C1175 H1165 0.929 . S
C1175 C1173 1.433 . S
C1175 N1178 1.384 . S
C1176 H1167 0.929 . S
C1176 C1168 1.378 . S
C1176 C1171 1.350 . S
C1177 H1164 0.929 . S
C1177 C1169 1.433 . S
C1177 N1179 1.384 . S
N1178 C1174 1.427 . S
N1178 C1175 1.384 . S
N1179 C1171 1.427 . S
N1179 C1177 1.384 . S
H1180 C1186 0.930 . S
H1181 C1190 0.930 . S
H1182 C1195 0.929 . S
H1183 C1193 0.929 . S
H1184 C1188 0.929 . S
H1185 C1194 0.929 . S
C1186 H1180 0.930 . S
C1186 C1187 1.367 1_556 S
C1186 C1194 1.378 . S
C1187 C1186 1.367 1_554 S
C1187 C1195 1.433 . S
C1188 H1184 0.929 . S
C1188 C1190 1.378 . S
C1188 C1192 1.350 1_554 S
C1189 C1192 1.463 1_454 S
C1189 C1194 1.350 1_554 S
C1189 N1197 1.427 . S
C1190 H1181 0.930 . S
C1190 C1188 1.378 . S
C1190 C1191 1.367 1_554 S
C1191 C1190 1.367 1_556 S
C1191 C1193 1.433 . S
C1192 C1188 1.350 1_556 S
C1192 C1189 1.463 1_656 S
C1192 N1196 1.427 . S
C1193 H1183 0.929 . S
C1193 C1191 1.433 . S
C1193 N1196 1.384 . S
C1194 H1185 0.929 . S
C1194 C1186 1.378 . S
C1194 C1189 1.350 1_556 S
C1195 H1182 0.929 . S
C1195 C1187 1.433 . S
C1195 N1197 1.384 . S
N1196 C1192 1.427 . S
N1196 C1193 1.384 . S
N1197 C1189 1.427 . S
N1197 C1195 1.384 . S
H1198 C1204 0.930 . S
H1199 C1208 0.930 . S
H1200 C1213 0.929 . S
H1201 C1211 0.929 . S
H1202 C1206 0.929 . S
H1203 C1212 0.929 . S
C1204 H1198 0.930 . S
C1204 C1205 1.367 . S
C1204 C1212 1.378 . S
C1205 C1204 1.367 . S
C1205 C1213 1.433 . S
C1206 H1202 0.929 . S
C1206 C1208 1.378 . S
C1206 C1210 1.350 . S
C1207 C1210 1.463 . S
C1207 C1212 1.350 . S
C1207 N1215 1.427 . S
C1208 H1199 0.930 . S
C1208 C1206 1.378 . S
C1208 C1209 1.367 . S
C1209 C1208 1.367 . S
C1209 C1211 1.433 . S
C1210 C1206 1.350 . S
C1210 C1207 1.463 . S
C1210 N1214 1.427 . S
C1211 H1201 0.929 . S
C1211 C1209 1.433 . S
C1211 N1214 1.384 . S
C1212 H1203 0.929 . S
C1212 C1204 1.378 . S
C1212 C1207 1.350 . S
C1213 H1200 0.929 . S
C1213 C1205 1.433 . S
C1213 N1215 1.384 . S
N1214 C1210 1.427 . S
N1214 C1211 1.384 . S
N1215 C1207 1.427 . S
N1215 C1213 1.384 . S
H1216 C1222 0.930 . S
H1217 C1226 0.930 . S
H1218 C1231 0.929 . S
H1219 C1229 0.929 . S
H1220 C1224 0.929 . S
H1221 C1230 0.929 . S
C1222 H1216 0.930 . S
C1222 C1223 1.367 . S
C1222 C1230 1.378 . S
C1223 C1222 1.367 . S
C1223 C1231 1.433 . S
C1224 H1220 0.929 . S
C1224 C1226 1.378 . S
C1224 C1228 1.350 . S
C1225 C1228 1.463 . S
C1225 C1230 1.350 . S
C1225 N1233 1.427 . S
C1226 H1217 0.930 . S
C1226 C1224 1.378 . S
C1226 C1227 1.367 . S
C1227 C1226 1.367 . S
C1227 C1229 1.433 . S
C1228 C1224 1.350 . S
C1228 C1225 1.463 . S
C1228 N1232 1.427 . S
C1229 H1219 0.929 . S
C1229 C1227 1.433 . S
C1229 N1232 1.384 . S
C1230 H1221 0.929 . S
C1230 C1222 1.378 . S
C1230 C1225 1.350 . S
C1231 H1218 0.929 . S
C1231 C1223 1.433 . S
C1231 N1233 1.384 . S
N1232 C1228 1.427 . S
N1232 C1229 1.384 . S
N1233 C1225 1.427 . S
N1233 C1231 1.384 . S
H1234 C1240 0.930 . S
H1235 C1244 0.930 . S
H1236 C1249 0.929 . S
H1237 C1247 0.929 . S
H1238 C1242 0.929 . S
H1239 C1248 0.929 . S
C1240 H1234 0.930 . S
C1240 C1241 1.344 1_655 S
C1240 C1248 1.378 . S
C1241 C1240 1.344 1_455 S
C1241 C1249 1.435 . S
C1242 H1238 0.929 . S
C1242 C1244 1.378 . S
C1242 C1246 1.350 . S
C1243 C1246 1.463 . S
C1243 C1248 1.350 . S
C1243 N1251 1.427 . S
C1244 H1235 0.930 . S
C1244 C1242 1.378 . S
C1244 C1245 1.367 . S
C1245 C1244 1.367 . S
C1245 C1247 1.433 . S
C1246 C1242 1.350 . S
C1246 C1243 1.463 . S
C1246 N1250 1.427 . S
C1247 H1237 0.929 . S
C1247 C1245 1.433 . S
C1247 N1250 1.384 . S
C1248 H1239 0.929 . S
C1248 C1240 1.378 . S
C1248 C1243 1.350 . S
C1249 H1236 0.929 . S
C1249 C1241 1.435 . S
C1249 N1251 1.384 1_455 S
N1250 C1246 1.427 . S
N1250 C1247 1.384 . S
N1251 C1243 1.427 . S
N1251 C1249 1.384 1_655 S
H1252 C1258 0.930 . S
H1253 C1262 0.930 . S
H1254 C1267 0.929 . S
H1255 C1265 0.929 . S
H1256 C1260 0.929 . S
H1257 C1266 0.929 . S
C1258 H1252 0.930 . S
C1258 C1259 1.367 . S
C1258 C1266 1.378 . S
C1259 C1258 1.367 . S
C1259 C1267 1.433 . S
C1260 H1256 0.929 . S
C1260 C1262 1.378 . S
C1260 C1264 1.350 . S
C1261 C1264 1.463 . S
C1261 C1266 1.350 . S
C1261 N1269 1.427 . S
C1262 H1253 0.930 . S
C1262 C1260 1.378 . S
C1262 C1263 1.367 . S
C1263 C1262 1.367 . S
C1263 C1265 1.433 . S
C1264 C1260 1.350 . S
C1264 C1261 1.463 . S
C1264 N1268 1.427 . S
C1265 H1255 0.929 . S
C1265 C1263 1.433 . S
C1265 N1268 1.384 . S
C1266 H1257 0.929 . S
C1266 C1258 1.378 . S
C1266 C1261 1.350 . S
C1267 H1254 0.929 . S
C1267 C1259 1.433 . S
C1267 N1269 1.384 . S
N1268 C1264 1.427 . S
N1268 C1265 1.384 . S
N1269 C1261 1.427 . S
N1269 C1267 1.384 . S
H1270 C1276 0.930 . S
H1271 C1280 0.930 . S
H1272 C1285 0.929 . S
H1273 C1283 0.929 . S
H1274 C1278 0.929 . S
H1275 C1284 0.929 . S
C1276 H1270 0.930 . S
C1276 C1277 1.367 . S
C1276 C1284 1.378 . S
C1277 C1276 1.367 . S
C1277 C1285 1.433 . S
C1278 H1274 0.929 . S
C1278 C1280 1.378 . S
C1278 C1282 1.350 . S
C1279 C1282 1.463 . S
C1279 C1284 1.350 . S
C1279 N1287 1.427 . S
C1280 H1271 0.930 . S
C1280 C1278 1.378 . S
C1280 C1281 1.367 . S
C1281 C1280 1.367 . S
C1281 C1283 1.433 . S
C1282 C1278 1.350 . S
C1282 C1279 1.463 . S
C1282 N1286 1.427 . S
C1283 H1273 0.929 . S
C1283 C1281 1.433 . S
C1283 N1286 1.384 . S
C1284 H1275 0.929 . S
C1284 C1276 1.378 . S
C1284 C1279 1.350 . S
C1285 H1272 0.929 . S
C1285 C1277 1.433 . S
C1285 N1287 1.384 . S
N1286 C1282 1.427 . S
N1286 C1283 1.384 . S
N1287 C1279 1.427 . S
N1287 C1285 1.384 . S
H1288 C1294 0.930 . S
H1289 C1298 0.930 . S
H1290 C1303 0.929 . S
H1291 C1301 0.929 . S
H1292 C1296 0.929 . S
H1293 C1302 0.929 . S
C1294 H1288 0.930 . S
C1294 C1295 1.367 . S
C1294 C1302 1.378 . S
C1295 C1294 1.367 . S
C1295 C1303 1.433 . S
C1296 H1292 0.929 . S
C1296 C1298 1.378 . S
C1296 C1300 1.350 . S
C1297 C1300 1.463 . S
C1297 C1302 1.350 . S
C1297 N1305 1.427 . S
C1298 H1289 0.930 . S
C1298 C1296 1.378 . S
C1298 C1299 1.367 . S
C1299 C1298 1.367 . S
C1299 C1301 1.433 . S
C1300 C1296 1.350 . S
C1300 C1297 1.463 . S
C1300 N1304 1.427 . S
C1301 H1291 0.929 . S
C1301 C1299 1.433 . S
C1301 N1304 1.384 . S
C1302 H1293 0.929 . S
C1302 C1294 1.378 . S
C1302 C1297 1.350 . S
C1303 H1290 0.929 . S
C1303 C1295 1.433 . S
C1303 N1305 1.384 . S
N1304 C1300 1.427 . S
N1304 C1301 1.384 . S
N1305 C1297 1.427 . S
N1305 C1303 1.384 . S
H1306 C1312 0.930 . S
H1307 C1316 0.930 . S
H1308 C1321 0.929 . S
H1309 C1319 0.929 . S
H1310 C1314 0.929 . S
H1311 C1320 0.929 . S
C1312 H1306 0.930 . S
C1312 C1313 1.367 . S
C1312 C1320 1.378 . S
C1313 C1312 1.367 . S
C1313 C1321 1.433 . S
C1314 H1310 0.929 . S
C1314 C1316 1.378 . S
C1314 C1318 1.350 . S
C1315 C1318 1.463 . S
C1315 C1320 1.350 . S
C1315 N1323 1.427 . S
C1316 H1307 0.930 . S
C1316 C1314 1.378 . S
C1316 C1317 1.367 . S
C1317 C1316 1.367 . S
C1317 C1319 1.433 . S
C1318 C1314 1.350 . S
C1318 C1315 1.463 . S
C1318 N1322 1.427 . S
C1319 H1309 0.929 . S
C1319 C1317 1.433 . S
C1319 N1322 1.384 . S
C1320 H1311 0.929 . S
C1320 C1312 1.378 . S
C1320 C1315 1.350 . S
C1321 H1308 0.929 . S
C1321 C1313 1.433 . S
C1321 N1323 1.384 . S
N1322 C1318 1.427 . S
N1322 C1319 1.384 . S
N1323 C1315 1.427 . S
N1323 C1321 1.384 . S
H1324 C1330 0.930 . S
H1325 C1334 0.930 . S
H1326 C1339 0.929 . S
H1327 C1337 0.929 . S
H1328 C1332 0.929 . S
H1329 C1338 0.929 . S
C1330 H1324 0.930 . S
C1330 C1331 1.367 . S
C1330 C1338 1.378 . S
C1331 C1330 1.367 . S
C1331 C1339 1.433 . S
C1332 H1328 0.929 . S
C1332 C1334 1.378 . S
C1332 C1336 1.350 . S
C1333 C1336 1.463 . S
C1333 C1338 1.350 . S
C1333 N1341 1.427 . S
C1334 H1325 0.930 . S
C1334 C1332 1.378 . S
C1334 C1335 1.367 . S
C1335 C1334 1.367 . S
C1335 C1337 1.433 . S
C1336 C1332 1.350 . S
C1336 C1333 1.463 . S
C1336 N1340 1.427 . S
C1337 H1327 0.929 . S
C1337 C1335 1.433 . S
C1337 N1340 1.384 . S
C1338 H1329 0.929 . S
C1338 C1330 1.378 . S
C1338 C1333 1.350 . S
C1339 H1326 0.929 . S
C1339 C1331 1.433 . S
C1339 N1341 1.384 . S
N1340 C1336 1.427 . S
N1340 C1337 1.384 . S
N1341 C1333 1.427 . S
N1341 C1339 1.384 . S
H1342 C1348 0.930 . S
H1343 C1352 0.930 . S
H1344 C1357 0.929 . S
H1345 C1355 0.929 . S
H1346 C1350 0.929 . S
H1347 C1356 0.929 . S
C1348 H1342 0.930 . S
C1348 C1349 1.367 . S
C1348 C1356 1.378 . S
C1349 C1348 1.367 . S
C1349 C1357 1.433 . S
C1350 H1346 0.929 . S
C1350 C1352 1.378 . S
C1350 C1354 1.350 . S
C1351 C1354 1.463 . S
C1351 C1356 1.350 . S
C1351 N1359 1.427 . S
C1352 H1343 0.930 . S
C1352 C1350 1.378 . S
C1352 C1353 1.344 1_655 S
C1353 C1352 1.344 1_455 S
C1353 C1355 1.437 . S
C1354 C1350 1.350 . S
C1354 C1351 1.463 . S
C1354 N1358 1.427 . S
C1355 H1345 0.929 . S
C1355 C1353 1.437 . S
C1355 N1358 1.384 1_455 S
C1356 H1347 0.929 . S
C1356 C1348 1.378 . S
C1356 C1351 1.350 . S
C1357 H1344 0.929 . S
C1357 C1349 1.433 . S
C1357 N1359 1.384 . S
N1358 C1354 1.427 . S
N1358 C1355 1.384 1_655 S
N1359 C1351 1.427 . S
N1359 C1357 1.384 . S
H1360 C1366 0.930 . S
H1361 C1370 0.930 . S
H1362 C1375 0.929 . S
H1363 C1373 0.929 . S
H1364 C1368 0.929 . S
H1365 C1374 0.929 . S
C1366 H1360 0.930 . S
C1366 C1367 1.367 . S
C1366 C1374 1.378 . S
C1367 C1366 1.367 . S
C1367 C1375 1.433 . S
C1368 H1364 0.929 . S
C1368 C1370 1.378 . S
C1368 C1372 1.350 . S
C1369 C1372 1.463 . S
C1369 C1374 1.350 . S
C1369 N1377 1.427 . S
C1370 H1361 0.930 . S
C1370 C1368 1.378 . S
C1370 C1371 1.367 . S
C1371 C1370 1.367 . S
C1371 C1373 1.433 . S
C1372 C1368 1.350 . S
C1372 C1369 1.463 . S
C1372 N1376 1.427 . S
C1373 H1363 0.929 . S
C1373 C1371 1.433 . S
C1373 N1376 1.384 . S
C1374 H1365 0.929 . S
C1374 C1366 1.378 . S
C1374 C1369 1.350 . S
C1375 H1362 0.929 . S
C1375 C1367 1.433 . S
C1375 N1377 1.384 . S
N1376 C1372 1.427 . S
N1376 C1373 1.384 . S
N1377 C1369 1.427 . S
N1377 C1375 1.384 . S
H1378 C1384 0.930 . S
H1379 C1388 0.930 . S
H1380 C1393 0.915 1_655 S
H1381 C1391 0.929 . S
H1382 C1386 0.929 . S
H1383 C1392 0.929 . S
C1384 H1378 0.930 . S
C1384 C1385 1.349 1_455 S
C1384 C1392 1.378 . S
C1385 C1384 1.349 1_655 S
C1385 C1393 1.422 1_655 S
C1386 H1382 0.929 . S
C1386 C1388 1.378 . S
C1386 C1390 1.350 . S
C1387 C1390 1.463 . S
C1387 C1392 1.350 . S
C1387 N1395 1.427 . S
C1388 H1379 0.930 . S
C1388 C1386 1.378 . S
C1388 C1389 1.367 . S
C1389 C1388 1.367 . S
C1389 C1391 1.433 . S
C1390 C1386 1.350 . S
C1390 C1387 1.463 . S
C1390 N1394 1.427 . S
C1391 H1381 0.929 . S
C1391 C1389 1.433 . S
C1391 N1394 1.384 . S
C1392 H1383 0.929 . S
C1392 C1384 1.378 . S
C1392 C1387 1.350 . S
C1393 H1380 0.915 1_455 S
C1393 C1385 1.422 1_455 S
C1393 N1395 1.384 . S
N1394 C1390 1.427 . S
N1394 C1391 1.384 . S
N1395 C1387 1.427 . S
N1395 C1393 1.384 . S
H1396 C1402 0.930 . S
H1397 C1406 0.930 . S
H1398 C1411 0.929 . S
H1399 C1409 0.929 . S
H1400 C1404 0.929 . S
H1401 C1410 0.929 . S
C1402 H1396 0.930 . S
C1402 C1403 1.367 . S
C1402 C1410 1.378 . S
C1403 C1402 1.367 . S
C1403 C1411 1.433 . S
C1404 H1400 0.929 . S
C1404 C1406 1.378 . S
C1404 C1408 1.350 . S
C1405 C1408 1.463 . S
C1405 C1410 1.350 . S
C1405 N1413 1.427 . S
C1406 H1397 0.930 . S
C1406 C1404 1.378 . S
C1406 C1407 1.367 . S
C1407 C1406 1.367 . S
C1407 C1409 1.433 . S
C1408 C1404 1.350 . S
C1408 C1405 1.463 . S
C1408 N1412 1.427 . S
C1409 H1399 0.929 . S
C1409 C1407 1.433 . S
C1409 N1412 1.384 . S
C1410 H1401 0.929 . S
C1410 C1402 1.378 . S
C1410 C1405 1.350 . S
C1411 H1398 0.929 . S
C1411 C1403 1.433 . S
C1411 N1413 1.384 . S
N1412 C1408 1.427 . S
N1412 C1409 1.384 . S
N1413 C1405 1.427 . S
N1413 C1411 1.384 . S
H1414 C1420 0.930 . S
H1415 C1424 0.930 . S
H1416 C1429 0.929 . S
H1417 C1427 0.929 . S
H1418 C1422 0.929 . S
H1419 C1428 0.929 . S
C1420 H1414 0.930 . S
C1420 C1421 1.367 . S
C1420 C1428 1.378 . S
C1421 C1420 1.367 . S
C1421 C1429 1.433 . S
C1422 H1418 0.929 . S
C1422 C1424 1.378 . S
C1422 C1426 1.350 . S
C1423 C1426 1.463 . S
C1423 C1428 1.350 . S
C1423 N1431 1.427 . S
C1424 H1415 0.930 . S
C1424 C1422 1.378 . S
C1424 C1425 1.367 . S
C1425 C1424 1.367 . S
C1425 C1427 1.433 . S
C1426 C1422 1.350 . S
C1426 C1423 1.463 . S
C1426 N1430 1.427 . S
C1427 H1417 0.929 . S
C1427 C1425 1.433 . S
C1427 N1430 1.384 . S
C1428 H1419 0.929 . S
C1428 C1420 1.378 . S
C1428 C1423 1.350 . S
C1429 H1416 0.929 . S
C1429 C1421 1.433 . S
C1429 N1431 1.384 . S
N1430 C1426 1.427 . S
N1430 C1427 1.384 . S
N1431 C1423 1.427 . S
N1431 C1429 1.384 . S
H1432 C1438 0.930 . S
H1433 C1442 0.930 . S
H1434 C1447 0.929 . S
H1435 C1445 0.929 . S
H1436 C1440 0.929 . S
H1437 C1446 0.929 . S
C1438 H1432 0.930 . S
C1438 C1439 1.367 . S
C1438 C1446 1.378 . S
C1439 C1438 1.367 . S
C1439 C1447 1.433 . S
C1440 H1436 0.929 . S
C1440 C1442 1.378 . S
C1440 C1444 1.350 . S
C1441 C1444 1.463 . S
C1441 C1446 1.350 . S
C1441 N1449 1.427 . S
C1442 H1433 0.930 . S
C1442 C1440 1.378 . S
C1442 C1443 1.367 . S
C1443 C1442 1.367 . S
C1443 C1445 1.433 . S
C1444 C1440 1.350 . S
C1444 C1441 1.463 . S
C1444 N1448 1.427 . S
C1445 H1435 0.929 . S
C1445 C1443 1.433 . S
C1445 N1448 1.384 . S
C1446 H1437 0.929 . S
C1446 C1438 1.378 . S
C1446 C1441 1.350 . S
C1447 H1434 0.929 . S
C1447 C1439 1.433 . S
C1447 N1449 1.384 . S
N1448 C1444 1.427 . S
N1448 C1445 1.384 . S
N1449 C1441 1.427 . S
N1449 C1447 1.384 . S
H1450 C1456 0.930 . S
H1451 C1460 0.930 . S
H1452 C1465 0.929 . S
H1453 C1463 0.929 . S
H1454 C1458 0.929 . S
H1455 C1464 0.929 . S
C1456 H1450 0.930 . S
C1456 C1457 1.367 . S
C1456 C1464 1.378 . S
C1457 C1456 1.367 . S
C1457 C1465 1.433 . S
C1458 H1454 0.929 . S
C1458 C1460 1.378 . S
C1458 C1462 1.350 . S
C1459 C1462 1.463 . S
C1459 C1464 1.350 . S
C1459 N1467 1.427 . S
C1460 H1451 0.930 . S
C1460 C1458 1.378 . S
C1460 C1461 1.367 . S
C1461 C1460 1.367 . S
C1461 C1463 1.433 . S
C1462 C1458 1.350 . S
C1462 C1459 1.463 . S
C1462 N1466 1.427 . S
C1463 H1453 0.929 . S
C1463 C1461 1.433 . S
C1463 N1466 1.384 . S
C1464 H1455 0.929 . S
C1464 C1456 1.378 . S
C1464 C1459 1.350 . S
C1465 H1452 0.929 . S
C1465 C1457 1.433 . S
C1465 N1467 1.384 . S
N1466 C1462 1.427 . S
N1466 C1463 1.384 . S
N1467 C1459 1.427 . S
N1467 C1465 1.384 . S
H1468 C1474 0.930 . S
H1469 C1478 0.930 . S
H1470 C1483 0.929 . S
H1471 C1481 0.929 . S
H1472 C1476 0.929 . S
H1473 C1482 0.929 . S
C1474 H1468 0.930 . S
C1474 C1475 1.367 . S
C1474 C1482 1.378 . S
C1475 C1474 1.367 . S
C1475 C1483 1.433 . S
C1476 H1472 0.929 . S
C1476 C1478 1.378 . S
C1476 C1480 1.350 . S
C1477 C1480 1.463 . S
C1477 C1482 1.350 . S
C1477 N1485 1.427 . S
C1478 H1469 0.930 . S
C1478 C1476 1.378 . S
C1478 C1479 1.367 . S
C1479 C1478 1.367 . S
C1479 C1481 1.433 . S
C1480 C1476 1.350 . S
C1480 C1477 1.463 . S
C1480 N1484 1.427 . S
C1481 H1471 0.929 . S
C1481 C1479 1.433 . S
C1481 N1484 1.384 . S
C1482 H1473 0.929 . S
C1482 C1474 1.378 . S
C1482 C1477 1.350 . S
C1483 H1470 0.929 . S
C1483 C1475 1.433 . S
C1483 N1485 1.384 . S
N1484 C1480 1.427 . S
N1484 C1481 1.384 . S
N1485 C1477 1.427 . S
N1485 C1483 1.384 . S
H1486 C1492 0.930 . S
H1487 C1496 0.930 . S
H1488 C1501 0.929 . S
H1489 C1499 0.929 1_655 S
H1490 C1494 0.929 . S
H1491 C1500 0.929 . S
C1492 H1486 0.930 . S
C1492 C1493 1.367 . S
C1492 C1500 1.378 . S
C1493 C1492 1.367 . S
C1493 C1501 1.433 . S
C1494 H1490 0.929 . S
C1494 C1496 1.378 . S
C1494 C1498 1.350 . S
C1495 C1498 1.463 . S
C1495 C1500 1.350 . S
C1495 N1503 1.427 . S
C1496 H1487 0.930 . S
C1496 C1494 1.378 . S
C1496 C1497 1.347 1_455 S
C1497 C1496 1.347 1_655 S
C1497 C1499 1.427 1_655 S
C1498 C1494 1.350 . S
C1498 C1495 1.463 . S
C1498 N1502 1.427 . S
C1499 H1489 0.929 1_455 S
C1499 C1497 1.427 1_455 S
C1499 N1502 1.384 . S
C1500 H1491 0.929 . S
C1500 C1492 1.378 . S
C1500 C1495 1.350 . S
C1501 H1488 0.929 . S
C1501 C1493 1.433 . S
C1501 N1503 1.384 . S
N1502 C1498 1.427 . S
N1502 C1499 1.384 . S
N1503 C1495 1.427 . S
N1503 C1501 1.384 . S
H1504 C1510 0.930 . S
H1505 C1514 0.930 . S
H1506 C1519 0.929 . S
H1507 C1517 0.929 . S
H1508 C1512 0.929 . S
H1509 C1518 0.929 . S
C1510 H1504 0.930 . S
C1510 C1511 1.367 . S
C1510 C1518 1.378 . S
C1511 C1510 1.367 . S
C1511 C1519 1.433 . S
C1512 H1508 0.929 . S
C1512 C1514 1.378 . S
C1512 C1516 1.350 . S
C1513 C1516 1.463 . S
C1513 C1518 1.350 . S
C1513 N1521 1.427 . S
C1514 H1505 0.930 . S
C1514 C1512 1.378 . S
C1514 C1515 1.367 . S
C1515 C1514 1.367 . S
C1515 C1517 1.433 . S
C1516 C1512 1.350 . S
C1516 C1513 1.463 . S
C1516 N1520 1.427 . S
C1517 H1507 0.929 . S
C1517 C1515 1.433 . S
C1517 N1520 1.384 . S
C1518 H1509 0.929 . S
C1518 C1510 1.378 . S
C1518 C1513 1.350 . S
C1519 H1506 0.929 . S
C1519 C1511 1.433 . S
C1519 N1521 1.384 . S
N1520 C1516 1.427 . S
N1520 C1517 1.384 . S
N1521 C1513 1.427 . S
N1521 C1519 1.384 . S
H1522 C1528 0.930 . S
H1523 C1532 0.930 . S
H1524 C1537 0.929 . S
H1525 C1535 0.929 . S
H1526 C1530 0.929 . S
H1527 C1536 0.929 . S
C1528 H1522 0.930 . S
C1528 C1529 1.367 . S
C1528 C1536 1.378 . S
C1529 C1528 1.367 . S
C1529 C1537 1.433 . S
C1530 H1526 0.929 . S
C1530 C1532 1.378 . S
C1530 C1534 1.350 . S
C1531 C1534 1.463 . S
C1531 C1536 1.350 . S
C1531 N1539 1.427 . S
C1532 H1523 0.930 . S
C1532 C1530 1.378 . S
C1532 C1533 1.367 . S
C1533 C1532 1.367 . S
C1533 C1535 1.433 . S
C1534 C1530 1.350 . S
C1534 C1531 1.463 . S
C1534 N1538 1.427 . S
C1535 H1525 0.929 . S
C1535 C1533 1.433 . S
C1535 N1538 1.384 . S
C1536 H1527 0.929 . S
C1536 C1528 1.378 . S
C1536 C1531 1.350 . S
C1537 H1524 0.929 . S
C1537 C1529 1.433 . S
C1537 N1539 1.384 . S
N1538 C1534 1.427 . S
N1538 C1535 1.384 . S
N1539 C1531 1.427 . S
N1539 C1537 1.384 . S
H1540 C1546 0.930 . S
H1541 C1550 0.930 . S
H1542 C1555 0.929 . S
H1543 C1553 0.929 . S
H1544 C1548 0.929 . S
H1545 C1554 0.929 . S
C1546 H1540 0.930 . S
C1546 C1547 1.367 . S
C1546 C1554 1.378 . S
C1547 C1546 1.367 . S
C1547 C1555 1.433 . S
C1548 H1544 0.929 . S
C1548 C1550 1.378 . S
C1548 C1552 1.350 . S
C1549 C1552 1.463 . S
C1549 C1554 1.350 . S
C1549 N1557 1.427 . S
C1550 H1541 0.930 . S
C1550 C1548 1.378 . S
C1550 C1551 1.367 . S
C1551 C1550 1.367 . S
C1551 C1553 1.433 . S
C1552 C1548 1.350 . S
C1552 C1549 1.463 . S
C1552 N1556 1.427 . S
C1553 H1543 0.929 . S
C1553 C1551 1.433 . S
C1553 N1556 1.384 . S
C1554 H1545 0.929 . S
C1554 C1546 1.378 . S
C1554 C1549 1.350 . S
C1555 H1542 0.929 . S
C1555 C1547 1.433 . S
C1555 N1557 1.384 . S
N1556 C1552 1.427 . S
N1556 C1553 1.384 . S
N1557 C1549 1.427 . S
N1557 C1555 1.384 . S
H1558 C1564 0.930 . S
H1559 C1568 0.930 . S
H1560 C1573 0.929 . S
H1561 C1571 0.929 . S
H1562 C1566 0.929 . S
H1563 C1572 0.929 . S
C1564 H1558 0.930 . S
C1564 C1565 1.344 1_455 S
C1564 C1572 1.378 . S
C1565 C1564 1.344 1_655 S
C1565 C1573 1.434 . S
C1566 H1562 0.929 . S
C1566 C1568 1.378 . S
C1566 C1570 1.350 . S
C1567 C1570 1.463 . S
C1567 C1572 1.350 . S
C1567 N1575 1.427 . S
C1568 H1559 0.930 . S
C1568 C1566 1.378 . S
C1568 C1569 1.367 . S
C1569 C1568 1.367 . S
C1569 C1571 1.433 . S
C1570 C1566 1.350 . S
C1570 C1567 1.463 . S
C1570 N1574 1.427 . S
C1571 H1561 0.929 . S
C1571 C1569 1.433 . S
C1571 N1574 1.384 . S
C1572 H1563 0.929 . S
C1572 C1564 1.378 . S
C1572 C1567 1.350 . S
C1573 H1560 0.929 . S
C1573 C1565 1.434 . S
C1573 N1575 1.384 1_655 S
N1574 C1570 1.427 . S
N1574 C1571 1.384 . S
N1575 C1567 1.427 . S
N1575 C1573 1.384 1_455 S
H1576 C1582 0.930 . S
H1577 C1586 0.930 . S
H1578 C1591 0.929 . S
H1579 C1589 0.929 . S
H1580 C1584 0.929 . S
H1581 C1590 0.929 . S
C1582 H1576 0.930 . S
C1582 C1583 1.367 . S
C1582 C1590 1.378 . S
C1583 C1582 1.367 . S
C1583 C1591 1.433 . S
C1584 H1580 0.929 . S
C1584 C1586 1.378 . S
C1584 C1588 1.350 . S
C1585 C1588 1.463 . S
C1585 C1590 1.350 . S
C1585 N1593 1.427 . S
C1586 H1577 0.930 . S
C1586 C1584 1.378 . S
C1586 C1587 1.367 . S
C1587 C1586 1.367 . S
C1587 C1589 1.433 . S
C1588 C1584 1.350 . S
C1588 C1585 1.463 . S
C1588 N1592 1.427 . S
C1589 H1579 0.929 . S
C1589 C1587 1.433 . S
C1589 N1592 1.384 . S
C1590 H1581 0.929 . S
C1590 C1582 1.378 . S
C1590 C1585 1.350 . S
C1591 H1578 0.929 . S
C1591 C1583 1.433 . S
C1591 N1593 1.384 . S
N1592 C1588 1.427 . S
N1592 C1589 1.384 . S
N1593 C1585 1.427 . S
N1593 C1591 1.384 . S
H1594 C1600 0.930 . S
H1595 C1604 0.930 . S
H1596 C1609 0.929 . S
H1597 C1607 0.929 . S
H1598 C1602 0.929 . S
H1599 C1608 0.929 . S
C1600 H1594 0.930 . S
C1600 C1601 1.344 1_455 S
C1600 C1608 1.378 . S
C1601 C1600 1.344 1_655 S
C1601 C1609 1.434 . S
C1602 H1598 0.929 . S
C1602 C1604 1.378 . S
C1602 C1606 1.350 . S
C1603 C1606 1.463 . S
C1603 C1608 1.350 . S
C1603 N1611 1.427 . S
C1604 H1595 0.930 . S
C1604 C1602 1.378 . S
C1604 C1605 1.367 . S
C1605 C1604 1.367 . S
C1605 C1607 1.433 . S
C1606 C1602 1.350 . S
C1606 C1603 1.463 . S
C1606 N1610 1.427 . S
C1607 H1597 0.929 . S
C1607 C1605 1.433 . S
C1607 N1610 1.384 . S
C1608 H1599 0.929 . S
C1608 C1600 1.378 . S
C1608 C1603 1.350 . S
C1609 H1596 0.929 . S
C1609 C1601 1.434 . S
C1609 N1611 1.384 1_655 S
N1610 C1606 1.427 . S
N1610 C1607 1.384 . S
N1611 C1603 1.427 . S
N1611 C1609 1.384 1_455 S
H1612 C1618 0.930 . S
H1613 C1622 0.930 . S
H1614 C1627 0.929 . S
H1615 C1625 0.929 . S
H1616 C1620 0.929 . S
H1617 C1626 0.929 . S
C1618 H1612 0.930 . S
C1618 C1619 1.367 . S
C1618 C1626 1.378 . S
C1619 C1618 1.367 . S
C1619 C1627 1.433 . S
C1620 H1616 0.929 . S
C1620 C1622 1.378 . S
C1620 C1624 1.350 . S
C1621 C1624 1.463 . S
C1621 C1626 1.350 . S
C1621 N1629 1.427 . S
C1622 H1613 0.930 . S
C1622 C1620 1.378 . S
C1622 C1623 1.367 . S
C1623 C1622 1.367 . S
C1623 C1625 1.433 . S
C1624 C1620 1.350 . S
C1624 C1621 1.463 . S
C1624 N1628 1.427 . S
C1625 H1615 0.929 . S
C1625 C1623 1.433 . S
C1625 N1628 1.384 . S
C1626 H1617 0.929 . S
C1626 C1618 1.378 . S
C1626 C1621 1.350 . S
C1627 H1614 0.929 . S
C1627 C1619 1.433 . S
C1627 N1629 1.384 . S
N1628 C1624 1.427 . S
N1628 C1625 1.384 . S
N1629 C1621 1.427 . S
N1629 C1627 1.384 . S
H1630 C1636 0.930 . S
H1631 C1640 0.930 . S
H1632 C1645 0.929 . S
H1633 C1643 0.929 . S
H1634 C1638 0.929 . S
H1635 C1644 0.929 . S
C1636 H1630 0.930 . S
C1636 C1637 1.367 . S
C1636 C1644 1.378 . S
C1637 C1636 1.367 . S
C1637 C1645 1.433 . S
C1638 H1634 0.929 . S
C1638 C1640 1.378 . S
C1638 C1642 1.350 . S
C1639 C1642 1.463 . S
C1639 C1644 1.350 . S
C1639 N1647 1.427 . S
C1640 H1631 0.930 . S
C1640 C1638 1.378 . S
C1640 C1641 1.367 . S
C1641 C1640 1.367 . S
C1641 C1643 1.433 . S
C1642 C1638 1.350 . S
C1642 C1639 1.463 . S
C1642 N1646 1.427 . S
C1643 H1633 0.929 . S
C1643 C1641 1.433 . S
C1643 N1646 1.384 . S
C1644 H1635 0.929 . S
C1644 C1636 1.378 . S
C1644 C1639 1.350 . S
C1645 H1632 0.929 . S
C1645 C1637 1.433 . S
C1645 N1647 1.384 . S
N1646 C1642 1.427 . S
N1646 C1643 1.384 . S
N1647 C1639 1.427 . S
N1647 C1645 1.384 . S
H1648 C1654 0.930 . S
H1649 C1658 0.930 . S
H1650 C1663 0.929 . S
H1651 C1661 0.929 . S
H1652 C1656 0.929 . S
H1653 C1662 0.929 . S
C1654 H1648 0.930 . S
C1654 C1655 1.367 . S
C1654 C1662 1.378 . S
C1655 C1654 1.367 . S
C1655 C1663 1.433 . S
C1656 H1652 0.929 . S
C1656 C1658 1.378 . S
C1656 C1660 1.350 . S
C1657 C1660 1.463 . S
C1657 C1662 1.350 . S
C1657 N1665 1.427 . S
C1658 H1649 0.930 . S
C1658 C1656 1.378 . S
C1658 C1659 1.367 . S
C1659 C1658 1.367 . S
C1659 C1661 1.433 . S
C1660 C1656 1.350 . S
C1660 C1657 1.463 . S
C1660 N1664 1.427 . S
C1661 H1651 0.929 . S
C1661 C1659 1.433 . S
C1661 N1664 1.384 . S
C1662 H1653 0.929 . S
C1662 C1654 1.378 . S
C1662 C1657 1.350 . S
C1663 H1650 0.929 . S
C1663 C1655 1.433 . S
C1663 N1665 1.384 . S
N1664 C1660 1.427 . S
N1664 C1661 1.384 . S
N1665 C1657 1.427 . S
N1665 C1663 1.384 . S
H1666 C1672 0.930 . S
H1667 C1676 0.930 . S
H1668 C1681 0.929 . S
H1669 C1679 0.929 . S
H1670 C1674 0.929 . S
H1671 C1680 0.929 . S
C1672 H1666 0.930 . S
C1672 C1673 1.367 . S
C1672 C1680 1.378 . S
C1673 C1672 1.367 . S
C1673 C1681 1.433 . S
C1674 H1670 0.929 . S
C1674 C1676 1.378 . S
C1674 C1678 1.350 . S
C1675 C1678 1.463 . S
C1675 C1680 1.350 . S
C1675 N1683 1.427 . S
C1676 H1667 0.930 . S
C1676 C1674 1.378 . S
C1676 C1677 1.367 . S
C1677 C1676 1.367 . S
C1677 C1679 1.433 . S
C1678 C1674 1.350 . S
C1678 C1675 1.463 . S
C1678 N1682 1.427 . S
C1679 H1669 0.929 . S
C1679 C1677 1.433 . S
C1679 N1682 1.384 . S
C1680 H1671 0.929 . S
C1680 C1672 1.378 . S
C1680 C1675 1.350 . S
C1681 H1668 0.929 . S
C1681 C1673 1.433 . S
C1681 N1683 1.384 . S
N1682 C1678 1.427 . S
N1682 C1679 1.384 . S
N1683 C1675 1.427 . S
N1683 C1681 1.384 . S
H1684 C1690 0.930 . S
H1685 C1694 0.930 . S
H1686 C1699 0.929 . S
H1687 C1697 0.929 . S
H1688 C1692 0.929 . S
H1689 C1698 0.929 . S
C1690 H1684 0.930 . S
C1690 C1691 1.367 . S
C1690 C1698 1.378 . S
C1691 C1690 1.367 . S
C1691 C1699 1.433 . S
C1692 H1688 0.929 . S
C1692 C1694 1.378 . S
C1692 C1696 1.350 . S
C1693 C1696 1.463 . S
C1693 C1698 1.350 . S
C1693 N1701 1.427 . S
C1694 H1685 0.930 . S
C1694 C1692 1.378 . S
C1694 C1695 1.367 . S
C1695 C1694 1.367 . S
C1695 C1697 1.433 . S
C1696 C1692 1.350 . S
C1696 C1693 1.463 . S
C1696 N1700 1.427 . S
C1697 H1687 0.929 . S
C1697 C1695 1.433 . S
C1697 N1700 1.384 . S
C1698 H1689 0.929 . S
C1698 C1690 1.378 . S
C1698 C1693 1.350 . S
C1699 H1686 0.929 . S
C1699 C1691 1.433 . S
C1699 N1701 1.384 . S
N1700 C1696 1.427 . S
N1700 C1697 1.384 . S
N1701 C1693 1.427 . S
N1701 C1699 1.384 . S
H1702 C1708 0.930 . S
H1703 C1712 0.930 . S
H1704 C1717 0.929 . S
H1705 C1715 0.929 . S
H1706 C1710 0.929 . S
H1707 C1716 0.929 . S
C1708 H1702 0.930 . S
C1708 C1709 1.367 . S
C1708 C1716 1.378 . S
C1709 C1708 1.367 . S
C1709 C1717 1.433 . S
C1710 H1706 0.929 . S
C1710 C1712 1.378 . S
C1710 C1714 1.350 . S
C1711 C1714 1.463 . S
C1711 C1716 1.350 . S
C1711 N1719 1.427 . S
C1712 H1703 0.930 . S
C1712 C1710 1.378 . S
C1712 C1713 1.344 1_655 S
C1713 C1712 1.344 1_455 S
C1713 C1715 1.435 . S
C1714 C1710 1.350 . S
C1714 C1711 1.463 . S
C1714 N1718 1.427 . S
C1715 H1705 0.929 . S
C1715 C1713 1.435 . S
C1715 N1718 1.384 1_455 S
C1716 H1707 0.929 . S
C1716 C1708 1.378 . S
C1716 C1711 1.350 . S
C1717 H1704 0.929 . S
C1717 C1709 1.433 . S
C1717 N1719 1.384 . S
N1718 C1714 1.427 . S
N1718 C1715 1.384 1_655 S
N1719 C1711 1.427 . S
N1719 C1717 1.384 . S
H1720 C1726 0.930 . S
H1721 C1730 0.930 . S
H1722 C1735 0.929 . S
H1723 C1733 0.929 . S
H1724 C1728 0.929 . S
H1725 C1734 0.929 . S
C1726 H1720 0.930 . S
C1726 C1727 1.367 . S
C1726 C1734 1.378 . S
C1727 C1726 1.367 . S
C1727 C1735 1.433 . S
C1728 H1724 0.929 . S
C1728 C1730 1.378 . S
C1728 C1732 1.350 . S
C1729 C1732 1.463 . S
C1729 C1734 1.350 . S
C1729 N1737 1.427 . S
C1730 H1721 0.930 . S
C1730 C1728 1.378 . S
C1730 C1731 1.367 . S
C1731 C1730 1.367 . S
C1731 C1733 1.433 . S
C1732 C1728 1.350 . S
C1732 C1729 1.463 . S
C1732 N1736 1.427 . S
C1733 H1723 0.929 . S
C1733 C1731 1.433 . S
C1733 N1736 1.384 . S
C1734 H1725 0.929 . S
C1734 C1726 1.378 . S
C1734 C1729 1.350 . S
C1735 H1722 0.929 . S
C1735 C1727 1.433 . S
C1735 N1737 1.384 . S
N1736 C1732 1.427 . S
N1736 C1733 1.384 . S
N1737 C1729 1.427 . S
N1737 C1735 1.384 . S
H1738 C1744 0.930 . S
H1739 C1748 0.930 1_455 S
H1740 C1753 0.929 . S
H1741 C1751 0.929 . S
H1742 C1746 0.929 . S
H1743 C1752 0.929 . S
C1744 H1738 0.930 . S
C1744 C1745 1.367 . S
C1744 C1752 1.378 . S
C1745 C1744 1.367 . S
C1745 C1753 1.433 . S
C1746 H1742 0.929 . S
C1746 C1748 1.378 . S
C1746 C1750 1.350 . S
C1747 C1750 1.463 . S
C1747 C1752 1.350 . S
C1747 N1755 1.427 . S
C1748 H1739 0.930 1_655 S
C1748 C1746 1.378 . S
C1748 C1749 1.354 1_655 S
C1749 C1748 1.354 1_455 S
C1749 C1751 1.413 1_455 S
C1750 C1746 1.350 . S
C1750 C1747 1.463 . S
C1750 N1754 1.427 . S
C1751 H1741 0.929 . S
C1751 C1749 1.413 1_655 S
C1751 N1754 1.384 . S
C1752 H1743 0.929 . S
C1752 C1744 1.378 . S
C1752 C1747 1.350 . S
C1753 H1740 0.929 . S
C1753 C1745 1.433 . S
C1753 N1755 1.384 . S
N1754 C1750 1.427 . S
N1754 C1751 1.384 . S
N1755 C1747 1.427 . S
N1755 C1753 1.384 . S
H1756 C1762 0.930 . S
H1757 C1766 0.930 . S
H1758 C1771 0.929 . S
H1759 C1769 0.929 . S
H1760 C1764 0.929 . S
H1761 C1770 0.929 . S
C1762 H1756 0.930 . S
C1762 C1763 1.367 . S
C1762 C1770 1.378 . S
C1763 C1762 1.367 . S
C1763 C1771 1.433 . S
C1764 H1760 0.929 . S
C1764 C1766 1.378 . S
C1764 C1768 1.350 . S
C1765 C1768 1.463 . S
C1765 C1770 1.350 . S
C1765 N1773 1.427 . S
C1766 H1757 0.930 . S
C1766 C1764 1.378 . S
C1766 C1767 1.367 . S
C1767 C1766 1.367 . S
C1767 C1769 1.433 . S
C1768 C1764 1.350 . S
C1768 C1765 1.463 . S
C1768 N1772 1.427 . S
C1769 H1759 0.929 . S
C1769 C1767 1.433 . S
C1769 N1772 1.384 . S
C1770 H1761 0.929 . S
C1770 C1762 1.378 . S
C1770 C1765 1.350 . S
C1771 H1758 0.929 . S
C1771 C1763 1.433 . S
C1771 N1773 1.384 . S
N1772 C1768 1.427 . S
N1772 C1769 1.384 . S
N1773 C1765 1.427 . S
N1773 C1771 1.384 . S
H1774 C1780 0.930 . S
H1775 C1784 0.930 . S
H1776 C1789 0.929 . S
H1777 C1787 0.929 . S
H1778 C1782 0.929 . S
H1779 C1788 0.929 . S
C1780 H1774 0.930 . S
C1780 C1781 1.367 . S
C1780 C1788 1.378 . S
C1781 C1780 1.367 . S
C1781 C1789 1.433 . S
C1782 H1778 0.929 . S
C1782 C1784 1.378 . S
C1782 C1786 1.350 . S
C1783 C1786 1.463 . S
C1783 C1788 1.350 . S
C1783 N1791 1.427 . S
C1784 H1775 0.930 . S
C1784 C1782 1.378 . S
C1784 C1785 1.367 . S
C1785 C1784 1.367 . S
C1785 C1787 1.433 . S
C1786 C1782 1.350 . S
C1786 C1783 1.463 . S
C1786 N1790 1.427 . S
C1787 H1777 0.929 . S
C1787 C1785 1.433 . S
C1787 N1790 1.384 . S
C1788 H1779 0.929 . S
C1788 C1780 1.378 . S
C1788 C1783 1.350 . S
C1789 H1776 0.929 . S
C1789 C1781 1.433 . S
C1789 N1791 1.384 . S
N1790 C1786 1.427 . S
N1790 C1787 1.384 . S
N1791 C1783 1.427 . S
N1791 C1789 1.384 . S
H1792 C1798 0.930 . S
H1793 C1802 0.930 . S
H1794 C1807 0.929 . S
H1795 C1805 0.929 . S
H1796 C1800 0.929 . S
H1797 C1806 0.929 . S
C1798 H1792 0.930 . S
C1798 C1799 1.367 . S
C1798 C1806 1.378 . S
C1799 C1798 1.367 . S
C1799 C1807 1.433 . S
C1800 H1796 0.929 . S
C1800 C1802 1.378 . S
C1800 C1804 1.350 . S
C1801 C1804 1.463 1_455 S
C1801 C1806 1.350 . S
C1801 N1809 1.427 . S
C1802 H1793 0.930 . S
C1802 C1800 1.378 . S
C1802 C1803 1.367 . S
C1803 C1802 1.367 . S
C1803 C1805 1.433 . S
C1804 C1800 1.350 . S
C1804 C1801 1.463 1_655 S
C1804 N1808 1.427 . S
C1805 H1795 0.929 . S
C1805 C1803 1.433 . S
C1805 N1808 1.384 . S
C1806 H1797 0.929 . S
C1806 C1798 1.378 . S
C1806 C1801 1.350 . S
C1807 H1794 0.929 . S
C1807 C1799 1.433 . S
C1807 N1809 1.384 . S
N1808 C1804 1.427 . S
N1808 C1805 1.384 . S
N1809 C1801 1.427 . S
N1809 C1807 1.384 . S
H1810 C1816 0.930 . S
H1811 C1820 0.930 . S
H1812 C1825 0.929 1_655 S
H1813 C1823 0.929 1_455 S
H1814 C1818 0.929 . S
H1815 C1824 0.929 . S
C1816 H1810 0.930 . S
C1816 C1817 1.367 . S
C1816 C1824 1.378 . S
C1817 C1816 1.367 . S
C1817 C1825 1.433 . S
C1818 H1814 0.929 . S
C1818 C1820 1.378 . S
C1818 C1822 1.350 . S
C1819 C1822 1.463 1_455 S
C1819 C1824 1.350 . S
C1819 N1827 1.427 1_455 S
C1820 H1811 0.930 . S
C1820 C1818 1.378 . S
C1820 C1821 1.367 . S
C1821 C1820 1.367 . S
C1821 C1823 1.433 . S
C1822 C1818 1.350 . S
C1822 C1819 1.463 1_655 S
C1822 N1826 1.427 1_655 S
C1823 H1813 0.929 1_655 S
C1823 C1821 1.433 . S
C1823 N1826 1.384 1_655 S
C1824 H1815 0.929 . S
C1824 C1816 1.378 . S
C1824 C1819 1.350 . S
C1825 H1812 0.929 1_455 S
C1825 C1817 1.433 . S
C1825 N1827 1.384 1_455 S
N1826 C1822 1.427 1_455 S
N1826 C1823 1.384 1_455 S
N1827 C1819 1.427 1_655 S
N1827 C1825 1.384 1_655 S
H1828 C1834 0.930 . S
H1829 C1838 0.930 . S
H1830 C1843 0.929 . S
H1831 C1841 0.929 . S
H1832 C1836 0.929 . S
H1833 C1842 0.929 . S
C1834 H1828 0.930 . S
C1834 C1835 1.367 . S
C1834 C1842 1.378 . S
C1835 C1834 1.367 . S
C1835 C1843 1.433 . S
C1836 H1832 0.929 . S
C1836 C1838 1.378 . S
C1836 C1840 1.350 . S
C1837 C1840 1.463 . S
C1837 C1842 1.350 . S
C1837 N1845 1.427 . S
C1838 H1829 0.930 . S
C1838 C1836 1.378 . S
C1838 C1839 1.367 . S
C1839 C1838 1.367 . S
C1839 C1841 1.433 . S
C1840 C1836 1.350 . S
C1840 C1837 1.463 . S
C1840 N1844 1.427 . S
C1841 H1831 0.929 . S
C1841 C1839 1.433 . S
C1841 N1844 1.384 . S
C1842 H1833 0.929 . S
C1842 C1834 1.378 . S
C1842 C1837 1.350 . S
C1843 H1830 0.929 . S
C1843 C1835 1.433 . S
C1843 N1845 1.384 . S
N1844 C1840 1.427 . S
N1844 C1841 1.384 . S
N1845 C1837 1.427 . S
N1845 C1843 1.384 . S
H1846 C1852 0.930 . S
H1847 C1856 0.930 . S
H1848 C1861 0.929 . S
H1849 C1859 0.929 . S
H1850 C1854 0.929 . S
H1851 C1860 0.929 . S
C1852 H1846 0.930 . S
C1852 C1853 1.367 . S
C1852 C1860 1.378 . S
C1853 C1852 1.367 . S
C1853 C1861 1.433 . S
C1854 H1850 0.929 . S
C1854 C1856 1.378 . S
C1854 C1858 1.350 . S
C1855 C1858 1.463 . S
C1855 C1860 1.350 . S
C1855 N1863 1.427 . S
C1856 H1847 0.930 . S
C1856 C1854 1.378 . S
C1856 C1857 1.367 . S
C1857 C1856 1.367 . S
C1857 C1859 1.433 . S
C1858 C1854 1.350 . S
C1858 C1855 1.463 . S
C1858 N1862 1.427 . S
C1859 H1849 0.929 . S
C1859 C1857 1.433 . S
C1859 N1862 1.384 . S
C1860 H1851 0.929 . S
C1860 C1852 1.378 . S
C1860 C1855 1.350 . S
C1861 H1848 0.929 . S
C1861 C1853 1.433 . S
C1861 N1863 1.384 . S
N1862 C1858 1.427 . S
N1862 C1859 1.384 . S
N1863 C1855 1.427 . S
N1863 C1861 1.384 . S
H1864 C1870 0.930 . S
H1865 C1874 0.930 . S
H1866 C1879 0.929 . S
H1867 C1877 0.929 . S
H1868 C1872 0.929 . S
H1869 C1878 0.929 . S
C1870 H1864 0.930 . S
C1870 C1871 1.367 . S
C1870 C1878 1.378 . S
C1871 C1870 1.367 . S
C1871 C1879 1.433 . S
C1872 H1868 0.929 . S
C1872 C1874 1.378 . S
C1872 C1876 1.350 . S
C1873 C1876 1.463 1_655 S
C1873 C1878 1.350 . S
C1873 N1881 1.427 . S
C1874 H1865 0.930 . S
C1874 C1872 1.378 . S
C1874 C1875 1.367 . S
C1875 C1874 1.367 . S
C1875 C1877 1.433 . S
C1876 C1872 1.350 . S
C1876 C1873 1.463 1_455 S
C1876 N1880 1.427 . S
C1877 H1867 0.929 . S
C1877 C1875 1.433 . S
C1877 N1880 1.384 . S
C1878 H1869 0.929 . S
C1878 C1870 1.378 . S
C1878 C1873 1.350 . S
C1879 H1866 0.929 . S
C1879 C1871 1.433 . S
C1879 N1881 1.384 . S
N1880 C1876 1.427 . S
N1880 C1877 1.384 . S
N1881 C1873 1.427 . S
N1881 C1879 1.384 . S
H1882 C1888 0.930 . S
H1883 C1892 0.930 . S
H1884 C1897 0.929 . S
H1885 C1895 0.929 . S
H1886 C1890 0.929 . S
H1887 C1896 0.929 . S
C1888 H1882 0.930 . S
C1888 C1889 1.367 . S
C1888 C1896 1.378 . S
C1889 C1888 1.367 . S
C1889 C1897 1.433 . S
C1890 H1886 0.929 . S
C1890 C1892 1.378 . S
C1890 C1894 1.350 . S
C1891 C1894 1.463 . S
C1891 C1896 1.350 . S
C1891 N1899 1.427 . S
C1892 H1883 0.930 . S
C1892 C1890 1.378 . S
C1892 C1893 1.367 . S
C1893 C1892 1.367 . S
C1893 C1895 1.433 . S
C1894 C1890 1.350 . S
C1894 C1891 1.463 . S
C1894 N1898 1.427 . S
C1895 H1885 0.929 . S
C1895 C1893 1.433 . S
C1895 N1898 1.384 . S
C1896 H1887 0.929 . S
C1896 C1888 1.378 . S
C1896 C1891 1.350 . S
C1897 H1884 0.929 . S
C1897 C1889 1.433 . S
C1897 N1899 1.384 . S
N1898 C1894 1.427 . S
N1898 C1895 1.384 . S
N1899 C1891 1.427 . S
N1899 C1897 1.384 . S
H1900 C1906 0.930 . S
H1901 C1910 0.930 . S
H1902 C1915 0.929 . S
H1903 C1913 0.929 . S
H1904 C1908 0.929 . S
H1905 C1914 0.929 . S
C1906 H1900 0.930 . S
C1906 C1907 1.367 . S
C1906 C1914 1.378 . S
C1907 C1906 1.367 . S
C1907 C1915 1.433 . S
C1908 H1904 0.929 . S
C1908 C1910 1.378 . S
C1908 C1912 1.350 . S
C1909 C1912 1.463 . S
C1909 C1914 1.350 . S
C1909 N1917 1.427 . S
C1910 H1901 0.930 . S
C1910 C1908 1.378 . S
C1910 C1911 1.367 . S
C1911 C1910 1.367 . S
C1911 C1913 1.433 . S
C1912 C1908 1.350 . S
C1912 C1909 1.463 . S
C1912 N1916 1.427 . S
C1913 H1903 0.929 . S
C1913 C1911 1.433 . S
C1913 N1916 1.384 . S
C1914 H1905 0.929 . S
C1914 C1906 1.378 . S
C1914 C1909 1.350 . S
C1915 H1902 0.929 . S
C1915 C1907 1.433 . S
C1915 N1917 1.384 . S
N1916 C1912 1.427 . S
N1916 C1913 1.384 . S
N1917 C1909 1.427 . S
N1917 C1915 1.384 . S
H1918 C1924 0.930 . S
H1919 C1928 0.930 . S
H1920 C1933 0.929 . S
H1921 C1931 0.929 . S
H1922 C1926 0.929 . S
H1923 C1932 0.929 . S
C1924 H1918 0.930 . S
C1924 C1925 1.367 . S
C1924 C1932 1.378 . S
C1925 C1924 1.367 . S
C1925 C1933 1.433 . S
C1926 H1922 0.929 . S
C1926 C1928 1.378 . S
C1926 C1930 1.350 . S
C1927 C1930 1.463 1_655 S
C1927 C1932 1.350 . S
C1927 N1935 1.427 . S
C1928 H1919 0.930 . S
C1928 C1926 1.378 . S
C1928 C1929 1.367 . S
C1929 C1928 1.367 . S
C1929 C1931 1.433 . S
C1930 C1926 1.350 . S
C1930 C1927 1.463 1_455 S
C1930 N1934 1.427 . S
C1931 H1921 0.929 . S
C1931 C1929 1.433 . S
C1931 N1934 1.384 . S
C1932 H1923 0.929 . S
C1932 C1924 1.378 . S
C1932 C1927 1.350 . S
C1933 H1920 0.929 . S
C1933 C1925 1.433 . S
C1933 N1935 1.384 . S
N1934 C1930 1.427 . S
N1934 C1931 1.384 . S
N1935 C1927 1.427 . S
N1935 C1933 1.384 . S
H1936 C1942 0.930 . S
H1937 C1946 0.930 . S
H1938 C1951 0.929 . S
H1939 C1949 0.929 . S
H1940 C1944 0.929 . S
H1941 C1950 0.929 . S
C1942 H1936 0.930 . S
C1942 C1943 1.367 . S
C1942 C1950 1.378 . S
C1943 C1942 1.367 . S
C1943 C1951 1.433 . S
C1944 H1940 0.929 . S
C1944 C1946 1.378 . S
C1944 C1948 1.350 . S
C1945 C1948 1.463 1_455 S
C1945 C1950 1.350 . S
C1945 N1953 1.427 . S
C1946 H1937 0.930 . S
C1946 C1944 1.378 . S
C1946 C1947 1.367 . S
C1947 C1946 1.367 . S
C1947 C1949 1.433 . S
C1948 C1944 1.350 . S
C1948 C1945 1.463 1_655 S
C1948 N1952 1.427 . S
C1949 H1939 0.929 . S
C1949 C1947 1.433 . S
C1949 N1952 1.384 . S
C1950 H1941 0.929 . S
C1950 C1942 1.378 . S
C1950 C1945 1.350 . S
C1951 H1938 0.929 . S
C1951 C1943 1.433 . S
C1951 N1953 1.384 . S
N1952 C1948 1.427 . S
N1952 C1949 1.384 . S
N1953 C1945 1.427 . S
N1953 C1951 1.384 . S
H1954 C1960 0.930 . S
H1955 C1964 0.930 . S
H1956 C1969 0.929 . S
H1957 C1967 0.929 . S
H1958 C1962 0.929 . S
H1959 C1968 0.929 . S
C1960 H1954 0.930 . S
C1960 C1961 1.367 . S
C1960 C1968 1.378 . S
C1961 C1960 1.367 . S
C1961 C1969 1.433 1_455 S
C1962 H1958 0.929 . S
C1962 C1964 1.378 . S
C1962 C1966 1.350 . S
C1963 C1966 1.463 1_455 S
C1963 C1968 1.350 . S
C1963 N1971 1.427 1_455 S
C1964 H1955 0.930 . S
C1964 C1962 1.378 . S
C1964 C1965 1.367 . S
C1965 C1964 1.367 . S
C1965 C1967 1.433 1_655 S
C1966 C1962 1.350 . S
C1966 C1963 1.463 1_655 S
C1966 N1970 1.427 1_655 S
C1967 H1957 0.929 . S
C1967 C1965 1.433 1_455 S
C1967 N1970 1.384 . S
C1968 H1959 0.929 . S
C1968 C1960 1.378 . S
C1968 C1963 1.350 . S
C1969 H1956 0.929 . S
C1969 C1961 1.433 1_655 S
C1969 N1971 1.384 . S
N1970 C1966 1.427 1_455 S
N1970 C1967 1.384 . S
N1971 C1963 1.427 1_655 S
N1971 C1969 1.384 . S
H1972 C1978 0.930 . S
H1973 C1982 0.930 . S
H1974 C1987 0.929 . S
H1975 C1985 0.929 . S
H1976 C1980 0.929 . S
H1977 C1986 0.929 . S
C1978 H1972 0.930 . S
C1978 C1979 1.367 . S
C1978 C1986 1.378 . S
C1979 C1978 1.367 . S
C1979 C1987 1.433 . S
C1980 H1976 0.929 . S
C1980 C1982 1.378 . S
C1980 C1984 1.350 . S
C1981 C1984 1.463 . S
C1981 C1986 1.350 . S
C1981 N1989 1.427 . S
C1982 H1973 0.930 . S
C1982 C1980 1.378 . S
C1982 C1983 1.367 . S
C1983 C1982 1.367 . S
C1983 C1985 1.433 . S
C1984 C1980 1.350 . S
C1984 C1981 1.463 . S
C1984 N1988 1.427 . S
C1985 H1975 0.929 . S
C1985 C1983 1.433 . S
C1985 N1988 1.384 . S
C1986 H1977 0.929 . S
C1986 C1978 1.378 . S
C1986 C1981 1.350 . S
C1987 H1974 0.929 . S
C1987 C1979 1.433 . S
C1987 N1989 1.384 . S
N1988 C1984 1.427 . S
N1988 C1985 1.384 . S
N1989 C1981 1.427 . S
N1989 C1987 1.384 . S
H1990 C1996 0.930 . S
H1991 C2000 0.930 . S
H1992 C2005 0.929 . S
H1993 C2003 0.929 . S
H1994 C1998 0.929 . S
H1995 C2004 0.929 . S
C1996 H1990 0.930 . S
C1996 C1997 1.367 . S
C1996 C2004 1.378 . S
C1997 C1996 1.367 . S
C1997 C2005 1.433 . S
C1998 H1994 0.929 . S
C1998 C2000 1.378 . S
C1998 C2002 1.350 . S
C1999 C2002 1.463 . S
C1999 C2004 1.350 . S
C1999 N2007 1.427 . S
C2000 H1991 0.930 . S
C2000 C1998 1.378 . S
C2000 C2001 1.367 . S
C2001 C2000 1.367 . S
C2001 C2003 1.433 . S
C2002 C1998 1.350 . S
C2002 C1999 1.463 . S
C2002 N2006 1.427 . S
C2003 H1993 0.929 . S
C2003 C2001 1.433 . S
C2003 N2006 1.384 . S
C2004 H1995 0.929 . S
C2004 C1996 1.378 . S
C2004 C1999 1.350 . S
C2005 H1992 0.929 . S
C2005 C1997 1.433 . S
C2005 N2007 1.384 . S
N2006 C2002 1.427 . S
N2006 C2003 1.384 . S
N2007 C1999 1.427 . S
N2007 C2005 1.384 . S
H2008 C2014 0.930 . S
H2009 C2018 0.930 . S
H2010 C2023 0.929 . S
H2011 C2021 0.929 . S
H2012 C2016 0.929 . S
H2013 C2022 0.929 . S
C2014 H2008 0.930 . S
C2014 C2015 1.367 . S
C2014 C2022 1.378 . S
C2015 C2014 1.367 . S
C2015 C2023 1.433 . S
C2016 H2012 0.929 . S
C2016 C2018 1.378 . S
C2016 C2020 1.350 . S
C2017 C2020 1.463 1_655 S
C2017 C2022 1.350 . S
C2017 N2025 1.427 . S
C2018 H2009 0.930 . S
C2018 C2016 1.378 . S
C2018 C2019 1.367 . S
C2019 C2018 1.367 . S
C2019 C2021 1.433 . S
C2020 C2016 1.350 . S
C2020 C2017 1.463 1_455 S
C2020 N2024 1.427 . S
C2021 H2011 0.929 . S
C2021 C2019 1.433 . S
C2021 N2024 1.384 . S
C2022 H2013 0.929 . S
C2022 C2014 1.378 . S
C2022 C2017 1.350 . S
C2023 H2010 0.929 . S
C2023 C2015 1.433 . S
C2023 N2025 1.384 . S
N2024 C2020 1.427 . S
N2024 C2021 1.384 . S
N2025 C2017 1.427 . S
N2025 C2023 1.384 . S
H2026 C2032 0.930 . S
H2027 C2036 0.930 . S
H2028 C2041 0.929 . S
H2029 C2039 0.929 . S
H2030 C2034 0.929 . S
H2031 C2040 0.929 . S
C2032 H2026 0.930 . S
C2032 C2033 1.367 . S
C2032 C2040 1.378 . S
C2033 C2032 1.367 . S
C2033 C2041 1.433 . S
C2034 H2030 0.929 . S
C2034 C2036 1.378 . S
C2034 C2038 1.350 . S
C2035 C2038 1.463 . S
C2035 C2040 1.350 . S
C2035 N2043 1.427 . S
C2036 H2027 0.930 . S
C2036 C2034 1.378 . S
C2036 C2037 1.367 . S
C2037 C2036 1.367 . S
C2037 C2039 1.433 . S
C2038 C2034 1.350 . S
C2038 C2035 1.463 . S
C2038 N2042 1.427 . S
C2039 H2029 0.929 . S
C2039 C2037 1.433 . S
C2039 N2042 1.384 . S
C2040 H2031 0.929 . S
C2040 C2032 1.378 . S
C2040 C2035 1.350 . S
C2041 H2028 0.929 . S
C2041 C2033 1.433 . S
C2041 N2043 1.384 . S
N2042 C2038 1.427 . S
N2042 C2039 1.384 . S
N2043 C2035 1.427 . S
N2043 C2041 1.384 . S
H2044 C2050 0.930 . S
H2045 C2054 0.930 . S
H2046 C2059 0.929 . S
H2047 C2057 0.929 . S
H2048 C2052 0.929 . S
H2049 C2058 0.929 . S
C2050 H2044 0.930 . S
C2050 C2051 1.367 . S
C2050 C2058 1.378 . S
C2051 C2050 1.367 . S
C2051 C2059 1.433 . S
C2052 H2048 0.929 . S
C2052 C2054 1.378 . S
C2052 C2056 1.350 . S
C2053 C2056 1.463 . S
C2053 C2058 1.350 . S
C2053 N2061 1.427 . S
C2054 H2045 0.930 . S
C2054 C2052 1.378 . S
C2054 C2055 1.367 . S
C2055 C2054 1.367 . S
C2055 C2057 1.433 . S
C2056 C2052 1.350 . S
C2056 C2053 1.463 . S
C2056 N2060 1.427 . S
C2057 H2047 0.929 . S
C2057 C2055 1.433 . S
C2057 N2060 1.384 . S
C2058 H2049 0.929 . S
C2058 C2050 1.378 . S
C2058 C2053 1.350 . S
C2059 H2046 0.929 . S
C2059 C2051 1.433 . S
C2059 N2061 1.384 . S
N2060 C2056 1.427 . S
N2060 C2057 1.384 . S
N2061 C2053 1.427 . S
N2061 C2059 1.384 . S
H2062 C2068 0.930 . S
H2063 C2072 0.930 . S
H2064 C2077 0.929 . S
H2065 C2075 0.929 . S
H2066 C2070 0.929 . S
H2067 C2076 0.929 . S
C2068 H2062 0.930 . S
C2068 C2069 1.367 . S
C2068 C2076 1.378 . S
C2069 C2068 1.367 . S
C2069 C2077 1.433 . S
C2070 H2066 0.929 . S
C2070 C2072 1.378 . S
C2070 C2074 1.350 . S
C2071 C2074 1.463 1_655 S
C2071 C2076 1.350 . S
C2071 N2079 1.427 . S
C2072 H2063 0.930 . S
C2072 C2070 1.378 . S
C2072 C2073 1.367 . S
C2073 C2072 1.367 . S
C2073 C2075 1.433 . S
C2074 C2070 1.350 . S
C2074 C2071 1.463 1_455 S
C2074 N2078 1.427 . S
C2075 H2065 0.929 . S
C2075 C2073 1.433 . S
C2075 N2078 1.384 . S
C2076 H2067 0.929 . S
C2076 C2068 1.378 . S
C2076 C2071 1.350 . S
C2077 H2064 0.929 . S
C2077 C2069 1.433 . S
C2077 N2079 1.384 . S
N2078 C2074 1.427 . S
N2078 C2075 1.384 . S
N2079 C2071 1.427 . S
N2079 C2077 1.384 . S
H2080 C2086 0.930 . S
H2081 C2090 0.930 . S
H2082 C2095 0.929 . S
H2083 C2093 0.929 . S
H2084 C2088 0.929 . S
H2085 C2094 0.929 . S
C2086 H2080 0.930 . S
C2086 C2087 1.367 . S
C2086 C2094 1.378 . S
C2087 C2086 1.367 . S
C2087 C2095 1.433 . S
C2088 H2084 0.929 . S
C2088 C2090 1.378 . S
C2088 C2092 1.350 . S
C2089 C2092 1.463 . S
C2089 C2094 1.350 . S
C2089 N2097 1.427 . S
C2090 H2081 0.930 . S
C2090 C2088 1.378 . S
C2090 C2091 1.367 . S
C2091 C2090 1.367 . S
C2091 C2093 1.433 . S
C2092 C2088 1.350 . S
C2092 C2089 1.463 . S
C2092 N2096 1.427 . S
C2093 H2083 0.929 . S
C2093 C2091 1.433 . S
C2093 N2096 1.384 . S
C2094 H2085 0.929 . S
C2094 C2086 1.378 . S
C2094 C2089 1.350 . S
C2095 H2082 0.929 . S
C2095 C2087 1.433 . S
C2095 N2097 1.384 . S
N2096 C2092 1.427 . S
N2096 C2093 1.384 . S
N2097 C2089 1.427 . S
N2097 C2095 1.384 . S
H2098 C2104 0.930 . S
H2099 C2108 0.930 . S
H2100 C2113 0.929 . S
H2101 C2111 0.929 . S
H2102 C2106 0.929 . S
H2103 C2112 0.929 . S
C2104 H2098 0.930 . S
C2104 C2105 1.367 . S
C2104 C2112 1.378 . S
C2105 C2104 1.367 . S
C2105 C2113 1.433 . S
C2106 H2102 0.929 . S
C2106 C2108 1.378 . S
C2106 C2110 1.350 . S
C2107 C2110 1.463 . S
C2107 C2112 1.350 . S
C2107 N2115 1.427 . S
C2108 H2099 0.930 . S
C2108 C2106 1.378 . S
C2108 C2109 1.367 . S
C2109 C2108 1.367 . S
C2109 C2111 1.433 . S
C2110 C2106 1.350 . S
C2110 C2107 1.463 . S
C2110 N2114 1.427 . S
C2111 H2101 0.929 . S
C2111 C2109 1.433 . S
C2111 N2114 1.384 . S
C2112 H2103 0.929 . S
C2112 C2104 1.378 . S
C2112 C2107 1.350 . S
C2113 H2100 0.929 . S
C2113 C2105 1.433 . S
C2113 N2115 1.384 . S
N2114 C2110 1.427 . S
N2114 C2111 1.384 . S
N2115 C2107 1.427 . S
N2115 C2113 1.384 . S
H2116 C2122 0.930 . S
H2117 C2126 0.930 . S
H2118 C2131 0.929 . S
H2119 C2129 0.929 . S
H2120 C2124 0.929 . S
H2121 C2130 0.929 . S
C2122 H2116 0.930 . S
C2122 C2123 1.367 . S
C2122 C2130 1.378 . S
C2123 C2122 1.367 . S
C2123 C2131 1.433 . S
C2124 H2120 0.929 . S
C2124 C2126 1.378 . S
C2124 C2128 1.350 . S
C2125 C2128 1.463 . S
C2125 C2130 1.350 . S
C2125 N2133 1.427 . S
C2126 H2117 0.930 . S
C2126 C2124 1.378 . S
C2126 C2127 1.367 . S
C2127 C2126 1.367 . S
C2127 C2129 1.433 . S
C2128 C2124 1.350 . S
C2128 C2125 1.463 . S
C2128 N2132 1.427 . S
C2129 H2119 0.929 . S
C2129 C2127 1.433 . S
C2129 N2132 1.384 . S
C2130 H2121 0.929 . S
C2130 C2122 1.378 . S
C2130 C2125 1.350 . S
C2131 H2118 0.929 . S
C2131 C2123 1.433 . S
C2131 N2133 1.384 . S
N2132 C2128 1.427 . S
N2132 C2129 1.384 . S
N2133 C2125 1.427 . S
N2133 C2131 1.384 . S
H2134 C2140 0.930 . S
H2135 C2144 0.930 . S
H2136 C2149 0.929 . S
H2137 C2147 0.929 . S
H2138 C2142 0.929 . S
H2139 C2148 0.929 . S
C2140 H2134 0.930 . S
C2140 C2141 1.367 . S
C2140 C2148 1.378 . S
C2141 C2140 1.367 . S
C2141 C2149 1.433 . S
C2142 H2138 0.929 . S
C2142 C2144 1.378 . S
C2142 C2146 1.350 . S
C2143 C2146 1.463 . S
C2143 C2148 1.350 . S
C2143 N2151 1.427 . S
C2144 H2135 0.930 . S
C2144 C2142 1.378 . S
C2144 C2145 1.367 . S
C2145 C2144 1.367 . S
C2145 C2147 1.433 . S
C2146 C2142 1.350 . S
C2146 C2143 1.463 . S
C2146 N2150 1.427 . S
C2147 H2137 0.929 . S
C2147 C2145 1.433 . S
C2147 N2150 1.384 . S
C2148 H2139 0.929 . S
C2148 C2140 1.378 . S
C2148 C2143 1.350 . S
C2149 H2136 0.929 . S
C2149 C2141 1.433 . S
C2149 N2151 1.384 . S
N2150 C2146 1.427 . S
N2150 C2147 1.384 . S
N2151 C2143 1.427 . S
N2151 C2149 1.384 . S
H2152 C2158 0.930 . S
H2153 C2162 0.930 . S
H2154 C2167 0.929 . S
H2155 C2165 0.929 . S
H2156 C2160 0.929 . S
H2157 C2166 0.929 . S
C2158 H2152 0.930 . S
C2158 C2159 1.367 . S
C2158 C2166 1.378 . S
C2159 C2158 1.367 . S
C2159 C2167 1.433 . S
C2160 H2156 0.929 . S
C2160 C2162 1.378 . S
C2160 C2164 1.350 . S
C2161 C2164 1.463 . S
C2161 C2166 1.350 . S
C2161 N2169 1.427 . S
C2162 H2153 0.930 . S
C2162 C2160 1.378 . S
C2162 C2163 1.367 . S
C2163 C2162 1.367 . S
C2163 C2165 1.433 . S
C2164 C2160 1.350 . S
C2164 C2161 1.463 . S
C2164 N2168 1.427 . S
C2165 H2155 0.929 . S
C2165 C2163 1.433 . S
C2165 N2168 1.384 . S
C2166 H2157 0.929 . S
C2166 C2158 1.378 . S
C2166 C2161 1.350 . S
C2167 H2154 0.929 . S
C2167 C2159 1.433 . S
C2167 N2169 1.384 . S
N2168 C2164 1.427 . S
N2168 C2165 1.384 . S
N2169 C2161 1.427 . S
N2169 C2167 1.384 . S
H2170 C2176 0.930 . S
H2171 C2180 0.930 . S
H2172 C2185 0.929 . S
H2173 C2183 0.929 . S
H2174 C2178 0.929 . S
H2175 C2184 0.929 . S
C2176 H2170 0.930 . S
C2176 C2177 1.367 . S
C2176 C2184 1.378 . S
C2177 C2176 1.367 . S
C2177 C2185 1.433 . S
C2178 H2174 0.929 . S
C2178 C2180 1.378 . S
C2178 C2182 1.350 . S
C2179 C2182 1.463 . S
C2179 C2184 1.350 . S
C2179 N2187 1.427 . S
C2180 H2171 0.930 . S
C2180 C2178 1.378 . S
C2180 C2181 1.367 . S
C2181 C2180 1.367 . S
C2181 C2183 1.433 . S
C2182 C2178 1.350 . S
C2182 C2179 1.463 . S
C2182 N2186 1.427 . S
C2183 H2173 0.929 . S
C2183 C2181 1.433 . S
C2183 N2186 1.384 . S
C2184 H2175 0.929 . S
C2184 C2176 1.378 . S
C2184 C2179 1.350 . S
C2185 H2172 0.929 . S
C2185 C2177 1.433 . S
C2185 N2187 1.384 . S
N2186 C2182 1.427 . S
N2186 C2183 1.384 . S
N2187 C2179 1.427 . S
N2187 C2185 1.384 . S
H2188 C2194 0.930 . S
H2189 C2198 0.930 . S
H2190 C2203 0.929 . S
H2191 C2201 0.929 . S
H2192 C2196 0.929 . S
H2193 C2202 0.929 . S
C2194 H2188 0.930 . S
C2194 C2195 1.367 . S
C2194 C2202 1.378 . S
C2195 C2194 1.367 . S
C2195 C2203 1.433 . S
C2196 H2192 0.929 . S
C2196 C2198 1.378 . S
C2196 C2200 1.350 . S
C2197 C2200 1.463 . S
C2197 C2202 1.350 . S
C2197 N2205 1.427 . S
C2198 H2189 0.930 . S
C2198 C2196 1.378 . S
C2198 C2199 1.367 . S
C2199 C2198 1.367 . S
C2199 C2201 1.433 . S
C2200 C2196 1.350 . S
C2200 C2197 1.463 . S
C2200 N2204 1.427 . S
C2201 H2191 0.929 . S
C2201 C2199 1.433 . S
C2201 N2204 1.384 . S
C2202 H2193 0.929 . S
C2202 C2194 1.378 . S
C2202 C2197 1.350 . S
C2203 H2190 0.929 . S
C2203 C2195 1.433 . S
C2203 N2205 1.384 . S
N2204 C2200 1.427 . S
N2204 C2201 1.384 . S
N2205 C2197 1.427 . S
N2205 C2203 1.384 . S
H2206 C2212 0.930 . S
H2207 C2216 0.930 . S
H2208 C2221 0.929 . S
H2209 C2219 0.929 . S
H2210 C2214 0.929 . S
H2211 C2220 0.929 . S
C2212 H2206 0.930 . S
C2212 C2213 1.367 . S
C2212 C2220 1.378 . S
C2213 C2212 1.367 . S
C2213 C2221 1.433 . S
C2214 H2210 0.929 . S
C2214 C2216 1.378 . S
C2214 C2218 1.350 . S
C2215 C2218 1.463 . S
C2215 C2220 1.350 . S
C2215 N2223 1.427 . S
C2216 H2207 0.930 . S
C2216 C2214 1.378 . S
C2216 C2217 1.367 . S
C2217 C2216 1.367 . S
C2217 C2219 1.433 . S
C2218 C2214 1.350 . S
C2218 C2215 1.463 . S
C2218 N2222 1.427 . S
C2219 H2209 0.929 . S
C2219 C2217 1.433 . S
C2219 N2222 1.384 . S
C2220 H2211 0.929 . S
C2220 C2212 1.378 . S
C2220 C2215 1.350 . S
C2221 H2208 0.929 . S
C2221 C2213 1.433 . S
C2221 N2223 1.384 . S
N2222 C2218 1.427 . S
N2222 C2219 1.384 . S
N2223 C2215 1.427 . S
N2223 C2221 1.384 . S
H2224 C2230 0.930 . S
H2225 C2234 0.930 . S
H2226 C2239 0.929 . S
H2227 C2237 0.929 . S
H2228 C2232 0.929 . S
H2229 C2238 0.929 . S
C2230 H2224 0.930 . S
C2230 C2231 1.367 . S
C2230 C2238 1.378 . S
C2231 C2230 1.367 . S
C2231 C2239 1.433 . S
C2232 H2228 0.929 . S
C2232 C2234 1.378 . S
C2232 C2236 1.350 . S
C2233 C2236 1.463 . S
C2233 C2238 1.350 . S
C2233 N2241 1.427 . S
C2234 H2225 0.930 . S
C2234 C2232 1.378 . S
C2234 C2235 1.367 . S
C2235 C2234 1.367 . S
C2235 C2237 1.433 . S
C2236 C2232 1.350 . S
C2236 C2233 1.463 . S
C2236 N2240 1.427 . S
C2237 H2227 0.929 . S
C2237 C2235 1.433 . S
C2237 N2240 1.384 . S
C2238 H2229 0.929 . S
C2238 C2230 1.378 . S
C2238 C2233 1.350 . S
C2239 H2226 0.929 . S
C2239 C2231 1.433 . S
C2239 N2241 1.384 . S
N2240 C2236 1.427 . S
N2240 C2237 1.384 . S
N2241 C2233 1.427 . S
N2241 C2239 1.384 . S
H2242 C2248 0.930 . S
H2243 C2252 0.930 . S
H2244 C2257 0.929 . S
H2245 C2255 0.929 . S
H2246 C2250 0.929 . S
H2247 C2256 0.929 . S
C2248 H2242 0.930 . S
C2248 C2249 1.367 . S
C2248 C2256 1.378 . S
C2249 C2248 1.367 . S
C2249 C2257 1.433 . S
C2250 H2246 0.929 . S
C2250 C2252 1.378 . S
C2250 C2254 1.350 . S
C2251 C2254 1.463 . S
C2251 C2256 1.350 . S
C2251 N2259 1.427 . S
C2252 H2243 0.930 . S
C2252 C2250 1.378 . S
C2252 C2253 1.367 . S
C2253 C2252 1.367 . S
C2253 C2255 1.433 . S
C2254 C2250 1.350 . S
C2254 C2251 1.463 . S
C2254 N2258 1.427 . S
C2255 H2245 0.929 . S
C2255 C2253 1.433 . S
C2255 N2258 1.384 . S
C2256 H2247 0.929 . S
C2256 C2248 1.378 . S
C2256 C2251 1.350 . S
C2257 H2244 0.929 . S
C2257 C2249 1.433 . S
C2257 N2259 1.384 . S
N2258 C2254 1.427 . S
N2258 C2255 1.384 . S
N2259 C2251 1.427 . S
N2259 C2257 1.384 . S
H2260 C2266 0.930 . S
H2261 C2270 0.930 . S
H2262 C2275 0.929 . S
H2263 C2273 0.929 . S
H2264 C2268 0.929 . S
H2265 C2274 0.929 . S
C2266 H2260 0.930 . S
C2266 C2267 1.367 . S
C2266 C2274 1.378 . S
C2267 C2266 1.367 . S
C2267 C2275 1.433 . S
C2268 H2264 0.929 . S
C2268 C2270 1.378 . S
C2268 C2272 1.350 . S
C2269 C2272 1.463 . S
C2269 C2274 1.350 . S
C2269 N2277 1.427 . S
C2270 H2261 0.930 . S
C2270 C2268 1.378 . S
C2270 C2271 1.367 . S
C2271 C2270 1.367 . S
C2271 C2273 1.433 . S
C2272 C2268 1.350 . S
C2272 C2269 1.463 . S
C2272 N2276 1.427 . S
C2273 H2263 0.929 . S
C2273 C2271 1.433 . S
C2273 N2276 1.384 . S
C2274 H2265 0.929 . S
C2274 C2266 1.378 . S
C2274 C2269 1.350 . S
C2275 H2262 0.929 . S
C2275 C2267 1.433 . S
C2275 N2277 1.384 . S
N2276 C2272 1.427 . S
N2276 C2273 1.384 . S
N2277 C2269 1.427 . S
N2277 C2275 1.384 . S
H2278 C2284 0.930 . S
H2279 C2288 0.930 . S
H2280 C2293 0.929 . S
H2281 C2291 0.929 . S
H2282 C2286 0.929 . S
H2283 C2292 0.929 . S
C2284 H2278 0.930 . S
C2284 C2285 1.367 . S
C2284 C2292 1.378 . S
C2285 C2284 1.367 . S
C2285 C2293 1.433 . S
C2286 H2282 0.929 . S
C2286 C2288 1.378 . S
C2286 C2290 1.350 . S
C2287 C2290 1.463 . S
C2287 C2292 1.350 . S
C2287 N2295 1.427 . S
C2288 H2279 0.930 . S
C2288 C2286 1.378 . S
C2288 C2289 1.367 . S
C2289 C2288 1.367 . S
C2289 C2291 1.433 . S
C2290 C2286 1.350 . S
C2290 C2287 1.463 . S
C2290 N2294 1.427 . S
C2291 H2281 0.929 . S
C2291 C2289 1.433 . S
C2291 N2294 1.384 . S
C2292 H2283 0.929 . S
C2292 C2284 1.378 . S
C2292 C2287 1.350 . S
C2293 H2280 0.929 . S
C2293 C2285 1.433 . S
C2293 N2295 1.384 . S
N2294 C2290 1.427 . S
N2294 C2291 1.384 . S
N2295 C2287 1.427 . S
N2295 C2293 1.384 . S
H2296 C2302 0.930 . S
H2297 C2306 0.930 . S
H2298 C2311 0.929 . S
H2299 C2309 0.929 . S
H2300 C2304 0.929 . S
H2301 C2310 0.929 . S
C2302 H2296 0.930 . S
C2302 C2303 1.367 . S
C2302 C2310 1.378 . S
C2303 C2302 1.367 . S
C2303 C2311 1.433 . S
C2304 H2300 0.929 . S
C2304 C2306 1.378 . S
C2304 C2308 1.350 . S
C2305 C2308 1.463 . S
C2305 C2310 1.350 . S
C2305 N2313 1.427 . S
C2306 H2297 0.930 . S
C2306 C2304 1.378 . S
C2306 C2307 1.367 . S
C2307 C2306 1.367 . S
C2307 C2309 1.433 . S
C2308 C2304 1.350 . S
C2308 C2305 1.463 . S
C2308 N2312 1.427 . S
C2309 H2299 0.929 . S
C2309 C2307 1.433 . S
C2309 N2312 1.384 . S
C2310 H2301 0.929 . S
C2310 C2302 1.378 . S
C2310 C2305 1.350 . S
C2311 H2298 0.929 . S
C2311 C2303 1.433 . S
C2311 N2313 1.384 . S
N2312 C2308 1.427 . S
N2312 C2309 1.384 . S
N2313 C2305 1.427 . S
N2313 C2311 1.384 . S
H2314 C2320 0.930 . S
H2315 C2324 0.930 . S
H2316 C2329 0.929 . S
H2317 C2327 0.929 . S
H2318 C2322 0.929 . S
H2319 C2328 0.929 . S
C2320 H2314 0.930 . S
C2320 C2321 1.367 . S
C2320 C2328 1.378 . S
C2321 C2320 1.367 . S
C2321 C2329 1.433 . S
C2322 H2318 0.929 . S
C2322 C2324 1.378 . S
C2322 C2326 1.350 . S
C2323 C2326 1.463 . S
C2323 C2328 1.350 . S
C2323 N2331 1.427 . S
C2324 H2315 0.930 . S
C2324 C2322 1.378 . S
C2324 C2325 1.367 . S
C2325 C2324 1.367 . S
C2325 C2327 1.433 . S
C2326 C2322 1.350 . S
C2326 C2323 1.463 . S
C2326 N2330 1.427 . S
C2327 H2317 0.929 . S
C2327 C2325 1.433 . S
C2327 N2330 1.384 . S
C2328 H2319 0.929 . S
C2328 C2320 1.378 . S
C2328 C2323 1.350 . S
C2329 H2316 0.929 . S
C2329 C2321 1.433 . S
C2329 N2331 1.384 . S
N2330 C2326 1.427 . S
N2330 C2327 1.384 . S
N2331 C2323 1.427 . S
N2331 C2329 1.384 . S
H2332 C2338 0.930 . S
H2333 C2342 0.930 . S
H2334 C2347 0.929 . S
H2335 C2345 0.929 . S
H2336 C2340 0.929 . S
H2337 C2346 0.929 . S
C2338 H2332 0.930 . S
C2338 C2339 1.367 . S
C2338 C2346 1.378 . S
C2339 C2338 1.367 . S
C2339 C2347 1.433 . S
C2340 H2336 0.929 . S
C2340 C2342 1.378 . S
C2340 C2344 1.350 . S
C2341 C2344 1.463 . S
C2341 C2346 1.350 . S
C2341 N2349 1.427 . S
C2342 H2333 0.930 . S
C2342 C2340 1.378 . S
C2342 C2343 1.367 . S
C2343 C2342 1.367 . S
C2343 C2345 1.433 . S
C2344 C2340 1.350 . S
C2344 C2341 1.463 . S
C2344 N2348 1.427 . S
C2345 H2335 0.929 . S
C2345 C2343 1.433 . S
C2345 N2348 1.384 . S
C2346 H2337 0.929 . S
C2346 C2338 1.378 . S
C2346 C2341 1.350 . S
C2347 H2334 0.929 . S
C2347 C2339 1.433 . S
C2347 N2349 1.384 . S
N2348 C2344 1.427 . S
N2348 C2345 1.384 . S
N2349 C2341 1.427 . S
N2349 C2347 1.384 . S
H2350 C2356 0.930 . S
H2351 C2360 0.930 . S
H2352 C2365 0.929 . S
H2353 C2363 0.929 . S
H2354 C2358 0.929 . S
H2355 C2364 0.929 . S
C2356 H2350 0.930 . S
C2356 C2357 1.367 . S
C2356 C2364 1.378 . S
C2357 C2356 1.367 . S
C2357 C2365 1.433 . S
C2358 H2354 0.929 . S
C2358 C2360 1.378 . S
C2358 C2362 1.350 . S
C2359 C2362 1.463 . S
C2359 C2364 1.350 . S
C2359 N2367 1.427 . S
C2360 H2351 0.930 . S
C2360 C2358 1.378 . S
C2360 C2361 1.367 . S
C2361 C2360 1.367 . S
C2361 C2363 1.433 . S
C2362 C2358 1.350 . S
C2362 C2359 1.463 . S
C2362 N2366 1.427 . S
C2363 H2353 0.929 . S
C2363 C2361 1.433 . S
C2363 N2366 1.384 . S
C2364 H2355 0.929 . S
C2364 C2356 1.378 . S
C2364 C2359 1.350 . S
C2365 H2352 0.929 . S
C2365 C2357 1.433 . S
C2365 N2367 1.384 . S
N2366 C2362 1.427 . S
N2366 C2363 1.384 . S
N2367 C2359 1.427 . S
N2367 C2365 1.384 . S
C647 C5 1.669 . S
C651 C94 1.658 . S
C665 C114 1.652 . S
C669 C34 1.667 . S
C683 C134 1.669 . S
C687 C54 1.655 . S
C701 C74 1.666 . S
C705 C145 1.663 . S
C719 C174 1.659 . S
C723 C254 1.654 . S
C737 C194 1.664 . S
C741 C274 1.651 . S
C755 C214 1.660 . S
C759 C294 1.668 . S
C773 C314 1.667 . S
C777 C234 1.652 . S
C791 C325 1.666 . S
C795 C414 1.663 . S
C809 C434 1.669 . S
C813 C354 1.655 . S
C827 C374 1.651 . S
C831 C454 1.664 . S
C845 C465 1.669 . S
C849 C394 1.655 . S
C863 C494 1.662 . S
C867 C574 1.652 . S
C881 C514 1.667 . S
C885 C594 1.662 . S
C899 C534 1.659 . S
C903 C614 1.668 . S
C917 C554 1.651 . S
C921 C634 1.663 . S
C935 C482 2.615 . S
C939 C13 2.615 . S
C953 C182 2.610 . S
C957 C22 2.610 . S
C971 C42 2.619 . S
C975 C522 2.619 . S
C989 C62 2.613 . S
C993 C222 2.613 . S
C1007 C82 2.610 . S
C1011 C562 2.610 . S
C1025 C102 2.619 . S
C1029 C262 2.619 . S
C1043 C602 2.610 . S
C1047 C122 2.610 . S
C1061 C302 2.619 . S
C1065 C153 2.619 . S
C1079 C333 2.615 . S
C1083 C162 2.615 . S
C1097 C202 2.612 . S
C1101 C362 2.612 . S
C1115 C242 2.620 . S
C1119 C402 2.620 . S
C1133 C442 2.614 . S
C1137 C282 2.614 . S
C1151 C342 2.617 . S
C1155 C502 2.617 . S
C1169 C542 2.618 . S
C1173 C382 2.618 . S
C1187 C582 2.620 . S
C1191 C422 2.620 . S
C1205 C473 2.620 . S
C1209 C622 2.620 . S
C1223 C14 1.116 . S
C1227 C553 1.132 . S
C1241 C25 1.122 . S
C1245 C173 1.133 . S
C1259 C45 1.103 . S
C1263 C513 1.133 . S
C1277 C213 1.132 . S
C1281 C65 1.115 . S
C1295 C593 1.128 . S
C1299 C85 1.113 . S
C1313 C105 1.106 . S
C1317 C293 1.128 . S
C1331 C633 1.130 . S
C1335 C125 1.101 . S
C1349 C253 1.133 . S
C1353 C154 1.118 . S
C1367 C393 1.132 . S
C1371 C165 1.115 . S
C1385 C185 1.135 . S
C1389 C2 1.133 . S
C1403 C353 1.129 . S
C1407 C205 1.102 . S
C1421 C53 1.128 . S
C1425 C225 1.109 . S
C1439 C433 1.129 . S
C1443 C245 1.103 . S
C1457 C265 1.116 . S
C1461 C133 1.132 . S
C1475 C285 1.115 . S
C1479 C462 1.128 . S
C1493 C93 1.134 . S
C1497 C305 1.131 . S
C1511 C334 1.102 . S
C1515 C233 1.129 . S
C1529 C345 1.100 . S
C1533 C493 1.131 . S
C1547 C193 1.133 . S
C1551 C365 1.105 . S
C1565 C385 1.123 . S
C1569 C533 1.133 . S
C1583 C273 1.128 . S
C1587 C405 1.113 . S
C1601 C425 1.123 . S
C1605 C613 1.133 . S
C1619 C313 1.129 . S
C1623 C445 1.115 . S
C1637 C474 1.104 . S
C1641 C573 1.128 . S
C1655 C73 1.133 . S
C1659 C485 1.113 . S
C1673 C505 1.116 . S
C1677 C322 1.131 . S
C1691 C525 1.115 . S
C1695 C33 1.132 . S
C1709 C373 1.130 . S
C1713 C545 1.118 . S
C1727 C113 1.132 . S
C1731 C565 1.101 . S
C1745 C453 1.128 . S
C1749 C585 1.134 . S
C1763 C605 1.115 . S
C1767 C142 1.128 . S
C1781 C413 1.129 . S
C1785 C625 1.116 . S
C1799 C17 1.667 . S
C1803 C368 1.675 . S
C1817 C28 1.664 . S
C1821 C388 1.678 . S
C1835 C48 1.674 . S
C1839 C337 1.669 . S
C1853 C68 1.665 . S
C1857 C348 1.678 . S
C1871 C448 1.662 . S
C1875 C88 1.680 . S
C1889 C477 1.678 . S
C1893 C108 1.664 . S
C1907 C128 1.672 . S
C1911 C408 1.670 . S
C1925 C428 1.662 . S
C1929 C157 1.679 . S
C1943 C528 1.664 . S
C1947 C168 1.678 . S
C1961 C548 1.675 . S
C1965 C188 1.667 . S
C1979 C488 1.679 . S
C1983 C208 1.663 . S
C1997 C228 1.663 . S
C2001 C508 1.679 . S
C2015 C248 1.667 . S
C2019 C608 1.675 . S
C2033 C628 1.667 . S
C2037 C268 1.675 . S
C2051 C568 1.662 . S
C2055 C288 1.680 . S
C2069 C308 1.679 . S
C2073 C588 1.663 . S
C2087 C148 3.437 . S
C2091 C8 3.443 . S
C2105 C37 3.444 . S
C2109 C97 3.445 . S
C2123 C57 3.443 . S
C2127 C117 3.445 . S
C2141 C137 3.443 . S
C2145 C77 3.436 . S
C2159 C317 3.446 . S
C2163 C177 3.442 . S
C2177 C197 3.436 . S
C2181 C257 3.441 . S
C2195 C277 3.437 . S
C2199 C217 3.439 . S
C2213 C297 3.445 . S
C2217 C237 3.438 . S
C2231 C468 3.446 . S
C2235 C328 3.439 . S
C2249 C417 3.439 . S
C2253 C357 3.438 . S
C2267 C437 3.446 . S
C2271 C377 3.438 . S
C2285 C397 3.444 . S
C2289 C457 3.437 . S
C2303 C637 3.443 . S
C2307 C497 3.446 . S
C2321 C577 3.437 . S
C2325 C517 3.445 . S
C2339 C597 3.437 . S
C2343 C537 3.440 . S
C2357 C557 3.438 . S
C2361 C617 3.438 . S
