# Generated by pormake.
# Topology smd, (6)-cn, num edge types: 1
# Building blocks:
#     Node 0, Type 0, BuildingBlock: BETDEL_clean_sbu_0, # of connection points: 6
#     Node 1, Type 0, BuildingBlock: BETDEL_clean_sbu_0, # of connection points: 6
#     Node 2, Type 0, BuildingBlock: BETDEL_clean_sbu_0, # of connection points: 6
#     Node 3, Type 0, BuildingBlock: BETDEL_clean_sbu_0, # of connection points: 6
#     Node 4, Type 0, BuildingBlock: BETDEL_clean_sbu_0, # of connection points: 6
#     Node 5, Type 0, BuildingBlock: BETDEL_clean_sbu_0, # of connection points: 6
#     Node 6, Type 0, BuildingBlock: BETDEL_clean_sbu_0, # of connection points: 6
#     Node 7, Type 0, BuildingBlock: BETDEL_clean_sbu_0, # of connection points: 6
#     Node 8, Type 0, BuildingBlock: BETDEL_clean_sbu_0, # of connection points: 6
#     Node 9, Type 0, BuildingBlock: BETDEL_clean_sbu_0, # of connection points: 6
#     Node 10, Type 0, BuildingBlock: BETDEL_clean_sbu_0, # of connection points: 6
#     Node 11, Type 0, BuildingBlock: BETDEL_clean_sbu_0, # of connection points: 6
#     Node 12, Type 0, BuildingBlock: BETDEL_clean_sbu_0, # of connection points: 6
#     Node 13, Type 0, BuildingBlock: BETDEL_clean_sbu_0, # of connection points: 6
#     Node 14, Type 0, BuildingBlock: BETDEL_clean_sbu_0, # of connection points: 6
#     Node 15, Type 0, BuildingBlock: BETDEL_clean_sbu_0, # of connection points: 6
#     Node 16, Type 0, BuildingBlock: BETDEL_clean_sbu_0, # of connection points: 6
#     Node 17, Type 0, BuildingBlock: BETDEL_clean_sbu_0, # of connection points: 6
#     Edge 18, Type (0, 0), BuildingBlock: UVAHIK_clean_linker_0, # of connection points: 2
#     Edge 19, Type (0, 0), BuildingBlock: UVAHIK_clean_linker_0, # of connection points: 2
#     Edge 20, Type (0, 0), BuildingBlock: UVAHIK_clean_linker_0, # of connection points: 2
#     Edge 21, Type (0, 0), BuildingBlock: UVAHIK_clean_linker_0, # of connection points: 2
#     Edge 22, Type (0, 0), BuildingBlock: UVAHIK_clean_linker_0, # of connection points: 2
#     Edge 23, Type (0, 0), BuildingBlock: UVAHIK_clean_linker_0, # of connection points: 2
#     Edge 24, Type (0, 0), BuildingBlock: UVAHIK_clean_linker_0, # of connection points: 2
#     Edge 25, Type (0, 0), BuildingBlock: UVAHIK_clean_linker_0, # of connection points: 2
#     Edge 26, Type (0, 0), BuildingBlock: UVAHIK_clean_linker_0, # of connection points: 2
#     Edge 27, Type (0, 0), BuildingBlock: UVAHIK_clean_linker_0, # of connection points: 2
#     Edge 28, Type (0, 0), BuildingBlock: UVAHIK_clean_linker_0, # of connection points: 2
#     Edge 29, Type (0, 0), BuildingBlock: UVAHIK_clean_linker_0, # of connection points: 2
#     Edge 30, Type (0, 0), BuildingBlock: UVAHIK_clean_linker_0, # of connection points: 2
#     Edge 31, Type (0, 0), BuildingBlock: UVAHIK_clean_linker_0, # of connection points: 2
#     Edge 32, Type (0, 0), BuildingBlock: UVAHIK_clean_linker_0, # of connection points: 2
#     Edge 33, Type (0, 0), BuildingBlock: UVAHIK_clean_linker_0, # of connection points: 2
#     Edge 34, Type (0, 0), BuildingBlock: UVAHIK_clean_linker_0, # of connection points: 2
#     Edge 35, Type (0, 0), BuildingBlock: UVAHIK_clean_linker_0, # of connection points: 2
#     Edge 36, Type (0, 0), BuildingBlock: UVAHIK_clean_linker_0, # of connection points: 2
#     Edge 37, Type (0, 0), BuildingBlock: UVAHIK_clean_linker_0, # of connection points: 2
#     Edge 38, Type (0, 0), BuildingBlock: UVAHIK_clean_linker_0, # of connection points: 2
#     Edge 39, Type (0, 0), BuildingBlock: UVAHIK_clean_linker_0, # of connection points: 2
#     Edge 40, Type (0, 0), BuildingBlock: UVAHIK_clean_linker_0, # of connection points: 2
#     Edge 41, Type (0, 0), BuildingBlock: UVAHIK_clean_linker_0, # of connection points: 2
#     Edge 42, Type (0, 0), BuildingBlock: UVAHIK_clean_linker_0, # of connection points: 2
#     Edge 43, Type (0, 0), BuildingBlock: UVAHIK_clean_linker_0, # of connection points: 2
#     Edge 44, Type (0, 0), BuildingBlock: UVAHIK_clean_linker_0, # of connection points: 2
#     Edge 45, Type (0, 0), BuildingBlock: UVAHIK_clean_linker_0, # of connection points: 2
#     Edge 46, Type (0, 0), BuildingBlock: UVAHIK_clean_linker_0, # of connection points: 2
#     Edge 47, Type (0, 0), BuildingBlock: UVAHIK_clean_linker_0, # of connection points: 2
#     Edge 48, Type (0, 0), BuildingBlock: UVAHIK_clean_linker_0, # of connection points: 2
#     Edge 49, Type (0, 0), BuildingBlock: UVAHIK_clean_linker_0, # of connection points: 2
#     Edge 50, Type (0, 0), BuildingBlock: UVAHIK_clean_linker_0, # of connection points: 2
#     Edge 51, Type (0, 0), BuildingBlock: UVAHIK_clean_linker_0, # of connection points: 2
#     Edge 52, Type (0, 0), BuildingBlock: UVAHIK_clean_linker_0, # of connection points: 2
#     Edge 53, Type (0, 0), BuildingBlock: UVAHIK_clean_linker_0, # of connection points: 2
#     Edge 54, Type (0, 0), BuildingBlock: UVAHIK_clean_linker_0, # of connection points: 2
#     Edge 55, Type (0, 0), BuildingBlock: UVAHIK_clean_linker_0, # of connection points: 2
#     Edge 56, Type (0, 0), BuildingBlock: UVAHIK_clean_linker_0, # of connection points: 2
#     Edge 57, Type (0, 0), BuildingBlock: UVAHIK_clean_linker_0, # of connection points: 2
#     Edge 58, Type (0, 0), BuildingBlock: UVAHIK_clean_linker_0, # of connection points: 2
#     Edge 59, Type (0, 0), BuildingBlock: UVAHIK_clean_linker_0, # of connection points: 2
#     Edge 60, Type (0, 0), BuildingBlock: UVAHIK_clean_linker_0, # of connection points: 2
#     Edge 61, Type (0, 0), BuildingBlock: UVAHIK_clean_linker_0, # of connection points: 2
#     Edge 62, Type (0, 0), BuildingBlock: UVAHIK_clean_linker_0, # of connection points: 2
#     Edge 63, Type (0, 0), BuildingBlock: UVAHIK_clean_linker_0, # of connection points: 2
#     Edge 64, Type (0, 0), BuildingBlock: UVAHIK_clean_linker_0, # of connection points: 2
#     Edge 65, Type (0, 0), BuildingBlock: UVAHIK_clean_linker_0, # of connection points: 2
#     Edge 66, Type (0, 0), BuildingBlock: UVAHIK_clean_linker_0, # of connection points: 2
#     Edge 67, Type (0, 0), BuildingBlock: UVAHIK_clean_linker_0, # of connection points: 2
#     Edge 68, Type (0, 0), BuildingBlock: UVAHIK_clean_linker_0, # of connection points: 2
#     Edge 69, Type (0, 0), BuildingBlock: UVAHIK_clean_linker_0, # of connection points: 2
#     Edge 70, Type (0, 0), BuildingBlock: UVAHIK_clean_linker_0, # of connection points: 2
#     Edge 71, Type (0, 0), BuildingBlock: UVAHIK_clean_linker_0, # of connection points: 2
# Relax obj value: 0.244
# Max RMSD: 0.292
# Mean RMSD: 0.262
data_MOF--net-smd--node1-BETDEL_clean_sbu_0--edge1-UVAHIK_clean_linker_0
_symmetry_space_group_name_H-M    P1
_symmetry_Int_Tables_number       1
_symmetry_cell_setting            triclinic
loop_
_symmetry_equiv_pos_as_xyz
'x, y, z'
_cell_length_a     87.107421
_cell_length_b     87.611125
_cell_length_c     22.669651
_cell_angle_alpha  93.00326
_cell_angle_beta   93.015924
_cell_angle_gamma 119.92162
loop_
_atom_site_label
_atom_site_type_symbol
_atom_site_fract_x
_atom_site_fract_y
_atom_site_fract_z
_atom_type_partial_charge
Dy0 Dy 0.02145 0.2347 0.55939 0.0
C1 C 0.00741 0.22138 0.30398 0.0
C2 C 0.02574 0.24238 0.68021 0.0
Dy3 Dy 0.01146 0.2284 0.42493 0.0
O4 O 0.03552 0.23816 0.64986 0.0
O5 O 0.01406 0.24308 0.64419 0.0
O6 O 0.03124 0.21546 0.55148 0.0
O7 O 0.0339 0.23113 0.48206 0.0
C8 C 0.03634 0.21891 0.4986 0.0
C9 C 0.99781 0.24517 0.48679 0.0
O10 O 0.99345 0.20105 0.45184 0.0
O11 O 0.99637 0.20838 0.55352 0.0
O12 O 0.99857 0.22687 0.33425 0.0
O13 O 0.01799 0.21904 0.34011 0.0
O14 O 1.00248 0.24844 0.43337 0.0
O15 O 0.99955 0.23248 0.50237 0.0
O16 O 0.0384 0.26234 0.53019 0.0
O17 O 0.03705 0.2537 0.43055 0.0
C18 C 0.98866 0.19687 0.50605 0.0
C19 C 0.04377 0.2659 0.47608 0.0
Dy20 Dy 0.79594 0.78365 0.47596 0.0
C21 C 0.79445 0.79434 0.72506 0.0
C22 C 0.79445 0.78072 0.35487 0.0
Dy23 Dy 0.79353 0.79171 0.60406 0.0
O24 O 0.80888 0.78803 0.39055 0.0
O25 O 0.78068 0.77471 0.38531 0.0
O26 O 0.81812 0.77885 0.50039 0.0
O27 O 0.81615 0.79859 0.55106 0.0
C28 C 0.82453 0.79023 0.54671 0.0
C29 C 0.76447 0.78323 0.53115 0.0
O30 O 0.80516 0.81921 0.57936 0.0
O31 O 0.79822 0.8107 0.47868 0.0
O32 O 0.78016 0.78652 0.68874 0.0
O33 O 0.80837 0.80101 0.69531 0.0
O34 O 0.77013 0.79504 0.57626 0.0
O35 O 0.7739 0.7761 0.52958 0.0
O36 O 0.78328 0.75593 0.50319 0.0
O37 O 0.79168 0.76519 0.60313 0.0
C38 C 0.8034 0.82285 0.52443 0.0
C39 C 0.78546 0.75265 0.55857 0.0
Dy40 Dy 0.23316 0.00591 0.56033 0.0
C41 C 0.23403 0.01133 0.31117 0.0
C42 C 0.23751 1.00332 0.67844 0.0
Dy43 Dy 0.23505 0.01192 0.43164 0.0
O44 O 0.2258 0.99062 0.64067 0.0
O45 O 0.24706 0.01736 0.6515 0.0
O46 O 0.20437 0.99782 0.5509 0.0
O47 O 0.21498 0.99105 0.48059 0.0
C48 C 0.20095 0.99004 0.49778 0.0
C49 C 0.26433 0.03492 0.50336 0.0
O50 O 0.22177 0.02679 0.46058 0.0
O51 O 0.23341 0.03177 0.55795 0.0
O52 O 0.24818 0.01647 0.34685 0.0
O53 O 0.22026 0.00649 0.3412 0.0
O54 O 0.25835 0.03957 0.45829 0.0
O55 O 0.25494 0.01856 0.50583 0.0
O56 O 0.24313 0.98763 0.53062 0.0
O57 O 0.23888 0.9886 0.42911 0.0
C58 C 0.22583 0.03565 0.51341 0.0
C59 C 0.24309 0.98217 0.47475 0.0
Dy60 Dy 0.01626 0.79592 0.58646 0.0
C61 C 1.00466 0.78141 0.32905 0.0
C62 C 0.01767 0.79895 0.70682 0.0
Dy63 Dy 1.00469 0.78808 0.44729 0.0
O64 O 0.02583 0.79274 0.67609 0.0
O65 O 0.00884 0.80376 0.67183 0.0
O66 O 0.04208 0.79736 0.56689 0.0
O67 O 0.0188 0.78096 0.51149 0.0
C68 C 0.03531 0.78691 0.51817 0.0
C69 C 0.987 0.80193 0.5021 0.0
O70 O 0.98879 0.76073 0.47825 0.0
O71 O 0.99212 0.76887 0.58009 0.0
O72 O 0.99043 0.77618 0.35699 0.0
O73 O 0.01886 0.79006 0.36584 0.0
O74 O 0.98489 0.79772 0.44527 0.0
O75 O 0.99863 0.79884 0.52395 0.0
O76 O 0.03176 0.82322 0.55855 0.0
O77 O 0.02938 0.81523 0.45702 0.0
C78 C 0.98461 0.75698 0.53348 0.0
C79 C 0.03669 0.82702 0.50428 0.0
Dy80 Dy 0.23083 0.22736 0.40816 0.0
C81 C 0.23309 0.24424 0.65894 0.0
C82 C 0.22977 0.22487 0.28678 0.0
Dy83 Dy 0.22837 0.23564 0.53895 0.0
O84 O 0.24399 0.23383 0.32305 0.0
O85 O 0.21598 0.21684 0.31685 0.0
O86 O 0.25542 0.22585 0.43559 0.0
O87 O 0.24995 0.24334 0.48333 0.0
C88 C 0.26033 0.23731 0.48146 0.0
C89 C 0.19648 0.21648 0.47469 0.0
O90 O 0.23596 0.26239 0.50651 0.0
O91 O 0.23372 0.25395 0.40582 0.0
O92 O 0.22089 0.24422 0.62313 0.0
O93 O 0.24304 0.24019 0.62875 0.0
O94 O 0.19975 0.21438 0.52921 0.0
O95 O 0.2105 0.22897 0.45769 0.0
O96 O 0.2188 0.20035 0.43882 0.0
O97 O 0.22968 0.21051 0.53673 0.0
C98 C 0.23638 0.2658 0.44975 0.0
C99 C 0.22282 0.19764 0.4929 0.0
Dy100 Dy 0.79322 0.01159 0.59458 0.0
C101 C 0.79541 0.02175 0.34217 0.0
C102 C 0.79745 0.01393 0.7144 0.0
Dy103 Dy 0.79652 0.01686 0.45902 0.0
O104 O 0.78338 0.01144 0.68313 0.0
O105 O 0.80955 0.01523 0.68025 0.0
O106 O 0.76373 0.99005 0.58593 0.0
O107 O 0.77658 1.00121 0.51352 0.0
C108 C 0.76178 0.99021 0.52888 0.0
C109 C 0.82742 0.03272 0.52902 0.0
O110 O 0.784 0.03311 0.48741 0.0
O111 O 0.79162 0.03602 0.58906 0.0
O112 O 0.80644 0.03364 0.38329 0.0
O113 O 0.78478 0.00719 0.36484 0.0
O114 O 0.8251 0.0249 0.47642 0.0
O115 O 0.81294 0.03161 0.54173 0.0
O116 O 0.80285 0.99324 0.56572 0.0
O117 O 0.79564 0.9908 0.46374 0.0
C118 C 0.78549 0.04037 0.54206 0.0
C119 C 0.80044 0.98539 0.51152 0.0
Dy120 Dy 0.67482 0.55699 0.75132 0.0
C121 C 0.68905 0.56034 0.00563 0.0
C122 C 0.67141 0.5614 0.63383 0.0
Dy123 Dy 0.68783 0.56158 0.88518 0.0
O124 O 0.65852 0.55031 0.66299 0.0
O125 O 0.68587 0.57024 0.66925 0.0
O126 O 0.66314 0.5276 0.75145 0.0
O127 O 0.66415 0.54228 0.82835 0.0
C128 C 0.66005 0.52702 0.80698 0.0
C129 C 0.70824 0.58827 0.82054 0.0
O130 O 0.70013 0.54671 0.84728 0.0
O131 O 0.69961 0.55496 0.75203 0.0
O132 O 0.69626 0.57469 0.97847 0.0
O133 O 0.68158 0.5466 0.96689 0.0
O134 O 0.71474 0.58405 0.86579 0.0
O135 O 0.69159 0.57898 0.8159 0.0
O136 O 0.6587 0.56843 0.78869 0.0
O137 O 0.66723 0.56935 0.88905 0.0
C138 C 0.70566 0.54862 0.79344 0.0
C139 C 0.65799 0.57187 0.84622 0.0
Dy140 Dy 0.46604 0.12984 0.78644 0.0
C141 C 0.46578 0.14312 0.03592 0.0
C142 C 0.46387 0.12586 0.66504 0.0
Dy143 Dy 0.46458 0.13973 0.91457 0.0
O144 O 0.47834 0.13231 0.70018 0.0
O145 O 0.45036 0.12117 0.69628 0.0
O146 O 0.48822 0.12521 0.81096 0.0
O147 O 0.48671 0.14567 0.8597 0.0
C148 C 0.49494 0.13714 0.85579 0.0
C149 C 0.43488 0.12966 0.84245 0.0
O150 O 0.47631 0.16678 0.88607 0.0
O151 O 0.46861 0.15696 0.78629 0.0
O152 O 0.4515 0.13629 0.9997 0.0
O153 O 0.4796 0.14852 0.00583 0.0
O154 O 0.44064 0.14213 0.8855 0.0
O155 O 0.44464 0.1229 0.84235 0.0
O156 O 0.45372 0.10265 0.8186 0.0
O157 O 0.46294 0.11347 0.91728 0.0
C158 C 0.47421 0.16967 0.83041 0.0
C159 C 0.45649 0.10032 0.8748 0.0
Dy160 Dy 0.9119 0.35791 0.74438 0.0
C161 C 0.90812 0.35447 0.99852 0.0
C162 C 0.91686 0.36126 0.62789 0.0
Dy163 Dy 0.91103 0.35254 0.88067 0.0
O164 O 0.91821 0.37366 0.66551 0.0
O165 O 0.91306 0.3471 0.65404 0.0
O166 O 0.89175 0.36629 0.75315 0.0
O167 O 0.91054 0.3722 0.82493 0.0
C168 C 0.89707 0.37324 0.80754 0.0
C169 C 0.92113 0.33178 0.82059 0.0
O170 O 0.88273 0.33427 0.84628 0.0
O171 O 0.88632 0.33204 0.74556 0.0
O172 O 0.92055 0.35302 0.97425 0.0
O173 O 0.89715 0.35494 0.95841 0.0
O174 O 0.9195 0.33154 0.87719 0.0
O175 O 0.91678 0.34244 0.80265 0.0
O176 O 0.94089 0.37495 0.77938 0.0
O177 O 0.93682 0.37745 0.87955 0.0
C178 C 0.87658 0.3267 0.79149 0.0
C179 C 0.94694 0.38221 0.83481 0.0
Dy180 Dy 0.68666 0.14038 0.88667 0.0
C181 C 0.67094 0.12708 0.63355 0.0
C182 C 0.68924 0.14376 0.00816 0.0
Dy183 Dy 0.67363 0.13089 0.755 0.0
O184 O 0.6949 0.13526 0.9758 0.0
O185 O 0.6825 0.15083 0.97412 0.0
O186 O 0.7123 0.1416 0.86561 0.0
O187 O 0.68845 0.12368 0.81548 0.0
C188 C 0.70501 0.12989 0.82011 0.0
C189 C 0.65364 0.13898 0.81984 0.0
O190 O 0.65803 0.10379 0.7871 0.0
O191 O 0.6613 0.11461 0.88542 0.0
O192 O 0.6648 0.1352 0.66545 0.0
O193 O 0.67826 0.12064 0.66805 0.0
O194 O 0.64735 0.12741 0.77395 0.0
O195 O 0.67049 0.14678 0.82656 0.0
O196 O 0.70306 0.16724 0.85807 0.0
O197 O 0.69911 0.1574 0.75836 0.0
C198 C 0.65366 0.10154 0.84263 0.0
C199 C 0.70737 0.16997 0.80297 0.0
Dy200 Dy 0.90627 0.56638 0.86519 0.0
C201 C 0.91443 0.56294 0.61618 0.0
C202 C 0.90624 0.56588 0.98489 0.0
Dy203 Dy 0.90864 0.56021 0.73267 0.0
O204 O 0.91536 0.57992 0.95745 0.0
O205 O 0.89699 0.55215 0.94696 0.0
O206 O 0.90258 0.58959 0.84625 0.0
O207 O 0.91812 0.58334 0.79443 0.0
C208 C 0.91164 0.59326 0.80012 0.0
C209 C 0.89387 0.5306 0.79012 0.0
O210 O 0.93728 0.57061 0.76657 0.0
O211 O 0.93355 0.57014 0.86779 0.0
O212 O 0.916 0.55184 0.64831 0.0
O213 O 0.90975 0.57249 0.64766 0.0
O214 O 0.88916 0.53123 0.73539 0.0
O215 O 0.90674 0.54553 0.80952 0.0
O216 O 0.8777 0.55222 0.83108 0.0
O217 O 0.88263 0.55987 0.73499 0.0
C218 C 0.94342 0.57236 0.82298 0.0
C219 C 0.87196 0.554 0.77819 0.0
Dy220 Dy 0.45996 0.35357 0.89996 0.0
C221 C 0.45739 0.36294 0.65305 0.0
C222 C 0.46133 0.35405 0.02047 0.0
Dy223 Dy 0.46167 0.36 0.77095 0.0
O224 O 0.44716 0.34928 0.98535 0.0
O225 O 0.47494 0.35856 0.98984 0.0
O226 O 0.43605 0.32631 0.87422 0.0
O227 O 0.44006 0.34744 0.82603 0.0
C228 C 0.43034 0.3311 0.82881 0.0
C229 C 0.49395 0.37451 0.83227 0.0
O230 O 0.45238 0.3787 0.80292 0.0
O231 O 0.45698 0.3774 0.90405 0.0
O232 O 0.46905 0.37557 0.69118 0.0
O233 O 0.44784 0.34882 0.67958 0.0
O234 O 0.49018 0.3672 0.77838 0.0
O235 O 0.48028 0.37409 0.85059 0.0
O236 O 0.47252 0.33821 0.86922 0.0
O237 O 0.46088 0.33384 0.77198 0.0
C238 C 0.45281 0.38411 0.85922 0.0
C239 C 0.46837 0.32962 0.81586 0.0
Dy240 Dy 0.36271 0.90838 0.23784 0.0
C241 C 0.34774 0.8936 0.97756 0.0
C242 C 0.36255 0.91558 0.356 0.0
Dy243 Dy 0.34965 0.89766 0.09837 0.0
O244 O 0.37683 0.92073 0.32832 0.0
O245 O 0.34845 0.9069 0.31881 0.0
O246 O 0.38251 0.89866 0.2406 0.0
O247 O 0.36775 0.89622 0.16277 0.0
C248 C 0.37947 0.89331 0.18445 0.0
C249 C 0.33125 0.90774 0.16618 0.0
O250 O 0.33636 0.87108 0.13243 0.0
O251 O 0.33838 0.88108 0.23192 0.0
O252 O 0.33821 0.89818 0.00788 0.0
O253 O 0.35808 0.89081 0.0133 0.0
O254 O 0.32398 0.89641 0.11959 0.0
O255 O 0.34778 0.91381 0.17096 0.0
O256 O 0.37832 0.93488 0.20099 0.0
O257 O 0.3736 0.92461 0.10035 0.0
C258 C 0.33176 0.86831 0.1875 0.0
C259 C 0.38176 0.9373 0.14448 0.0
Dy260 Dy 0.13931 0.46326 0.1429 0.0
C261 C 0.14057 0.47975 0.39932 0.0
C262 C 0.13171 0.45634 0.02286 0.0
Dy263 Dy 0.13721 0.47531 0.27811 0.0
O264 O 0.14037 0.45067 0.05494 0.0
O265 O 0.12684 0.46531 0.05669 0.0
O266 O 0.1687 0.47237 0.15017 0.0
O267 O 0.15686 0.47625 0.22193 0.0
C268 C 0.17137 0.47865 0.20528 0.0
C269 C 0.10855 0.46441 0.20016 0.0
O270 O 0.15123 0.50153 0.24246 0.0
O271 O 0.14295 0.49078 0.14249 0.0
O272 O 0.12775 0.47915 0.3653 0.0
O273 O 0.15185 0.47852 0.36696 0.0
O274 O 0.11243 0.47591 0.24543 0.0
O275 O 0.11915 0.45865 0.20248 0.0
O276 O 0.12795 0.4369 0.18279 0.0
O277 O 0.13103 0.44745 0.28251 0.0
C278 C 0.14928 0.50389 0.18579 0.0
C279 C 0.127 0.43452 0.2406 0.0
Dy280 Dy 0.56575 0.67759 0.22175 0.0
C281 C 0.56532 0.68935 0.97667 0.0
C282 C 0.56941 0.67706 0.34221 0.0
Dy283 Dy 0.56732 0.68797 0.09717 0.0
O284 O 0.55547 0.66611 0.30724 0.0
O285 O 0.58159 0.68821 0.31126 0.0
O286 O 0.54247 0.65121 0.19316 0.0
O287 O 0.54514 0.67332 0.15165 0.0
C288 C 0.53609 0.65662 0.15146 0.0
C289 C 0.59755 0.70684 0.16976 0.0
O290 O 0.55387 0.70185 0.13097 0.0
O291 O 0.56241 0.70183 0.22937 0.0
O292 O 0.57805 0.70112 0.0141 0.0
O293 O 0.55348 0.67698 0.00517 0.0
O294 O 0.59217 0.71386 0.13067 0.0
O295 O 0.58712 0.69046 0.16604 0.0
O296 O 0.57708 0.66158 0.18263 0.0
O297 O 0.56874 0.66326 0.0855 0.0
C298 C 0.55597 0.7077 0.18731 0.0
C299 C 0.57428 0.65613 0.12521 0.0
Dy300 Dy 0.35572 0.47389 0.26495 0.0
C301 C 0.34084 0.45579 0.00792 0.0
C302 C 0.35818 0.4779 0.38604 0.0
Dy303 Dy 0.34101 0.46301 0.12653 0.0
O304 O 0.36701 0.47259 0.35487 0.0
O305 O 0.34836 0.48154 0.35097 0.0
O306 O 0.38039 0.47363 0.2401 0.0
O307 O 0.35583 0.45682 0.19145 0.0
C308 C 0.37223 0.46215 0.19425 0.0
C309 C 0.32615 0.47956 0.18276 0.0
O310 O 0.324 0.43695 0.16479 0.0
O311 O 0.33107 0.44764 0.26523 0.0
O312 O 0.32669 0.45173 0.03537 0.0
O313 O 0.3549 0.46336 0.04555 0.0
O314 O 0.3222 0.47391 0.12682 0.0
O315 O 0.33768 0.47613 0.20262 0.0
O316 O 0.36957 0.50041 0.23063 0.0
O317 O 0.3658 0.49002 0.13058 0.0
C318 C 0.32146 0.43494 0.22216 0.0
C319 C 0.37335 0.50289 0.17471 0.0
Dy320 Dy 0.56908 0.89803 0.0745 0.0
C321 C 0.57751 0.91808 0.33018 0.0
C322 C 0.56503 0.89336 0.95308 0.0
Dy323 Dy 0.56898 0.91075 0.2104 0.0
O324 O 0.57687 0.89214 0.98657 0.0
O325 O 0.55498 0.89651 0.98612 0.0
O326 O 0.5936 0.89656 0.10265 0.0
O327 O 0.58843 0.91469 0.14812 0.0
C328 C 0.5985 0.90828 0.14788 0.0
C329 C 0.53621 0.89567 0.15289 0.0
O330 O 0.57996 0.93694 0.16993 0.0
O331 O 0.57603 0.92607 0.07017 0.0
O332 O 0.56864 0.92364 0.29869 0.0
O333 O 0.58226 0.90912 0.29572 0.0
O334 O 0.53972 0.90199 0.2081 0.0
O335 O 0.55034 0.89784 0.13339 0.0
O336 O 0.55431 0.87207 0.1115 0.0
O337 O 0.56473 0.88304 0.21036 0.0
C338 C 0.58048 0.93911 0.112 0.0
C339 C 0.55708 0.86976 0.16763 0.0
Dy340 Dy 0.13609 0.68507 0.25028 0.0
C341 C 0.12754 0.69026 0.99696 0.0
C342 C 0.13989 0.68547 0.37041 0.0
Dy343 Dy 0.13654 0.69279 0.11496 0.0
O344 O 0.13015 0.67147 0.33415 0.0
O345 O 0.14785 0.6993 0.34099 0.0
O346 O 0.11064 0.65888 0.22433 0.0
O347 O 0.11685 0.68063 0.17696 0.0
C348 C 0.10616 0.66448 0.17831 0.0
C349 C 0.16971 0.71125 0.16905 0.0
O350 O 0.12571 0.70949 0.15367 0.0
O351 O 0.13083 0.70762 0.25474 0.0
O352 O 0.13548 0.70494 0.0314 0.0
O353 O 0.12426 0.67691 0.02726 0.0
O354 O 0.16584 0.71177 0.11344 0.0
O355 O 0.15568 0.70094 0.19153 0.0
O356 O 0.15083 0.67253 0.21472 0.0
O357 O 0.13905 0.6683 0.11685 0.0
C358 C 0.12619 0.71436 0.21081 0.0
C359 C 0.14714 0.66451 0.16038 0.0
C360 C 0.1128 0.41374 0.3173 0.0
C361 C 0.11975 0.41663 0.26167 0.0
C362 C 0.1066 0.39754 0.34072 0.0
C363 C 0.09058 0.35029 0.30222 0.0
H364 H 0.09887 0.35083 0.47253 0.0
C365 C 0.06691 0.28589 0.41364 0.0
C366 C 0.05713 0.28394 0.46294 0.0
C367 C 0.07681 0.30235 0.39196 0.0
C368 C 0.09637 0.35046 0.42501 0.0
H369 H 0.12518 0.40441 0.18628 0.0
H370 H 0.11443 0.37578 0.22794 0.0
H371 H 0.11194 0.37859 0.4262 0.0
H372 H 0.05094 0.29794 0.53044 0.0
H373 H 0.06847 0.32698 0.49261 0.0
H374 H 0.07499 0.32213 0.30122 0.0
C375 C 0.11377 0.38624 0.25314 0.0
C376 C 0.10384 0.36637 0.39832 0.0
C377 C 0.11994 0.40262 0.22924 0.0
C378 C 0.05845 0.29907 0.49267 0.0
C379 C 0.06843 0.31566 0.47081 0.0
C380 C 0.08322 0.33437 0.32889 0.0
C381 C 0.10724 0.38362 0.30966 0.0
C382 C 0.10077 0.36653 0.3367 0.0
C383 C 0.07722 0.31733 0.41896 0.0
C384 C 0.08584 0.33428 0.39071 0.0
H385 H 0.11203 0.42404 0.34324 0.0
H386 H 0.10114 0.39591 0.38329 0.0
H387 H 0.08774 0.34989 0.25489 0.0
H388 H 0.06636 0.27451 0.39016 0.0
H389 H 0.08377 0.30325 0.3529 0.0
C390 C 0.73965 0.76027 0.46059 0.0
C391 C 0.74771 0.77689 0.49322 0.0
C392 C 0.72338 0.75378 0.42676 0.0
C393 C 0.69495 0.76565 0.34374 0.0
H394 H 0.65613 0.72034 0.37838 0.0
C395 C 0.6244 0.73448 0.21811 0.0
C396 C 0.61456 0.71597 0.20782 0.0
C397 C 0.64044 0.7428 0.25477 0.0
C398 C 0.66684 0.73285 0.36714 0.0
H399 H 0.74544 0.80004 0.51447 0.0
H400 H 0.71712 0.78885 0.45336 0.0
H401 H 0.68479 0.73314 0.43622 0.0
H402 H 0.61388 0.69168 0.22683 0.0
H403 H 0.64197 0.706 0.28775 0.0
H404 H 0.6774 0.76508 0.27281 0.0
C405 C 0.72333 0.78079 0.45494 0.0
C406 C 0.68324 0.74024 0.40081 0.0
C407 C 0.73945 0.78714 0.48997 0.0
C408 C 0.6211 0.70598 0.23433 0.0
C409 C 0.6372 0.71425 0.26991 0.0
C410 C 0.67861 0.75808 0.30906 0.0
C411 C 0.71503 0.76394 0.42373 0.0
C412 C 0.69749 0.75663 0.38923 0.0
C413 C 0.64712 0.7328 0.2812 0.0
C414 C 0.66433 0.74146 0.31986 0.0
H415 H 0.74573 0.7521 0.46217 0.0
H416 H 0.71731 0.74079 0.40278 0.0
H417 H 0.70578 0.77829 0.33383 0.0
H418 H 0.61959 0.74249 0.19844 0.0
H419 H 0.64746 0.75707 0.26286 0.0
C420 C 0.26462 0.97147 0.49265 0.0
C421 C 0.24945 0.96971 0.46096 0.0
C422 C 0.27296 0.96244 0.47092 0.0
C423 C 0.2675 0.92592 0.36632 0.0
H424 H 0.31661 0.95763 0.33868 0.0
C425 C 0.30328 0.90604 0.19713 0.0
C426 C 0.32173 0.91317 0.20678 0.0
C427 C 0.29441 0.91158 0.23482 0.0
C428 C 0.30305 0.94841 0.34701 0.0
H429 H 0.23038 0.95629 0.38435 0.0
H430 H 0.24453 0.94009 0.34767 0.0
H431 H 0.30092 0.96863 0.39692 0.0
H432 H 0.34539 0.93166 0.26337 0.0
H433 H 0.32992 0.94057 0.33097 0.0
H434 H 0.26955 0.90564 0.31687 0.0
C435 C 0.25013 0.94854 0.38877 0.0
C436 C 0.29404 0.95478 0.38045 0.0
C437 C 0.24204 0.95784 0.40971 0.0
C438 C 0.33111 0.9258 0.25515 0.0
C439 C 0.32223 0.93108 0.29352 0.0
C440 C 0.27659 0.91945 0.33369 0.0
C441 C 0.26601 0.95121 0.41796 0.0
C442 C 0.27609 0.9437 0.38952 0.0
C443 C 0.30375 0.92421 0.2836 0.0
C444 C 0.29441 0.93068 0.32246 0.0
H445 H 0.27071 0.98071 0.53187 0.0
H446 H 0.28517 0.96467 0.49438 0.0
H447 H 0.25367 0.91707 0.37291 0.0
H448 H 0.29572 0.89637 0.15991 0.0
H449 H 0.28027 0.9062 0.22471 0.0
C450 C 0.28864 0.03839 0.57573 0.0
C451 C 0.28128 0.04624 0.54043 0.0
C452 C 0.30489 0.04873 0.6097 0.0
C453 C 0.3453 0.09391 0.62721 0.0
H454 H 0.35436 0.07681 0.77188 0.0
C455 C 0.4083 0.13122 0.802 0.0
C456 C 0.41749 0.12189 0.807 0.0
C457 C 0.39158 0.1234 0.76952 0.0
C458 C 0.35196 0.08175 0.73166 0.0
H459 H 0.2849 0.07112 0.51397 0.0
H460 H 0.31303 0.08939 0.57535 0.0
H461 H 0.32495 0.06085 0.71795 0.0
H462 H 0.41652 0.09717 0.78175 0.0
H463 H 0.38711 0.08337 0.72708 0.0
H464 H 0.37243 0.11517 0.64289 0.0
C465 C 0.30655 0.07517 0.57549 0.0
C466 C 0.33515 0.07253 0.70023 0.0
C467 C 0.29036 0.06473 0.54055 0.0
C468 C 0.40975 0.10469 0.77871 0.0
C469 C 0.39293 0.09677 0.74755 0.0
C470 C 0.36205 0.10336 0.65952 0.0
C471 C 0.31412 0.0673 0.61043 0.0
C472 C 0.33164 0.07819 0.64667 0.0
C473 C 0.38367 0.10601 0.74279 0.0
C474 C 0.36559 0.09714 0.71135 0.0
H475 H 0.282 0.02414 0.57626 0.0
H476 H 0.31033 0.04202 0.63448 0.0
H477 H 0.34331 0.09866 0.58602 0.0
H478 H 0.41402 0.14452 0.82319 0.0
H479 H 0.38464 0.13075 0.76642 0.0
C480 C 0.92979 0.30858 0.80862 0.0
C481 C 0.92819 0.32232 0.78541 0.0
C482 C 0.93703 0.29999 0.77628 0.0
C483 C 0.96634 0.30623 0.65649 0.0
H484 H 0.94522 0.2553 0.65002 0.0
C485 C 0.98946 0.26855 0.5012 0.0
C486 C 0.99 0.25396 0.52171 0.0
C487 C 0.98194 0.27681 0.53362 0.0
C488 C 0.95147 0.26956 0.65196 0.0
H489 H 0.93327 0.33813 0.71096 0.0
H490 H 0.94569 0.32306 0.65398 0.0
H491 H 0.932 0.2697 0.70568 0.0
H492 H 0.98286 0.23642 0.59193 0.0
H493 H 0.97022 0.25111 0.64957 0.0
H494 H 0.98592 0.30618 0.60343 0.0
C495 C 0.94136 0.31887 0.69714 0.0
C496 C 0.94383 0.27782 0.68383 0.0
C497 C 0.93402 0.32736 0.72937 0.0
C498 C 0.98283 0.24777 0.57534 0.0
C499 C 0.97538 0.25608 0.60799 0.0
C500 C 0.97403 0.29799 0.6249 0.0
C501 C 0.943 0.30509 0.72022 0.0
C502 C 0.95113 0.29626 0.68638 0.0
C503 C 0.97479 0.27071 0.58755 0.0
C504 C 0.96669 0.27952 0.62199 0.0
H505 H 0.92552 0.30451 0.85195 0.0
H506 H 0.93828 0.28959 0.79575 0.0
H507 H 0.9725 0.32048 0.6583 0.0
H508 H 0.99481 0.27356 0.45985 0.0
H509 H 0.98149 0.28782 0.51581 0.0
C510 C 0.76495 0.71972 0.54588 0.0
C511 C 0.78041 0.73457 0.57318 0.0
C512 C 0.75879 0.70308 0.56728 0.0
C513 C 0.76354 0.6834 0.70481 0.0
H514 H 0.73468 0.63912 0.60758 0.0
C515 C 0.73661 0.61519 0.79929 0.0
C516 C 0.7182 0.60384 0.78686 0.0
C517 C 0.74558 0.63048 0.76943 0.0
C518 C 0.74275 0.65141 0.63522 0.0
H519 H 0.80227 0.74351 0.64109 0.0
H520 H 0.79225 0.71454 0.67605 0.0
H521 H 0.7482 0.6669 0.56094 0.0
H522 H 0.69477 0.59963 0.73355 0.0
H523 H 0.71049 0.62584 0.6802 0.0
H524 H 0.75819 0.66781 0.7789 0.0
C525 C 0.78428 0.71567 0.64015 0.0
C526 C 0.75043 0.66737 0.60859 0.0
C527 C 0.79018 0.7323 0.61968 0.0
C528 C 0.70903 0.60789 0.74327 0.0
C529 C 0.71802 0.62294 0.71273 0.0
C530 C 0.75612 0.66745 0.73119 0.0
C531 C 0.76817 0.70089 0.61574 0.0
C532 C 0.76078 0.68366 0.64308 0.0
C533 C 0.73635 0.63454 0.72597 0.0
C534 C 0.74546 0.65129 0.69686 0.0
H535 H 0.7571 0.72116 0.51028 0.0
H536 H 0.74627 0.69214 0.54745 0.0
H537 H 0.771 0.69556 0.73343 0.0
H538 H 0.744 0.61244 0.83281 0.0
H539 H 0.75973 0.63918 0.78046 0.0
C540 C 0.96266 0.73518 0.59597 0.0
C541 C 0.97248 0.73848 0.5462 0.0
C542 C 0.95353 0.71818 0.61489 0.0
C543 C 0.95706 0.67872 0.61867 0.0
H544 H 0.90989 0.65708 0.67341 0.0
C545 C 0.92732 0.61162 0.71873 0.0
C546 C 0.91645 0.60866 0.76537 0.0
C547 C 0.93244 0.62633 0.68645 0.0
C548 C 0.92317 0.66301 0.65913 0.0
H549 H 0.97995 0.72642 0.47601 0.0
H550 H 0.96419 0.69663 0.50983 0.0
H551 H 0.92132 0.68453 0.62523 0.0
H552 H 0.90249 0.61889 0.81517 0.0
H553 H 0.91207 0.64509 0.76085 0.0
H554 H 0.95948 0.65795 0.6549 0.0
C555 C 0.96348 0.70725 0.53385 0.0
C556 C 0.92965 0.67868 0.63102 0.0
C557 C 0.97236 0.72424 0.51419 0.0
C558 C 0.91079 0.62078 0.77918 0.0
C559 C 0.9162 0.63573 0.74756 0.0
C560 C 0.95073 0.66324 0.64756 0.0
C561 C 0.95427 0.70413 0.58514 0.0
C562 C 0.9467 0.68674 0.61066 0.0
C563 C 0.92721 0.6388 0.70084 0.0
C564 C 0.9337 0.65513 0.6685 0.0
H565 H 0.9625 0.7459 0.62156 0.0
H566 H 0.94665 0.71625 0.65471 0.0
H567 H 0.97038 0.68479 0.60451 0.0
H568 H 0.93209 0.60265 0.70742 0.0
H569 H 0.94056 0.62787 0.65021 0.0
C570 C 0.28975 0.23948 0.50963 0.0
C571 C 0.27726 0.2448 0.51963 0.0
C572 C 0.30623 0.24763 0.54379 0.0
C573 C 0.33666 0.28916 0.63849 0.0
H574 H 0.36095 0.26409 0.6843 0.0
C575 C 0.40874 0.32709 0.74429 0.0
C576 C 0.41346 0.31994 0.79114 0.0
C577 C 0.39248 0.31709 0.71003 0.0
C578 C 0.35429 0.27128 0.6723 0.0
H579 H 0.272 0.26244 0.57424 0.0
H580 H 0.30022 0.27611 0.63485 0.0
H581 H 0.33154 0.24791 0.62941 0.0
H582 H 0.405 0.29656 0.83825 0.0
H583 H 0.37626 0.27911 0.77934 0.0
H584 H 0.35898 0.31238 0.68265 0.0
C585 C 0.29765 0.26602 0.5998 0.0
C586 C 0.3375 0.26202 0.64015 0.0
C587 C 0.28134 0.25803 0.56542 0.0
C588 C 0.4017 0.3024 0.80237 0.0
C589 C 0.38528 0.29239 0.76832 0.0
C590 C 0.35333 0.29836 0.67073 0.0
C591 C 0.3105 0.26121 0.58883 0.0
C592 C 0.32843 0.27085 0.62291 0.0
C593 C 0.38035 0.29969 0.72214 0.0
C594 C 0.36246 0.2896 0.68795 0.0
H595 H 0.28696 0.22932 0.47455 0.0
H596 H 0.3158 0.24364 0.53369 0.0
H597 H 0.33031 0.29654 0.62531 0.0
H598 H 0.41754 0.34056 0.73443 0.0
H599 H 0.38941 0.32307 0.6741 0.0
C600 C 0.70464 0.10884 0.73996 0.0
C601 C 0.71426 0.12289 0.78423 0.0
C602 C 0.71322 0.10179 0.70724 0.0
C603 C 0.75252 0.09657 0.71818 0.0
H604 H 0.74195 0.08366 0.54857 0.0
C605 C 0.78949 0.06761 0.5967 0.0
C606 C 0.77961 0.05334 0.55357 0.0
C607 C 0.78253 0.07794 0.61797 0.0
C608 C 0.74495 0.08702 0.59601 0.0
H609 H 0.74045 0.14068 0.82849 0.0
H610 H 0.75544 0.12823 0.77192 0.0
H611 H 0.72771 0.09794 0.59955 0.0
H612 H 0.75499 0.03908 0.49697 0.0
H613 H 0.74246 0.05681 0.53525 0.0
H614 H 0.76918 0.0852 0.71577 0.0
C615 C 0.74124 0.12266 0.76247 0.0
C616 C 0.73681 0.09525 0.6252 0.0
C617 C 0.73268 0.12983 0.79478 0.0
C618 C 0.76297 0.05016 0.52971 0.0
C619 C 0.7558 0.06033 0.55187 0.0
C620 C 0.76049 0.08821 0.68925 0.0
C621 C 0.7316 0.10847 0.71855 0.0
C622 C 0.74052 0.10014 0.68667 0.0
C623 C 0.76528 0.07401 0.59779 0.0
C624 C 0.7569 0.08333 0.62768 0.0
H625 H 0.6904 0.10306 0.73129 0.0
H626 H 0.70536 0.09073 0.67431 0.0
H627 H 0.75541 0.09982 0.76571 0.0
H628 H 0.80242 0.07041 0.61562 0.0
H629 H 0.79052 0.08869 0.65175 0.0
C630 C 0.6256 0.90728 0.18509 0.0
C631 C 0.61455 0.91462 0.18956 0.0
C632 C 0.64116 0.9139 0.22331 0.0
C633 C 0.67863 0.93839 0.28326 0.0
H634 H 0.67944 0.9528 0.44861 0.0
C635 C 0.74408 0.98349 0.43087 0.0
C636 C 0.74501 0.97996 0.49017 0.0
C637 C 0.72805 0.97421 0.39477 0.0
C638 C 0.67944 0.94868 0.40272 0.0
H639 H 0.611 0.93453 0.23761 0.0
H640 H 0.63804 0.94605 0.30412 0.0
H641 H 0.65144 0.93849 0.38586 0.0
H642 H 0.72998 0.96394 0.55846 0.0
H643 H 0.70195 0.9476 0.49546 0.0
H644 H 0.70663 0.94852 0.3002 0.0
C645 C 0.63467 0.93507 0.2717 0.0
C646 C 0.6634 0.94065 0.36654 0.0
C647 C 0.6192 0.92851 0.23339 0.0
C648 C 0.72963 0.96692 0.5128 0.0
C649 C 0.71357 0.95763 0.47678 0.0
C650 C 0.69469 0.94647 0.31941 0.0
C651 C 0.64594 0.92795 0.26691 0.0
C652 C 0.66282 0.93555 0.30621 0.0
C653 C 0.71255 0.96122 0.41735 0.0
C654 C 0.69533 0.95186 0.37948 0.0
H655 H 0.6223 0.89653 0.15175 0.0
H656 H 0.64944 0.90799 0.21883 0.0
H657 H 0.67871 0.93477 0.2369 0.0
H658 H 0.75563 0.9937 0.41272 0.0
H659 H 0.72771 0.97756 0.34959 0.0
C660 C 0.0634 0.78806 0.49174 0.0
C661 C 0.04519 0.78172 0.47844 0.0
C662 C 0.07259 0.78265 0.45515 0.0
C663 C 0.06473 0.74719 0.33834 0.0
H664 H 0.11509 0.77776 0.32413 0.0
C665 C 0.10467 0.72525 0.19512 0.0
C666 C 0.11932 0.72622 0.2279 0.0
C667 C 0.09615 0.734 0.2178 0.0
C668 C 0.101 0.76912 0.32751 0.0
H669 H 0.02231 0.76481 0.4163 0.0
H670 H 0.03843 0.75613 0.35074 0.0
H671 H 0.09889 0.78912 0.37853 0.0
H672 H 0.13723 0.73792 0.30805 0.0
H673 H 0.12274 0.75359 0.34657 0.0
H674 H 0.06694 0.72727 0.28676 0.0
C675 C 0.04563 0.76489 0.3902 0.0
C676 C 0.09171 0.77555 0.35916 0.0
C677 C 0.0364 0.77005 0.42741 0.0
C678 C 0.12596 0.73695 0.28182 0.0
C679 C 0.1177 0.74596 0.30381 0.0
C680 C 0.07397 0.74088 0.3059 0.0
C681 C 0.06384 0.77094 0.40383 0.0
C682 C 0.0735 0.76458 0.3661 0.0
C683 C 0.1024 0.74417 0.27295 0.0
C684 C 0.09226 0.75166 0.30104 0.0
H685 H 0.0705 0.79698 0.53103 0.0
H686 H 0.08648 0.78736 0.46807 0.0
H687 H 0.05084 0.73817 0.34331 0.0
H688 H 0.09917 0.71694 0.15373 0.0
H689 H 0.08442 0.73246 0.193 0.0
C690 C 0.30384 0.41693 0.30113 0.0
C691 C 0.30824 0.41764 0.24198 0.0
C692 C 0.29357 0.4008 0.3243 0.0
C693 C 0.2617 0.3538 0.28953 0.0
H694 H 0.2832 0.3481 0.43484 0.0
C695 C 0.23884 0.28558 0.3713 0.0
C696 C 0.24072 0.28353 0.432 0.0
C697 C 0.24487 0.30221 0.35131 0.0
C698 C 0.27674 0.34952 0.3951 0.0
H699 H 0.30424 0.40179 0.15984 0.0
H700 H 0.28583 0.37331 0.20054 0.0
H701 H 0.29765 0.37623 0.39115 0.0
H702 H 0.24961 0.29752 0.51968 0.0
H703 H 0.25972 0.32684 0.48481 0.0
H704 H 0.2406 0.32729 0.29376 0.0
C705 C 0.29062 0.38545 0.2288 0.0
C706 C 0.28514 0.36563 0.36973 0.0
C707 C 0.30112 0.40173 0.20549 0.0
C708 C 0.248 0.29861 0.47268 0.0
C709 C 0.25396 0.31543 0.4525 0.0
C710 C 0.25313 0.33777 0.31541 0.0
C711 C 0.2872 0.38487 0.28896 0.0
C712 C 0.27785 0.36785 0.31623 0.0
C713 C 0.25278 0.31746 0.39127 0.0
C714 C 0.26071 0.33526 0.36795 0.0
H715 H 0.30876 0.42889 0.3305 0.0
H716 H 0.29086 0.40078 0.3704 0.0
H717 H 0.25565 0.35525 0.24882 0.0
H718 H 0.23319 0.27433 0.33829 0.0
H719 H 0.24395 0.30307 0.30391 0.0
C720 C 0.97052 0.40907 0.89496 0.0
C721 C 0.96588 0.39544 0.85004 0.0
C722 C 0.98803 0.41926 0.92021 0.0
C723 C 0.02555 0.41356 0.957 0.0
H724 H 0.04999 0.46354 0.01024 0.0
C725 C 0.09095 0.4454 0.10834 0.0
C726 C 0.0938 0.45846 0.15318 0.0
C727 C 0.07707 0.43949 0.06365 0.0
C728 C 0.04328 0.44953 0.99628 0.0
H729 H 0.976 0.38236 0.79394 0.0
H730 H 1.0068 0.40008 0.83891 0.0
H731 H 0.02306 0.45077 0.94191 0.0
H732 H 0.08422 0.47543 0.187 0.0
H733 H 0.05932 0.4645 0.1106 0.0
H734 H 0.04495 0.41191 0.01344 0.0
C735 C 0.99683 0.40292 0.85421 0.0
C736 C 0.02794 0.44227 0.95667 0.0
C737 C 0.97929 0.39291 0.82811 0.0
C738 C 0.08238 0.46542 0.15275 0.0
C739 C 0.06821 0.45926 0.10852 0.0
C740 C 0.04071 0.42074 0.99712 0.0
C741 C 1.00124 0.41583 0.90179 0.0
C742 C 0.01879 0.42416 0.93716 0.0
C743 C 0.06531 0.44612 0.06345 0.0
C744 C 0.0497 0.4388 0.01795 0.0
H745 H 0.96039 0.41126 0.9127 0.0
H746 H 0.99096 0.42899 0.95698 0.0
H747 H 0.01861 0.39949 0.94375 0.0
H748 H 0.09946 0.43968 0.10773 0.0
H749 H 0.07557 0.42966 0.02931 0.0
C750 C 0.63141 0.57628 0.83479 0.0
C751 C 0.64719 0.5795 0.86653 0.0
C752 C 0.62059 0.58208 0.86012 0.0
C753 C 0.61152 0.59415 0.00752 0.0
H754 H 0.59415 0.62106 0.92583 0.0
C755 C 0.59193 0.64061 0.12948 0.0
C756 C 0.57827 0.64256 0.1021 0.0
C757 C 0.59754 0.62993 0.10073 0.0
C758 C 0.59861 0.61328 0.94906 0.0
H759 H 0.66464 0.59244 0.94742 0.0
H760 H 0.64608 0.60242 0.99047 0.0
H761 H 0.60897 0.60806 0.87154 0.0
H762 H 0.55876 0.6338 0.02592 0.0
H763 H 0.56827 0.615 0.97673 0.0
H764 H 0.6016 0.59968 0.08534 0.0
C765 C 0.64167 0.59501 0.94724 0.0
C766 C 0.60708 0.60584 0.91782 0.0
C767 C 0.65235 0.58933 0.92224 0.0
C768 C 0.56955 0.63276 0.04766 0.0
C769 C 0.57505 0.62206 0.01925 0.0
C770 C 0.60305 0.60155 0.03869 0.0
C771 C 0.62546 0.59109 0.91736 0.0
C772 C 0.61405 0.59662 0.94719 0.0
C773 C 0.58948 0.62096 0.04443 0.0
C774 C 0.59686 0.61155 0.01018 0.0
H775 H 0.62714 0.56878 0.79176 0.0
H776 H 0.6082 0.57905 0.83593 0.0
H777 H 0.61651 0.58684 0.03106 0.0
H778 H 0.59892 0.64808 0.17126 0.0
H779 H 0.60878 0.62943 0.12123 0.0
C780 C 0.43638 0.06733 0.86843 0.0
C781 C 0.45173 0.08271 0.89352 0.0
C782 C 0.43027 0.0514 0.89491 0.0
C783 C 0.43386 0.03565 0.04139 0.0
H784 H 0.41008 0.98948 0.95339 0.0
C785 C 0.39416 0.97013 0.15219 0.0
C786 C 0.39396 0.95509 0.12667 0.0
C787 C 0.40268 0.98612 0.12577 0.0
C788 C 0.41688 1.00228 0.97878 0.0
H789 H 0.47345 0.09328 0.9629 0.0
H790 H 0.4633 0.06557 0.00733 0.0
H791 H 0.42226 0.01589 0.89998 0.0
H792 H 0.40362 0.94524 0.05663 0.0
H793 H 0.41901 0.97312 0.0122 0.0
H794 H 0.42883 0.02206 0.12016 0.0
C795 C 0.45552 0.06579 0.96886 0.0
C796 C 0.42366 0.01744 0.94801 0.0
C797 C 0.46145 0.08165 0.94297 0.0
C798 C 0.40344 0.95661 0.07694 0.0
C799 C 0.41208 0.97255 0.05105 0.0
C800 C 0.42716 0.02049 0.07215 0.0
C801 C 0.43953 0.0506 0.94654 0.0
C802 C 0.43228 0.03434 0.97888 0.0
C803 C 0.41128 0.98735 0.07372 0.0
C804 C 0.41862 1.0036 0.04129 0.0
H805 H 0.42856 0.06785 0.83066 0.0
H806 H 0.41788 0.03998 0.87655 0.0
H807 H 0.44011 0.04842 0.06681 0.0
H808 H 0.38677 0.96925 0.1901 0.0
H809 H 0.40173 0.99722 0.1444 0.0
C810 C 0.63902 0.06838 0.8334 0.0
C811 C 0.64083 0.08399 0.86085 0.0
C812 C 0.62977 0.05241 0.85956 0.0
C813 C 0.61821 0.03696 0.00783 0.0
H814 H 0.59018 0.99086 0.92071 0.0
C815 C 0.5859 0.97042 0.12022 0.0
C816 C 0.5874 0.95683 0.09029 0.0
C817 C 0.59093 0.98627 0.094 0.0
C818 C 0.59805 1.00365 0.9457 0.0
H819 H 0.63315 0.09489 0.93421 0.0
H820 H 0.61682 0.06717 0.9786 0.0
H821 H 0.60082 0.01737 0.86791 0.0
H822 H 0.5965 0.94973 0.01153 0.0
H823 H 0.60533 0.97702 0.96718 0.0
H824 H 0.61576 0.02319 0.08543 0.0
C825 C 0.62291 0.06724 0.93811 0.0
C826 C 0.60415 0.01883 0.91535 0.0
C827 C 0.63217 0.08311 0.91229 0.0
C828 C 0.59474 0.95972 0.03536 0.0
C829 C 0.59974 0.97538 0.00955 0.0
C830 C 0.61213 0.02176 0.0382 0.0
C831 C 0.62214 0.05184 0.91336 0.0
C832 C 0.61453 0.03566 0.94588 0.0
C833 C 0.59754 0.9887 0.03765 0.0
C834 C 0.60229 0.00493 0.00727 0.0
H835 H 0.64566 0.0687 0.79401 0.0
H836 H 0.62946 0.04076 0.8394 0.0
H837 H 0.62637 0.04973 0.03267 0.0
H838 H 0.5803 0.96856 0.16258 0.0
H839 H 0.58919 0.99639 0.11691 0.0
C840 C 0.07954 0.63571 0.137 0.0
C841 C 0.09114 0.6538 0.13303 0.0
C842 C 0.06521 0.62592 0.09391 0.0
C843 C 0.03782 0.63222 0.97644 0.0
H844 H 0.01912 0.5822 0.93501 0.0
C845 C 0.9758 0.59201 0.81222 0.0
C846 C 0.96223 0.57802 0.83876 0.0
C847 C 0.99343 0.60012 0.83739 0.0
C848 C 0.02432 0.59621 0.94585 0.0
H849 H 0.09696 0.67584 0.08111 0.0
H850 H 0.07281 0.65872 0.00456 0.0
H851 H 0.04637 0.599 1.00144 0.0
H852 H 0.95642 0.56054 0.90884 0.0
H853 H 0.98715 0.57432 0.95164 0.0
H854 H 0.01574 0.62937 0.92097 0.0
C855 C 0.07428 0.65205 0.04147 0.0
C856 C 0.03982 0.60582 0.98438 0.0
C857 C 0.08831 0.66186 0.08505 0.0
C858 C 0.96669 0.57133 0.88762 0.0
C859 C 0.98428 0.57917 0.91198 0.0
C860 C 0.02252 0.62269 0.9373 0.0
C861 C 0.06234 0.63399 0.0456 0.0
C862 C 0.0466 0.6239 1.00114 0.0
C863 C 0.99771 0.59409 0.88862 0.0
C864 C 0.01542 0.60452 0.92248 0.0
H865 H 0.08139 0.6292 0.17376 0.0
H866 H 0.05617 0.61213 0.09933 0.0
H867 H 0.04232 0.646 0.98899 0.0
H868 H 0.97264 0.59748 0.77485 0.0
H869 H 1.00358 0.61157 0.81843 0.0
C870 C 0.39925 0.46293 0.15739 0.0
C871 C 0.38078 0.45604 0.15161 0.0
C872 C 0.40723 0.45694 0.11736 0.0
C873 C 0.39628 0.41942 0.00447 0.0
H874 H 0.4448 0.4502 0.9683 0.0
C875 C 0.43131 0.39507 0.84687 0.0
C876 C 0.447 0.39691 0.87475 0.0
C877 C 0.42352 0.40433 0.87145 0.0
C878 C 0.4312 0.44149 0.97776 0.0
H879 H 0.35617 0.43739 0.09967 0.0
H880 H 0.37007 0.42766 0.02808 0.0
H881 H 0.43029 0.46211 0.02947 0.0
H882 H 0.46747 0.41065 0.94748 0.0
H883 H 0.45429 0.42726 0.98896 0.0
H884 H 0.39727 0.39886 0.95224 0.0
C885 C 0.37847 0.43734 0.06422 0.0
C886 C 0.4229 0.44824 0.01336 0.0
C887 C 0.37048 0.44309 0.10492 0.0
C888 C 0.45542 0.40908 0.92494 0.0
C889 C 0.44787 0.41859 0.94866 0.0
C890 C 0.40449 0.41276 0.9681 0.0
C891 C 0.39697 0.44405 0.07005 0.0
C892 C 0.40542 0.43723 0.02831 0.0
C893 C 0.43152 0.41585 0.92349 0.0
C894 C 0.42214 0.42363 0.95524 0.0
H895 H 0.40752 0.47283 0.19325 0.0
H896 H 0.42144 0.4622 0.12441 0.0
H897 H 0.38297 0.41036 0.01553 0.0
H898 H 0.42443 0.38559 0.80864 0.0
H899 H 0.41093 0.40203 0.85102 0.0
C900 C 0.06048 0.22474 0.43164 0.0
C901 C 0.04983 0.21508 0.47571 0.0
C902 C 0.07491 0.22285 0.4166 0.0
C903 C 0.09522 0.19429 0.43217 0.0
H904 H 0.13972 0.23804 0.42614 0.0
C905 C 0.16364 0.20008 0.48067 0.0
C906 C 0.17835 0.21244 0.45316 0.0
C907 C 0.14697 0.1986 0.47 0.0
C908 C 0.12738 0.22563 0.42642 0.0
H909 H 0.04541 0.19525 0.53631 0.0
H910 H 0.07043 0.19193 0.51019 0.0
H911 H 0.11224 0.23875 0.43185 0.0
H912 H 0.18684 0.23217 0.38983 0.0
H913 H 0.1576 0.22945 0.37044 0.0
H914 H 0.11042 0.18122 0.42822 0.0
C915 C 0.06769 0.20092 0.48696 0.0
C916 C 0.11157 0.22605 0.42978 0.0
C917 C 0.05336 0.20288 0.50219 0.0
C918 C 0.17576 0.22252 0.41174 0.0
C919 C 0.15904 0.22108 0.40115 0.0
C920 C 0.11101 0.19387 0.42868 0.0
C921 C 0.07891 0.21116 0.44493 0.0
C922 C 0.09533 0.21043 0.43405 0.0
C923 C 0.14453 0.20945 0.43146 0.0
C924 C 0.12739 0.20958 0.42713 0.0
H925 H 0.05808 0.23424 0.41037 0.0
H926 H 0.08312 0.23078 0.38349 0.0
H927 H 0.08292 0.18197 0.4343 0.0
H928 H 0.16521 0.19213 0.51285 0.0
H929 H 0.13623 0.1896 0.49461 0.0
C930 C 0.79812 0.95916 0.45088 0.0
C931 C 0.80282 0.96971 0.50507 0.0
C932 C 0.79971 0.94397 0.44634 0.0
C933 C 0.82183 0.92235 0.52203 0.0
H934 H 0.78311 0.87898 0.44086 0.0
C935 C 0.81241 0.85389 0.56237 0.0
C936 C 0.80596 0.84063 0.51485 0.0
C937 C 0.81349 0.87015 0.55527 0.0
C938 C 0.79419 0.89103 0.46291 0.0
H939 H 0.81316 0.97256 0.59673 0.0
H940 H 0.81581 0.94625 0.58885 0.0
H941 H 0.78229 0.90641 0.43886 0.0
H942 H 0.79592 0.83436 0.42197 0.0
H943 H 0.79793 0.86284 0.40949 0.0
H944 H 0.83361 0.90697 0.5469 0.0
C945 C 0.81106 0.94974 0.5496 0.0
C946 C 0.79371 0.90678 0.46177 0.0
C947 C 0.8094 0.96482 0.5542 0.0
C948 C 0.80098 0.84425 0.45955 0.0
C949 C 0.802 0.86054 0.4525 0.0
C950 C 0.82231 0.90664 0.52314 0.0
C951 C 0.80615 0.93903 0.49576 0.0
C952 C 0.80737 0.92259 0.49226 0.0
C953 C 0.80812 0.87365 0.50046 0.0
C954 C 0.80835 0.89068 0.49453 0.0
H955 H 0.793 0.96249 0.41209 0.0
H956 H 0.79595 0.93612 0.40405 0.0
H957 H 0.83277 0.93433 0.54496 0.0
H958 H 0.81635 0.85162 0.60566 0.0
H959 H 0.81805 0.87979 0.59345 0.0
C960 C 0.06273 0.85615 0.5465 0.0
C961 C 0.05188 0.84491 0.49676 0.0
C962 C 0.07777 0.87246 0.53973 0.0
C963 C 0.10922 0.89748 0.42875 0.0
H964 H 0.12443 0.93637 0.54954 0.0
C965 C 0.168 0.97595 0.49585 0.0
C966 C 0.18285 0.97514 0.47875 0.0
C967 C 0.15106 0.96086 0.48907 0.0
C968 C 0.12032 0.92583 0.5146 0.0
H969 H 0.04823 0.84234 0.40064 0.0
H970 H 0.07411 0.87103 0.38885 0.0
H971 H 0.09664 0.90921 0.55514 0.0
H972 H 0.19151 0.95807 0.43864 0.0
H973 H 0.16212 0.93158 0.42852 0.0
H974 H 0.1327 0.91438 0.38724 0.0
C975 C 0.07127 0.86705 0.43323 0.0
C976 C 0.10442 0.91002 0.51849 0.0
C977 C 0.0563 0.85061 0.44 0.0
C978 C 0.18027 0.95913 0.45175 0.0
C979 C 0.16334 0.94391 0.44594 0.0
C980 C 0.12506 0.91341 0.42445 0.0
C981 C 0.08233 0.87817 0.48301 0.0
C982 C 0.09874 0.89547 0.47623 0.0
C983 C 0.14855 0.94442 0.46622 0.0
C984 C 0.13099 0.92779 0.46776 0.0
H985 H 0.05991 0.85217 0.59091 0.0
H986 H 0.08606 0.88037 0.57923 0.0
H987 H 0.10546 0.88659 0.39551 0.0
H988 H 0.16961 0.98816 0.51654 0.0
H989 H 0.14 0.96203 0.50348 0.0
C990 C 0.21263 0.16604 0.45865 0.0
C991 C 0.22073 0.18012 0.50348 0.0
C992 C 0.21158 0.14985 0.46702 0.0
C993 C 0.23336 0.13029 0.55368 0.0
H994 H 0.19188 0.08602 0.49081 0.0
C995 C 0.22973 0.06273 0.5726 0.0
C996 C 0.22295 0.05098 0.52087 0.0
C997 C 0.22815 0.07791 0.57704 0.0
C998 C 0.20362 0.09826 0.50833 0.0
H999 H 0.23377 0.18801 0.59295 0.0
H1000 H 0.23188 0.15972 0.60754 0.0
H1001 H 0.1915 0.11357 0.48645 0.0
H1002 H 0.20876 0.04579 0.43389 0.0
H1003 H 0.20614 0.07212 0.44144 0.0
H1004 H 0.24562 0.11503 0.57442 0.0
C1005 C 0.22648 0.16128 0.56566 0.0
C1006 C 0.2034 0.11408 0.50582 0.0
C1007 C 0.22745 0.17748 0.5574 0.0
C1008 C 0.21416 0.05452 0.47445 0.0
C1009 C 0.21253 0.06961 0.47893 0.0
C1010 C 0.2336 0.11447 0.5561 0.0
C1011 C 0.21865 0.1473 0.52038 0.0
C1012 C 0.21837 0.13033 0.52756 0.0
C1013 C 0.21967 0.08163 0.52997 0.0
C1014 C 0.21884 0.09827 0.53252 0.0
H1015 H 0.2073 0.16757 0.41654 0.0
H1016 H 0.20566 0.13948 0.43089 0.0
H1017 H 0.24519 0.14258 0.5703 0.0
H1018 H 0.23659 0.06043 0.60922 0.0
H1019 H 0.23363 0.08678 0.61726 0.0
C1020 C 0.86041 0.04755 0.5356 0.0
C1021 C 0.84513 0.04802 0.54943 0.0
C1022 C 0.877 0.06305 0.54045 0.0
C1023 C 0.90603 0.09788 0.50589 0.0
H1024 H 0.92059 0.13846 0.61879 0.0
C1025 C 0.96228 0.1677 0.46504 0.0
C1026 C 0.97343 0.17909 0.51404 0.0
C1027 C 0.94735 0.15141 0.47316 0.0
C1028 C 0.91688 0.12721 0.58721 0.0
H1029 H 0.83534 0.0649 0.58261 0.0
H1030 H 0.86421 0.09207 0.59007 0.0
H1031 H 0.89398 0.11053 0.63176 0.0
H1032 H 0.9778 0.18195 0.61011 0.0
H1033 H 0.95213 0.15347 0.6241 0.0
H1034 H 0.92906 0.11438 0.46201 0.0
C1035 C 0.86353 0.07972 0.5763 0.0
C1036 C 0.90144 0.1112 0.5943 0.0
C1037 C 0.84694 0.06411 0.57218 0.0
C1038 C 0.96946 0.1736 0.57127 0.0
C1039 C 0.95462 0.15727 0.57937 0.0
C1040 C 0.92149 0.11382 0.49903 0.0
C1041 C 0.87868 0.07949 0.55834 0.0
C1042 C 0.89572 0.09633 0.55349 0.0
C1043 C 0.94324 0.14599 0.53049 0.0
C1044 C 0.92707 0.12878 0.53922 0.0
H1045 H 0.85938 0.03529 0.51811 0.0
H1046 H 0.88841 0.06222 0.52796 0.0
H1047 H 0.90197 0.08689 0.47281 0.0
H1048 H 0.96484 0.17152 0.42035 0.0
H1049 H 0.9388 0.14325 0.4344 0.0
C1050 C 0.96818 0.79902 0.58567 0.0
C1051 C 0.97531 0.80662 0.53356 0.0
C1052 C 0.95388 0.8002 0.60672 0.0
C1053 C 0.92831 0.82352 0.59576 0.0
H1054 H 0.88662 0.77722 0.59848 0.0
C1055 C 0.85706 0.81163 0.55346 0.0
C1056 C 0.84275 0.79662 0.57299 0.0
C1057 C 0.8745 0.81502 0.56506 0.0
C1058 C 0.8981 0.79035 0.59967 0.0
H1059 H 0.97402 0.82228 0.46483 0.0
H1060 H 0.94971 0.825 0.5028 0.0
H1061 H 0.91557 0.77986 0.59218 0.0
H1062 H 0.83528 0.77385 0.62228 0.0
H1063 H 0.8657 0.78031 0.64636 0.0
H1064 H 0.91096 0.8341 0.60303 0.0
C1065 C 0.95492 0.818 0.52717 0.0
C1066 C 0.91477 0.79182 0.59584 0.0
C1067 C 0.96883 0.81643 0.50539 0.0
C1068 C 0.84618 0.78565 0.60743 0.0
C1069 C 0.86363 0.78922 0.62022 0.0
C1070 C 0.91168 0.82211 0.60074 0.0
C1071 C 0.94686 0.80938 0.5768 0.0
C1072 C 0.92997 0.80835 0.5921 0.0
C1073 C 0.87803 0.80353 0.59704 0.0
C1074 C 0.89619 0.80544 0.60089 0.0
H1075 H 0.97278 0.79115 0.60761 0.0
H1076 H 0.9479 0.79342 0.64508 0.0
H1077 H 0.93983 0.83646 0.59331 0.0
H1078 H 0.85465 0.82003 0.52554 0.0
H1079 H 0.88501 0.82602 0.54552 0.0
C1080 C 0.84721 0.55452 0.71733 0.0
C1081 C 0.85334 0.55018 0.76886 0.0
C1082 C 0.82999 0.55203 0.71117 0.0
C1083 C 0.78599 0.52889 0.77292 0.0
H1084 H 0.78085 0.56745 0.7185 0.0
C1085 C 0.72712 0.53864 0.82405 0.0
C1086 C 0.72033 0.54526 0.78106 0.0
C1087 C 0.74209 0.53715 0.81496 0.0
C1088 C 0.78195 0.55641 0.73284 0.0
H1089 H 0.84592 0.53934 0.85356 0.0
H1090 H 0.81618 0.53517 0.84302 0.0
H1091 H 0.80934 0.56861 0.71563 0.0
H1092 H 0.72367 0.55492 0.6937 0.0
H1093 H 0.74971 0.5522 0.6778 0.0
H1094 H 0.75872 0.5169 0.79148 0.0
C1095 C 0.82453 0.54033 0.80702 0.0
C1096 C 0.79831 0.55708 0.73116 0.0
C1097 C 0.8417 0.54286 0.81325 0.0
C1098 C 0.72854 0.5498 0.72788 0.0
C1099 C 0.74356 0.54836 0.71887 0.0
C1100 C 0.76965 0.52823 0.77466 0.0
C1101 C 0.8185 0.54506 0.75626 0.0
C1102 C 0.80063 0.54348 0.75222 0.0
C1103 C 0.75068 0.54227 0.7627 0.0
C1104 C 0.76751 0.54213 0.75563 0.0
H1105 H 0.85581 0.56017 0.68225 0.0
H1106 H 0.8257 0.55565 0.67122 0.0
H1107 H 0.78722 0.51803 0.78846 0.0
H1108 H 0.72117 0.53501 0.86554 0.0
H1109 H 0.74732 0.53258 0.84993 0.0
C1110 C 0.48035 0.31078 0.85226 0.0
C1111 C 0.47144 0.31447 0.80667 0.0
C1112 C 0.48248 0.29602 0.84581 0.0
C1113 C 0.46282 0.25195 0.76426 0.0
H1114 H 0.50549 0.25385 0.83345 0.0
C1115 C 0.47055 0.18984 0.76314 0.0
C1116 C 0.47684 0.18727 0.81804 0.0
C1117 C 0.47147 0.20597 0.75398 0.0
C1118 C 0.49346 0.25308 0.81405 0.0
H1119 H 0.45807 0.30563 0.71782 0.0
H1120 H 0.46188 0.27981 0.7064 0.0
H1121 H 0.50422 0.28098 0.83078 0.0
H1122 H 0.48962 0.19992 0.90554 0.0
H1123 H 0.49125 0.2279 0.88954 0.0
H1124 H 0.45197 0.22396 0.74854 0.0
C1125 C 0.46708 0.28832 0.74744 0.0
C1126 C 0.49272 0.26863 0.81256 0.0
C1127 C 0.46499 0.30318 0.75385 0.0
C1128 C 0.48462 0.20139 0.86272 0.0
C1129 C 0.48566 0.21752 0.85342 0.0
C1130 C 0.46358 0.23637 0.76562 0.0
C1131 C 0.47576 0.28449 0.79357 0.0
C1132 C 0.47724 0.26823 0.78889 0.0
C1133 C 0.47886 0.21994 0.79928 0.0
C1134 C 0.47877 0.23669 0.79173 0.0
H1135 H 0.48551 0.31915 0.8936 0.0
H1136 H 0.48898 0.29337 0.88266 0.0
H1137 H 0.45063 0.25109 0.74621 0.0
H1138 H 0.46445 0.17924 0.72776 0.0
H1139 H 0.46627 0.20746 0.71157 0.0
C1140 C 0.73102 0.20111 0.83713 0.0
C1141 C 0.72279 0.18722 0.79168 0.0
C1142 C 0.74638 0.21688 0.82835 0.0
C1143 C 0.78472 0.23478 0.73896 0.0
H1144 H 0.79272 0.27983 0.80845 0.0
C1145 C 0.85122 0.30087 0.72843 0.0
C1146 C 0.85803 0.31158 0.78245 0.0
C1147 C 0.83386 0.28627 0.72185 0.0
C1148 C 0.79073 0.26735 0.78894 0.0
H1149 H 0.72414 0.17927 0.70069 0.0
H1150 H 0.75098 0.20688 0.68541 0.0
H1151 H 0.76377 0.25333 0.81087 0.0
H1152 H 0.8517 0.31542 0.87148 0.0
H1153 H 0.82181 0.29018 0.86007 0.0
H1154 H 0.81186 0.24879 0.71831 0.0
C1155 C 0.74557 0.20546 0.72802 0.0
C1156 C 0.77413 0.25216 0.79036 0.0
C1157 C 0.73011 0.18968 0.73669 0.0
C1158 C 0.84699 0.30751 0.8292 0.0
C1159 C 0.82972 0.29307 0.82253 0.0
C1160 C 0.80137 0.25001 0.73758 0.0
C1161 C 0.75399 0.2192 0.77397 0.0
C1162 C 0.77102 0.23561 0.76659 0.0
C1163 C 0.82292 0.2822 0.76895 0.0
C1164 C 0.80469 0.26641 0.76381 0.0
H1165 H 0.72579 0.19971 0.88006 0.0
H1166 H 0.75263 0.22708 0.86498 0.0
H1167 H 0.78284 0.22223 0.72067 0.0
H1168 H 0.85934 0.30361 0.69151 0.0
H1169 H 0.82898 0.2782 0.67987 0.0
C1170 C 0.9015 0.51413 0.8623 0.0
C1171 C 0.89061 0.5139 0.81382 0.0
C1172 C 0.90034 0.4984 0.8785 0.0
C1173 C 0.87253 0.44932 0.85725 0.0
H1174 H 0.91782 0.45082 0.87113 0.0
C1175 C 0.87915 0.38818 0.80373 0.0
C1176 C 0.89329 0.38698 0.83121 0.0
C1177 C 0.87732 0.40292 0.8169 0.0
C1178 C 0.90504 0.45014 0.86883 0.0
H1179 H 0.86922 0.49697 0.7468 0.0
H1180 H 0.86708 0.46953 0.77519 0.0
H1181 H 0.91718 0.47818 0.86644 0.0
H1182 H 0.91589 0.39968 0.89734 0.0
H1183 H 0.91255 0.42541 0.92134 0.0
H1184 H 0.86037 0.42124 0.8583 0.0
C1185 C 0.87654 0.48182 0.80073 0.0
C1186 C 0.90468 0.46588 0.86598 0.0
C1187 C 0.87781 0.49755 0.78425 0.0
C1188 C 0.90489 0.40028 0.8753 0.0
C1189 C 0.90306 0.41509 0.88857 0.0
C1190 C 0.87289 0.43358 0.86049 0.0
C1191 C 0.88813 0.48209 0.84697 0.0
C1192 C 0.88842 0.46563 0.85853 0.0
C1193 C 0.88957 0.41686 0.85814 0.0
C1194 C 0.88915 0.43371 0.86457 0.0
H1195 H 0.91146 0.52654 0.88611 0.0
H1196 H 0.9093 0.49904 0.9148 0.0
H1197 H 0.85978 0.44868 0.8525 0.0
H1198 H 0.86996 0.37812 0.76965 0.0
H1199 H 0.86687 0.40379 0.79204 0.0
C1200 C 0.51634 0.40199 0.89629 0.0
C1201 C 0.51249 0.38805 0.85359 0.0
C1202 C 0.53376 0.41637 0.90759 0.0
C1203 C 0.58112 0.43204 0.87681 0.0
H1204 H 0.5849 0.4781 0.88282 0.0
C1205 C 0.64072 0.49409 0.79964 0.0
C1206 C 0.64639 0.51063 0.83027 0.0
C1207 C 0.62594 0.47884 0.81574 0.0
C1208 C 0.58415 0.46537 0.88223 0.0
H1209 H 0.52401 0.37768 0.79216 0.0
H1210 H 0.55406 0.40258 0.81102 0.0
H1211 H 0.55605 0.45181 0.88854 0.0
H1212 H 0.64157 0.52406 0.90382 0.0
H1213 H 0.61566 0.49742 0.93172 0.0
H1214 H 0.60915 0.44564 0.86766 0.0
C1215 C 0.54386 0.40255 0.83641 0.0
C1216 C 0.56757 0.45024 0.88569 0.0
C1217 C 0.52654 0.38825 0.82524 0.0
C1218 C 0.6375 0.51149 0.87926 0.0
C1219 C 0.62259 0.49626 0.89499 0.0
C1220 C 0.59767 0.44715 0.87285 0.0
C1221 C 0.54768 0.41706 0.87653 0.0
C1222 C 0.56572 0.4333 0.8816 0.0
C1223 C 0.61639 0.47981 0.86259 0.0
C1224 C 0.59933 0.46397 0.87423 0.0
H1225 H 0.50578 0.40218 0.9189 0.0
H1226 H 0.53622 0.42715 0.93953 0.0
H1227 H 0.58034 0.41929 0.87481 0.0
H1228 H 0.6473 0.49301 0.76172 0.0
H1229 H 0.62147 0.46642 0.78955 0.0
C1230 C 0.64256 0.15926 0.85211 0.0
C1231 C 0.64202 0.14302 0.85423 0.0
C1232 C 0.62825 0.16105 0.86974 0.0
C1233 C 0.58 0.13181 0.87868 0.0
H1234 H 0.58091 0.17422 0.94249 0.0
C1235 C 0.51462 0.12901 0.91029 0.0
C1236 C 0.51245 0.14224 0.88579 0.0
C1237 C 0.53156 0.13127 0.9219 0.0
C1238 C 0.58047 0.16229 0.92459 0.0
H1239 H 0.62702 0.11642 0.87998 0.0
H1240 H 0.60274 0.11975 0.9142 0.0
H1241 H 0.60894 0.17418 0.93533 0.0
H1242 H 0.52619 0.1686 0.85694 0.0
H1243 H 0.55604 0.17255 0.87639 0.0
H1244 H 0.5518 0.11996 0.86658 0.0
C1245 C 0.61373 0.13097 0.8971 0.0
C1246 C 0.59653 0.16226 0.9204 0.0
C1247 C 0.62776 0.12911 0.87841 0.0
C1248 C 0.52759 0.15836 0.87704 0.0
C1249 C 0.54466 0.16055 0.88791 0.0
C1250 C 0.5641 0.13182 0.88307 0.0
C1251 C 0.61328 0.14663 0.8901 0.0
C1252 C 0.59647 0.14696 0.89749 0.0
C1253 C 0.54674 0.14666 0.90776 0.0
C1254 C 0.56404 0.14699 0.9062 0.0
H1255 H 0.6533 0.17007 0.83251 0.0
H1256 H 0.62839 0.17328 0.86351 0.0
H1257 H 0.57932 0.11995 0.85882 0.0
H1258 H 0.50311 0.11641 0.91684 0.0
H1259 H 0.53267 0.12046 0.93857 0.0
C1260 C 0.50446 0.87298 0.13934 0.0
C1261 C 0.51856 0.88833 0.12077 0.0
C1262 C 0.48692 0.86903 0.12697 0.0
C1263 C 0.457 0.88233 0.05028 0.0
H1264 H 0.43621 0.87385 0.20057 0.0
C1265 C 0.4004 0.89614 0.10896 0.0
C1266 C 0.38971 0.88677 0.15318 0.0
C1267 C 0.41385 0.89292 0.09159 0.0
C1268 C 0.44143 0.87575 0.15759 0.0
H1269 H 0.52557 0.91114 0.07199 0.0
H1270 H 0.49482 0.90438 0.05055 0.0
H1271 H 0.4636 0.87377 0.19143 0.0
H1272 H 0.38341 0.8658 0.21019 0.0
H1273 H 0.40579 0.85921 0.17709 0.0
H1274 H 0.43477 0.88464 0.01701 0.0
C1275 C 0.49722 0.89514 0.07354 0.0
C1276 C 0.45729 0.87574 0.15242 0.0
C1277 C 0.51483 0.89898 0.0855 0.0
C1278 C 0.39155 0.87317 0.17599 0.0
C1279 C 0.40457 0.86962 0.15756 0.0
C1280 C 0.4409 0.88217 0.0553 0.0
C1281 C 0.48317 0.88062 0.09697 0.0
C1282 C 0.46539 0.87913 0.09896 0.0
C1283 C 0.41659 0.8801 0.11765 0.0
C1284 C 0.43295 0.87899 0.10929 0.0
H1285 H 0.50709 0.86474 0.16738 0.0
H1286 H 0.47639 0.85756 0.14467 0.0
H1287 H 0.46292 0.88501 0.00848 0.0
H1288 H 0.39934 0.90689 0.09147 0.0
H1289 H 0.42282 0.90132 0.06093 0.0
C1290 C 0.16062 0.6467 0.19443 0.0
C1291 C 0.15107 0.64998 0.14984 0.0
C1292 C 0.16286 0.63201 0.18781 0.0
C1293 C 0.14182 0.58741 0.10982 0.0
H1294 H 0.18422 0.58852 0.17759 0.0
C1295 C 0.14678 0.52399 0.11549 0.0
C1296 C 0.15295 0.52165 0.171 0.0
C1297 C 0.14854 0.54033 0.10414 0.0
C1298 C 0.17227 0.58798 0.15853 0.0
H1299 H 0.13693 0.64065 0.06213 0.0
H1300 H 0.14099 0.61501 0.05033 0.0
H1301 H 0.18384 0.61607 0.17232 0.0
H1302 H 0.16653 0.53495 0.2571 0.0
H1303 H 0.16958 0.56331 0.2373 0.0
H1304 H 0.13014 0.55927 0.09718 0.0
C1305 C 0.14656 0.62375 0.09083 0.0
C1306 C 0.17204 0.60377 0.15555 0.0
C1307 C 0.14435 0.63852 0.09741 0.0
C1308 C 0.16156 0.53622 0.21392 0.0
C1309 C 0.16343 0.55256 0.20242 0.0
C1310 C 0.14207 0.57161 0.11262 0.0
C1311 C 0.15562 0.62017 0.13638 0.0
C1312 C 0.15666 0.60366 0.13248 0.0
C1313 C 0.15665 0.55474 0.14781 0.0
C1314 C 0.15716 0.57167 0.13828 0.0
H1315 H 0.16603 0.65523 0.2354 0.0
H1316 H 0.1697 0.62959 0.22418 0.0
H1317 H 0.12967 0.58677 0.09239 0.0
H1318 H 0.14007 0.51306 0.08137 0.0
H1319 H 0.14334 0.54163 0.0614 0.0
C1320 C 0.50446 0.64911 0.14653 0.0
C1321 C 0.51746 0.64548 0.1274 0.0
C1322 C 0.4865 0.63582 0.14009 0.0
C1323 C 0.45343 0.59178 0.06835 0.0
H1324 H 0.43689 0.58154 0.22467 0.0
C1325 C 0.39769 0.52248 0.11394 0.0
C1326 C 0.38728 0.52065 0.1612 0.0
C1327 C 0.41171 0.53909 0.1036 0.0
C1328 C 0.44092 0.5843 0.18032 0.0
H1329 H 0.52209 0.62584 0.08343 0.0
H1330 H 0.49068 0.60289 0.06957 0.0
H1331 H 0.46406 0.60887 0.21275 0.0
H1332 H 0.38276 0.53486 0.23285 0.0
H1333 H 0.40655 0.56394 0.21318 0.0
H1334 H 0.43032 0.56732 0.03552 0.0
C1335 C 0.49426 0.61586 0.08975 0.0
C1336 C 0.4566 0.60003 0.17362 0.0
C1337 C 0.5122 0.62897 0.09747 0.0
C1338 C 0.39073 0.53585 0.19654 0.0
C1339 C 0.40448 0.55253 0.1854 0.0
C1340 C 0.43752 0.57618 0.07477 0.0
C1341 C 0.48133 0.61889 0.1134 0.0
C1342 C 0.46324 0.60373 0.11786 0.0
C1343 C 0.41544 0.55439 0.13949 0.0
C1344 C 0.43126 0.57196 0.13117 0.0
H1345 H 0.5083 0.66164 0.17091 0.0
H1346 H 0.47677 0.63846 0.15873 0.0
H1347 H 0.45826 0.59435 0.02483 0.0
H1348 H 0.39544 0.51097 0.0862 0.0
H1349 H 0.41995 0.53976 0.0686 0.0
C1350 C 0.53941 0.72317 0.16309 0.0
C1351 C 0.55169 0.72173 0.20163 0.0
C1352 C 0.53747 0.73802 0.16871 0.0
C1353 C 0.54785 0.77835 0.26282 0.0
H1354 H 0.54942 0.79689 0.1102 0.0
C1355 C 0.56125 0.84953 0.23262 0.0
C1356 C 0.5529 0.85186 0.18186 0.0
C1357 C 0.55919 0.83292 0.24149 0.0
C1358 C 0.54863 0.79179 0.15313 0.0
H1359 H 0.5707 0.73411 0.27891 0.0
H1360 H 0.56747 0.76041 0.28841 0.0
H1361 H 0.5491 0.7692 0.11565 0.0
H1362 H 0.53478 0.83834 0.10308 0.0
H1363 H 0.5308 0.80941 0.11928 0.0
H1364 H 0.54754 0.80122 0.30016 0.0
C1365 C 0.55926 0.74992 0.25405 0.0
C1366 C 0.54849 0.77589 0.15627 0.0
C1367 C 0.56112 0.73489 0.24866 0.0
C1368 C 0.54162 0.83706 0.14213 0.0
C1369 C 0.53942 0.82048 0.1513 0.0
C1370 C 0.54792 0.79434 0.25965 0.0
C1371 C 0.54789 0.7519 0.21264 0.0
C1372 C 0.54799 0.76889 0.21097 0.0
C1373 C 0.54863 0.8183 0.2 0.0
C1374 C 0.54821 0.80119 0.2046 0.0
H1375 H 0.53173 0.7131 0.12699 0.0
H1376 H 0.52826 0.73893 0.13708 0.0
H1377 H 0.54745 0.77327 0.3056 0.0
H1378 H 0.57006 0.86068 0.26407 0.0
H1379 H 0.56654 0.83176 0.27933 0.0
C1380 C 0.30733 0.84791 0.24687 0.0
C1381 C 0.31777 0.85036 0.19914 0.0
C1382 C 0.29295 0.83119 0.25428 0.0
C1383 C 0.26247 0.78883 0.16547 0.0
H1384 H 0.2455 0.77232 0.31735 0.0
C1385 C 0.2016 0.72165 0.1692 0.0
C1386 C 0.18784 0.7218 0.19807 0.0
C1387 C 0.21907 0.73545 0.1815 0.0
C1388 C 0.25013 0.77679 0.27472 0.0
H1389 H 0.32207 0.83702 0.12412 0.0
H1390 H 0.29752 0.80783 0.13815 0.0
H1391 H 0.2734 0.80032 0.31411 0.0
H1392 H 0.18146 0.73562 0.26547 0.0
H1393 H 0.21223 0.76014 0.28686 0.0
H1394 H 0.23931 0.76554 0.12595 0.0
C1395 C 0.29993 0.81888 0.1687 0.0
C1396 C 0.26605 0.79284 0.27275 0.0
C1397 C 0.3141 0.83561 0.16077 0.0
C1398 C 0.19197 0.73513 0.24346 0.0
C1399 C 0.20955 0.74917 0.2554 0.0
C1400 C 0.24676 0.77282 0.16748 0.0
C1401 C 0.28883 0.8165 0.21452 0.0
C1402 C 0.2724 0.79909 0.21795 0.0
C1403 C 0.22307 0.7499 0.22205 0.0
C1404 C 0.24037 0.76658 0.22198 0.0
H1405 H 0.30979 0.85904 0.27714 0.0
H1406 H 0.28465 0.82996 0.28971 0.0
H1407 H 0.26653 0.79336 0.12242 0.0
H1408 H 0.19864 0.71151 0.13379 0.0
H1409 H 0.22925 0.73546 0.15602 0.0
C1410 C 0.30477 0.47601 0.25692 0.0
C1411 C 0.31645 0.48629 0.21629 0.0
C1412 C 0.29163 0.47957 0.2751 0.0
C1413 C 0.26675 0.50026 0.21482 0.0
H1414 H 0.24219 0.48651 0.35731 0.0
C1415 C 0.2028 0.50167 0.22811 0.0
C1416 C 0.18844 0.48556 0.24084 0.0
C1417 C 0.22026 0.50565 0.24307 0.0
C1418 C 0.24898 0.49048 0.31742 0.0
H1419 H 0.32475 0.50908 0.1665 0.0
H1420 H 0.30287 0.51618 0.2013 0.0
H1421 H 0.27033 0.48679 0.35064 0.0
H1422 H 0.18078 0.46135 0.28193 0.0
H1423 H 0.21133 0.46817 0.30795 0.0
H1424 H 0.24542 0.50356 0.18086 0.0
C1425 C 0.30313 0.50489 0.21739 0.0
C1426 C 0.26508 0.49058 0.31344 0.0
C1427 C 0.31588 0.50103 0.19809 0.0
C1428 C 0.19171 0.47407 0.27303 0.0
C1429 C 0.20921 0.47796 0.28763 0.0
C1430 C 0.25088 0.50032 0.21902 0.0
C1431 C 0.29016 0.49363 0.25342 0.0
C1432 C 0.27407 0.49525 0.26163 0.0
C1433 C 0.22366 0.49337 0.26988 0.0
C1434 C 0.24163 0.49522 0.26994 0.0
H1435 H 0.30482 0.46436 0.27064 0.0
H1436 H 0.2819 0.47053 0.30257 0.0
H1437 H 0.27283 0.5034 0.17339 0.0
H1438 H 0.20055 0.51057 0.20238 0.0
H1439 H 0.23108 0.51778 0.22973 0.0
C1440 C 0.9968 0.22548 0.20457 0.0
C1441 C 0.0078 0.22118 0.23871 0.0
C1442 C 0.99862 0.22748 0.14402 0.0
C1443 C 0.0315 0.23762 0.03374 0.0
H1444 H 0.99065 0.22175 0.91946 0.0
C1445 C 0.03702 0.23907 0.77985 0.0
C1446 C 0.02559 0.24281 0.74557 0.0
C1447 C 0.03532 0.23715 0.84052 0.0
C1448 C 1.00223 0.22651 0.95086 0.0
H1449 H 0.02902 0.21511 0.23596 0.0
H1450 H 0.03209 0.21838 0.13002 0.0
H1451 H 0.98619 0.21588 0.02291 0.0
H1452 H 1.00385 0.24811 0.74822 0.0
H1453 H 1.00109 0.24511 0.85428 0.0
H1454 H 0.04755 0.2483 0.96175 0.0
C1455 C 0.02219 0.22045 0.15015 0.0
C1456 C 0.99966 0.22308 0.01027 0.0
C1457 C 0.02031 0.21839 0.21072 0.0
C1458 C 0.01285 0.24522 0.77355 0.0
C1459 C 0.01116 0.24332 0.83423 0.0
C1460 C 0.03407 0.24108 0.97433 0.0
C1461 C 0.01154 0.22529 0.11618 0.0
C1462 C 0.01425 0.22858 0.05254 0.0
C1463 C 0.02215 0.23892 0.86835 0.0
C1464 C 0.01948 0.23558 0.93203 0.0
H1465 H 0.98711 0.22782 0.22502 0.0
H1466 H 0.9903 0.23136 0.11952 0.0
H1467 H 0.04307 0.24234 0.0652 0.0
H1468 H 0.04689 0.23703 0.75941 0.0
H1469 H 0.04392 0.23361 0.86507 0.0
C1470 C 0.77794 0.77411 0.25447 0.0
C1471 C 0.79408 0.78084 0.28979 0.0
C1472 C 0.77787 0.77541 0.19318 0.0
C1473 C 0.80671 0.80141 0.08015 0.0
H1474 H 0.77195 0.7627 0.96952 0.0
C1475 C 0.81071 0.80124 0.82597 0.0
C1476 C 0.79463 0.7942 0.7901 0.0
C1477 C 0.81065 0.79994 0.88724 0.0
C1478 C 0.78162 0.77373 0.99986 0.0
H1479 H 0.82273 0.79385 0.28899 0.0
H1480 H 0.82261 0.79594 0.18218 0.0
H1481 H 0.77165 0.75932 0.07561 0.0
H1482 H 0.76593 0.78068 0.78989 0.0
H1483 H 0.76581 0.77866 0.89673 0.0
H1484 H 0.81666 0.81584 0.00448 0.0
C1485 C 0.81003 0.7899 0.20167 0.0
C1486 C 0.78145 0.77177 0.06067 0.0
C1487 C 0.81009 0.78858 0.26278 0.0
C1488 C 0.77853 0.78618 0.81655 0.0
C1489 C 0.77846 0.7849 0.87768 0.0
C1490 C 0.80686 0.80338 0.01936 0.0
C1491 C 0.79394 0.78351 0.1662 0.0
C1492 C 0.79401 0.78558 0.10152 0.0
C1493 C 0.7945 0.79159 0.91373 0.0
C1494 C 0.79433 0.78956 0.97847 0.0
H1495 H 0.76542 0.76815 0.27431 0.0
H1496 H 0.76526 0.77048 0.16716 0.0
H1497 H 0.81639 0.81242 0.11052 0.0
H1498 H 0.8233 0.80742 0.80657 0.0
H1499 H 0.82323 0.80509 0.91363 0.0
C1500 C 0.2499 0.01997 0.22004 0.0
C1501 C 0.23385 0.01069 0.24615 0.0
C1502 C 0.25006 0.01904 0.15848 0.0
C1503 C 0.22716 0.99065 0.02452 0.0
H1504 H 0.25009 0.03353 0.94422 0.0
C1505 C 0.2238 0.98936 0.769 0.0
C1506 C 0.23818 1.00272 0.74321 0.0
C1507 C 0.22342 0.98988 0.83057 0.0
C1508 C 0.24392 0.0214 0.96588 0.0
H1509 H 0.20539 0.99316 0.22901 0.0
H1510 H 0.20574 0.99115 0.12062 0.0
H1511 H 0.24881 0.03552 0.05124 0.0
H1512 H 0.26382 0.02662 0.76095 0.0
H1513 H 0.26366 0.02712 0.86857 0.0
H1514 H 0.2228 0.97645 0.93997 0.0
C1515 C 0.21813 0.99926 0.14804 0.0
C1516 C 0.24306 0.02258 0.02714 0.0
C1517 C 0.21792 1.00047 0.20977 0.0
C1518 C 0.25253 0.01621 0.7799 0.0
C1519 C 0.25231 0.01658 0.84153 0.0
C1520 C 0.22829 0.98945 0.96334 0.0
C1521 C 0.23422 0.00856 0.12199 0.0
C1522 C 0.23465 0.00723 0.05692 0.0
C1523 C 0.23757 1.00363 0.8677 0.0
C1524 C 0.23667 0.00482 0.93313 0.0
H1525 H 0.26236 0.02794 0.24722 0.0
H1526 H 0.26263 0.02624 0.13937 0.0
H1527 H 0.22078 0.97862 0.04677 0.0
H1528 H 0.2125 0.97888 0.74154 0.0
H1529 H 0.21172 0.97981 0.84877 0.0
C1530 C 0.02952 0.79632 0.80547 0.0
C1531 C 0.01705 0.79862 0.77139 0.0
C1532 C 0.02809 0.79434 0.86593 0.0
C1533 C 1.00514 0.79943 0.99318 0.0
H1534 H 0.01817 0.76712 0.05991 0.0
C1535 C 0.98971 0.77649 0.22758 0.0
C1536 C 1.00483 0.78008 0.26426 0.0
C1537 C 0.99058 0.77762 0.16652 0.0
C1538 C 0.01451 0.77618 0.04172 0.0
H1539 H 0.99343 0.80088 0.77315 0.0
H1540 H 0.99045 0.79674 0.87837 0.0
H1541 H 0.02102 0.772 0.95517 0.0
H1542 H 0.0324 0.78676 0.26633 0.0
H1543 H 0.03377 0.78823 0.15899 0.0
H1544 H 0.99815 0.80311 0.07987 0.0
C1545 C 1.00166 0.79695 0.85913 0.0
C1546 C 0.01627 0.77912 0.98189 0.0
C1547 C 1.0033 0.79927 0.79879 0.0
C1548 C 0.02057 0.78395 0.2388 0.0
C1549 C 0.02135 0.78476 0.1776 0.0
C1550 C 1.00308 0.79623 0.05275 0.0
C1551 C 0.01392 0.79424 0.89335 0.0
C1552 C 0.01177 0.79092 0.95692 0.0
C1553 C 1.00648 0.78202 0.14122 0.0
C1554 C 0.00787 0.78468 0.07754 0.0
H1555 H 0.04031 0.79589 0.78526 0.0
H1556 H 0.03807 0.79277 0.89101 0.0
H1557 H 1.00181 0.80881 0.97595 0.0
H1558 H 0.97743 0.77353 0.24631 0.0
H1559 H 0.97892 0.77533 0.13914 0.0
C1560 C 0.21361 0.22088 0.18706 0.0
C1561 C 0.22942 0.22557 0.22167 0.0
C1562 C 0.21382 0.22336 0.12639 0.0
C1563 C 0.24532 0.24808 0.01424 0.0
H1564 H 0.20525 0.2167 0.90154 0.0
C1565 C 0.24807 0.24638 0.75878 0.0
C1566 C 0.23359 0.24531 0.72446 0.0
C1567 C 0.24765 0.24517 0.82009 0.0
C1568 C 0.21648 0.22568 0.93262 0.0
H1569 H 0.25771 0.23585 0.21977 0.0
H1570 H 0.25802 0.23936 0.11401 0.0
H1571 H 0.20418 0.21121 0.00602 0.0
H1572 H 0.20749 0.24247 0.72747 0.0
H1573 H 0.20664 0.2401 0.83464 0.0
H1574 H 0.25781 0.26214 0.94004 0.0
C1575 C 0.24551 0.23441 0.13352 0.0
C1576 C 0.21587 0.22257 0.99271 0.0
C1577 C 0.24532 0.23221 0.19419 0.0
C1578 C 0.21887 0.24344 0.75287 0.0
C1579 C 0.21833 0.24194 0.81408 0.0
C1580 C 0.24603 0.251 0.95406 0.0
C1581 C 0.22983 0.23036 0.09878 0.0
C1582 C 0.23031 0.2337 0.03451 0.0
C1583 C 0.23262 0.24256 0.84825 0.0
C1584 C 0.23163 0.23983 0.91254 0.0
H1585 H 0.20118 0.21588 0.20726 0.0
H1586 H 0.20149 0.22026 0.10167 0.0
H1587 H 0.25656 0.25725 0.04489 0.0
H1588 H 0.25955 0.24774 0.738 0.0
H1589 H 0.25882 0.24561 0.84513 0.0
C1590 C 0.782 0.01182 0.23806 0.0
C1591 C 0.79623 0.02383 0.27855 0.0
C1592 C 0.78335 0.01307 0.17728 0.0
C1593 C 0.81424 0.02453 0.06813 0.0
H1594 H 0.77925 0.02801 0.9658 0.0
C1595 C 0.81573 0.02437 0.81226 0.0
C1596 C 0.79909 0.01543 0.77932 0.0
C1597 C 0.81676 0.02707 0.87409 0.0
C1598 C 0.78901 0.02682 0.99364 0.0
H1599 H 0.82291 0.04659 0.28828 0.0
H1600 H 0.82543 0.04842 0.18138 0.0
H1601 H 0.77804 0.02974 0.07293 0.0
H1602 H 0.77056 1.00149 0.78415 0.0
H1603 H 0.77228 0.00536 0.89136 0.0
H1604 H 0.82468 0.02062 0.98905 0.0
C1605 C 0.81323 0.03825 0.19686 0.0
C1606 C 0.78837 0.02796 0.05484 0.0
C1607 C 0.81174 0.03724 0.25768 0.0
C1608 C 0.78356 0.00863 0.80872 0.0
C1609 C 0.78456 0.01102 0.87014 0.0
C1610 C 0.8147 0.02304 0.0067 0.0
C1611 C 0.79907 0.02612 0.15641 0.0
C1612 C 0.80081 0.02657 0.09235 0.0
C1613 C 0.80115 0.02063 0.90355 0.0
C1614 C 0.80185 0.02382 0.96876 0.0
H1615 H 0.76994 1.00137 0.25334 0.0
H1616 H 0.77232 1.00355 0.14652 0.0
H1617 H 0.8239 0.02334 0.09664 0.0
H1618 H 0.82787 0.02978 0.79018 0.0
H1619 H 0.82975 0.03458 0.89853 0.0
C1620 C 0.6753 0.54436 0.09391 0.0
C1621 C 0.68759 0.55991 0.07031 0.0
C1622 C 0.67272 0.54441 0.15439 0.0
C1623 C 0.68095 0.57544 0.28774 0.0
H1624 H 0.66917 0.53419 0.37233 0.0
C1625 C 0.6848 0.57628 0.54392 0.0
C1626 C 0.6708 0.56218 0.5688 0.0
C1627 C 0.68553 0.57617 0.48242 0.0
C1628 C 0.67226 0.54574 0.34911 0.0
H1629 H 0.70722 0.58757 0.09154 0.0
H1630 H 0.70338 0.58756 0.19724 0.0
H1631 H 0.67395 0.53352 0.26744 0.0
H1632 H 0.64639 0.53709 0.549 0.0
H1633 H 0.6478 0.53674 0.44114 0.0
H1634 H 0.67986 0.58781 0.37038 0.0
C1635 C 0.69523 0.5754 0.16912 0.0
C1636 C 0.67497 0.54537 0.28882 0.0
C1637 C 0.69761 0.57539 0.10854 0.0
C1638 C 0.65727 0.54817 0.53094 0.0
C1639 C 0.65816 0.5479 0.46934 0.0
C1640 C 0.67848 0.57588 0.34819 0.0
C1641 C 0.68254 0.55999 0.19289 0.0
C1642 C 0.67944 0.56025 0.2572 0.0
C1643 C 0.67242 0.56181 0.44449 0.0
C1644 C 0.67416 0.56105 0.37959 0.0
H1645 H 0.66726 0.53226 0.0653 0.0
H1646 H 0.66265 0.53232 0.1705 0.0
H1647 H 0.68392 0.58703 0.26494 0.0
H1648 H 0.69543 0.58723 0.57212 0.0
H1649 H 0.69673 0.58701 0.46466 0.0
C1650 C 0.47927 0.13229 0.57215 0.0
C1651 C 0.4634 0.12594 0.59977 0.0
C1652 C 0.47934 0.13391 0.51116 0.0
C1653 C 0.45041 0.11908 0.3702 0.0
H1654 H 0.48896 0.16159 0.31662 0.0
C1655 C 0.44983 0.13604 0.12774 0.0
C1656 C 0.46589 0.14281 0.10108 0.0
C1657 C 0.44952 0.13434 0.18871 0.0
C1658 C 0.47821 0.14955 0.33069 0.0
H1659 H 0.43509 0.11594 0.58518 0.0
H1660 H 0.43516 0.11879 0.47826 0.0
H1661 H 0.48821 0.15732 0.42202 0.0
H1662 H 0.49426 0.15338 0.11725 0.0
H1663 H 0.49377 0.15032 0.22389 0.0
H1664 H 0.44044 0.11128 0.27883 0.0
C1665 C 0.44755 0.12241 0.50373 0.0
C1666 C 0.47777 0.14709 0.39119 0.0
C1667 C 0.44749 0.12081 0.56494 0.0
C1668 C 0.48171 0.14821 0.13674 0.0
C1669 C 0.48141 0.14649 0.19785 0.0
C1670 C 0.45086 0.12153 0.30965 0.0
C1671 C 0.46354 0.12922 0.47624 0.0
C1672 C 0.46388 0.13181 0.41173 0.0
C1673 C 0.46527 0.13934 0.2245 0.0
C1674 C 0.46477 0.1368 0.28908 0.0
H1675 H 0.49173 0.13631 0.59788 0.0
H1676 H 0.49183 0.1389 0.49136 0.0
H1677 H 0.43965 0.10706 0.38435 0.0
H1678 H 0.43742 0.13181 0.10132 0.0
H1679 H 0.43691 0.12909 0.20778 0.0
C1680 C 0.89684 0.36196 0.08802 0.0
C1681 C 0.90673 0.35511 0.0625 0.0
C1682 C 0.89632 0.36308 0.14955 0.0
C1683 C 0.89782 0.34281 0.27959 0.0
H1684 H 0.92438 0.38888 0.36852 0.0
C1685 C 0.91753 0.34907 0.52747 0.0
C1686 C 0.91694 0.36218 0.56365 0.0
C1687 C 0.91565 0.34882 0.46597 0.0
C1688 C 0.91661 0.37593 0.34447 0.0
H1689 H 0.9234 0.34366 0.07985 0.0
H1690 H 0.92196 0.34508 0.18712 0.0
H1691 H 0.92036 0.38681 0.26027 0.0
H1692 H 0.9143 0.38551 0.56501 0.0
H1693 H 0.91041 0.38479 0.45747 0.0
H1694 H 0.89382 0.33177 0.36289 0.0
C1695 C 0.91488 0.34979 0.15977 0.0
C1696 C 0.91434 0.3748 0.2827 0.0
C1697 C 0.91574 0.34905 0.09872 0.0
C1698 C 0.91492 0.37533 0.53775 0.0
C1699 C 0.91273 0.37492 0.47621 0.0
C1700 C 0.8998 0.34392 0.34125 0.0
C1701 C 0.9053 0.35693 0.18548 0.0
C1702 C 0.90526 0.35823 0.2501 0.0
C1703 C 0.9128 0.3615 0.43964 0.0
C1704 C 0.90962 0.36047 0.37436 0.0
H1705 H 0.88986 0.36676 0.06065 0.0
H1706 H 0.8889 0.36865 0.16907 0.0
H1707 H 0.89076 0.32992 0.25478 0.0
H1708 H 0.9192 0.33886 0.54668 0.0
H1709 H 0.91628 0.33859 0.43912 0.0
C1710 C 0.68007 0.15092 0.10392 0.0
C1711 C 0.68868 0.14348 0.07317 0.0
C1712 C 0.67828 0.14925 0.16467 0.0
C1713 C 0.67849 0.12145 0.28224 0.0
H1714 H 0.68313 0.15991 0.38862 0.0
C1715 C 0.68027 0.11991 0.53815 0.0
C1716 C 0.67143 0.12718 0.5685 0.0
C1717 C 0.682 0.12145 0.47731 0.0
C1718 C 0.68158 0.14895 0.3594 0.0
H1719 H 0.70257 0.12884 0.08188 0.0
H1720 H 0.69975 0.12619 0.18785 0.0
H1721 H 0.68742 0.16405 0.28403 0.0
H1722 H 0.65706 0.14132 0.55898 0.0
H1723 H 0.65986 0.14381 0.45293 0.0
H1724 H 0.6727 0.10637 0.35772 0.0
C1725 C 0.69407 0.13304 0.1651 0.0
C1726 C 0.68405 0.15134 0.29937 0.0
C1727 C 0.69583 0.13469 0.10446 0.0
C1728 C 0.66399 0.13562 0.53673 0.0
C1729 C 0.66572 0.13717 0.47605 0.0
C1730 C 0.67605 0.11907 0.3423 0.0
C1731 C 0.68508 0.1401 0.1959 0.0
C1732 C 0.68254 0.13762 0.25997 0.0
C1733 C 0.67495 0.13032 0.44568 0.0
C1734 C 0.67753 0.13278 0.38165 0.0
H1735 H 0.67433 0.15767 0.08078 0.0
H1736 H 0.67113 0.15471 0.18677 0.0
H1737 H 0.67692 0.11048 0.25303 0.0
H1738 H 0.68622 0.11341 0.56166 0.0
H1739 H 0.68932 0.11613 0.45546 0.0
C1740 C 0.91471 0.58116 0.0869 0.0
C1741 C 0.9072 0.56543 0.04959 0.0
C1742 C 0.91619 0.58079 0.14835 0.0
C1743 C 0.8995 0.5502 0.26739 0.0
H1744 H 0.94001 0.58905 0.36147 0.0
C1745 C 0.91538 0.54954 0.51771 0.0
C1746 C 0.91629 0.56378 0.55228 0.0
C1747 C 0.91545 0.5497 0.45613 0.0
C1748 C 0.92866 0.57813 0.33556 0.0
H1749 H 0.8955 0.537 0.04643 0.0
H1750 H 0.89872 0.53632 0.1535 0.0
H1751 H 0.93757 0.58913 0.2538 0.0
H1752 H 0.91873 0.58961 0.55077 0.0
H1753 H 0.91938 0.5901 0.44306 0.0
H1754 H 0.89094 0.53907 0.3496 0.0
C1755 C 0.90297 0.54894 0.13587 0.0
C1756 C 0.92714 0.57821 0.27398 0.0
C1757 C 0.90119 0.5493 0.07447 0.0
C1758 C 0.91798 0.57847 0.52486 0.0
C1759 C 0.91841 0.57878 0.46349 0.0
C1760 C 0.90121 0.54998 0.32885 0.0
C1761 C 0.9105 0.56469 0.17367 0.0
C1762 C 0.91243 0.56434 0.2391 0.0
C1763 C 0.91682 0.56427 0.42859 0.0
C1764 C 0.9157 0.56402 0.36339 0.0
H1765 H 0.91937 0.59376 0.0686 0.0
H1766 H 0.92169 0.59315 0.17593 0.0
H1767 H 0.88783 0.53944 0.24232 0.0
H1768 H 0.91402 0.53806 0.538 0.0
H1769 H 0.91428 0.53841 0.42993 0.0
C1770 C 0.44569 0.34562 0.11209 0.0
C1771 C 0.46169 0.3547 0.08554 0.0
C1772 C 0.44566 0.34665 0.17368 0.0
C1773 C 0.46887 0.37519 0.30698 0.0
H1774 H 0.44549 0.33251 0.38815 0.0
C1775 C 0.47143 0.37689 0.56281 0.0
C1776 C 0.45691 0.3636 0.58829 0.0
C1777 C 0.47203 0.37631 0.5013 0.0
C1778 C 0.45179 0.34459 0.36624 0.0
H1779 H 0.4902 0.37199 0.10199 0.0
H1780 H 0.49009 0.37419 0.2105 0.0
H1781 H 0.4469 0.33028 0.28126 0.0
H1782 H 0.43122 0.33979 0.56997 0.0
H1783 H 0.43175 0.33919 0.46248 0.0
H1784 H 0.47321 0.38957 0.39115 0.0
C1785 C 0.47764 0.36614 0.18337 0.0
C1786 C 0.45273 0.34327 0.30506 0.0
C1787 C 0.47771 0.36482 0.12157 0.0
C1788 C 0.44262 0.35014 0.55129 0.0
C1789 C 0.44306 0.34972 0.48973 0.0
C1790 C 0.46766 0.37653 0.3681 0.0
C1791 C 0.46159 0.35705 0.20983 0.0
C1792 C 0.46127 0.35854 0.27494 0.0
C1793 C 0.45796 0.36255 0.46391 0.0
C1794 C 0.45908 0.36124 0.3986 0.0
H1795 H 0.43316 0.33773 0.0852 0.0
H1796 H 0.43312 0.33961 0.19309 0.0
H1797 H 0.47534 0.38715 0.28447 0.0
H1798 H 0.48268 0.38735 0.59052 0.0
H1799 H 0.48383 0.3863 0.48339 0.0
C1800 C 0.34619 0.91211 0.44597 0.0
C1801 C 0.36216 0.9166 0.42097 0.0
C1802 C 0.34514 0.91074 0.50697 0.0
C1803 C 0.36428 0.89968 0.63232 0.0
H1804 H 0.34248 0.92007 0.72905 0.0
C1805 C 0.36301 0.89502 0.886 0.0
C1806 C 0.34847 0.89414 0.91282 0.0
C1807 C 0.36474 0.8977 0.82582 0.0
C1808 C 0.34833 0.914 0.70257 0.0
H1809 H 0.38967 0.92368 0.43995 0.0
H1810 H 0.38775 0.92102 0.54667 0.0
H1811 H 0.34572 0.92585 0.62509 0.0
H1812 H 0.32396 0.89459 0.89771 0.0
H1813 H 0.32645 0.89842 0.7923 0.0
H1814 H 0.36639 0.88731 0.70871 0.0
C1815 C 0.37609 0.91861 0.51907 0.0
C1816 C 0.3503 0.91746 0.64309 0.0
C1817 C 0.37722 0.92027 0.45819 0.0
C1818 C 0.33535 0.89531 0.87808 0.0
C1819 C 0.33691 0.89771 0.81777 0.0
C1820 C 0.36207 0.89599 0.69156 0.0
C1821 C 0.35996 0.91356 0.54387 0.0
C1822 C 0.35832 0.91036 0.60743 0.0
C1823 C 0.35182 0.89932 0.79101 0.0
C1824 C 0.35406 0.9031 0.72759 0.0
H1825 H 0.33438 0.9092 0.41814 0.0
H1826 H 0.33252 0.90676 0.52491 0.0
H1827 H 0.37027 0.89382 0.60552 0.0
H1828 H 0.3734 0.89433 0.912 0.0
H1829 H 0.37651 0.89909 0.80722 0.0
C1830 C 0.11989 0.46143 0.9277 0.0
C1831 C 0.13026 0.45554 0.95739 0.0
C1832 C 0.12031 0.46297 0.86661 0.0
C1833 C 0.14985 0.4707 0.74861 0.0
H1834 H 0.10767 0.45654 0.6426 0.0
C1835 C 0.15256 0.47507 0.49503 0.0
C1836 C 0.14067 0.47893 0.4643 0.0
C1837 C 0.15137 0.47226 0.55524 0.0
C1838 C 0.11964 0.46085 0.67167 0.0
H1839 H 0.14876 0.4461 0.94635 0.0
H1840 H 0.14958 0.44889 0.83947 0.0
H1841 H 0.10473 0.45048 0.74642 0.0
H1842 H 0.11861 0.4835 0.47272 0.0
H1843 H 0.1169 0.47928 0.57825 0.0
H1844 H 0.16483 0.48146 0.67464 0.0
C1845 C 0.14118 0.45238 0.86351 0.0
C1846 C 0.11791 0.45725 0.73116 0.0
C1847 C 0.14059 0.45063 0.92454 0.0
C1848 C 0.12794 0.48051 0.49533 0.0
C1849 C 0.12684 0.47788 0.5557 0.0
C1850 C 0.1516 0.47446 0.68928 0.0
C1851 C 0.13127 0.45886 0.83405 0.0
C1852 C 0.13299 0.46212 0.77031 0.0
C1853 C 0.13835 0.47342 0.58633 0.0
C1854 C 0.13652 0.46959 0.64989 0.0
H1855 H 0.11183 0.46533 0.95201 0.0
H1856 H 0.1126 0.46809 0.84533 0.0
H1857 H 0.16175 0.47488 0.77789 0.0
H1858 H 0.16242 0.47361 0.47207 0.0
H1859 H 0.16032 0.46863 0.57683 0.0
C1860 C 0.57995 0.70211 0.88547 0.0
C1861 C 0.56538 0.68902 0.91149 0.0
C1862 C 0.58073 0.70105 0.824 0.0
C1863 C 0.56239 0.66871 0.69135 0.0
H1864 H 0.58112 0.71056 0.60525 0.0
C1865 C 0.55595 0.66516 0.43561 0.0
C1866 C 0.57035 0.67776 0.40761 0.0
C1867 C 0.55606 0.66645 0.49734 0.0
C1868 C 0.57608 0.69878 0.62876 0.0
H1869 H 0.54 0.6648 0.8938 0.0
H1870 H 0.54114 0.66307 0.78635 0.0
H1871 H 0.57936 0.71327 0.71199 0.0
H1872 H 0.59633 0.70138 0.42203 0.0
H1873 H 0.59662 0.70359 0.53029 0.0
H1874 H 0.55899 0.6542 0.60807 0.0
C1875 C 0.55214 0.67401 0.81339 0.0
C1876 C 0.57503 0.70032 0.68998 0.0
C1877 C 0.5514 0.67506 0.87487 0.0
C1878 C 0.58505 0.69149 0.44255 0.0
C1879 C 0.58515 0.69282 0.50443 0.0
C1880 C 0.5634 0.66716 0.63017 0.0
C1881 C 0.56692 0.68687 0.78721 0.0
C1882 C 0.5681 0.68529 0.72203 0.0
C1883 C 0.57057 0.68039 0.53253 0.0
C1884 C 0.57018 0.68216 0.59805 0.0
H1885 H 0.59097 0.71297 0.91274 0.0
H1886 H 0.59239 0.71108 0.80552 0.0
H1887 H 0.55731 0.6569 0.71474 0.0
H1888 H 0.5444 0.65448 0.40972 0.0
H1889 H 0.54452 0.65677 0.51738 0.0
C1890 C 0.32719 0.453 0.9052 0.0
C1891 C 0.34143 0.45486 0.94293 0.0
C1892 C 0.32884 0.45478 0.84448 0.0
C1893 C 0.36371 0.474 0.73861 0.0
H1894 H 0.3234 0.44915 0.62034 0.0
C1895 C 0.36964 0.47453 0.48496 0.0
C1896 C 0.35742 0.47723 0.45084 0.0
C1897 C 0.36794 0.47216 0.54532 0.0
C1898 C 0.33474 0.45628 0.65301 0.0
H1899 H 0.36814 0.459 0.94669 0.0
H1900 H 0.37077 0.46127 0.84056 0.0
H1901 H 0.3196 0.44281 0.72377 0.0
H1902 H 0.33397 0.4798 0.45297 0.0
H1903 H 0.33084 0.47542 0.55848 0.0
H1904 H 0.3789 0.4871 0.66716 0.0
C1905 C 0.35856 0.45913 0.85774 0.0
C1906 C 0.33258 0.45269 0.71241 0.0
C1907 C 0.357 0.45763 0.91854 0.0
C1908 C 0.34363 0.47783 0.47835 0.0
C1909 C 0.34176 0.47519 0.53853 0.0
C1910 C 0.36591 0.47739 0.67912 0.0
C1911 C 0.34468 0.45821 0.82001 0.0
C1912 C 0.34702 0.46155 0.75618 0.0
C1913 C 0.35381 0.47217 0.5725 0.0
C1914 C 0.35144 0.46864 0.63574 0.0
H1915 H 0.31509 0.451 0.923 0.0
H1916 H 0.31792 0.45417 0.81729 0.0
H1917 H 0.37508 0.48142 0.77091 0.0
H1918 H 0.38035 0.47393 0.46477 0.0
H1919 H 0.37736 0.46977 0.57032 0.0
C1920 C 0.57674 0.89094 0.85664 0.0
C1921 C 0.56503 0.89417 0.88802 0.0
C1922 C 0.57818 0.89359 0.79633 0.0
C1923 C 0.55573 0.90015 0.66309 0.0
H1924 H 0.60265 0.92036 0.60665 0.0
C1925 C 0.5691 0.9243 0.42877 0.0
C1926 C 0.57881 0.91862 0.39571 0.0
C1927 C 0.56814 0.92229 0.4896 0.0
C1928 C 0.58944 0.91462 0.62163 0.0
H1929 H 0.5454 0.90243 0.88078 0.0
H1930 H 0.54808 0.90738 0.77602 0.0
H1931 H 0.5989 0.91409 0.7101 0.0
H1932 H 0.59576 0.9071 0.40072 0.0
H1933 H 0.59431 0.90381 0.50703 0.0
H1934 H 0.54636 0.90091 0.5746 0.0
C1935 C 0.55597 0.90248 0.79739 0.0
C1936 C 0.58725 0.91092 0.68096 0.0
C1937 C 0.55445 0.89969 0.85759 0.0
C1938 C 0.58822 0.91165 0.42514 0.0
C1939 C 0.5874 0.90978 0.48606 0.0
C1940 C 0.55796 0.90398 0.6039 0.0
C1941 C 0.56804 0.8997 0.76603 0.0
C1942 C 0.57034 0.90357 0.70255 0.0
C1943 C 0.57702 0.91471 0.51878 0.0
C1944 C 0.57483 0.91122 0.58236 0.0
H1945 H 0.58506 0.88666 0.87897 0.0
H1946 H 0.58734 0.89094 0.77358 0.0
H1947 H 0.54247 0.89424 0.6776 0.0
H1948 H 0.56168 0.92968 0.40724 0.0
H1949 H 0.56025 0.92645 0.51368 0.0
C1950 C 0.14786 0.70197 0.47061 0.0
C1951 C 0.13987 0.68582 0.43531 0.0
C1952 C 0.14609 0.70227 0.5315 0.0
C1953 C 0.13543 0.67492 0.65746 0.0
H1954 H 0.12216 0.70777 0.72566 0.0
C1955 C 0.11757 0.67284 0.89825 0.0
C1956 C 0.12532 0.68925 0.9319 0.0
C1957 C 0.1178 0.67204 0.83663 0.0
C1958 C 0.126 0.69862 0.7074 0.0
H1959 H 0.12431 0.65732 0.43562 0.0
H1960 H 0.12133 0.65782 0.54204 0.0
H1961 H 0.12709 0.70752 0.62074 0.0
H1962 H 0.13863 0.71763 0.92797 0.0
H1963 H 0.13927 0.7163 0.82058 0.0
H1964 H 0.13462 0.66617 0.74408 0.0
C1965 C 0.12896 0.67024 0.52286 0.0
C1966 C 0.12886 0.69851 0.64739 0.0
C1967 C 0.13063 0.66996 0.46199 0.0
C1968 C 0.13253 0.70481 0.90291 0.0
C1969 C 0.13283 0.70403 0.84137 0.0
C1970 C 0.13266 0.67509 0.71751 0.0
C1971 C 0.13642 0.68641 0.55805 0.0
C1972 C 0.13364 0.68669 0.62188 0.0
C1973 C 0.12585 0.68765 0.80767 0.0
C1974 C 0.12794 0.68696 0.74321 0.0
H1975 H 0.15504 0.71439 0.45097 0.0
H1976 H 0.15218 0.71491 0.55775 0.0
H1977 H 0.13928 0.66579 0.63909 0.0
H1978 H 0.11184 0.66064 0.91966 0.0
H1979 H 0.11198 0.65921 0.8118 0.0
loop_
_geom_bond_atom_site_label_1
_geom_bond_atom_site_label_2
_geom_bond_distance
_geom_bond_site_symmetry_2
_ccdc_geom_bond_type
Dy0 O4 2.398 . S
Dy0 O5 2.491 . S
Dy0 O6 2.403 . S
Dy0 O7 2.664 . S
Dy0 O11 2.326 . S
Dy0 O15 2.310 1_455 S
Dy0 O16 2.351 . S
C1 O12 1.185 1_455 S
C1 O13 1.355 . S
C2 O4 1.185 . S
C2 O5 1.355 . S
Dy3 O7 2.310 . S
Dy3 O10 2.351 1_455 S
Dy3 O12 2.398 1_455 S
Dy3 O13 2.491 . S
Dy3 O14 2.403 1_455 S
Dy3 O15 2.664 1_455 S
Dy3 O17 2.326 . S
O4 Dy0 2.398 . S
O4 C2 1.185 . S
O5 Dy0 2.491 . S
O5 C2 1.355 . S
O6 Dy0 2.403 . S
O6 C8 1.254 . S
O7 Dy0 2.664 . S
O7 Dy3 2.310 . S
O7 C8 1.268 . S
C8 O6 1.254 . S
C8 O7 1.268 . S
C9 O14 1.254 . S
C9 O15 1.268 . S
O10 Dy3 2.351 1_655 S
O10 C18 1.249 . S
O11 Dy0 2.326 . S
O11 C18 1.267 1_455 S
O12 C1 1.185 1_655 S
O12 Dy3 2.398 1_655 S
O13 C1 1.355 . S
O13 Dy3 2.491 . S
O14 Dy3 2.403 1_655 S
O14 C9 1.254 . S
O15 Dy0 2.310 1_655 S
O15 Dy3 2.664 1_655 S
O15 C9 1.268 . S
O16 Dy0 2.351 . S
O16 C19 1.249 . S
O17 Dy3 2.326 . S
O17 C19 1.267 . S
C18 O10 1.249 . S
C18 O11 1.267 1_655 S
C19 O16 1.249 . S
C19 O17 1.267 . S
Dy20 O24 2.398 . S
Dy20 O25 2.491 . S
Dy20 O26 2.403 . S
Dy20 O27 2.664 . S
Dy20 O31 2.326 . S
Dy20 O35 2.310 . S
Dy20 O36 2.351 . S
C21 O32 1.185 . S
C21 O33 1.355 . S
C22 O24 1.185 . S
C22 O25 1.355 . S
Dy23 O27 2.310 . S
Dy23 O30 2.351 . S
Dy23 O32 2.398 . S
Dy23 O33 2.491 . S
Dy23 O34 2.403 . S
Dy23 O35 2.664 . S
Dy23 O37 2.326 . S
O24 Dy20 2.398 . S
O24 C22 1.185 . S
O25 Dy20 2.491 . S
O25 C22 1.355 . S
O26 Dy20 2.403 . S
O26 C28 1.254 . S
O27 Dy20 2.664 . S
O27 Dy23 2.310 . S
O27 C28 1.268 . S
C28 O26 1.254 . S
C28 O27 1.268 . S
C29 O34 1.254 . S
C29 O35 1.268 . S
O30 Dy23 2.351 . S
O30 C38 1.249 . S
O31 Dy20 2.326 . S
O31 C38 1.267 . S
O32 C21 1.185 . S
O32 Dy23 2.398 . S
O33 C21 1.355 . S
O33 Dy23 2.491 . S
O34 Dy23 2.403 . S
O34 C29 1.254 . S
O35 Dy20 2.310 . S
O35 Dy23 2.664 . S
O35 C29 1.268 . S
O36 Dy20 2.351 . S
O36 C39 1.249 . S
O37 Dy23 2.326 . S
O37 C39 1.267 . S
C38 O30 1.249 . S
C38 O31 1.267 . S
C39 O36 1.249 . S
C39 O37 1.267 . S
Dy40 O44 2.391 . S
Dy40 O45 2.491 . S
Dy40 O46 2.403 1_545 S
Dy40 O47 2.664 1_545 S
Dy40 O51 2.326 . S
Dy40 O55 2.310 . S
Dy40 O56 2.351 1_545 S
C41 O52 1.185 . S
C41 O53 1.355 1_545 S
C42 O44 1.230 . S
C42 O45 1.355 . S
Dy43 O47 2.310 1_545 S
Dy43 O50 2.351 . S
Dy43 O52 2.398 . S
Dy43 O53 2.491 1_545 S
Dy43 O54 2.403 . S
Dy43 O55 2.664 . S
Dy43 O57 2.326 . S
O44 Dy40 2.391 . S
O44 C42 1.230 . S
O45 Dy40 2.491 . S
O45 C42 1.355 . S
O46 Dy40 2.403 1_565 S
O46 C48 1.254 . S
O47 Dy40 2.664 1_565 S
O47 Dy43 2.310 1_565 S
O47 C48 1.268 . S
C48 O46 1.254 . S
C48 O47 1.268 . S
C49 O54 1.254 . S
C49 O55 1.268 . S
O50 Dy43 2.351 . S
O50 C58 1.249 . S
O51 Dy40 2.326 . S
O51 C58 1.267 . S
O52 C41 1.185 . S
O52 Dy43 2.398 . S
O53 C41 1.355 1_565 S
O53 Dy43 2.491 1_565 S
O54 Dy43 2.403 . S
O54 C49 1.254 . S
O55 Dy40 2.310 . S
O55 Dy43 2.664 . S
O55 C49 1.268 . S
O56 Dy40 2.351 1_565 S
O56 C59 1.249 . S
O57 Dy43 2.326 . S
O57 C59 1.267 1_545 S
C58 O50 1.249 . S
C58 O51 1.267 . S
C59 O56 1.249 . S
C59 O57 1.267 1_565 S
Dy60 O64 2.398 . S
Dy60 O65 2.491 . S
Dy60 O66 2.403 . S
Dy60 O67 2.664 . S
Dy60 O71 2.326 . S
Dy60 O75 2.310 1_455 S
Dy60 O76 2.351 . S
C61 O72 1.185 1_455 S
C61 O73 1.355 . S
C62 O64 1.185 . S
C62 O65 1.355 . S
Dy63 O67 2.360 . S
Dy63 O70 2.344 1_455 S
Dy63 O72 2.382 1_455 S
Dy63 O73 2.529 . S
Dy63 O74 2.347 1_455 S
Dy63 O75 2.643 1_455 S
Dy63 O77 2.334 . S
O64 Dy60 2.398 . S
O64 C62 1.185 . S
O65 Dy60 2.491 . S
O65 C62 1.355 . S
O66 Dy60 2.403 . S
O66 C68 1.254 . S
O67 Dy60 2.664 . S
O67 Dy63 2.360 . S
O67 C68 1.268 . S
C68 O66 1.254 . S
C68 O67 1.268 . S
C69 O74 1.254 . S
C69 O75 1.268 . S
O70 Dy63 2.344 1_655 S
O70 C78 1.249 . S
O71 Dy60 2.326 . S
O71 C78 1.267 1_455 S
O72 C61 1.185 1_655 S
O72 Dy63 2.382 1_655 S
O73 C61 1.355 . S
O73 Dy63 2.529 . S
O74 Dy63 2.347 1_655 S
O74 C69 1.254 . S
O75 Dy60 2.310 1_655 S
O75 Dy63 2.643 1_655 S
O75 C69 1.268 . S
O76 Dy60 2.351 . S
O76 C79 1.249 . S
O77 Dy63 2.334 . S
O77 C79 1.267 . S
C78 O70 1.249 . S
C78 O71 1.267 1_655 S
C79 O76 1.249 . S
C79 O77 1.267 . S
Dy80 O84 2.398 . S
Dy80 O85 2.491 . S
Dy80 O86 2.403 . S
Dy80 O87 2.664 . S
Dy80 O91 2.326 . S
Dy80 O95 2.310 . S
Dy80 O96 2.351 . S
C81 O92 1.185 . S
C81 O93 1.355 . S
C82 O84 1.185 . S
C82 O85 1.355 . S
Dy83 O87 2.310 . S
Dy83 O90 2.351 . S
Dy83 O92 2.398 . S
Dy83 O93 2.491 . S
Dy83 O94 2.403 . S
Dy83 O95 2.664 . S
Dy83 O97 2.326 . S
O84 Dy80 2.398 . S
O84 C82 1.185 . S
O85 Dy80 2.491 . S
O85 C82 1.355 . S
O86 Dy80 2.403 . S
O86 C88 1.254 . S
O87 Dy80 2.664 . S
O87 Dy83 2.310 . S
O87 C88 1.268 . S
C88 O86 1.254 . S
C88 O87 1.268 . S
C89 O94 1.254 . S
C89 O95 1.268 . S
O90 Dy83 2.351 . S
O90 C98 1.249 . S
O91 Dy80 2.326 . S
O91 C98 1.267 . S
O92 C81 1.185 . S
O92 Dy83 2.398 . S
O93 C81 1.355 . S
O93 Dy83 2.491 . S
O94 Dy83 2.403 . S
O94 C89 1.254 . S
O95 Dy80 2.310 . S
O95 Dy83 2.664 . S
O95 C89 1.268 . S
O96 Dy80 2.351 . S
O96 C99 1.249 . S
O97 Dy83 2.326 . S
O97 C99 1.267 . S
C98 O90 1.249 . S
C98 O91 1.267 . S
C99 O96 1.249 . S
C99 O97 1.267 . S
Dy100 O104 2.398 . S
Dy100 O105 2.491 . S
Dy100 O106 2.403 1_545 S
Dy100 O107 2.668 1_545 S
Dy100 O111 2.326 . S
Dy100 O115 2.310 . S
Dy100 O116 2.351 1_545 S
C101 O112 1.185 . S
C101 O113 1.354 1_545 S
C102 O104 1.185 . S
C102 O105 1.355 . S
Dy103 O107 2.296 1_545 S
Dy103 O110 2.351 . S
Dy103 O112 2.398 . S
Dy103 O113 2.488 1_545 S
Dy103 O114 2.403 . S
Dy103 O115 2.664 . S
Dy103 O117 2.326 . S
O104 Dy100 2.398 . S
O104 C102 1.185 . S
O105 Dy100 2.491 . S
O105 C102 1.355 . S
O106 Dy100 2.403 1_565 S
O106 C108 1.254 . S
O107 Dy100 2.668 1_565 S
O107 Dy103 2.296 1_565 S
O107 C108 1.276 . S
C108 O106 1.254 . S
C108 O107 1.276 . S
C109 O114 1.254 . S
C109 O115 1.268 . S
O110 Dy103 2.351 . S
O110 C118 1.249 . S
O111 Dy100 2.326 . S
O111 C118 1.267 . S
O112 C101 1.185 . S
O112 Dy103 2.398 . S
O113 C101 1.354 1_565 S
O113 Dy103 2.488 1_565 S
O114 Dy103 2.403 . S
O114 C109 1.254 . S
O115 Dy100 2.310 . S
O115 Dy103 2.664 . S
O115 C109 1.268 . S
O116 Dy100 2.351 1_565 S
O116 C119 1.249 . S
O117 Dy103 2.326 . S
O117 C119 1.267 1_545 S
C118 O110 1.249 . S
C118 O111 1.267 . S
C119 O116 1.249 . S
C119 O117 1.267 1_565 S
Dy120 O124 2.398 . S
Dy120 O125 2.491 . S
Dy120 O126 2.403 . S
Dy120 O127 2.664 . S
Dy120 O131 2.326 . S
Dy120 O135 2.310 . S
Dy120 O136 2.351 . S
C121 O132 1.185 . S
C121 O133 1.355 . S
C122 O124 1.185 . S
C122 O125 1.355 . S
Dy123 O127 2.310 . S
Dy123 O130 2.351 . S
Dy123 O132 2.398 . S
Dy123 O133 2.491 . S
Dy123 O134 2.403 . S
Dy123 O135 2.664 . S
Dy123 O137 2.326 . S
O124 Dy120 2.398 . S
O124 C122 1.185 . S
O125 Dy120 2.491 . S
O125 C122 1.355 . S
O126 Dy120 2.403 . S
O126 C128 1.254 . S
O127 Dy120 2.664 . S
O127 Dy123 2.310 . S
O127 C128 1.268 . S
C128 O126 1.254 . S
C128 O127 1.268 . S
C129 O134 1.254 . S
C129 O135 1.268 . S
O130 Dy123 2.351 . S
O130 C138 1.249 . S
O131 Dy120 2.326 . S
O131 C138 1.267 . S
O132 C121 1.185 . S
O132 Dy123 2.398 . S
O133 C121 1.355 . S
O133 Dy123 2.491 . S
O134 Dy123 2.403 . S
O134 C129 1.254 . S
O135 Dy120 2.310 . S
O135 Dy123 2.664 . S
O135 C129 1.268 . S
O136 Dy120 2.351 . S
O136 C139 1.249 . S
O137 Dy123 2.326 . S
O137 C139 1.267 . S
C138 O130 1.249 . S
C138 O131 1.267 . S
C139 O136 1.249 . S
C139 O137 1.267 . S
Dy140 O144 2.398 . S
Dy140 O145 2.491 . S
Dy140 O146 2.403 . S
Dy140 O147 2.664 . S
Dy140 O151 2.326 . S
Dy140 O155 2.310 . S
Dy140 O156 2.351 . S
C141 O152 1.185 . S
C141 O153 1.355 . S
C142 O144 1.185 . S
C142 O145 1.355 . S
Dy143 O147 2.310 . S
Dy143 O150 2.351 . S
Dy143 O152 2.398 . S
Dy143 O153 2.491 . S
Dy143 O154 2.403 . S
Dy143 O155 2.664 . S
Dy143 O157 2.326 . S
O144 Dy140 2.398 . S
O144 C142 1.185 . S
O145 Dy140 2.491 . S
O145 C142 1.355 . S
O146 Dy140 2.403 . S
O146 C148 1.254 . S
O147 Dy140 2.664 . S
O147 Dy143 2.310 . S
O147 C148 1.268 . S
C148 O146 1.254 . S
C148 O147 1.268 . S
C149 O154 1.254 . S
C149 O155 1.268 . S
O150 Dy143 2.351 . S
O150 C158 1.249 . S
O151 Dy140 2.326 . S
O151 C158 1.267 . S
O152 C141 1.185 . S
O152 Dy143 2.398 . S
O153 C141 1.355 . S
O153 Dy143 2.491 . S
O154 Dy143 2.403 . S
O154 C149 1.254 . S
O155 Dy140 2.310 . S
O155 Dy143 2.664 . S
O155 C149 1.268 . S
O156 Dy140 2.351 . S
O156 C159 1.249 . S
O157 Dy143 2.326 . S
O157 C159 1.267 . S
C158 O150 1.249 . S
C158 O151 1.267 . S
C159 O156 1.249 . S
C159 O157 1.267 . S
Dy160 O164 2.398 . S
Dy160 O165 2.491 . S
Dy160 O166 2.403 . S
Dy160 O167 2.664 . S
Dy160 O171 2.326 . S
Dy160 O175 2.310 . S
Dy160 O176 2.351 . S
C161 O172 1.185 . S
C161 O173 1.355 . S
C162 O164 1.185 . S
C162 O165 1.355 . S
Dy163 O167 2.310 . S
Dy163 O170 2.351 . S
Dy163 O172 2.398 . S
Dy163 O173 2.491 . S
Dy163 O174 2.403 . S
Dy163 O175 2.664 . S
Dy163 O177 2.326 . S
O164 Dy160 2.398 . S
O164 C162 1.185 . S
O165 Dy160 2.491 . S
O165 C162 1.355 . S
O166 Dy160 2.403 . S
O166 C168 1.254 . S
O167 Dy160 2.664 . S
O167 Dy163 2.310 . S
O167 C168 1.268 . S
C168 O166 1.254 . S
C168 O167 1.268 . S
C169 O174 1.254 . S
C169 O175 1.268 . S
O170 Dy163 2.351 . S
O170 C178 1.249 . S
O171 Dy160 2.326 . S
O171 C178 1.267 . S
O172 C161 1.185 . S
O172 Dy163 2.398 . S
O173 C161 1.355 . S
O173 Dy163 2.491 . S
O174 Dy163 2.403 . S
O174 C169 1.254 . S
O175 Dy160 2.310 . S
O175 Dy163 2.664 . S
O175 C169 1.268 . S
O176 Dy160 2.351 . S
O176 C179 1.249 . S
O177 Dy163 2.326 . S
O177 C179 1.267 . S
C178 O170 1.249 . S
C178 O171 1.267 . S
C179 O176 1.249 . S
C179 O177 1.267 . S
Dy180 O184 2.398 . S
Dy180 O185 2.491 . S
Dy180 O186 2.403 . S
Dy180 O187 2.664 . S
Dy180 O191 2.326 . S
Dy180 O195 2.310 . S
Dy180 O196 2.351 . S
C181 O192 1.185 . S
C181 O193 1.355 . S
C182 O184 1.185 . S
C182 O185 1.355 . S
Dy183 O187 2.310 . S
Dy183 O190 2.351 . S
Dy183 O192 2.398 . S
Dy183 O193 2.491 . S
Dy183 O194 2.403 . S
Dy183 O195 2.664 . S
Dy183 O197 2.326 . S
O184 Dy180 2.398 . S
O184 C182 1.185 . S
O185 Dy180 2.491 . S
O185 C182 1.355 . S
O186 Dy180 2.403 . S
O186 C188 1.254 . S
O187 Dy180 2.664 . S
O187 Dy183 2.310 . S
O187 C188 1.268 . S
C188 O186 1.254 . S
C188 O187 1.268 . S
C189 O194 1.254 . S
C189 O195 1.268 . S
O190 Dy183 2.351 . S
O190 C198 1.249 . S
O191 Dy180 2.326 . S
O191 C198 1.267 . S
O192 C181 1.185 . S
O192 Dy183 2.398 . S
O193 C181 1.355 . S
O193 Dy183 2.491 . S
O194 Dy183 2.403 . S
O194 C189 1.254 . S
O195 Dy180 2.310 . S
O195 Dy183 2.664 . S
O195 C189 1.268 . S
O196 Dy180 2.351 . S
O196 C199 1.249 . S
O197 Dy183 2.326 . S
O197 C199 1.267 . S
C198 O190 1.249 . S
C198 O191 1.267 . S
C199 O196 1.249 . S
C199 O197 1.267 . S
Dy200 O204 2.402 . S
Dy200 O205 2.491 . S
Dy200 O206 2.403 . S
Dy200 O207 2.664 . S
Dy200 O211 2.326 . S
Dy200 O215 2.310 . S
Dy200 O216 2.351 . S
C201 O212 1.185 . S
C201 O213 1.355 . S
C202 O204 1.183 1_554 S
C202 O205 1.355 1_554 S
Dy203 O207 2.310 . S
Dy203 O210 2.351 . S
Dy203 O212 2.398 . S
Dy203 O213 2.491 . S
Dy203 O214 2.403 . S
Dy203 O215 2.664 . S
Dy203 O217 2.326 . S
O204 Dy200 2.402 . S
O204 C202 1.183 1_556 S
O205 Dy200 2.491 . S
O205 C202 1.355 1_556 S
O206 Dy200 2.403 . S
O206 C208 1.254 . S
O207 Dy200 2.664 . S
O207 Dy203 2.310 . S
O207 C208 1.268 . S
C208 O206 1.254 . S
C208 O207 1.268 . S
C209 O214 1.254 . S
C209 O215 1.268 . S
O210 Dy203 2.351 . S
O210 C218 1.249 . S
O211 Dy200 2.326 . S
O211 C218 1.267 . S
O212 C201 1.185 . S
O212 Dy203 2.398 . S
O213 C201 1.355 . S
O213 Dy203 2.491 . S
O214 Dy203 2.403 . S
O214 C209 1.254 . S
O215 Dy200 2.310 . S
O215 Dy203 2.664 . S
O215 C209 1.268 . S
O216 Dy200 2.351 . S
O216 C219 1.249 . S
O217 Dy203 2.326 . S
O217 C219 1.267 . S
C218 O210 1.249 . S
C218 O211 1.267 . S
C219 O216 1.249 . S
C219 O217 1.267 . S
Dy220 O224 2.398 . S
Dy220 O225 2.491 . S
Dy220 O226 2.403 . S
Dy220 O227 2.664 . S
Dy220 O231 2.326 . S
Dy220 O235 2.310 . S
Dy220 O236 2.351 . S
C221 O232 1.185 . S
C221 O233 1.355 . S
C222 O224 1.185 . S
C222 O225 1.355 . S
Dy223 O227 2.310 . S
Dy223 O230 2.351 . S
Dy223 O232 2.398 . S
Dy223 O233 2.491 . S
Dy223 O234 2.403 . S
Dy223 O235 2.664 . S
Dy223 O237 2.326 . S
O224 Dy220 2.398 . S
O224 C222 1.185 . S
O225 Dy220 2.491 . S
O225 C222 1.355 . S
O226 Dy220 2.403 . S
O226 C228 1.254 . S
O227 Dy220 2.664 . S
O227 Dy223 2.310 . S
O227 C228 1.268 . S
C228 O226 1.254 . S
C228 O227 1.268 . S
C229 O234 1.254 . S
C229 O235 1.268 . S
O230 Dy223 2.351 . S
O230 C238 1.249 . S
O231 Dy220 2.326 . S
O231 C238 1.267 . S
O232 C221 1.185 . S
O232 Dy223 2.398 . S
O233 C221 1.355 . S
O233 Dy223 2.491 . S
O234 Dy223 2.403 . S
O234 C229 1.254 . S
O235 Dy220 2.310 . S
O235 Dy223 2.664 . S
O235 C229 1.268 . S
O236 Dy220 2.351 . S
O236 C239 1.249 . S
O237 Dy223 2.326 . S
O237 C239 1.267 . S
C238 O230 1.249 . S
C238 O231 1.267 . S
C239 O236 1.249 . S
C239 O237 1.267 . S
Dy240 O244 2.398 . S
Dy240 O245 2.491 . S
Dy240 O246 2.403 . S
Dy240 O247 2.664 . S
Dy240 O251 2.326 . S
Dy240 O255 2.310 . S
Dy240 O256 2.351 . S
C241 O252 1.185 . S
C241 O253 1.355 . S
C242 O244 1.185 . S
C242 O245 1.355 . S
Dy243 O247 2.310 . S
Dy243 O250 2.351 . S
Dy243 O252 2.398 1_554 S
Dy243 O253 2.491 1_554 S
Dy243 O254 2.403 . S
Dy243 O255 2.664 . S
Dy243 O257 2.326 . S
O244 Dy240 2.398 . S
O244 C242 1.185 . S
O245 Dy240 2.491 . S
O245 C242 1.355 . S
O246 Dy240 2.403 . S
O246 C248 1.254 . S
O247 Dy240 2.664 . S
O247 Dy243 2.310 . S
O247 C248 1.268 . S
C248 O246 1.254 . S
C248 O247 1.268 . S
C249 O254 1.254 . S
C249 O255 1.268 . S
O250 Dy243 2.351 . S
O250 C258 1.249 . S
O251 Dy240 2.326 . S
O251 C258 1.267 . S
O252 C241 1.185 . S
O252 Dy243 2.398 1_556 S
O253 C241 1.355 . S
O253 Dy243 2.491 1_556 S
O254 Dy243 2.403 . S
O254 C249 1.254 . S
O255 Dy240 2.310 . S
O255 Dy243 2.664 . S
O255 C249 1.268 . S
O256 Dy240 2.351 . S
O256 C259 1.249 . S
O257 Dy243 2.326 . S
O257 C259 1.267 . S
C258 O250 1.249 . S
C258 O251 1.267 . S
C259 O256 1.249 . S
C259 O257 1.267 . S
Dy260 O264 2.398 1_554 S
Dy260 O265 2.491 1_554 S
Dy260 O266 2.403 . S
Dy260 O267 2.664 . S
Dy260 O271 2.326 . S
Dy260 O275 2.310 . S
Dy260 O276 2.351 . S
C261 O272 1.185 . S
C261 O273 1.355 . S
C262 O264 1.185 . S
C262 O265 1.355 . S
Dy263 O267 2.310 . S
Dy263 O270 2.351 . S
Dy263 O272 2.398 . S
Dy263 O273 2.491 . S
Dy263 O274 2.403 . S
Dy263 O275 2.664 . S
Dy263 O277 2.326 . S
O264 Dy260 2.398 1_556 S
O264 C262 1.185 . S
O265 Dy260 2.491 1_556 S
O265 C262 1.355 . S
O266 Dy260 2.403 . S
O266 C268 1.254 . S
O267 Dy260 2.664 . S
O267 Dy263 2.310 . S
O267 C268 1.268 . S
C268 O266 1.254 . S
C268 O267 1.268 . S
C269 O274 1.254 . S
C269 O275 1.268 . S
O270 Dy263 2.351 . S
O270 C278 1.249 . S
O271 Dy260 2.326 . S
O271 C278 1.267 . S
O272 C261 1.185 . S
O272 Dy263 2.398 . S
O273 C261 1.355 . S
O273 Dy263 2.491 . S
O274 Dy263 2.403 . S
O274 C269 1.254 . S
O275 Dy260 2.310 . S
O275 Dy263 2.664 . S
O275 C269 1.268 . S
O276 Dy260 2.351 . S
O276 C279 1.249 . S
O277 Dy263 2.326 . S
O277 C279 1.267 . S
C278 O270 1.249 . S
C278 O271 1.267 . S
C279 O276 1.249 . S
C279 O277 1.267 . S
Dy280 O284 2.398 . S
Dy280 O285 2.491 . S
Dy280 O286 2.403 . S
Dy280 O287 2.664 . S
Dy280 O291 2.326 . S
Dy280 O295 2.310 . S
Dy280 O296 2.351 . S
C281 O292 1.177 1_556 S
C281 O293 1.344 1_556 S
C282 O284 1.185 . S
C282 O285 1.355 . S
Dy283 O287 2.310 . S
Dy283 O290 2.351 . S
Dy283 O292 2.398 . S
Dy283 O293 2.491 . S
Dy283 O294 2.403 . S
Dy283 O295 2.664 . S
Dy283 O297 2.326 . S
O284 Dy280 2.398 . S
O284 C282 1.185 . S
O285 Dy280 2.491 . S
O285 C282 1.355 . S
O286 Dy280 2.403 . S
O286 C288 1.254 . S
O287 Dy280 2.664 . S
O287 Dy283 2.310 . S
O287 C288 1.268 . S
C288 O286 1.254 . S
C288 O287 1.268 . S
C289 O294 1.254 . S
C289 O295 1.268 . S
O290 Dy283 2.351 . S
O290 C298 1.249 . S
O291 Dy280 2.326 . S
O291 C298 1.267 . S
O292 C281 1.177 1_554 S
O292 Dy283 2.398 . S
O293 C281 1.344 1_554 S
O293 Dy283 2.491 . S
O294 Dy283 2.403 . S
O294 C289 1.254 . S
O295 Dy280 2.310 . S
O295 Dy283 2.664 . S
O295 C289 1.268 . S
O296 Dy280 2.351 . S
O296 C299 1.249 . S
O297 Dy283 2.326 . S
O297 C299 1.267 . S
C298 O290 1.249 . S
C298 O291 1.267 . S
C299 O296 1.249 . S
C299 O297 1.267 . S
Dy300 O304 2.398 . S
Dy300 O305 2.491 . S
Dy300 O306 2.403 . S
Dy300 O307 2.664 . S
Dy300 O311 2.326 . S
Dy300 O315 2.310 . S
Dy300 O316 2.351 . S
C301 O312 1.185 1_556 S
C301 O313 1.355 1_556 S
C302 O304 1.185 . S
C302 O305 1.355 . S
Dy303 O307 2.310 . S
Dy303 O310 2.351 . S
Dy303 O312 2.398 . S
Dy303 O313 2.491 . S
Dy303 O314 2.403 . S
Dy303 O315 2.664 . S
Dy303 O317 2.326 . S
O304 Dy300 2.398 . S
O304 C302 1.185 . S
O305 Dy300 2.491 . S
O305 C302 1.355 . S
O306 Dy300 2.403 . S
O306 C308 1.254 . S
O307 Dy300 2.664 . S
O307 Dy303 2.310 . S
O307 C308 1.268 . S
C308 O306 1.254 . S
C308 O307 1.268 . S
C309 O314 1.254 . S
C309 O315 1.268 . S
O310 Dy303 2.351 . S
O310 C318 1.249 . S
O311 Dy300 2.326 . S
O311 C318 1.267 . S
O312 C301 1.185 1_554 S
O312 Dy303 2.398 . S
O313 C301 1.355 1_554 S
O313 Dy303 2.491 . S
O314 Dy303 2.403 . S
O314 C309 1.254 . S
O315 Dy300 2.310 . S
O315 Dy303 2.664 . S
O315 C309 1.268 . S
O316 Dy300 2.351 . S
O316 C319 1.249 . S
O317 Dy303 2.326 . S
O317 C319 1.267 . S
C318 O310 1.249 . S
C318 O311 1.267 . S
C319 O316 1.249 . S
C319 O317 1.267 . S
Dy320 O324 2.398 . S
Dy320 O325 2.491 . S
Dy320 O326 2.403 . S
Dy320 O327 2.664 . S
Dy320 O331 2.326 . S
Dy320 O335 2.310 . S
Dy320 O336 2.351 . S
C321 O332 1.185 . S
C321 O333 1.355 . S
C322 O324 1.185 . S
C322 O325 1.355 . S
Dy323 O327 2.310 . S
Dy323 O330 2.351 . S
Dy323 O332 2.398 . S
Dy323 O333 2.491 . S
Dy323 O334 2.403 . S
Dy323 O335 2.664 . S
Dy323 O337 2.326 . S
O324 Dy320 2.398 . S
O324 C322 1.185 . S
O325 Dy320 2.491 . S
O325 C322 1.355 . S
O326 Dy320 2.403 . S
O326 C328 1.254 . S
O327 Dy320 2.664 . S
O327 Dy323 2.310 . S
O327 C328 1.268 . S
C328 O326 1.254 . S
C328 O327 1.268 . S
C329 O334 1.254 . S
C329 O335 1.268 . S
O330 Dy323 2.351 . S
O330 C338 1.249 . S
O331 Dy320 2.326 . S
O331 C338 1.267 . S
O332 C321 1.185 . S
O332 Dy323 2.398 . S
O333 C321 1.355 . S
O333 Dy323 2.491 . S
O334 Dy323 2.403 . S
O334 C329 1.254 . S
O335 Dy320 2.310 . S
O335 Dy323 2.664 . S
O335 C329 1.268 . S
O336 Dy320 2.351 . S
O336 C339 1.249 . S
O337 Dy323 2.326 . S
O337 C339 1.267 . S
C338 O330 1.249 . S
C338 O331 1.267 . S
C339 O336 1.249 . S
C339 O337 1.267 . S
Dy340 O344 2.398 . S
Dy340 O345 2.491 . S
Dy340 O346 2.403 . S
Dy340 O347 2.664 . S
Dy340 O351 2.326 . S
Dy340 O355 2.310 . S
Dy340 O356 2.351 . S
C341 O352 1.185 . S
C341 O353 1.355 . S
C342 O344 1.185 . S
C342 O345 1.355 . S
Dy343 O347 2.310 . S
Dy343 O350 2.351 . S
Dy343 O352 2.398 . S
Dy343 O353 2.491 . S
Dy343 O354 2.403 . S
Dy343 O355 2.664 . S
Dy343 O357 2.326 . S
O344 Dy340 2.398 . S
O344 C342 1.185 . S
O345 Dy340 2.491 . S
O345 C342 1.355 . S
O346 Dy340 2.403 . S
O346 C348 1.254 . S
O347 Dy340 2.664 . S
O347 Dy343 2.310 . S
O347 C348 1.268 . S
C348 O346 1.254 . S
C348 O347 1.268 . S
C349 O354 1.254 . S
C349 O355 1.268 . S
O350 Dy343 2.351 . S
O350 C358 1.249 . S
O351 Dy340 2.326 . S
O351 C358 1.267 . S
O352 C341 1.185 . S
O352 Dy343 2.398 . S
O353 C341 1.355 . S
O353 Dy343 2.491 . S
O354 Dy343 2.403 . S
O354 C349 1.254 . S
O355 Dy340 2.310 . S
O355 Dy343 2.664 . S
O355 C349 1.268 . S
O356 Dy340 2.351 . S
O356 C359 1.249 . S
O357 Dy343 2.326 . S
O357 C359 1.267 . S
C358 O350 1.249 . S
C358 O351 1.267 . S
C359 O356 1.249 . S
C359 O357 1.267 . S
C360 C361 1.349 . S
C360 C362 1.327 . S
C360 H385 0.950 . S
C361 C360 1.349 . S
C361 C377 1.349 . S
C362 C360 1.327 . S
C362 C381 1.429 . S
C362 H386 0.950 . S
C363 C380 1.574 . S
C363 C382 1.368 . S
C363 H387 0.949 . S
H364 C368 0.949 . S
C365 C366 1.349 . S
C365 C367 1.327 . S
C365 H388 0.950 . S
C366 C365 1.349 . S
C366 C378 1.349 . S
C367 C365 1.327 . S
C367 C383 1.429 . S
C367 H389 0.950 . S
C368 H364 0.949 . S
C368 C376 1.574 . S
C368 C384 1.368 . S
H369 C377 0.950 . S
H370 C375 0.950 . S
H371 C376 0.949 . S
H372 C378 0.950 . S
H373 C379 0.950 . S
H374 C380 0.949 . S
C375 H370 0.950 . S
C375 C377 1.327 . S
C375 C381 1.429 . S
C376 C368 1.574 . S
C376 H371 0.949 . S
C376 C382 1.368 . S
C377 C361 1.349 . S
C377 H369 0.950 . S
C377 C375 1.327 . S
C378 C366 1.349 . S
C378 H372 0.950 . S
C378 C379 1.327 . S
C379 H373 0.950 . S
C379 C378 1.327 . S
C379 C383 1.429 . S
C380 C363 1.574 . S
C380 H374 0.949 . S
C380 C384 1.368 . S
C381 C362 1.429 . S
C381 C375 1.429 . S
C381 C382 1.523 . S
C382 C363 1.368 . S
C382 C376 1.368 . S
C382 C381 1.523 . S
C383 C367 1.429 . S
C383 C379 1.429 . S
C383 C384 1.523 . S
C384 C368 1.368 . S
C384 C380 1.368 . S
C384 C383 1.523 . S
H385 C360 0.950 . S
H386 C362 0.950 . S
H387 C363 0.949 . S
H388 C365 0.950 . S
H389 C367 0.950 . S
C390 C391 1.349 . S
C390 C392 1.327 . S
C390 H415 0.950 . S
C391 C390 1.349 . S
C391 C407 1.349 . S
C392 C390 1.327 . S
C392 C411 1.429 . S
C392 H416 0.950 . S
C393 C410 1.574 . S
C393 C412 1.368 . S
C393 H417 0.949 . S
H394 C398 0.949 . S
C395 C396 1.349 . S
C395 C397 1.327 . S
C395 H418 0.950 . S
C396 C395 1.349 . S
C396 C408 1.349 . S
C397 C395 1.327 . S
C397 C413 1.429 . S
C397 H419 0.950 . S
C398 H394 0.949 . S
C398 C406 1.574 . S
C398 C414 1.368 . S
H399 C407 0.950 . S
H400 C405 0.950 . S
H401 C406 0.949 . S
H402 C408 0.950 . S
H403 C409 0.950 . S
H404 C410 0.949 . S
C405 H400 0.950 . S
C405 C407 1.327 . S
C405 C411 1.429 . S
C406 C398 1.574 . S
C406 H401 0.949 . S
C406 C412 1.368 . S
C407 C391 1.349 . S
C407 H399 0.950 . S
C407 C405 1.327 . S
C408 C396 1.349 . S
C408 H402 0.950 . S
C408 C409 1.327 . S
C409 H403 0.950 . S
C409 C408 1.327 . S
C409 C413 1.429 . S
C410 C393 1.574 . S
C410 H404 0.949 . S
C410 C414 1.368 . S
C411 C392 1.429 . S
C411 C405 1.429 . S
C411 C412 1.523 . S
C412 C393 1.368 . S
C412 C406 1.368 . S
C412 C411 1.523 . S
C413 C397 1.429 . S
C413 C409 1.429 . S
C413 C414 1.523 . S
C414 C398 1.368 . S
C414 C410 1.368 . S
C414 C413 1.523 . S
H415 C390 0.950 . S
H416 C392 0.950 . S
H417 C393 0.949 . S
H418 C395 0.950 . S
H419 C397 0.950 . S
C420 C421 1.349 . S
C420 C422 1.327 . S
C420 H445 0.950 . S
C421 C420 1.349 . S
C421 C437 1.349 . S
C422 C420 1.327 . S
C422 C441 1.429 . S
C422 H446 0.950 . S
C423 C440 1.574 . S
C423 C442 1.368 . S
C423 H447 0.949 . S
H424 C428 0.949 . S
C425 C426 1.349 . S
C425 C427 1.327 . S
C425 H448 0.950 . S
C426 C425 1.349 . S
C426 C438 1.349 . S
C427 C425 1.327 . S
C427 C443 1.429 . S
C427 H449 0.950 . S
C428 H424 0.949 . S
C428 C436 1.574 . S
C428 C444 1.368 . S
H429 C437 0.950 . S
H430 C435 0.950 . S
H431 C436 0.949 . S
H432 C438 0.950 . S
H433 C439 0.950 . S
H434 C440 0.949 . S
C435 H430 0.950 . S
C435 C437 1.327 . S
C435 C441 1.429 . S
C436 C428 1.574 . S
C436 H431 0.949 . S
C436 C442 1.368 . S
C437 C421 1.349 . S
C437 H429 0.950 . S
C437 C435 1.327 . S
C438 C426 1.349 . S
C438 H432 0.950 . S
C438 C439 1.327 . S
C439 H433 0.950 . S
C439 C438 1.327 . S
C439 C443 1.429 . S
C440 C423 1.574 . S
C440 H434 0.949 . S
C440 C444 1.368 . S
C441 C422 1.429 . S
C441 C435 1.429 . S
C441 C442 1.523 . S
C442 C423 1.368 . S
C442 C436 1.368 . S
C442 C441 1.523 . S
C443 C427 1.429 . S
C443 C439 1.429 . S
C443 C444 1.523 . S
C444 C428 1.368 . S
C444 C440 1.368 . S
C444 C443 1.523 . S
H445 C420 0.950 . S
H446 C422 0.950 . S
H447 C423 0.949 . S
H448 C425 0.950 . S
H449 C427 0.950 . S
C450 C451 1.349 . S
C450 C452 1.327 . S
C450 H475 0.950 . S
C451 C450 1.349 . S
C451 C467 1.349 . S
C452 C450 1.327 . S
C452 C471 1.429 . S
C452 H476 0.950 . S
C453 C470 1.574 . S
C453 C472 1.368 . S
C453 H477 0.949 . S
H454 C458 0.949 . S
C455 C456 1.349 . S
C455 C457 1.327 . S
C455 H478 0.950 . S
C456 C455 1.349 . S
C456 C468 1.349 . S
C457 C455 1.327 . S
C457 C473 1.429 . S
C457 H479 0.950 . S
C458 H454 0.949 . S
C458 C466 1.574 . S
C458 C474 1.368 . S
H459 C467 0.950 . S
H460 C465 0.950 . S
H461 C466 0.949 . S
H462 C468 0.950 . S
H463 C469 0.950 . S
H464 C470 0.949 . S
C465 H460 0.950 . S
C465 C467 1.327 . S
C465 C471 1.429 . S
C466 C458 1.574 . S
C466 H461 0.949 . S
C466 C472 1.368 . S
C467 C451 1.349 . S
C467 H459 0.950 . S
C467 C465 1.327 . S
C468 C456 1.349 . S
C468 H462 0.950 . S
C468 C469 1.327 . S
C469 H463 0.950 . S
C469 C468 1.327 . S
C469 C473 1.429 . S
C470 C453 1.574 . S
C470 H464 0.949 . S
C470 C474 1.368 . S
C471 C452 1.429 . S
C471 C465 1.429 . S
C471 C472 1.523 . S
C472 C453 1.368 . S
C472 C466 1.368 . S
C472 C471 1.523 . S
C473 C457 1.429 . S
C473 C469 1.429 . S
C473 C474 1.523 . S
C474 C458 1.368 . S
C474 C470 1.368 . S
C474 C473 1.523 . S
H475 C450 0.950 . S
H476 C452 0.950 . S
H477 C453 0.949 . S
H478 C455 0.950 . S
H479 C457 0.950 . S
C480 C481 1.349 . S
C480 C482 1.327 . S
C480 H505 0.950 . S
C481 C480 1.349 . S
C481 C497 1.349 . S
C482 C480 1.327 . S
C482 C501 1.429 . S
C482 H506 0.950 . S
C483 C500 1.574 . S
C483 C502 1.368 . S
C483 H507 0.949 . S
H484 C488 0.949 . S
C485 C486 1.349 . S
C485 C487 1.327 . S
C485 H508 0.950 . S
C486 C485 1.349 . S
C486 C498 1.349 . S
C487 C485 1.327 . S
C487 C503 1.429 . S
C487 H509 0.950 . S
C488 H484 0.949 . S
C488 C496 1.574 . S
C488 C504 1.368 . S
H489 C497 0.950 . S
H490 C495 0.950 . S
H491 C496 0.949 . S
H492 C498 0.950 . S
H493 C499 0.950 . S
H494 C500 0.949 . S
C495 H490 0.950 . S
C495 C497 1.327 . S
C495 C501 1.429 . S
C496 C488 1.574 . S
C496 H491 0.949 . S
C496 C502 1.368 . S
C497 C481 1.349 . S
C497 H489 0.950 . S
C497 C495 1.327 . S
C498 C486 1.349 . S
C498 H492 0.950 . S
C498 C499 1.327 . S
C499 H493 0.950 . S
C499 C498 1.327 . S
C499 C503 1.429 . S
C500 C483 1.574 . S
C500 H494 0.949 . S
C500 C504 1.368 . S
C501 C482 1.429 . S
C501 C495 1.429 . S
C501 C502 1.523 . S
C502 C483 1.368 . S
C502 C496 1.368 . S
C502 C501 1.523 . S
C503 C487 1.429 . S
C503 C499 1.429 . S
C503 C504 1.523 . S
C504 C488 1.368 . S
C504 C500 1.368 . S
C504 C503 1.523 . S
H505 C480 0.950 . S
H506 C482 0.950 . S
H507 C483 0.949 . S
H508 C485 0.950 . S
H509 C487 0.950 . S
C510 C511 1.349 . S
C510 C512 1.327 . S
C510 H535 0.950 . S
C511 C510 1.349 . S
C511 C527 1.349 . S
C512 C510 1.327 . S
C512 C531 1.429 . S
C512 H536 0.950 . S
C513 C530 1.574 . S
C513 C532 1.368 . S
C513 H537 0.949 . S
H514 C518 0.949 . S
C515 C516 1.349 . S
C515 C517 1.327 . S
C515 H538 0.950 . S
C516 C515 1.349 . S
C516 C528 1.349 . S
C517 C515 1.327 . S
C517 C533 1.429 . S
C517 H539 0.950 . S
C518 H514 0.949 . S
C518 C526 1.574 . S
C518 C534 1.368 . S
H519 C527 0.950 . S
H520 C525 0.950 . S
H521 C526 0.949 . S
H522 C528 0.950 . S
H523 C529 0.950 . S
H524 C530 0.949 . S
C525 H520 0.950 . S
C525 C527 1.327 . S
C525 C531 1.429 . S
C526 C518 1.574 . S
C526 H521 0.949 . S
C526 C532 1.368 . S
C527 C511 1.349 . S
C527 H519 0.950 . S
C527 C525 1.327 . S
C528 C516 1.349 . S
C528 H522 0.950 . S
C528 C529 1.327 . S
C529 H523 0.950 . S
C529 C528 1.327 . S
C529 C533 1.429 . S
C530 C513 1.574 . S
C530 H524 0.949 . S
C530 C534 1.368 . S
C531 C512 1.429 . S
C531 C525 1.429 . S
C531 C532 1.523 . S
C532 C513 1.368 . S
C532 C526 1.368 . S
C532 C531 1.523 . S
C533 C517 1.429 . S
C533 C529 1.429 . S
C533 C534 1.523 . S
C534 C518 1.368 . S
C534 C530 1.368 . S
C534 C533 1.523 . S
H535 C510 0.950 . S
H536 C512 0.950 . S
H537 C513 0.949 . S
H538 C515 0.950 . S
H539 C517 0.950 . S
C540 C541 1.349 . S
C540 C542 1.327 . S
C540 H565 0.950 . S
C541 C540 1.349 . S
C541 C557 1.349 . S
C542 C540 1.327 . S
C542 C561 1.429 . S
C542 H566 0.950 . S
C543 C560 1.574 . S
C543 C562 1.368 . S
C543 H567 0.949 . S
H544 C548 0.949 . S
C545 C546 1.349 . S
C545 C547 1.327 . S
C545 H568 0.950 . S
C546 C545 1.349 . S
C546 C558 1.349 . S
C547 C545 1.327 . S
C547 C563 1.429 . S
C547 H569 0.950 . S
C548 H544 0.949 . S
C548 C556 1.574 . S
C548 C564 1.368 . S
H549 C557 0.950 . S
H550 C555 0.950 . S
H551 C556 0.949 . S
H552 C558 0.950 . S
H553 C559 0.950 . S
H554 C560 0.949 . S
C555 H550 0.950 . S
C555 C557 1.327 . S
C555 C561 1.429 . S
C556 C548 1.574 . S
C556 H551 0.949 . S
C556 C562 1.368 . S
C557 C541 1.349 . S
C557 H549 0.950 . S
C557 C555 1.327 . S
C558 C546 1.349 . S
C558 H552 0.950 . S
C558 C559 1.327 . S
C559 H553 0.950 . S
C559 C558 1.327 . S
C559 C563 1.429 . S
C560 C543 1.574 . S
C560 H554 0.949 . S
C560 C564 1.368 . S
C561 C542 1.429 . S
C561 C555 1.429 . S
C561 C562 1.523 . S
C562 C543 1.368 . S
C562 C556 1.368 . S
C562 C561 1.523 . S
C563 C547 1.429 . S
C563 C559 1.429 . S
C563 C564 1.523 . S
C564 C548 1.368 . S
C564 C560 1.368 . S
C564 C563 1.523 . S
H565 C540 0.950 . S
H566 C542 0.950 . S
H567 C543 0.949 . S
H568 C545 0.950 . S
H569 C547 0.950 . S
C570 C571 1.349 . S
C570 C572 1.327 . S
C570 H595 0.950 . S
C571 C570 1.349 . S
C571 C587 1.349 . S
C572 C570 1.327 . S
C572 C591 1.429 . S
C572 H596 0.950 . S
C573 C590 1.574 . S
C573 C592 1.368 . S
C573 H597 0.949 . S
H574 C578 0.949 . S
C575 C576 1.349 . S
C575 C577 1.327 . S
C575 H598 0.950 . S
C576 C575 1.349 . S
C576 C588 1.349 . S
C577 C575 1.327 . S
C577 C593 1.429 . S
C577 H599 0.950 . S
C578 H574 0.949 . S
C578 C586 1.574 . S
C578 C594 1.368 . S
H579 C587 0.950 . S
H580 C585 0.950 . S
H581 C586 0.949 . S
H582 C588 0.950 . S
H583 C589 0.950 . S
H584 C590 0.949 . S
C585 H580 0.950 . S
C585 C587 1.327 . S
C585 C591 1.429 . S
C586 C578 1.574 . S
C586 H581 0.949 . S
C586 C592 1.368 . S
C587 C571 1.349 . S
C587 H579 0.950 . S
C587 C585 1.327 . S
C588 C576 1.349 . S
C588 H582 0.950 . S
C588 C589 1.327 . S
C589 H583 0.950 . S
C589 C588 1.327 . S
C589 C593 1.429 . S
C590 C573 1.574 . S
C590 H584 0.949 . S
C590 C594 1.368 . S
C591 C572 1.429 . S
C591 C585 1.429 . S
C591 C592 1.523 . S
C592 C573 1.368 . S
C592 C586 1.368 . S
C592 C591 1.523 . S
C593 C577 1.429 . S
C593 C589 1.429 . S
C593 C594 1.523 . S
C594 C578 1.368 . S
C594 C590 1.368 . S
C594 C593 1.523 . S
H595 C570 0.950 . S
H596 C572 0.950 . S
H597 C573 0.949 . S
H598 C575 0.950 . S
H599 C577 0.950 . S
C600 C601 1.349 . S
C600 C602 1.327 . S
C600 H625 0.950 . S
C601 C600 1.349 . S
C601 C617 1.349 . S
C602 C600 1.327 . S
C602 C621 1.429 . S
C602 H626 0.950 . S
C603 C620 1.574 . S
C603 C622 1.368 . S
C603 H627 0.949 . S
H604 C608 0.949 . S
C605 C606 1.349 . S
C605 C607 1.327 . S
C605 H628 0.950 . S
C606 C605 1.349 . S
C606 C618 1.349 . S
C607 C605 1.327 . S
C607 C623 1.429 . S
C607 H629 0.950 . S
C608 H604 0.949 . S
C608 C616 1.574 . S
C608 C624 1.368 . S
H609 C617 0.950 . S
H610 C615 0.950 . S
H611 C616 0.949 . S
H612 C618 0.950 . S
H613 C619 0.950 . S
H614 C620 0.949 . S
C615 H610 0.950 . S
C615 C617 1.327 . S
C615 C621 1.429 . S
C616 C608 1.574 . S
C616 H611 0.949 . S
C616 C622 1.368 . S
C617 C601 1.349 . S
C617 H609 0.950 . S
C617 C615 1.327 . S
C618 C606 1.349 . S
C618 H612 0.950 . S
C618 C619 1.327 . S
C619 H613 0.950 . S
C619 C618 1.327 . S
C619 C623 1.429 . S
C620 C603 1.574 . S
C620 H614 0.949 . S
C620 C624 1.368 . S
C621 C602 1.429 . S
C621 C615 1.429 . S
C621 C622 1.523 . S
C622 C603 1.368 . S
C622 C616 1.368 . S
C622 C621 1.523 . S
C623 C607 1.429 . S
C623 C619 1.429 . S
C623 C624 1.523 . S
C624 C608 1.368 . S
C624 C620 1.368 . S
C624 C623 1.523 . S
H625 C600 0.950 . S
H626 C602 0.950 . S
H627 C603 0.949 . S
H628 C605 0.950 . S
H629 C607 0.950 . S
C630 C631 1.349 . S
C630 C632 1.327 . S
C630 H655 0.950 . S
C631 C630 1.349 . S
C631 C647 1.349 . S
C632 C630 1.327 . S
C632 C651 1.429 . S
C632 H656 0.950 . S
C633 C650 1.574 . S
C633 C652 1.368 . S
C633 H657 0.949 . S
H634 C638 0.949 . S
C635 C636 1.349 . S
C635 C637 1.327 . S
C635 H658 0.950 . S
C636 C635 1.349 . S
C636 C648 1.349 . S
C637 C635 1.327 . S
C637 C653 1.429 . S
C637 H659 0.950 . S
C638 H634 0.949 . S
C638 C646 1.574 . S
C638 C654 1.368 . S
H639 C647 0.950 . S
H640 C645 0.950 . S
H641 C646 0.949 . S
H642 C648 0.950 . S
H643 C649 0.950 . S
H644 C650 0.949 . S
C645 H640 0.950 . S
C645 C647 1.327 . S
C645 C651 1.429 . S
C646 C638 1.574 . S
C646 H641 0.949 . S
C646 C652 1.368 . S
C647 C631 1.349 . S
C647 H639 0.950 . S
C647 C645 1.327 . S
C648 C636 1.349 . S
C648 H642 0.950 . S
C648 C649 1.327 . S
C649 H643 0.950 . S
C649 C648 1.327 . S
C649 C653 1.429 . S
C650 C633 1.574 . S
C650 H644 0.949 . S
C650 C654 1.368 . S
C651 C632 1.429 . S
C651 C645 1.429 . S
C651 C652 1.523 . S
C652 C633 1.368 . S
C652 C646 1.368 . S
C652 C651 1.523 . S
C653 C637 1.429 . S
C653 C649 1.429 . S
C653 C654 1.523 . S
C654 C638 1.368 . S
C654 C650 1.368 . S
C654 C653 1.523 . S
H655 C630 0.950 . S
H656 C632 0.950 . S
H657 C633 0.949 . S
H658 C635 0.950 . S
H659 C637 0.950 . S
C660 C661 1.349 . S
C660 C662 1.327 . S
C660 H685 0.950 . S
C661 C660 1.349 . S
C661 C677 1.349 . S
C662 C660 1.327 . S
C662 C681 1.429 . S
C662 H686 0.950 . S
C663 C680 1.574 . S
C663 C682 1.368 . S
C663 H687 0.949 . S
H664 C668 0.949 . S
C665 C666 1.349 . S
C665 C667 1.327 . S
C665 H688 0.950 . S
C666 C665 1.349 . S
C666 C678 1.349 . S
C667 C665 1.327 . S
C667 C683 1.429 . S
C667 H689 0.950 . S
C668 H664 0.949 . S
C668 C676 1.574 . S
C668 C684 1.368 . S
H669 C677 0.950 . S
H670 C675 0.950 . S
H671 C676 0.949 . S
H672 C678 0.950 . S
H673 C679 0.950 . S
H674 C680 0.949 . S
C675 H670 0.950 . S
C675 C677 1.327 . S
C675 C681 1.429 . S
C676 C668 1.574 . S
C676 H671 0.949 . S
C676 C682 1.368 . S
C677 C661 1.349 . S
C677 H669 0.950 . S
C677 C675 1.327 . S
C678 C666 1.349 . S
C678 H672 0.950 . S
C678 C679 1.327 . S
C679 H673 0.950 . S
C679 C678 1.327 . S
C679 C683 1.429 . S
C680 C663 1.574 . S
C680 H674 0.949 . S
C680 C684 1.368 . S
C681 C662 1.429 . S
C681 C675 1.429 . S
C681 C682 1.523 . S
C682 C663 1.368 . S
C682 C676 1.368 . S
C682 C681 1.523 . S
C683 C667 1.429 . S
C683 C679 1.429 . S
C683 C684 1.523 . S
C684 C668 1.368 . S
C684 C680 1.368 . S
C684 C683 1.523 . S
H685 C660 0.950 . S
H686 C662 0.950 . S
H687 C663 0.949 . S
H688 C665 0.950 . S
H689 C667 0.950 . S
C690 C691 1.349 . S
C690 C692 1.327 . S
C690 H715 0.950 . S
C691 C690 1.349 . S
C691 C707 1.349 . S
C692 C690 1.327 . S
C692 C711 1.429 . S
C692 H716 0.950 . S
C693 C710 1.574 . S
C693 C712 1.368 . S
C693 H717 0.949 . S
H694 C698 0.949 . S
C695 C696 1.349 . S
C695 C697 1.327 . S
C695 H718 0.950 . S
C696 C695 1.349 . S
C696 C708 1.349 . S
C697 C695 1.327 . S
C697 C713 1.429 . S
C697 H719 0.950 . S
C698 H694 0.949 . S
C698 C706 1.574 . S
C698 C714 1.368 . S
H699 C707 0.950 . S
H700 C705 0.950 . S
H701 C706 0.949 . S
H702 C708 0.950 . S
H703 C709 0.950 . S
H704 C710 0.949 . S
C705 H700 0.950 . S
C705 C707 1.327 . S
C705 C711 1.429 . S
C706 C698 1.574 . S
C706 H701 0.949 . S
C706 C712 1.368 . S
C707 C691 1.349 . S
C707 H699 0.950 . S
C707 C705 1.327 . S
C708 C696 1.349 . S
C708 H702 0.950 . S
C708 C709 1.327 . S
C709 H703 0.950 . S
C709 C708 1.327 . S
C709 C713 1.429 . S
C710 C693 1.574 . S
C710 H704 0.949 . S
C710 C714 1.368 . S
C711 C692 1.429 . S
C711 C705 1.429 . S
C711 C712 1.523 . S
C712 C693 1.368 . S
C712 C706 1.368 . S
C712 C711 1.523 . S
C713 C697 1.429 . S
C713 C709 1.429 . S
C713 C714 1.523 . S
C714 C698 1.368 . S
C714 C710 1.368 . S
C714 C713 1.523 . S
H715 C690 0.950 . S
H716 C692 0.950 . S
H717 C693 0.949 . S
H718 C695 0.950 . S
H719 C697 0.950 . S
C720 C721 1.349 . S
C720 C722 1.327 . S
C720 H745 0.950 . S
C721 C720 1.349 . S
C721 C737 1.349 . S
C722 C720 1.327 . S
C722 C741 1.429 . S
C722 H746 0.950 . S
C723 C740 1.574 . S
C723 C742 1.368 1_455 S
C723 H747 0.951 1_455 S
H724 C728 0.949 . S
C725 C726 1.349 . S
C725 C727 1.327 . S
C725 H748 0.950 . S
C726 C725 1.349 . S
C726 C738 1.349 . S
C727 C725 1.327 . S
C727 C743 1.429 . S
C727 H749 0.950 1_554 S
C728 H724 0.949 . S
C728 C736 1.574 1_454 S
C728 C744 1.368 . S
H729 C737 0.950 . S
H730 C735 0.950 . S
H731 C736 0.949 1_554 S
H732 C738 0.950 . S
H733 C739 0.950 . S
H734 C740 0.949 . S
C735 H730 0.950 . S
C735 C737 1.327 . S
C735 C741 1.429 . S
C736 C728 1.574 1_656 S
C736 H731 0.949 1_556 S
C736 C742 1.368 . S
C737 C721 1.349 . S
C737 H729 0.950 . S
C737 C735 1.327 . S
C738 C726 1.349 . S
C738 H732 0.950 . S
C738 C739 1.327 . S
C739 H733 0.950 . S
C739 C738 1.327 . S
C739 C743 1.429 . S
C740 C723 1.574 . S
C740 H734 0.949 . S
C740 C744 1.368 1_556 S
C741 C722 1.429 . S
C741 C735 1.429 . S
C741 C742 1.523 . S
C742 C723 1.368 1_655 S
C742 C736 1.368 . S
C742 C741 1.523 . S
C743 C727 1.429 . S
C743 C739 1.429 . S
C743 C744 1.523 . S
C744 C728 1.368 . S
C744 C740 1.368 1_554 S
C744 C743 1.523 . S
H745 C720 0.950 . S
H746 C722 0.950 . S
H747 C723 0.951 1_655 S
H748 C725 0.950 . S
H749 C727 0.950 1_556 S
C750 C751 1.349 . S
C750 C752 1.327 . S
C750 H775 0.950 . S
C751 C750 1.349 . S
C751 C767 1.349 . S
C752 C750 1.327 . S
C752 C771 1.429 . S
C752 H776 0.950 . S
C753 C770 1.574 . S
C753 C772 1.368 1_554 S
C753 H777 0.949 . S
H754 C758 0.949 . S
C755 C756 1.349 . S
C755 C757 1.327 . S
C755 H778 0.950 . S
C756 C755 1.349 . S
C756 C768 1.349 . S
C757 C755 1.327 . S
C757 C773 1.429 . S
C757 H779 0.950 . S
C758 H754 0.949 . S
C758 C766 1.574 . S
C758 C774 1.368 1_556 S
H759 C767 0.950 . S
H760 C765 0.950 . S
H761 C766 0.949 . S
H762 C768 0.950 . S
H763 C769 0.950 1_556 S
H764 C770 0.949 . S
C765 H760 0.950 . S
C765 C767 1.327 . S
C765 C771 1.429 . S
C766 C758 1.574 . S
C766 H761 0.949 . S
C766 C772 1.368 . S
C767 C751 1.349 . S
C767 H759 0.950 . S
C767 C765 1.327 . S
C768 C756 1.349 . S
C768 H762 0.950 . S
C768 C769 1.327 . S
C769 H763 0.950 1_554 S
C769 C768 1.327 . S
C769 C773 1.429 . S
C770 C753 1.574 . S
C770 H764 0.949 . S
C770 C774 1.368 . S
C771 C752 1.429 . S
C771 C765 1.429 . S
C771 C772 1.523 . S
C772 C753 1.368 1_556 S
C772 C766 1.368 . S
C772 C771 1.523 . S
C773 C757 1.429 . S
C773 C769 1.429 . S
C773 C774 1.523 . S
C774 C758 1.368 1_554 S
C774 C770 1.368 . S
C774 C773 1.523 . S
H775 C750 0.950 . S
H776 C752 0.950 . S
H777 C753 0.949 . S
H778 C755 0.950 . S
H779 C757 0.950 . S
C780 C781 1.349 . S
C780 C782 1.327 . S
C780 H805 0.950 . S
C781 C780 1.349 . S
C781 C797 1.349 . S
C782 C780 1.327 . S
C782 C801 1.429 . S
C782 H806 0.950 . S
C783 C800 1.574 1_556 S
C783 C802 1.368 . S
C783 H807 0.949 . S
H784 C788 0.949 . S
C785 C786 1.349 . S
C785 C787 1.327 . S
C785 H808 0.950 . S
C786 C785 1.349 . S
C786 C798 1.349 . S
C787 C785 1.327 . S
C787 C803 1.429 . S
C787 H809 0.950 . S
C788 H784 0.949 . S
C788 C796 1.574 1_565 S
C788 C804 1.368 . S
H789 C797 0.950 . S
H790 C795 0.950 . S
H791 C796 0.949 . S
H792 C798 0.950 1_556 S
H793 C799 0.950 . S
H794 C800 0.949 . S
C795 H790 0.950 . S
C795 C797 1.327 . S
C795 C801 1.429 . S
C796 C788 1.574 1_545 S
C796 H791 0.949 . S
C796 C802 1.368 . S
C797 C781 1.349 . S
C797 H789 0.950 . S
C797 C795 1.327 . S
C798 C786 1.349 . S
C798 H792 0.950 1_554 S
C798 C799 1.327 1_554 S
C799 H793 0.950 . S
C799 C798 1.327 1_556 S
C799 C803 1.429 1_556 S
C800 C783 1.574 1_554 S
C800 H794 0.949 . S
C800 C804 1.368 1_544 S
C801 C782 1.429 . S
C801 C795 1.429 . S
C801 C802 1.523 . S
C802 C783 1.368 . S
C802 C796 1.368 . S
C802 C801 1.523 . S
C803 C787 1.429 . S
C803 C799 1.429 1_554 S
C803 C804 1.523 1_554 S
C804 C788 1.368 . S
C804 C800 1.368 1_566 S
C804 C803 1.523 1_556 S
H805 C780 0.950 . S
H806 C782 0.950 . S
H807 C783 0.949 . S
H808 C785 0.950 . S
H809 C787 0.950 . S
C810 C811 1.349 . S
C810 C812 1.327 . S
C810 H835 0.950 . S
C811 C810 1.349 . S
C811 C827 1.349 . S
C812 C810 1.327 . S
C812 C831 1.429 . S
C812 H836 0.950 . S
C813 C830 1.574 . S
C813 C832 1.368 1_554 S
C813 H837 0.949 . S
H814 C818 0.949 . S
C815 C816 1.349 . S
C815 C817 1.327 . S
C815 H838 0.950 . S
C816 C815 1.349 . S
C816 C828 1.349 . S
C817 C815 1.327 . S
C817 C833 1.429 . S
C817 H839 0.950 . S
C818 H814 0.949 . S
C818 C826 1.574 1_565 S
C818 C834 1.377 1_556 S
H819 C827 0.950 . S
H820 C825 0.939 1_554 S
H821 C826 0.949 . S
H822 C828 0.950 . S
H823 C829 0.950 . S
H824 C830 0.949 . S
C825 H820 0.939 1_556 S
C825 C827 1.327 . S
C825 C831 1.429 . S
C826 C818 1.574 1_545 S
C826 H821 0.949 . S
C826 C832 1.368 . S
C827 C811 1.349 . S
C827 H819 0.950 . S
C827 C825 1.327 . S
C828 C816 1.349 . S
C828 H822 0.950 . S
C828 C829 1.327 . S
C829 H823 0.950 . S
C829 C828 1.327 . S
C829 C833 1.429 . S
C830 C813 1.574 . S
C830 H824 0.949 . S
C830 C834 1.347 1_545 S
C831 C812 1.429 . S
C831 C825 1.429 . S
C831 C832 1.523 . S
C832 C813 1.368 1_556 S
C832 C826 1.368 . S
C832 C831 1.523 . S
C833 C817 1.429 . S
C833 C829 1.429 . S
C833 C834 1.540 . S
C834 C818 1.377 1_554 S
C834 C830 1.347 1_565 S
C834 C833 1.540 . S
H835 C810 0.950 . S
H836 C812 0.950 . S
H837 C813 0.949 . S
H838 C815 0.950 . S
H839 C817 0.950 . S
C840 C841 1.349 . S
C840 C842 1.327 . S
C840 H865 0.950 . S
C841 C840 1.349 . S
C841 C857 1.349 . S
C842 C840 1.327 . S
C842 C861 1.429 . S
C842 H866 0.950 . S
C843 C860 1.574 1_554 S
C843 C862 1.368 . S
C843 H867 0.949 . S
H844 C848 0.949 . S
C845 C846 1.349 . S
C845 C847 1.327 . S
C845 H868 0.950 . S
C846 C845 1.349 . S
C846 C858 1.349 . S
C847 C845 1.327 . S
C847 C863 1.429 . S
C847 H869 0.950 . S
C848 H844 0.949 . S
C848 C856 1.574 1_655 S
C848 C864 1.368 . S
H849 C857 0.950 . S
H850 C855 0.950 . S
H851 C856 0.949 . S
H852 C858 0.950 . S
H853 C859 0.950 1_554 S
H854 C860 0.949 . S
C855 H850 0.950 . S
C855 C857 1.327 . S
C855 C861 1.429 . S
C856 C848 1.574 1_455 S
C856 H851 0.949 . S
C856 C862 1.368 . S
C857 C841 1.349 . S
C857 H849 0.950 . S
C857 C855 1.327 . S
C858 C846 1.349 . S
C858 H852 0.950 . S
C858 C859 1.327 . S
C859 H853 0.950 1_556 S
C859 C858 1.327 . S
C859 C863 1.429 . S
C860 C843 1.574 1_556 S
C860 H854 0.949 . S
C860 C864 1.368 1_456 S
C861 C842 1.429 . S
C861 C855 1.429 . S
C861 C862 1.523 . S
C862 C843 1.368 . S
C862 C856 1.368 . S
C862 C861 1.523 . S
C863 C847 1.429 . S
C863 C859 1.429 . S
C863 C864 1.523 1_556 S
C864 C848 1.368 . S
C864 C860 1.368 1_654 S
C864 C863 1.523 1_554 S
H865 C840 0.950 . S
H866 C842 0.950 . S
H867 C843 0.949 . S
H868 C845 0.950 . S
H869 C847 0.950 . S
C870 C871 1.349 . S
C870 C872 1.327 . S
C870 H895 0.950 . S
C871 C870 1.349 . S
C871 C887 1.349 . S
C872 C870 1.327 . S
C872 C891 1.429 . S
C872 H896 0.950 . S
C873 C890 1.574 . S
C873 C892 1.368 . S
C873 H897 0.949 . S
H874 C878 0.949 . S
C875 C876 1.349 . S
C875 C877 1.327 . S
C875 H898 0.950 . S
C876 C875 1.349 . S
C876 C888 1.349 . S
C877 C875 1.327 . S
C877 C893 1.429 . S
C877 H899 0.950 . S
C878 H874 0.949 . S
C878 C886 1.574 1_556 S
C878 C894 1.368 . S
H879 C887 0.950 . S
H880 C885 0.950 . S
H881 C886 0.949 . S
H882 C888 0.950 . S
H883 C889 0.950 . S
H884 C890 0.949 . S
C885 H880 0.950 . S
C885 C887 1.327 . S
C885 C891 1.429 . S
C886 C878 1.574 1_554 S
C886 H881 0.949 . S
C886 C892 1.368 . S
C887 C871 1.349 . S
C887 H879 0.950 . S
C887 C885 1.327 . S
C888 C876 1.349 . S
C888 H882 0.950 . S
C888 C889 1.327 . S
C889 H883 0.950 . S
C889 C888 1.327 . S
C889 C893 1.429 . S
C890 C873 1.574 . S
C890 H884 0.949 . S
C890 C894 1.368 1_554 S
C891 C872 1.429 . S
C891 C885 1.429 . S
C891 C892 1.523 . S
C892 C873 1.368 . S
C892 C886 1.368 . S
C892 C891 1.523 . S
C893 C877 1.429 . S
C893 C889 1.429 . S
C893 C894 1.523 . S
C894 C878 1.368 . S
C894 C890 1.368 1_556 S
C894 C893 1.523 . S
H895 C870 0.950 . S
H896 C872 0.950 . S
H897 C873 0.949 . S
H898 C875 0.950 . S
H899 C877 0.950 . S
C900 C901 1.349 . S
C900 C902 1.327 . S
C900 H925 0.950 . S
C901 C900 1.349 . S
C901 C917 1.349 . S
C902 C900 1.327 . S
C902 C921 1.429 . S
C902 H926 0.950 . S
C903 C920 1.574 . S
C903 C922 1.368 . S
C903 H927 0.949 . S
H904 C908 0.949 . S
C905 C906 1.349 . S
C905 C907 1.327 . S
C905 H928 0.950 . S
C906 C905 1.349 . S
C906 C918 1.349 . S
C907 C905 1.327 . S
C907 C923 1.429 . S
C907 H929 0.950 . S
C908 H904 0.949 . S
C908 C916 1.574 . S
C908 C924 1.368 . S
H909 C917 0.950 . S
H910 C915 0.950 . S
H911 C916 0.949 . S
H912 C918 0.950 . S
H913 C919 0.950 . S
H914 C920 0.949 . S
C915 H910 0.950 . S
C915 C917 1.327 . S
C915 C921 1.429 . S
C916 C908 1.574 . S
C916 H911 0.949 . S
C916 C922 1.368 . S
C917 C901 1.349 . S
C917 H909 0.950 . S
C917 C915 1.327 . S
C918 C906 1.349 . S
C918 H912 0.950 . S
C918 C919 1.327 . S
C919 H913 0.950 . S
C919 C918 1.327 . S
C919 C923 1.429 . S
C920 C903 1.574 . S
C920 H914 0.949 . S
C920 C924 1.368 . S
C921 C902 1.429 . S
C921 C915 1.429 . S
C921 C922 1.523 . S
C922 C903 1.368 . S
C922 C916 1.368 . S
C922 C921 1.523 . S
C923 C907 1.429 . S
C923 C919 1.429 . S
C923 C924 1.523 . S
C924 C908 1.368 . S
C924 C920 1.368 . S
C924 C923 1.523 . S
H925 C900 0.950 . S
H926 C902 0.950 . S
H927 C903 0.949 . S
H928 C905 0.950 . S
H929 C907 0.950 . S
C930 C931 1.349 . S
C930 C932 1.327 . S
C930 H955 0.950 . S
C931 C930 1.349 . S
C931 C947 1.349 . S
C932 C930 1.327 . S
C932 C951 1.429 . S
C932 H956 0.950 . S
C933 C950 1.574 . S
C933 C952 1.368 . S
C933 H957 0.949 . S
H934 C938 0.949 . S
C935 C936 1.349 . S
C935 C937 1.327 . S
C935 H958 0.950 . S
C936 C935 1.349 . S
C936 C948 1.349 . S
C937 C935 1.327 . S
C937 C953 1.429 . S
C937 H959 0.950 . S
C938 H934 0.949 . S
C938 C946 1.574 . S
C938 C954 1.368 . S
H939 C947 0.950 . S
H940 C945 0.950 . S
H941 C946 0.949 . S
H942 C948 0.950 . S
H943 C949 0.950 . S
H944 C950 0.949 . S
C945 H940 0.950 . S
C945 C947 1.327 . S
C945 C951 1.429 . S
C946 C938 1.574 . S
C946 H941 0.949 . S
C946 C952 1.368 . S
C947 C931 1.349 . S
C947 H939 0.950 . S
C947 C945 1.327 . S
C948 C936 1.349 . S
C948 H942 0.950 . S
C948 C949 1.327 . S
C949 H943 0.950 . S
C949 C948 1.327 . S
C949 C953 1.429 . S
C950 C933 1.574 . S
C950 H944 0.949 . S
C950 C954 1.368 . S
C951 C932 1.429 . S
C951 C945 1.429 . S
C951 C952 1.523 . S
C952 C933 1.368 . S
C952 C946 1.368 . S
C952 C951 1.523 . S
C953 C937 1.429 . S
C953 C949 1.429 . S
C953 C954 1.523 . S
C954 C938 1.368 . S
C954 C950 1.368 . S
C954 C953 1.523 . S
H955 C930 0.950 . S
H956 C932 0.950 . S
H957 C933 0.949 . S
H958 C935 0.950 . S
H959 C937 0.950 . S
C960 C961 1.349 . S
C960 C962 1.327 . S
C960 H985 0.950 . S
C961 C960 1.349 . S
C961 C977 1.349 . S
C962 C960 1.327 . S
C962 C981 1.429 . S
C962 H986 0.950 . S
C963 C980 1.574 . S
C963 C982 1.368 . S
C963 H987 0.949 . S
H964 C968 0.949 . S
C965 C966 1.349 . S
C965 C967 1.327 . S
C965 H988 0.950 . S
C966 C965 1.349 . S
C966 C978 1.349 . S
C967 C965 1.327 . S
C967 C983 1.429 . S
C967 H989 0.950 . S
C968 H964 0.949 . S
C968 C976 1.574 . S
C968 C984 1.368 . S
H969 C977 0.950 . S
H970 C975 0.950 . S
H971 C976 0.949 . S
H972 C978 0.950 . S
H973 C979 0.950 . S
H974 C980 0.949 . S
C975 H970 0.950 . S
C975 C977 1.327 . S
C975 C981 1.429 . S
C976 C968 1.574 . S
C976 H971 0.949 . S
C976 C982 1.368 . S
C977 C961 1.349 . S
C977 H969 0.950 . S
C977 C975 1.327 . S
C978 C966 1.349 . S
C978 H972 0.950 . S
C978 C979 1.327 . S
C979 H973 0.950 . S
C979 C978 1.327 . S
C979 C983 1.429 . S
C980 C963 1.574 . S
C980 H974 0.949 . S
C980 C984 1.368 . S
C981 C962 1.429 . S
C981 C975 1.429 . S
C981 C982 1.523 . S
C982 C963 1.368 . S
C982 C976 1.368 . S
C982 C981 1.523 . S
C983 C967 1.429 . S
C983 C979 1.429 . S
C983 C984 1.523 . S
C984 C968 1.368 . S
C984 C980 1.368 . S
C984 C983 1.523 . S
H985 C960 0.950 . S
H986 C962 0.950 . S
H987 C963 0.949 . S
H988 C965 0.950 . S
H989 C967 0.950 . S
C990 C991 1.349 . S
C990 C992 1.327 . S
C990 H1015 0.950 . S
C991 C990 1.349 . S
C991 C1007 1.349 . S
C992 C990 1.327 . S
C992 C1011 1.429 . S
C992 H1016 0.950 . S
C993 C1010 1.574 . S
C993 C1012 1.368 . S
C993 H1017 0.949 . S
H994 C998 0.949 . S
C995 C996 1.349 . S
C995 C997 1.327 . S
C995 H1018 0.950 . S
C996 C995 1.349 . S
C996 C1008 1.349 . S
C997 C995 1.327 . S
C997 C1013 1.429 . S
C997 H1019 0.950 . S
C998 H994 0.949 . S
C998 C1006 1.574 . S
C998 C1014 1.368 . S
H999 C1007 0.950 . S
H1000 C1005 0.950 . S
H1001 C1006 0.949 . S
H1002 C1008 0.950 . S
H1003 C1009 0.950 . S
H1004 C1010 0.949 . S
C1005 H1000 0.950 . S
C1005 C1007 1.327 . S
C1005 C1011 1.429 . S
C1006 C998 1.574 . S
C1006 H1001 0.949 . S
C1006 C1012 1.368 . S
C1007 C991 1.349 . S
C1007 H999 0.950 . S
C1007 C1005 1.327 . S
C1008 C996 1.349 . S
C1008 H1002 0.950 . S
C1008 C1009 1.327 . S
C1009 H1003 0.950 . S
C1009 C1008 1.327 . S
C1009 C1013 1.429 . S
C1010 C993 1.574 . S
C1010 H1004 0.949 . S
C1010 C1014 1.368 . S
C1011 C992 1.429 . S
C1011 C1005 1.429 . S
C1011 C1012 1.523 . S
C1012 C993 1.368 . S
C1012 C1006 1.368 . S
C1012 C1011 1.523 . S
C1013 C997 1.429 . S
C1013 C1009 1.429 . S
C1013 C1014 1.523 . S
C1014 C998 1.368 . S
C1014 C1010 1.368 . S
C1014 C1013 1.523 . S
H1015 C990 0.950 . S
H1016 C992 0.950 . S
H1017 C993 0.949 . S
H1018 C995 0.950 . S
H1019 C997 0.950 . S
C1020 C1021 1.349 . S
C1020 C1022 1.327 . S
C1020 H1045 0.950 . S
C1021 C1020 1.349 . S
C1021 C1037 1.349 . S
C1022 C1020 1.327 . S
C1022 C1041 1.429 . S
C1022 H1046 0.950 . S
C1023 C1040 1.574 . S
C1023 C1042 1.368 . S
C1023 H1047 0.949 . S
H1024 C1028 0.949 . S
C1025 C1026 1.349 . S
C1025 C1027 1.327 . S
C1025 H1048 0.950 . S
C1026 C1025 1.349 . S
C1026 C1038 1.349 . S
C1027 C1025 1.327 . S
C1027 C1043 1.429 . S
C1027 H1049 0.950 . S
C1028 H1024 0.949 . S
C1028 C1036 1.574 . S
C1028 C1044 1.368 . S
H1029 C1037 0.950 . S
H1030 C1035 0.950 . S
H1031 C1036 0.949 . S
H1032 C1038 0.950 . S
H1033 C1039 0.950 . S
H1034 C1040 0.949 . S
C1035 H1030 0.950 . S
C1035 C1037 1.327 . S
C1035 C1041 1.429 . S
C1036 C1028 1.574 . S
C1036 H1031 0.949 . S
C1036 C1042 1.368 . S
C1037 C1021 1.349 . S
C1037 H1029 0.950 . S
C1037 C1035 1.327 . S
C1038 C1026 1.349 . S
C1038 H1032 0.950 . S
C1038 C1039 1.327 . S
C1039 H1033 0.950 . S
C1039 C1038 1.327 . S
C1039 C1043 1.429 . S
C1040 C1023 1.574 . S
C1040 H1034 0.949 . S
C1040 C1044 1.368 . S
C1041 C1022 1.429 . S
C1041 C1035 1.429 . S
C1041 C1042 1.523 . S
C1042 C1023 1.368 . S
C1042 C1036 1.368 . S
C1042 C1041 1.523 . S
C1043 C1027 1.429 . S
C1043 C1039 1.429 . S
C1043 C1044 1.523 . S
C1044 C1028 1.368 . S
C1044 C1040 1.368 . S
C1044 C1043 1.523 . S
H1045 C1020 0.950 . S
H1046 C1022 0.950 . S
H1047 C1023 0.949 . S
H1048 C1025 0.950 . S
H1049 C1027 0.950 . S
C1050 C1051 1.349 . S
C1050 C1052 1.327 . S
C1050 H1075 0.950 . S
C1051 C1050 1.349 . S
C1051 C1067 1.349 . S
C1052 C1050 1.327 . S
C1052 C1071 1.429 . S
C1052 H1076 0.950 . S
C1053 C1070 1.574 . S
C1053 C1072 1.368 . S
C1053 H1077 0.949 . S
H1054 C1058 0.949 . S
C1055 C1056 1.349 . S
C1055 C1057 1.327 . S
C1055 H1078 0.950 . S
C1056 C1055 1.349 . S
C1056 C1068 1.349 . S
C1057 C1055 1.327 . S
C1057 C1073 1.429 . S
C1057 H1079 0.950 . S
C1058 H1054 0.949 . S
C1058 C1066 1.574 . S
C1058 C1074 1.368 . S
H1059 C1067 0.950 . S
H1060 C1065 0.950 . S
H1061 C1066 0.949 . S
H1062 C1068 0.950 . S
H1063 C1069 0.950 . S
H1064 C1070 0.949 . S
C1065 H1060 0.950 . S
C1065 C1067 1.327 . S
C1065 C1071 1.429 . S
C1066 C1058 1.574 . S
C1066 H1061 0.949 . S
C1066 C1072 1.368 . S
C1067 C1051 1.349 . S
C1067 H1059 0.950 . S
C1067 C1065 1.327 . S
C1068 C1056 1.349 . S
C1068 H1062 0.950 . S
C1068 C1069 1.327 . S
C1069 H1063 0.950 . S
C1069 C1068 1.327 . S
C1069 C1073 1.429 . S
C1070 C1053 1.574 . S
C1070 H1064 0.949 . S
C1070 C1074 1.368 . S
C1071 C1052 1.429 . S
C1071 C1065 1.429 . S
C1071 C1072 1.523 . S
C1072 C1053 1.368 . S
C1072 C1066 1.368 . S
C1072 C1071 1.523 . S
C1073 C1057 1.429 . S
C1073 C1069 1.429 . S
C1073 C1074 1.523 . S
C1074 C1058 1.368 . S
C1074 C1070 1.368 . S
C1074 C1073 1.523 . S
H1075 C1050 0.950 . S
H1076 C1052 0.950 . S
H1077 C1053 0.949 . S
H1078 C1055 0.950 . S
H1079 C1057 0.950 . S
C1080 C1081 1.349 . S
C1080 C1082 1.327 . S
C1080 H1105 0.950 . S
C1081 C1080 1.349 . S
C1081 C1097 1.349 . S
C1082 C1080 1.327 . S
C1082 C1101 1.429 . S
C1082 H1106 0.950 . S
C1083 C1100 1.574 . S
C1083 C1102 1.368 . S
C1083 H1107 0.949 . S
H1084 C1088 0.949 . S
C1085 C1086 1.349 . S
C1085 C1087 1.327 . S
C1085 H1108 0.950 . S
C1086 C1085 1.349 . S
C1086 C1098 1.349 . S
C1087 C1085 1.327 . S
C1087 C1103 1.429 . S
C1087 H1109 0.950 . S
C1088 H1084 0.949 . S
C1088 C1096 1.574 . S
C1088 C1104 1.368 . S
H1089 C1097 0.950 . S
H1090 C1095 0.950 . S
H1091 C1096 0.949 . S
H1092 C1098 0.950 . S
H1093 C1099 0.950 . S
H1094 C1100 0.949 . S
C1095 H1090 0.950 . S
C1095 C1097 1.327 . S
C1095 C1101 1.429 . S
C1096 C1088 1.574 . S
C1096 H1091 0.949 . S
C1096 C1102 1.368 . S
C1097 C1081 1.349 . S
C1097 H1089 0.950 . S
C1097 C1095 1.327 . S
C1098 C1086 1.349 . S
C1098 H1092 0.950 . S
C1098 C1099 1.327 . S
C1099 H1093 0.950 . S
C1099 C1098 1.327 . S
C1099 C1103 1.429 . S
C1100 C1083 1.574 . S
C1100 H1094 0.949 . S
C1100 C1104 1.368 . S
C1101 C1082 1.429 . S
C1101 C1095 1.429 . S
C1101 C1102 1.523 . S
C1102 C1083 1.368 . S
C1102 C1096 1.368 . S
C1102 C1101 1.523 . S
C1103 C1087 1.429 . S
C1103 C1099 1.429 . S
C1103 C1104 1.523 . S
C1104 C1088 1.368 . S
C1104 C1100 1.368 . S
C1104 C1103 1.523 . S
H1105 C1080 0.950 . S
H1106 C1082 0.950 . S
H1107 C1083 0.949 . S
H1108 C1085 0.950 . S
H1109 C1087 0.950 . S
C1110 C1111 1.349 . S
C1110 C1112 1.327 . S
C1110 H1135 0.950 . S
C1111 C1110 1.349 . S
C1111 C1127 1.349 . S
C1112 C1110 1.327 . S
C1112 C1131 1.429 . S
C1112 H1136 0.950 . S
C1113 C1130 1.574 . S
C1113 C1132 1.368 . S
C1113 H1137 0.949 . S
H1114 C1118 0.949 . S
C1115 C1116 1.349 . S
C1115 C1117 1.327 . S
C1115 H1138 0.950 . S
C1116 C1115 1.349 . S
C1116 C1128 1.349 . S
C1117 C1115 1.327 . S
C1117 C1133 1.429 . S
C1117 H1139 0.950 . S
C1118 H1114 0.949 . S
C1118 C1126 1.574 . S
C1118 C1134 1.368 . S
H1119 C1127 0.950 . S
H1120 C1125 0.950 . S
H1121 C1126 0.949 . S
H1122 C1128 0.950 . S
H1123 C1129 0.950 . S
H1124 C1130 0.949 . S
C1125 H1120 0.950 . S
C1125 C1127 1.327 . S
C1125 C1131 1.429 . S
C1126 C1118 1.574 . S
C1126 H1121 0.949 . S
C1126 C1132 1.368 . S
C1127 C1111 1.349 . S
C1127 H1119 0.950 . S
C1127 C1125 1.327 . S
C1128 C1116 1.349 . S
C1128 H1122 0.950 . S
C1128 C1129 1.327 . S
C1129 H1123 0.950 . S
C1129 C1128 1.327 . S
C1129 C1133 1.429 . S
C1130 C1113 1.574 . S
C1130 H1124 0.949 . S
C1130 C1134 1.368 . S
C1131 C1112 1.429 . S
C1131 C1125 1.429 . S
C1131 C1132 1.523 . S
C1132 C1113 1.368 . S
C1132 C1126 1.368 . S
C1132 C1131 1.523 . S
C1133 C1117 1.429 . S
C1133 C1129 1.429 . S
C1133 C1134 1.523 . S
C1134 C1118 1.368 . S
C1134 C1130 1.368 . S
C1134 C1133 1.523 . S
H1135 C1110 0.950 . S
H1136 C1112 0.950 . S
H1137 C1113 0.949 . S
H1138 C1115 0.950 . S
H1139 C1117 0.950 . S
C1140 C1141 1.349 . S
C1140 C1142 1.327 . S
C1140 H1165 0.950 . S
C1141 C1140 1.349 . S
C1141 C1157 1.349 . S
C1142 C1140 1.327 . S
C1142 C1161 1.429 . S
C1142 H1166 0.950 . S
C1143 C1160 1.574 . S
C1143 C1162 1.368 . S
C1143 H1167 0.949 . S
H1144 C1148 0.949 . S
C1145 C1146 1.349 . S
C1145 C1147 1.327 . S
C1145 H1168 0.950 . S
C1146 C1145 1.349 . S
C1146 C1158 1.349 . S
C1147 C1145 1.327 . S
C1147 C1163 1.429 . S
C1147 H1169 0.950 . S
C1148 H1144 0.949 . S
C1148 C1156 1.574 . S
C1148 C1164 1.368 . S
H1149 C1157 0.950 . S
H1150 C1155 0.950 . S
H1151 C1156 0.949 . S
H1152 C1158 0.950 . S
H1153 C1159 0.950 . S
H1154 C1160 0.949 . S
C1155 H1150 0.950 . S
C1155 C1157 1.327 . S
C1155 C1161 1.429 . S
C1156 C1148 1.574 . S
C1156 H1151 0.949 . S
C1156 C1162 1.368 . S
C1157 C1141 1.349 . S
C1157 H1149 0.950 . S
C1157 C1155 1.327 . S
C1158 C1146 1.349 . S
C1158 H1152 0.950 . S
C1158 C1159 1.327 . S
C1159 H1153 0.950 . S
C1159 C1158 1.327 . S
C1159 C1163 1.429 . S
C1160 C1143 1.574 . S
C1160 H1154 0.949 . S
C1160 C1164 1.368 . S
C1161 C1142 1.429 . S
C1161 C1155 1.429 . S
C1161 C1162 1.523 . S
C1162 C1143 1.368 . S
C1162 C1156 1.368 . S
C1162 C1161 1.523 . S
C1163 C1147 1.429 . S
C1163 C1159 1.429 . S
C1163 C1164 1.523 . S
C1164 C1148 1.368 . S
C1164 C1160 1.368 . S
C1164 C1163 1.523 . S
H1165 C1140 0.950 . S
H1166 C1142 0.950 . S
H1167 C1143 0.949 . S
H1168 C1145 0.950 . S
H1169 C1147 0.950 . S
C1170 C1171 1.349 . S
C1170 C1172 1.327 . S
C1170 H1195 0.950 . S
C1171 C1170 1.349 . S
C1171 C1187 1.349 . S
C1172 C1170 1.327 . S
C1172 C1191 1.429 . S
C1172 H1196 0.950 . S
C1173 C1190 1.574 . S
C1173 C1192 1.368 . S
C1173 H1197 0.949 . S
H1174 C1178 0.949 . S
C1175 C1176 1.349 . S
C1175 C1177 1.327 . S
C1175 H1198 0.950 . S
C1176 C1175 1.349 . S
C1176 C1188 1.349 . S
C1177 C1175 1.327 . S
C1177 C1193 1.429 . S
C1177 H1199 0.950 . S
C1178 H1174 0.949 . S
C1178 C1186 1.574 . S
C1178 C1194 1.368 . S
H1179 C1187 0.950 . S
H1180 C1185 0.950 . S
H1181 C1186 0.949 . S
H1182 C1188 0.950 . S
H1183 C1189 0.950 . S
H1184 C1190 0.949 . S
C1185 H1180 0.950 . S
C1185 C1187 1.327 . S
C1185 C1191 1.429 . S
C1186 C1178 1.574 . S
C1186 H1181 0.949 . S
C1186 C1192 1.368 . S
C1187 C1171 1.349 . S
C1187 H1179 0.950 . S
C1187 C1185 1.327 . S
C1188 C1176 1.349 . S
C1188 H1182 0.950 . S
C1188 C1189 1.327 . S
C1189 H1183 0.950 . S
C1189 C1188 1.327 . S
C1189 C1193 1.429 . S
C1190 C1173 1.574 . S
C1190 H1184 0.949 . S
C1190 C1194 1.368 . S
C1191 C1172 1.429 . S
C1191 C1185 1.429 . S
C1191 C1192 1.523 . S
C1192 C1173 1.368 . S
C1192 C1186 1.368 . S
C1192 C1191 1.523 . S
C1193 C1177 1.429 . S
C1193 C1189 1.429 . S
C1193 C1194 1.523 . S
C1194 C1178 1.368 . S
C1194 C1190 1.368 . S
C1194 C1193 1.523 . S
H1195 C1170 0.950 . S
H1196 C1172 0.950 . S
H1197 C1173 0.949 . S
H1198 C1175 0.950 . S
H1199 C1177 0.950 . S
C1200 C1201 1.349 . S
C1200 C1202 1.327 . S
C1200 H1225 0.950 . S
C1201 C1200 1.349 . S
C1201 C1217 1.349 . S
C1202 C1200 1.327 . S
C1202 C1221 1.429 . S
C1202 H1226 0.950 . S
C1203 C1220 1.574 . S
C1203 C1222 1.368 . S
C1203 H1227 0.949 . S
H1204 C1208 0.949 . S
C1205 C1206 1.349 . S
C1205 C1207 1.327 . S
C1205 H1228 0.950 . S
C1206 C1205 1.349 . S
C1206 C1218 1.349 . S
C1207 C1205 1.327 . S
C1207 C1223 1.429 . S
C1207 H1229 0.950 . S
C1208 H1204 0.949 . S
C1208 C1216 1.574 . S
C1208 C1224 1.368 . S
H1209 C1217 0.950 . S
H1210 C1215 0.950 . S
H1211 C1216 0.949 . S
H1212 C1218 0.950 . S
H1213 C1219 0.950 . S
H1214 C1220 0.949 . S
C1215 H1210 0.950 . S
C1215 C1217 1.327 . S
C1215 C1221 1.429 . S
C1216 C1208 1.574 . S
C1216 H1211 0.949 . S
C1216 C1222 1.368 . S
C1217 C1201 1.349 . S
C1217 H1209 0.950 . S
C1217 C1215 1.327 . S
C1218 C1206 1.349 . S
C1218 H1212 0.950 . S
C1218 C1219 1.327 . S
C1219 H1213 0.950 . S
C1219 C1218 1.327 . S
C1219 C1223 1.429 . S
C1220 C1203 1.574 . S
C1220 H1214 0.949 . S
C1220 C1224 1.368 . S
C1221 C1202 1.429 . S
C1221 C1215 1.429 . S
C1221 C1222 1.523 . S
C1222 C1203 1.368 . S
C1222 C1216 1.368 . S
C1222 C1221 1.523 . S
C1223 C1207 1.429 . S
C1223 C1219 1.429 . S
C1223 C1224 1.523 . S
C1224 C1208 1.368 . S
C1224 C1220 1.368 . S
C1224 C1223 1.523 . S
H1225 C1200 0.950 . S
H1226 C1202 0.950 . S
H1227 C1203 0.949 . S
H1228 C1205 0.950 . S
H1229 C1207 0.950 . S
C1230 C1231 1.349 . S
C1230 C1232 1.327 . S
C1230 H1255 0.950 . S
C1231 C1230 1.349 . S
C1231 C1247 1.349 . S
C1232 C1230 1.327 . S
C1232 C1251 1.429 . S
C1232 H1256 0.950 . S
C1233 C1250 1.574 . S
C1233 C1252 1.368 . S
C1233 H1257 0.949 . S
H1234 C1238 0.949 . S
C1235 C1236 1.349 . S
C1235 C1237 1.327 . S
C1235 H1258 0.950 . S
C1236 C1235 1.349 . S
C1236 C1248 1.349 . S
C1237 C1235 1.327 . S
C1237 C1253 1.429 . S
C1237 H1259 0.950 . S
C1238 H1234 0.949 . S
C1238 C1246 1.574 . S
C1238 C1254 1.368 . S
H1239 C1247 0.950 . S
H1240 C1245 0.950 . S
H1241 C1246 0.949 . S
H1242 C1248 0.950 . S
H1243 C1249 0.950 . S
H1244 C1250 0.949 . S
C1245 H1240 0.950 . S
C1245 C1247 1.327 . S
C1245 C1251 1.429 . S
C1246 C1238 1.574 . S
C1246 H1241 0.949 . S
C1246 C1252 1.368 . S
C1247 C1231 1.349 . S
C1247 H1239 0.950 . S
C1247 C1245 1.327 . S
C1248 C1236 1.349 . S
C1248 H1242 0.950 . S
C1248 C1249 1.327 . S
C1249 H1243 0.950 . S
C1249 C1248 1.327 . S
C1249 C1253 1.429 . S
C1250 C1233 1.574 . S
C1250 H1244 0.949 . S
C1250 C1254 1.368 . S
C1251 C1232 1.429 . S
C1251 C1245 1.429 . S
C1251 C1252 1.523 . S
C1252 C1233 1.368 . S
C1252 C1246 1.368 . S
C1252 C1251 1.523 . S
C1253 C1237 1.429 . S
C1253 C1249 1.429 . S
C1253 C1254 1.523 . S
C1254 C1238 1.368 . S
C1254 C1250 1.368 . S
C1254 C1253 1.523 . S
H1255 C1230 0.950 . S
H1256 C1232 0.950 . S
H1257 C1233 0.949 . S
H1258 C1235 0.950 . S
H1259 C1237 0.950 . S
C1260 C1261 1.349 . S
C1260 C1262 1.327 . S
C1260 H1285 0.950 . S
C1261 C1260 1.349 . S
C1261 C1277 1.349 . S
C1262 C1260 1.327 . S
C1262 C1281 1.429 . S
C1262 H1286 0.950 . S
C1263 C1280 1.574 . S
C1263 C1282 1.368 . S
C1263 H1287 0.949 . S
H1264 C1268 0.949 . S
C1265 C1266 1.349 . S
C1265 C1267 1.327 . S
C1265 H1288 0.950 . S
C1266 C1265 1.349 . S
C1266 C1278 1.349 . S
C1267 C1265 1.327 . S
C1267 C1283 1.429 . S
C1267 H1289 0.950 . S
C1268 H1264 0.949 . S
C1268 C1276 1.574 . S
C1268 C1284 1.368 . S
H1269 C1277 0.950 . S
H1270 C1275 0.950 . S
H1271 C1276 0.949 . S
H1272 C1278 0.950 . S
H1273 C1279 0.950 . S
H1274 C1280 0.949 . S
C1275 H1270 0.950 . S
C1275 C1277 1.327 . S
C1275 C1281 1.429 . S
C1276 C1268 1.574 . S
C1276 H1271 0.949 . S
C1276 C1282 1.368 . S
C1277 C1261 1.349 . S
C1277 H1269 0.950 . S
C1277 C1275 1.327 . S
C1278 C1266 1.349 . S
C1278 H1272 0.950 . S
C1278 C1279 1.327 . S
C1279 H1273 0.950 . S
C1279 C1278 1.327 . S
C1279 C1283 1.429 . S
C1280 C1263 1.574 . S
C1280 H1274 0.949 . S
C1280 C1284 1.368 . S
C1281 C1262 1.429 . S
C1281 C1275 1.429 . S
C1281 C1282 1.523 . S
C1282 C1263 1.368 . S
C1282 C1276 1.368 . S
C1282 C1281 1.523 . S
C1283 C1267 1.429 . S
C1283 C1279 1.429 . S
C1283 C1284 1.523 . S
C1284 C1268 1.368 . S
C1284 C1280 1.368 . S
C1284 C1283 1.523 . S
H1285 C1260 0.950 . S
H1286 C1262 0.950 . S
H1287 C1263 0.949 . S
H1288 C1265 0.950 . S
H1289 C1267 0.950 . S
C1290 C1291 1.349 . S
C1290 C1292 1.327 . S
C1290 H1315 0.950 . S
C1291 C1290 1.349 . S
C1291 C1307 1.349 . S
C1292 C1290 1.327 . S
C1292 C1311 1.429 . S
C1292 H1316 0.950 . S
C1293 C1310 1.574 . S
C1293 C1312 1.368 . S
C1293 H1317 0.949 . S
H1294 C1298 0.949 . S
C1295 C1296 1.349 . S
C1295 C1297 1.327 . S
C1295 H1318 0.950 . S
C1296 C1295 1.349 . S
C1296 C1308 1.349 . S
C1297 C1295 1.327 . S
C1297 C1313 1.429 . S
C1297 H1319 0.950 . S
C1298 H1294 0.949 . S
C1298 C1306 1.574 . S
C1298 C1314 1.368 . S
H1299 C1307 0.950 . S
H1300 C1305 0.950 . S
H1301 C1306 0.949 . S
H1302 C1308 0.950 . S
H1303 C1309 0.950 . S
H1304 C1310 0.949 . S
C1305 H1300 0.950 . S
C1305 C1307 1.327 . S
C1305 C1311 1.429 . S
C1306 C1298 1.574 . S
C1306 H1301 0.949 . S
C1306 C1312 1.368 . S
C1307 C1291 1.349 . S
C1307 H1299 0.950 . S
C1307 C1305 1.327 . S
C1308 C1296 1.349 . S
C1308 H1302 0.950 . S
C1308 C1309 1.327 . S
C1309 H1303 0.950 . S
C1309 C1308 1.327 . S
C1309 C1313 1.429 . S
C1310 C1293 1.574 . S
C1310 H1304 0.949 . S
C1310 C1314 1.368 . S
C1311 C1292 1.429 . S
C1311 C1305 1.429 . S
C1311 C1312 1.523 . S
C1312 C1293 1.368 . S
C1312 C1306 1.368 . S
C1312 C1311 1.523 . S
C1313 C1297 1.429 . S
C1313 C1309 1.429 . S
C1313 C1314 1.523 . S
C1314 C1298 1.368 . S
C1314 C1310 1.368 . S
C1314 C1313 1.523 . S
H1315 C1290 0.950 . S
H1316 C1292 0.950 . S
H1317 C1293 0.949 . S
H1318 C1295 0.950 . S
H1319 C1297 0.950 . S
C1320 C1321 1.349 . S
C1320 C1322 1.327 . S
C1320 H1345 0.950 . S
C1321 C1320 1.349 . S
C1321 C1337 1.349 . S
C1322 C1320 1.327 . S
C1322 C1341 1.429 . S
C1322 H1346 0.950 . S
C1323 C1340 1.574 . S
C1323 C1342 1.368 . S
C1323 H1347 0.949 . S
H1324 C1328 0.949 . S
C1325 C1326 1.349 . S
C1325 C1327 1.327 . S
C1325 H1348 0.950 . S
C1326 C1325 1.349 . S
C1326 C1338 1.349 . S
C1327 C1325 1.327 . S
C1327 C1343 1.429 . S
C1327 H1349 0.950 . S
C1328 H1324 0.949 . S
C1328 C1336 1.574 . S
C1328 C1344 1.368 . S
H1329 C1337 0.950 . S
H1330 C1335 0.950 . S
H1331 C1336 0.949 . S
H1332 C1338 0.950 . S
H1333 C1339 0.950 . S
H1334 C1340 0.949 . S
C1335 H1330 0.950 . S
C1335 C1337 1.327 . S
C1335 C1341 1.429 . S
C1336 C1328 1.574 . S
C1336 H1331 0.949 . S
C1336 C1342 1.368 . S
C1337 C1321 1.349 . S
C1337 H1329 0.950 . S
C1337 C1335 1.327 . S
C1338 C1326 1.349 . S
C1338 H1332 0.950 . S
C1338 C1339 1.327 . S
C1339 H1333 0.950 . S
C1339 C1338 1.327 . S
C1339 C1343 1.429 . S
C1340 C1323 1.574 . S
C1340 H1334 0.949 . S
C1340 C1344 1.368 . S
C1341 C1322 1.429 . S
C1341 C1335 1.429 . S
C1341 C1342 1.523 . S
C1342 C1323 1.368 . S
C1342 C1336 1.368 . S
C1342 C1341 1.523 . S
C1343 C1327 1.429 . S
C1343 C1339 1.429 . S
C1343 C1344 1.523 . S
C1344 C1328 1.368 . S
C1344 C1340 1.368 . S
C1344 C1343 1.523 . S
H1345 C1320 0.950 . S
H1346 C1322 0.950 . S
H1347 C1323 0.949 . S
H1348 C1325 0.950 . S
H1349 C1327 0.950 . S
C1350 C1351 1.349 . S
C1350 C1352 1.327 . S
C1350 H1375 0.950 . S
C1351 C1350 1.349 . S
C1351 C1367 1.349 . S
C1352 C1350 1.327 . S
C1352 C1371 1.429 . S
C1352 H1376 0.950 . S
C1353 C1370 1.574 . S
C1353 C1372 1.368 . S
C1353 H1377 0.949 . S
H1354 C1358 0.949 . S
C1355 C1356 1.349 . S
C1355 C1357 1.327 . S
C1355 H1378 0.950 . S
C1356 C1355 1.349 . S
C1356 C1368 1.349 . S
C1357 C1355 1.327 . S
C1357 C1373 1.429 . S
C1357 H1379 0.950 . S
C1358 H1354 0.949 . S
C1358 C1366 1.574 . S
C1358 C1374 1.368 . S
H1359 C1367 0.950 . S
H1360 C1365 0.950 . S
H1361 C1366 0.949 . S
H1362 C1368 0.950 . S
H1363 C1369 0.950 . S
H1364 C1370 0.949 . S
C1365 H1360 0.950 . S
C1365 C1367 1.327 . S
C1365 C1371 1.429 . S
C1366 C1358 1.574 . S
C1366 H1361 0.949 . S
C1366 C1372 1.368 . S
C1367 C1351 1.349 . S
C1367 H1359 0.950 . S
C1367 C1365 1.327 . S
C1368 C1356 1.349 . S
C1368 H1362 0.950 . S
C1368 C1369 1.327 . S
C1369 H1363 0.950 . S
C1369 C1368 1.327 . S
C1369 C1373 1.429 . S
C1370 C1353 1.574 . S
C1370 H1364 0.949 . S
C1370 C1374 1.368 . S
C1371 C1352 1.429 . S
C1371 C1365 1.429 . S
C1371 C1372 1.523 . S
C1372 C1353 1.368 . S
C1372 C1366 1.368 . S
C1372 C1371 1.523 . S
C1373 C1357 1.429 . S
C1373 C1369 1.429 . S
C1373 C1374 1.523 . S
C1374 C1358 1.368 . S
C1374 C1370 1.368 . S
C1374 C1373 1.523 . S
H1375 C1350 0.950 . S
H1376 C1352 0.950 . S
H1377 C1353 0.949 . S
H1378 C1355 0.950 . S
H1379 C1357 0.950 . S
C1380 C1381 1.349 . S
C1380 C1382 1.327 . S
C1380 H1405 0.950 . S
C1381 C1380 1.349 . S
C1381 C1397 1.349 . S
C1382 C1380 1.327 . S
C1382 C1401 1.429 . S
C1382 H1406 0.950 . S
C1383 C1400 1.574 . S
C1383 C1402 1.368 . S
C1383 H1407 0.949 . S
H1384 C1388 0.949 . S
C1385 C1386 1.349 . S
C1385 C1387 1.327 . S
C1385 H1408 0.950 . S
C1386 C1385 1.349 . S
C1386 C1398 1.349 . S
C1387 C1385 1.327 . S
C1387 C1403 1.429 . S
C1387 H1409 0.950 . S
C1388 H1384 0.949 . S
C1388 C1396 1.574 . S
C1388 C1404 1.368 . S
H1389 C1397 0.950 . S
H1390 C1395 0.950 . S
H1391 C1396 0.949 . S
H1392 C1398 0.950 . S
H1393 C1399 0.950 . S
H1394 C1400 0.949 . S
C1395 H1390 0.950 . S
C1395 C1397 1.327 . S
C1395 C1401 1.429 . S
C1396 C1388 1.574 . S
C1396 H1391 0.949 . S
C1396 C1402 1.368 . S
C1397 C1381 1.349 . S
C1397 H1389 0.950 . S
C1397 C1395 1.327 . S
C1398 C1386 1.349 . S
C1398 H1392 0.950 . S
C1398 C1399 1.327 . S
C1399 H1393 0.950 . S
C1399 C1398 1.327 . S
C1399 C1403 1.429 . S
C1400 C1383 1.574 . S
C1400 H1394 0.949 . S
C1400 C1404 1.368 . S
C1401 C1382 1.429 . S
C1401 C1395 1.429 . S
C1401 C1402 1.523 . S
C1402 C1383 1.368 . S
C1402 C1396 1.368 . S
C1402 C1401 1.523 . S
C1403 C1387 1.429 . S
C1403 C1399 1.429 . S
C1403 C1404 1.523 . S
C1404 C1388 1.368 . S
C1404 C1400 1.368 . S
C1404 C1403 1.523 . S
H1405 C1380 0.950 . S
H1406 C1382 0.950 . S
H1407 C1383 0.949 . S
H1408 C1385 0.950 . S
H1409 C1387 0.950 . S
C1410 C1411 1.349 . S
C1410 C1412 1.327 . S
C1410 H1435 0.950 . S
C1411 C1410 1.349 . S
C1411 C1427 1.349 . S
C1412 C1410 1.327 . S
C1412 C1431 1.429 . S
C1412 H1436 0.950 . S
C1413 C1430 1.574 . S
C1413 C1432 1.368 . S
C1413 H1437 0.949 . S
H1414 C1418 0.949 . S
C1415 C1416 1.349 . S
C1415 C1417 1.327 . S
C1415 H1438 0.950 . S
C1416 C1415 1.349 . S
C1416 C1428 1.349 . S
C1417 C1415 1.327 . S
C1417 C1433 1.429 . S
C1417 H1439 0.950 . S
C1418 H1414 0.949 . S
C1418 C1426 1.574 . S
C1418 C1434 1.368 . S
H1419 C1427 0.950 . S
H1420 C1425 0.950 . S
H1421 C1426 0.949 . S
H1422 C1428 0.950 . S
H1423 C1429 0.950 . S
H1424 C1430 0.949 . S
C1425 H1420 0.950 . S
C1425 C1427 1.327 . S
C1425 C1431 1.429 . S
C1426 C1418 1.574 . S
C1426 H1421 0.949 . S
C1426 C1432 1.368 . S
C1427 C1411 1.349 . S
C1427 H1419 0.950 . S
C1427 C1425 1.327 . S
C1428 C1416 1.349 . S
C1428 H1422 0.950 . S
C1428 C1429 1.327 . S
C1429 H1423 0.950 . S
C1429 C1428 1.327 . S
C1429 C1433 1.429 . S
C1430 C1413 1.574 . S
C1430 H1424 0.949 . S
C1430 C1434 1.368 . S
C1431 C1412 1.429 . S
C1431 C1425 1.429 . S
C1431 C1432 1.523 . S
C1432 C1413 1.368 . S
C1432 C1426 1.368 . S
C1432 C1431 1.523 . S
C1433 C1417 1.429 . S
C1433 C1429 1.429 . S
C1433 C1434 1.523 . S
C1434 C1418 1.368 . S
C1434 C1430 1.368 . S
C1434 C1433 1.523 . S
H1435 C1410 0.950 . S
H1436 C1412 0.950 . S
H1437 C1413 0.949 . S
H1438 C1415 0.950 . S
H1439 C1417 0.950 . S
C1440 C1441 1.332 1_655 S
C1440 C1442 1.325 . S
C1440 H1465 0.971 . S
C1441 C1440 1.332 1_455 S
C1441 C1457 1.349 . S
C1442 C1440 1.325 . S
C1442 C1461 1.429 1_655 S
C1442 H1466 0.950 . S
C1443 C1460 1.574 1_554 S
C1443 C1462 1.368 . S
C1443 H1467 0.949 . S
H1444 C1448 0.949 . S
C1445 C1446 1.349 . S
C1445 C1447 1.327 . S
C1445 H1468 0.950 . S
C1446 C1445 1.349 . S
C1446 C1458 1.349 1_455 S
C1447 C1445 1.327 . S
C1447 C1463 1.429 . S
C1447 H1469 0.950 . S
C1448 H1444 0.949 . S
C1448 C1456 1.574 1_556 S
C1448 C1464 1.368 1_655 S
H1449 C1457 0.950 . S
H1450 C1455 0.950 . S
H1451 C1456 0.949 . S
H1452 C1458 0.950 . S
H1453 C1459 0.950 . S
H1454 C1460 0.949 . S
C1455 H1450 0.950 . S
C1455 C1457 1.327 . S
C1455 C1461 1.429 . S
C1456 C1448 1.574 1_554 S
C1456 H1451 0.949 . S
C1456 C1462 1.368 1_655 S
C1457 C1441 1.349 . S
C1457 H1449 0.950 . S
C1457 C1455 1.327 . S
C1458 C1446 1.349 1_655 S
C1458 H1452 0.950 . S
C1458 C1459 1.327 . S
C1459 H1453 0.950 . S
C1459 C1458 1.327 . S
C1459 C1463 1.429 1_655 S
C1460 C1443 1.574 1_556 S
C1460 H1454 0.949 . S
C1460 C1464 1.368 . S
C1461 C1442 1.429 1_455 S
C1461 C1455 1.429 . S
C1461 C1462 1.523 . S
C1462 C1443 1.368 . S
C1462 C1456 1.368 1_455 S
C1462 C1461 1.523 . S
C1463 C1447 1.429 . S
C1463 C1459 1.429 1_455 S
C1463 C1464 1.523 . S
C1464 C1448 1.368 1_455 S
C1464 C1460 1.368 . S
C1464 C1463 1.523 . S
H1465 C1440 0.971 . S
H1466 C1442 0.950 . S
H1467 C1443 0.949 . S
H1468 C1445 0.950 . S
H1469 C1447 0.950 . S
C1470 C1471 1.349 . S
C1470 C1472 1.327 . S
C1470 H1495 0.950 . S
C1471 C1470 1.349 . S
C1471 C1487 1.349 . S
C1472 C1470 1.327 . S
C1472 C1491 1.429 . S
C1472 H1496 0.950 . S
C1473 C1490 1.574 1_554 S
C1473 C1492 1.368 . S
C1473 H1497 0.949 . S
H1474 C1478 0.949 . S
C1475 C1476 1.349 . S
C1475 C1477 1.327 . S
C1475 H1498 0.950 . S
C1476 C1475 1.349 . S
C1476 C1488 1.349 . S
C1477 C1475 1.327 . S
C1477 C1493 1.429 . S
C1477 H1499 0.950 . S
C1478 H1474 0.949 . S
C1478 C1486 1.574 1_556 S
C1478 C1494 1.368 . S
H1479 C1487 0.950 . S
H1480 C1485 0.950 . S
H1481 C1486 0.949 . S
H1482 C1488 0.950 . S
H1483 C1489 0.950 . S
H1484 C1490 0.949 . S
C1485 H1480 0.950 . S
C1485 C1487 1.327 . S
C1485 C1491 1.429 . S
C1486 C1478 1.574 1_554 S
C1486 H1481 0.949 . S
C1486 C1492 1.368 . S
C1487 C1471 1.349 . S
C1487 H1479 0.950 . S
C1487 C1485 1.327 . S
C1488 C1476 1.349 . S
C1488 H1482 0.950 . S
C1488 C1489 1.327 . S
C1489 H1483 0.950 . S
C1489 C1488 1.327 . S
C1489 C1493 1.429 . S
C1490 C1473 1.574 1_556 S
C1490 H1484 0.949 . S
C1490 C1494 1.368 . S
C1491 C1472 1.429 . S
C1491 C1485 1.429 . S
C1491 C1492 1.523 . S
C1492 C1473 1.368 . S
C1492 C1486 1.368 . S
C1492 C1491 1.523 . S
C1493 C1477 1.429 . S
C1493 C1489 1.429 . S
C1493 C1494 1.523 . S
C1494 C1478 1.368 . S
C1494 C1490 1.368 . S
C1494 C1493 1.523 . S
H1495 C1470 0.950 . S
H1496 C1472 0.950 . S
H1497 C1473 0.949 . S
H1498 C1475 0.950 . S
H1499 C1477 0.950 . S
C1500 C1501 1.349 . S
C1500 C1502 1.327 . S
C1500 H1525 0.950 . S
C1501 C1500 1.349 . S
C1501 C1517 1.349 1_545 S
C1502 C1500 1.327 . S
C1502 C1521 1.429 . S
C1502 H1526 0.950 . S
C1503 C1520 1.574 1_554 S
C1503 C1522 1.368 1_565 S
C1503 H1527 0.949 . S
H1504 C1508 0.949 . S
C1505 C1506 1.349 . S
C1505 C1507 1.327 . S
C1505 H1528 0.950 1_545 S
C1506 C1505 1.349 . S
C1506 C1518 1.349 . S
C1507 C1505 1.327 . S
C1507 C1523 1.429 . S
C1507 H1529 0.950 1_545 S
C1508 H1504 0.949 . S
C1508 C1516 1.574 1_556 S
C1508 C1524 1.368 . S
H1509 C1517 0.950 . S
H1510 C1515 0.950 . S
H1511 C1516 0.949 . S
H1512 C1518 0.950 . S
H1513 C1519 0.950 . S
H1514 C1520 0.949 . S
C1515 H1510 0.950 . S
C1515 C1517 1.327 . S
C1515 C1521 1.429 1_565 S
C1516 C1508 1.574 1_554 S
C1516 H1511 0.949 . S
C1516 C1522 1.368 . S
C1517 C1501 1.349 1_565 S
C1517 H1509 0.950 . S
C1517 C1515 1.327 . S
C1518 C1506 1.349 . S
C1518 H1512 0.950 . S
C1518 C1519 1.327 . S
C1519 H1513 0.950 . S
C1519 C1518 1.327 . S
C1519 C1523 1.429 . S
C1520 C1503 1.574 1_556 S
C1520 H1514 0.949 . S
C1520 C1524 1.368 1_565 S
C1521 C1502 1.429 . S
C1521 C1515 1.429 1_545 S
C1521 C1522 1.523 . S
C1522 C1503 1.368 1_545 S
C1522 C1516 1.368 . S
C1522 C1521 1.523 . S
C1523 C1507 1.429 . S
C1523 C1519 1.429 . S
C1523 C1524 1.523 . S
C1524 C1508 1.368 . S
C1524 C1520 1.368 1_545 S
C1524 C1523 1.523 . S
H1525 C1500 0.950 . S
H1526 C1502 0.950 . S
H1527 C1503 0.949 . S
H1528 C1505 0.950 1_565 S
H1529 C1507 0.950 1_565 S
C1530 C1531 1.349 . S
C1530 C1532 1.327 . S
C1530 H1555 0.950 . S
C1531 C1530 1.349 . S
C1531 C1547 1.349 . S
C1532 C1530 1.327 . S
C1532 C1551 1.429 . S
C1532 H1556 0.950 . S
C1533 C1550 1.574 . S
C1533 C1552 1.368 . S
C1533 H1557 0.949 1_554 S
H1534 C1538 0.949 . S
C1535 C1536 1.349 . S
C1535 C1537 1.327 . S
C1535 H1558 0.950 . S
C1536 C1535 1.349 . S
C1536 C1548 1.349 . S
C1537 C1535 1.327 . S
C1537 C1553 1.429 . S
C1537 H1559 0.950 . S
C1538 H1534 0.949 . S
C1538 C1546 1.574 . S
C1538 C1554 1.368 . S
H1539 C1547 0.950 . S
H1540 C1545 0.950 . S
H1541 C1546 0.949 . S
H1542 C1548 0.950 . S
H1543 C1549 0.950 . S
H1544 C1550 0.949 . S
C1545 H1540 0.950 . S
C1545 C1547 1.327 . S
C1545 C1551 1.429 . S
C1546 C1538 1.574 . S
C1546 H1541 0.949 . S
C1546 C1552 1.368 . S
C1547 C1531 1.349 . S
C1547 H1539 0.950 . S
C1547 C1545 1.327 . S
C1548 C1536 1.349 . S
C1548 H1542 0.950 . S
C1548 C1549 1.327 . S
C1549 H1543 0.950 . S
C1549 C1548 1.327 . S
C1549 C1553 1.429 . S
C1550 C1533 1.574 . S
C1550 H1544 0.949 . S
C1550 C1554 1.368 . S
C1551 C1532 1.429 . S
C1551 C1545 1.429 . S
C1551 C1552 1.523 1_556 S
C1552 C1533 1.368 . S
C1552 C1546 1.368 . S
C1552 C1551 1.523 1_554 S
C1553 C1537 1.429 . S
C1553 C1549 1.429 . S
C1553 C1554 1.523 . S
C1554 C1538 1.368 . S
C1554 C1550 1.368 . S
C1554 C1553 1.523 . S
H1555 C1530 0.950 . S
H1556 C1532 0.950 . S
H1557 C1533 0.949 1_556 S
H1558 C1535 0.950 . S
H1559 C1537 0.950 . S
C1560 C1561 1.349 . S
C1560 C1562 1.327 . S
C1560 H1585 0.950 . S
C1561 C1560 1.349 . S
C1561 C1577 1.349 . S
C1562 C1560 1.327 . S
C1562 C1581 1.429 . S
C1562 H1586 0.950 . S
C1563 C1580 1.574 . S
C1563 C1582 1.368 . S
C1563 H1587 0.949 . S
H1564 C1568 0.949 . S
C1565 C1566 1.349 . S
C1565 C1567 1.327 . S
C1565 H1588 0.950 . S
C1566 C1565 1.349 . S
C1566 C1578 1.349 . S
C1567 C1565 1.327 . S
C1567 C1583 1.429 . S
C1567 H1589 0.950 . S
C1568 H1564 0.949 . S
C1568 C1576 1.574 . S
C1568 C1584 1.368 . S
H1569 C1577 0.950 . S
H1570 C1575 0.950 . S
H1571 C1576 0.949 . S
H1572 C1578 0.950 . S
H1573 C1579 0.950 . S
H1574 C1580 0.949 . S
C1575 H1570 0.950 . S
C1575 C1577 1.327 . S
C1575 C1581 1.429 . S
C1576 C1568 1.574 . S
C1576 H1571 0.949 . S
C1576 C1582 1.368 . S
C1577 C1561 1.349 . S
C1577 H1569 0.950 . S
C1577 C1575 1.327 . S
C1578 C1566 1.349 . S
C1578 H1572 0.950 . S
C1578 C1579 1.327 . S
C1579 H1573 0.950 . S
C1579 C1578 1.327 . S
C1579 C1583 1.429 . S
C1580 C1563 1.574 . S
C1580 H1574 0.949 . S
C1580 C1584 1.368 . S
C1581 C1562 1.429 . S
C1581 C1575 1.429 . S
C1581 C1582 1.523 . S
C1582 C1563 1.368 . S
C1582 C1576 1.368 . S
C1582 C1581 1.523 . S
C1583 C1567 1.429 . S
C1583 C1579 1.429 . S
C1583 C1584 1.523 1_556 S
C1584 C1568 1.368 . S
C1584 C1580 1.368 . S
C1584 C1583 1.523 1_554 S
H1585 C1560 0.950 . S
H1586 C1562 0.950 . S
H1587 C1563 0.949 . S
H1588 C1565 0.950 . S
H1589 C1567 0.950 . S
C1590 C1591 1.349 . S
C1590 C1592 1.327 . S
C1590 H1615 0.950 . S
C1591 C1590 1.349 . S
C1591 C1607 1.349 . S
C1592 C1590 1.327 . S
C1592 C1611 1.429 . S
C1592 H1616 0.950 . S
C1593 C1610 1.574 1_554 S
C1593 C1612 1.368 . S
C1593 H1617 0.949 . S
H1594 C1598 0.949 . S
C1595 C1596 1.349 . S
C1595 C1597 1.327 . S
C1595 H1618 0.950 . S
C1596 C1595 1.349 . S
C1596 C1608 1.349 . S
C1597 C1595 1.327 . S
C1597 C1613 1.429 . S
C1597 H1619 0.950 . S
C1598 H1594 0.949 . S
C1598 C1606 1.574 1_556 S
C1598 C1614 1.368 . S
H1599 C1607 0.950 . S
H1600 C1605 0.950 . S
H1601 C1606 0.949 . S
H1602 C1608 0.950 . S
H1603 C1609 0.950 . S
H1604 C1610 0.949 . S
C1605 H1600 0.950 . S
C1605 C1607 1.327 . S
C1605 C1611 1.429 . S
C1606 C1598 1.574 1_554 S
C1606 H1601 0.949 . S
C1606 C1612 1.368 . S
C1607 C1591 1.349 . S
C1607 H1599 0.950 . S
C1607 C1605 1.327 . S
C1608 C1596 1.349 . S
C1608 H1602 0.950 . S
C1608 C1609 1.327 . S
C1609 H1603 0.950 . S
C1609 C1608 1.327 . S
C1609 C1613 1.429 . S
C1610 C1593 1.574 1_556 S
C1610 H1604 0.949 . S
C1610 C1614 1.368 . S
C1611 C1592 1.429 . S
C1611 C1605 1.429 . S
C1611 C1612 1.523 . S
C1612 C1593 1.368 . S
C1612 C1606 1.368 . S
C1612 C1611 1.523 . S
C1613 C1597 1.429 . S
C1613 C1609 1.429 . S
C1613 C1614 1.523 . S
C1614 C1598 1.368 . S
C1614 C1610 1.368 . S
C1614 C1613 1.523 . S
H1615 C1590 0.950 . S
H1616 C1592 0.950 . S
H1617 C1593 0.949 . S
H1618 C1595 0.950 . S
H1619 C1597 0.950 . S
C1620 C1621 1.349 . S
C1620 C1622 1.327 . S
C1620 H1645 0.950 . S
C1621 C1620 1.349 . S
C1621 C1637 1.349 . S
C1622 C1620 1.327 . S
C1622 C1641 1.429 . S
C1622 H1646 0.950 . S
C1623 C1640 1.574 . S
C1623 C1642 1.368 . S
C1623 H1647 0.949 . S
H1624 C1628 0.949 . S
C1625 C1626 1.349 . S
C1625 C1627 1.327 . S
C1625 H1648 0.950 . S
C1626 C1625 1.349 . S
C1626 C1638 1.349 . S
C1627 C1625 1.327 . S
C1627 C1643 1.429 . S
C1627 H1649 0.950 . S
C1628 H1624 0.949 . S
C1628 C1636 1.574 . S
C1628 C1644 1.368 . S
H1629 C1637 0.950 . S
H1630 C1635 0.950 . S
H1631 C1636 0.949 . S
H1632 C1638 0.950 . S
H1633 C1639 0.950 . S
H1634 C1640 0.949 . S
C1635 H1630 0.950 . S
C1635 C1637 1.327 . S
C1635 C1641 1.429 . S
C1636 C1628 1.574 . S
C1636 H1631 0.949 . S
C1636 C1642 1.368 . S
C1637 C1621 1.349 . S
C1637 H1629 0.950 . S
C1637 C1635 1.327 . S
C1638 C1626 1.349 . S
C1638 H1632 0.950 . S
C1638 C1639 1.327 . S
C1639 H1633 0.950 . S
C1639 C1638 1.327 . S
C1639 C1643 1.429 . S
C1640 C1623 1.574 . S
C1640 H1634 0.949 . S
C1640 C1644 1.368 . S
C1641 C1622 1.429 . S
C1641 C1635 1.429 . S
C1641 C1642 1.523 . S
C1642 C1623 1.368 . S
C1642 C1636 1.368 . S
C1642 C1641 1.523 . S
C1643 C1627 1.429 . S
C1643 C1639 1.429 . S
C1643 C1644 1.523 . S
C1644 C1628 1.368 . S
C1644 C1640 1.368 . S
C1644 C1643 1.523 . S
H1645 C1620 0.950 . S
H1646 C1622 0.950 . S
H1647 C1623 0.949 . S
H1648 C1625 0.950 . S
H1649 C1627 0.950 . S
C1650 C1651 1.349 . S
C1650 C1652 1.327 . S
C1650 H1675 0.950 . S
C1651 C1650 1.349 . S
C1651 C1667 1.349 . S
C1652 C1650 1.327 . S
C1652 C1671 1.429 . S
C1652 H1676 0.950 . S
C1653 C1670 1.574 . S
C1653 C1672 1.368 . S
C1653 H1677 0.949 . S
H1654 C1658 0.949 . S
C1655 C1656 1.349 1_554 S
C1655 C1657 1.327 . S
C1655 H1678 0.958 . S
C1656 C1655 1.349 1_556 S
C1656 C1668 1.349 1_556 S
C1657 C1655 1.327 . S
C1657 C1673 1.429 . S
C1657 H1679 0.950 . S
C1658 H1654 0.949 . S
C1658 C1666 1.574 . S
C1658 C1674 1.368 . S
H1659 C1667 0.950 . S
H1660 C1665 0.950 . S
H1661 C1666 0.949 . S
H1662 C1668 0.950 . S
H1663 C1669 0.950 . S
H1664 C1670 0.949 . S
C1665 H1660 0.950 . S
C1665 C1667 1.327 . S
C1665 C1671 1.429 . S
C1666 C1658 1.574 . S
C1666 H1661 0.949 . S
C1666 C1672 1.368 . S
C1667 C1651 1.349 . S
C1667 H1659 0.950 . S
C1667 C1665 1.327 . S
C1668 C1656 1.349 1_554 S
C1668 H1662 0.950 . S
C1668 C1669 1.327 . S
C1669 H1663 0.950 . S
C1669 C1668 1.327 . S
C1669 C1673 1.429 . S
C1670 C1653 1.574 . S
C1670 H1664 0.949 . S
C1670 C1674 1.368 . S
C1671 C1652 1.429 . S
C1671 C1665 1.429 . S
C1671 C1672 1.523 . S
C1672 C1653 1.368 . S
C1672 C1666 1.368 . S
C1672 C1671 1.523 . S
C1673 C1657 1.429 . S
C1673 C1669 1.429 . S
C1673 C1674 1.523 . S
C1674 C1658 1.368 . S
C1674 C1670 1.368 . S
C1674 C1673 1.523 . S
H1675 C1650 0.950 . S
H1676 C1652 0.950 . S
H1677 C1653 0.949 . S
H1678 C1655 0.958 . S
H1679 C1657 0.950 . S
C1680 C1681 1.349 . S
C1680 C1682 1.327 . S
C1680 H1705 0.950 . S
C1681 C1680 1.349 . S
C1681 C1697 1.349 . S
C1682 C1680 1.327 . S
C1682 C1701 1.429 . S
C1682 H1706 0.950 . S
C1683 C1700 1.574 . S
C1683 C1702 1.368 . S
C1683 H1707 0.949 . S
H1684 C1688 0.949 . S
C1685 C1686 1.349 . S
C1685 C1687 1.327 . S
C1685 H1708 0.950 . S
C1686 C1685 1.349 . S
C1686 C1698 1.349 . S
C1687 C1685 1.327 . S
C1687 C1703 1.429 . S
C1687 H1709 0.950 . S
C1688 H1684 0.949 . S
C1688 C1696 1.574 . S
C1688 C1704 1.368 . S
H1689 C1697 0.950 . S
H1690 C1695 0.950 . S
H1691 C1696 0.949 . S
H1692 C1698 0.950 . S
H1693 C1699 0.950 . S
H1694 C1700 0.949 . S
C1695 H1690 0.950 . S
C1695 C1697 1.327 . S
C1695 C1701 1.429 . S
C1696 C1688 1.574 . S
C1696 H1691 0.949 . S
C1696 C1702 1.368 . S
C1697 C1681 1.349 . S
C1697 H1689 0.950 . S
C1697 C1695 1.327 . S
C1698 C1686 1.349 . S
C1698 H1692 0.950 . S
C1698 C1699 1.327 . S
C1699 H1693 0.950 . S
C1699 C1698 1.327 . S
C1699 C1703 1.429 . S
C1700 C1683 1.574 . S
C1700 H1694 0.949 . S
C1700 C1704 1.368 . S
C1701 C1682 1.429 . S
C1701 C1695 1.429 . S
C1701 C1702 1.523 . S
C1702 C1683 1.368 . S
C1702 C1696 1.368 . S
C1702 C1701 1.523 . S
C1703 C1687 1.429 . S
C1703 C1699 1.429 . S
C1703 C1704 1.523 . S
C1704 C1688 1.368 . S
C1704 C1700 1.368 . S
C1704 C1703 1.523 . S
H1705 C1680 0.950 . S
H1706 C1682 0.950 . S
H1707 C1683 0.949 . S
H1708 C1685 0.950 . S
H1709 C1687 0.950 . S
C1710 C1711 1.349 . S
C1710 C1712 1.327 . S
C1710 H1735 0.950 . S
C1711 C1710 1.349 . S
C1711 C1727 1.349 . S
C1712 C1710 1.327 . S
C1712 C1731 1.429 . S
C1712 H1736 0.950 . S
C1713 C1730 1.574 . S
C1713 C1732 1.368 . S
C1713 H1737 0.949 . S
H1714 C1718 0.949 . S
C1715 C1716 1.349 . S
C1715 C1717 1.327 . S
C1715 H1738 0.950 . S
C1716 C1715 1.349 . S
C1716 C1728 1.349 . S
C1717 C1715 1.327 . S
C1717 C1733 1.429 . S
C1717 H1739 0.950 . S
C1718 H1714 0.949 . S
C1718 C1726 1.574 . S
C1718 C1734 1.368 . S
H1719 C1727 0.950 . S
H1720 C1725 0.950 . S
H1721 C1726 0.949 . S
H1722 C1728 0.950 . S
H1723 C1729 0.950 . S
H1724 C1730 0.949 . S
C1725 H1720 0.950 . S
C1725 C1727 1.327 . S
C1725 C1731 1.429 . S
C1726 C1718 1.574 . S
C1726 H1721 0.949 . S
C1726 C1732 1.368 . S
C1727 C1711 1.349 . S
C1727 H1719 0.950 . S
C1727 C1725 1.327 . S
C1728 C1716 1.349 . S
C1728 H1722 0.950 . S
C1728 C1729 1.327 . S
C1729 H1723 0.950 . S
C1729 C1728 1.327 . S
C1729 C1733 1.429 . S
C1730 C1713 1.574 . S
C1730 H1724 0.949 . S
C1730 C1734 1.368 . S
C1731 C1712 1.429 . S
C1731 C1725 1.429 . S
C1731 C1732 1.523 . S
C1732 C1713 1.368 . S
C1732 C1726 1.368 . S
C1732 C1731 1.523 . S
C1733 C1717 1.429 . S
C1733 C1729 1.429 . S
C1733 C1734 1.523 . S
C1734 C1718 1.368 . S
C1734 C1730 1.368 . S
C1734 C1733 1.523 . S
H1735 C1710 0.950 . S
H1736 C1712 0.950 . S
H1737 C1713 0.949 . S
H1738 C1715 0.950 . S
H1739 C1717 0.950 . S
C1740 C1741 1.349 . S
C1740 C1742 1.327 . S
C1740 H1765 0.950 . S
C1741 C1740 1.349 . S
C1741 C1757 1.349 . S
C1742 C1740 1.327 . S
C1742 C1761 1.429 . S
C1742 H1766 0.950 . S
C1743 C1760 1.574 . S
C1743 C1762 1.368 . S
C1743 H1767 0.949 . S
H1744 C1748 0.949 . S
C1745 C1746 1.349 . S
C1745 C1747 1.327 . S
C1745 H1768 0.950 . S
C1746 C1745 1.349 . S
C1746 C1758 1.349 . S
C1747 C1745 1.327 . S
C1747 C1763 1.429 . S
C1747 H1769 0.950 . S
C1748 H1744 0.949 . S
C1748 C1756 1.574 . S
C1748 C1764 1.368 . S
H1749 C1757 0.950 . S
H1750 C1755 0.950 . S
H1751 C1756 0.949 . S
H1752 C1758 0.950 . S
H1753 C1759 0.950 . S
H1754 C1760 0.949 . S
C1755 H1750 0.950 . S
C1755 C1757 1.327 . S
C1755 C1761 1.429 . S
C1756 C1748 1.574 . S
C1756 H1751 0.949 . S
C1756 C1762 1.368 . S
C1757 C1741 1.349 . S
C1757 H1749 0.950 . S
C1757 C1755 1.327 . S
C1758 C1746 1.349 . S
C1758 H1752 0.950 . S
C1758 C1759 1.327 . S
C1759 H1753 0.950 . S
C1759 C1758 1.327 . S
C1759 C1763 1.429 . S
C1760 C1743 1.574 . S
C1760 H1754 0.949 . S
C1760 C1764 1.368 . S
C1761 C1742 1.429 . S
C1761 C1755 1.429 . S
C1761 C1762 1.523 . S
C1762 C1743 1.368 . S
C1762 C1756 1.368 . S
C1762 C1761 1.523 . S
C1763 C1747 1.429 . S
C1763 C1759 1.429 . S
C1763 C1764 1.523 . S
C1764 C1748 1.368 . S
C1764 C1760 1.368 . S
C1764 C1763 1.523 . S
H1765 C1740 0.950 . S
H1766 C1742 0.950 . S
H1767 C1743 0.949 . S
H1768 C1745 0.950 . S
H1769 C1747 0.950 . S
C1770 C1771 1.349 . S
C1770 C1772 1.327 . S
C1770 H1795 0.950 . S
C1771 C1770 1.349 . S
C1771 C1787 1.349 . S
C1772 C1770 1.327 . S
C1772 C1791 1.429 . S
C1772 H1796 0.950 . S
C1773 C1790 1.574 . S
C1773 C1792 1.368 . S
C1773 H1797 0.949 . S
H1774 C1778 0.949 . S
C1775 C1776 1.349 . S
C1775 C1777 1.327 . S
C1775 H1798 0.950 . S
C1776 C1775 1.349 . S
C1776 C1788 1.349 . S
C1777 C1775 1.327 . S
C1777 C1793 1.429 . S
C1777 H1799 0.950 . S
C1778 H1774 0.949 . S
C1778 C1786 1.574 . S
C1778 C1794 1.368 . S
H1779 C1787 0.950 . S
H1780 C1785 0.950 . S
H1781 C1786 0.949 . S
H1782 C1788 0.950 . S
H1783 C1789 0.950 . S
H1784 C1790 0.949 . S
C1785 H1780 0.950 . S
C1785 C1787 1.327 . S
C1785 C1791 1.429 . S
C1786 C1778 1.574 . S
C1786 H1781 0.949 . S
C1786 C1792 1.368 . S
C1787 C1771 1.349 . S
C1787 H1779 0.950 . S
C1787 C1785 1.327 . S
C1788 C1776 1.349 . S
C1788 H1782 0.950 . S
C1788 C1789 1.327 . S
C1789 H1783 0.950 . S
C1789 C1788 1.327 . S
C1789 C1793 1.429 . S
C1790 C1773 1.574 . S
C1790 H1784 0.949 . S
C1790 C1794 1.368 . S
C1791 C1772 1.429 . S
C1791 C1785 1.429 . S
C1791 C1792 1.523 . S
C1792 C1773 1.368 . S
C1792 C1786 1.368 . S
C1792 C1791 1.523 . S
C1793 C1777 1.429 . S
C1793 C1789 1.429 . S
C1793 C1794 1.523 . S
C1794 C1778 1.368 . S
C1794 C1790 1.368 . S
C1794 C1793 1.523 . S
H1795 C1770 0.950 . S
H1796 C1772 0.950 . S
H1797 C1773 0.949 . S
H1798 C1775 0.950 . S
H1799 C1777 0.950 . S
C1800 C1801 1.349 . S
C1800 C1802 1.327 . S
C1800 H1825 0.950 . S
C1801 C1800 1.349 . S
C1801 C1817 1.349 . S
C1802 C1800 1.327 . S
C1802 C1821 1.429 . S
C1802 H1826 0.950 . S
C1803 C1820 1.574 . S
C1803 C1822 1.368 . S
C1803 H1827 0.949 . S
H1804 C1808 0.949 . S
C1805 C1806 1.349 . S
C1805 C1807 1.327 . S
C1805 H1828 0.950 . S
C1806 C1805 1.349 . S
C1806 C1818 1.349 . S
C1807 C1805 1.327 . S
C1807 C1823 1.429 . S
C1807 H1829 0.950 . S
C1808 H1804 0.949 . S
C1808 C1816 1.574 . S
C1808 C1824 1.368 . S
H1809 C1817 0.950 . S
H1810 C1815 0.950 . S
H1811 C1816 0.949 . S
H1812 C1818 0.950 . S
H1813 C1819 0.950 . S
H1814 C1820 0.949 . S
C1815 H1810 0.950 . S
C1815 C1817 1.327 . S
C1815 C1821 1.429 . S
C1816 C1808 1.574 . S
C1816 H1811 0.949 . S
C1816 C1822 1.368 . S
C1817 C1801 1.349 . S
C1817 H1809 0.950 . S
C1817 C1815 1.327 . S
C1818 C1806 1.349 . S
C1818 H1812 0.950 . S
C1818 C1819 1.327 . S
C1819 H1813 0.950 . S
C1819 C1818 1.327 . S
C1819 C1823 1.429 . S
C1820 C1803 1.574 . S
C1820 H1814 0.949 . S
C1820 C1824 1.368 . S
C1821 C1802 1.429 . S
C1821 C1815 1.429 . S
C1821 C1822 1.523 . S
C1822 C1803 1.368 . S
C1822 C1816 1.368 . S
C1822 C1821 1.523 . S
C1823 C1807 1.429 . S
C1823 C1819 1.429 . S
C1823 C1824 1.523 . S
C1824 C1808 1.368 . S
C1824 C1820 1.368 . S
C1824 C1823 1.523 . S
H1825 C1800 0.950 . S
H1826 C1802 0.950 . S
H1827 C1803 0.949 . S
H1828 C1805 0.950 . S
H1829 C1807 0.950 . S
C1830 C1831 1.349 . S
C1830 C1832 1.327 . S
C1830 H1855 0.950 . S
C1831 C1830 1.349 . S
C1831 C1847 1.349 . S
C1832 C1830 1.327 . S
C1832 C1851 1.429 . S
C1832 H1856 0.950 . S
C1833 C1850 1.574 . S
C1833 C1852 1.368 . S
C1833 H1857 0.949 . S
H1834 C1838 0.949 . S
C1835 C1836 1.349 . S
C1835 C1837 1.327 . S
C1835 H1858 0.950 . S
C1836 C1835 1.349 . S
C1836 C1848 1.349 . S
C1837 C1835 1.327 . S
C1837 C1853 1.429 . S
C1837 H1859 0.950 . S
C1838 H1834 0.949 . S
C1838 C1846 1.574 . S
C1838 C1854 1.368 . S
H1839 C1847 0.950 . S
H1840 C1845 0.950 . S
H1841 C1846 0.949 . S
H1842 C1848 0.950 . S
H1843 C1849 0.950 . S
H1844 C1850 0.949 . S
C1845 H1840 0.950 . S
C1845 C1847 1.327 . S
C1845 C1851 1.429 . S
C1846 C1838 1.574 . S
C1846 H1841 0.949 . S
C1846 C1852 1.368 . S
C1847 C1831 1.349 . S
C1847 H1839 0.950 . S
C1847 C1845 1.327 . S
C1848 C1836 1.349 . S
C1848 H1842 0.950 . S
C1848 C1849 1.327 . S
C1849 H1843 0.950 . S
C1849 C1848 1.327 . S
C1849 C1853 1.429 . S
C1850 C1833 1.574 . S
C1850 H1844 0.949 . S
C1850 C1854 1.368 . S
C1851 C1832 1.429 . S
C1851 C1845 1.429 . S
C1851 C1852 1.523 . S
C1852 C1833 1.368 . S
C1852 C1846 1.368 . S
C1852 C1851 1.523 . S
C1853 C1837 1.429 . S
C1853 C1849 1.429 . S
C1853 C1854 1.523 . S
C1854 C1838 1.368 . S
C1854 C1850 1.368 . S
C1854 C1853 1.523 . S
H1855 C1830 0.950 . S
H1856 C1832 0.950 . S
H1857 C1833 0.949 . S
H1858 C1835 0.950 . S
H1859 C1837 0.950 . S
C1860 C1861 1.349 . S
C1860 C1862 1.327 . S
C1860 H1885 0.950 . S
C1861 C1860 1.349 . S
C1861 C1877 1.349 . S
C1862 C1860 1.327 . S
C1862 C1881 1.429 . S
C1862 H1886 0.950 . S
C1863 C1880 1.574 . S
C1863 C1882 1.368 . S
C1863 H1887 0.949 . S
H1864 C1868 0.949 . S
C1865 C1866 1.349 . S
C1865 C1867 1.327 . S
C1865 H1888 0.950 . S
C1866 C1865 1.349 . S
C1866 C1878 1.349 . S
C1867 C1865 1.327 . S
C1867 C1883 1.429 . S
C1867 H1889 0.950 . S
C1868 H1864 0.949 . S
C1868 C1876 1.574 . S
C1868 C1884 1.368 . S
H1869 C1877 0.950 . S
H1870 C1875 0.950 . S
H1871 C1876 0.949 . S
H1872 C1878 0.950 . S
H1873 C1879 0.950 . S
H1874 C1880 0.949 . S
C1875 H1870 0.950 . S
C1875 C1877 1.327 . S
C1875 C1881 1.429 . S
C1876 C1868 1.574 . S
C1876 H1871 0.949 . S
C1876 C1882 1.368 . S
C1877 C1861 1.349 . S
C1877 H1869 0.950 . S
C1877 C1875 1.327 . S
C1878 C1866 1.349 . S
C1878 H1872 0.950 . S
C1878 C1879 1.327 . S
C1879 H1873 0.950 . S
C1879 C1878 1.327 . S
C1879 C1883 1.429 . S
C1880 C1863 1.574 . S
C1880 H1874 0.949 . S
C1880 C1884 1.368 . S
C1881 C1862 1.429 . S
C1881 C1875 1.429 . S
C1881 C1882 1.523 . S
C1882 C1863 1.368 . S
C1882 C1876 1.368 . S
C1882 C1881 1.523 . S
C1883 C1867 1.429 . S
C1883 C1879 1.429 . S
C1883 C1884 1.523 . S
C1884 C1868 1.368 . S
C1884 C1880 1.368 . S
C1884 C1883 1.523 . S
H1885 C1860 0.950 . S
H1886 C1862 0.950 . S
H1887 C1863 0.949 . S
H1888 C1865 0.950 . S
H1889 C1867 0.950 . S
C1890 C1891 1.349 . S
C1890 C1892 1.327 . S
C1890 H1915 0.950 . S
C1891 C1890 1.349 . S
C1891 C1907 1.349 . S
C1892 C1890 1.327 . S
C1892 C1911 1.429 . S
C1892 H1916 0.950 . S
C1893 C1910 1.574 . S
C1893 C1912 1.368 . S
C1893 H1917 0.949 . S
H1894 C1898 0.949 . S
C1895 C1896 1.349 . S
C1895 C1897 1.327 . S
C1895 H1918 0.950 . S
C1896 C1895 1.349 . S
C1896 C1908 1.349 . S
C1897 C1895 1.327 . S
C1897 C1913 1.429 . S
C1897 H1919 0.950 . S
C1898 H1894 0.949 . S
C1898 C1906 1.574 . S
C1898 C1914 1.368 . S
H1899 C1907 0.950 . S
H1900 C1905 0.950 . S
H1901 C1906 0.949 . S
H1902 C1908 0.950 . S
H1903 C1909 0.950 . S
H1904 C1910 0.949 . S
C1905 H1900 0.950 . S
C1905 C1907 1.327 . S
C1905 C1911 1.429 . S
C1906 C1898 1.574 . S
C1906 H1901 0.949 . S
C1906 C1912 1.368 . S
C1907 C1891 1.349 . S
C1907 H1899 0.950 . S
C1907 C1905 1.327 . S
C1908 C1896 1.349 . S
C1908 H1902 0.950 . S
C1908 C1909 1.327 . S
C1909 H1903 0.950 . S
C1909 C1908 1.327 . S
C1909 C1913 1.429 . S
C1910 C1893 1.574 . S
C1910 H1904 0.949 . S
C1910 C1914 1.368 . S
C1911 C1892 1.429 . S
C1911 C1905 1.429 . S
C1911 C1912 1.523 . S
C1912 C1893 1.368 . S
C1912 C1906 1.368 . S
C1912 C1911 1.523 . S
C1913 C1897 1.429 . S
C1913 C1909 1.429 . S
C1913 C1914 1.523 . S
C1914 C1898 1.368 . S
C1914 C1910 1.368 . S
C1914 C1913 1.523 . S
H1915 C1890 0.950 . S
H1916 C1892 0.950 . S
H1917 C1893 0.949 . S
H1918 C1895 0.950 . S
H1919 C1897 0.950 . S
C1920 C1921 1.349 . S
C1920 C1922 1.327 . S
C1920 H1945 0.950 . S
C1921 C1920 1.349 . S
C1921 C1937 1.349 . S
C1922 C1920 1.327 . S
C1922 C1941 1.429 . S
C1922 H1946 0.950 . S
C1923 C1940 1.574 . S
C1923 C1942 1.368 . S
C1923 H1947 0.949 . S
H1924 C1928 0.949 . S
C1925 C1926 1.349 . S
C1925 C1927 1.327 . S
C1925 H1948 0.950 . S
C1926 C1925 1.349 . S
C1926 C1938 1.349 . S
C1927 C1925 1.327 . S
C1927 C1943 1.429 . S
C1927 H1949 0.950 . S
C1928 H1924 0.949 . S
C1928 C1936 1.574 . S
C1928 C1944 1.368 . S
H1929 C1937 0.950 . S
H1930 C1935 0.950 . S
H1931 C1936 0.949 . S
H1932 C1938 0.950 . S
H1933 C1939 0.950 . S
H1934 C1940 0.949 . S
C1935 H1930 0.950 . S
C1935 C1937 1.327 . S
C1935 C1941 1.429 . S
C1936 C1928 1.574 . S
C1936 H1931 0.949 . S
C1936 C1942 1.368 . S
C1937 C1921 1.349 . S
C1937 H1929 0.950 . S
C1937 C1935 1.327 . S
C1938 C1926 1.349 . S
C1938 H1932 0.950 . S
C1938 C1939 1.327 . S
C1939 H1933 0.950 . S
C1939 C1938 1.327 . S
C1939 C1943 1.429 . S
C1940 C1923 1.574 . S
C1940 H1934 0.949 . S
C1940 C1944 1.368 . S
C1941 C1922 1.429 . S
C1941 C1935 1.429 . S
C1941 C1942 1.523 . S
C1942 C1923 1.368 . S
C1942 C1936 1.368 . S
C1942 C1941 1.523 . S
C1943 C1927 1.429 . S
C1943 C1939 1.429 . S
C1943 C1944 1.523 . S
C1944 C1928 1.368 . S
C1944 C1940 1.368 . S
C1944 C1943 1.523 . S
H1945 C1920 0.950 . S
H1946 C1922 0.950 . S
H1947 C1923 0.949 . S
H1948 C1925 0.950 . S
H1949 C1927 0.950 . S
C1950 C1951 1.349 . S
C1950 C1952 1.327 . S
C1950 H1975 0.950 . S
C1951 C1950 1.349 . S
C1951 C1967 1.349 . S
C1952 C1950 1.327 . S
C1952 C1971 1.429 . S
C1952 H1976 0.950 . S
C1953 C1970 1.574 . S
C1953 C1972 1.368 . S
C1953 H1977 0.949 . S
H1954 C1958 0.949 . S
C1955 C1956 1.349 . S
C1955 C1957 1.327 . S
C1955 H1978 0.950 . S
C1956 C1955 1.349 . S
C1956 C1968 1.349 . S
C1957 C1955 1.327 . S
C1957 C1973 1.429 . S
C1957 H1979 0.950 . S
C1958 H1954 0.949 . S
C1958 C1966 1.574 . S
C1958 C1974 1.368 . S
H1959 C1967 0.950 . S
H1960 C1965 0.950 . S
H1961 C1966 0.949 . S
H1962 C1968 0.950 . S
H1963 C1969 0.950 . S
H1964 C1970 0.949 . S
C1965 H1960 0.950 . S
C1965 C1967 1.327 . S
C1965 C1971 1.429 . S
C1966 C1958 1.574 . S
C1966 H1961 0.949 . S
C1966 C1972 1.368 . S
C1967 C1951 1.349 . S
C1967 H1959 0.950 . S
C1967 C1965 1.327 . S
C1968 C1956 1.349 . S
C1968 H1962 0.950 . S
C1968 C1969 1.327 . S
C1969 H1963 0.950 . S
C1969 C1968 1.327 . S
C1969 C1973 1.429 . S
C1970 C1953 1.574 . S
C1970 H1964 0.949 . S
C1970 C1974 1.368 . S
C1971 C1952 1.429 . S
C1971 C1965 1.429 . S
C1971 C1972 1.523 . S
C1972 C1953 1.368 . S
C1972 C1966 1.368 . S
C1972 C1971 1.523 . S
C1973 C1957 1.429 . S
C1973 C1969 1.429 . S
C1973 C1974 1.523 . S
C1974 C1958 1.368 . S
C1974 C1970 1.368 . S
C1974 C1973 1.523 . S
H1975 C1950 0.950 . S
H1976 C1952 0.950 . S
H1977 C1953 0.949 . S
H1978 C1955 0.950 . S
H1979 C1957 0.950 . S
C361 C279 1.953 . S
C366 C19 1.956 . S
C391 C29 1.407 . S
C396 C289 1.409 . S
C421 C59 1.694 . S
C426 C249 1.743 . S
C451 C49 1.298 . S
C456 C149 1.296 . S
C481 C169 1.541 . S
C486 C9 1.543 . S
C511 C39 1.757 . S
C516 C129 1.800 . S
C541 C78 1.707 . S
C546 C208 1.742 . S
C571 C88 1.213 . S
C576 C228 1.214 . S
C601 C188 1.506 . S
C606 C118 1.464 . S
C631 C328 1.416 . S
C636 C108 1.415 . S
C661 C68 1.735 . S
C666 C358 1.695 . S
C691 C318 1.965 . S
C696 C98 1.951 . S
C721 C179 1.595 . S
C726 C269 1.637 . S
C751 C139 1.872 . S
C756 C299 1.865 . S
C781 C159 2.085 . S
C786 C259 2.095 . S
C811 C198 2.177 . S
C816 C338 2.172 . S
C841 C348 1.743 . S
C846 C218 1.705 . S
C871 C308 1.975 . S
C876 C238 1.923 . S
C901 C8 1.356 . S
C906 C89 1.361 . S
C931 C119 1.645 . S
C936 C38 1.641 . S
C961 C79 1.508 . S
C966 C48 1.395 . S
C991 C99 1.678 . S
C996 C58 1.704 . S
C1021 C109 1.482 . S
C1026 C18 1.551 . S
C1051 C69 1.433 . S
C1056 C28 1.465 . S
C1081 C219 1.738 . S
C1086 C138 1.727 . S
C1111 C239 1.791 . S
C1116 C158 1.780 . S
C1141 C199 1.779 . S
C1146 C178 1.733 . S
C1171 C209 1.399 . S
C1176 C168 1.408 . S
C1201 C229 1.363 . S
C1206 C128 1.415 . S
C1231 C189 1.371 . S
C1236 C148 1.383 . S
C1261 C329 1.467 . S
C1266 C248 1.435 . S
C1291 C359 1.704 . S
C1296 C278 1.678 . S
C1321 C288 1.484 . S
C1326 C319 1.554 . S
C1351 C298 1.820 . S
C1356 C339 1.817 . S
C1381 C258 1.647 . S
C1386 C349 1.521 . S
C1411 C309 1.445 . S
C1416 C268 1.449 . S
C1441 C1 1.345 . S
C1446 C2 1.345 . S
C1471 C22 1.376 . S
C1476 C21 1.376 . S
C1501 C41 1.370 . S
C1506 C42 1.370 . S
C1531 C62 1.362 . S
C1536 C61 1.362 . S
C1561 C82 1.353 . S
C1566 C81 1.353 . S
C1591 C101 1.400 . S
C1596 C102 1.400 . S
C1621 C121 1.414 1_554 S
C1626 C122 1.414 . S
C1651 C142 1.345 . S
C1656 C141 1.345 . S
C1681 C161 1.434 1_554 S
C1686 C162 1.434 . S
C1711 C182 1.336 1_554 S
C1716 C181 1.336 . S
C1741 C202 1.407 . S
C1746 C201 1.407 . S
C1771 C222 1.360 1_554 S
C1776 C221 1.360 . S
C1801 C242 1.340 . S
C1806 C241 1.340 . S
C1831 C262 1.369 . S
C1836 C261 1.369 . S
C1861 C281 1.377 . S
C1866 C282 1.358 . S
C1891 C301 1.372 . S
C1896 C302 1.372 . S
C1921 C322 1.344 1_556 S
C1926 C321 1.344 . S
C1951 C342 1.375 . S
C1956 C341 1.375 1_556 S
