# Generated by pormake.
# Topology neb, (4)-cn, num edge types: 1
# Building blocks:
#     Node 0, Type 0, BuildingBlock: GALJAG_clean_sbu_0, # of connection points: 4
#     Node 1, Type 0, BuildingBlock: GALJAG_clean_sbu_0, # of connection points: 4
#     Node 2, Type 0, BuildingBlock: GALJAG_clean_sbu_0, # of connection points: 4
#     Node 3, Type 0, BuildingBlock: GALJAG_clean_sbu_0, # of connection points: 4
#     Node 4, Type 0, BuildingBlock: GALJAG_clean_sbu_0, # of connection points: 4
#     Node 5, Type 0, BuildingBlock: GALJAG_clean_sbu_0, # of connection points: 4
#     Node 6, Type 0, BuildingBlock: GALJAG_clean_sbu_0, # of connection points: 4
#     Node 7, Type 0, BuildingBlock: GALJAG_clean_sbu_0, # of connection points: 4
#     Node 8, Type 0, BuildingBlock: GALJAG_clean_sbu_0, # of connection points: 4
#     Node 9, Type 0, BuildingBlock: GALJAG_clean_sbu_0, # of connection points: 4
#     Node 10, Type 0, BuildingBlock: GALJAG_clean_sbu_0, # of connection points: 4
#     Node 11, Type 0, BuildingBlock: GALJAG_clean_sbu_0, # of connection points: 4
#     Node 12, Type 0, BuildingBlock: GALJAG_clean_sbu_0, # of connection points: 4
#     Node 13, Type 0, BuildingBlock: GALJAG_clean_sbu_0, # of connection points: 4
#     Node 14, Type 0, BuildingBlock: GALJAG_clean_sbu_0, # of connection points: 4
#     Node 15, Type 0, BuildingBlock: GALJAG_clean_sbu_0, # of connection points: 4
#     Edge 16, Type (0, 0), BuildingBlock: KIFKEQ_clean_linker_1, # of connection points: 2
#     Edge 17, Type (0, 0), BuildingBlock: KIFKEQ_clean_linker_1, # of connection points: 2
#     Edge 18, Type (0, 0), BuildingBlock: KIFKEQ_clean_linker_1, # of connection points: 2
#     Edge 19, Type (0, 0), BuildingBlock: KIFKEQ_clean_linker_1, # of connection points: 2
#     Edge 20, Type (0, 0), BuildingBlock: KIFKEQ_clean_linker_1, # of connection points: 2
#     Edge 21, Type (0, 0), BuildingBlock: KIFKEQ_clean_linker_1, # of connection points: 2
#     Edge 22, Type (0, 0), BuildingBlock: KIFKEQ_clean_linker_1, # of connection points: 2
#     Edge 23, Type (0, 0), BuildingBlock: KIFKEQ_clean_linker_1, # of connection points: 2
#     Edge 24, Type (0, 0), BuildingBlock: KIFKEQ_clean_linker_1, # of connection points: 2
#     Edge 25, Type (0, 0), BuildingBlock: KIFKEQ_clean_linker_1, # of connection points: 2
#     Edge 26, Type (0, 0), BuildingBlock: KIFKEQ_clean_linker_1, # of connection points: 2
#     Edge 27, Type (0, 0), BuildingBlock: KIFKEQ_clean_linker_1, # of connection points: 2
#     Edge 28, Type (0, 0), BuildingBlock: KIFKEQ_clean_linker_1, # of connection points: 2
#     Edge 29, Type (0, 0), BuildingBlock: KIFKEQ_clean_linker_1, # of connection points: 2
#     Edge 30, Type (0, 0), BuildingBlock: KIFKEQ_clean_linker_1, # of connection points: 2
#     Edge 31, Type (0, 0), BuildingBlock: KIFKEQ_clean_linker_1, # of connection points: 2
#     Edge 32, Type (0, 0), BuildingBlock: KIFKEQ_clean_linker_1, # of connection points: 2
#     Edge 33, Type (0, 0), BuildingBlock: KIFKEQ_clean_linker_1, # of connection points: 2
#     Edge 34, Type (0, 0), BuildingBlock: KIFKEQ_clean_linker_1, # of connection points: 2
#     Edge 35, Type (0, 0), BuildingBlock: KIFKEQ_clean_linker_1, # of connection points: 2
#     Edge 36, Type (0, 0), BuildingBlock: KIFKEQ_clean_linker_1, # of connection points: 2
#     Edge 37, Type (0, 0), BuildingBlock: KIFKEQ_clean_linker_1, # of connection points: 2
#     Edge 38, Type (0, 0), BuildingBlock: KIFKEQ_clean_linker_1, # of connection points: 2
#     Edge 39, Type (0, 0), BuildingBlock: KIFKEQ_clean_linker_1, # of connection points: 2
#     Edge 40, Type (0, 0), BuildingBlock: KIFKEQ_clean_linker_1, # of connection points: 2
#     Edge 41, Type (0, 0), BuildingBlock: KIFKEQ_clean_linker_1, # of connection points: 2
#     Edge 42, Type (0, 0), BuildingBlock: KIFKEQ_clean_linker_1, # of connection points: 2
#     Edge 43, Type (0, 0), BuildingBlock: KIFKEQ_clean_linker_1, # of connection points: 2
#     Edge 44, Type (0, 0), BuildingBlock: KIFKEQ_clean_linker_1, # of connection points: 2
#     Edge 45, Type (0, 0), BuildingBlock: KIFKEQ_clean_linker_1, # of connection points: 2
#     Edge 46, Type (0, 0), BuildingBlock: KIFKEQ_clean_linker_1, # of connection points: 2
#     Edge 47, Type (0, 0), BuildingBlock: KIFKEQ_clean_linker_1, # of connection points: 2
# Relax obj value: 0.003
# Max RMSD: 0.033
# Mean RMSD: 0.033
data_MOF--net-neb--node1-GALJAG_clean_sbu_0--edge1-KIFKEQ_clean_linker_1
_symmetry_space_group_name_H-M    P1
_symmetry_Int_Tables_number       1
_symmetry_cell_setting            triclinic
loop_
_symmetry_equiv_pos_as_xyz
'x, y, z'
_cell_length_a     43.043071
_cell_length_b     25.333871
_cell_length_c     71.675312
_cell_angle_alpha  90.042619
_cell_angle_beta   90.392876
_cell_angle_gamma 89.981038
loop_
_atom_site_label
_atom_site_type_symbol
_atom_site_fract_x
_atom_site_fract_y
_atom_site_fract_z
_atom_type_partial_charge
In0 In 0.12701 0.12711 0.43866 0.0
O1 O 0.15119 0.04872 0.43213 0.0
O2 O 0.119 0.07872 0.41224 0.0
C3 C 0.1697 0.16917 0.46205 0.0
C4 C 0.08123 0.08687 0.45993 0.0
C5 C 0.12095 0.21256 0.41651 0.0
O6 O 0.17693 0.13856 0.44885 0.0
O7 O 0.14098 0.17811 0.46352 0.0
O8 O 0.09992 0.19886 0.42774 0.0
O9 O 0.1445 0.18293 0.41641 0.0
C10 C 0.13757 0.0423 0.41665 0.0
O11 O 0.07559 0.11398 0.44551 0.0
O12 O 0.10968 0.08074 0.46358 0.0
In13 In 0.12469 0.12876 0.81579 0.0
O14 O 0.09884 0.05377 0.82411 0.0
O15 O 0.13135 0.08515 0.84351 0.0
C16 C 0.08086 0.16306 0.79163 0.0
C17 C 0.16993 0.08869 0.79388 0.0
C18 C 0.13204 0.21708 0.83658 0.0
O19 O 0.07431 0.13924 0.80657 0.0
O20 O 0.10957 0.16868 0.7887 0.0
O21 O 0.15407 0.18483 0.83417 0.0
O22 O 0.10684 0.20429 0.82879 0.0
C23 C 0.11223 0.04896 0.83971 0.0
O24 O 0.17236 0.13344 0.80154 0.0
O25 O 0.145 0.06478 0.79734 0.0
In26 In 0.87613 0.8832 0.56604 0.0
O27 O 0.84852 0.95103 0.57897 0.0
O28 O 0.89555 0.94085 0.58747 0.0
C29 C 0.83315 0.84085 0.54289 0.0
C30 C 0.91811 0.92101 0.54163 0.0
C31 C 0.88206 0.80291 0.59056 0.0
O32 O 0.82809 0.88233 0.55216 0.0
O33 O 0.85986 0.82136 0.54514 0.0
O34 O 0.90358 0.81575 0.57957 0.0
O35 O 0.858 0.83123 0.58941 0.0
C36 C 0.87089 0.96746 0.58888 0.0
O37 O 0.9242 0.88342 0.55263 0.0
O38 O 0.89087 0.93892 0.54283 0.0
In39 In 0.87444 0.87803 0.18887 0.0
O40 O 0.82288 0.89367 0.19491 0.0
O41 O 0.85637 0.91786 0.21501 0.0
C42 C 0.86928 0.79356 0.16618 0.0
C43 C 0.88537 0.96394 0.16753 0.0
C44 C 0.91751 0.83543 0.21179 0.0
O45 O 0.84808 0.80632 0.17745 0.0
O46 O 0.89256 0.82386 0.16623 0.0
O47 O 0.92372 0.8727 0.20072 0.0
O48 O 0.88964 0.82003 0.21133 0.0
C49 C 0.82812 0.91577 0.21041 0.0
O50 O 0.89766 0.95779 0.1834 0.0
O51 O 0.868 0.92661 0.16235 0.0
In52 In 0.12446 0.63169 0.93816 0.0
O53 O 0.15335 0.56404 0.9257 0.0
O54 O 0.10582 0.57097 0.91777 0.0
C55 C 0.16975 0.66879 0.9609 0.0
C56 C 0.0812 0.58957 0.96066 0.0
C57 C 0.11381 0.71798 0.9167 0.0
O58 O 0.17573 0.64387 0.94607 0.0
O59 O 0.14122 0.67431 0.96419 0.0
O60 O 0.10155 0.71182 0.93246 0.0
O61 O 0.13099 0.68042 0.91165 0.0
C62 C 0.13088 0.54556 0.91631 0.0
O63 O 0.07427 0.61994 0.94729 0.0
O64 O 0.1099 0.58089 0.96274 0.0
In65 In 0.12636 0.6287 0.31639 0.0
O66 O 0.09942 0.55832 0.32802 0.0
O67 O 0.14484 0.57337 0.33871 0.0
C68 C 0.08055 0.6672 0.29427 0.0
C69 C 0.1687 0.58585 0.29333 0.0
C70 C 0.13725 0.71332 0.33855 0.0
O71 O 0.07494 0.64304 0.30926 0.0
O72 O 0.10895 0.6713 0.29047 0.0
O73 O 0.15085 0.70679 0.32319 0.0
O74 O 0.11855 0.6771 0.34277 0.0
C75 C 0.12096 0.54447 0.33906 0.0
O76 O 0.17527 0.62316 0.30439 0.0
O77 O 0.14087 0.57035 0.29394 0.0
In78 In 0.87923 0.37598 0.06664 0.0
O79 O 0.85107 0.44287 0.07969 0.0
O80 O 0.89815 0.4332 0.08831 0.0
C81 C 0.83534 0.33467 0.04375 0.0
C82 C 0.92135 0.41799 0.04321 0.0
C83 C 0.88808 0.29377 0.09006 0.0
O84 O 0.82977 0.37279 0.05457 0.0
O85 O 0.86287 0.31791 0.04444 0.0
O86 O 0.90508 0.30185 0.07609 0.0
O87 O 0.86691 0.32752 0.09238 0.0
C88 C 0.87329 0.45933 0.08974 0.0
O89 O 0.92811 0.38166 0.05457 0.0
O90 O 0.89337 0.43269 0.04356 0.0
In91 In 0.87412 0.38361 0.68917 0.0
O92 O 0.82413 0.39178 0.69931 0.0
O93 O 0.85955 0.43091 0.71476 0.0
C94 C 0.86823 0.30166 0.66529 0.0
C95 C 0.88028 0.46938 0.66712 0.0
C96 C 0.91758 0.33974 0.71155 0.0
O97 O 0.84806 0.31205 0.67747 0.0
O98 O 0.89086 0.33325 0.66492 0.0
O99 O 0.92311 0.37986 0.70165 0.0
O100 O 0.89012 0.32261 0.71037 0.0
C101 C 0.83096 0.42117 0.71296 0.0
O102 O 0.90142 0.4548 0.67827 0.0
O103 O 0.85651 0.4403 0.66693 0.0
In104 In 0.62604 0.12908 0.93907 0.0
O105 O 0.65256 0.05752 0.92784 0.0
O106 O 0.6083 0.07539 0.91601 0.0
C107 C 0.67184 0.16715 0.96131 0.0
C108 C 0.58299 0.08613 0.9616 0.0
C109 C 0.61568 0.21487 0.91745 0.0
O110 O 0.67745 0.1434 0.94621 0.0
O111 O 0.64344 0.17086 0.96517 0.0
O112 O 0.60223 0.20809 0.93284 0.0
O113 O 0.63393 0.17825 0.91289 0.0
C114 C 0.6316 0.04512 0.91619 0.0
O115 O 0.57665 0.12301 0.95034 0.0
O116 O 0.61096 0.07123 0.96149 0.0
In117 In 0.62361 0.12765 0.315 0.0
O118 O 0.67196 0.12532 0.30199 0.0
O119 O 0.63834 0.07006 0.29236 0.0
C120 C 0.62908 0.21055 0.33848 0.0
C121 C 0.6184 0.04536 0.3387 0.0
C122 C 0.58119 0.16747 0.29097 0.0
O123 O 0.65089 0.19626 0.32791 0.0
O124 O 0.60492 0.18251 0.33741 0.0
O125 O 0.5755 0.12832 0.3013 0.0
O126 O 0.60823 0.18607 0.2927 0.0
C127 C 0.66575 0.08721 0.29122 0.0
O128 O 0.59628 0.05996 0.32824 0.0
O129 O 0.64273 0.07282 0.3374 0.0
In130 In 0.37671 0.87859 0.06628 0.0
O131 O 0.4277 0.89716 0.05972 0.0
O132 O 0.39333 0.91974 0.03997 0.0
C133 C 0.38618 0.79517 0.08894 0.0
C134 C 0.36514 0.9638 0.08783 0.0
C135 C 0.3323 0.83389 0.04469 0.0
O136 O 0.40298 0.80402 0.07491 0.0
O137 O 0.36491 0.82859 0.09162 0.0
O138 O 0.32648 0.87119 0.05584 0.0
O139 O 0.3603 0.8194 0.04451 0.0
C140 C 0.42172 0.91883 0.04427 0.0
O141 O 0.35135 0.95606 0.07248 0.0
O142 O 0.38446 0.92853 0.09232 0.0
In143 In 0.37543 0.88477 0.68746 0.0
O144 O 0.32469 0.90058 0.69538 0.0
O145 O 0.36006 0.93062 0.71316 0.0
C146 C 0.36507 0.80176 0.66468 0.0
C147 C 0.386 0.96988 0.66576 0.0
C148 C 0.41995 0.83868 0.70864 0.0
O149 O 0.34844 0.81099 0.67878 0.0
O150 O 0.38657 0.83471 0.66199 0.0
O151 O 0.42598 0.87517 0.69723 0.0
O152 O 0.39169 0.82598 0.70938 0.0
C153 C 0.33139 0.92642 0.70991 0.0
O154 O 0.40064 0.96193 0.68081 0.0
O155 O 0.36641 0.93473 0.66158 0.0
In156 In 0.62616 0.62814 0.43843 0.0
O157 O 0.65179 0.5557 0.42723 0.0
O158 O 0.60788 0.57473 0.41528 0.0
C159 C 0.67022 0.66807 0.4614 0.0
C160 C 0.58377 0.5884 0.46212 0.0
C161 C 0.6196 0.71205 0.41546 0.0
O162 O 0.67653 0.63657 0.44831 0.0
O163 O 0.64175 0.67871 0.46303 0.0
O164 O 0.59887 0.69892 0.42694 0.0
O165 O 0.64311 0.68237 0.41539 0.0
C166 C 0.63081 0.54371 0.41558 0.0
O167 O 0.57755 0.62565 0.45099 0.0
O168 O 0.61135 0.57167 0.46137 0.0
In169 In 0.62245 0.62709 0.81657 0.0
O170 O 0.67174 0.62702 0.8046 0.0
O171 O 0.64114 0.56482 0.79682 0.0
C172 C 0.62872 0.71209 0.83903 0.0
C173 C 0.61323 0.54458 0.83975 0.0
C174 C 0.57994 0.66583 0.79222 0.0
O175 O 0.65104 0.69443 0.82951 0.0
O176 O 0.60372 0.68651 0.83734 0.0
O177 O 0.57254 0.63964 0.80647 0.0
O178 O 0.60876 0.67184 0.79009 0.0
C179 C 0.66778 0.58497 0.79538 0.0
O180 O 0.59784 0.55093 0.82488 0.0
O181 O 0.63296 0.58023 0.84309 0.0
In182 In 0.37598 0.38444 0.56657 0.0
O183 O 0.35298 0.46476 0.57157 0.0
O184 O 0.38127 0.43289 0.59318 0.0
C185 C 0.33061 0.33963 0.54568 0.0
C186 C 0.42165 0.42314 0.54468 0.0
C187 C 0.38627 0.30091 0.58903 0.0
O188 O 0.3254 0.37825 0.55637 0.0
O189 O 0.35842 0.32414 0.54557 0.0
O190 O 0.40272 0.31012 0.57486 0.0
O191 O 0.36501 0.33418 0.59197 0.0
C192 C 0.36446 0.47063 0.58769 0.0
O193 O 0.42704 0.40423 0.56065 0.0
O194 O 0.39353 0.42185 0.53977 0.0
In195 In 0.37294 0.37859 0.18705 0.0
O196 O 0.3219 0.3949 0.19417 0.0
O197 O 0.35682 0.42338 0.21266 0.0
C198 C 0.36197 0.29406 0.16503 0.0
C199 C 0.38366 0.46495 0.16603 0.0
C200 C 0.41839 0.33519 0.20819 0.0
O201 O 0.34728 0.30186 0.17998 0.0
O202 O 0.38174 0.32903 0.16117 0.0
O203 O 0.42423 0.36344 0.19413 0.0
O204 O 0.3899 0.32923 0.21149 0.0
C205 C 0.32824 0.4197 0.209 0.0
O206 O 0.39774 0.45679 0.18126 0.0
O207 O 0.36452 0.42954 0.1614 0.0
H208 H 0.27197 0.37567 0.538 0.0
H209 H 0.33469 0.24642 0.5271 0.0
H210 H 0.23296 0.33483 0.51773 0.0
H211 H 0.29548 0.20443 0.50755 0.0
H212 H 0.23262 0.17027 0.45803 0.0
H213 H 0.27097 0.21237 0.47825 0.0
H214 H 0.19765 0.26347 0.51506 0.0
H215 H 0.15927 0.22319 0.49433 0.0
C216 C 0.27726 0.33827 0.53141 0.0
C217 C 0.30638 0.31435 0.53404 0.0
C218 C 0.25487 0.31465 0.51987 0.0
C219 C 0.26104 0.26631 0.5109 0.0
C220 C 0.29008 0.24214 0.51387 0.0
C221 C 0.31252 0.26603 0.5252 0.0
C222 C 0.22475 0.19048 0.47045 0.0
C223 C 0.19299 0.19344 0.47461 0.0
C224 C 0.24673 0.21439 0.48213 0.0
C225 C 0.2375 0.24128 0.49838 0.0
C226 C 0.20563 0.24389 0.50255 0.0
C227 C 0.18362 0.22046 0.49074 0.0
H228 H 0.97639 0.88425 0.53428 0.0
H229 H 0.91212 0.00908 0.52009 0.0
H230 H 0.01511 0.92333 0.51381 0.0
H231 H 0.95111 0.04929 0.50014 0.0
H232 H 0.0188 0.08182 0.45266 0.0
H233 H 0.97888 0.03968 0.4716 0.0
H234 H 0.04866 0.99778 0.51267 0.0
H235 H 0.08846 0.03815 0.49345 0.0
C236 C 0.97058 0.92011 0.52681 0.0
C237 C 0.94127 0.94365 0.5288 0.0
C238 C 0.99283 0.94276 0.51517 0.0
C239 C 0.98635 0.98972 0.50539 0.0
C240 C 0.95681 0.01281 0.50725 0.0
C241 C 0.9345 0.98993 0.51878 0.0
C242 C 0.02551 0.06359 0.46574 0.0
C243 C 0.05672 0.06316 0.47156 0.0
C244 C 0.00265 0.03963 0.47665 0.0
C245 C 0.01053 0.01508 0.49365 0.0
C246 C 0.04178 0.0153 0.49949 0.0
C247 C 0.0646 0.03885 0.48854 0.0
H248 H 0.26825 0.92375 0.70574 0.0
H249 H 0.34117 0.98393 0.74156 0.0
H250 H 0.22938 0.96456 0.72578 0.0
H251 H 0.30236 0.02385 0.7618 0.0
H252 H 0.22503 0.13295 0.78308 0.0
H253 H 0.26402 0.09463 0.76241 0.0
H254 H 0.20799 0.95394 0.75675 0.0
H255 H 0.16895 0.99255 0.77701 0.0
C256 C 0.27595 0.94552 0.71793 0.0
C257 C 0.30773 0.95056 0.7221 0.0
C258 C 0.2537 0.96871 0.72947 0.0
C259 C 0.26276 0.99745 0.74542 0.0
C260 C 0.2946 1.00259 0.74951 0.0
C261 C 0.31683 0.97938 0.73798 0.0
C262 C 0.22111 0.09387 0.7774 0.0
C263 C 0.19394 0.0658 0.78164 0.0
C264 C 0.24348 0.0718 0.76563 0.0
C265 C 0.23908 0.02125 0.75788 0.0
C266 C 0.2119 0.99326 0.76222 0.0
C267 C 0.1896 0.01528 0.77395 0.0
H268 H 0.08911 0.21126 0.75797 0.0
H269 H 0.01842 0.16723 0.79749 0.0
H270 H 0.04967 0.25295 0.73831 0.0
H271 H 0.97912 0.21027 0.7782 0.0
H272 H 0.91213 0.24755 0.73073 0.0
H273 H 0.95166 0.20282 0.74932 0.0
H274 H 0.01636 0.32891 0.73774 0.0
H275 H 0.97696 0.37277 0.71861 0.0
C276 C 0.06512 0.21047 0.76244 0.0
C277 C 0.05682 0.18591 0.77924 0.0
C278 C 0.04255 0.23475 0.75126 0.0
C279 C 0.0112 0.23524 0.75669 0.0
C280 C 0.00294 0.21006 0.77343 0.0
C281 C 0.02548 0.18554 0.78455 0.0
C282 C 0.93479 0.26574 0.73218 0.0
C283 C 0.94146 0.3137 0.72324 0.0
C284 C 0.95743 0.24022 0.74292 0.0
C285 C 0.98723 0.26223 0.74507 0.0
C286 C 0.99382 0.3104 0.73615 0.0
C287 C 0.97119 0.33578 0.72531 0.0
H288 H 0.83629 0.74486 0.52592 0.0
H289 H 0.77668 0.88066 0.53243 0.0
H290 H 0.79691 0.70226 0.50659 0.0
H291 H 0.73761 0.83899 0.51248 0.0
H292 H 0.66138 0.72763 0.49258 0.0
H293 H 0.7008 0.76894 0.51229 0.0
H294 H 0.77267 0.70598 0.47676 0.0
H295 H 0.73317 0.6631 0.45748 0.0
C296 C 0.81485 0.76582 0.52306 0.0
C297 C 0.80953 0.81606 0.53069 0.0
C298 C 0.79231 0.74153 0.51188 0.0
C299 C 0.76403 0.76713 0.50793 0.0
C300 C 0.75888 0.8177 0.51547 0.0
C301 C 0.78134 0.8418 0.52679 0.0
C302 C 0.68563 0.72246 0.48905 0.0
C303 C 0.69423 0.69207 0.47352 0.0
C304 C 0.70823 0.74649 0.50025 0.0
C305 C 0.73997 0.74106 0.49609 0.0
C306 C 0.7485 0.71043 0.48055 0.0
C307 C 0.72588 0.68603 0.46944 0.0
H308 H 0.72532 0.11957 0.28514 0.0
H309 H 0.6584 1.00073 0.26899 0.0
H310 H 0.7639 0.0784 0.26504 0.0
H311 H 0.69717 0.95865 0.24929 0.0
H312 H 0.76628 0.92672 0.20209 0.0
H313 H 0.72656 0.96974 0.221 0.0
H314 H 0.79504 0.99981 0.2641 0.0
H315 H 0.83469 0.95827 0.24503 0.0
C316 C 0.71889 0.08461 0.2773 0.0
C317 C 0.68889 0.06332 0.27865 0.0
C318 C 0.74103 0.06079 0.26588 0.0
C319 C 0.7337 0.015 0.25562 0.0
C320 C 0.70351 0.99418 0.25682 0.0
C321 C 0.68134 0.01813 0.26819 0.0
C322 C 0.77274 0.94242 0.21563 0.0
C323 C 0.80356 0.93924 0.22207 0.0
C324 C 0.75 0.96691 0.2265 0.0
C325 C 0.75765 0.98853 0.24404 0.0
C326 C 0.78845 0.98455 0.25052 0.0
C327 C 0.81114 0.96033 0.23965 0.0
H328 H 0.97721 0.86767 0.21788 0.0
H329 H 0.91082 0.74825 0.23365 0.0
H330 H 0.01605 0.82709 0.23821 0.0
H331 H 0.94989 0.70653 0.25351 0.0
H332 H 0.01844 0.67607 0.30148 0.0
H333 H 0.97874 0.71773 0.28192 0.0
H334 H 0.04798 0.75039 0.24007 0.0
H335 H 0.08763 0.71045 0.25987 0.0
C336 C 0.97099 0.83258 0.22563 0.0
C337 C 0.94102 0.81112 0.22418 0.0
C338 C 0.99329 0.80909 0.2372 0.0
C339 C 0.98617 0.76335 0.24746 0.0
C340 C 0.95607 0.74209 0.24603 0.0
C341 C 0.93372 0.76581 0.23455 0.0
C342 C 0.02507 0.6921 0.28808 0.0
C343 C 0.0561 0.69016 0.28222 0.0
C344 C 0.00233 0.71577 0.27682 0.0
C345 C 0.01016 0.73767 0.25943 0.0
C346 C 0.0412 0.73491 0.25352 0.0
C347 C 0.06391 0.71163 0.26481 0.0
H348 H 0.33836 0.74563 0.02333 0.0
H349 H 0.2725 0.86633 0.03879 0.0
H350 H 0.29927 0.70433 0.0034 0.0
H351 H 0.23363 0.82623 0.01832 0.0
H352 H 0.1617 0.71245 0.99519 0.0
H353 H 0.20094 0.75105 0.01562 0.0
H354 H 0.27155 0.71597 0.97482 0.0
H355 H 0.23225 0.67555 0.95467 0.0
C356 C 0.31554 0.76351 0.02237 0.0
C357 C 0.30844 0.80914 0.03263 0.0
C358 C 0.29318 0.74004 0.01083 0.0
C359 C 0.26326 0.76192 0.00919 0.0
C360 C 0.25625 0.80776 0.01946 0.0
C361 C 0.27856 0.83097 0.03112 0.0
C362 C 0.18564 0.7128 0.99062 0.0
C363 C 0.19393 0.69098 0.97333 0.0
C364 C 0.20812 0.73532 1.00228 0.0
C365 C 0.23944 0.73699 0.99686 0.0
C366 C 0.24774 0.71479 0.97957 0.0
C367 C 0.22522 0.69184 0.96796 0.0
H368 H 0.01854 0.58558 0.95495 0.0
H369 H 0.09072 0.53821 0.99357 0.0
H370 H 0.97981 0.54265 0.9744 0.0
H371 H 0.05199 0.49731 0.01349 0.0
H372 H 0.91482 0.50773 0.02267 0.0
H373 H 0.95341 0.54994 0.00298 0.0
H374 H 0.01828 0.42421 0.01546 0.0
H375 H 0.98002 0.38343 0.03581 0.0
C376 C 0.02605 0.56643 0.96771 0.0
C377 C 0.05761 0.56515 0.97274 0.0
C378 C 0.00385 0.54204 0.97893 0.0
C379 C 0.01269 0.51639 0.99556 0.0
C380 C 0.04433 0.51572 1.00063 0.0
C381 C 0.06655 0.53954 0.98929 0.0
C382 C 0.93734 0.48915 0.02117 0.0
C383 C 0.94446 0.44238 0.03078 0.0
C384 C 0.95943 0.51316 0.00979 0.0
C385 C 0.98905 0.49058 0.00759 0.0
C386 C 0.99596 0.44332 0.01707 0.0
C387 C 0.97397 0.41967 0.02864 0.0
H388 H 0.33699 0.46417 0.24316 0.0
H389 H 0.26575 0.42838 0.20236 0.0
H390 H 0.29824 0.5037 0.26338 0.0
H391 H 0.22691 0.46967 0.22234 0.0
H392 H 0.16143 0.49864 0.27143 0.0
H393 H 0.19967 0.4579 0.25103 0.0
H394 H 0.26588 0.57948 0.26584 0.0
H395 H 0.22791 0.61903 0.28671 0.0
C396 C 0.31301 0.46504 0.23847 0.0
C397 C 0.30438 0.44319 0.22118 0.0
C398 C 0.2908 0.48807 0.25001 0.0
C399 C 0.25943 0.49022 0.24447 0.0
C400 C 0.25079 0.46815 0.22716 0.0
C401 C 0.27304 0.44472 0.21566 0.0
C402 C 0.18418 0.51661 0.27031 0.0
C403 C 0.19174 0.5619 0.28071 0.0
C404 C 0.20604 0.49346 0.25852 0.0
C405 C 0.23592 0.51531 0.25678 0.0
C406 C 0.2433 0.56102 0.26707 0.0
C407 C 0.2215 0.58392 0.27896 0.0
H408 H 0.73403 0.17522 0.95425 0.0
H409 H 0.66461 0.2118 0.99552 0.0
H410 H 0.7737 0.21707 0.97377 0.0
H411 H 0.70424 0.25207 0.01527 0.0
H412 H 0.77591 0.36853 0.0374 0.0
H413 H 0.73683 0.32836 0.01706 0.0
H414 H 0.80203 0.20558 0.00236 0.0
H415 H 0.84127 0.24674 0.02221 0.0
C416 C 0.72733 0.19179 0.96756 0.0
C417 C 0.69625 0.19031 0.97335 0.0
C418 C 0.75005 0.21559 0.9788 0.0
C419 C 0.74217 0.23814 0.99609 0.0
C420 C 0.71107 0.23602 1.00191 0.0
C421 C 0.68838 0.21254 0.99064 0.0
C422 C 0.78186 0.33305 0.02977 0.0
C423 C 0.81161 0.31078 0.03139 0.0
C424 C 0.75943 0.30981 0.0182 0.0
C425 C 0.76623 0.26359 0.00809 0.0
C426 C 0.7961 0.24153 0.00971 0.0
C427 C 0.81855 0.26495 0.02118 0.0
H428 H 0.66607 0.48928 0.7782 0.0
H429 H 0.72456 0.62594 0.78636 0.0
H430 H 0.70583 0.44875 0.75896 0.0
H431 H 0.76411 0.58618 0.76651 0.0
H432 H 0.84062 0.47768 0.7449 0.0
H433 H 0.80161 0.51656 0.76526 0.0
H434 H 0.72894 0.45663 0.7291 0.0
H435 H 0.76795 0.41632 0.70917 0.0
C436 C 0.6874 0.51082 0.77578 0.0
C437 C 0.6922 0.56083 0.78376 0.0
C438 C 0.71015 0.48771 0.76463 0.0
C439 C 0.73817 0.51424 0.76106 0.0
C440 C 0.743 0.56428 0.76914 0.0
C441 C 0.72028 0.58725 0.78043 0.0
C442 C 0.81628 0.47265 0.74138 0.0
C443 C 0.80731 0.44383 0.72548 0.0
C444 C 0.79392 0.49527 0.75297 0.0
C445 C 0.76207 0.48986 0.74884 0.0
C446 C 0.7532 0.46091 0.7329 0.0
C447 C 0.77556 0.43799 0.7214 0.0
H448 H 0.52283 0.11681 0.96664 0.0
H449 H 0.59036 1.00073 0.9843 0.0
H450 H 0.48427 0.07671 0.98698 0.0
H451 H 0.55162 0.95954 0.0042 0.0
H452 H 0.48358 0.93158 0.05197 0.0
H453 H 0.5227 0.97301 0.03228 0.0
H454 H 0.45313 0.99898 0.98948 0.0
H455 H 0.41401 0.95916 0.00938 0.0
C456 C 0.52936 0.08256 0.97481 0.0
C457 C 0.55958 0.06191 0.97389 0.0
C458 C 0.50724 0.05934 0.98639 0.0
C459 C 0.51479 0.01475 0.99721 0.0
C460 C 0.5451 0.99425 0.99628 0.0
C461 C 0.56727 0.01766 0.98478 0.0
C462 C 0.47673 0.94613 0.03834 0.0
C463 C 0.44576 0.94225 0.03222 0.0
C464 C 0.49914 0.96964 0.02701 0.0
C465 C 0.49107 0.9895 0.00929 0.0
C466 C 0.46008 0.98503 0.00316 0.0
C467 C 0.43768 0.96183 0.01451 0.0
H468 H 0.41062 0.28293 0.24094 0.0
H469 H 0.481 0.33187 0.20194 0.0
H470 H 0.45028 0.24218 0.2605 0.0
H471 H 0.52079 0.28943 0.22123 0.0
H472 H 0.58636 0.25796 0.27071 0.0
H473 H 0.54736 0.29835 0.25048 0.0
H474 H 0.48482 0.16878 0.26159 0.0
H475 H 0.52354 0.12943 0.28233 0.0
C476 C 0.4346 0.28465 0.23649 0.0
C477 C 0.44274 0.31061 0.21992 0.0
C478 C 0.45734 0.26092 0.24764 0.0
C479 C 0.48876 0.2622 0.24242 0.0
C480 C 0.49687 0.28822 0.2258 0.0
C481 C 0.47409 0.31233 0.21469 0.0
C482 C 0.56429 0.23808 0.26879 0.0
C483 C 0.55792 0.19065 0.27815 0.0
C484 C 0.54199 0.26106 0.25709 0.0
C485 C 0.51288 0.23693 0.25441 0.0
C486 C 0.50677 0.18896 0.26358 0.0
C487 C 0.52901 0.16619 0.27538 0.0
H488 H 0.48038 0.86859 0.71411 0.0
H489 H 0.41342 0.74965 0.72939 0.0
H490 H 0.51916 0.82639 0.73415 0.0
H491 H 0.45232 0.70616 0.74876 0.0
H492 H 0.51753 0.6741 0.7975 0.0
H493 H 0.47939 0.71623 0.77718 0.0
H494 H 0.55164 0.75128 0.73743 0.0
H495 H 0.58995 0.711 0.75823 0.0
C496 C 0.47407 0.83315 0.72163 0.0
C497 C 0.44387 0.81256 0.72027 0.0
C498 C 0.49633 0.80871 0.73303 0.0
C499 C 0.48892 0.76284 0.74316 0.0
C500 C 0.45875 0.74196 0.7415 0.0
C501 C 0.43646 0.7667 0.73029 0.0
C502 C 0.52521 0.69068 0.78439 0.0
C503 C 0.55669 0.68927 0.77944 0.0
C504 C 0.50332 0.71462 0.77266 0.0
C505 C 0.51234 0.73717 0.75559 0.0
C506 C 0.54388 0.73515 0.75058 0.0
C507 C 0.56583 0.7117 0.76243 0.0
H508 H 0.41497 0.46098 0.50936 0.0
H509 H 0.48312 0.43791 0.55311 0.0
H510 H 0.45445 0.50097 0.48976 0.0
H511 H 0.52262 0.47927 0.53364 0.0
H512 H 0.59129 0.5047 0.48562 0.0
H513 H 0.55246 0.46431 0.50568 0.0
H514 H 0.48503 0.58023 0.48757 0.0
H515 H 0.52371 0.61972 0.46715 0.0
C516 C 0.43841 0.46461 0.51481 0.0
C517 C 0.44597 0.4463 0.53277 0.0
C518 C 0.461 0.48791 0.50362 0.0
C519 C 0.49169 0.49366 0.51015 0.0
C520 C 0.49929 0.47497 0.5281 0.0
C521 C 0.47666 0.45147 0.53928 0.0
C522 C 0.56818 0.5216 0.48596 0.0
C523 C 0.56049 0.56527 0.47477 0.0
C524 C 0.54597 0.49863 0.49754 0.0
C525 C 0.51559 0.51891 0.49821 0.0
C526 C 0.50807 0.56308 0.48717 0.0
C527 C 0.53027 0.58594 0.47555 0.0
H528 H 0.12054 0.72617 0.37483 0.0
H529 H 0.16359 0.80724 0.32875 0.0
H530 H 0.12455 0.80621 0.39375 0.0
H531 H 0.16718 0.88765 0.34766 0.0
H532 H 0.12093 0.02955 0.38022 0.0
H533 H 0.1248 0.94946 0.36134 0.0
H534 H 0.167 0.86767 0.40786 0.0
H535 H 0.16356 0.94812 0.42672 0.0
C536 C 0.13106 0.761 0.36881 0.0
C537 C 0.14169 0.7606 0.35032 0.0
C538 C 0.13349 0.80666 0.37966 0.0
C539 C 0.14614 0.85302 0.37214 0.0
C540 C 0.15721 0.85243 0.35374 0.0
C541 C 0.15527 0.80645 0.34298 0.0
C542 C 0.13132 0.99462 0.38635 0.0
C543 C 0.14188 0.99494 0.40494 0.0
C544 C 0.13368 0.94894 0.37552 0.0
C545 C 0.14617 0.90247 0.38317 0.0
C546 C 0.15716 0.90298 0.40167 0.0
C547 C 0.15529 0.94898 0.41242 0.0
H548 H 0.07277 0.28307 0.41356 0.0
H549 H 0.16487 0.25013 0.39297 0.0
H550 H 0.07129 0.36435 0.39503 0.0
H551 H 0.16327 0.33055 0.37447 0.0
H552 H 0.16571 0.50594 0.36227 0.0
H553 H 0.16407 0.426 0.38106 0.0
H554 H 0.07055 0.39541 0.36169 0.0
H555 H 0.07208 0.47612 0.34291 0.0
C556 C 0.09258 0.29302 0.40501 0.0
C557 C 0.11899 0.26041 0.40478 0.0
C558 C 0.09168 0.33937 0.39436 0.0
C559 C 0.11728 0.35403 0.38343 0.0
C560 C 0.1434 0.32081 0.383 0.0
C561 C 0.14423 0.27455 0.39352 0.0
C562 C 0.14473 0.48235 0.36207 0.0
C563 C 0.11907 0.49716 0.35105 0.0
C564 C 0.14385 0.43638 0.37275 0.0
C565 C 0.11728 0.40417 0.37272 0.0
C566 C 0.09128 0.4196 0.36206 0.0
C567 C 0.09221 0.46562 0.35126 0.0
H568 H 0.17546 0.24229 0.86342 0.0
H569 H 0.09499 0.30298 0.83428 0.0
H570 H 0.17673 0.32178 0.88294 0.0
H571 H 0.09705 0.3829 0.85287 0.0
H572 H 0.08314 0.48847 0.90207 0.0
H573 H 0.08541 0.40933 0.88314 0.0
H574 H 0.18582 0.41482 0.88483 0.0
H575 H 0.18332 0.49339 0.90473 0.0
C576 C 0.15835 0.27296 0.86104 0.0
C577 C 0.13489 0.26626 0.84754 0.0
C578 C 0.15913 0.31861 0.87214 0.0
C579 C 0.13669 0.3586 0.86973 0.0
C580 C 0.11413 0.35243 0.8556 0.0
C581 C 0.11306 0.30669 0.8448 0.0
C582 C 0.10573 0.47286 0.89841 0.0
C583 C 0.13305 0.49734 0.90476 0.0
C584 C 0.10708 0.42755 0.8874 0.0
C585 C 0.13582 0.40589 0.88214 0.0
C586 C 0.16327 0.43011 0.88869 0.0
C587 C 0.16188 0.47528 0.89999 0.0
H588 H 0.09038 0.81289 0.92794 0.0
H589 H 0.12823 0.73213 0.88011 0.0
H590 H 0.08671 0.89445 0.90971 0.0
H591 H 0.12415 0.81335 0.86187 0.0
H592 H 0.08394 0.95615 0.83066 0.0
H593 H 0.08122 0.87592 0.84952 0.0
H594 H 0.128 0.95615 0.89482 0.0
H595 H 0.13112 0.03632 0.87588 0.0
C596 C 0.09759 0.81246 0.91349 0.0
C597 C 0.10963 0.76626 0.90543 0.0
C598 C 0.09562 0.85911 0.90311 0.0
C599 C 0.10512 0.86009 0.88441 0.0
C600 C 0.1164 0.81353 0.87622 0.0
C601 C 0.11886 0.76716 0.88668 0.0
C602 C 0.09332 0.95685 0.84472 0.0
C603 C 0.10783 1.0024 0.8518 0.0
C604 C 0.09189 0.91089 0.85545 0.0
C605 C 0.10449 0.90988 0.87357 0.0
C606 C 0.11794 0.95602 0.88092 0.0
C607 C 0.11982 1.00176 0.87008 0.0
H608 H 0.82238 0.22694 0.66375 0.0
H609 H 0.91065 0.26942 0.63969 0.0
H610 H 0.82192 0.14557 0.64535 0.0
H611 H 0.91002 0.18865 0.62122 0.0
H612 H 0.91722 0.0124 0.60945 0.0
H613 H 0.91518 0.09368 0.62758 0.0
H614 H 0.81845 0.11298 0.61265 0.0
H615 H 0.82041 0.03105 0.59458 0.0
C616 C 0.84151 0.21914 0.65441 0.0
C617 C 0.86661 0.25443 0.65321 0.0
C618 C 0.8412 0.17266 0.64383 0.0
C619 C 0.86606 0.16049 0.63195 0.0
C620 C 0.89078 0.19647 0.63048 0.0
C621 C 0.89103 0.24293 0.64097 0.0
C622 C 0.89547 0.03383 0.61009 0.0
C623 C 0.86899 0.01543 0.60056 0.0
C624 C 0.89436 0.0806 0.62038 0.0
C625 C 0.86673 0.11 0.62141 0.0
C626 C 0.84003 0.09104 0.61219 0.0
C627 C 0.84118 0.04427 0.60181 0.0
H628 H 0.83609 0.50959 0.64387 0.0
H629 H 0.92901 0.53855 0.6646 0.0
H630 H 0.83808 0.59108 0.62594 0.0
H631 H 0.93089 0.6208 0.6467 0.0
H632 H 0.93061 0.7341 0.59508 0.0
H633 H 0.93155 0.65331 0.61379 0.0
H634 H 0.83845 0.68627 0.63267 0.0
H635 H 0.83739 0.76638 0.61391 0.0
C636 C 0.85699 0.53336 0.64457 0.0
C637 C 0.88237 0.51776 0.65568 0.0
C638 C 0.85804 0.58025 0.6344 0.0
C639 C 0.88453 0.61264 0.63505 0.0
C640 C 0.91021 0.59654 0.64586 0.0
C641 C 0.9091 0.54959 0.65614 0.0
C642 C 0.91048 0.72422 0.60336 0.0
C643 C 0.88387 0.75639 0.60296 0.0
C644 C 0.91105 0.67809 0.61411 0.0
C645 C 0.88496 0.66318 0.62456 0.0
C646 C 0.85872 0.69621 0.62451 0.0
C647 C 0.85819 0.74229 0.61386 0.0
H648 H 0.91879 0.50271 0.11136 0.0
H649 H 0.82281 0.52337 0.09494 0.0
H650 H 0.91633 0.58335 0.1298 0.0
H651 H 0.82045 0.60481 0.11327 0.0
H652 H 0.82279 0.71983 0.1641 0.0
H653 H 0.82251 0.638 0.1459 0.0
H654 H 0.91238 0.67797 0.12347 0.0
H655 H 0.91283 0.75896 0.14175 0.0
C656 C 0.89712 0.52444 0.11173 0.0
C657 C 0.87102 0.50682 0.10165 0.0
C658 C 0.89577 0.57085 0.1222 0.0
C659 C 0.86828 0.60075 0.12285 0.0
C660 C 0.84191 0.58249 0.11312 0.0
C661 C 0.84329 0.536 0.10258 0.0
C662 C 0.84237 0.71116 0.1552 0.0
C663 C 0.86789 0.74566 0.15442 0.0
C664 C 0.84217 0.66444 0.14474 0.0
C665 C 0.86755 0.65129 0.13338 0.0
C666 C 0.89272 0.68646 0.13235 0.0
C667 C 0.89289 0.73307 0.14273 0.0
H668 H 0.90673 0.05998 0.17916 0.0
H669 H 0.87338 0.97634 0.13046 0.0
H670 H 0.91027 0.14126 0.16076 0.0
H671 H 0.87753 0.05726 0.11205 0.0
H672 H 0.91945 0.2029 0.08245 0.0
H673 H 0.92178 0.12271 0.10146 0.0
H674 H 0.86705 0.19901 0.14391 0.0
H675 H 0.86416 0.2789 0.12477 0.0
C676 C 0.90054 0.05885 0.16449 0.0
C677 C 0.88972 0.01198 0.15622 0.0
C678 C 0.90245 0.1053 0.15402 0.0
C679 C 0.89418 0.10533 0.13503 0.0
C680 C 0.88425 0.0581 0.12664 0.0
C681 C 0.88176 0.01195 0.13718 0.0
C682 C 0.90816 0.20267 0.09592 0.0
C683 C 0.89154 0.24698 0.10214 0.0
C684 C 0.9094 0.1568 0.10672 0.0
C685 C 0.89459 0.15485 0.1241 0.0
C686 C 0.87884 0.19973 0.13061 0.0
C687 C 0.87709 0.24525 0.11964 0.0
H688 H 0.67942 0.77571 0.8449 0.0
H689 H 0.58296 0.7566 0.85969 0.0
H690 H 0.6817 0.85726 0.86327 0.0
H691 H 0.58533 0.83716 0.87812 0.0
H692 H 0.58886 0.01187 0.89067 0.0
H693 H 0.58982 0.93168 0.87198 0.0
H694 H 0.67884 0.89017 0.89599 0.0
H695 H 0.67808 0.97126 0.91462 0.0
C696 C 0.65881 0.78874 0.85216 0.0
C697 C 0.63098 0.75994 0.85078 0.0
C698 C 0.66014 0.83526 0.86272 0.0
C699 C 0.63361 0.85391 0.87201 0.0
C700 C 0.60601 0.82442 0.87086 0.0
C701 C 0.60472 0.77803 0.86039 0.0
C702 C 0.60874 0.98583 0.89191 0.0
C703 C 0.63333 0.99772 0.90419 0.0
C704 C 0.6092 0.93969 0.88128 0.0
C705 C 0.63425 0.90427 0.88265 0.0
C706 C 0.65928 0.91681 0.89456 0.0
C707 C 0.65879 0.96308 0.90527 0.0
H708 H 0.59161 0.30979 0.92819 0.0
H709 H 0.63081 0.2281 0.88095 0.0
H710 H 0.58818 0.39088 0.90964 0.0
H711 H 0.62682 0.30878 0.86239 0.0
H712 H 0.58508 0.45148 0.83088 0.0
H713 H 0.58277 0.37129 0.84985 0.0
H714 H 0.63101 0.45156 0.89458 0.0
H715 H 0.63385 0.53154 0.87552 0.0
C716 C 0.59913 0.30905 0.9138 0.0
C717 C 0.61153 0.26278 0.906 0.0
C718 C 0.59729 0.3554 0.90325 0.0
C719 C 0.60722 0.35592 0.88462 0.0
C720 C 0.61879 0.30926 0.87668 0.0
C721 C 0.62119 0.26324 0.88732 0.0
C722 C 0.59494 0.45211 0.84482 0.0
C723 C 0.60972 0.49762 0.85173 0.0
C724 C 0.59372 0.40624 0.85562 0.0
C725 C 0.60673 0.40538 0.87364 0.0
C726 C 0.62062 0.45138 0.88077 0.0
C727 C 0.62235 0.49697 0.86985 0.0
H728 H 0.58381 0.25065 0.36071 0.0
H729 H 0.67837 0.2776 0.34331 0.0
H730 H 0.58546 0.33117 0.3793 0.0
H731 H 0.67992 0.35876 0.36183 0.0
H732 H 0.67804 0.47172 0.41311 0.0
H733 H 0.67874 0.39024 0.39476 0.0
H734 H 0.58733 0.42663 0.3731 0.0
H735 H 0.5865 0.50752 0.3915 0.0
C736 C 0.605 0.27371 0.36091 0.0
C737 C 0.63093 0.2579 0.35051 0.0
C738 C 0.60587 0.32003 0.37146 0.0
C739 C 0.63273 0.35157 0.3719 0.0
C740 C 0.65895 0.33513 0.36185 0.0
C741 C 0.65803 0.28879 0.3512 0.0
C742 C 0.65819 0.46236 0.40435 0.0
C743 C 0.63217 0.49588 0.40379 0.0
C744 C 0.65864 0.41584 0.3938 0.0
C745 C 0.633 0.40183 0.38259 0.0
C746 C 0.60723 0.4359 0.38183 0.0
C747 C 0.60685 0.48242 0.39228 0.0
H748 H 0.57179 0.78323 0.41316 0.0
H749 H 0.6628 0.74883 0.39122 0.0
H750 H 0.57018 0.86493 0.39495 0.0
H751 H 0.66105 0.82977 0.37295 0.0
H752 H 0.66415 0.00536 0.36092 0.0
H753 H 0.66295 0.92487 0.37946 0.0
H754 H 0.56801 0.89741 0.36213 0.0
H755 H 0.56909 0.97863 0.34366 0.0
C756 C 0.59131 0.79292 0.40435 0.0
C757 C 0.61747 0.75977 0.40367 0.0
C758 C 0.59034 0.83956 0.39388 0.0
C759 C 0.61561 0.85402 0.38265 0.0
C760 C 0.64145 0.82022 0.38173 0.0
C761 C 0.64236 0.77364 0.3921 0.0
C762 C 0.64294 0.98236 0.36114 0.0
C763 C 0.61675 0.9982 0.35078 0.0
C764 C 0.64232 0.93605 0.37167 0.0
C765 C 0.61548 0.9045 0.37211 0.0
C766 C 0.58897 0.92103 0.36213 0.0
C767 C 0.58963 0.9674 0.35152 0.0
H768 H 0.37945 0.28054 0.12895 0.0
H769 H 0.33514 0.20048 0.17481 0.0
H770 H 0.37598 0.20009 0.11021 0.0
H771 H 0.3322 0.11956 0.1561 0.0
H772 H 0.38122 0.97796 0.12428 0.0
H773 H 0.37609 0.05831 0.14293 0.0
H774 H 0.33343 0.13755 0.09602 0.0
H775 H 0.33805 0.05678 0.0774 0.0
C776 C 0.36875 0.24584 0.13496 0.0
C777 C 0.35761 0.24663 0.15333 0.0
C778 C 0.36663 0.19996 0.12421 0.0
C779 C 0.35385 0.15373 0.13174 0.0
C780 C 0.34224 0.15471 0.15001 0.0
C781 C 0.34382 0.20096 0.16066 0.0
C782 C 0.37044 0.01237 0.11802 0.0
C783 C 0.36011 0.01126 0.09939 0.0
C784 C 0.36737 0.05817 0.12872 0.0
C785 C 0.35439 0.104 0.12088 0.0
C786 C 0.34361 0.10271 0.10234 0.0
C787 C 0.34617 0.05654 0.09173 0.0
H788 H 0.40788 0.55946 0.17727 0.0
H789 H 0.36934 0.47866 0.12935 0.0
H790 H 0.41176 0.64081 0.15889 0.0
H791 H 0.37391 0.55951 0.11094 0.0
H792 H 0.41654 0.70373 0.0806 0.0
H793 H 0.41925 0.62323 0.09949 0.0
H794 H 0.36752 0.70041 0.14308 0.0
H795 H 0.36418 0.78047 0.12408 0.0
C796 C 0.40065 0.55895 0.16277 0.0
C797 C 0.38823 0.51292 0.15472 0.0
C798 C 0.40277 0.60541 0.15231 0.0
C799 C 0.39318 0.60619 0.13354 0.0
C800 C 0.38168 0.55973 0.12535 0.0
C801 C 0.37894 0.51365 0.1359 0.0
C802 C 0.40602 0.7036 0.09429 0.0
C803 C 0.39005 0.74816 0.10088 0.0
C804 C 0.40749 0.6576 0.10503 0.0
C805 C 0.39361 0.65584 0.1227 0.0
C806 C 0.37859 0.70099 0.12955 0.0
C807 C 0.37656 0.74659 0.11866 0.0
H808 H 0.3882 0.78514 0.62989 0.0
H809 H 0.33255 0.71218 0.67264 0.0
H810 H 0.38405 0.70509 0.61094 0.0
H811 H 0.32888 0.63172 0.65377 0.0
H812 H 0.37503 0.48286 0.62492 0.0
H813 H 0.37129 0.56404 0.64324 0.0
H814 H 0.34105 0.64873 0.59414 0.0
H815 H 0.34425 0.5672 0.57582 0.0
C816 C 0.37491 0.75212 0.63516 0.0
C817 C 0.36075 0.75477 0.65274 0.0
C818 C 0.37241 0.70649 0.62428 0.0
C819 C 0.35617 0.66233 0.63092 0.0
C820 C 0.34163 0.66522 0.64838 0.0
C821 C 0.34364 0.71124 0.65912 0.0
C822 C 0.36725 0.51868 0.61809 0.0
C823 C 0.35998 0.51882 0.59896 0.0
C824 C 0.36498 0.565 0.62859 0.0
C825 C 0.35593 0.61254 0.62007 0.0
C826 C 0.3482 0.61257 0.60099 0.0
C827 C 0.34991 0.56597 0.59056 0.0
H828 H 0.41564 0.20914 0.5799 0.0
H829 H 0.36587 0.28576 0.62449 0.0
H830 H 0.41878 0.12815 0.59851 0.0
H831 H 0.3697 0.20523 0.64321 0.0
H832 H 0.41167 0.06376 0.67638 0.0
H833 H 0.41492 0.14506 0.65796 0.0
H834 H 0.37352 0.06469 0.61087 0.0
H835 H 0.36957 0.98383 0.62935 0.0
C836 C 0.4058 0.20887 0.59376 0.0
C837 C 0.39045 0.25358 0.60076 0.0
C838 C 0.4075 0.16258 0.60435 0.0
C839 C 0.39451 0.16068 0.62226 0.0
C840 C 0.38009 0.20592 0.62949 0.0
C841 C 0.37779 0.2518 0.61876 0.0
C842 C 0.40353 0.06341 0.66205 0.0
C843 C 0.39029 0.01764 0.65429 0.0
C844 C 0.40529 0.10986 0.65157 0.0
C845 C 0.3945 0.11091 0.63304 0.0
C846 C 0.3822 0.06469 0.62509 0.0
C847 C 0.37983 0.0186 0.63568 0.0
loop_
_geom_bond_atom_site_label_1
_geom_bond_atom_site_label_2
_geom_bond_distance
_geom_bond_site_symmetry_2
_ccdc_geom_bond_type
In0 O1 2.294 . S
In0 O2 2.326 . S
In0 O6 2.266 . S
In0 O7 2.326 . S
In0 O8 2.266 . S
In0 O9 2.326 . S
In0 O11 2.294 . S
In0 O12 2.326 . S
O1 In0 2.294 . S
O1 C10 1.240 . S
O2 In0 2.326 . S
O2 C10 1.252 . S
C3 O6 1.252 . S
C3 O7 1.260 . S
C4 O11 1.240 . S
C4 O12 1.252 . S
C5 O8 1.252 . S
C5 O9 1.260 . S
O6 In0 2.266 . S
O6 C3 1.252 . S
O7 In0 2.326 . S
O7 C3 1.260 . S
O8 In0 2.266 . S
O8 C5 1.252 . S
O9 In0 2.326 . S
O9 C5 1.260 . S
C10 O1 1.240 . S
C10 O2 1.252 . S
O11 In0 2.294 . S
O11 C4 1.240 . S
O12 In0 2.326 . S
O12 C4 1.252 . S
In13 O14 2.294 . S
In13 O15 2.326 . S
In13 O19 2.266 . S
In13 O20 2.326 . S
In13 O21 2.266 . S
In13 O22 2.326 . S
In13 O24 2.294 . S
In13 O25 2.326 . S
O14 In13 2.294 . S
O14 C23 1.240 . S
O15 In13 2.326 . S
O15 C23 1.252 . S
C16 O19 1.252 . S
C16 O20 1.260 . S
C17 O24 1.240 . S
C17 O25 1.252 . S
C18 O21 1.252 . S
C18 O22 1.260 . S
O19 In13 2.266 . S
O19 C16 1.252 . S
O20 In13 2.326 . S
O20 C16 1.260 . S
O21 In13 2.266 . S
O21 C18 1.252 . S
O22 In13 2.326 . S
O22 C18 1.260 . S
C23 O14 1.240 . S
C23 O15 1.252 . S
O24 In13 2.294 . S
O24 C17 1.240 . S
O25 In13 2.326 . S
O25 C17 1.252 . S
In26 O27 2.294 . S
In26 O28 2.326 . S
In26 O32 2.266 . S
In26 O33 2.326 . S
In26 O34 2.266 . S
In26 O35 2.326 . S
In26 O37 2.294 . S
In26 O38 2.326 . S
O27 In26 2.294 . S
O27 C36 1.240 . S
O28 In26 2.326 . S
O28 C36 1.252 . S
C29 O32 1.252 . S
C29 O33 1.260 . S
C30 O37 1.240 . S
C30 O38 1.252 . S
C31 O34 1.252 . S
C31 O35 1.260 . S
O32 In26 2.266 . S
O32 C29 1.252 . S
O33 In26 2.326 . S
O33 C29 1.260 . S
O34 In26 2.266 . S
O34 C31 1.252 . S
O35 In26 2.326 . S
O35 C31 1.260 . S
C36 O27 1.240 . S
C36 O28 1.252 . S
O37 In26 2.294 . S
O37 C30 1.240 . S
O38 In26 2.326 . S
O38 C30 1.252 . S
In39 O40 2.294 . S
In39 O41 2.326 . S
In39 O45 2.266 . S
In39 O46 2.326 . S
In39 O47 2.266 . S
In39 O48 2.326 . S
In39 O50 2.294 . S
In39 O51 2.326 . S
O40 In39 2.294 . S
O40 C49 1.240 . S
O41 In39 2.326 . S
O41 C49 1.252 . S
C42 O45 1.252 . S
C42 O46 1.260 . S
C43 O50 1.240 . S
C43 O51 1.252 . S
C44 O47 1.252 . S
C44 O48 1.260 . S
O45 In39 2.266 . S
O45 C42 1.252 . S
O46 In39 2.326 . S
O46 C42 1.260 . S
O47 In39 2.266 . S
O47 C44 1.252 . S
O48 In39 2.326 . S
O48 C44 1.260 . S
C49 O40 1.240 . S
C49 O41 1.252 . S
O50 In39 2.294 . S
O50 C43 1.240 . S
O51 In39 2.326 . S
O51 C43 1.252 . S
In52 O53 2.294 . S
In52 O54 2.326 . S
In52 O58 2.266 . S
In52 O59 2.326 . S
In52 O60 2.266 . S
In52 O61 2.326 . S
In52 O63 2.294 . S
In52 O64 2.326 . S
O53 In52 2.294 . S
O53 C62 1.240 . S
O54 In52 2.326 . S
O54 C62 1.252 . S
C55 O58 1.252 . S
C55 O59 1.260 . S
C56 O63 1.240 . S
C56 O64 1.252 . S
C57 O60 1.252 . S
C57 O61 1.260 . S
O58 In52 2.266 . S
O58 C55 1.252 . S
O59 In52 2.326 . S
O59 C55 1.260 . S
O60 In52 2.266 . S
O60 C57 1.252 . S
O61 In52 2.326 . S
O61 C57 1.260 . S
C62 O53 1.240 . S
C62 O54 1.252 . S
O63 In52 2.294 . S
O63 C56 1.240 . S
O64 In52 2.326 . S
O64 C56 1.252 . S
In65 O66 2.294 . S
In65 O67 2.326 . S
In65 O71 2.266 . S
In65 O72 2.326 . S
In65 O73 2.266 . S
In65 O74 2.326 . S
In65 O76 2.294 . S
In65 O77 2.326 . S
O66 In65 2.294 . S
O66 C75 1.240 . S
O67 In65 2.326 . S
O67 C75 1.252 . S
C68 O71 1.252 . S
C68 O72 1.260 . S
C69 O76 1.240 . S
C69 O77 1.252 . S
C70 O73 1.252 . S
C70 O74 1.260 . S
O71 In65 2.266 . S
O71 C68 1.252 . S
O72 In65 2.326 . S
O72 C68 1.260 . S
O73 In65 2.266 . S
O73 C70 1.252 . S
O74 In65 2.326 . S
O74 C70 1.260 . S
C75 O66 1.240 . S
C75 O67 1.252 . S
O76 In65 2.294 . S
O76 C69 1.240 . S
O77 In65 2.326 . S
O77 C69 1.252 . S
In78 O79 2.294 . S
In78 O80 2.326 . S
In78 O84 2.266 . S
In78 O85 2.326 . S
In78 O86 2.266 . S
In78 O87 2.326 . S
In78 O89 2.294 . S
In78 O90 2.326 . S
O79 In78 2.294 . S
O79 C88 1.240 . S
O80 In78 2.326 . S
O80 C88 1.252 . S
C81 O84 1.252 . S
C81 O85 1.260 . S
C82 O89 1.240 . S
C82 O90 1.252 . S
C83 O86 1.252 . S
C83 O87 1.260 . S
O84 In78 2.266 . S
O84 C81 1.252 . S
O85 In78 2.326 . S
O85 C81 1.260 . S
O86 In78 2.266 . S
O86 C83 1.252 . S
O87 In78 2.326 . S
O87 C83 1.260 . S
C88 O79 1.240 . S
C88 O80 1.252 . S
O89 In78 2.294 . S
O89 C82 1.240 . S
O90 In78 2.326 . S
O90 C82 1.252 . S
In91 O92 2.294 . S
In91 O93 2.326 . S
In91 O97 2.266 . S
In91 O98 2.326 . S
In91 O99 2.266 . S
In91 O100 2.326 . S
In91 O102 2.294 . S
In91 O103 2.326 . S
O92 In91 2.294 . S
O92 C101 1.240 . S
O93 In91 2.326 . S
O93 C101 1.252 . S
C94 O97 1.252 . S
C94 O98 1.260 . S
C95 O102 1.240 . S
C95 O103 1.252 . S
C96 O99 1.252 . S
C96 O100 1.260 . S
O97 In91 2.266 . S
O97 C94 1.252 . S
O98 In91 2.326 . S
O98 C94 1.260 . S
O99 In91 2.266 . S
O99 C96 1.252 . S
O100 In91 2.326 . S
O100 C96 1.260 . S
C101 O92 1.240 . S
C101 O93 1.252 . S
O102 In91 2.294 . S
O102 C95 1.240 . S
O103 In91 2.326 . S
O103 C95 1.252 . S
In104 O105 2.294 . S
In104 O106 2.326 . S
In104 O110 2.266 . S
In104 O111 2.326 . S
In104 O112 2.266 . S
In104 O113 2.326 . S
In104 O115 2.294 . S
In104 O116 2.326 . S
O105 In104 2.294 . S
O105 C114 1.240 . S
O106 In104 2.326 . S
O106 C114 1.252 . S
C107 O110 1.252 . S
C107 O111 1.260 . S
C108 O115 1.240 . S
C108 O116 1.252 . S
C109 O112 1.252 . S
C109 O113 1.260 . S
O110 In104 2.266 . S
O110 C107 1.252 . S
O111 In104 2.326 . S
O111 C107 1.260 . S
O112 In104 2.266 . S
O112 C109 1.252 . S
O113 In104 2.326 . S
O113 C109 1.260 . S
C114 O105 1.240 . S
C114 O106 1.252 . S
O115 In104 2.294 . S
O115 C108 1.240 . S
O116 In104 2.326 . S
O116 C108 1.252 . S
In117 O118 2.294 . S
In117 O119 2.326 . S
In117 O123 2.266 . S
In117 O124 2.326 . S
In117 O125 2.266 . S
In117 O126 2.326 . S
In117 O128 2.294 . S
In117 O129 2.326 . S
O118 In117 2.294 . S
O118 C127 1.240 . S
O119 In117 2.326 . S
O119 C127 1.252 . S
C120 O123 1.252 . S
C120 O124 1.260 . S
C121 O128 1.240 . S
C121 O129 1.252 . S
C122 O125 1.252 . S
C122 O126 1.260 . S
O123 In117 2.266 . S
O123 C120 1.252 . S
O124 In117 2.326 . S
O124 C120 1.260 . S
O125 In117 2.266 . S
O125 C122 1.252 . S
O126 In117 2.326 . S
O126 C122 1.260 . S
C127 O118 1.240 . S
C127 O119 1.252 . S
O128 In117 2.294 . S
O128 C121 1.240 . S
O129 In117 2.326 . S
O129 C121 1.252 . S
In130 O131 2.294 . S
In130 O132 2.326 . S
In130 O136 2.266 . S
In130 O137 2.326 . S
In130 O138 2.266 . S
In130 O139 2.326 . S
In130 O141 2.294 . S
In130 O142 2.326 . S
O131 In130 2.294 . S
O131 C140 1.240 . S
O132 In130 2.326 . S
O132 C140 1.252 . S
C133 O136 1.252 . S
C133 O137 1.260 . S
C134 O141 1.240 . S
C134 O142 1.252 . S
C135 O138 1.252 . S
C135 O139 1.260 . S
O136 In130 2.266 . S
O136 C133 1.252 . S
O137 In130 2.326 . S
O137 C133 1.260 . S
O138 In130 2.266 . S
O138 C135 1.252 . S
O139 In130 2.326 . S
O139 C135 1.260 . S
C140 O131 1.240 . S
C140 O132 1.252 . S
O141 In130 2.294 . S
O141 C134 1.240 . S
O142 In130 2.326 . S
O142 C134 1.252 . S
In143 O144 2.294 . S
In143 O145 2.326 . S
In143 O149 2.266 . S
In143 O150 2.326 . S
In143 O151 2.266 . S
In143 O152 2.326 . S
In143 O154 2.294 . S
In143 O155 2.326 . S
O144 In143 2.294 . S
O144 C153 1.240 . S
O145 In143 2.326 . S
O145 C153 1.252 . S
C146 O149 1.252 . S
C146 O150 1.260 . S
C147 O154 1.240 . S
C147 O155 1.252 . S
C148 O151 1.252 . S
C148 O152 1.260 . S
O149 In143 2.266 . S
O149 C146 1.252 . S
O150 In143 2.326 . S
O150 C146 1.260 . S
O151 In143 2.266 . S
O151 C148 1.252 . S
O152 In143 2.326 . S
O152 C148 1.260 . S
C153 O144 1.240 . S
C153 O145 1.252 . S
O154 In143 2.294 . S
O154 C147 1.240 . S
O155 In143 2.326 . S
O155 C147 1.252 . S
In156 O157 2.294 . S
In156 O158 2.326 . S
In156 O162 2.266 . S
In156 O163 2.326 . S
In156 O164 2.266 . S
In156 O165 2.326 . S
In156 O167 2.294 . S
In156 O168 2.326 . S
O157 In156 2.294 . S
O157 C166 1.240 . S
O158 In156 2.326 . S
O158 C166 1.252 . S
C159 O162 1.252 . S
C159 O163 1.260 . S
C160 O167 1.240 . S
C160 O168 1.252 . S
C161 O164 1.252 . S
C161 O165 1.260 . S
O162 In156 2.266 . S
O162 C159 1.252 . S
O163 In156 2.326 . S
O163 C159 1.260 . S
O164 In156 2.266 . S
O164 C161 1.252 . S
O165 In156 2.326 . S
O165 C161 1.260 . S
C166 O157 1.240 . S
C166 O158 1.252 . S
O167 In156 2.294 . S
O167 C160 1.240 . S
O168 In156 2.326 . S
O168 C160 1.252 . S
In169 O170 2.294 . S
In169 O171 2.326 . S
In169 O175 2.266 . S
In169 O176 2.326 . S
In169 O177 2.266 . S
In169 O178 2.326 . S
In169 O180 2.294 . S
In169 O181 2.326 . S
O170 In169 2.294 . S
O170 C179 1.240 . S
O171 In169 2.326 . S
O171 C179 1.252 . S
C172 O175 1.252 . S
C172 O176 1.260 . S
C173 O180 1.240 . S
C173 O181 1.252 . S
C174 O177 1.252 . S
C174 O178 1.260 . S
O175 In169 2.266 . S
O175 C172 1.252 . S
O176 In169 2.326 . S
O176 C172 1.260 . S
O177 In169 2.266 . S
O177 C174 1.252 . S
O178 In169 2.326 . S
O178 C174 1.260 . S
C179 O170 1.240 . S
C179 O171 1.252 . S
O180 In169 2.294 . S
O180 C173 1.240 . S
O181 In169 2.326 . S
O181 C173 1.252 . S
In182 O183 2.294 . S
In182 O184 2.326 . S
In182 O188 2.266 . S
In182 O189 2.326 . S
In182 O190 2.266 . S
In182 O191 2.326 . S
In182 O193 2.294 . S
In182 O194 2.326 . S
O183 In182 2.294 . S
O183 C192 1.240 . S
O184 In182 2.326 . S
O184 C192 1.252 . S
C185 O188 1.252 . S
C185 O189 1.260 . S
C186 O193 1.240 . S
C186 O194 1.252 . S
C187 O190 1.252 . S
C187 O191 1.260 . S
O188 In182 2.266 . S
O188 C185 1.252 . S
O189 In182 2.326 . S
O189 C185 1.260 . S
O190 In182 2.266 . S
O190 C187 1.252 . S
O191 In182 2.326 . S
O191 C187 1.260 . S
C192 O183 1.240 . S
C192 O184 1.252 . S
O193 In182 2.294 . S
O193 C186 1.240 . S
O194 In182 2.326 . S
O194 C186 1.252 . S
In195 O196 2.294 . S
In195 O197 2.326 . S
In195 O201 2.266 . S
In195 O202 2.326 . S
In195 O203 2.266 . S
In195 O204 2.326 . S
In195 O206 2.294 . S
In195 O207 2.326 . S
O196 In195 2.294 . S
O196 C205 1.240 . S
O197 In195 2.326 . S
O197 C205 1.252 . S
C198 O201 1.252 . S
C198 O202 1.260 . S
C199 O206 1.240 . S
C199 O207 1.252 . S
C200 O203 1.252 . S
C200 O204 1.260 . S
O201 In195 2.266 . S
O201 C198 1.252 . S
O202 In195 2.326 . S
O202 C198 1.260 . S
O203 In195 2.266 . S
O203 C200 1.252 . S
O204 In195 2.326 . S
O204 C200 1.260 . S
C205 O196 1.240 . S
C205 O197 1.252 . S
O206 In195 2.294 . S
O206 C199 1.240 . S
O207 In195 2.326 . S
O207 C199 1.252 . S
H208 C216 0.950 . S
H209 C221 0.950 . S
H210 C218 0.950 . S
H211 C220 0.950 . S
H212 C222 0.950 . S
H213 C224 0.950 . S
H214 C226 0.950 . S
H215 C227 0.950 . S
C216 H208 0.950 . S
C216 C217 1.386 . S
C216 C218 1.391 . S
C217 C216 1.386 . S
C217 C221 1.393 . S
C218 H210 0.950 . S
C218 C216 1.391 . S
C218 C219 1.400 . S
C219 C218 1.400 . S
C219 C220 1.398 . S
C219 C225 1.491 . S
C220 H211 0.950 . S
C220 C219 1.398 . S
C220 C221 1.391 . S
C221 H209 0.950 . S
C221 C217 1.393 . S
C221 C220 1.391 . S
C222 H212 0.950 . S
C222 C223 1.386 . S
C222 C224 1.391 . S
C223 C222 1.386 . S
C223 C227 1.393 . S
C224 H213 0.950 . S
C224 C222 1.391 . S
C224 C225 1.400 . S
C225 C219 1.491 . S
C225 C224 1.400 . S
C225 C226 1.398 . S
C226 H214 0.950 . S
C226 C225 1.398 . S
C226 C227 1.391 . S
C227 H215 0.950 . S
C227 C223 1.393 . S
C227 C226 1.391 . S
H228 C236 0.950 . S
H229 C241 0.950 . S
H230 C238 0.950 1_455 S
H231 C240 0.950 . S
H232 C242 0.950 . S
H233 C244 0.950 1_655 S
H234 C246 0.950 . S
H235 C247 0.950 . S
C236 H228 0.950 . S
C236 C237 1.386 . S
C236 C238 1.391 . S
C237 C236 1.386 . S
C237 C241 1.393 . S
C238 H230 0.950 1_655 S
C238 C236 1.391 . S
C238 C239 1.400 . S
C239 C238 1.400 . S
C239 C240 1.398 . S
C239 C245 1.491 1_665 S
C240 H231 0.950 . S
C240 C239 1.398 . S
C240 C241 1.391 . S
C241 H229 0.950 . S
C241 C237 1.393 . S
C241 C240 1.391 . S
C242 H232 0.950 . S
C242 C243 1.386 . S
C242 C244 1.391 . S
C243 C242 1.386 . S
C243 C247 1.393 . S
C244 H233 0.950 1_455 S
C244 C242 1.391 . S
C244 C245 1.400 . S
C245 C239 1.491 1_445 S
C245 C244 1.400 . S
C245 C246 1.398 . S
C246 H234 0.950 . S
C246 C245 1.398 . S
C246 C247 1.391 . S
C247 H235 0.950 . S
C247 C243 1.393 . S
C247 C246 1.391 . S
H248 C256 0.950 . S
H249 C261 0.949 1_545 S
H250 C258 0.950 . S
H251 C260 0.950 . S
H252 C262 0.950 . S
H253 C264 0.950 . S
H254 C266 0.950 . S
H255 C267 0.949 1_565 S
C256 H248 0.950 . S
C256 C257 1.386 . S
C256 C258 1.391 . S
C257 C256 1.386 . S
C257 C261 1.395 . S
C258 H250 0.950 . S
C258 C256 1.391 . S
C258 C259 1.400 . S
C259 C258 1.400 . S
C259 C260 1.398 1_565 S
C259 C265 1.491 1_565 S
C260 H251 0.950 . S
C260 C259 1.398 1_545 S
C260 C261 1.390 1_545 S
C261 H249 0.949 1_565 S
C261 C257 1.395 . S
C261 C260 1.390 1_565 S
C262 H252 0.950 . S
C262 C263 1.386 . S
C262 C264 1.391 . S
C263 C262 1.386 . S
C263 C267 1.395 . S
C264 H253 0.950 . S
C264 C262 1.391 . S
C264 C265 1.400 . S
C265 C259 1.491 1_545 S
C265 C264 1.400 . S
C265 C266 1.398 1_545 S
C266 H254 0.950 . S
C266 C265 1.398 1_565 S
C266 C267 1.390 1_565 S
C267 H255 0.949 1_545 S
C267 C263 1.395 . S
C267 C266 1.390 1_545 S
H268 C276 0.950 . S
H269 C281 0.950 . S
H270 C278 0.950 . S
H271 C280 0.950 . S
H272 C282 0.950 . S
H273 C284 0.950 . S
H274 C286 0.950 . S
H275 C287 0.950 . S
C276 H268 0.950 . S
C276 C277 1.386 . S
C276 C278 1.391 . S
C277 C276 1.386 . S
C277 C281 1.393 . S
C278 H270 0.950 . S
C278 C276 1.391 . S
C278 C279 1.400 . S
C279 C278 1.400 . S
C279 C280 1.398 . S
C279 C285 1.491 1_455 S
C280 H271 0.950 . S
C280 C279 1.398 . S
C280 C281 1.391 . S
C281 H269 0.950 . S
C281 C277 1.393 . S
C281 C280 1.391 . S
C282 H272 0.950 . S
C282 C283 1.386 . S
C282 C284 1.391 . S
C283 C282 1.386 . S
C283 C287 1.393 . S
C284 H273 0.950 . S
C284 C282 1.391 . S
C284 C285 1.400 . S
C285 C279 1.491 1_655 S
C285 C284 1.400 . S
C285 C286 1.398 . S
C286 H274 0.950 . S
C286 C285 1.398 . S
C286 C287 1.391 . S
C287 H275 0.950 . S
C287 C283 1.393 . S
C287 C286 1.391 . S
H288 C296 0.950 . S
H289 C301 0.950 . S
H290 C298 0.950 . S
H291 C300 0.950 . S
H292 C302 0.950 . S
H293 C304 0.950 . S
H294 C306 0.950 . S
H295 C307 0.950 . S
C296 H288 0.950 . S
C296 C297 1.386 . S
C296 C298 1.391 . S
C297 C296 1.386 . S
C297 C301 1.393 . S
C298 H290 0.950 . S
C298 C296 1.391 . S
C298 C299 1.400 . S
C299 C298 1.400 . S
C299 C300 1.398 . S
C299 C305 1.491 . S
C300 H291 0.950 . S
C300 C299 1.398 . S
C300 C301 1.391 . S
C301 H289 0.950 . S
C301 C297 1.393 . S
C301 C300 1.391 . S
C302 H292 0.950 . S
C302 C303 1.386 . S
C302 C304 1.391 . S
C303 C302 1.386 . S
C303 C307 1.393 . S
C304 H293 0.950 . S
C304 C302 1.391 . S
C304 C305 1.400 . S
C305 C299 1.491 . S
C305 C304 1.400 . S
C305 C306 1.398 . S
C306 H294 0.950 . S
C306 C305 1.398 . S
C306 C307 1.391 . S
C307 H295 0.950 . S
C307 C303 1.393 . S
C307 C306 1.391 . S
H308 C316 0.950 . S
H309 C321 0.950 . S
H310 C318 0.950 1_565 S
H311 C320 0.950 . S
H312 C322 0.950 . S
H313 C324 0.950 1_545 S
H314 C326 0.950 . S
H315 C327 0.950 . S
C316 H308 0.950 . S
C316 C317 1.386 . S
C316 C318 1.391 . S
C317 C316 1.386 . S
C317 C321 1.393 . S
C318 H310 0.950 1_545 S
C318 C316 1.391 . S
C318 C319 1.400 . S
C319 C318 1.400 . S
C319 C320 1.398 . S
C319 C325 1.491 1_545 S
C320 H311 0.950 . S
C320 C319 1.398 . S
C320 C321 1.391 . S
C321 H309 0.950 . S
C321 C317 1.393 . S
C321 C320 1.391 . S
C322 H312 0.950 . S
C322 C323 1.386 . S
C322 C324 1.391 . S
C323 C322 1.386 . S
C323 C327 1.393 . S
C324 H313 0.950 1_565 S
C324 C322 1.391 . S
C324 C325 1.400 . S
C325 C319 1.491 1_565 S
C325 C324 1.400 . S
C325 C326 1.398 . S
C326 H314 0.950 . S
C326 C325 1.398 . S
C326 C327 1.391 . S
C327 H315 0.950 . S
C327 C323 1.393 . S
C327 C326 1.391 . S
H328 C336 0.950 . S
H329 C341 0.950 . S
H330 C338 0.950 1_455 S
H331 C340 0.950 . S
H332 C342 0.950 . S
H333 C344 0.950 1_655 S
H334 C346 0.950 . S
H335 C347 0.950 . S
C336 H328 0.950 . S
C336 C337 1.386 . S
C336 C338 1.391 . S
C337 C336 1.386 . S
C337 C341 1.393 . S
C338 H330 0.950 1_655 S
C338 C336 1.391 . S
C338 C339 1.400 . S
C339 C338 1.400 . S
C339 C340 1.398 . S
C339 C345 1.491 1_655 S
C340 H331 0.950 . S
C340 C339 1.398 . S
C340 C341 1.391 . S
C341 H329 0.950 . S
C341 C337 1.393 . S
C341 C340 1.391 . S
C342 H332 0.950 . S
C342 C343 1.386 . S
C342 C344 1.391 . S
C343 C342 1.386 . S
C343 C347 1.393 . S
C344 H333 0.950 1_455 S
C344 C342 1.391 . S
C344 C345 1.400 . S
C345 C339 1.491 1_455 S
C345 C344 1.400 . S
C345 C346 1.398 . S
C346 H334 0.950 . S
C346 C345 1.398 . S
C346 C347 1.391 . S
C347 H335 0.950 . S
C347 C343 1.393 . S
C347 C346 1.391 . S
H348 C356 0.950 . S
H349 C361 0.950 . S
H350 C358 0.950 . S
H351 C360 0.950 . S
H352 C362 0.950 . S
H353 C364 0.950 . S
H354 C366 0.950 . S
H355 C367 0.950 . S
C356 H348 0.950 . S
C356 C357 1.386 . S
C356 C358 1.391 . S
C357 C356 1.386 . S
C357 C361 1.393 . S
C358 H350 0.950 . S
C358 C356 1.391 . S
C358 C359 1.400 . S
C359 C358 1.400 . S
C359 C360 1.398 . S
C359 C365 1.491 1_554 S
C360 H351 0.950 . S
C360 C359 1.398 . S
C360 C361 1.391 . S
C361 H349 0.950 . S
C361 C357 1.393 . S
C361 C360 1.391 . S
C362 H352 0.950 . S
C362 C363 1.386 . S
C362 C364 1.391 . S
C363 C362 1.386 . S
C363 C367 1.393 . S
C364 H353 0.950 . S
C364 C362 1.391 . S
C364 C365 1.400 . S
C365 C359 1.491 1_556 S
C365 C364 1.400 . S
C365 C366 1.398 . S
C366 H354 0.950 . S
C366 C365 1.398 . S
C366 C367 1.391 . S
C367 H355 0.950 . S
C367 C363 1.393 . S
C367 C366 1.391 . S
H368 C376 0.950 . S
H369 C381 0.950 . S
H370 C378 0.950 . S
H371 C380 0.917 1_554 S
H372 C382 0.950 . S
H373 C384 0.950 . S
H374 C386 0.917 1_556 S
H375 C387 0.950 . S
C376 H368 0.950 . S
C376 C377 1.386 . S
C376 C378 1.391 . S
C377 C376 1.386 . S
C377 C381 1.393 . S
C378 H370 0.950 . S
C378 C376 1.391 . S
C378 C379 1.400 . S
C379 C378 1.400 . S
C379 C380 1.409 . S
C379 C385 1.491 1_456 S
C380 H371 0.917 1_556 S
C380 C379 1.409 . S
C380 C381 1.414 . S
C381 H369 0.950 . S
C381 C377 1.393 . S
C381 C380 1.414 . S
C382 H372 0.950 . S
C382 C383 1.386 . S
C382 C384 1.391 . S
C383 C382 1.386 . S
C383 C387 1.393 . S
C384 H373 0.950 . S
C384 C382 1.391 . S
C384 C385 1.400 . S
C385 C379 1.491 1_654 S
C385 C384 1.400 . S
C385 C386 1.409 . S
C386 H374 0.917 1_554 S
C386 C385 1.409 . S
C386 C387 1.414 . S
C387 H375 0.950 . S
C387 C383 1.393 . S
C387 C386 1.414 . S
H388 C396 0.950 . S
H389 C401 0.950 . S
H390 C398 0.950 . S
H391 C400 0.950 . S
H392 C402 0.950 . S
H393 C404 0.950 . S
H394 C406 0.950 . S
H395 C407 0.950 . S
C396 H388 0.950 . S
C396 C397 1.386 . S
C396 C398 1.391 . S
C397 C396 1.386 . S
C397 C401 1.393 . S
C398 H390 0.950 . S
C398 C396 1.391 . S
C398 C399 1.400 . S
C399 C398 1.400 . S
C399 C400 1.398 . S
C399 C405 1.491 . S
C400 H391 0.950 . S
C400 C399 1.398 . S
C400 C401 1.391 . S
C401 H389 0.950 . S
C401 C397 1.393 . S
C401 C400 1.391 . S
C402 H392 0.950 . S
C402 C403 1.386 . S
C402 C404 1.391 . S
C403 C402 1.386 . S
C403 C407 1.393 . S
C404 H393 0.950 . S
C404 C402 1.391 . S
C404 C405 1.400 . S
C405 C399 1.491 . S
C405 C404 1.400 . S
C405 C406 1.398 . S
C406 H394 0.950 . S
C406 C405 1.398 . S
C406 C407 1.391 . S
C407 H395 0.950 . S
C407 C403 1.393 . S
C407 C406 1.391 . S
H408 C416 0.950 . S
H409 C421 0.950 . S
H410 C418 0.950 . S
H411 C420 0.950 1_554 S
H412 C422 0.950 . S
H413 C424 0.950 . S
H414 C426 0.950 1_556 S
H415 C427 0.950 . S
C416 H408 0.950 . S
C416 C417 1.386 . S
C416 C418 1.391 . S
C417 C416 1.386 . S
C417 C421 1.393 . S
C418 H410 0.950 . S
C418 C416 1.391 . S
C418 C419 1.400 . S
C419 C418 1.400 . S
C419 C420 1.398 . S
C419 C425 1.491 1_556 S
C420 H411 0.950 1_556 S
C420 C419 1.398 . S
C420 C421 1.391 . S
C421 H409 0.950 . S
C421 C417 1.393 . S
C421 C420 1.391 . S
C422 H412 0.950 . S
C422 C423 1.386 . S
C422 C424 1.391 . S
C423 C422 1.386 . S
C423 C427 1.393 . S
C424 H413 0.950 . S
C424 C422 1.391 . S
C424 C425 1.400 . S
C425 C419 1.491 1_554 S
C425 C424 1.400 . S
C425 C426 1.398 . S
C426 H414 0.950 1_554 S
C426 C425 1.398 . S
C426 C427 1.391 . S
C427 H415 0.950 . S
C427 C423 1.393 . S
C427 C426 1.391 . S
H428 C436 0.950 . S
H429 C441 0.950 . S
H430 C438 0.950 . S
H431 C440 0.950 . S
H432 C442 0.950 . S
H433 C444 0.950 . S
H434 C446 0.950 . S
H435 C447 0.950 . S
C436 H428 0.950 . S
C436 C437 1.386 . S
C436 C438 1.391 . S
C437 C436 1.386 . S
C437 C441 1.393 . S
C438 H430 0.950 . S
C438 C436 1.391 . S
C438 C439 1.400 . S
C439 C438 1.400 . S
C439 C440 1.398 . S
C439 C445 1.491 . S
C440 H431 0.950 . S
C440 C439 1.398 . S
C440 C441 1.391 . S
C441 H429 0.950 . S
C441 C437 1.393 . S
C441 C440 1.391 . S
C442 H432 0.950 . S
C442 C443 1.386 . S
C442 C444 1.391 . S
C443 C442 1.386 . S
C443 C447 1.393 . S
C444 H433 0.950 . S
C444 C442 1.391 . S
C444 C445 1.400 . S
C445 C439 1.491 . S
C445 C444 1.400 . S
C445 C446 1.398 . S
C446 H434 0.950 . S
C446 C445 1.398 . S
C446 C447 1.391 . S
C447 H435 0.950 . S
C447 C443 1.393 . S
C447 C446 1.391 . S
H448 C456 0.950 . S
H449 C461 0.950 . S
H450 C458 0.950 . S
H451 C460 0.917 1_564 S
H452 C462 0.950 . S
H453 C464 0.950 . S
H454 C466 0.917 1_546 S
H455 C467 0.950 . S
C456 H448 0.950 . S
C456 C457 1.386 . S
C456 C458 1.391 . S
C457 C456 1.386 . S
C457 C461 1.393 . S
C458 H450 0.950 . S
C458 C456 1.391 . S
C458 C459 1.400 . S
C459 C458 1.400 . S
C459 C460 1.409 . S
C459 C465 1.491 1_546 S
C460 H451 0.917 1_546 S
C460 C459 1.409 . S
C460 C461 1.413 . S
C461 H449 0.950 . S
C461 C457 1.393 . S
C461 C460 1.413 . S
C462 H452 0.950 . S
C462 C463 1.386 . S
C462 C464 1.391 . S
C463 C462 1.386 . S
C463 C467 1.393 . S
C464 H453 0.950 . S
C464 C462 1.391 . S
C464 C465 1.400 . S
C465 C459 1.491 1_564 S
C465 C464 1.400 . S
C465 C466 1.409 . S
C466 H454 0.917 1_564 S
C466 C465 1.409 . S
C466 C467 1.413 . S
C467 H455 0.950 . S
C467 C463 1.393 . S
C467 C466 1.413 . S
H468 C476 0.950 . S
H469 C481 0.950 . S
H470 C478 0.950 . S
H471 C480 0.950 . S
H472 C482 0.950 . S
H473 C484 0.950 . S
H474 C486 0.950 . S
H475 C487 0.950 . S
C476 H468 0.950 . S
C476 C477 1.386 . S
C476 C478 1.391 . S
C477 C476 1.386 . S
C477 C481 1.393 . S
C478 H470 0.950 . S
C478 C476 1.391 . S
C478 C479 1.400 . S
C479 C478 1.400 . S
C479 C480 1.398 . S
C479 C485 1.491 . S
C480 H471 0.950 . S
C480 C479 1.398 . S
C480 C481 1.391 . S
C481 H469 0.950 . S
C481 C477 1.393 . S
C481 C480 1.391 . S
C482 H472 0.950 . S
C482 C483 1.386 . S
C482 C484 1.391 . S
C483 C482 1.386 . S
C483 C487 1.393 . S
C484 H473 0.950 . S
C484 C482 1.391 . S
C484 C485 1.400 . S
C485 C479 1.491 . S
C485 C484 1.400 . S
C485 C486 1.398 . S
C486 H474 0.950 . S
C486 C485 1.398 . S
C486 C487 1.391 . S
C487 H475 0.950 . S
C487 C483 1.393 . S
C487 C486 1.391 . S
H488 C496 0.950 . S
H489 C501 0.950 . S
H490 C498 0.950 . S
H491 C500 0.950 . S
H492 C502 0.950 . S
H493 C504 0.950 . S
H494 C506 0.950 . S
H495 C507 0.950 . S
C496 H488 0.950 . S
C496 C497 1.386 . S
C496 C498 1.391 . S
C497 C496 1.386 . S
C497 C501 1.393 . S
C498 H490 0.950 . S
C498 C496 1.391 . S
C498 C499 1.400 . S
C499 C498 1.400 . S
C499 C500 1.398 . S
C499 C505 1.491 . S
C500 H491 0.950 . S
C500 C499 1.398 . S
C500 C501 1.391 . S
C501 H489 0.950 . S
C501 C497 1.393 . S
C501 C500 1.391 . S
C502 H492 0.950 . S
C502 C503 1.386 . S
C502 C504 1.391 . S
C503 C502 1.386 . S
C503 C507 1.393 . S
C504 H493 0.950 . S
C504 C502 1.391 . S
C504 C505 1.400 . S
C505 C499 1.491 . S
C505 C504 1.400 . S
C505 C506 1.398 . S
C506 H494 0.950 . S
C506 C505 1.398 . S
C506 C507 1.391 . S
C507 H495 0.950 . S
C507 C503 1.393 . S
C507 C506 1.391 . S
H508 C516 0.950 . S
H509 C521 0.950 . S
H510 C518 0.950 . S
H511 C520 0.950 . S
H512 C522 0.950 . S
H513 C524 0.950 . S
H514 C526 0.950 . S
H515 C527 0.950 . S
C516 H508 0.950 . S
C516 C517 1.386 . S
C516 C518 1.391 . S
C517 C516 1.386 . S
C517 C521 1.393 . S
C518 H510 0.950 . S
C518 C516 1.391 . S
C518 C519 1.400 . S
C519 C518 1.400 . S
C519 C520 1.398 . S
C519 C525 1.491 . S
C520 H511 0.950 . S
C520 C519 1.398 . S
C520 C521 1.391 . S
C521 H509 0.950 . S
C521 C517 1.393 . S
C521 C520 1.391 . S
C522 H512 0.950 . S
C522 C523 1.386 . S
C522 C524 1.391 . S
C523 C522 1.386 . S
C523 C527 1.393 . S
C524 H513 0.950 . S
C524 C522 1.391 . S
C524 C525 1.400 . S
C525 C519 1.491 . S
C525 C524 1.400 . S
C525 C526 1.398 . S
C526 H514 0.950 . S
C526 C525 1.398 . S
C526 C527 1.391 . S
C527 H515 0.950 . S
C527 C523 1.393 . S
C527 C526 1.391 . S
H528 C536 0.950 . S
H529 C541 0.950 . S
H530 C538 0.950 . S
H531 C540 0.950 . S
H532 C542 0.950 1_545 S
H533 C544 0.950 . S
H534 C546 0.950 . S
H535 C547 0.950 . S
C536 H528 0.950 . S
C536 C537 1.386 . S
C536 C538 1.391 . S
C537 C536 1.386 . S
C537 C541 1.393 . S
C538 H530 0.950 . S
C538 C536 1.391 . S
C538 C539 1.400 . S
C539 C538 1.400 . S
C539 C540 1.398 . S
C539 C545 1.491 . S
C540 H531 0.950 . S
C540 C539 1.398 . S
C540 C541 1.391 . S
C541 H529 0.950 . S
C541 C537 1.393 . S
C541 C540 1.391 . S
C542 H532 0.950 1_565 S
C542 C543 1.386 . S
C542 C544 1.391 . S
C543 C542 1.386 . S
C543 C547 1.393 . S
C544 H533 0.950 . S
C544 C542 1.391 . S
C544 C545 1.400 . S
C545 C539 1.491 . S
C545 C544 1.400 . S
C545 C546 1.398 . S
C546 H534 0.950 . S
C546 C545 1.398 . S
C546 C547 1.391 . S
C547 H535 0.950 . S
C547 C543 1.393 . S
C547 C546 1.391 . S
H548 C556 0.950 . S
H549 C561 0.950 . S
H550 C558 0.950 . S
H551 C560 0.950 . S
H552 C562 0.950 . S
H553 C564 0.950 . S
H554 C566 0.950 . S
H555 C567 0.950 . S
C556 H548 0.950 . S
C556 C557 1.386 . S
C556 C558 1.391 . S
C557 C556 1.386 . S
C557 C561 1.393 . S
C558 H550 0.950 . S
C558 C556 1.391 . S
C558 C559 1.400 . S
C559 C558 1.400 . S
C559 C560 1.398 . S
C559 C565 1.491 . S
C560 H551 0.950 . S
C560 C559 1.398 . S
C560 C561 1.391 . S
C561 H549 0.950 . S
C561 C557 1.393 . S
C561 C560 1.391 . S
C562 H552 0.950 . S
C562 C563 1.386 . S
C562 C564 1.391 . S
C563 C562 1.386 . S
C563 C567 1.393 . S
C564 H553 0.950 . S
C564 C562 1.391 . S
C564 C565 1.400 . S
C565 C559 1.491 . S
C565 C564 1.400 . S
C565 C566 1.398 . S
C566 H554 0.950 . S
C566 C565 1.398 . S
C566 C567 1.391 . S
C567 H555 0.950 . S
C567 C563 1.393 . S
C567 C566 1.391 . S
H568 C576 0.950 . S
H569 C581 0.950 . S
H570 C578 0.950 . S
H571 C580 0.950 . S
H572 C582 0.950 . S
H573 C584 0.950 . S
H574 C586 0.950 . S
H575 C587 0.950 . S
C576 H568 0.950 . S
C576 C577 1.386 . S
C576 C578 1.391 . S
C577 C576 1.386 . S
C577 C581 1.393 . S
C578 H570 0.950 . S
C578 C576 1.391 . S
C578 C579 1.400 . S
C579 C578 1.400 . S
C579 C580 1.398 . S
C579 C585 1.491 . S
C580 H571 0.950 . S
C580 C579 1.398 . S
C580 C581 1.391 . S
C581 H569 0.950 . S
C581 C577 1.393 . S
C581 C580 1.391 . S
C582 H572 0.950 . S
C582 C583 1.386 . S
C582 C584 1.391 . S
C583 C582 1.386 . S
C583 C587 1.393 . S
C584 H573 0.950 . S
C584 C582 1.391 . S
C584 C585 1.400 . S
C585 C579 1.491 . S
C585 C584 1.400 . S
C585 C586 1.398 . S
C586 H574 0.950 . S
C586 C585 1.398 . S
C586 C587 1.391 . S
C587 H575 0.950 . S
C587 C583 1.393 . S
C587 C586 1.391 . S
H588 C596 0.950 . S
H589 C601 0.950 . S
H590 C598 0.950 . S
H591 C600 0.950 . S
H592 C602 0.950 . S
H593 C604 0.950 . S
H594 C606 0.950 . S
H595 C607 0.950 1_545 S
C596 H588 0.950 . S
C596 C597 1.386 . S
C596 C598 1.391 . S
C597 C596 1.386 . S
C597 C601 1.393 . S
C598 H590 0.950 . S
C598 C596 1.391 . S
C598 C599 1.400 . S
C599 C598 1.400 . S
C599 C600 1.398 . S
C599 C605 1.491 . S
C600 H591 0.950 . S
C600 C599 1.398 . S
C600 C601 1.391 . S
C601 H589 0.950 . S
C601 C597 1.393 . S
C601 C600 1.391 . S
C602 H592 0.950 . S
C602 C603 1.386 . S
C602 C604 1.391 . S
C603 C602 1.386 . S
C603 C607 1.393 . S
C604 H593 0.950 . S
C604 C602 1.391 . S
C604 C605 1.400 . S
C605 C599 1.491 . S
C605 C604 1.400 . S
C605 C606 1.398 . S
C606 H594 0.950 . S
C606 C605 1.398 . S
C606 C607 1.391 . S
C607 H595 0.950 1_565 S
C607 C603 1.393 . S
C607 C606 1.391 . S
H608 C616 0.950 . S
H609 C621 0.950 . S
H610 C618 0.950 . S
H611 C620 0.950 . S
H612 C622 0.950 . S
H613 C624 0.950 . S
H614 C626 0.950 . S
H615 C627 0.950 1_565 S
C616 H608 0.950 . S
C616 C617 1.386 . S
C616 C618 1.391 . S
C617 C616 1.386 . S
C617 C621 1.393 . S
C618 H610 0.950 . S
C618 C616 1.391 . S
C618 C619 1.400 . S
C619 C618 1.400 . S
C619 C620 1.398 . S
C619 C625 1.491 . S
C620 H611 0.950 . S
C620 C619 1.398 . S
C620 C621 1.391 . S
C621 H609 0.950 . S
C621 C617 1.393 . S
C621 C620 1.391 . S
C622 H612 0.950 . S
C622 C623 1.386 . S
C622 C624 1.391 . S
C623 C622 1.386 . S
C623 C627 1.393 . S
C624 H613 0.950 . S
C624 C622 1.391 . S
C624 C625 1.400 . S
C625 C619 1.491 . S
C625 C624 1.400 . S
C625 C626 1.398 . S
C626 H614 0.950 . S
C626 C625 1.398 . S
C626 C627 1.391 . S
C627 H615 0.950 1_545 S
C627 C623 1.393 . S
C627 C626 1.391 . S
H628 C636 0.950 . S
H629 C641 0.950 . S
H630 C638 0.950 . S
H631 C640 0.950 . S
H632 C642 0.950 . S
H633 C644 0.950 . S
H634 C646 0.950 . S
H635 C647 0.950 . S
C636 H628 0.950 . S
C636 C637 1.386 . S
C636 C638 1.391 . S
C637 C636 1.386 . S
C637 C641 1.393 . S
C638 H630 0.950 . S
C638 C636 1.391 . S
C638 C639 1.400 . S
C639 C638 1.400 . S
C639 C640 1.398 . S
C639 C645 1.491 . S
C640 H631 0.950 . S
C640 C639 1.398 . S
C640 C641 1.391 . S
C641 H629 0.950 . S
C641 C637 1.393 . S
C641 C640 1.391 . S
C642 H632 0.950 . S
C642 C643 1.386 . S
C642 C644 1.391 . S
C643 C642 1.386 . S
C643 C647 1.393 . S
C644 H633 0.950 . S
C644 C642 1.391 . S
C644 C645 1.400 . S
C645 C639 1.491 . S
C645 C644 1.400 . S
C645 C646 1.398 . S
C646 H634 0.950 . S
C646 C645 1.398 . S
C646 C647 1.391 . S
C647 H635 0.950 . S
C647 C643 1.393 . S
C647 C646 1.391 . S
H648 C656 0.950 . S
H649 C661 0.950 . S
H650 C658 0.950 . S
H651 C660 0.950 . S
H652 C662 0.950 . S
H653 C664 0.950 . S
H654 C666 0.950 . S
H655 C667 0.950 . S
C656 H648 0.950 . S
C656 C657 1.386 . S
C656 C658 1.391 . S
C657 C656 1.386 . S
C657 C661 1.393 . S
C658 H650 0.950 . S
C658 C656 1.391 . S
C658 C659 1.400 . S
C659 C658 1.400 . S
C659 C660 1.398 . S
C659 C665 1.491 . S
C660 H651 0.950 . S
C660 C659 1.398 . S
C660 C661 1.391 . S
C661 H649 0.950 . S
C661 C657 1.393 . S
C661 C660 1.391 . S
C662 H652 0.950 . S
C662 C663 1.386 . S
C662 C664 1.391 . S
C663 C662 1.386 . S
C663 C667 1.393 . S
C664 H653 0.950 . S
C664 C662 1.391 . S
C664 C665 1.400 . S
C665 C659 1.491 . S
C665 C664 1.400 . S
C665 C666 1.398 . S
C666 H654 0.950 . S
C666 C665 1.398 . S
C666 C667 1.391 . S
C667 H655 0.950 . S
C667 C663 1.393 . S
C667 C666 1.391 . S
H668 C676 0.950 . S
H669 C681 0.950 1_565 S
H670 C678 0.950 . S
H671 C680 0.950 . S
H672 C682 0.950 . S
H673 C684 0.950 . S
H674 C686 0.950 . S
H675 C687 0.950 . S
C676 H668 0.950 . S
C676 C677 1.386 . S
C676 C678 1.391 . S
C677 C676 1.386 . S
C677 C681 1.393 . S
C678 H670 0.950 . S
C678 C676 1.391 . S
C678 C679 1.400 . S
C679 C678 1.400 . S
C679 C680 1.398 . S
C679 C685 1.491 . S
C680 H671 0.950 . S
C680 C679 1.398 . S
C680 C681 1.391 . S
C681 H669 0.950 1_545 S
C681 C677 1.393 . S
C681 C680 1.391 . S
C682 H672 0.950 . S
C682 C683 1.386 . S
C682 C684 1.391 . S
C683 C682 1.386 . S
C683 C687 1.393 . S
C684 H673 0.950 . S
C684 C682 1.391 . S
C684 C685 1.400 . S
C685 C679 1.491 . S
C685 C684 1.400 . S
C685 C686 1.398 . S
C686 H674 0.950 . S
C686 C685 1.398 . S
C686 C687 1.391 . S
C687 H675 0.950 . S
C687 C683 1.393 . S
C687 C686 1.391 . S
H688 C696 0.950 . S
H689 C701 0.950 . S
H690 C698 0.950 . S
H691 C700 0.950 . S
H692 C702 0.950 1_545 S
H693 C704 0.950 . S
H694 C706 0.950 . S
H695 C707 0.950 . S
C696 H688 0.950 . S
C696 C697 1.386 . S
C696 C698 1.391 . S
C697 C696 1.386 . S
C697 C701 1.393 . S
C698 H690 0.950 . S
C698 C696 1.391 . S
C698 C699 1.400 . S
C699 C698 1.400 . S
C699 C700 1.398 . S
C699 C705 1.491 . S
C700 H691 0.950 . S
C700 C699 1.398 . S
C700 C701 1.391 . S
C701 H689 0.950 . S
C701 C697 1.393 . S
C701 C700 1.391 . S
C702 H692 0.950 1_565 S
C702 C703 1.386 . S
C702 C704 1.391 . S
C703 C702 1.386 . S
C703 C707 1.393 . S
C704 H693 0.950 . S
C704 C702 1.391 . S
C704 C705 1.400 . S
C705 C699 1.491 . S
C705 C704 1.400 . S
C705 C706 1.398 . S
C706 H694 0.950 . S
C706 C705 1.398 . S
C706 C707 1.391 . S
C707 H695 0.950 . S
C707 C703 1.393 . S
C707 C706 1.391 . S
H708 C716 0.950 . S
H709 C721 0.950 . S
H710 C718 0.950 . S
H711 C720 0.950 . S
H712 C722 0.950 . S
H713 C724 0.950 . S
H714 C726 0.950 . S
H715 C727 0.950 . S
C716 H708 0.950 . S
C716 C717 1.386 . S
C716 C718 1.391 . S
C717 C716 1.386 . S
C717 C721 1.393 . S
C718 H710 0.950 . S
C718 C716 1.391 . S
C718 C719 1.400 . S
C719 C718 1.400 . S
C719 C720 1.398 . S
C719 C725 1.491 . S
C720 H711 0.950 . S
C720 C719 1.398 . S
C720 C721 1.391 . S
C721 H709 0.950 . S
C721 C717 1.393 . S
C721 C720 1.391 . S
C722 H712 0.950 . S
C722 C723 1.386 . S
C722 C724 1.391 . S
C723 C722 1.386 . S
C723 C727 1.393 . S
C724 H713 0.950 . S
C724 C722 1.391 . S
C724 C725 1.400 . S
C725 C719 1.491 . S
C725 C724 1.400 . S
C725 C726 1.398 . S
C726 H714 0.950 . S
C726 C725 1.398 . S
C726 C727 1.391 . S
C727 H715 0.950 . S
C727 C723 1.393 . S
C727 C726 1.391 . S
H728 C736 0.950 . S
H729 C741 0.950 . S
H730 C738 0.950 . S
H731 C740 0.950 . S
H732 C742 0.950 . S
H733 C744 0.950 . S
H734 C746 0.950 . S
H735 C747 0.950 . S
C736 H728 0.950 . S
C736 C737 1.386 . S
C736 C738 1.391 . S
C737 C736 1.386 . S
C737 C741 1.393 . S
C738 H730 0.950 . S
C738 C736 1.391 . S
C738 C739 1.400 . S
C739 C738 1.400 . S
C739 C740 1.398 . S
C739 C745 1.491 . S
C740 H731 0.950 . S
C740 C739 1.398 . S
C740 C741 1.391 . S
C741 H729 0.950 . S
C741 C737 1.393 . S
C741 C740 1.391 . S
C742 H732 0.950 . S
C742 C743 1.386 . S
C742 C744 1.391 . S
C743 C742 1.386 . S
C743 C747 1.393 . S
C744 H733 0.950 . S
C744 C742 1.391 . S
C744 C745 1.400 . S
C745 C739 1.491 . S
C745 C744 1.400 . S
C745 C746 1.398 . S
C746 H734 0.950 . S
C746 C745 1.398 . S
C746 C747 1.391 . S
C747 H735 0.950 . S
C747 C743 1.393 . S
C747 C746 1.391 . S
H748 C756 0.950 . S
H749 C761 0.950 . S
H750 C758 0.950 . S
H751 C760 0.950 . S
H752 C762 0.950 . S
H753 C764 0.950 . S
H754 C766 0.950 . S
H755 C767 0.950 . S
C756 H748 0.950 . S
C756 C757 1.386 . S
C756 C758 1.391 . S
C757 C756 1.386 . S
C757 C761 1.393 . S
C758 H750 0.950 . S
C758 C756 1.391 . S
C758 C759 1.400 . S
C759 C758 1.400 . S
C759 C760 1.398 . S
C759 C765 1.491 . S
C760 H751 0.950 . S
C760 C759 1.398 . S
C760 C761 1.391 . S
C761 H749 0.950 . S
C761 C757 1.393 . S
C761 C760 1.391 . S
C762 H752 0.950 . S
C762 C763 1.386 . S
C762 C764 1.391 . S
C763 C762 1.386 . S
C763 C767 1.393 . S
C764 H753 0.950 . S
C764 C762 1.391 . S
C764 C765 1.400 . S
C765 C759 1.491 . S
C765 C764 1.400 . S
C765 C766 1.398 . S
C766 H754 0.950 . S
C766 C765 1.398 . S
C766 C767 1.391 . S
C767 H755 0.950 . S
C767 C763 1.393 . S
C767 C766 1.391 . S
H768 C776 0.950 . S
H769 C781 0.950 . S
H770 C778 0.950 . S
H771 C780 0.950 . S
H772 C782 0.950 1_565 S
H773 C784 0.950 . S
H774 C786 0.950 . S
H775 C787 0.950 . S
C776 H768 0.950 . S
C776 C777 1.386 . S
C776 C778 1.391 . S
C777 C776 1.386 . S
C777 C781 1.393 . S
C778 H770 0.950 . S
C778 C776 1.391 . S
C778 C779 1.400 . S
C779 C778 1.400 . S
C779 C780 1.398 . S
C779 C785 1.491 . S
C780 H771 0.950 . S
C780 C779 1.398 . S
C780 C781 1.391 . S
C781 H769 0.950 . S
C781 C777 1.393 . S
C781 C780 1.391 . S
C782 H772 0.950 1_545 S
C782 C783 1.386 . S
C782 C784 1.391 . S
C783 C782 1.386 . S
C783 C787 1.393 . S
C784 H773 0.950 . S
C784 C782 1.391 . S
C784 C785 1.400 . S
C785 C779 1.491 . S
C785 C784 1.400 . S
C785 C786 1.398 . S
C786 H774 0.950 . S
C786 C785 1.398 . S
C786 C787 1.391 . S
C787 H775 0.950 . S
C787 C783 1.393 . S
C787 C786 1.391 . S
H788 C796 0.950 . S
H789 C801 0.950 . S
H790 C798 0.950 . S
H791 C800 0.950 . S
H792 C802 0.950 . S
H793 C804 0.950 . S
H794 C806 0.950 . S
H795 C807 0.950 . S
C796 H788 0.950 . S
C796 C797 1.386 . S
C796 C798 1.391 . S
C797 C796 1.386 . S
C797 C801 1.393 . S
C798 H790 0.950 . S
C798 C796 1.391 . S
C798 C799 1.400 . S
C799 C798 1.400 . S
C799 C800 1.398 . S
C799 C805 1.491 . S
C800 H791 0.950 . S
C800 C799 1.398 . S
C800 C801 1.391 . S
C801 H789 0.950 . S
C801 C797 1.393 . S
C801 C800 1.391 . S
C802 H792 0.950 . S
C802 C803 1.386 . S
C802 C804 1.391 . S
C803 C802 1.386 . S
C803 C807 1.393 . S
C804 H793 0.950 . S
C804 C802 1.391 . S
C804 C805 1.400 . S
C805 C799 1.491 . S
C805 C804 1.400 . S
C805 C806 1.398 . S
C806 H794 0.950 . S
C806 C805 1.398 . S
C806 C807 1.391 . S
C807 H795 0.950 . S
C807 C803 1.393 . S
C807 C806 1.391 . S
H808 C816 0.950 . S
H809 C821 0.950 . S
H810 C818 0.950 . S
H811 C820 0.950 . S
H812 C822 0.950 . S
H813 C824 0.950 . S
H814 C826 0.950 . S
H815 C827 0.950 . S
C816 H808 0.950 . S
C816 C817 1.386 . S
C816 C818 1.391 . S
C817 C816 1.386 . S
C817 C821 1.393 . S
C818 H810 0.950 . S
C818 C816 1.391 . S
C818 C819 1.400 . S
C819 C818 1.400 . S
C819 C820 1.398 . S
C819 C825 1.491 . S
C820 H811 0.950 . S
C820 C819 1.398 . S
C820 C821 1.391 . S
C821 H809 0.950 . S
C821 C817 1.393 . S
C821 C820 1.391 . S
C822 H812 0.950 . S
C822 C823 1.386 . S
C822 C824 1.391 . S
C823 C822 1.386 . S
C823 C827 1.393 . S
C824 H813 0.950 . S
C824 C822 1.391 . S
C824 C825 1.400 . S
C825 C819 1.491 . S
C825 C824 1.400 . S
C825 C826 1.398 . S
C826 H814 0.950 . S
C826 C825 1.398 . S
C826 C827 1.391 . S
C827 H815 0.950 . S
C827 C823 1.393 . S
C827 C826 1.391 . S
H828 C836 0.950 . S
H829 C841 0.950 . S
H830 C838 0.950 . S
H831 C840 0.950 . S
H832 C842 0.950 . S
H833 C844 0.950 . S
H834 C846 0.950 . S
H835 C847 0.950 1_565 S
C836 H828 0.950 . S
C836 C837 1.386 . S
C836 C838 1.391 . S
C837 C836 1.386 . S
C837 C841 1.393 . S
C838 H830 0.950 . S
C838 C836 1.391 . S
C838 C839 1.400 . S
C839 C838 1.400 . S
C839 C840 1.398 . S
C839 C845 1.491 . S
C840 H831 0.950 . S
C840 C839 1.398 . S
C840 C841 1.391 . S
C841 H829 0.950 . S
C841 C837 1.393 . S
C841 C840 1.391 . S
C842 H832 0.950 . S
C842 C843 1.386 . S
C842 C844 1.391 . S
C843 C842 1.386 . S
C843 C847 1.393 . S
C844 H833 0.950 . S
C844 C842 1.391 . S
C844 C845 1.400 . S
C845 C839 1.491 . S
C845 C844 1.400 . S
C845 C846 1.398 . S
C846 H834 0.950 . S
C846 C845 1.398 . S
C846 C847 1.391 . S
C847 H835 0.950 1_545 S
C847 C843 1.393 . S
C847 C846 1.391 . S
C217 C185 1.507 . S
C223 C3 1.507 . S
C237 C30 1.507 . S
C243 C4 1.507 . S
C257 C153 1.508 . S
C263 C17 1.508 . S
C277 C16 1.507 . S
C283 C96 1.507 . S
C297 C29 1.507 . S
C303 C159 1.507 . S
C317 C127 1.507 . S
C323 C49 1.507 . S
C337 C44 1.507 . S
C343 C68 1.507 . S
C357 C135 1.507 . S
C363 C55 1.507 . S
C377 C56 1.508 . S
C383 C82 1.508 . S
C397 C205 1.506 . S
C403 C69 1.506 . S
C417 C107 1.507 . S
C423 C81 1.507 . S
C437 C179 1.507 . S
C443 C101 1.507 . S
C457 C108 1.507 . S
C463 C140 1.507 . S
C477 C200 1.507 . S
C483 C122 1.507 . S
C497 C148 1.507 . S
C503 C174 1.507 . S
C517 C186 1.507 . S
C523 C160 1.507 . S
C537 C70 1.576 . S
C543 C10 1.575 1_565 S
C557 C5 1.575 . S
C563 C75 1.574 . S
C577 C18 1.576 . S
C583 C62 1.574 . S
C597 C57 1.576 . S
C603 C23 1.575 1_565 S
C617 C94 1.577 . S
C623 C36 1.577 1_545 S
C637 C95 1.574 . S
C643 C31 1.576 . S
C657 C88 1.575 . S
C663 C42 1.576 . S
C677 C43 1.576 1_545 S
C683 C83 1.576 . S
C697 C172 1.576 . S
C703 C114 1.574 1_565 S
C717 C109 1.576 . S
C723 C173 1.575 . S
C737 C120 1.577 . S
C743 C166 1.577 . S
C757 C161 1.576 . S
C763 C121 1.574 1_565 S
C777 C198 1.576 . S
C783 C134 1.576 1_545 S
C797 C199 1.575 . S
C803 C133 1.576 . S
C817 C146 1.576 . S
C823 C192 1.575 . S
C837 C187 1.576 . S
C843 C147 1.575 1_545 S
