# Generated by pormake.
# Topology smk, (6)-cn, num edge types: 1
# Building blocks:
#     Node 0, Type 0, BuildingBlock: UKALOJ_clean_sbu_0, # of connection points: 6
#     Node 1, Type 0, BuildingBlock: UKALOJ_clean_sbu_0, # of connection points: 6
#     Node 2, Type 0, BuildingBlock: UKALOJ_clean_sbu_0, # of connection points: 6
#     Node 3, Type 0, BuildingBlock: UKALOJ_clean_sbu_0, # of connection points: 6
#     Node 4, Type 0, BuildingBlock: UKALOJ_clean_sbu_0, # of connection points: 6
#     Node 5, Type 0, BuildingBlock: UKALOJ_clean_sbu_0, # of connection points: 6
#     Edge 6, Type (0, 0), BuildingBlock: CIFDUS_clean_linker_0, # of connection points: 2
#     Edge 7, Type (0, 0), BuildingBlock: CIFDUS_clean_linker_0, # of connection points: 2
#     Edge 8, Type (0, 0), BuildingBlock: CIFDUS_clean_linker_0, # of connection points: 2
#     Edge 9, Type (0, 0), BuildingBlock: CIFDUS_clean_linker_0, # of connection points: 2
#     Edge 10, Type (0, 0), BuildingBlock: CIFDUS_clean_linker_0, # of connection points: 2
#     Edge 11, Type (0, 0), BuildingBlock: CIFDUS_clean_linker_0, # of connection points: 2
#     Edge 12, Type (0, 0), BuildingBlock: CIFDUS_clean_linker_0, # of connection points: 2
#     Edge 13, Type (0, 0), BuildingBlock: CIFDUS_clean_linker_0, # of connection points: 2
#     Edge 14, Type (0, 0), BuildingBlock: CIFDUS_clean_linker_0, # of connection points: 2
#     Edge 15, Type (0, 0), BuildingBlock: CIFDUS_clean_linker_0, # of connection points: 2
#     Edge 16, Type (0, 0), BuildingBlock: CIFDUS_clean_linker_0, # of connection points: 2
#     Edge 17, Type (0, 0), BuildingBlock: CIFDUS_clean_linker_0, # of connection points: 2
#     Edge 18, Type (0, 0), BuildingBlock: CIFDUS_clean_linker_0, # of connection points: 2
#     Edge 19, Type (0, 0), BuildingBlock: CIFDUS_clean_linker_0, # of connection points: 2
#     Edge 20, Type (0, 0), BuildingBlock: CIFDUS_clean_linker_0, # of connection points: 2
#     Edge 21, Type (0, 0), BuildingBlock: CIFDUS_clean_linker_0, # of connection points: 2
#     Edge 22, Type (0, 0), BuildingBlock: CIFDUS_clean_linker_0, # of connection points: 2
#     Edge 23, Type (0, 0), BuildingBlock: CIFDUS_clean_linker_0, # of connection points: 2
# Relax obj value: 0.275
# Max RMSD: 0.207
# Mean RMSD: 0.207
data_MOF--net-smk--node1-UKALOJ_clean_sbu_0--edge1-CIFDUS_clean_linker_0
_symmetry_space_group_name_H-M    P1
_symmetry_Int_Tables_number       1
_symmetry_cell_setting            triclinic
loop_
_symmetry_equiv_pos_as_xyz
'x, y, z'
_cell_length_a     41.390888
_cell_length_b     41.375507
_cell_length_c     13.406306
_cell_angle_alpha  89.623845
_cell_angle_beta   90.301636
_cell_angle_gamma 120.01893
loop_
_atom_site_label
_atom_site_type_symbol
_atom_site_fract_x
_atom_site_fract_y
_atom_site_fract_z
_atom_type_partial_charge
Zn0 Zn 0.43732 0.21769 0.49618 0.0
O1 O 0.39768 0.15892 0.50718 0.0
C2 C 0.46897 0.21632 0.69348 0.0
Zn3 Zn 0.48419 0.20595 0.4829 0.0
C4 C 0.41034 0.13645 0.50636 0.0
O5 O 0.44532 0.14945 0.50092 0.0
C6 C 0.51156 0.28617 0.45885 0.0
O7 O 0.4765 0.20049 0.32689 0.0
O8 O 0.43177 0.21429 0.34008 0.0
N9 N 0.5262 0.19309 0.47962 0.0
C10 C 0.5579 0.20693 0.53407 0.0
C11 C 0.55153 0.15899 0.4582 0.0
N12 N 0.52241 0.16338 0.43229 0.0
N13 N 0.57393 0.18561 0.52332 0.0
C14 C 0.39509 0.25796 0.56263 0.0
C15 C 0.34668 0.23415 0.47001 0.0
N16 N 0.3961 0.23141 0.50692 0.0
N17 N 0.36594 0.21658 0.4496 0.0
N18 N 0.36444 0.26021 0.54072 0.0
H19 H 0.41326 0.26135 0.71321 0.0
H20 H 0.42221 0.30519 0.66391 0.0
H21 H 0.45071 0.28581 0.62682 0.0
C22 C 0.42204 0.2791 0.64525 0.0
C23 C 0.57401 0.24204 0.59495 0.0
H24 H 0.56614 0.26203 0.56577 0.0
H25 H 0.60492 0.25614 0.59636 0.0
H26 H 0.56367 0.23507 0.67248 0.0
O27 O 0.5218 0.26202 0.45877 0.0
O28 O 0.47774 0.27595 0.47825 0.0
C29 C 0.4522 0.20662 0.28608 0.0
O30 O 0.44331 0.2201 0.6528 0.0
O31 O 0.49105 0.2114 0.63887 0.0
Zn32 Zn 0.22816 0.41599 0.70254 0.0
O33 O 0.24609 0.37652 0.71442 0.0
C34 C 0.26053 0.44521 0.8989 0.0
Zn35 Zn 0.28716 0.46268 0.68823 0.0
C36 C 0.28044 0.38695 0.70407 0.0
O37 O 0.30388 0.42155 0.69359 0.0
C38 C 0.23345 0.49019 0.67294 0.0
O39 O 0.28549 0.4593 0.53156 0.0
O40 O 0.22813 0.41198 0.54672 0.0
N41 N 0.34267 0.50419 0.69426 0.0
C42 C 0.35922 0.54179 0.69817 0.0
C43 C 0.39763 0.52696 0.75919 0.0
N44 N 0.3669 0.49524 0.73125 0.0
N45 N 0.39348 0.55675 0.74094 0.0
C46 C 0.14467 0.36844 0.76402 0.0
C47 C 0.12413 0.32281 0.66275 0.0
N48 N 0.17361 0.37359 0.70681 0.0
N49 N 0.16079 0.34516 0.64416 0.0
N50 N 0.11327 0.33678 0.73756 0.0
H51 H 0.16232 0.3859 0.91342 0.0
H52 H 0.1213 0.38714 0.88117 0.0
H53 H 0.16598 0.42233 0.83259 0.0
C54 C 0.14843 0.39239 0.85199 0.0
C55 C 0.34306 0.56377 0.6527 0.0
H56 H 0.32621 0.54923 0.58589 0.0
H57 H 0.36552 0.59205 0.63048 0.0
H58 H 0.32484 0.56669 0.7078 0.0
O59 O 0.26818 0.50165 0.67857 0.0
O60 O 0.21029 0.4556 0.68409 0.0
C61 C 0.25549 0.43388 0.49184 0.0
O62 O 0.23011 0.42106 0.85903 0.0
O63 O 0.28819 0.46573 0.84391 0.0
Zn64 Zn 0.82522 0.2324 0.86034 0.0
O65 O 0.88339 0.25082 0.86956 0.0
C66 C 0.82894 0.26675 0.05714 0.0
Zn67 Zn 0.83592 0.29083 0.84643 0.0
C68 C 0.90589 0.28578 0.86177 0.0
O69 O 0.89295 0.30779 0.85348 0.0
C70 C 0.75591 0.23811 0.8333 0.0
O71 O 0.83726 0.28633 0.68979 0.0
O72 O 0.82766 0.22921 0.7052 0.0
N73 N 0.8501 0.34596 0.83595 0.0
C74 C 0.84013 0.36644 0.89243 0.0
C75 C 0.88242 0.40395 0.79271 0.0
N76 N 0.87633 0.36935 0.77393 0.0
N77 N 0.8604 0.40299 0.86774 0.0
C78 C 0.78088 0.14818 0.91405 0.0
C79 C 0.81373 0.12702 0.85127 0.0
N80 N 0.81144 0.17745 0.87388 0.0
N81 N 0.83191 0.16425 0.83531 0.0
N82 N 0.78148 0.11622 0.9 0.0
H83 H 0.7627 0.17855 0.0073 0.0
H84 H 0.73891 0.12889 0.02912 0.0
H85 H 0.72879 0.1474 0.91918 0.0
C86 C 0.7513 0.15103 -0.02887 0.0
C87 C 0.8093 0.35049 -0.03196 0.0
H88 H 0.78923 0.32077 0.95391 0.0
H89 H 0.7942 0.36635 -0.03222 0.0
H90 H 0.82131 0.35265 0.04328 0.0
O91 O 0.77868 0.27295 0.83519 0.0
O92 O 0.76783 0.21537 0.84361 0.0
C93 C 0.83264 0.25642 0.65009 0.0
O94 O 0.82341 0.23667 0.01703 0.0
O95 O 0.83469 0.29417 0.00218 0.0
Zn96 Zn 0.62348 0.81848 0.004 0.0
O97 O 0.66241 0.87587 0.01731 0.0
C98 C 0.5931 0.81949 0.19977 0.0
Zn99 Zn 0.57683 0.83091 -0.01162 0.0
C100 C 0.65193 0.89988 0.01129 0.0
O101 O 0.61739 0.88885 0.00067 0.0
C102 C 0.55012 0.74945 -0.03013 0.0
O103 O 0.58173 0.83539 0.83195 0.0
O104 O 0.62773 0.82336 0.84763 0.0
N105 N 0.53498 0.84466 -0.0053 0.0
C106 C 0.49948 0.82416 0.02747 0.0
C107 C 0.51526 0.88124 0.04565 0.0
N108 N 0.54446 0.88014 0.00527 0.0
N109 N 0.48676 0.84641 0.06221 0.0
C110 C 0.67308 0.78472 0.06709 0.0
C111 C 0.71849 0.81117 -0.03487 0.0
N112 N 0.66657 0.80743 0.0082 0.0
N113 N 0.69483 0.82384 0.94506 0.0
N114 N 0.70552 0.78657 0.04135 0.0
H115 H 0.65589 0.7845 0.2168 0.0
H116 H 0.65549 0.74267 0.1854 0.0
H117 H 0.61959 0.75124 0.13711 0.0
C118 C 0.64963 0.7642 0.1559 0.0
C119 C 0.47629 0.78268 0.01674 0.0
H120 H 0.48089 0.77463 0.94173 0.0
H121 H 0.44609 0.7729 0.02357 0.0
H122 H 0.48449 0.76882 0.07458 0.0
O123 O 0.53879 0.7729 -0.02874 0.0
O124 O 0.58444 0.76076 -0.01399 0.0
C125 C 0.6067 0.83018 0.7925 0.0
O126 O 0.61815 0.81458 0.16048 0.0
O127 O 0.57218 0.82605 0.14422 0.0
Zn128 Zn 0.77125 0.56992 0.17492 0.0
O129 O 0.77472 0.57469 0.01807 0.0
C130 C 0.82857 0.54773 0.16614 0.0
Zn131 Zn 0.82837 0.61969 0.18771 0.0
C132 C 0.8038 0.60114 -0.02236 0.0
O133 O 0.83043 0.62444 0.03207 0.0
C134 C 0.79536 0.5886 0.3851 0.0
O135 O 0.80516 0.65578 0.19363 0.0
O136 O 0.74969 0.60601 0.17849 0.0
N137 N 0.88179 0.66432 0.19737 0.0
C138 C 0.91065 0.66978 0.25624 0.0
C139 C 0.93087 0.71598 0.15585 0.0
N140 N 0.89441 0.69311 0.13526 0.0
N141 N 0.94181 0.70193 0.23127 0.0
C142 C 0.70359 0.49124 0.21223 0.0
C143 C 0.65847 0.49456 0.14531 0.0
N144 N 0.71813 0.52514 0.16862 0.0
N145 N 0.69006 0.52715 0.12707 0.0
N146 N 0.66633 0.47155 0.19821 0.0
H147 H 0.73447 0.46264 0.22567 0.0
H148 H 0.70769 0.45912 0.33462 0.0
H149 H 0.75028 0.50154 0.30824 0.0
C150 C 0.72526 0.47814 0.27415 0.0
C151 C 0.90706 0.64558 0.34436 0.0
H152 H 0.89204 0.65092 0.40435 0.0
H153 H 0.93427 0.65174 0.37585 0.0
H154 H 0.89067 0.61568 0.3244 0.0
O155 O 0.82484 0.61415 0.34454 0.0
O156 O 0.7684 0.56622 0.3306 0.0
C157 C 0.7699 0.64122 0.18535 0.0
O158 O 0.79359 0.53452 0.16717 0.0
O159 O 0.85035 0.58269 0.17473 0.0
Zn160 Zn 0.22974 0.81304 0.35711 0.0
O161 O 0.17127 0.79088 0.36751 0.0
C162 C 0.23073 0.78207 0.55488 0.0
Zn163 Zn 0.22242 0.75571 0.34525 0.0
C164 C 0.14987 0.75574 0.36219 0.0
O165 O 0.16413 0.73486 0.3555 0.0
C166 C 0.30193 0.81374 0.32688 0.0
O167 O 0.21852 0.75674 0.1883 0.0
O168 O 0.2255 0.81297 0.2012 0.0
N169 N 0.2119 0.70118 0.34995 0.0
C170 C 0.23256 0.68704 0.3881 0.0
C171 C 0.17608 0.64293 0.38644 0.0
N172 N 0.17687 0.6735 0.34822 0.0
N173 N 0.21059 0.65069 0.41403 0.0
C174 C 0.26024 0.89588 0.41905 0.0
C175 C 0.23414 0.91422 0.31331 0.0
N176 N 0.23803 0.86637 0.36109 0.0
N177 N 0.22174 0.87782 0.29576 0.0
N178 N 0.25841 0.92632 0.39021 0.0
H179 H 0.25975 0.87727 0.56794 0.0
H180 H 0.29988 0.92097 0.54229 0.0
H181 H 0.29584 0.87868 0.49116 0.0
C182 C 0.28052 0.89347 0.50948 0.0
C183 C 0.27437 0.70799 0.39084 0.0
H184 H 0.28515 0.72237 0.31841 0.0
H185 H 0.28588 0.68913 0.40191 0.0
H186 H 0.28428 0.72907 0.45119 0.0
O187 O 0.28046 0.77858 0.33058 0.0
O188 O 0.28837 0.83502 0.34 0.0
C189 C 0.2212 0.78589 0.14738 0.0
O190 O 0.23314 0.81098 0.51407 0.0
O191 O 0.22664 0.75532 0.50069 0.0
H192 H 0.49805 0.20233 0.14937 0.0
H193 H 0.39994 0.21309 0.17667 0.0
H194 H 0.39716 0.21813 -0.00417 0.0
H195 H 0.42276 0.21993 0.83041 0.0
H196 H 0.52052 0.20859 0.80325 0.0
H197 H 0.52342 0.20375 -0.01623 0.0
C198 C 0.4759 0.20551 0.11579 0.0
C199 C 0.44923 0.20725 0.17642 0.0
C200 C 0.47461 0.20872 0.0119 0.0
C201 C 0.42084 0.21163 0.1317 0.0
C202 C 0.41926 0.21463 0.0283 0.0
C203 C 0.44491 0.21673 0.86388 0.0
C204 C 0.47167 0.21516 0.80321 0.0
C205 C 0.44613 0.21343 -0.03223 0.0
C206 C 0.49986 0.21045 0.84799 0.0
C207 C 0.50141 0.20741 0.95135 0.0
H208 H 0.30385 0.48054 0.35197 0.0
H209 H 0.19766 0.37928 0.38659 0.0
H210 H 0.18942 0.37435 0.20622 0.0
H211 H 0.21225 0.39866 0.03881 0.0
H212 H 0.31839 0.49989 0.00383 0.0
H213 H 0.32662 0.50494 0.18434 0.0
C214 C 0.279 0.4573 0.32004 0.0
C215 C 0.25149 0.43034 0.38256 0.0
C216 C 0.27428 0.45469 0.21628 0.0
C217 C 0.21932 0.40048 0.34009 0.0
C218 C 0.21451 0.39762 0.23694 0.0
C219 C 0.23703 0.42197 0.07067 0.0
C220 C 0.26455 0.44886 0.00811 0.0
C221 C 0.24174 0.42463 0.17439 0.0
C222 C 0.29674 0.47874 0.05047 0.0
C223 C 0.30153 0.48167 0.15366 0.0
H224 H 0.81745 0.21376 0.19532 0.0
H225 H 0.8442 0.32849 0.16502 0.0
H226 H 0.84761 0.33533 0.34547 0.0
H227 H 0.84368 0.30909 0.51182 0.0
H228 H 0.81856 0.19486 0.54282 0.0
H229 H 0.81432 0.18771 0.36202 0.0
C230 C 0.82393 0.24023 0.22816 0.0
C231 C 0.83013 0.27042 0.16666 0.0
C232 C 0.82646 0.2442 0.3321 0.0
C233 C 0.83871 0.3046 0.21046 0.0
C234 C 0.84093 0.30865 0.31378 0.0
C235 C 0.83737 0.28265 0.4791 0.0
C236 C 0.83149 0.25262 0.54068 0.0
C237 C 0.83495 0.27868 0.37525 0.0
C238 C 0.82334 0.21852 0.49706 0.0
C239 C 0.82079 0.21433 0.39368 0.0
H240 H 0.64134 0.82107 0.34016 0.0
H241 H 0.53683 0.81949 0.30436 0.0
H242 H 0.5324 0.82398 0.48457 0.0
H243 H 0.55836 0.82872 0.65224 0.0
H244 H 0.66279 0.83005 0.68755 0.0
H245 H 0.66715 0.82555 0.50747 0.0
C246 C 0.61743 0.82134 0.3718 0.0
C247 C 0.58945 0.81982 0.30904 0.0
C248 C 0.61517 0.82425 0.47532 0.0
C249 C 0.5588 0.82064 0.35113 0.0
C250 C 0.55626 0.82329 0.45415 0.0
C251 C 0.5822 0.82832 0.62047 0.0
C252 C 0.61022 0.82983 0.68314 0.0
C253 C 0.5844 0.82535 0.51689 0.0
C254 C 0.6408 0.82893 0.64092 0.0
C255 C 0.64331 0.82627 0.53795 0.0
H256 H 0.8425 0.6374 0.52272 0.0
H257 H 0.74001 0.53212 0.49284 0.0
H258 H 0.73329 0.52696 0.67379 0.0
H259 H 0.75643 0.55235 0.84017 0.0
H260 H 0.85926 0.65741 0.86965 0.0
H261 H 0.86592 0.66251 0.68881 0.0
C262 C 0.81887 0.61318 0.55572 0.0
C263 C 0.79192 0.58517 0.49449 0.0
C264 C 0.81513 0.61038 0.65963 0.0
C265 C 0.76117 0.55415 0.53841 0.0
C266 C 0.75727 0.55114 0.64184 0.0
C267 C 0.78023 0.57642 0.80705 0.0
C268 C 0.80722 0.60446 0.86821 0.0
C269 C 0.78403 0.57914 0.7031 0.0
C270 C 0.83803 0.6354 0.8242 0.0
C271 C 0.84192 0.63837 0.72081 0.0
H272 H 0.22626 0.74078 0.00959 0.0
H273 H 0.21675 0.83955 0.03963 0.0
H274 H 0.21996 0.84771 0.85908 0.0
H275 H 0.2255 0.82693 0.69287 0.0
H276 H 0.23539 0.72841 0.66234 0.0
H277 H 0.23217 0.72018 0.84302 0.0
C278 C 0.22464 0.76393 -0.02342 0.0
C279 C 0.22118 0.78942 0.03788 0.0
C280 C 0.22683 0.7687 0.87273 0.0
C281 C 0.21942 0.81949 -0.00593 0.0
C282 C 0.22133 0.82425 0.89083 0.0
C283 C 0.22731 0.80387 0.72572 0.0
C284 C 0.23081 0.77845 0.66433 0.0
C285 C 0.22521 0.79914 0.82952 0.0
C286 C 0.23267 0.74842 0.70803 0.0
C287 C 0.23077 0.74362 0.81132 0.0
H288 H 0.33371 0.09675 0.49544 0.0
H289 H 0.43103 0.08376 0.5017 0.0
H290 H 0.39249 1.01767 0.46712 0.0
H291 H 0.33231 0.96456 0.42047 0.0
H292 H 0.23377 0.97458 0.42279 0.0
H293 H 0.27164 0.04103 0.4652 0.0
C294 C 0.34636 0.07932 0.49088 0.0
C295 C 0.38532 0.09546 0.5004 0.0
C296 C 0.32391 0.0409 0.47092 0.0
C297 C 0.4012 0.07235 0.49422 0.0
C298 C 0.37921 0.03444 0.47399 0.0
C299 C 0.31895 0.98092 0.43425 0.0
C300 C 0.28023 0.9645 0.42215 0.0
C301 C 0.34072 1.01859 0.46042 0.0
C302 C 0.26354 0.98664 0.43354 0.0
C303 C 0.28516 0.02451 0.45783 0.0
H304 H 0.30056 0.24747 0.62553 0.0
H305 H 0.40741 0.33443 0.52212 0.0
H306 H 0.39223 0.38204 0.57269 0.0
H307 H 0.34758 0.39863 0.63983 0.0
H308 H 0.2393 0.31169 0.73813 0.0
H309 H 0.25603 0.26441 0.69773 0.0
C310 C 0.32037 0.2769 0.61488 0.0
C311 C 0.35523 0.28773 0.57216 0.0
C312 C 0.31125 0.30402 0.64356 0.0
C313 C 0.38075 0.32578 0.55704 0.0
C314 C 0.37202 0.35288 0.58557 0.0
C315 C 0.3278 0.3694 0.65387 0.0
C316 C 0.29226 0.35879 0.69209 0.0
C317 C 0.33729 0.34232 0.62856 0.0
C318 C 0.26688 0.32068 0.70886 0.0
C319 C 0.27635 0.29358 0.68532 0.0
H320 H 0.94425 0.24766 0.859 0.0
H321 H 0.95923 0.35864 0.83976 0.0
H322 H 1.02484 0.38415 0.8009 0.0
H323 H 0.07694 0.37467 0.75903 0.0
H324 H 0.06426 0.26522 0.78397 0.0
H325 H 0.99852 0.23909 0.83095 0.0
C326 C 0.962 0.27747 0.84777 0.0
C327 C 0.94663 0.30106 0.85176 0.0
C328 C 1.0 0.29218 0.82506 0.0
C329 C 0.97012 0.33969 0.83688 0.0
C330 C 1.00772 0.3544 0.8142 0.0
C331 C 0.0601 0.34536 0.77829 0.0
C332 C 0.07554 0.32204 0.77142 0.0
C333 C 1.02279 0.33087 0.80648 0.0
C334 C 0.0529 0.28368 0.7905 0.0
C335 C 1.01546 0.26883 0.81738 0.0
H336 H 0.64133 0.95704 0.95403 0.0
H337 H 0.72608 0.93306 0.05759 0.0
H338 H 0.77378 0.9985 0.03491 0.0
H339 H 0.79195 0.06226 -0.0223 0.0
H340 H 0.70747 0.08481 0.86583 0.0
H341 H 0.65921 0.02052 0.90001 0.0
C342 C 0.67015 0.96619 -0.02708 0.0
C343 C 0.68007 0.94017 0.00753 0.0
C344 C 0.69756 1.0037 -0.04213 0.0
C345 C 0.71765 0.95249 0.03071 0.0
C346 C 0.745 0.98991 0.01749 0.0
C347 C 0.76291 0.05295 -0.03847 0.0
C348 C 0.75311 0.07841 0.92197 0.0
C349 C 0.73537 1.01566 -0.0203 0.0
C350 C 0.7155 0.06611 0.89986 0.0
C351 C 0.68795 0.02922 0.91839 0.0
H352 H 0.8037 0.71754 0.17605 0.0
H353 H 0.69593 0.61692 0.16407 0.0
H354 H 0.66653 0.65319 0.11963 0.0
H355 H 0.67179 0.71262 0.07008 0.0
H356 H 0.77786 0.81396 0.08846 0.0
H357 H 0.80786 0.7783 0.14129 0.0
C358 C 0.77373 0.70365 0.16527 0.0
C359 C 0.75221 0.6645 0.17277 0.0
C360 C 0.75676 0.72473 0.13936 0.0
C361 C 0.71334 0.64697 0.15843 0.0
C362 C 0.6964 0.66766 0.13255 0.0
C363 C 0.70118 0.72697 0.08938 0.0
C364 C 0.72243 0.76586 0.07882 0.0
C365 C 0.71788 0.70641 0.12109 0.0
C366 C 0.76097 0.78401 0.09778 0.0
C367 C 0.77802 0.76365 0.12802 0.0
H368 H 0.97904 0.66472 0.25371 0.0
H369 H 0.98984 0.77327 0.28037 0.0
H370 H 0.05542 0.79988 0.33041 0.0
H371 H 0.11005 0.79217 0.36024 0.0
H372 H 0.09766 0.68241 0.3379 0.0
H373 H 0.03186 0.65601 0.29685 0.0
C374 C 0.99545 0.69393 0.27378 0.0
C375 C 0.9795 0.71687 0.26651 0.0
C376 C 0.03274 0.70872 0.30355 0.0
C377 C 1.00157 0.75511 0.28706 0.0
C378 C 0.03893 0.77022 0.31571 0.0
C379 C 0.09285 0.76239 0.3479 0.0
C380 C 0.10895 0.7394 0.35173 0.0
C381 C 0.05489 0.74729 0.32362 0.0
C382 C 0.08615 0.70085 0.33536 0.0
C383 C 0.04848 0.68568 0.31134 0.0
H384 H 0.5759 0.30847 0.36056 0.0
H385 H 0.50516 0.34908 0.47191 0.0
H386 H 0.5467 0.41053 0.39755 0.0
H387 H 0.60328 0.45243 0.29884 0.0
H388 H 0.67089 0.40933 0.18192 0.0
H389 H 0.63009 0.34872 0.25957 0.0
C390 C 0.56966 0.33081 0.36977 0.0
C391 C 0.53771 0.32435 0.42273 0.0
C392 C 0.59292 0.36543 0.32482 0.0
C393 C 0.52977 0.35347 0.43216 0.0
C394 C 0.55337 0.38849 0.38921 0.0
C395 C 0.60866 0.42951 0.29003 0.0
C396 C 0.64023 0.43522 0.23652 0.0
C397 C 0.5849 0.39469 0.33469 0.0
C398 C 0.64714 0.40556 0.22474 0.0
C399 C 0.62384 0.37102 0.26892 0.0
H400 H 0.26598 0.56567 0.69528 0.0
H401 H 0.17263 0.47087 0.55713 0.0
H402 H 0.15789 0.51237 0.46215 0.0
H403 H 0.17435 0.57582 0.40882 0.0
H404 H 0.26241 0.67022 0.5627 0.0
H405 H 0.27711 0.62898 0.65828 0.0
C406 C 0.24217 0.55415 0.64533 0.0
C407 C 0.22065 0.51529 0.6328 0.0
C408 C 0.23362 0.5782 0.59127 0.0
C409 C 0.1895 0.50069 0.56886 0.0
C410 C 0.18127 0.52442 0.51357 0.0
C411 C 0.19684 0.58735 0.46306 0.0
C412 C 0.21894 0.62633 0.47292 0.0
C413 C 0.20366 0.56325 0.52245 0.0
C414 C 0.24687 0.64067 0.54703 0.0
C415 C 0.25473 0.61696 0.60381 0.0
H416 H 0.7269 0.20323 0.66139 0.0
H417 H 0.7009 0.24472 0.92484 0.0
H418 H 0.63933 0.2276 0.85538 0.0
H419 H 0.59481 0.20369 0.71606 0.0
H420 H 0.62515 0.17176 0.4423 0.0
H421 H 0.68265 0.18055 0.52046 0.0
C422 C 0.70735 0.20789 0.70386 0.0
C423 C 0.71769 0.22454 0.7983 0.0
C424 C 0.67309 0.19977 0.66132 0.0
C425 C 0.69298 0.2315 0.8524 0.0
C426 C 0.65802 0.22186 0.81253 0.0
C427 C 0.61447 0.1998 0.67234 0.0
C428 C 0.60655 0.18875 0.5719 0.0
C429 C 0.64816 0.20672 0.7162 0.0
C430 C 0.63103 0.18095 0.51904 0.0
C431 C 0.66389 0.18611 0.56358 0.0
H432 H 0.47449 0.71388 0.94739 0.0
H433 H 0.56909 0.69783 0.91264 0.0
H434 H 0.52918 0.63754 0.83376 0.0
H435 H 0.46764 0.59027 0.76866 0.0
H436 H 0.37278 0.60493 0.81561 0.0
H437 H 0.41267 0.66525 0.89162 0.0
C438 C 0.48642 0.69721 0.9231 0.0
C439 C 0.52485 0.71066 0.93557 0.0
C440 C 0.46337 0.66265 0.87713 0.0
C441 C 0.5396 0.68824 0.90457 0.0
C442 C 0.51684 0.65384 0.85855 0.0
C443 C 0.4558 0.60687 0.7947 0.0
C444 C 0.41742 0.59366 0.78109 0.0
C445 C 0.47877 0.64101 0.84309 0.0
C446 C 0.40238 0.61508 0.81835 0.0
C447 C 0.42515 0.64939 0.86436 0.0
H448 H 0.85059 0.54451 -0.01806 0.0
H449 H 0.83444 0.49492 0.27392 0.0
H450 H 0.84631 0.44662 0.20746 0.0
H451 H 0.85681 0.41642 0.06346 0.0
H452 H 0.86563 0.46211 0.76863 0.0
H453 H 0.86222 0.51486 0.83861 0.0
C454 C 0.85068 0.52359 0.03108 0.0
C455 C 0.84265 0.52344 0.1327 0.0
C456 C 0.85573 0.49514 -0.00864 0.0
C457 C 0.84146 0.49576 0.19583 0.0
C458 C 0.84787 0.46808 0.15761 0.0
C459 C 0.85709 0.4374 0.01436 0.0
C460 C 0.86001 0.43465 0.91055 0.0
C461 C 0.85405 0.46696 0.055 0.0
C462 C 0.86281 0.46341 0.84853 0.0
C463 C 0.86081 0.49347 0.8885 0.0
H464 H 0.44897 0.88361 0.07153 0.0
H465 H 0.45403 0.7903 0.1987 0.0
H466 H 0.39823 0.77293 0.29617 0.0
H467 H 0.34604 0.78248 0.33994 0.0
H468 H 0.34371 0.87895 0.22553 0.0
H469 H 0.40104 0.89773 0.13222 0.0
C470 C 0.43774 0.85946 0.12046 0.0
C471 C 0.45429 0.83689 0.12243 0.0
C472 C 0.40646 0.85057 0.18021 0.0
C473 C 0.44036 0.80659 0.18962 0.0
C474 C 0.40883 0.79706 0.24729 0.0
C475 C 0.35837 0.80788 0.29569 0.0
C476 C 0.34043 0.82906 0.28905 0.0
C477 C 0.39128 0.81848 0.24197 0.0
C478 C 0.35705 0.86222 0.23248 0.0
C479 C 0.38964 0.87278 0.17813 0.0
loop_
_geom_bond_atom_site_label_1
_geom_bond_atom_site_label_2
_geom_bond_distance
_geom_bond_site_symmetry_2
_ccdc_geom_bond_type
Zn0 O1 2.055 . S
Zn0 O8 2.046 . S
Zn0 N16 2.036 . S
Zn0 O28 2.053 . S
Zn0 O30 2.066 . S
O1 Zn0 2.055 . S
O1 C4 1.259 . S
C2 O30 1.256 . S
C2 O31 1.244 . S
Zn3 O5 2.046 . S
Zn3 O7 2.055 . S
Zn3 N9 2.036 . S
Zn3 O27 2.066 . S
Zn3 O31 2.053 . S
C4 O1 1.259 . S
C4 O5 1.254 . S
O5 Zn3 2.046 . S
O5 C4 1.254 . S
C6 O27 1.256 . S
C6 O28 1.244 . S
O7 Zn3 2.055 . S
O7 C29 1.259 . S
O8 Zn0 2.046 . S
O8 C29 1.254 . S
N9 Zn3 2.036 . S
N9 C10 1.298 . S
N9 N12 1.398 . S
C10 N9 1.298 . S
C10 N13 1.367 . S
C10 C23 1.481 . S
C11 N12 1.299 . S
C11 N13 1.379 . S
N12 N9 1.398 . S
N12 C11 1.299 . S
N13 C10 1.367 . S
N13 C11 1.379 . S
C14 N16 1.298 . S
C14 N18 1.367 . S
C14 C22 1.481 . S
C15 N17 1.299 . S
C15 N18 1.379 . S
N16 Zn0 2.036 . S
N16 C14 1.298 . S
N16 N17 1.398 . S
N17 C15 1.299 . S
N17 N16 1.398 . S
N18 C14 1.367 . S
N18 C15 1.379 . S
H19 C22 0.980 . S
H20 C22 0.981 . S
H21 C22 0.981 . S
C22 C14 1.481 . S
C22 H19 0.980 . S
C22 H20 0.981 . S
C22 H21 0.981 . S
C23 C10 1.481 . S
C23 H24 0.980 . S
C23 H25 0.981 . S
C23 H26 0.981 . S
H24 C23 0.980 . S
H25 C23 0.981 . S
H26 C23 0.981 . S
O27 Zn3 2.066 . S
O27 C6 1.256 . S
O28 Zn0 2.053 . S
O28 C6 1.244 . S
C29 O7 1.259 . S
C29 O8 1.254 . S
O30 Zn0 2.066 . S
O30 C2 1.256 . S
O31 C2 1.244 . S
O31 Zn3 2.053 . S
Zn32 O33 2.055 . S
Zn32 O40 2.046 . S
Zn32 N48 2.036 . S
Zn32 O60 2.053 . S
Zn32 O62 2.066 . S
O33 Zn32 2.055 . S
O33 C36 1.259 . S
C34 O62 1.256 . S
C34 O63 1.244 . S
Zn35 O37 2.046 . S
Zn35 O39 2.055 . S
Zn35 N41 2.036 . S
Zn35 O59 2.066 . S
Zn35 O63 2.053 . S
C36 O33 1.259 . S
C36 O37 1.254 . S
O37 Zn35 2.046 . S
O37 C36 1.254 . S
C38 O59 1.256 . S
C38 O60 1.244 . S
O39 Zn35 2.055 . S
O39 C61 1.259 . S
O40 Zn32 2.046 . S
O40 C61 1.254 . S
N41 Zn35 2.036 . S
N41 C42 1.298 . S
N41 N44 1.398 . S
C42 N41 1.298 . S
C42 N45 1.367 . S
C42 C55 1.481 . S
C43 N44 1.299 . S
C43 N45 1.379 . S
N44 N41 1.398 . S
N44 C43 1.299 . S
N45 C42 1.367 . S
N45 C43 1.379 . S
C46 N48 1.298 . S
C46 N50 1.367 . S
C46 C54 1.481 . S
C47 N49 1.299 . S
C47 N50 1.379 . S
N48 Zn32 2.036 . S
N48 C46 1.298 . S
N48 N49 1.398 . S
N49 C47 1.299 . S
N49 N48 1.398 . S
N50 C46 1.367 . S
N50 C47 1.379 . S
H51 C54 0.980 . S
H52 C54 0.981 . S
H53 C54 0.981 . S
C54 C46 1.481 . S
C54 H51 0.980 . S
C54 H52 0.981 . S
C54 H53 0.981 . S
C55 C42 1.481 . S
C55 H56 0.980 . S
C55 H57 0.981 . S
C55 H58 0.981 . S
H56 C55 0.980 . S
H57 C55 0.981 . S
H58 C55 0.981 . S
O59 Zn35 2.066 . S
O59 C38 1.256 . S
O60 Zn32 2.053 . S
O60 C38 1.244 . S
C61 O39 1.259 . S
C61 O40 1.254 . S
O62 Zn32 2.066 . S
O62 C34 1.256 . S
O63 C34 1.244 . S
O63 Zn35 2.053 . S
Zn64 O65 2.055 . S
Zn64 O72 2.046 . S
Zn64 N80 2.036 . S
Zn64 O92 2.053 . S
Zn64 O94 2.066 1_556 S
O65 Zn64 2.055 . S
O65 C68 1.259 . S
C66 O94 1.256 . S
C66 O95 1.244 . S
Zn67 O69 2.046 . S
Zn67 O71 2.055 . S
Zn67 N73 2.036 . S
Zn67 O91 2.066 . S
Zn67 O95 2.053 1_556 S
C68 O65 1.259 . S
C68 O69 1.254 . S
O69 Zn67 2.046 . S
O69 C68 1.254 . S
C70 O91 1.256 . S
C70 O92 1.244 . S
O71 Zn67 2.055 . S
O71 C93 1.259 . S
O72 Zn64 2.046 . S
O72 C93 1.254 . S
N73 Zn67 2.036 . S
N73 C74 1.298 . S
N73 N76 1.398 1_556 S
C74 N73 1.298 . S
C74 N77 1.367 . S
C74 C87 1.481 . S
C75 N76 1.299 . S
C75 N77 1.379 1_554 S
N76 N73 1.398 1_554 S
N76 C75 1.299 . S
N77 C74 1.367 . S
N77 C75 1.379 1_556 S
C78 N80 1.298 . S
C78 N82 1.367 . S
C78 C86 1.481 . S
C79 N81 1.299 . S
C79 N82 1.379 . S
N80 Zn64 2.036 . S
N80 C78 1.298 . S
N80 N81 1.398 . S
N81 C79 1.299 . S
N81 N80 1.398 . S
N82 C78 1.367 . S
N82 C79 1.379 . S
H83 C86 0.980 . S
H84 C86 0.981 . S
H85 C86 0.981 1_554 S
C86 C78 1.481 . S
C86 H83 0.980 . S
C86 H84 0.981 . S
C86 H85 0.981 1_556 S
C87 C74 1.481 . S
C87 H88 0.980 . S
C87 H89 0.981 . S
C87 H90 0.981 . S
H88 C87 0.980 . S
H89 C87 0.981 . S
H90 C87 0.981 . S
O91 Zn67 2.066 . S
O91 C70 1.256 . S
O92 Zn64 2.053 . S
O92 C70 1.244 . S
C93 O71 1.259 . S
C93 O72 1.254 . S
O94 Zn64 2.066 1_554 S
O94 C66 1.256 . S
O95 C66 1.244 . S
O95 Zn67 2.053 1_554 S
Zn96 O97 2.055 . S
Zn96 O104 2.046 1_554 S
Zn96 N112 2.036 . S
Zn96 O124 2.053 . S
Zn96 O126 2.066 . S
O97 Zn96 2.055 . S
O97 C100 1.259 . S
C98 O126 1.256 . S
C98 O127 1.244 . S
Zn99 O101 2.046 . S
Zn99 O103 2.055 1_554 S
Zn99 N105 2.036 . S
Zn99 O123 2.066 . S
Zn99 O127 2.053 . S
C100 O97 1.259 . S
C100 O101 1.254 . S
O101 Zn99 2.046 . S
O101 C100 1.254 . S
C102 O123 1.256 . S
C102 O124 1.244 . S
O103 Zn99 2.055 1_556 S
O103 C125 1.259 . S
O104 Zn96 2.046 1_556 S
O104 C125 1.254 . S
N105 Zn99 2.036 . S
N105 C106 1.298 . S
N105 N108 1.398 . S
C106 N105 1.298 . S
C106 N109 1.367 . S
C106 C119 1.481 1_554 S
C107 N108 1.299 . S
C107 N109 1.379 . S
N108 N105 1.398 . S
N108 C107 1.299 . S
N109 C106 1.367 . S
N109 C107 1.379 . S
C110 N112 1.298 . S
C110 N114 1.367 . S
C110 C118 1.481 . S
C111 N113 1.299 . S
C111 N114 1.379 . S
N112 Zn96 2.036 . S
N112 C110 1.298 . S
N112 N113 1.398 . S
N113 C111 1.299 . S
N113 N112 1.398 . S
N114 C110 1.367 . S
N114 C111 1.379 . S
H115 C118 0.980 . S
H116 C118 0.981 . S
H117 C118 0.981 . S
C118 C110 1.481 . S
C118 H115 0.980 . S
C118 H116 0.981 . S
C118 H117 0.981 . S
C119 C106 1.481 1_556 S
C119 H120 0.980 . S
C119 H121 0.981 . S
C119 H122 0.981 . S
H120 C119 0.980 . S
H121 C119 0.981 . S
H122 C119 0.981 . S
O123 Zn99 2.066 . S
O123 C102 1.256 . S
O124 Zn96 2.053 . S
O124 C102 1.244 . S
C125 O103 1.259 . S
C125 O104 1.254 . S
O126 Zn96 2.066 . S
O126 C98 1.256 . S
O127 C98 1.244 . S
O127 Zn99 2.053 . S
Zn128 O129 2.055 . S
Zn128 O136 2.046 . S
Zn128 N144 2.036 . S
Zn128 O156 2.053 . S
Zn128 O158 2.066 . S
O129 Zn128 2.055 . S
O129 C132 1.259 . S
C130 O158 1.256 . S
C130 O159 1.244 . S
Zn131 O133 2.046 . S
Zn131 O135 2.055 . S
Zn131 N137 2.036 . S
Zn131 O155 2.066 . S
Zn131 O159 2.053 . S
C132 O129 1.259 . S
C132 O133 1.254 . S
O133 Zn131 2.046 . S
O133 C132 1.254 . S
C134 O155 1.256 . S
C134 O156 1.244 . S
O135 Zn131 2.055 . S
O135 C157 1.259 . S
O136 Zn128 2.046 . S
O136 C157 1.254 . S
N137 Zn131 2.036 . S
N137 C138 1.298 . S
N137 N140 1.398 . S
C138 N137 1.298 . S
C138 N141 1.367 . S
C138 C151 1.481 . S
C139 N140 1.299 . S
C139 N141 1.379 . S
N140 N137 1.398 . S
N140 C139 1.299 . S
N141 C138 1.367 . S
N141 C139 1.379 . S
C142 N144 1.298 . S
C142 N146 1.367 . S
C142 C150 1.481 . S
C143 N145 1.299 . S
C143 N146 1.379 . S
N144 Zn128 2.036 . S
N144 C142 1.298 . S
N144 N145 1.398 . S
N145 C143 1.299 . S
N145 N144 1.398 . S
N146 C142 1.367 . S
N146 C143 1.379 . S
H147 C150 0.980 . S
H148 C150 0.981 . S
H149 C150 0.981 . S
C150 C142 1.481 . S
C150 H147 0.980 . S
C150 H148 0.981 . S
C150 H149 0.981 . S
C151 C138 1.481 . S
C151 H152 0.980 . S
C151 H153 0.981 . S
C151 H154 0.981 . S
H152 C151 0.980 . S
H153 C151 0.981 . S
H154 C151 0.981 . S
O155 Zn131 2.066 . S
O155 C134 1.256 . S
O156 Zn128 2.053 . S
O156 C134 1.244 . S
C157 O135 1.259 . S
C157 O136 1.254 . S
O158 Zn128 2.066 . S
O158 C130 1.256 . S
O159 C130 1.244 . S
O159 Zn131 2.053 . S
Zn160 O161 2.055 . S
Zn160 O168 2.046 . S
Zn160 N176 2.036 . S
Zn160 O188 2.053 . S
Zn160 O190 2.066 . S
O161 Zn160 2.055 . S
O161 C164 1.259 . S
C162 O190 1.256 . S
C162 O191 1.244 . S
Zn163 O165 2.046 . S
Zn163 O167 2.055 . S
Zn163 N169 2.036 . S
Zn163 O187 2.066 . S
Zn163 O191 2.053 . S
C164 O161 1.259 . S
C164 O165 1.254 . S
O165 Zn163 2.046 . S
O165 C164 1.254 . S
C166 O187 1.256 . S
C166 O188 1.244 . S
O167 Zn163 2.055 . S
O167 C189 1.259 . S
O168 Zn160 2.046 . S
O168 C189 1.254 . S
N169 Zn163 2.036 . S
N169 C170 1.298 . S
N169 N172 1.398 . S
C170 N169 1.298 . S
C170 N173 1.367 . S
C170 C183 1.481 . S
C171 N172 1.299 . S
C171 N173 1.379 . S
N172 N169 1.398 . S
N172 C171 1.299 . S
N173 C170 1.367 . S
N173 C171 1.379 . S
C174 N176 1.298 . S
C174 N178 1.367 . S
C174 C182 1.481 . S
C175 N177 1.299 . S
C175 N178 1.379 . S
N176 Zn160 2.036 . S
N176 C174 1.298 . S
N176 N177 1.398 . S
N177 C175 1.299 . S
N177 N176 1.398 . S
N178 C174 1.367 . S
N178 C175 1.379 . S
H179 C182 0.980 . S
H180 C182 0.981 . S
H181 C182 0.981 . S
C182 C174 1.481 . S
C182 H179 0.980 . S
C182 H180 0.981 . S
C182 H181 0.981 . S
C183 C170 1.481 . S
C183 H184 0.980 . S
C183 H185 0.981 . S
C183 H186 0.981 . S
H184 C183 0.980 . S
H185 C183 0.981 . S
H186 C183 0.981 . S
O187 Zn163 2.066 . S
O187 C166 1.256 . S
O188 Zn160 2.053 . S
O188 C166 1.244 . S
C189 O167 1.259 . S
C189 O168 1.254 . S
O190 Zn160 2.066 . S
O190 C162 1.256 . S
O191 C162 1.244 . S
O191 Zn163 2.053 . S
H192 C198 0.930 . S
H193 C201 0.930 . S
H194 C202 0.930 . S
H195 C203 0.930 . S
H196 C206 0.930 . S
H197 C207 0.930 1_554 S
C198 H192 0.930 . S
C198 C199 1.355 . S
C198 C200 1.415 . S
C199 C198 1.355 . S
C199 C201 1.419 . S
C200 C198 1.415 . S
C200 C205 1.425 . S
C200 C207 1.408 1_554 S
C201 H193 0.930 . S
C201 C199 1.419 . S
C201 C202 1.362 . S
C202 H194 0.930 . S
C202 C201 1.362 . S
C202 C205 1.409 . S
C203 H195 0.930 . S
C203 C204 1.355 . S
C203 C205 1.415 1_556 S
C204 C203 1.355 . S
C204 C206 1.419 . S
C205 C200 1.425 . S
C205 C202 1.409 . S
C205 C203 1.415 1_554 S
C206 H196 0.930 . S
C206 C204 1.419 . S
C206 C207 1.363 . S
C207 H197 0.930 1_556 S
C207 C200 1.408 1_556 S
C207 C206 1.363 . S
H208 C214 0.930 . S
H209 C217 0.930 . S
H210 C218 0.930 . S
H211 C219 0.930 . S
H212 C222 0.930 . S
H213 C223 0.930 . S
C214 H208 0.930 . S
C214 C215 1.355 . S
C214 C216 1.415 . S
C215 C214 1.355 . S
C215 C217 1.419 . S
C216 C214 1.415 . S
C216 C221 1.425 . S
C216 C223 1.409 . S
C217 H209 0.930 . S
C217 C215 1.419 . S
C217 C218 1.362 . S
C218 H210 0.930 . S
C218 C217 1.362 . S
C218 C221 1.409 . S
C219 H211 0.930 . S
C219 C220 1.355 . S
C219 C221 1.415 . S
C220 C219 1.355 . S
C220 C222 1.419 . S
C221 C216 1.425 . S
C221 C218 1.409 . S
C221 C219 1.415 . S
C222 H212 0.930 . S
C222 C220 1.419 . S
C222 C223 1.362 . S
C223 H213 0.930 . S
C223 C216 1.409 . S
C223 C222 1.362 . S
H224 C230 0.930 . S
H225 C233 0.930 . S
H226 C234 0.930 . S
H227 C235 0.930 . S
H228 C238 0.930 . S
H229 C239 0.930 . S
C230 H224 0.930 . S
C230 C231 1.355 . S
C230 C232 1.415 . S
C231 C230 1.355 . S
C231 C233 1.419 . S
C232 C230 1.415 . S
C232 C237 1.425 . S
C232 C239 1.409 . S
C233 H225 0.930 . S
C233 C231 1.419 . S
C233 C234 1.362 . S
C234 H226 0.930 . S
C234 C233 1.362 . S
C234 C237 1.409 . S
C235 H227 0.930 . S
C235 C236 1.355 . S
C235 C237 1.415 . S
C236 C235 1.355 . S
C236 C238 1.419 . S
C237 C232 1.425 . S
C237 C234 1.409 . S
C237 C235 1.415 . S
C238 H228 0.930 . S
C238 C236 1.419 . S
C238 C239 1.362 . S
C239 H229 0.930 . S
C239 C232 1.409 . S
C239 C238 1.362 . S
H240 C246 0.930 . S
H241 C249 0.930 . S
H242 C250 0.930 . S
H243 C251 0.930 . S
H244 C254 0.930 . S
H245 C255 0.930 . S
C246 H240 0.930 . S
C246 C247 1.355 . S
C246 C248 1.415 . S
C247 C246 1.355 . S
C247 C249 1.419 . S
C248 C246 1.415 . S
C248 C253 1.425 . S
C248 C255 1.409 . S
C249 H241 0.930 . S
C249 C247 1.419 . S
C249 C250 1.362 . S
C250 H242 0.930 . S
C250 C249 1.362 . S
C250 C253 1.409 . S
C251 H243 0.930 . S
C251 C252 1.355 . S
C251 C253 1.415 . S
C252 C251 1.355 . S
C252 C254 1.419 . S
C253 C248 1.425 . S
C253 C250 1.409 . S
C253 C251 1.415 . S
C254 H244 0.930 . S
C254 C252 1.419 . S
C254 C255 1.362 . S
C255 H245 0.930 . S
C255 C248 1.409 . S
C255 C254 1.362 . S
H256 C262 0.930 . S
H257 C265 0.930 . S
H258 C266 0.930 . S
H259 C267 0.930 . S
H260 C270 0.930 . S
H261 C271 0.930 . S
C262 H256 0.930 . S
C262 C263 1.355 . S
C262 C264 1.415 . S
C263 C262 1.355 . S
C263 C265 1.419 . S
C264 C262 1.415 . S
C264 C269 1.425 . S
C264 C271 1.409 . S
C265 H257 0.930 . S
C265 C263 1.419 . S
C265 C266 1.362 . S
C266 H258 0.930 . S
C266 C265 1.362 . S
C266 C269 1.409 . S
C267 H259 0.930 . S
C267 C268 1.355 . S
C267 C269 1.415 . S
C268 C267 1.355 . S
C268 C270 1.419 . S
C269 C264 1.425 . S
C269 C266 1.409 . S
C269 C267 1.415 . S
C270 H260 0.930 . S
C270 C268 1.419 . S
C270 C271 1.362 . S
C271 H261 0.930 . S
C271 C264 1.409 . S
C271 C270 1.362 . S
H272 C278 0.930 . S
H273 C281 0.930 . S
H274 C282 0.930 . S
H275 C283 0.930 . S
H276 C286 0.930 . S
H277 C287 0.930 . S
C278 H272 0.930 . S
C278 C279 1.355 . S
C278 C280 1.415 1_554 S
C279 C278 1.355 . S
C279 C281 1.419 . S
C280 C278 1.415 1_556 S
C280 C285 1.425 . S
C280 C287 1.409 . S
C281 H273 0.930 . S
C281 C279 1.419 . S
C281 C282 1.362 1_554 S
C282 H274 0.930 . S
C282 C281 1.362 1_556 S
C282 C285 1.409 . S
C283 H275 0.930 . S
C283 C284 1.355 . S
C283 C285 1.415 . S
C284 C283 1.355 . S
C284 C286 1.419 . S
C285 C280 1.425 . S
C285 C282 1.409 . S
C285 C283 1.415 . S
C286 H276 0.930 . S
C286 C284 1.419 . S
C286 C287 1.362 . S
C287 H277 0.930 . S
C287 C280 1.409 . S
C287 C286 1.362 . S
H288 C294 0.930 . S
H289 C297 0.930 . S
H290 C298 0.930 . S
H291 C299 0.930 . S
H292 C302 0.930 . S
H293 C303 0.930 . S
C294 H288 0.930 . S
C294 C295 1.355 . S
C294 C296 1.415 . S
C295 C294 1.355 . S
C295 C297 1.419 . S
C296 C294 1.415 . S
C296 C301 1.425 . S
C296 C303 1.409 . S
C297 H289 0.930 . S
C297 C295 1.419 . S
C297 C298 1.362 . S
C298 H290 0.930 . S
C298 C297 1.362 . S
C298 C301 1.409 . S
C299 H291 0.930 . S
C299 C300 1.355 . S
C299 C301 1.415 1_565 S
C300 C299 1.355 . S
C300 C302 1.419 . S
C301 C296 1.425 . S
C301 C298 1.409 . S
C301 C299 1.415 1_545 S
C302 H292 0.930 . S
C302 C300 1.419 . S
C302 C303 1.362 1_565 S
C303 H293 0.930 . S
C303 C296 1.409 . S
C303 C302 1.362 1_545 S
H304 C310 0.930 . S
H305 C313 0.930 . S
H306 C314 0.930 . S
H307 C315 0.930 . S
H308 C318 0.930 . S
H309 C319 0.930 . S
C310 H304 0.930 . S
C310 C311 1.355 . S
C310 C312 1.415 . S
C311 C310 1.355 . S
C311 C313 1.419 . S
C312 C310 1.415 . S
C312 C317 1.425 . S
C312 C319 1.409 . S
C313 H305 0.930 . S
C313 C311 1.419 . S
C313 C314 1.362 . S
C314 H306 0.930 . S
C314 C313 1.362 . S
C314 C317 1.409 . S
C315 H307 0.930 . S
C315 C316 1.355 . S
C315 C317 1.415 . S
C316 C315 1.355 . S
C316 C318 1.419 . S
C317 C312 1.425 . S
C317 C314 1.409 . S
C317 C315 1.415 . S
C318 H308 0.930 . S
C318 C316 1.419 . S
C318 C319 1.362 . S
C319 H309 0.930 . S
C319 C312 1.409 . S
C319 C318 1.362 . S
H320 C326 0.930 . S
H321 C329 0.930 . S
H322 C330 0.930 . S
H323 C331 0.930 . S
H324 C334 0.930 . S
H325 C335 0.930 . S
C326 H320 0.930 . S
C326 C327 1.355 . S
C326 C328 1.415 . S
C327 C326 1.355 . S
C327 C329 1.419 . S
C328 C326 1.415 . S
C328 C333 1.425 . S
C328 C335 1.409 . S
C329 H321 0.930 . S
C329 C327 1.419 . S
C329 C330 1.362 . S
C330 H322 0.930 . S
C330 C329 1.362 . S
C330 C333 1.409 . S
C331 H323 0.930 . S
C331 C332 1.355 . S
C331 C333 1.415 1_455 S
C332 C331 1.355 . S
C332 C334 1.419 . S
C333 C328 1.425 . S
C333 C330 1.409 . S
C333 C331 1.415 1_655 S
C334 H324 0.930 . S
C334 C332 1.419 . S
C334 C335 1.362 1_455 S
C335 H325 0.930 . S
C335 C328 1.409 . S
C335 C334 1.362 1_655 S
H336 C342 0.930 . S
H337 C345 0.930 . S
H338 C346 0.930 . S
H339 C347 0.930 . S
H340 C350 0.930 . S
H341 C351 0.930 . S
C342 H336 0.930 . S
C342 C343 1.355 . S
C342 C344 1.415 . S
C343 C342 1.355 . S
C343 C345 1.419 . S
C344 C342 1.415 . S
C344 C349 1.425 . S
C344 C351 1.409 . S
C345 H337 0.930 . S
C345 C343 1.419 . S
C345 C346 1.362 . S
C346 H338 0.930 . S
C346 C345 1.362 . S
C346 C349 1.409 . S
C347 H339 0.930 . S
C347 C348 1.355 . S
C347 C349 1.415 1_546 S
C348 C347 1.355 . S
C348 C350 1.419 . S
C349 C344 1.425 . S
C349 C346 1.409 . S
C349 C347 1.415 1_564 S
C350 H340 0.930 . S
C350 C348 1.419 . S
C350 C351 1.362 1_546 S
C351 H341 0.930 . S
C351 C344 1.409 . S
C351 C350 1.362 1_564 S
H352 C358 0.930 . S
H353 C361 0.930 . S
H354 C362 0.930 . S
H355 C363 0.930 . S
H356 C366 0.930 . S
H357 C367 0.930 . S
C358 H352 0.930 . S
C358 C359 1.355 . S
C358 C360 1.415 . S
C359 C358 1.355 . S
C359 C361 1.419 . S
C360 C358 1.415 . S
C360 C365 1.425 . S
C360 C367 1.409 . S
C361 H353 0.930 . S
C361 C359 1.419 . S
C361 C362 1.362 . S
C362 H354 0.930 . S
C362 C361 1.362 . S
C362 C365 1.409 . S
C363 H355 0.930 . S
C363 C364 1.355 . S
C363 C365 1.415 . S
C364 C363 1.355 . S
C364 C366 1.419 . S
C365 C360 1.425 . S
C365 C362 1.409 . S
C365 C363 1.415 . S
C366 H356 0.930 . S
C366 C364 1.419 . S
C366 C367 1.362 . S
C367 H357 0.930 . S
C367 C360 1.409 . S
C367 C366 1.362 . S
H368 C374 0.930 . S
H369 C377 0.930 . S
H370 C378 0.930 . S
H371 C379 0.930 . S
H372 C382 0.930 . S
H373 C383 0.930 . S
C374 H368 0.930 . S
C374 C375 1.355 . S
C374 C376 1.415 1_655 S
C375 C374 1.355 . S
C375 C377 1.419 . S
C376 C374 1.415 1_455 S
C376 C381 1.425 . S
C376 C383 1.409 . S
C377 H369 0.930 . S
C377 C375 1.419 . S
C377 C378 1.362 1_655 S
C378 H370 0.930 . S
C378 C377 1.362 1_455 S
C378 C381 1.409 . S
C379 H371 0.930 . S
C379 C380 1.355 . S
C379 C381 1.415 . S
C380 C379 1.355 . S
C380 C382 1.419 . S
C381 C376 1.425 . S
C381 C378 1.409 . S
C381 C379 1.415 . S
C382 H372 0.930 . S
C382 C380 1.419 . S
C382 C383 1.362 . S
C383 H373 0.930 . S
C383 C376 1.409 . S
C383 C382 1.362 . S
H384 C390 0.930 . S
H385 C393 0.930 . S
H386 C394 0.930 . S
H387 C395 0.930 . S
H388 C398 0.930 . S
H389 C399 0.930 . S
C390 H384 0.930 . S
C390 C391 1.355 . S
C390 C392 1.415 . S
C391 C390 1.355 . S
C391 C393 1.419 . S
C392 C390 1.415 . S
C392 C397 1.425 . S
C392 C399 1.409 . S
C393 H385 0.930 . S
C393 C391 1.419 . S
C393 C394 1.362 . S
C394 H386 0.930 . S
C394 C393 1.362 . S
C394 C397 1.409 . S
C395 H387 0.930 . S
C395 C396 1.355 . S
C395 C397 1.415 . S
C396 C395 1.355 . S
C396 C398 1.419 . S
C397 C392 1.425 . S
C397 C394 1.409 . S
C397 C395 1.415 . S
C398 H388 0.930 . S
C398 C396 1.419 . S
C398 C399 1.362 . S
C399 H389 0.930 . S
C399 C392 1.409 . S
C399 C398 1.362 . S
H400 C406 0.930 . S
H401 C409 0.930 . S
H402 C410 0.930 . S
H403 C411 0.930 . S
H404 C414 0.930 . S
H405 C415 0.930 . S
C406 H400 0.930 . S
C406 C407 1.355 . S
C406 C408 1.415 . S
C407 C406 1.355 . S
C407 C409 1.419 . S
C408 C406 1.415 . S
C408 C413 1.425 . S
C408 C415 1.409 . S
C409 H401 0.930 . S
C409 C407 1.419 . S
C409 C410 1.362 . S
C410 H402 0.930 . S
C410 C409 1.362 . S
C410 C413 1.409 . S
C411 H403 0.930 . S
C411 C412 1.355 . S
C411 C413 1.415 . S
C412 C411 1.355 . S
C412 C414 1.419 . S
C413 C408 1.425 . S
C413 C410 1.409 . S
C413 C411 1.415 . S
C414 H404 0.930 . S
C414 C412 1.419 . S
C414 C415 1.362 . S
C415 H405 0.930 . S
C415 C408 1.409 . S
C415 C414 1.362 . S
H416 C422 0.930 . S
H417 C425 0.930 . S
H418 C426 0.930 . S
H419 C427 0.930 . S
H420 C430 0.930 . S
H421 C431 0.930 . S
C422 H416 0.930 . S
C422 C423 1.355 . S
C422 C424 1.415 . S
C423 C422 1.355 . S
C423 C425 1.419 . S
C424 C422 1.415 . S
C424 C429 1.425 . S
C424 C431 1.409 . S
C425 H417 0.930 . S
C425 C423 1.419 . S
C425 C426 1.362 . S
C426 H418 0.930 . S
C426 C425 1.362 . S
C426 C429 1.409 . S
C427 H419 0.930 . S
C427 C428 1.355 . S
C427 C429 1.415 . S
C428 C427 1.355 . S
C428 C430 1.419 . S
C429 C424 1.425 . S
C429 C426 1.409 . S
C429 C427 1.415 . S
C430 H420 0.930 . S
C430 C428 1.419 . S
C430 C431 1.362 . S
C431 H421 0.930 . S
C431 C424 1.409 . S
C431 C430 1.362 . S
H432 C438 0.930 1_554 S
H433 C441 0.930 . S
H434 C442 0.930 . S
H435 C443 0.930 . S
H436 C446 0.930 . S
H437 C447 0.930 . S
C438 H432 0.930 1_556 S
C438 C439 1.355 1_556 S
C438 C440 1.415 . S
C439 C438 1.355 1_554 S
C439 C441 1.419 1_554 S
C440 C438 1.415 . S
C440 C445 1.425 . S
C440 C447 1.409 . S
C441 H433 0.930 . S
C441 C439 1.419 1_556 S
C441 C442 1.362 . S
C442 H434 0.930 . S
C442 C441 1.362 . S
C442 C445 1.409 . S
C443 H435 0.930 . S
C443 C444 1.355 . S
C443 C445 1.415 . S
C444 C443 1.355 . S
C444 C446 1.419 . S
C445 C440 1.425 . S
C445 C442 1.409 . S
C445 C443 1.415 . S
C446 H436 0.930 . S
C446 C444 1.419 . S
C446 C447 1.362 . S
C447 H437 0.930 . S
C447 C440 1.409 . S
C447 C446 1.362 . S
H448 C454 0.930 . S
H449 C457 0.930 . S
H450 C458 0.930 1_556 S
H451 C459 0.930 . S
H452 C462 0.930 . S
H453 C463 0.930 . S
C454 H448 0.930 . S
C454 C455 1.355 . S
C454 C456 1.415 . S
C455 C454 1.355 . S
C455 C457 1.419 . S
C456 C454 1.415 . S
C456 C461 1.425 . S
C456 C463 1.409 . S
C457 H449 0.930 . S
C457 C455 1.419 . S
C457 C458 1.362 . S
C458 H450 0.930 1_554 S
C458 C457 1.362 . S
C458 C461 1.409 . S
C459 H451 0.930 . S
C459 C460 1.355 . S
C459 C461 1.415 1_556 S
C460 C459 1.355 . S
C460 C462 1.419 1_556 S
C461 C456 1.425 . S
C461 C458 1.409 . S
C461 C459 1.415 1_554 S
C462 H452 0.930 . S
C462 C460 1.419 1_554 S
C462 C463 1.362 . S
C463 H453 0.930 . S
C463 C456 1.409 . S
C463 C462 1.362 . S
H464 C470 0.930 . S
H465 C473 0.930 . S
H466 C474 0.930 . S
H467 C475 0.930 . S
H468 C478 0.930 . S
H469 C479 0.930 . S
C470 H464 0.930 . S
C470 C471 1.355 . S
C470 C472 1.415 . S
C471 C470 1.355 . S
C471 C473 1.419 . S
C472 C470 1.415 . S
C472 C477 1.425 . S
C472 C479 1.409 . S
C473 H465 0.930 . S
C473 C471 1.419 . S
C473 C474 1.362 . S
C474 H466 0.930 . S
C474 C473 1.362 . S
C474 C477 1.409 . S
C475 H467 0.930 . S
C475 C476 1.355 . S
C475 C477 1.415 . S
C476 C475 1.355 . S
C476 C478 1.419 . S
C477 C472 1.425 . S
C477 C474 1.409 . S
C477 C475 1.415 . S
C478 H468 0.930 . S
C478 C476 1.419 . S
C478 C479 1.362 . S
C479 H469 0.930 . S
C479 C472 1.409 . S
C479 C478 1.362 . S
C199 C29 1.056 . S
C204 C2 1.071 . S
C215 C61 1.100 . S
C220 C34 1.098 1_554 S
C231 C66 1.086 . S
C236 C93 1.073 . S
C247 C98 1.078 . S
C252 C125 1.063 . S
C263 C134 1.085 . S
C268 C132 1.072 1_556 S
C279 C189 1.061 . S
C284 C162 1.077 . S
C295 C4 1.499 . S
C300 N178 1.551 . S
C311 N18 1.470 . S
C316 C36 1.545 . S
C327 C68 1.517 . S
C332 N50 1.549 . S
C343 C100 1.524 . S
C348 N82 1.481 . S
C359 C157 1.549 . S
C364 N114 1.522 . S
C375 N141 1.548 . S
C380 C164 1.519 . S
C391 C6 1.869 . S
C396 N146 1.776 . S
C407 C38 1.870 . S
C412 N173 1.756 . S
C423 C70 1.861 . S
C428 N13 1.760 . S
C439 C102 1.877 . S
C444 N45 1.772 . S
C455 C130 1.848 . S
C460 N77 1.725 . S
C471 N109 1.719 . S
C476 C166 1.848 . S
