# Generated by pormake.
# Topology uot, (4)-cn, num edge types: 1
# Building blocks:
#     Node 0, Type 0, BuildingBlock: QUQFOY_clean_sbu_3, # of connection points: 4
#     Node 1, Type 0, BuildingBlock: QUQFOY_clean_sbu_3, # of connection points: 4
#     Node 2, Type 0, BuildingBlock: QUQFOY_clean_sbu_3, # of connection points: 4
#     Node 3, Type 0, BuildingBlock: QUQFOY_clean_sbu_3, # of connection points: 4
#     Node 4, Type 0, BuildingBlock: QUQFOY_clean_sbu_3, # of connection points: 4
#     Node 5, Type 0, BuildingBlock: QUQFOY_clean_sbu_3, # of connection points: 4
#     Node 6, Type 0, BuildingBlock: QUQFOY_clean_sbu_3, # of connection points: 4
#     Node 7, Type 0, BuildingBlock: QUQFOY_clean_sbu_3, # of connection points: 4
#     Node 8, Type 0, BuildingBlock: QUQFOY_clean_sbu_3, # of connection points: 4
#     Node 9, Type 0, BuildingBlock: QUQFOY_clean_sbu_3, # of connection points: 4
#     Node 10, Type 0, BuildingBlock: QUQFOY_clean_sbu_3, # of connection points: 4
#     Node 11, Type 0, BuildingBlock: QUQFOY_clean_sbu_3, # of connection points: 4
#     Node 12, Type 0, BuildingBlock: QUQFOY_clean_sbu_3, # of connection points: 4
#     Node 13, Type 0, BuildingBlock: QUQFOY_clean_sbu_3, # of connection points: 4
#     Node 14, Type 0, BuildingBlock: QUQFOY_clean_sbu_3, # of connection points: 4
#     Node 15, Type 0, BuildingBlock: QUQFOY_clean_sbu_3, # of connection points: 4
#     Edge 16, Type (0, 0), None
#     Edge 17, Type (0, 0), None
#     Edge 18, Type (0, 0), None
#     Edge 19, Type (0, 0), None
#     Edge 20, Type (0, 0), None
#     Edge 21, Type (0, 0), None
#     Edge 22, Type (0, 0), None
#     Edge 23, Type (0, 0), None
#     Edge 24, Type (0, 0), None
#     Edge 25, Type (0, 0), None
#     Edge 26, Type (0, 0), None
#     Edge 27, Type (0, 0), None
#     Edge 28, Type (0, 0), None
#     Edge 29, Type (0, 0), None
#     Edge 30, Type (0, 0), None
#     Edge 31, Type (0, 0), None
#     Edge 32, Type (0, 0), None
#     Edge 33, Type (0, 0), None
#     Edge 34, Type (0, 0), None
#     Edge 35, Type (0, 0), None
#     Edge 36, Type (0, 0), None
#     Edge 37, Type (0, 0), None
#     Edge 38, Type (0, 0), None
#     Edge 39, Type (0, 0), None
#     Edge 40, Type (0, 0), None
#     Edge 41, Type (0, 0), None
#     Edge 42, Type (0, 0), None
#     Edge 43, Type (0, 0), None
#     Edge 44, Type (0, 0), None
#     Edge 45, Type (0, 0), None
#     Edge 46, Type (0, 0), None
#     Edge 47, Type (0, 0), None
# Relax obj value: 0.066
# Max RMSD: 0.090
# Mean RMSD: 0.090
data_MOF--net-uot--node1-QUQFOY_clean_sbu_3--edge1-none
_symmetry_space_group_name_H-M    P1
_symmetry_Int_Tables_number       1
_symmetry_cell_setting            triclinic
loop_
_symmetry_equiv_pos_as_xyz
'x, y, z'
_cell_length_a     22.985637
_cell_length_b     22.985689
_cell_length_c     19.365056
_cell_angle_alpha  89.999876
_cell_angle_beta   89.999888
_cell_angle_gamma 89.999958
loop_
_atom_site_label
_atom_site_type_symbol
_atom_site_fract_x
_atom_site_fract_y
_atom_site_fract_z
_atom_type_partial_charge
C0 C 0.03784 0.3268 0.26074 0.0
O1 O 0.01868 0.33581 0.32114 0.0
Cd2 Cd 0.06296 0.41925 0.37445 0.0
O3 O 0.08662 0.34781 0.24237 0.0
Cd4 Cd 0.17391 0.39123 0.2982 0.0
C5 C 0.10221 0.49765 0.22631 0.0
O6 O 0.15478 0.39554 0.42203 0.0
O7 O 0.20494 0.46691 0.38031 0.0
O8 O 0.21279 0.29555 0.30375 0.0
C9 C 0.18558 0.44034 0.43298 0.0
O10 O 0.07068 0.49102 0.27995 0.0
C11 C 0.26219 0.30719 0.27806 0.0
O12 O 0.14541 0.46447 0.21449 0.0
O13 O 0.27139 0.3593 0.25842 0.0
C14 C 0.3268 0.87038 0.67326 0.0
O15 O 0.33581 0.88954 0.61286 0.0
Cd16 Cd 0.41925 0.84525 0.55955 0.0
O17 O 0.34781 0.8216 0.69163 0.0
Cd18 Cd 0.39123 0.73431 0.6358 0.0
C19 C 0.49765 0.80601 0.70769 0.0
O20 O 0.39554 0.75344 0.51197 0.0
O21 O 0.46691 0.70328 0.5537 0.0
O22 O 0.29556 0.69543 0.63025 0.0
C23 C 0.44034 0.72264 0.50102 0.0
O24 O 0.49102 0.83753 0.65405 0.0
C25 C 0.30719 0.64603 0.65594 0.0
O26 O 0.46447 0.7628 0.71951 0.0
O27 O 0.35931 0.63683 0.67558 0.0
C28 C 0.87038 0.58141 0.26074 0.0
O29 O 0.88954 0.57241 0.32114 0.0
Cd30 Cd 0.84526 0.48897 0.37445 0.0
O31 O 0.8216 0.5604 0.24237 0.0
Cd32 Cd 0.73431 0.51699 0.2982 0.0
C33 C 0.80601 0.41057 0.22631 0.0
O34 O 0.75344 0.51268 0.42203 0.0
O35 O 0.70328 0.44131 0.38031 0.0
O36 O 0.69543 0.61266 0.30375 0.0
C37 C 0.72264 0.46787 0.43298 0.0
O38 O 0.83754 0.4172 0.27996 0.0
C39 C 0.64603 0.60103 0.27806 0.0
O40 O 0.76281 0.44375 0.21449 0.0
O41 O 0.63683 0.54891 0.25842 0.0
C42 C 0.58142 0.03784 0.67326 0.0
O43 O 0.57241 0.01868 0.61286 0.0
Cd44 Cd 0.48897 0.06296 0.55955 0.0
O45 O 0.56041 0.08662 0.69163 0.0
Cd46 Cd 0.51699 0.17391 0.6358 0.0
C47 C 0.41057 0.1022 0.70769 0.0
O48 O 0.51268 0.15478 0.51197 0.0
O49 O 0.44131 0.20494 0.5537 0.0
O50 O 0.61266 0.21279 0.63025 0.0
C51 C 0.46788 0.18558 0.50102 0.0
O52 O 0.4172 0.07068 0.65405 0.0
C53 C 0.60103 0.26219 0.65594 0.0
O54 O 0.44375 0.14541 0.71951 0.0
O55 O 0.54891 0.27139 0.67558 0.0
C56 C 0.03784 0.5814 0.67326 0.0
O57 O 0.01869 0.57241 0.61285 0.0
Cd58 Cd 0.06295 0.48895 0.55955 0.0
O59 O 0.08662 0.56038 0.69163 0.0
Cd60 Cd 0.17391 0.51696 0.63579 0.0
C61 C 0.10219 0.41056 0.7077 0.0
O62 O 0.15477 0.51263 0.51196 0.0
O63 O 0.20496 0.44127 0.55371 0.0
O64 O 0.21278 0.61264 0.63023 0.0
C65 C 0.18556 0.46781 0.50104 0.0
O66 O 0.07067 0.41719 0.65405 0.0
C67 C 0.26218 0.60101 0.65593 0.0
O68 O 0.14541 0.44373 0.71951 0.0
O69 O 0.27138 0.5489 0.67558 0.0
C70 C 0.5814 0.87037 0.26074 0.0
O71 O 0.57241 0.88953 0.32115 0.0
Cd72 Cd 0.48896 0.84527 0.37445 0.0
O73 O 0.56038 0.8216 0.24238 0.0
Cd74 Cd 0.51696 0.73431 0.29821 0.0
C75 C 0.41056 0.80603 0.22631 0.0
O76 O 0.51263 0.75345 0.42204 0.0
O77 O 0.44127 0.70326 0.38029 0.0
O78 O 0.61264 0.69544 0.30377 0.0
C79 C 0.46781 0.72266 0.43296 0.0
O80 O 0.41719 0.83755 0.27995 0.0
C81 C 0.60101 0.64604 0.27807 0.0
O82 O 0.44373 0.76281 0.21449 0.0
O83 O 0.5489 0.63683 0.25842 0.0
C84 C 0.87038 0.32682 0.67326 0.0
O85 O 0.88953 0.33581 0.61285 0.0
Cd86 Cd 0.84527 0.41926 0.55955 0.0
O87 O 0.8216 0.34784 0.69163 0.0
Cd88 Cd 0.73431 0.39125 0.63579 0.0
C89 C 0.80603 0.49766 0.7077 0.0
O90 O 0.75345 0.39559 0.51196 0.0
O91 O 0.70326 0.46694 0.55371 0.0
O92 O 0.69544 0.29558 0.63023 0.0
C93 C 0.72266 0.44041 0.50104 0.0
O94 O 0.83755 0.49103 0.65405 0.0
C95 C 0.64604 0.3072 0.65593 0.0
O96 O 0.76281 0.46448 0.71951 0.0
O97 O 0.63683 0.35932 0.67558 0.0
C98 C 0.32682 0.03784 0.26074 0.0
O99 O 0.33581 0.01869 0.32115 0.0
Cd100 Cd 0.41926 0.06295 0.37445 0.0
O101 O 0.34784 0.08662 0.24238 0.0
Cd102 Cd 0.39126 0.17391 0.29821 0.0
C103 C 0.49766 0.10219 0.2263 0.0
O104 O 0.39559 0.15477 0.42204 0.0
O105 O 0.46695 0.20496 0.38029 0.0
O106 O 0.29558 0.21278 0.30377 0.0
C107 C 0.44041 0.18555 0.43296 0.0
O108 O 0.49103 0.07066 0.27995 0.0
C109 C 0.30721 0.26218 0.27807 0.0
O110 O 0.46449 0.1454 0.21449 0.0
O111 O 0.35932 0.27138 0.25842 0.0
C112 C 0.53783 0.8268 0.76077 0.0
O113 O 0.51865 0.83584 0.82116 0.0
Cd114 Cd 0.56295 0.91927 0.87448 0.0
O115 O 0.58661 0.84779 0.74238 0.0
Cd116 Cd 0.6739 0.89122 0.7982 0.0
C117 C 0.60221 -0.00234 0.72634 0.0
O118 O 0.65477 0.89554 0.92204 0.0
O119 O 0.70495 -0.03311 0.88031 0.0
O120 O 0.71278 0.79555 0.80377 0.0
C121 C 0.68557 0.94034 0.93298 0.0
O122 O 0.57069 -0.00895 0.77999 0.0
C123 C 0.76218 0.80718 0.77807 0.0
O124 O 0.6454 -0.03553 0.7145 0.0
O125 O 0.77138 0.85929 0.75841 0.0
C126 C 0.8268 0.37039 0.17323 0.0
O127 O 0.83584 0.38957 0.11285 0.0
Cd128 Cd 0.91927 0.34527 0.05952 0.0
O129 O 0.84779 0.32161 0.19162 0.0
Cd130 Cd 0.89122 0.23432 0.1358 0.0
C131 C -0.00233 0.30601 0.20766 0.0
O132 O 0.89554 0.25345 0.01197 0.0
O133 O -0.0331 0.20326 0.05369 0.0
O134 O 0.79555 0.19543 0.13023 0.0
C135 C 0.94034 0.22264 0.00102 0.0
O136 O -0.00895 0.33753 0.15401 0.0
C137 C 0.80718 0.14604 0.15594 0.0
O138 O -0.03553 0.26282 0.2195 0.0
O139 O 0.8593 0.13684 0.17559 0.0
C140 C 0.37039 0.08142 0.76077 0.0
O141 O 0.38957 0.07238 0.82116 0.0
Cd142 Cd 0.34527 -0.01106 0.87448 0.0
O143 O 0.32161 0.06042 0.74238 0.0
Cd144 Cd 0.23432 0.017 0.7982 0.0
C145 C 0.30601 0.91055 0.72635 0.0
O146 O 0.25345 0.01268 0.92204 0.0
O147 O 0.20326 0.94132 0.88031 0.0
O148 O 0.19544 0.11267 0.80377 0.0
C149 C 0.22264 -0.03212 0.93298 0.0
O150 O 0.33753 0.91717 0.77999 0.0
C151 C 0.14604 0.10104 0.77807 0.0
O152 O 0.26282 0.94375 0.71451 0.0
O153 O 0.13684 0.04892 0.75842 0.0
C154 C 0.08142 0.53783 0.17323 0.0
O155 O 0.07238 0.51865 0.11285 0.0
Cd156 Cd -0.01105 0.56294 0.05952 0.0
O157 O 0.06043 0.58661 0.19162 0.0
Cd158 Cd 0.017 0.6739 0.1358 0.0
C159 C 0.91055 0.60221 0.20766 0.0
O160 O 0.01268 0.65477 0.01197 0.0
O161 O 0.94132 0.70495 0.05369 0.0
O162 O 0.11267 0.71278 0.13023 0.0
C163 C -0.03212 0.68557 0.00102 0.0
O164 O 0.91717 0.57069 0.15401 0.0
C165 C 0.10104 0.76218 0.15594 0.0
O166 O 0.94375 0.6454 0.2195 0.0
O167 O 0.04892 0.77138 0.17559 0.0
C168 C 0.53783 0.0814 0.17322 0.0
O169 O 0.51866 0.07237 0.11284 0.0
Cd170 Cd 0.56293 -0.01107 0.05952 0.0
O171 O 0.58661 0.0604 0.19161 0.0
Cd172 Cd 0.6739 0.01697 0.13579 0.0
C173 C 0.6022 0.91054 0.20766 0.0
O174 O 0.65476 0.01263 0.01196 0.0
O175 O 0.70497 0.94129 0.05371 0.0
O176 O 0.71278 0.11265 0.13021 0.0
C177 C 0.68555 -0.03218 0.00104 0.0
O178 O 0.57067 0.91717 0.15402 0.0
C179 C 0.76217 0.10102 0.15592 0.0
O180 O 0.64539 0.94374 0.21949 0.0
O181 O 0.77137 0.04891 0.17559 0.0
C182 C 0.0814 0.37038 0.76078 0.0
O183 O 0.07238 0.38956 0.82117 0.0
Cd184 Cd -0.01107 0.34529 0.87449 0.0
O185 O 0.0604 0.32161 0.74239 0.0
Cd186 Cd 0.01697 0.23432 0.79821 0.0
C187 C 0.91054 0.30602 0.72634 0.0
O188 O 0.01263 0.25346 0.92205 0.0
O189 O 0.94129 0.20325 0.88029 0.0
O190 O 0.11265 0.19544 0.80379 0.0
C191 C -0.03218 0.22267 0.93297 0.0
O192 O 0.91717 0.33755 0.77998 0.0
C193 C 0.10102 0.14605 0.77808 0.0
O194 O 0.94374 0.26283 0.71451 0.0
O195 O 0.04891 0.13685 0.75841 0.0
C196 C 0.37038 0.82682 0.17322 0.0
O197 O 0.38956 0.83584 0.11284 0.0
Cd198 Cd 0.34529 0.91929 0.05952 0.0
O199 O 0.32161 0.84782 0.19161 0.0
Cd200 Cd 0.23432 0.89125 0.13579 0.0
C201 C 0.30602 -0.00233 0.20766 0.0
O202 O 0.25346 0.89559 0.01196 0.0
O203 O 0.20325 -0.03307 0.05371 0.0
O204 O 0.19544 0.79557 0.13021 0.0
C205 C 0.22267 0.9404 0.00104 0.0
O206 O 0.33755 -0.00895 0.15402 0.0
C207 C 0.14605 0.8072 0.15592 0.0
O208 O 0.26283 -0.03552 0.21949 0.0
O209 O 0.13685 0.85931 0.17559 0.0
C210 C 0.82682 0.53783 0.76078 0.0
O211 O 0.83584 0.51866 0.82117 0.0
Cd212 Cd 0.91929 0.56293 0.87449 0.0
O213 O 0.84782 0.58661 0.74239 0.0
Cd214 Cd 0.89125 0.6739 0.79821 0.0
C215 C -0.00233 0.60219 0.72634 0.0
O216 O 0.89559 0.65476 0.92205 0.0
O217 O -0.03307 0.70497 0.88029 0.0
O218 O 0.79557 0.71278 0.80379 0.0
C219 C 0.9404 0.68555 0.93296 0.0
O220 O -0.00895 0.57067 0.77998 0.0
C221 C 0.8072 0.76217 0.77808 0.0
O222 O -0.03552 0.64539 0.71451 0.0
O223 O 0.85931 0.77137 0.75841 0.0
loop_
_geom_bond_atom_site_label_1
_geom_bond_atom_site_label_2
_geom_bond_distance
_geom_bond_site_symmetry_2
_ccdc_geom_bond_type
C0 O1 1.306 . S
C0 O3 1.160 . S
O1 C0 1.306 . S
O1 Cd2 2.228 . S
Cd2 O1 2.228 . S
Cd2 O6 2.273 . S
Cd2 O10 2.277 . S
O3 C0 1.160 . S
O3 Cd4 2.203 . S
Cd4 O3 2.203 . S
Cd4 O6 2.411 . S
Cd4 O7 2.333 . S
Cd4 O8 2.352 . S
Cd4 O12 2.277 . S
Cd4 O13 2.356 . S
C5 O10 1.209 . S
C5 O12 1.226 . S
O6 Cd2 2.273 . S
O6 Cd4 2.411 . S
O6 C9 1.320 . S
O7 Cd4 2.333 . S
O7 C9 1.214 . S
O8 Cd4 2.352 . S
O8 C11 1.258 . S
C9 O6 1.320 . S
C9 O7 1.214 . S
O10 Cd2 2.277 . S
O10 C5 1.209 . S
C11 O8 1.258 . S
C11 O13 1.282 . S
O12 Cd4 2.277 . S
O12 C5 1.226 . S
O13 Cd4 2.356 . S
O13 C11 1.282 . S
C14 O15 1.306 . S
C14 O17 1.160 . S
O15 C14 1.306 . S
O15 Cd16 2.228 . S
Cd16 O15 2.228 . S
Cd16 O20 2.273 . S
Cd16 O24 2.277 . S
O17 C14 1.160 . S
O17 Cd18 2.203 . S
Cd18 O17 2.203 . S
Cd18 O20 2.411 . S
Cd18 O21 2.333 . S
Cd18 O22 2.352 . S
Cd18 O26 2.277 . S
Cd18 O27 2.356 . S
C19 O24 1.209 . S
C19 O26 1.226 . S
O20 Cd16 2.273 . S
O20 Cd18 2.411 . S
O20 C23 1.320 . S
O21 Cd18 2.333 . S
O21 C23 1.214 . S
O22 Cd18 2.352 . S
O22 C25 1.258 . S
C23 O20 1.320 . S
C23 O21 1.214 . S
O24 Cd16 2.277 . S
O24 C19 1.209 . S
C25 O22 1.258 . S
C25 O27 1.282 . S
O26 Cd18 2.277 . S
O26 C19 1.226 . S
O27 Cd18 2.356 . S
O27 C25 1.282 . S
C28 O29 1.306 . S
C28 O31 1.160 . S
O29 C28 1.306 . S
O29 Cd30 2.228 . S
Cd30 O29 2.228 . S
Cd30 O34 2.273 . S
Cd30 O38 2.277 . S
O31 C28 1.160 . S
O31 Cd32 2.203 . S
Cd32 O31 2.203 . S
Cd32 O34 2.411 . S
Cd32 O35 2.333 . S
Cd32 O36 2.352 . S
Cd32 O40 2.277 . S
Cd32 O41 2.356 . S
C33 O38 1.209 . S
C33 O40 1.226 . S
O34 Cd30 2.273 . S
O34 Cd32 2.411 . S
O34 C37 1.320 . S
O35 Cd32 2.333 . S
O35 C37 1.214 . S
O36 Cd32 2.352 . S
O36 C39 1.258 . S
C37 O34 1.320 . S
C37 O35 1.214 . S
O38 Cd30 2.277 . S
O38 C33 1.209 . S
C39 O36 1.258 . S
C39 O41 1.282 . S
O40 Cd32 2.277 . S
O40 C33 1.226 . S
O41 Cd32 2.356 . S
O41 C39 1.282 . S
C42 O43 1.306 . S
C42 O45 1.160 . S
O43 C42 1.306 . S
O43 Cd44 2.228 . S
Cd44 O43 2.228 . S
Cd44 O48 2.273 . S
Cd44 O52 2.277 . S
O45 C42 1.160 . S
O45 Cd46 2.203 . S
Cd46 O45 2.203 . S
Cd46 O48 2.411 . S
Cd46 O49 2.333 . S
Cd46 O50 2.352 . S
Cd46 O54 2.277 . S
Cd46 O55 2.356 . S
C47 O52 1.209 . S
C47 O54 1.226 . S
O48 Cd44 2.273 . S
O48 Cd46 2.411 . S
O48 C51 1.320 . S
O49 Cd46 2.333 . S
O49 C51 1.214 . S
O50 Cd46 2.352 . S
O50 C53 1.258 . S
C51 O48 1.320 . S
C51 O49 1.214 . S
O52 Cd44 2.277 . S
O52 C47 1.209 . S
C53 O50 1.258 . S
C53 O55 1.282 . S
O54 Cd46 2.277 . S
O54 C47 1.226 . S
O55 Cd46 2.356 . S
O55 C53 1.282 . S
C56 O57 1.306 . S
C56 O59 1.160 . S
O57 C56 1.306 . S
O57 Cd58 2.228 . S
Cd58 O57 2.228 . S
Cd58 O62 2.273 . S
Cd58 O66 2.277 . S
O59 C56 1.160 . S
O59 Cd60 2.203 . S
Cd60 O59 2.203 . S
Cd60 O62 2.411 . S
Cd60 O63 2.333 . S
Cd60 O64 2.352 . S
Cd60 O68 2.277 . S
Cd60 O69 2.356 . S
C61 O66 1.209 . S
C61 O68 1.226 . S
O62 Cd58 2.273 . S
O62 Cd60 2.411 . S
O62 C65 1.320 . S
O63 Cd60 2.333 . S
O63 C65 1.214 . S
O64 Cd60 2.352 . S
O64 C67 1.258 . S
C65 O62 1.320 . S
C65 O63 1.214 . S
O66 Cd58 2.277 . S
O66 C61 1.209 . S
C67 O64 1.258 . S
C67 O69 1.282 . S
O68 Cd60 2.277 . S
O68 C61 1.226 . S
O69 Cd60 2.356 . S
O69 C67 1.282 . S
C70 O71 1.306 . S
C70 O73 1.160 . S
O71 C70 1.306 . S
O71 Cd72 2.228 . S
Cd72 O71 2.228 . S
Cd72 O76 2.273 . S
Cd72 O80 2.277 . S
O73 C70 1.160 . S
O73 Cd74 2.203 . S
Cd74 O73 2.203 . S
Cd74 O76 2.411 . S
Cd74 O77 2.333 . S
Cd74 O78 2.352 . S
Cd74 O82 2.277 . S
Cd74 O83 2.356 . S
C75 O80 1.209 . S
C75 O82 1.226 . S
O76 Cd72 2.273 . S
O76 Cd74 2.411 . S
O76 C79 1.320 . S
O77 Cd74 2.333 . S
O77 C79 1.214 . S
O78 Cd74 2.352 . S
O78 C81 1.258 . S
C79 O76 1.320 . S
C79 O77 1.214 . S
O80 Cd72 2.277 . S
O80 C75 1.209 . S
C81 O78 1.258 . S
C81 O83 1.282 . S
O82 Cd74 2.277 . S
O82 C75 1.226 . S
O83 Cd74 2.356 . S
O83 C81 1.282 . S
C84 O85 1.306 . S
C84 O87 1.160 . S
O85 C84 1.306 . S
O85 Cd86 2.228 . S
Cd86 O85 2.228 . S
Cd86 O90 2.273 . S
Cd86 O94 2.277 . S
O87 C84 1.160 . S
O87 Cd88 2.203 . S
Cd88 O87 2.203 . S
Cd88 O90 2.411 . S
Cd88 O91 2.333 . S
Cd88 O92 2.352 . S
Cd88 O96 2.277 . S
Cd88 O97 2.356 . S
C89 O94 1.209 . S
C89 O96 1.226 . S
O90 Cd86 2.273 . S
O90 Cd88 2.411 . S
O90 C93 1.320 . S
O91 Cd88 2.333 . S
O91 C93 1.214 . S
O92 Cd88 2.352 . S
O92 C95 1.258 . S
C93 O90 1.320 . S
C93 O91 1.214 . S
O94 Cd86 2.277 . S
O94 C89 1.209 . S
C95 O92 1.258 . S
C95 O97 1.282 . S
O96 Cd88 2.277 . S
O96 C89 1.226 . S
O97 Cd88 2.356 . S
O97 C95 1.282 . S
C98 O99 1.306 . S
C98 O101 1.160 . S
O99 C98 1.306 . S
O99 Cd100 2.228 . S
Cd100 O99 2.228 . S
Cd100 O104 2.273 . S
Cd100 O108 2.277 . S
O101 C98 1.160 . S
O101 Cd102 2.203 . S
Cd102 O101 2.203 . S
Cd102 O104 2.411 . S
Cd102 O105 2.333 . S
Cd102 O106 2.352 . S
Cd102 O110 2.277 . S
Cd102 O111 2.356 . S
C103 O108 1.209 . S
C103 O110 1.226 . S
O104 Cd100 2.273 . S
O104 Cd102 2.411 . S
O104 C107 1.320 . S
O105 Cd102 2.333 . S
O105 C107 1.214 . S
O106 Cd102 2.352 . S
O106 C109 1.258 . S
C107 O104 1.320 . S
C107 O105 1.214 . S
O108 Cd100 2.277 . S
O108 C103 1.209 . S
C109 O106 1.258 . S
C109 O111 1.282 . S
O110 Cd102 2.277 . S
O110 C103 1.226 . S
O111 Cd102 2.356 . S
O111 C109 1.282 . S
C112 O113 1.306 . S
C112 O115 1.160 . S
O113 C112 1.306 . S
O113 Cd114 2.228 . S
Cd114 O113 2.228 . S
Cd114 O118 2.273 . S
Cd114 O122 2.277 1_565 S
O115 C112 1.160 . S
O115 Cd116 2.203 . S
Cd116 O115 2.203 . S
Cd116 O118 2.411 . S
Cd116 O119 2.334 . S
Cd116 O120 2.352 . S
Cd116 O124 2.277 1_565 S
Cd116 O125 2.356 . S
C117 O122 1.209 . S
C117 O124 1.226 . S
O118 Cd114 2.273 . S
O118 Cd116 2.411 . S
O118 C121 1.320 . S
O119 Cd116 2.334 . S
O119 C121 1.214 . S
O120 Cd116 2.352 . S
O120 C123 1.258 . S
C121 O118 1.320 . S
C121 O119 1.214 . S
O122 Cd114 2.277 1_545 S
O122 C117 1.209 . S
C123 O120 1.258 . S
C123 O125 1.282 . S
O124 Cd116 2.277 1_545 S
O124 C117 1.226 . S
O125 Cd116 2.356 . S
O125 C123 1.282 . S
C126 O127 1.306 . S
C126 O129 1.160 . S
O127 C126 1.306 . S
O127 Cd128 2.228 . S
Cd128 O127 2.228 . S
Cd128 O132 2.273 . S
Cd128 O136 2.277 1_655 S
O129 C126 1.160 . S
O129 Cd130 2.203 . S
Cd130 O129 2.203 . S
Cd130 O132 2.411 . S
Cd130 O133 2.334 . S
Cd130 O134 2.352 . S
Cd130 O138 2.277 1_655 S
Cd130 O139 2.356 . S
C131 O136 1.209 . S
C131 O138 1.226 . S
O132 Cd128 2.273 . S
O132 Cd130 2.411 . S
O132 C135 1.320 . S
O133 Cd130 2.334 . S
O133 C135 1.214 . S
O134 Cd130 2.352 . S
O134 C137 1.258 . S
C135 O132 1.320 . S
C135 O133 1.214 . S
O136 Cd128 2.277 1_455 S
O136 C131 1.209 . S
C137 O134 1.258 . S
C137 O139 1.282 . S
O138 Cd130 2.277 1_455 S
O138 C131 1.226 . S
O139 Cd130 2.356 . S
O139 C137 1.282 . S
C140 O141 1.306 . S
C140 O143 1.160 . S
O141 C140 1.306 . S
O141 Cd142 2.228 . S
Cd142 O141 2.228 . S
Cd142 O146 2.273 . S
Cd142 O150 2.277 1_545 S
O143 C140 1.160 . S
O143 Cd144 2.203 . S
Cd144 O143 2.203 . S
Cd144 O146 2.411 . S
Cd144 O147 2.334 . S
Cd144 O148 2.352 . S
Cd144 O152 2.277 1_545 S
Cd144 O153 2.356 . S
C145 O150 1.209 . S
C145 O152 1.226 . S
O146 Cd142 2.273 . S
O146 Cd144 2.411 . S
O146 C149 1.320 . S
O147 Cd144 2.334 . S
O147 C149 1.214 . S
O148 Cd144 2.352 . S
O148 C151 1.258 . S
C149 O146 1.320 . S
C149 O147 1.214 . S
O150 Cd142 2.277 1_565 S
O150 C145 1.209 . S
C151 O148 1.258 . S
C151 O153 1.282 . S
O152 Cd144 2.277 1_565 S
O152 C145 1.226 . S
O153 Cd144 2.356 . S
O153 C151 1.282 . S
C154 O155 1.306 . S
C154 O157 1.160 . S
O155 C154 1.306 . S
O155 Cd156 2.228 . S
Cd156 O155 2.228 . S
Cd156 O160 2.273 . S
Cd156 O164 2.277 1_455 S
O157 C154 1.160 . S
O157 Cd158 2.203 . S
Cd158 O157 2.203 . S
Cd158 O160 2.411 . S
Cd158 O161 2.334 . S
Cd158 O162 2.352 . S
Cd158 O166 2.277 1_455 S
Cd158 O167 2.356 . S
C159 O164 1.209 . S
C159 O166 1.226 . S
O160 Cd156 2.273 . S
O160 Cd158 2.411 . S
O160 C163 1.320 . S
O161 Cd158 2.334 . S
O161 C163 1.214 . S
O162 Cd158 2.352 . S
O162 C165 1.258 . S
C163 O160 1.320 . S
C163 O161 1.214 . S
O164 Cd156 2.277 1_655 S
O164 C159 1.209 . S
C165 O162 1.258 . S
C165 O167 1.282 . S
O166 Cd158 2.277 1_655 S
O166 C159 1.226 . S
O167 Cd158 2.356 . S
O167 C165 1.282 . S
C168 O169 1.306 . S
C168 O171 1.160 . S
O169 C168 1.306 . S
O169 Cd170 2.228 . S
Cd170 O169 2.228 . S
Cd170 O174 2.273 . S
Cd170 O178 2.277 1_545 S
O171 C168 1.160 . S
O171 Cd172 2.203 . S
Cd172 O171 2.203 . S
Cd172 O174 2.411 . S
Cd172 O175 2.334 . S
Cd172 O176 2.352 . S
Cd172 O180 2.277 1_545 S
Cd172 O181 2.356 . S
C173 O178 1.209 . S
C173 O180 1.226 . S
O174 Cd170 2.273 . S
O174 Cd172 2.411 . S
O174 C177 1.320 . S
O175 Cd172 2.334 . S
O175 C177 1.214 . S
O176 Cd172 2.352 . S
O176 C179 1.258 . S
C177 O174 1.320 . S
C177 O175 1.214 . S
O178 Cd170 2.277 1_565 S
O178 C173 1.209 . S
C179 O176 1.258 . S
C179 O181 1.282 . S
O180 Cd172 2.277 1_565 S
O180 C173 1.226 . S
O181 Cd172 2.356 . S
O181 C179 1.282 . S
C182 O183 1.306 . S
C182 O185 1.160 . S
O183 C182 1.306 . S
O183 Cd184 2.228 . S
Cd184 O183 2.228 . S
Cd184 O188 2.273 . S
Cd184 O192 2.277 1_455 S
O185 C182 1.160 . S
O185 Cd186 2.203 . S
Cd186 O185 2.203 . S
Cd186 O188 2.411 . S
Cd186 O189 2.334 . S
Cd186 O190 2.352 . S
Cd186 O194 2.277 1_455 S
Cd186 O195 2.356 . S
C187 O192 1.209 . S
C187 O194 1.226 . S
O188 Cd184 2.273 . S
O188 Cd186 2.411 . S
O188 C191 1.320 . S
O189 Cd186 2.334 . S
O189 C191 1.214 . S
O190 Cd186 2.352 . S
O190 C193 1.258 . S
C191 O188 1.320 . S
C191 O189 1.214 . S
O192 Cd184 2.277 1_655 S
O192 C187 1.209 . S
C193 O190 1.258 . S
C193 O195 1.282 . S
O194 Cd186 2.277 1_655 S
O194 C187 1.226 . S
O195 Cd186 2.356 . S
O195 C193 1.282 . S
C196 O197 1.306 . S
C196 O199 1.160 . S
O197 C196 1.306 . S
O197 Cd198 2.228 . S
Cd198 O197 2.228 . S
Cd198 O202 2.273 . S
Cd198 O206 2.277 1_565 S
O199 C196 1.160 . S
O199 Cd200 2.203 . S
Cd200 O199 2.203 . S
Cd200 O202 2.411 . S
Cd200 O203 2.334 . S
Cd200 O204 2.352 . S
Cd200 O208 2.277 1_565 S
Cd200 O209 2.356 . S
C201 O206 1.209 . S
C201 O208 1.226 . S
O202 Cd198 2.273 . S
O202 Cd200 2.411 . S
O202 C205 1.320 . S
O203 Cd200 2.334 . S
O203 C205 1.214 . S
O204 Cd200 2.352 . S
O204 C207 1.258 . S
C205 O202 1.320 . S
C205 O203 1.214 . S
O206 Cd198 2.277 1_545 S
O206 C201 1.209 . S
C207 O204 1.258 . S
C207 O209 1.282 . S
O208 Cd200 2.277 1_545 S
O208 C201 1.226 . S
O209 Cd200 2.356 . S
O209 C207 1.282 . S
C210 O211 1.306 . S
C210 O213 1.160 . S
O211 C210 1.306 . S
O211 Cd212 2.228 . S
Cd212 O211 2.228 . S
Cd212 O216 2.273 . S
Cd212 O220 2.277 1_655 S
O213 C210 1.160 . S
O213 Cd214 2.203 . S
Cd214 O213 2.203 . S
Cd214 O216 2.411 . S
Cd214 O217 2.334 . S
Cd214 O218 2.352 . S
Cd214 O222 2.277 1_655 S
Cd214 O223 2.356 . S
C215 O220 1.209 . S
C215 O222 1.226 . S
O216 Cd212 2.273 . S
O216 Cd214 2.411 . S
O216 C219 1.320 . S
O217 Cd214 2.334 . S
O217 C219 1.214 . S
O218 Cd214 2.352 . S
O218 C221 1.258 . S
C219 O216 1.320 . S
C219 O217 1.214 . S
O220 Cd212 2.277 1_455 S
O220 C215 1.209 . S
C221 O218 1.258 . S
C221 O223 1.282 . S
O222 Cd214 2.277 1_455 S
O222 C215 1.226 . S
O223 Cd214 2.356 . S
O223 C221 1.282 . S
C11 C109 1.344 . S
C25 C67 1.344 . S
C81 C39 1.344 . S
C53 C95 1.344 . S
C123 C221 1.344 . S
C179 C137 1.344 . S
C193 C151 1.344 . S
C207 C165 1.344 . S
C5 C154 1.486 . S
C19 C112 1.486 . S
C126 C33 1.486 . S
C47 C140 1.486 . S
C61 C182 1.486 . S
C196 C75 1.486 . S
C89 C210 1.486 . S
C168 C103 1.486 . S
C117 C42 1.486 . S
C0 C131 1.486 . S
C145 C14 1.486 . S
C28 C159 1.486 . S
C173 C70 1.486 . S
C84 C187 1.486 . S
C98 C201 1.486 . S
C56 C215 1.486 . S
C65 C9 1.631 . S
C79 C23 1.631 . S
C37 C93 1.631 . S
C107 C51 1.631 . S
C177 C121 1.631 1_544 S
C191 C135 1.631 1_456 S
C149 C205 1.631 1_546 S
C219 C163 1.631 1_656 S
