# Generated by pormake.
# Topology ukf, (4)-cn, num edge types: 1
# Building blocks:
#     Node 0, Type 0, BuildingBlock: AZAVOO_clean_sbu_0, # of connection points: 4
#     Node 1, Type 0, BuildingBlock: AZAVOO_clean_sbu_0, # of connection points: 4
#     Node 2, Type 0, BuildingBlock: AZAVOO_clean_sbu_0, # of connection points: 4
#     Node 3, Type 0, BuildingBlock: AZAVOO_clean_sbu_0, # of connection points: 4
#     Node 4, Type 0, BuildingBlock: AZAVOO_clean_sbu_0, # of connection points: 4
#     Node 5, Type 0, BuildingBlock: AZAVOO_clean_sbu_0, # of connection points: 4
#     Node 6, Type 0, BuildingBlock: AZAVOO_clean_sbu_0, # of connection points: 4
#     Node 7, Type 0, BuildingBlock: AZAVOO_clean_sbu_0, # of connection points: 4
#     Node 8, Type 0, BuildingBlock: AZAVOO_clean_sbu_0, # of connection points: 4
#     Node 9, Type 0, BuildingBlock: AZAVOO_clean_sbu_0, # of connection points: 4
#     Node 10, Type 0, BuildingBlock: AZAVOO_clean_sbu_0, # of connection points: 4
#     Node 11, Type 0, BuildingBlock: AZAVOO_clean_sbu_0, # of connection points: 4
#     Edge 12, Type (0, 0), BuildingBlock: UVAHIK_clean_linker_0, # of connection points: 2
#     Edge 13, Type (0, 0), BuildingBlock: UVAHIK_clean_linker_0, # of connection points: 2
#     Edge 14, Type (0, 0), BuildingBlock: UVAHIK_clean_linker_0, # of connection points: 2
#     Edge 15, Type (0, 0), BuildingBlock: UVAHIK_clean_linker_0, # of connection points: 2
#     Edge 16, Type (0, 0), BuildingBlock: UVAHIK_clean_linker_0, # of connection points: 2
#     Edge 17, Type (0, 0), BuildingBlock: UVAHIK_clean_linker_0, # of connection points: 2
#     Edge 18, Type (0, 0), BuildingBlock: UVAHIK_clean_linker_0, # of connection points: 2
#     Edge 19, Type (0, 0), BuildingBlock: UVAHIK_clean_linker_0, # of connection points: 2
#     Edge 20, Type (0, 0), BuildingBlock: UVAHIK_clean_linker_0, # of connection points: 2
#     Edge 21, Type (0, 0), BuildingBlock: UVAHIK_clean_linker_0, # of connection points: 2
#     Edge 22, Type (0, 0), BuildingBlock: UVAHIK_clean_linker_0, # of connection points: 2
#     Edge 23, Type (0, 0), BuildingBlock: UVAHIK_clean_linker_0, # of connection points: 2
#     Edge 24, Type (0, 0), BuildingBlock: UVAHIK_clean_linker_0, # of connection points: 2
#     Edge 25, Type (0, 0), BuildingBlock: UVAHIK_clean_linker_0, # of connection points: 2
#     Edge 26, Type (0, 0), BuildingBlock: UVAHIK_clean_linker_0, # of connection points: 2
#     Edge 27, Type (0, 0), BuildingBlock: UVAHIK_clean_linker_0, # of connection points: 2
#     Edge 28, Type (0, 0), BuildingBlock: UVAHIK_clean_linker_0, # of connection points: 2
#     Edge 29, Type (0, 0), BuildingBlock: UVAHIK_clean_linker_0, # of connection points: 2
#     Edge 30, Type (0, 0), BuildingBlock: UVAHIK_clean_linker_0, # of connection points: 2
#     Edge 31, Type (0, 0), BuildingBlock: UVAHIK_clean_linker_0, # of connection points: 2
#     Edge 32, Type (0, 0), BuildingBlock: UVAHIK_clean_linker_0, # of connection points: 2
#     Edge 33, Type (0, 0), BuildingBlock: UVAHIK_clean_linker_0, # of connection points: 2
#     Edge 34, Type (0, 0), BuildingBlock: UVAHIK_clean_linker_0, # of connection points: 2
#     Edge 35, Type (0, 0), BuildingBlock: UVAHIK_clean_linker_0, # of connection points: 2
# Relax obj value: 0.209
# Max RMSD: 0.201
# Mean RMSD: 0.201
data_MOF--net-ukf--node1-AZAVOO_clean_sbu_0--edge1-UVAHIK_clean_linker_0
_symmetry_space_group_name_H-M    P1
_symmetry_Int_Tables_number       1
_symmetry_cell_setting            triclinic
loop_
_symmetry_equiv_pos_as_xyz
'x, y, z'
_cell_length_a     40.802576
_cell_length_b     40.975276
_cell_length_c     81.806099
_cell_angle_alpha  89.97848
_cell_angle_beta   90.031202
_cell_angle_gamma 119.81433
loop_
_atom_site_label
_atom_site_type_symbol
_atom_site_fract_x
_atom_site_fract_y
_atom_site_fract_z
_atom_type_partial_charge
Mg0 Mg 0.4022 0.25351 0.04527 0.0
O1 O 0.46389 0.27522 0.03818 0.0
O2 O 0.49699 0.33656 0.044 0.0
Mg3 Mg 0.45625 0.35326 0.05564 0.0
C4 C 0.49489 0.3065 0.03837 0.0
C5 C 0.35535 0.1686 0.04531 0.0
O6 O 0.33345 0.17953 0.05233 0.0
O7 O 0.41724 0.25349 0.07211 0.0
O8 O 0.44753 0.31505 0.07784 0.0
O9 O 0.39239 0.27023 0.02063 0.0
O10 O 0.4092 0.30686 0.04252 0.0
C11 C 0.43402 0.28073 0.08217 0.0
C12 C 0.40277 0.30282 0.02703 0.0
O13 O 0.3888 0.19334 0.04151 0.0
Mg14 Mg 0.10476 0.3646 0.38228 0.0
O15 O 0.15153 0.42456 0.37672 0.0
O16 O 0.1363 0.46553 0.38721 0.0
Mg17 Mg 0.07987 0.43075 0.40054 0.0
C18 C 0.15863 0.45822 0.37912 0.0
C19 C 0.13284 0.31849 0.36298 0.0
O20 O 0.098 0.30373 0.35758 0.0
O21 O 0.12506 0.37011 0.40864 0.0
O22 O 0.10809 0.40996 0.41902 0.0
O23 O 0.07625 0.3671 0.35952 0.0
O24 O 0.06568 0.38296 0.38403 0.0
C25 C 0.1229 0.38901 0.42059 0.0
C26 C 0.06056 0.38161 0.36845 0.0
O27 O 0.14425 0.34393 0.37386 0.0
Mg28 Mg 0.73469 0.17913 0.72129 0.0
O29 O 0.72401 0.22743 0.71431 0.0
O30 O 0.66672 0.2118 0.72392 0.0
Mg31 Mg 0.64137 0.1549 0.73689 0.0
C32 C 0.69691 0.23428 0.71624 0.0
C33 C 0.80699 0.19544 0.70528 0.0
O34 O 0.78212 0.16061 0.70142 0.0
O35 O 0.74582 0.19903 0.74778 0.0
O36 O 0.68719 0.17899 0.75685 0.0
O37 O 0.70803 0.14977 0.698 0.0
O38 O 0.6767 0.14177 0.72105 0.0
C39 C 0.72274 0.1942 0.7593 0.0
C40 C 0.67609 0.13485 0.70564 0.0
O41 O 0.79676 0.21368 0.71452 0.0
Mg42 Mg 0.58488 0.71974 0.03957 0.0
O43 O 0.52334 0.70181 0.03373 0.0
O44 O 0.48684 0.64123 0.04023 0.0
Mg45 Mg 0.52536 0.6216 0.05176 0.0
C46 C 0.49105 0.67204 0.03445 0.0
C47 C 0.6252 0.79673 0.02359 0.0
O48 O 0.63887 0.77781 0.01603 0.0
O49 O 0.5739 0.7236 0.06667 0.0
O50 O 0.53839 0.6628 0.07316 0.0
O51 O 0.58928 0.69845 0.015 0.0
O52 O 0.57337 0.66451 0.03769 0.0
C53 C 0.55532 0.6976 0.0771 0.0
C54 C 0.57785 0.66636 0.02208 0.0
O55 O 0.60118 0.78062 0.03493 0.0
Mg56 Mg 0.88297 0.63791 0.38486 0.0
O57 O 0.84051 0.57661 0.37882 0.0
O58 O 0.86287 0.53949 0.38709 0.0
Mg59 Mg 0.91817 0.57759 0.40065 0.0
C60 C 0.83764 0.54426 0.38004 0.0
C61 C 0.82475 0.64502 0.36348 0.0
O62 O 0.83745 0.62896 0.35336 0.0
O63 O 0.86348 0.62796 0.41137 0.0
O64 O 0.88594 0.59121 0.42017 0.0
O65 O 0.91226 0.64079 0.36148 0.0
O66 O 0.92655 0.6254 0.38533 0.0
C67 C 0.86802 0.60898 0.42264 0.0
C68 C 0.93082 0.62824 0.3697 0.0
O69 O 0.83818 0.65298 0.37787 0.0
Mg70 Mg 0.25938 0.80882 0.71522 0.0
O71 O 0.26603 0.75867 0.70702 0.0
O72 O 0.32101 0.76831 0.71725 0.0
Mg73 Mg 0.34972 0.82416 0.73101 0.0
C74 C 0.29083 0.74861 0.70903 0.0
C75 C 0.18757 0.79942 0.70075 0.0
O76 O 0.21307 0.83478 0.69818 0.0
O77 O 0.24621 0.78664 0.74135 0.0
O78 O 0.3031 0.80008 0.75057 0.0
O79 O 0.28809 0.83968 0.69254 0.0
O80 O 0.31773 0.84264 0.71561 0.0
C81 C 0.26783 0.78748 0.75283 0.0
C82 C 0.31955 0.85167 0.7004 0.0
O83 O 0.19739 0.77846 0.70823 0.0
Mg84 Mg 0.73648 0.63014 0.6226 0.0
O85 O 0.72241 0.5701 0.62901 0.0
O86 O 0.66391 0.52995 0.62042 0.0
Mg87 Mg 0.64294 0.56441 0.60639 0.0
C88 C 0.69435 0.53681 0.62774 0.0
C89 C 0.80967 0.67032 0.64281 0.0
O90 O 0.78727 0.67887 0.65098 0.0
O91 O 0.7481 0.62138 0.59622 0.0
O92 O 0.69001 0.58128 0.58716 0.0
O93 O 0.70807 0.63058 0.64577 0.0
O94 O 0.67925 0.61331 0.62178 0.0
C95 C 0.72563 0.60126 0.58486 0.0
C96 C 0.67709 0.61604 0.63738 0.0
O97 O 0.79735 0.65061 0.62992 0.0
Mg98 Mg 0.12802 0.72986 0.95621 0.0
O99 O 0.1702 0.71073 0.9636 0.0
O100 O 0.14438 0.64955 0.95778 0.0
Mg101 Mg 0.08763 0.63081 0.94524 0.0
C102 C 0.17131 0.68011 0.96357 0.0
C103 C 0.15739 0.80828 0.96768 0.0
O104 O 0.1206 0.79054 0.96979 0.0
O105 O 0.14488 0.73214 0.92944 0.0
O106 O 0.11851 0.67081 0.92379 0.0
O107 O 0.10066 0.71087 0.98057 0.0
O108 O 0.08339 0.67521 0.95838 0.0
C109 C 0.13754 0.70533 0.91948 0.0
C110 C 0.08018 0.67825 0.97388 0.0
O111 O 0.17214 0.7907 0.96097 0.0
Mg112 Mg 0.44023 0.1827 0.28755 0.0
O113 O 0.49916 0.22927 0.2956 0.0
O114 O 0.5404 0.21219 0.2868 0.0
Mg115 Mg 0.50858 0.15572 0.2735 0.0
C116 C 0.53289 0.2351 0.29426 0.0
C117 C 0.37982 0.20533 0.289 0.0
O118 O 0.36368 0.17374 0.28066 0.0
O119 O 0.45271 0.20377 0.26121 0.0
O120 O 0.49057 0.18202 0.25303 0.0
O121 O 0.43348 0.15126 0.31082 0.0
O122 O 0.45927 0.14442 0.28824 0.0
C123 C 0.47162 0.19854 0.25011 0.0
C124 C 0.4511 0.13656 0.30346 0.0
O125 O 0.41403 0.21887 0.29337 0.0
Mg126 Mg 0.24723 0.34753 0.6198 0.0
O127 O 0.26225 0.40833 0.62493 0.0
O128 O 0.32017 0.44804 0.61573 0.0
Mg129 Mg 0.34105 0.4116 0.6033 0.0
C130 C 0.28983 0.44163 0.62298 0.0
C131 C 0.18132 0.34049 0.6406 0.0
O132 O 0.21067 0.36307 0.64956 0.0
O133 O 0.23582 0.35454 0.5931 0.0
O134 O 0.29416 0.39326 0.58391 0.0
O135 O 0.27497 0.34808 0.64326 0.0
O136 O 0.30435 0.36402 0.61936 0.0
C137 C 0.25852 0.37351 0.5816 0.0
C138 C 0.30614 0.36211 0.63503 0.0
O139 O 0.18661 0.3284 0.62711 0.0
Mg140 Mg 0.86279 0.25917 0.96316 0.0
O141 O 0.82146 0.28014 0.9686 0.0
O142 O 0.84766 0.3405 0.96129 0.0
Mg143 Mg 0.90534 0.35713 0.94991 0.0
C144 C 0.82038 0.31065 0.96741 0.0
C145 C 0.82263 0.18321 0.9802 0.0
O146 O 0.85469 0.20168 0.98819 0.0
O147 O 0.84738 0.25464 0.9361 0.0
O148 O 0.87626 0.31528 0.92878 0.0
O149 O 0.88905 0.28087 0.98758 0.0
O150 O 0.90809 0.3137 0.96464 0.0
C151 C 0.85655 0.28031 0.92532 0.0
C152 C 0.91042 0.31251 0.98029 0.0
O153 O 0.81639 0.19924 0.96828 0.0
Mg154 Mg 0.55166 0.81441 0.2809 0.0
O155 O 0.49377 0.76752 0.28961 0.0
O156 O 0.44956 0.77888 0.27948 0.0
Mg157 Mg 0.47919 0.83326 0.26464 0.0
C158 C 0.45926 0.75892 0.28798 0.0
C159 C 0.5754 0.77039 0.30386 0.0
O160 O 0.5564 0.78012 0.31377 0.0
O161 O 0.54083 0.78995 0.25512 0.0
O162 O 0.49893 0.80532 0.24566 0.0
O163 O 0.55573 0.84795 0.30296 0.0
O164 O 0.53044 0.85126 0.27956 0.0
C165 C 0.52016 0.79094 0.24362 0.0
C166 C 0.53761 0.86092 0.29471 0.0
O167 O 0.57824 0.77965 0.28888 0.0
C168 C 0.16353 0.86392 0.98269 0.0
C169 C 0.18086 0.84668 0.97427 0.0
C170 C 0.1852 0.89913 0.98986 0.0
C171 C 0.28078 0.96439 0.00532 0.0
H172 H 0.24275 0.03433 0.00513 0.0
C173 C 0.36121 0.11833 0.03028 0.0
C174 C 0.33923 0.12948 0.03942 0.0
C175 C 0.34435 0.08309 0.02267 0.0
C176 C 0.25357 0.01495 0.00538 0.0
H177 H 0.23462 0.85318 0.96652 0.0
H178 H 0.27267 0.9154 0.97886 0.0
H179 H 0.20939 0.97581 0.98988 0.0
H180 H 0.28286 0.11147 0.0486 0.0
H181 H 0.25364 0.05026 0.03531 0.0
H182 H 0.32532 0.00423 0.02076 0.0
C183 C 0.24224 0.90125 0.9801 0.0
C184 C 0.23448 0.98142 0.99666 0.0
C185 C 0.22045 0.86577 0.97294 0.0
C186 C 0.30056 0.10393 0.04154 0.0
C187 C 0.28374 0.06894 0.03385 0.0
C188 C 0.30015 -0.00174 0.01397 0.0
C189 C 0.22479 0.91823 0.9887 0.0
C190 C 0.24737 0.95537 0.99677 0.0
C191 C 0.30525 0.05861 0.02399 0.0
C192 C 0.28624 0.02347 0.01432 0.0
H193 H 0.13312 0.84994 0.98404 0.0
H194 H 0.17082 0.91101 0.99665 0.0
H195 H 0.2913 0.9448 0.00577 0.0
H196 H 0.39112 0.13734 0.02847 0.0
H197 H 0.36155 0.07575 0.01513 0.0
C198 C 0.19749 0.32626 0.36013 0.0
C199 C 0.15912 0.30754 0.35569 0.0
C200 C 0.22268 0.31725 0.35258 0.0
C201 C 0.2342 0.27337 0.31522 0.0
H202 H 0.31081 0.26639 0.34058 0.0
C203 C 0.31891 0.20587 0.29045 0.0
C204 C 0.35719 0.22216 0.29479 0.0
C205 C 0.29636 0.21923 0.29715 0.0
C206 C 0.28994 0.26879 0.33328 0.0
H207 H 0.11698 0.26412 0.34009 0.0
H208 H 0.1608 0.24801 0.32713 0.0
H209 H 0.2678 0.28284 0.35415 0.0
H210 H 0.40222 0.26623 0.3091 0.0
H211 H 0.36283 0.28977 0.32072 0.0
H212 H 0.25607 0.25887 0.2944 0.0
C213 C 0.17156 0.27016 0.33622 0.0
C214 C 0.26525 0.27815 0.34107 0.0
C215 C 0.14638 0.2792 0.34374 0.0
C216 C 0.37278 0.25297 0.30555 0.0
C217 C 0.35018 0.26629 0.3123 0.0
C218 C 0.25885 0.26397 0.30745 0.0
C219 C 0.21005 0.2893 0.34045 0.0
C220 C 0.23691 0.28025 0.33214 0.0
C221 C 0.31159 0.24918 0.30836 0.0
C222 C 0.28681 0.2613 0.31641 0.0
H223 H 0.20824 0.34835 0.36925 0.0
H224 H 0.25222 0.33277 0.35601 0.0
H225 H 0.21314 0.27546 0.30795 0.0
H226 H 0.306 0.18209 0.28219 0.0
H227 H 0.26666 0.2052 0.29399 0.0
C228 C 0.87476 0.24714 0.70461 0.0
C229 C 0.8457 0.21268 0.69864 0.0
C230 C 0.91141 0.26256 0.69835 0.0
C231 C 0.97244 0.23533 0.67532 0.0
H232 H 0.03505 0.34268 0.66822 0.0
C233 C 0.11127 0.29825 0.63901 0.0
C234 C 0.14276 0.32839 0.6465 0.0
C235 C 0.07503 0.28556 0.64521 0.0
C236 C 0.01789 0.31267 0.67024 0.0
H237 H 0.83197 0.16791 0.68112 0.0
H238 H 0.89522 0.19511 0.66997 0.0
H239 H 0.97166 0.31778 0.67961 0.0
H240 H 0.16089 0.36973 0.66598 0.0
H241 H 0.09746 0.34767 0.6767 0.0
H242 H 0.01841 0.2302 0.66571 0.0
C243 C 0.8902 0.20981 0.67979 0.0
C244 C 0.98169 0.29841 0.67682 0.0
C245 C 0.85382 0.1943 0.68613 0.0
C246 C 0.13719 0.34629 0.66 0.0
C247 C 0.1009 0.33385 0.66609 0.0
C248 C 0.00839 0.24953 0.66861 0.0
C249 C 0.91957 0.24392 0.68592 0.0
C250 C 0.95847 0.25952 0.67936 0.0
C251 C 0.06956 0.30304 0.65889 0.0
C252 C 0.0314 0.28829 0.66595 0.0
H253 H 0.86932 0.2619 0.71426 0.0
H254 H 0.93345 0.28871 0.70345 0.0
H255 H 0.9557 0.20534 0.67746 0.0
H256 H 0.11466 0.28396 0.62857 0.0
H257 H 0.05126 0.26199 0.63933 0.0
C258 C 0.62486 0.85741 0.02723 0.0
C259 C 0.63775 0.83601 0.01884 0.0
C260 C 0.6377 0.89484 0.02282 0.0
C261 C 0.68516 0.96357 0.98935 0.0
H262 H 0.72055 0.03755 0.02415 0.0
C263 C 0.76134 0.12315 0.97606 0.0
C264 C 0.7948 0.14434 0.98502 0.0
C265 C 0.73595 0.08592 0.98043 0.0
C266 C 0.71068 0.0172 0.0143 0.0
H267 H 0.67365 0.83685 0.99908 0.0
H268 H 0.69625 0.90193 0.99157 0.0
H269 H 0.68735 0.97076 0.03093 0.0
H270 H 0.82743 0.14339 0.0058 0.0
H271 H 0.78357 0.07864 0.01325 0.0
H272 H 0.71014 0.00999 0.97274 0.0
C273 C 0.67588 0.88979 1.00139 0.0
C274 C 0.69131 0.97896 0.01817 0.0
C275 C 0.66317 0.85254 0.00581 0.0
C276 C 0.80195 0.12786 0.99862 0.0
C277 C 0.7766 0.09079 0.003 0.0
C278 C 0.70452 0.00181 0.98547 0.0
C279 C 0.66349 0.91145 0.00989 0.0
C280 C 0.67926 0.95175 0.00575 0.0
C281 C 0.74349 0.06928 0.99388 0.0
C282 C 0.71838 0.02902 0.99792 0.0
H283 H 0.60513 0.8454 0.03728 0.0
H284 H 0.62748 0.91078 0.02952 0.0
H285 H 0.6757 0.94322 0.9795 0.0
H286 H 0.75496 0.13514 0.96556 0.0
H287 H 0.71051 0.0701 0.97325 0.0
C288 C 0.61445 0.73936 0.29978 0.0
C289 C 0.59559 0.75158 0.31035 0.0
C290 C 0.63563 0.72393 0.30606 0.0
C291 C 0.68861 0.7268 0.3425 0.0
H292 H 0.68635 0.63878 0.32381 0.0
C293 C 0.77809 0.6664 0.36927 0.0
C294 C 0.79561 0.65404 0.35805 0.0
C295 C 0.75095 0.6754 0.36402 0.0
C296 C 0.6876 0.66362 0.32906 0.0
H297 H 0.58325 0.75619 0.33578 0.0
H298 H 0.62043 0.72948 0.3467 0.0
H299 H 0.64357 0.65945 0.31338 0.0
H300 H 0.7983 0.64122 0.33252 0.0
H301 H 0.75185 0.65786 0.3233 0.0
H302 H 0.73328 0.73183 0.35784 0.0
C303 C 0.61897 0.73205 0.33358 0.0
C304 C 0.66302 0.67535 0.32312 0.0
C305 C 0.59756 0.74717 0.3273 0.0
C306 C 0.78523 0.65056 0.34149 0.0
C307 C 0.75835 0.65984 0.33622 0.0
C308 C 0.7134 0.7153 0.34835 0.0
C309 C 0.63859 0.72071 0.32303 0.0
C310 C 0.66342 0.70716 0.32973 0.0
C311 C 0.74096 0.67252 0.3474 0.0
C312 C 0.71338 0.6837 0.34164 0.0
H313 H 0.61341 0.74229 0.28666 0.0
H314 H 0.65069 0.71564 0.29766 0.0
H315 H 0.6899 0.75176 0.34767 0.0
H316 H 0.78525 0.66907 0.38214 0.0
H317 H 0.73768 0.68449 0.373 0.0
C318 C 0.8727 0.67417 0.64006 0.0
C319 C 0.84828 0.68272 0.6488 0.0
C320 C 0.90906 0.68572 0.64588 0.0
C321 C 0.98201 0.75504 0.67342 0.0
H322 H 0.02464 0.68915 0.67044 0.0
C323 C 0.13898 0.80812 0.68595 0.0
C324 C 0.14843 0.78473 0.69492 0.0
C325 C 0.10214 0.79476 0.68044 0.0
C326 C 0.013 0.70774 0.67148 0.0
H327 H 0.84274 0.70978 0.6706 0.0
H328 H 0.90588 0.72953 0.68081 0.0
H329 H 0.96035 0.6672 0.66082 0.0
H330 H 0.12666 0.72883 0.70511 0.0
H331 H 0.06196 0.70555 0.69564 0.0
H332 H 0.03425 0.7953 0.68435 0.0
C333 C 0.89719 0.7144 0.66933 0.0
C334 C 0.97636 0.69534 0.6658 0.0
C335 C 0.86091 0.70292 0.66351 0.0
C336 C 0.12024 0.74753 0.6982 0.0
C337 C 0.08326 0.73414 0.69271 0.0
C338 C 0.01856 0.76739 0.67911 0.0
C339 C 0.92172 0.70603 0.66057 0.0
C340 C 0.96051 0.71891 0.66668 0.0
C341 C 0.0738 0.7577 0.68382 0.0
C342 C 0.03455 0.74397 0.67814 0.0
H343 H 0.8638 0.65865 0.62868 0.0
H344 H 0.92744 0.67923 0.63875 0.0
H345 H 0.97079 0.77403 0.67412 0.0
H346 H 0.16007 0.83686 0.68311 0.0
H347 H 0.09594 0.81342 0.67339 0.0
C348 C 0.75414 0.27786 0.97822 0.0
C349 C 0.78675 0.31147 0.97375 0.0
C350 C 0.72277 0.2785 0.98466 0.0
C351 C 0.69511 0.33921 0.00648 0.0
H352 H 0.59425 0.26636 0.99198 0.0
C353 C 0.56199 0.34275 0.02847 0.0
C354 C 0.52917 0.30805 0.03137 0.0
C355 C 0.59372 0.34412 0.02124 0.0
C356 C 0.62217 0.2866 0.99634 0.0
H357 H 0.81178 0.37216 0.97252 0.0
H358 H 0.75691 0.37318 0.98385 0.0
H359 H 0.6488 0.26708 0.9795 0.0
H360 H 0.50438 0.24751 0.02925 0.0
H361 H 0.55983 0.24988 0.01704 0.0
H362 H 0.66853 0.35833 0.02353 0.0
C363 C 0.7558 0.34638 0.98239 0.0
C364 C 0.65343 0.28708 0.98913 0.0
C365 C 0.78712 0.34574 0.9758 0.0
C366 C 0.52905 0.27476 0.02709 0.0
C367 C 0.56082 0.27612 0.01997 0.0
C368 C 0.6638 0.33859 0.01378 0.0
C369 C 0.72332 0.31276 0.98691 0.0
C370 C 0.69023 0.31325 0.99417 0.0
C371 C 0.59346 0.31081 0.01682 0.0
C372 C 0.62691 0.31211 0.00886 0.0
H373 H 0.75282 0.25095 0.97681 0.0
H374 H 0.69831 0.25216 0.98819 0.0
H375 H 0.72312 0.35943 0.01076 0.0
H376 H 0.56302 0.36896 0.03152 0.0
H377 H 0.61817 0.37134 0.01882 0.0
C378 C 0.21386 0.48179 0.36005 0.0
C379 C 0.1927 0.48946 0.37141 0.0
C380 C 0.24431 0.511 0.35183 0.0
C381 C 0.28246 0.61053 0.34001 0.0
H382 H 0.37092 0.60371 0.32829 0.0
C383 C 0.4395 0.70882 0.30945 0.0
C384 C 0.42969 0.72606 0.297 0.0
C385 C 0.41151 0.67971 0.31879 0.0
C386 C 0.3466 0.60628 0.33158 0.0
H387 H 0.18794 0.53411 0.38343 0.0
H388 H 0.24165 0.58512 0.36938 0.0
H389 H 0.32194 0.55487 0.34517 0.0
H390 H 0.38267 0.72522 0.2842 0.0
H391 H 0.33399 0.6739 0.30014 0.0
H392 H 0.30753 0.66243 0.32684 0.0
C393 C 0.23411 0.55642 0.36654 0.0
C394 C 0.31826 0.57801 0.34111 0.0
C395 C 0.20344 0.52715 0.37468 0.0
C396 C 0.39126 0.71281 0.29379 0.0
C397 C 0.36331 0.68353 0.30303 0.0
C398 C 0.31088 0.63889 0.33058 0.0
C399 C 0.25461 0.54869 0.35483 0.0
C400 C 0.28568 0.57963 0.34535 0.0
C401 C 0.37305 0.66696 0.31581 0.0
C402 C 0.34318 0.637 0.32612 0.0
H403 H 0.20634 0.4531 0.35715 0.0
H404 H 0.25905 0.50391 0.34275 0.0
H405 H 0.2576 0.61255 0.34284 0.0
H406 H 0.46884 0.71845 0.31231 0.0
H407 H 0.42009 0.66791 0.32863 0.0
C408 C 0.66651 0.27076 0.70644 0.0
C409 C 0.69927 0.26802 0.70841 0.0
C410 C 0.66781 0.30106 0.69806 0.0
C411 C 0.72633 0.37663 0.66845 0.0
H412 H 0.65964 0.41435 0.68105 0.0
C413 C 0.73143 0.50977 0.64065 0.0
C414 C 0.6964 0.50561 0.6359 0.0
C415 C 0.73314 0.48119 0.64928 0.0
C416 C 0.67825 0.40392 0.67734 0.0
H417 H 0.75941 0.29566 0.70349 0.0
H418 H 0.76199 0.34932 0.68936 0.0
H419 H 0.66132 0.36549 0.69738 0.0
H420 H 0.63574 0.468 0.63639 0.0
H421 H 0.63881 0.4184 0.65168 0.0
H422 H 0.74377 0.416 0.6486 0.0
C423 C 0.73501 0.32746 0.6939 0.0
C424 C 0.67916 0.37582 0.68666 0.0
C425 C 0.73361 0.29682 0.70212 0.0
C426 C 0.66318 0.47205 0.63979 0.0
C427 C 0.66488 0.44376 0.64865 0.0
C428 C 0.72579 0.40517 0.65927 0.0
C429 C 0.70202 0.32979 0.69161 0.0
C430 C 0.70284 0.3614 0.68223 0.0
C431 C 0.69984 0.44817 0.65358 0.0
C432 C 0.7014 0.41873 0.66352 0.0
H433 H 0.63947 0.24892 0.71096 0.0
H434 H 0.64166 0.30136 0.6963 0.0
H435 H 0.74451 0.36591 0.66449 0.0
H436 H 0.75754 0.53527 0.63781 0.0
H437 H 0.76044 0.48533 0.653 0.0
C438 C 0.23702 0.71355 0.97519 0.0
C439 C 0.20448 0.67977 0.97081 0.0
C440 C 0.26802 0.71306 0.98222 0.0
C441 C 0.29421 0.65247 0.00534 0.0
H442 H 0.39552 0.72132 0.99 0.0
C443 C 0.42317 0.63982 0.02554 0.0
C444 C 0.45767 0.67318 0.02798 0.0
C445 C 0.39216 0.64091 0.01887 0.0
C446 C 0.36749 0.70226 0.99461 0.0
H447 H 0.17913 0.61897 0.97046 0.0
H448 H 0.23316 0.61824 0.98277 0.0
H449 H 0.34186 0.72299 0.97779 0.0
H450 H 0.4863 0.73397 0.02562 0.0
H451 H 0.43208 0.73589 0.01438 0.0
H452 H 0.3197 0.63199 0.0223 0.0
C453 C 0.23457 0.64506 0.98081 0.0
C454 C 0.33674 0.70318 0.98757 0.0
C455 C 0.20371 0.64553 0.97364 0.0
C456 C 0.46025 0.70768 0.02381 0.0
C457 C 0.42918 0.70878 0.01725 0.0
C458 C 0.32497 0.65173 0.01247 0.0
C459 C 0.26705 0.6788 0.98518 0.0
C460 C 0.29976 0.6782 0.99281 0.0
C461 C 0.3948 0.67539 0.01458 0.0
C462 C 0.36202 0.67653 0.00716 0.0
H463 H 0.2386 0.74042 0.97318 0.0
H464 H 0.29255 0.73951 0.98559 0.0
H465 H 0.26606 0.63322 0.00979 0.0
H466 H 0.42023 0.61274 0.02852 0.0
H467 H 0.36634 0.61459 0.01677 0.0
C468 C 0.55917 0.29783 0.30822 0.0
C469 C 0.56421 0.2684 0.30233 0.0
C470 C 0.58848 0.3284 0.31642 0.0
C471 C 0.69233 0.3758 0.32385 0.0
H472 H 0.66835 0.41913 0.36091 0.0
C473 C 0.80569 0.47852 0.3689 0.0
C474 C 0.80486 0.51174 0.37228 0.0
C475 C 0.77583 0.44888 0.36055 0.0
C476 C 0.6754 0.40741 0.35053 0.0
H477 H 0.60404 0.24801 0.30053 0.0
H478 H 0.65446 0.30044 0.31515 0.0
H479 H 0.61741 0.3678 0.34565 0.0
H480 H 0.77153 0.53946 0.36989 0.0
H481 H 0.71917 0.48738 0.35556 0.0
H482 H 0.75041 0.41491 0.32905 0.0
C483 C 0.62833 0.30062 0.31309 0.0
C484 C 0.64624 0.37814 0.3417 0.0
C485 C 0.59925 0.27035 0.30475 0.0
C486 C 0.77308 0.51427 0.36748 0.0
C487 C 0.74302 0.48443 0.35933 0.0
C488 C 0.72145 0.40471 0.33279 0.0
C489 C 0.62337 0.33004 0.31907 0.0
C490 C 0.65431 0.36188 0.32825 0.0
C491 C 0.74432 0.45164 0.3556 0.0
C492 C 0.71329 0.42077 0.34623 0.0
H493 H 0.53259 0.2973 0.30649 0.0
H494 H 0.58379 0.35081 0.3206 0.0
H495 H 0.69969 0.36459 0.31338 0.0
H496 H 0.8298 0.47571 0.37237 0.0
H497 H 0.77738 0.42376 0.35795 0.0
C498 C 0.25643 0.46664 0.64023 0.0
C499 C 0.28709 0.47346 0.63012 0.0
C500 C 0.25499 0.49633 0.64792 0.0
C501 C 0.24951 0.56494 0.65744 0.0
H502 H 0.34343 0.64612 0.6745 0.0
C503 C 0.26061 0.69826 0.68763 0.0
C504 C 0.28598 0.71435 0.70073 0.0
C505 C 0.25902 0.66826 0.67879 0.0
C506 C 0.31685 0.6235 0.66997 0.0
H507 H 0.33957 0.51716 0.6197 0.0
H508 H 0.33658 0.56901 0.63279 0.0
H509 H 0.34394 0.59557 0.65925 0.0
H510 H 0.32818 0.71025 0.71535 0.0
H511 H 0.32462 0.65745 0.70033 0.0
H512 H 0.22228 0.59226 0.66876 0.0
C513 C 0.31409 0.54057 0.6351 0.0
C514 C 0.31724 0.59477 0.66097 0.0
C515 C 0.31569 0.51083 0.6275 0.0
C516 C 0.30862 0.69883 0.7052 0.0
C517 C 0.30679 0.66869 0.69649 0.0
C518 C 0.24909 0.59361 0.66657 0.0
C519 C 0.284 0.53366 0.64561 0.0
C520 C 0.28357 0.56501 0.65463 0.0
C521 C 0.28256 0.65351 0.68296 0.0
C522 C 0.28275 0.62313 0.67304 0.0
H523 H 0.23386 0.43825 0.64255 0.0
H524 H 0.23163 0.48982 0.65608 0.0
H525 H 0.22309 0.54274 0.65259 0.0
H526 H 0.24289 0.70967 0.68382 0.0
H527 H 0.24023 0.65749 0.66837 0.0
C528 C 0.44245 0.29866 0.11173 0.0
C529 C 0.4378 0.27263 0.09948 0.0
C530 C 0.44605 0.29128 0.12811 0.0
C531 C 0.47876 0.24237 0.15428 0.0
H532 H 0.41238 0.24585 0.18728 0.0
C533 C 0.47806 0.19252 0.22006 0.0
C534 C 0.46996 0.20979 0.23306 0.0
C535 C 0.47473 0.20129 0.20389 0.0
C536 C 0.43168 0.24545 0.17832 0.0
H537 H 0.43358 0.21859 0.09476 0.0
H538 H 0.44105 0.20624 0.12345 0.0
H539 H 0.40533 0.25897 0.15879 0.0
H540 H 0.45282 0.25052 0.23928 0.0
H541 H 0.44866 0.26725 0.21102 0.0
H542 H 0.50619 0.2303 0.17364 0.0
C543 C 0.44144 0.23212 0.1203 0.0
C544 C 0.42737 0.25268 0.16198 0.0
C545 C 0.43702 0.23912 0.10394 0.0
C546 C 0.45908 0.2366 0.22952 0.0
C547 C 0.45642 0.24594 0.21329 0.0
C548 C 0.4836 0.23587 0.17063 0.0
C549 C 0.44586 0.2581 0.13251 0.0
C550 C 0.45065 0.25085 0.14982 0.0
C551 C 0.4639 0.22816 0.20024 0.0
C552 C 0.45986 0.2369 0.18288 0.0
H553 H 0.44296 0.32465 0.1087 0.0
H554 H 0.44961 0.3118 0.13731 0.0
H555 H 0.4974 0.24134 0.14512 0.0
H556 H 0.48604 0.17135 0.22235 0.0
H557 H 0.47988 0.18627 0.19427 0.0
C558 C 0.1358 0.40751 0.4501 0.0
C559 C 0.13716 0.38617 0.43692 0.0
C560 C 0.14818 0.40429 0.46562 0.0
C561 C 0.20811 0.37398 0.48702 0.0
H562 H 0.15168 0.37461 0.52505 0.0
C563 C 0.20463 0.35111 0.56163 0.0
C564 C 0.24348 0.37287 0.56501 0.0
C565 C 0.19079 0.35078 0.54594 0.0
C566 C 0.16756 0.374 0.51457 0.0
H567 H 0.15293 0.34482 0.42978 0.0
H568 H 0.17427 0.33902 0.45694 0.0
H569 H 0.12894 0.37703 0.49778 0.0
H570 H 0.29817 0.41145 0.55444 0.0
H571 H 0.274 0.41117 0.52727 0.0
H572 H 0.24648 0.37048 0.50381 0.0
C573 C 0.16392 0.35852 0.45519 0.0
C574 C 0.15478 0.37586 0.49893 0.0
C575 C 0.15154 0.36175 0.43963 0.0
C576 C 0.26809 0.39422 0.55231 0.0
C577 C 0.25427 0.39388 0.53666 0.0
C578 C 0.2209 0.37213 0.50266 0.0
C579 C 0.16219 0.37963 0.46838 0.0
C580 C 0.17507 0.37619 0.48497 0.0
C581 C 0.21547 0.37217 0.53327 0.0
C582 C 0.20094 0.37243 0.51663 0.0
H583 H 0.12511 0.42677 0.44849 0.0
H584 H 0.14709 0.42147 0.47543 0.0
H585 H 0.22457 0.37446 0.47655 0.0
H586 H 0.18486 0.33426 0.57109 0.0
H587 H 0.16077 0.33346 0.54369 0.0
C588 C 0.81097 0.23563 0.90459 0.0
C589 C 0.84388 0.26969 0.90823 0.0
C590 C 0.79814 0.22687 0.88845 0.0
C591 C 0.82822 0.24431 0.84596 0.0
H592 H 0.72638 0.22282 0.83633 0.0
C593 C 0.77509 0.23042 0.7794 0.0
C594 C 0.737 0.20436 0.77625 0.0
C595 C 0.78839 0.23882 0.7955 0.0
C596 C 0.75467 0.22807 0.83877 0.0
H597 H 0.88979 0.32064 0.89779 0.0
H598 H 0.86787 0.30472 0.86958 0.0
H599 H 0.7489 0.23418 0.86447 0.0
H600 H 0.68313 0.1662 0.78748 0.0
H601 H 0.70643 0.17948 0.81533 0.0
H602 H 0.8339 0.23707 0.82045 0.0
C603 C 0.85184 0.28513 0.87924 0.0
C604 C 0.76755 0.23473 0.85491 0.0
C605 C 0.86422 0.29427 0.89538 0.0
C606 C 0.71255 0.18682 0.78949 0.0
C607 C 0.72595 0.19464 0.80553 0.0
C608 C 0.81514 0.23692 0.82984 0.0
C609 C 0.81848 0.2516 0.87566 0.0
C610 C 0.80447 0.24308 0.85863 0.0
C611 C 0.76405 0.2208 0.8088 0.0
C612 C 0.77819 0.22885 0.82599 0.0
H613 H 0.79465 0.21622 0.91424 0.0
H614 H 0.77238 0.20075 0.88594 0.0
H615 H 0.85679 0.25051 0.84857 0.0
H616 H 0.79458 0.24453 0.76944 0.0
H617 H 0.81773 0.25965 0.79747 0.0
C618 C 0.57163 0.74537 0.09951 0.0
C619 C 0.5533 0.70763 0.09436 0.0
C620 C 0.56954 0.7544 0.11584 0.0
C621 C 0.54024 0.7654 0.14843 0.0
H622 H 0.54485 0.70369 0.18335 0.0
C623 C 0.49931 0.77768 0.21439 0.0
C624 C 0.52259 0.77756 0.22705 0.0
C625 C 0.50369 0.76849 0.19842 0.0
C626 C 0.54379 0.72137 0.17375 0.0
H627 H 0.51834 0.64983 0.10244 0.0
H628 H 0.51443 0.66564 0.13071 0.0
H629 H 0.55316 0.69039 0.15505 0.0
H630 H 0.5681 0.76653 0.23284 0.0
H631 H 0.57583 0.75061 0.20489 0.0
H632 H 0.53137 0.79669 0.16712 0.0
C633 C 0.53089 0.68824 0.12221 0.0
C634 C 0.54818 0.71352 0.15753 0.0
C635 C 0.53293 0.67922 0.10593 0.0
C636 C 0.54963 0.76685 0.22341 0.0
C637 C 0.55402 0.75765 0.20739 0.0
C638 C 0.53582 0.77321 0.16464 0.0
C639 C 0.54914 0.72591 0.12737 0.0
C640 C 0.54617 0.73528 0.14467 0.0
C641 C 0.53148 0.75895 0.19467 0.0
C642 C 0.53722 0.7511 0.17749 0.0
H643 H 0.58765 0.76798 0.09096 0.0
H644 H 0.58423 0.78371 0.11946 0.0
H645 H 0.53823 0.78251 0.13883 0.0
H646 H 0.47799 0.7855 0.21673 0.0
H647 H 0.48533 0.76899 0.18898 0.0
C648 C 0.71681 0.57868 0.55585 0.0
C649 C 0.74093 0.60152 0.56838 0.0
C650 C 0.73077 0.57958 0.54017 0.0
C651 C 0.81877 0.60658 0.51739 0.0
H652 H 0.75889 0.60357 0.47997 0.0
C653 C 0.83464 0.62865 0.44283 0.0
C654 C 0.85269 0.60787 0.43921 0.0
C655 C 0.82102 0.6281 0.45858 0.0
C656 C 0.77611 0.60475 0.49028 0.0
H657 H 0.79887 0.64304 0.5742 0.0
H658 H 0.82314 0.64486 0.54678 0.0
H659 H 0.7358 0.60294 0.50751 0.0
H660 H 0.87001 0.56978 0.44934 0.0
H661 H 0.84588 0.56852 0.47664 0.0
H662 H 0.85941 0.60912 0.50016 0.0
C663 C 0.79345 0.62593 0.54916 0.0
C664 C 0.76267 0.60392 0.50607 0.0
C665 C 0.77948 0.62501 0.56487 0.0
C666 C 0.85647 0.58631 0.45168 0.0
C667 C 0.84283 0.58575 0.46739 0.0
C668 C 0.83222 0.60741 0.50159 0.0
C669 C 0.7692 0.60337 0.5366 0.0
C670 C 0.78378 0.60471 0.51982 0.0
C671 C 0.8251 0.60676 0.47106 0.0
C672 C 0.81099 0.60639 0.48785 0.0
H673 H 0.68699 0.56006 0.55809 0.0
H674 H 0.71144 0.56136 0.53087 0.0
H675 H 0.83559 0.60689 0.5277 0.0
H676 H 0.8313 0.64563 0.43355 0.0
H677 H 0.80785 0.64492 0.46103 0.0
C678 C 0.14591 0.68477 0.89172 0.0
C679 C 0.15104 0.71396 0.90234 0.0
C680 C 0.15808 0.69236 0.87553 0.0
C681 C 0.182 0.76164 0.84258 0.0
H682 H 0.23274 0.7117 0.82382 0.0
C683 C 0.21585 0.76841 0.77351 0.0
C684 C 0.25237 0.77554 0.76954 0.0
C685 C 0.20263 0.76001 0.7896 0.0
C686 C 0.21874 0.72597 0.82889 0.0
H687 H 0.17308 0.77416 0.90413 0.0
H688 H 0.19446 0.78739 0.87574 0.0
H689 H 0.21274 0.70039 0.85232 0.0
H690 H 0.30323 0.77848 0.77938 0.0
H691 H 0.28013 0.7638 0.80731 0.0
H692 H 0.18849 0.78759 0.81916 0.0
C693 C 0.18072 0.75857 0.88002 0.0
C694 C 0.207 0.71925 0.84518 0.0
C695 C 0.16868 0.75101 0.89631 0.0
C696 C 0.27496 0.77317 0.78196 0.0
C697 C 0.26167 0.76458 0.79799 0.0
C698 C 0.19359 0.76822 0.82624 0.0
C699 C 0.17561 0.7293 0.86948 0.0
C700 C 0.18852 0.73702 0.85222 0.0
C701 C 0.22552 0.75827 0.80203 0.0
C702 C 0.21217 0.75051 0.81923 0.0
H703 H 0.13241 0.65587 0.89589 0.0
H704 H 0.1533 0.66913 0.86766 0.0
H705 H 0.16754 0.77548 0.84762 0.0
H706 H 0.19771 0.77004 0.76426 0.0
H707 H 0.17446 0.75484 0.79232 0.0
C708 C 0.57047 0.60291 0.01939 0.0
C709 C 0.56578 0.63175 0.01264 0.0
C710 C 0.55451 0.56789 0.01183 0.0
C711 C 0.52498 0.49788 0.99089 0.0
H712 H 0.41639 0.45467 0.99411 0.0
C713 C 0.4282 0.33997 1.0013 0.0
C714 C 0.41196 0.33582 0.01684 0.0
C715 C 0.44288 0.37429 0.99299 0.0
C716 C 0.44658 0.46636 0.99267 0.0
H717 H 0.54213 0.64753 0.99246 0.0
H718 H 0.51244 0.58511 0.9795 0.0
H719 H 0.45691 0.52292 0.99302 0.0
H720 H 0.39554 0.36264 0.03536 0.0
H721 H 0.42014 0.42201 0.02075 0.0
H722 H 0.51487 0.44146 0.992 0.0
C723 C 0.52936 0.59012 0.99041 0.0
C724 C 0.46975 0.50538 0.99196 0.0
C725 C 0.54628 0.62565 0.99779 0.0
C726 C 0.40804 0.36528 0.0234 0.0
C727 C 0.4218 0.39909 0.01496 0.0
C728 C 0.50179 0.45886 0.9914 0.0
C729 C 0.53279 0.56078 0.99757 0.0
C730 C 0.50921 0.52141 0.99215 0.0
C731 C 0.44049 0.40438 0.99995 0.0
C732 C 0.4626 0.44296 0.99338 0.0
H733 H 0.58543 0.60707 0.03084 0.0
H734 H 0.55704 0.5456 0.01777 0.0
H735 H 0.55536 0.50969 0.99097 0.0
H736 H 0.43169 0.31761 0.99606 0.0
H737 H 0.45743 0.37786 0.98149 0.0
C738 C 0.93563 0.59041 0.34687 0.0
C739 C 0.95011 0.6106 0.36147 0.0
C740 C 0.94917 0.56731 0.34092 0.0
C741 C 0.95892 0.49769 0.34479 0.0
H742 H 0.0641 0.5232 0.34467 0.0
C743 C 0.01483 0.40483 0.3698 0.0
C744 C 0.04265 0.40161 0.36107 0.0
C745 C 0.00123 0.42788 0.36403 0.0
C746 C 0.03463 0.51571 0.34428 0.0
H747 H 0.99161 0.62483 0.38066 0.0
H748 H 0.01609 0.58552 0.37001 0.0
H749 H 0.04806 0.57339 0.34461 0.0
H750 H 0.07753 0.41901 0.3393 0.0
H751 H 0.05458 0.46073 0.32947 0.0
H752 H 0.94555 0.44009 0.34589 0.0
C753 C -0.0058 0.58725 0.36322 0.0
C754 C 0.0255 0.54436 0.34432 0.0
C755 C 0.9801 0.60957 0.36935 0.0
C756 C 0.05578 0.4208 0.34616 0.0
C757 C 0.04281 0.44468 0.34057 0.0
C758 C 0.96806 0.46907 0.34504 0.0
C759 C 0.97798 0.56492 0.34928 0.0
C760 C 0.9876 0.53556 0.34516 0.0
C761 C 0.01584 0.44879 0.34962 0.0
C762 C 0.006 0.47791 0.34538 0.0
H763 H 0.91219 0.59048 0.34067 0.0
H764 H 0.93616 0.55019 0.3302 0.0
H765 H 0.92949 0.49019 0.34561 0.0
H766 H 0.00435 0.39034 0.38134 0.0
H767 H 0.9808 0.43098 0.37133 0.0
C768 C 0.6059 0.10416 0.70349 0.0
C769 C 0.64038 0.11064 0.69696 0.0
C770 C 0.57192 0.07841 0.69615 0.0
C771 C 0.53194 0.99043 0.67513 0.0
H772 H 0.44276 0.00125 0.67532 0.0
C773 C 0.3896 0.87998 0.6991 0.0
C774 C 0.35611 0.87561 0.69229 0.0
C775 C 0.42452 0.9062 0.69266 0.0
C776 C 0.46739 -0.0022 0.67475 0.0
H777 H 0.66657 0.09663 0.67716 0.0
H778 H 0.60675 0.05056 0.66454 0.0
H779 H 0.50525 0.05715 0.67648 0.0
H780 H 0.33269 0.89363 0.67277 0.0
H781 H 0.39413 0.94042 0.66173 0.0
H782 H 0.49397 0.93096 0.67458 0.0
C783 C 0.60621 0.06579 0.67527 0.0
C784 C 0.50311 0.02978 0.67553 0.0
C785 C 0.64033 0.09209 0.68249 0.0
C786 C 0.35812 0.89651 0.67831 0.0
C787 C 0.39318 0.92325 0.67199 0.0
C788 C 0.49619 0.95843 0.67445 0.0
C789 C 0.5717 0.05825 0.68223 0.0
C790 C 0.53555 0.02623 0.67659 0.0
C791 C 0.42669 0.92894 0.67938 0.0
C792 C 0.4636 0.96181 0.67512 0.0
H793 H 0.60493 0.11826 0.71446 0.0
H794 H 0.54574 0.07281 0.70193 0.0
H795 H 0.55648 0.98689 0.67595 0.0
H796 H 0.38906 0.86405 0.70971 0.0
H797 H 0.44987 0.91027 0.69874 0.0
C798 C 0.6351 0.57705 0.66013 0.0
C799 C 0.64 0.59667 0.64542 0.0
C800 C 0.59873 0.55275 0.66604 0.0
C801 C 0.52094 0.48083 0.66207 0.0
H802 H 0.43847 0.50232 0.66156 0.0
C803 C 0.37512 0.38525 0.63529 0.0
C804 C 0.34303 0.38148 0.64328 0.0
C805 C 0.41099 0.40834 0.64179 0.0
C806 C 0.4612 0.49592 0.66215 0.0
H807 H 0.61151 0.60853 0.62595 0.0
H808 H 0.54813 0.56712 0.63651 0.0
H809 H 0.50374 0.55421 0.66204 0.0
H810 H 0.32283 0.3976 0.6646 0.0
H811 H 0.38609 0.43931 0.67572 0.0
H812 H 0.47845 0.42261 0.66071 0.0
C813 C 0.57218 0.57023 0.64343 0.0
C814 C 0.49845 0.52556 0.66236 0.0
C815 C 0.60836 0.59374 0.63733 0.0
C816 C 0.3472 0.39986 0.65828 0.0
C817 C 0.38325 0.42372 0.66461 0.0
C818 C 0.4837 0.4512 0.6616 0.0
C819 C 0.56699 0.5486 0.65752 0.0
C820 C 0.52858 0.51824 0.66167 0.0
C821 C 0.41544 0.42869 0.65623 0.0
C822 C 0.45361 0.4586 0.66099 0.0
H823 H 0.65914 0.57861 0.66648 0.0
H824 H 0.59532 0.53615 0.67687 0.0
H825 H 0.54372 0.4745 0.66139 0.0
H826 H 0.37257 0.37136 0.62371 0.0
H827 H 0.4354 0.4121 0.63498 0.0
C828 C 0.02623 0.61352 0.97702 0.0
C829 C 0.0581 0.64434 0.98382 0.0
C830 C 0.00823 0.57926 0.98526 0.0
C831 C 0.9692 0.51131 0.00757 0.0
H832 H 0.04015 0.47444 0.00969 0.0
C833 C 0.91834 0.35373 0.0042 0.0
C834 C 0.93231 0.34757 0.98953 0.0
C835 C 0.93558 0.38968 0.01117 0.0
C836 C 0.02007 0.48446 0.00962 0.0
H837 H 0.09548 0.66437 0.0048 0.0
H838 H 0.06467 0.6035 0.01901 0.0
H839 H 0.06373 0.54207 0.00818 0.0
H840 H 0.97651 0.37269 0.97133 0.0
H841 H 0.00719 0.435 0.98369 0.0
H842 H 0.9256 0.45358 0.00765 0.0
C843 C 0.05322 0.60628 0.00748 0.0
C844 C 0.03352 0.52311 0.00884 0.0
C845 C 0.07073 0.64096 0.99938 0.0
C846 C 0.96528 0.37687 0.98264 0.0
C847 C 0.98296 0.4124 0.98979 0.0
C848 C 0.95574 0.47268 0.00857 0.0
C849 C 0.02229 0.57497 1.0003 0.0
C850 C 0.0082 0.53664 0.00679 0.0
C851 C 0.96751 0.41949 0.00378 0.0
C852 C 0.98115 0.45893 0.00858 0.0
H853 H 0.01601 0.61553 0.96504 0.0
H854 H 0.98482 0.55542 0.97933 0.0
H855 H 0.94918 0.52118 0.00606 0.0
H856 H 0.89273 0.33152 0.00965 0.0
H857 H 0.92305 0.39459 0.02189 0.0
C858 C 0.53516 0.89783 0.31867 0.0
C859 C 0.52437 0.88474 0.30257 0.0
C860 C 0.5242 0.92205 0.32573 0.0
C861 C 0.45665 0.95659 0.32146 0.0
H862 H 0.54003 0.0541 0.33376 0.0
C863 C 0.43684 0.08487 0.32327 0.0
C864 C 0.46179 0.11179 0.31211 0.0
C865 C 0.44408 0.05704 0.32921 0.0
C866 C 0.51633 0.02681 0.33069 0.0
H867 H 0.4932 0.8865 0.28142 0.0
H868 H 0.47355 0.92773 0.29377 0.0
H869 H 0.55076 0.00089 0.3303 0.0
H870 H 0.51573 0.13366 0.2999 0.0
H871 H 0.52836 0.08532 0.3101 0.0
H872 H 0.42281 0.98297 0.32062 0.0
C873 C 0.49019 0.91909 0.30099 0.0
C874 C 0.52241 -0.00365 0.3288 0.0
C875 C 0.50163 0.89552 0.29387 0.0
C876 C 0.49557 0.11258 0.30812 0.0
C877 C 0.50308 0.08523 0.31422 0.0
C878 C 0.4505 0.98693 0.32345 0.0
C879 C 0.50171 0.93295 0.3169 0.0
C880 C 0.49306 0.96154 0.32331 0.0
C881 C 0.47673 0.0563 0.3243 0.0
C882 C 0.48075 0.02279 0.32721 0.0
H883 H 0.55278 0.8901 0.32569 0.0
H884 H 0.53361 0.93257 0.33798 0.0
H885 H 0.43348 0.92986 0.31739 0.0
H886 H 0.41066 0.0839 0.32657 0.0
H887 H 0.4234 0.03515 0.33703 0.0
loop_
_geom_bond_atom_site_label_1
_geom_bond_atom_site_label_2
_geom_bond_distance
_geom_bond_site_symmetry_2
_ccdc_geom_bond_type
Mg0 O1 2.028 . S
Mg0 O7 1.986 . S
Mg0 O9 2.114 . S
Mg0 O10 2.251 . S
Mg0 O13 2.010 . S
O1 Mg0 2.028 . S
O1 C4 1.250 . S
O2 Mg3 2.028 . S
O2 C4 1.248 . S
Mg3 O2 2.028 . S
Mg3 O8 2.032 . S
Mg3 O10 2.079 . S
C4 O1 1.250 . S
C4 O2 1.248 . S
C5 O6 1.264 . S
C5 O13 1.249 . S
O6 C5 1.264 . S
O7 Mg0 1.986 . S
O7 C11 1.246 . S
O8 Mg3 2.032 . S
O8 C11 1.259 . S
O9 Mg0 2.114 . S
O9 C12 1.252 . S
O10 Mg0 2.251 . S
O10 Mg3 2.079 . S
O10 C12 1.273 . S
C11 O7 1.246 . S
C11 O8 1.259 . S
C12 O9 1.252 . S
C12 O10 1.273 . S
O13 Mg0 2.010 . S
O13 C5 1.249 . S
Mg14 O15 2.028 . S
Mg14 O21 1.986 . S
Mg14 O23 2.114 . S
Mg14 O24 2.251 . S
Mg14 O27 2.010 . S
O15 Mg14 2.028 . S
O15 C18 1.250 . S
O16 Mg17 2.028 . S
O16 C18 1.248 . S
Mg17 O16 2.028 . S
Mg17 O22 2.032 . S
Mg17 O24 2.079 . S
C18 O15 1.250 . S
C18 O16 1.248 . S
C19 O20 1.264 . S
C19 O27 1.249 . S
O20 C19 1.264 . S
O21 Mg14 1.986 . S
O21 C25 1.246 . S
O22 Mg17 2.032 . S
O22 C25 1.259 . S
O23 Mg14 2.114 . S
O23 C26 1.252 . S
O24 Mg14 2.251 . S
O24 Mg17 2.079 . S
O24 C26 1.273 . S
C25 O21 1.246 . S
C25 O22 1.259 . S
C26 O23 1.252 . S
C26 O24 1.273 . S
O27 Mg14 2.010 . S
O27 C19 1.249 . S
Mg28 O29 2.028 . S
Mg28 O35 1.986 . S
Mg28 O37 2.114 . S
Mg28 O38 2.251 . S
Mg28 O41 2.010 . S
O29 Mg28 2.028 . S
O29 C32 1.250 . S
O30 Mg31 2.028 . S
O30 C32 1.248 . S
Mg31 O30 2.028 . S
Mg31 O36 2.032 . S
Mg31 O38 2.079 . S
C32 O29 1.250 . S
C32 O30 1.248 . S
C33 O34 1.264 . S
C33 O41 1.249 . S
O34 C33 1.264 . S
O35 Mg28 1.986 . S
O35 C39 1.246 . S
O36 Mg31 2.032 . S
O36 C39 1.259 . S
O37 Mg28 2.114 . S
O37 C40 1.252 . S
O38 Mg28 2.251 . S
O38 Mg31 2.079 . S
O38 C40 1.273 . S
C39 O35 1.246 . S
C39 O36 1.259 . S
C40 O37 1.252 . S
C40 O38 1.273 . S
O41 Mg28 2.010 . S
O41 C33 1.249 . S
Mg42 O43 2.028 . S
Mg42 O49 1.986 . S
Mg42 O51 2.114 . S
Mg42 O52 2.251 . S
Mg42 O55 2.010 . S
O43 Mg42 2.028 . S
O43 C46 1.250 . S
O44 Mg45 2.028 . S
O44 C46 1.248 . S
Mg45 O44 2.028 . S
Mg45 O50 2.032 . S
Mg45 O52 2.079 . S
C46 O43 1.250 . S
C46 O44 1.248 . S
C47 O48 1.264 . S
C47 O55 1.249 . S
O48 C47 1.264 . S
O49 Mg42 1.986 . S
O49 C53 1.246 . S
O50 Mg45 2.032 . S
O50 C53 1.259 . S
O51 Mg42 2.114 . S
O51 C54 1.252 . S
O52 Mg42 2.251 . S
O52 Mg45 2.079 . S
O52 C54 1.273 . S
C53 O49 1.246 . S
C53 O50 1.259 . S
C54 O51 1.252 . S
C54 O52 1.273 . S
O55 Mg42 2.010 . S
O55 C47 1.249 . S
Mg56 O57 2.028 . S
Mg56 O63 1.986 . S
Mg56 O65 2.114 . S
Mg56 O66 2.251 . S
Mg56 O69 2.010 . S
O57 Mg56 2.028 . S
O57 C60 1.250 . S
O58 Mg59 2.028 . S
O58 C60 1.248 . S
Mg59 O58 2.028 . S
Mg59 O64 2.032 . S
Mg59 O66 2.079 . S
C60 O57 1.250 . S
C60 O58 1.248 . S
C61 O62 1.264 . S
C61 O69 1.249 . S
O62 C61 1.264 . S
O63 Mg56 1.986 . S
O63 C67 1.246 . S
O64 Mg59 2.032 . S
O64 C67 1.259 . S
O65 Mg56 2.114 . S
O65 C68 1.252 . S
O66 Mg56 2.251 . S
O66 Mg59 2.079 . S
O66 C68 1.273 . S
C67 O63 1.246 . S
C67 O64 1.259 . S
C68 O65 1.252 . S
C68 O66 1.273 . S
O69 Mg56 2.010 . S
O69 C61 1.249 . S
Mg70 O71 2.028 . S
Mg70 O77 1.986 . S
Mg70 O79 2.114 . S
Mg70 O80 2.251 . S
Mg70 O83 2.010 . S
O71 Mg70 2.028 . S
O71 C74 1.250 . S
O72 Mg73 2.028 . S
O72 C74 1.248 . S
Mg73 O72 2.028 . S
Mg73 O78 2.032 . S
Mg73 O80 2.079 . S
C74 O71 1.250 . S
C74 O72 1.248 . S
C75 O76 1.264 . S
C75 O83 1.249 . S
O76 C75 1.264 . S
O77 Mg70 1.986 . S
O77 C81 1.246 . S
O78 Mg73 2.032 . S
O78 C81 1.259 . S
O79 Mg70 2.114 . S
O79 C82 1.252 . S
O80 Mg70 2.251 . S
O80 Mg73 2.079 . S
O80 C82 1.273 . S
C81 O77 1.246 . S
C81 O78 1.259 . S
C82 O79 1.252 . S
C82 O80 1.273 . S
O83 Mg70 2.010 . S
O83 C75 1.249 . S
Mg84 O85 2.028 . S
Mg84 O91 1.986 . S
Mg84 O93 2.114 . S
Mg84 O94 2.251 . S
Mg84 O97 2.010 . S
O85 Mg84 2.028 . S
O85 C88 1.250 . S
O86 Mg87 2.028 . S
O86 C88 1.248 . S
Mg87 O86 2.028 . S
Mg87 O92 2.032 . S
Mg87 O94 2.079 . S
C88 O85 1.250 . S
C88 O86 1.248 . S
C89 O90 1.264 . S
C89 O97 1.249 . S
O90 C89 1.264 . S
O91 Mg84 1.986 . S
O91 C95 1.246 . S
O92 Mg87 2.032 . S
O92 C95 1.259 . S
O93 Mg84 2.114 . S
O93 C96 1.252 . S
O94 Mg84 2.251 . S
O94 Mg87 2.079 . S
O94 C96 1.273 . S
C95 O91 1.246 . S
C95 O92 1.259 . S
C96 O93 1.252 . S
C96 O94 1.273 . S
O97 Mg84 2.010 . S
O97 C89 1.249 . S
Mg98 O99 2.028 . S
Mg98 O105 1.986 . S
Mg98 O107 2.114 . S
Mg98 O108 2.251 . S
Mg98 O111 2.010 . S
O99 Mg98 2.028 . S
O99 C102 1.250 . S
O100 Mg101 2.028 . S
O100 C102 1.248 . S
Mg101 O100 2.028 . S
Mg101 O106 2.032 . S
Mg101 O108 2.079 . S
C102 O99 1.250 . S
C102 O100 1.248 . S
C103 O104 1.264 . S
C103 O111 1.249 . S
O104 C103 1.264 . S
O105 Mg98 1.986 . S
O105 C109 1.246 . S
O106 Mg101 2.032 . S
O106 C109 1.259 . S
O107 Mg98 2.114 . S
O107 C110 1.252 . S
O108 Mg98 2.251 . S
O108 Mg101 2.079 . S
O108 C110 1.273 . S
C109 O105 1.246 . S
C109 O106 1.259 . S
C110 O107 1.252 . S
C110 O108 1.273 . S
O111 Mg98 2.010 . S
O111 C103 1.249 . S
Mg112 O113 2.028 . S
Mg112 O119 1.986 . S
Mg112 O121 2.114 . S
Mg112 O122 2.251 . S
Mg112 O125 2.010 . S
O113 Mg112 2.028 . S
O113 C116 1.250 . S
O114 Mg115 2.028 . S
O114 C116 1.248 . S
Mg115 O114 2.028 . S
Mg115 O120 2.032 . S
Mg115 O122 2.079 . S
C116 O113 1.250 . S
C116 O114 1.248 . S
C117 O118 1.264 . S
C117 O125 1.249 . S
O118 C117 1.264 . S
O119 Mg112 1.986 . S
O119 C123 1.246 . S
O120 Mg115 2.032 . S
O120 C123 1.259 . S
O121 Mg112 2.114 . S
O121 C124 1.252 . S
O122 Mg112 2.251 . S
O122 Mg115 2.079 . S
O122 C124 1.273 . S
C123 O119 1.246 . S
C123 O120 1.259 . S
C124 O121 1.252 . S
C124 O122 1.273 . S
O125 Mg112 2.010 . S
O125 C117 1.249 . S
Mg126 O127 2.028 . S
Mg126 O133 1.986 . S
Mg126 O135 2.114 . S
Mg126 O136 2.251 . S
Mg126 O139 2.010 . S
O127 Mg126 2.028 . S
O127 C130 1.250 . S
O128 Mg129 2.028 . S
O128 C130 1.248 . S
Mg129 O128 2.028 . S
Mg129 O134 2.032 . S
Mg129 O136 2.079 . S
C130 O127 1.250 . S
C130 O128 1.248 . S
C131 O132 1.264 . S
C131 O139 1.249 . S
O132 C131 1.264 . S
O133 Mg126 1.986 . S
O133 C137 1.246 . S
O134 Mg129 2.032 . S
O134 C137 1.259 . S
O135 Mg126 2.114 . S
O135 C138 1.252 . S
O136 Mg126 2.251 . S
O136 Mg129 2.079 . S
O136 C138 1.273 . S
C137 O133 1.246 . S
C137 O134 1.259 . S
C138 O135 1.252 . S
C138 O136 1.273 . S
O139 Mg126 2.010 . S
O139 C131 1.249 . S
Mg140 O141 2.028 . S
Mg140 O147 1.986 . S
Mg140 O149 2.114 . S
Mg140 O150 2.251 . S
Mg140 O153 2.010 . S
O141 Mg140 2.028 . S
O141 C144 1.250 . S
O142 Mg143 2.028 . S
O142 C144 1.248 . S
Mg143 O142 2.028 . S
Mg143 O148 2.032 . S
Mg143 O150 2.079 . S
C144 O141 1.250 . S
C144 O142 1.248 . S
C145 O146 1.264 . S
C145 O153 1.249 . S
O146 C145 1.264 . S
O147 Mg140 1.986 . S
O147 C151 1.246 . S
O148 Mg143 2.032 . S
O148 C151 1.259 . S
O149 Mg140 2.114 . S
O149 C152 1.252 . S
O150 Mg140 2.251 . S
O150 Mg143 2.079 . S
O150 C152 1.273 . S
C151 O147 1.246 . S
C151 O148 1.259 . S
C152 O149 1.252 . S
C152 O150 1.273 . S
O153 Mg140 2.010 . S
O153 C145 1.249 . S
Mg154 O155 2.028 . S
Mg154 O161 1.986 . S
Mg154 O163 2.114 . S
Mg154 O164 2.251 . S
Mg154 O167 2.010 . S
O155 Mg154 2.028 . S
O155 C158 1.250 . S
O156 Mg157 2.028 . S
O156 C158 1.248 . S
Mg157 O156 2.028 . S
Mg157 O162 2.032 . S
Mg157 O164 2.079 . S
C158 O155 1.250 . S
C158 O156 1.248 . S
C159 O160 1.264 . S
C159 O167 1.249 . S
O160 C159 1.264 . S
O161 Mg154 1.986 . S
O161 C165 1.246 . S
O162 Mg157 2.032 . S
O162 C165 1.259 . S
O163 Mg154 2.114 . S
O163 C166 1.252 . S
O164 Mg154 2.251 . S
O164 Mg157 2.079 . S
O164 C166 1.273 . S
C165 O161 1.246 . S
C165 O162 1.259 . S
C166 O163 1.252 . S
C166 O164 1.273 . S
O167 Mg154 2.010 . S
O167 C159 1.249 . S
C168 C169 1.349 . S
C168 C170 1.327 . S
C168 H193 0.950 . S
C169 C168 1.349 . S
C169 C185 1.349 . S
C170 C168 1.327 . S
C170 C189 1.429 . S
C170 H194 0.950 . S
C171 C188 1.574 1_565 S
C171 C190 1.368 . S
C171 H195 0.949 . S
H172 C176 0.949 . S
C173 C174 1.349 . S
C173 C175 1.327 . S
C173 H196 0.950 . S
C174 C173 1.349 . S
C174 C186 1.349 . S
C175 C173 1.327 . S
C175 C191 1.429 . S
C175 H197 0.950 . S
C176 H172 0.949 . S
C176 C184 1.574 1_545 S
C176 C192 1.368 . S
H177 C185 0.950 . S
H178 C183 0.950 . S
H179 C184 0.949 . S
H180 C186 0.950 . S
H181 C187 0.950 . S
H182 C188 0.949 . S
C183 H178 0.950 . S
C183 C185 1.327 . S
C183 C189 1.429 . S
C184 C176 1.574 1_565 S
C184 H179 0.949 . S
C184 C190 1.368 1_554 S
C185 C169 1.349 . S
C185 H177 0.950 . S
C185 C183 1.327 . S
C186 C174 1.349 . S
C186 H180 0.950 . S
C186 C187 1.327 . S
C187 H181 0.950 . S
C187 C186 1.327 . S
C187 C191 1.429 . S
C188 C171 1.574 1_545 S
C188 H182 0.949 . S
C188 C192 1.368 1_556 S
C189 C170 1.429 . S
C189 C183 1.429 . S
C189 C190 1.523 . S
C190 C171 1.368 . S
C190 C184 1.368 1_556 S
C190 C189 1.523 . S
C191 C175 1.429 . S
C191 C187 1.429 . S
C191 C192 1.523 . S
C192 C176 1.368 . S
C192 C188 1.368 1_554 S
C192 C191 1.523 . S
H193 C168 0.950 . S
H194 C170 0.950 . S
H195 C171 0.949 . S
H196 C173 0.950 . S
H197 C175 0.950 . S
C198 C199 1.349 . S
C198 C200 1.327 . S
C198 H223 0.950 . S
C199 C198 1.349 . S
C199 C215 1.349 . S
C200 C198 1.327 . S
C200 C219 1.429 . S
C200 H224 0.950 . S
C201 C218 1.574 . S
C201 C220 1.368 . S
C201 H225 0.949 . S
H202 C206 0.949 . S
C203 C204 1.349 . S
C203 C205 1.327 . S
C203 H226 0.950 . S
C204 C203 1.349 . S
C204 C216 1.349 . S
C205 C203 1.327 . S
C205 C221 1.429 . S
C205 H227 0.950 . S
C206 H202 0.949 . S
C206 C214 1.574 . S
C206 C222 1.368 . S
H207 C215 0.950 . S
H208 C213 0.950 . S
H209 C214 0.949 . S
H210 C216 0.950 . S
H211 C217 0.950 . S
H212 C218 0.949 . S
C213 H208 0.950 . S
C213 C215 1.327 . S
C213 C219 1.429 . S
C214 C206 1.574 . S
C214 H209 0.949 . S
C214 C220 1.368 . S
C215 C199 1.349 . S
C215 H207 0.950 . S
C215 C213 1.327 . S
C216 C204 1.349 . S
C216 H210 0.950 . S
C216 C217 1.327 . S
C217 H211 0.950 . S
C217 C216 1.327 . S
C217 C221 1.429 . S
C218 C201 1.574 . S
C218 H212 0.949 . S
C218 C222 1.368 . S
C219 C200 1.429 . S
C219 C213 1.429 . S
C219 C220 1.523 . S
C220 C201 1.368 . S
C220 C214 1.368 . S
C220 C219 1.523 . S
C221 C205 1.429 . S
C221 C217 1.429 . S
C221 C222 1.523 . S
C222 C206 1.368 . S
C222 C218 1.368 . S
C222 C221 1.523 . S
H223 C198 0.950 . S
H224 C200 0.950 . S
H225 C201 0.949 . S
H226 C203 0.950 . S
H227 C205 0.950 . S
C228 C229 1.349 . S
C228 C230 1.327 . S
C228 H253 0.950 . S
C229 C228 1.349 . S
C229 C245 1.349 . S
C230 C228 1.327 . S
C230 C249 1.429 . S
C230 H254 0.950 . S
C231 C248 1.574 1_655 S
C231 C250 1.368 . S
C231 H255 0.949 . S
H232 C236 0.949 . S
C233 C234 1.349 . S
C233 C235 1.327 . S
C233 H256 0.950 . S
C234 C233 1.349 . S
C234 C246 1.349 . S
C235 C233 1.327 . S
C235 C251 1.429 . S
C235 H257 0.950 . S
C236 H232 0.949 . S
C236 C244 1.574 1_455 S
C236 C252 1.368 . S
H237 C245 0.950 . S
H238 C243 0.950 . S
H239 C244 0.949 . S
H240 C246 0.950 . S
H241 C247 0.950 . S
H242 C248 0.949 . S
C243 H238 0.950 . S
C243 C245 1.327 . S
C243 C249 1.429 . S
C244 C236 1.574 1_655 S
C244 H239 0.949 . S
C244 C250 1.368 . S
C245 C229 1.349 . S
C245 H237 0.950 . S
C245 C243 1.327 . S
C246 C234 1.349 . S
C246 H240 0.950 . S
C246 C247 1.327 . S
C247 H241 0.950 . S
C247 C246 1.327 . S
C247 C251 1.429 . S
C248 C231 1.574 1_455 S
C248 H242 0.949 . S
C248 C252 1.368 . S
C249 C230 1.429 . S
C249 C243 1.429 . S
C249 C250 1.523 . S
C250 C231 1.368 . S
C250 C244 1.368 . S
C250 C249 1.523 . S
C251 C235 1.429 . S
C251 C247 1.429 . S
C251 C252 1.523 . S
C252 C236 1.368 . S
C252 C248 1.368 . S
C252 C251 1.523 . S
H253 C228 0.950 . S
H254 C230 0.950 . S
H255 C231 0.949 . S
H256 C233 0.950 . S
H257 C235 0.950 . S
C258 C259 1.349 . S
C258 C260 1.327 . S
C258 H283 0.950 . S
C259 C258 1.349 . S
C259 C275 1.349 . S
C260 C258 1.327 . S
C260 C279 1.429 . S
C260 H284 0.950 . S
C261 C278 1.574 1_565 S
C261 C280 1.368 1_556 S
C261 H285 0.949 . S
H262 C266 0.949 . S
C263 C264 1.349 . S
C263 C265 1.327 . S
C263 H286 0.950 . S
C264 C263 1.349 . S
C264 C276 1.349 . S
C265 C263 1.327 . S
C265 C281 1.429 . S
C265 H287 0.950 . S
C266 H262 0.949 . S
C266 C274 1.574 1_545 S
C266 C282 1.368 1_554 S
H267 C275 0.950 1_556 S
H268 C273 0.945 . S
H269 C274 0.949 . S
H270 C276 0.950 1_554 S
H271 C277 0.946 . S
H272 C278 0.949 . S
C273 H268 0.945 . S
C273 C275 1.329 1_556 S
C273 C279 1.431 1_556 S
C274 C266 1.574 1_565 S
C274 H269 0.949 . S
C274 C280 1.368 . S
C275 C259 1.349 . S
C275 H267 0.950 1_554 S
C275 C273 1.329 1_554 S
C276 C264 1.349 . S
C276 H270 0.950 1_556 S
C276 C277 1.328 1_556 S
C277 H271 0.946 . S
C277 C276 1.328 1_554 S
C277 C281 1.431 1_554 S
C278 C261 1.574 1_545 S
C278 H272 0.949 . S
C278 C282 1.368 . S
C279 C260 1.429 . S
C279 C273 1.431 1_554 S
C279 C280 1.523 . S
C280 C261 1.368 1_554 S
C280 C274 1.368 . S
C280 C279 1.523 . S
C281 C265 1.429 . S
C281 C277 1.431 1_556 S
C281 C282 1.523 . S
C282 C266 1.368 1_556 S
C282 C278 1.368 . S
C282 C281 1.523 . S
H283 C258 0.950 . S
H284 C260 0.950 . S
H285 C261 0.949 . S
H286 C263 0.950 . S
H287 C265 0.950 . S
C288 C289 1.349 . S
C288 C290 1.327 . S
C288 H313 0.950 . S
C289 C288 1.349 . S
C289 C305 1.349 . S
C290 C288 1.327 . S
C290 C309 1.429 . S
C290 H314 0.950 . S
C291 C308 1.574 . S
C291 C310 1.368 . S
C291 H315 0.949 . S
H292 C296 0.949 . S
C293 C294 1.349 . S
C293 C295 1.327 . S
C293 H316 0.950 . S
C294 C293 1.349 . S
C294 C306 1.349 . S
C295 C293 1.327 . S
C295 C311 1.429 . S
C295 H317 0.950 . S
C296 H292 0.949 . S
C296 C304 1.574 . S
C296 C312 1.368 . S
H297 C305 0.950 . S
H298 C303 0.950 . S
H299 C304 0.949 . S
H300 C306 0.950 . S
H301 C307 0.950 . S
H302 C308 0.949 . S
C303 H298 0.950 . S
C303 C305 1.327 . S
C303 C309 1.429 . S
C304 C296 1.574 . S
C304 H299 0.949 . S
C304 C310 1.368 . S
C305 C289 1.349 . S
C305 H297 0.950 . S
C305 C303 1.327 . S
C306 C294 1.349 . S
C306 H300 0.950 . S
C306 C307 1.327 . S
C307 H301 0.950 . S
C307 C306 1.327 . S
C307 C311 1.429 . S
C308 C291 1.574 . S
C308 H302 0.949 . S
C308 C312 1.368 . S
C309 C290 1.429 . S
C309 C303 1.429 . S
C309 C310 1.523 . S
C310 C291 1.368 . S
C310 C304 1.368 . S
C310 C309 1.523 . S
C311 C295 1.429 . S
C311 C307 1.429 . S
C311 C312 1.523 . S
C312 C296 1.368 . S
C312 C308 1.368 . S
C312 C311 1.523 . S
H313 C288 0.950 . S
H314 C290 0.950 . S
H315 C291 0.949 . S
H316 C293 0.950 . S
H317 C295 0.950 . S
C318 C319 1.349 . S
C318 C320 1.327 . S
C318 H343 0.950 . S
C319 C318 1.349 . S
C319 C335 1.349 . S
C320 C318 1.327 . S
C320 C339 1.429 . S
C320 H344 0.950 . S
C321 C338 1.574 1_655 S
C321 C340 1.368 . S
C321 H345 0.949 . S
H322 C326 0.949 . S
C323 C324 1.349 . S
C323 C325 1.327 . S
C323 H346 0.950 . S
C324 C323 1.349 . S
C324 C336 1.349 . S
C325 C323 1.327 . S
C325 C341 1.429 . S
C325 H347 0.950 . S
C326 H322 0.949 . S
C326 C334 1.574 1_455 S
C326 C342 1.368 . S
H327 C335 0.950 . S
H328 C333 0.950 . S
H329 C334 0.949 . S
H330 C336 0.950 . S
H331 C337 0.950 . S
H332 C338 0.949 . S
C333 H328 0.950 . S
C333 C335 1.327 . S
C333 C339 1.429 . S
C334 C326 1.574 1_655 S
C334 H329 0.949 . S
C334 C340 1.368 . S
C335 C319 1.349 . S
C335 H327 0.950 . S
C335 C333 1.327 . S
C336 C324 1.349 . S
C336 H330 0.950 . S
C336 C337 1.327 . S
C337 H331 0.950 . S
C337 C336 1.327 . S
C337 C341 1.429 . S
C338 C321 1.574 1_455 S
C338 H332 0.949 . S
C338 C342 1.368 . S
C339 C320 1.429 . S
C339 C333 1.429 . S
C339 C340 1.523 . S
C340 C321 1.368 . S
C340 C334 1.368 . S
C340 C339 1.523 . S
C341 C325 1.429 . S
C341 C337 1.429 . S
C341 C342 1.523 . S
C342 C326 1.368 . S
C342 C338 1.368 . S
C342 C341 1.523 . S
H343 C318 0.950 . S
H344 C320 0.950 . S
H345 C321 0.949 . S
H346 C323 0.950 . S
H347 C325 0.950 . S
C348 C349 1.349 . S
C348 C350 1.327 . S
C348 H373 0.950 . S
C349 C348 1.349 . S
C349 C365 1.349 . S
C350 C348 1.327 . S
C350 C369 1.429 . S
C350 H374 0.950 . S
C351 C368 1.574 . S
C351 C370 1.368 . S
C351 H375 0.949 . S
H352 C356 0.949 . S
C353 C354 1.349 . S
C353 C355 1.327 . S
C353 H376 0.950 . S
C354 C353 1.349 . S
C354 C366 1.349 . S
C355 C353 1.327 . S
C355 C371 1.429 . S
C355 H377 0.950 . S
C356 H352 0.949 . S
C356 C364 1.574 . S
C356 C372 1.368 . S
H357 C365 0.950 . S
H358 C363 0.950 . S
H359 C364 0.949 . S
H360 C366 0.950 . S
H361 C367 0.950 . S
H362 C368 0.949 . S
C363 H358 0.950 . S
C363 C365 1.327 . S
C363 C369 1.429 . S
C364 C356 1.574 . S
C364 H359 0.949 . S
C364 C370 1.368 1_554 S
C365 C349 1.349 . S
C365 H357 0.950 . S
C365 C363 1.327 . S
C366 C354 1.349 . S
C366 H360 0.950 . S
C366 C367 1.327 . S
C367 H361 0.950 . S
C367 C366 1.327 . S
C367 C371 1.429 . S
C368 C351 1.574 . S
C368 H362 0.949 . S
C368 C372 1.368 1_556 S
C369 C350 1.429 . S
C369 C363 1.429 . S
C369 C370 1.523 . S
C370 C351 1.368 . S
C370 C364 1.368 1_556 S
C370 C369 1.523 . S
C371 C355 1.429 . S
C371 C367 1.429 . S
C371 C372 1.523 . S
C372 C356 1.368 . S
C372 C368 1.368 1_554 S
C372 C371 1.523 . S
H373 C348 0.950 . S
H374 C350 0.950 . S
H375 C351 0.949 . S
H376 C353 0.950 . S
H377 C355 0.950 . S
C378 C379 1.349 . S
C378 C380 1.327 . S
C378 H403 0.950 . S
C379 C378 1.349 . S
C379 C395 1.349 . S
C380 C378 1.327 . S
C380 C399 1.429 . S
C380 H404 0.950 . S
C381 C398 1.574 . S
C381 C400 1.368 . S
C381 H405 0.949 . S
H382 C386 0.949 . S
C383 C384 1.349 . S
C383 C385 1.327 . S
C383 H406 0.950 . S
C384 C383 1.349 . S
C384 C396 1.349 . S
C385 C383 1.327 . S
C385 C401 1.429 . S
C385 H407 0.950 . S
C386 H382 0.949 . S
C386 C394 1.574 . S
C386 C402 1.368 . S
H387 C395 0.950 . S
H388 C393 0.950 . S
H389 C394 0.949 . S
H390 C396 0.950 . S
H391 C397 0.950 . S
H392 C398 0.949 . S
C393 H388 0.950 . S
C393 C395 1.327 . S
C393 C399 1.429 . S
C394 C386 1.574 . S
C394 H389 0.949 . S
C394 C400 1.368 . S
C395 C379 1.349 . S
C395 H387 0.950 . S
C395 C393 1.327 . S
C396 C384 1.349 . S
C396 H390 0.950 . S
C396 C397 1.327 . S
C397 H391 0.950 . S
C397 C396 1.327 . S
C397 C401 1.429 . S
C398 C381 1.574 . S
C398 H392 0.949 . S
C398 C402 1.368 . S
C399 C380 1.429 . S
C399 C393 1.429 . S
C399 C400 1.523 . S
C400 C381 1.368 . S
C400 C394 1.368 . S
C400 C399 1.523 . S
C401 C385 1.429 . S
C401 C397 1.429 . S
C401 C402 1.523 . S
C402 C386 1.368 . S
C402 C398 1.368 . S
C402 C401 1.523 . S
H403 C378 0.950 . S
H404 C380 0.950 . S
H405 C381 0.949 . S
H406 C383 0.950 . S
H407 C385 0.950 . S
C408 C409 1.349 . S
C408 C410 1.327 . S
C408 H433 0.950 . S
C409 C408 1.349 . S
C409 C425 1.349 . S
C410 C408 1.327 . S
C410 C429 1.429 . S
C410 H434 0.950 . S
C411 C428 1.574 . S
C411 C430 1.368 . S
C411 H435 0.949 . S
H412 C416 0.949 . S
C413 C414 1.349 . S
C413 C415 1.327 . S
C413 H436 0.950 . S
C414 C413 1.349 . S
C414 C426 1.349 . S
C415 C413 1.327 . S
C415 C431 1.429 . S
C415 H437 0.950 . S
C416 H412 0.949 . S
C416 C424 1.574 . S
C416 C432 1.368 . S
H417 C425 0.950 . S
H418 C423 0.950 . S
H419 C424 0.949 . S
H420 C426 0.950 . S
H421 C427 0.950 . S
H422 C428 0.949 . S
C423 H418 0.950 . S
C423 C425 1.327 . S
C423 C429 1.429 . S
C424 C416 1.574 . S
C424 H419 0.949 . S
C424 C430 1.368 . S
C425 C409 1.349 . S
C425 H417 0.950 . S
C425 C423 1.327 . S
C426 C414 1.349 . S
C426 H420 0.950 . S
C426 C427 1.327 . S
C427 H421 0.950 . S
C427 C426 1.327 . S
C427 C431 1.429 . S
C428 C411 1.574 . S
C428 H422 0.949 . S
C428 C432 1.368 . S
C429 C410 1.429 . S
C429 C423 1.429 . S
C429 C430 1.523 . S
C430 C411 1.368 . S
C430 C424 1.368 . S
C430 C429 1.523 . S
C431 C415 1.429 . S
C431 C427 1.429 . S
C431 C432 1.523 . S
C432 C416 1.368 . S
C432 C428 1.368 . S
C432 C431 1.523 . S
H433 C408 0.950 . S
H434 C410 0.950 . S
H435 C411 0.949 . S
H436 C413 0.950 . S
H437 C415 0.950 . S
C438 C439 1.349 . S
C438 C440 1.327 . S
C438 H463 0.950 . S
C439 C438 1.349 . S
C439 C455 1.349 . S
C440 C438 1.327 . S
C440 C459 1.429 . S
C440 H464 0.950 . S
C441 C458 1.574 . S
C441 C460 1.368 . S
C441 H465 0.949 . S
H442 C446 0.949 . S
C443 C444 1.349 . S
C443 C445 1.327 . S
C443 H466 0.950 . S
C444 C443 1.349 . S
C444 C456 1.349 . S
C445 C443 1.327 . S
C445 C461 1.429 . S
C445 H467 0.950 . S
C446 H442 0.949 . S
C446 C454 1.574 . S
C446 C462 1.368 . S
H447 C455 0.950 . S
H448 C453 0.950 . S
H449 C454 0.949 . S
H450 C456 0.950 . S
H451 C457 0.950 . S
H452 C458 0.949 . S
C453 H448 0.950 . S
C453 C455 1.327 . S
C453 C459 1.429 . S
C454 C446 1.574 . S
C454 H449 0.949 . S
C454 C460 1.368 1_554 S
C455 C439 1.349 . S
C455 H447 0.950 . S
C455 C453 1.327 . S
C456 C444 1.349 . S
C456 H450 0.950 . S
C456 C457 1.327 . S
C457 H451 0.950 . S
C457 C456 1.327 . S
C457 C461 1.429 . S
C458 C441 1.574 . S
C458 H452 0.949 . S
C458 C462 1.368 1_556 S
C459 C440 1.429 . S
C459 C453 1.429 . S
C459 C460 1.523 . S
C460 C441 1.368 . S
C460 C454 1.368 1_556 S
C460 C459 1.523 . S
C461 C445 1.429 . S
C461 C457 1.429 . S
C461 C462 1.523 . S
C462 C446 1.368 . S
C462 C458 1.368 1_554 S
C462 C461 1.523 . S
H463 C438 0.950 . S
H464 C440 0.950 . S
H465 C441 0.949 . S
H466 C443 0.950 . S
H467 C445 0.950 . S
C468 C469 1.349 . S
C468 C470 1.327 . S
C468 H493 0.950 . S
C469 C468 1.349 . S
C469 C485 1.349 . S
C470 C468 1.327 . S
C470 C489 1.429 . S
C470 H494 0.950 . S
C471 C488 1.574 . S
C471 C490 1.368 . S
C471 H495 0.949 . S
H472 C476 0.949 . S
C473 C474 1.349 . S
C473 C475 1.327 . S
C473 H496 0.950 . S
C474 C473 1.349 . S
C474 C486 1.349 . S
C475 C473 1.327 . S
C475 C491 1.429 . S
C475 H497 0.950 . S
C476 H472 0.949 . S
C476 C484 1.574 . S
C476 C492 1.368 . S
H477 C485 0.950 . S
H478 C483 0.950 . S
H479 C484 0.949 . S
H480 C486 0.950 . S
H481 C487 0.950 . S
H482 C488 0.949 . S
C483 H478 0.950 . S
C483 C485 1.327 . S
C483 C489 1.429 . S
C484 C476 1.574 . S
C484 H479 0.949 . S
C484 C490 1.368 . S
C485 C469 1.349 . S
C485 H477 0.950 . S
C485 C483 1.327 . S
C486 C474 1.349 . S
C486 H480 0.950 . S
C486 C487 1.327 . S
C487 H481 0.950 . S
C487 C486 1.327 . S
C487 C491 1.429 . S
C488 C471 1.574 . S
C488 H482 0.949 . S
C488 C492 1.368 . S
C489 C470 1.429 . S
C489 C483 1.429 . S
C489 C490 1.523 . S
C490 C471 1.368 . S
C490 C484 1.368 . S
C490 C489 1.523 . S
C491 C475 1.429 . S
C491 C487 1.429 . S
C491 C492 1.523 . S
C492 C476 1.368 . S
C492 C488 1.368 . S
C492 C491 1.523 . S
H493 C468 0.950 . S
H494 C470 0.950 . S
H495 C471 0.949 . S
H496 C473 0.950 . S
H497 C475 0.950 . S
C498 C499 1.349 . S
C498 C500 1.327 . S
C498 H523 0.950 . S
C499 C498 1.349 . S
C499 C515 1.349 . S
C500 C498 1.327 . S
C500 C519 1.429 . S
C500 H524 0.950 . S
C501 C518 1.574 . S
C501 C520 1.368 . S
C501 H525 0.949 . S
H502 C506 0.949 . S
C503 C504 1.349 . S
C503 C505 1.327 . S
C503 H526 0.950 . S
C504 C503 1.349 . S
C504 C516 1.349 . S
C505 C503 1.327 . S
C505 C521 1.429 . S
C505 H527 0.950 . S
C506 H502 0.949 . S
C506 C514 1.574 . S
C506 C522 1.368 . S
H507 C515 0.950 . S
H508 C513 0.950 . S
H509 C514 0.949 . S
H510 C516 0.950 . S
H511 C517 0.950 . S
H512 C518 0.949 . S
C513 H508 0.950 . S
C513 C515 1.327 . S
C513 C519 1.429 . S
C514 C506 1.574 . S
C514 H509 0.949 . S
C514 C520 1.368 . S
C515 C499 1.349 . S
C515 H507 0.950 . S
C515 C513 1.327 . S
C516 C504 1.349 . S
C516 H510 0.950 . S
C516 C517 1.327 . S
C517 H511 0.950 . S
C517 C516 1.327 . S
C517 C521 1.429 . S
C518 C501 1.574 . S
C518 H512 0.949 . S
C518 C522 1.368 . S
C519 C500 1.429 . S
C519 C513 1.429 . S
C519 C520 1.523 . S
C520 C501 1.368 . S
C520 C514 1.368 . S
C520 C519 1.523 . S
C521 C505 1.429 . S
C521 C517 1.429 . S
C521 C522 1.523 . S
C522 C506 1.368 . S
C522 C518 1.368 . S
C522 C521 1.523 . S
H523 C498 0.950 . S
H524 C500 0.950 . S
H525 C501 0.949 . S
H526 C503 0.950 . S
H527 C505 0.950 . S
C528 C529 1.349 . S
C528 C530 1.327 . S
C528 H553 0.950 . S
C529 C528 1.349 . S
C529 C545 1.349 . S
C530 C528 1.327 . S
C530 C549 1.429 . S
C530 H554 0.950 . S
C531 C548 1.574 . S
C531 C550 1.368 . S
C531 H555 0.949 . S
H532 C536 0.949 . S
C533 C534 1.349 . S
C533 C535 1.327 . S
C533 H556 0.950 . S
C534 C533 1.349 . S
C534 C546 1.349 . S
C535 C533 1.327 . S
C535 C551 1.429 . S
C535 H557 0.950 . S
C536 H532 0.949 . S
C536 C544 1.574 . S
C536 C552 1.368 . S
H537 C545 0.950 . S
H538 C543 0.950 . S
H539 C544 0.949 . S
H540 C546 0.950 . S
H541 C547 0.950 . S
H542 C548 0.949 . S
C543 H538 0.950 . S
C543 C545 1.327 . S
C543 C549 1.429 . S
C544 C536 1.574 . S
C544 H539 0.949 . S
C544 C550 1.368 . S
C545 C529 1.349 . S
C545 H537 0.950 . S
C545 C543 1.327 . S
C546 C534 1.349 . S
C546 H540 0.950 . S
C546 C547 1.327 . S
C547 H541 0.950 . S
C547 C546 1.327 . S
C547 C551 1.429 . S
C548 C531 1.574 . S
C548 H542 0.949 . S
C548 C552 1.368 . S
C549 C530 1.429 . S
C549 C543 1.429 . S
C549 C550 1.523 . S
C550 C531 1.368 . S
C550 C544 1.368 . S
C550 C549 1.523 . S
C551 C535 1.429 . S
C551 C547 1.429 . S
C551 C552 1.523 . S
C552 C536 1.368 . S
C552 C548 1.368 . S
C552 C551 1.523 . S
H553 C528 0.950 . S
H554 C530 0.950 . S
H555 C531 0.949 . S
H556 C533 0.950 . S
H557 C535 0.950 . S
C558 C559 1.349 . S
C558 C560 1.327 . S
C558 H583 0.950 . S
C559 C558 1.349 . S
C559 C575 1.349 . S
C560 C558 1.327 . S
C560 C579 1.429 . S
C560 H584 0.950 . S
C561 C578 1.574 . S
C561 C580 1.368 . S
C561 H585 0.949 . S
H562 C566 0.949 . S
C563 C564 1.349 . S
C563 C565 1.327 . S
C563 H586 0.950 . S
C564 C563 1.349 . S
C564 C576 1.349 . S
C565 C563 1.327 . S
C565 C581 1.429 . S
C565 H587 0.950 . S
C566 H562 0.949 . S
C566 C574 1.574 . S
C566 C582 1.368 . S
H567 C575 0.950 . S
H568 C573 0.950 . S
H569 C574 0.949 . S
H570 C576 0.950 . S
H571 C577 0.950 . S
H572 C578 0.949 . S
C573 H568 0.950 . S
C573 C575 1.327 . S
C573 C579 1.429 . S
C574 C566 1.574 . S
C574 H569 0.949 . S
C574 C580 1.368 . S
C575 C559 1.349 . S
C575 H567 0.950 . S
C575 C573 1.327 . S
C576 C564 1.349 . S
C576 H570 0.950 . S
C576 C577 1.327 . S
C577 H571 0.950 . S
C577 C576 1.327 . S
C577 C581 1.429 . S
C578 C561 1.574 . S
C578 H572 0.949 . S
C578 C582 1.368 . S
C579 C560 1.429 . S
C579 C573 1.429 . S
C579 C580 1.523 . S
C580 C561 1.368 . S
C580 C574 1.368 . S
C580 C579 1.523 . S
C581 C565 1.429 . S
C581 C577 1.429 . S
C581 C582 1.523 . S
C582 C566 1.368 . S
C582 C578 1.368 . S
C582 C581 1.523 . S
H583 C558 0.950 . S
H584 C560 0.950 . S
H585 C561 0.949 . S
H586 C563 0.950 . S
H587 C565 0.950 . S
C588 C589 1.349 . S
C588 C590 1.327 . S
C588 H613 0.950 . S
C589 C588 1.349 . S
C589 C605 1.349 . S
C590 C588 1.327 . S
C590 C609 1.429 . S
C590 H614 0.950 . S
C591 C608 1.574 . S
C591 C610 1.368 . S
C591 H615 0.949 . S
H592 C596 0.949 . S
C593 C594 1.349 . S
C593 C595 1.327 . S
C593 H616 0.950 . S
C594 C593 1.349 . S
C594 C606 1.349 . S
C595 C593 1.327 . S
C595 C611 1.429 . S
C595 H617 0.950 . S
C596 H592 0.949 . S
C596 C604 1.574 . S
C596 C612 1.368 . S
H597 C605 0.950 . S
H598 C603 0.950 . S
H599 C604 0.949 . S
H600 C606 0.950 . S
H601 C607 0.950 . S
H602 C608 0.949 . S
C603 H598 0.950 . S
C603 C605 1.327 . S
C603 C609 1.429 . S
C604 C596 1.574 . S
C604 H599 0.949 . S
C604 C610 1.368 . S
C605 C589 1.349 . S
C605 H597 0.950 . S
C605 C603 1.327 . S
C606 C594 1.349 . S
C606 H600 0.950 . S
C606 C607 1.327 . S
C607 H601 0.950 . S
C607 C606 1.327 . S
C607 C611 1.429 . S
C608 C591 1.574 . S
C608 H602 0.949 . S
C608 C612 1.368 . S
C609 C590 1.429 . S
C609 C603 1.429 . S
C609 C610 1.523 . S
C610 C591 1.368 . S
C610 C604 1.368 . S
C610 C609 1.523 . S
C611 C595 1.429 . S
C611 C607 1.429 . S
C611 C612 1.523 . S
C612 C596 1.368 . S
C612 C608 1.368 . S
C612 C611 1.523 . S
H613 C588 0.950 . S
H614 C590 0.950 . S
H615 C591 0.949 . S
H616 C593 0.950 . S
H617 C595 0.950 . S
C618 C619 1.349 . S
C618 C620 1.327 . S
C618 H643 0.950 . S
C619 C618 1.349 . S
C619 C635 1.349 . S
C620 C618 1.327 . S
C620 C639 1.429 . S
C620 H644 0.950 . S
C621 C638 1.574 . S
C621 C640 1.368 . S
C621 H645 0.949 . S
H622 C626 0.949 . S
C623 C624 1.349 . S
C623 C625 1.327 . S
C623 H646 0.950 . S
C624 C623 1.349 . S
C624 C636 1.349 . S
C625 C623 1.327 . S
C625 C641 1.429 . S
C625 H647 0.950 . S
C626 H622 0.949 . S
C626 C634 1.574 . S
C626 C642 1.368 . S
H627 C635 0.950 . S
H628 C633 0.950 . S
H629 C634 0.949 . S
H630 C636 0.950 . S
H631 C637 0.950 . S
H632 C638 0.949 . S
C633 H628 0.950 . S
C633 C635 1.327 . S
C633 C639 1.429 . S
C634 C626 1.574 . S
C634 H629 0.949 . S
C634 C640 1.368 . S
C635 C619 1.349 . S
C635 H627 0.950 . S
C635 C633 1.327 . S
C636 C624 1.349 . S
C636 H630 0.950 . S
C636 C637 1.327 . S
C637 H631 0.950 . S
C637 C636 1.327 . S
C637 C641 1.429 . S
C638 C621 1.574 . S
C638 H632 0.949 . S
C638 C642 1.368 . S
C639 C620 1.429 . S
C639 C633 1.429 . S
C639 C640 1.523 . S
C640 C621 1.368 . S
C640 C634 1.368 . S
C640 C639 1.523 . S
C641 C625 1.429 . S
C641 C637 1.429 . S
C641 C642 1.523 . S
C642 C626 1.368 . S
C642 C638 1.368 . S
C642 C641 1.523 . S
H643 C618 0.950 . S
H644 C620 0.950 . S
H645 C621 0.949 . S
H646 C623 0.950 . S
H647 C625 0.950 . S
C648 C649 1.349 . S
C648 C650 1.327 . S
C648 H673 0.950 . S
C649 C648 1.349 . S
C649 C665 1.349 . S
C650 C648 1.327 . S
C650 C669 1.429 . S
C650 H674 0.950 . S
C651 C668 1.574 . S
C651 C670 1.368 . S
C651 H675 0.949 . S
H652 C656 0.949 . S
C653 C654 1.349 . S
C653 C655 1.327 . S
C653 H676 0.950 . S
C654 C653 1.349 . S
C654 C666 1.349 . S
C655 C653 1.327 . S
C655 C671 1.429 . S
C655 H677 0.950 . S
C656 H652 0.949 . S
C656 C664 1.574 . S
C656 C672 1.368 . S
H657 C665 0.950 . S
H658 C663 0.950 . S
H659 C664 0.949 . S
H660 C666 0.950 . S
H661 C667 0.950 . S
H662 C668 0.949 . S
C663 H658 0.950 . S
C663 C665 1.327 . S
C663 C669 1.429 . S
C664 C656 1.574 . S
C664 H659 0.949 . S
C664 C670 1.368 . S
C665 C649 1.349 . S
C665 H657 0.950 . S
C665 C663 1.327 . S
C666 C654 1.349 . S
C666 H660 0.950 . S
C666 C667 1.327 . S
C667 H661 0.950 . S
C667 C666 1.327 . S
C667 C671 1.429 . S
C668 C651 1.574 . S
C668 H662 0.949 . S
C668 C672 1.368 . S
C669 C650 1.429 . S
C669 C663 1.429 . S
C669 C670 1.523 . S
C670 C651 1.368 . S
C670 C664 1.368 . S
C670 C669 1.523 . S
C671 C655 1.429 . S
C671 C667 1.429 . S
C671 C672 1.523 . S
C672 C656 1.368 . S
C672 C668 1.368 . S
C672 C671 1.523 . S
H673 C648 0.950 . S
H674 C650 0.950 . S
H675 C651 0.949 . S
H676 C653 0.950 . S
H677 C655 0.950 . S
C678 C679 1.349 . S
C678 C680 1.327 . S
C678 H703 0.950 . S
C679 C678 1.349 . S
C679 C695 1.349 . S
C680 C678 1.327 . S
C680 C699 1.429 . S
C680 H704 0.950 . S
C681 C698 1.574 . S
C681 C700 1.368 . S
C681 H705 0.949 . S
H682 C686 0.949 . S
C683 C684 1.349 . S
C683 C685 1.327 . S
C683 H706 0.950 . S
C684 C683 1.349 . S
C684 C696 1.349 . S
C685 C683 1.327 . S
C685 C701 1.429 . S
C685 H707 0.950 . S
C686 H682 0.949 . S
C686 C694 1.574 . S
C686 C702 1.368 . S
H687 C695 0.950 . S
H688 C693 0.950 . S
H689 C694 0.949 . S
H690 C696 0.950 . S
H691 C697 0.950 . S
H692 C698 0.949 . S
C693 H688 0.950 . S
C693 C695 1.327 . S
C693 C699 1.429 . S
C694 C686 1.574 . S
C694 H689 0.949 . S
C694 C700 1.368 . S
C695 C679 1.349 . S
C695 H687 0.950 . S
C695 C693 1.327 . S
C696 C684 1.349 . S
C696 H690 0.950 . S
C696 C697 1.327 . S
C697 H691 0.950 . S
C697 C696 1.327 . S
C697 C701 1.429 . S
C698 C681 1.574 . S
C698 H692 0.949 . S
C698 C702 1.368 . S
C699 C680 1.429 . S
C699 C693 1.429 . S
C699 C700 1.523 . S
C700 C681 1.368 . S
C700 C694 1.368 . S
C700 C699 1.523 . S
C701 C685 1.429 . S
C701 C697 1.429 . S
C701 C702 1.523 . S
C702 C686 1.368 . S
C702 C698 1.368 . S
C702 C701 1.523 . S
H703 C678 0.950 . S
H704 C680 0.950 . S
H705 C681 0.949 . S
H706 C683 0.950 . S
H707 C685 0.950 . S
C708 C709 1.349 . S
C708 C710 1.327 . S
C708 H733 0.950 . S
C709 C708 1.349 . S
C709 C725 1.349 . S
C710 C708 1.327 . S
C710 C729 1.429 . S
C710 H734 0.950 . S
C711 C728 1.574 . S
C711 C730 1.368 . S
C711 H735 0.949 . S
H712 C716 0.949 . S
C713 C714 1.349 . S
C713 C715 1.327 . S
C713 H736 0.950 . S
C714 C713 1.349 . S
C714 C726 1.349 . S
C715 C713 1.327 . S
C715 C731 1.429 . S
C715 H737 0.950 . S
C716 H712 0.949 . S
C716 C724 1.574 . S
C716 C732 1.368 . S
H717 C725 0.950 . S
H718 C723 0.950 . S
H719 C724 0.949 . S
H720 C726 0.950 . S
H721 C727 0.950 . S
H722 C728 0.949 . S
C723 H718 0.950 . S
C723 C725 1.327 . S
C723 C729 1.429 . S
C724 C716 1.574 . S
C724 H719 0.949 . S
C724 C730 1.368 . S
C725 C709 1.349 . S
C725 H717 0.950 . S
C725 C723 1.327 . S
C726 C714 1.349 . S
C726 H720 0.950 . S
C726 C727 1.327 . S
C727 H721 0.950 . S
C727 C726 1.327 . S
C727 C731 1.429 . S
C728 C711 1.574 . S
C728 H722 0.949 . S
C728 C732 1.368 . S
C729 C710 1.429 . S
C729 C723 1.429 . S
C729 C730 1.523 . S
C730 C711 1.368 . S
C730 C724 1.368 . S
C730 C729 1.523 . S
C731 C715 1.429 . S
C731 C727 1.429 . S
C731 C732 1.523 . S
C732 C716 1.368 . S
C732 C728 1.368 . S
C732 C731 1.523 . S
H733 C708 0.950 . S
H734 C710 0.950 . S
H735 C711 0.949 . S
H736 C713 0.950 . S
H737 C715 0.950 . S
C738 C739 1.349 . S
C738 C740 1.327 . S
C738 H763 0.950 . S
C739 C738 1.349 . S
C739 C755 1.349 . S
C740 C738 1.327 . S
C740 C759 1.429 . S
C740 H764 0.950 . S
C741 C758 1.574 . S
C741 C760 1.368 . S
C741 H765 0.949 . S
H742 C746 0.949 . S
C743 C744 1.349 . S
C743 C745 1.327 . S
C743 H766 0.950 . S
C744 C743 1.349 . S
C744 C756 1.349 . S
C745 C743 1.327 . S
C745 C761 1.429 . S
C745 H767 0.950 . S
C746 H742 0.949 . S
C746 C754 1.574 . S
C746 C762 1.368 . S
H747 C755 0.950 . S
H748 C753 0.950 . S
H749 C754 0.949 . S
H750 C756 0.950 . S
H751 C757 0.950 . S
H752 C758 0.949 . S
C753 H748 0.950 . S
C753 C755 1.327 . S
C753 C759 1.429 . S
C754 C746 1.574 . S
C754 H749 0.949 . S
C754 C760 1.368 1_455 S
C755 C739 1.349 . S
C755 H747 0.950 . S
C755 C753 1.327 . S
C756 C744 1.349 . S
C756 H750 0.950 . S
C756 C757 1.327 . S
C757 H751 0.950 . S
C757 C756 1.327 . S
C757 C761 1.429 . S
C758 C741 1.574 . S
C758 H752 0.949 . S
C758 C762 1.368 1_655 S
C759 C740 1.429 . S
C759 C753 1.429 . S
C759 C760 1.523 . S
C760 C741 1.368 . S
C760 C754 1.368 1_655 S
C760 C759 1.523 . S
C761 C745 1.429 . S
C761 C757 1.429 . S
C761 C762 1.523 . S
C762 C746 1.368 . S
C762 C758 1.368 1_455 S
C762 C761 1.523 . S
H763 C738 0.950 . S
H764 C740 0.950 . S
H765 C741 0.949 . S
H766 C743 0.950 . S
H767 C745 0.950 . S
C768 C769 1.349 . S
C768 C770 1.327 . S
C768 H793 0.950 . S
C769 C768 1.349 . S
C769 C785 1.349 . S
C770 C768 1.327 . S
C770 C789 1.429 . S
C770 H794 0.950 . S
C771 C788 1.574 . S
C771 C790 1.368 1_565 S
C771 H795 0.949 . S
H772 C776 0.949 . S
C773 C774 1.349 . S
C773 C775 1.327 . S
C773 H796 0.950 . S
C774 C773 1.349 . S
C774 C786 1.349 . S
C775 C773 1.327 . S
C775 C791 1.429 . S
C775 H797 0.950 . S
C776 H772 0.949 . S
C776 C784 1.574 . S
C776 C792 1.368 1_545 S
H777 C785 0.950 . S
H778 C783 0.950 . S
H779 C784 0.949 . S
H780 C786 0.950 . S
H781 C787 0.950 . S
H782 C788 0.949 . S
C783 H778 0.950 . S
C783 C785 1.327 . S
C783 C789 1.429 . S
C784 C776 1.574 . S
C784 H779 0.949 . S
C784 C790 1.368 . S
C785 C769 1.349 . S
C785 H777 0.950 . S
C785 C783 1.327 . S
C786 C774 1.349 . S
C786 H780 0.950 . S
C786 C787 1.327 . S
C787 H781 0.950 . S
C787 C786 1.327 . S
C787 C791 1.429 . S
C788 C771 1.574 . S
C788 H782 0.949 . S
C788 C792 1.368 . S
C789 C770 1.429 . S
C789 C783 1.429 . S
C789 C790 1.523 . S
C790 C771 1.368 1_545 S
C790 C784 1.368 . S
C790 C789 1.523 . S
C791 C775 1.429 . S
C791 C787 1.429 . S
C791 C792 1.523 . S
C792 C776 1.368 1_565 S
C792 C788 1.368 . S
C792 C791 1.523 . S
H793 C768 0.950 . S
H794 C770 0.950 . S
H795 C771 0.949 . S
H796 C773 0.950 . S
H797 C775 0.950 . S
C798 C799 1.349 . S
C798 C800 1.327 . S
C798 H823 0.950 . S
C799 C798 1.349 . S
C799 C815 1.349 . S
C800 C798 1.327 . S
C800 C819 1.429 . S
C800 H824 0.950 . S
C801 C818 1.574 . S
C801 C820 1.368 . S
C801 H825 0.949 . S
H802 C806 0.949 . S
C803 C804 1.349 . S
C803 C805 1.327 . S
C803 H826 0.950 . S
C804 C803 1.349 . S
C804 C816 1.349 . S
C805 C803 1.327 . S
C805 C821 1.429 . S
C805 H827 0.950 . S
C806 H802 0.949 . S
C806 C814 1.574 . S
C806 C822 1.368 . S
H807 C815 0.950 . S
H808 C813 0.950 . S
H809 C814 0.949 . S
H810 C816 0.950 . S
H811 C817 0.950 . S
H812 C818 0.949 . S
C813 H808 0.950 . S
C813 C815 1.327 . S
C813 C819 1.429 . S
C814 C806 1.574 . S
C814 H809 0.949 . S
C814 C820 1.368 . S
C815 C799 1.349 . S
C815 H807 0.950 . S
C815 C813 1.327 . S
C816 C804 1.349 . S
C816 H810 0.950 . S
C816 C817 1.327 . S
C817 H811 0.950 . S
C817 C816 1.327 . S
C817 C821 1.429 . S
C818 C801 1.574 . S
C818 H812 0.949 . S
C818 C822 1.368 . S
C819 C800 1.429 . S
C819 C813 1.429 . S
C819 C820 1.523 . S
C820 C801 1.368 . S
C820 C814 1.368 . S
C820 C819 1.523 . S
C821 C805 1.429 . S
C821 C817 1.429 . S
C821 C822 1.523 . S
C822 C806 1.368 . S
C822 C818 1.368 . S
C822 C821 1.523 . S
H823 C798 0.950 . S
H824 C800 0.950 . S
H825 C801 0.949 . S
H826 C803 0.950 . S
H827 C805 0.950 . S
C828 C829 1.349 . S
C828 C830 1.327 . S
C828 H853 0.950 . S
C829 C828 1.349 . S
C829 C845 1.349 . S
C830 C828 1.327 . S
C830 C849 1.429 . S
C830 H854 0.950 . S
C831 C848 1.574 . S
C831 C850 1.368 1_655 S
C831 H855 0.949 . S
H832 C836 0.949 . S
C833 C834 1.349 . S
C833 C835 1.327 . S
C833 H856 0.950 . S
C834 C833 1.349 . S
C834 C846 1.349 . S
C835 C833 1.327 . S
C835 C851 1.429 . S
C835 H857 0.950 . S
C836 H832 0.949 . S
C836 C844 1.574 . S
C836 C852 1.368 1_455 S
H837 C845 0.950 . S
H838 C843 0.950 . S
H839 C844 0.949 . S
H840 C846 0.950 . S
H841 C847 0.950 . S
H842 C848 0.949 . S
C843 H838 0.950 . S
C843 C845 1.327 . S
C843 C849 1.429 . S
C844 C836 1.574 . S
C844 H839 0.949 . S
C844 C850 1.368 . S
C845 C829 1.349 . S
C845 H837 0.950 . S
C845 C843 1.327 . S
C846 C834 1.349 . S
C846 H840 0.950 . S
C846 C847 1.327 . S
C847 H841 0.950 . S
C847 C846 1.327 . S
C847 C851 1.429 . S
C848 C831 1.574 . S
C848 H842 0.949 . S
C848 C852 1.368 . S
C849 C830 1.429 . S
C849 C843 1.429 . S
C849 C850 1.523 . S
C850 C831 1.368 1_455 S
C850 C844 1.368 . S
C850 C849 1.523 . S
C851 C835 1.429 . S
C851 C847 1.429 . S
C851 C852 1.523 . S
C852 C836 1.368 1_655 S
C852 C848 1.368 . S
C852 C851 1.523 . S
H853 C828 0.950 . S
H854 C830 0.950 . S
H855 C831 0.949 . S
H856 C833 0.950 . S
H857 C835 0.950 . S
C858 C859 1.349 . S
C858 C860 1.327 . S
C858 H883 0.950 . S
C859 C858 1.349 . S
C859 C875 1.349 . S
C860 C858 1.327 . S
C860 C879 1.429 . S
C860 H884 0.950 . S
C861 C878 1.574 . S
C861 C880 1.368 . S
C861 H885 0.949 . S
H862 C866 0.949 . S
C863 C864 1.349 . S
C863 C865 1.327 . S
C863 H886 0.950 . S
C864 C863 1.349 . S
C864 C876 1.349 . S
C865 C863 1.327 . S
C865 C881 1.429 . S
C865 H887 0.950 . S
C866 H862 0.949 . S
C866 C874 1.574 . S
C866 C882 1.368 . S
H867 C875 0.950 . S
H868 C873 0.950 . S
H869 C874 0.949 . S
H870 C876 0.950 . S
H871 C877 0.950 . S
H872 C878 0.949 . S
C873 H868 0.950 . S
C873 C875 1.327 . S
C873 C879 1.429 . S
C874 C866 1.574 . S
C874 H869 0.949 . S
C874 C880 1.368 1_545 S
C875 C859 1.349 . S
C875 H867 0.950 . S
C875 C873 1.327 . S
C876 C864 1.349 . S
C876 H870 0.950 . S
C876 C877 1.327 . S
C877 H871 0.950 . S
C877 C876 1.327 . S
C877 C881 1.429 . S
C878 C861 1.574 . S
C878 H872 0.949 . S
C878 C882 1.368 1_565 S
C879 C860 1.429 . S
C879 C873 1.429 . S
C879 C880 1.523 . S
C880 C861 1.368 . S
C880 C874 1.368 1_565 S
C880 C879 1.523 . S
C881 C865 1.429 . S
C881 C877 1.429 . S
C881 C882 1.523 . S
C882 C866 1.368 . S
C882 C878 1.368 1_545 S
C882 C881 1.523 . S
H883 C858 0.950 . S
H884 C860 0.950 . S
H885 C861 0.949 . S
H886 C863 0.950 . S
H887 C865 0.950 . S
C169 C103 0.994 . S
C174 C5 0.994 . S
C199 C19 0.994 . S
C204 C117 0.994 . S
C229 C33 0.994 . S
C234 C131 0.994 . S
C259 C47 0.994 . S
C264 C145 0.994 . S
C289 C159 0.994 . S
C294 C61 0.994 . S
C319 C89 0.994 . S
C324 C75 0.994 . S
C349 C144 1.230 . S
C354 C4 1.230 . S
C379 C18 1.230 . S
C384 C158 1.230 . S
C409 C32 1.230 . S
C414 C88 1.230 . S
C439 C102 1.230 . S
C444 C46 1.230 . S
C469 C116 1.229 . S
C474 C60 1.229 . S
C499 C130 1.230 . S
C504 C74 1.230 . S
C529 C11 1.605 . S
C534 C123 1.605 . S
C559 C25 1.605 . S
C564 C137 1.605 . S
C589 C151 1.605 . S
C594 C39 1.605 . S
C619 C53 1.605 . S
C624 C165 1.605 . S
C649 C95 1.605 . S
C654 C67 1.605 . S
C679 C109 1.605 . S
C684 C81 1.605 . S
C709 C54 1.046 . S
C714 C12 1.046 . S
C739 C68 1.046 . S
C744 C26 1.046 . S
C769 C40 1.047 . S
C774 C82 1.047 . S
C799 C96 1.047 . S
C804 C138 1.047 . S
C829 C110 1.047 . S
C834 C152 1.047 . S
C859 C166 1.046 . S
C864 C124 1.046 . S
