# Generated by pormake.
# Topology lcy-e, (6)-cn, num edge types: 1
# Building blocks:
#     Node 0, Type 0, BuildingBlock: OJICUG_clean_sbu_0, # of connection points: 6
#     Node 1, Type 0, BuildingBlock: OJICUG_clean_sbu_0, # of connection points: 6
#     Node 2, Type 0, BuildingBlock: OJICUG_clean_sbu_0, # of connection points: 6
#     Node 3, Type 0, BuildingBlock: OJICUG_clean_sbu_0, # of connection points: 6
#     Node 4, Type 0, BuildingBlock: OJICUG_clean_sbu_0, # of connection points: 6
#     Node 5, Type 0, BuildingBlock: OJICUG_clean_sbu_0, # of connection points: 6
#     Node 6, Type 0, BuildingBlock: OJICUG_clean_sbu_0, # of connection points: 6
#     Node 7, Type 0, BuildingBlock: OJICUG_clean_sbu_0, # of connection points: 6
#     Node 8, Type 0, BuildingBlock: OJICUG_clean_sbu_0, # of connection points: 6
#     Node 9, Type 0, BuildingBlock: OJICUG_clean_sbu_0, # of connection points: 6
#     Node 10, Type 0, BuildingBlock: OJICUG_clean_sbu_0, # of connection points: 6
#     Node 11, Type 0, BuildingBlock: OJICUG_clean_sbu_0, # of connection points: 6
#     Edge 12, Type (0, 0), BuildingBlock: OJICUG_clean_linker_0, # of connection points: 2
#     Edge 13, Type (0, 0), BuildingBlock: OJICUG_clean_linker_0, # of connection points: 2
#     Edge 14, Type (0, 0), BuildingBlock: OJICUG_clean_linker_0, # of connection points: 2
#     Edge 15, Type (0, 0), BuildingBlock: OJICUG_clean_linker_0, # of connection points: 2
#     Edge 16, Type (0, 0), BuildingBlock: OJICUG_clean_linker_0, # of connection points: 2
#     Edge 17, Type (0, 0), BuildingBlock: OJICUG_clean_linker_0, # of connection points: 2
#     Edge 18, Type (0, 0), BuildingBlock: OJICUG_clean_linker_0, # of connection points: 2
#     Edge 19, Type (0, 0), BuildingBlock: OJICUG_clean_linker_0, # of connection points: 2
#     Edge 20, Type (0, 0), BuildingBlock: OJICUG_clean_linker_0, # of connection points: 2
#     Edge 21, Type (0, 0), BuildingBlock: OJICUG_clean_linker_0, # of connection points: 2
#     Edge 22, Type (0, 0), BuildingBlock: OJICUG_clean_linker_0, # of connection points: 2
#     Edge 23, Type (0, 0), BuildingBlock: OJICUG_clean_linker_0, # of connection points: 2
#     Edge 24, Type (0, 0), BuildingBlock: OJICUG_clean_linker_0, # of connection points: 2
#     Edge 25, Type (0, 0), BuildingBlock: OJICUG_clean_linker_0, # of connection points: 2
#     Edge 26, Type (0, 0), BuildingBlock: OJICUG_clean_linker_0, # of connection points: 2
#     Edge 27, Type (0, 0), BuildingBlock: OJICUG_clean_linker_0, # of connection points: 2
#     Edge 28, Type (0, 0), BuildingBlock: OJICUG_clean_linker_0, # of connection points: 2
#     Edge 29, Type (0, 0), BuildingBlock: OJICUG_clean_linker_0, # of connection points: 2
#     Edge 30, Type (0, 0), BuildingBlock: OJICUG_clean_linker_0, # of connection points: 2
#     Edge 31, Type (0, 0), BuildingBlock: OJICUG_clean_linker_0, # of connection points: 2
#     Edge 32, Type (0, 0), BuildingBlock: OJICUG_clean_linker_0, # of connection points: 2
#     Edge 33, Type (0, 0), BuildingBlock: OJICUG_clean_linker_0, # of connection points: 2
#     Edge 34, Type (0, 0), BuildingBlock: OJICUG_clean_linker_0, # of connection points: 2
#     Edge 35, Type (0, 0), BuildingBlock: OJICUG_clean_linker_0, # of connection points: 2
#     Edge 36, Type (0, 0), BuildingBlock: OJICUG_clean_linker_0, # of connection points: 2
#     Edge 37, Type (0, 0), BuildingBlock: OJICUG_clean_linker_0, # of connection points: 2
#     Edge 38, Type (0, 0), BuildingBlock: OJICUG_clean_linker_0, # of connection points: 2
#     Edge 39, Type (0, 0), BuildingBlock: OJICUG_clean_linker_0, # of connection points: 2
#     Edge 40, Type (0, 0), BuildingBlock: OJICUG_clean_linker_0, # of connection points: 2
#     Edge 41, Type (0, 0), BuildingBlock: OJICUG_clean_linker_0, # of connection points: 2
#     Edge 42, Type (0, 0), BuildingBlock: OJICUG_clean_linker_0, # of connection points: 2
#     Edge 43, Type (0, 0), BuildingBlock: OJICUG_clean_linker_0, # of connection points: 2
#     Edge 44, Type (0, 0), BuildingBlock: OJICUG_clean_linker_0, # of connection points: 2
#     Edge 45, Type (0, 0), BuildingBlock: OJICUG_clean_linker_0, # of connection points: 2
#     Edge 46, Type (0, 0), BuildingBlock: OJICUG_clean_linker_0, # of connection points: 2
#     Edge 47, Type (0, 0), BuildingBlock: OJICUG_clean_linker_0, # of connection points: 2
# Relax obj value: 0.285
# Max RMSD: 0.291
# Mean RMSD: 0.291
data_MOF--net-lcy-e--node1-OJICUG_clean_sbu_0--edge1-OJICUG_clean_linker_0
_symmetry_space_group_name_H-M    P1
_symmetry_Int_Tables_number       1
_symmetry_cell_setting            triclinic
loop_
_symmetry_equiv_pos_as_xyz
'x, y, z'
_cell_length_a     27.58813
_cell_length_b     27.798415
_cell_length_c     27.869496
_cell_angle_alpha  89.750552
_cell_angle_beta   90.073058
_cell_angle_gamma 89.228123
loop_
_atom_site_label
_atom_site_type_symbol
_atom_site_fract_x
_atom_site_fract_y
_atom_site_fract_z
_atom_type_partial_charge
Sc0 Sc 0.13311 0.15583 0.40568 0.0
Sc1 Sc 0.17163 0.23397 0.49181 0.0
Sc2 Sc 0.06206 0.25252 0.43876 0.0
O3 O 0.12241 0.21252 0.44587 0.0
C4 C 0.10549 0.24598 0.33905 0.0
C5 C 0.23706 0.19876 0.40353 0.0
C6 C 0.14019 0.32962 0.46748 0.0
C7 C 0.16548 0.12363 0.51244 0.0
C8 C 0.02348 0.14987 0.41386 0.0
C9 C 0.06463 0.24639 0.54219 0.0
O10 O 0.11116 0.2 0.3428 0.0
O11 O 0.23487 0.21657 0.44575 0.0
O12 O 0.09598 0.31722 0.4712 0.0
O13 O 0.15674 0.11321 0.4684 0.0
O14 O 0.0188 0.19501 0.40705 0.0
O15 O 0.1103 0.25635 0.5407 0.0
O16 O 0.0639 0.13074 0.42334 0.0
O17 O 0.17204 0.16629 0.52699 0.0
O18 O 0.04296 0.22807 0.50696 0.0
O19 O 0.20277 0.17599 0.38506 0.0
O20 O 0.08769 0.27249 0.37166 0.0
O21 O 0.17103 0.2994 0.45366 0.0
Sc22 Sc 0.1053 0.8725 0.64663 0.0
Sc23 Sc 0.00426 0.85158 0.70977 0.0
Sc24 Sc 0.08625 0.93739 0.75019 0.0
O25 O 0.0623 0.89131 0.70135 0.0
C26 C 0.16326 0.86308 0.7416 0.0
C27 C 0.07294 0.77746 0.6619 0.0
C28 C 0.03936 0.85455 0.81622 0.0
C29 C 0.0052 0.89138 0.6006 0.0
C30 C 0.12949 0.97882 0.65671 0.0
C31 C 0.97383 0.95676 0.74997 0.0
O32 O 0.15024 0.83849 0.70493 0.0
O33 O 0.05042 0.78442 0.70088 0.0
O34 O 0.06902 0.88951 0.81184 0.0
O35 O 0.05026 0.9035 0.59842 0.0
O36 O 0.10081 0.98755 0.69163 0.0
O37 O 0.96166 0.91709 0.72947 0.0
O38 O 0.14671 0.93698 0.64995 0.0
O39 O 0.98772 0.86595 0.63481 0.0
O40 O 0.0171 0.96827 0.75914 0.0
O41 O 0.06644 0.80957 0.63158 0.0
O42 O 0.15712 0.9081 0.74058 0.0
O43 O 0.01474 0.83829 0.78216 0.0
Sc44 Sc 0.43088 0.74751 0.93908 0.0
Sc45 Sc 0.32268 0.76958 0.99394 0.0
Sc46 Sc 0.36124 0.84712 0.90669 0.0
O47 O 0.37211 0.79004 0.94718 0.0
C48 C 0.47303 0.8498 0.91443 0.0
C49 C 0.42907 0.74847 0.04295 0.0
C50 C 0.33583 0.87879 0.01589 0.0
C51 C 0.34816 0.67409 0.96506 0.0
C52 C 0.38704 0.75704 0.83778 0.0
C53 C 0.25482 0.80983 0.90982 0.0
O54 O 0.47776 0.80428 0.91141 0.0
O55 O 0.38294 0.74149 0.04138 0.0
O56 O 0.34372 0.88965 0.97158 0.0
O57 O 0.39319 0.68333 0.96881 0.0
O58 O 0.37642 0.80208 0.84274 0.0
O59 O 0.25812 0.79098 0.9515 0.0
O60 O 0.40645 0.73096 0.87015 0.0
O61 O 0.31931 0.7068 0.95265 0.0
O62 O 0.28955 0.83082 0.89012 0.0
O63 O 0.45143 0.76724 0.00836 0.0
O64 O 0.43232 0.87024 0.91831 0.0
O65 O 0.32715 0.83626 0.03031 0.0
Sc66 Sc 0.39515 0.12491 0.14693 0.0
Sc67 Sc 0.50474 0.14068 0.19946 0.0
Sc68 Sc 0.42064 0.06465 0.25242 0.0
O69 O 0.44196 0.10769 0.1994 0.0
C70 C 0.34311 0.1414 0.24418 0.0
C71 C 0.43937 0.22075 0.15454 0.0
C72 C 0.47999 0.14404 0.30948 0.0
C73 C 0.49033 0.10017 0.094 0.0
C74 C 0.371 0.02028 0.16362 0.0
C75 C 0.53085 0.0355 0.24027 0.0
O76 O 0.35418 0.16252 0.20461 0.0
O77 O 0.46509 0.21085 0.19133 0.0
O78 O 0.44381 0.11549 0.30872 0.0
O79 O 0.44512 0.08911 0.0967 0.0
O80 O 0.40093 0.01199 0.1977 0.0
O81 O 0.54298 0.07152 0.21382 0.0
O82 O 0.35292 0.06186 0.15785 0.0
O83 O 0.51117 0.12767 0.12392 0.0
O84 O 0.48895 0.03056 0.25788 0.0
O85 O 0.4316 0.18804 0.12508 0.0
O86 O 0.34995 0.09647 0.24866 0.0
O87 O 0.50506 0.15392 0.27313 0.0
Sc88 Sc 0.66883 0.2832 0.51466 0.0
Sc89 Sc 0.55809 0.24664 0.55472 0.0
Sc90 Sc 0.61611 0.3391 0.60861 0.0
O91 O 0.61357 0.28968 0.55817 0.0
C92 C 0.72066 0.33092 0.59994 0.0
C93 C 0.64943 0.17835 0.52345 0.0
C94 C 0.61252 0.23647 0.65521 0.0
C95 C 0.57365 0.25898 0.44953 0.0
C96 C 0.6223 0.39042 0.51006 0.0
C97 C 0.50948 0.33439 0.60547 0.0
O98 O 0.72187 0.29406 0.57366 0.0
O99 O 0.60344 0.18491 0.52813 0.0
O100 O 0.63589 0.2766 0.65378 0.0
O101 O 0.62002 0.26052 0.45492 0.0
O102 O 0.5982 0.38878 0.54993 0.0
O103 O 0.50747 0.30644 0.56991 0.0
O104 O 0.65472 0.35895 0.49762 0.0
O105 O 0.54485 0.26783 0.48352 0.0
O106 O 0.54428 0.32949 0.63396 0.0
O107 O 0.67905 0.21076 0.53398 0.0
O108 O 0.68727 0.36037 0.59209 0.0
O109 O 0.57531 0.22807 0.62868 0.0
Sc110 Sc 0.92671 0.4213 0.74992 0.0
Sc111 Sc 0.99411 0.31813 0.78119 0.0
Sc112 Sc 0.90562 0.3595 0.85428 0.0
O113 O 0.9442 0.36808 0.79464 0.0
C114 C 0.90204 0.46876 0.84657 0.0
C115 C 0.04099 0.41566 0.7423 0.0
C116 C 0.01185 0.35496 0.88778 0.0
C117 C 0.94965 0.33538 0.67828 0.0
C118 C 0.8325 0.36622 0.77009 0.0
C119 C 0.91713 0.25818 0.83175 0.0
O120 O 0.92927 0.47117 0.80996 0.0
O121 O 0.04674 0.37365 0.76116 0.0
O122 O 0.97161 0.37845 0.8928 0.0
O123 O 0.92743 0.37517 0.68646 0.0
O124 O 0.84713 0.33957 0.80504 0.0
O125 O 0.93932 0.26155 0.79223 0.0
O126 O 0.85097 0.40718 0.76167 0.0
O127 O 0.97479 0.31296 0.70914 0.0
O128 O 0.92928 0.28715 0.8636 0.0
O129 O 1.00025 0.4364 0.73615 0.0
O130 O 0.87776 0.43166 0.85546 0.0
O131 O 0.01817 0.32275 0.85548 0.0
Sc132 Sc 0.95049 0.74173 0.06821 0.0
Sc133 Sc 0.84165 0.71451 0.01107 0.0
Sc134 Sc 0.88429 0.64395 0.10148 0.0
O135 O 0.89335 0.70032 0.0577 0.0
C136 C 0.99086 0.64066 0.09307 0.0
C137 C 0.94031 0.7482 0.95702 0.0
C138 C 0.87716 0.60429 -0.0008 0.0
C139 C 0.86344 0.81871 0.04703 0.0
C140 C 0.89509 0.73491 0.16181 0.0
C141 C 0.77986 0.66384 0.08935 0.0
O142 O 0.99627 0.67626 0.06492 0.0
O143 O 0.89547 0.7357 0.95557 0.0
O144 O 0.90001 0.59993 0.03936 0.0
O145 O 0.90628 0.80934 0.06345 0.0
O146 O 0.86592 0.70006 0.15431 0.0
O147 O 0.7851 0.70334 0.06711 0.0
O148 O 0.93746 0.73355 0.14387 0.0
O149 O 0.83584 0.78713 0.03001 0.0
O150 O 0.81105 0.6316 0.0829 0.0
O151 O 0.96499 0.74987 0.9951 0.0
O152 O 0.95806 0.64331 0.12437 0.0
O153 O 0.8481 0.63951 0.98922 0.0
Sc154 Sc 0.51267 0.67917 0.28749 0.0
Sc155 Sc 0.56506 0.56834 0.25627 0.0
Sc156 Sc 0.60587 0.63205 0.35191 0.0
O157 O 0.55897 0.62525 0.2982 0.0
C158 C 0.59823 0.73361 0.32976 0.0
C159 C 0.54193 0.65423 0.18184 0.0
C160 C 0.66461 0.61927 0.258 0.0
C161 C 0.45221 0.58492 0.25925 0.0
C162 C 0.50421 0.64343 0.39647 0.0
C163 C 0.60069 0.52411 0.35224 0.0
O164 O 0.57206 0.7315 0.2927 0.0
O165 O 0.55677 0.61108 0.19006 0.0
O166 O 0.65786 0.64721 0.29413 0.0
O167 O 0.45355 0.6294 0.27139 0.0
O168 O 0.54379 0.61819 0.39808 0.0
O169 O 0.56797 0.52183 0.32024 0.0
O170 O 0.49522 0.67517 0.36383 0.0
O171 O 0.48935 0.55787 0.25529 0.0
O172 O 0.62982 0.5586 0.35171 0.0
O173 O 0.52705 0.68258 0.21407 0.0
O174 O 0.58791 0.70538 0.36299 0.0
O175 O 0.64273 0.5791 0.25479 0.0
Sc176 Sc 0.2583 0.44925 0.05379 0.0
Sc177 Sc 0.20177 0.47872 0.1578 0.0
Sc178 Sc 0.17191 0.37755 0.09351 0.0
O179 O 0.21288 0.43366 0.10422 0.0
C180 C 0.18974 0.38907 0.99167 0.0
C181 C 0.22607 0.54785 0.07011 0.0
C182 C 0.10546 0.47044 0.0944 0.0
C183 C 0.31006 0.48183 0.15393 0.0
C184 C 0.28138 0.34604 0.1005 0.0
C185 C 0.1576 0.38486 0.199 0.0
O186 O 0.20868 0.42967 0.99577 0.0
O187 O 0.22499 0.54296 0.11571 0.0
O188 O 0.11674 0.43156 0.07099 0.0
O189 O 0.30861 0.48084 0.10771 0.0
O190 O 0.23825 0.33952 0.11804 0.0
O191 O 0.18662 0.4189 0.20676 0.0
O192 O 0.29089 0.37861 0.06869 0.0
O193 O 0.2743 0.47014 0.17969 0.0
O194 O 0.13618 0.38252 0.15973 0.0
O195 O 0.21729 0.51247 0.04431 0.0
O196 O 0.19837 0.35955 0.02437 0.0
O197 O 0.12847 0.48571 0.1313 0.0
Sc198 Sc 0.72716 0.00364 0.83895 0.0
Sc199 Sc 0.75653 0.08114 0.93242 0.0
Sc200 Sc 0.65141 0.09547 0.86818 0.0
O201 O 0.712 0.0576 0.88175 0.0
C202 C 0.6699 0.06987 0.76837 0.0
C203 C 0.82746 0.05572 0.8453 0.0
C204 C 0.73477 0.16694 0.86732 0.0
C205 C 0.77298 0.96841 0.94012 0.0
C206 C 0.61863 0.99083 0.87779 0.0
C207 C 0.65488 0.10117 0.97358 0.0
O208 O 0.71127 0.05091 0.77591 0.0
O209 O 0.8194 0.08074 0.88322 0.0
O210 O 0.70135 0.14994 0.8405 0.0
O211 O 0.75237 0.9582 0.89998 0.0
O212 O 0.61253 0.0338 0.89393 0.0
O213 O 0.69388 0.07722 0.98143 0.0
O214 O 0.65377 0.97852 0.8501 0.0
O215 O 0.7775 0.01092 0.95557 0.0
O216 O 0.65279 0.12808 0.93714 0.0
O217 O 0.79801 0.02583 0.82843 0.0
O218 O 0.63855 0.06476 0.80005 0.0
O219 O 0.73859 0.15384 0.91097 0.0
Sc220 Sc 0.86203 0.89619 0.35317 0.0
Sc221 Sc 0.75315 0.91221 0.41037 0.0
Sc222 Sc 0.7874 0.98625 0.31527 0.0
O223 O 0.80046 0.93382 0.36135 0.0
C224 C 0.89295 0.0015 0.35851 0.0
C225 C 0.85213 0.89525 0.46017 0.0
C226 C 0.73663 0.02565 0.41051 0.0
C227 C 0.78079 0.82267 0.35353 0.0
C228 C 0.84497 0.91603 0.25101 0.0
C229 C 0.68637 0.93458 0.31948 0.0
O230 O 0.89843 0.95948 0.3772 0.0
O231 O 0.81198 0.91846 0.46348 0.0
O232 O 0.76213 0.03419 0.3729 0.0
O233 O 0.81499 0.83892 0.32728 0.0
O234 O 0.80391 0.93619 0.25593 0.0
O235 O 0.69362 0.9092 0.35753 0.0
O236 O 0.87588 0.92282 0.28301 0.0
O237 O 0.77379 0.83874 0.39561 0.0
O238 O 0.71616 0.96497 0.30387 0.0
O239 O 0.85949 0.86806 0.42461 0.0
O240 O 0.86078 0.01144 0.32659 0.0
O241 O 0.72961 0.98359 0.42681 0.0
Sc242 Sc 0.34806 0.60931 0.6262 0.0
Sc243 Sc 0.2491 0.56883 0.56693 0.0
Sc244 Sc 0.28432 0.51797 0.67306 0.0
O245 O 0.29402 0.56423 0.62085 0.0
C246 C 0.39083 0.50557 0.62608 0.0
C247 C 0.33864 0.61797 0.51997 0.0
C248 C 0.25377 0.46198 0.57554 0.0
C249 C 0.24812 0.66587 0.62714 0.0
C250 C 0.34142 0.59412 0.72751 0.0
C251 C 0.17993 0.53887 0.65565 0.0
O252 O 0.39251 0.54704 0.6045 0.0
O253 O 0.30817 0.58457 0.51673 0.0
O254 O 0.25572 0.46352 0.6217 0.0
O255 O 0.28912 0.65912 0.6493 0.0
O256 O 0.30168 0.57231 0.72814 0.0
O257 O 0.18678 0.54328 0.61033 0.0
O258 O 0.36917 0.58363 0.69422 0.0
O259 O 0.23542 0.64223 0.58965 0.0
O260 O 0.21386 0.54489 0.68514 0.0
O261 O 0.34023 0.64235 0.55755 0.0
O262 O 0.35837 0.49411 0.65729 0.0
O263 O 0.26578 0.49735 0.54981 0.0
C264 C 0.19385 0.3986 0.47255 0.0
C265 C 0.16083 0.3688 0.49574 0.0
H266 H 0.25107 0.44838 0.47923 0.0
C267 C 0.16134 0.3664 0.54629 0.0
H268 H 0.19617 0.3991 0.43372 0.0
C269 C 0.19336 0.39456 0.57305 0.0
C270 C 0.2261 0.42482 0.54958 0.0
H271 H 0.13911 0.34098 0.56523 0.0
H272 H 0.19215 0.39294 0.61187 0.0
C273 C 0.2262 0.42584 0.49892 0.0
C274 C 0.91077 0.02616 0.84767 0.0
C275 C 0.87495 0.05167 0.8223 0.0
H276 H 0.96814 0.97382 0.84407 0.0
C277 C 0.87509 0.0497 0.77159 0.0
H278 H 0.91092 0.02603 0.88656 0.0
C279 C 0.9059 0.01758 0.74733 0.0
C280 C 0.93797 0.98824 0.77345 0.0
H281 H 0.84723 0.06865 0.75124 0.0
H282 H 0.90401 0.015 0.7086 0.0
C283 C 0.94194 0.9947 0.82342 0.0
C284 C 0.28897 0.61015 0.96898 0.0
C285 C 0.32485 0.63593 0.99266 0.0
H286 H 0.227 0.56615 0.97497 0.0
C287 C 0.32432 0.63747 0.04324 0.0
H288 H 0.28646 0.61091 0.93015 0.0
C289 C 0.28989 0.61174 0.06956 0.0
C290 C 0.25478 0.58501 0.04555 0.0
H291 H 0.34846 0.66053 0.0626 0.0
H292 H 0.29108 0.61234 0.10838 0.0
C293 C 0.25403 0.58579 0.99491 0.0
C294 C 0.56255 0.98022 0.3037 0.0
C295 C 0.56667 -0.00088 0.25671 0.0
H296 H 0.59757 0.94136 0.36081 0.0
C297 C 0.60413 0.98244 0.22726 0.0
H298 H 0.53331 0.99175 0.32707 0.0
C299 C 0.63938 0.95102 0.24607 0.0
C300 C 0.63913 0.93822 0.29528 0.0
H301 H 0.6072 0.99506 0.19056 0.0
H302 H 0.67043 0.942 0.2239 0.0
C303 C 0.59857 0.95009 0.32289 0.0
C304 C 0.64793 0.09349 0.49085 0.0
C305 C 0.67 0.13835 0.4944 0.0
H306 H 0.6522 0.02241 0.46157 0.0
C307 C 0.71283 0.14657 0.46781 0.0
H308 H 0.61473 0.08628 0.51013 0.0
C309 C 0.73369 0.11074 0.43934 0.0
C310 C 0.71283 0.06536 0.43726 0.0
H311 H 0.73039 0.18118 0.46859 0.0
H312 H 0.76681 0.11821 0.42 0.0
C313 C 0.6695 0.05712 0.463 0.0
C314 C 0.09228 0.43773 0.67327 0.0
C315 C 0.08171 0.44233 0.7224 0.0
H316 H 0.12948 0.46685 0.61229 0.0
C317 C 0.09856 0.4824 0.74729 0.0
H318 H 0.07745 0.40833 0.65279 0.0
C319 C 0.12717 0.51632 0.72403 0.0
C320 C 0.13895 0.51131 0.6751 0.0
H321 H 0.08859 0.48806 0.78446 0.0
H322 H 0.14121 0.54601 0.74469 0.0
C323 C 0.12057 0.47202 0.64974 0.0
C324 C 0.84719 0.92269 0.96518 0.0
C325 C 0.797 0.93096 0.96987 0.0
H326 H 0.90958 0.88247 0.98965 0.0
C327 C 0.77292 0.91089 0.00926 0.0
H328 H 0.86712 0.93979 0.93644 0.0
C329 C 0.79755 0.87948 0.0407 0.0
C330 C 0.84696 0.86776 0.03371 0.0
H331 H 0.73481 0.91873 0.01514 0.0
H332 H 0.77697 0.86103 0.06812 0.0
C333 C 0.87195 0.89145 0.99681 0.0
C334 C 0.38985 0.52208 0.25571 0.0
C335 C 0.40871 0.5649 0.23729 0.0
H336 H 0.34447 0.46156 0.24313 0.0
C337 C 0.39741 0.57856 0.18993 0.0
H338 H 0.3999 0.50969 0.29133 0.0
C339 C 0.36849 0.54939 0.16112 0.0
C340 C 0.34895 0.50691 0.17978 0.0
H341 H 0.41324 0.61044 0.17435 0.0
H342 H 0.36075 0.5605 0.12465 0.0
C343 C 0.35955 0.49386 0.22757 0.0
C344 C 0.54593 0.15636 0.367 0.0
C345 C 0.49783 0.1671 0.35316 0.0
H346 H 0.60886 0.17838 0.40601 0.0
C347 C 0.4765 0.21041 0.36829 0.0
H348 H 0.56391 0.12404 0.35398 0.0
C349 C 0.5028 0.24227 0.39678 0.0
C350 C 0.55127 0.23188 0.40999 0.0
H351 H 0.44047 0.22067 0.35615 0.0
H352 H 0.48508 0.27501 0.40898 0.0
C353 C 0.57241 0.18837 0.39497 0.0
C354 C 0.03101 0.3213 0.57833 0.0
C355 C 0.03168 0.27086 0.57567 0.0
H356 H 0.99861 0.38365 0.61057 0.0
C357 C 0.99288 0.24533 0.59536 0.0
H358 H 0.0577 0.34236 0.55968 0.0
C359 C 0.95727 0.26924 0.62201 0.0
C360 C 0.96022 0.31904 0.62982 0.0
H361 H 0.99085 0.20668 0.59111 0.0
H362 H 0.93087 0.2481 0.64131 0.0
C363 C 0.99534 0.34527 0.60497 0.0
C364 C 0.04073 0.78947 0.87635 0.0
C365 C 0.02338 0.83509 0.86235 0.0
H366 H 0.02665 0.72467 0.91596 0.0
C367 C 0.97662 0.84958 0.87715 0.0
H368 H 0.07556 0.77637 0.86358 0.0
C369 C 0.94713 0.81852 0.90339 0.0
C370 C 0.96412 0.77266 0.91671 0.0
H371 H 0.9613 0.8836 0.86494 0.0
H372 H 0.91152 0.83095 0.91453 0.0
C373 C 0.01177 0.75897 0.90406 0.0
C374 C 0.53513 0.71961 0.12325 0.0
C375 C 0.52811 0.67068 0.13377 0.0
H376 H 0.50689 0.78322 0.08909 0.0
C377 C 0.49038 0.64648 0.11082 0.0
H378 H 0.56371 0.73924 0.14095 0.0
C379 C 0.45683 0.6721 0.08258 0.0
C380 C 0.46062 0.72218 0.0769 0.0
H381 H 0.48409 0.60881 0.11835 0.0
H382 H 0.42838 0.65256 0.06505 0.0
C383 C 0.50155 0.74514 0.09532 0.0
C384 C 0.10696 0.27147 0.25383 0.0
C385 C 0.127 0.27279 0.29964 0.0
H386 H 0.10054 0.30668 0.18616 0.0
C387 C 0.16 0.30911 0.31158 0.0
H388 H 0.08071 0.24442 0.24447 0.0
C389 C 0.17089 0.34541 0.2789 0.0
C390 C 0.14855 0.34604 0.23389 0.0
H391 H 0.17527 0.31086 0.34738 0.0
H392 H 0.19538 0.37363 0.28941 0.0
C393 C 0.11773 0.30783 0.22109 0.0
C394 C 0.92263 0.91842 0.57509 0.0
C395 C 0.96999 0.90367 0.5621 0.0
H396 H 0.84823 0.92775 0.55342 0.0
C397 C 0.97893 0.89071 0.51444 0.0
H398 H 0.91467 0.92826 0.61186 0.0
C399 C 0.94059 0.88926 0.48137 0.0
C400 C 0.89257 0.90122 0.49508 0.0
H401 H 0.0147 0.87847 0.50359 0.0
H402 H 0.94844 0.87738 0.44521 0.0
C403 C 0.88443 0.91772 0.54185 0.0
C404 C 0.39142 0.66701 0.74142 0.0
C405 C 0.34876 0.64118 0.75129 0.0
H406 H 0.43596 0.72686 0.75947 0.0
C407 C 0.31426 0.66164 0.78222 0.0
H408 H 0.41877 0.65276 0.71732 0.0
C409 C 0.3241 0.70509 0.80543 0.0
C410 C 0.36807 0.72908 0.79774 0.0
H411 H 0.28095 0.64307 0.79025 0.0
H412 H 0.29976 0.71731 0.83329 0.0
C413 C 0.40095 0.71034 0.76444 0.0
C414 C 0.56459 0.05809 0.06745 0.0
C415 C 0.52244 0.08452 0.05472 0.0
H416 H 0.63979 0.04308 0.05278 0.0
C417 C 0.52286 0.11177 0.01242 0.0
H418 H 0.56571 0.03792 0.10082 0.0
C419 C 0.5656 0.11584 0.98571 0.0
C420 C 0.60911 0.09286 0.00073 0.0
H421 H 0.49164 0.13376 0.00258 0.0
H422 H 0.56495 0.13906 0.95441 0.0
C423 C 0.60746 0.06208 0.04071 0.0
C424 C 0.67843 0.18791 0.69863 0.0
C425 C 0.62942 0.19513 0.68557 0.0
H426 H 0.73093 0.14092 0.73311 0.0
C427 C 0.59655 0.15816 0.69558 0.0
H428 H 0.70502 0.21501 0.69033 0.0
C429 C 0.61153 0.11593 0.7185 0.0
C430 C 0.65991 0.10883 0.7328 0.0
H431 H 0.55867 0.16177 0.68573 0.0
H432 H 0.58446 0.08923 0.72678 0.0
C433 C 0.69356 0.14499 0.72198 0.0
C434 C 0.11309 0.42053 0.95189 0.0
C435 C 0.14523 0.38211 0.96267 0.0
H436 H 0.04428 0.44196 0.92132 0.0
C437 C 0.13121 0.33512 0.95152 0.0
H438 H 0.12235 0.45709 0.96114 0.0
C439 C 0.08676 0.32656 0.92946 0.0
C440 C 0.05451 0.36465 0.91853 0.0
H441 H 0.15475 0.30473 0.96005 0.0
H442 H 0.07777 0.28987 0.92041 0.0
C443 C 0.06792 0.41181 0.93026 0.0
C444 C 0.81771 0.83886 0.21173 0.0
C445 C 0.85351 0.87357 0.21996 0.0
H446 H 0.80269 0.7666 0.18873 0.0
C447 C 0.90163 0.86232 0.20796 0.0
H448 H 0.78037 0.84635 0.22111 0.0
C449 C 0.91438 0.81712 0.19057 0.0
C450 C 0.8794 0.78129 0.18402 0.0
H451 H 0.93015 0.88803 0.21414 0.0
H452 H 0.95228 0.8103 0.18266 0.0
C453 C 0.83062 0.79293 0.19408 0.0
C454 C 0.39706 0.66971 0.47649 0.0
C455 C 0.37887 0.62359 0.48538 0.0
H456 H 0.45134 0.71188 0.44197 0.0
C457 C 0.40443 0.58335 0.46747 0.0
H458 H 0.37867 0.70127 0.49064 0.0
C459 C 0.4474 0.58936 0.44112 0.0
C460 C 0.46495 0.63572 0.43168 0.0
H461 H 0.39195 0.54731 0.47497 0.0
H462 H 0.46599 0.55798 0.42685 0.0
C463 C 0.43911 0.67572 0.4494 0.0
C464 C 0.27504 0.22634 0.32838 0.0
C465 C 0.2801 0.20136 0.37246 0.0
H466 H 0.29014 0.22704 0.25248 0.0
C467 C 0.31301 0.16287 0.37496 0.0
H468 H 0.24883 0.25548 0.32515 0.0
C469 C 0.33516 0.14567 0.33331 0.0
C470 C 0.32609 0.1672 0.28803 0.0
H471 H 0.31661 0.14202 0.40776 0.0
H472 H 0.35659 0.11293 0.33634 0.0
C473 C 0.29798 0.20955 0.28644 0.0
C474 C 0.14859 0.09977 0.5973 0.0
C475 C 0.16112 0.08618 0.55007 0.0
H476 H 0.12794 0.07672 0.66788 0.0
C477 C 0.16479 0.03719 0.53905 0.0
H478 H 0.14473 0.13733 0.60696 0.0
C479 C 0.15578 0.0026 0.57434 0.0
C480 C 0.14186 0.01625 0.62112 0.0
H481 H 0.17397 0.0256 0.50309 0.0
H482 H 0.15826 0.96499 0.56447 0.0
C483 C 0.13855 0.06518 0.63229 0.0
C484 C 0.17283 0.87193 0.83031 0.0
C485 C 0.17528 0.8417 0.78965 0.0
H486 H 0.19109 0.88256 0.90388 0.0
C487 C 0.18996 0.79365 0.79671 0.0
H488 H 0.16096 0.90911 0.82723 0.0
C489 C 0.20712 0.77839 0.8421 0.0
C490 C 0.2102 0.81091 0.88079 0.0
H491 H 0.19153 0.76904 0.76679 0.0
H492 H 0.2228 0.74272 0.84552 0.0
C493 C 0.18876 0.85637 0.87528 0.0
C494 C 0.3669 0.93437 0.13605 0.0
C495 C 0.35976 0.98351 0.12697 0.0
H496 H 0.3641 0.86297 0.10827 0.0
C497 C 0.3435 0.99817 0.08101 0.0
H498 H 0.37965 0.92197 0.1708 0.0
C499 C 0.33537 0.96454 0.04473 0.0
C500 C 0.34219 0.91537 0.05392 0.0
H501 H 0.33818 0.03595 0.07256 0.0
H502 H 0.32376 0.97699 0.00961 0.0
C503 C 0.35771 0.90067 0.10013 0.0
C504 C 0.7622 0.38314 0.71799 0.0
C505 C 0.79677 0.34968 0.73443 0.0
H506 H 0.71277 0.40401 0.66318 0.0
C507 C 0.8051 0.30752 0.70751 0.0
H508 H 0.75574 0.41632 0.7374 0.0
C509 C 0.78061 0.30038 0.66362 0.0
C510 C 0.74775 0.3355 0.64609 0.0
H511 H 0.83273 0.28177 0.71873 0.0
H512 H 0.78829 0.26827 0.64297 0.0
C513 C 0.73819 0.37625 0.67471 0.0
C514 C 0.85249 0.52833 0.89053 0.0
C515 C 0.89823 0.50814 0.88114 0.0
H516 H 0.81005 0.57422 0.9357 0.0
C517 C 0.93721 0.51823 0.91181 0.0
H518 H 0.82169 0.51975 0.86811 0.0
C519 C 0.93025 0.54804 0.95176 0.0
C520 C 0.88435 0.5685 0.96092 0.0
H521 H 0.97243 0.5016 0.90593 0.0
H522 H 0.96074 0.55565 0.97495 0.0
C523 C 0.84576 0.55873 0.92961 0.0
C524 C 0.72856 0.6927 0.1602 0.0
C525 C 0.74511 0.6558 0.12955 0.0
H526 H 0.69143 0.7104 0.22618 0.0
C527 C 0.73542 0.60792 0.14245 0.0
H528 H 0.73546 0.72993 0.15142 0.0
C529 C 0.71144 0.59681 0.18492 0.0
C530 C 0.69576 0.6331 0.21645 0.0
H531 H 0.74758 0.5784 0.12 0.0
H532 H 0.7051 0.55925 0.19296 0.0
C533 C 0.70425 0.68143 0.20346 0.0
C534 C 0.56844 0.4361 0.45247 0.0
C535 C 0.6138 0.42952 0.47488 0.0
H536 H 0.52867 0.47026 0.39471 0.0
C537 C 0.65407 0.45343 0.45621 0.0
H538 H 0.5371 0.41693 0.46544 0.0
C539 C 0.64948 0.48315 0.416 0.0
C540 C 0.60461 0.48914 0.39257 0.0
H541 H 0.68962 0.4481 0.47214 0.0
H542 H 0.68149 0.50106 0.4028 0.0
C543 C 0.56391 0.46557 0.41139 0.0
C544 C 0.3264 0.29731 0.1646 0.0
C545 C 0.32391 0.31677 0.11785 0.0
H546 H 0.36807 0.2549 0.2153 0.0
C547 C 0.36504 0.31196 0.08829 0.0
H548 H 0.29609 0.30162 0.18893 0.0
C549 C 0.40589 0.28571 0.10345 0.0
C550 C 0.40759 0.26393 0.14899 0.0
H551 H 0.36509 0.32701 0.05237 0.0
H552 H 0.43503 0.27951 0.07807 0.0
C553 C 0.36809 0.27158 0.18016 0.0
C554 C 0.85035 0.20202 0.80349 0.0
C555 C 0.8678 0.23689 0.83543 0.0
H556 H 0.79344 0.15196 0.7884 0.0
C557 C 0.83678 0.25313 0.87232 0.0
H558 H 0.8731 0.18882 0.77465 0.0
C559 C 0.79088 0.23399 0.87852 0.0
C560 C 0.7744 0.1972 0.84879 0.0
H561 H 0.84814 0.28046 0.89736 0.0
H562 H 0.76931 0.24591 0.90882 0.0
C563 C 0.80415 0.18188 0.81051 0.0
C564 C 0.07969 0.54338 0.04953 0.0
C565 C 0.06671 0.50392 0.07851 0.0
H566 H 0.06672 0.6179 0.03165 0.0
C567 C 0.02573 0.50853 0.10787 0.0
H568 H 0.11221 0.54143 0.02782 0.0
C569 C 1.00069 0.55249 0.11121 0.0
C570 C 0.01599 0.59332 0.08538 0.0
H571 H 0.01583 0.47944 0.13179 0.0
H572 H 0.97052 0.55491 0.13596 0.0
C573 C 0.05444 0.58761 0.05273 0.0
C574 C 0.72949 0.75207 0.36363 0.0
C575 C 0.7427 0.79111 0.33491 0.0
H576 H 0.67404 0.70433 0.38505 0.0
C577 C 0.70967 0.80839 0.30004 0.0
H578 H 0.75375 0.73874 0.39143 0.0
C579 C 0.66291 0.78895 0.2965 0.0
C580 C 0.64852 0.75244 0.32828 0.0
H581 H 0.71823 0.83974 0.27871 0.0
H582 H 0.63732 0.80429 0.271 0.0
C583 C 0.68315 0.73319 0.36058 0.0
C584 C 0.47842 0.40463 0.65238 0.0
C585 C 0.47888 0.37879 0.60908 0.0
H586 H 0.45141 0.46584 0.69084 0.0
C587 C 0.45414 0.39857 0.56918 0.0
H588 H 0.49738 0.39089 0.68373 0.0
C589 C 0.42866 0.44266 0.5731 0.0
C590 C 0.42753 0.46754 0.61694 0.0
H591 H 0.4545 0.38007 0.53506 0.0
H592 H 0.40804 0.45611 0.54265 0.0
C593 C 0.45285 0.4481 0.6563 0.0
C594 C 0.19291 0.73397 0.60964 0.0
C595 C 0.21114 0.70146 0.64375 0.0
H596 H 0.13594 0.78088 0.58771 0.0
C597 C 0.18395 0.69404 0.68607 0.0
H598 H 0.21198 0.73941 0.57609 0.0
C599 C 0.13885 0.71815 0.69321 0.0
C600 C 0.11989 0.74942 0.65767 0.0
H601 H 0.1962 0.66768 0.7123 0.0
H602 H 0.11856 0.71158 0.72575 0.0
C603 C 0.14834 0.75711 0.61621 0.0
C604 C 0.55432 0.87107 0.88133 0.0
C605 C 0.5146 0.88216 0.91055 0.0
H606 H 0.61817 0.89713 0.84739 0.0
C607 C 0.51121 0.92797 0.93185 0.0
H608 H 0.55763 0.83617 0.86441 0.0
C609 C 0.5453 0.96306 0.92192 0.0
C610 C 0.58362 0.9531 0.89045 0.0
H611 H 0.48112 0.93727 0.95515 0.0
H612 H 0.54098 -0.00179 0.93814 0.0
C613 C 0.58855 0.90632 0.87126 0.0
C614 C 0.95578 0.03408 0.41343 0.0
C615 C 0.92406 0.04106 0.37466 0.0
H616 H 0.01074 0.06424 0.45739 0.0
C617 C 0.92071 0.08693 0.35287 0.0
H618 H 0.95843 -0.00029 0.43181 0.0
C619 C 0.95046 0.12428 0.36795 0.0
C620 C 0.98396 0.1162 0.40494 0.0
H621 H 0.89594 0.09377 0.32337 0.0
H622 H 0.94913 0.15839 0.34902 0.0
C623 C 0.9853 0.07127 0.42844 0.0
loop_
_geom_bond_atom_site_label_1
_geom_bond_atom_site_label_2
_geom_bond_distance
_geom_bond_site_symmetry_2
_ccdc_geom_bond_type
Sc0 O3 2.025 . S
Sc0 O10 2.105 . S
Sc0 O13 2.105 . S
Sc0 O16 2.105 . S
Sc0 O19 2.105 . S
Sc1 O3 2.025 . S
Sc1 O11 2.105 . S
Sc1 O15 2.105 . S
Sc1 O17 2.105 . S
Sc1 O21 2.105 . S
Sc2 O3 2.025 . S
Sc2 O12 2.105 . S
Sc2 O14 2.105 . S
Sc2 O18 2.105 . S
Sc2 O20 2.105 . S
O3 Sc0 2.025 . S
O3 Sc1 2.025 . S
O3 Sc2 2.025 . S
C4 O10 1.268 . S
C4 O20 1.268 . S
C5 O11 1.268 . S
C5 O19 1.268 . S
C6 O12 1.268 . S
C6 O21 1.268 . S
C7 O13 1.268 . S
C7 O17 1.268 . S
C8 O14 1.268 . S
C8 O16 1.268 . S
C9 O15 1.268 . S
C9 O18 1.268 . S
O10 Sc0 2.105 . S
O10 C4 1.268 . S
O11 Sc1 2.105 . S
O11 C5 1.268 . S
O12 Sc2 2.105 . S
O12 C6 1.268 . S
O13 Sc0 2.105 . S
O13 C7 1.268 . S
O14 Sc2 2.105 . S
O14 C8 1.268 . S
O15 Sc1 2.105 . S
O15 C9 1.268 . S
O16 Sc0 2.105 . S
O16 C8 1.268 . S
O17 Sc1 2.105 . S
O17 C7 1.268 . S
O18 Sc2 2.105 . S
O18 C9 1.268 . S
O19 Sc0 2.105 . S
O19 C5 1.268 . S
O20 Sc2 2.105 . S
O20 C4 1.268 . S
O21 Sc1 2.105 . S
O21 C6 1.268 . S
Sc22 O25 2.025 . S
Sc22 O32 2.105 . S
Sc22 O35 2.105 . S
Sc22 O38 2.105 . S
Sc22 O41 2.105 . S
Sc23 O25 2.025 1_655 S
Sc23 O33 2.105 1_655 S
Sc23 O37 2.105 . S
Sc23 O39 2.105 . S
Sc23 O43 2.105 . S
Sc24 O25 2.025 . S
Sc24 O34 2.105 . S
Sc24 O36 2.105 . S
Sc24 O40 2.105 1_455 S
Sc24 O42 2.105 . S
O25 Sc22 2.025 . S
O25 Sc23 2.025 1_455 S
O25 Sc24 2.025 . S
C26 O32 1.268 . S
C26 O42 1.268 . S
C27 O33 1.268 . S
C27 O41 1.268 . S
C28 O34 1.268 . S
C28 O43 1.268 1_455 S
C29 O35 1.268 . S
C29 O39 1.268 1_455 S
C30 O36 1.268 . S
C30 O38 1.268 . S
C31 O37 1.268 . S
C31 O40 1.268 . S
O32 Sc22 2.105 . S
O32 C26 1.268 . S
O33 Sc23 2.105 1_455 S
O33 C27 1.268 . S
O34 Sc24 2.105 . S
O34 C28 1.268 . S
O35 Sc22 2.105 . S
O35 C29 1.268 . S
O36 Sc24 2.105 . S
O36 C30 1.268 . S
O37 Sc23 2.105 . S
O37 C31 1.268 . S
O38 Sc22 2.105 . S
O38 C30 1.268 . S
O39 Sc23 2.105 . S
O39 C29 1.268 1_655 S
O40 Sc24 2.105 1_655 S
O40 C31 1.268 . S
O41 Sc22 2.105 . S
O41 C27 1.268 . S
O42 Sc24 2.105 . S
O42 C26 1.268 . S
O43 Sc23 2.105 . S
O43 C28 1.268 1_655 S
Sc44 O47 2.025 . S
Sc44 O54 2.105 . S
Sc44 O57 2.105 . S
Sc44 O60 2.105 . S
Sc44 O63 2.105 1_556 S
Sc45 O47 2.025 1_554 S
Sc45 O55 2.105 . S
Sc45 O59 2.105 1_554 S
Sc45 O61 2.105 . S
Sc45 O65 2.105 . S
Sc46 O47 2.025 . S
Sc46 O56 2.105 . S
Sc46 O58 2.105 . S
Sc46 O62 2.105 . S
Sc46 O64 2.105 . S
O47 Sc44 2.025 . S
O47 Sc45 2.025 1_556 S
O47 Sc46 2.025 . S
C48 O54 1.268 . S
C48 O64 1.268 . S
C49 O55 1.268 . S
C49 O63 1.268 . S
C50 O56 1.268 . S
C50 O65 1.268 1_556 S
C51 O57 1.268 . S
C51 O61 1.268 1_556 S
C52 O58 1.268 . S
C52 O60 1.268 . S
C53 O59 1.268 . S
C53 O62 1.268 . S
O54 Sc44 2.105 . S
O54 C48 1.268 . S
O55 Sc45 2.105 . S
O55 C49 1.268 . S
O56 Sc46 2.105 . S
O56 C50 1.268 . S
O57 Sc44 2.105 . S
O57 C51 1.268 . S
O58 Sc46 2.105 . S
O58 C52 1.268 . S
O59 Sc45 2.105 1_556 S
O59 C53 1.268 . S
O60 Sc44 2.105 . S
O60 C52 1.268 . S
O61 Sc45 2.105 . S
O61 C51 1.268 1_554 S
O62 Sc46 2.105 . S
O62 C53 1.268 . S
O63 Sc44 2.105 1_554 S
O63 C49 1.268 . S
O64 Sc46 2.105 . S
O64 C48 1.268 . S
O65 Sc45 2.105 . S
O65 C50 1.268 1_554 S
Sc66 O69 2.025 . S
Sc66 O76 2.105 . S
Sc66 O79 2.105 . S
Sc66 O82 2.105 . S
Sc66 O85 2.105 . S
Sc67 O69 2.025 . S
Sc67 O77 2.105 . S
Sc67 O81 2.105 . S
Sc67 O83 2.105 . S
Sc67 O87 2.105 . S
Sc68 O69 2.025 . S
Sc68 O78 2.105 . S
Sc68 O80 2.105 . S
Sc68 O84 2.105 . S
Sc68 O86 2.105 . S
O69 Sc66 2.025 . S
O69 Sc67 2.025 . S
O69 Sc68 2.025 . S
C70 O76 1.268 . S
C70 O86 1.268 . S
C71 O77 1.268 . S
C71 O85 1.268 . S
C72 O78 1.268 . S
C72 O87 1.268 . S
C73 O79 1.268 . S
C73 O83 1.268 . S
C74 O80 1.268 . S
C74 O82 1.268 . S
C75 O81 1.268 . S
C75 O84 1.268 . S
O76 Sc66 2.105 . S
O76 C70 1.268 . S
O77 Sc67 2.105 . S
O77 C71 1.268 . S
O78 Sc68 2.105 . S
O78 C72 1.268 . S
O79 Sc66 2.105 . S
O79 C73 1.268 . S
O80 Sc68 2.105 . S
O80 C74 1.268 . S
O81 Sc67 2.105 . S
O81 C75 1.268 . S
O82 Sc66 2.105 . S
O82 C74 1.268 . S
O83 Sc67 2.105 . S
O83 C73 1.268 . S
O84 Sc68 2.105 . S
O84 C75 1.268 . S
O85 Sc66 2.105 . S
O85 C71 1.268 . S
O86 Sc68 2.105 . S
O86 C70 1.268 . S
O87 Sc67 2.105 . S
O87 C72 1.268 . S
Sc88 O91 2.025 . S
Sc88 O98 2.105 . S
Sc88 O101 2.105 . S
Sc88 O104 2.105 . S
Sc88 O107 2.105 . S
Sc89 O91 2.025 . S
Sc89 O99 2.105 . S
Sc89 O103 2.105 . S
Sc89 O105 2.105 . S
Sc89 O109 2.105 . S
Sc90 O91 2.025 . S
Sc90 O100 2.105 . S
Sc90 O102 2.105 . S
Sc90 O106 2.105 . S
Sc90 O108 2.105 . S
O91 Sc88 2.025 . S
O91 Sc89 2.025 . S
O91 Sc90 2.025 . S
C92 O98 1.268 . S
C92 O108 1.268 . S
C93 O99 1.268 . S
C93 O107 1.268 . S
C94 O100 1.268 . S
C94 O109 1.268 . S
C95 O101 1.268 . S
C95 O105 1.268 . S
C96 O102 1.268 . S
C96 O104 1.268 . S
C97 O103 1.268 . S
C97 O106 1.268 . S
O98 Sc88 2.105 . S
O98 C92 1.268 . S
O99 Sc89 2.105 . S
O99 C93 1.268 . S
O100 Sc90 2.105 . S
O100 C94 1.268 . S
O101 Sc88 2.105 . S
O101 C95 1.268 . S
O102 Sc90 2.105 . S
O102 C96 1.268 . S
O103 Sc89 2.105 . S
O103 C97 1.268 . S
O104 Sc88 2.105 . S
O104 C96 1.268 . S
O105 Sc89 2.105 . S
O105 C95 1.268 . S
O106 Sc90 2.105 . S
O106 C97 1.268 . S
O107 Sc88 2.105 . S
O107 C93 1.268 . S
O108 Sc90 2.105 . S
O108 C92 1.268 . S
O109 Sc89 2.105 . S
O109 C94 1.268 . S
Sc110 O113 2.025 . S
Sc110 O120 2.105 . S
Sc110 O123 2.105 . S
Sc110 O126 2.105 . S
Sc110 O129 2.105 1_655 S
Sc111 O113 2.025 1_455 S
Sc111 O121 2.105 . S
Sc111 O125 2.105 1_455 S
Sc111 O127 2.105 . S
Sc111 O131 2.105 . S
Sc112 O113 2.025 . S
Sc112 O122 2.105 . S
Sc112 O124 2.105 . S
Sc112 O128 2.105 . S
Sc112 O130 2.105 . S
O113 Sc110 2.025 . S
O113 Sc111 2.025 1_655 S
O113 Sc112 2.025 . S
C114 O120 1.268 . S
C114 O130 1.268 . S
C115 O121 1.268 . S
C115 O129 1.268 . S
C116 O122 1.268 . S
C116 O131 1.268 1_655 S
C117 O123 1.268 . S
C117 O127 1.268 1_655 S
C118 O124 1.268 . S
C118 O126 1.268 . S
C119 O125 1.268 . S
C119 O128 1.268 . S
O120 Sc110 2.105 . S
O120 C114 1.268 . S
O121 Sc111 2.105 . S
O121 C115 1.268 . S
O122 Sc112 2.105 . S
O122 C116 1.268 . S
O123 Sc110 2.105 . S
O123 C117 1.268 . S
O124 Sc112 2.105 . S
O124 C118 1.268 . S
O125 Sc111 2.105 1_655 S
O125 C119 1.268 . S
O126 Sc110 2.105 . S
O126 C118 1.268 . S
O127 Sc111 2.105 . S
O127 C117 1.268 1_455 S
O128 Sc112 2.105 . S
O128 C119 1.268 . S
O129 Sc110 2.105 1_455 S
O129 C115 1.268 . S
O130 Sc112 2.105 . S
O130 C114 1.268 . S
O131 Sc111 2.105 . S
O131 C116 1.268 1_455 S
Sc132 O135 2.025 . S
Sc132 O142 2.105 . S
Sc132 O145 2.105 . S
Sc132 O148 2.105 . S
Sc132 O151 2.105 1_554 S
Sc133 O135 2.025 1_556 S
Sc133 O143 2.105 . S
Sc133 O147 2.105 1_556 S
Sc133 O149 2.105 . S
Sc133 O153 2.105 . S
Sc134 O135 2.025 . S
Sc134 O144 2.105 . S
Sc134 O146 2.105 . S
Sc134 O150 2.105 . S
Sc134 O152 2.105 . S
O135 Sc132 2.025 . S
O135 Sc133 2.025 1_554 S
O135 Sc134 2.025 . S
C136 O142 1.268 . S
C136 O152 1.268 . S
C137 O143 1.268 . S
C137 O151 1.268 . S
C138 O144 1.268 . S
C138 O153 1.268 1_554 S
C139 O145 1.268 . S
C139 O149 1.268 1_554 S
C140 O146 1.268 . S
C140 O148 1.268 . S
C141 O147 1.268 . S
C141 O150 1.268 . S
O142 Sc132 2.105 . S
O142 C136 1.268 . S
O143 Sc133 2.105 . S
O143 C137 1.268 . S
O144 Sc134 2.105 . S
O144 C138 1.268 . S
O145 Sc132 2.105 . S
O145 C139 1.268 . S
O146 Sc134 2.105 . S
O146 C140 1.268 . S
O147 Sc133 2.105 1_554 S
O147 C141 1.268 . S
O148 Sc132 2.105 . S
O148 C140 1.268 . S
O149 Sc133 2.105 . S
O149 C139 1.268 1_556 S
O150 Sc134 2.105 . S
O150 C141 1.268 . S
O151 Sc132 2.105 1_556 S
O151 C137 1.268 . S
O152 Sc134 2.105 . S
O152 C136 1.268 . S
O153 Sc133 2.105 . S
O153 C138 1.268 1_556 S
Sc154 O157 2.025 . S
Sc154 O164 2.105 . S
Sc154 O167 2.105 . S
Sc154 O170 2.105 . S
Sc154 O173 2.105 . S
Sc155 O157 2.025 . S
Sc155 O165 2.105 . S
Sc155 O169 2.105 . S
Sc155 O171 2.105 . S
Sc155 O175 2.105 . S
Sc156 O157 2.025 . S
Sc156 O166 2.105 . S
Sc156 O168 2.105 . S
Sc156 O172 2.105 . S
Sc156 O174 2.105 . S
O157 Sc154 2.025 . S
O157 Sc155 2.025 . S
O157 Sc156 2.025 . S
C158 O164 1.268 . S
C158 O174 1.268 . S
C159 O165 1.268 . S
C159 O173 1.268 . S
C160 O166 1.268 . S
C160 O175 1.268 . S
C161 O167 1.268 . S
C161 O171 1.268 . S
C162 O168 1.268 . S
C162 O170 1.268 . S
C163 O169 1.268 . S
C163 O172 1.268 . S
O164 Sc154 2.105 . S
O164 C158 1.268 . S
O165 Sc155 2.105 . S
O165 C159 1.268 . S
O166 Sc156 2.105 . S
O166 C160 1.268 . S
O167 Sc154 2.105 . S
O167 C161 1.268 . S
O168 Sc156 2.105 . S
O168 C162 1.268 . S
O169 Sc155 2.105 . S
O169 C163 1.268 . S
O170 Sc154 2.105 . S
O170 C162 1.268 . S
O171 Sc155 2.105 . S
O171 C161 1.268 . S
O172 Sc156 2.105 . S
O172 C163 1.268 . S
O173 Sc154 2.105 . S
O173 C159 1.268 . S
O174 Sc156 2.105 . S
O174 C158 1.268 . S
O175 Sc155 2.105 . S
O175 C160 1.268 . S
Sc176 O179 2.025 . S
Sc176 O186 2.105 . S
Sc176 O189 2.105 . S
Sc176 O192 2.105 . S
Sc176 O195 2.105 . S
Sc177 O179 2.025 . S
Sc177 O187 2.105 . S
Sc177 O191 2.105 . S
Sc177 O193 2.105 . S
Sc177 O197 2.105 . S
Sc178 O179 2.025 . S
Sc178 O188 2.105 . S
Sc178 O190 2.105 . S
Sc178 O194 2.105 . S
Sc178 O196 2.105 . S
O179 Sc176 2.025 . S
O179 Sc177 2.025 . S
O179 Sc178 2.025 . S
C180 O186 1.268 . S
C180 O196 1.268 . S
C181 O187 1.268 . S
C181 O195 1.268 . S
C182 O188 1.268 . S
C182 O197 1.268 . S
C183 O189 1.268 . S
C183 O193 1.268 . S
C184 O190 1.268 . S
C184 O192 1.268 . S
C185 O191 1.268 . S
C185 O194 1.268 . S
O186 Sc176 2.105 . S
O186 C180 1.268 . S
O187 Sc177 2.105 . S
O187 C181 1.268 . S
O188 Sc178 2.105 . S
O188 C182 1.268 . S
O189 Sc176 2.105 . S
O189 C183 1.268 . S
O190 Sc178 2.105 . S
O190 C184 1.268 . S
O191 Sc177 2.105 . S
O191 C185 1.268 . S
O192 Sc176 2.105 . S
O192 C184 1.268 . S
O193 Sc177 2.105 . S
O193 C183 1.268 . S
O194 Sc178 2.105 . S
O194 C185 1.268 . S
O195 Sc176 2.105 . S
O195 C181 1.268 . S
O196 Sc178 2.105 . S
O196 C180 1.268 . S
O197 Sc177 2.105 . S
O197 C182 1.268 . S
Sc198 O201 2.025 1_565 S
Sc198 O208 2.105 1_565 S
Sc198 O211 2.105 . S
Sc198 O214 2.105 . S
Sc198 O217 2.105 . S
Sc199 O201 2.025 . S
Sc199 O209 2.105 . S
Sc199 O213 2.105 . S
Sc199 O215 2.105 1_545 S
Sc199 O219 2.105 . S
Sc200 O201 2.025 . S
Sc200 O210 2.105 . S
Sc200 O212 2.105 . S
Sc200 O216 2.105 . S
Sc200 O218 2.105 . S
O201 Sc198 2.025 1_545 S
O201 Sc199 2.025 . S
O201 Sc200 2.025 . S
C202 O208 1.268 . S
C202 O218 1.268 . S
C203 O209 1.268 . S
C203 O217 1.268 1_545 S
C204 O210 1.268 . S
C204 O219 1.268 . S
C205 O211 1.268 . S
C205 O215 1.268 . S
C206 O212 1.268 . S
C206 O214 1.268 1_545 S
C207 O213 1.268 . S
C207 O216 1.268 . S
O208 Sc198 2.105 1_545 S
O208 C202 1.268 . S
O209 Sc199 2.105 . S
O209 C203 1.268 . S
O210 Sc200 2.105 . S
O210 C204 1.268 . S
O211 Sc198 2.105 . S
O211 C205 1.268 . S
O212 Sc200 2.105 . S
O212 C206 1.268 . S
O213 Sc199 2.105 . S
O213 C207 1.268 . S
O214 Sc198 2.105 . S
O214 C206 1.268 1_565 S
O215 Sc199 2.105 1_565 S
O215 C205 1.268 . S
O216 Sc200 2.105 . S
O216 C207 1.268 . S
O217 Sc198 2.105 . S
O217 C203 1.268 1_565 S
O218 Sc200 2.105 . S
O218 C202 1.268 . S
O219 Sc199 2.105 . S
O219 C204 1.268 . S
Sc220 O223 2.025 . S
Sc220 O230 2.105 . S
Sc220 O233 2.105 . S
Sc220 O236 2.105 . S
Sc220 O239 2.105 . S
Sc221 O223 2.025 . S
Sc221 O231 2.105 . S
Sc221 O235 2.105 . S
Sc221 O237 2.105 . S
Sc221 O241 2.105 1_565 S
Sc222 O223 2.025 1_545 S
Sc222 O232 2.105 . S
Sc222 O234 2.105 1_545 S
Sc222 O238 2.105 . S
Sc222 O240 2.105 . S
O223 Sc220 2.025 . S
O223 Sc221 2.025 . S
O223 Sc222 2.025 1_565 S
C224 O230 1.268 . S
C224 O240 1.268 1_565 S
C225 O231 1.268 . S
C225 O239 1.268 . S
C226 O232 1.268 . S
C226 O241 1.268 . S
C227 O233 1.268 . S
C227 O237 1.268 . S
C228 O234 1.268 . S
C228 O236 1.268 . S
C229 O235 1.268 . S
C229 O238 1.268 1_565 S
O230 Sc220 2.105 . S
O230 C224 1.268 . S
O231 Sc221 2.105 . S
O231 C225 1.268 . S
O232 Sc222 2.105 . S
O232 C226 1.268 . S
O233 Sc220 2.105 . S
O233 C227 1.268 . S
O234 Sc222 2.105 1_565 S
O234 C228 1.268 . S
O235 Sc221 2.105 . S
O235 C229 1.268 . S
O236 Sc220 2.105 . S
O236 C228 1.268 . S
O237 Sc221 2.105 . S
O237 C227 1.268 . S
O238 Sc222 2.105 . S
O238 C229 1.268 1_545 S
O239 Sc220 2.105 . S
O239 C225 1.268 . S
O240 Sc222 2.105 . S
O240 C224 1.268 1_545 S
O241 Sc221 2.105 1_545 S
O241 C226 1.268 . S
Sc242 O245 2.025 . S
Sc242 O252 2.105 . S
Sc242 O255 2.105 . S
Sc242 O258 2.105 . S
Sc242 O261 2.105 . S
Sc243 O245 2.025 . S
Sc243 O253 2.105 . S
Sc243 O257 2.105 . S
Sc243 O259 2.105 . S
Sc243 O263 2.105 . S
Sc244 O245 2.025 . S
Sc244 O254 2.105 . S
Sc244 O256 2.105 . S
Sc244 O260 2.105 . S
Sc244 O262 2.105 . S
O245 Sc242 2.025 . S
O245 Sc243 2.025 . S
O245 Sc244 2.025 . S
C246 O252 1.268 . S
C246 O262 1.268 . S
C247 O253 1.268 . S
C247 O261 1.268 . S
C248 O254 1.268 . S
C248 O263 1.268 . S
C249 O255 1.268 . S
C249 O259 1.268 . S
C250 O256 1.268 . S
C250 O258 1.268 . S
C251 O257 1.268 . S
C251 O260 1.268 . S
O252 Sc242 2.105 . S
O252 C246 1.268 . S
O253 Sc243 2.105 . S
O253 C247 1.268 . S
O254 Sc244 2.105 . S
O254 C248 1.268 . S
O255 Sc242 2.105 . S
O255 C249 1.268 . S
O256 Sc244 2.105 . S
O256 C250 1.268 . S
O257 Sc243 2.105 . S
O257 C251 1.268 . S
O258 Sc242 2.105 . S
O258 C250 1.268 . S
O259 Sc243 2.105 . S
O259 C249 1.268 . S
O260 Sc244 2.105 . S
O260 C251 1.268 . S
O261 Sc242 2.105 . S
O261 C247 1.268 . S
O262 Sc244 2.105 . S
O262 C246 1.268 . S
O263 Sc243 2.105 . S
O263 C248 1.268 . S
C264 C265 1.387 . S
C264 H268 0.950 . S
C264 C273 1.390 . S
C265 C264 1.387 . S
C265 C267 1.387 . S
H266 C273 0.950 . S
C267 C265 1.387 . S
C267 C269 1.390 . S
C267 H271 0.950 . S
H268 C264 0.950 . S
C269 C267 1.390 . S
C269 C270 1.387 . S
C269 H272 0.950 . S
C270 C269 1.387 . S
C270 C273 1.387 . S
H271 C267 0.950 . S
H272 C269 0.950 . S
C273 C264 1.390 . S
C273 H266 0.950 . S
C273 C270 1.387 . S
C274 C275 1.387 1_565 S
C274 H278 0.950 . S
C274 C283 1.390 . S
C275 C274 1.387 1_545 S
C275 C277 1.387 . S
H276 C283 0.950 . S
C277 C275 1.387 . S
C277 C279 1.390 1_545 S
C277 H281 0.950 . S
H278 C274 0.950 . S
C279 C277 1.390 1_565 S
C279 C280 1.387 . S
C279 H282 0.950 1_565 S
C280 C279 1.387 . S
C280 C283 1.387 . S
H281 C277 0.950 . S
H282 C279 0.950 1_545 S
C283 C274 1.390 . S
C283 H276 0.950 . S
C283 C280 1.387 . S
C284 C285 1.387 . S
C284 H288 0.950 . S
C284 C293 1.390 . S
C285 C284 1.387 . S
C285 C287 1.387 1_556 S
H286 C293 0.950 . S
C287 C285 1.387 1_554 S
C287 C289 1.390 . S
C287 H291 0.950 . S
H288 C284 0.950 . S
C289 C287 1.390 . S
C289 C290 1.387 . S
C289 H292 0.950 . S
C290 C289 1.387 . S
C290 C293 1.387 1_554 S
H291 C287 0.950 . S
H292 C289 0.950 . S
C293 C284 1.390 . S
C293 H286 0.950 . S
C293 C290 1.387 1_556 S
C294 C295 1.387 . S
C294 H298 0.950 . S
C294 C303 1.390 1_545 S
C295 C294 1.387 . S
C295 C297 1.387 . S
H296 C303 0.950 . S
C297 C295 1.387 . S
C297 C299 1.390 . S
C297 H301 0.950 . S
H298 C294 0.950 . S
C299 C297 1.390 . S
C299 C300 1.387 1_545 S
C299 H302 0.950 . S
C300 C299 1.387 1_565 S
C300 C303 1.387 . S
H301 C297 0.950 . S
H302 C299 0.950 . S
C303 C294 1.390 1_565 S
C303 H296 0.950 . S
C303 C300 1.387 . S
C304 C305 1.387 . S
C304 H308 0.950 . S
C304 C313 1.390 . S
C305 C304 1.387 . S
C305 C307 1.387 . S
H306 C313 0.950 . S
C307 C305 1.387 . S
C307 C309 1.390 . S
C307 H311 0.950 . S
H308 C304 0.950 . S
C309 C307 1.390 . S
C309 C310 1.387 . S
C309 H312 0.950 . S
C310 C309 1.387 . S
C310 C313 1.387 . S
H311 C307 0.950 . S
H312 C309 0.950 . S
C313 C304 1.390 . S
C313 H306 0.950 . S
C313 C310 1.387 . S
C314 C315 1.387 . S
C314 H318 0.950 . S
C314 C323 1.390 . S
C315 C314 1.387 . S
C315 C317 1.387 . S
H316 C323 0.950 . S
C317 C315 1.387 . S
C317 C319 1.390 . S
C317 H321 0.950 . S
H318 C314 0.950 . S
C319 C317 1.390 . S
C319 C320 1.387 . S
C319 H322 0.950 . S
C320 C319 1.387 . S
C320 C323 1.387 . S
H321 C317 0.950 . S
H322 C319 0.950 . S
C323 C314 1.390 . S
C323 H316 0.950 . S
C323 C320 1.387 . S
C324 C325 1.387 . S
C324 H328 0.950 . S
C324 C333 1.390 . S
C325 C324 1.387 . S
C325 C327 1.387 . S
H326 C333 0.950 . S
C327 C325 1.387 . S
C327 C329 1.390 1_556 S
C327 H331 0.950 1_556 S
H328 C324 0.950 . S
C329 C327 1.390 1_554 S
C329 C330 1.387 . S
C329 H332 0.950 . S
C330 C329 1.387 . S
C330 C333 1.387 1_554 S
H331 C327 0.950 1_554 S
H332 C329 0.950 . S
C333 C324 1.390 . S
C333 H326 0.950 . S
C333 C330 1.387 1_556 S
C334 C335 1.387 . S
C334 H338 0.950 . S
C334 C343 1.390 . S
C335 C334 1.387 . S
C335 C337 1.387 . S
H336 C343 0.950 . S
C337 C335 1.387 . S
C337 C339 1.390 . S
C337 H341 0.950 . S
H338 C334 0.950 . S
C339 C337 1.390 . S
C339 C340 1.387 . S
C339 H342 0.950 . S
C340 C339 1.387 . S
C340 C343 1.387 . S
H341 C337 0.950 . S
H342 C339 0.950 . S
C343 C334 1.390 . S
C343 H336 0.950 . S
C343 C340 1.387 . S
C344 C345 1.387 . S
C344 H348 0.950 . S
C344 C353 1.390 . S
C345 C344 1.387 . S
C345 C347 1.387 . S
H346 C353 0.950 . S
C347 C345 1.387 . S
C347 C349 1.390 . S
C347 H351 0.950 . S
H348 C344 0.950 . S
C349 C347 1.390 . S
C349 C350 1.387 . S
C349 H352 0.950 . S
C350 C349 1.387 . S
C350 C353 1.387 . S
H351 C347 0.950 . S
H352 C349 0.950 . S
C353 C344 1.390 . S
C353 H346 0.950 . S
C353 C350 1.387 . S
C354 C355 1.387 . S
C354 H358 0.950 . S
C354 C363 1.390 . S
C355 C354 1.387 . S
C355 C357 1.387 . S
H356 C363 0.950 . S
C357 C355 1.387 . S
C357 C359 1.390 1_455 S
C357 H361 0.950 . S
H358 C354 0.950 . S
C359 C357 1.390 1_655 S
C359 C360 1.387 . S
C359 H362 0.950 . S
C360 C359 1.387 . S
C360 C363 1.387 1_655 S
H361 C357 0.950 . S
H362 C359 0.950 . S
C363 C354 1.390 . S
C363 H356 0.950 . S
C363 C360 1.387 1_455 S
C364 C365 1.390 . S
C364 H368 0.958 . S
C364 C373 1.379 1_455 S
C365 C364 1.390 . S
C365 C367 1.387 1_455 S
H366 C373 0.950 . S
C367 C365 1.387 1_655 S
C367 C369 1.390 . S
C367 H371 0.950 . S
H368 C364 0.958 . S
C369 C367 1.390 . S
C369 C370 1.387 . S
C369 H372 0.950 . S
C370 C369 1.387 . S
C370 C373 1.387 . S
H371 C367 0.950 . S
H372 C369 0.950 . S
C373 C364 1.379 1_655 S
C373 H366 0.950 . S
C373 C370 1.387 . S
C374 C375 1.387 . S
C374 H378 0.950 . S
C374 C383 1.390 . S
C375 C374 1.387 . S
C375 C377 1.387 . S
H376 C383 0.950 . S
C377 C375 1.387 . S
C377 C379 1.390 . S
C377 H381 0.950 . S
H378 C374 0.950 . S
C379 C377 1.390 . S
C379 C380 1.387 . S
C379 H382 0.950 . S
C380 C379 1.387 . S
C380 C383 1.387 . S
H381 C377 0.950 . S
H382 C379 0.950 . S
C383 C374 1.390 . S
C383 H376 0.950 . S
C383 C380 1.387 . S
C384 C385 1.387 . S
C384 H388 0.950 . S
C384 C393 1.390 . S
C385 C384 1.387 . S
C385 C387 1.387 . S
H386 C393 0.950 . S
C387 C385 1.387 . S
C387 C389 1.390 . S
C387 H391 0.950 . S
H388 C384 0.950 . S
C389 C387 1.390 . S
C389 C390 1.387 . S
C389 H392 0.950 . S
C390 C389 1.387 . S
C390 C393 1.387 . S
H391 C387 0.950 . S
H392 C389 0.950 . S
C393 C384 1.390 . S
C393 H386 0.950 . S
C393 C390 1.387 . S
C394 C395 1.387 . S
C394 H398 0.950 . S
C394 C403 1.390 . S
C395 C394 1.387 . S
C395 C397 1.387 . S
H396 C403 0.950 . S
C397 C395 1.387 . S
C397 C399 1.390 . S
C397 H401 0.950 . S
H398 C394 0.950 . S
C399 C397 1.390 . S
C399 C400 1.387 . S
C399 H402 0.950 . S
C400 C399 1.387 . S
C400 C403 1.387 . S
H401 C397 0.950 . S
H402 C399 0.950 . S
C403 C394 1.390 . S
C403 H396 0.950 . S
C403 C400 1.387 . S
C404 C405 1.387 . S
C404 H408 0.950 . S
C404 C413 1.390 . S
C405 C404 1.387 . S
C405 C407 1.387 . S
H406 C413 0.950 . S
C407 C405 1.387 . S
C407 C409 1.390 . S
C407 H411 0.950 . S
H408 C404 0.950 . S
C409 C407 1.390 . S
C409 C410 1.387 . S
C409 H412 0.950 . S
C410 C409 1.387 . S
C410 C413 1.387 . S
H411 C407 0.950 . S
H412 C409 0.950 . S
C413 C404 1.390 . S
C413 H406 0.950 . S
C413 C410 1.387 . S
C414 C415 1.387 . S
C414 H418 0.950 . S
C414 C423 1.390 . S
C415 C414 1.387 . S
C415 C417 1.387 . S
H416 C423 0.950 . S
C417 C415 1.387 . S
C417 C419 1.390 1_554 S
C417 H421 0.950 1_554 S
H418 C414 0.950 . S
C419 C417 1.390 1_556 S
C419 C420 1.387 1_556 S
C419 H422 0.950 . S
C420 C419 1.387 1_554 S
C420 C423 1.387 . S
H421 C417 0.950 1_556 S
H422 C419 0.950 . S
C423 C414 1.390 . S
C423 H416 0.950 . S
C423 C420 1.387 . S
C424 C425 1.387 . S
C424 H428 0.950 . S
C424 C433 1.390 . S
C425 C424 1.387 . S
C425 C427 1.387 . S
H426 C433 0.950 . S
C427 C425 1.387 . S
C427 C429 1.390 . S
C427 H431 0.950 . S
H428 C424 0.950 . S
C429 C427 1.390 . S
C429 C430 1.387 . S
C429 H432 0.950 . S
C430 C429 1.387 . S
C430 C433 1.387 . S
H431 C427 0.950 . S
H432 C429 0.950 . S
C433 C424 1.390 . S
C433 H426 0.950 . S
C433 C430 1.387 . S
C434 C435 1.387 . S
C434 H438 0.950 1_556 S
C434 C443 1.390 . S
C435 C434 1.387 . S
C435 C437 1.387 . S
H436 C443 0.950 . S
C437 C435 1.387 . S
C437 C439 1.390 . S
C437 H441 0.950 . S
H438 C434 0.950 1_554 S
C439 C437 1.390 . S
C439 C440 1.387 . S
C439 H442 0.950 . S
C440 C439 1.387 . S
C440 C443 1.387 . S
H441 C437 0.950 . S
H442 C439 0.950 . S
C443 C434 1.390 . S
C443 H436 0.950 . S
C443 C440 1.387 . S
C444 C445 1.387 . S
C444 H448 0.950 . S
C444 C453 1.390 . S
C445 C444 1.387 . S
C445 C447 1.387 . S
H446 C453 0.950 . S
C447 C445 1.387 . S
C447 C449 1.390 . S
C447 H451 0.950 . S
H448 C444 0.950 . S
C449 C447 1.390 . S
C449 C450 1.387 . S
C449 H452 0.950 . S
C450 C449 1.387 . S
C450 C453 1.387 . S
H451 C447 0.950 . S
H452 C449 0.950 . S
C453 C444 1.390 . S
C453 H446 0.950 . S
C453 C450 1.387 . S
C454 C455 1.387 . S
C454 H458 0.950 . S
C454 C463 1.390 . S
C455 C454 1.387 . S
C455 C457 1.387 . S
H456 C463 0.950 . S
C457 C455 1.387 . S
C457 C459 1.390 . S
C457 H461 0.950 . S
H458 C454 0.950 . S
C459 C457 1.390 . S
C459 C460 1.387 . S
C459 H462 0.950 . S
C460 C459 1.387 . S
C460 C463 1.387 . S
H461 C457 0.950 . S
H462 C459 0.950 . S
C463 C454 1.390 . S
C463 H456 0.950 . S
C463 C460 1.387 . S
C464 C465 1.387 . S
C464 H468 0.950 . S
C464 C473 1.390 . S
C465 C464 1.387 . S
C465 C467 1.387 . S
H466 C473 0.950 . S
C467 C465 1.387 . S
C467 C469 1.390 . S
C467 H471 0.950 . S
H468 C464 0.950 . S
C469 C467 1.390 . S
C469 C470 1.387 . S
C469 H472 0.950 . S
C470 C469 1.387 . S
C470 C473 1.387 . S
H471 C467 0.950 . S
H472 C469 0.950 . S
C473 C464 1.390 . S
C473 H466 0.950 . S
C473 C470 1.387 . S
C474 C475 1.387 . S
C474 H478 0.950 . S
C474 C483 1.390 . S
C475 C474 1.387 . S
C475 C477 1.387 . S
H476 C483 0.950 . S
C477 C475 1.387 . S
C477 C479 1.390 1_545 S
C477 H481 0.950 1_545 S
H478 C474 0.950 . S
C479 C477 1.390 1_565 S
C479 C480 1.387 1_565 S
C479 H482 0.950 . S
C480 C479 1.387 1_545 S
C480 C483 1.387 . S
H481 C477 0.950 1_565 S
H482 C479 0.950 . S
C483 C474 1.390 . S
C483 H476 0.950 . S
C483 C480 1.387 . S
C484 C485 1.387 . S
C484 H488 0.950 . S
C484 C493 1.390 . S
C485 C484 1.387 . S
C485 C487 1.387 . S
H486 C493 0.950 . S
C487 C485 1.387 . S
C487 C489 1.390 . S
C487 H491 0.950 . S
H488 C484 0.950 . S
C489 C487 1.390 . S
C489 C490 1.387 . S
C489 H492 0.950 . S
C490 C489 1.387 . S
C490 C493 1.387 . S
H491 C487 0.950 . S
H492 C489 0.950 . S
C493 C484 1.390 . S
C493 H486 0.950 . S
C493 C490 1.387 . S
C494 C495 1.387 . S
C494 H498 0.950 . S
C494 C503 1.390 . S
C495 C494 1.387 . S
C495 C497 1.387 . S
H496 C503 0.950 . S
C497 C495 1.387 . S
C497 C499 1.390 . S
C497 H501 0.950 1_565 S
H498 C494 0.950 . S
C499 C497 1.390 . S
C499 C500 1.387 . S
C499 H502 0.950 . S
C500 C499 1.387 . S
C500 C503 1.387 . S
H501 C497 0.950 1_545 S
H502 C499 0.950 . S
C503 C494 1.390 . S
C503 H496 0.950 . S
C503 C500 1.387 . S
C504 C505 1.387 . S
C504 H508 0.950 . S
C504 C513 1.390 . S
C505 C504 1.387 . S
C505 C507 1.387 . S
H506 C513 0.950 . S
C507 C505 1.387 . S
C507 C509 1.390 . S
C507 H511 0.950 . S
H508 C504 0.950 . S
C509 C507 1.390 . S
C509 C510 1.387 . S
C509 H512 0.950 . S
C510 C509 1.387 . S
C510 C513 1.387 . S
H511 C507 0.950 . S
H512 C509 0.950 . S
C513 C504 1.390 . S
C513 H506 0.950 . S
C513 C510 1.387 . S
C514 C515 1.387 . S
C514 H518 0.950 . S
C514 C523 1.390 . S
C515 C514 1.387 . S
C515 C517 1.387 . S
H516 C523 0.950 . S
C517 C515 1.387 . S
C517 C519 1.390 . S
C517 H521 0.950 . S
H518 C514 0.950 . S
C519 C517 1.390 . S
C519 C520 1.387 . S
C519 H522 0.950 . S
C520 C519 1.387 . S
C520 C523 1.387 . S
H521 C517 0.950 . S
H522 C519 0.950 . S
C523 C514 1.390 . S
C523 H516 0.950 . S
C523 C520 1.387 . S
C524 C525 1.387 . S
C524 H528 0.950 . S
C524 C533 1.390 . S
C525 C524 1.387 . S
C525 C527 1.387 . S
H526 C533 0.950 . S
C527 C525 1.387 . S
C527 C529 1.390 . S
C527 H531 0.950 . S
H528 C524 0.950 . S
C529 C527 1.390 . S
C529 C530 1.387 . S
C529 H532 0.950 . S
C530 C529 1.387 . S
C530 C533 1.387 . S
H531 C527 0.950 . S
H532 C529 0.950 . S
C533 C524 1.390 . S
C533 H526 0.950 . S
C533 C530 1.387 . S
C534 C535 1.387 . S
C534 H538 0.950 . S
C534 C543 1.390 . S
C535 C534 1.387 . S
C535 C537 1.387 . S
H536 C543 0.950 . S
C537 C535 1.387 . S
C537 C539 1.390 . S
C537 H541 0.950 . S
H538 C534 0.950 . S
C539 C537 1.390 . S
C539 C540 1.387 . S
C539 H542 0.950 . S
C540 C539 1.387 . S
C540 C543 1.387 . S
H541 C537 0.950 . S
H542 C539 0.950 . S
C543 C534 1.390 . S
C543 H536 0.950 . S
C543 C540 1.387 . S
C544 C545 1.387 . S
C544 H548 0.950 . S
C544 C553 1.390 . S
C545 C544 1.387 . S
C545 C547 1.387 . S
H546 C553 0.950 . S
C547 C545 1.387 . S
C547 C549 1.390 . S
C547 H551 0.950 . S
H548 C544 0.950 . S
C549 C547 1.390 . S
C549 C550 1.387 . S
C549 H552 0.950 . S
C550 C549 1.387 . S
C550 C553 1.387 . S
H551 C547 0.950 . S
H552 C549 0.950 . S
C553 C544 1.390 . S
C553 H546 0.950 . S
C553 C550 1.387 . S
C554 C555 1.387 . S
C554 H558 0.950 . S
C554 C563 1.390 . S
C555 C554 1.387 . S
C555 C557 1.387 . S
H556 C563 0.950 . S
C557 C555 1.387 . S
C557 C559 1.390 . S
C557 H561 0.950 . S
H558 C554 0.950 . S
C559 C557 1.390 . S
C559 C560 1.387 . S
C559 H562 0.950 . S
C560 C559 1.387 . S
C560 C563 1.387 . S
H561 C557 0.950 . S
H562 C559 0.950 . S
C563 C554 1.390 . S
C563 H556 0.950 . S
C563 C560 1.387 . S
C564 C565 1.387 . S
C564 H568 0.950 . S
C564 C573 1.390 . S
C565 C564 1.387 . S
C565 C567 1.387 . S
H566 C573 0.950 . S
C567 C565 1.387 . S
C567 C569 1.390 1_455 S
C567 H571 0.950 1_455 S
H568 C564 0.950 . S
C569 C567 1.390 1_655 S
C569 C570 1.387 1_655 S
C569 H572 0.950 . S
C570 C569 1.387 1_455 S
C570 C573 1.387 . S
H571 C567 0.950 1_655 S
H572 C569 0.950 . S
C573 C564 1.390 . S
C573 H566 0.950 . S
C573 C570 1.387 . S
C574 C575 1.387 . S
C574 H578 0.950 . S
C574 C583 1.390 . S
C575 C574 1.387 . S
C575 C577 1.387 . S
H576 C583 0.950 . S
C577 C575 1.387 . S
C577 C579 1.390 . S
C577 H581 0.950 . S
H578 C574 0.950 . S
C579 C577 1.390 . S
C579 C580 1.387 . S
C579 H582 0.950 . S
C580 C579 1.387 . S
C580 C583 1.387 . S
H581 C577 0.950 . S
H582 C579 0.950 . S
C583 C574 1.390 . S
C583 H576 0.950 . S
C583 C580 1.387 . S
C584 C585 1.387 . S
C584 H588 0.950 . S
C584 C593 1.390 . S
C585 C584 1.387 . S
C585 C587 1.387 . S
H586 C593 0.950 . S
C587 C585 1.387 . S
C587 C589 1.390 . S
C587 H591 0.950 . S
H588 C584 0.950 . S
C589 C587 1.390 . S
C589 C590 1.387 . S
C589 H592 0.950 . S
C590 C589 1.387 . S
C590 C593 1.387 . S
H591 C587 0.950 . S
H592 C589 0.950 . S
C593 C584 1.390 . S
C593 H586 0.950 . S
C593 C590 1.387 . S
C594 C595 1.387 . S
C594 H598 0.950 . S
C594 C603 1.390 . S
C595 C594 1.387 . S
C595 C597 1.387 . S
H596 C603 0.950 . S
C597 C595 1.387 . S
C597 C599 1.390 . S
C597 H601 0.950 . S
H598 C594 0.950 . S
C599 C597 1.390 . S
C599 C600 1.387 . S
C599 H602 0.950 . S
C600 C599 1.387 . S
C600 C603 1.387 . S
H601 C597 0.950 . S
H602 C599 0.950 . S
C603 C594 1.390 . S
C603 H596 0.950 . S
C603 C600 1.387 . S
C604 C605 1.387 . S
C604 H608 0.950 . S
C604 C613 1.390 . S
C605 C604 1.387 . S
C605 C607 1.387 . S
H606 C613 0.950 . S
C607 C605 1.387 . S
C607 C609 1.390 . S
C607 H611 0.950 . S
H608 C604 0.950 . S
C609 C607 1.390 . S
C609 C610 1.387 . S
C609 H612 0.950 . S
C610 C609 1.387 . S
C610 C613 1.387 . S
H611 C607 0.950 . S
H612 C609 0.950 . S
C613 C604 1.390 . S
C613 H606 0.950 . S
C613 C610 1.387 . S
C614 C615 1.387 . S
C614 H618 0.950 . S
C614 C623 1.390 . S
C615 C614 1.387 . S
C615 C617 1.387 . S
H616 C623 0.950 . S
C617 C615 1.387 . S
C617 C619 1.390 . S
C617 H621 0.950 . S
H618 C614 0.950 . S
C619 C617 1.390 . S
C619 C620 1.387 . S
C619 H622 0.950 1_655 S
C620 C619 1.387 . S
C620 C623 1.387 . S
H621 C617 0.950 . S
H622 C619 0.950 1_455 S
C623 C614 1.390 . S
C623 H616 0.950 . S
C623 C620 1.387 . S
C265 C6 1.230 . S
C270 C248 1.228 . S
C275 C203 1.232 . S
C280 C31 1.232 . S
C285 C51 1.230 . S
C290 C181 1.229 . S
C295 C75 1.229 . S
C300 C229 1.232 . S
C305 C93 1.232 . S
C310 C226 1.228 . S
C315 C115 1.232 . S
C320 C251 1.232 . S
C325 C205 1.232 . S
C330 C139 1.232 . S
C335 C161 1.229 . S
C340 C183 1.229 . S
C345 C72 1.232 . S
C350 C95 1.231 . S
C355 C9 1.230 . S
C360 C117 1.233 . S
C365 C28 1.228 . S
C370 C137 1.231 . S
C375 C159 1.228 . S
C380 C49 1.230 . S
C385 C4 1.628 . S
C390 C185 1.571 . S
C395 C29 1.626 1_655 S
C400 C225 1.570 . S
C405 C250 1.573 . S
C410 C52 1.629 . S
C415 C73 1.628 . S
C420 C207 1.573 1_554 S
C425 C94 1.627 . S
C430 C202 1.570 . S
C435 C180 1.570 1_556 S
C440 C116 1.627 1_455 S
C445 C228 1.570 . S
C450 C140 1.628 . S
C455 C247 1.571 . S
C460 C162 1.628 . S
C465 C5 1.570 . S
C470 C70 1.626 . S
C475 C7 1.627 . S
C480 C30 1.572 1_545 S
C485 C26 1.630 . S
C490 C53 1.574 . S
C495 C74 1.571 1_565 S
C500 C50 1.627 1_554 S
C505 C118 1.629 . S
C510 C92 1.573 . S
C515 C114 1.574 . S
C520 C138 1.629 1_556 S
C525 C141 1.572 . S
C530 C160 1.627 . S
C535 C96 1.627 . S
C540 C163 1.572 . S
C545 C184 1.626 . S
C550 C71 1.571 . S
C555 C119 1.570 . S
C560 C204 1.626 . S
C565 C182 1.628 . S
C570 C136 1.573 1_455 S
C575 C227 1.629 . S
C580 C158 1.573 . S
C585 C97 1.574 . S
C590 C246 1.630 . S
C595 C249 1.629 . S
C600 C27 1.573 . S
C605 C48 1.574 . S
C610 C206 1.630 1_565 S
C615 C224 1.626 1_545 S
C620 C8 1.570 1_655 S
