# Generated by pormake.
# Topology kag, (6)-cn, num edge types: 1
# Building blocks:
#     Node 0, Type 0, BuildingBlock: GEDQOX_clean_sbu_0, # of connection points: 6
#     Node 1, Type 0, BuildingBlock: GEDQOX_clean_sbu_0, # of connection points: 6
#     Node 2, Type 0, BuildingBlock: GEDQOX_clean_sbu_0, # of connection points: 6
#     Edge 3, Type (0, 0), BuildingBlock: UKIBUN_clean_linker_0, # of connection points: 2
#     Edge 4, Type (0, 0), BuildingBlock: UKIBUN_clean_linker_0, # of connection points: 2
#     Edge 5, Type (0, 0), BuildingBlock: UKIBUN_clean_linker_0, # of connection points: 2
#     Edge 6, Type (0, 0), BuildingBlock: UKIBUN_clean_linker_0, # of connection points: 2
#     Edge 7, Type (0, 0), BuildingBlock: UKIBUN_clean_linker_0, # of connection points: 2
#     Edge 8, Type (0, 0), BuildingBlock: UKIBUN_clean_linker_0, # of connection points: 2
#     Edge 9, Type (0, 0), BuildingBlock: UKIBUN_clean_linker_0, # of connection points: 2
#     Edge 10, Type (0, 0), BuildingBlock: UKIBUN_clean_linker_0, # of connection points: 2
#     Edge 11, Type (0, 0), BuildingBlock: UKIBUN_clean_linker_0, # of connection points: 2
# Relax obj value: 0.041
# Max RMSD: 0.149
# Mean RMSD: 0.088
data_MOF--net-kag--node1-GEDQOX_clean_sbu_0--edge1-UKIBUN_clean_linker_0
_symmetry_space_group_name_H-M    P1
_symmetry_Int_Tables_number       1
_symmetry_cell_setting            triclinic
loop_
_symmetry_equiv_pos_as_xyz
'x, y, z'
_cell_length_a     70.17858
_cell_length_b     61.180333
_cell_length_c     24.418277
_cell_angle_alpha  96.15214
_cell_angle_beta   89.273175
_cell_angle_gamma 135.39652
loop_
_atom_site_label
_atom_site_type_symbol
_atom_site_fract_x
_atom_site_fract_y
_atom_site_fract_z
_atom_type_partial_charge
Nd0 Nd 1.01705 0.55484 0.99868 0.0
Nd1 Nd 0.0362 0.51875 0.99947 0.0
C2 C 0.99094 0.57014 0.02335 0.0
C3 C 0.96201 0.55328 0.01675 0.0
C4 C 0.94526 0.53861 0.06018 0.0
C5 C 0.91979 0.52788 0.0583 0.0
C6 C 0.91051 0.53116 0.01254 0.0
C7 C 0.9259 0.54276 0.96677 0.0
C8 C 0.9515 0.55389 0.96891 0.0
C9 C 1.02151 0.53839 0.89302 0.0
C10 C 0.97065 0.47656 0.99187 0.0
C11 C 0.06262 0.50407 0.97205 0.0
C12 C 0.0914 0.52045 0.98009 0.0
C13 C 0.10765 0.53217 0.93548 0.0
C14 C 0.13285 0.54226 0.93913 0.0
C15 C 0.14254 0.54124 0.98791 0.0
C16 C 0.12776 0.53326 0.03467 0.0
C17 C 0.10234 0.52258 0.03066 0.0
C18 C 0.03288 0.53484 0.10547 0.0
C19 C 0.08202 0.5978 0.01132 0.0
O20 O 0.99749 0.5616 0.05963 0.0
O21 O 1.00354 0.5767 0.97829 0.0
O22 O 1.01453 0.55302 0.90332 0.0
O23 O 1.02522 0.53315 0.93807 0.0
O24 O 0.97711 0.50293 0.99552 0.0
O25 O 0.98897 0.47543 0.98911 0.0
O26 O 0.05718 0.51449 0.93781 0.0
O27 O 0.04887 0.49552 0.01577 0.0
O28 O 0.03987 0.52037 0.09295 0.0
O29 O 0.02821 0.54048 0.06187 0.0
O30 O 0.0762 0.57172 0.00661 0.0
O31 O 0.06335 0.59823 0.01266 0.0
H32 H 0.95246 0.53707 0.09706 0.0
H33 H 0.90807 0.51876 0.09386 0.0
H34 H 0.91915 0.54566 0.93115 0.0
H35 H 0.96362 0.56456 0.93431 0.0
H36 H 0.10019 0.53185 0.89654 0.0
H37 H 0.14369 0.54881 0.90238 0.0
H38 H 0.13524 0.53396 0.07403 0.0
H39 H 0.09087 0.51484 0.06665 0.0
Nd40 Nd 0.52026 0.05749 0.00277 0.0
Nd41 Nd 0.53447 1.0178 0.99565 0.0
C42 C 0.51653 0.09664 0.98672 0.0
C43 C 0.5321 0.13067 0.99621 0.0
C44 C 0.54302 0.14801 0.95154 0.0
C45 C 0.55118 0.17677 0.95481 0.0
C46 C 0.54893 0.1894 0.00328 0.0
C47 C 0.54171 0.1741 0.05049 0.0
C48 C 0.53296 0.14491 0.04679 0.0
C49 C 0.52842 0.05127 0.10865 0.0
C50 C 0.58428 0.09399 0.0064 0.0
C51 C 0.53645 0.97621 0.00292 0.0
C52 C 0.52121 0.94235 0.99825 0.0
C53 C 0.51167 0.9265 0.04488 0.0
C54 C 0.50411 0.89809 0.04368 0.0
C55 C 0.50577 0.88455 0.99561 0.0
C56 C 0.51194 0.89856 0.94718 0.0
C57 C 0.52 0.92721 0.94874 0.0
C58 C 0.53085 1.0332 0.89657 0.0
C59 C 0.47002 0.98174 0.99619 0.0
O60 O 0.52431 0.08775 0.94971 0.0
O61 O 0.50734 0.08104 0.02909 0.0
O62 O 0.52259 0.06621 0.09752 0.0
O63 O 0.53044 0.04105 0.06376 0.0
O64 O 0.56574 0.09311 0.99151 0.0
O65 O 0.5776 0.06871 0.01911 0.0
O66 O 0.53443 0.98916 0.04569 0.0
O67 O 0.5394 0.98761 0.95763 0.0
O68 O 0.54771 1.03162 0.90923 0.0
O69 O 0.51531 1.02488 0.93487 0.0
O70 O 0.48817 0.98091 0.00303 0.0
O71 O 0.47674 1.00762 0.98852 0.0
H72 H 0.54339 0.13823 0.91235 0.0
H73 H 0.55716 0.18748 0.91742 0.0
H74 H 0.5414 0.18367 0.08997 0.0
H75 H 0.52555 0.13283 0.08286 0.0
H76 H 0.51176 0.93707 0.08354 0.0
H77 H 0.49891 0.88828 0.08196 0.0
H78 H 0.51185 0.88838 0.90805 0.0
H79 H 0.52674 0.93831 0.91156 0.0
Nd80 Nd 0.49698 0.51663 0.99832 0.0
Nd81 Nd 0.55938 0.55841 0.00293 0.0
C82 C 0.44908 0.49597 0.97508 0.0
C83 C 0.43705 0.50865 0.98056 0.0
C84 C 0.43486 0.51944 0.93538 0.0
C85 C 0.42014 0.52706 0.93743 0.0
C86 C 0.40744 0.52446 0.98508 0.0
C87 C 0.41174 0.51633 0.03188 0.0
C88 C 0.42596 0.50812 0.02943 0.0
C89 C 0.52044 0.53034 0.10174 0.0
C90 C 0.54032 0.59394 0.01133 0.0
C91 C 0.60673 0.57863 0.02964 0.0
C92 C 0.61842 0.56563 0.02153 0.0
C93 C 0.61871 0.55199 0.06404 0.0
C94 C 0.63316 0.54406 0.06069 0.0
C95 C 0.64726 0.54914 0.01437 0.0
C96 C 0.64521 0.56026 0.96982 0.0
C97 C 0.63105 0.56861 0.97342 0.0
C98 C 0.53705 0.54311 0.89771 0.0
C99 C 0.51542 0.48092 0.98918 0.0
O100 O 0.467 0.50655 0.93891 0.0
O101 O 0.45514 0.4915 0.02027 0.0
O102 O 0.49559 0.5042 0.08368 0.0
O103 O 0.53169 0.54983 0.06702 0.0
O104 O 0.51523 0.56585 0.00528 0.0
O105 O 0.56193 0.59862 0.01434 0.0
O106 O 0.58753 0.56592 0.06334 0.0
O107 O 0.60239 0.58598 0.98641 0.0
O108 O 0.56277 0.56683 0.91367 0.0
O109 O 0.52461 0.52477 0.93431 0.0
O110 O 0.54048 0.50896 0.00012 0.0
O111 O 0.49409 0.47643 0.98155 0.0
H112 H 0.44356 0.52076 0.89738 0.0
H113 H 0.41777 0.5335 0.9005 0.0
H114 H 0.40366 0.51562 0.07048 0.0
H115 H 0.42764 0.50058 0.06556 0.0
H116 H 0.6088 0.54876 0.10119 0.0
H117 H 0.63422 0.53513 0.09524 0.0
H118 H 0.65598 0.56437 0.93365 0.0
H119 H 0.63102 0.57862 0.93948 0.0
C120 C 0.04957 0.54738 0.81609 0.0
C121 C 1.02394 0.52996 0.83645 0.0
C122 C 0.0516 0.54492 0.75879 0.0
C123 C 0.05186 0.53811 0.5254 0.0
C124 C 1.00437 0.51967 0.18399 0.0
C125 C 0.03011 0.54091 0.16337 0.0
C126 C 1.00226 0.51565 0.24016 0.0
C127 C 1.00148 0.5009 0.46454 0.0
H128 H 0.06801 0.56415 0.84403 0.0
H129 H 0.07153 0.55932 0.74353 0.0
H130 H 0.07151 0.55287 0.54856 0.0
H131 H 0.98598 0.50423 0.15595 0.0
H132 H 0.98228 0.4981 0.25486 0.0
H133 H 0.98188 0.48668 0.44158 0.0
C134 C 1.00054 0.50965 0.799 0.0
C135 C 1.00253 0.50708 0.74213 0.0
C136 C 1.00272 0.50095 0.5218 0.0
C137 C 0.05353 0.55926 0.20038 0.0
C138 C 0.05144 0.55519 0.25612 0.0
C139 C 0.05062 0.53806 0.46811 0.0
C140 C 0.02805 0.52509 0.72156 0.0
C141 C 0.02974 0.52414 0.6623 0.0
C142 C 0.02938 0.52199 0.61236 0.0
C143 C 0.02796 0.51996 0.55266 0.0
H144 H 0.9807 0.49681 0.81368 0.0
H145 H 0.98416 0.49187 0.71408 0.0
H146 H 0.98404 0.48673 0.54212 0.0
H147 H 0.07353 0.5748 0.18511 0.0
H148 H 0.06986 0.56847 0.28303 0.0
H149 H 0.06935 0.55283 0.44795 0.0
C150 C 1.02584 0.5327 0.27597 0.0
C151 C 1.02416 0.52645 0.33229 0.0
C152 C 1.02438 0.52254 0.37975 0.0
C153 C 1.02545 0.51992 0.4376 0.0
C154 C 0.53117 0.06435 0.20894 0.0
C155 C 0.52806 0.04468 0.16559 0.0
C156 C 0.52679 0.05728 0.26282 0.0
C157 C 0.51036 0.0443 0.47072 0.0
C158 C 0.51851 1.0085 0.79815 0.0
C159 C 0.52371 1.03098 0.83795 0.0
C160 C 0.51435 1.00781 0.74179 0.0
C161 C 0.50383 1.00125 0.52375 0.0
H162 H 0.53627 0.08504 0.20093 0.0
H163 H 0.52881 0.07269 0.29484 0.0
H164 H 0.51317 0.06133 0.45077 0.0
H165 H 0.51796 0.99159 0.81067 0.0
H166 H 0.51057 0.99036 0.71199 0.0
H167 H 0.50155 0.98459 0.5437 0.0
C168 C 0.52129 1.01795 0.17787 0.0
C169 C 0.5169 1.01082 0.23266 0.0
C170 C 0.50381 0.99955 0.46604 0.0
C171 C 0.52453 0.05273 0.82024 0.0
C172 C 0.52066 0.05226 0.76356 0.0
C173 C 0.51038 0.046 0.52856 0.0
C174 C 0.51924 1.03034 0.27513 0.0
C175 C 0.51379 1.02346 0.33156 0.0
C176 C 0.51009 1.02134 0.38017 0.0
C177 C 0.50754 1.02137 0.43924 0.0
H178 H 0.51834 1.00208 0.14523 0.0
H179 H 0.51115 0.98988 0.2416 0.0
H180 H 0.50153 0.98165 0.44246 0.0
H181 H 0.52912 0.07073 0.84989 0.0
H182 H 0.52201 0.06969 0.75061 0.0
H183 H 0.51318 0.06427 0.55228 0.0
C184 C 0.51565 1.02985 0.72401 0.0
C185 C 0.51256 1.02968 0.6652 0.0
C186 C 0.50977 1.02781 0.61544 0.0
C187 C 0.50756 1.02477 0.55547 0.0
C188 C 0.53864 0.56316 0.81427 0.0
C189 C 0.52762 0.53684 0.83894 0.0
C190 C 0.53972 0.56273 0.75706 0.0
C191 C 0.5565 0.56922 0.53728 0.0
C192 C 0.52177 0.51098 0.18414 0.0
C193 C 0.53103 0.53661 0.15968 0.0
C194 C 0.52685 0.51385 0.24095 0.0
C195 C 0.53326 0.51547 0.46427 0.0
H196 H 0.54859 0.5851 0.83985 0.0
H197 H 0.55 0.5841 0.73978 0.0
H198 H 0.56536 0.59015 0.56494 0.0
H199 H 0.50969 0.48822 0.15938 0.0
H200 H 0.51871 0.49336 0.25866 0.0
H201 H 0.52391 0.49436 0.43652 0.0
C202 C 0.51501 0.50879 0.80465 0.0
C203 C 0.51595 0.50832 0.74685 0.0
C204 C 0.5317 0.51438 0.52147 0.0
C205 C 0.54668 0.56581 0.19312 0.0
C206 C 0.55163 0.56862 0.25053 0.0
C207 C 0.55807 0.57032 0.48013 0.0
C208 C 0.5294 0.53574 0.72313 0.0
C209 C 0.5342 0.53706 0.66497 0.0
C210 C 0.53857 0.53899 0.61658 0.0
C211 C 0.54279 0.54106 0.5582 0.0
H212 H 0.50665 0.48825 0.82247 0.0
H213 H 0.50762 0.48713 0.72105 0.0
H214 H 0.5212 0.49248 0.53686 0.0
H215 H 0.55376 0.58586 0.17561 0.0
H216 H 0.56276 0.59092 0.27614 0.0
H217 H 0.5681 0.59206 0.4647 0.0
C218 C 0.54127 0.54243 0.27482 0.0
C219 C 0.54397 0.54397 0.33443 0.0
C220 C 0.5456 0.5439 0.38385 0.0
C221 C 0.54604 0.54332 0.44317 0.0
C222 C 0.18772 0.565 0.95497 0.0
C223 C 0.16634 0.54558 0.98895 0.0
C224 C 0.20962 0.56836 0.95637 0.0
C225 C 0.29249 0.57486 0.96987 0.0
C226 C 0.36732 0.51278 0.02006 0.0
C227 C 0.38894 0.5288 0.98565 0.0
C228 C 0.35089 0.5179 0.02336 0.0
C229 C 0.29028 0.54271 0.04754 0.0
H230 H 0.18792 0.57808 0.92802 0.0
H231 H 0.22597 0.58351 0.93027 0.0
H232 H 0.29317 0.58685 0.93905 0.0
H233 H 0.36293 0.49619 0.04475 0.0
H234 H 0.33495 0.50601 0.05133 0.0
H235 H 0.28904 0.5298 0.07711 0.0
C236 C 0.16721 0.52899 0.02288 0.0
C237 C 0.18925 0.53279 0.02481 0.0
C238 C 0.27185 0.54497 0.04714 0.0
C239 C 0.39235 0.54859 0.95197 0.0
C240 C 0.37547 0.55318 0.95462 0.0
C241 C 0.31088 0.5726 0.97026 0.0
C242 C 0.21057 0.55272 0.99215 0.0
C243 C 0.23347 0.5572 0.99648 0.0
C244 C 0.25191 0.5597 0.00247 0.0
C245 C 0.27268 0.56054 0.00755 0.0
H246 H 0.15076 0.51268 0.04777 0.0
H247 H 0.18963 0.52019 0.05198 0.0
H248 H 0.2565 0.53377 0.0764 0.0
H249 H 0.40849 0.56134 0.92468 0.0
H250 H 0.37868 0.56884 0.92905 0.0
H251 H 0.32562 0.58289 0.93975 0.0
C252 C 0.35527 0.53851 0.99144 0.0
C253 C 0.33956 0.54528 0.99801 0.0
C254 C 0.3262 0.55067 0.00407 0.0
C255 C 0.30942 0.556 0.00831 0.0
C256 C 0.61985 0.14594 0.97175 0.0
C257 C 0.61316 0.1251 0.00773 0.0
C258 C 0.64609 0.17655 0.97522 0.0
C259 C 0.75469 0.29549 0.98454 0.0
C260 C 0.93138 0.42877 0.03514 0.0
C261 C 0.94104 0.44785 0.99326 0.0
C262 C 0.90335 0.40564 0.04276 0.0
C263 C 0.79214 0.31036 0.06385 0.0
H264 H 0.60465 0.13859 0.94082 0.0
H265 H 0.65054 0.19187 0.9468 0.0
H266 H 0.74048 0.28987 0.95315 0.0
H267 H 0.94559 0.43266 0.06346 0.0
H268 H 0.89645 0.39153 0.07577 0.0
H269 H 0.80636 0.31551 0.09445 0.0
C270 C 0.63351 0.1358 0.04738 0.0
C271 C 0.65981 0.16668 0.05117 0.0
C272 C 0.76418 0.28314 0.0641 0.0
C273 C 0.92205 0.44338 0.95962 0.0
C274 C 0.89413 0.42013 0.96681 0.0
C275 C 0.78272 0.32278 0.98429 0.0
C276 C 0.66628 0.18723 0.01505 0.0
C277 C 0.69374 0.2188 0.01771 0.0
C278 C 0.7168 0.24504 0.02077 0.0
C279 C 0.74529 0.27513 0.02381 0.0
H280 H 0.62891 0.12068 0.07643 0.0
H281 H 0.6751 0.17454 0.08246 0.0
H282 H 0.7574 0.26785 0.09488 0.0
H283 H 0.92894 0.45843 0.92828 0.0
H284 H 0.88009 0.41728 0.94011 0.0
H285 H 0.7896 0.33769 0.95271 0.0
C286 C 0.88451 0.40109 0.00849 0.0
C287 C 0.85535 0.37657 0.01488 0.0
C288 C 0.83097 0.35624 0.01961 0.0
C289 C 0.80172 0.33006 0.02329 0.0
C290 C 0.51774 0.85525 0.95923 0.0
C291 C 0.50455 0.85887 0.99754 0.0
C292 C 0.52022 0.83483 0.965 0.0
C293 C 0.53891 0.76412 0.98124 0.0
C294 C 0.52804 0.62051 0.05531 0.0
C295 C 0.54259 0.61994 0.01605 0.0
C296 C 0.52548 0.64116 0.05478 0.0
C297 C 0.5193 0.72582 0.0641 0.0
H298 H 0.52753 0.86922 0.92585 0.0
H299 H 0.53105 0.83333 0.93552 0.0
H300 H 0.54645 0.77866 0.94868 0.0
H301 H 0.51821 0.6045 0.08593 0.0
H302 H 0.51439 0.64135 0.08579 0.0
H303 H 0.51151 0.71102 0.0963 0.0
C304 C 0.49282 0.8398 0.04041 0.0
C305 C 0.49575 0.81969 0.04655 0.0
C306 C 0.516 0.74594 0.06504 0.0
C307 C 0.5535 0.63943 0.97467 0.0
C308 C 0.55072 0.65998 0.97384 0.0
C309 C 0.54221 0.74402 0.98031 0.0
C310 C 0.50998 0.81762 0.00946 0.0
C311 C 0.51492 0.79874 0.01729 0.0
C312 C 0.51982 0.78351 0.0212 0.0
C313 C 0.52532 0.76477 0.02304 0.0
H314 H 0.48172 0.84061 0.07011 0.0
H315 H 0.48732 0.8062 0.08088 0.0
H316 H 0.50567 0.74629 0.0979 0.0
H317 H 0.56323 0.63793 0.94195 0.0
H318 H 0.55916 0.67478 0.94146 0.0
H319 H 0.55229 0.74341 0.94713 0.0
C320 C 0.53705 0.66126 0.01441 0.0
C321 C 0.53551 0.68369 0.01589 0.0
C322 C 0.53391 0.7022 0.01815 0.0
C323 C 0.53198 0.72435 0.02115 0.0
C324 C 0.89077 0.54877 0.0578 0.0
C325 C 0.88817 0.52882 0.01622 0.0
C326 C 0.87388 0.55314 0.05431 0.0
C327 C 0.81243 0.5759 0.03391 0.0
C328 C 0.66599 0.52907 0.97216 0.0
C329 C 0.66702 0.54709 0.01536 0.0
C330 C 0.68702 0.53094 0.96945 0.0
C331 C 0.76909 0.53958 0.95118 0.0
H332 H 0.90707 0.56263 0.09083 0.0
H333 H 0.87703 0.56982 0.08515 0.0
H334 H 0.82884 0.58955 0.0667 0.0
H335 H 0.64928 0.51417 0.93994 0.0
H336 H 0.68622 0.51734 0.93535 0.0
H337 H 0.75208 0.525 0.91961 0.0
C338 C 0.86722 0.51164 0.97321 0.0
C339 C 0.85013 0.51578 0.97012 0.0
C340 C 0.7878 0.53774 0.95066 0.0
C341 C 0.68887 0.5661 0.05685 0.0
C342 C 0.71004 0.56825 0.0537 0.0
C343 C 0.79373 0.57774 0.03443 0.0
C344 C 0.85409 0.53733 0.00961 0.0
C345 C 0.83875 0.54431 0.00279 0.0
C346 C 0.82584 0.55012 0.99695 0.0
C347 C 0.80908 0.55535 0.99279 0.0
H348 H 0.86497 0.49623 0.94073 0.0
H349 H 0.83464 0.50322 0.93568 0.0
H350 H 0.78505 0.52174 0.91873 0.0
H351 H 0.69021 0.58041 0.09027 0.0
H352 H 0.72722 0.58387 0.08494 0.0
H353 H 0.79589 0.59282 0.0676 0.0
C354 C 0.70936 0.55113 0.00941 0.0
C355 C 0.7319 0.55491 0.00396 0.0
C356 C 0.75056 0.55771 0.99858 0.0
C357 C 0.77171 0.55904 0.9938 0.0
C358 C 0.12064 0.64759 0.97314 0.0
C359 C 0.11117 0.62772 0.01341 0.0
C360 C 0.14856 0.67498 0.97325 0.0
C361 C 0.25815 0.78503 0.97944 0.0
C362 C 0.43389 0.93401 0.04103 0.0
C363 C 0.44113 0.95241 0.99935 0.0
C364 C 0.4065 0.90674 0.04583 0.0
C365 C 0.29494 0.80224 0.06399 0.0
H366 H 0.10651 0.64162 0.94103 0.0
H367 H 0.15547 0.68994 0.94174 0.0
H368 H 0.24416 0.77859 0.94632 0.0
H369 H 0.44938 0.9412 0.07084 0.0
H370 H 0.40131 0.89338 0.07918 0.0
H371 H 0.30899 0.80857 0.09682 0.0
C372 C 0.13014 0.63528 0.05286 0.0
C373 C 0.15796 0.66292 0.05358 0.0
C374 C 0.267 0.77499 0.06394 0.0
C375 C 0.42066 0.94241 0.96115 0.0
C376 C 0.3933 0.91479 0.96535 0.0
C377 C 0.28605 0.81224 0.9795 0.0
C378 C 0.16731 0.68308 0.01411 0.0
C379 C 0.19592 0.71238 0.01659 0.0
C380 C 0.21987 0.73681 0.01896 0.0
C381 C 0.24851 0.76597 0.02113 0.0
H382 H 0.12337 0.61995 0.08355 0.0
H383 H 0.17216 0.66863 0.08513 0.0
H384 H 0.25992 0.76071 0.09676 0.0
H385 H 0.42583 0.95583 0.92797 0.0
H386 H 0.37776 0.90745 0.93553 0.0
H387 H 0.29316 0.82637 0.94641 0.0
C388 C 0.38604 0.89721 0.00838 0.0
C389 C 0.3576 0.87012 0.01496 0.0
C390 C 0.33358 0.84764 0.0189 0.0
C391 C 0.30464 0.82069 0.02123 0.0
C392 C 0.50108 0.43438 0.02336 0.0
C393 C 0.51297 0.45483 0.98344 0.0
C394 C 0.5036 0.41358 0.02371 0.0
C395 C 0.51199 0.3294 0.01658 0.0
C396 C 0.56297 0.2352 0.96059 0.0
C397 C 0.55039 0.2153 0.00224 0.0
C398 C 0.55997 0.25523 0.95422 0.0
C399 C 0.53995 0.32908 0.93426 0.0
H400 H 0.49077 0.43531 0.05539 0.0
H401 H 0.49443 0.39807 0.05502 0.0
H402 H 0.50123 0.32938 0.04884 0.0
H403 H 0.57478 0.23512 0.93192 0.0
H404 H 0.56906 0.26933 0.92073 0.0
H405 H 0.55097 0.32935 0.90235 0.0
C406 C 0.52815 0.45493 0.94509 0.0
C407 C 0.53046 0.43403 0.94512 0.0
C408 C 0.53664 0.34919 0.93508 0.0
C409 C 0.53636 0.21806 0.03937 0.0
C410 C 0.5338 0.23843 0.03342 0.0
C411 C 0.5153 0.3093 0.01576 0.0
C412 C 0.518 0.41303 0.98409 0.0
C413 C 0.51951 0.39055 0.98232 0.0
C414 C 0.52111 0.37201 0.97988 0.0
C415 C 0.52307 0.34986 0.97686 0.0
H416 H 0.53867 0.47165 0.91569 0.0
H417 H 0.54211 0.43441 0.91489 0.0
H418 H 0.54511 0.36462 0.90373 0.0
H419 H 0.52597 0.20345 0.07178 0.0
H420 H 0.52231 0.23928 0.06188 0.0
H421 H 0.50708 0.29414 0.04749 0.0
C422 C 0.54488 0.25644 0.98997 0.0
C423 C 0.54003 0.27538 0.98182 0.0
C424 C 0.5352 0.29065 0.97741 0.0
C425 C 0.52975 0.30944 0.97521 0.0
loop_
_geom_bond_atom_site_label_1
_geom_bond_atom_site_label_2
_geom_bond_distance
_geom_bond_site_symmetry_2
_ccdc_geom_bond_type
Nd0 C2 2.836 1_556 S
Nd0 O20 2.500 1_556 S
Nd0 O21 2.492 . S
Nd0 O22 2.487 . S
Nd0 O23 2.682 1_655 S
Nd0 O24 2.410 . S
Nd0 O29 2.414 1_556 S
Nd0 O31 2.424 1_656 S
Nd1 C11 2.836 1_554 S
Nd1 O23 2.414 1_554 S
Nd1 O25 2.424 1_454 S
Nd1 O26 2.500 1_554 S
Nd1 O27 2.492 . S
Nd1 O28 2.487 . S
Nd1 O29 2.682 1_455 S
Nd1 O30 2.410 . S
C2 Nd0 2.836 1_554 S
C2 C3 1.498 . S
C2 O20 1.258 . S
C2 O21 1.239 1_554 S
C3 C2 1.498 . S
C3 C4 1.366 . S
C3 C8 1.407 1_554 S
C4 C3 1.366 . S
C4 C5 1.392 . S
C4 H32 0.930 . S
C5 C4 1.392 . S
C5 C6 1.398 . S
C5 H33 0.929 . S
C6 C5 1.398 . S
C6 C7 1.352 1_554 S
C7 C6 1.352 1_556 S
C7 C8 1.384 . S
C7 H34 0.930 . S
C8 C3 1.407 1_556 S
C8 C7 1.384 . S
C8 H35 0.929 . S
C9 O22 1.266 . S
C9 O23 1.261 1_655 S
C10 O24 1.251 . S
C10 O25 1.268 . S
C11 Nd1 2.836 1_556 S
C11 C12 1.498 . S
C11 O26 1.258 . S
C11 O27 1.239 1_556 S
C12 C11 1.498 . S
C12 C13 1.366 . S
C12 C17 1.407 1_556 S
C13 C12 1.366 . S
C13 C14 1.392 . S
C13 H36 0.930 . S
C14 C13 1.392 . S
C14 C15 1.398 . S
C14 H37 0.929 . S
C15 C14 1.398 . S
C15 C16 1.352 1_556 S
C16 C15 1.352 1_554 S
C16 C17 1.384 . S
C16 H38 0.930 . S
C17 C12 1.407 1_554 S
C17 C16 1.384 . S
C17 H39 0.929 . S
C18 O28 1.241 . S
C18 O29 1.273 1_455 S
C19 O30 1.251 . S
C19 O31 1.269 . S
O20 Nd0 2.500 1_554 S
O20 C2 1.258 . S
O21 Nd0 2.492 . S
O21 C2 1.239 1_556 S
O22 Nd0 2.487 . S
O22 C9 1.266 . S
O23 Nd0 2.682 1_455 S
O23 Nd1 2.414 1_556 S
O23 C9 1.261 1_455 S
O24 Nd0 2.410 . S
O24 C10 1.251 . S
O25 Nd1 2.424 1_656 S
O25 C10 1.268 . S
O26 Nd1 2.500 1_556 S
O26 C11 1.258 . S
O27 Nd1 2.492 . S
O27 C11 1.239 1_554 S
O28 Nd1 2.487 . S
O28 C18 1.241 . S
O29 Nd0 2.414 1_554 S
O29 Nd1 2.682 1_655 S
O29 C18 1.273 1_655 S
O30 Nd1 2.410 . S
O30 C19 1.251 . S
O31 Nd0 2.424 1_454 S
O31 C19 1.269 . S
H32 C4 0.930 . S
H33 C5 0.929 . S
H34 C7 0.930 . S
H35 C8 0.929 . S
H36 C13 0.930 . S
H37 C14 0.929 . S
H38 C16 0.930 . S
H39 C17 0.929 . S
Nd40 C42 2.836 . S
Nd40 O60 2.500 1_554 S
Nd40 O61 2.492 . S
Nd40 O62 2.487 . S
Nd40 O63 2.682 1_545 S
Nd40 O64 2.410 . S
Nd40 O69 2.414 1_554 S
Nd40 O71 2.424 1_545 S
Nd41 C51 2.836 . S
Nd41 O63 2.414 1_556 S
Nd41 O65 2.424 1_565 S
Nd41 O66 2.500 1_556 S
Nd41 O67 2.492 . S
Nd41 O68 2.487 . S
Nd41 O69 2.682 1_565 S
Nd41 O70 2.410 . S
C42 Nd40 2.836 . S
C42 C43 1.498 . S
C42 O60 1.258 1_554 S
C42 O61 1.239 . S
C43 C42 1.498 . S
C43 C44 1.366 1_554 S
C43 C48 1.407 . S
C44 C43 1.366 1_556 S
C44 C45 1.392 . S
C44 H72 0.930 . S
C45 C44 1.392 . S
C45 C46 1.398 1_556 S
C45 H73 0.929 . S
C46 C45 1.398 1_554 S
C46 C47 1.352 . S
C47 C46 1.352 . S
C47 C48 1.384 . S
C47 H74 0.930 . S
C48 C43 1.407 . S
C48 C47 1.384 . S
C48 H75 0.929 . S
C49 O62 1.241 . S
C49 O63 1.273 1_545 S
C50 O64 1.251 . S
C50 O65 1.268 1_554 S
C51 Nd41 2.836 . S
C51 C52 1.498 . S
C51 O66 1.258 1_556 S
C51 O67 1.239 . S
C52 C51 1.498 . S
C52 C53 1.366 1_556 S
C52 C57 1.407 . S
C53 C52 1.366 1_554 S
C53 C54 1.392 . S
C53 H76 0.930 . S
C54 C53 1.392 . S
C54 C55 1.398 1_554 S
C54 H77 0.929 . S
C55 C54 1.398 1_556 S
C55 C56 1.352 . S
C56 C55 1.352 . S
C56 C57 1.384 . S
C56 H78 0.930 . S
C57 C52 1.407 . S
C57 C56 1.384 . S
C57 H79 0.929 . S
C58 O68 1.241 . S
C58 O69 1.273 1_565 S
C59 O70 1.251 . S
C59 O71 1.268 1_556 S
O60 Nd40 2.500 1_556 S
O60 C42 1.258 1_556 S
O61 Nd40 2.492 . S
O61 C42 1.239 . S
O62 Nd40 2.487 . S
O62 C49 1.241 . S
O63 Nd40 2.682 1_565 S
O63 Nd41 2.414 1_554 S
O63 C49 1.273 1_565 S
O64 Nd40 2.410 . S
O64 C50 1.251 . S
O65 Nd41 2.424 1_545 S
O65 C50 1.268 1_556 S
O66 Nd41 2.500 1_554 S
O66 C51 1.258 1_554 S
O67 Nd41 2.492 . S
O67 C51 1.239 . S
O68 Nd41 2.487 . S
O68 C58 1.241 . S
O69 Nd40 2.414 1_556 S
O69 Nd41 2.682 1_545 S
O69 C58 1.273 1_545 S
O70 Nd41 2.410 . S
O70 C59 1.251 . S
O71 Nd40 2.424 1_565 S
O71 C59 1.268 1_554 S
H72 C44 0.930 . S
H73 C45 0.929 . S
H74 C47 0.930 . S
H75 C48 0.929 . S
H76 C53 0.930 . S
H77 C54 0.929 . S
H78 C56 0.930 . S
H79 C57 0.929 . S
Nd80 C82 2.836 1_554 S
Nd80 O100 2.500 1_554 S
Nd80 O101 2.492 . S
Nd80 O102 2.487 . S
Nd80 O103 2.682 . S
Nd80 O104 2.410 . S
Nd80 O109 2.414 1_554 S
Nd80 O111 2.425 1_554 S
Nd81 C91 2.836 1_556 S
Nd81 O103 2.414 1_556 S
Nd81 O105 2.425 1_556 S
Nd81 O106 2.500 1_556 S
Nd81 O107 2.492 . S
Nd81 O108 2.487 . S
Nd81 O109 2.682 . S
Nd81 O110 2.410 . S
C82 Nd80 2.836 1_556 S
C82 C83 1.498 . S
C82 O100 1.258 . S
C82 O101 1.239 1_556 S
C83 C82 1.498 . S
C83 C84 1.366 . S
C83 C88 1.407 1_556 S
C84 C83 1.366 . S
C84 C85 1.392 . S
C84 H112 0.930 . S
C85 C84 1.392 . S
C85 C86 1.398 . S
C85 H113 0.929 . S
C86 C85 1.398 . S
C86 C87 1.352 1_556 S
C87 C86 1.352 1_554 S
C87 C88 1.384 . S
C87 H114 0.930 . S
C88 C83 1.407 1_554 S
C88 C87 1.384 . S
C88 H115 0.929 . S
C89 O102 1.241 . S
C89 O103 1.273 . S
C90 O104 1.251 . S
C90 O105 1.270 . S
C91 Nd81 2.836 1_554 S
C91 C92 1.498 . S
C91 O106 1.258 . S
C91 O107 1.239 1_554 S
C92 C91 1.498 . S
C92 C93 1.366 . S
C92 C97 1.407 1_554 S
C93 C92 1.366 . S
C93 C94 1.392 . S
C93 H116 0.930 . S
C94 C93 1.392 . S
C94 C95 1.398 . S
C94 H117 0.929 . S
C95 C94 1.398 . S
C95 C96 1.352 1_554 S
C96 C95 1.352 1_556 S
C96 C97 1.384 . S
C96 H118 0.930 . S
C97 C92 1.407 1_556 S
C97 C96 1.384 . S
C97 H119 0.929 . S
C98 O108 1.241 . S
C98 O109 1.273 . S
C99 O110 1.251 . S
C99 O111 1.269 . S
O100 Nd80 2.500 1_556 S
O100 C82 1.258 . S
O101 Nd80 2.492 . S
O101 C82 1.239 1_554 S
O102 Nd80 2.487 . S
O102 C89 1.241 . S
O103 Nd80 2.682 . S
O103 Nd81 2.414 1_554 S
O103 C89 1.273 . S
O104 Nd80 2.410 . S
O104 C90 1.251 . S
O105 Nd81 2.425 1_554 S
O105 C90 1.270 . S
O106 Nd81 2.500 1_554 S
O106 C91 1.258 . S
O107 Nd81 2.492 . S
O107 C91 1.239 1_556 S
O108 Nd81 2.487 . S
O108 C98 1.241 . S
O109 Nd80 2.414 1_556 S
O109 Nd81 2.682 . S
O109 C98 1.273 . S
O110 Nd81 2.410 . S
O110 C99 1.251 . S
O111 Nd80 2.425 1_556 S
O111 C99 1.269 . S
H112 C84 0.930 . S
H113 C85 0.929 . S
H114 C87 0.930 . S
H115 C88 0.929 . S
H116 C93 0.930 . S
H117 C94 0.929 . S
H118 C96 0.930 . S
H119 C97 0.929 . S
C120 C121 1.420 . S
C120 C122 1.385 . S
C120 H128 0.928 . S
C121 C120 1.420 . S
C121 C134 1.420 1_455 S
C122 C120 1.385 . S
C122 H129 0.929 . S
C122 C140 1.407 . S
C123 H130 0.928 . S
C123 C139 1.374 . S
C123 C143 1.395 . S
C124 C125 1.420 . S
C124 C126 1.385 . S
C124 H131 0.928 . S
C125 C124 1.420 . S
C125 C137 1.420 1_655 S
C126 C124 1.385 . S
C126 H132 0.929 . S
C126 C150 1.441 . S
C127 H133 0.928 . S
C127 C136 1.374 . S
C127 C153 1.396 . S
H128 C120 0.928 . S
H129 C122 0.929 . S
H130 C123 0.928 . S
H131 C124 0.928 . S
H132 C126 0.929 . S
H133 C127 0.928 . S
C134 C121 1.420 1_655 S
C134 C135 1.385 . S
C134 H144 0.928 . S
C135 C134 1.385 . S
C135 C140 1.407 1_655 S
C135 H145 0.929 . S
C136 C127 1.374 . S
C136 C143 1.381 1_655 S
C136 H146 0.928 . S
C137 C125 1.420 1_455 S
C137 C138 1.385 . S
C137 H147 0.928 . S
C138 C137 1.385 . S
C138 H148 0.929 . S
C138 C150 1.379 1_455 S
C139 C123 1.374 . S
C139 H149 0.928 . S
C139 C153 1.379 1_455 S
C140 C122 1.407 . S
C140 C135 1.407 1_455 S
C140 C141 1.422 . S
C141 C140 1.422 . S
C141 C142 1.234 . S
C142 C141 1.234 . S
C142 C143 1.406 . S
C143 C123 1.395 . S
C143 C136 1.381 1_455 S
C143 C142 1.406 . S
H144 C134 0.928 . S
H145 C135 0.929 . S
H146 C136 0.928 . S
H147 C137 0.928 . S
H148 C138 0.929 . S
H149 C139 0.928 . S
C150 C126 1.441 . S
C150 C138 1.379 1_655 S
C150 C151 1.426 . S
C151 C150 1.426 . S
C151 C152 1.229 . S
C152 C151 1.229 . S
C152 C153 1.404 . S
C153 C127 1.396 . S
C153 C139 1.379 1_655 S
C153 C152 1.404 . S
C154 C155 1.458 . S
C154 C156 1.385 . S
C154 H162 0.928 . S
C155 C154 1.458 . S
C155 C168 1.378 1_545 S
C156 C154 1.385 . S
C156 H163 0.929 . S
C156 C174 1.407 1_545 S
C157 H164 0.928 . S
C157 C173 1.374 . S
C157 C177 1.388 1_545 S
C158 C159 1.427 . S
C158 C160 1.385 . S
C158 H165 0.928 . S
C159 C158 1.427 . S
C159 C171 1.412 1_565 S
C160 C158 1.385 . S
C160 H166 0.929 . S
C160 C184 1.407 . S
C161 H167 0.928 . S
C161 C170 1.374 . S
C161 C187 1.388 . S
H162 C154 0.928 . S
H163 C156 0.929 . S
H164 C157 0.928 . S
H165 C158 0.928 . S
H166 C160 0.929 . S
H167 C161 0.928 . S
C168 C155 1.378 1_565 S
C168 C169 1.385 . S
C168 H178 0.928 . S
C169 C168 1.385 . S
C169 C174 1.407 . S
C169 H179 0.929 . S
C170 C161 1.374 . S
C170 C177 1.388 . S
C170 H180 0.928 . S
C171 C159 1.412 1_545 S
C171 C172 1.385 . S
C171 H181 0.928 . S
C172 C171 1.385 . S
C172 H182 0.929 . S
C172 C184 1.407 1_545 S
C173 C157 1.374 . S
C173 H183 0.928 . S
C173 C187 1.388 1_545 S
C174 C156 1.407 1_565 S
C174 C169 1.407 . S
C174 C175 1.428 . S
C175 C174 1.428 . S
C175 C176 1.230 . S
C176 C175 1.230 . S
C176 C177 1.405 . S
C177 C157 1.388 1_565 S
C177 C170 1.388 . S
C177 C176 1.405 . S
H178 C168 0.928 . S
H179 C169 0.929 . S
H180 C170 0.928 . S
H181 C171 0.928 . S
H182 C172 0.929 . S
H183 C173 0.928 . S
C184 C160 1.407 . S
C184 C172 1.407 1_565 S
C184 C185 1.428 . S
C185 C184 1.428 . S
C185 C186 1.230 . S
C186 C185 1.230 . S
C186 C187 1.405 . S
C187 C161 1.388 . S
C187 C173 1.388 1_565 S
C187 C186 1.405 . S
C188 C189 1.420 . S
C188 C190 1.385 . S
C188 H196 0.928 . S
C189 C188 1.420 . S
C189 C202 1.420 . S
C190 C188 1.385 . S
C190 H197 0.929 . S
C190 C208 1.407 . S
C191 H198 0.928 . S
C191 C207 1.374 . S
C191 C211 1.388 . S
C192 C193 1.420 . S
C192 C194 1.385 . S
C192 H199 0.928 . S
C193 C192 1.420 . S
C193 C205 1.420 . S
C194 C192 1.385 . S
C194 H200 0.929 . S
C194 C218 1.407 . S
C195 H201 0.928 . S
C195 C204 1.374 . S
C195 C221 1.388 . S
H196 C188 0.928 . S
H197 C190 0.929 . S
H198 C191 0.928 . S
H199 C192 0.928 . S
H200 C194 0.929 . S
H201 C195 0.928 . S
C202 C189 1.420 . S
C202 C203 1.385 . S
C202 H212 0.928 . S
C203 C202 1.385 . S
C203 C208 1.407 . S
C203 H213 0.929 . S
C204 C195 1.374 . S
C204 C211 1.388 . S
C204 H214 0.928 . S
C205 C193 1.420 . S
C205 C206 1.385 . S
C205 H215 0.928 . S
C206 C205 1.385 . S
C206 H216 0.929 . S
C206 C218 1.407 . S
C207 C191 1.374 . S
C207 H217 0.928 . S
C207 C221 1.388 . S
C208 C190 1.407 . S
C208 C203 1.407 . S
C208 C209 1.428 . S
C209 C208 1.428 . S
C209 C210 1.230 . S
C210 C209 1.230 . S
C210 C211 1.405 . S
C211 C191 1.388 . S
C211 C204 1.388 . S
C211 C210 1.405 . S
H212 C202 0.928 . S
H213 C203 0.929 . S
H214 C204 0.928 . S
H215 C205 0.928 . S
H216 C206 0.929 . S
H217 C207 0.928 . S
C218 C194 1.407 . S
C218 C206 1.407 . S
C218 C219 1.428 . S
C219 C218 1.428 . S
C219 C220 1.230 . S
C220 C219 1.230 . S
C220 C221 1.405 . S
C221 C195 1.388 . S
C221 C207 1.388 . S
C221 C220 1.405 . S
C222 C223 1.420 . S
C222 C224 1.385 . S
C222 H230 0.928 . S
C223 C222 1.420 . S
C223 C236 1.420 1_556 S
C224 C222 1.385 . S
C224 H231 0.929 . S
C224 C242 1.407 . S
C225 H232 0.928 . S
C225 C241 1.374 . S
C225 C245 1.388 1_556 S
C226 C227 1.420 1_554 S
C226 C228 1.385 . S
C226 H233 0.928 . S
C227 C226 1.420 1_556 S
C227 C239 1.420 . S
C228 C226 1.385 . S
C228 H234 0.929 . S
C228 C252 1.407 1_554 S
C229 H235 0.928 . S
C229 C238 1.374 . S
C229 C255 1.388 . S
H230 C222 0.928 . S
H231 C224 0.929 . S
H232 C225 0.928 . S
H233 C226 0.928 . S
H234 C228 0.929 . S
H235 C229 0.928 . S
C236 C223 1.420 1_554 S
C236 C237 1.385 . S
C236 H246 0.928 . S
C237 C236 1.385 . S
C237 C242 1.407 1_554 S
C237 H247 0.929 . S
C238 C229 1.374 . S
C238 C245 1.388 . S
C238 H248 0.928 . S
C239 C227 1.420 . S
C239 C240 1.385 . S
C239 H249 0.928 . S
C240 C239 1.385 . S
C240 H250 0.929 . S
C240 C252 1.407 . S
C241 C225 1.374 . S
C241 H251 0.928 . S
C241 C255 1.388 1_556 S
C242 C224 1.407 . S
C242 C237 1.407 1_556 S
C242 C243 1.430 . S
C243 C242 1.430 . S
C243 C244 1.228 1_556 S
C244 C243 1.228 1_554 S
C244 C245 1.405 . S
C245 C225 1.388 1_554 S
C245 C238 1.388 . S
C245 C244 1.405 . S
H246 C236 0.928 . S
H247 C237 0.929 . S
H248 C238 0.928 . S
H249 C239 0.928 . S
H250 C240 0.929 . S
H251 C241 0.928 . S
C252 C228 1.407 1_556 S
C252 C240 1.407 . S
C252 C253 1.428 . S
C253 C252 1.428 . S
C253 C254 1.230 1_556 S
C254 C253 1.230 1_554 S
C254 C255 1.405 . S
C255 C229 1.388 . S
C255 C241 1.388 1_554 S
C255 C254 1.405 . S
C256 C257 1.420 1_556 S
C256 C258 1.385 . S
C256 H264 0.928 . S
C257 C256 1.420 1_554 S
C257 C270 1.420 . S
C258 C256 1.385 . S
C258 H265 0.929 . S
C258 C276 1.407 1_556 S
C259 H266 0.928 . S
C259 C275 1.374 . S
C259 C279 1.388 1_556 S
C260 C261 1.420 . S
C260 C262 1.385 . S
C260 H267 0.928 . S
C261 C260 1.420 . S
C261 C273 1.420 1_554 S
C262 C260 1.385 . S
C262 H268 0.929 . S
C262 C286 1.407 . S
C263 H269 0.928 . S
C263 C272 1.374 . S
C263 C289 1.388 . S
H264 C256 0.928 . S
H265 C258 0.929 . S
H266 C259 0.928 . S
H267 C260 0.928 . S
H268 C262 0.929 . S
H269 C263 0.928 . S
C270 C257 1.420 . S
C270 C271 1.385 . S
C270 H280 0.928 . S
C271 C270 1.385 . S
C271 C276 1.407 . S
C271 H281 0.929 . S
C272 C263 1.374 . S
C272 C279 1.388 . S
C272 H282 0.928 . S
C273 C261 1.420 1_556 S
C273 C274 1.385 . S
C273 H283 0.928 . S
C274 C273 1.385 . S
C274 H284 0.929 . S
C274 C286 1.407 1_556 S
C275 C259 1.374 . S
C275 H285 0.928 . S
C275 C289 1.388 1_556 S
C276 C258 1.407 1_554 S
C276 C271 1.407 . S
C276 C277 1.428 . S
C277 C276 1.428 . S
C277 C278 1.230 . S
C278 C277 1.230 . S
C278 C279 1.405 . S
C279 C259 1.388 1_554 S
C279 C272 1.388 . S
C279 C278 1.405 . S
H280 C270 0.928 . S
H281 C271 0.929 . S
H282 C272 0.928 . S
H283 C273 0.928 . S
H284 C274 0.929 . S
H285 C275 0.928 . S
C286 C262 1.407 . S
C286 C274 1.407 1_554 S
C286 C287 1.428 . S
C287 C286 1.428 . S
C287 C288 1.230 . S
C288 C287 1.230 . S
C288 C289 1.405 . S
C289 C263 1.388 . S
C289 C275 1.388 1_554 S
C289 C288 1.405 . S
C290 C291 1.420 . S
C290 C292 1.385 . S
C290 H298 0.928 . S
C291 C290 1.420 . S
C291 C304 1.420 1_556 S
C292 C290 1.385 . S
C292 H299 0.929 . S
C292 C310 1.407 1_556 S
C293 H300 0.928 . S
C293 C309 1.374 . S
C293 C313 1.388 1_556 S
C294 C295 1.420 . S
C294 C296 1.385 . S
C294 H301 0.928 . S
C295 C294 1.420 . S
C295 C307 1.420 1_554 S
C296 C294 1.385 . S
C296 H302 0.929 . S
C296 C320 1.407 . S
C297 H303 0.928 . S
C297 C306 1.374 . S
C297 C323 1.388 . S
H298 C290 0.928 . S
H299 C292 0.929 . S
H300 C293 0.928 . S
H301 C294 0.928 . S
H302 C296 0.929 . S
H303 C297 0.928 . S
C304 C291 1.420 1_554 S
C304 C305 1.385 . S
C304 H314 0.928 . S
C305 C304 1.385 . S
C305 C310 1.407 . S
C305 H315 0.929 . S
C306 C297 1.374 . S
C306 C313 1.388 . S
C306 H316 0.928 . S
C307 C295 1.420 1_556 S
C307 C308 1.385 . S
C307 H317 0.928 . S
C308 C307 1.385 . S
C308 H318 0.929 . S
C308 C320 1.407 1_556 S
C309 C293 1.374 . S
C309 H319 0.928 . S
C309 C323 1.388 1_556 S
C310 C292 1.407 1_554 S
C310 C305 1.407 . S
C310 C311 1.428 . S
C311 C310 1.428 . S
C311 C312 1.230 . S
C312 C311 1.230 . S
C312 C313 1.405 . S
C313 C293 1.388 1_554 S
C313 C306 1.388 . S
C313 C312 1.405 . S
H314 C304 0.928 . S
H315 C305 0.929 . S
H316 C306 0.928 . S
H317 C307 0.928 . S
H318 C308 0.929 . S
H319 C309 0.928 . S
C320 C296 1.407 . S
C320 C308 1.407 1_554 S
C320 C321 1.428 . S
C321 C320 1.428 . S
C321 C322 1.230 . S
C322 C321 1.230 . S
C322 C323 1.405 . S
C323 C297 1.388 . S
C323 C309 1.388 1_554 S
C323 C322 1.405 . S
C324 C325 1.420 . S
C324 C326 1.385 . S
C324 H332 0.928 . S
C325 C324 1.420 . S
C325 C338 1.420 1_554 S
C326 C324 1.385 . S
C326 H333 0.929 . S
C326 C344 1.407 . S
C327 H334 0.928 . S
C327 C343 1.374 . S
C327 C347 1.388 1_554 S
C328 C329 1.420 1_556 S
C328 C330 1.385 . S
C328 H335 0.928 . S
C329 C328 1.420 1_554 S
C329 C341 1.420 . S
C330 C328 1.385 . S
C330 H336 0.929 . S
C330 C354 1.407 1_556 S
C331 H337 0.928 . S
C331 C340 1.374 . S
C331 C357 1.388 . S
H332 C324 0.928 . S
H333 C326 0.929 . S
H334 C327 0.928 . S
H335 C328 0.928 . S
H336 C330 0.929 . S
H337 C331 0.928 . S
C338 C325 1.420 1_556 S
C338 C339 1.385 . S
C338 H348 0.928 . S
C339 C338 1.385 . S
C339 C344 1.407 1_556 S
C339 H349 0.929 . S
C340 C331 1.374 . S
C340 C347 1.388 . S
C340 H350 0.928 . S
C341 C329 1.420 . S
C341 C342 1.385 . S
C341 H351 0.928 . S
C342 C341 1.385 . S
C342 H352 0.929 . S
C342 C354 1.407 . S
C343 C327 1.374 . S
C343 H353 0.928 . S
C343 C357 1.388 1_554 S
C344 C326 1.407 . S
C344 C339 1.407 1_554 S
C344 C345 1.428 . S
C345 C344 1.428 . S
C345 C346 1.230 1_554 S
C346 C345 1.230 1_556 S
C346 C347 1.405 . S
C347 C327 1.388 1_556 S
C347 C340 1.388 . S
C347 C346 1.405 . S
H348 C338 0.928 . S
H349 C339 0.929 . S
H350 C340 0.928 . S
H351 C341 0.928 . S
H352 C342 0.929 . S
H353 C343 0.928 . S
C354 C330 1.407 1_554 S
C354 C342 1.407 . S
C354 C355 1.428 . S
C355 C354 1.428 . S
C355 C356 1.230 1_554 S
C356 C355 1.230 1_556 S
C356 C357 1.405 . S
C357 C331 1.388 . S
C357 C343 1.388 1_556 S
C357 C356 1.405 . S
C358 C359 1.420 1_556 S
C358 C360 1.385 . S
C358 H366 0.928 . S
C359 C358 1.420 1_554 S
C359 C372 1.420 . S
C360 C358 1.385 . S
C360 H367 0.929 . S
C360 C378 1.407 1_556 S
C361 H368 0.928 . S
C361 C377 1.374 . S
C361 C381 1.388 1_556 S
C362 C363 1.420 . S
C362 C364 1.385 . S
C362 H369 0.928 . S
C363 C362 1.420 . S
C363 C375 1.420 1_554 S
C364 C362 1.385 . S
C364 H370 0.929 . S
C364 C388 1.407 . S
C365 H371 0.928 . S
C365 C374 1.374 . S
C365 C391 1.388 . S
H366 C358 0.928 . S
H367 C360 0.929 . S
H368 C361 0.928 . S
H369 C362 0.928 . S
H370 C364 0.929 . S
H371 C365 0.928 . S
C372 C359 1.420 . S
C372 C373 1.385 . S
C372 H382 0.928 . S
C373 C372 1.385 . S
C373 C378 1.407 . S
C373 H383 0.929 . S
C374 C365 1.374 . S
C374 C381 1.388 . S
C374 H384 0.928 . S
C375 C363 1.420 1_556 S
C375 C376 1.385 . S
C375 H385 0.928 . S
C376 C375 1.385 . S
C376 H386 0.929 . S
C376 C388 1.407 1_556 S
C377 C361 1.374 . S
C377 H387 0.928 . S
C377 C391 1.388 1_556 S
C378 C360 1.407 1_554 S
C378 C373 1.407 . S
C378 C379 1.428 . S
C379 C378 1.428 . S
C379 C380 1.230 . S
C380 C379 1.230 . S
C380 C381 1.405 . S
C381 C361 1.388 1_554 S
C381 C374 1.388 . S
C381 C380 1.405 . S
H382 C372 0.928 . S
H383 C373 0.929 . S
H384 C374 0.928 . S
H385 C375 0.928 . S
H386 C376 0.929 . S
H387 C377 0.928 . S
C388 C364 1.407 . S
C388 C376 1.407 1_554 S
C388 C389 1.428 . S
C389 C388 1.428 . S
C389 C390 1.230 . S
C390 C389 1.230 . S
C390 C391 1.405 . S
C391 C365 1.388 . S
C391 C377 1.388 1_554 S
C391 C390 1.405 . S
C392 C393 1.420 1_554 S
C392 C394 1.385 . S
C392 H400 0.928 . S
C393 C392 1.420 1_556 S
C393 C406 1.420 . S
C394 C392 1.385 . S
C394 H401 0.929 . S
C394 C412 1.407 1_554 S
C395 H402 0.928 . S
C395 C411 1.374 . S
C395 C415 1.388 1_554 S
C396 C397 1.420 1_556 S
C396 C398 1.385 . S
C396 H403 0.928 . S
C397 C396 1.420 1_554 S
C397 C409 1.420 . S
C398 C396 1.385 . S
C398 H404 0.929 . S
C398 C422 1.407 . S
C399 H405 0.928 . S
C399 C408 1.374 . S
C399 C425 1.388 . S
H400 C392 0.928 . S
H401 C394 0.929 . S
H402 C395 0.928 . S
H403 C396 0.928 . S
H404 C398 0.929 . S
H405 C399 0.928 . S
C406 C393 1.420 . S
C406 C407 1.385 . S
C406 H416 0.928 . S
C407 C406 1.385 . S
C407 C412 1.407 . S
C407 H417 0.929 . S
C408 C399 1.374 . S
C408 C415 1.388 . S
C408 H418 0.928 . S
C409 C397 1.420 . S
C409 C410 1.385 . S
C409 H419 0.928 . S
C410 C409 1.385 . S
C410 H420 0.929 . S
C410 C422 1.407 1_554 S
C411 C395 1.374 . S
C411 H421 0.928 . S
C411 C425 1.388 1_554 S
C412 C394 1.407 1_556 S
C412 C407 1.407 . S
C412 C413 1.428 . S
C413 C412 1.428 . S
C413 C414 1.230 . S
C414 C413 1.230 . S
C414 C415 1.405 . S
C415 C395 1.388 1_556 S
C415 C408 1.388 . S
C415 C414 1.405 . S
H416 C406 0.928 . S
H417 C407 0.929 . S
H418 C408 0.928 . S
H419 C409 0.928 . S
H420 C410 0.929 . S
H421 C411 0.928 . S
C422 C398 1.407 . S
C422 C410 1.407 1_556 S
C422 C423 1.428 . S
C423 C422 1.428 . S
C423 C424 1.230 . S
C424 C423 1.230 . S
C424 C425 1.405 . S
C425 C399 1.388 . S
C425 C411 1.388 1_556 S
C425 C424 1.405 . S
C121 C9 1.451 1_455 S
C125 C18 1.431 1_655 S
C155 C49 1.465 . S
C159 C58 1.463 . S
C189 C98 1.431 . S
C193 C89 1.458 . S
C223 C15 0.924 . S
C227 C86 0.921 . S
C257 C50 2.610 . S
C261 C10 2.634 1_554 S
C291 C55 1.877 . S
C295 C90 1.908 . S
C325 C6 0.911 . S
C329 C95 0.921 . S
C359 C19 2.629 . S
C363 C59 2.605 1_554 S
C393 C99 1.907 . S
C397 C46 1.877 . S
