# Generated by pormake.
# Topology smm, (6)-cn, num edge types: 1
# Building blocks:
#     Node 0, Type 0, BuildingBlock: FUNLAD_clean_sbu_0, # of connection points: 6
#     Node 1, Type 0, BuildingBlock: FUNLAD_clean_sbu_0, # of connection points: 6
#     Node 2, Type 0, BuildingBlock: FUNLAD_clean_sbu_0, # of connection points: 6
#     Node 3, Type 0, BuildingBlock: FUNLAD_clean_sbu_0, # of connection points: 6
#     Node 4, Type 0, BuildingBlock: FUNLAD_clean_sbu_0, # of connection points: 6
#     Node 5, Type 0, BuildingBlock: FUNLAD_clean_sbu_0, # of connection points: 6
#     Node 6, Type 0, BuildingBlock: FUNLAD_clean_sbu_0, # of connection points: 6
#     Node 7, Type 0, BuildingBlock: FUNLAD_clean_sbu_0, # of connection points: 6
#     Node 8, Type 0, BuildingBlock: FUNLAD_clean_sbu_0, # of connection points: 6
#     Edge 9, Type (0, 0), BuildingBlock: CIFDUS_clean_linker_0, # of connection points: 2
#     Edge 10, Type (0, 0), BuildingBlock: CIFDUS_clean_linker_0, # of connection points: 2
#     Edge 11, Type (0, 0), BuildingBlock: CIFDUS_clean_linker_0, # of connection points: 2
#     Edge 12, Type (0, 0), BuildingBlock: CIFDUS_clean_linker_0, # of connection points: 2
#     Edge 13, Type (0, 0), BuildingBlock: CIFDUS_clean_linker_0, # of connection points: 2
#     Edge 14, Type (0, 0), BuildingBlock: CIFDUS_clean_linker_0, # of connection points: 2
#     Edge 15, Type (0, 0), BuildingBlock: CIFDUS_clean_linker_0, # of connection points: 2
#     Edge 16, Type (0, 0), BuildingBlock: CIFDUS_clean_linker_0, # of connection points: 2
#     Edge 17, Type (0, 0), BuildingBlock: CIFDUS_clean_linker_0, # of connection points: 2
#     Edge 18, Type (0, 0), BuildingBlock: CIFDUS_clean_linker_0, # of connection points: 2
#     Edge 19, Type (0, 0), BuildingBlock: CIFDUS_clean_linker_0, # of connection points: 2
#     Edge 20, Type (0, 0), BuildingBlock: CIFDUS_clean_linker_0, # of connection points: 2
#     Edge 21, Type (0, 0), BuildingBlock: CIFDUS_clean_linker_0, # of connection points: 2
#     Edge 22, Type (0, 0), BuildingBlock: CIFDUS_clean_linker_0, # of connection points: 2
#     Edge 23, Type (0, 0), BuildingBlock: CIFDUS_clean_linker_0, # of connection points: 2
#     Edge 24, Type (0, 0), BuildingBlock: CIFDUS_clean_linker_0, # of connection points: 2
#     Edge 25, Type (0, 0), BuildingBlock: CIFDUS_clean_linker_0, # of connection points: 2
#     Edge 26, Type (0, 0), BuildingBlock: CIFDUS_clean_linker_0, # of connection points: 2
#     Edge 27, Type (0, 0), BuildingBlock: CIFDUS_clean_linker_0, # of connection points: 2
#     Edge 28, Type (0, 0), BuildingBlock: CIFDUS_clean_linker_0, # of connection points: 2
#     Edge 29, Type (0, 0), BuildingBlock: CIFDUS_clean_linker_0, # of connection points: 2
#     Edge 30, Type (0, 0), BuildingBlock: CIFDUS_clean_linker_0, # of connection points: 2
#     Edge 31, Type (0, 0), BuildingBlock: CIFDUS_clean_linker_0, # of connection points: 2
#     Edge 32, Type (0, 0), BuildingBlock: CIFDUS_clean_linker_0, # of connection points: 2
#     Edge 33, Type (0, 0), BuildingBlock: CIFDUS_clean_linker_0, # of connection points: 2
#     Edge 34, Type (0, 0), BuildingBlock: CIFDUS_clean_linker_0, # of connection points: 2
#     Edge 35, Type (0, 0), BuildingBlock: CIFDUS_clean_linker_0, # of connection points: 2
# Relax obj value: 0.446
# Max RMSD: 0.289
# Mean RMSD: 0.287
data_MOF--net-smm--node1-FUNLAD_clean_sbu_0--edge1-CIFDUS_clean_linker_0
_symmetry_space_group_name_H-M    P1
_symmetry_Int_Tables_number       1
_symmetry_cell_setting            triclinic
loop_
_symmetry_equiv_pos_as_xyz
'x, y, z'
_cell_length_a     42.442855
_cell_length_b     42.265638
_cell_length_c     19.398855
_cell_angle_alpha  90.485385
_cell_angle_beta   90.481386
_cell_angle_gamma 120.15803
loop_
_atom_site_label
_atom_site_type_symbol
_atom_site_fract_x
_atom_site_fract_y
_atom_site_fract_z
_atom_type_partial_charge
C0 C 0.94365 0.1085 0.0208 0.0
N1 N 0.01462 0.19228 0.16127 0.0
C2 C 0.98277 0.17316 0.19557 0.0
C3 C 0.98194 0.17447 0.26667 0.0
C4 C 0.0144 0.19465 0.30461 0.0
C5 C 0.04734 0.21387 0.26852 0.0
C6 C 0.0468 0.21243 0.19609 0.0
Zn7 Zn 0.00691 0.18794 0.05661 0.0
C8 C 0.04409 0.15849 0.98909 0.0
N9 N 0.97333 0.17011 0.84857 0.0
C10 C 0.94079 0.15771 0.81518 0.0
C11 C 0.00466 0.18164 0.81297 0.0
C12 C 0.00448 0.18189 0.74169 0.0
C13 C 0.97168 0.16979 0.70568 0.0
C14 C 0.93929 0.15704 0.74284 0.0
Zn15 Zn 0.98145 0.17484 0.95288 0.0
O16 O 0.96677 0.12864 0.06731 0.0
C17 C 0.9432 0.20136 0.03642 0.0
O18 O 0.94212 0.12258 0.96474 0.0
H19 H 0.03033 0.19136 0.83977 0.0
H20 H 0.9573 0.15739 0.16775 0.0
H21 H 0.9162 0.14857 0.84447 0.0
O22 O 0.96779 0.20146 0.07317 0.0
O23 O 0.94127 0.19281 0.97247 0.0
H24 H 0.07185 0.22744 0.1679 0.0
O25 O 0.02102 0.22727 0.93551 0.0
O26 O 0.04763 0.24608 0.03628 0.0
O27 O 0.02111 0.15531 0.94255 0.0
O28 O 0.04576 0.1745 0.04533 0.0
C29 C 0.04582 0.25211 0.9722 0.0
H30 H 0.9557 0.16024 0.29135 0.0
H31 H 0.07311 0.2297 0.29573 0.0
H32 H 0.0299 0.1912 0.71492 0.0
H33 H 0.9134 0.14727 0.71636 0.0
C34 C 0.83729 0.89174 0.9794 0.0
N35 N 0.82526 0.80846 0.83942 0.0
C36 C 0.81234 0.82737 0.8042 0.0
C37 C 0.81022 0.826 0.73304 0.0
C38 C 0.8227 0.80597 0.69604 0.0
C39 C 0.83665 0.78701 0.7331 0.0
C40 C 0.83753 0.78851 0.80552 0.0
Zn41 Zn 0.82163 0.81256 0.94383 0.0
C42 C 0.88804 0.84196 0.01415 0.0
N43 N 0.80513 0.82955 0.15101 0.0
C44 C 0.78492 0.84185 0.18344 0.0
C45 C 0.82486 0.81795 0.18756 0.0
C46 C 0.82435 0.81758 0.25881 0.0
C47 C 0.80364 0.82965 0.29385 0.0
C48 C 0.784 0.84241 0.25573 0.0
Zn49 Zn 0.8089 0.82524 0.04693 0.0
O50 O 0.84038 0.87179 0.9331 0.0
C51 C 0.74435 0.79877 0.9609 0.0
O52 O 0.82184 0.87749 0.03518 0.0
H53 H 0.84092 0.80836 0.16152 0.0
H54 H 0.80237 0.84292 0.8313 0.0
H55 H 0.76952 0.85105 0.15342 0.0
O56 O 0.76894 0.79868 0.92535 0.0
O57 O 0.75086 0.80739 0.02492 0.0
H58 H 0.84772 0.77365 0.83444 0.0
O59 O 0.79603 0.77275 0.06416 0.0
O60 O 0.80449 0.75451 0.96395 0.0
O61 O 0.86796 0.84474 0.05977 0.0
O62 O 0.87402 0.82634 0.95721 0.0
C63 C 0.79634 0.74818 0.02766 0.0
H64 H 0.79802 0.84002 0.70756 0.0
H65 H 0.84675 0.7713 0.70663 0.0
H66 H 0.84047 0.80829 0.28631 0.0
H67 H 0.76787 0.85215 0.28144 0.0
C68 C 0.15341 0.05202 0.02599 0.0
N69 N 0.16647 0.98161 0.16342 0.0
C70 C 0.17876 0.01353 0.19942 0.0
C71 C 0.18109 0.01448 0.27056 0.0
C72 C 0.16952 0.98205 0.30678 0.0
C73 C 0.1562 0.94903 0.26894 0.0
C74 C 0.15506 0.94946 0.19655 0.0
Zn75 Zn 0.17009 0.98935 0.05914 0.0
C76 C 0.10401 0.95121 0.98821 0.0
N77 N 0.18683 0.02329 0.85302 0.0
C78 C 0.20658 0.05611 0.82157 0.0
C79 C 0.16761 -0.00826 0.81555 0.0
C80 C 0.16823 -0.00801 0.74429 0.0
C81 C 0.18847 0.02509 0.71022 0.0
C82 C 0.20756 0.05769 0.74931 0.0
Zn83 Zn 0.18297 0.01507 0.95688 0.0
O84 O 0.1505 0.02898 0.07138 0.0
C85 C 0.24712 0.05425 0.04359 0.0
O86 O 0.16928 0.05382 0.97025 0.0
H87 H 0.15191 0.96585 0.84083 0.0
H88 H 0.18813 0.03901 0.17297 0.0
H89 H 0.22156 0.08088 0.85232 0.0
O90 O 0.22256 0.02919 0.07848 0.0
O91 O 0.2408 0.05623 0.97964 0.0
H92 H 0.14543 0.92437 0.16704 0.0
O93 O 0.19659 0.97605 0.93812 0.0
O94 O 0.18788 0.94907 0.03727 0.0
O95 O 0.12405 0.97442 0.94324 0.0
O96 O 0.11798 0.94983 0.04495 0.0
C97 C 0.19637 0.95118 0.97363 0.0
H98 H 0.19281 0.04082 0.29659 0.0
H99 H 0.14681 0.92327 0.29479 0.0
H100 H 0.15252 0.9664 0.71602 0.0
H101 H 0.2233 0.08381 0.72437 0.0
C102 C 0.71347 0.49456 0.31819 0.0
N103 N 0.64257 0.50501 0.17634 0.0
C104 C 0.67395 0.51636 0.14096 0.0
C105 C 0.67398 0.51681 0.06968 0.0
C106 C 0.64134 0.50516 0.03337 0.0
C107 C 0.60887 0.49249 0.07026 0.0
C108 C 0.61016 0.49292 0.14263 0.0
Zn109 Zn 0.6507 0.51047 0.2808 0.0
C110 C 0.61314 0.44514 0.35177 0.0
N111 N 0.68469 0.53037 0.48904 0.0
C112 C 0.71693 0.5502 0.52387 0.0
C113 C 0.65279 0.51176 0.52342 0.0
C114 C 0.652 0.51316 0.59451 0.0
C115 C 0.68452 0.53279 0.63246 0.0
C116 C 0.71749 0.55167 0.59634 0.0
Zn117 Zn 0.67674 0.525 0.38428 0.0
O118 O 0.69037 0.49111 0.27172 0.0
C119 C 0.71516 0.58808 0.29754 0.0
O120 O 0.7154 0.51102 0.37403 0.0
H121 H 0.6273 0.4961 0.4957 0.0
H122 H 0.69958 0.52606 0.16794 0.0
H123 H 0.74204 0.56477 0.49567 0.0
O124 O 0.69006 0.56282 0.26203 0.0
O125 O 0.71756 0.58274 0.36177 0.0
H126 H 0.58553 0.48402 0.17169 0.0
O127 O 0.63776 0.539 0.39948 0.0
O128 O 0.61044 0.52833 0.29911 0.0
O129 O 0.63642 0.46608 0.39733 0.0
O130 O 0.61151 0.45817 0.29444 0.0
C131 C 0.61279 0.53801 0.36248 0.0
H132 H 0.69945 0.52609 0.04314 0.0
H133 H 0.5831 0.48308 0.04356 0.0
H134 H 0.62574 0.49922 0.61921 0.0
H135 H 0.74331 0.5671 0.62357 0.0
C136 C 0.50419 0.22776 0.32898 0.0
N137 N 0.48869 0.14236 0.19143 0.0
C138 C 0.47713 0.16206 0.15486 0.0
C139 C 0.47687 0.16144 0.08359 0.0
C140 C 0.48908 0.1407 0.04857 0.0
C141 C 0.50164 0.12098 0.08677 0.0
C142 C 0.50095 0.12199 0.15906 0.0
Zn143 Zn 0.48548 0.14734 0.29548 0.0
C144 C 0.55274 0.17578 0.36358 0.0
N145 N 0.47221 0.16671 0.50324 0.0
C146 C 0.45244 0.17912 0.53694 0.0
C147 C 0.49101 0.15366 0.53855 0.0
C148 C 0.4896 0.15143 0.6096 0.0
C149 C 0.46952 0.16379 0.64637 0.0
C150 C 0.45085 0.17807 0.60923 0.0
Zn151 Zn 0.47508 0.16197 0.39885 0.0
O152 O 0.50581 0.20666 0.28328 0.0
C153 C 0.40989 0.13678 0.31437 0.0
O154 O 0.48956 0.21473 0.38604 0.0
H155 H 0.50624 0.14338 0.51154 0.0
H156 H 0.46781 0.17845 0.18088 0.0
H157 H 0.43759 0.18931 0.50791 0.0
O158 O 0.43344 0.13538 0.27764 0.0
O159 O 0.41727 0.14556 0.37821 0.0
H160 H 0.51023 0.10671 0.18912 0.0
O161 O 0.4605 0.10895 0.41671 0.0
O162 O 0.46654 0.08901 0.31649 0.0
O163 O 0.53392 0.18002 0.41 0.0
O164 O 0.53742 0.1594 0.30794 0.0
C165 C 0.45897 0.08338 0.38051 0.0
H166 H 0.46777 0.17769 0.05609 0.0
H167 H 0.51151 0.10485 0.06111 0.0
H168 H 0.50341 0.13899 0.63503 0.0
H169 H 0.43514 0.18811 0.63554 0.0
C170 C 0.76777 0.28296 0.31887 0.0
N171 N 0.84981 0.35321 0.18084 0.0
C172 C 0.83025 0.32137 0.14448 0.0
C173 C 0.83159 0.3207 0.07337 0.0
C174 C 0.85238 0.3533 0.03775 0.0
C175 C 0.87193 0.38622 0.07601 0.0
C176 C 0.87038 0.38552 0.14828 0.0
Zn177 Zn 0.84641 0.3456 0.28481 0.0
C178 C 0.81881 0.38414 0.35454 0.0
N179 N 0.83109 0.31322 0.49153 0.0
C180 C 0.81781 0.28037 0.52302 0.0
C181 C 0.84345 0.34478 0.52885 0.0
C182 C 0.84352 0.34446 0.60011 0.0
C183 C 0.83034 0.31128 0.63422 0.0
C184 C 0.81693 0.27872 0.59522 0.0
Zn185 Zn 0.83495 0.32119 0.38784 0.0
O186 O 0.78708 0.3058 0.27279 0.0
C187 C 0.85977 0.28178 0.3023 0.0
O188 O 0.78275 0.28178 0.37441 0.0
H189 H 0.85363 0.37066 0.50344 0.0
H190 H 0.81429 0.2958 0.17065 0.0
H191 H 0.80795 0.25561 0.49231 0.0
O192 O 0.85896 0.30586 0.26602 0.0
O193 O 0.85259 0.28072 0.36646 0.0
H194 H 0.88578 0.41053 0.17818 0.0
O195 O 0.88729 0.36074 0.40675 0.0
O196 O 0.90472 0.38591 0.30607 0.0
O197 O 0.8159 0.36126 0.40033 0.0
O198 O 0.83395 0.38517 0.29828 0.0
C199 C 0.91163 0.3849 0.37011 0.0
H200 H 0.81704 0.29444 0.04692 0.0
H201 H 0.88822 0.41208 0.05057 0.0
H202 H 0.85333 0.37003 0.62831 0.0
H203 H 0.80631 0.25257 0.62022 0.0
C204 C 0.2755 0.77375 0.68592 0.0
N205 N 0.34582 0.85668 0.82798 0.0
C206 C 0.31437 0.83683 0.86324 0.0
C207 C 0.31443 0.83711 0.93451 0.0
C208 C 0.34723 0.85774 0.97089 0.0
C209 C 0.37973 0.87749 0.93405 0.0
C210 C 0.37835 0.87678 0.86171 0.0
Zn211 Zn 0.33781 0.85329 0.7237 0.0
C212 C 0.37607 0.82559 0.65325 0.0
N213 N 0.30477 0.83734 0.51518 0.0
C214 C 0.27247 0.82466 0.48078 0.0
C215 C 0.33658 0.85062 0.48053 0.0
C216 C 0.3372 0.85259 0.40948 0.0
C217 C 0.3046 0.83959 0.37198 0.0
C218 C 0.27173 0.82539 0.40841 0.0
Zn219 Zn 0.31262 0.8408 0.6197 0.0
O220 O 0.29837 0.79399 0.73266 0.0
C221 C 0.27364 0.8658 0.70548 0.0
O222 O 0.27381 0.78782 0.62989 0.0
H223 H 0.36213 0.86078 0.50803 0.0
H224 H 0.28869 0.82089 0.83617 0.0
H225 H 0.24746 0.81419 0.50927 0.0
O226 O 0.29823 0.86584 0.74216 0.0
O227 O 0.27194 0.85782 0.64125 0.0
H228 H 0.40303 0.89229 0.83268 0.0
O229 O 0.35165 0.89392 0.60452 0.0
O230 O 0.37782 0.91177 0.70582 0.0
O231 O 0.35293 0.82246 0.60717 0.0
O232 O 0.37729 0.8407 0.71037 0.0
C233 C 0.37605 0.91855 0.6422 0.0
H234 H 0.28893 0.82091 0.96097 0.0
H235 H 0.40562 0.89358 0.96081 0.0
H236 H 0.36338 0.86496 0.38449 0.0
H237 H 0.24587 0.81492 0.38148 0.0
C238 C 0.17009 0.55666 0.65093 0.0
N239 N 0.15626 0.4718 0.51324 0.0
C240 C 0.14339 0.49072 0.47793 0.0
C241 C 0.14131 0.48933 0.40677 0.0
C242 C 0.15389 0.46937 0.36984 0.0
C243 C 0.16763 0.45025 0.40698 0.0
C244 C 0.16842 0.45172 0.47942 0.0
Zn245 Zn 0.15347 0.47683 0.61769 0.0
C246 C 0.22067 0.5068 0.68533 0.0
N247 N 0.13935 0.4961 0.82485 0.0
C248 C 0.11919 0.50837 0.85757 0.0
C249 C 0.15927 0.48462 0.86112 0.0
C250 C 0.1589 0.48423 0.9324 0.0
C251 C 0.13812 0.49613 0.96771 0.0
C252 C 0.11841 0.50889 0.92988 0.0
Zn253 Zn 0.14208 0.49088 0.72071 0.0
O254 O 0.1727 0.53616 0.60519 0.0
C255 C 0.07675 0.46407 0.63677 0.0
O256 O 0.15506 0.54303 0.70736 0.0
H257 H 0.17513 0.47486 0.83484 0.0
H258 H 0.1337 0.50652 0.50494 0.0
H259 H 0.10358 0.5174 0.82777 0.0
O260 O 0.10085 0.46342 0.60055 0.0
O261 O 0.08387 0.47308 0.70055 0.0
H262 H 0.17863 0.43691 0.5084 0.0
O263 O 0.12905 0.4385 0.73949 0.0
O264 O 0.13584 0.41876 0.63957 0.0
O265 O 0.2013 0.5104 0.73145 0.0
O266 O 0.20578 0.49016 0.62962 0.0
C267 C 0.12839 0.41323 0.70369 0.0
H268 H 0.12927 0.50348 0.38121 0.0
H269 H 0.17777 0.43457 0.38056 0.0
H270 H 0.17502 0.47488 0.95971 0.0
H271 H 0.1022 0.51848 0.95581 0.0
C272 C 0.48631 0.71972 0.67975 0.0
N273 N 0.49968 0.64924 0.81573 0.0
C274 C 0.51213 0.68077 0.85316 0.0
C275 C 0.51226 0.6804 0.92441 0.0
C276 C 0.49903 0.64719 0.95842 0.0
C277 C 0.48557 0.61466 0.91931 0.0
C278 C 0.48641 0.61636 0.84711 0.0
Zn279 Zn 0.50322 0.65725 0.71207 0.0
C280 C 0.43586 0.6185 0.64334 0.0
N281 N 0.51729 0.6892 0.50493 0.0
C282 C 0.53767 0.72154 0.47236 0.0
C283 C 0.49794 0.65732 0.46857 0.0
C284 C 0.49933 0.65665 0.39748 0.0
C285 C 0.51999 0.68927 0.36186 0.0
C286 C 0.53929 0.72224 0.40009 0.0
Zn287 Zn 0.5141 0.6816 0.60889 0.0
O288 O 0.484 0.69697 0.72525 0.0
C289 C 0.57962 0.72128 0.6935 0.0
O290 O 0.50104 0.72087 0.62287 0.0
H291 H 0.48219 0.63171 0.49474 0.0
H292 H 0.52225 0.70667 0.82784 0.0
H293 H 0.55293 0.74658 0.50225 0.0
O294 O 0.55559 0.69703 0.73049 0.0
O295 O 0.57234 0.72226 0.62967 0.0
H296 H 0.47646 0.59162 0.81633 0.0
O297 O 0.52717 0.6422 0.58985 0.0
O298 O 0.52108 0.6171 0.69026 0.0
O299 O 0.45498 0.64136 0.59714 0.0
O300 O 0.45096 0.61762 0.69897 0.0
C301 C 0.52824 0.61824 0.62609 0.0
H302 H 0.52208 0.70595 0.95268 0.0
H303 H 0.47491 0.58847 0.94422 0.0
H304 H 0.48499 0.63038 0.37103 0.0
H305 H 0.55548 0.74811 0.37464 0.0
H306 H 0.05943 0.25757 0.83615 0.0
H307 H 0.08925 0.32314 0.02301 0.0
H308 H 0.12185 0.37872 0.9537 0.0
H309 H 0.13516 0.40772 0.84072 0.0
H310 H 0.10051 0.34211 0.6537 0.0
H311 H 0.07638 0.28651 0.72338 0.0
C312 C 0.07319 0.28392 0.86233 0.0
C313 C 0.0713 0.28612 0.93513 0.0
C314 C 0.09065 0.31539 0.82206 0.0
C315 C 0.09014 0.32057 0.96757 0.0
C316 C 0.10851 0.35225 0.92773 0.0
C317 C 0.12257 0.38135 0.81459 0.0
C318 C 0.11914 0.37916 0.74156 0.0
C319 C 0.1079 0.34987 0.855 0.0
C320 C 0.10348 0.34468 0.7093 0.0
C321 C 0.08951 0.31299 0.74932 0.0
H322 H 0.73672 0.80028 0.82301 0.0
H323 H 0.67533 0.77801 0.01054 0.0
H324 H 0.61941 0.75742 0.94091 0.0
H325 H 0.58827 0.74023 0.82802 0.0
H326 H 0.64957 0.75813 0.64166 0.0
H327 H 0.70639 0.78745 0.71053 0.0
C328 C 0.7113 0.79118 0.8494 0.0
C329 C 0.71029 0.79015 0.92254 0.0
C330 C 0.67961 0.7789 0.80916 0.0
C331 C 0.67697 0.77891 0.95485 0.0
C332 C 0.64509 0.76709 0.91489 0.0
C333 C 0.61405 0.75085 0.802 0.0
C334 C 0.61462 0.74651 0.72948 0.0
C335 C 0.64611 0.76615 0.84217 0.0
C336 C 0.64831 0.76117 0.69689 0.0
C337 C 0.68065 0.77751 0.7365 0.0
H338 H 0.19086 0.93913 0.83629 0.0
H339 H 0.221 0.90575 0.02361 0.0
H340 H 0.24273 0.87172 0.95401 0.0
H341 H 0.25884 0.85781 0.84111 0.0
H342 H 0.23314 0.89569 0.65446 0.0
H343 H 0.20289 0.92152 0.72359 0.0
C344 C 0.20196 0.92432 0.86255 0.0
C345 C 0.20485 0.92561 0.93562 0.0
C346 C 0.21506 0.90584 0.82226 0.0
C347 C 0.21856 0.90542 0.96796 0.0
C348 C 0.2311 0.88617 0.928 0.0
C349 C 0.24639 0.87143 0.81502 0.0
C350 C 0.24878 0.87529 0.7423 0.0
C351 C 0.23037 0.88715 0.85525 0.0
C352 C 0.23173 0.8923 0.70983 0.0
C353 C 0.21477 0.9073 0.74957 0.0
H354 H 0.40296 0.14704 0.17972 0.0
H355 H 0.33974 0.10729 0.36471 0.0
H356 H 0.28349 0.08253 0.29454 0.0
H357 H 0.25369 0.0658 0.18113 0.0
H358 H 0.31701 0.10037 0.99534 0.0
H359 H 0.37284 0.13414 0.06629 0.0
C360 C 0.37695 0.13324 0.20522 0.0
C361 C 0.3756 0.12848 0.27768 0.0
C362 C 0.34515 0.11798 0.16434 0.0
C363 C 0.34161 0.11135 0.30952 0.0
C364 C 0.30957 0.09694 0.26917 0.0
C365 C 0.27956 0.08083 0.15549 0.0
C366 C 0.2811 0.07991 0.08246 0.0
C367 C 0.3112 0.09904 0.19655 0.0
C368 C 0.31495 0.10041 0.05094 0.0
C369 C 0.34678 0.1195 0.09167 0.0
H370 H 0.85266 0.26732 0.16558 0.0
H371 H 0.88854 0.2403 0.35364 0.0
H372 H 0.91338 0.20884 0.28503 0.0
H373 H 0.93054 0.19586 0.1729 0.0
H374 H 0.8992 0.22733 0.98469 0.0
H375 H 0.8662 0.25045 0.0531 0.0
C376 C 0.86567 0.25439 0.19214 0.0
C377 C 0.86923 0.25674 0.26515 0.0
C378 C 0.88077 0.23759 0.15232 0.0
C379 C 0.88544 0.23901 0.29804 0.0
C380 C 0.89984 0.22131 0.25863 0.0
C381 C 0.91639 0.20755 0.14618 0.0
C382 C 0.91796 0.21039 0.07327 0.0
C383 C 0.89858 0.22152 0.18588 0.0
C384 C 0.89861 0.22487 0.04025 0.0
C385 C 0.87998 0.23824 0.07954 0.0
H386 H 0.80704 0.74275 0.16289 0.0
H387 H 0.7656 0.6769 0.97708 0.0
H388 H 0.74092 0.6213 0.04691 0.0
H389 H 0.72512 0.59285 0.16009 0.0
H390 H 0.7617 0.65891 0.3465 0.0
H391 H 0.79488 0.71399 0.27612 0.0
C392 C 0.79287 0.7163 0.13713 0.0
C393 C 0.78766 0.71405 0.0645 0.0
C394 C 0.77774 0.6849 0.17777 0.0
C395 C 0.77002 0.67948 0.0324 0.0
C396 C 0.75567 0.64781 0.07255 0.0
C397 C 0.74046 0.61917 0.186 0.0
C398 C 0.74031 0.62169 0.25905 0.0
C399 C 0.75838 0.65039 0.14524 0.0
C400 C 0.76116 0.65609 0.2909 0.0
C401 C 0.77992 0.6875 0.25049 0.0
H402 H 0.06897 0.46822 0.49977 0.0
H403 H 0.00737 0.44054 0.68768 0.0
H404 H 0.95105 0.41856 0.61863 0.0
H405 H 0.91993 0.40146 0.50586 0.0
H406 H 0.98159 0.42451 0.31862 0.0
H407 H 0.03839 0.45525 0.38746 0.0
C408 C 0.04339 0.45762 0.52633 0.0
C409 C 0.04247 0.45547 0.59934 0.0
C410 C 0.01149 0.44435 0.48634 0.0
C411 C 0.00896 0.44239 0.63205 0.0
C412 C 0.97685 0.42971 0.5924 0.0
C413 C 0.94574 0.41343 0.47959 0.0
C414 C 0.94645 0.41013 0.40679 0.0
C415 C 0.97785 0.42967 0.51962 0.0
C416 C 0.9802 0.42661 0.37406 0.0
C417 C 0.01255 0.44384 0.41362 0.0
H418 H 0.5222 0.60446 0.48909 0.0
H419 H 0.55653 0.5765 0.678 0.0
H420 H 0.58152 0.54499 0.61007 0.0
H421 H 0.5992 0.53214 0.49845 0.0
H422 H 0.56926 0.56423 0.30944 0.0
H423 H 0.53614 0.58756 0.37696 0.0
C424 C 0.53491 0.59131 0.51597 0.0
C425 C 0.538 0.59342 0.58904 0.0
C426 C 0.55002 0.5744 0.47656 0.0
C427 C 0.55382 0.57542 0.62234 0.0
C428 C 0.56828 0.55767 0.58333 0.0
C429 C 0.58533 0.54399 0.47139 0.0
C430 C 0.58733 0.54697 0.39855 0.0
C431 C 0.56745 0.55805 0.51058 0.0
C432 C 0.56832 0.56166 0.36499 0.0
C433 C 0.54963 0.57515 0.40377 0.0
H434 H 0.46207 0.07618 0.51816 0.0
H435 H 0.43304 0.013 0.3283 0.0
H436 H 0.40921 0.95666 0.39565 0.0
H437 H 0.39154 0.92615 0.50696 0.0
H438 H 0.41653 0.98914 0.69634 0.0
H439 H 0.44813 0.0458 0.62971 0.0
C440 C 0.45076 0.05021 0.49087 0.0
C441 C 0.44886 0.0489 0.41767 0.0
C442 C 0.43651 0.01826 0.52987 0.0
C443 C 0.43476 0.0149 0.38405 0.0
C444 C 0.42103 0.98277 0.42271 0.0
C445 C 0.40404 0.95218 0.53423 0.0
C446 C 0.40112 0.95332 0.60693 0.0
C447 C 0.42096 0.98423 0.49546 0.0
C448 C 0.41831 0.98739 0.64091 0.0
C449 C 0.43606 0.01969 0.60261 0.0
H450 H 0.13146 0.07824 0.92169 0.0
H451 H 0.13272 0.07282 0.14378 0.0
H452 H 0.10021 0.10708 0.15089 0.0
H453 H 0.07067 0.13698 0.09368 0.0
H454 H 0.06542 0.13831 0.87143 0.0
H455 H 0.10068 0.10685 0.86445 0.0
C456 C 0.12498 0.08485 0.97184 0.0
C457 C 0.13487 0.07348 0.03238 0.0
C458 C 0.10562 0.10355 0.97522 0.0
C459 C 0.12554 0.08147 0.0967 0.0
C460 C 0.107 0.10099 0.10063 0.0
C461 C 0.07751 0.13073 0.04356 0.0
C462 C 0.06591 0.14034 0.98294 0.0
C463 C 0.09684 0.11199 0.04019 0.0
C464 C 0.07423 0.13131 0.91858 0.0
C465 C 0.09433 0.11339 0.91473 0.0
H466 H 0.85849 0.94022 0.08477 0.0
H467 H 0.85697 0.9332 0.86246 0.0
H468 H 0.88818 0.00021 0.85683 0.0
H469 H 0.91694 0.05996 0.91533 0.0
H470 H 0.92265 0.06703 0.13771 0.0
H471 H 0.88825 -2e-05 0.14328 0.0
C472 C 0.86462 0.95327 0.03489 0.0
C473 C 0.85507 0.93185 0.97387 0.0
C474 C 0.88325 -0.00851 0.03234 0.0
C475 C 0.86393 0.94915 0.9099 0.0
C476 C 0.88172 0.98734 0.90681 0.0
C477 C 0.91035 0.0469 0.9652 0.0
C478 C 0.92188 0.06835 0.02626 0.0
C479 C 0.8916 0.00867 0.96774 0.0
C480 C 0.91388 0.05105 0.09024 0.0
C481 C 0.8943 0.01283 0.09329 0.0
H482 H 0.93679 0.86394 0.91201 0.0
H483 H 0.92878 0.86182 0.13385 0.0
H484 H -0.00453 0.89392 0.14426 0.0
H485 H 0.05524 0.92367 0.0901 0.0
H486 H 0.0633 0.92997 0.86836 0.0
H487 H -0.0034 0.89468 0.85785 0.0
C488 C 0.94957 0.87014 0.96279 0.0
C489 C 0.92796 0.86017 0.0223 0.0
C490 C -0.01238 0.88929 0.96811 0.0
C491 C 0.94489 0.8691 0.08753 0.0
C492 C 0.9829 0.8874 0.09334 0.0
C493 C 0.04248 0.91702 0.03929 0.0
C494 C 0.06409 0.92897 0.97985 0.0
C495 C 0.00443 0.89773 0.03395 0.0
C496 C 0.04718 0.92089 0.91463 0.0
C497 C 0.00916 0.90078 0.90876 0.0
H498 H 0.73996 0.47298 0.42299 0.0
H499 H 0.73416 0.47377 0.20074 0.0
H500 H 0.76818 0.44109 0.19364 0.0
H501 H 0.79767 0.41124 0.2506 0.0
H502 H 0.79944 0.40614 0.4727 0.0
H503 H 0.76854 0.44197 0.4801 0.0
C504 C 0.74646 0.46635 0.37287 0.0
C505 C 0.735 0.47611 0.31226 0.0
C506 C 0.76503 0.44683 0.36941 0.0
C507 C 0.74286 0.46665 0.24788 0.0
C508 C 0.76224 0.44801 0.24394 0.0
C509 C 0.79166 0.41824 0.30084 0.0
C510 C 0.8012 0.40648 0.36126 0.0
C511 C 0.77323 0.43785 0.30438 0.0
C512 C 0.7925 0.41505 0.42569 0.0
C513 C 0.77488 0.43548 0.42978 0.0
H514 H 0.58445 0.39415 0.25045 0.0
H515 H 0.59323 0.40664 0.47211 0.0
H516 H 0.55833 0.33989 0.48362 0.0
H517 H 0.52727 0.27874 0.4304 0.0
H518 H 0.52255 0.26632 0.20875 0.0
H519 H 0.55426 0.33305 0.19727 0.0
C520 C 0.57842 0.38235 0.30144 0.0
C521 C 0.59099 0.40523 0.36057 0.0
C522 C 0.55935 0.34424 0.30739 0.0
C523 C 0.58367 0.38953 0.42606 0.0
C524 C 0.5638 0.35148 0.43251 0.0
C525 C 0.53284 0.29057 0.37942 0.0
C526 C 0.52227 0.2677 0.32029 0.0
C527 C 0.55174 0.32868 0.37349 0.0
C528 C 0.53033 0.28341 0.25482 0.0
C529 C 0.54841 0.32145 0.24837 0.0
H530 H 0.5989 0.19593 0.25734 0.0
H531 H 0.59635 0.19693 0.47979 0.0
H532 H 0.6632 0.22875 0.48427 0.0
H533 H 0.72149 0.25732 0.42483 0.0
H534 H 0.72416 0.26066 0.20245 0.0
H535 H 0.65728 0.22566 0.19787 0.0
C536 C 0.6129 0.20273 0.30698 0.0
C537 C 0.59279 0.19369 0.36839 0.0
C538 C 0.65102 0.22176 0.3089 0.0
C539 C 0.6113 0.20344 0.43207 0.0
C540 C 0.64939 0.2216 0.4345 0.0
C541 C 0.70752 0.2501 0.37515 0.0
C542 C 0.72768 0.2611 0.31381 0.0
C543 C 0.66941 0.23099 0.37321 0.0
C544 C 0.70919 0.2523 0.25012 0.0
C545 C 0.67107 0.23236 0.24764 0.0
H546 H 0.46394 0.7469 0.57765 0.0
H547 H 0.46751 0.74081 0.79942 0.0
H548 H 0.43534 0.77525 0.80979 0.0
H549 H 0.40478 0.80488 0.75553 0.0
H550 H 0.39701 0.80667 0.53367 0.0
H551 H 0.4327 0.77582 0.52339 0.0
C552 C 0.45807 0.75342 0.62843 0.0
C553 C 0.46841 0.74171 0.68791 0.0
C554 C 0.43883 0.7722 0.6337 0.0
C555 C 0.45992 0.74968 0.75309 0.0
C556 C 0.44157 0.7693 0.7589 0.0
C557 C 0.41119 0.7989 0.70477 0.0
C558 C 0.39865 0.80836 0.64523 0.0
C559 C 0.43072 0.78042 0.69951 0.0
C560 C 0.4065 0.79975 0.58004 0.0
C561 C 0.42684 0.78215 0.57429 0.0
H562 H 0.19111 0.60613 0.75445 0.0
H563 H 0.18982 0.59707 0.53245 0.0
H564 H 0.2208 0.66402 0.52457 0.0
H565 H 0.24927 0.72444 0.58129 0.0
H566 H 0.25446 0.73316 0.80351 0.0
H567 H 0.22044 0.66625 0.81099 0.0
C568 C 0.19724 0.61869 0.70412 0.0
C569 C 0.18781 0.59672 0.64387 0.0
C570 C 0.21569 0.65687 0.7003 0.0
C571 C 0.19668 0.61345 0.57934 0.0
C572 C 0.21434 0.65161 0.57497 0.0
C573 C 0.24263 0.71173 0.63147 0.0
C574 C 0.25393 0.73362 0.69197 0.0
C575 C 0.22406 0.6735 0.63517 0.0
C576 C 0.24589 0.71683 0.75644 0.0
C577 C 0.22651 0.67868 0.76061 0.0
H578 H 0.3893 0.59231 0.74885 0.0
H579 H 0.39268 0.59528 0.5265 0.0
H580 H 0.32587 0.55891 0.52106 0.0
H581 H 0.26731 0.52794 0.57974 0.0
H582 H 0.26387 0.52912 0.8021 0.0
H583 H 0.33074 0.56252 0.80751 0.0
C584 C 0.3755 0.58473 0.69901 0.0
C585 C 0.39583 0.59601 0.63792 0.0
C586 C 0.33739 0.56478 0.69656 0.0
C587 C 0.37756 0.58673 0.57399 0.0
C588 C 0.33949 0.566 0.57102 0.0
C589 C 0.28113 0.53513 0.62957 0.0
C590 C 0.26076 0.52567 0.69068 0.0
C591 C 0.31924 0.55504 0.63201 0.0
C592 C 0.27902 0.53593 0.7546 0.0
C593 C 0.31713 0.555 0.75756 0.0
H594 H 0.01684 0.22563 0.62428 0.0
H595 H 0.92855 0.1137 0.61756 0.0
H596 H 0.93589 0.11097 0.49299 0.0
H597 H 0.96944 0.13927 0.38854 0.0
H598 H 0.05538 0.25254 0.39306 0.0
H599 H 0.04839 0.25519 0.51756 0.0
C600 C -0.00095 0.20075 0.59524 0.0
C601 C 0.97222 0.16984 0.62963 0.0
C602 C 0.0037 0.19933 0.52413 0.0
C603 C 0.94907 0.13788 0.59183 0.0
C604 C 0.95359 0.13621 0.52096 0.0
C605 C -0.01365 0.16482 0.41625 0.0
C606 C 0.01274 0.19577 0.38105 0.0
C607 C 0.98113 0.16661 0.48693 0.0
C608 C 0.03518 0.22816 0.41869 0.0
C609 C 0.03086 0.22985 0.48974 0.0
H610 H 0.83265 0.86102 0.6111 0.0
H611 H 0.806 0.74798 0.60847 0.0
H612 H 0.796 0.74495 0.48373 0.0
H613 H 0.79344 0.7741 0.37626 0.0
H614 H 0.81644 0.88579 0.38105 0.0
H615 H 0.82688 0.88889 0.50583 0.0
C616 C 0.82408 0.83543 0.58373 0.0
C617 C 0.81981 0.80466 0.61954 0.0
C618 C 0.81685 0.83341 0.51289 0.0
C619 C 0.80996 0.77224 0.58237 0.0
C620 C 0.80373 0.77032 0.51118 0.0
C621 C 0.80046 0.799 0.40491 0.0
C622 C 0.80426 0.82974 0.36991 0.0
C623 C 0.80678 0.80064 0.47616 0.0
C624 C 0.81299 0.86173 0.40723 0.0
C625 C 0.8194 0.86362 0.47823 0.0
H626 H 0.20004 0.98083 0.62576 0.0
H627 H 0.17439 0.06748 0.62501 0.0
H628 H 0.16386 0.05988 0.50017 0.0
H629 H 0.15863 0.02639 0.39375 0.0
H630 H 0.18791 0.94214 0.39234 0.0
H631 H 0.19819 0.94949 0.51706 0.0
C632 C 0.19244 -0.00177 0.59796 0.0
C633 C 0.1879 0.02464 0.63413 0.0
C634 C 0.18608 -0.0066 0.52667 0.0
C635 C 0.17841 0.04729 0.59793 0.0
C636 C 0.17196 0.04261 0.52689 0.0
C637 C 0.16784 0.00994 0.42022 0.0
C638 C 0.17273 0.98389 0.38327 0.0
C639 C 0.1752 0.0154 0.49108 0.0
C640 C 0.18344 0.96204 0.41931 0.0
C641 C 0.18982 0.96659 0.4905 0.0
H642 H 0.63916 0.47702 0.71516 0.0
H643 H 0.72602 0.58985 0.72232 0.0
H644 H 0.71908 0.59161 0.84708 0.0
H645 H 0.68723 0.56139 0.95328 0.0
H646 H 0.59802 0.44995 0.9438 0.0
H647 H 0.60543 0.44812 0.81908 0.0
C648 C 0.65628 0.5023 0.74352 0.0
C649 C 0.68289 0.53339 0.70897 0.0
C650 C 0.65111 0.50358 0.81435 0.0
C651 C 0.70562 0.56539 0.74742 0.0
C652 C 0.70133 0.56656 0.81863 0.0
C653 C 0.66927 0.53681 0.92363 0.0
C654 C 0.64215 0.50577 0.9573 0.0
C655 C 0.67394 0.53592 0.85238 0.0
C656 C 0.61878 0.47422 0.91868 0.0
C657 C 0.62332 0.47306 0.8477 0.0
H658 H 0.52342 0.17255 0.73507 0.0
H659 H 0.41102 0.14628 0.72944 0.0
H660 H 0.40669 0.13484 0.8532 0.0
H661 H 0.43455 0.13106 0.96214 0.0
H662 H 0.54568 0.15387 0.96557 0.0
H663 H 0.55003 0.16549 0.84164 0.0
C664 C 0.49771 0.16377 0.76039 0.0
C665 C 0.46751 0.16007 0.72256 0.0
C666 C 0.49494 0.15572 0.83061 0.0
C667 C 0.43487 0.14987 0.75717 0.0
C668 C 0.43221 0.1428 0.82776 0.0
C669 C 0.45959 0.13827 0.93544 0.0
C670 C 0.48981 0.14169 0.97255 0.0
C671 C 0.46198 0.14534 0.86473 0.0
C672 C 0.52201 0.15069 0.93772 0.0
C673 C 0.52461 0.15778 0.86723 0.0
H674 H 0.88573 0.35529 0.72087 0.0
H675 H 0.77323 0.26891 0.71688 0.0
H676 H 0.76961 0.27628 0.84134 0.0
H677 H 0.79744 0.3094 0.94876 0.0
H678 H 0.9111 0.39345 0.9548 0.0
H679 H 0.91465 0.38641 0.83044 0.0
C680 C 0.86053 0.3379 0.74756 0.0
C681 C 0.82973 0.31162 0.71021 0.0
C682 C 0.8586 0.34262 0.81859 0.0
C683 C 0.79733 0.28899 0.74495 0.0
C684 C 0.79516 0.29354 0.81575 0.0
C685 C 0.82323 0.32589 0.92334 0.0
C686 C 0.85404 0.35177 0.96144 0.0
C687 C 0.82548 0.32061 0.85272 0.0
C688 C 0.88682 0.37368 0.92684 0.0
C689 C 0.88901 0.36931 0.85589 0.0
H690 H 0.3493 0.82924 0.28692 0.0
H691 H 0.26343 0.85586 0.28499 0.0
H692 H 0.27037 0.86552 0.16067 0.0
H693 H 0.30203 0.86795 0.05353 0.0
H694 H 0.39016 0.84486 0.0577 0.0
H695 H 0.38274 0.83462 0.18198 0.0
C696 C 0.33238 0.8377 0.25977 0.0
C697 C 0.30606 0.84212 0.29563 0.0
C698 C 0.33757 0.84471 0.18925 0.0
C699 C 0.28359 0.85183 0.25879 0.0
C700 C 0.28789 0.85785 0.18788 0.0
C701 C 0.31976 0.86092 0.08194 0.0
C702 C 0.34658 0.85707 0.04691 0.0
C703 C 0.31504 0.85472 0.15286 0.0
C704 C 0.36964 0.84835 0.08393 0.0
C705 C 0.36508 0.84206 0.15462 0.0
H706 H 0.12743 0.43998 0.04893 0.0
H707 H 0.15072 0.55176 0.05608 0.0
H708 H 0.16018 0.55389 0.18107 0.0
H709 H 0.16482 0.5251 0.28597 0.0
H710 H 0.13768 0.41194 0.28106 0.0
H711 H 0.12888 0.40991 0.15603 0.0
C712 C 0.13432 0.4647 0.07814 0.0
C713 C 0.13847 0.49574 0.04376 0.0
C714 C 0.13999 0.46576 0.14954 0.0
C715 C 0.14703 0.52749 0.08177 0.0
C716 C 0.15285 0.52882 0.1529 0.0
C717 C 0.15639 0.4997 0.25803 0.0
C718 C 0.15161 0.46859 0.29328 0.0
C719 C 0.14985 0.49827 0.187 0.0
C720 C 0.14199 0.43642 0.25541 0.0
C721 C 0.13646 0.4351 0.18404 0.0
H722 H 0.46534 0.64519 0.27257 0.0
H723 H 0.57887 0.72956 0.27938 0.0
H724 H 0.58278 0.72245 0.15514 0.0
H725 H 0.5542 0.69122 0.04546 0.0
H726 H 0.44179 0.60463 0.04068 0.0
H727 H 0.43784 0.61199 0.16504 0.0
C728 C 0.49117 0.66175 0.24733 0.0
C729 C 0.52185 0.68773 0.2856 0.0
C730 C 0.49363 0.65644 0.1768 0.0
C731 C 0.55469 0.70971 0.25126 0.0
C732 C 0.55709 0.7053 0.18039 0.0
C733 C 0.52895 0.67379 0.07196 0.0
C734 C 0.49827 0.64745 0.0344 0.0
C735 C 0.52682 0.67852 0.14292 0.0
C736 C 0.4658 0.62475 0.06891 0.0
C737 C 0.46344 0.6293 0.13965 0.0
loop_
_geom_bond_atom_site_label_1
_geom_bond_atom_site_label_2
_geom_bond_distance
_geom_bond_site_symmetry_2
_ccdc_geom_bond_type
C0 O16 1.251 . S
C0 O18 1.254 1_554 S
N1 C2 1.333 . S
N1 C6 1.307 . S
N1 Zn7 2.020 . S
C2 N1 1.333 . S
C2 C3 1.379 . S
C2 H20 0.952 1_455 S
C3 C2 1.379 . S
C3 C4 1.390 . S
C3 H30 0.949 1_455 S
C4 C3 1.390 . S
C4 C5 1.357 . S
C5 C4 1.357 . S
C5 C6 1.370 . S
C5 H31 0.950 . S
C6 N1 1.307 . S
C6 C5 1.370 . S
C6 H24 0.948 . S
Zn7 N1 2.020 . S
Zn7 O16 2.039 1_455 S
Zn7 O22 2.034 1_455 S
Zn7 O26 2.025 . S
Zn7 O28 2.024 . S
C8 O27 1.246 . S
C8 O28 1.249 1_556 S
N9 C10 1.307 . S
N9 C11 1.333 1_655 S
N9 Zn15 2.021 . S
C10 N9 1.307 . S
C10 C14 1.370 . S
C10 H21 0.948 . S
C11 N9 1.333 1_455 S
C11 C12 1.379 . S
C11 H19 0.952 . S
C12 C11 1.379 . S
C12 C13 1.390 1_455 S
C12 H32 0.949 . S
C13 C12 1.390 1_655 S
C13 C14 1.357 . S
C14 C10 1.370 . S
C14 C13 1.357 . S
C14 H33 0.950 . S
Zn15 N9 2.021 . S
Zn15 O18 2.027 . S
Zn15 O23 2.031 . S
Zn15 O25 2.037 1_655 S
Zn15 O27 2.027 1_655 S
O16 C0 1.251 . S
O16 Zn7 2.039 1_655 S
C17 O22 1.246 . S
C17 O23 1.249 1_554 S
O18 C0 1.254 1_556 S
O18 Zn15 2.027 . S
H19 C11 0.952 . S
H20 C2 0.952 1_655 S
H21 C10 0.948 . S
O22 Zn7 2.034 1_655 S
O22 C17 1.246 . S
O23 Zn15 2.031 . S
O23 C17 1.249 1_556 S
H24 C6 0.948 . S
O25 Zn15 2.037 1_455 S
O25 C29 1.251 . S
O26 Zn7 2.025 . S
O26 C29 1.254 1_554 S
O27 C8 1.246 . S
O27 Zn15 2.027 1_455 S
O28 Zn7 2.024 . S
O28 C8 1.249 1_554 S
C29 O25 1.251 . S
C29 O26 1.254 1_556 S
H30 C3 0.949 1_655 S
H31 C5 0.950 . S
H32 C12 0.949 . S
H33 C14 0.950 . S
C34 O50 1.251 . S
C34 O52 1.254 1_556 S
N35 C36 1.333 . S
N35 C40 1.307 . S
N35 Zn41 2.020 . S
C36 N35 1.333 . S
C36 C37 1.379 . S
C36 H54 0.952 . S
C37 C36 1.379 . S
C37 C38 1.390 . S
C37 H64 0.949 . S
C38 C37 1.390 . S
C38 C39 1.357 . S
C39 C38 1.357 . S
C39 C40 1.370 . S
C39 H65 0.950 . S
C40 N35 1.307 . S
C40 C39 1.370 . S
C40 H58 0.948 . S
Zn41 N35 2.020 . S
Zn41 O50 2.039 . S
Zn41 O56 2.034 . S
Zn41 O60 2.025 . S
Zn41 O62 2.024 . S
C42 O61 1.246 . S
C42 O62 1.249 1_554 S
N43 C44 1.307 . S
N43 C45 1.333 . S
N43 Zn49 2.020 . S
C44 N43 1.307 . S
C44 C48 1.370 . S
C44 H55 0.948 . S
C45 N43 1.333 . S
C45 C46 1.379 . S
C45 H53 0.952 . S
C46 C45 1.379 . S
C46 C47 1.390 . S
C46 H66 0.949 . S
C47 C46 1.390 . S
C47 C48 1.357 . S
C48 C44 1.370 . S
C48 C47 1.357 . S
C48 H67 0.950 . S
Zn49 N43 2.020 . S
Zn49 O52 2.025 . S
Zn49 O57 2.024 . S
Zn49 O59 2.039 . S
Zn49 O61 2.034 . S
O50 C34 1.251 . S
O50 Zn41 2.039 . S
C51 O56 1.246 . S
C51 O57 1.249 1_556 S
O52 C34 1.254 1_554 S
O52 Zn49 2.025 . S
H53 C45 0.952 . S
H54 C36 0.952 . S
H55 C44 0.948 . S
O56 Zn41 2.034 . S
O56 C51 1.246 . S
O57 Zn49 2.024 . S
O57 C51 1.249 1_554 S
H58 C40 0.948 . S
O59 Zn49 2.039 . S
O59 C63 1.251 . S
O60 Zn41 2.025 . S
O60 C63 1.254 1_556 S
O61 C42 1.246 . S
O61 Zn49 2.034 . S
O62 Zn41 2.024 . S
O62 C42 1.249 1_556 S
C63 O59 1.251 . S
C63 O60 1.254 1_554 S
H64 C37 0.949 . S
H65 C39 0.950 . S
H66 C46 0.949 . S
H67 C48 0.950 . S
C68 O84 1.251 . S
C68 O86 1.254 1_554 S
N69 C70 1.333 1_565 S
N69 C74 1.307 . S
N69 Zn75 2.025 . S
C70 N69 1.333 1_545 S
C70 C71 1.379 . S
C70 H88 0.952 . S
C71 C70 1.379 . S
C71 C72 1.390 1_545 S
C71 H98 0.949 . S
C72 C71 1.390 1_565 S
C72 C73 1.357 . S
C73 C72 1.357 . S
C73 C74 1.370 . S
C73 H99 0.950 . S
C74 N69 1.307 . S
C74 C73 1.370 . S
C74 H92 0.948 . S
Zn75 N69 2.025 . S
Zn75 O84 2.009 1_565 S
Zn75 O90 2.024 1_565 S
Zn75 O94 2.053 . S
Zn75 O96 2.031 . S
C76 O95 1.246 . S
C76 O96 1.249 1_556 S
N77 C78 1.307 . S
N77 C79 1.333 . S
N77 Zn83 2.020 . S
C78 N77 1.307 . S
C78 C82 1.370 . S
C78 H89 0.948 . S
C79 N77 1.333 . S
C79 C80 1.379 . S
C79 H87 0.952 1_545 S
C80 C79 1.379 . S
C80 C81 1.390 . S
C80 H100 0.949 1_545 S
C81 C80 1.390 . S
C81 C82 1.357 . S
C82 C78 1.370 . S
C82 C81 1.357 . S
C82 H101 0.950 . S
Zn83 N77 2.020 . S
Zn83 O86 2.025 . S
Zn83 O91 2.024 . S
Zn83 O93 2.039 1_545 S
Zn83 O95 2.034 1_545 S
O84 C68 1.251 . S
O84 Zn75 2.009 1_545 S
C85 O90 1.246 . S
C85 O91 1.249 1_554 S
O86 C68 1.254 1_556 S
O86 Zn83 2.025 . S
H87 C79 0.952 1_565 S
H88 C70 0.952 . S
H89 C78 0.948 . S
O90 Zn75 2.024 1_545 S
O90 C85 1.246 . S
O91 Zn83 2.024 . S
O91 C85 1.249 1_556 S
H92 C74 0.948 . S
O93 Zn83 2.039 1_565 S
O93 C97 1.251 . S
O94 Zn75 2.053 . S
O94 C97 1.254 1_554 S
O95 C76 1.246 . S
O95 Zn83 2.034 1_565 S
O96 Zn75 2.031 . S
O96 C76 1.249 1_554 S
C97 O93 1.251 . S
C97 O94 1.254 1_556 S
H98 C71 0.949 . S
H99 C73 0.950 . S
H100 C80 0.949 1_565 S
H101 C82 0.950 . S
C102 O118 1.251 . S
C102 O120 1.254 . S
N103 C104 1.333 . S
N103 C108 1.307 . S
N103 Zn109 2.020 . S
C104 N103 1.333 . S
C104 C105 1.379 . S
C104 H122 0.952 . S
C105 C104 1.379 . S
C105 C106 1.390 . S
C105 H132 0.949 . S
C106 C105 1.390 . S
C106 C107 1.357 . S
C107 C106 1.357 . S
C107 C108 1.370 . S
C107 H133 0.950 . S
C108 N103 1.307 . S
C108 C107 1.370 . S
C108 H126 0.948 . S
Zn109 N103 2.020 . S
Zn109 O118 2.039 . S
Zn109 O124 2.034 . S
Zn109 O128 2.025 . S
Zn109 O130 2.024 . S
C110 O129 1.246 . S
C110 O130 1.249 . S
N111 C112 1.307 . S
N111 C113 1.333 . S
N111 Zn117 2.020 . S
C112 N111 1.307 . S
C112 C116 1.370 . S
C112 H123 0.948 . S
C113 N111 1.333 . S
C113 C114 1.379 . S
C113 H121 0.952 . S
C114 C113 1.379 . S
C114 C115 1.390 . S
C114 H134 0.949 . S
C115 C114 1.390 . S
C115 C116 1.357 . S
C116 C112 1.370 . S
C116 C115 1.357 . S
C116 H135 0.950 . S
Zn117 N111 2.020 . S
Zn117 O120 2.025 . S
Zn117 O125 2.024 . S
Zn117 O127 2.039 . S
Zn117 O129 2.034 . S
O118 C102 1.251 . S
O118 Zn109 2.039 . S
C119 O124 1.246 . S
C119 O125 1.249 . S
O120 C102 1.254 . S
O120 Zn117 2.025 . S
H121 C113 0.952 . S
H122 C104 0.952 . S
H123 C112 0.948 . S
O124 Zn109 2.034 . S
O124 C119 1.246 . S
O125 Zn117 2.024 . S
O125 C119 1.249 . S
H126 C108 0.948 . S
O127 Zn117 2.039 . S
O127 C131 1.251 . S
O128 Zn109 2.025 . S
O128 C131 1.254 . S
O129 C110 1.246 . S
O129 Zn117 2.034 . S
O130 Zn109 2.024 . S
O130 C110 1.249 . S
C131 O127 1.251 . S
C131 O128 1.254 . S
H132 C105 0.949 . S
H133 C107 0.950 . S
H134 C114 0.949 . S
H135 C116 0.950 . S
C136 O152 1.251 . S
C136 O154 1.254 . S
N137 C138 1.333 . S
N137 C142 1.307 . S
N137 Zn143 2.020 . S
C138 N137 1.333 . S
C138 C139 1.379 . S
C138 H156 0.952 . S
C139 C138 1.379 . S
C139 C140 1.390 . S
C139 H166 0.949 . S
C140 C139 1.390 . S
C140 C141 1.357 . S
C141 C140 1.357 . S
C141 C142 1.370 . S
C141 H167 0.950 . S
C142 N137 1.307 . S
C142 C141 1.370 . S
C142 H160 0.948 . S
Zn143 N137 2.020 . S
Zn143 O152 2.039 . S
Zn143 O158 2.034 . S
Zn143 O162 2.025 . S
Zn143 O164 2.024 . S
C144 O163 1.246 . S
C144 O164 1.249 . S
N145 C146 1.307 . S
N145 C147 1.333 . S
N145 Zn151 2.020 . S
C146 N145 1.307 . S
C146 C150 1.370 . S
C146 H157 0.948 . S
C147 N145 1.333 . S
C147 C148 1.379 . S
C147 H155 0.952 . S
C148 C147 1.379 . S
C148 C149 1.390 . S
C148 H168 0.949 . S
C149 C148 1.390 . S
C149 C150 1.357 . S
C150 C146 1.370 . S
C150 C149 1.357 . S
C150 H169 0.950 . S
Zn151 N145 2.020 . S
Zn151 O154 2.025 . S
Zn151 O159 2.024 . S
Zn151 O161 2.039 . S
Zn151 O163 2.034 . S
O152 C136 1.251 . S
O152 Zn143 2.039 . S
C153 O158 1.246 . S
C153 O159 1.249 . S
O154 C136 1.254 . S
O154 Zn151 2.025 . S
H155 C147 0.952 . S
H156 C138 0.952 . S
H157 C146 0.948 . S
O158 Zn143 2.034 . S
O158 C153 1.246 . S
O159 Zn151 2.024 . S
O159 C153 1.249 . S
H160 C142 0.948 . S
O161 Zn151 2.039 . S
O161 C165 1.251 . S
O162 Zn143 2.025 . S
O162 C165 1.254 . S
O163 C144 1.246 . S
O163 Zn151 2.034 . S
O164 Zn143 2.024 . S
O164 C144 1.249 . S
C165 O161 1.251 . S
C165 O162 1.254 . S
H166 C139 0.949 . S
H167 C141 0.950 . S
H168 C148 0.949 . S
H169 C150 0.950 . S
C170 O186 1.251 . S
C170 O188 1.254 . S
N171 C172 1.333 . S
N171 C176 1.307 . S
N171 Zn177 2.020 . S
C172 N171 1.333 . S
C172 C173 1.379 . S
C172 H190 0.952 . S
C173 C172 1.379 . S
C173 C174 1.390 . S
C173 H200 0.949 . S
C174 C173 1.390 . S
C174 C175 1.357 . S
C175 C174 1.357 . S
C175 C176 1.370 . S
C175 H201 0.950 . S
C176 N171 1.307 . S
C176 C175 1.370 . S
C176 H194 0.948 . S
Zn177 N171 2.020 . S
Zn177 O186 2.039 . S
Zn177 O192 2.034 . S
Zn177 O196 2.025 . S
Zn177 O198 2.024 . S
C178 O197 1.246 . S
C178 O198 1.249 . S
N179 C180 1.307 . S
N179 C181 1.333 . S
N179 Zn185 2.020 . S
C180 N179 1.307 . S
C180 C184 1.370 . S
C180 H191 0.948 . S
C181 N179 1.333 . S
C181 C182 1.379 . S
C181 H189 0.952 . S
C182 C181 1.379 . S
C182 C183 1.390 . S
C182 H202 0.949 . S
C183 C182 1.390 . S
C183 C184 1.357 . S
C184 C180 1.370 . S
C184 C183 1.357 . S
C184 H203 0.950 . S
Zn185 N179 2.020 . S
Zn185 O188 2.025 . S
Zn185 O193 2.024 . S
Zn185 O195 2.039 . S
Zn185 O197 2.034 . S
O186 C170 1.251 . S
O186 Zn177 2.039 . S
C187 O192 1.246 . S
C187 O193 1.249 . S
O188 C170 1.254 . S
O188 Zn185 2.025 . S
H189 C181 0.952 . S
H190 C172 0.952 . S
H191 C180 0.948 . S
O192 Zn177 2.034 . S
O192 C187 1.246 . S
O193 Zn185 2.024 . S
O193 C187 1.249 . S
H194 C176 0.948 . S
O195 Zn185 2.039 . S
O195 C199 1.251 . S
O196 Zn177 2.025 . S
O196 C199 1.254 . S
O197 C178 1.246 . S
O197 Zn185 2.034 . S
O198 Zn177 2.024 . S
O198 C178 1.249 . S
C199 O195 1.251 . S
C199 O196 1.254 . S
H200 C173 0.949 . S
H201 C175 0.950 . S
H202 C182 0.949 . S
H203 C184 0.950 . S
C204 O220 1.251 . S
C204 O222 1.254 . S
N205 C206 1.333 . S
N205 C210 1.307 . S
N205 Zn211 2.020 . S
C206 N205 1.333 . S
C206 C207 1.379 . S
C206 H224 0.952 . S
C207 C206 1.379 . S
C207 C208 1.390 . S
C207 H234 0.949 . S
C208 C207 1.390 . S
C208 C209 1.357 . S
C209 C208 1.357 . S
C209 C210 1.370 . S
C209 H235 0.950 . S
C210 N205 1.307 . S
C210 C209 1.370 . S
C210 H228 0.948 . S
Zn211 N205 2.020 . S
Zn211 O220 2.039 . S
Zn211 O226 2.034 . S
Zn211 O230 2.025 . S
Zn211 O232 2.024 . S
C212 O231 1.246 . S
C212 O232 1.249 . S
N213 C214 1.307 . S
N213 C215 1.333 . S
N213 Zn219 2.020 . S
C214 N213 1.307 . S
C214 C218 1.370 . S
C214 H225 0.948 . S
C215 N213 1.333 . S
C215 C216 1.379 . S
C215 H223 0.952 . S
C216 C215 1.379 . S
C216 C217 1.390 . S
C216 H236 0.949 . S
C217 C216 1.390 . S
C217 C218 1.357 . S
C218 C214 1.370 . S
C218 C217 1.357 . S
C218 H237 0.950 . S
Zn219 N213 2.020 . S
Zn219 O222 2.025 . S
Zn219 O227 2.024 . S
Zn219 O229 2.039 . S
Zn219 O231 2.034 . S
O220 C204 1.251 . S
O220 Zn211 2.039 . S
C221 O226 1.246 . S
C221 O227 1.249 . S
O222 C204 1.254 . S
O222 Zn219 2.025 . S
H223 C215 0.952 . S
H224 C206 0.952 . S
H225 C214 0.948 . S
O226 Zn211 2.034 . S
O226 C221 1.246 . S
O227 Zn219 2.024 . S
O227 C221 1.249 . S
H228 C210 0.948 . S
O229 Zn219 2.039 . S
O229 C233 1.251 . S
O230 Zn211 2.025 . S
O230 C233 1.254 . S
O231 C212 1.246 . S
O231 Zn219 2.034 . S
O232 Zn211 2.024 . S
O232 C212 1.249 . S
C233 O229 1.251 . S
C233 O230 1.254 . S
H234 C207 0.949 . S
H235 C209 0.950 . S
H236 C216 0.949 . S
H237 C218 0.950 . S
C238 O254 1.251 . S
C238 O256 1.254 . S
N239 C240 1.333 . S
N239 C244 1.307 . S
N239 Zn245 2.020 . S
C240 N239 1.333 . S
C240 C241 1.379 . S
C240 H258 0.952 . S
C241 C240 1.379 . S
C241 C242 1.390 . S
C241 H268 0.949 . S
C242 C241 1.390 . S
C242 C243 1.357 . S
C243 C242 1.357 . S
C243 C244 1.370 . S
C243 H269 0.950 . S
C244 N239 1.307 . S
C244 C243 1.370 . S
C244 H262 0.948 . S
Zn245 N239 2.020 . S
Zn245 O254 2.039 . S
Zn245 O260 2.034 . S
Zn245 O264 2.025 . S
Zn245 O266 2.024 . S
C246 O265 1.246 . S
C246 O266 1.249 . S
N247 C248 1.307 . S
N247 C249 1.333 . S
N247 Zn253 2.020 . S
C248 N247 1.307 . S
C248 C252 1.370 . S
C248 H259 0.948 . S
C249 N247 1.333 . S
C249 C250 1.379 . S
C249 H257 0.952 . S
C250 C249 1.379 . S
C250 C251 1.390 . S
C250 H270 0.949 . S
C251 C250 1.390 . S
C251 C252 1.357 . S
C252 C248 1.370 . S
C252 C251 1.357 . S
C252 H271 0.950 . S
Zn253 N247 2.020 . S
Zn253 O256 2.025 . S
Zn253 O261 2.024 . S
Zn253 O263 2.039 . S
Zn253 O265 2.034 . S
O254 C238 1.251 . S
O254 Zn245 2.039 . S
C255 O260 1.246 . S
C255 O261 1.249 . S
O256 C238 1.254 . S
O256 Zn253 2.025 . S
H257 C249 0.952 . S
H258 C240 0.952 . S
H259 C248 0.948 . S
O260 Zn245 2.034 . S
O260 C255 1.246 . S
O261 Zn253 2.024 . S
O261 C255 1.249 . S
H262 C244 0.948 . S
O263 Zn253 2.039 . S
O263 C267 1.251 . S
O264 Zn245 2.025 . S
O264 C267 1.254 . S
O265 C246 1.246 . S
O265 Zn253 2.034 . S
O266 Zn245 2.024 . S
O266 C246 1.249 . S
C267 O263 1.251 . S
C267 O264 1.254 . S
H268 C241 0.949 . S
H269 C243 0.950 . S
H270 C250 0.949 . S
H271 C252 0.950 . S
C272 O288 1.251 . S
C272 O290 1.254 . S
N273 C274 1.333 . S
N273 C278 1.307 . S
N273 Zn279 2.020 . S
C274 N273 1.333 . S
C274 C275 1.379 . S
C274 H292 0.952 . S
C275 C274 1.379 . S
C275 C276 1.390 . S
C275 H302 0.949 . S
C276 C275 1.390 . S
C276 C277 1.357 . S
C277 C276 1.357 . S
C277 C278 1.370 . S
C277 H303 0.950 . S
C278 N273 1.307 . S
C278 C277 1.370 . S
C278 H296 0.948 . S
Zn279 N273 2.020 . S
Zn279 O288 2.039 . S
Zn279 O294 2.034 . S
Zn279 O298 2.025 . S
Zn279 O300 2.024 . S
C280 O299 1.246 . S
C280 O300 1.249 . S
N281 C282 1.307 . S
N281 C283 1.333 . S
N281 Zn287 2.020 . S
C282 N281 1.307 . S
C282 C286 1.370 . S
C282 H293 0.948 . S
C283 N281 1.333 . S
C283 C284 1.379 . S
C283 H291 0.952 . S
C284 C283 1.379 . S
C284 C285 1.390 . S
C284 H304 0.949 . S
C285 C284 1.390 . S
C285 C286 1.357 . S
C286 C282 1.370 . S
C286 C285 1.357 . S
C286 H305 0.950 . S
Zn287 N281 2.020 . S
Zn287 O290 2.025 . S
Zn287 O295 2.024 . S
Zn287 O297 2.039 . S
Zn287 O299 2.034 . S
O288 C272 1.251 . S
O288 Zn279 2.039 . S
C289 O294 1.246 . S
C289 O295 1.249 . S
O290 C272 1.254 . S
O290 Zn287 2.025 . S
H291 C283 0.952 . S
H292 C274 0.952 . S
H293 C282 0.948 . S
O294 Zn279 2.034 . S
O294 C289 1.246 . S
O295 Zn287 2.024 . S
O295 C289 1.249 . S
H296 C278 0.948 . S
O297 Zn287 2.039 . S
O297 C301 1.251 . S
O298 Zn279 2.025 . S
O298 C301 1.254 . S
O299 C280 1.246 . S
O299 Zn287 2.034 . S
O300 Zn279 2.024 . S
O300 C280 1.249 . S
C301 O297 1.251 . S
C301 O298 1.254 . S
H302 C275 0.949 . S
H303 C277 0.950 . S
H304 C284 0.949 . S
H305 C286 0.950 . S
H306 C312 0.930 . S
H307 C315 0.930 1_554 S
H308 C316 0.930 . S
H309 C317 0.930 . S
H310 C320 0.930 . S
H311 C321 0.930 . S
C312 H306 0.930 . S
C312 C313 1.355 . S
C312 C314 1.415 . S
C313 C312 1.355 . S
C313 C315 1.419 . S
C314 C312 1.415 . S
C314 C319 1.425 . S
C314 C321 1.409 . S
C315 H307 0.930 1_556 S
C315 C313 1.419 . S
C315 C316 1.362 . S
C316 H308 0.930 . S
C316 C315 1.362 . S
C316 C319 1.409 . S
C317 H309 0.930 . S
C317 C318 1.355 . S
C317 C319 1.415 . S
C318 C317 1.355 . S
C318 C320 1.419 . S
C319 C314 1.425 . S
C319 C316 1.409 . S
C319 C317 1.415 . S
C320 H310 0.930 . S
C320 C318 1.419 . S
C320 C321 1.362 . S
C321 H311 0.930 . S
C321 C314 1.409 . S
C321 C320 1.362 . S
H322 C328 0.930 . S
H323 C331 0.930 . S
H324 C332 0.930 . S
H325 C333 0.930 . S
H326 C336 0.930 . S
H327 C337 0.930 . S
C328 H322 0.930 . S
C328 C329 1.355 . S
C328 C330 1.415 . S
C329 C328 1.355 . S
C329 C331 1.419 . S
C330 C328 1.415 . S
C330 C335 1.425 . S
C330 C337 1.409 . S
C331 H323 0.930 . S
C331 C329 1.419 . S
C331 C332 1.362 . S
C332 H324 0.930 . S
C332 C331 1.362 . S
C332 C335 1.409 . S
C333 H325 0.930 . S
C333 C334 1.355 . S
C333 C335 1.415 . S
C334 C333 1.355 . S
C334 C336 1.419 . S
C335 C330 1.425 . S
C335 C332 1.409 . S
C335 C333 1.415 . S
C336 H326 0.930 . S
C336 C334 1.419 . S
C336 C337 1.362 . S
C337 H327 0.930 . S
C337 C330 1.409 . S
C337 C336 1.362 . S
H338 C344 0.930 . S
H339 C347 0.930 1_554 S
H340 C348 0.930 . S
H341 C349 0.930 . S
H342 C352 0.930 . S
H343 C353 0.930 . S
C344 H338 0.930 . S
C344 C345 1.355 . S
C344 C346 1.415 . S
C345 C344 1.355 . S
C345 C347 1.419 . S
C346 C344 1.415 . S
C346 C351 1.425 . S
C346 C353 1.409 . S
C347 H339 0.930 1_556 S
C347 C345 1.419 . S
C347 C348 1.362 . S
C348 H340 0.930 . S
C348 C347 1.362 . S
C348 C351 1.409 . S
C349 H341 0.930 . S
C349 C350 1.355 . S
C349 C351 1.415 . S
C350 C349 1.355 . S
C350 C352 1.419 . S
C351 C346 1.425 . S
C351 C348 1.409 . S
C351 C349 1.415 . S
C352 H342 0.930 . S
C352 C350 1.419 . S
C352 C353 1.362 . S
C353 H343 0.930 . S
C353 C346 1.409 . S
C353 C352 1.362 . S
H354 C360 0.930 . S
H355 C363 0.930 . S
H356 C364 0.930 . S
H357 C365 0.930 . S
H358 C368 0.930 1_556 S
H359 C369 0.930 . S
C360 H354 0.930 . S
C360 C361 1.355 . S
C360 C362 1.415 . S
C361 C360 1.355 . S
C361 C363 1.419 . S
C362 C360 1.415 . S
C362 C367 1.425 . S
C362 C369 1.409 . S
C363 H355 0.930 . S
C363 C361 1.419 . S
C363 C364 1.362 . S
C364 H356 0.930 . S
C364 C363 1.362 . S
C364 C367 1.409 . S
C365 H357 0.930 . S
C365 C366 1.355 . S
C365 C367 1.415 . S
C366 C365 1.355 . S
C366 C368 1.419 . S
C367 C362 1.425 . S
C367 C364 1.409 . S
C367 C365 1.415 . S
C368 H358 0.930 1_554 S
C368 C366 1.419 . S
C368 C369 1.362 . S
C369 H359 0.930 . S
C369 C362 1.409 . S
C369 C368 1.362 . S
H370 C376 0.930 . S
H371 C379 0.930 . S
H372 C380 0.930 . S
H373 C381 0.930 . S
H374 C384 0.930 . S
H375 C385 0.930 . S
C376 H370 0.930 . S
C376 C377 1.355 . S
C376 C378 1.415 . S
C377 C376 1.355 . S
C377 C379 1.419 . S
C378 C376 1.415 . S
C378 C383 1.425 . S
C378 C385 1.409 . S
C379 H371 0.930 . S
C379 C377 1.419 . S
C379 C380 1.362 . S
C380 H372 0.930 . S
C380 C379 1.362 . S
C380 C383 1.409 . S
C381 H373 0.930 . S
C381 C382 1.355 . S
C381 C383 1.415 . S
C382 C381 1.355 . S
C382 C384 1.419 . S
C383 C378 1.425 . S
C383 C380 1.409 . S
C383 C381 1.415 . S
C384 H374 0.930 . S
C384 C382 1.419 . S
C384 C385 1.362 . S
C385 H375 0.930 . S
C385 C378 1.409 . S
C385 C384 1.362 . S
H386 C392 0.930 . S
H387 C395 0.930 . S
H388 C396 0.930 . S
H389 C397 0.930 . S
H390 C400 0.930 . S
H391 C401 0.930 . S
C392 H386 0.930 . S
C392 C393 1.355 . S
C392 C394 1.415 . S
C393 C392 1.355 . S
C393 C395 1.419 . S
C394 C392 1.415 . S
C394 C399 1.425 . S
C394 C401 1.409 . S
C395 H387 0.930 . S
C395 C393 1.419 . S
C395 C396 1.362 . S
C396 H388 0.930 . S
C396 C395 1.362 . S
C396 C399 1.409 . S
C397 H389 0.930 . S
C397 C398 1.355 . S
C397 C399 1.415 . S
C398 C397 1.355 . S
C398 C400 1.419 . S
C399 C394 1.425 . S
C399 C396 1.409 . S
C399 C397 1.415 . S
C400 H390 0.930 . S
C400 C398 1.419 . S
C400 C401 1.362 . S
C401 H391 0.930 . S
C401 C394 1.409 . S
C401 C400 1.362 . S
H402 C408 0.930 . S
H403 C411 0.930 . S
H404 C412 0.930 . S
H405 C413 0.930 . S
H406 C416 0.930 . S
H407 C417 0.930 . S
C408 H402 0.930 . S
C408 C409 1.355 . S
C408 C410 1.415 . S
C409 C408 1.355 . S
C409 C411 1.419 . S
C410 C408 1.415 . S
C410 C415 1.425 . S
C410 C417 1.409 1_455 S
C411 H403 0.930 . S
C411 C409 1.419 . S
C411 C412 1.362 . S
C412 H404 0.930 . S
C412 C411 1.362 . S
C412 C415 1.409 . S
C413 H405 0.930 . S
C413 C414 1.355 . S
C413 C415 1.415 1_655 S
C414 C413 1.355 . S
C414 C416 1.419 . S
C415 C410 1.425 . S
C415 C412 1.409 . S
C415 C413 1.415 1_455 S
C416 H406 0.930 . S
C416 C414 1.419 . S
C416 C417 1.362 . S
C417 H407 0.930 . S
C417 C410 1.409 1_655 S
C417 C416 1.362 . S
H418 C424 0.930 . S
H419 C427 0.930 . S
H420 C428 0.930 . S
H421 C429 0.930 . S
H422 C432 0.930 . S
H423 C433 0.930 . S
C424 H418 0.930 . S
C424 C425 1.355 . S
C424 C426 1.415 . S
C425 C424 1.355 . S
C425 C427 1.419 . S
C426 C424 1.415 . S
C426 C431 1.425 . S
C426 C433 1.409 . S
C427 H419 0.930 . S
C427 C425 1.419 . S
C427 C428 1.362 . S
C428 H420 0.930 . S
C428 C427 1.362 . S
C428 C431 1.409 . S
C429 H421 0.930 . S
C429 C430 1.355 . S
C429 C431 1.415 . S
C430 C429 1.355 . S
C430 C432 1.419 . S
C431 C426 1.425 . S
C431 C428 1.409 . S
C431 C429 1.415 . S
C432 H422 0.930 . S
C432 C430 1.419 . S
C432 C433 1.362 . S
C433 H423 0.930 . S
C433 C426 1.409 . S
C433 C432 1.362 . S
H434 C440 0.930 . S
H435 C443 0.930 . S
H436 C444 0.930 . S
H437 C445 0.930 . S
H438 C448 0.930 . S
H439 C449 0.930 . S
C440 H434 0.930 . S
C440 C441 1.355 . S
C440 C442 1.415 . S
C441 C440 1.355 . S
C441 C443 1.419 . S
C442 C440 1.415 . S
C442 C447 1.447 . S
C442 C449 1.409 . S
C443 H435 0.930 . S
C443 C441 1.419 . S
C443 C444 1.362 . S
C444 H436 0.930 . S
C444 C443 1.362 . S
C444 C447 1.407 . S
C445 H437 0.930 . S
C445 C446 1.355 . S
C445 C447 1.397 1_565 S
C446 C445 1.355 . S
C446 C448 1.419 . S
C447 C442 1.447 . S
C447 C444 1.407 . S
C447 C445 1.397 1_545 S
C448 H438 0.930 . S
C448 C446 1.419 . S
C448 C449 1.362 1_565 S
C449 H439 0.930 . S
C449 C442 1.409 . S
C449 C448 1.362 1_545 S
H450 C456 0.932 . S
H451 C459 0.930 . S
H452 C460 0.930 . S
H453 C461 0.930 . S
H454 C464 0.930 . S
H455 C465 0.930 . S
C456 H450 0.932 . S
C456 C457 1.352 1_556 S
C456 C458 1.415 . S
C457 C456 1.352 1_554 S
C457 C459 1.419 . S
C458 C456 1.415 . S
C458 C463 1.425 1_556 S
C458 C465 1.409 . S
C459 H451 0.930 . S
C459 C457 1.419 . S
C459 C460 1.362 . S
C460 H452 0.930 . S
C460 C459 1.362 . S
C460 C463 1.409 . S
C461 H453 0.930 . S
C461 C462 1.355 1_554 S
C461 C463 1.415 . S
C462 C461 1.355 1_556 S
C462 C464 1.419 . S
C463 C458 1.425 1_554 S
C463 C460 1.409 . S
C463 C461 1.415 . S
C464 H454 0.930 . S
C464 C462 1.419 . S
C464 C465 1.362 . S
C465 H455 0.930 . S
C465 C458 1.409 . S
C465 C464 1.362 . S
H466 C472 0.930 . S
H467 C475 0.930 . S
H468 C476 0.930 . S
H469 C477 0.930 . S
H470 C480 0.930 . S
H471 C481 0.930 . S
C472 H466 0.930 . S
C472 C473 1.355 . S
C472 C474 1.417 1_565 S
C473 C472 1.355 . S
C473 C475 1.419 1_556 S
C474 C472 1.417 1_545 S
C474 C479 1.422 1_556 S
C474 C481 1.410 . S
C475 H467 0.930 . S
C475 C473 1.419 1_554 S
C475 C476 1.362 . S
C476 H468 0.930 . S
C476 C475 1.362 . S
C476 C479 1.409 1_565 S
C477 H469 0.930 . S
C477 C478 1.355 . S
C477 C479 1.415 . S
C478 C477 1.355 . S
C478 C480 1.419 . S
C479 C474 1.422 1_554 S
C479 C476 1.409 1_545 S
C479 C477 1.415 . S
C480 H470 0.930 . S
C480 C478 1.419 . S
C480 C481 1.362 1_554 S
C481 H471 0.930 . S
C481 C474 1.410 . S
C481 C480 1.362 1_556 S
H482 C488 0.930 . S
H483 C491 0.930 . S
H484 C492 0.930 . S
H485 C493 0.930 . S
H486 C496 0.930 . S
H487 C497 0.930 . S
C488 H482 0.930 . S
C488 C489 1.355 . S
C488 C490 1.415 1_655 S
C489 C488 1.355 . S
C489 C491 1.419 1_554 S
C490 C488 1.415 1_455 S
C490 C495 1.425 1_554 S
C490 C497 1.409 . S
C491 H483 0.930 . S
C491 C489 1.419 1_556 S
C491 C492 1.362 . S
C492 H484 0.930 . S
C492 C491 1.362 . S
C492 C495 1.409 1_655 S
C493 H485 0.930 . S
C493 C494 1.355 . S
C493 C495 1.415 . S
C494 C493 1.355 . S
C494 C496 1.419 1_556 S
C495 C490 1.425 1_556 S
C495 C492 1.409 1_455 S
C495 C493 1.415 . S
C496 H486 0.930 . S
C496 C494 1.419 1_554 S
C496 C497 1.362 . S
C497 H487 0.930 . S
C497 C490 1.409 . S
C497 C496 1.362 . S
H498 C504 0.930 . S
H499 C507 0.930 . S
H500 C508 0.930 . S
H501 C509 0.930 . S
H502 C512 0.930 . S
H503 C513 0.930 . S
C504 H498 0.930 . S
C504 C505 1.355 . S
C504 C506 1.415 . S
C505 C504 1.355 . S
C505 C507 1.419 . S
C506 C504 1.415 . S
C506 C511 1.425 . S
C506 C513 1.409 . S
C507 H499 0.930 . S
C507 C505 1.419 . S
C507 C508 1.362 . S
C508 H500 0.930 . S
C508 C507 1.362 . S
C508 C511 1.409 . S
C509 H501 0.930 . S
C509 C510 1.355 . S
C509 C511 1.415 . S
C510 C509 1.355 . S
C510 C512 1.419 . S
C511 C506 1.425 . S
C511 C508 1.409 . S
C511 C509 1.415 . S
C512 H502 0.930 . S
C512 C510 1.419 . S
C512 C513 1.362 . S
C513 H503 0.930 . S
C513 C506 1.409 . S
C513 C512 1.362 . S
H514 C520 0.930 . S
H515 C523 0.930 . S
H516 C524 0.930 . S
H517 C525 0.930 . S
H518 C528 0.930 . S
H519 C529 0.930 . S
C520 H514 0.930 . S
C520 C521 1.355 . S
C520 C522 1.415 . S
C521 C520 1.355 . S
C521 C523 1.419 . S
C522 C520 1.415 . S
C522 C527 1.425 . S
C522 C529 1.409 . S
C523 H515 0.930 . S
C523 C521 1.419 . S
C523 C524 1.362 . S
C524 H516 0.930 . S
C524 C523 1.362 . S
C524 C527 1.409 . S
C525 H517 0.930 . S
C525 C526 1.355 . S
C525 C527 1.415 . S
C526 C525 1.355 . S
C526 C528 1.419 . S
C527 C522 1.425 . S
C527 C524 1.409 . S
C527 C525 1.415 . S
C528 H518 0.930 . S
C528 C526 1.419 . S
C528 C529 1.362 . S
C529 H519 0.930 . S
C529 C522 1.409 . S
C529 C528 1.362 . S
H530 C536 0.930 . S
H531 C539 0.930 . S
H532 C540 0.930 . S
H533 C541 0.930 . S
H534 C544 0.930 . S
H535 C545 0.930 . S
C536 H530 0.930 . S
C536 C537 1.355 . S
C536 C538 1.415 . S
C537 C536 1.355 . S
C537 C539 1.419 . S
C538 C536 1.415 . S
C538 C543 1.425 . S
C538 C545 1.409 . S
C539 H531 0.930 . S
C539 C537 1.419 . S
C539 C540 1.362 . S
C540 H532 0.930 . S
C540 C539 1.362 . S
C540 C543 1.409 . S
C541 H533 0.930 . S
C541 C542 1.355 . S
C541 C543 1.415 . S
C542 C541 1.355 . S
C542 C544 1.419 . S
C543 C538 1.425 . S
C543 C540 1.409 . S
C543 C541 1.415 . S
C544 H534 0.930 . S
C544 C542 1.419 . S
C544 C545 1.362 . S
C545 H535 0.930 . S
C545 C538 1.409 . S
C545 C544 1.362 . S
H546 C552 0.930 . S
H547 C555 0.930 . S
H548 C556 0.930 . S
H549 C557 0.930 . S
H550 C560 0.930 . S
H551 C561 0.930 . S
C552 H546 0.930 . S
C552 C553 1.355 . S
C552 C554 1.415 . S
C553 C552 1.355 . S
C553 C555 1.419 . S
C554 C552 1.415 . S
C554 C559 1.425 . S
C554 C561 1.409 . S
C555 H547 0.930 . S
C555 C553 1.419 . S
C555 C556 1.362 . S
C556 H548 0.930 . S
C556 C555 1.362 . S
C556 C559 1.409 . S
C557 H549 0.930 . S
C557 C558 1.355 . S
C557 C559 1.415 . S
C558 C557 1.355 . S
C558 C560 1.419 . S
C559 C554 1.425 . S
C559 C556 1.409 . S
C559 C557 1.415 . S
C560 H550 0.930 . S
C560 C558 1.419 . S
C560 C561 1.362 . S
C561 H551 0.930 . S
C561 C554 1.409 . S
C561 C560 1.362 . S
H562 C568 0.930 . S
H563 C571 0.930 . S
H564 C572 0.930 . S
H565 C573 0.930 . S
H566 C576 0.930 . S
H567 C577 0.930 . S
C568 H562 0.930 . S
C568 C569 1.355 . S
C568 C570 1.415 . S
C569 C568 1.355 . S
C569 C571 1.419 . S
C570 C568 1.415 . S
C570 C575 1.425 . S
C570 C577 1.409 . S
C571 H563 0.930 . S
C571 C569 1.419 . S
C571 C572 1.362 . S
C572 H564 0.930 . S
C572 C571 1.362 . S
C572 C575 1.409 . S
C573 H565 0.930 . S
C573 C574 1.355 . S
C573 C575 1.415 . S
C574 C573 1.355 . S
C574 C576 1.419 . S
C575 C570 1.425 . S
C575 C572 1.409 . S
C575 C573 1.415 . S
C576 H566 0.930 . S
C576 C574 1.419 . S
C576 C577 1.362 . S
C577 H567 0.930 . S
C577 C570 1.409 . S
C577 C576 1.362 . S
H578 C584 0.930 . S
H579 C587 0.930 . S
H580 C588 0.930 . S
H581 C589 0.930 . S
H582 C592 0.930 . S
H583 C593 0.930 . S
C584 H578 0.930 . S
C584 C585 1.355 . S
C584 C586 1.415 . S
C585 C584 1.355 . S
C585 C587 1.419 . S
C586 C584 1.415 . S
C586 C591 1.425 . S
C586 C593 1.409 . S
C587 H579 0.930 . S
C587 C585 1.419 . S
C587 C588 1.362 . S
C588 H580 0.930 . S
C588 C587 1.362 . S
C588 C591 1.409 . S
C589 H581 0.930 . S
C589 C590 1.355 . S
C589 C591 1.415 . S
C590 C589 1.355 . S
C590 C592 1.419 . S
C591 C586 1.425 . S
C591 C588 1.409 . S
C591 C589 1.415 . S
C592 H582 0.930 . S
C592 C590 1.419 . S
C592 C593 1.362 . S
C593 H583 0.930 . S
C593 C586 1.409 . S
C593 C592 1.362 . S
H594 C600 0.930 . S
H595 C603 0.930 . S
H596 C604 0.930 . S
H597 C605 0.930 . S
H598 C608 0.930 . S
H599 C609 0.930 . S
C600 H594 0.930 . S
C600 C601 1.355 . S
C600 C602 1.415 1_655 S
C601 C600 1.355 . S
C601 C603 1.419 . S
C602 C600 1.415 1_455 S
C602 C607 1.425 . S
C602 C609 1.409 . S
C603 H595 0.930 . S
C603 C601 1.419 . S
C603 C604 1.362 . S
C604 H596 0.930 . S
C604 C603 1.362 . S
C604 C607 1.409 1_655 S
C605 H597 0.930 . S
C605 C606 1.355 . S
C605 C607 1.415 . S
C606 C605 1.355 . S
C606 C608 1.419 . S
C607 C602 1.425 . S
C607 C604 1.409 1_455 S
C607 C605 1.415 . S
C608 H598 0.930 . S
C608 C606 1.419 . S
C608 C609 1.362 . S
C609 H599 0.930 . S
C609 C602 1.409 . S
C609 C608 1.362 . S
H610 C616 0.930 . S
H611 C619 0.930 . S
H612 C620 0.930 . S
H613 C621 0.930 . S
H614 C624 0.930 . S
H615 C625 0.930 . S
C616 H610 0.930 . S
C616 C617 1.355 . S
C616 C618 1.415 . S
C617 C616 1.355 . S
C617 C619 1.419 . S
C618 C616 1.415 . S
C618 C623 1.425 . S
C618 C625 1.409 . S
C619 H611 0.930 . S
C619 C617 1.419 . S
C619 C620 1.362 . S
C620 H612 0.930 . S
C620 C619 1.362 . S
C620 C623 1.409 . S
C621 H613 0.930 . S
C621 C622 1.355 . S
C621 C623 1.415 . S
C622 C621 1.355 . S
C622 C624 1.419 . S
C623 C618 1.425 . S
C623 C620 1.409 . S
C623 C621 1.415 . S
C624 H614 0.930 . S
C624 C622 1.419 . S
C624 C625 1.362 . S
C625 H615 0.930 . S
C625 C618 1.409 . S
C625 C624 1.362 . S
H626 C632 0.930 . S
H627 C635 0.930 . S
H628 C636 0.930 . S
H629 C637 0.930 . S
H630 C640 0.930 . S
H631 C641 0.930 . S
C632 H626 0.930 . S
C632 C633 1.355 . S
C632 C634 1.415 . S
C633 C632 1.355 . S
C633 C635 1.419 . S
C634 C632 1.415 . S
C634 C639 1.425 1_545 S
C634 C641 1.409 . S
C635 H627 0.930 . S
C635 C633 1.419 . S
C635 C636 1.362 1_545 S
C636 H628 0.930 . S
C636 C635 1.362 1_565 S
C636 C639 1.409 . S
C637 H629 0.930 . S
C637 C638 1.355 . S
C637 C639 1.415 . S
C638 C637 1.355 . S
C638 C640 1.419 1_565 S
C639 C634 1.425 1_565 S
C639 C636 1.409 . S
C639 C637 1.415 . S
C640 H630 0.930 . S
C640 C638 1.419 1_545 S
C640 C641 1.362 . S
C641 H631 0.930 . S
C641 C634 1.409 . S
C641 C640 1.362 . S
H642 C648 0.930 . S
H643 C651 0.930 . S
H644 C652 0.930 . S
H645 C653 0.930 . S
H646 C656 0.930 . S
H647 C657 0.930 . S
C648 H642 0.930 . S
C648 C649 1.355 . S
C648 C650 1.415 . S
C649 C648 1.355 . S
C649 C651 1.419 . S
C650 C648 1.415 . S
C650 C655 1.425 . S
C650 C657 1.409 . S
C651 H643 0.930 . S
C651 C649 1.419 . S
C651 C652 1.362 . S
C652 H644 0.930 . S
C652 C651 1.362 . S
C652 C655 1.409 . S
C653 H645 0.930 . S
C653 C654 1.355 . S
C653 C655 1.415 . S
C654 C653 1.355 . S
C654 C656 1.419 . S
C655 C650 1.425 . S
C655 C652 1.409 . S
C655 C653 1.415 . S
C656 H646 0.930 . S
C656 C654 1.419 . S
C656 C657 1.362 . S
C657 H647 0.930 . S
C657 C650 1.409 . S
C657 C656 1.362 . S
H658 C664 0.930 . S
H659 C667 0.930 . S
H660 C668 0.930 . S
H661 C669 0.930 . S
H662 C672 0.930 . S
H663 C673 0.930 . S
C664 H658 0.930 . S
C664 C665 1.355 . S
C664 C666 1.415 . S
C665 C664 1.355 . S
C665 C667 1.419 . S
C666 C664 1.415 . S
C666 C671 1.425 . S
C666 C673 1.409 . S
C667 H659 0.930 . S
C667 C665 1.419 . S
C667 C668 1.362 . S
C668 H660 0.930 . S
C668 C667 1.362 . S
C668 C671 1.409 . S
C669 H661 0.930 . S
C669 C670 1.355 . S
C669 C671 1.415 . S
C670 C669 1.355 . S
C670 C672 1.419 . S
C671 C666 1.425 . S
C671 C668 1.409 . S
C671 C669 1.415 . S
C672 H662 0.930 . S
C672 C670 1.419 . S
C672 C673 1.362 . S
C673 H663 0.930 . S
C673 C666 1.409 . S
C673 C672 1.362 . S
H674 C680 0.930 . S
H675 C683 0.930 . S
H676 C684 0.930 . S
H677 C685 0.930 . S
H678 C688 0.930 1_554 S
H679 C689 0.930 . S
C680 H674 0.930 . S
C680 C681 1.355 . S
C680 C682 1.415 . S
C681 C680 1.355 . S
C681 C683 1.419 . S
C682 C680 1.415 . S
C682 C687 1.425 . S
C682 C689 1.409 . S
C683 H675 0.930 . S
C683 C681 1.419 . S
C683 C684 1.362 . S
C684 H676 0.930 . S
C684 C683 1.362 . S
C684 C687 1.409 . S
C685 H677 0.930 . S
C685 C686 1.355 . S
C685 C687 1.415 . S
C686 C685 1.355 . S
C686 C688 1.419 . S
C687 C682 1.425 . S
C687 C684 1.409 . S
C687 C685 1.415 . S
C688 H678 0.930 1_556 S
C688 C686 1.419 . S
C688 C689 1.362 . S
C689 H679 0.930 . S
C689 C682 1.409 . S
C689 C688 1.362 . S
H690 C696 0.930 . S
H691 C699 0.930 . S
H692 C700 0.930 . S
H693 C701 0.930 . S
H694 C704 0.930 . S
H695 C705 0.930 . S
C696 H690 0.930 . S
C696 C697 1.355 . S
C696 C698 1.415 . S
C697 C696 1.355 . S
C697 C699 1.419 . S
C698 C696 1.415 . S
C698 C703 1.425 . S
C698 C705 1.409 . S
C699 H691 0.930 . S
C699 C697 1.419 . S
C699 C700 1.362 . S
C700 H692 0.930 . S
C700 C699 1.362 . S
C700 C703 1.409 . S
C701 H693 0.930 . S
C701 C702 1.355 . S
C701 C703 1.415 . S
C702 C701 1.355 . S
C702 C704 1.419 . S
C703 C698 1.425 . S
C703 C700 1.409 . S
C703 C701 1.415 . S
C704 H694 0.930 . S
C704 C702 1.419 . S
C704 C705 1.362 . S
C705 H695 0.930 . S
C705 C698 1.409 . S
C705 C704 1.362 . S
H706 C712 0.930 . S
H707 C715 0.930 . S
H708 C716 0.930 . S
H709 C717 0.930 . S
H710 C720 0.930 . S
H711 C721 0.930 . S
C712 H706 0.930 . S
C712 C713 1.355 . S
C712 C714 1.415 . S
C713 C712 1.355 . S
C713 C715 1.419 . S
C714 C712 1.415 . S
C714 C719 1.425 . S
C714 C721 1.409 . S
C715 H707 0.930 . S
C715 C713 1.419 . S
C715 C716 1.362 . S
C716 H708 0.930 . S
C716 C715 1.362 . S
C716 C719 1.409 . S
C717 H709 0.930 . S
C717 C718 1.355 . S
C717 C719 1.415 . S
C718 C717 1.355 . S
C718 C720 1.419 . S
C719 C714 1.425 . S
C719 C716 1.409 . S
C719 C717 1.415 . S
C720 H710 0.930 . S
C720 C718 1.419 . S
C720 C721 1.362 . S
C721 H711 0.930 . S
C721 C714 1.409 . S
C721 C720 1.362 . S
H722 C728 0.930 . S
H723 C731 0.930 . S
H724 C732 0.930 . S
H725 C733 0.930 . S
H726 C736 0.930 . S
H727 C737 0.930 . S
C728 H722 0.930 . S
C728 C729 1.355 . S
C728 C730 1.415 . S
C729 C728 1.355 . S
C729 C731 1.419 . S
C730 C728 1.415 . S
C730 C735 1.425 . S
C730 C737 1.409 . S
C731 H723 0.930 . S
C731 C729 1.419 . S
C731 C732 1.362 . S
C732 H724 0.930 . S
C732 C731 1.362 . S
C732 C735 1.409 . S
C733 H725 0.930 . S
C733 C734 1.355 . S
C733 C735 1.415 . S
C734 C733 1.355 . S
C734 C736 1.419 . S
C735 C730 1.425 . S
C735 C732 1.409 . S
C735 C733 1.415 . S
C736 H726 0.930 . S
C736 C734 1.419 . S
C736 C737 1.362 . S
C737 H727 0.930 . S
C737 C730 1.409 . S
C737 C736 1.362 . S
C313 C29 1.854 . S
C318 C267 1.855 . S
C329 C51 1.803 . S
C334 C289 1.795 . S
C345 C97 1.847 . S
C350 C221 1.846 . S
C361 C153 1.797 . S
C366 C85 1.795 . S
C377 C187 1.757 . S
C382 C17 1.756 . S
C393 C63 1.779 . S
C398 C119 1.792 . S
C409 C255 1.792 . S
C414 C199 1.783 . S
C425 C301 1.857 . S
C430 C131 1.840 . S
C441 C165 1.874 . S
C446 C233 1.857 . S
C457 C68 1.331 . S
C462 C8 1.316 . S
C473 C34 1.314 . S
C478 C0 1.340 . S
C489 C42 1.306 . S
C494 C76 1.311 . S
C505 C102 1.306 . S
C510 C178 1.329 . S
C521 C110 1.353 . S
C526 C136 1.360 . S
C537 C144 1.327 . S
C542 C170 1.304 . S
C553 C272 1.371 . S
C558 C212 1.372 . S
C569 C238 1.321 . S
C574 C204 1.300 . S
C585 C280 1.360 . S
C590 C246 1.352 . S
C601 C13 1.211 . S
C606 C4 1.211 . S
C617 C38 1.128 . S
C622 C47 1.128 . S
C633 C81 1.143 . S
C638 C72 1.143 . S
C649 C115 1.220 . S
C654 C106 1.220 1_556 S
C665 C149 1.175 . S
C670 C140 1.175 1_556 S
C681 C183 1.128 . S
C686 C174 1.128 1_556 S
C697 C217 1.161 . S
C702 C208 1.161 1_554 S
C713 C251 1.163 1_554 S
C718 C242 1.163 . S
C729 C285 1.202 . S
C734 C276 1.202 1_554 S
