# Generated by pormake.
# Topology sra, (4)-cn, num edge types: 1
# Building blocks:
#     Node 0, Type 0, BuildingBlock: AZAVOO_clean_sbu_0, # of connection points: 4
#     Node 1, Type 0, BuildingBlock: AZAVOO_clean_sbu_0, # of connection points: 4
#     Node 2, Type 0, BuildingBlock: AZAVOO_clean_sbu_0, # of connection points: 4
#     Node 3, Type 0, BuildingBlock: AZAVOO_clean_sbu_0, # of connection points: 4
#     Node 4, Type 0, BuildingBlock: AZAVOO_clean_sbu_0, # of connection points: 4
#     Node 5, Type 0, BuildingBlock: AZAVOO_clean_sbu_0, # of connection points: 4
#     Node 6, Type 0, BuildingBlock: AZAVOO_clean_sbu_0, # of connection points: 4
#     Node 7, Type 0, BuildingBlock: AZAVOO_clean_sbu_0, # of connection points: 4
#     Edge 8, Type (0, 0), BuildingBlock: AJUNOK_clean_linker_0, # of connection points: 2
#     Edge 9, Type (0, 0), BuildingBlock: AJUNOK_clean_linker_0, # of connection points: 2
#     Edge 10, Type (0, 0), BuildingBlock: AJUNOK_clean_linker_0, # of connection points: 2
#     Edge 11, Type (0, 0), BuildingBlock: AJUNOK_clean_linker_0, # of connection points: 2
#     Edge 12, Type (0, 0), BuildingBlock: AJUNOK_clean_linker_0, # of connection points: 2
#     Edge 13, Type (0, 0), BuildingBlock: AJUNOK_clean_linker_0, # of connection points: 2
#     Edge 14, Type (0, 0), BuildingBlock: AJUNOK_clean_linker_0, # of connection points: 2
#     Edge 15, Type (0, 0), BuildingBlock: AJUNOK_clean_linker_0, # of connection points: 2
#     Edge 16, Type (0, 0), BuildingBlock: AJUNOK_clean_linker_0, # of connection points: 2
#     Edge 17, Type (0, 0), BuildingBlock: AJUNOK_clean_linker_0, # of connection points: 2
#     Edge 18, Type (0, 0), BuildingBlock: AJUNOK_clean_linker_0, # of connection points: 2
#     Edge 19, Type (0, 0), BuildingBlock: AJUNOK_clean_linker_0, # of connection points: 2
#     Edge 20, Type (0, 0), BuildingBlock: AJUNOK_clean_linker_0, # of connection points: 2
#     Edge 21, Type (0, 0), BuildingBlock: AJUNOK_clean_linker_0, # of connection points: 2
#     Edge 22, Type (0, 0), BuildingBlock: AJUNOK_clean_linker_0, # of connection points: 2
#     Edge 23, Type (0, 0), BuildingBlock: AJUNOK_clean_linker_0, # of connection points: 2
# Relax obj value: 0.076
# Max RMSD: 0.076
# Mean RMSD: 0.076
data_MOF--net-sra--node1-AZAVOO_clean_sbu_0--edge1-AJUNOK_clean_linker_0
_symmetry_space_group_name_H-M    P1
_symmetry_Int_Tables_number       1
_symmetry_cell_setting            triclinic
loop_
_symmetry_equiv_pos_as_xyz
'x, y, z'
_cell_length_a     20.258114
_cell_length_b     28.524472
_cell_length_c     33.287828
_cell_angle_alpha  90.203028
_cell_angle_beta   89.995364
_cell_angle_gamma 89.822854
loop_
_atom_site_label
_atom_site_type_symbol
_atom_site_fract_x
_atom_site_fract_y
_atom_site_fract_z
_atom_type_partial_charge
Mg0 Mg 0.01979 0.04202 0.15674 0.0
O1 O 0.0199 0.12235 0.15289 0.0
O2 O 0.11567 0.14585 0.12675 0.0
Mg3 Mg 0.17532 0.08027 0.11125 0.0
C4 C 0.05902 0.1548 0.14169 0.0
C5 C 0.89369 0.02947 0.20706 0.0
O6 O 0.93976 0.01213 0.23048 0.0
O7 O -0.00123 0.03632 0.08945 0.0
O8 O 0.09654 0.05886 0.06518 0.0
O9 O 0.07044 0.04509 0.21606 0.0
O10 O 0.12347 0.04092 0.15836 0.0
C11 C 0.03744 0.04446 0.06002 0.0
C12 C 0.12597 0.04438 0.19691 0.0
O13 O 0.91016 0.04429 0.1725 0.0
Mg14 Mg -0.00966 0.46138 0.1636 0.0
O15 O -0.0013 0.38133 0.15739 0.0
O16 O 0.90858 0.35444 0.12648 0.0
Mg17 Mg 0.84471 0.4174 0.11023 0.0
C18 C 0.96432 0.34763 0.14332 0.0
C19 C 0.11298 0.45753 0.21986 0.0
O20 O 0.06528 0.4495 0.2456 0.0
O21 O 0.0178 0.47043 0.09762 0.0
O22 O 0.92624 0.44351 0.06785 0.0
O23 O 0.9327 0.45405 0.22035 0.0
O24 O 0.88717 0.45795 0.16036 0.0
C25 C 0.98418 0.461 0.06619 0.0
C26 C 0.87988 0.45318 0.19852 0.0
O27 O 0.09828 0.46394 0.18313 0.0
Mg28 Mg 0.00389 0.95533 0.80527 0.0
O29 O 0.00727 0.87696 0.82068 0.0
O30 O 0.10482 0.86211 0.84949 0.0
Mg31 Mg 0.16333 0.9304 0.85335 0.0
C32 C 0.04868 0.84862 0.8365 0.0
C33 C 0.86238 0.9892 0.78658 0.0
O34 O 0.89314 0.02896 0.79319 0.0
O35 O 0.98518 0.97441 0.87135 0.0
O36 O 0.0871 0.96304 0.89564 0.0
O37 O 0.05239 0.9413 0.74597 0.0
O38 O 0.10673 0.95623 0.80198 0.0
C39 C 0.02723 0.97613 0.8999 0.0
C40 C 0.10826 0.94519 0.76451 0.0
O41 O 0.89413 0.95105 0.79087 0.0
Mg42 Mg 0.0116 0.54164 0.81146 0.0
O43 O 0.01333 0.62071 0.82459 0.0
O44 O 0.91861 0.64099 0.85443 0.0
Mg45 Mg 0.85805 0.57447 0.86319 0.0
C46 C 0.97507 0.65151 0.8401 0.0
C47 C 0.14755 0.50533 0.78286 0.0
O48 O 0.11296 0.4665 0.78438 0.0
O49 O 0.03451 0.52546 0.87726 0.0
O50 O 0.93752 0.54498 0.90528 0.0
O51 O 0.95817 0.5548 0.7539 0.0
O52 O 0.90876 0.54224 0.81188 0.0
C53 C -0.00337 0.52956 0.90774 0.0
C54 C 0.90398 0.5523 0.77438 0.0
O55 O 0.12031 0.54353 0.79371 0.0
Mg56 Mg 0.53421 0.54587 0.66807 0.0
O57 O 0.52312 0.62429 0.65444 0.0
O58 O 0.60713 0.64537 0.61486 0.0
Mg59 Mg 0.67519 0.58209 0.60697 0.0
C60 C 0.55397 0.65483 0.63378 0.0
C61 C 0.40998 0.50813 0.71076 0.0
O62 O 0.45273 0.47413 0.71664 0.0
O63 O 0.5041 0.52543 0.60394 0.0
O64 O 0.59563 0.545 0.57033 0.0
O65 O 0.59184 0.56221 0.72299 0.0
O66 O 0.6375 0.55134 0.66345 0.0
C67 C 0.5378 0.52759 0.5716 0.0
C68 C 0.64456 0.56148 0.701 0.0
O69 O 0.42778 0.54354 0.69041 0.0
Mg70 Mg 0.48176 0.95609 0.66327 0.0
O71 O 0.48921 0.87681 0.65222 0.0
O72 O 0.40526 0.85529 0.61252 0.0
Mg73 Mg 0.34105 0.9197 0.60114 0.0
C74 C 0.45738 0.84589 0.63241 0.0
C75 C 0.60032 0.98762 0.71425 0.0
O76 O 0.55443 0.01807 0.72441 0.0
O77 O 0.5163 0.97166 0.59922 0.0
O78 O 0.42552 0.95141 0.56481 0.0
O79 O 0.41865 0.94374 0.71685 0.0
O80 O 0.37964 0.95379 0.6556 0.0
C81 C 0.4842 0.96748 0.56639 0.0
C82 C 0.36833 0.94541 0.69289 0.0
O83 O 0.58657 0.95646 0.68818 0.0
Mg84 Mg 0.51876 0.45481 0.31834 0.0
O85 O 0.5137 0.37462 0.3218 0.0
O86 O 0.60748 0.34722 0.348 0.0
Mg87 Mg 0.67134 0.41046 0.36363 0.0
C88 C 0.55024 0.3406 0.33308 0.0
C89 C 0.38999 0.46126 0.26775 0.0
O90 O 0.43491 0.46588 0.2396 0.0
O91 O 0.49921 0.46121 0.38556 0.0
O92 O 0.59463 0.43445 0.41058 0.0
O93 O 0.56855 0.45022 0.25893 0.0
O94 O 0.62216 0.45212 0.31653 0.0
C95 C 0.53648 0.45115 0.41522 0.0
C96 C 0.62418 0.44882 0.27795 0.0
O97 O 0.40869 0.45658 0.30397 0.0
Mg98 Mg 0.49209 0.03441 0.31201 0.0
O99 O 0.49546 0.11498 0.31708 0.0
O100 O 0.4025 0.13915 0.34687 0.0
Mg101 Mg 0.34254 0.0749 0.36371 0.0
C102 C 0.4578 0.14766 0.33017 0.0
C103 C 0.61912 0.04499 0.25894 0.0
O104 O 0.57465 0.05973 0.23314 0.0
O105 O 0.51864 0.02721 0.37825 0.0
O106 O 0.42478 0.05187 0.407 0.0
O107 O 0.43532 0.0391 0.25461 0.0
O108 O 0.38905 0.03528 0.31441 0.0
C109 C 0.4838 0.03615 0.4093 0.0
C110 C 0.38212 0.03913 0.27617 0.0
O111 O 0.60054 0.03293 0.29387 0.0
C112 C 0.94595 0.26107 0.1449 0.0
C113 C -0.00986 0.29903 0.14549 0.0
C114 C 0.96872 0.21465 0.14479 0.0
C115 C 0.03667 0.20427 0.14456 0.0
H116 H 0.89315 0.26719 0.14435 0.0
H117 H 0.93263 0.18672 0.14383 0.0
S118 S 0.17305 0.29098 0.14727 0.0
N119 N 0.10519 0.32317 0.14709 0.0
N120 N 0.1481 0.23594 0.14633 0.0
C121 C 0.0815 0.2419 0.14578 0.0
C122 C 0.05824 0.28924 0.14646 0.0
C123 C 0.96503 0.78447 0.84027 0.0
C124 C 0.0316 0.7982 0.83877 0.0
C125 C 0.94741 0.73703 0.84143 0.0
C126 C -0.00439 0.70136 0.8404 0.0
H127 H 0.92609 0.81059 0.84068 0.0
H128 H 0.89543 0.72829 0.84237 0.0
S129 S 0.17705 0.71862 0.83644 0.0
N130 N 0.14613 0.77224 0.8366 0.0
N131 N 0.11294 0.6831 0.83826 0.0
C132 C 0.06242 0.71458 0.83898 0.0
C133 C 0.08042 0.76294 0.83837 0.0
C134 C 0.50655 0.72508 0.6682 0.0
C135 C 0.52834 0.70322 0.63262 0.0
C136 C 0.48461 0.77178 0.66808 0.0
C137 C 0.48194 0.79742 0.63219 0.0
H138 H 0.50778 0.70628 0.69641 0.0
H139 H 0.46885 0.78774 0.69608 0.0
S140 S 0.53137 0.756 0.53099 0.0
N141 N 0.54574 0.71077 0.56066 0.0
N142 N 0.50172 0.79794 0.56029 0.0
C143 C 0.50243 0.77583 0.59638 0.0
C144 C 0.52643 0.72881 0.59664 0.0
C145 C 0.56999 0.25391 0.33017 0.0
C146 C 0.52531 0.29186 0.32963 0.0
C147 C 0.54785 0.20742 0.3289 0.0
C148 C 0.48009 0.19699 0.32773 0.0
H149 H 0.62266 0.26009 0.33185 0.0
H150 H 0.58412 0.17946 0.3301 0.0
S151 S 0.34264 0.28327 0.32353 0.0
N152 N 0.40993 0.31564 0.32589 0.0
N153 N 0.36843 0.22832 0.32404 0.0
C154 C 0.43486 0.2345 0.32624 0.0
C155 C 0.45741 0.28188 0.327 0.0
C156 C 0.31041 0.05365 0.21632 0.0
C157 C 0.31588 0.04347 0.25748 0.0
C158 C 0.24884 0.05488 0.19718 0.0
C159 C 0.19003 0.0465 0.21846 0.0
H160 H 0.35414 0.05999 0.19843 0.0
H161 H 0.24784 0.06187 0.16533 0.0
S162 S 0.17695 0.0173 0.32676 0.0
N163 N 0.25678 0.02371 0.31882 0.0
N164 N 0.1412 0.02758 0.28313 0.0
C165 C 0.19459 0.03711 0.25982 0.0
C166 C 0.25741 0.0352 0.27924 0.0
C167 C 0.74692 0.43774 0.27762 0.0
C168 C 0.68796 0.44529 0.25621 0.0
C169 C 0.80842 0.43873 0.2584 0.0
C170 C 0.81368 0.44779 0.21702 0.0
H171 H 0.74606 0.43198 0.30968 0.0
H172 H 0.85228 0.43342 0.27646 0.0
S173 S 0.6741 0.46985 0.14704 0.0
N174 N 0.63864 0.4611 0.19098 0.0
N175 N 0.75409 0.46443 0.15514 0.0
C176 C 0.75501 0.45459 0.19504 0.0
C177 C 0.69226 0.45298 0.21455 0.0
C178 C 0.22752 0.92292 0.76488 0.0
C179 C 0.17191 0.93869 0.74354 0.0
C180 C 0.29045 0.92328 0.7476 0.0
C181 C 0.30026 0.9394 0.70821 0.0
H182 H 0.22289 0.91083 0.79543 0.0
H183 H 0.33193 0.91198 0.76571 0.0
S184 S 0.1697 0.98143 0.63852 0.0
N185 N 0.12971 0.96812 0.68013 0.0
N186 N 0.24804 0.96931 0.64749 0.0
C187 C 0.24447 0.95305 0.68574 0.0
C188 C 0.18024 0.95246 0.70341 0.0
C189 C 0.71848 0.552 0.76002 0.0
C190 C 0.71059 0.56586 0.71981 0.0
C191 C 0.78104 0.54909 0.77762 0.0
C192 C 0.83841 0.56029 0.75587 0.0
H193 H 0.67624 0.5412 0.77764 0.0
H194 H 0.78433 0.53632 0.80815 0.0
S195 S 0.84396 0.60592 0.65171 0.0
N196 N 0.76494 0.59623 0.6603 0.0
N197 N 0.88273 0.59063 0.69328 0.0
C198 C 0.83106 0.57677 0.71637 0.0
C199 C 0.76712 0.5796 0.69838 0.0
C200 C 0.70797 0.94923 0.73159 0.0
C201 C 0.66629 0.98874 0.73368 0.0
C202 C 0.77042 0.94924 0.74977 0.0
C203 C 0.79416 0.98899 0.7703 0.0
H204 H 0.69225 0.91787 0.71588 0.0
H205 H 0.80083 0.9181 0.74692 0.0
S206 S 0.70401 0.10125 0.78519 0.0
N207 N 0.65286 0.06848 0.75872 0.0
N208 N 0.77036 0.06863 0.79244 0.0
C209 C 0.75281 0.02861 0.77293 0.0
C210 C 0.6889 0.02844 0.75477 0.0
C211 C 0.30581 0.54767 0.73362 0.0
C212 C 0.34327 0.50632 0.72922 0.0
C213 C 0.24332 0.54717 0.75177 0.0
C214 C 0.21528 0.50518 0.76576 0.0
H215 H 0.32506 0.5809 0.72327 0.0
H216 H 0.21642 0.57993 0.75426 0.0
S217 S 0.29299 0.38717 0.76157 0.0
N218 N 0.34778 0.42216 0.74067 0.0
N219 N 0.23025 0.42114 0.77432 0.0
C220 C 0.25219 0.46355 0.76158 0.0
C221 C 0.31615 0.46414 0.74347 0.0
C222 C 0.70879 0.05321 0.20758 0.0
C223 C 0.6896 0.04113 0.24687 0.0
C224 C 0.77463 0.04921 0.195 0.0
C225 C 0.82417 0.03288 0.22113 0.0
H226 H 0.67269 0.06579 0.18615 0.0
H227 H 0.7866 0.05897 0.16445 0.0
S228 S 0.8004 0.99728 0.32748 0.0
N229 N 0.72602 0.01259 0.31208 0.0
N230 N 0.84944 0.00501 0.2885 0.0
C231 C 0.80579 0.0208 0.2606 0.0
C232 C 0.7387 0.02496 0.27343 0.0
C233 C 0.23367 0.46393 0.20477 0.0
C234 C 0.18293 0.45877 0.23326 0.0
C235 C 0.30012 0.46486 0.21632 0.0
C236 C 0.31887 0.46072 0.25689 0.0
H237 H 0.22218 0.46708 0.17311 0.0
H238 H 0.33704 0.46873 0.19304 0.0
S239 S 0.20525 0.44716 0.34364 0.0
N240 N 0.15611 0.44996 0.30417 0.0
N241 N 0.28095 0.45166 0.3258 0.0
C242 C 0.26869 0.45575 0.28581 0.0
C243 C 0.20084 0.45478 0.27404 0.0
C244 C 0.046 0.0581 0.98665 0.0
C245 C 0.01719 0.03307 0.01843 0.0
C246 C 0.0429 0.04142 0.94719 0.0
C247 C 0.01064 -0.00074 0.93803 0.0
H248 H 0.07489 0.08927 -0.00737 0.0
H249 H 0.06997 0.05991 0.92408 0.0
S250 S 0.92068 0.92322 0.00911 0.0
N251 N 0.94961 0.96625 0.03738 0.0
N252 N 0.94433 0.93486 0.96269 0.0
C253 C 0.97691 0.97583 0.96871 0.0
C254 C 0.97985 0.99289 0.00912 0.0
C255 C 0.00305 0.4625 0.95391 0.0
C256 C 0.01648 0.50994 0.94656 0.0
C257 C -0.0015 0.44559 -0.00674 0.0
C258 C 0.00832 0.47547 0.02638 0.0
H259 H -0.00981 0.43932 0.92927 0.0
H260 H 0.98285 0.4097 -0.00216 0.0
S261 S 0.05187 0.60147 0.02253 0.0
N262 N 0.04442 0.58573 0.97493 0.0
N263 N 0.03824 0.55365 0.04913 0.0
C264 C 0.02769 0.52198 0.01925 0.0
C265 C 0.03099 0.53938 0.97916 0.0
C266 C 0.49437 0.51148 0.46306 0.0
C267 C 0.51681 0.4654 0.45615 0.0
C268 C 0.49444 0.5307 0.50195 0.0
C269 C 0.51486 0.50389 0.53503 0.0
H270 H 0.48275 0.53416 0.43798 0.0
H271 H 0.48328 0.56763 0.50576 0.0
S272 S 0.56798 0.37961 0.53351 0.0
N273 N 0.55306 0.39211 0.48593 0.0
N274 N 0.551 0.42787 0.55913 0.0
C275 C 0.53108 0.45658 0.52894 0.0
C276 C 0.53251 0.43735 0.48939 0.0
C277 C 0.49733 0.03514 0.52163 0.0
C278 C 0.51009 0.98758 0.52917 0.0
C279 C 0.49549 0.05218 0.48224 0.0
C280 C 0.50754 0.0223 0.44936 0.0
H281 H 0.48207 0.05816 0.54591 0.0
H282 H 0.47954 0.088 0.47731 0.0
S283 S 0.55209 0.89635 0.45406 0.0
N284 N 0.54099 0.91194 0.50144 0.0
N285 N 0.5401 0.94428 0.42724 0.0
C286 C 0.5272 0.97587 0.45688 0.0
C287 C 0.52767 0.95834 0.49696 0.0
loop_
_geom_bond_atom_site_label_1
_geom_bond_atom_site_label_2
_geom_bond_distance
_geom_bond_site_symmetry_2
_ccdc_geom_bond_type
Mg0 O1 2.028 . S
Mg0 O7 1.986 . S
Mg0 O9 2.114 . S
Mg0 O10 2.251 . S
Mg0 O13 2.010 1_455 S
O1 Mg0 2.028 . S
O1 C4 1.250 . S
O2 Mg3 2.028 . S
O2 C4 1.248 . S
Mg3 O2 2.028 . S
Mg3 O8 2.032 . S
Mg3 O10 2.079 . S
C4 O1 1.250 . S
C4 O2 1.248 . S
C5 O6 1.264 1_545 S
C5 O13 1.249 . S
O6 C5 1.264 1_565 S
O7 Mg0 1.986 . S
O7 C11 1.246 . S
O8 Mg3 2.032 . S
O8 C11 1.259 . S
O9 Mg0 2.114 . S
O9 C12 1.252 . S
O10 Mg0 2.251 . S
O10 Mg3 2.079 . S
O10 C12 1.273 . S
C11 O7 1.246 . S
C11 O8 1.259 . S
C12 O9 1.252 . S
C12 O10 1.273 . S
O13 Mg0 2.010 1_655 S
O13 C5 1.249 . S
Mg14 O15 2.028 . S
Mg14 O21 1.986 . S
Mg14 O23 2.114 1_455 S
Mg14 O24 2.251 1_455 S
Mg14 O27 2.010 . S
O15 Mg14 2.028 . S
O15 C18 1.250 1_455 S
O16 Mg17 2.028 . S
O16 C18 1.248 . S
Mg17 O16 2.028 . S
Mg17 O22 2.032 . S
Mg17 O24 2.079 . S
C18 O15 1.250 1_655 S
C18 O16 1.248 . S
C19 O20 1.264 . S
C19 O27 1.249 . S
O20 C19 1.264 . S
O21 Mg14 1.986 . S
O21 C25 1.246 1_455 S
O22 Mg17 2.032 . S
O22 C25 1.259 . S
O23 Mg14 2.114 1_655 S
O23 C26 1.252 . S
O24 Mg14 2.251 1_655 S
O24 Mg17 2.079 . S
O24 C26 1.273 . S
C25 O21 1.246 1_655 S
C25 O22 1.259 . S
C26 O23 1.252 . S
C26 O24 1.273 . S
O27 Mg14 2.010 . S
O27 C19 1.249 . S
Mg28 O29 2.028 . S
Mg28 O35 1.986 . S
Mg28 O37 2.114 . S
Mg28 O38 2.251 . S
Mg28 O41 2.010 1_455 S
O29 Mg28 2.028 . S
O29 C32 1.250 . S
O30 Mg31 2.028 . S
O30 C32 1.248 . S
Mg31 O30 2.028 . S
Mg31 O36 2.032 . S
Mg31 O38 2.079 . S
C32 O29 1.250 . S
C32 O30 1.248 . S
C33 O34 1.264 1_565 S
C33 O41 1.249 . S
O34 C33 1.264 1_545 S
O35 Mg28 1.986 . S
O35 C39 1.246 . S
O36 Mg31 2.032 . S
O36 C39 1.259 . S
O37 Mg28 2.114 . S
O37 C40 1.252 . S
O38 Mg28 2.251 . S
O38 Mg31 2.079 . S
O38 C40 1.273 . S
C39 O35 1.246 . S
C39 O36 1.259 . S
C40 O37 1.252 . S
C40 O38 1.273 . S
O41 Mg28 2.010 1_655 S
O41 C33 1.249 . S
Mg42 O43 2.028 . S
Mg42 O49 1.986 . S
Mg42 O51 2.114 1_455 S
Mg42 O52 2.251 1_455 S
Mg42 O55 2.010 . S
O43 Mg42 2.028 . S
O43 C46 1.250 1_455 S
O44 Mg45 2.028 . S
O44 C46 1.248 . S
Mg45 O44 2.028 . S
Mg45 O50 2.032 . S
Mg45 O52 2.079 . S
C46 O43 1.250 1_655 S
C46 O44 1.248 . S
C47 O48 1.264 . S
C47 O55 1.249 . S
O48 C47 1.264 . S
O49 Mg42 1.986 . S
O49 C53 1.246 1_455 S
O50 Mg45 2.032 . S
O50 C53 1.259 . S
O51 Mg42 2.114 1_655 S
O51 C54 1.252 . S
O52 Mg42 2.251 1_655 S
O52 Mg45 2.079 . S
O52 C54 1.273 . S
C53 O49 1.246 1_655 S
C53 O50 1.259 . S
C54 O51 1.252 . S
C54 O52 1.273 . S
O55 Mg42 2.010 . S
O55 C47 1.249 . S
Mg56 O57 2.028 . S
Mg56 O63 1.986 . S
Mg56 O65 2.114 . S
Mg56 O66 2.251 . S
Mg56 O69 2.010 . S
O57 Mg56 2.028 . S
O57 C60 1.250 . S
O58 Mg59 2.028 . S
O58 C60 1.248 . S
Mg59 O58 2.028 . S
Mg59 O64 2.032 . S
Mg59 O66 2.079 . S
C60 O57 1.250 . S
C60 O58 1.248 . S
C61 O62 1.264 . S
C61 O69 1.249 . S
O62 C61 1.264 . S
O63 Mg56 1.986 . S
O63 C67 1.246 . S
O64 Mg59 2.032 . S
O64 C67 1.259 . S
O65 Mg56 2.114 . S
O65 C68 1.252 . S
O66 Mg56 2.251 . S
O66 Mg59 2.079 . S
O66 C68 1.273 . S
C67 O63 1.246 . S
C67 O64 1.259 . S
C68 O65 1.252 . S
C68 O66 1.273 . S
O69 Mg56 2.010 . S
O69 C61 1.249 . S
Mg70 O71 2.028 . S
Mg70 O77 1.986 . S
Mg70 O79 2.114 . S
Mg70 O80 2.251 . S
Mg70 O83 2.010 . S
O71 Mg70 2.028 . S
O71 C74 1.250 . S
O72 Mg73 2.028 . S
O72 C74 1.248 . S
Mg73 O72 2.028 . S
Mg73 O78 2.032 . S
Mg73 O80 2.079 . S
C74 O71 1.250 . S
C74 O72 1.248 . S
C75 O76 1.264 1_565 S
C75 O83 1.249 . S
O76 C75 1.264 1_545 S
O77 Mg70 1.986 . S
O77 C81 1.246 . S
O78 Mg73 2.032 . S
O78 C81 1.259 . S
O79 Mg70 2.114 . S
O79 C82 1.252 . S
O80 Mg70 2.251 . S
O80 Mg73 2.079 . S
O80 C82 1.273 . S
C81 O77 1.246 . S
C81 O78 1.259 . S
C82 O79 1.252 . S
C82 O80 1.273 . S
O83 Mg70 2.010 . S
O83 C75 1.249 . S
Mg84 O85 2.028 . S
Mg84 O91 1.986 . S
Mg84 O93 2.114 . S
Mg84 O94 2.251 . S
Mg84 O97 2.010 . S
O85 Mg84 2.028 . S
O85 C88 1.250 . S
O86 Mg87 2.028 . S
O86 C88 1.248 . S
Mg87 O86 2.028 . S
Mg87 O92 2.032 . S
Mg87 O94 2.079 . S
C88 O85 1.250 . S
C88 O86 1.248 . S
C89 O90 1.264 . S
C89 O97 1.249 . S
O90 C89 1.264 . S
O91 Mg84 1.986 . S
O91 C95 1.246 . S
O92 Mg87 2.032 . S
O92 C95 1.259 . S
O93 Mg84 2.114 . S
O93 C96 1.252 . S
O94 Mg84 2.251 . S
O94 Mg87 2.079 . S
O94 C96 1.273 . S
C95 O91 1.246 . S
C95 O92 1.259 . S
C96 O93 1.252 . S
C96 O94 1.273 . S
O97 Mg84 2.010 . S
O97 C89 1.249 . S
Mg98 O99 2.028 . S
Mg98 O105 1.986 . S
Mg98 O107 2.114 . S
Mg98 O108 2.251 . S
Mg98 O111 2.010 . S
O99 Mg98 2.028 . S
O99 C102 1.250 . S
O100 Mg101 2.028 . S
O100 C102 1.248 . S
Mg101 O100 2.028 . S
Mg101 O106 2.032 . S
Mg101 O108 2.079 . S
C102 O99 1.250 . S
C102 O100 1.248 . S
C103 O104 1.264 1_545 S
C103 O111 1.249 . S
O104 C103 1.264 1_565 S
O105 Mg98 1.986 . S
O105 C109 1.246 . S
O106 Mg101 2.032 . S
O106 C109 1.259 . S
O107 Mg98 2.114 . S
O107 C110 1.252 . S
O108 Mg98 2.251 . S
O108 Mg101 2.079 . S
O108 C110 1.273 . S
C109 O105 1.246 . S
C109 O106 1.259 . S
C110 O107 1.252 . S
C110 O108 1.273 . S
O111 Mg98 2.010 . S
O111 C103 1.249 . S
C112 C113 1.369 . S
C112 C114 1.419 . S
C112 H116 0.930 . S
C113 C112 1.369 . S
C113 C122 1.429 . S
C114 C112 1.419 . S
C114 C115 1.363 . S
C114 H117 0.929 . S
C115 C114 1.363 . S
C115 C121 1.428 . S
H116 C112 0.930 . S
H117 C114 0.929 . S
S118 N119 1.613 . S
S118 N120 1.610 . S
N119 S118 1.613 . S
N119 C122 1.350 . S
N120 S118 1.610 . S
N120 C121 1.351 . S
C121 C115 1.428 . S
C121 N120 1.351 . S
C121 C122 1.434 . S
C122 C113 1.429 . S
C122 N119 1.350 . S
C122 C121 1.434 . S
C123 C124 1.369 1_655 S
C123 C125 1.419 . S
C123 H127 0.930 . S
C124 C123 1.369 1_455 S
C124 C133 1.429 . S
C125 C123 1.419 . S
C125 C126 1.363 1_655 S
C125 H128 0.929 . S
C126 C125 1.363 1_455 S
C126 C132 1.428 . S
H127 C123 0.930 . S
H128 C125 0.929 . S
S129 N130 1.613 . S
S129 N131 1.610 . S
N130 S129 1.613 . S
N130 C133 1.350 . S
N131 S129 1.610 . S
N131 C132 1.351 . S
C132 C126 1.428 . S
C132 N131 1.351 . S
C132 C133 1.434 . S
C133 C124 1.429 . S
C133 N130 1.350 . S
C133 C132 1.434 . S
C134 C135 1.369 . S
C134 C136 1.419 . S
C134 H138 0.930 . S
C135 C134 1.369 . S
C135 C144 1.429 . S
C136 C134 1.419 . S
C136 C137 1.363 . S
C136 H139 0.929 . S
C137 C136 1.363 . S
C137 C143 1.428 . S
H138 C134 0.930 . S
H139 C136 0.929 . S
S140 N141 1.613 . S
S140 N142 1.610 . S
N141 S140 1.613 . S
N141 C144 1.350 . S
N142 S140 1.610 . S
N142 C143 1.351 . S
C143 C137 1.428 . S
C143 N142 1.351 . S
C143 C144 1.434 . S
C144 C135 1.429 . S
C144 N141 1.350 . S
C144 C143 1.434 . S
C145 C146 1.369 . S
C145 C147 1.419 . S
C145 H149 0.930 . S
C146 C145 1.369 . S
C146 C155 1.429 . S
C147 C145 1.419 . S
C147 C148 1.363 . S
C147 H150 0.929 . S
C148 C147 1.363 . S
C148 C154 1.428 . S
H149 C145 0.930 . S
H150 C147 0.929 . S
S151 N152 1.613 . S
S151 N153 1.610 . S
N152 S151 1.613 . S
N152 C155 1.350 . S
N153 S151 1.610 . S
N153 C154 1.351 . S
C154 C148 1.428 . S
C154 N153 1.351 . S
C154 C155 1.434 . S
C155 C146 1.429 . S
C155 N152 1.350 . S
C155 C154 1.434 . S
C156 C157 1.369 . S
C156 C158 1.419 . S
C156 H160 0.930 . S
C157 C156 1.369 . S
C157 C166 1.429 . S
C158 C156 1.419 . S
C158 C159 1.363 . S
C158 H161 0.929 . S
C159 C158 1.363 . S
C159 C165 1.428 . S
H160 C156 0.930 . S
H161 C158 0.929 . S
S162 N163 1.613 . S
S162 N164 1.610 . S
N163 S162 1.613 . S
N163 C166 1.350 . S
N164 S162 1.610 . S
N164 C165 1.351 . S
C165 C159 1.428 . S
C165 N164 1.351 . S
C165 C166 1.434 . S
C166 C157 1.429 . S
C166 N163 1.350 . S
C166 C165 1.434 . S
C167 C168 1.369 . S
C167 C169 1.419 . S
C167 H171 0.930 . S
C168 C167 1.369 . S
C168 C177 1.429 . S
C169 C167 1.419 . S
C169 C170 1.363 . S
C169 H172 0.929 . S
C170 C169 1.363 . S
C170 C176 1.428 . S
H171 C167 0.930 . S
H172 C169 0.929 . S
S173 N174 1.613 . S
S173 N175 1.610 . S
N174 S173 1.613 . S
N174 C177 1.350 . S
N175 S173 1.610 . S
N175 C176 1.351 . S
C176 C170 1.428 . S
C176 N175 1.351 . S
C176 C177 1.434 . S
C177 C168 1.429 . S
C177 N174 1.350 . S
C177 C176 1.434 . S
C178 C179 1.369 . S
C178 C180 1.419 . S
C178 H182 0.930 . S
C179 C178 1.369 . S
C179 C188 1.429 . S
C180 C178 1.419 . S
C180 C181 1.363 . S
C180 H183 0.929 . S
C181 C180 1.363 . S
C181 C187 1.428 . S
H182 C178 0.930 . S
H183 C180 0.929 . S
S184 N185 1.613 . S
S184 N186 1.610 . S
N185 S184 1.613 . S
N185 C188 1.350 . S
N186 S184 1.610 . S
N186 C187 1.351 . S
C187 C181 1.428 . S
C187 N186 1.351 . S
C187 C188 1.434 . S
C188 C179 1.429 . S
C188 N185 1.350 . S
C188 C187 1.434 . S
C189 C190 1.369 . S
C189 C191 1.419 . S
C189 H193 0.930 . S
C190 C189 1.369 . S
C190 C199 1.429 . S
C191 C189 1.419 . S
C191 C192 1.363 . S
C191 H194 0.929 . S
C192 C191 1.363 . S
C192 C198 1.428 . S
H193 C189 0.930 . S
H194 C191 0.929 . S
S195 N196 1.613 . S
S195 N197 1.610 . S
N196 S195 1.613 . S
N196 C199 1.350 . S
N197 S195 1.610 . S
N197 C198 1.351 . S
C198 C192 1.428 . S
C198 N197 1.351 . S
C198 C199 1.434 . S
C199 C190 1.429 . S
C199 N196 1.350 . S
C199 C198 1.434 . S
C200 C201 1.369 . S
C200 C202 1.419 . S
C200 H204 0.930 . S
C201 C200 1.369 . S
C201 C210 1.429 . S
C202 C200 1.419 . S
C202 C203 1.363 . S
C202 H205 0.929 . S
C203 C202 1.363 . S
C203 C209 1.428 . S
H204 C200 0.930 . S
H205 C202 0.929 . S
S206 N207 1.613 . S
S206 N208 1.610 . S
N207 S206 1.613 . S
N207 C210 1.350 1_545 S
N208 S206 1.610 . S
N208 C209 1.351 1_545 S
C209 C203 1.428 . S
C209 N208 1.351 1_565 S
C209 C210 1.434 . S
C210 C201 1.429 . S
C210 N207 1.350 1_565 S
C210 C209 1.434 . S
C211 C212 1.369 . S
C211 C213 1.419 . S
C211 H215 0.930 . S
C212 C211 1.369 . S
C212 C221 1.429 . S
C213 C211 1.419 . S
C213 C214 1.363 . S
C213 H216 0.929 . S
C214 C213 1.363 . S
C214 C220 1.428 . S
H215 C211 0.930 . S
H216 C213 0.929 . S
S217 N218 1.613 . S
S217 N219 1.610 . S
N218 S217 1.613 . S
N218 C221 1.350 . S
N219 S217 1.610 . S
N219 C220 1.351 . S
C220 C214 1.428 . S
C220 N219 1.351 . S
C220 C221 1.434 . S
C221 C212 1.429 . S
C221 N218 1.350 . S
C221 C220 1.434 . S
C222 C223 1.369 . S
C222 C224 1.419 . S
C222 H226 0.930 . S
C223 C222 1.369 . S
C223 C232 1.429 . S
C224 C222 1.419 . S
C224 C225 1.363 . S
C224 H227 0.929 . S
C225 C224 1.363 . S
C225 C231 1.428 . S
H226 C222 0.930 . S
H227 C224 0.929 . S
S228 N229 1.613 . S
S228 N230 1.610 . S
N229 S228 1.613 . S
N229 C232 1.350 . S
N230 S228 1.610 . S
N230 C231 1.351 . S
C231 C225 1.428 . S
C231 N230 1.351 . S
C231 C232 1.434 . S
C232 C223 1.429 . S
C232 N229 1.350 . S
C232 C231 1.434 . S
C233 C234 1.369 . S
C233 C235 1.419 . S
C233 H237 0.930 . S
C234 C233 1.369 . S
C234 C243 1.429 . S
C235 C233 1.419 . S
C235 C236 1.363 . S
C235 H238 0.929 . S
C236 C235 1.363 . S
C236 C242 1.428 . S
H237 C233 0.930 . S
H238 C235 0.929 . S
S239 N240 1.613 . S
S239 N241 1.610 . S
N240 S239 1.613 . S
N240 C243 1.350 . S
N241 S239 1.610 . S
N241 C242 1.351 . S
C242 C236 1.428 . S
C242 N241 1.351 . S
C242 C243 1.434 . S
C243 C234 1.429 . S
C243 N240 1.350 . S
C243 C242 1.434 . S
C244 C245 1.369 . S
C244 C246 1.419 1_554 S
C244 H248 0.930 . S
C245 C244 1.369 . S
C245 C254 1.429 1_445 S
C246 C244 1.419 1_556 S
C246 C247 1.363 1_545 S
C246 H249 0.929 . S
C247 C246 1.363 1_565 S
C247 C253 1.428 1_455 S
H248 C244 0.930 . S
H249 C246 0.929 . S
S250 N251 1.613 . S
S250 N252 1.610 1_554 S
N251 S250 1.613 . S
N251 C254 1.350 . S
N252 S250 1.610 1_556 S
N252 C253 1.351 . S
C253 C247 1.428 1_655 S
C253 N252 1.351 . S
C253 C254 1.434 1_556 S
C254 C245 1.429 1_665 S
C254 N251 1.350 . S
C254 C253 1.434 1_554 S
C255 C256 1.369 . S
C255 C257 1.419 1_556 S
C255 H259 0.930 . S
C256 C255 1.369 . S
C256 C265 1.428 1_455 S
C257 C255 1.419 1_554 S
C257 C258 1.363 . S
C257 H260 0.929 . S
C258 C257 1.363 . S
C258 C264 1.427 1_455 S
H259 C255 0.930 . S
H260 C257 0.929 . S
S261 N262 1.613 1_554 S
S261 N263 1.610 . S
N262 S261 1.613 1_556 S
N262 C265 1.350 . S
N263 S261 1.610 . S
N263 C264 1.352 . S
C264 C258 1.427 1_655 S
C264 N263 1.352 . S
C264 C265 1.434 1_554 S
C265 C256 1.428 1_655 S
C265 N262 1.350 . S
C265 C264 1.434 1_556 S
C266 C267 1.369 . S
C266 C268 1.419 . S
C266 H270 0.930 . S
C267 C266 1.369 . S
C267 C276 1.429 . S
C268 C266 1.419 . S
C268 C269 1.363 . S
C268 H271 0.929 . S
C269 C268 1.363 . S
C269 C275 1.428 . S
H270 C266 0.930 . S
H271 C268 0.929 . S
S272 N273 1.613 . S
S272 N274 1.610 . S
N273 S272 1.613 . S
N273 C276 1.350 . S
N274 S272 1.610 . S
N274 C275 1.351 . S
C275 C269 1.428 . S
C275 N274 1.351 . S
C275 C276 1.434 . S
C276 C267 1.429 . S
C276 N273 1.350 . S
C276 C275 1.434 . S
C277 C278 1.369 1_545 S
C277 C279 1.419 . S
C277 H281 0.930 . S
C278 C277 1.369 1_565 S
C278 C287 1.429 . S
C279 C277 1.419 . S
C279 C280 1.363 . S
C279 H282 0.929 . S
C280 C279 1.363 . S
C280 C286 1.428 1_545 S
H281 C277 0.930 . S
H282 C279 0.929 . S
S283 N284 1.613 . S
S283 N285 1.610 . S
N284 S283 1.613 . S
N284 C287 1.350 . S
N285 S283 1.610 . S
N285 C286 1.351 . S
C286 C280 1.428 1_565 S
C286 N285 1.351 . S
C286 C287 1.434 . S
C287 C278 1.429 . S
C287 N284 1.350 . S
C287 C286 1.434 . S
C113 C18 1.481 1_455 S
C115 C4 1.482 . S
C124 C32 1.482 . S
C126 C46 1.484 1_455 S
C135 C60 1.481 . S
C137 C74 1.483 . S
C146 C88 1.485 . S
C148 C102 1.482 . S
C157 C110 1.518 . S
C159 C12 1.517 . S
C168 C96 1.515 . S
C170 C26 1.516 . S
C179 C40 1.515 . S
C181 C82 1.516 . S
C190 C68 1.517 . S
C192 C54 1.516 . S
C201 C75 1.269 . S
C203 C33 1.271 . S
C212 C61 1.269 . S
C214 C47 1.271 . S
C223 C103 1.282 . S
C225 C5 1.279 . S
C234 C19 1.271 . S
C236 C89 1.274 . S
C245 C11 1.380 . S
C247 C39 1.374 . S
C256 C53 1.373 1_455 S
C258 C25 1.378 1_455 S
C267 C95 1.371 . S
C269 C67 1.377 . S
C278 C81 1.371 . S
C280 C109 1.377 . S
