# Generated by pormake.
# Topology ske, (6)-cn, num edge types: 1
# Building blocks:
#     Node 0, Type 0, BuildingBlock: UKALOJ_clean_sbu_0, # of connection points: 6
#     Node 1, Type 0, BuildingBlock: UKALOJ_clean_sbu_0, # of connection points: 6
#     Node 2, Type 0, BuildingBlock: UKALOJ_clean_sbu_0, # of connection points: 6
#     Node 3, Type 0, BuildingBlock: UKALOJ_clean_sbu_0, # of connection points: 6
#     Node 4, Type 0, BuildingBlock: UKALOJ_clean_sbu_0, # of connection points: 6
#     Node 5, Type 0, BuildingBlock: UKALOJ_clean_sbu_0, # of connection points: 6
#     Node 6, Type 0, BuildingBlock: UKALOJ_clean_sbu_0, # of connection points: 6
#     Node 7, Type 0, BuildingBlock: UKALOJ_clean_sbu_0, # of connection points: 6
#     Edge 8, Type (0, 0), BuildingBlock: TEMPAE_clean_linker_10, # of connection points: 2
#     Edge 9, Type (0, 0), BuildingBlock: TEMPAE_clean_linker_10, # of connection points: 2
#     Edge 10, Type (0, 0), BuildingBlock: TEMPAE_clean_linker_10, # of connection points: 2
#     Edge 11, Type (0, 0), BuildingBlock: TEMPAE_clean_linker_10, # of connection points: 2
#     Edge 12, Type (0, 0), BuildingBlock: TEMPAE_clean_linker_10, # of connection points: 2
#     Edge 13, Type (0, 0), BuildingBlock: TEMPAE_clean_linker_10, # of connection points: 2
#     Edge 14, Type (0, 0), BuildingBlock: TEMPAE_clean_linker_10, # of connection points: 2
#     Edge 15, Type (0, 0), BuildingBlock: TEMPAE_clean_linker_10, # of connection points: 2
#     Edge 16, Type (0, 0), BuildingBlock: TEMPAE_clean_linker_10, # of connection points: 2
#     Edge 17, Type (0, 0), BuildingBlock: TEMPAE_clean_linker_10, # of connection points: 2
#     Edge 18, Type (0, 0), BuildingBlock: TEMPAE_clean_linker_10, # of connection points: 2
#     Edge 19, Type (0, 0), BuildingBlock: TEMPAE_clean_linker_10, # of connection points: 2
#     Edge 20, Type (0, 0), BuildingBlock: TEMPAE_clean_linker_10, # of connection points: 2
#     Edge 21, Type (0, 0), BuildingBlock: TEMPAE_clean_linker_10, # of connection points: 2
#     Edge 22, Type (0, 0), BuildingBlock: TEMPAE_clean_linker_10, # of connection points: 2
#     Edge 23, Type (0, 0), BuildingBlock: TEMPAE_clean_linker_10, # of connection points: 2
#     Edge 24, Type (0, 0), BuildingBlock: TEMPAE_clean_linker_10, # of connection points: 2
#     Edge 25, Type (0, 0), BuildingBlock: TEMPAE_clean_linker_10, # of connection points: 2
#     Edge 26, Type (0, 0), BuildingBlock: TEMPAE_clean_linker_10, # of connection points: 2
#     Edge 27, Type (0, 0), BuildingBlock: TEMPAE_clean_linker_10, # of connection points: 2
#     Edge 28, Type (0, 0), BuildingBlock: TEMPAE_clean_linker_10, # of connection points: 2
#     Edge 29, Type (0, 0), BuildingBlock: TEMPAE_clean_linker_10, # of connection points: 2
#     Edge 30, Type (0, 0), BuildingBlock: TEMPAE_clean_linker_10, # of connection points: 2
#     Edge 31, Type (0, 0), BuildingBlock: TEMPAE_clean_linker_10, # of connection points: 2
# Relax obj value: 0.072
# Max RMSD: 0.118
# Mean RMSD: 0.118
data_MOF--net-ske--node1-UKALOJ_clean_sbu_0--edge1-TEMPAE_clean_linker_10
_symmetry_space_group_name_H-M    P1
_symmetry_Int_Tables_number       1
_symmetry_cell_setting            triclinic
loop_
_symmetry_equiv_pos_as_xyz
'x, y, z'
_cell_length_a     58.884224
_cell_length_b     41.11032
_cell_length_c     15.145394
_cell_angle_alpha  89.887299
_cell_angle_beta   89.9571
_cell_angle_gamma 90.007257
loop_
_atom_site_label
_atom_site_type_symbol
_atom_site_fract_x
_atom_site_fract_y
_atom_site_fract_z
_atom_type_partial_charge
Zn0 Zn 0.13955 0.29433 0.51811 0.0
O1 O 0.13557 0.29954 0.65182 0.0
C2 C 0.18466 0.27154 0.55872 0.0
Zn3 Zn 0.13904 0.23997 0.52096 0.0
C4 C 0.1319 0.27329 0.6938 0.0
O5 O 0.13104 0.24616 0.65394 0.0
C6 C 0.14695 0.26144 0.34469 0.0
O7 O 0.10412 0.23658 0.49031 0.0
O8 O 0.10387 0.28985 0.50327 0.0
N9 N 0.14182 0.19052 0.5413 0.0
C10 C 0.13238 0.16402 0.50346 0.0
C11 C 0.15625 0.14708 0.59878 0.0
N12 N 0.15654 0.17981 0.60067 0.0
N13 N 0.14116 0.13648 0.53862 0.0
C14 C 0.14454 0.37153 0.52607 0.0
C15 C 0.12553 0.38327 0.41056 0.0
N16 N 0.13642 0.34331 0.49292 0.0
N17 N 0.12454 0.3509 0.42161 0.0
N18 N 0.13802 0.39698 0.47489 0.0
H19 H 0.16748 0.35008 0.6209 0.0
H20 H 0.14905 0.38107 0.66333 0.0
H21 H 0.17277 0.39264 0.5954 0.0
C22 C 0.1595 0.37383 0.60566 0.0
C23 C 0.11557 0.16521 0.42938 0.0
H24 H 0.09817 0.16537 0.45749 0.0
H25 H 0.1173 0.14354 0.38633 0.0
H26 H 0.11783 0.1876 0.3895 0.0
O27 O 0.14729 0.23482 0.38717 0.0
O28 O 0.14386 0.28798 0.38507 0.0
C29 C 0.09326 0.2633 0.49106 0.0
O30 O 0.17498 0.29791 0.53639 0.0
O31 O 0.17368 0.24493 0.55599 0.0
Zn32 Zn 0.87658 0.28544 0.53486 0.0
O33 O 0.9116 0.28898 0.50556 0.0
C34 C 0.87028 0.26394 0.35913 0.0
Zn35 Zn 0.87665 0.23107 0.53281 0.0
C36 C 0.92274 0.26252 0.50738 0.0
O37 O 0.91242 0.23583 0.52069 0.0
C38 C 0.83092 0.25375 0.56893 0.0
O39 O 0.88008 0.22591 0.66682 0.0
O40 O 0.88429 0.27924 0.66764 0.0
N41 N 0.88038 0.18193 0.5113 0.0
C42 C 0.86881 0.15467 0.53302 0.0
C43 C 0.89725 0.14013 0.45535 0.0
N44 N 0.89797 0.17268 0.46294 0.0
N45 N 0.87907 0.12811 0.49834 0.0
C46 C 0.87987 0.36167 0.50869 0.0
C47 C 0.86513 0.3779 0.62928 0.0
N48 N 0.87406 0.33491 0.55561 0.0
N49 N 0.86491 0.34518 0.63034 0.0
N50 N 0.87438 0.38911 0.55367 0.0
H51 H 0.90134 0.33762 0.41343 0.0
H52 H 0.90354 0.3815 0.41413 0.0
H53 H 0.87893 0.36176 0.36773 0.0
C54 C 0.89176 0.36059 0.42125 0.0
C55 C 0.84831 0.15416 0.5915 0.0
H56 H 0.84935 0.17394 0.64107 0.0
H57 H 0.84667 0.13037 0.62564 0.0
H58 H 0.83294 0.1582 0.5506 0.0
O59 O 0.84099 0.22749 0.54811 0.0
O60 O 0.84178 0.28051 0.56732 0.0
C61 C 0.88376 0.25219 0.70819 0.0
O62 O 0.86897 0.29043 0.4016 0.0
O63 O 0.87341 0.23723 0.39912 0.0
Zn64 Zn 0.1273 0.79483 0.43048 0.0
O65 O 0.09186 0.79862 0.45149 0.0
C66 C 0.13589 0.77371 0.60914 0.0
Zn67 Zn 0.12697 0.74029 0.43833 0.0
C68 C 0.08123 0.7723 0.46665 0.0
O69 O 0.09188 0.74545 0.46623 0.0
C70 C 0.17261 0.7627 0.39478 0.0
O71 O 0.12004 0.73488 0.3038 0.0
O72 O 0.12182 0.78843 0.29728 0.0
N73 N 0.12359 0.69123 0.46227 0.0
C74 C 0.13448 0.66384 0.43718 0.0
C75 C 0.10795 0.64969 0.52511 0.0
N76 N 0.10719 0.68222 0.51701 0.0
N77 N 0.12498 0.63743 0.47607 0.0
C78 C 0.12406 0.87108 0.45465 0.0
C79 C 0.14026 0.88707 0.33648 0.0
N80 N 0.13025 0.84423 0.40919 0.0
N81 N 0.14031 0.85435 0.33596 0.0
N82 N 0.13021 0.89842 0.41026 0.0
H83 H 0.10144 0.84727 0.54645 0.0
H84 H 0.09944 0.8912 0.54472 0.0
H85 H 0.1234 0.8713 0.59563 0.0
C86 C 0.11119 0.87017 0.53998 0.0
C87 C 0.15352 0.66303 0.37168 0.0
H88 H 0.15137 0.68268 0.32209 0.0
H89 H 0.15428 0.63914 0.33781 0.0
H90 H 0.1698 0.66705 0.40681 0.0
O91 O 0.16191 0.73635 0.40921 0.0
O92 O 0.1625 0.78983 0.40441 0.0
C93 C 0.11971 0.76112 0.25943 0.0
O94 O 0.13335 0.79995 0.56582 0.0
O95 O 0.13433 0.74649 0.57041 0.0
Zn96 Zn 0.86513 0.78525 0.44946 0.0
O97 O 0.87201 0.79171 0.31535 0.0
C98 C 0.81986 0.76119 0.40713 0.0
Zn99 Zn 0.86572 0.73072 0.44256 0.0
C100 C 0.87266 0.76548 0.27111 0.0
O101 O 0.87089 0.73804 0.30905 0.0
C102 C 0.85682 0.75066 0.62085 0.0
O103 O 0.90117 0.72822 0.46257 0.0
O104 O 0.90035 0.78145 0.47704 0.0
N105 N 0.86326 0.68132 0.42095 0.0
C106 C 0.87303 0.65471 0.45715 0.0
C107 C 0.8484 0.63803 0.36467 0.0
N108 N 0.84806 0.67076 0.36327 0.0
N109 N 0.86398 0.62726 0.42275 0.0
C110 C 0.85969 0.86243 0.44212 0.0
C111 C 0.87558 0.8738 0.56467 0.0
N112 N 0.86706 0.83413 0.47761 0.0
N113 N 0.87698 0.84149 0.5534 0.0
N114 N 0.86475 0.88772 0.49608 0.0
H115 H 0.83883 0.84134 0.34013 0.0
H116 H 0.85871 0.87155 0.3035 0.0
H117 H 0.83361 0.88414 0.36191 0.0
C118 C 0.84678 0.86491 0.3573 0.0
C119 C 0.89048 0.65563 0.52898 0.0
H120 H 0.88954 0.67872 0.56633 0.0
H121 H 0.90761 0.65378 0.49883 0.0
H122 H 0.88822 0.63475 0.57471 0.0
O123 O 0.85993 0.72452 0.57805 0.0
O124 O 0.85778 0.7778 0.58135 0.0
C125 C 0.91143 0.75491 0.477 0.0
O126 O 0.83008 0.78798 0.42038 0.0
O127 O 0.83047 0.73453 0.41779 0.0
Zn128 Zn 0.63079 0.78844 0.01464 0.0
O129 O 0.62696 0.79495 0.14819 0.0
C130 C 0.67494 0.76167 0.05606 0.0
Zn131 Zn 0.62823 0.73422 0.01787 0.0
C132 C 0.62221 0.76914 0.19043 0.0
O133 O 0.62037 0.74207 0.15085 0.0
C134 C 0.6371 0.75413 0.84142 0.0
O135 O 0.59325 0.73398 -0.01336 0.0
O136 O 0.59494 0.78722 -0.00084 0.0
N137 N 0.6285 0.68483 0.04174 0.0
C138 C 0.62281 0.65818 -0.0055 0.0
C139 C 0.63561 0.64173 0.11825 0.0
N140 N 0.63641 0.67442 0.1185 0.0
N141 N 0.62721 0.63066 0.04117 0.0
C142 C 0.63918 0.86504 0.02007 0.0
C143 C 0.62146 0.87792 0.90237 0.0
N144 N 0.63002 0.83746 -0.01293 0.0
N145 N 0.61896 0.84576 0.91436 0.0
N146 N 0.63413 0.89077 0.96747 0.0
H147 H 0.66085 0.84209 0.11675 0.0
H148 H 0.6432 0.87428 0.15769 0.0
H149 H 0.66767 0.88425 0.0919 0.0
C150 C 0.65374 0.86636 0.10094 0.0
C151 C 0.61201 0.65957 0.90506 0.0
H152 H 0.60247 0.68257 0.8964 0.0
H153 H 0.60036 0.63865 0.89538 0.0
H154 H 0.62547 0.65872 0.85383 0.0
O155 O 0.63632 0.72754 0.88405 0.0
O156 O 0.63499 0.78086 0.88186 0.0
C157 C 0.58338 0.76149 -0.01321 0.0
O158 O 0.66627 0.78873 0.03342 0.0
O159 O 0.66298 0.73593 0.0534 0.0
Zn160 Zn 0.36655 0.7373 0.02716 0.0
O161 O 0.37046 0.73135 0.16102 0.0
C162 C 0.32124 0.76058 0.06644 0.0
Zn163 Zn 0.36703 0.7916 0.02996 0.0
C164 C 0.37441 0.75753 0.20267 0.0
O165 O 0.37509 0.78465 0.16237 0.0
C166 C 0.35982 0.77112 0.85392 0.0
O167 O 0.402 0.79462 -0.00123 0.0
O168 O 0.40229 0.74135 0.01293 0.0
N169 N 0.36466 0.84092 0.05179 0.0
C170 C 0.37374 0.86758 0.0131 0.0
C171 C 0.35078 0.8841 0.11223 0.0
N172 N 0.35052 0.85137 0.11356 0.0
N173 N 0.36528 0.89497 0.05004 0.0
C174 C 0.36101 0.66028 0.03432 0.0
C175 C 0.37972 0.64844 0.91818 0.0
N176 N 0.36931 0.68841 0.001 0.0
N177 N 0.381 0.68077 0.92927 0.0
N178 N 0.36722 0.63482 0.98288 0.0
H179 H 0.33822 0.68189 0.12931 0.0
H180 H 0.35669 0.65096 0.17191 0.0
H181 H 0.33285 0.63931 0.10491 0.0
C182 C 0.34615 0.65811 0.11437 0.0
C183 C 0.38989 0.86673 0.93671 0.0
H184 H 0.38812 0.84383 0.899 0.0
H185 H 0.40752 0.86817 0.96222 0.0
H186 H 0.38701 0.88782 0.89226 0.0
O187 O 0.3589 0.79755 0.8967 0.0
O188 O 0.36279 0.7444 0.8938 0.0
C189 C 0.41287 0.76789 -0.00024 0.0
O190 O 0.33092 0.7342 0.04433 0.0
O191 O 0.33234 0.78709 0.0647 0.0
Zn192 Zn 0.63633 0.28921 0.92685 0.0
O193 O 0.60149 0.29528 0.95462 0.0
C194 C 0.64505 0.26531 0.10505 0.0
Zn195 Zn 0.63523 0.23462 0.93333 0.0
C196 C 0.59026 0.26924 0.96603 0.0
O197 O 0.60021 0.24192 0.9603 0.0
C198 C 0.68079 0.25432 0.88641 0.0
O199 O 0.62877 0.2315 0.79902 0.0
O200 O 0.62878 0.28518 0.79366 0.0
N201 N 0.62994 0.1856 0.95268 0.0
C202 C 0.64016 0.15764 0.92782 0.0
C203 C 0.61227 0.14477 0.01067 0.0
N204 N 0.61269 0.17736 0.00423 0.0
N205 N 0.62937 0.13167 0.96372 0.0
C206 C 0.63146 0.36523 0.9479 0.0
C207 C 0.65727 0.38192 0.86006 0.0
N208 N 0.64111 0.33864 0.91133 0.0
N209 N 0.65708 0.34919 0.85671 0.0
N210 N 0.64127 0.39267 0.91648 0.0
H211 H 0.61549 0.34224 0.05966 0.0
H212 H 0.59656 0.36301 -0.0146 0.0
H213 H 0.61406 0.38625 0.05961 0.0
C214 C 0.61345 0.36416 0.01769 0.0
C215 C 0.65983 0.15595 0.86538 0.0
H216 H 0.65867 0.17577 0.81576 0.0
H217 H 0.66037 0.1321 0.83131 0.0
H218 H 0.67583 0.15915 0.90308 0.0
O219 O 0.67005 0.22842 0.90537 0.0
O220 O 0.67098 0.28176 0.8936 0.0
C221 C 0.6271 0.25784 0.75555 0.0
O222 O 0.64414 0.29197 0.06254 0.0
O223 O 0.64211 0.23862 0.06504 0.0
Zn224 Zn 0.37417 0.2368 0.94687 0.0
O225 O 0.4095 0.23241 0.96597 0.0
C226 C 0.36606 0.25836 0.1251 0.0
Zn227 Zn 0.37495 0.2913 0.9536 0.0
C228 C 0.42043 0.25848 0.98064 0.0
O229 O 0.41003 0.28553 0.98095 0.0
C230 C 0.32911 0.26969 0.9118 0.0
O231 O 0.38186 0.29612 0.81884 0.0
O232 O 0.37916 0.24261 0.81354 0.0
N233 N 0.37886 0.34032 0.97583 0.0
C234 C 0.36824 0.36785 0.94986 0.0
C235 C 0.39494 0.38172 0.03705 0.0
N236 N 0.39536 0.34915 0.03009 0.0
N237 N 0.37804 0.39417 -0.01228 0.0
C238 C 0.38003 0.16066 0.96443 0.0
C239 C 0.35641 0.14443 0.86742 0.0
N240 N 0.37048 0.1874 0.92799 0.0
N241 N 0.35585 0.17714 0.86783 0.0
N242 N 0.37141 0.13331 0.92741 0.0
H243 H 0.41457 0.17125 -0.00434 0.0
H244 H 0.4034 0.1377 0.05701 0.0
H245 H 0.39498 0.17897 0.08369 0.0
C246 C 0.39919 0.1619 0.0295 0.0
C247 C 0.34921 0.36886 0.88448 0.0
H248 H 0.35114 0.34901 0.83553 0.0
H249 H 0.34868 0.39266 0.84983 0.0
H250 H 0.33289 0.36529 0.91988 0.0
O251 O 0.34005 0.29593 0.92461 0.0
O252 O 0.33899 0.24247 0.92291 0.0
C253 C 0.38154 0.26981 0.77502 0.0
O254 O 0.36859 0.23211 0.08216 0.0
O255 O 0.36755 0.28559 0.08609 0.0
C256 C 0.20608 0.25886 0.69394 0.0
C257 C 0.20593 0.27258 0.60922 0.0
C258 C 0.22539 0.26053 0.74744 0.0
C259 C 0.24534 0.27528 0.71404 0.0
C260 C 0.24528 0.28926 0.62825 0.0
C261 C 0.2253 0.28836 0.57732 0.0
C262 C 0.22447 0.24627 0.8394 0.0
C263 C 0.26644 0.30438 0.58964 0.0
C264 C 0.29268 0.29804 0.87352 0.0
C265 C 0.30664 0.2705 0.86854 0.0
C266 C 0.27246 0.29987 0.82437 0.0
C267 C 0.26658 0.27403 0.76694 0.0
C268 C 0.28071 0.24629 0.76155 0.0
C269 C 0.30035 0.24466 0.81336 0.0
C270 C 0.25743 0.32941 0.83363 0.0
C271 C 0.27532 0.21852 0.69977 0.0
H272 H 0.19081 0.24735 0.71921 0.0
H273 H 0.22497 0.29924 0.51207 0.0
H274 H 0.23612 0.22514 0.84403 0.0
H275 H 0.23023 0.26451 0.88843 0.0
H276 H 0.2071 0.23811 0.85776 0.0
H277 H 0.26347 0.31473 0.52282 0.0
H278 H 0.27276 0.32397 0.63344 0.0
H279 H 0.28006 0.28579 0.58503 0.0
H280 H 0.2976 0.31814 0.91559 0.0
H281 H 0.31132 0.22358 0.80773 0.0
H282 H 0.24009 0.32188 0.85389 0.0
H283 H 0.25587 0.34199 0.76907 0.0
H284 H 0.2641 0.34697 0.88291 0.0
H285 H 0.25887 0.20727 0.71843 0.0
H286 H 0.28862 0.19937 0.70058 0.0
H287 H 0.27356 0.22777 0.63122 0.0
C288 C 0.71953 0.23021 0.86572 0.0
C289 C 0.70283 0.25259 0.84065 0.0
C290 C 0.74028 0.22857 0.81973 0.0
C291 C 0.74382 0.24881 0.74497 0.0
C292 C 0.7265 0.2704 0.71748 0.0
C293 C 0.70643 0.27249 0.76672 0.0
C294 C 0.75861 0.20593 0.8525 0.0
C295 C 0.7292 0.29153 0.63642 0.0
C296 C 0.80317 0.27452 0.67815 0.0
C297 C 0.80812 0.25284 0.60944 0.0
C298 C 0.7826 0.27273 0.72428 0.0
C299 C 0.76618 0.24938 0.6992 0.0
C300 C 0.7709 0.22771 0.62877 0.0
C301 C 0.79207 0.22927 0.58576 0.0
C302 C 0.77853 0.29569 0.80046 0.0
C303 C 0.75349 0.20325 0.59828 0.0
H304 H 0.71658 0.21461 0.92237 0.0
H305 H 0.69322 0.28921 0.74591 0.0
H306 H 0.76393 0.18916 0.79908 0.0
H307 H 0.7738 0.22025 0.87179 0.0
H308 H 0.75299 0.19127 0.91021 0.0
H309 H 0.71322 0.30433 0.61873 0.0
H310 H 0.7426 0.30999 0.64806 0.0
H311 H 0.73464 0.27659 0.57924 0.0
H312 H 0.81576 0.29231 0.698 0.0
H313 H 0.79599 0.21236 0.53304 0.0
H314 H 0.77397 0.28173 0.86071 0.0
H315 H 0.76405 0.31201 0.78514 0.0
H316 H 0.79364 0.31093 0.81522 0.0
H317 H 0.74887 0.18673 0.65339 0.0
H318 H 0.7597 0.18839 0.54205 0.0
H319 H 0.73774 0.21602 0.57775 0.0
C320 C 0.29732 0.77576 0.19361 0.0
C321 C 0.29921 0.75983 0.11225 0.0
C322 C 0.27721 0.77438 0.24279 0.0
C323 C 0.25822 0.75764 0.20818 0.0
C324 C 0.25999 0.74157 0.1256 0.0
C325 C 0.28073 0.74226 0.07931 0.0
C326 C 0.27631 0.79093 0.33172 0.0
C327 C 0.23988 0.72432 0.08546 0.0
C328 C 0.20982 0.73532 0.36386 0.0
C329 C 0.19524 0.76195 0.35275 0.0
C330 C 0.23051 0.7336 0.31763 0.0
C331 C 0.23626 0.75852 0.25675 0.0
C332 C 0.22139 0.78518 0.24456 0.0
C333 C 0.20128 0.78683 0.29374 0.0
C334 C 0.24627 0.70529 0.33427 0.0
C335 C 0.22659 0.81182 0.17869 0.0
H336 H 0.31187 0.78869 0.21998 0.0
H337 H 0.28237 0.72975 0.01668 0.0
H338 H 0.2641 0.81146 0.32947 0.0
H339 H 0.27021 0.77364 0.38287 0.0
H340 H 0.29314 0.8005 0.35231 0.0
H341 H 0.24408 0.71292 0.02104 0.0
H342 H 0.2336 0.70518 0.13104 0.0
H343 H 0.22577 0.74184 0.07539 0.0
H344 H 0.20509 0.71595 0.40894 0.0
H345 H 0.18982 0.80712 0.28341 0.0
H346 H 0.26304 0.71436 0.35685 0.0
H347 H 0.24916 0.69169 0.27212 0.0
H348 H 0.23947 0.68822 0.38472 0.0
H349 H 0.24235 0.82472 0.19804 0.0
H350 H 0.21263 0.8299 0.1736 0.0
H351 H 0.22955 0.80115 0.11242 0.0
C352 C 0.69728 0.74485 0.18612 0.0
C353 C 0.69653 0.76113 0.10479 0.0
C354 C 0.71664 0.74614 0.23954 0.0
C355 C 0.73606 0.76309 0.20925 0.0
C356 C 0.7355 0.77927 0.12642 0.0
C357 C 0.71546 0.77874 0.07591 0.0
C358 C 0.71624 0.7295 0.32856 0.0
C359 C 0.75614 0.79671 0.0908 0.0
C360 C 0.78228 0.78691 0.37243 0.0
C361 C 0.79741 0.76081 0.36381 0.0
C362 C 0.76197 0.78776 0.32368 0.0
C363 C 0.75722 0.76254 0.26269 0.0
C364 C 0.77254 0.73626 0.25363 0.0
C365 C 0.79222 0.73545 0.30537 0.0
C366 C 0.74562 0.81559 0.3372 0.0
C367 C 0.76838 0.7093 0.18792 0.0
H368 H 0.68235 0.73197 0.20947 0.0
H369 H 0.71468 0.7916 0.01343 0.0
H370 H 0.72839 0.70888 0.32884 0.0
H371 H 0.72168 0.74667 0.38088 0.0
H372 H 0.69911 0.72004 0.34567 0.0
H373 H 0.75298 0.80779 0.02498 0.0
H374 H 0.76144 0.81614 0.1371 0.0
H375 H 0.77054 0.77941 0.0851 0.0
H376 H 0.78634 0.80662 0.41718 0.0
H377 H 0.80409 0.71552 0.29708 0.0
H378 H 0.72863 0.80604 0.35553 0.0
H379 H 0.7436 0.82943 0.27477 0.0
H380 H 0.75141 0.83258 0.38953 0.0
H381 H 0.75267 0.69591 0.20561 0.0
H382 H 0.78267 0.69169 0.18521 0.0
H383 H 0.76584 0.71969 0.12096 0.0
C384 C 0.13043 0.94396 0.51809 0.0
C385 C 0.12766 0.93252 0.43155 0.0
C386 C 0.13027 0.97751 0.53666 0.0
C387 C 0.12796 1.00026 0.46674 0.0
C388 C 0.12474 0.98884 0.37955 0.0
C389 C 0.12453 0.95522 0.36323 0.0
C390 C 0.13353 0.98863 0.63073 0.0
C391 C 0.12261 1.01213 0.30276 0.0
C392 C 0.1155 0.08965 0.51577 0.0
C393 C 0.13741 0.10294 0.51568 0.0
C394 C 0.11209 0.0562 0.5005 0.0
C395 C 0.13102 0.03582 0.48338 0.0
C396 C 0.15312 0.04944 0.48167 0.0
C397 C 0.15603 0.08271 0.49892 0.0
C398 C 0.08832 0.04254 0.50454 0.0
C399 C 0.17375 0.02887 0.46188 0.0
H400 H 0.13373 0.9269 0.57093 0.0
H401 H 0.12248 0.94657 0.29617 0.0
H402 H 0.15049 1.00007 0.63779 0.0
H403 H 0.12065 1.00725 0.64819 0.0
H404 H 0.13228 0.96817 0.67853 0.0
H405 H 0.11873 0.99943 0.23987 0.0
H406 H 0.10905 0.03022 0.31575 0.0
H407 H 0.13874 0.02576 0.29449 0.0
H408 H 0.10118 0.10527 0.53044 0.0
H409 H 0.17294 0.09312 0.4991 0.0
H410 H 0.0873 0.02379 0.5572 0.0
H411 H 0.08405 0.03043 0.44133 0.0
H412 H 0.07542 0.06161 0.51799 0.0
H413 H 0.17557 1.00957 0.51267 0.0
H414 H 0.18964 0.04342 0.46025 0.0
H415 H 0.17167 0.01661 0.39718 0.0
C416 C 0.88089 0.44587 0.59894 0.0
C417 C 0.87692 0.42317 0.5315 0.0
C418 C 0.88076 0.47948 0.58213 0.0
C419 C 0.87678 0.49091 0.49531 0.0
C420 C 0.87359 0.46816 0.42617 0.0
C421 C 0.87335 0.43462 0.44528 0.0
C422 C 0.88383 0.50277 0.65818 0.0
C423 C 0.8695 0.47927 0.33248 0.0
C424 C 0.84909 0.57378 0.46567 0.0
C425 C 0.8677 0.5937 0.44579 0.0
C426 C 0.8519 0.54049 0.48319 0.0
C427 C 0.87386 0.52651 0.47855 0.0
C428 C 0.89278 0.54657 0.45831 0.0
C429 C 0.88948 0.58006 0.44289 0.0
C430 C 0.83131 0.52028 0.50639 0.0
C431 C 0.91637 0.53252 0.45108 0.0
H432 H 0.88355 0.43723 0.66577 0.0
H433 H 0.86938 0.41759 0.39325 0.0
H434 H 0.8974 0.52063 0.64295 0.0
H435 H 0.86791 0.51669 0.66856 0.0
H436 H 0.8882 0.49005 0.72067 0.0
H437 H 0.8701 0.45876 0.28486 0.0
H438 H 0.85258 0.491 0.32775 0.0
H439 H 0.88235 0.49766 0.31281 0.0
H440 H 0.83227 0.58447 0.46772 0.0
H441 H 0.90378 0.59543 0.42586 0.0
H442 H 0.83393 0.50802 0.57092 0.0
H443 H 0.82882 0.501 0.45622 0.0
H444 H 0.81557 0.53511 0.51018 0.0
H445 H 0.92115 0.52038 0.51383 0.0
H446 H 0.92929 0.55137 0.43545 0.0
H447 H 0.91674 0.51371 0.39862 0.0
C448 C 0.86465 0.93924 0.41093 0.0
C449 C 0.86021 0.9221 0.48909 0.0
C450 C 0.86436 0.97351 0.40953 0.0
C451 C 0.85978 0.99093 0.48837 0.0
C452 C 0.85395 0.97361 0.56595 0.0
C453 C 0.85425 0.9395 0.56526 0.0
C454 C 0.8705 0.99103 0.3252 0.0
C455 C 0.849 0.99102 0.65154 0.0
C456 C 0.89055 0.0713 0.51867 0.0
C457 C 0.87334 0.0941 0.50318 0.0
C458 C 0.88625 0.0378 0.51466 0.0
C459 C 0.86417 0.02666 0.49327 0.0
C460 C 0.84659 0.04958 0.4782 0.0
C461 C 0.85138 0.08312 0.48352 0.0
C462 C 0.90546 0.01434 0.53253 0.0
C463 C 0.8229 0.03868 0.45449 0.0
H464 H 0.86974 0.92603 0.35244 0.0
H465 H 0.85077 0.92625 0.62572 0.0
H466 H 0.85861 1.01146 0.31291 0.0
H467 H 0.8878 1.0015 0.33137 0.0
H468 H 0.87027 0.97451 0.26724 0.0
H469 H 0.84211 0.97435 0.70277 0.0
H470 H 0.86489 1.00205 0.67711 0.0
H471 H 0.83669 1.01105 0.64075 0.0
H472 H 0.90754 0.07988 0.53335 0.0
H473 H 0.83821 0.10076 0.46929 0.0
H474 H 0.9085 0.99897 0.47356 0.0
H475 H 0.90086 0.99785 0.58781 0.0
H476 H 0.92154 0.027 0.54955 0.0
H477 H 0.82331 0.02506 0.39133 0.0
H478 H 0.81098 0.05946 0.44751 0.0
H479 H 0.81625 0.02186 0.5057 0.0
C480 C 0.11277 0.58077 0.46061 0.0
C481 C 0.13039 0.60337 0.4698 0.0
C482 C 0.11698 0.54723 0.46345 0.0
C483 C 0.13941 0.53586 0.47718 0.0
C484 C 0.15739 0.55859 0.48591 0.0
C485 C 0.15266 0.59217 0.48192 0.0
C486 C 0.09732 0.52397 0.45249 0.0
C487 C 0.18146 0.54743 0.5014 0.0
C488 C 0.14035 0.44836 0.55957 0.0
C489 C 0.14287 0.4313 0.4802 0.0
C490 C 0.14087 0.48262 0.5608 0.0
C491 C 0.14372 0.50009 0.48063 0.0
C492 C 0.14764 0.48283 0.40136 0.0
C493 C 0.14715 0.44873 0.40222 0.0
C494 C 0.1368 0.50008 0.64688 0.0
C495 C 0.15069 0.50032 0.31437 0.0
H496 H 0.09556 0.58953 0.45176 0.0
H497 H 0.16619 0.60967 0.49131 0.0
H498 H 0.10053 0.50751 0.39587 0.0
H499 H 0.09559 0.50855 0.51232 0.0
H500 H 0.08097 0.5368 0.44115 0.0
H501 H 0.1936 0.56809 0.50427 0.0
H502 H 0.18242 0.5337 0.56444 0.0
H503 H 0.18685 0.53065 0.44809 0.0
H504 H 0.13657 0.43511 0.61961 0.0
H505 H 0.14914 0.43553 0.34083 0.0
H506 H 0.11948 0.51072 0.64676 0.0
H507 H 0.14903 0.52039 0.6549 0.0
H508 H 0.13829 0.48349 0.70457 0.0
H509 H 0.13434 0.51154 0.29439 0.0
H510 H 0.1563 0.48364 0.26099 0.0
H511 H 0.16331 0.5202 0.3208 0.0
C512 C 0.62033 0.57382 0.08541 0.0
C513 C 0.62502 0.59662 0.01864 0.0
C514 C 0.62109 0.54022 0.0691 0.0
C515 C 0.62641 0.5289 0.98337 0.0
C516 C 0.63025 0.55172 0.91464 0.0
C517 C 0.62987 0.58526 0.93336 0.0
C518 C 0.61728 0.51686 0.14476 0.0
C519 C 0.63572 0.54071 0.82203 0.0
C520 C 0.65523 0.4465 0.96056 0.0
C521 C 0.63706 0.42623 0.93784 0.0
C522 C 0.6519 0.47978 0.97676 0.0
C523 C 0.6299 0.49336 0.96766 0.0
C524 C 0.61146 0.47294 0.94423 0.0
C525 C 0.61524 0.4395 0.93032 0.0
C526 C 0.67197 0.5004 0.00348 0.0
C527 C 0.58787 0.48655 0.9321 0.0
H528 H 0.6167 0.5824 0.15154 0.0
H529 H 0.63439 0.60237 0.88201 0.0
H530 H 0.60412 0.49869 0.12714 0.0
H531 H 0.6332 0.50331 0.1584 0.0
H532 H 0.61194 0.52949 0.20615 0.0
H533 H 0.63549 0.56119 0.77408 0.0
H534 H 0.65284 0.52944 0.82077 0.0
H535 H 0.62339 0.52197 0.80014 0.0
H536 H 0.67208 0.43611 0.96601 0.0
H537 H 0.6013 0.42385 0.911 0.0
H538 H 0.66841 0.51263 0.06725 0.0
H539 H 0.67493 0.51971 0.95355 0.0
H540 H 0.68779 0.48588 0.01047 0.0
H541 H 0.58211 0.49853 -0.00628 0.0
H542 H 0.57536 0.46747 0.91397 0.0
H543 H 0.58805 0.5054 0.87955 0.0
C544 C 0.3904 0.942 0.02059 0.0
C545 C 0.36858 0.92859 0.02654 0.0
C546 C 0.39346 0.9755 0.00466 0.0
C547 C 0.37422 0.99584 -0.00659 0.0
C548 C 0.35217 0.98212 -0.00221 0.0
C549 C 0.34966 0.94879 0.01522 0.0
C550 C 0.4172 0.98926 0.00187 0.0
C551 C 0.33118 1.00269 0.98467 0.0
C552 C 0.37477 0.08731 0.03214 0.0
C553 C 0.37555 0.09938 0.94559 0.0
C554 C 0.37575 0.05367 0.04904 0.0
C555 C 0.37684 0.03152 0.97749 0.0
C556 C 0.37812 0.04366 0.89007 0.0
C557 C 0.37747 0.0774 0.87532 0.0
C558 C 0.37449 0.04181 0.14328 0.0
C559 C 0.37893 0.02101 0.81178 0.0
H560 H 0.405 0.92643 0.03113 0.0
H561 H 0.33281 0.93831 0.01998 0.0
H562 H 0.42014 1.00196 0.93819 0.0
H563 H 0.41928 1.00754 0.05506 0.0
H564 H 0.43037 0.97014 0.01013 0.0
H565 H 0.31533 0.98805 -0.01286 0.0
H566 H 0.33027 0.02166 0.03651 0.0
H567 H 0.33201 0.01534 0.91997 0.0
H568 H 0.37233 0.10409 0.08637 0.0
H569 H 0.37776 0.08672 0.80834 0.0
H570 H 0.3878 0.02326 0.15583 0.0
H571 H 0.3578 0.03005 0.15506 0.0
H572 H 0.37656 0.06193 0.19145 0.0
H573 H 0.39263 1.00278 0.82029 0.0
H574 H 0.38176 0.03425 0.7487 0.0
H575 H 0.36266 1.0075 0.80702 0.0
C576 C 0.39077 0.45053 0.97023 0.0
C577 C 0.37294 0.42831 0.98044 0.0
C578 C 0.38689 0.48415 0.97233 0.0
C579 C 0.36459 0.49598 -0.01367 0.0
C580 C 0.3464 0.47364 -0.00407 0.0
C581 C 0.3508 0.43996 -0.00732 0.0
C582 C 0.40676 0.507 0.96045 0.0
C583 C 0.32245 0.4853 0.0117 0.0
C584 C 0.36459 0.58344 0.06792 0.0
C585 C 0.36214 0.60058 -0.01153 0.0
C586 C 0.36375 0.54921 0.06945 0.0
C587 C 0.36065 0.53182 -0.0105 0.0
C588 C 0.35681 0.54918 0.91016 0.0
C589 C 0.35763 0.58326 0.91071 0.0
C590 C 0.36776 0.53163 0.15559 0.0
C591 C 0.35349 0.53177 0.8234 0.0
H592 H 0.40788 0.4414 0.96127 0.0
H593 H 0.33711 0.42275 0.00283 0.0
H594 H 0.40363 0.5235 0.90371 0.0
H595 H 0.40874 0.52239 0.02002 0.0
H596 H 0.42296 0.49383 0.94879 0.0
H597 H 0.3101 0.46489 0.01486 0.0
H598 H 0.32167 0.499 0.07467 0.0
H599 H 0.3172 0.50223 0.95838 0.0
H600 H 0.36856 0.5966 0.12777 0.0
H601 H 0.35569 0.59653 0.84926 0.0
H602 H 0.38495 0.5206 0.15508 0.0
H603 H 0.35531 0.51161 0.16415 0.0
H604 H 0.36654 0.54825 0.21316 0.0
H605 H 0.3697 0.52023 0.80313 0.0
H606 H 0.34798 0.54857 0.77 0.0
H607 H 0.34069 0.51214 0.83031 0.0
C608 C 0.61561 0.07587 0.9453 0.0
C609 C 0.63382 0.09732 0.95738 0.0
C610 C 0.61871 0.0421 0.94896 0.0
C611 C 0.64059 0.02928 0.96637 0.0
C612 C 0.65917 0.05082 0.97768 0.0
C613 C 0.65556 0.08468 0.97293 0.0
C614 C 0.59844 0.02014 0.93527 0.0
C615 C 0.68269 0.03812 -0.00304 0.0
C616 C 0.63769 0.9422 0.05114 0.0
C617 C 0.6403 0.92465 0.97261 0.0
C618 C 0.63943 0.97638 0.05156 0.0
C619 C 0.64366 0.99328 0.97141 0.0
C620 C 0.64773 0.97542 0.89324 0.0
C621 C 0.64595 0.9414 0.89487 0.0
C622 C 0.63512 0.99447 0.1365 0.0
C623 C 0.65227 0.99229 0.80635 0.0
H624 H 0.5988 0.08574 0.93384 0.0
H625 H 0.66952 0.10129 0.98458 0.0
H626 H 0.60171 1.00329 0.87957 0.0
H627 H 0.59557 1.00507 -0.0049 0.0
H628 H 0.58267 0.03401 0.92102 0.0
H629 H 0.69547 0.05795 0.00061 0.0
H630 H 0.68261 0.02477 0.06071 0.0
H631 H 0.68797 0.02063 0.9452 0.0
H632 H 0.63287 0.92948 0.11092 0.0
H633 H 0.64801 0.92781 0.83415 0.0
H634 H 0.61821 1.00634 0.13345 0.0
H635 H 0.64796 0.01392 0.14585 0.0
H636 H 0.63546 0.97803 0.19479 0.0
H637 H 0.63653 1.00447 0.78335 0.0
H638 H 0.65791 0.97501 0.75444 0.0
H639 H 0.66543 1.01136 0.81428 0.0
C640 C 0.13693 0.28854 0.20563 0.0
C641 C 0.14723 0.26214 0.2484 0.0
C642 C 0.1352 0.28948 0.11426 0.0
C643 C 0.14447 0.2637 0.06464 0.0
C644 C 0.15553 0.23736 0.10684 0.0
C645 C 0.15649 0.23663 0.19922 0.0
C646 C 0.12289 0.31764 0.07114 0.0
C647 C 0.1661 0.21005 0.05454 0.0
C648 C 0.11879 0.25421 0.8392 0.0
C649 C 0.1338 0.27286 0.78894 0.0
C650 C 0.12237 0.2503 0.92967 0.0
C651 C 0.14187 0.2644 0.9685 0.0
C652 C 0.15747 0.28237 0.91694 0.0
C653 C 0.15297 0.28695 0.82749 0.0
C654 C 0.10508 0.23183 0.98388 0.0
C655 C 0.17875 0.2969 0.95622 0.0
H656 H 0.1295 0.30814 0.24376 0.0
H657 H 0.16449 0.21633 0.23278 0.0
H658 H 0.13443 0.33056 0.02498 0.0
H659 H 0.10834 0.30846 0.03192 0.0
H660 H 0.11639 0.33547 0.12007 0.0
H661 H 0.17525 0.19244 0.09739 0.0
H662 H 0.15275 0.19679 0.01757 0.0
H663 H 0.17818 0.22004 0.00518 0.0
H664 H 0.10428 0.24288 0.80768 0.0
H665 H 0.16491 0.30041 0.78683 0.0
H666 H 0.09737 0.24832 0.03348 0.0
H667 H 0.11344 0.21177 0.02057 0.0
H668 H 0.0913 0.22144 0.94258 0.0
H669 H 0.17415 0.31697 0.00166 0.0
H670 H 0.19039 0.30667 0.90481 0.0
H671 H 0.18801 0.27835 -0.00449 0.0
C672 C 0.85859 0.28392 0.21138 0.0
C673 C 0.87228 0.26405 0.26382 0.0
C674 C 0.86057 0.28272 0.11942 0.0
C675 C 0.87709 0.262 0.08138 0.0
C676 C 0.89148 0.24287 0.13477 0.0
C677 C 0.88867 0.24385 0.2257 0.0
C678 C 0.84477 0.30288 0.06307 0.0
C679 C 0.90966 0.22119 0.09596 0.0
C680 C 0.87015 0.2309 0.85034 0.0
C681 C 0.88413 0.25243 0.80391 0.0
C682 C 0.86722 0.23434 0.94111 0.0
C683 C 0.87908 0.25932 -0.01452 0.0
C684 C 0.89381 0.28046 0.93922 0.0
C685 C 0.89597 0.27695 0.84813 0.0
C686 C 0.85119 0.21168 -0.01079 0.0
C687 C 0.90716 0.3067 -0.0142 0.0
H688 H 0.84603 0.29954 0.24207 0.0
H689 H 0.89955 0.22906 0.26736 0.0
H690 H 0.8547 0.3191 0.01897 0.0
H691 H 0.83451 0.28668 0.02023 0.0
H692 H 0.83307 0.318 0.10335 0.0
H693 H 0.92024 0.20939 0.1476 0.0
H694 H 0.90171 0.20188 0.05529 0.0
H695 H 0.92094 0.23551 0.05189 0.0
H696 H 0.86069 0.21237 0.81512 0.0
H697 H 0.9067 0.29358 0.81121 0.0
H698 H 0.8381 0.22598 0.02484 0.0
H699 H 0.86066 0.19738 0.03927 0.0
H700 H 0.84253 0.19451 0.94379 0.0
H701 H 0.89542 0.32365 0.01982 0.0
H702 H 0.91798 0.32092 0.93964 0.0
H703 H 0.91819 0.29566 0.03712 0.0
C704 C 0.10671 0.74991 0.10681 0.0
C705 C 0.12349 0.76032 0.16503 0.0
C706 C 0.11025 0.75251 0.01563 0.0
C707 C 0.13113 0.76525 0.98404 0.0
C708 C 0.14837 0.77462 0.04342 0.0
C709 C 0.14421 0.77228 0.13365 0.0
C710 C 0.09156 0.7424 0.95324 0.0
C711 C 0.17099 0.78762 0.01192 0.0
C712 C 0.14552 0.74565 0.74843 0.0
C713 C 0.13822 0.77395 0.70522 0.0
C714 C 0.14398 0.74287 0.83997 0.0
C715 C 0.13487 0.76903 0.8887 0.0
C716 C 0.1287 0.79839 0.84611 0.0
C717 C 0.13055 0.80058 0.75425 0.0
C718 C 0.15112 0.71148 0.88397 0.0
C719 C 0.11911 0.82681 0.897 0.0
H720 H 0.09072 0.74082 0.1325 0.0
H721 H 0.15712 0.78008 0.18015 0.0
H722 H 0.08619 0.76355 0.9127 0.0
H723 H 0.09789 0.7235 0.90719 0.0
H724 H 0.07648 0.73268 -0.01132 0.0
H725 H 0.18297 0.79199 0.06728 0.0
H726 H 0.17896 0.77028 0.96518 0.0
H727 H 0.16842 0.81084 0.97586 0.0
H728 H 0.1517 0.72517 0.71033 0.0
H729 H 0.12487 0.82241 0.72063 0.0
H730 H 0.13603 0.69925 0.91279 0.0
H731 H 0.16306 0.71648 0.93891 0.0
H732 H 0.1594 0.69444 0.83705 0.0
H733 H 0.10266 0.81976 0.92732 0.0
H734 H 0.1163 0.84847 0.85437 0.0
H735 H 0.13073 0.83366 0.95148 0.0
C736 C 0.84743 0.77917 0.75946 0.0
C737 C 0.85456 0.75065 0.71707 0.0
C738 C 0.84909 0.78228 0.85083 0.0
C739 C 0.85803 0.75618 0.90042 0.0
C740 C 0.86401 0.72659 0.85879 0.0
C741 C 0.86214 0.72412 0.76696 0.0
C742 C 0.84224 0.81398 0.89369 0.0
C743 C 0.87335 0.6982 0.91068 0.0
C744 C 0.88601 0.77582 0.1183 0.0
C745 C 0.86897 0.76623 0.17666 0.0
C746 C 0.88263 0.77274 0.02716 0.0
C747 C 0.86169 0.76023 -0.00428 0.0
C748 C 0.84422 0.75162 0.05518 0.0
C749 C 0.84819 0.75453 0.14539 0.0
C750 C 0.90153 0.78213 0.96471 0.0
C751 C 0.82157 0.73881 0.02382 0.0
H752 H 0.84132 0.7996 0.72082 0.0
H753 H 0.86768 0.70211 0.73404 0.0
H754 H 0.83011 0.80942 0.9484 0.0
H755 H 0.85741 0.82588 0.92265 0.0
H756 H 0.83429 0.83111 0.84607 0.0
H757 H 0.87598 0.67635 0.86884 0.0
H758 H 0.88984 0.70507 0.94073 0.0
H759 H 0.86165 0.69175 0.96543 0.0
H760 H 0.90206 0.78463 0.1439 0.0
H761 H 0.83513 0.74727 0.19199 0.0
H762 H 0.89546 0.80089 0.91754 0.0
H763 H 0.90678 0.76065 0.9254 0.0
H764 H 0.91663 0.79176 0.0 0.0
H765 H 0.81377 0.7561 0.97641 0.0
H766 H 0.8095 0.73478 0.07916 0.0
H767 H 0.82404 0.71544 -0.01142 0.0
C768 C 0.60762 0.75396 0.33719 0.0
C769 C 0.6244 0.76851 0.28548 0.0
C770 C 0.61114 0.7494 0.42755 0.0
C771 C 0.63227 0.75841 0.46472 0.0
C772 C 0.64955 0.7721 0.41156 0.0
C773 C 0.6452 0.77758 0.3223 0.0
C774 C 0.59213 0.73572 0.48343 0.0
C775 C 0.6725 0.78104 0.44889 0.0
C776 C 0.63117 0.78363 0.70192 0.0
C777 C 0.63787 0.75494 0.74489 0.0
C778 C 0.62951 0.785 0.61053 0.0
C779 C 0.63525 0.75722 0.56082 0.0
C780 C 0.64291 0.7285 0.60304 0.0
C781 C 0.64384 0.72752 0.69549 0.0
C782 C 0.62089 0.81588 0.56753 0.0
C783 C 0.64974 0.69885 0.55073 0.0
H784 H 0.59181 0.74636 0.3069 0.0
H785 H 0.65838 0.78774 0.28039 0.0
H786 H 0.59802 0.71384 0.51964 0.0
H787 H 0.58691 0.75395 0.53346 0.0
H788 H 0.57702 0.72907 0.44344 0.0
H789 H 0.68463 0.78883 0.39674 0.0
H790 H 0.67064 0.80113 0.4971 0.0
H791 H 0.67987 0.75998 0.48478 0.0
H792 H 0.62638 0.80489 0.73984 0.0
H793 H 0.64909 0.70543 0.72891 0.0
H794 H 0.60522 0.81064 0.52945 0.0
H795 H 0.63368 0.82543 0.52036 0.0
H796 H 0.61703 0.83522 0.61643 0.0
H797 H 0.63472 0.68881 0.51603 0.0
H798 H 0.65707 0.67949 0.5933 0.0
H799 H 0.66239 0.7056 0.4995 0.0
C800 C 0.34818 0.79065 0.7052 0.0
C801 C 0.3619 0.77112 0.75846 0.0
C802 C 0.35019 0.78899 0.61319 0.0
C803 C 0.36674 0.76811 0.57587 0.0
C804 C 0.38111 0.74928 0.63006 0.0
C805 C 0.37832 0.75077 0.72097 0.0
C806 C 0.33441 0.80887 0.55602 0.0
C807 C 0.3993 0.72739 0.59215 0.0
C808 C 0.36048 0.7364 0.34477 0.0
C809 C 0.37466 0.75773 0.29855 0.0
C810 C 0.35724 0.74011 0.43539 0.0
C811 C 0.36895 0.76521 0.47992 0.0
C812 C 0.38388 0.78614 0.43391 0.0
C813 C 0.38639 0.78232 0.34299 0.0
C814 C 0.34104 0.71763 0.48313 0.0
C815 C 0.39707 0.81253 0.48055 0.0
H816 H 0.33558 0.80636 0.7353 0.0
H817 H 0.38921 0.73618 0.76314 0.0
H818 H 0.34437 0.82503 0.51186 0.0
H819 H 0.32428 0.79249 0.51321 0.0
H820 H 0.32259 0.82402 0.5957 0.0
H821 H 0.40974 0.71561 0.64429 0.0
H822 H 0.39139 0.70807 0.55146 0.0
H823 H 0.41073 0.74156 0.54829 0.0
H824 H 0.35108 0.71784 0.30944 0.0
H825 H 0.39726 0.79883 0.30632 0.0
H826 H 0.32778 0.73205 0.51742 0.0
H827 H 0.35029 0.70357 0.53428 0.0
H828 H 0.33259 0.70024 0.4377 0.0
H829 H 0.38521 0.82954 0.51375 0.0
H830 H 0.40801 0.82667 0.43459 0.0
H831 H 0.40797 0.80165 0.53253 0.0
C832 C 0.64204 0.23555 0.24618 0.0
C833 C 0.64669 0.26474 0.20158 0.0
C834 C 0.63998 0.2348 0.33765 0.0
C835 C 0.64326 0.26379 0.38566 0.0
C836 C 0.64935 0.29296 0.34193 0.0
C837 C 0.65075 0.2932 0.24961 0.0
C838 C 0.63319 0.20333 0.38238 0.0
C839 C 0.65361 0.32401 0.39233 0.0
C840 C 0.61294 0.26775 0.6046 0.0
C841 C 0.63011 0.25715 0.66094 0.0
C842 C 0.61709 0.27041 0.51397 0.0
C843 C 0.63913 0.2635 0.48126 0.0
C844 C 0.65665 0.25364 0.53906 0.0
C845 C 0.65177 0.25007 0.62858 0.0
C846 C 0.59791 0.28009 0.45321 0.0
C847 C 0.68049 0.24707 0.5066 0.0
H848 H 0.63891 0.21339 0.20943 0.0
H849 H 0.65448 0.31572 0.21515 0.0
H850 H 0.64583 0.19662 0.4335 0.0
H851 H 0.61661 0.2065 0.41619 0.0
H852 H 0.63168 0.18282 0.33507 0.0
H853 H 0.66059 0.34355 0.3494 0.0
H854 H 0.63749 0.33276 0.42183 0.0
H855 H 0.66565 0.31953 0.4474 0.0
H856 H 0.5964 0.2738 0.63143 0.0
H857 H 0.66507 0.24273 0.674 0.0
H858 H 0.59478 0.26044 0.40457 0.0
H859 H 0.60258 0.30225 0.41547 0.0
H860 H 0.58188 0.2849 0.48968 0.0
H861 H 0.68038 0.2268 0.45837 0.0
H862 H 0.69227 0.24068 0.56125 0.0
H863 H 0.6872 0.26884 0.47191 0.0
C864 C 0.355 0.28547 0.26386 0.0
C865 C 0.36373 0.25802 0.22101 0.0
C866 C 0.35623 0.28825 0.35545 0.0
C867 C 0.36667 0.26311 0.40429 0.0
C868 C 0.37447 0.23458 0.36188 0.0
C869 C 0.37273 0.23225 0.27014 0.0
C870 C 0.34722 0.3186 0.39943 0.0
C871 C 0.38564 0.20731 0.41282 0.0
C872 C 0.39367 0.28392 0.62288 0.0
C873 C 0.37776 0.27062 0.68064 0.0
C874 C 0.39016 0.28192 0.53166 0.0
C875 C 0.37007 0.26701 0.49964 0.0
C876 C 0.35352 0.25496 0.55861 0.0
C877 C 0.35773 0.25661 0.64883 0.0
C878 C 0.40813 0.29482 0.46964 0.0
C879 C 0.33164 0.23978 0.52663 0.0
H880 H 0.34782 0.30525 0.22546 0.0
H881 H 0.37956 0.21111 0.23662 0.0
H882 H 0.33563 0.31207 0.45445 0.0
H883 H 0.36152 0.33261 0.42814 0.0
H884 H 0.33796 0.33459 0.35249 0.0
H885 H 0.38998 0.18629 0.37004 0.0
H886 H 0.40145 0.21635 0.44422 0.0
H887 H 0.37428 0.19875 0.4665 0.0
H888 H 0.40906 0.29476 0.64889 0.0
H889 H 0.34536 0.24681 0.69495 0.0
H890 H 0.40065 0.31311 0.42425 0.0
H891 H 0.41482 0.2747 0.42839 0.0
H892 H 0.42253 0.30622 0.50545 0.0
H893 H 0.32276 0.25655 0.48072 0.0
H894 H 0.31994 0.2337 0.58185 0.0
H895 H 0.33542 0.21718 0.48954 0.0
C896 C 0.05594 0.28665 0.53298 0.0
C897 C 0.06831 0.2637 0.48445 0.0
C898 C 0.03216 0.28658 0.5324 0.0
C899 C 0.02048 0.26372 0.47944 0.0
C900 C 0.03292 0.24121 0.42769 0.0
C901 C 0.05676 0.24104 0.4322 0.0
C902 C 0.01956 0.31022 0.59093 0.0
C903 C 0.02105 0.2172 0.36823 0.0
C904 C 0.96066 0.24117 0.54891 0.0
C905 C 0.9476 0.26252 0.49776 0.0
C906 C 0.98441 0.24125 0.54328 0.0
C907 C 0.99527 0.26234 0.4825 0.0
C908 C 0.98207 0.28323 0.42848 0.0
C909 C 0.95834 0.28354 0.43807 0.0
C910 C 0.99787 0.21947 0.6043 0.0
C911 C 0.99302 0.30525 0.3609 0.0
H912 H 0.0649 0.30399 0.57409 0.0
H913 H 0.06638 0.22344 0.39423 0.0
H914 H 0.00801 0.32556 0.55081 0.0
H915 H 0.00889 0.29661 0.63887 0.0
H916 H 0.03122 0.32639 0.62821 0.0
H917 H 0.03317 0.20343 0.32633 0.0
H918 H 0.01121 0.19961 0.40858 0.0
H919 H 0.0088 0.23008 0.3248 0.0
H920 H 0.95229 0.22506 0.59547 0.0
H921 H 0.94814 0.29979 0.3979 0.0
H922 H 0.00929 0.23444 0.646 0.0
H923 H 0.00875 0.20277 0.56542 0.0
H924 H 0.98679 0.20469 0.64819 0.0
H925 H 0.00354 0.32386 0.39453 0.0
H926 H 0.98028 0.31789 0.31903 0.0
H927 H 0.00451 0.29098 0.31766 0.0
C928 C 0.9463 0.77919 0.54245 0.0
C929 C 0.93627 0.75575 0.4879 0.0
C930 C 0.97 0.78217 0.54768 0.0
C931 C 0.98388 0.76206 0.49448 0.0
C932 C 0.97379 0.73807 0.44005 0.0
C933 C 0.95007 0.73482 0.43864 0.0
C934 C 0.98015 0.80717 0.609 0.0
C935 C 0.98799 0.71671 0.38065 0.0
C936 C 0.0425 0.79258 0.43015 0.0
C937 C 0.05649 0.7722 0.48041 0.0
C938 C 0.01877 0.78973 0.43464 0.0
C939 C 0.00891 0.76677 0.49317 0.0
C940 C 0.02304 0.74734 0.54744 0.0
C941 C 0.0467 0.74986 0.53912 0.0
C942 C 0.0043 0.81026 0.374 0.0
C943 C 0.01318 0.72347 0.61296 0.0
H944 H 0.93557 0.79525 0.58093 0.0
H945 H 0.94227 0.71693 0.39578 0.0
H946 H 0.9932 0.79571 0.65172 0.0
H947 H 0.98872 0.82645 0.56999 0.0
H948 H 0.96712 0.81877 0.65169 0.0
H949 H 0.9775 0.69928 0.34231 0.0
H950 H 0.99774 0.73208 0.33368 0.0
H951 H 1.00048 0.70277 0.42027 0.0
H952 H 0.05014 0.80961 0.38413 0.0
H953 H 0.05759 0.73424 0.57837 0.0
H954 H 0.99195 0.8247 0.41291 0.0
H955 H 0.99438 0.79426 0.32942 0.0
H956 H 0.01461 0.82719 0.33306 0.0
H957 H 1.0003 0.73566 0.65497 0.0
H958 H 0.0264 0.71266 0.65627 0.0
H959 H 0.00445 0.70352 0.57734 0.0
C960 C 0.54671 0.78714 0.02795 0.0
C961 C 0.55849 0.7637 0.97896 0.0
C962 C 0.52293 0.78846 0.02673 0.0
C963 C 0.5107 0.76655 0.97264 0.0
C964 C 0.5226 0.74371 0.92009 0.0
C965 C 0.5464 0.7421 0.92526 0.0
C966 C 0.51089 0.81239 0.08613 0.0
C967 C 0.51018 0.7207 0.8594 0.0
C968 C 0.45051 0.74547 0.0409 0.0
C969 C 0.43775 0.7674 -0.0096 0.0
C970 C 0.47426 0.74501 0.03572 0.0
C971 C 0.48546 0.76618 0.97604 0.0
C972 C 0.47257 0.78775 0.92287 0.0
C973 C 0.44882 0.78858 0.93202 0.0
C974 C 0.48739 0.72247 0.09586 0.0
C975 C 0.48387 0.80988 0.85641 0.0
H976 H 0.55609 0.80367 0.0701 0.0
H977 H 0.55558 0.72416 0.88685 0.0
H978 H 0.49952 0.82827 0.04679 0.0
H979 H 0.50011 0.79903 0.13417 0.0
H980 H 0.52293 0.82801 0.12334 0.0
H981 H 0.52198 0.70687 0.81623 0.0
H982 H 0.50013 0.7031 0.89892 0.0
H983 H 0.49808 0.73439 0.8172 0.0
H984 H 0.44191 0.72927 0.08658 0.0
H985 H 0.43886 0.80533 0.89246 0.0
H986 H 0.49919 0.73679 0.13761 0.0
H987 H 0.49783 0.70545 0.05622 0.0
H988 H 0.47609 0.70801 0.13967 0.0
H989 H 0.49483 0.82772 0.89087 0.0
H990 H 0.47133 0.8234 0.81564 0.0
H991 H 0.49498 0.79547 0.81201 0.0
C992 C 0.45577 0.28036 0.04807 0.0
C993 C 0.44525 0.25807 -0.00854 0.0
C994 C 0.47951 0.28235 0.05312 0.0
C995 C 0.49294 0.26246 -0.00243 0.0
C996 C 0.48234 0.23959 0.94108 0.0
C997 C 0.45857 0.23726 0.93995 0.0
C998 C 0.4902 0.30609 0.11668 0.0
C999 C 0.49605 0.21857 0.87915 0.0
C1000 C 0.55191 0.29174 0.93413 0.0
C1001 C 0.56562 0.27007 0.98143 0.0
C1002 C 0.52815 0.28974 0.93942 0.0
C1003 C 0.51803 0.26632 -0.00411 0.0
C1004 C 0.53192 0.24561 0.04749 0.0
C1005 C 0.55558 0.2473 0.03825 0.0
C1006 C 0.51391 0.31165 0.88155 0.0
C1007 C 0.52179 0.22122 0.11096 0.0
H1008 H 0.44538 0.29633 0.08824 0.0
H1009 H 0.45037 0.22027 0.89552 0.0
H1010 H 0.50319 0.2936 0.1576 0.0
H1011 H 0.49897 0.32566 0.07945 0.0
H1012 H 0.47746 0.31744 0.16113 0.0
H1013 H 0.4852 0.20205 0.8394 0.0
H1014 H 0.50599 0.23421 0.83345 0.0
H1015 H 0.50837 0.20365 0.91695 0.0
H1016 H 0.55975 0.30911 0.88958 0.0
H1017 H 0.56629 0.23068 0.07519 0.0
H1018 H 0.50189 0.32593 0.9224 0.0
H1019 H 0.50362 0.29665 0.83564 0.0
H1020 H 0.52441 0.32879 0.84209 0.0
H1021 H 0.50917 0.23325 0.15448 0.0
H1022 H 0.53492 0.20942 0.15282 0.0
H1023 H 0.51271 0.20202 0.07368 0.0
loop_
_geom_bond_atom_site_label_1
_geom_bond_atom_site_label_2
_geom_bond_distance
_geom_bond_site_symmetry_2
_ccdc_geom_bond_type
Zn0 O1 2.055 . S
Zn0 O8 2.046 . S
Zn0 N16 2.036 . S
Zn0 O28 2.053 . S
Zn0 O30 2.066 . S
O1 Zn0 2.055 . S
O1 C4 1.259 . S
C2 O30 1.256 . S
C2 O31 1.244 . S
Zn3 O5 2.046 . S
Zn3 O7 2.055 . S
Zn3 N9 2.036 . S
Zn3 O27 2.066 . S
Zn3 O31 2.053 . S
C4 O1 1.259 . S
C4 O5 1.254 . S
O5 Zn3 2.046 . S
O5 C4 1.254 . S
C6 O27 1.256 . S
C6 O28 1.244 . S
O7 Zn3 2.055 . S
O7 C29 1.259 . S
O8 Zn0 2.046 . S
O8 C29 1.254 . S
N9 Zn3 2.036 . S
N9 C10 1.298 . S
N9 N12 1.398 . S
C10 N9 1.298 . S
C10 N13 1.367 . S
C10 C23 1.481 . S
C11 N12 1.299 . S
C11 N13 1.379 . S
N12 N9 1.398 . S
N12 C11 1.299 . S
N13 C10 1.367 . S
N13 C11 1.379 . S
C14 N16 1.298 . S
C14 N18 1.367 . S
C14 C22 1.481 . S
C15 N17 1.299 . S
C15 N18 1.379 . S
N16 Zn0 2.036 . S
N16 C14 1.298 . S
N16 N17 1.398 . S
N17 C15 1.299 . S
N17 N16 1.398 . S
N18 C14 1.367 . S
N18 C15 1.379 . S
H19 C22 0.980 . S
H20 C22 0.981 . S
H21 C22 0.981 . S
C22 C14 1.481 . S
C22 H19 0.980 . S
C22 H20 0.981 . S
C22 H21 0.981 . S
C23 C10 1.481 . S
C23 H24 0.980 . S
C23 H25 0.981 . S
C23 H26 0.981 . S
H24 C23 0.980 . S
H25 C23 0.981 . S
H26 C23 0.981 . S
O27 Zn3 2.066 . S
O27 C6 1.256 . S
O28 Zn0 2.053 . S
O28 C6 1.244 . S
C29 O7 1.259 . S
C29 O8 1.254 . S
O30 Zn0 2.066 . S
O30 C2 1.256 . S
O31 C2 1.244 . S
O31 Zn3 2.053 . S
Zn32 O33 2.055 . S
Zn32 O40 2.046 . S
Zn32 N48 2.036 . S
Zn32 O60 2.053 . S
Zn32 O62 2.066 . S
O33 Zn32 2.055 . S
O33 C36 1.259 . S
C34 O62 1.256 . S
C34 O63 1.244 . S
Zn35 O37 2.046 . S
Zn35 O39 2.055 . S
Zn35 N41 2.036 . S
Zn35 O59 2.066 . S
Zn35 O63 2.053 . S
C36 O33 1.259 . S
C36 O37 1.254 . S
O37 Zn35 2.046 . S
O37 C36 1.254 . S
C38 O59 1.256 . S
C38 O60 1.244 . S
O39 Zn35 2.055 . S
O39 C61 1.259 . S
O40 Zn32 2.046 . S
O40 C61 1.254 . S
N41 Zn35 2.036 . S
N41 C42 1.298 . S
N41 N44 1.398 . S
C42 N41 1.298 . S
C42 N45 1.367 . S
C42 C55 1.481 . S
C43 N44 1.299 . S
C43 N45 1.379 . S
N44 N41 1.398 . S
N44 C43 1.299 . S
N45 C42 1.367 . S
N45 C43 1.379 . S
C46 N48 1.298 . S
C46 N50 1.367 . S
C46 C54 1.481 . S
C47 N49 1.299 . S
C47 N50 1.379 . S
N48 Zn32 2.036 . S
N48 C46 1.298 . S
N48 N49 1.398 . S
N49 C47 1.299 . S
N49 N48 1.398 . S
N50 C46 1.367 . S
N50 C47 1.379 . S
H51 C54 0.980 . S
H52 C54 0.981 . S
H53 C54 0.981 . S
C54 C46 1.481 . S
C54 H51 0.980 . S
C54 H52 0.981 . S
C54 H53 0.981 . S
C55 C42 1.481 . S
C55 H56 0.980 . S
C55 H57 0.981 . S
C55 H58 0.981 . S
H56 C55 0.980 . S
H57 C55 0.981 . S
H58 C55 0.981 . S
O59 Zn35 2.066 . S
O59 C38 1.256 . S
O60 Zn32 2.053 . S
O60 C38 1.244 . S
C61 O39 1.259 . S
C61 O40 1.254 . S
O62 Zn32 2.066 . S
O62 C34 1.256 . S
O63 C34 1.244 . S
O63 Zn35 2.053 . S
Zn64 O65 2.055 . S
Zn64 O72 2.046 . S
Zn64 N80 2.036 . S
Zn64 O92 2.053 . S
Zn64 O94 2.066 . S
O65 Zn64 2.055 . S
O65 C68 1.259 . S
C66 O94 1.256 . S
C66 O95 1.244 . S
Zn67 O69 2.046 . S
Zn67 O71 2.055 . S
Zn67 N73 2.036 . S
Zn67 O91 2.066 . S
Zn67 O95 2.053 . S
C68 O65 1.259 . S
C68 O69 1.254 . S
O69 Zn67 2.046 . S
O69 C68 1.254 . S
C70 O91 1.256 . S
C70 O92 1.244 . S
O71 Zn67 2.055 . S
O71 C93 1.259 . S
O72 Zn64 2.046 . S
O72 C93 1.254 . S
N73 Zn67 2.036 . S
N73 C74 1.298 . S
N73 N76 1.398 . S
C74 N73 1.298 . S
C74 N77 1.367 . S
C74 C87 1.481 . S
C75 N76 1.299 . S
C75 N77 1.379 . S
N76 N73 1.398 . S
N76 C75 1.299 . S
N77 C74 1.367 . S
N77 C75 1.379 . S
C78 N80 1.298 . S
C78 N82 1.367 . S
C78 C86 1.481 . S
C79 N81 1.299 . S
C79 N82 1.379 . S
N80 Zn64 2.036 . S
N80 C78 1.298 . S
N80 N81 1.398 . S
N81 C79 1.299 . S
N81 N80 1.398 . S
N82 C78 1.367 . S
N82 C79 1.379 . S
H83 C86 0.980 . S
H84 C86 0.981 . S
H85 C86 0.981 . S
C86 C78 1.481 . S
C86 H83 0.980 . S
C86 H84 0.981 . S
C86 H85 0.981 . S
C87 C74 1.481 . S
C87 H88 0.980 . S
C87 H89 0.981 . S
C87 H90 0.981 . S
H88 C87 0.980 . S
H89 C87 0.981 . S
H90 C87 0.981 . S
O91 Zn67 2.066 . S
O91 C70 1.256 . S
O92 Zn64 2.053 . S
O92 C70 1.244 . S
C93 O71 1.259 . S
C93 O72 1.254 . S
O94 Zn64 2.066 . S
O94 C66 1.256 . S
O95 C66 1.244 . S
O95 Zn67 2.053 . S
Zn96 O97 2.055 . S
Zn96 O104 2.046 . S
Zn96 N112 2.036 . S
Zn96 O124 2.053 . S
Zn96 O126 2.066 . S
O97 Zn96 2.055 . S
O97 C100 1.259 . S
C98 O126 1.256 . S
C98 O127 1.244 . S
Zn99 O101 2.046 . S
Zn99 O103 2.055 . S
Zn99 N105 2.036 . S
Zn99 O123 2.066 . S
Zn99 O127 2.053 . S
C100 O97 1.259 . S
C100 O101 1.254 . S
O101 Zn99 2.046 . S
O101 C100 1.254 . S
C102 O123 1.256 . S
C102 O124 1.244 . S
O103 Zn99 2.055 . S
O103 C125 1.259 . S
O104 Zn96 2.046 . S
O104 C125 1.254 . S
N105 Zn99 2.036 . S
N105 C106 1.298 . S
N105 N108 1.398 . S
C106 N105 1.298 . S
C106 N109 1.367 . S
C106 C119 1.481 . S
C107 N108 1.299 . S
C107 N109 1.379 . S
N108 N105 1.398 . S
N108 C107 1.299 . S
N109 C106 1.367 . S
N109 C107 1.379 . S
C110 N112 1.298 . S
C110 N114 1.367 . S
C110 C118 1.481 . S
C111 N113 1.299 . S
C111 N114 1.379 . S
N112 Zn96 2.036 . S
N112 C110 1.298 . S
N112 N113 1.398 . S
N113 C111 1.299 . S
N113 N112 1.398 . S
N114 C110 1.367 . S
N114 C111 1.379 . S
H115 C118 0.980 . S
H116 C118 0.981 . S
H117 C118 0.981 . S
C118 C110 1.481 . S
C118 H115 0.980 . S
C118 H116 0.981 . S
C118 H117 0.981 . S
C119 C106 1.481 . S
C119 H120 0.980 . S
C119 H121 0.981 . S
C119 H122 0.981 . S
H120 C119 0.980 . S
H121 C119 0.981 . S
H122 C119 0.981 . S
O123 Zn99 2.066 . S
O123 C102 1.256 . S
O124 Zn96 2.053 . S
O124 C102 1.244 . S
C125 O103 1.259 . S
C125 O104 1.254 . S
O126 Zn96 2.066 . S
O126 C98 1.256 . S
O127 C98 1.244 . S
O127 Zn99 2.053 . S
Zn128 O129 2.055 . S
Zn128 O136 2.046 . S
Zn128 N144 2.036 . S
Zn128 O156 2.053 1_554 S
Zn128 O158 2.066 . S
O129 Zn128 2.055 . S
O129 C132 1.259 . S
C130 O158 1.256 . S
C130 O159 1.244 . S
Zn131 O133 2.046 . S
Zn131 O135 2.055 . S
Zn131 N137 2.036 . S
Zn131 O155 2.066 1_554 S
Zn131 O159 2.053 . S
C132 O129 1.259 . S
C132 O133 1.254 . S
O133 Zn131 2.046 . S
O133 C132 1.254 . S
C134 O155 1.256 . S
C134 O156 1.244 . S
O135 Zn131 2.055 . S
O135 C157 1.259 . S
O136 Zn128 2.046 . S
O136 C157 1.254 . S
N137 Zn131 2.036 . S
N137 C138 1.298 . S
N137 N140 1.398 . S
C138 N137 1.298 . S
C138 N141 1.367 . S
C138 C151 1.481 1_554 S
C139 N140 1.299 . S
C139 N141 1.379 . S
N140 N137 1.398 . S
N140 C139 1.299 . S
N141 C138 1.367 . S
N141 C139 1.379 . S
C142 N144 1.298 . S
C142 N146 1.367 . S
C142 C150 1.481 . S
C143 N145 1.299 . S
C143 N146 1.379 1_556 S
N144 Zn128 2.036 . S
N144 C142 1.298 . S
N144 N145 1.398 1_554 S
N145 C143 1.299 . S
N145 N144 1.398 1_556 S
N146 C142 1.367 . S
N146 C143 1.379 1_554 S
H147 C150 0.980 . S
H148 C150 0.981 . S
H149 C150 0.981 . S
C150 C142 1.481 . S
C150 H147 0.980 . S
C150 H148 0.981 . S
C150 H149 0.981 . S
C151 C138 1.481 1_556 S
C151 H152 0.980 1_556 S
C151 H153 0.981 1_556 S
C151 H154 0.981 . S
H152 C151 0.980 1_554 S
H153 C151 0.981 1_554 S
H154 C151 0.981 . S
O155 Zn131 2.066 1_556 S
O155 C134 1.256 . S
O156 Zn128 2.053 1_556 S
O156 C134 1.244 . S
C157 O135 1.259 . S
C157 O136 1.254 . S
O158 Zn128 2.066 . S
O158 C130 1.256 . S
O159 C130 1.244 . S
O159 Zn131 2.053 . S
Zn160 O161 2.055 . S
Zn160 O168 2.046 . S
Zn160 N176 2.036 . S
Zn160 O188 2.053 1_554 S
Zn160 O190 2.066 . S
O161 Zn160 2.055 . S
O161 C164 1.259 . S
C162 O190 1.256 . S
C162 O191 1.244 . S
Zn163 O165 2.046 . S
Zn163 O167 2.055 . S
Zn163 N169 2.036 . S
Zn163 O187 2.066 1_554 S
Zn163 O191 2.053 . S
C164 O161 1.259 . S
C164 O165 1.254 . S
O165 Zn163 2.046 . S
O165 C164 1.254 . S
C166 O187 1.256 . S
C166 O188 1.244 . S
O167 Zn163 2.055 . S
O167 C189 1.259 . S
O168 Zn160 2.046 . S
O168 C189 1.254 . S
N169 Zn163 2.036 . S
N169 C170 1.298 . S
N169 N172 1.398 . S
C170 N169 1.298 . S
C170 N173 1.367 . S
C170 C183 1.481 1_554 S
C171 N172 1.299 . S
C171 N173 1.379 . S
N172 N169 1.398 . S
N172 C171 1.299 . S
N173 C170 1.367 . S
N173 C171 1.379 . S
C174 N176 1.298 . S
C174 N178 1.367 . S
C174 C182 1.481 . S
C175 N177 1.299 . S
C175 N178 1.379 1_556 S
N176 Zn160 2.036 . S
N176 C174 1.298 . S
N176 N177 1.398 1_554 S
N177 C175 1.299 . S
N177 N176 1.398 1_556 S
N178 C174 1.367 . S
N178 C175 1.379 1_554 S
H179 C182 0.980 . S
H180 C182 0.981 . S
H181 C182 0.981 . S
C182 C174 1.481 . S
C182 H179 0.980 . S
C182 H180 0.981 . S
C182 H181 0.981 . S
C183 C170 1.481 1_556 S
C183 H184 0.980 1_556 S
C183 H185 0.981 1_556 S
C183 H186 0.981 . S
H184 C183 0.980 1_554 S
H185 C183 0.981 1_554 S
H186 C183 0.981 . S
O187 Zn163 2.066 1_556 S
O187 C166 1.256 . S
O188 Zn160 2.053 1_556 S
O188 C166 1.244 . S
C189 O167 1.259 . S
C189 O168 1.254 . S
O190 Zn160 2.066 . S
O190 C162 1.256 . S
O191 C162 1.244 . S
O191 Zn163 2.053 . S
Zn192 O193 2.055 . S
Zn192 O200 2.046 . S
Zn192 N208 2.036 . S
Zn192 O220 2.053 . S
Zn192 O222 2.066 1_556 S
O193 Zn192 2.055 . S
O193 C196 1.259 . S
C194 O222 1.256 . S
C194 O223 1.244 . S
Zn195 O197 2.046 . S
Zn195 O199 2.055 . S
Zn195 N201 2.036 . S
Zn195 O219 2.066 . S
Zn195 O223 2.053 1_556 S
C196 O193 1.259 . S
C196 O197 1.254 . S
O197 Zn195 2.046 . S
O197 C196 1.254 . S
C198 O219 1.256 . S
C198 O220 1.244 . S
O199 Zn195 2.055 . S
O199 C221 1.259 . S
O200 Zn192 2.046 . S
O200 C221 1.254 . S
N201 Zn195 2.036 . S
N201 C202 1.298 . S
N201 N204 1.398 1_556 S
C202 N201 1.298 . S
C202 N205 1.367 . S
C202 C215 1.481 . S
C203 N204 1.299 . S
C203 N205 1.379 1_554 S
N204 N201 1.398 1_554 S
N204 C203 1.299 . S
N205 C202 1.367 . S
N205 C203 1.379 1_556 S
C206 N208 1.298 . S
C206 N210 1.367 . S
C206 C214 1.481 1_556 S
C207 N209 1.299 . S
C207 N210 1.379 . S
N208 Zn192 2.036 . S
N208 C206 1.298 . S
N208 N209 1.398 . S
N209 C207 1.299 . S
N209 N208 1.398 . S
N210 C206 1.367 . S
N210 C207 1.379 . S
H211 C214 0.980 1_556 S
H212 C214 0.981 1_556 S
H213 C214 0.981 . S
C214 C206 1.481 1_554 S
C214 H211 0.980 1_554 S
C214 H212 0.981 1_554 S
C214 H213 0.981 . S
C215 C202 1.481 . S
C215 H216 0.980 . S
C215 H217 0.981 . S
C215 H218 0.981 . S
H216 C215 0.980 . S
H217 C215 0.981 . S
H218 C215 0.981 . S
O219 Zn195 2.066 . S
O219 C198 1.256 . S
O220 Zn192 2.053 . S
O220 C198 1.244 . S
C221 O199 1.259 . S
C221 O200 1.254 . S
O222 Zn192 2.066 1_554 S
O222 C194 1.256 . S
O223 C194 1.244 . S
O223 Zn195 2.053 1_554 S
Zn224 O225 2.055 . S
Zn224 O232 2.046 . S
Zn224 N240 2.036 . S
Zn224 O252 2.053 . S
Zn224 O254 2.066 1_556 S
O225 Zn224 2.055 . S
O225 C228 1.259 . S
C226 O254 1.256 . S
C226 O255 1.244 . S
Zn227 O229 2.046 . S
Zn227 O231 2.055 . S
Zn227 N233 2.036 . S
Zn227 O251 2.066 . S
Zn227 O255 2.053 1_556 S
C228 O225 1.259 . S
C228 O229 1.254 . S
O229 Zn227 2.046 . S
O229 C228 1.254 . S
C230 O251 1.256 . S
C230 O252 1.244 . S
O231 Zn227 2.055 . S
O231 C253 1.259 . S
O232 Zn224 2.046 . S
O232 C253 1.254 . S
N233 Zn227 2.036 . S
N233 C234 1.298 . S
N233 N236 1.398 1_556 S
C234 N233 1.298 . S
C234 N237 1.367 . S
C234 C247 1.481 . S
C235 N236 1.299 . S
C235 N237 1.379 1_554 S
N236 N233 1.398 1_554 S
N236 C235 1.299 . S
N237 C234 1.367 . S
N237 C235 1.379 1_556 S
C238 N240 1.298 . S
C238 N242 1.367 . S
C238 C246 1.481 1_556 S
C239 N241 1.299 . S
C239 N242 1.379 . S
N240 Zn224 2.036 . S
N240 C238 1.298 . S
N240 N241 1.398 . S
N241 C239 1.299 . S
N241 N240 1.398 . S
N242 C238 1.367 . S
N242 C239 1.379 . S
H243 C246 0.980 1_556 S
H244 C246 0.981 1_556 S
H245 C246 0.981 . S
C246 C238 1.481 1_554 S
C246 H243 0.980 1_554 S
C246 H244 0.981 1_554 S
C246 H245 0.981 . S
C247 C234 1.481 . S
C247 H248 0.980 . S
C247 H249 0.981 . S
C247 H250 0.981 . S
H248 C247 0.980 . S
H249 C247 0.981 . S
H250 C247 0.981 . S
O251 Zn227 2.066 . S
O251 C230 1.256 . S
O252 Zn224 2.053 . S
O252 C230 1.244 . S
C253 O231 1.259 . S
C253 O232 1.254 . S
O254 Zn224 2.066 1_554 S
O254 C226 1.256 . S
O255 C226 1.244 . S
O255 Zn227 2.053 1_554 S
C256 C257 1.391 . S
C256 C258 1.394 . S
C256 H272 0.931 . S
C257 C256 1.391 . S
C257 C261 1.376 . S
C258 C256 1.394 . S
C258 C259 1.369 . S
C258 C262 1.531 . S
C259 C258 1.369 . S
C259 C260 1.410 . S
C259 C267 1.503 . S
C260 C259 1.410 . S
C260 C261 1.392 . S
C260 C263 1.511 . S
C261 C257 1.376 . S
C261 C260 1.392 . S
C261 H273 0.929 . S
C262 C258 1.531 . S
C262 H274 0.960 . S
C262 H275 0.962 . S
C262 H276 0.960 . S
C263 C260 1.511 . S
C263 H277 0.961 . S
C263 H278 0.961 . S
C263 H279 0.961 . S
C264 C265 1.370 . S
C264 C266 1.363 . S
C264 H280 0.931 . S
C265 C264 1.370 . S
C265 C269 1.408 . S
C266 C264 1.363 . S
C266 C267 1.370 . S
C266 C270 1.524 . S
C267 C259 1.503 . S
C267 C266 1.370 . S
C267 C268 1.403 . S
C268 C267 1.403 . S
C268 C269 1.404 . S
C268 C271 1.539 . S
C269 C265 1.408 . S
C269 C268 1.404 . S
C269 H281 0.930 . S
C270 C266 1.524 . S
C270 H282 0.956 . S
C270 H283 0.961 . S
C270 H284 0.961 . S
C271 C268 1.539 . S
C271 H285 0.958 . S
C271 H286 0.961 . S
C271 H287 0.960 . S
H272 C256 0.931 . S
H273 C261 0.929 . S
H274 C262 0.960 . S
H275 C262 0.962 . S
H276 C262 0.960 . S
H277 C263 0.961 . S
H278 C263 0.961 . S
H279 C263 0.961 . S
H280 C264 0.931 . S
H281 C269 0.930 . S
H282 C270 0.956 . S
H283 C270 0.961 . S
H284 C270 0.961 . S
H285 C271 0.958 . S
H286 C271 0.961 . S
H287 C271 0.960 . S
C288 C289 1.391 . S
C288 C290 1.394 . S
C288 H304 0.931 . S
C289 C288 1.391 . S
C289 C293 1.376 . S
C290 C288 1.394 . S
C290 C291 1.369 . S
C290 C294 1.531 . S
C291 C290 1.369 . S
C291 C292 1.410 . S
C291 C299 1.503 . S
C292 C291 1.410 . S
C292 C293 1.392 . S
C292 C295 1.511 . S
C293 C289 1.376 . S
C293 C292 1.392 . S
C293 H305 0.929 . S
C294 C290 1.531 . S
C294 H306 0.960 . S
C294 H307 0.962 . S
C294 H308 0.960 . S
C295 C292 1.511 . S
C295 H309 0.961 . S
C295 H310 0.961 . S
C295 H311 0.961 . S
C296 C297 1.370 . S
C296 C298 1.363 . S
C296 H312 0.931 . S
C297 C296 1.370 . S
C297 C301 1.408 . S
C298 C296 1.363 . S
C298 C299 1.370 . S
C298 C302 1.524 . S
C299 C291 1.503 . S
C299 C298 1.370 . S
C299 C300 1.403 . S
C300 C299 1.403 . S
C300 C301 1.404 . S
C300 C303 1.539 . S
C301 C297 1.408 . S
C301 C300 1.404 . S
C301 H313 0.930 . S
C302 C298 1.524 . S
C302 H314 0.956 . S
C302 H315 0.961 . S
C302 H316 0.961 . S
C303 C300 1.539 . S
C303 H317 0.958 . S
C303 H318 0.961 . S
C303 H319 0.960 . S
H304 C288 0.931 . S
H305 C293 0.929 . S
H306 C294 0.960 . S
H307 C294 0.962 . S
H308 C294 0.960 . S
H309 C295 0.961 . S
H310 C295 0.961 . S
H311 C295 0.961 . S
H312 C296 0.931 . S
H313 C301 0.930 . S
H314 C302 0.956 . S
H315 C302 0.961 . S
H316 C302 0.961 . S
H317 C303 0.958 . S
H318 C303 0.961 . S
H319 C303 0.960 . S
C320 C321 1.391 . S
C320 C322 1.394 . S
C320 H336 0.931 . S
C321 C320 1.391 . S
C321 C325 1.376 . S
C322 C320 1.394 . S
C322 C323 1.369 . S
C322 C326 1.531 . S
C323 C322 1.369 . S
C323 C324 1.410 . S
C323 C331 1.503 . S
C324 C323 1.410 . S
C324 C325 1.392 . S
C324 C327 1.511 . S
C325 C321 1.376 . S
C325 C324 1.392 . S
C325 H337 0.929 . S
C326 C322 1.531 . S
C326 H338 0.960 . S
C326 H339 0.962 . S
C326 H340 0.960 . S
C327 C324 1.511 . S
C327 H341 0.961 . S
C327 H342 0.961 . S
C327 H343 0.961 . S
C328 C329 1.370 . S
C328 C330 1.363 . S
C328 H344 0.931 . S
C329 C328 1.370 . S
C329 C333 1.408 . S
C330 C328 1.363 . S
C330 C331 1.370 . S
C330 C334 1.524 . S
C331 C323 1.503 . S
C331 C330 1.370 . S
C331 C332 1.403 . S
C332 C331 1.403 . S
C332 C333 1.404 . S
C332 C335 1.539 . S
C333 C329 1.408 . S
C333 C332 1.404 . S
C333 H345 0.930 . S
C334 C330 1.524 . S
C334 H346 0.956 . S
C334 H347 0.961 . S
C334 H348 0.961 . S
C335 C332 1.539 . S
C335 H349 0.958 . S
C335 H350 0.961 . S
C335 H351 0.960 . S
H336 C320 0.931 . S
H337 C325 0.929 . S
H338 C326 0.960 . S
H339 C326 0.962 . S
H340 C326 0.960 . S
H341 C327 0.961 . S
H342 C327 0.961 . S
H343 C327 0.961 . S
H344 C328 0.931 . S
H345 C333 0.930 . S
H346 C334 0.956 . S
H347 C334 0.961 . S
H348 C334 0.961 . S
H349 C335 0.958 . S
H350 C335 0.961 . S
H351 C335 0.960 . S
C352 C353 1.391 . S
C352 C354 1.394 . S
C352 H368 0.931 . S
C353 C352 1.391 . S
C353 C357 1.376 . S
C354 C352 1.394 . S
C354 C355 1.369 . S
C354 C358 1.531 . S
C355 C354 1.369 . S
C355 C356 1.410 . S
C355 C363 1.503 . S
C356 C355 1.410 . S
C356 C357 1.392 . S
C356 C359 1.511 . S
C357 C353 1.376 . S
C357 C356 1.392 . S
C357 H369 0.929 . S
C358 C354 1.531 . S
C358 H370 0.960 . S
C358 H371 0.962 . S
C358 H372 0.960 . S
C359 C356 1.511 . S
C359 H373 0.961 . S
C359 H374 0.961 . S
C359 H375 0.961 . S
C360 C361 1.370 . S
C360 C362 1.363 . S
C360 H376 0.931 . S
C361 C360 1.370 . S
C361 C365 1.408 . S
C362 C360 1.363 . S
C362 C363 1.370 . S
C362 C366 1.524 . S
C363 C355 1.503 . S
C363 C362 1.370 . S
C363 C364 1.403 . S
C364 C363 1.403 . S
C364 C365 1.404 . S
C364 C367 1.539 . S
C365 C361 1.408 . S
C365 C364 1.404 . S
C365 H377 0.930 . S
C366 C362 1.524 . S
C366 H378 0.956 . S
C366 H379 0.961 . S
C366 H380 0.961 . S
C367 C364 1.539 . S
C367 H381 0.958 . S
C367 H382 0.961 . S
C367 H383 0.960 . S
H368 C352 0.931 . S
H369 C357 0.929 . S
H370 C358 0.960 . S
H371 C358 0.962 . S
H372 C358 0.960 . S
H373 C359 0.961 . S
H374 C359 0.961 . S
H375 C359 0.961 . S
H376 C360 0.931 . S
H377 C365 0.930 . S
H378 C366 0.956 . S
H379 C366 0.961 . S
H380 C366 0.961 . S
H381 C367 0.958 . S
H382 C367 0.961 . S
H383 C367 0.960 . S
C384 C385 1.391 . S
C384 C386 1.394 . S
C384 H400 0.931 . S
C385 C384 1.391 . S
C385 C389 1.376 . S
C386 C384 1.394 . S
C386 C387 1.369 . S
C386 C390 1.531 . S
C387 C386 1.369 . S
C387 C388 1.410 . S
C387 C395 1.503 1_565 S
C388 C387 1.410 . S
C388 C389 1.392 . S
C388 C391 1.511 . S
C389 C385 1.376 . S
C389 C388 1.392 . S
C389 H401 0.929 . S
C390 C386 1.531 . S
C390 H402 0.961 . S
C390 H403 0.962 . S
C390 H404 0.960 . S
C391 C388 1.511 . S
C391 H405 0.961 . S
C391 H406 0.961 1_565 S
C391 H407 0.961 . S
C392 C393 1.370 . S
C392 C394 1.363 . S
C392 H408 0.931 . S
C393 C392 1.370 . S
C393 C397 1.408 . S
C394 C392 1.363 . S
C394 C395 1.370 . S
C394 C398 1.524 . S
C395 C387 1.503 1_545 S
C395 C394 1.370 . S
C395 C396 1.403 . S
C396 C395 1.403 . S
C396 C397 1.404 . S
C396 C399 1.539 . S
C397 C393 1.408 . S
C397 C396 1.404 . S
C397 H409 0.930 . S
C398 C394 1.524 . S
C398 H410 0.956 1_545 S
C398 H411 0.961 1_545 S
C398 H412 0.961 . S
C399 C396 1.539 . S
C399 H413 0.958 . S
C399 H414 0.961 . S
C399 H415 0.960 . S
H400 C384 0.931 . S
H401 C389 0.929 . S
H402 C390 0.961 . S
H403 C390 0.962 . S
H404 C390 0.960 . S
H405 C391 0.961 . S
H406 C391 0.961 1_545 S
H407 C391 0.961 . S
H408 C392 0.931 . S
H409 C397 0.930 . S
H410 C398 0.956 1_565 S
H411 C398 0.961 1_565 S
H412 C398 0.961 . S
H413 C399 0.958 . S
H414 C399 0.961 . S
H415 C399 0.960 . S
C416 C417 1.391 . S
C416 C418 1.394 . S
C416 H432 0.931 . S
C417 C416 1.391 . S
C417 C421 1.376 . S
C418 C416 1.394 . S
C418 C419 1.369 . S
C418 C422 1.531 . S
C419 C418 1.369 . S
C419 C420 1.410 . S
C419 C427 1.503 . S
C420 C419 1.410 . S
C420 C421 1.392 . S
C420 C423 1.511 . S
C421 C417 1.376 . S
C421 C420 1.392 . S
C421 H433 0.929 . S
C422 C418 1.531 . S
C422 H434 0.960 . S
C422 H435 0.962 . S
C422 H436 0.960 . S
C423 C420 1.511 . S
C423 H437 0.961 . S
C423 H438 0.961 . S
C423 H439 0.961 . S
C424 C425 1.370 . S
C424 C426 1.363 . S
C424 H440 0.931 . S
C425 C424 1.370 . S
C425 C429 1.408 . S
C426 C424 1.363 . S
C426 C427 1.370 . S
C426 C430 1.524 . S
C427 C419 1.503 . S
C427 C426 1.370 . S
C427 C428 1.403 . S
C428 C427 1.403 . S
C428 C429 1.404 . S
C428 C431 1.539 . S
C429 C425 1.408 . S
C429 C428 1.404 . S
C429 H441 0.930 . S
C430 C426 1.524 . S
C430 H442 0.956 . S
C430 H443 0.961 . S
C430 H444 0.961 . S
C431 C428 1.539 . S
C431 H445 0.958 . S
C431 H446 0.961 . S
C431 H447 0.960 . S
H432 C416 0.931 . S
H433 C421 0.929 . S
H434 C422 0.960 . S
H435 C422 0.962 . S
H436 C422 0.960 . S
H437 C423 0.961 . S
H438 C423 0.961 . S
H439 C423 0.961 . S
H440 C424 0.931 . S
H441 C429 0.930 . S
H442 C430 0.956 . S
H443 C430 0.961 . S
H444 C430 0.961 . S
H445 C431 0.958 . S
H446 C431 0.961 . S
H447 C431 0.960 . S
C448 C449 1.391 . S
C448 C450 1.394 . S
C448 H464 0.931 . S
C449 C448 1.391 . S
C449 C453 1.376 . S
C450 C448 1.394 . S
C450 C451 1.369 . S
C450 C454 1.535 . S
C451 C450 1.369 . S
C451 C452 1.410 . S
C451 C459 1.503 1_565 S
C452 C451 1.410 . S
C452 C453 1.392 . S
C452 C455 1.511 . S
C453 C449 1.376 . S
C453 C452 1.392 . S
C453 H465 0.929 . S
C454 C450 1.535 . S
C454 H466 0.954 1_565 S
C454 H467 0.961 1_565 S
C454 H468 0.963 . S
C455 C452 1.511 . S
C455 H469 0.961 . S
C455 H470 0.961 . S
C455 H471 0.961 . S
C456 C457 1.370 . S
C456 C458 1.363 . S
C456 H472 0.931 . S
C457 C456 1.370 . S
C457 C461 1.408 . S
C458 C456 1.363 . S
C458 C459 1.370 . S
C458 C462 1.524 . S
C459 C451 1.503 1_545 S
C459 C458 1.370 . S
C459 C460 1.403 . S
C460 C459 1.403 . S
C460 C461 1.404 . S
C460 C463 1.539 . S
C461 C457 1.408 . S
C461 C460 1.404 . S
C461 H473 0.930 . S
C462 C458 1.524 . S
C462 H474 0.950 1_545 S
C462 H475 0.961 1_545 S
C462 H476 0.961 . S
C463 C460 1.539 . S
C463 H477 0.958 . S
C463 H478 0.961 . S
C463 H479 0.960 . S
H464 C448 0.931 . S
H465 C453 0.929 . S
H466 C454 0.954 1_545 S
H467 C454 0.961 1_545 S
H468 C454 0.963 . S
H469 C455 0.961 . S
H470 C455 0.961 . S
H471 C455 0.961 . S
H472 C456 0.931 . S
H473 C461 0.930 . S
H474 C462 0.950 1_565 S
H475 C462 0.961 1_565 S
H476 C462 0.961 . S
H477 C463 0.958 . S
H478 C463 0.961 . S
H479 C463 0.960 . S
C480 C481 1.391 . S
C480 C482 1.394 . S
C480 H496 0.931 . S
C481 C480 1.391 . S
C481 C485 1.376 . S
C482 C480 1.394 . S
C482 C483 1.369 . S
C482 C486 1.531 . S
C483 C482 1.369 . S
C483 C484 1.410 . S
C483 C491 1.503 . S
C484 C483 1.410 . S
C484 C485 1.392 . S
C484 C487 1.511 . S
C485 C481 1.376 . S
C485 C484 1.392 . S
C485 H497 0.929 . S
C486 C482 1.531 . S
C486 H498 0.960 . S
C486 H499 0.962 . S
C486 H500 0.960 . S
C487 C484 1.511 . S
C487 H501 0.961 . S
C487 H502 0.961 . S
C487 H503 0.961 . S
C488 C489 1.370 . S
C488 C490 1.363 . S
C488 H504 0.931 . S
C489 C488 1.370 . S
C489 C493 1.408 . S
C490 C488 1.363 . S
C490 C491 1.370 . S
C490 C494 1.524 . S
C491 C483 1.503 . S
C491 C490 1.370 . S
C491 C492 1.403 . S
C492 C491 1.403 . S
C492 C493 1.404 . S
C492 C495 1.539 . S
C493 C489 1.408 . S
C493 C492 1.404 . S
C493 H505 0.930 . S
C494 C490 1.524 . S
C494 H506 0.956 . S
C494 H507 0.961 . S
C494 H508 0.961 . S
C495 C492 1.539 . S
C495 H509 0.958 . S
C495 H510 0.961 . S
C495 H511 0.960 . S
H496 C480 0.931 . S
H497 C485 0.929 . S
H498 C486 0.960 . S
H499 C486 0.962 . S
H500 C486 0.960 . S
H501 C487 0.961 . S
H502 C487 0.961 . S
H503 C487 0.961 . S
H504 C488 0.931 . S
H505 C493 0.930 . S
H506 C494 0.956 . S
H507 C494 0.961 . S
H508 C494 0.961 . S
H509 C495 0.958 . S
H510 C495 0.961 . S
H511 C495 0.960 . S
C512 C513 1.391 . S
C512 C514 1.394 . S
C512 H528 0.931 . S
C513 C512 1.391 . S
C513 C517 1.376 1_554 S
C514 C512 1.394 . S
C514 C515 1.369 . S
C514 C518 1.531 . S
C515 C514 1.369 . S
C515 C516 1.410 1_554 S
C515 C523 1.503 . S
C516 C515 1.410 1_556 S
C516 C517 1.392 . S
C516 C519 1.511 . S
C517 C513 1.376 1_556 S
C517 C516 1.392 . S
C517 H529 0.929 . S
C518 C514 1.531 . S
C518 H530 0.960 . S
C518 H531 0.962 . S
C518 H532 0.960 . S
C519 C516 1.511 . S
C519 H533 0.961 . S
C519 H534 0.961 . S
C519 H535 0.961 . S
C520 C521 1.370 . S
C520 C522 1.363 . S
C520 H536 0.931 . S
C521 C520 1.370 . S
C521 C525 1.408 1_556 S
C522 C520 1.363 . S
C522 C523 1.370 1_556 S
C522 C526 1.524 . S
C523 C515 1.503 . S
C523 C522 1.370 1_554 S
C523 C524 1.403 . S
C524 C523 1.403 . S
C524 C525 1.404 . S
C524 C527 1.539 . S
C525 C521 1.408 1_554 S
C525 C524 1.404 . S
C525 H537 0.930 . S
C526 C522 1.524 . S
C526 H538 0.956 . S
C526 H539 0.961 . S
C526 H540 0.961 . S
C527 C524 1.539 . S
C527 H541 0.958 . S
C527 H542 0.961 . S
C527 H543 0.960 . S
H528 C512 0.931 . S
H529 C517 0.929 . S
H530 C518 0.960 . S
H531 C518 0.962 . S
H532 C518 0.960 . S
H533 C519 0.961 . S
H534 C519 0.961 . S
H535 C519 0.961 . S
H536 C520 0.931 . S
H537 C525 0.930 . S
H538 C526 0.956 . S
H539 C526 0.961 . S
H540 C526 0.961 . S
H541 C527 0.958 . S
H542 C527 0.961 . S
H543 C527 0.960 . S
C544 C545 1.391 1_556 S
C544 C546 1.394 . S
C544 H560 0.931 . S
C545 C544 1.391 1_554 S
C545 C549 1.376 . S
C546 C544 1.394 . S
C546 C547 1.369 . S
C546 C550 1.531 . S
C547 C546 1.369 . S
C547 C548 1.410 1_556 S
C547 C555 1.503 1_565 S
C548 C547 1.410 1_554 S
C548 C549 1.392 . S
C548 C551 1.511 . S
C549 C545 1.376 . S
C549 C548 1.392 . S
C549 H561 0.929 . S
C550 C546 1.531 . S
C550 H562 0.970 . S
C550 H563 0.962 . S
C550 H564 0.960 . S
C551 C548 1.511 . S
C551 H565 0.961 . S
C551 H566 0.961 1_565 S
C551 H567 0.961 . S
C552 C553 1.370 1_554 S
C552 C554 1.363 . S
C552 H568 0.931 . S
C553 C552 1.370 1_556 S
C553 C557 1.408 . S
C554 C552 1.363 . S
C554 C555 1.370 1_554 S
C554 C558 1.524 . S
C555 C547 1.503 1_545 S
C555 C554 1.370 1_556 S
C555 C556 1.403 . S
C556 C555 1.403 . S
C556 C557 1.404 . S
C556 C559 1.539 . S
C557 C553 1.408 . S
C557 C556 1.404 . S
C557 H569 0.930 . S
C558 C554 1.524 . S
C558 H570 0.956 . S
C558 H571 0.961 . S
C558 H572 0.961 . S
C559 C556 1.539 . S
C559 H573 0.958 . S
C559 H574 0.961 . S
C559 H575 0.960 1_545 S
H560 C544 0.931 . S
H561 C549 0.929 . S
H562 C550 0.970 . S
H563 C550 0.962 . S
H564 C550 0.960 . S
H565 C551 0.961 . S
H566 C551 0.961 1_545 S
H567 C551 0.961 . S
H568 C552 0.931 . S
H569 C557 0.930 . S
H570 C558 0.956 . S
H571 C558 0.961 . S
H572 C558 0.961 . S
H573 C559 0.958 . S
H574 C559 0.961 . S
H575 C559 0.960 1_565 S
C576 C577 1.391 . S
C576 C578 1.394 . S
C576 H592 0.931 . S
C577 C576 1.391 . S
C577 C581 1.376 . S
C578 C576 1.394 . S
C578 C579 1.369 . S
C578 C582 1.531 . S
C579 C578 1.369 . S
C579 C580 1.410 . S
C579 C587 1.502 1_556 S
C580 C579 1.410 . S
C580 C581 1.392 . S
C580 C583 1.511 1_556 S
C581 C577 1.376 . S
C581 C580 1.392 . S
C581 H593 0.929 . S
C582 C578 1.531 . S
C582 H594 0.960 . S
C582 H595 0.962 . S
C582 H596 0.960 . S
C583 C580 1.511 1_554 S
C583 H597 0.961 . S
C583 H598 0.961 . S
C583 H599 0.961 1_554 S
C584 C585 1.370 . S
C584 C586 1.363 . S
C584 H600 0.931 . S
C585 C584 1.370 . S
C585 C589 1.408 1_554 S
C586 C584 1.363 . S
C586 C587 1.373 . S
C586 C590 1.524 . S
C587 C579 1.502 1_554 S
C587 C586 1.373 . S
C587 C588 1.401 1_554 S
C588 C587 1.401 1_556 S
C588 C589 1.404 . S
C588 C591 1.539 . S
C589 C585 1.408 1_556 S
C589 C588 1.404 . S
C589 H601 0.930 . S
C590 C586 1.524 . S
C590 H602 0.956 . S
C590 H603 0.961 . S
C590 H604 0.961 . S
C591 C588 1.539 . S
C591 H605 0.958 . S
C591 H606 0.961 . S
C591 H607 0.960 . S
H592 C576 0.931 . S
H593 C581 0.929 . S
H594 C582 0.960 . S
H595 C582 0.962 . S
H596 C582 0.960 . S
H597 C583 0.961 . S
H598 C583 0.961 . S
H599 C583 0.961 1_556 S
H600 C584 0.931 . S
H601 C589 0.930 . S
H602 C590 0.956 . S
H603 C590 0.961 . S
H604 C590 0.961 . S
H605 C591 0.958 . S
H606 C591 0.961 . S
H607 C591 0.960 . S
C608 C609 1.391 . S
C608 C610 1.394 . S
C608 H624 0.931 . S
C609 C608 1.391 . S
C609 C613 1.376 . S
C610 C608 1.394 . S
C610 C611 1.369 . S
C610 C614 1.531 . S
C611 C610 1.369 . S
C611 C612 1.410 . S
C611 C619 1.507 1_545 S
C612 C611 1.410 . S
C612 C613 1.392 . S
C612 C615 1.511 . S
C613 C609 1.376 . S
C613 C612 1.392 . S
C613 H625 0.929 . S
C614 C610 1.531 . S
C614 H626 0.960 1_545 S
C614 H627 0.962 1_556 S
C614 H628 0.960 . S
C615 C612 1.511 . S
C615 H629 0.961 . S
C615 H630 0.961 1_545 S
C615 H631 0.961 . S
C616 C617 1.370 . S
C616 C618 1.363 . S
C616 H632 0.931 . S
C617 C616 1.370 . S
C617 C621 1.408 1_554 S
C618 C616 1.363 . S
C618 C619 1.358 1_554 S
C618 C622 1.524 1_565 S
C619 C611 1.507 1_565 S
C619 C618 1.358 1_556 S
C619 C620 1.411 . S
C620 C619 1.411 . S
C620 C621 1.404 . S
C620 C623 1.539 . S
C621 C617 1.408 1_556 S
C621 C620 1.404 . S
C621 H633 0.930 . S
C622 C618 1.524 1_545 S
C622 H634 0.956 . S
C622 H635 0.961 . S
C622 H636 0.961 1_545 S
C623 C620 1.539 . S
C623 H637 0.958 . S
C623 H638 0.961 . S
C623 H639 0.960 . S
H624 C608 0.931 . S
H625 C613 0.929 . S
H626 C614 0.960 1_565 S
H627 C614 0.962 1_554 S
H628 C614 0.960 . S
H629 C615 0.961 . S
H630 C615 0.961 1_565 S
H631 C615 0.961 . S
H632 C616 0.931 . S
H633 C621 0.930 . S
H634 C622 0.956 . S
H635 C622 0.961 . S
H636 C622 0.961 1_565 S
H637 C623 0.958 . S
H638 C623 0.961 . S
H639 C623 0.960 . S
C640 C641 1.391 . S
C640 C642 1.394 . S
C640 H656 0.931 . S
C641 C640 1.391 . S
C641 C645 1.376 . S
C642 C640 1.394 . S
C642 C643 1.369 . S
C642 C646 1.531 . S
C643 C642 1.369 . S
C643 C644 1.410 . S
C643 C651 1.503 . S
C644 C643 1.410 . S
C644 C645 1.392 . S
C644 C647 1.511 . S
C645 C641 1.376 . S
C645 C644 1.392 . S
C645 H657 0.929 . S
C646 C642 1.531 . S
C646 H658 0.960 . S
C646 H659 0.962 . S
C646 H660 0.960 . S
C647 C644 1.511 . S
C647 H661 0.961 . S
C647 H662 0.961 . S
C647 H663 0.961 . S
C648 C649 1.370 . S
C648 C650 1.363 . S
C648 H664 0.931 . S
C649 C648 1.370 . S
C649 C653 1.408 . S
C650 C648 1.363 . S
C650 C651 1.370 1_556 S
C650 C654 1.524 1_556 S
C651 C643 1.503 . S
C651 C650 1.370 1_554 S
C651 C652 1.403 1_554 S
C652 C651 1.403 1_556 S
C652 C653 1.404 . S
C652 C655 1.539 1_556 S
C653 C649 1.408 . S
C653 C652 1.404 . S
C653 H665 0.930 . S
C654 C650 1.524 1_554 S
C654 H666 0.956 . S
C654 H667 0.961 . S
C654 H668 0.961 1_554 S
C655 C652 1.539 1_554 S
C655 H669 0.958 . S
C655 H670 0.961 1_554 S
C655 H671 0.960 . S
H656 C640 0.931 . S
H657 C645 0.929 . S
H658 C646 0.960 . S
H659 C646 0.962 . S
H660 C646 0.960 . S
H661 C647 0.961 . S
H662 C647 0.961 . S
H663 C647 0.961 . S
H664 C648 0.931 . S
H665 C653 0.930 . S
H666 C654 0.956 . S
H667 C654 0.961 . S
H668 C654 0.961 1_556 S
H669 C655 0.958 . S
H670 C655 0.961 1_556 S
H671 C655 0.960 . S
C672 C673 1.391 . S
C672 C674 1.394 . S
C672 H688 0.931 . S
C673 C672 1.391 . S
C673 C677 1.376 . S
C674 C672 1.394 . S
C674 C675 1.369 . S
C674 C678 1.531 . S
C675 C674 1.369 . S
C675 C676 1.410 . S
C675 C683 1.503 . S
C676 C675 1.410 . S
C676 C677 1.392 . S
C676 C679 1.511 . S
C677 C673 1.376 . S
C677 C676 1.392 . S
C677 H689 0.929 . S
C678 C674 1.531 . S
C678 H690 0.960 . S
C678 H691 0.962 . S
C678 H692 0.960 . S
C679 C676 1.511 . S
C679 H693 0.961 . S
C679 H694 0.961 . S
C679 H695 0.961 . S
C680 C681 1.370 . S
C680 C682 1.363 . S
C680 H696 0.931 . S
C681 C680 1.370 . S
C681 C685 1.408 . S
C682 C680 1.363 . S
C682 C683 1.370 1_556 S
C682 C686 1.524 1_556 S
C683 C675 1.503 . S
C683 C682 1.370 1_554 S
C683 C684 1.403 1_554 S
C684 C683 1.403 1_556 S
C684 C685 1.404 . S
C684 C687 1.539 1_556 S
C685 C681 1.408 . S
C685 C684 1.404 . S
C685 H697 0.930 . S
C686 C682 1.524 1_554 S
C686 H698 0.956 . S
C686 H699 0.961 . S
C686 H700 0.961 . S
C687 C684 1.539 1_554 S
C687 H701 0.958 . S
C687 H702 0.961 1_554 S
C687 H703 0.960 . S
H688 C672 0.931 . S
H689 C677 0.929 . S
H690 C678 0.960 . S
H691 C678 0.962 . S
H692 C678 0.960 . S
H693 C679 0.961 . S
H694 C679 0.961 . S
H695 C679 0.961 . S
H696 C680 0.931 . S
H697 C685 0.930 . S
H698 C686 0.956 . S
H699 C686 0.961 . S
H700 C686 0.961 . S
H701 C687 0.958 . S
H702 C687 0.961 1_556 S
H703 C687 0.960 . S
C704 C705 1.391 . S
C704 C706 1.394 . S
C704 H720 0.931 . S
C705 C704 1.391 . S
C705 C709 1.376 . S
C706 C704 1.394 . S
C706 C707 1.369 1_554 S
C706 C710 1.531 1_554 S
C707 C706 1.369 1_556 S
C707 C708 1.410 1_556 S
C707 C715 1.503 . S
C708 C707 1.410 1_554 S
C708 C709 1.392 . S
C708 C711 1.511 1_554 S
C709 C705 1.376 . S
C709 C708 1.392 . S
C709 H721 0.929 . S
C710 C706 1.531 1_556 S
C710 H722 0.960 . S
C710 H723 0.962 . S
C710 H724 0.960 1_556 S
C711 C708 1.511 1_556 S
C711 H725 0.961 1_556 S
C711 H726 0.961 . S
C711 H727 0.961 . S
C712 C713 1.370 . S
C712 C714 1.363 . S
C712 H728 0.931 . S
C713 C712 1.370 . S
C713 C717 1.408 . S
C714 C712 1.363 . S
C714 C715 1.370 . S
C714 C718 1.524 . S
C715 C707 1.503 . S
C715 C714 1.370 . S
C715 C716 1.403 . S
C716 C715 1.403 . S
C716 C717 1.404 . S
C716 C719 1.539 . S
C717 C713 1.408 . S
C717 C716 1.404 . S
C717 H729 0.930 . S
C718 C714 1.524 . S
C718 H730 0.956 . S
C718 H731 0.961 . S
C718 H732 0.961 . S
C719 C716 1.539 . S
C719 H733 0.958 . S
C719 H734 0.961 . S
C719 H735 0.960 . S
H720 C704 0.931 . S
H721 C709 0.929 . S
H722 C710 0.960 . S
H723 C710 0.962 . S
H724 C710 0.960 1_554 S
H725 C711 0.961 1_554 S
H726 C711 0.961 . S
H727 C711 0.961 . S
H728 C712 0.931 . S
H729 C717 0.930 . S
H730 C718 0.956 . S
H731 C718 0.961 . S
H732 C718 0.961 . S
H733 C719 0.958 . S
H734 C719 0.961 . S
H735 C719 0.960 . S
C736 C737 1.391 . S
C736 C738 1.394 . S
C736 H752 0.931 . S
C737 C736 1.391 . S
C737 C741 1.376 . S
C738 C736 1.394 . S
C738 C739 1.369 . S
C738 C742 1.531 . S
C739 C738 1.369 . S
C739 C740 1.410 . S
C739 C747 1.503 . S
C740 C739 1.410 . S
C740 C741 1.392 . S
C740 C743 1.511 . S
C741 C737 1.376 . S
C741 C740 1.392 . S
C741 H753 0.929 . S
C742 C738 1.531 . S
C742 H754 0.960 . S
C742 H755 0.962 . S
C742 H756 0.960 . S
C743 C740 1.511 . S
C743 H757 0.961 . S
C743 H758 0.961 . S
C743 H759 0.961 . S
C744 C745 1.370 . S
C744 C746 1.363 . S
C744 H760 0.931 . S
C745 C744 1.370 . S
C745 C749 1.408 . S
C746 C744 1.363 . S
C746 C747 1.370 1_554 S
C746 C750 1.524 1_554 S
C747 C739 1.503 . S
C747 C746 1.370 1_556 S
C747 C748 1.403 1_556 S
C748 C747 1.403 1_554 S
C748 C749 1.404 . S
C748 C751 1.539 1_554 S
C749 C745 1.408 . S
C749 C748 1.404 . S
C749 H761 0.930 . S
C750 C746 1.524 1_556 S
C750 H762 0.956 . S
C750 H763 0.961 . S
C750 H764 0.961 1_556 S
C751 C748 1.539 1_556 S
C751 H765 0.958 . S
C751 H766 0.961 1_556 S
C751 H767 0.960 . S
H752 C736 0.931 . S
H753 C741 0.929 . S
H754 C742 0.960 . S
H755 C742 0.962 . S
H756 C742 0.960 . S
H757 C743 0.961 . S
H758 C743 0.961 . S
H759 C743 0.961 . S
H760 C744 0.931 . S
H761 C749 0.930 . S
H762 C750 0.956 . S
H763 C750 0.961 . S
H764 C750 0.961 1_554 S
H765 C751 0.958 . S
H766 C751 0.961 1_554 S
H767 C751 0.960 . S
C768 C769 1.391 . S
C768 C770 1.394 . S
C768 H784 0.931 . S
C769 C768 1.391 . S
C769 C773 1.376 . S
C770 C768 1.394 . S
C770 C771 1.369 . S
C770 C774 1.531 . S
C771 C770 1.369 . S
C771 C772 1.410 . S
C771 C779 1.503 . S
C772 C771 1.410 . S
C772 C773 1.392 . S
C772 C775 1.511 . S
C773 C769 1.376 . S
C773 C772 1.392 . S
C773 H785 0.929 . S
C774 C770 1.531 . S
C774 H786 0.960 . S
C774 H787 0.962 . S
C774 H788 0.960 . S
C775 C772 1.511 . S
C775 H789 0.961 . S
C775 H790 0.961 . S
C775 H791 0.961 . S
C776 C777 1.370 . S
C776 C778 1.363 . S
C776 H792 0.931 . S
C777 C776 1.370 . S
C777 C781 1.408 . S
C778 C776 1.363 . S
C778 C779 1.370 . S
C778 C782 1.524 . S
C779 C771 1.503 . S
C779 C778 1.370 . S
C779 C780 1.403 . S
C780 C779 1.403 . S
C780 C781 1.404 . S
C780 C783 1.539 . S
C781 C777 1.408 . S
C781 C780 1.404 . S
C781 H793 0.930 . S
C782 C778 1.524 . S
C782 H794 0.956 . S
C782 H795 0.961 . S
C782 H796 0.961 . S
C783 C780 1.539 . S
C783 H797 0.958 . S
C783 H798 0.961 . S
C783 H799 0.960 . S
H784 C768 0.931 . S
H785 C773 0.929 . S
H786 C774 0.960 . S
H787 C774 0.962 . S
H788 C774 0.960 . S
H789 C775 0.961 . S
H790 C775 0.961 . S
H791 C775 0.961 . S
H792 C776 0.931 . S
H793 C781 0.930 . S
H794 C782 0.956 . S
H795 C782 0.961 . S
H796 C782 0.961 . S
H797 C783 0.958 . S
H798 C783 0.961 . S
H799 C783 0.960 . S
C800 C801 1.391 . S
C800 C802 1.394 . S
C800 H816 0.931 . S
C801 C800 1.391 . S
C801 C805 1.376 . S
C802 C800 1.394 . S
C802 C803 1.369 . S
C802 C806 1.531 . S
C803 C802 1.369 . S
C803 C804 1.410 . S
C803 C811 1.503 . S
C804 C803 1.410 . S
C804 C805 1.392 . S
C804 C807 1.511 . S
C805 C801 1.376 . S
C805 C804 1.392 . S
C805 H817 0.929 . S
C806 C802 1.531 . S
C806 H818 0.960 . S
C806 H819 0.962 . S
C806 H820 0.960 . S
C807 C804 1.511 . S
C807 H821 0.961 . S
C807 H822 0.961 . S
C807 H823 0.961 . S
C808 C809 1.370 . S
C808 C810 1.363 . S
C808 H824 0.931 . S
C809 C808 1.370 . S
C809 C813 1.408 . S
C810 C808 1.363 . S
C810 C811 1.370 . S
C810 C814 1.524 . S
C811 C803 1.503 . S
C811 C810 1.370 . S
C811 C812 1.403 . S
C812 C811 1.403 . S
C812 C813 1.404 . S
C812 C815 1.539 . S
C813 C809 1.408 . S
C813 C812 1.404 . S
C813 H825 0.930 . S
C814 C810 1.524 . S
C814 H826 0.956 . S
C814 H827 0.961 . S
C814 H828 0.961 . S
C815 C812 1.539 . S
C815 H829 0.958 . S
C815 H830 0.961 . S
C815 H831 0.960 . S
H816 C800 0.931 . S
H817 C805 0.929 . S
H818 C806 0.960 . S
H819 C806 0.962 . S
H820 C806 0.960 . S
H821 C807 0.961 . S
H822 C807 0.961 . S
H823 C807 0.961 . S
H824 C808 0.931 . S
H825 C813 0.930 . S
H826 C814 0.956 . S
H827 C814 0.961 . S
H828 C814 0.961 . S
H829 C815 0.958 . S
H830 C815 0.961 . S
H831 C815 0.960 . S
C832 C833 1.391 . S
C832 C834 1.394 . S
C832 H848 0.931 . S
C833 C832 1.391 . S
C833 C837 1.376 . S
C834 C832 1.394 . S
C834 C835 1.369 . S
C834 C838 1.531 . S
C835 C834 1.369 . S
C835 C836 1.410 . S
C835 C843 1.503 . S
C836 C835 1.410 . S
C836 C837 1.392 . S
C836 C839 1.511 . S
C837 C833 1.376 . S
C837 C836 1.392 . S
C837 H849 0.929 . S
C838 C834 1.531 . S
C838 H850 0.960 . S
C838 H851 0.962 . S
C838 H852 0.960 . S
C839 C836 1.511 . S
C839 H853 0.961 . S
C839 H854 0.961 . S
C839 H855 0.961 . S
C840 C841 1.370 . S
C840 C842 1.363 . S
C840 H856 0.931 . S
C841 C840 1.370 . S
C841 C845 1.408 . S
C842 C840 1.363 . S
C842 C843 1.370 . S
C842 C846 1.524 . S
C843 C835 1.503 . S
C843 C842 1.370 . S
C843 C844 1.403 . S
C844 C843 1.403 . S
C844 C845 1.404 . S
C844 C847 1.539 . S
C845 C841 1.408 . S
C845 C844 1.404 . S
C845 H857 0.930 . S
C846 C842 1.524 . S
C846 H858 0.956 . S
C846 H859 0.961 . S
C846 H860 0.961 . S
C847 C844 1.539 . S
C847 H861 0.958 . S
C847 H862 0.961 . S
C847 H863 0.960 . S
H848 C832 0.931 . S
H849 C837 0.929 . S
H850 C838 0.960 . S
H851 C838 0.962 . S
H852 C838 0.960 . S
H853 C839 0.961 . S
H854 C839 0.961 . S
H855 C839 0.961 . S
H856 C840 0.931 . S
H857 C845 0.930 . S
H858 C846 0.956 . S
H859 C846 0.961 . S
H860 C846 0.961 . S
H861 C847 0.958 . S
H862 C847 0.961 . S
H863 C847 0.960 . S
C864 C865 1.391 . S
C864 C866 1.394 . S
C864 H880 0.931 . S
C865 C864 1.391 . S
C865 C869 1.376 . S
C866 C864 1.394 . S
C866 C867 1.369 . S
C866 C870 1.531 . S
C867 C866 1.369 . S
C867 C868 1.410 . S
C867 C875 1.503 . S
C868 C867 1.410 . S
C868 C869 1.392 . S
C868 C871 1.511 . S
C869 C865 1.376 . S
C869 C868 1.392 . S
C869 H881 0.929 . S
C870 C866 1.531 . S
C870 H882 0.960 . S
C870 H883 0.962 . S
C870 H884 0.960 . S
C871 C868 1.511 . S
C871 H885 0.961 . S
C871 H886 0.961 . S
C871 H887 0.961 . S
C872 C873 1.370 . S
C872 C874 1.363 . S
C872 H888 0.931 . S
C873 C872 1.370 . S
C873 C877 1.408 . S
C874 C872 1.363 . S
C874 C875 1.370 . S
C874 C878 1.524 . S
C875 C867 1.503 . S
C875 C874 1.370 . S
C875 C876 1.403 . S
C876 C875 1.403 . S
C876 C877 1.404 . S
C876 C879 1.539 . S
C877 C873 1.408 . S
C877 C876 1.404 . S
C877 H889 0.930 . S
C878 C874 1.524 . S
C878 H890 0.956 . S
C878 H891 0.961 . S
C878 H892 0.961 . S
C879 C876 1.539 . S
C879 H893 0.958 . S
C879 H894 0.961 . S
C879 H895 0.960 . S
H880 C864 0.931 . S
H881 C869 0.929 . S
H882 C870 0.960 . S
H883 C870 0.962 . S
H884 C870 0.960 . S
H885 C871 0.961 . S
H886 C871 0.961 . S
H887 C871 0.961 . S
H888 C872 0.931 . S
H889 C877 0.930 . S
H890 C878 0.956 . S
H891 C878 0.961 . S
H892 C878 0.961 . S
H893 C879 0.958 . S
H894 C879 0.961 . S
H895 C879 0.960 . S
C896 C897 1.391 . S
C896 C898 1.394 . S
C896 H912 0.931 . S
C897 C896 1.391 . S
C897 C901 1.376 . S
C898 C896 1.394 . S
C898 C899 1.369 . S
C898 C902 1.531 . S
C899 C898 1.369 . S
C899 C900 1.410 . S
C899 C907 1.503 1_455 S
C900 C899 1.410 . S
C900 C901 1.392 . S
C900 C903 1.511 . S
C901 C897 1.376 . S
C901 C900 1.392 . S
C901 H913 0.929 . S
C902 C898 1.531 . S
C902 H914 0.960 1_455 S
C902 H915 0.962 . S
C902 H916 0.960 . S
C903 C900 1.511 . S
C903 H917 0.961 . S
C903 H918 0.961 1_455 S
C903 H919 0.961 . S
C904 C905 1.370 . S
C904 C906 1.363 . S
C904 H920 0.931 . S
C905 C904 1.370 . S
C905 C909 1.408 . S
C906 C904 1.363 . S
C906 C907 1.370 . S
C906 C910 1.524 . S
C907 C899 1.503 1_655 S
C907 C906 1.370 . S
C907 C908 1.403 . S
C908 C907 1.403 . S
C908 C909 1.404 . S
C908 C911 1.539 . S
C909 C905 1.408 . S
C909 C908 1.404 . S
C909 H921 0.930 . S
C910 C906 1.524 . S
C910 H922 0.980 . S
C910 H923 0.961 1_655 S
C910 H924 0.961 . S
C911 C908 1.539 . S
C911 H925 0.958 . S
C911 H926 0.961 . S
C911 H927 0.980 . S
H912 C896 0.931 . S
H913 C901 0.929 . S
H914 C902 0.960 1_655 S
H915 C902 0.962 . S
H916 C902 0.960 . S
H917 C903 0.961 . S
H918 C903 0.961 1_655 S
H919 C903 0.961 . S
H920 C904 0.931 . S
H921 C909 0.930 . S
H922 C910 0.980 . S
H923 C910 0.961 1_455 S
H924 C910 0.961 . S
H925 C911 0.958 . S
H926 C911 0.961 . S
H927 C911 0.980 . S
C928 C929 1.391 . S
C928 C930 1.394 . S
C928 H944 0.931 . S
C929 C928 1.391 . S
C929 C933 1.376 . S
C930 C928 1.394 . S
C930 C931 1.369 . S
C930 C934 1.531 . S
C931 C930 1.369 . S
C931 C932 1.410 . S
C931 C939 1.503 1_655 S
C932 C931 1.410 . S
C932 C933 1.392 . S
C932 C935 1.511 . S
C933 C929 1.376 . S
C933 C932 1.392 . S
C933 H945 0.929 . S
C934 C930 1.531 . S
C934 H946 0.960 1_655 S
C934 H947 0.962 . S
C934 H948 0.960 . S
C935 C932 1.511 . S
C935 H949 0.961 . S
C935 H950 0.961 1_655 S
C935 H951 0.961 . S
C936 C937 1.370 . S
C936 C938 1.363 . S
C936 H952 0.931 . S
C937 C936 1.370 . S
C937 C941 1.408 . S
C938 C936 1.363 . S
C938 C939 1.370 . S
C938 C942 1.524 . S
C939 C931 1.503 1_455 S
C939 C938 1.370 . S
C939 C940 1.403 . S
C940 C939 1.403 . S
C940 C941 1.404 . S
C940 C943 1.539 . S
C941 C937 1.408 . S
C941 C940 1.404 . S
C941 H953 0.930 . S
C942 C938 1.524 . S
C942 H954 0.956 . S
C942 H955 0.961 1_455 S
C942 H956 0.961 . S
C943 C940 1.539 . S
C943 H957 0.958 . S
C943 H958 0.961 . S
C943 H959 0.967 . S
H944 C928 0.931 . S
H945 C933 0.929 . S
H946 C934 0.960 1_455 S
H947 C934 0.962 . S
H948 C934 0.960 . S
H949 C935 0.961 . S
H950 C935 0.961 1_455 S
H951 C935 0.961 . S
H952 C936 0.931 . S
H953 C941 0.930 . S
H954 C942 0.956 . S
H955 C942 0.961 1_655 S
H956 C942 0.961 . S
H957 C943 0.958 . S
H958 C943 0.961 . S
H959 C943 0.967 . S
C960 C961 1.391 . S
C960 C962 1.394 . S
C960 H976 0.931 . S
C961 C960 1.391 . S
C961 C965 1.376 1_554 S
C962 C960 1.394 . S
C962 C963 1.369 . S
C962 C966 1.531 . S
C963 C962 1.369 . S
C963 C964 1.410 1_554 S
C963 C971 1.503 . S
C964 C963 1.410 1_556 S
C964 C965 1.392 . S
C964 C967 1.511 . S
C965 C961 1.376 1_556 S
C965 C964 1.392 . S
C965 H977 0.929 . S
C966 C962 1.531 . S
C966 H978 0.960 . S
C966 H979 0.962 . S
C966 H980 0.960 . S
C967 C964 1.511 . S
C967 H981 0.961 . S
C967 H982 0.961 . S
C967 H983 0.961 . S
C968 C969 1.370 . S
C968 C970 1.363 . S
C968 H984 0.931 . S
C969 C968 1.370 . S
C969 C973 1.408 1_554 S
C970 C968 1.363 . S
C970 C971 1.370 . S
C970 C974 1.524 . S
C971 C963 1.503 . S
C971 C970 1.370 . S
C971 C972 1.403 1_554 S
C972 C971 1.403 1_556 S
C972 C973 1.404 . S
C972 C975 1.539 . S
C973 C969 1.408 1_556 S
C973 C972 1.404 . S
C973 H985 0.930 . S
C974 C970 1.524 . S
C974 H986 0.956 . S
C974 H987 0.961 . S
C974 H988 0.961 . S
C975 C972 1.539 . S
C975 H989 0.958 . S
C975 H990 0.961 . S
C975 H991 0.960 . S
H976 C960 0.931 . S
H977 C965 0.929 . S
H978 C966 0.960 . S
H979 C966 0.962 . S
H980 C966 0.960 . S
H981 C967 0.961 . S
H982 C967 0.961 . S
H983 C967 0.961 . S
H984 C968 0.931 . S
H985 C973 0.930 . S
H986 C974 0.956 . S
H987 C974 0.961 . S
H988 C974 0.961 . S
H989 C975 0.958 . S
H990 C975 0.961 . S
H991 C975 0.960 . S
C992 C993 1.391 1_554 S
C992 C994 1.394 . S
C992 H1008 0.931 . S
C993 C992 1.391 1_556 S
C993 C997 1.376 . S
C994 C992 1.394 . S
C994 C995 1.369 1_554 S
C994 C998 1.531 . S
C995 C994 1.369 1_556 S
C995 C996 1.410 . S
C995 C1003 1.503 . S
C996 C995 1.410 . S
C996 C997 1.392 . S
C996 C999 1.511 . S
C997 C993 1.376 . S
C997 C996 1.392 . S
C997 H1009 0.929 . S
C998 C994 1.531 . S
C998 H1010 0.960 . S
C998 H1011 0.962 . S
C998 H1012 0.960 . S
C999 C996 1.511 . S
C999 H1013 0.961 . S
C999 H1014 0.961 . S
C999 H1015 0.961 . S
C1000 C1001 1.370 . S
C1000 C1002 1.363 . S
C1000 H1016 0.931 . S
C1001 C1000 1.370 . S
C1001 C1005 1.408 . S
C1002 C1000 1.363 . S
C1002 C1003 1.370 . S
C1002 C1006 1.524 . S
C1003 C995 1.503 . S
C1003 C1002 1.370 . S
C1003 C1004 1.403 . S
C1004 C1003 1.403 . S
C1004 C1005 1.404 . S
C1004 C1007 1.539 1_556 S
C1005 C1001 1.408 . S
C1005 C1004 1.404 . S
C1005 H1017 0.930 . S
C1006 C1002 1.524 . S
C1006 H1018 0.956 . S
C1006 H1019 0.961 . S
C1006 H1020 0.961 . S
C1007 C1004 1.539 1_554 S
C1007 H1021 0.958 . S
C1007 H1022 0.961 1_554 S
C1007 H1023 0.960 1_554 S
H1008 C992 0.931 . S
H1009 C997 0.929 . S
H1010 C998 0.960 . S
H1011 C998 0.962 . S
H1012 C998 0.960 . S
H1013 C999 0.961 . S
H1014 C999 0.961 . S
H1015 C999 0.961 . S
H1016 C1000 0.931 . S
H1017 C1005 0.930 . S
H1018 C1006 0.956 . S
H1019 C1006 0.961 . S
H1020 C1006 0.961 . S
H1021 C1007 0.958 . S
H1022 C1007 0.961 1_556 S
H1023 C1007 0.960 1_556 S
C257 C2 1.658 . S
C265 C230 1.661 . S
C289 C198 1.657 . S
C297 C38 1.666 . S
C321 C162 1.665 . S
C329 C70 1.658 . S
C353 C130 1.660 . S
C361 C98 1.660 . S
C385 N82 1.579 . S
C393 N13 1.605 . S
C417 N50 1.614 . S
C425 N109 1.609 . S
C449 N114 1.456 . S
C457 N45 1.429 . S
C481 N77 1.461 . S
C489 N18 1.416 . S
C513 N141 1.602 . S
C521 N210 1.613 . S
C545 N173 1.610 . S
C553 N242 1.594 . S
C577 N237 1.461 . S
C585 N178 1.418 . S
C609 N205 1.451 . S
C617 N146 1.409 . S
C641 C6 1.289 . S
C649 C4 1.298 . S
C673 C34 1.298 . S
C681 C61 1.289 . S
C705 C93 1.290 . S
C713 C66 1.297 . S
C737 C102 1.289 . S
C745 C100 1.298 . S
C769 C132 1.290 . S
C777 C134 1.298 . S
C801 C166 1.299 . S
C809 C164 1.289 . S
C833 C194 1.289 . S
C841 C221 1.298 . S
C865 C226 1.290 . S
C873 C253 1.297 . S
C897 C29 1.587 . S
C905 C36 1.586 . S
C929 C125 1.593 . S
C937 C68 1.586 . S
C961 C157 1.580 . S
C969 C189 1.585 . S
C993 C228 1.582 . S
C1001 C196 1.579 . S
