# Generated by pormake.
# Topology utj, (3)-cn, num edge types: 1
# Building blocks:
#     Node 0, Type 0, BuildingBlock: OLANEW_clean_sbu_2, # of connection points: 3
#     Node 1, Type 0, BuildingBlock: OLANEW_clean_sbu_2, # of connection points: 3
#     Node 2, Type 0, BuildingBlock: OLANEW_clean_sbu_2, # of connection points: 3
#     Node 3, Type 0, BuildingBlock: OLANEW_clean_sbu_2, # of connection points: 3
#     Node 4, Type 0, BuildingBlock: OLANEW_clean_sbu_2, # of connection points: 3
#     Node 5, Type 0, BuildingBlock: OLANEW_clean_sbu_2, # of connection points: 3
#     Node 6, Type 0, BuildingBlock: OLANEW_clean_sbu_2, # of connection points: 3
#     Node 7, Type 0, BuildingBlock: OLANEW_clean_sbu_2, # of connection points: 3
#     Node 8, Type 0, BuildingBlock: OLANEW_clean_sbu_2, # of connection points: 3
#     Node 9, Type 0, BuildingBlock: OLANEW_clean_sbu_2, # of connection points: 3
#     Node 10, Type 0, BuildingBlock: OLANEW_clean_sbu_2, # of connection points: 3
#     Node 11, Type 0, BuildingBlock: OLANEW_clean_sbu_2, # of connection points: 3
#     Node 12, Type 0, BuildingBlock: OLANEW_clean_sbu_2, # of connection points: 3
#     Node 13, Type 0, BuildingBlock: OLANEW_clean_sbu_2, # of connection points: 3
#     Node 14, Type 0, BuildingBlock: OLANEW_clean_sbu_2, # of connection points: 3
#     Node 15, Type 0, BuildingBlock: OLANEW_clean_sbu_2, # of connection points: 3
#     Edge 16, Type (0, 0), BuildingBlock: ZUJKAS_clean_linker_0, # of connection points: 2
#     Edge 17, Type (0, 0), BuildingBlock: ZUJKAS_clean_linker_0, # of connection points: 2
#     Edge 18, Type (0, 0), BuildingBlock: ZUJKAS_clean_linker_0, # of connection points: 2
#     Edge 19, Type (0, 0), BuildingBlock: ZUJKAS_clean_linker_0, # of connection points: 2
#     Edge 20, Type (0, 0), BuildingBlock: ZUJKAS_clean_linker_0, # of connection points: 2
#     Edge 21, Type (0, 0), BuildingBlock: ZUJKAS_clean_linker_0, # of connection points: 2
#     Edge 22, Type (0, 0), BuildingBlock: ZUJKAS_clean_linker_0, # of connection points: 2
#     Edge 23, Type (0, 0), BuildingBlock: ZUJKAS_clean_linker_0, # of connection points: 2
#     Edge 24, Type (0, 0), BuildingBlock: ZUJKAS_clean_linker_0, # of connection points: 2
#     Edge 25, Type (0, 0), BuildingBlock: ZUJKAS_clean_linker_0, # of connection points: 2
#     Edge 26, Type (0, 0), BuildingBlock: ZUJKAS_clean_linker_0, # of connection points: 2
#     Edge 27, Type (0, 0), BuildingBlock: ZUJKAS_clean_linker_0, # of connection points: 2
#     Edge 28, Type (0, 0), BuildingBlock: ZUJKAS_clean_linker_0, # of connection points: 2
#     Edge 29, Type (0, 0), BuildingBlock: ZUJKAS_clean_linker_0, # of connection points: 2
#     Edge 30, Type (0, 0), BuildingBlock: ZUJKAS_clean_linker_0, # of connection points: 2
#     Edge 31, Type (0, 0), BuildingBlock: ZUJKAS_clean_linker_0, # of connection points: 2
#     Edge 32, Type (0, 0), BuildingBlock: ZUJKAS_clean_linker_0, # of connection points: 2
#     Edge 33, Type (0, 0), BuildingBlock: ZUJKAS_clean_linker_0, # of connection points: 2
#     Edge 34, Type (0, 0), BuildingBlock: ZUJKAS_clean_linker_0, # of connection points: 2
#     Edge 35, Type (0, 0), BuildingBlock: ZUJKAS_clean_linker_0, # of connection points: 2
#     Edge 36, Type (0, 0), BuildingBlock: ZUJKAS_clean_linker_0, # of connection points: 2
#     Edge 37, Type (0, 0), BuildingBlock: ZUJKAS_clean_linker_0, # of connection points: 2
#     Edge 38, Type (0, 0), BuildingBlock: ZUJKAS_clean_linker_0, # of connection points: 2
#     Edge 39, Type (0, 0), BuildingBlock: ZUJKAS_clean_linker_0, # of connection points: 2
# Relax obj value: 0.000
# Max RMSD: 0.054
# Mean RMSD: 0.054
data_MOF--net-utj--node1-OLANEW_clean_sbu_2--edge1-ZUJKAS_clean_linker_0
_symmetry_space_group_name_H-M    P1
_symmetry_Int_Tables_number       1
_symmetry_cell_setting            triclinic
loop_
_symmetry_equiv_pos_as_xyz
'x, y, z'
_cell_length_a     80.524806
_cell_length_b     80.619425
_cell_length_c     47.69545
_cell_angle_alpha  89.862082
_cell_angle_beta   89.81941
_cell_angle_gamma 89.770148
loop_
_atom_site_label
_atom_site_type_symbol
_atom_site_fract_x
_atom_site_fract_y
_atom_site_fract_z
_atom_type_partial_charge
O0 O 0.06454 0.37539 0.08771 0.0
Cd1 Cd 0.05127 0.37494 0.04167 0.0
O2 O 0.04149 0.38203 0.10992 0.0
Cd3 Cd 0.02768 0.38795 0.07192 0.0
O4 O 0.01482 0.40692 0.0474 0.0
C5 C 0.02334 0.41698 0.03276 0.0
O6 O 0.03951 0.41484 0.03115 0.0
C7 C 0.05678 0.37805 0.11052 0.0
C8 C 0.05222 0.34281 0.02005 0.0
O9 O 0.06417 0.35297 0.01574 0.0
O10 O 0.03968 0.34793 0.03425 0.0
O11 O 0.11514 0.05742 0.59366 0.0
Cd12 Cd 0.1181 0.04857 0.54483 0.0
O13 O 0.10142 0.0351 0.60664 0.0
Cd14 Cd 0.09684 0.02568 0.56453 0.0
O15 O 0.07694 0.01618 0.53803 0.0
C16 C 0.06267 0.02231 0.54304 0.0
O17 O 0.06134 0.03401 0.56207 0.0
C18 C 0.10833 0.04876 0.61279 0.0
C19 C 0.15143 0.04784 0.5281 0.0
O20 O 0.14277 0.06117 0.52627 0.0
O21 O 0.14432 0.03482 0.53779 0.0
O22 O 0.41606 0.1212 0.08447 0.0
Cd23 Cd 0.42932 0.12436 0.03856 0.0
O24 O 0.4377 0.10829 0.10241 0.0
Cd25 Cd 0.45052 0.10362 0.06281 0.0
O26 O 0.46254 0.08412 0.03813 0.0
C27 C 0.45944 0.06947 0.04655 0.0
O28 O 0.44937 0.06751 0.06804 0.0
C29 C 0.4234 0.11479 0.10545 0.0
C30 C 0.43097 0.1578 0.02318 0.0
O31 O 0.41846 0.14887 0.01652 0.0
O32 O 0.44276 0.15088 0.03696 0.0
O33 O 0.36974 0.41658 0.57994 0.0
Cd34 Cd 0.36625 0.42967 0.53399 0.0
O35 O 0.36861 0.44052 0.60188 0.0
Cd36 Cd 0.3734 0.45459 0.56363 0.0
O37 O 0.39365 0.46613 0.54017 0.0
C38 C 0.40805 0.46185 0.54845 0.0
O39 O 0.40927 0.45104 0.56902 0.0
C40 C 0.36916 0.42475 0.6027 0.0
C41 C 0.33266 0.43148 0.51986 0.0
O42 O 0.3416 0.419 0.51264 0.0
O43 O 0.33964 0.44318 0.53357 0.0
O44 O 0.07784 0.12695 0.89409 0.0
Cd45 Cd 0.07191 0.1366 0.94168 0.0
O46 O 0.06212 0.1056 0.90354 0.0
Cd47 Cd 0.04834 0.08256 0.89676 0.0
O48 O 0.03346 0.06004 0.9008 0.0
C49 C 0.04046 0.04603 0.90426 0.0
O50 O 0.05676 0.0452 0.90427 0.0
C51 C 0.0716 0.11323 0.88648 0.0
C52 C 0.06791 0.17086 0.9465 0.0
O53 O 0.08233 0.16412 0.94773 0.0
O54 O 0.05537 0.16142 0.94252 0.0
O55 O 0.36006 0.06124 0.38561 0.0
Cd56 Cd 0.35738 0.04877 0.43221 0.0
O57 O 0.37699 0.04192 0.36955 0.0
Cd58 Cd 0.38203 0.02929 0.40918 0.0
O59 O 0.40181 0.01737 0.43339 0.0
C60 C 0.41509 0.02566 0.43633 0.0
O61 O 0.41562 0.04088 0.42643 0.0
C62 C 0.36837 0.05496 0.36554 0.0
C63 C 0.32406 0.04764 0.44885 0.0
O64 O 0.33298 0.06046 0.45353 0.0
O65 O 0.33092 0.03528 0.43646 0.0
O66 O 0.42026 0.36735 0.88784 0.0
Cd67 Cd 0.43277 0.36453 0.93428 0.0
O68 O 0.4446 0.36864 0.86692 0.0
Cd69 Cd 0.45768 0.37437 0.90567 0.0
O70 O 0.46827 0.39464 0.93006 0.0
C71 C 0.45929 0.40758 0.93229 0.0
O72 O 0.44429 0.40746 0.92151 0.0
C73 C 0.42886 0.36771 0.86544 0.0
C74 C 0.43361 0.33119 0.95043 0.0
O75 O 0.42123 0.34053 0.95674 0.0
O76 O 0.44568 0.33767 0.93672 0.0
O77 O 0.12204 0.4206 0.39261 0.0
Cd78 Cd 0.12483 0.4326 0.43936 0.0
O79 O 0.10824 0.44218 0.37641 0.0
Cd80 Cd 0.10303 0.45377 0.41677 0.0
O81 O 0.08195 0.46443 0.43953 0.0
C82 C 0.0679 0.46023 0.42976 0.0
O83 O 0.06752 0.44995 0.40842 0.0
C84 C 0.1153 0.42826 0.37226 0.0
C85 C 0.15828 0.43369 0.45461 0.0
O86 O 0.14928 0.42107 0.46052 0.0
O87 O 0.15141 0.44589 0.44177 0.0
O88 O 0.92276 0.62119 0.87165 0.0
Cd89 Cd 0.9385 0.62162 0.91538 0.0
O90 O 0.90868 0.59865 0.882 0.0
Cd91 Cd 0.92249 0.59276 0.92004 0.0
O92 O 0.93596 0.57398 0.94404 0.0
C93 C 0.95004 0.5692 0.93497 0.0
O94 O 0.95641 0.57659 0.91285 0.0
C95 C 0.91172 0.61061 0.86537 0.0
C96 C 0.94026 0.65385 0.9364 0.0
O97 O 0.95065 0.64866 0.91798 0.0
O98 O 0.9291 0.64376 0.94509 0.0
O99 O 0.86005 0.92877 0.37392 0.0
Cd100 Cd 0.85759 0.94393 0.41814 0.0
O101 O 0.87972 0.91216 0.38955 0.0
Cd102 Cd 0.88507 0.92703 0.42659 0.0
O103 O 0.90398 0.94182 0.44767 0.0
C104 C 0.91505 0.94786 0.43158 0.0
O105 O 0.91387 0.94528 0.40447 0.0
C106 C 0.86959 0.91634 0.37036 0.0
C107 C 0.82462 0.94471 0.4367 0.0
O108 O 0.83039 0.95615 0.42075 0.0
O109 O 0.83447 0.93295 0.44402 0.0
O110 O 0.5586 0.86087 0.87703 0.0
Cd111 Cd 0.54475 0.85917 0.92264 0.0
O112 O 0.56762 0.88639 0.88277 0.0
Cd113 Cd 0.55391 0.89212 0.92112 0.0
O114 O 0.5407 0.91185 0.9435 0.0
C115 C 0.54281 0.92628 0.93328 0.0
O116 O 0.55256 0.92795 0.91132 0.0
C117 C 0.56693 0.87321 0.86824 0.0
C118 C 0.54378 0.82621 0.94098 0.0
O119 O 0.532 0.83236 0.92616 0.0
O120 O 0.55592 0.8357 0.9474 0.0
O121 O 0.61981 0.56529 0.38398 0.0
Cd122 Cd 0.62209 0.55266 0.43048 0.0
O123 O 0.59445 0.55595 0.37739 0.0
Cd124 Cd 0.59004 0.54376 0.4176 0.0
O125 O 0.5701 0.53223 0.44187 0.0
C126 C 0.55561 0.53592 0.43329 0.0
O127 O 0.55413 0.54622 0.41204 0.0
C128 C 0.60703 0.56392 0.36858 0.0
C129 C 0.6553 0.54913 0.44633 0.0
O130 O 0.6478 0.53757 0.43306 0.0
O131 O 0.64706 0.56231 0.45222 0.0
O132 O 0.9253 0.85942 0.08954 0.0
Cd133 Cd 0.94128 0.85681 0.04611 0.0
O134 O 0.91058 0.88097 0.07573 0.0
Cd135 Cd 0.92477 0.88477 0.03714 0.0
O136 O 0.93988 0.90066 0.01008 0.0
C137 C 0.93939 0.91597 0.01639 0.0
O138 O 0.92994 0.92067 0.03746 0.0
C139 C 0.9139 0.87003 0.09416 0.0
C140 C 0.94184 0.82388 0.02818 0.0
O141 O 0.95234 0.82917 0.04617 0.0
O142 O 0.93115 0.8342 0.01846 0.0
O143 O 0.61816 0.9232 0.58399 0.0
Cd144 Cd 0.61992 0.938 0.53925 0.0
O145 O 0.59853 0.9063 0.56981 0.0
Cd146 Cd 0.59242 0.92083 0.53254 0.0
O147 O 0.57334 0.93578 0.51176 0.0
C148 C 0.56651 0.94704 0.52648 0.0
O149 O 0.57196 0.94956 0.55205 0.0
C150 C 0.60887 0.91073 0.5884 0.0
C151 C 0.65292 0.94033 0.52131 0.0
O152 O 0.64632 0.95166 0.53657 0.0
O153 O 0.64388 0.92797 0.51437 0.0
O154 O 0.56839 0.61763 0.07766 0.0
Cd155 Cd 0.55392 0.62022 0.03284 0.0
O156 O 0.57035 0.5904 0.0756 0.0
Cd157 Cd 0.55624 0.58607 0.03734 0.0
O158 O 0.54185 0.56744 0.01479 0.0
C159 C 0.5301 0.5606 0.02835 0.0
O160 O 0.52673 0.56586 0.05381 0.0
C161 C 0.57331 0.60397 0.08815 0.0
C162 C 0.5508 0.65351 0.01703 0.0
O163 O 0.53957 0.64639 0.03183 0.0
O164 O 0.56345 0.64486 0.00957 0.0
O165 O 0.86229 0.55576 0.58499 0.0
Cd166 Cd 0.86056 0.53994 0.54143 0.0
O167 O 0.88135 0.57284 0.56901 0.0
Cd168 Cd 0.88743 0.55762 0.53261 0.0
O169 O 0.90662 0.54262 0.51222 0.0
C170 C 0.91613 0.5346 0.52867 0.0
O171 O 0.91325 0.53531 0.55578 0.0
C172 C 0.87127 0.56854 0.58824 0.0
C173 C 0.82771 0.53922 0.52284 0.0
O174 O 0.83337 0.52796 0.53927 0.0
O175 O 0.83765 0.55071 0.5149 0.0
H176 H 0.08988 0.37196 0.11979 0.0
H177 H 0.10492 0.3747 0.16408 0.0
H178 H 0.05909 0.38694 0.20641 0.0
H179 H 0.04397 0.38395 0.16262 0.0
H180 H 0.10751 0.40288 0.19384 0.0
H181 H 0.07954 0.35477 0.26129 0.0
H182 H 0.07716 0.3548 0.22365 0.0
H183 H 0.06374 0.36733 0.24536 0.0
C184 C 0.08295 0.37491 0.13865 0.0
C185 C 0.06571 0.37777 0.13764 0.0
C186 C 0.09158 0.37647 0.16393 0.0
C187 C 0.08311 0.38079 0.18864 0.0
C188 C 0.06585 0.38317 0.18779 0.0
H189 H 0.10337 0.4422 0.32422 0.0
H190 H 0.09928 0.42891 0.27904 0.0
C191 C 0.05722 0.38159 0.16262 0.0
C192 C 0.09233 0.38462 0.21468 0.0
H193 H 0.0913 0.37852 0.28546 0.0
C194 C 0.10424 0.39728 0.2138 0.0
C195 C 0.08834 0.37713 0.24068 0.0
C196 C 0.07662 0.36262 0.24276 0.0
C197 C 0.11129 0.40352 0.23846 0.0
C198 C 0.10604 0.39713 0.26465 0.0
C199 C 0.09513 0.38359 0.26539 0.0
C200 C 0.1102 0.40544 0.29139 0.0
C201 C 0.12393 0.41722 0.23625 0.0
C202 C 0.11756 0.39661 0.31354 0.0
C203 C 0.11984 0.40418 0.33963 0.0
C204 C 0.1146 0.42065 0.34405 0.0
C205 C 0.10759 0.42953 0.32158 0.0
C206 C 0.10536 0.42198 0.2956 0.0
H207 H 0.13082 0.41656 0.21606 0.0
H208 H 0.11745 0.42939 0.237 0.0
H209 H 0.13299 0.41666 0.25374 0.0
H210 H 0.12125 0.38378 0.31078 0.0
H211 H 0.12523 0.39698 0.35653 0.0
H212 H 0.11536 0.07999 0.63186 0.0
H213 H 0.11048 0.09097 0.67894 0.0
H214 H 0.0941 0.04275 0.70667 0.0
H215 H 0.09854 0.03178 0.65957 0.0
H216 H 0.07232 0.06684 0.7208 0.0
H217 H 0.13584 0.08586 0.7514 0.0
H218 H 0.12915 0.09466 0.71872 0.0
H219 H 0.13194 0.07258 0.72175 0.0
C220 C 0.11098 0.07165 0.64809 0.0
C221 C 0.10731 0.05501 0.64193 0.0
C222 C 0.10827 0.07794 0.67505 0.0
C223 C 0.1021 0.06763 0.69643 0.0
C224 C 0.09889 0.05091 0.69051 0.0
H225 H 0.07277 0.08064 0.87011 0.0
H226 H 0.07951 0.06979 0.82365 0.0
C227 C 0.10146 0.04466 0.66356 0.0
C228 C 0.09783 0.07448 0.7244 0.0
H229 H 0.11367 0.09508 0.78076 0.0
C230 C 0.0814 0.07291 0.73398 0.0
C231 C 0.10967 0.08247 0.74153 0.0
C232 C 0.12767 0.08387 0.73298 0.0
C233 C 0.07643 0.07926 0.76006 0.0
C234 C 0.08825 0.08728 0.77709 0.0
C235 C 0.10466 0.08894 0.76755 0.0
C236 C 0.08379 0.09389 0.80503 0.0
C237 C 0.05854 0.07758 0.76906 0.0
C238 C 0.08417 0.11102 0.81 0.0
C239 C 0.08001 0.11728 0.83643 0.0
C240 C 0.07545 0.1065 0.85835 0.0
C241 C 0.0754 0.08932 0.8534 0.0
C242 C 0.07947 0.08308 0.82693 0.0
H243 H 0.05035 0.07422 0.75127 0.0
H244 H 0.05756 0.0677 0.78522 0.0
H245 H 0.05393 0.08933 0.77847 0.0
H246 H 0.08759 0.11954 0.79337 0.0
H247 H 0.08033 0.13057 0.83968 0.0
H248 H 0.35698 0.08603 0.35148 0.0
H249 H 0.36069 0.10052 0.30662 0.0
H250 H 0.38513 0.05734 0.27252 0.0
H251 H 0.38146 0.0428 0.31693 0.0
H252 H 0.39163 0.10711 0.28174 0.0
H253 H 0.35229 0.07024 0.21058 0.0
H254 H 0.34995 0.06962 0.24826 0.0
H255 H 0.36582 0.05744 0.23129 0.0
C256 C 0.36288 0.07953 0.33426 0.0
C257 C 0.36895 0.06326 0.3378 0.0
C258 C 0.36501 0.08784 0.30869 0.0
C259 C 0.37299 0.07993 0.28617 0.0
C260 C 0.37864 0.06356 0.28944 0.0
H261 H 0.43694 0.10532 0.15534 0.0
H262 H 0.42258 0.10039 0.1996 0.0
C263 C 0.37663 0.0553 0.31495 0.0
C264 C 0.37685 0.08905 0.25998 0.0
H265 H 0.37455 0.08568 0.18882 0.0
C266 C 0.38762 0.10267 0.26142 0.0
C267 C 0.37142 0.08341 0.23352 0.0
C268 C 0.35909 0.06948 0.23078 0.0
C269 C 0.39404 0.11002 0.237 0.0
C270 C 0.38972 0.10343 0.21058 0.0
C271 C 0.378 0.09062 0.20912 0.0
C272 C 0.3985 0.10833 0.18453 0.0
C273 C 0.40579 0.12444 0.23973 0.0
C274 C 0.38971 0.11439 0.16127 0.0
C275 C 0.39791 0.11721 0.13577 0.0
C276 C 0.41499 0.11376 0.13306 0.0
C277 C 0.42379 0.10811 0.15667 0.0
C278 C 0.41562 0.1054 0.18209 0.0
H279 H 0.40357 0.13134 0.25955 0.0
H280 H 0.41875 0.11971 0.24011 0.0
H281 H 0.40453 0.13317 0.22181 0.0
H282 H 0.37645 0.11659 0.16268 0.0
H283 H 0.39076 0.12151 0.11797 0.0
H284 H 0.39591 0.37305 0.85441 0.0
H285 H 0.38334 0.37895 0.80887 0.0
H286 H 0.43057 0.37047 0.76833 0.0
H287 H 0.44331 0.36493 0.81379 0.0
H288 H 0.41756 0.40017 0.75505 0.0
H289 H 0.36961 0.35175 0.74139 0.0
H290 H 0.36799 0.3625 0.7742 0.0
H291 H 0.38603 0.34998 0.76695 0.0
C292 C 0.40355 0.37208 0.83575 0.0
C293 C 0.42065 0.36865 0.83775 0.0
C294 C 0.39631 0.37537 0.80968 0.0
C295 C 0.40598 0.37503 0.78516 0.0
C296 C 0.42287 0.37078 0.78699 0.0
H297 H 0.37658 0.39203 0.61227 0.0
H298 H 0.38406 0.37922 0.6571 0.0
C299 C 0.43013 0.36763 0.81301 0.0
C300 C 0.39909 0.381 0.75814 0.0
H301 H 0.36802 0.37518 0.71055 0.0
C302 C 0.40679 0.39462 0.74525 0.0
C303 C 0.38509 0.37369 0.74531 0.0
C304 C 0.37678 0.35857 0.75751 0.0
C305 C 0.4008 0.40129 0.7201 0.0
C306 C 0.38644 0.3944 0.70779 0.0
C307 C 0.37888 0.38058 0.72031 0.0
C308 C 0.37947 0.40133 0.68156 0.0
C309 C 0.41004 0.41554 0.70673 0.0
C310 C 0.37377 0.41778 0.68071 0.0
C311 C 0.3696 0.42517 0.65517 0.0
C312 C 0.37091 0.41618 0.63003 0.0
C313 C 0.3755 0.39933 0.63122 0.0
C314 C 0.37976 0.39197 0.65681 0.0
H315 H 0.4229 0.41659 0.71491 0.0
H316 H 0.41065 0.41411 0.6836 0.0
H317 H 0.40342 0.42732 0.71144 0.0
H318 H 0.37317 0.42511 0.6997 0.0
H319 H 0.36592 0.43811 0.65504 0.0
H320 H 0.8883 0.58944 0.84482 0.0
H321 H 0.87815 0.5878 0.79673 0.0
H322 H 0.90629 0.63135 0.77481 0.0
H323 H 0.91673 0.63302 0.82286 0.0
H324 H 0.86138 0.61054 0.75929 0.0
H325 H 0.92541 0.59409 0.72444 0.0
H326 H 0.91934 0.594 0.76088 0.0
H327 H 0.92325 0.61329 0.74319 0.0
C328 C 0.89217 0.59884 0.82993 0.0
C329 C 0.90355 0.61122 0.8376 0.0
C330 C 0.8863 0.5979 0.80246 0.0
C331 C 0.8917 0.60929 0.78218 0.0
C332 C 0.90219 0.6223 0.79013 0.0
H333 H 0.88715 0.59749 0.60092 0.0
H334 H 0.89005 0.61022 0.64706 0.0
C335 C 0.9081 0.62325 0.81761 0.0
C336 C 0.88752 0.60656 0.75235 0.0
H337 H 0.90466 0.59448 0.69016 0.0
C338 C 0.87083 0.60718 0.74405 0.0
C339 C 0.8999 0.60215 0.73261 0.0
C340 C 0.91798 0.60069 0.74063 0.0
C341 C 0.86616 0.60335 0.71645 0.0
C342 C 0.8785 0.59847 0.69693 0.0
C343 C 0.89523 0.5983 0.70512 0.0
C344 C 0.87445 0.5924 0.66845 0.0
C345 C 0.84808 0.60455 0.7085 0.0
C346 C 0.86446 0.57832 0.66504 0.0
C347 C 0.8627 0.57105 0.63865 0.0
C348 C 0.87111 0.57759 0.61524 0.0
C349 C 0.88056 0.59209 0.61852 0.0
C350 C 0.88222 0.5994 0.64487 0.0
H351 H 0.84129 0.61341 0.72222 0.0
H352 H 0.84659 0.60852 0.68634 0.0
H353 H 0.84224 0.59219 0.71108 0.0
H354 H 0.85867 0.57246 0.68301 0.0
H355 H 0.85539 0.55985 0.63689 0.0
H356 H 0.91986 0.85043 0.14002 0.0
H357 H 0.90867 0.85391 0.18737 0.0
H358 H 0.87818 0.89457 0.15865 0.0
H359 H 0.88916 0.89115 0.11122 0.0
H360 H 0.91302 0.88343 0.21691 0.0
H361 H 0.84612 0.86812 0.20876 0.0
H362 H 0.86126 0.86157 0.18298 0.0
H363 H 0.85336 0.88245 0.18258 0.0
C364 C 0.91051 0.8599 0.14361 0.0
C365 C 0.90548 0.87058 0.12183 0.0
C366 C 0.90413 0.86185 0.17069 0.0
C367 C 0.89249 0.87439 0.17646 0.0
C368 C 0.88691 0.88461 0.15455 0.0
H369 H 0.8551 0.92587 0.32098 0.0
H370 H 0.85968 0.91379 0.27457 0.0
C371 C 0.89331 0.8827 0.12747 0.0
C372 C 0.88772 0.8781 0.20581 0.0
H373 H 0.85455 0.88264 0.24997 0.0
C374 C 0.90027 0.88304 0.22429 0.0
C375 C 0.87106 0.87773 0.21521 0.0
C376 C 0.85717 0.87204 0.19644 0.0
C377 C 0.89657 0.88815 0.25168 0.0
C378 C 0.87988 0.88791 0.26108 0.0
C379 C 0.86733 0.88274 0.24274 0.0
C380 C 0.87528 0.89375 0.28952 0.0
C381 C 0.91052 0.8944 0.26987 0.0
C382 C 0.88198 0.88608 0.3134 0.0
C383 C 0.87953 0.89303 0.3399 0.0
C384 C 0.87012 0.90766 0.34304 0.0
C385 C 0.86247 0.91464 0.31929 0.0
C386 C 0.86506 0.90775 0.29274 0.0
H387 H 0.92171 0.8976 0.25733 0.0
H388 H 0.90659 0.90554 0.28187 0.0
H389 H 0.91409 0.88459 0.28507 0.0
H390 H 0.88959 0.87504 0.31143 0.0
H391 H 0.88542 0.88721 0.3578 0.0
H392 H 0.62388 0.92094 0.63672 0.0
H393 H 0.62027 0.90937 0.68365 0.0
H394 H 0.59043 0.86993 0.64976 0.0
H395 H 0.59359 0.88169 0.6028 0.0
H396 H 0.5748 0.88543 0.69113 0.0
H397 H 0.63841 0.87047 0.72663 0.0
H398 H 0.63681 0.89145 0.71432 0.0
H399 H 0.63358 0.87455 0.69031 0.0
C400 C 0.61685 0.9096 0.63913 0.0
C401 C 0.60893 0.9023 0.61602 0.0
C402 C 0.6149 0.90291 0.66601 0.0
C403 C 0.60525 0.88865 0.67023 0.0
C404 C 0.59799 0.8809 0.64699 0.0
H405 H 0.56436 0.8492 0.82782 0.0
H406 H 0.57492 0.85041 0.77963 0.0
C407 C 0.5998 0.88766 0.62016 0.0
C408 C 0.60103 0.88309 0.69906 0.0
H409 H 0.6177 0.87376 0.76301 0.0
C410 C 0.58418 0.88255 0.70669 0.0
C411 C 0.61327 0.87939 0.7194 0.0
C412 C 0.63152 0.87883 0.71217 0.0
C413 C 0.57926 0.87918 0.73433 0.0
C414 C 0.59152 0.87609 0.75485 0.0
C415 C 0.60835 0.87614 0.74716 0.0
C416 C 0.58701 0.87412 0.78475 0.0
C417 C 0.56102 0.87969 0.74168 0.0
C418 C 0.59082 0.88678 0.80373 0.0
C419 C 0.5848 0.88616 0.83119 0.0
C420 C 0.57492 0.8728 0.84022 0.0
C421 C 0.57186 0.8597 0.82152 0.0
C422 C 0.57785 0.86037 0.79397 0.0
H423 H 0.55336 0.88482 0.72435 0.0
H424 H 0.55665 0.86692 0.74625 0.0
H425 H 0.55889 0.88731 0.76073 0.0
H426 H 0.59789 0.89747 0.79696 0.0
H427 H 0.5875 0.8964 0.84508 0.0
H428 H 0.63075 0.58318 0.3427 0.0
H429 H 0.62935 0.5957 0.29577 0.0
H430 H 0.58104 0.57402 0.28361 0.0
H431 H 0.58216 0.56179 0.3302 0.0
H432 H 0.62634 0.58056 0.24445 0.0
H433 H 0.57266 0.62202 0.26229 0.0
H434 H 0.58401 0.61252 0.29075 0.0
H435 H 0.56796 0.60121 0.27289 0.0
C436 C 0.61979 0.58119 0.33007 0.0
C437 C 0.60653 0.57156 0.3403 0.0
C438 C 0.61901 0.58835 0.3033 0.0
C439 C 0.60492 0.5861 0.28648 0.0
C440 C 0.59182 0.57633 0.29654 0.0
H441 H 0.58469 0.57675 0.11634 0.0
H442 H 0.59556 0.57545 0.16376 0.0
C443 C 0.59256 0.56923 0.32316 0.0
C444 C 0.60401 0.59312 0.25778 0.0
H445 H 0.57758 0.61377 0.21408 0.0
C446 C 0.61588 0.58813 0.23787 0.0
C447 C 0.59061 0.60334 0.2493 0.0
C448 C 0.5782 0.61023 0.27004 0.0
C449 C 0.61394 0.59197 0.20934 0.0
C450 C 0.59958 0.60071 0.20051 0.0
C451 C 0.58846 0.60685 0.22073 0.0
C452 C 0.59484 0.60199 0.17055 0.0
C453 C 0.62708 0.58627 0.18889 0.0
C454 C 0.59055 0.61735 0.15857 0.0
C455 C 0.58407 0.61814 0.13138 0.0
C456 C 0.58166 0.60354 0.1158 0.0
C457 C 0.58641 0.58826 0.12764 0.0
C458 C 0.59281 0.58749 0.15474 0.0
H459 H 0.63947 0.58574 0.19904 0.0
H460 H 0.62407 0.57357 0.18163 0.0
H461 H 0.62781 0.59459 0.17034 0.0
H462 H 0.59186 0.62869 0.1705 0.0
H463 H 0.58053 0.6301 0.12291 0.0
H464 H 0.02796 0.31912 0.02183 0.0
H465 H 0.03009 0.29016 0.00666 0.0
H466 H 0.08057 0.29841 0.97993 0.0
H467 H 0.07858 0.32738 -0.00516 0.0
H468 H 0.04132 0.27733 0.94865 0.0
H469 H 0.08053 0.25844 0.03933 0.0
H470 H 0.06726 0.27657 0.04019 0.0
H471 H 0.08638 0.27702 0.0208 0.0
C472 C 0.03949 0.31481 0.01258 0.0
C473 C 0.05313 0.32554 0.00965 0.0
C474 C 0.04066 0.29828 0.00389 0.0
C475 C 0.05552 0.29219 -0.0076 0.0
C476 C 0.06904 0.30291 -0.01106 0.0
H477 H 0.09213 0.19441 0.94956 0.0
H478 H 0.08868 0.22406 0.95861 0.0
C479 C 0.06786 0.31945 -0.00257 0.0
C480 C 0.05708 0.27451 -0.01531 0.0
H481 H 0.07565 0.23829 0.00468 0.0
C482 C 0.04878 0.26873 0.96086 0.0
C483 C 0.06687 0.26344 0.00069 0.0
C484 C 0.07572 0.26906 0.02681 0.0
C485 C 0.05027 0.25213 0.95226 0.0
C486 C 0.06 0.24099 0.96838 0.0
C487 C 0.06823 0.24683 -0.0077 0.0
C488 C 0.06185 0.2232 0.961 0.0
C489 C 0.04177 0.24681 0.92562 0.0
C490 C 0.04791 0.21285 0.95929 0.0
C491 C 0.04984 0.1959 0.95387 0.0
C492 C 0.06577 0.18896 0.95049 0.0
C493 C 0.07969 0.19937 0.95207 0.0
C494 C 0.07774 0.21632 0.95726 0.0
H495 H 0.03907 0.25756 0.91173 0.0
H496 H 0.04947 0.23773 0.91383 0.0
H497 H 0.02977 0.24084 0.93099 0.0
H498 H 0.03556 0.21778 0.9628 0.0
H499 H 0.03887 0.18819 0.95301 0.0
H500 H 0.30504 0.07316 0.46899 0.0
H501 H 0.27562 0.0725 0.48214 0.0
H502 H 0.27352 0.02061 0.46101 0.0
H503 H 0.30292 0.02114 0.44754 0.0
H504 H 0.24748 0.05863 0.44231 0.0
H505 H 0.25521 0.02807 0.54642 0.0
H506 H 0.27151 0.04033 0.53064 0.0
H507 H 0.26686 0.02022 0.51692 0.0
C508 C 0.29835 0.06159 0.46719 0.0
C509 C 0.30633 0.04719 0.45724 0.0
C510 C 0.28155 0.06125 0.47467 0.0
C511 C 0.2725 0.04649 0.47263 0.0
C512 C 0.28038 0.03209 0.46283 0.0
H513 H 0.1719 0.02082 0.52309 0.0
H514 H 0.20104 0.02036 0.50841 0.0
C515 C 0.29716 0.03243 0.45512 0.0
C516 C 0.2547 0.04624 0.48037 0.0
H517 H 0.22792 0.03418 0.53203 0.0
C518 C 0.24315 0.0533 0.46191 0.0
C519 C 0.24918 0.03914 0.50581 0.0
C520 C 0.26126 0.03153 0.52629 0.0
C521 C 0.22609 0.05336 0.46816 0.0
C522 C 0.22054 0.04659 0.49397 0.0
C523 C 0.23216 0.0394 0.51231 0.0
C524 C 0.20277 0.04693 0.50246 0.0
C525 C 0.21418 0.06033 0.44675 0.0
C526 C 0.19408 0.06202 0.50433 0.0
C527 C 0.17738 0.0623 0.51246 0.0
C528 C 0.1691 0.04751 0.51933 0.0
C529 C 0.1779 0.03243 0.51789 0.0
C530 C 0.19456 0.03215 0.50952 0.0
H531 H 0.21965 0.0602 0.42534 0.0
H532 H 0.20239 0.05323 0.44643 0.0
H533 H 0.21126 0.07341 0.45211 0.0
H534 H 0.20025 0.07363 0.49975 0.0
H535 H 0.17101 0.07414 0.51362 0.0
H536 H 0.45748 0.30799 0.93839 0.0
H537 H 0.45747 0.2785 0.95076 0.0
H538 H 0.4103 0.28463 -0.00743 0.0
H539 H 0.41025 0.31415 0.98052 0.0
H540 H 0.43391 0.26629 0.02368 0.0
H541 H 0.42785 0.24279 0.91479 0.0
H542 H 0.44475 0.25692 0.92018 0.0
H543 H 0.42372 0.26413 0.92403 0.0
C544 C 0.4471 0.30308 0.95023 0.0
C545 C 0.43383 0.31341 0.95837 0.0
C546 C 0.44708 0.2862 0.95714 0.0
C547 C 0.43377 0.27935 0.97223 0.0
C548 C 0.42065 0.28968 0.9808 0.0
H549 H 0.40791 0.17589 -0.00589 0.0
H550 H 0.40885 0.20542 0.98225 0.0
C551 C 0.42064 0.30654 0.97385 0.0
C552 C 0.43356 0.26144 0.97933 0.0
H553 H 0.43249 0.22276 0.95037 0.0
C554 C 0.4336 0.25676 0.00768 0.0
C555 C 0.43296 0.24906 0.95839 0.0
C556 C 0.43217 0.25341 0.92763 0.0
C557 C 0.43323 0.23998 0.01568 0.0
C558 C 0.43302 0.22759 -0.00527 0.0
C559 C 0.4328 0.23229 0.96638 0.0
C560 C 0.43265 0.20968 0.00182 0.0
C561 C 0.43273 0.23568 0.04648 0.0
C562 C 0.44583 0.20224 0.01642 0.0
C563 C 0.44534 0.18537 0.02326 0.0
C564 C 0.43167 0.1756 0.01548 0.0
C565 C 0.4186 0.18306 0.00049 0.0
C566 C 0.41911 0.19992 -0.00634 0.0
H567 H 0.42891 0.24646 0.05949 0.0
H568 H 0.42402 0.2253 0.05055 0.0
H569 H 0.4453 0.23172 0.05331 0.0
H570 H 0.45654 0.20948 0.02245 0.0
H571 H 0.45565 0.18 0.03469 0.0
H572 H 0.31013 0.45549 0.53444 0.0
H573 H 0.28045 0.45638 0.52356 0.0
H574 H 0.28497 0.41018 0.4788 0.0
H575 H 0.31467 0.4092 0.4894 0.0
H576 H 0.26677 0.43513 0.44997 0.0
H577 H 0.24455 0.42648 0.55944 0.0
H578 H 0.25907 0.44311 0.55448 0.0
H579 H 0.26565 0.42206 0.54884 0.0
C580 C 0.30482 0.44551 0.52228 0.0
C581 C 0.31476 0.43223 0.51289 0.0
C582 C 0.28785 0.44601 0.51621 0.0
C583 C 0.2805 0.43323 0.50071 0.0
C584 C 0.29041 0.42011 0.49091 0.0
H585 H 0.17634 0.40968 0.48148 0.0
H586 H 0.20602 0.40993 0.4923 0.0
C587 C 0.30737 0.41958 0.49703 0.0
C588 C 0.26248 0.43359 0.49446 0.0
H589 H 0.22413 0.43237 0.52515 0.0
C590 C 0.25743 0.43454 0.46638 0.0
C591 C 0.25036 0.43261 0.51593 0.0
C592 C 0.25511 0.43086 0.54637 0.0
C593 C 0.24054 0.4347 0.45916 0.0
C594 C 0.22841 0.4341 0.48066 0.0
C595 C 0.23347 0.43298 0.50874 0.0
C596 C 0.21039 0.43421 0.4744 0.0
C597 C 0.23582 0.43519 0.42858 0.0
C598 C 0.20296 0.44789 0.46113 0.0
C599 C 0.18601 0.4478 0.45489 0.0
C600 C 0.17614 0.43403 0.46195 0.0
C601 C 0.18358 0.42046 0.47569 0.0
C602 C 0.20053 0.42058 0.48192 0.0
H603 H 0.24638 0.43162 0.41478 0.0
H604 H 0.22524 0.42677 0.42436 0.0
H605 H 0.23195 0.44798 0.42289 0.0
H606 H 0.21029 0.45866 0.45562 0.0
H607 H 0.18065 0.45848 0.44443 0.0
H608 H 0.92628 0.81034 0.98288 0.0
H609 H 0.92639 0.7813 0.96827 0.0
H610 H 0.95721 0.76862 0.03906 0.0
H611 H 0.9577 0.79776 0.05312 0.0
H612 H 0.96804 0.75342 -0.00609 0.0
H613 H 0.90012 0.74409 0.00115 0.0
H614 H 0.90534 0.76069 0.97771 0.0
H615 H 0.9101 0.76242 0.01447 0.0
C616 C 0.93305 0.80136 -0.00464 0.0
C617 C 0.94192 0.80632 0.01923 0.0
C618 C 0.933 0.78473 -0.01289 0.0
C619 C 0.94148 0.77268 0.00292 0.0
C620 C 0.95049 0.77766 0.0266 0.0
H621 H 0.92492 0.66661 0.98282 0.0
H622 H 0.92603 0.69513 0.0001 0.0
C623 C 0.95076 0.79432 0.03462 0.0
C624 C 0.94132 0.75495 -0.00555 0.0
H625 H 0.91558 0.72294 0.97766 0.0
C626 C 0.95656 0.74673 -0.00945 0.0
C627 C 0.92636 0.74609 -0.00945 0.0
C628 C 0.90957 0.75373 -0.00351 0.0
C629 C 0.95726 0.73002 0.98237 0.0
C630 C 0.9423 0.72143 0.977 0.0
C631 C 0.92706 0.72956 0.98142 0.0
C632 C 0.94212 0.70401 0.96688 0.0
C633 C 0.97404 0.7217 0.98017 0.0
C634 C 0.95069 0.69949 0.94235 0.0
C635 C 0.95029 0.68314 0.9327 0.0
C636 C 0.94099 0.67106 0.94703 0.0
C637 C 0.9322 0.67564 0.97133 0.0
C638 C 0.93281 0.69194 0.98121 0.0
H639 H 0.98339 0.72799 -0.00653 0.0
H640 H 0.97341 0.70845 -0.0135 0.0
H641 H 0.97846 0.72237 0.95814 0.0
H642 H 0.95753 0.70865 0.93042 0.0
H643 H 0.95703 0.68004 0.91372 0.0
H644 H 0.67508 0.96516 0.53207 0.0
H645 H 0.70415 0.96679 0.51726 0.0
H646 H 0.69974 0.91954 0.47581 0.0
H647 H 0.67061 0.9179 0.49017 0.0
H648 H 0.73013 0.94528 0.52931 0.0
H649 H 0.71954 0.94906 0.4146 0.0
H650 H 0.70314 0.95227 0.43993 0.0
H651 H 0.70973 0.9316 0.43108 0.0
C652 C 0.68026 0.95515 0.51966 0.0
C653 C 0.67049 0.94143 0.51217 0.0
C654 C 0.69688 0.95609 0.51126 0.0
C655 C 0.70404 0.9434 0.4951 0.0
C656 C 0.69437 0.92964 0.48777 0.0
H657 H 0.80869 0.92204 0.46992 0.0
H658 H 0.77956 0.92224 0.48462 0.0
C659 C 0.67774 0.92868 0.49613 0.0
C660 C 0.72174 0.94436 0.48653 0.0
H661 H 0.7474 0.94459 0.42938 0.0
C662 C 0.73392 0.9452 0.50747 0.0
C663 C 0.72663 0.94448 0.45801 0.0
C664 C 0.71409 0.94446 0.43457 0.0
C665 C 0.75089 0.94581 0.50067 0.0
C666 C 0.7558 0.9453 0.47217 0.0
C667 C 0.74361 0.94481 0.45122 0.0
C668 C 0.77353 0.9453 0.46361 0.0
C669 C 0.76339 0.9472 0.52403 0.0
C670 C 0.77973 0.95801 0.44643 0.0
C671 C 0.79635 0.95789 0.43784 0.0
C672 C 0.80707 0.94498 0.44615 0.0
C673 C 0.8008 0.93222 0.46328 0.0
C674 C 0.78417 0.93235 0.47184 0.0
H675 H 0.7576 0.95189 0.54366 0.0
H676 H 0.76871 0.93476 0.52847 0.0
H677 H 0.77372 0.9556 0.51804 0.0
H678 H 0.7717 0.96808 0.43973 0.0
H679 H 0.80077 0.96789 0.42461 0.0
H680 H 0.52559 0.6751 0.02984 0.0
H681 H 0.52324 0.70438 0.01672 0.0
H682 H 0.57026 0.70137 0.97349 0.0
H683 H 0.57264 0.67205 -0.0138 0.0
H684 H 0.54465 0.7304 0.02947 0.0
H685 H 0.53947 0.72183 0.91445 0.0
H686 H 0.53673 0.70501 0.93908 0.0
H687 H 0.55725 0.71181 0.92967 0.0
C688 C 0.5354 0.68063 0.01741 0.0
C689 C 0.54927 0.67121 0.00895 0.0
C690 C 0.53404 0.69737 0.00997 0.0
C691 C 0.54646 0.70498 -0.0062 0.0
C692 C 0.56037 0.69565 -0.0145 0.0
H693 H 0.56688 0.80964 0.97245 0.0
H694 H 0.56683 0.78037 -0.01401 0.0
C695 C 0.56175 0.67892 -0.00708 0.0
C696 C 0.54508 0.72279 -0.01377 0.0
H697 H 0.54376 0.74941 0.93048 0.0
C698 C 0.54437 0.73457 0.00784 0.0
C699 C 0.5445 0.72817 0.958 0.0
C700 C 0.54437 0.71606 0.93394 0.0
C701 C 0.54349 0.75163 0.00195 0.0
C702 C 0.54356 0.75703 0.97371 0.0
C703 C 0.54387 0.74524 0.95211 0.0
C704 C 0.54338 0.77488 0.96608 0.0
C705 C 0.54233 0.7637 0.02601 0.0
C706 C 0.53036 0.78145 0.94997 0.0
C707 C 0.53039 0.79817 0.94207 0.0
C708 C 0.54351 0.80861 0.95 0.0
C709 C 0.55654 0.80197 0.96613 0.0
C710 C 0.5565 0.78526 0.97402 0.0
H711 H 0.538 0.75756 0.04557 0.0
H712 H 0.5548 0.76897 0.03005 0.0
H713 H 0.53374 0.77409 0.02098 0.0
H714 H 0.52017 0.77362 0.9435 0.0
H715 H 0.52018 0.80286 0.92959 0.0
H716 H 0.67603 0.52275 0.43673 0.0
H717 H 0.70524 0.51995 0.45 0.0
H718 H 0.70385 0.5687 0.48695 0.0
H719 H 0.67461 0.57154 0.47409 0.0
H720 H 0.73204 0.53981 0.43439 0.0
H721 H 0.72316 0.53981 0.54981 0.0
H722 H 0.70626 0.53665 0.52564 0.0
H723 H 0.71379 0.55722 0.53232 0.0
C724 C 0.6819 0.53285 0.44781 0.0
C725 C 0.67296 0.54734 0.45447 0.0
C726 C 0.6986 0.53123 0.45534 0.0
C727 C 0.70664 0.54401 0.4698 0.0
C728 C 0.69779 0.55854 0.4763 0.0
H729 H 0.81207 0.56145 0.48834 0.0
H730 H 0.7828 0.56187 0.47479 0.0
C731 C 0.6811 0.56018 0.46879 0.0
C732 C 0.7244 0.54233 0.47748 0.0
H733 H 0.75093 0.54238 0.53319 0.0
C734 C 0.73618 0.54029 0.456 0.0
C735 C 0.72973 0.54274 0.5057 0.0
C736 C 0.71758 0.54407 0.52975 0.0
C737 C 0.75321 0.53903 0.46193 0.0
C738 C 0.75859 0.54008 0.49008 0.0
C739 C 0.74678 0.54174 0.51161 0.0
C740 C 0.77642 0.53957 0.49767 0.0
C741 C 0.76527 0.53643 0.43807 0.0
C742 C 0.78249 0.52704 0.51542 0.0
C743 C 0.7992 0.5268 0.52332 0.0
C744 C 0.81013 0.53916 0.51375 0.0
C745 C 0.804 0.55169 0.49596 0.0
C746 C 0.7873 0.55191 0.48806 0.0
H747 H 0.75899 0.53153 0.41912 0.0
H748 H 0.77102 0.54847 0.43243 0.0
H749 H 0.77534 0.5277 0.44417 0.0
H750 H 0.77427 0.51745 0.52317 0.0
H751 H 0.8035 0.51701 0.53711 0.0
H752 H 0.98065 0.55659 0.92185 0.0
H753 H -0.00687 0.53071 0.93874 0.0
H754 H 0.95062 0.5223 -0.00804 0.0
H755 H 0.938 0.54816 0.97527 0.0
H756 H -0.00012 0.52017 -0.00288 0.0
H757 H 0.95498 0.47998 0.9409 0.0
H758 H 0.95821 0.50148 0.93164 0.0
H759 H 0.94622 0.49623 0.96217 0.0
C760 C 0.97399 0.54931 0.93731 0.0
C761 C 0.95828 0.55439 0.94709 0.0
C762 C 0.98115 0.53454 0.94691 0.0
C763 C 0.97266 0.52453 0.96624 0.0
C764 C 0.95723 0.52978 0.97672 0.0
H765 H 0.99135 0.42787 0.03958 0.0
H766 H 0.9793 0.45399 0.02302 0.0
C767 C 0.9501 0.5446 0.96727 0.0
C768 C 0.97986 0.50844 0.97509 0.0
H769 H 0.97431 0.46659 0.9705 0.0
C770 C -0.00565 0.50843 -0.00871 0.0
C771 C 0.97254 0.49321 0.96744 0.0
C772 C 0.95719 0.4926 0.94941 0.0
C773 C 0.0016 0.49353 0.00051 0.0
C774 C -0.00564 0.47825 -0.00734 0.0
C775 C 0.97985 0.4783 0.97643 0.0
C776 C 0.00153 0.46208 0.00143 0.0
C777 C 0.01667 0.49432 0.0192 0.0
C778 C 0.01786 0.45773 -0.00592 0.0
C779 C 0.02482 0.44285 0.00364 0.0
C780 C 0.01549 0.43194 0.02043 0.0
C781 C -0.00111 0.43601 0.02673 0.0
C782 C -0.00801 0.45094 0.01732 0.0
H783 H 0.01782 0.50663 0.02943 0.0
H784 H 0.01619 0.48462 0.03574 0.0
H785 H 0.028 0.49224 0.00637 0.0
H786 H 0.0253 0.46593 0.98118 0.0
H787 H 0.03759 0.44003 -0.00181 0.0
H788 H 0.0307 0.03291 0.5499 0.0
H789 H 0.00554 0.02084 0.53029 0.0
H790 H 0.0351 0.98477 0.48568 0.0
H791 H 0.06043 -0.00334 0.50552 0.0
H792 H -0.00433 0.0165 0.47471 0.0
H793 H 0.00207 0.95625 0.53048 0.0
H794 H 0.01405 0.97429 0.53974 0.0
H795 H 0.01981 0.96206 0.50978 0.0
C796 C 0.0319 0.02244 0.53585 0.0
C797 C 0.04758 0.01566 0.52945 0.0
C798 C 0.01749 0.01557 0.52464 0.0
C799 C 0.01844 0.00175 0.50692 0.0
C800 C 0.03408 -0.00476 0.49977 0.0
H801 H 0.9405 0.96199 0.40227 0.0
H802 H 0.9651 0.97563 0.42086 0.0
C803 C 0.04854 0.00211 0.51098 0.0
C804 C 0.003 -0.00587 0.4962 0.0
H805 H 0.98033 0.95842 0.49728 0.0
C806 C -0.0077 0.0038 0.47963 0.0
C807 C -0.00149 0.97766 0.50307 0.0
C808 C 0.00911 0.96697 0.52195 0.0
C809 C 0.97734 -0.00265 0.46936 0.0
C810 C 0.9731 0.98073 0.47553 0.0
C811 C 0.98367 0.97114 0.49246 0.0
C812 C 0.95786 0.97295 0.46435 0.0
C813 C 0.96609 0.00847 0.45235 0.0
C814 C 0.94571 0.96667 0.48265 0.0
C815 C 0.93162 0.95876 0.47209 0.0
C816 C 0.9295 0.9569 0.44301 0.0
C817 C 0.94168 0.96328 0.42477 0.0
C818 C 0.95573 0.97117 0.43534 0.0
H819 H 0.96884 0.0218 0.45587 0.0
H820 H 0.96796 0.00583 0.42973 0.0
H821 H 0.95284 0.0062 0.45754 0.0
H822 H 0.94718 0.96784 0.50513 0.0
H823 H 0.92251 0.95395 0.48671 0.0
H824 H 0.48167 0.06881 0.0028 0.0
H825 H 0.49531 0.0444 0.98236 0.0
H826 H 0.46915 0.01278 0.0405 0.0
H827 H 0.45535 0.03695 0.06073 0.0
H828 H 0.51574 0.02144 0.00969 0.0
H829 H 0.46037 0.99046 0.96531 0.0
H830 H 0.46016 0.01189 0.97617 0.0
H831 H 0.45832 -0.00442 0.00177 0.0
C832 C 0.47872 0.05664 0.01105 0.0
C833 C 0.46738 0.05483 0.03333 0.0
C834 C 0.48653 0.04272 -0.00062 0.0
C835 C 0.48305 0.02677 0.00964 0.0
C836 C 0.47175 0.02494 0.03185 0.0
H837 H 0.52061 0.92735 0.97707 0.0
H838 H 0.50642 0.95187 -0.00393 0.0
C839 C 0.46394 0.03881 0.0435 0.0
C840 C 0.49175 0.01206 -0.00197 0.0
H841 H 0.48531 0.97453 0.96689 0.0
C842 C 0.50911 0.01123 0.00014 0.0
C843 C 0.48304 -0.00128 -0.01427 0.0
C844 C 0.46446 -0.00078 0.98184 0.0
C845 C 0.518 -0.00272 -0.00925 0.0
C846 C 0.50928 0.98393 0.97856 0.0
C847 C 0.49193 0.98476 0.97639 0.0
C848 C 0.51801 0.96914 0.96734 0.0
C849 C 0.53659 -0.0032 -0.00551 0.0
C850 C 0.52906 0.97074 0.94475 0.0
C851 C 0.53716 0.95681 0.93387 0.0
C852 C 0.5343 0.94097 0.9453 0.0
C853 C 0.52313 0.93938 0.96787 0.0
C854 C 0.515 0.95335 0.97872 0.0
H855 H 0.5408 0.00589 0.01041 0.0
H856 H 0.54083 0.98422 0.00088 0.0
H857 H 0.54269 -7e-05 0.97427 0.0
H858 H 0.53132 0.98277 0.93532 0.0
H859 H 0.54561 0.95849 0.91639 0.0
H860 H 0.55392 0.51294 0.4758 0.0
H861 H 0.5289 0.49995 0.49523 0.0
H862 H 0.49849 0.52905 0.43927 0.0
H863 H 0.5233 0.54191 0.41956 0.0
H864 H 0.50111 0.51491 0.52119 0.0
H865 H 0.48305 0.48151 0.42442 0.0
H866 H 0.50345 0.49026 0.42919 0.0
H867 H 0.48626 0.50335 0.41948 0.0
C868 C 0.54191 0.51656 0.46763 0.0
C869 C 0.54062 0.52838 0.446 0.0
C870 C 0.52764 0.50913 0.47874 0.0
C871 C 0.51188 0.51332 0.46831 0.0
C872 C 0.51055 0.52536 0.44717 0.0
H873 H 0.41028 0.48512 0.50651 0.0
H874 H 0.43559 0.49772 0.48743 0.0
C875 C 0.52476 0.53277 0.43605 0.0
C876 C 0.49676 0.50535 0.47978 0.0
H877 H 0.46323 0.48198 0.46144 0.0
C878 C 0.49287 0.50762 0.50821 0.0
C879 C 0.48603 0.49589 0.46272 0.0
C880 C 0.48994 0.49245 0.43232 0.0
C881 C 0.47834 0.50096 0.51993 0.0
C882 C 0.46757 0.49157 0.50284 0.0
C883 C 0.47148 0.48925 0.47444 0.0
C884 C 0.45229 0.48383 0.51417 0.0
C885 C 0.47443 0.50434 0.55036 0.0
C886 C 0.45335 0.47165 0.53512 0.0
C887 C 0.43897 0.46444 0.54602 0.0
C888 C 0.42322 0.46921 0.53607 0.0
C889 C 0.42221 0.48121 0.51468 0.0
C890 C 0.43664 0.48842 0.50376 0.0
H891 H 0.48155 0.51508 0.55847 0.0
H892 H 0.46097 0.50682 0.5534 0.0
H893 H 0.47781 0.49329 0.56306 0.0
H894 H 0.46533 0.46769 0.54302 0.0
H895 H 0.44022 0.45517 0.56235 0.0
H896 H 0.00659 0.04361 0.90685 0.0
H897 H 0.9902 0.01966 0.92176 0.0
H898 H 0.03503 0.99077 0.93092 0.0
H899 H 0.05157 0.01468 0.91623 0.0
H900 H 0.98829 0.9861 0.90074 0.0
H901 H 0.01273 0.98981 0.00954 0.0
H902 H 0.01499 0.00652 -0.01541 0.0
H903 H 0.02809 0.9885 0.9822 0.0
C904 C 0.01298 0.03213 0.9118 0.0
C905 C 0.03042 0.03112 0.91065 0.0
C906 C 0.00358 0.01845 0.92024 0.0
C907 C 0.01143 0.00354 0.92778 0.0
C908 C 0.02877 0.00225 0.92555 0.0
H909 H 0.96075 0.91076 0.97219 0.0
H910 H 0.97846 0.93133 0.94885 0.0
C911 C 0.03818 0.01592 0.91708 0.0
C912 C 0.00152 0.98969 0.93939 0.0
H913 H -0.00583 0.96809 -0.00022 0.0
C914 C 0.98962 0.98206 0.92233 0.0
C915 C 0.00319 0.98462 0.96765 0.0
C916 C 0.01533 -0.00717 -0.01278 0.0
C917 C 0.97928 0.96948 0.93288 0.0
C918 C 0.98101 0.9644 0.96111 0.0
C919 C -0.00702 0.97196 0.97808 0.0
C920 C 0.96989 0.95194 0.9741 0.0
C921 C 0.96626 0.96207 0.91406 0.0
C922 C 0.95934 0.95671 -0.00389 0.0
C923 C 0.94929 0.94504 0.00948 0.0
C924 C 0.94965 0.92831 0.00123 0.0
C925 C 0.96015 0.92356 0.97899 0.0
C926 C 0.97021 0.93529 0.96555 0.0
H927 H 0.96452 0.96943 0.89456 0.0
H928 H 0.97009 0.94932 0.90809 0.0
H929 H 0.95416 0.96122 0.92521 0.0
H930 H 0.95895 0.96949 0.00305 0.0
H931 H 0.94137 0.94915 0.02651 0.0
H932 H 0.41989 -0.0068 0.45176 0.0
H933 H 0.44571 0.98023 0.46783 0.0
H934 H 0.47031 0.02761 0.46398 0.0
H935 H 0.44469 0.0406 0.44745 0.0
H936 H 0.48819 0.0031 0.43816 0.0
H937 H 0.4681 0.98254 0.54401 0.0
H938 H 0.45498 0.97536 0.51624 0.0
H939 H 0.45631 -0.00279 0.52339 0.0
C940 C 0.43074 0.0009 0.45466 0.0
C941 C 0.43022 0.01794 0.44834 0.0
C942 C 0.44548 -0.00653 0.46395 0.0
C943 C 0.4599 0.00299 0.46739 0.0
C944 C 0.45933 0.02004 0.4615 0.0
H945 H 0.55005 0.97247 0.55225 0.0
H946 H 0.52468 0.98644 0.53686 0.0
C947 C 0.44465 0.02745 0.45212 0.0
C948 C 0.47579 -0.00489 0.4759 0.0
H949 H 0.49421 0.97247 0.52788 0.0
C950 C 0.48953 -0.00356 0.45782 0.0
C951 C 0.47756 0.98658 0.50168 0.0
C952 C 0.46351 0.98544 0.5226 0.0
C953 C 0.50495 0.98935 0.46468 0.0
C954 C 0.50658 0.98041 0.49009 0.0
C955 C 0.49289 0.97922 0.5083 0.0
C956 C 0.52244 0.97241 0.49846 0.0
C957 C 0.51942 -0.00823 0.44493 0.0
C958 C 0.52965 0.95991 0.48191 0.0
C959 C 0.54425 0.95195 0.49057 0.0
C960 C 0.55178 0.95624 0.5161 0.0
C961 C 0.54459 0.96887 0.53247 0.0
C962 C 0.53006 0.97684 0.52375 0.0
H963 H 0.51736 0.00246 0.43058 0.0
H964 H 0.53111 -0.00618 0.45668 0.0
H965 H 0.521 0.98049 0.43192 0.0
H966 H 0.52381 0.95605 0.46259 0.0
H967 H 0.54939 0.94219 0.47758 0.0
H968 H 0.53689 0.54365 0.97984 0.0
H969 H 0.52401 0.51799 0.96359 0.0
H970 H 0.49088 0.51866 0.03481 0.0
H971 H 0.50385 0.54412 0.05147 0.0
H972 H 0.50592 0.48848 0.02763 0.0
H973 H 0.47903 0.51051 0.92722 0.0
H974 H 0.50083 0.51458 0.93059 0.0
H975 H 0.48632 0.52454 0.95389 0.0
C976 C 0.52672 0.53846 -0.00814 0.0
C977 C 0.5214 0.54594 0.01696 0.0
C978 C 0.51932 0.52382 0.98248 0.0
C979 C 0.50636 0.5165 -0.00216 0.0
C980 C 0.50084 0.52411 0.02261 0.0
H981 H 0.44281 0.43674 0.94134 0.0
H982 H 0.45418 0.46282 0.95864 0.0
C983 C 0.50825 0.53869 0.03206 0.0
C984 C 0.49909 0.50048 -0.01107 0.0
H985 H 0.47907 0.48136 0.93502 0.0
C986 C 0.49999 0.48693 0.00742 0.0
C987 C 0.49121 0.49854 0.96269 0.0
C988 C 0.48912 0.51285 0.94253 0.0
C989 C 0.49339 0.47141 0.00025 0.0
C990 C 0.48598 0.46933 0.97366 0.0
C991 C 0.48489 0.48294 0.95531 0.0
C992 C 0.47905 0.45321 0.96453 0.0
C993 C 0.49416 0.45749 0.02142 0.0
C994 C 0.48926 0.43911 0.96219 0.0
C995 C 0.48277 0.42412 0.95245 0.0
C996 C 0.46598 0.42302 0.9446 0.0
C997 C 0.45578 0.43714 0.94722 0.0
C998 C 0.46227 0.45208 0.95704 0.0
H999 H 0.49605 0.46223 0.04303 0.0
H1000 H 0.48262 0.45001 0.02108 0.0
H1001 H 0.50477 0.44921 0.01623 0.0
H1002 H 0.50232 0.43978 0.96734 0.0
H1003 H 0.49099 0.41352 0.95048 0.0
H1004 H 0.92739 0.53271 0.47443 0.0
H1005 H 0.95273 0.51902 0.45755 0.0
H1006 H 0.96374 0.50282 0.54171 0.0
H1007 H 0.93844 0.51627 0.55872 0.0
H1008 H 0.9854 0.52568 0.47465 0.0
H1009 H 0.96847 0.46014 0.49559 0.0
H1010 H 0.95329 0.47668 0.49477 0.0
H1011 H 0.96603 0.47362 0.52525 0.0
C1012 C 0.93511 0.52608 0.4893 0.0
C1013 C 0.93087 0.52556 0.51791 0.0
C1014 C 0.94959 0.51831 0.47963 0.0
C1015 C 0.96 0.50976 0.49834 0.0
C1016 C 0.95573 0.50909 0.52684 0.0
H1017 H 0.06393 0.48288 0.47221 0.0
H1018 H 0.03784 0.49495 0.48939 0.0
C1019 C 0.94129 0.51687 0.53653 0.0
C1020 C 0.97571 0.50216 0.48832 0.0
H1021 H -0.00333 0.46536 0.48368 0.0
C1022 C 0.98786 0.51249 0.47651 0.0
C1023 C 0.97881 0.48493 0.49062 0.0
C1024 C 0.96592 0.47314 0.502 0.0
C1025 C 0.00315 0.50607 0.46725 0.0
C1026 C 0.00643 0.48891 0.47026 0.0
C1027 C -0.00582 0.47855 0.48171 0.0
C1028 C 0.02226 0.48136 0.46064 0.0
C1029 C 0.01554 0.51766 0.45385 0.0
C1030 C 0.02209 0.46939 0.43936 0.0
C1031 C 0.03692 0.46243 0.42964 0.0
C1032 C 0.05224 0.46723 0.4411 0.0
C1033 C 0.05236 0.47898 0.46285 0.0
C1034 C 0.03747 0.48596 0.47257 0.0
H1035 H 0.00966 0.52952 0.44716 0.0
H1036 H 0.0254 0.52061 0.46924 0.0
H1037 H 0.02152 0.5118 0.43532 0.0
H1038 H 0.01047 0.46562 0.42996 0.0
H1039 H 0.03635 0.45338 0.41293 0.0
loop_
_geom_bond_atom_site_label_1
_geom_bond_atom_site_label_2
_geom_bond_distance
_geom_bond_site_symmetry_2
_ccdc_geom_bond_type
O0 Cd1 2.300 . S
O0 C7 1.275 . S
Cd1 O0 2.300 . S
Cd1 O9 2.381 . S
Cd1 O10 2.378 . S
O2 Cd3 2.385 . S
O2 C7 1.255 . S
Cd3 O2 2.385 . S
Cd3 O4 2.317 . S
O4 Cd3 2.317 . S
O4 C5 1.232 . S
C5 O4 1.232 . S
C5 O6 1.218 . S
O6 C5 1.218 . S
C7 O0 1.275 . S
C7 O2 1.255 . S
C8 O9 1.258 . S
C8 O10 1.256 . S
O9 Cd1 2.381 . S
O9 C8 1.258 . S
O10 Cd1 2.378 . S
O10 C8 1.256 . S
O11 Cd12 2.300 . S
O11 C18 1.275 . S
Cd12 O11 2.300 . S
Cd12 O20 2.381 . S
Cd12 O21 2.378 . S
O13 Cd14 2.385 . S
O13 C18 1.255 . S
Cd14 O13 2.385 . S
Cd14 O15 2.317 . S
O15 Cd14 2.317 . S
O15 C16 1.232 . S
C16 O15 1.232 . S
C16 O17 1.218 . S
O17 C16 1.218 . S
C18 O11 1.275 . S
C18 O13 1.255 . S
C19 O20 1.258 . S
C19 O21 1.256 . S
O20 Cd12 2.381 . S
O20 C19 1.258 . S
O21 Cd12 2.378 . S
O21 C19 1.256 . S
O22 Cd23 2.300 . S
O22 C29 1.275 . S
Cd23 O22 2.300 . S
Cd23 O31 2.381 . S
Cd23 O32 2.378 . S
O24 Cd25 2.385 . S
O24 C29 1.255 . S
Cd25 O24 2.385 . S
Cd25 O26 2.317 . S
O26 Cd25 2.317 . S
O26 C27 1.232 . S
C27 O26 1.232 . S
C27 O28 1.218 . S
O28 C27 1.218 . S
C29 O22 1.275 . S
C29 O24 1.255 . S
C30 O31 1.258 . S
C30 O32 1.256 . S
O31 Cd23 2.381 . S
O31 C30 1.258 . S
O32 Cd23 2.378 . S
O32 C30 1.256 . S
O33 Cd34 2.300 . S
O33 C40 1.275 . S
Cd34 O33 2.300 . S
Cd34 O42 2.381 . S
Cd34 O43 2.378 . S
O35 Cd36 2.385 . S
O35 C40 1.255 . S
Cd36 O35 2.385 . S
Cd36 O37 2.317 . S
O37 Cd36 2.317 . S
O37 C38 1.232 . S
C38 O37 1.232 . S
C38 O39 1.218 . S
O39 C38 1.218 . S
C40 O33 1.275 . S
C40 O35 1.255 . S
C41 O42 1.258 . S
C41 O43 1.256 . S
O42 Cd34 2.381 . S
O42 C41 1.258 . S
O43 Cd34 2.378 . S
O43 C41 1.256 . S
O44 Cd45 2.300 . S
O44 C51 1.275 . S
Cd45 O44 2.300 . S
Cd45 O53 2.381 . S
Cd45 O54 2.378 . S
O46 Cd47 2.385 . S
O46 C51 1.255 . S
Cd47 O46 2.385 . S
Cd47 O48 2.317 . S
O48 Cd47 2.317 . S
O48 C49 1.232 . S
C49 O48 1.232 . S
C49 O50 1.218 . S
O50 C49 1.218 . S
C51 O44 1.275 . S
C51 O46 1.255 . S
C52 O53 1.258 . S
C52 O54 1.256 . S
O53 Cd45 2.381 . S
O53 C52 1.258 . S
O54 Cd45 2.378 . S
O54 C52 1.256 . S
O55 Cd56 2.300 . S
O55 C62 1.275 . S
Cd56 O55 2.300 . S
Cd56 O64 2.381 . S
Cd56 O65 2.378 . S
O57 Cd58 2.385 . S
O57 C62 1.255 . S
Cd58 O57 2.385 . S
Cd58 O59 2.317 . S
O59 Cd58 2.317 . S
O59 C60 1.232 . S
C60 O59 1.232 . S
C60 O61 1.218 . S
O61 C60 1.218 . S
C62 O55 1.275 . S
C62 O57 1.255 . S
C63 O64 1.258 . S
C63 O65 1.256 . S
O64 Cd56 2.381 . S
O64 C63 1.258 . S
O65 Cd56 2.378 . S
O65 C63 1.256 . S
O66 Cd67 2.300 . S
O66 C73 1.275 . S
Cd67 O66 2.300 . S
Cd67 O75 2.381 . S
Cd67 O76 2.378 . S
O68 Cd69 2.385 . S
O68 C73 1.255 . S
Cd69 O68 2.385 . S
Cd69 O70 2.317 . S
O70 Cd69 2.317 . S
O70 C71 1.232 . S
C71 O70 1.232 . S
C71 O72 1.218 . S
O72 C71 1.218 . S
C73 O66 1.275 . S
C73 O68 1.255 . S
C74 O75 1.258 . S
C74 O76 1.256 . S
O75 Cd67 2.381 . S
O75 C74 1.258 . S
O76 Cd67 2.378 . S
O76 C74 1.256 . S
O77 Cd78 2.300 . S
O77 C84 1.275 . S
Cd78 O77 2.300 . S
Cd78 O86 2.381 . S
Cd78 O87 2.378 . S
O79 Cd80 2.385 . S
O79 C84 1.255 . S
Cd80 O79 2.385 . S
Cd80 O81 2.317 . S
O81 Cd80 2.317 . S
O81 C82 1.232 . S
C82 O81 1.232 . S
C82 O83 1.218 . S
O83 C82 1.218 . S
C84 O77 1.275 . S
C84 O79 1.255 . S
C85 O86 1.258 . S
C85 O87 1.256 . S
O86 Cd78 2.381 . S
O86 C85 1.258 . S
O87 Cd78 2.378 . S
O87 C85 1.256 . S
O88 Cd89 2.300 . S
O88 C95 1.275 . S
Cd89 O88 2.300 . S
Cd89 O97 2.381 . S
Cd89 O98 2.378 . S
O90 Cd91 2.385 . S
O90 C95 1.255 . S
Cd91 O90 2.385 . S
Cd91 O92 2.317 . S
O92 Cd91 2.317 . S
O92 C93 1.232 . S
C93 O92 1.232 . S
C93 O94 1.218 . S
O94 C93 1.218 . S
C95 O88 1.275 . S
C95 O90 1.255 . S
C96 O97 1.258 . S
C96 O98 1.256 . S
O97 Cd89 2.381 . S
O97 C96 1.258 . S
O98 Cd89 2.378 . S
O98 C96 1.256 . S
O99 Cd100 2.300 . S
O99 C106 1.275 . S
Cd100 O99 2.300 . S
Cd100 O108 2.381 . S
Cd100 O109 2.378 . S
O101 Cd102 2.385 . S
O101 C106 1.255 . S
Cd102 O101 2.385 . S
Cd102 O103 2.317 . S
O103 Cd102 2.317 . S
O103 C104 1.232 . S
C104 O103 1.232 . S
C104 O105 1.218 . S
O105 C104 1.218 . S
C106 O99 1.275 . S
C106 O101 1.255 . S
C107 O108 1.258 . S
C107 O109 1.256 . S
O108 Cd100 2.381 . S
O108 C107 1.258 . S
O109 Cd100 2.378 . S
O109 C107 1.256 . S
O110 Cd111 2.300 . S
O110 C117 1.275 . S
Cd111 O110 2.300 . S
Cd111 O119 2.381 . S
Cd111 O120 2.378 . S
O112 Cd113 2.385 . S
O112 C117 1.255 . S
Cd113 O112 2.385 . S
Cd113 O114 2.317 . S
O114 Cd113 2.317 . S
O114 C115 1.232 . S
C115 O114 1.232 . S
C115 O116 1.218 . S
O116 C115 1.218 . S
C117 O110 1.275 . S
C117 O112 1.255 . S
C118 O119 1.258 . S
C118 O120 1.256 . S
O119 Cd111 2.381 . S
O119 C118 1.258 . S
O120 Cd111 2.378 . S
O120 C118 1.256 . S
O121 Cd122 2.300 . S
O121 C128 1.275 . S
Cd122 O121 2.300 . S
Cd122 O130 2.381 . S
Cd122 O131 2.378 . S
O123 Cd124 2.385 . S
O123 C128 1.255 . S
Cd124 O123 2.385 . S
Cd124 O125 2.317 . S
O125 Cd124 2.317 . S
O125 C126 1.232 . S
C126 O125 1.232 . S
C126 O127 1.218 . S
O127 C126 1.218 . S
C128 O121 1.275 . S
C128 O123 1.255 . S
C129 O130 1.258 . S
C129 O131 1.256 . S
O130 Cd122 2.381 . S
O130 C129 1.258 . S
O131 Cd122 2.378 . S
O131 C129 1.256 . S
O132 Cd133 2.300 . S
O132 C139 1.275 . S
Cd133 O132 2.300 . S
Cd133 O141 2.381 . S
Cd133 O142 2.378 . S
O134 Cd135 2.385 . S
O134 C139 1.255 . S
Cd135 O134 2.385 . S
Cd135 O136 2.317 . S
O136 Cd135 2.317 . S
O136 C137 1.232 . S
C137 O136 1.232 . S
C137 O138 1.218 . S
O138 C137 1.218 . S
C139 O132 1.275 . S
C139 O134 1.255 . S
C140 O141 1.258 . S
C140 O142 1.256 . S
O141 Cd133 2.381 . S
O141 C140 1.258 . S
O142 Cd133 2.378 . S
O142 C140 1.256 . S
O143 Cd144 2.300 . S
O143 C150 1.275 . S
Cd144 O143 2.300 . S
Cd144 O152 2.381 . S
Cd144 O153 2.378 . S
O145 Cd146 2.385 . S
O145 C150 1.255 . S
Cd146 O145 2.385 . S
Cd146 O147 2.317 . S
O147 Cd146 2.317 . S
O147 C148 1.232 . S
C148 O147 1.232 . S
C148 O149 1.218 . S
O149 C148 1.218 . S
C150 O143 1.275 . S
C150 O145 1.255 . S
C151 O152 1.258 . S
C151 O153 1.256 . S
O152 Cd144 2.381 . S
O152 C151 1.258 . S
O153 Cd144 2.378 . S
O153 C151 1.256 . S
O154 Cd155 2.300 . S
O154 C161 1.275 . S
Cd155 O154 2.300 . S
Cd155 O163 2.381 . S
Cd155 O164 2.378 . S
O156 Cd157 2.385 . S
O156 C161 1.255 . S
Cd157 O156 2.385 . S
Cd157 O158 2.317 . S
O158 Cd157 2.317 . S
O158 C159 1.232 . S
C159 O158 1.232 . S
C159 O160 1.218 . S
O160 C159 1.218 . S
C161 O154 1.275 . S
C161 O156 1.255 . S
C162 O163 1.258 . S
C162 O164 1.256 . S
O163 Cd155 2.381 . S
O163 C162 1.258 . S
O164 Cd155 2.378 . S
O164 C162 1.256 . S
O165 Cd166 2.300 . S
O165 C172 1.275 . S
Cd166 O165 2.300 . S
Cd166 O174 2.381 . S
Cd166 O175 2.378 . S
O167 Cd168 2.385 . S
O167 C172 1.255 . S
Cd168 O167 2.385 . S
Cd168 O169 2.317 . S
O169 Cd168 2.317 . S
O169 C170 1.232 . S
C170 O169 1.232 . S
C170 O171 1.218 . S
O171 C170 1.218 . S
C172 O165 1.275 . S
C172 O167 1.255 . S
C173 O174 1.258 . S
C173 O175 1.256 . S
O174 Cd166 2.381 . S
O174 C173 1.258 . S
O175 Cd166 2.378 . S
O175 C173 1.256 . S
H176 C184 0.929 . S
H177 C186 0.930 . S
H178 C188 0.930 . S
H179 C191 0.929 . S
H180 C194 0.930 . S
H181 C196 0.960 . S
H182 C196 0.960 . S
H183 C196 0.960 . S
C184 H176 0.929 . S
C184 C185 1.377 . S
C184 C186 1.384 . S
C185 C184 1.377 . S
C185 C191 1.390 . S
C186 H177 0.930 . S
C186 C184 1.384 . S
C186 C187 1.372 . S
C187 C186 1.372 . S
C187 C188 1.400 . S
C187 C192 1.490 . S
C188 H178 0.930 . S
C188 C187 1.400 . S
C188 C191 1.386 . S
H189 C205 0.930 . S
H190 C206 0.931 . S
C191 H179 0.929 . S
C191 C185 1.390 . S
C191 C188 1.386 . S
C192 C187 1.490 . S
C192 C194 1.395 . S
C192 C195 1.403 . S
H193 C199 0.930 . S
C194 H180 0.930 . S
C194 C192 1.395 . S
C194 C197 1.403 . S
C195 C192 1.403 . S
C195 C196 1.524 . S
C195 C199 1.400 . S
C196 H181 0.960 . S
C196 H182 0.960 . S
C196 H183 0.960 . S
C196 C195 1.524 . S
C197 C194 1.403 . S
C197 C198 1.392 . S
C197 C201 1.495 . S
C198 C197 1.392 . S
C198 C199 1.385 . S
C198 C200 1.478 . S
C199 H193 0.930 . S
C199 C195 1.400 . S
C199 C198 1.385 . S
C200 C198 1.478 . S
C200 C202 1.381 . S
C200 C206 1.383 . S
C201 C197 1.495 . S
C201 H207 0.959 . S
C201 H208 0.961 . S
C201 H209 0.960 . S
C202 C200 1.381 . S
C202 C203 1.394 . S
C202 H210 0.930 . S
C203 C202 1.394 . S
C203 C204 1.383 . S
C203 H211 0.929 . S
C204 C203 1.383 . S
C204 C205 1.377 . S
C205 H189 0.930 . S
C205 C204 1.377 . S
C205 C206 1.379 . S
C206 H190 0.931 . S
C206 C200 1.383 . S
C206 C205 1.379 . S
H207 C201 0.959 . S
H208 C201 0.961 . S
H209 C201 0.960 . S
H210 C202 0.930 . S
H211 C203 0.929 . S
H212 C220 0.929 . S
H213 C222 0.930 . S
H214 C224 0.930 . S
H215 C227 0.929 . S
H216 C230 0.930 . S
H217 C232 0.960 . S
H218 C232 0.960 . S
H219 C232 0.960 . S
C220 H212 0.929 . S
C220 C221 1.377 . S
C220 C222 1.384 . S
C221 C220 1.377 . S
C221 C227 1.390 . S
C222 H213 0.930 . S
C222 C220 1.384 . S
C222 C223 1.372 . S
C223 C222 1.372 . S
C223 C224 1.400 . S
C223 C228 1.490 . S
C224 H214 0.930 . S
C224 C223 1.400 . S
C224 C227 1.386 . S
H225 C241 0.930 . S
H226 C242 0.931 . S
C227 H215 0.929 . S
C227 C221 1.390 . S
C227 C224 1.386 . S
C228 C223 1.490 . S
C228 C230 1.395 . S
C228 C231 1.403 . S
H229 C235 0.930 . S
C230 H216 0.930 . S
C230 C228 1.395 . S
C230 C233 1.403 . S
C231 C228 1.403 . S
C231 C232 1.524 . S
C231 C235 1.400 . S
C232 H217 0.960 . S
C232 H218 0.960 . S
C232 H219 0.960 . S
C232 C231 1.524 . S
C233 C230 1.403 . S
C233 C234 1.392 . S
C233 C237 1.495 . S
C234 C233 1.392 . S
C234 C235 1.385 . S
C234 C236 1.478 . S
C235 H229 0.930 . S
C235 C231 1.400 . S
C235 C234 1.385 . S
C236 C234 1.478 . S
C236 C238 1.381 . S
C236 C242 1.383 . S
C237 C233 1.495 . S
C237 H243 0.959 . S
C237 H244 0.961 . S
C237 H245 0.960 . S
C238 C236 1.381 . S
C238 C239 1.394 . S
C238 H246 0.930 . S
C239 C238 1.394 . S
C239 C240 1.383 . S
C239 H247 0.929 . S
C240 C239 1.383 . S
C240 C241 1.377 . S
C241 H225 0.930 . S
C241 C240 1.377 . S
C241 C242 1.379 . S
C242 H226 0.931 . S
C242 C236 1.383 . S
C242 C241 1.379 . S
H243 C237 0.959 . S
H244 C237 0.961 . S
H245 C237 0.960 . S
H246 C238 0.930 . S
H247 C239 0.929 . S
H248 C256 0.929 . S
H249 C258 0.930 . S
H250 C260 0.930 . S
H251 C263 0.929 . S
H252 C266 0.930 . S
H253 C268 0.960 . S
H254 C268 0.960 . S
H255 C268 0.960 . S
C256 H248 0.929 . S
C256 C257 1.377 . S
C256 C258 1.384 . S
C257 C256 1.377 . S
C257 C263 1.390 . S
C258 H249 0.930 . S
C258 C256 1.384 . S
C258 C259 1.372 . S
C259 C258 1.372 . S
C259 C260 1.400 . S
C259 C264 1.490 . S
C260 H250 0.930 . S
C260 C259 1.400 . S
C260 C263 1.386 . S
H261 C277 0.930 . S
H262 C278 0.931 . S
C263 H251 0.929 . S
C263 C257 1.390 . S
C263 C260 1.386 . S
C264 C259 1.490 . S
C264 C266 1.395 . S
C264 C267 1.403 . S
H265 C271 0.930 . S
C266 H252 0.930 . S
C266 C264 1.395 . S
C266 C269 1.403 . S
C267 C264 1.403 . S
C267 C268 1.524 . S
C267 C271 1.400 . S
C268 H253 0.960 . S
C268 H254 0.960 . S
C268 H255 0.960 . S
C268 C267 1.524 . S
C269 C266 1.403 . S
C269 C270 1.392 . S
C269 C273 1.495 . S
C270 C269 1.392 . S
C270 C271 1.385 . S
C270 C272 1.478 . S
C271 H265 0.930 . S
C271 C267 1.400 . S
C271 C270 1.385 . S
C272 C270 1.478 . S
C272 C274 1.381 . S
C272 C278 1.383 . S
C273 C269 1.495 . S
C273 H279 0.959 . S
C273 H280 0.961 . S
C273 H281 0.960 . S
C274 C272 1.381 . S
C274 C275 1.394 . S
C274 H282 0.930 . S
C275 C274 1.394 . S
C275 C276 1.383 . S
C275 H283 0.929 . S
C276 C275 1.383 . S
C276 C277 1.377 . S
C277 H261 0.930 . S
C277 C276 1.377 . S
C277 C278 1.379 . S
C278 H262 0.931 . S
C278 C272 1.383 . S
C278 C277 1.379 . S
H279 C273 0.959 . S
H280 C273 0.961 . S
H281 C273 0.960 . S
H282 C274 0.930 . S
H283 C275 0.929 . S
H284 C292 0.929 . S
H285 C294 0.930 . S
H286 C296 0.930 . S
H287 C299 0.929 . S
H288 C302 0.930 . S
H289 C304 0.960 . S
H290 C304 0.960 . S
H291 C304 0.960 . S
C292 H284 0.929 . S
C292 C293 1.377 . S
C292 C294 1.384 . S
C293 C292 1.377 . S
C293 C299 1.390 . S
C294 H285 0.930 . S
C294 C292 1.384 . S
C294 C295 1.372 . S
C295 C294 1.372 . S
C295 C296 1.400 . S
C295 C300 1.490 . S
C296 H286 0.930 . S
C296 C295 1.400 . S
C296 C299 1.386 . S
H297 C313 0.930 . S
H298 C314 0.931 . S
C299 H287 0.929 . S
C299 C293 1.390 . S
C299 C296 1.386 . S
C300 C295 1.490 . S
C300 C302 1.395 . S
C300 C303 1.403 . S
H301 C307 0.930 . S
C302 H288 0.930 . S
C302 C300 1.395 . S
C302 C305 1.403 . S
C303 C300 1.403 . S
C303 C304 1.524 . S
C303 C307 1.400 . S
C304 H289 0.960 . S
C304 H290 0.960 . S
C304 H291 0.960 . S
C304 C303 1.524 . S
C305 C302 1.403 . S
C305 C306 1.392 . S
C305 C309 1.495 . S
C306 C305 1.392 . S
C306 C307 1.385 . S
C306 C308 1.478 . S
C307 H301 0.930 . S
C307 C303 1.400 . S
C307 C306 1.385 . S
C308 C306 1.478 . S
C308 C310 1.381 . S
C308 C314 1.383 . S
C309 C305 1.495 . S
C309 H315 0.959 . S
C309 H316 0.961 . S
C309 H317 0.960 . S
C310 C308 1.381 . S
C310 C311 1.394 . S
C310 H318 0.930 . S
C311 C310 1.394 . S
C311 C312 1.383 . S
C311 H319 0.929 . S
C312 C311 1.383 . S
C312 C313 1.377 . S
C313 H297 0.930 . S
C313 C312 1.377 . S
C313 C314 1.379 . S
C314 H298 0.931 . S
C314 C308 1.383 . S
C314 C313 1.379 . S
H315 C309 0.959 . S
H316 C309 0.961 . S
H317 C309 0.960 . S
H318 C310 0.930 . S
H319 C311 0.929 . S
H320 C328 0.929 . S
H321 C330 0.930 . S
H322 C332 0.930 . S
H323 C335 0.929 . S
H324 C338 0.930 . S
H325 C340 0.960 . S
H326 C340 0.960 . S
H327 C340 0.960 . S
C328 H320 0.929 . S
C328 C329 1.377 . S
C328 C330 1.384 . S
C329 C328 1.377 . S
C329 C335 1.390 . S
C330 H321 0.930 . S
C330 C328 1.384 . S
C330 C331 1.372 . S
C331 C330 1.372 . S
C331 C332 1.400 . S
C331 C336 1.490 . S
C332 H322 0.930 . S
C332 C331 1.400 . S
C332 C335 1.386 . S
H333 C349 0.930 . S
H334 C350 0.931 . S
C335 H323 0.929 . S
C335 C329 1.390 . S
C335 C332 1.386 . S
C336 C331 1.490 . S
C336 C338 1.395 . S
C336 C339 1.403 . S
H337 C343 0.930 . S
C338 H324 0.930 . S
C338 C336 1.395 . S
C338 C341 1.403 . S
C339 C336 1.403 . S
C339 C340 1.524 . S
C339 C343 1.400 . S
C340 H325 0.960 . S
C340 H326 0.960 . S
C340 H327 0.960 . S
C340 C339 1.524 . S
C341 C338 1.403 . S
C341 C342 1.392 . S
C341 C345 1.495 . S
C342 C341 1.392 . S
C342 C343 1.385 . S
C342 C344 1.478 . S
C343 H337 0.930 . S
C343 C339 1.400 . S
C343 C342 1.385 . S
C344 C342 1.478 . S
C344 C346 1.381 . S
C344 C350 1.383 . S
C345 C341 1.495 . S
C345 H351 0.959 . S
C345 H352 0.961 . S
C345 H353 0.960 . S
C346 C344 1.381 . S
C346 C347 1.394 . S
C346 H354 0.930 . S
C347 C346 1.394 . S
C347 C348 1.383 . S
C347 H355 0.929 . S
C348 C347 1.383 . S
C348 C349 1.377 . S
C349 H333 0.930 . S
C349 C348 1.377 . S
C349 C350 1.379 . S
C350 H334 0.931 . S
C350 C344 1.383 . S
C350 C349 1.379 . S
H351 C345 0.959 . S
H352 C345 0.961 . S
H353 C345 0.960 . S
H354 C346 0.930 . S
H355 C347 0.929 . S
H356 C364 0.929 . S
H357 C366 0.930 . S
H358 C368 0.930 . S
H359 C371 0.929 . S
H360 C374 0.930 . S
H361 C376 0.960 . S
H362 C376 0.960 . S
H363 C376 0.960 . S
C364 H356 0.929 . S
C364 C365 1.377 . S
C364 C366 1.384 . S
C365 C364 1.377 . S
C365 C371 1.390 . S
C366 H357 0.930 . S
C366 C364 1.384 . S
C366 C367 1.372 . S
C367 C366 1.372 . S
C367 C368 1.400 . S
C367 C372 1.490 . S
C368 H358 0.930 . S
C368 C367 1.400 . S
C368 C371 1.386 . S
H369 C385 0.930 . S
H370 C386 0.931 . S
C371 H359 0.929 . S
C371 C365 1.390 . S
C371 C368 1.386 . S
C372 C367 1.490 . S
C372 C374 1.395 . S
C372 C375 1.403 . S
H373 C379 0.930 . S
C374 H360 0.930 . S
C374 C372 1.395 . S
C374 C377 1.403 . S
C375 C372 1.403 . S
C375 C376 1.524 . S
C375 C379 1.400 . S
C376 H361 0.960 . S
C376 H362 0.960 . S
C376 H363 0.960 . S
C376 C375 1.524 . S
C377 C374 1.403 . S
C377 C378 1.392 . S
C377 C381 1.495 . S
C378 C377 1.392 . S
C378 C379 1.385 . S
C378 C380 1.478 . S
C379 H373 0.930 . S
C379 C375 1.400 . S
C379 C378 1.385 . S
C380 C378 1.478 . S
C380 C382 1.381 . S
C380 C386 1.383 . S
C381 C377 1.495 . S
C381 H387 0.959 . S
C381 H388 0.961 . S
C381 H389 0.960 . S
C382 C380 1.381 . S
C382 C383 1.394 . S
C382 H390 0.930 . S
C383 C382 1.394 . S
C383 C384 1.383 . S
C383 H391 0.929 . S
C384 C383 1.383 . S
C384 C385 1.377 . S
C385 H369 0.930 . S
C385 C384 1.377 . S
C385 C386 1.379 . S
C386 H370 0.931 . S
C386 C380 1.383 . S
C386 C385 1.379 . S
H387 C381 0.959 . S
H388 C381 0.961 . S
H389 C381 0.960 . S
H390 C382 0.930 . S
H391 C383 0.929 . S
H392 C400 0.929 . S
H393 C402 0.930 . S
H394 C404 0.930 . S
H395 C407 0.929 . S
H396 C410 0.930 . S
H397 C412 0.960 . S
H398 C412 0.960 . S
H399 C412 0.960 . S
C400 H392 0.929 . S
C400 C401 1.377 . S
C400 C402 1.384 . S
C401 C400 1.377 . S
C401 C407 1.390 . S
C402 H393 0.930 . S
C402 C400 1.384 . S
C402 C403 1.372 . S
C403 C402 1.372 . S
C403 C404 1.400 . S
C403 C408 1.490 . S
C404 H394 0.930 . S
C404 C403 1.400 . S
C404 C407 1.386 . S
H405 C421 0.930 . S
H406 C422 0.931 . S
C407 H395 0.929 . S
C407 C401 1.390 . S
C407 C404 1.386 . S
C408 C403 1.490 . S
C408 C410 1.395 . S
C408 C411 1.403 . S
H409 C415 0.930 . S
C410 H396 0.930 . S
C410 C408 1.395 . S
C410 C413 1.403 . S
C411 C408 1.403 . S
C411 C412 1.524 . S
C411 C415 1.400 . S
C412 H397 0.960 . S
C412 H398 0.960 . S
C412 H399 0.960 . S
C412 C411 1.524 . S
C413 C410 1.403 . S
C413 C414 1.392 . S
C413 C417 1.495 . S
C414 C413 1.392 . S
C414 C415 1.385 . S
C414 C416 1.478 . S
C415 H409 0.930 . S
C415 C411 1.400 . S
C415 C414 1.385 . S
C416 C414 1.478 . S
C416 C418 1.381 . S
C416 C422 1.383 . S
C417 C413 1.495 . S
C417 H423 0.959 . S
C417 H424 0.961 . S
C417 H425 0.960 . S
C418 C416 1.381 . S
C418 C419 1.394 . S
C418 H426 0.930 . S
C419 C418 1.394 . S
C419 C420 1.383 . S
C419 H427 0.929 . S
C420 C419 1.383 . S
C420 C421 1.377 . S
C421 H405 0.930 . S
C421 C420 1.377 . S
C421 C422 1.379 . S
C422 H406 0.931 . S
C422 C416 1.383 . S
C422 C421 1.379 . S
H423 C417 0.959 . S
H424 C417 0.961 . S
H425 C417 0.960 . S
H426 C418 0.930 . S
H427 C419 0.929 . S
H428 C436 0.929 . S
H429 C438 0.930 . S
H430 C440 0.930 . S
H431 C443 0.929 . S
H432 C446 0.930 . S
H433 C448 0.960 . S
H434 C448 0.960 . S
H435 C448 0.960 . S
C436 H428 0.929 . S
C436 C437 1.377 . S
C436 C438 1.384 . S
C437 C436 1.377 . S
C437 C443 1.390 . S
C438 H429 0.930 . S
C438 C436 1.384 . S
C438 C439 1.372 . S
C439 C438 1.372 . S
C439 C440 1.400 . S
C439 C444 1.490 . S
C440 H430 0.930 . S
C440 C439 1.400 . S
C440 C443 1.386 . S
H441 C457 0.930 . S
H442 C458 0.931 . S
C443 H431 0.929 . S
C443 C437 1.390 . S
C443 C440 1.386 . S
C444 C439 1.490 . S
C444 C446 1.395 . S
C444 C447 1.403 . S
H445 C451 0.930 . S
C446 H432 0.930 . S
C446 C444 1.395 . S
C446 C449 1.403 . S
C447 C444 1.403 . S
C447 C448 1.524 . S
C447 C451 1.400 . S
C448 H433 0.960 . S
C448 H434 0.960 . S
C448 H435 0.960 . S
C448 C447 1.524 . S
C449 C446 1.403 . S
C449 C450 1.392 . S
C449 C453 1.495 . S
C450 C449 1.392 . S
C450 C451 1.385 . S
C450 C452 1.478 . S
C451 H445 0.930 . S
C451 C447 1.400 . S
C451 C450 1.385 . S
C452 C450 1.478 . S
C452 C454 1.381 . S
C452 C458 1.383 . S
C453 C449 1.495 . S
C453 H459 0.959 . S
C453 H460 0.961 . S
C453 H461 0.960 . S
C454 C452 1.381 . S
C454 C455 1.394 . S
C454 H462 0.930 . S
C455 C454 1.394 . S
C455 C456 1.383 . S
C455 H463 0.929 . S
C456 C455 1.383 . S
C456 C457 1.377 . S
C457 H441 0.930 . S
C457 C456 1.377 . S
C457 C458 1.379 . S
C458 H442 0.931 . S
C458 C452 1.383 . S
C458 C457 1.379 . S
H459 C453 0.959 . S
H460 C453 0.961 . S
H461 C453 0.960 . S
H462 C454 0.930 . S
H463 C455 0.929 . S
H464 C472 0.929 . S
H465 C474 0.930 . S
H466 C476 0.930 . S
H467 C479 0.929 . S
H468 C482 0.930 . S
H469 C484 0.960 . S
H470 C484 0.960 . S
H471 C484 0.960 . S
C472 H464 0.929 . S
C472 C473 1.377 . S
C472 C474 1.384 . S
C473 C472 1.377 . S
C473 C479 1.390 . S
C474 H465 0.930 . S
C474 C472 1.384 . S
C474 C475 1.372 . S
C475 C474 1.372 . S
C475 C476 1.400 . S
C475 C480 1.490 . S
C476 H466 0.930 . S
C476 C475 1.400 . S
C476 C479 1.386 . S
H477 C493 0.930 . S
H478 C494 0.931 . S
C479 H467 0.929 . S
C479 C473 1.390 . S
C479 C476 1.386 . S
C480 C475 1.490 . S
C480 C482 1.395 1_554 S
C480 C483 1.403 . S
H481 C487 0.930 . S
C482 H468 0.930 . S
C482 C480 1.395 1_556 S
C482 C485 1.403 . S
C483 C480 1.403 . S
C483 C484 1.524 . S
C483 C487 1.400 . S
C484 H469 0.960 . S
C484 H470 0.960 . S
C484 H471 0.960 . S
C484 C483 1.524 . S
C485 C482 1.403 . S
C485 C486 1.392 . S
C485 C489 1.495 . S
C486 C485 1.392 . S
C486 C487 1.385 1_556 S
C486 C488 1.478 . S
C487 H481 0.930 . S
C487 C483 1.400 . S
C487 C486 1.385 1_554 S
C488 C486 1.478 . S
C488 C490 1.381 . S
C488 C494 1.383 . S
C489 C485 1.495 . S
C489 H495 0.959 . S
C489 H496 0.961 . S
C489 H497 0.960 . S
C490 C488 1.381 . S
C490 C491 1.394 . S
C490 H498 0.930 . S
C491 C490 1.394 . S
C491 C492 1.383 . S
C491 H499 0.929 . S
C492 C491 1.383 . S
C492 C493 1.377 . S
C493 H477 0.930 . S
C493 C492 1.377 . S
C493 C494 1.379 . S
C494 H478 0.931 . S
C494 C488 1.383 . S
C494 C493 1.379 . S
H495 C489 0.959 . S
H496 C489 0.961 . S
H497 C489 0.960 . S
H498 C490 0.930 . S
H499 C491 0.929 . S
H500 C508 0.929 . S
H501 C510 0.930 . S
H502 C512 0.930 . S
H503 C515 0.929 . S
H504 C518 0.930 . S
H505 C520 0.960 . S
H506 C520 0.960 . S
H507 C520 0.960 . S
C508 H500 0.929 . S
C508 C509 1.377 . S
C508 C510 1.384 . S
C509 C508 1.377 . S
C509 C515 1.390 . S
C510 H501 0.930 . S
C510 C508 1.384 . S
C510 C511 1.372 . S
C511 C510 1.372 . S
C511 C512 1.400 . S
C511 C516 1.490 . S
C512 H502 0.930 . S
C512 C511 1.400 . S
C512 C515 1.386 . S
H513 C529 0.930 . S
H514 C530 0.931 . S
C515 H503 0.929 . S
C515 C509 1.390 . S
C515 C512 1.386 . S
C516 C511 1.490 . S
C516 C518 1.395 . S
C516 C519 1.403 . S
H517 C523 0.930 . S
C518 H504 0.930 . S
C518 C516 1.395 . S
C518 C521 1.403 . S
C519 C516 1.403 . S
C519 C520 1.524 . S
C519 C523 1.400 . S
C520 H505 0.960 . S
C520 H506 0.960 . S
C520 H507 0.960 . S
C520 C519 1.524 . S
C521 C518 1.403 . S
C521 C522 1.392 . S
C521 C525 1.495 . S
C522 C521 1.392 . S
C522 C523 1.385 . S
C522 C524 1.478 . S
C523 H517 0.930 . S
C523 C519 1.400 . S
C523 C522 1.385 . S
C524 C522 1.478 . S
C524 C526 1.381 . S
C524 C530 1.383 . S
C525 C521 1.495 . S
C525 H531 0.959 . S
C525 H532 0.961 . S
C525 H533 0.960 . S
C526 C524 1.381 . S
C526 C527 1.394 . S
C526 H534 0.930 . S
C527 C526 1.394 . S
C527 C528 1.383 . S
C527 H535 0.929 . S
C528 C527 1.383 . S
C528 C529 1.377 . S
C529 H513 0.930 . S
C529 C528 1.377 . S
C529 C530 1.379 . S
C530 H514 0.931 . S
C530 C524 1.383 . S
C530 C529 1.379 . S
H531 C525 0.959 . S
H532 C525 0.961 . S
H533 C525 0.960 . S
H534 C526 0.930 . S
H535 C527 0.929 . S
H536 C544 0.929 . S
H537 C546 0.930 . S
H538 C548 0.930 . S
H539 C551 0.929 . S
H540 C554 0.930 . S
H541 C556 0.960 . S
H542 C556 0.960 . S
H543 C556 0.960 . S
C544 H536 0.929 . S
C544 C545 1.377 . S
C544 C546 1.384 . S
C545 C544 1.377 . S
C545 C551 1.390 . S
C546 H537 0.930 . S
C546 C544 1.384 . S
C546 C547 1.372 . S
C547 C546 1.372 . S
C547 C548 1.400 . S
C547 C552 1.490 . S
C548 H538 0.930 . S
C548 C547 1.400 . S
C548 C551 1.386 . S
H549 C565 0.930 . S
H550 C566 0.931 . S
C551 H539 0.929 . S
C551 C545 1.390 . S
C551 C548 1.386 . S
C552 C547 1.490 . S
C552 C554 1.395 1_556 S
C552 C555 1.403 . S
H553 C559 0.930 . S
C554 H540 0.930 . S
C554 C552 1.395 1_554 S
C554 C557 1.403 . S
C555 C552 1.403 . S
C555 C556 1.524 . S
C555 C559 1.400 . S
C556 H541 0.960 . S
C556 H542 0.960 . S
C556 H543 0.960 . S
C556 C555 1.524 . S
C557 C554 1.403 . S
C557 C558 1.392 . S
C557 C561 1.495 . S
C558 C557 1.392 . S
C558 C559 1.385 1_554 S
C558 C560 1.478 . S
C559 H553 0.930 . S
C559 C555 1.400 . S
C559 C558 1.385 1_556 S
C560 C558 1.478 . S
C560 C562 1.381 . S
C560 C566 1.383 . S
C561 C557 1.495 . S
C561 H567 0.959 . S
C561 H568 0.961 . S
C561 H569 0.960 . S
C562 C560 1.381 . S
C562 C563 1.394 . S
C562 H570 0.930 . S
C563 C562 1.394 . S
C563 C564 1.383 . S
C563 H571 0.929 . S
C564 C563 1.383 . S
C564 C565 1.377 . S
C565 H549 0.930 . S
C565 C564 1.377 . S
C565 C566 1.379 . S
C566 H550 0.931 . S
C566 C560 1.383 . S
C566 C565 1.379 . S
H567 C561 0.959 . S
H568 C561 0.961 . S
H569 C561 0.960 . S
H570 C562 0.930 . S
H571 C563 0.929 . S
H572 C580 0.929 . S
H573 C582 0.930 . S
H574 C584 0.930 . S
H575 C587 0.929 . S
H576 C590 0.930 . S
H577 C592 0.960 . S
H578 C592 0.960 . S
H579 C592 0.960 . S
C580 H572 0.929 . S
C580 C581 1.377 . S
C580 C582 1.384 . S
C581 C580 1.377 . S
C581 C587 1.390 . S
C582 H573 0.930 . S
C582 C580 1.384 . S
C582 C583 1.372 . S
C583 C582 1.372 . S
C583 C584 1.400 . S
C583 C588 1.490 . S
C584 H574 0.930 . S
C584 C583 1.400 . S
C584 C587 1.386 . S
H585 C601 0.930 . S
H586 C602 0.931 . S
C587 H575 0.929 . S
C587 C581 1.390 . S
C587 C584 1.386 . S
C588 C583 1.490 . S
C588 C590 1.395 . S
C588 C591 1.403 . S
H589 C595 0.930 . S
C590 H576 0.930 . S
C590 C588 1.395 . S
C590 C593 1.403 . S
C591 C588 1.403 . S
C591 C592 1.524 . S
C591 C595 1.400 . S
C592 H577 0.960 . S
C592 H578 0.960 . S
C592 H579 0.960 . S
C592 C591 1.524 . S
C593 C590 1.403 . S
C593 C594 1.392 . S
C593 C597 1.495 . S
C594 C593 1.392 . S
C594 C595 1.385 . S
C594 C596 1.478 . S
C595 H589 0.930 . S
C595 C591 1.400 . S
C595 C594 1.385 . S
C596 C594 1.478 . S
C596 C598 1.381 . S
C596 C602 1.383 . S
C597 C593 1.495 . S
C597 H603 0.959 . S
C597 H604 0.961 . S
C597 H605 0.960 . S
C598 C596 1.381 . S
C598 C599 1.394 . S
C598 H606 0.930 . S
C599 C598 1.394 . S
C599 C600 1.383 . S
C599 H607 0.929 . S
C600 C599 1.383 . S
C600 C601 1.377 . S
C601 H585 0.930 . S
C601 C600 1.377 . S
C601 C602 1.379 . S
C602 H586 0.931 . S
C602 C596 1.383 . S
C602 C601 1.379 . S
H603 C597 0.959 . S
H604 C597 0.961 . S
H605 C597 0.960 . S
H606 C598 0.930 . S
H607 C599 0.929 . S
H608 C616 0.929 1_556 S
H609 C618 0.930 . S
H610 C620 0.930 . S
H611 C623 0.929 . S
H612 C626 0.929 1_554 S
H613 C628 0.960 . S
H614 C628 0.960 1_556 S
H615 C628 0.960 . S
C616 H608 0.929 1_554 S
C616 C617 1.377 . S
C616 C618 1.384 1_554 S
C617 C616 1.377 . S
C617 C623 1.390 . S
C618 H609 0.930 . S
C618 C616 1.384 1_556 S
C618 C619 1.372 1_556 S
C619 C618 1.372 1_554 S
C619 C620 1.400 . S
C619 C624 1.490 . S
C620 H610 0.930 . S
C620 C619 1.400 . S
C620 C623 1.386 . S
H621 C637 0.930 1_554 S
H622 C638 0.931 . S
C623 H611 0.929 . S
C623 C617 1.390 . S
C623 C620 1.386 . S
C624 C619 1.490 . S
C624 C626 1.392 1_554 S
C624 C627 1.403 . S
H625 C631 0.930 . S
C626 H612 0.929 1_556 S
C626 C624 1.392 1_556 S
C626 C629 1.406 . S
C627 C624 1.403 . S
C627 C628 1.524 . S
C627 C631 1.400 1_554 S
C628 H613 0.960 . S
C628 H614 0.960 1_554 S
C628 H615 0.960 . S
C628 C627 1.524 . S
C629 C626 1.406 . S
C629 C630 1.392 . S
C629 C633 1.495 . S
C630 C629 1.392 . S
C630 C631 1.385 . S
C630 C632 1.478 . S
C631 H625 0.930 . S
C631 C627 1.400 1_556 S
C631 C630 1.385 . S
C632 C630 1.478 . S
C632 C634 1.381 . S
C632 C638 1.383 1_556 S
C633 C629 1.495 . S
C633 H639 0.959 . S
C633 H640 0.962 1_556 S
C633 H641 0.960 . S
C634 C632 1.381 . S
C634 C635 1.394 . S
C634 H642 0.930 . S
C635 C634 1.394 . S
C635 C636 1.383 . S
C635 H643 0.929 . S
C636 C635 1.383 . S
C636 C637 1.377 . S
C637 H621 0.930 1_556 S
C637 C636 1.377 . S
C637 C638 1.379 1_556 S
C638 H622 0.931 . S
C638 C632 1.383 1_554 S
C638 C637 1.379 1_554 S
H639 C633 0.959 . S
H640 C633 0.962 1_554 S
H641 C633 0.960 . S
H642 C634 0.930 . S
H643 C635 0.929 . S
H644 C652 0.929 . S
H645 C654 0.930 . S
H646 C656 0.930 . S
H647 C659 0.929 . S
H648 C662 0.930 . S
H649 C664 0.960 . S
H650 C664 0.960 . S
H651 C664 0.960 . S
C652 H644 0.929 . S
C652 C653 1.377 . S
C652 C654 1.384 . S
C653 C652 1.377 . S
C653 C659 1.390 . S
C654 H645 0.930 . S
C654 C652 1.384 . S
C654 C655 1.372 . S
C655 C654 1.372 . S
C655 C656 1.400 . S
C655 C660 1.490 . S
C656 H646 0.930 . S
C656 C655 1.400 . S
C656 C659 1.386 . S
H657 C673 0.930 . S
H658 C674 0.931 . S
C659 H647 0.929 . S
C659 C653 1.390 . S
C659 C656 1.386 . S
C660 C655 1.490 . S
C660 C662 1.395 . S
C660 C663 1.403 . S
H661 C667 0.930 . S
C662 H648 0.930 . S
C662 C660 1.395 . S
C662 C665 1.403 . S
C663 C660 1.403 . S
C663 C664 1.524 . S
C663 C667 1.400 . S
C664 H649 0.960 . S
C664 H650 0.960 . S
C664 H651 0.960 . S
C664 C663 1.524 . S
C665 C662 1.403 . S
C665 C666 1.392 . S
C665 C669 1.495 . S
C666 C665 1.392 . S
C666 C667 1.385 . S
C666 C668 1.478 . S
C667 H661 0.930 . S
C667 C663 1.400 . S
C667 C666 1.385 . S
C668 C666 1.478 . S
C668 C670 1.381 . S
C668 C674 1.383 . S
C669 C665 1.495 . S
C669 H675 0.959 . S
C669 H676 0.961 . S
C669 H677 0.960 . S
C670 C668 1.381 . S
C670 C671 1.394 . S
C670 H678 0.930 . S
C671 C670 1.394 . S
C671 C672 1.383 . S
C671 H679 0.929 . S
C672 C671 1.383 . S
C672 C673 1.377 . S
C673 H657 0.930 . S
C673 C672 1.377 . S
C673 C674 1.379 . S
C674 H658 0.931 . S
C674 C668 1.383 . S
C674 C673 1.379 . S
H675 C669 0.959 . S
H676 C669 0.961 . S
H677 C669 0.960 . S
H678 C670 0.930 . S
H679 C671 0.929 . S
H680 C688 0.929 . S
H681 C690 0.930 . S
H682 C692 0.930 . S
H683 C695 0.929 . S
H684 C698 0.930 . S
H685 C700 0.960 . S
H686 C700 0.960 . S
H687 C700 0.960 . S
C688 H680 0.929 . S
C688 C689 1.377 . S
C688 C690 1.384 . S
C689 C688 1.377 . S
C689 C695 1.390 . S
C690 H681 0.930 . S
C690 C688 1.384 . S
C690 C691 1.372 . S
C691 C690 1.372 . S
C691 C692 1.400 . S
C691 C696 1.490 . S
C692 H682 0.930 . S
C692 C691 1.400 . S
C692 C695 1.386 . S
H693 C709 0.930 . S
H694 C710 0.931 1_554 S
C695 H683 0.929 . S
C695 C689 1.390 . S
C695 C692 1.386 . S
C696 C691 1.490 . S
C696 C698 1.395 . S
C696 C699 1.403 1_554 S
H697 C703 0.930 . S
C698 H684 0.930 . S
C698 C696 1.395 . S
C698 C701 1.403 . S
C699 C696 1.403 1_556 S
C699 C700 1.524 . S
C699 C703 1.400 . S
C700 H685 0.960 . S
C700 H686 0.960 . S
C700 H687 0.960 . S
C700 C699 1.524 . S
C701 C698 1.403 . S
C701 C702 1.392 1_554 S
C701 C705 1.495 . S
C702 C701 1.392 1_556 S
C702 C703 1.385 . S
C702 C704 1.478 . S
C703 H697 0.930 . S
C703 C699 1.400 . S
C703 C702 1.385 . S
C704 C702 1.478 . S
C704 C706 1.381 . S
C704 C710 1.383 . S
C705 C701 1.495 . S
C705 H711 0.959 . S
C705 H712 0.961 . S
C705 H713 0.960 . S
C706 C704 1.381 . S
C706 C707 1.394 . S
C706 H714 0.930 . S
C707 C706 1.394 . S
C707 C708 1.383 . S
C707 H715 0.929 . S
C708 C707 1.383 . S
C708 C709 1.377 . S
C709 H693 0.930 . S
C709 C708 1.377 . S
C709 C710 1.379 . S
C710 H694 0.931 1_556 S
C710 C704 1.383 . S
C710 C709 1.379 . S
H711 C705 0.959 . S
H712 C705 0.961 . S
H713 C705 0.960 . S
H714 C706 0.930 . S
H715 C707 0.929 . S
H716 C724 0.929 . S
H717 C726 0.930 . S
H718 C728 0.930 . S
H719 C731 0.929 . S
H720 C734 0.930 . S
H721 C736 0.960 . S
H722 C736 0.960 . S
H723 C736 0.960 . S
C724 H716 0.929 . S
C724 C725 1.377 . S
C724 C726 1.384 . S
C725 C724 1.377 . S
C725 C731 1.390 . S
C726 H717 0.930 . S
C726 C724 1.384 . S
C726 C727 1.372 . S
C727 C726 1.372 . S
C727 C728 1.400 . S
C727 C732 1.490 . S
C728 H718 0.930 . S
C728 C727 1.400 . S
C728 C731 1.386 . S
H729 C745 0.930 . S
H730 C746 0.931 . S
C731 H719 0.929 . S
C731 C725 1.390 . S
C731 C728 1.386 . S
C732 C727 1.490 . S
C732 C734 1.395 . S
C732 C735 1.403 . S
H733 C739 0.930 . S
C734 H720 0.930 . S
C734 C732 1.395 . S
C734 C737 1.403 . S
C735 C732 1.403 . S
C735 C736 1.524 . S
C735 C739 1.400 . S
C736 H721 0.960 . S
C736 H722 0.960 . S
C736 H723 0.960 . S
C736 C735 1.524 . S
C737 C734 1.403 . S
C737 C738 1.392 . S
C737 C741 1.495 . S
C738 C737 1.392 . S
C738 C739 1.385 . S
C738 C740 1.478 . S
C739 H733 0.930 . S
C739 C735 1.400 . S
C739 C738 1.385 . S
C740 C738 1.478 . S
C740 C742 1.381 . S
C740 C746 1.383 . S
C741 C737 1.495 . S
C741 H747 0.959 . S
C741 H748 0.961 . S
C741 H749 0.960 . S
C742 C740 1.381 . S
C742 C743 1.394 . S
C742 H750 0.930 . S
C743 C742 1.394 . S
C743 C744 1.383 . S
C743 H751 0.929 . S
C744 C743 1.383 . S
C744 C745 1.377 . S
C745 H729 0.930 . S
C745 C744 1.377 . S
C745 C746 1.379 . S
C746 H730 0.931 . S
C746 C740 1.383 . S
C746 C745 1.379 . S
H747 C741 0.959 . S
H748 C741 0.961 . S
H749 C741 0.960 . S
H750 C742 0.930 . S
H751 C743 0.929 . S
H752 C760 0.929 . S
H753 C762 0.878 1_455 S
H754 C764 0.930 1_554 S
H755 C767 0.931 1_554 S
H756 C770 0.930 . S
H757 C772 0.960 . S
H758 C772 0.960 . S
H759 C772 0.960 . S
C760 H752 0.929 . S
C760 C761 1.377 . S
C760 C762 1.384 . S
C761 C760 1.377 . S
C761 C767 1.390 . S
C762 H753 0.878 1_655 S
C762 C760 1.384 . S
C762 C763 1.372 . S
C763 C762 1.372 . S
C763 C764 1.400 . S
C763 C768 1.490 . S
C764 H754 0.930 1_556 S
C764 C763 1.400 . S
C764 C767 1.386 . S
H765 C781 0.930 . S
H766 C782 0.931 . S
C767 H755 0.931 1_556 S
C767 C761 1.390 . S
C767 C764 1.386 . S
C768 C763 1.490 . S
C768 C770 1.397 1_655 S
C768 C771 1.403 . S
H769 C775 0.930 . S
C770 H756 0.930 . S
C770 C768 1.397 1_455 S
C770 C773 1.401 1_556 S
C771 C768 1.403 . S
C771 C772 1.524 . S
C771 C775 1.406 . S
C772 H757 0.960 . S
C772 H758 0.960 . S
C772 H759 0.960 . S
C772 C771 1.524 . S
C773 C770 1.401 1_554 S
C773 C774 1.392 . S
C773 C777 1.495 . S
C774 C773 1.392 . S
C774 C775 1.380 1_454 S
C774 C776 1.478 . S
C775 H769 0.930 . S
C775 C771 1.406 . S
C775 C774 1.380 1_656 S
C776 C774 1.478 . S
C776 C778 1.381 . S
C776 C782 1.383 . S
C777 C773 1.495 . S
C777 H783 0.959 . S
C777 H784 0.961 . S
C777 H785 0.960 . S
C778 C776 1.381 . S
C778 C779 1.394 . S
C778 H786 0.930 1_554 S
C779 C778 1.394 . S
C779 C780 1.383 . S
C779 H787 0.929 1_554 S
C780 C779 1.383 . S
C780 C781 1.377 . S
C781 H765 0.930 . S
C781 C780 1.377 . S
C781 C782 1.379 . S
C782 H766 0.931 . S
C782 C776 1.383 . S
C782 C781 1.379 . S
H783 C777 0.959 . S
H784 C777 0.961 . S
H785 C777 0.960 . S
H786 C778 0.930 1_556 S
H787 C779 0.929 1_556 S
H788 C796 0.929 . S
H789 C798 0.930 . S
H790 C800 0.978 . S
H791 C803 0.929 . S
H792 C806 0.930 . S
H793 C808 0.960 . S
H794 C808 0.960 . S
H795 C808 0.960 . S
C796 H788 0.929 . S
C796 C797 1.377 . S
C796 C798 1.384 . S
C797 C796 1.377 . S
C797 C803 1.390 . S
C798 H789 0.930 . S
C798 C796 1.384 . S
C798 C799 1.372 . S
C799 C798 1.372 . S
C799 C800 1.400 . S
C799 C804 1.490 . S
C800 H790 0.978 . S
C800 C799 1.400 . S
C800 C803 1.386 . S
H801 C817 0.930 . S
H802 C818 0.931 . S
C803 H791 0.929 . S
C803 C797 1.390 . S
C803 C800 1.386 . S
C804 C799 1.490 . S
C804 C806 1.395 . S
C804 C807 1.403 1_545 S
H805 C811 0.930 . S
C806 H792 0.930 . S
C806 C804 1.395 . S
C806 C809 1.403 1_455 S
C807 C804 1.403 1_565 S
C807 C808 1.524 . S
C807 C811 1.400 1_455 S
C808 H793 0.960 . S
C808 H794 0.960 . S
C808 H795 0.960 . S
C808 C807 1.524 . S
C809 C806 1.403 1_655 S
C809 C810 1.392 1_545 S
C809 C813 1.495 . S
C810 C809 1.392 1_565 S
C810 C811 1.385 . S
C810 C812 1.478 . S
C811 H805 0.930 . S
C811 C807 1.400 1_655 S
C811 C810 1.385 . S
C812 C810 1.478 . S
C812 C814 1.381 . S
C812 C818 1.383 . S
C813 C809 1.495 . S
C813 H819 0.959 . S
C813 H820 0.961 . S
C813 H821 0.960 . S
C814 C812 1.381 . S
C814 C815 1.394 . S
C814 H822 0.945 . S
C815 C814 1.394 . S
C815 C816 1.383 . S
C815 H823 0.929 . S
C816 C815 1.383 . S
C816 C817 1.377 . S
C817 H801 0.930 . S
C817 C816 1.377 . S
C817 C818 1.379 . S
C818 H802 0.931 . S
C818 C812 1.383 . S
C818 C817 1.379 . S
H819 C813 0.959 . S
H820 C813 0.961 . S
H821 C813 0.960 . S
H822 C814 0.945 . S
H823 C815 0.929 . S
H824 C832 0.929 . S
H825 C834 0.930 1_556 S
H826 C836 0.930 . S
H827 C839 0.929 . S
H828 C842 0.930 . S
H829 C844 0.960 1_565 S
H830 C844 0.960 . S
H831 C844 0.960 1_554 S
C832 H824 0.929 . S
C832 C833 1.377 . S
C832 C834 1.384 . S
C833 C832 1.377 . S
C833 C839 1.390 . S
C834 H825 0.930 1_554 S
C834 C832 1.384 . S
C834 C835 1.372 . S
C835 C834 1.372 . S
C835 C836 1.400 . S
C835 C840 1.490 . S
C836 H826 0.930 . S
C836 C835 1.400 . S
C836 C839 1.386 . S
H837 C853 0.930 1_554 S
H838 C854 0.931 1_554 S
C839 H827 0.929 . S
C839 C833 1.390 . S
C839 C836 1.386 . S
C840 C835 1.490 . S
C840 C842 1.395 . S
C840 C843 1.403 1_554 S
H841 C847 0.930 . S
C842 H828 0.930 . S
C842 C840 1.395 . S
C842 C845 1.366 1_545 S
C843 C840 1.403 1_556 S
C843 C844 1.524 . S
C843 C847 1.400 1_545 S
C844 H829 0.960 1_545 S
C844 H830 0.960 . S
C844 H831 0.960 1_556 S
C844 C843 1.524 . S
C845 C842 1.366 1_565 S
C845 C846 1.427 1_554 S
C845 C849 1.498 . S
C846 C845 1.427 1_556 S
C846 C847 1.385 . S
C846 C848 1.478 . S
C847 H841 0.930 . S
C847 C843 1.400 1_565 S
C847 C846 1.385 . S
C848 C846 1.478 . S
C848 C850 1.381 . S
C848 C854 1.383 . S
C849 C845 1.498 . S
C849 H855 0.959 1_565 S
C849 H856 0.961 . S
C849 H857 0.960 1_554 S
C850 C848 1.381 . S
C850 C851 1.394 . S
C850 H858 0.930 . S
C851 C850 1.394 . S
C851 C852 1.383 . S
C851 H859 0.929 . S
C852 C851 1.383 . S
C852 C853 1.377 . S
C853 H837 0.930 1_556 S
C853 C852 1.377 . S
C853 C854 1.380 . S
C854 H838 0.931 1_556 S
C854 C848 1.383 . S
C854 C853 1.380 . S
H855 C849 0.959 1_545 S
H856 C849 0.961 . S
H857 C849 0.960 1_556 S
H858 C850 0.930 . S
H859 C851 0.929 . S
H860 C868 0.929 . S
H861 C870 0.930 . S
H862 C872 0.930 . S
H863 C875 0.929 . S
H864 C878 0.930 . S
H865 C880 0.960 . S
H866 C880 0.960 . S
H867 C880 0.960 . S
C868 H860 0.929 . S
C868 C869 1.377 . S
C868 C870 1.384 . S
C869 C868 1.377 . S
C869 C875 1.390 . S
C870 H861 0.930 . S
C870 C868 1.384 . S
C870 C871 1.372 . S
C871 C870 1.372 . S
C871 C872 1.400 . S
C871 C876 1.490 . S
C872 H862 0.930 . S
C872 C871 1.400 . S
C872 C875 1.386 . S
H873 C889 0.930 . S
H874 C890 0.931 . S
C875 H863 0.929 . S
C875 C869 1.390 . S
C875 C872 1.386 . S
C876 C871 1.490 . S
C876 C878 1.395 . S
C876 C879 1.403 . S
H877 C883 0.930 . S
C878 H864 0.930 . S
C878 C876 1.395 . S
C878 C881 1.403 . S
C879 C876 1.403 . S
C879 C880 1.524 . S
C879 C883 1.400 . S
C880 H865 0.960 . S
C880 H866 0.960 . S
C880 H867 0.960 . S
C880 C879 1.524 . S
C881 C878 1.403 . S
C881 C882 1.392 . S
C881 C885 1.495 . S
C882 C881 1.392 . S
C882 C883 1.385 . S
C882 C884 1.478 . S
C883 H877 0.930 . S
C883 C879 1.400 . S
C883 C882 1.385 . S
C884 C882 1.478 . S
C884 C886 1.381 . S
C884 C890 1.383 . S
C885 C881 1.495 . S
C885 H891 0.959 . S
C885 H892 0.961 . S
C885 H893 0.960 . S
C886 C884 1.381 . S
C886 C887 1.394 . S
C886 H894 0.930 . S
C887 C886 1.394 . S
C887 C888 1.383 . S
C887 H895 0.929 . S
C888 C887 1.383 . S
C888 C889 1.377 . S
C889 H873 0.930 . S
C889 C888 1.377 . S
C889 C890 1.379 . S
C890 H874 0.931 . S
C890 C884 1.383 . S
C890 C889 1.379 . S
H891 C885 0.959 . S
H892 C885 0.961 . S
H893 C885 0.960 . S
H894 C886 0.930 . S
H895 C887 0.929 . S
H896 C904 0.929 . S
H897 C906 0.930 1_655 S
H898 C908 0.930 . S
H899 C911 0.929 . S
H900 C914 0.930 . S
H901 C916 0.960 . S
H902 C916 0.960 . S
H903 C916 0.960 . S
C904 H896 0.929 . S
C904 C905 1.377 . S
C904 C906 1.384 . S
C905 C904 1.377 . S
C905 C911 1.390 . S
C906 H897 0.930 1_455 S
C906 C904 1.384 . S
C906 C907 1.372 . S
C907 C906 1.372 . S
C907 C908 1.400 . S
C907 C912 1.490 . S
C908 H898 0.930 . S
C908 C907 1.400 . S
C908 C911 1.386 . S
H909 C925 0.930 . S
H910 C926 0.922 1_456 S
C911 H899 0.929 . S
C911 C905 1.390 . S
C911 C908 1.386 . S
C912 C907 1.490 . S
C912 C914 1.395 1_455 S
C912 C915 1.403 1_556 S
H913 C919 0.930 . S
C914 H900 0.930 . S
C914 C912 1.395 1_655 S
C914 C917 1.403 1_545 S
C915 C912 1.403 1_554 S
C915 C916 1.524 . S
C915 C919 1.400 1_545 S
C916 H901 0.960 . S
C916 H902 0.960 . S
C916 H903 0.960 . S
C916 C915 1.524 . S
C917 C914 1.403 1_565 S
C917 C918 1.392 1_556 S
C917 C921 1.495 . S
C918 C917 1.392 1_554 S
C918 C919 1.385 1_655 S
C918 C920 1.478 . S
C919 H913 0.930 . S
C919 C915 1.400 1_565 S
C919 C918 1.385 1_455 S
C920 C918 1.478 . S
C920 C922 1.381 . S
C920 C926 1.383 . S
C921 C917 1.495 . S
C921 H927 1.005 . S
C921 H928 0.961 . S
C921 H929 0.960 . S
C922 C920 1.381 . S
C922 C923 1.394 . S
C922 H930 0.930 . S
C923 C922 1.394 . S
C923 C924 1.383 . S
C923 H931 0.929 . S
C924 C923 1.383 . S
C924 C925 1.377 . S
C925 H909 0.930 . S
C925 C924 1.377 . S
C925 C926 1.379 . S
C926 H910 0.922 1_654 S
C926 C920 1.383 . S
C926 C925 1.379 . S
H927 C921 1.005 . S
H928 C921 0.961 . S
H929 C921 0.960 . S
H930 C922 0.930 . S
H931 C923 0.929 . S
H932 C940 0.929 . S
H933 C942 0.930 . S
H934 C944 0.930 . S
H935 C947 0.929 . S
H936 C950 0.930 . S
H937 C952 0.960 . S
H938 C952 0.960 . S
H939 C952 0.960 1_545 S
C940 H932 0.929 . S
C940 C941 1.377 . S
C940 C942 1.384 . S
C941 C940 1.377 . S
C941 C947 1.390 . S
C942 H933 0.930 . S
C942 C940 1.384 . S
C942 C943 1.372 . S
C943 C942 1.372 . S
C943 C944 1.400 . S
C943 C948 1.490 . S
C944 H934 0.930 . S
C944 C943 1.400 . S
C944 C947 1.386 . S
H945 C961 0.930 . S
H946 C962 0.926 1_545 S
C947 H935 0.929 . S
C947 C941 1.390 . S
C947 C944 1.386 . S
C948 C943 1.490 . S
C948 C950 1.395 . S
C948 C951 1.403 1_545 S
H949 C955 0.930 . S
C950 H936 0.930 . S
C950 C948 1.395 . S
C950 C953 1.403 . S
C951 C948 1.403 1_565 S
C951 C952 1.524 . S
C951 C955 1.400 . S
C952 H937 0.960 . S
C952 H938 0.960 . S
C952 H939 0.960 1_565 S
C952 C951 1.524 . S
C953 C950 1.403 . S
C953 C954 1.392 1_545 S
C953 C957 1.495 . S
C954 C953 1.392 1_565 S
C954 C955 1.385 . S
C954 C956 1.478 . S
C955 H949 0.930 . S
C955 C951 1.400 . S
C955 C954 1.385 . S
C956 C954 1.478 . S
C956 C958 1.381 . S
C956 C962 1.383 . S
C957 C953 1.495 . S
C957 H963 0.959 . S
C957 H964 0.961 . S
C957 H965 0.960 1_545 S
C958 C956 1.381 . S
C958 C959 1.394 . S
C958 H966 0.930 . S
C959 C958 1.394 . S
C959 C960 1.383 . S
C959 H967 0.929 . S
C960 C959 1.383 . S
C960 C961 1.377 . S
C961 H945 0.930 . S
C961 C960 1.377 . S
C961 C962 1.379 . S
C962 H946 0.926 1_565 S
C962 C956 1.383 . S
C962 C961 1.379 . S
H963 C957 0.959 . S
H964 C957 0.961 . S
H965 C957 0.960 1_565 S
H966 C958 0.930 . S
H967 C959 0.929 . S
H968 C976 0.929 . S
H969 C978 0.930 . S
H970 C980 0.930 . S
H971 C983 0.929 . S
H972 C986 0.930 . S
H973 C988 0.960 . S
H974 C988 0.960 . S
H975 C988 0.960 . S
C976 H968 0.929 . S
C976 C977 1.377 . S
C976 C978 1.384 . S
C977 C976 1.377 . S
C977 C983 1.390 . S
C978 H969 0.930 . S
C978 C976 1.384 . S
C978 C979 1.372 . S
C979 C978 1.372 . S
C979 C980 1.400 . S
C979 C984 1.490 . S
C980 H970 0.930 . S
C980 C979 1.400 . S
C980 C983 1.386 . S
H981 C997 0.930 . S
H982 C998 0.931 . S
C983 H971 0.929 . S
C983 C977 1.390 . S
C983 C980 1.386 . S
C984 C979 1.490 . S
C984 C986 1.395 . S
C984 C987 1.403 1_554 S
H985 C991 0.930 . S
C986 H972 0.930 . S
C986 C984 1.395 . S
C986 C989 1.403 . S
C987 C984 1.403 1_556 S
C987 C988 1.524 . S
C987 C991 1.400 . S
C988 H973 0.960 . S
C988 H974 0.960 . S
C988 H975 0.960 . S
C988 C987 1.524 . S
C989 C986 1.403 . S
C989 C990 1.392 1_554 S
C989 C993 1.495 . S
C990 C989 1.392 1_556 S
C990 C991 1.385 . S
C990 C992 1.478 . S
C991 H985 0.930 . S
C991 C987 1.400 . S
C991 C990 1.385 . S
C992 C990 1.478 . S
C992 C994 1.381 . S
C992 C998 1.383 . S
C993 C989 1.495 . S
C993 H999 0.959 . S
C993 H1000 0.961 . S
C993 H1001 0.960 . S
C994 C992 1.381 . S
C994 C995 1.394 . S
C994 H1002 0.930 . S
C995 C994 1.394 . S
C995 C996 1.383 . S
C995 H1003 0.929 . S
C996 C995 1.383 . S
C996 C997 1.377 . S
C997 H981 0.930 . S
C997 C996 1.377 . S
C997 C998 1.379 . S
C998 H982 0.931 . S
C998 C992 1.383 . S
C998 C997 1.379 . S
H999 C993 0.959 . S
H1000 C993 0.961 . S
H1001 C993 0.960 . S
H1002 C994 0.930 . S
H1003 C995 0.929 . S
H1004 C1012 0.929 . S
H1005 C1014 0.930 . S
H1006 C1016 0.930 . S
H1007 C1019 0.929 . S
H1008 C1022 0.930 . S
H1009 C1024 0.960 . S
H1010 C1024 0.960 . S
H1011 C1024 0.960 . S
C1012 H1004 0.929 . S
C1012 C1013 1.377 . S
C1012 C1014 1.384 . S
C1013 C1012 1.377 . S
C1013 C1019 1.390 . S
C1014 H1005 0.930 . S
C1014 C1012 1.384 . S
C1014 C1015 1.372 . S
C1015 C1014 1.372 . S
C1015 C1016 1.400 . S
C1015 C1020 1.490 . S
C1016 H1006 0.930 . S
C1016 C1015 1.400 . S
C1016 C1019 1.386 . S
H1017 C1033 0.930 . S
H1018 C1034 0.931 . S
C1019 H1007 0.929 . S
C1019 C1013 1.390 . S
C1019 C1016 1.386 . S
C1020 C1015 1.490 . S
C1020 C1022 1.395 . S
C1020 C1023 1.403 . S
H1021 C1027 0.930 . S
C1022 H1008 0.930 . S
C1022 C1020 1.395 . S
C1022 C1025 1.403 1_655 S
C1023 C1020 1.403 . S
C1023 C1024 1.524 . S
C1023 C1027 1.400 1_655 S
C1024 H1009 0.960 . S
C1024 H1010 0.960 . S
C1024 H1011 0.960 . S
C1024 C1023 1.524 . S
C1025 C1022 1.403 1_455 S
C1025 C1026 1.392 . S
C1025 C1029 1.495 . S
C1026 C1025 1.392 . S
C1026 C1027 1.385 . S
C1026 C1028 1.478 . S
C1027 H1021 0.930 . S
C1027 C1023 1.400 1_455 S
C1027 C1026 1.385 . S
C1028 C1026 1.478 . S
C1028 C1030 1.381 . S
C1028 C1034 1.383 . S
C1029 C1025 1.495 . S
C1029 H1035 0.959 . S
C1029 H1036 0.961 . S
C1029 H1037 0.960 . S
C1030 C1028 1.381 . S
C1030 C1031 1.394 . S
C1030 H1038 0.930 . S
C1031 C1030 1.394 . S
C1031 C1032 1.383 . S
C1031 H1039 0.929 . S
C1032 C1031 1.383 . S
C1032 C1033 1.377 . S
C1033 H1017 0.930 . S
C1033 C1032 1.377 . S
C1033 C1034 1.379 . S
C1034 H1018 0.931 . S
C1034 C1028 1.383 . S
C1034 C1033 1.379 . S
H1035 C1029 0.959 . S
H1036 C1029 0.961 . S
H1037 C1029 0.960 . S
H1038 C1030 0.930 . S
H1039 C1031 0.929 . S
C185 C7 1.457 . S
C204 C84 1.435 . S
C221 C18 1.464 . S
C240 C51 1.447 . S
C257 C62 1.458 . S
C276 C29 1.431 . S
C293 C73 1.464 . S
C312 C40 1.449 . S
C329 C95 1.492 . S
C348 C172 1.473 . S
C365 C139 1.483 . S
C384 C106 1.496 . S
C401 C150 1.489 . S
C420 C117 1.500 . S
C437 C128 1.484 . S
C456 C161 1.476 . S
C473 C8 1.507 . S
C492 C52 1.492 . S
C509 C63 1.512 . S
C528 C19 1.521 . S
C545 C74 1.507 . S
C564 C30 1.492 . S
C581 C41 1.507 . S
C600 C85 1.492 . S
C617 C140 1.521 . S
C636 C96 1.526 . S
C653 C151 1.521 . S
C672 C107 1.526 . S
C689 C162 1.522 . S
C708 C118 1.524 . S
C725 C129 1.522 . S
C744 C173 1.524 . S
C761 C93 1.359 . S
C780 C5 1.304 . S
C797 C16 1.274 . S
C816 C104 1.400 . S
C833 C27 1.291 . S
C852 C115 1.314 . S
C869 C126 1.370 . S
C888 C38 1.229 . S
C905 C49 1.287 . S
C924 C137 1.327 . S
C941 C60 1.273 . S
C960 C148 1.383 . S
C977 C159 1.354 . S
C996 C71 1.299 . S
C1013 C170 1.365 . S
C1032 C82 1.238 . S
