# Generated by pormake.
# Topology snp, (6)-cn, num edge types: 1
# Building blocks:
#     Node 0, Type 0, BuildingBlock: KUMBOL_clean_sbu_1, # of connection points: 6
#     Node 1, Type 0, BuildingBlock: KUMBOL_clean_sbu_1, # of connection points: 6
#     Node 2, Type 0, BuildingBlock: KUMBOL_clean_sbu_1, # of connection points: 6
#     Node 3, Type 0, BuildingBlock: KUMBOL_clean_sbu_1, # of connection points: 6
#     Edge 4, Type (0, 0), BuildingBlock: XIVTED_clean_linker_0, # of connection points: 2
#     Edge 5, Type (0, 0), BuildingBlock: XIVTED_clean_linker_0, # of connection points: 2
#     Edge 6, Type (0, 0), BuildingBlock: XIVTED_clean_linker_0, # of connection points: 2
#     Edge 7, Type (0, 0), BuildingBlock: XIVTED_clean_linker_0, # of connection points: 2
#     Edge 8, Type (0, 0), BuildingBlock: XIVTED_clean_linker_0, # of connection points: 2
#     Edge 9, Type (0, 0), BuildingBlock: XIVTED_clean_linker_0, # of connection points: 2
#     Edge 10, Type (0, 0), BuildingBlock: XIVTED_clean_linker_0, # of connection points: 2
#     Edge 11, Type (0, 0), BuildingBlock: XIVTED_clean_linker_0, # of connection points: 2
#     Edge 12, Type (0, 0), BuildingBlock: XIVTED_clean_linker_0, # of connection points: 2
#     Edge 13, Type (0, 0), BuildingBlock: XIVTED_clean_linker_0, # of connection points: 2
#     Edge 14, Type (0, 0), BuildingBlock: XIVTED_clean_linker_0, # of connection points: 2
#     Edge 15, Type (0, 0), BuildingBlock: XIVTED_clean_linker_0, # of connection points: 2
# Relax obj value: 0.189
# Max RMSD: 0.243
# Mean RMSD: 0.243
data_MOF--net-snp--node1-KUMBOL_clean_sbu_1--edge1-XIVTED_clean_linker_0
_symmetry_space_group_name_H-M    P1
_symmetry_Int_Tables_number       1
_symmetry_cell_setting            triclinic
loop_
_symmetry_equiv_pos_as_xyz
'x, y, z'
_cell_length_a     25.103955
_cell_length_b     25.092839
_cell_length_c     34.111266
_cell_angle_alpha  111.7805
_cell_angle_beta   68.236578
_cell_angle_gamma 156.30664
loop_
_atom_site_label
_atom_site_type_symbol
_atom_site_fract_x
_atom_site_fract_y
_atom_site_fract_z
_atom_type_partial_charge
C0 C 0.59896 0.23862 0.2041 0.0
C1 C 0.73227 0.34756 0.25614 0.0
C2 C 0.69348 0.34491 0.23292 0.0
C3 C 0.67305 0.24056 0.25018 0.0
C4 C 0.54008 0.1313 0.19769 0.0
C5 C 0.57691 0.13248 0.22108 0.0
N6 N 0.5649 0.24034 0.18233 0.0
C7 C 0.471 0.13564 0.15364 0.0
C8 C 0.44775 0.02702 0.16739 0.0
C9 C 0.41484 0.03044 0.14478 0.0
Gd10 Gd 0.89271 0.7012 0.12651 0.0
Gd11 Gd 0.65494 0.41602 0.20393 0.0
N12 N 0.74886 0.44671 0.23789 0.0
C13 C 0.8293 0.45763 0.28474 0.0
C14 C 0.84194 0.55325 0.26637 0.0
C15 C 0.88438 0.56097 0.28985 0.0
H16 H 0.88258 0.63196 0.27194 0.0
H17 H 0.95821 0.64585 0.31234 0.0
H18 H 0.85179 0.79659 0.12895 0.0
H19 H 0.43247 0.12724 0.13864 0.0
H20 H 0.93048 0.96542 0.16797 0.0
H21 H 0.86167 0.46337 0.30318 0.0
H22 H 0.70141 0.24075 0.26776 0.0
H23 H 0.12843 0.82307 0.13968 0.0
H24 H 0.40143 0.94362 0.16121 0.0
H25 H 0.34161 0.94896 0.12177 0.0
H26 H 0.21933 0.20007 0.26311 0.0
H27 H 0.53283 0.05104 0.21647 0.0
H28 H 0.25128 0.03748 0.26111 0.0
H29 H 0.21594 0.91006 0.20674 0.0
N30 N 0.08782 0.87585 0.16013 0.0
C31 C 0.12546 0.96269 0.18658 0.0
C32 C 0.13705 0.87264 0.16392 0.0
C33 C 0.21542 0.00177 0.23133 0.0
C34 C 0.1923 0.9269 0.20115 0.0
C35 C 0.19303 0.03041 0.22247 0.0
H36 H 0.26532 0.15756 0.27962 0.0
N37 N -0.01377 0.87752 0.15397 0.0
C38 C 0.08006 0.96972 0.18132 0.0
C39 C 0.06768 0.06158 0.2014 0.0
C40 C 0.11837 0.05995 0.20742 0.0
C41 C 0.93164 0.87435 0.14917 0.0
C42 C -0.02601 0.96835 0.17194 0.0
O43 O 0.5955 0.33834 0.13573 0.0
O44 O 0.76952 0.51337 0.09135 0.0
O45 O 0.01383 0.81985 0.07207 0.0
O46 O 0.80654 0.65535 0.08323 0.0
O47 O 0.86565 0.58934 0.17951 0.0
O48 O 0.91449 0.62218 0.11158 0.0
O49 O 0.82118 0.68976 0.19524 0.0
O50 O 0.82823 0.63286 0.22911 0.0
O51 O 0.58619 0.43098 0.2576 0.0
O52 O 0.49189 0.26338 0.24672 0.0
O53 O 0.70408 0.57281 0.1648 0.0
O54 O 0.54621 0.36471 0.17126 0.0
C55 C 0.65383 0.38598 0.09792 0.0
C56 C 0.89167 0.57765 0.1405 0.0
C57 C 0.90254 0.72624 1.01338 0.0
C58 C 0.89439 0.74677 0.95027 0.0
C59 C 0.82271 0.58683 0.94839 0.0
C60 C 0.85424 0.6284 0.98985 0.0
C61 C 0.83977 0.64268 0.92923 0.0
C62 C 0.92379 0.78658 0.99332 0.0
C63 C 0.91638 0.75352 0.05977 0.0
C64 C 0.19393 0.13479 0.24141 0.0
C65 C 0.22375 0.11357 0.25029 0.0
H66 H 0.09535 0.12992 0.22063 0.0
C67 C 0.84642 0.70132 0.22871 0.0
C68 C 0.58259 0.44275 0.16193 0.0
C69 C 0.48244 0.31942 0.3176 0.0
C70 C 0.48408 0.28897 0.37686 0.0
C71 C 0.39969 0.30719 0.3884 0.0
C72 C 0.42468 0.31926 0.34528 0.0
C73 C 0.42991 0.29297 0.40418 0.0
C74 C 0.51026 0.30204 0.33353 0.0
C75 C 0.49835 0.32257 0.27187 0.0
H76 H 0.78288 0.509 0.93096 0.0
H77 H 0.8376 0.58152 1.0041 0.0
H78 H 0.80851 0.60214 0.89756 0.0
H79 H 0.96316 0.8638 1.01111 0.0
H80 H 0.35748 0.30948 0.40986 0.0
H81 H 0.40058 0.33042 0.33365 0.0
H82 H 0.40799 0.28185 0.43768 0.0
H83 H 0.54955 0.29617 0.31245 0.0
C84 C 0.28462 0.64638 0.53622 0.0
C85 C 0.41027 0.80275 0.49155 0.0
C86 C 0.39979 0.75378 0.5123 0.0
C87 C 0.30085 0.73843 0.49399 0.0
C88 C 0.17668 0.58577 0.54055 0.0
C89 C 0.18396 0.62964 0.51829 0.0
N90 N 0.281 0.60607 0.55703 0.0
C91 C 0.17409 0.51103 0.58517 0.0
C92 C 0.06678 0.48668 0.56845 0.0
C93 C 0.06719 0.45177 0.59167 0.0
Gd94 Gd 0.72867 0.90786 0.61585 0.0
Gd95 Gd 0.46251 0.70353 0.53799 0.0
N96 N 0.50404 0.81443 0.51097 0.0
C97 C 0.53116 0.91625 0.46952 0.0
C98 C 0.62246 0.92564 0.48951 0.0
C99 C 0.63804 -0.02147 0.4688 0.0
H100 H 0.70596 -0.02539 0.48787 0.0
H101 H 0.73228 0.06671 0.45195 0.0
H102 H 0.76431 0.80121 0.59969 0.0
H103 H 0.16405 0.47259 0.60145 0.0
H104 H 0.92886 0.87298 0.56484 0.0
H105 H 0.54334 0.95718 0.45333 0.0
H106 H 0.30665 0.77391 0.47801 0.0
H107 H 0.86336 0.14988 0.60151 0.0
H108 H -0.01714 0.43908 0.5731 0.0
H109 H -0.01714 0.37554 0.61361 0.0
H110 H 0.27336 0.27256 0.50431 0.0
H111 H 0.10146 0.58318 0.52091 0.0
H112 H 0.18208 0.37706 0.50765 0.0
H113 H 0.00279 0.28449 0.54213 0.0
N114 N 0.91949 0.11386 0.58761 0.0
C115 C 0.01103 0.15474 0.56568 0.0
C116 C 0.92648 0.17167 0.58268 0.0
C117 C 0.11141 0.30553 0.53044 0.0
C118 C 0.01228 0.25621 0.55075 0.0
C119 C 0.11414 0.25763 0.53863 0.0
H120 H 0.2979 0.39078 0.50187 0.0
N121 N 0.88191 0.97144 0.58608 0.0
C122 C -0.00484 0.08565 0.5667 0.0
C123 C 0.06553 0.05016 0.54441 0.0
C124 C 0.08835 0.12591 0.54415 0.0
C125 C 0.85656 0.89437 0.58532 0.0
C126 C 0.94886 0.9337 0.56512 0.0
O127 O 0.37044 0.63161 0.6054 0.0
O128 O 0.53088 0.76592 0.6487 0.0
O129 O 0.84259 0.01859 0.67022 0.0
O130 O 0.67872 0.81163 0.65424 0.0
O131 O 0.63737 0.90556 0.56983 0.0
O132 O 0.66241 0.94405 0.63717 0.0
O133 O 0.73672 0.86472 0.54417 0.0
O134 O 0.6861 0.89032 0.52177 0.0
O135 O 0.39346 0.62334 0.47676 0.0
O136 O 0.46104 0.61363 0.49116 0.0
O137 O 0.59549 0.72725 0.56962 0.0
O138 O 0.38863 0.56994 0.56505 0.0
C139 C 0.40958 0.66794 0.64217 0.0
C140 C 0.62038 0.92558 0.60916 0.0
C141 C 0.74293 0.89405 0.72417 0.0
C142 C 0.76241 0.8796 0.78478 0.0
C143 C 0.58519 0.78513 0.786 0.0
C144 C 0.63445 0.83035 0.74684 0.0
C145 C 0.6459 0.80671 0.80422 0.0
C146 C 0.80828 0.91998 0.7434 0.0
C147 C 0.77514 0.91738 0.67896 0.0
C148 C 0.19848 0.23735 0.52091 0.0
C149 C 0.21082 0.30263 0.51832 0.0
H150 H 0.13556 0.07887 0.52787 0.0
C151 C 0.74509 0.89433 0.51432 0.0
C152 C 0.46673 0.60756 0.57563 0.0
C153 C 0.32319 0.46852 0.43214 0.0
C154 C 0.18967 0.33728 0.37349 0.0
C155 C 0.23588 0.2962 0.39029 0.0
C156 C 0.31343 0.40018 0.42222 0.0
C157 C 0.17541 0.26562 0.36571 0.0
C158 C 0.25974 0.43519 0.4075 0.0
C159 C 0.4151 0.5881 0.46271 0.0
H160 H 0.49771 0.73118 0.80228 0.0
H161 H 0.58483 0.81166 0.73349 0.0
H162 H 0.59883 0.76397 0.83389 0.0
H163 H 0.8933 0.97067 0.72622 0.0
H164 H 0.22686 0.2425 0.38322 0.0
H165 H 0.36936 0.42951 0.43756 0.0
H166 H 0.12307 0.19038 0.33935 0.0
H167 H 0.27045 0.49022 0.41328 0.0
C168 C 0.3748 0.52406 0.04766 0.0
C169 C 0.3956 0.43895 0.02232 0.0
C170 C 0.43009 0.52549 0.04979 0.0
C171 C 0.30797 0.35416 0.99151 0.0
C172 C 0.29893 0.4499 1.01375 0.0
C173 C 0.26498 0.36431 0.98603 0.0
N174 N 0.41069 0.60918 0.07483 0.0
C175 C 0.3572 0.60897 0.07298 0.0
C176 C 0.27105 0.47433 1.00658 0.0
C177 C 0.29515 0.54964 0.03716 0.0
Gd178 Gd 0.83906 0.07043 0.03187 0.0
Gd179 Gd 0.60344 0.78331 0.10926 0.0
N180 N 0.52969 0.62276 0.07517 0.0
C181 C 0.45796 0.44757 0.02457 0.0
C182 C 0.59446 0.63514 0.07667 0.0
C183 C 0.5582 0.54652 0.05192 0.0
H184 H 0.67686 0.71566 0.09603 0.0
H185 H 0.60996 0.55685 0.05314 0.0
H186 H 0.60758 0.86151 0.96833 0.0
H187 H 0.3685 0.66049 0.09751 0.0
H188 H 0.53579 0.85814 0.93232 0.0
H189 H 0.43321 0.38202 1.00423 0.0
H190 H 0.28001 0.28698 0.97011 0.0
H191 H 0.0549 0.34829 0.10445 0.0
H192 H 0.23381 0.43823 0.97726 0.0
H193 H 0.26799 0.56375 0.03277 0.0
H194 H 0.81098 0.27398 0.98191 0.0
H195 H 0.20818 0.30772 0.95977 0.0
H196 H 0.10442 0.552 0.08763 0.0
H197 H 0.15293 0.53179 0.12467 0.0
N198 N 0.92962 0.24625 0.06038 0.0
C199 C 0.8999 0.25503 0.04045 0.0
C200 C 0.02118 0.34586 0.09004 0.0
C201 C 0.05476 0.466 0.07981 0.0
C202 C 0.08137 0.45424 0.10104 0.0
C203 C 0.9638 0.36631 0.04891 0.0
H204 H -0.01832 0.45847 0.03294 0.0
N205 N 0.74537 0.04669 1.00394 0.0
C206 C 0.80493 0.15207 1.01136 0.0
C207 C 0.67134 0.04886 0.9619 0.0
C208 C 0.77021 0.15655 0.99029 0.0
C209 C 0.65079 0.94256 0.97564 0.0
C210 C 0.61101 0.94112 0.95468 0.0
O211 O 0.67068 0.79474 0.03915 0.0
O212 O 0.66088 0.85259 1.00833 0.0
O213 O 0.90156 0.05657 0.97232 0.0
O214 O -0.00393 0.22516 0.98987 0.0
O215 O 0.80368 0.92385 0.08252 0.0
O216 O 0.94818 0.10656 0.05157 0.0
O217 O 0.91472 0.14638 0.09512 0.0
O218 O 0.72805 -0.02568 0.13921 0.0
O219 O 0.47165 0.66152 0.16423 0.0
O220 O 0.66738 0.80344 0.15256 0.0
O221 O 0.62838 0.89743 0.05754 0.0
O222 O 0.58706 0.86789 0.12518 0.0
C223 C 0.64761 0.78742 1.00645 0.0
C224 C 0.91921 0.03742 0.06464 0.0
C225 C 0.01579 0.18593 0.91688 0.0
C226 C 0.01721 0.22499 0.86044 0.0
C227 C 0.1254 0.23189 0.84731 0.0
C228 C 0.0901 0.20559 0.88901 0.0
C229 C 0.08836 0.24049 0.83297 0.0
C230 C -0.01852 0.19845 0.90265 0.0
C231 C -0.00933 0.16893 0.9615 0.0
C232 C 0.83557 0.26826 0.998 0.0
C233 C 0.93296 0.37341 0.02696 0.0
H234 H 0.64163 0.04837 0.9452 0.0
C235 C 0.85638 0.097 0.13235 0.0
C236 C 0.60307 0.90802 0.09705 0.0
C237 C 0.57214 0.73912 0.22293 0.0
C238 C 0.58716 0.72455 0.2861 0.0
C239 C 0.65184 0.87905 0.28765 0.0
C240 C 0.61912 0.8361 0.24632 0.0
C241 C 0.63822 0.82631 0.3069 0.0
C242 C 0.55579 0.68269 0.243 0.0
C243 C 0.55712 0.71108 0.17646 0.0
H244 H 0.18115 0.24508 0.82601 0.0
H245 H 0.11798 0.19677 0.89895 0.0
H246 H 0.11847 0.2629 0.80052 0.0
H247 H 0.92984 0.19004 0.92419 0.0
H248 H 0.69168 0.95706 0.30478 0.0
H249 H 0.63505 0.88241 0.23197 0.0
H250 H 0.67249 0.8702 0.3382 0.0
H251 H 0.52059 0.6084 0.22492 0.0
C252 C 0.57974 0.41988 0.67626 0.0
C253 C 0.49563 0.44136 0.69761 0.0
C254 C 0.58439 0.47718 0.67243 0.0
C255 C 0.4083 0.35392 0.7289 0.0
C256 C 0.50298 0.34444 0.71081 0.0
C257 C 0.41821 0.31267 0.73703 0.0
N258 N 0.66684 0.45671 0.65122 0.0
C259 C 0.6658 0.40407 0.65582 0.0
C260 C 0.52779 0.31936 0.72107 0.0
C261 C 0.60558 0.34475 0.69275 0.0
Gd262 Gd 0.13248 0.89069 0.70097 0.0
Gd263 Gd 0.85333 0.66089 0.62197 0.0
N264 N 0.68709 0.58066 0.64834 0.0
C265 C 0.50728 0.50547 0.69374 0.0
C266 C 0.70286 0.64778 0.64568 0.0
C267 C 0.61129 0.60893 0.6674 0.0
H268 H 0.78865 0.7346 0.6281 0.0
H269 H 0.62401 0.66217 0.66518 0.0
H270 H 0.93564 0.69271 0.77751 0.0
H271 H 0.71874 0.41551 0.63302 0.0
H272 H 0.92134 0.61964 0.82026 0.0
H273 H 0.44041 0.47998 0.71231 0.0
H274 H 0.34264 0.32866 0.74968 0.0
H275 H 0.41945 0.10763 0.63488 0.0
H276 H 0.49229 0.28582 0.75142 0.0
H277 H 0.62157 0.32144 0.69986 0.0
H278 H 0.31109 0.85348 0.77111 0.0
H279 H 0.36518 0.26266 0.76499 0.0
H280 H 0.60263 0.14132 0.66073 0.0
H281 H 0.59662 0.19797 0.6193 0.0
N282 N 0.30675 -0.02153 0.68018 0.0
C283 C 0.30939 0.94682 0.70319 0.0
C284 C 0.4106 0.06989 0.65081 0.0
C285 C 0.5194 0.09502 0.66638 0.0
C286 C 0.51559 0.12607 0.64267 0.0
C287 C 0.41608 0.00506 0.69725 0.0
H288 H 0.49668 0.01429 0.71766 0.0
N289 N 0.10729 0.80634 0.73895 0.0
C290 C 0.20605 0.85753 0.73341 0.0
C291 C 0.09977 0.73361 0.78926 0.0
C292 C 0.20507 0.82252 0.75836 0.0
C293 C 0.00775 0.72442 0.77041 0.0
C294 C 0.00104 0.68503 0.7955 0.0
O295 O 0.85506 0.71835 0.69276 0.0
O296 O 0.91186 0.70785 0.72389 0.0
O297 O 0.27839 0.05017 0.74533 0.0
O298 O 0.11557 0.96118 0.75168 0.0
O299 O -0.01915 0.84451 0.66464 0.0
O300 O 0.19004 0.0042 0.66778 0.0
O301 O 0.21054 0.94737 0.6324 0.0
O302 O 0.03937 0.78103 0.58702 0.0
O303 O 0.73956 0.549 0.56712 0.0
O304 O 0.91135 0.75914 0.58009 0.0
O305 O 0.95489 0.67914 0.67632 0.0
O306 O 0.92551 0.63184 0.60797 0.0
C307 C 0.83851 0.68441 0.72428 0.0
C308 C 0.10963 0.96479 0.65857 0.0
C309 C 0.23218 0.07844 0.8134 0.0
C310 C 0.28826 0.11305 0.87613 0.0
C311 C 0.2579 0.18257 0.87904 0.0
C312 C 0.23161 0.13734 0.83654 0.0
C313 C 0.28611 0.17056 0.89885 0.0
C314 C 0.26056 0.06627 0.8335 0.0
C315 C 0.22255 0.04891 0.76733 0.0
C316 C 0.31014 0.87914 0.75229 0.0
C317 C 0.41591 0.97094 0.72198 0.0
H318 H 0.09545 0.7044 0.80908 0.0
C319 C 0.16529 0.89277 0.59437 0.0
C320 C 0.96633 0.65179 0.63772 0.0
C321 C 0.83564 0.6681 0.51091 0.0
C322 C 0.80329 0.67103 0.45076 0.0
C323 C -0.02436 0.75678 0.44505 0.0
C324 C 0.93818 0.72458 0.48578 0.0
C325 C 0.91083 0.732 0.42802 0.0
C326 C 0.76791 0.64156 0.49329 0.0
C327 C 0.81139 0.65173 0.5566 0.0
H328 H 0.25719 0.22779 0.89641 0.0
H329 H 0.2107 0.14843 0.82181 0.0
H330 H 0.30824 0.20781 0.93173 0.0
H331 H 0.26511 0.02446 0.81591 0.0
H332 H 0.05742 0.80331 0.42653 0.0
H333 H -0.00777 0.7474 0.49821 0.0
H334 H 0.94753 0.76301 0.3967 0.0
H335 H 0.68857 0.59817 0.51249 0.0
H336 H 0.92463 0.92981 0.05221 0.0
H337 H 0.58921 0.56054 0.16872 0.0
H338 H 0.15204 0.2913 0.09587 0.0
H339 H 0.34917 0.19063 0.12905 0.0
H340 H 0.42981 0.46423 0.14289 0.0
H341 H 0.09094 0.03174 0.07501 0.0
C342 C 0.0127 0.0326 0.06513 0.0
C343 C 0.02929 0.10521 0.07028 0.0
C344 C 0.41335 0.40496 0.13917 0.0
C345 C 0.21194 0.21762 0.10022 0.0
C346 C 0.50349 0.45935 0.15416 0.0
C347 C 0.483 0.38358 0.15001 0.0
C348 C 0.30543 0.2762 0.11859 0.0
C349 C 0.37003 0.25297 0.13164 0.0
C350 C 0.1057 0.08967 0.07907 0.0
C351 C 0.13938 0.23459 0.08989 0.0
N352 N 0.28618 0.20376 0.11594 0.0
N353 N 0.226 0.28636 0.10482 0.0
H354 H 0.34769 0.18416 0.61633 0.0
H355 H 0.23543 0.4002 0.62417 0.0
H356 H -0.00635 0.96345 0.67535 0.0
H357 H 0.57336 0.59938 0.55772 0.0
H358 H 0.15124 0.24773 0.64805 0.0
H359 H 0.43404 0.34053 0.5957 0.0
C360 C 0.2886 0.16916 0.62499 0.0
C361 C 0.16408 0.06157 0.64739 0.0
C362 C 0.24424 0.32536 0.62843 0.0
C363 C 0.26322 0.24179 0.62563 0.0
C364 C 0.29234 0.41245 0.61507 0.0
C365 C 0.41206 0.51303 0.58963 0.0
C366 C 0.31452 0.33683 0.61476 0.0
C367 C 0.48118 0.52365 0.57773 0.0
C368 C 0.33758 0.25819 0.61331 0.0
C369 C 0.09075 0.046 0.65812 0.0
N370 N 0.43061 0.43557 0.59003 0.0
N371 N 0.14215 0.13625 0.64749 0.0
H372 H 0.50929 0.89543 0.06238 0.0
H373 H -0.02481 0.58553 0.18098 0.0
H374 H 0.75479 0.11891 0.15974 0.0
H375 H 0.75796 0.37688 0.07509 0.0
H376 H 0.90016 0.42053 0.17374 0.0
H377 H 0.58356 0.06028 0.07174 0.0
C378 C 0.57773 -0.02159 0.08616 0.0
C379 C 0.62768 -0.00613 0.10954 0.0
C380 C 0.86771 0.40993 0.15227 0.0
C381 C 0.71736 0.18747 0.11971 0.0
C382 C 0.91159 0.50512 0.15613 0.0
C383 C 0.8686 0.4932 0.12984 0.0
C384 C 0.77667 0.29865 0.12249 0.0
C385 C 0.78893 0.38808 0.0976 0.0
C386 C 0.62113 0.07351 0.09126 0.0
C387 C 0.7147 0.10296 0.14039 0.0
N388 N 0.74327 0.29392 0.09554 0.0
N389 N 0.75823 0.19619 0.14404 0.0
H390 H 0.64276 0.02651 0.57275 0.0
H391 H 0.9522 0.56698 0.68173 0.0
H392 H 0.40946 0.78113 0.67219 0.0
H393 H 0.16938 0.78311 0.5737 0.0
H394 H 0.11095 0.63577 0.6776 0.0
H395 H 0.47971 0.95217 0.57707 0.0
C396 C 0.55635 0.95556 0.59528 0.0
C397 C 0.53654 0.90352 0.62002 0.0
C398 C 0.12453 0.66882 0.65483 0.0
C399 C 0.34528 0.81474 0.62477 0.0
C400 C 0.03282 0.62849 0.6569 0.0
C401 C 0.04809 0.67197 0.62884 0.0
C402 C 0.23663 0.75776 0.62526 0.0
C403 C 0.15453 0.75038 0.59715 0.0
C404 C 0.46245 0.91245 0.59757 0.0
C405 C 0.42577 0.81767 0.6503 0.0
N406 N 0.24559 0.79299 0.59692 0.0
N407 N 0.33348 0.77396 0.65116 0.0
H408 H 0.89109 0.92701 0.4903 0.0
H409 H 0.84197 0.81376 0.24676 0.0
H410 H 0.76295 0.93379 0.44048 0.0
H411 H 0.9528 0.79112 0.29892 0.0
H412 H 0.88098 0.92664 0.31382 0.0
H413 H -0.0176 0.94954 0.41976 0.0
C414 C 0.88578 0.93778 0.46496 0.0
C415 C 0.81702 0.92669 0.47194 0.0
C416 C 0.89889 0.89898 0.31049 0.0
C417 C 0.9169 0.94613 0.38949 0.0
C418 C 0.87589 0.83356 0.27211 0.0
C419 C 0.88718 0.78601 0.2676 0.0
C420 C 0.93213 0.916 0.3451 0.0
C421 C 0.93571 0.81911 0.30134 0.0
C422 C 0.93738 0.94955 0.42424 0.0
C423 C 0.81219 0.93901 0.437 0.0
N424 N 0.95436 0.87997 0.3387 0.0
N425 N 0.85879 0.94541 0.39733 0.0
H426 H 0.40948 0.60338 0.68926 0.0
H427 H 0.14388 0.44208 0.88124 0.0
H428 H 0.18174 0.53176 0.67563 0.0
H429 H 0.85345 0.07656 0.80125 0.0
H430 H 0.19746 0.53715 0.83024 0.0
H431 H 0.265 0.47864 0.75109 0.0
C432 C 0.32971 0.56262 0.69949 0.0
C433 C 0.30985 0.58085 0.67752 0.0
C434 C 0.1157 0.43306 0.82518 0.0
C435 C 0.14259 0.43582 0.74857 0.0
C436 C 0.08521 0.37884 0.85428 0.0
C437 C -0.0036 0.25239 0.84461 0.0
C438 C 0.05858 0.36073 0.7862 0.0
C439 C 0.92436 0.1752 0.80903 0.0
C440 C 0.24715 0.49093 0.73467 0.0
C441 C 0.20059 0.52003 0.69152 0.0
N442 N 0.96063 0.23217 0.78007 0.0
N443 N 0.12006 0.44959 0.72663 0.0
H444 H 0.6752 0.66296 0.48433 0.0
H445 H 0.57657 0.59307 0.25587 0.0
H446 H 0.76808 0.60849 0.36477 0.0
H447 H 0.56069 0.72484 0.37378 0.0
H448 H 0.59416 0.54665 0.29649 0.0
H449 H 0.59494 0.64644 0.4455 0.0
C450 C 0.67657 0.6447 0.45021 0.0
C451 C 0.73357 0.64143 0.42855 0.0
C452 C 0.58743 0.58639 0.31334 0.0
C453 C 0.63547 0.61769 0.38306 0.0
C454 C 0.57663 0.61278 0.28997 0.0
C455 C 0.57557 0.67229 0.31016 0.0
C456 C 0.59928 0.62073 0.35749 0.0
C457 C 0.57231 0.69013 0.35512 0.0
C458 C 0.62968 0.6347 0.4278 0.0
C459 C 0.73178 0.61839 0.38374 0.0
N460 N 0.58693 0.66759 0.37657 0.0
N461 N 0.68539 0.60869 0.36296 0.0
H462 H 0.13112 0.91915 0.92019 0.0
H463 H 0.76495 0.42938 0.01813 0.0
H464 H 0.53846 0.3053 0.87895 0.0
H465 H 0.38297 0.12888 0.08889 0.0
H466 H 0.66136 0.32247 0.95337 0.0
H467 H 0.20461 0.94295 0.96902 0.0
C468 C 0.23557 0.00753 0.92113 0.0
C469 C 0.32879 0.11144 0.8968 0.0
C470 C 0.59963 0.27872 0.98297 0.0
C471 C 0.41437 0.13864 0.95062 0.0
C472 C 0.65849 0.3394 0.01998 0.0
C473 C 0.58381 0.2934 0.05933 0.0
C474 C 0.46536 0.17176 0.98543 0.0
C475 C 0.44552 0.1726 0.05955 0.0
C476 C 0.27765 0.0209 0.94851 0.0
C477 C 0.46373 0.22336 0.8976 0.0
N478 N 0.39079 0.11797 0.02322 0.0
N479 N 0.50266 0.2346 0.92447 0.0
H480 H 0.53604 0.69727 0.93823 0.0
H481 H 0.73847 0.55918 0.7896 0.0
H482 H 0.66692 0.68784 0.98261 0.0
H483 H 0.71659 0.6793 0.7464 0.0
H484 H 0.62692 0.51821 0.85803 0.0
H485 H 0.51354 0.60161 0.86832 0.0
C486 C 0.55911 0.67425 0.93354 0.0
C487 C 0.61084 0.70801 0.96599 0.0
C488 C 0.64499 0.552 0.83338 0.0
C489 C 0.58441 0.59727 0.88569 0.0
C490 C 0.71117 0.57787 0.79437 0.0
C491 C 0.74742 0.63361 0.76305 0.0
C492 C 0.61388 0.58139 0.84127 0.0
C493 C 0.69777 0.64357 0.77022 0.0
C494 C 0.54485 0.61815 0.8936 0.0
C495 C 0.63231 0.66918 0.95823 0.0
N496 N 0.63656 0.621 0.80869 0.0
N497 N 0.62182 0.61878 0.91887 0.0
H498 H 0.65639 0.44265 0.43293 0.0
H499 H 0.12195 0.78472 0.51361 0.0
H500 H 0.34049 0.06125 0.3615 0.0
H501 H 0.42671 0.16261 0.5883 0.0
H502 H 0.2499 0.90004 0.44965 0.0
H503 H 0.6252 0.3609 0.47995 0.0
C504 C 0.58363 0.34311 0.42645 0.0
C505 C 0.49946 0.25791 0.39414 0.0
C506 C 0.29064 0.95836 0.4799 0.0
C507 C 0.45974 0.16136 0.44793 0.0
C508 C 0.21743 0.89249 0.51651 0.0
C509 C 0.26097 0.96388 0.55649 0.0
C510 C 0.40726 0.09652 0.48336 0.0
C511 C 0.38724 0.10322 0.55828 0.0
C512 C 0.56524 0.2959 0.45325 0.0
C513 C 0.40684 0.1296 0.38639 0.0
N514 N 0.45437 0.16504 0.52224 0.0
N515 N 0.38705 0.08391 0.41382 0.0
H516 H 0.75834 0.90382 0.87178 0.0
H517 H 0.94719 0.76769 0.86312 0.0
H518 H 0.9295 0.93169 0.75542 0.0
H519 H 0.90974 0.88146 0.97976 0.0
H520 H 0.9504 0.83382 0.82375 0.0
H521 H 0.82577 0.90751 0.90994 0.0
C522 C 0.80679 0.90706 0.85351 0.0
C523 C 0.8281 0.90722 0.80888 0.0
C524 C 0.94103 0.84402 0.85794 0.0
C525 C 0.90969 0.91464 0.85508 0.0
C526 C 0.9372 0.80422 0.88103 0.0
C527 C 0.91954 0.81 0.92589 0.0
C528 C 0.92912 0.89273 0.87896 0.0
C529 C 0.92003 0.8708 0.9457 0.0
C530 C 0.84712 0.91106 0.8761 0.0
C531 C 0.90533 0.92639 0.78932 0.0
N532 N 0.92223 0.90728 0.92234 0.0
N533 N 0.93972 0.92543 0.8122 0.0
H534 H -0.00558 0.31015 0.18783 0.0
H535 H 0.32027 0.52944 0.34116 0.0
H536 H 0.89701 0.04305 0.15304 0.0
H537 H 0.9544 0.10347 0.337 0.0
H538 H 0.25453 0.49635 0.28313 0.0
H539 H 0.08627 0.39079 0.2523 0.0
C540 C -0.00484 0.27094 0.19324 0.0
C541 C 0.9376 0.16929 0.16542 0.0
C542 C 0.18772 0.41067 0.29589 0.0
C543 C 0.03613 0.25582 0.23809 0.0
C544 C 0.22468 0.42895 0.32885 0.0
C545 C 0.14282 0.31869 0.34357 0.0
C546 C 0.06929 0.28166 0.27765 0.0
C547 C 0.02144 0.19111 0.32607 0.0
C548 C 0.04639 0.316 0.22982 0.0
C549 C 0.93801 0.11932 0.17385 0.0
N550 N -0.01043 0.17638 0.29346 0.0
N551 N -0.01545 0.16155 0.20967 0.0
loop_
_geom_bond_atom_site_label_1
_geom_bond_atom_site_label_2
_geom_bond_distance
_geom_bond_site_symmetry_2
_ccdc_geom_bond_type
C0 C2 1.422 . S
C0 C4 1.415 1_545 S
C0 N6 1.369 . S
C1 C2 1.421 1_565 S
C1 C3 1.417 . S
C1 C13 1.422 . S
C2 C0 1.422 . S
C2 C1 1.421 1_545 S
C2 N12 1.359 . S
C3 C1 1.417 . S
C3 C5 1.329 . S
C3 H22 0.930 . S
C4 C0 1.415 1_565 S
C4 C5 1.437 . S
C4 C8 1.413 . S
C5 C3 1.329 . S
C5 C4 1.437 . S
C5 H27 0.929 1_455 S
N6 C0 1.369 . S
N6 C7 1.338 . S
N6 Gd11 2.622 . S
C7 N6 1.338 . S
C7 C9 1.378 1_545 S
C7 H19 0.929 . S
C8 C4 1.413 . S
C8 C9 1.348 . S
C8 H24 0.931 1_455 S
C9 C7 1.378 1_565 S
C9 C8 1.348 . S
C9 H25 0.930 . S
Gd10 N30 2.622 1_665 S
Gd10 N37 2.570 1_655 S
Gd10 O44 2.353 . S
Gd10 O45 2.468 . S
Gd10 O46 2.427 1_655 S
Gd10 O48 2.388 1_655 S
Gd10 O49 2.386 . S
Gd10 O53 2.307 . S
Gd10 C63 2.805 1_655 S
Gd11 N6 2.622 . S
Gd11 N12 2.570 . S
Gd11 O43 2.386 . S
Gd11 O47 2.307 . S
Gd11 O50 2.353 . S
Gd11 O51 2.468 . S
Gd11 O52 2.427 . S
Gd11 O54 2.388 . S
Gd11 C75 2.805 . S
N12 C2 1.359 . S
N12 Gd11 2.570 . S
N12 C14 1.343 . S
C13 C1 1.422 . S
C13 C15 1.321 1_565 S
C13 H21 0.931 . S
C14 N12 1.343 . S
C14 C15 1.390 . S
C14 H16 0.931 . S
C15 C13 1.321 1_545 S
C15 C14 1.390 . S
C15 H17 0.930 . S
H16 C14 0.931 . S
H17 C15 0.930 . S
H18 C41 0.931 1_655 S
H19 C7 0.929 . S
H20 C42 0.930 . S
H21 C13 0.931 . S
H22 C3 0.930 . S
H23 C32 0.929 1_565 S
H24 C8 0.931 1_655 S
H25 C9 0.930 . S
H26 C64 0.930 . S
H27 C5 0.929 1_655 S
H28 C33 0.931 . S
H29 C34 0.930 . S
N30 Gd10 2.622 1_445 S
N30 C31 1.369 . S
N30 C32 1.338 . S
C31 N30 1.369 . S
C31 C35 1.415 . S
C31 C38 1.422 . S
C32 H23 0.929 1_545 S
C32 N30 1.338 . S
C32 C34 1.378 . S
C33 H28 0.931 . S
C33 C34 1.348 . S
C33 C35 1.413 . S
C34 H29 0.930 . S
C34 C32 1.378 . S
C34 C33 1.348 . S
C35 C31 1.415 . S
C35 C33 1.413 . S
C35 C65 1.437 . S
H36 C65 0.929 . S
N37 Gd10 2.570 1_455 S
N37 C38 1.359 1_565 S
N37 C41 1.343 . S
C38 C31 1.422 . S
C38 N37 1.359 1_545 S
C38 C40 1.421 . S
C39 C40 1.422 . S
C39 C42 1.321 . S
C39 H66 0.931 . S
C40 C38 1.421 . S
C40 C39 1.422 . S
C40 C64 1.417 . S
C41 H18 0.931 1_455 S
C41 N37 1.343 . S
C41 C42 1.390 1_565 S
C42 H20 0.930 . S
C42 C39 1.321 . S
C42 C41 1.390 1_545 S
O43 Gd11 2.386 . S
O43 C55 1.265 . S
O44 Gd10 2.353 . S
O44 C55 1.242 . S
O45 Gd10 2.468 . S
O45 C63 1.263 1_655 S
O46 Gd10 2.427 1_455 S
O46 C63 1.252 . S
O47 Gd11 2.307 . S
O47 C56 1.261 . S
O48 Gd10 2.388 1_455 S
O48 C56 1.252 1_455 S
O49 Gd10 2.386 . S
O49 C67 1.265 . S
O50 Gd11 2.353 . S
O50 C67 1.242 . S
O51 Gd11 2.468 . S
O51 C75 1.263 . S
O52 Gd11 2.427 . S
O52 C75 1.252 . S
O53 Gd10 2.307 . S
O53 C68 1.261 . S
O54 Gd11 2.388 . S
O54 C68 1.252 . S
C55 O43 1.265 . S
C55 O44 1.242 . S
C56 O47 1.261 . S
C56 O48 1.252 1_655 S
C57 C60 1.394 1_565 S
C57 C62 1.370 . S
C57 C63 1.500 1_556 S
C58 C61 1.383 1_565 S
C58 C62 1.395 . S
C59 C60 1.396 . S
C59 C61 1.365 . S
C59 H76 0.929 . S
C60 C57 1.394 1_545 S
C60 C59 1.396 . S
C60 H77 0.930 . S
C61 C58 1.383 1_545 S
C61 C59 1.365 . S
C61 H78 0.931 . S
C62 C57 1.370 . S
C62 C58 1.395 . S
C62 H79 0.930 1_455 S
C63 Gd10 2.805 1_455 S
C63 O45 1.263 1_455 S
C63 O46 1.252 . S
C63 C57 1.500 1_554 S
C64 H26 0.930 . S
C64 C40 1.417 . S
C64 C65 1.329 . S
C65 C35 1.437 . S
C65 H36 0.929 . S
C65 C64 1.329 . S
H66 C39 0.931 . S
C67 O49 1.265 . S
C67 O50 1.242 . S
C68 O53 1.261 . S
C68 O54 1.252 . S
C69 C72 1.394 . S
C69 C74 1.370 . S
C69 C75 1.500 . S
C70 C73 1.383 . S
C70 C74 1.395 . S
C71 C72 1.396 . S
C71 C73 1.365 . S
C71 H80 0.929 . S
C72 C69 1.394 . S
C72 C71 1.396 . S
C72 H81 0.930 . S
C73 C70 1.383 . S
C73 C71 1.365 . S
C73 H82 0.931 . S
C74 C69 1.370 . S
C74 C70 1.395 . S
C74 H83 0.930 . S
C75 Gd11 2.805 . S
C75 O51 1.263 . S
C75 O52 1.252 . S
C75 C69 1.500 . S
H76 C59 0.929 . S
H77 C60 0.930 . S
H78 C61 0.931 . S
H79 C62 0.930 1_655 S
H80 C71 0.929 . S
H81 C72 0.930 . S
H82 C73 0.931 . S
H83 C74 0.930 . S
C84 C86 1.422 . S
C84 C88 1.415 1_455 S
C84 N90 1.369 . S
C85 C86 1.421 1_655 S
C85 C87 1.417 . S
C85 C97 1.422 . S
C86 C84 1.422 . S
C86 C85 1.421 1_455 S
C86 N96 1.359 . S
C87 C85 1.417 . S
C87 C89 1.329 . S
C87 H106 0.930 . S
C88 C84 1.415 1_655 S
C88 C89 1.437 . S
C88 C92 1.413 . S
C89 C87 1.329 . S
C89 C88 1.437 . S
C89 H111 0.929 1_545 S
N90 C84 1.369 . S
N90 C91 1.338 . S
N90 Gd95 2.622 . S
C91 N90 1.338 . S
C91 C93 1.378 . S
C91 H103 0.929 . S
C92 C88 1.413 . S
C92 C93 1.348 1_655 S
C92 H108 0.931 1_545 S
C93 C91 1.378 . S
C93 C92 1.348 1_455 S
C93 H109 0.930 1_455 S
Gd94 N114 2.622 1_665 S
Gd94 N121 2.570 1_565 S
Gd94 O128 2.353 . S
Gd94 O129 2.468 . S
Gd94 O130 2.427 1_565 S
Gd94 O132 2.388 1_565 S
Gd94 O133 2.386 . S
Gd94 O137 2.307 . S
Gd94 C147 2.805 1_565 S
Gd95 N90 2.622 . S
Gd95 N96 2.570 . S
Gd95 O127 2.386 . S
Gd95 O131 2.307 . S
Gd95 O134 2.353 . S
Gd95 O135 2.468 . S
Gd95 O136 2.427 . S
Gd95 O138 2.388 . S
Gd95 C159 2.805 . S
N96 C86 1.359 . S
N96 Gd95 2.570 . S
N96 C98 1.343 . S
C97 C85 1.422 . S
C97 C99 1.321 1_655 S
C97 H105 0.931 . S
C98 N96 1.343 . S
C98 C99 1.390 . S
C98 H100 0.931 . S
C99 C97 1.321 1_455 S
C99 C98 1.390 . S
C99 H101 0.930 . S
H100 C98 0.931 . S
H101 C99 0.930 . S
H102 C125 0.931 1_565 S
H103 C91 0.929 . S
H104 C126 0.930 . S
H105 C97 0.931 . S
H106 C87 0.930 . S
H107 C116 0.929 1_655 S
H108 C92 0.931 1_565 S
H109 C93 0.930 1_655 S
H110 C148 0.930 . S
H111 C89 0.929 1_565 S
H112 C117 0.931 . S
H113 C118 0.930 . S
N114 Gd94 2.622 1_445 S
N114 C115 1.369 . S
N114 C116 1.338 . S
C115 N114 1.369 . S
C115 C119 1.415 . S
C115 C122 1.422 . S
C116 H107 0.929 1_455 S
C116 N114 1.338 . S
C116 C118 1.378 . S
C117 H112 0.931 . S
C117 C118 1.348 . S
C117 C119 1.413 . S
C118 H113 0.930 . S
C118 C116 1.378 . S
C118 C117 1.348 . S
C119 C115 1.415 . S
C119 C117 1.413 . S
C119 C149 1.437 . S
H120 C149 0.929 . S
N121 Gd94 2.570 1_545 S
N121 C122 1.359 1_655 S
N121 C125 1.343 . S
C122 C115 1.422 . S
C122 N121 1.359 1_455 S
C122 C124 1.421 . S
C123 C124 1.422 . S
C123 C126 1.321 . S
C123 H150 0.931 . S
C124 C122 1.421 . S
C124 C123 1.422 . S
C124 C148 1.417 . S
C125 H102 0.931 1_545 S
C125 N121 1.343 . S
C125 C126 1.390 1_655 S
C126 H104 0.930 . S
C126 C123 1.321 . S
C126 C125 1.390 1_455 S
O127 Gd95 2.386 . S
O127 C139 1.265 . S
O128 Gd94 2.353 . S
O128 C139 1.242 . S
O129 Gd94 2.468 . S
O129 C147 1.263 1_565 S
O130 Gd94 2.427 1_545 S
O130 C147 1.252 . S
O131 Gd95 2.307 . S
O131 C140 1.261 . S
O132 Gd94 2.388 1_545 S
O132 C140 1.252 1_545 S
O133 Gd94 2.386 . S
O133 C151 1.265 . S
O134 Gd95 2.353 . S
O134 C151 1.242 . S
O135 Gd95 2.468 . S
O135 C159 1.263 . S
O136 Gd95 2.427 . S
O136 C159 1.252 . S
O137 Gd94 2.307 . S
O137 C152 1.261 . S
O138 Gd95 2.388 . S
O138 C152 1.252 . S
C139 O127 1.265 . S
C139 O128 1.242 . S
C140 O131 1.261 . S
C140 O132 1.252 1_565 S
C141 C144 1.394 1_655 S
C141 C146 1.370 . S
C141 C147 1.500 . S
C142 C145 1.383 1_655 S
C142 C146 1.395 . S
C143 C144 1.396 . S
C143 C145 1.365 . S
C143 H160 0.929 . S
C144 C141 1.394 1_455 S
C144 C143 1.396 . S
C144 H161 0.930 . S
C145 C142 1.383 1_455 S
C145 C143 1.365 . S
C145 H162 0.931 . S
C146 C141 1.370 . S
C146 C142 1.395 . S
C146 H163 0.930 1_545 S
C147 Gd94 2.805 1_545 S
C147 O129 1.263 1_545 S
C147 O130 1.252 . S
C147 C141 1.500 . S
C148 H110 0.930 . S
C148 C124 1.417 . S
C148 C149 1.329 . S
C149 C119 1.437 . S
C149 H120 0.929 . S
C149 C148 1.329 . S
H150 C123 0.931 . S
C151 O133 1.265 . S
C151 O134 1.242 . S
C152 O137 1.261 . S
C152 O138 1.252 . S
C153 C156 1.394 . S
C153 C158 1.370 . S
C153 C159 1.500 . S
C154 C157 1.383 . S
C154 C158 1.395 . S
C155 C156 1.396 . S
C155 C157 1.365 . S
C155 H164 0.929 . S
C156 C153 1.394 . S
C156 C155 1.396 . S
C156 H165 0.930 . S
C157 C154 1.383 . S
C157 C155 1.365 . S
C157 H166 0.931 . S
C158 C153 1.370 . S
C158 C154 1.395 . S
C158 H167 0.930 . S
C159 Gd95 2.805 . S
C159 O135 1.263 . S
C159 O136 1.252 . S
C159 C153 1.500 . S
H160 C143 0.929 . S
H161 C144 0.930 . S
H162 C145 0.931 . S
H163 C146 0.930 1_565 S
H164 C155 0.929 . S
H165 C156 0.930 . S
H166 C157 0.931 . S
H167 C158 0.930 . S
C168 C170 1.422 . S
C168 C172 1.415 . S
C168 N174 1.369 . S
C169 C170 1.421 . S
C169 C171 1.417 . S
C169 C181 1.422 . S
C170 C168 1.422 . S
C170 C169 1.421 . S
C170 N180 1.359 . S
C171 C169 1.417 . S
C171 C173 1.329 . S
C171 H190 0.930 . S
C172 C168 1.415 . S
C172 C173 1.437 . S
C172 C176 1.413 . S
C173 C171 1.329 . S
C173 C172 1.437 . S
C173 H195 0.929 . S
N174 C168 1.369 . S
N174 C175 1.338 . S
N174 Gd179 2.622 . S
C175 N174 1.338 . S
C175 C177 1.378 . S
C175 H187 0.929 . S
C176 C172 1.413 . S
C176 C177 1.348 . S
C176 H192 0.923 1_455 S
C177 C175 1.378 . S
C177 C176 1.348 . S
C177 H193 0.930 . S
Gd178 N198 2.622 . S
Gd178 N205 2.570 . S
Gd178 O212 2.353 1_455 S
Gd178 O213 2.468 . S
Gd178 O214 2.427 1_554 S
Gd178 O216 2.388 . S
Gd178 O217 2.383 . S
Gd178 O221 2.307 1_455 S
Gd178 C231 2.805 1_554 S
Gd179 N174 2.622 . S
Gd179 N180 2.570 . S
Gd179 O211 2.386 . S
Gd179 O215 2.307 . S
Gd179 O218 2.353 1_565 S
Gd179 O219 2.468 . S
Gd179 O220 2.427 . S
Gd179 O222 2.388 . S
Gd179 C243 2.805 . S
N180 C170 1.359 . S
N180 Gd179 2.570 . S
N180 C182 1.343 . S
C181 C169 1.422 . S
C181 C183 1.321 . S
C181 H189 0.931 . S
C182 N180 1.343 . S
C182 C183 1.390 . S
C182 H184 0.931 . S
C183 C181 1.321 . S
C183 C182 1.390 . S
C183 H185 0.930 . S
H184 C182 0.931 . S
H185 C183 0.930 . S
H186 C209 0.931 1_655 S
H187 C175 0.929 . S
H188 C210 0.930 . S
H189 C181 0.931 . S
H190 C171 0.930 . S
H191 C200 0.929 . S
H192 C176 0.923 1_655 S
H193 C177 0.930 . S
H194 C232 0.930 . S
H195 C173 0.929 . S
H196 C201 0.931 . S
H197 C202 0.930 . S
N198 Gd178 2.622 . S
N198 C199 1.369 . S
N198 C200 1.338 . S
C199 N198 1.369 . S
C199 C203 1.415 . S
C199 C206 1.422 . S
C200 H191 0.929 . S
C200 N198 1.338 . S
C200 C202 1.378 . S
C201 H196 0.931 . S
C201 C202 1.348 . S
C201 C203 1.413 . S
C202 H197 0.930 . S
C202 C200 1.378 . S
C202 C201 1.348 . S
C203 C199 1.415 . S
C203 C201 1.413 . S
C203 C233 1.437 . S
H204 C233 0.929 . S
N205 Gd178 2.570 . S
N205 C206 1.359 . S
N205 C209 1.343 . S
C206 C199 1.422 . S
C206 N205 1.359 . S
C206 C208 1.421 . S
C207 C208 1.422 . S
C207 C210 1.321 . S
C207 H234 0.931 . S
C208 C206 1.421 . S
C208 C207 1.422 . S
C208 C232 1.417 . S
C209 H186 0.931 1_455 S
C209 N205 1.343 . S
C209 C210 1.390 . S
C210 H188 0.930 . S
C210 C207 1.321 . S
C210 C209 1.390 . S
O211 Gd179 2.386 . S
O211 C223 1.265 . S
O212 Gd178 2.353 1_655 S
O212 C223 1.242 1_545 S
O213 Gd178 2.468 . S
O213 C231 1.263 1_554 S
O214 Gd178 2.427 1_556 S
O214 C231 1.252 . S
O215 Gd179 2.307 . S
O215 C224 1.261 1_565 S
O216 Gd178 2.388 . S
O216 C224 1.252 1_455 S
O217 Gd178 2.383 . S
O217 C235 1.264 1_455 S
O218 Gd179 2.353 1_545 S
O218 C235 1.242 . S
O219 Gd179 2.468 . S
O219 C243 1.263 . S
O220 Gd179 2.427 . S
O220 C243 1.252 . S
O221 Gd178 2.307 1_655 S
O221 C236 1.261 1_545 S
O222 Gd179 2.388 . S
O222 C236 1.252 . S
C223 O211 1.265 . S
C223 O212 1.242 1_565 S
C224 O215 1.261 1_545 S
C224 O216 1.252 1_655 S
C225 C228 1.394 . S
C225 C230 1.370 . S
C225 C231 1.500 . S
C226 C229 1.383 . S
C226 C230 1.395 . S
C227 C228 1.396 . S
C227 C229 1.365 . S
C227 H244 0.929 . S
C228 C225 1.394 . S
C228 C227 1.396 . S
C228 H245 0.930 . S
C229 C226 1.383 . S
C229 C227 1.365 . S
C229 H246 0.931 . S
C230 C225 1.370 . S
C230 C226 1.395 . S
C230 H247 0.930 . S
C231 Gd178 2.805 1_556 S
C231 O213 1.263 1_556 S
C231 O214 1.252 . S
C231 C225 1.500 . S
C232 H194 0.930 . S
C232 C208 1.417 . S
C232 C233 1.329 . S
C233 C203 1.437 . S
C233 H204 0.929 . S
C233 C232 1.329 . S
H234 C207 0.931 . S
C235 O217 1.264 1_655 S
C235 O218 1.242 . S
C236 O221 1.261 1_565 S
C236 O222 1.252 . S
C237 C240 1.394 . S
C237 C242 1.370 . S
C237 C243 1.500 . S
C238 C241 1.383 . S
C238 C242 1.395 . S
C239 C240 1.396 . S
C239 C241 1.365 . S
C239 H248 0.929 . S
C240 C237 1.394 . S
C240 C239 1.396 . S
C240 H249 0.930 . S
C241 C238 1.383 . S
C241 C239 1.365 . S
C241 H250 0.931 . S
C242 C237 1.370 . S
C242 C238 1.395 . S
C242 H251 0.930 . S
C243 Gd179 2.805 . S
C243 O219 1.263 . S
C243 O220 1.252 . S
C243 C237 1.500 . S
H244 C227 0.929 . S
H245 C228 0.930 . S
H246 C229 0.931 . S
H247 C230 0.930 . S
H248 C239 0.929 . S
H249 C240 0.930 . S
H250 C241 0.931 . S
H251 C242 0.930 . S
C252 C254 1.422 . S
C252 C256 1.415 . S
C252 N258 1.369 . S
C253 C254 1.421 . S
C253 C255 1.417 . S
C253 C265 1.422 . S
C254 C252 1.422 . S
C254 C253 1.421 . S
C254 N264 1.359 . S
C255 C253 1.417 . S
C255 C257 1.329 . S
C255 H274 0.930 . S
C256 C252 1.415 . S
C256 C257 1.437 . S
C256 C260 1.413 . S
C257 C255 1.329 . S
C257 C256 1.437 . S
C257 H279 0.929 1_545 S
N258 C252 1.369 . S
N258 C259 1.338 . S
N258 Gd263 2.622 . S
C259 N258 1.338 . S
C259 C261 1.378 . S
C259 H271 0.929 . S
C260 C256 1.413 . S
C260 C261 1.348 . S
C260 H276 0.931 1_545 S
C261 C259 1.378 . S
C261 C260 1.348 . S
C261 H277 0.930 . S
Gd262 N282 2.622 1_565 S
Gd262 N289 2.570 1_565 S
Gd262 O296 2.353 . S
Gd262 O297 2.468 . S
Gd262 O298 2.427 1_565 S
Gd262 O300 2.388 1_565 S
Gd262 O301 2.386 . S
Gd262 O305 2.307 . S
Gd262 C315 2.805 1_565 S
Gd263 N258 2.622 . S
Gd263 N264 2.570 . S
Gd263 O295 2.386 . S
Gd263 O299 2.307 . S
Gd263 O302 2.353 1_655 S
Gd263 O303 2.468 . S
Gd263 O304 2.427 . S
Gd263 O306 2.388 . S
Gd263 C327 2.805 . S
N264 C254 1.359 . S
N264 Gd263 2.570 . S
N264 C266 1.343 . S
C265 C253 1.422 . S
C265 C267 1.321 . S
C265 H273 0.931 . S
C266 N264 1.343 . S
C266 C267 1.390 . S
C266 H268 0.931 . S
C267 C265 1.321 . S
C267 C266 1.390 . S
C267 H269 0.930 . S
H268 C266 0.931 . S
H269 C267 0.930 . S
H270 C293 0.931 1_565 S
H271 C259 0.929 . S
H272 C294 0.930 . S
H273 C265 0.931 . S
H274 C255 0.930 . S
H275 C284 0.929 . S
H276 C260 0.931 1_565 S
H277 C261 0.930 . S
H278 C316 0.930 . S
H279 C257 0.929 1_565 S
H280 C285 0.931 . S
H281 C286 0.930 . S
N282 Gd262 2.622 1_545 S
N282 C283 1.369 . S
N282 C284 1.338 . S
C283 N282 1.369 . S
C283 C287 1.415 . S
C283 C290 1.422 . S
C284 H275 0.929 . S
C284 N282 1.338 . S
C284 C286 1.378 . S
C285 H280 0.931 . S
C285 C286 1.348 . S
C285 C287 1.413 . S
C286 H281 0.930 . S
C286 C284 1.378 . S
C286 C285 1.348 . S
C287 C283 1.415 . S
C287 C285 1.413 . S
C287 C317 1.437 . S
H288 C317 0.929 . S
N289 Gd262 2.570 1_545 S
N289 C290 1.359 . S
N289 C293 1.343 . S
C290 C283 1.422 . S
C290 N289 1.359 . S
C290 C292 1.421 . S
C291 C292 1.422 . S
C291 C294 1.321 . S
C291 H318 0.931 . S
C292 C290 1.421 . S
C292 C291 1.422 . S
C292 C316 1.417 . S
C293 H270 0.931 1_545 S
C293 N289 1.343 . S
C293 C294 1.390 . S
C294 H272 0.930 . S
C294 C291 1.321 . S
C294 C293 1.390 . S
O295 Gd263 2.386 . S
O295 C307 1.265 . S
O296 Gd262 2.353 . S
O296 C307 1.242 1_455 S
O297 Gd262 2.468 . S
O297 C315 1.263 1_565 S
O298 Gd262 2.427 1_545 S
O298 C315 1.252 . S
O299 Gd263 2.307 . S
O299 C308 1.261 1_655 S
O300 Gd262 2.388 1_545 S
O300 C308 1.252 1_545 S
O301 Gd262 2.386 . S
O301 C319 1.265 . S
O302 Gd263 2.353 1_455 S
O302 C319 1.242 . S
O303 Gd263 2.468 . S
O303 C327 1.263 . S
O304 Gd263 2.427 . S
O304 C327 1.252 . S
O305 Gd262 2.307 . S
O305 C320 1.261 1_455 S
O306 Gd263 2.388 . S
O306 C320 1.252 . S
C307 O295 1.265 . S
C307 O296 1.242 1_655 S
C308 O299 1.261 1_455 S
C308 O300 1.252 1_565 S
C309 C312 1.394 . S
C309 C314 1.370 . S
C309 C315 1.500 . S
C310 C313 1.383 . S
C310 C314 1.395 . S
C311 C312 1.396 . S
C311 C313 1.365 . S
C311 H328 0.929 . S
C312 C309 1.394 . S
C312 C311 1.396 . S
C312 H329 0.930 . S
C313 C310 1.383 . S
C313 C311 1.365 . S
C313 H330 0.931 . S
C314 C309 1.370 . S
C314 C310 1.395 . S
C314 H331 0.930 . S
C315 Gd262 2.805 1_545 S
C315 O297 1.263 1_545 S
C315 O298 1.252 . S
C315 C309 1.500 . S
C316 H278 0.930 . S
C316 C292 1.417 . S
C316 C317 1.329 . S
C317 C287 1.437 . S
C317 H288 0.929 . S
C317 C316 1.329 . S
H318 C291 0.931 . S
C319 O301 1.265 . S
C319 O302 1.242 . S
C320 O305 1.261 1_655 S
C320 O306 1.252 . S
C321 C324 1.394 . S
C321 C326 1.370 . S
C321 C327 1.500 . S
C322 C325 1.383 . S
C322 C326 1.395 . S
C323 C324 1.396 . S
C323 C325 1.365 . S
C323 H332 0.929 . S
C324 C321 1.394 . S
C324 C323 1.396 . S
C324 H333 0.930 . S
C325 C322 1.383 . S
C325 C323 1.365 . S
C325 H334 0.931 . S
C326 C321 1.370 . S
C326 C322 1.395 . S
C326 H335 0.930 . S
C327 Gd263 2.805 . S
C327 O303 1.263 . S
C327 O304 1.252 . S
C327 C321 1.500 . S
H328 C311 0.929 . S
H329 C312 0.930 . S
H330 C313 0.931 . S
H331 C314 0.930 . S
H332 C323 0.929 . S
H333 C324 0.930 . S
H334 C325 0.931 . S
H335 C326 0.930 . S
H336 C342 0.930 1_665 S
H337 C346 0.930 . S
H338 C351 0.929 . S
H339 C349 0.929 . S
H340 C344 0.929 . S
H341 C350 0.929 . S
C342 H336 0.930 1_445 S
C342 C343 1.367 1_455 S
C342 C350 1.378 . S
C343 C342 1.367 1_655 S
C343 C351 1.433 1_655 S
C344 H340 0.929 . S
C344 C346 1.378 . S
C344 C348 1.350 . S
C345 C348 1.463 . S
C345 C350 1.350 . S
C345 N353 1.427 . S
C346 H337 0.930 . S
C346 C344 1.378 . S
C346 C347 1.367 . S
C347 C346 1.367 . S
C347 C349 1.433 . S
C348 C344 1.350 . S
C348 C345 1.463 . S
C348 N352 1.427 . S
C349 H339 0.929 . S
C349 C347 1.433 . S
C349 N352 1.384 . S
C350 H341 0.929 . S
C350 C342 1.378 . S
C350 C345 1.350 . S
C351 H338 0.929 . S
C351 C343 1.433 1_455 S
C351 N353 1.384 . S
N352 C348 1.427 . S
N352 C349 1.384 . S
N353 C345 1.427 . S
N353 C351 1.384 . S
H354 C360 0.930 . S
H355 C364 0.930 . S
H356 C369 0.929 1_655 S
H357 C367 0.929 . S
H358 C362 0.929 . S
H359 C368 0.929 . S
C360 H354 0.930 . S
C360 C361 1.367 1_545 S
C360 C368 1.378 . S
C361 C360 1.367 1_565 S
C361 C369 1.433 . S
C362 H358 0.929 . S
C362 C364 1.378 . S
C362 C366 1.350 . S
C363 C366 1.463 . S
C363 C368 1.350 . S
C363 N371 1.427 . S
C364 H355 0.930 . S
C364 C362 1.378 . S
C364 C365 1.367 . S
C365 C364 1.367 . S
C365 C367 1.433 . S
C366 C362 1.350 . S
C366 C363 1.463 . S
C366 N370 1.427 . S
C367 H357 0.929 . S
C367 C365 1.433 . S
C367 N370 1.384 . S
C368 H359 0.929 . S
C368 C360 1.378 . S
C368 C363 1.350 . S
C369 H356 0.929 1_455 S
C369 C361 1.433 . S
C369 N371 1.384 1_565 S
N370 C366 1.427 . S
N370 C367 1.384 . S
N371 C363 1.427 . S
N371 C369 1.384 1_545 S
H372 C378 0.930 . S
H373 C382 0.930 . S
H374 C387 0.929 . S
H375 C385 0.929 . S
H376 C380 0.929 . S
H377 C386 0.929 . S
C378 H372 0.930 . S
C378 C379 1.367 . S
C378 C386 1.378 . S
C379 C378 1.367 . S
C379 C387 1.433 . S
C380 H376 0.929 . S
C380 C382 1.378 . S
C380 C384 1.350 . S
C381 C384 1.463 . S
C381 C386 1.350 . S
C381 N389 1.427 . S
C382 H373 0.930 . S
C382 C380 1.378 . S
C382 C383 1.367 . S
C383 C382 1.367 . S
C383 C385 1.433 . S
C384 C380 1.350 . S
C384 C381 1.463 . S
C384 N388 1.427 . S
C385 H375 0.929 . S
C385 C383 1.433 . S
C385 N388 1.384 . S
C386 H377 0.929 . S
C386 C378 1.378 . S
C386 C381 1.350 . S
C387 H374 0.929 . S
C387 C379 1.433 . S
C387 N389 1.384 . S
N388 C384 1.427 . S
N388 C385 1.384 . S
N389 C381 1.427 . S
N389 C387 1.384 . S
H390 C396 0.930 . S
H391 C400 0.930 1_655 S
H392 C405 0.929 . S
H393 C403 0.929 . S
H394 C398 0.929 . S
H395 C404 0.929 . S
C396 H390 0.930 . S
C396 C397 1.367 . S
C396 C404 1.378 . S
C397 C396 1.367 . S
C397 C405 1.433 . S
C398 H394 0.929 . S
C398 C400 1.378 . S
C398 C402 1.350 . S
C399 C402 1.463 . S
C399 C404 1.350 . S
C399 N407 1.427 . S
C400 H391 0.930 1_455 S
C400 C398 1.378 . S
C400 C401 1.367 . S
C401 C400 1.367 . S
C401 C403 1.433 . S
C402 C398 1.350 . S
C402 C399 1.463 . S
C402 N406 1.427 . S
C403 H393 0.929 . S
C403 C401 1.433 . S
C403 N406 1.384 . S
C404 H395 0.929 . S
C404 C396 1.378 . S
C404 C399 1.350 . S
C405 H392 0.929 . S
C405 C397 1.433 . S
C405 N407 1.384 . S
N406 C402 1.427 . S
N406 C403 1.384 . S
N407 C399 1.427 . S
N407 C405 1.384 . S
H408 C414 0.930 . S
H409 C418 0.930 . S
H410 C423 0.929 . S
H411 C421 0.929 . S
H412 C416 0.929 . S
H413 C422 0.929 . S
C414 H408 0.930 . S
C414 C415 1.367 . S
C414 C422 1.378 . S
C415 C414 1.367 . S
C415 C423 1.433 . S
C416 H412 0.929 . S
C416 C418 1.378 . S
C416 C420 1.350 . S
C417 C420 1.463 . S
C417 C422 1.350 . S
C417 N425 1.427 . S
C418 H409 0.930 . S
C418 C416 1.378 . S
C418 C419 1.367 . S
C419 C418 1.367 . S
C419 C421 1.433 . S
C420 C416 1.350 . S
C420 C417 1.463 . S
C420 N424 1.427 . S
C421 H411 0.929 . S
C421 C419 1.433 . S
C421 N424 1.384 . S
C422 H413 0.929 . S
C422 C414 1.378 . S
C422 C417 1.350 . S
C423 H410 0.929 . S
C423 C415 1.433 . S
C423 N425 1.384 . S
N424 C420 1.427 . S
N424 C421 1.384 . S
N425 C417 1.427 . S
N425 C423 1.384 . S
H426 C432 0.930 . S
H427 C436 0.930 . S
H428 C441 0.929 . S
H429 C439 0.929 . S
H430 C434 0.929 . S
H431 C440 0.929 . S
C432 H426 0.930 . S
C432 C433 1.367 . S
C432 C440 1.378 . S
C433 C432 1.367 . S
C433 C441 1.433 . S
C434 H430 0.929 . S
C434 C436 1.378 . S
C434 C438 1.350 . S
C435 C438 1.463 . S
C435 C440 1.350 . S
C435 N443 1.427 . S
C436 H427 0.930 . S
C436 C434 1.378 . S
C436 C437 1.367 . S
C437 C436 1.367 . S
C437 C439 1.433 . S
C438 C434 1.350 . S
C438 C435 1.463 . S
C438 N442 1.427 . S
C439 H429 0.929 . S
C439 C437 1.433 . S
C439 N442 1.384 . S
C440 H431 0.929 . S
C440 C432 1.378 . S
C440 C435 1.350 . S
C441 H428 0.929 . S
C441 C433 1.433 . S
C441 N443 1.384 . S
N442 C438 1.427 . S
N442 C439 1.384 . S
N443 C435 1.427 . S
N443 C441 1.384 . S
H444 C450 0.930 . S
H445 C454 0.930 . S
H446 C459 0.929 . S
H447 C457 0.929 . S
H448 C452 0.929 . S
H449 C458 0.929 . S
C450 H444 0.930 . S
C450 C451 1.367 . S
C450 C458 1.378 . S
C451 C450 1.367 . S
C451 C459 1.433 . S
C452 H448 0.929 . S
C452 C454 1.378 . S
C452 C456 1.350 . S
C453 C456 1.463 . S
C453 C458 1.350 . S
C453 N461 1.427 . S
C454 H445 0.930 . S
C454 C452 1.378 . S
C454 C455 1.367 . S
C455 C454 1.367 . S
C455 C457 1.433 . S
C456 C452 1.350 . S
C456 C453 1.463 . S
C456 N460 1.427 . S
C457 H447 0.929 . S
C457 C455 1.433 . S
C457 N460 1.384 . S
C458 H449 0.929 . S
C458 C450 1.378 . S
C458 C453 1.350 . S
C459 H446 0.929 . S
C459 C451 1.433 . S
C459 N461 1.384 . S
N460 C456 1.427 . S
N460 C457 1.384 . S
N461 C453 1.427 . S
N461 C459 1.384 . S
H462 C468 0.930 . S
H463 C472 0.930 . S
H464 C477 0.929 . S
H465 C475 0.929 . S
H466 C470 0.929 . S
H467 C476 0.929 . S
C468 H462 0.930 . S
C468 C469 1.367 . S
C468 C476 1.378 . S
C469 C468 1.367 . S
C469 C477 1.433 . S
C470 H466 0.929 . S
C470 C472 1.378 . S
C470 C474 1.350 . S
C471 C474 1.463 . S
C471 C476 1.350 . S
C471 N479 1.427 . S
C472 H463 0.930 . S
C472 C470 1.378 . S
C472 C473 1.367 1_556 S
C473 C472 1.367 1_554 S
C473 C475 1.433 . S
C474 C470 1.350 . S
C474 C471 1.463 . S
C474 N478 1.427 . S
C475 H465 0.929 . S
C475 C473 1.433 . S
C475 N478 1.384 1_554 S
C476 H467 0.929 . S
C476 C468 1.378 . S
C476 C471 1.350 . S
C477 H464 0.929 . S
C477 C469 1.433 . S
C477 N479 1.384 . S
N478 C474 1.427 . S
N478 C475 1.384 1_556 S
N479 C471 1.427 . S
N479 C477 1.384 . S
H480 C486 0.930 . S
H481 C490 0.930 1_455 S
H482 C495 0.930 . S
H483 C493 0.929 . S
H484 C488 0.929 . S
H485 C494 0.929 . S
C486 H480 0.930 . S
C486 C487 1.367 . S
C486 C494 1.378 . S
C487 C486 1.367 . S
C487 C495 1.433 . S
C488 H484 0.929 . S
C488 C490 1.378 . S
C488 C492 1.350 . S
C489 C492 1.463 . S
C489 C494 1.350 . S
C489 N497 1.427 . S
C490 H481 0.930 1_655 S
C490 C488 1.378 . S
C490 C491 1.367 . S
C491 C490 1.367 . S
C491 C493 1.433 . S
C492 C488 1.350 . S
C492 C489 1.463 . S
C492 N496 1.427 . S
C493 H483 0.929 . S
C493 C491 1.433 . S
C493 N496 1.384 . S
C494 H485 0.929 . S
C494 C486 1.378 . S
C494 C489 1.350 . S
C495 H482 0.930 . S
C495 C487 1.433 . S
C495 N497 1.384 . S
N496 C492 1.427 . S
N496 C493 1.384 . S
N497 C489 1.427 . S
N497 C495 1.384 . S
H498 C504 0.930 . S
H499 C508 0.930 . S
H500 C513 0.929 1_565 S
H501 C511 0.929 . S
H502 C506 0.929 . S
H503 C512 0.929 . S
C504 H498 0.930 . S
C504 C505 1.367 . S
C504 C512 1.378 . S
C505 C504 1.367 . S
C505 C513 1.433 . S
C506 H502 0.929 . S
C506 C508 1.378 . S
C506 C510 1.350 1_565 S
C507 C510 1.463 . S
C507 C512 1.350 . S
C507 N515 1.427 1_545 S
C508 H499 0.930 . S
C508 C506 1.378 . S
C508 C509 1.367 . S
C509 C508 1.367 . S
C509 C511 1.433 1_565 S
C510 C506 1.350 1_545 S
C510 C507 1.463 . S
C510 N514 1.427 . S
C511 H501 0.929 . S
C511 C509 1.433 1_545 S
C511 N514 1.384 . S
C512 H503 0.929 . S
C512 C504 1.378 . S
C512 C507 1.350 . S
C513 H500 0.929 1_545 S
C513 C505 1.433 . S
C513 N515 1.384 1_545 S
N514 C510 1.427 . S
N514 C511 1.384 . S
N515 C507 1.427 1_565 S
N515 C513 1.384 1_565 S
H516 C522 0.930 . S
H517 C526 0.930 . S
H518 C531 0.929 . S
H519 C529 0.929 . S
H520 C524 0.929 . S
H521 C530 0.929 . S
C522 H516 0.930 . S
C522 C523 1.367 1_565 S
C522 C530 1.378 . S
C523 C522 1.367 1_545 S
C523 C531 1.433 1_655 S
C524 H520 0.929 . S
C524 C526 1.378 . S
C524 C528 1.350 . S
C525 C528 1.463 . S
C525 C530 1.350 1_445 S
C525 N533 1.427 . S
C526 H517 0.930 . S
C526 C524 1.378 . S
C526 C527 1.367 1_545 S
C527 C526 1.367 1_565 S
C527 C529 1.433 1_455 S
C528 C524 1.350 . S
C528 C525 1.463 . S
C528 N532 1.427 1_445 S
C529 H519 0.929 . S
C529 C527 1.433 1_655 S
C529 N532 1.384 . S
C530 H521 0.929 . S
C530 C522 1.378 . S
C530 C525 1.350 1_665 S
C531 H518 0.929 . S
C531 C523 1.433 1_455 S
C531 N533 1.384 . S
N532 C528 1.427 1_665 S
N532 C529 1.384 . S
N533 C525 1.427 . S
N533 C531 1.384 . S
H534 C540 0.930 . S
H535 C544 0.930 . S
H536 C549 0.929 . S
H537 C547 0.929 . S
H538 C542 0.929 . S
H539 C548 0.929 . S
C540 H534 0.930 . S
C540 C541 1.367 . S
C540 C548 1.378 1_655 S
C541 C540 1.367 . S
C541 C549 1.433 . S
C542 H538 0.929 . S
C542 C544 1.378 . S
C542 C546 1.350 . S
C543 C546 1.463 . S
C543 C548 1.350 . S
C543 N551 1.427 . S
C544 H535 0.930 . S
C544 C542 1.378 . S
C544 C545 1.367 . S
C545 C544 1.367 . S
C545 C547 1.433 . S
C546 C542 1.350 . S
C546 C543 1.463 . S
C546 N550 1.427 . S
C547 H537 0.929 . S
C547 C545 1.433 . S
C547 N550 1.384 . S
C548 H539 0.929 . S
C548 C540 1.378 1_455 S
C548 C543 1.350 . S
C549 H536 0.929 . S
C549 C541 1.433 . S
C549 N551 1.384 1_655 S
N550 C546 1.427 . S
N550 C547 1.384 . S
N551 C543 1.427 . S
N551 C549 1.384 1_455 S
C343 C224 0.812 . S
C347 C68 0.812 . S
C361 C308 0.784 . S
C365 C152 0.784 . S
C379 C236 1.743 1_545 S
C383 C56 1.743 . S
C397 C140 1.745 . S
C401 C320 1.745 1_455 S
C415 C151 2.034 . S
C419 C67 2.038 . S
C433 C139 1.194 . S
C437 C226 1.040 . S
C451 C322 1.741 . S
C455 C238 1.747 . S
C469 C310 1.009 . S
C473 C55 1.208 . S
C487 C223 2.042 1_556 S
C491 C307 2.035 . S
C505 C70 1.025 . S
C509 C319 1.202 . S
C523 C142 1.744 . S
C527 C58 1.739 . S
C541 C235 1.209 . S
C545 C154 1.003 . S
