# Generated by pormake.
# Topology wse, (4)-cn, num edge types: 1
# Building blocks:
#     Node 0, Type 0, BuildingBlock: QUQFOY_clean_sbu_1, # of connection points: 4
#     Node 1, Type 0, BuildingBlock: QUQFOY_clean_sbu_1, # of connection points: 4
#     Node 2, Type 0, BuildingBlock: QUQFOY_clean_sbu_1, # of connection points: 4
#     Node 3, Type 0, BuildingBlock: QUQFOY_clean_sbu_1, # of connection points: 4
#     Node 4, Type 0, BuildingBlock: QUQFOY_clean_sbu_1, # of connection points: 4
#     Node 5, Type 0, BuildingBlock: QUQFOY_clean_sbu_1, # of connection points: 4
#     Node 6, Type 0, BuildingBlock: QUQFOY_clean_sbu_1, # of connection points: 4
#     Node 7, Type 0, BuildingBlock: QUQFOY_clean_sbu_1, # of connection points: 4
#     Node 8, Type 0, BuildingBlock: QUQFOY_clean_sbu_1, # of connection points: 4
#     Node 9, Type 0, BuildingBlock: QUQFOY_clean_sbu_1, # of connection points: 4
#     Node 10, Type 0, BuildingBlock: QUQFOY_clean_sbu_1, # of connection points: 4
#     Node 11, Type 0, BuildingBlock: QUQFOY_clean_sbu_1, # of connection points: 4
#     Node 12, Type 0, BuildingBlock: QUQFOY_clean_sbu_1, # of connection points: 4
#     Node 13, Type 0, BuildingBlock: QUQFOY_clean_sbu_1, # of connection points: 4
#     Node 14, Type 0, BuildingBlock: QUQFOY_clean_sbu_1, # of connection points: 4
#     Node 15, Type 0, BuildingBlock: QUQFOY_clean_sbu_1, # of connection points: 4
#     Node 16, Type 0, BuildingBlock: QUQFOY_clean_sbu_1, # of connection points: 4
#     Node 17, Type 0, BuildingBlock: QUQFOY_clean_sbu_1, # of connection points: 4
#     Node 18, Type 0, BuildingBlock: QUQFOY_clean_sbu_1, # of connection points: 4
#     Node 19, Type 0, BuildingBlock: QUQFOY_clean_sbu_1, # of connection points: 4
#     Node 20, Type 0, BuildingBlock: QUQFOY_clean_sbu_1, # of connection points: 4
#     Node 21, Type 0, BuildingBlock: QUQFOY_clean_sbu_1, # of connection points: 4
#     Node 22, Type 0, BuildingBlock: QUQFOY_clean_sbu_1, # of connection points: 4
#     Node 23, Type 0, BuildingBlock: QUQFOY_clean_sbu_1, # of connection points: 4
#     Node 24, Type 0, BuildingBlock: QUQFOY_clean_sbu_1, # of connection points: 4
#     Node 25, Type 0, BuildingBlock: QUQFOY_clean_sbu_1, # of connection points: 4
#     Node 26, Type 0, BuildingBlock: QUQFOY_clean_sbu_1, # of connection points: 4
#     Node 27, Type 0, BuildingBlock: QUQFOY_clean_sbu_1, # of connection points: 4
#     Node 28, Type 0, BuildingBlock: QUQFOY_clean_sbu_1, # of connection points: 4
#     Node 29, Type 0, BuildingBlock: QUQFOY_clean_sbu_1, # of connection points: 4
#     Node 30, Type 0, BuildingBlock: QUQFOY_clean_sbu_1, # of connection points: 4
#     Node 31, Type 0, BuildingBlock: QUQFOY_clean_sbu_1, # of connection points: 4
#     Node 32, Type 0, BuildingBlock: QUQFOY_clean_sbu_1, # of connection points: 4
#     Node 33, Type 0, BuildingBlock: QUQFOY_clean_sbu_1, # of connection points: 4
#     Node 34, Type 0, BuildingBlock: QUQFOY_clean_sbu_1, # of connection points: 4
#     Node 35, Type 0, BuildingBlock: QUQFOY_clean_sbu_1, # of connection points: 4
#     Node 36, Type 0, BuildingBlock: QUQFOY_clean_sbu_1, # of connection points: 4
#     Node 37, Type 0, BuildingBlock: QUQFOY_clean_sbu_1, # of connection points: 4
#     Node 38, Type 0, BuildingBlock: QUQFOY_clean_sbu_1, # of connection points: 4
#     Node 39, Type 0, BuildingBlock: QUQFOY_clean_sbu_1, # of connection points: 4
#     Node 40, Type 0, BuildingBlock: QUQFOY_clean_sbu_1, # of connection points: 4
#     Node 41, Type 0, BuildingBlock: QUQFOY_clean_sbu_1, # of connection points: 4
#     Node 42, Type 0, BuildingBlock: QUQFOY_clean_sbu_1, # of connection points: 4
#     Node 43, Type 0, BuildingBlock: QUQFOY_clean_sbu_1, # of connection points: 4
#     Node 44, Type 0, BuildingBlock: QUQFOY_clean_sbu_1, # of connection points: 4
#     Node 45, Type 0, BuildingBlock: QUQFOY_clean_sbu_1, # of connection points: 4
#     Node 46, Type 0, BuildingBlock: QUQFOY_clean_sbu_1, # of connection points: 4
#     Node 47, Type 0, BuildingBlock: QUQFOY_clean_sbu_1, # of connection points: 4
#     Node 48, Type 0, BuildingBlock: QUQFOY_clean_sbu_1, # of connection points: 4
#     Node 49, Type 0, BuildingBlock: QUQFOY_clean_sbu_1, # of connection points: 4
#     Node 50, Type 0, BuildingBlock: QUQFOY_clean_sbu_1, # of connection points: 4
#     Node 51, Type 0, BuildingBlock: QUQFOY_clean_sbu_1, # of connection points: 4
#     Node 52, Type 0, BuildingBlock: QUQFOY_clean_sbu_1, # of connection points: 4
#     Node 53, Type 0, BuildingBlock: QUQFOY_clean_sbu_1, # of connection points: 4
#     Node 54, Type 0, BuildingBlock: QUQFOY_clean_sbu_1, # of connection points: 4
#     Node 55, Type 0, BuildingBlock: QUQFOY_clean_sbu_1, # of connection points: 4
#     Node 56, Type 0, BuildingBlock: QUQFOY_clean_sbu_1, # of connection points: 4
#     Node 57, Type 0, BuildingBlock: QUQFOY_clean_sbu_1, # of connection points: 4
#     Node 58, Type 0, BuildingBlock: QUQFOY_clean_sbu_1, # of connection points: 4
#     Node 59, Type 0, BuildingBlock: QUQFOY_clean_sbu_1, # of connection points: 4
#     Node 60, Type 0, BuildingBlock: QUQFOY_clean_sbu_1, # of connection points: 4
#     Node 61, Type 0, BuildingBlock: QUQFOY_clean_sbu_1, # of connection points: 4
#     Node 62, Type 0, BuildingBlock: QUQFOY_clean_sbu_1, # of connection points: 4
#     Node 63, Type 0, BuildingBlock: QUQFOY_clean_sbu_1, # of connection points: 4
#     Node 64, Type 0, BuildingBlock: QUQFOY_clean_sbu_1, # of connection points: 4
#     Node 65, Type 0, BuildingBlock: QUQFOY_clean_sbu_1, # of connection points: 4
#     Node 66, Type 0, BuildingBlock: QUQFOY_clean_sbu_1, # of connection points: 4
#     Node 67, Type 0, BuildingBlock: QUQFOY_clean_sbu_1, # of connection points: 4
#     Node 68, Type 0, BuildingBlock: QUQFOY_clean_sbu_1, # of connection points: 4
#     Node 69, Type 0, BuildingBlock: QUQFOY_clean_sbu_1, # of connection points: 4
#     Node 70, Type 0, BuildingBlock: QUQFOY_clean_sbu_1, # of connection points: 4
#     Node 71, Type 0, BuildingBlock: QUQFOY_clean_sbu_1, # of connection points: 4
#     Node 72, Type 0, BuildingBlock: QUQFOY_clean_sbu_1, # of connection points: 4
#     Node 73, Type 0, BuildingBlock: QUQFOY_clean_sbu_1, # of connection points: 4
#     Node 74, Type 0, BuildingBlock: QUQFOY_clean_sbu_1, # of connection points: 4
#     Node 75, Type 0, BuildingBlock: QUQFOY_clean_sbu_1, # of connection points: 4
#     Node 76, Type 0, BuildingBlock: QUQFOY_clean_sbu_1, # of connection points: 4
#     Node 77, Type 0, BuildingBlock: QUQFOY_clean_sbu_1, # of connection points: 4
#     Node 78, Type 0, BuildingBlock: QUQFOY_clean_sbu_1, # of connection points: 4
#     Node 79, Type 0, BuildingBlock: QUQFOY_clean_sbu_1, # of connection points: 4
#     Node 80, Type 0, BuildingBlock: QUQFOY_clean_sbu_1, # of connection points: 4
#     Node 81, Type 0, BuildingBlock: QUQFOY_clean_sbu_1, # of connection points: 4
#     Node 82, Type 0, BuildingBlock: QUQFOY_clean_sbu_1, # of connection points: 4
#     Node 83, Type 0, BuildingBlock: QUQFOY_clean_sbu_1, # of connection points: 4
#     Node 84, Type 0, BuildingBlock: QUQFOY_clean_sbu_1, # of connection points: 4
#     Node 85, Type 0, BuildingBlock: QUQFOY_clean_sbu_1, # of connection points: 4
#     Node 86, Type 0, BuildingBlock: QUQFOY_clean_sbu_1, # of connection points: 4
#     Node 87, Type 0, BuildingBlock: QUQFOY_clean_sbu_1, # of connection points: 4
#     Node 88, Type 0, BuildingBlock: QUQFOY_clean_sbu_1, # of connection points: 4
#     Node 89, Type 0, BuildingBlock: QUQFOY_clean_sbu_1, # of connection points: 4
#     Node 90, Type 0, BuildingBlock: QUQFOY_clean_sbu_1, # of connection points: 4
#     Node 91, Type 0, BuildingBlock: QUQFOY_clean_sbu_1, # of connection points: 4
#     Node 92, Type 0, BuildingBlock: QUQFOY_clean_sbu_1, # of connection points: 4
#     Node 93, Type 0, BuildingBlock: QUQFOY_clean_sbu_1, # of connection points: 4
#     Node 94, Type 0, BuildingBlock: QUQFOY_clean_sbu_1, # of connection points: 4
#     Node 95, Type 0, BuildingBlock: QUQFOY_clean_sbu_1, # of connection points: 4
#     Edge 96, Type (0, 0), None
#     Edge 97, Type (0, 0), None
#     Edge 98, Type (0, 0), None
#     Edge 99, Type (0, 0), None
#     Edge 100, Type (0, 0), None
#     Edge 101, Type (0, 0), None
#     Edge 102, Type (0, 0), None
#     Edge 103, Type (0, 0), None
#     Edge 104, Type (0, 0), None
#     Edge 105, Type (0, 0), None
#     Edge 106, Type (0, 0), None
#     Edge 107, Type (0, 0), None
#     Edge 108, Type (0, 0), None
#     Edge 109, Type (0, 0), None
#     Edge 110, Type (0, 0), None
#     Edge 111, Type (0, 0), None
#     Edge 112, Type (0, 0), None
#     Edge 113, Type (0, 0), None
#     Edge 114, Type (0, 0), None
#     Edge 115, Type (0, 0), None
#     Edge 116, Type (0, 0), None
#     Edge 117, Type (0, 0), None
#     Edge 118, Type (0, 0), None
#     Edge 119, Type (0, 0), None
#     Edge 120, Type (0, 0), None
#     Edge 121, Type (0, 0), None
#     Edge 122, Type (0, 0), None
#     Edge 123, Type (0, 0), None
#     Edge 124, Type (0, 0), None
#     Edge 125, Type (0, 0), None
#     Edge 126, Type (0, 0), None
#     Edge 127, Type (0, 0), None
#     Edge 128, Type (0, 0), None
#     Edge 129, Type (0, 0), None
#     Edge 130, Type (0, 0), None
#     Edge 131, Type (0, 0), None
#     Edge 132, Type (0, 0), None
#     Edge 133, Type (0, 0), None
#     Edge 134, Type (0, 0), None
#     Edge 135, Type (0, 0), None
#     Edge 136, Type (0, 0), None
#     Edge 137, Type (0, 0), None
#     Edge 138, Type (0, 0), None
#     Edge 139, Type (0, 0), None
#     Edge 140, Type (0, 0), None
#     Edge 141, Type (0, 0), None
#     Edge 142, Type (0, 0), None
#     Edge 143, Type (0, 0), None
#     Edge 144, Type (0, 0), None
#     Edge 145, Type (0, 0), None
#     Edge 146, Type (0, 0), None
#     Edge 147, Type (0, 0), None
#     Edge 148, Type (0, 0), None
#     Edge 149, Type (0, 0), None
#     Edge 150, Type (0, 0), None
#     Edge 151, Type (0, 0), None
#     Edge 152, Type (0, 0), None
#     Edge 153, Type (0, 0), None
#     Edge 154, Type (0, 0), None
#     Edge 155, Type (0, 0), None
#     Edge 156, Type (0, 0), None
#     Edge 157, Type (0, 0), None
#     Edge 158, Type (0, 0), None
#     Edge 159, Type (0, 0), None
#     Edge 160, Type (0, 0), None
#     Edge 161, Type (0, 0), None
#     Edge 162, Type (0, 0), None
#     Edge 163, Type (0, 0), None
#     Edge 164, Type (0, 0), None
#     Edge 165, Type (0, 0), None
#     Edge 166, Type (0, 0), None
#     Edge 167, Type (0, 0), None
#     Edge 168, Type (0, 0), None
#     Edge 169, Type (0, 0), None
#     Edge 170, Type (0, 0), None
#     Edge 171, Type (0, 0), None
#     Edge 172, Type (0, 0), None
#     Edge 173, Type (0, 0), None
#     Edge 174, Type (0, 0), None
#     Edge 175, Type (0, 0), None
#     Edge 176, Type (0, 0), None
#     Edge 177, Type (0, 0), None
#     Edge 178, Type (0, 0), None
#     Edge 179, Type (0, 0), None
#     Edge 180, Type (0, 0), None
#     Edge 181, Type (0, 0), None
#     Edge 182, Type (0, 0), None
#     Edge 183, Type (0, 0), None
#     Edge 184, Type (0, 0), None
#     Edge 185, Type (0, 0), None
#     Edge 186, Type (0, 0), None
#     Edge 187, Type (0, 0), None
#     Edge 188, Type (0, 0), None
#     Edge 189, Type (0, 0), None
#     Edge 190, Type (0, 0), None
#     Edge 191, Type (0, 0), None
#     Edge 192, Type (0, 0), None
#     Edge 193, Type (0, 0), None
#     Edge 194, Type (0, 0), None
#     Edge 195, Type (0, 0), None
#     Edge 196, Type (0, 0), None
#     Edge 197, Type (0, 0), None
#     Edge 198, Type (0, 0), None
#     Edge 199, Type (0, 0), None
#     Edge 200, Type (0, 0), None
#     Edge 201, Type (0, 0), None
#     Edge 202, Type (0, 0), None
#     Edge 203, Type (0, 0), None
#     Edge 204, Type (0, 0), None
#     Edge 205, Type (0, 0), None
#     Edge 206, Type (0, 0), None
#     Edge 207, Type (0, 0), None
#     Edge 208, Type (0, 0), None
#     Edge 209, Type (0, 0), None
#     Edge 210, Type (0, 0), None
#     Edge 211, Type (0, 0), None
#     Edge 212, Type (0, 0), None
#     Edge 213, Type (0, 0), None
#     Edge 214, Type (0, 0), None
#     Edge 215, Type (0, 0), None
#     Edge 216, Type (0, 0), None
#     Edge 217, Type (0, 0), None
#     Edge 218, Type (0, 0), None
#     Edge 219, Type (0, 0), None
#     Edge 220, Type (0, 0), None
#     Edge 221, Type (0, 0), None
#     Edge 222, Type (0, 0), None
#     Edge 223, Type (0, 0), None
#     Edge 224, Type (0, 0), None
#     Edge 225, Type (0, 0), None
#     Edge 226, Type (0, 0), None
#     Edge 227, Type (0, 0), None
#     Edge 228, Type (0, 0), None
#     Edge 229, Type (0, 0), None
#     Edge 230, Type (0, 0), None
#     Edge 231, Type (0, 0), None
#     Edge 232, Type (0, 0), None
#     Edge 233, Type (0, 0), None
#     Edge 234, Type (0, 0), None
#     Edge 235, Type (0, 0), None
#     Edge 236, Type (0, 0), None
#     Edge 237, Type (0, 0), None
#     Edge 238, Type (0, 0), None
#     Edge 239, Type (0, 0), None
#     Edge 240, Type (0, 0), None
#     Edge 241, Type (0, 0), None
#     Edge 242, Type (0, 0), None
#     Edge 243, Type (0, 0), None
#     Edge 244, Type (0, 0), None
#     Edge 245, Type (0, 0), None
#     Edge 246, Type (0, 0), None
#     Edge 247, Type (0, 0), None
#     Edge 248, Type (0, 0), None
#     Edge 249, Type (0, 0), None
#     Edge 250, Type (0, 0), None
#     Edge 251, Type (0, 0), None
#     Edge 252, Type (0, 0), None
#     Edge 253, Type (0, 0), None
#     Edge 254, Type (0, 0), None
#     Edge 255, Type (0, 0), None
#     Edge 256, Type (0, 0), None
#     Edge 257, Type (0, 0), None
#     Edge 258, Type (0, 0), None
#     Edge 259, Type (0, 0), None
#     Edge 260, Type (0, 0), None
#     Edge 261, Type (0, 0), None
#     Edge 262, Type (0, 0), None
#     Edge 263, Type (0, 0), None
#     Edge 264, Type (0, 0), None
#     Edge 265, Type (0, 0), None
#     Edge 266, Type (0, 0), None
#     Edge 267, Type (0, 0), None
#     Edge 268, Type (0, 0), None
#     Edge 269, Type (0, 0), None
#     Edge 270, Type (0, 0), None
#     Edge 271, Type (0, 0), None
#     Edge 272, Type (0, 0), None
#     Edge 273, Type (0, 0), None
#     Edge 274, Type (0, 0), None
#     Edge 275, Type (0, 0), None
#     Edge 276, Type (0, 0), None
#     Edge 277, Type (0, 0), None
#     Edge 278, Type (0, 0), None
#     Edge 279, Type (0, 0), None
#     Edge 280, Type (0, 0), None
#     Edge 281, Type (0, 0), None
#     Edge 282, Type (0, 0), None
#     Edge 283, Type (0, 0), None
#     Edge 284, Type (0, 0), None
#     Edge 285, Type (0, 0), None
#     Edge 286, Type (0, 0), None
#     Edge 287, Type (0, 0), None
# Relax obj value: 0.261
# Max RMSD: 0.179
# Mean RMSD: 0.177
data_MOF--net-wse--node1-QUQFOY_clean_sbu_1--edge1-none
_symmetry_space_group_name_H-M    P1
_symmetry_Int_Tables_number       1
_symmetry_cell_setting            triclinic
loop_
_symmetry_equiv_pos_as_xyz
'x, y, z'
_cell_length_a     49.690538
_cell_length_b     49.690745
_cell_length_c     49.690734
_cell_angle_alpha  90.0
_cell_angle_beta   90.0
_cell_angle_gamma 90.0
loop_
_atom_site_label
_atom_site_type_symbol
_atom_site_fract_x
_atom_site_fract_y
_atom_site_fract_z
_atom_type_partial_charge
O0 O 0.05363 0.19861 0.45657 0.0
Cd1 Cd 0.0943 0.20619 0.4537 0.0
Cd2 Cd 0.08789 0.15546 0.4487 0.0
O3 O 0.04956 0.16183 0.43255 0.0
O4 O 0.08942 0.24364 0.46448 0.0
O5 O 0.10494 0.23309 0.42428 0.0
C6 C 0.09629 0.25106 0.44083 0.0
C7 C 0.12841 0.14069 0.43057 0.0
C8 C 0.03883 0.1819 0.44428 0.0
C9 C 0.10451 0.178 0.50125 0.0
O10 O 0.0887 0.16112 0.49025 0.0
O11 O 0.11651 0.19513 0.48667 0.0
O12 O 0.11006 0.12365 0.43779 0.0
O13 O 0.1225 0.16605 0.43091 0.0
O14 O 0.86779 0.0887 0.49025 0.0
Cd15 Cd 0.87345 0.08789 0.4487 0.0
Cd16 Cd 0.82271 0.0943 0.4537 0.0
O17 O 0.83378 0.11651 0.48667 0.0
O18 O 0.90526 0.11006 0.43779 0.0
O19 O 0.86286 0.1225 0.43091 0.0
C20 C 0.88822 0.12841 0.43057 0.0
C21 C 0.77784 0.09629 0.44083 0.0
C22 C 0.85091 0.1045 0.50125 0.0
C23 C 0.847 0.03883 0.44428 0.0
O24 O 0.83029 0.05363 0.45657 0.0
O25 O 0.86708 0.04956 0.43255 0.0
O26 O 0.78527 0.08942 0.46448 0.0
O27 O 0.79581 0.10494 0.42428 0.0
O28 O 0.97528 0.83029 0.45657 0.0
Cd29 Cd 0.93461 0.82271 0.4537 0.0
Cd30 Cd 0.94101 0.87344 0.4487 0.0
O31 O 0.97935 0.86708 0.43255 0.0
O32 O 0.93949 0.78527 0.46448 0.0
O33 O 0.92397 0.79581 0.42428 0.0
C34 C 0.93261 0.77784 0.44083 0.0
C35 C 0.9005 0.88822 0.43057 0.0
C36 C 0.99008 0.847 0.44428 0.0
C37 C 0.9244 0.8509 0.50125 0.0
O38 O 0.94021 0.86779 0.49025 0.0
O39 O 0.9124 0.83378 0.48667 0.0
O40 O 0.91885 0.90526 0.43779 0.0
O41 O 0.90641 0.86286 0.43091 0.0
O42 O 0.16112 0.94021 0.49025 0.0
Cd43 Cd 0.15546 0.94101 0.4487 0.0
Cd44 Cd 0.20619 0.93461 0.4537 0.0
O45 O 0.19513 0.9124 0.48667 0.0
O46 O 0.12365 0.91885 0.43779 0.0
O47 O 0.16605 0.90641 0.43091 0.0
C48 C 0.14069 0.9005 0.43057 0.0
C49 C 0.25106 0.93261 0.44083 0.0
C50 C 0.178 0.9244 0.50125 0.0
C51 C 0.1819 0.99008 0.44428 0.0
O52 O 0.19861 0.97528 0.45657 0.0
O53 O 0.16183 0.97935 0.43255 0.0
O54 O 0.24364 0.93948 0.46448 0.0
O55 O 0.23309 0.92397 0.42428 0.0
O56 O 0.05363 0.83029 0.57233 0.0
Cd57 Cd 0.0943 0.82271 0.5752 0.0
Cd58 Cd 0.08789 0.87344 0.5802 0.0
O59 O 0.04956 0.86708 0.59636 0.0
O60 O 0.08942 0.78527 0.56442 0.0
O61 O 0.10494 0.79581 0.60462 0.0
C62 C 0.09629 0.77784 0.58808 0.0
C63 C 0.12841 0.88822 0.59834 0.0
C64 C 0.03883 0.847 0.58463 0.0
C65 C 0.10451 0.8509 0.52766 0.0
O66 O 0.0887 0.86779 0.53865 0.0
O67 O 0.11651 0.83378 0.54224 0.0
O68 O 0.11006 0.90526 0.59111 0.0
O69 O 0.1225 0.86286 0.59799 0.0
O70 O 0.16112 0.0887 0.53865 0.0
Cd71 Cd 0.15546 0.08789 0.5802 0.0
Cd72 Cd 0.20619 0.0943 0.5752 0.0
O73 O 0.19513 0.11651 0.54224 0.0
O74 O 0.12365 0.11006 0.59111 0.0
O75 O 0.16605 0.1225 0.59799 0.0
C76 C 0.14069 0.12841 0.59834 0.0
C77 C 0.25106 0.09629 0.58808 0.0
C78 C 0.178 0.1045 0.52766 0.0
C79 C 0.1819 0.03883 0.58463 0.0
O80 O 0.19861 0.05363 0.57233 0.0
O81 O 0.16183 0.04956 0.59636 0.0
O82 O 0.24364 0.08942 0.56442 0.0
O83 O 0.23309 0.10494 0.60462 0.0
O84 O 0.97528 0.19861 0.57233 0.0
Cd85 Cd 0.93461 0.20619 0.5752 0.0
Cd86 Cd 0.94101 0.15546 0.5802 0.0
O87 O 0.97935 0.16183 0.59636 0.0
O88 O 0.93949 0.24364 0.56442 0.0
O89 O 0.92397 0.23309 0.60462 0.0
C90 C 0.93261 0.25106 0.58808 0.0
C91 C 0.9005 0.14069 0.59834 0.0
C92 C 0.99008 0.1819 0.58463 0.0
C93 C 0.9244 0.178 0.52766 0.0
O94 O 0.94021 0.16112 0.53865 0.0
O95 O 0.9124 0.19513 0.54224 0.0
O96 O 0.91885 0.12365 0.59111 0.0
O97 O 0.90641 0.16605 0.59799 0.0
O98 O 0.86779 0.94021 0.53865 0.0
Cd99 Cd 0.87345 0.94101 0.5802 0.0
Cd100 Cd 0.82271 0.93461 0.5752 0.0
O101 O 0.83378 0.9124 0.54224 0.0
O102 O 0.90526 0.91885 0.59111 0.0
O103 O 0.86286 0.90641 0.59799 0.0
C104 C 0.88822 0.9005 0.59834 0.0
C105 C 0.77784 0.93261 0.58808 0.0
C106 C 0.85091 0.9244 0.52766 0.0
C107 C 0.847 0.99008 0.58463 0.0
O108 O 0.83029 0.97528 0.57233 0.0
O109 O 0.86708 0.97935 0.59636 0.0
O110 O 0.78527 0.93948 0.56442 0.0
O111 O 0.79581 0.92397 0.60462 0.0
O112 O 0.49026 0.0887 0.16112 0.0
Cd113 Cd 0.44871 0.08789 0.15546 0.0
Cd114 Cd 0.4537 0.0943 0.20619 0.0
O115 O 0.48667 0.11651 0.19512 0.0
O116 O 0.43779 0.11006 0.12365 0.0
O117 O 0.43091 0.1225 0.16605 0.0
C118 C 0.43057 0.12841 0.14069 0.0
C119 C 0.44083 0.09629 0.25106 0.0
C120 C 0.50125 0.1045 0.178 0.0
C121 C 0.44428 0.03883 0.1819 0.0
O122 O 0.45657 0.05363 0.19861 0.0
O123 O 0.43255 0.04956 0.16183 0.0
O124 O 0.46449 0.08942 0.24364 0.0
O125 O 0.42428 0.10494 0.23309 0.0
O126 O 0.97528 0.45657 0.19861 0.0
Cd127 Cd 0.93461 0.4537 0.20619 0.0
Cd128 Cd 0.94101 0.4487 0.15546 0.0
O129 O 0.97935 0.43255 0.16183 0.0
O130 O 0.93949 0.46448 0.24364 0.0
O131 O 0.92397 0.42428 0.23309 0.0
C132 C 0.93261 0.44083 0.25106 0.0
C133 C 0.9005 0.43057 0.14069 0.0
C134 C 0.99008 0.44428 0.1819 0.0
C135 C 0.9244 0.50125 0.178 0.0
O136 O 0.94021 0.49025 0.16112 0.0
O137 O 0.9124 0.48667 0.19513 0.0
O138 O 0.91885 0.43779 0.12365 0.0
O139 O 0.90641 0.43091 0.16605 0.0
O140 O 0.53865 0.94021 0.16112 0.0
Cd141 Cd 0.5802 0.94101 0.15546 0.0
Cd142 Cd 0.57521 0.93461 0.20619 0.0
O143 O 0.54224 0.9124 0.19512 0.0
O144 O 0.59111 0.91885 0.12365 0.0
O145 O 0.598 0.90641 0.16605 0.0
C146 C 0.59834 0.9005 0.14069 0.0
C147 C 0.58808 0.93261 0.25106 0.0
C148 C 0.52766 0.9244 0.178 0.0
C149 C 0.58463 0.99008 0.1819 0.0
O150 O 0.57233 0.97528 0.19861 0.0
O151 O 0.59636 0.97935 0.16183 0.0
O152 O 0.56442 0.93948 0.24364 0.0
O153 O 0.60463 0.92397 0.23309 0.0
O154 O 0.05363 0.57233 0.19861 0.0
Cd155 Cd 0.0943 0.5752 0.20619 0.0
Cd156 Cd 0.08789 0.5802 0.15546 0.0
O157 O 0.04956 0.59636 0.16183 0.0
O158 O 0.08942 0.56442 0.24364 0.0
O159 O 0.10494 0.60462 0.23309 0.0
C160 C 0.09629 0.58808 0.25106 0.0
C161 C 0.12841 0.59834 0.14069 0.0
C162 C 0.03883 0.58463 0.1819 0.0
C163 C 0.10451 0.52766 0.178 0.0
O164 O 0.0887 0.53865 0.16112 0.0
O165 O 0.11651 0.54224 0.19513 0.0
O166 O 0.11006 0.59111 0.12365 0.0
O167 O 0.1225 0.59799 0.16605 0.0
O168 O 0.49026 0.94021 0.86779 0.0
Cd169 Cd 0.44871 0.94101 0.87344 0.0
Cd170 Cd 0.4537 0.93461 0.82271 0.0
O171 O 0.48667 0.9124 0.83378 0.0
O172 O 0.43779 0.91885 0.90526 0.0
O173 O 0.43091 0.90641 0.86286 0.0
C174 C 0.43057 0.9005 0.88822 0.0
C175 C 0.44083 0.93261 0.77784 0.0
C176 C 0.50125 0.9244 0.8509 0.0
C177 C 0.44428 0.99008 0.847 0.0
O178 O 0.45657 0.97528 0.83029 0.0
O179 O 0.43255 0.97935 0.86708 0.0
O180 O 0.46449 0.93948 0.78527 0.0
O181 O 0.42428 0.92397 0.79581 0.0
O182 O 0.05363 0.45657 0.83029 0.0
Cd183 Cd 0.0943 0.4537 0.82271 0.0
Cd184 Cd 0.08789 0.4487 0.87344 0.0
O185 O 0.04956 0.43255 0.86708 0.0
O186 O 0.08942 0.46448 0.78527 0.0
O187 O 0.10494 0.42428 0.79581 0.0
C188 C 0.09629 0.44083 0.77784 0.0
C189 C 0.12841 0.43057 0.88822 0.0
C190 C 0.03883 0.44428 0.847 0.0
C191 C 0.10451 0.50125 0.8509 0.0
O192 O 0.0887 0.49025 0.86779 0.0
O193 O 0.11651 0.48667 0.83378 0.0
O194 O 0.11006 0.43779 0.90526 0.0
O195 O 0.1225 0.43091 0.86286 0.0
O196 O 0.53865 0.0887 0.86779 0.0
Cd197 Cd 0.5802 0.08789 0.87344 0.0
Cd198 Cd 0.57521 0.0943 0.82271 0.0
O199 O 0.54224 0.11651 0.83378 0.0
O200 O 0.59111 0.11006 0.90526 0.0
O201 O 0.598 0.1225 0.86286 0.0
C202 C 0.59834 0.12841 0.88822 0.0
C203 C 0.58808 0.09629 0.77784 0.0
C204 C 0.52766 0.1045 0.8509 0.0
C205 C 0.58463 0.03883 0.847 0.0
O206 O 0.57233 0.05363 0.83029 0.0
O207 O 0.59636 0.04956 0.86708 0.0
O208 O 0.56442 0.08942 0.78527 0.0
O209 O 0.60463 0.10494 0.79581 0.0
O210 O 0.97528 0.57233 0.83029 0.0
Cd211 Cd 0.93461 0.5752 0.82271 0.0
Cd212 Cd 0.94101 0.5802 0.87344 0.0
O213 O 0.97935 0.59636 0.86708 0.0
O214 O 0.93949 0.56442 0.78527 0.0
O215 O 0.92397 0.60462 0.79581 0.0
C216 C 0.93261 0.58808 0.77784 0.0
C217 C 0.9005 0.59834 0.88822 0.0
C218 C 0.99008 0.58463 0.847 0.0
C219 C 0.9244 0.52766 0.8509 0.0
O220 O 0.94021 0.53865 0.86779 0.0
O221 O 0.9124 0.54224 0.83378 0.0
O222 O 0.91885 0.59111 0.90526 0.0
O223 O 0.90641 0.59799 0.86286 0.0
O224 O 0.16112 0.49025 0.0887 0.0
Cd225 Cd 0.15546 0.4487 0.08789 0.0
Cd226 Cd 0.20619 0.4537 0.0943 0.0
O227 O 0.19513 0.48667 0.11651 0.0
O228 O 0.12365 0.43779 0.11006 0.0
O229 O 0.16605 0.43091 0.1225 0.0
C230 C 0.14069 0.43057 0.12841 0.0
C231 C 0.25106 0.44083 0.09629 0.0
C232 C 0.178 0.50125 0.1045 0.0
C233 C 0.1819 0.44428 0.03883 0.0
O234 O 0.19861 0.45657 0.05363 0.0
O235 O 0.16183 0.43255 0.04956 0.0
O236 O 0.24364 0.46448 0.08942 0.0
O237 O 0.23309 0.42428 0.10494 0.0
O238 O 0.16112 0.53865 0.94021 0.0
Cd239 Cd 0.15546 0.5802 0.94101 0.0
Cd240 Cd 0.20619 0.5752 0.93461 0.0
O241 O 0.19513 0.54224 0.9124 0.0
O242 O 0.12365 0.59111 0.91885 0.0
O243 O 0.16605 0.59799 0.90641 0.0
C244 C 0.14069 0.59834 0.9005 0.0
C245 C 0.25106 0.58808 0.93261 0.0
C246 C 0.178 0.52766 0.9244 0.0
C247 C 0.1819 0.58463 0.99008 0.0
O248 O 0.19861 0.57233 0.97528 0.0
O249 O 0.16183 0.59636 0.97935 0.0
O250 O 0.24364 0.56442 0.93949 0.0
O251 O 0.23309 0.60462 0.92397 0.0
O252 O 0.49026 0.16112 0.94021 0.0
Cd253 Cd 0.44871 0.15546 0.94101 0.0
Cd254 Cd 0.4537 0.20619 0.93461 0.0
O255 O 0.48667 0.19512 0.9124 0.0
O256 O 0.43779 0.12365 0.91885 0.0
O257 O 0.43091 0.16605 0.90641 0.0
C258 C 0.43057 0.14069 0.9005 0.0
C259 C 0.44083 0.25106 0.93261 0.0
C260 C 0.50125 0.178 0.9244 0.0
C261 C 0.44428 0.1819 0.99008 0.0
O262 O 0.45657 0.19861 0.97528 0.0
O263 O 0.43255 0.16183 0.97935 0.0
O264 O 0.46449 0.24364 0.93949 0.0
O265 O 0.42428 0.23309 0.92397 0.0
O266 O 0.86779 0.49025 0.94021 0.0
Cd267 Cd 0.87345 0.4487 0.94101 0.0
Cd268 Cd 0.82271 0.4537 0.93461 0.0
O269 O 0.83378 0.48667 0.9124 0.0
O270 O 0.90526 0.43779 0.91885 0.0
O271 O 0.86286 0.43091 0.90641 0.0
C272 C 0.88822 0.43057 0.9005 0.0
C273 C 0.77784 0.44083 0.93261 0.0
C274 C 0.85091 0.50125 0.9244 0.0
C275 C 0.847 0.44428 0.99008 0.0
O276 O 0.83029 0.45657 0.97528 0.0
O277 O 0.86708 0.43255 0.97935 0.0
O278 O 0.78527 0.46448 0.93949 0.0
O279 O 0.79581 0.42428 0.92397 0.0
O280 O 0.53865 0.86779 0.94021 0.0
Cd281 Cd 0.5802 0.87344 0.94101 0.0
Cd282 Cd 0.57521 0.82271 0.93461 0.0
O283 O 0.54224 0.83378 0.9124 0.0
O284 O 0.59111 0.90526 0.91885 0.0
O285 O 0.598 0.86286 0.90641 0.0
C286 C 0.59834 0.88822 0.9005 0.0
C287 C 0.58808 0.77784 0.93261 0.0
C288 C 0.52766 0.8509 0.9244 0.0
C289 C 0.58463 0.847 0.99008 0.0
O290 O 0.57233 0.83029 0.97528 0.0
O291 O 0.59636 0.86708 0.97935 0.0
O292 O 0.56442 0.78527 0.93949 0.0
O293 O 0.60463 0.79581 0.92397 0.0
O294 O 0.86779 0.53865 0.0887 0.0
Cd295 Cd 0.87345 0.5802 0.08789 0.0
Cd296 Cd 0.82271 0.5752 0.0943 0.0
O297 O 0.83378 0.54224 0.11651 0.0
O298 O 0.90526 0.59111 0.11006 0.0
O299 O 0.86286 0.59799 0.1225 0.0
C300 C 0.88822 0.59834 0.12841 0.0
C301 C 0.77784 0.58808 0.09629 0.0
C302 C 0.85091 0.52766 0.1045 0.0
C303 C 0.847 0.58463 0.03883 0.0
O304 O 0.83029 0.57233 0.05363 0.0
O305 O 0.86708 0.59636 0.04956 0.0
O306 O 0.78527 0.56442 0.08942 0.0
O307 O 0.79581 0.60462 0.10494 0.0
O308 O 0.49026 0.86779 0.0887 0.0
Cd309 Cd 0.44871 0.87344 0.08789 0.0
Cd310 Cd 0.4537 0.82271 0.0943 0.0
O311 O 0.48667 0.83378 0.11651 0.0
O312 O 0.43779 0.90526 0.11006 0.0
O313 O 0.43091 0.86286 0.1225 0.0
C314 C 0.43057 0.88822 0.12841 0.0
C315 C 0.44083 0.77784 0.09629 0.0
C316 C 0.50125 0.8509 0.1045 0.0
C317 C 0.44428 0.847 0.03883 0.0
O318 O 0.45657 0.83029 0.05363 0.0
O319 O 0.43255 0.86708 0.04956 0.0
O320 O 0.46449 0.78527 0.08942 0.0
O321 O 0.42428 0.79581 0.10494 0.0
O322 O 0.53865 0.16112 0.0887 0.0
Cd323 Cd 0.5802 0.15546 0.08789 0.0
Cd324 Cd 0.57521 0.20619 0.0943 0.0
O325 O 0.54224 0.19512 0.11651 0.0
O326 O 0.59111 0.12365 0.11006 0.0
O327 O 0.598 0.16605 0.1225 0.0
C328 C 0.59834 0.14069 0.12841 0.0
C329 C 0.58808 0.25106 0.09629 0.0
C330 C 0.52766 0.178 0.1045 0.0
C331 C 0.58463 0.1819 0.03883 0.0
O332 O 0.57233 0.19861 0.05363 0.0
O333 O 0.59636 0.16183 0.04956 0.0
O334 O 0.56442 0.24364 0.08942 0.0
O335 O 0.60463 0.23309 0.10494 0.0
O336 O 0.90917 0.83109 0.5421 0.0
Cd337 Cd 0.90977 0.83044 0.58362 0.0
Cd338 Cd 0.9633 0.83311 0.5755 0.0
O339 O 0.94735 0.85338 0.54256 0.0
O340 O 0.87922 0.85327 0.59613 0.0
O341 O 0.92208 0.866 0.59803 0.0
C342 C 0.89681 0.87213 0.59977 0.0
C343 C 1.00955 0.84312 0.58201 0.0
C344 C 0.92613 0.84614 0.53031 0.0
C345 C 0.93537 0.77938 0.5921 0.0
O346 O 0.95435 0.79186 0.58013 0.0
O347 O 0.91512 0.79244 0.6008 0.0
O348 O 1.00084 0.82857 0.56255 0.0
O349 O 0.99204 0.85254 0.59866 0.0
O350 O 0.23705 0.95434 0.58013 0.0
Cd351 Cd 0.1958 0.9633 0.5755 0.0
Cd352 Cd 0.19847 0.90977 0.58362 0.0
O353 O 0.23646 0.91512 0.6008 0.0
O354 O 0.20034 1.00084 0.56255 0.0
O355 O 0.17637 0.99204 0.59866 0.0
C356 C 0.18579 1.00955 0.58201 0.0
C357 C 0.15677 0.89681 0.59978 0.0
C358 C 0.24952 0.93537 0.5921 0.0
C359 C 0.18277 0.92612 0.53031 0.0
O360 O 0.19781 0.90917 0.5421 0.0
O361 O 0.17553 0.94735 0.54256 0.0
O362 O 0.17564 0.87922 0.59613 0.0
O363 O 0.16291 0.92208 0.59803 0.0
O364 O 0.11974 0.19781 0.5421 0.0
Cd365 Cd 0.11914 0.19847 0.58362 0.0
Cd366 Cd 0.06561 0.1958 0.5755 0.0
O367 O 0.08155 0.17553 0.54256 0.0
O368 O 0.14968 0.17564 0.59613 0.0
O369 O 0.10683 0.16291 0.59803 0.0
C370 C 0.1321 0.15677 0.59977 0.0
C371 C 0.01936 0.18579 0.58201 0.0
C372 C 0.10278 0.18277 0.53031 0.0
C373 C 0.09354 0.24952 0.5921 0.0
O374 O 0.07456 0.23705 0.58013 0.0
O375 O 0.11379 0.23646 0.6008 0.0
O376 O 0.02807 0.20034 0.56255 0.0
O377 O 0.03686 0.17637 0.59866 0.0
O378 O 0.79186 0.07456 0.58013 0.0
Cd379 Cd 0.83311 0.06561 0.5755 0.0
Cd380 Cd 0.83044 0.11914 0.58362 0.0
O381 O 0.79244 0.11379 0.6008 0.0
O382 O 0.82857 0.02807 0.56255 0.0
O383 O 0.85254 0.03686 0.59866 0.0
C384 C 0.84312 0.01936 0.58201 0.0
C385 C 0.87214 0.13209 0.59978 0.0
C386 C 0.77939 0.09354 0.5921 0.0
C387 C 0.84614 0.10278 0.53031 0.0
O388 O 0.8311 0.11974 0.5421 0.0
O389 O 0.85338 0.08155 0.54256 0.0
O390 O 0.85327 0.14968 0.59613 0.0
O391 O 0.866 0.10683 0.59803 0.0
O392 O 0.90917 0.19781 0.4868 0.0
Cd393 Cd 0.90977 0.19847 0.44529 0.0
Cd394 Cd 0.9633 0.1958 0.4534 0.0
O395 O 0.94735 0.17553 0.48635 0.0
O396 O 0.87922 0.17564 0.43278 0.0
O397 O 0.92208 0.16291 0.43087 0.0
C398 C 0.89681 0.15677 0.42913 0.0
C399 C 1.00955 0.18579 0.44689 0.0
C400 C 0.92613 0.18277 0.49859 0.0
C401 C 0.93537 0.24952 0.43681 0.0
O402 O 0.95435 0.23705 0.44878 0.0
O403 O 0.91512 0.23646 0.4281 0.0
O404 O 1.00084 0.20034 0.46635 0.0
O405 O 0.99204 0.17637 0.43025 0.0
O406 O 0.79186 0.95434 0.44878 0.0
Cd407 Cd 0.83311 0.9633 0.4534 0.0
Cd408 Cd 0.83044 0.90977 0.44529 0.0
O409 O 0.79244 0.91512 0.4281 0.0
O410 O 0.82857 1.00084 0.46635 0.0
O411 O 0.85254 0.99204 0.43025 0.0
C412 C 0.84312 1.00955 0.44689 0.0
C413 C 0.87214 0.89681 0.42913 0.0
C414 C 0.77939 0.93537 0.43681 0.0
C415 C 0.84614 0.92612 0.49859 0.0
O416 O 0.8311 0.90917 0.4868 0.0
O417 O 0.85338 0.94735 0.48635 0.0
O418 O 0.85327 0.87922 0.43278 0.0
O419 O 0.866 0.92208 0.43087 0.0
O420 O 0.11974 0.83109 0.4868 0.0
Cd421 Cd 0.11914 0.83044 0.44529 0.0
Cd422 Cd 0.06561 0.83311 0.4534 0.0
O423 O 0.08155 0.85338 0.48635 0.0
O424 O 0.14968 0.85327 0.43278 0.0
O425 O 0.10683 0.866 0.43087 0.0
C426 C 0.1321 0.87213 0.42913 0.0
C427 C 0.01936 0.84312 0.44689 0.0
C428 C 0.10278 0.84614 0.49859 0.0
C429 C 0.09354 0.77938 0.43681 0.0
O430 O 0.07456 0.79186 0.44878 0.0
O431 O 0.11379 0.79244 0.4281 0.0
O432 O 0.02807 0.82857 0.46635 0.0
O433 O 0.03686 0.85254 0.43025 0.0
O434 O 0.23705 0.07456 0.44878 0.0
Cd435 Cd 0.1958 0.06561 0.4534 0.0
Cd436 Cd 0.19847 0.11914 0.44529 0.0
O437 O 0.23646 0.11379 0.4281 0.0
O438 O 0.20034 0.02807 0.46635 0.0
O439 O 0.17637 0.03686 0.43025 0.0
C440 C 0.18579 0.01936 0.44689 0.0
C441 C 0.15677 0.13209 0.42913 0.0
C442 C 0.24952 0.09354 0.43681 0.0
C443 C 0.18277 0.10278 0.49859 0.0
O444 O 0.19781 0.11974 0.4868 0.0
O445 O 0.17553 0.08155 0.48635 0.0
O446 O 0.17564 0.14968 0.43278 0.0
O447 O 0.16291 0.10683 0.43087 0.0
O448 O 0.5421 0.90917 0.8311 0.0
Cd449 Cd 0.58362 0.90977 0.83044 0.0
Cd450 Cd 0.5755 0.9633 0.83311 0.0
O451 O 0.54256 0.94735 0.85338 0.0
O452 O 0.59613 0.87922 0.85327 0.0
O453 O 0.59804 0.92208 0.866 0.0
C454 C 0.59978 0.89681 0.87213 0.0
C455 C 0.58201 1.00955 0.84312 0.0
C456 C 0.53032 0.92612 0.84614 0.0
C457 C 0.5921 0.93537 0.77938 0.0
O458 O 0.58013 0.95434 0.79186 0.0
O459 O 0.6008 0.91512 0.79244 0.0
O460 O 0.56255 1.00084 0.82857 0.0
O461 O 0.59866 0.99204 0.85254 0.0
O462 O 0.11974 0.5421 0.83109 0.0
Cd463 Cd 0.11914 0.58362 0.83044 0.0
Cd464 Cd 0.06561 0.5755 0.83311 0.0
O465 O 0.08155 0.54256 0.85338 0.0
O466 O 0.14968 0.59613 0.85327 0.0
O467 O 0.10683 0.59803 0.866 0.0
C468 C 0.1321 0.59977 0.87213 0.0
C469 C 0.01936 0.58201 0.84312 0.0
C470 C 0.10278 0.53031 0.84614 0.0
C471 C 0.09354 0.5921 0.77938 0.0
O472 O 0.07456 0.58013 0.79186 0.0
O473 O 0.11379 0.6008 0.79244 0.0
O474 O 0.02807 0.56255 0.82857 0.0
O475 O 0.03686 0.59866 0.85254 0.0
O476 O 0.4868 0.11974 0.8311 0.0
Cd477 Cd 0.44529 0.11914 0.83044 0.0
Cd478 Cd 0.45341 0.06561 0.83311 0.0
O479 O 0.48635 0.08155 0.85338 0.0
O480 O 0.43278 0.14968 0.85327 0.0
O481 O 0.43087 0.10683 0.866 0.0
C482 C 0.42913 0.13209 0.87213 0.0
C483 C 0.4469 0.01936 0.84312 0.0
C484 C 0.49859 0.10278 0.84614 0.0
C485 C 0.43681 0.09354 0.77938 0.0
O486 O 0.44878 0.07456 0.79186 0.0
O487 O 0.42811 0.11379 0.79244 0.0
O488 O 0.46636 0.02807 0.82857 0.0
O489 O 0.43025 0.03686 0.85254 0.0
O490 O 0.90917 0.4868 0.83109 0.0
Cd491 Cd 0.90977 0.44529 0.83044 0.0
Cd492 Cd 0.9633 0.4534 0.83311 0.0
O493 O 0.94735 0.48635 0.85338 0.0
O494 O 0.87922 0.43278 0.85327 0.0
O495 O 0.92208 0.43087 0.866 0.0
C496 C 0.89681 0.42913 0.87213 0.0
C497 C 1.00955 0.44689 0.84312 0.0
C498 C 0.92613 0.49859 0.84614 0.0
C499 C 0.93537 0.43681 0.77938 0.0
O500 O 0.95435 0.44878 0.79186 0.0
O501 O 0.91512 0.4281 0.79244 0.0
O502 O 1.00084 0.46635 0.82857 0.0
O503 O 0.99204 0.43025 0.85254 0.0
O504 O 0.5421 0.11974 0.19781 0.0
Cd505 Cd 0.58362 0.11914 0.19847 0.0
Cd506 Cd 0.5755 0.06561 0.1958 0.0
O507 O 0.54256 0.08155 0.17553 0.0
O508 O 0.59613 0.14968 0.17564 0.0
O509 O 0.59804 0.10683 0.16291 0.0
C510 C 0.59978 0.13209 0.15677 0.0
C511 C 0.58201 0.01936 0.18579 0.0
C512 C 0.53032 0.10278 0.18277 0.0
C513 C 0.5921 0.09354 0.24952 0.0
O514 O 0.58013 0.07456 0.23705 0.0
O515 O 0.6008 0.11379 0.23646 0.0
O516 O 0.56255 0.02807 0.20034 0.0
O517 O 0.59866 0.03686 0.17637 0.0
O518 O 0.90917 0.5421 0.19781 0.0
Cd519 Cd 0.90977 0.58362 0.19847 0.0
Cd520 Cd 0.9633 0.5755 0.1958 0.0
O521 O 0.94735 0.54256 0.17553 0.0
O522 O 0.87922 0.59613 0.17564 0.0
O523 O 0.92208 0.59803 0.16291 0.0
C524 C 0.89681 0.59977 0.15677 0.0
C525 C 1.00955 0.58201 0.18579 0.0
C526 C 0.92613 0.53031 0.18277 0.0
C527 C 0.93537 0.5921 0.24952 0.0
O528 O 0.95435 0.58013 0.23705 0.0
O529 O 0.91512 0.6008 0.23646 0.0
O530 O 1.00084 0.56255 0.20034 0.0
O531 O 0.99204 0.59866 0.17637 0.0
O532 O 0.4868 0.90917 0.19781 0.0
Cd533 Cd 0.44529 0.90977 0.19847 0.0
Cd534 Cd 0.45341 0.9633 0.1958 0.0
O535 O 0.48635 0.94735 0.17553 0.0
O536 O 0.43278 0.87922 0.17564 0.0
O537 O 0.43087 0.92208 0.16291 0.0
C538 C 0.42913 0.89681 0.15677 0.0
C539 C 0.4469 1.00955 0.18579 0.0
C540 C 0.49859 0.92612 0.18277 0.0
C541 C 0.43681 0.93537 0.24952 0.0
O542 O 0.44878 0.95434 0.23705 0.0
O543 O 0.42811 0.91512 0.23646 0.0
O544 O 0.46636 1.00084 0.20034 0.0
O545 O 0.43025 0.99204 0.17637 0.0
O546 O 0.11974 0.4868 0.19781 0.0
Cd547 Cd 0.11914 0.44529 0.19847 0.0
Cd548 Cd 0.06561 0.4534 0.1958 0.0
O549 O 0.08155 0.48635 0.17553 0.0
O550 O 0.14968 0.43278 0.17564 0.0
O551 O 0.10683 0.43087 0.16291 0.0
C552 C 0.1321 0.42913 0.15677 0.0
C553 C 0.01936 0.44689 0.18579 0.0
C554 C 0.10278 0.49859 0.18277 0.0
C555 C 0.09354 0.43681 0.24952 0.0
O556 O 0.07456 0.44878 0.23705 0.0
O557 O 0.11379 0.4281 0.23646 0.0
O558 O 0.02807 0.46635 0.20034 0.0
O559 O 0.03686 0.43025 0.17637 0.0
O560 O 0.79186 0.58013 0.95434 0.0
Cd561 Cd 0.83311 0.5755 0.9633 0.0
Cd562 Cd 0.83044 0.58362 0.90977 0.0
O563 O 0.79244 0.6008 0.91512 0.0
O564 O 0.82857 0.56255 1.00084 0.0
O565 O 0.85254 0.59866 0.99204 0.0
C566 C 0.84312 0.58201 1.00955 0.0
C567 C 0.87214 0.59977 0.89681 0.0
C568 C 0.77939 0.5921 0.93537 0.0
C569 C 0.84614 0.53031 0.92612 0.0
O570 O 0.8311 0.5421 0.90917 0.0
O571 O 0.85338 0.54256 0.94735 0.0
O572 O 0.85327 0.59613 0.87922 0.0
O573 O 0.866 0.59803 0.92208 0.0
O574 O 0.79186 0.44878 0.07456 0.0
Cd575 Cd 0.83311 0.4534 0.06561 0.0
Cd576 Cd 0.83044 0.44529 0.11914 0.0
O577 O 0.79244 0.4281 0.11379 0.0
O578 O 0.82857 0.46635 0.02807 0.0
O579 O 0.85254 0.43025 0.03686 0.0
C580 C 0.84312 0.44689 0.01936 0.0
C581 C 0.87214 0.42913 0.13209 0.0
C582 C 0.77939 0.43681 0.09354 0.0
C583 C 0.84614 0.49859 0.10278 0.0
O584 O 0.8311 0.4868 0.11974 0.0
O585 O 0.85338 0.48635 0.08155 0.0
O586 O 0.85327 0.43278 0.14968 0.0
O587 O 0.866 0.43087 0.10683 0.0
O588 O 0.5421 0.83109 0.11974 0.0
Cd589 Cd 0.58362 0.83044 0.11914 0.0
Cd590 Cd 0.5755 0.83311 0.06561 0.0
O591 O 0.54256 0.85338 0.08155 0.0
O592 O 0.59613 0.85327 0.14968 0.0
O593 O 0.59804 0.866 0.10683 0.0
C594 C 0.59978 0.87213 0.13209 0.0
C595 C 0.58201 0.84312 0.01936 0.0
C596 C 0.53032 0.84614 0.10278 0.0
C597 C 0.5921 0.77938 0.09354 0.0
O598 O 0.58013 0.79186 0.07456 0.0
O599 O 0.6008 0.79244 0.11379 0.0
O600 O 0.56255 0.82857 0.02807 0.0
O601 O 0.59866 0.85254 0.03686 0.0
O602 O 0.23705 0.58013 0.07456 0.0
Cd603 Cd 0.1958 0.5755 0.06561 0.0
Cd604 Cd 0.19847 0.58362 0.11914 0.0
O605 O 0.23646 0.6008 0.11379 0.0
O606 O 0.20034 0.56255 0.02807 0.0
O607 O 0.17637 0.59866 0.03686 0.0
C608 C 0.18579 0.58201 0.01936 0.0
C609 C 0.15677 0.59977 0.13209 0.0
C610 C 0.24952 0.5921 0.09354 0.0
C611 C 0.18277 0.53031 0.10278 0.0
O612 O 0.19781 0.5421 0.11974 0.0
O613 O 0.17553 0.54256 0.08155 0.0
O614 O 0.17564 0.59613 0.14968 0.0
O615 O 0.16291 0.59803 0.10683 0.0
O616 O 0.4868 0.19781 0.11974 0.0
Cd617 Cd 0.44529 0.19847 0.11914 0.0
Cd618 Cd 0.45341 0.1958 0.06561 0.0
O619 O 0.48635 0.17553 0.08155 0.0
O620 O 0.43278 0.17564 0.14968 0.0
O621 O 0.43087 0.16291 0.10683 0.0
C622 C 0.42913 0.15677 0.13209 0.0
C623 C 0.4469 0.18579 0.01936 0.0
C624 C 0.49859 0.18277 0.10278 0.0
C625 C 0.43681 0.24952 0.09354 0.0
O626 O 0.44878 0.23705 0.07456 0.0
O627 O 0.42811 0.23646 0.11379 0.0
O628 O 0.46636 0.20034 0.02807 0.0
O629 O 0.43025 0.17637 0.03686 0.0
O630 O 0.23705 0.44878 0.95434 0.0
Cd631 Cd 0.1958 0.4534 0.9633 0.0
Cd632 Cd 0.19847 0.44529 0.90977 0.0
O633 O 0.23646 0.4281 0.91512 0.0
O634 O 0.20034 0.46635 1.00084 0.0
O635 O 0.17637 0.43025 0.99204 0.0
C636 C 0.18579 0.44689 1.00955 0.0
C637 C 0.15677 0.42913 0.89681 0.0
C638 C 0.24952 0.43681 0.93537 0.0
C639 C 0.18277 0.49859 0.92612 0.0
O640 O 0.19781 0.4868 0.90917 0.0
O641 O 0.17553 0.48635 0.94735 0.0
O642 O 0.17564 0.43278 0.87922 0.0
O643 O 0.16291 0.43087 0.92208 0.0
O644 O 0.5421 0.19781 0.90917 0.0
Cd645 Cd 0.58362 0.19847 0.90977 0.0
Cd646 Cd 0.5755 0.1958 0.9633 0.0
O647 O 0.54256 0.17553 0.94735 0.0
O648 O 0.59613 0.17564 0.87922 0.0
O649 O 0.59804 0.16291 0.92208 0.0
C650 C 0.59978 0.15677 0.89681 0.0
C651 C 0.58201 0.18579 1.00955 0.0
C652 C 0.53032 0.18277 0.92612 0.0
C653 C 0.5921 0.24952 0.93537 0.0
O654 O 0.58013 0.23705 0.95434 0.0
O655 O 0.6008 0.23646 0.91512 0.0
O656 O 0.56255 0.20034 1.00084 0.0
O657 O 0.59866 0.17637 0.99204 0.0
O658 O 0.4868 0.83109 0.90917 0.0
Cd659 Cd 0.44529 0.83044 0.90977 0.0
Cd660 Cd 0.45341 0.83311 0.9633 0.0
O661 O 0.48635 0.85338 0.94735 0.0
O662 O 0.43278 0.85327 0.87922 0.0
O663 O 0.43087 0.866 0.92208 0.0
C664 C 0.42913 0.87213 0.89681 0.0
C665 C 0.4469 0.84312 1.00955 0.0
C666 C 0.49859 0.84614 0.92612 0.0
C667 C 0.43681 0.77938 0.93537 0.0
O668 O 0.44878 0.79186 0.95434 0.0
O669 O 0.42811 0.79244 0.91512 0.0
O670 O 0.46636 0.82857 1.00084 0.0
O671 O 0.43025 0.85254 0.99204 0.0
O672 O 0.55363 0.69861 0.95658 0.0
Cd673 Cd 0.5943 0.70619 0.9537 0.0
Cd674 Cd 0.58789 0.65546 0.9487 0.0
O675 O 0.54956 0.66183 0.93255 0.0
O676 O 0.58941 0.74364 0.96448 0.0
O677 O 0.60494 0.73309 0.92428 0.0
C678 C 0.59629 0.75106 0.94082 0.0
C679 C 0.62841 0.64069 0.93057 0.0
C680 C 0.53883 0.6819 0.94428 0.0
C681 C 0.60451 0.678 1.00125 0.0
O682 O 0.5887 0.66112 0.99026 0.0
O683 O 0.61651 0.69513 0.98667 0.0
O684 O 0.61006 0.62365 0.93779 0.0
O685 O 0.6225 0.66605 0.93091 0.0
O686 O 0.36779 0.5887 0.99026 0.0
Cd687 Cd 0.37344 0.58789 0.9487 0.0
Cd688 Cd 0.32271 0.5943 0.9537 0.0
O689 O 0.33378 0.61651 0.98667 0.0
O690 O 0.40526 0.61006 0.93779 0.0
O691 O 0.36286 0.6225 0.93091 0.0
C692 C 0.38822 0.62841 0.93057 0.0
C693 C 0.27785 0.59628 0.94082 0.0
C694 C 0.3509 0.6045 1.00125 0.0
C695 C 0.34701 0.53883 0.94428 0.0
O696 O 0.3303 0.55363 0.95658 0.0
O697 O 0.36708 0.54956 0.93255 0.0
O698 O 0.28527 0.58941 0.96448 0.0
O699 O 0.29582 0.60493 0.92428 0.0
O700 O 0.47528 0.33029 0.95658 0.0
Cd701 Cd 0.43461 0.32271 0.9537 0.0
Cd702 Cd 0.44101 0.37344 0.9487 0.0
O703 O 0.47935 0.36708 0.93255 0.0
O704 O 0.43949 0.28527 0.96448 0.0
O705 O 0.42397 0.29582 0.92428 0.0
C706 C 0.43262 0.27785 0.94082 0.0
C707 C 0.4005 0.38822 0.93057 0.0
C708 C 0.49008 0.347 0.94428 0.0
C709 C 0.4244 0.3509 1.00125 0.0
O710 O 0.44021 0.36779 0.99026 0.0
O711 O 0.4124 0.33378 0.98667 0.0
O712 O 0.41885 0.40526 0.93779 0.0
O713 O 0.40641 0.36286 0.93091 0.0
O714 O 0.66112 0.4402 0.99026 0.0
Cd715 Cd 0.65546 0.44101 0.9487 0.0
Cd716 Cd 0.7062 0.43461 0.9537 0.0
O717 O 0.69513 0.4124 0.98667 0.0
O718 O 0.62365 0.41885 0.93779 0.0
O719 O 0.66605 0.40641 0.93091 0.0
C720 C 0.64069 0.40049 0.93057 0.0
C721 C 0.75106 0.43262 0.94082 0.0
C722 C 0.678 0.4244 1.00125 0.0
C723 C 0.6819 0.49008 0.94428 0.0
O724 O 0.69861 0.47528 0.95658 0.0
O725 O 0.66183 0.47935 0.93255 0.0
O726 O 0.74364 0.43949 0.96448 0.0
O727 O 0.73309 0.42397 0.92428 0.0
O728 O 0.55363 0.33029 0.07233 0.0
Cd729 Cd 0.5943 0.32271 0.0752 0.0
Cd730 Cd 0.58789 0.37344 0.0802 0.0
O731 O 0.54956 0.36708 0.09636 0.0
O732 O 0.58941 0.28527 0.06442 0.0
O733 O 0.60494 0.29582 0.10463 0.0
C734 C 0.59629 0.27785 0.08808 0.0
C735 C 0.62841 0.38822 0.09834 0.0
C736 C 0.53883 0.347 0.08463 0.0
C737 C 0.60451 0.3509 0.02766 0.0
O738 O 0.5887 0.36779 0.03865 0.0
O739 O 0.61651 0.33378 0.04224 0.0
O740 O 0.61006 0.40526 0.09111 0.0
O741 O 0.6225 0.36286 0.09799 0.0
O742 O 0.66112 0.5887 0.03865 0.0
Cd743 Cd 0.65546 0.58789 0.0802 0.0
Cd744 Cd 0.7062 0.5943 0.0752 0.0
O745 O 0.69513 0.61651 0.04224 0.0
O746 O 0.62365 0.61006 0.09111 0.0
O747 O 0.66605 0.6225 0.09799 0.0
C748 C 0.64069 0.62841 0.09834 0.0
C749 C 0.75106 0.59628 0.08808 0.0
C750 C 0.678 0.6045 0.02766 0.0
C751 C 0.6819 0.53883 0.08463 0.0
O752 O 0.69861 0.55363 0.07233 0.0
O753 O 0.66183 0.54956 0.09635 0.0
O754 O 0.74364 0.58941 0.06442 0.0
O755 O 0.73309 0.60493 0.10463 0.0
O756 O 0.47528 0.69861 0.07233 0.0
Cd757 Cd 0.43461 0.70619 0.0752 0.0
Cd758 Cd 0.44101 0.65546 0.0802 0.0
O759 O 0.47935 0.66183 0.09636 0.0
O760 O 0.43949 0.74364 0.06442 0.0
O761 O 0.42397 0.73309 0.10463 0.0
C762 C 0.43262 0.75106 0.08808 0.0
C763 C 0.4005 0.64069 0.09834 0.0
C764 C 0.49008 0.6819 0.08463 0.0
C765 C 0.4244 0.678 0.02766 0.0
O766 O 0.44021 0.66112 0.03865 0.0
O767 O 0.4124 0.69513 0.04224 0.0
O768 O 0.41885 0.62365 0.09111 0.0
O769 O 0.40641 0.66605 0.09799 0.0
O770 O 0.36779 0.4402 0.03865 0.0
Cd771 Cd 0.37344 0.44101 0.0802 0.0
Cd772 Cd 0.32271 0.43461 0.0752 0.0
O773 O 0.33378 0.4124 0.04224 0.0
O774 O 0.40526 0.41885 0.09111 0.0
O775 O 0.36286 0.40641 0.09799 0.0
C776 C 0.38822 0.40049 0.09834 0.0
C777 C 0.27785 0.43262 0.08808 0.0
C778 C 0.3509 0.4244 0.02766 0.0
C779 C 0.34701 0.49008 0.08463 0.0
O780 O 0.3303 0.47528 0.07233 0.0
O781 O 0.36708 0.47935 0.09635 0.0
O782 O 0.28527 0.43949 0.06442 0.0
O783 O 0.29582 0.42397 0.10463 0.0
O784 O 0.99026 0.5887 0.66112 0.0
Cd785 Cd 0.94871 0.58789 0.65546 0.0
Cd786 Cd 0.9537 0.5943 0.70619 0.0
O787 O 0.98667 0.61651 0.69513 0.0
O788 O 0.93779 0.61006 0.62365 0.0
O789 O 0.93091 0.6225 0.66605 0.0
C790 C 0.93057 0.62841 0.64069 0.0
C791 C 0.94082 0.59628 0.75106 0.0
C792 C 1.00125 0.6045 0.678 0.0
C793 C 0.94428 0.53883 0.6819 0.0
O794 O 0.95658 0.55363 0.69861 0.0
O795 O 0.93255 0.54956 0.66183 0.0
O796 O 0.96448 0.58941 0.74364 0.0
O797 O 0.92428 0.60493 0.73309 0.0
O798 O 0.47528 0.95657 0.69861 0.0
Cd799 Cd 0.43461 0.9537 0.70619 0.0
Cd800 Cd 0.44101 0.9487 0.65546 0.0
O801 O 0.47935 0.93255 0.66183 0.0
O802 O 0.43949 0.96448 0.74364 0.0
O803 O 0.42397 0.92428 0.73309 0.0
C804 C 0.43262 0.94082 0.75106 0.0
C805 C 0.4005 0.93057 0.64069 0.0
C806 C 0.49008 0.94428 0.6819 0.0
C807 C 0.4244 1.00125 0.678 0.0
O808 O 0.44021 0.99026 0.66112 0.0
O809 O 0.4124 0.98667 0.69513 0.0
O810 O 0.41885 0.93779 0.62365 0.0
O811 O 0.40641 0.93091 0.66605 0.0
O812 O 0.03865 0.4402 0.66112 0.0
Cd813 Cd 0.0802 0.44101 0.65546 0.0
Cd814 Cd 0.0752 0.43461 0.70619 0.0
O815 O 0.04224 0.4124 0.69513 0.0
O816 O 0.09111 0.41885 0.62365 0.0
O817 O 0.098 0.40641 0.66605 0.0
C818 C 0.09834 0.4005 0.64069 0.0
C819 C 0.08808 0.43262 0.75106 0.0
C820 C 0.02766 0.4244 0.678 0.0
C821 C 0.08463 0.49008 0.6819 0.0
O822 O 0.07233 0.47528 0.69861 0.0
O823 O 0.09636 0.47935 0.66183 0.0
O824 O 0.06442 0.43949 0.74364 0.0
O825 O 0.10463 0.42397 0.73309 0.0
O826 O 0.55363 0.07233 0.69861 0.0
Cd827 Cd 0.5943 0.0752 0.70619 0.0
Cd828 Cd 0.58789 0.0802 0.65546 0.0
O829 O 0.54956 0.09635 0.66183 0.0
O830 O 0.58941 0.06442 0.74364 0.0
O831 O 0.60494 0.10463 0.73309 0.0
C832 C 0.59629 0.08808 0.75106 0.0
C833 C 0.62841 0.09834 0.64069 0.0
C834 C 0.53883 0.08463 0.6819 0.0
C835 C 0.60451 0.02766 0.678 0.0
O836 O 0.5887 0.03865 0.66112 0.0
O837 O 0.61651 0.04224 0.69513 0.0
O838 O 0.61006 0.09111 0.62365 0.0
O839 O 0.6225 0.09799 0.66605 0.0
O840 O 0.99026 0.4402 0.36779 0.0
Cd841 Cd 0.94871 0.44101 0.37344 0.0
Cd842 Cd 0.9537 0.43461 0.32271 0.0
O843 O 0.98667 0.4124 0.33378 0.0
O844 O 0.93779 0.41885 0.40526 0.0
O845 O 0.93091 0.40641 0.36286 0.0
C846 C 0.93057 0.4005 0.38822 0.0
C847 C 0.94082 0.43262 0.27785 0.0
C848 C 1.00125 0.4244 0.3509 0.0
C849 C 0.94428 0.49008 0.347 0.0
O850 O 0.95658 0.47528 0.33029 0.0
O851 O 0.93255 0.47935 0.36708 0.0
O852 O 0.96448 0.43949 0.28527 0.0
O853 O 0.92428 0.42397 0.29582 0.0
O854 O 0.55363 0.95657 0.33029 0.0
Cd855 Cd 0.5943 0.9537 0.32271 0.0
Cd856 Cd 0.58789 0.9487 0.37344 0.0
O857 O 0.54956 0.93255 0.36708 0.0
O858 O 0.58941 0.96448 0.28527 0.0
O859 O 0.60494 0.92428 0.29582 0.0
C860 C 0.59629 0.94082 0.27785 0.0
C861 C 0.62841 0.93057 0.38822 0.0
C862 C 0.53883 0.94428 0.347 0.0
C863 C 0.60451 1.00125 0.3509 0.0
O864 O 0.5887 0.99026 0.36779 0.0
O865 O 0.61651 0.98667 0.33378 0.0
O866 O 0.61006 0.93779 0.40526 0.0
O867 O 0.6225 0.93091 0.36286 0.0
O868 O 0.03865 0.5887 0.36779 0.0
Cd869 Cd 0.0802 0.58789 0.37344 0.0
Cd870 Cd 0.0752 0.5943 0.32271 0.0
O871 O 0.04224 0.61651 0.33378 0.0
O872 O 0.09111 0.61006 0.40526 0.0
O873 O 0.098 0.6225 0.36286 0.0
C874 C 0.09834 0.62841 0.38822 0.0
C875 C 0.08808 0.59628 0.27785 0.0
C876 C 0.02766 0.6045 0.3509 0.0
C877 C 0.08463 0.53883 0.347 0.0
O878 O 0.07233 0.55363 0.33029 0.0
O879 O 0.09636 0.54956 0.36708 0.0
O880 O 0.06442 0.58941 0.28527 0.0
O881 O 0.10463 0.60493 0.29582 0.0
O882 O 0.47528 0.07233 0.33029 0.0
Cd883 Cd 0.43461 0.0752 0.32271 0.0
Cd884 Cd 0.44101 0.0802 0.37344 0.0
O885 O 0.47935 0.09635 0.36708 0.0
O886 O 0.43949 0.06442 0.28527 0.0
O887 O 0.42397 0.10463 0.29582 0.0
C888 C 0.43262 0.08808 0.27785 0.0
C889 C 0.4005 0.09834 0.38822 0.0
C890 C 0.49008 0.08463 0.347 0.0
C891 C 0.4244 0.02766 0.3509 0.0
O892 O 0.44021 0.03865 0.36779 0.0
O893 O 0.4124 0.04224 0.33378 0.0
O894 O 0.41885 0.09111 0.40526 0.0
O895 O 0.40641 0.09799 0.36286 0.0
O896 O 0.66112 0.99026 0.5887 0.0
Cd897 Cd 0.65546 0.9487 0.58789 0.0
Cd898 Cd 0.7062 0.9537 0.5943 0.0
O899 O 0.69513 0.98667 0.61651 0.0
O900 O 0.62365 0.93779 0.61006 0.0
O901 O 0.66605 0.93091 0.6225 0.0
C902 C 0.64069 0.93057 0.62841 0.0
C903 C 0.75106 0.94082 0.59628 0.0
C904 C 0.678 1.00125 0.6045 0.0
C905 C 0.6819 0.94428 0.53883 0.0
O906 O 0.69861 0.95658 0.55363 0.0
O907 O 0.66183 0.93255 0.54956 0.0
O908 O 0.74364 0.96448 0.58941 0.0
O909 O 0.73309 0.92428 0.60493 0.0
O910 O 0.66112 0.03865 0.4402 0.0
Cd911 Cd 0.65546 0.0802 0.44101 0.0
Cd912 Cd 0.7062 0.0752 0.43461 0.0
O913 O 0.69513 0.04224 0.4124 0.0
O914 O 0.62365 0.09111 0.41885 0.0
O915 O 0.66605 0.09799 0.40641 0.0
C916 C 0.64069 0.09834 0.4005 0.0
C917 C 0.75106 0.08808 0.43262 0.0
C918 C 0.678 0.02766 0.4244 0.0
C919 C 0.6819 0.08463 0.49008 0.0
O920 O 0.69861 0.07233 0.47528 0.0
O921 O 0.66183 0.09635 0.47935 0.0
O922 O 0.74364 0.06442 0.43949 0.0
O923 O 0.73309 0.10463 0.42397 0.0
O924 O 0.99026 0.66112 0.4402 0.0
Cd925 Cd 0.94871 0.65546 0.44101 0.0
Cd926 Cd 0.9537 0.70619 0.43461 0.0
O927 O 0.98667 0.69513 0.4124 0.0
O928 O 0.93779 0.62365 0.41885 0.0
O929 O 0.93091 0.66605 0.40641 0.0
C930 C 0.93057 0.64069 0.4005 0.0
C931 C 0.94082 0.75106 0.43262 0.0
C932 C 1.00125 0.678 0.4244 0.0
C933 C 0.94428 0.6819 0.49008 0.0
O934 O 0.95658 0.69861 0.47528 0.0
O935 O 0.93255 0.66183 0.47935 0.0
O936 O 0.96448 0.74364 0.43949 0.0
O937 O 0.92428 0.73309 0.42397 0.0
O938 O 0.36779 0.99026 0.4402 0.0
Cd939 Cd 0.37344 0.9487 0.44101 0.0
Cd940 Cd 0.32271 0.9537 0.43461 0.0
O941 O 0.33378 0.98667 0.4124 0.0
O942 O 0.40526 0.93779 0.41885 0.0
O943 O 0.36286 0.93091 0.40641 0.0
C944 C 0.38822 0.93057 0.4005 0.0
C945 C 0.27785 0.94082 0.43262 0.0
C946 C 0.3509 1.00125 0.4244 0.0
C947 C 0.34701 0.94428 0.49008 0.0
O948 O 0.3303 0.95658 0.47528 0.0
O949 O 0.36708 0.93255 0.47935 0.0
O950 O 0.28527 0.96448 0.43949 0.0
O951 O 0.29582 0.92428 0.42397 0.0
O952 O 0.03865 0.36779 0.4402 0.0
Cd953 Cd 0.0802 0.37344 0.44101 0.0
Cd954 Cd 0.0752 0.32271 0.43461 0.0
O955 O 0.04224 0.33378 0.4124 0.0
O956 O 0.09111 0.40526 0.41885 0.0
O957 O 0.098 0.36286 0.40641 0.0
C958 C 0.09834 0.38822 0.4005 0.0
C959 C 0.08808 0.27785 0.43262 0.0
C960 C 0.02766 0.3509 0.4244 0.0
C961 C 0.08463 0.347 0.49008 0.0
O962 O 0.07233 0.33029 0.47528 0.0
O963 O 0.09636 0.36708 0.47935 0.0
O964 O 0.06442 0.28527 0.43949 0.0
O965 O 0.10463 0.29582 0.42397 0.0
O966 O 0.36779 0.03865 0.5887 0.0
Cd967 Cd 0.37344 0.0802 0.58789 0.0
Cd968 Cd 0.32271 0.0752 0.5943 0.0
O969 O 0.33378 0.04224 0.61651 0.0
O970 O 0.40526 0.09111 0.61006 0.0
O971 O 0.36286 0.09799 0.6225 0.0
C972 C 0.38822 0.09834 0.62841 0.0
C973 C 0.27785 0.08808 0.59628 0.0
C974 C 0.3509 0.02766 0.6045 0.0
C975 C 0.34701 0.08463 0.53883 0.0
O976 O 0.3303 0.07233 0.55363 0.0
O977 O 0.36708 0.09635 0.54956 0.0
O978 O 0.28527 0.06442 0.58941 0.0
O979 O 0.29582 0.10463 0.60493 0.0
O980 O 0.99026 0.36779 0.5887 0.0
Cd981 Cd 0.94871 0.37344 0.58789 0.0
Cd982 Cd 0.9537 0.32271 0.5943 0.0
O983 O 0.98667 0.33378 0.61651 0.0
O984 O 0.93779 0.40526 0.61006 0.0
O985 O 0.93091 0.36286 0.6225 0.0
C986 C 0.93057 0.38822 0.62841 0.0
C987 C 0.94082 0.27785 0.59628 0.0
C988 C 1.00125 0.3509 0.6045 0.0
C989 C 0.94428 0.347 0.53883 0.0
O990 O 0.95658 0.33029 0.55363 0.0
O991 O 0.93255 0.36708 0.54956 0.0
O992 O 0.96448 0.28527 0.58941 0.0
O993 O 0.92428 0.29582 0.60493 0.0
O994 O 0.03865 0.66112 0.5887 0.0
Cd995 Cd 0.0802 0.65546 0.58789 0.0
Cd996 Cd 0.0752 0.70619 0.5943 0.0
O997 O 0.04224 0.69513 0.61651 0.0
O998 O 0.09111 0.62365 0.61006 0.0
O999 O 0.098 0.66605 0.6225 0.0
C1000 C 0.09834 0.64069 0.62841 0.0
C1001 C 0.08808 0.75106 0.59628 0.0
C1002 C 0.02766 0.678 0.6045 0.0
C1003 C 0.08463 0.6819 0.53883 0.0
O1004 O 0.07233 0.69861 0.55363 0.0
O1005 O 0.09636 0.66183 0.54956 0.0
O1006 O 0.06442 0.74364 0.58941 0.0
O1007 O 0.10463 0.73309 0.60493 0.0
O1008 O 0.40917 0.33109 0.0421 0.0
Cd1009 Cd 0.40977 0.33043 0.08362 0.0
Cd1010 Cd 0.4633 0.33311 0.0755 0.0
O1011 O 0.44735 0.35338 0.04256 0.0
O1012 O 0.37922 0.35327 0.09613 0.0
O1013 O 0.42208 0.366 0.09803 0.0
C1014 C 0.39681 0.37213 0.09978 0.0
C1015 C 0.50955 0.34312 0.08201 0.0
C1016 C 0.42612 0.34614 0.03032 0.0
C1017 C 0.43537 0.27938 0.0921 0.0
O1018 O 0.45435 0.29186 0.08013 0.0
O1019 O 0.41512 0.29244 0.1008 0.0
O1020 O 0.50084 0.32857 0.06255 0.0
O1021 O 0.49204 0.35254 0.09866 0.0
O1022 O 0.73705 0.45434 0.08013 0.0
Cd1023 Cd 0.6958 0.4633 0.0755 0.0
Cd1024 Cd 0.69847 0.40976 0.08362 0.0
O1025 O 0.73646 0.41512 0.1008 0.0
O1026 O 0.70034 0.50083 0.06255 0.0
O1027 O 0.67637 0.49204 0.09866 0.0
C1028 C 0.68579 0.50955 0.08201 0.0
C1029 C 0.65677 0.39681 0.09978 0.0
C1030 C 0.74952 0.43537 0.0921 0.0
C1031 C 0.68277 0.42612 0.03032 0.0
O1032 O 0.69781 0.40917 0.0421 0.0
O1033 O 0.67553 0.44735 0.04256 0.0
O1034 O 0.67564 0.37922 0.09613 0.0
O1035 O 0.66291 0.42208 0.09803 0.0
O1036 O 0.61974 0.69781 0.0421 0.0
Cd1037 Cd 0.61914 0.69847 0.08362 0.0
Cd1038 Cd 0.56561 0.6958 0.0755 0.0
O1039 O 0.58156 0.67552 0.04256 0.0
O1040 O 0.64969 0.67564 0.09613 0.0
O1041 O 0.60683 0.66291 0.09803 0.0
C1042 C 0.6321 0.65677 0.09978 0.0
C1043 C 0.51936 0.68579 0.08201 0.0
C1044 C 0.60278 0.68277 0.03032 0.0
C1045 C 0.59354 0.74952 0.0921 0.0
O1046 O 0.57456 0.73705 0.08013 0.0
O1047 O 0.61379 0.73646 0.1008 0.0
O1048 O 0.52807 0.70034 0.06255 0.0
O1049 O 0.53687 0.67636 0.09866 0.0
O1050 O 0.29186 0.57456 0.08013 0.0
Cd1051 Cd 0.33311 0.56561 0.0755 0.0
Cd1052 Cd 0.33044 0.61914 0.08362 0.0
O1053 O 0.29244 0.61379 0.1008 0.0
O1054 O 0.32857 0.52807 0.06255 0.0
O1055 O 0.35254 0.53686 0.09866 0.0
C1056 C 0.34312 0.51936 0.08201 0.0
C1057 C 0.37213 0.63209 0.09978 0.0
C1058 C 0.27939 0.59354 0.0921 0.0
C1059 C 0.34614 0.60278 0.03032 0.0
O1060 O 0.3311 0.61974 0.0421 0.0
O1061 O 0.35338 0.58155 0.04256 0.0
O1062 O 0.35327 0.64968 0.09613 0.0
O1063 O 0.366 0.60683 0.09803 0.0
O1064 O 0.40917 0.69781 0.9868 0.0
Cd1065 Cd 0.40977 0.69847 0.94529 0.0
Cd1066 Cd 0.4633 0.6958 0.9534 0.0
O1067 O 0.44735 0.67552 0.98634 0.0
O1068 O 0.37922 0.67564 0.93278 0.0
O1069 O 0.42208 0.66291 0.93087 0.0
C1070 C 0.39681 0.65677 0.92913 0.0
C1071 C 0.50955 0.68579 0.94689 0.0
C1072 C 0.42612 0.68277 0.99859 0.0
C1073 C 0.43537 0.74952 0.93681 0.0
O1074 O 0.45435 0.73705 0.94878 0.0
O1075 O 0.41512 0.73646 0.9281 0.0
O1076 O 0.50084 0.70034 0.96635 0.0
O1077 O 0.49204 0.67636 0.93025 0.0
O1078 O 0.29186 0.45434 0.94878 0.0
Cd1079 Cd 0.33311 0.4633 0.9534 0.0
Cd1080 Cd 0.33044 0.40976 0.94529 0.0
O1081 O 0.29244 0.41512 0.9281 0.0
O1082 O 0.32857 0.50083 0.96635 0.0
O1083 O 0.35254 0.49204 0.93025 0.0
C1084 C 0.34312 0.50955 0.94689 0.0
C1085 C 0.37213 0.39681 0.92913 0.0
C1086 C 0.27939 0.43537 0.93681 0.0
C1087 C 0.34614 0.42612 0.99859 0.0
O1088 O 0.3311 0.40917 0.9868 0.0
O1089 O 0.35338 0.44735 0.98634 0.0
O1090 O 0.35327 0.37922 0.93278 0.0
O1091 O 0.366 0.42208 0.93087 0.0
O1092 O 0.61974 0.33109 0.9868 0.0
Cd1093 Cd 0.61914 0.33043 0.94529 0.0
Cd1094 Cd 0.56561 0.33311 0.9534 0.0
O1095 O 0.58156 0.35338 0.98634 0.0
O1096 O 0.64969 0.35327 0.93278 0.0
O1097 O 0.60683 0.366 0.93087 0.0
C1098 C 0.6321 0.37213 0.92913 0.0
C1099 C 0.51936 0.34312 0.94689 0.0
C1100 C 0.60278 0.34614 0.99859 0.0
C1101 C 0.59354 0.27938 0.93681 0.0
O1102 O 0.57456 0.29186 0.94878 0.0
O1103 O 0.61379 0.29244 0.9281 0.0
O1104 O 0.52807 0.32857 0.96635 0.0
O1105 O 0.53687 0.35254 0.93025 0.0
O1106 O 0.73705 0.57456 0.94878 0.0
Cd1107 Cd 0.6958 0.56561 0.9534 0.0
Cd1108 Cd 0.69847 0.61914 0.94529 0.0
O1109 O 0.73646 0.61379 0.9281 0.0
O1110 O 0.70034 0.52807 0.96635 0.0
O1111 O 0.67637 0.53686 0.93025 0.0
C1112 C 0.68579 0.51936 0.94689 0.0
C1113 C 0.65677 0.63209 0.92913 0.0
C1114 C 0.74952 0.59354 0.93681 0.0
C1115 C 0.68277 0.60278 0.99859 0.0
O1116 O 0.69781 0.61974 0.9868 0.0
O1117 O 0.67553 0.58155 0.98634 0.0
O1118 O 0.67564 0.64968 0.93278 0.0
O1119 O 0.66291 0.60683 0.93087 0.0
O1120 O 0.0421 0.40917 0.33109 0.0
Cd1121 Cd 0.08362 0.40976 0.33044 0.0
Cd1122 Cd 0.0755 0.4633 0.33311 0.0
O1123 O 0.04256 0.44735 0.35338 0.0
O1124 O 0.09613 0.37922 0.35327 0.0
O1125 O 0.09804 0.42208 0.366 0.0
C1126 C 0.09978 0.39681 0.37213 0.0
C1127 C 0.08201 0.50955 0.34312 0.0
C1128 C 0.03032 0.42612 0.34614 0.0
C1129 C 0.0921 0.43537 0.27938 0.0
O1130 O 0.08013 0.45434 0.29186 0.0
O1131 O 0.1008 0.41512 0.29244 0.0
O1132 O 0.06255 0.50083 0.32857 0.0
O1133 O 0.09866 0.49204 0.35254 0.0
O1134 O 0.61974 0.0421 0.33109 0.0
Cd1135 Cd 0.61914 0.08362 0.33043 0.0
Cd1136 Cd 0.56561 0.0755 0.33311 0.0
O1137 O 0.58156 0.04256 0.35338 0.0
O1138 O 0.64969 0.09613 0.35327 0.0
O1139 O 0.60683 0.09803 0.366 0.0
C1140 C 0.6321 0.09978 0.37213 0.0
C1141 C 0.51936 0.08201 0.34312 0.0
C1142 C 0.60278 0.03032 0.34614 0.0
C1143 C 0.59354 0.0921 0.27938 0.0
O1144 O 0.57456 0.08013 0.29186 0.0
O1145 O 0.61379 0.1008 0.29244 0.0
O1146 O 0.52807 0.06255 0.32857 0.0
O1147 O 0.53687 0.09866 0.35254 0.0
O1148 O 0.9868 0.61974 0.33109 0.0
Cd1149 Cd 0.94529 0.61914 0.33044 0.0
Cd1150 Cd 0.9534 0.56561 0.33311 0.0
O1151 O 0.98635 0.58155 0.35338 0.0
O1152 O 0.93278 0.64968 0.35327 0.0
O1153 O 0.93087 0.60683 0.366 0.0
C1154 C 0.92913 0.63209 0.37213 0.0
C1155 C 0.9469 0.51936 0.34312 0.0
C1156 C 0.99859 0.60278 0.34614 0.0
C1157 C 0.93681 0.59354 0.27938 0.0
O1158 O 0.94878 0.57456 0.29186 0.0
O1159 O 0.92811 0.61379 0.29244 0.0
O1160 O 0.96636 0.52807 0.32857 0.0
O1161 O 0.93025 0.53686 0.35254 0.0
O1162 O 0.40917 0.9868 0.33109 0.0
Cd1163 Cd 0.40977 0.94529 0.33043 0.0
Cd1164 Cd 0.4633 0.9534 0.33311 0.0
O1165 O 0.44735 0.98634 0.35338 0.0
O1166 O 0.37922 0.93278 0.35327 0.0
O1167 O 0.42208 0.93087 0.366 0.0
C1168 C 0.39681 0.92913 0.37213 0.0
C1169 C 0.50955 0.94689 0.34312 0.0
C1170 C 0.42612 0.99859 0.34614 0.0
C1171 C 0.43537 0.93681 0.27938 0.0
O1172 O 0.45435 0.94878 0.29186 0.0
O1173 O 0.41512 0.9281 0.29244 0.0
O1174 O 0.50084 0.96635 0.32857 0.0
O1175 O 0.49204 0.93025 0.35254 0.0
O1176 O 0.0421 0.61974 0.69781 0.0
Cd1177 Cd 0.08362 0.61914 0.69847 0.0
Cd1178 Cd 0.0755 0.56561 0.6958 0.0
O1179 O 0.04256 0.58155 0.67552 0.0
O1180 O 0.09613 0.64968 0.67564 0.0
O1181 O 0.09804 0.60683 0.66291 0.0
C1182 C 0.09978 0.63209 0.65677 0.0
C1183 C 0.08201 0.51936 0.68579 0.0
C1184 C 0.03032 0.60278 0.68277 0.0
C1185 C 0.0921 0.59354 0.74952 0.0
O1186 O 0.08013 0.57456 0.73705 0.0
O1187 O 0.1008 0.61379 0.73646 0.0
O1188 O 0.06255 0.52807 0.70033 0.0
O1189 O 0.09866 0.53686 0.67636 0.0
O1190 O 0.40917 0.0421 0.69781 0.0
Cd1191 Cd 0.40977 0.08362 0.69847 0.0
Cd1192 Cd 0.4633 0.0755 0.6958 0.0
O1193 O 0.44735 0.04256 0.67552 0.0
O1194 O 0.37922 0.09613 0.67564 0.0
O1195 O 0.42208 0.09803 0.66291 0.0
C1196 C 0.39681 0.09978 0.65677 0.0
C1197 C 0.50955 0.08201 0.68579 0.0
C1198 C 0.42612 0.03032 0.68277 0.0
C1199 C 0.43537 0.0921 0.74952 0.0
O1200 O 0.45435 0.08013 0.73705 0.0
O1201 O 0.41512 0.1008 0.73646 0.0
O1202 O 0.50084 0.06255 0.70034 0.0
O1203 O 0.49204 0.09866 0.67636 0.0
O1204 O 0.9868 0.40917 0.69781 0.0
Cd1205 Cd 0.94529 0.40976 0.69847 0.0
Cd1206 Cd 0.9534 0.4633 0.6958 0.0
O1207 O 0.98635 0.44735 0.67552 0.0
O1208 O 0.93278 0.37922 0.67564 0.0
O1209 O 0.93087 0.42208 0.66291 0.0
C1210 C 0.92913 0.39681 0.65677 0.0
C1211 C 0.9469 0.50955 0.68579 0.0
C1212 C 0.99859 0.42612 0.68277 0.0
C1213 C 0.93681 0.43537 0.74952 0.0
O1214 O 0.94878 0.45434 0.73705 0.0
O1215 O 0.92811 0.41512 0.73646 0.0
O1216 O 0.96636 0.50083 0.70033 0.0
O1217 O 0.93025 0.49204 0.67636 0.0
O1218 O 0.61974 0.9868 0.69781 0.0
Cd1219 Cd 0.61914 0.94529 0.69847 0.0
Cd1220 Cd 0.56561 0.9534 0.6958 0.0
O1221 O 0.58156 0.98634 0.67552 0.0
O1222 O 0.64969 0.93278 0.67564 0.0
O1223 O 0.60683 0.93087 0.66291 0.0
C1224 C 0.6321 0.92913 0.65677 0.0
C1225 C 0.51936 0.94689 0.68579 0.0
C1226 C 0.60278 0.99859 0.68277 0.0
C1227 C 0.59354 0.93681 0.74952 0.0
O1228 O 0.57456 0.94878 0.73705 0.0
O1229 O 0.61379 0.9281 0.73646 0.0
O1230 O 0.52807 0.96635 0.70034 0.0
O1231 O 0.53687 0.93025 0.67636 0.0
O1232 O 0.29186 0.08013 0.45434 0.0
Cd1233 Cd 0.33311 0.0755 0.4633 0.0
Cd1234 Cd 0.33044 0.08362 0.40976 0.0
O1235 O 0.29244 0.1008 0.41512 0.0
O1236 O 0.32857 0.06255 0.50083 0.0
O1237 O 0.35254 0.09866 0.49204 0.0
C1238 C 0.34312 0.08201 0.50955 0.0
C1239 C 0.37213 0.09978 0.39681 0.0
C1240 C 0.27939 0.0921 0.43537 0.0
C1241 C 0.34614 0.03032 0.42612 0.0
O1242 O 0.3311 0.0421 0.40917 0.0
O1243 O 0.35338 0.04256 0.44735 0.0
O1244 O 0.35327 0.09613 0.37922 0.0
O1245 O 0.366 0.09803 0.42208 0.0
O1246 O 0.29186 0.94878 0.57456 0.0
Cd1247 Cd 0.33311 0.9534 0.56561 0.0
Cd1248 Cd 0.33044 0.94529 0.61914 0.0
O1249 O 0.29244 0.9281 0.61379 0.0
O1250 O 0.32857 0.96635 0.52807 0.0
O1251 O 0.35254 0.93025 0.53686 0.0
C1252 C 0.34312 0.94689 0.51936 0.0
C1253 C 0.37213 0.92913 0.63209 0.0
C1254 C 0.27939 0.93681 0.59354 0.0
C1255 C 0.34614 0.99859 0.60278 0.0
O1256 O 0.3311 0.9868 0.61974 0.0
O1257 O 0.35338 0.98634 0.58155 0.0
O1258 O 0.35327 0.93278 0.64968 0.0
O1259 O 0.366 0.93087 0.60683 0.0
O1260 O 0.0421 0.33109 0.61974 0.0
Cd1261 Cd 0.08362 0.33044 0.61914 0.0
Cd1262 Cd 0.0755 0.33311 0.56561 0.0
O1263 O 0.04256 0.35338 0.58155 0.0
O1264 O 0.09613 0.35327 0.64968 0.0
O1265 O 0.09804 0.366 0.60683 0.0
C1266 C 0.09978 0.37213 0.63209 0.0
C1267 C 0.08201 0.34312 0.51936 0.0
C1268 C 0.03032 0.34614 0.60278 0.0
C1269 C 0.0921 0.27938 0.59354 0.0
O1270 O 0.08013 0.29186 0.57456 0.0
O1271 O 0.1008 0.29244 0.61379 0.0
O1272 O 0.06255 0.32857 0.52807 0.0
O1273 O 0.09866 0.35254 0.53686 0.0
O1274 O 0.73705 0.08013 0.57456 0.0
Cd1275 Cd 0.6958 0.0755 0.56561 0.0
Cd1276 Cd 0.69847 0.08362 0.61914 0.0
O1277 O 0.73646 0.1008 0.61379 0.0
O1278 O 0.70034 0.06255 0.52807 0.0
O1279 O 0.67637 0.09866 0.53686 0.0
C1280 C 0.68579 0.08201 0.51936 0.0
C1281 C 0.65677 0.09978 0.63209 0.0
C1282 C 0.74952 0.0921 0.59354 0.0
C1283 C 0.68277 0.03032 0.60278 0.0
O1284 O 0.69781 0.0421 0.61974 0.0
O1285 O 0.67553 0.04256 0.58155 0.0
O1286 O 0.67564 0.09613 0.64968 0.0
O1287 O 0.66291 0.09803 0.60683 0.0
O1288 O 0.9868 0.69781 0.61974 0.0
Cd1289 Cd 0.94529 0.69847 0.61914 0.0
Cd1290 Cd 0.9534 0.6958 0.56561 0.0
O1291 O 0.98635 0.67552 0.58155 0.0
O1292 O 0.93278 0.67564 0.64968 0.0
O1293 O 0.93087 0.66291 0.60683 0.0
C1294 C 0.92913 0.65677 0.63209 0.0
C1295 C 0.9469 0.68579 0.51936 0.0
C1296 C 0.99859 0.68277 0.60278 0.0
C1297 C 0.93681 0.74952 0.59354 0.0
O1298 O 0.94878 0.73705 0.57456 0.0
O1299 O 0.92811 0.73646 0.61379 0.0
O1300 O 0.96636 0.70033 0.52807 0.0
O1301 O 0.93025 0.67636 0.53686 0.0
O1302 O 0.73705 0.94878 0.45434 0.0
Cd1303 Cd 0.6958 0.9534 0.4633 0.0
Cd1304 Cd 0.69847 0.94529 0.40976 0.0
O1305 O 0.73646 0.9281 0.41512 0.0
O1306 O 0.70034 0.96635 0.50083 0.0
O1307 O 0.67637 0.93025 0.49204 0.0
C1308 C 0.68579 0.94689 0.50955 0.0
C1309 C 0.65677 0.92913 0.39681 0.0
C1310 C 0.74952 0.93681 0.43537 0.0
C1311 C 0.68277 0.99859 0.42612 0.0
O1312 O 0.69781 0.9868 0.40917 0.0
O1313 O 0.67553 0.98634 0.44735 0.0
O1314 O 0.67564 0.93278 0.37922 0.0
O1315 O 0.66291 0.93087 0.42208 0.0
O1316 O 0.0421 0.69781 0.40917 0.0
Cd1317 Cd 0.08362 0.69847 0.40976 0.0
Cd1318 Cd 0.0755 0.6958 0.4633 0.0
O1319 O 0.04256 0.67552 0.44735 0.0
O1320 O 0.09613 0.67564 0.37922 0.0
O1321 O 0.09804 0.66291 0.42208 0.0
C1322 C 0.09978 0.65677 0.39681 0.0
C1323 C 0.08201 0.68579 0.50955 0.0
C1324 C 0.03032 0.68277 0.42612 0.0
C1325 C 0.0921 0.74952 0.43537 0.0
O1326 O 0.08013 0.73705 0.45434 0.0
O1327 O 0.1008 0.73646 0.41512 0.0
O1328 O 0.06255 0.70033 0.50083 0.0
O1329 O 0.09866 0.67636 0.49204 0.0
O1330 O 0.9868 0.33109 0.40917 0.0
Cd1331 Cd 0.94529 0.33044 0.40976 0.0
Cd1332 Cd 0.9534 0.33311 0.4633 0.0
O1333 O 0.98635 0.35338 0.44735 0.0
O1334 O 0.93278 0.35327 0.37922 0.0
O1335 O 0.93087 0.366 0.42208 0.0
C1336 C 0.92913 0.37213 0.39681 0.0
C1337 C 0.9469 0.34312 0.50955 0.0
C1338 C 0.99859 0.34614 0.42612 0.0
C1339 C 0.93681 0.27938 0.43537 0.0
O1340 O 0.94878 0.29186 0.45434 0.0
O1341 O 0.92811 0.29244 0.41512 0.0
O1342 O 0.96636 0.32857 0.50083 0.0
O1343 O 0.93025 0.35254 0.49204 0.0
loop_
_geom_bond_atom_site_label_1
_geom_bond_atom_site_label_2
_geom_bond_distance
_geom_bond_site_symmetry_2
_ccdc_geom_bond_type
O0 Cd1 2.223 . S
O0 C8 1.315 . S
Cd1 O0 2.223 . S
Cd1 O4 2.297 . S
Cd1 O5 2.439 . S
Cd1 O11 2.240 . S
Cd2 O3 2.240 . S
Cd2 O10 2.223 . S
Cd2 O12 2.297 . S
Cd2 O13 2.439 . S
O3 Cd2 2.240 . S
O3 C8 1.279 . S
O4 Cd1 2.297 . S
O4 C6 1.247 . S
O5 Cd1 2.439 . S
O5 C6 1.208 . S
C6 O4 1.247 . S
C6 O5 1.208 . S
C7 O12 1.247 . S
C7 O13 1.208 . S
C8 O0 1.315 . S
C8 O3 1.279 . S
C9 O10 1.315 . S
C9 O11 1.279 . S
O10 Cd2 2.223 . S
O10 C9 1.315 . S
O11 Cd1 2.240 . S
O11 C9 1.279 . S
O12 Cd2 2.297 . S
O12 C7 1.247 . S
O13 Cd2 2.439 . S
O13 C7 1.208 . S
O14 Cd15 2.223 . S
O14 C22 1.315 . S
Cd15 O14 2.223 . S
Cd15 O18 2.297 . S
Cd15 O19 2.439 . S
Cd15 O25 2.240 . S
Cd16 O17 2.240 . S
Cd16 O24 2.223 . S
Cd16 O26 2.297 . S
Cd16 O27 2.439 . S
O17 Cd16 2.240 . S
O17 C22 1.279 . S
O18 Cd15 2.297 . S
O18 C20 1.247 . S
O19 Cd15 2.439 . S
O19 C20 1.208 . S
C20 O18 1.247 . S
C20 O19 1.208 . S
C21 O26 1.247 . S
C21 O27 1.208 . S
C22 O14 1.315 . S
C22 O17 1.279 . S
C23 O24 1.315 . S
C23 O25 1.279 . S
O24 Cd16 2.223 . S
O24 C23 1.315 . S
O25 Cd15 2.240 . S
O25 C23 1.279 . S
O26 Cd16 2.297 . S
O26 C21 1.247 . S
O27 Cd16 2.439 . S
O27 C21 1.208 . S
O28 Cd29 2.223 . S
O28 C36 1.315 . S
Cd29 O28 2.223 . S
Cd29 O32 2.297 . S
Cd29 O33 2.439 . S
Cd29 O39 2.240 . S
Cd30 O31 2.240 . S
Cd30 O38 2.223 . S
Cd30 O40 2.297 . S
Cd30 O41 2.439 . S
O31 Cd30 2.240 . S
O31 C36 1.279 . S
O32 Cd29 2.297 . S
O32 C34 1.247 . S
O33 Cd29 2.439 . S
O33 C34 1.208 . S
C34 O32 1.247 . S
C34 O33 1.208 . S
C35 O40 1.247 . S
C35 O41 1.208 . S
C36 O28 1.315 . S
C36 O31 1.279 . S
C37 O38 1.315 . S
C37 O39 1.279 . S
O38 Cd30 2.223 . S
O38 C37 1.315 . S
O39 Cd29 2.240 . S
O39 C37 1.279 . S
O40 Cd30 2.297 . S
O40 C35 1.247 . S
O41 Cd30 2.439 . S
O41 C35 1.208 . S
O42 Cd43 2.223 . S
O42 C50 1.315 . S
Cd43 O42 2.223 . S
Cd43 O46 2.297 . S
Cd43 O47 2.439 . S
Cd43 O53 2.240 . S
Cd44 O45 2.240 . S
Cd44 O52 2.223 . S
Cd44 O54 2.297 . S
Cd44 O55 2.439 . S
O45 Cd44 2.240 . S
O45 C50 1.279 . S
O46 Cd43 2.297 . S
O46 C48 1.247 . S
O47 Cd43 2.439 . S
O47 C48 1.208 . S
C48 O46 1.247 . S
C48 O47 1.208 . S
C49 O54 1.247 . S
C49 O55 1.208 . S
C50 O42 1.315 . S
C50 O45 1.279 . S
C51 O52 1.315 . S
C51 O53 1.279 . S
O52 Cd44 2.223 . S
O52 C51 1.315 . S
O53 Cd43 2.240 . S
O53 C51 1.279 . S
O54 Cd44 2.297 . S
O54 C49 1.247 . S
O55 Cd44 2.439 . S
O55 C49 1.208 . S
O56 Cd57 2.223 . S
O56 C64 1.315 . S
Cd57 O56 2.223 . S
Cd57 O60 2.297 . S
Cd57 O61 2.439 . S
Cd57 O67 2.240 . S
Cd58 O59 2.240 . S
Cd58 O66 2.223 . S
Cd58 O68 2.297 . S
Cd58 O69 2.439 . S
O59 Cd58 2.240 . S
O59 C64 1.279 . S
O60 Cd57 2.297 . S
O60 C62 1.247 . S
O61 Cd57 2.439 . S
O61 C62 1.208 . S
C62 O60 1.247 . S
C62 O61 1.208 . S
C63 O68 1.247 . S
C63 O69 1.208 . S
C64 O56 1.315 . S
C64 O59 1.279 . S
C65 O66 1.315 . S
C65 O67 1.279 . S
O66 Cd58 2.223 . S
O66 C65 1.315 . S
O67 Cd57 2.240 . S
O67 C65 1.279 . S
O68 Cd58 2.297 . S
O68 C63 1.247 . S
O69 Cd58 2.439 . S
O69 C63 1.208 . S
O70 Cd71 2.223 . S
O70 C78 1.315 . S
Cd71 O70 2.223 . S
Cd71 O74 2.297 . S
Cd71 O75 2.439 . S
Cd71 O81 2.240 . S
Cd72 O73 2.240 . S
Cd72 O80 2.223 . S
Cd72 O82 2.297 . S
Cd72 O83 2.439 . S
O73 Cd72 2.240 . S
O73 C78 1.279 . S
O74 Cd71 2.297 . S
O74 C76 1.247 . S
O75 Cd71 2.439 . S
O75 C76 1.208 . S
C76 O74 1.247 . S
C76 O75 1.208 . S
C77 O82 1.247 . S
C77 O83 1.208 . S
C78 O70 1.315 . S
C78 O73 1.279 . S
C79 O80 1.315 . S
C79 O81 1.279 . S
O80 Cd72 2.223 . S
O80 C79 1.315 . S
O81 Cd71 2.240 . S
O81 C79 1.279 . S
O82 Cd72 2.297 . S
O82 C77 1.247 . S
O83 Cd72 2.439 . S
O83 C77 1.208 . S
O84 Cd85 2.223 . S
O84 C92 1.315 . S
Cd85 O84 2.223 . S
Cd85 O88 2.297 . S
Cd85 O89 2.439 . S
Cd85 O95 2.240 . S
Cd86 O87 2.240 . S
Cd86 O94 2.223 . S
Cd86 O96 2.297 . S
Cd86 O97 2.439 . S
O87 Cd86 2.240 . S
O87 C92 1.279 . S
O88 Cd85 2.297 . S
O88 C90 1.247 . S
O89 Cd85 2.439 . S
O89 C90 1.208 . S
C90 O88 1.247 . S
C90 O89 1.208 . S
C91 O96 1.247 . S
C91 O97 1.208 . S
C92 O84 1.315 . S
C92 O87 1.279 . S
C93 O94 1.315 . S
C93 O95 1.279 . S
O94 Cd86 2.223 . S
O94 C93 1.315 . S
O95 Cd85 2.240 . S
O95 C93 1.279 . S
O96 Cd86 2.297 . S
O96 C91 1.247 . S
O97 Cd86 2.439 . S
O97 C91 1.208 . S
O98 Cd99 2.223 . S
O98 C106 1.315 . S
Cd99 O98 2.223 . S
Cd99 O102 2.297 . S
Cd99 O103 2.439 . S
Cd99 O109 2.240 . S
Cd100 O101 2.240 . S
Cd100 O108 2.223 . S
Cd100 O110 2.297 . S
Cd100 O111 2.439 . S
O101 Cd100 2.240 . S
O101 C106 1.279 . S
O102 Cd99 2.297 . S
O102 C104 1.247 . S
O103 Cd99 2.439 . S
O103 C104 1.208 . S
C104 O102 1.247 . S
C104 O103 1.208 . S
C105 O110 1.247 . S
C105 O111 1.208 . S
C106 O98 1.315 . S
C106 O101 1.279 . S
C107 O108 1.315 . S
C107 O109 1.279 . S
O108 Cd100 2.223 . S
O108 C107 1.315 . S
O109 Cd99 2.240 . S
O109 C107 1.279 . S
O110 Cd100 2.297 . S
O110 C105 1.247 . S
O111 Cd100 2.439 . S
O111 C105 1.208 . S
O112 Cd113 2.223 . S
O112 C120 1.315 . S
Cd113 O112 2.223 . S
Cd113 O116 2.297 . S
Cd113 O117 2.439 . S
Cd113 O123 2.240 . S
Cd114 O115 2.240 . S
Cd114 O122 2.223 . S
Cd114 O124 2.297 . S
Cd114 O125 2.439 . S
O115 Cd114 2.240 . S
O115 C120 1.279 . S
O116 Cd113 2.297 . S
O116 C118 1.247 . S
O117 Cd113 2.439 . S
O117 C118 1.208 . S
C118 O116 1.247 . S
C118 O117 1.208 . S
C119 O124 1.247 . S
C119 O125 1.208 . S
C120 O112 1.315 . S
C120 O115 1.279 . S
C121 O122 1.315 . S
C121 O123 1.279 . S
O122 Cd114 2.223 . S
O122 C121 1.315 . S
O123 Cd113 2.240 . S
O123 C121 1.279 . S
O124 Cd114 2.297 . S
O124 C119 1.247 . S
O125 Cd114 2.439 . S
O125 C119 1.208 . S
O126 Cd127 2.223 . S
O126 C134 1.315 . S
Cd127 O126 2.223 . S
Cd127 O130 2.297 . S
Cd127 O131 2.439 . S
Cd127 O137 2.240 . S
Cd128 O129 2.240 . S
Cd128 O136 2.223 . S
Cd128 O138 2.297 . S
Cd128 O139 2.439 . S
O129 Cd128 2.240 . S
O129 C134 1.279 . S
O130 Cd127 2.297 . S
O130 C132 1.247 . S
O131 Cd127 2.439 . S
O131 C132 1.208 . S
C132 O130 1.247 . S
C132 O131 1.208 . S
C133 O138 1.247 . S
C133 O139 1.208 . S
C134 O126 1.315 . S
C134 O129 1.279 . S
C135 O136 1.315 . S
C135 O137 1.279 . S
O136 Cd128 2.223 . S
O136 C135 1.315 . S
O137 Cd127 2.240 . S
O137 C135 1.279 . S
O138 Cd128 2.297 . S
O138 C133 1.247 . S
O139 Cd128 2.439 . S
O139 C133 1.208 . S
O140 Cd141 2.223 . S
O140 C148 1.315 . S
Cd141 O140 2.223 . S
Cd141 O144 2.297 . S
Cd141 O145 2.439 . S
Cd141 O151 2.240 . S
Cd142 O143 2.240 . S
Cd142 O150 2.223 . S
Cd142 O152 2.297 . S
Cd142 O153 2.439 . S
O143 Cd142 2.240 . S
O143 C148 1.279 . S
O144 Cd141 2.297 . S
O144 C146 1.247 . S
O145 Cd141 2.439 . S
O145 C146 1.208 . S
C146 O144 1.247 . S
C146 O145 1.208 . S
C147 O152 1.247 . S
C147 O153 1.208 . S
C148 O140 1.315 . S
C148 O143 1.279 . S
C149 O150 1.315 . S
C149 O151 1.279 . S
O150 Cd142 2.223 . S
O150 C149 1.315 . S
O151 Cd141 2.240 . S
O151 C149 1.279 . S
O152 Cd142 2.297 . S
O152 C147 1.247 . S
O153 Cd142 2.439 . S
O153 C147 1.208 . S
O154 Cd155 2.223 . S
O154 C162 1.315 . S
Cd155 O154 2.223 . S
Cd155 O158 2.297 . S
Cd155 O159 2.439 . S
Cd155 O165 2.240 . S
Cd156 O157 2.240 . S
Cd156 O164 2.223 . S
Cd156 O166 2.297 . S
Cd156 O167 2.439 . S
O157 Cd156 2.240 . S
O157 C162 1.279 . S
O158 Cd155 2.297 . S
O158 C160 1.247 . S
O159 Cd155 2.439 . S
O159 C160 1.208 . S
C160 O158 1.247 . S
C160 O159 1.208 . S
C161 O166 1.247 . S
C161 O167 1.208 . S
C162 O154 1.315 . S
C162 O157 1.279 . S
C163 O164 1.315 . S
C163 O165 1.279 . S
O164 Cd156 2.223 . S
O164 C163 1.315 . S
O165 Cd155 2.240 . S
O165 C163 1.279 . S
O166 Cd156 2.297 . S
O166 C161 1.247 . S
O167 Cd156 2.439 . S
O167 C161 1.208 . S
O168 Cd169 2.223 . S
O168 C176 1.315 . S
Cd169 O168 2.223 . S
Cd169 O172 2.297 . S
Cd169 O173 2.439 . S
Cd169 O179 2.240 . S
Cd170 O171 2.240 . S
Cd170 O178 2.223 . S
Cd170 O180 2.297 . S
Cd170 O181 2.439 . S
O171 Cd170 2.240 . S
O171 C176 1.279 . S
O172 Cd169 2.297 . S
O172 C174 1.247 . S
O173 Cd169 2.439 . S
O173 C174 1.208 . S
C174 O172 1.247 . S
C174 O173 1.208 . S
C175 O180 1.247 . S
C175 O181 1.208 . S
C176 O168 1.315 . S
C176 O171 1.279 . S
C177 O178 1.315 . S
C177 O179 1.279 . S
O178 Cd170 2.223 . S
O178 C177 1.315 . S
O179 Cd169 2.240 . S
O179 C177 1.279 . S
O180 Cd170 2.297 . S
O180 C175 1.247 . S
O181 Cd170 2.439 . S
O181 C175 1.208 . S
O182 Cd183 2.223 . S
O182 C190 1.315 . S
Cd183 O182 2.223 . S
Cd183 O186 2.297 . S
Cd183 O187 2.439 . S
Cd183 O193 2.240 . S
Cd184 O185 2.240 . S
Cd184 O192 2.223 . S
Cd184 O194 2.297 . S
Cd184 O195 2.439 . S
O185 Cd184 2.240 . S
O185 C190 1.279 . S
O186 Cd183 2.297 . S
O186 C188 1.247 . S
O187 Cd183 2.439 . S
O187 C188 1.208 . S
C188 O186 1.247 . S
C188 O187 1.208 . S
C189 O194 1.247 . S
C189 O195 1.208 . S
C190 O182 1.315 . S
C190 O185 1.279 . S
C191 O192 1.315 . S
C191 O193 1.279 . S
O192 Cd184 2.223 . S
O192 C191 1.315 . S
O193 Cd183 2.240 . S
O193 C191 1.279 . S
O194 Cd184 2.297 . S
O194 C189 1.247 . S
O195 Cd184 2.439 . S
O195 C189 1.208 . S
O196 Cd197 2.223 . S
O196 C204 1.315 . S
Cd197 O196 2.223 . S
Cd197 O200 2.297 . S
Cd197 O201 2.439 . S
Cd197 O207 2.240 . S
Cd198 O199 2.240 . S
Cd198 O206 2.223 . S
Cd198 O208 2.297 . S
Cd198 O209 2.439 . S
O199 Cd198 2.240 . S
O199 C204 1.279 . S
O200 Cd197 2.297 . S
O200 C202 1.247 . S
O201 Cd197 2.439 . S
O201 C202 1.208 . S
C202 O200 1.247 . S
C202 O201 1.208 . S
C203 O208 1.247 . S
C203 O209 1.208 . S
C204 O196 1.315 . S
C204 O199 1.279 . S
C205 O206 1.315 . S
C205 O207 1.279 . S
O206 Cd198 2.223 . S
O206 C205 1.315 . S
O207 Cd197 2.240 . S
O207 C205 1.279 . S
O208 Cd198 2.297 . S
O208 C203 1.247 . S
O209 Cd198 2.439 . S
O209 C203 1.208 . S
O210 Cd211 2.223 . S
O210 C218 1.315 . S
Cd211 O210 2.223 . S
Cd211 O214 2.297 . S
Cd211 O215 2.439 . S
Cd211 O221 2.240 . S
Cd212 O213 2.240 . S
Cd212 O220 2.223 . S
Cd212 O222 2.297 . S
Cd212 O223 2.439 . S
O213 Cd212 2.240 . S
O213 C218 1.279 . S
O214 Cd211 2.297 . S
O214 C216 1.247 . S
O215 Cd211 2.439 . S
O215 C216 1.208 . S
C216 O214 1.247 . S
C216 O215 1.208 . S
C217 O222 1.247 . S
C217 O223 1.208 . S
C218 O210 1.315 . S
C218 O213 1.279 . S
C219 O220 1.315 . S
C219 O221 1.279 . S
O220 Cd212 2.223 . S
O220 C219 1.315 . S
O221 Cd211 2.240 . S
O221 C219 1.279 . S
O222 Cd212 2.297 . S
O222 C217 1.247 . S
O223 Cd212 2.439 . S
O223 C217 1.208 . S
O224 Cd225 2.223 . S
O224 C232 1.315 . S
Cd225 O224 2.223 . S
Cd225 O228 2.297 . S
Cd225 O229 2.439 . S
Cd225 O235 2.240 . S
Cd226 O227 2.240 . S
Cd226 O234 2.223 . S
Cd226 O236 2.297 . S
Cd226 O237 2.439 . S
O227 Cd226 2.240 . S
O227 C232 1.279 . S
O228 Cd225 2.297 . S
O228 C230 1.247 . S
O229 Cd225 2.439 . S
O229 C230 1.208 . S
C230 O228 1.247 . S
C230 O229 1.208 . S
C231 O236 1.247 . S
C231 O237 1.208 . S
C232 O224 1.315 . S
C232 O227 1.279 . S
C233 O234 1.315 . S
C233 O235 1.279 . S
O234 Cd226 2.223 . S
O234 C233 1.315 . S
O235 Cd225 2.240 . S
O235 C233 1.279 . S
O236 Cd226 2.297 . S
O236 C231 1.247 . S
O237 Cd226 2.439 . S
O237 C231 1.208 . S
O238 Cd239 2.223 . S
O238 C246 1.315 . S
Cd239 O238 2.223 . S
Cd239 O242 2.297 . S
Cd239 O243 2.439 . S
Cd239 O249 2.240 . S
Cd240 O241 2.240 . S
Cd240 O248 2.223 . S
Cd240 O250 2.297 . S
Cd240 O251 2.439 . S
O241 Cd240 2.240 . S
O241 C246 1.279 . S
O242 Cd239 2.297 . S
O242 C244 1.247 . S
O243 Cd239 2.439 . S
O243 C244 1.208 . S
C244 O242 1.247 . S
C244 O243 1.208 . S
C245 O250 1.247 . S
C245 O251 1.208 . S
C246 O238 1.315 . S
C246 O241 1.279 . S
C247 O248 1.315 . S
C247 O249 1.279 . S
O248 Cd240 2.223 . S
O248 C247 1.315 . S
O249 Cd239 2.240 . S
O249 C247 1.279 . S
O250 Cd240 2.297 . S
O250 C245 1.247 . S
O251 Cd240 2.439 . S
O251 C245 1.208 . S
O252 Cd253 2.223 . S
O252 C260 1.315 . S
Cd253 O252 2.223 . S
Cd253 O256 2.297 . S
Cd253 O257 2.439 . S
Cd253 O263 2.240 . S
Cd254 O255 2.240 . S
Cd254 O262 2.223 . S
Cd254 O264 2.297 . S
Cd254 O265 2.439 . S
O255 Cd254 2.240 . S
O255 C260 1.279 . S
O256 Cd253 2.297 . S
O256 C258 1.247 . S
O257 Cd253 2.439 . S
O257 C258 1.208 . S
C258 O256 1.247 . S
C258 O257 1.208 . S
C259 O264 1.247 . S
C259 O265 1.208 . S
C260 O252 1.315 . S
C260 O255 1.279 . S
C261 O262 1.315 . S
C261 O263 1.279 . S
O262 Cd254 2.223 . S
O262 C261 1.315 . S
O263 Cd253 2.240 . S
O263 C261 1.279 . S
O264 Cd254 2.297 . S
O264 C259 1.247 . S
O265 Cd254 2.439 . S
O265 C259 1.208 . S
O266 Cd267 2.223 . S
O266 C274 1.315 . S
Cd267 O266 2.223 . S
Cd267 O270 2.297 . S
Cd267 O271 2.439 . S
Cd267 O277 2.240 . S
Cd268 O269 2.240 . S
Cd268 O276 2.223 . S
Cd268 O278 2.297 . S
Cd268 O279 2.439 . S
O269 Cd268 2.240 . S
O269 C274 1.279 . S
O270 Cd267 2.297 . S
O270 C272 1.247 . S
O271 Cd267 2.439 . S
O271 C272 1.208 . S
C272 O270 1.247 . S
C272 O271 1.208 . S
C273 O278 1.247 . S
C273 O279 1.208 . S
C274 O266 1.315 . S
C274 O269 1.279 . S
C275 O276 1.315 . S
C275 O277 1.279 . S
O276 Cd268 2.223 . S
O276 C275 1.315 . S
O277 Cd267 2.240 . S
O277 C275 1.279 . S
O278 Cd268 2.297 . S
O278 C273 1.247 . S
O279 Cd268 2.439 . S
O279 C273 1.208 . S
O280 Cd281 2.223 . S
O280 C288 1.315 . S
Cd281 O280 2.223 . S
Cd281 O284 2.297 . S
Cd281 O285 2.439 . S
Cd281 O291 2.240 . S
Cd282 O283 2.240 . S
Cd282 O290 2.223 . S
Cd282 O292 2.297 . S
Cd282 O293 2.439 . S
O283 Cd282 2.240 . S
O283 C288 1.279 . S
O284 Cd281 2.297 . S
O284 C286 1.247 . S
O285 Cd281 2.439 . S
O285 C286 1.208 . S
C286 O284 1.247 . S
C286 O285 1.208 . S
C287 O292 1.247 . S
C287 O293 1.208 . S
C288 O280 1.315 . S
C288 O283 1.279 . S
C289 O290 1.315 . S
C289 O291 1.279 . S
O290 Cd282 2.223 . S
O290 C289 1.315 . S
O291 Cd281 2.240 . S
O291 C289 1.279 . S
O292 Cd282 2.297 . S
O292 C287 1.247 . S
O293 Cd282 2.439 . S
O293 C287 1.208 . S
O294 Cd295 2.223 . S
O294 C302 1.315 . S
Cd295 O294 2.223 . S
Cd295 O298 2.297 . S
Cd295 O299 2.439 . S
Cd295 O305 2.240 . S
Cd296 O297 2.240 . S
Cd296 O304 2.223 . S
Cd296 O306 2.297 . S
Cd296 O307 2.439 . S
O297 Cd296 2.240 . S
O297 C302 1.279 . S
O298 Cd295 2.297 . S
O298 C300 1.247 . S
O299 Cd295 2.439 . S
O299 C300 1.208 . S
C300 O298 1.247 . S
C300 O299 1.208 . S
C301 O306 1.247 . S
C301 O307 1.208 . S
C302 O294 1.315 . S
C302 O297 1.279 . S
C303 O304 1.315 . S
C303 O305 1.279 . S
O304 Cd296 2.223 . S
O304 C303 1.315 . S
O305 Cd295 2.240 . S
O305 C303 1.279 . S
O306 Cd296 2.297 . S
O306 C301 1.247 . S
O307 Cd296 2.439 . S
O307 C301 1.208 . S
O308 Cd309 2.223 . S
O308 C316 1.315 . S
Cd309 O308 2.223 . S
Cd309 O312 2.297 . S
Cd309 O313 2.439 . S
Cd309 O319 2.240 . S
Cd310 O311 2.240 . S
Cd310 O318 2.223 . S
Cd310 O320 2.297 . S
Cd310 O321 2.439 . S
O311 Cd310 2.240 . S
O311 C316 1.279 . S
O312 Cd309 2.297 . S
O312 C314 1.247 . S
O313 Cd309 2.439 . S
O313 C314 1.208 . S
C314 O312 1.247 . S
C314 O313 1.208 . S
C315 O320 1.247 . S
C315 O321 1.208 . S
C316 O308 1.315 . S
C316 O311 1.279 . S
C317 O318 1.315 . S
C317 O319 1.279 . S
O318 Cd310 2.223 . S
O318 C317 1.315 . S
O319 Cd309 2.240 . S
O319 C317 1.279 . S
O320 Cd310 2.297 . S
O320 C315 1.247 . S
O321 Cd310 2.439 . S
O321 C315 1.208 . S
O322 Cd323 2.223 . S
O322 C330 1.315 . S
Cd323 O322 2.223 . S
Cd323 O326 2.297 . S
Cd323 O327 2.439 . S
Cd323 O333 2.240 . S
Cd324 O325 2.240 . S
Cd324 O332 2.223 . S
Cd324 O334 2.297 . S
Cd324 O335 2.439 . S
O325 Cd324 2.240 . S
O325 C330 1.279 . S
O326 Cd323 2.297 . S
O326 C328 1.247 . S
O327 Cd323 2.439 . S
O327 C328 1.208 . S
C328 O326 1.247 . S
C328 O327 1.208 . S
C329 O334 1.247 . S
C329 O335 1.208 . S
C330 O322 1.315 . S
C330 O325 1.279 . S
C331 O332 1.315 . S
C331 O333 1.279 . S
O332 Cd324 2.223 . S
O332 C331 1.315 . S
O333 Cd323 2.240 . S
O333 C331 1.279 . S
O334 Cd324 2.297 . S
O334 C329 1.247 . S
O335 Cd324 2.439 . S
O335 C329 1.208 . S
O336 Cd337 2.223 . S
O336 C344 1.315 . S
Cd337 O336 2.223 . S
Cd337 O340 2.297 . S
Cd337 O341 2.439 . S
Cd337 O347 2.240 . S
Cd338 O339 2.240 . S
Cd338 O346 2.223 . S
Cd338 O348 2.297 1_655 S
Cd338 O349 2.439 . S
O339 Cd338 2.240 . S
O339 C344 1.279 . S
O340 Cd337 2.297 . S
O340 C342 1.247 . S
O341 Cd337 2.439 . S
O341 C342 1.208 . S
C342 O340 1.247 . S
C342 O341 1.208 . S
C343 O348 1.247 . S
C343 O349 1.208 1_455 S
C344 O336 1.315 . S
C344 O339 1.279 . S
C345 O346 1.315 . S
C345 O347 1.279 . S
O346 Cd338 2.223 . S
O346 C345 1.315 . S
O347 Cd337 2.240 . S
O347 C345 1.279 . S
O348 Cd338 2.297 1_455 S
O348 C343 1.247 . S
O349 Cd338 2.439 . S
O349 C343 1.208 1_655 S
O350 Cd351 2.223 . S
O350 C358 1.315 . S
Cd351 O350 2.223 . S
Cd351 O354 2.297 1_565 S
Cd351 O355 2.439 . S
Cd351 O361 2.240 . S
Cd352 O353 2.240 . S
Cd352 O360 2.223 . S
Cd352 O362 2.297 . S
Cd352 O363 2.439 . S
O353 Cd352 2.240 . S
O353 C358 1.279 . S
O354 Cd351 2.297 1_545 S
O354 C356 1.247 . S
O355 Cd351 2.439 . S
O355 C356 1.208 1_565 S
C356 O354 1.247 . S
C356 O355 1.208 1_545 S
C357 O362 1.247 . S
C357 O363 1.208 . S
C358 O350 1.315 . S
C358 O353 1.279 . S
C359 O360 1.315 . S
C359 O361 1.279 . S
O360 Cd352 2.223 . S
O360 C359 1.315 . S
O361 Cd351 2.240 . S
O361 C359 1.279 . S
O362 Cd352 2.297 . S
O362 C357 1.247 . S
O363 Cd352 2.439 . S
O363 C357 1.208 . S
O364 Cd365 2.223 . S
O364 C372 1.315 . S
Cd365 O364 2.223 . S
Cd365 O368 2.297 . S
Cd365 O369 2.439 . S
Cd365 O375 2.240 . S
Cd366 O367 2.240 . S
Cd366 O374 2.223 . S
Cd366 O376 2.297 1_455 S
Cd366 O377 2.439 . S
O367 Cd366 2.240 . S
O367 C372 1.279 . S
O368 Cd365 2.297 . S
O368 C370 1.247 . S
O369 Cd365 2.439 . S
O369 C370 1.208 . S
C370 O368 1.247 . S
C370 O369 1.208 . S
C371 O376 1.247 . S
C371 O377 1.208 1_655 S
C372 O364 1.315 . S
C372 O367 1.279 . S
C373 O374 1.315 . S
C373 O375 1.279 . S
O374 Cd366 2.223 . S
O374 C373 1.315 . S
O375 Cd365 2.240 . S
O375 C373 1.279 . S
O376 Cd366 2.297 1_655 S
O376 C371 1.247 . S
O377 Cd366 2.439 . S
O377 C371 1.208 1_455 S
O378 Cd379 2.223 . S
O378 C386 1.315 . S
Cd379 O378 2.223 . S
Cd379 O382 2.297 1_545 S
Cd379 O383 2.439 . S
Cd379 O389 2.240 . S
Cd380 O381 2.240 . S
Cd380 O388 2.223 . S
Cd380 O390 2.297 . S
Cd380 O391 2.439 . S
O381 Cd380 2.240 . S
O381 C386 1.279 . S
O382 Cd379 2.297 1_565 S
O382 C384 1.247 . S
O383 Cd379 2.439 . S
O383 C384 1.208 1_545 S
C384 O382 1.247 . S
C384 O383 1.208 1_565 S
C385 O390 1.247 . S
C385 O391 1.208 . S
C386 O378 1.315 . S
C386 O381 1.279 . S
C387 O388 1.315 . S
C387 O389 1.279 . S
O388 Cd380 2.223 . S
O388 C387 1.315 . S
O389 Cd379 2.240 . S
O389 C387 1.279 . S
O390 Cd380 2.297 . S
O390 C385 1.247 . S
O391 Cd380 2.439 . S
O391 C385 1.208 . S
O392 Cd393 2.223 . S
O392 C400 1.315 . S
Cd393 O392 2.223 . S
Cd393 O396 2.297 . S
Cd393 O397 2.439 . S
Cd393 O403 2.240 . S
Cd394 O395 2.240 . S
Cd394 O402 2.223 . S
Cd394 O404 2.297 1_655 S
Cd394 O405 2.439 . S
O395 Cd394 2.240 . S
O395 C400 1.279 . S
O396 Cd393 2.297 . S
O396 C398 1.247 . S
O397 Cd393 2.439 . S
O397 C398 1.208 . S
C398 O396 1.247 . S
C398 O397 1.208 . S
C399 O404 1.247 . S
C399 O405 1.208 1_455 S
C400 O392 1.315 . S
C400 O395 1.279 . S
C401 O402 1.315 . S
C401 O403 1.279 . S
O402 Cd394 2.223 . S
O402 C401 1.315 . S
O403 Cd393 2.240 . S
O403 C401 1.279 . S
O404 Cd394 2.297 1_455 S
O404 C399 1.247 . S
O405 Cd394 2.439 . S
O405 C399 1.208 1_655 S
O406 Cd407 2.223 . S
O406 C414 1.315 . S
Cd407 O406 2.223 . S
Cd407 O410 2.297 1_565 S
Cd407 O411 2.439 . S
Cd407 O417 2.240 . S
Cd408 O409 2.240 . S
Cd408 O416 2.223 . S
Cd408 O418 2.297 . S
Cd408 O419 2.439 . S
O409 Cd408 2.240 . S
O409 C414 1.279 . S
O410 Cd407 2.297 1_545 S
O410 C412 1.247 . S
O411 Cd407 2.439 . S
O411 C412 1.208 1_565 S
C412 O410 1.247 . S
C412 O411 1.208 1_545 S
C413 O418 1.247 . S
C413 O419 1.208 . S
C414 O406 1.315 . S
C414 O409 1.279 . S
C415 O416 1.315 . S
C415 O417 1.279 . S
O416 Cd408 2.223 . S
O416 C415 1.315 . S
O417 Cd407 2.240 . S
O417 C415 1.279 . S
O418 Cd408 2.297 . S
O418 C413 1.247 . S
O419 Cd408 2.439 . S
O419 C413 1.208 . S
O420 Cd421 2.223 . S
O420 C428 1.315 . S
Cd421 O420 2.223 . S
Cd421 O424 2.297 . S
Cd421 O425 2.439 . S
Cd421 O431 2.240 . S
Cd422 O423 2.240 . S
Cd422 O430 2.223 . S
Cd422 O432 2.297 1_455 S
Cd422 O433 2.439 . S
O423 Cd422 2.240 . S
O423 C428 1.279 . S
O424 Cd421 2.297 . S
O424 C426 1.247 . S
O425 Cd421 2.439 . S
O425 C426 1.208 . S
C426 O424 1.247 . S
C426 O425 1.208 . S
C427 O432 1.247 . S
C427 O433 1.208 1_655 S
C428 O420 1.315 . S
C428 O423 1.279 . S
C429 O430 1.315 . S
C429 O431 1.279 . S
O430 Cd422 2.223 . S
O430 C429 1.315 . S
O431 Cd421 2.240 . S
O431 C429 1.279 . S
O432 Cd422 2.297 1_655 S
O432 C427 1.247 . S
O433 Cd422 2.439 . S
O433 C427 1.208 1_455 S
O434 Cd435 2.223 . S
O434 C442 1.315 . S
Cd435 O434 2.223 . S
Cd435 O438 2.297 1_545 S
Cd435 O439 2.439 . S
Cd435 O445 2.240 . S
Cd436 O437 2.240 . S
Cd436 O444 2.223 . S
Cd436 O446 2.297 . S
Cd436 O447 2.439 . S
O437 Cd436 2.240 . S
O437 C442 1.279 . S
O438 Cd435 2.297 1_565 S
O438 C440 1.247 . S
O439 Cd435 2.439 . S
O439 C440 1.208 1_545 S
C440 O438 1.247 . S
C440 O439 1.208 1_565 S
C441 O446 1.247 . S
C441 O447 1.208 . S
C442 O434 1.315 . S
C442 O437 1.279 . S
C443 O444 1.315 . S
C443 O445 1.279 . S
O444 Cd436 2.223 . S
O444 C443 1.315 . S
O445 Cd435 2.240 . S
O445 C443 1.279 . S
O446 Cd436 2.297 . S
O446 C441 1.247 . S
O447 Cd436 2.439 . S
O447 C441 1.208 . S
O448 Cd449 2.223 . S
O448 C456 1.315 . S
Cd449 O448 2.223 . S
Cd449 O452 2.297 . S
Cd449 O453 2.439 . S
Cd449 O459 2.240 . S
Cd450 O451 2.240 . S
Cd450 O458 2.223 . S
Cd450 O460 2.297 1_565 S
Cd450 O461 2.439 . S
O451 Cd450 2.240 . S
O451 C456 1.279 . S
O452 Cd449 2.297 . S
O452 C454 1.247 . S
O453 Cd449 2.439 . S
O453 C454 1.208 . S
C454 O452 1.247 . S
C454 O453 1.208 . S
C455 O460 1.247 . S
C455 O461 1.208 1_545 S
C456 O448 1.315 . S
C456 O451 1.279 . S
C457 O458 1.315 . S
C457 O459 1.279 . S
O458 Cd450 2.223 . S
O458 C457 1.315 . S
O459 Cd449 2.240 . S
O459 C457 1.279 . S
O460 Cd450 2.297 1_545 S
O460 C455 1.247 . S
O461 Cd450 2.439 . S
O461 C455 1.208 1_565 S
O462 Cd463 2.223 . S
O462 C470 1.315 . S
Cd463 O462 2.223 . S
Cd463 O466 2.297 . S
Cd463 O467 2.439 . S
Cd463 O473 2.240 . S
Cd464 O465 2.240 . S
Cd464 O472 2.223 . S
Cd464 O474 2.297 1_455 S
Cd464 O475 2.439 . S
O465 Cd464 2.240 . S
O465 C470 1.279 . S
O466 Cd463 2.297 . S
O466 C468 1.247 . S
O467 Cd463 2.439 . S
O467 C468 1.208 . S
C468 O466 1.247 . S
C468 O467 1.208 . S
C469 O474 1.247 . S
C469 O475 1.208 1_655 S
C470 O462 1.315 . S
C470 O465 1.279 . S
C471 O472 1.315 . S
C471 O473 1.279 . S
O472 Cd464 2.223 . S
O472 C471 1.315 . S
O473 Cd463 2.240 . S
O473 C471 1.279 . S
O474 Cd464 2.297 1_655 S
O474 C469 1.247 . S
O475 Cd464 2.439 . S
O475 C469 1.208 1_455 S
O476 Cd477 2.223 . S
O476 C484 1.315 . S
Cd477 O476 2.223 . S
Cd477 O480 2.297 . S
Cd477 O481 2.439 . S
Cd477 O487 2.240 . S
Cd478 O479 2.240 . S
Cd478 O486 2.223 . S
Cd478 O488 2.297 1_545 S
Cd478 O489 2.439 . S
O479 Cd478 2.240 . S
O479 C484 1.279 . S
O480 Cd477 2.297 . S
O480 C482 1.247 . S
O481 Cd477 2.439 . S
O481 C482 1.208 . S
C482 O480 1.247 . S
C482 O481 1.208 . S
C483 O488 1.247 . S
C483 O489 1.208 1_565 S
C484 O476 1.315 . S
C484 O479 1.279 . S
C485 O486 1.315 . S
C485 O487 1.279 . S
O486 Cd478 2.223 . S
O486 C485 1.315 . S
O487 Cd477 2.240 . S
O487 C485 1.279 . S
O488 Cd478 2.297 1_565 S
O488 C483 1.247 . S
O489 Cd478 2.439 . S
O489 C483 1.208 1_545 S
O490 Cd491 2.223 . S
O490 C498 1.315 . S
Cd491 O490 2.223 . S
Cd491 O494 2.297 . S
Cd491 O495 2.439 . S
Cd491 O501 2.240 . S
Cd492 O493 2.240 . S
Cd492 O500 2.223 . S
Cd492 O502 2.297 1_655 S
Cd492 O503 2.439 . S
O493 Cd492 2.240 . S
O493 C498 1.279 . S
O494 Cd491 2.297 . S
O494 C496 1.247 . S
O495 Cd491 2.439 . S
O495 C496 1.208 . S
C496 O494 1.247 . S
C496 O495 1.208 . S
C497 O502 1.247 . S
C497 O503 1.208 1_455 S
C498 O490 1.315 . S
C498 O493 1.279 . S
C499 O500 1.315 . S
C499 O501 1.279 . S
O500 Cd492 2.223 . S
O500 C499 1.315 . S
O501 Cd491 2.240 . S
O501 C499 1.279 . S
O502 Cd492 2.297 1_455 S
O502 C497 1.247 . S
O503 Cd492 2.439 . S
O503 C497 1.208 1_655 S
O504 Cd505 2.223 . S
O504 C512 1.315 . S
Cd505 O504 2.223 . S
Cd505 O508 2.297 . S
Cd505 O509 2.439 . S
Cd505 O515 2.240 . S
Cd506 O507 2.240 . S
Cd506 O514 2.223 . S
Cd506 O516 2.297 1_545 S
Cd506 O517 2.439 . S
O507 Cd506 2.240 . S
O507 C512 1.279 . S
O508 Cd505 2.297 . S
O508 C510 1.247 . S
O509 Cd505 2.439 . S
O509 C510 1.208 . S
C510 O508 1.247 . S
C510 O509 1.208 . S
C511 O516 1.247 . S
C511 O517 1.208 1_565 S
C512 O504 1.315 . S
C512 O507 1.279 . S
C513 O514 1.315 . S
C513 O515 1.279 . S
O514 Cd506 2.223 . S
O514 C513 1.315 . S
O515 Cd505 2.240 . S
O515 C513 1.279 . S
O516 Cd506 2.297 1_565 S
O516 C511 1.247 . S
O517 Cd506 2.439 . S
O517 C511 1.208 1_545 S
O518 Cd519 2.223 . S
O518 C526 1.315 . S
Cd519 O518 2.223 . S
Cd519 O522 2.297 . S
Cd519 O523 2.439 . S
Cd519 O529 2.240 . S
Cd520 O521 2.240 . S
Cd520 O528 2.223 . S
Cd520 O530 2.297 1_655 S
Cd520 O531 2.439 . S
O521 Cd520 2.240 . S
O521 C526 1.279 . S
O522 Cd519 2.297 . S
O522 C524 1.247 . S
O523 Cd519 2.439 . S
O523 C524 1.208 . S
C524 O522 1.247 . S
C524 O523 1.208 . S
C525 O530 1.247 . S
C525 O531 1.208 1_455 S
C526 O518 1.315 . S
C526 O521 1.279 . S
C527 O528 1.315 . S
C527 O529 1.279 . S
O528 Cd520 2.223 . S
O528 C527 1.315 . S
O529 Cd519 2.240 . S
O529 C527 1.279 . S
O530 Cd520 2.297 1_455 S
O530 C525 1.247 . S
O531 Cd520 2.439 . S
O531 C525 1.208 1_655 S
O532 Cd533 2.223 . S
O532 C540 1.315 . S
Cd533 O532 2.223 . S
Cd533 O536 2.297 . S
Cd533 O537 2.439 . S
Cd533 O543 2.240 . S
Cd534 O535 2.240 . S
Cd534 O542 2.223 . S
Cd534 O544 2.297 1_565 S
Cd534 O545 2.439 . S
O535 Cd534 2.240 . S
O535 C540 1.279 . S
O536 Cd533 2.297 . S
O536 C538 1.247 . S
O537 Cd533 2.439 . S
O537 C538 1.208 . S
C538 O536 1.247 . S
C538 O537 1.208 . S
C539 O544 1.247 . S
C539 O545 1.208 1_545 S
C540 O532 1.315 . S
C540 O535 1.279 . S
C541 O542 1.315 . S
C541 O543 1.279 . S
O542 Cd534 2.223 . S
O542 C541 1.315 . S
O543 Cd533 2.240 . S
O543 C541 1.279 . S
O544 Cd534 2.297 1_545 S
O544 C539 1.247 . S
O545 Cd534 2.439 . S
O545 C539 1.208 1_565 S
O546 Cd547 2.223 . S
O546 C554 1.315 . S
Cd547 O546 2.223 . S
Cd547 O550 2.297 . S
Cd547 O551 2.439 . S
Cd547 O557 2.240 . S
Cd548 O549 2.240 . S
Cd548 O556 2.223 . S
Cd548 O558 2.297 1_455 S
Cd548 O559 2.439 . S
O549 Cd548 2.240 . S
O549 C554 1.279 . S
O550 Cd547 2.297 . S
O550 C552 1.247 . S
O551 Cd547 2.439 . S
O551 C552 1.208 . S
C552 O550 1.247 . S
C552 O551 1.208 . S
C553 O558 1.247 . S
C553 O559 1.208 1_655 S
C554 O546 1.315 . S
C554 O549 1.279 . S
C555 O556 1.315 . S
C555 O557 1.279 . S
O556 Cd548 2.223 . S
O556 C555 1.315 . S
O557 Cd547 2.240 . S
O557 C555 1.279 . S
O558 Cd548 2.297 1_655 S
O558 C553 1.247 . S
O559 Cd548 2.439 . S
O559 C553 1.208 1_455 S
O560 Cd561 2.223 . S
O560 C568 1.315 . S
Cd561 O560 2.223 . S
Cd561 O564 2.297 1_556 S
Cd561 O565 2.439 . S
Cd561 O571 2.240 . S
Cd562 O563 2.240 . S
Cd562 O570 2.223 . S
Cd562 O572 2.297 . S
Cd562 O573 2.439 . S
O563 Cd562 2.240 . S
O563 C568 1.279 . S
O564 Cd561 2.297 1_554 S
O564 C566 1.247 . S
O565 Cd561 2.439 . S
O565 C566 1.208 1_556 S
C566 O564 1.247 . S
C566 O565 1.208 1_554 S
C567 O572 1.247 . S
C567 O573 1.208 . S
C568 O560 1.315 . S
C568 O563 1.279 . S
C569 O570 1.315 . S
C569 O571 1.279 . S
O570 Cd562 2.223 . S
O570 C569 1.315 . S
O571 Cd561 2.240 . S
O571 C569 1.279 . S
O572 Cd562 2.297 . S
O572 C567 1.247 . S
O573 Cd562 2.439 . S
O573 C567 1.208 . S
O574 Cd575 2.223 . S
O574 C582 1.315 . S
Cd575 O574 2.223 . S
Cd575 O578 2.297 1_554 S
Cd575 O579 2.439 . S
Cd575 O585 2.240 . S
Cd576 O577 2.240 . S
Cd576 O584 2.223 . S
Cd576 O586 2.297 . S
Cd576 O587 2.439 . S
O577 Cd576 2.240 . S
O577 C582 1.279 . S
O578 Cd575 2.297 1_556 S
O578 C580 1.247 . S
O579 Cd575 2.439 . S
O579 C580 1.208 1_554 S
C580 O578 1.247 . S
C580 O579 1.208 1_556 S
C581 O586 1.247 . S
C581 O587 1.208 . S
C582 O574 1.315 . S
C582 O577 1.279 . S
C583 O584 1.315 . S
C583 O585 1.279 . S
O584 Cd576 2.223 . S
O584 C583 1.315 . S
O585 Cd575 2.240 . S
O585 C583 1.279 . S
O586 Cd576 2.297 . S
O586 C581 1.247 . S
O587 Cd576 2.439 . S
O587 C581 1.208 . S
O588 Cd589 2.223 . S
O588 C596 1.315 . S
Cd589 O588 2.223 . S
Cd589 O592 2.297 . S
Cd589 O593 2.439 . S
Cd589 O599 2.240 . S
Cd590 O591 2.240 . S
Cd590 O598 2.223 . S
Cd590 O600 2.297 1_554 S
Cd590 O601 2.439 . S
O591 Cd590 2.240 . S
O591 C596 1.279 . S
O592 Cd589 2.297 . S
O592 C594 1.247 . S
O593 Cd589 2.439 . S
O593 C594 1.208 . S
C594 O592 1.247 . S
C594 O593 1.208 . S
C595 O600 1.247 . S
C595 O601 1.208 1_556 S
C596 O588 1.315 . S
C596 O591 1.279 . S
C597 O598 1.315 . S
C597 O599 1.279 . S
O598 Cd590 2.223 . S
O598 C597 1.315 . S
O599 Cd589 2.240 . S
O599 C597 1.279 . S
O600 Cd590 2.297 1_556 S
O600 C595 1.247 . S
O601 Cd590 2.439 . S
O601 C595 1.208 1_554 S
O602 Cd603 2.223 . S
O602 C610 1.315 . S
Cd603 O602 2.223 . S
Cd603 O606 2.297 1_554 S
Cd603 O607 2.439 . S
Cd603 O613 2.240 . S
Cd604 O605 2.240 . S
Cd604 O612 2.223 . S
Cd604 O614 2.297 . S
Cd604 O615 2.439 . S
O605 Cd604 2.240 . S
O605 C610 1.279 . S
O606 Cd603 2.297 1_556 S
O606 C608 1.247 . S
O607 Cd603 2.439 . S
O607 C608 1.208 1_554 S
C608 O606 1.247 . S
C608 O607 1.208 1_556 S
C609 O614 1.247 . S
C609 O615 1.208 . S
C610 O602 1.315 . S
C610 O605 1.279 . S
C611 O612 1.315 . S
C611 O613 1.279 . S
O612 Cd604 2.223 . S
O612 C611 1.315 . S
O613 Cd603 2.240 . S
O613 C611 1.279 . S
O614 Cd604 2.297 . S
O614 C609 1.247 . S
O615 Cd604 2.439 . S
O615 C609 1.208 . S
O616 Cd617 2.223 . S
O616 C624 1.315 . S
Cd617 O616 2.223 . S
Cd617 O620 2.297 . S
Cd617 O621 2.439 . S
Cd617 O627 2.240 . S
Cd618 O619 2.240 . S
Cd618 O626 2.223 . S
Cd618 O628 2.297 1_554 S
Cd618 O629 2.439 . S
O619 Cd618 2.240 . S
O619 C624 1.279 . S
O620 Cd617 2.297 . S
O620 C622 1.247 . S
O621 Cd617 2.439 . S
O621 C622 1.208 . S
C622 O620 1.247 . S
C622 O621 1.208 . S
C623 O628 1.247 . S
C623 O629 1.208 1_556 S
C624 O616 1.315 . S
C624 O619 1.279 . S
C625 O626 1.315 . S
C625 O627 1.279 . S
O626 Cd618 2.223 . S
O626 C625 1.315 . S
O627 Cd617 2.240 . S
O627 C625 1.279 . S
O628 Cd618 2.297 1_556 S
O628 C623 1.247 . S
O629 Cd618 2.439 . S
O629 C623 1.208 1_554 S
O630 Cd631 2.223 . S
O630 C638 1.315 . S
Cd631 O630 2.223 . S
Cd631 O634 2.297 1_556 S
Cd631 O635 2.439 . S
Cd631 O641 2.240 . S
Cd632 O633 2.240 . S
Cd632 O640 2.223 . S
Cd632 O642 2.297 . S
Cd632 O643 2.439 . S
O633 Cd632 2.240 . S
O633 C638 1.279 . S
O634 Cd631 2.297 1_554 S
O634 C636 1.247 . S
O635 Cd631 2.439 . S
O635 C636 1.208 1_556 S
C636 O634 1.247 . S
C636 O635 1.208 1_554 S
C637 O642 1.247 . S
C637 O643 1.208 . S
C638 O630 1.315 . S
C638 O633 1.279 . S
C639 O640 1.315 . S
C639 O641 1.279 . S
O640 Cd632 2.223 . S
O640 C639 1.315 . S
O641 Cd631 2.240 . S
O641 C639 1.279 . S
O642 Cd632 2.297 . S
O642 C637 1.247 . S
O643 Cd632 2.439 . S
O643 C637 1.208 . S
O644 Cd645 2.223 . S
O644 C652 1.315 . S
Cd645 O644 2.223 . S
Cd645 O648 2.297 . S
Cd645 O649 2.439 . S
Cd645 O655 2.240 . S
Cd646 O647 2.240 . S
Cd646 O654 2.223 . S
Cd646 O656 2.297 1_556 S
Cd646 O657 2.439 . S
O647 Cd646 2.240 . S
O647 C652 1.279 . S
O648 Cd645 2.297 . S
O648 C650 1.247 . S
O649 Cd645 2.439 . S
O649 C650 1.208 . S
C650 O648 1.247 . S
C650 O649 1.208 . S
C651 O656 1.247 . S
C651 O657 1.208 1_554 S
C652 O644 1.315 . S
C652 O647 1.279 . S
C653 O654 1.315 . S
C653 O655 1.279 . S
O654 Cd646 2.223 . S
O654 C653 1.315 . S
O655 Cd645 2.240 . S
O655 C653 1.279 . S
O656 Cd646 2.297 1_554 S
O656 C651 1.247 . S
O657 Cd646 2.439 . S
O657 C651 1.208 1_556 S
O658 Cd659 2.223 . S
O658 C666 1.315 . S
Cd659 O658 2.223 . S
Cd659 O662 2.297 . S
Cd659 O663 2.439 . S
Cd659 O669 2.240 . S
Cd660 O661 2.240 . S
Cd660 O668 2.223 . S
Cd660 O670 2.297 1_556 S
Cd660 O671 2.439 . S
O661 Cd660 2.240 . S
O661 C666 1.279 . S
O662 Cd659 2.297 . S
O662 C664 1.247 . S
O663 Cd659 2.439 . S
O663 C664 1.208 . S
C664 O662 1.247 . S
C664 O663 1.208 . S
C665 O670 1.247 . S
C665 O671 1.208 1_554 S
C666 O658 1.315 . S
C666 O661 1.279 . S
C667 O668 1.315 . S
C667 O669 1.279 . S
O668 Cd660 2.223 . S
O668 C667 1.315 . S
O669 Cd659 2.240 . S
O669 C667 1.279 . S
O670 Cd660 2.297 1_554 S
O670 C665 1.247 . S
O671 Cd660 2.439 . S
O671 C665 1.208 1_556 S
O672 Cd673 2.223 . S
O672 C680 1.315 . S
Cd673 O672 2.223 . S
Cd673 O676 2.297 . S
Cd673 O677 2.439 . S
Cd673 O683 2.240 . S
Cd674 O675 2.240 . S
Cd674 O682 2.223 . S
Cd674 O684 2.297 . S
Cd674 O685 2.439 . S
O675 Cd674 2.240 . S
O675 C680 1.279 . S
O676 Cd673 2.297 . S
O676 C678 1.247 . S
O677 Cd673 2.439 . S
O677 C678 1.208 . S
C678 O676 1.247 . S
C678 O677 1.208 . S
C679 O684 1.247 . S
C679 O685 1.208 . S
C680 O672 1.315 . S
C680 O675 1.279 . S
C681 O682 1.315 . S
C681 O683 1.279 . S
O682 Cd674 2.223 . S
O682 C681 1.315 . S
O683 Cd673 2.240 . S
O683 C681 1.279 . S
O684 Cd674 2.297 . S
O684 C679 1.247 . S
O685 Cd674 2.439 . S
O685 C679 1.208 . S
O686 Cd687 2.223 . S
O686 C694 1.315 . S
Cd687 O686 2.223 . S
Cd687 O690 2.297 . S
Cd687 O691 2.439 . S
Cd687 O697 2.240 . S
Cd688 O689 2.240 . S
Cd688 O696 2.223 . S
Cd688 O698 2.297 . S
Cd688 O699 2.439 . S
O689 Cd688 2.240 . S
O689 C694 1.279 . S
O690 Cd687 2.297 . S
O690 C692 1.247 . S
O691 Cd687 2.439 . S
O691 C692 1.208 . S
C692 O690 1.247 . S
C692 O691 1.208 . S
C693 O698 1.247 . S
C693 O699 1.208 . S
C694 O686 1.315 . S
C694 O689 1.279 . S
C695 O696 1.315 . S
C695 O697 1.279 . S
O696 Cd688 2.223 . S
O696 C695 1.315 . S
O697 Cd687 2.240 . S
O697 C695 1.279 . S
O698 Cd688 2.297 . S
O698 C693 1.247 . S
O699 Cd688 2.439 . S
O699 C693 1.208 . S
O700 Cd701 2.223 . S
O700 C708 1.315 . S
Cd701 O700 2.223 . S
Cd701 O704 2.297 . S
Cd701 O705 2.439 . S
Cd701 O711 2.240 . S
Cd702 O703 2.240 . S
Cd702 O710 2.223 . S
Cd702 O712 2.297 . S
Cd702 O713 2.439 . S
O703 Cd702 2.240 . S
O703 C708 1.279 . S
O704 Cd701 2.297 . S
O704 C706 1.247 . S
O705 Cd701 2.439 . S
O705 C706 1.208 . S
C706 O704 1.247 . S
C706 O705 1.208 . S
C707 O712 1.247 . S
C707 O713 1.208 . S
C708 O700 1.315 . S
C708 O703 1.279 . S
C709 O710 1.315 . S
C709 O711 1.279 . S
O710 Cd702 2.223 . S
O710 C709 1.315 . S
O711 Cd701 2.240 . S
O711 C709 1.279 . S
O712 Cd702 2.297 . S
O712 C707 1.247 . S
O713 Cd702 2.439 . S
O713 C707 1.208 . S
O714 Cd715 2.223 . S
O714 C722 1.315 . S
Cd715 O714 2.223 . S
Cd715 O718 2.297 . S
Cd715 O719 2.439 . S
Cd715 O725 2.240 . S
Cd716 O717 2.240 . S
Cd716 O724 2.223 . S
Cd716 O726 2.297 . S
Cd716 O727 2.439 . S
O717 Cd716 2.240 . S
O717 C722 1.279 . S
O718 Cd715 2.297 . S
O718 C720 1.247 . S
O719 Cd715 2.439 . S
O719 C720 1.208 . S
C720 O718 1.247 . S
C720 O719 1.208 . S
C721 O726 1.247 . S
C721 O727 1.208 . S
C722 O714 1.315 . S
C722 O717 1.279 . S
C723 O724 1.315 . S
C723 O725 1.279 . S
O724 Cd716 2.223 . S
O724 C723 1.315 . S
O725 Cd715 2.240 . S
O725 C723 1.279 . S
O726 Cd716 2.297 . S
O726 C721 1.247 . S
O727 Cd716 2.439 . S
O727 C721 1.208 . S
O728 Cd729 2.223 . S
O728 C736 1.315 . S
Cd729 O728 2.223 . S
Cd729 O732 2.297 . S
Cd729 O733 2.439 . S
Cd729 O739 2.240 . S
Cd730 O731 2.240 . S
Cd730 O738 2.223 . S
Cd730 O740 2.297 . S
Cd730 O741 2.439 . S
O731 Cd730 2.240 . S
O731 C736 1.279 . S
O732 Cd729 2.297 . S
O732 C734 1.247 . S
O733 Cd729 2.439 . S
O733 C734 1.208 . S
C734 O732 1.247 . S
C734 O733 1.208 . S
C735 O740 1.247 . S
C735 O741 1.208 . S
C736 O728 1.315 . S
C736 O731 1.279 . S
C737 O738 1.315 . S
C737 O739 1.279 . S
O738 Cd730 2.223 . S
O738 C737 1.315 . S
O739 Cd729 2.240 . S
O739 C737 1.279 . S
O740 Cd730 2.297 . S
O740 C735 1.247 . S
O741 Cd730 2.439 . S
O741 C735 1.208 . S
O742 Cd743 2.223 . S
O742 C750 1.315 . S
Cd743 O742 2.223 . S
Cd743 O746 2.297 . S
Cd743 O747 2.439 . S
Cd743 O753 2.240 . S
Cd744 O745 2.240 . S
Cd744 O752 2.223 . S
Cd744 O754 2.297 . S
Cd744 O755 2.439 . S
O745 Cd744 2.240 . S
O745 C750 1.279 . S
O746 Cd743 2.297 . S
O746 C748 1.247 . S
O747 Cd743 2.439 . S
O747 C748 1.208 . S
C748 O746 1.247 . S
C748 O747 1.208 . S
C749 O754 1.247 . S
C749 O755 1.208 . S
C750 O742 1.315 . S
C750 O745 1.279 . S
C751 O752 1.315 . S
C751 O753 1.279 . S
O752 Cd744 2.223 . S
O752 C751 1.315 . S
O753 Cd743 2.240 . S
O753 C751 1.279 . S
O754 Cd744 2.297 . S
O754 C749 1.247 . S
O755 Cd744 2.439 . S
O755 C749 1.208 . S
O756 Cd757 2.223 . S
O756 C764 1.315 . S
Cd757 O756 2.223 . S
Cd757 O760 2.297 . S
Cd757 O761 2.439 . S
Cd757 O767 2.240 . S
Cd758 O759 2.240 . S
Cd758 O766 2.223 . S
Cd758 O768 2.297 . S
Cd758 O769 2.439 . S
O759 Cd758 2.240 . S
O759 C764 1.279 . S
O760 Cd757 2.297 . S
O760 C762 1.247 . S
O761 Cd757 2.439 . S
O761 C762 1.208 . S
C762 O760 1.247 . S
C762 O761 1.208 . S
C763 O768 1.247 . S
C763 O769 1.208 . S
C764 O756 1.315 . S
C764 O759 1.279 . S
C765 O766 1.315 . S
C765 O767 1.279 . S
O766 Cd758 2.223 . S
O766 C765 1.315 . S
O767 Cd757 2.240 . S
O767 C765 1.279 . S
O768 Cd758 2.297 . S
O768 C763 1.247 . S
O769 Cd758 2.439 . S
O769 C763 1.208 . S
O770 Cd771 2.223 . S
O770 C778 1.315 . S
Cd771 O770 2.223 . S
Cd771 O774 2.297 . S
Cd771 O775 2.439 . S
Cd771 O781 2.240 . S
Cd772 O773 2.240 . S
Cd772 O780 2.223 . S
Cd772 O782 2.297 . S
Cd772 O783 2.439 . S
O773 Cd772 2.240 . S
O773 C778 1.279 . S
O774 Cd771 2.297 . S
O774 C776 1.247 . S
O775 Cd771 2.439 . S
O775 C776 1.208 . S
C776 O774 1.247 . S
C776 O775 1.208 . S
C777 O782 1.247 . S
C777 O783 1.208 . S
C778 O770 1.315 . S
C778 O773 1.279 . S
C779 O780 1.315 . S
C779 O781 1.279 . S
O780 Cd772 2.223 . S
O780 C779 1.315 . S
O781 Cd771 2.240 . S
O781 C779 1.279 . S
O782 Cd772 2.297 . S
O782 C777 1.247 . S
O783 Cd772 2.439 . S
O783 C777 1.208 . S
O784 Cd785 2.223 . S
O784 C792 1.315 . S
Cd785 O784 2.223 . S
Cd785 O788 2.297 . S
Cd785 O789 2.439 . S
Cd785 O795 2.240 . S
Cd786 O787 2.240 . S
Cd786 O794 2.223 . S
Cd786 O796 2.297 . S
Cd786 O797 2.439 . S
O787 Cd786 2.240 . S
O787 C792 1.279 . S
O788 Cd785 2.297 . S
O788 C790 1.247 . S
O789 Cd785 2.439 . S
O789 C790 1.208 . S
C790 O788 1.247 . S
C790 O789 1.208 . S
C791 O796 1.247 . S
C791 O797 1.208 . S
C792 O784 1.315 . S
C792 O787 1.279 . S
C793 O794 1.315 . S
C793 O795 1.279 . S
O794 Cd786 2.223 . S
O794 C793 1.315 . S
O795 Cd785 2.240 . S
O795 C793 1.279 . S
O796 Cd786 2.297 . S
O796 C791 1.247 . S
O797 Cd786 2.439 . S
O797 C791 1.208 . S
O798 Cd799 2.223 . S
O798 C806 1.315 . S
Cd799 O798 2.223 . S
Cd799 O802 2.297 . S
Cd799 O803 2.439 . S
Cd799 O809 2.240 . S
Cd800 O801 2.240 . S
Cd800 O808 2.223 . S
Cd800 O810 2.297 . S
Cd800 O811 2.439 . S
O801 Cd800 2.240 . S
O801 C806 1.279 . S
O802 Cd799 2.297 . S
O802 C804 1.247 . S
O803 Cd799 2.439 . S
O803 C804 1.208 . S
C804 O802 1.247 . S
C804 O803 1.208 . S
C805 O810 1.247 . S
C805 O811 1.208 . S
C806 O798 1.315 . S
C806 O801 1.279 . S
C807 O808 1.315 . S
C807 O809 1.279 . S
O808 Cd800 2.223 . S
O808 C807 1.315 . S
O809 Cd799 2.240 . S
O809 C807 1.279 . S
O810 Cd800 2.297 . S
O810 C805 1.247 . S
O811 Cd800 2.439 . S
O811 C805 1.208 . S
O812 Cd813 2.223 . S
O812 C820 1.315 . S
Cd813 O812 2.223 . S
Cd813 O816 2.297 . S
Cd813 O817 2.439 . S
Cd813 O823 2.240 . S
Cd814 O815 2.240 . S
Cd814 O822 2.223 . S
Cd814 O824 2.297 . S
Cd814 O825 2.439 . S
O815 Cd814 2.240 . S
O815 C820 1.279 . S
O816 Cd813 2.297 . S
O816 C818 1.247 . S
O817 Cd813 2.439 . S
O817 C818 1.208 . S
C818 O816 1.247 . S
C818 O817 1.208 . S
C819 O824 1.247 . S
C819 O825 1.208 . S
C820 O812 1.315 . S
C820 O815 1.279 . S
C821 O822 1.315 . S
C821 O823 1.279 . S
O822 Cd814 2.223 . S
O822 C821 1.315 . S
O823 Cd813 2.240 . S
O823 C821 1.279 . S
O824 Cd814 2.297 . S
O824 C819 1.247 . S
O825 Cd814 2.439 . S
O825 C819 1.208 . S
O826 Cd827 2.223 . S
O826 C834 1.315 . S
Cd827 O826 2.223 . S
Cd827 O830 2.297 . S
Cd827 O831 2.439 . S
Cd827 O837 2.240 . S
Cd828 O829 2.240 . S
Cd828 O836 2.223 . S
Cd828 O838 2.297 . S
Cd828 O839 2.439 . S
O829 Cd828 2.240 . S
O829 C834 1.279 . S
O830 Cd827 2.297 . S
O830 C832 1.247 . S
O831 Cd827 2.439 . S
O831 C832 1.208 . S
C832 O830 1.247 . S
C832 O831 1.208 . S
C833 O838 1.247 . S
C833 O839 1.208 . S
C834 O826 1.315 . S
C834 O829 1.279 . S
C835 O836 1.315 . S
C835 O837 1.279 . S
O836 Cd828 2.223 . S
O836 C835 1.315 . S
O837 Cd827 2.240 . S
O837 C835 1.279 . S
O838 Cd828 2.297 . S
O838 C833 1.247 . S
O839 Cd828 2.439 . S
O839 C833 1.208 . S
O840 Cd841 2.223 . S
O840 C848 1.315 . S
Cd841 O840 2.223 . S
Cd841 O844 2.297 . S
Cd841 O845 2.439 . S
Cd841 O851 2.240 . S
Cd842 O843 2.240 . S
Cd842 O850 2.223 . S
Cd842 O852 2.297 . S
Cd842 O853 2.439 . S
O843 Cd842 2.240 . S
O843 C848 1.279 . S
O844 Cd841 2.297 . S
O844 C846 1.247 . S
O845 Cd841 2.439 . S
O845 C846 1.208 . S
C846 O844 1.247 . S
C846 O845 1.208 . S
C847 O852 1.247 . S
C847 O853 1.208 . S
C848 O840 1.315 . S
C848 O843 1.279 . S
C849 O850 1.315 . S
C849 O851 1.279 . S
O850 Cd842 2.223 . S
O850 C849 1.315 . S
O851 Cd841 2.240 . S
O851 C849 1.279 . S
O852 Cd842 2.297 . S
O852 C847 1.247 . S
O853 Cd842 2.439 . S
O853 C847 1.208 . S
O854 Cd855 2.223 . S
O854 C862 1.315 . S
Cd855 O854 2.223 . S
Cd855 O858 2.297 . S
Cd855 O859 2.439 . S
Cd855 O865 2.240 . S
Cd856 O857 2.240 . S
Cd856 O864 2.223 . S
Cd856 O866 2.297 . S
Cd856 O867 2.439 . S
O857 Cd856 2.240 . S
O857 C862 1.279 . S
O858 Cd855 2.297 . S
O858 C860 1.247 . S
O859 Cd855 2.439 . S
O859 C860 1.208 . S
C860 O858 1.247 . S
C860 O859 1.208 . S
C861 O866 1.247 . S
C861 O867 1.208 . S
C862 O854 1.315 . S
C862 O857 1.279 . S
C863 O864 1.315 . S
C863 O865 1.279 . S
O864 Cd856 2.223 . S
O864 C863 1.315 . S
O865 Cd855 2.240 . S
O865 C863 1.279 . S
O866 Cd856 2.297 . S
O866 C861 1.247 . S
O867 Cd856 2.439 . S
O867 C861 1.208 . S
O868 Cd869 2.223 . S
O868 C876 1.315 . S
Cd869 O868 2.223 . S
Cd869 O872 2.297 . S
Cd869 O873 2.439 . S
Cd869 O879 2.240 . S
Cd870 O871 2.240 . S
Cd870 O878 2.223 . S
Cd870 O880 2.297 . S
Cd870 O881 2.439 . S
O871 Cd870 2.240 . S
O871 C876 1.279 . S
O872 Cd869 2.297 . S
O872 C874 1.247 . S
O873 Cd869 2.439 . S
O873 C874 1.208 . S
C874 O872 1.247 . S
C874 O873 1.208 . S
C875 O880 1.247 . S
C875 O881 1.208 . S
C876 O868 1.315 . S
C876 O871 1.279 . S
C877 O878 1.315 . S
C877 O879 1.279 . S
O878 Cd870 2.223 . S
O878 C877 1.315 . S
O879 Cd869 2.240 . S
O879 C877 1.279 . S
O880 Cd870 2.297 . S
O880 C875 1.247 . S
O881 Cd870 2.439 . S
O881 C875 1.208 . S
O882 Cd883 2.223 . S
O882 C890 1.315 . S
Cd883 O882 2.223 . S
Cd883 O886 2.297 . S
Cd883 O887 2.439 . S
Cd883 O893 2.240 . S
Cd884 O885 2.240 . S
Cd884 O892 2.223 . S
Cd884 O894 2.297 . S
Cd884 O895 2.439 . S
O885 Cd884 2.240 . S
O885 C890 1.279 . S
O886 Cd883 2.297 . S
O886 C888 1.247 . S
O887 Cd883 2.439 . S
O887 C888 1.208 . S
C888 O886 1.247 . S
C888 O887 1.208 . S
C889 O894 1.247 . S
C889 O895 1.208 . S
C890 O882 1.315 . S
C890 O885 1.279 . S
C891 O892 1.315 . S
C891 O893 1.279 . S
O892 Cd884 2.223 . S
O892 C891 1.315 . S
O893 Cd883 2.240 . S
O893 C891 1.279 . S
O894 Cd884 2.297 . S
O894 C889 1.247 . S
O895 Cd884 2.439 . S
O895 C889 1.208 . S
O896 Cd897 2.223 . S
O896 C904 1.315 . S
Cd897 O896 2.223 . S
Cd897 O900 2.297 . S
Cd897 O901 2.439 . S
Cd897 O907 2.240 . S
Cd898 O899 2.240 . S
Cd898 O906 2.223 . S
Cd898 O908 2.297 . S
Cd898 O909 2.439 . S
O899 Cd898 2.240 . S
O899 C904 1.279 . S
O900 Cd897 2.297 . S
O900 C902 1.247 . S
O901 Cd897 2.439 . S
O901 C902 1.208 . S
C902 O900 1.247 . S
C902 O901 1.208 . S
C903 O908 1.247 . S
C903 O909 1.208 . S
C904 O896 1.315 . S
C904 O899 1.279 . S
C905 O906 1.315 . S
C905 O907 1.279 . S
O906 Cd898 2.223 . S
O906 C905 1.315 . S
O907 Cd897 2.240 . S
O907 C905 1.279 . S
O908 Cd898 2.297 . S
O908 C903 1.247 . S
O909 Cd898 2.439 . S
O909 C903 1.208 . S
O910 Cd911 2.223 . S
O910 C918 1.315 . S
Cd911 O910 2.223 . S
Cd911 O914 2.297 . S
Cd911 O915 2.439 . S
Cd911 O921 2.240 . S
Cd912 O913 2.240 . S
Cd912 O920 2.223 . S
Cd912 O922 2.297 . S
Cd912 O923 2.439 . S
O913 Cd912 2.240 . S
O913 C918 1.279 . S
O914 Cd911 2.297 . S
O914 C916 1.247 . S
O915 Cd911 2.439 . S
O915 C916 1.208 . S
C916 O914 1.247 . S
C916 O915 1.208 . S
C917 O922 1.247 . S
C917 O923 1.208 . S
C918 O910 1.315 . S
C918 O913 1.279 . S
C919 O920 1.315 . S
C919 O921 1.279 . S
O920 Cd912 2.223 . S
O920 C919 1.315 . S
O921 Cd911 2.240 . S
O921 C919 1.279 . S
O922 Cd912 2.297 . S
O922 C917 1.247 . S
O923 Cd912 2.439 . S
O923 C917 1.208 . S
O924 Cd925 2.223 . S
O924 C932 1.315 . S
Cd925 O924 2.223 . S
Cd925 O928 2.297 . S
Cd925 O929 2.439 . S
Cd925 O935 2.240 . S
Cd926 O927 2.240 . S
Cd926 O934 2.223 . S
Cd926 O936 2.297 . S
Cd926 O937 2.439 . S
O927 Cd926 2.240 . S
O927 C932 1.279 . S
O928 Cd925 2.297 . S
O928 C930 1.247 . S
O929 Cd925 2.439 . S
O929 C930 1.208 . S
C930 O928 1.247 . S
C930 O929 1.208 . S
C931 O936 1.247 . S
C931 O937 1.208 . S
C932 O924 1.315 . S
C932 O927 1.279 . S
C933 O934 1.315 . S
C933 O935 1.279 . S
O934 Cd926 2.223 . S
O934 C933 1.315 . S
O935 Cd925 2.240 . S
O935 C933 1.279 . S
O936 Cd926 2.297 . S
O936 C931 1.247 . S
O937 Cd926 2.439 . S
O937 C931 1.208 . S
O938 Cd939 2.223 . S
O938 C946 1.315 . S
Cd939 O938 2.223 . S
Cd939 O942 2.297 . S
Cd939 O943 2.439 . S
Cd939 O949 2.240 . S
Cd940 O941 2.240 . S
Cd940 O948 2.223 . S
Cd940 O950 2.297 . S
Cd940 O951 2.439 . S
O941 Cd940 2.240 . S
O941 C946 1.279 . S
O942 Cd939 2.297 . S
O942 C944 1.247 . S
O943 Cd939 2.439 . S
O943 C944 1.208 . S
C944 O942 1.247 . S
C944 O943 1.208 . S
C945 O950 1.247 . S
C945 O951 1.208 . S
C946 O938 1.315 . S
C946 O941 1.279 . S
C947 O948 1.315 . S
C947 O949 1.279 . S
O948 Cd940 2.223 . S
O948 C947 1.315 . S
O949 Cd939 2.240 . S
O949 C947 1.279 . S
O950 Cd940 2.297 . S
O950 C945 1.247 . S
O951 Cd940 2.439 . S
O951 C945 1.208 . S
O952 Cd953 2.223 . S
O952 C960 1.315 . S
Cd953 O952 2.223 . S
Cd953 O956 2.297 . S
Cd953 O957 2.439 . S
Cd953 O963 2.240 . S
Cd954 O955 2.240 . S
Cd954 O962 2.223 . S
Cd954 O964 2.297 . S
Cd954 O965 2.439 . S
O955 Cd954 2.240 . S
O955 C960 1.279 . S
O956 Cd953 2.297 . S
O956 C958 1.247 . S
O957 Cd953 2.439 . S
O957 C958 1.208 . S
C958 O956 1.247 . S
C958 O957 1.208 . S
C959 O964 1.247 . S
C959 O965 1.208 . S
C960 O952 1.315 . S
C960 O955 1.279 . S
C961 O962 1.315 . S
C961 O963 1.279 . S
O962 Cd954 2.223 . S
O962 C961 1.315 . S
O963 Cd953 2.240 . S
O963 C961 1.279 . S
O964 Cd954 2.297 . S
O964 C959 1.247 . S
O965 Cd954 2.439 . S
O965 C959 1.208 . S
O966 Cd967 2.223 . S
O966 C974 1.315 . S
Cd967 O966 2.223 . S
Cd967 O970 2.297 . S
Cd967 O971 2.439 . S
Cd967 O977 2.240 . S
Cd968 O969 2.240 . S
Cd968 O976 2.223 . S
Cd968 O978 2.297 . S
Cd968 O979 2.439 . S
O969 Cd968 2.240 . S
O969 C974 1.279 . S
O970 Cd967 2.297 . S
O970 C972 1.247 . S
O971 Cd967 2.439 . S
O971 C972 1.208 . S
C972 O970 1.247 . S
C972 O971 1.208 . S
C973 O978 1.247 . S
C973 O979 1.208 . S
C974 O966 1.315 . S
C974 O969 1.279 . S
C975 O976 1.315 . S
C975 O977 1.279 . S
O976 Cd968 2.223 . S
O976 C975 1.315 . S
O977 Cd967 2.240 . S
O977 C975 1.279 . S
O978 Cd968 2.297 . S
O978 C973 1.247 . S
O979 Cd968 2.439 . S
O979 C973 1.208 . S
O980 Cd981 2.223 . S
O980 C988 1.315 . S
Cd981 O980 2.223 . S
Cd981 O984 2.297 . S
Cd981 O985 2.439 . S
Cd981 O991 2.240 . S
Cd982 O983 2.240 . S
Cd982 O990 2.223 . S
Cd982 O992 2.297 . S
Cd982 O993 2.439 . S
O983 Cd982 2.240 . S
O983 C988 1.279 . S
O984 Cd981 2.297 . S
O984 C986 1.247 . S
O985 Cd981 2.439 . S
O985 C986 1.208 . S
C986 O984 1.247 . S
C986 O985 1.208 . S
C987 O992 1.247 . S
C987 O993 1.208 . S
C988 O980 1.315 . S
C988 O983 1.279 . S
C989 O990 1.315 . S
C989 O991 1.279 . S
O990 Cd982 2.223 . S
O990 C989 1.315 . S
O991 Cd981 2.240 . S
O991 C989 1.279 . S
O992 Cd982 2.297 . S
O992 C987 1.247 . S
O993 Cd982 2.439 . S
O993 C987 1.208 . S
O994 Cd995 2.223 . S
O994 C1002 1.315 . S
Cd995 O994 2.223 . S
Cd995 O998 2.297 . S
Cd995 O999 2.439 . S
Cd995 O1005 2.240 . S
Cd996 O997 2.240 . S
Cd996 O1004 2.223 . S
Cd996 O1006 2.297 . S
Cd996 O1007 2.439 . S
O997 Cd996 2.240 . S
O997 C1002 1.279 . S
O998 Cd995 2.297 . S
O998 C1000 1.247 . S
O999 Cd995 2.439 . S
O999 C1000 1.208 . S
C1000 O998 1.247 . S
C1000 O999 1.208 . S
C1001 O1006 1.247 . S
C1001 O1007 1.208 . S
C1002 O994 1.315 . S
C1002 O997 1.279 . S
C1003 O1004 1.315 . S
C1003 O1005 1.279 . S
O1004 Cd996 2.223 . S
O1004 C1003 1.315 . S
O1005 Cd995 2.240 . S
O1005 C1003 1.279 . S
O1006 Cd996 2.297 . S
O1006 C1001 1.247 . S
O1007 Cd996 2.439 . S
O1007 C1001 1.208 . S
O1008 Cd1009 2.223 . S
O1008 C1016 1.315 . S
Cd1009 O1008 2.223 . S
Cd1009 O1012 2.297 . S
Cd1009 O1013 2.439 . S
Cd1009 O1019 2.240 . S
Cd1010 O1011 2.240 . S
Cd1010 O1018 2.223 . S
Cd1010 O1020 2.297 . S
Cd1010 O1021 2.439 . S
O1011 Cd1010 2.240 . S
O1011 C1016 1.279 . S
O1012 Cd1009 2.297 . S
O1012 C1014 1.247 . S
O1013 Cd1009 2.439 . S
O1013 C1014 1.208 . S
C1014 O1012 1.247 . S
C1014 O1013 1.208 . S
C1015 O1020 1.247 . S
C1015 O1021 1.208 . S
C1016 O1008 1.315 . S
C1016 O1011 1.279 . S
C1017 O1018 1.315 . S
C1017 O1019 1.279 . S
O1018 Cd1010 2.223 . S
O1018 C1017 1.315 . S
O1019 Cd1009 2.240 . S
O1019 C1017 1.279 . S
O1020 Cd1010 2.297 . S
O1020 C1015 1.247 . S
O1021 Cd1010 2.439 . S
O1021 C1015 1.208 . S
O1022 Cd1023 2.223 . S
O1022 C1030 1.315 . S
Cd1023 O1022 2.223 . S
Cd1023 O1026 2.297 . S
Cd1023 O1027 2.439 . S
Cd1023 O1033 2.240 . S
Cd1024 O1025 2.240 . S
Cd1024 O1032 2.223 . S
Cd1024 O1034 2.297 . S
Cd1024 O1035 2.439 . S
O1025 Cd1024 2.240 . S
O1025 C1030 1.279 . S
O1026 Cd1023 2.297 . S
O1026 C1028 1.247 . S
O1027 Cd1023 2.439 . S
O1027 C1028 1.208 . S
C1028 O1026 1.247 . S
C1028 O1027 1.208 . S
C1029 O1034 1.247 . S
C1029 O1035 1.208 . S
C1030 O1022 1.315 . S
C1030 O1025 1.279 . S
C1031 O1032 1.315 . S
C1031 O1033 1.279 . S
O1032 Cd1024 2.223 . S
O1032 C1031 1.315 . S
O1033 Cd1023 2.240 . S
O1033 C1031 1.279 . S
O1034 Cd1024 2.297 . S
O1034 C1029 1.247 . S
O1035 Cd1024 2.439 . S
O1035 C1029 1.208 . S
O1036 Cd1037 2.223 . S
O1036 C1044 1.315 . S
Cd1037 O1036 2.223 . S
Cd1037 O1040 2.297 . S
Cd1037 O1041 2.439 . S
Cd1037 O1047 2.240 . S
Cd1038 O1039 2.240 . S
Cd1038 O1046 2.223 . S
Cd1038 O1048 2.297 . S
Cd1038 O1049 2.439 . S
O1039 Cd1038 2.240 . S
O1039 C1044 1.279 . S
O1040 Cd1037 2.297 . S
O1040 C1042 1.247 . S
O1041 Cd1037 2.439 . S
O1041 C1042 1.208 . S
C1042 O1040 1.247 . S
C1042 O1041 1.208 . S
C1043 O1048 1.247 . S
C1043 O1049 1.208 . S
C1044 O1036 1.315 . S
C1044 O1039 1.279 . S
C1045 O1046 1.315 . S
C1045 O1047 1.279 . S
O1046 Cd1038 2.223 . S
O1046 C1045 1.315 . S
O1047 Cd1037 2.240 . S
O1047 C1045 1.279 . S
O1048 Cd1038 2.297 . S
O1048 C1043 1.247 . S
O1049 Cd1038 2.439 . S
O1049 C1043 1.208 . S
O1050 Cd1051 2.223 . S
O1050 C1058 1.315 . S
Cd1051 O1050 2.223 . S
Cd1051 O1054 2.297 . S
Cd1051 O1055 2.439 . S
Cd1051 O1061 2.240 . S
Cd1052 O1053 2.240 . S
Cd1052 O1060 2.223 . S
Cd1052 O1062 2.297 . S
Cd1052 O1063 2.439 . S
O1053 Cd1052 2.240 . S
O1053 C1058 1.279 . S
O1054 Cd1051 2.297 . S
O1054 C1056 1.247 . S
O1055 Cd1051 2.439 . S
O1055 C1056 1.208 . S
C1056 O1054 1.247 . S
C1056 O1055 1.208 . S
C1057 O1062 1.247 . S
C1057 O1063 1.208 . S
C1058 O1050 1.315 . S
C1058 O1053 1.279 . S
C1059 O1060 1.315 . S
C1059 O1061 1.279 . S
O1060 Cd1052 2.223 . S
O1060 C1059 1.315 . S
O1061 Cd1051 2.240 . S
O1061 C1059 1.279 . S
O1062 Cd1052 2.297 . S
O1062 C1057 1.247 . S
O1063 Cd1052 2.439 . S
O1063 C1057 1.208 . S
O1064 Cd1065 2.223 . S
O1064 C1072 1.315 . S
Cd1065 O1064 2.223 . S
Cd1065 O1068 2.297 . S
Cd1065 O1069 2.439 . S
Cd1065 O1075 2.240 . S
Cd1066 O1067 2.240 . S
Cd1066 O1074 2.223 . S
Cd1066 O1076 2.297 . S
Cd1066 O1077 2.439 . S
O1067 Cd1066 2.240 . S
O1067 C1072 1.279 . S
O1068 Cd1065 2.297 . S
O1068 C1070 1.247 . S
O1069 Cd1065 2.439 . S
O1069 C1070 1.208 . S
C1070 O1068 1.247 . S
C1070 O1069 1.208 . S
C1071 O1076 1.247 . S
C1071 O1077 1.208 . S
C1072 O1064 1.315 . S
C1072 O1067 1.279 . S
C1073 O1074 1.315 . S
C1073 O1075 1.279 . S
O1074 Cd1066 2.223 . S
O1074 C1073 1.315 . S
O1075 Cd1065 2.240 . S
O1075 C1073 1.279 . S
O1076 Cd1066 2.297 . S
O1076 C1071 1.247 . S
O1077 Cd1066 2.439 . S
O1077 C1071 1.208 . S
O1078 Cd1079 2.223 . S
O1078 C1086 1.315 . S
Cd1079 O1078 2.223 . S
Cd1079 O1082 2.297 . S
Cd1079 O1083 2.439 . S
Cd1079 O1089 2.240 . S
Cd1080 O1081 2.240 . S
Cd1080 O1088 2.223 . S
Cd1080 O1090 2.297 . S
Cd1080 O1091 2.439 . S
O1081 Cd1080 2.240 . S
O1081 C1086 1.279 . S
O1082 Cd1079 2.297 . S
O1082 C1084 1.247 . S
O1083 Cd1079 2.439 . S
O1083 C1084 1.208 . S
C1084 O1082 1.247 . S
C1084 O1083 1.208 . S
C1085 O1090 1.247 . S
C1085 O1091 1.208 . S
C1086 O1078 1.315 . S
C1086 O1081 1.279 . S
C1087 O1088 1.315 . S
C1087 O1089 1.279 . S
O1088 Cd1080 2.223 . S
O1088 C1087 1.315 . S
O1089 Cd1079 2.240 . S
O1089 C1087 1.279 . S
O1090 Cd1080 2.297 . S
O1090 C1085 1.247 . S
O1091 Cd1080 2.439 . S
O1091 C1085 1.208 . S
O1092 Cd1093 2.223 . S
O1092 C1100 1.315 . S
Cd1093 O1092 2.223 . S
Cd1093 O1096 2.297 . S
Cd1093 O1097 2.439 . S
Cd1093 O1103 2.240 . S
Cd1094 O1095 2.240 . S
Cd1094 O1102 2.223 . S
Cd1094 O1104 2.297 . S
Cd1094 O1105 2.439 . S
O1095 Cd1094 2.240 . S
O1095 C1100 1.279 . S
O1096 Cd1093 2.297 . S
O1096 C1098 1.247 . S
O1097 Cd1093 2.439 . S
O1097 C1098 1.208 . S
C1098 O1096 1.247 . S
C1098 O1097 1.208 . S
C1099 O1104 1.247 . S
C1099 O1105 1.208 . S
C1100 O1092 1.315 . S
C1100 O1095 1.279 . S
C1101 O1102 1.315 . S
C1101 O1103 1.279 . S
O1102 Cd1094 2.223 . S
O1102 C1101 1.315 . S
O1103 Cd1093 2.240 . S
O1103 C1101 1.279 . S
O1104 Cd1094 2.297 . S
O1104 C1099 1.247 . S
O1105 Cd1094 2.439 . S
O1105 C1099 1.208 . S
O1106 Cd1107 2.223 . S
O1106 C1114 1.315 . S
Cd1107 O1106 2.223 . S
Cd1107 O1110 2.297 . S
Cd1107 O1111 2.439 . S
Cd1107 O1117 2.240 . S
Cd1108 O1109 2.240 . S
Cd1108 O1116 2.223 . S
Cd1108 O1118 2.297 . S
Cd1108 O1119 2.439 . S
O1109 Cd1108 2.240 . S
O1109 C1114 1.279 . S
O1110 Cd1107 2.297 . S
O1110 C1112 1.247 . S
O1111 Cd1107 2.439 . S
O1111 C1112 1.208 . S
C1112 O1110 1.247 . S
C1112 O1111 1.208 . S
C1113 O1118 1.247 . S
C1113 O1119 1.208 . S
C1114 O1106 1.315 . S
C1114 O1109 1.279 . S
C1115 O1116 1.315 . S
C1115 O1117 1.279 . S
O1116 Cd1108 2.223 . S
O1116 C1115 1.315 . S
O1117 Cd1107 2.240 . S
O1117 C1115 1.279 . S
O1118 Cd1108 2.297 . S
O1118 C1113 1.247 . S
O1119 Cd1108 2.439 . S
O1119 C1113 1.208 . S
O1120 Cd1121 2.223 . S
O1120 C1128 1.315 . S
Cd1121 O1120 2.223 . S
Cd1121 O1124 2.297 . S
Cd1121 O1125 2.439 . S
Cd1121 O1131 2.240 . S
Cd1122 O1123 2.240 . S
Cd1122 O1130 2.223 . S
Cd1122 O1132 2.297 . S
Cd1122 O1133 2.439 . S
O1123 Cd1122 2.240 . S
O1123 C1128 1.279 . S
O1124 Cd1121 2.297 . S
O1124 C1126 1.247 . S
O1125 Cd1121 2.439 . S
O1125 C1126 1.208 . S
C1126 O1124 1.247 . S
C1126 O1125 1.208 . S
C1127 O1132 1.247 . S
C1127 O1133 1.208 . S
C1128 O1120 1.315 . S
C1128 O1123 1.279 . S
C1129 O1130 1.315 . S
C1129 O1131 1.279 . S
O1130 Cd1122 2.223 . S
O1130 C1129 1.315 . S
O1131 Cd1121 2.240 . S
O1131 C1129 1.279 . S
O1132 Cd1122 2.297 . S
O1132 C1127 1.247 . S
O1133 Cd1122 2.439 . S
O1133 C1127 1.208 . S
O1134 Cd1135 2.223 . S
O1134 C1142 1.315 . S
Cd1135 O1134 2.223 . S
Cd1135 O1138 2.297 . S
Cd1135 O1139 2.439 . S
Cd1135 O1145 2.240 . S
Cd1136 O1137 2.240 . S
Cd1136 O1144 2.223 . S
Cd1136 O1146 2.297 . S
Cd1136 O1147 2.439 . S
O1137 Cd1136 2.240 . S
O1137 C1142 1.279 . S
O1138 Cd1135 2.297 . S
O1138 C1140 1.247 . S
O1139 Cd1135 2.439 . S
O1139 C1140 1.208 . S
C1140 O1138 1.247 . S
C1140 O1139 1.208 . S
C1141 O1146 1.247 . S
C1141 O1147 1.208 . S
C1142 O1134 1.315 . S
C1142 O1137 1.279 . S
C1143 O1144 1.315 . S
C1143 O1145 1.279 . S
O1144 Cd1136 2.223 . S
O1144 C1143 1.315 . S
O1145 Cd1135 2.240 . S
O1145 C1143 1.279 . S
O1146 Cd1136 2.297 . S
O1146 C1141 1.247 . S
O1147 Cd1136 2.439 . S
O1147 C1141 1.208 . S
O1148 Cd1149 2.223 . S
O1148 C1156 1.315 . S
Cd1149 O1148 2.223 . S
Cd1149 O1152 2.297 . S
Cd1149 O1153 2.439 . S
Cd1149 O1159 2.240 . S
Cd1150 O1151 2.240 . S
Cd1150 O1158 2.223 . S
Cd1150 O1160 2.297 . S
Cd1150 O1161 2.439 . S
O1151 Cd1150 2.240 . S
O1151 C1156 1.279 . S
O1152 Cd1149 2.297 . S
O1152 C1154 1.247 . S
O1153 Cd1149 2.439 . S
O1153 C1154 1.208 . S
C1154 O1152 1.247 . S
C1154 O1153 1.208 . S
C1155 O1160 1.247 . S
C1155 O1161 1.208 . S
C1156 O1148 1.315 . S
C1156 O1151 1.279 . S
C1157 O1158 1.315 . S
C1157 O1159 1.279 . S
O1158 Cd1150 2.223 . S
O1158 C1157 1.315 . S
O1159 Cd1149 2.240 . S
O1159 C1157 1.279 . S
O1160 Cd1150 2.297 . S
O1160 C1155 1.247 . S
O1161 Cd1150 2.439 . S
O1161 C1155 1.208 . S
O1162 Cd1163 2.223 . S
O1162 C1170 1.315 . S
Cd1163 O1162 2.223 . S
Cd1163 O1166 2.297 . S
Cd1163 O1167 2.439 . S
Cd1163 O1173 2.240 . S
Cd1164 O1165 2.240 . S
Cd1164 O1172 2.223 . S
Cd1164 O1174 2.297 . S
Cd1164 O1175 2.439 . S
O1165 Cd1164 2.240 . S
O1165 C1170 1.279 . S
O1166 Cd1163 2.297 . S
O1166 C1168 1.247 . S
O1167 Cd1163 2.439 . S
O1167 C1168 1.208 . S
C1168 O1166 1.247 . S
C1168 O1167 1.208 . S
C1169 O1174 1.247 . S
C1169 O1175 1.208 . S
C1170 O1162 1.315 . S
C1170 O1165 1.279 . S
C1171 O1172 1.315 . S
C1171 O1173 1.279 . S
O1172 Cd1164 2.223 . S
O1172 C1171 1.315 . S
O1173 Cd1163 2.240 . S
O1173 C1171 1.279 . S
O1174 Cd1164 2.297 . S
O1174 C1169 1.247 . S
O1175 Cd1164 2.439 . S
O1175 C1169 1.208 . S
O1176 Cd1177 2.223 . S
O1176 C1184 1.315 . S
Cd1177 O1176 2.223 . S
Cd1177 O1180 2.297 . S
Cd1177 O1181 2.439 . S
Cd1177 O1187 2.240 . S
Cd1178 O1179 2.240 . S
Cd1178 O1186 2.223 . S
Cd1178 O1188 2.297 . S
Cd1178 O1189 2.439 . S
O1179 Cd1178 2.240 . S
O1179 C1184 1.279 . S
O1180 Cd1177 2.297 . S
O1180 C1182 1.247 . S
O1181 Cd1177 2.439 . S
O1181 C1182 1.208 . S
C1182 O1180 1.247 . S
C1182 O1181 1.208 . S
C1183 O1188 1.247 . S
C1183 O1189 1.208 . S
C1184 O1176 1.315 . S
C1184 O1179 1.279 . S
C1185 O1186 1.315 . S
C1185 O1187 1.279 . S
O1186 Cd1178 2.223 . S
O1186 C1185 1.315 . S
O1187 Cd1177 2.240 . S
O1187 C1185 1.279 . S
O1188 Cd1178 2.297 . S
O1188 C1183 1.247 . S
O1189 Cd1178 2.439 . S
O1189 C1183 1.208 . S
O1190 Cd1191 2.223 . S
O1190 C1198 1.315 . S
Cd1191 O1190 2.223 . S
Cd1191 O1194 2.297 . S
Cd1191 O1195 2.439 . S
Cd1191 O1201 2.240 . S
Cd1192 O1193 2.240 . S
Cd1192 O1200 2.223 . S
Cd1192 O1202 2.297 . S
Cd1192 O1203 2.439 . S
O1193 Cd1192 2.240 . S
O1193 C1198 1.279 . S
O1194 Cd1191 2.297 . S
O1194 C1196 1.247 . S
O1195 Cd1191 2.439 . S
O1195 C1196 1.208 . S
C1196 O1194 1.247 . S
C1196 O1195 1.208 . S
C1197 O1202 1.247 . S
C1197 O1203 1.208 . S
C1198 O1190 1.315 . S
C1198 O1193 1.279 . S
C1199 O1200 1.315 . S
C1199 O1201 1.279 . S
O1200 Cd1192 2.223 . S
O1200 C1199 1.315 . S
O1201 Cd1191 2.240 . S
O1201 C1199 1.279 . S
O1202 Cd1192 2.297 . S
O1202 C1197 1.247 . S
O1203 Cd1192 2.439 . S
O1203 C1197 1.208 . S
O1204 Cd1205 2.223 . S
O1204 C1212 1.315 . S
Cd1205 O1204 2.223 . S
Cd1205 O1208 2.297 . S
Cd1205 O1209 2.439 . S
Cd1205 O1215 2.240 . S
Cd1206 O1207 2.240 . S
Cd1206 O1214 2.223 . S
Cd1206 O1216 2.297 . S
Cd1206 O1217 2.439 . S
O1207 Cd1206 2.240 . S
O1207 C1212 1.279 . S
O1208 Cd1205 2.297 . S
O1208 C1210 1.247 . S
O1209 Cd1205 2.439 . S
O1209 C1210 1.208 . S
C1210 O1208 1.247 . S
C1210 O1209 1.208 . S
C1211 O1216 1.247 . S
C1211 O1217 1.208 . S
C1212 O1204 1.315 . S
C1212 O1207 1.279 . S
C1213 O1214 1.315 . S
C1213 O1215 1.279 . S
O1214 Cd1206 2.223 . S
O1214 C1213 1.315 . S
O1215 Cd1205 2.240 . S
O1215 C1213 1.279 . S
O1216 Cd1206 2.297 . S
O1216 C1211 1.247 . S
O1217 Cd1206 2.439 . S
O1217 C1211 1.208 . S
O1218 Cd1219 2.223 . S
O1218 C1226 1.315 . S
Cd1219 O1218 2.223 . S
Cd1219 O1222 2.297 . S
Cd1219 O1223 2.439 . S
Cd1219 O1229 2.240 . S
Cd1220 O1221 2.240 . S
Cd1220 O1228 2.223 . S
Cd1220 O1230 2.297 . S
Cd1220 O1231 2.439 . S
O1221 Cd1220 2.240 . S
O1221 C1226 1.279 . S
O1222 Cd1219 2.297 . S
O1222 C1224 1.247 . S
O1223 Cd1219 2.439 . S
O1223 C1224 1.208 . S
C1224 O1222 1.247 . S
C1224 O1223 1.208 . S
C1225 O1230 1.247 . S
C1225 O1231 1.208 . S
C1226 O1218 1.315 . S
C1226 O1221 1.279 . S
C1227 O1228 1.315 . S
C1227 O1229 1.279 . S
O1228 Cd1220 2.223 . S
O1228 C1227 1.315 . S
O1229 Cd1219 2.240 . S
O1229 C1227 1.279 . S
O1230 Cd1220 2.297 . S
O1230 C1225 1.247 . S
O1231 Cd1220 2.439 . S
O1231 C1225 1.208 . S
O1232 Cd1233 2.223 . S
O1232 C1240 1.315 . S
Cd1233 O1232 2.223 . S
Cd1233 O1236 2.297 . S
Cd1233 O1237 2.439 . S
Cd1233 O1243 2.240 . S
Cd1234 O1235 2.240 . S
Cd1234 O1242 2.223 . S
Cd1234 O1244 2.297 . S
Cd1234 O1245 2.439 . S
O1235 Cd1234 2.240 . S
O1235 C1240 1.279 . S
O1236 Cd1233 2.297 . S
O1236 C1238 1.247 . S
O1237 Cd1233 2.439 . S
O1237 C1238 1.208 . S
C1238 O1236 1.247 . S
C1238 O1237 1.208 . S
C1239 O1244 1.247 . S
C1239 O1245 1.208 . S
C1240 O1232 1.315 . S
C1240 O1235 1.279 . S
C1241 O1242 1.315 . S
C1241 O1243 1.279 . S
O1242 Cd1234 2.223 . S
O1242 C1241 1.315 . S
O1243 Cd1233 2.240 . S
O1243 C1241 1.279 . S
O1244 Cd1234 2.297 . S
O1244 C1239 1.247 . S
O1245 Cd1234 2.439 . S
O1245 C1239 1.208 . S
O1246 Cd1247 2.223 . S
O1246 C1254 1.315 . S
Cd1247 O1246 2.223 . S
Cd1247 O1250 2.297 . S
Cd1247 O1251 2.439 . S
Cd1247 O1257 2.240 . S
Cd1248 O1249 2.240 . S
Cd1248 O1256 2.223 . S
Cd1248 O1258 2.297 . S
Cd1248 O1259 2.439 . S
O1249 Cd1248 2.240 . S
O1249 C1254 1.279 . S
O1250 Cd1247 2.297 . S
O1250 C1252 1.247 . S
O1251 Cd1247 2.439 . S
O1251 C1252 1.208 . S
C1252 O1250 1.247 . S
C1252 O1251 1.208 . S
C1253 O1258 1.247 . S
C1253 O1259 1.208 . S
C1254 O1246 1.315 . S
C1254 O1249 1.279 . S
C1255 O1256 1.315 . S
C1255 O1257 1.279 . S
O1256 Cd1248 2.223 . S
O1256 C1255 1.315 . S
O1257 Cd1247 2.240 . S
O1257 C1255 1.279 . S
O1258 Cd1248 2.297 . S
O1258 C1253 1.247 . S
O1259 Cd1248 2.439 . S
O1259 C1253 1.208 . S
O1260 Cd1261 2.223 . S
O1260 C1268 1.315 . S
Cd1261 O1260 2.223 . S
Cd1261 O1264 2.297 . S
Cd1261 O1265 2.439 . S
Cd1261 O1271 2.240 . S
Cd1262 O1263 2.240 . S
Cd1262 O1270 2.223 . S
Cd1262 O1272 2.297 . S
Cd1262 O1273 2.439 . S
O1263 Cd1262 2.240 . S
O1263 C1268 1.279 . S
O1264 Cd1261 2.297 . S
O1264 C1266 1.247 . S
O1265 Cd1261 2.439 . S
O1265 C1266 1.208 . S
C1266 O1264 1.247 . S
C1266 O1265 1.208 . S
C1267 O1272 1.247 . S
C1267 O1273 1.208 . S
C1268 O1260 1.315 . S
C1268 O1263 1.279 . S
C1269 O1270 1.315 . S
C1269 O1271 1.279 . S
O1270 Cd1262 2.223 . S
O1270 C1269 1.315 . S
O1271 Cd1261 2.240 . S
O1271 C1269 1.279 . S
O1272 Cd1262 2.297 . S
O1272 C1267 1.247 . S
O1273 Cd1262 2.439 . S
O1273 C1267 1.208 . S
O1274 Cd1275 2.223 . S
O1274 C1282 1.315 . S
Cd1275 O1274 2.223 . S
Cd1275 O1278 2.297 . S
Cd1275 O1279 2.439 . S
Cd1275 O1285 2.240 . S
Cd1276 O1277 2.240 . S
Cd1276 O1284 2.223 . S
Cd1276 O1286 2.297 . S
Cd1276 O1287 2.439 . S
O1277 Cd1276 2.240 . S
O1277 C1282 1.279 . S
O1278 Cd1275 2.297 . S
O1278 C1280 1.247 . S
O1279 Cd1275 2.439 . S
O1279 C1280 1.208 . S
C1280 O1278 1.247 . S
C1280 O1279 1.208 . S
C1281 O1286 1.247 . S
C1281 O1287 1.208 . S
C1282 O1274 1.315 . S
C1282 O1277 1.279 . S
C1283 O1284 1.315 . S
C1283 O1285 1.279 . S
O1284 Cd1276 2.223 . S
O1284 C1283 1.315 . S
O1285 Cd1275 2.240 . S
O1285 C1283 1.279 . S
O1286 Cd1276 2.297 . S
O1286 C1281 1.247 . S
O1287 Cd1276 2.439 . S
O1287 C1281 1.208 . S
O1288 Cd1289 2.223 . S
O1288 C1296 1.315 . S
Cd1289 O1288 2.223 . S
Cd1289 O1292 2.297 . S
Cd1289 O1293 2.439 . S
Cd1289 O1299 2.240 . S
Cd1290 O1291 2.240 . S
Cd1290 O1298 2.223 . S
Cd1290 O1300 2.297 . S
Cd1290 O1301 2.439 . S
O1291 Cd1290 2.240 . S
O1291 C1296 1.279 . S
O1292 Cd1289 2.297 . S
O1292 C1294 1.247 . S
O1293 Cd1289 2.439 . S
O1293 C1294 1.208 . S
C1294 O1292 1.247 . S
C1294 O1293 1.208 . S
C1295 O1300 1.247 . S
C1295 O1301 1.208 . S
C1296 O1288 1.315 . S
C1296 O1291 1.279 . S
C1297 O1298 1.315 . S
C1297 O1299 1.279 . S
O1298 Cd1290 2.223 . S
O1298 C1297 1.315 . S
O1299 Cd1289 2.240 . S
O1299 C1297 1.279 . S
O1300 Cd1290 2.297 . S
O1300 C1295 1.247 . S
O1301 Cd1290 2.439 . S
O1301 C1295 1.208 . S
O1302 Cd1303 2.223 . S
O1302 C1310 1.315 . S
Cd1303 O1302 2.223 . S
Cd1303 O1306 2.297 . S
Cd1303 O1307 2.439 . S
Cd1303 O1313 2.240 . S
Cd1304 O1305 2.240 . S
Cd1304 O1312 2.223 . S
Cd1304 O1314 2.297 . S
Cd1304 O1315 2.439 . S
O1305 Cd1304 2.240 . S
O1305 C1310 1.279 . S
O1306 Cd1303 2.297 . S
O1306 C1308 1.247 . S
O1307 Cd1303 2.439 . S
O1307 C1308 1.208 . S
C1308 O1306 1.247 . S
C1308 O1307 1.208 . S
C1309 O1314 1.247 . S
C1309 O1315 1.208 . S
C1310 O1302 1.315 . S
C1310 O1305 1.279 . S
C1311 O1312 1.315 . S
C1311 O1313 1.279 . S
O1312 Cd1304 2.223 . S
O1312 C1311 1.315 . S
O1313 Cd1303 2.240 . S
O1313 C1311 1.279 . S
O1314 Cd1304 2.297 . S
O1314 C1309 1.247 . S
O1315 Cd1304 2.439 . S
O1315 C1309 1.208 . S
O1316 Cd1317 2.223 . S
O1316 C1324 1.315 . S
Cd1317 O1316 2.223 . S
Cd1317 O1320 2.297 . S
Cd1317 O1321 2.439 . S
Cd1317 O1327 2.240 . S
Cd1318 O1319 2.240 . S
Cd1318 O1326 2.223 . S
Cd1318 O1328 2.297 . S
Cd1318 O1329 2.439 . S
O1319 Cd1318 2.240 . S
O1319 C1324 1.279 . S
O1320 Cd1317 2.297 . S
O1320 C1322 1.247 . S
O1321 Cd1317 2.439 . S
O1321 C1322 1.208 . S
C1322 O1320 1.247 . S
C1322 O1321 1.208 . S
C1323 O1328 1.247 . S
C1323 O1329 1.208 . S
C1324 O1316 1.315 . S
C1324 O1319 1.279 . S
C1325 O1326 1.315 . S
C1325 O1327 1.279 . S
O1326 Cd1318 2.223 . S
O1326 C1325 1.315 . S
O1327 Cd1317 2.240 . S
O1327 C1325 1.279 . S
O1328 Cd1318 2.297 . S
O1328 C1323 1.247 . S
O1329 Cd1318 2.439 . S
O1329 C1323 1.208 . S
O1330 Cd1331 2.223 . S
O1330 C1338 1.315 . S
Cd1331 O1330 2.223 . S
Cd1331 O1334 2.297 . S
Cd1331 O1335 2.439 . S
Cd1331 O1341 2.240 . S
Cd1332 O1333 2.240 . S
Cd1332 O1340 2.223 . S
Cd1332 O1342 2.297 . S
Cd1332 O1343 2.439 . S
O1333 Cd1332 2.240 . S
O1333 C1338 1.279 . S
O1334 Cd1331 2.297 . S
O1334 C1336 1.247 . S
O1335 Cd1331 2.439 . S
O1335 C1336 1.208 . S
C1336 O1334 1.247 . S
C1336 O1335 1.208 . S
C1337 O1342 1.247 . S
C1337 O1343 1.208 . S
C1338 O1330 1.315 . S
C1338 O1333 1.279 . S
C1339 O1340 1.315 . S
C1339 O1341 1.279 . S
O1340 Cd1332 2.223 . S
O1340 C1339 1.315 . S
O1341 Cd1331 2.240 . S
O1341 C1339 1.279 . S
O1342 Cd1332 2.297 . S
O1342 C1337 1.247 . S
O1343 Cd1332 2.439 . S
O1343 C1337 1.208 . S
C7 C441 1.471 . S
C20 C398 1.471 . S
C413 C35 1.471 . S
C426 C48 1.471 . S
C357 C63 1.471 . S
C370 C76 1.471 . S
C91 C385 1.471 . S
C342 C104 1.471 . S
C118 C622 1.471 . S
C133 C581 1.471 . S
C146 C594 1.471 . S
C161 C609 1.471 . S
C174 C664 1.471 . S
C189 C637 1.471 . S
C202 C650 1.471 . S
C567 C217 1.471 . S
C230 C552 1.471 . S
C468 C244 1.471 . S
C482 C258 1.471 . S
C272 C496 1.471 . S
C454 C286 1.471 . S
C524 C300 1.471 . S
C314 C538 1.471 . S
C328 C510 1.471 . S
C1113 C679 1.471 . S
C1070 C692 1.471 . S
C707 C1085 1.471 . S
C1098 C720 1.471 . S
C735 C1029 1.471 . S
C748 C1042 1.471 . S
C1057 C763 1.471 . S
C1014 C776 1.471 . S
C1294 C790 1.471 . S
C1253 C805 1.471 . S
C818 C1266 1.471 . S
C833 C1281 1.471 . S
C1336 C846 1.471 . S
C1309 C861 1.471 . S
C1322 C874 1.471 . S
C889 C1239 1.471 . S
C1224 C902 1.471 . S
C916 C1140 1.471 . S
C1154 C930 1.471 . S
C1168 C944 1.471 . S
C1126 C958 1.471 . S
C972 C1196 1.471 . S
C986 C1210 1.471 . S
C1182 C1000 1.471 . S
C6 C959 2.162 . S
C21 C917 2.162 . S
C34 C931 2.162 . S
C49 C945 2.162 . S
C1001 C62 2.162 . S
C77 C973 2.162 . S
C987 C90 2.162 . S
C105 C903 2.162 . S
C888 C119 2.162 . S
C132 C847 2.162 . S
C860 C147 2.162 . S
C160 C875 2.162 . S
C175 C804 2.162 . S
C188 C819 2.162 . S
C832 C203 2.162 . S
C791 C216 2.162 . S
C231 C777 2.162 . S
C245 C693 2.162 . S
C259 C706 2.162 . S
C273 C721 2.162 . S
C287 C678 2.162 . S
C749 C301 2.162 . S
C762 C315 2.162 . S
C329 C734 2.162 . S
C345 C1297 1.816 . S
C358 C1254 1.816 . S
C373 C1269 1.816 . S
C386 C1282 1.816 . S
C401 C1339 1.816 . S
C1310 C414 1.816 . S
C429 C1325 1.816 . S
C442 C1240 1.816 . S
C1227 C457 1.816 . S
C1185 C471 1.816 . S
C1199 C485 1.816 . S
C1213 C499 1.816 . S
C513 C1143 1.816 . S
C527 C1157 1.816 . S
C541 C1171 1.816 . S
C1129 C555 1.816 . S
C1114 C568 1.816 . S
C582 C1030 1.816 . S
C1045 C597 1.816 . S
C1058 C610 1.816 . S
C625 C1017 1.816 . S
C638 C1086 1.816 . S
C1101 C653 1.816 . S
C667 C1073 1.816 . S
C8 C399 1.383 . S
C23 C412 1.383 . S
C36 C427 1.383 . S
C51 C440 1.383 . S
C343 C64 1.383 . S
C79 C356 1.383 . S
C371 C92 1.383 . S
C384 C107 1.383 . S
C121 C539 1.383 . S
C553 C134 1.383 . S
C149 C511 1.383 . S
C162 C525 1.383 . S
C177 C483 1.383 . S
C190 C497 1.383 . S
C205 C455 1.383 . S
C469 C218 1.383 . S
C233 C636 1.383 . S
C247 C608 1.383 . S
C623 C261 1.383 . S
C275 C580 1.383 . S
C595 C289 1.383 . S
C303 C566 1.383 . S
C665 C317 1.383 . S
C651 C331 1.383 . S
C680 C1071 1.383 . S
C695 C1084 1.383 . S
C708 C1099 1.383 . S
C1112 C723 1.383 . S
C736 C1015 1.383 . S
C751 C1028 1.383 . S
C764 C1043 1.383 . S
C779 C1056 1.383 . S
C793 C1211 1.383 . S
C1225 C806 1.383 . S
C1183 C821 1.383 . S
C1197 C834 1.383 . S
C849 C1155 1.383 . S
C1169 C862 1.383 . S
C877 C1127 1.383 . S
C1141 C890 1.383 . S
C1308 C905 1.383 . S
C1280 C919 1.383 . S
C933 C1295 1.383 . S
C947 C1252 1.383 . S
C1267 C961 1.383 . S
C975 C1238 1.383 . S
C1337 C989 1.383 . S
C1323 C1003 1.383 . S
C372 C9 2.415 . S
C22 C387 2.415 . S
C344 C37 2.415 . S
C50 C359 2.415 . S
C428 C65 2.415 . S
C443 C78 2.415 . S
C93 C400 2.415 . S
C415 C106 2.415 . S
C120 C512 2.415 . S
C135 C526 2.415 . S
C540 C148 2.415 . S
C163 C554 2.415 . S
C176 C456 2.415 . S
C470 C191 2.415 . S
C484 C204 2.415 . S
C498 C219 2.415 . S
C232 C611 2.415 . S
C639 C246 2.415 . S
C260 C652 2.415 . S
C569 C274 2.415 . S
C666 C288 2.415 . S
C583 C302 2.415 . S
C316 C596 2.415 . S
C330 C624 2.415 . S
C681 C1044 2.415 1_556 S
C1059 C694 2.415 1_554 S
C1016 C709 2.415 1_554 S
C1031 C722 2.415 1_554 S
C737 C1100 2.415 1_554 S
C1115 C750 2.415 1_556 S
C765 C1072 2.415 1_554 S
C1087 C778 2.415 1_556 S
C792 C1184 2.415 1_655 S
C1198 C807 2.415 1_545 S
C820 C1212 2.415 1_455 S
C1226 C835 2.415 1_565 S
C1128 C848 2.415 1_455 S
C1142 C863 2.415 1_545 S
C1156 C876 2.415 1_655 S
C1170 C891 2.415 1_565 S
C904 C1283 2.415 1_565 S
C1311 C918 2.415 1_565 S
C1324 C932 2.415 1_455 S
C1241 C946 2.415 1_545 S
C1338 C960 2.415 1_655 S
C974 C1255 2.415 1_545 S
C988 C1268 2.415 1_655 S
C1296 C1002 2.415 1_655 S
