# Generated by pormake.
# Topology uow, (4)-cn, num edge types: 1
# Building blocks:
#     Node 0, Type 0, BuildingBlock: CEKHIL_clean_sbu_0, # of connection points: 4
#     Node 1, Type 0, BuildingBlock: CEKHIL_clean_sbu_0, # of connection points: 4
#     Node 2, Type 0, BuildingBlock: CEKHIL_clean_sbu_0, # of connection points: 4
#     Node 3, Type 0, BuildingBlock: CEKHIL_clean_sbu_0, # of connection points: 4
#     Node 4, Type 0, BuildingBlock: CEKHIL_clean_sbu_0, # of connection points: 4
#     Node 5, Type 0, BuildingBlock: CEKHIL_clean_sbu_0, # of connection points: 4
#     Node 6, Type 0, BuildingBlock: CEKHIL_clean_sbu_0, # of connection points: 4
#     Node 7, Type 0, BuildingBlock: CEKHIL_clean_sbu_0, # of connection points: 4
#     Node 8, Type 0, BuildingBlock: CEKHIL_clean_sbu_0, # of connection points: 4
#     Node 9, Type 0, BuildingBlock: CEKHIL_clean_sbu_0, # of connection points: 4
#     Node 10, Type 0, BuildingBlock: CEKHIL_clean_sbu_0, # of connection points: 4
#     Node 11, Type 0, BuildingBlock: CEKHIL_clean_sbu_0, # of connection points: 4
#     Node 12, Type 0, BuildingBlock: CEKHIL_clean_sbu_0, # of connection points: 4
#     Node 13, Type 0, BuildingBlock: CEKHIL_clean_sbu_0, # of connection points: 4
#     Node 14, Type 0, BuildingBlock: CEKHIL_clean_sbu_0, # of connection points: 4
#     Node 15, Type 0, BuildingBlock: CEKHIL_clean_sbu_0, # of connection points: 4
#     Node 16, Type 0, BuildingBlock: CEKHIL_clean_sbu_0, # of connection points: 4
#     Node 17, Type 0, BuildingBlock: CEKHIL_clean_sbu_0, # of connection points: 4
#     Node 18, Type 0, BuildingBlock: CEKHIL_clean_sbu_0, # of connection points: 4
#     Node 19, Type 0, BuildingBlock: CEKHIL_clean_sbu_0, # of connection points: 4
#     Node 20, Type 0, BuildingBlock: CEKHIL_clean_sbu_0, # of connection points: 4
#     Node 21, Type 0, BuildingBlock: CEKHIL_clean_sbu_0, # of connection points: 4
#     Node 22, Type 0, BuildingBlock: CEKHIL_clean_sbu_0, # of connection points: 4
#     Node 23, Type 0, BuildingBlock: CEKHIL_clean_sbu_0, # of connection points: 4
#     Node 24, Type 0, BuildingBlock: CEKHIL_clean_sbu_0, # of connection points: 4
#     Node 25, Type 0, BuildingBlock: CEKHIL_clean_sbu_0, # of connection points: 4
#     Node 26, Type 0, BuildingBlock: CEKHIL_clean_sbu_0, # of connection points: 4
#     Node 27, Type 0, BuildingBlock: CEKHIL_clean_sbu_0, # of connection points: 4
#     Node 28, Type 0, BuildingBlock: CEKHIL_clean_sbu_0, # of connection points: 4
#     Node 29, Type 0, BuildingBlock: CEKHIL_clean_sbu_0, # of connection points: 4
#     Node 30, Type 0, BuildingBlock: CEKHIL_clean_sbu_0, # of connection points: 4
#     Node 31, Type 0, BuildingBlock: CEKHIL_clean_sbu_0, # of connection points: 4
#     Edge 32, Type (0, 0), None
#     Edge 33, Type (0, 0), None
#     Edge 34, Type (0, 0), None
#     Edge 35, Type (0, 0), None
#     Edge 36, Type (0, 0), None
#     Edge 37, Type (0, 0), None
#     Edge 38, Type (0, 0), None
#     Edge 39, Type (0, 0), None
#     Edge 40, Type (0, 0), None
#     Edge 41, Type (0, 0), None
#     Edge 42, Type (0, 0), None
#     Edge 43, Type (0, 0), None
#     Edge 44, Type (0, 0), None
#     Edge 45, Type (0, 0), None
#     Edge 46, Type (0, 0), None
#     Edge 47, Type (0, 0), None
#     Edge 48, Type (0, 0), None
#     Edge 49, Type (0, 0), None
#     Edge 50, Type (0, 0), None
#     Edge 51, Type (0, 0), None
#     Edge 52, Type (0, 0), None
#     Edge 53, Type (0, 0), None
#     Edge 54, Type (0, 0), None
#     Edge 55, Type (0, 0), None
#     Edge 56, Type (0, 0), None
#     Edge 57, Type (0, 0), None
#     Edge 58, Type (0, 0), None
#     Edge 59, Type (0, 0), None
#     Edge 60, Type (0, 0), None
#     Edge 61, Type (0, 0), None
#     Edge 62, Type (0, 0), None
#     Edge 63, Type (0, 0), None
#     Edge 64, Type (0, 0), None
#     Edge 65, Type (0, 0), None
#     Edge 66, Type (0, 0), None
#     Edge 67, Type (0, 0), None
#     Edge 68, Type (0, 0), None
#     Edge 69, Type (0, 0), None
#     Edge 70, Type (0, 0), None
#     Edge 71, Type (0, 0), None
#     Edge 72, Type (0, 0), None
#     Edge 73, Type (0, 0), None
#     Edge 74, Type (0, 0), None
#     Edge 75, Type (0, 0), None
#     Edge 76, Type (0, 0), None
#     Edge 77, Type (0, 0), None
#     Edge 78, Type (0, 0), None
#     Edge 79, Type (0, 0), None
#     Edge 80, Type (0, 0), None
#     Edge 81, Type (0, 0), None
#     Edge 82, Type (0, 0), None
#     Edge 83, Type (0, 0), None
#     Edge 84, Type (0, 0), None
#     Edge 85, Type (0, 0), None
#     Edge 86, Type (0, 0), None
#     Edge 87, Type (0, 0), None
#     Edge 88, Type (0, 0), None
#     Edge 89, Type (0, 0), None
#     Edge 90, Type (0, 0), None
#     Edge 91, Type (0, 0), None
#     Edge 92, Type (0, 0), None
#     Edge 93, Type (0, 0), None
#     Edge 94, Type (0, 0), None
#     Edge 95, Type (0, 0), None
# Relax obj value: 0.095
# Max RMSD: 0.129
# Mean RMSD: 0.129
data_MOF--net-uow--node1-CEKHIL_clean_sbu_0--edge1-none
_symmetry_space_group_name_H-M    P1
_symmetry_Int_Tables_number       1
_symmetry_cell_setting            triclinic
loop_
_symmetry_equiv_pos_as_xyz
'x, y, z'
_cell_length_a     27.094217
_cell_length_b     27.094783
_cell_length_c     18.652263
_cell_angle_alpha  89.997416
_cell_angle_beta   90.000114
_cell_angle_gamma 89.999813
loop_
_atom_site_label
_atom_site_type_symbol
_atom_site_fract_x
_atom_site_fract_y
_atom_site_fract_z
_atom_type_partial_charge
Co0 Co 0.06784 0.40538 0.24082 0.0
O1 O 0.0403 0.46089 0.19091 0.0
O2 O 0.11352 0.46141 0.24305 0.0
C3 C 0.99674 0.3883 0.30508 0.0
O4 O 0.10742 0.35531 0.30075 0.0
Co5 Co 0.01956 0.302 0.22557 0.0
O6 O 0.07736 0.27912 0.28082 0.0
C7 C 0.09222 0.33561 0.11818 0.0
C8 C 0.07932 0.4855 0.2088 0.0
C9 C 0.10939 0.30792 0.30758 0.0
O10 O 0.09958 0.3775 0.14972 0.0
O11 O 0.05961 0.3045 0.13788 0.0
O12 O 0.02767 0.42184 0.32629 0.0
O13 O 1.00763 0.37009 0.24367 0.0
Co14 Co 0.87704 0.81726 0.5013 0.0
O15 O 0.82096 0.78891 0.45377 0.0
O16 O 0.82196 0.86448 0.49784 0.0
C17 C 0.89233 0.74945 0.57244 0.0
O18 O 0.92887 0.8578 0.55655 0.0
Co19 Co 0.97853 0.76262 0.48995 0.0
O20 O 1.00175 0.8179 0.54989 0.0
C21 C 0.94871 0.83601 0.38038 0.0
C22 C 0.79727 0.82938 0.46632 0.0
C23 C 0.97567 0.85444 0.56898 0.0
O24 O 0.90574 0.8437 0.40814 0.0
O25 O 0.97944 0.80423 0.40372 0.0
O26 O 0.85977 0.78223 0.59087 0.0
O27 O 0.91017 0.75622 0.50971 0.0
Co28 Co 0.46629 0.62957 0.74518 0.0
O29 O 0.4948 0.57453 0.69537 0.0
O30 O 0.41992 0.57366 0.74166 0.0
C31 C 0.53477 0.6452 0.81507 0.0
O32 O 0.42594 0.68051 0.80275 0.0
Co33 Co 0.51914 0.73194 0.73254 0.0
O34 O 0.46397 0.75431 0.79339 0.0
C35 C 0.44406 0.7017 0.62565 0.0
C36 C 0.45489 0.55 0.70824 0.0
C37 C 0.42856 0.72747 0.81461 0.0
O38 O 0.43783 0.65855 0.65351 0.0
O39 O 0.47574 0.733 0.64782 0.0
O40 O 0.50284 0.61174 0.83322 0.0
O41 O 0.52693 0.66361 0.75283 0.0
Co42 Co 0.66252 0.21369 0.00709 0.0
O43 O 0.71908 0.24402 0.96403 0.0
O44 O 0.71982 0.1691 0.01065 0.0
C45 C 0.63976 0.28205 0.07181 0.0
O46 O 0.60856 0.17305 0.05866 0.0
Co47 Co 0.55875 0.26176 -0.02616 0.0
O48 O 0.53376 0.20411 0.02818 0.0
C49 C 0.61577 0.21388 0.87034 0.0
C50 C 0.74395 0.20481 -0.0205 0.0
C51 C 0.56067 0.17235 0.05988 0.0
O52 O 0.64007 0.18564 0.91225 0.0
O53 O 0.60503 0.25732 0.89079 0.0
O54 O 0.67334 0.25199 0.09591 0.0
O55 O 0.62507 0.27191 0.00818 0.0
Co56 Co 0.06839 0.62093 0.17636 0.0
O57 O 0.03915 0.5633 0.21824 0.0
O58 O 0.11414 0.56498 0.17144 0.0
C59 C 0.99954 0.64229 0.11197 0.0
O60 O 0.10869 0.67478 0.12484 0.0
Co61 Co 0.02061 0.72462 0.20718 0.0
O62 O 0.07837 0.74998 0.15366 0.0
C63 C 0.06762 0.66847 0.31382 0.0
C64 C 0.07884 0.53955 0.20118 0.0
C65 C 0.11004 0.72252 0.12277 0.0
O66 O 0.09567 0.64363 0.272 0.0
O67 O 0.02464 0.68077 0.293 0.0
O68 O 0.03049 0.60971 0.08742 0.0
O69 O 1.0096 0.65767 0.17539 0.0
Co70 Co 0.66206 0.8205 0.42724 0.0
O71 O 0.71855 0.79082 0.47169 0.0
O72 O 0.71917 0.86525 0.42346 0.0
C73 C 0.64045 0.7511 0.36342 0.0
O74 O 0.60892 0.86072 0.37355 0.0
Co75 Co 0.55783 0.77334 0.45771 0.0
O76 O 0.53348 0.82994 0.40088 0.0
C77 C 0.61331 0.82243 0.56414 0.0
C78 C 0.74337 0.82994 0.45537 0.0
C79 C 0.56113 0.86145 0.36997 0.0
O80 O 0.63874 0.84948 0.52174 0.0
O81 O 0.6006 0.77925 0.54456 0.0
O82 O 0.67379 0.78134 0.33921 0.0
O83 O 0.6247 0.76205 0.42631 0.0
Co84 Co 0.46519 0.41468 0.66873 0.0
O85 O 0.49554 0.47235 0.7087 0.0
O86 O 0.4192 0.47101 0.66743 0.0
C87 C 0.53172 0.39276 0.60021 0.0
O88 O 0.42427 0.35942 0.62083 0.0
Co89 Co 0.51696 0.31247 0.70141 0.0
O90 O 0.461 0.28609 0.64487 0.0
C91 C 0.47003 0.36926 0.80747 0.0
C92 C 0.45525 0.49619 0.69591 0.0
C93 C 0.42666 0.31168 0.61684 0.0
O94 O 0.44075 0.39261 0.76581 0.0
O95 O 0.51304 0.35776 0.78581 0.0
O96 O 0.50018 0.42526 0.57698 0.0
O97 O 0.52406 0.37859 0.6648 0.0
Co98 Co 0.87748 0.21872 0.93376 0.0
O99 O 0.82117 0.24636 -0.01858 0.0
O100 O 0.82266 0.17114 0.93607 0.0
C101 C 0.89263 0.28713 0.86398 0.0
O102 O 0.9299 0.17916 0.87834 0.0
Co103 Co 0.97898 0.27316 0.94761 0.0
O104 O 1.00267 0.21963 0.88503 0.0
C105 C 0.94788 0.19936 0.05611 0.0
C106 C 0.7978 0.20578 -0.03163 0.0
C107 C 0.97657 0.18315 0.86521 0.0
O108 O 0.90552 0.19146 0.02673 0.0
O109 O 0.97874 0.23159 0.03417 0.0
O110 O 0.86032 0.25435 0.84466 0.0
O111 O 0.91056 0.27983 0.92666 0.0
Co112 Co 0.96621 0.62905 0.692 0.0
O113 O 0.99363 0.57358 0.74208 0.0
O114 O 0.9206 0.57296 0.68938 0.0
C115 C 0.03743 0.64641 0.62831 0.0
O116 O 0.92689 0.67922 0.63193 0.0
Co117 Co 1.01426 0.7324 0.70892 0.0
O118 O 0.95645 0.75541 0.65365 0.0
C119 C 0.94348 0.69726 0.81707 0.0
C120 C 0.95469 0.54893 0.72399 0.0
C121 C 0.92472 0.72666 0.62594 0.0
O122 O 0.9341 0.65682 0.78282 0.0
O123 O 0.97783 0.72713 0.79966 0.0
O124 O 1.00674 0.61275 0.60678 0.0
O125 O 0.02627 0.66445 0.68972 0.0
Co126 Co 0.15772 0.21756 0.43174 0.0
O127 O 0.21405 0.24589 0.47879 0.0
O128 O 0.21284 0.17037 0.43461 0.0
C129 C 0.14211 0.28536 0.36082 0.0
O130 O 0.10571 0.17702 0.3768 0.0
Co131 Co 0.05618 0.27211 0.4437 0.0
O132 O 0.0327 0.21655 0.3845 0.0
C133 C 0.08635 0.19874 0.55311 0.0
C134 C 0.23771 0.20546 0.46583 0.0
C135 C 0.05882 0.18014 0.36502 0.0
O136 O 0.12927 0.19102 0.52512 0.0
O137 O 0.0556 0.23056 0.52996 0.0
O138 O 0.17466 0.25264 0.34209 0.0
O139 O 0.1245 0.27858 0.42368 0.0
Co140 Co 0.5676 0.40458 0.18982 0.0
O141 O 0.53947 0.45972 0.23996 0.0
O142 O 0.61409 0.46043 0.19283 0.0
C143 C 0.49877 0.38895 0.12066 0.0
O144 O 0.60756 0.35355 0.13183 0.0
Co145 Co 0.51499 0.30215 0.20292 0.0
O146 O 0.57028 0.27938 0.14258 0.0
C147 C 0.59036 0.33249 0.30918 0.0
C148 C 0.57938 0.48417 0.2267 0.0
C149 C 0.60532 0.30648 0.12055 0.0
O150 O 0.59652 0.37558 0.28112 0.0
O151 O 0.55853 0.30119 0.28746 0.0
O152 O 0.53057 0.42246 0.10224 0.0
O153 O 0.50693 0.37052 0.18282 0.0
Co154 Co 0.37165 0.82088 0.92704 0.0
O155 O 0.31527 0.79061 -0.02934 0.0
O156 O 0.31431 0.86534 0.92331 0.0
C157 C 0.39422 0.75214 0.86314 0.0
O158 O 0.42534 0.86157 0.87463 0.0
Co159 Co 0.4757 0.77399 0.95957 0.0
O160 O 0.50049 0.8325 0.907 0.0
C161 C 0.4185 0.82073 0.06344 0.0
C162 C 0.2903 0.8297 0.95483 0.0
C163 C 0.47322 0.86345 0.87425 0.0
O164 O 0.39427 0.84914 0.02166 0.0
O165 O 0.42936 0.77745 0.04257 0.0
O166 O 0.36063 0.78208 0.83875 0.0
O167 O 0.40922 0.76275 0.92646 0.0
Co168 Co 0.96562 0.41363 0.75742 0.0
O169 O 0.99491 0.47115 0.71533 0.0
O170 O 0.91982 0.46957 0.76178 0.0
C171 C 0.03435 0.39245 0.82218 0.0
O172 O 0.92527 0.35983 0.80901 0.0
Co173 Co 1.01356 0.30998 0.72713 0.0
O174 O 0.95571 0.28464 0.78041 0.0
C175 C 0.96672 0.36591 0.62005 0.0
C176 C 0.95515 0.49492 0.73197 0.0
C177 C 0.92396 0.31209 0.81114 0.0
O178 O 0.93858 0.39072 0.66177 0.0
O179 O 1.00965 0.35355 0.64102 0.0
O180 O 1.00334 0.42505 0.84651 0.0
O181 O 0.02443 0.37697 0.75878 0.0
Co182 Co 0.37287 0.21444 0.50525 0.0
O183 O 0.31668 0.24363 0.4591 0.0
O184 O 0.31568 0.16984 0.50937 0.0
C185 C 0.39422 0.28427 0.56811 0.0
O186 O 0.42541 0.17465 0.56066 0.0
Co187 Co 0.47739 0.2612 0.47544 0.0
O188 O 0.50107 0.20486 0.53336 0.0
C189 C 0.4249 0.20823 0.36937 0.0
C190 C 0.29168 0.20479 0.47635 0.0
C191 C 0.47316 0.17364 0.5644 0.0
O192 O 0.39718 0.18387 0.41232 0.0
O193 O 0.43885 0.25173 0.38536 0.0
O194 O 0.3604 0.25452 0.59215 0.0
O195 O 0.41035 0.27282 0.50559 0.0
Co196 Co 0.56943 0.61974 0.26528 0.0
O197 O 0.53895 0.56192 0.2259 0.0
O198 O 0.61528 0.56324 0.26711 0.0
C199 C 0.50292 0.64209 0.33357 0.0
O200 O 0.61029 0.67539 0.31243 0.0
Co201 Co 0.51747 0.72186 0.231 0.0
O202 O 0.57389 0.7486 0.28632 0.0
C203 C 0.56448 0.66413 0.12637 0.0
C204 C 0.57917 0.53803 0.23883 0.0
C205 C 0.60811 0.72322 0.31505 0.0
O206 O 0.59401 0.64121 0.16808 0.0
O207 O 0.52138 0.67507 0.14823 0.0
O208 O 0.53442 0.60965 0.35709 0.0
O209 O 0.51059 0.65596 0.26883 0.0
Co210 Co 0.15679 0.81573 0.00011 0.0
O211 O 0.21318 0.78802 0.95278 0.0
O212 O 0.21155 0.86331 -0.00206 0.0
C213 C 0.14142 0.74749 0.07 0.0
O214 O 0.10437 0.8554 0.05518 0.0
Co215 Co 0.05524 0.76135 -0.01403 0.0
O216 O 0.03148 0.81522 0.04792 0.0
C217 C 0.08661 0.83506 0.87751 0.0
C218 C 0.23648 0.82864 0.96586 0.0
C219 C 0.05763 0.85165 0.06781 0.0
O220 O 0.12894 0.84292 0.90699 0.0
O221 O 0.05569 0.80288 0.89938 0.0
O222 O 0.17376 0.78022 0.08939 0.0
O223 O 0.12362 0.75467 0.00722 0.0
Co224 Co 0.56936 0.91005 0.75437 0.0
O225 O 0.54135 0.96641 0.70676 0.0
O226 O 0.61569 0.96615 0.75462 0.0
C227 C 0.49938 0.89466 0.82212 0.0
O228 O 0.60914 0.85825 0.81197 0.0
Co229 Co 0.51694 0.80858 0.74019 0.0
O230 O 0.5692 0.78544 0.80527 0.0
C231 C 0.58779 0.84066 0.62879 0.0
C232 C 0.58072 0.99087 0.72288 0.0
C233 C 0.60513 0.81168 0.82637 0.0
O234 O 0.5978 0.88202 0.66049 0.0
O235 O 0.55475 0.81071 0.65056 0.0
O236 O 0.53205 0.92668 0.84263 0.0
O237 O 0.50813 0.87665 0.75994 0.0
Co238 Co 0.38071 0.31886 -0.00933 0.0
O239 O 0.32608 0.29187 0.93805 0.0
O240 O 0.32496 0.36519 -0.01048 0.0
C241 C 0.39568 0.24774 0.05588 0.0
O242 O 0.43006 0.3579 0.05295 0.0
Co243 Co 0.48386 0.26894 -0.02019 0.0
O244 O 0.50525 0.32298 0.04308 0.0
C245 C 0.45312 0.34236 0.87119 0.0
C246 C 0.30146 0.33133 0.95367 0.0
C247 C 0.47683 0.35656 0.06644 0.0
O248 O 0.41053 0.34969 0.90054 0.0
O249 O 0.48409 0.31028 0.89314 0.0
O250 O 0.36213 0.27913 0.07569 0.0
O251 O 0.41524 0.25826 -0.00479 0.0
Co252 Co 0.96489 0.12396 0.25351 0.0
O253 O 0.9946 0.06821 0.20751 0.0
O254 O 0.92011 0.06705 0.2559 0.0
C255 C 0.03395 0.14587 0.31669 0.0
O256 O 0.92462 0.17675 0.30841 0.0
Co257 Co 1.01095 0.2284 0.22344 0.0
O258 O 0.95295 0.25245 0.2778 0.0
C259 C 0.9652 0.17165 0.11846 0.0
C260 C 0.95519 0.04346 0.22247 0.0
C261 C 0.92261 0.22458 0.31061 0.0
O262 O 0.93643 0.14772 0.16002 0.0
O263 O 1.00833 0.18269 0.13977 0.0
O264 O 1.00439 0.11185 0.34091 0.0
O265 O 0.02285 0.16147 0.25393 0.0
Co266 Co 0.15706 0.71562 0.49946 0.0
O267 O 0.21155 0.74453 0.44877 0.0
O268 O 0.21336 0.66983 0.49562 0.0
C269 C 0.14225 0.78486 0.56901 0.0
O270 O 0.10694 0.67508 0.55892 0.0
Co271 Co 0.05486 0.76694 0.48881 0.0
O272 O 0.03432 0.71569 0.5573 0.0
C273 C 0.08512 0.69458 0.37818 0.0
C274 C 0.23656 0.70498 0.4619 0.0
C275 C 0.06093 0.67954 0.57642 0.0
O276 O 0.12776 0.68692 0.40719 0.0
O277 O 0.05424 0.72631 0.40137 0.0
O278 O 0.17535 0.75261 0.58728 0.0
O279 O 0.12308 0.77636 0.50741 0.0
Co280 Co 0.56696 0.12602 0.68544 0.0
O281 O 0.53971 0.06852 0.73105 0.0
O282 O 0.6145 0.07101 0.68459 0.0
C283 C 0.49796 0.14184 0.61684 0.0
O284 O 0.60629 0.17917 0.63121 0.0
Co285 Co 0.51235 0.22758 0.70141 0.0
O286 O 0.56596 0.2519 0.63927 0.0
C287 C 0.58748 0.19593 0.80845 0.0
C288 C 0.5799 0.04519 0.7153 0.0
C289 C 0.60244 0.22598 0.61911 0.0
O290 O 0.59481 0.1533 0.77916 0.0
O291 O 0.55526 0.2269 0.78672 0.0
O292 O 0.53082 0.10996 0.59647 0.0
O293 O 0.50557 0.15922 0.67981 0.0
Co294 Co 0.16582 0.32135 0.91837 0.0
O295 O 0.22367 0.29117 0.95795 0.0
O296 O 0.22224 0.36699 0.91446 0.0
C297 C 0.1431 0.25417 0.85165 0.0
O298 O 0.11022 0.3617 0.87085 0.0
Co299 Co 0.06339 0.26966 0.95459 0.0
O300 O 0.03691 0.32692 0.90079 0.0
C301 C 0.1214 0.31841 0.05665 0.0
C302 C 0.24755 0.3311 0.9431 0.0
C303 C 0.06237 0.36037 0.87038 0.0
O304 O 0.14468 0.34754 0.01489 0.0
O305 O 0.11159 0.27489 0.03549 0.0
O306 O 0.17568 0.28528 0.82757 0.0
O307 O 0.12927 0.26252 0.9163 0.0
Co308 Co 0.96551 0.90902 0.18142 0.0
O309 O 0.99559 0.96582 0.224 0.0
O310 O 0.92015 0.96547 0.17869 0.0
C311 C 0.03307 0.8861 0.11616 0.0
O312 O 0.92485 0.85486 0.13127 0.0
Co313 Co 1.01457 0.80497 0.21433 0.0
O314 O 0.95698 0.78006 0.15994 0.0
C315 C 0.96672 0.86289 0.3178 0.0
C316 C 0.95559 0.98989 0.20999 0.0
C317 C 0.92462 0.80703 0.12959 0.0
O318 O 0.93828 0.88697 0.27612 0.0
O319 O 1.01 0.85153 0.29719 0.0
O320 O 1.00304 0.91974 0.09205 0.0
O321 O 0.02359 0.87161 0.18006 0.0
Co322 Co 0.37227 0.71621 0.4268 0.0
O323 O 0.31397 0.74624 0.46541 0.0
O324 O 0.31596 0.67055 0.42139 0.0
C325 C 0.39684 0.78353 0.3621 0.0
O326 O 0.42801 0.67556 0.38038 0.0
Co327 Co 0.4759 0.76587 0.46481 0.0
O328 O 0.50213 0.70733 0.41357 0.0
C329 C 0.41507 0.71912 0.56458 0.0
C330 C 0.29039 0.70609 0.45041 0.0
C331 C 0.47586 0.67493 0.38189 0.0
O332 O 0.39198 0.68978 0.52308 0.0
O333 O 0.42529 0.76235 0.54274 0.0
O334 O 0.36393 0.75325 0.33657 0.0
O335 O 0.40987 0.77435 0.4268 0.0
Co336 Co 0.46408 0.12375 0.17654 0.0
O337 O 0.49208 0.06786 0.22502 0.0
O338 O 0.41826 0.06731 0.17524 0.0
C339 C 0.53421 0.14079 0.11097 0.0
O340 O 0.4249 0.17559 0.11836 0.0
Co341 Co 0.51433 0.22574 0.19785 0.0
O342 O 0.46069 0.24985 0.13554 0.0
C343 C 0.45232 0.18557 0.30966 0.0
C344 C 0.45302 0.04309 0.20832 0.0
C345 C 0.42692 0.22293 0.10915 0.0
O346 O 0.43426 0.15149 0.26902 0.0
O347 O 0.4926 0.20786 0.29549 0.0
O348 O 0.50278 0.10782 0.08936 0.0
O349 O 0.52428 0.1583 0.17311 0.0
Co350 Co 0.65315 0.7162 0.94337 0.0
O351 O 0.70795 0.74312 -0.00416 0.0
O352 O 0.70907 0.67008 0.94355 0.0
C353 C 0.63733 0.78752 0.87905 0.0
O354 O 0.60376 0.67722 0.88109 0.0
Co355 Co 0.54971 0.76533 0.95554 0.0
O356 O 0.52798 0.71025 0.89429 0.0
C357 C 0.58126 0.69172 0.06321 0.0
C358 C 0.73261 0.70379 -0.02035 0.0
C359 C 0.55674 0.67746 0.86945 0.0
O360 O 0.62376 0.68471 0.0334 0.0
O361 O 0.55008 0.7238 0.04193 0.0
O362 O 0.67113 0.75659 0.85861 0.0
O363 O 0.61822 0.77656 0.93984 0.0
Co364 Co 0.06961 0.91062 0.68036 0.0
O365 O 0.03998 0.96641 0.72643 0.0
O366 O 0.1144 0.96754 0.67788 0.0
C367 C 1.00048 0.88873 0.61733 0.0
O368 O 0.1098 0.8578 0.62539 0.0
Co369 Co 0.0235 0.8061 0.71038 0.0
O370 O 0.08152 0.78206 0.65607 0.0
C371 C 0.06934 0.86287 0.81523 0.0
C372 C 0.07938 0.99116 0.71138 0.0
C373 C 0.11184 0.80996 0.62323 0.0
O374 O 0.09814 0.88684 0.77377 0.0
O375 O 0.0262 0.85195 0.79389 0.0
O376 O 0.03002 0.92276 0.59307 0.0
O377 O 1.01164 0.8731 0.68005 0.0
Co378 Co 0.87739 0.31888 0.4343 0.0
O379 O 0.82304 0.2899 0.48521 0.0
O380 O 0.82105 0.36459 0.4383 0.0
C381 C 0.89223 0.24969 0.36483 0.0
O382 O 0.92734 0.35948 0.37459 0.0
Co383 Co 0.97971 0.26783 0.44475 0.0
O384 O 1.00021 0.31932 0.37663 0.0
C385 C 0.94935 0.33992 0.55556 0.0
C386 C 0.79797 0.32942 0.47217 0.0
C387 C 0.97342 0.35528 0.35729 0.0
O388 O 0.90675 0.34764 0.52646 0.0
O389 O 0.98024 0.30821 0.53239 0.0
O390 O 0.85902 0.28182 0.34657 0.0
O391 O 0.91149 0.25822 0.42636 0.0
Co392 Co 0.46718 0.90847 0.24834 0.0
O393 O 0.49442 0.96568 0.20215 0.0
O394 O 0.41952 0.96332 0.24835 0.0
C395 C 0.53611 0.89296 0.31731 0.0
O396 O 0.42789 0.85542 0.30285 0.0
Co397 Co 0.5218 0.80705 0.23263 0.0
O398 O 0.46836 0.78274 0.29503 0.0
C399 C 0.44678 0.83846 0.12543 0.0
C400 C 0.45405 0.98893 0.21712 0.0
C401 C 0.43185 0.80865 0.31514 0.0
O402 O 0.43942 0.88102 0.15479 0.0
O403 O 0.479 0.80749 0.14714 0.0
O404 O 0.50319 0.92488 0.33737 0.0
O405 O 0.52859 0.8754 0.25442 0.0
Co406 Co 0.86831 0.71349 0.01507 0.0
O407 O 0.8106 0.74364 -0.02516 0.0
O408 O 0.8117 0.66809 0.0193 0.0
C409 C 0.89118 0.78087 0.08121 0.0
O410 O 0.92373 0.67324 0.06326 0.0
Co411 Co 0.97108 0.76487 -0.02124 0.0
O412 O 0.99719 0.70776 0.03326 0.0
C413 C 0.91348 0.71517 0.87731 0.0
C414 C 0.78654 0.7039 -0.00987 0.0
C415 C 0.97159 0.67449 0.06387 0.0
O416 O 0.88962 0.68652 0.91907 0.0
O417 O 0.92307 0.75888 0.89779 0.0
O418 O 0.85834 0.75008 0.1054 0.0
O419 O 0.90511 0.7722 0.01668 0.0
Co420 Co 0.06898 0.1257 0.75196 0.0
O421 O 0.03902 0.06883 0.70938 0.0
O422 O 0.11432 0.06923 0.7551 0.0
C423 C 1.00122 0.14868 0.8169 0.0
O424 O 0.10947 0.18 0.80211 0.0
Co425 Co 0.01988 0.22968 0.71836 0.0
O426 O 0.07753 0.25474 0.77251 0.0
C427 C 0.06822 0.17166 0.61551 0.0
C428 C 0.07897 0.04476 0.72368 0.0
C429 C 0.10979 0.22785 0.80326 0.0
O430 O 0.09655 0.14763 0.65736 0.0
O431 O 0.02484 0.18284 0.63587 0.0
O432 O 0.03121 0.11508 0.84116 0.0
O433 O 1.01085 0.16312 0.753 0.0
Co434 Co 0.6623 0.31829 0.50751 0.0
O435 O 0.72058 0.28811 0.46911 0.0
O436 O 0.71865 0.36388 0.51289 0.0
C437 C 0.63749 0.25112 0.57225 0.0
O438 O 0.60658 0.35911 0.55365 0.0
Co439 Co 0.55858 0.26884 0.46926 0.0
O440 O 0.53244 0.32773 0.51984 0.0
C441 C 0.61978 0.31514 0.36983 0.0
C442 C 0.74418 0.32829 0.48395 0.0
C443 C 0.55875 0.36003 0.55169 0.0
O444 O 0.64279 0.34463 0.41116 0.0
O445 O 0.60968 0.27197 0.39199 0.0
O446 O 0.67045 0.28133 0.59786 0.0
O447 O 0.62455 0.26025 0.5075 0.0
loop_
_geom_bond_atom_site_label_1
_geom_bond_atom_site_label_2
_geom_bond_distance
_geom_bond_site_symmetry_2
_ccdc_geom_bond_type
Co0 O1 2.216 . S
Co0 O2 2.091 . S
Co0 O4 2.004 . S
Co0 O10 2.021 . S
Co0 O12 2.137 . S
Co0 O13 2.244 . S
O1 Co0 2.216 . S
O1 C8 1.247 . S
O2 Co0 2.091 . S
O2 C8 1.261 . S
C3 O12 1.247 1_655 S
C3 O13 1.272 1_655 S
O4 Co0 2.004 . S
O4 C9 1.259 . S
Co5 O6 2.061 . S
Co5 O11 2.052 . S
Co5 O13 2.135 . S
O6 Co5 2.061 . S
O6 C9 1.235 . S
C7 O10 1.238 . S
C7 O11 1.241 . S
C8 O1 1.247 . S
C8 O2 1.261 . S
C9 O4 1.259 . S
C9 O6 1.235 . S
O10 Co0 2.021 . S
O10 C7 1.238 . S
O11 Co5 2.052 . S
O11 C7 1.241 . S
O12 Co0 2.137 . S
O12 C3 1.247 1_455 S
O13 Co0 2.244 . S
O13 C3 1.272 1_455 S
O13 Co5 2.135 . S
Co14 O15 2.216 . S
Co14 O16 2.091 . S
Co14 O18 2.004 . S
Co14 O24 2.021 . S
Co14 O26 2.137 . S
Co14 O27 2.244 . S
O15 Co14 2.216 . S
O15 C22 1.247 . S
O16 Co14 2.091 . S
O16 C22 1.261 . S
C17 O26 1.247 . S
C17 O27 1.272 . S
O18 Co14 2.004 . S
O18 C23 1.259 . S
Co19 O20 2.061 . S
Co19 O25 2.052 . S
Co19 O27 2.135 . S
O20 Co19 2.061 . S
O20 C23 1.235 . S
C21 O24 1.238 . S
C21 O25 1.241 . S
C22 O15 1.247 . S
C22 O16 1.261 . S
C23 O18 1.259 . S
C23 O20 1.235 . S
O24 Co14 2.021 . S
O24 C21 1.238 . S
O25 Co19 2.052 . S
O25 C21 1.241 . S
O26 Co14 2.137 . S
O26 C17 1.247 . S
O27 Co14 2.244 . S
O27 C17 1.272 . S
O27 Co19 2.135 . S
Co28 O29 2.216 . S
Co28 O30 2.091 . S
Co28 O32 2.004 . S
Co28 O38 2.021 . S
Co28 O40 2.137 . S
Co28 O41 2.244 . S
O29 Co28 2.216 . S
O29 C36 1.247 . S
O30 Co28 2.091 . S
O30 C36 1.261 . S
C31 O40 1.247 . S
C31 O41 1.272 . S
O32 Co28 2.004 . S
O32 C37 1.259 . S
Co33 O34 2.061 . S
Co33 O39 2.052 . S
Co33 O41 2.135 . S
O34 Co33 2.061 . S
O34 C37 1.235 . S
C35 O38 1.238 . S
C35 O39 1.241 . S
C36 O29 1.247 . S
C36 O30 1.261 . S
C37 O32 1.259 . S
C37 O34 1.235 . S
O38 Co28 2.021 . S
O38 C35 1.238 . S
O39 Co33 2.052 . S
O39 C35 1.241 . S
O40 Co28 2.137 . S
O40 C31 1.247 . S
O41 Co28 2.244 . S
O41 C31 1.272 . S
O41 Co33 2.135 . S
Co42 O43 2.216 . S
Co42 O44 2.091 . S
Co42 O46 2.004 . S
Co42 O52 2.021 1_554 S
Co42 O54 2.137 . S
Co42 O55 2.244 . S
O43 Co42 2.216 . S
O43 C50 1.247 . S
O44 Co42 2.091 . S
O44 C50 1.261 . S
C45 O54 1.247 . S
C45 O55 1.272 . S
O46 Co42 2.004 . S
O46 C51 1.259 . S
Co47 O48 2.061 . S
Co47 O53 2.052 1_554 S
Co47 O55 2.135 . S
O48 Co47 2.061 . S
O48 C51 1.235 . S
C49 O52 1.238 . S
C49 O53 1.241 . S
C50 O43 1.247 . S
C50 O44 1.261 . S
C51 O46 1.259 . S
C51 O48 1.235 . S
O52 Co42 2.021 1_556 S
O52 C49 1.238 . S
O53 Co47 2.052 1_556 S
O53 C49 1.241 . S
O54 Co42 2.137 . S
O54 C45 1.247 . S
O55 Co42 2.244 . S
O55 C45 1.272 . S
O55 Co47 2.135 . S
Co56 O57 2.216 . S
Co56 O58 2.091 . S
Co56 O60 2.004 . S
Co56 O66 2.021 . S
Co56 O68 2.137 . S
Co56 O69 2.244 . S
O57 Co56 2.216 . S
O57 C64 1.247 . S
O58 Co56 2.091 . S
O58 C64 1.261 . S
C59 O68 1.247 1_655 S
C59 O69 1.272 1_655 S
O60 Co56 2.004 . S
O60 C65 1.259 . S
Co61 O62 2.061 . S
Co61 O67 2.052 . S
Co61 O69 2.135 . S
O62 Co61 2.061 . S
O62 C65 1.235 . S
C63 O66 1.238 . S
C63 O67 1.241 . S
C64 O57 1.247 . S
C64 O58 1.261 . S
C65 O60 1.259 . S
C65 O62 1.235 . S
O66 Co56 2.021 . S
O66 C63 1.238 . S
O67 Co61 2.052 . S
O67 C63 1.241 . S
O68 Co56 2.137 . S
O68 C59 1.247 1_455 S
O69 Co56 2.244 . S
O69 C59 1.272 1_455 S
O69 Co61 2.135 . S
Co70 O71 2.216 . S
Co70 O72 2.091 . S
Co70 O74 2.004 . S
Co70 O80 2.021 . S
Co70 O82 2.137 . S
Co70 O83 2.244 . S
O71 Co70 2.216 . S
O71 C78 1.247 . S
O72 Co70 2.091 . S
O72 C78 1.261 . S
C73 O82 1.247 . S
C73 O83 1.272 . S
O74 Co70 2.004 . S
O74 C79 1.259 . S
Co75 O76 2.061 . S
Co75 O81 2.052 . S
Co75 O83 2.135 . S
O76 Co75 2.061 . S
O76 C79 1.235 . S
C77 O80 1.238 . S
C77 O81 1.241 . S
C78 O71 1.247 . S
C78 O72 1.261 . S
C79 O74 1.259 . S
C79 O76 1.235 . S
O80 Co70 2.021 . S
O80 C77 1.238 . S
O81 Co75 2.052 . S
O81 C77 1.241 . S
O82 Co70 2.137 . S
O82 C73 1.247 . S
O83 Co70 2.244 . S
O83 C73 1.272 . S
O83 Co75 2.135 . S
Co84 O85 2.216 . S
Co84 O86 2.091 . S
Co84 O88 2.004 . S
Co84 O94 2.021 . S
Co84 O96 2.137 . S
Co84 O97 2.244 . S
O85 Co84 2.216 . S
O85 C92 1.247 . S
O86 Co84 2.091 . S
O86 C92 1.261 . S
C87 O96 1.247 . S
C87 O97 1.272 . S
O88 Co84 2.004 . S
O88 C93 1.259 . S
Co89 O90 2.061 . S
Co89 O95 2.052 . S
Co89 O97 2.135 . S
O90 Co89 2.061 . S
O90 C93 1.235 . S
C91 O94 1.238 . S
C91 O95 1.241 . S
C92 O85 1.247 . S
C92 O86 1.261 . S
C93 O88 1.259 . S
C93 O90 1.235 . S
O94 Co84 2.021 . S
O94 C91 1.238 . S
O95 Co89 2.052 . S
O95 C91 1.241 . S
O96 Co84 2.137 . S
O96 C87 1.247 . S
O97 Co84 2.244 . S
O97 C87 1.272 . S
O97 Co89 2.135 . S
Co98 O99 2.216 . S
Co98 O100 2.091 . S
Co98 O102 2.004 . S
Co98 O108 2.021 1_556 S
Co98 O110 2.137 . S
Co98 O111 2.244 . S
O99 Co98 2.216 . S
O99 C106 1.247 . S
O100 Co98 2.091 . S
O100 C106 1.261 . S
C101 O110 1.247 . S
C101 O111 1.272 . S
O102 Co98 2.004 . S
O102 C107 1.259 . S
Co103 O104 2.061 . S
Co103 O109 2.052 1_556 S
Co103 O111 2.135 . S
O104 Co103 2.061 . S
O104 C107 1.235 . S
C105 O108 1.238 . S
C105 O109 1.241 . S
C106 O99 1.247 . S
C106 O100 1.261 . S
C107 O102 1.259 . S
C107 O104 1.235 . S
O108 Co98 2.021 1_554 S
O108 C105 1.238 . S
O109 Co103 2.052 1_554 S
O109 C105 1.241 . S
O110 Co98 2.137 . S
O110 C101 1.247 . S
O111 Co98 2.244 . S
O111 C101 1.272 . S
O111 Co103 2.135 . S
Co112 O113 2.216 . S
Co112 O114 2.091 . S
Co112 O116 2.004 . S
Co112 O122 2.021 . S
Co112 O124 2.137 . S
Co112 O125 2.244 . S
O113 Co112 2.216 . S
O113 C120 1.247 . S
O114 Co112 2.091 . S
O114 C120 1.261 . S
C115 O124 1.247 1_455 S
C115 O125 1.272 1_455 S
O116 Co112 2.004 . S
O116 C121 1.259 . S
Co117 O118 2.061 . S
Co117 O123 2.052 . S
Co117 O125 2.135 . S
O118 Co117 2.061 . S
O118 C121 1.235 . S
C119 O122 1.238 . S
C119 O123 1.241 . S
C120 O113 1.247 . S
C120 O114 1.261 . S
C121 O116 1.259 . S
C121 O118 1.235 . S
O122 Co112 2.021 . S
O122 C119 1.238 . S
O123 Co117 2.052 . S
O123 C119 1.241 . S
O124 Co112 2.137 . S
O124 C115 1.247 1_655 S
O125 Co112 2.244 . S
O125 C115 1.272 1_655 S
O125 Co117 2.135 . S
Co126 O127 2.216 . S
Co126 O128 2.091 . S
Co126 O130 2.004 . S
Co126 O136 2.021 . S
Co126 O138 2.137 . S
Co126 O139 2.244 . S
O127 Co126 2.216 . S
O127 C134 1.247 . S
O128 Co126 2.091 . S
O128 C134 1.261 . S
C129 O138 1.247 . S
C129 O139 1.272 . S
O130 Co126 2.004 . S
O130 C135 1.259 . S
Co131 O132 2.061 . S
Co131 O137 2.052 . S
Co131 O139 2.135 . S
O132 Co131 2.061 . S
O132 C135 1.235 . S
C133 O136 1.238 . S
C133 O137 1.241 . S
C134 O127 1.247 . S
C134 O128 1.261 . S
C135 O130 1.259 . S
C135 O132 1.235 . S
O136 Co126 2.021 . S
O136 C133 1.238 . S
O137 Co131 2.052 . S
O137 C133 1.241 . S
O138 Co126 2.137 . S
O138 C129 1.247 . S
O139 Co126 2.244 . S
O139 C129 1.272 . S
O139 Co131 2.135 . S
Co140 O141 2.216 . S
Co140 O142 2.091 . S
Co140 O144 2.004 . S
Co140 O150 2.021 . S
Co140 O152 2.137 . S
Co140 O153 2.244 . S
O141 Co140 2.216 . S
O141 C148 1.247 . S
O142 Co140 2.091 . S
O142 C148 1.261 . S
C143 O152 1.247 . S
C143 O153 1.272 . S
O144 Co140 2.004 . S
O144 C149 1.259 . S
Co145 O146 2.061 . S
Co145 O151 2.052 . S
Co145 O153 2.135 . S
O146 Co145 2.061 . S
O146 C149 1.235 . S
C147 O150 1.238 . S
C147 O151 1.241 . S
C148 O141 1.247 . S
C148 O142 1.261 . S
C149 O144 1.259 . S
C149 O146 1.235 . S
O150 Co140 2.021 . S
O150 C147 1.238 . S
O151 Co145 2.052 . S
O151 C147 1.241 . S
O152 Co140 2.137 . S
O152 C143 1.247 . S
O153 Co140 2.244 . S
O153 C143 1.272 . S
O153 Co145 2.135 . S
Co154 O155 2.216 . S
Co154 O156 2.091 . S
Co154 O158 2.004 . S
Co154 O164 2.021 1_556 S
Co154 O166 2.137 . S
Co154 O167 2.244 . S
O155 Co154 2.216 . S
O155 C162 1.247 . S
O156 Co154 2.091 . S
O156 C162 1.261 . S
C157 O166 1.247 . S
C157 O167 1.272 . S
O158 Co154 2.004 . S
O158 C163 1.259 . S
Co159 O160 2.061 . S
Co159 O165 2.052 1_556 S
Co159 O167 2.135 . S
O160 Co159 2.061 . S
O160 C163 1.235 . S
C161 O164 1.238 . S
C161 O165 1.241 . S
C162 O155 1.247 . S
C162 O156 1.261 . S
C163 O158 1.259 . S
C163 O160 1.235 . S
O164 Co154 2.021 1_554 S
O164 C161 1.238 . S
O165 Co159 2.052 1_554 S
O165 C161 1.241 . S
O166 Co154 2.137 . S
O166 C157 1.247 . S
O167 Co154 2.244 . S
O167 C157 1.272 . S
O167 Co159 2.135 . S
Co168 O169 2.216 . S
Co168 O170 2.091 . S
Co168 O172 2.004 . S
Co168 O178 2.021 . S
Co168 O180 2.137 . S
Co168 O181 2.244 . S
O169 Co168 2.216 . S
O169 C176 1.247 . S
O170 Co168 2.091 . S
O170 C176 1.261 . S
C171 O180 1.247 1_455 S
C171 O181 1.272 1_455 S
O172 Co168 2.004 . S
O172 C177 1.259 . S
Co173 O174 2.061 . S
Co173 O179 2.052 . S
Co173 O181 2.135 . S
O174 Co173 2.061 . S
O174 C177 1.235 . S
C175 O178 1.238 . S
C175 O179 1.241 . S
C176 O169 1.247 . S
C176 O170 1.261 . S
C177 O172 1.259 . S
C177 O174 1.235 . S
O178 Co168 2.021 . S
O178 C175 1.238 . S
O179 Co173 2.052 . S
O179 C175 1.241 . S
O180 Co168 2.137 . S
O180 C171 1.247 1_655 S
O181 Co168 2.244 . S
O181 C171 1.272 1_655 S
O181 Co173 2.135 . S
Co182 O183 2.216 . S
Co182 O184 2.091 . S
Co182 O186 2.004 . S
Co182 O192 2.021 . S
Co182 O194 2.137 . S
Co182 O195 2.244 . S
O183 Co182 2.216 . S
O183 C190 1.247 . S
O184 Co182 2.091 . S
O184 C190 1.261 . S
C185 O194 1.247 . S
C185 O195 1.272 . S
O186 Co182 2.004 . S
O186 C191 1.259 . S
Co187 O188 2.061 . S
Co187 O193 2.052 . S
Co187 O195 2.135 . S
O188 Co187 2.061 . S
O188 C191 1.235 . S
C189 O192 1.238 . S
C189 O193 1.241 . S
C190 O183 1.247 . S
C190 O184 1.261 . S
C191 O186 1.259 . S
C191 O188 1.235 . S
O192 Co182 2.021 . S
O192 C189 1.238 . S
O193 Co187 2.052 . S
O193 C189 1.241 . S
O194 Co182 2.137 . S
O194 C185 1.247 . S
O195 Co182 2.244 . S
O195 C185 1.272 . S
O195 Co187 2.135 . S
Co196 O197 2.216 . S
Co196 O198 2.091 . S
Co196 O200 2.004 . S
Co196 O206 2.021 . S
Co196 O208 2.137 . S
Co196 O209 2.244 . S
O197 Co196 2.216 . S
O197 C204 1.247 . S
O198 Co196 2.091 . S
O198 C204 1.261 . S
C199 O208 1.247 . S
C199 O209 1.272 . S
O200 Co196 2.004 . S
O200 C205 1.259 . S
Co201 O202 2.061 . S
Co201 O207 2.052 . S
Co201 O209 2.135 . S
O202 Co201 2.061 . S
O202 C205 1.235 . S
C203 O206 1.238 . S
C203 O207 1.241 . S
C204 O197 1.247 . S
C204 O198 1.261 . S
C205 O200 1.259 . S
C205 O202 1.235 . S
O206 Co196 2.021 . S
O206 C203 1.238 . S
O207 Co201 2.052 . S
O207 C203 1.241 . S
O208 Co196 2.137 . S
O208 C199 1.247 . S
O209 Co196 2.244 . S
O209 C199 1.272 . S
O209 Co201 2.135 . S
Co210 O211 2.216 . S
Co210 O212 2.091 . S
Co210 O214 2.004 . S
Co210 O220 2.021 1_554 S
Co210 O222 2.137 . S
Co210 O223 2.244 . S
O211 Co210 2.216 . S
O211 C218 1.247 . S
O212 Co210 2.091 . S
O212 C218 1.261 . S
C213 O222 1.247 . S
C213 O223 1.272 . S
O214 Co210 2.004 . S
O214 C219 1.259 . S
Co215 O216 2.061 . S
Co215 O221 2.052 1_554 S
Co215 O223 2.135 . S
O216 Co215 2.061 . S
O216 C219 1.235 . S
C217 O220 1.238 . S
C217 O221 1.241 . S
C218 O211 1.247 . S
C218 O212 1.261 . S
C219 O214 1.259 . S
C219 O216 1.235 . S
O220 Co210 2.021 1_556 S
O220 C217 1.238 . S
O221 Co215 2.052 1_556 S
O221 C217 1.241 . S
O222 Co210 2.137 . S
O222 C213 1.247 . S
O223 Co210 2.244 . S
O223 C213 1.272 . S
O223 Co215 2.135 . S
Co224 O225 2.216 . S
Co224 O226 2.091 . S
Co224 O228 2.004 . S
Co224 O234 2.021 . S
Co224 O236 2.137 . S
Co224 O237 2.244 . S
O225 Co224 2.216 . S
O225 C232 1.247 . S
O226 Co224 2.091 . S
O226 C232 1.261 . S
C227 O236 1.247 . S
C227 O237 1.272 . S
O228 Co224 2.004 . S
O228 C233 1.259 . S
Co229 O230 2.061 . S
Co229 O235 2.052 . S
Co229 O237 2.135 . S
O230 Co229 2.061 . S
O230 C233 1.235 . S
C231 O234 1.238 . S
C231 O235 1.241 . S
C232 O225 1.247 . S
C232 O226 1.261 . S
C233 O228 1.259 . S
C233 O230 1.235 . S
O234 Co224 2.021 . S
O234 C231 1.238 . S
O235 Co229 2.052 . S
O235 C231 1.241 . S
O236 Co224 2.137 . S
O236 C227 1.247 . S
O237 Co224 2.244 . S
O237 C227 1.272 . S
O237 Co229 2.135 . S
Co238 O239 2.216 . S
Co238 O240 2.091 . S
Co238 O242 2.004 . S
Co238 O248 2.021 1_554 S
Co238 O250 2.137 . S
Co238 O251 2.244 . S
O239 Co238 2.216 . S
O239 C246 1.247 . S
O240 Co238 2.091 . S
O240 C246 1.261 . S
C241 O250 1.247 . S
C241 O251 1.272 . S
O242 Co238 2.004 . S
O242 C247 1.259 . S
Co243 O244 2.061 . S
Co243 O249 2.052 1_554 S
Co243 O251 2.135 . S
O244 Co243 2.061 . S
O244 C247 1.235 . S
C245 O248 1.238 . S
C245 O249 1.241 . S
C246 O239 1.247 . S
C246 O240 1.261 . S
C247 O242 1.259 . S
C247 O244 1.235 . S
O248 Co238 2.021 1_556 S
O248 C245 1.238 . S
O249 Co243 2.052 1_556 S
O249 C245 1.241 . S
O250 Co238 2.137 . S
O250 C241 1.247 . S
O251 Co238 2.244 . S
O251 C241 1.272 . S
O251 Co243 2.135 . S
Co252 O253 2.216 . S
Co252 O254 2.091 . S
Co252 O256 2.004 . S
Co252 O262 2.021 . S
Co252 O264 2.137 . S
Co252 O265 2.244 . S
O253 Co252 2.216 . S
O253 C260 1.247 . S
O254 Co252 2.091 . S
O254 C260 1.261 . S
C255 O264 1.247 1_455 S
C255 O265 1.272 1_455 S
O256 Co252 2.004 . S
O256 C261 1.259 . S
Co257 O258 2.061 . S
Co257 O263 2.052 . S
Co257 O265 2.135 . S
O258 Co257 2.061 . S
O258 C261 1.235 . S
C259 O262 1.238 . S
C259 O263 1.241 . S
C260 O253 1.247 . S
C260 O254 1.261 . S
C261 O256 1.259 . S
C261 O258 1.235 . S
O262 Co252 2.021 . S
O262 C259 1.238 . S
O263 Co257 2.052 . S
O263 C259 1.241 . S
O264 Co252 2.137 . S
O264 C255 1.247 1_655 S
O265 Co252 2.244 . S
O265 C255 1.272 1_655 S
O265 Co257 2.135 . S
Co266 O267 2.216 . S
Co266 O268 2.091 . S
Co266 O270 2.004 . S
Co266 O276 2.021 . S
Co266 O278 2.137 . S
Co266 O279 2.244 . S
O267 Co266 2.216 . S
O267 C274 1.247 . S
O268 Co266 2.091 . S
O268 C274 1.261 . S
C269 O278 1.247 . S
C269 O279 1.272 . S
O270 Co266 2.004 . S
O270 C275 1.259 . S
Co271 O272 2.061 . S
Co271 O277 2.052 . S
Co271 O279 2.135 . S
O272 Co271 2.061 . S
O272 C275 1.235 . S
C273 O276 1.238 . S
C273 O277 1.241 . S
C274 O267 1.247 . S
C274 O268 1.261 . S
C275 O270 1.259 . S
C275 O272 1.235 . S
O276 Co266 2.021 . S
O276 C273 1.238 . S
O277 Co271 2.052 . S
O277 C273 1.241 . S
O278 Co266 2.137 . S
O278 C269 1.247 . S
O279 Co266 2.244 . S
O279 C269 1.272 . S
O279 Co271 2.135 . S
Co280 O281 2.216 . S
Co280 O282 2.091 . S
Co280 O284 2.004 . S
Co280 O290 2.021 . S
Co280 O292 2.137 . S
Co280 O293 2.244 . S
O281 Co280 2.216 . S
O281 C288 1.247 . S
O282 Co280 2.091 . S
O282 C288 1.261 . S
C283 O292 1.247 . S
C283 O293 1.272 . S
O284 Co280 2.004 . S
O284 C289 1.259 . S
Co285 O286 2.061 . S
Co285 O291 2.052 . S
Co285 O293 2.135 . S
O286 Co285 2.061 . S
O286 C289 1.235 . S
C287 O290 1.238 . S
C287 O291 1.241 . S
C288 O281 1.247 . S
C288 O282 1.261 . S
C289 O284 1.259 . S
C289 O286 1.235 . S
O290 Co280 2.021 . S
O290 C287 1.238 . S
O291 Co285 2.052 . S
O291 C287 1.241 . S
O292 Co280 2.137 . S
O292 C283 1.247 . S
O293 Co280 2.244 . S
O293 C283 1.272 . S
O293 Co285 2.135 . S
Co294 O295 2.216 . S
Co294 O296 2.091 . S
Co294 O298 2.004 . S
Co294 O304 2.021 1_556 S
Co294 O306 2.137 . S
Co294 O307 2.244 . S
O295 Co294 2.216 . S
O295 C302 1.247 . S
O296 Co294 2.091 . S
O296 C302 1.261 . S
C297 O306 1.247 . S
C297 O307 1.272 . S
O298 Co294 2.004 . S
O298 C303 1.259 . S
Co299 O300 2.061 . S
Co299 O305 2.052 1_556 S
Co299 O307 2.135 . S
O300 Co299 2.061 . S
O300 C303 1.235 . S
C301 O304 1.238 . S
C301 O305 1.241 . S
C302 O295 1.247 . S
C302 O296 1.261 . S
C303 O298 1.259 . S
C303 O300 1.235 . S
O304 Co294 2.021 1_554 S
O304 C301 1.238 . S
O305 Co299 2.052 1_554 S
O305 C301 1.241 . S
O306 Co294 2.137 . S
O306 C297 1.247 . S
O307 Co294 2.244 . S
O307 C297 1.272 . S
O307 Co299 2.135 . S
Co308 O309 2.216 . S
Co308 O310 2.091 . S
Co308 O312 2.004 . S
Co308 O318 2.021 . S
Co308 O320 2.137 . S
Co308 O321 2.244 . S
O309 Co308 2.216 . S
O309 C316 1.247 . S
O310 Co308 2.091 . S
O310 C316 1.261 . S
C311 O320 1.247 1_455 S
C311 O321 1.272 1_455 S
O312 Co308 2.004 . S
O312 C317 1.259 . S
Co313 O314 2.061 . S
Co313 O319 2.052 . S
Co313 O321 2.135 . S
O314 Co313 2.061 . S
O314 C317 1.235 . S
C315 O318 1.238 . S
C315 O319 1.241 . S
C316 O309 1.247 . S
C316 O310 1.261 . S
C317 O312 1.259 . S
C317 O314 1.235 . S
O318 Co308 2.021 . S
O318 C315 1.238 . S
O319 Co313 2.052 . S
O319 C315 1.241 . S
O320 Co308 2.137 . S
O320 C311 1.247 1_655 S
O321 Co308 2.244 . S
O321 C311 1.272 1_655 S
O321 Co313 2.135 . S
Co322 O323 2.216 . S
Co322 O324 2.091 . S
Co322 O326 2.004 . S
Co322 O332 2.021 . S
Co322 O334 2.137 . S
Co322 O335 2.244 . S
O323 Co322 2.216 . S
O323 C330 1.247 . S
O324 Co322 2.091 . S
O324 C330 1.261 . S
C325 O334 1.247 . S
C325 O335 1.272 . S
O326 Co322 2.004 . S
O326 C331 1.259 . S
Co327 O328 2.061 . S
Co327 O333 2.052 . S
Co327 O335 2.135 . S
O328 Co327 2.061 . S
O328 C331 1.235 . S
C329 O332 1.238 . S
C329 O333 1.241 . S
C330 O323 1.247 . S
C330 O324 1.261 . S
C331 O326 1.259 . S
C331 O328 1.235 . S
O332 Co322 2.021 . S
O332 C329 1.238 . S
O333 Co327 2.052 . S
O333 C329 1.241 . S
O334 Co322 2.137 . S
O334 C325 1.247 . S
O335 Co322 2.244 . S
O335 C325 1.272 . S
O335 Co327 2.135 . S
Co336 O337 2.216 . S
Co336 O338 2.091 . S
Co336 O340 2.004 . S
Co336 O346 2.021 . S
Co336 O348 2.137 . S
Co336 O349 2.244 . S
O337 Co336 2.216 . S
O337 C344 1.247 . S
O338 Co336 2.091 . S
O338 C344 1.261 . S
C339 O348 1.247 . S
C339 O349 1.272 . S
O340 Co336 2.004 . S
O340 C345 1.259 . S
Co341 O342 2.061 . S
Co341 O347 2.052 . S
Co341 O349 2.135 . S
O342 Co341 2.061 . S
O342 C345 1.235 . S
C343 O346 1.238 . S
C343 O347 1.241 . S
C344 O337 1.247 . S
C344 O338 1.261 . S
C345 O340 1.259 . S
C345 O342 1.235 . S
O346 Co336 2.021 . S
O346 C343 1.238 . S
O347 Co341 2.052 . S
O347 C343 1.241 . S
O348 Co336 2.137 . S
O348 C339 1.247 . S
O349 Co336 2.244 . S
O349 C339 1.272 . S
O349 Co341 2.135 . S
Co350 O351 2.216 . S
Co350 O352 2.091 . S
Co350 O354 2.004 . S
Co350 O360 2.021 1_556 S
Co350 O362 2.137 . S
Co350 O363 2.244 . S
O351 Co350 2.216 . S
O351 C358 1.247 . S
O352 Co350 2.091 . S
O352 C358 1.261 . S
C353 O362 1.247 . S
C353 O363 1.272 . S
O354 Co350 2.004 . S
O354 C359 1.259 . S
Co355 O356 2.061 . S
Co355 O361 2.052 1_556 S
Co355 O363 2.135 . S
O356 Co355 2.061 . S
O356 C359 1.235 . S
C357 O360 1.238 . S
C357 O361 1.241 . S
C358 O351 1.247 . S
C358 O352 1.261 . S
C359 O354 1.259 . S
C359 O356 1.235 . S
O360 Co350 2.021 1_554 S
O360 C357 1.238 . S
O361 Co355 2.052 1_554 S
O361 C357 1.241 . S
O362 Co350 2.137 . S
O362 C353 1.247 . S
O363 Co350 2.244 . S
O363 C353 1.272 . S
O363 Co355 2.135 . S
Co364 O365 2.216 . S
Co364 O366 2.091 . S
Co364 O368 2.004 . S
Co364 O374 2.021 . S
Co364 O376 2.137 . S
Co364 O377 2.244 . S
O365 Co364 2.216 . S
O365 C372 1.247 . S
O366 Co364 2.091 . S
O366 C372 1.261 . S
C367 O376 1.247 1_655 S
C367 O377 1.272 1_655 S
O368 Co364 2.004 . S
O368 C373 1.259 . S
Co369 O370 2.061 . S
Co369 O375 2.052 . S
Co369 O377 2.135 . S
O370 Co369 2.061 . S
O370 C373 1.235 . S
C371 O374 1.238 . S
C371 O375 1.241 . S
C372 O365 1.247 . S
C372 O366 1.261 . S
C373 O368 1.259 . S
C373 O370 1.235 . S
O374 Co364 2.021 . S
O374 C371 1.238 . S
O375 Co369 2.052 . S
O375 C371 1.241 . S
O376 Co364 2.137 . S
O376 C367 1.247 1_455 S
O377 Co364 2.244 . S
O377 C367 1.272 1_455 S
O377 Co369 2.135 . S
Co378 O379 2.216 . S
Co378 O380 2.091 . S
Co378 O382 2.004 . S
Co378 O388 2.021 . S
Co378 O390 2.137 . S
Co378 O391 2.244 . S
O379 Co378 2.216 . S
O379 C386 1.247 . S
O380 Co378 2.091 . S
O380 C386 1.261 . S
C381 O390 1.247 . S
C381 O391 1.272 . S
O382 Co378 2.004 . S
O382 C387 1.259 . S
Co383 O384 2.061 . S
Co383 O389 2.052 . S
Co383 O391 2.135 . S
O384 Co383 2.061 . S
O384 C387 1.235 . S
C385 O388 1.238 . S
C385 O389 1.241 . S
C386 O379 1.247 . S
C386 O380 1.261 . S
C387 O382 1.259 . S
C387 O384 1.235 . S
O388 Co378 2.021 . S
O388 C385 1.238 . S
O389 Co383 2.052 . S
O389 C385 1.241 . S
O390 Co378 2.137 . S
O390 C381 1.247 . S
O391 Co378 2.244 . S
O391 C381 1.272 . S
O391 Co383 2.135 . S
Co392 O393 2.216 . S
Co392 O394 2.091 . S
Co392 O396 2.004 . S
Co392 O402 2.021 . S
Co392 O404 2.137 . S
Co392 O405 2.244 . S
O393 Co392 2.216 . S
O393 C400 1.247 . S
O394 Co392 2.091 . S
O394 C400 1.261 . S
C395 O404 1.247 . S
C395 O405 1.272 . S
O396 Co392 2.004 . S
O396 C401 1.259 . S
Co397 O398 2.061 . S
Co397 O403 2.052 . S
Co397 O405 2.135 . S
O398 Co397 2.061 . S
O398 C401 1.235 . S
C399 O402 1.238 . S
C399 O403 1.241 . S
C400 O393 1.247 . S
C400 O394 1.261 . S
C401 O396 1.259 . S
C401 O398 1.235 . S
O402 Co392 2.021 . S
O402 C399 1.238 . S
O403 Co397 2.052 . S
O403 C399 1.241 . S
O404 Co392 2.137 . S
O404 C395 1.247 . S
O405 Co392 2.244 . S
O405 C395 1.272 . S
O405 Co397 2.135 . S
Co406 O407 2.216 . S
Co406 O408 2.091 . S
Co406 O410 2.004 . S
Co406 O416 2.021 1_554 S
Co406 O418 2.137 . S
Co406 O419 2.244 . S
O407 Co406 2.216 . S
O407 C414 1.247 . S
O408 Co406 2.091 . S
O408 C414 1.261 . S
C409 O418 1.247 . S
C409 O419 1.272 . S
O410 Co406 2.004 . S
O410 C415 1.259 . S
Co411 O412 2.061 . S
Co411 O417 2.052 1_554 S
Co411 O419 2.135 . S
O412 Co411 2.061 . S
O412 C415 1.235 . S
C413 O416 1.238 . S
C413 O417 1.241 . S
C414 O407 1.247 . S
C414 O408 1.261 . S
C415 O410 1.259 . S
C415 O412 1.235 . S
O416 Co406 2.021 1_556 S
O416 C413 1.238 . S
O417 Co411 2.052 1_556 S
O417 C413 1.241 . S
O418 Co406 2.137 . S
O418 C409 1.247 . S
O419 Co406 2.244 . S
O419 C409 1.272 . S
O419 Co411 2.135 . S
Co420 O421 2.216 . S
Co420 O422 2.091 . S
Co420 O424 2.004 . S
Co420 O430 2.021 . S
Co420 O432 2.137 . S
Co420 O433 2.244 . S
O421 Co420 2.216 . S
O421 C428 1.247 . S
O422 Co420 2.091 . S
O422 C428 1.261 . S
C423 O432 1.247 1_655 S
C423 O433 1.272 1_655 S
O424 Co420 2.004 . S
O424 C429 1.259 . S
Co425 O426 2.061 . S
Co425 O431 2.052 . S
Co425 O433 2.135 . S
O426 Co425 2.061 . S
O426 C429 1.235 . S
C427 O430 1.238 . S
C427 O431 1.241 . S
C428 O421 1.247 . S
C428 O422 1.261 . S
C429 O424 1.259 . S
C429 O426 1.235 . S
O430 Co420 2.021 . S
O430 C427 1.238 . S
O431 Co425 2.052 . S
O431 C427 1.241 . S
O432 Co420 2.137 . S
O432 C423 1.247 1_455 S
O433 Co420 2.244 . S
O433 C423 1.272 1_455 S
O433 Co425 2.135 . S
Co434 O435 2.216 . S
Co434 O436 2.091 . S
Co434 O438 2.004 . S
Co434 O444 2.021 . S
Co434 O446 2.137 . S
Co434 O447 2.244 . S
O435 Co434 2.216 . S
O435 C442 1.247 . S
O436 Co434 2.091 . S
O436 C442 1.261 . S
C437 O446 1.247 . S
C437 O447 1.272 . S
O438 Co434 2.004 . S
O438 C443 1.259 . S
Co439 O440 2.061 . S
Co439 O445 2.052 . S
Co439 O447 2.135 . S
O440 Co439 2.061 . S
O440 C443 1.235 . S
C441 O444 1.238 . S
C441 O445 1.241 . S
C442 O435 1.247 . S
C442 O436 1.261 . S
C443 O438 1.259 . S
C443 O440 1.235 . S
O444 Co434 2.021 . S
O444 C441 1.238 . S
O445 Co439 2.052 . S
O445 C441 1.241 . S
O446 Co434 2.137 . S
O446 C437 1.247 . S
O447 Co434 2.244 . S
O447 C437 1.272 . S
O447 Co439 2.135 . S
C7 C301 1.278 . S
C315 C21 1.278 . S
C35 C329 1.278 . S
C287 C49 1.278 . S
C63 C273 1.278 . S
C77 C231 1.278 . S
C245 C91 1.278 . S
C105 C259 1.278 . S
C119 C413 1.278 . S
C133 C427 1.278 . S
C441 C147 1.278 . S
C399 C161 1.278 . S
C175 C385 1.278 . S
C343 C189 1.278 . S
C203 C357 1.278 . S
C371 C217 1.278 . S
C9 C129 1.373 . S
C23 C367 1.373 . S
C157 C37 1.374 . S
C51 C339 1.373 . S
C65 C213 1.373 . S
C395 C79 1.373 . S
C185 C93 1.374 . S
C423 C107 1.373 . S
C121 C17 1.373 . S
C255 C135 1.373 . S
C45 C149 1.374 . S
C163 C227 1.373 . S
C101 C177 1.373 . S
C283 C191 1.373 . S
C73 C205 1.374 . S
C219 C311 1.373 . S
C353 C233 1.373 . S
C143 C247 1.373 . S
C381 C261 1.374 . S
C275 C115 1.373 . S
C437 C289 1.373 . S
C171 C303 1.373 . S
C409 C317 1.374 . S
C331 C199 1.373 . S
C345 C241 1.373 . S
C31 C359 1.373 . S
C373 C269 1.374 . S
C387 C3 1.373 . S
C401 C325 1.373 . S
C59 C415 1.373 . S
C297 C429 1.374 . S
C443 C87 1.373 . S
C8 C64 1.748 . S
C22 C78 1.748 . S
C92 C36 1.748 . S
C106 C50 1.748 1_556 S
C176 C120 1.748 . S
C190 C134 1.748 . S
C204 C148 1.748 . S
C218 C162 1.748 1_554 S
C232 C288 1.748 1_565 S
C246 C302 1.748 1_554 S
C260 C316 1.748 1_545 S
C330 C274 1.748 . S
C344 C400 1.748 1_545 S
C414 C358 1.748 1_554 S
C428 C372 1.748 1_545 S
C442 C386 1.748 . S
