# Generated by pormake.
# Topology fni, (5)-cn, num edge types: 1
# Building blocks:
#     Node 0, Type 0, BuildingBlock: XOMCOT_clean_sbu_1, # of connection points: 5
#     Node 1, Type 0, BuildingBlock: XOMCOT_clean_sbu_1, # of connection points: 5
#     Node 2, Type 0, BuildingBlock: XOMCOT_clean_sbu_1, # of connection points: 5
#     Node 3, Type 0, BuildingBlock: XOMCOT_clean_sbu_1, # of connection points: 5
#     Node 4, Type 0, BuildingBlock: XOMCOT_clean_sbu_1, # of connection points: 5
#     Node 5, Type 0, BuildingBlock: XOMCOT_clean_sbu_1, # of connection points: 5
#     Node 6, Type 0, BuildingBlock: XOMCOT_clean_sbu_1, # of connection points: 5
#     Node 7, Type 0, BuildingBlock: XOMCOT_clean_sbu_1, # of connection points: 5
#     Edge 8, Type (0, 0), BuildingBlock: CIFDUS_clean_linker_0, # of connection points: 2
#     Edge 9, Type (0, 0), BuildingBlock: CIFDUS_clean_linker_0, # of connection points: 2
#     Edge 10, Type (0, 0), BuildingBlock: CIFDUS_clean_linker_0, # of connection points: 2
#     Edge 11, Type (0, 0), BuildingBlock: CIFDUS_clean_linker_0, # of connection points: 2
#     Edge 12, Type (0, 0), BuildingBlock: CIFDUS_clean_linker_0, # of connection points: 2
#     Edge 13, Type (0, 0), BuildingBlock: CIFDUS_clean_linker_0, # of connection points: 2
#     Edge 14, Type (0, 0), BuildingBlock: CIFDUS_clean_linker_0, # of connection points: 2
#     Edge 15, Type (0, 0), BuildingBlock: CIFDUS_clean_linker_0, # of connection points: 2
#     Edge 16, Type (0, 0), BuildingBlock: CIFDUS_clean_linker_0, # of connection points: 2
#     Edge 17, Type (0, 0), BuildingBlock: CIFDUS_clean_linker_0, # of connection points: 2
#     Edge 18, Type (0, 0), BuildingBlock: CIFDUS_clean_linker_0, # of connection points: 2
#     Edge 19, Type (0, 0), BuildingBlock: CIFDUS_clean_linker_0, # of connection points: 2
#     Edge 20, Type (0, 0), BuildingBlock: CIFDUS_clean_linker_0, # of connection points: 2
#     Edge 21, Type (0, 0), BuildingBlock: CIFDUS_clean_linker_0, # of connection points: 2
#     Edge 22, Type (0, 0), BuildingBlock: CIFDUS_clean_linker_0, # of connection points: 2
#     Edge 23, Type (0, 0), BuildingBlock: CIFDUS_clean_linker_0, # of connection points: 2
#     Edge 24, Type (0, 0), BuildingBlock: CIFDUS_clean_linker_0, # of connection points: 2
#     Edge 25, Type (0, 0), BuildingBlock: CIFDUS_clean_linker_0, # of connection points: 2
#     Edge 26, Type (0, 0), BuildingBlock: CIFDUS_clean_linker_0, # of connection points: 2
#     Edge 27, Type (0, 0), BuildingBlock: CIFDUS_clean_linker_0, # of connection points: 2
# Relax obj value: 0.167
# Max RMSD: 0.169
# Mean RMSD: 0.163
data_MOF--net-fni--node1-XOMCOT_clean_sbu_1--edge1-CIFDUS_clean_linker_0
_symmetry_space_group_name_H-M    P1
_symmetry_Int_Tables_number       1
_symmetry_cell_setting            triclinic
loop_
_symmetry_equiv_pos_as_xyz
'x, y, z'
_cell_length_a     48.439156
_cell_length_b     46.07416
_cell_length_c     15.745024
_cell_angle_alpha  92.864129
_cell_angle_beta   93.419965
_cell_angle_gamma 90.378556
loop_
_atom_site_label
_atom_site_type_symbol
_atom_site_fract_x
_atom_site_fract_y
_atom_site_fract_z
_atom_type_partial_charge
C0 C 0.41511 0.4091 0.16115 0.0
C1 C 0.41496 0.40943 0.24864 0.0
N2 N 0.43149 0.38799 0.27642 0.0
N3 N 0.43147 0.38741 0.13423 0.0
C4 C 0.44142 0.37526 0.20573 0.0
H5 H 0.40379 0.42349 0.11982 0.0
Co6 Co 0.43893 0.37628 0.02386 0.0
C7 C 0.43646 0.31146 0.0185 0.0
O8 O 0.42557 0.31138 0.94002 0.0
N9 N 0.44751 0.36545 0.91138 0.0
C10 C 0.47129 0.34847 0.80278 0.0
C11 C 0.46876 0.34829 0.88935 0.0
C12 C 0.43816 0.37653 0.83731 0.0
N13 N 0.45209 0.36648 0.77064 0.0
O14 O 0.47735 0.38567 0.05021 0.0
H15 H 0.48223 0.33713 0.93398 0.0
H16 H 0.42223 0.39259 0.83154 0.0
O17 O 0.44337 0.33567 0.05801 0.0
C18 C 0.48167 0.41037 0.01985 0.0
O19 O 0.46107 0.42319 0.97916 0.0
N20 N 0.4007 0.37078 0.99815 0.0
C21 C 0.3439 0.37231 0.95965 0.0
C22 C 0.35522 0.35071 0.01025 0.0
C23 C 0.38381 0.35054 0.0299 0.0
C24 C 0.3894 0.39337 0.95609 0.0
C25 C 0.36122 0.39406 0.93348 0.0
H26 H 0.39191 0.3349 0.0733 0.0
H27 H 0.40231 0.41152 0.94208 0.0
H28 H 0.456 0.35759 0.20591 0.0
H29 H 0.40315 0.42395 0.2883 0.0
H30 H 0.48685 0.33741 0.76701 0.0
H31 H 0.3421 0.33439 0.03497 0.0
H32 H 0.35289 0.41197 0.89831 0.0
C33 C 0.62357 0.96266 0.16949 0.0
C34 C 0.62724 0.96403 0.08386 0.0
N35 N 0.60971 0.94496 0.04069 0.0
N36 N 0.60403 0.94256 0.18132 0.0
C37 C 0.59566 0.93233 0.1014 0.0
H38 H 0.6346 0.97543 0.22034 0.0
Co39 Co 0.59312 0.93347 0.29011 0.0
C40 C 0.58966 0.86997 0.28673 0.0
O41 O 0.60183 0.87198 0.36367 0.0
N42 N 0.58092 0.92515 0.40107 0.0
C43 C 0.5517 0.90918 0.49343 0.0
C44 C 0.55662 0.91122 0.40898 0.0
C45 C 0.58992 0.93204 0.48346 0.0
N46 N 0.57263 0.92235 0.54097 0.0
O47 O 0.55668 0.94632 0.25979 0.0
H48 H 0.54308 0.90296 0.35602 0.0
H49 H 0.60816 0.9448 0.50206 0.0
O50 O 0.58389 0.89313 0.2476 0.0
C51 C 0.55457 0.97382 0.26919 0.0
O52 O 0.57675 0.98913 0.29514 0.0
N53 N 0.63007 0.923 0.31895 0.0
C54 C 0.68584 0.91194 0.35575 0.0
C55 C 0.67128 0.89674 0.28812 0.0
C56 C 0.64354 0.90296 0.2698 0.0
C57 C 0.64475 0.93983 0.37964 0.0
C58 C 0.67247 0.93396 0.40144 0.0
H59 H 0.63315 0.89219 0.21425 0.0
H60 H 0.63536 0.95873 0.40858 0.0
H61 H 0.57993 0.91566 0.08807 0.0
H62 H 0.64155 0.97827 0.05542 0.0
H63 H 0.53397 0.89863 0.51755 0.0
H64 H 0.68136 0.88044 0.24911 0.0
H65 H 0.68365 0.94729 0.45087 0.0
C66 C 0.05263 0.12054 0.47059 0.0
C67 C 0.04826 0.12167 0.38368 0.0
N68 N 0.07071 0.1112 0.34585 0.0
N69 N 0.07783 0.10962 0.48909 0.0
C70 C 0.08841 0.10405 0.41178 0.0
H71 H 0.03839 0.12751 0.5177 0.0
Co72 Co 0.09199 0.1048 0.60197 0.0
C73 C 0.1522 0.11638 0.59342 0.0
O74 O 0.15228 0.13185 0.6659 0.0
N75 N 0.1061 0.09916 0.71771 0.0
C76 C 0.13119 0.07967 0.82391 0.0
C77 C 0.12706 0.08092 0.737 0.0
C78 C 0.0972 0.10782 0.79561 0.0
N79 N 0.11237 0.09655 0.86125 0.0
O80 O 0.08893 0.06322 0.58148 0.0
H81 H 0.13832 0.06856 0.69045 0.0
H82 H 0.07958 0.12153 0.80496 0.0
O83 O 0.12974 0.10425 0.56212 0.0
C84 C 0.07268 0.0489 0.62511 0.0
O85 O 0.05965 0.06263 0.68572 0.0
N86 N 0.09262 0.1457 0.62063 0.0
C87 C 0.09092 0.20531 0.65911 0.0
C88 C 0.10867 0.19404 0.59898 0.0
C89 C 0.10841 0.16422 0.57811 0.0
C90 C 0.07307 0.15675 0.67172 0.0
C91 C 0.07211 0.18654 0.69306 0.0
H92 H 0.12107 0.15618 0.52814 0.0
H93 H 0.05808 0.14236 0.69609 0.0
H94 H 0.10857 0.09466 0.40406 0.0
H95 H 0.02992 0.13008 0.35131 0.0
H96 H 0.14631 0.06644 0.85703 0.0
H97 H 0.12269 0.20817 0.5688 0.0
H98 H 0.05747 0.19467 0.73767 0.0
C99 C 0.85003 0.59927 0.67915 0.0
C100 C 0.84951 0.59994 0.59202 0.0
N101 N 0.87146 0.61563 0.57104 0.0
N102 N 0.87196 0.61484 0.71339 0.0
C103 C 0.88466 0.62446 0.64598 0.0
H104 H 0.83574 0.58732 0.7146 0.0
Co105 Co 0.88442 0.61857 0.82721 0.0
C106 C 0.90029 0.68137 0.8595 0.0
O107 O 0.89239 0.68133 0.9379 0.0
N108 N 0.89776 0.62148 0.94219 0.0
C109 C 0.92626 0.62856 0.05814 0.0
C110 C 0.92364 0.62983 0.97088 0.0
C111 C 0.88545 0.61433 0.01316 0.0
N112 N 0.90218 0.61866 0.08418 0.0
O113 O 0.91966 0.60424 0.79793 0.0
H114 H 0.93961 0.63669 0.93083 0.0
H115 H 0.8646 0.60612 0.01402 0.0
O116 O 0.89703 0.65856 0.81003 0.0
C117 C 0.92127 0.57664 0.79435 0.0
O118 O 0.89885 0.56132 0.80488 0.0
N119 N 0.84868 0.6299 0.85617 0.0
C120 C 0.79418 0.63594 0.90345 0.0
C121 C 0.80904 0.65994 0.87732 0.0
C122 C 0.83621 0.65635 0.85224 0.0
C123 C 0.83402 0.60627 0.87745 0.0
C124 C 0.80696 0.60878 0.90191 0.0
H125 H 0.84679 0.67473 0.82903 0.0
H126 H 0.8438 0.58521 0.87699 0.0
H127 H 0.90398 0.63652 0.6519 0.0
H128 H 0.83432 0.58923 0.54776 0.0
H129 H 0.94452 0.63398 0.09901 0.0
H130 H 0.79966 0.68118 0.87543 0.0
H131 H 0.79644 0.58966 0.92163 0.0
C132 C 0.35208 0.09728 0.14792 0.0
C133 C 0.35178 0.09768 0.06063 0.0
N134 N 0.37361 0.11359 0.03985 0.0
N135 N 0.3738 0.11318 0.1823 0.0
C136 C 0.38659 0.12263 0.11485 0.0
H137 H 0.33768 0.08547 0.18333 0.0
Co138 Co 0.38615 0.11853 0.29625 0.0
C139 C 0.40076 0.18267 0.31676 0.0
O140 O 0.39423 0.18474 0.39665 0.0
N141 N 0.39932 0.12323 0.41093 0.0
C142 C 0.4271 0.13229 0.52747 0.0
C143 C 0.42454 0.13344 0.4401 0.0
C144 C 0.3874 0.11509 0.48157 0.0
N145 N 0.40368 0.12059 0.55306 0.0
O146 O 0.4217 0.10476 0.26846 0.0
H147 H 0.44017 0.1412 0.40023 0.0
H148 H 0.36723 0.10512 0.48163 0.0
O149 O 0.39755 0.15842 0.27389 0.0
C150 C 0.42332 0.07715 0.26411 0.0
O151 O 0.40093 0.06177 0.27447 0.0
N152 N 0.3502 0.12921 0.32448 0.0
C153 C 0.29686 0.13438 0.38168 0.0
C154 C 0.31096 0.15876 0.35484 0.0
C155 C 0.33754 0.15562 0.32479 0.0
C156 C 0.33608 0.10519 0.34562 0.0
C157 C 0.30957 0.10725 0.37475 0.0
H158 H 0.34762 0.1744 0.30231 0.0
H159 H 0.34607 0.08426 0.34283 0.0
H160 H 0.4058 0.13485 0.1208 0.0
H161 H 0.33673 0.08686 0.01615 0.0
H162 H 0.44497 0.13887 0.56865 0.0
H163 H 0.30154 0.18001 0.35714 0.0
H164 H 0.2996 0.08786 0.3949 0.0
C165 C 0.91794 0.91867 0.71621 0.0
C166 C 0.91871 0.92131 0.80397 0.0
N167 N 0.93192 0.89807 0.83454 0.0
N168 N 0.93021 0.89367 0.69172 0.0
C169 C 0.93869 0.88184 0.76545 0.0
H170 H 0.90921 0.93418 0.67312 0.0
Co171 Co 0.93513 0.88016 0.57989 0.0
C172 C 0.955 0.82299 0.64734 0.0
O173 O 0.98024 0.83216 0.66991 0.0
N174 N 0.9401 0.867 0.4673 0.0
C175 C 0.95396 0.84318 0.35137 0.0
C176 C 0.9545 0.84387 0.43894 0.0
C177 C 0.93123 0.8801 0.39592 0.0
N178 N 0.93929 0.86606 0.32447 0.0
O179 O 0.9742 0.88722 0.59943 0.0
H180 H 0.9653 0.82873 0.47894 0.0
H181 H 0.92011 0.90034 0.39633 0.0
O182 O 0.93734 0.84016 0.61435 0.0
C183 C 0.98152 0.90983 0.5624 0.0
O184 O 0.96314 0.92257 0.51249 0.0
N185 N 0.89684 0.87648 0.56012 0.0
C186 C 0.84 0.87997 0.52597 0.0
C187 C 0.85153 0.85514 0.56128 0.0
C188 C 0.8802 0.85371 0.5777 0.0
C189 C 0.88573 0.90101 0.52818 0.0
C190 C 0.85742 0.9031 0.50961 0.0
H191 H 0.88866 0.83444 0.60505 0.0
H192 H 0.89907 0.91922 0.51751 0.0
H193 H 0.94954 0.86164 0.76943 0.0
H194 H 0.91067 0.93915 0.84217 0.0
H195 H 0.96373 0.82713 0.31087 0.0
H196 H 0.83856 0.83693 0.57511 0.0
H197 H 0.84917 0.92285 0.48392 0.0
C198 C 0.12211 0.45656 0.71501 0.0
C199 C 0.1217 0.45751 0.62785 0.0
N200 N 0.10003 0.44138 0.5945 0.0
N201 N 0.10105 0.43956 0.73581 0.0
C202 C 0.08783 0.43082 0.66123 0.0
H203 H 0.13656 0.46786 0.76037 0.0
Co204 Co 0.09125 0.43216 0.8435 0.0
C205 C 0.08321 0.36882 0.84393 0.0
O206 O 0.0961 0.36989 0.91989 0.0
N207 N 0.0803 0.42546 0.95341 0.0
C208 C 0.05434 0.41186 0.057 0.0
C209 C 0.0557 0.41368 0.97047 0.0
C210 C 0.09297 0.43158 0.03096 0.0
N211 N 0.07799 0.42298 0.09471 0.0
O212 O 0.05507 0.44659 0.81627 0.0
H213 H 0.03987 0.40638 0.92267 0.0
H214 H 0.11242 0.44283 0.04204 0.0
O215 O 0.0793 0.39227 0.80454 0.0
C216 C 0.0532 0.47418 0.81973 0.0
O217 O 0.07566 0.48981 0.83981 0.0
N218 N 0.12805 0.41991 0.86909 0.0
C219 C 0.18319 0.40619 0.9091 0.0
C220 C 0.16713 0.38896 0.84892 0.0
C221 C 0.13985 0.39666 0.82807 0.0
C222 C 0.14443 0.43869 0.91966 0.0
C223 C 0.17175 0.43176 0.94313 0.0
H224 H 0.12854 0.38417 0.77751 0.0
H225 H 0.13632 0.45941 0.94115 0.0
H226 H 0.06952 0.41709 0.65603 0.0
H227 H 0.13574 0.46971 0.59188 0.0
H228 H 0.03751 0.40262 0.08927 0.0
H229 H 0.17557 0.36974 0.81805 0.0
H230 H 0.18403 0.44664 0.98566 0.0
C231 C 0.54529 0.6161 0.94054 0.0
C232 C 0.54446 0.61626 0.85302 0.0
N233 N 0.56887 0.60643 0.82683 0.0
N234 N 0.57013 0.60638 0.969 0.0
C235 C 0.58381 0.60017 0.89848 0.0
H236 H 0.52931 0.6237 0.9811 0.0
Co237 Co 0.58326 0.6056 0.08091 0.0
C238 C 0.64306 0.62081 0.07669 0.0
O239 O 0.64089 0.63847 0.14414 0.0
N240 N 0.59628 0.60387 0.19534 0.0
C241 C 0.61849 0.58714 0.31056 0.0
C242 C 0.61809 0.58806 0.22352 0.0
C243 C 0.58326 0.61144 0.26654 0.0
N244 N 0.59639 0.60168 0.33724 0.0
O245 O 0.5821 0.56367 0.07274 0.0
H246 H 0.63185 0.57625 0.18297 0.0
H247 H 0.56358 0.62214 0.26687 0.0
O248 O 0.62186 0.60617 0.04584 0.0
C249 C 0.56149 0.55426 0.11051 0.0
O250 O 0.54491 0.57325 0.14547 0.0
N251 N 0.58147 0.64674 0.08857 0.0
C252 C 0.57324 0.70671 0.10429 0.0
C253 C 0.59337 0.69513 0.0522 0.0
C254 C 0.59652 0.66501 0.04292 0.0
C255 C 0.5599 0.65755 0.13176 0.0
C256 C 0.55574 0.68745 0.14202 0.0
H257 H 0.6108 0.65658 0.99804 0.0
H258 H 0.54534 0.64286 0.15672 0.0
H259 H 0.60455 0.59165 0.89969 0.0
H260 H 0.52767 0.62427 0.81245 0.0
H261 H 0.63274 0.57497 0.35035 0.0
H262 H 0.60638 0.70922 0.01826 0.0
H263 H 0.53927 0.69536 0.18035 0.0
H264 H 0.56476 0.51071 0.98696 0.0
H265 H 0.54276 0.5283 0.24557 0.0
H266 H 0.52136 0.48029 0.2474 0.0
H267 H 0.5008 0.4378 0.16636 0.0
H268 H 0.51832 0.42226 0.90349 0.0
H269 H 0.55002 0.46407 0.91244 0.0
C270 C 0.55607 0.50355 0.04438 0.0
C271 C 0.5551 0.52301 0.11576 0.0
C272 C 0.54277 0.47619 0.04387 0.0
C273 C 0.54349 0.51371 0.18958 0.0
C274 C 0.53119 0.48628 0.19065 0.0
C275 C 0.51267 0.4428 0.11254 0.0
C276 C 0.50778 0.42678 0.03496 0.0
C277 C 0.52957 0.46787 0.11696 0.0
C278 C 0.52235 0.43401 0.96438 0.0
C279 C 0.54013 0.4582 0.96917 0.0
H280 H 0.43196 0.01916 0.24267 0.0
H281 H 0.47491 0.10185 0.26641 0.0
H282 H 0.51929 0.07693 0.26528 0.0
H283 H 0.54578 0.03179 0.26645 0.0
H284 H 0.50297 0.94903 0.24396 0.0
H285 H 0.45851 0.97396 0.23519 0.0
C286 C 0.45101 0.03178 0.247 0.0
C287 C 0.4501 0.06235 0.25527 0.0
C288 C 0.47643 0.01731 0.24691 0.0
C289 C 0.47499 0.07833 0.2601 0.0
C290 C 0.50038 0.06409 0.25974 0.0
C291 C 0.52674 0.01915 0.25915 0.0
C292 C 0.52769 0.98857 0.25658 0.0
C293 C 0.50133 0.0336 0.2546 0.0
C294 C 0.50283 0.97257 0.24624 0.0
C295 C 0.47741 0.98682 0.24146 0.0
H296 H 0.01473 0.93688 0.45971 0.0
H297 H 0.00413 0.92111 0.72323 0.0
H298 H 0.03538 0.96183 0.76755 0.0
H299 H 0.05816 1.0072 0.72988 0.0
H300 H 0.06917 0.02249 0.46602 0.0
H301 H 0.04567 0.97644 0.42294 0.0
C302 C 0.02018 0.94171 0.52681 0.0
C303 C 0.00717 0.92619 0.58824 0.0
C304 C 0.03776 0.9654 0.55152 0.0
C305 C 0.01418 0.93257 0.67495 0.0
C306 C 0.03172 0.95613 0.70019 0.0
C307 C 0.05601 1.00003 0.66311 0.0
C308 C 0.06494 0.01836 0.60102 0.0
C309 C 0.04248 0.97354 0.63894 0.0
C310 C 0.06242 1.00876 0.51486 0.0
C311 C 0.04882 0.98253 0.49023 0.0
H312 H 0.04414 0.53201 0.80905 0.0
H313 H 0.00174 0.44906 0.79736 0.0
H314 H 0.95721 0.47355 0.78273 0.0
H315 H 0.93037 0.51853 0.78155 0.0
H316 H 0.97277 0.6015 0.79481 0.0
H317 H 0.01734 0.57688 0.7997 0.0
C318 C 0.02518 0.51923 0.80292 0.0
C319 C 0.02628 0.48873 0.80505 0.0
C320 C 0.99967 0.53345 0.79487 0.0
C321 C 0.0015 0.47254 0.79618 0.0
C322 C 0.97603 0.48654 0.78795 0.0
C323 C 0.94934 0.53128 0.78482 0.0
C324 C 0.94821 0.56186 0.78838 0.0
C325 C 0.97487 0.51699 0.78843 0.0
C326 C 0.97302 0.57797 0.79206 0.0
C327 C 0.99852 0.5639 0.79519 0.0
H328 H 0.42831 0.42215 0.41942 0.0
H329 H 0.44683 0.33492 0.32864 0.0
H330 H 0.45604 0.32079 0.47444 0.0
H331 H 0.4578 0.3329 0.62873 0.0
H332 H 0.43795 0.41966 0.71913 0.0
H333 H 0.42988 0.43418 0.57284 0.0
C334 C 0.43413 0.4 0.43143 0.0
C335 C 0.43692 0.37973 0.36286 0.0
C336 C 0.43909 0.39189 0.51559 0.0
C337 C 0.44491 0.35117 0.37984 0.0
C338 C 0.45004 0.34297 0.4634 0.0
C339 C 0.45193 0.355 0.61606 0.0
C340 C 0.44832 0.37511 0.68431 0.0
C341 C 0.44717 0.36314 0.53178 0.0
C342 C 0.44043 0.40366 0.66749 0.0
C343 C 0.43595 0.41202 0.58392 0.0
H344 H 0.56322 0.93227 0.94068 0.0
H345 H 0.65108 0.94603 0.9333 0.0
H346 H 0.64758 0.94043 0.77798 0.0
H347 H 0.61951 0.93218 0.64296 0.0
H348 H 0.53124 0.92024 0.65023 0.0
H349 H 0.53504 0.92422 0.80503 0.0
C350 C 0.58159 0.93373 0.90501 0.0
C351 C 0.60736 0.93964 0.94896 0.0
C352 C 0.57939 0.93086 0.81495 0.0
C353 C 0.63094 0.94181 0.90136 0.0
C354 C 0.62897 0.93856 0.81231 0.0
C355 C 0.60104 0.93069 0.67808 0.0
C356 C 0.57515 0.92571 0.63357 0.0
C357 C 0.60326 0.93334 0.76813 0.0
C358 C 0.55158 0.92355 0.68151 0.0
C359 C 0.55367 0.92599 0.7707 0.0
H360 H 0.06462 0.10341 0.94213 0.0
H361 H 0.15298 0.0978 0.98698 0.0
H362 H 0.14823 0.1015 0.14082 0.0
H363 H 0.1189 0.10615 0.26419 0.0
H364 H 0.03025 0.10971 0.21793 0.0
H365 H 0.0353 0.10731 0.06534 0.0
C366 C 0.08284 0.1033 0.98554 0.0
C367 C 0.10914 0.10034 0.95238 0.0
C368 C 0.07994 0.10506 0.07467 0.0
C369 C 0.13246 0.0998 0.01023 0.0
C370 C 0.12976 0.10198 0.09854 0.0
C371 C 0.10063 0.1062 0.22105 0.0
C372 C 0.07422 0.10849 0.25433 0.0
C373 C 0.10358 0.10443 0.13184 0.0
C374 C 0.05094 0.10863 0.19588 0.0
C375 C 0.05375 0.10707 0.10774 0.0
H376 H 0.91822 0.65082 0.226 0.0
H377 H 0.87056 0.57514 0.13398 0.0
H378 H 0.85699 0.56732 0.278 0.0
H379 H 0.85846 0.58208 0.42892 0.0
H380 H 0.90432 0.65902 0.52198 0.0
H381 H 0.91929 0.66597 0.37894 0.0
C382 C 0.90509 0.6325 0.23798 0.0
C383 C 0.89535 0.6136 0.16978 0.0
C384 C 0.8971 0.62837 0.32088 0.0
C385 C 0.87804 0.59013 0.1855 0.0
C386 C 0.87037 0.58561 0.26776 0.0
C387 C 0.87142 0.60062 0.41816 0.0
C388 C 0.88012 0.62002 0.48648 0.0
C389 C 0.87959 0.60472 0.33573 0.0
C390 C 0.8975 0.64353 0.47099 0.0
C391 C 0.90598 0.64762 0.38904 0.0
H392 H 0.36157 0.08028 0.89661 0.0
H393 H 0.40499 0.15836 0.99245 0.0
H394 H 0.41948 0.16677 0.84981 0.0
H395 H 0.41865 0.15257 0.69636 0.0
H396 H 0.3738 0.07537 0.60141 0.0
H397 H 0.36063 0.06622 0.74493 0.0
C398 C 0.37393 0.09932 0.88645 0.0
C399 C 0.38208 0.11865 0.95548 0.0
C400 C 0.38189 0.10421 0.80417 0.0
C401 C 0.39864 0.1429 0.94089 0.0
C402 C 0.40683 0.14783 0.85915 0.0
C403 C 0.40623 0.13363 0.70751 0.0
C404 C 0.39713 0.11473 0.6385 0.0
C405 C 0.39852 0.12865 0.79023 0.0
C406 C 0.38075 0.09043 0.65339 0.0
C407 C 0.37331 0.08513 0.73543 0.0
H408 H 0.97115 0.85465 0.19248 0.0
H409 H 0.89596 0.89697 0.26163 0.0
H410 H 0.88756 0.91196 0.11585 0.0
H411 H 0.90103 0.91193 0.9673 0.0
H412 H 0.97594 0.86891 0.89895 0.0
H413 H 0.98476 0.85494 0.0453 0.0
C414 C 0.95279 0.8669 0.1756 0.0
C415 C 0.93423 0.87461 0.23808 0.0
C416 C 0.94799 0.87528 0.09157 0.0
C417 C 0.91078 0.891 0.21518 0.0
C418 C 0.90588 0.89948 0.13165 0.0
C419 C 0.91941 0.89979 0.98479 0.0
C420 C 0.93769 0.89136 0.92218 0.0
C421 C 0.92433 0.89171 0.06925 0.0
C422 C 0.9613 0.8753 0.94557 0.0
C423 C 0.96643 0.8674 0.02936 0.0
H424 H 0.13298 0.43623 0.46466 0.0
H425 H 0.04756 0.43644 0.52677 0.0
H426 H 0.03283 0.43002 0.37555 0.0
H427 H 0.0445 0.42602 0.22565 0.0
H428 H 0.1303 0.42414 0.16544 0.0
H429 H 0.14465 0.43007 0.3159 0.0
C430 C 0.11117 0.43502 0.44479 0.0
C431 C 0.09138 0.43696 0.50613 0.0
C432 C 0.10295 0.43123 0.35826 0.0
C433 C 0.06314 0.43479 0.48029 0.0
C434 C 0.05474 0.43126 0.39402 0.0
C435 C 0.06631 0.42659 0.24547 0.0
C436 C 0.08622 0.42509 0.18411 0.0
C437 C 0.07449 0.4296 0.33241 0.0
C438 C 0.11447 0.42602 0.211 0.0
C439 C 0.12275 0.42917 0.29716 0.0
H440 H 0.53711 0.60299 0.68 0.0
H441 H 0.622 0.60824 0.78095 0.0
H442 H 0.63792 0.60684 0.63748 0.0
H443 H 0.62791 0.60487 0.48287 0.0
H444 H 0.54325 0.60099 0.38141 0.0
H445 H 0.52707 0.602 0.5254 0.0
C446 C 0.55907 0.60407 0.67076 0.0
C447 C 0.57821 0.60545 0.74157 0.0
C448 C 0.56817 0.6038 0.58786 0.0
C449 C 0.60668 0.60651 0.72806 0.0
C450 C 0.61588 0.60599 0.64583 0.0
C451 C 0.60595 0.60414 0.49255 0.0
C452 C 0.58684 0.60298 0.42192 0.0
C453 C 0.59682 0.60464 0.57534 0.0
C454 C 0.55838 0.60237 0.4349 0.0
C455 C 0.54911 0.60271 0.51717 0.0
H456 H 0.22297 0.3891 0.80362 0.0
H457 H 0.20813 0.40592 0.06883 0.0
H458 H 0.25623 0.39425 0.109 0.0
H459 H 0.30316 0.38144 0.06772 0.0
H460 H 0.31833 0.3675 0.80209 0.0
H461 H 0.26935 0.37526 0.76271 0.0
C462 C 0.23021 0.38986 0.87024 0.0
C463 C 0.2121 0.39833 0.93321 0.0
C464 C 0.2579 0.38352 0.89262 0.0
C465 C 0.22183 0.3997 0.01923 0.0
C466 C 0.24925 0.39291 0.04221 0.0
C467 C 0.29549 0.37965 1.00149 0.0
C468 C 0.31397 0.37365 0.93771 0.0
C469 C 0.26754 0.38505 0.9794 0.0
C470 C 0.30421 0.37192 0.8519 0.0
C471 C 0.27633 0.37647 0.8295 0.0
H472 H 0.54662 0.83752 0.21124 0.0
H473 H 0.63509 0.83875 0.26102 0.0
H474 H 0.63809 0.7893 0.20022 0.0
H475 H 0.61541 0.7442 0.14598 0.0
H476 H 0.52666 0.74045 0.10516 0.0
H477 H 0.52377 0.79206 0.14944 0.0
C478 C 0.56648 0.82699 0.207 0.0
C479 C 0.59063 0.84168 0.23951 0.0
C480 C 0.56795 0.79796 0.17473 0.0
C481 C 0.61629 0.82783 0.23558 0.0
C482 C 0.61801 0.79952 0.20125 0.0
C483 C 0.59547 0.75481 0.14515 0.0
C484 C 0.57132 0.73856 0.12236 0.0
C485 C 0.59396 0.78416 0.17244 0.0
C486 C 0.54556 0.75248 0.12317 0.0
C487 C 0.54391 0.78199 0.14832 0.0
H488 H 0.2513 0.09936 0.35237 0.0
H489 H 0.28202 0.17504 0.50195 0.0
H490 H 0.23998 0.1761 0.58049 0.0
H491 H 0.19568 0.15408 0.61171 0.0
H492 H 0.16432 0.07893 0.4608 0.0
H493 H 0.20561 0.07888 0.37839 0.0
C494 C 0.24872 0.11615 0.40195 0.0
C495 C 0.26984 0.13702 0.42152 0.0
C496 C 0.22457 0.11649 0.44729 0.0
C497 C 0.266 0.1589 0.48503 0.0
C498 C 0.24208 0.15935 0.53053 0.0
C499 C 0.19791 0.13759 0.56104 0.0
C500 C 0.17714 0.11625 0.54329 0.0
C501 C 0.22146 0.13798 0.51315 0.0
C502 C 0.1801 0.09544 0.47619 0.0
C503 C 0.20368 0.09544 0.42897 0.0
H504 H 0.89797 0.70181 0.69925 0.0
H505 H 0.93274 0.72016 0.95498 0.0
H506 H 0.95496 0.76415 0.91022 0.0
H507 H 0.96316 0.79864 0.79962 0.0
H508 H 0.92421 0.78357 0.54808 0.0
H509 H 0.90519 0.73717 0.5891 0.0
C510 C 0.91053 0.71542 0.74486 0.0
C511 C 0.91375 0.70774 0.83026 0.0
C512 C 0.92256 0.74128 0.71923 0.0
C513 C 0.92981 0.72571 0.88901 0.0
C514 C 0.94261 0.75083 0.86342 0.0
C515 C 0.95085 0.78491 0.75366 0.0
C516 C 0.94546 0.79409 0.67064 0.0
C517 C 0.939 0.75896 0.77888 0.0
C518 C 0.92881 0.77666 0.61214 0.0
C519 C 0.91788 0.75023 0.63568 0.0
H520 H 0.81464 0.89372 0.37664 0.0
H521 H 0.79836 0.87159 0.63173 0.0
H522 H 0.74883 0.87992 0.60211 0.0
H523 H 0.71043 0.89532 0.50426 0.0
H524 H 0.72699 0.91538 0.24763 0.0
H525 H 0.77627 0.90629 0.27702 0.0
C526 C 0.80015 0.89063 0.42548 0.0
C527 C 0.80994 0.88227 0.50625 0.0
C528 C 0.77191 0.89532 0.40781 0.0
C529 C 0.79112 0.87791 0.56895 0.0
C530 C 0.76291 0.88285 0.55219 0.0
C531 C 0.72496 0.89768 0.45517 0.0
C532 C 0.71541 0.90617 0.37428 0.0
C533 C 0.75312 0.89189 0.47213 0.0
C534 C 0.73411 0.90886 0.31034 0.0
C535 C 0.76218 0.90368 0.32711 0.0
H536 H 0.0521 0.24809 0.65181 0.0
H537 H 0.13609 0.23058 0.73928 0.0
H538 H 0.14105 0.27986 0.80345 0.0
H539 H 0.1211 0.32706 0.83937 0.0
H540 H 0.03854 0.34713 0.74465 0.0
H541 H 0.03327 0.29779 0.67767 0.0
C542 C 0.07145 0.2553 0.68453 0.0
C543 C 0.0937 0.2359 0.69148 0.0
C544 C 0.07432 0.28394 0.71988 0.0
C545 C 0.11881 0.2453 0.73318 0.0
C546 C 0.1216 0.27337 0.77002 0.0
C547 C 0.10195 0.3206 0.80391 0.0
C548 C 0.08003 0.34029 0.79782 0.0
C549 C 0.09944 0.29271 0.76453 0.0
C550 C 0.05558 0.3321 0.75024 0.0
C551 C 0.05259 0.30395 0.71232 0.0
H552 H 0.68595 0.65918 0.09965 0.0
H553 H 0.65898 0.58132 0.95349 0.0
H554 H 0.70276 0.58005 0.88337 0.0
H555 H 0.74936 0.60021 0.86737 0.0
H556 H 0.7758 0.67835 0.01289 0.0
H557 H 0.7313 0.68069 0.07816 0.0
C558 C 0.68962 0.64186 0.0526 0.0
C559 C 0.66933 0.62013 0.03276 0.0
C560 C 0.71468 0.64145 0.01196 0.0
C561 C 0.6743 0.59819 0.97044 0.0
C562 C 0.69932 0.59747 0.93026 0.0
C563 C 0.74534 0.61778 0.91327 0.0
C564 C 0.76599 0.63899 0.93557 0.0
C565 C 0.71976 0.61886 0.95108 0.0
C566 C 0.76026 0.6619 0.994 0.0
C567 C 0.73489 0.6631 0.03193 0.0
H568 H 0.43314 0.306 0.18968 0.0
H569 H 0.43493 0.25597 0.95114 0.0
H570 H 0.42525 0.21154 0.02265 0.0
H571 H 0.41303 0.18735 0.1508 0.0
H572 H 0.4098 0.23744 0.38902 0.0
H573 H 0.42328 0.2812 0.32 0.0
C574 C 0.43201 0.2853 0.15375 0.0
C575 C 0.43487 0.28434 0.06516 0.0
C576 C 0.42577 0.25982 0.19505 0.0
C577 C 0.43282 0.25735 0.01933 0.0
C578 C 0.42716 0.23191 0.06014 0.0
C579 C 0.41541 0.20775 0.18789 0.0
C580 C 0.41017 0.20898 0.27502 0.0
C581 C 0.42301 0.23296 0.14763 0.0
C582 C 0.41349 0.23575 0.3218 0.0
C583 C 0.42127 0.26086 0.28237 0.0
loop_
_geom_bond_atom_site_label_1
_geom_bond_atom_site_label_2
_geom_bond_distance
_geom_bond_site_symmetry_2
_ccdc_geom_bond_type
C0 C1 1.351 . S
C0 N3 1.368 . S
C0 H5 0.931 . S
C1 C0 1.351 . S
C1 N2 1.373 . S
C1 H29 0.930 . S
N2 C1 1.373 . S
N2 C4 1.340 . S
N3 C0 1.368 . S
N3 C4 1.321 . S
N3 Co6 2.135 . S
C4 N2 1.340 . S
C4 N3 1.321 . S
C4 H28 0.930 . S
H5 C0 0.931 . S
Co6 N3 2.135 . S
Co6 N9 2.121 1_554 S
Co6 O14 2.055 . S
Co6 O17 2.039 . S
Co6 N20 2.140 . S
C7 O8 1.227 . S
C7 O17 1.265 . S
O8 C7 1.227 . S
N9 Co6 2.121 1_556 S
N9 C11 1.375 . S
N9 C12 1.313 . S
C10 C11 1.338 . S
C10 N13 1.377 . S
C10 H30 0.930 . S
C11 N9 1.375 . S
C11 C10 1.338 . S
C11 H15 0.931 . S
C12 N9 1.313 . S
C12 N13 1.344 . S
C12 H16 0.930 . S
N13 C10 1.377 . S
N13 C12 1.344 . S
O14 Co6 2.055 . S
O14 C18 1.253 . S
H15 C11 0.931 . S
H16 C12 0.930 . S
O17 Co6 2.039 . S
O17 C7 1.265 . S
C18 O14 1.253 . S
C18 O19 1.227 . S
O19 C18 1.227 . S
N20 Co6 2.140 . S
N20 C23 1.346 . S
N20 C24 1.345 . S
C21 C22 1.387 . S
C21 C25 1.391 1_554 S
C22 C21 1.387 . S
C22 C23 1.369 . S
C22 H31 0.929 . S
C23 N20 1.346 . S
C23 C22 1.369 . S
C23 H26 0.928 . S
C24 N20 1.345 . S
C24 C25 1.371 1_554 S
C24 H27 0.931 1_554 S
C25 C21 1.391 1_556 S
C25 C24 1.371 1_556 S
C25 H32 0.930 . S
H26 C23 0.928 . S
H27 C24 0.931 1_556 S
H28 C4 0.930 . S
H29 C1 0.930 . S
H30 C10 0.930 . S
H31 C22 0.929 . S
H32 C25 0.930 . S
C33 C34 1.351 . S
C33 N36 1.368 . S
C33 H38 0.931 . S
C34 C33 1.351 . S
C34 N35 1.373 . S
C34 H62 0.930 . S
N35 C34 1.373 . S
N35 C37 1.340 . S
N36 C33 1.368 . S
N36 C37 1.321 . S
N36 Co39 2.135 . S
C37 N35 1.340 . S
C37 N36 1.321 . S
C37 H61 0.930 . S
H38 C33 0.931 . S
Co39 N36 2.135 . S
Co39 N42 2.121 . S
Co39 O47 2.055 . S
Co39 O50 2.039 . S
Co39 N53 2.140 . S
C40 O41 1.227 . S
C40 O50 1.265 . S
O41 C40 1.227 . S
N42 Co39 2.121 . S
N42 C44 1.375 . S
N42 C45 1.313 . S
C43 C44 1.338 . S
C43 N46 1.377 . S
C43 H63 0.930 . S
C44 N42 1.375 . S
C44 C43 1.338 . S
C44 H48 0.931 . S
C45 N42 1.313 . S
C45 N46 1.344 . S
C45 H49 0.930 . S
N46 C43 1.377 . S
N46 C45 1.344 . S
O47 Co39 2.055 . S
O47 C51 1.253 . S
H48 C44 0.931 . S
H49 C45 0.930 . S
O50 Co39 2.039 . S
O50 C40 1.265 . S
C51 O47 1.253 . S
C51 O52 1.227 . S
O52 C51 1.227 . S
N53 Co39 2.140 . S
N53 C56 1.346 . S
N53 C57 1.345 . S
C54 C55 1.387 . S
C54 C58 1.391 . S
C55 C54 1.387 . S
C55 C56 1.369 . S
C55 H64 0.929 . S
C56 N53 1.346 . S
C56 C55 1.369 . S
C56 H59 0.928 . S
C57 N53 1.345 . S
C57 C58 1.371 . S
C57 H60 0.931 . S
C58 C54 1.391 . S
C58 C57 1.371 . S
C58 H65 0.930 . S
H59 C56 0.928 . S
H60 C57 0.931 . S
H61 C37 0.930 . S
H62 C34 0.930 . S
H63 C43 0.930 . S
H64 C55 0.929 . S
H65 C58 0.930 . S
C66 C67 1.351 . S
C66 N69 1.368 . S
C66 H71 0.931 . S
C67 C66 1.351 . S
C67 N68 1.373 . S
C67 H95 0.930 . S
N68 C67 1.373 . S
N68 C70 1.340 . S
N69 C66 1.368 . S
N69 C70 1.321 . S
N69 Co72 2.135 . S
C70 N68 1.340 . S
C70 N69 1.321 . S
C70 H94 0.930 . S
H71 C66 0.931 . S
Co72 N69 2.135 . S
Co72 N75 2.121 . S
Co72 O80 2.055 . S
Co72 O83 2.039 . S
Co72 N86 2.140 . S
C73 O74 1.227 . S
C73 O83 1.265 . S
O74 C73 1.227 . S
N75 Co72 2.121 . S
N75 C77 1.375 . S
N75 C78 1.313 . S
C76 C77 1.338 . S
C76 N79 1.377 . S
C76 H96 0.930 . S
C77 N75 1.375 . S
C77 C76 1.338 . S
C77 H81 0.931 . S
C78 N75 1.313 . S
C78 N79 1.344 . S
C78 H82 0.930 . S
N79 C76 1.377 . S
N79 C78 1.344 . S
O80 Co72 2.055 . S
O80 C84 1.253 . S
H81 C77 0.931 . S
H82 C78 0.930 . S
O83 Co72 2.039 . S
O83 C73 1.265 . S
C84 O80 1.253 . S
C84 O85 1.227 . S
O85 C84 1.227 . S
N86 Co72 2.140 . S
N86 C89 1.346 . S
N86 C90 1.345 . S
C87 C88 1.387 . S
C87 C91 1.391 . S
C88 C87 1.387 . S
C88 C89 1.369 . S
C88 H97 0.929 . S
C89 N86 1.346 . S
C89 C88 1.369 . S
C89 H92 0.928 . S
C90 N86 1.345 . S
C90 C91 1.371 . S
C90 H93 0.931 . S
C91 C87 1.391 . S
C91 C90 1.371 . S
C91 H98 0.930 . S
H92 C89 0.928 . S
H93 C90 0.931 . S
H94 C70 0.930 . S
H95 C67 0.930 . S
H96 C76 0.930 . S
H97 C88 0.929 . S
H98 C91 0.930 . S
C99 C100 1.351 . S
C99 N102 1.368 . S
C99 H104 0.931 . S
C100 C99 1.351 . S
C100 N101 1.373 . S
C100 H128 0.930 . S
N101 C100 1.373 . S
N101 C103 1.340 . S
N102 C99 1.368 . S
N102 C103 1.321 . S
N102 Co105 2.135 . S
C103 N101 1.340 . S
C103 N102 1.321 . S
C103 H127 0.930 . S
H104 C99 0.931 . S
Co105 N102 2.135 . S
Co105 N108 2.121 . S
Co105 O113 2.055 . S
Co105 O116 2.039 . S
Co105 N119 2.140 . S
C106 O107 1.227 . S
C106 O116 1.265 . S
O107 C106 1.227 . S
N108 Co105 2.121 . S
N108 C110 1.375 1_556 S
N108 C111 1.313 1_556 S
C109 C110 1.338 . S
C109 N112 1.377 . S
C109 H129 0.930 . S
C110 N108 1.375 1_554 S
C110 C109 1.338 . S
C110 H114 0.931 1_554 S
C111 N108 1.313 1_554 S
C111 N112 1.344 . S
C111 H115 0.930 . S
N112 C109 1.377 . S
N112 C111 1.344 . S
O113 Co105 2.055 . S
O113 C117 1.253 . S
H114 C110 0.931 1_556 S
H115 C111 0.930 . S
O116 Co105 2.039 . S
O116 C106 1.265 . S
C117 O113 1.253 . S
C117 O118 1.227 . S
O118 C117 1.227 . S
N119 Co105 2.140 . S
N119 C122 1.346 . S
N119 C123 1.345 . S
C120 C121 1.387 . S
C120 C124 1.391 . S
C121 C120 1.387 . S
C121 C122 1.369 . S
C121 H130 0.929 . S
C122 N119 1.346 . S
C122 C121 1.369 . S
C122 H125 0.928 . S
C123 N119 1.345 . S
C123 C124 1.371 . S
C123 H126 0.931 . S
C124 C120 1.391 . S
C124 C123 1.371 . S
C124 H131 0.930 . S
H125 C122 0.928 . S
H126 C123 0.931 . S
H127 C103 0.930 . S
H128 C100 0.930 . S
H129 C109 0.930 . S
H130 C121 0.929 . S
H131 C124 0.930 . S
C132 C133 1.351 . S
C132 N135 1.368 . S
C132 H137 0.931 . S
C133 C132 1.351 . S
C133 N134 1.373 . S
C133 H161 0.930 . S
N134 C133 1.373 . S
N134 C136 1.340 . S
N135 C132 1.368 . S
N135 C136 1.321 . S
N135 Co138 2.135 . S
C136 N134 1.340 . S
C136 N135 1.321 . S
C136 H160 0.930 . S
H137 C132 0.931 . S
Co138 N135 2.135 . S
Co138 N141 2.121 . S
Co138 O146 2.055 . S
Co138 O149 2.039 . S
Co138 N152 2.140 . S
C139 O140 1.227 . S
C139 O149 1.265 . S
O140 C139 1.227 . S
N141 Co138 2.121 . S
N141 C143 1.375 . S
N141 C144 1.313 . S
C142 C143 1.338 . S
C142 N145 1.377 . S
C142 H162 0.930 . S
C143 N141 1.375 . S
C143 C142 1.338 . S
C143 H147 0.931 . S
C144 N141 1.313 . S
C144 N145 1.344 . S
C144 H148 0.930 . S
N145 C142 1.377 . S
N145 C144 1.344 . S
O146 Co138 2.055 . S
O146 C150 1.253 . S
H147 C143 0.931 . S
H148 C144 0.930 . S
O149 Co138 2.039 . S
O149 C139 1.265 . S
C150 O146 1.253 . S
C150 O151 1.227 . S
O151 C150 1.227 . S
N152 Co138 2.140 . S
N152 C155 1.346 . S
N152 C156 1.345 . S
C153 C154 1.387 . S
C153 C157 1.391 . S
C154 C153 1.387 . S
C154 C155 1.369 . S
C154 H163 0.929 . S
C155 N152 1.346 . S
C155 C154 1.369 . S
C155 H158 0.928 . S
C156 N152 1.345 . S
C156 C157 1.371 . S
C156 H159 0.931 . S
C157 C153 1.391 . S
C157 C156 1.371 . S
C157 H164 0.930 . S
H158 C155 0.928 . S
H159 C156 0.931 . S
H160 C136 0.930 . S
H161 C133 0.930 . S
H162 C142 0.930 . S
H163 C154 0.929 . S
H164 C157 0.930 . S
C165 C166 1.351 . S
C165 N168 1.368 . S
C165 H170 0.931 . S
C166 C165 1.351 . S
C166 N167 1.373 . S
C166 H194 0.930 . S
N167 C166 1.373 . S
N167 C169 1.340 . S
N168 C165 1.368 . S
N168 C169 1.321 . S
N168 Co171 2.135 . S
C169 N167 1.340 . S
C169 N168 1.321 . S
C169 H193 0.930 . S
H170 C165 0.931 . S
Co171 N168 2.135 . S
Co171 N174 2.121 . S
Co171 O179 2.055 . S
Co171 O182 2.039 . S
Co171 N185 2.140 . S
C172 O173 1.227 . S
C172 O182 1.265 . S
O173 C172 1.227 . S
N174 Co171 2.121 . S
N174 C176 1.375 . S
N174 C177 1.313 . S
C175 C176 1.338 . S
C175 N178 1.377 . S
C175 H195 0.930 . S
C176 N174 1.375 . S
C176 C175 1.338 . S
C176 H180 0.931 . S
C177 N174 1.313 . S
C177 N178 1.344 . S
C177 H181 0.930 . S
N178 C175 1.377 . S
N178 C177 1.344 . S
O179 Co171 2.055 . S
O179 C183 1.253 . S
H180 C176 0.931 . S
H181 C177 0.930 . S
O182 Co171 2.039 . S
O182 C172 1.265 . S
C183 O179 1.253 . S
C183 O184 1.227 . S
O184 C183 1.227 . S
N185 Co171 2.140 . S
N185 C188 1.346 . S
N185 C189 1.345 . S
C186 C187 1.387 . S
C186 C190 1.391 . S
C187 C186 1.387 . S
C187 C188 1.369 . S
C187 H196 0.929 . S
C188 N185 1.346 . S
C188 C187 1.369 . S
C188 H191 0.928 . S
C189 N185 1.345 . S
C189 C190 1.371 . S
C189 H192 0.931 . S
C190 C186 1.391 . S
C190 C189 1.371 . S
C190 H197 0.930 . S
H191 C188 0.928 . S
H192 C189 0.931 . S
H193 C169 0.930 . S
H194 C166 0.930 . S
H195 C175 0.930 . S
H196 C187 0.929 . S
H197 C190 0.930 . S
C198 C199 1.351 . S
C198 N201 1.368 . S
C198 H203 0.931 . S
C199 C198 1.351 . S
C199 N200 1.373 . S
C199 H227 0.930 . S
N200 C199 1.373 . S
N200 C202 1.340 . S
N201 C198 1.368 . S
N201 C202 1.321 . S
N201 Co204 2.135 . S
C202 N200 1.340 . S
C202 N201 1.321 . S
C202 H226 0.930 . S
H203 C198 0.931 . S
Co204 N201 2.135 . S
Co204 N207 2.121 . S
Co204 O212 2.055 . S
Co204 O215 2.039 . S
Co204 N218 2.140 . S
C205 O206 1.227 . S
C205 O215 1.265 . S
O206 C205 1.227 . S
N207 Co204 2.121 . S
N207 C209 1.375 . S
N207 C210 1.313 1_556 S
C208 C209 1.338 1_554 S
C208 N211 1.377 . S
C208 H228 0.930 . S
C209 N207 1.375 . S
C209 C208 1.338 1_556 S
C209 H213 0.931 . S
C210 N207 1.313 1_554 S
C210 N211 1.344 . S
C210 H214 0.930 . S
N211 C208 1.377 . S
N211 C210 1.344 . S
O212 Co204 2.055 . S
O212 C216 1.253 . S
H213 C209 0.931 . S
H214 C210 0.930 . S
O215 Co204 2.039 . S
O215 C205 1.265 . S
C216 O212 1.253 . S
C216 O217 1.227 . S
O217 C216 1.227 . S
N218 Co204 2.140 . S
N218 C221 1.346 . S
N218 C222 1.345 . S
C219 C220 1.387 . S
C219 C223 1.391 . S
C220 C219 1.387 . S
C220 C221 1.369 . S
C220 H229 0.929 . S
C221 N218 1.346 . S
C221 C220 1.369 . S
C221 H224 0.928 . S
C222 N218 1.345 . S
C222 C223 1.371 . S
C222 H225 0.931 . S
C223 C219 1.391 . S
C223 C222 1.371 . S
C223 H230 0.930 . S
H224 C221 0.928 . S
H225 C222 0.931 . S
H226 C202 0.930 . S
H227 C199 0.930 . S
H228 C208 0.930 . S
H229 C220 0.929 . S
H230 C223 0.930 . S
C231 C232 1.351 . S
C231 N234 1.368 . S
C231 H236 0.931 . S
C232 C231 1.351 . S
C232 N233 1.373 . S
C232 H260 0.930 . S
N233 C232 1.373 . S
N233 C235 1.340 . S
N234 C231 1.368 . S
N234 C235 1.321 . S
N234 Co237 2.135 1_556 S
C235 N233 1.340 . S
C235 N234 1.321 . S
C235 H259 0.930 . S
H236 C231 0.931 . S
Co237 N234 2.135 1_554 S
Co237 N240 2.121 . S
Co237 O245 2.055 . S
Co237 O248 2.039 1_554 S
Co237 N251 2.140 . S
C238 O239 1.227 . S
C238 O248 1.265 . S
O239 C238 1.227 . S
N240 Co237 2.121 . S
N240 C242 1.375 . S
N240 C243 1.313 . S
C241 C242 1.338 . S
C241 N244 1.377 . S
C241 H261 0.930 . S
C242 N240 1.375 . S
C242 C241 1.338 . S
C242 H246 0.931 . S
C243 N240 1.313 . S
C243 N244 1.344 . S
C243 H247 0.930 . S
N244 C241 1.377 . S
N244 C243 1.344 . S
O245 Co237 2.055 . S
O245 C249 1.253 . S
H246 C242 0.931 . S
H247 C243 0.930 . S
O248 Co237 2.039 1_556 S
O248 C238 1.265 . S
C249 O245 1.253 . S
C249 O250 1.227 . S
O250 C249 1.227 . S
N251 Co237 2.140 . S
N251 C254 1.346 1_554 S
N251 C255 1.345 . S
C252 C253 1.387 1_554 S
C252 C256 1.391 . S
C253 C252 1.387 1_556 S
C253 C254 1.369 . S
C253 H262 0.929 . S
C254 N251 1.346 1_556 S
C254 C253 1.369 . S
C254 H257 0.928 . S
C255 N251 1.345 . S
C255 C256 1.371 . S
C255 H258 0.931 . S
C256 C252 1.391 . S
C256 C255 1.371 . S
C256 H263 0.930 . S
H257 C254 0.928 . S
H258 C255 0.931 . S
H259 C235 0.930 . S
H260 C232 0.930 . S
H261 C241 0.930 . S
H262 C253 0.929 . S
H263 C256 0.930 . S
H264 C270 0.927 1_556 S
H265 C273 0.930 . S
H266 C274 0.930 . S
H267 C275 0.930 . S
H268 C278 0.930 1_556 S
H269 C279 0.930 . S
C270 H264 0.927 1_554 S
C270 C271 1.356 . S
C270 C272 1.416 . S
C271 C270 1.356 . S
C271 C273 1.419 . S
C272 C270 1.416 . S
C272 C277 1.425 . S
C272 C279 1.409 1_554 S
C273 H265 0.930 . S
C273 C271 1.419 . S
C273 C274 1.362 . S
C274 H266 0.930 . S
C274 C273 1.362 . S
C274 C277 1.409 . S
C275 H267 0.930 . S
C275 C276 1.355 . S
C275 C277 1.415 . S
C276 C275 1.355 . S
C276 C278 1.419 . S
C277 C272 1.425 . S
C277 C274 1.409 . S
C277 C275 1.415 . S
C278 H268 0.930 1_554 S
C278 C276 1.419 . S
C278 C279 1.362 1_554 S
C279 H269 0.930 . S
C279 C272 1.409 1_556 S
C279 C278 1.362 1_556 S
H280 C286 0.930 . S
H281 C289 0.930 . S
H282 C290 0.930 . S
H283 C291 0.930 . S
H284 C294 0.930 . S
H285 C295 0.930 . S
C286 H280 0.930 . S
C286 C287 1.355 . S
C286 C288 1.423 . S
C287 C286 1.355 . S
C287 C289 1.419 . S
C288 C286 1.423 . S
C288 C293 1.429 . S
C288 C295 1.397 1_545 S
C289 H281 0.930 . S
C289 C287 1.419 . S
C289 C290 1.362 . S
C290 H282 0.930 . S
C290 C289 1.362 . S
C290 C293 1.409 . S
C291 H283 0.930 . S
C291 C292 1.355 . S
C291 C293 1.415 1_565 S
C292 C291 1.355 . S
C292 C294 1.419 . S
C293 C288 1.429 . S
C293 C290 1.409 . S
C293 C291 1.415 1_545 S
C294 H284 0.930 . S
C294 C292 1.419 . S
C294 C295 1.362 . S
C295 H285 0.930 . S
C295 C288 1.397 1_565 S
C295 C294 1.362 . S
H296 C302 0.930 1_455 S
H297 C305 0.930 . S
H298 C306 0.930 . S
H299 C307 0.930 . S
H300 C310 0.930 . S
H301 C311 0.930 . S
C302 H296 0.930 1_655 S
C302 C303 1.355 . S
C302 C304 1.415 1_655 S
C303 C302 1.355 . S
C303 C305 1.419 . S
C304 C302 1.415 1_455 S
C304 C309 1.425 1_465 S
C304 C311 1.409 . S
C305 H297 0.930 . S
C305 C303 1.419 . S
C305 C306 1.362 1_565 S
C306 H298 0.930 . S
C306 C305 1.362 1_545 S
C306 C309 1.409 . S
C307 H299 0.930 . S
C307 C308 1.355 . S
C307 C309 1.415 1_455 S
C308 C307 1.355 . S
C308 C310 1.419 . S
C309 C304 1.425 1_645 S
C309 C306 1.409 . S
C309 C307 1.415 1_655 S
C310 H300 0.930 . S
C310 C308 1.419 . S
C310 C311 1.362 1_545 S
C311 H301 0.930 . S
C311 C304 1.409 . S
C311 C310 1.362 1_565 S
H312 C318 0.930 . S
H313 C321 0.934 . S
H314 C322 0.930 . S
H315 C323 0.930 . S
H316 C326 0.930 . S
H317 C327 0.930 . S
C318 H312 0.930 . S
C318 C319 1.355 . S
C318 C320 1.415 . S
C319 C318 1.355 . S
C319 C321 1.398 1_455 S
C320 C318 1.415 . S
C320 C325 1.425 1_455 S
C320 C327 1.409 . S
C321 H313 0.934 . S
C321 C319 1.398 1_655 S
C321 C322 1.380 . S
C322 H314 0.930 . S
C322 C321 1.380 . S
C322 C325 1.409 . S
C323 H315 0.930 . S
C323 C324 1.355 . S
C323 C325 1.415 . S
C324 C323 1.355 . S
C324 C326 1.419 . S
C325 C320 1.425 1_655 S
C325 C322 1.409 . S
C325 C323 1.415 . S
C326 H316 0.930 . S
C326 C324 1.419 . S
C326 C327 1.362 1_655 S
C327 H317 0.930 . S
C327 C320 1.409 . S
C327 C326 1.362 1_455 S
H328 C334 0.930 . S
H329 C337 0.930 . S
H330 C338 0.930 . S
H331 C339 0.930 . S
H332 C342 0.930 . S
H333 C343 0.930 . S
C334 H328 0.930 . S
C334 C335 1.355 . S
C334 C336 1.415 . S
C335 C334 1.355 . S
C335 C337 1.419 . S
C336 C334 1.415 . S
C336 C341 1.425 . S
C336 C343 1.409 . S
C337 H329 0.930 . S
C337 C335 1.419 . S
C337 C338 1.362 . S
C338 H330 0.930 . S
C338 C337 1.362 . S
C338 C341 1.409 . S
C339 H331 0.930 . S
C339 C340 1.355 . S
C339 C341 1.415 . S
C340 C339 1.355 . S
C340 C342 1.419 . S
C341 C336 1.425 . S
C341 C338 1.409 . S
C341 C339 1.415 . S
C342 H332 0.930 . S
C342 C340 1.419 . S
C342 C343 1.362 . S
C343 H333 0.930 . S
C343 C336 1.409 . S
C343 C342 1.362 . S
H344 C350 0.930 . S
H345 C353 0.930 . S
H346 C354 0.930 . S
H347 C355 0.930 . S
H348 C358 0.930 . S
H349 C359 0.930 . S
C350 H344 0.930 . S
C350 C351 1.355 . S
C350 C352 1.415 . S
C351 C350 1.355 . S
C351 C353 1.419 . S
C352 C350 1.415 . S
C352 C357 1.425 . S
C352 C359 1.409 . S
C353 H345 0.930 . S
C353 C351 1.419 . S
C353 C354 1.362 . S
C354 H346 0.930 . S
C354 C353 1.362 . S
C354 C357 1.409 . S
C355 H347 0.930 . S
C355 C356 1.355 . S
C355 C357 1.415 . S
C356 C355 1.355 . S
C356 C358 1.419 . S
C357 C352 1.425 . S
C357 C354 1.409 . S
C357 C355 1.415 . S
C358 H348 0.930 . S
C358 C356 1.419 . S
C358 C359 1.362 . S
C359 H349 0.930 . S
C359 C352 1.409 . S
C359 C358 1.362 . S
H360 C366 0.930 . S
H361 C369 0.930 . S
H362 C370 0.930 1_554 S
H363 C371 0.930 . S
H364 C374 0.930 . S
H365 C375 0.930 . S
C366 H360 0.930 . S
C366 C367 1.355 . S
C366 C368 1.415 . S
C367 C366 1.355 . S
C367 C369 1.419 . S
C368 C366 1.415 . S
C368 C373 1.425 1_556 S
C368 C375 1.409 1_556 S
C369 H361 0.930 . S
C369 C367 1.419 . S
C369 C370 1.362 . S
C370 H362 0.930 1_556 S
C370 C369 1.362 . S
C370 C373 1.409 1_556 S
C371 H363 0.930 . S
C371 C372 1.355 . S
C371 C373 1.415 . S
C372 C371 1.355 . S
C372 C374 1.419 . S
C373 C368 1.425 1_554 S
C373 C370 1.409 1_554 S
C373 C371 1.415 . S
C374 H364 0.930 . S
C374 C372 1.419 . S
C374 C375 1.362 . S
C375 H365 0.930 . S
C375 C368 1.409 1_554 S
C375 C374 1.362 . S
H376 C382 0.930 . S
H377 C385 0.930 . S
H378 C386 0.930 . S
H379 C387 0.930 . S
H380 C390 0.930 . S
H381 C391 0.930 . S
C382 H376 0.930 . S
C382 C383 1.355 . S
C382 C384 1.415 . S
C383 C382 1.355 . S
C383 C385 1.419 . S
C384 C382 1.415 . S
C384 C389 1.425 . S
C384 C391 1.409 . S
C385 H377 0.930 . S
C385 C383 1.419 . S
C385 C386 1.362 . S
C386 H378 0.930 . S
C386 C385 1.362 . S
C386 C389 1.409 . S
C387 H379 0.930 . S
C387 C388 1.355 . S
C387 C389 1.415 . S
C388 C387 1.355 . S
C388 C390 1.419 . S
C389 C384 1.425 . S
C389 C386 1.409 . S
C389 C387 1.415 . S
C390 H380 0.930 . S
C390 C388 1.419 . S
C390 C391 1.362 . S
C391 H381 0.930 . S
C391 C384 1.409 . S
C391 C390 1.362 . S
H392 C398 0.930 . S
H393 C401 0.930 . S
H394 C402 0.930 . S
H395 C403 0.930 . S
H396 C406 0.930 . S
H397 C407 0.930 . S
C398 H392 0.930 . S
C398 C399 1.355 . S
C398 C400 1.415 . S
C399 C398 1.355 . S
C399 C401 1.419 . S
C400 C398 1.415 . S
C400 C405 1.425 . S
C400 C407 1.409 . S
C401 H393 0.930 . S
C401 C399 1.419 . S
C401 C402 1.362 . S
C402 H394 0.930 . S
C402 C401 1.362 . S
C402 C405 1.409 . S
C403 H395 0.930 . S
C403 C404 1.355 . S
C403 C405 1.415 . S
C404 C403 1.355 . S
C404 C406 1.419 . S
C405 C400 1.425 . S
C405 C402 1.409 . S
C405 C403 1.415 . S
C406 H396 0.930 . S
C406 C404 1.419 . S
C406 C407 1.362 . S
C407 H397 0.930 . S
C407 C400 1.409 . S
C407 C406 1.362 . S
H408 C414 0.930 . S
H409 C417 0.930 . S
H410 C418 0.930 . S
H411 C419 0.930 . S
H412 C422 0.930 . S
H413 C423 0.930 . S
C414 H408 0.930 . S
C414 C415 1.355 . S
C414 C416 1.415 . S
C415 C414 1.355 . S
C415 C417 1.419 . S
C416 C414 1.415 . S
C416 C421 1.425 . S
C416 C423 1.409 . S
C417 H409 0.930 . S
C417 C415 1.419 . S
C417 C418 1.362 . S
C418 H410 0.930 . S
C418 C417 1.362 . S
C418 C421 1.409 . S
C419 H411 0.930 . S
C419 C420 1.355 . S
C419 C421 1.415 1_556 S
C420 C419 1.355 . S
C420 C422 1.419 . S
C421 C416 1.425 . S
C421 C418 1.409 . S
C421 C419 1.415 1_554 S
C422 H412 0.930 . S
C422 C420 1.419 . S
C422 C423 1.362 1_556 S
C423 H413 0.930 . S
C423 C416 1.409 . S
C423 C422 1.362 1_554 S
H424 C430 0.930 . S
H425 C433 0.930 . S
H426 C434 0.930 . S
H427 C435 0.930 . S
H428 C438 0.930 . S
H429 C439 0.930 . S
C430 H424 0.930 . S
C430 C431 1.355 . S
C430 C432 1.415 . S
C431 C430 1.355 . S
C431 C433 1.419 . S
C432 C430 1.415 . S
C432 C437 1.425 . S
C432 C439 1.409 . S
C433 H425 0.930 . S
C433 C431 1.419 . S
C433 C434 1.362 . S
C434 H426 0.930 . S
C434 C433 1.362 . S
C434 C437 1.409 . S
C435 H427 0.930 . S
C435 C436 1.355 . S
C435 C437 1.415 . S
C436 C435 1.355 . S
C436 C438 1.419 . S
C437 C432 1.425 . S
C437 C434 1.409 . S
C437 C435 1.415 . S
C438 H428 0.930 . S
C438 C436 1.419 . S
C438 C439 1.362 . S
C439 H429 0.930 . S
C439 C432 1.409 . S
C439 C438 1.362 . S
H440 C446 0.930 . S
H441 C449 0.930 . S
H442 C450 0.930 . S
H443 C451 0.930 . S
H444 C454 0.930 . S
H445 C455 0.930 . S
C446 H440 0.930 . S
C446 C447 1.355 . S
C446 C448 1.415 . S
C447 C446 1.355 . S
C447 C449 1.419 . S
C448 C446 1.415 . S
C448 C453 1.425 . S
C448 C455 1.409 . S
C449 H441 0.930 . S
C449 C447 1.419 . S
C449 C450 1.362 . S
C450 H442 0.930 . S
C450 C449 1.362 . S
C450 C453 1.409 . S
C451 H443 0.930 . S
C451 C452 1.355 . S
C451 C453 1.415 . S
C452 C451 1.355 . S
C452 C454 1.419 . S
C453 C448 1.425 . S
C453 C450 1.409 . S
C453 C451 1.415 . S
C454 H444 0.930 . S
C454 C452 1.419 . S
C454 C455 1.362 . S
C455 H445 0.930 . S
C455 C448 1.409 . S
C455 C454 1.362 . S
H456 C462 0.930 . S
H457 C465 0.930 1_554 S
H458 C466 0.930 . S
H459 C467 0.930 . S
H460 C470 0.930 . S
H461 C471 0.930 . S
C462 H456 0.930 . S
C462 C463 1.355 . S
C462 C464 1.415 . S
C463 C462 1.355 . S
C463 C465 1.419 . S
C464 C462 1.415 . S
C464 C469 1.425 1_556 S
C464 C471 1.409 . S
C465 H457 0.930 1_556 S
C465 C463 1.419 . S
C465 C466 1.362 1_556 S
C466 H458 0.930 . S
C466 C465 1.362 1_554 S
C466 C469 1.409 . S
C467 H459 0.930 . S
C467 C468 1.355 . S
C467 C469 1.415 . S
C468 C467 1.355 . S
C468 C470 1.419 1_554 S
C469 C464 1.425 1_554 S
C469 C466 1.409 . S
C469 C467 1.415 . S
C470 H460 0.930 . S
C470 C468 1.419 1_556 S
C470 C471 1.362 . S
C471 H461 0.930 . S
C471 C464 1.409 . S
C471 C470 1.362 . S
H472 C478 0.930 . S
H473 C481 0.930 . S
H474 C482 0.930 . S
H475 C483 0.930 . S
H476 C486 0.930 . S
H477 C487 0.930 . S
C478 H472 0.930 . S
C478 C479 1.355 . S
C478 C480 1.415 . S
C479 C478 1.355 . S
C479 C481 1.419 . S
C480 C478 1.415 . S
C480 C485 1.425 . S
C480 C487 1.409 . S
C481 H473 0.930 . S
C481 C479 1.419 . S
C481 C482 1.362 . S
C482 H474 0.930 . S
C482 C481 1.362 . S
C482 C485 1.409 . S
C483 H475 0.930 . S
C483 C484 1.355 . S
C483 C485 1.415 . S
C484 C483 1.355 . S
C484 C486 1.419 . S
C485 C480 1.425 . S
C485 C482 1.409 . S
C485 C483 1.415 . S
C486 H476 0.930 . S
C486 C484 1.419 . S
C486 C487 1.362 . S
C487 H477 0.930 . S
C487 C480 1.409 . S
C487 C486 1.362 . S
H488 C494 0.930 . S
H489 C497 0.930 . S
H490 C498 0.930 . S
H491 C499 0.930 . S
H492 C502 0.930 . S
H493 C503 0.930 . S
C494 H488 0.930 . S
C494 C495 1.355 . S
C494 C496 1.415 . S
C495 C494 1.355 . S
C495 C497 1.419 . S
C496 C494 1.415 . S
C496 C501 1.425 . S
C496 C503 1.409 . S
C497 H489 0.930 . S
C497 C495 1.419 . S
C497 C498 1.362 . S
C498 H490 0.930 . S
C498 C497 1.362 . S
C498 C501 1.409 . S
C499 H491 0.930 . S
C499 C500 1.355 . S
C499 C501 1.415 . S
C500 C499 1.355 . S
C500 C502 1.419 . S
C501 C496 1.425 . S
C501 C498 1.409 . S
C501 C499 1.415 . S
C502 H492 0.930 . S
C502 C500 1.419 . S
C502 C503 1.362 . S
C503 H493 0.930 . S
C503 C496 1.409 . S
C503 C502 1.362 . S
H504 C510 0.930 . S
H505 C513 0.930 . S
H506 C514 0.930 . S
H507 C515 0.930 . S
H508 C518 0.930 . S
H509 C519 0.930 . S
C510 H504 0.930 . S
C510 C511 1.355 . S
C510 C512 1.415 . S
C511 C510 1.355 . S
C511 C513 1.419 . S
C512 C510 1.415 . S
C512 C517 1.425 . S
C512 C519 1.409 . S
C513 H505 0.930 . S
C513 C511 1.419 . S
C513 C514 1.362 . S
C514 H506 0.930 . S
C514 C513 1.362 . S
C514 C517 1.409 . S
C515 H507 0.930 . S
C515 C516 1.355 . S
C515 C517 1.415 . S
C516 C515 1.355 . S
C516 C518 1.419 . S
C517 C512 1.425 . S
C517 C514 1.409 . S
C517 C515 1.415 . S
C518 H508 0.930 . S
C518 C516 1.419 . S
C518 C519 1.362 . S
C519 H509 0.930 . S
C519 C512 1.409 . S
C519 C518 1.362 . S
H520 C526 0.930 . S
H521 C529 0.930 . S
H522 C530 0.930 . S
H523 C531 0.930 . S
H524 C534 0.930 . S
H525 C535 0.930 . S
C526 H520 0.930 . S
C526 C527 1.355 . S
C526 C528 1.415 . S
C527 C526 1.355 . S
C527 C529 1.419 . S
C528 C526 1.415 . S
C528 C533 1.425 . S
C528 C535 1.409 . S
C529 H521 0.930 . S
C529 C527 1.419 . S
C529 C530 1.362 . S
C530 H522 0.930 . S
C530 C529 1.362 . S
C530 C533 1.409 . S
C531 H523 0.930 . S
C531 C532 1.355 . S
C531 C533 1.415 . S
C532 C531 1.355 . S
C532 C534 1.419 . S
C533 C528 1.425 . S
C533 C530 1.409 . S
C533 C531 1.415 . S
C534 H524 0.930 . S
C534 C532 1.419 . S
C534 C535 1.362 . S
C535 H525 0.930 . S
C535 C528 1.409 . S
C535 C534 1.362 . S
H536 C542 0.930 . S
H537 C545 0.930 . S
H538 C546 0.930 . S
H539 C547 0.930 . S
H540 C550 0.930 . S
H541 C551 0.930 . S
C542 H536 0.930 . S
C542 C543 1.355 . S
C542 C544 1.415 . S
C543 C542 1.355 . S
C543 C545 1.419 . S
C544 C542 1.415 . S
C544 C549 1.425 . S
C544 C551 1.409 . S
C545 H537 0.930 . S
C545 C543 1.419 . S
C545 C546 1.362 . S
C546 H538 0.930 . S
C546 C545 1.362 . S
C546 C549 1.409 . S
C547 H539 0.930 . S
C547 C548 1.355 . S
C547 C549 1.415 . S
C548 C547 1.355 . S
C548 C550 1.419 . S
C549 C544 1.425 . S
C549 C546 1.409 . S
C549 C547 1.415 . S
C550 H540 0.930 . S
C550 C548 1.419 . S
C550 C551 1.362 . S
C551 H541 0.930 . S
C551 C544 1.409 . S
C551 C550 1.362 . S
H552 C558 0.930 1_554 S
H553 C561 0.930 . S
H554 C562 0.930 . S
H555 C563 0.930 . S
H556 C566 0.930 . S
H557 C567 0.930 1_554 S
C558 H552 0.930 1_556 S
C558 C559 1.355 . S
C558 C560 1.415 . S
C559 C558 1.355 . S
C559 C561 1.419 . S
C560 C558 1.415 . S
C560 C565 1.425 . S
C560 C567 1.409 . S
C561 H553 0.930 . S
C561 C559 1.419 . S
C561 C562 1.362 . S
C562 H554 0.930 . S
C562 C561 1.362 . S
C562 C565 1.409 . S
C563 H555 0.930 . S
C563 C564 1.355 . S
C563 C565 1.415 . S
C564 C563 1.355 . S
C564 C566 1.419 . S
C565 C560 1.425 . S
C565 C562 1.409 . S
C565 C563 1.415 . S
C566 H556 0.930 . S
C566 C564 1.419 . S
C566 C567 1.362 . S
C567 H557 0.930 1_556 S
C567 C560 1.409 . S
C567 C566 1.362 . S
H568 C574 0.930 . S
H569 C577 0.930 . S
H570 C578 0.930 . S
H571 C579 0.930 . S
H572 C582 0.930 . S
H573 C583 0.930 . S
C574 H568 0.930 . S
C574 C575 1.355 . S
C574 C576 1.415 . S
C575 C574 1.355 . S
C575 C577 1.419 . S
C576 C574 1.415 . S
C576 C581 1.425 . S
C576 C583 1.409 . S
C577 H569 0.930 . S
C577 C575 1.419 . S
C577 C578 1.362 . S
C578 H570 0.930 . S
C578 C577 1.362 . S
C578 C581 1.409 . S
C579 H571 0.930 . S
C579 C580 1.355 . S
C579 C581 1.415 . S
C580 C579 1.355 . S
C580 C582 1.419 . S
C581 C576 1.425 . S
C581 C578 1.409 . S
C581 C579 1.415 . S
C582 H572 0.930 . S
C582 C580 1.419 . S
C582 C583 1.362 . S
C583 H573 0.930 . S
C583 C576 1.409 . S
C583 C582 1.362 . S
C271 C249 1.206 . S
C276 C18 1.209 . S
C287 C150 1.220 . S
C292 C51 1.221 . S
C303 C183 1.203 . S
C308 C84 1.206 . S
C319 C216 1.222 . S
C324 C117 1.219 . S
C335 N2 1.355 . S
C340 N13 1.356 . S
C351 N35 1.319 1_556 S
C356 N46 1.322 . S
C367 N79 1.300 . S
C372 N68 1.296 . S
C383 N112 1.376 . S
C388 N101 1.374 . S
C399 N134 1.385 1_556 S
C404 N145 1.387 . S
C415 N178 1.293 . S
C420 N167 1.290 . S
C431 N200 1.269 . S
C436 N211 1.273 . S
C447 N233 1.361 . S
C452 N244 1.362 . S
C463 C219 1.377 . S
C468 C21 1.395 . S
C479 C40 1.380 . S
C484 C252 1.435 . S
C495 C153 1.637 . S
C500 C73 1.624 . S
C511 C106 1.627 . S
C516 C172 1.576 . S
C527 C186 1.425 . S
C532 C54 1.416 . S
C543 C87 1.409 . S
C548 C205 1.423 . S
C559 C238 1.625 . S
C564 C120 1.636 . S
C575 C7 1.614 . S
C580 C139 1.627 . S
