# Generated by pormake.
# Topology rob, (6)-cn, num edge types: 1
# Building blocks:
#     Node 0, Type 0, BuildingBlock: KUMJIN_clean_sbu_0, # of connection points: 6
#     Node 1, Type 0, BuildingBlock: KUMJIN_clean_sbu_0, # of connection points: 6
#     Node 2, Type 0, BuildingBlock: KUMJIN_clean_sbu_0, # of connection points: 6
#     Node 3, Type 0, BuildingBlock: KUMJIN_clean_sbu_0, # of connection points: 6
#     Edge 4, Type (0, 0), BuildingBlock: ZUJKAS_clean_linker_0, # of connection points: 2
#     Edge 5, Type (0, 0), BuildingBlock: ZUJKAS_clean_linker_0, # of connection points: 2
#     Edge 6, Type (0, 0), BuildingBlock: ZUJKAS_clean_linker_0, # of connection points: 2
#     Edge 7, Type (0, 0), BuildingBlock: ZUJKAS_clean_linker_0, # of connection points: 2
#     Edge 8, Type (0, 0), BuildingBlock: ZUJKAS_clean_linker_0, # of connection points: 2
#     Edge 9, Type (0, 0), BuildingBlock: ZUJKAS_clean_linker_0, # of connection points: 2
#     Edge 10, Type (0, 0), BuildingBlock: ZUJKAS_clean_linker_0, # of connection points: 2
#     Edge 11, Type (0, 0), BuildingBlock: ZUJKAS_clean_linker_0, # of connection points: 2
#     Edge 12, Type (0, 0), BuildingBlock: ZUJKAS_clean_linker_0, # of connection points: 2
#     Edge 13, Type (0, 0), BuildingBlock: ZUJKAS_clean_linker_0, # of connection points: 2
#     Edge 14, Type (0, 0), BuildingBlock: ZUJKAS_clean_linker_0, # of connection points: 2
#     Edge 15, Type (0, 0), BuildingBlock: ZUJKAS_clean_linker_0, # of connection points: 2
# Relax obj value: 0.032
# Max RMSD: 0.150
# Mean RMSD: 0.150
data_MOF--net-rob--node1-KUMJIN_clean_sbu_0--edge1-ZUJKAS_clean_linker_0
_symmetry_space_group_name_H-M    P1
_symmetry_Int_Tables_number       1
_symmetry_cell_setting            triclinic
loop_
_symmetry_equiv_pos_as_xyz
'x, y, z'
_cell_length_a     20.040832
_cell_length_b     34.073097
_cell_length_c     41.829137
_cell_angle_alpha  118.31495
_cell_angle_beta   90.00003
_cell_angle_gamma 90.017446
loop_
_atom_site_label
_atom_site_type_symbol
_atom_site_fract_x
_atom_site_fract_y
_atom_site_fract_z
_atom_type_partial_charge
Eu0 Eu 0.18494 0.29381 0.0471 0.0
C1 C 0.37428 0.12748 0.97791 0.0
C2 C 0.47016 0.14977 0.01789 0.0
C3 C 0.43841 0.07163 0.98514 0.0
C4 C 0.41577 0.16061 1.00214 0.0
C5 C 0.38591 0.08248 0.96849 0.0
C6 C 0.48041 0.10524 1.00985 0.0
C7 C 0.29603 0.06209 0.92494 0.0
N8 N 0.32425 0.13909 0.96225 0.0
C9 C 0.28658 0.10718 0.93516 0.0
C10 C 0.34541 0.0497 0.94199 0.0
Eu11 Eu 0.309 0.21606 0.98208 0.0
N12 N 0.40478 0.20319 1.00903 0.0
C13 C 0.44915 0.23608 0.02935 0.0
C14 C 0.51357 0.18386 0.04051 0.0
C15 C 0.50353 0.22709 0.04583 0.0
H16 H 0.24807 0.11665 0.92208 0.0
H17 H 0.53753 0.25355 0.06271 0.0
H18 H 0.52157 0.09632 0.02193 0.0
H19 H 0.26516 0.03695 0.904 0.0
H20 H 0.44188 0.26968 0.03386 0.0
H21 H 0.9555 0.25487 0.96698 0.0
H22 H 0.55579 0.17697 0.05325 0.0
H23 H 0.24556 0.39361 0.10634 0.0
H24 H 0.05193 0.23939 0.99567 0.0
H25 H 0.22761 0.47313 0.12404 0.0
H26 H 0.44781 0.03729 0.97851 0.0
H27 H 0.93609 0.33122 0.97616 0.0
H28 H 0.96956 0.41199 1.00704 0.0
H29 H 0.35273 0.01474 0.93398 0.0
H30 H 0.04324 0.47148 0.05001 0.0
N31 N 0.08842 0.30604 0.02021 0.0
C32 C 0.04421 0.27291 1.00009 0.0
C33 C 0.97867 0.32462 0.98885 0.0
C34 C 0.02193 0.35895 1.01124 0.0
C35 C 0.98936 0.28152 0.98369 0.0
C36 C 0.07681 0.3485 0.02694 0.0
H37 H 0.13895 0.49469 0.09419 0.0
N38 N 0.16873 0.37062 0.06654 0.0
C39 C 0.19664 0.44779 0.10333 0.0
C40 C 0.11821 0.38187 0.05094 0.0
C41 C 0.20656 0.4028 0.09334 0.0
C42 C 0.14665 0.45981 0.08636 0.0
C43 C 0.10607 0.42676 0.06014 0.0
O44 O 0.17685 0.31833 0.10561 0.0
O45 O 0.27305 0.2505 0.03918 0.0
O46 O 0.24517 0.17632 1.00072 0.0
O47 O 0.14994 0.22117 0.01991 0.0
O48 O 0.2741 0.31175 0.08497 0.0
O49 O 0.10041 0.27475 0.06969 0.0
O50 O 0.31612 0.19342 0.92384 0.0
O51 O 0.22106 0.25947 0.99012 0.0
O52 O 0.24879 0.33334 0.02821 0.0
O53 O 0.34417 0.28864 1.00937 0.0
O54 O 0.2198 0.19839 0.94419 0.0
O55 O 0.39562 0.2333 0.95948 0.0
C56 C 0.30566 0.27454 0.0676 0.0
C57 C 0.06887 0.32513 0.12994 0.0
C58 C 0.01128 0.34427 0.18704 0.0
C59 C 0.06018 0.31972 0.16093 0.0
C60 C 0.9716 0.37465 0.18151 0.0
C61 C 0.0291 0.35566 0.12503 0.0
C62 C 0.9807 0.38031 0.15079 0.0
C63 C 0.1815 0.18289 1.01017 0.0
C64 C 0.11996 0.29865 0.10325 0.0
C65 C 0.05305 0.43723 0.04355 0.0
C66 C 0.0111 0.40336 0.01909 0.0
C67 C 0.18829 0.2356 0.96172 0.0
C68 C 0.42351 0.18332 0.89844 0.0
C69 C 0.43527 0.19081 0.86867 0.0
C70 C 0.48111 0.1643 0.84139 0.0
C71 C 0.51482 0.13 0.84449 0.0
C72 C 0.45752 0.14902 0.90103 0.0
C73 C 0.50298 0.1225 0.8741 0.0
C74 C 0.31252 0.32683 0.01887 0.0
C75 C 0.3746 0.21117 0.92603 0.0
H76 H 0.09206 0.29659 0.16476 0.0
H77 H 0.93272 0.39358 0.2006 0.0
H78 H 0.03536 0.36029 0.10133 0.0
H79 H 0.94979 0.40369 0.14684 0.0
H80 H 0.40926 0.21773 0.86707 0.0
H81 H 0.54983 0.10864 0.82382 0.0
H82 H 0.44884 0.14274 0.92374 0.0
H83 H 0.52903 0.09594 0.87612 0.0
Eu84 Eu 0.68283 0.79335 0.04475 0.0
C85 C 0.87264 0.62708 0.97616 0.0
C86 C 0.96918 0.65001 0.01569 0.0
C87 C 0.93749 0.57182 0.98384 0.0
C88 C 0.91433 0.66044 0.99995 0.0
C89 C 0.88456 0.58223 0.96716 0.0
C90 C 0.97966 0.60567 1.00813 0.0
C91 C 0.79417 0.5611 0.92384 0.0
N92 N 0.82221 0.63828 0.96045 0.0
C93 C 0.78446 0.60605 0.93364 0.0
C94 C 0.84394 0.54916 0.94099 0.0
Eu95 Eu 0.80653 0.71505 0.97953 0.0
N96 N 0.90298 0.70285 1.00647 0.0
C97 C 0.94736 0.73594 0.02643 0.0
C98 C 0.01278 0.68427 0.03779 0.0
C99 C 0.00226 0.72732 0.04281 0.0
H100 H 0.74565 0.6152 0.9205 0.0
H101 H 0.03633 0.75392 0.05935 0.0
H102 H 0.02112 0.59709 0.02026 0.0
H103 H 0.76323 0.53573 0.90315 0.0
H104 H 0.93977 0.7694 0.03071 0.0
H105 H 0.45197 0.75501 0.96589 0.0
H106 H 0.0555 0.67765 0.05037 0.0
H107 H 0.74416 0.89313 0.10371 0.0
H108 H 0.54894 0.73931 0.99413 0.0
H109 H 0.72699 0.97259 0.12096 0.0
H110 H 0.94708 0.53761 0.97756 0.0
H111 H 0.43319 0.83123 0.97471 0.0
H112 H 0.46851 0.91162 1.00425 0.0
H113 H 0.85148 0.51431 0.9333 0.0
H114 H 0.54313 0.97094 0.04662 0.0
N115 N 0.58633 0.8057 0.01798 0.0
C116 C 0.54156 0.77275 0.99831 0.0
C117 C 0.47614 0.82451 0.98707 0.0
C118 C 0.52025 0.85864 1.00883 0.0
C119 C 0.48642 0.78149 0.98216 0.0
C120 C 0.57526 0.8481 0.02439 0.0
H121 H 0.6389 0.99411 0.09078 0.0
N122 N 0.66757 0.87013 0.06377 0.0
C123 C 0.69594 0.94726 0.10029 0.0
C124 C 0.61719 0.88139 0.04807 0.0
C125 C 0.70544 0.90231 0.09055 0.0
C126 C 0.64628 0.95926 0.08313 0.0
C127 C 0.60548 0.92624 0.05702 0.0
O128 O 0.67684 0.81662 0.10311 0.0
O129 O 0.77075 0.74982 0.03663 0.0
O130 O 0.74256 0.67568 0.99852 0.0
O131 O 0.64756 0.72079 0.01797 0.0
O132 O 0.77231 0.81119 0.08238 0.0
O133 O 0.5965 0.77694 0.06818 0.0
O134 O 0.81331 0.69138 0.92113 0.0
O135 O 0.71847 0.75836 0.98765 0.0
O136 O 0.74648 0.83258 0.02552 0.0
O137 O 0.84164 0.78765 1.00635 0.0
O138 O 0.71715 0.69721 0.94175 0.0
O139 O 0.89246 0.73224 0.95642 0.0
C140 C 0.80361 0.77386 0.06496 0.0
C141 C 0.57001 0.82781 0.12925 0.0
C142 C 0.51259 0.84781 0.18657 0.0
C143 C 0.55707 0.82021 0.15888 0.0
C144 C 0.48143 0.88322 0.18394 0.0
C145 C 0.53831 0.86313 0.12711 0.0
C146 C 0.49421 0.89068 0.1544 0.0
C147 C 0.67899 0.68246 1.00821 0.0
C148 C 0.61822 0.79929 0.10147 0.0
C149 C 0.55255 0.93673 0.04039 0.0
C150 C 0.51004 0.90296 0.01629 0.0
C151 C 0.68557 0.73439 0.95933 0.0
C152 C 0.92067 0.68128 0.89568 0.0
C153 C 0.93365 0.68866 0.86595 0.0
C154 C 0.97942 0.66166 0.8388 0.0
C155 C 0.01184 0.62705 0.84204 0.0
C156 C 0.95359 0.64673 0.89843 0.0
C157 C -0.00103 0.61977 0.87167 0.0
C158 C 0.81011 0.82591 0.01597 0.0
C159 C 0.87151 0.70935 0.92302 0.0
H160 H 0.58123 0.79248 0.16008 0.0
H161 H 0.44773 0.90555 0.20493 0.0
H162 H 0.54787 0.86949 0.10452 0.0
H163 H 0.47007 0.91808 0.15275 0.0
H164 H 0.90856 0.71582 0.86428 0.0
H165 H 0.04662 0.60522 0.82147 0.0
H166 H 0.94407 0.64056 0.92112 0.0
H167 H 0.02409 0.59299 0.87381 0.0
Eu168 Eu 0.18431 0.7165 0.48065 0.0
C169 C 0.37363 0.88298 0.54988 0.0
C170 C 0.4696 0.86062 0.50997 0.0
C171 C 0.43802 0.93878 0.54269 0.0
C172 C 0.41511 0.84982 0.52569 0.0
C173 C 0.38541 0.92797 0.55931 0.0
C174 C 0.47998 0.90515 0.518 0.0
C175 C 0.2955 0.94843 0.60283 0.0
N176 N 0.32352 0.8714 0.56552 0.0
C177 C 0.28591 0.90335 0.59261 0.0
C178 C 0.34497 0.96079 0.5858 0.0
Eu179 Eu 0.3081 0.79446 0.54575 0.0
N180 N 0.404 0.80725 0.51881 0.0
C181 C 0.44834 0.77434 0.49853 0.0
C182 C 0.51297 0.82652 0.48739 0.0
C183 C 0.5028 0.7833 0.48207 0.0
H184 H 0.24735 0.8939 0.60568 0.0
H185 H 0.53677 0.75682 0.46523 0.0
H186 H 0.52122 0.91404 0.50595 0.0
H187 H 0.26468 0.97359 0.62377 0.0
H188 H 0.441 0.74075 0.49402 0.0
H189 H 0.9549 0.75585 0.56083 0.0
H190 H 0.55526 0.83338 0.47467 0.0
H191 H 0.24462 0.6166 0.42154 0.0
H192 H 0.05133 0.77113 0.53203 0.0
H193 H 0.22645 0.53713 0.40402 0.0
H194 H 0.44753 0.97312 0.54932 0.0
H195 H 0.93537 0.6796 0.55188 0.0
H196 H 0.96871 0.59883 0.5212 0.0
H197 H 0.35241 0.99574 0.59381 0.0
H198 H 0.04224 0.53922 0.4783 0.0
N199 N 0.08771 0.70447 0.50762 0.0
C200 C 0.04357 0.73766 0.52769 0.0
C201 C 0.97796 0.68611 0.53913 0.0
C202 C 0.02116 0.65173 0.5168 0.0
C203 C 0.98871 0.72915 0.54417 0.0
C204 C 0.07604 0.66207 0.50103 0.0
H205 H 0.13783 0.5158 0.43405 0.0
N206 N 0.16794 0.63976 0.46142 0.0
C207 C 0.19558 0.56254 0.42472 0.0
C208 C 0.11739 0.62862 0.47709 0.0
C209 C 0.20563 0.60749 0.43461 0.0
C210 C 0.14561 0.55064 0.4418 0.0
C211 C 0.10515 0.58378 0.468 0.0
O212 O 0.17691 0.69186 0.42212 0.0
O213 O 0.27226 0.76001 0.48862 0.0
O214 O 0.24414 0.83421 0.52716 0.0
O215 O 0.14915 0.78909 0.5076 0.0
O216 O 0.27368 0.69862 0.44295 0.0
O217 O 0.09963 0.73487 0.45766 0.0
O218 O 0.31504 0.81728 0.60403 0.0
O219 O 0.22027 0.75091 0.53768 0.0
O220 O 0.24818 0.67704 0.49957 0.0
O221 O 0.34342 0.72191 0.5186 0.0
O222 O 0.21876 0.81208 0.58351 0.0
O223 O 0.3946 0.77735 0.56851 0.0
C224 C 0.30501 0.73595 0.46026 0.0
C225 C 0.06938 0.68445 0.39715 0.0
C226 C 0.01139 0.66645 0.34037 0.0
C227 C 0.05992 0.69098 0.36676 0.0
C228 C 0.97313 0.63475 0.34491 0.0
C229 C 0.03097 0.65269 0.40112 0.0
C230 C 0.98313 0.62791 0.375 0.0
C231 C 0.18053 0.8275 0.51756 0.0
C232 C 0.11983 0.71117 0.4242 0.0
C233 C 0.05212 0.57343 0.48467 0.0
C234 C 0.01026 0.60736 0.50909 0.0
C235 C 0.18739 0.77478 0.56602 0.0
C236 C 0.42237 0.82751 0.62953 0.0
C237 C 0.43414 0.8201 0.65934 0.0
C238 C 0.47998 0.84668 0.6866 0.0
C239 C 0.51367 0.88097 0.68347 0.0
C240 C 0.45637 0.8618 0.6269 0.0
C241 C 0.50181 0.88839 0.65382 0.0
C242 C 0.31187 0.68365 0.50901 0.0
C243 C 0.3735 0.79957 0.60193 0.0
H244 H 0.09085 0.71507 0.36367 0.0
H245 H 0.93456 0.61577 0.32561 0.0
H246 H 0.03785 0.64719 0.42437 0.0
H247 H 0.95325 0.60355 0.37823 0.0
H248 H 0.40815 0.79319 0.66097 0.0
H249 H 0.54868 0.90237 0.70413 0.0
H250 H 0.4477 0.86801 0.60415 0.0
H251 H 0.52786 0.91494 0.65176 0.0
Eu252 Eu 0.68411 0.21831 0.48334 0.0
C253 C 0.87465 0.38459 0.55329 0.0
C254 C 0.97105 0.36212 0.51367 0.0
C255 C 0.94016 0.44039 0.54666 0.0
C256 C 0.91613 0.35138 0.52916 0.0
C257 C 0.88698 0.4296 0.56295 0.0
C258 C 0.98206 0.40669 0.522 0.0
C259 C 0.7964 0.45013 0.60608 0.0
N260 N 0.82397 0.37305 0.56862 0.0
C261 C 0.7863 0.40504 0.59565 0.0
C262 C 0.84647 0.46247 0.58936 0.0
Eu263 Eu 0.80805 0.29611 0.54872 0.0
N264 N 0.90433 0.30874 0.52193 0.0
C265 C 0.94819 0.27563 0.50134 0.0
C266 C 0.01408 0.32789 0.49092 0.0
C267 C 0.00305 0.28455 0.48511 0.0
H268 H 0.74732 0.39562 0.60851 0.0
H269 H 0.03667 0.25795 0.46807 0.0
H270 H 0.02367 0.41554 0.51015 0.0
H271 H 0.76553 0.47532 0.62696 0.0
H272 H 0.94024 0.24195 0.49645 0.0
H273 H 0.45341 0.25672 0.56231 0.0
H274 H 0.05667 0.33471 0.47837 0.0
H275 H 0.74484 0.11856 0.42408 0.0
H276 H 0.55039 0.27241 0.53408 0.0
H277 H 0.72727 0.03903 0.4066 0.0
H278 H 0.95011 0.47474 0.55348 0.0
H279 H 0.43442 0.18046 0.55339 0.0
H280 H 0.46941 0.10002 0.52366 0.0
H281 H 0.85433 0.49743 0.59755 0.0
H282 H 0.54371 0.04067 0.4811 0.0
N283 N 0.58759 0.20599 0.51013 0.0
C284 C 0.54292 0.23896 0.52985 0.0
C285 C 0.47738 0.18718 0.54102 0.0
C286 C 0.52136 0.15303 0.51919 0.0
C287 C 0.48777 0.23022 0.54599 0.0
C288 C 0.57639 0.16357 0.50364 0.0
H289 H 0.63924 0.01749 0.4368 0.0
N290 N 0.66854 0.14151 0.46416 0.0
C291 C 0.69642 0.06436 0.42737 0.0
C292 C 0.61816 0.13026 0.47987 0.0
C293 C 0.70614 0.10934 0.43723 0.0
C294 C 0.64679 0.05236 0.44455 0.0
C295 C 0.60624 0.08539 0.47079 0.0
O296 O 0.67742 0.19474 0.42495 0.0
O297 O 0.77192 0.26199 0.49164 0.0
O298 O 0.74404 0.33611 0.53042 0.0
O299 O 0.64908 0.29094 0.51032 0.0
O300 O 0.77329 0.20104 0.44553 0.0
O301 O 0.59796 0.23523 0.46018 0.0
O302 O 0.81468 0.31858 0.60695 0.0
O303 O 0.71994 0.25269 0.54042 0.0
O304 O 0.74791 0.17867 0.50213 0.0
O305 O 0.84315 0.22351 0.52128 0.0
O306 O 0.71872 0.31374 0.58646 0.0
O307 O 0.89444 0.27891 0.57151 0.0
C308 C 0.80452 0.2384 0.4631 0.0
C309 C 0.57015 0.18423 0.39935 0.0
C310 C 0.51194 0.16423 0.34224 0.0
C311 C 0.55731 0.1915 0.36955 0.0
C312 C 0.47979 0.12947 0.34542 0.0
C313 C 0.53749 0.14955 0.40203 0.0
C314 C 0.49251 0.12232 0.37512 0.0
C315 C 0.68057 0.32937 0.52051 0.0
C316 C 0.61907 0.21249 0.4268 0.0
C317 C 0.55329 0.07489 0.48742 0.0
C318 C 0.51097 0.10868 0.51163 0.0
C319 C 0.68707 0.2766 0.56877 0.0
C320 C 0.92201 0.32942 0.63248 0.0
C321 C 0.93463 0.32215 0.6623 0.0
C322 C 0.97985 0.34945 0.68968 0.0
C323 C 0.01205 0.38424 0.68659 0.0
C324 C 0.95473 0.36413 0.62988 0.0
C325 C -0.00047 0.3914 0.65688 0.0
C326 C 0.81162 0.18521 0.51152 0.0
C327 C 0.87329 0.3011 0.60493 0.0
H328 H 0.58222 0.21875 0.36793 0.0
H329 H 0.44535 0.10742 0.32473 0.0
H330 H 0.54692 0.14346 0.42477 0.0
H331 H 0.4676 0.09543 0.3772 0.0
H332 H 0.90971 0.29487 0.66386 0.0
H333 H 0.04639 0.40629 0.70734 0.0
H334 H 0.94551 0.37021 0.60712 0.0
H335 H 0.02448 0.41832 0.65485 0.0
H336 H 0.54448 0.67813 0.01719 0.0
H337 H 0.48216 0.61769 0.01909 0.0
H338 H 0.66414 0.54278 1.00184 0.0
H339 H 0.72716 0.603 0.99993 0.0
H340 H 0.55512 0.49302 0.95766 0.0
H341 H 0.48584 0.58741 0.10351 0.0
H342 H 0.46497 0.61451 0.07701 0.0
H343 H 0.55104 0.60555 0.08371 0.0
C344 C 0.5714 0.64885 1.0138 0.0
C345 C 0.64086 0.64539 1.00831 0.0
C346 C 0.53568 0.61445 0.01506 0.0
C347 C 0.56878 0.57616 1.01112 0.0
C348 C 0.63783 0.57221 1.00506 0.0
H349 H 0.447 0.33136 1.00991 0.0
H350 H 0.50902 0.39185 1.0079 0.0
C351 C 0.67367 0.6066 1.00382 0.0
C352 C 0.53121 0.54 1.01299 0.0
H353 H 0.43572 0.51642 0.06928 0.0
C354 C 0.52921 0.49799 0.98207 0.0
C355 C 0.4975 0.54681 0.04491 0.0
C356 C 0.50023 0.59087 0.07931 0.0
C357 C 0.49332 0.46263 0.98203 0.0
C358 C 0.45965 0.46943 1.01396 0.0
C359 C 0.46161 0.51145 0.04487 0.0
C360 C 0.42224 0.43324 0.01587 0.0
C361 C 0.49058 0.41857 0.94763 0.0
C362 C 0.35319 0.43711 0.02196 0.0
C363 C 0.31752 0.40269 0.02325 0.0
C364 C 0.3505 0.36396 0.01879 0.0
C365 C 0.41995 0.3606 1.01328 0.0
C366 C 0.4555 0.39502 1.01195 0.0
H367 H 0.50486 0.42205 0.92342 0.0
H368 H 0.52592 0.39495 0.9499 0.0
H369 H 0.4398 0.40386 0.94326 0.0
H370 H 0.32676 0.46649 0.02516 0.0
H371 H 0.26403 0.40623 0.02717 0.0
H372 H 0.26353 0.60405 0.50034 0.0
H373 H 0.32632 0.54358 0.50185 0.0
H374 H 0.50826 0.61903 0.52064 0.0
H375 H 0.44631 0.67934 0.51829 0.0
H376 H 0.51925 0.52901 0.46736 0.0
H377 H 0.40293 0.54654 0.59404 0.0
H378 H 0.34471 0.53993 0.55918 0.0
H379 H 0.39613 0.58896 0.57999 0.0
C380 C 0.31698 0.60771 0.50444 0.0
C381 C 0.3499 0.64653 0.50906 0.0
C382 C 0.35264 0.57327 0.50568 0.0
C383 C 0.42167 0.57722 0.51191 0.0
C384 C 0.45489 0.61554 0.51598 0.0
H385 H 0.72911 0.40918 0.52972 0.0
H386 H 0.6666 0.46969 0.5281 0.0
C387 C 0.41933 0.64998 0.51469 0.0
C388 C 0.45948 0.54123 0.51394 0.0
H389 H 0.47386 0.48421 0.56217 0.0
C390 C 0.50961 0.51928 0.48815 0.0
C391 C 0.44658 0.52876 0.54113 0.0
C392 C 0.39509 0.55248 0.57038 0.0
C393 C 0.54657 0.4845 0.48842 0.0
C394 C 0.53362 0.472 0.51559 0.0
C395 C 0.48351 0.49396 0.54139 0.0
C396 C 0.57128 0.43594 0.51757 0.0
C397 C 0.59814 0.46079 0.45921 0.0
C398 C 0.53798 0.39754 0.51323 0.0
C399 C 0.57337 0.36306 0.51454 0.0
C400 C 0.64271 0.36656 0.52048 0.0
C401 C 0.67572 0.40547 0.52537 0.0
C402 C 0.64022 0.43994 0.52408 0.0
H403 H 0.59064 0.46694 0.43564 0.0
H404 H 0.64853 0.47313 0.47052 0.0
H405 H 0.59682 0.42428 0.44946 0.0
H406 H 0.48467 0.39402 0.50836 0.0
H407 H 0.54632 0.33362 0.51072 0.0
H408 H 0.04694 0.17831 0.01895 0.0
H409 H 0.98469 0.11749 0.02033 0.0
H410 H 0.16662 0.04218 1.00177 0.0
H411 H 0.22971 0.10313 1.00119 0.0
H412 H 0.97488 0.02767 0.96595 0.0
H413 H 0.08739 0.04319 0.09285 0.0
H414 H 0.09457 0.08633 0.07961 0.0
H415 H 0.14651 0.0376 0.05866 0.0
C416 C 0.07387 0.14888 0.01521 0.0
C417 C 0.14337 0.14559 1.00987 0.0
C418 C 0.03813 0.11415 0.01596 0.0
C419 C 0.07124 0.0757 1.01163 0.0
C420 C 0.14037 0.07196 1.00577 0.0
H421 H 0.94472 0.83055 1.00739 0.0
H422 H 0.00703 0.89129 1.00591 0.0
C423 C 0.17622 0.10667 1.00507 0.0
C424 C 0.03317 0.0393 1.01286 0.0
H425 H 0.01681 0.98096 0.05992 0.0
C426 C 0.98377 0.01751 0.98655 0.0
C427 C 0.04512 0.02626 0.0398 0.0
C428 C 0.09585 0.04975 0.06956 0.0
C429 C 0.94659 0.98236 0.98606 0.0
C430 C 0.95852 0.96932 1.013 0.0
C431 C 0.00793 0.99111 0.03932 0.0
C432 C 0.92042 0.93293 0.01425 0.0
C433 C 0.8959 0.95886 0.95628 0.0
C434 C 0.85123 0.9366 0.01992 0.0
C435 C 0.81537 0.90191 0.02065 0.0
C436 C 0.84824 0.86312 0.0161 0.0
C437 C 0.91778 0.85989 1.01093 0.0
C438 C 0.95354 0.89458 1.01014 0.0
H439 H 0.90457 0.96529 0.93294 0.0
H440 H 0.89699 0.9223 0.94632 0.0
H441 H 0.84526 0.97115 0.96712 0.0
H442 H 0.82496 0.9663 0.02376 0.0
H443 H 0.76183 0.90539 0.02437 0.0
H444 H 0.94623 0.18072 0.52024 0.0
H445 H 0.00877 0.11967 0.52093 0.0
H446 H 0.82701 0.04409 0.50236 0.0
H447 H 0.76358 0.10542 0.5026 0.0
H448 H 0.90558 0.04651 0.55843 0.0
H449 H 0.05624 0.99955 0.43409 0.0
H450 H 0.061 0.05754 0.46693 0.0
H451 H 0.98298 0.03435 0.44479 0.0
C452 C 0.91945 0.15107 0.51611 0.0
C453 C 0.84991 0.14778 0.51091 0.0
C454 C 0.95542 0.11609 0.51628 0.0
C455 C 0.92264 0.07711 0.51105 0.0
C456 C 0.85326 0.07379 0.50611 0.0
H457 H 0.04606 0.83156 0.50817 0.0
H458 H 0.98341 0.89254 0.50742 0.0
C459 C 0.81718 0.10879 0.50602 0.0
C460 C 0.96043 0.04043 0.51203 0.0
H461 H 0.08631 0.96595 0.47045 0.0
C462 C 0.94488 0.0287 0.5391 0.0
C463 C 0.01173 0.01745 0.48681 0.0
C464 C 0.02873 0.0275 0.45629 0.0
C465 C 0.98012 0.99499 0.54203 0.0
C466 C 0.03145 0.97205 0.51684 0.0
C467 C 0.047 0.98376 0.48976 0.0
C468 C 0.0693 0.93542 0.51787 0.0
C469 C 0.96305 0.98485 0.5725 0.0
C470 C 0.13858 0.939 0.52319 0.0
C471 C 0.17473 0.90407 0.52336 0.0
C472 C 0.14216 0.86488 0.51812 0.0
C473 C 0.07271 0.86136 0.51255 0.0
C474 C 0.03668 0.89628 0.51234 0.0
H475 H 0.93512 0.01264 0.59461 0.0
H476 H 0.93119 0.95462 0.56175 0.0
H477 H 0.00883 0.97825 0.58414 0.0
H478 H 0.16469 0.96884 0.52719 0.0
H479 H 0.22825 0.90766 0.52712 0.0
H480 H 0.39138 0.15941 0.30964 0.0
H481 H 0.36766 0.1728 0.25837 0.0
H482 H 0.57525 0.20254 0.25314 0.0
H483 H 0.59999 0.18751 0.3036 0.0
H484 H 0.3848 0.25014 0.2554 0.0
H485 H 0.53427 0.11555 0.1472 0.0
H486 H 0.51508 0.11634 0.18968 0.0
H487 H 0.58079 0.15086 0.18742 0.0
C488 C 0.43233 0.16799 0.29721 0.0
C489 C 0.4977 0.17216 0.31075 0.0
C490 C 0.41857 0.17591 0.268 0.0
C491 C 0.46979 0.18804 0.2515 0.0
C492 C 0.53511 0.19233 0.2649 0.0
H493 H 0.3921 0.32132 0.1222 0.0
H494 H 0.44045 0.29875 0.1648 0.0
C495 C 0.54899 0.18433 0.29413 0.0
C496 C 0.45373 0.19859 0.22169 0.0
H497 H 0.48664 0.16929 0.13288 0.0
C498 C 0.4071 0.23242 0.22863 0.0
C499 C 0.48236 0.17517 0.18662 0.0
C500 C 0.53045 0.13716 0.17705 0.0
C501 C 0.38856 0.24368 0.20166 0.0
C502 C 0.4184 0.22109 0.16689 0.0
C503 C 0.46457 0.18693 0.15971 0.0
C504 C 0.4 0.23191 0.13758 0.0
C505 C 0.33598 0.27908 0.21042 0.0
C506 C 0.36432 0.20103 0.10709 0.0
C507 C 0.33693 0.21382 0.08264 0.0
C508 C 0.34554 0.25754 0.08813 0.0
C509 C 0.38488 0.28742 0.11735 0.0
C510 C 0.41227 0.27462 0.14173 0.0
H511 H 0.30735 0.28577 0.23524 0.0
H512 H 0.36043 0.31061 0.21515 0.0
H513 H 0.30045 0.26913 0.18749 0.0
H514 H 0.35441 0.16786 0.10336 0.0
H515 H 0.30611 0.19025 0.06069 0.0
H516 H 0.39243 0.854 0.21995 0.0
H517 H 0.36863 0.84022 0.27101 0.0
H518 H 0.57522 0.80705 0.27436 0.0
H519 H 0.60011 0.8225 0.22413 0.0
H520 H 0.38317 0.76222 0.27317 0.0
H521 H 0.53801 0.8936 0.3808 0.0
H522 H 0.51858 0.89367 0.33867 0.0
H523 H 0.583 0.85785 0.34013 0.0
C524 C 0.43318 0.84459 0.23192 0.0
C525 C 0.49831 0.83959 0.21792 0.0
C526 C 0.41936 0.83644 0.26101 0.0
C527 C 0.47027 0.82323 0.27692 0.0
C528 C 0.53534 0.8181 0.26305 0.0
H529 H 0.3908 0.68905 0.40535 0.0
H530 H 0.43926 0.71175 0.36285 0.0
C531 C 0.54929 0.82634 0.23395 0.0
C532 C 0.45405 0.81248 0.30661 0.0
H533 H 0.48843 0.84025 0.39499 0.0
C534 C 0.40623 0.77932 0.29978 0.0
C535 C 0.48371 0.83509 0.34149 0.0
C536 C 0.53324 0.87233 0.35095 0.0
C537 C 0.38747 0.76795 0.32666 0.0
C538 C 0.41823 0.78975 0.36122 0.0
C539 C 0.46562 0.82323 0.36831 0.0
C540 C 0.39961 0.77877 0.39041 0.0
C541 C 0.33377 0.73326 0.31805 0.0
C542 C 0.36417 0.80965 0.42098 0.0
C543 C 0.33659 0.79676 0.44534 0.0
C544 C 0.34484 0.75295 0.43969 0.0
C545 C 0.38388 0.72303 0.41034 0.0
C546 C 0.41137 0.73591 0.38603 0.0
H547 H 0.30511 0.72697 0.29334 0.0
H548 H 0.35717 0.70142 0.31326 0.0
H549 H 0.29843 0.74369 0.34111 0.0
H550 H 0.35461 0.84292 0.42487 0.0
H551 H 0.30598 0.82036 0.46737 0.0
H552 H 0.68598 0.81819 0.96544 0.0
H553 H 0.63509 0.84061 0.92352 0.0
H554 H 0.54496 0.71058 0.86438 0.0
H555 H 0.59659 0.68791 0.90614 0.0
H556 H 0.6196 0.73228 0.82125 0.0
H557 H 0.44995 0.87293 0.90388 0.0
H558 H 0.53202 0.87865 0.92286 0.0
H559 H 0.47884 0.83402 0.91874 0.0
C560 C 0.65351 0.79491 0.94428 0.0
C561 C 0.64458 0.75143 0.93924 0.0
C562 C 0.62428 0.8078 0.92031 0.0
C563 C 0.58564 0.77742 0.89092 0.0
C564 C 0.57432 0.73465 0.88692 0.0
H565 H 0.38977 0.82674 0.72625 0.0
H566 H 0.41291 0.81009 0.77612 0.0
C567 C 0.60369 0.72174 0.91077 0.0
C568 C 0.56459 0.788 0.86178 0.0
H569 H 0.47831 0.86278 0.84491 0.0
C570 C 0.58821 0.76061 0.82642 0.0
C571 C 0.5234 0.82483 0.86844 0.0
C572 C 0.494 0.85412 0.90546 0.0
C573 C 0.57301 0.7695 0.79776 0.0
C574 C 0.53403 0.80729 0.80466 0.0
C575 C 0.50887 0.83412 0.83978 0.0
C576 C 0.51958 0.8194 0.77563 0.0
C577 C 0.59858 0.73817 0.76021 0.0
C578 C 0.57177 0.83077 0.75918 0.0
C579 C 0.55882 0.84002 0.73059 0.0
C580 C 0.4933 0.83824 0.71788 0.0
C581 C 0.44091 0.82775 0.73498 0.0
C582 C 0.45393 0.81859 0.76367 0.0
H583 H 0.61271 0.70526 0.75763 0.0
H584 H 0.56053 0.73288 0.73924 0.0
H585 H 0.64359 0.75287 0.75459 0.0
H586 H 0.62273 0.83208 0.76827 0.0
H587 H 0.60041 0.84764 0.71792 0.0
H588 H 0.68715 0.19274 0.56252 0.0
H589 H 0.63608 0.17029 0.60442 0.0
H590 H 0.54623 0.30036 0.66359 0.0
H591 H 0.59803 0.32305 0.62188 0.0
H592 H 0.62078 0.27868 0.7067 0.0
H593 H 0.45082 0.13812 0.62414 0.0
H594 H 0.5329 0.13229 0.60516 0.0
H595 H 0.47989 0.17695 0.60923 0.0
C596 C 0.6547 0.21601 0.58368 0.0
C597 C 0.64592 0.25952 0.58877 0.0
C598 C 0.62537 0.20311 0.60764 0.0
C599 C 0.58678 0.23351 0.63704 0.0
C600 C 0.57556 0.27629 0.64105 0.0
H601 H 0.39085 0.18427 0.80179 0.0
H602 H 0.41393 0.20094 0.75193 0.0
C603 C 0.60504 0.28921 0.61722 0.0
C604 C 0.56569 0.22296 0.66619 0.0
H605 H 0.47921 0.14827 0.68312 0.0
C606 C 0.58933 0.25037 0.70154 0.0
C607 C 0.5244 0.18617 0.65955 0.0
C608 C 0.49495 0.15687 0.62254 0.0
C609 C 0.57407 0.24153 0.73023 0.0
C610 C 0.53503 0.20375 0.72335 0.0
C611 C 0.50983 0.17691 0.68823 0.0
C612 C 0.52061 0.19166 0.75239 0.0
C613 C 0.59967 0.27289 0.76777 0.0
C614 C 0.57281 0.18031 0.76884 0.0
C615 C 0.55991 0.17105 0.79743 0.0
C616 C 0.4944 0.1728 0.81014 0.0
C617 C 0.44198 0.18329 0.79306 0.0
C618 C 0.45498 0.19245 0.76436 0.0
H619 H 0.6138 0.3058 0.77033 0.0
H620 H 0.56163 0.27818 0.78875 0.0
H621 H 0.64468 0.25822 0.7734 0.0
H622 H 0.62376 0.17901 0.75974 0.0
H623 H 0.60151 0.16344 0.81009 0.0
H624 H 0.88812 0.82108 0.12043 0.0
H625 H 0.93747 0.79791 0.16244 0.0
H626 H 0.8563 0.66598 0.09882 0.0
H627 H 0.806 0.68915 0.05713 0.0
H628 H 0.84501 0.76289 0.19854 0.0
H629 H 0.05373 0.64676 0.12539 0.0
H630 H 0.02937 0.69114 0.11573 0.0
H631 H 0.97779 0.64266 0.10089 0.0
C632 C 0.88233 0.78682 0.11491 0.0
C633 C 0.84389 0.75681 0.0853 0.0
C634 C 0.91053 0.77364 0.13887 0.0
C635 C 0.90095 0.73017 0.13355 0.0
C636 C 0.86521 0.69946 0.10305 0.0
H637 H 0.98055 0.60555 0.26981 0.0
H638 H 0.95473 0.62034 0.21934 0.0
C639 C 0.83658 0.71274 0.07918 0.0
C640 C 0.92006 0.71909 0.16254 0.0
H641 H 0.02655 0.65662 0.18373 0.0
C642 C 0.88487 0.73978 0.19541 0.0
C643 C 0.97127 0.68843 0.15802 0.0
C644 C 0.01069 0.6659 0.12321 0.0
C645 C 0.89928 0.73058 0.22398 0.0
C646 C 0.95182 0.7008 0.22 0.0
C647 C 0.9866 0.67963 0.18686 0.0
C648 C 0.97106 0.69148 0.25008 0.0
C649 C 0.85684 0.75209 0.25782 0.0
C650 C 0.99017 0.72639 0.28396 0.0
C651 C 0.00369 0.71822 0.31306 0.0
C652 C -0.00042 0.67475 0.30882 0.0
C653 C 0.98287 0.63957 0.27438 0.0
C654 C 0.96876 0.64787 0.24534 0.0
H655 H 0.8076 0.76268 0.25236 0.0
H656 H 0.84834 0.72905 0.26929 0.0
H657 H 0.88263 0.78226 0.27859 0.0
H658 H 0.99371 0.76019 0.28809 0.0
H659 H 0.01579 0.74628 0.33911 0.0
H660 H 0.80927 0.3244 0.47378 0.0
H661 H 0.85973 0.35 0.43381 0.0
H662 H 0.93257 0.21711 0.36426 0.0
H663 H 0.88508 0.19191 0.40535 0.0
H664 H 0.02153 0.28026 0.36873 0.0
H665 H 0.76739 0.31988 0.33923 0.0
H666 H 0.7905 0.34999 0.38623 0.0
H667 H 0.78121 0.29037 0.36477 0.0
C668 C 0.83778 0.30095 0.45066 0.0
C669 C 0.84372 0.25618 0.44286 0.0
C670 C 0.86584 0.3155 0.42749 0.0
C671 C 0.89845 0.28522 0.3955 0.0
C672 C 0.90733 0.24104 0.38866 0.0
H673 H 0.01734 0.2661 0.19096 0.0
H674 H -0.00305 0.25508 0.24374 0.0
C675 C 0.8801 0.22665 0.4121 0.0
C676 C 0.91889 0.29839 0.36775 0.0
H677 H 0.8572 0.3354 0.31061 0.0
C678 C 0.98567 0.29249 0.35613 0.0
C679 C 0.87192 0.31404 0.35107 0.0
C680 C 0.79865 0.31858 0.36065 0.0
C681 C 0.00663 0.30177 0.32832 0.0
C682 C 0.95956 0.31714 0.31163 0.0
C683 C 0.89319 0.32384 0.32366 0.0
C684 C 0.97715 0.32459 0.28048 0.0
C685 C 0.07891 0.29508 0.31695 0.0
C686 C 0.97234 0.36731 0.28356 0.0
C687 C 0.98454 0.37386 0.25348 0.0
C688 C 0.00096 0.33767 0.21953 0.0
C689 C 0.00606 0.29491 0.21672 0.0
C690 C 0.99433 0.28848 0.24688 0.0
H691 H 0.11134 0.29304 0.33765 0.0
H692 H 0.0841 0.26347 0.29117 0.0
H693 H 0.09687 0.32266 0.3121 0.0
H694 H 0.95884 0.39558 0.30924 0.0
H695 H 0.98112 0.40735 0.25689 0.0
H696 H 0.89161 0.32623 0.72825 0.0
H697 H 0.91629 0.31062 0.77843 0.0
H698 H 0.12405 0.33995 0.77314 0.0
H699 H 0.10036 0.35395 0.72217 0.0
H700 H 0.10616 0.26202 0.7752 0.0
H701 H 0.95839 0.39648 0.88456 0.0
H702 H 0.9115 0.36181 0.84431 0.0
H703 H 0.97752 0.39629 0.8423 0.0
C704 C 0.94262 0.32922 0.73767 0.0
C705 C 0.99399 0.34141 0.72111 0.0
C706 C 0.95647 0.32089 0.76672 0.0
C707 C 0.02185 0.32484 0.77998 0.0
C708 C 0.07311 0.33709 0.76359 0.0
H709 H 0.18758 0.32007 0.96904 0.0
H710 H 0.13832 0.34297 0.92694 0.0
C711 C 0.05938 0.34535 0.73456 0.0
C712 C 0.03793 0.31372 0.80946 0.0
H713 H 0.00596 0.34214 0.89818 0.0
C714 C 0.0842 0.27957 0.80207 0.0
C715 C 0.0097 0.33691 0.84464 0.0
C716 C 0.96197 0.3752 0.85467 0.0
C717 C 0.1029 0.26781 0.82872 0.0
C718 C 0.07353 0.29021 0.86362 0.0
C719 C 0.02764 0.32465 0.87124 0.0
C720 C 0.09241 0.27906 0.89267 0.0
C721 C 0.15521 0.23214 0.8195 0.0
C722 C 0.08031 0.23623 0.88833 0.0
C723 C 0.10829 0.22313 0.91239 0.0
C724 C 0.14801 0.25283 0.94151 0.0
C725 C 0.15647 0.29664 0.9472 0.0
C726 C 0.12851 0.30973 0.92306 0.0
H727 H 0.18351 0.22557 0.79461 0.0
H728 H 0.19108 0.24173 0.84224 0.0
H729 H 0.13056 0.20063 0.81467 0.0
H730 H 0.0518 0.21226 0.86533 0.0
H731 H 0.10117 0.18916 0.90739 0.0
H732 H 0.1004 0.82117 0.62041 0.0
H733 H 0.05156 0.79819 0.66266 0.0
H734 H 0.13836 0.66758 0.60118 0.0
H735 H 0.18707 0.69037 0.55887 0.0
H736 H 0.00647 0.66812 0.63002 0.0
H737 H 0.18334 0.78554 0.73356 0.0
H738 H 0.13011 0.81026 0.71345 0.0
H739 H 0.19082 0.76932 0.68591 0.0
C740 C 0.10769 0.78724 0.61548 0.0
C741 C 0.14734 0.75755 0.58634 0.0
C742 C 0.08003 0.77421 0.63966 0.0
C743 C 0.09237 0.73146 0.63542 0.0
C744 C 0.12838 0.70078 0.605 0.0
H745 H 0.10027 0.65779 0.80677 0.0
H746 H 0.12425 0.67168 0.75577 0.0
C747 C 0.15602 0.7138 0.58074 0.0
C748 C 0.07368 0.72038 0.66454 0.0
H749 H 0.10606 0.74915 0.75312 0.0
C750 C 0.02804 0.68581 0.65698 0.0
C751 C 0.1029 0.74302 0.69948 0.0
C752 C 0.15498 0.77884 0.70865 0.0
C753 C 0.01016 0.67368 0.68367 0.0
C754 C 0.03817 0.69714 0.7189 0.0
C755 C 0.08425 0.7314 0.72623 0.0
C756 C 0.022 0.68622 0.74849 0.0
C757 C 0.96271 0.63523 0.67369 0.0
C758 C 0.9565 0.68993 0.76155 0.0
C759 C 0.94249 0.68164 0.79062 0.0
C760 C 0.9938 0.66977 0.80741 0.0
C761 C 0.05933 0.66614 0.7942 0.0
C762 C 0.07323 0.67434 0.76515 0.0
H763 H 0.95946 0.61374 0.64381 0.0
H764 H 0.97828 0.61439 0.68627 0.0
H765 H 0.91209 0.64846 0.68384 0.0
H766 H 0.91633 0.69992 0.74965 0.0
H767 H 0.89138 0.6844 0.79984 0.0
loop_
_geom_bond_atom_site_label_1
_geom_bond_atom_site_label_2
_geom_bond_distance
_geom_bond_site_symmetry_2
_ccdc_geom_bond_type
Eu0 N31 2.657 . S
Eu0 N38 2.609 . S
Eu0 O44 2.558 . S
Eu0 O45 2.612 . S
Eu0 O47 2.339 . S
Eu0 O48 2.563 . S
Eu0 O49 2.419 . S
Eu0 O51 2.380 1_554 S
Eu0 O52 2.432 . S
Eu0 C64 2.848 . S
C1 C4 1.429 . S
C1 C5 1.411 . S
C1 N8 1.377 . S
C2 C4 1.420 1_554 S
C2 C6 1.423 . S
C2 C14 1.392 . S
C3 C5 1.420 . S
C3 C6 1.351 1_556 S
C3 H26 0.931 . S
C4 C1 1.429 . S
C4 C2 1.420 1_556 S
C4 N12 1.362 . S
C5 C1 1.411 . S
C5 C3 1.420 . S
C5 C10 1.395 . S
C6 C2 1.423 . S
C6 C3 1.351 1_554 S
C6 H18 0.930 . S
C7 C9 1.400 . S
C7 C10 1.386 . S
C7 H19 0.930 . S
N8 C1 1.377 . S
N8 C9 1.321 . S
N8 Eu11 2.609 . S
C9 C7 1.400 . S
C9 N8 1.321 . S
C9 H16 0.930 . S
C10 C5 1.395 . S
C10 C7 1.386 . S
C10 H29 0.930 . S
Eu11 N8 2.609 . S
Eu11 N12 2.657 . S
Eu11 O45 2.380 1_556 S
Eu11 O46 2.432 . S
Eu11 O50 2.558 . S
Eu11 O51 2.612 . S
Eu11 O53 2.339 . S
Eu11 O54 2.563 . S
Eu11 O55 2.419 . S
Eu11 C75 2.848 . S
N12 C4 1.362 . S
N12 Eu11 2.657 . S
N12 C13 1.334 1_556 S
C13 N12 1.334 1_554 S
C13 C15 1.413 . S
C13 H20 0.929 . S
C14 C2 1.392 . S
C14 C15 1.367 . S
C14 H22 0.930 . S
C15 C13 1.413 . S
C15 C14 1.367 . S
C15 H17 0.930 . S
H16 C9 0.930 . S
H17 C15 0.930 . S
H18 C6 0.930 . S
H19 C7 0.930 . S
H20 C13 0.929 . S
H21 C35 0.930 . S
H22 C14 0.930 . S
H23 C41 0.930 . S
H24 C32 0.929 . S
H25 C39 0.930 . S
H26 C3 0.931 . S
H27 C33 0.930 . S
H28 C66 0.930 . S
H29 C10 0.930 . S
H30 C65 0.931 . S
N31 Eu0 2.657 . S
N31 C32 1.334 1_554 S
N31 C36 1.362 . S
C32 H24 0.929 . S
C32 N31 1.334 1_556 S
C32 C35 1.413 1_455 S
C33 H27 0.930 . S
C33 C34 1.392 . S
C33 C35 1.367 . S
C34 C33 1.392 . S
C34 C36 1.420 1_656 S
C34 C66 1.423 . S
C35 H21 0.930 . S
C35 C32 1.413 1_655 S
C35 C33 1.367 . S
C36 N31 1.362 . S
C36 C34 1.420 1_454 S
C36 C40 1.429 . S
H37 C42 0.930 . S
N38 Eu0 2.609 . S
N38 C40 1.377 . S
N38 C41 1.321 . S
C39 H25 0.930 . S
C39 C41 1.400 . S
C39 C42 1.386 . S
C40 C36 1.429 . S
C40 N38 1.377 . S
C40 C43 1.411 . S
C41 H23 0.930 . S
C41 N38 1.321 . S
C41 C39 1.400 . S
C42 H37 0.930 . S
C42 C39 1.386 . S
C42 C43 1.395 . S
C43 C40 1.411 . S
C43 C42 1.395 . S
C43 C65 1.420 1_455 S
O44 Eu0 2.558 . S
O44 C64 1.257 . S
O45 Eu0 2.612 . S
O45 Eu11 2.380 1_554 S
O45 C56 1.276 . S
O46 Eu11 2.432 . S
O46 C63 1.264 . S
O47 Eu0 2.339 . S
O47 C63 1.254 1_554 S
O48 Eu0 2.563 . S
O48 C56 1.235 . S
O49 Eu0 2.419 . S
O49 C64 1.249 . S
O50 Eu11 2.558 . S
O50 C75 1.257 . S
O51 Eu0 2.380 1_556 S
O51 Eu11 2.612 . S
O51 C67 1.276 . S
O52 Eu0 2.432 . S
O52 C74 1.264 . S
O53 Eu11 2.339 . S
O53 C74 1.254 1_556 S
O54 Eu11 2.563 . S
O54 C67 1.235 . S
O55 Eu11 2.419 . S
O55 C75 1.249 . S
C56 O45 1.276 . S
C56 O48 1.235 . S
C57 C59 1.393 . S
C57 C61 1.395 . S
C57 C64 1.492 . S
C58 C59 1.392 . S
C58 C60 1.386 . S
C59 C57 1.393 . S
C59 C58 1.392 . S
C59 H76 0.930 . S
C60 C58 1.386 . S
C60 C62 1.395 . S
C60 H77 0.930 . S
C61 C57 1.395 . S
C61 C62 1.379 . S
C61 H78 0.930 . S
C62 C60 1.395 . S
C62 C61 1.379 . S
C62 H79 0.930 . S
C63 O46 1.264 . S
C63 O47 1.254 1_556 S
C64 Eu0 2.848 . S
C64 O44 1.257 . S
C64 O49 1.249 . S
C64 C57 1.492 . S
C65 H30 0.931 . S
C65 C43 1.420 1_655 S
C65 C66 1.351 1_554 S
C66 H28 0.930 . S
C66 C34 1.423 . S
C66 C65 1.351 1_556 S
C67 O51 1.276 . S
C67 O54 1.235 . S
C68 C69 1.393 . S
C68 C72 1.395 . S
C68 C75 1.492 . S
C69 C68 1.393 . S
C69 C70 1.392 . S
C69 H80 0.930 . S
C70 C69 1.392 . S
C70 C71 1.386 . S
C71 C70 1.386 . S
C71 C73 1.395 . S
C71 H81 0.930 . S
C72 C68 1.395 . S
C72 C73 1.379 . S
C72 H82 0.930 . S
C73 C71 1.395 . S
C73 C72 1.379 . S
C73 H83 0.930 . S
C74 O52 1.264 . S
C74 O53 1.254 1_554 S
C75 Eu11 2.848 . S
C75 O50 1.257 . S
C75 O55 1.249 . S
C75 C68 1.492 . S
H76 C59 0.930 . S
H77 C60 0.930 . S
H78 C61 0.930 . S
H79 C62 0.930 . S
H80 C69 0.930 . S
H81 C71 0.930 . S
H82 C72 0.930 . S
H83 C73 0.930 . S
Eu84 N115 2.657 . S
Eu84 N122 2.609 . S
Eu84 O128 2.558 . S
Eu84 O129 2.612 . S
Eu84 O131 2.339 . S
Eu84 O132 2.563 . S
Eu84 O133 2.419 . S
Eu84 O135 2.380 1_554 S
Eu84 O136 2.432 . S
Eu84 C148 2.848 . S
C85 C88 1.429 . S
C85 C89 1.411 . S
C85 N92 1.377 . S
C86 C88 1.420 1_454 S
C86 C90 1.423 . S
C86 C98 1.392 . S
C87 C89 1.420 1_455 S
C87 C90 1.351 1_556 S
C87 H110 0.931 . S
C88 C85 1.429 . S
C88 C86 1.420 1_656 S
C88 N96 1.362 . S
C89 C85 1.411 . S
C89 C87 1.420 1_655 S
C89 C94 1.395 . S
C90 C86 1.423 . S
C90 C87 1.351 1_554 S
C90 H102 0.930 . S
C91 C93 1.400 . S
C91 C94 1.386 . S
C91 H103 0.930 . S
N92 C85 1.377 . S
N92 C93 1.321 . S
N92 Eu95 2.609 . S
C93 C91 1.400 . S
C93 N92 1.321 . S
C93 H100 0.930 . S
C94 C89 1.395 . S
C94 C91 1.386 . S
C94 H113 0.930 . S
Eu95 N92 2.609 . S
Eu95 N96 2.657 . S
Eu95 O129 2.380 1_556 S
Eu95 O130 2.432 . S
Eu95 O134 2.558 . S
Eu95 O135 2.612 . S
Eu95 O137 2.339 . S
Eu95 O138 2.563 . S
Eu95 O139 2.419 . S
Eu95 C159 2.848 . S
N96 C88 1.362 . S
N96 Eu95 2.657 . S
N96 C97 1.334 1_556 S
C97 N96 1.334 1_554 S
C97 C99 1.413 1_655 S
C97 H104 0.929 . S
C98 C86 1.392 . S
C98 C99 1.367 . S
C98 H106 0.930 . S
C99 C97 1.413 1_455 S
C99 C98 1.367 . S
C99 H101 0.930 . S
H100 C93 0.930 . S
H101 C99 0.930 . S
H102 C90 0.930 . S
H103 C91 0.930 . S
H104 C97 0.929 . S
H105 C119 0.930 . S
H106 C98 0.930 . S
H107 C125 0.930 . S
H108 C116 0.929 . S
H109 C123 0.930 . S
H110 C87 0.931 . S
H111 C117 0.930 . S
H112 C150 0.930 . S
H113 C94 0.930 . S
H114 C149 0.931 . S
N115 Eu84 2.657 . S
N115 C116 1.334 1_554 S
N115 C120 1.362 . S
C116 H108 0.929 . S
C116 N115 1.334 1_556 S
C116 C119 1.413 . S
C117 H111 0.930 . S
C117 C118 1.392 . S
C117 C119 1.367 . S
C118 C117 1.392 . S
C118 C120 1.420 1_556 S
C118 C150 1.423 . S
C119 H105 0.930 . S
C119 C116 1.413 . S
C119 C117 1.367 . S
C120 N115 1.362 . S
C120 C118 1.420 1_554 S
C120 C124 1.429 . S
H121 C126 0.930 . S
N122 Eu84 2.609 . S
N122 C124 1.377 . S
N122 C125 1.321 . S
C123 H109 0.930 . S
C123 C125 1.400 . S
C123 C126 1.386 . S
C124 C120 1.429 . S
C124 N122 1.377 . S
C124 C127 1.411 . S
C125 H107 0.930 . S
C125 N122 1.321 . S
C125 C123 1.400 . S
C126 H121 0.930 . S
C126 C123 1.386 . S
C126 C127 1.395 . S
C127 C124 1.411 . S
C127 C126 1.395 . S
C127 C149 1.420 . S
O128 Eu84 2.558 . S
O128 C148 1.257 . S
O129 Eu84 2.612 . S
O129 Eu95 2.380 1_554 S
O129 C140 1.276 . S
O130 Eu95 2.432 . S
O130 C147 1.264 . S
O131 Eu84 2.339 . S
O131 C147 1.254 1_554 S
O132 Eu84 2.563 . S
O132 C140 1.235 . S
O133 Eu84 2.419 . S
O133 C148 1.249 . S
O134 Eu95 2.558 . S
O134 C159 1.257 . S
O135 Eu84 2.380 1_556 S
O135 Eu95 2.612 . S
O135 C151 1.276 . S
O136 Eu84 2.432 . S
O136 C158 1.264 . S
O137 Eu95 2.339 . S
O137 C158 1.254 1_556 S
O138 Eu95 2.563 . S
O138 C151 1.235 . S
O139 Eu95 2.419 . S
O139 C159 1.249 . S
C140 O129 1.276 . S
C140 O132 1.235 . S
C141 C143 1.393 . S
C141 C145 1.395 . S
C141 C148 1.492 . S
C142 C143 1.392 . S
C142 C144 1.386 . S
C143 C141 1.393 . S
C143 C142 1.392 . S
C143 H160 0.930 . S
C144 C142 1.386 . S
C144 C146 1.395 . S
C144 H161 0.930 . S
C145 C141 1.395 . S
C145 C146 1.379 . S
C145 H162 0.930 . S
C146 C144 1.395 . S
C146 C145 1.379 . S
C146 H163 0.930 . S
C147 O130 1.264 . S
C147 O131 1.254 1_556 S
C148 Eu84 2.848 . S
C148 O128 1.257 . S
C148 O133 1.249 . S
C148 C141 1.492 . S
C149 H114 0.931 . S
C149 C127 1.420 . S
C149 C150 1.351 1_554 S
C150 H112 0.930 . S
C150 C118 1.423 . S
C150 C149 1.351 1_556 S
C151 O135 1.276 . S
C151 O138 1.235 . S
C152 C153 1.393 . S
C152 C156 1.395 . S
C152 C159 1.492 . S
C153 C152 1.393 . S
C153 C154 1.392 . S
C153 H164 0.930 . S
C154 C153 1.392 . S
C154 C155 1.386 . S
C155 C154 1.386 . S
C155 C157 1.395 . S
C155 H165 0.930 . S
C156 C152 1.395 . S
C156 C157 1.379 . S
C156 H166 0.930 . S
C157 C155 1.395 . S
C157 C156 1.379 . S
C157 H167 0.930 . S
C158 O136 1.264 . S
C158 O137 1.254 1_554 S
C159 Eu95 2.848 . S
C159 O134 1.257 . S
C159 O139 1.249 . S
C159 C152 1.492 . S
H160 C143 0.930 . S
H161 C144 0.930 . S
H162 C145 0.930 . S
H163 C146 0.930 . S
H164 C153 0.930 . S
H165 C155 0.930 . S
H166 C156 0.930 . S
H167 C157 0.930 . S
Eu168 N199 2.657 . S
Eu168 N206 2.609 . S
Eu168 O212 2.558 . S
Eu168 O213 2.612 . S
Eu168 O215 2.339 . S
Eu168 O216 2.563 . S
Eu168 O217 2.419 . S
Eu168 O219 2.380 . S
Eu168 O220 2.432 . S
Eu168 C232 2.848 . S
C169 C172 1.429 . S
C169 C173 1.411 . S
C169 N176 1.377 . S
C170 C172 1.420 . S
C170 C174 1.423 . S
C170 C182 1.392 . S
C171 C173 1.420 . S
C171 C174 1.351 . S
C171 H194 0.931 . S
C172 C169 1.429 . S
C172 C170 1.420 . S
C172 N180 1.362 . S
C173 C169 1.411 . S
C173 C171 1.420 . S
C173 C178 1.395 . S
C174 C170 1.423 . S
C174 C171 1.351 . S
C174 H186 0.930 . S
C175 C177 1.400 . S
C175 C178 1.386 . S
C175 H187 0.930 . S
N176 C169 1.377 . S
N176 C177 1.321 . S
N176 Eu179 2.609 . S
C177 C175 1.400 . S
C177 N176 1.321 . S
C177 H184 0.930 . S
C178 C173 1.395 . S
C178 C175 1.386 . S
C178 H197 0.930 . S
Eu179 N176 2.609 . S
Eu179 N180 2.657 . S
Eu179 O213 2.380 . S
Eu179 O214 2.432 . S
Eu179 O218 2.558 . S
Eu179 O219 2.612 . S
Eu179 O221 2.339 . S
Eu179 O222 2.563 . S
Eu179 O223 2.419 . S
Eu179 C243 2.848 . S
N180 C172 1.362 . S
N180 Eu179 2.657 . S
N180 C181 1.334 . S
C181 N180 1.334 . S
C181 C183 1.413 . S
C181 H188 0.929 . S
C182 C170 1.392 . S
C182 C183 1.367 . S
C182 H190 0.930 . S
C183 C181 1.413 . S
C183 C182 1.367 . S
C183 H185 0.930 . S
H184 C177 0.930 . S
H185 C183 0.930 . S
H186 C174 0.930 . S
H187 C175 0.930 . S
H188 C181 0.929 . S
H189 C203 0.930 . S
H190 C182 0.930 . S
H191 C209 0.930 . S
H192 C200 0.929 . S
H193 C207 0.930 . S
H194 C171 0.931 . S
H195 C201 0.930 . S
H196 C234 0.930 . S
H197 C178 0.930 . S
H198 C233 0.931 . S
N199 Eu168 2.657 . S
N199 C200 1.334 . S
N199 C204 1.362 . S
C200 H192 0.929 . S
C200 N199 1.334 . S
C200 C203 1.413 1_455 S
C201 H195 0.930 . S
C201 C202 1.392 . S
C201 C203 1.367 . S
C202 C201 1.392 . S
C202 C204 1.420 1_655 S
C202 C234 1.423 . S
C203 H189 0.930 . S
C203 C200 1.413 1_655 S
C203 C201 1.367 . S
C204 N199 1.362 . S
C204 C202 1.420 1_455 S
C204 C208 1.429 . S
H205 C210 0.930 . S
N206 Eu168 2.609 . S
N206 C208 1.377 . S
N206 C209 1.321 . S
C207 H193 0.930 . S
C207 C209 1.400 . S
C207 C210 1.386 . S
C208 C204 1.429 . S
C208 N206 1.377 . S
C208 C211 1.411 . S
C209 H191 0.930 . S
C209 N206 1.321 . S
C209 C207 1.400 . S
C210 H205 0.930 . S
C210 C207 1.386 . S
C210 C211 1.395 . S
C211 C208 1.411 . S
C211 C210 1.395 . S
C211 C233 1.420 1_455 S
O212 Eu168 2.558 . S
O212 C232 1.257 . S
O213 Eu168 2.612 . S
O213 Eu179 2.380 . S
O213 C224 1.276 . S
O214 Eu179 2.432 . S
O214 C231 1.264 . S
O215 Eu168 2.339 . S
O215 C231 1.254 . S
O216 Eu168 2.563 . S
O216 C224 1.235 . S
O217 Eu168 2.419 . S
O217 C232 1.249 . S
O218 Eu179 2.558 . S
O218 C243 1.257 . S
O219 Eu168 2.380 . S
O219 Eu179 2.612 . S
O219 C235 1.276 . S
O220 Eu168 2.432 . S
O220 C242 1.264 . S
O221 Eu179 2.339 . S
O221 C242 1.254 . S
O222 Eu179 2.563 . S
O222 C235 1.235 . S
O223 Eu179 2.419 . S
O223 C243 1.249 . S
C224 O213 1.276 . S
C224 O216 1.235 . S
C225 C227 1.393 . S
C225 C229 1.395 . S
C225 C232 1.492 . S
C226 C227 1.392 . S
C226 C228 1.386 . S
C227 C225 1.393 . S
C227 C226 1.392 . S
C227 H244 0.930 . S
C228 C226 1.386 . S
C228 C230 1.395 . S
C228 H245 0.930 . S
C229 C225 1.395 . S
C229 C230 1.379 . S
C229 H246 0.930 . S
C230 C228 1.395 . S
C230 C229 1.379 . S
C230 H247 0.930 . S
C231 O214 1.264 . S
C231 O215 1.254 . S
C232 Eu168 2.848 . S
C232 O212 1.257 . S
C232 O217 1.249 . S
C232 C225 1.492 . S
C233 H198 0.931 . S
C233 C211 1.420 1_655 S
C233 C234 1.351 . S
C234 H196 0.930 . S
C234 C202 1.423 . S
C234 C233 1.351 . S
C235 O219 1.276 . S
C235 O222 1.235 . S
C236 C237 1.393 . S
C236 C240 1.395 . S
C236 C243 1.492 . S
C237 C236 1.393 . S
C237 C238 1.392 . S
C237 H248 0.930 . S
C238 C237 1.392 . S
C238 C239 1.386 . S
C239 C238 1.386 . S
C239 C241 1.395 . S
C239 H249 0.930 . S
C240 C236 1.395 . S
C240 C241 1.379 . S
C240 H250 0.930 . S
C241 C239 1.395 . S
C241 C240 1.379 . S
C241 H251 0.930 . S
C242 O220 1.264 . S
C242 O221 1.254 . S
C243 Eu179 2.848 . S
C243 O218 1.257 . S
C243 O223 1.249 . S
C243 C236 1.492 . S
H244 C227 0.930 . S
H245 C228 0.930 . S
H246 C229 0.930 . S
H247 C230 0.930 . S
H248 C237 0.930 . S
H249 C239 0.930 . S
H250 C240 0.930 . S
H251 C241 0.930 . S
Eu252 N283 2.657 . S
Eu252 N290 2.609 . S
Eu252 O296 2.558 . S
Eu252 O297 2.612 . S
Eu252 O299 2.339 . S
Eu252 O300 2.563 . S
Eu252 O301 2.419 . S
Eu252 O303 2.380 . S
Eu252 O304 2.432 . S
Eu252 C316 2.848 . S
C253 C256 1.429 . S
C253 C257 1.411 . S
C253 N260 1.377 . S
C254 C256 1.420 1_455 S
C254 C258 1.423 . S
C254 C266 1.392 . S
C255 C257 1.420 1_455 S
C255 C258 1.351 . S
C255 H278 0.931 . S
C256 C253 1.429 . S
C256 C254 1.420 1_655 S
C256 N264 1.362 . S
C257 C253 1.411 . S
C257 C255 1.420 1_655 S
C257 C262 1.395 . S
C258 C254 1.423 . S
C258 C255 1.351 . S
C258 H270 0.930 . S
C259 C261 1.400 . S
C259 C262 1.386 . S
C259 H271 0.930 . S
N260 C253 1.377 . S
N260 C261 1.321 . S
N260 Eu263 2.609 . S
C261 C259 1.400 . S
C261 N260 1.321 . S
C261 H268 0.930 . S
C262 C257 1.395 . S
C262 C259 1.386 . S
C262 H281 0.930 . S
Eu263 N260 2.609 . S
Eu263 N264 2.657 . S
Eu263 O297 2.380 . S
Eu263 O298 2.432 . S
Eu263 O302 2.558 . S
Eu263 O303 2.612 . S
Eu263 O305 2.339 . S
Eu263 O306 2.563 . S
Eu263 O307 2.419 . S
Eu263 C327 2.848 . S
N264 C256 1.362 . S
N264 Eu263 2.657 . S
N264 C265 1.334 . S
C265 N264 1.334 . S
C265 C267 1.413 1_655 S
C265 H272 0.929 . S
C266 C254 1.392 . S
C266 C267 1.367 . S
C266 H274 0.930 . S
C267 C265 1.413 1_455 S
C267 C266 1.367 . S
C267 H269 0.930 . S
H268 C261 0.930 . S
H269 C267 0.930 . S
H270 C258 0.930 . S
H271 C259 0.930 . S
H272 C265 0.929 . S
H273 C287 0.930 . S
H274 C266 0.930 . S
H275 C293 0.930 . S
H276 C284 0.929 . S
H277 C291 0.930 . S
H278 C255 0.931 . S
H279 C285 0.930 . S
H280 C318 0.930 . S
H281 C262 0.930 . S
H282 C317 0.931 . S
N283 Eu252 2.657 . S
N283 C284 1.334 . S
N283 C288 1.362 . S
C284 H276 0.929 . S
C284 N283 1.334 . S
C284 C287 1.413 . S
C285 H279 0.930 . S
C285 C286 1.392 . S
C285 C287 1.367 . S
C286 C285 1.392 . S
C286 C288 1.420 . S
C286 C318 1.423 . S
C287 H273 0.930 . S
C287 C284 1.413 . S
C287 C285 1.367 . S
C288 N283 1.362 . S
C288 C286 1.420 . S
C288 C292 1.429 . S
H289 C294 0.930 . S
N290 Eu252 2.609 . S
N290 C292 1.377 . S
N290 C293 1.321 . S
C291 H277 0.930 . S
C291 C293 1.400 . S
C291 C294 1.386 . S
C292 C288 1.429 . S
C292 N290 1.377 . S
C292 C295 1.411 . S
C293 H275 0.930 . S
C293 N290 1.321 . S
C293 C291 1.400 . S
C294 H289 0.930 . S
C294 C291 1.386 . S
C294 C295 1.395 . S
C295 C292 1.411 . S
C295 C294 1.395 . S
C295 C317 1.420 . S
O296 Eu252 2.558 . S
O296 C316 1.257 . S
O297 Eu252 2.612 . S
O297 Eu263 2.380 . S
O297 C308 1.276 . S
O298 Eu263 2.432 . S
O298 C315 1.264 . S
O299 Eu252 2.339 . S
O299 C315 1.254 . S
O300 Eu252 2.563 . S
O300 C308 1.235 . S
O301 Eu252 2.419 . S
O301 C316 1.249 . S
O302 Eu263 2.558 . S
O302 C327 1.257 . S
O303 Eu252 2.380 . S
O303 Eu263 2.612 . S
O303 C319 1.276 . S
O304 Eu252 2.432 . S
O304 C326 1.264 . S
O305 Eu263 2.339 . S
O305 C326 1.254 . S
O306 Eu263 2.563 . S
O306 C319 1.235 . S
O307 Eu263 2.419 . S
O307 C327 1.249 . S
C308 O297 1.276 . S
C308 O300 1.235 . S
C309 C311 1.393 . S
C309 C313 1.395 . S
C309 C316 1.492 . S
C310 C311 1.392 . S
C310 C312 1.386 . S
C311 C309 1.393 . S
C311 C310 1.392 . S
C311 H328 0.930 . S
C312 C310 1.386 . S
C312 C314 1.395 . S
C312 H329 0.930 . S
C313 C309 1.395 . S
C313 C314 1.379 . S
C313 H330 0.930 . S
C314 C312 1.395 . S
C314 C313 1.379 . S
C314 H331 0.930 . S
C315 O298 1.264 . S
C315 O299 1.254 . S
C316 Eu252 2.848 . S
C316 O296 1.257 . S
C316 O301 1.249 . S
C316 C309 1.492 . S
C317 H282 0.931 . S
C317 C295 1.420 . S
C317 C318 1.351 . S
C318 H280 0.930 . S
C318 C286 1.423 . S
C318 C317 1.351 . S
C319 O303 1.276 . S
C319 O306 1.235 . S
C320 C321 1.393 . S
C320 C324 1.395 . S
C320 C327 1.492 . S
C321 C320 1.393 . S
C321 C322 1.392 . S
C321 H332 0.930 . S
C322 C321 1.392 . S
C322 C323 1.386 . S
C323 C322 1.386 . S
C323 C325 1.395 . S
C323 H333 0.930 . S
C324 C320 1.395 . S
C324 C325 1.379 . S
C324 H334 0.930 . S
C325 C323 1.395 . S
C325 C324 1.379 . S
C325 H335 0.930 . S
C326 O304 1.264 . S
C326 O305 1.254 . S
C327 Eu263 2.848 . S
C327 O302 1.257 . S
C327 O307 1.249 . S
C327 C320 1.492 . S
H328 C311 0.930 . S
H329 C312 0.930 . S
H330 C313 0.930 . S
H331 C314 0.930 . S
H332 C321 0.930 . S
H333 C323 0.930 . S
H334 C324 0.930 . S
H335 C325 0.930 . S
H336 C344 0.929 . S
H337 C346 0.930 . S
H338 C348 0.930 . S
H339 C351 0.929 . S
H340 C354 0.930 . S
H341 C356 0.960 . S
H342 C356 0.960 . S
H343 C356 0.960 . S
C344 H336 0.929 . S
C344 C345 1.377 . S
C344 C346 1.384 . S
C345 C344 1.377 . S
C345 C351 1.390 1_556 S
C346 H337 0.930 . S
C346 C344 1.384 . S
C346 C347 1.372 . S
C347 C346 1.372 . S
C347 C348 1.400 1_556 S
C347 C352 1.490 . S
C348 H338 0.930 . S
C348 C347 1.400 1_554 S
C348 C351 1.386 . S
H349 C365 0.930 . S
H350 C366 0.931 . S
C351 H339 0.929 . S
C351 C345 1.390 1_554 S
C351 C348 1.386 . S
C352 C347 1.490 . S
C352 C354 1.395 . S
C352 C355 1.403 1_556 S
H353 C359 0.930 . S
C354 H340 0.930 . S
C354 C352 1.395 . S
C354 C357 1.403 . S
C355 C352 1.403 1_554 S
C355 C356 1.524 . S
C355 C359 1.400 . S
C356 H341 0.960 . S
C356 H342 0.960 . S
C356 H343 0.960 . S
C356 C355 1.524 . S
C357 C354 1.403 . S
C357 C358 1.392 . S
C357 C361 1.495 . S
C358 C357 1.392 . S
C358 C359 1.385 1_556 S
C358 C360 1.478 . S
C359 H353 0.930 . S
C359 C355 1.400 . S
C359 C358 1.385 1_554 S
C360 C358 1.478 . S
C360 C362 1.381 . S
C360 C366 1.383 1_556 S
C361 C357 1.495 . S
C361 H367 0.959 . S
C361 H368 0.961 . S
C361 H369 0.960 . S
C362 C360 1.381 . S
C362 C363 1.394 . S
C362 H370 0.930 . S
C363 C362 1.394 . S
C363 C364 1.396 . S
C363 H371 0.929 . S
C364 C363 1.396 . S
C364 C365 1.371 1_556 S
C365 H349 0.930 . S
C365 C364 1.371 1_554 S
C365 C366 1.379 . S
C366 H350 0.931 . S
C366 C360 1.383 1_554 S
C366 C365 1.379 . S
H367 C361 0.959 . S
H368 C361 0.961 . S
H369 C361 0.960 . S
H370 C362 0.930 . S
H371 C363 0.929 . S
H372 C380 0.929 . S
H373 C382 0.930 . S
H374 C384 0.930 . S
H375 C387 0.929 . S
H376 C390 0.930 . S
H377 C392 0.960 . S
H378 C392 0.960 . S
H379 C392 0.960 . S
C380 H372 0.929 . S
C380 C381 1.377 . S
C380 C382 1.384 . S
C381 C380 1.377 . S
C381 C387 1.390 . S
C382 H373 0.930 . S
C382 C380 1.384 . S
C382 C383 1.372 . S
C383 C382 1.372 . S
C383 C384 1.400 . S
C383 C388 1.490 . S
C384 H374 0.930 . S
C384 C383 1.400 . S
C384 C387 1.386 . S
H385 C401 0.930 . S
H386 C402 0.931 . S
C387 H375 0.929 . S
C387 C381 1.390 . S
C387 C384 1.386 . S
C388 C383 1.490 . S
C388 C390 1.395 . S
C388 C391 1.403 . S
H389 C395 0.930 . S
C390 H376 0.930 . S
C390 C388 1.395 . S
C390 C393 1.403 . S
C391 C388 1.403 . S
C391 C392 1.524 . S
C391 C395 1.400 . S
C392 H377 0.960 . S
C392 H378 0.960 . S
C392 H379 0.960 . S
C392 C391 1.524 . S
C393 C390 1.403 . S
C393 C394 1.392 . S
C393 C397 1.495 . S
C394 C393 1.392 . S
C394 C395 1.385 . S
C394 C396 1.478 . S
C395 H389 0.930 . S
C395 C391 1.400 . S
C395 C394 1.385 . S
C396 C394 1.478 . S
C396 C398 1.381 . S
C396 C402 1.383 . S
C397 C393 1.495 . S
C397 H403 0.959 . S
C397 H404 0.961 . S
C397 H405 0.960 . S
C398 C396 1.381 . S
C398 C399 1.394 . S
C398 H406 0.930 . S
C399 C398 1.394 . S
C399 C400 1.383 . S
C399 H407 0.929 . S
C400 C399 1.383 . S
C400 C401 1.377 . S
C401 H385 0.930 . S
C401 C400 1.377 . S
C401 C402 1.379 . S
C402 H386 0.931 . S
C402 C396 1.383 . S
C402 C401 1.379 . S
H403 C397 0.959 . S
H404 C397 0.961 . S
H405 C397 0.960 . S
H406 C398 0.930 . S
H407 C399 0.929 . S
H408 C416 0.929 . S
H409 C418 0.930 . S
H410 C420 0.930 . S
H411 C423 0.929 . S
H412 C426 0.930 . S
H413 C428 0.960 . S
H414 C428 0.960 . S
H415 C428 0.960 . S
C416 H408 0.929 . S
C416 C417 1.377 . S
C416 C418 1.384 . S
C417 C416 1.377 . S
C417 C423 1.390 1_556 S
C418 H409 0.930 . S
C418 C416 1.384 . S
C418 C419 1.381 . S
C419 C418 1.381 . S
C419 C420 1.398 1_556 S
C419 C424 1.483 . S
C420 H410 0.930 . S
C420 C419 1.398 1_554 S
C420 C423 1.386 . S
H421 C437 0.930 . S
H422 C438 0.931 . S
C423 H411 0.929 . S
C423 C417 1.390 1_554 S
C423 C420 1.386 . S
C424 C419 1.483 . S
C424 C426 1.395 1_455 S
C424 C427 1.403 1_556 S
H425 C431 0.930 . S
C426 H412 0.930 . S
C426 C424 1.395 1_655 S
C426 C429 1.403 1_545 S
C427 C424 1.403 1_554 S
C427 C428 1.524 . S
C427 C431 1.400 1_445 S
C428 H413 0.960 . S
C428 H414 0.960 . S
C428 H415 0.960 . S
C428 C427 1.524 . S
C429 C426 1.403 1_565 S
C429 C430 1.392 . S
C429 C433 1.495 . S
C430 C429 1.392 . S
C430 C431 1.385 1_556 S
C430 C432 1.478 . S
C431 H425 0.930 . S
C431 C427 1.400 1_665 S
C431 C430 1.385 1_554 S
C432 C430 1.478 . S
C432 C434 1.381 . S
C432 C438 1.383 . S
C433 C429 1.495 . S
C433 H439 0.959 . S
C433 H440 0.961 . S
C433 H441 0.960 . S
C434 C432 1.381 . S
C434 C435 1.402 . S
C434 H442 0.930 . S
C435 C434 1.402 . S
C435 C436 1.383 . S
C435 H443 0.929 1_556 S
C436 C435 1.383 . S
C436 C437 1.377 . S
C437 H421 0.930 . S
C437 C436 1.377 . S
C437 C438 1.379 . S
C438 H422 0.931 . S
C438 C432 1.383 . S
C438 C437 1.379 . S
H439 C433 0.959 . S
H440 C433 0.961 . S
H441 C433 0.960 . S
H442 C434 0.930 . S
H443 C435 0.929 1_554 S
H444 C452 0.929 . S
H445 C454 0.930 . S
H446 C456 0.930 . S
H447 C459 0.929 . S
H448 C462 0.930 1_545 S
H449 C464 0.960 . S
H450 C464 0.960 . S
H451 C464 0.960 . S
C452 H444 0.929 . S
C452 C453 1.377 . S
C452 C454 1.384 . S
C453 C452 1.377 . S
C453 C459 1.390 . S
C454 H445 0.930 . S
C454 C452 1.384 . S
C454 C455 1.372 . S
C455 C454 1.372 . S
C455 C456 1.400 . S
C455 C460 1.490 . S
C456 H446 0.930 . S
C456 C455 1.400 . S
C456 C459 1.386 . S
H457 C473 0.930 . S
H458 C474 0.931 . S
C459 H447 0.929 . S
C459 C453 1.390 . S
C459 C456 1.386 . S
C460 C455 1.490 . S
C460 C462 1.374 1_545 S
C460 C463 1.403 1_655 S
H461 C467 0.930 . S
C462 H448 0.930 1_565 S
C462 C460 1.374 1_565 S
C462 C465 1.424 . S
C463 C460 1.403 1_455 S
C463 C464 1.524 . S
C463 C467 1.400 1_545 S
C464 H449 0.960 . S
C464 H450 0.960 . S
C464 H451 0.960 . S
C464 C463 1.524 . S
C465 C462 1.424 . S
C465 C466 1.392 1_655 S
C465 C469 1.495 . S
C466 C465 1.392 1_455 S
C466 C467 1.385 . S
C466 C468 1.478 . S
C467 H461 0.930 . S
C467 C463 1.400 1_565 S
C467 C466 1.385 . S
C468 C466 1.478 . S
C468 C470 1.381 . S
C468 C474 1.383 . S
C469 C465 1.495 . S
C469 H475 0.959 . S
C469 H476 0.961 . S
C469 H477 0.960 . S
C470 C468 1.381 . S
C470 C471 1.394 . S
C470 H478 0.930 . S
C471 C470 1.394 . S
C471 C472 1.383 . S
C471 H479 0.929 . S
C472 C471 1.383 . S
C472 C473 1.377 . S
C473 H457 0.930 . S
C473 C472 1.377 . S
C473 C474 1.379 . S
C474 H458 0.931 . S
C474 C468 1.383 . S
C474 C473 1.379 . S
H475 C469 0.959 . S
H476 C469 0.961 . S
H477 C469 0.960 . S
H478 C470 0.930 . S
H479 C471 0.929 . S
H480 C488 0.929 . S
H481 C490 0.930 . S
H482 C492 0.930 . S
H483 C495 0.929 . S
H484 C498 0.930 . S
H485 C500 0.960 . S
H486 C500 0.960 . S
H487 C500 0.960 . S
C488 H480 0.929 . S
C488 C489 1.377 . S
C488 C490 1.384 . S
C489 C488 1.377 . S
C489 C495 1.390 . S
C490 H481 0.930 . S
C490 C488 1.384 . S
C490 C491 1.372 . S
C491 C490 1.372 . S
C491 C492 1.400 . S
C491 C496 1.490 . S
C492 H482 0.930 . S
C492 C491 1.400 . S
C492 C495 1.386 . S
H493 C509 0.930 . S
H494 C510 0.931 . S
C495 H483 0.929 . S
C495 C489 1.390 . S
C495 C492 1.386 . S
C496 C491 1.490 . S
C496 C498 1.395 . S
C496 C499 1.403 . S
H497 C503 0.930 . S
C498 H484 0.930 . S
C498 C496 1.395 . S
C498 C501 1.403 . S
C499 C496 1.403 . S
C499 C500 1.524 . S
C499 C503 1.400 . S
C500 H485 0.960 . S
C500 H486 0.960 . S
C500 H487 0.960 . S
C500 C499 1.524 . S
C501 C498 1.403 . S
C501 C502 1.392 . S
C501 C505 1.495 . S
C502 C501 1.392 . S
C502 C503 1.385 . S
C502 C504 1.478 . S
C503 H497 0.930 . S
C503 C499 1.400 . S
C503 C502 1.385 . S
C504 C502 1.478 . S
C504 C506 1.381 . S
C504 C510 1.383 . S
C505 C501 1.495 . S
C505 H511 0.959 . S
C505 H512 0.961 . S
C505 H513 0.960 . S
C506 C504 1.381 . S
C506 C507 1.394 . S
C506 H514 0.930 . S
C507 C506 1.394 . S
C507 C508 1.383 . S
C507 H515 0.929 . S
C508 C507 1.383 . S
C508 C509 1.377 . S
C509 H493 0.930 . S
C509 C508 1.377 . S
C509 C510 1.379 . S
C510 H494 0.931 . S
C510 C504 1.383 . S
C510 C509 1.379 . S
H511 C505 0.959 . S
H512 C505 0.961 . S
H513 C505 0.960 . S
H514 C506 0.930 . S
H515 C507 0.929 . S
H516 C524 0.929 . S
H517 C526 0.930 . S
H518 C528 0.930 . S
H519 C531 0.929 . S
H520 C534 0.930 . S
H521 C536 0.960 . S
H522 C536 0.960 . S
H523 C536 0.960 . S
C524 H516 0.929 . S
C524 C525 1.377 . S
C524 C526 1.384 . S
C525 C524 1.377 . S
C525 C531 1.390 . S
C526 H517 0.930 . S
C526 C524 1.384 . S
C526 C527 1.372 . S
C527 C526 1.372 . S
C527 C528 1.400 . S
C527 C532 1.490 . S
C528 H518 0.930 . S
C528 C527 1.400 . S
C528 C531 1.386 . S
H529 C545 0.930 . S
H530 C546 0.931 . S
C531 H519 0.929 . S
C531 C525 1.390 . S
C531 C528 1.386 . S
C532 C527 1.490 . S
C532 C534 1.395 . S
C532 C535 1.403 . S
H533 C539 0.930 . S
C534 H520 0.930 . S
C534 C532 1.395 . S
C534 C537 1.403 . S
C535 C532 1.403 . S
C535 C536 1.524 . S
C535 C539 1.400 . S
C536 H521 0.960 . S
C536 H522 0.960 . S
C536 H523 0.960 . S
C536 C535 1.524 . S
C537 C534 1.403 . S
C537 C538 1.392 . S
C537 C541 1.495 . S
C538 C537 1.392 . S
C538 C539 1.385 . S
C538 C540 1.478 . S
C539 H533 0.930 . S
C539 C535 1.400 . S
C539 C538 1.385 . S
C540 C538 1.478 . S
C540 C542 1.381 . S
C540 C546 1.383 . S
C541 C537 1.495 . S
C541 H547 0.959 . S
C541 H548 0.961 . S
C541 H549 0.960 . S
C542 C540 1.381 . S
C542 C543 1.394 . S
C542 H550 0.930 . S
C543 C542 1.394 . S
C543 C544 1.383 . S
C543 H551 0.929 . S
C544 C543 1.383 . S
C544 C545 1.377 . S
C545 H529 0.930 . S
C545 C544 1.377 . S
C545 C546 1.379 . S
C546 H530 0.931 . S
C546 C540 1.383 . S
C546 C545 1.379 . S
H547 C541 0.959 . S
H548 C541 0.961 . S
H549 C541 0.960 . S
H550 C542 0.930 . S
H551 C543 0.929 . S
H552 C560 0.929 . S
H553 C562 0.930 . S
H554 C564 0.930 . S
H555 C567 0.929 . S
H556 C570 0.930 . S
H557 C572 0.960 . S
H558 C572 0.960 . S
H559 C572 0.960 . S
C560 H552 0.929 . S
C560 C561 1.377 . S
C560 C562 1.384 . S
C561 C560 1.377 . S
C561 C567 1.390 . S
C562 H553 0.930 . S
C562 C560 1.384 . S
C562 C563 1.372 . S
C563 C562 1.372 . S
C563 C564 1.400 . S
C563 C568 1.490 . S
C564 H554 0.930 . S
C564 C563 1.400 . S
C564 C567 1.386 . S
H565 C581 0.930 . S
H566 C582 0.931 . S
C567 H555 0.929 . S
C567 C561 1.390 . S
C567 C564 1.386 . S
C568 C563 1.490 . S
C568 C570 1.395 . S
C568 C571 1.403 . S
H569 C575 0.930 . S
C570 H556 0.930 . S
C570 C568 1.395 . S
C570 C573 1.403 . S
C571 C568 1.403 . S
C571 C572 1.524 . S
C571 C575 1.400 . S
C572 H557 0.960 . S
C572 H558 0.960 . S
C572 H559 0.960 . S
C572 C571 1.524 . S
C573 C570 1.403 . S
C573 C574 1.392 . S
C573 C577 1.495 . S
C574 C573 1.392 . S
C574 C575 1.385 . S
C574 C576 1.478 . S
C575 H569 0.930 . S
C575 C571 1.400 . S
C575 C574 1.385 . S
C576 C574 1.478 . S
C576 C578 1.381 . S
C576 C582 1.383 . S
C577 C573 1.495 . S
C577 H583 0.959 . S
C577 H584 0.961 . S
C577 H585 0.960 . S
C578 C576 1.381 . S
C578 C579 1.394 . S
C578 H586 0.930 . S
C579 C578 1.394 . S
C579 C580 1.383 . S
C579 H587 0.929 . S
C580 C579 1.383 . S
C580 C581 1.377 . S
C581 H565 0.930 . S
C581 C580 1.377 . S
C581 C582 1.379 . S
C582 H566 0.931 . S
C582 C576 1.383 . S
C582 C581 1.379 . S
H583 C577 0.959 . S
H584 C577 0.961 . S
H585 C577 0.960 . S
H586 C578 0.930 . S
H587 C579 0.929 . S
H588 C596 0.929 . S
H589 C598 0.930 . S
H590 C600 0.930 . S
H591 C603 0.929 . S
H592 C606 0.930 . S
H593 C608 0.960 . S
H594 C608 0.960 . S
H595 C608 0.960 . S
C596 H588 0.929 . S
C596 C597 1.377 . S
C596 C598 1.384 . S
C597 C596 1.377 . S
C597 C603 1.390 . S
C598 H589 0.930 . S
C598 C596 1.384 . S
C598 C599 1.372 . S
C599 C598 1.372 . S
C599 C600 1.400 . S
C599 C604 1.490 . S
C600 H590 0.930 . S
C600 C599 1.400 . S
C600 C603 1.386 . S
H601 C617 0.930 . S
H602 C618 0.931 . S
C603 H591 0.929 . S
C603 C597 1.390 . S
C603 C600 1.386 . S
C604 C599 1.490 . S
C604 C606 1.395 . S
C604 C607 1.403 . S
H605 C611 0.930 . S
C606 H592 0.930 . S
C606 C604 1.395 . S
C606 C609 1.403 . S
C607 C604 1.403 . S
C607 C608 1.524 . S
C607 C611 1.400 . S
C608 H593 0.960 . S
C608 H594 0.960 . S
C608 H595 0.960 . S
C608 C607 1.524 . S
C609 C606 1.403 . S
C609 C610 1.392 . S
C609 C613 1.495 . S
C610 C609 1.392 . S
C610 C611 1.385 . S
C610 C612 1.478 . S
C611 H605 0.930 . S
C611 C607 1.400 . S
C611 C610 1.385 . S
C612 C610 1.478 . S
C612 C614 1.381 . S
C612 C618 1.383 . S
C613 C609 1.495 . S
C613 H619 0.959 . S
C613 H620 0.961 . S
C613 H621 0.960 . S
C614 C612 1.381 . S
C614 C615 1.394 . S
C614 H622 0.930 . S
C615 C614 1.394 . S
C615 C616 1.383 . S
C615 H623 0.929 . S
C616 C615 1.383 . S
C616 C617 1.377 . S
C617 H601 0.930 . S
C617 C616 1.377 . S
C617 C618 1.379 . S
C618 H602 0.931 . S
C618 C612 1.383 . S
C618 C617 1.379 . S
H619 C613 0.959 . S
H620 C613 0.961 . S
H621 C613 0.960 . S
H622 C614 0.930 . S
H623 C615 0.929 . S
H624 C632 0.929 . S
H625 C634 0.930 . S
H626 C636 0.930 . S
H627 C639 0.929 . S
H628 C642 0.930 . S
H629 C644 0.960 . S
H630 C644 0.960 . S
H631 C644 0.960 1_655 S
C632 H624 0.929 . S
C632 C633 1.377 . S
C632 C634 1.384 . S
C633 C632 1.377 . S
C633 C639 1.390 . S
C634 H625 0.930 . S
C634 C632 1.384 . S
C634 C635 1.372 . S
C635 C634 1.372 . S
C635 C636 1.400 . S
C635 C640 1.490 . S
C636 H626 0.930 . S
C636 C635 1.400 . S
C636 C639 1.386 . S
H637 C653 0.930 . S
H638 C654 0.931 . S
C639 H627 0.929 . S
C639 C633 1.390 . S
C639 C636 1.386 . S
C640 C635 1.490 . S
C640 C642 1.395 . S
C640 C643 1.403 . S
H641 C647 0.930 1_455 S
C642 H628 0.930 . S
C642 C640 1.395 . S
C642 C645 1.403 . S
C643 C640 1.403 . S
C643 C644 1.524 1_655 S
C643 C647 1.400 . S
C644 H629 0.960 . S
C644 H630 0.960 . S
C644 H631 0.960 1_455 S
C644 C643 1.524 1_455 S
C645 C642 1.403 . S
C645 C646 1.392 . S
C645 C649 1.495 . S
C646 C645 1.392 . S
C646 C647 1.385 . S
C646 C648 1.478 . S
C647 H641 0.930 1_655 S
C647 C643 1.400 . S
C647 C646 1.385 . S
C648 C646 1.478 . S
C648 C650 1.381 . S
C648 C654 1.383 . S
C649 C645 1.495 . S
C649 H655 0.959 . S
C649 H656 0.961 . S
C649 H657 0.960 . S
C650 C648 1.381 . S
C650 C651 1.394 1_655 S
C650 H658 0.930 . S
C651 C650 1.394 1_455 S
C651 C652 1.383 . S
C651 H659 0.929 . S
C652 C651 1.383 . S
C652 C653 1.377 . S
C653 H637 0.930 . S
C653 C652 1.377 . S
C653 C654 1.379 1_455 S
C654 H638 0.931 . S
C654 C648 1.383 . S
C654 C653 1.379 1_655 S
H655 C649 0.959 . S
H656 C649 0.961 . S
H657 C649 0.960 . S
H658 C650 0.930 . S
H659 C651 0.929 . S
H660 C668 0.929 . S
H661 C670 0.930 . S
H662 C672 0.930 . S
H663 C675 0.929 . S
H664 C678 0.930 1_455 S
H665 C680 0.960 . S
H666 C680 0.960 . S
H667 C680 0.960 . S
C668 H660 0.929 . S
C668 C669 1.377 . S
C668 C670 1.384 . S
C669 C668 1.377 . S
C669 C675 1.390 . S
C670 H661 0.930 . S
C670 C668 1.384 . S
C670 C671 1.372 . S
C671 C670 1.372 . S
C671 C672 1.400 . S
C671 C676 1.490 . S
C672 H662 0.930 . S
C672 C671 1.400 . S
C672 C675 1.386 . S
H673 C689 0.930 . S
H674 C690 0.931 . S
C675 H663 0.929 . S
C675 C669 1.390 . S
C675 C672 1.386 . S
C676 C671 1.490 . S
C676 C678 1.395 . S
C676 C679 1.403 . S
H677 C683 0.930 . S
C678 H664 0.930 1_655 S
C678 C676 1.395 . S
C678 C681 1.403 1_655 S
C679 C676 1.403 . S
C679 C680 1.524 . S
C679 C683 1.400 . S
C680 H665 0.960 . S
C680 H666 0.960 . S
C680 H667 0.960 . S
C680 C679 1.524 . S
C681 C678 1.403 1_455 S
C681 C682 1.392 1_455 S
C681 C685 1.495 . S
C682 C681 1.392 1_655 S
C682 C683 1.385 . S
C682 C684 1.478 . S
C683 H677 0.930 . S
C683 C679 1.400 . S
C683 C682 1.385 . S
C684 C682 1.478 . S
C684 C686 1.381 1_655 S
C684 C690 1.383 . S
C685 C681 1.495 . S
C685 H691 0.959 . S
C685 H692 0.961 . S
C685 H693 0.960 . S
C686 C684 1.381 1_455 S
C686 C687 1.394 . S
C686 H694 0.930 . S
C687 C686 1.394 . S
C687 C688 1.383 . S
C687 H695 0.929 . S
C688 C687 1.383 . S
C688 C689 1.377 1_455 S
C689 H673 0.930 . S
C689 C688 1.377 1_655 S
C689 C690 1.379 . S
C690 H674 0.931 . S
C690 C684 1.383 . S
C690 C689 1.379 . S
H691 C685 0.959 . S
H692 C685 0.961 . S
H693 C685 0.960 . S
H694 C686 0.930 . S
H695 C687 0.929 . S
H696 C704 0.929 . S
H697 C706 0.930 . S
H698 C708 0.930 . S
H699 C711 0.929 . S
H700 C714 0.930 . S
H701 C716 0.960 . S
H702 C716 0.960 1_655 S
H703 C716 0.960 . S
C704 H696 0.929 . S
C704 C705 1.377 . S
C704 C706 1.384 . S
C705 C704 1.377 . S
C705 C711 1.390 1_655 S
C706 H697 0.930 . S
C706 C704 1.384 . S
C706 C707 1.372 1_655 S
C707 C706 1.372 1_455 S
C707 C708 1.400 . S
C707 C712 1.490 . S
C708 H698 0.930 . S
C708 C707 1.400 . S
C708 C711 1.386 . S
H709 C725 0.930 . S
H710 C726 0.931 . S
C711 H699 0.929 . S
C711 C705 1.390 1_455 S
C711 C708 1.386 . S
C712 C707 1.490 . S
C712 C714 1.395 . S
C712 C715 1.403 . S
H713 C719 0.930 . S
C714 H700 0.930 . S
C714 C712 1.395 . S
C714 C717 1.403 . S
C715 C712 1.403 . S
C715 C716 1.524 . S
C715 C719 1.400 . S
C716 H701 0.960 . S
C716 H702 0.960 1_455 S
C716 H703 0.960 . S
C716 C715 1.524 . S
C717 C714 1.403 . S
C717 C718 1.392 . S
C717 C721 1.495 . S
C718 C717 1.392 . S
C718 C719 1.385 . S
C718 C720 1.478 . S
C719 H713 0.930 . S
C719 C715 1.400 . S
C719 C718 1.385 . S
C720 C718 1.478 . S
C720 C722 1.381 . S
C720 C726 1.383 . S
C721 C717 1.495 . S
C721 H727 0.959 . S
C721 H728 0.961 . S
C721 H729 0.960 . S
C722 C720 1.381 . S
C722 C723 1.394 . S
C722 H730 0.930 . S
C723 C722 1.394 . S
C723 C724 1.383 . S
C723 H731 0.929 . S
C724 C723 1.383 . S
C724 C725 1.377 . S
C725 H709 0.930 . S
C725 C724 1.377 . S
C725 C726 1.379 . S
C726 H710 0.931 . S
C726 C720 1.383 . S
C726 C725 1.379 . S
H727 C721 0.959 . S
H728 C721 0.961 . S
H729 C721 0.960 . S
H730 C722 0.930 . S
H731 C723 0.929 . S
H732 C740 0.929 . S
H733 C742 0.930 . S
H734 C744 0.930 . S
H735 C747 0.929 . S
H736 C750 0.930 . S
H737 C752 0.960 . S
H738 C752 0.960 . S
H739 C752 0.960 . S
C740 H732 0.929 . S
C740 C741 1.377 . S
C740 C742 1.384 . S
C741 C740 1.377 . S
C741 C747 1.390 . S
C742 H733 0.930 . S
C742 C740 1.384 . S
C742 C743 1.372 . S
C743 C742 1.372 . S
C743 C744 1.400 . S
C743 C748 1.490 . S
C744 H734 0.930 . S
C744 C743 1.400 . S
C744 C747 1.386 . S
H745 C761 0.930 . S
H746 C762 0.931 . S
C747 H735 0.929 . S
C747 C741 1.390 . S
C747 C744 1.386 . S
C748 C743 1.490 . S
C748 C750 1.395 . S
C748 C751 1.403 . S
H749 C755 0.930 . S
C750 H736 0.930 . S
C750 C748 1.395 . S
C750 C753 1.403 . S
C751 C748 1.403 . S
C751 C752 1.524 . S
C751 C755 1.400 . S
C752 H737 0.960 . S
C752 H738 0.960 . S
C752 H739 0.960 . S
C752 C751 1.524 . S
C753 C750 1.403 . S
C753 C754 1.392 . S
C753 C757 1.495 1_455 S
C754 C753 1.392 . S
C754 C755 1.385 . S
C754 C756 1.478 . S
C755 H749 0.930 . S
C755 C751 1.400 . S
C755 C754 1.385 . S
C756 C754 1.478 . S
C756 C758 1.381 1_455 S
C756 C762 1.383 . S
C757 C753 1.495 1_655 S
C757 H763 0.959 . S
C757 H764 0.961 . S
C757 H765 0.960 . S
C758 C756 1.381 1_655 S
C758 C759 1.394 . S
C758 H766 0.930 . S
C759 C758 1.394 . S
C759 C760 1.383 . S
C759 H767 0.929 . S
C760 C759 1.383 . S
C760 C761 1.377 1_655 S
C761 H745 0.930 . S
C761 C760 1.377 1_455 S
C761 C762 1.379 . S
C762 H746 0.931 . S
C762 C756 1.383 . S
C762 C761 1.379 . S
H763 C757 0.959 . S
H764 C757 0.961 . S
H765 C757 0.960 . S
H766 C758 0.930 . S
H767 C759 0.929 . S
C345 C147 1.493 . S
C364 C74 1.491 1_556 S
C381 C242 1.497 . S
C400 C315 1.515 . S
C417 C63 1.496 . S
C436 C158 1.503 1_556 S
C453 C326 1.497 . S
C472 C231 1.474 . S
C489 C310 1.098 . S
C508 C56 1.066 . S
C525 C142 1.101 . S
C544 C224 1.083 . S
C561 C151 1.114 . S
C580 C238 1.132 . S
C597 C319 1.114 . S
C616 C70 1.132 . S
C633 C140 1.111 . S
C652 C226 1.114 . S
C669 C308 1.114 . S
C688 C58 1.124 . S
C705 C322 1.109 . S
C724 C67 1.066 . S
C741 C235 1.108 . S
C760 C154 1.070 . S
