# Generated by pormake.
# Topology snw, (6)-cn, num edge types: 1
# Building blocks:
#     Node 0, Type 0, BuildingBlock: MIDCAF_clean_sbu_0, # of connection points: 6
#     Node 1, Type 0, BuildingBlock: MIDCAF_clean_sbu_0, # of connection points: 6
#     Node 2, Type 0, BuildingBlock: MIDCAF_clean_sbu_0, # of connection points: 6
#     Node 3, Type 0, BuildingBlock: MIDCAF_clean_sbu_0, # of connection points: 6
#     Node 4, Type 0, BuildingBlock: MIDCAF_clean_sbu_0, # of connection points: 6
#     Node 5, Type 0, BuildingBlock: MIDCAF_clean_sbu_0, # of connection points: 6
#     Node 6, Type 0, BuildingBlock: MIDCAF_clean_sbu_0, # of connection points: 6
#     Node 7, Type 0, BuildingBlock: MIDCAF_clean_sbu_0, # of connection points: 6
#     Edge 8, Type (0, 0), BuildingBlock: OJICUG_clean_linker_0, # of connection points: 2
#     Edge 9, Type (0, 0), BuildingBlock: OJICUG_clean_linker_0, # of connection points: 2
#     Edge 10, Type (0, 0), BuildingBlock: OJICUG_clean_linker_0, # of connection points: 2
#     Edge 11, Type (0, 0), BuildingBlock: OJICUG_clean_linker_0, # of connection points: 2
#     Edge 12, Type (0, 0), BuildingBlock: OJICUG_clean_linker_0, # of connection points: 2
#     Edge 13, Type (0, 0), BuildingBlock: OJICUG_clean_linker_0, # of connection points: 2
#     Edge 14, Type (0, 0), BuildingBlock: OJICUG_clean_linker_0, # of connection points: 2
#     Edge 15, Type (0, 0), BuildingBlock: OJICUG_clean_linker_0, # of connection points: 2
#     Edge 16, Type (0, 0), BuildingBlock: OJICUG_clean_linker_0, # of connection points: 2
#     Edge 17, Type (0, 0), BuildingBlock: OJICUG_clean_linker_0, # of connection points: 2
#     Edge 18, Type (0, 0), BuildingBlock: OJICUG_clean_linker_0, # of connection points: 2
#     Edge 19, Type (0, 0), BuildingBlock: OJICUG_clean_linker_0, # of connection points: 2
#     Edge 20, Type (0, 0), BuildingBlock: OJICUG_clean_linker_0, # of connection points: 2
#     Edge 21, Type (0, 0), BuildingBlock: OJICUG_clean_linker_0, # of connection points: 2
#     Edge 22, Type (0, 0), BuildingBlock: OJICUG_clean_linker_0, # of connection points: 2
#     Edge 23, Type (0, 0), BuildingBlock: OJICUG_clean_linker_0, # of connection points: 2
#     Edge 24, Type (0, 0), BuildingBlock: OJICUG_clean_linker_0, # of connection points: 2
#     Edge 25, Type (0, 0), BuildingBlock: OJICUG_clean_linker_0, # of connection points: 2
#     Edge 26, Type (0, 0), BuildingBlock: OJICUG_clean_linker_0, # of connection points: 2
#     Edge 27, Type (0, 0), BuildingBlock: OJICUG_clean_linker_0, # of connection points: 2
#     Edge 28, Type (0, 0), BuildingBlock: OJICUG_clean_linker_0, # of connection points: 2
#     Edge 29, Type (0, 0), BuildingBlock: OJICUG_clean_linker_0, # of connection points: 2
#     Edge 30, Type (0, 0), BuildingBlock: OJICUG_clean_linker_0, # of connection points: 2
#     Edge 31, Type (0, 0), BuildingBlock: OJICUG_clean_linker_0, # of connection points: 2
# Relax obj value: 0.252
# Max RMSD: 0.249
# Mean RMSD: 0.249
data_MOF--net-snw--node1-MIDCAF_clean_sbu_0--edge1-OJICUG_clean_linker_0
_symmetry_space_group_name_H-M    P1
_symmetry_Int_Tables_number       1
_symmetry_cell_setting            triclinic
loop_
_symmetry_equiv_pos_as_xyz
'x, y, z'
_cell_length_a     13.435266
_cell_length_b     13.752173
_cell_length_c     59.074694
_cell_angle_alpha  90.139869
_cell_angle_beta   89.216589
_cell_angle_gamma 91.402102
loop_
_atom_site_label
_atom_site_type_symbol
_atom_site_fract_x
_atom_site_fract_y
_atom_site_fract_z
_atom_type_partial_charge
Zn0 Zn 0.17941 0.43561 0.03571 0.0
Zn1 Zn 0.229 0.10969 0.01628 0.0
Zn2 Zn 0.17582 0.26654 0.03139 0.0
C3 C 0.0415 0.09942 0.04307 0.0
C4 C 0.37732 0.13348 0.04337 0.0
O5 O 0.13732 0.35246 0.00066 0.0
O6 O 0.22197 0.48875 0.00588 0.0
C7 C 1.00302 0.36944 0.05598 0.0
O8 O 0.06211 0.18757 0.04854 0.0
O9 O 0.09699 0.05538 0.02904 0.0
O10 O 0.35036 0.06542 0.0304 0.0
O11 O 0.32447 0.211 0.0447 0.0
O12 O 0.03561 0.44195 0.04477 0.0
O13 O 0.05146 0.2899 0.0554 0.0
O14 O 0.31375 0.30892 0.04886 0.0
O15 O 0.27203 0.45554 0.06028 0.0
C16 C 0.33043 0.38558 0.06087 0.0
O17 O 0.13795 0.24142 -0.00499 0.0
O18 O 0.24225 0.13053 -0.01642 0.0
C19 C 0.1639 0.43832 -0.0062 0.0
C20 C 0.172 0.18592 -0.02076 0.0
Zn21 Zn 0.33862 0.84103 0.3038 0.0
Zn22 Zn 1.01291 0.78554 0.30883 0.0
Zn23 Zn 0.17693 0.81643 0.30351 0.0
C24 C 0.0583 0.92746 0.33918 0.0
C25 C 0.06898 0.61635 0.32053 0.0
O26 O 0.23831 0.81034 0.26838 0.0
O27 O 0.37198 0.74132 0.281 0.0
C28 C 0.29211 0.01961 0.30795 0.0
O29 O 0.12642 0.93922 0.32388 0.0
O30 O 1.00255 0.85236 0.33878 0.0
O31 O 0.99699 0.6418 0.30865 0.0
O32 O 0.14401 0.67601 0.32261 0.0
O33 O 0.3536 0.98041 0.29467 0.0
O34 O 0.21969 0.96627 0.31601 0.0
O35 O 0.24374 0.70603 0.32525 0.0
O36 O 0.36305 0.80789 0.33584 0.0
C37 C 0.31565 0.72845 0.33867 0.0
O38 O 0.11097 0.80944 0.26908 0.0
O39 O 0.9635 0.85078 0.28199 0.0
C40 C 0.32166 0.76829 0.26441 0.0
C41 C 0.02061 0.83464 0.26536 0.0
Zn42 Zn 0.30352 0.61235 0.5384 0.0
Zn43 Zn 0.40362 0.92429 0.56067 0.0
Zn44 Zn 0.37664 0.76536 0.55187 0.0
C45 C 0.50622 0.84026 0.59281 0.0
C46 C 0.20695 0.91334 0.56208 0.0
O47 O 0.42114 0.72017 0.51696 0.0
O48 O 0.3003 0.62337 0.50531 0.0
C49 C 0.48659 0.58792 0.56467 0.0
O50 O 0.49692 0.77455 0.57742 0.0
O51 O 0.45398 0.915 0.59192 0.0
O52 O 0.27025 0.97784 0.55627 0.0
O53 O 0.23479 0.82506 0.56414 0.0
O54 O 0.42438 0.54643 0.55163 0.0
O55 O 0.47955 0.67874 0.56904 0.0
O56 O 0.22399 0.72372 0.56766 0.0
O57 O 0.17651 0.58181 0.5534 0.0
C58 C 0.16152 0.65029 0.56709 0.0
O59 O 0.42006 0.84381 0.51991 0.0
O60 O 0.50087 0.96279 0.53714 0.0
C61 C 0.38578 0.66074 0.50204 0.0
C62 C 0.47614 0.92133 0.51894 0.0
Zn63 Zn 0.51401 0.20589 0.82066 0.0
Zn64 Zn 0.18262 0.15938 0.81644 0.0
Zn65 Zn 0.34978 0.18809 0.81541 0.0
C66 C 0.21201 0.26988 0.85287 0.0
C67 C 0.23308 0.97845 0.81699 0.0
O68 O 0.42236 0.21762 0.78203 0.0
O69 O 0.55889 0.14544 0.7921 0.0
C70 C 0.46641 0.37318 0.83591 0.0
O71 O 0.28757 0.28992 0.83995 0.0
O72 O 0.15718 0.19656 0.84852 0.0
O73 O 0.16185 0.0201 0.8077 0.0
O74 O 0.30819 0.03092 0.8236 0.0
O75 O 0.5353 0.34896 0.82252 0.0
O76 O 0.38901 0.31631 0.83791 0.0
O77 O 0.39681 0.0569 0.83212 0.0
O78 O 0.51909 0.13257 0.8498 0.0
C79 C 0.46081 0.05983 0.84808 0.0
O80 O 0.29857 0.21258 0.78057 0.0
O81 O 0.15163 0.25583 0.79315 0.0
C82 C 0.50932 0.18568 0.77689 0.0
C83 C 0.21204 0.24709 0.7768 0.0
Zn84 Zn 0.80984 0.53964 0.93851 0.0
Zn85 Zn 0.8973 0.85059 0.88093 0.0
Zn86 Zn 0.88596 0.72634 0.9066 0.0
C87 C 0.70252 0.83027 0.88806 0.0
C88 C 1.00695 0.72276 0.86093 0.0
O89 O 0.92721 0.76977 0.94008 0.0
O90 O 0.80717 0.67551 0.95048 0.0
C91 C 0.67729 0.57497 0.90315 0.0
O92 O 0.73597 0.74878 0.89462 0.0
O93 O 0.76207 0.8988 0.88284 0.0
O94 O 0.93562 0.77184 0.85391 0.0
O95 O 1.00716 0.6995 0.88197 0.0
O96 O 0.69304 0.51553 0.91898 0.0
O97 O 0.73765 0.64871 0.89925 0.0
O98 O 0.98787 0.61545 0.89912 0.0
O99 O 0.94 0.49649 0.92292 0.0
C100 C 0.99963 0.53119 0.90786 0.0
O101 O 0.93091 0.85926 0.92585 0.0
O102 O 0.99658 0.9367 0.89637 0.0
C103 C 0.89467 0.70617 0.95403 0.0
C104 C 0.98105 0.93232 0.91749 0.0
Zn105 Zn 0.84924 0.72637 0.13567 0.0
Zn106 Zn 0.50259 0.77567 0.13533 0.0
Zn107 Zn 0.68225 0.7639 0.13843 0.0
C108 C 0.53243 0.593 0.12199 0.0
C109 C 0.55972 0.92586 0.10942 0.0
O110 O 0.74681 0.78242 0.17341 0.0
O111 O 0.90036 0.80283 0.16054 0.0
C112 C 0.79721 0.5605 0.12414 0.0
O113 O 0.62093 0.62987 0.12346 0.0
O114 O 0.45864 0.64165 0.12816 0.0
O115 O 0.48044 0.87778 0.11332 0.0
O116 O 0.64277 0.89693 0.11755 0.0
O117 O 0.8662 0.58342 0.13752 0.0
O118 O 0.72465 0.61983 0.12163 0.0
O119 O 0.74509 0.87485 0.1158 0.0
O120 O 0.8696 0.78311 0.10513 0.0
C121 C 0.81826 0.85747 0.10223 0.0
O122 O 0.62847 0.77906 0.17457 0.0
O123 O 0.47507 0.81679 0.16567 0.0
C124 C 0.83964 0.80422 0.17693 0.0
C125 C 0.53976 0.8046 0.18049 0.0
Zn126 Zn 0.62951 0.14136 0.39526 0.0
Zn127 Zn 0.72861 0.4533 0.41801 0.0
Zn128 Zn 0.65681 0.29998 0.40429 0.0
C129 C 0.54441 0.47766 0.39236 0.0
C130 C 0.8705 0.41633 0.38902 0.0
O131 O 0.61383 0.21996 0.43608 0.0
O132 O 0.53246 0.10162 0.41874 0.0
C133 C 0.52741 0.22712 0.36322 0.0
O134 O 0.55305 0.38741 0.3875 0.0
O135 O 0.60613 0.51893 0.40555 0.0
O136 O 0.85435 0.48502 0.40258 0.0
O137 O 0.80913 0.34206 0.38853 0.0
O138 O 0.57942 0.15221 0.36401 0.0
O139 O 0.53654 0.29218 0.37877 0.0
O140 O 0.79856 0.24076 0.39179 0.0
O141 O 0.76296 0.08787 0.39954 0.0
C142 C 0.82629 0.15237 0.39374 0.0
O143 O 0.61313 0.34315 0.43934 0.0
O144 O 0.73446 0.43918 0.45104 0.0
C145 C 0.55776 0.14241 0.43698 0.0
C146 C 0.6489 0.40199 0.45434 0.0
Zn147 Zn 0.02274 0.27955 0.6466 0.0
Zn148 Zn 0.69722 0.22491 0.65513 0.0
Zn149 Zn 0.85956 0.24999 0.6528 0.0
C150 C 0.74382 0.04666 0.64843 0.0
C151 C 0.71253 0.34025 0.61994 0.0
O152 O 0.93003 0.25926 0.68659 0.0
O153 O 0.07455 0.2127 0.67308 0.0
C154 C 0.97517 0.13933 0.61633 0.0
O155 O 0.81467 0.10125 0.6401 0.0
O156 O 0.68485 0.08367 0.66265 0.0
O157 O 0.66286 0.26316 0.62399 0.0
O158 O 0.78933 0.36117 0.63199 0.0
O159 O 0.03091 0.21443 0.61645 0.0
O160 O 0.90851 0.12767 0.63196 0.0
O161 O 0.88953 0.39065 0.63372 0.0
O162 O 0.03801 0.42344 0.64705 0.0
C163 C 0.96506 0.44983 0.6356 0.0
O164 O 0.80903 0.25187 0.6889 0.0
O165 O 0.66942 0.31905 0.67957 0.0
C166 C 0.02005 0.23254 0.68993 0.0
C167 C 0.72579 0.28985 0.69488 0.0
C168 C 0.99451 0.48192 -0.01761 0.0
C169 C 0.09772 0.49344 -0.02094 0.0
H170 H 0.85127 0.5432 -0.02126 0.0
C171 C 0.13455 0.57536 0.96709 0.0
H172 H 0.9639 0.42185 -0.00769 0.0
C173 C 0.06942 0.64496 0.95891 0.0
C174 C 0.96617 0.63503 0.96298 0.0
H175 H 0.21407 0.58761 0.96491 0.0
H176 H 0.10011 0.70718 0.94976 0.0
C177 C 0.93002 0.55279 0.97496 0.0
C178 C 0.82496 0.82737 0.21932 0.0
C179 C 0.8835 0.81984 0.19969 0.0
H180 H 0.82262 0.83958 0.25535 0.0
C181 C 0.98858 0.82195 0.20178 0.0
H182 H 0.74448 0.82584 0.21839 0.0
C183 C 0.03382 0.82822 0.22291 0.0
C184 C 0.97543 0.83436 0.24255 0.0
H185 H 0.03689 0.81608 0.18704 0.0
H186 H 0.11425 0.82715 0.22384 0.0
C187 C 0.87043 0.83536 0.24049 0.0
C188 C 0.55688 0.60183 0.49291 0.0
C189 C 0.45503 0.60324 0.48779 0.0
H190 H 0.69665 0.53344 0.48751 0.0
C191 C 0.41662 0.53213 0.47283 0.0
H192 H 0.58883 0.65337 0.50483 0.0
C193 C 0.47792 0.46131 0.46341 0.0
C194 C 0.57976 0.45984 0.46854 0.0
H195 H 0.33817 0.5297 0.4688 0.0
H196 H 0.44591 0.40974 0.4515 0.0
C197 C 0.6182 0.53102 0.48348 0.0
C198 C 0.65684 0.17131 0.75075 0.0
C199 C 0.56271 0.21102 0.75544 0.0
H200 H 0.78429 0.16741 0.72849 0.0
C201 C 0.52844 0.28389 0.7412 0.0
H202 H 0.68648 0.11584 0.76157 0.0
C203 C 0.58605 0.31505 0.72255 0.0
C204 C 0.67903 0.27356 0.71751 0.0
H205 H 0.45774 0.31766 0.74459 0.0
H206 H 0.556 0.36983 0.71159 0.0
C207 C 0.71429 0.20222 0.73204 0.0
C208 C 0.07445 0.29357 0.75119 0.0
C209 C 0.17039 0.25538 0.7538 0.0
H210 H 0.95022 0.31379 0.72935 0.0
C211 C 0.21575 0.2102 0.73523 0.0
H212 H 0.03689 0.32868 0.76522 0.0
C213 C 0.16516 0.20077 0.71478 0.0
C214 C 0.06805 0.23641 0.71237 0.0
H215 H 0.28853 0.17878 0.73672 0.0
H216 H 0.20233 0.16471 0.70083 0.0
C217 C 0.0237 0.2838 0.73076 0.0
C218 C 0.42006 0.86769 0.20879 0.0
C219 C 0.50058 0.80642 0.20398 0.0
H220 H 0.29729 0.90072 0.23082 0.0
C221 C 0.52011 0.73114 0.21906 0.0
H222 H 0.40226 0.92578 0.19727 0.0
C223 C 0.45832 0.71579 0.23813 0.0
C224 C 0.37536 0.77486 0.24239 0.0
H225 H 0.5794 0.68111 0.2155 0.0
H226 H 0.47527 0.6572 0.24957 0.0
C227 C 0.35782 0.8517 0.22762 0.0
C228 C 0.57983 0.11484 0.47868 0.0
C229 C 0.53307 0.08995 0.45838 0.0
H230 H 0.60125 0.07927 0.5134 0.0
C231 C 0.47021 1.00592 0.45789 0.0
H232 H 0.62971 0.17779 0.47959 0.0
C233 C 0.45467 0.94825 0.47719 0.0
C234 C 0.50132 0.97324 0.4975 0.0
H235 H 0.43329 0.98384 0.44246 0.0
H236 H 0.40473 0.88534 0.47628 0.0
C237 C 0.56432 0.05716 0.49796 0.0
C238 C 0.15148 0.13315 0.93949 0.0
C239 C 0.10797 0.15306 0.96065 0.0
H240 H 0.14513 0.04729 0.90925 0.0
C241 C 1.01636 0.10743 0.9665 0.0
H242 H 0.22327 0.16541 0.93486 0.0
C243 C 0.9742 0.03598 0.95243 0.0
C244 C 0.02141 0.01133 0.93196 0.0
H245 H 0.98274 0.1194 -0.01697 0.0
H246 H 0.9065 0.99797 0.95788 0.0
C247 C 0.10779 0.06391 0.92512 0.0
C248 C 0.58059 0.99715 0.07117 0.0
C249 C 0.55298 0.0092 0.09396 0.0
H250 H 0.54623 0.02994 0.03671 0.0
C251 C 0.48648 0.08283 0.09976 0.0
H252 H 0.63005 0.93952 0.06623 0.0
C253 C 0.43843 0.13463 0.08292 0.0
C254 C 0.45564 0.11303 0.06 0.0
H255 H 0.46246 0.09196 0.11721 0.0
H256 H 0.37835 0.18139 0.08789 0.0
C257 C 0.53183 0.04844 0.05427 0.0
C258 C 0.29129 0.13315 0.34104 0.0
C259 C 0.32288 0.11265 0.31879 0.0
H260 H 0.33339 0.19312 0.3731 0.0
C261 C 0.406 0.1646 0.30984 0.0
H262 H 0.22785 0.09478 0.34848 0.0
C263 C 0.46758 0.21938 0.32412 0.0
C264 C 0.44485 0.22532 0.34728 0.0
H265 H 0.43128 0.152 0.29261 0.0
H266 H 0.5391 0.24593 0.31769 0.0
C267 C 0.35194 0.18994 0.3552 0.0
C268 C 1.01631 0.09187 0.57716 0.0
C269 C 0.99582 0.06376 0.59955 0.0
H270 H 0.09739 0.06103 0.54674 0.0
C271 C 0.02052 0.97047 0.60675 0.0
H272 H 0.9972 0.1636 0.57131 0.0
C273 C 0.07886 0.91207 0.59273 0.0
C274 C 0.11185 0.94658 0.57151 0.0
H275 H 1.0057 0.94793 0.62406 0.0
H276 H 0.10921 0.8471 0.59978 0.0
C277 C 0.07328 0.03308 0.56311 0.0
C278 C 0.09466 0.74368 0.82431 0.0
C279 C 0.10101 0.73502 0.84794 0.0
H280 H 0.13423 0.83084 0.79544 0.0
C281 C 0.1809 0.7822 0.85893 0.0
H282 H 0.03454 0.70719 0.81536 0.0
C283 C 0.23707 0.85453 0.84759 0.0
C284 C 0.21571 0.87766 0.82505 0.0
H285 H 0.18817 0.77671 0.87713 0.0
H286 H 0.28529 0.90156 0.85748 0.0
C287 C 0.1511 0.81551 0.81294 0.0
C288 C 0.56203 0.82245 0.86258 0.0
C289 C 0.59746 0.8455 0.8842 0.0
H290 H 0.48623 0.87582 0.83371 0.0
C291 C 0.55539 0.92228 0.89635 0.0
H292 H 0.59508 0.76512 0.85269 0.0
C293 C 0.49705 0.98849 0.88513 0.0
C294 C 0.47768 0.97505 0.86209 0.0
H295 H 0.58211 0.94108 0.91308 0.0
H296 H 0.47791 0.05568 0.89357 0.0
C297 C 0.5013 0.88725 0.85151 0.0
C298 C 0.74243 0.93548 0.61486 0.0
C299 C 0.71169 0.95477 0.63723 0.0
H300 H 0.69959 0.87656 0.58275 0.0
C301 C 0.6288 0.9024 0.64618 0.0
H302 H 0.80557 0.97422 0.6074 0.0
C303 C 0.56691 0.84805 0.63187 0.0
C304 C 0.58909 0.84283 0.60868 0.0
H305 H 0.60408 0.91403 0.66348 0.0
H306 H 0.4957 0.82094 0.63836 0.0
C307 C 0.68153 0.87906 0.60068 0.0
C308 C 1.01636 0.97373 0.37838 0.0
C309 C 0.03704 1.00248 0.35604 0.0
H310 H 0.93537 1.00391 0.40884 0.0
C311 C 1.01256 0.096 0.34898 0.0
H312 H 0.03535 0.9018 0.38412 0.0
C313 C 0.95433 0.15416 0.36308 0.0
C314 C 0.92125 0.11913 0.38425 0.0
H315 H 0.02757 0.11903 0.33171 0.0
H316 H 0.9242 0.21943 0.35614 0.0
C317 C 0.95955 0.03227 0.39252 0.0
C318 C 0.89002 0.88569 0.0642 0.0
C319 C 0.84772 0.92422 0.08399 0.0
H320 H 0.98281 0.91208 0.03528 0.0
C321 C 0.85165 0.02489 0.08771 0.0
H322 H 0.88608 0.80816 0.06085 0.0
C323 C 0.90861 0.08475 0.07318 0.0
C324 C 0.96104 0.04415 0.05482 0.0
H325 H 0.81865 0.0559 0.10284 0.0
H326 H 0.91731 0.16103 0.07729 0.0
C327 C 0.94566 0.94528 0.04963 0.0
C328 C 0.68045 0.50788 0.60616 0.0
C329 C 0.67555 0.4069 0.60282 0.0
H330 H 0.62388 0.64556 0.59654 0.0
C331 C 0.62059 0.3683 0.58476 0.0
H332 H 0.72261 0.5391 0.62002 0.0
C333 C 0.56438 0.42861 0.57141 0.0
C334 C 0.56121 0.52872 0.57602 0.0
H335 H 0.61683 0.29057 0.5817 0.0
H336 H 0.51916 0.39566 0.55828 0.0
C337 C 0.62332 0.56858 0.59283 0.0
C338 C 0.52009 0.48471 0.8924 0.0
C339 C 0.5997 0.54858 0.88647 0.0
H340 H 0.4116 0.38004 0.88062 0.0
C341 C 0.61632 0.57067 0.86353 0.0
H342 H 0.50556 0.46619 0.90997 0.0
C343 C 0.56164 0.52252 0.84679 0.0
C344 C 0.49016 0.45021 0.85263 0.0
H345 H 0.67834 0.61763 0.85835 0.0
H346 H 0.58261 0.53462 0.82922 0.0
C347 C 0.46534 0.43613 0.87558 0.0
C348 C 0.80136 0.50668 0.08415 0.0
C349 C 0.81749 0.48479 0.10697 0.0
H350 H 0.84466 0.48244 0.04974 0.0
C351 C 0.87779 0.40582 0.11218 0.0
H352 H 0.7612 0.57066 0.07955 0.0
C353 C 0.92929 0.35684 0.09494 0.0
C354 C 0.92109 0.38658 0.07232 0.0
H355 H 0.893 0.38852 0.12966 0.0
H356 H 0.98386 0.30399 0.09958 0.0
C357 C 0.85139 0.45714 0.067 0.0
C358 C 0.08319 0.54212 0.35879 0.0
C359 C 0.0505 0.53431 0.33637 0.0
H360 H 0.05153 0.50753 0.39353 0.0
C361 C 0.97583 0.46435 0.33126 0.0
H362 H 0.13944 0.59604 0.36337 0.0
C363 C 0.92443 0.41457 0.3486 0.0
C364 C 0.94797 0.43273 0.37131 0.0
H365 H 0.94908 0.45664 0.31411 0.0
H366 H 0.85889 0.37123 0.34433 0.0
C367 C 0.03205 0.49184 0.37614 0.0
C368 C 0.40888 0.49824 0.36399 0.0
C369 C 0.46835 0.53661 0.38145 0.0
H370 H 0.31114 0.52989 0.33668 0.0
C371 C 0.46125 0.63544 0.38713 0.0
H372 H 0.41143 0.42222 0.35943 0.0
C373 C 0.40402 0.69656 0.3742 0.0
C374 C 0.35207 0.65996 0.35547 0.0
H375 H 0.50431 0.66707 0.4008 0.0
H376 H 0.40502 0.77363 0.37807 0.0
C377 C 0.35084 0.55966 0.35107 0.0
C378 C 0.49566 0.44957 0.06981 0.0
C379 C 0.41263 0.39306 0.07652 0.0
H380 H 0.5966 0.56278 0.07963 0.0
C381 C 0.38968 0.3819 0.09962 0.0
H382 H 0.51207 0.4613 0.05199 0.0
C383 C 0.44024 0.43825 0.11559 0.0
C384 C 0.51362 0.50585 0.10843 0.0
H385 H 0.32396 0.34034 0.10498 0.0
H386 H 0.41378 0.43777 0.133 0.0
C387 C 0.54521 0.50692 0.08572 0.0
C388 C 0.14642 0.50172 0.88233 0.0
C389 C 0.07495 0.46652 0.89808 0.0
H390 H 0.24795 0.46572 0.85551 0.0
C391 C 0.06667 0.3659 0.90205 0.0
H392 H 0.15723 0.57883 0.87948 0.0
C393 C 0.11866 0.30145 0.88843 0.0
C394 C 0.18102 0.33652 0.8709 0.0
H395 H 1.01401 0.33616 0.91442 0.0
H396 H 0.10477 0.22412 0.89059 0.0
C397 C 0.19928 0.43697 0.86879 0.0
C398 C 0.9489 0.52538 0.59754 0.0
C399 C 0.98258 0.53251 0.6199 0.0
H400 H 0.97959 0.56039 0.56278 0.0
C401 C 0.05764 0.60214 0.62495 0.0
H402 H 0.89214 0.47183 0.59303 0.0
C403 C 0.10862 0.65206 0.60757 0.0
C404 C 0.08433 0.63428 0.58489 0.0
H405 H 0.08509 0.60934 0.64205 0.0
H406 H 0.17448 0.69507 0.61177 0.0
C407 C 0.99973 0.5757 0.58015 0.0
loop_
_geom_bond_atom_site_label_1
_geom_bond_atom_site_label_2
_geom_bond_distance
_geom_bond_site_symmetry_2
_ccdc_geom_bond_type
Zn0 O6 1.920 . S
Zn0 O12 1.898 1_455 S
Zn0 O15 1.905 . S
Zn1 O9 1.905 1_565 S
Zn1 O10 1.898 1_665 S
Zn1 O18 1.920 1_565 S
Zn2 O5 2.080 . S
Zn2 O8 2.114 1_455 S
Zn2 O11 2.120 . S
Zn2 O13 2.120 1_455 S
Zn2 O14 2.114 . S
Zn2 O17 2.080 1_455 S
C3 O8 1.166 . S
C3 O9 1.182 . S
C4 O10 1.167 . S
C4 O11 1.299 . S
O5 Zn2 2.080 . S
O5 C19 1.305 . S
O6 Zn0 1.920 . S
O6 C19 1.234 . S
C7 O12 1.167 . S
C7 O13 1.299 . S
O8 Zn2 2.114 1_655 S
O8 C3 1.166 . S
O9 Zn1 1.905 1_545 S
O9 C3 1.182 . S
O10 Zn1 1.898 1_445 S
O10 C4 1.167 . S
O11 Zn2 2.120 . S
O11 C4 1.299 . S
O12 Zn0 1.898 1_655 S
O12 C7 1.167 . S
O13 Zn2 2.120 1_655 S
O13 C7 1.299 . S
O14 Zn2 2.114 . S
O14 C16 1.166 . S
O15 Zn0 1.905 . S
O15 C16 1.182 . S
C16 O14 1.166 . S
C16 O15 1.182 . S
O17 Zn2 2.080 1_655 S
O17 C20 1.305 . S
O18 Zn1 1.920 1_545 S
O18 C20 1.234 . S
C19 O5 1.305 . S
C19 O6 1.234 . S
C20 O17 1.305 . S
C20 O18 1.234 . S
Zn21 O27 1.920 . S
Zn21 O33 1.898 . S
Zn21 O36 1.905 . S
Zn22 O30 1.905 . S
Zn22 O31 1.898 . S
Zn22 O39 1.920 . S
Zn23 O26 2.080 . S
Zn23 O29 2.114 1_455 S
Zn23 O32 2.120 1_455 S
Zn23 O34 2.120 . S
Zn23 O35 2.114 . S
Zn23 O38 2.080 1_455 S
C24 O29 1.166 . S
C24 O30 1.182 . S
C25 O31 1.167 . S
C25 O32 1.299 . S
O26 Zn23 2.080 . S
O26 C40 1.305 . S
O27 Zn21 1.920 . S
O27 C40 1.234 . S
C28 O33 1.167 . S
C28 O34 1.299 . S
O29 Zn23 2.114 1_655 S
O29 C24 1.166 . S
O30 Zn22 1.905 . S
O30 C24 1.182 . S
O31 Zn22 1.898 . S
O31 C25 1.167 . S
O32 Zn23 2.120 1_655 S
O32 C25 1.299 . S
O33 Zn21 1.898 . S
O33 C28 1.167 . S
O34 Zn23 2.120 . S
O34 C28 1.299 . S
O35 Zn23 2.114 . S
O35 C37 1.166 . S
O36 Zn21 1.905 . S
O36 C37 1.182 . S
C37 O35 1.166 . S
C37 O36 1.182 . S
O38 Zn23 2.080 1_655 S
O38 C41 1.305 . S
O39 Zn22 1.920 . S
O39 C41 1.234 . S
C40 O26 1.305 . S
C40 O27 1.234 . S
C41 O38 1.305 . S
C41 O39 1.234 . S
Zn42 O48 1.920 . S
Zn42 O54 1.898 . S
Zn42 O57 1.905 . S
Zn43 O51 1.905 1_545 S
Zn43 O52 1.898 1_545 S
Zn43 O60 1.920 1_545 S
Zn44 O47 2.080 . S
Zn44 O50 2.114 . S
Zn44 O53 2.120 . S
Zn44 O55 2.120 . S
Zn44 O56 2.114 . S
Zn44 O59 2.080 . S
C45 O50 1.166 . S
C45 O51 1.182 . S
C46 O52 1.167 . S
C46 O53 1.299 . S
O47 Zn44 2.080 . S
O47 C61 1.305 . S
O48 Zn42 1.920 . S
O48 C61 1.234 . S
C49 O54 1.167 . S
C49 O55 1.299 . S
O50 Zn44 2.114 . S
O50 C45 1.166 . S
O51 Zn43 1.905 1_565 S
O51 C45 1.182 . S
O52 Zn43 1.898 1_565 S
O52 C46 1.167 . S
O53 Zn44 2.120 . S
O53 C46 1.299 . S
O54 Zn42 1.898 . S
O54 C49 1.167 . S
O55 Zn44 2.120 . S
O55 C49 1.299 . S
O56 Zn44 2.114 . S
O56 C58 1.166 . S
O57 Zn42 1.905 . S
O57 C58 1.182 . S
C58 O56 1.166 . S
C58 O57 1.182 . S
O59 Zn44 2.080 . S
O59 C62 1.305 . S
O60 Zn43 1.920 1_565 S
O60 C62 1.234 . S
C61 O47 1.305 . S
C61 O48 1.234 . S
C62 O59 1.305 . S
C62 O60 1.234 . S
Zn63 O69 1.920 . S
Zn63 O75 1.898 . S
Zn63 O78 1.905 . S
Zn64 O72 1.905 . S
Zn64 O73 1.898 . S
Zn64 O81 1.920 . S
Zn65 O68 2.080 . S
Zn65 O71 2.114 . S
Zn65 O74 2.120 . S
Zn65 O76 2.120 . S
Zn65 O77 2.114 . S
Zn65 O80 2.080 . S
C66 O71 1.166 . S
C66 O72 1.182 . S
C67 O73 1.167 . S
C67 O74 1.299 . S
O68 Zn65 2.080 . S
O68 C82 1.305 . S
O69 Zn63 1.920 . S
O69 C82 1.234 . S
C70 O75 1.167 . S
C70 O76 1.299 . S
O71 Zn65 2.114 . S
O71 C66 1.166 . S
O72 Zn64 1.905 . S
O72 C66 1.182 . S
O73 Zn64 1.898 . S
O73 C67 1.167 . S
O74 Zn65 2.120 . S
O74 C67 1.299 . S
O75 Zn63 1.898 . S
O75 C70 1.167 . S
O76 Zn65 2.120 . S
O76 C70 1.299 . S
O77 Zn65 2.114 . S
O77 C79 1.166 . S
O78 Zn63 1.905 . S
O78 C79 1.182 . S
C79 O77 1.166 . S
C79 O78 1.182 . S
O80 Zn65 2.080 . S
O80 C83 1.305 . S
O81 Zn64 1.920 . S
O81 C83 1.234 . S
C82 O68 1.305 . S
C82 O69 1.234 . S
C83 O80 1.305 . S
C83 O81 1.234 . S
Zn84 O90 1.920 . S
Zn84 O96 1.898 1_455 S
Zn84 O99 1.905 . S
Zn85 O93 1.905 1_545 S
Zn85 O94 1.898 1_645 S
Zn85 O102 1.920 1_545 S
Zn86 O89 2.080 . S
Zn86 O92 2.114 1_455 S
Zn86 O95 2.120 . S
Zn86 O97 2.120 1_455 S
Zn86 O98 2.114 . S
Zn86 O101 2.080 1_455 S
C87 O92 1.166 . S
C87 O93 1.182 . S
C88 O94 1.167 . S
C88 O95 1.299 . S
O89 Zn86 2.080 . S
O89 C103 1.305 . S
O90 Zn84 1.920 . S
O90 C103 1.234 . S
C91 O96 1.167 . S
C91 O97 1.299 . S
O92 Zn86 2.114 1_655 S
O92 C87 1.166 . S
O93 Zn85 1.905 1_565 S
O93 C87 1.182 . S
O94 Zn85 1.898 1_465 S
O94 C88 1.167 . S
O95 Zn86 2.120 . S
O95 C88 1.299 . S
O96 Zn84 1.898 1_655 S
O96 C91 1.167 . S
O97 Zn86 2.120 1_655 S
O97 C91 1.299 . S
O98 Zn86 2.114 . S
O98 C100 1.166 . S
O99 Zn84 1.905 . S
O99 C100 1.182 . S
C100 O98 1.166 . S
C100 O99 1.182 . S
O101 Zn86 2.080 1_655 S
O101 C104 1.305 . S
O102 Zn85 1.920 1_565 S
O102 C104 1.234 . S
C103 O89 1.305 . S
C103 O90 1.234 . S
C104 O101 1.305 . S
C104 O102 1.234 . S
Zn105 O111 1.920 . S
Zn105 O117 1.898 . S
Zn105 O120 1.905 . S
Zn106 O114 1.905 . S
Zn106 O115 1.898 . S
Zn106 O123 1.920 . S
Zn107 O110 2.080 . S
Zn107 O113 2.114 . S
Zn107 O116 2.120 . S
Zn107 O118 2.120 . S
Zn107 O119 2.114 . S
Zn107 O122 2.080 . S
C108 O113 1.166 . S
C108 O114 1.182 . S
C109 O115 1.167 . S
C109 O116 1.299 . S
O110 Zn107 2.080 . S
O110 C124 1.305 . S
O111 Zn105 1.920 . S
O111 C124 1.234 . S
C112 O117 1.167 . S
C112 O118 1.299 . S
O113 Zn107 2.114 . S
O113 C108 1.166 . S
O114 Zn106 1.905 . S
O114 C108 1.182 . S
O115 Zn106 1.898 . S
O115 C109 1.167 . S
O116 Zn107 2.120 . S
O116 C109 1.299 . S
O117 Zn105 1.898 . S
O117 C112 1.167 . S
O118 Zn107 2.120 . S
O118 C112 1.299 . S
O119 Zn107 2.114 . S
O119 C121 1.166 . S
O120 Zn105 1.905 . S
O120 C121 1.182 . S
C121 O119 1.166 . S
C121 O120 1.182 . S
O122 Zn107 2.080 . S
O122 C125 1.305 . S
O123 Zn106 1.920 . S
O123 C125 1.234 . S
C124 O110 1.305 . S
C124 O111 1.234 . S
C125 O122 1.305 . S
C125 O123 1.234 . S
Zn126 O132 1.920 1_565 S
Zn126 O138 1.898 1_565 S
Zn126 O141 1.905 1_565 S
Zn127 O135 1.905 . S
Zn127 O136 1.898 . S
Zn127 O144 1.920 . S
Zn128 O131 2.080 . S
Zn128 O134 2.114 . S
Zn128 O137 2.120 . S
Zn128 O139 2.120 . S
Zn128 O140 2.114 . S
Zn128 O143 2.080 . S
C129 O134 1.166 . S
C129 O135 1.182 . S
C130 O136 1.167 . S
C130 O137 1.299 . S
O131 Zn128 2.080 . S
O131 C145 1.305 . S
O132 Zn126 1.920 1_545 S
O132 C145 1.234 . S
C133 O138 1.167 . S
C133 O139 1.299 . S
O134 Zn128 2.114 . S
O134 C129 1.166 . S
O135 Zn127 1.905 . S
O135 C129 1.182 . S
O136 Zn127 1.898 . S
O136 C130 1.167 . S
O137 Zn128 2.120 . S
O137 C130 1.299 . S
O138 Zn126 1.898 1_545 S
O138 C133 1.167 . S
O139 Zn128 2.120 . S
O139 C133 1.299 . S
O140 Zn128 2.114 . S
O140 C142 1.166 . S
O141 Zn126 1.905 1_545 S
O141 C142 1.182 . S
C142 O140 1.166 . S
C142 O141 1.182 . S
O143 Zn128 2.080 . S
O143 C146 1.305 . S
O144 Zn127 1.920 . S
O144 C146 1.234 . S
C145 O131 1.305 . S
C145 O132 1.234 . S
C146 O143 1.305 . S
C146 O144 1.234 . S
Zn147 O153 1.920 . S
Zn147 O159 1.898 . S
Zn147 O162 1.905 . S
Zn148 O156 1.905 . S
Zn148 O157 1.898 . S
Zn148 O165 1.920 . S
Zn149 O152 2.080 . S
Zn149 O155 2.114 1_455 S
Zn149 O158 2.120 1_455 S
Zn149 O160 2.120 . S
Zn149 O161 2.114 . S
Zn149 O164 2.080 1_455 S
C150 O155 1.166 . S
C150 O156 1.182 . S
C151 O157 1.167 . S
C151 O158 1.299 . S
O152 Zn149 2.080 . S
O152 C166 1.305 . S
O153 Zn147 1.920 . S
O153 C166 1.234 . S
C154 O159 1.167 . S
C154 O160 1.299 . S
O155 Zn149 2.114 1_655 S
O155 C150 1.166 . S
O156 Zn148 1.905 . S
O156 C150 1.182 . S
O157 Zn148 1.898 . S
O157 C151 1.167 . S
O158 Zn149 2.120 1_655 S
O158 C151 1.299 . S
O159 Zn147 1.898 . S
O159 C154 1.167 . S
O160 Zn149 2.120 . S
O160 C154 1.299 . S
O161 Zn149 2.114 . S
O161 C163 1.166 . S
O162 Zn147 1.905 . S
O162 C163 1.182 . S
C163 O161 1.166 . S
C163 O162 1.182 . S
O164 Zn149 2.080 1_655 S
O164 C167 1.305 . S
O165 Zn148 1.920 . S
O165 C167 1.234 . S
C166 O152 1.305 . S
C166 O153 1.234 . S
C167 O164 1.305 . S
C167 O165 1.234 . S
C168 C169 1.387 1_655 S
C168 H172 0.950 . S
C168 C177 1.390 1_554 S
C169 C168 1.387 1_455 S
C169 C171 1.387 . S
H170 C177 0.950 . S
C171 C169 1.387 . S
C171 C173 1.390 1_554 S
C171 H175 0.950 . S
H172 C168 0.950 . S
C173 C171 1.390 1_556 S
C173 C174 1.387 . S
C173 H176 0.950 . S
C174 C173 1.387 . S
C174 C177 1.387 1_455 S
H175 C171 0.950 . S
H176 C173 0.950 . S
C177 C168 1.390 1_556 S
C177 H170 0.950 . S
C177 C174 1.387 1_655 S
C178 C179 1.387 . S
C178 H182 0.950 . S
C178 C187 1.390 . S
C179 C178 1.387 . S
C179 C181 1.387 . S
H180 C187 0.950 . S
C181 C179 1.387 . S
C181 C183 1.390 . S
C181 H185 0.950 . S
H182 C178 0.950 . S
C183 C181 1.390 . S
C183 C184 1.387 . S
C183 H186 0.950 . S
C184 C183 1.387 . S
C184 C187 1.387 . S
H185 C181 0.950 . S
H186 C183 0.950 . S
C187 C178 1.390 . S
C187 H180 0.950 . S
C187 C184 1.387 . S
C188 C189 1.387 . S
C188 H192 0.950 . S
C188 C197 1.390 . S
C189 C188 1.387 . S
C189 C191 1.387 . S
H190 C197 0.950 . S
C191 C189 1.387 . S
C191 C193 1.390 . S
C191 H195 0.950 . S
H192 C188 0.950 . S
C193 C191 1.390 . S
C193 C194 1.387 . S
C193 H196 0.950 . S
C194 C193 1.387 . S
C194 C197 1.387 . S
H195 C191 0.950 . S
H196 C193 0.950 . S
C197 C188 1.390 . S
C197 H190 0.950 . S
C197 C194 1.387 . S
C198 C199 1.387 . S
C198 H202 0.950 . S
C198 C207 1.390 . S
C199 C198 1.387 . S
C199 C201 1.387 . S
H200 C207 0.950 . S
C201 C199 1.387 . S
C201 C203 1.390 . S
C201 H205 0.950 . S
H202 C198 0.950 . S
C203 C201 1.390 . S
C203 C204 1.387 . S
C203 H206 0.950 . S
C204 C203 1.387 . S
C204 C207 1.387 . S
H205 C201 0.950 . S
H206 C203 0.950 . S
C207 C198 1.390 . S
C207 H200 0.950 . S
C207 C204 1.387 . S
C208 C209 1.387 . S
C208 H212 0.950 . S
C208 C217 1.390 . S
C209 C208 1.387 . S
C209 C211 1.387 . S
H210 C217 0.950 . S
C211 C209 1.387 . S
C211 C213 1.390 . S
C211 H215 0.950 . S
H212 C208 0.950 . S
C213 C211 1.390 . S
C213 C214 1.387 . S
C213 H216 0.950 . S
C214 C213 1.387 . S
C214 C217 1.387 . S
H215 C211 0.950 . S
H216 C213 0.950 . S
C217 C208 1.390 . S
C217 H210 0.950 . S
C217 C214 1.387 . S
C218 C219 1.387 . S
C218 H222 0.950 . S
C218 C227 1.390 . S
C219 C218 1.387 . S
C219 C221 1.387 . S
H220 C227 0.950 . S
C221 C219 1.387 . S
C221 C223 1.390 . S
C221 H225 0.950 . S
H222 C218 0.950 . S
C223 C221 1.390 . S
C223 C224 1.387 . S
C223 H226 0.950 . S
C224 C223 1.387 . S
C224 C227 1.387 . S
H225 C221 0.950 . S
H226 C223 0.950 . S
C227 C218 1.390 . S
C227 H220 0.950 . S
C227 C224 1.387 . S
C228 C229 1.387 . S
C228 H232 0.950 . S
C228 C237 1.390 1_545 S
C229 C228 1.387 . S
C229 C231 1.387 . S
H230 C237 0.950 . S
C231 C229 1.387 . S
C231 C233 1.390 1_545 S
C231 H235 0.950 . S
H232 C228 0.950 . S
C233 C231 1.390 1_565 S
C233 C234 1.387 . S
C233 H236 0.950 . S
C234 C233 1.387 . S
C234 C237 1.387 . S
H235 C231 0.950 . S
H236 C233 0.950 . S
C237 C228 1.390 1_565 S
C237 H230 0.950 . S
C237 C234 1.387 . S
C238 C239 1.387 1_455 S
C238 H242 0.950 . S
C238 C247 1.390 1_544 S
C239 C238 1.387 1_655 S
C239 C241 1.387 . S
H240 C247 0.950 . S
C241 C239 1.387 . S
C241 C243 1.390 1_544 S
C241 H245 0.950 . S
H242 C238 0.950 . S
C243 C241 1.390 1_566 S
C243 C244 1.387 . S
C243 H246 0.950 . S
C244 C243 1.387 . S
C244 C247 1.387 1_655 S
H245 C241 0.950 . S
H246 C243 0.950 . S
C247 C238 1.390 1_566 S
C247 H240 0.950 . S
C247 C244 1.387 1_455 S
C248 C249 1.387 . S
C248 H252 0.950 . S
C248 C257 1.390 1_565 S
C249 C248 1.387 . S
C249 C251 1.387 1_565 S
H250 C257 0.950 . S
C251 C249 1.387 1_545 S
C251 C253 1.390 . S
C251 H255 0.950 . S
H252 C248 0.950 . S
C253 C251 1.390 . S
C253 C254 1.387 . S
C253 H256 0.950 . S
C254 C253 1.387 . S
C254 C257 1.387 . S
H255 C251 0.950 . S
H256 C253 0.950 . S
C257 C248 1.390 1_545 S
C257 H250 0.950 . S
C257 C254 1.387 . S
C258 C259 1.387 . S
C258 H262 0.950 . S
C258 C267 1.390 1_565 S
C259 C258 1.387 . S
C259 C261 1.387 1_565 S
H260 C267 0.950 . S
C261 C259 1.387 1_545 S
C261 C263 1.390 . S
C261 H265 0.950 . S
H262 C258 0.950 . S
C263 C261 1.390 . S
C263 C264 1.387 . S
C263 H266 0.950 . S
C264 C263 1.387 . S
C264 C267 1.387 . S
H265 C261 0.950 . S
H266 C263 0.950 . S
C267 C258 1.390 1_545 S
C267 H260 0.950 . S
C267 C264 1.387 . S
C268 C269 1.387 . S
C268 H272 0.950 . S
C268 C277 1.390 1_545 S
C269 C268 1.387 . S
C269 C271 1.387 1_545 S
H270 C277 0.950 . S
C271 C269 1.387 1_565 S
C271 C273 1.390 . S
C271 H275 0.950 . S
H272 C268 0.950 . S
C273 C271 1.390 . S
C273 C274 1.387 . S
C273 H276 0.950 . S
C274 C273 1.387 . S
C274 C277 1.387 . S
H275 C271 0.950 . S
H276 C273 0.950 . S
C277 C268 1.390 1_565 S
C277 H270 0.950 . S
C277 C274 1.387 . S
C278 C279 1.387 . S
C278 H282 0.950 1_565 S
C278 C287 1.390 1_565 S
C279 C278 1.387 . S
C279 C281 1.387 . S
H280 C287 0.950 . S
C281 C279 1.387 . S
C281 C283 1.390 . S
C281 H285 0.950 . S
H282 C278 0.950 1_545 S
C283 C281 1.390 . S
C283 C284 1.387 1_565 S
C283 H286 0.950 . S
C284 C283 1.387 1_545 S
C284 C287 1.387 . S
H285 C281 0.950 . S
H286 C283 0.950 . S
C287 C278 1.390 1_545 S
C287 H280 0.950 . S
C287 C284 1.387 . S
C288 C289 1.387 . S
C288 H292 0.950 . S
C288 C297 1.390 1_565 S
C289 C288 1.387 . S
C289 C291 1.387 . S
H290 C297 0.950 . S
C291 C289 1.387 . S
C291 C293 1.390 1_565 S
C291 H295 0.950 . S
H292 C288 0.950 . S
C293 C291 1.390 1_545 S
C293 C294 1.387 . S
C293 H296 0.950 . S
C294 C293 1.387 . S
C294 C297 1.387 . S
H295 C291 0.950 . S
H296 C293 0.950 . S
C297 C288 1.390 1_545 S
C297 H290 0.950 . S
C297 C294 1.387 . S
C298 C299 1.387 . S
C298 H302 0.950 . S
C298 C307 1.390 1_545 S
C299 C298 1.387 . S
C299 C301 1.387 . S
H300 C307 0.950 . S
C301 C299 1.387 . S
C301 C303 1.390 1_545 S
C301 H305 0.950 . S
H302 C298 0.950 . S
C303 C301 1.390 1_565 S
C303 C304 1.387 . S
C303 H306 0.950 . S
C304 C303 1.387 . S
C304 C307 1.387 . S
H305 C301 0.950 . S
H306 C303 0.950 . S
C307 C298 1.390 1_565 S
C307 H300 0.950 . S
C307 C304 1.387 . S
C308 C309 1.387 . S
C308 H312 0.950 . S
C308 C317 1.390 1_565 S
C309 C308 1.387 . S
C309 C311 1.387 . S
H310 C317 0.950 . S
C311 C309 1.387 . S
C311 C313 1.390 1_565 S
C311 H315 0.950 . S
H312 C308 0.950 . S
C313 C311 1.390 1_545 S
C313 C314 1.387 . S
C313 H316 0.950 . S
C314 C313 1.387 . S
C314 C317 1.387 . S
H315 C311 0.950 . S
H316 C313 0.950 . S
C317 C308 1.390 1_545 S
C317 H310 0.950 . S
C317 C314 1.387 . S
C318 C319 1.387 . S
C318 H322 0.950 . S
C318 C327 1.390 1_565 S
C319 C318 1.387 . S
C319 C321 1.387 . S
H320 C327 0.950 . S
C321 C319 1.387 . S
C321 C323 1.390 1_565 S
C321 H325 0.950 . S
H322 C318 0.950 . S
C323 C321 1.390 1_545 S
C323 C324 1.387 . S
C323 H326 0.950 . S
C324 C323 1.387 . S
C324 C327 1.387 . S
H325 C321 0.950 . S
H326 C323 0.950 . S
C327 C318 1.390 1_545 S
C327 H320 0.950 . S
C327 C324 1.387 . S
C328 C329 1.387 . S
C328 H332 0.950 . S
C328 C337 1.390 . S
C329 C328 1.387 . S
C329 C331 1.387 . S
H330 C337 0.950 . S
C331 C329 1.387 . S
C331 C333 1.390 . S
C331 H335 0.950 . S
H332 C328 0.950 . S
C333 C331 1.390 . S
C333 C334 1.387 . S
C333 H336 0.950 . S
C334 C333 1.387 . S
C334 C337 1.387 . S
H335 C331 0.950 . S
H336 C333 0.950 . S
C337 C328 1.390 . S
C337 H330 0.950 . S
C337 C334 1.387 . S
C338 C339 1.387 . S
C338 H342 0.950 . S
C338 C347 1.390 . S
C339 C338 1.387 . S
C339 C341 1.387 . S
H340 C347 0.950 . S
C341 C339 1.387 . S
C341 C343 1.390 . S
C341 H345 0.950 . S
H342 C338 0.950 . S
C343 C341 1.390 . S
C343 C344 1.387 . S
C343 H346 0.950 . S
C344 C343 1.387 . S
C344 C347 1.387 . S
H345 C341 0.950 . S
H346 C343 0.950 . S
C347 C338 1.390 . S
C347 H340 0.950 . S
C347 C344 1.387 . S
C348 C349 1.387 . S
C348 H352 0.950 . S
C348 C357 1.390 . S
C349 C348 1.387 . S
C349 C351 1.387 . S
H350 C357 0.950 . S
C351 C349 1.387 . S
C351 C353 1.390 . S
C351 H355 0.950 . S
H352 C348 0.950 . S
C353 C351 1.390 . S
C353 C354 1.387 . S
C353 H356 0.950 . S
C354 C353 1.387 . S
C354 C357 1.387 . S
H355 C351 0.950 . S
H356 C353 0.950 . S
C357 C348 1.390 . S
C357 H350 0.950 . S
C357 C354 1.387 . S
C358 C359 1.387 . S
C358 H362 0.950 . S
C358 C367 1.390 . S
C359 C358 1.387 . S
C359 C361 1.387 . S
H360 C367 0.950 . S
C361 C359 1.387 . S
C361 C363 1.390 . S
C361 H365 0.950 . S
H362 C358 0.950 . S
C363 C361 1.390 . S
C363 C364 1.387 . S
C363 H366 0.950 . S
C364 C363 1.387 . S
C364 C367 1.387 . S
H365 C361 0.950 . S
H366 C363 0.950 . S
C367 C358 1.390 . S
C367 H360 0.950 . S
C367 C364 1.387 . S
C368 C369 1.387 . S
C368 H372 0.950 . S
C368 C377 1.390 . S
C369 C368 1.387 . S
C369 C371 1.387 . S
H370 C377 0.950 . S
C371 C369 1.387 . S
C371 C373 1.390 . S
C371 H375 0.950 . S
H372 C368 0.950 . S
C373 C371 1.390 . S
C373 C374 1.387 . S
C373 H376 0.950 . S
C374 C373 1.387 . S
C374 C377 1.387 . S
H375 C371 0.950 . S
H376 C373 0.950 . S
C377 C368 1.390 . S
C377 H370 0.950 . S
C377 C374 1.387 . S
C378 C379 1.387 . S
C378 H382 0.950 . S
C378 C387 1.390 . S
C379 C378 1.387 . S
C379 C381 1.387 . S
H380 C387 0.950 . S
C381 C379 1.387 . S
C381 C383 1.390 . S
C381 H385 0.950 . S
H382 C378 0.950 . S
C383 C381 1.390 . S
C383 C384 1.387 . S
C383 H386 0.950 . S
C384 C383 1.387 . S
C384 C387 1.387 . S
H385 C381 0.950 . S
H386 C383 0.950 . S
C387 C378 1.390 . S
C387 H380 0.950 . S
C387 C384 1.387 . S
C388 C389 1.387 . S
C388 H392 0.950 . S
C388 C397 1.390 . S
C389 C388 1.387 . S
C389 C391 1.387 . S
H390 C397 0.950 . S
C391 C389 1.387 . S
C391 C393 1.390 . S
C391 H395 0.950 . S
H392 C388 0.950 . S
C393 C391 1.390 . S
C393 C394 1.387 . S
C393 H396 0.950 . S
C394 C393 1.387 . S
C394 C397 1.387 . S
H395 C391 0.950 . S
H396 C393 0.950 . S
C397 C388 1.390 . S
C397 H390 0.950 . S
C397 C394 1.387 . S
C398 C399 1.387 . S
C398 H402 0.950 . S
C398 C407 1.390 . S
C399 C398 1.387 . S
C399 C401 1.387 . S
H400 C407 0.950 . S
C401 C399 1.387 . S
C401 C403 1.390 . S
C401 H405 0.950 . S
H402 C398 0.950 . S
C403 C401 1.390 . S
C403 C404 1.387 . S
C403 H406 0.950 . S
C404 C403 1.387 . S
C404 C407 1.387 . S
H405 C401 0.950 . S
H406 C403 0.950 . S
C407 C398 1.390 . S
C407 H400 0.950 . S
C407 C404 1.387 . S
C169 C19 1.420 . S
C174 C103 1.420 . S
C179 C124 1.415 . S
C184 C41 1.415 . S
C189 C61 1.420 . S
C194 C146 1.420 . S
C199 C82 1.415 . S
C204 C167 1.415 . S
C209 C83 1.415 . S
C214 C166 1.414 . S
C219 C125 1.420 . S
C224 C40 1.419 . S
C229 C145 1.420 . S
C234 C62 1.420 . S
C239 C20 1.420 . S
C244 C104 1.420 . S
C249 C109 1.357 . S
C254 C4 1.350 . S
C259 C28 1.357 . S
C264 C133 1.350 . S
C269 C154 1.357 . S
C274 C46 1.351 . S
C279 C88 1.354 . S
C284 C67 1.353 . S
C289 C87 1.245 . S
C294 C79 1.250 . S
C299 C150 1.247 . S
C304 C45 1.252 . S
C309 C24 1.245 . S
C314 C142 1.251 . S
C319 C121 1.245 . S
C324 C3 1.251 . S
C329 C151 1.352 . S
C334 C49 1.358 . S
C339 C91 1.351 . S
C344 C70 1.357 . S
C349 C112 1.356 . S
C354 C7 1.353 . S
C359 C25 1.357 . S
C364 C130 1.352 . S
C369 C129 1.246 . S
C374 C37 1.250 . S
C379 C16 1.250 . S
C384 C108 1.245 . S
C389 C100 1.247 . S
C394 C66 1.251 . S
C399 C163 1.245 . S
C404 C58 1.248 . S
