# Generated by pormake.
# Topology unr, (4)-cn, num edge types: 1
# Building blocks:
#     Node 0, Type 0, BuildingBlock: QUQFOY_clean_sbu_1, # of connection points: 4
#     Node 1, Type 0, BuildingBlock: QUQFOY_clean_sbu_1, # of connection points: 4
#     Node 2, Type 0, BuildingBlock: QUQFOY_clean_sbu_1, # of connection points: 4
#     Node 3, Type 0, BuildingBlock: QUQFOY_clean_sbu_1, # of connection points: 4
#     Node 4, Type 0, BuildingBlock: QUQFOY_clean_sbu_1, # of connection points: 4
#     Node 5, Type 0, BuildingBlock: QUQFOY_clean_sbu_1, # of connection points: 4
#     Node 6, Type 0, BuildingBlock: QUQFOY_clean_sbu_1, # of connection points: 4
#     Node 7, Type 0, BuildingBlock: QUQFOY_clean_sbu_1, # of connection points: 4
#     Node 8, Type 0, BuildingBlock: QUQFOY_clean_sbu_1, # of connection points: 4
#     Node 9, Type 0, BuildingBlock: QUQFOY_clean_sbu_1, # of connection points: 4
#     Node 10, Type 0, BuildingBlock: QUQFOY_clean_sbu_1, # of connection points: 4
#     Node 11, Type 0, BuildingBlock: QUQFOY_clean_sbu_1, # of connection points: 4
#     Node 12, Type 0, BuildingBlock: QUQFOY_clean_sbu_1, # of connection points: 4
#     Node 13, Type 0, BuildingBlock: QUQFOY_clean_sbu_1, # of connection points: 4
#     Node 14, Type 0, BuildingBlock: QUQFOY_clean_sbu_1, # of connection points: 4
#     Node 15, Type 0, BuildingBlock: QUQFOY_clean_sbu_1, # of connection points: 4
#     Node 16, Type 0, BuildingBlock: QUQFOY_clean_sbu_1, # of connection points: 4
#     Node 17, Type 0, BuildingBlock: QUQFOY_clean_sbu_1, # of connection points: 4
#     Node 18, Type 0, BuildingBlock: QUQFOY_clean_sbu_1, # of connection points: 4
#     Node 19, Type 0, BuildingBlock: QUQFOY_clean_sbu_1, # of connection points: 4
#     Node 20, Type 0, BuildingBlock: QUQFOY_clean_sbu_1, # of connection points: 4
#     Node 21, Type 0, BuildingBlock: QUQFOY_clean_sbu_1, # of connection points: 4
#     Node 22, Type 0, BuildingBlock: QUQFOY_clean_sbu_1, # of connection points: 4
#     Node 23, Type 0, BuildingBlock: QUQFOY_clean_sbu_1, # of connection points: 4
#     Node 24, Type 0, BuildingBlock: QUQFOY_clean_sbu_1, # of connection points: 4
#     Node 25, Type 0, BuildingBlock: QUQFOY_clean_sbu_1, # of connection points: 4
#     Node 26, Type 0, BuildingBlock: QUQFOY_clean_sbu_1, # of connection points: 4
#     Node 27, Type 0, BuildingBlock: QUQFOY_clean_sbu_1, # of connection points: 4
#     Node 28, Type 0, BuildingBlock: QUQFOY_clean_sbu_1, # of connection points: 4
#     Node 29, Type 0, BuildingBlock: QUQFOY_clean_sbu_1, # of connection points: 4
#     Node 30, Type 0, BuildingBlock: QUQFOY_clean_sbu_1, # of connection points: 4
#     Node 31, Type 0, BuildingBlock: QUQFOY_clean_sbu_1, # of connection points: 4
#     Node 32, Type 0, BuildingBlock: QUQFOY_clean_sbu_1, # of connection points: 4
#     Node 33, Type 0, BuildingBlock: QUQFOY_clean_sbu_1, # of connection points: 4
#     Node 34, Type 0, BuildingBlock: QUQFOY_clean_sbu_1, # of connection points: 4
#     Node 35, Type 0, BuildingBlock: QUQFOY_clean_sbu_1, # of connection points: 4
#     Edge 36, Type (0, 0), BuildingBlock: UVAHIK_clean_linker_0, # of connection points: 2
#     Edge 37, Type (0, 0), BuildingBlock: UVAHIK_clean_linker_0, # of connection points: 2
#     Edge 38, Type (0, 0), BuildingBlock: UVAHIK_clean_linker_0, # of connection points: 2
#     Edge 39, Type (0, 0), BuildingBlock: UVAHIK_clean_linker_0, # of connection points: 2
#     Edge 40, Type (0, 0), BuildingBlock: UVAHIK_clean_linker_0, # of connection points: 2
#     Edge 41, Type (0, 0), BuildingBlock: UVAHIK_clean_linker_0, # of connection points: 2
#     Edge 42, Type (0, 0), BuildingBlock: UVAHIK_clean_linker_0, # of connection points: 2
#     Edge 43, Type (0, 0), BuildingBlock: UVAHIK_clean_linker_0, # of connection points: 2
#     Edge 44, Type (0, 0), BuildingBlock: UVAHIK_clean_linker_0, # of connection points: 2
#     Edge 45, Type (0, 0), BuildingBlock: UVAHIK_clean_linker_0, # of connection points: 2
#     Edge 46, Type (0, 0), BuildingBlock: UVAHIK_clean_linker_0, # of connection points: 2
#     Edge 47, Type (0, 0), BuildingBlock: UVAHIK_clean_linker_0, # of connection points: 2
#     Edge 48, Type (0, 0), BuildingBlock: UVAHIK_clean_linker_0, # of connection points: 2
#     Edge 49, Type (0, 0), BuildingBlock: UVAHIK_clean_linker_0, # of connection points: 2
#     Edge 50, Type (0, 0), BuildingBlock: UVAHIK_clean_linker_0, # of connection points: 2
#     Edge 51, Type (0, 0), BuildingBlock: UVAHIK_clean_linker_0, # of connection points: 2
#     Edge 52, Type (0, 0), BuildingBlock: UVAHIK_clean_linker_0, # of connection points: 2
#     Edge 53, Type (0, 0), BuildingBlock: UVAHIK_clean_linker_0, # of connection points: 2
#     Edge 54, Type (0, 0), BuildingBlock: UVAHIK_clean_linker_0, # of connection points: 2
#     Edge 55, Type (0, 0), BuildingBlock: UVAHIK_clean_linker_0, # of connection points: 2
#     Edge 56, Type (0, 0), BuildingBlock: UVAHIK_clean_linker_0, # of connection points: 2
#     Edge 57, Type (0, 0), BuildingBlock: UVAHIK_clean_linker_0, # of connection points: 2
#     Edge 58, Type (0, 0), BuildingBlock: UVAHIK_clean_linker_0, # of connection points: 2
#     Edge 59, Type (0, 0), BuildingBlock: UVAHIK_clean_linker_0, # of connection points: 2
#     Edge 60, Type (0, 0), BuildingBlock: UVAHIK_clean_linker_0, # of connection points: 2
#     Edge 61, Type (0, 0), BuildingBlock: UVAHIK_clean_linker_0, # of connection points: 2
#     Edge 62, Type (0, 0), BuildingBlock: UVAHIK_clean_linker_0, # of connection points: 2
#     Edge 63, Type (0, 0), BuildingBlock: UVAHIK_clean_linker_0, # of connection points: 2
#     Edge 64, Type (0, 0), BuildingBlock: UVAHIK_clean_linker_0, # of connection points: 2
#     Edge 65, Type (0, 0), BuildingBlock: UVAHIK_clean_linker_0, # of connection points: 2
#     Edge 66, Type (0, 0), BuildingBlock: UVAHIK_clean_linker_0, # of connection points: 2
#     Edge 67, Type (0, 0), BuildingBlock: UVAHIK_clean_linker_0, # of connection points: 2
#     Edge 68, Type (0, 0), BuildingBlock: UVAHIK_clean_linker_0, # of connection points: 2
#     Edge 69, Type (0, 0), BuildingBlock: UVAHIK_clean_linker_0, # of connection points: 2
#     Edge 70, Type (0, 0), BuildingBlock: UVAHIK_clean_linker_0, # of connection points: 2
#     Edge 71, Type (0, 0), BuildingBlock: UVAHIK_clean_linker_0, # of connection points: 2
#     Edge 72, Type (0, 0), BuildingBlock: UVAHIK_clean_linker_0, # of connection points: 2
#     Edge 73, Type (0, 0), BuildingBlock: UVAHIK_clean_linker_0, # of connection points: 2
#     Edge 74, Type (0, 0), BuildingBlock: UVAHIK_clean_linker_0, # of connection points: 2
#     Edge 75, Type (0, 0), BuildingBlock: UVAHIK_clean_linker_0, # of connection points: 2
#     Edge 76, Type (0, 0), BuildingBlock: UVAHIK_clean_linker_0, # of connection points: 2
#     Edge 77, Type (0, 0), BuildingBlock: UVAHIK_clean_linker_0, # of connection points: 2
#     Edge 78, Type (0, 0), BuildingBlock: UVAHIK_clean_linker_0, # of connection points: 2
#     Edge 79, Type (0, 0), BuildingBlock: UVAHIK_clean_linker_0, # of connection points: 2
#     Edge 80, Type (0, 0), BuildingBlock: UVAHIK_clean_linker_0, # of connection points: 2
#     Edge 81, Type (0, 0), BuildingBlock: UVAHIK_clean_linker_0, # of connection points: 2
#     Edge 82, Type (0, 0), BuildingBlock: UVAHIK_clean_linker_0, # of connection points: 2
#     Edge 83, Type (0, 0), BuildingBlock: UVAHIK_clean_linker_0, # of connection points: 2
#     Edge 84, Type (0, 0), BuildingBlock: UVAHIK_clean_linker_0, # of connection points: 2
#     Edge 85, Type (0, 0), BuildingBlock: UVAHIK_clean_linker_0, # of connection points: 2
#     Edge 86, Type (0, 0), BuildingBlock: UVAHIK_clean_linker_0, # of connection points: 2
#     Edge 87, Type (0, 0), BuildingBlock: UVAHIK_clean_linker_0, # of connection points: 2
#     Edge 88, Type (0, 0), BuildingBlock: UVAHIK_clean_linker_0, # of connection points: 2
#     Edge 89, Type (0, 0), BuildingBlock: UVAHIK_clean_linker_0, # of connection points: 2
#     Edge 90, Type (0, 0), BuildingBlock: UVAHIK_clean_linker_0, # of connection points: 2
#     Edge 91, Type (0, 0), BuildingBlock: UVAHIK_clean_linker_0, # of connection points: 2
#     Edge 92, Type (0, 0), BuildingBlock: UVAHIK_clean_linker_0, # of connection points: 2
#     Edge 93, Type (0, 0), BuildingBlock: UVAHIK_clean_linker_0, # of connection points: 2
#     Edge 94, Type (0, 0), BuildingBlock: UVAHIK_clean_linker_0, # of connection points: 2
#     Edge 95, Type (0, 0), BuildingBlock: UVAHIK_clean_linker_0, # of connection points: 2
#     Edge 96, Type (0, 0), BuildingBlock: UVAHIK_clean_linker_0, # of connection points: 2
#     Edge 97, Type (0, 0), BuildingBlock: UVAHIK_clean_linker_0, # of connection points: 2
#     Edge 98, Type (0, 0), BuildingBlock: UVAHIK_clean_linker_0, # of connection points: 2
#     Edge 99, Type (0, 0), BuildingBlock: UVAHIK_clean_linker_0, # of connection points: 2
#     Edge 100, Type (0, 0), BuildingBlock: UVAHIK_clean_linker_0, # of connection points: 2
#     Edge 101, Type (0, 0), BuildingBlock: UVAHIK_clean_linker_0, # of connection points: 2
#     Edge 102, Type (0, 0), BuildingBlock: UVAHIK_clean_linker_0, # of connection points: 2
#     Edge 103, Type (0, 0), BuildingBlock: UVAHIK_clean_linker_0, # of connection points: 2
#     Edge 104, Type (0, 0), BuildingBlock: UVAHIK_clean_linker_0, # of connection points: 2
#     Edge 105, Type (0, 0), BuildingBlock: UVAHIK_clean_linker_0, # of connection points: 2
#     Edge 106, Type (0, 0), BuildingBlock: UVAHIK_clean_linker_0, # of connection points: 2
#     Edge 107, Type (0, 0), BuildingBlock: UVAHIK_clean_linker_0, # of connection points: 2
# Relax obj value: 0.309
# Max RMSD: 0.102
# Mean RMSD: 0.102
data_MOF--net-unr--node1-QUQFOY_clean_sbu_1--edge1-UVAHIK_clean_linker_0
_symmetry_space_group_name_H-M    P1
_symmetry_Int_Tables_number       1
_symmetry_cell_setting            triclinic
loop_
_symmetry_equiv_pos_as_xyz
'x, y, z'
_cell_length_a     62.795237
_cell_length_b     62.775425
_cell_length_c     169.71289
_cell_angle_alpha  90.014841
_cell_angle_beta   90.00874
_cell_angle_gamma 119.99003
loop_
_atom_site_label
_atom_site_type_symbol
_atom_site_fract_x
_atom_site_fract_y
_atom_site_fract_z
_atom_type_partial_charge
O0 O 0.15641 0.11431 0.17631 0.0
Cd1 Cd 0.17527 0.15184 0.17579 0.0
Cd2 Cd 0.17018 0.14965 0.19225 0.0
O3 O 0.16252 0.11443 0.18911 0.0
O4 O 0.20032 0.16185 0.16742 0.0
O5 O 0.20909 0.16725 0.18021 0.0
C6 C 0.21636 0.16825 0.17301 0.0
C7 C 0.1783 0.15825 0.20576 0.0
C8 C 0.15576 0.10299 0.18258 0.0
C9 C 0.14559 0.17182 0.18163 0.0
O10 O 0.14932 0.16462 0.18822 0.0
O11 O 0.15531 0.16945 0.17538 0.0
O12 O 0.1569 0.14262 0.20314 0.0
O13 O 0.19585 0.16887 0.20069 0.0
O14 O 0.89186 0.06952 0.18773 0.0
Cd15 Cd 0.85495 0.04499 0.18862 0.0
Cd16 Cd 0.86348 0.05302 0.20368 0.0
O17 O 0.89453 0.08435 0.19966 0.0
O18 O 0.83988 0.04931 0.17894 0.0
O19 O 0.8346 0.06042 0.19088 0.0
C20 C 0.83168 0.06046 0.18333 0.0
C21 C 0.84196 0.05367 0.21481 0.0
C22 C 0.90391 0.08577 0.1929 0.0
C23 C 0.85221 0.00367 0.19711 0.0
O24 O 0.86219 0.01962 0.20254 0.0
O25 O 0.84473 0.00895 0.19085 0.0
O26 O 0.86402 0.05733 0.2153 0.0
O27 O 0.83251 0.05118 0.20788 0.0
O28 O 0.94203 0.83046 0.18855 0.0
Cd29 Cd 0.96192 0.81406 0.1854 0.0
Cd30 Cd 0.97757 0.82431 0.20106 0.0
O31 O 0.95041 0.83393 0.20126 0.0
O32 O 0.94464 0.79405 0.17602 0.0
O33 O 0.94644 0.77792 0.18744 0.0
C34 C 0.93799 0.77482 0.18033 0.0
C35 C 0.98576 0.81189 0.21319 0.0
C36 C 0.93895 0.83625 0.19545 0.0
C37 C 0.01444 0.84952 0.18752 0.0
O38 O 0.0093 0.84659 0.19482 0.0
O39 O -0.00196 0.83721 0.18241 0.0
O40 O 0.9917 0.83429 0.21181 0.0
O41 O 0.97443 0.79589 0.20772 0.0
O42 O 0.11216 0.16679 0.31542 0.0
Cd43 Cd 0.1488 0.18363 0.31809 0.0
Cd44 Cd 0.15225 0.17454 0.30166 0.0
O45 O 0.11584 0.16598 0.3025 0.0
O46 O 0.15235 0.20304 0.3277 0.0
O47 O 0.16823 0.21987 0.31612 0.0
C48 C 0.1637 0.22249 0.32339 0.0
C49 C 0.16775 0.18176 0.28874 0.0
C50 C 0.10268 0.16251 0.30859 0.0
C51 C 0.16701 0.14978 0.31478 0.0
O52 O 0.1635 0.1532 0.30763 0.0
O53 O 0.16313 0.16113 0.32027 0.0
O54 O 0.15155 0.16032 0.29115 0.0
O55 O 0.17499 0.19989 0.29359 0.0
O56 O 0.82452 0.93537 0.31374 0.0
Cd57 Cd 0.81045 0.95858 0.31335 0.0
Cd58 Cd 0.81287 0.95428 0.29806 0.0
O59 O 0.81456 0.92338 0.30145 0.0
O60 O 0.78882 0.95079 0.32266 0.0
O61 O 0.77519 0.94233 0.31033 0.0
C62 C 0.77056 0.94017 0.31781 0.0
C63 C 0.79209 0.95402 0.28661 0.0
C64 C 0.822 0.92081 0.30816 0.0
C65 C 0.84827 0.00282 0.30588 0.0
O66 O 0.84333 0.98846 0.30002 0.0
O67 O 0.83521 0.99539 0.31208 0.0
O68 O 0.81162 0.95224 0.28636 0.0
O69 O 0.78331 0.95455 0.29344 0.0
O70 O 0.04969 0.88567 0.32134 0.0
Cd71 Cd 0.02928 0.84815 0.32185 0.0
Cd72 Cd 0.02737 0.85112 0.30581 0.0
O73 O 0.05564 0.8864 0.30851 0.0
O74 O 0.04272 0.83728 0.33051 0.0
O75 O 0.04631 0.83081 0.31782 0.0
C76 C 0.05192 0.82976 0.3251 0.0
C77 C 0.02666 0.83675 0.293 0.0
C78 C 0.0605 0.89738 0.31513 0.0
C79 C 0.9804 0.83218 0.31597 0.0
O80 O 0.99176 0.83947 0.30946 0.0
O81 O 0.99181 0.8326 0.32219 0.0
O82 O 0.02226 0.85429 0.29442 0.0
O83 O 0.03291 0.82792 0.29885 0.0
O84 O 0.82224 0.88897 0.81577 0.0
Cd85 Cd 0.80808 0.85168 0.81527 0.0
Cd86 Cd 0.80904 0.85843 0.79986 0.0
O87 O 0.81138 0.89107 0.80358 0.0
O88 O 0.78498 0.83678 0.82423 0.0
O89 O 0.77343 0.83333 0.81169 0.0
C90 C 0.76756 0.82992 0.81908 0.0
C91 C 0.7874 0.83863 0.78843 0.0
C92 C 0.81929 0.90101 0.81029 0.0
C93 C 0.8446 0.84442 0.80718 0.0
O94 O 0.83911 0.85379 0.80144 0.0
O95 O 0.8325 0.83935 0.81357 0.0
O96 O 0.80716 0.85978 0.78818 0.0
O97 O 0.77892 0.82916 0.79526 0.0
O98 O 0.10659 0.93643 0.81244 0.0
Cd99 Cd 0.14339 0.95705 0.81481 0.0
Cd100 Cd 0.14497 0.96813 0.79865 0.0
O101 O 0.10926 0.93884 0.79948 0.0
O102 O 0.14771 0.94223 0.82453 0.0
O103 O 0.16323 0.94059 0.81296 0.0
C104 C 0.15907 0.93401 0.82028 0.0
C105 C 0.16268 0.97664 0.78601 0.0
C106 C 0.09661 0.92986 0.80571 0.0
C107 C 0.15836 0.00821 0.81137 0.0
O108 O 0.15366 0.00066 0.80429 0.0
O109 O 0.15694 0.99382 0.81686 0.0
O110 O 0.14438 0.9795 0.78777 0.0
O111 O 0.17057 0.96768 0.79136 0.0
O112 O 0.04534 0.16007 0.82199 0.0
Cd113 Cd 0.02615 0.17838 0.82274 0.0
Cd114 Cd 0.02167 0.17199 0.80626 0.0
O115 O 0.04934 0.16425 0.80909 0.0
O116 O 0.04074 0.20232 0.83146 0.0
O117 O 0.04403 0.2129 0.81883 0.0
C118 C 0.05011 0.2192 0.82611 0.0
C119 C 0.02039 0.17998 0.79277 0.0
C120 C 0.05495 0.15838 0.81562 0.0
C121 C 0.97603 0.14716 0.8173 0.0
O122 O 0.98629 0.15068 0.8106 0.0
O123 O 0.98864 0.15762 0.8234 0.0
O124 O 0.0147 0.15859 0.79538 0.0
O125 O 0.02752 0.19756 0.79784 0.0
O126 O 0.89189 0.81956 0.69073 0.0
Cd127 Cd 0.85476 0.80639 0.69031 0.0
Cd128 Cd 0.85906 0.80898 0.70573 0.0
O129 O 0.892 0.81033 0.70322 0.0
O130 O 0.84361 0.78767 0.68033 0.0
O131 O 0.83395 0.77033 0.69217 0.0
C132 C 0.83385 0.76798 0.68459 0.0
C133 C 0.83654 0.78824 0.71691 0.0
C134 C 0.903 0.8173 0.69664 0.0
C135 C 0.8486 0.84526 0.69726 0.0
O136 O 0.85671 0.84004 0.70339 0.0
O137 O 0.84357 0.83199 0.69113 0.0
O138 O 0.8579 0.80763 0.71743 0.0
O139 O 0.82821 0.77966 0.70997 0.0
O140 O 0.16447 0.04941 0.67906 0.0
Cd141 Cd 0.18129 0.02872 0.6798 0.0
Cd142 Cd 0.18027 0.03466 0.69549 0.0
O143 O 0.17541 0.06297 0.69119 0.0
O144 O 0.20595 0.03902 0.67124 0.0
O145 O 0.21534 0.04735 0.68392 0.0
C146 C 0.22233 0.05049 0.67664 0.0
C147 C 0.19878 0.04056 0.70788 0.0
C148 C 0.16693 0.06431 0.68451 0.0
C149 C 0.14856 0.98368 0.68806 0.0
O150 O 0.15345 0.99826 0.69386 0.0
O151 O 0.15938 0.99161 0.6815 0.0
O152 O 0.17748 0.03845 0.707 0.0
O153 O 0.21035 0.0402 0.70164 0.0
O154 O 0.94773 0.10966 0.68389 0.0
Cd155 Cd 0.96665 0.14614 0.68097 0.0
Cd156 Cd 0.98236 0.15169 0.69693 0.0
O157 O 0.95585 0.11463 0.69663 0.0
O158 O 0.94858 0.14958 0.67196 0.0
O159 O 0.95084 0.16598 0.68374 0.0
C160 C 0.94196 0.16139 0.67666 0.0
C161 C 0.99102 0.16864 0.70968 0.0
C162 C 0.94474 0.10079 0.69078 0.0
C163 C 0.01957 0.16632 0.68316 0.0
O164 O 0.0143 0.16396 0.69046 0.0
O165 O 0.00295 0.16067 0.67801 0.0
O166 O 0.9976 0.15334 0.70735 0.0
O167 O 0.9788 0.17427 0.70483 0.0
O168 O 0.83717 0.44038 0.5192 0.0
Cd169 Cd 0.8523 0.47781 0.51937 0.0
Cd170 Cd 0.84901 0.47214 0.5348 0.0
O171 O 0.84583 0.43867 0.53166 0.0
O172 O 0.87477 0.49086 0.51023 0.0
O173 O 0.88733 0.49611 0.52269 0.0
C174 C 0.89258 0.4983 0.51525 0.0
C175 C 0.86932 0.49181 0.54642 0.0
C176 C 0.83873 0.42838 0.52497 0.0
C177 C 0.81573 0.48715 0.52641 0.0
O178 O 0.81999 0.47799 0.53248 0.0
O179 O 0.82857 0.49121 0.52022 0.0
O180 O 0.84903 0.47112 0.54651 0.0
O181 O 0.87903 0.50094 0.53966 0.0
O182 O 0.55458 0.39526 0.51924 0.0
Cd183 Cd 0.51732 0.37413 0.51788 0.0
Cd184 Cd 0.5179 0.36902 0.5341 0.0
O185 O 0.55277 0.39871 0.5321 0.0
O186 O 0.5098 0.38619 0.5081 0.0
O187 O 0.49817 0.39108 0.51999 0.0
C188 C 0.49998 0.39571 0.51252 0.0
C189 C 0.50344 0.36698 0.547 0.0
C190 C 0.56497 0.405 0.52572 0.0
C191 C 0.50334 0.32461 0.5232 0.0
O192 O 0.50949 0.33468 0.52996 0.0
O193 O 0.50321 0.33683 0.51726 0.0
O194 O 0.52208 0.36447 0.54546 0.0
O195 O 0.49271 0.37102 0.54118 0.0
O196 O 0.61032 0.16697 0.51406 0.0
Cd197 Cd 0.63013 0.14928 0.51327 0.0
Cd198 Cd 0.63366 0.15421 0.52964 0.0
O199 O 0.60612 0.16221 0.52694 0.0
O200 O 0.61632 0.12572 0.50442 0.0
O201 O 0.61263 0.11457 0.517 0.0
C202 C 0.60697 0.10856 0.50969 0.0
C203 C 0.63335 0.14342 0.54293 0.0
C204 C 0.60057 0.16834 0.52045 0.0
C205 C 0.67991 0.18092 0.51905 0.0
O206 O 0.66929 0.17673 0.52571 0.0
O207 O 0.66767 0.17066 0.51287 0.0
O208 O 0.63898 0.16522 0.54079 0.0
O209 O 0.6274 0.12706 0.53748 0.0
O210 O 0.76679 0.50689 0.64486 0.0
Cd211 Cd 0.80382 0.51964 0.6442 0.0
Cd212 Cd 0.79589 0.51855 0.62913 0.0
O213 O 0.76447 0.51863 0.63284 0.0
O214 O 0.81813 0.53897 0.65394 0.0
O215 O 0.82412 0.55548 0.642 0.0
C216 C 0.82652 0.55836 0.64956 0.0
C217 C 0.81812 0.5406 0.61809 0.0
C218 C 0.7548 0.5107 0.63957 0.0
C219 C 0.80685 0.48072 0.63605 0.0
O220 O 0.79699 0.48642 0.63051 0.0
O221 O 0.81432 0.49388 0.64223 0.0
O222 O 0.79612 0.52219 0.61748 0.0
O223 O 0.82713 0.54763 0.62507 0.0
O224 O 0.49552 0.2776 0.6553 0.0
Cd225 Cd 0.47873 0.2983 0.65463 0.0
Cd226 Cd 0.4881 0.29996 0.63881 0.0
O227 O 0.49665 0.27347 0.64242 0.0
O228 O 0.45267 0.28561 0.66273 0.0
O229 O 0.44534 0.2807 0.64985 0.0
C230 C 0.43718 0.27569 0.65701 0.0
C231 C 0.47592 0.29882 0.62567 0.0
C232 C 0.49984 0.26801 0.64937 0.0
C233 C 0.51229 0.34745 0.64871 0.0
O234 O 0.50996 0.33605 0.64229 0.0
O235 O 0.50047 0.33595 0.65481 0.0
O236 O 0.49771 0.30361 0.62754 0.0
O237 O 0.46016 0.29317 0.6313 0.0
O238 O 0.71744 0.21803 0.64837 0.0
Cd239 Cd 0.69875 0.18229 0.65208 0.0
Cd240 Cd 0.67847 0.17412 0.63686 0.0
O241 O 0.704 0.21142 0.6361 0.0
O242 O 0.71841 0.18101 0.661 0.0
O243 O 0.71372 0.16135 0.64971 0.0
C244 C 0.72388 0.1677 0.65659 0.0
C245 C 0.66831 0.15327 0.62476 0.0
C246 C 0.71752 0.22601 0.64149 0.0
C247 C 0.64535 0.16293 0.65144 0.0
O248 O 0.64809 0.16319 0.64402 0.0
O249 O 0.66357 0.16963 0.65602 0.0
O250 O 0.66094 0.16833 0.62665 0.0
O251 O 0.68206 0.15004 0.62969 0.0
O252 O 0.4917 0.21991 0.15147 0.0
Cd253 Cd 0.4757 0.18239 0.15127 0.0
Cd254 Cd 0.47625 0.18764 0.13565 0.0
O255 O 0.4812 0.22153 0.13919 0.0
O256 O 0.45161 0.16863 0.16004 0.0
O257 O 0.44138 0.16543 0.14737 0.0
C258 C 0.4348 0.16235 0.1547 0.0
C259 C 0.45449 0.16949 0.12406 0.0
C260 C 0.48956 0.23193 0.14581 0.0
C261 C 0.50952 0.17089 0.14327 0.0
O262 O 0.50428 0.17986 0.13736 0.0
O263 O 0.49846 0.16801 0.14979 0.0
O264 O 0.47533 0.18961 0.12396 0.0
O265 O 0.44513 0.16008 0.13083 0.0
O266 O 0.76808 0.2597 0.14211 0.0
Cd267 Cd 0.80551 0.28224 0.1426 0.0
Cd268 Cd 0.80108 0.28277 0.12727 0.0
O269 O 0.76751 0.25164 0.12948 0.0
O270 O 0.81551 0.27329 0.15256 0.0
O271 O 0.82512 0.26565 0.14071 0.0
C272 C 0.82484 0.26299 0.14828 0.0
C273 C 0.82379 0.28476 0.11612 0.0
C274 C 0.75658 0.24729 0.13609 0.0
C275 C 0.81355 0.32888 0.13639 0.0
O276 O 0.80458 0.31636 0.13014 0.0
O277 O 0.81849 0.31947 0.14223 0.0
O278 O 0.80289 0.28383 0.11558 0.0
O279 O 0.83154 0.28344 0.12305 0.0
O280 O 0.71897 0.49784 0.14926 0.0
Cd281 Cd 0.69886 0.51476 0.15134 0.0
Cd282 Cd 0.68874 0.50668 0.13538 0.0
O283 O 0.71532 0.49635 0.13631 0.0
O284 O 0.71423 0.53584 0.16068 0.0
O285 O 0.71524 0.55054 0.14871 0.0
C286 C 0.72219 0.55449 0.156 0.0
C287 C 0.68487 0.52106 0.12301 0.0
C288 C 0.72443 0.49293 0.14256 0.0
C289 C 0.64709 0.48125 0.14756 0.0
O290 O 0.65479 0.48467 0.14049 0.0
O291 O 0.66178 0.49243 0.15319 0.0
O292 O 0.67848 0.49844 0.12421 0.0
O293 O 0.69446 0.5362 0.12882 0.0
O294 O 0.55954 0.15853 0.02595 0.0
Cd295 Cd 0.5225 0.14564 0.02516 0.0
Cd296 Cd 0.52511 0.14857 0.04064 0.0
O297 O 0.55879 0.15099 0.03863 0.0
O298 O 0.51159 0.12602 0.01534 0.0
O299 O 0.50085 0.10987 0.02731 0.0
C300 C 0.50099 0.10676 0.01978 0.0
C301 C 0.5021 0.1273 0.05168 0.0
C302 C 0.5703 0.15729 0.03212 0.0
C303 C 0.51527 0.18453 0.03166 0.0
O304 O 0.52215 0.17914 0.03803 0.0
O305 O 0.51164 0.17155 0.02552 0.0
O306 O 0.523 0.1472 0.05232 0.0
O307 O 0.49441 0.11866 0.04471 0.0
O308 O 0.83672 0.3941 0.01755 0.0
Cd309 Cd 0.85236 0.37229 0.01799 0.0
Cd310 Cd 0.85236 0.37857 0.03334 0.0
O311 O 0.84883 0.40816 0.02956 0.0
O312 O 0.87382 0.38026 0.00862 0.0
O313 O 0.88773 0.39027 0.02089 0.0
C314 C 0.89213 0.39197 0.01339 0.0
C315 C 0.87494 0.38177 0.04466 0.0
C316 C 0.83996 0.40942 0.02295 0.0
C317 C 0.81783 0.3282 0.02635 0.0
O318 O 0.82304 0.3432 0.03204 0.0
O319 O 0.82941 0.33539 0.01987 0.0
O320 O 0.85483 0.38248 0.04499 0.0
O321 O 0.88325 0.38073 0.0378 0.0
O322 O 0.61771 0.44879 0.01753 0.0
Cd323 Cd 0.63644 0.4855 0.0149 0.0
Cd324 Cd 0.64787 0.49114 0.03083 0.0
O325 O 0.62148 0.45404 0.03041 0.0
O326 O 0.61901 0.49044 0.00599 0.0
O327 O 0.61997 0.50425 0.01812 0.0
C328 C 0.61162 0.50091 0.01098 0.0
C329 C 0.65296 0.50984 0.0432 0.0
C330 C 0.61252 0.44001 0.02445 0.0
C331 C 0.68863 0.50623 0.0183 0.0
O332 O 0.68145 0.5031 0.02542 0.0
O333 O 0.6734 0.50113 0.01271 0.0
O334 O 0.65962 0.49391 0.04185 0.0
O335 O 0.64249 0.51494 0.03755 0.0
O336 O 0.49084 0.7767 0.84382 0.0
Cd337 Cd 0.50877 0.81427 0.84402 0.0
Cd338 Cd 0.5044 0.80919 0.86019 0.0
O339 O 0.49828 0.775 0.85643 0.0
O340 O 0.53353 0.82633 0.8355 0.0
O341 O 0.5428 0.82968 0.84826 0.0
C342 C 0.54983 0.83206 0.84098 0.0
C343 C 0.51602 0.81817 0.87347 0.0
C344 C 0.49125 0.76459 0.84974 0.0
C345 C 0.47724 0.8308 0.85078 0.0
O346 O 0.48109 0.82229 0.85708 0.0
O347 O 0.48786 0.83089 0.84442 0.0
O348 O 0.49442 0.80128 0.8714 0.0
O349 O 0.53174 0.82988 0.86796 0.0
O350 O 0.22163 0.73138 0.85397 0.0
Cd351 Cd 0.18468 0.70655 0.85432 0.0
Cd352 Cd 0.19124 0.71183 0.86959 0.0
O353 O 0.22298 0.74356 0.8662 0.0
O354 O 0.17027 0.71276 0.84483 0.0
O355 O 0.16383 0.72106 0.85704 0.0
C356 C 0.16147 0.72269 0.84952 0.0
C357 C 0.16956 0.71127 0.88084 0.0
C358 C 0.23313 0.74638 0.8595 0.0
C359 C 0.18092 0.66373 0.86209 0.0
O360 O 0.18973 0.67851 0.86787 0.0
O361 O 0.17459 0.67025 0.85584 0.0
O362 O 0.19139 0.71432 0.88127 0.0
O363 O 0.16036 0.70991 0.87393 0.0
O364 O 0.27928 0.49675 0.85235 0.0
Cd365 Cd 0.29826 0.47914 0.84956 0.0
Cd366 Cd 0.31483 0.49144 0.86541 0.0
O367 O 0.28781 0.50127 0.86506 0.0
O368 O 0.28 0.45735 0.84061 0.0
O369 O 0.28227 0.44354 0.85243 0.0
C370 C 0.27326 0.43907 0.84537 0.0
C371 C 0.32484 0.48459 0.87814 0.0
C372 C 0.2764 0.50324 0.85916 0.0
C373 C 0.35107 0.51315 0.85136 0.0
O374 O 0.34615 0.51115 0.85868 0.0
O375 O 0.33434 0.50099 0.84634 0.0
O376 O 0.33074 0.50615 0.87566 0.0
O377 O 0.31246 0.46623 0.87348 0.0
O378 O 0.4434 0.83596 0.97979 0.0
Cd379 Cd 0.47934 0.85281 0.98334 0.0
Cd380 Cd 0.48567 0.84217 0.96729 0.0
O381 O 0.44874 0.83197 0.96713 0.0
O382 O 0.47966 0.87037 0.99309 0.0
O383 O 0.49912 0.88949 0.98217 0.0
C384 C 0.4924 0.89065 0.98928 0.0
C385 C 0.50491 0.8516 0.95492 0.0
C386 C 0.43478 0.82978 0.97288 0.0
C387 C 0.49821 0.81864 0.98127 0.0
O388 O 0.49633 0.82155 0.97395 0.0
O389 O 0.49299 0.83022 0.98633 0.0
O390 O 0.48904 0.82953 0.9569 0.0
O391 O 0.50975 0.869 0.95988 0.0
O392 O 0.15731 0.59572 0.97928 0.0
Cd393 Cd 0.14385 0.61942 0.97852 0.0
Cd394 Cd 0.1448 0.6124 0.96337 0.0
O395 O 0.14605 0.58167 0.96722 0.0
O396 O 0.12302 0.61353 0.98794 0.0
O397 O 0.10842 0.60325 0.97576 0.0
C398 C 0.10437 0.60238 0.98326 0.0
C399 C 0.12236 0.6111 0.95223 0.0
C400 C 0.15398 0.5801 0.97397 0.0
C401 C 0.18156 0.66192 0.97023 0.0
O402 O 0.17601 0.64643 0.96467 0.0
O403 O 0.16887 0.65584 0.97651 0.0
O404 O 0.14142 0.60853 0.95173 0.0
O405 O 0.11497 0.61291 0.95916 0.0
O406 O 0.38335 0.55439 0.99046 0.0
Cd407 Cd 0.36436 0.51681 0.99054 0.0
Cd408 Cd 0.36309 0.52104 0.97417 0.0
O409 O 0.39049 0.55588 0.9777 0.0
O410 O 0.37835 0.50566 0.99895 0.0
O411 O 0.38282 0.5014 0.98615 0.0
C412 C 0.38832 0.49956 0.99338 0.0
C413 C 0.36415 0.51302 0.96068 0.0
C414 C 0.39457 0.56649 0.98437 0.0
C415 C 0.31537 0.49843 0.98427 0.0
O416 O 0.32693 0.50641 0.97781 0.0
O417 O 0.32678 0.49961 0.99057 0.0
O418 O 0.35853 0.52889 0.96318 0.0
O419 O 0.37002 0.50182 0.96586 0.0
O420 O 0.1624 0.55399 0.48454 0.0
Cd421 Cd 0.14658 0.51651 0.48426 0.0
Cd422 Cd 0.14687 0.52202 0.46876 0.0
O423 O 0.15091 0.55549 0.4724 0.0
O424 O 0.12439 0.50325 0.49347 0.0
O425 O 0.11147 0.49918 0.48107 0.0
C426 C 0.10648 0.49659 0.48853 0.0
C427 C 0.12507 0.50364 0.45721 0.0
C428 C 0.15954 0.56589 0.479 0.0
C429 C 0.18074 0.5058 0.47616 0.0
O430 O 0.17553 0.51507 0.47032 0.0
O431 O 0.16941 0.50231 0.48265 0.0
O432 O 0.14561 0.52407 0.45709 0.0
O433 O 0.116 0.49402 0.46398 0.0
O434 O 0.43916 0.59907 0.47568 0.0
Cd435 Cd 0.47628 0.62304 0.47616 0.0
Cd436 Cd 0.47267 0.62159 0.4607 0.0
O437 O 0.43943 0.59026 0.46315 0.0
O438 O 0.48786 0.61493 0.48594 0.0
O439 O 0.49716 0.60814 0.47392 0.0
C440 C 0.49759 0.60542 0.48147 0.0
C441 C 0.49486 0.62265 0.44951 0.0
C442 C 0.42821 0.58601 0.4697 0.0
C443 C 0.48308 0.66834 0.46921 0.0
O444 O 0.47547 0.65523 0.46302 0.0
O445 O 0.48745 0.65982 0.47541 0.0
O446 O 0.47374 0.62121 0.449 0.0
O447 O 0.5032 0.62242 0.45645 0.0
O448 O 0.38071 0.83039 0.48212 0.0
Cd449 Cd 0.36162 0.84795 0.48484 0.0
Cd450 Cd 0.34955 0.84135 0.46897 0.0
O451 O 0.37625 0.83106 0.46925 0.0
O452 O 0.37877 0.86954 0.49393 0.0
O453 O 0.37798 0.8835 0.48198 0.0
C454 C 0.38618 0.88787 0.48914 0.0
C455 C 0.34406 0.85525 0.4567 0.0
C456 C 0.38564 0.8265 0.4752 0.0
C457 C 0.30938 0.81546 0.48163 0.0
O458 O 0.31624 0.81929 0.47447 0.0
O459 O 0.32478 0.82615 0.48714 0.0
O460 O 0.33763 0.83264 0.45795 0.0
O461 O 0.35448 0.87064 0.4624 0.0
O462 O 0.22354 0.49163 0.35724 0.0
Cd463 Cd 0.18627 0.47735 0.35653 0.0
Cd464 Cd 0.1891 0.48079 0.37211 0.0
O465 O 0.22317 0.48424 0.36993 0.0
O466 O 0.17568 0.45713 0.34683 0.0
O467 O 0.16596 0.44157 0.35891 0.0
C468 C 0.16599 0.4381 0.35139 0.0
C469 C 0.16808 0.46082 0.38361 0.0
C470 C 0.23457 0.4908 0.3634 0.0
C471 C 0.17717 0.5151 0.36292 0.0
O472 O 0.18449 0.51027 0.3693 0.0
O473 O 0.17404 0.50219 0.3568 0.0
O474 O 0.18863 0.48121 0.38381 0.0
O475 O 0.15961 0.45095 0.37681 0.0
O476 O 0.50229 0.72776 0.35024 0.0
Cd477 Cd 0.51793 0.70593 0.35039 0.0
Cd478 Cd 0.51765 0.7108 0.36584 0.0
O479 O 0.51373 0.74044 0.36241 0.0
O480 O 0.53956 0.71469 0.34104 0.0
O481 O 0.55324 0.7236 0.35336 0.0
C482 C 0.55778 0.72594 0.34587 0.0
C483 C 0.54 0.71363 0.37719 0.0
C484 C 0.50511 0.74237 0.35583 0.0
C485 C 0.48332 0.66103 0.35839 0.0
O486 O 0.48857 0.67543 0.36426 0.0
O487 O 0.49486 0.66888 0.35194 0.0
O488 O 0.51962 0.71383 0.37752 0.0
O489 O 0.54861 0.71314 0.37033 0.0
O490 O 0.27985 0.77942 0.35072 0.0
Cd491 Cd 0.29885 0.81638 0.34849 0.0
Cd492 Cd 0.30831 0.82034 0.36448 0.0
O493 O 0.28151 0.78346 0.36365 0.0
O494 O 0.28231 0.82211 0.33948 0.0
O495 O 0.28194 0.83472 0.35169 0.0
C496 C 0.27428 0.83198 0.34448 0.0
C497 C 0.31225 0.83844 0.37689 0.0
C498 C 0.27346 0.77 0.35753 0.0
C499 C 0.3505 0.83633 0.35244 0.0
O500 O 0.34244 0.83224 0.35947 0.0
O501 O 0.33601 0.83225 0.3467 0.0
O502 O 0.31856 0.82218 0.37564 0.0
O503 O 0.30271 0.84415 0.37111 0.0
C504 C 0.11033 0.17211 0.17497 0.0
C505 C 0.12694 0.1795 0.18129 0.0
C506 C 0.08839 0.1726 0.17571 0.0
C507 C 0.04709 0.16563 0.19192 0.0
H508 H 0.00517 0.16494 0.17504 0.0
C509 C 0.94363 0.12289 0.1969 0.0
C510 C 0.92929 0.10553 0.19114 0.0
C511 C 0.96838 0.13986 0.19546 0.0
C512 C 0.01671 0.16518 0.17983 0.0
H513 H 0.13545 0.19623 0.19287 0.0
H514 H 0.09778 0.19817 0.19403 0.0
H515 H 0.04924 0.18254 0.17271 0.0
H516 H 0.9293 0.09339 0.17916 0.0
H517 H 0.97241 0.12252 0.17672 0.0
H518 H 0.01465 0.14733 0.19892 0.0
C519 C 0.10106 0.19101 0.18864 0.0
C520 C 0.04194 0.17525 0.17849 0.0
C521 C 0.12272 0.19009 0.18796 0.0
C522 C 0.93985 0.10639 0.18376 0.0
C523 C 0.96456 0.1233 0.18232 0.0
C524 C 0.022 0.15566 0.19325 0.0
C525 C 0.08293 0.18082 0.18274 0.0
C526 C 0.0573 0.17487 0.18445 0.0
C527 C 0.9793 0.13979 0.18823 0.0
C528 C 0.00636 0.15457 0.18715 0.0
H529 H 0.11313 0.1638 0.16977 0.0
H530 H 0.07488 0.16455 0.17105 0.0
H531 H 0.05815 0.16452 0.19662 0.0
H532 H 0.93599 0.12291 0.20262 0.0
H533 H 0.97917 0.15256 0.2001 0.0
C534 C 0.85593 0.97259 0.20525 0.0
C535 C 0.85149 0.97987 0.19789 0.0
C536 C 0.85911 0.9522 0.20587 0.0
C537 C 0.854 0.8982 0.19509 0.0
H538 H 0.91199 0.91295 0.20731 0.0
C539 C 0.9112 0.85076 0.19013 0.0
C540 C 0.9228 0.84691 0.19662 0.0
C541 C 0.89779 0.86285 0.19107 0.0
C542 C 0.89545 0.90822 0.204 0.0
H543 H 0.84533 0.97054 0.18548 0.0
H544 H 0.85142 0.93518 0.18653 0.0
H545 H 0.89633 0.94127 0.20753 0.0
H546 H 0.92827 0.85156 0.20926 0.0
H547 H 0.90466 0.87249 0.21091 0.0
H548 H 0.85374 0.86545 0.19137 0.0
C549 C 0.85215 0.94506 0.19184 0.0
C550 C 0.88644 0.9245 0.20413 0.0
C551 C 0.84876 0.9654 0.19123 0.0
C552 C 0.91977 0.85444 0.20413 0.0
C553 C 0.90631 0.86651 0.20507 0.0
C554 C 0.86305 0.88187 0.19497 0.0
C555 C 0.85815 0.93874 0.19913 0.0
C556 C 0.86585 0.91991 0.19958 0.0
C557 C 0.89563 0.87132 0.19853 0.0
C558 C 0.88415 0.88694 0.19932 0.0
H559 H 0.85776 0.98314 0.21052 0.0
H560 H 0.86314 0.94746 0.2116 0.0
H561 H 0.83793 0.894 0.1916 0.0
H562 H 0.91307 0.84512 0.18426 0.0
H563 H 0.89005 0.86649 0.18589 0.0
C564 C 0.1349 0.0622 0.17567 0.0
C565 C 0.14733 0.07638 0.18231 0.0
C566 C 0.1262 0.03688 0.17556 0.0
C567 C 0.10811 0.98523 0.18932 0.0
H568 H 0.10331 0.94878 0.17031 0.0
C569 C 0.05757 0.8815 0.1906 0.0
C570 C 0.03829 0.87063 0.18511 0.0
C571 C 0.07701 0.90536 0.18943 0.0
C572 C 0.10465 0.95875 0.17567 0.0
H573 H 0.16143 0.07535 0.19388 0.0
H574 H 0.14681 0.03144 0.19363 0.0
H575 H 0.12543 0.9938 0.17001 0.0
H576 H 0.0257 0.87507 0.17365 0.0
H577 H 0.05946 0.9169 0.17166 0.0
H578 H 0.08693 0.95047 0.19494 0.0
C579 C 0.14315 0.03967 0.18859 0.0
C580 C 0.11718 0.98451 0.1755 0.0
C581 C 0.15159 0.06488 0.18872 0.0
C582 C 0.04027 0.88298 0.178 0.0
C583 C 0.05965 0.90699 0.17686 0.0
C584 C 0.09578 0.95963 0.1895 0.0
C585 C 0.12994 0.02525 0.18207 0.0
C586 C 0.11869 0.99803 0.1823 0.0
C587 C 0.07742 0.91889 0.18278 0.0
C588 C 0.09355 0.94604 0.18266 0.0
H589 H 0.13135 0.07053 0.17062 0.0
H590 H 0.11583 0.02634 0.17049 0.0
H591 H 0.1084 0.99492 0.19464 0.0
H592 H 0.05673 0.87227 0.19608 0.0
H593 H 0.09081 0.91383 0.19399 0.0
C594 C 0.16138 0.11522 0.32348 0.0
C595 C 0.17108 0.12905 0.31656 0.0
C596 C 0.15784 0.09142 0.32401 0.0
C597 C 0.1428 0.04173 0.31018 0.0
H598 H 0.14003 0.00462 0.32878 0.0
C599 C 0.0941 0.93631 0.30921 0.0
C600 C 0.07879 0.92393 0.31564 0.0
C601 C 0.11088 0.96152 0.30962 0.0
C602 C 0.14061 0.01473 0.32354 0.0
H603 H 0.18785 0.13033 0.30528 0.0
H604 H 0.18228 0.08915 0.3063 0.0
H605 H 0.16189 0.04959 0.32931 0.0
H606 H 0.06949 0.92823 0.32762 0.0
H607 H 0.09809 0.97226 0.32826 0.0
H608 H 0.1206 0.00723 0.3045 0.0
C609 C 0.17664 0.09628 0.31119 0.0
C610 C 0.15323 0.04047 0.32384 0.0
C611 C 0.17997 0.11992 0.31063 0.0
C612 C 0.08101 0.93721 0.32256 0.0
C613 C 0.09761 0.96246 0.32295 0.0
C614 C 0.13011 0.01612 0.3099 0.0
C615 C 0.16414 0.08122 0.31766 0.0
C616 C 0.1541 0.05423 0.31719 0.0
C617 C 0.11256 0.975 0.31645 0.0
C618 C 0.12843 0.00225 0.3166 0.0
H619 H 0.15435 0.12177 0.32815 0.0
H620 H 0.14819 0.08031 0.32909 0.0
H621 H 0.14259 0.05169 0.305 0.0
H622 H 0.09308 0.92656 0.30383 0.0
H623 H 0.1224 0.97048 0.30456 0.0
C624 C 0.88222 0.03723 0.29842 0.0
C625 C 0.87089 0.02713 0.30568 0.0
C626 C 0.90587 0.05761 0.29818 0.0
C627 C 0.95648 0.10587 0.3103 0.0
H628 H 0.99732 0.09355 0.29601 0.0
C629 C 0.06088 0.14686 0.31446 0.0
C630 C 0.07591 0.15272 0.30775 0.0
C631 C 0.03541 0.13607 0.31371 0.0
C632 C 0.98621 0.09765 0.29992 0.0
H633 H 0.87463 0.03156 0.31836 0.0
H634 H 0.91623 0.06684 0.31795 0.0
H635 H 0.95307 0.06726 0.29558 0.0
H636 H 0.07603 0.15294 0.29496 0.0
H637 H 0.03159 0.1343 0.29365 0.0
H638 H 0.98998 0.13586 0.31481 0.0
C639 C 0.90675 0.05922 0.31244 0.0
C640 C 0.96075 0.08254 0.29967 0.0
C641 C 0.88292 0.03894 0.31268 0.0
C642 C 0.06498 0.14841 0.30026 0.0
C643 C 0.0395 0.13768 0.2995 0.0
C644 C 0.98205 0.12104 0.31055 0.0
C645 C 0.91883 0.06815 0.30519 0.0
C646 C 0.94558 0.0862 0.30494 0.0
C647 C 0.02439 0.13094 0.30622 0.0
C648 C 0.99721 0.1168 0.30545 0.0
H649 H 0.87322 0.02875 0.29292 0.0
H650 H 0.91442 0.06444 0.2925 0.0
H651 H 0.94528 0.10931 0.31438 0.0
H652 H 0.06868 0.15 0.32033 0.0
H653 H 0.02431 0.13084 0.319 0.0
C654 C 0.83867 0.9 0.31669 0.0
C655 C 0.82898 0.90176 0.30941 0.0
C656 C 0.84765 0.88382 0.31766 0.0
C657 C 0.87535 0.85555 0.30583 0.0
H658 H 0.87499 0.8242 0.32556 0.0
C659 C 0.94001 0.81796 0.30947 0.0
C660 C 0.95458 0.82638 0.31628 0.0
C661 C 0.91808 0.81842 0.30897 0.0
C662 C 0.87521 0.8328 0.32001 0.0
H663 H 0.81966 0.88672 0.29758 0.0
H664 H 0.83519 0.85832 0.2993 0.0
H665 H 0.84818 0.84176 0.32393 0.0
H666 H 0.95666 0.83978 0.32818 0.0
H667 H 0.91872 0.84137 0.32725 0.0
H668 H 0.90308 0.84783 0.302 0.0
C669 C 0.83621 0.86979 0.30422 0.0
C670 C 0.85987 0.84285 0.31907 0.0
C671 C 0.82726 0.88603 0.30324 0.0
C672 C 0.94573 0.83314 0.32286 0.0
C673 C 0.92393 0.83399 0.32232 0.0
C674 C 0.89065 0.84558 0.30676 0.0
C675 C 0.8471 0.86898 0.31138 0.0
C676 C 0.86025 0.85489 0.31203 0.0
C677 C 0.91052 0.82779 0.31522 0.0
C678 C 0.89124 0.8346 0.31393 0.0
H679 H 0.84015 0.91175 0.32158 0.0
H680 H 0.85616 0.88389 0.32322 0.0
H681 H 0.87647 0.86505 0.30038 0.0
H682 H 0.94628 0.81233 0.30434 0.0
H683 H 0.90781 0.81282 0.3035 0.0
C684 C 0.87636 0.84194 0.79906 0.0
C685 C 0.86661 0.84175 0.80653 0.0
C686 C 0.89938 0.84387 0.79835 0.0
C687 C 0.95048 0.84364 0.80943 0.0
H688 H 0.99083 0.89487 0.7945 0.0
C689 C 0.05559 0.90384 0.81207 0.0
C690 C 0.06981 0.91258 0.80517 0.0
C691 C 0.03003 0.88952 0.81163 0.0
C692 C 0.97981 0.88014 0.79858 0.0
H693 H 0.87248 0.84163 0.81911 0.0
H694 H 0.91305 0.84564 0.81788 0.0
H695 H 0.94691 0.87919 0.79487 0.0
H696 H 0.0684 0.91185 0.7924 0.0
H697 H 0.02373 0.88662 0.79164 0.0
H698 H 0.9838 0.84541 0.81332 0.0
C699 C 0.90277 0.84396 0.81257 0.0
C700 C 0.95454 0.87111 0.79879 0.0
C701 C 0.87955 0.84176 0.81328 0.0
C702 C 0.05798 0.90564 0.79782 0.0
C703 C 0.03238 0.89125 0.79739 0.0
C704 C 0.97586 0.85272 0.80922 0.0
C705 C 0.91331 0.84596 0.80509 0.0
C706 C 0.93961 0.85309 0.80431 0.0
C707 C 0.01808 0.88354 0.80429 0.0
C708 C 0.99086 0.87144 0.80389 0.0
H709 H 0.86661 0.84155 0.79375 0.0
H710 H 0.90671 0.84474 0.79251 0.0
H711 H 0.93944 0.82955 0.81369 0.0
H712 H 0.0641 0.90873 0.81783 0.0
H713 H 0.01959 0.88414 0.81706 0.0
C714 C 0.08676 0.1516 0.80906 0.0
C715 C 0.07268 0.14937 0.81577 0.0
C716 C 0.10274 0.14219 0.80906 0.0
C717 C 0.13295 0.11697 0.82199 0.0
H718 H 0.1297 0.08085 0.80308 0.0
C719 C 0.15327 0.03682 0.82041 0.0
C720 C 0.16152 0.03262 0.81319 0.0
C721 C 0.14946 0.05684 0.82126 0.0
C722 C 0.13135 0.0913 0.80835 0.0
H723 H 0.06486 0.13613 0.82782 0.0
H724 H 0.09215 0.119 0.82773 0.0
H725 H 0.10877 0.10435 0.80343 0.0
H726 H 0.17529 0.04766 0.80159 0.0
H727 H 0.16931 0.08288 0.80315 0.0
H728 H 0.15476 0.10278 0.82699 0.0
C729 C 0.09126 0.12848 0.82252 0.0
C730 C 0.11927 0.10481 0.80856 0.0
C731 C 0.07543 0.13812 0.82255 0.0
C732 C 0.16853 0.05024 0.80718 0.0
C733 C 0.16498 0.07033 0.80806 0.0
C734 C 0.145 0.10329 0.82179 0.0
C735 C 0.10482 0.13007 0.81573 0.0
C736 C 0.11961 0.11756 0.8154 0.0
C737 C 0.15406 0.07304 0.81493 0.0
C738 C 0.14407 0.09006 0.81499 0.0
H739 H 0.08534 0.16049 0.80378 0.0
H740 H 0.11327 0.14418 0.80378 0.0
H741 H 0.13384 0.12685 0.82732 0.0
H742 H 0.14771 0.02352 0.82515 0.0
H743 H 0.14103 0.05841 0.82663 0.0
C744 C 0.82319 0.94073 0.80562 0.0
C745 C 0.82612 0.92698 0.81162 0.0
C746 C 0.83173 0.96581 0.80665 0.0
C747 C 0.85635 0.01646 0.8215 0.0
H748 H 0.89666 0.05522 0.80399 0.0
C749 C 0.94191 0.11227 0.82459 0.0
C750 C 0.95002 0.12777 0.81798 0.0
C751 C 0.91995 0.08972 0.82426 0.0
C752 C 0.885 0.04489 0.80889 0.0
H753 H 0.83913 0.92853 0.82357 0.0
H754 H 0.85446 0.97227 0.8253 0.0
H755 H 0.87064 0.01129 0.80247 0.0
H756 H 0.94018 0.13357 0.80626 0.0
H757 H 0.90139 0.09481 0.80581 0.0
H758 H 0.8717 0.05021 0.82802 0.0
C759 C 0.84528 0.96367 0.81983 0.0
C760 C 0.87005 0.01955 0.80801 0.0
C761 C 0.83669 0.93859 0.81881 0.0
C762 C 0.93449 0.12175 0.8114 0.0
C763 C 0.91237 0.09946 0.81112 0.0
C764 C 0.87133 0.04193 0.82238 0.0
C765 C 0.84344 0.9777 0.8137 0.0
C766 C 0.85607 0.00493 0.81436 0.0
C767 C 0.90561 0.08251 0.81735 0.0
C768 C 0.88636 0.05636 0.81614 0.0
H769 H 0.81487 0.93229 0.80004 0.0
H770 H 0.82971 0.97604 0.80186 0.0
H771 H 0.84549 0.00571 0.82648 0.0
H772 H 0.95357 0.11645 0.82973 0.0
H773 H 0.91538 0.07716 0.82917 0.0
C774 C 0.92356 0.06393 0.6996 0.0
C775 C 0.92861 0.07401 0.69198 0.0
C776 C 0.90936 0.03852 0.70068 0.0
C777 C 0.867 0.97971 0.6905 0.0
H778 H 0.8934 0.95251 0.70556 0.0
C779 C 0.84798 0.87954 0.68988 0.0
C780 C 0.84793 0.86846 0.69708 0.0
C781 C 0.8523 0.90366 0.68971 0.0
C782 C 0.88541 0.95974 0.70144 0.0
H783 H 0.92203 0.0653 0.67952 0.0
H784 H 0.89779 0.02102 0.6814 0.0
H785 H 0.91174 0.99675 0.70446 0.0
H786 H 0.84992 0.87303 0.70978 0.0
H787 H 0.85696 0.91483 0.70949 0.0
H788 H 0.84117 0.94245 0.68732 0.0
C789 C 0.90445 0.03275 0.68656 0.0
C790 C 0.89597 0.98518 0.70081 0.0
C791 C 0.91854 0.05816 0.68547 0.0
C792 C 0.85025 0.8812 0.70413 0.0
C793 C 0.85439 0.9052 0.70396 0.0
C794 C 0.85644 0.95417 0.69112 0.0
C795 C 0.89999 0.0226 0.69417 0.0
C796 C 0.88714 0.9955 0.69526 0.0
C797 C 0.8565 0.91706 0.69675 0.0
C798 C 0.86575 0.94393 0.69654 0.0
H799 H 0.93081 0.07563 0.70474 0.0
H800 H 0.90594 0.03132 0.70663 0.0
H801 H 0.85956 0.98709 0.68624 0.0
H802 H 0.84622 0.87018 0.68435 0.0
H803 H 0.85389 0.9123 0.68405 0.0
C804 C 0.1221 0.94725 0.6964 0.0
C805 C 0.12844 0.95804 0.6889 0.0
C806 C 0.10032 0.92504 0.69753 0.0
C807 C 0.04606 0.87407 0.68721 0.0
H808 H 0.01115 0.88004 0.70515 0.0
C809 C 0.94125 0.832 0.68862 0.0
C810 C 0.92926 0.82456 0.69594 0.0
C811 C 0.96665 0.84195 0.6881 0.0
C812 C 0.02071 0.87767 0.70022 0.0
H813 H 0.11799 0.95325 0.67658 0.0
H814 H 0.07945 0.9149 0.67857 0.0
H815 H 0.05451 0.90906 0.70357 0.0
H816 H 0.93432 0.82009 0.70836 0.0
H817 H 0.97876 0.83748 0.70742 0.0
H818 H 0.01156 0.84333 0.68367 0.0
C819 C 0.09147 0.92325 0.68358 0.0
C820 C 0.0457 0.89435 0.69931 0.0
C821 C 0.11353 0.94531 0.68243 0.0
C822 C 0.94302 0.82587 0.70264 0.0
C823 C 0.96847 0.83588 0.70211 0.0
C824 C 0.02093 0.8574 0.68811 0.0
C825 C 0.08415 0.91339 0.6912 0.0
C826 C 0.0586 0.89317 0.69269 0.0
C827 C 0.98064 0.84471 0.69487 0.0
C828 C 0.00787 0.85943 0.69452 0.0
H829 H 0.1335 0.95651 0.70148 0.0
H830 H 0.09561 0.91762 0.70344 0.0
H831 H 0.05551 0.8724 0.68212 0.0
H832 H 0.93117 0.83107 0.68333 0.0
H833 H 0.97547 0.84878 0.68244 0.0
C834 C 0.06385 0.18274 0.68621 0.0
C835 C 0.04425 0.17114 0.68086 0.0
C836 C 0.08474 0.18049 0.68536 0.0
C837 C 0.10835 0.14951 0.68702 0.0
H838 H 0.13572 0.13847 0.66802 0.0
C839 C 0.16571 0.10193 0.68869 0.0
C840 C 0.15961 0.08306 0.68317 0.0
C841 C 0.1576 0.1188 0.68767 0.0
C842 C 0.12821 0.14147 0.67338 0.0
H843 H 0.0323 0.15054 0.66994 0.0
H844 H 0.06844 0.14603 0.66857 0.0
H845 H 0.11189 0.15956 0.6672 0.0
H846 H 0.141 0.06768 0.67208 0.0
H847 H 0.12618 0.09662 0.67044 0.0
H848 H 0.12348 0.13055 0.69317 0.0
C849 C 0.06791 0.15711 0.67337 0.0
C850 C 0.11465 0.15361 0.67291 0.0
C851 C 0.04713 0.15967 0.67416 0.0
C852 C 0.14595 0.08196 0.67646 0.0
C853 C 0.13765 0.09871 0.67548 0.0
C854 C 0.1218 0.1374 0.68749 0.0
C855 C 0.08624 0.16623 0.67923 0.0
C856 C 0.10411 0.15729 0.67971 0.0
C857 C 0.14297 0.11704 0.68116 0.0
C858 C 0.13144 0.13272 0.68066 0.0
H859 H 0.06226 0.19202 0.69137 0.0
H860 H 0.0989 0.18838 0.68984 0.0
H861 H 0.10006 0.15145 0.69237 0.0
H862 H 0.17652 0.10353 0.69386 0.0
H863 H 0.16243 0.13296 0.69208 0.0
C864 C 0.60365 0.43296 0.53308 0.0
C865 C 0.59173 0.42264 0.52591 0.0
C866 C 0.62924 0.44742 0.53339 0.0
C867 C 0.6859 0.48031 0.52126 0.0
H868 H 0.71375 0.4587 0.53766 0.0
C869 C 0.78179 0.48925 0.51938 0.0
C870 C 0.79419 0.49067 0.52642 0.0
C871 C 0.7588 0.48773 0.51958 0.0
C872 C 0.70648 0.46551 0.53315 0.0
H873 H 0.59725 0.42066 0.51336 0.0
H874 H 0.64188 0.44555 0.51394 0.0
H875 H 0.66998 0.44373 0.53756 0.0
H876 H 0.79359 0.49419 0.53911 0.0
H877 H 0.754 0.49243 0.53946 0.0
H878 H 0.72252 0.50158 0.51672 0.0
C879 C 0.63145 0.44266 0.51931 0.0
C880 C 0.68127 0.45684 0.53309 0.0
C881 C 0.60586 0.42821 0.51899 0.0
C882 C 0.78423 0.49267 0.5336 0.0
C883 C 0.76148 0.49154 0.5338 0.0
C884 C 0.71124 0.48911 0.52134 0.0
C885 C 0.64345 0.45186 0.52654 0.0
C886 C 0.67061 0.46374 0.52706 0.0
C887 C 0.74798 0.48792 0.52683 0.0
C888 C 0.72175 0.48141 0.5272 0.0
H889 H 0.59332 0.42928 0.5385 0.0
H890 H 0.63795 0.45459 0.53903 0.0
H891 H 0.67821 0.48614 0.51658 0.0
H892 H 0.78904 0.48767 0.51376 0.0
H893 H 0.74889 0.48483 0.5141 0.0
C894 C 0.49518 0.28451 0.52879 0.0
C895 C 0.50003 0.29977 0.52219 0.0
C896 C 0.49805 0.26389 0.52835 0.0
C897 C 0.51186 0.22523 0.51493 0.0
H898 H 0.55227 0.22731 0.53252 0.0
C899 C 0.57929 0.18784 0.51354 0.0
C900 C 0.58302 0.17757 0.5204 0.0
C901 C 0.56391 0.19799 0.51366 0.0
C902 C 0.5406 0.22603 0.52763 0.0
H903 H 0.50946 0.30417 0.50978 0.0
H904 H 0.51508 0.26852 0.50906 0.0
H905 H 0.53298 0.25238 0.53284 0.0
H906 H 0.57245 0.16872 0.53266 0.0
H907 H 0.54543 0.1861 0.53284 0.0
H908 H 0.5204 0.19939 0.50962 0.0
C909 C 0.50878 0.27226 0.51455 0.0
C910 C 0.52945 0.24041 0.52782 0.0
C911 C 0.5056 0.29275 0.51497 0.0
C912 C 0.57026 0.17678 0.52729 0.0
C913 C 0.55479 0.18679 0.5274 0.0
C914 C 0.52308 0.21077 0.51474 0.0
C915 C 0.50619 0.25832 0.52135 0.0
C916 C 0.51523 0.2405 0.52143 0.0
C917 C 0.55184 0.19798 0.52064 0.0
C918 C 0.53789 0.21132 0.52105 0.0
H919 H 0.49049 0.28925 0.53441 0.0
H920 H 0.49524 0.25312 0.53364 0.0
H921 H 0.50087 0.22474 0.50994 0.0
H922 H 0.5888 0.18868 0.50812 0.0
H923 H 0.56226 0.2067 0.50837 0.0
C924 C 0.71434 0.21589 0.51186 0.0
C925 C 0.70583 0.20067 0.51853 0.0
C926 C 0.73621 0.23852 0.51221 0.0
C927 C 0.77007 0.2843 0.52744 0.0
H928 H 0.81157 0.32206 0.50998 0.0
C929 C 0.83303 0.38851 0.53023 0.0
C930 C 0.83127 0.40213 0.52395 0.0
C931 C 0.824 0.36326 0.52944 0.0
C932 C 0.80014 0.31172 0.51492 0.0
H933 H 0.71491 0.19556 0.53044 0.0
H934 H 0.75346 0.23453 0.53097 0.0
H935 H 0.785 0.27754 0.50865 0.0
H936 H 0.81978 0.40012 0.51178 0.0
H937 H 0.80358 0.35611 0.51047 0.0
H938 H 0.78421 0.31833 0.53359 0.0
C939 C 0.74287 0.22954 0.52556 0.0
C940 C 0.78496 0.28623 0.51415 0.0
C941 C 0.72087 0.20714 0.52525 0.0
C942 C 0.82132 0.39017 0.51675 0.0
C943 C 0.81223 0.36492 0.51597 0.0
C944 C 0.7852 0.30966 0.5282 0.0
C945 C 0.75004 0.24613 0.51922 0.0
C946 C 0.76927 0.27232 0.52035 0.0
C947 C 0.81295 0.35106 0.52236 0.0
C948 C 0.79993 0.32378 0.52188 0.0
H949 H 0.70309 0.21136 0.5066 0.0
H950 H 0.74112 0.25082 0.50722 0.0
H951 H 0.7579 0.27435 0.53228 0.0
H952 H 0.84085 0.39721 0.53583 0.0
H953 H 0.82517 0.35317 0.53444 0.0
C954 C 0.80147 0.44444 0.62836 0.0
C955 C 0.80714 0.45734 0.63553 0.0
C956 C 0.79758 0.42055 0.62807 0.0
C957 C 0.80302 0.37269 0.63928 0.0
H958 H 0.74217 0.32853 0.62849 0.0
C959 C 0.74609 0.26907 0.64601 0.0
C960 C 0.73289 0.25266 0.63988 0.0
C961 C 0.75923 0.29438 0.64467 0.0
C962 C 0.75947 0.34056 0.63139 0.0
H963 H 0.8149 0.45595 0.64792 0.0
H964 H 0.80774 0.41402 0.64743 0.0
H965 H 0.75882 0.37261 0.62757 0.0
H966 H 0.7241 0.24996 0.62742 0.0
H967 H 0.74733 0.29419 0.62505 0.0
H968 H 0.80322 0.34042 0.64326 0.0
C969 C 0.80649 0.42246 0.64201 0.0
C970 C 0.76904 0.3659 0.63087 0.0
C971 C 0.81051 0.44647 0.6423 0.0
C972 C 0.73388 0.2621 0.6323 0.0
C973 C 0.74712 0.28745 0.63094 0.0
C974 C 0.79346 0.34727 0.63979 0.0
C975 C 0.79916 0.40897 0.63494 0.0
C976 C 0.79071 0.38226 0.6349 0.0
C977 C 0.75958 0.30391 0.63715 0.0
C978 C 0.77133 0.33091 0.63596 0.0
H979 H 0.7991 0.45244 0.62301 0.0
H980 H 0.79249 0.41083 0.6225 0.0
H981 H 0.81989 0.38485 0.64238 0.0
H982 H 0.74577 0.26244 0.65193 0.0
H983 H 0.76833 0.30651 0.64961 0.0
C984 C 0.54687 0.3832 0.65556 0.0
C985 C 0.53103 0.37372 0.64906 0.0
C986 C 0.5687 0.40582 0.65497 0.0
C987 C 0.61163 0.44119 0.63918 0.0
H988 H 0.65037 0.48368 0.65634 0.0
C989 C 0.71468 0.50638 0.63515 0.0
C990 C 0.72907 0.50427 0.64111 0.0
C991 C 0.68959 0.49742 0.63635 0.0
C992 C 0.63972 0.47203 0.65148 0.0
H993 H 0.52378 0.38148 0.63724 0.0
H994 H 0.56116 0.4214 0.63634 0.0
H995 H 0.60636 0.4554 0.65821 0.0
H996 H 0.72873 0.49265 0.65318 0.0
H997 H 0.68504 0.47663 0.65519 0.0
H998 H 0.64491 0.45684 0.63256 0.0
C999 C 0.55742 0.41107 0.64177 0.0
C1000 C 0.61454 0.45583 0.65256 0.0
C1001 C 0.53592 0.38831 0.6423 0.0
C1002 C 0.71815 0.4944 0.64844 0.0
C1003 C 0.6931 0.48541 0.64963 0.0
C1004 C 0.63667 0.45735 0.63811 0.0
C1005 C 0.57478 0.4194 0.64791 0.0
C1006 C 0.60034 0.43971 0.64648 0.0
C1007 C 0.67837 0.48614 0.64352 0.0
C1008 C 0.65117 0.47244 0.64431 0.0
H1009 H 0.54351 0.37221 0.66082 0.0
H1010 H 0.58163 0.41158 0.65981 0.0
H1011 H 0.60152 0.42876 0.63441 0.0
H1012 H 0.72258 0.51415 0.62947 0.0
H1013 H 0.67879 0.49858 0.63156 0.0
C1014 C 0.60004 0.14533 0.65034 0.0
C1015 C 0.62201 0.15992 0.65447 0.0
C1016 C 0.57972 0.1484 0.65154 0.0
C1017 C 0.55229 0.17534 0.64893 0.0
H1018 H 0.54463 0.20954 0.66673 0.0
C1019 C 0.52124 0.24598 0.64457 0.0
C1020 C 0.50858 0.25034 0.65058 0.0
C1021 C 0.53012 0.22981 0.64577 0.0
C1022 C 0.54605 0.19963 0.66172 0.0
H1023 H 0.63932 0.18741 0.6636 0.0
H1024 H 0.60471 0.19381 0.66542 0.0
H1025 H 0.5663 0.18691 0.66844 0.0
H1026 H 0.4945 0.24056 0.66249 0.0
H1027 H 0.50911 0.21156 0.66449 0.0
H1028 H 0.53139 0.18733 0.64228 0.0
C1029 C 0.60251 0.17945 0.66141 0.0
C1030 C 0.55887 0.1869 0.66268 0.0
C1031 C 0.62254 0.17583 0.66037 0.0
C1032 C 0.50446 0.23776 0.65777 0.0
C1033 C 0.51294 0.2212 0.65893 0.0
C1034 C 0.53903 0.18756 0.64802 0.0
C1035 C 0.58131 0.16677 0.65669 0.0
C1036 C 0.56311 0.17546 0.65621 0.0
C1037 C 0.5261 0.21716 0.65296 0.0
C1038 C 0.53666 0.20081 0.6543 0.0
H1039 H 0.5991 0.13272 0.64582 0.0
H1040 H 0.5634 0.13751 0.64804 0.0
H1041 H 0.55515 0.16704 0.64374 0.0
H1042 H 0.52485 0.25554 0.63898 0.0
H1043 H 0.54069 0.22777 0.64109 0.0
C1044 C 0.71788 0.22477 0.14397 0.0
C1045 C 0.73002 0.22913 0.13668 0.0
C1046 C 0.69234 0.21014 0.14441 0.0
C1047 C 0.63893 0.1938 0.13211 0.0
H1048 H 0.60265 0.15341 0.14997 0.0
C1049 C 0.53719 0.16197 0.13515 0.0
C1050 C 0.53016 0.16605 0.1426 0.0
C1051 C 0.5592 0.16187 0.13421 0.0
C1052 C 0.61252 0.16464 0.14495 0.0
H1053 H 0.72501 0.22011 0.12423 0.0
H1054 H 0.68038 0.19447 0.12501 0.0
H1055 H 0.64653 0.16755 0.14866 0.0
H1056 H 0.5397 0.17152 0.15499 0.0
H1057 H 0.57864 0.17224 0.15332 0.0
H1058 H 0.60559 0.19211 0.12856 0.0
C1059 C 0.69064 0.20269 0.13036 0.0
C1060 C 0.63761 0.17269 0.14419 0.0
C1061 C 0.71621 0.21732 0.12992 0.0
C1062 C 0.54469 0.16832 0.14918 0.0
C1063 C 0.56697 0.16862 0.14822 0.0
C1064 C 0.61398 0.18588 0.13288 0.0
C1065 C 0.67838 0.19954 0.13757 0.0
C1066 C 0.65119 0.18781 0.13785 0.0
C1067 C 0.57491 0.16634 0.14067 0.0
C1068 C 0.60054 0.17164 0.13939 0.0
H1069 H 0.72798 0.23344 0.1493 0.0
H1070 H 0.68347 0.20827 0.15004 0.0
H1071 H 0.6489 0.20579 0.12723 0.0
H1072 H 0.52611 0.15976 0.12999 0.0
H1073 H 0.56442 0.15937 0.12835 0.0
C1074 C 0.81006 0.36358 0.13057 0.0
C1075 C 0.81545 0.35328 0.13709 0.0
C1076 C 0.80757 0.38432 0.13147 0.0
C1077 C 0.78864 0.41268 0.14658 0.0
H1078 H 0.80277 0.46152 0.13037 0.0
C1079 C 0.75227 0.48015 0.14893 0.0
C1080 C 0.74102 0.48257 0.14208 0.0
C1081 C 0.76667 0.46897 0.14861 0.0
C1082 C 0.79867 0.44798 0.13494 0.0
H1083 H 0.82439 0.35787 0.14955 0.0
H1084 H 0.82021 0.39428 0.1511 0.0
H1085 H 0.82012 0.43439 0.12935 0.0
H1086 H 0.73682 0.47589 0.12948 0.0
H1087 H 0.7616 0.45597 0.12895 0.0
H1088 H 0.76652 0.42554 0.15203 0.0
C1089 C 0.8175 0.386 0.14532 0.0
C1090 C 0.80865 0.43249 0.13437 0.0
C1091 C 0.82003 0.36523 0.14442 0.0
C1092 C 0.74518 0.47428 0.13487 0.0
C1093 C 0.75956 0.46303 0.13455 0.0
C1094 C 0.77869 0.42813 0.14715 0.0
C1095 C 0.81043 0.39526 0.1389 0.0
C1096 C 0.80326 0.41428 0.14008 0.0
C1097 C 0.77012 0.45988 0.14145 0.0
C1098 C 0.78312 0.44558 0.14125 0.0
H1099 H 0.80659 0.35495 0.12482 0.0
H1100 H 0.80193 0.39084 0.12641 0.0
H1101 H 0.78376 0.3986 0.15102 0.0
H1102 H 0.74967 0.48657 0.15458 0.0
H1103 H 0.77486 0.46716 0.154 0.0
C1104 C 0.49379 0.27147 0.14084 0.0
C1105 C 0.49762 0.25832 0.14684 0.0
C1106 C 0.50308 0.29677 0.14157 0.0
C1107 C 0.53169 0.34943 0.15567 0.0
H1108 H 0.56656 0.38565 0.13702 0.0
C1109 C 0.61648 0.44679 0.15593 0.0
C1110 C 0.62178 0.46125 0.14911 0.0
C1111 C 0.59504 0.42379 0.15633 0.0
C1112 C 0.55645 0.376 0.14224 0.0
H1113 H 0.51326 0.26125 0.15847 0.0
H1114 H 0.52998 0.30541 0.15965 0.0
H1115 H 0.54077 0.34146 0.13632 0.0
H1116 H 0.60752 0.46462 0.13784 0.0
H1117 H 0.56977 0.42499 0.13866 0.0
H1118 H 0.54843 0.38418 0.16165 0.0
C1119 C 0.51946 0.29616 0.15443 0.0
C1120 C 0.54162 0.35052 0.14184 0.0
C1121 C 0.51005 0.27084 0.15372 0.0
C1122 C 0.60404 0.45365 0.14312 0.0
C1123 C 0.58251 0.43088 0.14357 0.0
C1124 C 0.5466 0.37504 0.15607 0.0
C1125 C 0.51654 0.30953 0.14829 0.0
C1126 C 0.5295 0.33684 0.14858 0.0
C1127 C 0.57848 0.41506 0.14996 0.0
C1128 C 0.55958 0.38856 0.1494 0.0
H1129 H 0.48402 0.26233 0.13551 0.0
H1130 H 0.50015 0.30645 0.13679 0.0
H1131 H 0.5223 0.33945 0.16094 0.0
H1132 H 0.62985 0.45218 0.16063 0.0
H1133 H 0.59256 0.41209 0.16134 0.0
C1134 C 0.58954 0.4032 0.03318 0.0
C1135 C 0.59629 0.41321 0.02558 0.0
C1136 C 0.57517 0.37779 0.03424 0.0
C1137 C 0.53497 0.31895 0.0238 0.0
H1138 H 0.55824 0.29176 0.03992 0.0
C1139 C 0.51581 0.21882 0.02394 0.0
C1140 C 0.51455 0.20769 0.03124 0.0
C1141 C 0.52015 0.24294 0.02361 0.0
C1142 C 0.55109 0.29898 0.0355 0.0
H1143 H 0.5926 0.40437 0.0131 0.0
H1144 H 0.56799 0.36009 0.01497 0.0
H1145 H 0.57684 0.33601 0.0387 0.0
H1146 H 0.51442 0.21217 0.04391 0.0
H1147 H 0.52147 0.25395 0.04334 0.0
H1148 H 0.5097 0.2817 0.02045 0.0
C1149 C 0.57348 0.37188 0.02011 0.0
C1150 C 0.56182 0.32442 0.0348 0.0
C1151 C 0.58778 0.39728 0.01905 0.0
C1152 C 0.51568 0.22038 0.03819 0.0
C1153 C 0.51984 0.24437 0.03787 0.0
C1154 C 0.52422 0.29341 0.0245 0.0
C1155 C 0.5673 0.36181 0.02773 0.0
C1156 C 0.55416 0.33473 0.02887 0.0
C1157 C 0.52316 0.25628 0.03059 0.0
C1158 C 0.53242 0.28316 0.03029 0.0
H1159 H 0.59557 0.41495 0.03834 0.0
H1160 H 0.57043 0.37064 0.04018 0.0
H1161 H 0.52844 0.32633 0.01924 0.0
H1162 H 0.51499 0.20952 0.01847 0.0
H1163 H 0.5227 0.2516 0.01791 0.0
C1164 C 0.78302 0.28988 0.02057 0.0
C1165 C 0.79683 0.30298 0.02718 0.0
C1166 C 0.76068 0.26799 0.02154 0.0
C1167 C 0.71204 0.23931 0.03649 0.0
H1168 H 0.68175 0.18687 0.02108 0.0
C1169 C 0.60998 0.16768 0.03878 0.0
C1170 C 0.59681 0.16529 0.03182 0.0
C1171 C 0.63558 0.17869 0.03861 0.0
C1172 C 0.69004 0.20134 0.02545 0.0
H1173 H 0.79945 0.30235 0.0399 0.0
H1174 H 0.76104 0.26378 0.04158 0.0
H1175 H 0.72562 0.21698 0.02009 0.0
H1176 H 0.60003 0.17085 0.01916 0.0
H1177 H 0.64461 0.19025 0.0189 0.0
H1178 H 0.6765 0.22426 0.04171 0.0
C1179 C 0.76686 0.27079 0.03567 0.0
C1180 C 0.71512 0.21862 0.02487 0.0
C1181 C 0.78894 0.29283 0.03471 0.0
C1182 C 0.60962 0.1726 0.02463 0.0
C1183 C 0.6352 0.18354 0.02447 0.0
C1184 C 0.68711 0.22201 0.03709 0.0
C1185 C 0.75193 0.25864 0.02913 0.0
C1186 C 0.72629 0.23817 0.03028 0.0
C1187 C 0.64851 0.18744 0.03149 0.0
C1188 C 0.67568 0.2032 0.03147 0.0
H1189 H 0.78868 0.2973 0.01469 0.0
H1190 H 0.74962 0.25926 0.01637 0.0
H1191 H 0.71978 0.25434 0.04068 0.0
H1192 H 0.60066 0.16204 0.0444 0.0
H1193 H 0.64535 0.18115 0.0441 0.0
C1194 C 0.82044 0.42795 0.01464 0.0
C1195 C 0.8328 0.42829 0.02159 0.0
C1196 C 0.81214 0.44464 0.01356 0.0
C1197 C 0.79282 0.48095 0.0253 0.0
H1198 H 0.78655 0.5049 0.00485 0.0
C1199 C 0.73206 0.52307 0.02255 0.0
C1200 C 0.71398 0.5117 0.01671 0.0
C1201 C 0.75355 0.5217 0.02228 0.0
C1202 C 0.78827 0.49845 0.01061 0.0
H1203 H 0.84732 0.44734 0.03267 0.0
H1204 H 0.83307 0.47668 0.03075 0.0
H1205 H 0.81143 0.48508 0.00621 0.0
H1206 H 0.70533 0.49236 0.00555 0.0
H1207 H 0.74253 0.48939 0.00515 0.0
H1208 H 0.76896 0.49318 0.02966 0.0
C1209 C 0.82939 0.46317 0.02619 0.0
C1210 C 0.80246 0.48705 0.01138 0.0
C1211 C 0.83759 0.44638 0.02729 0.0
C1212 C 0.71897 0.5013 0.01014 0.0
C1213 C 0.74035 0.49962 0.00991 0.0
C1214 C 0.77873 0.49232 0.02453 0.0
C1215 C 0.8161 0.46216 0.01939 0.0
C1216 C 0.80433 0.47757 0.0187 0.0
C1217 C 0.75718 0.50858 0.01622 0.0
C1218 C 0.77574 0.50065 0.01714 0.0
H1219 H 0.81651 0.4143 0.01011 0.0
H1220 H 0.80168 0.44308 0.0083 0.0
H1221 H 0.79347 0.47353 0.03099 0.0
H1222 H 0.72883 0.53153 0.02763 0.0
H1223 H 0.7665 0.52942 0.02711 0.0
C1224 C 0.27037 0.76854 0.85095 0.0
C1225 C 0.25889 0.7661 0.85827 0.0
C1226 C 0.29545 0.78505 0.85001 0.0
C1227 C 0.35107 0.81191 0.86188 0.0
H1228 H 0.38246 0.84453 0.84235 0.0
C1229 C 0.45243 0.84561 0.85788 0.0
C1230 C 0.45792 0.8376 0.85084 0.0
C1231 C 0.43067 0.84632 0.8586 0.0
C1232 C 0.37399 0.83558 0.84785 0.0
H1233 H 0.2644 0.78041 0.87019 0.0
H1234 H 0.30822 0.80935 0.86853 0.0
H1235 H 0.33825 0.82784 0.84404 0.0
H1236 H 0.44615 0.82614 0.83882 0.0
H1237 H 0.40766 0.82642 0.84015 0.0
H1238 H 0.38614 0.8182 0.86556 0.0
C1239 C 0.29784 0.79818 0.86355 0.0
C1240 C 0.34868 0.82605 0.84882 0.0
C1241 C 0.27273 0.78163 0.8645 0.0
C1242 C 0.44235 0.83241 0.84431 0.0
C1243 C 0.4203 0.83266 0.84508 0.0
C1244 C 0.37623 0.8213 0.8609 0.0
C1245 C 0.30962 0.79953 0.85637 0.0
C1246 C 0.33685 0.81349 0.85577 0.0
C1247 C 0.41366 0.83846 0.85236 0.0
C1248 C 0.38793 0.83265 0.85379 0.0
H1249 H 0.26021 0.75699 0.846 0.0
H1250 H 0.30396 0.78543 0.84442 0.0
H1251 H 0.34253 0.802 0.86725 0.0
H1252 H 0.46434 0.85007 0.86296 0.0
H1253 H 0.42649 0.85161 0.86421 0.0
C1254 C 0.18387 0.63136 0.86973 0.0
C1255 C 0.18061 0.64005 0.86246 0.0
C1256 C 0.188 0.61152 0.87003 0.0
C1257 C 0.18812 0.56149 0.85835 0.0
H1258 H 0.24477 0.57673 0.87136 0.0
C1259 C 0.24938 0.51828 0.85358 0.0
C1260 C 0.26016 0.51384 0.86017 0.0
C1261 C 0.23534 0.52973 0.85444 0.0
C1262 C 0.22862 0.57185 0.86782 0.0
H1263 H 0.17732 0.63364 0.84985 0.0
H1264 H 0.185 0.5992 0.85036 0.0
H1265 H 0.22689 0.60314 0.87184 0.0
H1266 H 0.26368 0.51694 0.8729 0.0
H1267 H 0.23892 0.53668 0.87442 0.0
H1268 H 0.19041 0.53048 0.85417 0.0
C1269 C 0.18413 0.60759 0.85584 0.0
C1270 C 0.21834 0.58702 0.86809 0.0
C1271 C 0.17981 0.62738 0.85554 0.0
C1272 C 0.25585 0.52032 0.86769 0.0
C1273 C 0.24172 0.5317 0.86855 0.0
C1274 C 0.19842 0.54623 0.85808 0.0
C1275 C 0.18916 0.60004 0.86307 0.0
C1276 C 0.19819 0.58225 0.86328 0.0
C1277 C 0.23168 0.53694 0.86193 0.0
C1278 C 0.21904 0.55148 0.86273 0.0
H1279 H 0.1842 0.6405 0.87518 0.0
H1280 H 0.19122 0.60576 0.87571 0.0
H1281 H 0.17245 0.5572 0.85463 0.0
H1282 H 0.25228 0.51349 0.8477 0.0
H1283 H 0.22815 0.53377 0.8492 0.0
C1284 C 0.39506 0.54305 0.85413 0.0
C1285 C 0.37524 0.53344 0.84882 0.0
C1286 C 0.41499 0.5667 0.85306 0.0
C1287 C 0.44214 0.62213 0.84008 0.0
H1288 H 0.44794 0.65546 0.85988 0.0
C1289 C 0.47079 0.72495 0.84218 0.0
C1290 C 0.48368 0.73829 0.84889 0.0
C1291 C 0.46274 0.69983 0.84157 0.0
C1292 C 0.44712 0.64658 0.85433 0.0
H1293 H 0.36212 0.53972 0.83774 0.0
H1294 H 0.39668 0.58122 0.83595 0.0
H1295 H 0.42656 0.61106 0.85951 0.0
H1296 H 0.4994 0.73605 0.86003 0.0
H1297 H 0.48591 0.69249 0.85889 0.0
H1298 H 0.46217 0.65798 0.83488 0.0
C1299 C 0.39698 0.57051 0.84091 0.0
C1300 C 0.43483 0.62098 0.85411 0.0
C1301 C 0.37713 0.54668 0.84193 0.0
C1302 C 0.48916 0.72621 0.85484 0.0
C1303 C 0.48138 0.7012 0.85419 0.0
C1304 C 0.45461 0.64789 0.8403 0.0
C1305 C 0.41531 0.58129 0.84673 0.0
C1306 C 0.43177 0.6084 0.84697 0.0
C1307 C 0.46762 0.68757 0.84763 0.0
C1308 C 0.45681 0.66039 0.84741 0.0
H1309 H 0.39424 0.53309 0.85944 0.0
H1310 H 0.42921 0.57426 0.85753 0.0
H1311 H 0.44018 0.61297 0.83449 0.0
H1312 H 0.46633 0.73375 0.83749 0.0
H1313 H 0.45194 0.68988 0.83648 0.0
C1314 C 0.42898 0.60543 0.97881 0.0
C1315 C 0.41246 0.5931 0.98499 0.0
C1316 C 0.44525 0.63072 0.97923 0.0
C1317 C 0.47107 0.68492 0.99277 0.0
H1318 H 0.47598 0.71985 0.97342 0.0
C1319 C 0.49113 0.7851 0.99068 0.0
C1320 C 0.50201 0.7982 0.98373 0.0
C1321 C 0.48764 0.76146 0.99176 0.0
C1322 C 0.47537 0.71048 0.97885 0.0
H1323 H 0.40053 0.59754 0.99656 0.0
H1324 H 0.42829 0.64185 0.99717 0.0
H1325 H 0.45462 0.67542 0.97337 0.0
H1326 H 0.52085 0.79842 0.973 0.0
H1327 H 0.51535 0.75754 0.97497 0.0
H1328 H 0.49091 0.72038 0.99829 0.0
C1329 C 0.42911 0.63191 0.99208 0.0
C1330 C 0.46304 0.68487 0.97882 0.0
C1331 C 0.41302 0.60652 0.9917 0.0
C1332 C 0.51204 0.78857 0.97836 0.0
C1333 C 0.50876 0.76509 0.97947 0.0
C1334 C 0.48334 0.71068 0.99281 0.0
C1335 C 0.44517 0.64439 0.98579 0.0
C1336 C 0.46038 0.67171 0.98579 0.0
C1337 C 0.49516 0.7507 0.98592 0.0
C1338 C 0.48532 0.72371 0.98586 0.0
H1339 H 0.42928 0.59556 0.97361 0.0
H1340 H 0.45772 0.63961 0.97435 0.0
H1341 H 0.46967 0.67537 0.99823 0.0
H1342 H 0.48323 0.79205 0.99493 0.0
H1343 H 0.47712 0.75087 0.9968 0.0
C1344 C 0.21585 0.69412 0.96221 0.0
C1345 C 0.20423 0.68611 0.96956 0.0
C1346 C 0.23928 0.71475 0.96168 0.0
C1347 C 0.28796 0.768 0.97276 0.0
H1348 H 0.3314 0.75383 0.96042 0.0
C1349 C 0.39231 0.81487 0.97805 0.0
C1350 C 0.40801 0.819 0.97161 0.0
C1351 C 0.36688 0.80289 0.97701 0.0
C1352 C 0.31954 0.75842 0.96375 0.0
H1353 H 0.2073 0.69445 0.98205 0.0
H1354 H 0.24849 0.73026 0.98115 0.0
H1355 H 0.28742 0.72569 0.96001 0.0
H1356 H 0.40931 0.81489 0.95896 0.0
H1357 H 0.36486 0.79417 0.95713 0.0
H1358 H 0.32039 0.80044 0.97668 0.0
C1359 C 0.23938 0.72074 0.97578 0.0
C1360 C 0.29425 0.74224 0.96353 0.0
C1361 C 0.21581 0.70015 0.97631 0.0
C1362 C 0.39774 0.81179 0.96405 0.0
C1363 C 0.37226 0.79985 0.96301 0.0
C1364 C 0.31334 0.78426 0.97298 0.0
C1365 C 0.2517 0.72772 0.9685 0.0
C1366 C 0.27819 0.74659 0.96813 0.0
C1367 C 0.35652 0.7948 0.9695 0.0
C1368 C 0.32945 0.77938 0.96859 0.0
H1369 H 0.20724 0.68391 0.95689 0.0
H1370 H 0.24804 0.72001 0.95596 0.0
H1371 H 0.27603 0.77199 0.9763 0.0
H1372 H 0.39959 0.82024 0.98396 0.0
H1373 H 0.35531 0.79904 0.98215 0.0
C1374 C 0.1704 0.55997 0.98291 0.0
C1375 C 0.16066 0.56098 0.97555 0.0
C1376 C 0.17927 0.54382 0.98416 0.0
C1377 C 0.20715 0.51477 0.97288 0.0
H1378 H 0.20748 0.4858 0.99303 0.0
C1379 C 0.27486 0.48154 0.97759 0.0
C1380 C 0.28909 0.49102 0.98443 0.0
C1381 C 0.25228 0.48061 0.97689 0.0
C1382 C 0.20751 0.49372 0.98736 0.0
H1383 H 0.15107 0.5446 0.9639 0.0
H1384 H 0.16649 0.51629 0.96611 0.0
H1385 H 0.17995 0.50234 0.99097 0.0
H1386 H 0.29 0.50486 0.99619 0.0
H1387 H 0.251 0.50415 0.9949 0.0
H1388 H 0.23548 0.50758 0.96937 0.0
C1389 C 0.16758 0.5283 0.97087 0.0
C1390 C 0.19174 0.50317 0.98618 0.0
C1391 C 0.15872 0.54449 0.96961 0.0
C1392 C 0.27934 0.49741 0.99085 0.0
C1393 C 0.25691 0.49693 0.99011 0.0
C1394 C 0.2229 0.50544 0.97407 0.0
C1395 C 0.17859 0.52827 0.97809 0.0
C1396 C 0.19191 0.51443 0.97899 0.0
C1397 C 0.24376 0.48972 0.98296 0.0
C1398 C 0.2238 0.4954 0.98139 0.0
H1399 H 0.17203 0.5723 0.98763 0.0
H1400 H 0.18786 0.54448 0.98976 0.0
H1401 H 0.20809 0.52367 0.96732 0.0
H1402 H 0.28185 0.47617 0.97259 0.0
H1403 H 0.24226 0.47423 0.9714 0.0
C1404 C 0.21589 0.5033 0.4821 0.0
C1405 C 0.20158 0.50131 0.47548 0.0
C1406 C 0.23828 0.50381 0.48117 0.0
C1407 C 0.28423 0.50057 0.47804 0.0
H1408 H 0.32097 0.5422 0.46045 0.0
C1409 C 0.38938 0.56266 0.47747 0.0
C1410 C 0.40185 0.56718 0.47024 0.0
C1411 C 0.3639 0.54745 0.47783 0.0
C1412 C 0.3109 0.53008 0.46529 0.0
H1413 H 0.19804 0.4957 0.46284 0.0
H1414 H 0.23651 0.49558 0.46126 0.0
H1415 H 0.27752 0.52802 0.46161 0.0
H1416 H 0.39753 0.5578 0.45781 0.0
H1417 H 0.35299 0.53122 0.45844 0.0
H1418 H 0.31831 0.50398 0.48191 0.0
C1419 C 0.23106 0.49776 0.46712 0.0
C1420 C 0.28586 0.52186 0.46596 0.0
C1421 C 0.20896 0.4977 0.46803 0.0
C1422 C 0.38847 0.55491 0.46346 0.0
C1423 C 0.36295 0.53973 0.46382 0.0
C1424 C 0.30942 0.50896 0.47739 0.0
C1425 C 0.24655 0.50197 0.47363 0.0
C1426 C 0.27228 0.50747 0.47243 0.0
C1427 C 0.35033 0.53645 0.47096 0.0
C1428 C 0.32311 0.52426 0.4711 0.0
H1429 H 0.21064 0.50614 0.48791 0.0
H1430 H 0.24975 0.50724 0.48632 0.0
H1431 H 0.27426 0.48921 0.48303 0.0
H1432 H 0.39916 0.57167 0.48282 0.0
H1433 H 0.35472 0.54547 0.48341 0.0
C1434 C 0.48314 0.70298 0.47657 0.0
C1435 C 0.48381 0.69224 0.46938 0.0
C1436 C 0.47881 0.72278 0.4767 0.0
C1437 C 0.44692 0.74647 0.46464 0.0
H1438 H 0.47079 0.79831 0.48031 0.0
C1439 C 0.40823 0.81213 0.46649 0.0
C1440 C 0.40202 0.81609 0.47409 0.0
C1441 C 0.42266 0.80115 0.46546 0.0
C1442 C 0.46393 0.78388 0.47591 0.0
H1443 H 0.4829 0.69533 0.45667 0.0
H1444 H 0.4759 0.73011 0.45689 0.0
H1445 H 0.48949 0.77234 0.4793 0.0
H1446 H 0.40679 0.8123 0.48658 0.0
H1447 H 0.43152 0.79274 0.48478 0.0
H1448 H 0.42088 0.75733 0.4614 0.0
C1449 C 0.47797 0.72281 0.46244 0.0
C1450 C 0.47465 0.76905 0.47533 0.0
C1451 C 0.4821 0.70295 0.46231 0.0
C1452 C 0.41117 0.80947 0.48064 0.0
C1453 C 0.42555 0.79844 0.47961 0.0
C1454 C 0.43623 0.76124 0.46522 0.0
C1455 C 0.47524 0.73228 0.46963 0.0
C1456 C 0.466 0.74993 0.46976 0.0
C1457 C 0.43116 0.79382 0.47201 0.0
C1458 C 0.44432 0.77987 0.47094 0.0
H1459 H 0.48441 0.69516 0.48212 0.0
H1460 H 0.47673 0.72957 0.48234 0.0
H1461 H 0.43944 0.7316 0.4604 0.0
H1462 H 0.40168 0.81721 0.46131 0.0
H1463 H 0.42696 0.79816 0.45953 0.0
C1464 C 0.27992 0.78049 0.49007 0.0
C1465 C 0.28431 0.79526 0.48337 0.0
C1466 C 0.25887 0.7572 0.49049 0.0
C1467 C 0.22047 0.7099 0.47629 0.0
H1468 H 0.18875 0.67136 0.49493 0.0
C1469 C 0.1619 0.60493 0.47435 0.0
C1470 C 0.16683 0.59203 0.48016 0.0
C1471 C 0.17015 0.62999 0.47526 0.0
C1472 C 0.19746 0.6819 0.48967 0.0
H1473 H 0.2687 0.79887 0.4724 0.0
H1474 H 0.23162 0.75869 0.47327 0.0
H1475 H 0.21325 0.71619 0.49591 0.0
H1476 H 0.18345 0.59516 0.49163 0.0
H1477 H 0.1984 0.63892 0.4931 0.0
H1478 H 0.20582 0.67587 0.47011 0.0
C1479 C 0.24479 0.76459 0.47805 0.0
C1480 C 0.21143 0.70756 0.49023 0.0
C1481 C 0.26595 0.78767 0.47758 0.0
C1482 C 0.1794 0.60455 0.48703 0.0
C1483 C 0.18778 0.62964 0.48791 0.0
C1484 C 0.2066 0.68437 0.47573 0.0
C1485 C 0.24178 0.74849 0.48426 0.0
C1486 C 0.22356 0.72181 0.48357 0.0
C1487 C 0.18367 0.64277 0.48197 0.0
C1488 C 0.19541 0.66999 0.48245 0.0
H1489 H 0.29377 0.78586 0.49462 0.0
H1490 H 0.25716 0.7453 0.49536 0.0
H1491 H 0.22996 0.72017 0.47106 0.0
H1492 H 0.15199 0.59577 0.46904 0.0
H1493 H 0.16632 0.63947 0.47063 0.0
C1494 C 0.24855 0.73248 0.36581 0.0
C1495 C 0.25687 0.74314 0.35835 0.0
C1496 C 0.23386 0.707 0.36659 0.0
C1497 C 0.19575 0.64909 0.3554 0.0
H1498 H 0.21592 0.62056 0.372 0.0
C1499 C 0.17769 0.54936 0.3552 0.0
C1500 C 0.17547 0.53771 0.36246 0.0
C1501 C 0.18152 0.5733 0.35495 0.0
C1502 C 0.2096 0.62813 0.36744 0.0
H1503 H 0.25558 0.73542 0.34583 0.0
H1504 H 0.23042 0.69101 0.34723 0.0
H1505 H 0.23456 0.66485 0.37114 0.0
H1506 H 0.17286 0.5409 0.37511 0.0
H1507 H 0.1789 0.58232 0.37467 0.0
H1508 H 0.17131 0.61215 0.35156 0.0
C1509 C 0.23493 0.70234 0.35246 0.0
C1510 C 0.22035 0.65361 0.36694 0.0
C1511 C 0.24956 0.72781 0.35167 0.0
C1512 C 0.17492 0.54956 0.36942 0.0
C1513 C 0.17851 0.57334 0.36917 0.0
C1514 C 0.18496 0.6235 0.3559 0.0
C1515 C 0.22722 0.69161 0.35995 0.0
C1516 C 0.21387 0.66444 0.36085 0.0
C1517 C 0.18297 0.5859 0.36197 0.0
C1518 C 0.19204 0.61276 0.36186 0.0
H1519 H 0.25362 0.74376 0.37106 0.0
H1520 H 0.22791 0.69934 0.37243 0.0
H1521 H 0.19012 0.65687 0.3507 0.0
H1522 H 0.17818 0.5407 0.34973 0.0
H1523 H 0.18497 0.58246 0.3493 0.0
C1524 C 0.27399 0.50718 0.35588 0.0
C1525 C 0.2612 0.4993 0.36306 0.0
C1526 C 0.29958 0.51824 0.35569 0.0
C1527 C 0.35175 0.55554 0.36842 0.0
H1528 H 0.38994 0.55112 0.3512 0.0
C1529 C 0.45404 0.62494 0.36643 0.0
C1530 C 0.46216 0.63581 0.35899 0.0
C1531 C 0.43171 0.60306 0.36722 0.0
C1532 C 0.37953 0.55258 0.35604 0.0
H1533 H 0.26512 0.49528 0.37559 0.0
H1534 H 0.30982 0.51455 0.37524 0.0
H1535 H 0.34591 0.5215 0.35206 0.0
H1536 H 0.45415 0.63153 0.34649 0.0
H1537 H 0.4147 0.59375 0.34787 0.0
H1538 H 0.38471 0.58719 0.37221 0.0
C1539 C 0.30003 0.51246 0.36978 0.0
C1540 C 0.35435 0.53559 0.35655 0.0
C1541 C 0.27442 0.50137 0.36997 0.0
C1542 C 0.44833 0.62353 0.35229 0.0
C1543 C 0.42575 0.60179 0.35309 0.0
C1544 C 0.37678 0.57254 0.3679 0.0
C1545 C 0.31293 0.52167 0.36268 0.0
C1546 C 0.34012 0.53722 0.36266 0.0
C1547 C 0.41677 0.59179 0.3606 0.0
C1548 C 0.39093 0.57161 0.36162 0.0
H1549 H 0.26436 0.50573 0.35043 0.0
H1550 H 0.30896 0.52531 0.35013 0.0
H1551 H 0.34125 0.55761 0.37312 0.0
H1552 H 0.46454 0.63382 0.37169 0.0
H1553 H 0.4257 0.59551 0.37306 0.0
C1554 C 0.39333 0.8522 0.35719 0.0
C1555 C 0.376 0.84191 0.35108 0.0
C1556 C 0.41496 0.85108 0.35696 0.0
C1557 C 0.45169 0.83099 0.34493 0.0
H1558 H 0.45566 0.80289 0.36484 0.0
C1559 C 0.48575 0.76162 0.34779 0.0
C1560 C 0.49765 0.76113 0.35475 0.0
C1561 C 0.47701 0.77805 0.34698 0.0
C1562 C 0.45534 0.81121 0.35928 0.0
H1563 H 0.36881 0.82473 0.33957 0.0
H1564 H 0.40624 0.82217 0.33924 0.0
H1565 H 0.43041 0.82184 0.36383 0.0
H1566 H 0.51094 0.77849 0.36613 0.0
H1567 H 0.49591 0.80735 0.36468 0.0
H1568 H 0.47592 0.81923 0.34033 0.0
C1569 C 0.40338 0.83138 0.34418 0.0
C1570 C 0.44083 0.82217 0.3587 0.0
C1571 C 0.38185 0.83281 0.34436 0.0
C1572 C 0.50158 0.77818 0.36073 0.0
C1573 C 0.49293 0.7947 0.3599 0.0
C1574 C 0.46628 0.81999 0.34552 0.0
C1575 C 0.41948 0.83929 0.35067 0.0
C1576 C 0.4383 0.83166 0.35147 0.0
C1577 C 0.48005 0.79445 0.35309 0.0
C1578 C 0.46774 0.8094 0.35266 0.0
H1579 H 0.38944 0.85966 0.36239 0.0
H1580 H 0.42734 0.85798 0.36195 0.0
H1581 H 0.45035 0.83837 0.3393 0.0
H1582 H 0.48248 0.74879 0.34304 0.0
H1583 H 0.4669 0.77711 0.34169 0.0
C1584 C 0.18053 0.16562 0.27752 0.0
C1585 C 0.17762 0.18462 0.2807 0.0
C1586 C 0.18637 0.16585 0.26959 0.0
C1587 C 0.20451 0.2025 0.25102 0.0
H1588 H 0.16432 0.13784 0.24182 0.0
C1589 C 0.20523 0.17944 0.21755 0.0
C1590 C 0.18188 0.16383 0.21429 0.0
C1591 C 0.20788 0.18403 0.22569 0.0
C1592 C 0.17564 0.15605 0.24428 0.0
H1593 H 0.17988 0.21953 0.27827 0.0
H1594 H 0.18909 0.2195 0.2642 0.0
H1595 H 0.16405 0.14288 0.25593 0.0
H1596 H 0.14297 0.14157 0.21698 0.0
H1597 H 0.14756 0.14974 0.23098 0.0
H1598 H 0.21512 0.21562 0.23917 0.0
C1599 C 0.18739 0.20466 0.26789 0.0
C1600 C 0.17578 0.15892 0.25241 0.0
C1601 C 0.18204 0.20467 0.27592 0.0
C1602 C 0.16129 0.1534 0.21928 0.0
C1603 C 0.16392 0.15802 0.22734 0.0
C1604 C 0.2043 0.1996 0.24282 0.0
C1605 C 0.18877 0.18477 0.26459 0.0
C1606 C 0.19007 0.18216 0.25591 0.0
C1607 C 0.18722 0.17305 0.23068 0.0
C1608 C 0.18951 0.17637 0.23936 0.0
H1609 H 0.17765 0.15016 0.28113 0.0
H1610 H 0.18809 0.15065 0.26733 0.0
H1611 H 0.21585 0.22062 0.25353 0.0
H1612 H 0.22141 0.18784 0.21383 0.0
H1613 H 0.22609 0.19567 0.2281 0.0
C1614 C 0.83909 0.05695 0.22935 0.0
C1615 C 0.82721 0.04912 0.22204 0.0
C1616 C 0.82596 0.04792 0.23635 0.0
C1617 C 0.77507 0.99102 0.24338 0.0
H1618 H 0.79204 0.02574 0.26333 0.0
C1619 C 0.77094 0.97289 0.27932 0.0
C1620 C 0.78226 0.95844 0.27927 0.0
C1621 C 0.76714 0.98205 0.27226 0.0
C1622 C 0.78657 0.01575 0.25781 0.0
H1623 H 0.79193 0.02716 0.21631 0.0
H1624 H 0.76892 0.01107 0.2286 0.0
H1625 H 0.80325 0.04899 0.25103 0.0
H1626 H 0.79646 0.9404 0.2718 0.0
H1627 H 0.78944 0.95588 0.25951 0.0
H1628 H 0.75972 0.95782 0.25016 0.0
C1629 C 0.78842 0.02422 0.22889 0.0
C1630 C 0.79317 0.02909 0.25077 0.0
C1631 C 0.80156 0.03357 0.22187 0.0
C1632 C 0.78774 0.95155 0.27201 0.0
C1633 C 0.78359 0.96033 0.26497 0.0
C1634 C 0.76863 0.9777 0.25042 0.0
C1635 C 0.80067 0.03063 0.23619 0.0
C1636 C 0.78841 0.01688 0.24349 0.0
C1637 C 0.77419 0.97649 0.26502 0.0
C1638 C 0.77524 0.98995 0.25771 0.0
H1639 H 0.85884 0.06897 0.22966 0.0
H1640 H 0.83601 0.05308 0.24186 0.0
H1641 H 0.77126 0.98106 0.23786 0.0
H1642 H 0.76665 0.97858 0.28484 0.0
H1643 H 0.75974 0.99436 0.27247 0.0
C1644 C 0.03322 0.81208 0.28252 0.0
C1645 C 0.02287 0.82633 0.28497 0.0
C1646 C 0.02919 0.80256 0.27483 0.0
C1647 C 0.98692 0.78655 0.25798 0.0
H1648 H 0.04401 0.80889 0.24451 0.0
C1649 C 0.97788 0.78176 0.22413 0.0
C1650 C 0.99201 0.80535 0.22087 0.0
C1651 C 0.98246 0.77703 0.23184 0.0
C1652 C 0.02787 0.80211 0.24822 0.0
H1653 H -0.00032 0.84118 0.2814 0.0
H1654 H 0.99244 0.82437 0.26816 0.0
H1655 H 0.04938 0.8137 0.25881 0.0
H1656 H 0.02298 0.84191 0.22285 0.0
H1657 H 0.03113 0.83365 0.23616 0.0
H1658 H 0.96552 0.7764 0.24741 0.0
C1659 C 0.00369 0.82057 0.27212 0.0
C1660 C 0.03095 0.80473 0.2564 0.0
C1661 C 0.00808 0.83043 0.27968 0.0
C1662 C 0.01165 0.82361 0.22524 0.0
C1663 C 0.01649 0.81879 0.23284 0.0
C1664 C 0.98382 0.78371 0.24983 0.0
C1665 C 0.01423 0.80664 0.26959 0.0
C1666 C 0.01059 0.79805 0.26131 0.0
C1667 C 0.0016 0.79568 0.23631 0.0
C1668 C 0.00437 0.79255 0.24484 0.0
H1669 H 0.04465 0.80861 0.28649 0.0
H1670 H 0.03765 0.79198 0.27298 0.0
H1671 H 0.97092 0.7811 0.26167 0.0
H1672 H 0.96263 0.76736 0.22087 0.0
H1673 H 0.97069 0.75905 0.23438 0.0
C1674 C 0.79575 0.76841 0.72373 0.0
C1675 C 0.82135 0.77831 0.72406 0.0
C1676 C 0.78227 0.76476 0.73067 0.0
C1677 C 0.78567 0.76397 0.75254 0.0
H1678 H 0.75415 0.80359 0.75187 0.0
C1679 C 0.78278 0.83715 0.77383 0.0
C1680 C 0.77702 0.82466 0.78107 0.0
C1681 C 0.7781 0.82422 0.76676 0.0
C1682 C 0.76249 0.79211 0.75214 0.0
H1683 H 0.85258 0.79006 0.73185 0.0
H1684 H 0.82913 0.78322 0.74392 0.0
H1685 H 0.76557 0.79163 0.7396 0.0
H1686 H 0.76022 0.78873 0.78658 0.0
H1687 H 0.75236 0.76606 0.77416 0.0
H1688 H 0.78416 0.76591 0.7651 0.0
C1689 C 0.81938 0.77839 0.73835 0.0
C1690 C 0.76886 0.78508 0.74511 0.0
C1691 C 0.83286 0.78244 0.73143 0.0
C1692 C 0.76479 0.79882 0.78108 0.0
C1693 C 0.76043 0.78586 0.77399 0.0
C1694 C 0.77913 0.77083 0.75957 0.0
C1695 C 0.79414 0.77049 0.73804 0.0
C1696 C 0.78158 0.77194 0.74526 0.0
C1697 C 0.76783 0.79853 0.76677 0.0
C1698 C 0.76853 0.78596 0.75945 0.0
H1699 H 0.78646 0.76522 0.71811 0.0
H1700 H 0.76282 0.75857 0.73027 0.0
H1701 H 0.79529 0.75368 0.75282 0.0
H1702 H 0.79217 0.85706 0.77365 0.0
H1703 H 0.78423 0.83457 0.76132 0.0
C1704 C 0.16958 0.00045 0.77366 0.0
C1705 C 0.1748 0.985 0.77825 0.0
C1706 C 0.18121 0.00942 0.76646 0.0
C1707 C 0.20726 0.99576 0.74978 0.0
H1708 H 0.22977 0.06404 0.74471 0.0
C1709 C 0.22269 0.03055 0.71757 0.0
C1710 C 0.20829 0.04138 0.71589 0.0
C1711 C 0.22739 0.02709 0.72541 0.0
C1712 C 0.22384 0.045 0.74604 0.0
H1713 H 0.19623 0.96664 0.77884 0.0
H1714 H 0.21621 0.98192 0.76595 0.0
H1715 H 0.22096 0.05025 0.75837 0.0
H1716 H 0.18903 0.05863 0.72099 0.0
H1717 H 0.19755 0.05312 0.73456 0.0
H1718 H 0.20853 0.99017 0.73736 0.0
C1719 C 0.20327 0.98724 0.76808 0.0
C1720 C 0.21882 0.03712 0.75385 0.0
C1721 C 0.19186 0.97852 0.77542 0.0
C1722 C 0.20016 0.0502 0.72212 0.0
C1723 C 0.20518 0.04716 0.7299 0.0
C1724 C 0.21222 0.00365 0.74193 0.0
C1725 C 0.19819 0.003 0.76359 0.0
C1726 C 0.20937 0.01221 0.75574 0.0
C1727 C 0.21819 0.03491 0.73165 0.0
C1728 C 0.21941 0.02811 0.73995 0.0
H1729 H 0.15663 0.00591 0.77567 0.0
H1730 H 0.17658 0.02116 0.76306 0.0
H1731 H 0.19993 0.97644 0.75108 0.0
H1732 H 0.22902 0.02343 0.71287 0.0
H1733 H 0.23751 0.01765 0.7266 0.0
C1734 C 0.01957 0.18263 0.72104 0.0
C1735 C 0.99755 0.17894 0.71769 0.0
C1736 C 0.02465 0.18869 0.72897 0.0
C1737 C 0.00425 0.2061 0.7473 0.0
H1738 H 0.02905 0.16672 0.75691 0.0
C1739 C 0.02624 0.20693 0.78098 0.0
C1740 C 0.01839 0.18356 0.78424 0.0
C1741 C 0.02466 0.20964 0.77282 0.0
C1742 C 0.02208 0.17783 0.75433 0.0
H1743 H 0.96418 0.18009 0.71985 0.0
H1744 H 0.97255 0.18975 0.73392 0.0
H1745 H 0.02486 0.16653 0.74274 0.0
H1746 H 0.00184 0.14466 0.78153 0.0
H1747 H -0.00105 0.14934 0.76749 0.0
H1748 H 0.0006 0.21645 0.75908 0.0
C1749 C 0.98616 0.18847 0.73036 0.0
C1750 C 0.01998 0.17801 0.74618 0.0
C1751 C 0.98129 0.18286 0.72232 0.0
C1752 C 0.00839 0.16299 0.77923 0.0
C1753 C 0.00679 0.16567 0.77115 0.0
C1754 C 0.00635 0.20588 0.75553 0.0
C1755 C 0.00753 0.19057 0.73382 0.0
C1756 C 0.01089 0.19197 0.74253 0.0
C1757 C 0.01527 0.18901 0.76782 0.0
C1758 C 0.01489 0.19137 0.75912 0.0
H1759 H 0.03263 0.18014 0.71755 0.0
H1760 H 0.04164 0.19094 0.73138 0.0
H1761 H 0.99733 0.21717 0.74467 0.0
H1762 H 0.0339 0.22311 0.78471 0.0
H1763 H 0.03135 0.22786 0.77041 0.0
C1764 C 0.87283 0.49293 0.56103 0.0
C1765 C 0.87912 0.50562 0.55383 0.0
C1766 C 0.87705 0.50566 0.56812 0.0
C1767 C 0.87561 0.55872 0.57538 0.0
H1768 H 0.88904 0.53778 0.59534 0.0
C1769 C 0.85887 0.56054 0.61125 0.0
C1770 C 0.83329 0.55082 0.61094 0.0
C1771 C 0.87233 0.56434 0.60429 0.0
C1772 C 0.88577 0.54436 0.58983 0.0
H1773 H 0.89621 0.54167 0.5484 0.0
H1774 H 0.90319 0.56402 0.56086 0.0
H1775 H 0.90072 0.52608 0.58307 0.0
H1776 H 0.80213 0.53968 0.60316 0.0
H1777 H 0.82553 0.54669 0.59107 0.0
H1778 H 0.85924 0.57567 0.58212 0.0
C1779 C 0.89514 0.54421 0.56099 0.0
C1780 C 0.8923 0.53749 0.5828 0.0
C1781 C 0.89129 0.53145 0.55388 0.0
C1782 C 0.82182 0.54712 0.60357 0.0
C1783 C 0.83528 0.55127 0.59664 0.0
C1784 C 0.8689 0.56543 0.58241 0.0
C1785 C 0.88732 0.53134 0.56816 0.0
C1786 C 0.88634 0.54371 0.5755 0.0
C1787 C 0.86047 0.5589 0.59693 0.0
C1788 C 0.87297 0.55743 0.58969 0.0
H1789 H 0.86345 0.47302 0.56116 0.0
H1790 H 0.87059 0.49517 0.57353 0.0
H1791 H 0.87064 0.56369 0.56984 0.0
H1792 H 0.86818 0.56347 0.61685 0.0
H1793 H 0.89175 0.57038 0.60468 0.0
C1794 C 0.51156 0.36969 0.56136 0.0
C1795 C 0.49475 0.36451 0.5552 0.0
C1796 C 0.50357 0.36466 0.56913 0.0
C1797 C 0.45168 0.32197 0.58085 0.0
H1798 H 0.49248 0.36421 0.59777 0.0
C1799 C 0.44832 0.30145 0.61537 0.0
C1800 C 0.47047 0.30233 0.61744 0.0
C1801 C 0.44531 0.30867 0.60781 0.0
C1802 C 0.48064 0.3524 0.59312 0.0
H1803 H 0.45641 0.35062 0.55235 0.0
H1804 H 0.44217 0.34126 0.5661 0.0
H1805 H 0.4983 0.38039 0.58438 0.0
H1806 H 0.50615 0.31009 0.61306 0.0
H1807 H 0.50091 0.32285 0.60003 0.0
H1808 H 0.43494 0.29362 0.58964 0.0
C1809 C 0.46161 0.34945 0.56484 0.0
C1810 C 0.484 0.36159 0.58547 0.0
C1811 C 0.46975 0.35493 0.55701 0.0
C1812 C 0.48892 0.30933 0.6117 0.0
C1813 C 0.486 0.3167 0.60424 0.0
C1814 C 0.44822 0.31278 0.58856 0.0
C1815 C 0.47848 0.35404 0.57097 0.0
C1816 C 0.47039 0.34616 0.5792 0.0
C1817 C 0.46448 0.31701 0.6023 0.0
C1818 C 0.46342 0.3277 0.59467 0.0
H1819 H 0.53095 0.37711 0.56014 0.0
H1820 H 0.517 0.36808 0.57369 0.0
H1821 H 0.44102 0.30963 0.57612 0.0
H1822 H 0.43379 0.29617 0.61967 0.0
H1823 H 0.42853 0.30876 0.60639 0.0
C1824 C 0.63013 0.11501 0.55398 0.0
C1825 C 0.63409 0.13799 0.55138 0.0
C1826 C 0.6313 0.11069 0.56205 0.0
C1827 C 0.62559 0.13372 0.58143 0.0
H1828 H 0.66458 0.10652 0.58965 0.0
C1829 C 0.63689 0.13166 0.61446 0.0
C1830 C 0.66104 0.14066 0.6171 0.0
C1831 C 0.63058 0.12407 0.60667 0.0
C1832 C 0.65359 0.1141 0.58744 0.0
H1833 H 0.64263 0.17446 0.55519 0.0
H1834 H 0.64463 0.16696 0.56907 0.0
H1835 H 0.65942 0.108 0.57536 0.0
H1836 H 0.69726 0.14747 0.61392 0.0
H1837 H 0.68662 0.13531 0.60011 0.0
H1838 H 0.62074 0.14122 0.5933 0.0
C1839 C 0.64035 0.15216 0.56496 0.0
C1840 C 0.65044 0.11471 0.57927 0.0
C1841 C 0.63931 0.15648 0.55697 0.0
C1842 C 0.67847 0.14046 0.61199 0.0
C1843 C 0.67231 0.13342 0.60409 0.0
C1844 C 0.62875 0.13319 0.58953 0.0
C1845 C 0.63619 0.12921 0.56761 0.0
C1846 C 0.63692 0.12514 0.5762 0.0
C1847 C 0.6485 0.1261 0.60127 0.0
C1848 C 0.64314 0.12378 0.59266 0.0
H1849 H 0.6262 0.10045 0.5498 0.0
H1850 H 0.628 0.09282 0.56394 0.0
H1851 H 0.61481 0.14159 0.57924 0.0
H1852 H 0.62307 0.13138 0.61835 0.0
H1853 H 0.61188 0.11778 0.60478 0.0
C1854 C 0.49812 0.12001 0.06613 0.0
C1855 C 0.48676 0.11658 0.05875 0.0
C1856 C 0.48443 0.11494 0.07304 0.0
C1857 C 0.43384 0.12053 0.08018 0.0
H1858 H 0.44859 0.09855 0.09972 0.0
C1859 C 0.43045 0.13063 0.11635 0.0
C1860 C 0.44359 0.15646 0.11661 0.0
C1861 C 0.42554 0.11833 0.10911 0.0
C1862 C 0.44368 0.10423 0.09432 0.0
H1863 H 0.45198 0.10379 0.05277 0.0
H1864 H 0.42795 0.09547 0.06494 0.0
H1865 H 0.45962 0.08767 0.08717 0.0
H1866 H 0.45983 0.18965 0.10955 0.0
H1867 H 0.45085 0.16833 0.09696 0.0
H1868 H 0.41954 0.1386 0.08735 0.0
C1869 C 0.44743 0.10181 0.06534 0.0
C1870 C 0.45016 0.09813 0.08713 0.0
C1871 C 0.46113 0.10643 0.05839 0.0
C1872 C 0.44972 0.16972 0.10952 0.0
C1873 C 0.44444 0.15747 0.1023 0.0
C1874 C 0.42757 0.12683 0.08737 0.0
C1875 C 0.45912 0.10675 0.07273 0.0
C1876 C 0.44632 0.10717 0.08002 0.0
C1877 C 0.43326 0.13171 0.10202 0.0
C1878 C 0.43345 0.11968 0.09452 0.0
H1879 H 0.51786 0.12781 0.06656 0.0
H1880 H 0.49403 0.11919 0.07863 0.0
H1881 H 0.43076 0.12787 0.0748 0.0
H1882 H 0.42562 0.11997 0.12174 0.0
H1883 H 0.41681 0.09846 0.10905 0.0
C1884 C 0.89788 0.36502 0.05203 0.0
C1885 C 0.88587 0.37883 0.052 0.0
C1886 C 0.90234 0.35668 0.05916 0.0
C1887 C 0.88305 0.32337 0.07364 0.0
H1888 H 0.89689 0.35813 0.09355 0.0
C1889 C 0.82779 0.2829 0.10161 0.0
C1890 C 0.83912 0.28982 0.10902 0.0
C1891 C 0.84161 0.29202 0.09474 0.0
C1892 C 0.89352 0.34817 0.08805 0.0
H1893 H 0.87135 0.39683 0.05935 0.0
H1894 H 0.87949 0.38275 0.07173 0.0
H1895 H 0.90918 0.38133 0.08124 0.0
H1896 H 0.87396 0.31051 0.11509 0.0
H1897 H 0.89822 0.32704 0.10301 0.0
H1898 H 0.86589 0.29017 0.08044 0.0
C1899 C 0.88537 0.37816 0.06631 0.0
C1900 C 0.9004 0.36147 0.081 0.0
C1901 C 0.88057 0.38614 0.0592 0.0
C1902 C 0.86481 0.30478 0.10944 0.0
C1903 C 0.87865 0.31433 0.10254 0.0
C1904 C 0.876 0.31008 0.08069 0.0
C1905 C 0.89525 0.36242 0.06636 0.0
C1906 C 0.89424 0.34916 0.07372 0.0
C1907 C 0.86703 0.30861 0.09514 0.0
C1908 C 0.88017 0.32232 0.08794 0.0
H1909 H 0.90208 0.35904 0.04655 0.0
H1910 H 0.91011 0.34468 0.05903 0.0
H1911 H 0.87791 0.31332 0.06813 0.0
H1912 H 0.80801 0.27139 0.10113 0.0
H1913 H 0.83207 0.28746 0.08914 0.0
C1914 C 0.69339 0.55335 0.11273 0.0
C1915 C 0.68049 0.52871 0.11522 0.0
C1916 C 0.68984 0.55967 0.10511 0.0
C1917 C 0.64757 0.53615 0.08792 0.0
H1918 H 0.70673 0.56805 0.07523 0.0
C1919 C 0.64364 0.53181 0.0539 0.0
C1920 C 0.65771 0.52179 0.05101 0.0
C1921 C 0.64713 0.54086 0.06164 0.0
C1922 C 0.69004 0.55947 0.07871 0.0
H1923 H 0.65296 0.49163 0.11187 0.0
H1924 H 0.64671 0.50259 0.09872 0.0
H1925 H 0.71006 0.56821 0.08957 0.0
H1926 H 0.6874 0.51475 0.05371 0.0
H1927 H 0.69356 0.53055 0.06706 0.0
H1928 H 0.6276 0.52586 0.07705 0.0
C1929 C 0.65952 0.51708 0.10259 0.0
C1930 C 0.69195 0.55973 0.08692 0.0
C1931 C 0.66334 0.51075 0.1101 0.0
C1932 C 0.67611 0.52215 0.0558 0.0
C1933 C 0.67985 0.5315 0.06343 0.0
C1934 C 0.64566 0.53599 0.07972 0.0
C1935 C 0.67295 0.54151 0.09995 0.0
C1936 C 0.67077 0.54699 0.09158 0.0
C1937 C 0.6651 0.54048 0.06651 0.0
C1938 C 0.66692 0.54657 0.07502 0.0
H1939 H 0.7067 0.56755 0.11657 0.0
H1940 H 0.70048 0.57864 0.10321 0.0
H1941 H 0.63093 0.52646 0.09139 0.0
H1942 H 0.62936 0.53177 0.05031 0.0
H1943 H 0.63549 0.54766 0.06387 0.0
C1944 C 0.51617 0.87213 0.94173 0.0
C1945 C 0.51716 0.85599 0.94723 0.0
C1946 C 0.52309 0.87193 0.93388 0.0
C1947 C 0.52641 0.82787 0.92023 0.0
H1948 H 0.54821 0.88129 0.90522 0.0
C1949 C 0.50419 0.80948 0.8876 0.0
C1950 C 0.52172 0.82414 0.88193 0.0
C1951 C 0.50833 0.81537 0.89556 0.0
C1952 C 0.54249 0.86628 0.90936 0.0
H1953 H 0.52811 0.82876 0.94917 0.0
H1954 H 0.5416 0.82945 0.93569 0.0
H1955 H 0.54905 0.88978 0.91933 0.0
H1956 H 0.55751 0.8565 0.88019 0.0
H1957 H 0.56488 0.86679 0.89427 0.0
H1958 H 0.51987 0.80438 0.91034 0.0
C1959 C 0.53449 0.84145 0.93724 0.0
C1960 C 0.54268 0.87108 0.91744 0.0
C1961 C 0.52701 0.84121 0.94498 0.0
C1962 C 0.54371 0.84479 0.88443 0.0
C1963 C 0.54785 0.85078 0.89247 0.0
C1964 C 0.52637 0.82314 0.91221 0.0
C1965 C 0.53147 0.85586 0.93148 0.0
C1966 C 0.53416 0.85181 0.92297 0.0
C1967 C 0.53015 0.83607 0.89812 0.0
C1968 C 0.53373 0.84212 0.90666 0.0
H1969 H 0.50844 0.88354 0.94336 0.0
H1970 H 0.52037 0.8832 0.92963 0.0
H1971 H 0.51931 0.81241 0.92424 0.0
H1972 H 0.48699 0.7935 0.88589 0.0
H1973 H 0.49408 0.80391 0.89972 0.0
C1974 C 0.10043 0.62965 0.94523 0.0
C1975 C 0.11172 0.61516 0.94501 0.0
C1976 C 0.096 0.63863 0.93824 0.0
C1977 C 0.0963 0.63434 0.91634 0.0
H1978 H 0.13103 0.70562 0.9171 0.0
C1979 C 0.16676 0.71385 0.8954 0.0
C1980 C 0.15483 0.70639 0.88809 0.0
C1981 C 0.15362 0.70465 0.90239 0.0
C1982 C 0.12091 0.68572 0.9168 0.0
H1983 H 0.12505 0.59679 0.93734 0.0
H1984 H 0.11703 0.61205 0.92518 0.0
H1985 H 0.12011 0.68218 0.92935 0.0
H1986 H 0.11952 0.68483 0.88234 0.0
H1987 H 0.0965 0.66836 0.89462 0.0
H1988 H 0.09867 0.63794 0.90379 0.0
C1989 C 0.11167 0.61665 0.93071 0.0
C1990 C 0.11446 0.67226 0.92382 0.0
C1991 C 0.11641 0.60799 0.93768 0.0
C1992 C 0.12917 0.69096 0.88791 0.0
C1993 C 0.11603 0.68142 0.89492 0.0
C1994 C 0.1026 0.6478 0.90933 0.0
C1995 C 0.10241 0.63291 0.93092 0.0
C1996 C 0.10314 0.64647 0.92365 0.0
C1997 C 0.1283 0.68753 0.90222 0.0
C1998 C 0.11601 0.67365 0.90949 0.0
H1999 H 0.09669 0.63553 0.95081 0.0
H2000 H 0.08868 0.651 0.93857 0.0
H2001 H 0.08736 0.61447 0.91604 0.0
H2002 H 0.18652 0.72577 0.89571 0.0
H2003 H 0.16369 0.70957 0.9079 0.0
C2004 C 0.31649 0.46309 0.8912 0.0
C2005 C 0.33258 0.48178 0.88608 0.0
C2006 C 0.32279 0.46358 0.89916 0.0
C2007 C 0.3626 0.50983 0.91387 0.0
H2008 H 0.33971 0.45374 0.92783 0.0
C2009 C 0.35579 0.52026 0.9469 0.0
C2010 C 0.363 0.50771 0.95214 0.0
C2011 C 0.35395 0.51536 0.93885 0.0
C2012 C 0.34651 0.46957 0.92398 0.0
H2013 H 0.36861 0.51411 0.88496 0.0
H2014 H 0.38018 0.51425 0.89863 0.0
H2015 H 0.33393 0.4472 0.91357 0.0
H2016 H 0.37374 0.47991 0.95302 0.0
H2017 H 0.3708 0.47149 0.9388 0.0
H2018 H 0.37532 0.53222 0.92417 0.0
C2019 C 0.36225 0.49988 0.8967 0.0
C2020 C 0.34296 0.46582 0.91582 0.0
C2021 C 0.35573 0.49972 0.88884 0.0
C2022 C 0.36826 0.48996 0.94912 0.0
C2023 C 0.36642 0.48504 0.941 0.0
C2024 C 0.36624 0.51353 0.92196 0.0
C2025 C 0.34546 0.48253 0.90205 0.0
C2026 C 0.3507 0.48595 0.91067 0.0
C2027 C 0.3594 0.49786 0.93578 0.0
C2028 C 0.35778 0.49349 0.92714 0.0
H2029 H 0.29849 0.4491 0.88918 0.0
H2030 H 0.30936 0.44995 0.90311 0.0
H2031 H 0.36846 0.52582 0.91015 0.0
H2032 H 0.35136 0.53388 0.949 0.0
H2033 H 0.34797 0.52519 0.93504 0.0
C2034 C 0.11975 0.50395 0.44269 0.0
C2035 C 0.11425 0.49058 0.44975 0.0
C2036 C 0.11461 0.49189 0.43544 0.0
C2037 C 0.11551 0.43986 0.42712 0.0
H2038 H 0.09942 0.46201 0.40787 0.0
C2039 C 0.12826 0.43998 0.39099 0.0
C2040 C 0.15399 0.4508 0.39094 0.0
C2041 C 0.11562 0.43583 0.39814 0.0
C2042 C 0.10342 0.45511 0.41319 0.0
H2043 H 0.09761 0.45402 0.45479 0.0
H2044 H 0.08907 0.43286 0.44205 0.0
H2045 H 0.08892 0.47248 0.42061 0.0
H2046 H 0.18643 0.46385 0.39825 0.0
H2047 H 0.16442 0.45599 0.41068 0.0
H2048 H 0.1316 0.42402 0.41971 0.0
C2049 C 0.09717 0.45268 0.44215 0.0
C2050 C 0.09756 0.46125 0.42047 0.0
C2051 C 0.10192 0.46476 0.44943 0.0
C2052 C 0.16659 0.45549 0.39813 0.0
C2053 C 0.15395 0.45087 0.40525 0.0
C2054 C 0.12161 0.43395 0.41984 0.0
C2055 C 0.10422 0.46622 0.4351 0.0
C2056 C 0.10447 0.45456 0.42751 0.0
C2057 C 0.12848 0.44189 0.40533 0.0
C2058 C 0.11653 0.4424 0.41281 0.0
H2059 H 0.12924 0.52387 0.44277 0.0
H2060 H 0.12048 0.50288 0.43012 0.0
H2061 H 0.12122 0.43457 0.43244 0.0
H2062 H 0.11817 0.43639 0.38551 0.0
H2063 H 0.09598 0.42888 0.39805 0.0
C2064 C 0.56346 0.69749 0.38459 0.0
C2065 C 0.55111 0.71098 0.38452 0.0
C2066 C 0.56845 0.6897 0.39174 0.0
C2067 C 0.55065 0.65749 0.40653 0.0
H2068 H 0.56562 0.69401 0.42612 0.0
C2069 C 0.49791 0.6191 0.43503 0.0
C2070 C 0.50974 0.62705 0.44234 0.0
C2071 C 0.51119 0.6276 0.42803 0.0
C2072 C 0.56195 0.68357 0.42071 0.0
H2073 H 0.53639 0.72887 0.39183 0.0
H2074 H 0.54547 0.7158 0.40426 0.0
H2075 H 0.57653 0.71606 0.41359 0.0
H2076 H 0.54493 0.64888 0.44811 0.0
H2077 H 0.56823 0.66431 0.4358 0.0
H2078 H 0.53455 0.62492 0.41364 0.0
C2079 C 0.55122 0.71104 0.39884 0.0
C2080 C 0.56804 0.69621 0.41354 0.0
C2081 C 0.54588 0.71844 0.39171 0.0
C2082 C 0.5354 0.64237 0.44254 0.0
C2083 C 0.54869 0.6513 0.43551 0.0
C2084 C 0.54438 0.64485 0.4137 0.0
C2085 C 0.56158 0.69572 0.39893 0.0
C2086 C 0.56143 0.68323 0.40637 0.0
C2087 C 0.53654 0.64458 0.4282 0.0
C2088 C 0.54897 0.65772 0.42085 0.0
H2089 H 0.56759 0.69139 0.37912 0.0
H2090 H 0.57655 0.67799 0.39164 0.0
H2091 H 0.54519 0.64694 0.40111 0.0
H2092 H 0.47813 0.60727 0.43471 0.0
H2093 H 0.50123 0.62227 0.42251 0.0
C2094 C 0.321 0.84466 0.44408 0.0
C2095 C 0.33915 0.86264 0.44896 0.0
C2096 C 0.31714 0.85054 0.4365 0.0
C2097 C 0.35085 0.89061 0.42041 0.0
H2098 H 0.2865 0.85787 0.41053 0.0
C2099 C 0.33402 0.84965 0.38975 0.0
C2100 C 0.3166 0.85026 0.38471 0.0
C2101 C 0.33769 0.85939 0.39732 0.0
C2102 C 0.30459 0.86766 0.41319 0.0
H2103 H 0.36691 0.90115 0.44985 0.0
H2104 H 0.36056 0.91142 0.43639 0.0
H2105 H 0.28974 0.86011 0.42488 0.0
H2106 H 0.28979 0.86219 0.38356 0.0
H2107 H 0.29575 0.87878 0.39703 0.0
H2108 H 0.36568 0.89692 0.40873 0.0
C2109 C 0.34921 0.89279 0.43852 0.0
C2110 C 0.30644 0.86878 0.42141 0.0
C2111 C 0.35283 0.88694 0.4462 0.0
C2112 C 0.30331 0.86146 0.38734 0.0
C2113 C 0.30671 0.87092 0.39502 0.0
C2114 C 0.34899 0.8894 0.4122 0.0
C2115 C 0.3315 0.87452 0.43357 0.0
C2116 C 0.32958 0.87921 0.4251 0.0
C2117 C 0.32384 0.86978 0.4001 0.0
C2118 C 0.32584 0.87687 0.40852 0.0
H2119 H 0.31001 0.82581 0.44606 0.0
H2120 H 0.30364 0.83595 0.43281 0.0
H2121 H 0.36892 0.89873 0.42308 0.0
H2122 H 0.34469 0.84132 0.38788 0.0
H2123 H 0.35071 0.85783 0.40112 0.0
C2124 C 0.24834 0.17218 0.16346 0.0
C2125 C 0.24146 0.17312 0.17127 0.0
C2126 C 0.26989 0.17171 0.16185 0.0
C2127 C 0.31096 0.15311 0.17113 0.0
H2128 H 0.35172 0.18424 0.15283 0.0
C2129 C 0.40355 0.15698 0.16481 0.0
C2130 C 0.40948 0.15581 0.15689 0.0
C2131 C 0.38184 0.15683 0.16674 0.0
C2132 C 0.34029 0.17514 0.1579 0.0
H2133 H 0.25263 0.17597 0.18351 0.0
H2134 H 0.29055 0.17562 0.18068 0.0
H2135 H 0.31832 0.19193 0.15598 0.0
H2136 H 0.39625 0.1513 0.14485 0.0
H2137 H 0.35824 0.15068 0.14823 0.0
H2138 H 0.33311 0.13644 0.17306 0.0
C2139 C 0.27897 0.1747 0.17581 0.0
C2140 C 0.32123 0.17964 0.15973 0.0
C2141 C 0.25738 0.17518 0.17742 0.0
C2142 C 0.39233 0.15243 0.15101 0.0
C2143 C 0.37066 0.15231 0.15293 0.0
C2144 C 0.3301 0.14866 0.16931 0.0
C2145 C 0.28507 0.17221 0.16802 0.0
C2146 C 0.30626 0.1686 0.16634 0.0
C2147 C 0.36567 0.1555 0.16078 0.0
C2148 C 0.34486 0.15951 0.16265 0.0
H2149 H 0.23648 0.17056 0.15859 0.0
H2150 H 0.27396 0.16966 0.15579 0.0
H2151 H 0.29949 0.14396 0.17619 0.0
H2152 H 0.41636 0.15957 0.16949 0.0
H2153 H 0.3785 0.1593 0.17284 0.0
C2154 C 0.81948 0.09263 0.18445 0.0
C2155 C 0.82335 0.07648 0.17973 0.0
C2156 C 0.81792 0.11206 0.18103 0.0
C2157 C 0.81154 0.13786 0.16206 0.0
H2158 H 0.85287 0.20038 0.17244 0.0
C2159 C 0.83489 0.22924 0.14717 0.0
C2160 C 0.83135 0.24559 0.1519 0.0
C2161 C 0.83548 0.20925 0.15057 0.0
C2162 C 0.84113 0.18306 0.1695 0.0
H2163 H 0.82642 0.06672 0.16768 0.0
H2164 H 0.82373 0.10054 0.16174 0.0
H2165 H 0.84696 0.16256 0.17845 0.0
H2166 H 0.82753 0.25488 0.16393 0.0
H2167 H 0.82865 0.22016 0.16983 0.0
H2168 H 0.80579 0.15842 0.1531 0.0
C2169 C 0.82194 0.09829 0.16807 0.0
C2170 C 0.8376 0.16136 0.17297 0.0
C2171 C 0.8235 0.07888 0.17149 0.0
C2172 C 0.83024 0.24259 0.16012 0.0
C2173 C 0.83091 0.22268 0.16351 0.0
C2174 C 0.81508 0.15958 0.15859 0.0
C2175 C 0.82015 0.11567 0.17282 0.0
C2176 C 0.82274 0.1385 0.16929 0.0
C2177 C 0.83269 0.20532 0.15875 0.0
C2178 C 0.82993 0.18243 0.16227 0.0
H2179 H 0.81916 0.09122 0.19081 0.0
H2180 H 0.81595 0.12482 0.18483 0.0
H2181 H 0.79983 0.12053 0.15912 0.0
H2182 H 0.83584 0.23105 0.14082 0.0
H2183 H 0.83737 0.19644 0.14676 0.0
C2184 C 0.90684 0.7306 0.18272 0.0
C2185 C 0.91895 0.7504 0.17746 0.0
C2186 C 0.88587 0.70897 0.18032 0.0
C2187 C 0.85004 0.67406 0.16287 0.0
H2188 H 0.79461 0.64952 0.1772 0.0
C2189 C 0.75352 0.59852 0.15336 0.0
C2190 C 0.74114 0.57915 0.15874 0.0
C2191 C 0.77441 0.62032 0.15569 0.0
C2192 C 0.80996 0.65602 0.17316 0.0
H2193 H 0.91951 0.76248 0.16545 0.0
H2194 H 0.88308 0.7248 0.16128 0.0
H2195 H 0.83417 0.68418 0.18113 0.0
H2196 H 0.74006 0.56802 0.17091 0.0
H2197 H 0.77643 0.60586 0.17495 0.0
H2198 H 0.82588 0.64584 0.15491 0.0
C2199 C 0.88971 0.72594 0.16724 0.0
C2200 C 0.83265 0.6758 0.17542 0.0
C2201 C 0.91057 0.74758 0.16964 0.0
C2202 C 0.74919 0.58258 0.16661 0.0
C2203 C 0.77003 0.60434 0.16894 0.0
C2204 C 0.82736 0.65424 0.16061 0.0
C2205 C 0.87673 0.70668 0.17262 0.0
C2206 C 0.85295 0.68502 0.17031 0.0
C2207 C 0.78329 0.62318 0.16345 0.0
C2208 C 0.80705 0.64498 0.16573 0.0
H2209 H 0.91285 0.73221 0.18878 0.0
H2210 H 0.87647 0.69425 0.18455 0.0
H2211 H 0.86539 0.68062 0.15883 0.0
H2212 H 0.74775 0.59646 0.14725 0.0
H2213 H 0.78396 0.6347 0.15136 0.0
C2214 C 0.16105 0.41065 0.34005 0.0
C2215 C 0.15876 0.41352 0.34816 0.0
C2216 C 0.15977 0.38922 0.33716 0.0
C2217 C 0.14243 0.32514 0.34208 0.0
H2218 H 0.19606 0.33749 0.32798 0.0
C2219 C 0.16399 0.24889 0.33443 0.0
C2220 C 0.16835 0.24648 0.32645 0.0
C2221 C 0.16378 0.26982 0.3371 0.0
C2222 C 0.18084 0.33368 0.33184 0.0
H2223 H 0.15146 0.39541 0.35953 0.0
H2224 H 0.14916 0.35796 0.35448 0.0
H2225 H 0.19074 0.37158 0.33228 0.0
H2226 H 0.17723 0.2647 0.31509 0.0
H2227 H 0.17672 0.3012 0.31973 0.0
H2228 H 0.1325 0.28724 0.34164 0.0
C2229 C 0.15198 0.37229 0.35035 0.0
C2230 C 0.17772 0.3532 0.33429 0.0
C2231 C 0.15329 0.39377 0.35325 0.0
C2232 C 0.17392 0.26606 0.32128 0.0
C2233 C 0.1736 0.28698 0.32395 0.0
C2234 C 0.14549 0.3056 0.33961 0.0
C2235 C 0.15612 0.37019 0.34232 0.0
C2236 C 0.15852 0.34915 0.33945 0.0
C2237 C 0.16783 0.28876 0.33184 0.0
C2238 C 0.16481 0.30966 0.3345 0.0
H2239 H 0.16511 0.42545 0.33596 0.0
H2240 H 0.16249 0.38788 0.33092 0.0
H2241 H 0.12733 0.32141 0.34599 0.0
H2242 H 0.15981 0.23419 0.33858 0.0
H2243 H 0.15989 0.27089 0.34326 0.0
C2244 C 0.58631 0.74855 0.33476 0.0
C2245 C 0.58236 0.74423 0.3429 0.0
C2246 C 0.60724 0.76947 0.33198 0.0
C2247 C 0.66856 0.82078 0.33766 0.0
H2248 H 0.65489 0.85647 0.32165 0.0
C2249 C 0.74163 0.9185 0.32891 0.0
C2250 C 0.74573 0.92253 0.32077 0.0
C2251 C 0.72048 0.89787 0.33172 0.0
C2252 C 0.65903 0.84666 0.32608 0.0
H2253 H 0.5982 0.75744 0.35447 0.0
H2254 H 0.63467 0.79391 0.34961 0.0
H2255 H 0.62212 0.81646 0.3261 0.0
H2256 H 0.72989 0.90922 0.3092 0.0
H2257 H 0.69302 0.87324 0.3141 0.0
H2258 H 0.70546 0.85095 0.33764 0.0
C2259 C 0.62162 0.78117 0.34538 0.0
C2260 C 0.64031 0.82367 0.3286 0.0
C2261 C 0.60069 0.76023 0.34816 0.0
C2262 C 0.72729 0.90665 0.31551 0.0
C2263 C 0.70614 0.88598 0.31832 0.0
C2264 C 0.68727 0.84376 0.33514 0.0
C2265 C 0.62465 0.78648 0.33727 0.0
C2266 C 0.64487 0.81045 0.33441 0.0
C2267 C 0.703 0.88086 0.32644 0.0
C2268 C 0.68271 0.85697 0.32933 0.0
H2269 H 0.57262 0.7365 0.33054 0.0
H2270 H 0.60936 0.77276 0.32569 0.0
H2271 H 0.67272 0.81096 0.34208 0.0
H2272 H 0.75539 0.93049 0.33312 0.0
H2273 H 0.71827 0.89472 0.33801 0.0
C2274 C 0.08426 0.81966 0.32115 0.0
C2275 C 0.0711 0.8236 0.32712 0.0
C2276 C 0.10568 0.81905 0.32295 0.0
C2277 C 0.14247 0.81505 0.33944 0.0
H2278 H 0.1975 0.85414 0.32554 0.0
C2279 C 0.2412 0.84144 0.34799 0.0
C2280 C 0.2544 0.83685 0.3422 0.0
C2281 C 0.21941 0.84112 0.34605 0.0
C2282 C 0.18228 0.84305 0.32945 0.0
H2283 H 0.06912 0.82824 0.33972 0.0
H2284 H 0.10642 0.82734 0.34284 0.0
H2285 H 0.15688 0.84775 0.3223 0.0
H2286 H 0.25603 0.83001 0.32974 0.0
H2287 H 0.21815 0.82962 0.32636 0.0
H2288 H 0.16796 0.81055 0.34662 0.0
C2289 C 0.10024 0.82463 0.33677 0.0
C2290 C 0.15896 0.83923 0.32757 0.0
C2291 C 0.07884 0.8252 0.33498 0.0
C2292 C 0.24626 0.83357 0.33435 0.0
C2293 C 0.22456 0.83338 0.3324 0.0
C2294 C 0.1658 0.81894 0.34133 0.0
C2295 C 0.11434 0.82236 0.33075 0.0
C2296 C 0.13879 0.82521 0.33255 0.0
C2297 C 0.21051 0.83638 0.33827 0.0
C2298 C 0.18596 0.83303 0.33636 0.0
H2299 H 0.07874 0.81826 0.31504 0.0
H2300 H 0.11585 0.81674 0.3182 0.0
H2301 H 0.12728 0.80393 0.34335 0.0
H2302 H 0.24699 0.84405 0.3541 0.0
H2303 H 0.20918 0.84394 0.35067 0.0
C2304 C 0.72453 0.81933 0.81594 0.0
C2305 C 0.74227 0.82256 0.82159 0.0
C2306 C 0.70291 0.8188 0.81822 0.0
C2307 C 0.66359 0.81369 0.83516 0.0
H2308 H 0.65095 0.85821 0.82281 0.0
C2309 C 0.59126 0.839 0.84489 0.0
C2310 C 0.57496 0.83755 0.83896 0.0
C2311 C 0.61282 0.83886 0.84293 0.0
C2312 C 0.65409 0.84557 0.82628 0.0
H2313 H 0.75021 0.82544 0.83411 0.0
H2314 H 0.7124 0.82439 0.83808 0.0
H2315 H 0.68405 0.85079 0.81898 0.0
H2316 H 0.56933 0.83656 0.82632 0.0
H2317 H 0.60673 0.83622 0.82292 0.0
H2318 H 0.6335 0.80834 0.84244 0.0
C2319 C 0.71526 0.82241 0.83189 0.0
C2320 C 0.67298 0.84122 0.82407 0.0
C2321 C 0.73694 0.82301 0.82961 0.0
C2322 C 0.58148 0.83768 0.83103 0.0
C2323 C 0.60299 0.83752 0.82908 0.0
C2324 C 0.6446 0.81797 0.83737 0.0
C2325 C 0.69855 0.82137 0.82619 0.0
C2326 C 0.67787 0.82515 0.82846 0.0
C2327 C 0.61851 0.83733 0.83501 0.0
C2328 C 0.63959 0.83391 0.83294 0.0
H2329 H 0.72798 0.81876 0.80971 0.0
H2330 H 0.69006 0.8174 0.81371 0.0
H2331 H 0.66688 0.80115 0.83864 0.0
H2332 H 0.5868 0.83899 0.85105 0.0
H2333 H 0.62468 0.83926 0.84763 0.0
C2334 C 0.14769 0.7534 0.8515 0.0
C2335 C 0.15305 0.73916 0.84635 0.0
C2336 C 0.14604 0.77341 0.84864 0.0
C2337 C 0.14283 0.80466 0.83044 0.0
H2338 H 0.18055 0.86369 0.84293 0.0
C2339 C 0.16911 0.90046 0.81841 0.0
C2340 C 0.16401 0.91503 0.82349 0.0
C2341 C 0.16877 0.87937 0.82125 0.0
C2342 C 0.16983 0.84734 0.8394 0.0
H2343 H 0.15863 0.73334 0.8341 0.0
H2344 H 0.1559 0.76822 0.82915 0.0
H2345 H 0.17415 0.82441 0.84779 0.0
H2346 H 0.1562 0.9199 0.8356 0.0
H2347 H 0.15579 0.88331 0.84053 0.0
H2348 H 0.13873 0.82774 0.82201 0.0
C2349 C 0.15296 0.76402 0.83538 0.0
C2350 C 0.16599 0.82479 0.84221 0.0
C2351 C 0.15456 0.74399 0.83823 0.0
C2352 C 0.16017 0.90902 0.83154 0.0
C2353 C 0.15997 0.88806 0.83437 0.0
C2354 C 0.14672 0.82725 0.82762 0.0
C2355 C 0.14972 0.77955 0.8406 0.0
C2356 C 0.15244 0.80318 0.83776 0.0
C2357 C 0.16352 0.8726 0.82921 0.0
C2358 C 0.16028 0.84883 0.83207 0.0
H2359 H 0.14626 0.75007 0.85779 0.0
H2360 H 0.14291 0.78468 0.85279 0.0
H2361 H 0.13214 0.78833 0.8269 0.0
H2362 H 0.17211 0.90459 0.81218 0.0
H2363 H 0.172 0.86802 0.81716 0.0
C2364 C 0.24466 0.40982 0.83528 0.0
C2365 C 0.25343 0.41432 0.84307 0.0
C2366 C 0.22306 0.38819 0.83336 0.0
C2367 C 0.16531 0.34274 0.84249 0.0
H2368 H 0.15562 0.30626 0.82312 0.0
C2369 C 0.078 0.24991 0.83602 0.0
C2370 C 0.06981 0.24428 0.82818 0.0
C2371 C 0.09961 0.27167 0.83782 0.0
C2372 C 0.15791 0.3165 0.82849 0.0
H2373 H 0.24725 0.39903 0.85486 0.0
H2374 H 0.20953 0.36111 0.85148 0.0
H2375 H 0.19626 0.34058 0.82628 0.0
H2376 H 0.07693 0.25788 0.81617 0.0
H2377 H 0.11441 0.29618 0.81935 0.0
H2378 H 0.12696 0.31885 0.84468 0.0
C2379 C 0.21923 0.37452 0.84689 0.0
C2380 C 0.18124 0.33605 0.83032 0.0
C2381 C 0.24095 0.3961 0.84881 0.0
C2382 C 0.08281 0.26163 0.82226 0.0
C2383 C 0.10443 0.28345 0.82407 0.0
C2384 C 0.14196 0.32327 0.84064 0.0
C2385 C 0.20971 0.37067 0.83919 0.0
C2386 C 0.18521 0.34932 0.83735 0.0
C2387 C 0.11347 0.28835 0.83184 0.0
C2388 C 0.13798 0.30988 0.83363 0.0
H2389 H 0.25388 0.42349 0.83072 0.0
H2390 H 0.21615 0.3858 0.82738 0.0
H2391 H 0.16769 0.35295 0.84788 0.0
H2392 H 0.06843 0.23694 0.84072 0.0
H2393 H 0.10609 0.27477 0.84386 0.0
C2394 C 0.83847 0.60267 0.64845 0.0
C2395 C 0.83453 0.58264 0.65318 0.0
C2396 C 0.83983 0.62359 0.65185 0.0
C2397 C 0.84569 0.65562 0.67082 0.0
H2398 H 0.8049 0.67718 0.66029 0.0
C2399 C 0.82259 0.72383 0.68564 0.0
C2400 C 0.82664 0.74394 0.68093 0.0
C2401 C 0.8217 0.70312 0.68222 0.0
C2402 C 0.81646 0.67148 0.66327 0.0
H2403 H 0.83107 0.56974 0.66522 0.0
H2404 H 0.83342 0.60613 0.67114 0.0
H2405 H 0.81085 0.64523 0.65431 0.0
H2406 H 0.8309 0.75727 0.66892 0.0
H2407 H 0.82924 0.72119 0.66299 0.0
H2408 H 0.85124 0.68184 0.6798 0.0
C2409 C 0.83542 0.60573 0.66481 0.0
C2410 C 0.82003 0.65329 0.65982 0.0
C2411 C 0.83406 0.58482 0.66141 0.0
C2412 C 0.82781 0.7421 0.67271 0.0
C2413 C 0.82684 0.72139 0.6693 0.0
C2414 C 0.8421 0.67379 0.67427 0.0
C2415 C 0.83734 0.62492 0.66005 0.0
C2416 C 0.8347 0.64516 0.66355 0.0
C2417 C 0.82469 0.70208 0.67405 0.0
C2418 C 0.82744 0.68191 0.67054 0.0
H2419 H 0.83903 0.60164 0.64209 0.0
H2420 H 0.8419 0.63835 0.64804 0.0
H2421 H 0.85726 0.64992 0.67381 0.0
H2422 H 0.82157 0.72463 0.69199 0.0
H2423 H 0.8195 0.68828 0.68602 0.0
C2424 C 0.39652 0.24119 0.65253 0.0
C2425 C 0.4117 0.25611 0.65866 0.0
C2426 C 0.3749 0.21925 0.65422 0.0
C2427 C 0.33147 0.1834 0.67028 0.0
H2428 H 0.32374 0.12715 0.65839 0.0
C2429 C 0.26366 0.08535 0.68031 0.0
C2430 C 0.24742 0.0699 0.67446 0.0
C2431 C 0.28471 0.1073 0.67824 0.0
C2432 C 0.32558 0.1427 0.66173 0.0
H2433 H 0.41509 0.26075 0.67135 0.0
H2434 H 0.37755 0.2226 0.67429 0.0
H2435 H 0.35621 0.16842 0.65483 0.0
H2436 H 0.24163 0.0643 0.66185 0.0
H2437 H 0.27844 0.10254 0.65825 0.0
H2438 H 0.30099 0.15767 0.67722 0.0
C2439 C 0.38226 0.22775 0.66818 0.0
C2440 C 0.34405 0.16635 0.65966 0.0
C2441 C 0.40385 0.24964 0.66649 0.0
C2442 C 0.25374 0.07582 0.6665 0.0
C2443 C 0.27485 0.09776 0.66443 0.0
C2444 C 0.31307 0.15976 0.67236 0.0
C2445 C 0.36801 0.21187 0.66207 0.0
C2446 C 0.34727 0.18697 0.66393 0.0
C2447 C 0.28999 0.11418 0.67028 0.0
C2448 C 0.31002 0.13914 0.66814 0.0
H2449 H 0.40202 0.2457 0.64643 0.0
H2450 H 0.36401 0.20765 0.64939 0.0
H2451 H 0.33327 0.19891 0.67363 0.0
H2452 H 0.2594 0.08127 0.6865 0.0
H2453 H 0.29638 0.11934 0.68287 0.0
C2454 C 0.75383 0.15347 0.6536 0.0
C2455 C 0.74332 0.1624 0.65905 0.0
C2456 C 0.77498 0.15255 0.65556 0.0
C2457 C 0.81407 0.15497 0.67226 0.0
H2458 H 0.86623 0.18215 0.65668 0.0
C2459 C 0.91177 0.17523 0.67977 0.0
C2460 C 0.92256 0.16682 0.67424 0.0
C2461 C 0.89065 0.17622 0.67782 0.0
C2462 C 0.85179 0.17435 0.66107 0.0
H2463 H 0.74586 0.17594 0.67098 0.0
H2464 H 0.78262 0.17428 0.67439 0.0
H2465 H 0.82637 0.17787 0.65355 0.0
H2466 H 0.92054 0.15427 0.66221 0.0
H2467 H 0.88378 0.15593 0.65883 0.0
H2468 H 0.83945 0.15138 0.67977 0.0
C2469 C 0.77458 0.168 0.66861 0.0
C2470 C 0.82893 0.17178 0.65926 0.0
C2471 C 0.75353 0.16902 0.66664 0.0
C2472 C 0.91266 0.1608 0.6666 0.0
C2473 C 0.8916 0.16182 0.66466 0.0
C2474 C 0.83693 0.1575 0.67406 0.0
C2475 C 0.78592 0.16039 0.66302 0.0
C2476 C 0.80981 0.16206 0.66484 0.0
C2477 C 0.87997 0.1689 0.67031 0.0
C2478 C 0.85606 0.16723 0.66849 0.0
H2479 H 0.74638 0.14822 0.64771 0.0
H2480 H 0.78309 0.14621 0.65118 0.0
H2481 H 0.79963 0.14721 0.67665 0.0
H2482 H 0.91899 0.18005 0.6857 0.0
H2483 H 0.88237 0.18221 0.68225 0.0
C2484 C 0.06361 0.48769 0.48597 0.0
C2485 C 0.08174 0.4902 0.49136 0.0
C2486 C 0.04252 0.48764 0.48861 0.0
C2487 C 0.00568 0.48254 0.5063 0.0
H2488 H 0.99072 0.52656 0.49461 0.0
C2489 C 0.93557 0.50787 0.51802 0.0
C2490 C 0.91757 0.50517 0.51255 0.0
C2491 C 0.95696 0.50834 0.51548 0.0
C2492 C 0.99458 0.51411 0.49791 0.0
H2493 H 0.091 0.49259 0.50377 0.0
H2494 H 0.05424 0.49248 0.50835 0.0
H2495 H 0.02318 0.51912 0.48998 0.0
H2496 H 0.90886 0.50296 0.5001 0.0
H2497 H 0.9461 0.5038 0.49569 0.0
H2498 H 0.97704 0.47748 0.51422 0.0
C2499 C 0.0563 0.4906 0.5021 0.0
C2500 C 0.01306 0.50971 0.49523 0.0
C2501 C 0.07741 0.49067 0.49946 0.0
C2502 C 0.92233 0.50499 0.50447 0.0
C2503 C 0.94372 0.5055 0.50193 0.0
C2504 C 0.98719 0.48693 0.50897 0.0
C2505 C 0.03911 0.49003 0.49668 0.0
C2506 C 0.01878 0.49383 0.49939 0.0
C2507 C 0.96081 0.50622 0.50743 0.0
C2508 C 0.98141 0.50275 0.5048 0.0
H2509 H 0.06633 0.48717 0.47969 0.0
H2510 H 0.0293 0.48662 0.48431 0.0
H2511 H 0.00952 0.47006 0.50959 0.0
H2512 H 0.93251 0.50816 0.52429 0.0
H2513 H 0.97008 0.50947 0.51985 0.0
C2514 C 0.48997 0.42934 0.51424 0.0
C2515 C 0.49437 0.41414 0.50922 0.0
C2516 C 0.48986 0.45004 0.51125 0.0
C2517 C 0.48705 0.48026 0.49283 0.0
H2518 H 0.52568 0.54036 0.50475 0.0
C2519 C 0.51021 0.57368 0.47987 0.0
C2520 C 0.50514 0.58849 0.48484 0.0
C2521 C 0.51137 0.55361 0.48292 0.0
C2522 C 0.51473 0.52372 0.50137 0.0
H2523 H 0.50038 0.40775 0.49707 0.0
H2524 H 0.50015 0.44373 0.49188 0.0
H2525 H 0.51931 0.50139 0.50997 0.0
H2526 H 0.49941 0.59515 0.49699 0.0
H2527 H 0.50143 0.56021 0.50229 0.0
H2528 H 0.48241 0.50253 0.48425 0.0
C2529 C 0.4968 0.43974 0.49811 0.0
C2530 C 0.51094 0.50137 0.50439 0.0
C2531 C 0.49698 0.41911 0.5011 0.0
C2532 C 0.50328 0.58405 0.493 0.0
C2533 C 0.50447 0.56401 0.49604 0.0
C2534 C 0.49083 0.50259 0.48982 0.0
C2535 C 0.49403 0.45586 0.50319 0.0
C2536 C 0.49705 0.47939 0.50015 0.0
C2537 C 0.50756 0.54802 0.491 0.0
C2538 C 0.50474 0.52458 0.49405 0.0
H2539 H 0.48787 0.426 0.52053 0.0
H2540 H 0.48719 0.46188 0.51529 0.0
H2541 H 0.47605 0.46362 0.48946 0.0
H2542 H 0.51184 0.57667 0.47356 0.0
H2543 H 0.51434 0.54192 0.4789 0.0
C2544 C 0.57991 0.07803 0.49959 0.0
C2545 C 0.58771 0.08342 0.50747 0.0
C2546 C 0.55861 0.05613 0.49766 0.0
C2547 C 0.50019 0.01034 0.50667 0.0
H2548 H 0.4918 0.97471 0.48719 0.0
C2549 C 0.41423 0.91689 0.49939 0.0
C2550 C 0.40587 0.91257 0.49155 0.0
C2551 C 0.43569 0.93852 0.50143 0.0
C2552 C 0.49379 0.98468 0.4926 0.0
H2553 H 0.58025 0.06929 0.51942 0.0
H2554 H 0.54332 0.03077 0.51601 0.0
H2555 H 0.53216 0.00907 0.4906 0.0
H2556 H 0.41266 0.92818 0.47979 0.0
H2557 H 0.45008 0.96608 0.48338 0.0
H2558 H 0.46181 0.98581 0.50869 0.0
C2559 C 0.55336 0.04378 0.51136 0.0
C2560 C 0.51693 0.0043 0.49457 0.0
C2561 C 0.57467 0.06573 0.5133 0.0
C2562 C 0.41863 0.93095 0.48588 0.0
C2563 C 0.44019 0.95254 0.48792 0.0
C2564 C 0.47707 0.99066 0.50471 0.0
C2565 C 0.54467 0.03909 0.50355 0.0
C2566 C 0.5204 0.0174 0.50162 0.0
C2567 C 0.44929 0.95623 0.49567 0.0
C2568 C 0.4736 0.97767 0.49765 0.0
H2569 H 0.58953 0.09126 0.49496 0.0
H2570 H 0.5524 0.05319 0.49159 0.0
H2571 H 0.50209 0.02035 0.51207 0.0
H2572 H 0.4048 0.9031 0.5039 0.0
H2573 H 0.44226 0.94078 0.50744 0.0
C2574 C 0.48526 0.06168 0.02137 0.0
C2575 C 0.49272 0.08212 0.01641 0.0
C2576 C 0.48282 0.03978 0.01841 0.0
C2577 C 0.48063 0.00664 0.99997 0.0
H2578 H 0.51172 0.97914 0.013 0.0
C2579 C 0.50402 0.93489 0.98795 0.0
C2580 C 0.49664 0.91408 0.99272 0.0
C2581 C 0.50398 0.95565 0.99093 0.0
C2582 C 0.50283 0.9865 0.00932 0.0
H2583 H 0.50158 0.09499 0.00434 0.0
H2584 H 0.49753 0.05701 0.99922 0.0
H2585 H 0.50742 0.0132 0.01797 0.0
H2586 H 0.48477 0.89919 0.00447 0.0
H2587 H 0.48491 0.9354 0.00966 0.0
H2588 H 0.47636 0.98007 0.99127 0.0
C2589 C 0.49347 0.05776 0.00538 0.0
C2590 C 0.50019 0.0059 0.01218 0.0
C2591 C 0.49586 0.07961 0.00833 0.0
C2592 C 0.49052 0.91493 0.00064 0.0
C2593 C 0.49065 0.93571 0.00362 0.0
C2594 C 0.48335 0.98728 0.99709 0.0
C2595 C 0.4878 0.0379 0.01044 0.0
C2596 C 0.4891 0.01624 0.00754 0.0
C2597 C 0.49678 0.95604 0.99874 0.0
C2598 C 0.49454 0.97705 0.00173 0.0
H2599 H 0.48258 0.06297 0.02762 0.0
H2600 H 0.47785 0.0246 0.02243 0.0
H2601 H 0.47177 0.014 0.99628 0.0
H2602 H 0.50879 0.93478 0.98182 0.0
H2603 H 0.50917 0.97123 0.98707 0.0
C2604 C 0.93508 0.42644 0.01548 0.0
C2605 C 0.91663 0.41006 0.01031 0.0
C2606 C 0.95592 0.44719 0.01255 0.0
C2607 C 0.97412 0.48849 0.99548 0.0
H2608 H 0.03969 0.5161 0.00421 0.0
C2609 C 0.06067 0.56931 0.98145 0.0
C2610 C 0.07967 0.58552 0.98648 0.0
C2611 C 0.03953 0.54923 0.98453 0.0
C2612 C 0.02138 0.50883 0.0018 0.0
H2613 H 0.90658 0.40143 0.99801 0.0
H2614 H 0.94317 0.43737 0.99292 0.0
H2615 H 0.00698 0.47662 0.00903 0.0
H2616 H 0.09039 0.59474 0.99872 0.0
H2617 H 0.05328 0.55999 0.00408 0.0
H2618 H 0.98854 0.52068 0.98824 0.0
C2619 C 0.9412 0.43453 0.99923 0.0
C2620 C 0.00269 0.48614 0.00453 0.0
C2621 C 0.92037 0.41379 0.00215 0.0
C2622 C 0.07617 0.58248 0.99468 0.0
C2623 C 0.05503 0.56241 0.99775 0.0
C2624 C 0.99281 0.51119 0.99275 0.0
C2625 C 0.95873 0.45192 0.00441 0.0
C2626 C 0.97887 0.47567 0.00138 0.0
C2627 C 0.03696 0.54502 0.9927 0.0
C2628 C 0.01667 0.5216 0.99587 0.0
H2629 H 0.93275 0.42411 0.0218 0.0
H2630 H 0.96909 0.46025 0.0167 0.0
H2631 H 0.95583 0.48117 0.99305 0.0
H2632 H 0.06278 0.57114 0.97511 0.0
H2633 H 0.02596 0.53617 0.98047 0.0
C2634 C 0.42148 0.49098 0.98912 0.0
C2635 C 0.40807 0.49404 0.99521 0.0
C2636 C 0.44316 0.49072 0.99078 0.0
C2637 C 0.49264 0.51517 0.0054 0.0
H2638 H 0.51241 0.47242 0.99529 0.0
C2639 C 0.5789 0.51073 0.01466 0.0
C2640 C 0.59176 0.50593 0.0088 0.0
C2641 C 0.55723 0.51075 0.01281 0.0
C2642 C 0.50734 0.48477 0.99807 0.0
H2643 H 0.40596 0.49747 0.00787 0.0
H2644 H 0.44362 0.49679 0.01076 0.0
H2645 H 0.47183 0.46696 0.9926 0.0
H2646 H 0.59298 0.49917 0.99632 0.0
H2647 H 0.55558 0.49989 0.99306 0.0
H2648 H 0.52816 0.53317 0.01082 0.0
C2649 C 0.43762 0.49507 0.00469 0.0
C2650 C 0.48403 0.48152 0.99656 0.0
C2651 C 0.41592 0.49523 0.00303 0.0
C2652 C 0.58338 0.50273 0.00098 0.0
C2653 C 0.56181 0.5029 0.99912 0.0
C2654 C 0.51599 0.51851 0.00688 0.0
C2655 C 0.45185 0.49359 0.99856 0.0
C2656 C 0.47639 0.49661 1.00024 0.0
C2657 C 0.54806 0.50614 0.00506 0.0
C2658 C 0.52361 0.50331 0.00325 0.0
H2659 H 0.41594 0.49004 0.98302 0.0
H2660 H 0.45376 0.48958 0.98593 0.0
H2661 H 0.48745 0.52741 0.0082 0.0
H2662 H 0.58482 0.51315 0.02075 0.0
H2663 H 0.54705 0.51318 0.01754 0.0
loop_
_geom_bond_atom_site_label_1
_geom_bond_atom_site_label_2
_geom_bond_distance
_geom_bond_site_symmetry_2
_ccdc_geom_bond_type
O0 Cd1 2.223 . S
O0 C8 1.315 . S
Cd1 O0 2.223 . S
Cd1 O4 2.297 . S
Cd1 O5 2.439 . S
Cd1 O11 2.240 . S
Cd2 O3 2.240 . S
Cd2 O10 2.223 . S
Cd2 O12 2.297 . S
Cd2 O13 2.439 . S
O3 Cd2 2.240 . S
O3 C8 1.279 . S
O4 Cd1 2.297 . S
O4 C6 1.247 . S
O5 Cd1 2.439 . S
O5 C6 1.208 . S
C6 O4 1.247 . S
C6 O5 1.208 . S
C7 O12 1.247 . S
C7 O13 1.208 . S
C8 O0 1.315 . S
C8 O3 1.279 . S
C9 O10 1.315 . S
C9 O11 1.279 . S
O10 Cd2 2.223 . S
O10 C9 1.315 . S
O11 Cd1 2.240 . S
O11 C9 1.279 . S
O12 Cd2 2.297 . S
O12 C7 1.247 . S
O13 Cd2 2.439 . S
O13 C7 1.208 . S
O14 Cd15 2.223 . S
O14 C22 1.315 . S
Cd15 O14 2.223 . S
Cd15 O18 2.297 . S
Cd15 O19 2.439 . S
Cd15 O25 2.240 1_545 S
Cd16 O17 2.240 . S
Cd16 O24 2.223 1_545 S
Cd16 O26 2.297 1_545 S
Cd16 O27 2.439 . S
O17 Cd16 2.240 . S
O17 C22 1.279 . S
O18 Cd15 2.297 . S
O18 C20 1.247 . S
O19 Cd15 2.439 . S
O19 C20 1.208 . S
C20 O18 1.247 . S
C20 O19 1.208 . S
C21 O26 1.247 . S
C21 O27 1.208 1_565 S
C22 O14 1.315 . S
C22 O17 1.279 . S
C23 O24 1.315 . S
C23 O25 1.279 . S
O24 Cd16 2.223 1_565 S
O24 C23 1.315 . S
O25 Cd15 2.240 1_565 S
O25 C23 1.279 . S
O26 Cd16 2.297 1_565 S
O26 C21 1.247 . S
O27 Cd16 2.439 . S
O27 C21 1.208 1_545 S
O28 Cd29 2.223 . S
O28 C36 1.315 . S
Cd29 O28 2.223 . S
Cd29 O32 2.297 . S
Cd29 O33 2.439 . S
Cd29 O39 2.240 1_655 S
Cd30 O31 2.240 . S
Cd30 O38 2.223 1_655 S
Cd30 O40 2.297 1_655 S
Cd30 O41 2.439 . S
O31 Cd30 2.240 . S
O31 C36 1.279 . S
O32 Cd29 2.297 . S
O32 C34 1.247 . S
O33 Cd29 2.439 . S
O33 C34 1.208 . S
C34 O32 1.247 . S
C34 O33 1.208 . S
C35 O40 1.247 . S
C35 O41 1.208 1_455 S
C36 O28 1.315 . S
C36 O31 1.279 . S
C37 O38 1.315 . S
C37 O39 1.279 . S
O38 Cd30 2.223 1_455 S
O38 C37 1.315 . S
O39 Cd29 2.240 1_455 S
O39 C37 1.279 . S
O40 Cd30 2.297 1_455 S
O40 C35 1.247 . S
O41 Cd30 2.439 . S
O41 C35 1.208 1_655 S
O42 Cd43 2.223 . S
O42 C50 1.315 . S
Cd43 O42 2.223 . S
Cd43 O46 2.297 . S
Cd43 O47 2.439 . S
Cd43 O53 2.240 . S
Cd44 O45 2.240 . S
Cd44 O52 2.223 . S
Cd44 O54 2.297 . S
Cd44 O55 2.439 . S
O45 Cd44 2.240 . S
O45 C50 1.279 . S
O46 Cd43 2.297 . S
O46 C48 1.247 . S
O47 Cd43 2.439 . S
O47 C48 1.208 . S
C48 O46 1.247 . S
C48 O47 1.208 . S
C49 O54 1.247 . S
C49 O55 1.208 . S
C50 O42 1.315 . S
C50 O45 1.279 . S
C51 O52 1.315 . S
C51 O53 1.279 . S
O52 Cd44 2.223 . S
O52 C51 1.315 . S
O53 Cd43 2.240 . S
O53 C51 1.279 . S
O54 Cd44 2.297 . S
O54 C49 1.247 . S
O55 Cd44 2.439 . S
O55 C49 1.208 . S
O56 Cd57 2.223 . S
O56 C64 1.315 . S
Cd57 O56 2.223 . S
Cd57 O60 2.297 . S
Cd57 O61 2.439 . S
Cd57 O67 2.240 1_565 S
Cd58 O59 2.240 . S
Cd58 O66 2.223 1_565 S
Cd58 O68 2.297 1_565 S
Cd58 O69 2.439 . S
O59 Cd58 2.240 . S
O59 C64 1.279 . S
O60 Cd57 2.297 . S
O60 C62 1.247 . S
O61 Cd57 2.439 . S
O61 C62 1.208 . S
C62 O60 1.247 . S
C62 O61 1.208 . S
C63 O68 1.247 . S
C63 O69 1.208 1_545 S
C64 O56 1.315 . S
C64 O59 1.279 . S
C65 O66 1.315 . S
C65 O67 1.279 . S
O66 Cd58 2.223 1_545 S
O66 C65 1.315 . S
O67 Cd57 2.240 1_545 S
O67 C65 1.279 . S
O68 Cd58 2.297 1_545 S
O68 C63 1.247 . S
O69 Cd58 2.439 . S
O69 C63 1.208 1_565 S
O70 Cd71 2.223 . S
O70 C78 1.315 . S
Cd71 O70 2.223 . S
Cd71 O74 2.297 . S
Cd71 O75 2.439 . S
Cd71 O81 2.240 1_455 S
Cd72 O73 2.240 . S
Cd72 O80 2.223 1_455 S
Cd72 O82 2.297 1_455 S
Cd72 O83 2.439 . S
O73 Cd72 2.240 . S
O73 C78 1.279 . S
O74 Cd71 2.297 . S
O74 C76 1.247 . S
O75 Cd71 2.439 . S
O75 C76 1.208 . S
C76 O74 1.247 . S
C76 O75 1.208 . S
C77 O82 1.247 . S
C77 O83 1.208 1_655 S
C78 O70 1.315 . S
C78 O73 1.279 . S
C79 O80 1.315 . S
C79 O81 1.279 . S
O80 Cd72 2.223 1_655 S
O80 C79 1.315 . S
O81 Cd71 2.240 1_655 S
O81 C79 1.279 . S
O82 Cd72 2.297 1_655 S
O82 C77 1.247 . S
O83 Cd72 2.439 . S
O83 C77 1.208 1_455 S
O84 Cd85 2.223 . S
O84 C92 1.315 . S
Cd85 O84 2.223 . S
Cd85 O88 2.297 . S
Cd85 O89 2.439 . S
Cd85 O95 2.240 . S
Cd86 O87 2.240 . S
Cd86 O94 2.223 . S
Cd86 O96 2.297 . S
Cd86 O97 2.439 . S
O87 Cd86 2.240 . S
O87 C92 1.279 . S
O88 Cd85 2.297 . S
O88 C90 1.247 . S
O89 Cd85 2.439 . S
O89 C90 1.208 . S
C90 O88 1.247 . S
C90 O89 1.208 . S
C91 O96 1.247 . S
C91 O97 1.208 . S
C92 O84 1.315 . S
C92 O87 1.279 . S
C93 O94 1.315 . S
C93 O95 1.279 . S
O94 Cd86 2.223 . S
O94 C93 1.315 . S
O95 Cd85 2.240 . S
O95 C93 1.279 . S
O96 Cd86 2.297 . S
O96 C91 1.247 . S
O97 Cd86 2.439 . S
O97 C91 1.208 . S
O98 Cd99 2.223 . S
O98 C106 1.315 . S
Cd99 O98 2.223 . S
Cd99 O102 2.297 . S
Cd99 O103 2.439 . S
Cd99 O109 2.240 1_565 S
Cd100 O101 2.240 . S
Cd100 O108 2.223 1_565 S
Cd100 O110 2.297 1_565 S
Cd100 O111 2.439 . S
O101 Cd100 2.240 . S
O101 C106 1.279 . S
O102 Cd99 2.297 . S
O102 C104 1.247 . S
O103 Cd99 2.439 . S
O103 C104 1.208 . S
C104 O102 1.247 . S
C104 O103 1.208 . S
C105 O110 1.247 . S
C105 O111 1.208 1_545 S
C106 O98 1.315 . S
C106 O101 1.279 . S
C107 O108 1.315 . S
C107 O109 1.279 . S
O108 Cd100 2.223 1_545 S
O108 C107 1.315 . S
O109 Cd99 2.240 1_545 S
O109 C107 1.279 . S
O110 Cd100 2.297 1_545 S
O110 C105 1.247 . S
O111 Cd100 2.439 . S
O111 C105 1.208 1_565 S
O112 Cd113 2.223 . S
O112 C120 1.315 . S
Cd113 O112 2.223 . S
Cd113 O116 2.297 . S
Cd113 O117 2.439 . S
Cd113 O123 2.240 1_455 S
Cd114 O115 2.240 . S
Cd114 O122 2.223 1_455 S
Cd114 O124 2.297 1_455 S
Cd114 O125 2.439 . S
O115 Cd114 2.240 . S
O115 C120 1.279 . S
O116 Cd113 2.297 . S
O116 C118 1.247 . S
O117 Cd113 2.439 . S
O117 C118 1.208 . S
C118 O116 1.247 . S
C118 O117 1.208 . S
C119 O124 1.247 . S
C119 O125 1.208 1_655 S
C120 O112 1.315 . S
C120 O115 1.279 . S
C121 O122 1.315 . S
C121 O123 1.279 . S
O122 Cd114 2.223 1_655 S
O122 C121 1.315 . S
O123 Cd113 2.240 1_655 S
O123 C121 1.279 . S
O124 Cd114 2.297 1_655 S
O124 C119 1.247 . S
O125 Cd114 2.439 . S
O125 C119 1.208 1_455 S
O126 Cd127 2.223 . S
O126 C134 1.315 . S
Cd127 O126 2.223 . S
Cd127 O130 2.297 . S
Cd127 O131 2.439 . S
Cd127 O137 2.240 . S
Cd128 O129 2.240 . S
Cd128 O136 2.223 . S
Cd128 O138 2.297 . S
Cd128 O139 2.439 . S
O129 Cd128 2.240 . S
O129 C134 1.279 . S
O130 Cd127 2.297 . S
O130 C132 1.247 . S
O131 Cd127 2.439 . S
O131 C132 1.208 . S
C132 O130 1.247 . S
C132 O131 1.208 . S
C133 O138 1.247 . S
C133 O139 1.208 . S
C134 O126 1.315 . S
C134 O129 1.279 . S
C135 O136 1.315 . S
C135 O137 1.279 . S
O136 Cd128 2.223 . S
O136 C135 1.315 . S
O137 Cd127 2.240 . S
O137 C135 1.279 . S
O138 Cd128 2.297 . S
O138 C133 1.247 . S
O139 Cd128 2.439 . S
O139 C133 1.208 . S
O140 Cd141 2.223 . S
O140 C148 1.315 . S
Cd141 O140 2.223 . S
Cd141 O144 2.297 . S
Cd141 O145 2.439 . S
Cd141 O151 2.240 1_545 S
Cd142 O143 2.240 . S
Cd142 O150 2.223 1_545 S
Cd142 O152 2.297 1_545 S
Cd142 O153 2.439 . S
O143 Cd142 2.240 . S
O143 C148 1.279 . S
O144 Cd141 2.297 . S
O144 C146 1.247 . S
O145 Cd141 2.439 . S
O145 C146 1.208 . S
C146 O144 1.247 . S
C146 O145 1.208 . S
C147 O152 1.247 . S
C147 O153 1.208 1_565 S
C148 O140 1.315 . S
C148 O143 1.279 . S
C149 O150 1.315 . S
C149 O151 1.279 . S
O150 Cd142 2.223 1_565 S
O150 C149 1.315 . S
O151 Cd141 2.240 1_565 S
O151 C149 1.279 . S
O152 Cd142 2.297 1_565 S
O152 C147 1.247 . S
O153 Cd142 2.439 . S
O153 C147 1.208 1_545 S
O154 Cd155 2.223 . S
O154 C162 1.315 . S
Cd155 O154 2.223 . S
Cd155 O158 2.297 . S
Cd155 O159 2.439 . S
Cd155 O165 2.240 1_655 S
Cd156 O157 2.240 . S
Cd156 O164 2.223 1_655 S
Cd156 O166 2.297 1_655 S
Cd156 O167 2.439 . S
O157 Cd156 2.240 . S
O157 C162 1.279 . S
O158 Cd155 2.297 . S
O158 C160 1.247 . S
O159 Cd155 2.439 . S
O159 C160 1.208 . S
C160 O158 1.247 . S
C160 O159 1.208 . S
C161 O166 1.247 . S
C161 O167 1.208 1_455 S
C162 O154 1.315 . S
C162 O157 1.279 . S
C163 O164 1.315 . S
C163 O165 1.279 . S
O164 Cd156 2.223 1_455 S
O164 C163 1.315 . S
O165 Cd155 2.240 1_455 S
O165 C163 1.279 . S
O166 Cd156 2.297 1_455 S
O166 C161 1.247 . S
O167 Cd156 2.439 . S
O167 C161 1.208 1_655 S
O168 Cd169 2.223 . S
O168 C176 1.315 . S
Cd169 O168 2.223 . S
Cd169 O172 2.297 . S
Cd169 O173 2.439 . S
Cd169 O179 2.240 . S
Cd170 O171 2.240 . S
Cd170 O178 2.223 . S
Cd170 O180 2.297 . S
Cd170 O181 2.439 . S
O171 Cd170 2.240 . S
O171 C176 1.279 . S
O172 Cd169 2.297 . S
O172 C174 1.247 . S
O173 Cd169 2.439 . S
O173 C174 1.208 . S
C174 O172 1.247 . S
C174 O173 1.208 . S
C175 O180 1.247 . S
C175 O181 1.208 . S
C176 O168 1.315 . S
C176 O171 1.279 . S
C177 O178 1.315 . S
C177 O179 1.279 . S
O178 Cd170 2.223 . S
O178 C177 1.315 . S
O179 Cd169 2.240 . S
O179 C177 1.279 . S
O180 Cd170 2.297 . S
O180 C175 1.247 . S
O181 Cd170 2.439 . S
O181 C175 1.208 . S
O182 Cd183 2.223 . S
O182 C190 1.315 . S
Cd183 O182 2.223 . S
Cd183 O186 2.297 . S
Cd183 O187 2.439 . S
Cd183 O193 2.240 . S
Cd184 O185 2.240 . S
Cd184 O192 2.223 . S
Cd184 O194 2.297 . S
Cd184 O195 2.439 . S
O185 Cd184 2.240 . S
O185 C190 1.279 . S
O186 Cd183 2.297 . S
O186 C188 1.247 . S
O187 Cd183 2.439 . S
O187 C188 1.208 . S
C188 O186 1.247 . S
C188 O187 1.208 . S
C189 O194 1.247 . S
C189 O195 1.208 . S
C190 O182 1.315 . S
C190 O185 1.279 . S
C191 O192 1.315 . S
C191 O193 1.279 . S
O192 Cd184 2.223 . S
O192 C191 1.315 . S
O193 Cd183 2.240 . S
O193 C191 1.279 . S
O194 Cd184 2.297 . S
O194 C189 1.247 . S
O195 Cd184 2.439 . S
O195 C189 1.208 . S
O196 Cd197 2.223 . S
O196 C204 1.315 . S
Cd197 O196 2.223 . S
Cd197 O200 2.297 . S
Cd197 O201 2.439 . S
Cd197 O207 2.240 . S
Cd198 O199 2.240 . S
Cd198 O206 2.223 . S
Cd198 O208 2.297 . S
Cd198 O209 2.439 . S
O199 Cd198 2.240 . S
O199 C204 1.279 . S
O200 Cd197 2.297 . S
O200 C202 1.247 . S
O201 Cd197 2.439 . S
O201 C202 1.208 . S
C202 O200 1.247 . S
C202 O201 1.208 . S
C203 O208 1.247 . S
C203 O209 1.208 . S
C204 O196 1.315 . S
C204 O199 1.279 . S
C205 O206 1.315 . S
C205 O207 1.279 . S
O206 Cd198 2.223 . S
O206 C205 1.315 . S
O207 Cd197 2.240 . S
O207 C205 1.279 . S
O208 Cd198 2.297 . S
O208 C203 1.247 . S
O209 Cd198 2.439 . S
O209 C203 1.208 . S
O210 Cd211 2.223 . S
O210 C218 1.315 . S
Cd211 O210 2.223 . S
Cd211 O214 2.297 . S
Cd211 O215 2.439 . S
Cd211 O221 2.240 . S
Cd212 O213 2.240 . S
Cd212 O220 2.223 . S
Cd212 O222 2.297 . S
Cd212 O223 2.439 . S
O213 Cd212 2.240 . S
O213 C218 1.279 . S
O214 Cd211 2.297 . S
O214 C216 1.247 . S
O215 Cd211 2.439 . S
O215 C216 1.208 . S
C216 O214 1.247 . S
C216 O215 1.208 . S
C217 O222 1.247 . S
C217 O223 1.208 . S
C218 O210 1.315 . S
C218 O213 1.279 . S
C219 O220 1.315 . S
C219 O221 1.279 . S
O220 Cd212 2.223 . S
O220 C219 1.315 . S
O221 Cd211 2.240 . S
O221 C219 1.279 . S
O222 Cd212 2.297 . S
O222 C217 1.247 . S
O223 Cd212 2.439 . S
O223 C217 1.208 . S
O224 Cd225 2.223 . S
O224 C232 1.315 . S
Cd225 O224 2.223 . S
Cd225 O228 2.297 . S
Cd225 O229 2.439 . S
Cd225 O235 2.240 . S
Cd226 O227 2.240 . S
Cd226 O234 2.223 . S
Cd226 O236 2.297 . S
Cd226 O237 2.439 . S
O227 Cd226 2.240 . S
O227 C232 1.279 . S
O228 Cd225 2.297 . S
O228 C230 1.247 . S
O229 Cd225 2.439 . S
O229 C230 1.208 . S
C230 O228 1.247 . S
C230 O229 1.208 . S
C231 O236 1.247 . S
C231 O237 1.208 . S
C232 O224 1.315 . S
C232 O227 1.279 . S
C233 O234 1.315 . S
C233 O235 1.279 . S
O234 Cd226 2.223 . S
O234 C233 1.315 . S
O235 Cd225 2.240 . S
O235 C233 1.279 . S
O236 Cd226 2.297 . S
O236 C231 1.247 . S
O237 Cd226 2.439 . S
O237 C231 1.208 . S
O238 Cd239 2.223 . S
O238 C246 1.315 . S
Cd239 O238 2.223 . S
Cd239 O242 2.297 . S
Cd239 O243 2.439 . S
Cd239 O249 2.240 . S
Cd240 O241 2.240 . S
Cd240 O248 2.223 . S
Cd240 O250 2.297 . S
Cd240 O251 2.439 . S
O241 Cd240 2.240 . S
O241 C246 1.279 . S
O242 Cd239 2.297 . S
O242 C244 1.247 . S
O243 Cd239 2.439 . S
O243 C244 1.208 . S
C244 O242 1.247 . S
C244 O243 1.208 . S
C245 O250 1.247 . S
C245 O251 1.208 . S
C246 O238 1.315 . S
C246 O241 1.279 . S
C247 O248 1.315 . S
C247 O249 1.279 . S
O248 Cd240 2.223 . S
O248 C247 1.315 . S
O249 Cd239 2.240 . S
O249 C247 1.279 . S
O250 Cd240 2.297 . S
O250 C245 1.247 . S
O251 Cd240 2.439 . S
O251 C245 1.208 . S
O252 Cd253 2.223 . S
O252 C260 1.315 . S
Cd253 O252 2.223 . S
Cd253 O256 2.297 . S
Cd253 O257 2.439 . S
Cd253 O263 2.240 . S
Cd254 O255 2.240 . S
Cd254 O262 2.223 . S
Cd254 O264 2.297 . S
Cd254 O265 2.439 . S
O255 Cd254 2.240 . S
O255 C260 1.279 . S
O256 Cd253 2.297 . S
O256 C258 1.247 . S
O257 Cd253 2.439 . S
O257 C258 1.208 . S
C258 O256 1.247 . S
C258 O257 1.208 . S
C259 O264 1.247 . S
C259 O265 1.208 . S
C260 O252 1.315 . S
C260 O255 1.279 . S
C261 O262 1.315 . S
C261 O263 1.279 . S
O262 Cd254 2.223 . S
O262 C261 1.315 . S
O263 Cd253 2.240 . S
O263 C261 1.279 . S
O264 Cd254 2.297 . S
O264 C259 1.247 . S
O265 Cd254 2.439 . S
O265 C259 1.208 . S
O266 Cd267 2.223 . S
O266 C274 1.315 . S
Cd267 O266 2.223 . S
Cd267 O270 2.297 . S
Cd267 O271 2.439 . S
Cd267 O277 2.240 . S
Cd268 O269 2.240 . S
Cd268 O276 2.223 . S
Cd268 O278 2.297 . S
Cd268 O279 2.439 . S
O269 Cd268 2.240 . S
O269 C274 1.279 . S
O270 Cd267 2.297 . S
O270 C272 1.247 . S
O271 Cd267 2.439 . S
O271 C272 1.208 . S
C272 O270 1.247 . S
C272 O271 1.208 . S
C273 O278 1.247 . S
C273 O279 1.208 . S
C274 O266 1.315 . S
C274 O269 1.279 . S
C275 O276 1.315 . S
C275 O277 1.279 . S
O276 Cd268 2.223 . S
O276 C275 1.315 . S
O277 Cd267 2.240 . S
O277 C275 1.279 . S
O278 Cd268 2.297 . S
O278 C273 1.247 . S
O279 Cd268 2.439 . S
O279 C273 1.208 . S
O280 Cd281 2.223 . S
O280 C288 1.315 . S
Cd281 O280 2.223 . S
Cd281 O284 2.297 . S
Cd281 O285 2.439 . S
Cd281 O291 2.240 . S
Cd282 O283 2.240 . S
Cd282 O290 2.223 . S
Cd282 O292 2.297 . S
Cd282 O293 2.439 . S
O283 Cd282 2.240 . S
O283 C288 1.279 . S
O284 Cd281 2.297 . S
O284 C286 1.247 . S
O285 Cd281 2.439 . S
O285 C286 1.208 . S
C286 O284 1.247 . S
C286 O285 1.208 . S
C287 O292 1.247 . S
C287 O293 1.208 . S
C288 O280 1.315 . S
C288 O283 1.279 . S
C289 O290 1.315 . S
C289 O291 1.279 . S
O290 Cd282 2.223 . S
O290 C289 1.315 . S
O291 Cd281 2.240 . S
O291 C289 1.279 . S
O292 Cd282 2.297 . S
O292 C287 1.247 . S
O293 Cd282 2.439 . S
O293 C287 1.208 . S
O294 Cd295 2.223 . S
O294 C302 1.315 . S
Cd295 O294 2.223 . S
Cd295 O298 2.297 . S
Cd295 O299 2.439 . S
Cd295 O305 2.240 . S
Cd296 O297 2.240 . S
Cd296 O304 2.223 . S
Cd296 O306 2.297 . S
Cd296 O307 2.439 . S
O297 Cd296 2.240 . S
O297 C302 1.279 . S
O298 Cd295 2.297 . S
O298 C300 1.247 . S
O299 Cd295 2.439 . S
O299 C300 1.208 . S
C300 O298 1.247 . S
C300 O299 1.208 . S
C301 O306 1.247 . S
C301 O307 1.208 . S
C302 O294 1.315 . S
C302 O297 1.279 . S
C303 O304 1.315 . S
C303 O305 1.279 . S
O304 Cd296 2.223 . S
O304 C303 1.315 . S
O305 Cd295 2.240 . S
O305 C303 1.279 . S
O306 Cd296 2.297 . S
O306 C301 1.247 . S
O307 Cd296 2.439 . S
O307 C301 1.208 . S
O308 Cd309 2.223 . S
O308 C316 1.315 . S
Cd309 O308 2.223 . S
Cd309 O312 2.297 . S
Cd309 O313 2.439 . S
Cd309 O319 2.240 . S
Cd310 O311 2.240 . S
Cd310 O318 2.223 . S
Cd310 O320 2.297 . S
Cd310 O321 2.439 . S
O311 Cd310 2.240 . S
O311 C316 1.279 . S
O312 Cd309 2.297 . S
O312 C314 1.247 . S
O313 Cd309 2.439 . S
O313 C314 1.208 . S
C314 O312 1.247 . S
C314 O313 1.208 . S
C315 O320 1.247 . S
C315 O321 1.208 . S
C316 O308 1.315 . S
C316 O311 1.279 . S
C317 O318 1.315 . S
C317 O319 1.279 . S
O318 Cd310 2.223 . S
O318 C317 1.315 . S
O319 Cd309 2.240 . S
O319 C317 1.279 . S
O320 Cd310 2.297 . S
O320 C315 1.247 . S
O321 Cd310 2.439 . S
O321 C315 1.208 . S
O322 Cd323 2.223 . S
O322 C330 1.315 . S
Cd323 O322 2.223 . S
Cd323 O326 2.297 . S
Cd323 O327 2.439 . S
Cd323 O333 2.240 . S
Cd324 O325 2.240 . S
Cd324 O332 2.223 . S
Cd324 O334 2.297 . S
Cd324 O335 2.439 . S
O325 Cd324 2.240 . S
O325 C330 1.279 . S
O326 Cd323 2.297 . S
O326 C328 1.247 . S
O327 Cd323 2.439 . S
O327 C328 1.208 . S
C328 O326 1.247 . S
C328 O327 1.208 . S
C329 O334 1.247 . S
C329 O335 1.208 . S
C330 O322 1.315 . S
C330 O325 1.279 . S
C331 O332 1.315 . S
C331 O333 1.279 . S
O332 Cd324 2.223 . S
O332 C331 1.315 . S
O333 Cd323 2.240 . S
O333 C331 1.279 . S
O334 Cd324 2.297 . S
O334 C329 1.247 . S
O335 Cd324 2.439 . S
O335 C329 1.208 . S
O336 Cd337 2.223 . S
O336 C344 1.315 . S
Cd337 O336 2.223 . S
Cd337 O340 2.297 . S
Cd337 O341 2.439 . S
Cd337 O347 2.240 . S
Cd338 O339 2.240 . S
Cd338 O346 2.223 . S
Cd338 O348 2.297 . S
Cd338 O349 2.439 . S
O339 Cd338 2.240 . S
O339 C344 1.279 . S
O340 Cd337 2.297 . S
O340 C342 1.247 . S
O341 Cd337 2.439 . S
O341 C342 1.208 . S
C342 O340 1.247 . S
C342 O341 1.208 . S
C343 O348 1.247 . S
C343 O349 1.208 . S
C344 O336 1.315 . S
C344 O339 1.279 . S
C345 O346 1.315 . S
C345 O347 1.279 . S
O346 Cd338 2.223 . S
O346 C345 1.315 . S
O347 Cd337 2.240 . S
O347 C345 1.279 . S
O348 Cd338 2.297 . S
O348 C343 1.247 . S
O349 Cd338 2.439 . S
O349 C343 1.208 . S
O350 Cd351 2.223 . S
O350 C358 1.315 . S
Cd351 O350 2.223 . S
Cd351 O354 2.297 . S
Cd351 O355 2.439 . S
Cd351 O361 2.240 . S
Cd352 O353 2.240 . S
Cd352 O360 2.223 . S
Cd352 O362 2.297 . S
Cd352 O363 2.439 . S
O353 Cd352 2.240 . S
O353 C358 1.279 . S
O354 Cd351 2.297 . S
O354 C356 1.247 . S
O355 Cd351 2.439 . S
O355 C356 1.208 . S
C356 O354 1.247 . S
C356 O355 1.208 . S
C357 O362 1.247 . S
C357 O363 1.208 . S
C358 O350 1.315 . S
C358 O353 1.279 . S
C359 O360 1.315 . S
C359 O361 1.279 . S
O360 Cd352 2.223 . S
O360 C359 1.315 . S
O361 Cd351 2.240 . S
O361 C359 1.279 . S
O362 Cd352 2.297 . S
O362 C357 1.247 . S
O363 Cd352 2.439 . S
O363 C357 1.208 . S
O364 Cd365 2.223 . S
O364 C372 1.315 . S
Cd365 O364 2.223 . S
Cd365 O368 2.297 . S
Cd365 O369 2.439 . S
Cd365 O375 2.240 . S
Cd366 O367 2.240 . S
Cd366 O374 2.223 . S
Cd366 O376 2.297 . S
Cd366 O377 2.439 . S
O367 Cd366 2.240 . S
O367 C372 1.279 . S
O368 Cd365 2.297 . S
O368 C370 1.247 . S
O369 Cd365 2.439 . S
O369 C370 1.208 . S
C370 O368 1.247 . S
C370 O369 1.208 . S
C371 O376 1.247 . S
C371 O377 1.208 . S
C372 O364 1.315 . S
C372 O367 1.279 . S
C373 O374 1.315 . S
C373 O375 1.279 . S
O374 Cd366 2.223 . S
O374 C373 1.315 . S
O375 Cd365 2.240 . S
O375 C373 1.279 . S
O376 Cd366 2.297 . S
O376 C371 1.247 . S
O377 Cd366 2.439 . S
O377 C371 1.208 . S
O378 Cd379 2.223 . S
O378 C386 1.315 . S
Cd379 O378 2.223 . S
Cd379 O382 2.297 . S
Cd379 O383 2.439 . S
Cd379 O389 2.240 . S
Cd380 O381 2.240 . S
Cd380 O388 2.223 . S
Cd380 O390 2.297 . S
Cd380 O391 2.439 . S
O381 Cd380 2.240 . S
O381 C386 1.279 . S
O382 Cd379 2.297 . S
O382 C384 1.247 . S
O383 Cd379 2.439 . S
O383 C384 1.208 . S
C384 O382 1.247 . S
C384 O383 1.208 . S
C385 O390 1.247 . S
C385 O391 1.208 . S
C386 O378 1.315 . S
C386 O381 1.279 . S
C387 O388 1.315 . S
C387 O389 1.279 . S
O388 Cd380 2.223 . S
O388 C387 1.315 . S
O389 Cd379 2.240 . S
O389 C387 1.279 . S
O390 Cd380 2.297 . S
O390 C385 1.247 . S
O391 Cd380 2.439 . S
O391 C385 1.208 . S
O392 Cd393 2.223 . S
O392 C400 1.315 . S
Cd393 O392 2.223 . S
Cd393 O396 2.297 . S
Cd393 O397 2.439 . S
Cd393 O403 2.240 . S
Cd394 O395 2.240 . S
Cd394 O402 2.223 . S
Cd394 O404 2.297 . S
Cd394 O405 2.439 . S
O395 Cd394 2.240 . S
O395 C400 1.279 . S
O396 Cd393 2.297 . S
O396 C398 1.247 . S
O397 Cd393 2.439 . S
O397 C398 1.208 . S
C398 O396 1.247 . S
C398 O397 1.208 . S
C399 O404 1.247 . S
C399 O405 1.208 . S
C400 O392 1.315 . S
C400 O395 1.279 . S
C401 O402 1.315 . S
C401 O403 1.279 . S
O402 Cd394 2.223 . S
O402 C401 1.315 . S
O403 Cd393 2.240 . S
O403 C401 1.279 . S
O404 Cd394 2.297 . S
O404 C399 1.247 . S
O405 Cd394 2.439 . S
O405 C399 1.208 . S
O406 Cd407 2.223 . S
O406 C414 1.315 . S
Cd407 O406 2.223 . S
Cd407 O410 2.297 . S
Cd407 O411 2.439 . S
Cd407 O417 2.240 . S
Cd408 O409 2.240 . S
Cd408 O416 2.223 . S
Cd408 O418 2.297 . S
Cd408 O419 2.439 . S
O409 Cd408 2.240 . S
O409 C414 1.279 . S
O410 Cd407 2.297 . S
O410 C412 1.247 . S
O411 Cd407 2.439 . S
O411 C412 1.208 . S
C412 O410 1.247 . S
C412 O411 1.208 . S
C413 O418 1.247 . S
C413 O419 1.208 . S
C414 O406 1.315 . S
C414 O409 1.279 . S
C415 O416 1.315 . S
C415 O417 1.279 . S
O416 Cd408 2.223 . S
O416 C415 1.315 . S
O417 Cd407 2.240 . S
O417 C415 1.279 . S
O418 Cd408 2.297 . S
O418 C413 1.247 . S
O419 Cd408 2.439 . S
O419 C413 1.208 . S
O420 Cd421 2.223 . S
O420 C428 1.315 . S
Cd421 O420 2.223 . S
Cd421 O424 2.297 . S
Cd421 O425 2.439 . S
Cd421 O431 2.240 . S
Cd422 O423 2.240 . S
Cd422 O430 2.223 . S
Cd422 O432 2.297 . S
Cd422 O433 2.439 . S
O423 Cd422 2.240 . S
O423 C428 1.279 . S
O424 Cd421 2.297 . S
O424 C426 1.247 . S
O425 Cd421 2.439 . S
O425 C426 1.208 . S
C426 O424 1.247 . S
C426 O425 1.208 . S
C427 O432 1.247 . S
C427 O433 1.208 . S
C428 O420 1.315 . S
C428 O423 1.279 . S
C429 O430 1.315 . S
C429 O431 1.279 . S
O430 Cd422 2.223 . S
O430 C429 1.315 . S
O431 Cd421 2.240 . S
O431 C429 1.279 . S
O432 Cd422 2.297 . S
O432 C427 1.247 . S
O433 Cd422 2.439 . S
O433 C427 1.208 . S
O434 Cd435 2.223 . S
O434 C442 1.315 . S
Cd435 O434 2.223 . S
Cd435 O438 2.297 . S
Cd435 O439 2.439 . S
Cd435 O445 2.240 . S
Cd436 O437 2.240 . S
Cd436 O444 2.223 . S
Cd436 O446 2.297 . S
Cd436 O447 2.439 . S
O437 Cd436 2.240 . S
O437 C442 1.279 . S
O438 Cd435 2.297 . S
O438 C440 1.247 . S
O439 Cd435 2.439 . S
O439 C440 1.208 . S
C440 O438 1.247 . S
C440 O439 1.208 . S
C441 O446 1.247 . S
C441 O447 1.208 . S
C442 O434 1.315 . S
C442 O437 1.279 . S
C443 O444 1.315 . S
C443 O445 1.279 . S
O444 Cd436 2.223 . S
O444 C443 1.315 . S
O445 Cd435 2.240 . S
O445 C443 1.279 . S
O446 Cd436 2.297 . S
O446 C441 1.247 . S
O447 Cd436 2.439 . S
O447 C441 1.208 . S
O448 Cd449 2.223 . S
O448 C456 1.315 . S
Cd449 O448 2.223 . S
Cd449 O452 2.297 . S
Cd449 O453 2.439 . S
Cd449 O459 2.240 . S
Cd450 O451 2.240 . S
Cd450 O458 2.223 . S
Cd450 O460 2.297 . S
Cd450 O461 2.439 . S
O451 Cd450 2.240 . S
O451 C456 1.279 . S
O452 Cd449 2.297 . S
O452 C454 1.247 . S
O453 Cd449 2.439 . S
O453 C454 1.208 . S
C454 O452 1.247 . S
C454 O453 1.208 . S
C455 O460 1.247 . S
C455 O461 1.208 . S
C456 O448 1.315 . S
C456 O451 1.279 . S
C457 O458 1.315 . S
C457 O459 1.279 . S
O458 Cd450 2.223 . S
O458 C457 1.315 . S
O459 Cd449 2.240 . S
O459 C457 1.279 . S
O460 Cd450 2.297 . S
O460 C455 1.247 . S
O461 Cd450 2.439 . S
O461 C455 1.208 . S
O462 Cd463 2.223 . S
O462 C470 1.315 . S
Cd463 O462 2.223 . S
Cd463 O466 2.297 . S
Cd463 O467 2.439 . S
Cd463 O473 2.240 . S
Cd464 O465 2.240 . S
Cd464 O472 2.223 . S
Cd464 O474 2.297 . S
Cd464 O475 2.439 . S
O465 Cd464 2.240 . S
O465 C470 1.279 . S
O466 Cd463 2.297 . S
O466 C468 1.247 . S
O467 Cd463 2.439 . S
O467 C468 1.208 . S
C468 O466 1.247 . S
C468 O467 1.208 . S
C469 O474 1.247 . S
C469 O475 1.208 . S
C470 O462 1.315 . S
C470 O465 1.279 . S
C471 O472 1.315 . S
C471 O473 1.279 . S
O472 Cd464 2.223 . S
O472 C471 1.315 . S
O473 Cd463 2.240 . S
O473 C471 1.279 . S
O474 Cd464 2.297 . S
O474 C469 1.247 . S
O475 Cd464 2.439 . S
O475 C469 1.208 . S
O476 Cd477 2.223 . S
O476 C484 1.315 . S
Cd477 O476 2.223 . S
Cd477 O480 2.297 . S
Cd477 O481 2.439 . S
Cd477 O487 2.240 . S
Cd478 O479 2.240 . S
Cd478 O486 2.223 . S
Cd478 O488 2.297 . S
Cd478 O489 2.439 . S
O479 Cd478 2.240 . S
O479 C484 1.279 . S
O480 Cd477 2.297 . S
O480 C482 1.247 . S
O481 Cd477 2.439 . S
O481 C482 1.208 . S
C482 O480 1.247 . S
C482 O481 1.208 . S
C483 O488 1.247 . S
C483 O489 1.208 . S
C484 O476 1.315 . S
C484 O479 1.279 . S
C485 O486 1.315 . S
C485 O487 1.279 . S
O486 Cd478 2.223 . S
O486 C485 1.315 . S
O487 Cd477 2.240 . S
O487 C485 1.279 . S
O488 Cd478 2.297 . S
O488 C483 1.247 . S
O489 Cd478 2.439 . S
O489 C483 1.208 . S
O490 Cd491 2.223 . S
O490 C498 1.315 . S
Cd491 O490 2.223 . S
Cd491 O494 2.297 . S
Cd491 O495 2.439 . S
Cd491 O501 2.240 . S
Cd492 O493 2.240 . S
Cd492 O500 2.223 . S
Cd492 O502 2.297 . S
Cd492 O503 2.439 . S
O493 Cd492 2.240 . S
O493 C498 1.279 . S
O494 Cd491 2.297 . S
O494 C496 1.247 . S
O495 Cd491 2.439 . S
O495 C496 1.208 . S
C496 O494 1.247 . S
C496 O495 1.208 . S
C497 O502 1.247 . S
C497 O503 1.208 . S
C498 O490 1.315 . S
C498 O493 1.279 . S
C499 O500 1.315 . S
C499 O501 1.279 . S
O500 Cd492 2.223 . S
O500 C499 1.315 . S
O501 Cd491 2.240 . S
O501 C499 1.279 . S
O502 Cd492 2.297 . S
O502 C497 1.247 . S
O503 Cd492 2.439 . S
O503 C497 1.208 . S
C504 C505 1.349 . S
C504 C506 1.327 . S
C504 H529 0.950 . S
C505 C504 1.349 . S
C505 C521 1.349 . S
C506 C504 1.327 . S
C506 C525 1.429 . S
C506 H530 0.950 . S
C507 C524 1.574 1_455 S
C507 C526 1.368 . S
C507 H531 0.949 . S
H508 C512 0.949 . S
C509 C510 1.349 . S
C509 C511 1.327 . S
C509 H532 0.950 . S
C510 C509 1.349 . S
C510 C522 1.349 . S
C511 C509 1.327 . S
C511 C527 1.429 . S
C511 H533 0.950 . S
C512 H508 0.949 . S
C512 C520 1.574 1_655 S
C512 C528 1.368 . S
H513 C521 0.950 . S
H514 C519 0.950 . S
H515 C520 0.949 . S
H516 C522 0.950 . S
H517 C523 0.950 . S
H518 C524 0.949 . S
C519 H514 0.950 . S
C519 C521 1.327 . S
C519 C525 1.429 . S
C520 C512 1.574 1_455 S
C520 H515 0.949 . S
C520 C526 1.368 . S
C521 C505 1.349 . S
C521 H513 0.950 . S
C521 C519 1.327 . S
C522 C510 1.349 . S
C522 H516 0.950 . S
C522 C523 1.327 . S
C523 H517 0.950 . S
C523 C522 1.327 . S
C523 C527 1.429 . S
C524 C507 1.574 1_655 S
C524 H518 0.949 . S
C524 C528 1.368 . S
C525 C506 1.429 . S
C525 C519 1.429 . S
C525 C526 1.523 . S
C526 C507 1.368 . S
C526 C520 1.368 . S
C526 C525 1.523 . S
C527 C511 1.429 . S
C527 C523 1.429 . S
C527 C528 1.523 . S
C528 C512 1.368 . S
C528 C524 1.368 . S
C528 C527 1.523 . S
H529 C504 0.950 . S
H530 C506 0.950 . S
H531 C507 0.949 . S
H532 C509 0.950 . S
H533 C511 0.950 . S
C534 C535 1.349 . S
C534 C536 1.327 . S
C534 H559 0.950 . S
C535 C534 1.349 . S
C535 C551 1.349 . S
C536 C534 1.327 . S
C536 C555 1.429 . S
C536 H560 0.950 . S
C537 C554 1.574 . S
C537 C556 1.368 . S
C537 H561 0.949 . S
H538 C542 0.949 . S
C539 C540 1.349 . S
C539 C541 1.327 . S
C539 H562 0.950 . S
C540 C539 1.349 . S
C540 C552 1.349 . S
C541 C539 1.327 . S
C541 C557 1.429 . S
C541 H563 0.950 . S
C542 H538 0.949 . S
C542 C550 1.574 . S
C542 C558 1.368 . S
H543 C551 0.950 . S
H544 C549 0.950 . S
H545 C550 0.949 . S
H546 C552 0.950 . S
H547 C553 0.950 . S
H548 C554 0.949 . S
C549 H544 0.950 . S
C549 C551 1.327 . S
C549 C555 1.429 . S
C550 C542 1.574 . S
C550 H545 0.949 . S
C550 C556 1.368 . S
C551 C535 1.349 . S
C551 H543 0.950 . S
C551 C549 1.327 . S
C552 C540 1.349 . S
C552 H546 0.950 . S
C552 C553 1.327 . S
C553 H547 0.950 . S
C553 C552 1.327 . S
C553 C557 1.429 . S
C554 C537 1.574 . S
C554 H548 0.949 . S
C554 C558 1.368 . S
C555 C536 1.429 . S
C555 C549 1.429 . S
C555 C556 1.523 . S
C556 C537 1.368 . S
C556 C550 1.368 . S
C556 C555 1.523 . S
C557 C541 1.429 . S
C557 C553 1.429 . S
C557 C558 1.523 . S
C558 C542 1.368 . S
C558 C554 1.368 . S
C558 C557 1.523 . S
H559 C534 0.950 . S
H560 C536 0.950 . S
H561 C537 0.949 . S
H562 C539 0.950 . S
H563 C541 0.950 . S
C564 C565 1.349 . S
C564 C566 1.327 . S
C564 H589 0.950 . S
C565 C564 1.349 . S
C565 C581 1.349 . S
C566 C564 1.327 . S
C566 C585 1.429 . S
C566 H590 0.950 . S
C567 C584 1.574 1_545 S
C567 C586 1.368 . S
C567 H591 0.949 . S
H568 C572 0.949 . S
C569 C570 1.349 . S
C569 C571 1.327 . S
C569 H592 0.950 . S
C570 C569 1.349 . S
C570 C582 1.349 . S
C571 C569 1.327 . S
C571 C587 1.429 . S
C571 H593 0.950 . S
C572 H568 0.949 . S
C572 C580 1.574 1_565 S
C572 C588 1.368 . S
H573 C581 0.950 . S
H574 C579 0.950 . S
H575 C580 0.949 . S
H576 C582 0.950 . S
H577 C583 0.950 . S
H578 C584 0.949 . S
C579 H574 0.950 . S
C579 C581 1.327 . S
C579 C585 1.429 . S
C580 C572 1.574 1_545 S
C580 H575 0.949 . S
C580 C586 1.368 . S
C581 C565 1.349 . S
C581 H573 0.950 . S
C581 C579 1.327 . S
C582 C570 1.349 . S
C582 H576 0.950 . S
C582 C583 1.327 . S
C583 H577 0.950 . S
C583 C582 1.327 . S
C583 C587 1.429 . S
C584 C567 1.574 1_565 S
C584 H578 0.949 . S
C584 C588 1.368 . S
C585 C566 1.429 . S
C585 C579 1.429 . S
C585 C586 1.523 . S
C586 C567 1.368 . S
C586 C580 1.368 . S
C586 C585 1.523 . S
C587 C571 1.429 . S
C587 C583 1.429 . S
C587 C588 1.523 . S
C588 C572 1.368 . S
C588 C584 1.368 . S
C588 C587 1.523 . S
H589 C564 0.950 . S
H590 C566 0.950 . S
H591 C567 0.949 . S
H592 C569 0.950 . S
H593 C571 0.950 . S
C594 C595 1.349 . S
C594 C596 1.327 . S
C594 H619 0.950 . S
C595 C594 1.349 . S
C595 C611 1.349 . S
C596 C594 1.327 . S
C596 C615 1.429 . S
C596 H620 0.950 . S
C597 C614 1.574 1_545 S
C597 C616 1.368 . S
C597 H621 0.949 . S
H598 C602 0.949 . S
C599 C600 1.349 . S
C599 C601 1.327 . S
C599 H622 0.950 . S
C600 C599 1.349 . S
C600 C612 1.349 . S
C601 C599 1.327 . S
C601 C617 1.429 . S
C601 H623 0.950 . S
C602 H598 0.949 . S
C602 C610 1.574 1_565 S
C602 C618 1.368 . S
H603 C611 0.950 . S
H604 C609 0.950 . S
H605 C610 0.949 . S
H606 C612 0.950 . S
H607 C613 0.950 . S
H608 C614 0.949 . S
C609 H604 0.950 . S
C609 C611 1.327 . S
C609 C615 1.429 . S
C610 C602 1.574 1_545 S
C610 H605 0.949 . S
C610 C616 1.368 . S
C611 C595 1.349 . S
C611 H603 0.950 . S
C611 C609 1.327 . S
C612 C600 1.349 . S
C612 H606 0.950 . S
C612 C613 1.327 . S
C613 H607 0.950 . S
C613 C612 1.327 . S
C613 C617 1.429 . S
C614 C597 1.574 1_565 S
C614 H608 0.949 . S
C614 C618 1.368 . S
C615 C596 1.429 . S
C615 C609 1.429 . S
C615 C616 1.523 . S
C616 C597 1.368 . S
C616 C610 1.368 . S
C616 C615 1.523 . S
C617 C601 1.429 . S
C617 C613 1.429 . S
C617 C618 1.523 . S
C618 C602 1.368 . S
C618 C614 1.368 . S
C618 C617 1.523 . S
H619 C594 0.950 . S
H620 C596 0.950 . S
H621 C597 0.949 . S
H622 C599 0.950 . S
H623 C601 0.950 . S
C624 C625 1.349 . S
C624 C626 1.327 . S
C624 H649 0.950 . S
C625 C624 1.349 . S
C625 C641 1.349 . S
C626 C624 1.327 . S
C626 C645 1.429 . S
C626 H650 0.950 . S
C627 C644 1.574 1_655 S
C627 C646 1.368 . S
C627 H651 0.949 . S
H628 C632 0.949 . S
C629 C630 1.349 . S
C629 C631 1.327 . S
C629 H652 0.950 . S
C630 C629 1.349 . S
C630 C642 1.349 . S
C631 C629 1.327 . S
C631 C647 1.429 . S
C631 H653 0.950 . S
C632 H628 0.949 . S
C632 C640 1.574 1_455 S
C632 C648 1.368 . S
H633 C641 0.950 . S
H634 C639 0.950 . S
H635 C640 0.949 . S
H636 C642 0.950 . S
H637 C643 0.950 . S
H638 C644 0.949 . S
C639 H634 0.950 . S
C639 C641 1.327 . S
C639 C645 1.429 . S
C640 C632 1.574 1_655 S
C640 H635 0.949 . S
C640 C646 1.368 . S
C641 C625 1.349 . S
C641 H633 0.950 . S
C641 C639 1.327 . S
C642 C630 1.349 . S
C642 H636 0.950 . S
C642 C643 1.327 . S
C643 H637 0.950 . S
C643 C642 1.327 . S
C643 C647 1.429 . S
C644 C627 1.574 1_455 S
C644 H638 0.949 . S
C644 C648 1.368 . S
C645 C626 1.429 . S
C645 C639 1.429 . S
C645 C646 1.523 . S
C646 C627 1.368 . S
C646 C640 1.368 . S
C646 C645 1.523 . S
C647 C631 1.429 . S
C647 C643 1.429 . S
C647 C648 1.523 . S
C648 C632 1.368 . S
C648 C644 1.368 . S
C648 C647 1.523 . S
H649 C624 0.950 . S
H650 C626 0.950 . S
H651 C627 0.949 . S
H652 C629 0.950 . S
H653 C631 0.950 . S
C654 C655 1.349 . S
C654 C656 1.327 . S
C654 H679 0.950 . S
C655 C654 1.349 . S
C655 C671 1.349 . S
C656 C654 1.327 . S
C656 C675 1.429 . S
C656 H680 0.950 . S
C657 C674 1.574 . S
C657 C676 1.368 . S
C657 H681 0.949 . S
H658 C662 0.949 . S
C659 C660 1.349 . S
C659 C661 1.327 . S
C659 H682 0.950 . S
C660 C659 1.349 . S
C660 C672 1.349 . S
C661 C659 1.327 . S
C661 C677 1.429 . S
C661 H683 0.950 . S
C662 H658 0.949 . S
C662 C670 1.574 . S
C662 C678 1.368 . S
H663 C671 0.950 . S
H664 C669 0.950 . S
H665 C670 0.949 . S
H666 C672 0.950 . S
H667 C673 0.950 . S
H668 C674 0.949 . S
C669 H664 0.950 . S
C669 C671 1.327 . S
C669 C675 1.429 . S
C670 C662 1.574 . S
C670 H665 0.949 . S
C670 C676 1.368 . S
C671 C655 1.349 . S
C671 H663 0.950 . S
C671 C669 1.327 . S
C672 C660 1.349 . S
C672 H666 0.950 . S
C672 C673 1.327 . S
C673 H667 0.950 . S
C673 C672 1.327 . S
C673 C677 1.429 . S
C674 C657 1.574 . S
C674 H668 0.949 . S
C674 C678 1.368 . S
C675 C656 1.429 . S
C675 C669 1.429 . S
C675 C676 1.523 . S
C676 C657 1.368 . S
C676 C670 1.368 . S
C676 C675 1.523 . S
C677 C661 1.429 . S
C677 C673 1.429 . S
C677 C678 1.523 . S
C678 C662 1.368 . S
C678 C674 1.368 . S
C678 C677 1.523 . S
H679 C654 0.950 . S
H680 C656 0.950 . S
H681 C657 0.949 . S
H682 C659 0.950 . S
H683 C661 0.950 . S
C684 C685 1.349 . S
C684 C686 1.327 . S
C684 H709 0.950 . S
C685 C684 1.349 . S
C685 C701 1.349 . S
C686 C684 1.327 . S
C686 C705 1.429 . S
C686 H710 0.950 . S
C687 C704 1.574 1_655 S
C687 C706 1.368 . S
C687 H711 0.949 . S
H688 C692 0.949 . S
C689 C690 1.349 . S
C689 C691 1.327 . S
C689 H712 0.950 . S
C690 C689 1.349 . S
C690 C702 1.349 . S
C691 C689 1.327 . S
C691 C707 1.429 . S
C691 H713 0.950 . S
C692 H688 0.949 . S
C692 C700 1.574 1_455 S
C692 C708 1.368 . S
H693 C701 0.950 . S
H694 C699 0.950 . S
H695 C700 0.949 . S
H696 C702 0.950 . S
H697 C703 0.950 . S
H698 C704 0.949 . S
C699 H694 0.950 . S
C699 C701 1.327 . S
C699 C705 1.429 . S
C700 C692 1.574 1_655 S
C700 H695 0.949 . S
C700 C706 1.368 . S
C701 C685 1.349 . S
C701 H693 0.950 . S
C701 C699 1.327 . S
C702 C690 1.349 . S
C702 H696 0.950 . S
C702 C703 1.327 . S
C703 H697 0.950 . S
C703 C702 1.327 . S
C703 C707 1.429 . S
C704 C687 1.574 1_455 S
C704 H698 0.949 . S
C704 C708 1.368 . S
C705 C686 1.429 . S
C705 C699 1.429 . S
C705 C706 1.523 . S
C706 C687 1.368 . S
C706 C700 1.368 . S
C706 C705 1.523 . S
C707 C691 1.429 . S
C707 C703 1.429 . S
C707 C708 1.523 . S
C708 C692 1.368 . S
C708 C704 1.368 . S
C708 C707 1.523 . S
H709 C684 0.950 . S
H710 C686 0.950 . S
H711 C687 0.949 . S
H712 C689 0.950 . S
H713 C691 0.950 . S
C714 C715 1.349 . S
C714 C716 1.327 . S
C714 H739 0.950 . S
C715 C714 1.349 . S
C715 C731 1.349 . S
C716 C714 1.327 . S
C716 C735 1.429 . S
C716 H740 0.950 . S
C717 C734 1.574 . S
C717 C736 1.368 . S
C717 H741 0.949 . S
H718 C722 0.949 . S
C719 C720 1.349 . S
C719 C721 1.327 . S
C719 H742 0.950 . S
C720 C719 1.349 . S
C720 C732 1.349 . S
C721 C719 1.327 . S
C721 C737 1.429 . S
C721 H743 0.950 . S
C722 H718 0.949 . S
C722 C730 1.574 . S
C722 C738 1.368 . S
H723 C731 0.950 . S
H724 C729 0.950 . S
H725 C730 0.949 . S
H726 C732 0.950 . S
H727 C733 0.950 . S
H728 C734 0.949 . S
C729 H724 0.950 . S
C729 C731 1.327 . S
C729 C735 1.429 . S
C730 C722 1.574 . S
C730 H725 0.949 . S
C730 C736 1.368 . S
C731 C715 1.349 . S
C731 H723 0.950 . S
C731 C729 1.327 . S
C732 C720 1.349 . S
C732 H726 0.950 . S
C732 C733 1.327 . S
C733 H727 0.950 . S
C733 C732 1.327 . S
C733 C737 1.429 . S
C734 C717 1.574 . S
C734 H728 0.949 . S
C734 C738 1.368 . S
C735 C716 1.429 . S
C735 C729 1.429 . S
C735 C736 1.523 . S
C736 C717 1.368 . S
C736 C730 1.368 . S
C736 C735 1.523 . S
C737 C721 1.429 . S
C737 C733 1.429 . S
C737 C738 1.523 . S
C738 C722 1.368 . S
C738 C734 1.368 . S
C738 C737 1.523 . S
H739 C714 0.950 . S
H740 C716 0.950 . S
H741 C717 0.949 . S
H742 C719 0.950 . S
H743 C721 0.950 . S
C744 C745 1.349 . S
C744 C746 1.327 . S
C744 H769 0.950 . S
C745 C744 1.349 . S
C745 C761 1.349 . S
C746 C744 1.327 . S
C746 C765 1.429 . S
C746 H770 0.950 . S
C747 C764 1.574 1_565 S
C747 C766 1.368 . S
C747 H771 0.949 . S
H748 C752 0.949 . S
C749 C750 1.349 . S
C749 C751 1.327 . S
C749 H772 0.950 . S
C750 C749 1.349 . S
C750 C762 1.349 . S
C751 C749 1.327 . S
C751 C767 1.429 . S
C751 H773 0.950 . S
C752 H748 0.949 . S
C752 C760 1.574 1_545 S
C752 C768 1.368 . S
H753 C761 0.950 . S
H754 C759 0.950 . S
H755 C760 0.949 . S
H756 C762 0.950 . S
H757 C763 0.950 . S
H758 C764 0.949 . S
C759 H754 0.950 . S
C759 C761 1.327 . S
C759 C765 1.429 . S
C760 C752 1.574 1_565 S
C760 H755 0.949 . S
C760 C766 1.368 . S
C761 C745 1.349 . S
C761 H753 0.950 . S
C761 C759 1.327 . S
C762 C750 1.349 . S
C762 H756 0.950 . S
C762 C763 1.327 . S
C763 H757 0.950 . S
C763 C762 1.327 . S
C763 C767 1.429 . S
C764 C747 1.574 1_545 S
C764 H758 0.949 . S
C764 C768 1.368 . S
C765 C746 1.429 . S
C765 C759 1.429 . S
C765 C766 1.523 . S
C766 C747 1.368 . S
C766 C760 1.368 . S
C766 C765 1.523 . S
C767 C751 1.429 . S
C767 C763 1.429 . S
C767 C768 1.523 . S
C768 C752 1.368 . S
C768 C764 1.368 . S
C768 C767 1.523 . S
H769 C744 0.950 . S
H770 C746 0.950 . S
H771 C747 0.949 . S
H772 C749 0.950 . S
H773 C751 0.950 . S
C774 C775 1.349 . S
C774 C776 1.327 . S
C774 H799 0.950 . S
C775 C774 1.349 . S
C775 C791 1.349 . S
C776 C774 1.327 . S
C776 C795 1.429 . S
C776 H800 0.950 . S
C777 C794 1.574 1_545 S
C777 C796 1.368 . S
C777 H801 0.949 . S
H778 C782 0.949 . S
C779 C780 1.349 . S
C779 C781 1.327 . S
C779 H802 0.950 . S
C780 C779 1.349 . S
C780 C792 1.349 . S
C781 C779 1.327 . S
C781 C797 1.429 . S
C781 H803 0.950 . S
C782 H778 0.949 . S
C782 C790 1.574 1_565 S
C782 C798 1.368 . S
H783 C791 0.950 . S
H784 C789 0.950 . S
H785 C790 0.949 . S
H786 C792 0.950 . S
H787 C793 0.950 . S
H788 C794 0.949 . S
C789 H784 0.950 . S
C789 C791 1.327 . S
C789 C795 1.429 . S
C790 C782 1.574 1_545 S
C790 H785 0.949 . S
C790 C796 1.368 . S
C791 C775 1.349 . S
C791 H783 0.950 . S
C791 C789 1.327 . S
C792 C780 1.349 . S
C792 H786 0.950 . S
C792 C793 1.327 . S
C793 H787 0.950 . S
C793 C792 1.327 . S
C793 C797 1.429 . S
C794 C777 1.574 1_565 S
C794 H788 0.949 . S
C794 C798 1.368 . S
C795 C776 1.429 . S
C795 C789 1.429 . S
C795 C796 1.523 . S
C796 C777 1.368 . S
C796 C790 1.368 . S
C796 C795 1.523 . S
C797 C781 1.429 . S
C797 C793 1.429 . S
C797 C798 1.523 . S
C798 C782 1.368 . S
C798 C794 1.368 . S
C798 C797 1.523 . S
H799 C774 0.950 . S
H800 C776 0.950 . S
H801 C777 0.949 . S
H802 C779 0.950 . S
H803 C781 0.950 . S
C804 C805 1.349 . S
C804 C806 1.327 . S
C804 H829 0.950 . S
C805 C804 1.349 . S
C805 C821 1.349 . S
C806 C804 1.327 . S
C806 C825 1.429 . S
C806 H830 0.950 . S
C807 C824 1.574 1_455 S
C807 C826 1.368 . S
C807 H831 0.949 . S
H808 C812 0.949 . S
C809 C810 1.349 . S
C809 C811 1.327 . S
C809 H832 0.950 . S
C810 C809 1.349 . S
C810 C822 1.349 . S
C811 C809 1.327 . S
C811 C827 1.429 . S
C811 H833 0.950 . S
C812 H808 0.949 . S
C812 C820 1.574 1_655 S
C812 C828 1.368 . S
H813 C821 0.950 . S
H814 C819 0.950 . S
H815 C820 0.949 . S
H816 C822 0.950 . S
H817 C823 0.950 . S
H818 C824 0.949 . S
C819 H814 0.950 . S
C819 C821 1.327 . S
C819 C825 1.429 . S
C820 C812 1.574 1_455 S
C820 H815 0.949 . S
C820 C826 1.368 . S
C821 C805 1.349 . S
C821 H813 0.950 . S
C821 C819 1.327 . S
C822 C810 1.349 . S
C822 H816 0.950 . S
C822 C823 1.327 . S
C823 H817 0.950 . S
C823 C822 1.327 . S
C823 C827 1.429 . S
C824 C807 1.574 1_655 S
C824 H818 0.949 . S
C824 C828 1.368 . S
C825 C806 1.429 . S
C825 C819 1.429 . S
C825 C826 1.523 . S
C826 C807 1.368 . S
C826 C820 1.368 . S
C826 C825 1.523 . S
C827 C811 1.429 . S
C827 C823 1.429 . S
C827 C828 1.523 . S
C828 C812 1.368 . S
C828 C824 1.368 . S
C828 C827 1.523 . S
H829 C804 0.950 . S
H830 C806 0.950 . S
H831 C807 0.949 . S
H832 C809 0.950 . S
H833 C811 0.950 . S
C834 C835 1.349 . S
C834 C836 1.327 . S
C834 H859 0.950 . S
C835 C834 1.349 . S
C835 C851 1.349 . S
C836 C834 1.327 . S
C836 C855 1.429 . S
C836 H860 0.950 . S
C837 C854 1.574 . S
C837 C856 1.368 . S
C837 H861 0.949 . S
H838 C842 0.949 . S
C839 C840 1.349 . S
C839 C841 1.327 . S
C839 H862 0.950 . S
C840 C839 1.349 . S
C840 C852 1.349 . S
C841 C839 1.327 . S
C841 C857 1.429 . S
C841 H863 0.950 . S
C842 H838 0.949 . S
C842 C850 1.574 . S
C842 C858 1.368 . S
H843 C851 0.950 . S
H844 C849 0.950 . S
H845 C850 0.949 . S
H846 C852 0.950 . S
H847 C853 0.950 . S
H848 C854 0.949 . S
C849 H844 0.950 . S
C849 C851 1.327 . S
C849 C855 1.429 . S
C850 C842 1.574 . S
C850 H845 0.949 . S
C850 C856 1.368 . S
C851 C835 1.349 . S
C851 H843 0.950 . S
C851 C849 1.327 . S
C852 C840 1.349 . S
C852 H846 0.950 . S
C852 C853 1.327 . S
C853 H847 0.950 . S
C853 C852 1.327 . S
C853 C857 1.429 . S
C854 C837 1.574 . S
C854 H848 0.949 . S
C854 C858 1.368 . S
C855 C836 1.429 . S
C855 C849 1.429 . S
C855 C856 1.523 . S
C856 C837 1.368 . S
C856 C850 1.368 . S
C856 C855 1.523 . S
C857 C841 1.429 . S
C857 C853 1.429 . S
C857 C858 1.523 . S
C858 C842 1.368 . S
C858 C854 1.368 . S
C858 C857 1.523 . S
H859 C834 0.950 . S
H860 C836 0.950 . S
H861 C837 0.949 . S
H862 C839 0.950 . S
H863 C841 0.950 . S
C864 C865 1.349 . S
C864 C866 1.327 . S
C864 H889 0.950 . S
C865 C864 1.349 . S
C865 C881 1.349 . S
C866 C864 1.327 . S
C866 C885 1.429 . S
C866 H890 0.950 . S
C867 C884 1.574 . S
C867 C886 1.368 . S
C867 H891 0.949 . S
H868 C872 0.949 . S
C869 C870 1.349 . S
C869 C871 1.327 . S
C869 H892 0.950 . S
C870 C869 1.349 . S
C870 C882 1.349 . S
C871 C869 1.327 . S
C871 C887 1.429 . S
C871 H893 0.950 . S
C872 H868 0.949 . S
C872 C880 1.574 . S
C872 C888 1.368 . S
H873 C881 0.950 . S
H874 C879 0.950 . S
H875 C880 0.949 . S
H876 C882 0.950 . S
H877 C883 0.950 . S
H878 C884 0.949 . S
C879 H874 0.950 . S
C879 C881 1.327 . S
C879 C885 1.429 . S
C880 C872 1.574 . S
C880 H875 0.949 . S
C880 C886 1.368 . S
C881 C865 1.349 . S
C881 H873 0.950 . S
C881 C879 1.327 . S
C882 C870 1.349 . S
C882 H876 0.950 . S
C882 C883 1.327 . S
C883 H877 0.950 . S
C883 C882 1.327 . S
C883 C887 1.429 . S
C884 C867 1.574 . S
C884 H878 0.949 . S
C884 C888 1.368 . S
C885 C866 1.429 . S
C885 C879 1.429 . S
C885 C886 1.523 . S
C886 C867 1.368 . S
C886 C880 1.368 . S
C886 C885 1.523 . S
C887 C871 1.429 . S
C887 C883 1.429 . S
C887 C888 1.523 . S
C888 C872 1.368 . S
C888 C884 1.368 . S
C888 C887 1.523 . S
H889 C864 0.950 . S
H890 C866 0.950 . S
H891 C867 0.949 . S
H892 C869 0.950 . S
H893 C871 0.950 . S
C894 C895 1.349 . S
C894 C896 1.327 . S
C894 H919 0.950 . S
C895 C894 1.349 . S
C895 C911 1.349 . S
C896 C894 1.327 . S
C896 C915 1.429 . S
C896 H920 0.950 . S
C897 C914 1.574 . S
C897 C916 1.368 . S
C897 H921 0.949 . S
H898 C902 0.949 . S
C899 C900 1.349 . S
C899 C901 1.327 . S
C899 H922 0.950 . S
C900 C899 1.349 . S
C900 C912 1.349 . S
C901 C899 1.327 . S
C901 C917 1.429 . S
C901 H923 0.950 . S
C902 H898 0.949 . S
C902 C910 1.574 . S
C902 C918 1.368 . S
H903 C911 0.950 . S
H904 C909 0.950 . S
H905 C910 0.949 . S
H906 C912 0.950 . S
H907 C913 0.950 . S
H908 C914 0.949 . S
C909 H904 0.950 . S
C909 C911 1.327 . S
C909 C915 1.429 . S
C910 C902 1.574 . S
C910 H905 0.949 . S
C910 C916 1.368 . S
C911 C895 1.349 . S
C911 H903 0.950 . S
C911 C909 1.327 . S
C912 C900 1.349 . S
C912 H906 0.950 . S
C912 C913 1.327 . S
C913 H907 0.950 . S
C913 C912 1.327 . S
C913 C917 1.429 . S
C914 C897 1.574 . S
C914 H908 0.949 . S
C914 C918 1.368 . S
C915 C896 1.429 . S
C915 C909 1.429 . S
C915 C916 1.523 . S
C916 C897 1.368 . S
C916 C910 1.368 . S
C916 C915 1.523 . S
C917 C901 1.429 . S
C917 C913 1.429 . S
C917 C918 1.523 . S
C918 C902 1.368 . S
C918 C914 1.368 . S
C918 C917 1.523 . S
H919 C894 0.950 . S
H920 C896 0.950 . S
H921 C897 0.949 . S
H922 C899 0.950 . S
H923 C901 0.950 . S
C924 C925 1.349 . S
C924 C926 1.327 . S
C924 H949 0.950 . S
C925 C924 1.349 . S
C925 C941 1.349 . S
C926 C924 1.327 . S
C926 C945 1.429 . S
C926 H950 0.950 . S
C927 C944 1.574 . S
C927 C946 1.368 . S
C927 H951 0.949 . S
H928 C932 0.949 . S
C929 C930 1.349 . S
C929 C931 1.327 . S
C929 H952 0.950 . S
C930 C929 1.349 . S
C930 C942 1.349 . S
C931 C929 1.327 . S
C931 C947 1.429 . S
C931 H953 0.950 . S
C932 H928 0.949 . S
C932 C940 1.574 . S
C932 C948 1.368 . S
H933 C941 0.950 . S
H934 C939 0.950 . S
H935 C940 0.949 . S
H936 C942 0.950 . S
H937 C943 0.950 . S
H938 C944 0.949 . S
C939 H934 0.950 . S
C939 C941 1.327 . S
C939 C945 1.429 . S
C940 C932 1.574 . S
C940 H935 0.949 . S
C940 C946 1.368 . S
C941 C925 1.349 . S
C941 H933 0.950 . S
C941 C939 1.327 . S
C942 C930 1.349 . S
C942 H936 0.950 . S
C942 C943 1.327 . S
C943 H937 0.950 . S
C943 C942 1.327 . S
C943 C947 1.429 . S
C944 C927 1.574 . S
C944 H938 0.949 . S
C944 C948 1.368 . S
C945 C926 1.429 . S
C945 C939 1.429 . S
C945 C946 1.523 . S
C946 C927 1.368 . S
C946 C940 1.368 . S
C946 C945 1.523 . S
C947 C931 1.429 . S
C947 C943 1.429 . S
C947 C948 1.523 . S
C948 C932 1.368 . S
C948 C944 1.368 . S
C948 C947 1.523 . S
H949 C924 0.950 . S
H950 C926 0.950 . S
H951 C927 0.949 . S
H952 C929 0.950 . S
H953 C931 0.950 . S
C954 C955 1.349 . S
C954 C956 1.327 . S
C954 H979 0.950 . S
C955 C954 1.349 . S
C955 C971 1.349 . S
C956 C954 1.327 . S
C956 C975 1.429 . S
C956 H980 0.950 . S
C957 C974 1.574 . S
C957 C976 1.368 . S
C957 H981 0.949 . S
H958 C962 0.949 . S
C959 C960 1.349 . S
C959 C961 1.327 . S
C959 H982 0.950 . S
C960 C959 1.349 . S
C960 C972 1.349 . S
C961 C959 1.327 . S
C961 C977 1.429 . S
C961 H983 0.950 . S
C962 H958 0.949 . S
C962 C970 1.574 . S
C962 C978 1.368 . S
H963 C971 0.950 . S
H964 C969 0.950 . S
H965 C970 0.949 . S
H966 C972 0.950 . S
H967 C973 0.950 . S
H968 C974 0.949 . S
C969 H964 0.950 . S
C969 C971 1.327 . S
C969 C975 1.429 . S
C970 C962 1.574 . S
C970 H965 0.949 . S
C970 C976 1.368 . S
C971 C955 1.349 . S
C971 H963 0.950 . S
C971 C969 1.327 . S
C972 C960 1.349 . S
C972 H966 0.950 . S
C972 C973 1.327 . S
C973 H967 0.950 . S
C973 C972 1.327 . S
C973 C977 1.429 . S
C974 C957 1.574 . S
C974 H968 0.949 . S
C974 C978 1.368 . S
C975 C956 1.429 . S
C975 C969 1.429 . S
C975 C976 1.523 . S
C976 C957 1.368 . S
C976 C970 1.368 . S
C976 C975 1.523 . S
C977 C961 1.429 . S
C977 C973 1.429 . S
C977 C978 1.523 . S
C978 C962 1.368 . S
C978 C974 1.368 . S
C978 C977 1.523 . S
H979 C954 0.950 . S
H980 C956 0.950 . S
H981 C957 0.949 . S
H982 C959 0.950 . S
H983 C961 0.950 . S
C984 C985 1.349 . S
C984 C986 1.327 . S
C984 H1009 0.950 . S
C985 C984 1.349 . S
C985 C1001 1.349 . S
C986 C984 1.327 . S
C986 C1005 1.429 . S
C986 H1010 0.950 . S
C987 C1004 1.574 . S
C987 C1006 1.368 . S
C987 H1011 0.949 . S
H988 C992 0.949 . S
C989 C990 1.349 . S
C989 C991 1.327 . S
C989 H1012 0.950 . S
C990 C989 1.349 . S
C990 C1002 1.349 . S
C991 C989 1.327 . S
C991 C1007 1.429 . S
C991 H1013 0.950 . S
C992 H988 0.949 . S
C992 C1000 1.574 . S
C992 C1008 1.368 . S
H993 C1001 0.950 . S
H994 C999 0.950 . S
H995 C1000 0.949 . S
H996 C1002 0.950 . S
H997 C1003 0.950 . S
H998 C1004 0.949 . S
C999 H994 0.950 . S
C999 C1001 1.327 . S
C999 C1005 1.429 . S
C1000 C992 1.574 . S
C1000 H995 0.949 . S
C1000 C1006 1.368 . S
C1001 C985 1.349 . S
C1001 H993 0.950 . S
C1001 C999 1.327 . S
C1002 C990 1.349 . S
C1002 H996 0.950 . S
C1002 C1003 1.327 . S
C1003 H997 0.950 . S
C1003 C1002 1.327 . S
C1003 C1007 1.429 . S
C1004 C987 1.574 . S
C1004 H998 0.949 . S
C1004 C1008 1.368 . S
C1005 C986 1.429 . S
C1005 C999 1.429 . S
C1005 C1006 1.523 . S
C1006 C987 1.368 . S
C1006 C1000 1.368 . S
C1006 C1005 1.523 . S
C1007 C991 1.429 . S
C1007 C1003 1.429 . S
C1007 C1008 1.523 . S
C1008 C992 1.368 . S
C1008 C1004 1.368 . S
C1008 C1007 1.523 . S
H1009 C984 0.950 . S
H1010 C986 0.950 . S
H1011 C987 0.949 . S
H1012 C989 0.950 . S
H1013 C991 0.950 . S
C1014 C1015 1.349 . S
C1014 C1016 1.327 . S
C1014 H1039 0.950 . S
C1015 C1014 1.349 . S
C1015 C1031 1.349 . S
C1016 C1014 1.327 . S
C1016 C1035 1.429 . S
C1016 H1040 0.950 . S
C1017 C1034 1.574 . S
C1017 C1036 1.368 . S
C1017 H1041 0.949 . S
H1018 C1022 0.949 . S
C1019 C1020 1.349 . S
C1019 C1021 1.327 . S
C1019 H1042 0.950 . S
C1020 C1019 1.349 . S
C1020 C1032 1.349 . S
C1021 C1019 1.327 . S
C1021 C1037 1.429 . S
C1021 H1043 0.950 . S
C1022 H1018 0.949 . S
C1022 C1030 1.574 . S
C1022 C1038 1.368 . S
H1023 C1031 0.950 . S
H1024 C1029 0.950 . S
H1025 C1030 0.949 . S
H1026 C1032 0.950 . S
H1027 C1033 0.950 . S
H1028 C1034 0.949 . S
C1029 H1024 0.950 . S
C1029 C1031 1.327 . S
C1029 C1035 1.429 . S
C1030 C1022 1.574 . S
C1030 H1025 0.949 . S
C1030 C1036 1.368 . S
C1031 C1015 1.349 . S
C1031 H1023 0.950 . S
C1031 C1029 1.327 . S
C1032 C1020 1.349 . S
C1032 H1026 0.950 . S
C1032 C1033 1.327 . S
C1033 H1027 0.950 . S
C1033 C1032 1.327 . S
C1033 C1037 1.429 . S
C1034 C1017 1.574 . S
C1034 H1028 0.949 . S
C1034 C1038 1.368 . S
C1035 C1016 1.429 . S
C1035 C1029 1.429 . S
C1035 C1036 1.523 . S
C1036 C1017 1.368 . S
C1036 C1030 1.368 . S
C1036 C1035 1.523 . S
C1037 C1021 1.429 . S
C1037 C1033 1.429 . S
C1037 C1038 1.523 . S
C1038 C1022 1.368 . S
C1038 C1034 1.368 . S
C1038 C1037 1.523 . S
H1039 C1014 0.950 . S
H1040 C1016 0.950 . S
H1041 C1017 0.949 . S
H1042 C1019 0.950 . S
H1043 C1021 0.950 . S
C1044 C1045 1.349 . S
C1044 C1046 1.327 . S
C1044 H1069 0.950 . S
C1045 C1044 1.349 . S
C1045 C1061 1.349 . S
C1046 C1044 1.327 . S
C1046 C1065 1.429 . S
C1046 H1070 0.950 . S
C1047 C1064 1.574 . S
C1047 C1066 1.368 . S
C1047 H1071 0.949 . S
H1048 C1052 0.949 . S
C1049 C1050 1.349 . S
C1049 C1051 1.327 . S
C1049 H1072 0.950 . S
C1050 C1049 1.349 . S
C1050 C1062 1.349 . S
C1051 C1049 1.327 . S
C1051 C1067 1.429 . S
C1051 H1073 0.950 . S
C1052 H1048 0.949 . S
C1052 C1060 1.574 . S
C1052 C1068 1.368 . S
H1053 C1061 0.950 . S
H1054 C1059 0.950 . S
H1055 C1060 0.949 . S
H1056 C1062 0.950 . S
H1057 C1063 0.950 . S
H1058 C1064 0.949 . S
C1059 H1054 0.950 . S
C1059 C1061 1.327 . S
C1059 C1065 1.429 . S
C1060 C1052 1.574 . S
C1060 H1055 0.949 . S
C1060 C1066 1.368 . S
C1061 C1045 1.349 . S
C1061 H1053 0.950 . S
C1061 C1059 1.327 . S
C1062 C1050 1.349 . S
C1062 H1056 0.950 . S
C1062 C1063 1.327 . S
C1063 H1057 0.950 . S
C1063 C1062 1.327 . S
C1063 C1067 1.429 . S
C1064 C1047 1.574 . S
C1064 H1058 0.949 . S
C1064 C1068 1.368 . S
C1065 C1046 1.429 . S
C1065 C1059 1.429 . S
C1065 C1066 1.523 . S
C1066 C1047 1.368 . S
C1066 C1060 1.368 . S
C1066 C1065 1.523 . S
C1067 C1051 1.429 . S
C1067 C1063 1.429 . S
C1067 C1068 1.523 . S
C1068 C1052 1.368 . S
C1068 C1064 1.368 . S
C1068 C1067 1.523 . S
H1069 C1044 0.950 . S
H1070 C1046 0.950 . S
H1071 C1047 0.949 . S
H1072 C1049 0.950 . S
H1073 C1051 0.950 . S
C1074 C1075 1.349 . S
C1074 C1076 1.327 . S
C1074 H1099 0.950 . S
C1075 C1074 1.349 . S
C1075 C1091 1.349 . S
C1076 C1074 1.327 . S
C1076 C1095 1.429 . S
C1076 H1100 0.950 . S
C1077 C1094 1.574 . S
C1077 C1096 1.368 . S
C1077 H1101 0.949 . S
H1078 C1082 0.949 . S
C1079 C1080 1.349 . S
C1079 C1081 1.327 . S
C1079 H1102 0.950 . S
C1080 C1079 1.349 . S
C1080 C1092 1.349 . S
C1081 C1079 1.327 . S
C1081 C1097 1.429 . S
C1081 H1103 0.950 . S
C1082 H1078 0.949 . S
C1082 C1090 1.574 . S
C1082 C1098 1.368 . S
H1083 C1091 0.950 . S
H1084 C1089 0.950 . S
H1085 C1090 0.949 . S
H1086 C1092 0.950 . S
H1087 C1093 0.950 . S
H1088 C1094 0.949 . S
C1089 H1084 0.950 . S
C1089 C1091 1.327 . S
C1089 C1095 1.429 . S
C1090 C1082 1.574 . S
C1090 H1085 0.949 . S
C1090 C1096 1.368 . S
C1091 C1075 1.349 . S
C1091 H1083 0.950 . S
C1091 C1089 1.327 . S
C1092 C1080 1.349 . S
C1092 H1086 0.950 . S
C1092 C1093 1.327 . S
C1093 H1087 0.950 . S
C1093 C1092 1.327 . S
C1093 C1097 1.429 . S
C1094 C1077 1.574 . S
C1094 H1088 0.949 . S
C1094 C1098 1.368 . S
C1095 C1076 1.429 . S
C1095 C1089 1.429 . S
C1095 C1096 1.523 . S
C1096 C1077 1.368 . S
C1096 C1090 1.368 . S
C1096 C1095 1.523 . S
C1097 C1081 1.429 . S
C1097 C1093 1.429 . S
C1097 C1098 1.523 . S
C1098 C1082 1.368 . S
C1098 C1094 1.368 . S
C1098 C1097 1.523 . S
H1099 C1074 0.950 . S
H1100 C1076 0.950 . S
H1101 C1077 0.949 . S
H1102 C1079 0.950 . S
H1103 C1081 0.950 . S
C1104 C1105 1.349 . S
C1104 C1106 1.327 . S
C1104 H1129 0.950 . S
C1105 C1104 1.349 . S
C1105 C1121 1.349 . S
C1106 C1104 1.327 . S
C1106 C1125 1.429 . S
C1106 H1130 0.950 . S
C1107 C1124 1.574 . S
C1107 C1126 1.368 . S
C1107 H1131 0.949 . S
H1108 C1112 0.949 . S
C1109 C1110 1.349 . S
C1109 C1111 1.327 . S
C1109 H1132 0.950 . S
C1110 C1109 1.349 . S
C1110 C1122 1.349 . S
C1111 C1109 1.327 . S
C1111 C1127 1.429 . S
C1111 H1133 0.950 . S
C1112 H1108 0.949 . S
C1112 C1120 1.574 . S
C1112 C1128 1.368 . S
H1113 C1121 0.950 . S
H1114 C1119 0.950 . S
H1115 C1120 0.949 . S
H1116 C1122 0.950 . S
H1117 C1123 0.950 . S
H1118 C1124 0.949 . S
C1119 H1114 0.950 . S
C1119 C1121 1.327 . S
C1119 C1125 1.429 . S
C1120 C1112 1.574 . S
C1120 H1115 0.949 . S
C1120 C1126 1.368 . S
C1121 C1105 1.349 . S
C1121 H1113 0.950 . S
C1121 C1119 1.327 . S
C1122 C1110 1.349 . S
C1122 H1116 0.950 . S
C1122 C1123 1.327 . S
C1123 H1117 0.950 . S
C1123 C1122 1.327 . S
C1123 C1127 1.429 . S
C1124 C1107 1.574 . S
C1124 H1118 0.949 . S
C1124 C1128 1.368 . S
C1125 C1106 1.429 . S
C1125 C1119 1.429 . S
C1125 C1126 1.523 . S
C1126 C1107 1.368 . S
C1126 C1120 1.368 . S
C1126 C1125 1.523 . S
C1127 C1111 1.429 . S
C1127 C1123 1.429 . S
C1127 C1128 1.523 . S
C1128 C1112 1.368 . S
C1128 C1124 1.368 . S
C1128 C1127 1.523 . S
H1129 C1104 0.950 . S
H1130 C1106 0.950 . S
H1131 C1107 0.949 . S
H1132 C1109 0.950 . S
H1133 C1111 0.950 . S
C1134 C1135 1.349 . S
C1134 C1136 1.327 . S
C1134 H1159 0.950 . S
C1135 C1134 1.349 . S
C1135 C1151 1.349 . S
C1136 C1134 1.327 . S
C1136 C1155 1.429 . S
C1136 H1160 0.950 . S
C1137 C1154 1.574 . S
C1137 C1156 1.368 . S
C1137 H1161 0.949 . S
H1138 C1142 0.949 . S
C1139 C1140 1.349 . S
C1139 C1141 1.327 . S
C1139 H1162 0.950 . S
C1140 C1139 1.349 . S
C1140 C1152 1.349 . S
C1141 C1139 1.327 . S
C1141 C1157 1.429 . S
C1141 H1163 0.950 . S
C1142 H1138 0.949 . S
C1142 C1150 1.574 . S
C1142 C1158 1.368 . S
H1143 C1151 0.950 . S
H1144 C1149 0.950 . S
H1145 C1150 0.949 . S
H1146 C1152 0.950 . S
H1147 C1153 0.950 . S
H1148 C1154 0.949 . S
C1149 H1144 0.950 . S
C1149 C1151 1.327 . S
C1149 C1155 1.429 . S
C1150 C1142 1.574 . S
C1150 H1145 0.949 . S
C1150 C1156 1.368 . S
C1151 C1135 1.349 . S
C1151 H1143 0.950 . S
C1151 C1149 1.327 . S
C1152 C1140 1.349 . S
C1152 H1146 0.950 . S
C1152 C1153 1.327 . S
C1153 H1147 0.950 . S
C1153 C1152 1.327 . S
C1153 C1157 1.429 . S
C1154 C1137 1.574 . S
C1154 H1148 0.949 . S
C1154 C1158 1.368 . S
C1155 C1136 1.429 . S
C1155 C1149 1.429 . S
C1155 C1156 1.523 . S
C1156 C1137 1.368 . S
C1156 C1150 1.368 . S
C1156 C1155 1.523 . S
C1157 C1141 1.429 . S
C1157 C1153 1.429 . S
C1157 C1158 1.523 . S
C1158 C1142 1.368 . S
C1158 C1154 1.368 . S
C1158 C1157 1.523 . S
H1159 C1134 0.950 . S
H1160 C1136 0.950 . S
H1161 C1137 0.949 . S
H1162 C1139 0.950 . S
H1163 C1141 0.950 . S
C1164 C1165 1.349 . S
C1164 C1166 1.327 . S
C1164 H1189 0.950 . S
C1165 C1164 1.349 . S
C1165 C1181 1.349 . S
C1166 C1164 1.327 . S
C1166 C1185 1.429 . S
C1166 H1190 0.950 . S
C1167 C1184 1.574 . S
C1167 C1186 1.368 . S
C1167 H1191 0.949 . S
H1168 C1172 0.949 . S
C1169 C1170 1.349 . S
C1169 C1171 1.327 . S
C1169 H1192 0.950 . S
C1170 C1169 1.349 . S
C1170 C1182 1.349 . S
C1171 C1169 1.327 . S
C1171 C1187 1.429 . S
C1171 H1193 0.950 . S
C1172 H1168 0.949 . S
C1172 C1180 1.574 . S
C1172 C1188 1.368 . S
H1173 C1181 0.950 . S
H1174 C1179 0.950 . S
H1175 C1180 0.949 . S
H1176 C1182 0.950 . S
H1177 C1183 0.950 . S
H1178 C1184 0.949 . S
C1179 H1174 0.950 . S
C1179 C1181 1.327 . S
C1179 C1185 1.429 . S
C1180 C1172 1.574 . S
C1180 H1175 0.949 . S
C1180 C1186 1.368 . S
C1181 C1165 1.349 . S
C1181 H1173 0.950 . S
C1181 C1179 1.327 . S
C1182 C1170 1.349 . S
C1182 H1176 0.950 . S
C1182 C1183 1.327 . S
C1183 H1177 0.950 . S
C1183 C1182 1.327 . S
C1183 C1187 1.429 . S
C1184 C1167 1.574 . S
C1184 H1178 0.949 . S
C1184 C1188 1.368 . S
C1185 C1166 1.429 . S
C1185 C1179 1.429 . S
C1185 C1186 1.523 . S
C1186 C1167 1.368 . S
C1186 C1180 1.368 . S
C1186 C1185 1.523 . S
C1187 C1171 1.429 . S
C1187 C1183 1.429 . S
C1187 C1188 1.523 . S
C1188 C1172 1.368 . S
C1188 C1184 1.368 . S
C1188 C1187 1.523 . S
H1189 C1164 0.950 . S
H1190 C1166 0.950 . S
H1191 C1167 0.949 . S
H1192 C1169 0.950 . S
H1193 C1171 0.950 . S
C1194 C1195 1.349 . S
C1194 C1196 1.327 . S
C1194 H1219 0.950 . S
C1195 C1194 1.349 . S
C1195 C1211 1.349 . S
C1196 C1194 1.327 . S
C1196 C1215 1.429 . S
C1196 H1220 0.950 . S
C1197 C1214 1.574 . S
C1197 C1216 1.368 . S
C1197 H1221 0.949 . S
H1198 C1202 0.949 . S
C1199 C1200 1.349 . S
C1199 C1201 1.327 . S
C1199 H1222 0.950 . S
C1200 C1199 1.349 . S
C1200 C1212 1.349 . S
C1201 C1199 1.327 . S
C1201 C1217 1.429 . S
C1201 H1223 0.950 . S
C1202 H1198 0.949 . S
C1202 C1210 1.574 . S
C1202 C1218 1.368 . S
H1203 C1211 0.950 . S
H1204 C1209 0.950 . S
H1205 C1210 0.949 . S
H1206 C1212 0.950 . S
H1207 C1213 0.950 . S
H1208 C1214 0.949 . S
C1209 H1204 0.950 . S
C1209 C1211 1.327 . S
C1209 C1215 1.429 . S
C1210 C1202 1.574 . S
C1210 H1205 0.949 . S
C1210 C1216 1.368 . S
C1211 C1195 1.349 . S
C1211 H1203 0.950 . S
C1211 C1209 1.327 . S
C1212 C1200 1.349 . S
C1212 H1206 0.950 . S
C1212 C1213 1.327 . S
C1213 H1207 0.950 . S
C1213 C1212 1.327 . S
C1213 C1217 1.429 . S
C1214 C1197 1.574 . S
C1214 H1208 0.949 . S
C1214 C1218 1.368 . S
C1215 C1196 1.429 . S
C1215 C1209 1.429 . S
C1215 C1216 1.523 . S
C1216 C1197 1.368 . S
C1216 C1210 1.368 . S
C1216 C1215 1.523 . S
C1217 C1201 1.429 . S
C1217 C1213 1.429 . S
C1217 C1218 1.523 . S
C1218 C1202 1.368 . S
C1218 C1214 1.368 . S
C1218 C1217 1.523 . S
H1219 C1194 0.950 . S
H1220 C1196 0.950 . S
H1221 C1197 0.949 . S
H1222 C1199 0.950 . S
H1223 C1201 0.950 . S
C1224 C1225 1.349 . S
C1224 C1226 1.327 . S
C1224 H1249 0.950 . S
C1225 C1224 1.349 . S
C1225 C1241 1.349 . S
C1226 C1224 1.327 . S
C1226 C1245 1.429 . S
C1226 H1250 0.950 . S
C1227 C1244 1.574 . S
C1227 C1246 1.368 . S
C1227 H1251 0.949 . S
H1228 C1232 0.949 . S
C1229 C1230 1.349 . S
C1229 C1231 1.327 . S
C1229 H1252 0.950 . S
C1230 C1229 1.349 . S
C1230 C1242 1.349 . S
C1231 C1229 1.327 . S
C1231 C1247 1.429 . S
C1231 H1253 0.950 . S
C1232 H1228 0.949 . S
C1232 C1240 1.574 . S
C1232 C1248 1.368 . S
H1233 C1241 0.950 . S
H1234 C1239 0.950 . S
H1235 C1240 0.949 . S
H1236 C1242 0.950 . S
H1237 C1243 0.950 . S
H1238 C1244 0.949 . S
C1239 H1234 0.950 . S
C1239 C1241 1.327 . S
C1239 C1245 1.429 . S
C1240 C1232 1.574 . S
C1240 H1235 0.949 . S
C1240 C1246 1.368 . S
C1241 C1225 1.349 . S
C1241 H1233 0.950 . S
C1241 C1239 1.327 . S
C1242 C1230 1.349 . S
C1242 H1236 0.950 . S
C1242 C1243 1.327 . S
C1243 H1237 0.950 . S
C1243 C1242 1.327 . S
C1243 C1247 1.429 . S
C1244 C1227 1.574 . S
C1244 H1238 0.949 . S
C1244 C1248 1.368 . S
C1245 C1226 1.429 . S
C1245 C1239 1.429 . S
C1245 C1246 1.523 . S
C1246 C1227 1.368 . S
C1246 C1240 1.368 . S
C1246 C1245 1.523 . S
C1247 C1231 1.429 . S
C1247 C1243 1.429 . S
C1247 C1248 1.523 . S
C1248 C1232 1.368 . S
C1248 C1244 1.368 . S
C1248 C1247 1.523 . S
H1249 C1224 0.950 . S
H1250 C1226 0.950 . S
H1251 C1227 0.949 . S
H1252 C1229 0.950 . S
H1253 C1231 0.950 . S
C1254 C1255 1.349 . S
C1254 C1256 1.327 . S
C1254 H1279 0.950 . S
C1255 C1254 1.349 . S
C1255 C1271 1.349 . S
C1256 C1254 1.327 . S
C1256 C1275 1.429 . S
C1256 H1280 0.950 . S
C1257 C1274 1.574 . S
C1257 C1276 1.368 . S
C1257 H1281 0.949 . S
H1258 C1262 0.949 . S
C1259 C1260 1.349 . S
C1259 C1261 1.327 . S
C1259 H1282 0.950 . S
C1260 C1259 1.349 . S
C1260 C1272 1.349 . S
C1261 C1259 1.327 . S
C1261 C1277 1.429 . S
C1261 H1283 0.950 . S
C1262 H1258 0.949 . S
C1262 C1270 1.574 . S
C1262 C1278 1.368 . S
H1263 C1271 0.950 . S
H1264 C1269 0.950 . S
H1265 C1270 0.949 . S
H1266 C1272 0.950 . S
H1267 C1273 0.950 . S
H1268 C1274 0.949 . S
C1269 H1264 0.950 . S
C1269 C1271 1.327 . S
C1269 C1275 1.429 . S
C1270 C1262 1.574 . S
C1270 H1265 0.949 . S
C1270 C1276 1.368 . S
C1271 C1255 1.349 . S
C1271 H1263 0.950 . S
C1271 C1269 1.327 . S
C1272 C1260 1.349 . S
C1272 H1266 0.950 . S
C1272 C1273 1.327 . S
C1273 H1267 0.950 . S
C1273 C1272 1.327 . S
C1273 C1277 1.429 . S
C1274 C1257 1.574 . S
C1274 H1268 0.949 . S
C1274 C1278 1.368 . S
C1275 C1256 1.429 . S
C1275 C1269 1.429 . S
C1275 C1276 1.523 . S
C1276 C1257 1.368 . S
C1276 C1270 1.368 . S
C1276 C1275 1.523 . S
C1277 C1261 1.429 . S
C1277 C1273 1.429 . S
C1277 C1278 1.523 . S
C1278 C1262 1.368 . S
C1278 C1274 1.368 . S
C1278 C1277 1.523 . S
H1279 C1254 0.950 . S
H1280 C1256 0.950 . S
H1281 C1257 0.949 . S
H1282 C1259 0.950 . S
H1283 C1261 0.950 . S
C1284 C1285 1.349 . S
C1284 C1286 1.327 . S
C1284 H1309 0.950 . S
C1285 C1284 1.349 . S
C1285 C1301 1.349 . S
C1286 C1284 1.327 . S
C1286 C1305 1.429 . S
C1286 H1310 0.950 . S
C1287 C1304 1.574 . S
C1287 C1306 1.368 . S
C1287 H1311 0.949 . S
H1288 C1292 0.949 . S
C1289 C1290 1.349 . S
C1289 C1291 1.327 . S
C1289 H1312 0.950 . S
C1290 C1289 1.349 . S
C1290 C1302 1.349 . S
C1291 C1289 1.327 . S
C1291 C1307 1.429 . S
C1291 H1313 0.950 . S
C1292 H1288 0.949 . S
C1292 C1300 1.574 . S
C1292 C1308 1.368 . S
H1293 C1301 0.950 . S
H1294 C1299 0.950 . S
H1295 C1300 0.949 . S
H1296 C1302 0.950 . S
H1297 C1303 0.950 . S
H1298 C1304 0.949 . S
C1299 H1294 0.950 . S
C1299 C1301 1.327 . S
C1299 C1305 1.429 . S
C1300 C1292 1.574 . S
C1300 H1295 0.949 . S
C1300 C1306 1.368 . S
C1301 C1285 1.349 . S
C1301 H1293 0.950 . S
C1301 C1299 1.327 . S
C1302 C1290 1.349 . S
C1302 H1296 0.950 . S
C1302 C1303 1.327 . S
C1303 H1297 0.950 . S
C1303 C1302 1.327 . S
C1303 C1307 1.429 . S
C1304 C1287 1.574 . S
C1304 H1298 0.949 . S
C1304 C1308 1.368 . S
C1305 C1286 1.429 . S
C1305 C1299 1.429 . S
C1305 C1306 1.523 . S
C1306 C1287 1.368 . S
C1306 C1300 1.368 . S
C1306 C1305 1.523 . S
C1307 C1291 1.429 . S
C1307 C1303 1.429 . S
C1307 C1308 1.523 . S
C1308 C1292 1.368 . S
C1308 C1304 1.368 . S
C1308 C1307 1.523 . S
H1309 C1284 0.950 . S
H1310 C1286 0.950 . S
H1311 C1287 0.949 . S
H1312 C1289 0.950 . S
H1313 C1291 0.950 . S
C1314 C1315 1.349 . S
C1314 C1316 1.327 . S
C1314 H1339 0.950 . S
C1315 C1314 1.349 . S
C1315 C1331 1.349 . S
C1316 C1314 1.327 . S
C1316 C1335 1.429 . S
C1316 H1340 0.950 . S
C1317 C1334 1.574 . S
C1317 C1336 1.368 . S
C1317 H1341 0.949 . S
H1318 C1322 0.949 . S
C1319 C1320 1.349 . S
C1319 C1321 1.327 . S
C1319 H1342 0.950 . S
C1320 C1319 1.349 . S
C1320 C1332 1.349 . S
C1321 C1319 1.327 . S
C1321 C1337 1.429 . S
C1321 H1343 0.950 . S
C1322 H1318 0.949 . S
C1322 C1330 1.574 . S
C1322 C1338 1.368 . S
H1323 C1331 0.950 . S
H1324 C1329 0.950 . S
H1325 C1330 0.949 . S
H1326 C1332 0.950 . S
H1327 C1333 0.950 . S
H1328 C1334 0.949 . S
C1329 H1324 0.950 . S
C1329 C1331 1.327 . S
C1329 C1335 1.429 . S
C1330 C1322 1.574 . S
C1330 H1325 0.949 . S
C1330 C1336 1.368 . S
C1331 C1315 1.349 . S
C1331 H1323 0.950 . S
C1331 C1329 1.327 . S
C1332 C1320 1.349 . S
C1332 H1326 0.950 . S
C1332 C1333 1.327 . S
C1333 H1327 0.950 . S
C1333 C1332 1.327 . S
C1333 C1337 1.429 . S
C1334 C1317 1.574 . S
C1334 H1328 0.949 . S
C1334 C1338 1.368 . S
C1335 C1316 1.429 . S
C1335 C1329 1.429 . S
C1335 C1336 1.523 . S
C1336 C1317 1.368 . S
C1336 C1330 1.368 . S
C1336 C1335 1.523 . S
C1337 C1321 1.429 . S
C1337 C1333 1.429 . S
C1337 C1338 1.523 . S
C1338 C1322 1.368 . S
C1338 C1334 1.368 . S
C1338 C1337 1.523 . S
H1339 C1314 0.950 . S
H1340 C1316 0.950 . S
H1341 C1317 0.949 . S
H1342 C1319 0.950 . S
H1343 C1321 0.950 . S
C1344 C1345 1.349 . S
C1344 C1346 1.327 . S
C1344 H1369 0.950 . S
C1345 C1344 1.349 . S
C1345 C1361 1.349 . S
C1346 C1344 1.327 . S
C1346 C1365 1.429 . S
C1346 H1370 0.950 . S
C1347 C1364 1.574 . S
C1347 C1366 1.368 . S
C1347 H1371 0.949 . S
H1348 C1352 0.949 . S
C1349 C1350 1.349 . S
C1349 C1351 1.327 . S
C1349 H1372 0.950 . S
C1350 C1349 1.349 . S
C1350 C1362 1.349 . S
C1351 C1349 1.327 . S
C1351 C1367 1.429 . S
C1351 H1373 0.950 . S
C1352 H1348 0.949 . S
C1352 C1360 1.574 . S
C1352 C1368 1.368 . S
H1353 C1361 0.950 . S
H1354 C1359 0.950 . S
H1355 C1360 0.949 . S
H1356 C1362 0.950 . S
H1357 C1363 0.950 . S
H1358 C1364 0.949 . S
C1359 H1354 0.950 . S
C1359 C1361 1.327 . S
C1359 C1365 1.429 . S
C1360 C1352 1.574 . S
C1360 H1355 0.949 . S
C1360 C1366 1.368 . S
C1361 C1345 1.349 . S
C1361 H1353 0.950 . S
C1361 C1359 1.327 . S
C1362 C1350 1.349 . S
C1362 H1356 0.950 . S
C1362 C1363 1.327 . S
C1363 H1357 0.950 . S
C1363 C1362 1.327 . S
C1363 C1367 1.429 . S
C1364 C1347 1.574 . S
C1364 H1358 0.949 . S
C1364 C1368 1.368 . S
C1365 C1346 1.429 . S
C1365 C1359 1.429 . S
C1365 C1366 1.523 . S
C1366 C1347 1.368 . S
C1366 C1360 1.368 . S
C1366 C1365 1.523 . S
C1367 C1351 1.429 . S
C1367 C1363 1.429 . S
C1367 C1368 1.523 . S
C1368 C1352 1.368 . S
C1368 C1364 1.368 . S
C1368 C1367 1.523 . S
H1369 C1344 0.950 . S
H1370 C1346 0.950 . S
H1371 C1347 0.949 . S
H1372 C1349 0.950 . S
H1373 C1351 0.950 . S
C1374 C1375 1.349 . S
C1374 C1376 1.327 . S
C1374 H1399 0.950 . S
C1375 C1374 1.349 . S
C1375 C1391 1.349 . S
C1376 C1374 1.327 . S
C1376 C1395 1.429 . S
C1376 H1400 0.950 . S
C1377 C1394 1.574 . S
C1377 C1396 1.368 . S
C1377 H1401 0.949 . S
H1378 C1382 0.949 . S
C1379 C1380 1.349 . S
C1379 C1381 1.327 . S
C1379 H1402 0.950 . S
C1380 C1379 1.349 . S
C1380 C1392 1.349 . S
C1381 C1379 1.327 . S
C1381 C1397 1.429 . S
C1381 H1403 0.950 . S
C1382 H1378 0.949 . S
C1382 C1390 1.574 . S
C1382 C1398 1.368 . S
H1383 C1391 0.950 . S
H1384 C1389 0.950 . S
H1385 C1390 0.949 . S
H1386 C1392 0.950 . S
H1387 C1393 0.950 . S
H1388 C1394 0.949 . S
C1389 H1384 0.950 . S
C1389 C1391 1.327 . S
C1389 C1395 1.429 . S
C1390 C1382 1.574 . S
C1390 H1385 0.949 . S
C1390 C1396 1.368 . S
C1391 C1375 1.349 . S
C1391 H1383 0.950 . S
C1391 C1389 1.327 . S
C1392 C1380 1.349 . S
C1392 H1386 0.950 . S
C1392 C1393 1.327 . S
C1393 H1387 0.950 . S
C1393 C1392 1.327 . S
C1393 C1397 1.429 . S
C1394 C1377 1.574 . S
C1394 H1388 0.949 . S
C1394 C1398 1.368 . S
C1395 C1376 1.429 . S
C1395 C1389 1.429 . S
C1395 C1396 1.523 . S
C1396 C1377 1.368 . S
C1396 C1390 1.368 . S
C1396 C1395 1.523 . S
C1397 C1381 1.429 . S
C1397 C1393 1.429 . S
C1397 C1398 1.523 . S
C1398 C1382 1.368 . S
C1398 C1394 1.368 . S
C1398 C1397 1.523 . S
H1399 C1374 0.950 . S
H1400 C1376 0.950 . S
H1401 C1377 0.949 . S
H1402 C1379 0.950 . S
H1403 C1381 0.950 . S
C1404 C1405 1.349 . S
C1404 C1406 1.327 . S
C1404 H1429 0.950 . S
C1405 C1404 1.349 . S
C1405 C1421 1.349 . S
C1406 C1404 1.327 . S
C1406 C1425 1.429 . S
C1406 H1430 0.950 . S
C1407 C1424 1.574 . S
C1407 C1426 1.368 . S
C1407 H1431 0.949 . S
H1408 C1412 0.949 . S
C1409 C1410 1.349 . S
C1409 C1411 1.327 . S
C1409 H1432 0.950 . S
C1410 C1409 1.349 . S
C1410 C1422 1.349 . S
C1411 C1409 1.327 . S
C1411 C1427 1.429 . S
C1411 H1433 0.950 . S
C1412 H1408 0.949 . S
C1412 C1420 1.574 . S
C1412 C1428 1.368 . S
H1413 C1421 0.950 . S
H1414 C1419 0.950 . S
H1415 C1420 0.949 . S
H1416 C1422 0.950 . S
H1417 C1423 0.950 . S
H1418 C1424 0.949 . S
C1419 H1414 0.950 . S
C1419 C1421 1.327 . S
C1419 C1425 1.429 . S
C1420 C1412 1.574 . S
C1420 H1415 0.949 . S
C1420 C1426 1.368 . S
C1421 C1405 1.349 . S
C1421 H1413 0.950 . S
C1421 C1419 1.327 . S
C1422 C1410 1.349 . S
C1422 H1416 0.950 . S
C1422 C1423 1.327 . S
C1423 H1417 0.950 . S
C1423 C1422 1.327 . S
C1423 C1427 1.429 . S
C1424 C1407 1.574 . S
C1424 H1418 0.949 . S
C1424 C1428 1.368 . S
C1425 C1406 1.429 . S
C1425 C1419 1.429 . S
C1425 C1426 1.523 . S
C1426 C1407 1.368 . S
C1426 C1420 1.368 . S
C1426 C1425 1.523 . S
C1427 C1411 1.429 . S
C1427 C1423 1.429 . S
C1427 C1428 1.523 . S
C1428 C1412 1.368 . S
C1428 C1424 1.368 . S
C1428 C1427 1.523 . S
H1429 C1404 0.950 . S
H1430 C1406 0.950 . S
H1431 C1407 0.949 . S
H1432 C1409 0.950 . S
H1433 C1411 0.950 . S
C1434 C1435 1.349 . S
C1434 C1436 1.327 . S
C1434 H1459 0.950 . S
C1435 C1434 1.349 . S
C1435 C1451 1.349 . S
C1436 C1434 1.327 . S
C1436 C1455 1.429 . S
C1436 H1460 0.950 . S
C1437 C1454 1.574 . S
C1437 C1456 1.368 . S
C1437 H1461 0.949 . S
H1438 C1442 0.949 . S
C1439 C1440 1.349 . S
C1439 C1441 1.327 . S
C1439 H1462 0.950 . S
C1440 C1439 1.349 . S
C1440 C1452 1.349 . S
C1441 C1439 1.327 . S
C1441 C1457 1.429 . S
C1441 H1463 0.950 . S
C1442 H1438 0.949 . S
C1442 C1450 1.574 . S
C1442 C1458 1.368 . S
H1443 C1451 0.950 . S
H1444 C1449 0.950 . S
H1445 C1450 0.949 . S
H1446 C1452 0.950 . S
H1447 C1453 0.950 . S
H1448 C1454 0.949 . S
C1449 H1444 0.950 . S
C1449 C1451 1.327 . S
C1449 C1455 1.429 . S
C1450 C1442 1.574 . S
C1450 H1445 0.949 . S
C1450 C1456 1.368 . S
C1451 C1435 1.349 . S
C1451 H1443 0.950 . S
C1451 C1449 1.327 . S
C1452 C1440 1.349 . S
C1452 H1446 0.950 . S
C1452 C1453 1.327 . S
C1453 H1447 0.950 . S
C1453 C1452 1.327 . S
C1453 C1457 1.429 . S
C1454 C1437 1.574 . S
C1454 H1448 0.949 . S
C1454 C1458 1.368 . S
C1455 C1436 1.429 . S
C1455 C1449 1.429 . S
C1455 C1456 1.523 . S
C1456 C1437 1.368 . S
C1456 C1450 1.368 . S
C1456 C1455 1.523 . S
C1457 C1441 1.429 . S
C1457 C1453 1.429 . S
C1457 C1458 1.523 . S
C1458 C1442 1.368 . S
C1458 C1454 1.368 . S
C1458 C1457 1.523 . S
H1459 C1434 0.950 . S
H1460 C1436 0.950 . S
H1461 C1437 0.949 . S
H1462 C1439 0.950 . S
H1463 C1441 0.950 . S
C1464 C1465 1.349 . S
C1464 C1466 1.327 . S
C1464 H1489 0.950 . S
C1465 C1464 1.349 . S
C1465 C1481 1.349 . S
C1466 C1464 1.327 . S
C1466 C1485 1.429 . S
C1466 H1490 0.950 . S
C1467 C1484 1.574 . S
C1467 C1486 1.368 . S
C1467 H1491 0.949 . S
H1468 C1472 0.949 . S
C1469 C1470 1.349 . S
C1469 C1471 1.327 . S
C1469 H1492 0.950 . S
C1470 C1469 1.349 . S
C1470 C1482 1.349 . S
C1471 C1469 1.327 . S
C1471 C1487 1.429 . S
C1471 H1493 0.950 . S
C1472 H1468 0.949 . S
C1472 C1480 1.574 . S
C1472 C1488 1.368 . S
H1473 C1481 0.950 . S
H1474 C1479 0.950 . S
H1475 C1480 0.949 . S
H1476 C1482 0.950 . S
H1477 C1483 0.950 . S
H1478 C1484 0.949 . S
C1479 H1474 0.950 . S
C1479 C1481 1.327 . S
C1479 C1485 1.429 . S
C1480 C1472 1.574 . S
C1480 H1475 0.949 . S
C1480 C1486 1.368 . S
C1481 C1465 1.349 . S
C1481 H1473 0.950 . S
C1481 C1479 1.327 . S
C1482 C1470 1.349 . S
C1482 H1476 0.950 . S
C1482 C1483 1.327 . S
C1483 H1477 0.950 . S
C1483 C1482 1.327 . S
C1483 C1487 1.429 . S
C1484 C1467 1.574 . S
C1484 H1478 0.949 . S
C1484 C1488 1.368 . S
C1485 C1466 1.429 . S
C1485 C1479 1.429 . S
C1485 C1486 1.523 . S
C1486 C1467 1.368 . S
C1486 C1480 1.368 . S
C1486 C1485 1.523 . S
C1487 C1471 1.429 . S
C1487 C1483 1.429 . S
C1487 C1488 1.523 . S
C1488 C1472 1.368 . S
C1488 C1484 1.368 . S
C1488 C1487 1.523 . S
H1489 C1464 0.950 . S
H1490 C1466 0.950 . S
H1491 C1467 0.949 . S
H1492 C1469 0.950 . S
H1493 C1471 0.950 . S
C1494 C1495 1.349 . S
C1494 C1496 1.327 . S
C1494 H1519 0.950 . S
C1495 C1494 1.349 . S
C1495 C1511 1.349 . S
C1496 C1494 1.327 . S
C1496 C1515 1.429 . S
C1496 H1520 0.950 . S
C1497 C1514 1.574 . S
C1497 C1516 1.368 . S
C1497 H1521 0.949 . S
H1498 C1502 0.949 . S
C1499 C1500 1.349 . S
C1499 C1501 1.327 . S
C1499 H1522 0.950 . S
C1500 C1499 1.349 . S
C1500 C1512 1.349 . S
C1501 C1499 1.327 . S
C1501 C1517 1.429 . S
C1501 H1523 0.950 . S
C1502 H1498 0.949 . S
C1502 C1510 1.574 . S
C1502 C1518 1.368 . S
H1503 C1511 0.950 . S
H1504 C1509 0.950 . S
H1505 C1510 0.949 . S
H1506 C1512 0.950 . S
H1507 C1513 0.950 . S
H1508 C1514 0.949 . S
C1509 H1504 0.950 . S
C1509 C1511 1.327 . S
C1509 C1515 1.429 . S
C1510 C1502 1.574 . S
C1510 H1505 0.949 . S
C1510 C1516 1.368 . S
C1511 C1495 1.349 . S
C1511 H1503 0.950 . S
C1511 C1509 1.327 . S
C1512 C1500 1.349 . S
C1512 H1506 0.950 . S
C1512 C1513 1.327 . S
C1513 H1507 0.950 . S
C1513 C1512 1.327 . S
C1513 C1517 1.429 . S
C1514 C1497 1.574 . S
C1514 H1508 0.949 . S
C1514 C1518 1.368 . S
C1515 C1496 1.429 . S
C1515 C1509 1.429 . S
C1515 C1516 1.523 . S
C1516 C1497 1.368 . S
C1516 C1510 1.368 . S
C1516 C1515 1.523 . S
C1517 C1501 1.429 . S
C1517 C1513 1.429 . S
C1517 C1518 1.523 . S
C1518 C1502 1.368 . S
C1518 C1514 1.368 . S
C1518 C1517 1.523 . S
H1519 C1494 0.950 . S
H1520 C1496 0.950 . S
H1521 C1497 0.949 . S
H1522 C1499 0.950 . S
H1523 C1501 0.950 . S
C1524 C1525 1.349 . S
C1524 C1526 1.327 . S
C1524 H1549 0.950 . S
C1525 C1524 1.349 . S
C1525 C1541 1.349 . S
C1526 C1524 1.327 . S
C1526 C1545 1.429 . S
C1526 H1550 0.950 . S
C1527 C1544 1.574 . S
C1527 C1546 1.368 . S
C1527 H1551 0.949 . S
H1528 C1532 0.949 . S
C1529 C1530 1.349 . S
C1529 C1531 1.327 . S
C1529 H1552 0.950 . S
C1530 C1529 1.349 . S
C1530 C1542 1.349 . S
C1531 C1529 1.327 . S
C1531 C1547 1.429 . S
C1531 H1553 0.950 . S
C1532 H1528 0.949 . S
C1532 C1540 1.574 . S
C1532 C1548 1.368 . S
H1533 C1541 0.950 . S
H1534 C1539 0.950 . S
H1535 C1540 0.949 . S
H1536 C1542 0.950 . S
H1537 C1543 0.950 . S
H1538 C1544 0.949 . S
C1539 H1534 0.950 . S
C1539 C1541 1.327 . S
C1539 C1545 1.429 . S
C1540 C1532 1.574 . S
C1540 H1535 0.949 . S
C1540 C1546 1.368 . S
C1541 C1525 1.349 . S
C1541 H1533 0.950 . S
C1541 C1539 1.327 . S
C1542 C1530 1.349 . S
C1542 H1536 0.950 . S
C1542 C1543 1.327 . S
C1543 H1537 0.950 . S
C1543 C1542 1.327 . S
C1543 C1547 1.429 . S
C1544 C1527 1.574 . S
C1544 H1538 0.949 . S
C1544 C1548 1.368 . S
C1545 C1526 1.429 . S
C1545 C1539 1.429 . S
C1545 C1546 1.523 . S
C1546 C1527 1.368 . S
C1546 C1540 1.368 . S
C1546 C1545 1.523 . S
C1547 C1531 1.429 . S
C1547 C1543 1.429 . S
C1547 C1548 1.523 . S
C1548 C1532 1.368 . S
C1548 C1544 1.368 . S
C1548 C1547 1.523 . S
H1549 C1524 0.950 . S
H1550 C1526 0.950 . S
H1551 C1527 0.949 . S
H1552 C1529 0.950 . S
H1553 C1531 0.950 . S
C1554 C1555 1.349 . S
C1554 C1556 1.327 . S
C1554 H1579 0.950 . S
C1555 C1554 1.349 . S
C1555 C1571 1.349 . S
C1556 C1554 1.327 . S
C1556 C1575 1.429 . S
C1556 H1580 0.950 . S
C1557 C1574 1.574 . S
C1557 C1576 1.368 . S
C1557 H1581 0.949 . S
H1558 C1562 0.949 . S
C1559 C1560 1.349 . S
C1559 C1561 1.327 . S
C1559 H1582 0.950 . S
C1560 C1559 1.349 . S
C1560 C1572 1.349 . S
C1561 C1559 1.327 . S
C1561 C1577 1.429 . S
C1561 H1583 0.950 . S
C1562 H1558 0.949 . S
C1562 C1570 1.574 . S
C1562 C1578 1.368 . S
H1563 C1571 0.950 . S
H1564 C1569 0.950 . S
H1565 C1570 0.949 . S
H1566 C1572 0.950 . S
H1567 C1573 0.950 . S
H1568 C1574 0.949 . S
C1569 H1564 0.950 . S
C1569 C1571 1.327 . S
C1569 C1575 1.429 . S
C1570 C1562 1.574 . S
C1570 H1565 0.949 . S
C1570 C1576 1.368 . S
C1571 C1555 1.349 . S
C1571 H1563 0.950 . S
C1571 C1569 1.327 . S
C1572 C1560 1.349 . S
C1572 H1566 0.950 . S
C1572 C1573 1.327 . S
C1573 H1567 0.950 . S
C1573 C1572 1.327 . S
C1573 C1577 1.429 . S
C1574 C1557 1.574 . S
C1574 H1568 0.949 . S
C1574 C1578 1.368 . S
C1575 C1556 1.429 . S
C1575 C1569 1.429 . S
C1575 C1576 1.523 . S
C1576 C1557 1.368 . S
C1576 C1570 1.368 . S
C1576 C1575 1.523 . S
C1577 C1561 1.429 . S
C1577 C1573 1.429 . S
C1577 C1578 1.523 . S
C1578 C1562 1.368 . S
C1578 C1574 1.368 . S
C1578 C1577 1.523 . S
H1579 C1554 0.950 . S
H1580 C1556 0.950 . S
H1581 C1557 0.949 . S
H1582 C1559 0.950 . S
H1583 C1561 0.950 . S
C1584 C1585 1.349 . S
C1584 C1586 1.327 . S
C1584 H1609 0.950 . S
C1585 C1584 1.349 . S
C1585 C1601 1.349 . S
C1586 C1584 1.327 . S
C1586 C1605 1.429 . S
C1586 H1610 0.950 . S
C1587 C1604 1.574 . S
C1587 C1606 1.368 . S
C1587 H1611 0.949 . S
H1588 C1592 0.949 . S
C1589 C1590 1.349 . S
C1589 C1591 1.327 . S
C1589 H1612 0.950 . S
C1590 C1589 1.349 . S
C1590 C1602 1.349 . S
C1591 C1589 1.327 . S
C1591 C1607 1.429 . S
C1591 H1613 0.950 . S
C1592 H1588 0.949 . S
C1592 C1600 1.574 . S
C1592 C1608 1.368 . S
H1593 C1601 0.950 . S
H1594 C1599 0.950 . S
H1595 C1600 0.949 . S
H1596 C1602 0.950 . S
H1597 C1603 0.950 . S
H1598 C1604 0.949 . S
C1599 H1594 0.950 . S
C1599 C1601 1.327 . S
C1599 C1605 1.429 . S
C1600 C1592 1.574 . S
C1600 H1595 0.949 . S
C1600 C1606 1.368 . S
C1601 C1585 1.349 . S
C1601 H1593 0.950 . S
C1601 C1599 1.327 . S
C1602 C1590 1.349 . S
C1602 H1596 0.950 . S
C1602 C1603 1.327 . S
C1603 H1597 0.950 . S
C1603 C1602 1.327 . S
C1603 C1607 1.429 . S
C1604 C1587 1.574 . S
C1604 H1598 0.949 . S
C1604 C1608 1.368 . S
C1605 C1586 1.429 . S
C1605 C1599 1.429 . S
C1605 C1606 1.523 . S
C1606 C1587 1.368 . S
C1606 C1600 1.368 . S
C1606 C1605 1.523 . S
C1607 C1591 1.429 . S
C1607 C1603 1.429 . S
C1607 C1608 1.523 . S
C1608 C1592 1.368 . S
C1608 C1604 1.368 . S
C1608 C1607 1.523 . S
H1609 C1584 0.950 . S
H1610 C1586 0.950 . S
H1611 C1587 0.949 . S
H1612 C1589 0.950 . S
H1613 C1591 0.950 . S
C1614 C1615 1.349 . S
C1614 C1616 1.327 . S
C1614 H1639 0.950 . S
C1615 C1614 1.349 . S
C1615 C1631 1.349 1_565 S
C1616 C1614 1.327 . S
C1616 C1635 1.429 . S
C1616 H1640 0.950 . S
C1617 C1634 1.574 . S
C1617 C1636 1.368 1_545 S
C1617 H1641 0.949 . S
H1618 C1622 0.949 . S
C1619 C1620 1.349 . S
C1619 C1621 1.327 . S
C1619 H1642 0.950 . S
C1620 C1619 1.349 . S
C1620 C1632 1.349 1_545 S
C1621 C1619 1.327 . S
C1621 C1637 1.429 . S
C1621 H1643 0.950 . S
C1622 H1618 0.949 . S
C1622 C1630 1.574 . S
C1622 C1638 1.368 1_565 S
H1623 C1631 0.950 . S
H1624 C1629 0.950 . S
H1625 C1630 0.949 . S
H1626 C1632 0.950 . S
H1627 C1633 0.950 . S
H1628 C1634 0.949 . S
C1629 H1624 0.950 . S
C1629 C1631 1.327 . S
C1629 C1635 1.429 1_545 S
C1630 C1622 1.574 . S
C1630 H1625 0.949 . S
C1630 C1636 1.368 . S
C1631 C1615 1.349 1_545 S
C1631 H1623 0.950 . S
C1631 C1629 1.327 . S
C1632 C1620 1.349 1_565 S
C1632 H1626 0.950 . S
C1632 C1633 1.327 . S
C1633 H1627 0.950 . S
C1633 C1632 1.327 . S
C1633 C1637 1.429 1_565 S
C1634 C1617 1.574 . S
C1634 H1628 0.949 . S
C1634 C1638 1.368 . S
C1635 C1616 1.429 . S
C1635 C1629 1.429 1_565 S
C1635 C1636 1.523 . S
C1636 C1617 1.368 1_565 S
C1636 C1630 1.368 . S
C1636 C1635 1.523 . S
C1637 C1621 1.429 . S
C1637 C1633 1.429 1_545 S
C1637 C1638 1.523 . S
C1638 C1622 1.368 1_545 S
C1638 C1634 1.368 . S
C1638 C1637 1.523 . S
H1639 C1614 0.950 . S
H1640 C1616 0.950 . S
H1641 C1617 0.949 . S
H1642 C1619 0.950 . S
H1643 C1621 0.950 . S
C1644 C1645 1.349 1_455 S
C1644 C1646 1.327 . S
C1644 H1669 0.950 . S
C1645 C1644 1.349 1_655 S
C1645 C1661 1.349 . S
C1646 C1644 1.327 . S
C1646 C1665 1.429 1_455 S
C1646 H1670 0.950 . S
C1647 C1664 1.574 . S
C1647 C1666 1.368 . S
C1647 H1671 0.949 . S
H1648 C1652 0.949 . S
C1649 C1650 1.349 1_655 S
C1649 C1651 1.327 . S
C1649 H1672 0.950 . S
C1650 C1649 1.349 1_455 S
C1650 C1662 1.349 . S
C1651 C1649 1.327 . S
C1651 C1667 1.429 1_655 S
C1651 H1673 0.950 . S
C1652 H1648 0.949 . S
C1652 C1660 1.574 . S
C1652 C1668 1.368 . S
H1653 C1661 0.950 . S
H1654 C1659 0.950 . S
H1655 C1660 0.949 . S
H1656 C1662 0.950 . S
H1657 C1663 0.950 . S
H1658 C1664 0.949 . S
C1659 H1654 0.950 . S
C1659 C1661 1.327 . S
C1659 C1665 1.429 . S
C1660 C1652 1.574 . S
C1660 H1655 0.949 . S
C1660 C1666 1.368 1_455 S
C1661 C1645 1.349 . S
C1661 H1653 0.950 . S
C1661 C1659 1.327 . S
C1662 C1650 1.349 . S
C1662 H1656 0.950 . S
C1662 C1663 1.327 . S
C1663 H1657 0.950 . S
C1663 C1662 1.327 . S
C1663 C1667 1.429 . S
C1664 C1647 1.574 . S
C1664 H1658 0.949 . S
C1664 C1668 1.368 1_655 S
C1665 C1646 1.429 1_655 S
C1665 C1659 1.429 . S
C1665 C1666 1.523 . S
C1666 C1647 1.368 . S
C1666 C1660 1.368 1_655 S
C1666 C1665 1.523 . S
C1667 C1651 1.429 1_455 S
C1667 C1663 1.429 . S
C1667 C1668 1.523 . S
C1668 C1652 1.368 . S
C1668 C1664 1.368 1_455 S
C1668 C1667 1.523 . S
H1669 C1644 0.950 . S
H1670 C1646 0.950 . S
H1671 C1647 0.949 . S
H1672 C1649 0.950 . S
H1673 C1651 0.950 . S
C1674 C1675 1.349 . S
C1674 C1676 1.327 . S
C1674 H1699 0.950 . S
C1675 C1674 1.349 . S
C1675 C1691 1.349 . S
C1676 C1674 1.327 . S
C1676 C1695 1.429 . S
C1676 H1700 0.950 . S
C1677 C1694 1.574 . S
C1677 C1696 1.368 . S
C1677 H1701 0.949 . S
H1678 C1682 0.949 . S
C1679 C1680 1.349 . S
C1679 C1681 1.327 . S
C1679 H1702 0.950 . S
C1680 C1679 1.349 . S
C1680 C1692 1.349 . S
C1681 C1679 1.327 . S
C1681 C1697 1.429 . S
C1681 H1703 0.950 . S
C1682 H1678 0.949 . S
C1682 C1690 1.574 . S
C1682 C1698 1.368 . S
H1683 C1691 0.950 . S
H1684 C1689 0.950 . S
H1685 C1690 0.949 . S
H1686 C1692 0.950 . S
H1687 C1693 0.950 . S
H1688 C1694 0.949 . S
C1689 H1684 0.950 . S
C1689 C1691 1.327 . S
C1689 C1695 1.429 . S
C1690 C1682 1.574 . S
C1690 H1685 0.949 . S
C1690 C1696 1.368 . S
C1691 C1675 1.349 . S
C1691 H1683 0.950 . S
C1691 C1689 1.327 . S
C1692 C1680 1.349 . S
C1692 H1686 0.950 . S
C1692 C1693 1.327 . S
C1693 H1687 0.950 . S
C1693 C1692 1.327 . S
C1693 C1697 1.429 . S
C1694 C1677 1.574 . S
C1694 H1688 0.949 . S
C1694 C1698 1.368 . S
C1695 C1676 1.429 . S
C1695 C1689 1.429 . S
C1695 C1696 1.523 . S
C1696 C1677 1.368 . S
C1696 C1690 1.368 . S
C1696 C1695 1.523 . S
C1697 C1681 1.429 . S
C1697 C1693 1.429 . S
C1697 C1698 1.523 . S
C1698 C1682 1.368 . S
C1698 C1694 1.368 . S
C1698 C1697 1.523 . S
H1699 C1674 0.950 . S
H1700 C1676 0.950 . S
H1701 C1677 0.949 . S
H1702 C1679 0.950 . S
H1703 C1681 0.950 . S
C1704 C1705 1.349 1_565 S
C1704 C1706 1.327 . S
C1704 H1729 0.950 . S
C1705 C1704 1.349 1_545 S
C1705 C1721 1.349 . S
C1706 C1704 1.327 . S
C1706 C1725 1.429 1_565 S
C1706 H1730 0.950 . S
C1707 C1724 1.574 . S
C1707 C1726 1.368 . S
C1707 H1731 0.949 . S
H1708 C1712 0.949 . S
C1709 C1710 1.349 1_545 S
C1709 C1711 1.327 . S
C1709 H1732 0.950 . S
C1710 C1709 1.349 1_565 S
C1710 C1722 1.349 . S
C1711 C1709 1.327 . S
C1711 C1727 1.429 1_545 S
C1711 H1733 0.950 . S
C1712 H1708 0.949 . S
C1712 C1720 1.574 . S
C1712 C1728 1.368 . S
H1713 C1721 0.950 . S
H1714 C1719 0.950 . S
H1715 C1720 0.949 . S
H1716 C1722 0.950 . S
H1717 C1723 0.950 . S
H1718 C1724 0.949 . S
C1719 H1714 0.950 . S
C1719 C1721 1.327 . S
C1719 C1725 1.429 . S
C1720 C1712 1.574 . S
C1720 H1715 0.949 . S
C1720 C1726 1.368 1_565 S
C1721 C1705 1.349 . S
C1721 H1713 0.950 . S
C1721 C1719 1.327 . S
C1722 C1710 1.349 . S
C1722 H1716 0.950 . S
C1722 C1723 1.327 . S
C1723 H1717 0.950 . S
C1723 C1722 1.327 . S
C1723 C1727 1.429 . S
C1724 C1707 1.574 . S
C1724 H1718 0.949 . S
C1724 C1728 1.368 1_545 S
C1725 C1706 1.429 1_545 S
C1725 C1719 1.429 . S
C1725 C1726 1.523 . S
C1726 C1707 1.368 . S
C1726 C1720 1.368 1_545 S
C1726 C1725 1.523 . S
C1727 C1711 1.429 1_565 S
C1727 C1723 1.429 . S
C1727 C1728 1.523 . S
C1728 C1712 1.368 . S
C1728 C1724 1.368 1_565 S
C1728 C1727 1.523 . S
H1729 C1704 0.950 . S
H1730 C1706 0.950 . S
H1731 C1707 0.949 . S
H1732 C1709 0.950 . S
H1733 C1711 0.950 . S
C1734 C1735 1.349 . S
C1734 C1736 1.327 . S
C1734 H1759 0.950 . S
C1735 C1734 1.349 . S
C1735 C1751 1.367 . S
C1736 C1734 1.327 . S
C1736 C1755 1.429 . S
C1736 H1760 0.950 . S
C1737 C1754 1.574 . S
C1737 C1756 1.368 1_655 S
C1737 H1761 0.949 . S
H1738 C1742 0.949 . S
C1739 C1740 1.349 . S
C1739 C1741 1.327 . S
C1739 H1762 0.950 . S
C1740 C1739 1.349 . S
C1740 C1752 1.370 . S
C1741 C1739 1.327 . S
C1741 C1757 1.429 . S
C1741 H1763 0.950 . S
C1742 H1738 0.949 . S
C1742 C1750 1.574 . S
C1742 C1758 1.368 1_455 S
H1743 C1751 0.933 1_655 S
H1744 C1749 0.966 . S
H1745 C1750 0.949 . S
H1746 C1752 0.931 1_455 S
H1747 C1753 0.963 . S
H1748 C1754 0.949 . S
C1749 H1744 0.966 . S
C1749 C1751 1.325 1_655 S
C1749 C1755 1.414 1_655 S
C1750 C1742 1.574 . S
C1750 H1745 0.949 . S
C1750 C1756 1.368 . S
C1751 C1735 1.367 . S
C1751 H1743 0.933 1_455 S
C1751 C1749 1.325 1_455 S
C1752 C1740 1.370 . S
C1752 H1746 0.931 1_655 S
C1752 C1753 1.325 1_655 S
C1753 H1747 0.963 . S
C1753 C1752 1.325 1_455 S
C1753 C1757 1.417 1_455 S
C1754 C1737 1.574 . S
C1754 H1748 0.949 . S
C1754 C1758 1.368 . S
C1755 C1736 1.429 . S
C1755 C1749 1.414 1_455 S
C1755 C1756 1.523 . S
C1756 C1737 1.368 1_455 S
C1756 C1750 1.368 . S
C1756 C1755 1.523 . S
C1757 C1741 1.429 . S
C1757 C1753 1.417 1_655 S
C1757 C1758 1.523 . S
C1758 C1742 1.368 1_655 S
C1758 C1754 1.368 . S
C1758 C1757 1.523 . S
H1759 C1734 0.950 . S
H1760 C1736 0.950 . S
H1761 C1737 0.949 . S
H1762 C1739 0.950 . S
H1763 C1741 0.950 . S
C1764 C1765 1.349 . S
C1764 C1766 1.327 . S
C1764 H1789 0.950 . S
C1765 C1764 1.349 . S
C1765 C1781 1.349 . S
C1766 C1764 1.327 . S
C1766 C1785 1.429 . S
C1766 H1790 0.950 . S
C1767 C1784 1.574 . S
C1767 C1786 1.368 . S
C1767 H1791 0.949 . S
H1768 C1772 0.949 . S
C1769 C1770 1.349 . S
C1769 C1771 1.327 . S
C1769 H1792 0.950 . S
C1770 C1769 1.349 . S
C1770 C1782 1.349 . S
C1771 C1769 1.327 . S
C1771 C1787 1.429 . S
C1771 H1793 0.950 . S
C1772 H1768 0.949 . S
C1772 C1780 1.574 . S
C1772 C1788 1.368 . S
H1773 C1781 0.950 . S
H1774 C1779 0.950 . S
H1775 C1780 0.949 . S
H1776 C1782 0.950 . S
H1777 C1783 0.950 . S
H1778 C1784 0.949 . S
C1779 H1774 0.950 . S
C1779 C1781 1.327 . S
C1779 C1785 1.429 . S
C1780 C1772 1.574 . S
C1780 H1775 0.949 . S
C1780 C1786 1.368 . S
C1781 C1765 1.349 . S
C1781 H1773 0.950 . S
C1781 C1779 1.327 . S
C1782 C1770 1.349 . S
C1782 H1776 0.950 . S
C1782 C1783 1.327 . S
C1783 H1777 0.950 . S
C1783 C1782 1.327 . S
C1783 C1787 1.429 . S
C1784 C1767 1.574 . S
C1784 H1778 0.949 . S
C1784 C1788 1.368 . S
C1785 C1766 1.429 . S
C1785 C1779 1.429 . S
C1785 C1786 1.523 . S
C1786 C1767 1.368 . S
C1786 C1780 1.368 . S
C1786 C1785 1.523 . S
C1787 C1771 1.429 . S
C1787 C1783 1.429 . S
C1787 C1788 1.523 . S
C1788 C1772 1.368 . S
C1788 C1784 1.368 . S
C1788 C1787 1.523 . S
H1789 C1764 0.950 . S
H1790 C1766 0.950 . S
H1791 C1767 0.949 . S
H1792 C1769 0.950 . S
H1793 C1771 0.950 . S
C1794 C1795 1.349 . S
C1794 C1796 1.327 . S
C1794 H1819 0.950 . S
C1795 C1794 1.349 . S
C1795 C1811 1.349 . S
C1796 C1794 1.327 . S
C1796 C1815 1.429 . S
C1796 H1820 0.950 . S
C1797 C1814 1.574 . S
C1797 C1816 1.368 . S
C1797 H1821 0.949 . S
H1798 C1802 0.949 . S
C1799 C1800 1.349 . S
C1799 C1801 1.327 . S
C1799 H1822 0.950 . S
C1800 C1799 1.349 . S
C1800 C1812 1.349 . S
C1801 C1799 1.327 . S
C1801 C1817 1.429 . S
C1801 H1823 0.950 . S
C1802 H1798 0.949 . S
C1802 C1810 1.574 . S
C1802 C1818 1.368 . S
H1803 C1811 0.950 . S
H1804 C1809 0.950 . S
H1805 C1810 0.949 . S
H1806 C1812 0.950 . S
H1807 C1813 0.950 . S
H1808 C1814 0.949 . S
C1809 H1804 0.950 . S
C1809 C1811 1.327 . S
C1809 C1815 1.429 . S
C1810 C1802 1.574 . S
C1810 H1805 0.949 . S
C1810 C1816 1.368 . S
C1811 C1795 1.349 . S
C1811 H1803 0.950 . S
C1811 C1809 1.327 . S
C1812 C1800 1.349 . S
C1812 H1806 0.950 . S
C1812 C1813 1.327 . S
C1813 H1807 0.950 . S
C1813 C1812 1.327 . S
C1813 C1817 1.429 . S
C1814 C1797 1.574 . S
C1814 H1808 0.949 . S
C1814 C1818 1.368 . S
C1815 C1796 1.429 . S
C1815 C1809 1.429 . S
C1815 C1816 1.523 . S
C1816 C1797 1.368 . S
C1816 C1810 1.368 . S
C1816 C1815 1.523 . S
C1817 C1801 1.429 . S
C1817 C1813 1.429 . S
C1817 C1818 1.523 . S
C1818 C1802 1.368 . S
C1818 C1814 1.368 . S
C1818 C1817 1.523 . S
H1819 C1794 0.950 . S
H1820 C1796 0.950 . S
H1821 C1797 0.949 . S
H1822 C1799 0.950 . S
H1823 C1801 0.950 . S
C1824 C1825 1.349 . S
C1824 C1826 1.327 . S
C1824 H1849 0.950 . S
C1825 C1824 1.349 . S
C1825 C1841 1.349 . S
C1826 C1824 1.327 . S
C1826 C1845 1.429 . S
C1826 H1850 0.950 . S
C1827 C1844 1.574 . S
C1827 C1846 1.368 . S
C1827 H1851 0.949 . S
H1828 C1832 0.949 . S
C1829 C1830 1.349 . S
C1829 C1831 1.327 . S
C1829 H1852 0.950 . S
C1830 C1829 1.349 . S
C1830 C1842 1.349 . S
C1831 C1829 1.327 . S
C1831 C1847 1.429 . S
C1831 H1853 0.950 . S
C1832 H1828 0.949 . S
C1832 C1840 1.574 . S
C1832 C1848 1.368 . S
H1833 C1841 0.950 . S
H1834 C1839 0.950 . S
H1835 C1840 0.949 . S
H1836 C1842 0.950 . S
H1837 C1843 0.950 . S
H1838 C1844 0.949 . S
C1839 H1834 0.950 . S
C1839 C1841 1.327 . S
C1839 C1845 1.429 . S
C1840 C1832 1.574 . S
C1840 H1835 0.949 . S
C1840 C1846 1.368 . S
C1841 C1825 1.349 . S
C1841 H1833 0.950 . S
C1841 C1839 1.327 . S
C1842 C1830 1.349 . S
C1842 H1836 0.950 . S
C1842 C1843 1.327 . S
C1843 H1837 0.950 . S
C1843 C1842 1.327 . S
C1843 C1847 1.429 . S
C1844 C1827 1.574 . S
C1844 H1838 0.949 . S
C1844 C1848 1.368 . S
C1845 C1826 1.429 . S
C1845 C1839 1.429 . S
C1845 C1846 1.523 . S
C1846 C1827 1.368 . S
C1846 C1840 1.368 . S
C1846 C1845 1.523 . S
C1847 C1831 1.429 . S
C1847 C1843 1.429 . S
C1847 C1848 1.523 . S
C1848 C1832 1.368 . S
C1848 C1844 1.368 . S
C1848 C1847 1.523 . S
H1849 C1824 0.950 . S
H1850 C1826 0.950 . S
H1851 C1827 0.949 . S
H1852 C1829 0.950 . S
H1853 C1831 0.950 . S
C1854 C1855 1.349 . S
C1854 C1856 1.327 . S
C1854 H1879 0.950 . S
C1855 C1854 1.349 . S
C1855 C1871 1.349 . S
C1856 C1854 1.327 . S
C1856 C1875 1.429 . S
C1856 H1880 0.950 . S
C1857 C1874 1.574 . S
C1857 C1876 1.368 . S
C1857 H1881 0.949 . S
H1858 C1862 0.949 . S
C1859 C1860 1.349 . S
C1859 C1861 1.327 . S
C1859 H1882 0.950 . S
C1860 C1859 1.349 . S
C1860 C1872 1.349 . S
C1861 C1859 1.327 . S
C1861 C1877 1.429 . S
C1861 H1883 0.950 . S
C1862 H1858 0.949 . S
C1862 C1870 1.574 . S
C1862 C1878 1.368 . S
H1863 C1871 0.950 . S
H1864 C1869 0.950 . S
H1865 C1870 0.949 . S
H1866 C1872 0.950 . S
H1867 C1873 0.950 . S
H1868 C1874 0.949 . S
C1869 H1864 0.950 . S
C1869 C1871 1.327 . S
C1869 C1875 1.429 . S
C1870 C1862 1.574 . S
C1870 H1865 0.949 . S
C1870 C1876 1.368 . S
C1871 C1855 1.349 . S
C1871 H1863 0.950 . S
C1871 C1869 1.327 . S
C1872 C1860 1.349 . S
C1872 H1866 0.950 . S
C1872 C1873 1.327 . S
C1873 H1867 0.950 . S
C1873 C1872 1.327 . S
C1873 C1877 1.429 . S
C1874 C1857 1.574 . S
C1874 H1868 0.949 . S
C1874 C1878 1.368 . S
C1875 C1856 1.429 . S
C1875 C1869 1.429 . S
C1875 C1876 1.523 . S
C1876 C1857 1.368 . S
C1876 C1870 1.368 . S
C1876 C1875 1.523 . S
C1877 C1861 1.429 . S
C1877 C1873 1.429 . S
C1877 C1878 1.523 . S
C1878 C1862 1.368 . S
C1878 C1874 1.368 . S
C1878 C1877 1.523 . S
H1879 C1854 0.950 . S
H1880 C1856 0.950 . S
H1881 C1857 0.949 . S
H1882 C1859 0.950 . S
H1883 C1861 0.950 . S
C1884 C1885 1.349 . S
C1884 C1886 1.327 . S
C1884 H1909 0.950 . S
C1885 C1884 1.349 . S
C1885 C1901 1.349 . S
C1886 C1884 1.327 . S
C1886 C1905 1.429 . S
C1886 H1910 0.950 . S
C1887 C1904 1.574 . S
C1887 C1906 1.368 . S
C1887 H1911 0.949 . S
H1888 C1892 0.949 . S
C1889 C1890 1.349 . S
C1889 C1891 1.327 . S
C1889 H1912 0.950 . S
C1890 C1889 1.349 . S
C1890 C1902 1.349 . S
C1891 C1889 1.327 . S
C1891 C1907 1.429 . S
C1891 H1913 0.950 . S
C1892 H1888 0.949 . S
C1892 C1900 1.574 . S
C1892 C1908 1.368 . S
H1893 C1901 0.950 . S
H1894 C1899 0.950 . S
H1895 C1900 0.949 . S
H1896 C1902 0.950 . S
H1897 C1903 0.950 . S
H1898 C1904 0.949 . S
C1899 H1894 0.950 . S
C1899 C1901 1.327 . S
C1899 C1905 1.429 . S
C1900 C1892 1.574 . S
C1900 H1895 0.949 . S
C1900 C1906 1.368 . S
C1901 C1885 1.349 . S
C1901 H1893 0.950 . S
C1901 C1899 1.327 . S
C1902 C1890 1.349 . S
C1902 H1896 0.950 . S
C1902 C1903 1.327 . S
C1903 H1897 0.950 . S
C1903 C1902 1.327 . S
C1903 C1907 1.429 . S
C1904 C1887 1.574 . S
C1904 H1898 0.949 . S
C1904 C1908 1.368 . S
C1905 C1886 1.429 . S
C1905 C1899 1.429 . S
C1905 C1906 1.523 . S
C1906 C1887 1.368 . S
C1906 C1900 1.368 . S
C1906 C1905 1.523 . S
C1907 C1891 1.429 . S
C1907 C1903 1.429 . S
C1907 C1908 1.523 . S
C1908 C1892 1.368 . S
C1908 C1904 1.368 . S
C1908 C1907 1.523 . S
H1909 C1884 0.950 . S
H1910 C1886 0.950 . S
H1911 C1887 0.949 . S
H1912 C1889 0.950 . S
H1913 C1891 0.950 . S
C1914 C1915 1.349 . S
C1914 C1916 1.327 . S
C1914 H1939 0.950 . S
C1915 C1914 1.349 . S
C1915 C1931 1.349 . S
C1916 C1914 1.327 . S
C1916 C1935 1.429 . S
C1916 H1940 0.950 . S
C1917 C1934 1.574 . S
C1917 C1936 1.368 . S
C1917 H1941 0.949 . S
H1918 C1922 0.949 . S
C1919 C1920 1.349 . S
C1919 C1921 1.327 . S
C1919 H1942 0.950 . S
C1920 C1919 1.349 . S
C1920 C1932 1.349 . S
C1921 C1919 1.327 . S
C1921 C1937 1.429 . S
C1921 H1943 0.950 . S
C1922 H1918 0.949 . S
C1922 C1930 1.574 . S
C1922 C1938 1.368 . S
H1923 C1931 0.950 . S
H1924 C1929 0.950 . S
H1925 C1930 0.949 . S
H1926 C1932 0.950 . S
H1927 C1933 0.950 . S
H1928 C1934 0.949 . S
C1929 H1924 0.950 . S
C1929 C1931 1.327 . S
C1929 C1935 1.429 . S
C1930 C1922 1.574 . S
C1930 H1925 0.949 . S
C1930 C1936 1.368 . S
C1931 C1915 1.349 . S
C1931 H1923 0.950 . S
C1931 C1929 1.327 . S
C1932 C1920 1.349 . S
C1932 H1926 0.950 . S
C1932 C1933 1.327 . S
C1933 H1927 0.950 . S
C1933 C1932 1.327 . S
C1933 C1937 1.429 . S
C1934 C1917 1.574 . S
C1934 H1928 0.949 . S
C1934 C1938 1.368 . S
C1935 C1916 1.429 . S
C1935 C1929 1.429 . S
C1935 C1936 1.523 . S
C1936 C1917 1.368 . S
C1936 C1930 1.368 . S
C1936 C1935 1.523 . S
C1937 C1921 1.429 . S
C1937 C1933 1.429 . S
C1937 C1938 1.523 . S
C1938 C1922 1.368 . S
C1938 C1934 1.368 . S
C1938 C1937 1.523 . S
H1939 C1914 0.950 . S
H1940 C1916 0.950 . S
H1941 C1917 0.949 . S
H1942 C1919 0.950 . S
H1943 C1921 0.950 . S
C1944 C1945 1.349 . S
C1944 C1946 1.327 . S
C1944 H1969 0.950 . S
C1945 C1944 1.349 . S
C1945 C1961 1.349 . S
C1946 C1944 1.327 . S
C1946 C1965 1.429 . S
C1946 H1970 0.950 . S
C1947 C1964 1.574 . S
C1947 C1966 1.368 . S
C1947 H1971 0.949 . S
H1948 C1952 0.949 . S
C1949 C1950 1.349 . S
C1949 C1951 1.327 . S
C1949 H1972 0.950 . S
C1950 C1949 1.349 . S
C1950 C1962 1.349 . S
C1951 C1949 1.327 . S
C1951 C1967 1.429 . S
C1951 H1973 0.950 . S
C1952 H1948 0.949 . S
C1952 C1960 1.574 . S
C1952 C1968 1.368 . S
H1953 C1961 0.950 . S
H1954 C1959 0.950 . S
H1955 C1960 0.949 . S
H1956 C1962 0.950 . S
H1957 C1963 0.950 . S
H1958 C1964 0.949 . S
C1959 H1954 0.950 . S
C1959 C1961 1.327 . S
C1959 C1965 1.429 . S
C1960 C1952 1.574 . S
C1960 H1955 0.949 . S
C1960 C1966 1.368 . S
C1961 C1945 1.349 . S
C1961 H1953 0.950 . S
C1961 C1959 1.327 . S
C1962 C1950 1.349 . S
C1962 H1956 0.950 . S
C1962 C1963 1.327 . S
C1963 H1957 0.950 . S
C1963 C1962 1.327 . S
C1963 C1967 1.429 . S
C1964 C1947 1.574 . S
C1964 H1958 0.949 . S
C1964 C1968 1.368 . S
C1965 C1946 1.429 . S
C1965 C1959 1.429 . S
C1965 C1966 1.523 . S
C1966 C1947 1.368 . S
C1966 C1960 1.368 . S
C1966 C1965 1.523 . S
C1967 C1951 1.429 . S
C1967 C1963 1.429 . S
C1967 C1968 1.523 . S
C1968 C1952 1.368 . S
C1968 C1964 1.368 . S
C1968 C1967 1.523 . S
H1969 C1944 0.950 . S
H1970 C1946 0.950 . S
H1971 C1947 0.949 . S
H1972 C1949 0.950 . S
H1973 C1951 0.950 . S
C1974 C1975 1.349 . S
C1974 C1976 1.327 . S
C1974 H1999 0.950 . S
C1975 C1974 1.349 . S
C1975 C1991 1.349 . S
C1976 C1974 1.327 . S
C1976 C1995 1.429 . S
C1976 H2000 0.950 . S
C1977 C1994 1.574 . S
C1977 C1996 1.368 . S
C1977 H2001 0.949 . S
H1978 C1982 0.949 . S
C1979 C1980 1.349 . S
C1979 C1981 1.327 . S
C1979 H2002 0.950 . S
C1980 C1979 1.349 . S
C1980 C1992 1.349 . S
C1981 C1979 1.327 . S
C1981 C1997 1.429 . S
C1981 H2003 0.950 . S
C1982 H1978 0.949 . S
C1982 C1990 1.574 . S
C1982 C1998 1.368 . S
H1983 C1991 0.950 . S
H1984 C1989 0.950 . S
H1985 C1990 0.949 . S
H1986 C1992 0.950 . S
H1987 C1993 0.950 . S
H1988 C1994 0.949 . S
C1989 H1984 0.950 . S
C1989 C1991 1.327 . S
C1989 C1995 1.429 . S
C1990 C1982 1.574 . S
C1990 H1985 0.949 . S
C1990 C1996 1.368 . S
C1991 C1975 1.349 . S
C1991 H1983 0.950 . S
C1991 C1989 1.327 . S
C1992 C1980 1.349 . S
C1992 H1986 0.950 . S
C1992 C1993 1.327 . S
C1993 H1987 0.950 . S
C1993 C1992 1.327 . S
C1993 C1997 1.429 . S
C1994 C1977 1.574 . S
C1994 H1988 0.949 . S
C1994 C1998 1.368 . S
C1995 C1976 1.429 . S
C1995 C1989 1.429 . S
C1995 C1996 1.523 . S
C1996 C1977 1.368 . S
C1996 C1990 1.368 . S
C1996 C1995 1.523 . S
C1997 C1981 1.429 . S
C1997 C1993 1.429 . S
C1997 C1998 1.523 . S
C1998 C1982 1.368 . S
C1998 C1994 1.368 . S
C1998 C1997 1.523 . S
H1999 C1974 0.950 . S
H2000 C1976 0.950 . S
H2001 C1977 0.949 . S
H2002 C1979 0.950 . S
H2003 C1981 0.950 . S
C2004 C2005 1.349 . S
C2004 C2006 1.327 . S
C2004 H2029 0.950 . S
C2005 C2004 1.349 . S
C2005 C2021 1.349 . S
C2006 C2004 1.327 . S
C2006 C2025 1.429 . S
C2006 H2030 0.950 . S
C2007 C2024 1.574 . S
C2007 C2026 1.368 . S
C2007 H2031 0.949 . S
H2008 C2012 0.949 . S
C2009 C2010 1.349 . S
C2009 C2011 1.327 . S
C2009 H2032 0.950 . S
C2010 C2009 1.349 . S
C2010 C2022 1.349 . S
C2011 C2009 1.327 . S
C2011 C2027 1.429 . S
C2011 H2033 0.950 . S
C2012 H2008 0.949 . S
C2012 C2020 1.574 . S
C2012 C2028 1.368 . S
H2013 C2021 0.950 . S
H2014 C2019 0.950 . S
H2015 C2020 0.949 . S
H2016 C2022 0.950 . S
H2017 C2023 0.950 . S
H2018 C2024 0.949 . S
C2019 H2014 0.950 . S
C2019 C2021 1.327 . S
C2019 C2025 1.429 . S
C2020 C2012 1.574 . S
C2020 H2015 0.949 . S
C2020 C2026 1.368 . S
C2021 C2005 1.349 . S
C2021 H2013 0.950 . S
C2021 C2019 1.327 . S
C2022 C2010 1.349 . S
C2022 H2016 0.950 . S
C2022 C2023 1.327 . S
C2023 H2017 0.950 . S
C2023 C2022 1.327 . S
C2023 C2027 1.429 . S
C2024 C2007 1.574 . S
C2024 H2018 0.949 . S
C2024 C2028 1.368 . S
C2025 C2006 1.429 . S
C2025 C2019 1.429 . S
C2025 C2026 1.523 . S
C2026 C2007 1.368 . S
C2026 C2020 1.368 . S
C2026 C2025 1.523 . S
C2027 C2011 1.429 . S
C2027 C2023 1.429 . S
C2027 C2028 1.523 . S
C2028 C2012 1.368 . S
C2028 C2024 1.368 . S
C2028 C2027 1.523 . S
H2029 C2004 0.950 . S
H2030 C2006 0.950 . S
H2031 C2007 0.949 . S
H2032 C2009 0.950 . S
H2033 C2011 0.950 . S
C2034 C2035 1.349 . S
C2034 C2036 1.327 . S
C2034 H2059 0.950 . S
C2035 C2034 1.349 . S
C2035 C2051 1.349 . S
C2036 C2034 1.327 . S
C2036 C2055 1.429 . S
C2036 H2060 0.950 . S
C2037 C2054 1.574 . S
C2037 C2056 1.368 . S
C2037 H2061 0.949 . S
H2038 C2042 0.949 . S
C2039 C2040 1.349 . S
C2039 C2041 1.327 . S
C2039 H2062 0.950 . S
C2040 C2039 1.349 . S
C2040 C2052 1.349 . S
C2041 C2039 1.327 . S
C2041 C2057 1.429 . S
C2041 H2063 0.950 . S
C2042 H2038 0.949 . S
C2042 C2050 1.574 . S
C2042 C2058 1.368 . S
H2043 C2051 0.950 . S
H2044 C2049 0.950 . S
H2045 C2050 0.949 . S
H2046 C2052 0.950 . S
H2047 C2053 0.950 . S
H2048 C2054 0.949 . S
C2049 H2044 0.950 . S
C2049 C2051 1.327 . S
C2049 C2055 1.429 . S
C2050 C2042 1.574 . S
C2050 H2045 0.949 . S
C2050 C2056 1.368 . S
C2051 C2035 1.349 . S
C2051 H2043 0.950 . S
C2051 C2049 1.327 . S
C2052 C2040 1.349 . S
C2052 H2046 0.950 . S
C2052 C2053 1.327 . S
C2053 H2047 0.950 . S
C2053 C2052 1.327 . S
C2053 C2057 1.429 . S
C2054 C2037 1.574 . S
C2054 H2048 0.949 . S
C2054 C2058 1.368 . S
C2055 C2036 1.429 . S
C2055 C2049 1.429 . S
C2055 C2056 1.523 . S
C2056 C2037 1.368 . S
C2056 C2050 1.368 . S
C2056 C2055 1.523 . S
C2057 C2041 1.429 . S
C2057 C2053 1.429 . S
C2057 C2058 1.523 . S
C2058 C2042 1.368 . S
C2058 C2054 1.368 . S
C2058 C2057 1.523 . S
H2059 C2034 0.950 . S
H2060 C2036 0.950 . S
H2061 C2037 0.949 . S
H2062 C2039 0.950 . S
H2063 C2041 0.950 . S
C2064 C2065 1.349 . S
C2064 C2066 1.327 . S
C2064 H2089 0.950 . S
C2065 C2064 1.349 . S
C2065 C2081 1.349 . S
C2066 C2064 1.327 . S
C2066 C2085 1.429 . S
C2066 H2090 0.950 . S
C2067 C2084 1.574 . S
C2067 C2086 1.368 . S
C2067 H2091 0.949 . S
H2068 C2072 0.949 . S
C2069 C2070 1.349 . S
C2069 C2071 1.327 . S
C2069 H2092 0.950 . S
C2070 C2069 1.349 . S
C2070 C2082 1.349 . S
C2071 C2069 1.327 . S
C2071 C2087 1.429 . S
C2071 H2093 0.950 . S
C2072 H2068 0.949 . S
C2072 C2080 1.574 . S
C2072 C2088 1.368 . S
H2073 C2081 0.950 . S
H2074 C2079 0.950 . S
H2075 C2080 0.949 . S
H2076 C2082 0.950 . S
H2077 C2083 0.950 . S
H2078 C2084 0.949 . S
C2079 H2074 0.950 . S
C2079 C2081 1.327 . S
C2079 C2085 1.429 . S
C2080 C2072 1.574 . S
C2080 H2075 0.949 . S
C2080 C2086 1.368 . S
C2081 C2065 1.349 . S
C2081 H2073 0.950 . S
C2081 C2079 1.327 . S
C2082 C2070 1.349 . S
C2082 H2076 0.950 . S
C2082 C2083 1.327 . S
C2083 H2077 0.950 . S
C2083 C2082 1.327 . S
C2083 C2087 1.429 . S
C2084 C2067 1.574 . S
C2084 H2078 0.949 . S
C2084 C2088 1.368 . S
C2085 C2066 1.429 . S
C2085 C2079 1.429 . S
C2085 C2086 1.523 . S
C2086 C2067 1.368 . S
C2086 C2080 1.368 . S
C2086 C2085 1.523 . S
C2087 C2071 1.429 . S
C2087 C2083 1.429 . S
C2087 C2088 1.523 . S
C2088 C2072 1.368 . S
C2088 C2084 1.368 . S
C2088 C2087 1.523 . S
H2089 C2064 0.950 . S
H2090 C2066 0.950 . S
H2091 C2067 0.949 . S
H2092 C2069 0.950 . S
H2093 C2071 0.950 . S
C2094 C2095 1.349 . S
C2094 C2096 1.327 . S
C2094 H2119 0.950 . S
C2095 C2094 1.349 . S
C2095 C2111 1.349 . S
C2096 C2094 1.327 . S
C2096 C2115 1.429 . S
C2096 H2120 0.950 . S
C2097 C2114 1.574 . S
C2097 C2116 1.368 . S
C2097 H2121 0.949 . S
H2098 C2102 0.949 . S
C2099 C2100 1.349 . S
C2099 C2101 1.327 . S
C2099 H2122 0.950 . S
C2100 C2099 1.349 . S
C2100 C2112 1.349 . S
C2101 C2099 1.327 . S
C2101 C2117 1.429 . S
C2101 H2123 0.950 . S
C2102 H2098 0.949 . S
C2102 C2110 1.574 . S
C2102 C2118 1.368 . S
H2103 C2111 0.950 . S
H2104 C2109 0.950 . S
H2105 C2110 0.949 . S
H2106 C2112 0.950 . S
H2107 C2113 0.950 . S
H2108 C2114 0.949 . S
C2109 H2104 0.950 . S
C2109 C2111 1.327 . S
C2109 C2115 1.429 . S
C2110 C2102 1.574 . S
C2110 H2105 0.949 . S
C2110 C2116 1.368 . S
C2111 C2095 1.349 . S
C2111 H2103 0.950 . S
C2111 C2109 1.327 . S
C2112 C2100 1.349 . S
C2112 H2106 0.950 . S
C2112 C2113 1.327 . S
C2113 H2107 0.950 . S
C2113 C2112 1.327 . S
C2113 C2117 1.429 . S
C2114 C2097 1.574 . S
C2114 H2108 0.949 . S
C2114 C2118 1.368 . S
C2115 C2096 1.429 . S
C2115 C2109 1.429 . S
C2115 C2116 1.523 . S
C2116 C2097 1.368 . S
C2116 C2110 1.368 . S
C2116 C2115 1.523 . S
C2117 C2101 1.429 . S
C2117 C2113 1.429 . S
C2117 C2118 1.523 . S
C2118 C2102 1.368 . S
C2118 C2114 1.368 . S
C2118 C2117 1.523 . S
H2119 C2094 0.950 . S
H2120 C2096 0.950 . S
H2121 C2097 0.949 . S
H2122 C2099 0.950 . S
H2123 C2101 0.950 . S
C2124 C2125 1.349 . S
C2124 C2126 1.327 . S
C2124 H2149 0.950 . S
C2125 C2124 1.349 . S
C2125 C2141 1.349 . S
C2126 C2124 1.327 . S
C2126 C2145 1.429 . S
C2126 H2150 0.950 . S
C2127 C2144 1.574 . S
C2127 C2146 1.368 . S
C2127 H2151 0.949 . S
H2128 C2132 0.949 . S
C2129 C2130 1.349 . S
C2129 C2131 1.327 . S
C2129 H2152 0.950 . S
C2130 C2129 1.349 . S
C2130 C2142 1.349 . S
C2131 C2129 1.327 . S
C2131 C2147 1.429 . S
C2131 H2153 0.950 . S
C2132 H2128 0.949 . S
C2132 C2140 1.574 . S
C2132 C2148 1.368 . S
H2133 C2141 0.950 . S
H2134 C2139 0.950 . S
H2135 C2140 0.949 . S
H2136 C2142 0.950 . S
H2137 C2143 0.950 . S
H2138 C2144 0.949 . S
C2139 H2134 0.950 . S
C2139 C2141 1.327 . S
C2139 C2145 1.429 . S
C2140 C2132 1.574 . S
C2140 H2135 0.949 . S
C2140 C2146 1.368 . S
C2141 C2125 1.349 . S
C2141 H2133 0.950 . S
C2141 C2139 1.327 . S
C2142 C2130 1.349 . S
C2142 H2136 0.950 . S
C2142 C2143 1.327 . S
C2143 H2137 0.950 . S
C2143 C2142 1.327 . S
C2143 C2147 1.429 . S
C2144 C2127 1.574 . S
C2144 H2138 0.949 . S
C2144 C2148 1.368 . S
C2145 C2126 1.429 . S
C2145 C2139 1.429 . S
C2145 C2146 1.523 . S
C2146 C2127 1.368 . S
C2146 C2140 1.368 . S
C2146 C2145 1.523 . S
C2147 C2131 1.429 . S
C2147 C2143 1.429 . S
C2147 C2148 1.523 . S
C2148 C2132 1.368 . S
C2148 C2144 1.368 . S
C2148 C2147 1.523 . S
H2149 C2124 0.950 . S
H2150 C2126 0.950 . S
H2151 C2127 0.949 . S
H2152 C2129 0.950 . S
H2153 C2131 0.950 . S
C2154 C2155 1.349 . S
C2154 C2156 1.327 . S
C2154 H2179 0.950 . S
C2155 C2154 1.349 . S
C2155 C2171 1.349 . S
C2156 C2154 1.327 . S
C2156 C2175 1.429 . S
C2156 H2180 0.950 . S
C2157 C2174 1.574 . S
C2157 C2176 1.368 . S
C2157 H2181 0.949 . S
H2158 C2162 0.949 . S
C2159 C2160 1.349 . S
C2159 C2161 1.327 . S
C2159 H2182 0.950 . S
C2160 C2159 1.349 . S
C2160 C2172 1.349 . S
C2161 C2159 1.327 . S
C2161 C2177 1.429 . S
C2161 H2183 0.950 . S
C2162 H2158 0.949 . S
C2162 C2170 1.574 . S
C2162 C2178 1.368 . S
H2163 C2171 0.950 . S
H2164 C2169 0.950 . S
H2165 C2170 0.949 . S
H2166 C2172 0.950 . S
H2167 C2173 0.950 . S
H2168 C2174 0.949 . S
C2169 H2164 0.950 . S
C2169 C2171 1.327 . S
C2169 C2175 1.429 . S
C2170 C2162 1.574 . S
C2170 H2165 0.949 . S
C2170 C2176 1.368 . S
C2171 C2155 1.349 . S
C2171 H2163 0.950 . S
C2171 C2169 1.327 . S
C2172 C2160 1.349 . S
C2172 H2166 0.950 . S
C2172 C2173 1.327 . S
C2173 H2167 0.950 . S
C2173 C2172 1.327 . S
C2173 C2177 1.429 . S
C2174 C2157 1.574 . S
C2174 H2168 0.949 . S
C2174 C2178 1.368 . S
C2175 C2156 1.429 . S
C2175 C2169 1.429 . S
C2175 C2176 1.523 . S
C2176 C2157 1.368 . S
C2176 C2170 1.368 . S
C2176 C2175 1.523 . S
C2177 C2161 1.429 . S
C2177 C2173 1.429 . S
C2177 C2178 1.523 . S
C2178 C2162 1.368 . S
C2178 C2174 1.368 . S
C2178 C2177 1.523 . S
H2179 C2154 0.950 . S
H2180 C2156 0.950 . S
H2181 C2157 0.949 . S
H2182 C2159 0.950 . S
H2183 C2161 0.950 . S
C2184 C2185 1.349 . S
C2184 C2186 1.327 . S
C2184 H2209 0.950 . S
C2185 C2184 1.349 . S
C2185 C2201 1.349 . S
C2186 C2184 1.327 . S
C2186 C2205 1.429 . S
C2186 H2210 0.950 . S
C2187 C2204 1.574 . S
C2187 C2206 1.368 . S
C2187 H2211 0.949 . S
H2188 C2192 0.949 . S
C2189 C2190 1.349 . S
C2189 C2191 1.327 . S
C2189 H2212 0.950 . S
C2190 C2189 1.349 . S
C2190 C2202 1.349 . S
C2191 C2189 1.327 . S
C2191 C2207 1.429 . S
C2191 H2213 0.950 . S
C2192 H2188 0.949 . S
C2192 C2200 1.574 . S
C2192 C2208 1.368 . S
H2193 C2201 0.950 . S
H2194 C2199 0.950 . S
H2195 C2200 0.949 . S
H2196 C2202 0.950 . S
H2197 C2203 0.950 . S
H2198 C2204 0.949 . S
C2199 H2194 0.950 . S
C2199 C2201 1.327 . S
C2199 C2205 1.429 . S
C2200 C2192 1.574 . S
C2200 H2195 0.949 . S
C2200 C2206 1.368 . S
C2201 C2185 1.349 . S
C2201 H2193 0.950 . S
C2201 C2199 1.327 . S
C2202 C2190 1.349 . S
C2202 H2196 0.950 . S
C2202 C2203 1.327 . S
C2203 H2197 0.950 . S
C2203 C2202 1.327 . S
C2203 C2207 1.429 . S
C2204 C2187 1.574 . S
C2204 H2198 0.949 . S
C2204 C2208 1.368 . S
C2205 C2186 1.429 . S
C2205 C2199 1.429 . S
C2205 C2206 1.523 . S
C2206 C2187 1.368 . S
C2206 C2200 1.368 . S
C2206 C2205 1.523 . S
C2207 C2191 1.429 . S
C2207 C2203 1.429 . S
C2207 C2208 1.523 . S
C2208 C2192 1.368 . S
C2208 C2204 1.368 . S
C2208 C2207 1.523 . S
H2209 C2184 0.950 . S
H2210 C2186 0.950 . S
H2211 C2187 0.949 . S
H2212 C2189 0.950 . S
H2213 C2191 0.950 . S
C2214 C2215 1.349 . S
C2214 C2216 1.327 . S
C2214 H2239 0.950 . S
C2215 C2214 1.349 . S
C2215 C2231 1.349 . S
C2216 C2214 1.327 . S
C2216 C2235 1.429 . S
C2216 H2240 0.950 . S
C2217 C2234 1.574 . S
C2217 C2236 1.368 . S
C2217 H2241 0.949 . S
H2218 C2222 0.949 . S
C2219 C2220 1.349 . S
C2219 C2221 1.327 . S
C2219 H2242 0.950 . S
C2220 C2219 1.349 . S
C2220 C2232 1.349 . S
C2221 C2219 1.327 . S
C2221 C2237 1.429 . S
C2221 H2243 0.950 . S
C2222 H2218 0.949 . S
C2222 C2230 1.574 . S
C2222 C2238 1.368 . S
H2223 C2231 0.950 . S
H2224 C2229 0.950 . S
H2225 C2230 0.949 . S
H2226 C2232 0.950 . S
H2227 C2233 0.950 . S
H2228 C2234 0.949 . S
C2229 H2224 0.950 . S
C2229 C2231 1.327 . S
C2229 C2235 1.429 . S
C2230 C2222 1.574 . S
C2230 H2225 0.949 . S
C2230 C2236 1.368 . S
C2231 C2215 1.349 . S
C2231 H2223 0.950 . S
C2231 C2229 1.327 . S
C2232 C2220 1.349 . S
C2232 H2226 0.950 . S
C2232 C2233 1.327 . S
C2233 H2227 0.950 . S
C2233 C2232 1.327 . S
C2233 C2237 1.429 . S
C2234 C2217 1.574 . S
C2234 H2228 0.949 . S
C2234 C2238 1.368 . S
C2235 C2216 1.429 . S
C2235 C2229 1.429 . S
C2235 C2236 1.523 . S
C2236 C2217 1.368 . S
C2236 C2230 1.368 . S
C2236 C2235 1.523 . S
C2237 C2221 1.429 . S
C2237 C2233 1.429 . S
C2237 C2238 1.523 . S
C2238 C2222 1.368 . S
C2238 C2234 1.368 . S
C2238 C2237 1.523 . S
H2239 C2214 0.950 . S
H2240 C2216 0.950 . S
H2241 C2217 0.949 . S
H2242 C2219 0.950 . S
H2243 C2221 0.950 . S
C2244 C2245 1.349 . S
C2244 C2246 1.327 . S
C2244 H2269 0.950 . S
C2245 C2244 1.349 . S
C2245 C2261 1.349 . S
C2246 C2244 1.327 . S
C2246 C2265 1.429 . S
C2246 H2270 0.950 . S
C2247 C2264 1.574 . S
C2247 C2266 1.368 . S
C2247 H2271 0.949 . S
H2248 C2252 0.949 . S
C2249 C2250 1.349 . S
C2249 C2251 1.327 . S
C2249 H2272 0.950 . S
C2250 C2249 1.349 . S
C2250 C2262 1.349 . S
C2251 C2249 1.327 . S
C2251 C2267 1.429 . S
C2251 H2273 0.950 . S
C2252 H2248 0.949 . S
C2252 C2260 1.574 . S
C2252 C2268 1.368 . S
H2253 C2261 0.950 . S
H2254 C2259 0.950 . S
H2255 C2260 0.949 . S
H2256 C2262 0.950 . S
H2257 C2263 0.950 . S
H2258 C2264 0.949 . S
C2259 H2254 0.950 . S
C2259 C2261 1.327 . S
C2259 C2265 1.429 . S
C2260 C2252 1.574 . S
C2260 H2255 0.949 . S
C2260 C2266 1.368 . S
C2261 C2245 1.349 . S
C2261 H2253 0.950 . S
C2261 C2259 1.327 . S
C2262 C2250 1.349 . S
C2262 H2256 0.950 . S
C2262 C2263 1.327 . S
C2263 H2257 0.950 . S
C2263 C2262 1.327 . S
C2263 C2267 1.429 . S
C2264 C2247 1.574 . S
C2264 H2258 0.949 . S
C2264 C2268 1.368 . S
C2265 C2246 1.429 . S
C2265 C2259 1.429 . S
C2265 C2266 1.523 . S
C2266 C2247 1.368 . S
C2266 C2260 1.368 . S
C2266 C2265 1.523 . S
C2267 C2251 1.429 . S
C2267 C2263 1.429 . S
C2267 C2268 1.523 . S
C2268 C2252 1.368 . S
C2268 C2264 1.368 . S
C2268 C2267 1.523 . S
H2269 C2244 0.950 . S
H2270 C2246 0.950 . S
H2271 C2247 0.949 . S
H2272 C2249 0.950 . S
H2273 C2251 0.950 . S
C2274 C2275 1.349 . S
C2274 C2276 1.327 . S
C2274 H2299 0.950 . S
C2275 C2274 1.349 . S
C2275 C2291 1.349 . S
C2276 C2274 1.327 . S
C2276 C2295 1.429 . S
C2276 H2300 0.950 . S
C2277 C2294 1.574 . S
C2277 C2296 1.368 . S
C2277 H2301 0.949 . S
H2278 C2282 0.949 . S
C2279 C2280 1.349 . S
C2279 C2281 1.327 . S
C2279 H2302 0.950 . S
C2280 C2279 1.349 . S
C2280 C2292 1.349 . S
C2281 C2279 1.327 . S
C2281 C2297 1.429 . S
C2281 H2303 0.950 . S
C2282 H2278 0.949 . S
C2282 C2290 1.574 . S
C2282 C2298 1.368 . S
H2283 C2291 0.950 . S
H2284 C2289 0.950 . S
H2285 C2290 0.949 . S
H2286 C2292 0.950 . S
H2287 C2293 0.950 . S
H2288 C2294 0.949 . S
C2289 H2284 0.950 . S
C2289 C2291 1.327 . S
C2289 C2295 1.429 . S
C2290 C2282 1.574 . S
C2290 H2285 0.949 . S
C2290 C2296 1.368 . S
C2291 C2275 1.349 . S
C2291 H2283 0.950 . S
C2291 C2289 1.327 . S
C2292 C2280 1.349 . S
C2292 H2286 0.950 . S
C2292 C2293 1.327 . S
C2293 H2287 0.950 . S
C2293 C2292 1.327 . S
C2293 C2297 1.429 . S
C2294 C2277 1.574 . S
C2294 H2288 0.949 . S
C2294 C2298 1.368 . S
C2295 C2276 1.429 . S
C2295 C2289 1.429 . S
C2295 C2296 1.523 . S
C2296 C2277 1.368 . S
C2296 C2290 1.368 . S
C2296 C2295 1.523 . S
C2297 C2281 1.429 . S
C2297 C2293 1.429 . S
C2297 C2298 1.523 . S
C2298 C2282 1.368 . S
C2298 C2294 1.368 . S
C2298 C2297 1.523 . S
H2299 C2274 0.950 . S
H2300 C2276 0.950 . S
H2301 C2277 0.949 . S
H2302 C2279 0.950 . S
H2303 C2281 0.950 . S
C2304 C2305 1.349 . S
C2304 C2306 1.327 . S
C2304 H2329 0.950 . S
C2305 C2304 1.349 . S
C2305 C2321 1.349 . S
C2306 C2304 1.327 . S
C2306 C2325 1.429 . S
C2306 H2330 0.950 . S
C2307 C2324 1.574 . S
C2307 C2326 1.368 . S
C2307 H2331 0.949 . S
H2308 C2312 0.949 . S
C2309 C2310 1.349 . S
C2309 C2311 1.327 . S
C2309 H2332 0.950 . S
C2310 C2309 1.349 . S
C2310 C2322 1.349 . S
C2311 C2309 1.327 . S
C2311 C2327 1.429 . S
C2311 H2333 0.950 . S
C2312 H2308 0.949 . S
C2312 C2320 1.574 . S
C2312 C2328 1.368 . S
H2313 C2321 0.950 . S
H2314 C2319 0.950 . S
H2315 C2320 0.949 . S
H2316 C2322 0.950 . S
H2317 C2323 0.950 . S
H2318 C2324 0.949 . S
C2319 H2314 0.950 . S
C2319 C2321 1.327 . S
C2319 C2325 1.429 . S
C2320 C2312 1.574 . S
C2320 H2315 0.949 . S
C2320 C2326 1.368 . S
C2321 C2305 1.349 . S
C2321 H2313 0.950 . S
C2321 C2319 1.327 . S
C2322 C2310 1.349 . S
C2322 H2316 0.950 . S
C2322 C2323 1.327 . S
C2323 H2317 0.950 . S
C2323 C2322 1.327 . S
C2323 C2327 1.429 . S
C2324 C2307 1.574 . S
C2324 H2318 0.949 . S
C2324 C2328 1.368 . S
C2325 C2306 1.429 . S
C2325 C2319 1.429 . S
C2325 C2326 1.523 . S
C2326 C2307 1.368 . S
C2326 C2320 1.368 . S
C2326 C2325 1.523 . S
C2327 C2311 1.429 . S
C2327 C2323 1.429 . S
C2327 C2328 1.523 . S
C2328 C2312 1.368 . S
C2328 C2324 1.368 . S
C2328 C2327 1.523 . S
H2329 C2304 0.950 . S
H2330 C2306 0.950 . S
H2331 C2307 0.949 . S
H2332 C2309 0.950 . S
H2333 C2311 0.950 . S
C2334 C2335 1.349 . S
C2334 C2336 1.327 . S
C2334 H2359 0.950 . S
C2335 C2334 1.349 . S
C2335 C2351 1.349 . S
C2336 C2334 1.327 . S
C2336 C2355 1.429 . S
C2336 H2360 0.950 . S
C2337 C2354 1.574 . S
C2337 C2356 1.368 . S
C2337 H2361 0.949 . S
H2338 C2342 0.949 . S
C2339 C2340 1.349 . S
C2339 C2341 1.327 . S
C2339 H2362 0.950 . S
C2340 C2339 1.349 . S
C2340 C2352 1.349 . S
C2341 C2339 1.327 . S
C2341 C2357 1.429 . S
C2341 H2363 0.950 . S
C2342 H2338 0.949 . S
C2342 C2350 1.574 . S
C2342 C2358 1.368 . S
H2343 C2351 0.950 . S
H2344 C2349 0.950 . S
H2345 C2350 0.949 . S
H2346 C2352 0.950 . S
H2347 C2353 0.950 . S
H2348 C2354 0.949 . S
C2349 H2344 0.950 . S
C2349 C2351 1.327 . S
C2349 C2355 1.429 . S
C2350 C2342 1.574 . S
C2350 H2345 0.949 . S
C2350 C2356 1.368 . S
C2351 C2335 1.349 . S
C2351 H2343 0.950 . S
C2351 C2349 1.327 . S
C2352 C2340 1.349 . S
C2352 H2346 0.950 . S
C2352 C2353 1.327 . S
C2353 H2347 0.950 . S
C2353 C2352 1.327 . S
C2353 C2357 1.429 . S
C2354 C2337 1.574 . S
C2354 H2348 0.949 . S
C2354 C2358 1.368 . S
C2355 C2336 1.429 . S
C2355 C2349 1.429 . S
C2355 C2356 1.523 . S
C2356 C2337 1.368 . S
C2356 C2350 1.368 . S
C2356 C2355 1.523 . S
C2357 C2341 1.429 . S
C2357 C2353 1.429 . S
C2357 C2358 1.523 . S
C2358 C2342 1.368 . S
C2358 C2354 1.368 . S
C2358 C2357 1.523 . S
H2359 C2334 0.950 . S
H2360 C2336 0.950 . S
H2361 C2337 0.949 . S
H2362 C2339 0.950 . S
H2363 C2341 0.950 . S
C2364 C2365 1.349 . S
C2364 C2366 1.327 . S
C2364 H2389 0.950 . S
C2365 C2364 1.349 . S
C2365 C2381 1.349 . S
C2366 C2364 1.327 . S
C2366 C2385 1.429 . S
C2366 H2390 0.950 . S
C2367 C2384 1.574 . S
C2367 C2386 1.368 . S
C2367 H2391 0.949 . S
H2368 C2372 0.949 . S
C2369 C2370 1.349 . S
C2369 C2371 1.327 . S
C2369 H2392 0.950 . S
C2370 C2369 1.349 . S
C2370 C2382 1.349 . S
C2371 C2369 1.327 . S
C2371 C2387 1.429 . S
C2371 H2393 0.950 . S
C2372 H2368 0.949 . S
C2372 C2380 1.574 . S
C2372 C2388 1.368 . S
H2373 C2381 0.950 . S
H2374 C2379 0.950 . S
H2375 C2380 0.949 . S
H2376 C2382 0.950 . S
H2377 C2383 0.950 . S
H2378 C2384 0.949 . S
C2379 H2374 0.950 . S
C2379 C2381 1.327 . S
C2379 C2385 1.429 . S
C2380 C2372 1.574 . S
C2380 H2375 0.949 . S
C2380 C2386 1.368 . S
C2381 C2365 1.349 . S
C2381 H2373 0.950 . S
C2381 C2379 1.327 . S
C2382 C2370 1.349 . S
C2382 H2376 0.950 . S
C2382 C2383 1.327 . S
C2383 H2377 0.950 . S
C2383 C2382 1.327 . S
C2383 C2387 1.429 . S
C2384 C2367 1.574 . S
C2384 H2378 0.949 . S
C2384 C2388 1.368 . S
C2385 C2366 1.429 . S
C2385 C2379 1.429 . S
C2385 C2386 1.523 . S
C2386 C2367 1.368 . S
C2386 C2380 1.368 . S
C2386 C2385 1.523 . S
C2387 C2371 1.429 . S
C2387 C2383 1.429 . S
C2387 C2388 1.523 . S
C2388 C2372 1.368 . S
C2388 C2384 1.368 . S
C2388 C2387 1.523 . S
H2389 C2364 0.950 . S
H2390 C2366 0.950 . S
H2391 C2367 0.949 . S
H2392 C2369 0.950 . S
H2393 C2371 0.950 . S
C2394 C2395 1.349 . S
C2394 C2396 1.327 . S
C2394 H2419 0.950 . S
C2395 C2394 1.349 . S
C2395 C2411 1.349 . S
C2396 C2394 1.327 . S
C2396 C2415 1.429 . S
C2396 H2420 0.950 . S
C2397 C2414 1.574 . S
C2397 C2416 1.368 . S
C2397 H2421 0.949 . S
H2398 C2402 0.949 . S
C2399 C2400 1.349 . S
C2399 C2401 1.327 . S
C2399 H2422 0.950 . S
C2400 C2399 1.349 . S
C2400 C2412 1.349 . S
C2401 C2399 1.327 . S
C2401 C2417 1.429 . S
C2401 H2423 0.950 . S
C2402 H2398 0.949 . S
C2402 C2410 1.574 . S
C2402 C2418 1.368 . S
H2403 C2411 0.950 . S
H2404 C2409 0.950 . S
H2405 C2410 0.949 . S
H2406 C2412 0.950 . S
H2407 C2413 0.950 . S
H2408 C2414 0.949 . S
C2409 H2404 0.950 . S
C2409 C2411 1.327 . S
C2409 C2415 1.429 . S
C2410 C2402 1.574 . S
C2410 H2405 0.949 . S
C2410 C2416 1.368 . S
C2411 C2395 1.349 . S
C2411 H2403 0.950 . S
C2411 C2409 1.327 . S
C2412 C2400 1.349 . S
C2412 H2406 0.950 . S
C2412 C2413 1.327 . S
C2413 H2407 0.950 . S
C2413 C2412 1.327 . S
C2413 C2417 1.429 . S
C2414 C2397 1.574 . S
C2414 H2408 0.949 . S
C2414 C2418 1.368 . S
C2415 C2396 1.429 . S
C2415 C2409 1.429 . S
C2415 C2416 1.523 . S
C2416 C2397 1.368 . S
C2416 C2410 1.368 . S
C2416 C2415 1.523 . S
C2417 C2401 1.429 . S
C2417 C2413 1.429 . S
C2417 C2418 1.523 . S
C2418 C2402 1.368 . S
C2418 C2414 1.368 . S
C2418 C2417 1.523 . S
H2419 C2394 0.950 . S
H2420 C2396 0.950 . S
H2421 C2397 0.949 . S
H2422 C2399 0.950 . S
H2423 C2401 0.950 . S
C2424 C2425 1.349 . S
C2424 C2426 1.327 . S
C2424 H2449 0.950 . S
C2425 C2424 1.349 . S
C2425 C2441 1.349 . S
C2426 C2424 1.327 . S
C2426 C2445 1.429 . S
C2426 H2450 0.950 . S
C2427 C2444 1.574 . S
C2427 C2446 1.368 . S
C2427 H2451 0.949 . S
H2428 C2432 0.949 . S
C2429 C2430 1.349 . S
C2429 C2431 1.327 . S
C2429 H2452 0.950 . S
C2430 C2429 1.349 . S
C2430 C2442 1.349 . S
C2431 C2429 1.327 . S
C2431 C2447 1.429 . S
C2431 H2453 0.950 . S
C2432 H2428 0.949 . S
C2432 C2440 1.574 . S
C2432 C2448 1.368 . S
H2433 C2441 0.950 . S
H2434 C2439 0.950 . S
H2435 C2440 0.949 . S
H2436 C2442 0.950 . S
H2437 C2443 0.950 . S
H2438 C2444 0.949 . S
C2439 H2434 0.950 . S
C2439 C2441 1.327 . S
C2439 C2445 1.429 . S
C2440 C2432 1.574 . S
C2440 H2435 0.949 . S
C2440 C2446 1.368 . S
C2441 C2425 1.349 . S
C2441 H2433 0.950 . S
C2441 C2439 1.327 . S
C2442 C2430 1.349 . S
C2442 H2436 0.950 . S
C2442 C2443 1.327 . S
C2443 H2437 0.950 . S
C2443 C2442 1.327 . S
C2443 C2447 1.429 . S
C2444 C2427 1.574 . S
C2444 H2438 0.949 . S
C2444 C2448 1.368 . S
C2445 C2426 1.429 . S
C2445 C2439 1.429 . S
C2445 C2446 1.523 . S
C2446 C2427 1.368 . S
C2446 C2440 1.368 . S
C2446 C2445 1.523 . S
C2447 C2431 1.429 . S
C2447 C2443 1.429 . S
C2447 C2448 1.523 . S
C2448 C2432 1.368 . S
C2448 C2444 1.368 . S
C2448 C2447 1.523 . S
H2449 C2424 0.950 . S
H2450 C2426 0.950 . S
H2451 C2427 0.949 . S
H2452 C2429 0.950 . S
H2453 C2431 0.950 . S
C2454 C2455 1.349 . S
C2454 C2456 1.327 . S
C2454 H2479 0.950 . S
C2455 C2454 1.349 . S
C2455 C2471 1.349 . S
C2456 C2454 1.327 . S
C2456 C2475 1.429 . S
C2456 H2480 0.950 . S
C2457 C2474 1.574 . S
C2457 C2476 1.368 . S
C2457 H2481 0.949 . S
H2458 C2462 0.949 . S
C2459 C2460 1.349 . S
C2459 C2461 1.327 . S
C2459 H2482 0.950 . S
C2460 C2459 1.349 . S
C2460 C2472 1.349 . S
C2461 C2459 1.327 . S
C2461 C2477 1.429 . S
C2461 H2483 0.950 . S
C2462 H2458 0.949 . S
C2462 C2470 1.574 . S
C2462 C2478 1.368 . S
H2463 C2471 0.950 . S
H2464 C2469 0.950 . S
H2465 C2470 0.949 . S
H2466 C2472 0.950 . S
H2467 C2473 0.950 . S
H2468 C2474 0.949 . S
C2469 H2464 0.950 . S
C2469 C2471 1.327 . S
C2469 C2475 1.429 . S
C2470 C2462 1.574 . S
C2470 H2465 0.949 . S
C2470 C2476 1.368 . S
C2471 C2455 1.349 . S
C2471 H2463 0.950 . S
C2471 C2469 1.327 . S
C2472 C2460 1.349 . S
C2472 H2466 0.950 . S
C2472 C2473 1.327 . S
C2473 H2467 0.950 . S
C2473 C2472 1.327 . S
C2473 C2477 1.429 . S
C2474 C2457 1.574 . S
C2474 H2468 0.949 . S
C2474 C2478 1.368 . S
C2475 C2456 1.429 . S
C2475 C2469 1.429 . S
C2475 C2476 1.523 . S
C2476 C2457 1.368 . S
C2476 C2470 1.368 . S
C2476 C2475 1.523 . S
C2477 C2461 1.429 . S
C2477 C2473 1.429 . S
C2477 C2478 1.523 . S
C2478 C2462 1.368 . S
C2478 C2474 1.368 . S
C2478 C2477 1.523 . S
H2479 C2454 0.950 . S
H2480 C2456 0.950 . S
H2481 C2457 0.949 . S
H2482 C2459 0.950 . S
H2483 C2461 0.950 . S
C2484 C2485 1.349 . S
C2484 C2486 1.327 . S
C2484 H2509 0.950 . S
C2485 C2484 1.349 . S
C2485 C2501 1.349 . S
C2486 C2484 1.327 . S
C2486 C2505 1.429 . S
C2486 H2510 0.950 . S
C2487 C2504 1.574 1_455 S
C2487 C2506 1.368 . S
C2487 H2511 0.949 . S
H2488 C2492 0.949 . S
C2489 C2490 1.349 . S
C2489 C2491 1.327 . S
C2489 H2512 0.950 . S
C2490 C2489 1.349 . S
C2490 C2502 1.349 . S
C2491 C2489 1.327 . S
C2491 C2507 1.429 . S
C2491 H2513 0.950 . S
C2492 H2488 0.949 . S
C2492 C2500 1.574 1_655 S
C2492 C2508 1.368 . S
H2493 C2501 0.950 . S
H2494 C2499 0.950 . S
H2495 C2500 0.949 . S
H2496 C2502 0.950 . S
H2497 C2503 0.950 . S
H2498 C2504 0.949 . S
C2499 H2494 0.950 . S
C2499 C2501 1.327 . S
C2499 C2505 1.429 . S
C2500 C2492 1.574 1_455 S
C2500 H2495 0.949 . S
C2500 C2506 1.368 . S
C2501 C2485 1.349 . S
C2501 H2493 0.950 . S
C2501 C2499 1.327 . S
C2502 C2490 1.349 . S
C2502 H2496 0.950 . S
C2502 C2503 1.327 . S
C2503 H2497 0.950 . S
C2503 C2502 1.327 . S
C2503 C2507 1.429 . S
C2504 C2487 1.574 1_655 S
C2504 H2498 0.949 . S
C2504 C2508 1.368 . S
C2505 C2486 1.429 . S
C2505 C2499 1.429 . S
C2505 C2506 1.523 . S
C2506 C2487 1.368 . S
C2506 C2500 1.368 . S
C2506 C2505 1.523 . S
C2507 C2491 1.429 . S
C2507 C2503 1.429 . S
C2507 C2508 1.523 . S
C2508 C2492 1.368 . S
C2508 C2504 1.368 . S
C2508 C2507 1.523 . S
H2509 C2484 0.950 . S
H2510 C2486 0.950 . S
H2511 C2487 0.949 . S
H2512 C2489 0.950 . S
H2513 C2491 0.950 . S
C2514 C2515 1.349 . S
C2514 C2516 1.327 . S
C2514 H2539 0.950 . S
C2515 C2514 1.349 . S
C2515 C2531 1.349 . S
C2516 C2514 1.327 . S
C2516 C2535 1.429 . S
C2516 H2540 0.950 . S
C2517 C2534 1.574 . S
C2517 C2536 1.368 . S
C2517 H2541 0.949 . S
H2518 C2522 0.949 . S
C2519 C2520 1.349 . S
C2519 C2521 1.327 . S
C2519 H2542 0.950 . S
C2520 C2519 1.349 . S
C2520 C2532 1.349 . S
C2521 C2519 1.327 . S
C2521 C2537 1.429 . S
C2521 H2543 0.950 . S
C2522 H2518 0.949 . S
C2522 C2530 1.574 . S
C2522 C2538 1.368 . S
H2523 C2531 0.950 . S
H2524 C2529 0.950 . S
H2525 C2530 0.949 . S
H2526 C2532 0.950 . S
H2527 C2533 0.950 . S
H2528 C2534 0.949 . S
C2529 H2524 0.950 . S
C2529 C2531 1.327 . S
C2529 C2535 1.429 . S
C2530 C2522 1.574 . S
C2530 H2525 0.949 . S
C2530 C2536 1.368 . S
C2531 C2515 1.349 . S
C2531 H2523 0.950 . S
C2531 C2529 1.327 . S
C2532 C2520 1.349 . S
C2532 H2526 0.950 . S
C2532 C2533 1.327 . S
C2533 H2527 0.950 . S
C2533 C2532 1.327 . S
C2533 C2537 1.429 . S
C2534 C2517 1.574 . S
C2534 H2528 0.949 . S
C2534 C2538 1.368 . S
C2535 C2516 1.429 . S
C2535 C2529 1.429 . S
C2535 C2536 1.523 . S
C2536 C2517 1.368 . S
C2536 C2530 1.368 . S
C2536 C2535 1.523 . S
C2537 C2521 1.429 . S
C2537 C2533 1.429 . S
C2537 C2538 1.523 . S
C2538 C2522 1.368 . S
C2538 C2534 1.368 . S
C2538 C2537 1.523 . S
H2539 C2514 0.950 . S
H2540 C2516 0.950 . S
H2541 C2517 0.949 . S
H2542 C2519 0.950 . S
H2543 C2521 0.950 . S
C2544 C2545 1.349 . S
C2544 C2546 1.327 . S
C2544 H2569 0.950 . S
C2545 C2544 1.349 . S
C2545 C2561 1.349 . S
C2546 C2544 1.327 . S
C2546 C2565 1.429 . S
C2546 H2570 0.950 . S
C2547 C2564 1.574 1_545 S
C2547 C2566 1.368 . S
C2547 H2571 0.949 . S
H2548 C2552 0.949 . S
C2549 C2550 1.349 . S
C2549 C2551 1.327 . S
C2549 H2572 0.950 . S
C2550 C2549 1.349 . S
C2550 C2562 1.349 . S
C2551 C2549 1.327 . S
C2551 C2567 1.429 . S
C2551 H2573 0.950 . S
C2552 H2548 0.949 . S
C2552 C2560 1.574 1_565 S
C2552 C2568 1.368 . S
H2553 C2561 0.950 . S
H2554 C2559 0.950 . S
H2555 C2560 0.949 . S
H2556 C2562 0.950 . S
H2557 C2563 0.950 . S
H2558 C2564 0.949 . S
C2559 H2554 0.950 . S
C2559 C2561 1.327 . S
C2559 C2565 1.429 . S
C2560 C2552 1.574 1_545 S
C2560 H2555 0.949 . S
C2560 C2566 1.368 . S
C2561 C2545 1.349 . S
C2561 H2553 0.950 . S
C2561 C2559 1.327 . S
C2562 C2550 1.349 . S
C2562 H2556 0.950 . S
C2562 C2563 1.327 . S
C2563 H2557 0.950 . S
C2563 C2562 1.327 . S
C2563 C2567 1.429 . S
C2564 C2547 1.574 1_565 S
C2564 H2558 0.949 . S
C2564 C2568 1.368 . S
C2565 C2546 1.429 . S
C2565 C2559 1.429 . S
C2565 C2566 1.523 . S
C2566 C2547 1.368 . S
C2566 C2560 1.368 . S
C2566 C2565 1.523 . S
C2567 C2551 1.429 . S
C2567 C2563 1.429 . S
C2567 C2568 1.523 . S
C2568 C2552 1.368 . S
C2568 C2564 1.368 . S
C2568 C2567 1.523 . S
H2569 C2544 0.950 . S
H2570 C2546 0.950 . S
H2571 C2547 0.949 . S
H2572 C2549 0.950 . S
H2573 C2551 0.950 . S
C2574 C2575 1.349 . S
C2574 C2576 1.327 . S
C2574 H2599 0.950 . S
C2575 C2574 1.349 . S
C2575 C2591 1.349 . S
C2576 C2574 1.327 . S
C2576 C2595 1.429 . S
C2576 H2600 0.950 . S
C2577 C2594 1.574 1_545 S
C2577 C2596 1.368 1_556 S
C2577 H2601 0.949 . S
H2578 C2582 0.949 . S
C2579 C2580 1.349 . S
C2579 C2581 1.327 . S
C2579 H2602 0.950 . S
C2580 C2579 1.349 . S
C2580 C2592 1.349 . S
C2581 C2579 1.327 . S
C2581 C2597 1.429 . S
C2581 H2603 0.950 . S
C2582 H2578 0.949 . S
C2582 C2590 1.574 1_565 S
C2582 C2598 1.368 1_554 S
H2583 C2591 0.950 1_556 S
H2584 C2589 1.043 . S
H2585 C2590 0.949 . S
H2586 C2592 0.950 1_554 S
H2587 C2593 1.043 . S
H2588 C2594 0.949 . S
C2589 H2584 1.043 . S
C2589 C2591 1.302 1_556 S
C2589 C2595 1.369 1_556 S
C2590 C2582 1.574 1_545 S
C2590 H2585 0.949 . S
C2590 C2596 1.368 . S
C2591 C2575 1.349 . S
C2591 H2583 0.950 1_554 S
C2591 C2589 1.302 1_554 S
C2592 C2580 1.349 . S
C2592 H2586 0.950 1_556 S
C2592 C2593 1.302 1_556 S
C2593 H2587 1.043 . S
C2593 C2592 1.302 1_554 S
C2593 C2597 1.369 1_554 S
C2594 C2577 1.574 1_565 S
C2594 H2588 0.949 . S
C2594 C2598 1.368 . S
C2595 C2576 1.429 . S
C2595 C2589 1.369 1_554 S
C2595 C2596 1.523 . S
C2596 C2577 1.368 1_554 S
C2596 C2590 1.368 . S
C2596 C2595 1.523 . S
C2597 C2581 1.429 . S
C2597 C2593 1.369 1_556 S
C2597 C2598 1.523 . S
C2598 C2582 1.368 1_556 S
C2598 C2594 1.368 . S
C2598 C2597 1.523 . S
H2599 C2574 0.950 . S
H2600 C2576 0.950 . S
H2601 C2577 0.949 . S
H2602 C2579 0.950 . S
H2603 C2581 0.950 . S
C2604 C2605 1.349 . S
C2604 C2606 1.327 . S
C2604 H2629 0.950 . S
C2605 C2604 1.349 . S
C2605 C2621 1.473 . S
C2606 C2604 1.327 . S
C2606 C2625 1.429 . S
C2606 H2630 0.950 . S
C2607 C2624 1.574 1_655 S
C2607 C2626 1.368 1_556 S
C2607 H2631 0.949 . S
H2608 C2612 0.949 . S
C2609 C2610 1.349 . S
C2609 C2611 1.327 . S
C2609 H2632 0.950 . S
C2610 C2609 1.349 . S
C2610 C2622 1.473 . S
C2611 C2609 1.327 . S
C2611 C2627 1.429 . S
C2611 H2633 0.950 . S
C2612 H2608 0.949 . S
C2612 C2620 1.574 1_455 S
C2612 C2628 1.368 1_554 S
H2613 C2621 0.865 1_556 S
H2614 C2619 0.950 . S
H2615 C2620 0.949 . S
H2616 C2622 0.865 1_554 S
H2617 C2623 0.950 . S
H2618 C2624 0.949 . S
C2619 H2614 0.950 . S
C2619 C2621 1.297 1_556 S
C2619 C2625 1.429 1_556 S
C2620 C2612 1.574 1_655 S
C2620 H2615 0.949 . S
C2620 C2626 1.368 . S
C2621 C2605 1.473 . S
C2621 H2613 0.865 1_554 S
C2621 C2619 1.297 1_554 S
C2622 C2610 1.473 . S
C2622 H2616 0.865 1_556 S
C2622 C2623 1.297 1_556 S
C2623 H2617 0.950 . S
C2623 C2622 1.297 1_554 S
C2623 C2627 1.429 1_554 S
C2624 C2607 1.574 1_455 S
C2624 H2618 0.949 . S
C2624 C2628 1.368 . S
C2625 C2606 1.429 . S
C2625 C2619 1.429 1_554 S
C2625 C2626 1.523 . S
C2626 C2607 1.368 1_554 S
C2626 C2620 1.368 . S
C2626 C2625 1.523 . S
C2627 C2611 1.429 . S
C2627 C2623 1.429 1_556 S
C2627 C2628 1.523 . S
C2628 C2612 1.368 1_556 S
C2628 C2624 1.368 . S
C2628 C2627 1.523 . S
H2629 C2604 0.950 . S
H2630 C2606 0.950 . S
H2631 C2607 0.949 . S
H2632 C2609 0.950 . S
H2633 C2611 0.950 . S
C2634 C2635 1.349 . S
C2634 C2636 1.327 . S
C2634 H2659 0.950 . S
C2635 C2634 1.349 . S
C2635 C2651 1.349 . S
C2636 C2634 1.327 . S
C2636 C2655 1.429 . S
C2636 H2660 0.950 . S
C2637 C2654 1.574 . S
C2637 C2656 1.368 1_554 S
C2637 H2661 0.949 . S
H2638 C2642 0.949 . S
C2639 C2640 1.349 . S
C2639 C2641 1.327 . S
C2639 H2662 0.950 . S
C2640 C2639 1.349 . S
C2640 C2652 1.349 . S
C2641 C2639 1.327 . S
C2641 C2657 1.429 . S
C2641 H2663 0.950 . S
C2642 H2638 0.949 . S
C2642 C2650 1.574 . S
C2642 C2658 1.368 1_556 S
H2643 C2651 0.950 . S
H2644 C2649 1.013 . S
H2645 C2650 0.949 . S
H2646 C2652 0.950 . S
H2647 C2653 1.013 . S
H2648 C2654 0.949 . S
C2649 H2644 1.013 . S
C2649 C2651 1.327 . S
C2649 C2655 1.429 . S
C2650 C2642 1.574 . S
C2650 H2645 0.949 . S
C2650 C2656 1.368 . S
C2651 C2635 1.349 . S
C2651 H2643 0.950 . S
C2651 C2649 1.327 . S
C2652 C2640 1.349 . S
C2652 H2646 0.950 . S
C2652 C2653 1.327 . S
C2653 H2647 1.013 . S
C2653 C2652 1.327 . S
C2653 C2657 1.429 . S
C2654 C2637 1.574 . S
C2654 H2648 0.949 . S
C2654 C2658 1.368 . S
C2655 C2636 1.429 . S
C2655 C2649 1.429 . S
C2655 C2656 1.523 . S
C2656 C2637 1.368 1_556 S
C2656 C2650 1.368 . S
C2656 C2655 1.523 . S
C2657 C2641 1.429 . S
C2657 C2653 1.429 . S
C2657 C2658 1.523 . S
C2658 C2642 1.368 1_554 S
C2658 C2654 1.368 . S
C2658 C2657 1.523 . S
H2659 C2634 0.950 . S
H2660 C2636 0.950 . S
H2661 C2637 0.949 . S
H2662 C2639 0.950 . S
H2663 C2641 0.950 . S
C505 C9 1.232 . S
C510 C22 1.328 . S
C535 C23 1.232 . S
C540 C36 1.328 . S
C565 C8 1.328 . S
C570 C37 1.232 . S
C595 C51 1.232 . S
C600 C78 1.328 . S
C625 C65 1.232 . S
C630 C50 1.328 . S
C655 C64 1.328 . S
C660 C79 1.232 . S
C685 C93 1.232 . S
C690 C106 1.328 . S
C715 C120 1.328 . S
C720 C107 1.232 . S
C745 C92 1.328 . S
C750 C121 1.232 . S
C775 C162 1.328 . S
C780 C135 1.232 . S
C805 C149 1.232 . S
C810 C134 1.328 . S
C835 C163 1.232 . S
C840 C148 1.328 . S
C865 C190 1.328 . S
C870 C177 1.232 . S
C895 C191 1.232 . S
C900 C204 1.328 . S
C925 C205 1.232 . S
C930 C176 1.328 . S
C955 C219 1.232 . S
C960 C246 1.328 . S
C985 C233 1.232 . S
C990 C218 1.328 . S
C1015 C247 1.232 . S
C1020 C232 1.328 . S
C1045 C274 1.328 . S
C1050 C261 1.232 . S
C1075 C275 1.232 . S
C1080 C288 1.328 . S
C1105 C260 1.328 . S
C1110 C289 1.232 . S
C1135 C330 1.328 . S
C1140 C303 1.232 . S
C1165 C317 1.232 . S
C1170 C302 1.328 . S
C1195 C316 1.328 . S
C1200 C331 1.232 . S
C1225 C358 1.328 . S
C1230 C345 1.232 . S
C1255 C359 1.232 . S
C1260 C372 1.328 . S
C1285 C373 1.232 . S
C1290 C344 1.328 . S
C1315 C414 1.328 . S
C1320 C387 1.232 . S
C1345 C401 1.232 . S
C1350 C386 1.328 . S
C1375 C400 1.328 . S
C1380 C415 1.232 . S
C1405 C429 1.232 . S
C1410 C442 1.328 . S
C1435 C443 1.232 . S
C1440 C456 1.328 . S
C1465 C457 1.232 . S
C1470 C428 1.328 . S
C1495 C498 1.328 . S
C1500 C471 1.232 . S
C1525 C470 1.328 . S
C1530 C485 1.232 . S
C1555 C499 1.232 . S
C1560 C484 1.328 . S
C1585 C49 1.731 . S
C1590 C7 1.731 . S
C1615 C21 1.731 . S
C1620 C63 1.732 . S
C1645 C77 1.731 . S
C1650 C35 1.731 . S
C1675 C133 1.731 . S
C1680 C91 1.731 . S
C1705 C105 1.731 . S
C1710 C147 1.732 . S
C1735 C161 1.731 . S
C1740 C119 1.731 . S
C1765 C175 1.731 . S
C1770 C217 1.731 . S
C1795 C189 1.731 . S
C1800 C231 1.731 . S
C1825 C203 1.731 . S
C1830 C245 1.731 . S
C1855 C301 1.731 . S
C1860 C259 1.731 . S
C1885 C315 1.731 . S
C1890 C273 1.731 . S
C1915 C287 1.732 . S
C1920 C329 1.732 . S
C1945 C385 1.731 . S
C1950 C343 1.731 . S
C1975 C399 1.731 . S
C1980 C357 1.731 . S
C2005 C371 1.732 . S
C2010 C413 1.732 . S
C2035 C427 1.731 . S
C2040 C469 1.731 . S
C2065 C483 1.731 . S
C2070 C441 1.731 . S
C2095 C455 1.731 . S
C2100 C497 1.731 . S
C2125 C6 1.505 . S
C2130 C258 1.505 . S
C2155 C20 1.506 . S
C2160 C272 1.506 . S
C2185 C34 1.506 . S
C2190 C286 1.506 . S
C2215 C468 1.505 . S
C2220 C48 1.505 . S
C2245 C482 1.506 . S
C2250 C62 1.506 . S
C2275 C76 1.506 . S
C2280 C496 1.506 . S
C2305 C90 1.505 . S
C2310 C342 1.505 . S
C2335 C356 1.506 . S
C2340 C104 1.506 . S
C2365 C370 1.506 . S
C2370 C118 1.506 . S
C2395 C216 1.505 . S
C2400 C132 1.505 . S
C2425 C230 1.506 . S
C2430 C146 1.506 . S
C2455 C244 1.506 . S
C2460 C160 1.506 . S
C2485 C426 1.505 . S
C2490 C174 1.505 . S
C2515 C188 1.506 . S
C2520 C440 1.506 . S
C2545 C202 1.506 . S
C2550 C454 1.506 . S
C2575 C300 1.505 . S
C2580 C384 1.505 . S
C2605 C314 1.506 . S
C2610 C398 1.506 . S
C2635 C412 1.506 . S
C2640 C328 1.506 . S
