# Generated by pormake.
# Topology ukm, (4)-cn, num edge types: 1
# Building blocks:
#     Node 0, Type 0, BuildingBlock: QUQFOY_clean_sbu_1, # of connection points: 4
#     Node 1, Type 0, BuildingBlock: QUQFOY_clean_sbu_1, # of connection points: 4
#     Node 2, Type 0, BuildingBlock: QUQFOY_clean_sbu_1, # of connection points: 4
#     Node 3, Type 0, BuildingBlock: QUQFOY_clean_sbu_1, # of connection points: 4
#     Node 4, Type 0, BuildingBlock: QUQFOY_clean_sbu_1, # of connection points: 4
#     Node 5, Type 0, BuildingBlock: QUQFOY_clean_sbu_1, # of connection points: 4
#     Node 6, Type 0, BuildingBlock: QUQFOY_clean_sbu_1, # of connection points: 4
#     Node 7, Type 0, BuildingBlock: QUQFOY_clean_sbu_1, # of connection points: 4
#     Node 8, Type 0, BuildingBlock: QUQFOY_clean_sbu_1, # of connection points: 4
#     Node 9, Type 0, BuildingBlock: QUQFOY_clean_sbu_1, # of connection points: 4
#     Node 10, Type 0, BuildingBlock: QUQFOY_clean_sbu_1, # of connection points: 4
#     Node 11, Type 0, BuildingBlock: QUQFOY_clean_sbu_1, # of connection points: 4
#     Node 12, Type 0, BuildingBlock: QUQFOY_clean_sbu_1, # of connection points: 4
#     Node 13, Type 0, BuildingBlock: QUQFOY_clean_sbu_1, # of connection points: 4
#     Node 14, Type 0, BuildingBlock: QUQFOY_clean_sbu_1, # of connection points: 4
#     Node 15, Type 0, BuildingBlock: QUQFOY_clean_sbu_1, # of connection points: 4
#     Node 16, Type 0, BuildingBlock: QUQFOY_clean_sbu_1, # of connection points: 4
#     Node 17, Type 0, BuildingBlock: QUQFOY_clean_sbu_1, # of connection points: 4
#     Node 18, Type 0, BuildingBlock: QUQFOY_clean_sbu_1, # of connection points: 4
#     Node 19, Type 0, BuildingBlock: QUQFOY_clean_sbu_1, # of connection points: 4
#     Node 20, Type 0, BuildingBlock: QUQFOY_clean_sbu_1, # of connection points: 4
#     Node 21, Type 0, BuildingBlock: QUQFOY_clean_sbu_1, # of connection points: 4
#     Node 22, Type 0, BuildingBlock: QUQFOY_clean_sbu_1, # of connection points: 4
#     Node 23, Type 0, BuildingBlock: QUQFOY_clean_sbu_1, # of connection points: 4
#     Node 24, Type 0, BuildingBlock: QUQFOY_clean_sbu_1, # of connection points: 4
#     Node 25, Type 0, BuildingBlock: QUQFOY_clean_sbu_1, # of connection points: 4
#     Node 26, Type 0, BuildingBlock: QUQFOY_clean_sbu_1, # of connection points: 4
#     Node 27, Type 0, BuildingBlock: QUQFOY_clean_sbu_1, # of connection points: 4
#     Node 28, Type 0, BuildingBlock: QUQFOY_clean_sbu_1, # of connection points: 4
#     Node 29, Type 0, BuildingBlock: QUQFOY_clean_sbu_1, # of connection points: 4
#     Node 30, Type 0, BuildingBlock: QUQFOY_clean_sbu_1, # of connection points: 4
#     Node 31, Type 0, BuildingBlock: QUQFOY_clean_sbu_1, # of connection points: 4
#     Edge 32, Type (0, 0), BuildingBlock: XUDNAN_clean_linker_2, # of connection points: 2
#     Edge 33, Type (0, 0), BuildingBlock: XUDNAN_clean_linker_2, # of connection points: 2
#     Edge 34, Type (0, 0), BuildingBlock: XUDNAN_clean_linker_2, # of connection points: 2
#     Edge 35, Type (0, 0), BuildingBlock: XUDNAN_clean_linker_2, # of connection points: 2
#     Edge 36, Type (0, 0), BuildingBlock: XUDNAN_clean_linker_2, # of connection points: 2
#     Edge 37, Type (0, 0), BuildingBlock: XUDNAN_clean_linker_2, # of connection points: 2
#     Edge 38, Type (0, 0), BuildingBlock: XUDNAN_clean_linker_2, # of connection points: 2
#     Edge 39, Type (0, 0), BuildingBlock: XUDNAN_clean_linker_2, # of connection points: 2
#     Edge 40, Type (0, 0), BuildingBlock: XUDNAN_clean_linker_2, # of connection points: 2
#     Edge 41, Type (0, 0), BuildingBlock: XUDNAN_clean_linker_2, # of connection points: 2
#     Edge 42, Type (0, 0), BuildingBlock: XUDNAN_clean_linker_2, # of connection points: 2
#     Edge 43, Type (0, 0), BuildingBlock: XUDNAN_clean_linker_2, # of connection points: 2
#     Edge 44, Type (0, 0), BuildingBlock: XUDNAN_clean_linker_2, # of connection points: 2
#     Edge 45, Type (0, 0), BuildingBlock: XUDNAN_clean_linker_2, # of connection points: 2
#     Edge 46, Type (0, 0), BuildingBlock: XUDNAN_clean_linker_2, # of connection points: 2
#     Edge 47, Type (0, 0), BuildingBlock: XUDNAN_clean_linker_2, # of connection points: 2
#     Edge 48, Type (0, 0), BuildingBlock: XUDNAN_clean_linker_2, # of connection points: 2
#     Edge 49, Type (0, 0), BuildingBlock: XUDNAN_clean_linker_2, # of connection points: 2
#     Edge 50, Type (0, 0), BuildingBlock: XUDNAN_clean_linker_2, # of connection points: 2
#     Edge 51, Type (0, 0), BuildingBlock: XUDNAN_clean_linker_2, # of connection points: 2
#     Edge 52, Type (0, 0), BuildingBlock: XUDNAN_clean_linker_2, # of connection points: 2
#     Edge 53, Type (0, 0), BuildingBlock: XUDNAN_clean_linker_2, # of connection points: 2
#     Edge 54, Type (0, 0), BuildingBlock: XUDNAN_clean_linker_2, # of connection points: 2
#     Edge 55, Type (0, 0), BuildingBlock: XUDNAN_clean_linker_2, # of connection points: 2
#     Edge 56, Type (0, 0), BuildingBlock: XUDNAN_clean_linker_2, # of connection points: 2
#     Edge 57, Type (0, 0), BuildingBlock: XUDNAN_clean_linker_2, # of connection points: 2
#     Edge 58, Type (0, 0), BuildingBlock: XUDNAN_clean_linker_2, # of connection points: 2
#     Edge 59, Type (0, 0), BuildingBlock: XUDNAN_clean_linker_2, # of connection points: 2
#     Edge 60, Type (0, 0), BuildingBlock: XUDNAN_clean_linker_2, # of connection points: 2
#     Edge 61, Type (0, 0), BuildingBlock: XUDNAN_clean_linker_2, # of connection points: 2
#     Edge 62, Type (0, 0), BuildingBlock: XUDNAN_clean_linker_2, # of connection points: 2
#     Edge 63, Type (0, 0), BuildingBlock: XUDNAN_clean_linker_2, # of connection points: 2
#     Edge 64, Type (0, 0), BuildingBlock: XUDNAN_clean_linker_2, # of connection points: 2
#     Edge 65, Type (0, 0), BuildingBlock: XUDNAN_clean_linker_2, # of connection points: 2
#     Edge 66, Type (0, 0), BuildingBlock: XUDNAN_clean_linker_2, # of connection points: 2
#     Edge 67, Type (0, 0), BuildingBlock: XUDNAN_clean_linker_2, # of connection points: 2
#     Edge 68, Type (0, 0), BuildingBlock: XUDNAN_clean_linker_2, # of connection points: 2
#     Edge 69, Type (0, 0), BuildingBlock: XUDNAN_clean_linker_2, # of connection points: 2
#     Edge 70, Type (0, 0), BuildingBlock: XUDNAN_clean_linker_2, # of connection points: 2
#     Edge 71, Type (0, 0), BuildingBlock: XUDNAN_clean_linker_2, # of connection points: 2
#     Edge 72, Type (0, 0), BuildingBlock: XUDNAN_clean_linker_2, # of connection points: 2
#     Edge 73, Type (0, 0), BuildingBlock: XUDNAN_clean_linker_2, # of connection points: 2
#     Edge 74, Type (0, 0), BuildingBlock: XUDNAN_clean_linker_2, # of connection points: 2
#     Edge 75, Type (0, 0), BuildingBlock: XUDNAN_clean_linker_2, # of connection points: 2
#     Edge 76, Type (0, 0), BuildingBlock: XUDNAN_clean_linker_2, # of connection points: 2
#     Edge 77, Type (0, 0), BuildingBlock: XUDNAN_clean_linker_2, # of connection points: 2
#     Edge 78, Type (0, 0), BuildingBlock: XUDNAN_clean_linker_2, # of connection points: 2
#     Edge 79, Type (0, 0), BuildingBlock: XUDNAN_clean_linker_2, # of connection points: 2
#     Edge 80, Type (0, 0), BuildingBlock: XUDNAN_clean_linker_2, # of connection points: 2
#     Edge 81, Type (0, 0), BuildingBlock: XUDNAN_clean_linker_2, # of connection points: 2
#     Edge 82, Type (0, 0), BuildingBlock: XUDNAN_clean_linker_2, # of connection points: 2
#     Edge 83, Type (0, 0), BuildingBlock: XUDNAN_clean_linker_2, # of connection points: 2
#     Edge 84, Type (0, 0), BuildingBlock: XUDNAN_clean_linker_2, # of connection points: 2
#     Edge 85, Type (0, 0), BuildingBlock: XUDNAN_clean_linker_2, # of connection points: 2
#     Edge 86, Type (0, 0), BuildingBlock: XUDNAN_clean_linker_2, # of connection points: 2
#     Edge 87, Type (0, 0), BuildingBlock: XUDNAN_clean_linker_2, # of connection points: 2
#     Edge 88, Type (0, 0), BuildingBlock: XUDNAN_clean_linker_2, # of connection points: 2
#     Edge 89, Type (0, 0), BuildingBlock: XUDNAN_clean_linker_2, # of connection points: 2
#     Edge 90, Type (0, 0), BuildingBlock: XUDNAN_clean_linker_2, # of connection points: 2
#     Edge 91, Type (0, 0), BuildingBlock: XUDNAN_clean_linker_2, # of connection points: 2
#     Edge 92, Type (0, 0), BuildingBlock: XUDNAN_clean_linker_2, # of connection points: 2
#     Edge 93, Type (0, 0), BuildingBlock: XUDNAN_clean_linker_2, # of connection points: 2
#     Edge 94, Type (0, 0), BuildingBlock: XUDNAN_clean_linker_2, # of connection points: 2
#     Edge 95, Type (0, 0), BuildingBlock: XUDNAN_clean_linker_2, # of connection points: 2
# Relax obj value: 0.230
# Max RMSD: 0.208
# Mean RMSD: 0.208
data_MOF--net-ukm--node1-QUQFOY_clean_sbu_1--edge1-XUDNAN_clean_linker_2
_symmetry_space_group_name_H-M    P1
_symmetry_Int_Tables_number       1
_symmetry_cell_setting            triclinic
loop_
_symmetry_equiv_pos_as_xyz
'x, y, z'
_cell_length_a     30.988591
_cell_length_b     105.81581
_cell_length_c     39.880273
_cell_angle_alpha  89.901906
_cell_angle_beta   90.025866
_cell_angle_gamma 90.067426
loop_
_atom_site_label
_atom_site_type_symbol
_atom_site_fract_x
_atom_site_fract_y
_atom_site_fract_z
_atom_type_partial_charge
O0 O 0.13691 0.32906 0.32809 0.0
Cd1 Cd 0.16248 0.31575 0.29585 0.0
Cd2 Cd 0.07986 0.3082 0.30241 0.0
O3 O 0.07373 0.32078 0.34115 0.0
O4 O 0.20381 0.30217 0.31211 0.0
O5 O 0.22422 0.32107 0.29488 0.0
C6 C 0.23452 0.31019 0.30683 0.0
C7 C 0.06536 0.2868 0.3007 0.0
C8 C 0.1017 0.32948 0.34443 0.0
C9 C 0.10504 0.31809 0.23611 0.0
O10 O 0.07402 0.31612 0.25613 0.0
O11 O 0.14384 0.31709 0.24617 0.0
O12 O 0.03453 0.29498 0.3027 0.0
O13 O 0.10471 0.29078 0.30353 0.0
O14 O 0.10531 0.92942 0.34598 0.0
Cd15 Cd 0.06437 0.94349 0.3293 0.0
Cd16 Cd 0.1482 0.95207 0.30999 0.0
O17 O 0.17095 0.93686 0.33698 0.0
O18 O 0.00815 0.93654 0.34507 0.0
O19 O 0.03157 0.95539 0.36002 0.0
C20 C 1.00191 0.94684 0.36139 0.0
C21 C 0.17793 0.97221 0.30801 0.0
C22 C 0.1461 0.92816 0.3476 0.0
C23 C 0.08326 0.94592 0.25617 0.0
O24 O 0.12216 0.94796 0.26436 0.0
O25 O 0.05428 0.9446 0.27836 0.0
O26 O 0.19837 0.96259 0.29625 0.0
O27 O 0.14257 0.97016 0.32437 0.0
O28 O 0.12993 0.92529 0.93874 0.0
Cd29 Cd 0.13699 0.94388 0.95321 0.0
Cd30 Cd 0.05387 0.9408 0.94157 0.0
O31 O 0.06721 0.92516 0.91285 0.0
O32 O 0.20073 0.94426 0.96011 0.0
O33 O 0.16812 0.95649 0.92319 0.0
C34 C 0.20355 0.95257 0.93666 0.0
C35 C 0.02128 0.95987 0.93248 0.0
C36 C 0.10162 0.9195 0.92149 0.0
C37 C 0.07876 0.94309 0.01149 0.0
O38 O 0.05296 0.93742 -0.00809 0.0
O39 O 0.11273 0.94826 -5e-05 0.0
O40 O 0.99877 0.94955 0.9325 0.0
O41 O 0.063 0.959 0.9319 0.0
O42 O 0.10707 0.33775 0.90042 0.0
Cd43 Cd 0.07401 0.32252 0.9203 0.0
Cd44 Cd 0.16381 0.31825 0.93698 0.0
O45 O 0.1763 0.33313 0.90517 0.0
O46 O 0.01414 0.32765 0.90788 0.0
O47 O 0.04189 0.30943 0.89234 0.0
C48 C 0.00957 0.31711 0.8924 0.0
C49 C 0.20638 0.30025 0.94306 0.0
C50 C 0.14653 0.34058 0.89575 0.0
C51 C 0.10023 0.32335 -0.00761 0.0
O52 O 0.13911 0.32322 0.98249 0.0
O53 O 0.06937 0.322 0.97176 0.0
O54 O 0.22104 0.31131 0.95031 0.0
O55 O 0.16876 0.29952 0.92917 0.0
O56 O 0.89861 0.69462 0.71784 0.0
Cd57 Cd 0.92653 0.69936 0.67325 0.0
Cd58 Cd 0.84381 0.6936 0.64958 0.0
O59 O 0.83159 0.69592 0.69985 0.0
O60 O 0.97605 0.71007 0.68723 0.0
O61 O 0.91941 0.71743 0.65942 0.0
C62 C 0.95479 0.71962 0.67568 0.0
C63 C 0.78262 0.69786 0.6166 0.0
C64 C 0.85843 0.69485 0.72369 0.0
C65 C 0.92069 0.67599 0.6349 0.0
O66 O 0.8802 0.67802 0.63614 0.0
O67 O 0.94725 0.68435 0.6449 0.0
O68 O 0.78459 0.68825 0.63623 0.0
O69 O 0.81618 0.70504 0.6145 0.0
O70 O 0.88735 0.06438 0.72381 0.0
Cd71 Cd 0.85938 0.06391 0.67755 0.0
Cd72 Cd 0.95236 0.06549 0.66365 0.0
O73 O 0.95389 0.05861 0.71178 0.0
O74 O 0.79858 0.06037 0.69147 0.0
O75 O 0.83842 0.04645 0.66445 0.0
C76 C 0.80349 0.04899 0.68077 0.0
C77 C 0.01513 0.06084 0.63266 0.0
C78 C 0.92434 0.06065 0.73305 0.0
C79 C 0.89088 0.08828 0.65295 0.0
O80 O 0.92821 0.08362 0.65804 0.0
O81 O 0.85737 0.08131 0.6537 0.0
O82 O 0.01567 0.06841 0.65778 0.0
O83 O 0.97853 0.05593 0.62434 0.0
O84 O 0.94349 0.06476 -0.00113 0.0
Cd85 Cd 0.93339 0.05881 0.04673 0.0
Cd86 Cd 0.85141 0.06442 0.03434 0.0
O87 O 0.87497 0.06187 0.98639 0.0
O88 O 0.97163 0.044 0.05246 0.0
O89 O 0.90015 0.04279 0.04806 0.0
C90 C 0.93732 0.03721 0.04787 0.0
C91 C 0.77926 0.05898 0.04465 0.0
C92 C 0.91387 0.06355 0.9772 0.0
C93 C 0.90616 0.08139 0.08002 0.0
O94 O 0.87343 0.0798 0.06123 0.0
O95 O 0.93463 0.07279 0.08237 0.0
O96 O 0.7895 0.06892 0.02777 0.0
O97 O 0.81012 0.05183 0.05525 0.0
O98 O 0.77896 0.69318 0.98319 0.0
Cd99 Cd 0.77256 0.70003 0.03063 0.0
Cd100 Cd 0.85953 0.6971 0.0313 0.0
O101 O 0.84824 0.69768 0.98035 0.0
O102 O 0.72037 0.71086 0.02796 0.0
O103 O 0.78655 0.71851 0.03415 0.0
C104 C 0.74604 0.72049 0.02818 0.0
C105 C 0.92856 0.7035 0.04897 0.0
C106 C 0.81313 0.69454 0.96613 0.0
C107 C 0.80087 0.67883 0.07073 0.0
O108 O 0.83683 0.68153 0.05715 0.0
O109 O 0.76887 0.68624 0.06732 0.0
O110 O 0.9223 0.69319 0.0327 0.0
O111 O 0.89549 0.71056 0.05477 0.0
O112 O 0.16202 0.82802 0.85234 0.0
Cd113 Cd 0.19593 0.81432 0.82669 0.0
Cd114 Cd 0.10366 0.81275 0.80358 0.0
O115 O 0.09248 0.8258 0.8406 0.0
O116 O 0.25611 0.81964 0.83755 0.0
O117 O 0.22912 0.80147 0.85466 0.0
C118 C 0.26113 0.80926 0.85376 0.0
C119 C 0.05834 0.79601 0.78929 0.0
C120 C 0.12285 0.83129 0.85629 0.0
C121 C 0.17315 0.81879 0.7539 0.0
O122 O 0.13365 0.81947 0.76188 0.0
O123 O 0.2015 0.81554 0.77522 0.0
O124 O 0.04672 0.80759 0.78499 0.0
O125 O 0.09426 0.79392 0.80484 0.0
O126 O 0.10466 0.43438 0.85382 0.0
Cd127 Cd 0.06836 0.44874 0.83306 0.0
Cd128 Cd 0.16114 0.45402 0.81293 0.0
O129 O 0.17329 0.43895 0.84429 0.0
O130 O 0.00996 0.44265 0.84679 0.0
O131 O 0.03364 0.46163 0.85975 0.0
C132 C 1.00306 0.45337 0.86082 0.0
C133 C 0.2135 0.46945 0.80141 0.0
C134 C 0.14454 0.43167 0.85636 0.0
C135 C 0.09204 0.44794 0.76033 0.0
O136 O 0.13104 0.44953 0.76899 0.0
O137 O 0.06187 0.44812 0.78182 0.0
O138 O 0.2195 0.45774 0.79437 0.0
O139 O 0.17908 0.47236 0.81788 0.0
O140 O 0.12596 0.41972 0.43052 0.0
Cd141 Cd 0.14793 0.43542 0.45639 0.0
Cd142 Cd 0.06293 0.4401 0.44943 0.0
O143 O 0.0611 0.42588 0.41471 0.0
O144 O 0.21138 0.43229 0.45734 0.0
O145 O 0.1828 0.44918 0.43353 0.0
C146 C 0.2167 0.44265 0.44091 0.0
C147 C 0.03665 0.46049 0.44582 0.0
C148 C 0.09109 0.41771 0.41452 0.0
C149 C 0.09288 0.43509 0.51775 0.0
O150 O 0.06109 0.43417 0.49794 0.0
O151 O 0.13061 0.43705 0.50631 0.0
O152 O 0.01092 0.45088 0.44582 0.0
O153 O 0.07771 0.4584 0.44379 0.0
O154 O 0.15724 0.83643 0.42008 0.0
Cd155 Cd 0.13882 0.82122 0.44922 0.0
Cd156 Cd 0.22705 0.81862 0.44364 0.0
O157 O 0.22497 0.83235 0.40711 0.0
O158 O 0.07536 0.82432 0.45137 0.0
O159 O 0.10271 0.80682 0.43039 0.0
C160 C 0.06917 0.81354 0.43737 0.0
C161 C 0.25808 0.79876 0.44227 0.0
C162 C 0.19178 0.83934 0.40464 0.0
C163 C 0.19335 0.82441 0.51083 0.0
O164 O 0.22581 0.82519 0.49162 0.0
O165 O 0.15638 0.82162 0.49911 0.0
O166 O 0.28156 0.80885 0.44146 0.0
O167 O 0.21664 0.80001 0.43992 0.0
O168 O 0.8833 0.18667 0.23063 0.0
Cd169 Cd 0.90965 0.1924 0.18627 0.0
Cd170 Cd 0.8203 0.18708 0.16729 0.0
O171 O 0.81387 0.18561 0.21856 0.0
O172 O 0.96755 0.19819 0.2019 0.0
O173 O 0.91874 0.21121 0.18111 0.0
C174 C 0.95571 0.20958 0.19544 0.0
C175 C 0.75761 0.19388 0.13927 0.0
C176 C 0.8445 0.18495 0.23964 0.0
C177 C 0.89536 0.17069 0.14083 0.0
O178 O 0.85525 0.17291 0.1443 0.0
O179 O 0.92343 0.1781 0.15322 0.0
O180 O 0.76099 0.18271 0.15163 0.0
O181 O 0.79022 0.20138 0.14239 0.0
O182 O 0.85775 0.57379 0.2259 0.0
Cd183 Cd 0.83056 0.56789 0.18201 0.0
Cd184 Cd 0.91238 0.57345 0.1572 0.0
O185 O 0.92484 0.57339 0.20781 0.0
O186 O 0.78315 0.55634 0.19652 0.0
O187 O 0.84187 0.54983 0.16996 0.0
C188 C 0.80668 0.5471 0.18591 0.0
C189 C 0.97204 0.56671 0.12569 0.0
C190 C 0.89793 0.57453 0.23155 0.0
C191 C 0.83522 0.59022 0.13796 0.0
O192 O 0.87582 0.58833 0.13886 0.0
O193 O 0.80933 0.58223 0.15092 0.0
O194 O 0.97191 0.57734 0.14121 0.0
O195 O 0.93742 0.55994 0.12672 0.0
O196 O 0.97598 0.57323 0.49051 0.0
Cd197 Cd 0.97658 0.56614 0.5381 0.0
Cd198 Cd 0.89041 0.57074 0.53697 0.0
O199 O 0.90505 0.57217 0.48674 0.0
O200 O 0.01455 0.55101 0.53866 0.0
O201 O 0.943 0.55026 0.54242 0.0
C202 C 0.97933 0.54441 0.53872 0.0
C203 C 0.81976 0.56426 0.54959 0.0
C204 C 0.94171 0.57398 0.47322 0.0
C205 C 0.95097 0.58671 0.58136 0.0
O206 O 0.91441 0.58461 0.56797 0.0
O207 O 0.98258 0.57939 0.57556 0.0
O208 O 0.82805 0.5753 0.53776 0.0
O209 O 0.85168 0.55663 0.55407 0.0
O210 O 0.81825 0.18672 0.50358 0.0
Cd211 Cd 0.82478 0.19518 0.54903 0.0
Cd212 Cd 0.91088 0.19039 0.54034 0.0
O213 O 0.88779 0.18771 0.49209 0.0
O214 O 0.78356 0.20957 0.54958 0.0
O215 O 0.85482 0.21186 0.54727 0.0
C216 C 0.81675 0.21686 0.54554 0.0
C217 C 0.98309 0.19683 0.54665 0.0
C218 C 0.8491 0.18555 0.48298 0.0
C219 C 0.8585 0.17616 0.59435 0.0
O220 O 0.89254 0.17774 0.5771 0.0
O221 O 0.82536 0.18298 0.58943 0.0
O222 O 0.97297 0.18573 0.53619 0.0
O223 O 0.95205 0.20466 0.55237 0.0
O224 O 0.61562 0.33777 0.81794 0.0
Cd225 Cd 0.6432 0.32333 0.7904 0.0
Cd226 Cd 0.55962 0.31666 0.79239 0.0
O227 O 0.55026 0.33042 0.82809 0.0
O228 O 0.70547 0.32806 0.79262 0.0
O229 O 0.68086 0.30987 0.81184 0.0
C230 C 0.71305 0.31741 0.80706 0.0
C231 C 0.54927 0.29503 0.79352 0.0
C232 C 0.57876 0.33898 0.83159 0.0
C233 C 0.59298 0.32415 0.72645 0.0
O234 O 0.55944 0.32324 0.74444 0.0
O235 O 0.63022 0.32314 0.73958 0.0
O236 O 0.51678 0.30268 0.79228 0.0
O237 O 0.58735 0.29977 0.79821 0.0
O238 O 0.604 0.93894 0.85879 0.0
Cd239 Cd 0.56438 0.94908 0.8269 0.0
Cd240 Cd 0.65032 0.95438 0.80257 0.0
O241 O 0.67051 0.94265 0.84091 0.0
O242 O 0.50761 0.94377 0.84584 0.0
O243 O 0.52668 0.96378 0.84211 0.0
C244 C 0.49831 0.95545 0.85066 0.0
C245 C 0.67521 0.97467 0.78992 0.0
C246 C 0.64447 0.93709 0.86068 0.0
C247 C 0.58818 0.94131 0.75637 0.0
O248 O 0.62637 0.94507 0.76201 0.0
O249 O 0.55875 0.94261 0.77825 0.0
O250 O 0.6988 0.96484 0.78442 0.0
O251 O 0.63875 0.97303 0.80514 0.0
O252 O 0.61891 0.91623 0.4264 0.0
Cd253 Cd 0.63876 0.93046 0.45797 0.0
Cd254 Cd 0.55309 0.93503 0.45081 0.0
O255 O 0.55241 0.92167 0.41292 0.0
O256 O 0.70231 0.92737 0.45993 0.0
O257 O 0.67454 0.94518 0.44087 0.0
C258 C 0.70819 0.9384 0.44702 0.0
C259 C 0.55099 0.95689 0.45118 0.0
C260 C 0.58434 0.91419 0.41008 0.0
C261 C 0.58067 0.92728 0.51795 0.0
O262 O 0.54871 0.92777 0.4981 0.0
O263 O 0.61876 0.9293 0.50725 0.0
O264 O 0.51566 0.95041 0.44855 0.0
O265 O 0.58727 0.9509 0.44949 0.0
O266 O 0.63255 0.33323 0.38913 0.0
Cd267 Cd 0.59906 0.31819 0.40952 0.0
Cd268 Cd 0.68811 0.31483 0.43193 0.0
O269 O 0.70147 0.32974 0.40003 0.0
O270 O 0.53983 0.32314 0.39482 0.0
O271 O 0.56777 0.30463 0.38242 0.0
C272 C 0.53551 0.31229 0.38084 0.0
C273 C 0.73031 0.2968 0.44008 0.0
C274 C 0.67195 0.33657 0.38724 0.0
C275 C 0.61921 0.32025 0.48305 0.0
O276 O 0.65905 0.31991 0.47582 0.0
O277 O 0.59065 0.31871 0.46061 0.0
O278 O 0.74445 0.30789 0.44775 0.0
O279 O 0.6936 0.29604 0.42479 0.0
O280 O 0.35986 0.68966 0.21638 0.0
Cd281 Cd 0.387 0.69668 0.17386 0.0
Cd282 Cd 0.29138 0.69583 0.15695 0.0
O283 O 0.29011 0.69254 0.20804 0.0
O284 O 0.44667 0.69994 0.19047 0.0
O285 O 0.40257 0.71525 0.17508 0.0
C286 C 0.43865 0.71186 0.18863 0.0
C287 C 0.22456 0.70247 0.13503 0.0
C288 C 0.32132 0.68943 0.22696 0.0
C289 C 0.36019 0.67927 0.11986 0.0
O290 O 0.32196 0.68294 0.12612 0.0
O291 O 0.39249 0.68399 0.13502 0.0
O292 O 0.23102 0.69112 0.14525 0.0
O293 O 0.25613 0.71037 0.13746 0.0
O294 O 0.3692 0.06813 0.22345 0.0
Cd295 Cd 0.33418 0.06433 0.18138 0.0
Cd296 Cd 0.42275 0.06956 0.15544 0.0
O297 O 0.43653 0.06939 0.20582 0.0
O298 O 0.27844 0.05992 0.20341 0.0
O299 O 0.31732 0.04598 0.17568 0.0
C300 C 0.28482 0.04835 0.19491 0.0
C301 C 0.48173 0.06328 0.1225 0.0
C302 C 0.40918 0.06931 0.22944 0.0
C303 C 0.3456 0.08712 0.13861 0.0
O304 O 0.38564 0.08443 0.13818 0.0
O305 O 0.3184 0.0797 0.15216 0.0
O306 O 0.47996 0.07425 0.13624 0.0
O307 O 0.44917 0.05582 0.12649 0.0
O308 O 0.46869 0.06774 0.49263 0.0
Cd309 Cd 0.46698 0.06162 0.54106 0.0
Cd310 Cd 0.38067 0.06583 0.53428 0.0
O311 O 0.3998 0.06355 0.48514 0.0
O312 O 0.51858 0.05061 0.54492 0.0
O313 O 0.4515 0.04329 0.54559 0.0
C314 C 0.49253 0.04107 0.54399 0.0
C315 C 0.30948 0.05979 0.54648 0.0
C316 C 0.43675 0.06622 0.47324 0.0
C317 C 0.43618 0.08409 0.57533 0.0
O318 O 0.40187 0.0819 0.55875 0.0
O319 O 0.46636 0.07594 0.57611 0.0
O320 O 0.31783 0.06926 0.52735 0.0
O321 O 0.34147 0.05357 0.55898 0.0
O322 O 0.32329 0.68809 0.49215 0.0
Cd323 Cd 0.33894 0.695 0.53818 0.0
Cd324 Cd 0.41933 0.68861 0.52145 0.0
O325 O 0.39067 0.68895 0.47459 0.0
O326 O 0.30245 0.71023 0.54533 0.0
O327 O 0.3731 0.71083 0.5359 0.0
C328 C 0.33679 0.71676 0.53867 0.0
C329 C 0.48968 0.69616 0.52855 0.0
C330 C 0.35062 0.68749 0.46858 0.0
C331 C 0.37136 0.67296 0.57363 0.0
O332 O 0.40216 0.67391 0.55268 0.0
O333 O 0.3429 0.68159 0.57561 0.0
O334 O 0.48214 0.68594 0.51207 0.0
O335 O 0.45735 0.70233 0.54053 0.0
O336 O 0.66527 0.82409 0.34678 0.0
Cd337 Cd 0.70663 0.81001 0.33079 0.0
Cd338 Cd 0.61931 0.80156 0.30825 0.0
O339 O 0.59945 0.81754 0.33378 0.0
O340 O 0.76281 0.81701 0.34675 0.0
O341 O 0.74003 0.79803 0.36115 0.0
C342 C 0.76969 0.80659 0.36241 0.0
C343 C 0.57987 0.78278 0.30387 0.0
C344 C 0.62462 0.82584 0.34611 0.0
C345 C 0.69032 0.80703 0.2572 0.0
O346 O 0.65128 0.80458 0.26423 0.0
O347 O 0.71783 0.80905 0.28011 0.0
O348 O 0.56595 0.79317 0.29094 0.0
O349 O 0.61416 0.78332 0.32229 0.0
O350 O 0.61578 0.42995 0.34454 0.0
Cd351 Cd 0.5769 0.44433 0.32681 0.0
Cd352 Cd 0.66637 0.45039 0.3033 0.0
O353 O 0.68341 0.43535 0.33371 0.0
O354 O 0.51992 0.43775 0.3425 0.0
O355 O 0.54321 0.45674 0.3558 0.0
C356 C 0.51321 0.4483 0.35742 0.0
C357 C 0.71113 0.46777 0.2914 0.0
C358 C 0.65604 0.42759 0.34573 0.0
C359 C 0.59529 0.44395 0.25328 0.0
O360 O 0.63491 0.44534 0.26036 0.0
O361 O 0.56663 0.44434 0.27595 0.0
O362 O 0.72191 0.45642 0.28348 0.0
O363 O 0.67659 0.46921 0.30911 0.0
O364 O 0.60771 0.42869 0.91799 0.0
Cd365 Cd 0.6317 0.44301 0.94785 0.0
Cd366 Cd 0.54755 0.44879 0.94355 0.0
O367 O 0.54242 0.4356 0.9058 0.0
O368 O 0.69453 0.43886 0.94837 0.0
O369 O 0.66963 0.45699 0.92915 0.0
C370 C 0.70215 0.4497 0.935 0.0
C371 C 0.53891 0.47045 0.94519 0.0
C372 C 0.57197 0.42735 0.90268 0.0
C373 C 0.57698 0.44078 0.00965 0.0
O374 O 0.54434 0.44138 0.99057 0.0
O375 O 0.61471 0.44251 -0.00208 0.0
O376 O 0.50577 0.46305 0.9429 0.0
O377 O 0.57697 0.46554 0.94215 0.0
O378 O 0.63012 0.84613 0.95632 0.0
Cd379 Cd 0.61456 0.8276 0.9674 0.0
Cd380 Cd 0.69677 0.82602 0.94787 0.0
O381 O 0.68724 0.84328 0.92399 0.0
O382 O 0.57956 0.81785 0.93343 0.0
O383 O 0.55152 0.82672 0.97862 0.0
C384 C 0.54623 0.82016 0.95173 0.0
C385 C 0.69805 0.80488 0.93391 0.0
C386 C 0.65892 0.85057 0.93675 0.0
C387 C 0.68281 0.82217 0.01797 0.0
O388 O 0.70885 0.8275 -0.00208 0.0
O389 O 0.64466 0.81952 0.00845 0.0
O390 O 0.73307 0.81155 0.93179 0.0
O391 O 0.66203 0.81074 0.93849 0.0
O392 O 0.39937 0.1903 0.72597 0.0
Cd393 Cd 0.42892 0.19562 0.6825 0.0
Cd394 Cd 0.34162 0.19002 0.65898 0.0
O395 O 0.33124 0.18947 0.70998 0.0
O396 O 0.48407 0.20285 0.69997 0.0
O397 O 0.43388 0.21447 0.67554 0.0
C398 C 0.46984 0.21387 0.69189 0.0
C399 C 0.28008 0.19583 0.62794 0.0
C400 C 0.35968 0.18896 0.73285 0.0
C401 C 0.41916 0.17342 0.63782 0.0
O402 O 0.37885 0.17568 0.63904 0.0
O403 O 0.44613 0.18096 0.65123 0.0
O404 O 0.28378 0.1849 0.64172 0.0
O405 O 0.31182 0.20363 0.63121 0.0
O406 O 0.40367 0.56847 0.7234 0.0
Cd407 Cd 0.37368 0.56237 0.68099 0.0
Cd408 Cd 0.4576 0.56481 0.65788 0.0
O409 O 0.46332 0.5591 0.70749 0.0
O410 O 0.32289 0.55281 0.69778 0.0
O411 O 0.37813 0.54388 0.6716 0.0
C412 C 0.34253 0.54267 0.68827 0.0
C413 C 0.52086 0.56104 0.62734 0.0
C414 C 0.43979 0.56361 0.7305 0.0
C415 C 0.38518 0.58413 0.64027 0.0
O416 O 0.4249 0.58138 0.64436 0.0
O417 O 0.35606 0.57631 0.64876 0.0
O418 O 0.51776 0.57025 0.64814 0.0
O419 O 0.48755 0.55387 0.6232 0.0
O420 O 0.41421 0.57231 0.98479 0.0
Cd421 Cd 0.41232 0.56928 0.03518 0.0
Cd422 Cd 0.33133 0.56649 0.02066 0.0
O423 O 0.3634 0.55796 0.98097 0.0
O424 O 0.46774 0.56077 0.04533 0.0
O425 O 0.40406 0.55103 0.04557 0.0
C426 C 0.44582 0.55034 0.04553 0.0
C427 C 0.26255 0.55928 0.03549 0.0
C428 C 0.39476 0.56393 0.96794 0.0
C429 C 0.36586 0.59123 0.04933 0.0
O430 O 0.3401 0.58575 0.02909 0.0
O431 O 0.39661 0.58501 0.06249 0.0
O432 O 0.2693 0.56499 0.00747 0.0
O433 O 0.29516 0.55722 0.05492 0.0
O434 O 0.3046 0.19163 -0.00441 0.0
Cd435 Cd 0.3061 0.19847 0.04332 0.0
Cd436 Cd 0.39092 0.19335 0.03883 0.0
O437 O 0.3749 0.19331 0.98855 0.0
O438 O 0.26287 0.21224 0.04434 0.0
O439 O 0.3337 0.2154 0.04767 0.0
C440 C 0.29521 0.21998 0.04424 0.0
C441 C 0.46232 0.19875 0.05299 0.0
C442 C 0.33739 0.1914 0.97661 0.0
C443 C 0.33091 0.1769 0.0826 0.0
O444 O 0.36642 0.17873 0.06736 0.0
O445 O 0.3006 0.18493 0.08012 0.0
O446 O 0.45294 0.18834 0.03813 0.0
O447 O 0.43113 0.20647 0.05919 0.0
H448 H 0.15146 0.39982 0.39963 0.0
H449 H 0.01339 0.40667 0.39909 0.0
H450 H 1.00054 0.38417 0.38563 0.0
H451 H 0.15181 0.37749 0.33042 0.0
H452 H 0.19406 0.36809 0.34895 0.0
H453 H 0.19133 0.38478 0.35738 0.0
H454 H 0.19017 0.37989 0.42113 0.0
H455 H 0.19155 0.36317 0.41283 0.0
H456 H 0.14872 0.36972 0.43791 0.0
H457 H 1.0031 0.36048 0.37557 0.0
H458 H 0.02115 0.33854 0.35969 0.0
H459 H 0.15748 0.34761 0.36643 0.0
C460 C 0.11851 0.39665 0.39619 0.0
C461 C 0.08343 0.40499 0.40043 0.0
C462 C 0.0408 0.40047 0.39567 0.0
C463 C 0.03316 0.38767 0.38841 0.0
C464 C 0.06851 0.3796 0.38574 0.0
C465 C 0.11035 0.38398 0.38874 0.0
C466 C 0.14282 0.37349 0.38398 0.0
C467 C 0.17168 0.37612 0.35336 0.0
C468 C 0.1699 0.37145 0.41587 0.0
C469 C 0.11275 0.36247 0.37786 0.0
C470 C 0.06999 0.36612 0.37942 0.0
C471 C 0.03648 0.35754 0.37418 0.0
C472 C 0.04704 0.34505 0.36555 0.0
C473 C 0.09072 0.34136 0.36188 0.0
C474 C 0.1238 0.35012 0.36918 0.0
H475 H 0.10062 0.90762 0.36888 0.0
H476 H 0.23108 0.92024 0.34735 0.0
H477 H 0.25754 0.89838 0.35602 0.0
H478 H 0.12739 0.88491 0.43284 0.0
H479 H 0.08593 0.87407 0.41948 0.0
H480 H 0.07903 0.89078 0.41311 0.0
H481 H 0.06669 0.88674 0.34967 0.0
H482 H 0.07469 0.87004 0.35573 0.0
H483 H 0.10734 0.87854 0.32584 0.0
H484 H 0.26866 0.87457 0.36608 0.0
H485 H 0.26412 0.85192 0.38164 0.0
H486 H 0.12544 0.8556 0.39328 0.0
C487 C 0.13491 0.9059 0.36638 0.0
C488 C 0.16377 0.91569 0.35752 0.0
C489 C 0.20835 0.91292 0.35437 0.0
C490 C 0.22361 0.90051 0.35897 0.0
C491 C 0.19384 0.89102 0.36655 0.0
C492 C 0.15049 0.89365 0.37052 0.0
C493 C 0.12472 0.88191 0.37843 0.0
C494 C 0.10302 0.88298 0.41302 0.0
C495 C 0.09141 0.87915 0.35076 0.0
C496 C 0.1603 0.87219 0.37856 0.0
C497 C 0.2 0.87753 0.37155 0.0
C498 C 0.23767 0.87031 0.37149 0.0
C499 C 0.23475 0.85742 0.38008 0.0
C500 C 0.19442 0.85196 0.38862 0.0
C501 C 0.15678 0.85943 0.38675 0.0
H502 H 0.05776 0.90339 0.8781 0.0
H503 H 0.15697 0.90433 0.9552 0.0
H504 H 0.16395 0.88135 0.95215 0.0
H505 H 0.00888 0.87304 0.9026 0.0
H506 H 1.001 0.86783 0.86002 0.0
H507 H 1.00001 0.88446 0.86973 0.0
H508 H 0.06023 0.88865 0.82602 0.0
H509 H 0.06077 0.87209 0.8158 0.0
H510 H 0.10991 0.87985 0.82858 0.0
H511 H 0.16395 0.85884 0.94007 0.0
H512 H 0.1637 0.83786 0.91348 0.0
H513 H 0.06591 0.85052 0.84323 0.0
C514 C 0.08076 0.89872 0.89436 0.0
C515 C 0.10668 0.90571 0.91692 0.0
C516 C 0.13681 0.89926 0.93755 0.0
C517 C 0.14075 0.88615 0.93635 0.0
C518 C 0.1146 0.87952 0.91424 0.0
C519 C 0.08568 0.88552 0.89316 0.0
C520 C 0.06457 0.87608 0.86965 0.0
C521 C 0.01571 0.87531 0.87588 0.0
C522 C 0.07448 0.87936 0.83284 0.0
C523 C 0.08701 0.86397 0.88046 0.0
C524 C 0.11504 0.86622 0.90673 0.0
C525 C 0.14178 0.85687 0.91976 0.0
C526 C 0.14135 0.84499 0.9046 0.0
C527 C 0.11441 0.84257 0.87672 0.0
C528 C 0.08583 0.85204 0.86517 0.0
H529 H 0.08933 0.41272 0.87336 0.0
H530 H 0.22581 0.4211 0.86253 0.0
H531 H 0.2425 0.39836 0.87008 0.0
H532 H 0.09852 0.38724 0.93429 0.0
H533 H 0.05504 0.37852 0.91513 0.0
H534 H 0.05573 0.39551 0.91291 0.0
H535 H 0.05019 0.39412 0.8481 0.0
H536 H 0.05081 0.37713 0.85005 0.0
H537 H 0.09035 0.38538 0.82511 0.0
H538 H 0.24279 0.37404 0.87638 0.0
H539 H 0.22681 0.35124 0.88411 0.0
H540 H 0.0898 0.35976 0.88536 0.0
C541 C 0.12293 0.40991 0.87336 0.0
C542 C 0.15626 0.41876 0.86757 0.0
C543 C 0.19968 0.41453 0.86726 0.0
C544 C 0.20944 0.40161 0.87127 0.0
C545 C 0.1754 0.39309 0.87531 0.0
C546 C 0.13306 0.39715 0.87662 0.0
C547 C 0.10188 0.38624 0.87937 0.0
C548 C 0.07631 0.38692 0.91239 0.0
C549 C 0.07154 0.38569 0.84884 0.0
C550 C 0.13313 0.37533 0.8794 0.0
C551 C 0.17545 0.37937 0.87725 0.0
C552 C 0.20971 0.37081 0.87797 0.0
C553 C 0.20033 0.35787 0.8821 0.0
C554 C 0.15704 0.35366 0.8851 0.0
C555 C 0.12327 0.36256 0.88278 0.0
H556 H 0.88846 0.60292 0.60168 0.0
H557 H 0.02759 0.59866 0.59724 0.0
H558 H 0.03614 0.62126 0.61207 0.0
H559 H 0.88452 0.63132 0.56076 0.0
H560 H 0.84059 0.63781 0.5848 0.0
H561 H 0.84537 0.62098 0.57995 0.0
H562 H 0.84607 0.61791 0.64446 0.0
H563 H 0.83989 0.63472 0.64959 0.0
H564 H 0.88421 0.62664 0.66954 0.0
H565 H 0.02817 0.64521 0.62144 0.0
H566 H 0.0046 0.66741 0.62895 0.0
H567 H 0.87095 0.65526 0.623 0.0
C568 C 0.92086 0.60659 0.60477 0.0
C569 C 0.95736 0.59899 0.59838 0.0
C570 C 0.99913 0.60425 0.60241 0.0
C571 C 0.00427 0.61711 0.61055 0.0
C572 C 0.96734 0.6245 0.61466 0.0
C573 C 0.92647 0.61932 0.61238 0.0
C574 C 0.89178 0.62926 0.61526 0.0
C575 C 0.86396 0.62987 0.58329 0.0
C576 C 0.86385 0.627 0.64658 0.0
C577 C 0.91935 0.64093 0.61893 0.0
C578 C 0.96284 0.63808 0.61884 0.0
C579 C 0.99416 0.64751 0.62174 0.0
C580 C 0.98049 0.6601 0.62573 0.0
C581 C 0.93592 0.66312 0.62638 0.0
C582 C 0.90528 0.65336 0.62238 0.0
H583 H 0.82837 0.10288 0.62125 0.0
H584 H 0.94465 0.1052 0.68174 0.0
H585 H 0.93971 0.12834 0.68169 0.0
H586 H 0.85554 0.1285 0.56863 0.0
H587 H 0.80124 0.13435 0.56413 0.0
H588 H 0.8103 0.11788 0.57267 0.0
H589 H 0.7609 0.11949 0.62491 0.0
H590 H 0.7524 0.13607 0.61677 0.0
H591 H 0.7729 0.13099 0.65689 0.0
H592 H 0.92759 0.15084 0.67137 0.0
H593 H 0.91341 0.17159 0.64536 0.0
H594 H 0.80529 0.15568 0.59103 0.0
C595 C 0.85237 0.1083 0.63479 0.0
C596 C 0.88686 0.10222 0.65153 0.0
C597 C 0.91811 0.10962 0.66851 0.0
C598 C 0.91532 0.12279 0.66901 0.0
C599 C 0.88118 0.12853 0.65229 0.0
C600 C 0.8505 0.12159 0.63509 0.0
C601 C 0.82014 0.13028 0.61603 0.0
C602 C 0.82194 0.1276 0.57813 0.0
C603 C 0.77383 0.12914 0.62947 0.0
C604 C 0.83951 0.1431 0.62444 0.0
C605 C 0.87411 0.14182 0.64606 0.0
C606 C 0.89999 0.15205 0.65505 0.0
C607 C 0.89158 0.16381 0.64038 0.0
C608 C 0.8575 0.16526 0.61718 0.0
C609 C 0.83027 0.15489 0.60992 0.0
H610 H 0.84391 0.15294 0.11139 0.0
H611 H 0.97616 0.15989 0.14234 0.0
H612 H 0.9937 0.13745 0.13171 0.0
H613 H 0.83261 0.12373 0.15034 0.0
H614 H 0.80016 0.11673 0.11775 0.0
H615 H 0.79903 0.13355 0.12418 0.0
H616 H 0.82083 0.13745 0.06224 0.0
H617 H 0.82073 0.12064 0.05534 0.0
H618 H 0.86819 0.12981 0.04565 0.0
H619 H 0.99461 0.11356 0.12204 0.0
H620 H 0.98095 0.09117 0.10718 0.0
H621 H 0.84763 0.10045 0.08462 0.0
C622 C 0.87688 0.14986 0.11522 0.0
C623 C 0.90864 0.1582 0.12768 0.0
C624 C 0.9513 0.15371 0.13253 0.0
C625 C 0.9615 0.14095 0.12684 0.0
C626 C 0.92873 0.13286 0.11617 0.0
C627 C 0.8875 0.13722 0.10983 0.0
C628 C 0.85762 0.12665 0.09943 0.0
C629 C 0.82016 0.12508 0.12442 0.0
C630 C 0.84088 0.12876 0.06353 0.0
C631 C 0.8883 0.11559 0.10117 0.0
C632 C 0.92918 0.11929 0.11093 0.0
C633 C 0.96275 0.11059 0.1142 0.0
C634 C 0.9546 0.09787 0.10604 0.0
C635 C 0.91324 0.09405 0.09475 0.0
C636 C 0.87963 0.10303 0.09317 0.0
H637 H 0.88322 0.60988 0.11391 0.0
H638 H 0.75121 0.59898 0.13617 0.0
H639 H 0.72718 0.62081 0.1236 0.0
H640 H 0.87905 0.63985 0.15206 0.0
H641 H 0.91297 0.64742 0.12127 0.0
H642 H 0.91904 0.6308 0.12978 0.0
H643 H 0.90701 0.62561 0.06692 0.0
H644 H 0.90189 0.64223 0.05811 0.0
H645 H 0.8595 0.63149 0.04599 0.0
H646 H 0.7187 0.64455 0.10992 0.0
H647 H 0.72625 0.66699 0.09267 0.0
H648 H 0.8645 0.66167 0.08254 0.0
C649 C 0.84908 0.61196 0.11568 0.0
C650 C 0.81912 0.60265 0.12591 0.0
C651 C 0.77481 0.6059 0.12815 0.0
C652 C 0.76089 0.61831 0.12127 0.0
C653 C 0.79168 0.62735 0.1123 0.0
C654 C 0.83481 0.62423 0.10925 0.0
C655 C 0.8619 0.63558 0.0999 0.0
C656 C 0.89519 0.63858 0.1274 0.0
C657 C 0.88384 0.63361 0.0657 0.0
C658 C 0.82739 0.64562 0.09806 0.0
C659 C 0.78701 0.64078 0.10527 0.0
C660 C 0.75024 0.64841 0.10429 0.0
C661 C 0.75485 0.66117 0.09471 0.0
C662 C 0.79595 0.66615 0.08632 0.0
C663 C 0.83256 0.65825 0.08888 0.0
H664 H 0.63091 0.40963 0.88387 0.0
H665 H 0.4932 0.41696 0.88629 0.0
H666 H 0.47911 0.3947 0.87055 0.0
H667 H 0.62936 0.38755 0.81321 0.0
H668 H 0.67144 0.37798 0.83135 0.0
H669 H 0.66954 0.39467 0.8399 0.0
H670 H 0.6691 0.38974 0.9036 0.0
H671 H 0.66966 0.37303 0.89524 0.0
H672 H 0.62743 0.37972 0.92069 0.0
H673 H 0.48074 0.37089 0.85909 0.0
H674 H 0.49809 0.34871 0.84469 0.0
H675 H 0.63468 0.35751 0.85089 0.0
C676 C 0.59774 0.40666 0.88039 0.0
C677 C 0.56316 0.41506 0.88626 0.0
C678 C 0.52026 0.41075 0.88157 0.0
C679 C 0.51194 0.39808 0.87298 0.0
C680 C 0.54688 0.38991 0.86897 0.0
C681 C 0.58894 0.39413 0.87187 0.0
C682 C 0.62094 0.38353 0.86682 0.0
C683 C 0.64948 0.38608 0.83598 0.0
C684 C 0.64838 0.38138 0.89848 0.0
C685 C 0.59041 0.37262 0.86086 0.0
C686 C 0.5478 0.37641 0.86238 0.0
C687 C 0.51402 0.36786 0.85766 0.0
C688 C 0.52418 0.35524 0.84985 0.0
C689 C 0.56774 0.35135 0.84669 0.0
C690 C 0.60104 0.36015 0.85315 0.0
H691 H 0.69431 0.86455 0.88433 0.0
H692 H 0.62871 0.8681 0.98004 0.0
H693 H 0.63034 0.89119 0.97485 0.0
H694 H 0.76192 0.89364 0.89166 0.0
H695 H 0.75523 0.89774 0.84808 0.0
H696 H 0.75463 0.88138 0.86082 0.0
H697 H 0.67978 0.87837 0.83294 0.0
H698 H 0.68055 0.89463 0.81975 0.0
H699 H 0.63607 0.88873 0.84436 0.0
H700 H 0.63076 0.91342 0.95748 0.0
H701 H 0.6253 0.93352 0.92625 0.0
H702 H 0.69139 0.91655 0.84195 0.0
C703 C 0.681 0.87023 0.90437 0.0
C704 C 0.66144 0.86448 0.9326 0.0
C705 C 0.64364 0.87223 0.95805 0.0
C706 C 0.64479 0.8854 0.95555 0.0
C707 C 0.66384 0.89079 0.92741 0.0
C708 C 0.6814 0.88351 0.90209 0.0
C709 C 0.69567 0.89179 0.87297 0.0
C710 C 0.74479 0.8911 0.86811 0.0
C711 C 0.67157 0.88816 0.84061 0.0
C712 C 0.68206 0.90474 0.88555 0.0
C713 C 0.66448 0.90392 0.91732 0.0
C714 C 0.64542 0.91429 0.93296 0.0
C715 C 0.64264 0.92568 0.91518 0.0
C716 C 0.65917 0.92665 0.88228 0.0
C717 C 0.68033 0.91618 0.86769 0.0
H718 H 0.67161 0.84633 0.36575 0.0
H719 H 0.53995 0.83417 0.34707 0.0
H720 H 0.51456 0.85607 0.35697 0.0
H721 H 0.64872 0.8684 0.43108 0.0
H722 H 0.68976 0.87932 0.4173 0.0
H723 H 0.69591 0.86268 0.4095 0.0
H724 H 0.70509 0.86743 0.34605 0.0
H725 H 0.69791 0.88407 0.3536 0.0
H726 H 0.66352 0.87601 0.32408 0.0
H727 H 0.50445 0.87985 0.36951 0.0
H728 H 0.51039 0.90222 0.38755 0.0
H729 H 0.64941 0.89809 0.39428 0.0
C730 C 0.6373 0.84815 0.36405 0.0
C731 C 0.60778 0.83846 0.3558 0.0
C732 C 0.56322 0.8414 0.35359 0.0
C733 C 0.54854 0.85384 0.35892 0.0
C734 C 0.57887 0.86322 0.36614 0.0
C735 C 0.6223 0.86044 0.36886 0.0
C736 C 0.64872 0.87204 0.37687 0.0
C737 C 0.67213 0.87052 0.41069 0.0
C738 C 0.68069 0.87506 0.34845 0.0
C739 C 0.61343 0.88183 0.37877 0.0
C740 C 0.57328 0.87668 0.37238 0.0
C741 C 0.53582 0.88397 0.37433 0.0
C742 C 0.5395 0.89671 0.38431 0.0
C743 C 0.58036 0.90195 0.39225 0.0
C744 C 0.61767 0.89444 0.38826 0.0
H745 H 0.61373 0.35449 0.36886 0.0
H746 H 0.75131 0.34855 0.38174 0.0
H747 H 0.76377 0.37149 0.3729 0.0
H748 H 0.61889 0.37966 0.30667 0.0
H749 H 0.5735 0.38774 0.325 0.0
H750 H 0.57745 0.37081 0.32805 0.0
H751 H 0.57069 0.37249 0.39272 0.0
H752 H 0.56791 0.38945 0.38996 0.0
H753 H 0.60866 0.38209 0.41565 0.0
H754 H 0.75934 0.39585 0.36471 0.0
H755 H 0.73867 0.41833 0.35654 0.0
H756 H 0.60376 0.40727 0.355 0.0
C757 C 0.64673 0.35786 0.36906 0.0
C758 C 0.68157 0.34964 0.37572 0.0
C759 C 0.72408 0.35462 0.37631 0.0
C760 C 0.73142 0.36766 0.37153 0.0
C761 C 0.69589 0.37556 0.3665 0.0
C762 C 0.65444 0.37075 0.3651 0.0
C763 C 0.6212 0.38108 0.36155 0.0
C764 C 0.59631 0.37974 0.32834 0.0
C765 C 0.59032 0.38128 0.39177 0.0
C766 C 0.6502 0.39253 0.36128 0.0
C767 C 0.69324 0.38928 0.36379 0.0
C768 C 0.72566 0.39846 0.3629 0.0
C769 C 0.71364 0.41121 0.35848 0.0
C770 C 0.66956 0.41464 0.35556 0.0
C771 C 0.63774 0.4051 0.3577 0.0
H772 H 0.41285 0.60672 0.09189 0.0
H773 H 0.31035 0.60717 0.01747 0.0
H774 H 0.30558 0.63025 0.02228 0.0
H775 H 0.36672 0.63038 0.14431 0.0
H776 H 0.41764 0.63745 0.15557 0.0
H777 H 0.41521 0.62098 0.1446 0.0
H778 H 0.47322 0.62475 0.09887 0.0
H779 H 0.4752 0.64131 0.10935 0.0
H780 H 0.46397 0.6365 0.06689 0.0
H781 H 0.30835 0.65287 0.03661 0.0
H782 H 0.31379 0.67366 0.0642 0.0
H783 H 0.41475 0.65922 0.12907 0.0
C784 C 0.38953 0.61168 0.07654 0.0
C785 C 0.36211 0.60508 0.05421 0.0
C786 C 0.33177 0.61195 0.03479 0.0
C787 C 0.32899 0.62511 0.0371 0.0
C788 C 0.35674 0.63134 0.05895 0.0
C789 C 0.38613 0.62489 0.07864 0.0
C790 C 0.40998 0.6339 0.10175 0.0
C791 C 0.40188 0.63047 0.13874 0.0
C792 C 0.45847 0.63413 0.09372 0.0
C793 C 0.38867 0.64633 0.09238 0.0
C794 C 0.3585 0.64461 0.06726 0.0
C795 C 0.33228 0.65441 0.05595 0.0
C796 C 0.33571 0.66619 0.07164 0.0
C797 C 0.3652 0.66808 0.09826 0.0
C798 C 0.39296 0.65813 0.10802 0.0
H799 H 0.39098 0.1587 0.09357 0.0
H800 H 0.25434 0.16649 0.10523 0.0
H801 H 0.24188 0.14403 0.12019 0.0
H802 H 0.37876 0.12994 0.05292 0.0
H803 H 0.42488 0.12255 0.07227 0.0
H804 H 0.42373 0.13942 0.06672 0.0
H805 H 0.43623 0.1428 0.13038 0.0
H806 H 0.43871 0.12593 0.13602 0.0
H807 H 0.40098 0.13515 0.16012 0.0
H808 H 0.24483 0.11998 0.13014 0.0
H809 H 0.26373 0.09746 0.13875 0.0
H810 H 0.39766 0.10616 0.11648 0.0
C811 C 0.35846 0.15581 0.09995 0.0
C812 C 0.32364 0.16439 0.0983 0.0
C813 C 0.28161 0.16013 0.10666 0.0
C814 C 0.2742 0.14736 0.1149 0.0
C815 C 0.30915 0.13904 0.11462 0.0
C816 C 0.35051 0.14319 0.10774 0.0
C817 C 0.38251 0.13245 0.10747 0.0
C818 C 0.40369 0.13101 0.07278 0.0
C819 C 0.4166 0.13418 0.13515 0.0
C820 C 0.3528 0.12151 0.11504 0.0
C821 C 0.31061 0.12542 0.11924 0.0
C822 C 0.2778 0.11685 0.12694 0.0
C823 C 0.28879 0.10406 0.13151 0.0
C824 C 0.33217 0.09998 0.12814 0.0
C825 C 0.36413 0.10886 0.11901 0.0
H826 H 0.37692 0.10308 0.57866 0.0
H827 H 0.51003 0.09426 0.60321 0.0
H828 H 0.52206 0.11661 0.61921 0.0
H829 H 0.3969 0.13282 0.54151 0.0
H830 H 0.34852 0.14003 0.55762 0.0
H831 H 0.34989 0.12328 0.54994 0.0
H832 H 0.32782 0.11877 0.61154 0.0
H833 H 0.32535 0.13552 0.61918 0.0
H834 H 0.35888 0.12562 0.64518 0.0
H835 H 0.51936 0.14046 0.63062 0.0
H836 H 0.50026 0.16278 0.64169 0.0
H837 H 0.36961 0.15539 0.60753 0.0
C838 C 0.40855 0.10575 0.5878 0.0
C839 C 0.44252 0.09688 0.58971 0.0
C840 C 0.48339 0.10085 0.60174 0.0
C841 C 0.49061 0.11355 0.61063 0.0
C842 C 0.45665 0.12212 0.60732 0.0
C843 C 0.41631 0.11831 0.59656 0.0
C844 C 0.38507 0.12924 0.59494 0.0
C845 C 0.36918 0.13147 0.55886 0.0
C846 C 0.34705 0.12716 0.61916 0.0
C847 C 0.41399 0.13987 0.60654 0.0
C848 C 0.45524 0.13565 0.61345 0.0
C849 C 0.48714 0.14384 0.62525 0.0
C850 C 0.47608 0.15653 0.63121 0.0
C851 C 0.43344 0.16089 0.62543 0.0
C852 C 0.40256 0.15245 0.61209 0.0
H853 H 0.43239 0.65484 0.58369 0.0
H854 H 0.29772 0.66344 0.60271 0.0
H855 H 0.28603 0.64144 0.62188 0.0
H856 H 0.41668 0.62507 0.54993 0.0
H857 H 0.46387 0.61797 0.56846 0.0
H858 H 0.46301 0.63467 0.55995 0.0
H859 H 0.48045 0.63957 0.62217 0.0
H860 H 0.48254 0.62286 0.63072 0.0
H861 H 0.44715 0.63287 0.65474 0.0
H862 H 0.28786 0.61777 0.633 0.0
H863 H 0.30512 0.59525 0.64264 0.0
H864 H 0.4387 0.60258 0.61605 0.0
C865 C 0.40062 0.65221 0.59263 0.0
C866 C 0.36595 0.66085 0.59173 0.0
C867 C 0.32486 0.657 0.6035 0.0
C868 C 0.31785 0.6445 0.61416 0.0
C869 C 0.35238 0.63606 0.61319 0.0
C870 C 0.39316 0.63984 0.60339 0.0
C871 C 0.42464 0.62893 0.60362 0.0
C872 C 0.44311 0.62652 0.56839 0.0
C873 C 0.46082 0.63119 0.62935 0.0
C874 C 0.39509 0.61833 0.6145 0.0
C875 C 0.3535 0.62258 0.61982 0.0
C876 C 0.32043 0.61438 0.62925 0.0
C877 C 0.33048 0.60157 0.63436 0.0
C878 C 0.37329 0.59713 0.63013 0.0
C879 C 0.40568 0.60565 0.61955 0.0
H880 H 0.47427 0.32838 0.35738 0.0
H881 H 0.50252 0.28851 0.36938 0.0
H882 H 0.42884 0.28324 0.34927 0.0
H883 H 0.36814 0.32762 0.38588 0.0
H884 H 0.3481 0.33905 0.35619 0.0
H885 H 0.40376 0.3395 0.36893 0.0
H886 H 0.42806 0.33795 0.30688 0.0
H887 H 0.37239 0.33764 0.29387 0.0
H888 H 0.4084 0.32517 0.28123 0.0
H889 H 0.34841 0.28275 0.33348 0.0
H890 H 0.27199 0.28697 0.31855 0.0
H891 H 0.29975 0.32713 0.31476 0.0
C892 C 0.46523 0.31852 0.35532 0.0
C893 C 0.49398 0.30884 0.36499 0.0
C894 C 0.48101 0.29606 0.36188 0.0
C895 C 0.4392 0.293 0.35062 0.0
C896 C 0.41122 0.30283 0.34207 0.0
C897 C 0.42412 0.31533 0.34375 0.0
C898 C 0.3881 0.32421 0.33387 0.0
C899 C 0.37635 0.33311 0.36295 0.0
C900 C 0.39996 0.33168 0.30207 0.0
C901 C 0.35243 0.31481 0.32708 0.0
C902 C 0.3661 0.30252 0.33199 0.0
C903 C 0.33765 0.29233 0.32904 0.0
C904 C 0.29431 0.29481 0.32069 0.0
C905 C 0.28007 0.30735 0.31514 0.0
C906 C 0.30975 0.31741 0.31828 0.0
H907 H 0.9494 0.92859 0.38651 0.0
H908 H 0.96174 0.96925 0.37677 0.0
H909 H 0.88849 0.97187 0.4009 0.0
H910 H 0.8419 0.9261 0.36328 0.0
H911 H 0.82848 0.91382 0.39286 0.0
H912 H 0.88291 0.91531 0.37772 0.0
H913 H 0.91117 0.9171 0.43872 0.0
H914 H 0.85679 0.91547 0.45413 0.0
H915 H 0.8889 0.92893 0.46619 0.0
H916 H 0.8098 0.96958 0.41954 0.0
H917 H 0.73629 0.96275 0.43636 0.0
H918 H 0.77886 0.92373 0.43666 0.0
C919 C 0.93699 0.93807 0.38996 0.0
C920 C 0.96104 0.94873 0.37974 0.0
C921 C 0.94384 0.96097 0.38469 0.0
C922 C 0.90226 0.96253 0.39823 0.0
C923 C 0.87888 0.95176 0.40726 0.0
C924 C 0.8961 0.93978 0.4039 0.0
C925 C 0.86439 0.92968 0.4146 0.0
C926 C 0.85381 0.92071 0.38537 0.0
C927 C 0.88133 0.92237 0.44524 0.0
C928 C 0.82605 0.93779 0.42367 0.0
C929 C 0.83478 0.9505 0.41923 0.0
C930 C 0.80295 0.95967 0.42374 0.0
C931 C 0.76129 0.95572 0.43314 0.0
C932 C 0.75211 0.94274 0.43823 0.0
C933 C 0.78513 0.93374 0.43363 0.0
H934 H 0.44987 0.94139 0.89327 0.0
H935 H 0.45082 0.97701 0.83949 0.0
H936 H 0.37567 0.98109 0.85822 0.0
H937 H 0.34477 0.93245 0.87497 0.0
H938 H 0.3337 0.92562 0.91549 0.0
H939 H 0.38816 0.92614 0.90001 0.0
H940 H 0.41265 0.93815 0.95335 0.0
H941 H 0.35824 0.93757 0.96919 0.0
H942 H 0.38555 0.95254 0.9651 0.0
H943 H 0.29655 0.97965 0.87754 0.0
H944 H 0.22448 0.97392 0.90021 0.0
H945 H 0.27921 0.94 0.94404 0.0
C946 C 0.43451 0.95015 0.88585 0.0
C947 C 0.45591 0.95888 0.86488 0.0
C948 C 0.43492 0.97025 0.85576 0.0
C949 C 0.39226 0.97261 0.86618 0.0
C950 C 0.37163 0.96362 0.88627 0.0
C951 C 0.39255 0.95274 0.89653 0.0
C952 C 0.3635 0.94441 0.9175 0.0
C953 C 0.35717 0.93139 0.90099 0.0
C954 C 0.38103 0.94309 0.95342 0.0
C955 C 0.32243 0.95208 0.91674 0.0
C956 C 0.32744 0.96311 0.89855 0.0
C957 C 0.2926 0.97116 0.89242 0.0
C958 C 0.25179 0.96783 0.90527 0.0
C959 C 0.24643 0.95663 0.92431 0.0
C960 C 0.28243 0.94878 0.93024 0.0
H961 H 0.77839 0.33391 0.8194 0.0
H962 H 0.7473 0.29394 0.82079 0.0
H963 H 0.822 0.28914 0.83937 0.0
H964 H 0.88851 0.33138 0.79092 0.0
H965 H 0.90732 0.34395 0.81768 0.0
H966 H 0.85253 0.34401 0.80258 0.0
H967 H 0.82427 0.3453 0.86367 0.0
H968 H 0.87893 0.34534 0.87892 0.0
H969 H 0.84129 0.33361 0.89383 0.0
H970 H 0.90158 0.28899 0.85767 0.0
H971 H 0.9749 0.29364 0.87966 0.0
H972 H 0.95015 0.33376 0.86897 0.0
C973 C 0.78734 0.32412 0.82329 0.0
C974 C 0.75726 0.31427 0.81833 0.0
C975 C 0.76997 0.30162 0.82437 0.0
C976 C 0.81233 0.29882 0.83475 0.0
C977 C 0.84128 0.30879 0.83932 0.0
C978 C 0.829 0.3212 0.83414 0.0
C979 C 0.86493 0.33031 0.84272 0.0
C980 C 0.87916 0.33785 0.81161 0.0
C981 C 0.85155 0.33915 0.8715 0.0
C982 C 0.89947 0.32113 0.85373 0.0
C983 C 0.8857 0.30874 0.85114 0.0
C984 C 0.91257 0.29867 0.85987 0.0
C985 C 0.95416 0.30138 0.87217 0.0
C986 C 0.96799 0.31404 0.87614 0.0
C987 C 0.94034 0.32398 0.8664 0.0
H988 H 0.70149 0.69313 0.63821 0.0
H989 H 0.77276 0.70864 0.55419 0.0
H990 H 0.70404 0.71143 0.52286 0.0
H991 H 0.62522 0.67585 0.59321 0.0
H992 H 0.58091 0.67926 0.62102 0.0
H993 H 0.63527 0.67922 0.63682 0.0
H994 H 0.62524 0.70209 0.65871 0.0
H995 H 0.57073 0.7022 0.64295 0.0
H996 H 0.60818 0.71433 0.63015 0.0
H997 H 0.62757 0.70991 0.49876 0.0
H998 H 0.55009 0.70605 0.4861 0.0
H999 H 0.52966 0.69343 0.58813 0.0
C1000 C 0.70259 0.69722 0.61331 0.0
C1001 C 0.74224 0.70059 0.59838 0.0
C1002 C 0.74254 0.70603 0.56597 0.0
C1003 C 0.70374 0.70762 0.54806 0.0
C1004 C 0.66509 0.70402 0.5634 0.0
C1005 C 0.66432 0.69915 0.59558 0.0
C1006 C 0.61895 0.69588 0.60656 0.0
C1007 C 0.61488 0.68171 0.61487 0.0
C1008 C 0.60496 0.70412 0.63635 0.0
C1009 C 0.59421 0.69927 0.57516 0.0
C1010 C 0.62126 0.70391 0.55041 0.0
C1011 C 0.606 0.70659 0.51822 0.0
C1012 C 0.56214 0.70439 0.51122 0.0
C1013 C 0.53423 0.69979 0.53647 0.0
C1014 C 0.55035 0.69734 0.56881 0.0
H1015 H 0.09718 0.06281 0.65655 0.0
H1016 H 0.02432 0.05262 0.56773 0.0
H1017 H 0.09278 0.04948 0.53668 0.0
H1018 H 0.17895 0.08003 0.61679 0.0
H1019 H 0.22167 0.07459 0.64387 0.0
H1020 H 0.16714 0.07525 0.65922 0.0
H1021 H 0.17087 0.05151 0.67509 0.0
H1022 H 0.22549 0.05078 0.65972 0.0
H1023 H 0.18526 0.04007 0.64358 0.0
H1024 H 0.16914 0.05008 0.51392 0.0
H1025 H 0.24725 0.05277 0.50241 0.0
H1026 H 0.27008 0.06071 0.60738 0.0
C1027 C 0.09561 0.05979 0.63064 0.0
C1028 C 0.05551 0.05801 0.61442 0.0
C1029 C 0.05474 0.05399 0.5806 0.0
C1030 C 0.09343 0.0522 0.56282 0.0
C1031 C 0.13248 0.0542 0.57949 0.0
C1032 C 0.13379 0.05772 0.61282 0.0
C1033 C 0.17975 0.05951 0.62487 0.0
C1034 C 0.1873 0.07316 0.63688 0.0
C1035 C 0.19099 0.04989 0.65245 0.0
C1036 C 0.20426 0.0568 0.59287 0.0
C1037 C 0.17642 0.05379 0.56692 0.0
C1038 C 0.19127 0.05209 0.53423 0.0
C1039 C 0.23555 0.05362 0.52791 0.0
C1040 C 0.26441 0.05657 0.55423 0.0
C1041 C 0.24868 0.05801 0.58714 0.0
H1042 H 0.54016 0.07853 0.09167 0.0
H1043 H 0.51353 0.03926 0.11496 0.0
H1044 H 0.58602 0.03335 0.09386 0.0
H1045 H 0.60361 0.07237 0.01431 0.0
H1046 H 0.63962 0.08537 0.02282 0.0
H1047 H 0.58425 0.08607 0.03648 0.0
H1048 H 0.6101 0.09019 0.09731 0.0
H1049 H 0.66544 0.08933 0.08399 0.0
H1050 H 0.64633 0.07912 0.11704 0.0
H1051 H 0.66582 0.03246 0.07792 0.0
H1052 H 0.74227 0.03628 0.06239 0.0
H1053 H 0.71354 0.07594 0.04649 0.0
C1054 C 0.54921 0.06864 0.09162 0.0
C1055 C 0.52139 0.05933 0.1049 0.0
C1056 C 0.53431 0.04651 0.10456 0.0
C1057 C 0.57546 0.04309 0.09278 0.0
C1058 C 0.60272 0.05259 0.08081 0.0
C1059 C 0.58964 0.06507 0.07945 0.0
C1060 C 0.62522 0.07359 0.0666 0.0
C1061 C 0.6124 0.07971 0.03306 0.0
C1062 C 0.63748 0.08365 0.09281 0.0
C1063 C 0.66095 0.06404 0.06196 0.0
C1064 C 0.64758 0.05197 0.07032 0.0
C1065 C 0.67631 0.04182 0.07058 0.0
C1066 C 0.71966 0.04408 0.06191 0.0
C1067 C 0.73359 0.05636 0.0528 0.0
C1068 C 0.70363 0.06639 0.05262 0.0
H1069 H 0.99546 0.68729 0.05677 0.0
H1070 H 0.96001 0.72659 0.07015 0.0
H1071 H 0.03384 0.73118 0.09126 0.0
H1072 H 0.05687 0.68468 0.13147 0.0
H1073 H 0.09589 0.67408 0.11336 0.0
H1074 H 0.04147 0.67434 0.09763 0.0
H1075 H 0.07036 0.67874 0.0377 0.0
H1076 H 0.1249 0.67855 0.05329 0.0
H1077 H 0.10527 0.69212 0.03056 0.0
H1078 H 0.11339 0.73113 0.11076 0.0
H1079 H 0.18723 0.7261 0.13115 0.0
H1080 H 0.16613 0.68663 0.10706 0.0
C1081 C 1.00322 0.69691 0.06379 0.0
C1082 C 0.97222 0.70662 0.06148 0.0
C1083 C 0.98344 0.71902 0.07161 0.0
C1084 C 0.02527 0.72171 0.0835 0.0
C1085 C 0.05514 0.71185 0.0854 0.0
C1086 C 0.04427 0.69968 0.07609 0.0
C1087 C 0.08089 0.69055 0.08206 0.0
C1088 C 0.068 0.68031 0.10766 0.0
C1089 C 0.09626 0.68465 0.04893 0.0
C1090 C 0.1143 0.69943 0.09629 0.0
C1091 C 0.09936 0.71173 0.0977 0.0
C1092 C 0.12525 0.72153 0.10984 0.0
C1093 C 0.16712 0.71861 0.12125 0.0
C1094 C 0.18215 0.70598 0.12088 0.0
C1095 C 0.15538 0.69636 0.10795 0.0
H1096 H 0.50947 0.82138 0.88984 0.0
H1097 H 0.48549 0.80938 -0.00798 0.0
H1098 H 0.41168 0.80258 0.97605 0.0
H1099 H 0.40765 0.83537 0.87929 0.0
H1100 H 0.40262 0.83136 0.83555 0.0
H1101 H 0.45522 0.83337 0.85385 0.0
H1102 H 0.4766 0.8109 0.83411 0.0
H1103 H 0.42386 0.80881 0.81586 0.0
H1104 H 0.44377 0.79756 0.8461 0.0
H1105 H 0.33947 0.79773 0.94886 0.0
H1106 H 0.27203 0.79822 0.9153 0.0
H1107 H 0.3417 0.81553 0.83295 0.0
C1108 C 0.48888 0.81706 0.90859 0.0
C1109 C 0.50308 0.81565 0.94195 0.0
C1110 C 0.47502 0.8104 0.96624 0.0
C1111 C 0.43327 0.80646 0.95734 0.0
C1112 C 0.41994 0.80808 0.9242 0.0
C1113 C 0.44673 0.81345 0.90034 0.0
C1114 C 0.42307 0.81562 0.86764 0.0
C1115 C 0.42207 0.82977 0.85858 0.0
C1116 C 0.44302 0.80775 0.83925 0.0
C1117 C 0.37867 0.81078 0.8769 0.0
C1118 C 0.37771 0.80614 0.9093 0.0
C1119 C 0.33989 0.80131 0.92343 0.0
C1120 C 0.30185 0.80156 0.9042 0.0
C1121 C 0.30192 0.8069 0.87168 0.0
C1122 C 0.34093 0.81137 0.85778 0.0
H1123 H 0.7708 0.43401 0.92691 0.0
H1124 H 0.73422 0.47352 0.92212 0.0
H1125 H 0.80941 0.47918 0.90677 0.0
H1126 H 0.8787 0.43823 0.96006 0.0
H1127 H 0.90102 0.42574 0.93478 0.0
H1128 H 0.84538 0.42505 0.94772 0.0
H1129 H 0.82135 0.42294 0.88569 0.0
H1130 H 0.87686 0.42352 0.87261 0.0
H1131 H 0.83858 0.43463 0.85558 0.0
H1132 H 0.88974 0.48025 0.89124 0.0
H1133 H 0.96459 0.47644 0.87159 0.0
H1134 H 0.94536 0.43611 0.88414 0.0
C1135 C 0.77864 0.44388 0.92303 0.0
C1136 C 0.74683 0.45335 0.92604 0.0
C1137 C 0.7582 0.46612 0.92005 0.0
C1138 C 0.80083 0.46942 0.91148 0.0
C1139 C 0.83147 0.45981 0.90873 0.0
C1140 C 0.82062 0.44728 0.91401 0.0
C1141 C 0.85836 0.43861 0.90736 0.0
C1142 C 0.87165 0.43149 0.93939 0.0
C1143 C 0.84817 0.42939 0.8786 0.0
C1144 C 0.89222 0.44816 0.8972 0.0
C1145 C 0.87653 0.46037 0.89862 0.0
C1146 C 0.90228 0.47072 0.89005 0.0
C1147 C 0.94476 0.46849 0.87907 0.0
C1148 C 0.96063 0.45599 0.87626 0.0
C1149 C 0.93407 0.44577 0.88592 0.0
H1150 H 0.45803 0.43063 0.38223 0.0
H1151 H 0.47365 0.47108 0.36971 0.0
H1152 H 0.39945 0.47438 0.39136 0.0
H1153 H 0.35047 0.42853 0.35658 0.0
H1154 H 0.33535 0.41667 0.38687 0.0
H1155 H 0.39028 0.41765 0.3725 0.0
H1156 H 0.41711 0.41993 0.43377 0.0
H1157 H 0.36225 0.41879 0.4484 0.0
H1158 H 0.39499 0.43219 0.45996 0.0
H1159 H 0.31987 0.47277 0.40871 0.0
H1160 H 0.24594 0.46662 0.42638 0.0
H1161 H 0.28584 0.42739 0.43048 0.0
C1162 C 0.4461 0.4402 0.38449 0.0
C1163 C 0.47145 0.45061 0.37425 0.0
C1164 C 0.45478 0.46299 0.37765 0.0
C1165 C 0.41264 0.46494 0.38975 0.0
C1166 C 0.38806 0.45441 0.39887 0.0
C1167 C 0.40462 0.4423 0.39697 0.0
C1168 C 0.37189 0.43253 0.40795 0.0
C1169 C 0.36139 0.42331 0.37926 0.0
C1170 C 0.38749 0.42545 0.43939 0.0
C1171 C 0.33389 0.44097 0.41576 0.0
C1172 C 0.34352 0.45356 0.41016 0.0
C1173 C 0.31229 0.46296 0.41373 0.0
C1174 C 0.27039 0.45939 0.4236 0.0
C1175 C 0.26041 0.44657 0.43019 0.0
C1176 C 0.29273 0.4373 0.42623 0.0
H1177 H 0.82444 0.8245 0.38645 0.0
H1178 H 0.81008 0.78397 0.37518 0.0
H1179 H 0.88501 0.78097 0.39561 0.0
H1180 H 0.93003 0.82695 0.35832 0.0
H1181 H 0.94623 0.83891 0.38789 0.0
H1182 H 0.89064 0.83771 0.37528 0.0
H1183 H 0.86714 0.83541 0.43736 0.0
H1184 H 0.92268 0.83679 0.45025 0.0
H1185 H 0.89119 0.82329 0.46308 0.0
H1186 H 0.9652 0.78289 0.41073 0.0
H1187 H 0.03992 0.78937 0.4253 0.0
H1188 H 0.99862 0.82848 0.42938 0.0
C1189 C 0.83676 0.81497 0.38886 0.0
C1190 C 0.81159 0.80446 0.37923 0.0
C1191 C 0.8288 0.79214 0.38271 0.0
C1192 C 0.87136 0.79036 0.39412 0.0
C1193 C 0.8958 0.80099 0.40251 0.0
C1194 C 0.87869 0.81303 0.40067 0.0
C1195 C 0.91154 0.82295 0.4104 0.0
C1196 C 0.9201 0.83216 0.38123 0.0
C1197 C 0.89728 0.83002 0.44217 0.0
C1198 C 0.95028 0.81467 0.4172 0.0
C1199 C 0.94084 0.80203 0.41242 0.0
C1200 C 0.97267 0.79274 0.41515 0.0
C1201 C 0.01501 0.7965 0.42325 0.0
C1202 C 0.02489 0.80939 0.42886 0.0
C1203 C 0.99192 0.81852 0.42586 0.0
H1204 H 0.69725 0.17861 0.11106 0.0
H1205 H 0.72573 0.21798 0.13134 0.0
H1206 H 0.65363 0.22397 0.10932 0.0
H1207 H 0.63763 0.18408 0.03302 0.0
H1208 H 0.60031 0.17139 0.04151 0.0
H1209 H 0.65479 0.17056 0.05713 0.0
H1210 H 0.62546 0.1674 0.11744 0.0
H1211 H 0.57096 0.16833 0.10209 0.0
H1212 H 0.58878 0.17887 0.13475 0.0
H1213 H 0.57445 0.22512 0.09011 0.0
H1214 H 0.49926 0.22152 0.07075 0.0
H1215 H 0.52644 0.18151 0.06064 0.0
C1216 C 0.68857 0.18852 0.11053 0.0
C1217 C 0.7169 0.19784 0.123 0.0
C1218 C 0.70449 0.2107 0.12172 0.0
C1219 C 0.66359 0.21418 0.10938 0.0
C1220 C 0.63599 0.20467 0.0979 0.0
C1221 C 0.64842 0.19213 0.09786 0.0
C1222 C 0.61306 0.18365 0.0846 0.0
C1223 C 0.62731 0.17704 0.05213 0.0
C1224 C 0.59873 0.174 0.11132 0.0
C1225 C 0.57827 0.19331 0.07784 0.0
C1226 C 0.59178 0.2054 0.08574 0.0
C1227 C 0.56386 0.21571 0.08333 0.0
C1228 C 0.52122 0.21359 0.07244 0.0
C1229 C 0.50721 0.20127 0.06381 0.0
C1230 C 0.53636 0.19108 0.06645 0.0
H1231 H 0.22531 0.5648 0.09526 0.0
H1232 H 0.19922 0.54825 -0.00187 0.0
H1233 H 0.12184 0.54618 0.013 0.0
H1234 H 0.14263 0.54755 0.14494 0.0
H1235 H 0.12934 0.56142 0.16897 0.0
H1236 H 0.18331 0.55935 0.15311 0.0
H1237 H 0.17859 0.58112 0.12348 0.0
H1238 H 0.12458 0.58322 0.13895 0.0
H1239 H 0.13504 0.58413 0.09456 0.0
H1240 H 0.04618 0.54711 0.03776 0.0
H1241 H 0.97873 0.55283 0.06774 0.0
H1242 H 0.0545 0.57095 0.1454 0.0
C1243 C 0.20346 0.56033 0.07769 0.0
C1244 C 0.2181 0.55633 0.04599 0.0
C1245 C 0.18847 0.55111 0.02282 0.0
C1246 C 0.14459 0.5499 0.03107 0.0
C1247 C 0.13082 0.55421 0.06233 0.0
C1248 C 0.15941 0.55943 0.08514 0.0
C1249 C 0.13592 0.56487 0.11507 0.0
C1250 C 0.14855 0.55788 0.14744 0.0
C1251 C 0.14401 0.57918 0.11817 0.0
C1252 C 0.08968 0.56209 0.10535 0.0
C1253 C 0.0873 0.55566 0.07528 0.0
C1254 C 0.04771 0.55214 0.06135 0.0
C1255 C 0.00962 0.5554 0.07847 0.0
C1256 C 0.0116 0.5624 0.1086 0.0
C1257 C 0.05214 0.56568 0.1222 0.0
H1258 H 0.75518 0.58029 0.56644 0.0
H1259 H 0.78372 0.5405 0.55335 0.0
H1260 H 0.70777 0.53521 0.56757 0.0
H1261 H 0.68884 0.57621 0.6382 0.0
H1262 H 0.65281 0.58891 0.62715 0.0
H1263 H 0.70813 0.58934 0.61354 0.0
H1264 H 0.68264 0.59174 0.55191 0.0
H1265 H 0.62718 0.59119 0.56533 0.0
H1266 H 0.6464 0.58017 0.53434 0.0
H1267 H 0.62737 0.53457 0.58313 0.0
H1268 H 0.55368 0.5384 0.60532 0.0
H1269 H 0.58156 0.57849 0.61126 0.0
C1270 C 0.74539 0.57046 0.56622 0.0
C1271 C 0.77502 0.5608 0.55842 0.0
C1272 C 0.76132 0.54803 0.55917 0.0
C1273 C 0.71827 0.54496 0.56702 0.0
C1274 C 0.68973 0.55477 0.57446 0.0
C1275 C 0.70307 0.56724 0.57458 0.0
C1276 C 0.66743 0.57601 0.58573 0.0
C1277 C 0.68006 0.58302 0.61808 0.0
C1278 C 0.6552 0.58532 0.55764 0.0
C1279 C 0.63179 0.56655 0.59201 0.0
C1280 C 0.64481 0.55436 0.58485 0.0
C1281 C 0.61695 0.54409 0.58886 0.0
C1282 C 0.57515 0.54634 0.60127 0.0
C1283 C 0.56217 0.55872 0.61006 0.0
C1284 C 0.59074 0.56891 0.60486 0.0
H1285 H 0.04981 0.18035 0.55264 0.0
H1286 H 0.01915 0.22026 0.55863 0.0
H1287 H 0.09494 0.22482 0.57476 0.0
H1288 H 0.11383 0.17952 0.62447 0.0
H1289 H 0.15129 0.16803 0.60829 0.0
H1290 H 0.09661 0.1683 0.59322 0.0
H1291 H 0.12438 0.1706 0.53218 0.0
H1292 H 0.17927 0.17036 0.54711 0.0
H1293 H 0.16057 0.18336 0.52172 0.0
H1294 H 0.1744 0.22463 0.59321 0.0
H1295 H 0.24671 0.21954 0.61636 0.0
H1296 H 0.22178 0.17967 0.60058 0.0
C1297 C 0.05912 0.1901 0.55663 0.0
C1298 C 0.02872 0.19998 0.55395 0.0
C1299 C 0.04204 0.21256 0.56028 0.0
C1300 C 0.08503 0.21523 0.56935 0.0
C1301 C 0.11408 0.2052 0.57216 0.0
C1302 C 0.10144 0.19288 0.56612 0.0
C1303 C 0.13727 0.18362 0.57366 0.0
C1304 C 0.12394 0.17433 0.60157 0.0
C1305 C 0.15119 0.17658 0.54176 0.0
C1306 C 0.17202 0.1926 0.58546 0.0
C1307 C 0.15855 0.20503 0.58389 0.0
C1308 C 0.18524 0.21492 0.59436 0.0
C1309 C 0.22628 0.21196 0.60736 0.0
C1310 C 0.23971 0.19922 0.6103 0.0
C1311 C 0.21237 0.1895 0.59868 0.0
H1312 H 0.92827 0.23374 0.2076 0.0
H1313 H 0.04066 0.20943 0.21375 0.0
H1314 H 0.08067 0.22631 0.24317 0.0
H1315 H 0.98629 0.26357 0.19575 0.0
H1316 H 0.94877 0.2723 0.22129 0.0
H1317 H 0.93071 0.25862 0.19843 0.0
H1318 H 0.90221 0.24887 0.25385 0.0
H1319 H 0.92107 0.26239 0.27698 0.0
H1320 H 0.93867 0.24676 0.28865 0.0
H1321 H 0.10772 0.24571 0.27357 0.0
H1322 H 0.12078 0.26657 0.29967 0.0
H1323 H 0.98933 0.2776 0.2761 0.0
C1324 C 0.96163 0.23208 0.2144 0.0
C1325 C 0.98153 0.22033 0.20807 0.0
C1326 C 0.0249 0.21841 0.21814 0.0
C1327 C 0.04782 0.22792 0.235 0.0
C1328 C 0.0268 0.23925 0.24185 0.0
C1329 C 0.98479 0.24141 0.23165 0.0
C1330 C 0.96914 0.25424 0.2431 0.0
C1331 C 0.9581 0.26268 0.21284 0.0
C1332 C 0.93049 0.25298 0.26707 0.0
C1333 C 0.00887 0.25896 0.26132 0.0
C1334 C 0.04185 0.2502 0.26029 0.0
C1335 C 0.08208 0.25263 0.27463 0.0
C1336 C 0.08913 0.26447 0.28958 0.0
C1337 C 0.05599 0.27367 0.29029 0.0
C1338 C 0.01514 0.27071 0.27653 0.0
H1339 H 0.24482 0.97903 0.26694 0.0
H1340 H 0.13954 0.99461 0.32554 0.0
H1341 H 0.15378 0.01567 0.30103 0.0
H1342 H 0.31601 0.00659 0.27175 0.0
H1343 H 0.33508 1.00454 0.22942 0.0
H1344 H 0.31824 0.99102 0.25358 0.0
H1345 H 0.26446 0.98502 0.20641 0.0
H1346 H 0.28033 0.99871 0.18247 0.0
H1347 H 0.22441 0.99633 0.19322 0.0
H1348 H 0.17667 0.0347 0.26756 0.0
H1349 H 0.21175 0.05094 0.23247 0.0
H1350 H 0.30147 0.02282 0.19504 0.0
C1351 C 0.22531 0.98691 0.27524 0.0
C1352 C 0.19116 0.98517 0.29835 0.0
C1353 C 0.16607 0.99572 0.30811 0.0
C1354 C 0.17372 0.0077 0.29413 0.0
C1355 C 0.20655 0.00896 0.27045 0.0
C1356 C 0.23236 0.9989 0.26145 0.0
C1357 C 0.26502 1.00271 0.235 0.0
C1358 C 0.31133 1.00112 0.24824 0.0
C1359 C 0.25812 0.99525 0.20235 0.0
C1360 C 0.25352 0.01651 0.23044 0.0
C1361 C 0.21956 0.0199 0.25101 0.0
C1362 C 0.20338 0.03216 0.25146 0.0
C1363 C 0.22338 0.0413 0.23125 0.0
C1364 C 0.25926 0.03815 0.21086 0.0
C1365 C 0.27381 0.02551 0.20999 0.0
H1366 H 0.01145 0.0243 0.03305 0.0
H1367 H 0.87183 0.02081 0.03215 0.0
H1368 H 0.878 1.0013 -0.00141 0.0
H1369 H 0.02851 0.01503 0.95009 0.0
H1370 H 0.07731 0.00628 0.95808 0.0
H1371 H 0.06278 0.01928 0.98484 0.0
H1372 H 0.06559 1.00477 0.03726 0.0
H1373 H 0.08173 0.99184 0.01082 0.0
H1374 H 0.03512 0.99024 0.03752 0.0
H1375 H 0.8994 0.98292 0.96182 0.0
H1376 H 0.93482 0.96528 0.93218 0.0
H1377 H 0.06012 0.98134 0.95577 0.0
C1378 C 0.98215 0.01926 0.02667 0.0
C1379 C 0.94113 0.02408 0.03542 0.0
C1380 C 0.90364 0.01726 0.02602 0.0
C1381 C 0.90679 0.00623 0.00665 0.0
C1382 C 0.94764 1.00214 -0.00307 0.0
C1383 C 0.98469 0.0083 0.00721 0.0
C1384 C 0.02468 1.00208 -0.007 0.0
C1385 C 0.04978 0.01122 0.97015 0.0
C1386 C 0.05346 0.99692 0.02133 0.0
C1387 C 0.00436 0.99149 0.97296 0.0
C1388 C 0.95989 0.99172 0.9754 0.0
C1389 C 0.93421 0.98265 0.95978 0.0
C1390 C 0.95462 0.97272 0.9427 0.0
C1391 C 1.00025 0.97196 0.94137 0.0
C1392 C 0.02521 0.98175 0.95571 0.0
H1393 H 0.22191 0.23088 0.01938 0.0
H1394 H 0.35473 0.2392 0.04613 0.0
H1395 H 0.34724 0.26052 0.02127 0.0
H1396 H 0.22426 0.24563 0.94035 0.0
H1397 H 0.16992 0.25163 0.94236 0.0
H1398 H 0.18408 0.23748 0.96493 0.0
H1399 H 0.15752 0.2474 0.02059 0.0
H1400 H 0.14225 0.26147 -0.00194 0.0
H1401 H 0.17833 0.26256 0.03341 0.0
H1402 H 0.32593 0.28061 0.99125 0.0
H1403 H 0.29088 0.2985 0.96217 0.0
H1404 H 0.17319 0.27652 0.95285 0.0
C1405 C 0.24916 0.23728 0.0208 0.0
C1406 C 0.28882 0.23341 0.03503 0.0
C1407 C 0.32392 0.242 0.03565 0.0
C1408 C 0.32005 0.25409 0.0214 0.0
C1409 C 0.28095 0.25741 0.00647 0.0
C1410 C 0.246 0.2493 0.00637 0.0
C1411 C 0.20803 0.25497 0.98776 0.0
C1412 C 0.19588 0.24695 0.95703 0.0
C1413 C 0.16925 0.25671 0.01137 0.0
C1414 C 0.22705 0.26756 0.97732 0.0
C1415 C 0.26913 0.26879 0.98837 0.0
C1416 C 0.29302 0.27973 0.98245 0.0
C1417 C 0.27292 0.28981 0.96573 0.0
C1418 C 0.22947 0.28886 0.95491 0.0
C1419 C 0.20668 0.27746 0.96021 0.0
H1420 H 0.02393 0.72689 0.714 0.0
H1421 H 0.91258 0.74169 0.66081 0.0
H1422 H 0.92591 0.76271 0.68558 0.0
H1423 H 0.0073 0.74341 0.78914 0.0
H1424 H 0.06359 0.74639 0.7974 0.0
H1425 H 0.04781 0.73272 0.77354 0.0
H1426 H 0.0969 0.73974 0.72431 0.0
H1427 H 0.11364 0.75328 0.74833 0.0
H1428 H 0.09101 0.7554 0.70706 0.0
H1429 H 0.94811 0.78167 0.7194 0.0
H1430 H 0.98275 0.79796 0.75439 0.0
H1431 H 0.07974 0.7708 0.78565 0.0
C1432 C 1.00287 0.7346 0.70692 0.0
C1433 C 0.96726 0.73263 0.68531 0.0
C1434 C 0.94023 0.74297 0.67707 0.0
C1435 C 0.94737 0.75493 0.69121 0.0
C1436 C 0.98175 0.75641 0.71343 0.0
C1437 C 0.0095 0.74658 0.72081 0.0
C1438 C 0.0436 0.7506 0.7459 0.0
C1439 C 0.04035 0.74282 0.77842 0.0
C1440 C 0.08897 0.74971 0.73047 0.0
C1441 C 0.03054 0.76421 0.75168 0.0
C1442 C 0.99464 0.76734 0.73285 0.0
C1443 C 0.9764 0.77935 0.73408 0.0
C1444 C 0.99619 0.78852 0.75424 0.0
C1445 C 0.03396 0.78567 0.77287 0.0
C1446 C 0.05076 0.77326 0.77196 0.0
H1447 H 0.74734 0.98066 0.75296 0.0
H1448 H 0.63106 0.99704 0.79512 0.0
H1449 H 0.64843 0.0174 0.76779 0.0
H1450 H 0.81447 0.00836 0.76192 0.0
H1451 H 0.84293 0.00567 0.72318 0.0
H1452 H 0.82109 0.9925 0.74627 0.0
H1453 H 0.77879 0.98552 0.69336 0.0
H1454 H 0.79988 0.99882 0.6703 0.0
H1455 H 0.74239 0.99648 0.67339 0.0
H1456 H 0.67849 0.036 0.73584 0.0
H1457 H 0.72217 0.05195 0.70593 0.0
H1458 H 0.81834 0.0234 0.68369 0.0
C1459 C 0.72566 0.98855 0.75672 0.0
C1460 C 0.68782 0.98723 0.77632 0.0
C1461 C 0.6603 0.9978 0.78039 0.0
C1462 C 0.66976 0.00939 0.76477 0.0
C1463 C 0.70682 0.01027 0.74506 0.0
C1464 C 0.73457 1.00017 0.74126 0.0
C1465 C 0.7727 1.00368 0.71926 0.0
C1466 C 0.81531 1.00248 0.73883 0.0
C1467 C 0.77346 0.99564 0.68717 0.0
C1468 C 0.76225 0.01737 0.71144 0.0
C1469 C 0.72394 0.02095 0.7264 0.0
C1470 C 0.7084 0.03327 0.72389 0.0
C1471 C 0.73336 0.04226 0.70667 0.0
C1472 C 0.77346 0.03892 0.69209 0.0
C1473 C 0.78741 0.02621 0.69386 0.0
H1474 H 0.76767 0.79029 0.95203 0.0
H1475 H 0.63067 0.78834 0.92998 0.0
H1476 H 0.62813 0.76671 0.95298 0.0
H1477 H 0.79206 0.75642 0.93458 0.0
H1478 H 0.83044 0.75557 0.96848 0.0
H1479 H 0.82224 0.77028 0.94656 0.0
H1480 H 0.80569 0.78117 0.00324 0.0
H1481 H 0.8125 0.76643 0.02523 0.0
H1482 H 0.7628 0.77513 0.02927 0.0
H1483 H 0.63842 0.74635 0.98392 0.0
H1484 H 0.66309 0.72711 0.01302 0.0
H1485 H 0.79368 0.74203 0.01529 0.0
C1486 C 0.73751 0.78514 0.95081 0.0
C1487 C 0.69944 0.79099 0.93881 0.0
C1488 C 0.66033 0.78403 0.93868 0.0
C1489 C 0.65849 0.77176 0.95196 0.0
C1490 C 0.69605 0.76653 0.96522 0.0
C1491 C 0.73505 0.77286 0.96412 0.0
C1492 C 0.77024 0.76525 0.9813 0.0
C1493 C 0.80585 0.76166 0.95623 0.0
C1494 C 0.78889 0.77242 0.01155 0.0
C1495 C 0.74479 0.75373 -0.0075 0.0
C1496 C 0.70201 0.75472 0.98311 0.0
C1497 C 0.67195 0.7454 0.99108 0.0
C1498 C 0.68626 0.73453 0.0079 0.0
C1499 C 0.73034 0.73302 0.01655 0.0
C1500 C 0.75973 0.74291 0.00929 0.0
H1501 H 0.27185 0.53739 0.72727 0.0
H1502 H 0.38016 0.51965 0.6769 0.0
H1503 H 0.36104 0.49925 0.70314 0.0
H1504 H 0.28181 0.52077 0.80434 0.0
H1505 H 0.22456 0.51926 0.81128 0.0
H1506 H 0.24532 0.53243 0.78755 0.0
H1507 H 0.1961 0.52658 0.73735 0.0
H1508 H 0.17452 0.51356 0.76118 0.0
H1509 H 0.19799 0.51078 0.72051 0.0
H1510 H 0.33203 0.48103 0.73655 0.0
H1511 H 0.29034 0.46561 0.76973 0.0
H1512 H 0.2008 0.49519 0.7986 0.0
C1513 C 0.29119 0.52918 0.7213 0.0
C1514 C 0.32746 0.53012 0.69989 0.0
C1515 C 0.35209 0.51916 0.69301 0.0
C1516 C 0.34166 0.50755 0.708 0.0
C1517 C 0.30651 0.50705 0.72977 0.0
C1518 C 0.28127 0.51753 0.73605 0.0
C1519 C 0.24516 0.51444 0.76038 0.0
C1520 C 0.24949 0.52219 0.79281 0.0
C1521 C 0.20082 0.51646 0.74386 0.0
C1522 C 0.25394 0.50056 0.76672 0.0
C1523 C 0.28971 0.49653 0.74903 0.0
C1524 C 0.30392 0.48407 0.75046 0.0
C1525 C 0.2801 0.47539 0.76954 0.0
C1526 C 0.24235 0.47919 0.78688 0.0
C1527 C 0.22977 0.49202 0.78599 0.0
H1528 H 0.08277 0.48188 0.4616 0.0
H1529 H 0.95215 0.46762 0.4501 0.0
H1530 H 0.92367 0.48722 0.47497 0.0
H1531 H 0.06792 0.49606 0.54011 0.0
H1532 H 0.1011 0.50972 0.53187 0.0
H1533 H 0.11178 0.49506 0.51054 0.0
H1534 H 0.10491 0.5062 0.45286 0.0
H1535 H 0.09541 0.52096 0.47401 0.0
H1536 H 0.05711 0.51525 0.44355 0.0
H1537 H 0.90958 0.5075 0.50534 0.0
H1538 H 0.91007 0.52861 0.53144 0.0
H1539 H 0.04976 0.5298 0.52303 0.0
C1540 C 0.04813 0.48301 0.46344 0.0
C1541 C 0.0197 0.47321 0.45378 0.0
C1542 C 0.97459 0.47501 0.45717 0.0
C1543 C 0.95808 0.48608 0.4715 0.0
C1544 C 0.98706 0.49529 0.48217 0.0
C1545 C 0.03106 0.49401 0.47771 0.0
C1546 C 0.05517 0.50529 0.49182 0.0
C1547 C 0.0858 0.50128 0.52027 0.0
C1548 C 0.07958 0.51234 0.46389 0.0
C1549 C 0.01785 0.51305 0.5051 0.0
C1550 C 0.97889 0.50706 0.4995 0.0
C1551 C 0.93987 0.51234 0.50965 0.0
C1552 C 0.94053 0.52429 0.52473 0.0
C1553 C 0.97994 0.53088 0.52937 0.0
C1554 C 0.01912 0.525 0.52008 0.0
H1555 H 0.2633 0.7306 0.52758 0.0
H1556 H 0.40313 0.73311 0.52545 0.0
H1557 H 0.39801 0.75402 0.49826 0.0
H1558 H 0.24524 0.74392 0.44816 0.0
H1559 H 0.19743 0.75256 0.45974 0.0
H1560 H 0.21141 0.73827 0.48178 0.0
H1561 H 0.21083 0.75023 0.53844 0.0
H1562 H 0.19569 0.76448 0.51668 0.0
H1563 H 0.2429 0.76434 0.54309 0.0
H1564 H 0.37783 0.774 0.46802 0.0
H1565 H 0.34392 0.79286 0.44289 0.0
H1566 H 0.21721 0.77717 0.4637 0.0
C1567 C 0.29287 0.73568 0.52222 0.0
C1568 C 0.33366 0.73023 0.52887 0.0
C1569 C 0.37153 0.73711 0.52084 0.0
C1570 C 0.36896 0.74897 0.50517 0.0
C1571 C 0.32828 0.75382 0.49768 0.0
C1572 C 0.29089 0.7475 0.50642 0.0
C1573 C 0.25123 0.75467 0.49491 0.0
C1574 C 0.22478 0.74689 0.46965 0.0
C1575 C 0.22354 0.75867 0.52508 0.0
C1576 C 0.27218 0.76598 0.47815 0.0
C1577 C 0.31665 0.76527 0.47994 0.0
C1578 C 0.34303 0.77468 0.46657 0.0
C1579 C 0.32345 0.78532 0.45213 0.0
C1580 C 0.27791 0.78647 0.4511 0.0
C1581 C 0.25208 0.7765 0.46361 0.0
H1582 H 0.68772 0.49293 0.2915 0.0
H1583 H 0.78698 0.46718 0.25667 0.0
H1584 H 0.82059 0.48448 0.22445 0.0
H1585 H 0.67541 0.50978 0.21548 0.0
H1586 H 0.66795 0.52503 0.23469 0.0
H1587 H 0.65277 0.51089 0.257 0.0
H1588 H 0.70203 0.5172 0.30676 0.0
H1589 H 0.71667 0.53148 0.2849 0.0
H1590 H 0.75807 0.52078 0.2991 0.0
H1591 H 0.84129 0.50423 0.19332 0.0
H1592 H 0.85195 0.52567 0.17023 0.0
H1593 H 0.7394 0.53867 0.225 0.0
C1594 C 0.71704 0.49099 0.27769 0.0
C1595 C 0.73476 0.47868 0.27678 0.0
C1596 C 0.77283 0.47652 0.25793 0.0
C1597 C 0.7921 0.48628 0.23936 0.0
C1598 C 0.77304 0.49819 0.2399 0.0
C1599 C 0.73675 0.50065 0.25894 0.0
C1600 C 0.72251 0.51427 0.25478 0.0
C1601 C 0.67696 0.51503 0.23958 0.0
C1602 C 0.72499 0.52135 0.28838 0.0
C1603 C 0.75629 0.51904 0.23029 0.0
C1604 C 0.78502 0.50959 0.22193 0.0
C1605 C 0.81908 0.51172 0.19979 0.0
C1606 C 0.82472 0.52393 0.18661 0.0
C1607 C 0.79647 0.53388 0.19562 0.0
C1608 C 0.76139 0.53128 0.21733 0.0
H1609 H 0.74385 0.22783 0.51999 0.0
H1610 H 0.87778 0.23566 0.54415 0.0
H1611 H 0.87101 0.25679 0.51801 0.0
H1612 H 0.74532 0.24208 0.43967 0.0
H1613 H 0.69131 0.24831 0.44224 0.0
H1614 H 0.70539 0.23422 0.46515 0.0
H1615 H 0.6805 0.24458 0.52071 0.0
H1616 H 0.6655 0.2586 0.49787 0.0
H1617 H 0.70242 0.25971 0.53268 0.0
H1618 H 0.84974 0.27694 0.48807 0.0
H1619 H 0.81487 0.29486 0.45891 0.0
H1620 H 0.69614 0.27328 0.45154 0.0
C1621 C 0.77152 0.23408 0.52049 0.0
C1622 C 0.81124 0.23015 0.53453 0.0
C1623 C 0.84694 0.23852 0.53386 0.0
C1624 C 0.84345 0.25051 0.5189 0.0
C1625 C 0.80417 0.25393 0.50443 0.0
C1626 C 0.76878 0.24599 0.50525 0.0
C1627 C 0.73067 0.25174 0.48693 0.0
C1628 C 0.71741 0.2436 0.45671 0.0
C1629 C 0.69253 0.25378 0.51098 0.0
C1630 C 0.75006 0.2642 0.47571 0.0
C1631 C 0.79246 0.2653 0.48612 0.0
C1632 C 0.81664 0.27615 0.47967 0.0
C1633 C 0.79662 0.28625 0.46295 0.0
C1634 C 0.75299 0.28541 0.45254 0.0
C1635 C 0.7298 0.27412 0.45851 0.0
H1636 H 0.47833 0.28385 0.76538 0.0
H1637 H 0.60864 0.27591 0.79926 0.0
H1638 H 0.60325 0.25439 0.7755 0.0
H1639 H 0.43362 0.25225 0.77923 0.0
H1640 H 0.40063 0.25298 0.74204 0.0
H1641 H 0.41393 0.26727 0.76429 0.0
H1642 H 0.44522 0.27674 0.70948 0.0
H1643 H 0.43292 0.26239 0.68723 0.0
H1644 H 0.48735 0.26842 0.68756 0.0
H1645 H 0.58442 0.23399 0.74595 0.0
H1646 H 0.55213 0.21587 0.71603 0.0
H1647 H 0.43544 0.2376 0.69922 0.0
C1648 C 0.50541 0.2775 0.76857 0.0
C1649 C 0.54379 0.28153 0.78457 0.0
C1650 C 0.57879 0.273 0.78744 0.0
C1651 C 0.5761 0.26078 0.77384 0.0
C1652 C 0.53831 0.25727 0.75724 0.0
C1653 C 0.50346 0.26535 0.75481 0.0
C1654 C 0.46713 0.25947 0.73468 0.0
C1655 C 0.42643 0.2579 0.75636 0.0
C1656 C 0.45762 0.26722 0.70285 0.0
C1657 C 0.48695 0.24681 0.7261 0.0
C1658 C 0.52799 0.24572 0.73939 0.0
C1659 C 0.55234 0.23476 0.73541 0.0
C1660 C 0.53381 0.22454 0.71822 0.0
C1661 C 0.49145 0.22535 0.70496 0.0
C1662 C 0.46816 0.23675 0.70849 0.0
H1663 H 0.44622 0.01985 0.52634 0.0
H1664 H 0.57685 0.03364 0.54115 0.0
H1665 H 0.60554 0.01396 0.5169 0.0
H1666 H 0.4698 0.98639 0.545 0.0
H1667 H 0.43268 0.98076 0.51358 0.0
H1668 H 0.42276 0.99558 0.53434 0.0
H1669 H 0.41887 0.00668 0.47647 0.0
H1670 H 0.42985 0.99196 0.45556 0.0
H1671 H 0.46393 0.00549 0.44807 0.0
H1672 H 0.62018 0.99359 0.48711 0.0
H1673 H 0.62017 0.9725 0.46091 0.0
H1674 H 0.48017 0.97167 0.4656 0.0
C1675 C 0.48087 0.0186 0.5253 0.0
C1676 C 0.50926 0.02831 0.53582 0.0
C1677 C 0.5544 0.02635 0.53345 0.0
C1678 C 0.57105 0.01522 0.51948 0.0
C1679 C 0.5422 0.00608 0.50809 0.0
C1680 C 0.4981 0.00752 0.5114 0.0
C1681 C 0.47422 0.99628 0.49673 0.0
C1682 C 0.44835 0.98934 0.52404 0.0
C1683 C 0.445 1.00035 0.46747 0.0
C1684 C 0.5118 0.98836 0.48447 0.0
C1685 C 0.55069 0.99425 0.49108 0.0
C1686 C 0.58993 0.98884 0.482 0.0
C1687 C 0.58955 0.97688 0.46688 0.0
C1688 C 0.55019 0.9704 0.46105 0.0
C1689 C 0.5108 0.97639 0.4694 0.0
H1690 H 0.50837 0.77882 0.26451 0.0
H1691 H 0.60922 0.75902 0.31887 0.0
H1692 H 0.58501 0.73887 0.29392 0.0
H1693 H 0.42649 0.75376 0.27134 0.0
H1694 H 0.40554 0.75681 0.22994 0.0
H1695 H 0.42924 0.76947 0.25385 0.0
H1696 H 0.48183 0.77402 0.2048 0.0
H1697 H 0.45895 0.76121 0.18102 0.0
H1698 H 0.51608 0.76154 0.18948 0.0
H1699 H 0.55388 0.72123 0.25957 0.0
H1700 H 0.51179 0.70668 0.22419 0.0
H1701 H 0.42985 0.7378 0.19276 0.0
C1702 C 0.52484 0.77022 0.27175 0.0
C1703 C 0.56069 0.77051 0.29377 0.0
C1704 C 0.58153 0.75904 0.30229 0.0
C1705 C 0.56819 0.74756 0.28805 0.0
C1706 C 0.53378 0.74768 0.26551 0.0
C1707 C 0.51184 0.75867 0.25787 0.0
C1708 C 0.47611 0.75622 0.23265 0.0
C1709 C 0.43172 0.75924 0.24786 0.0
C1710 C 0.48372 0.76369 0.20007 0.0
C1711 C 0.48164 0.74214 0.22706 0.0
C1712 C 0.51533 0.73745 0.24607 0.0
C1713 C 0.52719 0.72478 0.24481 0.0
C1714 C 0.5032 0.7166 0.22439 0.0
C1715 C 0.46744 0.72107 0.2056 0.0
C1716 C 0.45706 0.73408 0.20665 0.0
H1717 H 0.46325 0.48322 0.95698 0.0
H1718 H 0.60253 0.48743 0.9611 0.0
H1719 H 0.59383 0.50777 0.99057 0.0
H1720 H 0.4395 0.51696 0.94406 0.0
H1721 H 0.39127 0.51625 0.96923 0.0
H1722 H 0.40892 0.50248 0.94657 0.0
H1723 H 0.4087 0.48969 0.00206 0.0
H1724 H 0.39215 0.50349 0.02507 0.0
H1725 H 0.44048 0.49515 0.03704 0.0
H1726 H 0.56992 0.52708 0.02274 0.0
H1727 H 0.53249 0.54532 0.04805 0.0
H1728 H 0.40897 0.52833 0.02343 0.0
C1729 C 0.49196 0.48853 0.9634 0.0
C1730 C 0.53361 0.4837 0.9566 0.0
C1731 C 0.57027 0.49094 0.96576 0.0
C1732 C 0.56568 0.50247 0.98279 0.0
C1733 C 0.5242 0.50668 0.99034 0.0
C1734 C 0.48796 0.50006 0.98033 0.0
C1735 C 0.44703 0.50666 -0.00848 0.0
C1736 C 0.4201 0.51084 0.96104 0.0
C1737 C 0.42054 0.49824 0.01534 0.0
C1738 C 0.4659 0.51792 0.00984 0.0
C1739 C 0.51047 0.51775 0.00894 0.0
C1740 C 0.53502 0.52732 0.02354 0.0
C1741 C 0.51346 0.53759 0.03815 0.0
C1742 C 0.46777 0.53822 0.03814 0.0
C1743 C 0.44387 0.52804 0.02455 0.0
H1744 H 0.16278 0.3212 0.18481 0.0
H1745 H 0.02563 0.32128 0.20733 0.0
H1746 H 0.00935 0.32447 0.14744 0.0
H1747 H 0.15874 0.34488 0.1169 0.0
H1748 H 0.19914 0.33675 0.09264 0.0
H1749 H 0.20006 0.33582 0.13776 0.0
H1750 H 0.19838 0.31134 0.13431 0.0
H1751 H 0.1973 0.31221 0.08928 0.0
H1752 H 0.15561 0.30369 0.11133 0.0
H1753 H 0.00775 0.32563 0.08471 0.0
H1754 H 0.02141 0.32495 0.02367 0.0
H1755 H 0.15941 0.32428 0.04291 0.0
C1756 C 0.12935 0.32211 0.17727 0.0
C1757 C 0.09553 0.32101 0.20073 0.0
C1758 C 0.05214 0.32211 0.18978 0.0
C1759 C 0.04252 0.32396 0.15583 0.0
C1760 C 0.07662 0.32477 0.13327 0.0
C1761 C 0.11916 0.32396 0.14354 0.0
C1762 C 0.14973 0.32434 0.11408 0.0
C1763 C 0.17861 0.33615 0.11543 0.0
C1764 C 0.17682 0.31217 0.11215 0.0
C1765 C 0.11767 0.32514 0.08562 0.0
C1766 C 0.07568 0.32549 0.09713 0.0
C1767 C 0.04051 0.32553 0.07533 0.0
C1768 C 0.04857 0.32511 0.04076 0.0
C1769 C 0.09144 0.3246 0.02854 0.0
C1770 C 0.12625 0.32478 0.05139 0.0
H1771 H 0.13154 0.95153 0.06158 0.0
H1772 H 0.00474 0.93545 0.04309 0.0
H1773 H 0.99034 0.93536 0.10396 0.0
H1774 H 0.1551 0.93351 0.13341 0.0
H1775 H 0.18293 0.94607 0.15496 0.0
H1776 H 0.18196 0.94577 0.10986 0.0
H1777 H 0.1495 0.96835 0.10885 0.0
H1778 H 0.15052 0.96874 0.154 0.0
H1779 H 0.10069 0.97154 0.13189 0.0
H1780 H 0.99094 0.93621 0.16706 0.0
H1781 H 0.00753 0.93767 0.22765 0.0
H1782 H 0.1342 0.95281 0.20367 0.0
C1783 C 0.10061 0.94812 0.07024 0.0
C1784 C 0.06933 0.94351 0.04766 0.0
C1785 C 0.02929 0.93902 0.06005 0.0
C1786 C 0.02065 0.93895 0.09451 0.0
C1787 C 0.05244 0.94343 0.11614 0.0
C1788 C 0.09155 0.94794 0.10448 0.0
C1789 C 0.12102 0.95169 0.13293 0.0
C1790 C 0.16269 0.94378 0.13277 0.0
C1791 C 0.131 0.96592 0.13185 0.0
C1792 C 0.09263 0.94837 0.16242 0.0
C1793 C 0.05303 0.94374 0.15232 0.0
C1794 C 0.02179 0.93988 0.17531 0.0
C1795 C 0.03146 0.94073 0.2096 0.0
C1796 C 0.07216 0.94529 0.22031 0.0
C1797 C 0.10284 0.94921 0.1963 0.0
H1798 H 0.90664 0.69611 0.78089 0.0
H1799 H 0.77521 0.69143 0.74501 0.0
H1800 H 0.74963 0.68982 0.80349 0.0
H1801 H 0.89919 0.67466 0.85126 0.0
H1802 H 0.93216 0.68441 0.87803 0.0
H1803 H 0.94028 0.68467 0.83331 0.0
H1804 H 0.92933 0.70896 0.83276 0.0
H1805 H 0.92129 0.70879 0.87745 0.0
H1806 H 0.88077 0.71555 0.85042 0.0
H1807 H 0.73842 0.68911 0.86562 0.0
H1808 H 0.74175 0.69025 0.92733 0.0
H1809 H 0.88058 0.6957 0.922 0.0
C1810 C 0.8725 0.69466 0.78526 0.0
C1811 C 0.84291 0.69385 0.75846 0.0
C1812 C 0.79843 0.69208 0.76523 0.0
C1813 C 0.78362 0.69111 0.79831 0.0
C1814 C 0.81372 0.69196 0.82414 0.0
C1815 C 0.85718 0.69374 0.81801 0.0
C1816 C 0.88266 0.69481 0.85019 0.0
C1817 C 0.9155 0.68399 0.85338 0.0
C1818 C 0.9048 0.7078 0.85285 0.0
C1819 C 0.84664 0.69345 0.87544 0.0
C1820 C 0.8072 0.69171 0.85993 0.0
C1821 C 0.76911 0.69043 0.87809 0.0
C1822 C 0.77138 0.69107 0.9131 0.0
C1823 C 0.81144 0.69307 0.92944 0.0
C1824 C 0.8495 0.69415 0.91026 0.0
H1825 H 0.86488 0.05898 0.78275 0.0
H1826 H 1.00303 0.05975 0.76474 0.0
H1827 H 0.01596 0.06012 0.82602 0.0
H1828 H 0.86359 0.08024 0.84926 0.0
H1829 H 0.82208 0.07213 0.87256 0.0
H1830 H 0.82392 0.07081 0.82762 0.0
H1831 H 0.82713 0.04638 0.8323 0.0
H1832 H 0.82464 0.04761 0.87731 0.0
H1833 H 0.86831 0.03912 0.8578 0.0
H1834 H 0.01294 0.06217 0.88908 0.0
H1835 H 0.99464 0.06409 0.94913 0.0
H1836 H 0.85832 0.06192 0.92431 0.0
C1837 C 0.89793 0.05907 0.79162 0.0
C1838 C 0.93299 0.05939 0.76914 0.0
C1839 C 0.97574 0.05945 0.78168 0.0
C1840 C 0.98336 0.05971 0.81635 0.0
C1841 C 0.94786 0.05976 0.83782 0.0
C1842 C 0.90604 0.05927 0.8259 0.0
C1843 C 0.87338 0.05976 0.85392 0.0
C1844 C 0.84404 0.07143 0.85063 0.0
C1845 C 0.84681 0.04748 0.85542 0.0
C1846 C 0.90331 0.06089 0.88357 0.0
C1847 C 0.94614 0.06084 0.87388 0.0
C1848 C 0.97954 0.06211 0.89699 0.0
C1849 C 0.9688 0.06327 0.93098 0.0
C1850 C 0.92504 0.06315 0.94135 0.0
C1851 C 0.89206 0.06202 0.91721 0.0
H1852 H 0.1194 0.82156 0.7004 0.0
H1853 H 0.25488 0.82174 0.72835 0.0
H1854 H 0.27475 0.82527 0.669 0.0
H1855 H 0.1318 0.80421 0.62695 0.0
H1856 H 0.09083 0.8126 0.60384 0.0
H1857 H 0.0874 0.8115 0.64876 0.0
H1858 H 0.08403 0.83594 0.65287 0.0
H1859 H 0.08746 0.83712 0.60787 0.0
H1860 H 0.12595 0.84534 0.63381 0.0
H1861 H 0.27958 0.82742 0.60637 0.0
H1862 H 0.26951 0.82701 0.54502 0.0
H1863 H 0.13065 0.82495 0.55896 0.0
C1864 C 0.15327 0.82255 0.69423 0.0
C1865 C 0.18563 0.82145 0.71897 0.0
C1866 C 0.22958 0.82257 0.70974 0.0
C1867 C 0.24114 0.82464 0.67618 0.0
C1868 C 0.20832 0.82555 0.65238 0.0
C1869 C 0.16531 0.82451 0.66102 0.0
C1870 C 0.13632 0.82487 0.63058 0.0
C1871 C 0.11007 0.81256 0.62735 0.0
C1872 C 0.1067 0.83651 0.63134 0.0
C1873 C 0.16982 0.82599 0.60329 0.0
C1874 C 0.21111 0.82655 0.61634 0.0
C1875 C 0.2474 0.8271 0.59585 0.0
C1876 C 0.24131 0.82686 0.56106 0.0
C1877 C 0.19926 0.82594 0.54724 0.0
C1878 C 0.16316 0.8257 0.56874 0.0
H1879 H 0.14859 0.44891 0.70812 0.0
H1880 H 0.01437 0.44117 0.73211 0.0
H1881 H 1.00055 0.43604 0.67256 0.0
H1882 H 0.12939 0.46364 0.62889 0.0
H1883 H 0.17707 0.45706 0.60986 0.0
H1884 H 0.17588 0.45999 0.6543 0.0
H1885 H 0.19566 0.43655 0.6655 0.0
H1886 H 0.19649 0.43351 0.62108 0.0
H1887 H 0.16237 0.4242 0.64814 0.0
H1888 H 1.00186 0.43183 0.61046 0.0
H1889 H 0.01691 0.4299 0.54997 0.0
H1890 H 0.15061 0.44033 0.56777 0.0
C1891 C 0.1162 0.44615 0.70099 0.0
C1892 C 0.08253 0.44541 0.72476 0.0
C1893 C 0.04062 0.44182 0.71427 0.0
C1894 C 0.03253 0.43884 0.68058 0.0
C1895 C 0.0667 0.43952 0.65793 0.0
C1896 C 0.10761 0.44316 0.66769 0.0
C1897 C 0.13865 0.4434 0.6385 0.0
C1898 C 0.15626 0.45682 0.63254 0.0
C1899 C 0.17546 0.43384 0.64362 0.0
C1900 C 0.10879 0.43933 0.61063 0.0
C1901 C 0.06748 0.43709 0.62233 0.0
C1902 C 0.03409 0.43352 0.60102 0.0
C1903 C 0.04302 0.43244 0.56673 0.0
C1904 C 0.08499 0.43495 0.55418 0.0
C1905 C 0.11832 0.43825 0.57659 0.0
H1906 H 0.90342 0.18304 0.28998 0.0
H1907 H 0.76563 0.18167 0.27029 0.0
H1908 H 0.75197 0.17919 0.33108 0.0
H1909 H 0.90467 0.16057 0.36061 0.0
H1910 H 0.94532 0.16952 0.38257 0.0
H1911 H 0.94411 0.16955 0.33739 0.0
H1912 H 0.94019 0.19403 0.3374 0.0
H1913 H 0.94131 0.19408 0.38245 0.0
H1914 H 0.89779 0.20178 0.36048 0.0
H1915 H 0.75355 0.17898 0.39421 0.0
H1916 H 0.76977 0.18154 0.45439 0.0
H1917 H 0.90669 0.18317 0.43155 0.0
C1918 C 0.87032 0.182 0.29824 0.0
C1919 C 0.83556 0.18253 0.2754 0.0
C1920 C 0.79276 0.18125 0.28738 0.0
C1921 C 0.78472 0.17979 0.3218 0.0
C1922 C 0.81985 0.17954 0.34366 0.0
C1923 C 0.86179 0.18057 0.33227 0.0
C1924 C 0.89378 0.18106 0.36082 0.0
C1925 C 0.92373 0.16948 0.36031 0.0
C1926 C 0.91976 0.19348 0.36024 0.0
C1927 C 0.86322 0.18056 0.39022 0.0
C1928 C 0.82076 0.1795 0.37989 0.0
C1929 C 0.78668 0.17964 0.40261 0.0
C1930 C 0.79626 0.18111 0.43673 0.0
C1931 C 0.83955 0.18254 0.44766 0.0
C1932 C 0.87333 0.182 0.42406 0.0
H1933 H 0.87473 0.57564 0.42905 0.0
H1934 H 0.0146 0.5773 0.43513 0.0
H1935 H 0.0185 0.57937 0.37352 0.0
H1936 H 0.86937 0.55661 0.35843 0.0
H1937 H 0.82277 0.56426 0.34055 0.0
H1938 H 0.83078 0.56437 0.3852 0.0
H1939 H 0.82683 0.58885 0.38545 0.0
H1940 H 0.81855 0.58882 0.34072 0.0
H1941 H 0.8623 0.59781 0.35858 0.0
H1942 H 0.00724 0.57928 0.31118 0.0
H1943 H 0.9816 0.57733 0.25278 0.0
H1944 H 0.84926 0.57574 0.28847 0.0
C1945 C 0.90621 0.57666 0.41757 0.0
C1946 C 0.94435 0.57633 0.43687 0.0
C1947 C 0.98492 0.57757 0.4208 0.0
C1948 C 0.98747 0.57877 0.38586 0.0
C1949 C 0.9492 0.5788 0.36755 0.0
C1950 C 0.90934 0.57786 0.38288 0.0
C1951 C 0.87317 0.57733 0.35754 0.0
C1952 C 0.84754 0.5649 0.36062 0.0
C1953 C 0.84347 0.58889 0.36077 0.0
C1954 C 0.89898 0.57779 0.32548 0.0
C1955 C 0.94272 0.57875 0.33171 0.0
C1956 C 0.97303 0.57869 0.30594 0.0
C1957 C 0.95816 0.57753 0.2729 0.0
C1958 C 0.91343 0.57641 0.2661 0.0
C1959 C 0.88362 0.57668 0.2928 0.0
H1960 H 0.67197 0.32166 0.53771 0.0
H1961 H 0.53728 0.32339 0.50776 0.0
H1962 H 0.51622 0.32626 0.56699 0.0
H1963 H 0.65584 0.30371 0.61063 0.0
H1964 H 0.69698 0.31166 0.63465 0.0
H1965 H 0.70149 0.31078 0.58975 0.0
H1966 H 0.70741 0.3352 0.58649 0.0
H1967 H 0.70285 0.33616 0.63146 0.0
H1968 H 0.66589 0.34481 0.60516 0.0
H1969 H 0.5098 0.32772 0.62945 0.0
H1970 H 0.51809 0.32708 0.6909 0.0
H1971 H 0.65717 0.32432 0.67936 0.0
C1972 C 0.63804 0.32279 0.54346 0.0
C1973 C 0.60625 0.32234 0.51814 0.0
C1974 C 0.56218 0.32371 0.5268 0.0
C1975 C 0.54993 0.3254 0.56031 0.0
C1976 C 0.58216 0.32571 0.58466 0.0
C1977 C 0.62528 0.32444 0.57664 0.0
C1978 C 0.65345 0.32442 0.60757 0.0
C1979 C 0.67839 0.3119 0.61083 0.0
C1980 C 0.68421 0.33583 0.60766 0.0
C1981 C 0.61933 0.32563 0.63437 0.0
C1982 C 0.57846 0.32649 0.62065 0.0
C1983 C 0.54165 0.32716 0.64051 0.0
C1984 C 0.54672 0.32678 0.67537 0.0
C1985 C 0.58832 0.32566 0.6899 0.0
C1986 C 0.62501 0.32527 0.66904 0.0
H1987 H 0.64116 0.92693 0.56759 0.0
H1988 H 0.50322 0.92394 0.55012 0.0
H1989 H 0.49054 0.92408 0.61119 0.0
H1990 H 0.64404 0.90822 0.64772 0.0
H1991 H 0.68441 0.91859 0.66515 0.0
H1992 H 0.68297 0.91572 0.62061 0.0
H1993 H 0.67831 0.93986 0.60982 0.0
H1994 H 0.67932 0.94279 0.65414 0.0
H1995 H 0.63551 0.94881 0.62904 0.0
H1996 H 0.49224 0.92794 0.67322 0.0
H1997 H 0.50851 0.935 0.73093 0.0
H1998 H 0.64516 0.93548 0.70688 0.0
C1999 C 0.60835 0.92593 0.57656 0.0
C2000 C 0.57322 0.92542 0.55413 0.0
C2001 C 0.5307 0.9243 0.56688 0.0
C2002 C 0.52316 0.92432 0.60153 0.0
C2003 C 0.5585 0.92532 0.62296 0.0
C2004 C 0.6003 0.92596 0.61093 0.0
C2005 C 0.63231 0.92839 0.63873 0.0
C2006 C 0.66272 0.91705 0.64332 0.0
C2007 C 0.65781 0.94069 0.63255 0.0
C2008 C 0.60181 0.92966 0.66803 0.0
C2009 C 0.55945 0.92762 0.65867 0.0
C2010 C 0.52537 0.92931 0.68103 0.0
C2011 C 0.53489 0.93336 0.71369 0.0
C2012 C 0.57808 0.9358 0.72336 0.0
C2013 C 0.61181 0.93364 0.70034 0.0
H2014 H 0.40005 0.68255 0.41362 0.0
H2015 H 0.26746 0.68829 0.44517 0.0
H2016 H 0.2435 0.68679 0.38624 0.0
H2017 H 0.3959 0.70128 0.34309 0.0
H2018 H 0.43008 0.69138 0.31772 0.0
H2019 H 0.4357 0.69124 0.36256 0.0
H2020 H 0.42369 0.66697 0.36324 0.0
H2021 H 0.41802 0.66704 0.31826 0.0
H2022 H 0.37594 0.66042 0.3441 0.0
H2023 H 0.23552 0.6873 0.32326 0.0
H2024 H 0.24454 0.68964 0.26189 0.0
H2025 H 0.38206 0.68292 0.27301 0.0
C2026 C 0.36588 0.68327 0.40825 0.0
C2027 C 0.33565 0.68554 0.4339 0.0
C2028 C 0.29121 0.6865 0.42584 0.0
C2029 C 0.27725 0.68562 0.39248 0.0
C2030 C 0.30809 0.68361 0.36768 0.0
C2031 C 0.35143 0.68233 0.37526 0.0
C2032 C 0.37854 0.68115 0.34402 0.0
C2033 C 0.41199 0.6919 0.34173 0.0
C2034 C 0.40032 0.66812 0.34232 0.0
C2035 C 0.34392 0.68246 0.31763 0.0
C2036 C 0.30339 0.68372 0.3316 0.0
C2037 C 0.26699 0.68609 0.31198 0.0
C2038 C 0.27241 0.68742 0.27719 0.0
C2039 C 0.31396 0.68644 0.26265 0.0
C2040 C 0.34977 0.68362 0.28321 0.0
H2041 H 0.37389 0.06554 0.42554 0.0
H2042 H 0.51231 0.06981 0.4385 0.0
H2043 H 0.52094 0.07175 0.37706 0.0
H2044 H 0.378 0.04679 0.35198 0.0
H2045 H 0.33114 0.05404 0.33336 0.0
H2046 H 0.3363 0.05331 0.37827 0.0
H2047 H 0.32712 0.07764 0.38169 0.0
H2048 H 0.32201 0.07845 0.33676 0.0
H2049 H 0.36258 0.08773 0.3578 0.0
H2050 H 0.514 0.07259 0.31362 0.0
H2051 H 0.49181 0.07231 0.25393 0.0
H2052 H 0.3582 0.06779 0.28471 0.0
C2053 C 0.40607 0.06691 0.41557 0.0
C2054 C 0.44241 0.06751 0.43675 0.0
C2055 C 0.48396 0.06933 0.42266 0.0
C2056 C 0.4892 0.07045 0.38785 0.0
C2057 C 0.45257 0.06978 0.36769 0.0
C2058 C 0.41184 0.06808 0.38112 0.0
C2059 C 0.37765 0.06752 0.35427 0.0
C2060 C 0.35443 0.05465 0.35449 0.0
C2061 C 0.34546 0.07849 0.35785 0.0
C2062 C 0.40549 0.06907 0.32355 0.0
C2063 C 0.4486 0.07038 0.33161 0.0
C2064 C 0.48029 0.07164 0.307 0.0
C2065 C 0.46741 0.07147 0.27324 0.0
C2066 C 0.4233 0.07006 0.26467 0.0
C2067 C 0.39218 0.06895 0.29031 0.0
H2068 H 0.63791 0.8086 0.06434 0.0
H2069 H 0.75835 0.82883 0.04932 0.0
H2070 H 0.77826 0.82476 0.10837 0.0
H2071 H 0.61482 0.82053 0.14209 0.0
H2072 H 0.59209 0.80615 0.15882 0.0
H2073 H 0.59052 0.80908 0.11445 0.0
H2074 H 0.62976 0.78783 0.10362 0.0
H2075 H 0.63141 0.78483 0.1481 0.0
H2076 H 0.6806 0.78472 0.12399 0.0
H2077 H 0.78078 0.82059 0.17061 0.0
H2078 H 0.765 0.81694 0.23068 0.0
H2079 H 0.6432 0.79941 0.20347 0.0
C2080 C 0.66882 0.81201 0.07324 0.0
C2081 C 0.69652 0.81906 0.05234 0.0
C2082 C 0.73663 0.82339 0.06497 0.0
C2083 C 0.74831 0.82108 0.09839 0.0
C2084 C 0.71976 0.81429 0.11854 0.0
C2085 C 0.68098 0.80975 0.10631 0.0
C2086 C 0.65433 0.80363 0.13351 0.0
C2087 C 0.61038 0.81025 0.13744 0.0
C2088 C 0.64872 0.78941 0.12691 0.0
C2089 C 0.68325 0.80596 0.16331 0.0
C2090 C 0.72121 0.8119 0.15422 0.0
C2091 C 0.75149 0.81575 0.17799 0.0
C2092 C 0.74225 0.81366 0.21199 0.0
C2093 C 0.70284 0.80793 0.22167 0.0
C2094 C 0.67363 0.8038 0.19687 0.0
H2095 H 0.63916 0.44035 0.05812 0.0
H2096 H 0.50064 0.4374 0.04325 0.0
H2097 H 0.49011 0.43646 0.10454 0.0
H2098 H 0.64554 0.41962 0.13204 0.0
H2099 H 0.68645 0.42928 0.15143 0.0
H2100 H 0.68306 0.42836 0.1064 0.0
H2101 H 0.67716 0.45278 0.10316 0.0
H2102 H 0.68016 0.45377 0.14812 0.0
H2103 H 0.63511 0.4607 0.12621 0.0
H2104 H 0.49446 0.43774 0.16753 0.0
H2105 H 0.51382 0.44061 0.22723 0.0
H2106 H 0.64922 0.44275 0.19951 0.0
C2107 C 0.60664 0.43927 0.06765 0.0
C2108 C 0.57076 0.43893 0.04594 0.0
C2109 C 0.52867 0.43765 0.05946 0.0
C2110 C 0.52233 0.43709 0.09421 0.0
C2111 C 0.55841 0.43775 0.11494 0.0
C2112 C 0.59975 0.43871 0.10213 0.0
C2113 C 0.63292 0.44 0.12962 0.0
C2114 C 0.6638 0.42864 0.12989 0.0
C2115 C 0.65777 0.45256 0.12658 0.0
C2116 C 0.6037 0.43991 0.15988 0.0
C2117 C 0.56088 0.43851 0.15103 0.0
C2118 C 0.52795 0.4387 0.17482 0.0
C2119 C 0.53922 0.44037 0.2086 0.0
C2120 C 0.583 0.44189 0.21802 0.0
C2121 C 0.61545 0.44157 0.19323 0.0
H2122 H 0.41286 0.18848 0.78723 0.0
H2123 H 0.27785 0.18607 0.75853 0.0
H2124 H 0.25742 0.18489 0.81841 0.0
H2125 H 0.40708 0.16743 0.85986 0.0
H2126 H 0.44473 0.17686 0.88358 0.0
H2127 H 0.44855 0.1763 0.83853 0.0
H2128 H 0.44349 0.20074 0.83599 0.0
H2129 H 0.43947 0.20138 0.88094 0.0
H2130 H 0.39828 0.20857 0.85533 0.0
H2131 H 0.2519 0.18553 0.88142 0.0
H2132 H 0.26143 0.18798 0.94251 0.0
H2133 H 0.40029 0.19015 0.92873 0.0
C2134 C 0.37897 0.18752 0.79337 0.0
C2135 C 0.34692 0.18734 0.76821 0.0
C2136 C 0.30295 0.18619 0.77743 0.0
C2137 C 0.29107 0.18549 0.81132 0.0
C2138 C 0.32357 0.18591 0.83547 0.0
C2139 C 0.36662 0.18685 0.82685 0.0
C2140 C 0.39525 0.18786 0.85739 0.0
C2141 C 0.42569 0.17643 0.85999 0.0
C2142 C 0.42059 0.20038 0.8574 0.0
C2143 C 0.36152 0.1876 0.88464 0.0
C2144 C 0.32041 0.18636 0.87158 0.0
C2145 C 0.28395 0.18638 0.89196 0.0
C2146 C 0.28973 0.1878 0.9266 0.0
C2147 C 0.33164 0.18925 0.94037 0.0
C2148 C 0.36787 0.18902 0.91902 0.0
H2149 H 0.41669 0.58088 0.92034 0.0
H2150 H 0.40419 0.54072 0.93929 0.0
H2151 H 0.42876 0.53622 0.88133 0.0
H2152 H 0.37041 0.5798 0.84145 0.0
H2153 H 0.40355 0.59212 0.8237 0.0
H2154 H 0.39307 0.59189 0.86798 0.0
H2155 H 0.47548 0.59195 0.8796 0.0
H2156 H 0.48615 0.59201 0.83516 0.0
H2157 H 0.50894 0.57984 0.86141 0.0
H2158 H 0.44985 0.5363 0.82055 0.0
H2159 H 0.45296 0.54083 0.75964 0.0
H2160 H 0.44466 0.58092 0.77998 0.0
C2161 C 0.42 0.57115 0.91235 0.0
C2162 C 0.40917 0.56112 0.9339 0.0
C2163 C 0.4125 0.54849 0.92275 0.0
C2164 C 0.42688 0.54587 0.89016 0.0
C2165 C 0.43716 0.55602 0.86926 0.0
C2166 C 0.43313 0.56842 0.87978 0.0
C2167 C 0.43975 0.57764 0.8513 0.0
C2168 C 0.39929 0.58583 0.84578 0.0
C2169 C 0.47998 0.58584 0.85723 0.0
C2170 C 0.44672 0.5685 0.82279 0.0
C2171 C 0.44674 0.55609 0.83381 0.0
C2172 C 0.45045 0.54597 0.81167 0.0
C2173 C 0.45248 0.54861 0.77726 0.0
C2174 C 0.44961 0.56121 0.76568 0.0
C2175 C 0.44774 0.57125 0.78861 0.0
loop_
_geom_bond_atom_site_label_1
_geom_bond_atom_site_label_2
_geom_bond_distance
_geom_bond_site_symmetry_2
_ccdc_geom_bond_type
O0 Cd1 2.223 . S
O0 C8 1.315 . S
Cd1 O0 2.223 . S
Cd1 O4 2.297 . S
Cd1 O5 2.439 . S
Cd1 O11 2.240 . S
Cd2 O3 2.240 . S
Cd2 O10 2.223 . S
Cd2 O12 2.297 . S
Cd2 O13 2.439 . S
O3 Cd2 2.240 . S
O3 C8 1.279 . S
O4 Cd1 2.297 . S
O4 C6 1.247 . S
O5 Cd1 2.439 . S
O5 C6 1.208 . S
C6 O4 1.247 . S
C6 O5 1.208 . S
C7 O12 1.247 . S
C7 O13 1.208 . S
C8 O0 1.315 . S
C8 O3 1.279 . S
C9 O10 1.315 . S
C9 O11 1.279 . S
O10 Cd2 2.223 . S
O10 C9 1.315 . S
O11 Cd1 2.240 . S
O11 C9 1.279 . S
O12 Cd2 2.297 . S
O12 C7 1.247 . S
O13 Cd2 2.439 . S
O13 C7 1.208 . S
O14 Cd15 2.223 . S
O14 C22 1.315 . S
Cd15 O14 2.223 . S
Cd15 O18 2.297 . S
Cd15 O19 2.439 . S
Cd15 O25 2.240 . S
Cd16 O17 2.240 . S
Cd16 O24 2.223 . S
Cd16 O26 2.297 . S
Cd16 O27 2.439 . S
O17 Cd16 2.240 . S
O17 C22 1.279 . S
O18 Cd15 2.297 . S
O18 C20 1.247 . S
O19 Cd15 2.439 . S
O19 C20 1.208 . S
C20 O18 1.247 . S
C20 O19 1.208 . S
C21 O26 1.247 . S
C21 O27 1.208 . S
C22 O14 1.315 . S
C22 O17 1.279 . S
C23 O24 1.315 . S
C23 O25 1.279 . S
O24 Cd16 2.223 . S
O24 C23 1.315 . S
O25 Cd15 2.240 . S
O25 C23 1.279 . S
O26 Cd16 2.297 . S
O26 C21 1.247 . S
O27 Cd16 2.439 . S
O27 C21 1.208 . S
O28 Cd29 2.223 . S
O28 C36 1.315 . S
Cd29 O28 2.223 . S
Cd29 O32 2.297 . S
Cd29 O33 2.439 . S
Cd29 O39 2.240 . S
Cd30 O31 2.240 . S
Cd30 O38 2.223 . S
Cd30 O40 2.297 . S
Cd30 O41 2.439 . S
O31 Cd30 2.240 . S
O31 C36 1.279 . S
O32 Cd29 2.297 . S
O32 C34 1.247 . S
O33 Cd29 2.439 . S
O33 C34 1.208 . S
C34 O32 1.247 . S
C34 O33 1.208 . S
C35 O40 1.247 . S
C35 O41 1.208 . S
C36 O28 1.315 . S
C36 O31 1.279 . S
C37 O38 1.315 1_554 S
C37 O39 1.279 1_554 S
O38 Cd30 2.223 . S
O38 C37 1.315 1_556 S
O39 Cd29 2.240 . S
O39 C37 1.279 1_556 S
O40 Cd30 2.297 . S
O40 C35 1.247 . S
O41 Cd30 2.439 . S
O41 C35 1.208 . S
O42 Cd43 2.223 . S
O42 C50 1.315 . S
Cd43 O42 2.223 . S
Cd43 O46 2.297 . S
Cd43 O47 2.439 . S
Cd43 O53 2.240 . S
Cd44 O45 2.240 . S
Cd44 O52 2.223 . S
Cd44 O54 2.297 . S
Cd44 O55 2.439 . S
O45 Cd44 2.240 . S
O45 C50 1.279 . S
O46 Cd43 2.297 . S
O46 C48 1.247 . S
O47 Cd43 2.439 . S
O47 C48 1.208 . S
C48 O46 1.247 . S
C48 O47 1.208 . S
C49 O54 1.247 . S
C49 O55 1.208 . S
C50 O42 1.315 . S
C50 O45 1.279 . S
C51 O52 1.315 1_554 S
C51 O53 1.279 1_554 S
O52 Cd44 2.223 . S
O52 C51 1.315 1_556 S
O53 Cd43 2.240 . S
O53 C51 1.279 1_556 S
O54 Cd44 2.297 . S
O54 C49 1.247 . S
O55 Cd44 2.439 . S
O55 C49 1.208 . S
O56 Cd57 2.223 . S
O56 C64 1.315 . S
Cd57 O56 2.223 . S
Cd57 O60 2.297 . S
Cd57 O61 2.439 . S
Cd57 O67 2.240 . S
Cd58 O59 2.240 . S
Cd58 O66 2.223 . S
Cd58 O68 2.297 . S
Cd58 O69 2.439 . S
O59 Cd58 2.240 . S
O59 C64 1.279 . S
O60 Cd57 2.297 . S
O60 C62 1.247 . S
O61 Cd57 2.439 . S
O61 C62 1.208 . S
C62 O60 1.247 . S
C62 O61 1.208 . S
C63 O68 1.247 . S
C63 O69 1.208 . S
C64 O56 1.315 . S
C64 O59 1.279 . S
C65 O66 1.315 . S
C65 O67 1.279 . S
O66 Cd58 2.223 . S
O66 C65 1.315 . S
O67 Cd57 2.240 . S
O67 C65 1.279 . S
O68 Cd58 2.297 . S
O68 C63 1.247 . S
O69 Cd58 2.439 . S
O69 C63 1.208 . S
O70 Cd71 2.223 . S
O70 C78 1.315 . S
Cd71 O70 2.223 . S
Cd71 O74 2.297 . S
Cd71 O75 2.439 . S
Cd71 O81 2.240 . S
Cd72 O73 2.240 . S
Cd72 O80 2.223 . S
Cd72 O82 2.297 . S
Cd72 O83 2.439 . S
O73 Cd72 2.240 . S
O73 C78 1.279 . S
O74 Cd71 2.297 . S
O74 C76 1.247 . S
O75 Cd71 2.439 . S
O75 C76 1.208 . S
C76 O74 1.247 . S
C76 O75 1.208 . S
C77 O82 1.247 . S
C77 O83 1.208 . S
C78 O70 1.315 . S
C78 O73 1.279 . S
C79 O80 1.315 . S
C79 O81 1.279 . S
O80 Cd72 2.223 . S
O80 C79 1.315 . S
O81 Cd71 2.240 . S
O81 C79 1.279 . S
O82 Cd72 2.297 . S
O82 C77 1.247 . S
O83 Cd72 2.439 . S
O83 C77 1.208 . S
O84 Cd85 2.223 . S
O84 C92 1.315 1_554 S
Cd85 O84 2.223 . S
Cd85 O88 2.297 . S
Cd85 O89 2.439 . S
Cd85 O95 2.240 . S
Cd86 O87 2.240 . S
Cd86 O94 2.223 . S
Cd86 O96 2.297 . S
Cd86 O97 2.439 . S
O87 Cd86 2.240 . S
O87 C92 1.279 1_554 S
O88 Cd85 2.297 . S
O88 C90 1.247 . S
O89 Cd85 2.439 . S
O89 C90 1.208 . S
C90 O88 1.247 . S
C90 O89 1.208 . S
C91 O96 1.247 . S
C91 O97 1.208 . S
C92 O84 1.315 1_556 S
C92 O87 1.279 1_556 S
C93 O94 1.315 . S
C93 O95 1.279 . S
O94 Cd86 2.223 . S
O94 C93 1.315 . S
O95 Cd85 2.240 . S
O95 C93 1.279 . S
O96 Cd86 2.297 . S
O96 C91 1.247 . S
O97 Cd86 2.439 . S
O97 C91 1.208 . S
O98 Cd99 2.223 . S
O98 C106 1.315 1_554 S
Cd99 O98 2.223 . S
Cd99 O102 2.297 . S
Cd99 O103 2.439 . S
Cd99 O109 2.240 . S
Cd100 O101 2.240 . S
Cd100 O108 2.223 . S
Cd100 O110 2.297 . S
Cd100 O111 2.439 . S
O101 Cd100 2.240 . S
O101 C106 1.279 1_554 S
O102 Cd99 2.297 . S
O102 C104 1.247 . S
O103 Cd99 2.439 . S
O103 C104 1.208 . S
C104 O102 1.247 . S
C104 O103 1.208 . S
C105 O110 1.247 . S
C105 O111 1.208 . S
C106 O98 1.315 1_556 S
C106 O101 1.279 1_556 S
C107 O108 1.315 . S
C107 O109 1.279 . S
O108 Cd100 2.223 . S
O108 C107 1.315 . S
O109 Cd99 2.240 . S
O109 C107 1.279 . S
O110 Cd100 2.297 . S
O110 C105 1.247 . S
O111 Cd100 2.439 . S
O111 C105 1.208 . S
O112 Cd113 2.223 . S
O112 C120 1.315 . S
Cd113 O112 2.223 . S
Cd113 O116 2.297 . S
Cd113 O117 2.439 . S
Cd113 O123 2.240 . S
Cd114 O115 2.240 . S
Cd114 O122 2.223 . S
Cd114 O124 2.297 . S
Cd114 O125 2.439 . S
O115 Cd114 2.240 . S
O115 C120 1.279 . S
O116 Cd113 2.297 . S
O116 C118 1.247 . S
O117 Cd113 2.439 . S
O117 C118 1.208 . S
C118 O116 1.247 . S
C118 O117 1.208 . S
C119 O124 1.247 . S
C119 O125 1.208 . S
C120 O112 1.315 . S
C120 O115 1.279 . S
C121 O122 1.315 . S
C121 O123 1.279 . S
O122 Cd114 2.223 . S
O122 C121 1.315 . S
O123 Cd113 2.240 . S
O123 C121 1.279 . S
O124 Cd114 2.297 . S
O124 C119 1.247 . S
O125 Cd114 2.439 . S
O125 C119 1.208 . S
O126 Cd127 2.223 . S
O126 C134 1.315 . S
Cd127 O126 2.223 . S
Cd127 O130 2.297 . S
Cd127 O131 2.439 . S
Cd127 O137 2.240 . S
Cd128 O129 2.240 . S
Cd128 O136 2.223 . S
Cd128 O138 2.297 . S
Cd128 O139 2.439 . S
O129 Cd128 2.240 . S
O129 C134 1.279 . S
O130 Cd127 2.297 . S
O130 C132 1.247 . S
O131 Cd127 2.439 . S
O131 C132 1.208 . S
C132 O130 1.247 . S
C132 O131 1.208 . S
C133 O138 1.247 . S
C133 O139 1.208 . S
C134 O126 1.315 . S
C134 O129 1.279 . S
C135 O136 1.315 . S
C135 O137 1.279 . S
O136 Cd128 2.223 . S
O136 C135 1.315 . S
O137 Cd127 2.240 . S
O137 C135 1.279 . S
O138 Cd128 2.297 . S
O138 C133 1.247 . S
O139 Cd128 2.439 . S
O139 C133 1.208 . S
O140 Cd141 2.223 . S
O140 C148 1.315 . S
Cd141 O140 2.223 . S
Cd141 O144 2.297 . S
Cd141 O145 2.439 . S
Cd141 O151 2.240 . S
Cd142 O143 2.240 . S
Cd142 O150 2.223 . S
Cd142 O152 2.297 . S
Cd142 O153 2.439 . S
O143 Cd142 2.240 . S
O143 C148 1.279 . S
O144 Cd141 2.297 . S
O144 C146 1.247 . S
O145 Cd141 2.439 . S
O145 C146 1.208 . S
C146 O144 1.247 . S
C146 O145 1.208 . S
C147 O152 1.247 . S
C147 O153 1.208 . S
C148 O140 1.315 . S
C148 O143 1.279 . S
C149 O150 1.315 . S
C149 O151 1.279 . S
O150 Cd142 2.223 . S
O150 C149 1.315 . S
O151 Cd141 2.240 . S
O151 C149 1.279 . S
O152 Cd142 2.297 . S
O152 C147 1.247 . S
O153 Cd142 2.439 . S
O153 C147 1.208 . S
O154 Cd155 2.223 . S
O154 C162 1.315 . S
Cd155 O154 2.223 . S
Cd155 O158 2.297 . S
Cd155 O159 2.439 . S
Cd155 O165 2.240 . S
Cd156 O157 2.240 . S
Cd156 O164 2.223 . S
Cd156 O166 2.297 . S
Cd156 O167 2.439 . S
O157 Cd156 2.240 . S
O157 C162 1.279 . S
O158 Cd155 2.297 . S
O158 C160 1.247 . S
O159 Cd155 2.439 . S
O159 C160 1.208 . S
C160 O158 1.247 . S
C160 O159 1.208 . S
C161 O166 1.247 . S
C161 O167 1.208 . S
C162 O154 1.315 . S
C162 O157 1.279 . S
C163 O164 1.315 . S
C163 O165 1.279 . S
O164 Cd156 2.223 . S
O164 C163 1.315 . S
O165 Cd155 2.240 . S
O165 C163 1.279 . S
O166 Cd156 2.297 . S
O166 C161 1.247 . S
O167 Cd156 2.439 . S
O167 C161 1.208 . S
O168 Cd169 2.223 . S
O168 C176 1.315 . S
Cd169 O168 2.223 . S
Cd169 O172 2.297 . S
Cd169 O173 2.439 . S
Cd169 O179 2.240 . S
Cd170 O171 2.240 . S
Cd170 O178 2.223 . S
Cd170 O180 2.297 . S
Cd170 O181 2.439 . S
O171 Cd170 2.240 . S
O171 C176 1.279 . S
O172 Cd169 2.297 . S
O172 C174 1.247 . S
O173 Cd169 2.439 . S
O173 C174 1.208 . S
C174 O172 1.247 . S
C174 O173 1.208 . S
C175 O180 1.247 . S
C175 O181 1.208 . S
C176 O168 1.315 . S
C176 O171 1.279 . S
C177 O178 1.315 . S
C177 O179 1.279 . S
O178 Cd170 2.223 . S
O178 C177 1.315 . S
O179 Cd169 2.240 . S
O179 C177 1.279 . S
O180 Cd170 2.297 . S
O180 C175 1.247 . S
O181 Cd170 2.439 . S
O181 C175 1.208 . S
O182 Cd183 2.223 . S
O182 C190 1.315 . S
Cd183 O182 2.223 . S
Cd183 O186 2.297 . S
Cd183 O187 2.439 . S
Cd183 O193 2.240 . S
Cd184 O185 2.240 . S
Cd184 O192 2.223 . S
Cd184 O194 2.297 . S
Cd184 O195 2.439 . S
O185 Cd184 2.240 . S
O185 C190 1.279 . S
O186 Cd183 2.297 . S
O186 C188 1.247 . S
O187 Cd183 2.439 . S
O187 C188 1.208 . S
C188 O186 1.247 . S
C188 O187 1.208 . S
C189 O194 1.247 . S
C189 O195 1.208 . S
C190 O182 1.315 . S
C190 O185 1.279 . S
C191 O192 1.315 . S
C191 O193 1.279 . S
O192 Cd184 2.223 . S
O192 C191 1.315 . S
O193 Cd183 2.240 . S
O193 C191 1.279 . S
O194 Cd184 2.297 . S
O194 C189 1.247 . S
O195 Cd184 2.439 . S
O195 C189 1.208 . S
O196 Cd197 2.223 . S
O196 C204 1.315 . S
Cd197 O196 2.223 . S
Cd197 O200 2.297 . S
Cd197 O201 2.439 . S
Cd197 O207 2.240 . S
Cd198 O199 2.240 . S
Cd198 O206 2.223 . S
Cd198 O208 2.297 . S
Cd198 O209 2.439 . S
O199 Cd198 2.240 . S
O199 C204 1.279 . S
O200 Cd197 2.297 . S
O200 C202 1.247 . S
O201 Cd197 2.439 . S
O201 C202 1.208 . S
C202 O200 1.247 . S
C202 O201 1.208 . S
C203 O208 1.247 . S
C203 O209 1.208 . S
C204 O196 1.315 . S
C204 O199 1.279 . S
C205 O206 1.315 . S
C205 O207 1.279 . S
O206 Cd198 2.223 . S
O206 C205 1.315 . S
O207 Cd197 2.240 . S
O207 C205 1.279 . S
O208 Cd198 2.297 . S
O208 C203 1.247 . S
O209 Cd198 2.439 . S
O209 C203 1.208 . S
O210 Cd211 2.223 . S
O210 C218 1.315 . S
Cd211 O210 2.223 . S
Cd211 O214 2.297 . S
Cd211 O215 2.439 . S
Cd211 O221 2.240 . S
Cd212 O213 2.240 . S
Cd212 O220 2.223 . S
Cd212 O222 2.297 . S
Cd212 O223 2.439 . S
O213 Cd212 2.240 . S
O213 C218 1.279 . S
O214 Cd211 2.297 . S
O214 C216 1.247 . S
O215 Cd211 2.439 . S
O215 C216 1.208 . S
C216 O214 1.247 . S
C216 O215 1.208 . S
C217 O222 1.247 . S
C217 O223 1.208 . S
C218 O210 1.315 . S
C218 O213 1.279 . S
C219 O220 1.315 . S
C219 O221 1.279 . S
O220 Cd212 2.223 . S
O220 C219 1.315 . S
O221 Cd211 2.240 . S
O221 C219 1.279 . S
O222 Cd212 2.297 . S
O222 C217 1.247 . S
O223 Cd212 2.439 . S
O223 C217 1.208 . S
O224 Cd225 2.223 . S
O224 C232 1.315 . S
Cd225 O224 2.223 . S
Cd225 O228 2.297 . S
Cd225 O229 2.439 . S
Cd225 O235 2.240 . S
Cd226 O227 2.240 . S
Cd226 O234 2.223 . S
Cd226 O236 2.297 . S
Cd226 O237 2.439 . S
O227 Cd226 2.240 . S
O227 C232 1.279 . S
O228 Cd225 2.297 . S
O228 C230 1.247 . S
O229 Cd225 2.439 . S
O229 C230 1.208 . S
C230 O228 1.247 . S
C230 O229 1.208 . S
C231 O236 1.247 . S
C231 O237 1.208 . S
C232 O224 1.315 . S
C232 O227 1.279 . S
C233 O234 1.315 . S
C233 O235 1.279 . S
O234 Cd226 2.223 . S
O234 C233 1.315 . S
O235 Cd225 2.240 . S
O235 C233 1.279 . S
O236 Cd226 2.297 . S
O236 C231 1.247 . S
O237 Cd226 2.439 . S
O237 C231 1.208 . S
O238 Cd239 2.223 . S
O238 C246 1.315 . S
Cd239 O238 2.223 . S
Cd239 O242 2.297 . S
Cd239 O243 2.439 . S
Cd239 O249 2.240 . S
Cd240 O241 2.240 . S
Cd240 O248 2.223 . S
Cd240 O250 2.297 . S
Cd240 O251 2.439 . S
O241 Cd240 2.240 . S
O241 C246 1.279 . S
O242 Cd239 2.297 . S
O242 C244 1.247 . S
O243 Cd239 2.439 . S
O243 C244 1.208 . S
C244 O242 1.247 . S
C244 O243 1.208 . S
C245 O250 1.247 . S
C245 O251 1.208 . S
C246 O238 1.315 . S
C246 O241 1.279 . S
C247 O248 1.315 . S
C247 O249 1.279 . S
O248 Cd240 2.223 . S
O248 C247 1.315 . S
O249 Cd239 2.240 . S
O249 C247 1.279 . S
O250 Cd240 2.297 . S
O250 C245 1.247 . S
O251 Cd240 2.439 . S
O251 C245 1.208 . S
O252 Cd253 2.223 . S
O252 C260 1.315 . S
Cd253 O252 2.223 . S
Cd253 O256 2.297 . S
Cd253 O257 2.439 . S
Cd253 O263 2.240 . S
Cd254 O255 2.240 . S
Cd254 O262 2.223 . S
Cd254 O264 2.297 . S
Cd254 O265 2.439 . S
O255 Cd254 2.240 . S
O255 C260 1.279 . S
O256 Cd253 2.297 . S
O256 C258 1.247 . S
O257 Cd253 2.439 . S
O257 C258 1.208 . S
C258 O256 1.247 . S
C258 O257 1.208 . S
C259 O264 1.247 . S
C259 O265 1.208 . S
C260 O252 1.315 . S
C260 O255 1.279 . S
C261 O262 1.315 . S
C261 O263 1.279 . S
O262 Cd254 2.223 . S
O262 C261 1.315 . S
O263 Cd253 2.240 . S
O263 C261 1.279 . S
O264 Cd254 2.297 . S
O264 C259 1.247 . S
O265 Cd254 2.439 . S
O265 C259 1.208 . S
O266 Cd267 2.223 . S
O266 C274 1.315 . S
Cd267 O266 2.223 . S
Cd267 O270 2.297 . S
Cd267 O271 2.439 . S
Cd267 O277 2.240 . S
Cd268 O269 2.240 . S
Cd268 O276 2.223 . S
Cd268 O278 2.297 . S
Cd268 O279 2.439 . S
O269 Cd268 2.240 . S
O269 C274 1.279 . S
O270 Cd267 2.297 . S
O270 C272 1.247 . S
O271 Cd267 2.439 . S
O271 C272 1.208 . S
C272 O270 1.247 . S
C272 O271 1.208 . S
C273 O278 1.247 . S
C273 O279 1.208 . S
C274 O266 1.315 . S
C274 O269 1.279 . S
C275 O276 1.315 . S
C275 O277 1.279 . S
O276 Cd268 2.223 . S
O276 C275 1.315 . S
O277 Cd267 2.240 . S
O277 C275 1.279 . S
O278 Cd268 2.297 . S
O278 C273 1.247 . S
O279 Cd268 2.439 . S
O279 C273 1.208 . S
O280 Cd281 2.223 . S
O280 C288 1.315 . S
Cd281 O280 2.223 . S
Cd281 O284 2.297 . S
Cd281 O285 2.439 . S
Cd281 O291 2.240 . S
Cd282 O283 2.240 . S
Cd282 O290 2.223 . S
Cd282 O292 2.297 . S
Cd282 O293 2.439 . S
O283 Cd282 2.240 . S
O283 C288 1.279 . S
O284 Cd281 2.297 . S
O284 C286 1.247 . S
O285 Cd281 2.439 . S
O285 C286 1.208 . S
C286 O284 1.247 . S
C286 O285 1.208 . S
C287 O292 1.247 . S
C287 O293 1.208 . S
C288 O280 1.315 . S
C288 O283 1.279 . S
C289 O290 1.315 . S
C289 O291 1.279 . S
O290 Cd282 2.223 . S
O290 C289 1.315 . S
O291 Cd281 2.240 . S
O291 C289 1.279 . S
O292 Cd282 2.297 . S
O292 C287 1.247 . S
O293 Cd282 2.439 . S
O293 C287 1.208 . S
O294 Cd295 2.223 . S
O294 C302 1.315 . S
Cd295 O294 2.223 . S
Cd295 O298 2.297 . S
Cd295 O299 2.439 . S
Cd295 O305 2.240 . S
Cd296 O297 2.240 . S
Cd296 O304 2.223 . S
Cd296 O306 2.297 . S
Cd296 O307 2.439 . S
O297 Cd296 2.240 . S
O297 C302 1.279 . S
O298 Cd295 2.297 . S
O298 C300 1.247 . S
O299 Cd295 2.439 . S
O299 C300 1.208 . S
C300 O298 1.247 . S
C300 O299 1.208 . S
C301 O306 1.247 . S
C301 O307 1.208 . S
C302 O294 1.315 . S
C302 O297 1.279 . S
C303 O304 1.315 . S
C303 O305 1.279 . S
O304 Cd296 2.223 . S
O304 C303 1.315 . S
O305 Cd295 2.240 . S
O305 C303 1.279 . S
O306 Cd296 2.297 . S
O306 C301 1.247 . S
O307 Cd296 2.439 . S
O307 C301 1.208 . S
O308 Cd309 2.223 . S
O308 C316 1.315 . S
Cd309 O308 2.223 . S
Cd309 O312 2.297 . S
Cd309 O313 2.439 . S
Cd309 O319 2.240 . S
Cd310 O311 2.240 . S
Cd310 O318 2.223 . S
Cd310 O320 2.297 . S
Cd310 O321 2.439 . S
O311 Cd310 2.240 . S
O311 C316 1.279 . S
O312 Cd309 2.297 . S
O312 C314 1.247 . S
O313 Cd309 2.439 . S
O313 C314 1.208 . S
C314 O312 1.247 . S
C314 O313 1.208 . S
C315 O320 1.247 . S
C315 O321 1.208 . S
C316 O308 1.315 . S
C316 O311 1.279 . S
C317 O318 1.315 . S
C317 O319 1.279 . S
O318 Cd310 2.223 . S
O318 C317 1.315 . S
O319 Cd309 2.240 . S
O319 C317 1.279 . S
O320 Cd310 2.297 . S
O320 C315 1.247 . S
O321 Cd310 2.439 . S
O321 C315 1.208 . S
O322 Cd323 2.223 . S
O322 C330 1.315 . S
Cd323 O322 2.223 . S
Cd323 O326 2.297 . S
Cd323 O327 2.439 . S
Cd323 O333 2.240 . S
Cd324 O325 2.240 . S
Cd324 O332 2.223 . S
Cd324 O334 2.297 . S
Cd324 O335 2.439 . S
O325 Cd324 2.240 . S
O325 C330 1.279 . S
O326 Cd323 2.297 . S
O326 C328 1.247 . S
O327 Cd323 2.439 . S
O327 C328 1.208 . S
C328 O326 1.247 . S
C328 O327 1.208 . S
C329 O334 1.247 . S
C329 O335 1.208 . S
C330 O322 1.315 . S
C330 O325 1.279 . S
C331 O332 1.315 . S
C331 O333 1.279 . S
O332 Cd324 2.223 . S
O332 C331 1.315 . S
O333 Cd323 2.240 . S
O333 C331 1.279 . S
O334 Cd324 2.297 . S
O334 C329 1.247 . S
O335 Cd324 2.439 . S
O335 C329 1.208 . S
O336 Cd337 2.223 . S
O336 C344 1.315 . S
Cd337 O336 2.223 . S
Cd337 O340 2.297 . S
Cd337 O341 2.439 . S
Cd337 O347 2.240 . S
Cd338 O339 2.240 . S
Cd338 O346 2.223 . S
Cd338 O348 2.297 . S
Cd338 O349 2.439 . S
O339 Cd338 2.240 . S
O339 C344 1.279 . S
O340 Cd337 2.297 . S
O340 C342 1.247 . S
O341 Cd337 2.439 . S
O341 C342 1.208 . S
C342 O340 1.247 . S
C342 O341 1.208 . S
C343 O348 1.247 . S
C343 O349 1.208 . S
C344 O336 1.315 . S
C344 O339 1.279 . S
C345 O346 1.315 . S
C345 O347 1.279 . S
O346 Cd338 2.223 . S
O346 C345 1.315 . S
O347 Cd337 2.240 . S
O347 C345 1.279 . S
O348 Cd338 2.297 . S
O348 C343 1.247 . S
O349 Cd338 2.439 . S
O349 C343 1.208 . S
O350 Cd351 2.223 . S
O350 C358 1.315 . S
Cd351 O350 2.223 . S
Cd351 O354 2.297 . S
Cd351 O355 2.439 . S
Cd351 O361 2.240 . S
Cd352 O353 2.240 . S
Cd352 O360 2.223 . S
Cd352 O362 2.297 . S
Cd352 O363 2.439 . S
O353 Cd352 2.240 . S
O353 C358 1.279 . S
O354 Cd351 2.297 . S
O354 C356 1.247 . S
O355 Cd351 2.439 . S
O355 C356 1.208 . S
C356 O354 1.247 . S
C356 O355 1.208 . S
C357 O362 1.247 . S
C357 O363 1.208 . S
C358 O350 1.315 . S
C358 O353 1.279 . S
C359 O360 1.315 . S
C359 O361 1.279 . S
O360 Cd352 2.223 . S
O360 C359 1.315 . S
O361 Cd351 2.240 . S
O361 C359 1.279 . S
O362 Cd352 2.297 . S
O362 C357 1.247 . S
O363 Cd352 2.439 . S
O363 C357 1.208 . S
O364 Cd365 2.223 . S
O364 C372 1.315 . S
Cd365 O364 2.223 . S
Cd365 O368 2.297 . S
Cd365 O369 2.439 . S
Cd365 O375 2.240 . S
Cd366 O367 2.240 . S
Cd366 O374 2.223 . S
Cd366 O376 2.297 . S
Cd366 O377 2.439 . S
O367 Cd366 2.240 . S
O367 C372 1.279 . S
O368 Cd365 2.297 . S
O368 C370 1.247 . S
O369 Cd365 2.439 . S
O369 C370 1.208 . S
C370 O368 1.247 . S
C370 O369 1.208 . S
C371 O376 1.247 . S
C371 O377 1.208 . S
C372 O364 1.315 . S
C372 O367 1.279 . S
C373 O374 1.315 1_554 S
C373 O375 1.279 1_554 S
O374 Cd366 2.223 . S
O374 C373 1.315 1_556 S
O375 Cd365 2.240 . S
O375 C373 1.279 1_556 S
O376 Cd366 2.297 . S
O376 C371 1.247 . S
O377 Cd366 2.439 . S
O377 C371 1.208 . S
O378 Cd379 2.223 . S
O378 C386 1.315 . S
Cd379 O378 2.223 . S
Cd379 O382 2.297 . S
Cd379 O383 2.439 . S
Cd379 O389 2.240 . S
Cd380 O381 2.240 . S
Cd380 O388 2.223 . S
Cd380 O390 2.297 . S
Cd380 O391 2.439 . S
O381 Cd380 2.240 . S
O381 C386 1.279 . S
O382 Cd379 2.297 . S
O382 C384 1.247 . S
O383 Cd379 2.439 . S
O383 C384 1.208 . S
C384 O382 1.247 . S
C384 O383 1.208 . S
C385 O390 1.247 . S
C385 O391 1.208 . S
C386 O378 1.315 . S
C386 O381 1.279 . S
C387 O388 1.315 1_554 S
C387 O389 1.279 1_554 S
O388 Cd380 2.223 . S
O388 C387 1.315 1_556 S
O389 Cd379 2.240 . S
O389 C387 1.279 1_556 S
O390 Cd380 2.297 . S
O390 C385 1.247 . S
O391 Cd380 2.439 . S
O391 C385 1.208 . S
O392 Cd393 2.223 . S
O392 C400 1.315 . S
Cd393 O392 2.223 . S
Cd393 O396 2.297 . S
Cd393 O397 2.439 . S
Cd393 O403 2.240 . S
Cd394 O395 2.240 . S
Cd394 O402 2.223 . S
Cd394 O404 2.297 . S
Cd394 O405 2.439 . S
O395 Cd394 2.240 . S
O395 C400 1.279 . S
O396 Cd393 2.297 . S
O396 C398 1.247 . S
O397 Cd393 2.439 . S
O397 C398 1.208 . S
C398 O396 1.247 . S
C398 O397 1.208 . S
C399 O404 1.247 . S
C399 O405 1.208 . S
C400 O392 1.315 . S
C400 O395 1.279 . S
C401 O402 1.315 . S
C401 O403 1.279 . S
O402 Cd394 2.223 . S
O402 C401 1.315 . S
O403 Cd393 2.240 . S
O403 C401 1.279 . S
O404 Cd394 2.297 . S
O404 C399 1.247 . S
O405 Cd394 2.439 . S
O405 C399 1.208 . S
O406 Cd407 2.223 . S
O406 C414 1.315 . S
Cd407 O406 2.223 . S
Cd407 O410 2.297 . S
Cd407 O411 2.439 . S
Cd407 O417 2.240 . S
Cd408 O409 2.240 . S
Cd408 O416 2.223 . S
Cd408 O418 2.297 . S
Cd408 O419 2.439 . S
O409 Cd408 2.240 . S
O409 C414 1.279 . S
O410 Cd407 2.297 . S
O410 C412 1.247 . S
O411 Cd407 2.439 . S
O411 C412 1.208 . S
C412 O410 1.247 . S
C412 O411 1.208 . S
C413 O418 1.247 . S
C413 O419 1.208 . S
C414 O406 1.315 . S
C414 O409 1.279 . S
C415 O416 1.315 . S
C415 O417 1.279 . S
O416 Cd408 2.223 . S
O416 C415 1.315 . S
O417 Cd407 2.240 . S
O417 C415 1.279 . S
O418 Cd408 2.297 . S
O418 C413 1.247 . S
O419 Cd408 2.439 . S
O419 C413 1.208 . S
O420 Cd421 2.223 . S
O420 C428 1.315 1_554 S
Cd421 O420 2.223 . S
Cd421 O424 2.297 . S
Cd421 O425 2.439 . S
Cd421 O431 2.240 . S
Cd422 O423 2.240 . S
Cd422 O430 2.223 . S
Cd422 O432 2.297 . S
Cd422 O433 2.439 . S
O423 Cd422 2.240 . S
O423 C428 1.279 1_554 S
O424 Cd421 2.297 . S
O424 C426 1.247 . S
O425 Cd421 2.439 . S
O425 C426 1.208 . S
C426 O424 1.247 . S
C426 O425 1.208 . S
C427 O432 1.247 . S
C427 O433 1.208 . S
C428 O420 1.315 1_556 S
C428 O423 1.279 1_556 S
C429 O430 1.315 . S
C429 O431 1.279 . S
O430 Cd422 2.223 . S
O430 C429 1.315 . S
O431 Cd421 2.240 . S
O431 C429 1.279 . S
O432 Cd422 2.297 . S
O432 C427 1.247 . S
O433 Cd422 2.439 . S
O433 C427 1.208 . S
O434 Cd435 2.223 . S
O434 C442 1.315 1_554 S
Cd435 O434 2.223 . S
Cd435 O438 2.297 . S
Cd435 O439 2.439 . S
Cd435 O445 2.240 . S
Cd436 O437 2.240 . S
Cd436 O444 2.223 . S
Cd436 O446 2.297 . S
Cd436 O447 2.439 . S
O437 Cd436 2.240 . S
O437 C442 1.279 1_554 S
O438 Cd435 2.297 . S
O438 C440 1.247 . S
O439 Cd435 2.439 . S
O439 C440 1.208 . S
C440 O438 1.247 . S
C440 O439 1.208 . S
C441 O446 1.247 . S
C441 O447 1.208 . S
C442 O434 1.315 1_556 S
C442 O437 1.279 1_556 S
C443 O444 1.315 . S
C443 O445 1.279 . S
O444 Cd436 2.223 . S
O444 C443 1.315 . S
O445 Cd435 2.240 . S
O445 C443 1.279 . S
O446 Cd436 2.297 . S
O446 C441 1.247 . S
O447 Cd436 2.439 . S
O447 C441 1.208 . S
H448 C460 0.930 . S
H449 C462 0.930 . S
H450 C463 0.930 . S
H451 C467 0.959 . S
H452 C467 0.959 . S
H453 C467 0.961 . S
H454 C468 0.960 . S
H455 C468 0.961 . S
H456 C468 0.959 . S
H457 C471 0.929 . S
H458 C472 0.931 . S
H459 C474 0.930 . S
C460 H448 0.930 . S
C460 C461 1.399 . S
C460 C465 1.399 . S
C461 C460 1.399 . S
C461 C462 1.376 . S
C462 H449 0.930 . S
C462 C461 1.376 . S
C462 C463 1.388 . S
C463 H450 0.930 . S
C463 C462 1.388 . S
C463 C464 1.390 . S
C464 C463 1.390 . S
C464 C465 1.394 . S
C464 C470 1.465 . S
C465 C460 1.399 . S
C465 C464 1.394 . S
C465 C466 1.516 . S
C466 C465 1.516 . S
C466 C467 1.502 . S
C466 C468 1.561 . S
C466 C469 1.526 . S
C467 H451 0.959 . S
C467 H452 0.959 . S
C467 H453 0.961 . S
C467 C466 1.502 . S
C468 H454 0.960 . S
C468 H455 0.961 . S
C468 H456 0.959 . S
C468 C466 1.561 . S
C469 C466 1.526 . S
C469 C470 1.396 . S
C469 C474 1.390 . S
C470 C464 1.465 . S
C470 C469 1.396 . S
C470 C471 1.399 . S
C471 H457 0.929 . S
C471 C470 1.399 . S
C471 C472 1.385 . S
C472 H458 0.931 . S
C472 C471 1.385 . S
C472 C473 1.389 . S
C473 C472 1.389 . S
C473 C474 1.387 . S
C474 H459 0.930 . S
C474 C469 1.390 . S
C474 C473 1.387 . S
H475 C487 0.930 . S
H476 C489 0.930 . S
H477 C490 0.930 . S
H478 C494 0.959 . S
H479 C494 0.959 . S
H480 C494 0.961 . S
H481 C495 0.960 . S
H482 C495 0.961 . S
H483 C495 0.959 . S
H484 C498 0.929 . S
H485 C499 0.931 . S
H486 C501 0.930 . S
C487 H475 0.930 . S
C487 C488 1.399 . S
C487 C492 1.399 . S
C488 C487 1.399 . S
C488 C489 1.376 . S
C489 H476 0.930 . S
C489 C488 1.376 . S
C489 C490 1.388 . S
C490 H477 0.930 . S
C490 C489 1.388 . S
C490 C491 1.390 . S
C491 C490 1.390 . S
C491 C492 1.394 . S
C491 C497 1.465 . S
C492 C487 1.399 . S
C492 C491 1.394 . S
C492 C493 1.516 . S
C493 C492 1.516 . S
C493 C494 1.502 . S
C493 C495 1.561 . S
C493 C496 1.526 . S
C494 H478 0.959 . S
C494 H479 0.959 . S
C494 H480 0.961 . S
C494 C493 1.502 . S
C495 H481 0.960 . S
C495 H482 0.961 . S
C495 H483 0.959 . S
C495 C493 1.561 . S
C496 C493 1.526 . S
C496 C497 1.396 . S
C496 C501 1.390 . S
C497 C491 1.465 . S
C497 C496 1.396 . S
C497 C498 1.399 . S
C498 H484 0.929 . S
C498 C497 1.399 . S
C498 C499 1.385 . S
C499 H485 0.931 . S
C499 C498 1.385 . S
C499 C500 1.389 . S
C500 C499 1.389 . S
C500 C501 1.387 . S
C501 H486 0.930 . S
C501 C496 1.390 . S
C501 C500 1.387 . S
H502 C514 0.930 . S
H503 C516 0.930 . S
H504 C517 0.930 . S
H505 C521 0.959 . S
H506 C521 0.959 . S
H507 C521 0.961 . S
H508 C522 0.960 . S
H509 C522 0.961 . S
H510 C522 0.959 . S
H511 C525 0.929 . S
H512 C526 0.931 . S
H513 C528 0.930 . S
C514 H502 0.930 . S
C514 C515 1.399 . S
C514 C519 1.399 . S
C515 C514 1.399 . S
C515 C516 1.376 . S
C516 H503 0.930 . S
C516 C515 1.376 . S
C516 C517 1.388 . S
C517 H504 0.930 . S
C517 C516 1.388 . S
C517 C518 1.390 . S
C518 C517 1.390 . S
C518 C519 1.394 . S
C518 C524 1.465 . S
C519 C514 1.399 . S
C519 C518 1.394 . S
C519 C520 1.516 . S
C520 C519 1.516 . S
C520 C521 1.502 . S
C520 C522 1.561 . S
C520 C523 1.526 . S
C521 H505 0.959 . S
C521 H506 0.959 . S
C521 H507 0.961 . S
C521 C520 1.502 . S
C522 H508 0.960 . S
C522 H509 0.961 . S
C522 H510 0.959 . S
C522 C520 1.561 . S
C523 C520 1.526 . S
C523 C524 1.396 . S
C523 C528 1.390 . S
C524 C518 1.465 . S
C524 C523 1.396 . S
C524 C525 1.399 . S
C525 H511 0.929 . S
C525 C524 1.399 . S
C525 C526 1.385 . S
C526 H512 0.931 . S
C526 C525 1.385 . S
C526 C527 1.389 . S
C527 C526 1.389 . S
C527 C528 1.387 . S
C528 H513 0.930 . S
C528 C523 1.390 . S
C528 C527 1.387 . S
H529 C541 0.930 . S
H530 C543 0.930 . S
H531 C544 0.930 . S
H532 C548 0.959 . S
H533 C548 0.959 . S
H534 C548 0.961 . S
H535 C549 0.960 . S
H536 C549 0.961 . S
H537 C549 0.959 . S
H538 C552 0.929 . S
H539 C553 0.931 . S
H540 C555 0.930 . S
C541 H529 0.930 . S
C541 C542 1.399 . S
C541 C546 1.399 . S
C542 C541 1.399 . S
C542 C543 1.376 . S
C543 H530 0.930 . S
C543 C542 1.376 . S
C543 C544 1.388 . S
C544 H531 0.930 . S
C544 C543 1.388 . S
C544 C545 1.390 . S
C545 C544 1.390 . S
C545 C546 1.394 . S
C545 C551 1.465 . S
C546 C541 1.399 . S
C546 C545 1.394 . S
C546 C547 1.516 . S
C547 C546 1.516 . S
C547 C548 1.502 . S
C547 C549 1.561 . S
C547 C550 1.526 . S
C548 H532 0.959 . S
C548 H533 0.959 . S
C548 H534 0.961 . S
C548 C547 1.502 . S
C549 H535 0.960 . S
C549 H536 0.961 . S
C549 H537 0.959 . S
C549 C547 1.561 . S
C550 C547 1.526 . S
C550 C551 1.396 . S
C550 C555 1.390 . S
C551 C545 1.465 . S
C551 C550 1.396 . S
C551 C552 1.399 . S
C552 H538 0.929 . S
C552 C551 1.399 . S
C552 C553 1.385 . S
C553 H539 0.931 . S
C553 C552 1.385 . S
C553 C554 1.389 . S
C554 C553 1.389 . S
C554 C555 1.387 . S
C555 H540 0.930 . S
C555 C550 1.390 . S
C555 C554 1.387 . S
H556 C568 0.930 . S
H557 C570 0.930 . S
H558 C571 0.930 . S
H559 C575 0.959 . S
H560 C575 0.959 . S
H561 C575 0.961 . S
H562 C576 0.960 . S
H563 C576 0.961 . S
H564 C576 0.959 . S
H565 C579 0.929 . S
H566 C580 0.931 . S
H567 C582 0.930 . S
C568 H556 0.930 . S
C568 C569 1.399 . S
C568 C573 1.399 . S
C569 C568 1.399 . S
C569 C570 1.376 . S
C570 H557 0.930 . S
C570 C569 1.376 . S
C570 C571 1.388 . S
C571 H558 0.930 . S
C571 C570 1.388 . S
C571 C572 1.390 . S
C572 C571 1.390 . S
C572 C573 1.394 . S
C572 C578 1.465 . S
C573 C568 1.399 . S
C573 C572 1.394 . S
C573 C574 1.516 . S
C574 C573 1.516 . S
C574 C575 1.502 . S
C574 C576 1.561 . S
C574 C577 1.526 . S
C575 H559 0.959 . S
C575 H560 0.959 . S
C575 H561 0.961 . S
C575 C574 1.502 . S
C576 H562 0.960 . S
C576 H563 0.961 . S
C576 H564 0.959 . S
C576 C574 1.561 . S
C577 C574 1.526 . S
C577 C578 1.396 . S
C577 C582 1.390 . S
C578 C572 1.465 . S
C578 C577 1.396 . S
C578 C579 1.399 . S
C579 H565 0.929 . S
C579 C578 1.399 . S
C579 C580 1.385 . S
C580 H566 0.931 . S
C580 C579 1.385 . S
C580 C581 1.389 . S
C581 C580 1.389 . S
C581 C582 1.387 . S
C582 H567 0.930 . S
C582 C577 1.390 . S
C582 C581 1.387 . S
H583 C595 0.930 . S
H584 C597 0.930 . S
H585 C598 0.930 . S
H586 C602 0.959 . S
H587 C602 0.959 . S
H588 C602 0.961 . S
H589 C603 0.960 . S
H590 C603 0.961 . S
H591 C603 0.959 . S
H592 C606 0.929 . S
H593 C607 0.931 . S
H594 C609 0.930 . S
C595 H583 0.930 . S
C595 C596 1.399 . S
C595 C600 1.399 . S
C596 C595 1.399 . S
C596 C597 1.376 . S
C597 H584 0.930 . S
C597 C596 1.376 . S
C597 C598 1.388 . S
C598 H585 0.930 . S
C598 C597 1.388 . S
C598 C599 1.390 . S
C599 C598 1.390 . S
C599 C600 1.394 . S
C599 C605 1.465 . S
C600 C595 1.399 . S
C600 C599 1.394 . S
C600 C601 1.516 . S
C601 C600 1.516 . S
C601 C602 1.502 . S
C601 C603 1.561 . S
C601 C604 1.526 . S
C602 H586 0.959 . S
C602 H587 0.959 . S
C602 H588 0.961 . S
C602 C601 1.502 . S
C603 H589 0.960 . S
C603 H590 0.961 . S
C603 H591 0.959 . S
C603 C601 1.561 . S
C604 C601 1.526 . S
C604 C605 1.396 . S
C604 C609 1.390 . S
C605 C599 1.465 . S
C605 C604 1.396 . S
C605 C606 1.399 . S
C606 H592 0.929 . S
C606 C605 1.399 . S
C606 C607 1.385 . S
C607 H593 0.931 . S
C607 C606 1.385 . S
C607 C608 1.389 . S
C608 C607 1.389 . S
C608 C609 1.387 . S
C609 H594 0.930 . S
C609 C604 1.390 . S
C609 C608 1.387 . S
H610 C622 0.930 . S
H611 C624 0.930 . S
H612 C625 0.930 . S
H613 C629 0.959 . S
H614 C629 0.959 . S
H615 C629 0.961 . S
H616 C630 0.960 . S
H617 C630 0.961 . S
H618 C630 0.959 . S
H619 C633 0.929 . S
H620 C634 0.931 . S
H621 C636 0.930 . S
C622 H610 0.930 . S
C622 C623 1.399 . S
C622 C627 1.399 . S
C623 C622 1.399 . S
C623 C624 1.376 . S
C624 H611 0.930 . S
C624 C623 1.376 . S
C624 C625 1.388 . S
C625 H612 0.930 . S
C625 C624 1.388 . S
C625 C626 1.390 . S
C626 C625 1.390 . S
C626 C627 1.394 . S
C626 C632 1.465 . S
C627 C622 1.399 . S
C627 C626 1.394 . S
C627 C628 1.516 . S
C628 C627 1.516 . S
C628 C629 1.502 . S
C628 C630 1.561 . S
C628 C631 1.526 . S
C629 H613 0.959 . S
C629 H614 0.959 . S
C629 H615 0.961 . S
C629 C628 1.502 . S
C630 H616 0.960 . S
C630 H617 0.961 . S
C630 H618 0.959 . S
C630 C628 1.561 . S
C631 C628 1.526 . S
C631 C632 1.396 . S
C631 C636 1.390 . S
C632 C626 1.465 . S
C632 C631 1.396 . S
C632 C633 1.399 . S
C633 H619 0.929 . S
C633 C632 1.399 . S
C633 C634 1.385 . S
C634 H620 0.931 . S
C634 C633 1.385 . S
C634 C635 1.389 . S
C635 C634 1.389 . S
C635 C636 1.387 . S
C636 H621 0.930 . S
C636 C631 1.390 . S
C636 C635 1.387 . S
H637 C649 0.930 . S
H638 C651 0.930 . S
H639 C652 0.930 . S
H640 C656 0.959 . S
H641 C656 0.959 . S
H642 C656 0.961 . S
H643 C657 0.960 . S
H644 C657 0.961 . S
H645 C657 0.959 . S
H646 C660 0.929 . S
H647 C661 0.931 . S
H648 C663 0.930 . S
C649 H637 0.930 . S
C649 C650 1.399 . S
C649 C654 1.399 . S
C650 C649 1.399 . S
C650 C651 1.376 . S
C651 H638 0.930 . S
C651 C650 1.376 . S
C651 C652 1.388 . S
C652 H639 0.930 . S
C652 C651 1.388 . S
C652 C653 1.390 . S
C653 C652 1.390 . S
C653 C654 1.394 . S
C653 C659 1.465 . S
C654 C649 1.399 . S
C654 C653 1.394 . S
C654 C655 1.516 . S
C655 C654 1.516 . S
C655 C656 1.502 . S
C655 C657 1.561 . S
C655 C658 1.526 . S
C656 H640 0.959 . S
C656 H641 0.959 . S
C656 H642 0.961 . S
C656 C655 1.502 . S
C657 H643 0.960 . S
C657 H644 0.961 . S
C657 H645 0.959 . S
C657 C655 1.561 . S
C658 C655 1.526 . S
C658 C659 1.396 . S
C658 C663 1.390 . S
C659 C653 1.465 . S
C659 C658 1.396 . S
C659 C660 1.399 . S
C660 H646 0.929 . S
C660 C659 1.399 . S
C660 C661 1.385 . S
C661 H647 0.931 . S
C661 C660 1.385 . S
C661 C662 1.389 . S
C662 C661 1.389 . S
C662 C663 1.387 . S
C663 H648 0.930 . S
C663 C658 1.390 . S
C663 C662 1.387 . S
H664 C676 0.930 . S
H665 C678 0.930 . S
H666 C679 0.930 . S
H667 C683 0.959 . S
H668 C683 0.959 . S
H669 C683 0.961 . S
H670 C684 0.960 . S
H671 C684 0.961 . S
H672 C684 0.959 . S
H673 C687 0.929 . S
H674 C688 0.931 . S
H675 C690 0.930 . S
C676 H664 0.930 . S
C676 C677 1.399 . S
C676 C681 1.399 . S
C677 C676 1.399 . S
C677 C678 1.376 . S
C678 H665 0.930 . S
C678 C677 1.376 . S
C678 C679 1.388 . S
C679 H666 0.930 . S
C679 C678 1.388 . S
C679 C680 1.390 . S
C680 C679 1.390 . S
C680 C681 1.394 . S
C680 C686 1.465 . S
C681 C676 1.399 . S
C681 C680 1.394 . S
C681 C682 1.516 . S
C682 C681 1.516 . S
C682 C683 1.502 . S
C682 C684 1.561 . S
C682 C685 1.526 . S
C683 H667 0.959 . S
C683 H668 0.959 . S
C683 H669 0.961 . S
C683 C682 1.502 . S
C684 H670 0.960 . S
C684 H671 0.961 . S
C684 H672 0.959 . S
C684 C682 1.561 . S
C685 C682 1.526 . S
C685 C686 1.396 . S
C685 C690 1.390 . S
C686 C680 1.465 . S
C686 C685 1.396 . S
C686 C687 1.399 . S
C687 H673 0.929 . S
C687 C686 1.399 . S
C687 C688 1.385 . S
C688 H674 0.931 . S
C688 C687 1.385 . S
C688 C689 1.389 . S
C689 C688 1.389 . S
C689 C690 1.387 . S
C690 H675 0.930 . S
C690 C685 1.390 . S
C690 C689 1.387 . S
H691 C703 0.930 . S
H692 C705 0.930 . S
H693 C706 0.930 . S
H694 C710 0.959 . S
H695 C710 0.959 . S
H696 C710 0.961 . S
H697 C711 0.960 . S
H698 C711 0.961 . S
H699 C711 0.959 . S
H700 C714 0.929 . S
H701 C715 0.931 . S
H702 C717 0.930 . S
C703 H691 0.930 . S
C703 C704 1.399 . S
C703 C708 1.399 . S
C704 C703 1.399 . S
C704 C705 1.376 . S
C705 H692 0.930 . S
C705 C704 1.376 . S
C705 C706 1.388 . S
C706 H693 0.930 . S
C706 C705 1.388 . S
C706 C707 1.390 . S
C707 C706 1.390 . S
C707 C708 1.394 . S
C707 C713 1.465 . S
C708 C703 1.399 . S
C708 C707 1.394 . S
C708 C709 1.516 . S
C709 C708 1.516 . S
C709 C710 1.502 . S
C709 C711 1.561 . S
C709 C712 1.526 . S
C710 H694 0.959 . S
C710 H695 0.959 . S
C710 H696 0.961 . S
C710 C709 1.502 . S
C711 H697 0.960 . S
C711 H698 0.961 . S
C711 H699 0.959 . S
C711 C709 1.561 . S
C712 C709 1.526 . S
C712 C713 1.396 . S
C712 C717 1.390 . S
C713 C707 1.465 . S
C713 C712 1.396 . S
C713 C714 1.399 . S
C714 H700 0.929 . S
C714 C713 1.399 . S
C714 C715 1.385 . S
C715 H701 0.931 . S
C715 C714 1.385 . S
C715 C716 1.389 . S
C716 C715 1.389 . S
C716 C717 1.387 . S
C717 H702 0.930 . S
C717 C712 1.390 . S
C717 C716 1.387 . S
H718 C730 0.930 . S
H719 C732 0.930 . S
H720 C733 0.930 . S
H721 C737 0.959 . S
H722 C737 0.959 . S
H723 C737 0.961 . S
H724 C738 0.960 . S
H725 C738 0.961 . S
H726 C738 0.959 . S
H727 C741 0.929 . S
H728 C742 0.931 . S
H729 C744 0.930 . S
C730 H718 0.930 . S
C730 C731 1.399 . S
C730 C735 1.399 . S
C731 C730 1.399 . S
C731 C732 1.376 . S
C732 H719 0.930 . S
C732 C731 1.376 . S
C732 C733 1.388 . S
C733 H720 0.930 . S
C733 C732 1.388 . S
C733 C734 1.390 . S
C734 C733 1.390 . S
C734 C735 1.394 . S
C734 C740 1.465 . S
C735 C730 1.399 . S
C735 C734 1.394 . S
C735 C736 1.516 . S
C736 C735 1.516 . S
C736 C737 1.502 . S
C736 C738 1.561 . S
C736 C739 1.526 . S
C737 H721 0.959 . S
C737 H722 0.959 . S
C737 H723 0.961 . S
C737 C736 1.502 . S
C738 H724 0.960 . S
C738 H725 0.961 . S
C738 H726 0.959 . S
C738 C736 1.561 . S
C739 C736 1.526 . S
C739 C740 1.396 . S
C739 C744 1.390 . S
C740 C734 1.465 . S
C740 C739 1.396 . S
C740 C741 1.399 . S
C741 H727 0.929 . S
C741 C740 1.399 . S
C741 C742 1.385 . S
C742 H728 0.931 . S
C742 C741 1.385 . S
C742 C743 1.389 . S
C743 C742 1.389 . S
C743 C744 1.387 . S
C744 H729 0.930 . S
C744 C739 1.390 . S
C744 C743 1.387 . S
H745 C757 0.930 . S
H746 C759 0.930 . S
H747 C760 0.930 . S
H748 C764 0.959 . S
H749 C764 0.959 . S
H750 C764 0.961 . S
H751 C765 0.960 . S
H752 C765 0.961 . S
H753 C765 0.959 . S
H754 C768 0.929 . S
H755 C769 0.931 . S
H756 C771 0.930 . S
C757 H745 0.930 . S
C757 C758 1.399 . S
C757 C762 1.399 . S
C758 C757 1.399 . S
C758 C759 1.376 . S
C759 H746 0.930 . S
C759 C758 1.376 . S
C759 C760 1.388 . S
C760 H747 0.930 . S
C760 C759 1.388 . S
C760 C761 1.390 . S
C761 C760 1.390 . S
C761 C762 1.394 . S
C761 C767 1.465 . S
C762 C757 1.399 . S
C762 C761 1.394 . S
C762 C763 1.516 . S
C763 C762 1.516 . S
C763 C764 1.502 . S
C763 C765 1.561 . S
C763 C766 1.526 . S
C764 H748 0.959 . S
C764 H749 0.959 . S
C764 H750 0.961 . S
C764 C763 1.502 . S
C765 H751 0.960 . S
C765 H752 0.961 . S
C765 H753 0.959 . S
C765 C763 1.561 . S
C766 C763 1.526 . S
C766 C767 1.396 . S
C766 C771 1.390 . S
C767 C761 1.465 . S
C767 C766 1.396 . S
C767 C768 1.399 . S
C768 H754 0.929 . S
C768 C767 1.399 . S
C768 C769 1.385 . S
C769 H755 0.931 . S
C769 C768 1.385 . S
C769 C770 1.389 . S
C770 C769 1.389 . S
C770 C771 1.387 . S
C771 H756 0.930 . S
C771 C766 1.390 . S
C771 C770 1.387 . S
H772 C784 0.930 . S
H773 C786 0.930 . S
H774 C787 0.930 . S
H775 C791 0.959 . S
H776 C791 0.959 . S
H777 C791 0.961 . S
H778 C792 0.960 . S
H779 C792 0.961 . S
H780 C792 0.959 . S
H781 C795 0.929 . S
H782 C796 0.931 . S
H783 C798 0.930 . S
C784 H772 0.930 . S
C784 C785 1.399 . S
C784 C789 1.399 . S
C785 C784 1.399 . S
C785 C786 1.376 . S
C786 H773 0.930 . S
C786 C785 1.376 . S
C786 C787 1.388 . S
C787 H774 0.930 . S
C787 C786 1.388 . S
C787 C788 1.390 . S
C788 C787 1.390 . S
C788 C789 1.394 . S
C788 C794 1.465 . S
C789 C784 1.399 . S
C789 C788 1.394 . S
C789 C790 1.516 . S
C790 C789 1.516 . S
C790 C791 1.502 . S
C790 C792 1.561 . S
C790 C793 1.526 . S
C791 H775 0.959 . S
C791 H776 0.959 . S
C791 H777 0.961 . S
C791 C790 1.502 . S
C792 H778 0.960 . S
C792 H779 0.961 . S
C792 H780 0.959 . S
C792 C790 1.561 . S
C793 C790 1.526 . S
C793 C794 1.396 . S
C793 C798 1.390 . S
C794 C788 1.465 . S
C794 C793 1.396 . S
C794 C795 1.399 . S
C795 H781 0.929 . S
C795 C794 1.399 . S
C795 C796 1.385 . S
C796 H782 0.931 . S
C796 C795 1.385 . S
C796 C797 1.389 . S
C797 C796 1.389 . S
C797 C798 1.387 . S
C798 H783 0.930 . S
C798 C793 1.390 . S
C798 C797 1.387 . S
H799 C811 0.930 . S
H800 C813 0.930 . S
H801 C814 0.930 . S
H802 C818 0.959 . S
H803 C818 0.959 . S
H804 C818 0.961 . S
H805 C819 0.960 . S
H806 C819 0.961 . S
H807 C819 0.959 . S
H808 C822 0.929 . S
H809 C823 0.931 . S
H810 C825 0.930 . S
C811 H799 0.930 . S
C811 C812 1.399 . S
C811 C816 1.399 . S
C812 C811 1.399 . S
C812 C813 1.376 . S
C813 H800 0.930 . S
C813 C812 1.376 . S
C813 C814 1.388 . S
C814 H801 0.930 . S
C814 C813 1.388 . S
C814 C815 1.390 . S
C815 C814 1.390 . S
C815 C816 1.394 . S
C815 C821 1.465 . S
C816 C811 1.399 . S
C816 C815 1.394 . S
C816 C817 1.516 . S
C817 C816 1.516 . S
C817 C818 1.502 . S
C817 C819 1.561 . S
C817 C820 1.526 . S
C818 H802 0.959 . S
C818 H803 0.959 . S
C818 H804 0.961 . S
C818 C817 1.502 . S
C819 H805 0.960 . S
C819 H806 0.961 . S
C819 H807 0.959 . S
C819 C817 1.561 . S
C820 C817 1.526 . S
C820 C821 1.396 . S
C820 C825 1.390 . S
C821 C815 1.465 . S
C821 C820 1.396 . S
C821 C822 1.399 . S
C822 H808 0.929 . S
C822 C821 1.399 . S
C822 C823 1.385 . S
C823 H809 0.931 . S
C823 C822 1.385 . S
C823 C824 1.389 . S
C824 C823 1.389 . S
C824 C825 1.387 . S
C825 H810 0.930 . S
C825 C820 1.390 . S
C825 C824 1.387 . S
H826 C838 0.930 . S
H827 C840 0.930 . S
H828 C841 0.930 . S
H829 C845 0.959 . S
H830 C845 0.959 . S
H831 C845 0.961 . S
H832 C846 0.960 . S
H833 C846 0.961 . S
H834 C846 0.959 . S
H835 C849 0.929 . S
H836 C850 0.931 . S
H837 C852 0.930 . S
C838 H826 0.930 . S
C838 C839 1.399 . S
C838 C843 1.399 . S
C839 C838 1.399 . S
C839 C840 1.376 . S
C840 H827 0.930 . S
C840 C839 1.376 . S
C840 C841 1.388 . S
C841 H828 0.930 . S
C841 C840 1.388 . S
C841 C842 1.390 . S
C842 C841 1.390 . S
C842 C843 1.394 . S
C842 C848 1.465 . S
C843 C838 1.399 . S
C843 C842 1.394 . S
C843 C844 1.516 . S
C844 C843 1.516 . S
C844 C845 1.502 . S
C844 C846 1.561 . S
C844 C847 1.526 . S
C845 H829 0.959 . S
C845 H830 0.959 . S
C845 H831 0.961 . S
C845 C844 1.502 . S
C846 H832 0.960 . S
C846 H833 0.961 . S
C846 H834 0.959 . S
C846 C844 1.561 . S
C847 C844 1.526 . S
C847 C848 1.396 . S
C847 C852 1.390 . S
C848 C842 1.465 . S
C848 C847 1.396 . S
C848 C849 1.399 . S
C849 H835 0.929 . S
C849 C848 1.399 . S
C849 C850 1.385 . S
C850 H836 0.931 . S
C850 C849 1.385 . S
C850 C851 1.389 . S
C851 C850 1.389 . S
C851 C852 1.387 . S
C852 H837 0.930 . S
C852 C847 1.390 . S
C852 C851 1.387 . S
H853 C865 0.930 . S
H854 C867 0.930 . S
H855 C868 0.930 . S
H856 C872 0.959 . S
H857 C872 0.959 . S
H858 C872 0.961 . S
H859 C873 0.960 . S
H860 C873 0.961 . S
H861 C873 0.959 . S
H862 C876 0.929 . S
H863 C877 0.931 . S
H864 C879 0.930 . S
C865 H853 0.930 . S
C865 C866 1.399 . S
C865 C870 1.399 . S
C866 C865 1.399 . S
C866 C867 1.376 . S
C867 H854 0.930 . S
C867 C866 1.376 . S
C867 C868 1.388 . S
C868 H855 0.930 . S
C868 C867 1.388 . S
C868 C869 1.390 . S
C869 C868 1.390 . S
C869 C870 1.394 . S
C869 C875 1.465 . S
C870 C865 1.399 . S
C870 C869 1.394 . S
C870 C871 1.516 . S
C871 C870 1.516 . S
C871 C872 1.502 . S
C871 C873 1.561 . S
C871 C874 1.526 . S
C872 H856 0.959 . S
C872 H857 0.959 . S
C872 H858 0.961 . S
C872 C871 1.502 . S
C873 H859 0.960 . S
C873 H860 0.961 . S
C873 H861 0.959 . S
C873 C871 1.561 . S
C874 C871 1.526 . S
C874 C875 1.396 . S
C874 C879 1.390 . S
C875 C869 1.465 . S
C875 C874 1.396 . S
C875 C876 1.399 . S
C876 H862 0.929 . S
C876 C875 1.399 . S
C876 C877 1.385 . S
C877 H863 0.931 . S
C877 C876 1.385 . S
C877 C878 1.389 . S
C878 C877 1.389 . S
C878 C879 1.387 . S
C879 H864 0.930 . S
C879 C874 1.390 . S
C879 C878 1.387 . S
H880 C892 0.930 . S
H881 C894 0.930 . S
H882 C895 0.930 . S
H883 C899 0.959 . S
H884 C899 0.959 . S
H885 C899 0.961 . S
H886 C900 0.960 . S
H887 C900 0.961 . S
H888 C900 0.959 . S
H889 C903 0.929 . S
H890 C904 0.931 . S
H891 C906 0.930 . S
C892 H880 0.930 . S
C892 C893 1.399 . S
C892 C897 1.399 . S
C893 C892 1.399 . S
C893 C894 1.376 . S
C894 H881 0.930 . S
C894 C893 1.376 . S
C894 C895 1.388 . S
C895 H882 0.930 . S
C895 C894 1.388 . S
C895 C896 1.390 . S
C896 C895 1.390 . S
C896 C897 1.394 . S
C896 C902 1.465 . S
C897 C892 1.399 . S
C897 C896 1.394 . S
C897 C898 1.516 . S
C898 C897 1.516 . S
C898 C899 1.502 . S
C898 C900 1.561 . S
C898 C901 1.526 . S
C899 H883 0.959 . S
C899 H884 0.959 . S
C899 H885 0.961 . S
C899 C898 1.502 . S
C900 H886 0.960 . S
C900 H887 0.961 . S
C900 H888 0.959 . S
C900 C898 1.561 . S
C901 C898 1.526 . S
C901 C902 1.396 . S
C901 C906 1.390 . S
C902 C896 1.465 . S
C902 C901 1.396 . S
C902 C903 1.399 . S
C903 H889 0.929 . S
C903 C902 1.399 . S
C903 C904 1.385 . S
C904 H890 0.931 . S
C904 C903 1.385 . S
C904 C905 1.389 . S
C905 C904 1.389 . S
C905 C906 1.387 . S
C906 H891 0.930 . S
C906 C901 1.390 . S
C906 C905 1.387 . S
H907 C919 0.930 . S
H908 C921 0.930 . S
H909 C922 0.930 . S
H910 C926 0.959 . S
H911 C926 0.959 . S
H912 C926 0.961 . S
H913 C927 0.960 . S
H914 C927 0.961 . S
H915 C927 0.959 . S
H916 C930 0.929 . S
H917 C931 0.931 . S
H918 C933 0.930 . S
C919 H907 0.930 . S
C919 C920 1.399 . S
C919 C924 1.399 . S
C920 C919 1.399 . S
C920 C921 1.376 . S
C921 H908 0.930 . S
C921 C920 1.376 . S
C921 C922 1.388 . S
C922 H909 0.930 . S
C922 C921 1.388 . S
C922 C923 1.390 . S
C923 C922 1.390 . S
C923 C924 1.394 . S
C923 C929 1.465 . S
C924 C919 1.399 . S
C924 C923 1.394 . S
C924 C925 1.516 . S
C925 C924 1.516 . S
C925 C926 1.502 . S
C925 C927 1.561 . S
C925 C928 1.526 . S
C926 H910 0.959 . S
C926 H911 0.959 . S
C926 H912 0.961 . S
C926 C925 1.502 . S
C927 H913 0.960 . S
C927 H914 0.961 . S
C927 H915 0.959 . S
C927 C925 1.561 . S
C928 C925 1.526 . S
C928 C929 1.396 . S
C928 C933 1.390 . S
C929 C923 1.465 . S
C929 C928 1.396 . S
C929 C930 1.399 . S
C930 H916 0.929 . S
C930 C929 1.399 . S
C930 C931 1.385 . S
C931 H917 0.931 . S
C931 C930 1.385 . S
C931 C932 1.389 . S
C932 C931 1.389 . S
C932 C933 1.387 . S
C933 H918 0.930 . S
C933 C928 1.390 . S
C933 C932 1.387 . S
H934 C946 0.930 . S
H935 C948 0.930 . S
H936 C949 0.930 . S
H937 C953 0.959 . S
H938 C953 0.959 . S
H939 C953 0.961 . S
H940 C954 0.960 . S
H941 C954 0.961 . S
H942 C954 0.959 . S
H943 C957 0.929 . S
H944 C958 0.931 . S
H945 C960 0.930 . S
C946 H934 0.930 . S
C946 C947 1.399 . S
C946 C951 1.399 . S
C947 C946 1.399 . S
C947 C948 1.376 . S
C948 H935 0.930 . S
C948 C947 1.376 . S
C948 C949 1.388 . S
C949 H936 0.930 . S
C949 C948 1.388 . S
C949 C950 1.390 . S
C950 C949 1.390 . S
C950 C951 1.394 . S
C950 C956 1.465 . S
C951 C946 1.399 . S
C951 C950 1.394 . S
C951 C952 1.516 . S
C952 C951 1.516 . S
C952 C953 1.502 . S
C952 C954 1.561 . S
C952 C955 1.526 . S
C953 H937 0.959 . S
C953 H938 0.959 . S
C953 H939 0.961 . S
C953 C952 1.502 . S
C954 H940 0.960 . S
C954 H941 0.961 . S
C954 H942 0.959 . S
C954 C952 1.561 . S
C955 C952 1.526 . S
C955 C956 1.396 . S
C955 C960 1.390 . S
C956 C950 1.465 . S
C956 C955 1.396 . S
C956 C957 1.399 . S
C957 H943 0.929 . S
C957 C956 1.399 . S
C957 C958 1.385 . S
C958 H944 0.931 . S
C958 C957 1.385 . S
C958 C959 1.389 . S
C959 C958 1.389 . S
C959 C960 1.387 . S
C960 H945 0.930 . S
C960 C955 1.390 . S
C960 C959 1.387 . S
H961 C973 0.930 . S
H962 C975 0.930 . S
H963 C976 0.930 . S
H964 C980 0.959 . S
H965 C980 0.959 . S
H966 C980 0.961 . S
H967 C981 0.960 . S
H968 C981 0.961 . S
H969 C981 0.959 . S
H970 C984 0.929 . S
H971 C985 0.931 . S
H972 C987 0.930 . S
C973 H961 0.930 . S
C973 C974 1.399 . S
C973 C978 1.399 . S
C974 C973 1.399 . S
C974 C975 1.376 . S
C975 H962 0.930 . S
C975 C974 1.376 . S
C975 C976 1.388 . S
C976 H963 0.930 . S
C976 C975 1.388 . S
C976 C977 1.390 . S
C977 C976 1.390 . S
C977 C978 1.394 . S
C977 C983 1.465 . S
C978 C973 1.399 . S
C978 C977 1.394 . S
C978 C979 1.516 . S
C979 C978 1.516 . S
C979 C980 1.502 . S
C979 C981 1.561 . S
C979 C982 1.526 . S
C980 H964 0.959 . S
C980 H965 0.959 . S
C980 H966 0.961 . S
C980 C979 1.502 . S
C981 H967 0.960 . S
C981 H968 0.961 . S
C981 H969 0.959 . S
C981 C979 1.561 . S
C982 C979 1.526 . S
C982 C983 1.396 . S
C982 C987 1.390 . S
C983 C977 1.465 . S
C983 C982 1.396 . S
C983 C984 1.399 . S
C984 H970 0.929 . S
C984 C983 1.399 . S
C984 C985 1.385 . S
C985 H971 0.931 . S
C985 C984 1.385 . S
C985 C986 1.389 . S
C986 C985 1.389 . S
C986 C987 1.387 . S
C987 H972 0.930 . S
C987 C982 1.390 . S
C987 C986 1.387 . S
H988 C1000 0.930 . S
H989 C1002 0.930 . S
H990 C1003 0.930 . S
H991 C1007 0.959 . S
H992 C1007 0.959 . S
H993 C1007 0.961 . S
H994 C1008 0.960 . S
H995 C1008 0.961 . S
H996 C1008 0.959 . S
H997 C1011 0.929 . S
H998 C1012 0.931 . S
H999 C1014 0.930 . S
C1000 H988 0.930 . S
C1000 C1001 1.399 . S
C1000 C1005 1.399 . S
C1001 C1000 1.399 . S
C1001 C1002 1.376 . S
C1002 H989 0.930 . S
C1002 C1001 1.376 . S
C1002 C1003 1.388 . S
C1003 H990 0.930 . S
C1003 C1002 1.388 . S
C1003 C1004 1.390 . S
C1004 C1003 1.390 . S
C1004 C1005 1.394 . S
C1004 C1010 1.465 . S
C1005 C1000 1.399 . S
C1005 C1004 1.394 . S
C1005 C1006 1.516 . S
C1006 C1005 1.516 . S
C1006 C1007 1.502 . S
C1006 C1008 1.561 . S
C1006 C1009 1.526 . S
C1007 H991 0.959 . S
C1007 H992 0.959 . S
C1007 H993 0.961 . S
C1007 C1006 1.502 . S
C1008 H994 0.960 . S
C1008 H995 0.961 . S
C1008 H996 0.959 . S
C1008 C1006 1.561 . S
C1009 C1006 1.526 . S
C1009 C1010 1.396 . S
C1009 C1014 1.390 . S
C1010 C1004 1.465 . S
C1010 C1009 1.396 . S
C1010 C1011 1.399 . S
C1011 H997 0.929 . S
C1011 C1010 1.399 . S
C1011 C1012 1.385 . S
C1012 H998 0.931 . S
C1012 C1011 1.385 . S
C1012 C1013 1.389 . S
C1013 C1012 1.389 . S
C1013 C1014 1.387 . S
C1014 H999 0.930 . S
C1014 C1009 1.390 . S
C1014 C1013 1.387 . S
H1015 C1027 0.930 . S
H1016 C1029 0.930 . S
H1017 C1030 0.930 . S
H1018 C1034 0.959 . S
H1019 C1034 0.959 . S
H1020 C1034 0.961 . S
H1021 C1035 0.960 . S
H1022 C1035 0.961 . S
H1023 C1035 0.959 . S
H1024 C1038 0.929 . S
H1025 C1039 0.931 . S
H1026 C1041 0.930 . S
C1027 H1015 0.930 . S
C1027 C1028 1.399 . S
C1027 C1032 1.399 . S
C1028 C1027 1.399 . S
C1028 C1029 1.376 . S
C1029 H1016 0.930 . S
C1029 C1028 1.376 . S
C1029 C1030 1.388 . S
C1030 H1017 0.930 . S
C1030 C1029 1.388 . S
C1030 C1031 1.390 . S
C1031 C1030 1.390 . S
C1031 C1032 1.394 . S
C1031 C1037 1.465 . S
C1032 C1027 1.399 . S
C1032 C1031 1.394 . S
C1032 C1033 1.516 . S
C1033 C1032 1.516 . S
C1033 C1034 1.502 . S
C1033 C1035 1.561 . S
C1033 C1036 1.526 . S
C1034 H1018 0.959 . S
C1034 H1019 0.959 . S
C1034 H1020 0.961 . S
C1034 C1033 1.502 . S
C1035 H1021 0.960 . S
C1035 H1022 0.961 . S
C1035 H1023 0.959 . S
C1035 C1033 1.561 . S
C1036 C1033 1.526 . S
C1036 C1037 1.396 . S
C1036 C1041 1.390 . S
C1037 C1031 1.465 . S
C1037 C1036 1.396 . S
C1037 C1038 1.399 . S
C1038 H1024 0.929 . S
C1038 C1037 1.399 . S
C1038 C1039 1.385 . S
C1039 H1025 0.931 . S
C1039 C1038 1.385 . S
C1039 C1040 1.389 . S
C1040 C1039 1.389 . S
C1040 C1041 1.387 . S
C1041 H1026 0.930 . S
C1041 C1036 1.390 . S
C1041 C1040 1.387 . S
H1042 C1054 0.930 . S
H1043 C1056 0.930 . S
H1044 C1057 0.930 . S
H1045 C1061 0.959 . S
H1046 C1061 0.959 . S
H1047 C1061 0.961 . S
H1048 C1062 0.960 . S
H1049 C1062 0.961 . S
H1050 C1062 0.959 . S
H1051 C1065 0.929 . S
H1052 C1066 0.931 . S
H1053 C1068 0.930 . S
C1054 H1042 0.930 . S
C1054 C1055 1.399 . S
C1054 C1059 1.399 . S
C1055 C1054 1.399 . S
C1055 C1056 1.376 . S
C1056 H1043 0.930 . S
C1056 C1055 1.376 . S
C1056 C1057 1.388 . S
C1057 H1044 0.930 . S
C1057 C1056 1.388 . S
C1057 C1058 1.390 . S
C1058 C1057 1.390 . S
C1058 C1059 1.394 . S
C1058 C1064 1.465 . S
C1059 C1054 1.399 . S
C1059 C1058 1.394 . S
C1059 C1060 1.516 . S
C1060 C1059 1.516 . S
C1060 C1061 1.502 . S
C1060 C1062 1.561 . S
C1060 C1063 1.526 . S
C1061 H1045 0.959 . S
C1061 H1046 0.959 . S
C1061 H1047 0.961 . S
C1061 C1060 1.502 . S
C1062 H1048 0.960 . S
C1062 H1049 0.961 . S
C1062 H1050 0.959 . S
C1062 C1060 1.561 . S
C1063 C1060 1.526 . S
C1063 C1064 1.396 . S
C1063 C1068 1.390 . S
C1064 C1058 1.465 . S
C1064 C1063 1.396 . S
C1064 C1065 1.399 . S
C1065 H1051 0.929 . S
C1065 C1064 1.399 . S
C1065 C1066 1.385 . S
C1066 H1052 0.931 . S
C1066 C1065 1.385 . S
C1066 C1067 1.389 . S
C1067 C1066 1.389 . S
C1067 C1068 1.387 . S
C1068 H1053 0.930 . S
C1068 C1063 1.390 . S
C1068 C1067 1.387 . S
H1069 C1081 0.930 . S
H1070 C1083 0.930 . S
H1071 C1084 0.930 . S
H1072 C1088 0.959 . S
H1073 C1088 0.959 . S
H1074 C1088 0.961 . S
H1075 C1089 0.960 . S
H1076 C1089 0.961 . S
H1077 C1089 0.959 . S
H1078 C1092 0.929 . S
H1079 C1093 0.931 . S
H1080 C1095 0.930 . S
C1081 H1069 0.930 . S
C1081 C1082 1.399 . S
C1081 C1086 1.399 . S
C1082 C1081 1.399 . S
C1082 C1083 1.376 . S
C1083 H1070 0.930 . S
C1083 C1082 1.376 . S
C1083 C1084 1.388 . S
C1084 H1071 0.930 . S
C1084 C1083 1.388 . S
C1084 C1085 1.390 . S
C1085 C1084 1.390 . S
C1085 C1086 1.394 . S
C1085 C1091 1.465 . S
C1086 C1081 1.399 . S
C1086 C1085 1.394 . S
C1086 C1087 1.516 . S
C1087 C1086 1.516 . S
C1087 C1088 1.502 . S
C1087 C1089 1.561 . S
C1087 C1090 1.526 . S
C1088 H1072 0.959 . S
C1088 H1073 0.959 . S
C1088 H1074 0.961 . S
C1088 C1087 1.502 . S
C1089 H1075 0.960 . S
C1089 H1076 0.961 . S
C1089 H1077 0.959 . S
C1089 C1087 1.561 . S
C1090 C1087 1.526 . S
C1090 C1091 1.396 . S
C1090 C1095 1.390 . S
C1091 C1085 1.465 . S
C1091 C1090 1.396 . S
C1091 C1092 1.399 . S
C1092 H1078 0.929 . S
C1092 C1091 1.399 . S
C1092 C1093 1.385 . S
C1093 H1079 0.931 . S
C1093 C1092 1.385 . S
C1093 C1094 1.389 . S
C1094 C1093 1.389 . S
C1094 C1095 1.387 . S
C1095 H1080 0.930 . S
C1095 C1090 1.390 . S
C1095 C1094 1.387 . S
H1096 C1108 0.930 . S
H1097 C1110 0.930 . S
H1098 C1111 0.930 . S
H1099 C1115 0.959 . S
H1100 C1115 0.959 . S
H1101 C1115 0.961 . S
H1102 C1116 0.960 . S
H1103 C1116 0.961 . S
H1104 C1116 0.959 . S
H1105 C1119 0.929 . S
H1106 C1120 0.931 . S
H1107 C1122 0.930 . S
C1108 H1096 0.930 . S
C1108 C1109 1.399 . S
C1108 C1113 1.399 . S
C1109 C1108 1.399 . S
C1109 C1110 1.376 . S
C1110 H1097 0.930 . S
C1110 C1109 1.376 . S
C1110 C1111 1.388 . S
C1111 H1098 0.930 . S
C1111 C1110 1.388 . S
C1111 C1112 1.390 . S
C1112 C1111 1.390 . S
C1112 C1113 1.394 . S
C1112 C1118 1.465 . S
C1113 C1108 1.399 . S
C1113 C1112 1.394 . S
C1113 C1114 1.516 . S
C1114 C1113 1.516 . S
C1114 C1115 1.502 . S
C1114 C1116 1.561 . S
C1114 C1117 1.526 . S
C1115 H1099 0.959 . S
C1115 H1100 0.959 . S
C1115 H1101 0.961 . S
C1115 C1114 1.502 . S
C1116 H1102 0.960 . S
C1116 H1103 0.961 . S
C1116 H1104 0.959 . S
C1116 C1114 1.561 . S
C1117 C1114 1.526 . S
C1117 C1118 1.396 . S
C1117 C1122 1.390 . S
C1118 C1112 1.465 . S
C1118 C1117 1.396 . S
C1118 C1119 1.399 . S
C1119 H1105 0.929 . S
C1119 C1118 1.399 . S
C1119 C1120 1.385 . S
C1120 H1106 0.931 . S
C1120 C1119 1.385 . S
C1120 C1121 1.389 . S
C1121 C1120 1.389 . S
C1121 C1122 1.387 . S
C1122 H1107 0.930 . S
C1122 C1117 1.390 . S
C1122 C1121 1.387 . S
H1123 C1135 0.930 . S
H1124 C1137 0.930 . S
H1125 C1138 0.930 . S
H1126 C1142 0.959 . S
H1127 C1142 0.959 . S
H1128 C1142 0.961 . S
H1129 C1143 0.960 . S
H1130 C1143 0.961 . S
H1131 C1143 0.959 . S
H1132 C1146 0.929 . S
H1133 C1147 0.931 . S
H1134 C1149 0.930 . S
C1135 H1123 0.930 . S
C1135 C1136 1.399 . S
C1135 C1140 1.399 . S
C1136 C1135 1.399 . S
C1136 C1137 1.376 . S
C1137 H1124 0.930 . S
C1137 C1136 1.376 . S
C1137 C1138 1.388 . S
C1138 H1125 0.930 . S
C1138 C1137 1.388 . S
C1138 C1139 1.390 . S
C1139 C1138 1.390 . S
C1139 C1140 1.394 . S
C1139 C1145 1.465 . S
C1140 C1135 1.399 . S
C1140 C1139 1.394 . S
C1140 C1141 1.516 . S
C1141 C1140 1.516 . S
C1141 C1142 1.502 . S
C1141 C1143 1.561 . S
C1141 C1144 1.526 . S
C1142 H1126 0.959 . S
C1142 H1127 0.959 . S
C1142 H1128 0.961 . S
C1142 C1141 1.502 . S
C1143 H1129 0.960 . S
C1143 H1130 0.961 . S
C1143 H1131 0.959 . S
C1143 C1141 1.561 . S
C1144 C1141 1.526 . S
C1144 C1145 1.396 . S
C1144 C1149 1.390 . S
C1145 C1139 1.465 . S
C1145 C1144 1.396 . S
C1145 C1146 1.399 . S
C1146 H1132 0.929 . S
C1146 C1145 1.399 . S
C1146 C1147 1.385 . S
C1147 H1133 0.931 . S
C1147 C1146 1.385 . S
C1147 C1148 1.389 . S
C1148 C1147 1.389 . S
C1148 C1149 1.387 . S
C1149 H1134 0.930 . S
C1149 C1144 1.390 . S
C1149 C1148 1.387 . S
H1150 C1162 0.930 . S
H1151 C1164 0.930 . S
H1152 C1165 0.930 . S
H1153 C1169 0.959 . S
H1154 C1169 0.959 . S
H1155 C1169 0.961 . S
H1156 C1170 0.960 . S
H1157 C1170 0.961 . S
H1158 C1170 0.959 . S
H1159 C1173 0.929 . S
H1160 C1174 0.931 . S
H1161 C1176 0.930 . S
C1162 H1150 0.930 . S
C1162 C1163 1.399 . S
C1162 C1167 1.399 . S
C1163 C1162 1.399 . S
C1163 C1164 1.376 . S
C1164 H1151 0.930 . S
C1164 C1163 1.376 . S
C1164 C1165 1.388 . S
C1165 H1152 0.930 . S
C1165 C1164 1.388 . S
C1165 C1166 1.390 . S
C1166 C1165 1.390 . S
C1166 C1167 1.394 . S
C1166 C1172 1.465 . S
C1167 C1162 1.399 . S
C1167 C1166 1.394 . S
C1167 C1168 1.516 . S
C1168 C1167 1.516 . S
C1168 C1169 1.502 . S
C1168 C1170 1.561 . S
C1168 C1171 1.526 . S
C1169 H1153 0.959 . S
C1169 H1154 0.959 . S
C1169 H1155 0.961 . S
C1169 C1168 1.502 . S
C1170 H1156 0.960 . S
C1170 H1157 0.961 . S
C1170 H1158 0.959 . S
C1170 C1168 1.561 . S
C1171 C1168 1.526 . S
C1171 C1172 1.396 . S
C1171 C1176 1.390 . S
C1172 C1166 1.465 . S
C1172 C1171 1.396 . S
C1172 C1173 1.399 . S
C1173 H1159 0.929 . S
C1173 C1172 1.399 . S
C1173 C1174 1.385 . S
C1174 H1160 0.931 . S
C1174 C1173 1.385 . S
C1174 C1175 1.389 . S
C1175 C1174 1.389 . S
C1175 C1176 1.387 . S
C1176 H1161 0.930 . S
C1176 C1171 1.390 . S
C1176 C1175 1.387 . S
H1177 C1189 0.930 . S
H1178 C1191 0.930 . S
H1179 C1192 0.930 . S
H1180 C1196 0.959 . S
H1181 C1196 0.959 . S
H1182 C1196 0.961 . S
H1183 C1197 0.960 . S
H1184 C1197 0.961 . S
H1185 C1197 0.959 . S
H1186 C1200 0.929 . S
H1187 C1201 0.931 . S
H1188 C1203 0.930 . S
C1189 H1177 0.930 . S
C1189 C1190 1.399 . S
C1189 C1194 1.399 . S
C1190 C1189 1.399 . S
C1190 C1191 1.376 . S
C1191 H1178 0.930 . S
C1191 C1190 1.376 . S
C1191 C1192 1.388 . S
C1192 H1179 0.930 . S
C1192 C1191 1.388 . S
C1192 C1193 1.390 . S
C1193 C1192 1.390 . S
C1193 C1194 1.394 . S
C1193 C1199 1.465 . S
C1194 C1189 1.399 . S
C1194 C1193 1.394 . S
C1194 C1195 1.516 . S
C1195 C1194 1.516 . S
C1195 C1196 1.502 . S
C1195 C1197 1.561 . S
C1195 C1198 1.526 . S
C1196 H1180 0.959 . S
C1196 H1181 0.959 . S
C1196 H1182 0.961 . S
C1196 C1195 1.502 . S
C1197 H1183 0.960 . S
C1197 H1184 0.961 . S
C1197 H1185 0.959 . S
C1197 C1195 1.561 . S
C1198 C1195 1.526 . S
C1198 C1199 1.396 . S
C1198 C1203 1.390 . S
C1199 C1193 1.465 . S
C1199 C1198 1.396 . S
C1199 C1200 1.399 . S
C1200 H1186 0.929 . S
C1200 C1199 1.399 . S
C1200 C1201 1.385 . S
C1201 H1187 0.931 . S
C1201 C1200 1.385 . S
C1201 C1202 1.389 . S
C1202 C1201 1.389 . S
C1202 C1203 1.387 . S
C1203 H1188 0.930 . S
C1203 C1198 1.390 . S
C1203 C1202 1.387 . S
H1204 C1216 0.930 . S
H1205 C1218 0.930 . S
H1206 C1219 0.930 . S
H1207 C1223 0.959 . S
H1208 C1223 0.959 . S
H1209 C1223 0.961 . S
H1210 C1224 0.960 . S
H1211 C1224 0.961 . S
H1212 C1224 0.959 . S
H1213 C1227 0.929 . S
H1214 C1228 0.931 . S
H1215 C1230 0.930 . S
C1216 H1204 0.930 . S
C1216 C1217 1.399 . S
C1216 C1221 1.399 . S
C1217 C1216 1.399 . S
C1217 C1218 1.376 . S
C1218 H1205 0.930 . S
C1218 C1217 1.376 . S
C1218 C1219 1.388 . S
C1219 H1206 0.930 . S
C1219 C1218 1.388 . S
C1219 C1220 1.390 . S
C1220 C1219 1.390 . S
C1220 C1221 1.394 . S
C1220 C1226 1.465 . S
C1221 C1216 1.399 . S
C1221 C1220 1.394 . S
C1221 C1222 1.516 . S
C1222 C1221 1.516 . S
C1222 C1223 1.502 . S
C1222 C1224 1.561 . S
C1222 C1225 1.526 . S
C1223 H1207 0.959 . S
C1223 H1208 0.959 . S
C1223 H1209 0.961 . S
C1223 C1222 1.502 . S
C1224 H1210 0.960 . S
C1224 H1211 0.961 . S
C1224 H1212 0.959 . S
C1224 C1222 1.561 . S
C1225 C1222 1.526 . S
C1225 C1226 1.396 . S
C1225 C1230 1.390 . S
C1226 C1220 1.465 . S
C1226 C1225 1.396 . S
C1226 C1227 1.399 . S
C1227 H1213 0.929 . S
C1227 C1226 1.399 . S
C1227 C1228 1.385 . S
C1228 H1214 0.931 . S
C1228 C1227 1.385 . S
C1228 C1229 1.389 . S
C1229 C1228 1.389 . S
C1229 C1230 1.387 . S
C1230 H1215 0.930 . S
C1230 C1225 1.390 . S
C1230 C1229 1.387 . S
H1231 C1243 0.930 . S
H1232 C1245 0.930 . S
H1233 C1246 0.930 . S
H1234 C1250 0.959 . S
H1235 C1250 0.959 . S
H1236 C1250 0.961 . S
H1237 C1251 0.960 . S
H1238 C1251 0.961 . S
H1239 C1251 0.959 . S
H1240 C1254 0.929 . S
H1241 C1255 0.931 . S
H1242 C1257 0.930 . S
C1243 H1231 0.930 . S
C1243 C1244 1.399 . S
C1243 C1248 1.399 . S
C1244 C1243 1.399 . S
C1244 C1245 1.376 . S
C1245 H1232 0.930 . S
C1245 C1244 1.376 . S
C1245 C1246 1.388 . S
C1246 H1233 0.930 . S
C1246 C1245 1.388 . S
C1246 C1247 1.390 . S
C1247 C1246 1.390 . S
C1247 C1248 1.394 . S
C1247 C1253 1.465 . S
C1248 C1243 1.399 . S
C1248 C1247 1.394 . S
C1248 C1249 1.516 . S
C1249 C1248 1.516 . S
C1249 C1250 1.502 . S
C1249 C1251 1.561 . S
C1249 C1252 1.526 . S
C1250 H1234 0.959 . S
C1250 H1235 0.959 . S
C1250 H1236 0.961 . S
C1250 C1249 1.502 . S
C1251 H1237 0.960 . S
C1251 H1238 0.961 . S
C1251 H1239 0.959 . S
C1251 C1249 1.561 . S
C1252 C1249 1.526 . S
C1252 C1253 1.396 . S
C1252 C1257 1.390 . S
C1253 C1247 1.465 . S
C1253 C1252 1.396 . S
C1253 C1254 1.399 . S
C1254 H1240 0.929 . S
C1254 C1253 1.399 . S
C1254 C1255 1.385 . S
C1255 H1241 0.931 . S
C1255 C1254 1.385 . S
C1255 C1256 1.389 . S
C1256 C1255 1.389 . S
C1256 C1257 1.387 . S
C1257 H1242 0.930 . S
C1257 C1252 1.390 . S
C1257 C1256 1.387 . S
H1258 C1270 0.930 . S
H1259 C1272 0.930 . S
H1260 C1273 0.930 . S
H1261 C1277 0.959 . S
H1262 C1277 0.959 . S
H1263 C1277 0.961 . S
H1264 C1278 0.960 . S
H1265 C1278 0.961 . S
H1266 C1278 0.959 . S
H1267 C1281 0.929 . S
H1268 C1282 0.931 . S
H1269 C1284 0.930 . S
C1270 H1258 0.930 . S
C1270 C1271 1.399 . S
C1270 C1275 1.399 . S
C1271 C1270 1.399 . S
C1271 C1272 1.376 . S
C1272 H1259 0.930 . S
C1272 C1271 1.376 . S
C1272 C1273 1.388 . S
C1273 H1260 0.930 . S
C1273 C1272 1.388 . S
C1273 C1274 1.390 . S
C1274 C1273 1.390 . S
C1274 C1275 1.394 . S
C1274 C1280 1.465 . S
C1275 C1270 1.399 . S
C1275 C1274 1.394 . S
C1275 C1276 1.516 . S
C1276 C1275 1.516 . S
C1276 C1277 1.502 . S
C1276 C1278 1.561 . S
C1276 C1279 1.526 . S
C1277 H1261 0.959 . S
C1277 H1262 0.959 . S
C1277 H1263 0.961 . S
C1277 C1276 1.502 . S
C1278 H1264 0.960 . S
C1278 H1265 0.961 . S
C1278 H1266 0.959 . S
C1278 C1276 1.561 . S
C1279 C1276 1.526 . S
C1279 C1280 1.396 . S
C1279 C1284 1.390 . S
C1280 C1274 1.465 . S
C1280 C1279 1.396 . S
C1280 C1281 1.399 . S
C1281 H1267 0.929 . S
C1281 C1280 1.399 . S
C1281 C1282 1.385 . S
C1282 H1268 0.931 . S
C1282 C1281 1.385 . S
C1282 C1283 1.389 . S
C1283 C1282 1.389 . S
C1283 C1284 1.387 . S
C1284 H1269 0.930 . S
C1284 C1279 1.390 . S
C1284 C1283 1.387 . S
H1285 C1297 0.930 . S
H1286 C1299 0.930 . S
H1287 C1300 0.930 . S
H1288 C1304 0.959 . S
H1289 C1304 0.959 . S
H1290 C1304 0.961 . S
H1291 C1305 0.960 . S
H1292 C1305 0.961 . S
H1293 C1305 0.959 . S
H1294 C1308 0.929 . S
H1295 C1309 0.931 . S
H1296 C1311 0.930 . S
C1297 H1285 0.930 . S
C1297 C1298 1.399 . S
C1297 C1302 1.399 . S
C1298 C1297 1.399 . S
C1298 C1299 1.376 . S
C1299 H1286 0.930 . S
C1299 C1298 1.376 . S
C1299 C1300 1.388 . S
C1300 H1287 0.930 . S
C1300 C1299 1.388 . S
C1300 C1301 1.390 . S
C1301 C1300 1.390 . S
C1301 C1302 1.394 . S
C1301 C1307 1.465 . S
C1302 C1297 1.399 . S
C1302 C1301 1.394 . S
C1302 C1303 1.516 . S
C1303 C1302 1.516 . S
C1303 C1304 1.502 . S
C1303 C1305 1.561 . S
C1303 C1306 1.526 . S
C1304 H1288 0.959 . S
C1304 H1289 0.959 . S
C1304 H1290 0.961 . S
C1304 C1303 1.502 . S
C1305 H1291 0.960 . S
C1305 H1292 0.961 . S
C1305 H1293 0.959 . S
C1305 C1303 1.561 . S
C1306 C1303 1.526 . S
C1306 C1307 1.396 . S
C1306 C1311 1.390 . S
C1307 C1301 1.465 . S
C1307 C1306 1.396 . S
C1307 C1308 1.399 . S
C1308 H1294 0.929 . S
C1308 C1307 1.399 . S
C1308 C1309 1.385 . S
C1309 H1295 0.931 . S
C1309 C1308 1.385 . S
C1309 C1310 1.389 . S
C1310 C1309 1.389 . S
C1310 C1311 1.387 . S
C1311 H1296 0.930 . S
C1311 C1306 1.390 . S
C1311 C1310 1.387 . S
H1312 C1324 0.930 . S
H1313 C1326 0.930 . S
H1314 C1327 0.930 1_455 S
H1315 C1331 0.959 1_455 S
H1316 C1331 0.959 . S
H1317 C1331 0.961 . S
H1318 C1332 0.960 . S
H1319 C1332 0.961 . S
H1320 C1332 0.959 . S
H1321 C1335 0.929 . S
H1322 C1336 0.931 . S
H1323 C1338 0.930 . S
C1324 H1312 0.930 . S
C1324 C1325 1.399 . S
C1324 C1329 1.399 . S
C1325 C1324 1.399 . S
C1325 C1326 1.376 . S
C1326 H1313 0.930 . S
C1326 C1325 1.376 . S
C1326 C1327 1.388 . S
C1327 H1314 0.930 1_655 S
C1327 C1326 1.388 . S
C1327 C1328 1.390 . S
C1328 C1327 1.390 . S
C1328 C1329 1.394 . S
C1328 C1334 1.465 1_655 S
C1329 C1324 1.399 . S
C1329 C1328 1.394 . S
C1329 C1330 1.516 . S
C1330 C1329 1.516 . S
C1330 C1331 1.502 . S
C1330 C1332 1.561 . S
C1330 C1333 1.526 1_655 S
C1331 H1315 0.959 1_655 S
C1331 H1316 0.959 . S
C1331 H1317 0.961 . S
C1331 C1330 1.502 . S
C1332 H1318 0.960 . S
C1332 H1319 0.961 . S
C1332 H1320 0.959 . S
C1332 C1330 1.561 . S
C1333 C1330 1.526 1_455 S
C1333 C1334 1.396 . S
C1333 C1338 1.390 . S
C1334 C1328 1.465 1_455 S
C1334 C1333 1.396 . S
C1334 C1335 1.399 . S
C1335 H1321 0.929 . S
C1335 C1334 1.399 . S
C1335 C1336 1.385 . S
C1336 H1322 0.931 . S
C1336 C1335 1.385 . S
C1336 C1337 1.389 . S
C1337 C1336 1.389 . S
C1337 C1338 1.387 . S
C1338 H1323 0.930 . S
C1338 C1333 1.390 . S
C1338 C1337 1.387 . S
H1339 C1351 0.930 . S
H1340 C1353 0.930 . S
H1341 C1354 0.930 1_545 S
H1342 C1358 0.959 . S
H1343 C1358 0.959 . S
H1344 C1358 0.961 . S
H1345 C1359 0.960 . S
H1346 C1359 0.961 . S
H1347 C1359 0.959 . S
H1348 C1362 0.929 . S
H1349 C1363 0.931 . S
H1350 C1365 0.930 . S
C1351 H1339 0.930 . S
C1351 C1352 1.399 . S
C1351 C1356 1.399 . S
C1352 C1351 1.399 . S
C1352 C1353 1.376 . S
C1353 H1340 0.930 . S
C1353 C1352 1.376 . S
C1353 C1354 1.388 . S
C1354 H1341 0.930 1_565 S
C1354 C1353 1.388 . S
C1354 C1355 1.390 . S
C1355 C1354 1.390 . S
C1355 C1356 1.394 . S
C1355 C1361 1.465 1_565 S
C1356 C1351 1.399 . S
C1356 C1355 1.394 . S
C1356 C1357 1.516 . S
C1357 C1356 1.516 . S
C1357 C1358 1.502 . S
C1357 C1359 1.561 . S
C1357 C1360 1.526 1_565 S
C1358 H1342 0.959 . S
C1358 H1343 0.959 . S
C1358 H1344 0.961 . S
C1358 C1357 1.502 . S
C1359 H1345 0.960 . S
C1359 H1346 0.961 . S
C1359 H1347 0.959 . S
C1359 C1357 1.561 . S
C1360 C1357 1.526 1_545 S
C1360 C1361 1.396 . S
C1360 C1365 1.390 . S
C1361 C1355 1.465 1_545 S
C1361 C1360 1.396 . S
C1361 C1362 1.399 . S
C1362 H1348 0.929 . S
C1362 C1361 1.399 . S
C1362 C1363 1.385 . S
C1363 H1349 0.931 . S
C1363 C1362 1.385 . S
C1363 C1364 1.389 . S
C1364 C1363 1.389 . S
C1364 C1365 1.387 . S
C1365 H1350 0.930 . S
C1365 C1360 1.390 . S
C1365 C1364 1.387 . S
H1366 C1378 0.930 1_556 S
H1367 C1380 0.930 . S
H1368 C1381 0.929 . S
H1369 C1385 0.959 1_565 S
H1370 C1385 0.959 . S
H1371 C1385 0.961 . S
H1372 C1386 0.960 . S
H1373 C1386 0.961 . S
H1374 C1386 0.959 . S
H1375 C1389 0.929 . S
H1376 C1390 0.931 . S
H1377 C1392 0.930 . S
C1378 H1366 0.930 1_554 S
C1378 C1379 1.399 . S
C1378 C1383 1.399 1_554 S
C1379 C1378 1.399 . S
C1379 C1380 1.376 . S
C1380 H1367 0.930 . S
C1380 C1379 1.376 . S
C1380 C1381 1.388 . S
C1381 H1368 0.929 . S
C1381 C1380 1.388 . S
C1381 C1382 1.390 . S
C1382 C1381 1.390 . S
C1382 C1383 1.394 1_554 S
C1382 C1388 1.465 1_645 S
C1383 C1378 1.399 1_556 S
C1383 C1382 1.394 1_556 S
C1383 C1384 1.516 . S
C1384 C1383 1.516 . S
C1384 C1385 1.502 . S
C1384 C1386 1.561 1_655 S
C1384 C1387 1.526 1_645 S
C1385 H1369 0.959 1_545 S
C1385 H1370 0.959 . S
C1385 H1371 0.961 . S
C1385 C1384 1.502 . S
C1386 H1372 0.960 . S
C1386 H1373 0.961 . S
C1386 H1374 0.959 . S
C1386 C1384 1.561 1_455 S
C1387 C1384 1.526 1_465 S
C1387 C1388 1.396 1_556 S
C1387 C1392 1.390 . S
C1388 C1382 1.465 1_465 S
C1388 C1387 1.396 1_554 S
C1388 C1389 1.399 . S
C1389 H1375 0.929 . S
C1389 C1388 1.399 . S
C1389 C1390 1.385 . S
C1390 H1376 0.931 . S
C1390 C1389 1.385 . S
C1390 C1391 1.389 1_554 S
C1391 C1390 1.389 1_556 S
C1391 C1392 1.387 . S
C1392 H1377 0.930 . S
C1392 C1387 1.390 . S
C1392 C1391 1.387 . S
H1393 C1405 0.930 . S
H1394 C1407 0.930 1_556 S
H1395 C1408 0.930 . S
H1396 C1412 0.959 . S
H1397 C1412 0.959 . S
H1398 C1412 0.961 . S
H1399 C1413 0.960 . S
H1400 C1413 0.961 . S
H1401 C1413 0.959 . S
H1402 C1416 0.929 . S
H1403 C1417 0.931 . S
H1404 C1419 0.930 1_554 S
C1405 H1393 0.930 . S
C1405 C1406 1.399 . S
C1405 C1410 1.399 . S
C1406 C1405 1.399 . S
C1406 C1407 1.376 . S
C1407 H1394 0.930 1_554 S
C1407 C1406 1.376 . S
C1407 C1408 1.388 1_554 S
C1408 H1395 0.930 . S
C1408 C1407 1.388 1_556 S
C1408 C1409 1.390 . S
C1409 C1408 1.390 . S
C1409 C1410 1.394 1_556 S
C1409 C1415 1.465 . S
C1410 C1405 1.399 . S
C1410 C1409 1.394 1_554 S
C1410 C1411 1.516 . S
C1411 C1410 1.516 . S
C1411 C1412 1.502 . S
C1411 C1413 1.561 . S
C1411 C1414 1.526 . S
C1412 H1396 0.959 . S
C1412 H1397 0.959 . S
C1412 H1398 0.961 . S
C1412 C1411 1.502 . S
C1413 H1399 0.960 . S
C1413 H1400 0.961 . S
C1413 H1401 0.959 . S
C1413 C1411 1.561 . S
C1414 C1411 1.526 . S
C1414 C1415 1.396 1_554 S
C1414 C1419 1.390 1_554 S
C1415 C1409 1.465 . S
C1415 C1414 1.396 1_556 S
C1415 C1416 1.399 . S
C1416 H1402 0.929 . S
C1416 C1415 1.399 . S
C1416 C1417 1.385 . S
C1417 H1403 0.931 . S
C1417 C1416 1.385 . S
C1417 C1418 1.389 . S
C1418 C1417 1.389 . S
C1418 C1419 1.387 . S
C1419 H1404 0.930 1_556 S
C1419 C1414 1.390 1_556 S
C1419 C1418 1.387 . S
H1420 C1432 0.930 . S
H1421 C1434 0.930 . S
H1422 C1435 0.930 . S
H1423 C1439 0.959 . S
H1424 C1439 0.959 . S
H1425 C1439 0.961 . S
H1426 C1440 0.960 . S
H1427 C1440 0.961 1_455 S
H1428 C1440 0.959 . S
H1429 C1443 0.929 1_655 S
H1430 C1444 0.931 . S
H1431 C1446 0.930 . S
C1432 H1420 0.930 . S
C1432 C1433 1.399 . S
C1432 C1437 1.399 . S
C1433 C1432 1.399 . S
C1433 C1434 1.376 . S
C1434 H1421 0.930 . S
C1434 C1433 1.376 . S
C1434 C1435 1.388 . S
C1435 H1422 0.930 . S
C1435 C1434 1.388 . S
C1435 C1436 1.390 . S
C1436 C1435 1.390 . S
C1436 C1437 1.394 . S
C1436 C1442 1.460 1_655 S
C1437 C1432 1.399 . S
C1437 C1436 1.394 . S
C1437 C1438 1.516 1_655 S
C1438 C1437 1.516 1_455 S
C1438 C1439 1.502 . S
C1438 C1440 1.561 1_455 S
C1438 C1441 1.526 . S
C1439 H1423 0.959 . S
C1439 H1424 0.959 . S
C1439 H1425 0.961 . S
C1439 C1438 1.502 . S
C1440 H1426 0.960 . S
C1440 H1427 0.961 1_655 S
C1440 H1428 0.959 . S
C1440 C1438 1.561 1_655 S
C1441 C1438 1.526 . S
C1441 C1442 1.402 . S
C1441 C1446 1.390 . S
C1442 C1436 1.460 1_455 S
C1442 C1441 1.402 . S
C1442 C1443 1.399 . S
C1443 H1429 0.929 1_455 S
C1443 C1442 1.399 . S
C1443 C1444 1.385 . S
C1444 H1430 0.931 . S
C1444 C1443 1.385 . S
C1444 C1445 1.389 . S
C1445 C1444 1.389 . S
C1445 C1446 1.387 . S
C1446 H1431 0.930 . S
C1446 C1441 1.390 . S
C1446 C1445 1.387 . S
H1447 C1459 0.930 . S
H1448 C1461 0.930 . S
H1449 C1462 0.930 1_545 S
H1450 C1466 0.959 . S
H1451 C1466 0.959 . S
H1452 C1466 0.961 . S
H1453 C1467 0.960 . S
H1454 C1467 0.961 . S
H1455 C1467 1.011 . S
H1456 C1470 0.929 . S
H1457 C1471 0.931 . S
H1458 C1473 0.930 . S
C1459 H1447 0.930 . S
C1459 C1460 1.399 . S
C1459 C1464 1.399 . S
C1460 C1459 1.399 . S
C1460 C1461 1.376 . S
C1461 H1448 0.930 . S
C1461 C1460 1.376 . S
C1461 C1462 1.388 . S
C1462 H1449 0.930 1_565 S
C1462 C1461 1.388 . S
C1462 C1463 1.390 . S
C1463 C1462 1.390 . S
C1463 C1464 1.394 . S
C1463 C1469 1.465 1_565 S
C1464 C1459 1.399 . S
C1464 C1463 1.394 . S
C1464 C1465 1.516 . S
C1465 C1464 1.516 . S
C1465 C1466 1.502 . S
C1465 C1467 1.561 . S
C1465 C1468 1.526 1_565 S
C1466 H1450 0.959 . S
C1466 H1451 0.959 . S
C1466 H1452 0.961 . S
C1466 C1465 1.502 . S
C1467 H1453 0.960 . S
C1467 H1454 0.961 . S
C1467 H1455 1.011 . S
C1467 C1465 1.561 . S
C1468 C1465 1.526 1_545 S
C1468 C1469 1.396 . S
C1468 C1473 1.390 . S
C1469 C1463 1.465 1_545 S
C1469 C1468 1.396 . S
C1469 C1470 1.399 . S
C1470 H1456 0.929 . S
C1470 C1469 1.399 . S
C1470 C1471 1.385 . S
C1471 H1457 0.931 . S
C1471 C1470 1.385 . S
C1471 C1472 1.389 . S
C1472 C1471 1.389 . S
C1472 C1473 1.387 . S
C1473 H1458 0.930 . S
C1473 C1468 1.390 . S
C1473 C1472 1.387 . S
H1474 C1486 0.930 1_554 S
H1475 C1488 0.930 . S
H1476 C1489 0.930 . S
H1477 C1493 0.959 . S
H1478 C1493 0.959 . S
H1479 C1493 0.961 . S
H1480 C1494 0.960 . S
H1481 C1494 0.961 . S
H1482 C1494 0.959 . S
H1483 C1497 0.929 . S
H1484 C1498 0.931 . S
H1485 C1500 0.930 . S
C1486 H1474 0.930 1_556 S
C1486 C1487 1.399 . S
C1486 C1491 1.399 1_556 S
C1487 C1486 1.399 . S
C1487 C1488 1.376 . S
C1488 H1475 0.930 . S
C1488 C1487 1.376 . S
C1488 C1489 1.388 . S
C1489 H1476 0.930 . S
C1489 C1488 1.388 . S
C1489 C1490 1.390 . S
C1490 C1489 1.390 . S
C1490 C1491 1.394 1_556 S
C1490 C1496 1.465 . S
C1491 C1486 1.399 1_554 S
C1491 C1490 1.394 1_554 S
C1491 C1492 1.516 . S
C1492 C1491 1.516 . S
C1492 C1493 1.502 . S
C1492 C1494 1.561 . S
C1492 C1495 1.526 . S
C1493 H1477 0.959 . S
C1493 H1478 0.959 . S
C1493 H1479 0.961 . S
C1493 C1492 1.502 . S
C1494 H1480 0.960 . S
C1494 H1481 0.961 . S
C1494 H1482 0.959 . S
C1494 C1492 1.561 . S
C1495 C1492 1.526 . S
C1495 C1496 1.396 1_554 S
C1495 C1500 1.390 . S
C1496 C1490 1.465 . S
C1496 C1495 1.396 1_556 S
C1496 C1497 1.399 . S
C1497 H1483 0.929 . S
C1497 C1496 1.399 . S
C1497 C1498 1.385 . S
C1498 H1484 0.931 . S
C1498 C1497 1.385 . S
C1498 C1499 1.389 1_556 S
C1499 C1498 1.389 1_554 S
C1499 C1500 1.387 . S
C1500 H1485 0.930 . S
C1500 C1495 1.390 . S
C1500 C1499 1.387 . S
H1501 C1513 0.930 . S
H1502 C1515 0.930 . S
H1503 C1516 0.930 . S
H1504 C1520 0.959 . S
H1505 C1520 0.959 . S
H1506 C1520 0.961 . S
H1507 C1521 0.960 . S
H1508 C1521 0.961 . S
H1509 C1521 0.959 . S
H1510 C1524 0.929 . S
H1511 C1525 0.931 . S
H1512 C1527 0.930 . S
C1513 H1501 0.930 . S
C1513 C1514 1.399 . S
C1513 C1518 1.399 . S
C1514 C1513 1.399 . S
C1514 C1515 1.376 . S
C1515 H1502 0.930 . S
C1515 C1514 1.376 . S
C1515 C1516 1.388 . S
C1516 H1503 0.930 . S
C1516 C1515 1.388 . S
C1516 C1517 1.390 . S
C1517 C1516 1.390 . S
C1517 C1518 1.394 . S
C1517 C1523 1.465 . S
C1518 C1513 1.399 . S
C1518 C1517 1.394 . S
C1518 C1519 1.516 . S
C1519 C1518 1.516 . S
C1519 C1520 1.502 . S
C1519 C1521 1.561 . S
C1519 C1522 1.526 . S
C1520 H1504 0.959 . S
C1520 H1505 0.959 . S
C1520 H1506 0.961 . S
C1520 C1519 1.502 . S
C1521 H1507 0.960 . S
C1521 H1508 0.961 . S
C1521 H1509 0.959 . S
C1521 C1519 1.561 . S
C1522 C1519 1.526 . S
C1522 C1523 1.396 . S
C1522 C1527 1.390 . S
C1523 C1517 1.465 . S
C1523 C1522 1.396 . S
C1523 C1524 1.399 . S
C1524 H1510 0.929 . S
C1524 C1523 1.399 . S
C1524 C1525 1.385 . S
C1525 H1511 0.931 . S
C1525 C1524 1.385 . S
C1525 C1526 1.389 . S
C1526 C1525 1.389 . S
C1526 C1527 1.387 . S
C1527 H1512 0.930 . S
C1527 C1522 1.390 . S
C1527 C1526 1.387 . S
H1528 C1540 0.930 . S
H1529 C1542 0.930 . S
H1530 C1543 0.930 . S
H1531 C1547 0.959 . S
H1532 C1547 0.959 . S
H1533 C1547 0.961 . S
H1534 C1548 0.960 . S
H1535 C1548 0.961 . S
H1536 C1548 0.959 . S
H1537 C1551 0.929 . S
H1538 C1552 0.931 . S
H1539 C1554 0.930 . S
C1540 H1528 0.930 . S
C1540 C1541 1.399 . S
C1540 C1545 1.399 . S
C1541 C1540 1.399 . S
C1541 C1542 1.376 . S
C1542 H1529 0.930 . S
C1542 C1541 1.376 . S
C1542 C1543 1.388 . S
C1543 H1530 0.930 . S
C1543 C1542 1.388 . S
C1543 C1544 1.390 . S
C1544 C1543 1.390 . S
C1544 C1545 1.394 . S
C1544 C1550 1.465 1_455 S
C1545 C1540 1.399 . S
C1545 C1544 1.394 . S
C1545 C1546 1.521 . S
C1546 C1545 1.521 . S
C1546 C1547 1.512 . S
C1546 C1548 1.550 1_455 S
C1546 C1549 1.520 1_455 S
C1547 H1531 0.959 . S
C1547 H1532 0.959 . S
C1547 H1533 0.961 . S
C1547 C1546 1.512 . S
C1548 H1534 0.960 . S
C1548 H1535 0.961 . S
C1548 H1536 0.959 . S
C1548 C1546 1.550 1_655 S
C1549 C1546 1.520 1_655 S
C1549 C1550 1.396 . S
C1549 C1554 1.390 . S
C1550 C1544 1.465 1_655 S
C1550 C1549 1.396 . S
C1550 C1551 1.399 . S
C1551 H1537 0.929 . S
C1551 C1550 1.399 . S
C1551 C1552 1.385 . S
C1552 H1538 0.931 . S
C1552 C1551 1.385 . S
C1552 C1553 1.389 . S
C1553 C1552 1.389 . S
C1553 C1554 1.387 . S
C1554 H1539 0.930 . S
C1554 C1549 1.390 . S
C1554 C1553 1.387 . S
H1555 C1567 0.930 . S
H1556 C1569 0.930 . S
H1557 C1570 0.930 . S
H1558 C1574 0.959 . S
H1559 C1574 0.959 . S
H1560 C1574 0.961 . S
H1561 C1575 0.960 . S
H1562 C1575 0.961 . S
H1563 C1575 0.959 . S
H1564 C1578 0.929 . S
H1565 C1579 0.931 . S
H1566 C1581 0.930 . S
C1567 H1555 0.930 . S
C1567 C1568 1.399 . S
C1567 C1572 1.399 . S
C1568 C1567 1.399 . S
C1568 C1569 1.376 . S
C1569 H1556 0.930 . S
C1569 C1568 1.376 . S
C1569 C1570 1.388 . S
C1570 H1557 0.930 . S
C1570 C1569 1.388 . S
C1570 C1571 1.390 . S
C1571 C1570 1.390 . S
C1571 C1572 1.394 . S
C1571 C1577 1.465 . S
C1572 C1567 1.399 . S
C1572 C1571 1.394 . S
C1572 C1573 1.516 . S
C1573 C1572 1.516 . S
C1573 C1574 1.502 . S
C1573 C1575 1.561 . S
C1573 C1576 1.526 . S
C1574 H1558 0.959 . S
C1574 H1559 0.959 . S
C1574 H1560 0.961 . S
C1574 C1573 1.502 . S
C1575 H1561 0.960 . S
C1575 H1562 0.961 . S
C1575 H1563 0.959 . S
C1575 C1573 1.561 . S
C1576 C1573 1.526 . S
C1576 C1577 1.396 . S
C1576 C1581 1.390 . S
C1577 C1571 1.465 . S
C1577 C1576 1.396 . S
C1577 C1578 1.399 . S
C1578 H1564 0.929 . S
C1578 C1577 1.399 . S
C1578 C1579 1.385 . S
C1579 H1565 0.931 . S
C1579 C1578 1.385 . S
C1579 C1580 1.389 . S
C1580 C1579 1.389 . S
C1580 C1581 1.387 . S
C1581 H1566 0.930 . S
C1581 C1576 1.390 . S
C1581 C1580 1.387 . S
H1582 C1594 0.930 . S
H1583 C1596 0.930 . S
H1584 C1597 0.930 . S
H1585 C1601 0.959 . S
H1586 C1601 0.959 . S
H1587 C1601 0.961 . S
H1588 C1602 0.960 . S
H1589 C1602 0.961 . S
H1590 C1602 0.959 . S
H1591 C1605 0.929 . S
H1592 C1606 0.931 . S
H1593 C1608 0.930 . S
C1594 H1582 0.930 . S
C1594 C1595 1.399 . S
C1594 C1599 1.399 . S
C1595 C1594 1.399 . S
C1595 C1596 1.376 . S
C1596 H1583 0.930 . S
C1596 C1595 1.376 . S
C1596 C1597 1.388 . S
C1597 H1584 0.930 . S
C1597 C1596 1.388 . S
C1597 C1598 1.390 . S
C1598 C1597 1.390 . S
C1598 C1599 1.394 . S
C1598 C1604 1.465 . S
C1599 C1594 1.399 . S
C1599 C1598 1.394 . S
C1599 C1600 1.516 . S
C1600 C1599 1.516 . S
C1600 C1601 1.502 . S
C1600 C1602 1.561 . S
C1600 C1603 1.526 . S
C1601 H1585 0.959 . S
C1601 H1586 0.959 . S
C1601 H1587 0.961 . S
C1601 C1600 1.502 . S
C1602 H1588 0.960 . S
C1602 H1589 0.961 . S
C1602 H1590 0.959 . S
C1602 C1600 1.561 . S
C1603 C1600 1.526 . S
C1603 C1604 1.396 . S
C1603 C1608 1.390 . S
C1604 C1598 1.465 . S
C1604 C1603 1.396 . S
C1604 C1605 1.399 . S
C1605 H1591 0.929 . S
C1605 C1604 1.399 . S
C1605 C1606 1.385 . S
C1606 H1592 0.931 . S
C1606 C1605 1.385 . S
C1606 C1607 1.389 . S
C1607 C1606 1.389 . S
C1607 C1608 1.387 . S
C1608 H1593 0.930 . S
C1608 C1603 1.390 . S
C1608 C1607 1.387 . S
H1609 C1621 0.930 . S
H1610 C1623 0.930 . S
H1611 C1624 0.930 . S
H1612 C1628 0.959 . S
H1613 C1628 0.959 . S
H1614 C1628 0.961 . S
H1615 C1629 0.960 . S
H1616 C1629 0.961 . S
H1617 C1629 0.959 . S
H1618 C1632 0.929 . S
H1619 C1633 0.931 . S
H1620 C1635 0.930 . S
C1621 H1609 0.930 . S
C1621 C1622 1.399 . S
C1621 C1626 1.399 . S
C1622 C1621 1.399 . S
C1622 C1623 1.376 . S
C1623 H1610 0.930 . S
C1623 C1622 1.376 . S
C1623 C1624 1.388 . S
C1624 H1611 0.930 . S
C1624 C1623 1.388 . S
C1624 C1625 1.390 . S
C1625 C1624 1.390 . S
C1625 C1626 1.394 . S
C1625 C1631 1.465 . S
C1626 C1621 1.399 . S
C1626 C1625 1.394 . S
C1626 C1627 1.516 . S
C1627 C1626 1.516 . S
C1627 C1628 1.502 . S
C1627 C1629 1.561 . S
C1627 C1630 1.526 . S
C1628 H1612 0.959 . S
C1628 H1613 0.959 . S
C1628 H1614 0.961 . S
C1628 C1627 1.502 . S
C1629 H1615 0.960 . S
C1629 H1616 0.961 . S
C1629 H1617 0.959 . S
C1629 C1627 1.561 . S
C1630 C1627 1.526 . S
C1630 C1631 1.396 . S
C1630 C1635 1.390 . S
C1631 C1625 1.465 . S
C1631 C1630 1.396 . S
C1631 C1632 1.399 . S
C1632 H1618 0.929 . S
C1632 C1631 1.399 . S
C1632 C1633 1.385 . S
C1633 H1619 0.931 . S
C1633 C1632 1.385 . S
C1633 C1634 1.389 . S
C1634 C1633 1.389 . S
C1634 C1635 1.387 . S
C1635 H1620 0.930 . S
C1635 C1630 1.390 . S
C1635 C1634 1.387 . S
H1636 C1648 0.930 . S
H1637 C1650 0.930 . S
H1638 C1651 0.930 . S
H1639 C1655 0.959 . S
H1640 C1655 0.959 . S
H1641 C1655 0.961 . S
H1642 C1656 0.960 . S
H1643 C1656 0.961 . S
H1644 C1656 0.959 . S
H1645 C1659 0.929 . S
H1646 C1660 0.931 . S
H1647 C1662 0.930 . S
C1648 H1636 0.930 . S
C1648 C1649 1.399 . S
C1648 C1653 1.399 . S
C1649 C1648 1.399 . S
C1649 C1650 1.376 . S
C1650 H1637 0.930 . S
C1650 C1649 1.376 . S
C1650 C1651 1.388 . S
C1651 H1638 0.930 . S
C1651 C1650 1.388 . S
C1651 C1652 1.390 . S
C1652 C1651 1.390 . S
C1652 C1653 1.394 . S
C1652 C1658 1.465 . S
C1653 C1648 1.399 . S
C1653 C1652 1.394 . S
C1653 C1654 1.516 . S
C1654 C1653 1.516 . S
C1654 C1655 1.502 . S
C1654 C1656 1.561 . S
C1654 C1657 1.526 . S
C1655 H1639 0.959 . S
C1655 H1640 0.959 . S
C1655 H1641 0.961 . S
C1655 C1654 1.502 . S
C1656 H1642 0.960 . S
C1656 H1643 0.961 . S
C1656 H1644 0.959 . S
C1656 C1654 1.561 . S
C1657 C1654 1.526 . S
C1657 C1658 1.396 . S
C1657 C1662 1.390 . S
C1658 C1652 1.465 . S
C1658 C1657 1.396 . S
C1658 C1659 1.399 . S
C1659 H1645 0.929 . S
C1659 C1658 1.399 . S
C1659 C1660 1.385 . S
C1660 H1646 0.931 . S
C1660 C1659 1.385 . S
C1660 C1661 1.389 . S
C1661 C1660 1.389 . S
C1661 C1662 1.387 . S
C1662 H1647 0.930 . S
C1662 C1657 1.390 . S
C1662 C1661 1.387 . S
H1663 C1675 0.930 . S
H1664 C1677 0.930 . S
H1665 C1678 0.930 . S
H1666 C1682 0.975 . S
H1667 C1682 0.969 . S
H1668 C1682 0.943 1_545 S
H1669 C1683 0.960 . S
H1670 C1683 0.961 . S
H1671 C1683 0.959 . S
H1672 C1686 0.929 . S
H1673 C1687 0.931 . S
H1674 C1689 0.930 . S
C1675 H1663 0.930 . S
C1675 C1676 1.399 . S
C1675 C1680 1.399 . S
C1676 C1675 1.399 . S
C1676 C1677 1.376 . S
C1677 H1664 0.930 . S
C1677 C1676 1.376 . S
C1677 C1678 1.388 . S
C1678 H1665 0.930 . S
C1678 C1677 1.388 . S
C1678 C1679 1.390 . S
C1679 C1678 1.390 . S
C1679 C1680 1.394 . S
C1679 C1685 1.465 1_545 S
C1680 C1675 1.399 . S
C1680 C1679 1.394 . S
C1680 C1681 1.516 . S
C1681 C1680 1.516 . S
C1681 C1682 1.495 1_545 S
C1681 C1683 1.561 . S
C1681 C1684 1.526 1_545 S
C1682 H1666 0.975 . S
C1682 H1667 0.969 . S
C1682 H1668 0.943 1_565 S
C1682 C1681 1.495 1_565 S
C1683 H1669 0.960 . S
C1683 H1670 0.961 . S
C1683 H1671 0.959 . S
C1683 C1681 1.561 . S
C1684 C1681 1.526 1_565 S
C1684 C1685 1.396 . S
C1684 C1689 1.390 . S
C1685 C1679 1.465 1_565 S
C1685 C1684 1.396 . S
C1685 C1686 1.399 . S
C1686 H1672 0.929 . S
C1686 C1685 1.399 . S
C1686 C1687 1.385 . S
C1687 H1673 0.931 . S
C1687 C1686 1.385 . S
C1687 C1688 1.389 . S
C1688 C1687 1.389 . S
C1688 C1689 1.387 . S
C1689 H1674 0.930 . S
C1689 C1684 1.390 . S
C1689 C1688 1.387 . S
H1690 C1702 0.930 . S
H1691 C1704 0.930 . S
H1692 C1705 0.930 . S
H1693 C1709 0.959 . S
H1694 C1709 0.959 . S
H1695 C1709 0.961 . S
H1696 C1710 0.960 . S
H1697 C1710 0.961 . S
H1698 C1710 0.959 . S
H1699 C1713 0.929 . S
H1700 C1714 0.931 . S
H1701 C1716 0.930 . S
C1702 H1690 0.930 . S
C1702 C1703 1.399 . S
C1702 C1707 1.399 . S
C1703 C1702 1.399 . S
C1703 C1704 1.376 . S
C1704 H1691 0.930 . S
C1704 C1703 1.376 . S
C1704 C1705 1.388 . S
C1705 H1692 0.930 . S
C1705 C1704 1.388 . S
C1705 C1706 1.390 . S
C1706 C1705 1.390 . S
C1706 C1707 1.394 . S
C1706 C1712 1.465 . S
C1707 C1702 1.399 . S
C1707 C1706 1.394 . S
C1707 C1708 1.516 . S
C1708 C1707 1.516 . S
C1708 C1709 1.502 . S
C1708 C1710 1.561 . S
C1708 C1711 1.526 . S
C1709 H1693 0.959 . S
C1709 H1694 0.959 . S
C1709 H1695 0.961 . S
C1709 C1708 1.502 . S
C1710 H1696 0.960 . S
C1710 H1697 0.961 . S
C1710 H1698 0.959 . S
C1710 C1708 1.561 . S
C1711 C1708 1.526 . S
C1711 C1712 1.396 . S
C1711 C1716 1.390 . S
C1712 C1706 1.465 . S
C1712 C1711 1.396 . S
C1712 C1713 1.399 . S
C1713 H1699 0.929 . S
C1713 C1712 1.399 . S
C1713 C1714 1.385 . S
C1714 H1700 0.931 . S
C1714 C1713 1.385 . S
C1714 C1715 1.389 . S
C1715 C1714 1.389 . S
C1715 C1716 1.387 . S
C1716 H1701 0.930 . S
C1716 C1711 1.390 . S
C1716 C1715 1.387 . S
H1717 C1729 0.930 . S
H1718 C1731 0.930 . S
H1719 C1732 0.930 . S
H1720 C1736 0.959 . S
H1721 C1736 0.959 . S
H1722 C1736 0.961 . S
H1723 C1737 0.960 . S
H1724 C1737 0.961 . S
H1725 C1737 0.959 1_554 S
H1726 C1740 0.929 . S
H1727 C1741 0.931 . S
H1728 C1743 0.930 . S
C1729 H1717 0.930 . S
C1729 C1730 1.399 . S
C1729 C1734 1.399 . S
C1730 C1729 1.399 . S
C1730 C1731 1.376 . S
C1731 H1718 0.930 . S
C1731 C1730 1.376 . S
C1731 C1732 1.388 1_556 S
C1732 H1719 0.930 . S
C1732 C1731 1.388 1_554 S
C1732 C1733 1.390 . S
C1733 C1732 1.390 . S
C1733 C1734 1.394 1_554 S
C1733 C1739 1.465 . S
C1734 C1729 1.399 . S
C1734 C1733 1.394 1_556 S
C1734 C1735 1.516 . S
C1735 C1734 1.516 . S
C1735 C1736 1.502 . S
C1735 C1737 1.561 . S
C1735 C1738 1.526 1_556 S
C1736 H1720 0.959 . S
C1736 H1721 0.959 . S
C1736 H1722 0.961 . S
C1736 C1735 1.502 . S
C1737 H1723 0.960 . S
C1737 H1724 0.961 . S
C1737 H1725 0.959 1_556 S
C1737 C1735 1.561 . S
C1738 C1735 1.526 1_554 S
C1738 C1739 1.396 . S
C1738 C1743 1.390 . S
C1739 C1733 1.465 . S
C1739 C1738 1.396 . S
C1739 C1740 1.399 . S
C1740 H1726 0.929 . S
C1740 C1739 1.399 . S
C1740 C1741 1.385 . S
C1741 H1727 0.931 . S
C1741 C1740 1.385 . S
C1741 C1742 1.389 . S
C1742 C1741 1.389 . S
C1742 C1743 1.387 . S
C1743 H1728 0.930 . S
C1743 C1738 1.390 . S
C1743 C1742 1.387 . S
H1744 C1756 0.930 . S
H1745 C1758 0.930 . S
H1746 C1759 0.930 . S
H1747 C1763 0.959 . S
H1748 C1763 0.959 . S
H1749 C1763 0.961 . S
H1750 C1764 0.960 . S
H1751 C1764 0.961 . S
H1752 C1764 0.959 . S
H1753 C1767 0.929 . S
H1754 C1768 0.931 . S
H1755 C1770 0.930 . S
C1756 H1744 0.930 . S
C1756 C1757 1.399 . S
C1756 C1761 1.399 . S
C1757 C1756 1.399 . S
C1757 C1758 1.376 . S
C1758 H1745 0.930 . S
C1758 C1757 1.376 . S
C1758 C1759 1.388 . S
C1759 H1746 0.930 . S
C1759 C1758 1.388 . S
C1759 C1760 1.390 . S
C1760 C1759 1.390 . S
C1760 C1761 1.394 . S
C1760 C1766 1.465 . S
C1761 C1756 1.399 . S
C1761 C1760 1.394 . S
C1761 C1762 1.516 . S
C1762 C1761 1.516 . S
C1762 C1763 1.502 . S
C1762 C1764 1.561 . S
C1762 C1765 1.526 . S
C1763 H1747 0.959 . S
C1763 H1748 0.959 . S
C1763 H1749 0.961 . S
C1763 C1762 1.502 . S
C1764 H1750 0.960 . S
C1764 H1751 0.961 . S
C1764 H1752 0.959 . S
C1764 C1762 1.561 . S
C1765 C1762 1.526 . S
C1765 C1766 1.396 . S
C1765 C1770 1.390 . S
C1766 C1760 1.465 . S
C1766 C1765 1.396 . S
C1766 C1767 1.399 . S
C1767 H1753 0.929 . S
C1767 C1766 1.399 . S
C1767 C1768 1.385 . S
C1768 H1754 0.931 . S
C1768 C1767 1.385 . S
C1768 C1769 1.389 . S
C1769 C1768 1.389 . S
C1769 C1770 1.387 . S
C1770 H1755 0.930 . S
C1770 C1765 1.390 . S
C1770 C1769 1.387 . S
H1771 C1783 0.930 . S
H1772 C1785 0.930 . S
H1773 C1786 0.930 . S
H1774 C1790 0.959 . S
H1775 C1790 0.959 . S
H1776 C1790 0.961 . S
H1777 C1791 0.960 . S
H1778 C1791 0.961 . S
H1779 C1791 0.959 . S
H1780 C1794 0.929 . S
H1781 C1795 0.931 . S
H1782 C1797 0.930 . S
C1783 H1771 0.930 . S
C1783 C1784 1.399 . S
C1783 C1788 1.399 . S
C1784 C1783 1.399 . S
C1784 C1785 1.376 . S
C1785 H1772 0.930 . S
C1785 C1784 1.376 . S
C1785 C1786 1.388 . S
C1786 H1773 0.930 . S
C1786 C1785 1.388 . S
C1786 C1787 1.390 . S
C1787 C1786 1.390 . S
C1787 C1788 1.394 . S
C1787 C1793 1.465 . S
C1788 C1783 1.399 . S
C1788 C1787 1.394 . S
C1788 C1789 1.516 . S
C1789 C1788 1.516 . S
C1789 C1790 1.502 . S
C1789 C1791 1.561 . S
C1789 C1792 1.526 . S
C1790 H1774 0.959 . S
C1790 H1775 0.959 . S
C1790 H1776 0.961 . S
C1790 C1789 1.502 . S
C1791 H1777 0.960 . S
C1791 H1778 0.961 . S
C1791 H1779 0.959 . S
C1791 C1789 1.561 . S
C1792 C1789 1.526 . S
C1792 C1793 1.396 . S
C1792 C1797 1.390 . S
C1793 C1787 1.465 . S
C1793 C1792 1.396 . S
C1793 C1794 1.399 . S
C1794 H1780 0.929 . S
C1794 C1793 1.399 . S
C1794 C1795 1.385 . S
C1795 H1781 0.931 . S
C1795 C1794 1.385 . S
C1795 C1796 1.389 . S
C1796 C1795 1.389 . S
C1796 C1797 1.387 . S
C1797 H1782 0.930 . S
C1797 C1792 1.390 . S
C1797 C1796 1.387 . S
H1798 C1810 0.930 . S
H1799 C1812 0.930 . S
H1800 C1813 0.930 . S
H1801 C1817 0.959 . S
H1802 C1817 0.959 . S
H1803 C1817 0.961 . S
H1804 C1818 0.960 . S
H1805 C1818 0.961 . S
H1806 C1818 0.959 . S
H1807 C1821 0.929 . S
H1808 C1822 0.931 . S
H1809 C1824 0.930 . S
C1810 H1798 0.930 . S
C1810 C1811 1.399 . S
C1810 C1815 1.399 . S
C1811 C1810 1.399 . S
C1811 C1812 1.376 . S
C1812 H1799 0.930 . S
C1812 C1811 1.376 . S
C1812 C1813 1.388 . S
C1813 H1800 0.930 . S
C1813 C1812 1.388 . S
C1813 C1814 1.390 . S
C1814 C1813 1.390 . S
C1814 C1815 1.394 . S
C1814 C1820 1.465 . S
C1815 C1810 1.399 . S
C1815 C1814 1.394 . S
C1815 C1816 1.516 . S
C1816 C1815 1.516 . S
C1816 C1817 1.502 . S
C1816 C1818 1.561 . S
C1816 C1819 1.526 . S
C1817 H1801 0.959 . S
C1817 H1802 0.959 . S
C1817 H1803 0.961 . S
C1817 C1816 1.502 . S
C1818 H1804 0.960 . S
C1818 H1805 0.961 . S
C1818 H1806 0.959 . S
C1818 C1816 1.561 . S
C1819 C1816 1.526 . S
C1819 C1820 1.396 . S
C1819 C1824 1.390 . S
C1820 C1814 1.465 . S
C1820 C1819 1.396 . S
C1820 C1821 1.399 . S
C1821 H1807 0.929 . S
C1821 C1820 1.399 . S
C1821 C1822 1.385 . S
C1822 H1808 0.931 . S
C1822 C1821 1.385 . S
C1822 C1823 1.389 . S
C1823 C1822 1.389 . S
C1823 C1824 1.387 . S
C1824 H1809 0.930 . S
C1824 C1819 1.390 . S
C1824 C1823 1.387 . S
H1825 C1837 0.930 . S
H1826 C1839 0.930 . S
H1827 C1840 0.930 . S
H1828 C1844 0.959 . S
H1829 C1844 0.959 . S
H1830 C1844 0.961 . S
H1831 C1845 0.960 . S
H1832 C1845 0.961 . S
H1833 C1845 0.959 . S
H1834 C1848 0.929 . S
H1835 C1849 0.931 . S
H1836 C1851 0.930 . S
C1837 H1825 0.930 . S
C1837 C1838 1.399 . S
C1837 C1842 1.399 . S
C1838 C1837 1.399 . S
C1838 C1839 1.376 . S
C1839 H1826 0.930 . S
C1839 C1838 1.376 . S
C1839 C1840 1.388 . S
C1840 H1827 0.930 . S
C1840 C1839 1.388 . S
C1840 C1841 1.390 . S
C1841 C1840 1.390 . S
C1841 C1842 1.394 . S
C1841 C1847 1.465 . S
C1842 C1837 1.399 . S
C1842 C1841 1.394 . S
C1842 C1843 1.516 . S
C1843 C1842 1.516 . S
C1843 C1844 1.502 . S
C1843 C1845 1.561 . S
C1843 C1846 1.526 . S
C1844 H1828 0.959 . S
C1844 H1829 0.959 . S
C1844 H1830 0.961 . S
C1844 C1843 1.502 . S
C1845 H1831 0.960 . S
C1845 H1832 0.961 . S
C1845 H1833 0.959 . S
C1845 C1843 1.561 . S
C1846 C1843 1.526 . S
C1846 C1847 1.396 . S
C1846 C1851 1.390 . S
C1847 C1841 1.465 . S
C1847 C1846 1.396 . S
C1847 C1848 1.399 . S
C1848 H1834 0.929 . S
C1848 C1847 1.399 . S
C1848 C1849 1.385 . S
C1849 H1835 0.931 . S
C1849 C1848 1.385 . S
C1849 C1850 1.389 . S
C1850 C1849 1.389 . S
C1850 C1851 1.387 . S
C1851 H1836 0.930 . S
C1851 C1846 1.390 . S
C1851 C1850 1.387 . S
H1852 C1864 0.930 . S
H1853 C1866 0.930 . S
H1854 C1867 0.930 . S
H1855 C1871 0.959 . S
H1856 C1871 0.959 . S
H1857 C1871 0.961 . S
H1858 C1872 0.960 . S
H1859 C1872 0.961 . S
H1860 C1872 0.959 . S
H1861 C1875 0.929 . S
H1862 C1876 0.931 . S
H1863 C1878 0.930 . S
C1864 H1852 0.930 . S
C1864 C1865 1.399 . S
C1864 C1869 1.399 . S
C1865 C1864 1.399 . S
C1865 C1866 1.376 . S
C1866 H1853 0.930 . S
C1866 C1865 1.376 . S
C1866 C1867 1.388 . S
C1867 H1854 0.930 . S
C1867 C1866 1.388 . S
C1867 C1868 1.390 . S
C1868 C1867 1.390 . S
C1868 C1869 1.394 . S
C1868 C1874 1.465 . S
C1869 C1864 1.399 . S
C1869 C1868 1.394 . S
C1869 C1870 1.516 . S
C1870 C1869 1.516 . S
C1870 C1871 1.502 . S
C1870 C1872 1.561 . S
C1870 C1873 1.526 . S
C1871 H1855 0.959 . S
C1871 H1856 0.959 . S
C1871 H1857 0.961 . S
C1871 C1870 1.502 . S
C1872 H1858 0.960 . S
C1872 H1859 0.961 . S
C1872 H1860 0.959 . S
C1872 C1870 1.561 . S
C1873 C1870 1.526 . S
C1873 C1874 1.396 . S
C1873 C1878 1.390 . S
C1874 C1868 1.465 . S
C1874 C1873 1.396 . S
C1874 C1875 1.399 . S
C1875 H1861 0.929 . S
C1875 C1874 1.399 . S
C1875 C1876 1.385 . S
C1876 H1862 0.931 . S
C1876 C1875 1.385 . S
C1876 C1877 1.389 . S
C1877 C1876 1.389 . S
C1877 C1878 1.387 . S
C1878 H1863 0.930 . S
C1878 C1873 1.390 . S
C1878 C1877 1.387 . S
H1879 C1891 0.930 . S
H1880 C1893 0.930 . S
H1881 C1894 0.930 . S
H1882 C1898 0.959 . S
H1883 C1898 0.959 . S
H1884 C1898 0.961 . S
H1885 C1899 0.960 . S
H1886 C1899 0.961 . S
H1887 C1899 0.959 . S
H1888 C1902 0.929 . S
H1889 C1903 0.931 . S
H1890 C1905 0.930 . S
C1891 H1879 0.930 . S
C1891 C1892 1.399 . S
C1891 C1896 1.399 . S
C1892 C1891 1.399 . S
C1892 C1893 1.376 . S
C1893 H1880 0.930 . S
C1893 C1892 1.376 . S
C1893 C1894 1.388 . S
C1894 H1881 0.930 . S
C1894 C1893 1.388 . S
C1894 C1895 1.390 . S
C1895 C1894 1.390 . S
C1895 C1896 1.394 . S
C1895 C1901 1.465 . S
C1896 C1891 1.399 . S
C1896 C1895 1.394 . S
C1896 C1897 1.516 . S
C1897 C1896 1.516 . S
C1897 C1898 1.502 . S
C1897 C1899 1.561 . S
C1897 C1900 1.526 . S
C1898 H1882 0.959 . S
C1898 H1883 0.959 . S
C1898 H1884 0.961 . S
C1898 C1897 1.502 . S
C1899 H1885 0.960 . S
C1899 H1886 0.961 . S
C1899 H1887 0.959 . S
C1899 C1897 1.561 . S
C1900 C1897 1.526 . S
C1900 C1901 1.396 . S
C1900 C1905 1.390 . S
C1901 C1895 1.465 . S
C1901 C1900 1.396 . S
C1901 C1902 1.399 . S
C1902 H1888 0.929 . S
C1902 C1901 1.399 . S
C1902 C1903 1.385 . S
C1903 H1889 0.931 . S
C1903 C1902 1.385 . S
C1903 C1904 1.389 . S
C1904 C1903 1.389 . S
C1904 C1905 1.387 . S
C1905 H1890 0.930 . S
C1905 C1900 1.390 . S
C1905 C1904 1.387 . S
H1906 C1918 0.930 . S
H1907 C1920 0.930 . S
H1908 C1921 0.930 . S
H1909 C1925 0.959 . S
H1910 C1925 0.959 . S
H1911 C1925 0.961 . S
H1912 C1926 0.960 . S
H1913 C1926 0.961 . S
H1914 C1926 0.959 . S
H1915 C1929 0.929 . S
H1916 C1930 0.931 . S
H1917 C1932 0.930 . S
C1918 H1906 0.930 . S
C1918 C1919 1.399 . S
C1918 C1923 1.399 . S
C1919 C1918 1.399 . S
C1919 C1920 1.376 . S
C1920 H1907 0.930 . S
C1920 C1919 1.376 . S
C1920 C1921 1.388 . S
C1921 H1908 0.930 . S
C1921 C1920 1.388 . S
C1921 C1922 1.390 . S
C1922 C1921 1.390 . S
C1922 C1923 1.394 . S
C1922 C1928 1.465 . S
C1923 C1918 1.399 . S
C1923 C1922 1.394 . S
C1923 C1924 1.516 . S
C1924 C1923 1.516 . S
C1924 C1925 1.502 . S
C1924 C1926 1.561 . S
C1924 C1927 1.526 . S
C1925 H1909 0.959 . S
C1925 H1910 0.959 . S
C1925 H1911 0.961 . S
C1925 C1924 1.502 . S
C1926 H1912 0.960 . S
C1926 H1913 0.961 . S
C1926 H1914 0.959 . S
C1926 C1924 1.561 . S
C1927 C1924 1.526 . S
C1927 C1928 1.396 . S
C1927 C1932 1.390 . S
C1928 C1922 1.465 . S
C1928 C1927 1.396 . S
C1928 C1929 1.399 . S
C1929 H1915 0.929 . S
C1929 C1928 1.399 . S
C1929 C1930 1.385 . S
C1930 H1916 0.931 . S
C1930 C1929 1.385 . S
C1930 C1931 1.389 . S
C1931 C1930 1.389 . S
C1931 C1932 1.387 . S
C1932 H1917 0.930 . S
C1932 C1927 1.390 . S
C1932 C1931 1.387 . S
H1933 C1945 0.930 . S
H1934 C1947 0.930 . S
H1935 C1948 0.930 . S
H1936 C1952 0.959 . S
H1937 C1952 0.959 . S
H1938 C1952 0.961 . S
H1939 C1953 0.960 . S
H1940 C1953 0.961 . S
H1941 C1953 0.959 . S
H1942 C1956 0.929 . S
H1943 C1957 0.931 . S
H1944 C1959 0.930 . S
C1945 H1933 0.930 . S
C1945 C1946 1.399 . S
C1945 C1950 1.399 . S
C1946 C1945 1.399 . S
C1946 C1947 1.376 . S
C1947 H1934 0.930 . S
C1947 C1946 1.376 . S
C1947 C1948 1.388 . S
C1948 H1935 0.930 . S
C1948 C1947 1.388 . S
C1948 C1949 1.390 . S
C1949 C1948 1.390 . S
C1949 C1950 1.394 . S
C1949 C1955 1.465 . S
C1950 C1945 1.399 . S
C1950 C1949 1.394 . S
C1950 C1951 1.516 . S
C1951 C1950 1.516 . S
C1951 C1952 1.502 . S
C1951 C1953 1.561 . S
C1951 C1954 1.526 . S
C1952 H1936 0.959 . S
C1952 H1937 0.959 . S
C1952 H1938 0.961 . S
C1952 C1951 1.502 . S
C1953 H1939 0.960 . S
C1953 H1940 0.961 . S
C1953 H1941 0.959 . S
C1953 C1951 1.561 . S
C1954 C1951 1.526 . S
C1954 C1955 1.396 . S
C1954 C1959 1.390 . S
C1955 C1949 1.465 . S
C1955 C1954 1.396 . S
C1955 C1956 1.399 . S
C1956 H1942 0.929 . S
C1956 C1955 1.399 . S
C1956 C1957 1.385 . S
C1957 H1943 0.931 . S
C1957 C1956 1.385 . S
C1957 C1958 1.389 . S
C1958 C1957 1.389 . S
C1958 C1959 1.387 . S
C1959 H1944 0.930 . S
C1959 C1954 1.390 . S
C1959 C1958 1.387 . S
H1960 C1972 0.930 . S
H1961 C1974 0.930 . S
H1962 C1975 0.930 . S
H1963 C1979 0.959 . S
H1964 C1979 0.959 . S
H1965 C1979 0.961 . S
H1966 C1980 0.960 . S
H1967 C1980 0.961 . S
H1968 C1980 0.959 . S
H1969 C1983 0.929 . S
H1970 C1984 0.931 . S
H1971 C1986 0.930 . S
C1972 H1960 0.930 . S
C1972 C1973 1.399 . S
C1972 C1977 1.399 . S
C1973 C1972 1.399 . S
C1973 C1974 1.376 . S
C1974 H1961 0.930 . S
C1974 C1973 1.376 . S
C1974 C1975 1.388 . S
C1975 H1962 0.930 . S
C1975 C1974 1.388 . S
C1975 C1976 1.390 . S
C1976 C1975 1.390 . S
C1976 C1977 1.394 . S
C1976 C1982 1.465 . S
C1977 C1972 1.399 . S
C1977 C1976 1.394 . S
C1977 C1978 1.516 . S
C1978 C1977 1.516 . S
C1978 C1979 1.502 . S
C1978 C1980 1.561 . S
C1978 C1981 1.526 . S
C1979 H1963 0.959 . S
C1979 H1964 0.959 . S
C1979 H1965 0.961 . S
C1979 C1978 1.502 . S
C1980 H1966 0.960 . S
C1980 H1967 0.961 . S
C1980 H1968 0.959 . S
C1980 C1978 1.561 . S
C1981 C1978 1.526 . S
C1981 C1982 1.396 . S
C1981 C1986 1.390 . S
C1982 C1976 1.465 . S
C1982 C1981 1.396 . S
C1982 C1983 1.399 . S
C1983 H1969 0.929 . S
C1983 C1982 1.399 . S
C1983 C1984 1.385 . S
C1984 H1970 0.931 . S
C1984 C1983 1.385 . S
C1984 C1985 1.389 . S
C1985 C1984 1.389 . S
C1985 C1986 1.387 . S
C1986 H1971 0.930 . S
C1986 C1981 1.390 . S
C1986 C1985 1.387 . S
H1987 C1999 0.930 . S
H1988 C2001 0.930 . S
H1989 C2002 0.930 . S
H1990 C2006 0.959 . S
H1991 C2006 0.959 . S
H1992 C2006 0.961 . S
H1993 C2007 0.960 . S
H1994 C2007 0.961 . S
H1995 C2007 0.959 . S
H1996 C2010 0.929 . S
H1997 C2011 0.931 . S
H1998 C2013 0.930 . S
C1999 H1987 0.930 . S
C1999 C2000 1.399 . S
C1999 C2004 1.399 . S
C2000 C1999 1.399 . S
C2000 C2001 1.376 . S
C2001 H1988 0.930 . S
C2001 C2000 1.376 . S
C2001 C2002 1.388 . S
C2002 H1989 0.930 . S
C2002 C2001 1.388 . S
C2002 C2003 1.390 . S
C2003 C2002 1.390 . S
C2003 C2004 1.394 . S
C2003 C2009 1.465 . S
C2004 C1999 1.399 . S
C2004 C2003 1.394 . S
C2004 C2005 1.516 . S
C2005 C2004 1.516 . S
C2005 C2006 1.502 . S
C2005 C2007 1.561 . S
C2005 C2008 1.526 . S
C2006 H1990 0.959 . S
C2006 H1991 0.959 . S
C2006 H1992 0.961 . S
C2006 C2005 1.502 . S
C2007 H1993 0.960 . S
C2007 H1994 0.961 . S
C2007 H1995 0.959 . S
C2007 C2005 1.561 . S
C2008 C2005 1.526 . S
C2008 C2009 1.396 . S
C2008 C2013 1.390 . S
C2009 C2003 1.465 . S
C2009 C2008 1.396 . S
C2009 C2010 1.399 . S
C2010 H1996 0.929 . S
C2010 C2009 1.399 . S
C2010 C2011 1.385 . S
C2011 H1997 0.931 . S
C2011 C2010 1.385 . S
C2011 C2012 1.389 . S
C2012 C2011 1.389 . S
C2012 C2013 1.387 . S
C2013 H1998 0.930 . S
C2013 C2008 1.390 . S
C2013 C2012 1.387 . S
H2014 C2026 0.930 . S
H2015 C2028 0.930 . S
H2016 C2029 0.930 . S
H2017 C2033 0.959 . S
H2018 C2033 0.959 . S
H2019 C2033 0.961 . S
H2020 C2034 0.960 . S
H2021 C2034 0.961 . S
H2022 C2034 0.959 . S
H2023 C2037 0.929 . S
H2024 C2038 0.931 . S
H2025 C2040 0.930 . S
C2026 H2014 0.930 . S
C2026 C2027 1.399 . S
C2026 C2031 1.399 . S
C2027 C2026 1.399 . S
C2027 C2028 1.376 . S
C2028 H2015 0.930 . S
C2028 C2027 1.376 . S
C2028 C2029 1.388 . S
C2029 H2016 0.930 . S
C2029 C2028 1.388 . S
C2029 C2030 1.390 . S
C2030 C2029 1.390 . S
C2030 C2031 1.394 . S
C2030 C2036 1.465 . S
C2031 C2026 1.399 . S
C2031 C2030 1.394 . S
C2031 C2032 1.516 . S
C2032 C2031 1.516 . S
C2032 C2033 1.502 . S
C2032 C2034 1.561 . S
C2032 C2035 1.526 . S
C2033 H2017 0.959 . S
C2033 H2018 0.959 . S
C2033 H2019 0.961 . S
C2033 C2032 1.502 . S
C2034 H2020 0.960 . S
C2034 H2021 0.961 . S
C2034 H2022 0.959 . S
C2034 C2032 1.561 . S
C2035 C2032 1.526 . S
C2035 C2036 1.396 . S
C2035 C2040 1.390 . S
C2036 C2030 1.465 . S
C2036 C2035 1.396 . S
C2036 C2037 1.399 . S
C2037 H2023 0.929 . S
C2037 C2036 1.399 . S
C2037 C2038 1.385 . S
C2038 H2024 0.931 . S
C2038 C2037 1.385 . S
C2038 C2039 1.389 . S
C2039 C2038 1.389 . S
C2039 C2040 1.387 . S
C2040 H2025 0.930 . S
C2040 C2035 1.390 . S
C2040 C2039 1.387 . S
H2041 C2053 0.930 . S
H2042 C2055 0.930 . S
H2043 C2056 0.930 . S
H2044 C2060 0.959 . S
H2045 C2060 0.959 . S
H2046 C2060 0.961 . S
H2047 C2061 0.960 . S
H2048 C2061 0.961 . S
H2049 C2061 0.959 . S
H2050 C2064 0.929 . S
H2051 C2065 0.931 . S
H2052 C2067 0.930 . S
C2053 H2041 0.930 . S
C2053 C2054 1.399 . S
C2053 C2058 1.399 . S
C2054 C2053 1.399 . S
C2054 C2055 1.376 . S
C2055 H2042 0.930 . S
C2055 C2054 1.376 . S
C2055 C2056 1.388 . S
C2056 H2043 0.930 . S
C2056 C2055 1.388 . S
C2056 C2057 1.390 . S
C2057 C2056 1.390 . S
C2057 C2058 1.394 . S
C2057 C2063 1.465 . S
C2058 C2053 1.399 . S
C2058 C2057 1.394 . S
C2058 C2059 1.516 . S
C2059 C2058 1.516 . S
C2059 C2060 1.502 . S
C2059 C2061 1.561 . S
C2059 C2062 1.526 . S
C2060 H2044 0.959 . S
C2060 H2045 0.959 . S
C2060 H2046 0.961 . S
C2060 C2059 1.502 . S
C2061 H2047 0.960 . S
C2061 H2048 0.961 . S
C2061 H2049 0.959 . S
C2061 C2059 1.561 . S
C2062 C2059 1.526 . S
C2062 C2063 1.396 . S
C2062 C2067 1.390 . S
C2063 C2057 1.465 . S
C2063 C2062 1.396 . S
C2063 C2064 1.399 . S
C2064 H2050 0.929 . S
C2064 C2063 1.399 . S
C2064 C2065 1.385 . S
C2065 H2051 0.931 . S
C2065 C2064 1.385 . S
C2065 C2066 1.389 . S
C2066 C2065 1.389 . S
C2066 C2067 1.387 . S
C2067 H2052 0.930 . S
C2067 C2062 1.390 . S
C2067 C2066 1.387 . S
H2068 C2080 0.930 . S
H2069 C2082 0.930 . S
H2070 C2083 0.930 . S
H2071 C2087 0.959 . S
H2072 C2087 0.959 . S
H2073 C2087 0.961 . S
H2074 C2088 0.960 . S
H2075 C2088 0.961 . S
H2076 C2088 0.959 . S
H2077 C2091 0.929 . S
H2078 C2092 0.931 . S
H2079 C2094 0.930 . S
C2080 H2068 0.930 . S
C2080 C2081 1.399 . S
C2080 C2085 1.399 . S
C2081 C2080 1.399 . S
C2081 C2082 1.376 . S
C2082 H2069 0.930 . S
C2082 C2081 1.376 . S
C2082 C2083 1.388 . S
C2083 H2070 0.930 . S
C2083 C2082 1.388 . S
C2083 C2084 1.390 . S
C2084 C2083 1.390 . S
C2084 C2085 1.394 . S
C2084 C2090 1.465 . S
C2085 C2080 1.399 . S
C2085 C2084 1.394 . S
C2085 C2086 1.516 . S
C2086 C2085 1.516 . S
C2086 C2087 1.502 . S
C2086 C2088 1.561 . S
C2086 C2089 1.526 . S
C2087 H2071 0.959 . S
C2087 H2072 0.959 . S
C2087 H2073 0.961 . S
C2087 C2086 1.502 . S
C2088 H2074 0.960 . S
C2088 H2075 0.961 . S
C2088 H2076 0.959 . S
C2088 C2086 1.561 . S
C2089 C2086 1.526 . S
C2089 C2090 1.396 . S
C2089 C2094 1.390 . S
C2090 C2084 1.465 . S
C2090 C2089 1.396 . S
C2090 C2091 1.399 . S
C2091 H2077 0.929 . S
C2091 C2090 1.399 . S
C2091 C2092 1.385 . S
C2092 H2078 0.931 . S
C2092 C2091 1.385 . S
C2092 C2093 1.389 . S
C2093 C2092 1.389 . S
C2093 C2094 1.387 . S
C2094 H2079 0.930 . S
C2094 C2089 1.390 . S
C2094 C2093 1.387 . S
H2095 C2107 0.930 . S
H2096 C2109 0.930 . S
H2097 C2110 0.930 . S
H2098 C2114 0.959 . S
H2099 C2114 0.959 . S
H2100 C2114 0.961 . S
H2101 C2115 0.960 . S
H2102 C2115 0.961 . S
H2103 C2115 0.959 . S
H2104 C2118 0.929 . S
H2105 C2119 0.931 . S
H2106 C2121 0.930 . S
C2107 H2095 0.930 . S
C2107 C2108 1.399 . S
C2107 C2112 1.399 . S
C2108 C2107 1.399 . S
C2108 C2109 1.376 . S
C2109 H2096 0.930 . S
C2109 C2108 1.376 . S
C2109 C2110 1.388 . S
C2110 H2097 0.930 . S
C2110 C2109 1.388 . S
C2110 C2111 1.390 . S
C2111 C2110 1.390 . S
C2111 C2112 1.394 . S
C2111 C2117 1.465 . S
C2112 C2107 1.399 . S
C2112 C2111 1.394 . S
C2112 C2113 1.516 . S
C2113 C2112 1.516 . S
C2113 C2114 1.502 . S
C2113 C2115 1.561 . S
C2113 C2116 1.526 . S
C2114 H2098 0.959 . S
C2114 H2099 0.959 . S
C2114 H2100 0.961 . S
C2114 C2113 1.502 . S
C2115 H2101 0.960 . S
C2115 H2102 0.961 . S
C2115 H2103 0.959 . S
C2115 C2113 1.561 . S
C2116 C2113 1.526 . S
C2116 C2117 1.396 . S
C2116 C2121 1.390 . S
C2117 C2111 1.465 . S
C2117 C2116 1.396 . S
C2117 C2118 1.399 . S
C2118 H2104 0.929 . S
C2118 C2117 1.399 . S
C2118 C2119 1.385 . S
C2119 H2105 0.931 . S
C2119 C2118 1.385 . S
C2119 C2120 1.389 . S
C2120 C2119 1.389 . S
C2120 C2121 1.387 . S
C2121 H2106 0.930 . S
C2121 C2116 1.390 . S
C2121 C2120 1.387 . S
H2122 C2134 0.930 . S
H2123 C2136 0.930 . S
H2124 C2137 0.930 . S
H2125 C2141 0.959 . S
H2126 C2141 0.959 . S
H2127 C2141 0.961 . S
H2128 C2142 0.960 . S
H2129 C2142 0.961 . S
H2130 C2142 0.959 . S
H2131 C2145 0.929 . S
H2132 C2146 0.931 . S
H2133 C2148 0.930 . S
C2134 H2122 0.930 . S
C2134 C2135 1.399 . S
C2134 C2139 1.399 . S
C2135 C2134 1.399 . S
C2135 C2136 1.376 . S
C2136 H2123 0.930 . S
C2136 C2135 1.376 . S
C2136 C2137 1.388 . S
C2137 H2124 0.930 . S
C2137 C2136 1.388 . S
C2137 C2138 1.390 . S
C2138 C2137 1.390 . S
C2138 C2139 1.394 . S
C2138 C2144 1.465 . S
C2139 C2134 1.399 . S
C2139 C2138 1.394 . S
C2139 C2140 1.516 . S
C2140 C2139 1.516 . S
C2140 C2141 1.502 . S
C2140 C2142 1.561 . S
C2140 C2143 1.526 . S
C2141 H2125 0.959 . S
C2141 H2126 0.959 . S
C2141 H2127 0.961 . S
C2141 C2140 1.502 . S
C2142 H2128 0.960 . S
C2142 H2129 0.961 . S
C2142 H2130 0.959 . S
C2142 C2140 1.561 . S
C2143 C2140 1.526 . S
C2143 C2144 1.396 . S
C2143 C2148 1.390 . S
C2144 C2138 1.465 . S
C2144 C2143 1.396 . S
C2144 C2145 1.399 . S
C2145 H2131 0.929 . S
C2145 C2144 1.399 . S
C2145 C2146 1.385 . S
C2146 H2132 0.931 . S
C2146 C2145 1.385 . S
C2146 C2147 1.389 . S
C2147 C2146 1.389 . S
C2147 C2148 1.387 . S
C2148 H2133 0.930 . S
C2148 C2143 1.390 . S
C2148 C2147 1.387 . S
H2149 C2161 0.930 . S
H2150 C2163 0.930 . S
H2151 C2164 0.930 . S
H2152 C2168 0.959 . S
H2153 C2168 0.959 . S
H2154 C2168 0.961 . S
H2155 C2169 0.960 . S
H2156 C2169 0.961 . S
H2157 C2169 0.959 . S
H2158 C2172 0.929 . S
H2159 C2173 0.931 . S
H2160 C2175 0.930 . S
C2161 H2149 0.930 . S
C2161 C2162 1.399 . S
C2161 C2166 1.399 . S
C2162 C2161 1.399 . S
C2162 C2163 1.376 . S
C2163 H2150 0.930 . S
C2163 C2162 1.376 . S
C2163 C2164 1.388 . S
C2164 H2151 0.930 . S
C2164 C2163 1.388 . S
C2164 C2165 1.390 . S
C2165 C2164 1.390 . S
C2165 C2166 1.394 . S
C2165 C2171 1.465 . S
C2166 C2161 1.399 . S
C2166 C2165 1.394 . S
C2166 C2167 1.516 . S
C2167 C2166 1.516 . S
C2167 C2168 1.502 . S
C2167 C2169 1.561 . S
C2167 C2170 1.526 . S
C2168 H2152 0.959 . S
C2168 H2153 0.959 . S
C2168 H2154 0.961 . S
C2168 C2167 1.502 . S
C2169 H2155 0.960 . S
C2169 H2156 0.961 . S
C2169 H2157 0.959 . S
C2169 C2167 1.561 . S
C2170 C2167 1.526 . S
C2170 C2171 1.396 . S
C2170 C2175 1.390 . S
C2171 C2165 1.465 . S
C2171 C2170 1.396 . S
C2171 C2172 1.399 . S
C2172 H2158 0.929 . S
C2172 C2171 1.399 . S
C2172 C2173 1.385 . S
C2173 H2159 0.931 . S
C2173 C2172 1.385 . S
C2173 C2174 1.389 . S
C2174 C2173 1.389 . S
C2174 C2175 1.387 . S
C2175 H2160 0.930 . S
C2175 C2170 1.390 . S
C2175 C2174 1.387 . S
C461 C148 1.403 . S
C473 C8 1.412 . S
C488 C22 1.396 . S
C500 C162 1.407 . S
C515 C36 1.341 . S
C527 C120 1.336 . S
C542 C134 1.347 . S
C554 C50 1.339 . S
C569 C205 1.335 . S
C581 C65 1.364 . S
C596 C79 1.394 . S
C608 C219 1.355 . S
C623 C177 1.351 . S
C635 C93 1.390 . S
C650 C191 1.412 . S
C662 C107 1.379 . S
C677 C372 1.356 . S
C689 C232 1.345 . S
C704 C386 1.350 . S
C716 C246 1.340 . S
C731 C344 1.397 . S
C743 C260 1.408 . S
C758 C274 1.357 . S
C770 C358 1.346 . S
C785 C429 1.337 . S
C797 C289 1.341 . S
C812 C443 1.368 . S
C824 C303 1.406 . S
C839 C317 1.342 . S
C851 C401 1.379 . S
C866 C331 1.343 . S
C878 C415 1.381 . S
C893 C272 1.276 . S
C905 C6 1.240 . S
C920 C20 1.343 1_655 S
C932 C258 1.291 . S
C947 C244 1.342 . S
C959 C34 1.293 . S
C974 C230 1.343 . S
C986 C48 1.290 1_655 S
C1001 C63 1.301 . S
C1013 C329 1.246 . S
C1028 C77 1.310 1_455 S
C1040 C315 1.240 . S
C1055 C301 1.281 . S
C1067 C91 1.328 . S
C1082 C105 1.272 1_455 S
C1094 C287 1.334 . S
C1109 C384 1.229 . S
C1121 C118 1.302 . S
C1136 C370 1.310 . S
C1148 C132 1.230 1_655 S
C1163 C356 1.248 . S
C1175 C146 1.262 . S
C1190 C342 1.329 . S
C1202 C160 1.315 1_655 S
C1217 C175 1.270 . S
C1229 C441 1.335 . S
C1244 C427 1.306 . S
C1256 C189 1.243 1_455 S
C1271 C203 1.235 . S
C1283 C413 1.317 . S
C1298 C217 1.258 1_455 S
C1310 C399 1.341 . S
C1325 C174 1.412 . S
C1337 C7 1.481 . S
C1352 C21 1.470 . S
C1364 C300 1.412 . S
C1379 C90 1.456 . S
C1391 C35 1.424 . S
C1406 C440 1.451 . S
C1418 C49 1.450 . S
C1433 C62 1.440 . S
C1445 C119 1.460 . S
C1460 C245 1.482 . S
C1472 C76 1.409 . S
C1487 C385 1.481 . S
C1499 C104 1.411 . S
C1514 C412 1.447 . S
C1526 C133 1.431 . S
C1541 C147 1.407 . S
C1553 C202 1.479 . S
C1568 C328 1.460 . S
C1580 C161 1.420 . S
C1595 C357 1.409 . S
C1607 C188 1.481 . S
C1622 C216 1.446 . S
C1634 C273 1.455 . S
C1649 C231 1.479 . S
C1661 C398 1.408 . S
C1676 C314 1.445 . S
C1688 C259 1.433 . S
C1703 C343 1.412 . S
C1715 C286 1.469 . S
C1730 C371 1.436 . S
C1742 C426 1.442 . S
C1757 C9 1.124 . S
C1769 C51 1.130 . S
C1784 C37 1.064 . S
C1796 C23 1.063 . S
C1811 C64 1.121 . S
C1823 C106 1.127 . S
C1838 C78 1.066 . S
C1850 C92 1.064 . S
C1865 C121 1.086 . S
C1877 C163 1.077 . S
C1892 C135 1.074 . S
C1904 C149 1.068 . S
C1919 C176 1.126 . S
C1931 C218 1.130 . S
C1946 C204 1.080 . S
C1958 C190 1.072 . S
C1973 C275 1.088 . S
C1985 C233 1.079 . S
C2000 C261 1.103 . S
C2012 C247 1.113 . S
C2027 C330 1.072 . S
C2039 C288 1.067 . S
C2054 C316 1.071 . S
C2066 C302 1.066 . S
C2081 C387 1.109 . S
C2093 C345 1.119 . S
C2108 C373 1.124 . S
C2120 C359 1.129 . S
C2135 C400 1.067 . S
C2147 C442 1.064 . S
C2162 C428 1.069 . S
C2174 C414 1.065 . S
