# Generated by pormake.
# Topology uog, (4)-cn, num edge types: 1
# Building blocks:
#     Node 0, Type 0, BuildingBlock: KOZSID_clean_sbu_0, # of connection points: 4
#     Node 1, Type 0, BuildingBlock: KOZSID_clean_sbu_0, # of connection points: 4
#     Node 2, Type 0, BuildingBlock: KOZSID_clean_sbu_0, # of connection points: 4
#     Node 3, Type 0, BuildingBlock: KOZSID_clean_sbu_0, # of connection points: 4
#     Node 4, Type 0, BuildingBlock: KOZSID_clean_sbu_0, # of connection points: 4
#     Node 5, Type 0, BuildingBlock: KOZSID_clean_sbu_0, # of connection points: 4
#     Edge 6, Type (0, 0), BuildingBlock: UVAHIK_clean_linker_0, # of connection points: 2
#     Edge 7, Type (0, 0), BuildingBlock: UVAHIK_clean_linker_0, # of connection points: 2
#     Edge 8, Type (0, 0), BuildingBlock: UVAHIK_clean_linker_0, # of connection points: 2
#     Edge 9, Type (0, 0), BuildingBlock: UVAHIK_clean_linker_0, # of connection points: 2
#     Edge 10, Type (0, 0), BuildingBlock: UVAHIK_clean_linker_0, # of connection points: 2
#     Edge 11, Type (0, 0), BuildingBlock: UVAHIK_clean_linker_0, # of connection points: 2
#     Edge 12, Type (0, 0), BuildingBlock: UVAHIK_clean_linker_0, # of connection points: 2
#     Edge 13, Type (0, 0), BuildingBlock: UVAHIK_clean_linker_0, # of connection points: 2
#     Edge 14, Type (0, 0), BuildingBlock: UVAHIK_clean_linker_0, # of connection points: 2
#     Edge 15, Type (0, 0), BuildingBlock: UVAHIK_clean_linker_0, # of connection points: 2
#     Edge 16, Type (0, 0), BuildingBlock: UVAHIK_clean_linker_0, # of connection points: 2
#     Edge 17, Type (0, 0), BuildingBlock: UVAHIK_clean_linker_0, # of connection points: 2
# Relax obj value: 0.023
# Max RMSD: 0.251
# Mean RMSD: 0.251
data_MOF--net-uog--node1-KOZSID_clean_sbu_0--edge1-UVAHIK_clean_linker_0
_symmetry_space_group_name_H-M    P1
_symmetry_Int_Tables_number       1
_symmetry_cell_setting            triclinic
loop_
_symmetry_equiv_pos_as_xyz
'x, y, z'
_cell_length_a     47.143107
_cell_length_b     47.220095
_cell_length_c     58.991886
_cell_angle_alpha  90.178144
_cell_angle_beta   90.039523
_cell_angle_gamma 119.96771
loop_
_atom_site_label
_atom_site_type_symbol
_atom_site_fract_x
_atom_site_fract_y
_atom_site_fract_z
_atom_type_partial_charge
C0 C 0.55679 0.288 0.21771 0.0
C1 C 0.52692 0.27056 0.22859 0.0
C2 C 0.50581 0.24756 0.21334 0.0
C3 C 0.52391 0.25223 0.194 0.0
N4 N 0.55498 0.2767 0.19615 0.0
Co5 Co 0.58913 0.292 0.17212 0.0
N6 N 0.55656 0.2683 0.14753 0.0
C7 C 0.52551 0.24412 0.15093 0.0
C8 C 0.50915 0.23006 0.13111 0.0
C9 C 0.53145 0.24583 0.11417 0.0
C10 C 0.56031 0.26874 0.1246 0.0
N11 N 0.62384 0.30856 0.14835 0.0
C12 C 0.62162 0.30765 0.12537 0.0
C13 C 0.65255 0.32233 0.11553 0.0
C14 C 0.67471 0.33185 0.1328 0.0
C15 C 0.65632 0.32273 0.15215 0.0
N16 N 0.62205 0.31455 0.19662 0.0
C17 C 0.65446 0.32586 0.19508 0.0
C18 C 0.67123 0.33986 0.21474 0.0
C19 C 0.64799 0.33733 0.22969 0.0
C20 C 0.61823 0.32188 0.2182 0.0
N21 N 0.5925 0.25188 0.17615 0.0
C22 C 0.57903 0.18622 0.17954 0.0
C23 C 0.58822 0.20318 0.15889 0.0
C24 C 0.59493 0.23566 0.15759 0.0
C25 C 0.57933 0.20403 0.19881 0.0
C26 C 0.58656 0.23676 0.19682 0.0
N27 N 0.58363 0.33088 0.16819 0.0
C28 C 0.60224 0.38893 0.1716 0.0
C29 C 0.57038 0.38362 0.1675 0.0
C30 C 0.54608 0.35129 0.16276 0.0
C31 C 0.55292 0.32573 0.16362 0.0
C32 C 0.60838 0.3624 0.17165 0.0
H33 H 0.53262 0.30153 0.16115 0.0
H34 H 0.63294 0.36736 0.17507 0.0
H35 H 0.60022 0.2468 0.14115 0.0
H36 H 0.58572 0.24923 0.21194 0.0
C37 C 0.51194 0.23745 0.1728 0.0
C38 C 0.58691 0.31371 0.22862 0.0
C39 C 0.59136 0.28818 0.11228 0.0
C40 C 0.66891 0.32881 0.17407 0.0
H41 H 0.52111 0.274 0.24576 0.0
H42 H 0.4801 0.23021 0.21584 0.0
H43 H 0.48397 0.21074 0.12917 0.0
H44 H 0.52725 0.24055 0.09622 0.0
H45 H 0.65859 0.32453 0.0977 0.0
H46 H 0.7011 0.34378 0.13139 0.0
H47 H 0.69741 0.35197 0.21753 0.0
H48 H 0.65257 0.34615 0.24701 0.0
H49 H 0.58861 0.19099 0.14342 0.0
H50 H 0.57346 0.19264 0.21534 0.0
H51 H 0.62224 0.41321 0.17533 0.0
H52 H 0.52134 0.3452 0.15852 0.0
C53 C 0.27845 0.55009 0.55387 0.0
C54 C 0.25545 0.52085 0.56363 0.0
C55 C 0.2398 0.4993 0.54617 0.0
C56 C 0.25405 0.51645 0.52673 0.0
N57 N 0.27823 0.54729 0.53084 0.0
Co58 Co 0.30199 0.5809 0.50704 0.0
N59 N 0.28643 0.5479 0.48209 0.0
C60 C 0.26158 0.51694 0.48348 0.0
C61 C 0.25665 0.49976 0.46361 0.0
C62 C 0.27982 0.52136 0.44879 0.0
C63 C 0.29762 0.5506 0.46045 0.0
N64 N 0.32496 0.61482 0.4834 0.0
C65 C 0.33222 0.61189 0.46163 0.0
C66 C 0.34772 0.64208 0.45088 0.0
C67 C 0.35044 0.66467 0.46652 0.0
C68 C 0.33645 0.64712 0.4858 0.0
N69 N 0.31852 0.61451 0.5317 0.0
C70 C 0.33282 0.6471 0.52874 0.0
C71 C 0.34185 0.66463 0.54854 0.0
C72 C 0.33212 0.64177 0.56522 0.0
C73 C 0.31738 0.61131 0.5546 0.0
N74 N 0.34074 0.57502 0.51053 0.0
C75 C 0.39404 0.56267 0.51242 0.0
C76 C 0.39927 0.5948 0.51098 0.0
C77 C 0.3724 0.60044 0.51015 0.0
C78 C 0.36137 0.53725 0.51293 0.0
C79 C 0.33556 0.54384 0.51204 0.0
N80 N 0.26198 0.58473 0.50339 0.0
C81 C 0.21294 0.57983 0.52054 0.0
C82 C 0.19653 0.5721 0.4996 0.0
C83 C 0.21477 0.57348 0.48035 0.0
C84 C 0.2474 0.58033 0.48255 0.0
C85 C 0.24535 0.58607 0.52205 0.0
H86 H 0.26022 0.58042 0.46739 0.0
H87 H 0.25611 0.59019 0.53864 0.0
H88 H 0.37724 0.62528 0.50897 0.0
H89 H 0.31118 0.5232 0.51207 0.0
C90 C 0.24698 0.50401 0.5045 0.0
C91 C 0.29763 0.5806 0.56693 0.0
C92 C 0.32362 0.58103 0.45027 0.0
C93 C 0.33919 0.66064 0.50718 0.0
H94 H 0.24995 0.51596 0.58148 0.0
H95 H 0.2203 0.47416 0.54752 0.0
H96 H 0.23906 0.47427 0.46047 0.0
H97 H 0.28316 0.51628 0.4314 0.0
H98 H 0.35631 0.64735 0.43356 0.0
H99 H 0.36254 0.69091 0.46437 0.0
H100 H 0.35389 0.6909 0.55061 0.0
H101 H 0.33421 0.64705 0.58319 0.0
H102 H 0.42391 0.61552 0.51065 0.0
H103 H 0.35544 0.51197 0.51344 0.0
H104 H 0.20033 0.5794 0.53599 0.0
H105 H 0.20376 0.56872 0.46365 0.0
C106 C 0.74961 0.27657 0.88419 0.0
C107 C 0.76738 0.26449 0.89509 0.0
C108 C 0.79011 0.26611 0.87975 0.0
C109 C 0.78496 0.27902 0.86036 0.0
N110 N 0.76042 0.28554 0.86254 0.0
Co111 Co 0.74446 0.30369 0.83846 0.0
N112 N 0.76776 0.2944 0.81385 0.0
C113 C 0.79217 0.28782 0.81721 0.0
C114 C 0.80589 0.28521 0.79735 0.0
C115 C 0.78961 0.2912 0.78043 0.0
C116 C 0.76674 0.29712 0.79091 0.0
N117 N 0.72726 0.32115 0.81465 0.0
C118 C 0.72746 0.31906 0.7917 0.0
C119 C 0.71218 0.33467 0.78177 0.0
C120 C 0.7031 0.34782 0.79895 0.0
C121 C 0.71301 0.33939 0.81835 0.0
N122 N 0.72231 0.31451 0.86292 0.0
C123 C 0.71099 0.33557 0.8613 0.0
C124 C 0.69771 0.33905 0.88103 0.0
C125 C 0.70073 0.31886 0.89613 0.0
C126 C 0.71566 0.30407 0.88462 0.0
N127 N 0.78461 0.34728 0.84218 0.0
C128 C 0.85039 0.39949 0.8453 0.0
C129 C 0.83315 0.39126 0.82467 0.0
C130 C 0.80059 0.36547 0.8235 0.0
C131 C 0.83278 0.38246 0.86468 0.0
C132 C 0.79999 0.35695 0.86281 0.0
N133 N 0.70556 0.25921 0.83485 0.0
C134 C 0.64747 0.21974 0.83827 0.0
C135 C 0.65285 0.19323 0.83431 0.0
C136 C 0.68522 0.20128 0.82968 0.0
C137 C 0.71077 0.23368 0.83047 0.0
C138 C 0.67399 0.2524 0.83826 0.0
H139 H 0.73502 0.23763 0.82805 0.0
H140 H 0.669 0.27199 0.84156 0.0
H141 H 0.78918 0.35922 0.80708 0.0
H142 H 0.7877 0.344 0.87801 0.0
C143 C 0.79937 0.28145 0.8391 0.0
C144 C 0.72409 0.28121 0.89514 0.0
C145 C 0.74679 0.30817 0.77862 0.0
C146 C 0.70747 0.3465 0.84023 0.0
H147 H 0.76433 0.25564 0.91232 0.0
H148 H 0.80761 0.25791 0.88226 0.0
H149 H 0.82531 0.27949 0.79538 0.0
H150 H 0.7945 0.29191 0.76245 0.0
H151 H 0.70928 0.33771 0.7639 0.0
H152 H 0.69089 0.36199 0.79747 0.0
H153 H 0.6858 0.3533 0.88381 0.0
H154 H 0.69262 0.31533 0.91358 0.0
H155 H 0.84518 0.40348 0.80913 0.0
H156 H 0.84438 0.38837 0.8812 0.0
H157 H 0.62315 0.21544 0.84192 0.0
H158 H 0.69136 0.18265 0.82557 0.0
C159 C 0.48713 0.73622 0.22166 0.0
C160 C 0.51672 0.74321 0.23142 0.0
C161 C 0.538 0.74855 0.21395 0.0
C162 C 0.52035 0.74458 0.19449 0.0
N163 N 0.48945 0.73778 0.1986 0.0
Co164 Co 0.4552 0.72648 0.17485 0.0
N165 N 0.48769 0.74292 0.1497 0.0
C166 C 0.51878 0.74926 0.15108 0.0
C167 C 0.53557 0.76088 0.13108 0.0
C168 C 0.51357 0.76181 0.11619 0.0
C169 C 0.48451 0.75065 0.12797 0.0
N170 N 0.42073 0.7143 0.15128 0.0
C171 C 0.42319 0.72383 0.1294 0.0
C172 C 0.39277 0.7086 0.11876 0.0
C173 C 0.3705 0.68911 0.1346 0.0
C174 C 0.38847 0.6934 0.15388 0.0
N175 N 0.42203 0.71022 0.19966 0.0
C176 C 0.38935 0.69159 0.19689 0.0
C177 C 0.37217 0.68384 0.21675 0.0
C178 C 0.39537 0.6978 0.23329 0.0
C179 C 0.42568 0.71323 0.22253 0.0
N180 N 0.46072 0.77095 0.17754 0.0
C181 C 0.47242 0.83618 0.17804 0.0
C182 C 0.4403 0.80911 0.17794 0.0
C183 C 0.43499 0.77677 0.1776 0.0
C184 C 0.49815 0.82942 0.17858 0.0
C185 C 0.49188 0.79717 0.17834 0.0
N186 N 0.45171 0.68278 0.17207 0.0
C187 C 0.45915 0.64103 0.19032 0.0
C188 C 0.46483 0.63007 0.1695 0.0
C189 C 0.46117 0.64492 0.14983 0.0
C190 C 0.45462 0.67098 0.15147 0.0
C191 C 0.45211 0.66657 0.19117 0.0
H192 H 0.45337 0.68251 0.13602 0.0
H193 H 0.44889 0.6743 0.2076 0.0
H194 H 0.41016 0.75656 0.17703 0.0
H195 H 0.51272 0.79372 0.1784 0.0
C196 C 0.53229 0.74883 0.1722 0.0
C197 C 0.45669 0.7247 0.23479 0.0
C198 C 0.45383 0.746 0.11788 0.0
C199 C 0.37537 0.68343 0.17539 0.0
H200 H 0.52199 0.74335 0.24929 0.0
H201 H 0.56327 0.75444 0.21529 0.0
H202 H 0.56109 0.76892 0.12791 0.0
H203 H 0.51833 0.76975 0.09873 0.0
H204 H 0.38716 0.71139 0.1014 0.0
H205 H 0.34419 0.67478 0.13259 0.0
H206 H 0.3459 0.66954 0.21897 0.0
H207 H 0.39041 0.69532 0.25129 0.0
H208 H 0.41943 0.81282 0.17754 0.0
H209 H 0.52337 0.84905 0.17921 0.0
H210 H 0.46155 0.63118 0.20626 0.0
H211 H 0.4639 0.63704 0.13315 0.0
C212 C 0.76214 0.47858 0.5507 0.0
C213 C 0.78527 0.50753 0.56087 0.0
C214 C 0.80116 0.52935 0.54372 0.0
C215 C 0.78693 0.51261 0.52405 0.0
N216 N 0.76254 0.48178 0.52772 0.0
Co217 Co 0.73888 0.4486 0.50346 0.0
N218 N 0.75489 0.48201 0.47894 0.0
C219 C 0.77982 0.51289 0.48078 0.0
C220 C 0.78512 0.53041 0.46112 0.0
C221 C 0.7621 0.50911 0.44596 0.0
C222 C 0.744 0.47972 0.45723 0.0
N223 N 0.71603 0.41511 0.47934 0.0
C224 C 0.70899 0.41844 0.45759 0.0
C225 C 0.6931 0.38839 0.44651 0.0
C226 C 0.68999 0.36548 0.46188 0.0
C227 C 0.70409 0.3827 0.48137 0.0
N228 N 0.72182 0.41461 0.52767 0.0
C229 C 0.70715 0.38203 0.52433 0.0
C230 C 0.69753 0.36424 0.54391 0.0
C231 C 0.70726 0.38691 0.56086 0.0
C232 C 0.72262 0.41749 0.5506 0.0
N233 N 0.70026 0.4547 0.50688 0.0
C234 C 0.64722 0.46741 0.50777 0.0
C235 C 0.64179 0.4352 0.5066 0.0
C236 C 0.66855 0.42939 0.50611 0.0
C237 C 0.67987 0.49267 0.50924 0.0
C238 C 0.70559 0.48592 0.50876 0.0
N239 N 0.77879 0.44455 0.49994 0.0
C240 C 0.82729 0.44864 0.51752 0.0
C241 C 0.8443 0.45716 0.49687 0.0
C242 C 0.82662 0.45655 0.47747 0.0
C243 C 0.79393 0.44965 0.4793 0.0
C244 C 0.79488 0.44244 0.51867 0.0
H245 H 0.78154 0.45011 0.46405 0.0
H246 H 0.78368 0.43774 0.5351 0.0
H247 H 0.6636 0.40452 0.50471 0.0
H248 H 0.73002 0.50645 0.50946 0.0
C249 C 0.79426 0.52542 0.50199 0.0
C250 C 0.74267 0.44789 0.56332 0.0
C251 C 0.71806 0.44954 0.44656 0.0
C252 C 0.70089 0.36881 0.50259 0.0
H253 H 0.79069 0.51206 0.57879 0.0
H254 H 0.82082 0.55439 0.54542 0.0
H255 H 0.80288 0.55589 0.45833 0.0
H256 H 0.75906 0.51448 0.4286 0.0
H257 H 0.68443 0.38343 0.42917 0.0
H258 H 0.67749 0.33925 0.45946 0.0
H259 H 0.68507 0.33792 0.54568 0.0
H260 H 0.70476 0.38144 0.57879 0.0
H261 H 0.61712 0.41463 0.50545 0.0
H262 H 0.68579 0.5179 0.51076 0.0
H263 H 0.83945 0.44843 0.53305 0.0
H264 H 0.83812 0.46195 0.46095 0.0
C265 C 0.30078 0.75729 0.88809 0.0
C266 C 0.2937 0.77976 0.89792 0.0
C267 C 0.28832 0.7957 0.8805 0.0
C268 C 0.29236 0.78216 0.861 0.0
N269 N 0.29925 0.75814 0.86502 0.0
Co270 Co 0.31057 0.73532 0.84122 0.0
N271 N 0.29389 0.75122 0.81611 0.0
C272 C 0.2875 0.7759 0.81755 0.0
C273 C 0.27575 0.78101 0.79755 0.0
C274 C 0.2748 0.75813 0.7826 0.0
C275 C 0.28607 0.7403 0.79433 0.0
N276 N 0.32274 0.71312 0.81759 0.0
C277 C 0.31306 0.70598 0.7957 0.0
C278 C 0.32832 0.69088 0.78502 0.0
C279 C 0.34803 0.68827 0.80086 0.0
C280 C 0.3438 0.70194 0.82017 0.0
N281 N 0.32712 0.71861 0.86598 0.0
C282 C 0.34596 0.70481 0.86318 0.0
C283 C 0.35393 0.69552 0.88302 0.0
C284 C 0.33987 0.70457 0.89958 0.0
C285 C 0.32416 0.71919 0.88885 0.0
N286 N 0.26612 0.69633 0.84378 0.0
C287 C 0.20087 0.64272 0.84414 0.0
C288 C 0.22804 0.63779 0.84409 0.0
C289 C 0.2604 0.66486 0.84382 0.0
C290 C 0.20754 0.67514 0.84469 0.0
C291 C 0.2398 0.70115 0.84453 0.0
N292 N 0.35425 0.77558 0.83858 0.0
C293 C 0.39598 0.82492 0.85694 0.0
C294 C 0.40686 0.8414 0.83614 0.0
C295 C 0.392 0.82275 0.81643 0.0
C296 C 0.36598 0.79016 0.81801 0.0
C297 C 0.37047 0.79232 0.85773 0.0
H298 H 0.35442 0.77728 0.80253 0.0
H299 H 0.36278 0.78148 0.87415 0.0
H300 H 0.2807 0.66035 0.84329 0.0
H301 H 0.24318 0.72538 0.84461 0.0
C302 C 0.28799 0.78982 0.83872 0.0
C303 C 0.31233 0.73836 0.90117 0.0
C304 C 0.29075 0.71435 0.78417 0.0
C305 C 0.35403 0.699 0.84167 0.0
H306 H 0.29351 0.78479 0.91582 0.0
H307 H 0.28233 0.81498 0.88191 0.0
H308 H 0.26764 0.79843 0.79443 0.0
H309 H 0.26677 0.75492 0.76512 0.0
H310 H 0.32545 0.68245 0.76765 0.0
H311 H 0.36246 0.67641 0.79882 0.0
H312 H 0.36842 0.68375 0.88522 0.0
H313 H 0.34245 0.70211 0.91757 0.0
H314 H 0.22439 0.61327 0.84368 0.0
H315 H 0.18782 0.68062 0.84528 0.0
H316 H 0.40583 0.83726 0.8729 0.0
H317 H 0.39984 0.83325 0.79976 0.0
C318 C 0.5419 0.12861 0.19457 0.0
C319 C 0.56808 0.15014 0.18058 0.0
C320 C 0.53036 0.09469 0.19446 0.0
C321 C 0.53248 0.02865 0.15953 0.0
H322 H 0.49843 0.97693 0.21403 0.0
C323 C 0.5065 0.89468 0.16442 0.0
C324 C 0.4799 0.8713 0.17729 0.0
C325 C 0.51541 0.92787 0.16466 0.0
C326 C 0.50745 0.99081 0.19853 0.0
H327 H 0.60319 0.15202 0.15604 0.0
H328 H 0.58361 0.09357 0.15604 0.0
H329 H 0.51805 0.03555 0.21521 0.0
H330 H 0.44151 0.86535 0.20027 0.0
H331 H 0.45683 0.92326 0.20056 0.0
H332 H 0.52215 0.98404 0.14289 0.0
C333 C 0.57124 0.10264 0.16675 0.0
C334 C 0.5188 0.0247 0.1992 0.0
C335 C 0.58266 0.13648 0.1668 0.0
C336 C 0.46203 0.88237 0.19006 0.0
C337 C 0.47112 0.9158 0.19041 0.0
C338 C 0.52125 0.99487 0.15889 0.0
C339 C 0.54462 0.08095 0.18039 0.0
C340 C 0.53179 0.04438 0.17973 0.0
C341 C 0.49813 0.93922 0.17779 0.0
C342 C 0.50873 0.97527 0.1784 0.0
H343 H 0.52956 0.13782 0.2052 0.0
H344 H 0.5096 0.07916 0.20503 0.0
H345 H 0.54141 0.04236 0.14397 0.0
H346 H 0.52073 0.88735 0.15408 0.0
H347 H 0.5365 0.9448 0.15485 0.0
C348 C 0.45076 0.57303 0.50059 0.0
C349 C 0.42166 0.55492 0.51309 0.0
C350 C 0.47514 0.56394 0.50009 0.0
C351 C 0.50277 0.51069 0.52985 0.0
H352 H 0.55203 0.52296 0.47469 0.0
C353 C 0.58996 0.45626 0.5187 0.0
C354 C 0.61981 0.4754 0.50724 0.0
C355 C 0.56561 0.46541 0.51922 0.0
C356 C 0.53882 0.51955 0.49038 0.0
H357 H 0.39684 0.51347 0.53574 0.0
H358 H 0.4382 0.49733 0.53435 0.0
H359 H 0.5117 0.54081 0.4764 0.0
H360 H 0.64619 0.51874 0.48647 0.0
H361 H 0.60452 0.53466 0.48763 0.0
H362 H 0.52979 0.48923 0.54376 0.0
C363 C 0.4426 0.51881 0.52497 0.0
C364 C 0.51554 0.52997 0.49139 0.0
C365 C 0.41838 0.52792 0.52551 0.0
C366 C 0.62395 0.50347 0.49583 0.0
C367 C 0.59966 0.51249 0.49626 0.0
C368 C 0.52597 0.50016 0.52881 0.0
C369 C 0.47142 0.53642 0.51213 0.0
C370 C 0.49699 0.52578 0.51115 0.0
C371 C 0.5701 0.49386 0.50812 0.0
C372 C 0.54453 0.50442 0.50907 0.0
H373 H 0.45444 0.59385 0.49068 0.0
H374 H 0.49701 0.57866 0.49024 0.0
H375 H 0.48972 0.50738 0.54559 0.0
H376 H 0.58566 0.43457 0.52776 0.0
H377 H 0.54315 0.45001 0.52832 0.0
C378 C 0.90819 0.42017 0.86041 0.0
C379 C 0.88654 0.42457 0.84628 0.0
C380 C 0.94216 0.44252 0.8603 0.0
C381 C 1.00812 0.51003 0.82528 0.0
H382 H 0.06015 0.52858 0.87996 0.0
C383 C 0.14225 0.61808 0.8303 0.0
C384 C 0.16573 0.61505 0.84331 0.0
C385 C 0.10902 0.59379 0.83049 0.0
C386 C 0.04618 0.52347 0.86442 0.0
H387 H 0.8845 0.45727 0.82146 0.0
H388 H 0.94306 0.49612 0.82148 0.0
H389 H 1.00145 0.48964 0.88107 0.0
H390 H 0.17185 0.58299 0.86646 0.0
H391 H 0.11386 0.54039 0.86666 0.0
H392 H 0.05273 0.54402 0.80867 0.0
C393 C 0.93403 0.47489 0.8323 0.0
C394 C 1.01225 0.50097 0.86504 0.0
C395 C 0.90013 0.45249 0.83234 0.0
C396 C 0.15473 0.58631 0.85615 0.0
C397 C 0.12126 0.56197 0.85645 0.0
C398 C 0.04195 0.53256 0.82468 0.0
C399 C 0.95583 0.47024 0.84611 0.0
C400 C 0.99245 0.49395 0.8455 0.0
C401 C 0.09774 0.56537 0.8437 0.0
C402 C 0.06165 0.53994 0.84426 0.0
H403 H 0.89903 0.39884 0.87116 0.0
H404 H 0.95778 0.4375 0.871 0.0
H405 H 0.99431 0.50499 0.80967 0.0
H406 H 0.14954 0.63949 0.81992 0.0
H407 H 0.092 0.59778 0.82058 0.0
C408 C 0.14668 0.57616 0.51156 0.0
C409 C 0.1605 0.56139 0.49811 0.0
C410 C 0.11285 0.56518 0.51083 0.0
C411 C 0.03204 0.49263 0.49579 0.0
H412 H 1.00058 0.55437 0.49692 0.0
C413 C 0.89368 0.45236 0.50894 0.0
C414 C 0.88035 0.46789 0.49587 0.0
C415 C 0.92753 0.46336 0.50873 0.0
C416 C 1.00883 0.5367 0.49649 0.0
H417 H 0.1486 0.52292 0.47344 0.0
H418 H 0.08991 0.50381 0.47223 0.0
H419 H 0.05947 0.57433 0.49731 0.0
H420 H 0.8931 0.50774 0.47246 0.0
H421 H 0.95184 0.52692 0.47219 0.0
H422 H 0.98139 0.455 0.49508 0.0
C423 C 0.1053 0.52401 0.48338 0.0
C424 C 0.04277 0.5482 0.49692 0.0
C425 C 0.13919 0.53527 0.48388 0.0
C426 C 0.90215 0.4948 0.48256 0.0
C427 C 0.93605 0.50609 0.4826 0.0
C428 C 0.99809 0.48112 0.49567 0.0
C429 C 0.09147 0.53871 0.49686 0.0
C430 C 0.05503 0.52639 0.4965 0.0
C431 C 0.9494 0.49061 0.49571 0.0
C432 C 0.98584 0.50294 0.49593 0.0
H433 H 0.16209 0.59641 0.52266 0.0
H434 H 0.10334 0.57709 0.52161 0.0
H435 H 0.04028 0.47495 0.49566 0.0
H436 H 0.87789 0.43151 0.51934 0.0
H437 H 0.93666 0.45083 0.51919 0.0
C438 C 0.4343 0.89773 0.81704 0.0
C439 C 0.43253 0.87761 0.83531 0.0
C440 C 0.45726 0.93155 0.81686 0.0
C441 C 0.53274 0.99661 0.84833 0.0
H442 H 0.51708 0.0557 0.81216 0.0
C443 C 0.6334 0.13297 0.84106 0.0
C444 C 0.62591 0.15754 0.83534 0.0
C445 C 0.60949 0.09971 0.84089 0.0
C446 C 0.52191 0.03989 0.82272 0.0
H447 H 0.45551 0.87904 0.86761 0.0
H448 H 0.49264 0.93693 0.86817 0.0
H449 H 0.47683 0.99789 0.81254 0.0
H450 H 0.58559 0.16484 0.82576 0.0
H451 H 0.54357 0.10725 0.82698 0.0
H452 H 0.57643 0.0385 0.85986 0.0
C453 C 0.47721 0.9268 0.85339 0.0
C454 C 0.49877 1.0061 0.82259 0.0
C455 C 0.4549 0.89298 0.85331 0.0
C456 C 0.59284 0.14718 0.83031 0.0
C457 C 0.56857 0.11368 0.83066 0.0
C458 C 0.55535 0.03032 0.8489 0.0
C459 C 0.47912 0.94699 0.83514 0.0
C460 C 0.50375 0.98357 0.83528 0.0
C461 C 0.57642 0.08911 0.83579 0.0
C462 C 0.55082 0.05282 0.83587 0.0
H463 H 0.41759 0.88765 0.80286 0.0
H464 H 0.45776 0.9454 0.80216 0.0
H465 H 0.53858 0.98086 0.85811 0.0
H466 H 0.658 0.13917 0.84583 0.0
H467 H 0.6175 0.08238 0.84451 0.0
C468 C 0.49384 0.60252 0.15043 0.0
C469 C 0.47533 0.60435 0.16863 0.0
C470 C 0.50467 0.57951 0.15022 0.0
C471 C 0.49383 0.50401 0.18141 0.0
H472 H 0.56899 0.51946 0.14566 0.0
C473 C 0.52949 0.4032 0.17403 0.0
C474 C 0.56162 0.41058 0.1685 0.0
C475 C 0.52017 0.42715 0.17387 0.0
C476 C 0.54823 0.51469 0.1561 0.0
H477 H 0.45345 0.58143 0.20077 0.0
H478 H 0.47414 0.54419 0.20131 0.0
H479 H 0.55148 0.55979 0.14607 0.0
H480 H 0.60938 0.45076 0.15927 0.0
H481 H 0.59384 0.49283 0.16052 0.0
H482 H 0.49185 0.4603 0.1928 0.0
C483 C 0.4796 0.55962 0.18659 0.0
C484 C 0.53761 0.53787 0.15599 0.0
C485 C 0.46813 0.58199 0.18653 0.0
C486 C 0.58441 0.44359 0.16367 0.0
C487 C 0.57521 0.4679 0.16403 0.0
C488 C 0.50489 0.48135 0.18197 0.0
C489 C 0.49804 0.55765 0.16841 0.0
C490 C 0.50996 0.53297 0.16853 0.0
C491 C 0.54273 0.46016 0.16898 0.0
C492 C 0.53207 0.4858 0.16909 0.0
H493 H 0.50061 0.61922 0.13632 0.0
H494 H 0.51816 0.57897 0.13557 0.0
H495 H 0.47213 0.49824 0.19107 0.0
H496 H 0.51102 0.37867 0.17865 0.0
H497 H 0.49478 0.41923 0.17734 0.0
C498 C 0.67876 0.24857 0.92248 0.0
C499 C 0.71221 0.27053 0.91884 0.0
C500 C 0.66454 0.24622 0.94382 0.0
C501 C 0.67752 0.29728 0.99504 0.0
H502 H 0.60461 0.21833 0.01943 0.0
C503 C 0.60306 0.30344 0.07105 0.0
C504 C 0.59509 0.28013 0.08822 0.0
C505 C 0.6148 0.29976 0.04999 0.0
C506 C 0.62503 0.24064 0.01296 0.0
H507 H 0.75718 0.30648 0.93493 0.0
H508 H 0.73279 0.3018 0.97237 0.0
H509 H 0.63211 0.2154 0.98512 0.0
H510 H 0.5922 0.23422 0.09656 0.0
H511 H 0.61222 0.22743 0.05983 0.0
H512 H 0.67081 0.32251 0.02292 0.0
C513 C 0.71732 0.28651 0.95871 0.0
C514 C 0.64071 0.23899 0.99312 0.0
C515 C 0.73154 0.28874 0.93736 0.0
C516 C 0.59751 0.25222 0.08347 0.0
C517 C 0.60919 0.24848 0.0624 0.0
C518 C 0.66178 0.29895 0.01478 0.0
C519 C 0.68335 0.26607 0.96208 0.0
C520 C 0.66726 0.2673 0.98383 0.0
C521 C 0.61899 0.27269 0.04555 0.0
C522 C 0.63521 0.2707 0.02408 0.0
H523 H 0.66311 0.23495 0.90836 0.0
H524 H 0.63835 0.2304 0.94554 0.0
H525 H 0.69746 0.31976 0.98835 0.0
H526 H 0.60192 0.32543 0.07439 0.0
H527 H 0.62144 0.31866 0.03739 0.0
C528 C 0.44684 0.72848 0.27639 0.0
C529 C 0.45419 0.71312 0.25877 0.0
C530 C 0.43523 0.7128 0.29734 0.0
C531 C 0.42387 0.64216 0.33306 0.0
H532 H 0.35193 0.64947 0.35835 0.0
C533 C 0.36915 0.59423 0.42289 0.0
C534 C 0.33574 0.58308 0.42652 0.0
C535 C 0.38362 0.60663 0.40172 0.0
C536 C 0.37172 0.64676 0.35145 0.0
H537 H 0.45644 0.66992 0.24961 0.0
H538 H 0.4367 0.64271 0.28611 0.0
H539 H 0.37908 0.67962 0.32422 0.0
H540 H 0.2911 0.57527 0.41057 0.0
H541 H 0.31592 0.59593 0.37341 0.0
H542 H 0.41612 0.6089 0.36023 0.0
C543 C 0.44003 0.66695 0.28397 0.0
C544 C 0.38776 0.6646 0.33198 0.0
C545 C 0.45158 0.68262 0.26302 0.0
C546 C 0.31671 0.58291 0.40813 0.0
C547 C 0.33117 0.59543 0.38696 0.0
C548 C 0.40789 0.62439 0.35264 0.0
C549 C 0.4306 0.68128 0.30121 0.0
C550 C 0.41416 0.6627 0.32245 0.0
C551 C 0.36511 0.60856 0.38364 0.0
C552 C 0.38151 0.62637 0.36216 0.0
H553 H 0.44811 0.75172 0.27346 0.0
H554 H 0.4289 0.725 0.31027 0.0
H555 H 0.44412 0.64005 0.32638 0.0
H556 H 0.38459 0.59551 0.43693 0.0
H557 H 0.40978 0.61667 0.40004 0.0
C558 C 0.73149 0.30257 0.73728 0.0
C559 C 0.7543 0.3196 0.75455 0.0
C560 C 0.73372 0.3174 0.71623 0.0
C561 C 0.78795 0.39061 0.68024 0.0
H562 H 0.70505 0.37265 0.65426 0.0
C563 C 0.77722 0.43844 0.59131 0.0
C564 C 0.75126 0.44436 0.58724 0.0
C565 C 0.78018 0.42596 0.61222 0.0
C566 C 0.72853 0.37841 0.66135 0.0
H567 H 0.79784 0.3651 0.76313 0.0
H568 H 0.80193 0.39104 0.72659 0.0
H569 H 0.70566 0.34432 0.68837 0.0
H570 H 0.70882 0.4431 0.60215 0.0
H571 H 0.7146 0.42273 0.63899 0.0
H572 H 0.81079 0.42545 0.6535 0.0
C573 C 0.78253 0.36605 0.72894 0.0
C574 C 0.72887 0.36156 0.68082 0.0
C575 C 0.78035 0.35113 0.74993 0.0
C576 C 0.72938 0.43929 0.60496 0.0
C577 C 0.7324 0.42697 0.62593 0.0
C578 C 0.78761 0.40756 0.66076 0.0
C579 C 0.75865 0.34983 0.71196 0.0
C580 C 0.75856 0.36729 0.69062 0.0
C581 C 0.7572 0.41902 0.62967 0.0
C582 C 0.75787 0.40179 0.65097 0.0
H583 H 0.71086 0.27848 0.74053 0.0
H584 H 0.71523 0.3037 0.70353 0.0
H585 H 0.81137 0.39568 0.68704 0.0
H586 H 0.79401 0.44142 0.57778 0.0
H587 H 0.79944 0.42002 0.61416 0.0
C588 C 0.30784 0.72396 0.94261 0.0
C589 C 0.32347 0.74701 0.92533 0.0
C590 C 0.32319 0.72766 0.96372 0.0
C591 C 0.39319 0.78629 1.00061 0.0
H592 H 0.3857 0.70676 0.02508 0.0
C593 C 0.43995 0.77802 0.09073 0.0
C594 C 0.45136 0.75597 0.09419 0.0
C595 C 0.42766 0.78032 0.06952 0.0
C596 C 0.38845 0.72934 0.01842 0.0
H597 H 0.36683 0.79264 0.91694 0.0
H598 H 0.39346 0.79948 0.95375 0.0
H599 H 0.35609 0.70435 0.99066 0.0
H600 H 0.45962 0.71965 0.07795 0.0
H601 H 0.43913 0.72418 0.04074 0.0
H602 H 0.42594 0.81128 0.02832 0.0
C603 C 0.36925 0.7786 0.95121 0.0
C604 C 0.37092 0.72787 0.99878 0.0
C605 C 0.3539 0.77483 0.93009 0.0
C606 C 0.45177 0.73745 0.07564 0.0
C607 C 0.43937 0.73962 0.05444 0.0
C608 C 0.41063 0.78773 0.02036 0.0
C609 C 0.35464 0.75451 0.96811 0.0
C610 C 0.3729 0.75629 0.98954 0.0
C611 C 0.42609 0.76031 0.05123 0.0
C612 C 0.40858 0.75926 0.0296 0.0
H613 H 0.28466 0.70202 0.93928 0.0
H614 H 0.31079 0.70888 0.97637 0.0
H615 H 0.39534 0.80872 0.99416 0.0
H616 H 0.43848 0.79192 0.10488 0.0
H617 H 0.41749 0.79633 0.06793 0.0
C618 C 0.67392 0.43966 0.41856 0.0
C619 C 0.70658 0.44804 0.42265 0.0
C620 C 0.65946 0.42817 0.39716 0.0
C621 C 0.66653 0.38383 0.34769 0.0
H622 H 0.60399 0.4031 0.31919 0.0
C623 C 0.58879 0.30796 0.27086 0.0
C624 C 0.58793 0.326 0.25224 0.0
C625 C 0.60023 0.32302 0.29211 0.0
C626 C 0.6214 0.39742 0.3269 0.0
H627 H 0.74988 0.45156 0.40739 0.0
H628 H 0.72498 0.432 0.36994 0.0
H629 H 0.6321 0.43185 0.35404 0.0
H630 H 0.59752 0.37367 0.24145 0.0
H631 H 0.61638 0.39976 0.27864 0.0
H632 H 0.65593 0.34945 0.32067 0.0
C633 C 0.71042 0.4343 0.38323 0.0
C634 C 0.63745 0.41384 0.34698 0.0
C635 C 0.72495 0.44612 0.40457 0.0
C636 C 0.597 0.35894 0.25566 0.0
C637 C 0.60811 0.37394 0.27696 0.0
C638 C 0.65022 0.36716 0.32782 0.0
C639 C 0.67715 0.42419 0.37939 0.0
C640 C 0.66041 0.40742 0.35763 0.0
C641 C 0.61102 0.35651 0.29531 0.0
C642 C 0.62741 0.37368 0.31706 0.0
H643 H 0.65893 0.43998 0.43236 0.0
H644 H 0.63379 0.42046 0.39499 0.0
H645 H 0.68365 0.37781 0.35548 0.0
H646 H 0.58281 0.2828 0.26858 0.0
H647 H 0.60171 0.30866 0.30585 0.0
C648 C 0.25864 0.66856 0.75676 0.0
C649 C 0.28075 0.70197 0.76041 0.0
C650 C 0.25627 0.65407 0.73548 0.0
C651 C 0.3072 0.66595 0.68449 0.0
H652 H 0.22753 0.59386 0.65967 0.0
C653 C 0.31215 0.59077 0.60842 0.0
C654 C 0.28911 0.58349 0.59103 0.0
C655 C 0.30853 0.60247 0.62953 0.0
C656 C 0.25004 0.61403 0.66628 0.0
H657 H 0.31713 0.74655 0.74442 0.0
H658 H 0.3125 0.72167 0.70709 0.0
H659 H 0.22511 0.62172 0.69401 0.0
H660 H 0.24364 0.58164 0.5824 0.0
H661 H 0.23691 0.6015 0.61924 0.0
H662 H 0.33213 0.65862 0.65673 0.0
C663 C 0.29705 0.70645 0.72069 0.0
C664 C 0.24868 0.62992 0.68613 0.0
C665 C 0.29928 0.72094 0.74197 0.0
C666 C 0.26141 0.58639 0.59565 0.0
C667 C 0.25772 0.59801 0.61678 0.0
C668 C 0.30858 0.64998 0.66476 0.0
C669 C 0.27629 0.67255 0.71729 0.0
C670 C 0.27725 0.65619 0.69557 0.0
C671 C 0.28178 0.60727 0.63383 0.0
C672 C 0.28007 0.62369 0.65531 0.0
H673 H 0.24474 0.65318 0.77082 0.0
H674 H 0.24022 0.62794 0.73373 0.0
H675 H 0.32985 0.68567 0.6913 0.0
H676 H 0.334 0.5893 0.60519 0.0
H677 H 0.32729 0.60869 0.64228 0.0
loop_
_geom_bond_atom_site_label_1
_geom_bond_atom_site_label_2
_geom_bond_distance
_geom_bond_site_symmetry_2
_ccdc_geom_bond_type
C0 C1 1.443 . S
C0 N4 1.376 . S
C0 C38 1.389 . S
C1 C0 1.443 . S
C1 C2 1.340 . S
C1 H41 0.951 . S
C2 C1 1.340 . S
C2 C3 1.439 . S
C2 H42 0.950 . S
C3 C2 1.439 . S
C3 N4 1.374 . S
C3 C37 1.395 . S
N4 C0 1.376 . S
N4 C3 1.374 . S
N4 Co5 2.008 . S
Co5 N4 2.008 . S
Co5 N6 1.995 . S
Co5 N11 2.008 . S
Co5 N16 1.995 . S
Co5 N21 2.282 . S
Co5 N27 2.282 . S
N6 Co5 1.995 . S
N6 C7 1.376 . S
N6 C10 1.383 . S
C7 N6 1.376 . S
C7 C8 1.446 . S
C7 C37 1.391 . S
C8 C7 1.446 . S
C8 C9 1.339 . S
C8 H43 0.949 . S
C9 C8 1.339 . S
C9 C10 1.439 . S
C9 H44 0.950 . S
C10 N6 1.383 . S
C10 C9 1.439 . S
C10 C39 1.392 . S
N11 Co5 2.008 . S
N11 C12 1.376 . S
N11 C15 1.374 . S
C12 N11 1.376 . S
C12 C13 1.443 . S
C12 C39 1.389 . S
C13 C12 1.443 . S
C13 C14 1.340 . S
C13 H45 0.951 . S
C14 C13 1.340 . S
C14 C15 1.439 . S
C14 H46 0.950 . S
C15 N11 1.374 . S
C15 C14 1.439 . S
C15 C40 1.395 . S
N16 Co5 1.995 . S
N16 C17 1.376 . S
N16 C20 1.383 . S
C17 N16 1.376 . S
C17 C18 1.446 . S
C17 C40 1.391 . S
C18 C17 1.446 . S
C18 C19 1.339 . S
C18 H47 0.949 . S
C19 C18 1.339 . S
C19 C20 1.439 . S
C19 H48 0.950 . S
C20 N16 1.383 . S
C20 C19 1.439 . S
C20 C38 1.392 . S
N21 Co5 2.282 . S
N21 C24 1.332 . S
N21 C26 1.332 . S
C22 C23 1.386 . S
C22 C25 1.388 . S
C23 C22 1.386 . S
C23 C24 1.382 . S
C23 H49 0.950 . S
C24 N21 1.332 . S
C24 C23 1.382 . S
C24 H35 0.952 . S
C25 C22 1.388 . S
C25 C26 1.382 . S
C25 H50 0.950 . S
C26 N21 1.332 . S
C26 C25 1.382 . S
C26 H36 0.948 . S
N27 Co5 2.282 . S
N27 C31 1.332 . S
N27 C32 1.332 . S
C28 C29 1.388 . S
C28 C32 1.382 . S
C28 H51 0.950 . S
C29 C28 1.388 . S
C29 C30 1.386 . S
C30 C29 1.386 . S
C30 C31 1.382 . S
C30 H52 0.950 . S
C31 N27 1.332 . S
C31 C30 1.382 . S
C31 H33 0.952 . S
C32 N27 1.332 . S
C32 C28 1.382 . S
C32 H34 0.948 . S
H33 C31 0.952 . S
H34 C32 0.948 . S
H35 C24 0.952 . S
H36 C26 0.948 . S
C37 C3 1.395 . S
C37 C7 1.391 . S
C38 C0 1.389 . S
C38 C20 1.392 . S
C39 C10 1.392 . S
C39 C12 1.389 . S
C40 C15 1.395 . S
C40 C17 1.391 . S
H41 C1 0.951 . S
H42 C2 0.950 . S
H43 C8 0.949 . S
H44 C9 0.950 . S
H45 C13 0.951 . S
H46 C14 0.950 . S
H47 C18 0.949 . S
H48 C19 0.950 . S
H49 C23 0.950 . S
H50 C25 0.950 . S
H51 C28 0.950 . S
H52 C30 0.950 . S
C53 C54 1.443 . S
C53 N57 1.376 . S
C53 C91 1.389 . S
C54 C53 1.443 . S
C54 C55 1.340 . S
C54 H94 0.951 . S
C55 C54 1.340 . S
C55 C56 1.439 . S
C55 H95 0.950 . S
C56 C55 1.439 . S
C56 N57 1.374 . S
C56 C90 1.395 . S
N57 C53 1.376 . S
N57 C56 1.374 . S
N57 Co58 2.008 . S
Co58 N57 2.008 . S
Co58 N59 1.995 . S
Co58 N64 2.008 . S
Co58 N69 1.995 . S
Co58 N74 2.282 . S
Co58 N80 2.282 . S
N59 Co58 1.995 . S
N59 C60 1.376 . S
N59 C63 1.383 . S
C60 N59 1.376 . S
C60 C61 1.446 . S
C60 C90 1.391 . S
C61 C60 1.446 . S
C61 C62 1.339 . S
C61 H96 0.949 . S
C62 C61 1.339 . S
C62 C63 1.439 . S
C62 H97 0.950 . S
C63 N59 1.383 . S
C63 C62 1.439 . S
C63 C92 1.392 . S
N64 Co58 2.008 . S
N64 C65 1.376 . S
N64 C68 1.374 . S
C65 N64 1.376 . S
C65 C66 1.443 . S
C65 C92 1.389 . S
C66 C65 1.443 . S
C66 C67 1.340 . S
C66 H98 0.951 . S
C67 C66 1.340 . S
C67 C68 1.439 . S
C67 H99 0.950 . S
C68 N64 1.374 . S
C68 C67 1.439 . S
C68 C93 1.395 . S
N69 Co58 1.995 . S
N69 C70 1.376 . S
N69 C73 1.383 . S
C70 N69 1.376 . S
C70 C71 1.446 . S
C70 C93 1.391 . S
C71 C70 1.446 . S
C71 C72 1.339 . S
C71 H100 0.949 . S
C72 C71 1.339 . S
C72 C73 1.439 . S
C72 H101 0.950 . S
C73 N69 1.383 . S
C73 C72 1.439 . S
C73 C91 1.392 . S
N74 Co58 2.282 . S
N74 C77 1.332 . S
N74 C79 1.332 . S
C75 C76 1.386 . S
C75 C78 1.388 . S
C76 C75 1.386 . S
C76 C77 1.382 . S
C76 H102 0.950 . S
C77 N74 1.332 . S
C77 C76 1.382 . S
C77 H88 0.952 . S
C78 C75 1.388 . S
C78 C79 1.382 . S
C78 H103 0.950 . S
C79 N74 1.332 . S
C79 C78 1.382 . S
C79 H89 0.948 . S
N80 Co58 2.282 . S
N80 C84 1.332 . S
N80 C85 1.332 . S
C81 C82 1.388 . S
C81 C85 1.382 . S
C81 H104 0.950 . S
C82 C81 1.388 . S
C82 C83 1.386 . S
C83 C82 1.386 . S
C83 C84 1.382 . S
C83 H105 0.950 . S
C84 N80 1.332 . S
C84 C83 1.382 . S
C84 H86 0.952 . S
C85 N80 1.332 . S
C85 C81 1.382 . S
C85 H87 0.948 . S
H86 C84 0.952 . S
H87 C85 0.948 . S
H88 C77 0.952 . S
H89 C79 0.948 . S
C90 C56 1.395 . S
C90 C60 1.391 . S
C91 C53 1.389 . S
C91 C73 1.392 . S
C92 C63 1.392 . S
C92 C65 1.389 . S
C93 C68 1.395 . S
C93 C70 1.391 . S
H94 C54 0.951 . S
H95 C55 0.950 . S
H96 C61 0.949 . S
H97 C62 0.950 . S
H98 C66 0.951 . S
H99 C67 0.950 . S
H100 C71 0.949 . S
H101 C72 0.950 . S
H102 C76 0.950 . S
H103 C78 0.950 . S
H104 C81 0.950 . S
H105 C83 0.950 . S
C106 C107 1.443 . S
C106 N110 1.376 . S
C106 C144 1.389 . S
C107 C106 1.443 . S
C107 C108 1.340 . S
C107 H147 0.951 . S
C108 C107 1.340 . S
C108 C109 1.439 . S
C108 H148 0.950 . S
C109 C108 1.439 . S
C109 N110 1.374 . S
C109 C143 1.395 . S
N110 C106 1.376 . S
N110 C109 1.374 . S
N110 Co111 2.008 . S
Co111 N110 2.008 . S
Co111 N112 1.995 . S
Co111 N117 2.008 . S
Co111 N122 1.995 . S
Co111 N127 2.282 . S
Co111 N133 2.282 . S
N112 Co111 1.995 . S
N112 C113 1.376 . S
N112 C116 1.383 . S
C113 N112 1.376 . S
C113 C114 1.446 . S
C113 C143 1.391 . S
C114 C113 1.446 . S
C114 C115 1.339 . S
C114 H149 0.949 . S
C115 C114 1.339 . S
C115 C116 1.439 . S
C115 H150 0.950 . S
C116 N112 1.383 . S
C116 C115 1.439 . S
C116 C145 1.392 . S
N117 Co111 2.008 . S
N117 C118 1.376 . S
N117 C121 1.374 . S
C118 N117 1.376 . S
C118 C119 1.443 . S
C118 C145 1.389 . S
C119 C118 1.443 . S
C119 C120 1.340 . S
C119 H151 0.951 . S
C120 C119 1.340 . S
C120 C121 1.439 . S
C120 H152 0.950 . S
C121 N117 1.374 . S
C121 C120 1.439 . S
C121 C146 1.395 . S
N122 Co111 1.995 . S
N122 C123 1.376 . S
N122 C126 1.383 . S
C123 N122 1.376 . S
C123 C124 1.446 . S
C123 C146 1.391 . S
C124 C123 1.446 . S
C124 C125 1.339 . S
C124 H153 0.949 . S
C125 C124 1.339 . S
C125 C126 1.439 . S
C125 H154 0.950 . S
C126 N122 1.383 . S
C126 C125 1.439 . S
C126 C144 1.392 . S
N127 Co111 2.282 . S
N127 C130 1.332 . S
N127 C132 1.332 . S
C128 C129 1.386 . S
C128 C131 1.388 . S
C129 C128 1.386 . S
C129 C130 1.382 . S
C129 H155 0.950 . S
C130 N127 1.332 . S
C130 C129 1.382 . S
C130 H141 0.952 . S
C131 C128 1.388 . S
C131 C132 1.382 . S
C131 H156 0.950 . S
C132 N127 1.332 . S
C132 C131 1.382 . S
C132 H142 0.948 . S
N133 Co111 2.282 . S
N133 C137 1.332 . S
N133 C138 1.332 . S
C134 C135 1.388 . S
C134 C138 1.382 . S
C134 H157 0.950 . S
C135 C134 1.388 . S
C135 C136 1.386 . S
C136 C135 1.386 . S
C136 C137 1.382 . S
C136 H158 0.950 . S
C137 N133 1.332 . S
C137 C136 1.382 . S
C137 H139 0.952 . S
C138 N133 1.332 . S
C138 C134 1.382 . S
C138 H140 0.948 . S
H139 C137 0.952 . S
H140 C138 0.948 . S
H141 C130 0.952 . S
H142 C132 0.948 . S
C143 C109 1.395 . S
C143 C113 1.391 . S
C144 C106 1.389 . S
C144 C126 1.392 . S
C145 C116 1.392 . S
C145 C118 1.389 . S
C146 C121 1.395 . S
C146 C123 1.391 . S
H147 C107 0.951 . S
H148 C108 0.950 . S
H149 C114 0.949 . S
H150 C115 0.950 . S
H151 C119 0.951 . S
H152 C120 0.950 . S
H153 C124 0.949 . S
H154 C125 0.950 . S
H155 C129 0.950 . S
H156 C131 0.950 . S
H157 C134 0.950 . S
H158 C136 0.950 . S
C159 C160 1.443 . S
C159 N163 1.376 . S
C159 C197 1.389 . S
C160 C159 1.443 . S
C160 C161 1.340 . S
C160 H200 0.951 . S
C161 C160 1.340 . S
C161 C162 1.439 . S
C161 H201 0.950 . S
C162 C161 1.439 . S
C162 N163 1.374 . S
C162 C196 1.395 . S
N163 C159 1.376 . S
N163 C162 1.374 . S
N163 Co164 2.008 . S
Co164 N163 2.008 . S
Co164 N165 1.995 . S
Co164 N170 2.008 . S
Co164 N175 1.995 . S
Co164 N180 2.282 . S
Co164 N186 2.282 . S
N165 Co164 1.995 . S
N165 C166 1.376 . S
N165 C169 1.383 . S
C166 N165 1.376 . S
C166 C167 1.446 . S
C166 C196 1.391 . S
C167 C166 1.446 . S
C167 C168 1.339 . S
C167 H202 0.949 . S
C168 C167 1.339 . S
C168 C169 1.439 . S
C168 H203 0.950 . S
C169 N165 1.383 . S
C169 C168 1.439 . S
C169 C198 1.392 . S
N170 Co164 2.008 . S
N170 C171 1.376 . S
N170 C174 1.374 . S
C171 N170 1.376 . S
C171 C172 1.443 . S
C171 C198 1.389 . S
C172 C171 1.443 . S
C172 C173 1.340 . S
C172 H204 0.951 . S
C173 C172 1.340 . S
C173 C174 1.439 . S
C173 H205 0.950 . S
C174 N170 1.374 . S
C174 C173 1.439 . S
C174 C199 1.395 . S
N175 Co164 1.995 . S
N175 C176 1.376 . S
N175 C179 1.383 . S
C176 N175 1.376 . S
C176 C177 1.446 . S
C176 C199 1.391 . S
C177 C176 1.446 . S
C177 C178 1.339 . S
C177 H206 0.949 . S
C178 C177 1.339 . S
C178 C179 1.439 . S
C178 H207 0.950 . S
C179 N175 1.383 . S
C179 C178 1.439 . S
C179 C197 1.392 . S
N180 Co164 2.282 . S
N180 C183 1.332 . S
N180 C185 1.332 . S
C181 C182 1.386 . S
C181 C184 1.388 . S
C182 C181 1.386 . S
C182 C183 1.382 . S
C182 H208 0.950 . S
C183 N180 1.332 . S
C183 C182 1.382 . S
C183 H194 0.952 . S
C184 C181 1.388 . S
C184 C185 1.382 . S
C184 H209 0.950 . S
C185 N180 1.332 . S
C185 C184 1.382 . S
C185 H195 0.948 . S
N186 Co164 2.282 . S
N186 C190 1.332 . S
N186 C191 1.332 . S
C187 C188 1.388 . S
C187 C191 1.382 . S
C187 H210 0.950 . S
C188 C187 1.388 . S
C188 C189 1.386 . S
C189 C188 1.386 . S
C189 C190 1.382 . S
C189 H211 0.950 . S
C190 N186 1.332 . S
C190 C189 1.382 . S
C190 H192 0.952 . S
C191 N186 1.332 . S
C191 C187 1.382 . S
C191 H193 0.948 . S
H192 C190 0.952 . S
H193 C191 0.948 . S
H194 C183 0.952 . S
H195 C185 0.948 . S
C196 C162 1.395 . S
C196 C166 1.391 . S
C197 C159 1.389 . S
C197 C179 1.392 . S
C198 C169 1.392 . S
C198 C171 1.389 . S
C199 C174 1.395 . S
C199 C176 1.391 . S
H200 C160 0.951 . S
H201 C161 0.950 . S
H202 C167 0.949 . S
H203 C168 0.950 . S
H204 C172 0.951 . S
H205 C173 0.950 . S
H206 C177 0.949 . S
H207 C178 0.950 . S
H208 C182 0.950 . S
H209 C184 0.950 . S
H210 C187 0.950 . S
H211 C189 0.950 . S
C212 C213 1.443 . S
C212 N216 1.376 . S
C212 C250 1.389 . S
C213 C212 1.443 . S
C213 C214 1.340 . S
C213 H253 0.951 . S
C214 C213 1.340 . S
C214 C215 1.439 . S
C214 H254 0.950 . S
C215 C214 1.439 . S
C215 N216 1.374 . S
C215 C249 1.395 . S
N216 C212 1.376 . S
N216 C215 1.374 . S
N216 Co217 2.008 . S
Co217 N216 2.008 . S
Co217 N218 1.995 . S
Co217 N223 2.008 . S
Co217 N228 1.995 . S
Co217 N233 2.282 . S
Co217 N239 2.282 . S
N218 Co217 1.995 . S
N218 C219 1.376 . S
N218 C222 1.383 . S
C219 N218 1.376 . S
C219 C220 1.446 . S
C219 C249 1.391 . S
C220 C219 1.446 . S
C220 C221 1.339 . S
C220 H255 0.949 . S
C221 C220 1.339 . S
C221 C222 1.439 . S
C221 H256 0.950 . S
C222 N218 1.383 . S
C222 C221 1.439 . S
C222 C251 1.392 . S
N223 Co217 2.008 . S
N223 C224 1.376 . S
N223 C227 1.374 . S
C224 N223 1.376 . S
C224 C225 1.443 . S
C224 C251 1.389 . S
C225 C224 1.443 . S
C225 C226 1.340 . S
C225 H257 0.951 . S
C226 C225 1.340 . S
C226 C227 1.439 . S
C226 H258 0.950 . S
C227 N223 1.374 . S
C227 C226 1.439 . S
C227 C252 1.395 . S
N228 Co217 1.995 . S
N228 C229 1.376 . S
N228 C232 1.383 . S
C229 N228 1.376 . S
C229 C230 1.446 . S
C229 C252 1.391 . S
C230 C229 1.446 . S
C230 C231 1.339 . S
C230 H259 0.949 . S
C231 C230 1.339 . S
C231 C232 1.439 . S
C231 H260 0.950 . S
C232 N228 1.383 . S
C232 C231 1.439 . S
C232 C250 1.392 . S
N233 Co217 2.282 . S
N233 C236 1.332 . S
N233 C238 1.332 . S
C234 C235 1.386 . S
C234 C237 1.388 . S
C235 C234 1.386 . S
C235 C236 1.382 . S
C235 H261 0.950 . S
C236 N233 1.332 . S
C236 C235 1.382 . S
C236 H247 0.952 . S
C237 C234 1.388 . S
C237 C238 1.382 . S
C237 H262 0.950 . S
C238 N233 1.332 . S
C238 C237 1.382 . S
C238 H248 0.948 . S
N239 Co217 2.282 . S
N239 C243 1.332 . S
N239 C244 1.332 . S
C240 C241 1.388 . S
C240 C244 1.382 . S
C240 H263 0.950 . S
C241 C240 1.388 . S
C241 C242 1.386 . S
C242 C241 1.386 . S
C242 C243 1.382 . S
C242 H264 0.950 . S
C243 N239 1.332 . S
C243 C242 1.382 . S
C243 H245 0.952 . S
C244 N239 1.332 . S
C244 C240 1.382 . S
C244 H246 0.948 . S
H245 C243 0.952 . S
H246 C244 0.948 . S
H247 C236 0.952 . S
H248 C238 0.948 . S
C249 C215 1.395 . S
C249 C219 1.391 . S
C250 C212 1.389 . S
C250 C232 1.392 . S
C251 C222 1.392 . S
C251 C224 1.389 . S
C252 C227 1.395 . S
C252 C229 1.391 . S
H253 C213 0.951 . S
H254 C214 0.950 . S
H255 C220 0.949 . S
H256 C221 0.950 . S
H257 C225 0.951 . S
H258 C226 0.950 . S
H259 C230 0.949 . S
H260 C231 0.950 . S
H261 C235 0.950 . S
H262 C237 0.950 . S
H263 C240 0.950 . S
H264 C242 0.950 . S
C265 C266 1.443 . S
C265 N269 1.376 . S
C265 C303 1.389 . S
C266 C265 1.443 . S
C266 C267 1.340 . S
C266 H306 0.951 . S
C267 C266 1.340 . S
C267 C268 1.439 . S
C267 H307 0.950 . S
C268 C267 1.439 . S
C268 N269 1.374 . S
C268 C302 1.395 . S
N269 C265 1.376 . S
N269 C268 1.374 . S
N269 Co270 2.008 . S
Co270 N269 2.008 . S
Co270 N271 1.995 . S
Co270 N276 2.008 . S
Co270 N281 1.995 . S
Co270 N286 2.282 . S
Co270 N292 2.282 . S
N271 Co270 1.995 . S
N271 C272 1.376 . S
N271 C275 1.383 . S
C272 N271 1.376 . S
C272 C273 1.446 . S
C272 C302 1.391 . S
C273 C272 1.446 . S
C273 C274 1.339 . S
C273 H308 0.949 . S
C274 C273 1.339 . S
C274 C275 1.439 . S
C274 H309 0.950 . S
C275 N271 1.383 . S
C275 C274 1.439 . S
C275 C304 1.392 . S
N276 Co270 2.008 . S
N276 C277 1.376 . S
N276 C280 1.374 . S
C277 N276 1.376 . S
C277 C278 1.443 . S
C277 C304 1.389 . S
C278 C277 1.443 . S
C278 C279 1.340 . S
C278 H310 0.951 . S
C279 C278 1.340 . S
C279 C280 1.439 . S
C279 H311 0.950 . S
C280 N276 1.374 . S
C280 C279 1.439 . S
C280 C305 1.395 . S
N281 Co270 1.995 . S
N281 C282 1.376 . S
N281 C285 1.383 . S
C282 N281 1.376 . S
C282 C283 1.446 . S
C282 C305 1.391 . S
C283 C282 1.446 . S
C283 C284 1.339 . S
C283 H312 0.949 . S
C284 C283 1.339 . S
C284 C285 1.439 . S
C284 H313 0.950 . S
C285 N281 1.383 . S
C285 C284 1.439 . S
C285 C303 1.392 . S
N286 Co270 2.282 . S
N286 C289 1.332 . S
N286 C291 1.332 . S
C287 C288 1.386 . S
C287 C290 1.388 . S
C288 C287 1.386 . S
C288 C289 1.382 . S
C288 H314 0.950 . S
C289 N286 1.332 . S
C289 C288 1.382 . S
C289 H300 0.952 . S
C290 C287 1.388 . S
C290 C291 1.382 . S
C290 H315 0.950 . S
C291 N286 1.332 . S
C291 C290 1.382 . S
C291 H301 0.948 . S
N292 Co270 2.282 . S
N292 C296 1.332 . S
N292 C297 1.332 . S
C293 C294 1.388 . S
C293 C297 1.382 . S
C293 H316 0.950 . S
C294 C293 1.388 . S
C294 C295 1.386 . S
C295 C294 1.386 . S
C295 C296 1.382 . S
C295 H317 0.950 . S
C296 N292 1.332 . S
C296 C295 1.382 . S
C296 H298 0.952 . S
C297 N292 1.332 . S
C297 C293 1.382 . S
C297 H299 0.948 . S
H298 C296 0.952 . S
H299 C297 0.948 . S
H300 C289 0.952 . S
H301 C291 0.948 . S
C302 C268 1.395 . S
C302 C272 1.391 . S
C303 C265 1.389 . S
C303 C285 1.392 . S
C304 C275 1.392 . S
C304 C277 1.389 . S
C305 C280 1.395 . S
C305 C282 1.391 . S
H306 C266 0.951 . S
H307 C267 0.950 . S
H308 C273 0.949 . S
H309 C274 0.950 . S
H310 C278 0.951 . S
H311 C279 0.950 . S
H312 C283 0.949 . S
H313 C284 0.950 . S
H314 C288 0.950 . S
H315 C290 0.950 . S
H316 C293 0.950 . S
H317 C295 0.950 . S
C318 C319 1.349 . S
C318 C320 1.327 . S
C318 H343 0.950 . S
C319 C318 1.349 . S
C319 C335 1.349 . S
C320 C318 1.327 . S
C320 C339 1.429 . S
C320 H344 0.950 . S
C321 C338 1.574 1_545 S
C321 C340 1.368 . S
C321 H345 0.949 . S
H322 C326 0.949 . S
C323 C324 1.349 . S
C323 C325 1.327 . S
C323 H346 0.950 . S
C324 C323 1.349 . S
C324 C336 1.349 . S
C325 C323 1.327 . S
C325 C341 1.429 . S
C325 H347 0.950 . S
C326 H322 0.949 . S
C326 C334 1.574 1_565 S
C326 C342 1.368 . S
H327 C335 0.950 . S
H328 C333 0.950 . S
H329 C334 0.949 . S
H330 C336 0.950 . S
H331 C337 0.950 . S
H332 C338 0.949 . S
C333 H328 0.950 . S
C333 C335 1.327 . S
C333 C339 1.429 . S
C334 C326 1.574 1_545 S
C334 H329 0.949 . S
C334 C340 1.368 . S
C335 C319 1.349 . S
C335 H327 0.950 . S
C335 C333 1.327 . S
C336 C324 1.349 . S
C336 H330 0.950 . S
C336 C337 1.327 . S
C337 H331 0.950 . S
C337 C336 1.327 . S
C337 C341 1.429 . S
C338 C321 1.574 1_565 S
C338 H332 0.949 . S
C338 C342 1.368 . S
C339 C320 1.429 . S
C339 C333 1.429 . S
C339 C340 1.523 . S
C340 C321 1.368 . S
C340 C334 1.368 . S
C340 C339 1.523 . S
C341 C325 1.429 . S
C341 C337 1.429 . S
C341 C342 1.523 . S
C342 C326 1.368 . S
C342 C338 1.368 . S
C342 C341 1.523 . S
H343 C318 0.950 . S
H344 C320 0.950 . S
H345 C321 0.949 . S
H346 C323 0.950 . S
H347 C325 0.950 . S
C348 C349 1.349 . S
C348 C350 1.327 . S
C348 H373 0.950 . S
C349 C348 1.349 . S
C349 C365 1.349 . S
C350 C348 1.327 . S
C350 C369 1.429 . S
C350 H374 0.950 . S
C351 C368 1.574 . S
C351 C370 1.368 . S
C351 H375 0.949 . S
H352 C356 0.949 . S
C353 C354 1.349 . S
C353 C355 1.327 . S
C353 H376 0.950 . S
C354 C353 1.349 . S
C354 C366 1.349 . S
C355 C353 1.327 . S
C355 C371 1.429 . S
C355 H377 0.950 . S
C356 H352 0.949 . S
C356 C364 1.574 . S
C356 C372 1.368 . S
H357 C365 0.950 . S
H358 C363 0.950 . S
H359 C364 0.949 . S
H360 C366 0.950 . S
H361 C367 0.950 . S
H362 C368 0.949 . S
C363 H358 0.950 . S
C363 C365 1.327 . S
C363 C369 1.429 . S
C364 C356 1.574 . S
C364 H359 0.949 . S
C364 C370 1.368 . S
C365 C349 1.349 . S
C365 H357 0.950 . S
C365 C363 1.327 . S
C366 C354 1.349 . S
C366 H360 0.950 . S
C366 C367 1.327 . S
C367 H361 0.950 . S
C367 C366 1.327 . S
C367 C371 1.429 . S
C368 C351 1.574 . S
C368 H362 0.949 . S
C368 C372 1.368 . S
C369 C350 1.429 . S
C369 C363 1.429 . S
C369 C370 1.523 . S
C370 C351 1.368 . S
C370 C364 1.368 . S
C370 C369 1.523 . S
C371 C355 1.429 . S
C371 C367 1.429 . S
C371 C372 1.523 . S
C372 C356 1.368 . S
C372 C368 1.368 . S
C372 C371 1.523 . S
H373 C348 0.950 . S
H374 C350 0.950 . S
H375 C351 0.949 . S
H376 C353 0.950 . S
H377 C355 0.950 . S
C378 C379 1.349 . S
C378 C380 1.327 . S
C378 H403 0.950 . S
C379 C378 1.349 . S
C379 C395 1.349 . S
C380 C378 1.327 . S
C380 C399 1.429 . S
C380 H404 0.950 . S
C381 C398 1.574 1_655 S
C381 C400 1.368 . S
C381 H405 0.949 . S
H382 C386 0.949 . S
C383 C384 1.349 . S
C383 C385 1.327 . S
C383 H406 0.950 . S
C384 C383 1.349 . S
C384 C396 1.349 . S
C385 C383 1.327 . S
C385 C401 1.429 . S
C385 H407 0.950 . S
C386 H382 0.949 . S
C386 C394 1.574 1_455 S
C386 C402 1.368 . S
H387 C395 0.950 . S
H388 C393 0.950 . S
H389 C394 0.949 . S
H390 C396 0.950 . S
H391 C397 0.950 . S
H392 C398 0.949 . S
C393 H388 0.950 . S
C393 C395 1.327 . S
C393 C399 1.429 . S
C394 C386 1.574 1_655 S
C394 H389 0.949 . S
C394 C400 1.368 . S
C395 C379 1.349 . S
C395 H387 0.950 . S
C395 C393 1.327 . S
C396 C384 1.349 . S
C396 H390 0.950 . S
C396 C397 1.327 . S
C397 H391 0.950 . S
C397 C396 1.327 . S
C397 C401 1.429 . S
C398 C381 1.574 1_455 S
C398 H392 0.949 . S
C398 C402 1.368 . S
C399 C380 1.429 . S
C399 C393 1.429 . S
C399 C400 1.523 . S
C400 C381 1.368 . S
C400 C394 1.368 . S
C400 C399 1.523 . S
C401 C385 1.429 . S
C401 C397 1.429 . S
C401 C402 1.523 . S
C402 C386 1.368 . S
C402 C398 1.368 . S
C402 C401 1.523 . S
H403 C378 0.950 . S
H404 C380 0.950 . S
H405 C381 0.949 . S
H406 C383 0.950 . S
H407 C385 0.950 . S
C408 C409 1.349 . S
C408 C410 1.327 . S
C408 H433 0.950 . S
C409 C408 1.349 . S
C409 C425 1.349 . S
C410 C408 1.327 . S
C410 C429 1.429 . S
C410 H434 0.950 . S
C411 C428 1.574 1_455 S
C411 C430 1.368 . S
C411 H435 0.949 . S
H412 C416 0.949 . S
C413 C414 1.349 . S
C413 C415 1.327 . S
C413 H436 0.950 . S
C414 C413 1.349 . S
C414 C426 1.349 . S
C415 C413 1.327 . S
C415 C431 1.429 . S
C415 H437 0.950 . S
C416 H412 0.949 . S
C416 C424 1.574 1_655 S
C416 C432 1.368 . S
H417 C425 0.950 . S
H418 C423 0.950 . S
H419 C424 0.949 . S
H420 C426 0.950 . S
H421 C427 0.950 . S
H422 C428 0.949 . S
C423 H418 0.950 . S
C423 C425 1.327 . S
C423 C429 1.429 . S
C424 C416 1.574 1_455 S
C424 H419 0.949 . S
C424 C430 1.368 . S
C425 C409 1.349 . S
C425 H417 0.950 . S
C425 C423 1.327 . S
C426 C414 1.349 . S
C426 H420 0.950 . S
C426 C427 1.327 . S
C427 H421 0.950 . S
C427 C426 1.327 . S
C427 C431 1.429 . S
C428 C411 1.574 1_655 S
C428 H422 0.949 . S
C428 C432 1.368 . S
C429 C410 1.429 . S
C429 C423 1.429 . S
C429 C430 1.523 . S
C430 C411 1.368 . S
C430 C424 1.368 . S
C430 C429 1.523 . S
C431 C415 1.429 . S
C431 C427 1.429 . S
C431 C432 1.523 . S
C432 C416 1.368 . S
C432 C428 1.368 . S
C432 C431 1.523 . S
H433 C408 0.950 . S
H434 C410 0.950 . S
H435 C411 0.949 . S
H436 C413 0.950 . S
H437 C415 0.950 . S
C438 C439 1.349 . S
C438 C440 1.327 . S
C438 H463 0.950 . S
C439 C438 1.349 . S
C439 C455 1.349 . S
C440 C438 1.327 . S
C440 C459 1.429 . S
C440 H464 0.950 . S
C441 C458 1.574 1_565 S
C441 C460 1.368 . S
C441 H465 0.949 . S
H442 C446 0.949 . S
C443 C444 1.349 . S
C443 C445 1.327 . S
C443 H466 0.950 . S
C444 C443 1.349 . S
C444 C456 1.349 . S
C445 C443 1.327 . S
C445 C461 1.429 . S
C445 H467 0.950 . S
C446 H442 0.949 . S
C446 C454 1.574 1_545 S
C446 C462 1.368 . S
H447 C455 0.950 . S
H448 C453 0.950 . S
H449 C454 0.949 . S
H450 C456 0.950 . S
H451 C457 0.950 . S
H452 C458 0.949 . S
C453 H448 0.950 . S
C453 C455 1.327 . S
C453 C459 1.429 . S
C454 C446 1.574 1_565 S
C454 H449 0.949 . S
C454 C460 1.368 . S
C455 C439 1.349 . S
C455 H447 0.950 . S
C455 C453 1.327 . S
C456 C444 1.349 . S
C456 H450 0.950 . S
C456 C457 1.327 . S
C457 H451 0.950 . S
C457 C456 1.327 . S
C457 C461 1.429 . S
C458 C441 1.574 1_545 S
C458 H452 0.949 . S
C458 C462 1.368 . S
C459 C440 1.429 . S
C459 C453 1.429 . S
C459 C460 1.523 . S
C460 C441 1.368 . S
C460 C454 1.368 . S
C460 C459 1.523 . S
C461 C445 1.429 . S
C461 C457 1.429 . S
C461 C462 1.523 . S
C462 C446 1.368 . S
C462 C458 1.368 . S
C462 C461 1.523 . S
H463 C438 0.950 . S
H464 C440 0.950 . S
H465 C441 0.949 . S
H466 C443 0.950 . S
H467 C445 0.950 . S
C468 C469 1.349 . S
C468 C470 1.327 . S
C468 H493 0.950 . S
C469 C468 1.349 . S
C469 C485 1.349 . S
C470 C468 1.327 . S
C470 C489 1.429 . S
C470 H494 0.950 . S
C471 C488 1.574 . S
C471 C490 1.368 . S
C471 H495 0.949 . S
H472 C476 0.949 . S
C473 C474 1.349 . S
C473 C475 1.327 . S
C473 H496 0.950 . S
C474 C473 1.349 . S
C474 C486 1.349 . S
C475 C473 1.327 . S
C475 C491 1.429 . S
C475 H497 0.950 . S
C476 H472 0.949 . S
C476 C484 1.574 . S
C476 C492 1.368 . S
H477 C485 0.950 . S
H478 C483 0.950 . S
H479 C484 0.949 . S
H480 C486 0.950 . S
H481 C487 0.950 . S
H482 C488 0.949 . S
C483 H478 0.950 . S
C483 C485 1.327 . S
C483 C489 1.429 . S
C484 C476 1.574 . S
C484 H479 0.949 . S
C484 C490 1.368 . S
C485 C469 1.349 . S
C485 H477 0.950 . S
C485 C483 1.327 . S
C486 C474 1.349 . S
C486 H480 0.950 . S
C486 C487 1.327 . S
C487 H481 0.950 . S
C487 C486 1.327 . S
C487 C491 1.429 . S
C488 C471 1.574 . S
C488 H482 0.949 . S
C488 C492 1.368 . S
C489 C470 1.429 . S
C489 C483 1.429 . S
C489 C490 1.523 . S
C490 C471 1.368 . S
C490 C484 1.368 . S
C490 C489 1.523 . S
C491 C475 1.429 . S
C491 C487 1.429 . S
C491 C492 1.523 . S
C492 C476 1.368 . S
C492 C488 1.368 . S
C492 C491 1.523 . S
H493 C468 0.950 . S
H494 C470 0.950 . S
H495 C471 0.949 . S
H496 C473 0.950 . S
H497 C475 0.950 . S
C498 C499 1.349 . S
C498 C500 1.327 . S
C498 H523 0.950 . S
C499 C498 1.349 . S
C499 C515 1.349 . S
C500 C498 1.327 . S
C500 C519 1.429 . S
C500 H524 0.950 . S
C501 C518 1.574 1_556 S
C501 C520 1.368 . S
C501 H525 0.949 . S
H502 C506 0.949 . S
C503 C504 1.349 . S
C503 C505 1.327 . S
C503 H526 0.950 . S
C504 C503 1.349 . S
C504 C516 1.349 . S
C505 C503 1.327 . S
C505 C521 1.429 . S
C505 H527 0.950 . S
C506 H502 0.949 . S
C506 C514 1.574 1_554 S
C506 C522 1.368 . S
H507 C515 0.950 . S
H508 C513 0.950 . S
H509 C514 0.949 . S
H510 C516 0.950 . S
H511 C517 0.950 . S
H512 C518 0.949 . S
C513 H508 0.950 . S
C513 C515 1.327 . S
C513 C519 1.429 . S
C514 C506 1.574 1_556 S
C514 H509 0.949 . S
C514 C520 1.368 . S
C515 C499 1.349 . S
C515 H507 0.950 . S
C515 C513 1.327 . S
C516 C504 1.349 . S
C516 H510 0.950 . S
C516 C517 1.327 . S
C517 H511 0.950 . S
C517 C516 1.327 . S
C517 C521 1.429 . S
C518 C501 1.574 1_554 S
C518 H512 0.949 . S
C518 C522 1.368 . S
C519 C500 1.429 . S
C519 C513 1.429 . S
C519 C520 1.523 . S
C520 C501 1.368 . S
C520 C514 1.368 . S
C520 C519 1.523 . S
C521 C505 1.429 . S
C521 C517 1.429 . S
C521 C522 1.523 . S
C522 C506 1.368 . S
C522 C518 1.368 . S
C522 C521 1.523 . S
H523 C498 0.950 . S
H524 C500 0.950 . S
H525 C501 0.949 . S
H526 C503 0.950 . S
H527 C505 0.950 . S
C528 C529 1.349 . S
C528 C530 1.327 . S
C528 H553 0.950 . S
C529 C528 1.349 . S
C529 C545 1.349 . S
C530 C528 1.327 . S
C530 C549 1.429 . S
C530 H554 0.950 . S
C531 C548 1.574 . S
C531 C550 1.368 . S
C531 H555 0.949 . S
H532 C536 0.949 . S
C533 C534 1.349 . S
C533 C535 1.327 . S
C533 H556 0.950 . S
C534 C533 1.349 . S
C534 C546 1.349 . S
C535 C533 1.327 . S
C535 C551 1.429 . S
C535 H557 0.950 . S
C536 H532 0.949 . S
C536 C544 1.574 . S
C536 C552 1.368 . S
H537 C545 0.950 . S
H538 C543 0.950 . S
H539 C544 0.949 . S
H540 C546 0.950 . S
H541 C547 0.950 . S
H542 C548 0.949 . S
C543 H538 0.950 . S
C543 C545 1.327 . S
C543 C549 1.429 . S
C544 C536 1.574 . S
C544 H539 0.949 . S
C544 C550 1.368 . S
C545 C529 1.349 . S
C545 H537 0.950 . S
C545 C543 1.327 . S
C546 C534 1.349 . S
C546 H540 0.950 . S
C546 C547 1.327 . S
C547 H541 0.950 . S
C547 C546 1.327 . S
C547 C551 1.429 . S
C548 C531 1.574 . S
C548 H542 0.949 . S
C548 C552 1.368 . S
C549 C530 1.429 . S
C549 C543 1.429 . S
C549 C550 1.523 . S
C550 C531 1.368 . S
C550 C544 1.368 . S
C550 C549 1.523 . S
C551 C535 1.429 . S
C551 C547 1.429 . S
C551 C552 1.523 . S
C552 C536 1.368 . S
C552 C548 1.368 . S
C552 C551 1.523 . S
H553 C528 0.950 . S
H554 C530 0.950 . S
H555 C531 0.949 . S
H556 C533 0.950 . S
H557 C535 0.950 . S
C558 C559 1.349 . S
C558 C560 1.327 . S
C558 H583 0.950 . S
C559 C558 1.349 . S
C559 C575 1.349 . S
C560 C558 1.327 . S
C560 C579 1.429 . S
C560 H584 0.950 . S
C561 C578 1.574 . S
C561 C580 1.368 . S
C561 H585 0.949 . S
H562 C566 0.949 . S
C563 C564 1.349 . S
C563 C565 1.327 . S
C563 H586 0.950 . S
C564 C563 1.349 . S
C564 C576 1.349 . S
C565 C563 1.327 . S
C565 C581 1.429 . S
C565 H587 0.950 . S
C566 H562 0.949 . S
C566 C574 1.574 . S
C566 C582 1.368 . S
H567 C575 0.950 . S
H568 C573 0.950 . S
H569 C574 0.949 . S
H570 C576 0.950 . S
H571 C577 0.950 . S
H572 C578 0.949 . S
C573 H568 0.950 . S
C573 C575 1.327 . S
C573 C579 1.429 . S
C574 C566 1.574 . S
C574 H569 0.949 . S
C574 C580 1.368 . S
C575 C559 1.349 . S
C575 H567 0.950 . S
C575 C573 1.327 . S
C576 C564 1.349 . S
C576 H570 0.950 . S
C576 C577 1.327 . S
C577 H571 0.950 . S
C577 C576 1.327 . S
C577 C581 1.429 . S
C578 C561 1.574 . S
C578 H572 0.949 . S
C578 C582 1.368 . S
C579 C560 1.429 . S
C579 C573 1.429 . S
C579 C580 1.523 . S
C580 C561 1.368 . S
C580 C574 1.368 . S
C580 C579 1.523 . S
C581 C565 1.429 . S
C581 C577 1.429 . S
C581 C582 1.523 . S
C582 C566 1.368 . S
C582 C578 1.368 . S
C582 C581 1.523 . S
H583 C558 0.950 . S
H584 C560 0.950 . S
H585 C561 0.949 . S
H586 C563 0.950 . S
H587 C565 0.950 . S
C588 C589 1.349 . S
C588 C590 1.327 . S
C588 H613 0.950 . S
C589 C588 1.349 . S
C589 C605 1.349 . S
C590 C588 1.327 . S
C590 C609 1.429 . S
C590 H614 0.950 . S
C591 C608 1.574 1_556 S
C591 C610 1.368 . S
C591 H615 0.949 . S
H592 C596 0.949 . S
C593 C594 1.349 . S
C593 C595 1.327 . S
C593 H616 0.950 . S
C594 C593 1.349 . S
C594 C606 1.349 . S
C595 C593 1.327 . S
C595 C611 1.429 . S
C595 H617 0.950 . S
C596 H592 0.949 . S
C596 C604 1.574 1_554 S
C596 C612 1.368 . S
H597 C605 0.950 . S
H598 C603 0.950 . S
H599 C604 0.949 . S
H600 C606 0.950 . S
H601 C607 0.950 . S
H602 C608 0.949 . S
C603 H598 0.950 . S
C603 C605 1.327 . S
C603 C609 1.429 . S
C604 C596 1.574 1_556 S
C604 H599 0.949 . S
C604 C610 1.368 . S
C605 C589 1.349 . S
C605 H597 0.950 . S
C605 C603 1.327 . S
C606 C594 1.349 . S
C606 H600 0.950 . S
C606 C607 1.327 . S
C607 H601 0.950 . S
C607 C606 1.327 . S
C607 C611 1.429 . S
C608 C591 1.574 1_554 S
C608 H602 0.949 . S
C608 C612 1.368 . S
C609 C590 1.429 . S
C609 C603 1.429 . S
C609 C610 1.523 . S
C610 C591 1.368 . S
C610 C604 1.368 . S
C610 C609 1.523 . S
C611 C595 1.429 . S
C611 C607 1.429 . S
C611 C612 1.523 . S
C612 C596 1.368 . S
C612 C608 1.368 . S
C612 C611 1.523 . S
H613 C588 0.950 . S
H614 C590 0.950 . S
H615 C591 0.949 . S
H616 C593 0.950 . S
H617 C595 0.950 . S
C618 C619 1.349 . S
C618 C620 1.327 . S
C618 H643 0.950 . S
C619 C618 1.349 . S
C619 C635 1.349 . S
C620 C618 1.327 . S
C620 C639 1.429 . S
C620 H644 0.950 . S
C621 C638 1.574 . S
C621 C640 1.368 . S
C621 H645 0.949 . S
H622 C626 0.949 . S
C623 C624 1.349 . S
C623 C625 1.327 . S
C623 H646 0.950 . S
C624 C623 1.349 . S
C624 C636 1.349 . S
C625 C623 1.327 . S
C625 C641 1.429 . S
C625 H647 0.950 . S
C626 H622 0.949 . S
C626 C634 1.574 . S
C626 C642 1.368 . S
H627 C635 0.950 . S
H628 C633 0.950 . S
H629 C634 0.949 . S
H630 C636 0.950 . S
H631 C637 0.950 . S
H632 C638 0.949 . S
C633 H628 0.950 . S
C633 C635 1.327 . S
C633 C639 1.429 . S
C634 C626 1.574 . S
C634 H629 0.949 . S
C634 C640 1.368 . S
C635 C619 1.349 . S
C635 H627 0.950 . S
C635 C633 1.327 . S
C636 C624 1.349 . S
C636 H630 0.950 . S
C636 C637 1.327 . S
C637 H631 0.950 . S
C637 C636 1.327 . S
C637 C641 1.429 . S
C638 C621 1.574 . S
C638 H632 0.949 . S
C638 C642 1.368 . S
C639 C620 1.429 . S
C639 C633 1.429 . S
C639 C640 1.523 . S
C640 C621 1.368 . S
C640 C634 1.368 . S
C640 C639 1.523 . S
C641 C625 1.429 . S
C641 C637 1.429 . S
C641 C642 1.523 . S
C642 C626 1.368 . S
C642 C638 1.368 . S
C642 C641 1.523 . S
H643 C618 0.950 . S
H644 C620 0.950 . S
H645 C621 0.949 . S
H646 C623 0.950 . S
H647 C625 0.950 . S
C648 C649 1.349 . S
C648 C650 1.327 . S
C648 H673 0.950 . S
C649 C648 1.349 . S
C649 C665 1.349 . S
C650 C648 1.327 . S
C650 C669 1.429 . S
C650 H674 0.950 . S
C651 C668 1.574 . S
C651 C670 1.368 . S
C651 H675 0.949 . S
H652 C656 0.949 . S
C653 C654 1.349 . S
C653 C655 1.327 . S
C653 H676 0.950 . S
C654 C653 1.349 . S
C654 C666 1.349 . S
C655 C653 1.327 . S
C655 C671 1.429 . S
C655 H677 0.950 . S
C656 H652 0.949 . S
C656 C664 1.574 . S
C656 C672 1.368 . S
H657 C665 0.950 . S
H658 C663 0.950 . S
H659 C664 0.949 . S
H660 C666 0.950 . S
H661 C667 0.950 . S
H662 C668 0.949 . S
C663 H658 0.950 . S
C663 C665 1.327 . S
C663 C669 1.429 . S
C664 C656 1.574 . S
C664 H659 0.949 . S
C664 C670 1.368 . S
C665 C649 1.349 . S
C665 H657 0.950 . S
C665 C663 1.327 . S
C666 C654 1.349 . S
C666 H660 0.950 . S
C666 C667 1.327 . S
C667 H661 0.950 . S
C667 C666 1.327 . S
C667 C671 1.429 . S
C668 C651 1.574 . S
C668 H662 0.949 . S
C668 C672 1.368 . S
C669 C650 1.429 . S
C669 C663 1.429 . S
C669 C670 1.523 . S
C670 C651 1.368 . S
C670 C664 1.368 . S
C670 C669 1.523 . S
C671 C655 1.429 . S
C671 C667 1.429 . S
C671 C672 1.523 . S
C672 C656 1.368 . S
C672 C668 1.368 . S
C672 C671 1.523 . S
H673 C648 0.950 . S
H674 C650 0.950 . S
H675 C651 0.949 . S
H676 C653 0.950 . S
H677 C655 0.950 . S
C319 C22 1.644 . S
C324 C181 1.644 . S
C349 C75 1.644 . S
C354 C234 1.644 . S
C379 C128 1.644 . S
C384 C287 1.644 . S
C409 C82 1.647 . S
C414 C241 1.647 . S
C439 C294 1.647 . S
C444 C135 1.647 . S
C469 C188 1.647 . S
C474 C29 1.647 . S
C499 C144 2.369 . S
C504 C39 2.357 . S
C529 C197 2.369 . S
C534 C92 2.357 . S
C559 C145 2.357 . S
C564 C250 2.369 . S
C589 C303 2.369 . S
C594 C198 2.357 . S
C619 C251 2.357 . S
C624 C38 2.369 . S
C649 C304 2.357 . S
C654 C91 2.369 . S
