# Generated by pormake.
# Topology unb, (4)-cn, num edge types: 1
# Building blocks:
#     Node 0, Type 0, BuildingBlock: GALJAG_clean_sbu_0, # of connection points: 4
#     Node 1, Type 0, BuildingBlock: GALJAG_clean_sbu_0, # of connection points: 4
#     Node 2, Type 0, BuildingBlock: GALJAG_clean_sbu_0, # of connection points: 4
#     Node 3, Type 0, BuildingBlock: GALJAG_clean_sbu_0, # of connection points: 4
#     Node 4, Type 0, BuildingBlock: GALJAG_clean_sbu_0, # of connection points: 4
#     Node 5, Type 0, BuildingBlock: GALJAG_clean_sbu_0, # of connection points: 4
#     Node 6, Type 0, BuildingBlock: GALJAG_clean_sbu_0, # of connection points: 4
#     Node 7, Type 0, BuildingBlock: GALJAG_clean_sbu_0, # of connection points: 4
#     Node 8, Type 0, BuildingBlock: GALJAG_clean_sbu_0, # of connection points: 4
#     Node 9, Type 0, BuildingBlock: GALJAG_clean_sbu_0, # of connection points: 4
#     Node 10, Type 0, BuildingBlock: GALJAG_clean_sbu_0, # of connection points: 4
#     Node 11, Type 0, BuildingBlock: GALJAG_clean_sbu_0, # of connection points: 4
#     Node 12, Type 0, BuildingBlock: GALJAG_clean_sbu_0, # of connection points: 4
#     Node 13, Type 0, BuildingBlock: GALJAG_clean_sbu_0, # of connection points: 4
#     Node 14, Type 0, BuildingBlock: GALJAG_clean_sbu_0, # of connection points: 4
#     Node 15, Type 0, BuildingBlock: GALJAG_clean_sbu_0, # of connection points: 4
#     Node 16, Type 0, BuildingBlock: GALJAG_clean_sbu_0, # of connection points: 4
#     Node 17, Type 0, BuildingBlock: GALJAG_clean_sbu_0, # of connection points: 4
#     Edge 18, Type (0, 0), BuildingBlock: TEMPAE_clean_linker_10, # of connection points: 2
#     Edge 19, Type (0, 0), BuildingBlock: TEMPAE_clean_linker_10, # of connection points: 2
#     Edge 20, Type (0, 0), BuildingBlock: TEMPAE_clean_linker_10, # of connection points: 2
#     Edge 21, Type (0, 0), BuildingBlock: TEMPAE_clean_linker_10, # of connection points: 2
#     Edge 22, Type (0, 0), BuildingBlock: TEMPAE_clean_linker_10, # of connection points: 2
#     Edge 23, Type (0, 0), BuildingBlock: TEMPAE_clean_linker_10, # of connection points: 2
#     Edge 24, Type (0, 0), BuildingBlock: TEMPAE_clean_linker_10, # of connection points: 2
#     Edge 25, Type (0, 0), BuildingBlock: TEMPAE_clean_linker_10, # of connection points: 2
#     Edge 26, Type (0, 0), BuildingBlock: TEMPAE_clean_linker_10, # of connection points: 2
#     Edge 27, Type (0, 0), BuildingBlock: TEMPAE_clean_linker_10, # of connection points: 2
#     Edge 28, Type (0, 0), BuildingBlock: TEMPAE_clean_linker_10, # of connection points: 2
#     Edge 29, Type (0, 0), BuildingBlock: TEMPAE_clean_linker_10, # of connection points: 2
#     Edge 30, Type (0, 0), BuildingBlock: TEMPAE_clean_linker_10, # of connection points: 2
#     Edge 31, Type (0, 0), BuildingBlock: TEMPAE_clean_linker_10, # of connection points: 2
#     Edge 32, Type (0, 0), BuildingBlock: TEMPAE_clean_linker_10, # of connection points: 2
#     Edge 33, Type (0, 0), BuildingBlock: TEMPAE_clean_linker_10, # of connection points: 2
#     Edge 34, Type (0, 0), BuildingBlock: TEMPAE_clean_linker_10, # of connection points: 2
#     Edge 35, Type (0, 0), BuildingBlock: TEMPAE_clean_linker_10, # of connection points: 2
#     Edge 36, Type (0, 0), BuildingBlock: TEMPAE_clean_linker_10, # of connection points: 2
#     Edge 37, Type (0, 0), BuildingBlock: TEMPAE_clean_linker_10, # of connection points: 2
#     Edge 38, Type (0, 0), BuildingBlock: TEMPAE_clean_linker_10, # of connection points: 2
#     Edge 39, Type (0, 0), BuildingBlock: TEMPAE_clean_linker_10, # of connection points: 2
#     Edge 40, Type (0, 0), BuildingBlock: TEMPAE_clean_linker_10, # of connection points: 2
#     Edge 41, Type (0, 0), BuildingBlock: TEMPAE_clean_linker_10, # of connection points: 2
#     Edge 42, Type (0, 0), BuildingBlock: TEMPAE_clean_linker_10, # of connection points: 2
#     Edge 43, Type (0, 0), BuildingBlock: TEMPAE_clean_linker_10, # of connection points: 2
#     Edge 44, Type (0, 0), BuildingBlock: TEMPAE_clean_linker_10, # of connection points: 2
#     Edge 45, Type (0, 0), BuildingBlock: TEMPAE_clean_linker_10, # of connection points: 2
#     Edge 46, Type (0, 0), BuildingBlock: TEMPAE_clean_linker_10, # of connection points: 2
#     Edge 47, Type (0, 0), BuildingBlock: TEMPAE_clean_linker_10, # of connection points: 2
#     Edge 48, Type (0, 0), BuildingBlock: TEMPAE_clean_linker_10, # of connection points: 2
#     Edge 49, Type (0, 0), BuildingBlock: TEMPAE_clean_linker_10, # of connection points: 2
#     Edge 50, Type (0, 0), BuildingBlock: TEMPAE_clean_linker_10, # of connection points: 2
#     Edge 51, Type (0, 0), BuildingBlock: TEMPAE_clean_linker_10, # of connection points: 2
#     Edge 52, Type (0, 0), BuildingBlock: TEMPAE_clean_linker_10, # of connection points: 2
#     Edge 53, Type (0, 0), BuildingBlock: TEMPAE_clean_linker_10, # of connection points: 2
# Relax obj value: 0.185
# Max RMSD: 0.139
# Mean RMSD: 0.139
data_MOF--net-unb--node1-GALJAG_clean_sbu_0--edge1-TEMPAE_clean_linker_10
_symmetry_space_group_name_H-M    P1
_symmetry_Int_Tables_number       1
_symmetry_cell_setting            triclinic
loop_
_symmetry_equiv_pos_as_xyz
'x, y, z'
_cell_length_a     62.604703
_cell_length_b     62.603948
_cell_length_c     27.222938
_cell_angle_alpha  90.032573
_cell_angle_beta   89.979329
_cell_angle_gamma 120.01368
loop_
_atom_site_label
_atom_site_type_symbol
_atom_site_fract_x
_atom_site_fract_y
_atom_site_fract_z
_atom_type_partial_charge
In0 In 0.11979 0.25372 0.08517 0.0
O1 O 0.14702 0.28267 0.13887 0.0
O2 O 0.11207 0.25642 0.16682 0.0
C3 C 0.14822 0.28377 0.01277 0.0
C4 C 0.12392 0.21324 0.07005 0.0
C5 C 0.07342 0.24197 0.06101 0.0
O6 O 0.13368 0.28808 0.03746 0.0
O7 O 0.14914 0.26498 0.02615 0.0
O8 O 0.07791 0.23073 0.09434 0.0
O9 O 0.09226 0.25967 0.04171 0.0
C10 C 0.13288 0.27496 0.17549 0.0
O11 O 0.10796 0.21668 0.0492 0.0
O12 O 0.13719 0.22973 0.10072 0.0
In13 In 0.7238 0.86563 0.06955 0.0
O14 O 0.75583 0.90532 0.06773 0.0
O15 O 0.71945 0.89909 0.05678 0.0
C16 C 0.75354 0.84682 0.05051 0.0
C17 C 0.70081 0.85238 0.15823 0.0
C18 C 0.69826 0.85023 0.98516 0.0
O19 O 0.76149 0.86728 0.07194 0.0
O20 O 0.73083 0.83568 0.04148 0.0
O21 O 0.69364 0.83603 0.02153 0.0
O22 O 0.71534 0.87215 0.99181 0.0
C23 C 0.74228 0.91445 0.05838 0.0
O24 O 0.68935 0.84702 0.11809 0.0
O25 O 0.72392 0.86441 0.15394 0.0
In26 In 0.14346 0.85464 0.06146 0.0
O27 O 0.1059 0.85223 0.07084 0.0
O28 O 0.10662 0.82075 0.04408 0.0
C29 C 0.17143 0.90393 0.05339 0.0
C30 C 0.15465 0.84026 0.14714 0.0
C31 C 0.15406 0.84638 0.97019 0.0
O32 O 0.14923 0.89346 0.06748 0.0
O33 O 0.17984 0.88961 0.04602 0.0
O34 O 0.16235 0.8411 0.0079 0.0
O35 O 0.14067 0.85571 0.97895 0.0
C36 C 0.09384 0.83058 0.05403 0.0
O37 O 0.15206 0.82904 0.10718 0.0
O38 O 0.15161 0.85864 0.14387 0.0
In39 In 0.24246 0.11955 0.90826 0.0
O40 O 0.27165 0.1481 0.85731 0.0
O41 O 0.24644 0.11317 0.82676 0.0
C42 C 0.26561 0.13977 0.99334 0.0
C43 C 0.20496 0.12914 0.91524 0.0
C44 C 0.23618 0.0742 0.92072 0.0
O45 O 0.27626 0.1472 0.95235 0.0
O46 O 0.24358 0.12246 0.99105 0.0
O47 O 0.22038 0.07779 0.89909 0.0
O48 O 0.25564 0.09353 0.9334 0.0
C49 C 0.26471 0.13443 0.81984 0.0
O50 O 0.2023 0.10824 0.9244 0.0
O51 O 0.22603 0.14465 0.89953 0.0
In52 In 0.85107 0.13766 0.92614 0.0
O53 O 0.83564 0.15805 0.88199 0.0
O54 O 0.84648 0.13565 0.84295 0.0
C55 C 0.84206 0.14466 0.01935 0.0
C56 C 0.8227 0.08845 0.93307 0.0
C57 C 0.90062 0.165 0.93089 0.0
O58 O 0.83512 0.15254 0.98339 0.0
O59 O 0.85369 0.13376 0.00795 0.0
O60 O 0.88962 0.14238 0.91971 0.0
O61 O 0.88668 0.17391 0.93703 0.0
C62 C 0.83771 0.1499 0.84091 0.0
O63 O 0.84482 0.09859 0.91847 0.0
O64 O 0.81467 0.10302 0.94109 0.0
In65 In 0.8686 0.73671 0.92929 0.0
O66 O 0.90887 0.76799 0.92108 0.0
O67 O 0.90181 0.73413 0.95302 0.0
C68 C 0.84593 0.76323 0.93784 0.0
C69 C 0.85602 0.712 0.84265 0.0
C70 C 0.85228 0.71623 0.01794 0.0
O71 O 0.86851 0.77321 0.92642 0.0
O72 O 0.8348 0.74004 0.94165 0.0
O73 O 0.84467 0.70367 0.97883 0.0
O74 O 0.86804 0.73868 0.01186 0.0
C75 C 0.91759 0.75589 0.94157 0.0
O76 O 0.85942 0.70309 0.88138 0.0
O77 O 0.85904 0.73335 0.84746 0.0
In78 In 0.80501 0.60533 0.42317 0.0
O79 O 0.82565 0.63772 0.47575 0.0
O80 O 0.79844 0.60389 0.50658 0.0
C81 C 0.81665 0.6387 0.35094 0.0
C82 C 0.83095 0.58174 0.41457 0.0
C83 C 0.75879 0.57456 0.39086 0.0
O84 O 0.79747 0.63143 0.37671 0.0
O85 O 0.83019 0.63008 0.36341 0.0
O86 O 0.77766 0.57574 0.37157 0.0
O87 O 0.76311 0.58839 0.42776 0.0
C88 C 0.81455 0.62612 0.51388 0.0
O89 O 0.80975 0.57143 0.43384 0.0
O90 O 0.83916 0.60389 0.40256 0.0
In91 In 0.37493 0.20284 0.40541 0.0
O92 O 0.34077 0.1881 0.45441 0.0
O93 O 0.37502 0.1992 0.48915 0.0
C94 C 0.35203 0.19313 0.31819 0.0
C95 C 0.40218 0.25236 0.39504 0.0
C96 C 0.39276 0.17205 0.39277 0.0
O97 O 0.34172 0.19426 0.35728 0.0
O98 O 0.37366 0.19692 0.32331 0.0
O99 O 0.4063 0.19426 0.40572 0.0
O100 O 0.37013 0.16515 0.38859 0.0
C101 C 0.35211 0.19039 0.49401 0.0
O102 O 0.41163 0.23951 0.40746 0.0
O103 O 0.37909 0.24047 0.39071 0.0
In104 In 0.78274 0.19576 0.41743 0.0
O105 O 0.80962 0.202 0.48006 0.0
O106 O 0.77153 0.18226 0.4967 0.0
C107 C 0.79833 0.17225 0.35639 0.0
C108 C 0.73478 0.17985 0.39991 0.0
C109 C 0.80373 0.24239 0.38393 0.0
O110 O 0.81289 0.19145 0.37973 0.0
O111 O 0.7759 0.16401 0.36619 0.0
O112 O 0.79872 0.23734 0.42898 0.0
O113 O 0.79789 0.22401 0.35664 0.0
C114 C 0.79326 0.1907 0.51206 0.0
O115 O 0.75132 0.20216 0.39562 0.0
O116 O 0.7422 0.16565 0.41532 0.0
In117 In 0.936 0.46514 0.25974 0.0
O118 O 0.96556 0.46789 0.20684 0.0
O119 O 0.9424 0.48111 0.18145 0.0
C120 C 0.96286 0.47332 0.34191 0.0
C121 C 0.91498 0.49199 0.28524 0.0
C122 C 0.90432 0.41605 0.26123 0.0
O123 O 0.97036 0.48827 0.30628 0.0
O124 O 0.94215 0.45424 0.33553 0.0
O125 O 0.8971 0.43159 0.26194 0.0
O126 O 0.92733 0.42529 0.25743 0.0
C127 C 0.96008 0.47752 0.17218 0.0
O128 O 0.9048 0.47416 0.25544 0.0
O129 O 0.93604 0.49687 0.29982 0.0
In130 In 0.53882 0.47395 0.25209 0.0
O131 O 0.52449 0.43241 0.24314 0.0
O132 O 0.50355 0.44362 0.28603 0.0
C133 C 0.5878 0.49174 0.25153 0.0
C134 C 0.52528 0.48494 0.16526 0.0
C135 C 0.53992 0.49468 0.33946 0.0
O136 O 0.57235 0.46901 0.25574 0.0
O137 O 0.57846 0.50533 0.24472 0.0
O138 O 0.53094 0.49895 0.30157 0.0
O139 O 0.5484 0.48043 0.33269 0.0
C140 C 0.50598 0.42605 0.27044 0.0
O141 O 0.51756 0.48789 0.20608 0.0
O142 O 0.5398 0.47653 0.16823 0.0
In143 In 0.51336 0.07091 0.26051 0.0
O144 O 0.49657 0.03545 0.215 0.0
O145 O 0.51543 0.06967 0.17707 0.0
C146 C 0.50909 0.05279 0.35181 0.0
C147 C 0.56249 0.10065 0.26746 0.0
C148 C 0.47967 0.08557 0.2653 0.0
O149 O 0.50536 0.03947 0.31418 0.0
O150 O 0.51491 0.07477 0.34289 0.0
O151 O 0.50072 0.0989 0.24644 0.0
O152 O 0.47526 0.06447 0.27867 0.0
C153 C 0.50366 0.04642 0.17424 0.0
O154 O 0.54755 0.10856 0.27123 0.0
O155 O 0.55274 0.07799 0.25756 0.0
In156 In 0.47145 0.94307 0.75373 0.0
O157 O 0.46261 0.96333 0.81325 0.0
O158 O 0.48668 0.95011 0.8324 0.0
C159 C 0.48217 0.97953 0.68879 0.0
C160 C 0.50109 0.92439 0.73516 0.0
C161 C 0.42728 0.9057 0.72384 0.0
O162 O 0.49864 0.97765 0.71181 0.0
O163 O 0.4604 0.96403 0.70104 0.0
O164 O 0.44597 0.91609 0.69656 0.0
O165 O 0.43089 0.91363 0.76749 0.0
C166 C 0.47579 0.96144 0.84594 0.0
O167 O 0.48157 0.91276 0.76026 0.0
O168 O 0.50604 0.94567 0.72186 0.0
In169 In 0.07054 0.52132 0.7576 0.0
O170 O 0.10805 0.55564 0.74441 0.0
O171 O 0.07636 0.55976 0.74458 0.0
C172 C 0.08897 0.4906 0.75599 0.0
C173 C 0.04769 0.513 0.84577 0.0
C174 C 0.04667 0.51088 0.67112 0.0
O175 O 0.10177 0.51285 0.76934 0.0
O176 O 0.06674 0.48372 0.74654 0.0
O177 O 0.06733 0.51236 0.67663 0.0
O178 O 0.03776 0.5147 0.70958 0.0
C179 C 0.09937 0.56983 0.73856 0.0
O180 O 0.0371 0.50081 0.80774 0.0
O181 O 0.06994 0.52934 0.83958 0.0
In182 In 0.47168 0.53437 0.74199 0.0
O183 O 0.44321 0.51727 0.68179 0.0
O184 O 0.42974 0.5138 0.75481 0.0
C185 C 0.48227 0.58119 0.72684 0.0
C186 C 0.4791 0.52342 0.83495 0.0
C187 C 0.49905 0.52592 0.67635 0.0
O188 O 0.46065 0.56307 0.72387 0.0
O189 O 0.49837 0.57586 0.74016 0.0
O190 O 0.50555 0.54707 0.69296 0.0
O191 O 0.47963 0.50885 0.69531 0.0
C192 C 0.4247 0.50923 0.70964 0.0
O193 O 0.47156 0.50791 0.80049 0.0
O194 O 0.48259 0.54434 0.82286 0.0
In195 In 0.58983 0.79637 0.57279 0.0
O196 O 0.6182 0.79724 0.51883 0.0
O197 O 0.59494 0.81066 0.49393 0.0
C198 C 0.61411 0.80121 0.65741 0.0
C199 C 0.57745 0.83108 0.58935 0.0
C200 C 0.55487 0.74819 0.57704 0.0
O201 O 0.62543 0.80932 0.61723 0.0
O202 O 0.59098 0.79043 0.65426 0.0
O203 O 0.55069 0.76529 0.58818 0.0
O204 O 0.57621 0.75542 0.56049 0.0
C205 C 0.61232 0.80664 0.48415 0.0
O206 O 0.56348 0.81141 0.56619 0.0
O207 O 0.59811 0.83375 0.60141 0.0
In208 In 0.20807 0.78807 0.56703 0.0
O209 O 0.18135 0.7889 0.51068 0.0
O210 O 0.21596 0.79548 0.48455 0.0
C211 C 0.1905 0.80706 0.63428 0.0
C212 C 0.19088 0.74138 0.59846 0.0
C213 C 0.2572 0.81057 0.58128 0.0
O214 O 0.17773 0.7856 0.61708 0.0
O215 O 0.21164 0.81943 0.61543 0.0
O216 O 0.24399 0.78747 0.57687 0.0
O217 O 0.24579 0.82229 0.57595 0.0
C218 C 0.19556 0.79385 0.47442 0.0
O219 O 0.20081 0.75995 0.6262 0.0
O220 O 0.18996 0.74625 0.55368 0.0
In221 In 0.20055 0.3822 0.59386 0.0
O222 O 0.19183 0.35037 0.541 0.0
O223 O 0.18599 0.37895 0.51534 0.0
C224 C 0.19645 0.35764 0.6777 0.0
C225 C 0.24984 0.4125 0.58971 0.0
C226 C 0.17258 0.40171 0.62181 0.0
O227 O 0.18134 0.34796 0.64264 0.0
O228 O 0.21369 0.37933 0.66981 0.0
O229 O 0.19074 0.41286 0.59313 0.0
O230 O 0.16797 0.38046 0.63438 0.0
C231 C 0.185 0.35875 0.50609 0.0
O232 O 0.23498 0.42034 0.59582 0.0
O233 O 0.23973 0.38953 0.58295 0.0
C234 C 0.16738 0.35512 0.42199 0.0
C235 C 0.17671 0.34604 0.45815 0.0
C236 C 0.15967 0.34337 0.37619 0.0
C237 C 0.16151 0.32215 0.3662 0.0
C238 C 0.17086 0.31286 0.40265 0.0
C239 C 0.17826 0.32488 0.44825 0.0
C240 C 0.14966 0.35374 0.3384 0.0
C241 C 0.17327 0.29038 0.39328 0.0
C242 C 0.12296 0.27917 0.26283 0.0
C243 C 0.14014 0.28683 0.22437 0.0
C244 C 0.12963 0.29055 0.30917 0.0
C245 C 0.15409 0.30991 0.31728 0.0
C246 C 0.17153 0.31762 0.27862 0.0
C247 C 0.16431 0.30605 0.23259 0.0
C248 C 0.11048 0.28193 0.34938 0.0
C249 C 0.19783 0.33808 0.28588 0.0
H250 H 0.16608 0.37144 0.42949 0.0
H251 H 0.18549 0.3178 0.47604 0.0
H252 H 0.16142 0.3593 0.30505 0.0
H253 H 0.13084 0.33939 0.32709 0.0
H254 H 0.14886 0.37 0.35234 0.0
H255 H 0.18066 0.28537 0.42561 0.0
H256 H 0.15503 0.27441 0.38361 0.0
H257 H 0.18572 0.2938 0.36156 0.0
H258 H 0.10423 0.26437 0.25663 0.0
H259 H 0.17768 0.31203 0.20302 0.0
H260 H 0.10826 0.29754 0.36222 0.0
H261 H 0.11663 0.27542 0.38137 0.0
H262 H 0.09223 0.26675 0.33707 0.0
H263 H 0.19814 0.35533 0.29663 0.0
H264 H 0.20918 0.34173 0.25222 0.0
H265 H 0.2065 0.33326 0.31618 0.0
C266 C 0.62366 0.82993 0.40506 0.0
C267 C 0.62512 0.8129 0.43625 0.0
C268 C 0.63631 0.8366 0.36006 0.0
C269 C 0.65025 0.82551 0.34544 0.0
C270 C 0.65148 0.80803 0.37653 0.0
C271 C 0.63913 0.80215 0.42188 0.0
C272 C 0.63496 0.85568 0.32839 0.0
C273 C 0.66569 0.79542 0.36175 0.0
C274 C 0.66344 0.82635 0.209 0.0
C275 C 0.68811 0.84526 0.20621 0.0
C276 C 0.65103 0.81943 0.25422 0.0
C277 C 0.66343 0.83215 0.29748 0.0
C278 C 0.68834 0.85136 0.2948 0.0
C279 C 0.70048 0.85749 0.24922 0.0
C280 C 0.62466 0.79849 0.25572 0.0
C281 C 0.70203 0.86568 0.33996 0.0
H282 H 0.61299 0.8384 0.41627 0.0
H283 H 0.64019 0.78889 0.44585 0.0
H284 H 0.65381 0.87128 0.32128 0.0
H285 H 0.62667 0.84755 0.29229 0.0
H286 H 0.62385 0.86302 0.34566 0.0
H287 H 0.66433 0.78182 0.38958 0.0
H288 H 0.65865 0.78575 0.32618 0.0
H289 H 0.68544 0.80932 0.35642 0.0
H290 H 0.65388 0.81675 0.17581 0.0
H291 H 0.71953 0.87222 0.24709 0.0
H292 H 0.61242 0.8053 0.26922 0.0
H293 H 0.62296 0.78409 0.28176 0.0
H294 H 0.61797 0.78988 0.21908 0.0
H295 H 0.69216 0.87443 0.35685 0.0
H296 H 0.72124 0.88028 0.33154 0.0
H297 H 0.70262 0.85303 0.36771 0.0
C298 C 0.16505 0.79284 0.41385 0.0
C299 C 0.18923 0.79855 0.42472 0.0
C300 C 0.15903 0.79842 0.36772 0.0
C301 C 0.17774 0.81035 0.33188 0.0
C302 C 0.20212 0.81584 0.34244 0.0
C303 C 0.20754 0.8097 0.38863 0.0
C304 C 0.13274 0.79193 0.35766 0.0
C305 C 0.22264 0.82883 0.30546 0.0
C306 C 0.15953 0.80969 0.19819 0.0
C307 C 0.16072 0.83259 0.19409 0.0
C308 C 0.16491 0.80213 0.24286 0.0
C309 C 0.17199 0.81801 0.28415 0.0
C310 C 0.17345 0.84126 0.28 0.0
C311 C 0.16763 0.84818 0.23514 0.0
C312 C 0.16281 0.77707 0.24602 0.0
C313 C 0.18121 0.85886 0.32296 0.0
H314 H 0.15081 0.78412 0.44157 0.0
H315 H 0.22628 0.81424 0.39692 0.0
H316 H 0.13189 0.80902 0.3519 0.0
H317 H 0.12598 0.78084 0.3235 0.0
H318 H 0.12011 0.78135 0.38826 0.0
H319 H 0.24044 0.83113 0.31879 0.0
H320 H 0.21774 0.81836 0.27046 0.0
H321 H 0.22521 0.84734 0.29726 0.0
H322 H 0.15411 0.79753 0.1666 0.0
H323 H 0.16867 0.86594 0.23213 0.0
H324 H 0.14928 0.76587 0.27485 0.0
H325 H 0.18081 0.77908 0.25677 0.0
H326 H 0.15692 0.76686 0.21068 0.0
H327 H 0.1681 0.85019 0.35386 0.0
H328 H 0.18199 0.87648 0.31337 0.0
H329 H 0.19967 0.86304 0.33622 0.0
C330 C 0.31537 0.17855 0.54727 0.0
C331 C 0.33945 0.18277 0.54199 0.0
C332 C 0.30298 0.17098 0.59244 0.0
C333 C 0.3148 0.16706 0.63295 0.0
C334 C 0.33908 0.17118 0.6277 0.0
C335 C 0.35122 0.17925 0.58237 0.0
C336 C 0.27729 0.16724 0.59687 0.0
C337 C 0.35213 0.1668 0.66979 0.0
C338 C 0.29252 0.16792 0.76236 0.0
C339 C 0.2772 0.1427 0.77185 0.0
C340 C 0.30461 0.17612 0.71705 0.0
C341 C 0.30174 0.15864 0.68083 0.0
C342 C 0.28643 0.13312 0.6904 0.0
C343 C 0.27411 0.12547 0.73565 0.0
C344 C 0.32037 0.20349 0.70786 0.0
C345 C 0.2833 0.11392 0.65306 0.0
H346 H 0.30626 0.18136 0.51615 0.0
H347 H 0.36979 0.18235 0.57829 0.0
H348 H 0.26408 0.14781 0.60677 0.0
H349 H 0.27672 0.17901 0.62674 0.0
H350 H 0.27096 0.17171 0.56227 0.0
H351 H 0.37083 0.17046 0.65944 0.0
H352 H 0.3539 0.17884 0.70127 0.0
H353 H 0.34111 0.14743 0.68258 0.0
H354 H 0.29483 0.1813 0.79022 0.0
H355 H 0.2624 0.10594 0.74304 0.0
H356 H 0.31377 0.20869 0.67461 0.0
H357 H 0.33972 0.2083 0.70084 0.0
H358 H 0.32013 0.21468 0.73933 0.0
H359 H 0.27536 0.11649 0.61866 0.0
H360 H 0.2711 0.09482 0.66655 0.0
H361 H 0.30154 0.11611 0.64371 0.0
C362 C 0.82358 0.19887 0.57923 0.0
C363 C 0.79912 0.18656 0.56255 0.0
C364 C 0.82968 0.19398 0.62588 0.0
C365 C 0.81089 0.1761 0.65629 0.0
C366 C 0.78607 0.16397 0.64002 0.0
C367 C 0.78046 0.16947 0.59342 0.0
C368 C 0.85631 0.20752 0.64215 0.0
C369 C 0.76556 0.14462 0.67118 0.0
C370 C 0.83032 0.1444 0.7505 0.0
C371 C 0.83053 0.15648 0.79402 0.0
C372 C 0.82371 0.15044 0.70557 0.0
C373 C 0.81738 0.16922 0.70402 0.0
C374 C 0.81756 0.1815 0.74785 0.0
C375 C 0.82401 0.17489 0.79242 0.0
C376 C 0.82353 0.13676 0.65972 0.0
C377 C 0.81116 0.20177 0.74755 0.0
H378 H 0.83805 0.21219 0.55557 0.0
H379 H 0.76153 0.15985 0.58062 0.0
H380 H 0.858 0.21628 0.67847 0.0
H381 H 0.86306 0.19428 0.64645 0.0
H382 H 0.86844 0.22199 0.61555 0.0
H383 H 0.74713 0.13766 0.65413 0.0
H384 H 0.76865 0.12882 0.67686 0.0
H385 H 0.76552 0.15225 0.70794 0.0
H386 H 0.83526 0.1301 0.75155 0.0
H387 H 0.8242 0.18432 0.82596 0.0
H388 H 0.83688 0.14988 0.63263 0.0
H389 H 0.80502 0.12798 0.64239 0.0
H390 H 0.82836 0.12225 0.66738 0.0
H391 H 0.82402 0.21694 0.72303 0.0
H392 H 0.81209 0.20945 0.78479 0.0
H393 H 0.79229 0.19467 0.73275 0.0
C394 C 0.83799 0.70522 0.75842 0.0
C395 C 0.84909 0.69855 0.79543 0.0
C396 C 0.83136 0.69266 0.71331 0.0
C397 C 0.83656 0.67341 0.70458 0.0
C398 C 0.84784 0.66666 0.74185 0.0
C399 C 0.85369 0.67911 0.7871 0.0
C400 C 0.81886 0.70004 0.67492 0.0
C401 C 0.85421 0.64664 0.73355 0.0
C402 C 0.80313 0.62754 0.60145 0.0
C403 C 0.82016 0.6378 0.56293 0.0
C404 C 0.80812 0.63902 0.64773 0.0
C405 C 0.83092 0.6609 0.65588 0.0
C406 C 0.84835 0.67105 0.61728 0.0
C407 C 0.84262 0.65954 0.57111 0.0
C408 C 0.78886 0.62795 0.68765 0.0
C409 C 0.87308 0.69405 0.62474 0.0
H410 H 0.83425 0.72012 0.76494 0.0
H411 H 0.86238 0.67401 0.81561 0.0
H412 H 0.83075 0.70721 0.64188 0.0
H413 H 0.80128 0.6837 0.66328 0.0
H414 H 0.81488 0.71443 0.68847 0.0
H415 H 0.86289 0.64355 0.76632 0.0
H416 H 0.83736 0.62905 0.72405 0.0
H417 H 0.8671 0.65164 0.70205 0.0
H418 H 0.78569 0.6108 0.5951 0.0
H419 H 0.8559 0.66743 0.54146 0.0
H420 H 0.78366 0.64164 0.69999 0.0
H421 H 0.79647 0.62325 0.71999 0.0
H422 H 0.77195 0.61104 0.67523 0.0
H423 H 0.87042 0.7098 0.63429 0.0
H424 H 0.88493 0.69902 0.59153 0.0
H425 H 0.88294 0.69138 0.65589 0.0
C426 C 0.99017 0.47589 0.11443 0.0
C427 C 0.97315 0.48367 0.12451 0.0
C428 C 0.00246 0.48106 0.06914 0.0
C429 C -0.00218 0.49459 0.03324 0.0
C430 C 0.98089 0.50277 0.04343 0.0
C431 C 0.96862 0.49708 0.0889 0.0
C432 C 0.02019 0.47179 0.0595 0.0
C433 C 0.97567 0.51746 0.00623 0.0
C434 C 0.04587 0.52511 0.93259 0.0
C435 C 0.03492 0.50851 0.89358 0.0
C436 C 0.0338 0.52106 0.97803 0.0
C437 C 0.0104 0.49973 0.98472 0.0
C438 C -0.00072 0.48291 0.94541 0.0
C439 C 0.01161 0.48759 0.90021 0.0
C440 C 0.04611 0.53956 0.01891 0.0
C441 C 0.9745 0.45979 0.9513 0.0
H442 H 0.9937 0.46546 0.1418 0.0
H443 H 0.95554 0.5032 0.09662 0.0
H444 H 0.01397 0.45937 0.02709 0.0
H445 H 0.03876 0.48749 0.05085 0.0
H446 H 0.02179 0.46159 0.09135 0.0
H447 H 0.96256 0.52308 0.02038 0.0
H448 H 0.99309 0.53427 0.9957 0.0
H449 H 0.96781 0.50638 0.97238 0.0
H450 H 0.06383 0.54139 0.92752 0.0
H451 H 0.00309 0.47467 0.87017 0.0
H452 H 0.0496 0.5306 0.05061 0.0
H453 H 0.03376 0.54633 0.03192 0.0
H454 H 0.06392 0.55563 0.00724 0.0
H455 H 0.97546 0.44817 0.98102 0.0
H456 H 0.9683 0.44868 0.91702 0.0
H457 H 0.96039 0.46465 0.96222 0.0
C458 C 0.53148 0.49315 0.07507 0.0
C459 C 0.51792 0.49079 0.1177 0.0
C460 C 0.52483 0.49875 0.02964 0.0
C461 C 0.50378 0.50156 0.02656 0.0
C462 C 0.48988 0.49899 0.06946 0.0
C463 C 0.49727 0.49389 0.11464 0.0
C464 C 0.54041 0.50178 0.98497 0.0
C465 C 0.46707 0.50139 0.06754 0.0
C466 C 0.499 0.53693 0.91744 0.0
C467 C 0.48433 0.51779 0.88484 0.0
C468 C 0.50533 0.53192 0.96382 0.0
C469 C 0.49636 0.50714 0.97833 0.0
C470 C 0.48096 0.48772 0.94604 0.0
C471 C 0.47535 0.49329 0.89948 0.0
C472 C 0.52213 0.55316 0.99679 0.0
C473 C 0.47063 0.46106 0.96048 0.0
H474 H 0.54753 0.49089 0.0773 0.0
H475 H 0.48665 0.49195 0.14748 0.0
H476 H 0.52913 0.48791 0.95672 0.0
H477 H 0.54713 0.52027 0.96849 0.0
H478 H 0.55658 0.49966 0.9938 0.0
H479 H 0.45807 0.49849 0.10403 0.0
H480 H 0.47187 0.51996 0.05396 0.0
H481 H 0.45357 0.48772 0.04134 0.0
H482 H 0.50608 0.55591 0.90618 0.0
H483 H 0.46389 0.47842 0.87449 0.0
H484 H 0.53927 0.55259 0.00411 0.0
H485 H 0.51308 0.55155 0.03271 0.0
H486 H 0.52722 0.57135 0.9804 0.0
H487 H 0.4859 0.45713 0.96579 0.0
H488 H 0.4578 0.44813 0.93238 0.0
H489 H 0.46066 0.45735 0.99596 0.0
C490 C 0.4828 0.00763 0.12436 0.0
C491 C 0.49893 0.03317 0.12688 0.0
C492 C 0.47824 0.99492 0.07953 0.0
C493 C 0.49034 0.00804 0.03639 0.0
C494 C 0.50677 0.03382 0.03885 0.0
C495 C 0.51074 0.04609 0.084 0.0
C496 C 0.46038 0.96749 0.07826 0.0
C497 C 0.52025 0.04843 0.9938 0.0
C498 C 0.49683 0.9735 0.92768 0.0
C499 C 0.47876 0.97229 0.89553 0.0
C500 C 0.50061 0.98483 0.97391 0.0
C501 C 0.48579 0.99493 0.98851 0.0
C502 C 0.46714 0.99324 0.95661 0.0
C503 C 0.46395 0.98207 0.91039 0.0
C504 C 0.52084 0.98647 0.00667 0.0
C505 C 0.45076 0.00352 0.97105 0.0
H506 H 0.47358 -0.00243 0.15739 0.0
H507 H 0.52332 0.06582 0.08577 0.0
H508 H 0.44516 0.96337 0.05224 0.0
H509 H 0.46985 0.95765 0.06481 0.0
H510 H 0.45232 0.96004 0.11495 0.0
H511 H 0.53273 0.06829 0.00208 0.0
H512 H 0.53132 0.04083 0.97765 0.0
H513 H 0.50678 0.04685 0.9655 0.0
H514 H 0.50836 0.96601 0.91633 0.0
H515 H 0.44988 0.98109 0.88576 0.0
H516 H 0.51314 0.97797 0.04288 0.0
H517 H 0.53471 0.00611 0.0134 0.0
H518 H 0.53034 0.97716 0.99044 0.0
H519 H 0.4416 0.99555 0.00665 0.0
H520 H 0.43635 -0.00034 0.94308 0.0
H521 H 0.46207 0.02379 0.97613 0.0
C522 C 0.17452 0.29028 0.93921 0.0
C523 C 0.16043 0.29742 0.96756 0.0
C524 C 0.18303 0.30038 0.89246 0.0
C525 C 0.17724 0.31795 0.87378 0.0
C526 C 0.16409 0.32613 0.90327 0.0
C527 C 0.15586 0.31577 0.94992 0.0
C528 C 0.1972 0.29138 0.86221 0.0
C529 C 0.15769 0.34497 0.88464 0.0
C530 C 0.21033 0.3578 0.76354 0.0
C531 C 0.1929 0.34583 0.72619 0.0
C532 C 0.20591 0.34845 0.81153 0.0
C533 C 0.1835 0.32669 0.82231 0.0
C534 C 0.16629 0.31397 0.7843 0.0
C535 C 0.17123 0.32369 0.73657 0.0
C536 C 0.22477 0.36238 0.85102 0.0
C537 C 0.14219 0.29064 0.79445 0.0
H538 H 0.17814 0.27612 0.95276 0.0
H539 H 0.14498 0.32134 0.97173 0.0
H540 H 0.18586 0.28066 0.83031 0.0
H541 H 0.21432 0.30722 0.84748 0.0
H542 H 0.20218 0.27944 0.88377 0.0
H543 H 0.14879 0.35054 0.9133 0.0
H544 H 0.17453 0.36168 0.87148 0.0
H545 H 0.14491 0.33723 0.85294 0.0
H546 H 0.22718 0.3749 0.7556 0.0
H547 H 0.15773 0.3144 0.70779 0.0
H548 H 0.22913 0.34975 0.87162 0.0
H549 H 0.21711 0.37018 0.87773 0.0
H550 H 0.24217 0.37772 0.83577 0.0
H551 H 0.14564 0.2769 0.81308 0.0
H552 H 0.13148 0.28223 0.76037 0.0
H553 H 0.13076 0.29478 0.81956 0.0
C554 C 0.65162 0.81301 0.70847 0.0
C555 C 0.6266 0.80588 0.70528 0.0
C556 C 0.66368 0.81876 0.75412 0.0
C557 C 0.65048 0.81796 0.79703 0.0
C558 C 0.62514 0.81047 0.79392 0.0
C559 C 0.61345 0.80423 0.74814 0.0
C560 C 0.69059 0.82612 0.75636 0.0
C561 C 0.61058 0.80993 0.83867 0.0
C562 C 0.67424 0.81682 0.92457 0.0
C563 C 0.68569 0.84179 0.93756 0.0
C564 C 0.66329 0.80883 0.87824 0.0
C565 C 0.66333 0.8262 0.8449 0.0
C566 C 0.67472 0.85142 0.85813 0.0
C567 C 0.68603 0.85895 0.90417 0.0
C568 C 0.65174 0.78189 0.86491 0.0
C569 C 0.67461 0.87038 0.824 0.0
H570 H 0.66174 0.81415 0.67532 0.0
H571 H 0.59412 0.79888 0.74571 0.0
H572 H 0.70174 0.8457 0.76774 0.0
H573 H 0.69346 0.81489 0.7843 0.0
H574 H 0.69761 0.82381 0.72042 0.0
H575 H 0.59087 0.80315 0.83007 0.0
H576 H 0.61158 0.79791 0.86741 0.0
H577 H 0.61869 0.82875 0.85443 0.0
H578 H 0.67428 0.8036 0.95025 0.0
H579 H 0.6949 0.87828 0.91431 0.0
H580 H 0.65981 0.77986 0.83013 0.0
H581 H 0.63166 0.77393 0.85867 0.0
H582 H 0.65442 0.77101 0.894 0.0
H583 H 0.68365 0.87069 0.78875 0.0
H584 H 0.68427 0.88924 0.83998 0.0
H585 H 0.65533 0.86538 0.81546 0.0
C586 C 0.17284 0.83013 0.91053 0.0
C587 C 0.15934 0.84204 0.91949 0.0
C588 C 0.1774 0.82553 0.86231 0.0
C589 C 0.16832 0.83314 0.8223 0.0
C590 C 0.15492 0.84542 0.83119 0.0
C591 C 0.15054 0.84968 0.87971 0.0
C592 C 0.19175 0.81233 0.85415 0.0
C593 C 0.14505 0.85388 0.78947 0.0
C594 C 0.1992 0.83834 0.69959 0.0
C595 C 0.18298 0.81544 0.67827 0.0
C596 C 0.19422 0.84476 0.74582 0.0
C597 C 0.17254 0.82784 0.77119 0.0
C598 C 0.15549 0.80525 0.7487 0.0
C599 C 0.1609 0.79934 0.7024 0.0
C600 C 0.21272 0.86913 0.76847 0.0
C601 C 0.1321 0.78681 0.77455 0.0
H602 H 0.17966 0.82421 0.94119 0.0
H603 H 0.14014 0.85897 0.88646 0.0
H604 H 0.18023 0.79492 0.8337 0.0
H605 H 0.2083 0.8239 0.83142 0.0
H606 H 0.19776 0.80788 0.88918 0.0
H607 H 0.13546 0.86369 0.80265 0.0
H608 H 0.16035 0.86639 0.76481 0.0
H609 H 0.13192 0.83779 0.76717 0.0
H610 H 0.2163 0.85085 0.68104 0.0
H611 H 0.1483 0.78161 0.68607 0.0
H612 H 0.22127 0.86579 0.80108 0.0
H613 H 0.2034 0.87923 0.78126 0.0
H614 H 0.22758 0.88104 0.74234 0.0
H615 H 0.13681 0.77973 0.80774 0.0
H616 H 0.11997 0.77091 0.75066 0.0
H617 H 0.12161 0.7958 0.78698 0.0
C618 C 0.32064 0.19208 0.26035 0.0
C619 C 0.33968 0.18713 0.27015 0.0
C620 C 0.30888 0.18633 0.21443 0.0
C621 C 0.31592 0.17471 0.17839 0.0
C622 C 0.33515 0.16967 0.1883 0.0
C623 C 0.34705 0.17628 0.2339 0.0
C624 C 0.28883 0.19249 0.20461 0.0
C625 C 0.3427 0.15668 0.1513 0.0
C626 C 0.26894 0.1348 0.08287 0.0
C627 C 0.2781 0.14941 0.04066 0.0
C628 C 0.28099 0.14294 0.12806 0.0
C629 C 0.30234 0.16654 0.13125 0.0
C630 C 0.31127 0.1817 0.089 0.0
C631 C 0.2992 0.17277 0.04387 0.0
C632 C 0.27128 0.12599 0.17202 0.0
C633 C 0.33367 0.2072 0.09143 0.0
H634 H 0.31514 0.20069 0.28836 0.0
H635 H 0.36171 0.17233 0.2417 0.0
H636 H 0.29288 0.20337 0.17024 0.0
H637 H 0.27094 0.17527 0.19932 0.0
H638 H 0.28683 0.20314 0.23513 0.0
H639 H 0.35812 0.15427 0.16474 0.0
H640 H 0.32674 0.13822 0.1428 0.0
H641 H 0.34844 0.16724 0.11644 0.0
H642 H 0.25268 0.11663 0.08029 0.0
H643 H 0.30615 0.18412 0.01121 0.0
H644 H 0.26705 0.13511 0.2024 0.0
H645 H 0.28558 0.12192 0.1856 0.0
H646 H 0.25434 0.10827 0.16333 0.0
H647 H 0.3313 0.21812 0.12086 0.0
H648 H 0.33715 0.21731 0.05613 0.0
H649 H 0.35021 0.20588 0.10083 0.0
C650 C 0.82653 0.16212 0.08332 0.0
C651 C 0.83643 0.14714 0.07092 0.0
C652 C 0.82103 0.1644 0.13232 0.0
C653 C 0.8253 0.15115 0.16954 0.0
C654 C 0.83515 0.13587 0.15714 0.0
C655 C 0.84073 0.13416 0.10794 0.0
C656 C 0.81074 0.18106 0.1443 0.0
C657 C 0.83969 0.12129 0.19577 0.0
C658 C 0.83083 0.17718 0.29732 0.0
C659 C 0.80645 0.16338 0.31407 0.0
C660 C 0.83759 0.17257 0.25115 0.0
C661 C 0.81955 0.15354 0.22143 0.0
C662 C 0.79542 0.13828 0.23985 0.0
C663 C 0.78911 0.14344 0.286 0.0
C664 C 0.86354 0.1892 0.23281 0.0
C665 C 0.77582 0.11752 0.20952 0.0
H666 H 0.82322 0.17218 0.05477 0.0
H667 H 0.84825 0.12242 0.09842 0.0
H668 H 0.7924 0.17024 0.162 0.0
H669 H 0.82301 0.19547 0.17083 0.0
H670 H 0.80874 0.19026 0.11116 0.0
H671 H 0.84721 0.11005 0.17991 0.0
H672 H 0.85286 0.13395 0.22365 0.0
H673 H 0.82222 0.10881 0.2152 0.0
H674 H 0.84432 0.1926 0.31894 0.0
H675 H 0.77026 0.13265 0.29894 0.0
H676 H 0.86324 0.20098 0.20269 0.0
H677 H 0.87136 0.17814 0.21756 0.0
H678 H 0.87597 0.20136 0.26224 0.0
H679 H 0.77051 0.12531 0.17834 0.0
H680 H 0.75901 0.10553 0.23137 0.0
H681 H 0.783 0.10599 0.1938 0.0
C682 C 0.8515 0.72148 0.10833 0.0
C683 C 0.84396 0.70576 0.06739 0.0
C684 C 0.84545 0.71199 0.15604 0.0
C685 C 0.83165 0.68617 0.1629 0.0
C686 C 0.8231 0.67024 0.12164 0.0
C687 C 0.82932 0.68026 0.07421 0.0
C688 C 0.85475 0.72955 0.19912 0.0
C689 C 0.80836 0.64257 0.12766 0.0
C690 C 0.84285 0.65981 0.27851 0.0
C691 C 0.82154 0.6535 0.30589 0.0
C692 C 0.84648 0.67081 0.23226 0.0
C693 C 0.8284 0.67576 0.21305 0.0
C694 C 0.80728 0.67033 0.24127 0.0
C695 C 0.80406 0.65918 0.28752 0.0
C696 C 0.86931 0.67642 0.20331 0.0
C697 C 0.78778 0.6756 0.222 0.0
H698 H 0.86262 0.74126 0.10317 0.0
H699 H 0.82337 0.6681 0.04259 0.0
H700 H 0.83954 0.7252 0.22534 0.0
H701 H 0.86902 0.72743 0.21913 0.0
H702 H 0.86295 0.74911 0.18749 0.0
H703 H 0.80131 0.6329 0.09203 0.0
H704 H 0.82011 0.63596 0.14463 0.0
H705 H 0.79249 0.63735 0.15263 0.0
H706 H 0.85643 0.65546 0.29258 0.0
H707 H 0.78752 0.65423 0.30855 0.0
H708 H 0.87963 0.69622 0.19313 0.0
H709 H 0.86394 0.66562 0.16867 0.0
H710 H 0.88185 0.67197 0.2241 0.0
H711 H 0.7963 0.69516 0.21036 0.0
H712 H 0.77331 0.6718 0.24979 0.0
H713 H 0.77887 0.66405 0.18914 0.0
C714 C 0.96788 0.4603 0.42542 0.0
C715 C 0.97613 0.47854 0.389 0.0
C716 C 0.97925 0.46533 0.47159 0.0
C717 C -0.00082 0.48922 0.48158 0.0
C718 C 0.00773 0.50767 0.44481 0.0
C719 C -0.00385 0.50205 0.39875 0.0
C720 C 0.96985 0.44512 0.50975 0.0
C721 C 0.02888 0.53339 0.45437 0.0
C722 C 0.01383 0.5083 0.61518 0.0
C723 C 0.03418 0.50515 0.62309 0.0
C724 C 0.00232 0.50337 0.56905 0.0
C725 C 0.01127 0.49481 0.5304 0.0
C726 C 0.03166 0.49138 0.53842 0.0
C727 C 0.04297 0.49674 0.58463 0.0
C728 C 0.98072 0.50743 0.56155 0.0
C729 C 0.04148 0.48196 0.49826 0.0
H730 H 0.95239 0.44209 0.41795 0.0
H731 H 0.00245 0.51622 0.37073 0.0
H732 H 0.985 0.442 0.5218 0.0
H733 H 0.96339 0.45074 0.54264 0.0
H734 H 0.95441 0.42742 0.4958 0.0
H735 H 0.0332 0.54563 0.42192 0.0
H736 H 0.02434 0.54172 0.48578 0.0
H737 H 0.04565 0.53265 0.46458 0.0
H738 H 0.00709 0.5149 0.64486 0.0
H739 H 0.05866 0.49417 0.59073 0.0
H740 H 0.96417 0.48988 0.55059 0.0
H741 H 0.98479 0.52081 0.5313 0.0
H742 H 0.97626 0.51449 0.59518 0.0
H743 H 0.02669 0.46371 0.48518 0.0
H744 H 0.05736 0.48008 0.51072 0.0
H745 H 0.04744 0.4947 0.46639 0.0
C746 C 0.4991 0.49898 0.60908 0.0
C747 C 0.51041 0.52209 0.63215 0.0
C748 C 0.50655 0.49605 0.56222 0.0
C749 C 0.52595 0.51669 0.53812 0.0
C750 C 0.53846 0.53972 0.56249 0.0
C751 C 0.53047 0.54218 0.60925 0.0
C752 C 0.49279 0.47114 0.53746 0.0
C753 C 0.55948 0.56203 0.53827 0.0
C754 C 0.55216 0.50091 0.42755 0.0
C755 C 0.53884 0.50364 0.38901 0.0
C756 C 0.54908 0.50628 0.47615 0.0
C757 C 0.53206 0.51429 0.48642 0.0
C758 C 0.51939 0.51815 0.44738 0.0
C759 C 0.52305 0.5129 0.39898 0.0
C760 C 0.5632 0.5023 0.51665 0.0
C761 C 0.50105 0.52664 0.45697 0.0
H762 H 0.48357 0.4834 0.62659 0.0
H763 H 0.53929 0.56009 0.62698 0.0
H764 H 0.48301 0.47242 0.50459 0.0
H765 H 0.50589 0.46527 0.52472 0.0
H766 H 0.47904 0.45669 0.56221 0.0
H767 H 0.56897 0.5778 0.56408 0.0
H768 H 0.5732 0.55743 0.52339 0.0
H769 H 0.55235 0.56791 0.50689 0.0
H770 H 0.56456 0.49394 0.41991 0.0
H771 H 0.51272 0.515 0.36926 0.0
H772 H 0.55029 0.48628 0.53938 0.0
H773 H 0.57199 0.51862 0.54121 0.0
H774 H 0.5777 0.49873 0.50208 0.0
H775 H 0.48518 0.51228 0.47809 0.0
H776 H 0.49397 0.53031 0.42246 0.0
H777 H 0.50961 0.54367 0.47956 0.0
C778 C 0.46834 0.99515 0.61868 0.0
C779 C 0.48765 0.99527 0.64496 0.0
C780 C 0.47242 0.00608 0.57214 0.0
C781 C 0.49636 0.0173 0.55148 0.0
C782 C 0.51619 0.01864 0.57896 0.0
C783 C 0.5116 0.00765 0.62553 0.0
C784 C 0.45088 0.00456 0.54414 0.0
C785 C 0.54199 0.03058 0.55817 0.0
C786 C 0.50036 0.01928 0.41224 0.0
C787 C 0.50644 0.04365 0.40267 0.0
C788 C 0.49733 0.01054 0.46068 0.0
C789 C 0.50037 0.02657 0.50021 0.0
C790 C 0.50672 0.05124 0.49071 0.0
C791 C 0.50972 0.05949 0.44204 0.0
C792 C 0.49064 0.9841 0.46956 0.0
C793 C 0.51005 0.06882 0.5319 0.0
H794 H 0.4498 0.98561 0.63359 0.0
H795 H 0.52657 0.00772 0.64567 0.0
H796 H 0.45537 0.02311 0.53092 0.0
H797 H 0.44704 0.99266 0.51133 0.0
H798 H 0.43387 0.99687 0.56683 0.0
H799 H 0.55567 0.03179 0.58565 0.0
H800 H 0.54235 0.01973 0.52626 0.0
H801 H 0.54775 0.04943 0.54472 0.0
H802 H 0.49786 0.00702 0.3819 0.0
H803 H 0.51444 0.07838 0.43484 0.0
H804 H 0.47257 0.97409 0.48855 0.0
H805 H 0.50453 0.98348 0.49392 0.0
H806 H 0.48954 0.97422 0.4349 0.0
H807 H 0.49259 0.06169 0.55285 0.0
H808 H 0.51553 0.08761 0.51828 0.0
H809 H 0.52432 0.07022 0.55792 0.0
C810 C 0.1498 0.19323 0.07208 0.0
C811 C 0.12958 0.19424 0.05282 0.0
C812 C 0.15852 0.17897 0.04928 0.0
C813 C 0.14676 0.1655 0.00617 0.0
C814 C 0.12525 0.16503 0.98873 0.0
C815 C 0.11687 0.17938 0.01237 0.0
C816 C 0.18133 0.17966 0.06942 0.0
C817 C 0.11212 0.15081 0.94309 0.0
C818 C 0.19091 0.15992 0.9193 0.0
C819 C 0.18682 0.13634 0.93059 0.0
C820 C 0.17699 0.1691 0.94177 0.0
C821 C 0.15868 0.15438 0.97661 0.0
C822 C 0.15337 0.12996 0.98574 0.0
C823 C 0.16748 0.12117 0.96243 0.0
C824 C 0.18294 0.19513 0.9304 0.0
C825 C 0.13392 0.11369 0.02245 0.0
H826 H 0.15961 0.20459 0.10345 0.0
H827 H 0.10115 0.18 0.99741 0.0
H828 H 0.17836 0.1607 0.07279 0.0
H829 H 0.19695 0.18992 0.04366 0.0
H830 H 0.18668 0.18877 0.10594 0.0
H831 H 0.09379 0.14933 0.93861 0.0
H832 H 0.12349 0.1603 0.91034 0.0
H833 H 0.10961 0.13197 0.94396 0.0
H834 H 0.20576 0.17165 0.89454 0.0
H835 H 0.16428 0.10293 0.97137 0.0
H836 H 0.19111 0.20693 0.96331 0.0
H837 H 0.16586 0.19547 0.9211 0.0
H838 H 0.19615 0.20332 0.89942 0.0
H839 H 0.1405 0.12063 0.06012 0.0
H840 H 0.12967 0.09423 0.02029 0.0
H841 H 0.11665 0.11421 0.01659 0.0
C842 C 0.79115 0.05512 0.98525 0.0
C843 C 0.8086 0.06229 0.94742 0.0
C844 C 0.77968 0.03112 0.00426 0.0
C845 C 0.78524 0.01368 0.98383 0.0
C846 C 0.80211 0.02056 0.94422 0.0
C847 C 0.81396 0.04498 0.92702 0.0
C848 C 0.76234 0.02471 0.0474 0.0
C849 C 0.8079 0.00223 0.92051 0.0
C850 C 0.7756 0.95859 0.05941 0.0
C851 C 0.75247 0.94023 0.04274 0.0
C852 C 0.78622 0.98279 0.04144 0.0
C853 C 0.77377 0.9884 0.00466 0.0
C854 C 0.75039 0.96986 0.98773 0.0
C855 C 0.73983 0.94607 0.00762 0.0
C856 C 0.81081 0.0023 0.06153 0.0
C857 C 0.73688 0.97495 0.94759 0.0
H858 H 0.78727 0.06862 0.00159 0.0
H859 H 0.82749 0.05057 0.8978 0.0
H860 H 0.74398 0.00883 0.03813 0.0
H861 H 0.76955 0.01908 0.0791 0.0
H862 H 0.75994 0.04041 0.05889 0.0
H863 H 0.81997 0.01001 0.88778 0.0
H864 H 0.81726 0.99634 0.94735 0.0
H865 H 0.79058 0.98549 0.90922 0.0
H866 H 0.78534 0.95399 0.08654 0.0
H867 H 0.7221 0.93173 0.99414 0.0
H868 H 0.80946 0.01831 0.07501 0.0
H869 H 0.82487 0.0091 0.03194 0.0
H870 H 0.81734 0.99526 0.0921 0.0
H871 H 0.73336 0.98991 0.95902 0.0
H872 H 0.71898 0.95839 0.93816 0.0
H873 H 0.74849 0.98136 0.91403 0.0
C874 C 0.94983 0.75579 0.99444 0.0
C875 C 0.94365 0.76682 0.95641 0.0
C876 C 0.97407 0.76641 0.01183 0.0
C877 C 0.99274 0.78827 0.9898 0.0
C878 C 0.98671 0.79933 0.95082 0.0
C879 C 0.96209 0.78862 0.93499 0.0
C880 C 0.97964 0.75434 0.05413 0.0
C881 C 0.00627 0.82233 0.92568 0.0
C882 C 0.05245 0.82739 0.05995 0.0
C883 C 0.06756 0.81892 0.04037 0.0
C884 C 0.02793 0.81744 0.04413 0.0
C885 C 0.01865 0.79913 0.00696 0.0
C886 C 0.03392 0.79064 0.98697 0.0
C887 C 0.05809 0.8004 0.0044 0.0
C888 C 0.01194 0.82646 0.06721 0.0
C889 C 0.02487 0.77149 0.94664 0.0
H890 H 0.93554 0.73908 0.01156 0.0
H891 H 0.9573 0.79717 0.90564 0.0
H892 H 0.9929 0.7485 0.04229 0.0
H893 H 0.98842 0.76776 0.08455 0.0
H894 H 0.96281 0.73794 0.06845 0.0
H895 H -0.00137 0.82837 0.89538 0.0
H896 H 0.01531 0.83758 0.95266 0.0
H897 H 0.02079 0.81898 0.91047 0.0
H898 H 0.0598 0.84176 0.08766 0.0
H899 H 0.06985 0.79407 0.98865 0.0
H900 H 0.99519 0.81068 0.08333 0.0
H901 H 0.00569 0.8348 0.03877 0.0
H902 H 0.02178 0.84036 0.09646 0.0
H903 H 0.00889 0.75404 0.95981 0.0
H904 H 0.03939 0.76754 0.93381 0.0
H905 H 0.01845 0.77788 0.91485 0.0
C906 C 0.81471 0.7672 0.98652 0.0
C907 C 0.83404 0.77746 0.95241 0.0
C908 C 0.8037 0.78051 0.00345 0.0
C909 C 0.81172 0.80441 0.98467 0.0
C910 C 0.83122 0.81489 0.95003 0.0
C911 C 0.84247 0.80138 0.93483 0.0
C912 C 0.78333 0.76888 0.04123 0.0
C913 C 0.83976 0.84005 0.92825 0.0
C914 C 0.76211 0.82183 0.99185 0.0
C915 C 0.76946 0.83732 0.03305 0.0
C916 C 0.77648 0.81214 0.97415 0.0
C917 C 0.7984 0.81749 -0.00083 0.0
C918 C 0.80618 0.83348 0.0404 0.0
C919 C 0.79173 0.84355 0.05649 0.0
C920 C 0.76783 0.79563 0.92943 0.0
C921 C 0.82914 0.83909 0.06866 0.0
H922 H 0.80848 0.74885 0.00086 0.0
H923 H 0.85751 0.80931 0.9086 0.0
H924 H 0.7875 0.78151 0.07293 0.0
H925 H 0.76571 0.76562 0.02497 0.0
H926 H 0.78068 0.751 0.05497 0.0
H927 H 0.85561 0.84587 0.90285 0.0
H928 H 0.82436 0.83989 0.90776 0.0
H929 H 0.8452 0.85401 0.95784 0.0
H930 H 0.74507 0.81736 0.97317 0.0
H931 H 0.7974 0.8556 0.08827 0.0
H932 H 0.7623 0.77646 0.94023 0.0
H933 H 0.78303 0.80174 0.90234 0.0
H934 H 0.75185 0.79545 0.91126 0.0
H935 H 0.8266 0.82194 0.08604 0.0
H936 H 0.83353 0.85311 0.09782 0.0
H937 H 0.84516 0.84582 0.04349 0.0
C938 C 0.20501 0.93868 0.00657 0.0
C939 C 0.1852 0.93022 0.03954 0.0
C940 C 0.21578 0.9625 0.98664 0.0
C941 C 0.20681 0.97832 0.00083 0.0
C942 C 0.18774 0.97033 0.03625 0.0
C943 C 0.17696 0.94623 0.0548 0.0
C944 C 0.23583 0.97024 0.94849 0.0
C945 C 0.17809 0.9869 0.05318 0.0
C946 C 0.24398 0.04708 0.97576 0.0
C947 C 0.23085 0.04947 0.93644 0.0
C948 C 0.23676 0.02393 0.99647 0.0
C949 C 0.21624 0.00268 0.97665 0.0
C950 C 0.20378 0.00486 0.93521 0.0
C951 C 0.21107 0.0283 0.91592 0.0
C952 C 0.25026 0.0224 0.04107 0.0
C953 C 0.18216 0.98252 0.91235 0.0
H954 H 0.21128 0.92625 0.99438 0.0
H955 H 0.16169 0.93974 0.08039 0.0
H956 H 0.22893 0.97257 0.9125 0.0
H957 H 0.25201 0.98829 0.95834 0.0
H958 H 0.24199 0.95649 0.94418 0.0
H959 H 0.1648 0.97871 0.08405 0.0
H960 H 0.19357 0.00502 0.06507 0.0
H961 H 0.16869 0.99036 0.02223 0.0
H962 H 0.25918 0.06345 0.99201 0.0
H963 H 0.20095 0.03012 0.88545 0.0
H964 H 0.25592 0.00839 0.03543 0.0
H965 H 0.23774 0.01647 0.07332 0.0
H966 H 0.26691 0.04036 0.04979 0.0
H967 H 0.18714 0.96817 0.90432 0.0
H968 H 0.1759 0.9871 0.87778 0.0
H969 H 0.16649 0.97443 0.93855 0.0
C970 C 0.94238 0.16903 0.93338 0.0
C971 C 0.92717 0.17904 0.94283 0.0
C972 C 0.9668 0.18075 0.95048 0.0
C973 C 0.976 0.20274 0.97834 0.0
C974 C 0.96097 0.21335 0.98652 0.0
C975 C 0.93678 0.20146 0.96831 0.0
C976 C 0.98248 0.16917 0.94019 0.0
C977 C 0.97003 0.23663 0.01642 0.0
C978 C 0.02764 0.21563 0.06762 0.0
C979 C 0.04834 0.23349 0.04216 0.0
C980 C 0.00389 0.2059 0.04773 0.0
C981 C 0.0009 0.21395 0.00093 0.0
C982 C 0.02171 0.23229 0.97545 0.0
C983 C 0.04518 0.242 0.99659 0.0
C984 C 0.98205 0.18669 0.0764 0.0
C985 C 0.01927 0.24109 0.92523 0.0
H986 H 0.93503 0.15173 0.91361 0.0
H987 H 0.92504 0.20921 0.97593 0.0
H988 H 0.0004 0.18299 0.92398 0.0
H989 H 0.98654 0.16276 0.97509 0.0
H990 H 0.97328 0.1532 0.91475 0.0
H991 H 0.95655 0.24325 0.01708 0.0
H992 H 0.97354 0.2332 0.05476 0.0
H993 H 0.98775 0.25151 0.00147 0.0
H994 H 0.03004 0.20905 0.10287 0.0
H995 H 0.06117 0.25569 0.97659 0.0
H996 H 0.97309 0.16901 0.05585 0.0
H997 H 0.96811 0.19254 0.08099 0.0
H998 H 0.98738 0.18336 0.1133 0.0
H999 H 0.01178 0.22545 0.89895 0.0
H1000 H 0.0372 0.25599 0.91093 0.0
H1001 H 0.00608 0.24802 0.9265 0.0
C1002 C 0.86438 0.57983 0.36926 0.0
C1003 C 0.84403 0.56846 0.40097 0.0
C1004 C 0.87567 0.56698 0.35115 0.0
C1005 C 0.8667 0.54227 0.36581 0.0
C1006 C 0.84665 0.53088 0.39906 0.0
C1007 C 0.83536 0.54408 0.41596 0.0
C1008 C 0.89683 0.57969 0.31533 0.0
C1009 C 0.83695 0.50471 0.41624 0.0
C1010 C 0.88151 0.50274 0.28238 0.0
C1011 C 0.90258 0.50491 0.30508 0.0
C1012 C 0.86943 0.5146 0.30207 0.0
C1013 C 0.8784 0.52848 0.34596 0.0
C1014 C 0.8994 0.53031 0.36945 0.0
C1015 C 0.91139 0.51872 0.34843 0.0
C1016 C 0.84736 0.51266 0.2755 0.0
C1017 C 0.90927 0.54462 0.41667 0.0
H1018 H 0.87108 0.59863 0.35726 0.0
H1019 H 0.81962 0.53525 0.44041 0.0
H1020 H 0.91348 0.57998 0.3301 0.0
H1021 H 0.89207 0.56929 0.28021 0.0
H1022 H 0.9015 0.59896 0.30748 0.0
H1023 H 0.82201 0.49894 0.4439 0.0
H1024 H 0.8297 0.49192 0.38449 0.0
H1025 H 0.85213 0.50275 0.43255 0.0
H1026 H 0.87465 0.492 0.24895 0.0
H1027 H 0.9275 0.52017 0.36646 0.0
H1028 H 0.85123 0.5313 0.2643 0.0
H1029 H 0.83116 0.50495 0.30037 0.0
H1030 H 0.84248 0.50083 0.24225 0.0
H1031 H 0.91569 0.56442 0.41023 0.0
H1032 H 0.92488 0.543 0.43182 0.0
H1033 H 0.89441 0.53794 0.44465 0.0
C1034 C 0.47606 0.39625 0.33057 0.0
C1035 C 0.48986 0.4005 0.28742 0.0
C1036 C 0.46198 0.37241 0.34981 0.0
C1037 C 0.46119 0.35227 0.32459 0.0
C1038 C 0.47469 0.35638 0.28041 0.0
C1039 C 0.48916 0.38056 0.26265 0.0
C1040 C 0.44825 0.36884 0.39751 0.0
C1041 C 0.4738 0.33526 0.25193 0.0
C1042 C 0.44197 0.29247 0.39313 0.0
C1043 C 0.417 0.27848 0.38043 0.0
C1044 C 0.45654 0.31672 0.37587 0.0
C1045 C 0.44595 0.32687 0.34423 0.0
C1046 C 0.4207 0.31282 0.33151 0.0
C1047 C 0.40646 0.2889 0.35026 0.0
C1048 C 0.48326 0.33141 0.39119 0.0
C1049 C 0.40886 0.32284 0.29719 0.0
H1050 H 0.4768 0.41169 0.35016 0.0
H1051 H 0.49984 0.38385 0.2293 0.0
H1052 H 0.42817 0.35653 0.39167 0.0
H1053 H 0.45424 0.35977 0.42487 0.0
H1054 H 0.45131 0.38655 0.41318 0.0
H1055 H 0.48478 0.3415 0.21752 0.0
H1056 H 0.48096 0.32559 0.27489 0.0
H1057 H 0.45442 0.32162 0.24244 0.0
H1058 H 0.45013 0.28441 0.41642 0.0
H1059 H 0.3872 0.27802 0.33989 0.0
H1060 H 0.48701 0.34902 0.40846 0.0
H1061 H 0.49533 0.33616 0.35844 0.0
H1062 H 0.48839 0.32118 0.41754 0.0
H1063 H 0.41033 0.33991 0.31269 0.0
H1064 H 0.38907 0.30937 0.2904 0.0
H1065 H 0.41871 0.3278 0.26146 0.0
C1066 C 0.59585 0.1346 0.31588 0.0
C1067 C 0.58866 0.11566 0.28122 0.0
C1068 C 0.61974 0.14649 0.33561 0.0
C1069 C 0.637 0.13975 0.31907 0.0
C1070 C 0.63019 0.12156 0.28206 0.0
C1071 C 0.60592 0.10941 0.26416 0.0
C1072 C 0.62611 0.16533 0.37589 0.0
C1073 C 0.64833 0.11444 0.26238 0.0
C1074 C 0.70494 0.18309 0.34465 0.0
C1075 C 0.70938 0.17066 0.38253 0.0
C1076 C 0.68145 0.17326 0.32358 0.0
C1077 C 0.66182 0.15089 0.342 0.0
C1078 C 0.66602 0.13878 0.38163 0.0
C1079 C 0.68991 0.14861 0.40088 0.0
C1080 C 0.67785 0.18632 0.28048 0.0
C1081 C 0.64537 0.11527 0.40321 0.0
H1082 H 0.58238 0.1392 0.32958 0.0
H1083 H 0.60033 0.09476 0.23731 0.0
H1084 H 0.63016 0.15851 0.41028 0.0
H1085 H 0.64294 0.18287 0.36615 0.0
H1086 H 0.61091 0.1692 0.38319 0.0
H1087 H 0.64084 0.10175 0.23044 0.0
H1088 H 0.66567 0.13115 0.25108 0.0
H1089 H 0.6531 0.10522 0.29162 0.0
H1090 H 0.72011 0.2 0.33001 0.0
H1091 H 0.69338 0.13904 0.43023 0.0
H1092 H 0.66299 0.19055 0.28849 0.0
H1093 H 0.672 0.17407 0.24781 0.0
H1094 H 0.69493 0.20379 0.27115 0.0
H1095 H 0.62967 0.11788 0.41347 0.0
H1096 H 0.65132 0.10919 0.43624 0.0
H1097 H 0.63851 0.10031 0.37544 0.0
C1098 C 0.44595 0.08394 0.31628 0.0
C1099 C 0.46322 0.09522 0.2784 0.0
C1100 C 0.43289 0.09491 0.33517 0.0
C1101 C 0.43678 0.11736 0.31482 0.0
C1102 C 0.45318 0.1281 0.27469 0.0
C1103 C 0.46648 0.11705 0.25736 0.0
C1104 C 0.41595 0.08315 0.37857 0.0
C1105 C 0.45728 0.1517 0.25117 0.0
C1106 C 0.39026 0.13783 0.34201 0.0
C1107 C 0.403 0.15651 0.37678 0.0
C1108 C 0.401 0.12487 0.32151 0.0
C1109 C 0.42474 0.13031 0.33719 0.0
C1110 C 0.43726 0.1485 0.37375 0.0
C1111 C 0.42637 0.16166 0.39262 0.0
C1112 C 0.38733 0.106 0.28185 0.0
C1113 C 0.46234 0.15435 0.39235 0.0
H1114 H 0.44355 0.06716 0.33298 0.0
H1115 H 0.47981 0.12576 0.22804 0.0
H1116 H 0.42332 0.09556 0.41089 0.0
H1117 H 0.3974 0.08047 0.37069 0.0
H1118 H 0.41398 0.06503 0.38843 0.0
H1119 H 0.46875 0.15633 0.21745 0.0
H1120 H 0.43934 0.15016 0.24155 0.0
H1121 H 0.46664 0.16718 0.27758 0.0
H1122 H 0.3723 0.13407 0.32922 0.0
H1123 H 0.4362 0.17611 0.4195 0.0
H1124 H 0.38512 0.0879 0.29237 0.0
H1125 H 0.39818 0.11178 0.24728 0.0
H1126 H 0.36879 0.10359 0.27451 0.0
H1127 H 0.46177 0.13724 0.40513 0.0
H1128 H 0.46888 0.16786 0.42305 0.0
H1129 H 0.47601 0.16204 0.36208 0.0
C1130 C 0.82628 0.28816 0.3954 0.0
C1131 C 0.81584 0.26769 0.36404 0.0
C1132 C 0.83936 0.31219 0.37633 0.0
C1133 C 0.84178 0.3157 0.32477 0.0
C1134 C 0.83054 0.2951 0.29298 0.0
C1135 C 0.8178 0.27133 0.31302 0.0
C1136 C 0.85126 0.33376 0.41134 0.0
C1137 C 0.83252 0.29813 0.23783 0.0
C1138 C 0.86234 0.38021 0.27772 0.0
C1139 C 0.88771 0.3896 0.27135 0.0
C1140 C 0.84695 0.3559 0.29384 0.0
C1141 C 0.85731 0.34082 0.3042 0.0
C1142 C 0.88277 0.34996 0.29619 0.0
C1143 C 0.89764 0.37421 0.27961 0.0
C1144 C 0.8198 0.34661 0.30124 0.0
C1145 C 0.89448 0.33442 0.30685 0.0
H1146 H 0.82479 0.28538 0.43483 0.0
H1147 H 0.8096 0.25553 0.28859 0.0
H1148 H 0.87159 0.34342 0.40687 0.0
H1149 H 0.84522 0.34725 0.40279 0.0
H1150 H 0.84672 0.32797 0.45031 0.0
H1151 H 0.82123 0.28035 0.21827 0.0
H1152 H 0.82653 0.31126 0.22596 0.0
H1153 H 0.85204 0.30596 0.22641 0.0
H1154 H 0.8546 0.39206 0.27135 0.0
H1155 H 0.91727 0.3814 0.27486 0.0
H1156 H 0.81516 0.34292 0.3408 0.0
H1157 H 0.80863 0.32894 0.28136 0.0
H1158 H 0.81436 0.36005 0.28831 0.0
H1159 H 0.89255 0.32966 0.34648 0.0
H1160 H 0.91439 0.34402 0.29717 0.0
H1161 H 0.88492 0.31684 0.28605 0.0
C1162 C 0.6224 0.48729 0.28515 0.0
C1163 C 0.61427 0.50203 0.26233 0.0
C1164 C 0.64643 0.4977 0.30395 0.0
C1165 C 0.66276 0.52338 0.29911 0.0
C1166 C 0.65512 0.53807 0.27341 0.0
C1167 C 0.63088 0.52724 0.25561 0.0
C1168 C 0.65384 0.48146 0.33139 0.0
C1169 C 0.67218 0.56544 0.26668 0.0
C1170 C 0.71314 0.55706 0.39398 0.0
C1171 C 0.73397 0.55985 0.3691 0.0
C1172 C 0.68974 0.54467 0.372 0.0
C1173 C 0.68723 0.53519 0.32375 0.0
C1174 C 0.70815 0.53762 0.29878 0.0
C1175 C 0.73127 0.54978 0.32191 0.0
C1176 C 0.66777 0.54211 0.40008 0.0
C1177 C 0.70623 0.52799 0.24714 0.0
H1178 H 0.6096 0.46781 0.29066 0.0
H1179 H 0.62468 0.53868 0.23787 0.0
H1180 H 0.67165 0.48417 0.31729 0.0
H1181 H 0.65651 0.48666 0.37082 0.0
H1182 H 0.63974 0.46159 0.32841 0.0
H1183 H 0.66424 0.57377 0.24188 0.0
H1184 H 0.67593 0.57483 0.30284 0.0
H1185 H 0.69013 0.56909 0.25144 0.0
H1186 H 0.71517 0.56478 0.43048 0.0
H1187 H 0.74736 0.55203 0.30241 0.0
H1188 H 0.65312 0.52243 0.40188 0.0
H1189 H 0.65991 0.5522 0.38068 0.0
H1190 H 0.67264 0.54942 0.43811 0.0
H1191 H 0.69226 0.50808 0.24551 0.0
H1192 H 0.7241 0.53056 0.2335 0.0
H1193 H 0.7 0.53771 0.22194 0.0
C1194 C 0.58209 0.86494 0.64438 0.0
C1195 C 0.56908 0.84799 0.60686 0.0
C1196 C 0.5727 0.87878 0.66643 0.0
C1197 C 0.54996 0.87586 0.64996 0.0
C1198 C 0.53728 0.85957 0.61062 0.0
C1199 C 0.54691 0.84565 0.58978 0.0
C1200 C 0.58662 0.89579 0.70859 0.0
C1201 C 0.51321 0.85634 0.59146 0.0
C1202 C 0.51036 0.88991 0.73463 0.0
C1203 C 0.51546 0.91308 0.71748 0.0
C1204 C 0.52209 0.87791 0.71399 0.0
C1205 C 0.53898 0.88924 0.67483 0.0
C1206 C 0.54468 0.91292 0.65829 0.0
C1207 C 0.53297 0.92464 0.68009 0.0
C1208 C 0.51591 0.85284 0.73317 0.0
C1209 C 0.5624 0.92547 0.61633 0.0
H1210 H 0.59916 0.86667 0.65797 0.0
H1211 H 0.53683 0.83258 0.56075 0.0
H1212 H 0.59006 0.91466 0.7011 0.0
H1213 H 0.57533 0.88923 0.74253 0.0
H1214 H 0.60458 0.89678 0.71552 0.0
H1215 H 0.50648 0.84413 0.55869 0.0
H1216 H 0.49892 0.84826 0.62056 0.0
H1217 H 0.51538 0.87451 0.58159 0.0
H1218 H 0.49686 0.88095 0.76357 0.0
H1219 H 0.53689 0.94252 0.66651 0.0
H1220 H 0.53304 0.85275 0.74315 0.0
H1221 H 0.50658 0.83877 0.70403 0.0
H1222 H 0.50365 0.84731 0.76586 0.0
H1223 H 0.58036 0.92667 0.62409 0.0
H1224 H 0.56567 0.94435 0.60934 0.0
H1225 H 0.55495 0.91438 0.58233 0.0
C1226 C 0.18138 0.71255 0.66869 0.0
C1227 C 0.18 0.71607 0.61814 0.0
C1228 C 0.16956 0.68887 0.68923 0.0
C1229 C 0.15606 0.66816 0.65846 0.0
C1230 C 0.15521 0.67151 0.60716 0.0
C1231 C 0.16719 0.69548 0.58756 0.0
C1232 C 0.17088 0.68607 0.74409 0.0
C1233 C 0.14107 0.64981 0.57322 0.0
C1234 C 0.1391 0.60477 0.70741 0.0
C1235 C 0.11446 0.59555 0.72139 0.0
C1236 C 0.15292 0.62841 0.68684 0.0
C1237 C 0.14183 0.64314 0.68041 0.0
C1238 C 0.11711 0.63409 0.69539 0.0
C1239 C 0.10371 0.61037 0.71561 0.0
C1240 C 0.17923 0.63747 0.67132 0.0
C1241 C 0.10472 0.64936 0.68954 0.0
H1242 H 0.1913 0.7284 0.69254 0.0
H1243 H 0.1661 0.69813 0.54849 0.0
H1244 H 0.15216 0.67813 0.76025 0.0
H1245 H 0.17763 0.67311 0.75223 0.0
H1246 H 0.18319 0.70394 0.76252 0.0
H1247 H 0.14341 0.65541 0.53398 0.0
H1248 H 0.14722 0.63613 0.57826 0.0
H1249 H 0.12113 0.64044 0.58236 0.0
H1250 H 0.14744 0.59332 0.71156 0.0
H1251 H 0.08465 0.60331 0.72628 0.0
H1252 H 0.19183 0.65498 0.69048 0.0
H1253 H 0.18124 0.64141 0.63133 0.0
H1254 H 0.18521 0.62385 0.67932 0.0
H1255 H 0.11534 0.6671 0.70946 0.0
H1256 H 0.08549 0.63973 0.70361 0.0
H1257 H 0.10442 0.6538 0.6502 0.0
C1258 C 0.37899 0.484 0.72137 0.0
C1259 C 0.39933 0.49606 0.68999 0.0
C1260 C 0.35492 0.47103 0.70239 0.0
C1261 C 0.3512 0.47042 0.65093 0.0
C1262 C 0.37168 0.48293 0.6192 0.0
C1263 C 0.3955 0.49548 0.6391 0.0
C1264 C 0.33349 0.45772 0.73731 0.0
C1265 C 0.36843 0.48293 0.56421 0.0
C1266 C 0.29151 0.41735 0.60165 0.0
C1267 C 0.27662 0.42814 0.59824 0.0
C1268 C 0.31603 0.43107 0.61774 0.0
C1269 C 0.3259 0.45622 0.63027 0.0
C1270 C 0.31133 0.46753 0.62455 0.0
C1271 C 0.28679 0.45331 0.60874 0.0
C1272 C 0.33101 0.41837 0.62332 0.0
C1273 C 0.32137 0.49441 0.63683 0.0
H1274 H 0.3819 0.4844 0.76069 0.0
H1275 H 0.41119 0.50493 0.61466 0.0
H1276 H 0.32034 0.46457 0.73275 0.0
H1277 H 0.32335 0.43771 0.7287 0.0
H1278 H 0.33948 0.46015 0.77631 0.0
H1279 H 0.38624 0.49424 0.54477 0.0
H1280 H 0.35967 0.46378 0.54995 0.0
H1281 H 0.35598 0.4902 0.55517 0.0
H1282 H 0.28371 0.39788 0.59372 0.0
H1283 H 0.27534 0.46173 0.60615 0.0
H1284 H 0.3357 0.41827 0.6626 0.0
H1285 H 0.34864 0.42859 0.60288 0.0
H1286 H 0.321 0.39903 0.60984 0.0
H1287 H 0.32528 0.49736 0.67677 0.0
H1288 H 0.30828 0.50083 0.62698 0.0
H1289 H 0.33903 0.50601 0.61726 0.0
C1290 C 0.14561 0.4041 0.68621 0.0
C1291 C 0.15906 0.41329 0.64257 0.0
C1292 C 0.13396 0.41577 0.70853 0.0
C1293 C 0.13534 0.43678 0.686 0.0
C1294 C 0.14854 0.44588 0.64142 0.0
C1295 C 0.16051 0.43417 0.62052 0.0
C1296 C 0.12048 0.40583 0.75652 0.0
C1297 C 0.14996 0.46793 0.61576 0.0
C1298 C 0.08667 0.45405 0.71474 0.0
C1299 C 0.09986 0.47503 0.74426 0.0
C1300 C 0.09786 0.44113 0.69631 0.0
C1301 C 0.12269 0.44909 0.70855 0.0
C1302 C 0.1357 0.46947 0.7405 0.0
C1303 C 0.12419 0.4824 0.7576 0.0
C1304 C 0.08348 0.41971 0.66181 0.0
C1305 C 0.16202 0.47811 0.7553 0.0
H1306 H 0.1447 0.3881 0.70366 0.0
H1307 H 0.17091 0.44129 0.58679 0.0
H1308 H 0.12836 0.42043 0.78507 0.0
H1309 H 0.10077 0.40035 0.75226 0.0
H1310 H 0.12158 0.38962 0.76975 0.0
H1311 H 0.16043 0.4723 0.58073 0.0
H1312 H 0.1311 0.46445 0.60782 0.0
H1313 H 0.15899 0.48434 0.64004 0.0
H1314 H 0.06789 0.44837 0.70402 0.0
H1315 H 0.13442 0.49859 0.78045 0.0
H1316 H 0.08363 0.40306 0.67523 0.0
H1317 H 0.09234 0.42419 0.62506 0.0
H1318 H 0.06401 0.4152 0.65765 0.0
H1319 H 0.16369 0.46242 0.76958 0.0
H1320 H 0.16876 0.49277 0.7838 0.0
H1321 H 0.17422 0.48546 0.7227 0.0
C1322 C 0.47348 0.60867 0.67507 0.0
C1323 C 0.48883 0.60595 0.70893 0.0
C1324 C 0.48118 0.6313 0.65148 0.0
C1325 C 0.50453 0.65175 0.66298 0.0
C1326 C 0.51948 0.64942 0.69921 0.0
C1327 C 0.51158 0.62643 0.7213 0.0
C1328 C 0.46493 0.63295 0.61245 0.0
C1329 C 0.54423 0.671 0.71342 0.0
C1330 C 0.54181 0.70352 0.57334 0.0
C1331 C 0.5383 0.72239 0.59195 0.0
C1332 C 0.5296 0.67987 0.59422 0.0
C1333 C 0.51408 0.67527 0.63546 0.0
C1334 C 0.50948 0.69392 0.65272 0.0
C1335 C 0.52145 0.71721 0.63032 0.0
C1336 C 0.5344 0.66021 0.57386 0.0
C1337 C 0.49339 0.68988 0.69706 0.0
H1338 H 0.45596 0.59277 0.66507 0.0
H1339 H 0.52343 0.62434 0.74756 0.0
H1340 H 0.4623 0.64893 0.61942 0.0
H1341 H 0.47402 0.63591 0.5761 0.0
H1342 H 0.44654 0.61596 0.61055 0.0
H1343 H 0.55256 0.6667 0.74522 0.0
H1344 H 0.55712 0.67631 0.68188 0.0
H1345 H 0.54233 0.68722 0.72283 0.0
H1346 H 0.55479 0.70749 0.54359 0.0
H1347 H 0.51886 0.73184 0.6451 0.0
H1348 H 0.51677 0.6427 0.56846 0.0
H1349 H 0.54559 0.65651 0.60042 0.0
H1350 H 0.54444 0.66577 0.5383 0.0
H1351 H 0.47558 0.67239 0.69354 0.0
H1352 H 0.48958 0.70525 0.70259 0.0
H1353 H 0.50273 0.68832 0.73037 0.0
C1354 C 0.29705 0.84855 0.60026 0.0
C1355 C 0.28322 0.82277 0.59723 0.0
C1356 C 0.32082 0.86043 0.62054 0.0
C1357 C 0.33093 0.84615 0.63851 0.0
C1358 C 0.31731 0.82013 0.63441 0.0
C1359 C 0.29361 0.80873 0.61362 0.0
C1360 C 0.3349 0.88825 0.62373 0.0
C1361 C 0.3275 0.80432 0.65321 0.0
C1362 C 0.40034 0.88099 0.6544 0.0
C1363 C 0.40276 0.88768 0.70415 0.0
C1364 C 0.37705 0.8666 0.63296 0.0
C1365 C 0.35567 0.85863 0.66204 0.0
C1366 C 0.35801 0.86428 0.71287 0.0
C1367 C 0.38158 0.8788 0.73336 0.0
C1368 C 0.37534 0.86097 0.57867 0.0
C1369 C 0.33559 0.85591 0.74512 0.0
H1370 H 0.2891 0.85948 0.58765 0.0
H1371 H 0.28291 0.78877 0.61162 0.0
H1372 H 0.33852 0.89406 0.66277 0.0
H1373 H 0.35304 0.8957 0.60524 0.0
H1374 H 0.32473 0.89666 0.60663 0.0
H1375 H 0.315 0.78442 0.64545 0.0
H1376 H 0.34571 0.81014 0.63624 0.0
H1377 H 0.3304 0.80682 0.69348 0.0
H1378 H 0.41667 0.88773 0.63163 0.0
H1379 H 0.38337 0.88389 0.77184 0.0
H1380 H 0.36722 0.87083 0.55931 0.0
H1381 H 0.363 0.84096 0.57209 0.0
H1382 H 0.39366 0.86665 0.5622 0.0
H1383 H 0.32542 0.8654 0.73378 0.0
H1384 H 0.34053 0.85993 0.78457 0.0
H1385 H 0.32284 0.8358 0.74073 0.0
loop_
_geom_bond_atom_site_label_1
_geom_bond_atom_site_label_2
_geom_bond_distance
_geom_bond_site_symmetry_2
_ccdc_geom_bond_type
In0 O1 2.294 . S
In0 O2 2.326 . S
In0 O6 2.266 . S
In0 O7 2.326 1_554 S
In0 O8 2.266 . S
In0 O9 2.326 . S
In0 O11 2.294 . S
In0 O12 2.326 . S
O1 In0 2.294 . S
O1 C10 1.240 . S
O2 In0 2.326 . S
O2 C10 1.252 . S
C3 O6 1.252 1_556 S
C3 O7 1.260 . S
C4 O11 1.240 . S
C4 O12 1.252 . S
C5 O8 1.252 . S
C5 O9 1.260 . S
O6 In0 2.266 . S
O6 C3 1.252 1_554 S
O7 In0 2.326 1_556 S
O7 C3 1.260 . S
O8 In0 2.266 . S
O8 C5 1.252 . S
O9 In0 2.326 . S
O9 C5 1.260 . S
C10 O1 1.240 . S
C10 O2 1.252 . S
O11 In0 2.294 . S
O11 C4 1.240 . S
O12 In0 2.326 . S
O12 C4 1.252 . S
In13 O14 2.294 . S
In13 O15 2.326 . S
In13 O19 2.266 . S
In13 O20 2.326 . S
In13 O21 2.266 . S
In13 O22 2.326 1_554 S
In13 O24 2.294 . S
In13 O25 2.326 . S
O14 In13 2.294 . S
O14 C23 1.240 . S
O15 In13 2.326 . S
O15 C23 1.252 . S
C16 O19 1.252 . S
C16 O20 1.260 . S
C17 O24 1.240 . S
C17 O25 1.252 . S
C18 O21 1.252 1_556 S
C18 O22 1.260 . S
O19 In13 2.266 . S
O19 C16 1.252 . S
O20 In13 2.326 . S
O20 C16 1.260 . S
O21 In13 2.266 . S
O21 C18 1.252 1_554 S
O22 In13 2.326 1_556 S
O22 C18 1.260 . S
C23 O14 1.240 . S
C23 O15 1.252 . S
O24 In13 2.294 . S
O24 C17 1.240 . S
O25 In13 2.326 . S
O25 C17 1.252 . S
In26 O27 2.294 . S
In26 O28 2.326 . S
In26 O32 2.266 . S
In26 O33 2.326 . S
In26 O34 2.266 . S
In26 O35 2.326 1_554 S
In26 O37 2.294 . S
In26 O38 2.326 . S
O27 In26 2.294 . S
O27 C36 1.240 . S
O28 In26 2.326 . S
O28 C36 1.252 . S
C29 O32 1.252 . S
C29 O33 1.260 . S
C30 O37 1.240 . S
C30 O38 1.252 . S
C31 O34 1.252 1_556 S
C31 O35 1.260 . S
O32 In26 2.266 . S
O32 C29 1.252 . S
O33 In26 2.326 . S
O33 C29 1.260 . S
O34 In26 2.266 . S
O34 C31 1.252 1_554 S
O35 In26 2.326 1_556 S
O35 C31 1.260 . S
C36 O27 1.240 . S
C36 O28 1.252 . S
O37 In26 2.294 . S
O37 C30 1.240 . S
O38 In26 2.326 . S
O38 C30 1.252 . S
In39 O40 2.294 . S
In39 O41 2.326 . S
In39 O45 2.266 . S
In39 O46 2.326 1_556 S
In39 O47 2.266 . S
In39 O48 2.326 . S
In39 O50 2.294 . S
In39 O51 2.326 . S
O40 In39 2.294 . S
O40 C49 1.240 . S
O41 In39 2.326 . S
O41 C49 1.252 . S
C42 O45 1.252 1_554 S
C42 O46 1.260 . S
C43 O50 1.240 . S
C43 O51 1.252 . S
C44 O47 1.252 . S
C44 O48 1.260 . S
O45 In39 2.266 . S
O45 C42 1.252 1_556 S
O46 In39 2.326 1_554 S
O46 C42 1.260 . S
O47 In39 2.266 . S
O47 C44 1.252 . S
O48 In39 2.326 . S
O48 C44 1.260 . S
C49 O40 1.240 . S
C49 O41 1.252 . S
O50 In39 2.294 . S
O50 C43 1.240 . S
O51 In39 2.326 . S
O51 C43 1.252 . S
In52 O53 2.294 . S
In52 O54 2.326 . S
In52 O58 2.266 . S
In52 O59 2.326 1_556 S
In52 O60 2.266 . S
In52 O61 2.326 . S
In52 O63 2.294 . S
In52 O64 2.326 . S
O53 In52 2.294 . S
O53 C62 1.240 . S
O54 In52 2.326 . S
O54 C62 1.252 . S
C55 O58 1.252 1_554 S
C55 O59 1.260 . S
C56 O63 1.240 . S
C56 O64 1.252 . S
C57 O60 1.252 . S
C57 O61 1.260 . S
O58 In52 2.266 . S
O58 C55 1.252 1_556 S
O59 In52 2.326 1_554 S
O59 C55 1.260 . S
O60 In52 2.266 . S
O60 C57 1.252 . S
O61 In52 2.326 . S
O61 C57 1.260 . S
C62 O53 1.240 . S
C62 O54 1.252 . S
O63 In52 2.294 . S
O63 C56 1.240 . S
O64 In52 2.326 . S
O64 C56 1.252 . S
In65 O66 2.294 . S
In65 O67 2.326 . S
In65 O71 2.266 . S
In65 O72 2.326 . S
In65 O73 2.266 . S
In65 O74 2.326 1_556 S
In65 O76 2.294 . S
In65 O77 2.326 . S
O66 In65 2.294 . S
O66 C75 1.240 . S
O67 In65 2.326 . S
O67 C75 1.252 . S
C68 O71 1.252 . S
C68 O72 1.260 . S
C69 O76 1.240 . S
C69 O77 1.252 . S
C70 O73 1.252 1_554 S
C70 O74 1.260 . S
O71 In65 2.266 . S
O71 C68 1.252 . S
O72 In65 2.326 . S
O72 C68 1.260 . S
O73 In65 2.266 . S
O73 C70 1.252 1_556 S
O74 In65 2.326 1_554 S
O74 C70 1.260 . S
C75 O66 1.240 . S
C75 O67 1.252 . S
O76 In65 2.294 . S
O76 C69 1.240 . S
O77 In65 2.326 . S
O77 C69 1.252 . S
In78 O79 2.294 . S
In78 O80 2.326 . S
In78 O84 2.266 . S
In78 O85 2.326 . S
In78 O86 2.266 . S
In78 O87 2.326 . S
In78 O89 2.294 . S
In78 O90 2.326 . S
O79 In78 2.294 . S
O79 C88 1.240 . S
O80 In78 2.326 . S
O80 C88 1.252 . S
C81 O84 1.252 . S
C81 O85 1.260 . S
C82 O89 1.240 . S
C82 O90 1.252 . S
C83 O86 1.252 . S
C83 O87 1.260 . S
O84 In78 2.266 . S
O84 C81 1.252 . S
O85 In78 2.326 . S
O85 C81 1.260 . S
O86 In78 2.266 . S
O86 C83 1.252 . S
O87 In78 2.326 . S
O87 C83 1.260 . S
C88 O79 1.240 . S
C88 O80 1.252 . S
O89 In78 2.294 . S
O89 C82 1.240 . S
O90 In78 2.326 . S
O90 C82 1.252 . S
In91 O92 2.294 . S
In91 O93 2.326 . S
In91 O97 2.266 . S
In91 O98 2.326 . S
In91 O99 2.266 . S
In91 O100 2.326 . S
In91 O102 2.294 . S
In91 O103 2.326 . S
O92 In91 2.294 . S
O92 C101 1.240 . S
O93 In91 2.326 . S
O93 C101 1.252 . S
C94 O97 1.252 . S
C94 O98 1.260 . S
C95 O102 1.240 . S
C95 O103 1.252 . S
C96 O99 1.252 . S
C96 O100 1.260 . S
O97 In91 2.266 . S
O97 C94 1.252 . S
O98 In91 2.326 . S
O98 C94 1.260 . S
O99 In91 2.266 . S
O99 C96 1.252 . S
O100 In91 2.326 . S
O100 C96 1.260 . S
C101 O92 1.240 . S
C101 O93 1.252 . S
O102 In91 2.294 . S
O102 C95 1.240 . S
O103 In91 2.326 . S
O103 C95 1.252 . S
In104 O105 2.294 . S
In104 O106 2.326 . S
In104 O110 2.266 . S
In104 O111 2.326 . S
In104 O112 2.266 . S
In104 O113 2.326 . S
In104 O115 2.294 . S
In104 O116 2.326 . S
O105 In104 2.294 . S
O105 C114 1.240 . S
O106 In104 2.326 . S
O106 C114 1.252 . S
C107 O110 1.252 . S
C107 O111 1.260 . S
C108 O115 1.240 . S
C108 O116 1.252 . S
C109 O112 1.252 . S
C109 O113 1.260 . S
O110 In104 2.266 . S
O110 C107 1.252 . S
O111 In104 2.326 . S
O111 C107 1.260 . S
O112 In104 2.266 . S
O112 C109 1.252 . S
O113 In104 2.326 . S
O113 C109 1.260 . S
C114 O105 1.240 . S
C114 O106 1.252 . S
O115 In104 2.294 . S
O115 C108 1.240 . S
O116 In104 2.326 . S
O116 C108 1.252 . S
In117 O118 2.294 . S
In117 O119 2.326 . S
In117 O123 2.266 . S
In117 O124 2.326 . S
In117 O125 2.266 . S
In117 O126 2.326 . S
In117 O128 2.294 . S
In117 O129 2.326 . S
O118 In117 2.294 . S
O118 C127 1.240 . S
O119 In117 2.326 . S
O119 C127 1.252 . S
C120 O123 1.252 . S
C120 O124 1.260 . S
C121 O128 1.240 . S
C121 O129 1.252 . S
C122 O125 1.252 . S
C122 O126 1.260 . S
O123 In117 2.266 . S
O123 C120 1.252 . S
O124 In117 2.326 . S
O124 C120 1.260 . S
O125 In117 2.266 . S
O125 C122 1.252 . S
O126 In117 2.326 . S
O126 C122 1.260 . S
C127 O118 1.240 . S
C127 O119 1.252 . S
O128 In117 2.294 . S
O128 C121 1.240 . S
O129 In117 2.326 . S
O129 C121 1.252 . S
In130 O131 2.294 . S
In130 O132 2.326 . S
In130 O136 2.266 . S
In130 O137 2.326 . S
In130 O138 2.266 . S
In130 O139 2.326 . S
In130 O141 2.294 . S
In130 O142 2.326 . S
O131 In130 2.294 . S
O131 C140 1.240 . S
O132 In130 2.326 . S
O132 C140 1.252 . S
C133 O136 1.252 . S
C133 O137 1.260 . S
C134 O141 1.240 . S
C134 O142 1.252 . S
C135 O138 1.252 . S
C135 O139 1.260 . S
O136 In130 2.266 . S
O136 C133 1.252 . S
O137 In130 2.326 . S
O137 C133 1.260 . S
O138 In130 2.266 . S
O138 C135 1.252 . S
O139 In130 2.326 . S
O139 C135 1.260 . S
C140 O131 1.240 . S
C140 O132 1.252 . S
O141 In130 2.294 . S
O141 C134 1.240 . S
O142 In130 2.326 . S
O142 C134 1.252 . S
In143 O144 2.294 . S
In143 O145 2.326 . S
In143 O149 2.266 . S
In143 O150 2.326 . S
In143 O151 2.266 . S
In143 O152 2.326 . S
In143 O154 2.294 . S
In143 O155 2.326 . S
O144 In143 2.294 . S
O144 C153 1.240 . S
O145 In143 2.326 . S
O145 C153 1.252 . S
C146 O149 1.252 . S
C146 O150 1.260 . S
C147 O154 1.240 . S
C147 O155 1.252 . S
C148 O151 1.252 . S
C148 O152 1.260 . S
O149 In143 2.266 . S
O149 C146 1.252 . S
O150 In143 2.326 . S
O150 C146 1.260 . S
O151 In143 2.266 . S
O151 C148 1.252 . S
O152 In143 2.326 . S
O152 C148 1.260 . S
C153 O144 1.240 . S
C153 O145 1.252 . S
O154 In143 2.294 . S
O154 C147 1.240 . S
O155 In143 2.326 . S
O155 C147 1.252 . S
In156 O157 2.294 . S
In156 O158 2.326 . S
In156 O162 2.266 . S
In156 O163 2.326 . S
In156 O164 2.266 . S
In156 O165 2.326 . S
In156 O167 2.294 . S
In156 O168 2.326 . S
O157 In156 2.294 . S
O157 C166 1.240 . S
O158 In156 2.326 . S
O158 C166 1.252 . S
C159 O162 1.252 . S
C159 O163 1.260 . S
C160 O167 1.240 . S
C160 O168 1.252 . S
C161 O164 1.252 . S
C161 O165 1.260 . S
O162 In156 2.266 . S
O162 C159 1.252 . S
O163 In156 2.326 . S
O163 C159 1.260 . S
O164 In156 2.266 . S
O164 C161 1.252 . S
O165 In156 2.326 . S
O165 C161 1.260 . S
C166 O157 1.240 . S
C166 O158 1.252 . S
O167 In156 2.294 . S
O167 C160 1.240 . S
O168 In156 2.326 . S
O168 C160 1.252 . S
In169 O170 2.294 . S
In169 O171 2.326 . S
In169 O175 2.266 . S
In169 O176 2.326 . S
In169 O177 2.266 . S
In169 O178 2.326 . S
In169 O180 2.294 . S
In169 O181 2.326 . S
O170 In169 2.294 . S
O170 C179 1.240 . S
O171 In169 2.326 . S
O171 C179 1.252 . S
C172 O175 1.252 . S
C172 O176 1.260 . S
C173 O180 1.240 . S
C173 O181 1.252 . S
C174 O177 1.252 . S
C174 O178 1.260 . S
O175 In169 2.266 . S
O175 C172 1.252 . S
O176 In169 2.326 . S
O176 C172 1.260 . S
O177 In169 2.266 . S
O177 C174 1.252 . S
O178 In169 2.326 . S
O178 C174 1.260 . S
C179 O170 1.240 . S
C179 O171 1.252 . S
O180 In169 2.294 . S
O180 C173 1.240 . S
O181 In169 2.326 . S
O181 C173 1.252 . S
In182 O183 2.294 . S
In182 O184 2.326 . S
In182 O188 2.266 . S
In182 O189 2.326 . S
In182 O190 2.266 . S
In182 O191 2.326 . S
In182 O193 2.294 . S
In182 O194 2.326 . S
O183 In182 2.294 . S
O183 C192 1.240 . S
O184 In182 2.326 . S
O184 C192 1.252 . S
C185 O188 1.252 . S
C185 O189 1.260 . S
C186 O193 1.240 . S
C186 O194 1.252 . S
C187 O190 1.252 . S
C187 O191 1.260 . S
O188 In182 2.266 . S
O188 C185 1.252 . S
O189 In182 2.326 . S
O189 C185 1.260 . S
O190 In182 2.266 . S
O190 C187 1.252 . S
O191 In182 2.326 . S
O191 C187 1.260 . S
C192 O183 1.240 . S
C192 O184 1.252 . S
O193 In182 2.294 . S
O193 C186 1.240 . S
O194 In182 2.326 . S
O194 C186 1.252 . S
In195 O196 2.294 . S
In195 O197 2.326 . S
In195 O201 2.266 . S
In195 O202 2.326 . S
In195 O203 2.266 . S
In195 O204 2.326 . S
In195 O206 2.294 . S
In195 O207 2.326 . S
O196 In195 2.294 . S
O196 C205 1.240 . S
O197 In195 2.326 . S
O197 C205 1.252 . S
C198 O201 1.252 . S
C198 O202 1.260 . S
C199 O206 1.240 . S
C199 O207 1.252 . S
C200 O203 1.252 . S
C200 O204 1.260 . S
O201 In195 2.266 . S
O201 C198 1.252 . S
O202 In195 2.326 . S
O202 C198 1.260 . S
O203 In195 2.266 . S
O203 C200 1.252 . S
O204 In195 2.326 . S
O204 C200 1.260 . S
C205 O196 1.240 . S
C205 O197 1.252 . S
O206 In195 2.294 . S
O206 C199 1.240 . S
O207 In195 2.326 . S
O207 C199 1.252 . S
In208 O209 2.294 . S
In208 O210 2.326 . S
In208 O214 2.266 . S
In208 O215 2.326 . S
In208 O216 2.266 . S
In208 O217 2.326 . S
In208 O219 2.294 . S
In208 O220 2.326 . S
O209 In208 2.294 . S
O209 C218 1.240 . S
O210 In208 2.326 . S
O210 C218 1.252 . S
C211 O214 1.252 . S
C211 O215 1.260 . S
C212 O219 1.240 . S
C212 O220 1.252 . S
C213 O216 1.252 . S
C213 O217 1.260 . S
O214 In208 2.266 . S
O214 C211 1.252 . S
O215 In208 2.326 . S
O215 C211 1.260 . S
O216 In208 2.266 . S
O216 C213 1.252 . S
O217 In208 2.326 . S
O217 C213 1.260 . S
C218 O209 1.240 . S
C218 O210 1.252 . S
O219 In208 2.294 . S
O219 C212 1.240 . S
O220 In208 2.326 . S
O220 C212 1.252 . S
In221 O222 2.294 . S
In221 O223 2.326 . S
In221 O227 2.266 . S
In221 O228 2.326 . S
In221 O229 2.266 . S
In221 O230 2.326 . S
In221 O232 2.294 . S
In221 O233 2.326 . S
O222 In221 2.294 . S
O222 C231 1.240 . S
O223 In221 2.326 . S
O223 C231 1.252 . S
C224 O227 1.252 . S
C224 O228 1.260 . S
C225 O232 1.240 . S
C225 O233 1.252 . S
C226 O229 1.252 . S
C226 O230 1.260 . S
O227 In221 2.266 . S
O227 C224 1.252 . S
O228 In221 2.326 . S
O228 C224 1.260 . S
O229 In221 2.266 . S
O229 C226 1.252 . S
O230 In221 2.326 . S
O230 C226 1.260 . S
C231 O222 1.240 . S
C231 O223 1.252 . S
O232 In221 2.294 . S
O232 C225 1.240 . S
O233 In221 2.326 . S
O233 C225 1.252 . S
C234 C235 1.391 . S
C234 C236 1.394 . S
C234 H250 0.931 . S
C235 C234 1.391 . S
C235 C239 1.376 . S
C236 C234 1.394 . S
C236 C237 1.369 . S
C236 C240 1.531 . S
C237 C236 1.369 . S
C237 C238 1.410 . S
C237 C245 1.503 . S
C238 C237 1.410 . S
C238 C239 1.392 . S
C238 C241 1.511 . S
C239 C235 1.376 . S
C239 C238 1.392 . S
C239 H251 0.929 . S
C240 C236 1.531 . S
C240 H252 0.960 . S
C240 H253 0.962 . S
C240 H254 0.960 . S
C241 C238 1.511 . S
C241 H255 0.961 . S
C241 H256 0.961 . S
C241 H257 0.961 . S
C242 C243 1.370 . S
C242 C244 1.363 . S
C242 H258 0.931 . S
C243 C242 1.370 . S
C243 C247 1.408 . S
C244 C242 1.363 . S
C244 C245 1.370 . S
C244 C248 1.524 . S
C245 C237 1.503 . S
C245 C244 1.370 . S
C245 C246 1.403 . S
C246 C245 1.403 . S
C246 C247 1.404 . S
C246 C249 1.539 . S
C247 C243 1.408 . S
C247 C246 1.404 . S
C247 H259 0.930 . S
C248 C244 1.524 . S
C248 H260 0.956 . S
C248 H261 0.961 . S
C248 H262 0.961 . S
C249 C246 1.539 . S
C249 H263 0.958 . S
C249 H264 0.961 . S
C249 H265 0.960 . S
H250 C234 0.931 . S
H251 C239 0.929 . S
H252 C240 0.960 . S
H253 C240 0.962 . S
H254 C240 0.960 . S
H255 C241 0.961 . S
H256 C241 0.961 . S
H257 C241 0.961 . S
H258 C242 0.931 . S
H259 C247 0.930 . S
H260 C248 0.956 . S
H261 C248 0.961 . S
H262 C248 0.961 . S
H263 C249 0.958 . S
H264 C249 0.961 . S
H265 C249 0.960 . S
C266 C267 1.391 . S
C266 C268 1.394 . S
C266 H282 0.931 . S
C267 C266 1.391 . S
C267 C271 1.376 . S
C268 C266 1.394 . S
C268 C269 1.369 . S
C268 C272 1.531 . S
C269 C268 1.369 . S
C269 C270 1.410 . S
C269 C277 1.503 . S
C270 C269 1.410 . S
C270 C271 1.392 . S
C270 C273 1.511 . S
C271 C267 1.376 . S
C271 C270 1.392 . S
C271 H283 0.929 . S
C272 C268 1.531 . S
C272 H284 0.960 . S
C272 H285 0.962 . S
C272 H286 0.960 . S
C273 C270 1.511 . S
C273 H287 0.961 . S
C273 H288 0.961 . S
C273 H289 0.961 . S
C274 C275 1.370 . S
C274 C276 1.363 . S
C274 H290 0.931 . S
C275 C274 1.370 . S
C275 C279 1.408 . S
C276 C274 1.363 . S
C276 C277 1.370 . S
C276 C280 1.524 . S
C277 C269 1.503 . S
C277 C276 1.370 . S
C277 C278 1.403 . S
C278 C277 1.403 . S
C278 C279 1.404 . S
C278 C281 1.539 . S
C279 C275 1.408 . S
C279 C278 1.404 . S
C279 H291 0.930 . S
C280 C276 1.524 . S
C280 H292 0.956 . S
C280 H293 0.961 . S
C280 H294 0.961 . S
C281 C278 1.539 . S
C281 H295 0.958 . S
C281 H296 0.961 . S
C281 H297 0.960 . S
H282 C266 0.931 . S
H283 C271 0.929 . S
H284 C272 0.960 . S
H285 C272 0.962 . S
H286 C272 0.960 . S
H287 C273 0.961 . S
H288 C273 0.961 . S
H289 C273 0.961 . S
H290 C274 0.931 . S
H291 C279 0.930 . S
H292 C280 0.956 . S
H293 C280 0.961 . S
H294 C280 0.961 . S
H295 C281 0.958 . S
H296 C281 0.961 . S
H297 C281 0.960 . S
C298 C299 1.391 . S
C298 C300 1.394 . S
C298 H314 0.931 . S
C299 C298 1.391 . S
C299 C303 1.376 . S
C300 C298 1.394 . S
C300 C301 1.369 . S
C300 C304 1.531 . S
C301 C300 1.369 . S
C301 C302 1.410 . S
C301 C309 1.503 . S
C302 C301 1.410 . S
C302 C303 1.392 . S
C302 C305 1.511 . S
C303 C299 1.376 . S
C303 C302 1.392 . S
C303 H315 0.929 . S
C304 C300 1.531 . S
C304 H316 0.960 . S
C304 H317 0.962 . S
C304 H318 0.960 . S
C305 C302 1.511 . S
C305 H319 0.961 . S
C305 H320 0.961 . S
C305 H321 0.961 . S
C306 C307 1.370 . S
C306 C308 1.363 . S
C306 H322 0.931 . S
C307 C306 1.370 . S
C307 C311 1.408 . S
C308 C306 1.363 . S
C308 C309 1.370 . S
C308 C312 1.524 . S
C309 C301 1.503 . S
C309 C308 1.370 . S
C309 C310 1.403 . S
C310 C309 1.403 . S
C310 C311 1.404 . S
C310 C313 1.539 . S
C311 C307 1.408 . S
C311 C310 1.404 . S
C311 H323 0.930 . S
C312 C308 1.524 . S
C312 H324 0.956 . S
C312 H325 0.961 . S
C312 H326 0.961 . S
C313 C310 1.539 . S
C313 H327 0.958 . S
C313 H328 0.961 . S
C313 H329 0.960 . S
H314 C298 0.931 . S
H315 C303 0.929 . S
H316 C304 0.960 . S
H317 C304 0.962 . S
H318 C304 0.960 . S
H319 C305 0.961 . S
H320 C305 0.961 . S
H321 C305 0.961 . S
H322 C306 0.931 . S
H323 C311 0.930 . S
H324 C312 0.956 . S
H325 C312 0.961 . S
H326 C312 0.961 . S
H327 C313 0.958 . S
H328 C313 0.961 . S
H329 C313 0.960 . S
C330 C331 1.391 . S
C330 C332 1.394 . S
C330 H346 0.931 . S
C331 C330 1.391 . S
C331 C335 1.376 . S
C332 C330 1.394 . S
C332 C333 1.369 . S
C332 C336 1.531 . S
C333 C332 1.369 . S
C333 C334 1.410 . S
C333 C341 1.503 . S
C334 C333 1.410 . S
C334 C335 1.392 . S
C334 C337 1.511 . S
C335 C331 1.376 . S
C335 C334 1.392 . S
C335 H347 0.929 . S
C336 C332 1.531 . S
C336 H348 0.960 . S
C336 H349 0.962 . S
C336 H350 0.960 . S
C337 C334 1.511 . S
C337 H351 0.961 . S
C337 H352 0.961 . S
C337 H353 0.961 . S
C338 C339 1.370 . S
C338 C340 1.363 . S
C338 H354 0.931 . S
C339 C338 1.370 . S
C339 C343 1.408 . S
C340 C338 1.363 . S
C340 C341 1.370 . S
C340 C344 1.524 . S
C341 C333 1.503 . S
C341 C340 1.370 . S
C341 C342 1.403 . S
C342 C341 1.403 . S
C342 C343 1.404 . S
C342 C345 1.539 . S
C343 C339 1.408 . S
C343 C342 1.404 . S
C343 H355 0.930 . S
C344 C340 1.524 . S
C344 H356 0.956 . S
C344 H357 0.961 . S
C344 H358 0.961 . S
C345 C342 1.539 . S
C345 H359 0.958 . S
C345 H360 0.961 . S
C345 H361 0.960 . S
H346 C330 0.931 . S
H347 C335 0.929 . S
H348 C336 0.960 . S
H349 C336 0.962 . S
H350 C336 0.960 . S
H351 C337 0.961 . S
H352 C337 0.961 . S
H353 C337 0.961 . S
H354 C338 0.931 . S
H355 C343 0.930 . S
H356 C344 0.956 . S
H357 C344 0.961 . S
H358 C344 0.961 . S
H359 C345 0.958 . S
H360 C345 0.961 . S
H361 C345 0.960 . S
C362 C363 1.391 . S
C362 C364 1.394 . S
C362 H378 0.931 . S
C363 C362 1.391 . S
C363 C367 1.376 . S
C364 C362 1.394 . S
C364 C365 1.369 . S
C364 C368 1.531 . S
C365 C364 1.369 . S
C365 C366 1.410 . S
C365 C373 1.503 . S
C366 C365 1.410 . S
C366 C367 1.392 . S
C366 C369 1.511 . S
C367 C363 1.376 . S
C367 C366 1.392 . S
C367 H379 0.929 . S
C368 C364 1.531 . S
C368 H380 0.960 . S
C368 H381 0.962 . S
C368 H382 0.960 . S
C369 C366 1.511 . S
C369 H383 0.961 . S
C369 H384 0.961 . S
C369 H385 0.961 . S
C370 C371 1.370 . S
C370 C372 1.363 . S
C370 H386 0.931 . S
C371 C370 1.370 . S
C371 C375 1.408 . S
C372 C370 1.363 . S
C372 C373 1.370 . S
C372 C376 1.524 . S
C373 C365 1.503 . S
C373 C372 1.370 . S
C373 C374 1.403 . S
C374 C373 1.403 . S
C374 C375 1.404 . S
C374 C377 1.539 . S
C375 C371 1.408 . S
C375 C374 1.404 . S
C375 H387 0.930 . S
C376 C372 1.524 . S
C376 H388 0.956 . S
C376 H389 0.961 . S
C376 H390 0.961 . S
C377 C374 1.539 . S
C377 H391 0.958 . S
C377 H392 0.961 . S
C377 H393 0.960 . S
H378 C362 0.931 . S
H379 C367 0.929 . S
H380 C368 0.960 . S
H381 C368 0.962 . S
H382 C368 0.960 . S
H383 C369 0.961 . S
H384 C369 0.961 . S
H385 C369 0.961 . S
H386 C370 0.931 . S
H387 C375 0.930 . S
H388 C376 0.956 . S
H389 C376 0.961 . S
H390 C376 0.961 . S
H391 C377 0.958 . S
H392 C377 0.961 . S
H393 C377 0.960 . S
C394 C395 1.391 . S
C394 C396 1.394 . S
C394 H410 0.931 . S
C395 C394 1.391 . S
C395 C399 1.376 . S
C396 C394 1.394 . S
C396 C397 1.369 . S
C396 C400 1.531 . S
C397 C396 1.369 . S
C397 C398 1.410 . S
C397 C405 1.503 . S
C398 C397 1.410 . S
C398 C399 1.392 . S
C398 C401 1.511 . S
C399 C395 1.376 . S
C399 C398 1.392 . S
C399 H411 0.929 . S
C400 C396 1.531 . S
C400 H412 0.960 . S
C400 H413 0.962 . S
C400 H414 0.960 . S
C401 C398 1.511 . S
C401 H415 0.961 . S
C401 H416 0.961 . S
C401 H417 0.961 . S
C402 C403 1.370 . S
C402 C404 1.363 . S
C402 H418 0.931 . S
C403 C402 1.370 . S
C403 C407 1.408 . S
C404 C402 1.363 . S
C404 C405 1.370 . S
C404 C408 1.524 . S
C405 C397 1.503 . S
C405 C404 1.370 . S
C405 C406 1.403 . S
C406 C405 1.403 . S
C406 C407 1.404 . S
C406 C409 1.539 . S
C407 C403 1.408 . S
C407 C406 1.404 . S
C407 H419 0.930 . S
C408 C404 1.524 . S
C408 H420 0.956 . S
C408 H421 0.961 . S
C408 H422 0.961 . S
C409 C406 1.539 . S
C409 H423 0.958 . S
C409 H424 0.961 . S
C409 H425 0.960 . S
H410 C394 0.931 . S
H411 C399 0.929 . S
H412 C400 0.960 . S
H413 C400 0.962 . S
H414 C400 0.960 . S
H415 C401 0.961 . S
H416 C401 0.961 . S
H417 C401 0.961 . S
H418 C402 0.931 . S
H419 C407 0.930 . S
H420 C408 0.956 . S
H421 C408 0.961 . S
H422 C408 0.961 . S
H423 C409 0.958 . S
H424 C409 0.961 . S
H425 C409 0.960 . S
C426 C427 1.391 . S
C426 C428 1.394 . S
C426 H442 0.931 . S
C427 C426 1.391 . S
C427 C431 1.376 . S
C428 C426 1.394 . S
C428 C429 1.369 . S
C428 C432 1.501 1_655 S
C429 C428 1.369 . S
C429 C430 1.410 . S
C429 C437 1.504 1_554 S
C430 C429 1.410 . S
C430 C431 1.392 . S
C430 C433 1.511 . S
C431 C427 1.376 . S
C431 C430 1.392 . S
C431 H443 0.929 . S
C432 C428 1.501 1_455 S
C432 H444 0.953 1_454 S
C432 H445 0.999 . S
C432 H446 0.962 1_455 S
C433 C430 1.511 . S
C433 H447 0.961 . S
C433 H448 0.961 1_554 S
C433 H449 0.961 1_554 S
C434 C435 1.370 . S
C434 C436 1.363 . S
C434 H450 0.931 . S
C435 C434 1.370 . S
C435 C439 1.408 1_455 S
C436 C434 1.363 . S
C436 C437 1.370 1_455 S
C436 C440 1.524 1_556 S
C437 C429 1.504 1_556 S
C437 C436 1.370 1_655 S
C437 C438 1.403 . S
C438 C437 1.403 . S
C438 C439 1.404 . S
C438 C441 1.539 . S
C439 C435 1.408 1_655 S
C439 C438 1.404 . S
C439 H451 0.930 . S
C440 C436 1.524 1_554 S
C440 H452 0.956 . S
C440 H453 0.961 . S
C440 H454 0.961 1_554 S
C441 C438 1.539 . S
C441 H455 0.958 . S
C441 H456 0.961 . S
C441 H457 0.960 . S
H442 C426 0.931 . S
H443 C431 0.929 . S
H444 C432 0.953 1_656 S
H445 C432 0.999 . S
H446 C432 0.962 1_655 S
H447 C433 0.961 . S
H448 C433 0.961 1_556 S
H449 C433 0.961 1_556 S
H450 C434 0.931 . S
H451 C439 0.930 . S
H452 C440 0.956 . S
H453 C440 0.961 . S
H454 C440 0.961 1_556 S
H455 C441 0.958 . S
H456 C441 0.961 . S
H457 C441 0.960 . S
C458 C459 1.391 . S
C458 C460 1.394 . S
C458 H474 0.931 . S
C459 C458 1.391 . S
C459 C463 1.376 . S
C460 C458 1.394 . S
C460 C461 1.369 . S
C460 C464 1.531 1_554 S
C461 C460 1.369 . S
C461 C462 1.410 . S
C461 C469 1.503 1_554 S
C462 C461 1.410 . S
C462 C463 1.392 . S
C462 C465 1.511 . S
C463 C459 1.376 . S
C463 C462 1.392 . S
C463 H475 0.929 . S
C464 C460 1.531 1_556 S
C464 H476 0.960 . S
C464 H477 0.962 . S
C464 H478 0.960 1_556 S
C465 C462 1.511 . S
C465 H479 0.961 . S
C465 H480 0.961 . S
C465 H481 0.961 . S
C466 C467 1.370 . S
C466 C468 1.363 . S
C466 H482 0.931 . S
C467 C466 1.370 . S
C467 C471 1.408 . S
C468 C466 1.363 . S
C468 C469 1.370 . S
C468 C472 1.524 . S
C469 C461 1.503 1_556 S
C469 C468 1.370 . S
C469 C470 1.403 . S
C470 C469 1.403 . S
C470 C471 1.404 . S
C470 C473 1.539 . S
C471 C467 1.408 . S
C471 C470 1.404 . S
C471 H483 0.930 . S
C472 C468 1.524 . S
C472 H484 0.956 . S
C472 H485 0.961 1_556 S
C472 H486 0.961 . S
C473 C470 1.539 . S
C473 H487 0.958 . S
C473 H488 0.961 . S
C473 H489 0.960 1_556 S
H474 C458 0.931 . S
H475 C463 0.929 . S
H476 C464 0.960 . S
H477 C464 0.962 . S
H478 C464 0.960 1_554 S
H479 C465 0.961 . S
H480 C465 0.961 . S
H481 C465 0.961 . S
H482 C466 0.931 . S
H483 C471 0.930 . S
H484 C472 0.956 . S
H485 C472 0.961 1_554 S
H486 C472 0.961 . S
H487 C473 0.958 . S
H488 C473 0.961 . S
H489 C473 0.960 1_554 S
C490 C491 1.391 . S
C490 C492 1.394 . S
C490 H506 0.931 . S
C491 C490 1.391 . S
C491 C495 1.376 . S
C492 C490 1.394 . S
C492 C493 1.369 . S
C492 C496 1.531 1_545 S
C493 C492 1.369 . S
C493 C494 1.410 . S
C493 C501 1.503 1_544 S
C494 C493 1.410 . S
C494 C495 1.392 . S
C494 C497 1.511 . S
C495 C491 1.376 . S
C495 C494 1.392 . S
C495 H507 0.929 . S
C496 C492 1.531 1_565 S
C496 H508 0.960 1_554 S
C496 H509 0.962 . S
C496 H510 0.960 1_565 S
C497 C494 1.511 . S
C497 H511 0.961 . S
C497 H512 0.961 1_554 S
C497 H513 0.961 1_554 S
C498 C499 1.370 . S
C498 C500 1.363 . S
C498 H514 0.931 . S
C499 C498 1.370 . S
C499 C503 1.408 1_565 S
C500 C498 1.363 . S
C500 C501 1.370 . S
C500 C504 1.524 1_556 S
C501 C493 1.503 1_566 S
C501 C500 1.370 . S
C501 C502 1.403 1_565 S
C502 C501 1.403 1_545 S
C502 C503 1.404 . S
C502 C505 1.539 . S
C503 C499 1.408 1_545 S
C503 C502 1.404 . S
C503 H515 0.930 . S
C504 C500 1.524 1_554 S
C504 H516 0.956 . S
C504 H517 0.961 . S
C504 H518 0.961 1_554 S
C505 C502 1.539 . S
C505 H519 0.958 . S
C505 H520 0.961 . S
C505 H521 0.960 . S
H506 C490 0.931 . S
H507 C495 0.929 . S
H508 C496 0.960 1_556 S
H509 C496 0.962 . S
H510 C496 0.960 1_545 S
H511 C497 0.961 . S
H512 C497 0.961 1_556 S
H513 C497 0.961 1_556 S
H514 C498 0.931 . S
H515 C503 0.930 . S
H516 C504 0.956 . S
H517 C504 0.961 . S
H518 C504 0.961 1_556 S
H519 C505 0.958 . S
H520 C505 0.961 . S
H521 C505 0.960 . S
C522 C523 1.391 . S
C522 C524 1.394 . S
C522 H538 0.931 . S
C523 C522 1.391 . S
C523 C527 1.376 . S
C524 C522 1.394 . S
C524 C525 1.369 . S
C524 C528 1.531 . S
C525 C524 1.369 . S
C525 C526 1.410 . S
C525 C533 1.503 . S
C526 C525 1.410 . S
C526 C527 1.392 . S
C526 C529 1.511 . S
C527 C523 1.376 . S
C527 C526 1.392 . S
C527 H539 0.929 . S
C528 C524 1.531 . S
C528 H540 0.960 . S
C528 H541 0.962 . S
C528 H542 0.960 . S
C529 C526 1.511 . S
C529 H543 0.961 . S
C529 H544 0.961 . S
C529 H545 0.961 . S
C530 C531 1.370 . S
C530 C532 1.363 . S
C530 H546 0.931 . S
C531 C530 1.370 . S
C531 C535 1.408 . S
C532 C530 1.363 . S
C532 C533 1.370 . S
C532 C536 1.524 . S
C533 C525 1.503 . S
C533 C532 1.370 . S
C533 C534 1.403 . S
C534 C533 1.403 . S
C534 C535 1.404 . S
C534 C537 1.539 . S
C535 C531 1.408 . S
C535 C534 1.404 . S
C535 H547 0.930 . S
C536 C532 1.524 . S
C536 H548 0.956 . S
C536 H549 0.961 . S
C536 H550 0.961 . S
C537 C534 1.539 . S
C537 H551 0.958 . S
C537 H552 0.961 . S
C537 H553 0.960 . S
H538 C522 0.931 . S
H539 C527 0.929 . S
H540 C528 0.960 . S
H541 C528 0.962 . S
H542 C528 0.960 . S
H543 C529 0.961 . S
H544 C529 0.961 . S
H545 C529 0.961 . S
H546 C530 0.931 . S
H547 C535 0.930 . S
H548 C536 0.956 . S
H549 C536 0.961 . S
H550 C536 0.961 . S
H551 C537 0.958 . S
H552 C537 0.961 . S
H553 C537 0.960 . S
C554 C555 1.391 . S
C554 C556 1.394 . S
C554 H570 0.931 . S
C555 C554 1.391 . S
C555 C559 1.376 . S
C556 C554 1.394 . S
C556 C557 1.369 . S
C556 C560 1.531 . S
C557 C556 1.369 . S
C557 C558 1.410 . S
C557 C565 1.503 . S
C558 C557 1.410 . S
C558 C559 1.392 . S
C558 C561 1.511 . S
C559 C555 1.376 . S
C559 C558 1.392 . S
C559 H571 0.929 . S
C560 C556 1.531 . S
C560 H572 0.960 . S
C560 H573 0.962 . S
C560 H574 0.960 . S
C561 C558 1.511 . S
C561 H575 0.961 . S
C561 H576 0.961 . S
C561 H577 0.961 . S
C562 C563 1.370 . S
C562 C564 1.363 . S
C562 H578 0.931 . S
C563 C562 1.370 . S
C563 C567 1.408 . S
C564 C562 1.363 . S
C564 C565 1.370 . S
C564 C568 1.524 . S
C565 C557 1.503 . S
C565 C564 1.370 . S
C565 C566 1.403 . S
C566 C565 1.403 . S
C566 C567 1.404 . S
C566 C569 1.539 . S
C567 C563 1.408 . S
C567 C566 1.404 . S
C567 H579 0.930 . S
C568 C564 1.524 . S
C568 H580 0.956 . S
C568 H581 0.961 . S
C568 H582 0.961 . S
C569 C566 1.539 . S
C569 H583 0.958 . S
C569 H584 0.961 . S
C569 H585 0.960 . S
H570 C554 0.931 . S
H571 C559 0.929 . S
H572 C560 0.960 . S
H573 C560 0.962 . S
H574 C560 0.960 . S
H575 C561 0.961 . S
H576 C561 0.961 . S
H577 C561 0.961 . S
H578 C562 0.931 . S
H579 C567 0.930 . S
H580 C568 0.956 . S
H581 C568 0.961 . S
H582 C568 0.961 . S
H583 C569 0.958 . S
H584 C569 0.961 . S
H585 C569 0.960 . S
C586 C587 1.391 . S
C586 C588 1.394 . S
C586 H602 0.931 . S
C587 C586 1.391 . S
C587 C591 1.376 . S
C588 C586 1.394 . S
C588 C589 1.369 . S
C588 C592 1.531 . S
C589 C588 1.369 . S
C589 C590 1.410 . S
C589 C597 1.503 . S
C590 C589 1.410 . S
C590 C591 1.392 . S
C590 C593 1.511 . S
C591 C587 1.376 . S
C591 C590 1.392 . S
C591 H603 0.929 . S
C592 C588 1.531 . S
C592 H604 0.960 . S
C592 H605 0.962 . S
C592 H606 0.960 . S
C593 C590 1.511 . S
C593 H607 0.961 . S
C593 H608 0.961 . S
C593 H609 0.961 . S
C594 C595 1.370 . S
C594 C596 1.363 . S
C594 H610 0.931 . S
C595 C594 1.370 . S
C595 C599 1.408 . S
C596 C594 1.363 . S
C596 C597 1.370 . S
C596 C600 1.524 . S
C597 C589 1.503 . S
C597 C596 1.370 . S
C597 C598 1.403 . S
C598 C597 1.403 . S
C598 C599 1.404 . S
C598 C601 1.539 . S
C599 C595 1.408 . S
C599 C598 1.404 . S
C599 H611 0.930 . S
C600 C596 1.524 . S
C600 H612 0.956 . S
C600 H613 0.961 . S
C600 H614 0.961 . S
C601 C598 1.539 . S
C601 H615 0.958 . S
C601 H616 0.961 . S
C601 H617 0.960 . S
H602 C586 0.931 . S
H603 C591 0.929 . S
H604 C592 0.960 . S
H605 C592 0.962 . S
H606 C592 0.960 . S
H607 C593 0.961 . S
H608 C593 0.961 . S
H609 C593 0.961 . S
H610 C594 0.931 . S
H611 C599 0.930 . S
H612 C600 0.956 . S
H613 C600 0.961 . S
H614 C600 0.961 . S
H615 C601 0.958 . S
H616 C601 0.961 . S
H617 C601 0.960 . S
C618 C619 1.391 . S
C618 C620 1.394 . S
C618 H634 0.931 . S
C619 C618 1.391 . S
C619 C623 1.376 . S
C620 C618 1.394 . S
C620 C621 1.369 . S
C620 C624 1.531 . S
C621 C620 1.369 . S
C621 C622 1.410 . S
C621 C629 1.503 . S
C622 C621 1.410 . S
C622 C623 1.392 . S
C622 C625 1.511 . S
C623 C619 1.376 . S
C623 C622 1.392 . S
C623 H635 0.929 . S
C624 C620 1.531 . S
C624 H636 0.960 . S
C624 H637 0.962 . S
C624 H638 0.960 . S
C625 C622 1.511 . S
C625 H639 0.961 . S
C625 H640 0.961 . S
C625 H641 0.961 . S
C626 C627 1.370 . S
C626 C628 1.363 . S
C626 H642 0.931 . S
C627 C626 1.370 . S
C627 C631 1.408 . S
C628 C626 1.363 . S
C628 C629 1.370 . S
C628 C632 1.524 . S
C629 C621 1.503 . S
C629 C628 1.370 . S
C629 C630 1.403 . S
C630 C629 1.403 . S
C630 C631 1.404 . S
C630 C633 1.539 . S
C631 C627 1.408 . S
C631 C630 1.404 . S
C631 H643 0.930 . S
C632 C628 1.524 . S
C632 H644 0.956 . S
C632 H645 0.961 . S
C632 H646 0.961 . S
C633 C630 1.539 . S
C633 H647 0.958 . S
C633 H648 0.961 . S
C633 H649 0.960 . S
H634 C618 0.931 . S
H635 C623 0.929 . S
H636 C624 0.960 . S
H637 C624 0.962 . S
H638 C624 0.960 . S
H639 C625 0.961 . S
H640 C625 0.961 . S
H641 C625 0.961 . S
H642 C626 0.931 . S
H643 C631 0.930 . S
H644 C632 0.956 . S
H645 C632 0.961 . S
H646 C632 0.961 . S
H647 C633 0.958 . S
H648 C633 0.961 . S
H649 C633 0.960 . S
C650 C651 1.391 . S
C650 C652 1.394 . S
C650 H666 0.931 . S
C651 C650 1.391 . S
C651 C655 1.376 . S
C652 C650 1.394 . S
C652 C653 1.369 . S
C652 C656 1.531 . S
C653 C652 1.369 . S
C653 C654 1.410 . S
C653 C661 1.503 . S
C654 C653 1.410 . S
C654 C655 1.392 . S
C654 C657 1.511 . S
C655 C651 1.376 . S
C655 C654 1.392 . S
C655 H667 0.929 . S
C656 C652 1.531 . S
C656 H668 0.960 . S
C656 H669 0.962 . S
C656 H670 0.960 . S
C657 C654 1.511 . S
C657 H671 0.961 . S
C657 H672 0.961 . S
C657 H673 0.961 . S
C658 C659 1.370 . S
C658 C660 1.363 . S
C658 H674 0.931 . S
C659 C658 1.370 . S
C659 C663 1.408 . S
C660 C658 1.363 . S
C660 C661 1.370 . S
C660 C664 1.524 . S
C661 C653 1.503 . S
C661 C660 1.370 . S
C661 C662 1.403 . S
C662 C661 1.403 . S
C662 C663 1.404 . S
C662 C665 1.539 . S
C663 C659 1.408 . S
C663 C662 1.404 . S
C663 H675 0.930 . S
C664 C660 1.524 . S
C664 H676 0.956 . S
C664 H677 0.961 . S
C664 H678 0.961 . S
C665 C662 1.539 . S
C665 H679 0.958 . S
C665 H680 0.961 . S
C665 H681 0.960 . S
H666 C650 0.931 . S
H667 C655 0.929 . S
H668 C656 0.960 . S
H669 C656 0.962 . S
H670 C656 0.960 . S
H671 C657 0.961 . S
H672 C657 0.961 . S
H673 C657 0.961 . S
H674 C658 0.931 . S
H675 C663 0.930 . S
H676 C664 0.956 . S
H677 C664 0.961 . S
H678 C664 0.961 . S
H679 C665 0.958 . S
H680 C665 0.961 . S
H681 C665 0.960 . S
C682 C683 1.391 . S
C682 C684 1.394 . S
C682 H698 0.931 . S
C683 C682 1.391 . S
C683 C687 1.376 . S
C684 C682 1.394 . S
C684 C685 1.369 . S
C684 C688 1.531 . S
C685 C684 1.369 . S
C685 C686 1.410 . S
C685 C693 1.503 . S
C686 C685 1.410 . S
C686 C687 1.392 . S
C686 C689 1.511 . S
C687 C683 1.376 . S
C687 C686 1.392 . S
C687 H699 0.929 . S
C688 C684 1.531 . S
C688 H700 0.960 . S
C688 H701 0.962 . S
C688 H702 0.960 . S
C689 C686 1.511 . S
C689 H703 0.961 . S
C689 H704 0.961 . S
C689 H705 0.961 . S
C690 C691 1.370 . S
C690 C692 1.363 . S
C690 H706 0.931 . S
C691 C690 1.370 . S
C691 C695 1.408 . S
C692 C690 1.363 . S
C692 C693 1.370 . S
C692 C696 1.524 . S
C693 C685 1.503 . S
C693 C692 1.370 . S
C693 C694 1.403 . S
C694 C693 1.403 . S
C694 C695 1.404 . S
C694 C697 1.539 . S
C695 C691 1.408 . S
C695 C694 1.404 . S
C695 H707 0.930 . S
C696 C692 1.524 . S
C696 H708 0.956 . S
C696 H709 0.961 . S
C696 H710 0.961 . S
C697 C694 1.539 . S
C697 H711 0.958 . S
C697 H712 0.961 . S
C697 H713 0.960 . S
H698 C682 0.931 . S
H699 C687 0.929 . S
H700 C688 0.960 . S
H701 C688 0.962 . S
H702 C688 0.960 . S
H703 C689 0.961 . S
H704 C689 0.961 . S
H705 C689 0.961 . S
H706 C690 0.931 . S
H707 C695 0.930 . S
H708 C696 0.956 . S
H709 C696 0.961 . S
H710 C696 0.961 . S
H711 C697 0.958 . S
H712 C697 0.961 . S
H713 C697 0.960 . S
C714 C715 1.391 . S
C714 C716 1.394 . S
C714 H730 0.931 . S
C715 C714 1.391 . S
C715 C719 1.376 1_655 S
C716 C714 1.394 . S
C716 C717 1.369 . S
C716 C720 1.531 . S
C717 C716 1.369 . S
C717 C718 1.410 1_655 S
C717 C725 1.503 1_655 S
C718 C717 1.410 1_455 S
C718 C719 1.392 . S
C718 C721 1.511 . S
C719 C715 1.376 1_455 S
C719 C718 1.392 . S
C719 H731 0.929 . S
C720 C716 1.531 . S
C720 H732 0.960 . S
C720 H733 0.962 . S
C720 H734 0.960 . S
C721 C718 1.511 . S
C721 H735 0.961 . S
C721 H736 0.961 . S
C721 H737 0.961 . S
C722 C723 1.370 . S
C722 C724 1.363 . S
C722 H738 0.931 . S
C723 C722 1.370 . S
C723 C727 1.408 . S
C724 C722 1.363 . S
C724 C725 1.370 . S
C724 C728 1.528 . S
C725 C717 1.503 1_455 S
C725 C724 1.370 . S
C725 C726 1.403 . S
C726 C725 1.403 . S
C726 C727 1.404 . S
C726 C729 1.539 . S
C727 C723 1.408 . S
C727 C726 1.404 . S
C727 H739 0.930 . S
C728 C724 1.528 . S
C728 H740 0.951 1_455 S
C728 H741 0.963 . S
C728 H742 0.960 . S
C729 C726 1.539 . S
C729 H743 0.958 1_455 S
C729 H744 0.961 . S
C729 H745 0.960 . S
H730 C714 0.931 . S
H731 C719 0.929 . S
H732 C720 0.960 . S
H733 C720 0.962 . S
H734 C720 0.960 . S
H735 C721 0.961 . S
H736 C721 0.961 . S
H737 C721 0.961 . S
H738 C722 0.931 . S
H739 C727 0.930 . S
H740 C728 0.951 1_655 S
H741 C728 0.963 . S
H742 C728 0.960 . S
H743 C729 0.958 1_655 S
H744 C729 0.961 . S
H745 C729 0.960 . S
C746 C747 1.391 . S
C746 C748 1.394 . S
C746 H762 0.931 . S
C747 C746 1.391 . S
C747 C751 1.376 . S
C748 C746 1.394 . S
C748 C749 1.369 . S
C748 C752 1.531 . S
C749 C748 1.369 . S
C749 C750 1.410 . S
C749 C757 1.503 . S
C750 C749 1.410 . S
C750 C751 1.392 . S
C750 C753 1.511 . S
C751 C747 1.376 . S
C751 C750 1.392 . S
C751 H763 0.929 . S
C752 C748 1.531 . S
C752 H764 0.960 . S
C752 H765 0.962 . S
C752 H766 0.960 . S
C753 C750 1.511 . S
C753 H767 0.961 . S
C753 H768 0.961 . S
C753 H769 0.961 . S
C754 C755 1.370 . S
C754 C756 1.363 . S
C754 H770 0.931 . S
C755 C754 1.370 . S
C755 C759 1.408 . S
C756 C754 1.363 . S
C756 C757 1.370 . S
C756 C760 1.524 . S
C757 C749 1.503 . S
C757 C756 1.370 . S
C757 C758 1.403 . S
C758 C757 1.403 . S
C758 C759 1.404 . S
C758 C761 1.539 . S
C759 C755 1.408 . S
C759 C758 1.404 . S
C759 H771 0.930 . S
C760 C756 1.524 . S
C760 H772 0.956 . S
C760 H773 0.961 . S
C760 H774 0.961 . S
C761 C758 1.539 . S
C761 H775 0.958 . S
C761 H776 0.961 . S
C761 H777 0.960 . S
H762 C746 0.931 . S
H763 C751 0.929 . S
H764 C752 0.960 . S
H765 C752 0.962 . S
H766 C752 0.960 . S
H767 C753 0.961 . S
H768 C753 0.961 . S
H769 C753 0.961 . S
H770 C754 0.931 . S
H771 C759 0.930 . S
H772 C760 0.956 . S
H773 C760 0.961 . S
H774 C760 0.961 . S
H775 C761 0.958 . S
H776 C761 0.961 . S
H777 C761 0.960 . S
C778 C779 1.391 . S
C778 C780 1.394 . S
C778 H794 0.931 . S
C779 C778 1.391 . S
C779 C783 1.376 . S
C780 C778 1.394 . S
C780 C781 1.380 1_565 S
C780 C784 1.531 1_565 S
C781 C780 1.380 1_545 S
C781 C782 1.390 1_545 S
C781 C789 1.510 . S
C782 C781 1.390 1_565 S
C782 C783 1.392 . S
C782 C785 1.511 . S
C783 C779 1.376 . S
C783 C782 1.392 . S
C783 H795 0.929 . S
C784 C780 1.531 1_545 S
C784 H796 0.960 . S
C784 H797 0.962 1_545 S
C784 H798 0.960 . S
C785 C782 1.511 . S
C785 H799 0.961 . S
C785 H800 0.961 . S
C785 H801 0.961 1_565 S
C786 C787 1.370 1_565 S
C786 C788 1.363 . S
C786 H802 0.931 . S
C787 C786 1.370 1_545 S
C787 C791 1.408 . S
C788 C786 1.363 . S
C788 C789 1.370 1_565 S
C788 C792 1.524 . S
C789 C781 1.510 . S
C789 C788 1.370 1_545 S
C789 C790 1.403 . S
C790 C789 1.403 . S
C790 C791 1.404 . S
C790 C793 1.539 . S
C791 C787 1.408 . S
C791 C790 1.404 . S
C791 H803 0.930 . S
C792 C788 1.524 . S
C792 H804 0.956 . S
C792 H805 0.961 . S
C792 H806 0.961 . S
C793 C790 1.539 . S
C793 H807 0.958 . S
C793 H808 0.961 . S
C793 H809 0.960 . S
H794 C778 0.931 . S
H795 C783 0.929 . S
H796 C784 0.960 . S
H797 C784 0.962 1_565 S
H798 C784 0.960 . S
H799 C785 0.961 . S
H800 C785 0.961 . S
H801 C785 0.961 1_545 S
H802 C786 0.931 . S
H803 C791 0.930 . S
H804 C792 0.956 . S
H805 C792 0.961 . S
H806 C792 0.961 . S
H807 C793 0.958 . S
H808 C793 0.961 . S
H809 C793 0.960 . S
C810 C811 1.391 . S
C810 C812 1.394 . S
C810 H826 0.931 . S
C811 C810 1.391 . S
C811 C815 1.376 . S
C812 C810 1.394 . S
C812 C813 1.369 . S
C812 C816 1.531 . S
C813 C812 1.369 . S
C813 C814 1.410 1_554 S
C813 C821 1.503 1_554 S
C814 C813 1.410 1_556 S
C814 C815 1.392 1_556 S
C814 C817 1.511 . S
C815 C811 1.376 . S
C815 C814 1.392 1_554 S
C815 H827 0.929 1_554 S
C816 C812 1.531 . S
C816 H828 0.960 . S
C816 H829 0.962 . S
C816 H830 0.960 . S
C817 C814 1.511 . S
C817 H831 0.961 . S
C817 H832 0.961 . S
C817 H833 0.961 . S
C818 C819 1.370 . S
C818 C820 1.363 . S
C818 H834 0.931 . S
C819 C818 1.370 . S
C819 C823 1.408 . S
C820 C818 1.363 . S
C820 C821 1.370 . S
C820 C824 1.524 . S
C821 C813 1.503 1_556 S
C821 C820 1.370 . S
C821 C822 1.403 1_556 S
C822 C821 1.403 1_554 S
C822 C823 1.404 1_554 S
C822 C825 1.539 . S
C823 C819 1.408 . S
C823 C822 1.404 1_556 S
C823 H835 0.930 1_556 S
C824 C820 1.524 . S
C824 H836 0.956 . S
C824 H837 0.961 . S
C824 H838 0.961 . S
C825 C822 1.539 . S
C825 H839 0.958 . S
C825 H840 0.961 . S
C825 H841 0.960 . S
H826 C810 0.931 . S
H827 C815 0.929 1_556 S
H828 C816 0.960 . S
H829 C816 0.962 . S
H830 C816 0.960 . S
H831 C817 0.961 . S
H832 C817 0.961 . S
H833 C817 0.961 . S
H834 C818 0.931 . S
H835 C823 0.930 1_554 S
H836 C824 0.956 . S
H837 C824 0.961 . S
H838 C824 0.961 . S
H839 C825 0.958 . S
H840 C825 0.961 . S
H841 C825 0.960 . S
C842 C843 1.391 . S
C842 C844 1.394 1_556 S
C842 H858 0.931 1_556 S
C843 C842 1.391 . S
C843 C847 1.376 . S
C844 C842 1.394 1_554 S
C844 C845 1.369 1_554 S
C844 C848 1.531 . S
C845 C844 1.369 1_556 S
C845 C846 1.410 . S
C845 C853 1.503 1_546 S
C846 C845 1.410 . S
C846 C847 1.392 . S
C846 C849 1.511 1_545 S
C847 C843 1.376 . S
C847 C846 1.392 . S
C847 H859 0.929 . S
C848 C844 1.531 . S
C848 H860 0.960 . S
C848 H861 0.962 . S
C848 H862 0.960 . S
C849 C846 1.511 1_565 S
C849 H863 0.961 1_565 S
C849 H864 0.961 . S
C849 H865 0.961 . S
C850 C851 1.370 . S
C850 C852 1.363 . S
C850 H866 0.931 . S
C851 C850 1.370 . S
C851 C855 1.408 . S
C852 C850 1.363 . S
C852 C853 1.370 . S
C852 C856 1.524 . S
C853 C845 1.503 1_564 S
C853 C852 1.370 . S
C853 C854 1.403 1_554 S
C854 C853 1.403 1_556 S
C854 C855 1.404 1_556 S
C854 C857 1.539 . S
C855 C851 1.408 . S
C855 C854 1.404 1_554 S
C855 H867 0.928 1_554 S
C856 C852 1.524 . S
C856 H868 0.956 1_565 S
C856 H869 0.961 1_565 S
C856 H870 0.961 . S
C857 C854 1.539 . S
C857 H871 0.958 . S
C857 H872 0.961 . S
C857 H873 0.960 . S
H858 C842 0.931 1_554 S
H859 C847 0.929 . S
H860 C848 0.960 . S
H861 C848 0.962 . S
H862 C848 0.960 . S
H863 C849 0.961 1_545 S
H864 C849 0.961 . S
H865 C849 0.961 . S
H866 C850 0.931 . S
H867 C855 0.928 1_556 S
H868 C856 0.956 1_545 S
H869 C856 0.961 1_545 S
H870 C856 0.961 . S
H871 C857 0.958 . S
H872 C857 0.961 . S
H873 C857 0.960 . S
C874 C875 1.391 . S
C874 C876 1.394 . S
C874 H890 0.931 . S
C875 C874 1.391 . S
C875 C879 1.376 . S
C876 C874 1.394 . S
C876 C877 1.369 . S
C876 C880 1.531 . S
C877 C876 1.369 . S
C877 C878 1.410 . S
C877 C885 1.503 1_656 S
C878 C877 1.410 . S
C878 C879 1.392 . S
C878 C881 1.511 . S
C879 C875 1.376 . S
C879 C878 1.392 . S
C879 H891 0.929 . S
C880 C876 1.531 . S
C880 H892 0.960 1_655 S
C880 H893 0.962 1_556 S
C880 H894 0.960 . S
C881 C878 1.511 . S
C881 H895 0.961 . S
C881 H896 0.961 1_655 S
C881 H897 0.961 . S
C882 C883 1.370 . S
C882 C884 1.363 . S
C882 H898 0.931 . S
C883 C882 1.370 . S
C883 C887 1.408 1_554 S
C884 C882 1.363 . S
C884 C885 1.370 . S
C884 C888 1.524 1_455 S
C885 C877 1.503 1_454 S
C885 C884 1.370 . S
C885 C886 1.403 1_554 S
C886 C885 1.403 1_556 S
C886 C887 1.404 . S
C886 C889 1.539 . S
C887 C883 1.408 1_556 S
C887 C886 1.404 . S
C887 H899 0.930 . S
C888 C884 1.524 1_655 S
C888 H900 0.956 . S
C888 H901 0.961 . S
C888 H902 0.961 . S
C889 C886 1.539 . S
C889 H903 0.958 . S
C889 H904 0.961 . S
C889 H905 0.960 . S
H890 C874 0.931 . S
H891 C879 0.929 . S
H892 C880 0.960 1_455 S
H893 C880 0.962 1_554 S
H894 C880 0.960 . S
H895 C881 0.961 . S
H896 C881 0.961 1_455 S
H897 C881 0.961 . S
H898 C882 0.931 . S
H899 C887 0.930 . S
H900 C888 0.956 . S
H901 C888 0.961 . S
H902 C888 0.961 . S
H903 C889 0.958 . S
H904 C889 0.961 . S
H905 C889 0.960 . S
C906 C907 1.391 1_554 S
C906 C908 1.394 . S
C906 H922 0.931 . S
C907 C906 1.391 1_556 S
C907 C911 1.376 . S
C908 C906 1.394 . S
C908 C909 1.369 . S
C908 C912 1.531 . S
C909 C908 1.369 . S
C909 C910 1.410 1_554 S
C909 C917 1.503 . S
C910 C909 1.410 1_556 S
C910 C911 1.392 . S
C910 C913 1.511 . S
C911 C907 1.376 . S
C911 C910 1.392 . S
C911 H923 0.929 . S
C912 C908 1.531 . S
C912 H924 0.960 . S
C912 H925 0.962 . S
C912 H926 0.960 . S
C913 C910 1.511 . S
C913 H927 0.961 . S
C913 H928 0.961 . S
C913 H929 0.961 . S
C914 C915 1.370 1_556 S
C914 C916 1.363 . S
C914 H930 0.931 . S
C915 C914 1.370 1_554 S
C915 C919 1.408 . S
C916 C914 1.363 . S
C916 C917 1.370 1_556 S
C916 C920 1.524 . S
C917 C909 1.503 . S
C917 C916 1.370 1_554 S
C917 C918 1.403 . S
C918 C917 1.403 . S
C918 C919 1.404 . S
C918 C921 1.539 . S
C919 C915 1.408 . S
C919 C918 1.404 . S
C919 H931 0.930 . S
C920 C916 1.524 . S
C920 H932 0.956 . S
C920 H933 0.961 . S
C920 H934 0.961 . S
C921 C918 1.539 . S
C921 H935 0.958 . S
C921 H936 0.961 . S
C921 H937 0.960 . S
H922 C906 0.931 . S
H923 C911 0.929 . S
H924 C912 0.960 . S
H925 C912 0.962 . S
H926 C912 0.960 . S
H927 C913 0.961 . S
H928 C913 0.961 . S
H929 C913 0.961 . S
H930 C914 0.931 . S
H931 C919 0.930 . S
H932 C920 0.956 . S
H933 C920 0.961 . S
H934 C920 0.961 . S
H935 C921 0.958 . S
H936 C921 0.961 . S
H937 C921 0.960 . S
C938 C939 1.391 1_556 S
C938 C940 1.394 . S
C938 H954 0.931 . S
C939 C938 1.391 1_554 S
C939 C943 1.376 . S
C940 C938 1.394 . S
C940 C941 1.369 . S
C940 C944 1.531 . S
C941 C940 1.369 . S
C941 C942 1.410 1_556 S
C941 C949 1.503 1_565 S
C942 C941 1.410 1_554 S
C942 C943 1.392 . S
C942 C945 1.511 . S
C943 C939 1.376 . S
C943 C942 1.392 . S
C943 H955 0.929 . S
C944 C940 1.531 . S
C944 H956 0.960 . S
C944 H957 0.962 . S
C944 H958 0.960 . S
C945 C942 1.511 . S
C945 H959 0.961 . S
C945 H960 0.961 1_565 S
C945 H961 0.961 . S
C946 C947 1.370 1_554 S
C946 C948 1.363 . S
C946 H962 0.931 . S
C947 C946 1.370 1_556 S
C947 C951 1.408 . S
C948 C946 1.363 . S
C948 C949 1.370 1_554 S
C948 C952 1.524 . S
C949 C941 1.503 1_545 S
C949 C948 1.370 1_556 S
C949 C950 1.403 . S
C950 C949 1.403 . S
C950 C951 1.404 . S
C950 C953 1.539 . S
C951 C947 1.408 . S
C951 C950 1.404 . S
C951 H963 0.930 . S
C952 C948 1.524 . S
C952 H964 0.956 . S
C952 H965 0.961 . S
C952 H966 0.961 . S
C953 C950 1.539 . S
C953 H967 0.984 . S
C953 H968 0.961 . S
C953 H969 0.960 1_545 S
H954 C938 0.931 . S
H955 C943 0.929 . S
H956 C944 0.960 . S
H957 C944 0.962 . S
H958 C944 0.960 . S
H959 C945 0.961 . S
H960 C945 0.961 1_545 S
H961 C945 0.961 . S
H962 C946 0.931 . S
H963 C951 0.930 . S
H964 C952 0.956 . S
H965 C952 0.961 . S
H966 C952 0.961 . S
H967 C953 0.984 . S
H968 C953 0.961 . S
H969 C953 0.960 1_565 S
C970 C971 1.391 . S
C970 C972 1.394 . S
C970 H986 0.931 . S
C971 C970 1.391 . S
C971 C975 1.376 . S
C972 C970 1.394 . S
C972 C973 1.369 . S
C972 C976 1.531 . S
C973 C972 1.369 . S
C973 C974 1.410 . S
C973 C981 1.503 1_655 S
C974 C973 1.410 . S
C974 C975 1.392 . S
C974 C977 1.511 1_556 S
C975 C971 1.376 . S
C975 C974 1.392 . S
C975 H987 0.929 . S
C976 C972 1.531 . S
C976 H988 0.960 1_655 S
C976 H989 0.962 . S
C976 H990 0.960 . S
C977 C974 1.511 1_554 S
C977 H991 0.961 . S
C977 H992 0.961 . S
C977 H993 0.961 1_554 S
C978 C979 1.370 . S
C978 C980 1.363 . S
C978 H994 0.931 . S
C979 C978 1.370 . S
C979 C983 1.408 1_554 S
C980 C978 1.363 . S
C980 C981 1.370 1_554 S
C980 C984 1.545 . S
C981 C973 1.503 1_455 S
C981 C980 1.370 1_556 S
C981 C982 1.403 . S
C982 C981 1.403 . S
C982 C983 1.404 . S
C982 C985 1.539 . S
C983 C979 1.408 1_556 S
C983 C982 1.404 . S
C983 H995 0.930 . S
C984 C980 1.545 . S
C984 H996 0.958 1_455 S
C984 H997 0.919 1_455 S
C984 H998 0.982 . S
C985 C982 1.539 . S
C985 H999 0.958 . S
C985 H1000 0.961 . S
C985 H1001 0.960 . S
H986 C970 0.931 . S
H987 C975 0.929 . S
H988 C976 0.960 1_455 S
H989 C976 0.962 . S
H990 C976 0.960 . S
H991 C977 0.961 . S
H992 C977 0.961 . S
H993 C977 0.961 1_556 S
H994 C978 0.931 . S
H995 C983 0.930 . S
H996 C984 0.958 1_655 S
H997 C984 0.919 1_655 S
H998 C984 0.982 . S
H999 C985 0.958 . S
H1000 C985 0.961 . S
H1001 C985 0.960 . S
C1002 C1003 1.391 . S
C1002 C1004 1.394 . S
C1002 H1018 0.931 . S
C1003 C1002 1.391 . S
C1003 C1007 1.376 . S
C1004 C1002 1.394 . S
C1004 C1005 1.369 . S
C1004 C1008 1.531 . S
C1005 C1004 1.369 . S
C1005 C1006 1.410 . S
C1005 C1013 1.503 . S
C1006 C1005 1.410 . S
C1006 C1007 1.392 . S
C1006 C1009 1.511 . S
C1007 C1003 1.376 . S
C1007 C1006 1.392 . S
C1007 H1019 0.929 . S
C1008 C1004 1.531 . S
C1008 H1020 0.960 . S
C1008 H1021 0.962 . S
C1008 H1022 0.960 . S
C1009 C1006 1.511 . S
C1009 H1023 0.961 . S
C1009 H1024 0.961 . S
C1009 H1025 0.961 . S
C1010 C1011 1.370 . S
C1010 C1012 1.363 . S
C1010 H1026 0.931 . S
C1011 C1010 1.370 . S
C1011 C1015 1.408 . S
C1012 C1010 1.363 . S
C1012 C1013 1.370 . S
C1012 C1016 1.524 . S
C1013 C1005 1.503 . S
C1013 C1012 1.370 . S
C1013 C1014 1.403 . S
C1014 C1013 1.403 . S
C1014 C1015 1.404 . S
C1014 C1017 1.539 . S
C1015 C1011 1.408 . S
C1015 C1014 1.404 . S
C1015 H1027 0.930 . S
C1016 C1012 1.524 . S
C1016 H1028 0.956 . S
C1016 H1029 0.961 . S
C1016 H1030 0.961 . S
C1017 C1014 1.539 . S
C1017 H1031 0.958 . S
C1017 H1032 0.961 . S
C1017 H1033 0.960 . S
H1018 C1002 0.931 . S
H1019 C1007 0.929 . S
H1020 C1008 0.960 . S
H1021 C1008 0.962 . S
H1022 C1008 0.960 . S
H1023 C1009 0.961 . S
H1024 C1009 0.961 . S
H1025 C1009 0.961 . S
H1026 C1010 0.931 . S
H1027 C1015 0.930 . S
H1028 C1016 0.956 . S
H1029 C1016 0.961 . S
H1030 C1016 0.961 . S
H1031 C1017 0.958 . S
H1032 C1017 0.961 . S
H1033 C1017 0.960 . S
C1034 C1035 1.391 . S
C1034 C1036 1.394 . S
C1034 H1050 0.931 . S
C1035 C1034 1.391 . S
C1035 C1039 1.376 . S
C1036 C1034 1.394 . S
C1036 C1037 1.369 . S
C1036 C1040 1.531 . S
C1037 C1036 1.369 . S
C1037 C1038 1.410 . S
C1037 C1045 1.503 . S
C1038 C1037 1.410 . S
C1038 C1039 1.392 . S
C1038 C1041 1.511 . S
C1039 C1035 1.376 . S
C1039 C1038 1.392 . S
C1039 H1051 0.929 . S
C1040 C1036 1.531 . S
C1040 H1052 0.960 . S
C1040 H1053 0.962 . S
C1040 H1054 0.960 . S
C1041 C1038 1.511 . S
C1041 H1055 0.961 . S
C1041 H1056 0.961 . S
C1041 H1057 0.961 . S
C1042 C1043 1.370 . S
C1042 C1044 1.363 . S
C1042 H1058 0.931 . S
C1043 C1042 1.370 . S
C1043 C1047 1.408 . S
C1044 C1042 1.363 . S
C1044 C1045 1.370 . S
C1044 C1048 1.524 . S
C1045 C1037 1.503 . S
C1045 C1044 1.370 . S
C1045 C1046 1.403 . S
C1046 C1045 1.403 . S
C1046 C1047 1.404 . S
C1046 C1049 1.539 . S
C1047 C1043 1.408 . S
C1047 C1046 1.404 . S
C1047 H1059 0.930 . S
C1048 C1044 1.524 . S
C1048 H1060 0.956 . S
C1048 H1061 0.961 . S
C1048 H1062 0.961 . S
C1049 C1046 1.539 . S
C1049 H1063 0.958 . S
C1049 H1064 0.961 . S
C1049 H1065 0.960 . S
H1050 C1034 0.931 . S
H1051 C1039 0.929 . S
H1052 C1040 0.960 . S
H1053 C1040 0.962 . S
H1054 C1040 0.960 . S
H1055 C1041 0.961 . S
H1056 C1041 0.961 . S
H1057 C1041 0.961 . S
H1058 C1042 0.931 . S
H1059 C1047 0.930 . S
H1060 C1048 0.956 . S
H1061 C1048 0.961 . S
H1062 C1048 0.961 . S
H1063 C1049 0.958 . S
H1064 C1049 0.961 . S
H1065 C1049 0.960 . S
C1066 C1067 1.391 . S
C1066 C1068 1.394 . S
C1066 H1082 0.931 . S
C1067 C1066 1.391 . S
C1067 C1071 1.376 . S
C1068 C1066 1.394 . S
C1068 C1069 1.369 . S
C1068 C1072 1.531 . S
C1069 C1068 1.369 . S
C1069 C1070 1.410 . S
C1069 C1077 1.503 . S
C1070 C1069 1.410 . S
C1070 C1071 1.392 . S
C1070 C1073 1.511 . S
C1071 C1067 1.376 . S
C1071 C1070 1.392 . S
C1071 H1083 0.929 . S
C1072 C1068 1.531 . S
C1072 H1084 0.960 . S
C1072 H1085 0.962 . S
C1072 H1086 0.960 . S
C1073 C1070 1.511 . S
C1073 H1087 0.961 . S
C1073 H1088 0.961 . S
C1073 H1089 0.961 . S
C1074 C1075 1.370 . S
C1074 C1076 1.363 . S
C1074 H1090 0.931 . S
C1075 C1074 1.370 . S
C1075 C1079 1.408 . S
C1076 C1074 1.363 . S
C1076 C1077 1.370 . S
C1076 C1080 1.524 . S
C1077 C1069 1.503 . S
C1077 C1076 1.370 . S
C1077 C1078 1.403 . S
C1078 C1077 1.403 . S
C1078 C1079 1.404 . S
C1078 C1081 1.539 . S
C1079 C1075 1.408 . S
C1079 C1078 1.404 . S
C1079 H1091 0.930 . S
C1080 C1076 1.524 . S
C1080 H1092 0.956 . S
C1080 H1093 0.961 . S
C1080 H1094 0.961 . S
C1081 C1078 1.539 . S
C1081 H1095 0.958 . S
C1081 H1096 0.961 . S
C1081 H1097 0.960 . S
H1082 C1066 0.931 . S
H1083 C1071 0.929 . S
H1084 C1072 0.960 . S
H1085 C1072 0.962 . S
H1086 C1072 0.960 . S
H1087 C1073 0.961 . S
H1088 C1073 0.961 . S
H1089 C1073 0.961 . S
H1090 C1074 0.931 . S
H1091 C1079 0.930 . S
H1092 C1080 0.956 . S
H1093 C1080 0.961 . S
H1094 C1080 0.961 . S
H1095 C1081 0.958 . S
H1096 C1081 0.961 . S
H1097 C1081 0.960 . S
C1098 C1099 1.391 . S
C1098 C1100 1.394 . S
C1098 H1114 0.931 . S
C1099 C1098 1.391 . S
C1099 C1103 1.376 . S
C1100 C1098 1.394 . S
C1100 C1101 1.369 . S
C1100 C1104 1.531 . S
C1101 C1100 1.369 . S
C1101 C1102 1.410 . S
C1101 C1109 1.503 . S
C1102 C1101 1.410 . S
C1102 C1103 1.392 . S
C1102 C1105 1.511 . S
C1103 C1099 1.376 . S
C1103 C1102 1.392 . S
C1103 H1115 0.929 . S
C1104 C1100 1.531 . S
C1104 H1116 0.960 . S
C1104 H1117 0.962 . S
C1104 H1118 0.960 . S
C1105 C1102 1.511 . S
C1105 H1119 0.961 . S
C1105 H1120 0.961 . S
C1105 H1121 0.961 . S
C1106 C1107 1.370 . S
C1106 C1108 1.363 . S
C1106 H1122 0.931 . S
C1107 C1106 1.370 . S
C1107 C1111 1.408 . S
C1108 C1106 1.363 . S
C1108 C1109 1.370 . S
C1108 C1112 1.524 . S
C1109 C1101 1.503 . S
C1109 C1108 1.370 . S
C1109 C1110 1.403 . S
C1110 C1109 1.403 . S
C1110 C1111 1.404 . S
C1110 C1113 1.539 . S
C1111 C1107 1.408 . S
C1111 C1110 1.404 . S
C1111 H1123 0.930 . S
C1112 C1108 1.524 . S
C1112 H1124 0.956 . S
C1112 H1125 0.961 . S
C1112 H1126 0.961 . S
C1113 C1110 1.539 . S
C1113 H1127 0.958 . S
C1113 H1128 0.961 . S
C1113 H1129 0.960 . S
H1114 C1098 0.931 . S
H1115 C1103 0.929 . S
H1116 C1104 0.960 . S
H1117 C1104 0.962 . S
H1118 C1104 0.960 . S
H1119 C1105 0.961 . S
H1120 C1105 0.961 . S
H1121 C1105 0.961 . S
H1122 C1106 0.931 . S
H1123 C1111 0.930 . S
H1124 C1112 0.956 . S
H1125 C1112 0.961 . S
H1126 C1112 0.961 . S
H1127 C1113 0.958 . S
H1128 C1113 0.961 . S
H1129 C1113 0.960 . S
C1130 C1131 1.391 . S
C1130 C1132 1.394 . S
C1130 H1146 0.931 . S
C1131 C1130 1.391 . S
C1131 C1135 1.376 . S
C1132 C1130 1.394 . S
C1132 C1133 1.369 . S
C1132 C1136 1.531 . S
C1133 C1132 1.369 . S
C1133 C1134 1.410 . S
C1133 C1141 1.503 . S
C1134 C1133 1.410 . S
C1134 C1135 1.392 . S
C1134 C1137 1.511 . S
C1135 C1131 1.376 . S
C1135 C1134 1.392 . S
C1135 H1147 0.929 . S
C1136 C1132 1.531 . S
C1136 H1148 0.960 . S
C1136 H1149 0.962 . S
C1136 H1150 0.960 . S
C1137 C1134 1.511 . S
C1137 H1151 0.961 . S
C1137 H1152 0.961 . S
C1137 H1153 0.961 . S
C1138 C1139 1.370 . S
C1138 C1140 1.363 . S
C1138 H1154 0.931 . S
C1139 C1138 1.370 . S
C1139 C1143 1.408 . S
C1140 C1138 1.363 . S
C1140 C1141 1.370 . S
C1140 C1144 1.524 . S
C1141 C1133 1.503 . S
C1141 C1140 1.370 . S
C1141 C1142 1.403 . S
C1142 C1141 1.403 . S
C1142 C1143 1.404 . S
C1142 C1145 1.539 . S
C1143 C1139 1.408 . S
C1143 C1142 1.404 . S
C1143 H1155 0.930 . S
C1144 C1140 1.524 . S
C1144 H1156 0.956 . S
C1144 H1157 0.961 . S
C1144 H1158 0.961 . S
C1145 C1142 1.539 . S
C1145 H1159 0.958 . S
C1145 H1160 0.961 . S
C1145 H1161 0.960 . S
H1146 C1130 0.931 . S
H1147 C1135 0.929 . S
H1148 C1136 0.960 . S
H1149 C1136 0.962 . S
H1150 C1136 0.960 . S
H1151 C1137 0.961 . S
H1152 C1137 0.961 . S
H1153 C1137 0.961 . S
H1154 C1138 0.931 . S
H1155 C1143 0.930 . S
H1156 C1144 0.956 . S
H1157 C1144 0.961 . S
H1158 C1144 0.961 . S
H1159 C1145 0.958 . S
H1160 C1145 0.961 . S
H1161 C1145 0.960 . S
C1162 C1163 1.391 . S
C1162 C1164 1.394 . S
C1162 H1178 0.931 . S
C1163 C1162 1.391 . S
C1163 C1167 1.376 . S
C1164 C1162 1.394 . S
C1164 C1165 1.369 . S
C1164 C1168 1.531 . S
C1165 C1164 1.369 . S
C1165 C1166 1.410 . S
C1165 C1173 1.503 . S
C1166 C1165 1.410 . S
C1166 C1167 1.392 . S
C1166 C1169 1.511 . S
C1167 C1163 1.376 . S
C1167 C1166 1.392 . S
C1167 H1179 0.929 . S
C1168 C1164 1.531 . S
C1168 H1180 0.960 . S
C1168 H1181 0.962 . S
C1168 H1182 0.960 . S
C1169 C1166 1.511 . S
C1169 H1183 0.961 . S
C1169 H1184 0.961 . S
C1169 H1185 0.961 . S
C1170 C1171 1.370 . S
C1170 C1172 1.363 . S
C1170 H1186 0.931 . S
C1171 C1170 1.370 . S
C1171 C1175 1.408 . S
C1172 C1170 1.363 . S
C1172 C1173 1.370 . S
C1172 C1176 1.524 . S
C1173 C1165 1.503 . S
C1173 C1172 1.370 . S
C1173 C1174 1.403 . S
C1174 C1173 1.403 . S
C1174 C1175 1.404 . S
C1174 C1177 1.539 . S
C1175 C1171 1.408 . S
C1175 C1174 1.404 . S
C1175 H1187 0.930 . S
C1176 C1172 1.524 . S
C1176 H1188 0.956 . S
C1176 H1189 0.961 . S
C1176 H1190 0.961 . S
C1177 C1174 1.539 . S
C1177 H1191 0.958 . S
C1177 H1192 0.961 . S
C1177 H1193 0.960 . S
H1178 C1162 0.931 . S
H1179 C1167 0.929 . S
H1180 C1168 0.960 . S
H1181 C1168 0.962 . S
H1182 C1168 0.960 . S
H1183 C1169 0.961 . S
H1184 C1169 0.961 . S
H1185 C1169 0.961 . S
H1186 C1170 0.931 . S
H1187 C1175 0.930 . S
H1188 C1176 0.956 . S
H1189 C1176 0.961 . S
H1190 C1176 0.961 . S
H1191 C1177 0.958 . S
H1192 C1177 0.961 . S
H1193 C1177 0.960 . S
C1194 C1195 1.391 . S
C1194 C1196 1.394 . S
C1194 H1210 0.931 . S
C1195 C1194 1.391 . S
C1195 C1199 1.376 . S
C1196 C1194 1.394 . S
C1196 C1197 1.369 . S
C1196 C1200 1.531 . S
C1197 C1196 1.369 . S
C1197 C1198 1.410 . S
C1197 C1205 1.503 . S
C1198 C1197 1.410 . S
C1198 C1199 1.392 . S
C1198 C1201 1.511 . S
C1199 C1195 1.376 . S
C1199 C1198 1.392 . S
C1199 H1211 0.929 . S
C1200 C1196 1.531 . S
C1200 H1212 0.960 . S
C1200 H1213 0.962 . S
C1200 H1214 0.960 . S
C1201 C1198 1.511 . S
C1201 H1215 0.961 . S
C1201 H1216 0.961 . S
C1201 H1217 0.961 . S
C1202 C1203 1.370 . S
C1202 C1204 1.363 . S
C1202 H1218 0.931 . S
C1203 C1202 1.370 . S
C1203 C1207 1.408 . S
C1204 C1202 1.363 . S
C1204 C1205 1.370 . S
C1204 C1208 1.524 . S
C1205 C1197 1.503 . S
C1205 C1204 1.370 . S
C1205 C1206 1.403 . S
C1206 C1205 1.403 . S
C1206 C1207 1.404 . S
C1206 C1209 1.539 . S
C1207 C1203 1.408 . S
C1207 C1206 1.404 . S
C1207 H1219 0.930 . S
C1208 C1204 1.524 . S
C1208 H1220 0.956 . S
C1208 H1221 0.961 . S
C1208 H1222 0.961 . S
C1209 C1206 1.539 . S
C1209 H1223 0.958 . S
C1209 H1224 0.961 . S
C1209 H1225 0.960 . S
H1210 C1194 0.931 . S
H1211 C1199 0.929 . S
H1212 C1200 0.960 . S
H1213 C1200 0.962 . S
H1214 C1200 0.960 . S
H1215 C1201 0.961 . S
H1216 C1201 0.961 . S
H1217 C1201 0.961 . S
H1218 C1202 0.931 . S
H1219 C1207 0.930 . S
H1220 C1208 0.956 . S
H1221 C1208 0.961 . S
H1222 C1208 0.961 . S
H1223 C1209 0.958 . S
H1224 C1209 0.961 . S
H1225 C1209 0.960 . S
C1226 C1227 1.391 . S
C1226 C1228 1.394 . S
C1226 H1242 0.931 . S
C1227 C1226 1.391 . S
C1227 C1231 1.376 . S
C1228 C1226 1.394 . S
C1228 C1229 1.369 . S
C1228 C1232 1.531 . S
C1229 C1228 1.369 . S
C1229 C1230 1.410 . S
C1229 C1237 1.503 . S
C1230 C1229 1.410 . S
C1230 C1231 1.392 . S
C1230 C1233 1.511 . S
C1231 C1227 1.376 . S
C1231 C1230 1.392 . S
C1231 H1243 0.929 . S
C1232 C1228 1.531 . S
C1232 H1244 0.960 . S
C1232 H1245 0.962 . S
C1232 H1246 0.960 . S
C1233 C1230 1.511 . S
C1233 H1247 0.961 . S
C1233 H1248 0.961 . S
C1233 H1249 0.961 . S
C1234 C1235 1.370 . S
C1234 C1236 1.363 . S
C1234 H1250 0.931 . S
C1235 C1234 1.370 . S
C1235 C1239 1.408 . S
C1236 C1234 1.363 . S
C1236 C1237 1.370 . S
C1236 C1240 1.524 . S
C1237 C1229 1.503 . S
C1237 C1236 1.370 . S
C1237 C1238 1.403 . S
C1238 C1237 1.403 . S
C1238 C1239 1.404 . S
C1238 C1241 1.539 . S
C1239 C1235 1.408 . S
C1239 C1238 1.404 . S
C1239 H1251 0.930 . S
C1240 C1236 1.524 . S
C1240 H1252 0.956 . S
C1240 H1253 0.961 . S
C1240 H1254 0.961 . S
C1241 C1238 1.539 . S
C1241 H1255 0.958 . S
C1241 H1256 0.961 . S
C1241 H1257 0.960 . S
H1242 C1226 0.931 . S
H1243 C1231 0.929 . S
H1244 C1232 0.960 . S
H1245 C1232 0.962 . S
H1246 C1232 0.960 . S
H1247 C1233 0.961 . S
H1248 C1233 0.961 . S
H1249 C1233 0.961 . S
H1250 C1234 0.931 . S
H1251 C1239 0.930 . S
H1252 C1240 0.956 . S
H1253 C1240 0.961 . S
H1254 C1240 0.961 . S
H1255 C1241 0.958 . S
H1256 C1241 0.961 . S
H1257 C1241 0.960 . S
C1258 C1259 1.391 . S
C1258 C1260 1.394 . S
C1258 H1274 0.931 . S
C1259 C1258 1.391 . S
C1259 C1263 1.376 . S
C1260 C1258 1.394 . S
C1260 C1261 1.369 . S
C1260 C1264 1.531 . S
C1261 C1260 1.369 . S
C1261 C1262 1.410 . S
C1261 C1269 1.503 . S
C1262 C1261 1.410 . S
C1262 C1263 1.392 . S
C1262 C1265 1.511 . S
C1263 C1259 1.376 . S
C1263 C1262 1.392 . S
C1263 H1275 0.929 . S
C1264 C1260 1.531 . S
C1264 H1276 0.960 . S
C1264 H1277 0.962 . S
C1264 H1278 0.960 . S
C1265 C1262 1.511 . S
C1265 H1279 0.961 . S
C1265 H1280 0.961 . S
C1265 H1281 0.961 . S
C1266 C1267 1.370 . S
C1266 C1268 1.363 . S
C1266 H1282 0.931 . S
C1267 C1266 1.370 . S
C1267 C1271 1.408 . S
C1268 C1266 1.363 . S
C1268 C1269 1.370 . S
C1268 C1272 1.524 . S
C1269 C1261 1.503 . S
C1269 C1268 1.370 . S
C1269 C1270 1.403 . S
C1270 C1269 1.403 . S
C1270 C1271 1.404 . S
C1270 C1273 1.539 . S
C1271 C1267 1.408 . S
C1271 C1270 1.404 . S
C1271 H1283 0.930 . S
C1272 C1268 1.524 . S
C1272 H1284 0.956 . S
C1272 H1285 0.961 . S
C1272 H1286 0.961 . S
C1273 C1270 1.539 . S
C1273 H1287 0.958 . S
C1273 H1288 0.961 . S
C1273 H1289 0.960 . S
H1274 C1258 0.931 . S
H1275 C1263 0.929 . S
H1276 C1264 0.960 . S
H1277 C1264 0.962 . S
H1278 C1264 0.960 . S
H1279 C1265 0.961 . S
H1280 C1265 0.961 . S
H1281 C1265 0.961 . S
H1282 C1266 0.931 . S
H1283 C1271 0.930 . S
H1284 C1272 0.956 . S
H1285 C1272 0.961 . S
H1286 C1272 0.961 . S
H1287 C1273 0.958 . S
H1288 C1273 0.961 . S
H1289 C1273 0.960 . S
C1290 C1291 1.391 . S
C1290 C1292 1.394 . S
C1290 H1306 0.931 . S
C1291 C1290 1.391 . S
C1291 C1295 1.376 . S
C1292 C1290 1.394 . S
C1292 C1293 1.369 . S
C1292 C1296 1.531 . S
C1293 C1292 1.369 . S
C1293 C1294 1.410 . S
C1293 C1301 1.503 . S
C1294 C1293 1.410 . S
C1294 C1295 1.392 . S
C1294 C1297 1.511 . S
C1295 C1291 1.376 . S
C1295 C1294 1.392 . S
C1295 H1307 0.929 . S
C1296 C1292 1.531 . S
C1296 H1308 0.960 . S
C1296 H1309 0.962 . S
C1296 H1310 0.960 . S
C1297 C1294 1.511 . S
C1297 H1311 0.961 . S
C1297 H1312 0.961 . S
C1297 H1313 0.961 . S
C1298 C1299 1.370 . S
C1298 C1300 1.363 . S
C1298 H1314 0.931 . S
C1299 C1298 1.370 . S
C1299 C1303 1.408 . S
C1300 C1298 1.363 . S
C1300 C1301 1.370 . S
C1300 C1304 1.524 . S
C1301 C1293 1.503 . S
C1301 C1300 1.370 . S
C1301 C1302 1.403 . S
C1302 C1301 1.403 . S
C1302 C1303 1.404 . S
C1302 C1305 1.539 . S
C1303 C1299 1.408 . S
C1303 C1302 1.404 . S
C1303 H1315 0.930 . S
C1304 C1300 1.524 . S
C1304 H1316 0.956 . S
C1304 H1317 0.961 . S
C1304 H1318 0.961 . S
C1305 C1302 1.539 . S
C1305 H1319 0.958 . S
C1305 H1320 0.961 . S
C1305 H1321 0.960 . S
H1306 C1290 0.931 . S
H1307 C1295 0.929 . S
H1308 C1296 0.960 . S
H1309 C1296 0.962 . S
H1310 C1296 0.960 . S
H1311 C1297 0.961 . S
H1312 C1297 0.961 . S
H1313 C1297 0.961 . S
H1314 C1298 0.931 . S
H1315 C1303 0.930 . S
H1316 C1304 0.956 . S
H1317 C1304 0.961 . S
H1318 C1304 0.961 . S
H1319 C1305 0.958 . S
H1320 C1305 0.961 . S
H1321 C1305 0.960 . S
C1322 C1323 1.391 . S
C1322 C1324 1.394 . S
C1322 H1338 0.931 . S
C1323 C1322 1.391 . S
C1323 C1327 1.376 . S
C1324 C1322 1.394 . S
C1324 C1325 1.369 . S
C1324 C1328 1.531 . S
C1325 C1324 1.369 . S
C1325 C1326 1.410 . S
C1325 C1333 1.503 . S
C1326 C1325 1.410 . S
C1326 C1327 1.392 . S
C1326 C1329 1.511 . S
C1327 C1323 1.376 . S
C1327 C1326 1.392 . S
C1327 H1339 0.929 . S
C1328 C1324 1.531 . S
C1328 H1340 0.960 . S
C1328 H1341 0.962 . S
C1328 H1342 0.960 . S
C1329 C1326 1.511 . S
C1329 H1343 0.961 . S
C1329 H1344 0.961 . S
C1329 H1345 0.961 . S
C1330 C1331 1.370 . S
C1330 C1332 1.363 . S
C1330 H1346 0.931 . S
C1331 C1330 1.370 . S
C1331 C1335 1.408 . S
C1332 C1330 1.363 . S
C1332 C1333 1.370 . S
C1332 C1336 1.524 . S
C1333 C1325 1.503 . S
C1333 C1332 1.370 . S
C1333 C1334 1.403 . S
C1334 C1333 1.403 . S
C1334 C1335 1.404 . S
C1334 C1337 1.539 . S
C1335 C1331 1.408 . S
C1335 C1334 1.404 . S
C1335 H1347 0.930 . S
C1336 C1332 1.524 . S
C1336 H1348 0.956 . S
C1336 H1349 0.961 . S
C1336 H1350 0.961 . S
C1337 C1334 1.539 . S
C1337 H1351 0.958 . S
C1337 H1352 0.961 . S
C1337 H1353 0.960 . S
H1338 C1322 0.931 . S
H1339 C1327 0.929 . S
H1340 C1328 0.960 . S
H1341 C1328 0.962 . S
H1342 C1328 0.960 . S
H1343 C1329 0.961 . S
H1344 C1329 0.961 . S
H1345 C1329 0.961 . S
H1346 C1330 0.931 . S
H1347 C1335 0.930 . S
H1348 C1336 0.956 . S
H1349 C1336 0.961 . S
H1350 C1336 0.961 . S
H1351 C1337 0.958 . S
H1352 C1337 0.961 . S
H1353 C1337 0.960 . S
C1354 C1355 1.391 . S
C1354 C1356 1.394 . S
C1354 H1370 0.931 . S
C1355 C1354 1.391 . S
C1355 C1359 1.376 . S
C1356 C1354 1.394 . S
C1356 C1357 1.369 . S
C1356 C1360 1.531 . S
C1357 C1356 1.369 . S
C1357 C1358 1.410 . S
C1357 C1365 1.503 . S
C1358 C1357 1.410 . S
C1358 C1359 1.392 . S
C1358 C1361 1.511 . S
C1359 C1355 1.376 . S
C1359 C1358 1.392 . S
C1359 H1371 0.929 . S
C1360 C1356 1.531 . S
C1360 H1372 0.960 . S
C1360 H1373 0.962 . S
C1360 H1374 0.960 . S
C1361 C1358 1.511 . S
C1361 H1375 0.961 . S
C1361 H1376 0.961 . S
C1361 H1377 0.961 . S
C1362 C1363 1.370 . S
C1362 C1364 1.363 . S
C1362 H1378 0.931 . S
C1363 C1362 1.370 . S
C1363 C1367 1.408 . S
C1364 C1362 1.363 . S
C1364 C1365 1.370 . S
C1364 C1368 1.524 . S
C1365 C1357 1.503 . S
C1365 C1364 1.370 . S
C1365 C1366 1.403 . S
C1366 C1365 1.403 . S
C1366 C1367 1.404 . S
C1366 C1369 1.539 . S
C1367 C1363 1.408 . S
C1367 C1366 1.404 . S
C1367 H1379 0.930 . S
C1368 C1364 1.524 . S
C1368 H1380 0.956 . S
C1368 H1381 0.961 . S
C1368 H1382 0.961 . S
C1369 C1366 1.539 . S
C1369 H1383 0.958 . S
C1369 H1384 0.961 . S
C1369 H1385 0.960 . S
H1370 C1354 0.931 . S
H1371 C1359 0.929 . S
H1372 C1360 0.960 . S
H1373 C1360 0.962 . S
H1374 C1360 0.960 . S
H1375 C1361 0.961 . S
H1376 C1361 0.961 . S
H1377 C1361 0.961 . S
H1378 C1362 0.931 . S
H1379 C1367 0.930 . S
H1380 C1368 0.956 . S
H1381 C1368 0.961 . S
H1382 C1368 0.961 . S
H1383 C1369 0.958 . S
H1384 C1369 0.961 . S
H1385 C1369 0.960 . S
C235 C231 1.894 . S
C243 C10 1.896 . S
C267 C205 1.890 . S
C275 C17 1.897 . S
C299 C218 1.890 . S
C307 C30 1.896 . S
C331 C101 1.890 . S
C339 C49 1.896 . S
C363 C114 1.893 . S
C371 C62 1.896 . S
C395 C69 1.894 . S
C403 C88 1.897 . S
C427 C127 1.893 . S
C435 C173 1.896 . S
C459 C134 1.893 . S
C467 C186 1.897 . S
C491 C153 1.893 . S
C499 C166 1.896 . S
C523 C3 0.349 . S
C531 C224 0.355 . S
C555 C198 0.344 . S
C563 C18 0.331 . S
C587 C31 0.307 . S
C595 C211 0.347 . S
C619 C94 0.285 . S
C627 C42 0.365 . S
C651 C55 0.398 . S
C659 C107 0.314 . S
C683 C70 0.320 . S
C691 C81 0.363 . S
C715 C120 0.375 . S
C723 C174 0.344 . S
C747 C187 0.288 . S
C755 C135 0.366 . S
C779 C159 0.403 . S
C787 C146 0.314 . S
C811 C4 1.861 . S
C819 C43 1.853 . S
C843 C56 1.869 . S
C851 C23 1.856 . S
C875 C75 1.871 . S
C883 C36 1.852 . S
C907 C68 1.727 . S
C915 C16 1.737 . S
C939 C29 1.727 . S
C947 C44 1.738 . S
C971 C57 1.740 . S
C979 C5 1.738 . S
C1003 C82 1.856 . S
C1011 C121 1.861 . S
C1035 C140 1.870 . S
C1043 C95 1.852 . S
C1067 C147 1.853 . S
C1075 C108 1.863 . S
C1099 C148 1.728 . S
C1107 C96 1.739 . S
C1131 C109 1.741 . S
C1139 C122 1.739 . S
C1163 C133 1.738 . S
C1171 C83 1.737 . S
C1195 C199 1.870 . S
C1203 C160 1.854 . S
C1227 C212 1.848 . S
C1235 C179 1.865 . S
C1259 C192 1.861 . S
C1267 C225 1.853 . S
C1291 C226 1.726 . S
C1299 C172 1.736 . S
C1323 C185 1.737 . S
C1331 C200 1.736 . S
C1355 C213 1.731 . S
C1363 C161 1.740 . S
