# Generated by pormake.
# Topology fnq, (5)-cn, num edge types: 1
# Building blocks:
#     Node 0, Type 0, BuildingBlock: BEQFEK_clean_sbu_0, # of connection points: 5
#     Node 1, Type 0, BuildingBlock: BEQFEK_clean_sbu_0, # of connection points: 5
#     Node 2, Type 0, BuildingBlock: BEQFEK_clean_sbu_0, # of connection points: 5
#     Node 3, Type 0, BuildingBlock: BEQFEK_clean_sbu_0, # of connection points: 5
#     Node 4, Type 0, BuildingBlock: BEQFEK_clean_sbu_0, # of connection points: 5
#     Node 5, Type 0, BuildingBlock: BEQFEK_clean_sbu_0, # of connection points: 5
#     Node 6, Type 0, BuildingBlock: BEQFEK_clean_sbu_0, # of connection points: 5
#     Node 7, Type 0, BuildingBlock: BEQFEK_clean_sbu_0, # of connection points: 5
#     Node 8, Type 0, BuildingBlock: BEQFEK_clean_sbu_0, # of connection points: 5
#     Node 9, Type 0, BuildingBlock: BEQFEK_clean_sbu_0, # of connection points: 5
#     Node 10, Type 0, BuildingBlock: BEQFEK_clean_sbu_0, # of connection points: 5
#     Node 11, Type 0, BuildingBlock: BEQFEK_clean_sbu_0, # of connection points: 5
#     Node 12, Type 0, BuildingBlock: BEQFEK_clean_sbu_0, # of connection points: 5
#     Node 13, Type 0, BuildingBlock: BEQFEK_clean_sbu_0, # of connection points: 5
#     Node 14, Type 0, BuildingBlock: BEQFEK_clean_sbu_0, # of connection points: 5
#     Node 15, Type 0, BuildingBlock: BEQFEK_clean_sbu_0, # of connection points: 5
#     Node 16, Type 0, BuildingBlock: BEQFEK_clean_sbu_0, # of connection points: 5
#     Node 17, Type 0, BuildingBlock: BEQFEK_clean_sbu_0, # of connection points: 5
#     Edge 18, Type (0, 0), BuildingBlock: ZUJKAS_clean_linker_0, # of connection points: 2
#     Edge 19, Type (0, 0), BuildingBlock: ZUJKAS_clean_linker_0, # of connection points: 2
#     Edge 20, Type (0, 0), BuildingBlock: ZUJKAS_clean_linker_0, # of connection points: 2
#     Edge 21, Type (0, 0), BuildingBlock: ZUJKAS_clean_linker_0, # of connection points: 2
#     Edge 22, Type (0, 0), BuildingBlock: ZUJKAS_clean_linker_0, # of connection points: 2
#     Edge 23, Type (0, 0), BuildingBlock: ZUJKAS_clean_linker_0, # of connection points: 2
#     Edge 24, Type (0, 0), BuildingBlock: ZUJKAS_clean_linker_0, # of connection points: 2
#     Edge 25, Type (0, 0), BuildingBlock: ZUJKAS_clean_linker_0, # of connection points: 2
#     Edge 26, Type (0, 0), BuildingBlock: ZUJKAS_clean_linker_0, # of connection points: 2
#     Edge 27, Type (0, 0), BuildingBlock: ZUJKAS_clean_linker_0, # of connection points: 2
#     Edge 28, Type (0, 0), BuildingBlock: ZUJKAS_clean_linker_0, # of connection points: 2
#     Edge 29, Type (0, 0), BuildingBlock: ZUJKAS_clean_linker_0, # of connection points: 2
#     Edge 30, Type (0, 0), BuildingBlock: ZUJKAS_clean_linker_0, # of connection points: 2
#     Edge 31, Type (0, 0), BuildingBlock: ZUJKAS_clean_linker_0, # of connection points: 2
#     Edge 32, Type (0, 0), BuildingBlock: ZUJKAS_clean_linker_0, # of connection points: 2
#     Edge 33, Type (0, 0), BuildingBlock: ZUJKAS_clean_linker_0, # of connection points: 2
#     Edge 34, Type (0, 0), BuildingBlock: ZUJKAS_clean_linker_0, # of connection points: 2
#     Edge 35, Type (0, 0), BuildingBlock: ZUJKAS_clean_linker_0, # of connection points: 2
#     Edge 36, Type (0, 0), BuildingBlock: ZUJKAS_clean_linker_0, # of connection points: 2
#     Edge 37, Type (0, 0), BuildingBlock: ZUJKAS_clean_linker_0, # of connection points: 2
#     Edge 38, Type (0, 0), BuildingBlock: ZUJKAS_clean_linker_0, # of connection points: 2
#     Edge 39, Type (0, 0), BuildingBlock: ZUJKAS_clean_linker_0, # of connection points: 2
#     Edge 40, Type (0, 0), BuildingBlock: ZUJKAS_clean_linker_0, # of connection points: 2
#     Edge 41, Type (0, 0), BuildingBlock: ZUJKAS_clean_linker_0, # of connection points: 2
#     Edge 42, Type (0, 0), BuildingBlock: ZUJKAS_clean_linker_0, # of connection points: 2
#     Edge 43, Type (0, 0), BuildingBlock: ZUJKAS_clean_linker_0, # of connection points: 2
#     Edge 44, Type (0, 0), BuildingBlock: ZUJKAS_clean_linker_0, # of connection points: 2
#     Edge 45, Type (0, 0), BuildingBlock: ZUJKAS_clean_linker_0, # of connection points: 2
#     Edge 46, Type (0, 0), BuildingBlock: ZUJKAS_clean_linker_0, # of connection points: 2
#     Edge 47, Type (0, 0), BuildingBlock: ZUJKAS_clean_linker_0, # of connection points: 2
#     Edge 48, Type (0, 0), BuildingBlock: ZUJKAS_clean_linker_0, # of connection points: 2
#     Edge 49, Type (0, 0), BuildingBlock: ZUJKAS_clean_linker_0, # of connection points: 2
#     Edge 50, Type (0, 0), BuildingBlock: ZUJKAS_clean_linker_0, # of connection points: 2
#     Edge 51, Type (0, 0), BuildingBlock: ZUJKAS_clean_linker_0, # of connection points: 2
#     Edge 52, Type (0, 0), BuildingBlock: ZUJKAS_clean_linker_0, # of connection points: 2
#     Edge 53, Type (0, 0), BuildingBlock: ZUJKAS_clean_linker_0, # of connection points: 2
#     Edge 54, Type (0, 0), BuildingBlock: ZUJKAS_clean_linker_0, # of connection points: 2
#     Edge 55, Type (0, 0), BuildingBlock: ZUJKAS_clean_linker_0, # of connection points: 2
#     Edge 56, Type (0, 0), BuildingBlock: ZUJKAS_clean_linker_0, # of connection points: 2
#     Edge 57, Type (0, 0), BuildingBlock: ZUJKAS_clean_linker_0, # of connection points: 2
#     Edge 58, Type (0, 0), BuildingBlock: ZUJKAS_clean_linker_0, # of connection points: 2
#     Edge 59, Type (0, 0), BuildingBlock: ZUJKAS_clean_linker_0, # of connection points: 2
#     Edge 60, Type (0, 0), BuildingBlock: ZUJKAS_clean_linker_0, # of connection points: 2
#     Edge 61, Type (0, 0), BuildingBlock: ZUJKAS_clean_linker_0, # of connection points: 2
#     Edge 62, Type (0, 0), BuildingBlock: ZUJKAS_clean_linker_0, # of connection points: 2
# Relax obj value: 0.326
# Max RMSD: 0.234
# Mean RMSD: 0.220
data_MOF--net-fnq--node1-BEQFEK_clean_sbu_0--edge1-ZUJKAS_clean_linker_0
_symmetry_space_group_name_H-M    P1
_symmetry_Int_Tables_number       1
_symmetry_cell_setting            triclinic
loop_
_symmetry_equiv_pos_as_xyz
'x, y, z'
_cell_length_a     65.09512
_cell_length_b     65.037018
_cell_length_c     46.822277
_cell_angle_alpha  89.931057
_cell_angle_beta   90.027409
_cell_angle_gamma 119.95174
loop_
_atom_site_label
_atom_site_type_symbol
_atom_site_fract_x
_atom_site_fract_y
_atom_site_fract_z
_atom_type_partial_charge
Co0 Co 0.18882 0.37026 0.13293 0.0
Co1 Co 0.18414 0.32046 0.13685 0.0
C2 C 0.23212 0.36469 0.13215 0.0
O3 O 0.2224 0.37741 0.12984 0.0
O4 O 0.21942 0.34223 0.13446 0.0
C5 C 0.20646 0.41941 0.13707 0.0
O6 O 0.2238 0.41842 0.15014 0.0
C7 C 0.18785 0.28104 0.11461 0.0
C8 C 0.16136 0.2504 0.13969 0.0
C9 C 0.17724 0.25663 0.11725 0.0
N10 N 0.17829 0.28886 0.13409 0.0
N11 N 0.16272 0.27057 0.14936 0.0
C12 C 0.2068 0.29702 0.09407 0.0
H13 H 0.22295 0.30925 0.10627 0.0
H14 H 0.20098 0.30806 0.08235 0.0
H15 H 0.21155 0.28707 0.07879 0.0
C16 C 0.14877 0.34477 0.09191 0.0
N17 N 0.16681 0.34626 0.10781 0.0
N18 N 0.16547 0.32542 0.10843 0.0
C19 C 0.14687 0.31014 0.09215 0.0
C20 C 0.1353 0.32171 0.0813 0.0
C21 C 0.14265 0.3641 0.09066 0.0
H22 H 0.14591 0.37295 0.11174 0.0
H23 H 0.15427 0.37757 0.07475 0.0
H24 H 0.12386 0.3572 0.08464 0.0
O25 O 0.17856 0.36065 0.17281 0.0
O26 O 0.1744 0.32467 0.17574 0.0
H27 H 0.13285 0.27458 0.10739 0.0
H28 H 0.12686 0.27652 0.06999 0.0
C29 C 0.14009 0.28477 0.08734 0.0
H30 H 0.15597 0.28382 0.08113 0.0
H31 H 0.1525 0.27175 0.16575 0.0
O32 O 0.1893 0.40048 0.12695 0.0
C33 C 0.17345 0.342 0.18707 0.0
Co34 Co 0.66914 0.83257 0.1292 0.0
Co35 Co 0.71932 0.87641 0.13677 0.0
C36 C 0.67549 0.88138 0.13045 0.0
O37 O 0.66235 0.85917 0.12653 0.0
O38 O 0.69774 0.89036 0.13418 0.0
C39 C 0.62037 0.80067 0.13367 0.0
O40 O 0.62141 0.81877 0.14739 0.0
C41 C 0.75853 0.91894 0.11407 0.0
C42 C 0.78901 0.92486 0.14075 0.0
C43 C 0.78272 0.93367 0.11742 0.0
N44 N 0.7508 0.90228 0.13447 0.0
N45 N 0.76899 0.90601 0.15065 0.0
C46 C 0.74328 0.91889 0.09008 0.0
H47 H 0.72745 0.90102 0.08757 0.0
H48 H 0.75343 0.92434 0.06977 0.0
H49 H 0.73721 0.93169 0.09498 0.0
C50 C 0.69471 0.81935 0.08675 0.0
N51 N 0.69351 0.83511 0.10446 0.0
N52 N 0.71486 0.85351 0.10777 0.0
C53 C 0.73038 0.84998 0.09223 0.0
C54 C 0.71818 0.82815 0.07828 0.0
C55 C 0.67392 0.79564 0.07963 0.0
H56 H 0.65821 0.79755 0.07515 0.0
H57 H 0.67765 0.78761 0.06087 0.0
H58 H 0.66969 0.78366 0.09831 0.0
O59 O 0.67783 0.83096 0.16941 0.0
O60 O 0.71416 0.86163 0.17513 0.0
H61 H 0.76624 0.85714 0.08418 0.0
H62 H 0.76213 0.8826 0.08337 0.0
C63 C 0.75674 0.86546 0.09417 0.0
H64 H 0.76207 0.8691 0.11691 0.0
H65 H 0.76788 0.89523 0.16779 0.0
O66 O 0.63919 0.80278 0.12269 0.0
C67 C 0.69594 0.84333 0.185 0.0
Co68 Co 0.20847 0.84558 0.13404 0.0
Co69 Co 0.16395 0.8514 0.13614 0.0
C70 C 0.15939 0.80288 0.13247 0.0
O71 O 0.1818 0.81216 0.13079 0.0
O72 O 0.15002 0.81599 0.1341 0.0
C73 C 0.23975 0.82829 0.14252 0.0
O74 O 0.2213 0.81195 0.15652 0.0
C75 C 0.1217 0.84869 0.11204 0.0
C76 C 0.11867 0.87667 0.13517 0.0
C77 C 0.10892 0.86048 0.11306 0.0
N78 N 0.1387 0.85795 0.13201 0.0
N79 N 0.13656 0.87436 0.14619 0.0
C80 C 0.11834 0.82918 0.09219 0.0
H81 H 0.11531 0.81354 0.10493 0.0
H82 H 0.13473 0.83499 0.07951 0.0
H83 H 0.10296 0.82365 0.07776 0.0
C84 C 0.2244 0.88539 0.09233 0.0
N85 N 0.20741 0.86772 0.10824 0.0
N86 N 0.18823 0.86962 0.10814 0.0
C87 C 0.19221 0.88821 0.09131 0.0
C88 C 0.21544 0.89919 0.0809 0.0
C89 C 0.24964 0.89089 0.0918 0.0
H90 H 0.25487 0.8879 0.11327 0.0
H91 H 0.2513 0.87872 0.07661 0.0
H92 H 0.26193 0.9095 0.08532 0.0
O93 O 0.20851 0.85611 0.17351 0.0
O94 O 0.17716 0.86106 0.17544 0.0
H95 H 0.17111 0.90315 0.10505 0.0
H96 H 0.17959 0.90852 0.06776 0.0
C97 C 0.17412 0.89548 0.08544 0.0
H98 H 0.15722 0.87973 0.07916 0.0
H99 H 0.14791 0.88465 0.16257 0.0
O100 O 0.23811 0.84469 0.12982 0.0
C101 C 0.1951 0.86164 0.18728 0.0
Co102 Co 0.37314 0.17794 0.8727 0.0
Co103 Co 0.32347 0.17343 0.87552 0.0
C104 C 0.36815 0.22134 0.87784 0.0
O105 O 0.38078 0.21145 0.87779 0.0
O106 O 0.34561 0.2088 0.87742 0.0
C107 C 0.41851 0.19385 0.85435 0.0
O108 O 0.41244 0.20741 0.84009 0.0
C109 C 0.28601 0.17594 0.90559 0.0
C110 C 0.25404 0.15311 0.88003 0.0
C111 C 0.26173 0.16662 0.90467 0.0
N112 N 0.29246 0.168 0.88285 0.0
N113 N 0.27335 0.15459 0.86739 0.0
C114 C 0.30298 0.19216 0.92772 0.0
H115 H 0.3206 0.19361 0.92521 0.0
H116 H 0.29619 0.18572 0.94952 0.0
H117 H 0.30489 0.21001 0.92533 0.0
C118 C 0.35082 0.13781 0.9145 0.0
N119 N 0.35122 0.15585 0.89961 0.0
N120 N 0.33036 0.15438 0.90148 0.0
C121 C 0.31618 0.13559 0.91827 0.0
C122 C 0.32847 0.12414 0.92692 0.0
C123 C 0.37034 0.132 0.91338 0.0
H124 H 0.37852 0.13601 0.89185 0.0
H125 H 0.38422 0.14323 0.92907 0.0
H126 H 0.36379 0.11306 0.91845 0.0
O127 O 0.36015 0.1678 0.83399 0.0
O128 O 0.32423 0.16372 0.83532 0.0
H129 H 0.28019 0.12356 0.90614 0.0
H130 H 0.28325 0.11393 0.94145 0.0
C131 C 0.29117 0.12864 0.92578 0.0
H132 H 0.29099 0.14397 0.93563 0.0
H133 H 0.27341 0.14597 0.84862 0.0
O134 O 0.40382 0.17883 0.87203 0.0
C135 C 0.34072 0.16272 0.8218 0.0
Co136 Co 0.85526 0.20107 0.87827 0.0
Co137 Co 0.85984 0.15582 0.87595 0.0
C138 C 0.81194 0.15215 0.88084 0.0
O139 O 0.82174 0.17465 0.88217 0.0
O140 O 0.82454 0.14224 0.87896 0.0
C141 C 0.83798 0.23273 0.87215 0.0
O142 O 0.82089 0.21434 0.85889 0.0
C143 C 0.85563 0.11214 0.8976 0.0
C144 C 0.88434 0.10994 0.87517 0.0
C145 C 0.86682 0.0988 0.89566 0.0
N146 N 0.86602 0.13027 0.87913 0.0
N147 N 0.88292 0.1287 0.86541 0.0
C148 C 0.83774 0.10987 0.91935 0.0
H149 H 0.83899 0.12731 0.92304 0.0
H150 H 0.84042 0.10298 0.93988 0.0
H151 H 0.8197 0.09728 0.91132 0.0
C152 C 0.89556 0.2163 0.91915 0.0
N153 N 0.87749 0.19953 0.90351 0.0
N154 N 0.87867 0.17995 0.90372 0.0
C155 C 0.89714 0.1834 0.92038 0.0
C156 C 0.90884 0.20673 0.93054 0.0
C157 C 0.90186 0.24181 0.91953 0.0
H158 H 0.89797 0.24689 0.89846 0.0
H159 H 0.89089 0.24422 0.93585 0.0
H160 H 0.92087 0.25373 0.92455 0.0
O161 O 0.8651 0.20099 0.83844 0.0
O162 O 0.86901 0.169 0.83655 0.0
H163 H 0.91203 0.16213 0.90723 0.0
H164 H 0.91572 0.16942 0.94487 0.0
C165 C 0.90353 0.16468 0.92639 0.0
H166 H 0.88731 0.14772 0.93135 0.0
H167 H 0.89412 0.14097 0.85027 0.0
O168 O 0.85484 0.23093 0.88326 0.0
C169 C 0.86993 0.18708 0.82461 0.0
Co170 Co 0.83718 0.66728 0.87892 0.0
Co171 Co 0.88273 0.71673 0.87437 0.0
C172 C 0.88585 0.67215 0.87982 0.0
O173 O 0.86337 0.65964 0.88162 0.0
O174 O 0.89587 0.69465 0.87778 0.0
C175 C 0.80473 0.61736 0.88201 0.0
O176 O 0.82313 0.61576 0.87365 0.0
C177 C 0.9264 0.75531 0.89596 0.0
C178 C 0.9305 0.78667 0.87251 0.0
C179 C 0.94061 0.7797 0.89373 0.0
N180 N 0.90876 0.74813 0.87693 0.0
N181 N 0.91143 0.76685 0.86262 0.0
C182 C 0.92739 0.73941 0.91842 0.0
H183 H 0.9095 0.72387 0.92205 0.0
H184 H 0.93434 0.7491 0.93883 0.0
H185 H 0.93935 0.73291 0.9111 0.0
C186 C 0.82368 0.69323 0.92029 0.0
N187 N 0.83992 0.69162 0.90392 0.0
N188 N 0.85923 0.71252 0.90243 0.0
C189 C 0.85597 0.72808 0.91826 0.0
C190 C 0.83321 0.71651 0.93003 0.0
C191 C 0.79845 0.67367 0.92274 0.0
H192 H 0.79136 0.6668 0.90113 0.0
H193 H 0.79781 0.65886 0.93525 0.0
H194 H 0.78702 0.67965 0.93309 0.0
O195 O 0.83628 0.67672 0.83888 0.0
O196 O 0.86911 0.71192 0.83531 0.0
H197 H 0.87617 0.7629 0.90052 0.0
H198 H 0.86893 0.76258 0.93789 0.0
C199 C 0.87403 0.75382 0.92128 0.0
H200 H 0.89129 0.75566 0.92739 0.0
H201 H 0.89971 0.76622 0.84697 0.0
O202 O 0.80701 0.63772 0.88605 0.0
C203 C 0.85044 0.6949 0.82428 0.0
Co204 Co 0.85706 0.70372 0.46676 0.0
Co205 Co 0.85201 0.65367 0.46834 0.0
C206 C 0.90004 0.69728 0.46397 0.0
O207 O 0.8904 0.71015 0.46332 0.0
O208 O 0.88728 0.67477 0.46505 0.0
C209 C 0.87546 0.75209 0.47589 0.0
O210 O 0.89116 0.74882 0.48973 0.0
C211 C 0.85429 0.61371 0.44494 0.0
C212 C 0.82768 0.58329 0.47021 0.0
C213 C 0.84327 0.58927 0.4475 0.0
N214 N 0.84527 0.62182 0.46477 0.0
N215 N 0.82961 0.60364 0.48012 0.0
C216 C 0.87324 0.62947 0.42427 0.0
H217 H 0.88994 0.64045 0.43623 0.0
H218 H 0.86832 0.64178 0.41397 0.0
H219 H 0.87663 0.61929 0.40782 0.0
C220 C 0.8168 0.67953 0.42564 0.0
N221 N 0.8348 0.68049 0.44113 0.0
N222 N 0.83324 0.65954 0.44086 0.0
C223 C 0.81457 0.64477 0.42432 0.0
C224 C 0.80315 0.65675 0.41432 0.0
C225 C 0.81093 0.69905 0.42531 0.0
H226 H 0.81564 0.70848 0.44608 0.0
H227 H 0.82149 0.71199 0.40837 0.0
H228 H 0.79182 0.69214 0.42109 0.0
O229 O 0.84642 0.69325 0.50621 0.0
O230 O 0.84341 0.65769 0.50805 0.0
H231 H 0.80033 0.60873 0.43785 0.0
H232 H 0.79463 0.6119 0.40068 0.0
C233 C 0.80774 0.61955 0.41824 0.0
H234 H 0.82362 0.61873 0.41172 0.0
H235 H 0.81976 0.60505 0.49681 0.0
O236 O 0.85867 0.73466 0.4628 0.0
C237 C 0.84195 0.67456 0.51993 0.0
Co238 Co 0.3316 0.1632 0.46142 0.0
Co239 Co 0.38207 0.20608 0.47029 0.0
C240 C 0.33862 0.21197 0.46259 0.0
O241 O 0.32514 0.1899 0.45799 0.0
O242 O 0.36071 0.22033 0.46714 0.0
C243 C 0.28275 0.13114 0.46571 0.0
O244 O 0.28353 0.14926 0.47911 0.0
C245 C 0.42284 0.24474 0.44374 0.0
C246 C 0.45058 0.25761 0.47703 0.0
C247 C 0.44642 0.26116 0.44889 0.0
N248 N 0.41362 0.23173 0.4674 0.0
N249 N 0.43021 0.23947 0.48733 0.0
C250 C 0.4087 0.24205 0.41735 0.0
H251 H 0.38947 0.23265 0.42225 0.0
H252 H 0.4119 0.23139 0.40137 0.0
H253 H 0.4141 0.25968 0.40784 0.0
C254 C 0.35704 0.14948 0.4193 0.0
N255 N 0.35609 0.16526 0.43723 0.0
N256 N 0.37771 0.18269 0.44212 0.0
C257 C 0.39321 0.17816 0.42811 0.0
C258 C 0.3807 0.15703 0.41279 0.0
C259 C 0.33564 0.12708 0.40976 0.0
H260 H 0.32057 0.13026 0.40645 0.0
H261 H 0.3392 0.12038 0.38966 0.0
H262 H 0.33055 0.11341 0.42667 0.0
O263 O 0.33984 0.16186 0.50213 0.0
O264 O 0.37651 0.19174 0.50871 0.0
H265 H 0.42328 0.19842 0.45542 0.0
H266 H 0.42714 0.17965 0.43039 0.0
C267 C 0.41943 0.19134 0.43337 0.0
H268 H 0.42812 0.20632 0.41811 0.0
H269 H 0.42765 0.23234 0.50788 0.0
O270 O 0.30169 0.13339 0.45496 0.0
C271 C 0.35776 0.17381 0.51821 0.0
Co272 Co 0.87382 0.17812 0.46496 0.0
Co273 Co 0.82943 0.18379 0.46978 0.0
C274 C 0.82556 0.13531 0.46365 0.0
O275 O 0.84788 0.14467 0.4607 0.0
O276 O 0.81623 0.14835 0.46692 0.0
C277 C 0.90608 0.16184 0.47166 0.0
O278 O 0.88774 0.14459 0.48483 0.0
C279 C 0.79004 0.18349 0.44148 0.0
C280 C 0.77814 0.20144 0.47179 0.0
C281 C 0.77411 0.1915 0.44477 0.0
N282 N 0.80335 0.1889 0.46511 0.0
N283 N 0.79606 0.19943 0.48335 0.0
C284 C 0.79241 0.17056 0.41638 0.0
H285 H 0.80372 0.16281 0.42171 0.0
H286 H 0.80062 0.18296 0.39821 0.0
H287 H 0.77461 0.15639 0.40941 0.0
C288 C 0.88865 0.21775 0.42336 0.0
N289 N 0.8721 0.2003 0.43992 0.0
N290 N 0.85373 0.2034 0.4426 0.0
C291 C 0.85823 0.22329 0.42815 0.0
C292 C 0.88051 0.23309 0.41527 0.0
C293 C 0.91307 0.2215 0.41916 0.0
H294 H 0.92199 0.22469 0.44022 0.0
H295 H 0.91182 0.20515 0.41011 0.0
H296 H 0.92393 0.23676 0.4049 0.0
O297 O 0.87342 0.18762 0.50522 0.0
O298 O 0.84229 0.19285 0.509 0.0
H299 H 0.83647 0.23414 0.45051 0.0
H300 H 0.85064 0.25168 0.41902 0.0
C301 C 0.84219 0.23364 0.42835 0.0
H302 H 0.82628 0.22232 0.4154 0.0
H303 H 0.80361 0.20565 0.50342 0.0
O304 O 0.90402 0.17847 0.46024 0.0
C305 C 0.86027 0.19293 0.51998 0.0
Co306 Co 0.04018 0.51298 0.21339 0.0
Co307 Co 0.98977 0.50642 0.2093 0.0
C308 C 0.03384 0.55529 0.21483 0.0
O309 O 0.04706 0.54619 0.21765 0.0
O310 O 1.01151 0.54201 0.21181 0.0
C311 C 0.08863 0.53059 0.20552 0.0
O312 O 0.08636 0.54721 0.19238 0.0
C313 C 0.95062 0.50478 0.23946 0.0
C314 C 0.92135 0.49048 0.20811 0.0
C315 C 0.92697 0.49798 0.23616 0.0
N316 N 0.9586 0.501 0.21479 0.0
N317 N 0.9411 0.49252 0.196 0.0
C318 C 0.96588 0.51591 0.26518 0.0
H319 H 0.98493 0.5243 0.25952 0.0
H320 H 0.96192 0.50216 0.28164 0.0
H321 H 0.96206 0.52932 0.27456 0.0
C322 C 1.01657 0.47393 0.25604 0.0
N323 N 1.0169 0.49084 0.23894 0.0
N324 N 0.99525 0.48728 0.23643 0.0
C325 C 0.98033 0.46756 0.25145 0.0
C326 C 0.99333 0.45852 0.26474 0.0
C327 C 0.03795 0.4718 0.26236 0.0
H328 H 0.05356 0.48968 0.2658 0.0
H329 H 0.03512 0.46061 0.2815 0.0
H330 H 0.04174 0.46368 0.24372 0.0
O331 O 0.02979 0.50311 0.17331 0.0
O332 O 0.99317 0.49723 0.17005 0.0
H333 H 0.94595 0.43565 0.25237 0.0
H334 H 0.9466 0.46188 0.26546 0.0
C335 C 0.95385 0.45503 0.24898 0.0
H336 H 0.94855 0.45803 0.22759 0.0
H337 H 0.9426 0.48803 0.17501 0.0
O338 O 0.07056 0.51354 0.21735 0.0
C339 C 1.0111 0.4974 0.15882 0.0
Co340 Co 0.52343 0.53726 0.211 0.0
Co341 Co 0.52729 0.49157 0.21054 0.0
C342 C 0.4797 0.48867 0.21438 0.0
O343 O 0.4897 0.51121 0.21475 0.0
O344 O 0.49212 0.47853 0.21364 0.0
C345 C 0.50676 0.56923 0.20308 0.0
O346 O 0.48963 0.55069 0.1901 0.0
C347 C 0.52468 0.45051 0.23768 0.0
C348 C 0.54723 0.44195 0.21066 0.0
C349 C 0.53379 0.4354 0.2354 0.0
N350 N 0.53261 0.46562 0.21559 0.0
N351 N 0.54586 0.46029 0.19924 0.0
C352 C 0.50879 0.45084 0.26058 0.0
H353 H 0.5089 0.46795 0.26042 0.0
H354 H 0.51426 0.44794 0.28193 0.0
H355 H 0.49044 0.43621 0.25664 0.0
C356 C 0.56346 0.55301 0.25208 0.0
N357 N 0.54533 0.53591 0.23686 0.0
N358 N 0.54676 0.51646 0.23733 0.0
C359 C 0.56564 0.52045 0.25356 0.0
C360 C 0.57716 0.5439 0.26333 0.0
C361 C 0.5694 0.57842 0.25199 0.0
H362 H 0.56727 0.58364 0.23011 0.0
H363 H 0.55683 0.58037 0.26617 0.0
H364 H 0.58779 0.59053 0.25927 0.0
O365 O 0.5337 0.53638 0.17161 0.0
O366 O 0.53613 0.50346 0.17057 0.0
H367 H 0.57761 0.49697 0.23906 0.0
H368 H 0.58751 0.50842 0.27477 0.0
C369 C 0.57268 0.50216 0.25937 0.0
H370 H 0.55744 0.48628 0.26879 0.0
H371 H 0.55445 0.46955 0.18073 0.0
O372 O 0.52345 0.56744 0.21471 0.0
C373 C 0.53782 0.52176 0.15826 0.0
Co374 Co 0.50142 0.99665 0.21578 0.0
Co375 Co 0.54528 0.04701 0.20917 0.0
C376 C 0.55031 1.00317 0.21513 0.0
O377 O 0.52806 0.98991 0.21842 0.0
O378 O 0.55928 0.0255 0.21198 0.0
C379 C 0.46995 0.94742 0.21259 0.0
O380 O 0.48837 0.94815 0.20009 0.0
C381 C 0.58465 0.08716 0.23588 0.0
C382 C 0.59627 0.11587 0.20391 0.0
C383 C 0.60072 0.11093 0.23129 0.0
N384 N 0.57093 0.07852 0.21266 0.0
N385 N 0.57795 0.09568 0.1935 0.0
C386 C 0.58287 0.07244 0.26141 0.0
H387 H 0.573 0.05329 0.25609 0.0
H388 H 0.57315 0.07555 0.27874 0.0
H389 H 0.60082 0.07746 0.26944 0.0
C390 C 0.48754 0.02153 0.25834 0.0
N391 N 0.50366 0.02067 0.24093 0.0
N392 N 0.52154 0.04228 0.23708 0.0
C393 C 0.51698 0.05768 0.25133 0.0
C394 C 0.49539 0.04507 0.2656 0.0
C395 C 0.46362 1.00066 0.26434 0.0
H396 H 0.45312 0.99524 0.2443 0.0
H397 H 0.4656 0.9855 0.27164 0.0
H398 H 0.45394 1.00484 0.28072 0.0
O399 O 0.50009 1.00605 0.17561 0.0
O400 O 0.53147 0.04215 0.17048 0.0
H401 H 0.53729 0.08927 0.22648 0.0
H402 H 0.52211 0.09313 0.25653 0.0
C403 C 0.53174 0.08414 0.24896 0.0
H404 H 0.54783 0.09045 0.26229 0.0
H405 H 0.57019 0.09366 0.17343 0.0
O406 O 0.47168 0.96653 0.22209 0.0
C407 C 0.51303 0.02427 0.16033 0.0
Co408 Co 0.51916 0.03108 0.80537 0.0
Co409 Co 0.51541 0.98176 0.80773 0.0
C410 C 0.5631 0.02708 0.80458 0.0
O411 O 0.5531 0.03959 0.80312 0.0
O412 O 0.55066 1.00452 0.8058 0.0
C413 C 0.53048 0.07771 0.78478 0.0
O414 O 0.54373 0.07552 0.76524 0.0
C415 C 0.51785 0.94275 0.78119 0.0
C416 C 0.49739 0.91286 0.81082 0.0
C417 C 0.50945 0.91875 0.78506 0.0
N418 N 0.5106 0.95065 0.80327 0.0
N419 N 0.49854 0.93278 0.82107 0.0
C420 C 0.53297 0.95815 0.75721 0.0
H421 H 0.54222 0.97709 0.76343 0.0
H422 H 0.52171 0.95601 0.73843 0.0
H423 H 0.5461 0.95286 0.7508 0.0
C424 C 0.48095 1.00696 0.76201 0.0
N425 N 0.49837 1.00793 0.7787 0.0
N426 N 0.4962 0.98674 0.78009 0.0
C427 C 0.47713 0.97153 0.76437 0.0
C428 C 0.46673 0.98378 0.75227 0.0
C429 C 0.476 0.02702 0.75926 0.0
H430 H 0.47523 0.03365 0.78082 0.0
H431 H 0.49077 0.0418 0.74745 0.0
H432 H 0.45908 0.02163 0.74798 0.0
O433 O 0.5077 0.01959 0.84453 0.0
O434 O 0.50538 0.98437 0.84698 0.0
H435 H 0.46496 0.93767 0.7842 0.0
H436 H 0.45173 0.93599 0.7496 0.0
C437 C 0.46816 0.94541 0.76243 0.0
H438 H 0.4817 0.94248 0.752 0.0
H439 H 0.49082 0.9341 0.83999 0.0
O440 O 0.51852 0.06077 0.80201 0.0
C441 C 0.5032 1.00096 0.85841 0.0
Co442 Co 1.00064 0.49619 0.80022 0.0
Co443 Co 0.05092 0.54028 0.80513 0.0
C444 C 1.00697 0.5451 0.80007 0.0
O445 O 0.99379 0.52276 0.79727 0.0
O446 O 0.02934 0.55425 0.80284 0.0
C447 C 0.95184 0.46438 0.80603 0.0
O448 O 0.95302 0.48266 0.81947 0.0
C449 C 0.08972 0.58267 0.78141 0.0
C450 C 0.12086 0.58807 0.80634 0.0
C451 C 0.11403 0.5971 0.78375 0.0
N452 N 0.08242 0.56594 0.80168 0.0
N453 N 0.10101 0.56937 0.81683 0.0
C454 C 0.0739 0.58299 0.7584 0.0
H455 H 0.05802 0.56515 0.75591 0.0
H456 H 0.08353 0.5888 0.73777 0.0
H457 H 0.06794 0.59569 0.7644 0.0
C458 C 0.025 0.48205 0.75707 0.0
N459 N 0.02429 0.49818 0.77458 0.0
N460 N 0.04567 0.51678 0.77662 0.0
C461 C 0.0607 0.51302 0.7604 0.0
C462 C 0.04816 0.49082 0.74736 0.0
C463 C 1.00411 0.45808 0.75126 0.0
H464 H 0.98825 0.45977 0.74699 0.0
H465 H 1.00739 0.44946 0.73275 0.0
H466 H 1.00041 0.44674 0.77046 0.0
O467 O 1.01042 0.49535 0.84016 0.0
O468 O 0.0468 0.52632 0.84382 0.0
H469 H 0.09632 0.52066 0.74967 0.0
H470 H 0.0918 0.54587 0.75032 0.0
C471 C 0.08708 0.52876 0.76078 0.0
H472 H 0.09334 0.53241 0.78319 0.0
H473 H 0.10027 0.55846 0.83365 0.0
O474 O 0.97053 0.46633 0.79487 0.0
C475 C 0.02904 0.50822 0.85476 0.0
Co476 Co 0.54163 0.51271 0.80132 0.0
Co477 Co 0.49676 0.51776 0.80277 0.0
C478 C 0.49345 0.46955 0.79868 0.0
O479 O 0.51589 0.47911 0.79736 0.0
O480 O 0.48378 0.4824 0.80029 0.0
C481 C 0.57337 0.49744 0.81426 0.0
O482 O 0.55465 0.48195 0.82863 0.0
C483 C 0.45928 0.51844 0.77105 0.0
C484 C 0.44439 0.53384 0.80099 0.0
C485 C 0.44265 0.52566 0.77328 0.0
N486 N 0.47079 0.52265 0.79599 0.0
N487 N 0.46177 0.53173 0.81395 0.0
C488 C 0.46365 0.50679 0.74603 0.0
H489 H 0.47328 0.49755 0.75277 0.0
H490 H 0.47462 0.52037 0.72993 0.0
H491 H 0.44659 0.49402 0.73577 0.0
C492 C 0.55703 0.55128 0.75803 0.0
N493 N 0.54033 0.53421 0.77483 0.0
N494 N 0.52177 0.53714 0.77618 0.0
C495 C 0.52632 0.55652 0.76053 0.0
C496 C 0.54869 0.56599 0.74814 0.0
C497 C 0.58116 0.55443 0.75342 0.0
H498 H 0.59204 0.56243 0.77284 0.0
H499 H 0.57975 0.53689 0.74998 0.0
H500 H 0.59011 0.56614 0.73484 0.0
O501 O 0.54033 0.52324 0.84069 0.0
O502 O 0.50823 0.52702 0.84254 0.0
H503 H 0.50313 0.56579 0.78267 0.0
H504 H 0.52271 0.58776 0.75739 0.0
C505 C 0.51169 0.56843 0.7615 0.0
H506 H 0.49781 0.56081 0.7448 0.0
H507 H 0.46767 0.53677 0.83488 0.0
O508 O 0.57193 0.51295 0.79919 0.0
C509 C 0.52639 0.52811 0.8544 0.0
Co510 Co 0.70624 0.84348 0.54113 0.0
Co511 Co 0.6565 0.83864 0.5401 0.0
C512 C 0.7018 0.88686 0.54316 0.0
O513 O 0.71467 0.87726 0.54456 0.0
O514 O 0.67928 0.87404 0.54185 0.0
C515 C 0.7553 0.85802 0.55277 0.0
O516 O 0.7565 0.8764 0.56596 0.0
C517 C 0.61895 0.83872 0.57219 0.0
C518 C 0.58847 0.82364 0.54254 0.0
C519 C 0.59521 0.8319 0.57017 0.0
N520 N 0.62591 0.83421 0.5472 0.0
N521 N 0.6077 0.82532 0.52941 0.0
C522 C 0.6352 0.85032 0.59703 0.0
H523 H 0.654 0.85895 0.59018 0.0
H524 H 0.63223 0.8368 0.61343 0.0
H525 H 0.63147 0.8636 0.60697 0.0
C526 C 0.68344 0.80542 0.58506 0.0
N527 N 0.68367 0.82234 0.56806 0.0
N528 N 0.6622 0.81944 0.56688 0.0
C529 C 0.64752 0.80022 0.58281 0.0
C530 C 0.6605 0.79081 0.59521 0.0
C531 C 0.70447 0.80234 0.58973 0.0
H532 H 0.70767 0.79475 0.57015 0.0
H533 H 0.72043 0.81987 0.59366 0.0
H534 H 0.70165 0.79037 0.60805 0.0
O535 O 0.69402 0.83304 0.50188 0.0
O536 O 0.65791 0.82856 0.50056 0.0
H537 H 0.61491 0.791 0.56108 0.0
H538 H 0.61271 0.7691 0.58641 0.0
C539 C 0.62101 0.78841 0.58217 0.0
H540 H 0.61495 0.79618 0.59894 0.0
H541 H 0.60832 0.82014 0.50848 0.0
O542 O 0.73565 0.84212 0.54255 0.0
C543 C 0.67501 0.82776 0.48838 0.0
Co544 Co 0.18979 0.86845 0.54606 0.0
Co545 Co 0.19609 0.82433 0.54136 0.0
C546 C 0.14733 0.81992 0.54629 0.0
O547 O 0.15643 0.8422 0.54956 0.0
O548 O 0.16058 0.81081 0.54322 0.0
C549 C 0.17293 0.90016 0.53877 0.0
O550 O 0.15595 0.88153 0.52574 0.0
C551 C 0.19621 0.78521 0.56996 0.0
C552 C 0.21386 0.77311 0.53948 0.0
C553 C 0.20415 0.76914 0.56666 0.0
N554 N 0.2015 0.79843 0.54623 0.0
N555 N 0.21195 0.79111 0.52795 0.0
C556 C 0.18295 0.78757 0.59471 0.0
H557 H 0.17283 0.79628 0.58798 0.0
H558 H 0.19567 0.79878 0.61144 0.0
H559 H 0.1707 0.7699 0.60408 0.0
C560 C 0.22822 0.88278 0.58935 0.0
N561 N 0.21149 0.86661 0.57176 0.0
N562 N 0.21474 0.8483 0.56924 0.0
C563 C 0.23398 0.85248 0.58483 0.0
C564 C 0.24311 0.87439 0.59841 0.0
C565 C 0.23068 0.90642 0.59582 0.0
H566 H 0.21291 0.90441 0.59924 0.0
H567 H 0.24184 0.91453 0.61502 0.0
H568 H 0.23896 0.91838 0.57725 0.0
O569 O 0.19999 0.8684 0.50605 0.0
O570 O 0.20586 0.83766 0.50246 0.0
H571 H 0.24428 0.83086 0.56099 0.0
H572 H 0.26505 0.84857 0.58834 0.0
C573 C 0.24594 0.83793 0.5829 0.0
H574 H 0.23747 0.82288 0.59808 0.0
H575 H 0.218 0.79854 0.50778 0.0
O576 O 0.18973 0.89856 0.55041 0.0
C577 C 0.20581 0.85557 0.49144 0.0
Co578 Co 0.16787 0.33084 0.54623 0.0
Co579 Co 0.21234 0.38091 0.54098 0.0
C580 C 0.21674 0.33689 0.54704 0.0
O581 O 0.19438 0.32392 0.54967 0.0
O582 O 0.22613 0.35928 0.54414 0.0
C583 C 0.13655 0.282 0.54129 0.0
O584 O 0.15497 0.28344 0.52796 0.0
C585 C 0.25435 0.4206 0.56442 0.0
C586 C 0.26093 0.45055 0.53616 0.0
C587 C 0.269 0.44477 0.56057 0.0
N588 N 0.23801 0.41249 0.54367 0.0
N589 N 0.24211 0.43037 0.52661 0.0
C590 C 0.25583 0.405 0.58694 0.0
H591 H 0.26021 0.39233 0.57662 0.0
H592 H 0.23829 0.3944 0.59737 0.0
H593 H 0.26959 0.4152 0.60317 0.0
C594 C 0.15343 0.35607 0.58768 0.0
N595 N 0.16983 0.35494 0.57109 0.0
N596 N 0.18864 0.37618 0.56905 0.0
C597 C 0.18481 0.39155 0.5845 0.0
C598 C 0.16227 0.37943 0.59681 0.0
C599 C 0.12863 0.33585 0.59104 0.0
H600 H 0.121 0.32888 0.56964 0.0
H601 H 0.12904 0.32129 0.60293 0.0
H602 H 0.11709 0.34117 0.60242 0.0
O603 O 0.16718 0.34007 0.50604 0.0
O604 O 0.19856 0.3762 0.50207 0.0
H605 H 0.20544 0.42562 0.56488 0.0
H606 H 0.19574 0.42684 0.60079 0.0
C607 C 0.20209 0.41761 0.5865 0.0
H608 H 0.21906 0.42032 0.59523 0.0
H609 H 0.23179 0.42888 0.50881 0.0
O610 O 0.13813 0.30065 0.55213 0.0
C611 C 0.18038 0.35847 0.49121 0.0
H612 H 0.25744 0.15149 0.95931 0.0
H613 H 0.23603 0.15783 0.99816 0.0
H614 H 0.21101 0.19141 0.93897 0.0
H615 H 0.23229 0.18479 0.9 0.0
H616 H 0.24644 0.20185 0.01506 0.0
H617 H 0.1516 0.14955 0.98528 0.0
H618 H 0.17404 0.14466 0.96922 0.0
H619 H 0.16984 0.16856 0.95702 0.0
C620 C 0.24716 0.16003 0.95467 0.0
C621 C 0.24674 0.16811 0.92701 0.0
C622 C 0.23484 0.16347 0.97674 0.0
C623 C 0.2218 0.17491 0.9714 0.0
C624 C 0.22056 0.18209 0.94343 0.0
H625 H 0.17262 0.25467 0.05973 0.0
H626 H 0.1808 0.23054 0.02666 0.0
C627 C 0.23281 0.1785 0.92127 0.0
C628 C 0.212 0.18191 0.99557 0.0
H629 H 0.16191 0.18035 0.02018 0.0
C630 C 0.22787 0.19679 0.01651 0.0
C631 C 0.18779 0.17528 0.9973 0.0
C632 C 0.16979 0.15844 0.97615 0.0
C633 C 0.22044 0.20623 0.0384 0.0
C634 C 0.19639 0.20028 0.03958 0.0
C635 C 0.18032 0.18475 0.01921 0.0
C636 C 0.18836 0.21213 0.0599 0.0
C637 C 0.23862 0.22351 0.05915 0.0
C638 C 0.18918 0.20914 0.08952 0.0
C639 C 0.18472 0.22309 0.10843 0.0
C640 C 0.1796 0.24021 0.09782 0.0
C641 C 0.17726 0.24203 0.06827 0.0
C642 C 0.18167 0.22813 0.04944 0.0
H643 H 0.25705 0.22924 0.05231 0.0
H644 H 0.23678 0.2395 0.06154 0.0
H645 H 0.23574 0.21496 0.08041 0.0
H646 H 0.19398 0.19658 0.09793 0.0
H647 H 0.1862 0.2212 0.13121 0.0
H648 H 0.77687 0.96931 0.09641 0.0
H649 H 0.80025 0.99772 0.05903 0.0
H650 H 0.84822 0.97006 0.0577 0.0
H651 H 0.82462 0.94131 0.09515 0.0
H652 H 0.85179 0.03284 0.05582 0.0
H653 H 0.81851 0.9605 0.97467 0.0
H654 H 0.80382 0.95665 0.00858 0.0
H655 H 0.83161 0.9572 0.00701 0.0
C656 C 0.79249 0.96941 0.08827 0.0
C657 C 0.79877 0.95293 0.09815 0.0
C658 C 0.80588 0.9857 0.06711 0.0
C659 C 0.82572 0.9857 0.05546 0.0
C660 C 0.83282 0.97011 0.06634 0.0
H661 H 0.90116 0.09348 0.922 0.0
H662 H 0.89551 0.06471 0.95959 0.0
C663 C 0.81946 0.95386 0.08774 0.0
C664 C 0.83768 1.00103 0.03062 0.0
H665 H 0.83911 0.9997 0.95781 0.0
C666 C 0.84958 0.02569 0.03441 0.0
C667 C 0.83444 0.99146 1.0028 0.0
C668 C 0.82133 0.96501 0.99775 0.0
C669 C 0.85743 0.04112 0.01089 0.0
C670 C 0.8533 0.03152 0.98302 0.0
C671 C 0.84236 1.00689 0.97928 0.0
C672 C 0.85721 0.0466 0.95774 0.0
C673 C 0.86869 0.06748 0.01589 0.0
C674 C 0.83754 0.0452 0.94365 0.0
C675 C 0.8407 0.06152 0.92234 0.0
C676 C 0.86359 0.07942 0.91481 0.0
C677 C 0.88333 0.07984 0.92757 0.0
C678 C 0.88015 0.06355 0.94906 0.0
H679 H 0.86837 0.07183 0.03877 0.0
H680 H 0.88742 0.07645 0.00868 0.0
H681 H 0.85938 0.07483 1.00325 0.0
H682 H 0.8197 0.03213 0.95002 0.0
H683 H 0.82525 0.0606 0.91238 0.0
H684 H 0.06586 0.85659 0.1233 0.0
H685 H 0.03573 0.85099 0.08756 0.0
H686 H 0.0835 0.85676 0.02012 0.0
H687 H 0.11362 0.86301 0.05552 0.0
H688 H 0.05711 0.87904 0.00715 0.0
H689 H 1.0007 0.78647 0.04684 0.0
H690 H 1.00859 0.80987 0.07235 0.0
H691 H 0.03115 0.80473 0.05776 0.0
C692 C 0.06988 0.85691 0.1008 0.0
C693 C 0.09157 0.85932 0.09202 0.0
C694 C 0.05274 0.85369 0.08049 0.0
C695 C 0.05727 0.85299 0.05127 0.0
C696 C 0.0796 0.85707 0.04256 0.0
H697 H 0.9775 0.77432 0.91059 0.0
H698 H 1.00572 0.79573 0.9489 0.0
C699 C 0.09665 0.86031 0.06277 0.0
C700 C 0.03837 0.84578 0.02965 0.0
H701 H 0.98854 0.79705 1.00509 0.0
C702 C 0.04186 0.86126 0.00686 0.0
C703 C 1.01868 0.82247 0.02931 0.0
C704 C 1.01451 0.80479 0.05271 0.0
C705 C 0.02663 0.8537 0.98312 0.0
C706 C 1.00747 0.83018 0.98245 0.0
C707 C 1.00336 0.81509 1.0058 0.0
C708 C 0.99261 0.81992 0.95681 0.0
C709 C 0.03181 0.87039 0.95831 0.0
C710 C 0.97643 0.82698 0.94809 0.0
C711 C 0.96032 0.81477 0.92612 0.0
C712 C 0.96008 0.79523 0.91303 0.0
C713 C 0.97715 0.7891 0.92074 0.0
C714 C 0.99325 0.80132 0.94252 0.0
H715 H 0.0491 0.88704 0.96067 0.0
H716 H 0.03192 0.86163 0.93801 0.0
H717 H 1.01763 0.87508 0.95672 0.0
H718 H 0.97556 0.84116 0.9591 0.0
H719 H 0.94721 0.81971 0.92054 0.0
H720 H 0.80707 0.70156 0.97945 0.0
H721 H 0.7861 0.71918 1.00381 0.0
H722 H 0.81098 0.77421 0.93984 0.0
H723 H 0.83088 0.75601 0.91485 0.0
H724 H 0.8014 0.7613 0.02855 0.0
H725 H 0.74218 0.75409 0.93966 0.0
H726 H 0.75948 0.73943 0.93892 0.0
H727 H 0.77282 0.77036 0.92958 0.0
C728 C 0.80782 0.71728 0.97046 0.0
C729 C 0.82067 0.72737 0.94521 0.0
C730 C 0.79591 0.72743 0.98446 0.0
C731 C 0.79648 0.74789 0.97352 0.0
C732 C 0.80963 0.75814 0.94848 0.0
H733 H 0.74794 0.84417 0.03212 0.0
H734 H 0.7665 0.82437 0.00711 0.0
C735 C 0.82135 0.74789 0.93439 0.0
C736 C 0.78391 0.75884 0.98862 0.0
H737 H 0.7445 0.77869 0.97877 0.0
C738 C 0.78882 0.76488 0.01766 0.0
C739 C 0.76737 0.76362 0.97462 0.0
C740 C 0.75995 0.75632 0.94407 0.0
C741 C 0.77821 0.77597 0.03273 0.0
C742 C 0.76202 0.78106 0.01859 0.0
C743 C 0.75699 0.77494 0.98964 0.0
C744 C 0.75021 0.79281 0.03346 0.0
C745 C 0.78487 0.78268 0.06357 0.0
C746 C 0.73451 0.78159 0.05633 0.0
C747 C 0.72379 0.79285 0.07052 0.0
C748 C 0.72855 0.81561 0.0622 0.0
C749 C 0.74399 0.82668 0.03906 0.0
C750 C 0.75458 0.81535 0.02474 0.0
H751 H 0.80128 0.78243 0.06948 0.0
H752 H 0.78754 0.80063 0.06798 0.0
H753 H 0.77028 0.76982 0.07747 0.0
H754 H 0.73054 0.7641 0.06326 0.0
H755 H 0.71213 0.78392 0.08839 0.0
H756 H 0.28643 0.0831 0.9173 0.0
H757 H 0.26912 0.046 0.94412 0.0
H758 H 0.33261 0.07368 0.99522 0.0
H759 H 0.34895 0.11178 0.97016 0.0
H760 H 0.27743 1.01289 0.95036 0.0
H761 H 0.28751 0.05058 0.05859 0.0
H762 H 0.29371 0.06847 0.02695 0.0
H763 H 0.3156 0.06196 0.04118 0.0
C764 C 0.29646 0.08156 0.93481 0.0
C765 C 0.31877 0.1008 0.94218 0.0
C766 C 0.28665 0.0601 0.94995 0.0
C767 C 0.29909 0.05691 0.97252 0.0
C768 C 0.32202 0.07572 0.97885 0.0
H769 H 0.24673 0.9105 0.03616 0.0
H770 H 0.26854 0.94834 0.01073 0.0
C771 C 0.33159 0.09748 0.96415 0.0
C772 C 0.28804 0.03382 0.98883 0.0
H773 H 0.27616 1.00983 0.05609 0.0
C774 C 0.27708 1.01232 0.97351 0.0
C775 C 0.28707 0.03268 0.01913 0.0
C776 C 0.29637 0.05465 0.0374 0.0
C777 C 0.26516 0.99007 0.98732 0.0
C778 C 0.26511 0.98891 0.01762 0.0
C779 C 0.27625 1.0104 0.03294 0.0
C780 C 0.25276 0.96584 0.03394 0.0
C781 C 0.25189 0.96818 0.96906 0.0
C782 C 0.23756 0.96306 0.05682 0.0
C783 C 0.2259 0.94173 0.07223 0.0
C784 C 0.22857 0.92221 0.06486 0.0
C785 C 0.24408 0.92505 0.04233 0.0
C786 C 0.25629 0.94666 0.02739 0.0
H787 H 0.24707 0.97249 0.94801 0.0
H788 H 0.26339 0.96042 0.96494 0.0
H789 H 0.23538 0.95462 0.97967 0.0
H790 H 0.23455 0.97743 0.06279 0.0
H791 H 0.2148 0.94058 0.09007 0.0
H792 H 0.94913 0.20389 0.9219 0.0
H793 H 0.98628 0.22328 0.9485 0.0
H794 H 0.95975 0.26048 0.99898 0.0
H795 H 0.92159 0.23911 0.97431 0.0
H796 H 1.01964 0.2648 0.9533 0.0
H797 H 0.98371 0.2396 0.06258 0.0
H798 H 0.96529 0.22738 0.03147 0.0
H799 H 0.97204 0.25605 0.04504 0.0
C800 C 0.95087 0.21561 0.93928 0.0
C801 C 0.93199 0.21939 0.94637 0.0
C802 C 0.9724 0.22707 0.95429 0.0
C803 C 0.97599 0.24311 0.9765 0.0
C804 C 0.95743 0.2476 0.98284 0.0
H805 H 0.12271 0.33999 0.03583 0.0
H806 H 0.08448 0.32261 0.01115 0.0
C807 C 0.93563 0.23564 0.96831 0.0
C808 C 0.99931 0.25538 0.99224 0.0
H809 H 0.02429 0.26942 0.0589 0.0
C810 C 1.02056 0.26561 0.97643 0.0
C811 C 1.00092 0.25634 0.02252 0.0
C812 C 0.97928 0.24403 0.04137 0.0
C813 C 0.04301 0.27651 0.98974 0.0
C814 C 0.04462 0.27848 0.01997 0.0
C815 C 0.02338 0.26831 0.03578 0.0
C816 C 0.06794 0.28999 0.03575 0.0
C817 C 0.06464 0.28486 0.97107 0.0
C818 C 0.07139 0.27839 0.05911 0.0
C819 C 0.09295 0.28883 0.07404 0.0
C820 C 0.11203 0.31099 0.06573 0.0
C821 C 0.10852 0.32283 0.04272 0.0
C822 C 0.08668 0.31265 0.02822 0.0
H823 H 0.06014 0.27513 0.95044 0.0
H824 H 0.07205 0.30396 0.9661 0.0
H825 H 0.07852 0.28245 0.98177 0.0
H826 H 0.05736 0.26107 0.06582 0.0
H827 H 0.09462 0.2795 0.09225 0.0
H828 H 0.89889 0.51774 0.23125 0.0
H829 H 0.87781 0.52484 0.27006 0.0
H830 H 0.8981 0.4867 0.32844 0.0
H831 H 0.91942 0.47994 0.28988 0.0
H832 H 0.84196 0.49622 0.30984 0.0
H833 H 0.92901 0.55351 0.36237 0.0
H834 H 0.9266 0.54301 0.32622 0.0
H835 H 0.92211 0.52354 0.35579 0.0
C836 C 0.89847 0.51059 0.2523 0.0
C837 C 0.91122 0.49891 0.25796 0.0
C838 C 0.88646 0.51461 0.27438 0.0
C839 C 0.88693 0.50677 0.3022 0.0
C840 C 0.89807 0.49341 0.30726 0.0
H841 H 0.853 0.55433 0.46103 0.0
H842 H 0.85969 0.52915 0.42748 0.0
C843 C 0.91027 0.48964 0.28532 0.0
C844 C 0.87762 0.51436 0.32627 0.0
H845 H 0.89523 0.54929 0.38572 0.0
C846 C 0.85352 0.50766 0.32659 0.0
C847 C 0.89282 0.5293 0.34804 0.0
C848 C 0.91911 0.53797 0.34809 0.0
C849 C 0.84426 0.51584 0.34798 0.0
C850 C 0.85961 0.53124 0.36927 0.0
C851 C 0.88351 0.53729 0.36946 0.0
C852 C 0.85209 0.54346 0.38974 0.0
C853 C 0.81824 0.50815 0.34746 0.0
C854 C 0.84543 0.55958 0.37955 0.0
C855 C 0.84184 0.57396 0.39854 0.0
C856 C 0.84509 0.5726 0.42796 0.0
C857 C 0.85063 0.55572 0.43835 0.0
C858 C 0.85437 0.54138 0.41928 0.0
H859 H 0.8078 0.49114 0.33579 0.0
H860 H 0.81105 0.50607 0.36943 0.0
H861 H 0.81582 0.52186 0.3363 0.0
H862 H 0.844 0.56176 0.35683 0.0
H863 H 0.8371 0.58659 0.3902 0.0
H864 H 0.51377 0.38759 0.22969 0.0
H865 H 0.50672 0.35887 0.26806 0.0
H866 H 0.54405 0.41656 0.32739 0.0
H867 H 0.55091 0.44513 0.28924 0.0
H868 H 0.53813 0.35354 0.30969 0.0
H869 H 0.47488 0.37753 0.35827 0.0
H870 H 0.48539 0.3853 0.32204 0.0
H871 H 0.50417 0.40185 0.35135 0.0
C872 C 0.52074 0.39399 0.25085 0.0
C873 C 0.53238 0.41833 0.25692 0.0
C874 C 0.51678 0.37769 0.27265 0.0
C875 C 0.52457 0.38568 0.30055 0.0
C876 C 0.53763 0.4101 0.30607 0.0
H877 H 0.47796 0.30739 0.46063 0.0
H878 H 0.50204 0.33876 0.42617 0.0
C879 C 0.54146 0.42633 0.28438 0.0
C880 C 0.51715 0.36859 0.32439 0.0
H881 H 0.48104 0.34955 0.38276 0.0
C882 C 0.52575 0.35268 0.32579 0.0
C883 C 0.50104 0.36765 0.34531 0.0
C884 C 0.49064 0.38384 0.34419 0.0
C885 C 0.51853 0.33568 0.34769 0.0
C886 C 0.50203 0.33444 0.36826 0.0
C887 C 0.49386 0.3507 0.3671 0.0
C888 C 0.49121 0.3152 0.38969 0.0
C889 C 0.52863 0.31926 0.34861 0.0
C890 C 0.47762 0.29158 0.38066 0.0
C891 C 0.46397 0.27376 0.40024 0.0
C892 C 0.46337 0.27934 0.42908 0.0
C893 C 0.47803 0.30272 0.43845 0.0
C894 C 0.49174 0.32059 0.41882 0.0
H895 H 0.54618 0.3273 0.33788 0.0
H896 H 0.53058 0.3147 0.37093 0.0
H897 H 0.51647 0.3026 0.33718 0.0
H898 H 0.47665 0.28705 0.35826 0.0
H899 H 0.45341 0.25572 0.39265 0.0
H900 H 0.72663 0.17401 0.45044 0.0
H901 H 0.69847 0.16836 0.41203 0.0
H902 H 0.75658 0.20313 0.35263 0.0
H903 H 0.78458 0.20862 0.39076 0.0
H904 H 0.69437 0.19986 0.371 0.0
H905 H 0.7156 0.13512 0.32095 0.0
H906 H 0.72403 0.14556 0.35708 0.0
H907 H 0.74063 0.16403 0.32751 0.0
C908 C 0.73328 0.18071 0.42924 0.0
C909 C 0.75754 0.19109 0.42316 0.0
C910 C 0.71729 0.17753 0.40741 0.0
C911 C 0.7255 0.18491 0.37946 0.0
C912 C 0.74992 0.19688 0.37395 0.0
H913 H 0.64691 0.14238 0.2193 0.0
H914 H 0.67858 0.16564 0.25378 0.0
C915 C 0.76583 0.19986 0.39564 0.0
C916 C 0.70853 0.17827 0.3556 0.0
H917 H 0.68874 0.14302 0.29656 0.0
C918 C 0.69316 0.18754 0.3546 0.0
C919 C 0.7071 0.1622 0.33431 0.0
C920 C 0.72255 0.15095 0.33501 0.0
C921 C 0.67624 0.18103 0.33277 0.0
C922 C 0.67455 0.16461 0.3118 0.0
C923 C 0.69028 0.15579 0.31252 0.0
C924 C 0.65524 0.15441 0.29049 0.0
C925 C 0.66033 0.19171 0.33235 0.0
C926 C 0.63167 0.14085 0.29969 0.0
C927 C 0.61372 0.12762 0.28013 0.0
C928 C 0.61909 0.12749 0.25113 0.0
C929 C 0.64242 0.14214 0.24162 0.0
C930 C 0.66045 0.15538 0.26124 0.0
H931 H 0.66864 0.20906 0.34359 0.0
H932 H 0.65603 0.19427 0.31014 0.0
H933 H 0.64351 0.17958 0.34351 0.0
H934 H 0.6273 0.13955 0.32218 0.0
H935 H 0.59572 0.11701 0.28783 0.0
H936 H 0.47682 0.07095 0.2428 0.0
H937 H 0.45625 0.08872 0.2678 0.0
H938 H 0.46291 0.05893 0.34721 0.0
H939 H 0.48347 0.04112 0.32212 0.0
H940 H 0.41355 0.06648 0.30236 0.0
H941 H 0.49255 0.1313 0.36391 0.0
H942 H 0.49478 0.11619 0.33275 0.0
H943 H 0.48545 0.10084 0.36629 0.0
C944 C 0.47384 0.0682 0.26559 0.0
C945 C 0.48193 0.05487 0.2806 0.0
C946 C 0.46205 0.07831 0.27986 0.0
C947 C 0.45826 0.07548 0.30951 0.0
C948 C 0.4659 0.0617 0.32443 0.0
H949 H 0.36769 0.10968 0.41485 0.0
H950 H 0.3855 0.08955 0.38928 0.0
C951 C 0.47754 0.05143 0.31009 0.0
C952 C 0.44652 0.08712 0.32474 0.0
H953 H 0.45629 0.12983 0.37421 0.0
C954 C 0.42289 0.08029 0.31812 0.0
C955 C 0.45871 0.10536 0.3451 0.0
C956 C 0.48434 0.11408 0.35238 0.0
C957 C 0.41111 0.09094 0.33152 0.0
C958 C 0.4232 0.10893 0.35218 0.0
C959 C 0.44692 0.11596 0.35854 0.0
C960 C 0.4117 0.12096 0.36708 0.0
C961 C 0.38591 0.08317 0.32306 0.0
C962 C 0.42048 0.14541 0.3634 0.0
C963 C 0.41009 0.1569 0.37773 0.0
C964 C 0.39081 0.14432 0.3964 0.0
C965 C 0.38209 0.11985 0.40013 0.0
C966 C 0.39237 0.10831 0.3856 0.0
H967 H 0.38083 0.07294 0.3028 0.0
H968 H 0.37373 0.07168 0.3401 0.0
H969 H 0.38338 0.09875 0.32056 0.0
H970 H 0.43538 0.15562 0.34931 0.0
H971 H 0.4172 0.17572 0.37424 0.0
H972 H 0.96274 0.44382 0.30992 0.0
H973 H 0.94559 0.40599 0.33577 0.0
H974 H 0.98385 0.38334 0.28109 0.0
H975 H 1.00147 0.42143 0.25582 0.0
H976 H 0.9171 0.36229 0.31939 0.0
H977 H 0.99987 0.36638 0.35621 0.0
H978 H 0.99963 0.39163 0.34066 0.0
H979 H 0.999 0.36887 0.31816 0.0
C980 C 0.96768 0.43084 0.30367 0.0
C981 C 0.98375 0.43578 0.28112 0.0
C982 C 0.95783 0.40916 0.31842 0.0
C983 C 0.96367 0.39173 0.31093 0.0
C984 C 0.97955 0.3966 0.2881 0.0
H985 H 0.90037 0.2419 0.36186 0.0
H986 H 0.92107 0.28015 0.33638 0.0
C987 C 0.98961 0.41842 0.27354 0.0
C988 C 0.9524 0.36826 0.32626 0.0
H989 H 0.96429 0.32918 0.36179 0.0
C990 C 0.92752 0.35521 0.32875 0.0
C991 C 0.9658 0.35875 0.33868 0.0
C992 C 0.99255 0.37224 0.33858 0.0
C993 C 0.91583 0.3331 0.34286 0.0
C994 C 0.92921 0.32354 0.35485 0.0
C995 C 0.95401 0.33642 0.35239 0.0
C996 C 0.91763 0.30048 0.37067 0.0
C997 C 0.88914 0.3199 0.34481 0.0
C998 C 0.9092 0.29922 0.3986 0.0
C999 C 0.89763 0.27748 0.41323 0.0
C1000 C 0.89393 0.25642 0.40015 0.0
C1001 C 0.90286 0.2578 0.37243 0.0
C1002 C 0.91464 0.27962 0.35786 0.0
H1003 H 0.88111 0.32831 0.33169 0.0
H1004 H 0.88189 0.30125 0.33773 0.0
H1005 H 0.88377 0.31949 0.36739 0.0
H1006 H 0.91149 0.31508 0.40904 0.0
H1007 H 0.89144 0.2771 0.4348 0.0
H1008 H 0.79057 0.67646 0.37039 0.0
H1009 H 0.7522 0.66006 0.34611 0.0
H1010 H 0.72524 0.59667 0.39746 0.0
H1011 H 0.76251 0.61404 0.42362 0.0
H1012 H 0.72869 0.62597 0.31319 0.0
H1013 H 0.67118 0.60609 0.40738 0.0
H1014 H 0.703 0.62275 0.41019 0.0
H1015 H 0.68745 0.59069 0.41025 0.0
C1016 C 0.77629 0.65922 0.37687 0.0
C1017 C 0.77982 0.64658 0.39893 0.0
C1018 C 0.75432 0.6497 0.36277 0.0
C1019 C 0.73529 0.62715 0.37011 0.0
C1020 C 0.73905 0.61437 0.39178 0.0
H1021 H 0.61831 0.54326 0.25233 0.0
H1022 H 0.65575 0.56322 0.27829 0.0
C1023 C 0.76075 0.62414 0.40636 0.0
C1024 C 0.71193 0.61669 0.35452 0.0
H1025 H 0.65171 0.58585 0.36417 0.0
C1026 C 0.7119 0.61745 0.32447 0.0
C1027 C 0.68971 0.60596 0.36884 0.0
C1028 C 0.68785 0.60658 0.40092 0.0
C1029 C 0.69065 0.60742 0.30855 0.0
C1030 C 0.66846 0.59503 0.32283 0.0
C1031 C 0.66849 0.59483 0.35289 0.0
C1032 C 0.64512 0.58221 0.3072 0.0
C1033 C 0.69245 0.61095 0.27659 0.0
C1034 C 0.62577 0.58494 0.3154 0.0
C1035 C 0.60378 0.57248 0.30136 0.0
C1036 C 0.60054 0.5571 0.27853 0.0
C1037 C 0.61992 0.55454 0.27018 0.0
C1038 C 0.64167 0.56648 0.28467 0.0
H1039 H 0.70891 0.62753 0.27061 0.0
H1040 H 0.69324 0.59598 0.26635 0.0
H1041 H 0.67706 0.61184 0.26785 0.0
H1042 H 0.62765 0.59679 0.33271 0.0
H1043 H 0.58924 0.5748 0.30849 0.0
H1044 H 0.56574 0.85014 0.56665 0.0
H1045 H 0.545 0.85669 0.60635 0.0
H1046 H 0.56947 0.82158 0.66387 0.0
H1047 H 0.59039 0.81532 0.62442 0.0
H1048 H 0.51078 0.82708 0.64731 0.0
H1049 H 0.59803 0.88859 0.69689 0.0
H1050 H 0.59535 0.87794 0.66078 0.0
H1051 H 0.59266 0.85911 0.69037 0.0
C1052 C 0.56638 0.8436 0.58773 0.0
C1053 C 0.58014 0.83291 0.59284 0.0
C1054 C 0.55456 0.84729 0.61031 0.0
C1055 C 0.55623 0.84009 0.63809 0.0
C1056 C 0.56851 0.82779 0.64271 0.0
H1057 H 0.52199 0.88573 0.7981 0.0
H1058 H 0.52973 0.86145 0.76433 0.0
C1059 C 0.58051 0.82434 0.62025 0.0
C1060 C 0.54674 0.84712 0.66249 0.0
H1061 H 0.56404 0.88267 0.72139 0.0
C1062 C 0.52235 0.83908 0.66366 0.0
C1063 C 0.56196 0.86277 0.68375 0.0
C1064 C 0.58848 0.87281 0.68289 0.0
C1065 C 0.51279 0.8466 0.68541 0.0
C1066 C 0.52812 0.86273 0.70617 0.0
C1067 C 0.55236 0.87013 0.70552 0.0
C1068 C 0.52007 0.87429 0.72689 0.0
C1069 C 0.48646 0.83745 0.68582 0.0
C1070 C 0.51189 0.88927 0.71695 0.0
C1071 C 0.50767 0.90314 0.73606 0.0
C1072 C 0.51178 0.90243 0.76537 0.0
C1073 C 0.51887 0.88663 0.77552 0.0
C1074 C 0.52324 0.8728 0.75633 0.0
H1075 H 0.47654 0.82017 0.67455 0.0
H1076 H 0.47972 0.83528 0.70804 0.0
H1077 H 0.48278 0.85036 0.67472 0.0
H1078 H 0.50969 0.89095 0.69429 0.0
H1079 H 0.50151 0.91468 0.72783 0.0
H1080 H 0.15397 0.6033 0.75727 0.0
H1081 H 0.17602 0.63181 0.71904 0.0
H1082 H 0.13096 0.66249 0.72844 0.0
H1083 H 0.10873 0.63383 0.76606 0.0
H1084 H 0.13285 0.64904 0.67359 0.0
H1085 H 0.22364 0.70304 0.71841 0.0
H1086 H 0.21155 0.67142 0.71894 0.0
H1087 H 0.19823 0.68449 0.74042 0.0
C1088 C 0.14919 0.61651 0.75148 0.0
C1089 C 0.12959 0.61634 0.76421 0.0
C1090 C 0.16178 0.63277 0.72975 0.0
C1091 C 0.15512 0.64926 0.72097 0.0
C1092 C 0.13629 0.64981 0.73481 0.0
H1093 H 0.21173 0.77446 0.62418 0.0
H1094 H 0.20254 0.74327 0.65917 0.0
C1095 C 0.1236 0.63347 0.75623 0.0
C1096 C 0.1662 0.66473 0.69587 0.0
H1097 H 0.21753 0.71182 0.67132 0.0
C1098 C 0.15142 0.66266 0.67294 0.0
C1099 C 0.19042 0.68237 0.69518 0.0
C1100 C 0.20692 0.68569 0.7196 0.0
C1101 C 0.15987 0.67848 0.64989 0.0
C1102 C 0.18403 0.69642 0.64933 0.0
C1103 C 0.19908 0.69789 0.67172 0.0
C1104 C 0.19303 0.71558 0.62772 0.0
C1105 C 0.14249 0.67666 0.62725 0.0
C1106 C 0.19168 0.71057 0.59838 0.0
C1107 C 0.19631 0.72832 0.57831 0.0
C1108 C 0.20241 0.75125 0.5874 0.0
C1109 C 0.20584 0.75666 0.61664 0.0
C1110 C 0.20103 0.73894 0.63664 0.0
H1111 H 0.12379 0.66496 0.63398 0.0
H1112 H 0.14499 0.69444 0.62209 0.0
H1113 H 0.14546 0.66912 0.60748 0.0
H1114 H 0.18613 0.69277 0.59106 0.0
H1115 H 0.19403 0.72385 0.55582 0.0
H1116 H 0.39527 0.5092 0.77725 0.0
H1117 H 0.36807 0.50396 0.73793 0.0
H1118 H 0.42729 0.53683 0.67977 0.0
H1119 H 0.45437 0.54185 0.71884 0.0
H1120 H 0.365 0.53497 0.69729 0.0
H1121 H 0.38587 0.47016 0.64667 0.0
H1122 H 0.39443 0.4805 0.6828 0.0
H1123 H 0.41099 0.49899 0.65322 0.0
C1124 C 0.40241 0.51551 0.75611 0.0
C1125 C 0.4267 0.52521 0.75072 0.0
C1126 C 0.38694 0.51257 0.73374 0.0
C1127 C 0.39569 0.51953 0.70589 0.0
C1128 C 0.42018 0.5308 0.70098 0.0
H1129 H 0.31475 0.47632 0.54672 0.0
H1130 H 0.3473 0.50014 0.58007 0.0
C1131 C 0.43557 0.53353 0.72323 0.0
C1132 C 0.37907 0.51335 0.68169 0.0
H1133 H 0.35891 0.47806 0.62267 0.0
C1134 C 0.36375 0.52267 0.68082 0.0
C1135 C 0.37757 0.49733 0.66027 0.0
C1136 C 0.39292 0.48597 0.66078 0.0
C1137 C 0.34665 0.5161 0.6592 0.0
C1138 C 0.34476 0.49959 0.63827 0.0
C1139 C 0.36059 0.49089 0.63864 0.0
C1140 C 0.32494 0.48894 0.61767 0.0
C1141 C 0.33064 0.52667 0.6591 0.0
C1142 C 0.30167 0.47515 0.62779 0.0
C1143 C 0.28327 0.46158 0.6089 0.0
C1144 C 0.28792 0.46138 0.57969 0.0
C1145 C 0.31091 0.47616 0.56926 0.0
C1146 C 0.3294 0.48972 0.58822 0.0
H1147 H 0.33903 0.54409 0.67018 0.0
H1148 H 0.32602 0.52905 0.63698 0.0
H1149 H 0.31399 0.51456 0.67059 0.0
H1150 H 0.2979 0.47393 0.65045 0.0
H1151 H 0.26551 0.45055 0.61724 0.0
H1152 H 0.07572 0.50567 0.69929 0.0
H1153 H 0.09344 0.48549 0.67346 0.0
H1154 H 0.06174 0.4275 0.73351 0.0
H1155 H 0.04365 0.44743 0.75888 0.0
H1156 H 0.12509 0.47355 0.68968 0.0
H1157 H 0.04314 0.39071 0.66071 0.0
H1158 H 0.04258 0.41623 0.67477 0.0
H1159 H 0.04567 0.39609 0.69844 0.0
C1160 C 0.07236 0.48849 0.70675 0.0
C1161 C 0.05809 0.47804 0.73094 0.0
C1162 C 0.08253 0.47695 0.69201 0.0
C1163 C 0.07869 0.45464 0.70106 0.0
C1164 C 0.0645 0.44428 0.7254 0.0
H1165 H 0.13837 0.36547 0.64785 0.0
H1166 H 0.11793 0.38327 0.67323 0.0
C1167 C 0.05419 0.45574 0.74001 0.0
C1168 C 0.09031 0.4428 0.68576 0.0
H1169 H 0.07953 0.39103 0.65347 0.0
C1170 C 0.11503 0.45556 0.68164 0.0
C1171 C 0.07738 0.41923 0.67518 0.0
C1172 C 0.05071 0.40484 0.67722 0.0
C1173 C 0.12707 0.44542 0.66774 0.0
C1174 C 0.11416 0.42187 0.65734 0.0
C1175 C 0.0895 0.40903 0.66153 0.0
C1176 C 0.12595 0.41053 0.64157 0.0
C1177 C 0.15366 0.45991 0.66468 0.0
C1178 C 0.13686 0.41951 0.61502 0.0
C1179 C 0.1483 0.40922 0.60042 0.0
C1180 C 0.14932 0.38978 0.61207 0.0
C1181 C 0.13796 0.38046 0.63836 0.0
C1182 C 0.12632 0.39066 0.65289 0.0
H1183 H 0.16152 0.47541 0.67932 0.0
H1184 H 0.16195 0.44888 0.66901 0.0
H1185 H 0.15814 0.46663 0.64245 0.0
H1186 H 0.13644 0.43448 0.6055 0.0
H1187 H 0.15637 0.41648 0.57991 0.0
H1188 H 0.63462 0.77891 0.64438 0.0
H1189 H 0.61771 0.7415 0.67109 0.0
H1190 H 0.64612 0.7136 0.60866 0.0
H1191 H 0.66402 0.75147 0.5829 0.0
H1192 H 0.58564 0.69946 0.65995 0.0
H1193 H 0.6667 0.69408 0.67744 0.0
H1194 H 0.66774 0.72038 0.66336 0.0
H1195 H 0.66174 0.6959 0.64013 0.0
C1196 C 0.63754 0.76487 0.63669 0.0
C1197 C 0.65099 0.76826 0.61185 0.0
C1198 C 0.62779 0.7434 0.65189 0.0
C1199 C 0.63093 0.72458 0.64246 0.0
C1200 C 0.64405 0.72791 0.61723 0.0
H1201 H 0.53473 0.57805 0.69906 0.0
H1202 H 0.55478 0.61579 0.67304 0.0
C1203 C 0.6542 0.74957 0.60234 0.0
C1204 C 0.61959 0.7013 0.6583 0.0
H1205 H 0.62994 0.65849 0.68596 0.0
C1206 C 0.59546 0.69066 0.66577 0.0
C1207 C 0.63224 0.6897 0.66656 0.0
C1208 C 0.65858 0.70074 0.66174 0.0
C1209 C 0.58371 0.66894 0.68073 0.0
C1210 C 0.59602 0.65668 0.68754 0.0
C1211 C 0.62023 0.66747 0.68047 0.0
C1212 C 0.58431 0.63299 0.70246 0.0
C1213 C 0.55837 0.65987 0.68982 0.0
C1214 C 0.59465 0.62925 0.72692 0.0
C1215 C 0.5835 0.60733 0.74131 0.0
C1216 C 0.56164 0.58866 0.73172 0.0
C1217 C 0.5515 0.59219 0.70703 0.0
C1218 C 0.56286 0.61391 0.69233 0.0
H1219 H 0.55442 0.67458 0.69179 0.0
H1220 H 0.54625 0.64743 0.67341 0.0
H1221 H 0.55446 0.65043 0.71061 0.0
H1222 H 0.61119 0.64346 0.73528 0.0
H1223 H 0.59164 0.60521 0.76042 0.0
H1224 H 0.28107 0.91919 0.59008 0.0
H1225 H 0.31898 0.93842 0.61584 0.0
H1226 H 0.29365 0.87726 0.67084 0.0
H1227 H 0.25607 0.85782 0.64457 0.0
H1228 H 0.33198 0.9525 0.6692 0.0
H1229 H 0.35473 0.88287 0.64608 0.0
H1230 H 0.33021 0.88346 0.629 0.0
H1231 H 0.32691 0.87111 0.66431 0.0
C1232 C 0.28356 0.90995 0.60782 0.0
C1233 C 0.26558 0.88696 0.61528 0.0
C1234 C 0.3053 0.92092 0.6225 0.0
C1235 C 0.30961 0.90918 0.645 0.0
C1236 C 0.29127 0.88651 0.65305 0.0
H1237 H 0.42338 0.94685 0.76822 0.0
H1238 H 0.38586 0.92953 0.74176 0.0
C1239 C 0.26965 0.87546 0.63818 0.0
C1240 C 0.33314 0.92064 0.6601 0.0
H1241 H 0.3784 0.9115 0.68126 0.0
C1242 C 0.34216 0.94355 0.67159 0.0
C1243 C 0.34675 0.9092 0.66322 0.0
C1244 C 0.33929 0.88542 0.64974 0.0
C1245 C 0.36387 0.95493 0.6866 0.0
C1246 C 0.37707 0.94322 0.69028 0.0
C1247 C 0.36822 0.92045 0.67864 0.0
C1248 C 0.39997 0.95415 0.7064 0.0
C1249 C 0.37236 0.97926 0.69899 0.0
C1250 C 0.42054 0.97376 0.69538 0.0
C1251 C 0.44215 0.98344 0.71029 0.0
C1252 C 0.44367 0.97374 0.73655 0.0
C1253 C 0.42295 0.9544 0.74775 0.0
C1254 C 0.40144 0.94457 0.73272 0.0
H1255 H 0.35843 0.98437 0.69829 0.0
H1256 H 0.37811 0.97996 0.72148 0.0
H1257 H 0.3879 0.99254 0.68663 0.0
H1258 H 0.41995 0.98138 0.67502 0.0
H1259 H 0.45777 0.99835 0.70113 0.0
H1260 H 0.14313 0.32405 0.46086 0.0
H1261 H 0.13825 0.3211 0.40901 0.0
H1262 H 0.20182 0.38899 0.3993 0.0
H1263 H 0.20704 0.39213 0.45116 0.0
H1264 H 0.13562 0.35213 0.36639 0.0
H1265 H 0.21456 0.34108 0.35464 0.0
H1266 H 0.20009 0.33801 0.38853 0.0
H1267 H 0.21952 0.36698 0.37408 0.0
C1268 C 0.15596 0.33853 0.44778 0.0
C1269 C 0.17565 0.35822 0.4602 0.0
C1270 C 0.15309 0.3368 0.41814 0.0
C1271 C 0.16988 0.35464 0.40039 0.0
C1272 C 0.18887 0.37488 0.41269 0.0
H1273 H 0.16976 0.37555 0.21831 0.0
H1274 H 0.16617 0.37695 0.27004 0.0
C1275 C 0.19175 0.37667 0.44234 0.0
C1276 C 0.16827 0.3514 0.36903 0.0
H1277 H 0.19667 0.34407 0.31208 0.0
C1278 C 0.14892 0.35034 0.35446 0.0
C1279 C 0.18545 0.34865 0.35368 0.0
C1280 C 0.20599 0.34852 0.36847 0.0
C1281 C 0.14659 0.34712 0.32471 0.0
C1282 C 0.16417 0.34509 0.30927 0.0
C1283 C 0.18325 0.3457 0.32398 0.0
C1284 C 0.16361 0.34294 0.27775 0.0
C1285 C 0.12524 0.34565 0.3101 0.0
C1286 C 0.16334 0.32333 0.26489 0.0
C1287 C 0.1655 0.32249 0.23526 0.0
C1288 C 0.1682 0.34139 0.21798 0.0
C1289 C 0.16769 0.36066 0.23092 0.0
C1290 C 0.16549 0.36145 0.26052 0.0
H1291 H 0.11054 0.34112 0.3254 0.0
H1292 H 0.13027 0.36312 0.30043 0.0
H1293 H 0.11873 0.33219 0.29279 0.0
H1294 H 0.16202 0.30891 0.27786 0.0
H1295 H 0.16585 0.30739 0.22605 0.0
H1296 H 0.64067 0.82214 0.45006 0.0
H1297 H 0.64193 0.81925 0.39803 0.0
H1298 H 0.70839 0.82001 0.40444 0.0
H1299 H 0.70721 0.82261 0.45628 0.0
H1300 H 0.67768 0.85383 0.36471 0.0
H1301 H 0.67153 0.76664 0.34708 0.0
H1302 H 0.66312 0.77444 0.38036 0.0
H1303 H 0.69384 0.785 0.37252 0.0
C1304 C 0.65531 0.82119 0.44046 0.0
C1305 C 0.67388 0.82271 0.45738 0.0
C1306 C 0.65601 0.81958 0.41073 0.0
C1307 C 0.67515 0.81921 0.39741 0.0
C1308 C 0.69324 0.81982 0.41428 0.0
H1309 H 0.72859 0.86817 0.22677 0.0
H1310 H 0.72387 0.86109 0.27831 0.0
C1311 C 0.69259 0.82147 0.44396 0.0
C1312 C 0.67748 0.82063 0.36589 0.0
H1313 H 0.68465 0.79345 0.30743 0.0
C1314 C 0.67901 0.84054 0.35215 0.0
C1315 C 0.67913 0.80322 0.34958 0.0
C1316 C 0.6766 0.781 0.36307 0.0
C1317 C 0.68265 0.84377 0.3226 0.0
C1318 C 0.68517 0.82681 0.30643 0.0
C1319 C 0.68307 0.80659 0.32001 0.0
C1320 C 0.6893 0.82957 0.27522 0.0
C1321 C 0.68354 0.86521 0.30886 0.0
C1322 C 0.67188 0.8136 0.25644 0.0
C1323 C 0.67453 0.81752 0.227 0.0
C1324 C 0.69474 0.83747 0.21578 0.0
C1325 C 0.71275 0.85272 0.23465 0.0
C1326 C 0.71005 0.84878 0.26412 0.0
H1327 H 0.67598 0.87349 0.32297 0.0
H1328 H 0.70227 0.87866 0.30435 0.0
H1329 H 0.67371 0.86038 0.28832 0.0
H1330 H 0.65581 0.79859 0.26463 0.0
H1331 H 0.66035 0.80532 0.21312 0.0
H1332 H 0.23294 0.86693 0.21848 0.0
H1333 H 0.23763 0.86999 0.27027 0.0
H1334 H 0.17219 0.87105 0.27825 0.0
H1335 H 0.16714 0.86777 0.2263 0.0
H1336 H 0.23883 0.90336 0.31133 0.0
H1337 H 0.16184 0.81239 0.32526 0.0
H1338 H 0.17592 0.82353 0.29111 0.0
H1339 H 0.15599 0.83253 0.30527 0.0
C1340 C 0.21963 0.86808 0.23114 0.0
C1341 C 0.19948 0.86681 0.21822 0.0
C1342 C 0.2224 0.86989 0.26076 0.0
C1343 C 0.20508 0.87036 0.27805 0.0
C1344 C 0.18558 0.87034 0.26523 0.0
H1345 H 0.20734 0.89216 0.46078 0.0
H1346 H 0.20954 0.89709 0.409 0.0
C1347 C 0.18278 0.86858 0.23554 0.0
C1348 C 0.20681 0.8694 0.30949 0.0
H1349 H 0.1801 0.83386 0.36721 0.0
C1350 C 0.22599 0.88822 0.32362 0.0
C1351 C 0.19025 0.8494 0.3253 0.0
C1352 C 0.16993 0.82819 0.31103 0.0
C1353 C 0.22886 0.88771 0.35331 0.0
C1354 C 0.21199 0.86793 0.36918 0.0
C1355 C 0.19298 0.84902 0.35497 0.0
C1356 C 0.21338 0.86648 0.40063 0.0
C1357 C 0.2501 0.9081 0.36739 0.0
C1358 C 0.21489 0.84765 0.41314 0.0
C1359 C 0.21356 0.8447 0.44279 0.0
C1360 C 0.21046 0.86041 0.46046 0.0
C1361 C 0.20977 0.87973 0.44786 0.0
C1362 C 0.21115 0.88268 0.41823 0.0
H1363 H 0.26432 0.91872 0.3517 0.0
H1364 H 0.24459 0.92001 0.37754 0.0
H1365 H 0.25746 0.90163 0.38428 0.0
H1366 H 0.21654 0.83491 0.39988 0.0
H1367 H 0.21412 0.82962 0.45173 0.0
H1368 H 0.30546 0.15791 0.78543 0.0
H1369 H 0.3045 0.15382 0.73334 0.0
H1370 H 0.36983 0.15208 0.73608 0.0
H1371 H 0.37085 0.15588 0.78786 0.0
H1372 H 0.33942 0.18668 0.69757 0.0
H1373 H 0.32939 0.09774 0.68148 0.0
H1374 H 0.32278 0.10686 0.71504 0.0
H1375 H 0.35294 0.11599 0.70564 0.0
C1376 C 0.31936 0.15617 0.775 0.0
C1377 C 0.33826 0.15731 0.79084 0.0
C1378 C 0.3188 0.15387 0.74525 0.0
C1379 C 0.33695 0.15238 0.7309 0.0
C1380 C 0.35538 0.1527 0.74674 0.0
H1381 H 0.39014 0.19779 0.56048 0.0
H1382 H 0.38448 0.19106 0.61198 0.0
C1383 C 0.35601 0.15506 0.77639 0.0
C1384 C 0.33806 0.15293 0.69929 0.0
H1385 H 0.3431 0.12405 0.64116 0.0
C1386 C 0.33995 0.17286 0.68521 0.0
C1387 C 0.33865 0.13483 0.68321 0.0
C1388 C 0.3356 0.11253 0.69707 0.0
C1389 C 0.34318 0.17555 0.65556 0.0
C1390 C 0.34488 0.15799 0.63965 0.0
C1391 C 0.34216 0.13765 0.65353 0.0
C1392 C 0.34928 0.16051 0.6085 0.0
C1393 C 0.34474 0.19717 0.64147 0.0
C1394 C 0.33174 0.14494 0.58953 0.0
C1395 C 0.33492 0.14867 0.56008 0.0
C1396 C 0.35578 0.168 0.54907 0.0
C1397 C 0.37382 0.18282 0.56818 0.0
C1398 C 0.37058 0.17909 0.59763 0.0
H1399 H 0.33759 0.20595 0.6554 0.0
H1400 H 0.3636 0.21018 0.63688 0.0
H1401 H 0.3349 0.19241 0.62093 0.0
H1402 H 0.31524 0.13041 0.59755 0.0
H1403 H 0.3207 0.13682 0.54601 0.0
H1404 H 0.89744 0.19555 0.55035 0.0
H1405 H 0.90251 0.19768 0.60215 0.0
H1406 H 0.83903 0.2022 0.61194 0.0
H1407 H 0.83362 0.1999 0.56008 0.0
H1408 H 0.90578 0.23161 0.64396 0.0
H1409 H 0.82634 0.14235 0.65809 0.0
H1410 H 0.84037 0.15319 0.62384 0.0
H1411 H 0.82135 0.1632 0.6384 0.0
C1412 C 0.88465 0.19725 0.56343 0.0
C1413 C 0.86495 0.19729 0.55102 0.0
C1414 C 0.88763 0.1985 0.59305 0.0
C1415 C 0.87094 0.1997 0.61083 0.0
C1416 C 0.8519 0.2009 0.59854 0.0
H1417 H 0.87379 0.22396 0.79235 0.0
H1418 H 0.87666 0.22792 0.74048 0.0
C1419 C 0.84891 0.1997 0.56889 0.0
C1420 C 0.87284 0.19848 0.64222 0.0
H1421 H 0.84482 0.16379 0.70012 0.0
C1422 C 0.8925 0.2168 0.6563 0.0
C1423 C 0.85569 0.1789 0.65811 0.0
C1424 C 0.83483 0.15815 0.6439 0.0
C1425 C 0.89516 0.21631 0.68603 0.0
C1426 C 0.8776 0.19708 0.70201 0.0
C1427 C 0.85822 0.17855 0.68782 0.0
C1428 C 0.8785 0.19599 0.73357 0.0
C1429 C 0.91684 0.23621 0.70006 0.0
C1430 C 0.87859 0.17671 0.74694 0.0
C1431 C 0.87684 0.1743 0.77667 0.0
C1432 C 0.87474 0.19104 0.79354 0.0
C1433 C 0.87541 0.21073 0.78007 0.0
C1434 C 0.8772 0.21313 0.75038 0.0
H1435 H 0.93143 0.24592 0.68446 0.0
H1436 H 0.9122 0.24904 0.70939 0.0
H1437 H 0.92336 0.22939 0.71754 0.0
H1438 H 0.87947 0.16323 0.7343 0.0
H1439 H 0.87635 0.1589 0.78629 0.0
H1440 H 0.82155 0.6963 0.54854 0.0
H1441 H 0.81793 0.69866 0.60026 0.0
H1442 H 0.84935 0.65453 0.61287 0.0
H1443 H 0.85173 0.65101 0.56114 0.0
H1444 H 0.81628 0.64357 0.65047 0.0
H1445 H 0.87226 0.74155 0.64926 0.0
H1446 H 0.84576 0.73132 0.62856 0.0
H1447 H 0.86778 0.72377 0.61791 0.0
C1448 C 0.82739 0.68685 0.56239 0.0
C1449 C 0.83709 0.67361 0.55086 0.0
C1450 C 0.82554 0.68842 0.59194 0.0
C1451 C 0.8341 0.67745 0.61054 0.0
C1452 C 0.8428 0.66333 0.599 0.0
H1453 H 0.88335 0.71852 0.78285 0.0
H1454 H 0.8776 0.71416 0.73124 0.0
C1455 C 0.84412 0.66128 0.56942 0.0
C1456 C 0.83465 0.68112 0.64194 0.0
H1457 H 0.85488 0.72391 0.69355 0.0
C1458 C 0.82474 0.66115 0.65989 0.0
C1459 C 0.84603 0.70407 0.6543 0.0
C1460 C 0.85878 0.72638 0.63653 0.0
C1461 C 0.82612 0.66342 0.68976 0.0
C1462 C 0.8368 0.68637 0.7021 0.0
C1463 C 0.84644 0.70633 0.68414 0.0
C1464 C 0.83967 0.69016 0.73351 0.0
C1465 C 0.81702 0.6412 0.7076 0.0
C1466 C 0.82019 0.67878 0.75208 0.0
C1467 C 0.82353 0.68086 0.78168 0.0
C1468 C 0.84632 0.69498 0.79323 0.0
C1469 C 0.86556 0.70757 0.77461 0.0
C1470 C 0.86229 0.70505 0.74507 0.0
H1471 H 0.81594 0.62621 0.69502 0.0
H1472 H 0.82858 0.64418 0.7264 0.0
H1473 H 0.79891 0.63579 0.71531 0.0
H1474 H 0.80245 0.6679 0.74373 0.0
H1475 H 0.80833 0.67116 0.79553 0.0
H1476 H 0.04547 0.49481 0.12805 0.0
H1477 H 0.04809 0.49276 0.07618 0.0
H1478 H 0.97995 0.48803 0.06721 0.0
H1479 H 0.97713 0.4902 0.11913 0.0
H1480 H 1.0167 0.45878 0.03391 0.0
H1481 H 0.02749 0.54876 0.02207 0.0
H1482 H 0.0309 0.53747 0.05592 0.0
H1483 H 1.00182 0.52777 0.04182 0.0
C1484 C 0.03087 0.49304 0.11513 0.0
C1485 C 1.01119 0.49294 0.12778 0.0
C1486 C 0.0324 0.49183 0.08548 0.0
C1487 C 1.01439 0.49061 0.06793 0.0
C1488 C 0.99418 0.48929 0.08046 0.0
H1489 H 0.99464 0.47097 0.88523 0.0
H1490 H 0.99242 0.46544 0.93695 0.0
C1491 C 0.99258 0.49044 0.11013 0.0
C1492 C 1.01744 0.49218 0.03654 0.0
H1493 H 0.02499 0.52809 0.9796 0.0
C1494 C 1.0185 0.47389 0.02197 0.0
C1495 C 1.0202 0.51214 0.02119 0.0
C1496 C 1.02026 0.53279 0.03598 0.0
C1497 C 0.02182 0.47486 0.99223 0.0
C1498 C 0.02398 0.49455 0.97681 0.0
C1499 C 0.02327 0.51298 0.9915 0.0
C1500 C 0.02657 0.49638 0.94535 0.0
C1501 C 0.0233 0.45499 0.9776 0.0
C1502 C 0.04655 0.51559 0.93289 0.0
C1503 C 0.04788 0.51888 0.9033 0.0
C1504 C 0.0291 0.50313 0.88563 0.0
C1505 C 1.00945 0.48345 0.89816 0.0
C1506 C 1.00818 0.48015 0.92774 0.0
H1507 H 0.02731 0.44443 0.99295 0.0
H1508 H 1.00602 0.44291 0.96734 0.0
H1509 H 0.03713 0.46202 0.96071 0.0
H1510 H 0.06089 0.52837 0.94617 0.0
H1511 H 0.06326 0.53423 0.89442 0.0
H1512 H 0.49368 0.52027 0.8957 0.0
H1513 H 0.49988 0.52344 0.94733 0.0
H1514 H 0.5748 0.55102 0.93446 0.0
H1515 H 0.56845 0.54666 0.88286 0.0
H1516 H 0.56002 0.51847 0.97256 0.0
H1517 H 0.52471 0.57717 1.00138 0.0
H1518 H 0.50277 0.5516 0.98262 0.0
H1519 H 0.52987 0.5724 0.96479 0.0
C1520 C 0.51153 0.52743 0.90388 0.0
C1521 C 0.53058 0.53326 0.88526 0.0
C1522 C 0.5151 0.52937 0.93344 0.0
C1523 C 0.53789 0.53785 0.94491 0.0
C1524 C 0.55706 0.54445 0.9262 0.0
H1525 H 0.55726 0.5634 0.12862 0.0
H1526 H 0.56091 0.56871 0.07683 0.0
C1527 C 0.55342 0.54203 0.8967 0.0
C1528 C 0.54147 0.53808 0.97631 0.0
H1529 H 0.52767 0.55407 0.0397 0.0
C1530 C 0.55323 0.52657 0.98721 0.0
C1531 C 0.53304 0.54897 0.99554 0.0
C1532 C 0.52215 0.56345 0.98543 0.0
C1533 C 0.55613 0.52503 0.01669 0.0
C1534 C 0.54616 0.5344 0.03595 0.0
C1535 C 0.53507 0.54656 0.02504 0.0
C1536 C 0.54644 0.5314 0.06742 0.0
C1537 C 0.57015 0.51363 0.02674 0.0
C1538 C 0.53749 0.50872 0.07953 0.0
C1539 C 0.53595 0.50573 0.10918 0.0
C1540 C 0.54266 0.52528 0.12727 0.0
C1541 C 0.55195 0.548 0.11519 0.0
C1542 C 0.55396 0.55104 0.08559 0.0
H1543 H 0.58337 0.51542 0.01047 0.0
H1544 H 0.57962 0.52158 0.04703 0.0
H1545 H 0.55791 0.49439 0.0302 0.0
H1546 H 0.53087 0.49316 0.06608 0.0
H1547 H 0.52838 0.48796 0.11786 0.0
H1548 H 0.51259 0.97797 0.90065 0.0
H1549 H 0.50808 0.98078 0.95201 0.0
H1550 H 0.47534 0.02342 0.93667 0.0
H1551 H 0.48115 0.02179 0.8853 0.0
H1552 H 0.50662 0.04353 0.97492 0.0
H1553 H 0.45494 0.94938 1.0061 0.0
H1554 H 0.48129 0.95469 0.98779 0.0
H1555 H 0.45915 0.95856 0.9692 0.0
C1556 C 0.50401 0.98754 0.90823 0.0
C1557 C 0.4972 0.99964 0.88902 0.0
C1558 C 0.50127 0.98901 0.93764 0.0
C1559 C 0.49096 1.00196 0.94835 0.0
C1560 C 0.48331 1.01329 0.92901 0.0
H1561 H 0.47034 0.99738 0.13378 0.0
H1562 H 0.46242 0.9936 0.08239 0.0
C1563 C 0.48657 1.0123 0.89966 0.0
C1564 C 0.49023 1.00555 0.97964 0.0
H1565 H 0.47768 0.97685 0.04379 0.0
C1566 C 0.49989 0.02886 0.98993 0.0
C1567 C 0.48104 0.9865 0.99938 0.0
C1568 C 0.46828 0.9609 0.98997 0.0
C1569 C 0.50154 0.03371 0.01929 0.0
C1570 C 0.4943 0.01484 0.03903 0.0
C1571 C 0.48365 0.99144 0.02876 0.0
C1572 C 0.49852 0.01893 0.07026 0.0
C1573 C 0.51091 0.05905 0.02868 0.0
C1574 C 0.52137 0.0346 0.08067 0.0
C1575 C 0.52578 0.03721 0.11002 0.0
C1576 C 0.5076 0.02365 0.12957 0.0
C1577 C 0.4847 1.00809 0.11921 0.0
C1578 C 0.48018 1.00587 0.08984 0.0
H1579 H 0.50693 0.06912 0.01256 0.0
H1580 H 0.50322 0.06 0.04946 0.0
H1581 H 0.53047 0.06796 0.03086 0.0
H1582 H 0.53603 0.04428 0.06611 0.0
H1583 H 0.5437 0.04905 0.11732 0.0
H1584 H 0.25957 0.34402 0.14196 0.0
H1585 H 0.30137 0.36376 0.15634 0.0
H1586 H 0.30601 0.4319 0.14734 0.0
H1587 H 0.26439 0.41244 0.13303 0.0
H1588 H 0.34426 0.39942 0.12949 0.0
H1589 H 0.32653 0.43192 0.23085 0.0
H1590 H 0.3032 0.40903 0.20957 0.0
H1591 H 0.31613 0.43966 0.19934 0.0
C1592 C 0.26953 0.36322 0.14261 0.0
C1593 C 0.25838 0.37655 0.13645 0.0
C1594 C 0.29347 0.3745 0.15096 0.0
C1595 C 0.30677 0.39933 0.15358 0.0
C1596 C 0.29604 0.41271 0.14611 0.0
H1597 H 0.44799 0.50466 0.20907 0.0
H1598 H 0.4063 0.48203 0.19525 0.0
C1599 C 0.27219 0.4015 0.13767 0.0
C1600 C 0.33165 0.41126 0.16471 0.0
H1601 H 0.36686 0.44636 0.21906 0.0
C1602 C 0.34919 0.40955 0.14917 0.0
C1603 C 0.33815 0.42453 0.1904 0.0
C1604 C 0.32002 0.42629 0.2087 0.0
C1605 C 0.37308 0.4213 0.15811 0.0
C1606 C 0.37964 0.43469 0.18377 0.0
C1607 C 0.36199 0.43615 0.19944 0.0
C1608 C 0.40478 0.44804 0.19416 0.0
C1609 C 0.39121 0.41994 0.13935 0.0
C1610 C 0.41785 0.4365 0.1993 0.0
C1611 C 0.44186 0.44947 0.20721 0.0
C1612 C 0.45338 0.47431 0.21049 0.0
C1613 C 0.43988 0.48561 0.20678 0.0
C1614 C 0.41594 0.47265 0.19876 0.0
H1615 H 0.38461 0.41462 0.11717 0.0
H1616 H 0.40798 0.43725 0.1386 0.0
H1617 H 0.39519 0.40646 0.14813 0.0
H1618 H 0.40958 0.41746 0.19678 0.0
H1619 H 0.45156 0.44008 0.20998 0.0
H1620 H 0.5985 0.02504 0.20541 0.0
H1621 H 0.62152 1.00629 0.19084 0.0
H1622 H 0.55923 0.9373 0.19909 0.0
H1623 H 0.53613 0.95572 0.21377 0.0
H1624 H 0.62809 0.96859 0.21881 0.0
H1625 H 0.582 0.94145 0.11414 0.0
H1626 H 0.58182 0.96423 0.13599 0.0
H1627 H 0.5631 0.93351 0.14499 0.0
C1628 C 0.58974 1.00585 0.20459 0.0
C1629 C 0.56533 0.99197 0.21069 0.0
C1630 C 0.60295 0.99516 0.19615 0.0
C1631 C 0.59204 0.97039 0.19335 0.0
C1632 C 0.56799 0.95646 0.20064 0.0
H1633 H 0.62802 0.86685 0.13198 0.0
H1634 H 0.60934 0.88967 0.14646 0.0
C1635 C 0.55482 0.96708 0.20925 0.0
C1636 C 0.60545 0.95905 0.18198 0.0
H1637 H 0.60774 0.92682 0.1256 0.0
C1638 C 0.62379 0.95959 0.19835 0.0
C1639 C 0.5998 0.94724 0.1553 0.0
C1640 C 0.58074 0.94664 0.13638 0.0
C1641 C 0.63609 0.94802 0.18922 0.0
C1642 C 0.6304 0.9361 0.16251 0.0
C1643 C 0.61224 0.93591 0.146 0.0
C1644 C 0.6422 0.9228 0.15189 0.0
C1645 C 0.65438 0.94788 0.2089 0.0
C1646 C 0.667 0.93384 0.14901 0.0
C1647 C 0.67785 0.92072 0.14081 0.0
C1648 C 0.66414 0.89627 0.13488 0.0
C1649 C 0.63926 0.88559 0.13632 0.0
C1650 C 0.62848 0.89866 0.14472 0.0
H1651 H 0.65198 0.95191 0.2313 0.0
H1652 H 0.65358 0.93042 0.20851 0.0
H1653 H 0.67232 0.96167 0.20185 0.0
H1654 H 0.67805 0.95258 0.15349 0.0
H1655 H 0.69702 0.92964 0.13981 0.0
H1656 H 1.01243 0.58191 0.20351 0.0
H1657 H 0.03178 0.6238 0.18916 0.0
H1658 H 0.10025 0.63 0.20127 0.0
H1659 H 0.08125 0.5884 0.21566 0.0
H1660 H 0.06791 0.66764 0.21769 0.0
H1661 H 0.09994 0.64942 0.11621 0.0
H1662 H 0.07653 0.62627 0.1372 0.0
H1663 H 0.10693 0.63851 0.1479 0.0
C1664 C 0.03161 0.59225 0.2036 0.0
C1665 C 0.04519 0.58156 0.21066 0.0
C1666 C 0.04265 0.61622 0.19527 0.0
C1667 C 0.06749 0.62998 0.19357 0.0
C1668 C 0.08107 0.61969 0.2019 0.0
H1669 H 0.17403 0.77009 0.13727 0.0
H1670 H 0.15055 0.72846 0.15117 0.0
C1671 C 0.0701 0.59584 0.21035 0.0
C1672 C 0.07932 0.65481 0.1823 0.0
H1673 H 0.11448 0.6898 0.12782 0.0
C1674 C 0.07794 0.67249 0.19794 0.0
C1675 C 0.09248 0.66118 0.15653 0.0
C1676 C 0.09398 0.64287 0.13828 0.0
C1677 C 0.08999 0.69643 0.18904 0.0
C1678 C 0.10331 0.70287 0.1633 0.0
C1679 C 0.10433 0.68503 0.14748 0.0
C1680 C 0.11714 0.72806 0.15304 0.0
C1681 C 0.08908 0.71472 0.20797 0.0
C1682 C 0.10622 0.74177 0.14837 0.0
C1683 C 0.1197 0.76578 0.14046 0.0
C1684 C 0.14442 0.77663 0.13666 0.0
C1685 C 0.15508 0.7625 0.13995 0.0
C1686 C 0.14163 0.73858 0.14801 0.0
H1687 H 0.08377 0.70808 0.23015 0.0
H1688 H 0.10653 0.73132 0.20868 0.0
H1689 H 0.07578 0.71903 0.19939 0.0
H1690 H 0.08727 0.734 0.1512 0.0
H1691 H 0.11079 0.77598 0.13802 0.0
H1692 H 0.41578 0.25313 0.87364 0.0
H1693 H 0.43498 0.295 0.86038 0.0
H1694 H 0.36706 0.29138 0.85886 0.0
H1695 H 0.34759 0.24936 0.87231 0.0
H1696 H 0.42647 0.31268 0.8097 0.0
H1697 H 0.40831 0.35242 0.90445 0.0
H1698 H 0.40555 0.32339 0.90531 0.0
H1699 H 0.38278 0.32739 0.88908 0.0
C1700 C 0.40486 0.26125 0.87107 0.0
C1701 C 0.38004 0.24769 0.87417 0.0
C1702 C 0.41593 0.28526 0.86331 0.0
C1703 C 0.40256 0.2965 0.8587 0.0
C1704 C 0.37786 0.28329 0.86269 0.0
H1705 H 0.44504 0.44221 0.80573 0.0
H1706 H 0.42211 0.39996 0.81803 0.0
C1707 C 0.36673 0.25918 0.87037 0.0
C1708 C 0.41441 0.32155 0.84806 0.0
H1709 H 0.42624 0.37765 0.86474 0.0
C1710 C 0.42643 0.32688 0.82177 0.0
C1711 C 0.41423 0.34012 0.8636 0.0
C1712 C 0.40221 0.3357 0.89229 0.0
C1713 C 0.43815 0.35011 0.8106 0.0
C1714 C 0.43842 0.36882 0.82641 0.0
C1715 C 0.42609 0.36342 0.85253 0.0
C1716 C 0.45208 0.39418 0.81682 0.0
C1717 C 0.44975 0.35423 0.78166 0.0
C1718 C 0.4766 0.40517 0.81173 0.0
C1719 C 0.48973 0.42927 0.80443 0.0
C1720 C 0.47878 0.44322 0.80233 0.0
C1721 C 0.45412 0.43209 0.80691 0.0
C1722 C 0.44097 0.40791 0.81414 0.0
H1723 H 0.44156 0.33776 0.76864 0.0
H1724 H 0.4485 0.3683 0.76964 0.0
H1725 H 0.46877 0.35988 0.78449 0.0
H1726 H 0.48581 0.39528 0.81428 0.0
H1727 H 0.50868 0.43714 0.80143 0.0
H1728 H 0.59474 0.07485 0.80855 0.0
H1729 H 0.63669 0.0943 0.8215 0.0
H1730 H 0.63323 0.0264 0.82401 0.0
H1731 H 0.59119 1.00672 0.81094 0.0
H1732 H 0.65514 0.08638 0.87217 0.0
H1733 H 0.69354 0.06722 0.7769 0.0
H1734 H 0.66454 0.06449 0.77655 0.0
H1735 H 0.66871 0.04181 0.79282 0.0
C1736 C 0.60292 0.064 0.81134 0.0
C1737 C 0.58941 0.03912 0.80857 0.0
C1738 C 0.62697 0.07519 0.81891 0.0
C1739 C 0.63829 0.06191 0.82363 0.0
C1740 C 0.62508 0.03715 0.8201 0.0
H1741 H 0.78413 0.10372 0.8741 0.0
H1742 H 0.74179 0.0811 0.86243 0.0
C1743 C 0.60096 0.02588 0.81264 0.0
C1744 C 0.66346 0.0739 0.83375 0.0
H1745 H 0.71921 0.08525 0.81618 0.0
C1746 C 0.66915 0.08616 0.85988 0.0
C1747 C 0.68179 0.07349 0.81793 0.0
C1748 C 0.67699 0.06123 0.78937 0.0
C1749 C 0.69249 0.09783 0.87066 0.0
C1750 C 0.71095 0.09783 0.85459 0.0
C1751 C 0.70519 0.08532 0.8286 0.0
C1752 C 0.7364 0.11133 0.86381 0.0
C1753 C 0.69698 0.10965 0.89949 0.0
C1754 C 0.74765 0.1359 0.86878 0.0
C1755 C 0.77182 0.14886 0.87572 0.0
C1756 C 0.78557 0.13768 0.87756 0.0
C1757 C 0.77418 0.11297 0.87309 0.0
C1758 C 0.74993 0.1 0.86623 0.0
H1759 H 0.68065 0.10167 0.91277 0.0
H1760 H 0.71107 0.10834 0.91132 0.0
H1761 H 0.70275 0.12871 0.8965 0.0
H1762 H 0.73792 0.14529 0.86642 0.0
H1763 H 0.77988 0.16785 0.87867 0.0
H1764 H 0.86984 0.62434 0.87626 0.0
H1765 H 0.89221 0.60488 0.86275 0.0
H1766 H 0.9565 0.67272 0.85979 0.0
H1767 H 0.93424 0.69246 0.87329 0.0
H1768 H 0.91871 0.61392 0.81092 0.0
H1769 H 0.97567 0.63068 0.90639 0.0
H1770 H 0.94916 0.63299 0.90728 0.0
H1771 H 0.97579 0.65621 0.89142 0.0
C1772 C 0.8888 0.63519 0.87326 0.0
C1773 C 0.90014 0.66008 0.87595 0.0
C1774 C 0.90158 0.62398 0.86538 0.0
C1775 C 0.9261 0.63725 0.86031 0.0
C1776 C 0.93767 0.662 0.86391 0.0
H1777 H 0.0286 0.59342 0.80893 0.0
H1778 H 1.00967 0.61671 0.82127 0.0
C1779 C 0.92486 0.67329 0.87164 0.0
C1780 C 0.93914 0.62525 0.84969 0.0
H1781 H 0.98269 0.61249 0.86686 0.0
C1782 C 0.93269 0.6136 0.82318 0.0
C1783 C 0.95757 0.62499 0.86546 0.0
C1784 C 0.96493 0.63671 0.89433 0.0
C1785 C 0.94414 0.60182 0.812 0.0
C1786 C 0.96221 0.60104 0.82807 0.0
C1787 C 0.96889 0.613 0.85443 0.0
C1788 C 0.97376 0.58721 0.8185 0.0
C1789 C 0.93701 0.59075 0.78275 0.0
C1790 C 0.96003 0.56283 0.81254 0.0
C1791 C 0.9708 0.54952 0.80518 0.0
C1792 C 0.99568 0.5601 0.80394 0.0
C1793 C 1.00943 0.58462 0.80945 0.0
C1794 C 0.9986 0.59798 0.8167 0.0
H1795 H 0.92928 0.59949 0.7697 0.0
H1796 H 0.95236 0.59185 0.77105 0.0
H1797 H 0.9233 0.57178 0.78505 0.0
H1798 H 0.94091 0.55385 0.81442 0.0
H1799 H 0.95954 0.53068 0.80144 0.0
H1800 H 0.61622 0.52982 0.79189 0.0
H1801 H 0.655 0.5363 0.80599 0.0
H1802 H 0.62188 0.47513 0.86137 0.0
H1803 H 0.58284 0.46871 0.84772 0.0
H1804 H 0.65339 0.51362 0.88955 0.0
H1805 H 0.69558 0.5069 0.79095 0.0
H1806 H 0.68308 0.52557 0.78469 0.0
H1807 H 0.6639 0.49476 0.79374 0.0
C1808 C 0.61712 0.51739 0.80655 0.0
C1809 C 0.59648 0.4989 0.8189 0.0
C1810 C 0.63933 0.52098 0.8144 0.0
C1811 C 0.64133 0.506 0.83445 0.0
C1812 C 0.62071 0.48677 0.84571 0.0
H1813 H 0.79276 0.57144 0.87042 0.0
H1814 H 0.75273 0.5374 0.86516 0.0
C1815 C 0.59844 0.48318 0.8379 0.0
C1816 C 0.66486 0.51278 0.84654 0.0
H1817 H 0.72243 0.53594 0.82623 0.0
C1818 C 0.66844 0.51784 0.87586 0.0
C1819 C 0.68441 0.51769 0.82895 0.0
C1820 C 0.68146 0.51065 0.7979 0.0
C1821 C 0.69134 0.5301 0.88738 0.0
C1822 C 0.71103 0.53786 0.86893 0.0
C1823 C 0.70734 0.53042 0.84032 0.0
C1824 C 0.73502 0.55671 0.87738 0.0
C1825 C 0.6942 0.53561 0.91889 0.0
C1826 C 0.73831 0.5787 0.88649 0.0
C1827 C 0.76105 0.59811 0.88954 0.0
C1828 C 0.78098 0.59599 0.88313 0.0
C1829 C 0.77773 0.57366 0.87539 0.0
C1830 C 0.7549 0.55418 0.87242 0.0
H1831 H 0.67945 0.52118 0.9312 0.0
H1832 H 0.7113 0.53808 0.92711 0.0
H1833 H 0.6936 0.55214 0.92271 0.0
H1834 H 0.72326 0.58128 0.8897 0.0
H1835 H 0.76293 0.61504 0.89558 0.0
H1836 H 0.4514 0.22118 0.81426 0.0
H1837 H 0.48446 0.21684 0.79679 0.0
H1838 H 0.4684 0.16235 0.85965 0.0
H1839 H 0.43538 0.16654 0.87734 0.0
H1840 H 0.51984 0.19697 0.8487 0.0
H1841 H 0.4656 0.15414 0.75135 0.0
H1842 H 0.47135 0.1832 0.76168 0.0
H1843 H 0.45225 0.15794 0.78319 0.0
C1844 C 0.45516 0.20856 0.82472 0.0
C1845 C 0.44057 0.19391 0.84691 0.0
C1846 C 0.47405 0.20615 0.81469 0.0
C1847 C 0.47861 0.18913 0.82677 0.0
C1848 C 0.46509 0.17561 0.85011 0.0
H1849 H 0.51606 0.0917 0.83128 0.0
H1850 H 0.51235 0.12675 0.83668 0.0
C1851 C 0.44618 0.17795 0.86011 0.0
C1852 C 0.49543 0.18311 0.81342 0.0
H1853 H 0.49655 0.14695 0.7616 0.0
C1854 C 0.51525 0.18666 0.82917 0.0
C1855 C 0.4896 0.17004 0.78766 0.0
C1856 C 0.46854 0.16596 0.76987 0.0
C1857 C 0.52802 0.17548 0.82126 0.0
C1858 C 0.52033 0.16001 0.7975 0.0
C1859 C 0.50229 0.15872 0.77992 0.0
C1860 C 0.52633 0.14101 0.79478 0.0
C1861 C 0.54858 0.17895 0.83955 0.0
C1862 C 0.53509 0.13713 0.76916 0.0
C1863 C 0.53716 0.11681 0.76593 0.0
C1864 C 0.52996 0.09998 0.78805 0.0
C1865 C 0.52162 0.10424 0.81375 0.0
C1866 C 0.51983 0.1245 0.81706 0.0
H1867 H 0.558 0.19715 0.84864 0.0
H1868 H 0.5418 0.16626 0.85769 0.0
H1869 H 0.56138 0.17589 0.82722 0.0
H1870 H 0.53977 0.14949 0.75155 0.0
H1871 H 0.54362 0.11392 0.74589 0.0
H1872 H 0.94518 0.4222 0.78578 0.0
H1873 H 0.91195 0.38289 0.79569 0.0
H1874 H 0.87575 0.41394 0.83959 0.0
H1875 H 0.90938 0.45357 0.83033 0.0
H1876 H 0.87877 0.38271 0.87239 0.0
H1877 H 0.84582 0.34074 0.76786 0.0
H1878 H 0.87741 0.35379 0.7684 0.0
H1879 H 0.86435 0.37249 0.77167 0.0
C1880 C 0.92994 0.42075 0.79696 0.0
C1881 C 0.93002 0.44099 0.80754 0.0
C1882 C 0.91079 0.39821 0.80236 0.0
C1883 C 0.89118 0.39545 0.81804 0.0
C1884 C 0.89063 0.41569 0.82728 0.0
H1885 H 0.80563 0.24305 0.8488 0.0
H1886 H 0.81093 0.28249 0.83982 0.0
C1887 C 0.90988 0.4383 0.822 0.0
C1888 C 0.87338 0.37155 0.8283 0.0
H1889 H 0.84423 0.31398 0.80638 0.0
C1890 C 0.87057 0.36771 0.85792 0.0
C1891 C 0.86207 0.35199 0.80956 0.0
C1892 C 0.86237 0.35506 0.77761 0.0
C1893 C 0.85906 0.34469 0.86924 0.0
C1894 C 0.85073 0.32515 0.85045 0.0
C1895 C 0.85111 0.32897 0.82088 0.0
C1896 C 0.84518 0.30134 0.8605 0.0
C1897 C 0.85695 0.34161 0.90123 0.0
C1898 C 0.86247 0.29884 0.87557 0.0
C1899 C 0.85948 0.27642 0.88082 0.0
C1900 C 0.83929 0.25603 0.87068 0.0
C1901 C 0.82145 0.25845 0.85678 0.0
C1902 C 0.82441 0.28095 0.85166 0.0
H1903 H 0.85465 0.35579 0.91132 0.0
H1904 H 0.84181 0.32407 0.90742 0.0
H1905 H 0.87354 0.34312 0.90986 0.0
H1906 H 0.87895 0.3143 0.8819 0.0
H1907 H 0.87357 0.27517 0.89154 0.0
H1908 H 0.61414 0.75858 0.11364 0.0
H1909 H 0.58109 0.71917 0.12366 0.0
H1910 H 0.54421 0.74992 0.16664 0.0
H1911 H 0.57764 0.78963 0.15728 0.0
H1912 H 0.54766 0.71929 0.20003 0.0
H1913 H 0.51511 0.67616 0.09596 0.0
H1914 H 0.54672 0.6895 0.09664 0.0
H1915 H 0.53338 0.70798 0.09935 0.0
C1916 C 0.59877 0.75703 0.12461 0.0
C1917 C 0.59862 0.77721 0.13495 0.0
C1918 C 0.57973 0.73443 0.13008 0.0
C1919 C 0.56 0.73157 0.14559 0.0
C1920 C 0.55919 0.75174 0.15449 0.0
H1921 H 0.47463 0.57942 0.17884 0.0
H1922 H 0.48012 0.61879 0.16881 0.0
C1923 C 0.57833 0.7744 0.14915 0.0
C1924 C 0.54239 0.70769 0.15611 0.0
H1925 H 0.5136 0.6499 0.13503 0.0
C1926 C 0.53958 0.70414 0.18577 0.0
C1927 C 0.53124 0.68793 0.13764 0.0
C1928 C 0.53157 0.69068 0.10563 0.0
C1929 C 0.52818 0.68123 0.19743 0.0
C1930 C 0.51996 0.66152 0.17894 0.0
C1931 C 0.52039 0.66503 0.14929 0.0
C1932 C 0.51438 0.63781 0.18943 0.0
C1933 C 0.52604 0.67846 0.22945 0.0
C1934 C 0.53162 0.63545 0.2048 0.0
C1935 C 0.52853 0.61306 0.21064 0.0
C1936 C 0.50827 0.59258 0.20082 0.0
C1937 C 0.4905 0.5949 0.18658 0.0
C1938 C 0.49357 0.61735 0.18086 0.0
H1939 H 0.52375 0.69274 0.23925 0.0
H1940 H 0.51088 0.661 0.23581 0.0
H1941 H 0.54261 0.68004 0.23823 0.0
H1942 H 0.54814 0.65096 0.21094 0.0
H1943 H 0.54257 0.6119 0.22162 0.0
H1944 H 0.28225 0.86269 0.12167 0.0
H1945 H 0.32128 0.86885 0.13353 0.0
H1946 H 0.28924 0.80337 0.1814 0.0
H1947 H 0.24989 0.79732 0.17015 0.0
H1948 H 0.32 0.83873 0.2131 0.0
H1949 H 0.36359 0.84354 0.1109 0.0
H1950 H 0.35068 0.86219 0.10881 0.0
H1951 H 0.33182 0.83062 0.11371 0.0
C1952 C 0.28343 0.84927 0.13414 0.0
C1953 C 0.26299 0.82966 0.14523 0.0
C1954 C 0.30581 0.85269 0.14067 0.0
C1955 C 0.3082 0.83639 0.15804 0.0
C1956 C 0.28778 0.81607 0.16781 0.0
H1957 H 0.45986 0.90381 0.19277 0.0
H1958 H 0.42056 0.86944 0.18446 0.0
C1959 C 0.26533 0.81268 0.16139 0.0
C1960 C 0.33188 0.84276 0.16936 0.0
H1961 H 0.38974 0.87011 0.14884 0.0
C1962 C 0.33522 0.84491 0.19908 0.0
C1963 C 0.35172 0.85021 0.15125 0.0
C1964 C 0.34917 0.84622 0.11942 0.0
C1965 C 0.35803 0.85677 0.2109 0.0
C1966 C 0.37786 0.86717 0.19247 0.0
C1967 C 0.37453 0.86261 0.16302 0.0
C1968 C 0.40152 0.88572 0.20244 0.0
C1969 C 0.36057 0.85896 0.24294 0.0
C1970 C 0.40386 0.90609 0.21584 0.0
C1971 C 0.42622 0.92568 0.22072 0.0
C1972 C 0.44669 0.92541 0.21185 0.0
C1973 C 0.4444 0.90459 0.19972 0.0
C1974 C 0.42197 0.88491 0.19499 0.0
H1975 H 0.34621 0.84291 0.25354 0.0
H1976 H 0.37796 0.86152 0.2501 0.0
H1977 H 0.35897 0.87437 0.25005 0.0
H1978 H 0.38836 0.90743 0.22106 0.0
H1979 H 0.42736 0.94144 0.23007 0.0
H1980 H 0.09751 0.49616 0.22457 0.0
H1981 H 0.13189 0.49218 0.21373 0.0
H1982 H 0.16489 0.55985 0.1705 0.0
H1983 H 0.13013 0.56374 0.18073 0.0
H1984 H 0.16344 0.52669 0.13703 0.0
H1985 H 0.19876 0.51905 0.24057 0.0
H1986 H 0.16734 0.49942 0.24054 0.0
H1987 H 0.17906 0.53101 0.23744 0.0
C1988 C 0.11228 0.51047 0.21334 0.0
C1989 C 0.111 0.53013 0.20324 0.0
C1990 C 0.13209 0.5083 0.2074 0.0
C1991 C 0.15114 0.5259 0.19166 0.0
C1992 C 0.15045 0.54616 0.18286 0.0
H1993 H 0.23917 0.46252 0.15893 0.0
H1994 H 0.23381 0.49665 0.16746 0.0
C1995 C 0.13056 0.54831 0.18867 0.0
C1996 C 0.16968 0.52107 0.18089 0.0
H1997 H 0.20091 0.49448 0.20166 0.0
C1998 C 0.17228 0.52036 0.15119 0.0
C1999 C 0.18186 0.5135 0.19921 0.0
C2000 C 0.1818 0.51608 0.23121 0.0
C2001 C 0.18438 0.50962 0.13941 0.0
C2002 C 0.1935 0.49888 0.15782 0.0
C2003 C 0.19342 0.50221 0.18745 0.0
C2004 C 0.19926 0.48086 0.14747 0.0
C2005 C 0.18615 0.50881 0.10736 0.0
C2006 C 0.18186 0.46089 0.13282 0.0
C2007 C 0.18488 0.44145 0.12785 0.0
C2008 C 0.20521 0.44144 0.13785 0.0
C2009 C 0.22323 0.46195 0.15111 0.0
C2010 C 0.22024 0.48149 0.15596 0.0
H2011 H 0.188 0.5252 0.0975 0.0
H2012 H 0.20143 0.5068 0.10076 0.0
H2013 H 0.16961 0.4936 0.09889 0.0
H2014 H 0.16523 0.45967 0.12677 0.0
H2015 H 0.17067 0.42594 0.11757 0.0
H2016 H 0.12075 0.77173 0.53649 0.0
H2017 H 0.07885 0.74883 0.52296 0.0
H2018 H 0.07279 0.8116 0.5311 0.0
H2019 H 0.11432 0.83441 0.54535 0.0
H2020 H 0.03426 0.77382 0.5523 0.0
H2021 H 0.05308 0.75042 0.44536 0.0
H2022 H 0.06409 0.74059 0.47434 0.0
H2023 H 0.07615 0.77185 0.4682 0.0
C2024 C 0.11045 0.78063 0.53577 0.0
C2025 C 0.12113 0.80504 0.54193 0.0
C2026 C 0.08648 0.76753 0.52766 0.0
C2027 C 0.07266 0.77855 0.52516 0.0
C2028 C 0.08301 0.80264 0.53255 0.0
H2029 H 0.93232 0.74488 0.46762 0.0
H2030 H 0.97397 0.76363 0.48164 0.0
C2031 C 0.10687 0.8157 0.5408 0.0
C2032 C 0.04753 0.76526 0.51473 0.0
H2033 H 1.01262 0.73345 0.45821 0.0
C2034 C 0.0296 0.76503 0.53171 0.0
C2035 C 0.04125 0.75373 0.48779 0.0
C2036 C 0.05965 0.75429 0.46771 0.0
C2037 C 1.00579 0.75362 0.52266 0.0
C2038 C 0.99956 0.74225 0.49571 0.0
C2039 C 1.01735 0.74214 0.47886 0.0
C2040 C 0.97474 0.73084 0.48458 0.0
C2041 C 0.98737 0.75364 0.5422 0.0
C2042 C 0.96144 0.70619 0.48027 0.0
C2043 C 0.93748 0.69531 0.47214 0.0
C2044 C 0.92632 0.70889 0.46788 0.0
C2045 C 0.94014 0.73374 0.47075 0.0
C2046 C 0.964 0.74454 0.479 0.0
H2047 H 0.99385 0.75804 0.56455 0.0
H2048 H 0.98294 0.76715 0.53466 0.0
H2049 H 0.97084 0.7361 0.542 0.0
H2050 H 0.96936 0.69524 0.48421 0.0
H2051 H 0.9275 0.67617 0.47018 0.0
H2052 H 0.29141 0.19855 0.46268 0.0
H2053 H 0.27329 0.22193 0.47739 0.0
H2054 H 0.34254 0.28328 0.4885 0.0
H2055 H 0.36097 0.25998 0.47394 0.0
H2056 H 0.28228 0.24579 0.5329 0.0
H2057 H 0.30428 0.308 0.44144 0.0
H2058 H 0.30408 0.28021 0.4383 0.0
H2059 H 0.32811 0.30487 0.45619 0.0
C2060 C 0.3029 0.21713 0.4677 0.0
C2061 C 0.32776 0.2273 0.46701 0.0
C2062 C 0.29244 0.23047 0.47628 0.0
C2063 C 0.30649 0.2544 0.48402 0.0
C2064 C 0.33129 0.26492 0.48236 0.0
H2065 H 0.26513 0.358 0.53943 0.0
H2066 H 0.288 0.33871 0.5267 0.0
C2067 C 0.34181 0.25153 0.47399 0.0
C2068 C 0.29512 0.2678 0.49542 0.0
H2069 H 0.28461 0.31326 0.48059 0.0
C2070 C 0.28281 0.26056 0.52147 0.0
C2071 C 0.29601 0.28726 0.48074 0.0
C2072 C 0.30868 0.29557 0.45251 0.0
C2073 C 0.2714 0.27218 0.53321 0.0
C2074 C 0.27162 0.29122 0.51811 0.0
C2075 C 0.28432 0.29871 0.49226 0.0
C2076 C 0.25806 0.30294 0.5281 0.0
C2077 C 0.25963 0.26415 0.562 0.0
C2078 C 0.23358 0.28943 0.53347 0.0
C2079 C 0.22052 0.30039 0.54114 0.0
C2080 C 0.23145 0.32528 0.5432 0.0
C2081 C 0.25607 0.33881 0.53828 0.0
C2082 C 0.26917 0.32778 0.5308 0.0
H2083 H 0.26787 0.25575 0.57476 0.0
H2084 H 0.26068 0.27918 0.57442 0.0
H2085 H 0.24068 0.25069 0.55891 0.0
H2086 H 0.22431 0.27035 0.53085 0.0
H2087 H 0.2016 0.2893 0.54437 0.0
H2088 H 0.68077 0.91445 0.53756 0.0
H2089 H 0.69982 0.95656 0.52475 0.0
H2090 H 0.76809 0.96086 0.5252 0.0
H2091 H 0.74934 0.91909 0.5387 0.0
H2092 H 0.77108 0.99968 0.54895 0.0
H2093 H 0.72302 0.98288 0.4461 0.0
H2094 H 0.70384 0.97189 0.47662 0.0
H2095 H 0.72207 0.95929 0.46738 0.0
C2096 C 0.69988 0.9244 0.53528 0.0
C2097 C 0.71342 0.91316 0.53908 0.0
C2098 C 0.71075 0.94849 0.52759 0.0
C2099 C 0.73541 0.9619 0.52316 0.0
C2100 C 0.74904 0.95098 0.52817 0.0
H2101 H 0.84039 0.10252 0.46356 0.0
H2102 H 0.81785 0.06074 0.47733 0.0
C2103 C 0.73823 0.92699 0.53601 0.0
C2104 C 0.74713 0.98719 0.51318 0.0
H2105 H 0.74776 0.02315 0.45914 0.0
C2106 C 0.76595 1.00474 0.52929 0.0
C2107 C 0.74057 0.994 0.48745 0.0
C2108 C 0.72143 0.97603 0.46821 0.0
C2109 C 0.7782 0.02868 0.52058 0.0
C2110 C 0.77172 0.03543 0.49483 0.0
C2111 C 0.75273 0.01802 0.47888 0.0
C2112 C 0.78482 0.06041 0.48402 0.0
C2113 C 0.79787 0.04667 0.53923 0.0
C2114 C 0.77359 0.07403 0.48192 0.0
C2115 C 0.78647 0.09808 0.47393 0.0
C2116 C 0.81086 0.109 0.46758 0.0
C2117 C 0.8217 0.09489 0.4683 0.0
C2118 C 0.80886 0.07095 0.47642 0.0
H2119 H 0.79693 0.03988 0.56126 0.0
H2120 H 0.81522 0.05086 0.52993 0.0
H2121 H 0.79725 0.06341 0.54038 0.0
H2122 H 0.75502 0.06629 0.48744 0.0
H2123 H 0.77746 0.10828 0.47366 0.0
H2124 H 0.20869 0.94317 0.55657 0.0
H2125 H 0.21379 0.98198 0.54537 0.0
H2126 H 0.1453 0.94882 0.50433 0.0
H2127 H 0.14028 0.90972 0.51488 0.0
H2128 H 0.17825 0.97968 0.46983 0.0
H2129 H 0.18909 0.0236 0.57346 0.0
H2130 H 0.20822 1.01121 0.57228 0.0
H2131 H 0.17652 0.99186 0.57051 0.0
C2132 C 0.19445 0.94408 0.54574 0.0
C2133 C 0.17419 0.92339 0.53637 0.0
C2134 C 0.19728 0.96632 0.53959 0.0
C2135 C 0.17977 0.96832 0.52436 0.0
C2136 C 0.15895 0.94767 0.51626 0.0
H2137 H 0.24003 0.11951 0.48988 0.0
H2138 H 0.20727 0.07958 0.50002 0.0
C2139 C 0.15615 0.92536 0.52228 0.0
C2140 C 0.18498 0.99183 0.51352 0.0
H2141 H 0.21202 0.04982 0.53362 0.0
C2142 C 0.18499 0.99496 0.48383 0.0
C2143 C 0.19314 1.01173 0.53169 0.0
C2144 C 0.19146 1.00934 0.56377 0.0
C2145 C 0.1953 0.01771 0.47179 0.0
C2146 C 0.20635 0.03772 0.4899 0.0
C2147 C 0.204 0.03449 0.51963 0.0
C2148 C 0.22342 0.06161 0.47887 0.0
C2149 C 0.19515 0.02003 0.43975 0.0
C2150 C 0.24309 0.06475 0.46302 0.0
C2151 C 0.26174 0.08746 0.4571 0.0
C2152 C 0.26125 0.1075 0.46733 0.0
C2153 C 0.24097 0.1044 0.48182 0.0
C2154 C 0.22222 0.08161 0.48762 0.0
H2155 H 0.17871 1.00519 0.43047 0.0
H2156 H 0.19649 0.03709 0.43326 0.0
H2157 H 0.21038 0.0191 0.43057 0.0
H2158 H 0.24476 0.04963 0.4567 0.0
H2159 H 0.2771 0.08923 0.44589 0.0
H2160 H 0.09378 0.27484 0.55997 0.0
H2161 H 0.05498 0.24076 0.55022 0.0
H2162 H 0.08791 0.20481 0.51002 0.0
H2163 H 0.12699 0.23925 0.51911 0.0
H2164 H 0.05678 0.20628 0.47556 0.0
H2165 H 1.01362 0.17497 0.57992 0.0
H2166 H 0.02602 0.20647 0.57809 0.0
H2167 H 0.04532 0.19402 0.57654 0.0
C2168 C 0.09284 0.25949 0.54966 0.0
C2169 C 0.11344 0.25984 0.54003 0.0
C2170 C 0.0706 0.23986 0.54436 0.0
C2171 C 0.06852 0.22007 0.52973 0.0
C2172 C 0.08912 0.21984 0.5215 0.0
H2173 H 0.91709 0.13057 0.49677 0.0
H2174 H 0.95675 0.13707 0.50709 0.0
C2175 C 0.11142 0.23955 0.52667 0.0
C2176 C 0.04496 0.20163 0.51938 0.0
H2177 H 0.98716 0.17165 0.5402 0.0
C2178 C 0.0416 0.19808 0.48977 0.0
C2179 C 0.02519 0.19032 0.53782 0.0
C2180 C 0.02782 0.19145 0.56987 0.0
C2181 C 1.01879 0.18578 0.47803 0.0
C2182 C 0.99895 0.17739 0.49634 0.0
C2183 C 1.00236 0.17856 0.52605 0.0
C2184 C 0.97515 0.17099 0.48549 0.0
C2185 C 1.0162 0.18291 0.44604 0.0
C2186 C 0.97235 0.18768 0.46942 0.0
C2187 C 0.94979 0.18401 0.46343 0.0
C2188 C 0.92958 0.16373 0.47379 0.0
C2189 C 0.93234 0.14643 0.48862 0.0
C2190 C 0.95497 0.15009 0.4945 0.0
H2191 H 0.03081 0.1809 0.43677 0.0
H2192 H 0.99899 0.1673 0.43991 0.0
H2193 H 1.01733 0.19908 0.43653 0.0
H2194 H 0.98762 0.20425 0.46291 0.0
H2195 H 0.94828 0.19768 0.45198 0.0
H2196 H 0.80007 0.88561 0.57505 0.0
H2197 H 0.83589 0.88362 0.563 0.0
H2198 H 0.79492 0.8263 0.50454 0.0
H2199 H 0.75942 0.8278 0.51654 0.0
H2200 H 0.83798 0.83765 0.56675 0.0
H2201 H 0.85575 0.87776 0.45899 0.0
H2202 H 0.84085 0.88487 0.48661 0.0
H2203 H 0.82475 0.85822 0.46583 0.0
C2204 C 0.79879 0.87262 0.55964 0.0
C2205 C 0.77694 0.85684 0.54678 0.0
C2206 C 0.81922 0.87162 0.55271 0.0
C2207 C 0.818 0.85517 0.53246 0.0
C2208 C 0.79623 0.83943 0.5198 0.0
H2209 H 0.84241 0.76264 0.45598 0.0
H2210 H 0.8379 0.7963 0.46966 0.0
C2211 C 0.77591 0.84018 0.52691 0.0
C2212 C 0.83861 0.85252 0.52555 0.0
H2213 H 0.86556 0.84656 0.46636 0.0
C2214 C 0.84496 0.84041 0.54518 0.0
C2215 C 0.84763 0.85635 0.49744 0.0
C2216 C 0.84208 0.87024 0.47605 0.0
C2217 C 0.85755 0.82924 0.53635 0.0
C2218 C 0.86418 0.83073 0.50727 0.0
C2219 C 0.8603 0.84531 0.48857 0.0
C2220 C 0.87006 0.81344 0.49488 0.0
C2221 C 0.8613 0.81381 0.55741 0.0
C2222 C 0.89018 0.81249 0.50353 0.0
C2223 C 0.8927 0.79308 0.49593 0.0
C2224 C 0.87518 0.77449 0.47945 0.0
C2225 C 0.85609 0.77654 0.4689 0.0
C2226 C 0.85355 0.79584 0.47661 0.0
H2227 H 0.85314 0.81298 0.57852 0.0
H2228 H 0.85365 0.79548 0.54899 0.0
H2229 H 0.88058 0.82099 0.56067 0.0
H2230 H 0.90331 0.82613 0.51723 0.0
H2231 H 0.90779 0.79215 0.50406 0.0
loop_
_geom_bond_atom_site_label_1
_geom_bond_atom_site_label_2
_geom_bond_distance
_geom_bond_site_symmetry_2
_ccdc_geom_bond_type
Co0 O3 1.970 . S
Co0 N17 1.989 . S
Co0 O25 1.967 . S
Co0 O32 1.920 . S
Co1 O4 1.966 . S
Co1 N10 2.022 . S
Co1 N18 1.993 . S
Co1 O26 1.941 . S
C2 O3 1.258 . S
C2 O4 1.263 . S
O3 Co0 1.970 . S
O3 C2 1.258 . S
O4 Co1 1.966 . S
O4 C2 1.263 . S
C5 O6 1.235 . S
C5 O32 1.289 . S
O6 C5 1.235 . S
C7 C9 1.400 . S
C7 N10 1.351 . S
C7 C12 1.501 . S
C8 C9 1.387 . S
C8 N11 1.341 . S
C9 C7 1.400 . S
C9 C8 1.387 . S
N10 Co1 2.022 . S
N10 C7 1.351 . S
N10 N11 1.365 . S
N11 C8 1.341 . S
N11 N10 1.365 . S
N11 H31 0.862 . S
C12 C7 1.501 . S
C12 H13 0.961 . S
C12 H14 0.961 . S
C12 H15 0.960 . S
H13 C12 0.961 . S
H14 C12 0.961 . S
H15 C12 0.960 . S
C16 N17 1.342 . S
C16 C20 1.401 . S
C16 C21 1.499 . S
N17 Co0 1.989 . S
N17 C16 1.342 . S
N17 N18 1.388 . S
N18 Co1 1.993 . S
N18 N17 1.388 . S
N18 C19 1.346 . S
C19 N18 1.346 . S
C19 C20 1.396 . S
C19 C29 1.510 . S
C20 C16 1.401 . S
C20 C19 1.396 . S
C21 C16 1.499 . S
C21 H22 0.959 . S
C21 H23 0.960 . S
C21 H24 0.961 . S
H22 C21 0.959 . S
H23 C21 0.960 . S
H24 C21 0.961 . S
O25 Co0 1.967 . S
O25 C33 1.258 . S
O26 Co1 1.941 . S
O26 C33 1.266 . S
H27 C29 0.959 . S
H28 C29 0.961 . S
C29 C19 1.510 . S
C29 H27 0.959 . S
C29 H28 0.961 . S
C29 H30 0.960 . S
H30 C29 0.960 . S
H31 N11 0.862 . S
O32 Co0 1.920 . S
O32 C5 1.289 . S
C33 O25 1.258 . S
C33 O26 1.266 . S
Co34 O37 1.970 . S
Co34 N51 1.989 . S
Co34 O59 1.967 . S
Co34 O66 1.920 . S
Co35 O38 1.966 . S
Co35 N44 2.022 . S
Co35 N52 1.993 . S
Co35 O60 1.941 . S
C36 O37 1.258 . S
C36 O38 1.263 . S
O37 Co34 1.970 . S
O37 C36 1.258 . S
O38 Co35 1.966 . S
O38 C36 1.263 . S
C39 O40 1.235 . S
C39 O66 1.289 . S
O40 C39 1.235 . S
C41 C43 1.400 . S
C41 N44 1.351 . S
C41 C46 1.501 . S
C42 C43 1.387 . S
C42 N45 1.341 . S
C43 C41 1.400 . S
C43 C42 1.387 . S
N44 Co35 2.022 . S
N44 C41 1.351 . S
N44 N45 1.365 . S
N45 C42 1.341 . S
N45 N44 1.365 . S
N45 H65 0.862 . S
C46 C41 1.501 . S
C46 H47 0.961 . S
C46 H48 0.961 . S
C46 H49 0.960 . S
H47 C46 0.961 . S
H48 C46 0.961 . S
H49 C46 0.960 . S
C50 N51 1.342 . S
C50 C54 1.401 . S
C50 C55 1.499 . S
N51 Co34 1.989 . S
N51 C50 1.342 . S
N51 N52 1.388 . S
N52 Co35 1.993 . S
N52 N51 1.388 . S
N52 C53 1.346 . S
C53 N52 1.346 . S
C53 C54 1.396 . S
C53 C63 1.510 . S
C54 C50 1.401 . S
C54 C53 1.396 . S
C55 C50 1.499 . S
C55 H56 0.959 . S
C55 H57 0.960 . S
C55 H58 0.961 . S
H56 C55 0.959 . S
H57 C55 0.960 . S
H58 C55 0.961 . S
O59 Co34 1.967 . S
O59 C67 1.258 . S
O60 Co35 1.941 . S
O60 C67 1.266 . S
H61 C63 0.959 . S
H62 C63 0.961 . S
C63 C53 1.510 . S
C63 H61 0.959 . S
C63 H62 0.961 . S
C63 H64 0.960 . S
H64 C63 0.960 . S
H65 N45 0.862 . S
O66 Co34 1.920 . S
O66 C39 1.289 . S
C67 O59 1.258 . S
C67 O60 1.266 . S
Co68 O71 1.970 . S
Co68 N85 1.989 . S
Co68 O93 1.967 . S
Co68 O100 1.920 . S
Co69 O72 1.966 . S
Co69 N78 2.022 . S
Co69 N86 1.993 . S
Co69 O94 1.941 . S
C70 O71 1.258 . S
C70 O72 1.263 . S
O71 Co68 1.970 . S
O71 C70 1.258 . S
O72 Co69 1.966 . S
O72 C70 1.263 . S
C73 O74 1.235 . S
C73 O100 1.289 . S
O74 C73 1.235 . S
C75 C77 1.400 . S
C75 N78 1.351 . S
C75 C80 1.501 . S
C76 C77 1.387 . S
C76 N79 1.341 . S
C77 C75 1.400 . S
C77 C76 1.387 . S
N78 Co69 2.022 . S
N78 C75 1.351 . S
N78 N79 1.365 . S
N79 C76 1.341 . S
N79 N78 1.365 . S
N79 H99 0.862 . S
C80 C75 1.501 . S
C80 H81 0.961 . S
C80 H82 0.961 . S
C80 H83 0.960 . S
H81 C80 0.961 . S
H82 C80 0.961 . S
H83 C80 0.960 . S
C84 N85 1.342 . S
C84 C88 1.401 . S
C84 C89 1.499 . S
N85 Co68 1.989 . S
N85 C84 1.342 . S
N85 N86 1.388 . S
N86 Co69 1.993 . S
N86 N85 1.388 . S
N86 C87 1.346 . S
C87 N86 1.346 . S
C87 C88 1.396 . S
C87 C97 1.510 . S
C88 C84 1.401 . S
C88 C87 1.396 . S
C89 C84 1.499 . S
C89 H90 0.959 . S
C89 H91 0.960 . S
C89 H92 0.961 . S
H90 C89 0.959 . S
H91 C89 0.960 . S
H92 C89 0.961 . S
O93 Co68 1.967 . S
O93 C101 1.258 . S
O94 Co69 1.941 . S
O94 C101 1.266 . S
H95 C97 0.959 . S
H96 C97 0.961 . S
C97 C87 1.510 . S
C97 H95 0.959 . S
C97 H96 0.961 . S
C97 H98 0.960 . S
H98 C97 0.960 . S
H99 N79 0.862 . S
O100 Co68 1.920 . S
O100 C73 1.289 . S
C101 O93 1.258 . S
C101 O94 1.266 . S
Co102 O105 1.970 . S
Co102 N119 1.989 . S
Co102 O127 1.967 . S
Co102 O134 1.920 . S
Co103 O106 1.966 . S
Co103 N112 2.022 . S
Co103 N120 1.993 . S
Co103 O128 1.941 . S
C104 O105 1.258 . S
C104 O106 1.263 . S
O105 Co102 1.970 . S
O105 C104 1.258 . S
O106 Co103 1.966 . S
O106 C104 1.263 . S
C107 O108 1.235 . S
C107 O134 1.289 . S
O108 C107 1.235 . S
C109 C111 1.400 . S
C109 N112 1.351 . S
C109 C114 1.501 . S
C110 C111 1.387 . S
C110 N113 1.341 . S
C111 C109 1.400 . S
C111 C110 1.387 . S
N112 Co103 2.022 . S
N112 C109 1.351 . S
N112 N113 1.365 . S
N113 C110 1.341 . S
N113 N112 1.365 . S
N113 H133 0.862 . S
C114 C109 1.501 . S
C114 H115 0.961 . S
C114 H116 0.961 . S
C114 H117 0.960 . S
H115 C114 0.961 . S
H116 C114 0.961 . S
H117 C114 0.960 . S
C118 N119 1.342 . S
C118 C122 1.401 . S
C118 C123 1.499 . S
N119 Co102 1.989 . S
N119 C118 1.342 . S
N119 N120 1.388 . S
N120 Co103 1.993 . S
N120 N119 1.388 . S
N120 C121 1.346 . S
C121 N120 1.346 . S
C121 C122 1.396 . S
C121 C131 1.510 . S
C122 C118 1.401 . S
C122 C121 1.396 . S
C123 C118 1.499 . S
C123 H124 0.959 . S
C123 H125 0.960 . S
C123 H126 0.961 . S
H124 C123 0.959 . S
H125 C123 0.960 . S
H126 C123 0.961 . S
O127 Co102 1.967 . S
O127 C135 1.258 . S
O128 Co103 1.941 . S
O128 C135 1.266 . S
H129 C131 0.959 . S
H130 C131 0.961 . S
C131 C121 1.510 . S
C131 H129 0.959 . S
C131 H130 0.961 . S
C131 H132 0.960 . S
H132 C131 0.960 . S
H133 N113 0.862 . S
O134 Co102 1.920 . S
O134 C107 1.289 . S
C135 O127 1.258 . S
C135 O128 1.266 . S
Co136 O139 1.970 . S
Co136 N153 1.989 . S
Co136 O161 1.967 . S
Co136 O168 1.920 . S
Co137 O140 1.966 . S
Co137 N146 2.022 . S
Co137 N154 1.993 . S
Co137 O162 1.941 . S
C138 O139 1.258 . S
C138 O140 1.263 . S
O139 Co136 1.970 . S
O139 C138 1.258 . S
O140 Co137 1.966 . S
O140 C138 1.263 . S
C141 O142 1.235 . S
C141 O168 1.289 . S
O142 C141 1.235 . S
C143 C145 1.400 . S
C143 N146 1.351 . S
C143 C148 1.501 . S
C144 C145 1.387 . S
C144 N147 1.341 . S
C145 C143 1.400 . S
C145 C144 1.387 . S
N146 Co137 2.022 . S
N146 C143 1.351 . S
N146 N147 1.365 . S
N147 C144 1.341 . S
N147 N146 1.365 . S
N147 H167 0.862 . S
C148 C143 1.501 . S
C148 H149 0.961 . S
C148 H150 0.961 . S
C148 H151 0.960 . S
H149 C148 0.961 . S
H150 C148 0.961 . S
H151 C148 0.960 . S
C152 N153 1.342 . S
C152 C156 1.401 . S
C152 C157 1.499 . S
N153 Co136 1.989 . S
N153 C152 1.342 . S
N153 N154 1.388 . S
N154 Co137 1.993 . S
N154 N153 1.388 . S
N154 C155 1.346 . S
C155 N154 1.346 . S
C155 C156 1.396 . S
C155 C165 1.510 . S
C156 C152 1.401 . S
C156 C155 1.396 . S
C157 C152 1.499 . S
C157 H158 0.959 . S
C157 H159 0.960 . S
C157 H160 0.961 . S
H158 C157 0.959 . S
H159 C157 0.960 . S
H160 C157 0.961 . S
O161 Co136 1.967 . S
O161 C169 1.258 . S
O162 Co137 1.941 . S
O162 C169 1.266 . S
H163 C165 0.959 . S
H164 C165 0.961 . S
C165 C155 1.510 . S
C165 H163 0.959 . S
C165 H164 0.961 . S
C165 H166 0.960 . S
H166 C165 0.960 . S
H167 N147 0.862 . S
O168 Co136 1.920 . S
O168 C141 1.289 . S
C169 O161 1.258 . S
C169 O162 1.266 . S
Co170 O173 1.970 . S
Co170 N187 1.989 . S
Co170 O195 1.967 . S
Co170 O202 1.920 . S
Co171 O174 1.966 . S
Co171 N180 2.022 . S
Co171 N188 1.993 . S
Co171 O196 1.941 . S
C172 O173 1.258 . S
C172 O174 1.263 . S
O173 Co170 1.970 . S
O173 C172 1.258 . S
O174 Co171 1.966 . S
O174 C172 1.263 . S
C175 O176 1.235 . S
C175 O202 1.289 . S
O176 C175 1.235 . S
C177 C179 1.400 . S
C177 N180 1.351 . S
C177 C182 1.501 . S
C178 C179 1.387 . S
C178 N181 1.341 . S
C179 C177 1.400 . S
C179 C178 1.387 . S
N180 Co171 2.022 . S
N180 C177 1.351 . S
N180 N181 1.365 . S
N181 C178 1.341 . S
N181 N180 1.365 . S
N181 H201 0.862 . S
C182 C177 1.501 . S
C182 H183 0.961 . S
C182 H184 0.961 . S
C182 H185 0.960 . S
H183 C182 0.961 . S
H184 C182 0.961 . S
H185 C182 0.960 . S
C186 N187 1.342 . S
C186 C190 1.401 . S
C186 C191 1.499 . S
N187 Co170 1.989 . S
N187 C186 1.342 . S
N187 N188 1.388 . S
N188 Co171 1.993 . S
N188 N187 1.388 . S
N188 C189 1.346 . S
C189 N188 1.346 . S
C189 C190 1.396 . S
C189 C199 1.510 . S
C190 C186 1.401 . S
C190 C189 1.396 . S
C191 C186 1.499 . S
C191 H192 0.959 . S
C191 H193 0.960 . S
C191 H194 0.961 . S
H192 C191 0.959 . S
H193 C191 0.960 . S
H194 C191 0.961 . S
O195 Co170 1.967 . S
O195 C203 1.258 . S
O196 Co171 1.941 . S
O196 C203 1.266 . S
H197 C199 0.959 . S
H198 C199 0.961 . S
C199 C189 1.510 . S
C199 H197 0.959 . S
C199 H198 0.961 . S
C199 H200 0.960 . S
H200 C199 0.960 . S
H201 N181 0.862 . S
O202 Co170 1.920 . S
O202 C175 1.289 . S
C203 O195 1.258 . S
C203 O196 1.266 . S
Co204 O207 1.970 . S
Co204 N221 1.989 . S
Co204 O229 1.967 . S
Co204 O236 1.920 . S
Co205 O208 1.966 . S
Co205 N214 2.022 . S
Co205 N222 1.993 . S
Co205 O230 1.941 . S
C206 O207 1.258 . S
C206 O208 1.263 . S
O207 Co204 1.970 . S
O207 C206 1.258 . S
O208 Co205 1.966 . S
O208 C206 1.263 . S
C209 O210 1.235 . S
C209 O236 1.289 . S
O210 C209 1.235 . S
C211 C213 1.400 . S
C211 N214 1.351 . S
C211 C216 1.501 . S
C212 C213 1.387 . S
C212 N215 1.341 . S
C213 C211 1.400 . S
C213 C212 1.387 . S
N214 Co205 2.022 . S
N214 C211 1.351 . S
N214 N215 1.365 . S
N215 C212 1.341 . S
N215 N214 1.365 . S
N215 H235 0.862 . S
C216 C211 1.501 . S
C216 H217 0.961 . S
C216 H218 0.961 . S
C216 H219 0.960 . S
H217 C216 0.961 . S
H218 C216 0.961 . S
H219 C216 0.960 . S
C220 N221 1.342 . S
C220 C224 1.401 . S
C220 C225 1.499 . S
N221 Co204 1.989 . S
N221 C220 1.342 . S
N221 N222 1.388 . S
N222 Co205 1.993 . S
N222 N221 1.388 . S
N222 C223 1.346 . S
C223 N222 1.346 . S
C223 C224 1.396 . S
C223 C233 1.510 . S
C224 C220 1.401 . S
C224 C223 1.396 . S
C225 C220 1.499 . S
C225 H226 0.959 . S
C225 H227 0.960 . S
C225 H228 0.961 . S
H226 C225 0.959 . S
H227 C225 0.960 . S
H228 C225 0.961 . S
O229 Co204 1.967 . S
O229 C237 1.258 . S
O230 Co205 1.941 . S
O230 C237 1.266 . S
H231 C233 0.959 . S
H232 C233 0.961 . S
C233 C223 1.510 . S
C233 H231 0.959 . S
C233 H232 0.961 . S
C233 H234 0.960 . S
H234 C233 0.960 . S
H235 N215 0.862 . S
O236 Co204 1.920 . S
O236 C209 1.289 . S
C237 O229 1.258 . S
C237 O230 1.266 . S
Co238 O241 1.970 . S
Co238 N255 1.989 . S
Co238 O263 1.967 . S
Co238 O270 1.920 . S
Co239 O242 1.966 . S
Co239 N248 2.022 . S
Co239 N256 1.993 . S
Co239 O264 1.941 . S
C240 O241 1.258 . S
C240 O242 1.263 . S
O241 Co238 1.970 . S
O241 C240 1.258 . S
O242 Co239 1.966 . S
O242 C240 1.263 . S
C243 O244 1.235 . S
C243 O270 1.289 . S
O244 C243 1.235 . S
C245 C247 1.400 . S
C245 N248 1.351 . S
C245 C250 1.501 . S
C246 C247 1.387 . S
C246 N249 1.341 . S
C247 C245 1.400 . S
C247 C246 1.387 . S
N248 Co239 2.022 . S
N248 C245 1.351 . S
N248 N249 1.365 . S
N249 C246 1.341 . S
N249 N248 1.365 . S
N249 H269 0.862 . S
C250 C245 1.501 . S
C250 H251 0.961 . S
C250 H252 0.961 . S
C250 H253 0.960 . S
H251 C250 0.961 . S
H252 C250 0.961 . S
H253 C250 0.960 . S
C254 N255 1.342 . S
C254 C258 1.401 . S
C254 C259 1.499 . S
N255 Co238 1.989 . S
N255 C254 1.342 . S
N255 N256 1.388 . S
N256 Co239 1.993 . S
N256 N255 1.388 . S
N256 C257 1.346 . S
C257 N256 1.346 . S
C257 C258 1.396 . S
C257 C267 1.510 . S
C258 C254 1.401 . S
C258 C257 1.396 . S
C259 C254 1.499 . S
C259 H260 0.959 . S
C259 H261 0.960 . S
C259 H262 0.961 . S
H260 C259 0.959 . S
H261 C259 0.960 . S
H262 C259 0.961 . S
O263 Co238 1.967 . S
O263 C271 1.258 . S
O264 Co239 1.941 . S
O264 C271 1.266 . S
H265 C267 0.959 . S
H266 C267 0.961 . S
C267 C257 1.510 . S
C267 H265 0.959 . S
C267 H266 0.961 . S
C267 H268 0.960 . S
H268 C267 0.960 . S
H269 N249 0.862 . S
O270 Co238 1.920 . S
O270 C243 1.289 . S
C271 O263 1.258 . S
C271 O264 1.266 . S
Co272 O275 1.970 . S
Co272 N289 1.989 . S
Co272 O297 1.967 . S
Co272 O304 1.920 . S
Co273 O276 1.966 . S
Co273 N282 2.022 . S
Co273 N290 1.993 . S
Co273 O298 1.941 . S
C274 O275 1.258 . S
C274 O276 1.263 . S
O275 Co272 1.970 . S
O275 C274 1.258 . S
O276 Co273 1.966 . S
O276 C274 1.263 . S
C277 O278 1.235 . S
C277 O304 1.289 . S
O278 C277 1.235 . S
C279 C281 1.400 . S
C279 N282 1.351 . S
C279 C284 1.501 . S
C280 C281 1.387 . S
C280 N283 1.341 . S
C281 C279 1.400 . S
C281 C280 1.387 . S
N282 Co273 2.022 . S
N282 C279 1.351 . S
N282 N283 1.365 . S
N283 C280 1.341 . S
N283 N282 1.365 . S
N283 H303 0.862 . S
C284 C279 1.501 . S
C284 H285 0.961 . S
C284 H286 0.961 . S
C284 H287 0.960 . S
H285 C284 0.961 . S
H286 C284 0.961 . S
H287 C284 0.960 . S
C288 N289 1.342 . S
C288 C292 1.401 . S
C288 C293 1.499 . S
N289 Co272 1.989 . S
N289 C288 1.342 . S
N289 N290 1.388 . S
N290 Co273 1.993 . S
N290 N289 1.388 . S
N290 C291 1.346 . S
C291 N290 1.346 . S
C291 C292 1.396 . S
C291 C301 1.510 . S
C292 C288 1.401 . S
C292 C291 1.396 . S
C293 C288 1.499 . S
C293 H294 0.959 . S
C293 H295 0.960 . S
C293 H296 0.961 . S
H294 C293 0.959 . S
H295 C293 0.960 . S
H296 C293 0.961 . S
O297 Co272 1.967 . S
O297 C305 1.258 . S
O298 Co273 1.941 . S
O298 C305 1.266 . S
H299 C301 0.959 . S
H300 C301 0.961 . S
C301 C291 1.510 . S
C301 H299 0.959 . S
C301 H300 0.961 . S
C301 H302 0.960 . S
H302 C301 0.960 . S
H303 N283 0.862 . S
O304 Co272 1.920 . S
O304 C277 1.289 . S
C305 O297 1.258 . S
C305 O298 1.266 . S
Co306 O309 1.970 . S
Co306 N323 1.989 1_455 S
Co306 O331 1.967 . S
Co306 O338 1.920 . S
Co307 O310 1.966 1_655 S
Co307 N316 2.022 . S
Co307 N324 1.993 . S
Co307 O332 1.941 . S
C308 O309 1.258 . S
C308 O310 1.263 . S
O309 Co306 1.970 . S
O309 C308 1.258 . S
O310 Co307 1.966 1_455 S
O310 C308 1.263 . S
C311 O312 1.235 . S
C311 O338 1.289 . S
O312 C311 1.235 . S
C313 C315 1.400 . S
C313 N316 1.351 . S
C313 C318 1.501 . S
C314 C315 1.387 . S
C314 N317 1.341 . S
C315 C313 1.400 . S
C315 C314 1.387 . S
N316 Co307 2.022 . S
N316 C313 1.351 . S
N316 N317 1.365 . S
N317 C314 1.341 . S
N317 N316 1.365 . S
N317 H337 0.862 . S
C318 C313 1.501 . S
C318 H319 0.961 . S
C318 H320 0.961 . S
C318 H321 0.960 . S
H319 C318 0.961 . S
H320 C318 0.961 . S
H321 C318 0.960 . S
C322 N323 1.342 . S
C322 C326 1.401 . S
C322 C327 1.499 1_655 S
N323 Co306 1.989 1_655 S
N323 C322 1.342 . S
N323 N324 1.388 . S
N324 Co307 1.993 . S
N324 N323 1.388 . S
N324 C325 1.346 . S
C325 N324 1.346 . S
C325 C326 1.396 . S
C325 C335 1.510 . S
C326 C322 1.401 . S
C326 C325 1.396 . S
C327 C322 1.499 1_455 S
C327 H328 0.959 . S
C327 H329 0.960 . S
C327 H330 0.961 1_455 S
H328 C327 0.959 . S
H329 C327 0.960 . S
H330 C327 0.961 1_655 S
O331 Co306 1.967 . S
O331 C339 1.258 1_455 S
O332 Co307 1.941 . S
O332 C339 1.266 . S
H333 C335 0.959 . S
H334 C335 0.961 . S
C335 C325 1.510 . S
C335 H333 0.959 . S
C335 H334 0.961 . S
C335 H336 0.960 . S
H336 C335 0.960 . S
H337 N317 0.862 . S
O338 Co306 1.920 . S
O338 C311 1.289 . S
C339 O331 1.258 1_655 S
C339 O332 1.266 . S
Co340 O343 1.970 . S
Co340 N357 1.989 . S
Co340 O365 1.967 . S
Co340 O372 1.920 . S
Co341 O344 1.966 . S
Co341 N350 2.022 . S
Co341 N358 1.993 . S
Co341 O366 1.941 . S
C342 O343 1.258 . S
C342 O344 1.263 . S
O343 Co340 1.970 . S
O343 C342 1.258 . S
O344 Co341 1.966 . S
O344 C342 1.263 . S
C345 O346 1.235 . S
C345 O372 1.289 . S
O346 C345 1.235 . S
C347 C349 1.400 . S
C347 N350 1.351 . S
C347 C352 1.501 . S
C348 C349 1.387 . S
C348 N351 1.341 . S
C349 C347 1.400 . S
C349 C348 1.387 . S
N350 Co341 2.022 . S
N350 C347 1.351 . S
N350 N351 1.365 . S
N351 C348 1.341 . S
N351 N350 1.365 . S
N351 H371 0.862 . S
C352 C347 1.501 . S
C352 H353 0.961 . S
C352 H354 0.961 . S
C352 H355 0.960 . S
H353 C352 0.961 . S
H354 C352 0.961 . S
H355 C352 0.960 . S
C356 N357 1.342 . S
C356 C360 1.401 . S
C356 C361 1.499 . S
N357 Co340 1.989 . S
N357 C356 1.342 . S
N357 N358 1.388 . S
N358 Co341 1.993 . S
N358 N357 1.388 . S
N358 C359 1.346 . S
C359 N358 1.346 . S
C359 C360 1.396 . S
C359 C369 1.510 . S
C360 C356 1.401 . S
C360 C359 1.396 . S
C361 C356 1.499 . S
C361 H362 0.959 . S
C361 H363 0.960 . S
C361 H364 0.961 . S
H362 C361 0.959 . S
H363 C361 0.960 . S
H364 C361 0.961 . S
O365 Co340 1.967 . S
O365 C373 1.258 . S
O366 Co341 1.941 . S
O366 C373 1.266 . S
H367 C369 0.959 . S
H368 C369 0.961 . S
C369 C359 1.510 . S
C369 H367 0.959 . S
C369 H368 0.961 . S
C369 H370 0.960 . S
H370 C369 0.960 . S
H371 N351 0.862 . S
O372 Co340 1.920 . S
O372 C345 1.289 . S
C373 O365 1.258 . S
C373 O366 1.266 . S
Co374 O377 1.970 . S
Co374 N391 1.989 1_565 S
Co374 O399 1.967 . S
Co374 O406 1.920 . S
Co375 O378 1.966 1_545 S
Co375 N384 2.022 . S
Co375 N392 1.993 . S
Co375 O400 1.941 . S
C376 O377 1.258 . S
C376 O378 1.263 . S
O377 Co374 1.970 . S
O377 C376 1.258 . S
O378 Co375 1.966 1_565 S
O378 C376 1.263 . S
C379 O380 1.235 . S
C379 O406 1.289 . S
O380 C379 1.235 . S
C381 C383 1.400 . S
C381 N384 1.351 . S
C381 C386 1.501 . S
C382 C383 1.387 . S
C382 N385 1.341 . S
C383 C381 1.400 . S
C383 C382 1.387 . S
N384 Co375 2.022 . S
N384 C381 1.351 . S
N384 N385 1.365 . S
N385 C382 1.341 . S
N385 N384 1.365 . S
N385 H405 0.862 . S
C386 C381 1.501 . S
C386 H387 0.961 . S
C386 H388 0.961 . S
C386 H389 0.960 . S
H387 C386 0.961 . S
H388 C386 0.961 . S
H389 C386 0.960 . S
C390 N391 1.342 . S
C390 C394 1.401 . S
C390 C395 1.499 1_545 S
N391 Co374 1.989 1_545 S
N391 C390 1.342 . S
N391 N392 1.388 . S
N392 Co375 1.993 . S
N392 N391 1.388 . S
N392 C393 1.346 . S
C393 N392 1.346 . S
C393 C394 1.396 . S
C393 C403 1.510 . S
C394 C390 1.401 . S
C394 C393 1.396 . S
C395 C390 1.499 1_565 S
C395 H396 0.959 . S
C395 H397 0.960 . S
C395 H398 0.961 1_565 S
H396 C395 0.959 . S
H397 C395 0.960 . S
H398 C395 0.961 1_545 S
O399 Co374 1.967 . S
O399 C407 1.258 1_565 S
O400 Co375 1.941 . S
O400 C407 1.266 . S
H401 C403 0.959 . S
H402 C403 0.961 . S
C403 C393 1.510 . S
C403 H401 0.959 . S
C403 H402 0.961 . S
C403 H404 0.960 . S
H404 C403 0.960 . S
H405 N385 0.862 . S
O406 Co374 1.920 . S
O406 C379 1.289 . S
C407 O399 1.258 1_545 S
C407 O400 1.266 . S
Co408 O411 1.970 . S
Co408 N425 1.989 1_545 S
Co408 O433 1.967 . S
Co408 O440 1.920 . S
Co409 O412 1.966 1_565 S
Co409 N418 2.022 . S
Co409 N426 1.993 . S
Co409 O434 1.941 . S
C410 O411 1.258 . S
C410 O412 1.263 . S
O411 Co408 1.970 . S
O411 C410 1.258 . S
O412 Co409 1.966 1_545 S
O412 C410 1.263 . S
C413 O414 1.235 . S
C413 O440 1.289 . S
O414 C413 1.235 . S
C415 C417 1.400 . S
C415 N418 1.351 . S
C415 C420 1.501 . S
C416 C417 1.387 . S
C416 N419 1.341 . S
C417 C415 1.400 . S
C417 C416 1.387 . S
N418 Co409 2.022 . S
N418 C415 1.351 . S
N418 N419 1.365 . S
N419 C416 1.341 . S
N419 N418 1.365 . S
N419 H439 0.862 . S
C420 C415 1.501 . S
C420 H421 0.961 . S
C420 H422 0.961 . S
C420 H423 0.960 . S
H421 C420 0.961 . S
H422 C420 0.961 . S
H423 C420 0.960 . S
C424 N425 1.342 . S
C424 C428 1.401 . S
C424 C429 1.499 1_565 S
N425 Co408 1.989 1_565 S
N425 C424 1.342 . S
N425 N426 1.388 . S
N426 Co409 1.993 . S
N426 N425 1.388 . S
N426 C427 1.346 . S
C427 N426 1.346 . S
C427 C428 1.396 . S
C427 C437 1.510 . S
C428 C424 1.401 . S
C428 C427 1.396 . S
C429 C424 1.499 1_545 S
C429 H430 0.959 . S
C429 H431 0.960 . S
C429 H432 0.961 1_545 S
H430 C429 0.959 . S
H431 C429 0.960 . S
H432 C429 0.961 1_565 S
O433 Co408 1.967 . S
O433 C441 1.258 1_545 S
O434 Co409 1.941 . S
O434 C441 1.266 . S
H435 C437 0.959 . S
H436 C437 0.961 . S
C437 C427 1.510 . S
C437 H435 0.959 . S
C437 H436 0.961 . S
C437 H438 0.960 . S
H438 C437 0.960 . S
H439 N419 0.862 . S
O440 Co408 1.920 . S
O440 C413 1.289 . S
C441 O433 1.258 1_565 S
C441 O434 1.266 . S
Co442 O445 1.970 . S
Co442 N459 1.989 1_655 S
Co442 O467 1.967 . S
Co442 O474 1.920 . S
Co443 O446 1.966 1_455 S
Co443 N452 2.022 . S
Co443 N460 1.993 . S
Co443 O468 1.941 . S
C444 O445 1.258 . S
C444 O446 1.263 . S
O445 Co442 1.970 . S
O445 C444 1.258 . S
O446 Co443 1.966 1_655 S
O446 C444 1.263 . S
C447 O448 1.235 . S
C447 O474 1.289 . S
O448 C447 1.235 . S
C449 C451 1.400 . S
C449 N452 1.351 . S
C449 C454 1.501 . S
C450 C451 1.387 . S
C450 N453 1.341 . S
C451 C449 1.400 . S
C451 C450 1.387 . S
N452 Co443 2.022 . S
N452 C449 1.351 . S
N452 N453 1.365 . S
N453 C450 1.341 . S
N453 N452 1.365 . S
N453 H473 0.862 . S
C454 C449 1.501 . S
C454 H455 0.961 . S
C454 H456 0.961 . S
C454 H457 0.960 . S
H455 C454 0.961 . S
H456 C454 0.961 . S
H457 C454 0.960 . S
C458 N459 1.342 . S
C458 C462 1.401 . S
C458 C463 1.499 1_455 S
N459 Co442 1.989 1_455 S
N459 C458 1.342 . S
N459 N460 1.388 . S
N460 Co443 1.993 . S
N460 N459 1.388 . S
N460 C461 1.346 . S
C461 N460 1.346 . S
C461 C462 1.396 . S
C461 C471 1.510 . S
C462 C458 1.401 . S
C462 C461 1.396 . S
C463 C458 1.499 1_655 S
C463 H464 0.959 . S
C463 H465 0.960 . S
C463 H466 0.961 1_655 S
H464 C463 0.959 . S
H465 C463 0.960 . S
H466 C463 0.961 1_455 S
O467 Co442 1.967 . S
O467 C475 1.258 1_655 S
O468 Co443 1.941 . S
O468 C475 1.266 . S
H469 C471 0.959 . S
H470 C471 0.961 . S
C471 C461 1.510 . S
C471 H469 0.959 . S
C471 H470 0.961 . S
C471 H472 0.960 . S
H472 C471 0.960 . S
H473 N453 0.862 . S
O474 Co442 1.920 . S
O474 C447 1.289 . S
C475 O467 1.258 1_455 S
C475 O468 1.266 . S
Co476 O479 1.970 . S
Co476 N493 1.989 . S
Co476 O501 1.967 . S
Co476 O508 1.920 . S
Co477 O480 1.966 . S
Co477 N486 2.022 . S
Co477 N494 1.993 . S
Co477 O502 1.941 . S
C478 O479 1.258 . S
C478 O480 1.263 . S
O479 Co476 1.970 . S
O479 C478 1.258 . S
O480 Co477 1.966 . S
O480 C478 1.263 . S
C481 O482 1.235 . S
C481 O508 1.289 . S
O482 C481 1.235 . S
C483 C485 1.400 . S
C483 N486 1.351 . S
C483 C488 1.501 . S
C484 C485 1.387 . S
C484 N487 1.341 . S
C485 C483 1.400 . S
C485 C484 1.387 . S
N486 Co477 2.022 . S
N486 C483 1.351 . S
N486 N487 1.365 . S
N487 C484 1.341 . S
N487 N486 1.365 . S
N487 H507 0.862 . S
C488 C483 1.501 . S
C488 H489 0.961 . S
C488 H490 0.961 . S
C488 H491 0.960 . S
H489 C488 0.961 . S
H490 C488 0.961 . S
H491 C488 0.960 . S
C492 N493 1.342 . S
C492 C496 1.401 . S
C492 C497 1.499 . S
N493 Co476 1.989 . S
N493 C492 1.342 . S
N493 N494 1.388 . S
N494 Co477 1.993 . S
N494 N493 1.388 . S
N494 C495 1.346 . S
C495 N494 1.346 . S
C495 C496 1.396 . S
C495 C505 1.510 . S
C496 C492 1.401 . S
C496 C495 1.396 . S
C497 C492 1.499 . S
C497 H498 0.959 . S
C497 H499 0.960 . S
C497 H500 0.961 . S
H498 C497 0.959 . S
H499 C497 0.960 . S
H500 C497 0.961 . S
O501 Co476 1.967 . S
O501 C509 1.258 . S
O502 Co477 1.941 . S
O502 C509 1.266 . S
H503 C505 0.959 . S
H504 C505 0.961 . S
C505 C495 1.510 . S
C505 H503 0.959 . S
C505 H504 0.961 . S
C505 H506 0.960 . S
H506 C505 0.960 . S
H507 N487 0.862 . S
O508 Co476 1.920 . S
O508 C481 1.289 . S
C509 O501 1.258 . S
C509 O502 1.266 . S
Co510 O513 1.970 . S
Co510 N527 1.989 . S
Co510 O535 1.967 . S
Co510 O542 1.920 . S
Co511 O514 1.966 . S
Co511 N520 2.022 . S
Co511 N528 1.993 . S
Co511 O536 1.941 . S
C512 O513 1.258 . S
C512 O514 1.263 . S
O513 Co510 1.970 . S
O513 C512 1.258 . S
O514 Co511 1.966 . S
O514 C512 1.263 . S
C515 O516 1.235 . S
C515 O542 1.289 . S
O516 C515 1.235 . S
C517 C519 1.400 . S
C517 N520 1.351 . S
C517 C522 1.501 . S
C518 C519 1.387 . S
C518 N521 1.341 . S
C519 C517 1.400 . S
C519 C518 1.387 . S
N520 Co511 2.022 . S
N520 C517 1.351 . S
N520 N521 1.365 . S
N521 C518 1.341 . S
N521 N520 1.365 . S
N521 H541 0.862 . S
C522 C517 1.501 . S
C522 H523 0.961 . S
C522 H524 0.961 . S
C522 H525 0.960 . S
H523 C522 0.961 . S
H524 C522 0.961 . S
H525 C522 0.960 . S
C526 N527 1.342 . S
C526 C530 1.401 . S
C526 C531 1.499 . S
N527 Co510 1.989 . S
N527 C526 1.342 . S
N527 N528 1.388 . S
N528 Co511 1.993 . S
N528 N527 1.388 . S
N528 C529 1.346 . S
C529 N528 1.346 . S
C529 C530 1.396 . S
C529 C539 1.510 . S
C530 C526 1.401 . S
C530 C529 1.396 . S
C531 C526 1.499 . S
C531 H532 0.959 . S
C531 H533 0.960 . S
C531 H534 0.961 . S
H532 C531 0.959 . S
H533 C531 0.960 . S
H534 C531 0.961 . S
O535 Co510 1.967 . S
O535 C543 1.258 . S
O536 Co511 1.941 . S
O536 C543 1.266 . S
H537 C539 0.959 . S
H538 C539 0.961 . S
C539 C529 1.510 . S
C539 H537 0.959 . S
C539 H538 0.961 . S
C539 H540 0.960 . S
H540 C539 0.960 . S
H541 N521 0.862 . S
O542 Co510 1.920 . S
O542 C515 1.289 . S
C543 O535 1.258 . S
C543 O536 1.266 . S
Co544 O547 1.970 . S
Co544 N561 1.989 . S
Co544 O569 1.967 . S
Co544 O576 1.920 . S
Co545 O548 1.966 . S
Co545 N554 2.022 . S
Co545 N562 1.993 . S
Co545 O570 1.941 . S
C546 O547 1.258 . S
C546 O548 1.263 . S
O547 Co544 1.970 . S
O547 C546 1.258 . S
O548 Co545 1.966 . S
O548 C546 1.263 . S
C549 O550 1.235 . S
C549 O576 1.289 . S
O550 C549 1.235 . S
C551 C553 1.400 . S
C551 N554 1.351 . S
C551 C556 1.501 . S
C552 C553 1.387 . S
C552 N555 1.341 . S
C553 C551 1.400 . S
C553 C552 1.387 . S
N554 Co545 2.022 . S
N554 C551 1.351 . S
N554 N555 1.365 . S
N555 C552 1.341 . S
N555 N554 1.365 . S
N555 H575 0.862 . S
C556 C551 1.501 . S
C556 H557 0.961 . S
C556 H558 0.961 . S
C556 H559 0.960 . S
H557 C556 0.961 . S
H558 C556 0.961 . S
H559 C556 0.960 . S
C560 N561 1.342 . S
C560 C564 1.401 . S
C560 C565 1.499 . S
N561 Co544 1.989 . S
N561 C560 1.342 . S
N561 N562 1.388 . S
N562 Co545 1.993 . S
N562 N561 1.388 . S
N562 C563 1.346 . S
C563 N562 1.346 . S
C563 C564 1.396 . S
C563 C573 1.510 . S
C564 C560 1.401 . S
C564 C563 1.396 . S
C565 C560 1.499 . S
C565 H566 0.959 . S
C565 H567 0.960 . S
C565 H568 0.961 . S
H566 C565 0.959 . S
H567 C565 0.960 . S
H568 C565 0.961 . S
O569 Co544 1.967 . S
O569 C577 1.258 . S
O570 Co545 1.941 . S
O570 C577 1.266 . S
H571 C573 0.959 . S
H572 C573 0.961 . S
C573 C563 1.510 . S
C573 H571 0.959 . S
C573 H572 0.961 . S
C573 H574 0.960 . S
H574 C573 0.960 . S
H575 N555 0.862 . S
O576 Co544 1.920 . S
O576 C549 1.289 . S
C577 O569 1.258 . S
C577 O570 1.266 . S
Co578 O581 1.970 . S
Co578 N595 1.989 . S
Co578 O603 1.967 . S
Co578 O610 1.920 . S
Co579 O582 1.966 . S
Co579 N588 2.022 . S
Co579 N596 1.993 . S
Co579 O604 1.941 . S
C580 O581 1.258 . S
C580 O582 1.263 . S
O581 Co578 1.970 . S
O581 C580 1.258 . S
O582 Co579 1.966 . S
O582 C580 1.263 . S
C583 O584 1.235 . S
C583 O610 1.289 . S
O584 C583 1.235 . S
C585 C587 1.400 . S
C585 N588 1.351 . S
C585 C590 1.501 . S
C586 C587 1.387 . S
C586 N589 1.341 . S
C587 C585 1.400 . S
C587 C586 1.387 . S
N588 Co579 2.022 . S
N588 C585 1.351 . S
N588 N589 1.365 . S
N589 C586 1.341 . S
N589 N588 1.365 . S
N589 H609 0.862 . S
C590 C585 1.501 . S
C590 H591 0.961 . S
C590 H592 0.961 . S
C590 H593 0.960 . S
H591 C590 0.961 . S
H592 C590 0.961 . S
H593 C590 0.960 . S
C594 N595 1.342 . S
C594 C598 1.401 . S
C594 C599 1.499 . S
N595 Co578 1.989 . S
N595 C594 1.342 . S
N595 N596 1.388 . S
N596 Co579 1.993 . S
N596 N595 1.388 . S
N596 C597 1.346 . S
C597 N596 1.346 . S
C597 C598 1.396 . S
C597 C607 1.510 . S
C598 C594 1.401 . S
C598 C597 1.396 . S
C599 C594 1.499 . S
C599 H600 0.959 . S
C599 H601 0.960 . S
C599 H602 0.961 . S
H600 C599 0.959 . S
H601 C599 0.960 . S
H602 C599 0.961 . S
O603 Co578 1.967 . S
O603 C611 1.258 . S
O604 Co579 1.941 . S
O604 C611 1.266 . S
H605 C607 0.959 . S
H606 C607 0.961 . S
C607 C597 1.510 . S
C607 H605 0.959 . S
C607 H606 0.961 . S
C607 H608 0.960 . S
H608 C607 0.960 . S
H609 N589 0.862 . S
O610 Co578 1.920 . S
O610 C583 1.289 . S
C611 O603 1.258 . S
C611 O604 1.266 . S
H612 C620 0.929 . S
H613 C622 0.930 . S
H614 C624 0.930 . S
H615 C627 0.929 . S
H616 C630 0.930 . S
H617 C632 0.960 . S
H618 C632 0.960 . S
H619 C632 0.960 . S
C620 H612 0.929 . S
C620 C621 1.377 . S
C620 C622 1.384 . S
C621 C620 1.377 . S
C621 C627 1.390 . S
C622 H613 0.930 . S
C622 C620 1.384 . S
C622 C623 1.372 . S
C623 C622 1.372 . S
C623 C624 1.400 . S
C623 C628 1.490 . S
C624 H614 0.930 . S
C624 C623 1.400 . S
C624 C627 1.386 . S
H625 C641 0.930 . S
H626 C642 0.931 . S
C627 H615 0.929 . S
C627 C621 1.390 . S
C627 C624 1.386 . S
C628 C623 1.490 . S
C628 C630 1.395 1_556 S
C628 C631 1.403 . S
H629 C635 0.930 . S
C630 H616 0.930 . S
C630 C628 1.395 1_554 S
C630 C633 1.403 . S
C631 C628 1.403 . S
C631 C632 1.524 . S
C631 C635 1.400 . S
C632 H617 0.960 . S
C632 H618 0.960 . S
C632 H619 0.960 . S
C632 C631 1.524 . S
C633 C630 1.403 . S
C633 C634 1.392 . S
C633 C637 1.495 . S
C634 C633 1.392 . S
C634 C635 1.385 1_554 S
C634 C636 1.478 . S
C635 H629 0.930 . S
C635 C631 1.400 . S
C635 C634 1.385 1_556 S
C636 C634 1.478 . S
C636 C638 1.381 . S
C636 C642 1.383 . S
C637 C633 1.495 . S
C637 H643 0.959 . S
C637 H644 0.961 . S
C637 H645 0.960 . S
C638 C636 1.381 . S
C638 C639 1.394 . S
C638 H646 0.930 . S
C639 C638 1.394 . S
C639 C640 1.383 . S
C639 H647 0.929 . S
C640 C639 1.383 . S
C640 C641 1.377 . S
C641 H625 0.930 . S
C641 C640 1.377 . S
C641 C642 1.379 . S
C642 H626 0.931 . S
C642 C636 1.383 . S
C642 C641 1.379 . S
H643 C637 0.959 . S
H644 C637 0.961 . S
H645 C637 0.960 . S
H646 C638 0.930 . S
H647 C639 0.929 . S
H648 C656 0.929 . S
H649 C658 0.930 . S
H650 C660 0.930 . S
H651 C663 0.929 . S
H652 C666 0.926 . S
H653 C668 0.960 . S
H654 C668 0.960 . S
H655 C668 0.960 . S
C656 H648 0.929 . S
C656 C657 1.377 . S
C656 C658 1.384 . S
C657 C656 1.377 . S
C657 C663 1.390 . S
C658 H649 0.930 . S
C658 C656 1.384 . S
C658 C659 1.372 . S
C659 C658 1.372 . S
C659 C660 1.400 . S
C659 C664 1.490 . S
C660 H650 0.930 . S
C660 C659 1.400 . S
C660 C663 1.386 . S
H661 C677 0.930 . S
H662 C678 0.931 . S
C663 H651 0.929 . S
C663 C657 1.390 . S
C663 C660 1.386 . S
C664 C659 1.490 . S
C664 C666 1.395 1_565 S
C664 C667 1.403 1_554 S
H665 C671 0.930 . S
C666 H652 0.926 . S
C666 C664 1.395 1_545 S
C666 C669 1.403 . S
C667 C664 1.403 1_556 S
C667 C668 1.524 . S
C667 C671 1.400 1_565 S
C668 H653 0.960 . S
C668 H654 0.960 . S
C668 H655 0.960 . S
C668 C667 1.524 . S
C669 C666 1.403 . S
C669 C670 1.392 1_554 S
C669 C673 1.495 . S
C670 C669 1.392 1_556 S
C670 C671 1.385 . S
C670 C672 1.478 . S
C671 H665 0.930 . S
C671 C667 1.400 1_545 S
C671 C670 1.385 . S
C672 C670 1.478 . S
C672 C674 1.381 . S
C672 C678 1.383 . S
C673 C669 1.495 . S
C673 H679 0.959 . S
C673 H680 0.961 . S
C673 H681 0.960 . S
C674 C672 1.381 . S
C674 C675 1.394 . S
C674 H682 0.930 . S
C675 C674 1.394 . S
C675 C676 1.383 . S
C675 H683 0.929 . S
C676 C675 1.383 . S
C676 C677 1.377 . S
C677 H661 0.930 . S
C677 C676 1.377 . S
C677 C678 1.379 . S
C678 H662 0.931 . S
C678 C672 1.383 . S
C678 C677 1.379 . S
H679 C673 0.959 . S
H680 C673 0.961 . S
H681 C673 0.960 . S
H682 C674 0.930 . S
H683 C675 0.929 . S
H684 C692 0.929 . S
H685 C694 0.930 . S
H686 C696 0.930 . S
H687 C699 0.929 . S
H688 C702 0.930 . S
H689 C704 0.960 1_655 S
H690 C704 0.960 . S
H691 C704 0.960 . S
C692 H684 0.929 . S
C692 C693 1.377 . S
C692 C694 1.384 . S
C693 C692 1.377 . S
C693 C699 1.390 . S
C694 H685 0.930 . S
C694 C692 1.384 . S
C694 C695 1.372 . S
C695 C694 1.372 . S
C695 C696 1.400 . S
C695 C700 1.490 . S
C696 H686 0.930 . S
C696 C695 1.400 . S
C696 C699 1.386 . S
H697 C713 0.930 . S
H698 C714 0.931 . S
C699 H687 0.929 . S
C699 C693 1.390 . S
C699 C696 1.386 . S
C700 C695 1.490 . S
C700 C702 1.395 1_554 S
C700 C703 1.403 . S
H701 C707 0.932 . S
C702 H688 0.930 . S
C702 C700 1.395 1_556 S
C702 C705 1.403 1_455 S
C703 C700 1.403 . S
C703 C704 1.524 . S
C703 C707 1.421 1_455 S
C704 H689 0.960 1_455 S
C704 H690 0.960 . S
C704 H691 0.960 . S
C704 C703 1.524 . S
C705 C702 1.403 1_655 S
C705 C706 1.392 . S
C705 C709 1.495 . S
C706 C705 1.392 . S
C706 C707 1.363 1_556 S
C706 C708 1.478 . S
C707 H701 0.932 . S
C707 C703 1.421 1_655 S
C707 C706 1.363 1_554 S
C708 C706 1.478 . S
C708 C710 1.381 . S
C708 C714 1.383 . S
C709 C705 1.495 . S
C709 H715 0.959 1_655 S
C709 H716 0.961 . S
C709 H717 0.960 . S
C710 C708 1.381 . S
C710 C711 1.394 . S
C710 H718 0.930 . S
C711 C710 1.394 . S
C711 C712 1.383 . S
C711 H719 0.929 . S
C712 C711 1.383 . S
C712 C713 1.377 . S
C713 H697 0.930 . S
C713 C712 1.377 . S
C713 C714 1.379 . S
C714 H698 0.931 . S
C714 C708 1.383 . S
C714 C713 1.379 . S
H715 C709 0.959 1_455 S
H716 C709 0.961 . S
H717 C709 0.960 . S
H718 C710 0.930 . S
H719 C711 0.929 . S
H720 C728 0.929 . S
H721 C730 0.930 . S
H722 C732 0.930 . S
H723 C735 0.929 . S
H724 C738 0.930 . S
H725 C740 0.960 . S
H726 C740 0.960 . S
H727 C740 0.960 . S
C728 H720 0.929 . S
C728 C729 1.377 . S
C728 C730 1.384 . S
C729 C728 1.377 . S
C729 C735 1.390 . S
C730 H721 0.930 . S
C730 C728 1.384 . S
C730 C731 1.372 . S
C731 C730 1.372 . S
C731 C732 1.400 . S
C731 C736 1.490 . S
C732 H722 0.930 . S
C732 C731 1.400 . S
C732 C735 1.386 . S
H733 C749 0.930 . S
H734 C750 0.931 . S
C735 H723 0.929 . S
C735 C729 1.390 . S
C735 C732 1.386 . S
C736 C731 1.490 . S
C736 C738 1.395 1_556 S
C736 C739 1.403 . S
H737 C743 0.930 . S
C738 H724 0.930 . S
C738 C736 1.395 1_554 S
C738 C741 1.403 . S
C739 C736 1.403 . S
C739 C740 1.524 . S
C739 C743 1.400 . S
C740 H725 0.960 . S
C740 H726 0.960 . S
C740 H727 0.960 . S
C740 C739 1.524 . S
C741 C738 1.403 . S
C741 C742 1.392 . S
C741 C745 1.495 . S
C742 C741 1.392 . S
C742 C743 1.385 1_554 S
C742 C744 1.478 . S
C743 H737 0.930 . S
C743 C739 1.400 . S
C743 C742 1.385 1_556 S
C744 C742 1.478 . S
C744 C746 1.381 . S
C744 C750 1.383 . S
C745 C741 1.495 . S
C745 H751 0.959 . S
C745 H752 0.961 . S
C745 H753 0.960 . S
C746 C744 1.381 . S
C746 C747 1.394 . S
C746 H754 0.930 . S
C747 C746 1.394 . S
C747 C748 1.383 . S
C747 H755 0.929 . S
C748 C747 1.383 . S
C748 C749 1.377 . S
C749 H733 0.930 . S
C749 C748 1.377 . S
C749 C750 1.379 . S
C750 H734 0.931 . S
C750 C744 1.383 . S
C750 C749 1.379 . S
H751 C745 0.959 . S
H752 C745 0.961 . S
H753 C745 0.960 . S
H754 C746 0.930 . S
H755 C747 0.929 . S
H756 C764 0.929 . S
H757 C766 0.930 . S
H758 C768 0.930 . S
H759 C771 0.929 . S
H760 C774 0.930 . S
H761 C776 0.960 . S
H762 C776 0.960 . S
H763 C776 0.960 . S
C764 H756 0.929 . S
C764 C765 1.377 . S
C764 C766 1.384 . S
C765 C764 1.377 . S
C765 C771 1.390 . S
C766 H757 0.930 . S
C766 C764 1.384 . S
C766 C767 1.372 . S
C767 C766 1.372 . S
C767 C768 1.400 . S
C767 C772 1.490 . S
C768 H758 0.930 . S
C768 C767 1.400 . S
C768 C771 1.386 . S
H769 C785 0.930 . S
H770 C786 0.931 . S
C771 H759 0.929 . S
C771 C765 1.390 . S
C771 C768 1.386 . S
C772 C767 1.490 . S
C772 C774 1.395 . S
C772 C775 1.403 1_556 S
H773 C779 0.930 . S
C774 H760 0.930 . S
C774 C772 1.395 . S
C774 C777 1.403 1_545 S
C775 C772 1.403 1_554 S
C775 C776 1.524 . S
C775 C779 1.400 1_545 S
C776 H761 0.960 . S
C776 H762 0.960 . S
C776 H763 0.960 . S
C776 C775 1.524 . S
C777 C774 1.403 1_565 S
C777 C778 1.392 1_556 S
C777 C781 1.495 . S
C778 C777 1.392 1_554 S
C778 C779 1.385 . S
C778 C780 1.478 . S
C779 H773 0.930 . S
C779 C775 1.400 1_565 S
C779 C778 1.385 . S
C780 C778 1.478 . S
C780 C782 1.381 . S
C780 C786 1.383 . S
C781 C777 1.495 . S
C781 H787 0.959 . S
C781 H788 0.961 . S
C781 H789 0.960 . S
C782 C780 1.381 . S
C782 C783 1.394 . S
C782 H790 0.930 . S
C783 C782 1.394 . S
C783 C784 1.383 . S
C783 H791 0.929 . S
C784 C783 1.383 . S
C784 C785 1.377 . S
C785 H769 0.930 . S
C785 C784 1.377 . S
C785 C786 1.379 . S
C786 H770 0.931 . S
C786 C780 1.383 . S
C786 C785 1.379 . S
H787 C781 0.959 . S
H788 C781 0.961 . S
H789 C781 0.960 . S
H790 C782 0.930 . S
H791 C783 0.929 . S
H792 C800 0.929 . S
H793 C802 0.930 . S
H794 C804 0.930 . S
H795 C807 0.929 . S
H796 C810 0.930 . S
H797 C812 0.960 . S
H798 C812 0.960 . S
H799 C812 0.960 . S
C800 H792 0.929 . S
C800 C801 1.377 . S
C800 C802 1.384 . S
C801 C800 1.377 . S
C801 C807 1.390 . S
C802 H793 0.930 . S
C802 C800 1.384 . S
C802 C803 1.372 . S
C803 C802 1.372 . S
C803 C804 1.400 . S
C803 C808 1.490 . S
C804 H794 0.930 . S
C804 C803 1.400 . S
C804 C807 1.386 . S
H805 C821 0.930 . S
H806 C822 0.931 . S
C807 H795 0.929 . S
C807 C801 1.390 . S
C807 C804 1.386 . S
C808 C803 1.490 . S
C808 C810 1.395 . S
C808 C811 1.403 1_556 S
H809 C815 0.930 . S
C810 H796 0.930 . S
C810 C808 1.395 . S
C810 C813 1.403 1_655 S
C811 C808 1.403 1_554 S
C811 C812 1.524 . S
C811 C815 1.400 1_655 S
C812 H797 0.960 . S
C812 H798 0.960 . S
C812 H799 0.960 . S
C812 C811 1.524 . S
C813 C810 1.403 1_455 S
C813 C814 1.392 1_556 S
C813 C817 1.495 . S
C814 C813 1.392 1_554 S
C814 C815 1.385 . S
C814 C816 1.478 . S
C815 H809 0.930 . S
C815 C811 1.400 1_455 S
C815 C814 1.385 . S
C816 C814 1.478 . S
C816 C818 1.381 . S
C816 C822 1.383 . S
C817 C813 1.495 . S
C817 H823 0.959 . S
C817 H824 0.961 . S
C817 H825 0.960 . S
C818 C816 1.381 . S
C818 C819 1.394 . S
C818 H826 0.930 . S
C819 C818 1.394 . S
C819 C820 1.383 . S
C819 H827 0.929 . S
C820 C819 1.383 . S
C820 C821 1.377 . S
C821 H805 0.930 . S
C821 C820 1.377 . S
C821 C822 1.379 . S
C822 H806 0.931 . S
C822 C816 1.383 . S
C822 C821 1.379 . S
H823 C817 0.959 . S
H824 C817 0.961 . S
H825 C817 0.960 . S
H826 C818 0.930 . S
H827 C819 0.929 . S
H828 C836 0.929 . S
H829 C838 0.930 . S
H830 C840 0.930 . S
H831 C843 0.929 . S
H832 C846 0.930 . S
H833 C848 0.960 . S
H834 C848 0.960 . S
H835 C848 0.960 . S
C836 H828 0.929 . S
C836 C837 1.377 . S
C836 C838 1.384 . S
C837 C836 1.377 . S
C837 C843 1.390 . S
C838 H829 0.930 . S
C838 C836 1.384 . S
C838 C839 1.372 . S
C839 C838 1.372 . S
C839 C840 1.400 . S
C839 C844 1.490 . S
C840 H830 0.930 . S
C840 C839 1.400 . S
C840 C843 1.386 . S
H841 C857 0.930 . S
H842 C858 0.931 . S
C843 H831 0.929 . S
C843 C837 1.390 . S
C843 C840 1.386 . S
C844 C839 1.490 . S
C844 C846 1.395 . S
C844 C847 1.403 . S
H845 C851 0.930 . S
C846 H832 0.930 . S
C846 C844 1.395 . S
C846 C849 1.403 . S
C847 C844 1.403 . S
C847 C848 1.524 . S
C847 C851 1.400 . S
C848 H833 0.960 . S
C848 H834 0.960 . S
C848 H835 0.960 . S
C848 C847 1.524 . S
C849 C846 1.403 . S
C849 C850 1.392 . S
C849 C853 1.495 . S
C850 C849 1.392 . S
C850 C851 1.385 . S
C850 C852 1.478 . S
C851 H845 0.930 . S
C851 C847 1.400 . S
C851 C850 1.385 . S
C852 C850 1.478 . S
C852 C854 1.381 . S
C852 C858 1.383 . S
C853 C849 1.495 . S
C853 H859 0.959 . S
C853 H860 0.961 . S
C853 H861 0.960 . S
C854 C852 1.381 . S
C854 C855 1.394 . S
C854 H862 0.930 . S
C855 C854 1.394 . S
C855 C856 1.383 . S
C855 H863 0.929 . S
C856 C855 1.383 . S
C856 C857 1.377 . S
C857 H841 0.930 . S
C857 C856 1.377 . S
C857 C858 1.379 . S
C858 H842 0.931 . S
C858 C852 1.383 . S
C858 C857 1.379 . S
H859 C853 0.959 . S
H860 C853 0.961 . S
H861 C853 0.960 . S
H862 C854 0.930 . S
H863 C855 0.929 . S
H864 C872 0.929 . S
H865 C874 0.930 . S
H866 C876 0.930 . S
H867 C879 0.929 . S
H868 C882 0.930 . S
H869 C884 0.960 . S
H870 C884 0.960 . S
H871 C884 0.960 . S
C872 H864 0.929 . S
C872 C873 1.377 . S
C872 C874 1.384 . S
C873 C872 1.377 . S
C873 C879 1.390 . S
C874 H865 0.930 . S
C874 C872 1.384 . S
C874 C875 1.372 . S
C875 C874 1.372 . S
C875 C876 1.400 . S
C875 C880 1.490 . S
C876 H866 0.930 . S
C876 C875 1.400 . S
C876 C879 1.386 . S
H877 C893 0.930 . S
H878 C894 0.931 . S
C879 H867 0.929 . S
C879 C873 1.390 . S
C879 C876 1.386 . S
C880 C875 1.490 . S
C880 C882 1.395 . S
C880 C883 1.403 . S
H881 C887 0.930 . S
C882 H868 0.930 . S
C882 C880 1.395 . S
C882 C885 1.403 . S
C883 C880 1.403 . S
C883 C884 1.524 . S
C883 C887 1.400 . S
C884 H869 0.960 . S
C884 H870 0.960 . S
C884 H871 0.960 . S
C884 C883 1.524 . S
C885 C882 1.403 . S
C885 C886 1.392 . S
C885 C889 1.495 . S
C886 C885 1.392 . S
C886 C887 1.385 . S
C886 C888 1.478 . S
C887 H881 0.930 . S
C887 C883 1.400 . S
C887 C886 1.385 . S
C888 C886 1.478 . S
C888 C890 1.381 . S
C888 C894 1.383 . S
C889 C885 1.495 . S
C889 H895 0.959 . S
C889 H896 0.961 . S
C889 H897 0.960 . S
C890 C888 1.381 . S
C890 C891 1.394 . S
C890 H898 0.930 . S
C891 C890 1.394 . S
C891 C892 1.383 . S
C891 H899 0.929 . S
C892 C891 1.383 . S
C892 C893 1.377 . S
C893 H877 0.930 . S
C893 C892 1.377 . S
C893 C894 1.379 . S
C894 H878 0.931 . S
C894 C888 1.383 . S
C894 C893 1.379 . S
H895 C889 0.959 . S
H896 C889 0.961 . S
H897 C889 0.960 . S
H898 C890 0.930 . S
H899 C891 0.929 . S
H900 C908 0.929 . S
H901 C910 0.930 . S
H902 C912 0.930 . S
H903 C915 0.929 . S
H904 C918 0.930 . S
H905 C920 0.960 . S
H906 C920 0.960 . S
H907 C920 0.960 . S
C908 H900 0.929 . S
C908 C909 1.377 . S
C908 C910 1.384 . S
C909 C908 1.377 . S
C909 C915 1.390 . S
C910 H901 0.930 . S
C910 C908 1.384 . S
C910 C911 1.372 . S
C911 C910 1.372 . S
C911 C912 1.400 . S
C911 C916 1.490 . S
C912 H902 0.930 . S
C912 C911 1.400 . S
C912 C915 1.386 . S
H913 C929 0.930 . S
H914 C930 0.931 . S
C915 H903 0.929 . S
C915 C909 1.390 . S
C915 C912 1.386 . S
C916 C911 1.490 . S
C916 C918 1.395 . S
C916 C919 1.403 . S
H917 C923 0.930 . S
C918 H904 0.930 . S
C918 C916 1.395 . S
C918 C921 1.403 . S
C919 C916 1.403 . S
C919 C920 1.524 . S
C919 C923 1.400 . S
C920 H905 0.960 . S
C920 H906 0.960 . S
C920 H907 0.960 . S
C920 C919 1.524 . S
C921 C918 1.403 . S
C921 C922 1.392 . S
C921 C925 1.495 . S
C922 C921 1.392 . S
C922 C923 1.385 . S
C922 C924 1.478 . S
C923 H917 0.930 . S
C923 C919 1.400 . S
C923 C922 1.385 . S
C924 C922 1.478 . S
C924 C926 1.381 . S
C924 C930 1.383 . S
C925 C921 1.495 . S
C925 H931 0.959 . S
C925 H932 0.961 . S
C925 H933 0.960 . S
C926 C924 1.381 . S
C926 C927 1.394 . S
C926 H934 0.930 . S
C927 C926 1.394 . S
C927 C928 1.383 . S
C927 H935 0.929 . S
C928 C927 1.383 . S
C928 C929 1.377 . S
C929 H913 0.930 . S
C929 C928 1.377 . S
C929 C930 1.379 . S
C930 H914 0.931 . S
C930 C924 1.383 . S
C930 C929 1.379 . S
H931 C925 0.959 . S
H932 C925 0.961 . S
H933 C925 0.960 . S
H934 C926 0.930 . S
H935 C927 0.929 . S
H936 C944 0.929 . S
H937 C946 0.930 . S
H938 C948 0.930 . S
H939 C951 0.929 . S
H940 C954 0.930 . S
H941 C956 0.960 . S
H942 C956 0.960 . S
H943 C956 0.960 . S
C944 H936 0.929 . S
C944 C945 1.377 . S
C944 C946 1.384 . S
C945 C944 1.377 . S
C945 C951 1.390 . S
C946 H937 0.930 . S
C946 C944 1.384 . S
C946 C947 1.372 . S
C947 C946 1.372 . S
C947 C948 1.400 . S
C947 C952 1.490 . S
C948 H938 0.930 . S
C948 C947 1.400 . S
C948 C951 1.386 . S
H949 C965 0.930 . S
H950 C966 0.931 . S
C951 H939 0.929 . S
C951 C945 1.390 . S
C951 C948 1.386 . S
C952 C947 1.490 . S
C952 C954 1.395 . S
C952 C955 1.403 . S
H953 C959 0.930 . S
C954 H940 0.930 . S
C954 C952 1.395 . S
C954 C957 1.403 . S
C955 C952 1.403 . S
C955 C956 1.524 . S
C955 C959 1.400 . S
C956 H941 0.960 . S
C956 H942 0.960 . S
C956 H943 0.960 . S
C956 C955 1.524 . S
C957 C954 1.403 . S
C957 C958 1.392 . S
C957 C961 1.495 . S
C958 C957 1.392 . S
C958 C959 1.385 . S
C958 C960 1.478 . S
C959 H953 0.930 . S
C959 C955 1.400 . S
C959 C958 1.385 . S
C960 C958 1.478 . S
C960 C962 1.381 . S
C960 C966 1.383 . S
C961 C957 1.495 . S
C961 H967 0.959 . S
C961 H968 0.961 . S
C961 H969 0.960 . S
C962 C960 1.381 . S
C962 C963 1.394 . S
C962 H970 0.930 . S
C963 C962 1.394 . S
C963 C964 1.383 . S
C963 H971 0.929 . S
C964 C963 1.383 . S
C964 C965 1.377 . S
C965 H949 0.930 . S
C965 C964 1.377 . S
C965 C966 1.379 . S
C966 H950 0.931 . S
C966 C960 1.383 . S
C966 C965 1.379 . S
H967 C961 0.959 . S
H968 C961 0.961 . S
H969 C961 0.960 . S
H970 C962 0.930 . S
H971 C963 0.929 . S
H972 C980 0.929 . S
H973 C982 0.930 . S
H974 C984 0.930 . S
H975 C987 0.929 . S
H976 C990 0.930 . S
H977 C992 0.960 . S
H978 C992 0.960 . S
H979 C992 0.960 . S
C980 H972 0.929 . S
C980 C981 1.377 . S
C980 C982 1.384 . S
C981 C980 1.377 . S
C981 C987 1.390 . S
C982 H973 0.930 . S
C982 C980 1.384 . S
C982 C983 1.372 . S
C983 C982 1.372 . S
C983 C984 1.400 . S
C983 C988 1.490 . S
C984 H974 0.930 . S
C984 C983 1.400 . S
C984 C987 1.386 . S
H985 C1001 0.930 . S
H986 C1002 0.931 . S
C987 H975 0.929 . S
C987 C981 1.390 . S
C987 C984 1.386 . S
C988 C983 1.490 . S
C988 C990 1.395 . S
C988 C991 1.403 . S
H989 C995 0.930 . S
C990 H976 0.930 . S
C990 C988 1.395 . S
C990 C993 1.403 . S
C991 C988 1.403 . S
C991 C992 1.524 . S
C991 C995 1.400 . S
C992 H977 0.960 . S
C992 H978 0.960 . S
C992 H979 0.960 . S
C992 C991 1.524 . S
C993 C990 1.403 . S
C993 C994 1.392 . S
C993 C997 1.495 . S
C994 C993 1.392 . S
C994 C995 1.385 . S
C994 C996 1.478 . S
C995 H989 0.930 . S
C995 C991 1.400 . S
C995 C994 1.385 . S
C996 C994 1.478 . S
C996 C998 1.381 . S
C996 C1002 1.383 . S
C997 C993 1.495 . S
C997 H1003 0.959 . S
C997 H1004 0.961 . S
C997 H1005 0.960 . S
C998 C996 1.381 . S
C998 C999 1.394 . S
C998 H1006 0.930 . S
C999 C998 1.394 . S
C999 C1000 1.383 . S
C999 H1007 0.929 . S
C1000 C999 1.383 . S
C1000 C1001 1.377 . S
C1001 H985 0.930 . S
C1001 C1000 1.377 . S
C1001 C1002 1.379 . S
C1002 H986 0.931 . S
C1002 C996 1.383 . S
C1002 C1001 1.379 . S
H1003 C997 0.959 . S
H1004 C997 0.961 . S
H1005 C997 0.960 . S
H1006 C998 0.930 . S
H1007 C999 0.929 . S
H1008 C1016 0.929 . S
H1009 C1018 0.930 . S
H1010 C1020 0.930 . S
H1011 C1023 0.929 . S
H1012 C1026 0.930 . S
H1013 C1028 0.960 . S
H1014 C1028 0.960 . S
H1015 C1028 0.960 . S
C1016 H1008 0.929 . S
C1016 C1017 1.377 . S
C1016 C1018 1.384 . S
C1017 C1016 1.377 . S
C1017 C1023 1.390 . S
C1018 H1009 0.930 . S
C1018 C1016 1.384 . S
C1018 C1019 1.372 . S
C1019 C1018 1.372 . S
C1019 C1020 1.400 . S
C1019 C1024 1.490 . S
C1020 H1010 0.930 . S
C1020 C1019 1.400 . S
C1020 C1023 1.386 . S
H1021 C1037 0.930 . S
H1022 C1038 0.931 . S
C1023 H1011 0.929 . S
C1023 C1017 1.390 . S
C1023 C1020 1.386 . S
C1024 C1019 1.490 . S
C1024 C1026 1.395 . S
C1024 C1027 1.403 . S
H1025 C1031 0.930 . S
C1026 H1012 0.930 . S
C1026 C1024 1.395 . S
C1026 C1029 1.403 . S
C1027 C1024 1.403 . S
C1027 C1028 1.524 . S
C1027 C1031 1.400 . S
C1028 H1013 0.960 . S
C1028 H1014 0.960 . S
C1028 H1015 0.960 . S
C1028 C1027 1.524 . S
C1029 C1026 1.403 . S
C1029 C1030 1.392 . S
C1029 C1033 1.495 . S
C1030 C1029 1.392 . S
C1030 C1031 1.385 . S
C1030 C1032 1.478 . S
C1031 H1025 0.930 . S
C1031 C1027 1.400 . S
C1031 C1030 1.385 . S
C1032 C1030 1.478 . S
C1032 C1034 1.381 . S
C1032 C1038 1.383 . S
C1033 C1029 1.495 . S
C1033 H1039 0.959 . S
C1033 H1040 0.961 . S
C1033 H1041 0.960 . S
C1034 C1032 1.381 . S
C1034 C1035 1.394 . S
C1034 H1042 0.930 . S
C1035 C1034 1.394 . S
C1035 C1036 1.383 . S
C1035 H1043 0.929 . S
C1036 C1035 1.383 . S
C1036 C1037 1.377 . S
C1037 H1021 0.930 . S
C1037 C1036 1.377 . S
C1037 C1038 1.379 . S
C1038 H1022 0.931 . S
C1038 C1032 1.383 . S
C1038 C1037 1.379 . S
H1039 C1033 0.959 . S
H1040 C1033 0.961 . S
H1041 C1033 0.960 . S
H1042 C1034 0.930 . S
H1043 C1035 0.929 . S
H1044 C1052 0.929 . S
H1045 C1054 0.930 . S
H1046 C1056 0.930 . S
H1047 C1059 0.929 . S
H1048 C1062 0.930 . S
H1049 C1064 0.960 . S
H1050 C1064 0.960 . S
H1051 C1064 0.960 . S
C1052 H1044 0.929 . S
C1052 C1053 1.377 . S
C1052 C1054 1.384 . S
C1053 C1052 1.377 . S
C1053 C1059 1.390 . S
C1054 H1045 0.930 . S
C1054 C1052 1.384 . S
C1054 C1055 1.372 . S
C1055 C1054 1.372 . S
C1055 C1056 1.400 . S
C1055 C1060 1.490 . S
C1056 H1046 0.930 . S
C1056 C1055 1.400 . S
C1056 C1059 1.386 . S
H1057 C1073 0.930 . S
H1058 C1074 0.931 . S
C1059 H1047 0.929 . S
C1059 C1053 1.390 . S
C1059 C1056 1.386 . S
C1060 C1055 1.490 . S
C1060 C1062 1.395 . S
C1060 C1063 1.403 . S
H1061 C1067 0.930 . S
C1062 H1048 0.930 . S
C1062 C1060 1.395 . S
C1062 C1065 1.403 . S
C1063 C1060 1.403 . S
C1063 C1064 1.524 . S
C1063 C1067 1.400 . S
C1064 H1049 0.960 . S
C1064 H1050 0.960 . S
C1064 H1051 0.960 . S
C1064 C1063 1.524 . S
C1065 C1062 1.403 . S
C1065 C1066 1.392 . S
C1065 C1069 1.495 . S
C1066 C1065 1.392 . S
C1066 C1067 1.385 . S
C1066 C1068 1.478 . S
C1067 H1061 0.930 . S
C1067 C1063 1.400 . S
C1067 C1066 1.385 . S
C1068 C1066 1.478 . S
C1068 C1070 1.381 . S
C1068 C1074 1.383 . S
C1069 C1065 1.495 . S
C1069 H1075 0.959 . S
C1069 H1076 0.961 . S
C1069 H1077 0.960 . S
C1070 C1068 1.381 . S
C1070 C1071 1.394 . S
C1070 H1078 0.930 . S
C1071 C1070 1.394 . S
C1071 C1072 1.383 . S
C1071 H1079 0.929 . S
C1072 C1071 1.383 . S
C1072 C1073 1.377 . S
C1073 H1057 0.930 . S
C1073 C1072 1.377 . S
C1073 C1074 1.379 . S
C1074 H1058 0.931 . S
C1074 C1068 1.383 . S
C1074 C1073 1.379 . S
H1075 C1069 0.959 . S
H1076 C1069 0.961 . S
H1077 C1069 0.960 . S
H1078 C1070 0.930 . S
H1079 C1071 0.929 . S
H1080 C1088 0.929 . S
H1081 C1090 0.930 . S
H1082 C1092 0.930 . S
H1083 C1095 0.929 . S
H1084 C1098 0.930 . S
H1085 C1100 0.960 . S
H1086 C1100 0.960 . S
H1087 C1100 0.960 . S
C1088 H1080 0.929 . S
C1088 C1089 1.377 . S
C1088 C1090 1.384 . S
C1089 C1088 1.377 . S
C1089 C1095 1.390 . S
C1090 H1081 0.930 . S
C1090 C1088 1.384 . S
C1090 C1091 1.372 . S
C1091 C1090 1.372 . S
C1091 C1092 1.400 . S
C1091 C1096 1.490 . S
C1092 H1082 0.930 . S
C1092 C1091 1.400 . S
C1092 C1095 1.386 . S
H1093 C1109 0.930 . S
H1094 C1110 0.931 . S
C1095 H1083 0.929 . S
C1095 C1089 1.390 . S
C1095 C1092 1.386 . S
C1096 C1091 1.490 . S
C1096 C1098 1.395 . S
C1096 C1099 1.403 . S
H1097 C1103 0.930 . S
C1098 H1084 0.930 . S
C1098 C1096 1.395 . S
C1098 C1101 1.403 . S
C1099 C1096 1.403 . S
C1099 C1100 1.524 . S
C1099 C1103 1.400 . S
C1100 H1085 0.960 . S
C1100 H1086 0.960 . S
C1100 H1087 0.960 . S
C1100 C1099 1.524 . S
C1101 C1098 1.403 . S
C1101 C1102 1.392 . S
C1101 C1105 1.495 . S
C1102 C1101 1.392 . S
C1102 C1103 1.385 . S
C1102 C1104 1.478 . S
C1103 H1097 0.930 . S
C1103 C1099 1.400 . S
C1103 C1102 1.385 . S
C1104 C1102 1.478 . S
C1104 C1106 1.381 . S
C1104 C1110 1.383 . S
C1105 C1101 1.495 . S
C1105 H1111 0.959 . S
C1105 H1112 0.961 . S
C1105 H1113 0.960 . S
C1106 C1104 1.381 . S
C1106 C1107 1.394 . S
C1106 H1114 0.930 . S
C1107 C1106 1.394 . S
C1107 C1108 1.383 . S
C1107 H1115 0.929 . S
C1108 C1107 1.383 . S
C1108 C1109 1.377 . S
C1109 H1093 0.930 . S
C1109 C1108 1.377 . S
C1109 C1110 1.379 . S
C1110 H1094 0.931 . S
C1110 C1104 1.383 . S
C1110 C1109 1.379 . S
H1111 C1105 0.959 . S
H1112 C1105 0.961 . S
H1113 C1105 0.960 . S
H1114 C1106 0.930 . S
H1115 C1107 0.929 . S
H1116 C1124 0.929 . S
H1117 C1126 0.930 . S
H1118 C1128 0.930 . S
H1119 C1131 0.929 . S
H1120 C1134 0.930 . S
H1121 C1136 0.960 . S
H1122 C1136 0.960 . S
H1123 C1136 0.960 . S
C1124 H1116 0.929 . S
C1124 C1125 1.377 . S
C1124 C1126 1.384 . S
C1125 C1124 1.377 . S
C1125 C1131 1.390 . S
C1126 H1117 0.930 . S
C1126 C1124 1.384 . S
C1126 C1127 1.372 . S
C1127 C1126 1.372 . S
C1127 C1128 1.400 . S
C1127 C1132 1.490 . S
C1128 H1118 0.930 . S
C1128 C1127 1.400 . S
C1128 C1131 1.386 . S
H1129 C1145 0.930 . S
H1130 C1146 0.931 . S
C1131 H1119 0.929 . S
C1131 C1125 1.390 . S
C1131 C1128 1.386 . S
C1132 C1127 1.490 . S
C1132 C1134 1.395 . S
C1132 C1135 1.403 . S
H1133 C1139 0.930 . S
C1134 H1120 0.930 . S
C1134 C1132 1.395 . S
C1134 C1137 1.403 . S
C1135 C1132 1.403 . S
C1135 C1136 1.524 . S
C1135 C1139 1.400 . S
C1136 H1121 0.960 . S
C1136 H1122 0.960 . S
C1136 H1123 0.960 . S
C1136 C1135 1.524 . S
C1137 C1134 1.403 . S
C1137 C1138 1.392 . S
C1137 C1141 1.495 . S
C1138 C1137 1.392 . S
C1138 C1139 1.385 . S
C1138 C1140 1.478 . S
C1139 H1133 0.930 . S
C1139 C1135 1.400 . S
C1139 C1138 1.385 . S
C1140 C1138 1.478 . S
C1140 C1142 1.381 . S
C1140 C1146 1.383 . S
C1141 C1137 1.495 . S
C1141 H1147 0.959 . S
C1141 H1148 0.961 . S
C1141 H1149 0.960 . S
C1142 C1140 1.381 . S
C1142 C1143 1.394 . S
C1142 H1150 0.930 . S
C1143 C1142 1.394 . S
C1143 C1144 1.383 . S
C1143 H1151 0.929 . S
C1144 C1143 1.383 . S
C1144 C1145 1.377 . S
C1145 H1129 0.930 . S
C1145 C1144 1.377 . S
C1145 C1146 1.379 . S
C1146 H1130 0.931 . S
C1146 C1140 1.383 . S
C1146 C1145 1.379 . S
H1147 C1141 0.959 . S
H1148 C1141 0.961 . S
H1149 C1141 0.960 . S
H1150 C1142 0.930 . S
H1151 C1143 0.929 . S
H1152 C1160 0.929 . S
H1153 C1162 0.930 . S
H1154 C1164 0.930 . S
H1155 C1167 0.929 . S
H1156 C1170 0.930 . S
H1157 C1172 0.960 . S
H1158 C1172 0.960 . S
H1159 C1172 0.960 . S
C1160 H1152 0.929 . S
C1160 C1161 1.377 . S
C1160 C1162 1.384 . S
C1161 C1160 1.377 . S
C1161 C1167 1.390 . S
C1162 H1153 0.930 . S
C1162 C1160 1.384 . S
C1162 C1163 1.372 . S
C1163 C1162 1.372 . S
C1163 C1164 1.400 . S
C1163 C1168 1.490 . S
C1164 H1154 0.930 . S
C1164 C1163 1.400 . S
C1164 C1167 1.386 . S
H1165 C1181 0.930 . S
H1166 C1182 0.931 . S
C1167 H1155 0.929 . S
C1167 C1161 1.390 . S
C1167 C1164 1.386 . S
C1168 C1163 1.490 . S
C1168 C1170 1.395 . S
C1168 C1171 1.403 . S
H1169 C1175 0.930 . S
C1170 H1156 0.930 . S
C1170 C1168 1.395 . S
C1170 C1173 1.403 . S
C1171 C1168 1.403 . S
C1171 C1172 1.524 . S
C1171 C1175 1.400 . S
C1172 H1157 0.960 . S
C1172 H1158 0.960 . S
C1172 H1159 0.960 . S
C1172 C1171 1.524 . S
C1173 C1170 1.403 . S
C1173 C1174 1.392 . S
C1173 C1177 1.495 . S
C1174 C1173 1.392 . S
C1174 C1175 1.385 . S
C1174 C1176 1.478 . S
C1175 H1169 0.930 . S
C1175 C1171 1.400 . S
C1175 C1174 1.385 . S
C1176 C1174 1.478 . S
C1176 C1178 1.381 . S
C1176 C1182 1.383 . S
C1177 C1173 1.495 . S
C1177 H1183 0.959 . S
C1177 H1184 0.961 . S
C1177 H1185 0.960 . S
C1178 C1176 1.381 . S
C1178 C1179 1.394 . S
C1178 H1186 0.930 . S
C1179 C1178 1.394 . S
C1179 C1180 1.383 . S
C1179 H1187 0.929 . S
C1180 C1179 1.383 . S
C1180 C1181 1.377 . S
C1181 H1165 0.930 . S
C1181 C1180 1.377 . S
C1181 C1182 1.379 . S
C1182 H1166 0.931 . S
C1182 C1176 1.383 . S
C1182 C1181 1.379 . S
H1183 C1177 0.959 . S
H1184 C1177 0.961 . S
H1185 C1177 0.960 . S
H1186 C1178 0.930 . S
H1187 C1179 0.929 . S
H1188 C1196 0.929 . S
H1189 C1198 0.930 . S
H1190 C1200 0.930 . S
H1191 C1203 0.929 . S
H1192 C1206 0.930 . S
H1193 C1208 0.960 . S
H1194 C1208 0.960 . S
H1195 C1208 0.960 . S
C1196 H1188 0.929 . S
C1196 C1197 1.377 . S
C1196 C1198 1.384 . S
C1197 C1196 1.377 . S
C1197 C1203 1.390 . S
C1198 H1189 0.930 . S
C1198 C1196 1.384 . S
C1198 C1199 1.372 . S
C1199 C1198 1.372 . S
C1199 C1200 1.400 . S
C1199 C1204 1.490 . S
C1200 H1190 0.930 . S
C1200 C1199 1.400 . S
C1200 C1203 1.386 . S
H1201 C1217 0.930 . S
H1202 C1218 0.931 . S
C1203 H1191 0.929 . S
C1203 C1197 1.390 . S
C1203 C1200 1.386 . S
C1204 C1199 1.490 . S
C1204 C1206 1.395 . S
C1204 C1207 1.403 . S
H1205 C1211 0.930 . S
C1206 H1192 0.930 . S
C1206 C1204 1.395 . S
C1206 C1209 1.403 . S
C1207 C1204 1.403 . S
C1207 C1208 1.524 . S
C1207 C1211 1.400 . S
C1208 H1193 0.960 . S
C1208 H1194 0.960 . S
C1208 H1195 0.960 . S
C1208 C1207 1.524 . S
C1209 C1206 1.403 . S
C1209 C1210 1.392 . S
C1209 C1213 1.495 . S
C1210 C1209 1.392 . S
C1210 C1211 1.385 . S
C1210 C1212 1.478 . S
C1211 H1205 0.930 . S
C1211 C1207 1.400 . S
C1211 C1210 1.385 . S
C1212 C1210 1.478 . S
C1212 C1214 1.381 . S
C1212 C1218 1.383 . S
C1213 C1209 1.495 . S
C1213 H1219 0.959 . S
C1213 H1220 0.961 . S
C1213 H1221 0.960 . S
C1214 C1212 1.381 . S
C1214 C1215 1.394 . S
C1214 H1222 0.930 . S
C1215 C1214 1.394 . S
C1215 C1216 1.383 . S
C1215 H1223 0.929 . S
C1216 C1215 1.383 . S
C1216 C1217 1.377 . S
C1217 H1201 0.930 . S
C1217 C1216 1.377 . S
C1217 C1218 1.379 . S
C1218 H1202 0.931 . S
C1218 C1212 1.383 . S
C1218 C1217 1.379 . S
H1219 C1213 0.959 . S
H1220 C1213 0.961 . S
H1221 C1213 0.960 . S
H1222 C1214 0.930 . S
H1223 C1215 0.929 . S
H1224 C1232 0.929 . S
H1225 C1234 0.930 . S
H1226 C1236 0.930 . S
H1227 C1239 0.929 . S
H1228 C1242 0.930 . S
H1229 C1244 0.960 . S
H1230 C1244 0.960 . S
H1231 C1244 0.960 . S
C1232 H1224 0.929 . S
C1232 C1233 1.377 . S
C1232 C1234 1.384 . S
C1233 C1232 1.377 . S
C1233 C1239 1.390 . S
C1234 H1225 0.930 . S
C1234 C1232 1.384 . S
C1234 C1235 1.372 . S
C1235 C1234 1.372 . S
C1235 C1236 1.400 . S
C1235 C1240 1.490 . S
C1236 H1226 0.930 . S
C1236 C1235 1.400 . S
C1236 C1239 1.386 . S
H1237 C1253 0.930 . S
H1238 C1254 0.931 . S
C1239 H1227 0.929 . S
C1239 C1233 1.390 . S
C1239 C1236 1.386 . S
C1240 C1235 1.490 . S
C1240 C1242 1.395 . S
C1240 C1243 1.403 . S
H1241 C1247 0.930 . S
C1242 H1228 0.930 . S
C1242 C1240 1.395 . S
C1242 C1245 1.403 . S
C1243 C1240 1.403 . S
C1243 C1244 1.524 . S
C1243 C1247 1.400 . S
C1244 H1229 0.960 . S
C1244 H1230 0.960 . S
C1244 H1231 0.960 . S
C1244 C1243 1.524 . S
C1245 C1242 1.403 . S
C1245 C1246 1.392 . S
C1245 C1249 1.495 . S
C1246 C1245 1.392 . S
C1246 C1247 1.385 . S
C1246 C1248 1.478 . S
C1247 H1241 0.930 . S
C1247 C1243 1.400 . S
C1247 C1246 1.385 . S
C1248 C1246 1.478 . S
C1248 C1250 1.381 . S
C1248 C1254 1.383 . S
C1249 C1245 1.495 . S
C1249 H1255 0.959 . S
C1249 H1256 0.961 . S
C1249 H1257 0.960 . S
C1250 C1248 1.381 . S
C1250 C1251 1.394 . S
C1250 H1258 0.930 . S
C1251 C1250 1.394 . S
C1251 C1252 1.383 . S
C1251 H1259 0.929 . S
C1252 C1251 1.383 . S
C1252 C1253 1.377 . S
C1253 H1237 0.930 . S
C1253 C1252 1.377 . S
C1253 C1254 1.379 . S
C1254 H1238 0.931 . S
C1254 C1248 1.383 . S
C1254 C1253 1.379 . S
H1255 C1249 0.959 . S
H1256 C1249 0.961 . S
H1257 C1249 0.960 . S
H1258 C1250 0.930 . S
H1259 C1251 0.929 . S
H1260 C1268 0.929 . S
H1261 C1270 0.930 . S
H1262 C1272 0.930 . S
H1263 C1275 0.929 . S
H1264 C1278 0.930 . S
H1265 C1280 0.960 . S
H1266 C1280 0.960 . S
H1267 C1280 0.960 . S
C1268 H1260 0.929 . S
C1268 C1269 1.377 . S
C1268 C1270 1.384 . S
C1269 C1268 1.377 . S
C1269 C1275 1.390 . S
C1270 H1261 0.930 . S
C1270 C1268 1.384 . S
C1270 C1271 1.372 . S
C1271 C1270 1.372 . S
C1271 C1272 1.400 . S
C1271 C1276 1.490 . S
C1272 H1262 0.930 . S
C1272 C1271 1.400 . S
C1272 C1275 1.386 . S
H1273 C1289 0.930 . S
H1274 C1290 0.931 . S
C1275 H1263 0.929 . S
C1275 C1269 1.390 . S
C1275 C1272 1.386 . S
C1276 C1271 1.490 . S
C1276 C1278 1.395 . S
C1276 C1279 1.403 . S
H1277 C1283 0.930 . S
C1278 H1264 0.930 . S
C1278 C1276 1.395 . S
C1278 C1281 1.403 . S
C1279 C1276 1.403 . S
C1279 C1280 1.524 . S
C1279 C1283 1.400 . S
C1280 H1265 0.960 . S
C1280 H1266 0.960 . S
C1280 H1267 0.960 . S
C1280 C1279 1.524 . S
C1281 C1278 1.403 . S
C1281 C1282 1.392 . S
C1281 C1285 1.495 . S
C1282 C1281 1.392 . S
C1282 C1283 1.385 . S
C1282 C1284 1.478 . S
C1283 H1277 0.930 . S
C1283 C1279 1.400 . S
C1283 C1282 1.385 . S
C1284 C1282 1.478 . S
C1284 C1286 1.381 . S
C1284 C1290 1.383 . S
C1285 C1281 1.495 . S
C1285 H1291 0.959 . S
C1285 H1292 0.961 . S
C1285 H1293 0.960 . S
C1286 C1284 1.381 . S
C1286 C1287 1.394 . S
C1286 H1294 0.930 . S
C1287 C1286 1.394 . S
C1287 C1288 1.383 . S
C1287 H1295 0.929 . S
C1288 C1287 1.383 . S
C1288 C1289 1.377 . S
C1289 H1273 0.930 . S
C1289 C1288 1.377 . S
C1289 C1290 1.379 . S
C1290 H1274 0.931 . S
C1290 C1284 1.383 . S
C1290 C1289 1.379 . S
H1291 C1285 0.959 . S
H1292 C1285 0.961 . S
H1293 C1285 0.960 . S
H1294 C1286 0.930 . S
H1295 C1287 0.929 . S
H1296 C1304 0.929 . S
H1297 C1306 0.930 . S
H1298 C1308 0.930 . S
H1299 C1311 0.929 . S
H1300 C1314 0.930 . S
H1301 C1316 0.960 . S
H1302 C1316 0.960 . S
H1303 C1316 0.960 . S
C1304 H1296 0.929 . S
C1304 C1305 1.377 . S
C1304 C1306 1.384 . S
C1305 C1304 1.377 . S
C1305 C1311 1.390 . S
C1306 H1297 0.930 . S
C1306 C1304 1.384 . S
C1306 C1307 1.372 . S
C1307 C1306 1.372 . S
C1307 C1308 1.400 . S
C1307 C1312 1.490 . S
C1308 H1298 0.930 . S
C1308 C1307 1.400 . S
C1308 C1311 1.386 . S
H1309 C1325 0.930 . S
H1310 C1326 0.931 . S
C1311 H1299 0.929 . S
C1311 C1305 1.390 . S
C1311 C1308 1.386 . S
C1312 C1307 1.490 . S
C1312 C1314 1.395 . S
C1312 C1315 1.403 . S
H1313 C1319 0.930 . S
C1314 H1300 0.930 . S
C1314 C1312 1.395 . S
C1314 C1317 1.403 . S
C1315 C1312 1.403 . S
C1315 C1316 1.524 . S
C1315 C1319 1.400 . S
C1316 H1301 0.960 . S
C1316 H1302 0.960 . S
C1316 H1303 0.960 . S
C1316 C1315 1.524 . S
C1317 C1314 1.403 . S
C1317 C1318 1.392 . S
C1317 C1321 1.495 . S
C1318 C1317 1.392 . S
C1318 C1319 1.385 . S
C1318 C1320 1.478 . S
C1319 H1313 0.930 . S
C1319 C1315 1.400 . S
C1319 C1318 1.385 . S
C1320 C1318 1.478 . S
C1320 C1322 1.381 . S
C1320 C1326 1.383 . S
C1321 C1317 1.495 . S
C1321 H1327 0.959 . S
C1321 H1328 0.961 . S
C1321 H1329 0.960 . S
C1322 C1320 1.381 . S
C1322 C1323 1.394 . S
C1322 H1330 0.930 . S
C1323 C1322 1.394 . S
C1323 C1324 1.383 . S
C1323 H1331 0.929 . S
C1324 C1323 1.383 . S
C1324 C1325 1.377 . S
C1325 H1309 0.930 . S
C1325 C1324 1.377 . S
C1325 C1326 1.379 . S
C1326 H1310 0.931 . S
C1326 C1320 1.383 . S
C1326 C1325 1.379 . S
H1327 C1321 0.959 . S
H1328 C1321 0.961 . S
H1329 C1321 0.960 . S
H1330 C1322 0.930 . S
H1331 C1323 0.929 . S
H1332 C1340 0.929 . S
H1333 C1342 0.930 . S
H1334 C1344 0.930 . S
H1335 C1347 0.929 . S
H1336 C1350 0.930 . S
H1337 C1352 0.960 . S
H1338 C1352 0.960 . S
H1339 C1352 0.960 . S
C1340 H1332 0.929 . S
C1340 C1341 1.377 . S
C1340 C1342 1.384 . S
C1341 C1340 1.377 . S
C1341 C1347 1.390 . S
C1342 H1333 0.930 . S
C1342 C1340 1.384 . S
C1342 C1343 1.372 . S
C1343 C1342 1.372 . S
C1343 C1344 1.400 . S
C1343 C1348 1.490 . S
C1344 H1334 0.930 . S
C1344 C1343 1.400 . S
C1344 C1347 1.386 . S
H1345 C1361 0.930 . S
H1346 C1362 0.931 . S
C1347 H1335 0.929 . S
C1347 C1341 1.390 . S
C1347 C1344 1.386 . S
C1348 C1343 1.490 . S
C1348 C1350 1.395 . S
C1348 C1351 1.403 . S
H1349 C1355 0.930 . S
C1350 H1336 0.930 . S
C1350 C1348 1.395 . S
C1350 C1353 1.403 . S
C1351 C1348 1.403 . S
C1351 C1352 1.524 . S
C1351 C1355 1.400 . S
C1352 H1337 0.960 . S
C1352 H1338 0.960 . S
C1352 H1339 0.960 . S
C1352 C1351 1.524 . S
C1353 C1350 1.403 . S
C1353 C1354 1.392 . S
C1353 C1357 1.495 . S
C1354 C1353 1.392 . S
C1354 C1355 1.385 . S
C1354 C1356 1.478 . S
C1355 H1349 0.930 . S
C1355 C1351 1.400 . S
C1355 C1354 1.385 . S
C1356 C1354 1.478 . S
C1356 C1358 1.381 . S
C1356 C1362 1.383 . S
C1357 C1353 1.495 . S
C1357 H1363 0.959 . S
C1357 H1364 0.961 . S
C1357 H1365 0.960 . S
C1358 C1356 1.381 . S
C1358 C1359 1.394 . S
C1358 H1366 0.930 . S
C1359 C1358 1.394 . S
C1359 C1360 1.383 . S
C1359 H1367 0.929 . S
C1360 C1359 1.383 . S
C1360 C1361 1.377 . S
C1361 H1345 0.930 . S
C1361 C1360 1.377 . S
C1361 C1362 1.379 . S
C1362 H1346 0.931 . S
C1362 C1356 1.383 . S
C1362 C1361 1.379 . S
H1363 C1357 0.959 . S
H1364 C1357 0.961 . S
H1365 C1357 0.960 . S
H1366 C1358 0.930 . S
H1367 C1359 0.929 . S
H1368 C1376 0.929 . S
H1369 C1378 0.930 . S
H1370 C1380 0.930 . S
H1371 C1383 0.929 . S
H1372 C1386 0.930 . S
H1373 C1388 0.960 . S
H1374 C1388 0.960 . S
H1375 C1388 0.960 . S
C1376 H1368 0.929 . S
C1376 C1377 1.377 . S
C1376 C1378 1.384 . S
C1377 C1376 1.377 . S
C1377 C1383 1.390 . S
C1378 H1369 0.930 . S
C1378 C1376 1.384 . S
C1378 C1379 1.372 . S
C1379 C1378 1.372 . S
C1379 C1380 1.400 . S
C1379 C1384 1.490 . S
C1380 H1370 0.930 . S
C1380 C1379 1.400 . S
C1380 C1383 1.386 . S
H1381 C1397 0.930 . S
H1382 C1398 0.931 . S
C1383 H1371 0.929 . S
C1383 C1377 1.390 . S
C1383 C1380 1.386 . S
C1384 C1379 1.490 . S
C1384 C1386 1.395 . S
C1384 C1387 1.403 . S
H1385 C1391 0.930 . S
C1386 H1372 0.930 . S
C1386 C1384 1.395 . S
C1386 C1389 1.403 . S
C1387 C1384 1.403 . S
C1387 C1388 1.524 . S
C1387 C1391 1.400 . S
C1388 H1373 0.960 . S
C1388 H1374 0.960 . S
C1388 H1375 0.960 . S
C1388 C1387 1.524 . S
C1389 C1386 1.403 . S
C1389 C1390 1.392 . S
C1389 C1393 1.495 . S
C1390 C1389 1.392 . S
C1390 C1391 1.385 . S
C1390 C1392 1.478 . S
C1391 H1385 0.930 . S
C1391 C1387 1.400 . S
C1391 C1390 1.385 . S
C1392 C1390 1.478 . S
C1392 C1394 1.381 . S
C1392 C1398 1.383 . S
C1393 C1389 1.495 . S
C1393 H1399 0.959 . S
C1393 H1400 0.961 . S
C1393 H1401 0.960 . S
C1394 C1392 1.381 . S
C1394 C1395 1.394 . S
C1394 H1402 0.930 . S
C1395 C1394 1.394 . S
C1395 C1396 1.383 . S
C1395 H1403 0.929 . S
C1396 C1395 1.383 . S
C1396 C1397 1.377 . S
C1397 H1381 0.930 . S
C1397 C1396 1.377 . S
C1397 C1398 1.379 . S
C1398 H1382 0.931 . S
C1398 C1392 1.383 . S
C1398 C1397 1.379 . S
H1399 C1393 0.959 . S
H1400 C1393 0.961 . S
H1401 C1393 0.960 . S
H1402 C1394 0.930 . S
H1403 C1395 0.929 . S
H1404 C1412 0.929 . S
H1405 C1414 0.930 . S
H1406 C1416 0.930 . S
H1407 C1419 0.929 . S
H1408 C1422 0.930 . S
H1409 C1424 0.960 . S
H1410 C1424 0.960 . S
H1411 C1424 0.960 . S
C1412 H1404 0.929 . S
C1412 C1413 1.377 . S
C1412 C1414 1.384 . S
C1413 C1412 1.377 . S
C1413 C1419 1.390 . S
C1414 H1405 0.930 . S
C1414 C1412 1.384 . S
C1414 C1415 1.372 . S
C1415 C1414 1.372 . S
C1415 C1416 1.400 . S
C1415 C1420 1.490 . S
C1416 H1406 0.930 . S
C1416 C1415 1.400 . S
C1416 C1419 1.386 . S
H1417 C1433 0.930 . S
H1418 C1434 0.931 . S
C1419 H1407 0.929 . S
C1419 C1413 1.390 . S
C1419 C1416 1.386 . S
C1420 C1415 1.490 . S
C1420 C1422 1.395 . S
C1420 C1423 1.403 . S
H1421 C1427 0.930 . S
C1422 H1408 0.930 . S
C1422 C1420 1.395 . S
C1422 C1425 1.403 . S
C1423 C1420 1.403 . S
C1423 C1424 1.524 . S
C1423 C1427 1.400 . S
C1424 H1409 0.960 . S
C1424 H1410 0.960 . S
C1424 H1411 0.960 . S
C1424 C1423 1.524 . S
C1425 C1422 1.403 . S
C1425 C1426 1.392 . S
C1425 C1429 1.495 . S
C1426 C1425 1.392 . S
C1426 C1427 1.385 . S
C1426 C1428 1.478 . S
C1427 H1421 0.930 . S
C1427 C1423 1.400 . S
C1427 C1426 1.385 . S
C1428 C1426 1.478 . S
C1428 C1430 1.381 . S
C1428 C1434 1.383 . S
C1429 C1425 1.495 . S
C1429 H1435 0.959 . S
C1429 H1436 0.961 . S
C1429 H1437 0.960 . S
C1430 C1428 1.381 . S
C1430 C1431 1.394 . S
C1430 H1438 0.930 . S
C1431 C1430 1.394 . S
C1431 C1432 1.383 . S
C1431 H1439 0.929 . S
C1432 C1431 1.383 . S
C1432 C1433 1.377 . S
C1433 H1417 0.930 . S
C1433 C1432 1.377 . S
C1433 C1434 1.379 . S
C1434 H1418 0.931 . S
C1434 C1428 1.383 . S
C1434 C1433 1.379 . S
H1435 C1429 0.959 . S
H1436 C1429 0.961 . S
H1437 C1429 0.960 . S
H1438 C1430 0.930 . S
H1439 C1431 0.929 . S
H1440 C1448 0.929 . S
H1441 C1450 0.930 . S
H1442 C1452 0.930 . S
H1443 C1455 0.929 . S
H1444 C1458 0.930 . S
H1445 C1460 0.960 . S
H1446 C1460 0.960 . S
H1447 C1460 0.960 . S
C1448 H1440 0.929 . S
C1448 C1449 1.377 . S
C1448 C1450 1.384 . S
C1449 C1448 1.377 . S
C1449 C1455 1.390 . S
C1450 H1441 0.930 . S
C1450 C1448 1.384 . S
C1450 C1451 1.372 . S
C1451 C1450 1.372 . S
C1451 C1452 1.400 . S
C1451 C1456 1.490 . S
C1452 H1442 0.930 . S
C1452 C1451 1.400 . S
C1452 C1455 1.386 . S
H1453 C1469 0.930 . S
H1454 C1470 0.931 . S
C1455 H1443 0.929 . S
C1455 C1449 1.390 . S
C1455 C1452 1.386 . S
C1456 C1451 1.490 . S
C1456 C1458 1.395 . S
C1456 C1459 1.403 . S
H1457 C1463 0.930 . S
C1458 H1444 0.930 . S
C1458 C1456 1.395 . S
C1458 C1461 1.403 . S
C1459 C1456 1.403 . S
C1459 C1460 1.524 . S
C1459 C1463 1.400 . S
C1460 H1445 0.960 . S
C1460 H1446 0.960 . S
C1460 H1447 0.960 . S
C1460 C1459 1.524 . S
C1461 C1458 1.403 . S
C1461 C1462 1.392 . S
C1461 C1465 1.495 . S
C1462 C1461 1.392 . S
C1462 C1463 1.385 . S
C1462 C1464 1.478 . S
C1463 H1457 0.930 . S
C1463 C1459 1.400 . S
C1463 C1462 1.385 . S
C1464 C1462 1.478 . S
C1464 C1466 1.381 . S
C1464 C1470 1.383 . S
C1465 C1461 1.495 . S
C1465 H1471 0.959 . S
C1465 H1472 0.961 . S
C1465 H1473 0.960 . S
C1466 C1464 1.381 . S
C1466 C1467 1.394 . S
C1466 H1474 0.930 . S
C1467 C1466 1.394 . S
C1467 C1468 1.383 . S
C1467 H1475 0.929 . S
C1468 C1467 1.383 . S
C1468 C1469 1.377 . S
C1469 H1453 0.930 . S
C1469 C1468 1.377 . S
C1469 C1470 1.379 . S
C1470 H1454 0.931 . S
C1470 C1464 1.383 . S
C1470 C1469 1.379 . S
H1471 C1465 0.959 . S
H1472 C1465 0.961 . S
H1473 C1465 0.960 . S
H1474 C1466 0.930 . S
H1475 C1467 0.929 . S
H1476 C1484 0.929 . S
H1477 C1486 0.930 . S
H1478 C1488 0.930 . S
H1479 C1491 0.929 . S
H1480 C1494 0.930 . S
H1481 C1496 0.960 . S
H1482 C1496 0.960 . S
H1483 C1496 0.960 . S
C1484 H1476 0.929 . S
C1484 C1485 1.377 1_455 S
C1484 C1486 1.384 . S
C1485 C1484 1.377 1_655 S
C1485 C1491 1.390 . S
C1486 H1477 0.930 . S
C1486 C1484 1.384 . S
C1486 C1487 1.372 1_455 S
C1487 C1486 1.372 1_655 S
C1487 C1488 1.400 . S
C1487 C1492 1.490 . S
C1488 H1478 0.930 . S
C1488 C1487 1.400 . S
C1488 C1491 1.386 . S
H1489 C1505 0.930 . S
H1490 C1506 0.931 . S
C1491 H1479 0.929 . S
C1491 C1485 1.390 . S
C1491 C1488 1.386 . S
C1492 C1487 1.490 . S
C1492 C1494 1.395 1_655 S
C1492 C1495 1.403 . S
H1493 C1499 0.930 . S
C1494 H1480 0.930 . S
C1494 C1492 1.395 1_455 S
C1494 C1497 1.403 1_554 S
C1495 C1492 1.403 . S
C1495 C1496 1.524 . S
C1495 C1499 1.400 1_554 S
C1496 H1481 0.960 . S
C1496 H1482 0.960 . S
C1496 H1483 0.960 . S
C1496 C1495 1.524 . S
C1497 C1494 1.403 1_556 S
C1497 C1498 1.392 . S
C1497 C1501 1.495 . S
C1498 C1497 1.392 . S
C1498 C1499 1.385 1_455 S
C1498 C1500 1.478 . S
C1499 H1493 0.930 . S
C1499 C1495 1.400 1_556 S
C1499 C1498 1.385 1_655 S
C1500 C1498 1.478 . S
C1500 C1502 1.381 . S
C1500 C1506 1.383 1_455 S
C1501 C1497 1.495 . S
C1501 H1507 0.959 . S
C1501 H1508 0.961 . S
C1501 H1509 0.960 . S
C1502 C1500 1.381 . S
C1502 C1503 1.394 . S
C1502 H1510 0.930 . S
C1503 C1502 1.394 . S
C1503 C1504 1.383 . S
C1503 H1511 0.929 . S
C1504 C1503 1.383 . S
C1504 C1505 1.377 1_455 S
C1505 H1489 0.930 . S
C1505 C1504 1.377 1_655 S
C1505 C1506 1.379 . S
C1506 H1490 0.931 . S
C1506 C1500 1.383 1_655 S
C1506 C1505 1.379 . S
H1507 C1501 0.959 . S
H1508 C1501 0.961 . S
H1509 C1501 0.960 . S
H1510 C1502 0.930 . S
H1511 C1503 0.929 . S
H1512 C1520 0.929 . S
H1513 C1522 0.930 . S
H1514 C1524 0.930 . S
H1515 C1527 0.929 . S
H1516 C1530 0.930 . S
H1517 C1532 0.960 . S
H1518 C1532 0.960 . S
H1519 C1532 0.960 . S
C1520 H1512 0.929 . S
C1520 C1521 1.377 . S
C1520 C1522 1.384 . S
C1521 C1520 1.377 . S
C1521 C1527 1.390 . S
C1522 H1513 0.930 . S
C1522 C1520 1.384 . S
C1522 C1523 1.372 . S
C1523 C1522 1.372 . S
C1523 C1524 1.400 . S
C1523 C1528 1.490 . S
C1524 H1514 0.930 . S
C1524 C1523 1.400 . S
C1524 C1527 1.386 . S
H1525 C1541 0.930 . S
H1526 C1542 0.931 . S
C1527 H1515 0.929 . S
C1527 C1521 1.390 . S
C1527 C1524 1.386 . S
C1528 C1523 1.490 . S
C1528 C1530 1.395 . S
C1528 C1531 1.403 . S
H1529 C1535 0.930 . S
C1530 H1516 0.930 . S
C1530 C1528 1.395 . S
C1530 C1533 1.403 1_556 S
C1531 C1528 1.403 . S
C1531 C1532 1.524 . S
C1531 C1535 1.400 1_556 S
C1532 H1517 0.960 . S
C1532 H1518 0.960 . S
C1532 H1519 0.960 . S
C1532 C1531 1.524 . S
C1533 C1530 1.403 1_554 S
C1533 C1534 1.392 . S
C1533 C1537 1.495 . S
C1534 C1533 1.392 . S
C1534 C1535 1.385 . S
C1534 C1536 1.478 . S
C1535 H1529 0.930 . S
C1535 C1531 1.400 1_554 S
C1535 C1534 1.385 . S
C1536 C1534 1.478 . S
C1536 C1538 1.381 . S
C1536 C1542 1.383 . S
C1537 C1533 1.495 . S
C1537 H1543 0.959 . S
C1537 H1544 0.961 . S
C1537 H1545 0.960 . S
C1538 C1536 1.381 . S
C1538 C1539 1.394 . S
C1538 H1546 0.930 . S
C1539 C1538 1.394 . S
C1539 C1540 1.383 . S
C1539 H1547 0.929 . S
C1540 C1539 1.383 . S
C1540 C1541 1.377 . S
C1541 H1525 0.930 . S
C1541 C1540 1.377 . S
C1541 C1542 1.379 . S
C1542 H1526 0.931 . S
C1542 C1536 1.383 . S
C1542 C1541 1.379 . S
H1543 C1537 0.959 . S
H1544 C1537 0.961 . S
H1545 C1537 0.960 . S
H1546 C1538 0.930 . S
H1547 C1539 0.929 . S
H1548 C1556 0.929 . S
H1549 C1558 0.930 1_545 S
H1550 C1560 0.930 . S
H1551 C1563 0.929 . S
H1552 C1566 0.930 . S
H1553 C1568 0.960 . S
H1554 C1568 0.960 . S
H1555 C1568 0.960 . S
C1556 H1548 0.929 . S
C1556 C1557 1.377 . S
C1556 C1558 1.384 . S
C1557 C1556 1.377 . S
C1557 C1563 1.390 . S
C1558 H1549 0.930 1_565 S
C1558 C1556 1.384 . S
C1558 C1559 1.372 . S
C1559 C1558 1.372 . S
C1559 C1560 1.400 . S
C1559 C1564 1.490 . S
C1560 H1550 0.930 . S
C1560 C1559 1.400 . S
C1560 C1563 1.386 . S
H1561 C1577 0.930 . S
H1562 C1578 0.931 . S
C1563 H1551 0.929 . S
C1563 C1557 1.390 . S
C1563 C1560 1.386 . S
C1564 C1559 1.490 . S
C1564 C1566 1.395 1_565 S
C1564 C1567 1.403 . S
H1565 C1571 0.930 . S
C1566 H1552 0.930 . S
C1566 C1564 1.395 1_545 S
C1566 C1569 1.403 1_556 S
C1567 C1564 1.403 . S
C1567 C1568 1.524 . S
C1567 C1571 1.400 1_556 S
C1568 H1553 0.960 . S
C1568 H1554 0.960 . S
C1568 H1555 0.960 . S
C1568 C1567 1.524 . S
C1569 C1566 1.403 1_554 S
C1569 C1570 1.392 . S
C1569 C1573 1.495 . S
C1570 C1569 1.392 . S
C1570 C1571 1.385 1_545 S
C1570 C1572 1.478 . S
C1571 H1565 0.930 . S
C1571 C1567 1.400 1_554 S
C1571 C1570 1.385 1_565 S
C1572 C1570 1.478 . S
C1572 C1574 1.381 . S
C1572 C1578 1.383 . S
C1573 C1569 1.495 . S
C1573 H1579 0.959 . S
C1573 H1580 0.961 . S
C1573 H1581 0.960 . S
C1574 C1572 1.381 . S
C1574 C1575 1.394 . S
C1574 H1582 0.930 . S
C1575 C1574 1.394 . S
C1575 C1576 1.383 . S
C1575 H1583 0.929 . S
C1576 C1575 1.383 . S
C1576 C1577 1.377 . S
C1577 H1561 0.930 . S
C1577 C1576 1.377 . S
C1577 C1578 1.379 . S
C1578 H1562 0.931 . S
C1578 C1572 1.383 . S
C1578 C1577 1.379 . S
H1579 C1573 0.959 . S
H1580 C1573 0.961 . S
H1581 C1573 0.960 . S
H1582 C1574 0.930 . S
H1583 C1575 0.929 . S
H1584 C1592 0.929 . S
H1585 C1594 0.930 . S
H1586 C1596 0.930 . S
H1587 C1599 0.929 . S
H1588 C1602 0.930 . S
H1589 C1604 0.960 . S
H1590 C1604 0.960 . S
H1591 C1604 0.960 . S
C1592 H1584 0.929 . S
C1592 C1593 1.377 . S
C1592 C1594 1.384 . S
C1593 C1592 1.377 . S
C1593 C1599 1.390 . S
C1594 H1585 0.930 . S
C1594 C1592 1.384 . S
C1594 C1595 1.372 . S
C1595 C1594 1.372 . S
C1595 C1596 1.400 . S
C1595 C1600 1.490 . S
C1596 H1586 0.930 . S
C1596 C1595 1.400 . S
C1596 C1599 1.386 . S
H1597 C1613 0.930 . S
H1598 C1614 0.931 . S
C1599 H1587 0.929 . S
C1599 C1593 1.390 . S
C1599 C1596 1.386 . S
C1600 C1595 1.490 . S
C1600 C1602 1.395 . S
C1600 C1603 1.403 . S
H1601 C1607 0.930 . S
C1602 H1588 0.930 . S
C1602 C1600 1.395 . S
C1602 C1605 1.403 . S
C1603 C1600 1.403 . S
C1603 C1604 1.524 . S
C1603 C1607 1.400 . S
C1604 H1589 0.960 . S
C1604 H1590 0.960 . S
C1604 H1591 0.960 . S
C1604 C1603 1.524 . S
C1605 C1602 1.403 . S
C1605 C1606 1.392 . S
C1605 C1609 1.495 . S
C1606 C1605 1.392 . S
C1606 C1607 1.385 . S
C1606 C1608 1.478 . S
C1607 H1601 0.930 . S
C1607 C1603 1.400 . S
C1607 C1606 1.385 . S
C1608 C1606 1.478 . S
C1608 C1610 1.381 . S
C1608 C1614 1.383 . S
C1609 C1605 1.495 . S
C1609 H1615 0.959 . S
C1609 H1616 0.961 . S
C1609 H1617 0.960 . S
C1610 C1608 1.381 . S
C1610 C1611 1.394 . S
C1610 H1618 0.930 . S
C1611 C1610 1.394 . S
C1611 C1612 1.383 . S
C1611 H1619 0.929 . S
C1612 C1611 1.383 . S
C1612 C1613 1.377 . S
C1613 H1597 0.930 . S
C1613 C1612 1.377 . S
C1613 C1614 1.379 . S
C1614 H1598 0.931 . S
C1614 C1608 1.383 . S
C1614 C1613 1.379 . S
H1615 C1609 0.959 . S
H1616 C1609 0.961 . S
H1617 C1609 0.960 . S
H1618 C1610 0.930 . S
H1619 C1611 0.929 . S
H1620 C1628 0.929 . S
H1621 C1630 0.930 . S
H1622 C1632 0.930 . S
H1623 C1635 0.929 . S
H1624 C1638 0.930 . S
H1625 C1640 0.960 . S
H1626 C1640 0.960 . S
H1627 C1640 0.960 . S
C1628 H1620 0.929 . S
C1628 C1629 1.377 . S
C1628 C1630 1.384 . S
C1629 C1628 1.377 . S
C1629 C1635 1.390 . S
C1630 H1621 0.930 . S
C1630 C1628 1.384 . S
C1630 C1631 1.372 . S
C1631 C1630 1.372 . S
C1631 C1632 1.400 . S
C1631 C1636 1.490 . S
C1632 H1622 0.930 . S
C1632 C1631 1.400 . S
C1632 C1635 1.386 . S
H1633 C1649 0.930 . S
H1634 C1650 0.931 . S
C1635 H1623 0.929 . S
C1635 C1629 1.390 . S
C1635 C1632 1.386 . S
C1636 C1631 1.490 . S
C1636 C1638 1.395 . S
C1636 C1639 1.403 . S
H1637 C1643 0.930 . S
C1638 H1624 0.930 . S
C1638 C1636 1.395 . S
C1638 C1641 1.403 . S
C1639 C1636 1.403 . S
C1639 C1640 1.524 . S
C1639 C1643 1.400 . S
C1640 H1625 0.960 . S
C1640 H1626 0.960 . S
C1640 H1627 0.960 . S
C1640 C1639 1.524 . S
C1641 C1638 1.403 . S
C1641 C1642 1.392 . S
C1641 C1645 1.495 . S
C1642 C1641 1.392 . S
C1642 C1643 1.385 . S
C1642 C1644 1.478 . S
C1643 H1637 0.930 . S
C1643 C1639 1.400 . S
C1643 C1642 1.385 . S
C1644 C1642 1.478 . S
C1644 C1646 1.381 . S
C1644 C1650 1.383 . S
C1645 C1641 1.495 . S
C1645 H1651 0.959 . S
C1645 H1652 0.961 . S
C1645 H1653 0.960 . S
C1646 C1644 1.381 . S
C1646 C1647 1.394 . S
C1646 H1654 0.930 . S
C1647 C1646 1.394 . S
C1647 C1648 1.383 . S
C1647 H1655 0.929 . S
C1648 C1647 1.383 . S
C1648 C1649 1.377 . S
C1649 H1633 0.930 . S
C1649 C1648 1.377 . S
C1649 C1650 1.379 . S
C1650 H1634 0.931 . S
C1650 C1644 1.383 . S
C1650 C1649 1.379 . S
H1651 C1645 0.959 . S
H1652 C1645 0.961 . S
H1653 C1645 0.960 . S
H1654 C1646 0.930 . S
H1655 C1647 0.929 . S
H1656 C1664 0.929 . S
H1657 C1666 0.930 . S
H1658 C1668 0.930 . S
H1659 C1671 0.929 . S
H1660 C1674 0.930 . S
H1661 C1676 0.960 . S
H1662 C1676 0.960 . S
H1663 C1676 0.960 . S
C1664 H1656 0.929 . S
C1664 C1665 1.377 . S
C1664 C1666 1.384 . S
C1665 C1664 1.377 . S
C1665 C1671 1.390 . S
C1666 H1657 0.930 . S
C1666 C1664 1.384 . S
C1666 C1667 1.372 . S
C1667 C1666 1.372 . S
C1667 C1668 1.400 . S
C1667 C1672 1.490 . S
C1668 H1658 0.930 . S
C1668 C1667 1.400 . S
C1668 C1671 1.386 . S
H1669 C1685 0.930 . S
H1670 C1686 0.931 . S
C1671 H1659 0.929 . S
C1671 C1665 1.390 . S
C1671 C1668 1.386 . S
C1672 C1667 1.490 . S
C1672 C1674 1.395 . S
C1672 C1675 1.403 . S
H1673 C1679 0.930 . S
C1674 H1660 0.930 . S
C1674 C1672 1.395 . S
C1674 C1677 1.403 . S
C1675 C1672 1.403 . S
C1675 C1676 1.524 . S
C1675 C1679 1.400 . S
C1676 H1661 0.960 . S
C1676 H1662 0.960 . S
C1676 H1663 0.960 . S
C1676 C1675 1.524 . S
C1677 C1674 1.403 . S
C1677 C1678 1.392 . S
C1677 C1681 1.495 . S
C1678 C1677 1.392 . S
C1678 C1679 1.385 . S
C1678 C1680 1.478 . S
C1679 H1673 0.930 . S
C1679 C1675 1.400 . S
C1679 C1678 1.385 . S
C1680 C1678 1.478 . S
C1680 C1682 1.381 . S
C1680 C1686 1.383 . S
C1681 C1677 1.495 . S
C1681 H1687 0.959 . S
C1681 H1688 0.961 . S
C1681 H1689 0.960 . S
C1682 C1680 1.381 . S
C1682 C1683 1.394 . S
C1682 H1690 0.930 . S
C1683 C1682 1.394 . S
C1683 C1684 1.383 . S
C1683 H1691 0.929 . S
C1684 C1683 1.383 . S
C1684 C1685 1.377 . S
C1685 H1669 0.930 . S
C1685 C1684 1.377 . S
C1685 C1686 1.379 . S
C1686 H1670 0.931 . S
C1686 C1680 1.383 . S
C1686 C1685 1.379 . S
H1687 C1681 0.959 . S
H1688 C1681 0.961 . S
H1689 C1681 0.960 . S
H1690 C1682 0.930 . S
H1691 C1683 0.929 . S
H1692 C1700 0.929 . S
H1693 C1702 0.930 . S
H1694 C1704 0.930 . S
H1695 C1707 0.929 . S
H1696 C1710 0.930 . S
H1697 C1712 0.960 . S
H1698 C1712 0.960 . S
H1699 C1712 0.960 . S
C1700 H1692 0.929 . S
C1700 C1701 1.377 . S
C1700 C1702 1.384 . S
C1701 C1700 1.377 . S
C1701 C1707 1.390 . S
C1702 H1693 0.930 . S
C1702 C1700 1.384 . S
C1702 C1703 1.372 . S
C1703 C1702 1.372 . S
C1703 C1704 1.400 . S
C1703 C1708 1.490 . S
C1704 H1694 0.930 . S
C1704 C1703 1.400 . S
C1704 C1707 1.386 . S
H1705 C1721 0.930 . S
H1706 C1722 0.931 . S
C1707 H1695 0.929 . S
C1707 C1701 1.390 . S
C1707 C1704 1.386 . S
C1708 C1703 1.490 . S
C1708 C1710 1.395 . S
C1708 C1711 1.403 . S
H1709 C1715 0.930 . S
C1710 H1696 0.930 . S
C1710 C1708 1.395 . S
C1710 C1713 1.403 . S
C1711 C1708 1.403 . S
C1711 C1712 1.524 . S
C1711 C1715 1.400 . S
C1712 H1697 0.960 . S
C1712 H1698 0.960 . S
C1712 H1699 0.960 . S
C1712 C1711 1.524 . S
C1713 C1710 1.403 . S
C1713 C1714 1.392 . S
C1713 C1717 1.495 . S
C1714 C1713 1.392 . S
C1714 C1715 1.385 . S
C1714 C1716 1.478 . S
C1715 H1709 0.930 . S
C1715 C1711 1.400 . S
C1715 C1714 1.385 . S
C1716 C1714 1.478 . S
C1716 C1718 1.381 . S
C1716 C1722 1.383 . S
C1717 C1713 1.495 . S
C1717 H1723 0.959 . S
C1717 H1724 0.961 . S
C1717 H1725 0.960 . S
C1718 C1716 1.381 . S
C1718 C1719 1.394 . S
C1718 H1726 0.930 . S
C1719 C1718 1.394 . S
C1719 C1720 1.383 . S
C1719 H1727 0.929 . S
C1720 C1719 1.383 . S
C1720 C1721 1.377 . S
C1721 H1705 0.930 . S
C1721 C1720 1.377 . S
C1721 C1722 1.379 . S
C1722 H1706 0.931 . S
C1722 C1716 1.383 . S
C1722 C1721 1.379 . S
H1723 C1717 0.959 . S
H1724 C1717 0.961 . S
H1725 C1717 0.960 . S
H1726 C1718 0.930 . S
H1727 C1719 0.929 . S
H1728 C1736 0.929 . S
H1729 C1738 0.930 . S
H1730 C1740 0.930 . S
H1731 C1743 0.929 . S
H1732 C1746 0.930 . S
H1733 C1748 0.960 . S
H1734 C1748 0.960 . S
H1735 C1748 0.960 . S
C1736 H1728 0.929 . S
C1736 C1737 1.377 . S
C1736 C1738 1.384 . S
C1737 C1736 1.377 . S
C1737 C1743 1.390 . S
C1738 H1729 0.930 . S
C1738 C1736 1.384 . S
C1738 C1739 1.372 . S
C1739 C1738 1.372 . S
C1739 C1740 1.400 . S
C1739 C1744 1.490 . S
C1740 H1730 0.930 . S
C1740 C1739 1.400 . S
C1740 C1743 1.386 . S
H1741 C1757 0.930 . S
H1742 C1758 0.931 . S
C1743 H1731 0.929 . S
C1743 C1737 1.390 . S
C1743 C1740 1.386 . S
C1744 C1739 1.490 . S
C1744 C1746 1.395 . S
C1744 C1747 1.403 . S
H1745 C1751 0.930 . S
C1746 H1732 0.930 . S
C1746 C1744 1.395 . S
C1746 C1749 1.403 . S
C1747 C1744 1.403 . S
C1747 C1748 1.524 . S
C1747 C1751 1.400 . S
C1748 H1733 0.960 . S
C1748 H1734 0.960 . S
C1748 H1735 0.960 . S
C1748 C1747 1.524 . S
C1749 C1746 1.403 . S
C1749 C1750 1.392 . S
C1749 C1753 1.495 . S
C1750 C1749 1.392 . S
C1750 C1751 1.385 . S
C1750 C1752 1.478 . S
C1751 H1745 0.930 . S
C1751 C1747 1.400 . S
C1751 C1750 1.385 . S
C1752 C1750 1.478 . S
C1752 C1754 1.381 . S
C1752 C1758 1.383 . S
C1753 C1749 1.495 . S
C1753 H1759 0.959 . S
C1753 H1760 0.961 . S
C1753 H1761 0.960 . S
C1754 C1752 1.381 . S
C1754 C1755 1.394 . S
C1754 H1762 0.930 . S
C1755 C1754 1.394 . S
C1755 C1756 1.383 . S
C1755 H1763 0.929 . S
C1756 C1755 1.383 . S
C1756 C1757 1.377 . S
C1757 H1741 0.930 . S
C1757 C1756 1.377 . S
C1757 C1758 1.379 . S
C1758 H1742 0.931 . S
C1758 C1752 1.383 . S
C1758 C1757 1.379 . S
H1759 C1753 0.959 . S
H1760 C1753 0.961 . S
H1761 C1753 0.960 . S
H1762 C1754 0.930 . S
H1763 C1755 0.929 . S
H1764 C1772 0.929 . S
H1765 C1774 0.930 . S
H1766 C1776 0.930 . S
H1767 C1779 0.929 . S
H1768 C1782 0.930 . S
H1769 C1784 0.960 . S
H1770 C1784 0.960 . S
H1771 C1784 0.960 . S
C1772 H1764 0.929 . S
C1772 C1773 1.377 . S
C1772 C1774 1.384 . S
C1773 C1772 1.377 . S
C1773 C1779 1.390 . S
C1774 H1765 0.930 . S
C1774 C1772 1.384 . S
C1774 C1775 1.372 . S
C1775 C1774 1.372 . S
C1775 C1776 1.400 . S
C1775 C1780 1.490 . S
C1776 H1766 0.930 . S
C1776 C1775 1.400 . S
C1776 C1779 1.386 . S
H1777 C1793 0.930 . S
H1778 C1794 0.931 . S
C1779 H1767 0.929 . S
C1779 C1773 1.390 . S
C1779 C1776 1.386 . S
C1780 C1775 1.490 . S
C1780 C1782 1.395 . S
C1780 C1783 1.403 . S
H1781 C1787 0.930 . S
C1782 H1768 0.930 . S
C1782 C1780 1.395 . S
C1782 C1785 1.403 . S
C1783 C1780 1.403 . S
C1783 C1784 1.524 . S
C1783 C1787 1.400 . S
C1784 H1769 0.960 . S
C1784 H1770 0.960 . S
C1784 H1771 0.960 . S
C1784 C1783 1.524 . S
C1785 C1782 1.403 . S
C1785 C1786 1.392 . S
C1785 C1789 1.495 . S
C1786 C1785 1.392 . S
C1786 C1787 1.385 . S
C1786 C1788 1.478 . S
C1787 H1781 0.930 . S
C1787 C1783 1.400 . S
C1787 C1786 1.385 . S
C1788 C1786 1.478 . S
C1788 C1790 1.381 . S
C1788 C1794 1.383 . S
C1789 C1785 1.495 . S
C1789 H1795 0.959 . S
C1789 H1796 0.961 . S
C1789 H1797 0.960 . S
C1790 C1788 1.381 . S
C1790 C1791 1.394 . S
C1790 H1798 0.930 . S
C1791 C1790 1.394 . S
C1791 C1792 1.383 . S
C1791 H1799 0.929 . S
C1792 C1791 1.383 . S
C1792 C1793 1.377 . S
C1793 H1777 0.930 . S
C1793 C1792 1.377 . S
C1793 C1794 1.379 . S
C1794 H1778 0.931 . S
C1794 C1788 1.383 . S
C1794 C1793 1.379 . S
H1795 C1789 0.959 . S
H1796 C1789 0.961 . S
H1797 C1789 0.960 . S
H1798 C1790 0.930 . S
H1799 C1791 0.929 . S
H1800 C1808 0.929 . S
H1801 C1810 0.930 . S
H1802 C1812 0.930 . S
H1803 C1815 0.929 . S
H1804 C1818 0.930 . S
H1805 C1820 0.960 . S
H1806 C1820 0.960 . S
H1807 C1820 0.960 . S
C1808 H1800 0.929 . S
C1808 C1809 1.377 . S
C1808 C1810 1.384 . S
C1809 C1808 1.377 . S
C1809 C1815 1.390 . S
C1810 H1801 0.930 . S
C1810 C1808 1.384 . S
C1810 C1811 1.372 . S
C1811 C1810 1.372 . S
C1811 C1812 1.400 . S
C1811 C1816 1.490 . S
C1812 H1802 0.930 . S
C1812 C1811 1.400 . S
C1812 C1815 1.386 . S
H1813 C1829 0.930 . S
H1814 C1830 0.931 . S
C1815 H1803 0.929 . S
C1815 C1809 1.390 . S
C1815 C1812 1.386 . S
C1816 C1811 1.490 . S
C1816 C1818 1.395 . S
C1816 C1819 1.403 . S
H1817 C1823 0.930 . S
C1818 H1804 0.930 . S
C1818 C1816 1.395 . S
C1818 C1821 1.403 . S
C1819 C1816 1.403 . S
C1819 C1820 1.524 . S
C1819 C1823 1.400 . S
C1820 H1805 0.960 . S
C1820 H1806 0.960 . S
C1820 H1807 0.960 . S
C1820 C1819 1.524 . S
C1821 C1818 1.403 . S
C1821 C1822 1.392 . S
C1821 C1825 1.495 . S
C1822 C1821 1.392 . S
C1822 C1823 1.385 . S
C1822 C1824 1.478 . S
C1823 H1817 0.930 . S
C1823 C1819 1.400 . S
C1823 C1822 1.385 . S
C1824 C1822 1.478 . S
C1824 C1826 1.381 . S
C1824 C1830 1.383 . S
C1825 C1821 1.495 . S
C1825 H1831 0.959 . S
C1825 H1832 0.961 . S
C1825 H1833 0.960 . S
C1826 C1824 1.381 . S
C1826 C1827 1.394 . S
C1826 H1834 0.930 . S
C1827 C1826 1.394 . S
C1827 C1828 1.383 . S
C1827 H1835 0.929 . S
C1828 C1827 1.383 . S
C1828 C1829 1.377 . S
C1829 H1813 0.930 . S
C1829 C1828 1.377 . S
C1829 C1830 1.379 . S
C1830 H1814 0.931 . S
C1830 C1824 1.383 . S
C1830 C1829 1.379 . S
H1831 C1825 0.959 . S
H1832 C1825 0.961 . S
H1833 C1825 0.960 . S
H1834 C1826 0.930 . S
H1835 C1827 0.929 . S
H1836 C1844 0.929 . S
H1837 C1846 0.930 . S
H1838 C1848 0.930 . S
H1839 C1851 0.929 . S
H1840 C1854 0.930 . S
H1841 C1856 0.960 . S
H1842 C1856 0.960 . S
H1843 C1856 0.960 . S
C1844 H1836 0.929 . S
C1844 C1845 1.377 . S
C1844 C1846 1.384 . S
C1845 C1844 1.377 . S
C1845 C1851 1.390 . S
C1846 H1837 0.930 . S
C1846 C1844 1.384 . S
C1846 C1847 1.372 . S
C1847 C1846 1.372 . S
C1847 C1848 1.400 . S
C1847 C1852 1.490 . S
C1848 H1838 0.930 . S
C1848 C1847 1.400 . S
C1848 C1851 1.386 . S
H1849 C1865 0.930 . S
H1850 C1866 0.931 . S
C1851 H1839 0.929 . S
C1851 C1845 1.390 . S
C1851 C1848 1.386 . S
C1852 C1847 1.490 . S
C1852 C1854 1.395 . S
C1852 C1855 1.403 . S
H1853 C1859 0.930 . S
C1854 H1840 0.930 . S
C1854 C1852 1.395 . S
C1854 C1857 1.403 . S
C1855 C1852 1.403 . S
C1855 C1856 1.524 . S
C1855 C1859 1.400 . S
C1856 H1841 0.960 . S
C1856 H1842 0.960 . S
C1856 H1843 0.960 . S
C1856 C1855 1.524 . S
C1857 C1854 1.403 . S
C1857 C1858 1.392 . S
C1857 C1861 1.495 . S
C1858 C1857 1.392 . S
C1858 C1859 1.385 . S
C1858 C1860 1.478 . S
C1859 H1853 0.930 . S
C1859 C1855 1.400 . S
C1859 C1858 1.385 . S
C1860 C1858 1.478 . S
C1860 C1862 1.381 . S
C1860 C1866 1.383 . S
C1861 C1857 1.495 . S
C1861 H1867 0.959 . S
C1861 H1868 0.961 . S
C1861 H1869 0.960 . S
C1862 C1860 1.381 . S
C1862 C1863 1.394 . S
C1862 H1870 0.930 . S
C1863 C1862 1.394 . S
C1863 C1864 1.383 . S
C1863 H1871 0.929 . S
C1864 C1863 1.383 . S
C1864 C1865 1.377 . S
C1865 H1849 0.930 . S
C1865 C1864 1.377 . S
C1865 C1866 1.379 . S
C1866 H1850 0.931 . S
C1866 C1860 1.383 . S
C1866 C1865 1.379 . S
H1867 C1861 0.959 . S
H1868 C1861 0.961 . S
H1869 C1861 0.960 . S
H1870 C1862 0.930 . S
H1871 C1863 0.929 . S
H1872 C1880 0.929 . S
H1873 C1882 0.930 . S
H1874 C1884 0.930 . S
H1875 C1887 0.929 . S
H1876 C1890 0.930 . S
H1877 C1892 0.960 . S
H1878 C1892 0.960 . S
H1879 C1892 0.960 . S
C1880 H1872 0.929 . S
C1880 C1881 1.377 . S
C1880 C1882 1.384 . S
C1881 C1880 1.377 . S
C1881 C1887 1.390 . S
C1882 H1873 0.930 . S
C1882 C1880 1.384 . S
C1882 C1883 1.372 . S
C1883 C1882 1.372 . S
C1883 C1884 1.400 . S
C1883 C1888 1.490 . S
C1884 H1874 0.930 . S
C1884 C1883 1.400 . S
C1884 C1887 1.386 . S
H1885 C1901 0.930 . S
H1886 C1902 0.931 . S
C1887 H1875 0.929 . S
C1887 C1881 1.390 . S
C1887 C1884 1.386 . S
C1888 C1883 1.490 . S
C1888 C1890 1.395 . S
C1888 C1891 1.403 . S
H1889 C1895 0.930 . S
C1890 H1876 0.930 . S
C1890 C1888 1.395 . S
C1890 C1893 1.403 . S
C1891 C1888 1.403 . S
C1891 C1892 1.524 . S
C1891 C1895 1.400 . S
C1892 H1877 0.960 . S
C1892 H1878 0.960 . S
C1892 H1879 0.960 . S
C1892 C1891 1.524 . S
C1893 C1890 1.403 . S
C1893 C1894 1.392 . S
C1893 C1897 1.495 . S
C1894 C1893 1.392 . S
C1894 C1895 1.385 . S
C1894 C1896 1.478 . S
C1895 H1889 0.930 . S
C1895 C1891 1.400 . S
C1895 C1894 1.385 . S
C1896 C1894 1.478 . S
C1896 C1898 1.381 . S
C1896 C1902 1.383 . S
C1897 C1893 1.495 . S
C1897 H1903 0.959 . S
C1897 H1904 0.961 . S
C1897 H1905 0.960 . S
C1898 C1896 1.381 . S
C1898 C1899 1.394 . S
C1898 H1906 0.930 . S
C1899 C1898 1.394 . S
C1899 C1900 1.383 . S
C1899 H1907 0.929 . S
C1900 C1899 1.383 . S
C1900 C1901 1.377 . S
C1901 H1885 0.930 . S
C1901 C1900 1.377 . S
C1901 C1902 1.379 . S
C1902 H1886 0.931 . S
C1902 C1896 1.383 . S
C1902 C1901 1.379 . S
H1903 C1897 0.959 . S
H1904 C1897 0.961 . S
H1905 C1897 0.960 . S
H1906 C1898 0.930 . S
H1907 C1899 0.929 . S
H1908 C1916 0.929 . S
H1909 C1918 0.930 . S
H1910 C1920 0.930 . S
H1911 C1923 0.929 . S
H1912 C1926 0.930 . S
H1913 C1928 0.960 . S
H1914 C1928 0.960 . S
H1915 C1928 0.960 . S
C1916 H1908 0.929 . S
C1916 C1917 1.377 . S
C1916 C1918 1.384 . S
C1917 C1916 1.377 . S
C1917 C1923 1.390 . S
C1918 H1909 0.930 . S
C1918 C1916 1.384 . S
C1918 C1919 1.372 . S
C1919 C1918 1.372 . S
C1919 C1920 1.400 . S
C1919 C1924 1.490 . S
C1920 H1910 0.930 . S
C1920 C1919 1.400 . S
C1920 C1923 1.386 . S
H1921 C1937 0.930 . S
H1922 C1938 0.931 . S
C1923 H1911 0.929 . S
C1923 C1917 1.390 . S
C1923 C1920 1.386 . S
C1924 C1919 1.490 . S
C1924 C1926 1.395 . S
C1924 C1927 1.403 . S
H1925 C1931 0.930 . S
C1926 H1912 0.930 . S
C1926 C1924 1.395 . S
C1926 C1929 1.403 . S
C1927 C1924 1.403 . S
C1927 C1928 1.524 . S
C1927 C1931 1.400 . S
C1928 H1913 0.960 . S
C1928 H1914 0.960 . S
C1928 H1915 0.960 . S
C1928 C1927 1.524 . S
C1929 C1926 1.403 . S
C1929 C1930 1.392 . S
C1929 C1933 1.495 . S
C1930 C1929 1.392 . S
C1930 C1931 1.385 . S
C1930 C1932 1.478 . S
C1931 H1925 0.930 . S
C1931 C1927 1.400 . S
C1931 C1930 1.385 . S
C1932 C1930 1.478 . S
C1932 C1934 1.381 . S
C1932 C1938 1.383 . S
C1933 C1929 1.495 . S
C1933 H1939 0.959 . S
C1933 H1940 0.961 . S
C1933 H1941 0.960 . S
C1934 C1932 1.381 . S
C1934 C1935 1.394 . S
C1934 H1942 0.930 . S
C1935 C1934 1.394 . S
C1935 C1936 1.383 . S
C1935 H1943 0.929 . S
C1936 C1935 1.383 . S
C1936 C1937 1.377 . S
C1937 H1921 0.930 . S
C1937 C1936 1.377 . S
C1937 C1938 1.379 . S
C1938 H1922 0.931 . S
C1938 C1932 1.383 . S
C1938 C1937 1.379 . S
H1939 C1933 0.959 . S
H1940 C1933 0.961 . S
H1941 C1933 0.960 . S
H1942 C1934 0.930 . S
H1943 C1935 0.929 . S
H1944 C1952 0.929 . S
H1945 C1954 0.930 . S
H1946 C1956 0.930 . S
H1947 C1959 0.929 . S
H1948 C1962 0.930 . S
H1949 C1964 0.960 . S
H1950 C1964 0.960 . S
H1951 C1964 0.960 . S
C1952 H1944 0.929 . S
C1952 C1953 1.377 . S
C1952 C1954 1.384 . S
C1953 C1952 1.377 . S
C1953 C1959 1.390 . S
C1954 H1945 0.930 . S
C1954 C1952 1.384 . S
C1954 C1955 1.372 . S
C1955 C1954 1.372 . S
C1955 C1956 1.400 . S
C1955 C1960 1.490 . S
C1956 H1946 0.930 . S
C1956 C1955 1.400 . S
C1956 C1959 1.386 . S
H1957 C1973 0.930 . S
H1958 C1974 0.931 . S
C1959 H1947 0.929 . S
C1959 C1953 1.390 . S
C1959 C1956 1.386 . S
C1960 C1955 1.490 . S
C1960 C1962 1.395 . S
C1960 C1963 1.403 . S
H1961 C1967 0.930 . S
C1962 H1948 0.930 . S
C1962 C1960 1.395 . S
C1962 C1965 1.403 . S
C1963 C1960 1.403 . S
C1963 C1964 1.524 . S
C1963 C1967 1.400 . S
C1964 H1949 0.960 . S
C1964 H1950 0.960 . S
C1964 H1951 0.960 . S
C1964 C1963 1.524 . S
C1965 C1962 1.403 . S
C1965 C1966 1.392 . S
C1965 C1969 1.495 . S
C1966 C1965 1.392 . S
C1966 C1967 1.385 . S
C1966 C1968 1.478 . S
C1967 H1961 0.930 . S
C1967 C1963 1.400 . S
C1967 C1966 1.385 . S
C1968 C1966 1.478 . S
C1968 C1970 1.381 . S
C1968 C1974 1.383 . S
C1969 C1965 1.495 . S
C1969 H1975 0.959 . S
C1969 H1976 0.961 . S
C1969 H1977 0.960 . S
C1970 C1968 1.381 . S
C1970 C1971 1.394 . S
C1970 H1978 0.930 . S
C1971 C1970 1.394 . S
C1971 C1972 1.383 . S
C1971 H1979 0.929 . S
C1972 C1971 1.383 . S
C1972 C1973 1.377 . S
C1973 H1957 0.930 . S
C1973 C1972 1.377 . S
C1973 C1974 1.379 . S
C1974 H1958 0.931 . S
C1974 C1968 1.383 . S
C1974 C1973 1.379 . S
H1975 C1969 0.959 . S
H1976 C1969 0.961 . S
H1977 C1969 0.960 . S
H1978 C1970 0.930 . S
H1979 C1971 0.929 . S
H1980 C1988 0.929 . S
H1981 C1990 0.930 . S
H1982 C1992 0.930 . S
H1983 C1995 0.929 . S
H1984 C1998 0.930 . S
H1985 C2000 0.960 . S
H1986 C2000 0.960 . S
H1987 C2000 0.960 . S
C1988 H1980 0.929 . S
C1988 C1989 1.377 . S
C1988 C1990 1.384 . S
C1989 C1988 1.377 . S
C1989 C1995 1.390 . S
C1990 H1981 0.930 . S
C1990 C1988 1.384 . S
C1990 C1991 1.372 . S
C1991 C1990 1.372 . S
C1991 C1992 1.400 . S
C1991 C1996 1.490 . S
C1992 H1982 0.930 . S
C1992 C1991 1.400 . S
C1992 C1995 1.386 . S
H1993 C2009 0.930 . S
H1994 C2010 0.931 . S
C1995 H1983 0.929 . S
C1995 C1989 1.390 . S
C1995 C1992 1.386 . S
C1996 C1991 1.490 . S
C1996 C1998 1.395 . S
C1996 C1999 1.403 . S
H1997 C2003 0.930 . S
C1998 H1984 0.930 . S
C1998 C1996 1.395 . S
C1998 C2001 1.403 . S
C1999 C1996 1.403 . S
C1999 C2000 1.524 . S
C1999 C2003 1.400 . S
C2000 H1985 0.960 . S
C2000 H1986 0.960 . S
C2000 H1987 0.960 . S
C2000 C1999 1.524 . S
C2001 C1998 1.403 . S
C2001 C2002 1.392 . S
C2001 C2005 1.495 . S
C2002 C2001 1.392 . S
C2002 C2003 1.385 . S
C2002 C2004 1.478 . S
C2003 H1997 0.930 . S
C2003 C1999 1.400 . S
C2003 C2002 1.385 . S
C2004 C2002 1.478 . S
C2004 C2006 1.381 . S
C2004 C2010 1.383 . S
C2005 C2001 1.495 . S
C2005 H2011 0.959 . S
C2005 H2012 0.961 . S
C2005 H2013 0.960 . S
C2006 C2004 1.381 . S
C2006 C2007 1.394 . S
C2006 H2014 0.930 . S
C2007 C2006 1.394 . S
C2007 C2008 1.383 . S
C2007 H2015 0.929 . S
C2008 C2007 1.383 . S
C2008 C2009 1.377 . S
C2009 H1993 0.930 . S
C2009 C2008 1.377 . S
C2009 C2010 1.379 . S
C2010 H1994 0.931 . S
C2010 C2004 1.383 . S
C2010 C2009 1.379 . S
H2011 C2005 0.959 . S
H2012 C2005 0.961 . S
H2013 C2005 0.960 . S
H2014 C2006 0.930 . S
H2015 C2007 0.929 . S
H2016 C2024 0.929 . S
H2017 C2026 0.930 . S
H2018 C2028 0.930 . S
H2019 C2031 0.929 . S
H2020 C2034 0.930 . S
H2021 C2036 0.960 . S
H2022 C2036 0.960 . S
H2023 C2036 0.960 . S
C2024 H2016 0.929 . S
C2024 C2025 1.377 . S
C2024 C2026 1.384 . S
C2025 C2024 1.377 . S
C2025 C2031 1.390 . S
C2026 H2017 0.930 . S
C2026 C2024 1.384 . S
C2026 C2027 1.372 . S
C2027 C2026 1.372 . S
C2027 C2028 1.400 . S
C2027 C2032 1.490 . S
C2028 H2018 0.930 . S
C2028 C2027 1.400 . S
C2028 C2031 1.386 . S
H2029 C2045 0.930 . S
H2030 C2046 0.931 . S
C2031 H2019 0.929 . S
C2031 C2025 1.390 . S
C2031 C2028 1.386 . S
C2032 C2027 1.490 . S
C2032 C2034 1.395 . S
C2032 C2035 1.403 . S
H2033 C2039 0.930 . S
C2034 H2020 0.930 . S
C2034 C2032 1.395 . S
C2034 C2037 1.403 1_455 S
C2035 C2032 1.403 . S
C2035 C2036 1.524 . S
C2035 C2039 1.400 1_455 S
C2036 H2021 0.960 . S
C2036 H2022 0.960 . S
C2036 H2023 0.960 . S
C2036 C2035 1.524 . S
C2037 C2034 1.403 1_655 S
C2037 C2038 1.392 . S
C2037 C2041 1.495 . S
C2038 C2037 1.392 . S
C2038 C2039 1.385 . S
C2038 C2040 1.478 . S
C2039 H2033 0.930 . S
C2039 C2035 1.400 1_655 S
C2039 C2038 1.385 . S
C2040 C2038 1.478 . S
C2040 C2042 1.381 . S
C2040 C2046 1.383 . S
C2041 C2037 1.495 . S
C2041 H2047 0.959 . S
C2041 H2048 0.961 . S
C2041 H2049 0.960 . S
C2042 C2040 1.381 . S
C2042 C2043 1.394 . S
C2042 H2050 0.930 . S
C2043 C2042 1.394 . S
C2043 C2044 1.383 . S
C2043 H2051 0.929 . S
C2044 C2043 1.383 . S
C2044 C2045 1.377 . S
C2045 H2029 0.930 . S
C2045 C2044 1.377 . S
C2045 C2046 1.379 . S
C2046 H2030 0.931 . S
C2046 C2040 1.383 . S
C2046 C2045 1.379 . S
H2047 C2041 0.959 . S
H2048 C2041 0.961 . S
H2049 C2041 0.960 . S
H2050 C2042 0.930 . S
H2051 C2043 0.929 . S
H2052 C2060 0.929 . S
H2053 C2062 0.930 . S
H2054 C2064 0.930 . S
H2055 C2067 0.929 . S
H2056 C2070 0.930 . S
H2057 C2072 0.960 . S
H2058 C2072 0.960 . S
H2059 C2072 0.960 . S
C2060 H2052 0.929 . S
C2060 C2061 1.377 . S
C2060 C2062 1.384 . S
C2061 C2060 1.377 . S
C2061 C2067 1.390 . S
C2062 H2053 0.930 . S
C2062 C2060 1.384 . S
C2062 C2063 1.372 . S
C2063 C2062 1.372 . S
C2063 C2064 1.400 . S
C2063 C2068 1.490 . S
C2064 H2054 0.930 . S
C2064 C2063 1.400 . S
C2064 C2067 1.386 . S
H2065 C2081 0.930 . S
H2066 C2082 0.931 . S
C2067 H2055 0.929 . S
C2067 C2061 1.390 . S
C2067 C2064 1.386 . S
C2068 C2063 1.490 . S
C2068 C2070 1.395 . S
C2068 C2071 1.403 . S
H2069 C2075 0.930 . S
C2070 H2056 0.930 . S
C2070 C2068 1.395 . S
C2070 C2073 1.403 . S
C2071 C2068 1.403 . S
C2071 C2072 1.524 . S
C2071 C2075 1.400 . S
C2072 H2057 0.960 . S
C2072 H2058 0.960 . S
C2072 H2059 0.960 . S
C2072 C2071 1.524 . S
C2073 C2070 1.403 . S
C2073 C2074 1.392 . S
C2073 C2077 1.495 . S
C2074 C2073 1.392 . S
C2074 C2075 1.385 . S
C2074 C2076 1.478 . S
C2075 H2069 0.930 . S
C2075 C2071 1.400 . S
C2075 C2074 1.385 . S
C2076 C2074 1.478 . S
C2076 C2078 1.381 . S
C2076 C2082 1.383 . S
C2077 C2073 1.495 . S
C2077 H2083 0.959 . S
C2077 H2084 0.961 . S
C2077 H2085 0.960 . S
C2078 C2076 1.381 . S
C2078 C2079 1.394 . S
C2078 H2086 0.930 . S
C2079 C2078 1.394 . S
C2079 C2080 1.383 . S
C2079 H2087 0.929 . S
C2080 C2079 1.383 . S
C2080 C2081 1.377 . S
C2081 H2065 0.930 . S
C2081 C2080 1.377 . S
C2081 C2082 1.379 . S
C2082 H2066 0.931 . S
C2082 C2076 1.383 . S
C2082 C2081 1.379 . S
H2083 C2077 0.959 . S
H2084 C2077 0.961 . S
H2085 C2077 0.960 . S
H2086 C2078 0.930 . S
H2087 C2079 0.929 . S
H2088 C2096 0.929 . S
H2089 C2098 0.930 . S
H2090 C2100 0.930 . S
H2091 C2103 0.929 . S
H2092 C2106 0.930 . S
H2093 C2108 0.960 . S
H2094 C2108 0.960 . S
H2095 C2108 0.960 . S
C2096 H2088 0.929 . S
C2096 C2097 1.377 . S
C2096 C2098 1.384 . S
C2097 C2096 1.377 . S
C2097 C2103 1.390 . S
C2098 H2089 0.930 . S
C2098 C2096 1.384 . S
C2098 C2099 1.372 . S
C2099 C2098 1.372 . S
C2099 C2100 1.400 . S
C2099 C2104 1.490 . S
C2100 H2090 0.930 . S
C2100 C2099 1.400 . S
C2100 C2103 1.386 . S
H2101 C2117 0.930 . S
H2102 C2118 0.931 . S
C2103 H2091 0.929 . S
C2103 C2097 1.390 . S
C2103 C2100 1.386 . S
C2104 C2099 1.490 . S
C2104 C2106 1.395 . S
C2104 C2107 1.403 . S
H2105 C2111 0.930 . S
C2106 H2092 0.930 . S
C2106 C2104 1.395 . S
C2106 C2109 1.403 1_565 S
C2107 C2104 1.403 . S
C2107 C2108 1.524 . S
C2107 C2111 1.400 1_565 S
C2108 H2093 0.960 . S
C2108 H2094 0.960 . S
C2108 H2095 0.960 . S
C2108 C2107 1.524 . S
C2109 C2106 1.403 1_545 S
C2109 C2110 1.392 . S
C2109 C2113 1.495 . S
C2110 C2109 1.392 . S
C2110 C2111 1.385 . S
C2110 C2112 1.478 . S
C2111 H2105 0.930 . S
C2111 C2107 1.400 1_545 S
C2111 C2110 1.385 . S
C2112 C2110 1.478 . S
C2112 C2114 1.381 . S
C2112 C2118 1.383 . S
C2113 C2109 1.495 . S
C2113 H2119 0.959 . S
C2113 H2120 0.961 . S
C2113 H2121 0.960 . S
C2114 C2112 1.381 . S
C2114 C2115 1.394 . S
C2114 H2122 0.930 . S
C2115 C2114 1.394 . S
C2115 C2116 1.383 . S
C2115 H2123 0.929 . S
C2116 C2115 1.383 . S
C2116 C2117 1.377 . S
C2117 H2101 0.930 . S
C2117 C2116 1.377 . S
C2117 C2118 1.379 . S
C2118 H2102 0.931 . S
C2118 C2112 1.383 . S
C2118 C2117 1.379 . S
H2119 C2113 0.959 . S
H2120 C2113 0.961 . S
H2121 C2113 0.960 . S
H2122 C2114 0.930 . S
H2123 C2115 0.929 . S
H2124 C2132 0.929 . S
H2125 C2134 0.930 . S
H2126 C2136 0.930 . S
H2127 C2139 0.929 . S
H2128 C2142 0.930 . S
H2129 C2144 0.960 1_545 S
H2130 C2144 0.960 . S
H2131 C2144 0.960 . S
C2132 H2124 0.929 . S
C2132 C2133 1.377 . S
C2132 C2134 1.384 . S
C2133 C2132 1.377 . S
C2133 C2139 1.390 . S
C2134 H2125 0.930 . S
C2134 C2132 1.384 . S
C2134 C2135 1.372 . S
C2135 C2134 1.372 . S
C2135 C2136 1.400 . S
C2135 C2140 1.490 . S
C2136 H2126 0.930 . S
C2136 C2135 1.400 . S
C2136 C2139 1.386 . S
H2137 C2153 0.930 . S
H2138 C2154 0.931 . S
C2139 H2127 0.929 . S
C2139 C2133 1.390 . S
C2139 C2136 1.386 . S
C2140 C2135 1.490 . S
C2140 C2142 1.395 . S
C2140 C2143 1.403 . S
H2141 C2147 0.930 . S
C2142 H2128 0.930 . S
C2142 C2140 1.395 . S
C2142 C2145 1.403 1_565 S
C2143 C2140 1.403 . S
C2143 C2144 1.524 . S
C2143 C2147 1.400 1_565 S
C2144 H2129 0.960 1_565 S
C2144 H2130 0.960 . S
C2144 H2131 0.960 . S
C2144 C2143 1.524 . S
C2145 C2142 1.403 1_545 S
C2145 C2146 1.392 . S
C2145 C2149 1.495 . S
C2146 C2145 1.392 . S
C2146 C2147 1.385 . S
C2146 C2148 1.478 . S
C2147 H2141 0.930 . S
C2147 C2143 1.400 1_545 S
C2147 C2146 1.385 . S
C2148 C2146 1.478 . S
C2148 C2150 1.381 . S
C2148 C2154 1.383 . S
C2149 C2145 1.495 . S
C2149 H2155 0.959 1_545 S
C2149 H2156 0.961 . S
C2149 H2157 0.960 . S
C2150 C2148 1.381 . S
C2150 C2151 1.394 . S
C2150 H2158 0.930 . S
C2151 C2150 1.394 . S
C2151 C2152 1.383 . S
C2151 H2159 0.929 . S
C2152 C2151 1.383 . S
C2152 C2153 1.377 . S
C2153 H2137 0.930 . S
C2153 C2152 1.377 . S
C2153 C2154 1.379 . S
C2154 H2138 0.931 . S
C2154 C2148 1.383 . S
C2154 C2153 1.379 . S
H2155 C2149 0.959 1_565 S
H2156 C2149 0.961 . S
H2157 C2149 0.960 . S
H2158 C2150 0.930 . S
H2159 C2151 0.929 . S
H2160 C2168 0.929 . S
H2161 C2170 0.930 . S
H2162 C2172 0.930 . S
H2163 C2175 0.929 . S
H2164 C2178 0.930 . S
H2165 C2180 0.960 1_655 S
H2166 C2180 0.960 . S
H2167 C2180 0.960 . S
C2168 H2160 0.929 . S
C2168 C2169 1.377 . S
C2168 C2170 1.384 . S
C2169 C2168 1.377 . S
C2169 C2175 1.390 . S
C2170 H2161 0.930 . S
C2170 C2168 1.384 . S
C2170 C2171 1.372 . S
C2171 C2170 1.372 . S
C2171 C2172 1.400 . S
C2171 C2176 1.490 . S
C2172 H2162 0.930 . S
C2172 C2171 1.400 . S
C2172 C2175 1.386 . S
H2173 C2189 0.930 . S
H2174 C2190 0.931 . S
C2175 H2163 0.929 . S
C2175 C2169 1.390 . S
C2175 C2172 1.386 . S
C2176 C2171 1.490 . S
C2176 C2178 1.395 . S
C2176 C2179 1.403 . S
H2177 C2183 0.930 . S
C2178 H2164 0.930 . S
C2178 C2176 1.395 . S
C2178 C2181 1.403 1_455 S
C2179 C2176 1.403 . S
C2179 C2180 1.524 . S
C2179 C2183 1.400 1_455 S
C2180 H2165 0.960 1_455 S
C2180 H2166 0.960 . S
C2180 H2167 0.960 . S
C2180 C2179 1.524 . S
C2181 C2178 1.403 1_655 S
C2181 C2182 1.392 . S
C2181 C2185 1.495 . S
C2182 C2181 1.392 . S
C2182 C2183 1.385 . S
C2182 C2184 1.478 . S
C2183 H2177 0.930 . S
C2183 C2179 1.400 1_655 S
C2183 C2182 1.385 . S
C2184 C2182 1.478 . S
C2184 C2186 1.381 . S
C2184 C2190 1.383 . S
C2185 C2181 1.495 . S
C2185 H2191 0.959 1_655 S
C2185 H2192 0.961 . S
C2185 H2193 0.960 . S
C2186 C2184 1.381 . S
C2186 C2187 1.394 . S
C2186 H2194 0.930 . S
C2187 C2186 1.394 . S
C2187 C2188 1.383 . S
C2187 H2195 0.929 . S
C2188 C2187 1.383 . S
C2188 C2189 1.377 . S
C2189 H2173 0.930 . S
C2189 C2188 1.377 . S
C2189 C2190 1.379 . S
C2190 H2174 0.931 . S
C2190 C2184 1.383 . S
C2190 C2189 1.379 . S
H2191 C2185 0.959 1_455 S
H2192 C2185 0.961 . S
H2193 C2185 0.960 . S
H2194 C2186 0.930 . S
H2195 C2187 0.929 . S
H2196 C2204 0.929 . S
H2197 C2206 0.930 . S
H2198 C2208 0.930 . S
H2199 C2211 0.929 . S
H2200 C2214 0.930 . S
H2201 C2216 0.960 . S
H2202 C2216 0.960 . S
H2203 C2216 0.960 . S
C2204 H2196 0.929 . S
C2204 C2205 1.377 . S
C2204 C2206 1.384 . S
C2205 C2204 1.377 . S
C2205 C2211 1.390 . S
C2206 H2197 0.930 . S
C2206 C2204 1.384 . S
C2206 C2207 1.372 . S
C2207 C2206 1.372 . S
C2207 C2208 1.400 . S
C2207 C2212 1.490 . S
C2208 H2198 0.930 . S
C2208 C2207 1.400 . S
C2208 C2211 1.386 . S
H2209 C2225 0.930 . S
H2210 C2226 0.931 . S
C2211 H2199 0.929 . S
C2211 C2205 1.390 . S
C2211 C2208 1.386 . S
C2212 C2207 1.490 . S
C2212 C2214 1.395 . S
C2212 C2215 1.403 . S
H2213 C2219 0.930 . S
C2214 H2200 0.930 . S
C2214 C2212 1.395 . S
C2214 C2217 1.403 . S
C2215 C2212 1.403 . S
C2215 C2216 1.524 . S
C2215 C2219 1.400 . S
C2216 H2201 0.960 . S
C2216 H2202 0.960 . S
C2216 H2203 0.960 . S
C2216 C2215 1.524 . S
C2217 C2214 1.403 . S
C2217 C2218 1.392 . S
C2217 C2221 1.495 . S
C2218 C2217 1.392 . S
C2218 C2219 1.385 . S
C2218 C2220 1.478 . S
C2219 H2213 0.930 . S
C2219 C2215 1.400 . S
C2219 C2218 1.385 . S
C2220 C2218 1.478 . S
C2220 C2222 1.381 . S
C2220 C2226 1.383 . S
C2221 C2217 1.495 . S
C2221 H2227 0.959 . S
C2221 H2228 0.961 . S
C2221 H2229 0.960 . S
C2222 C2220 1.381 . S
C2222 C2223 1.394 . S
C2222 H2230 0.930 . S
C2223 C2222 1.394 . S
C2223 C2224 1.383 . S
C2223 H2231 0.929 . S
C2224 C2223 1.383 . S
C2224 C2225 1.377 . S
C2225 H2209 0.930 . S
C2225 C2224 1.377 . S
C2225 C2226 1.379 . S
C2226 H2210 0.931 . S
C2226 C2220 1.383 . S
C2226 C2225 1.379 . S
H2227 C2221 0.959 . S
H2228 C2221 0.961 . S
H2229 C2221 0.960 . S
H2230 C2222 0.930 . S
H2231 C2223 0.929 . S
C621 C111 0.682 . S
C640 C9 0.680 . S
C657 C43 0.594 . S
C676 C145 0.628 . S
C693 C77 0.578 . S
C712 C179 0.542 . S
C729 C190 2.478 . S
C748 C54 2.472 . S
C765 C122 2.373 . S
C784 C88 2.374 . S
C801 C156 2.374 . S
C820 C20 2.372 . S
C837 C315 0.554 . S
C856 C213 0.555 . S
C873 C349 0.618 . S
C892 C247 0.605 . S
C909 C281 0.552 . S
C928 C383 0.549 . S
C945 C394 2.305 . S
C964 C258 2.298 . S
C981 C326 2.290 . S
C1000 C292 2.296 . S
C1017 C224 2.407 . S
C1036 C360 2.398 . S
C1053 C519 0.568 . S
C1072 C417 0.578 . S
C1089 C451 0.531 . S
C1108 C553 0.526 . S
C1125 C485 0.624 . S
C1144 C587 0.637 . S
C1161 C462 2.305 . S
C1180 C598 2.304 . S
C1197 C530 2.408 . S
C1216 C496 2.405 . S
C1233 C564 2.294 . S
C1252 C428 2.279 . S
C1269 C611 1.630 . S
C1288 C33 1.634 . S
C1305 C543 1.635 . S
C1324 C67 1.636 . S
C1341 C101 1.573 . S
C1360 C577 1.569 . S
C1377 C135 1.634 . S
C1396 C271 1.623 . S
C1413 C305 1.574 . S
C1432 C169 1.579 . S
C1449 C237 1.631 . S
C1468 C203 1.616 . S
C1485 C339 1.519 . S
C1504 C475 1.531 . S
C1521 C509 1.705 . S
C1540 C373 1.708 . S
C1557 C441 1.522 . S
C1576 C407 1.533 . S
C1593 C2 1.474 . S
C1612 C342 1.456 . S
C1629 C376 1.623 . S
C1648 C36 1.610 . S
C1665 C308 1.628 . S
C1684 C70 1.601 . S
C1701 C104 1.479 . S
C1720 C478 1.481 . S
C1737 C410 1.631 . S
C1756 C138 1.630 . S
C1773 C172 1.622 . S
C1792 C444 1.641 . S
C1809 C481 0.464 . S
C1828 C175 0.472 . S
C1845 C107 0.348 . S
C1864 C413 0.320 . S
C1881 C447 0.307 . S
C1900 C141 0.309 . S
C1917 C39 0.453 . S
C1936 C345 0.449 . S
C1953 C73 0.338 . S
C1972 C379 0.309 . S
C1989 C311 0.323 . S
C2008 C5 0.313 . S
C2025 C546 1.534 . S
C2044 C206 1.530 . S
C2061 C240 1.418 . S
C2080 C580 1.427 . S
C2097 C512 1.533 . S
C2116 C274 1.532 . S
C2133 C549 0.381 . S
C2152 C243 0.365 . S
C2169 C583 0.381 . S
C2188 C277 0.372 . S
C2205 C515 0.532 . S
C2224 C209 0.559 . S
