# Generated by pormake.
# Topology unj, (4)-cn, num edge types: 1
# Building blocks:
#     Node 0, Type 0, BuildingBlock: ICAMEG_clean_sbu_1, # of connection points: 4
#     Node 1, Type 0, BuildingBlock: ICAMEG_clean_sbu_1, # of connection points: 4
#     Node 2, Type 0, BuildingBlock: ICAMEG_clean_sbu_1, # of connection points: 4
#     Node 3, Type 0, BuildingBlock: ICAMEG_clean_sbu_1, # of connection points: 4
#     Node 4, Type 0, BuildingBlock: ICAMEG_clean_sbu_1, # of connection points: 4
#     Node 5, Type 0, BuildingBlock: ICAMEG_clean_sbu_1, # of connection points: 4
#     Edge 6, Type (0, 0), BuildingBlock: MIFKUJ_clean_linker_0, # of connection points: 2
#     Edge 7, Type (0, 0), BuildingBlock: MIFKUJ_clean_linker_0, # of connection points: 2
#     Edge 8, Type (0, 0), BuildingBlock: MIFKUJ_clean_linker_0, # of connection points: 2
#     Edge 9, Type (0, 0), BuildingBlock: MIFKUJ_clean_linker_0, # of connection points: 2
#     Edge 10, Type (0, 0), BuildingBlock: MIFKUJ_clean_linker_0, # of connection points: 2
#     Edge 11, Type (0, 0), BuildingBlock: MIFKUJ_clean_linker_0, # of connection points: 2
#     Edge 12, Type (0, 0), BuildingBlock: MIFKUJ_clean_linker_0, # of connection points: 2
#     Edge 13, Type (0, 0), BuildingBlock: MIFKUJ_clean_linker_0, # of connection points: 2
#     Edge 14, Type (0, 0), BuildingBlock: MIFKUJ_clean_linker_0, # of connection points: 2
#     Edge 15, Type (0, 0), BuildingBlock: MIFKUJ_clean_linker_0, # of connection points: 2
#     Edge 16, Type (0, 0), BuildingBlock: MIFKUJ_clean_linker_0, # of connection points: 2
#     Edge 17, Type (0, 0), BuildingBlock: MIFKUJ_clean_linker_0, # of connection points: 2
# Relax obj value: 0.087
# Max RMSD: 0.190
# Mean RMSD: 0.156
data_MOF--net-unj--node1-ICAMEG_clean_sbu_1--edge1-MIFKUJ_clean_linker_0
_symmetry_space_group_name_H-M    P1
_symmetry_Int_Tables_number       1
_symmetry_cell_setting            triclinic
loop_
_symmetry_equiv_pos_as_xyz
'x, y, z'
_cell_length_a     40.731196
_cell_length_b     44.968606
_cell_length_c     50.978319
_cell_angle_alpha  89.917996
_cell_angle_beta   90.062797
_cell_angle_gamma 120.11747
loop_
_atom_site_label
_atom_site_type_symbol
_atom_site_fract_x
_atom_site_fract_y
_atom_site_fract_z
_atom_type_partial_charge
Co0 Co 0.56392 0.29643 0.59594 0.0
Co1 Co 0.47625 0.22493 0.60409 0.0
O2 O 0.52032 0.25447 0.58202 0.0
C3 C 0.54827 0.32078 0.54529 0.0
O4 O 0.51179 0.30376 0.55054 0.0
C5 C 0.49382 0.17519 0.57758 0.0
O6 O 0.53015 0.19689 0.58093 0.0
O7 O 0.50984 0.22045 0.63034 0.0
O8 O 0.55834 0.27467 0.6312 0.0
H9 H 0.405 0.18564 0.68921 0.0
H10 H 0.57324 0.2663 0.54684 0.0
O11 O 0.5719 0.31988 0.56116 0.0
H12 H 0.6665 0.26628 0.6086 0.0
H13 H 0.69505 0.40049 0.5922 0.0
H14 H 0.57911 0.33592 0.64535 0.0
H15 H 0.62537 0.28923 0.62198 0.0
H16 H 0.64079 0.34691 0.57539 0.0
O17 O 0.46925 0.18272 0.58551 0.0
H18 H 0.45938 0.22283 0.66081 0.0
H19 H 0.40014 0.16334 0.59419 0.0
H20 H 0.63283 0.38921 0.663 0.0
H21 H 0.61419 0.2435 0.53252 0.0
H22 H 0.69133 0.4219 0.63635 0.0
H23 H 0.66113 0.24328 0.56355 0.0
O24 O 0.52988 0.31397 0.60703 0.0
H25 H 0.4292 0.22508 0.513 0.0
H26 H 0.41384 0.24148 0.60687 0.0
H27 H 0.37373 0.24879 0.57424 0.0
H28 H 0.38121 0.24049 0.52692 0.0
H29 H 0.46908 0.21844 0.54629 0.0
H30 H 0.34523 0.12534 0.62191 0.0
H31 H 0.3474 0.13647 0.66977 0.0
O32 O 0.48085 0.26588 0.62333 0.0
C33 C 0.53985 0.24448 0.64091 0.0
C34 C 0.40367 0.18058 0.66837 0.0
C35 C 0.37014 0.14671 0.6306 0.0
N36 N 0.43285 0.19541 0.62585 0.0
C37 C 0.43434 0.2016 0.65218 0.0
C38 C 0.40136 0.16827 0.61502 0.0
C39 C 0.37137 0.15298 0.65745 0.0
C40 C 0.59387 0.2666 0.56036 0.0
N41 N 0.59693 0.27913 0.58519 0.0
C42 C 0.61686 0.25353 0.55218 0.0
C43 C 0.64315 0.25336 0.56961 0.0
C44 C 0.64614 0.26622 0.5949 0.0
C45 C 0.62266 0.27906 0.6024 0.0
C46 C 0.66974 0.38645 0.60401 0.0
C47 C 0.60454 0.3499 0.63368 0.0
C48 C 0.63888 0.35614 0.59457 0.0
N49 N 0.60687 0.3382 0.60943 0.0
C50 C 0.63484 0.3801 0.64376 0.0
C51 C 0.66764 0.39845 0.62879 0.0
C52 C 0.49952 0.29852 0.62057 0.0
C53 C 0.42561 0.22867 0.53356 0.0
C54 C 0.41742 0.23799 0.58631 0.0
C55 C 0.39453 0.24206 0.56793 0.0
C56 C 0.39872 0.23737 0.54138 0.0
N57 N 0.44374 0.22946 0.57849 0.0
C58 C 0.448 0.22481 0.5525 0.0
Co59 Co 0.25976 0.46684 0.76994 0.0
Co60 Co 0.25523 0.54023 0.76171 0.0
O61 O 0.26564 0.50508 0.74793 0.0
C62 C 0.33285 0.46885 0.75978 0.0
O63 O 0.33983 0.47366 0.78505 0.0
C64 C 0.22064 0.52483 0.70762 0.0
O65 O 0.2139 0.49313 0.70899 0.0
O66 O 0.20311 0.50366 0.77146 0.0
O67 O 0.21563 0.46484 0.78944 0.0
H68 H 0.20424 0.58901 0.82824 0.0
H69 H 0.26115 0.45971 0.71212 0.0
O70 O 0.3031 0.46753 0.75033 0.0
H71 H 0.13749 0.36358 0.74062 0.0
H72 H 0.25616 0.35481 0.78727 0.0
H73 H 0.24816 0.45103 0.82676 0.0
H74 H 0.18252 0.40444 0.77291 0.0
H75 H 0.26116 0.40198 0.75966 0.0
O76 O 0.23618 0.54546 0.72668 0.0
H77 H 0.2201 0.54672 0.8106 0.0
H78 H 0.2657 0.60705 0.74178 0.0
H79 H 0.24275 0.40426 0.85507 0.0
H80 H 0.21724 0.41899 0.67923 0.0
H81 H 0.24683 0.35573 0.83534 0.0
H82 H 0.15481 0.37059 0.6934 0.0
O83 O 0.2956 0.50027 0.79616 0.0
H84 H 0.36754 0.5976 0.7013 0.0
H85 H 0.31766 0.60211 0.78834 0.0
H86 H 0.38297 0.64598 0.77641 0.0
H87 H 0.40829 0.64398 0.73254 0.0
H88 H 0.30251 0.55397 0.71423 0.0
H89 H 0.2502 0.64992 0.75864 0.0
H90 H 0.21934 0.64108 0.8022 0.0
O91 O 0.27468 0.53771 0.79733 0.0
C92 C 0.1936 0.47698 0.78543 0.0
C93 C 0.21782 0.59322 0.80928 0.0
C94 C 0.24356 0.62737 0.7702 0.0
N95 N 0.24406 0.57451 0.77528 0.0
C96 C 0.22695 0.5694 0.79921 0.0
C97 C 0.25221 0.60297 0.76074 0.0
C98 C 0.22626 0.62241 0.79464 0.0
C99 C 0.23423 0.43849 0.7185 0.0
N100 N 0.22449 0.43452 0.74443 0.0
C101 C 0.2094 0.41561 0.69976 0.0
C102 C 0.17435 0.38851 0.70771 0.0
C103 C 0.16459 0.38459 0.73419 0.0
C104 C 0.19014 0.40796 0.75238 0.0
C105 C 0.25428 0.37578 0.7961 0.0
C106 C 0.24978 0.42993 0.81801 0.0
C107 C 0.2571 0.40258 0.78057 0.0
N108 N 0.25486 0.42922 0.79158 0.0
C109 C 0.24676 0.40354 0.83415 0.0
C110 C 0.24906 0.37632 0.82307 0.0
C111 C 0.2941 0.52515 0.80688 0.0
C112 C 0.35682 0.59878 0.72046 0.0
C113 C 0.32853 0.60088 0.76933 0.0
C114 C 0.3655 0.62589 0.76262 0.0
C115 C 0.37968 0.62477 0.738 0.0
N116 N 0.30624 0.57549 0.75201 0.0
C117 C 0.31998 0.57419 0.72786 0.0
Co118 Co 0.75393 0.28973 0.92771 0.0
Co119 Co 0.7618 0.21874 0.91584 0.0
O120 O 0.75047 0.2467 0.93985 0.0
C121 C 0.79205 0.30843 0.98035 0.0
O122 O 0.80601 0.28809 0.97643 0.0
C123 C 0.69087 0.16731 0.94376 0.0
O124 O 0.67888 0.18949 0.94396 0.0
O125 O 0.72256 0.21562 0.89094 0.0
O126 O 0.73645 0.27046 0.89157 0.0
H127 H 0.78816 0.18533 0.82771 0.0
H128 H 0.70956 0.25689 0.97575 0.0
O129 O 0.77098 0.31111 0.9632 0.0
H130 H 0.61875 0.2617 0.91431 0.0
H131 H 0.73874 0.39389 0.93542 0.0
H132 H 0.78434 0.33239 0.87982 0.0
H133 H 0.68554 0.28465 0.90152 0.0
H134 H 0.73291 0.33923 0.95027 0.0
O135 O 0.72266 0.17519 0.93339 0.0
H136 H 0.7751 0.2203 0.85858 0.0
H137 H 0.7705 0.15695 0.92202 0.0
H138 H 0.79043 0.38684 0.86413 0.0
H139 H 0.64315 0.2342 0.98954 0.0
H140 H 0.76754 0.41798 0.89201 0.0
H141 H 0.59719 0.23637 0.95865 0.0
O142 O 0.80771 0.30757 0.91757 0.0
H143 H 0.81022 0.21104 1.00479 0.0
H144 H 0.84289 0.23653 0.91118 0.0
H145 H 0.8914 0.24084 0.94236 0.0
H146 H 0.87516 0.22789 0.98949 0.0
H147 H 0.76274 0.20767 0.97305 0.0
H148 H 0.7833 0.12119 0.89181 0.0
H149 H 0.79238 0.13538 0.8443 0.0
O150 O 0.80213 0.26106 0.89735 0.0
C151 C 0.72012 0.24058 0.88126 0.0
C152 C 0.7844 0.17896 0.84839 0.0
C153 C 0.78162 0.14293 0.88435 0.0
N154 N 0.77234 0.19086 0.8921 0.0
C155 C 0.77708 0.19871 0.86597 0.0
C156 C 0.7743 0.16325 0.90136 0.0
C157 C 0.78672 0.15091 0.8577 0.0
C158 C 0.68982 0.25825 0.96231 0.0
N159 N 0.70144 0.27207 0.93787 0.0
C160 C 0.65221 0.24522 0.97018 0.0
C161 C 0.62642 0.2464 0.95282 0.0
C162 C 0.63849 0.26056 0.92793 0.0
C163 C 0.67632 0.27336 0.92075 0.0
C164 C 0.74875 0.38053 0.92307 0.0
C165 C 0.77412 0.34569 0.89201 0.0
C166 C 0.7456 0.34959 0.93139 0.0
N167 N 0.75802 0.33249 0.91584 0.0
C168 C 0.77773 0.37655 0.88304 0.0
C169 C 0.76491 0.39403 0.89871 0.0
C170 C 0.82057 0.29319 0.90254 0.0
C171 C 0.81763 0.21669 0.98428 0.0
C172 C 0.83565 0.23116 0.93171 0.0
C173 C 0.86322 0.2335 0.94924 0.0
C174 C 0.85407 0.22619 0.97569 0.0
N175 N 0.79995 0.22181 0.94029 0.0
C176 C 0.7908 0.21466 0.96619 0.0
Co177 Co 0.45702 0.72125 0.09192 0.0
Co178 Co 0.54777 0.79139 0.10127 0.0
O179 O 0.5031 0.76252 0.07927 0.0
C180 C 0.48082 0.69678 0.04462 0.0
O181 O 0.51651 0.72007 0.04847 0.0
C182 C 0.52687 0.84092 0.07737 0.0
O183 O 0.49119 0.81648 0.07611 0.0
O184 O 0.51524 0.79172 0.13059 0.0
O185 O 0.45682 0.74649 0.12395 0.0
H186 H 0.62443 0.82146 0.18428 0.0
H187 H 0.45837 0.74789 0.03844 0.0
O188 O 0.45503 0.69446 0.05998 0.0
H189 H 0.3526 0.7498 0.08379 0.0
H190 H 0.32722 0.61647 0.0824 0.0
H191 H 0.43163 0.68694 0.14356 0.0
H192 H 0.39076 0.72903 0.10653 0.0
H193 H 0.38473 0.66834 0.0668 0.0
O194 O 0.55184 0.83488 0.08699 0.0
H195 H 0.56867 0.78685 0.15618 0.0
H196 H 0.62153 0.85651 0.09297 0.0
H197 H 0.37442 0.63539 0.16004 0.0
H198 H 0.42051 0.76823 0.01476 0.0
H199 H 0.32172 0.59976 0.12936 0.0
H200 H 0.36727 0.76941 0.0375 0.0
O201 O 0.4875 0.7038 0.1103 0.0
H202 H 0.59007 0.80341 1.00736 0.0
H203 H 0.61378 0.77998 0.09781 0.0
H204 H 0.65364 0.77904 0.06181 0.0
H205 H 0.64195 0.79092 0.01619 0.0
H206 H 0.55055 0.80354 0.04391 0.0
H207 H 0.67761 0.89212 0.12051 0.0
H208 H 0.67941 0.87451 0.16646 0.0
O209 O 0.54597 0.7494 0.11576 0.0
C210 C 0.48038 0.77287 0.1369 0.0
C211 C 0.62402 0.82935 0.16427 0.0
C212 C 0.65384 0.86903 0.12849 0.0
N213 N 0.59192 0.81952 0.12292 0.0
C214 C 0.59257 0.80981 0.14824 0.0
C215 C 0.62193 0.84883 0.11302 0.0
C216 C 0.65485 0.85913 0.15427 0.0
C217 C 0.4351 0.74809 0.04841 0.0
N218 N 0.4269 0.73742 0.07389 0.0
C219 C 0.41384 0.75977 0.03493 0.0
C220 C 0.38401 0.76046 0.04771 0.0
C221 C 0.3758 0.74951 0.07369 0.0
C222 C 0.39768 0.73801 0.08654 0.0
C223 C 0.34996 0.63181 0.09597 0.0
C224 C 0.4087 0.67168 0.13013 0.0
C225 C 0.38266 0.66118 0.08725 0.0
N226 N 0.41144 0.68078 0.10431 0.0
C227 C 0.37643 0.64247 0.13956 0.0
C228 C 0.34689 0.62246 0.12232 0.0
C229 C 0.52181 0.7175 0.11815 0.0
C230 C 0.59547 0.79822 0.02715 0.0
C231 C 0.60826 0.78479 0.07799 0.0
C232 C 0.63107 0.78443 0.0577 0.0
C233 C 0.62453 0.79116 0.03211 0.0
N234 N 0.57976 0.79166 0.07297 0.0
C235 C 0.57327 0.7984 0.04795 0.0
Co236 Co 0.76724 0.55508 0.26941 0.0
Co237 Co 0.76215 0.47667 0.26978 0.0
O238 O 0.75524 0.51198 0.2521 0.0
C239 C 0.69601 0.55686 0.26032 0.0
O240 O 0.6918 0.55604 0.28589 0.0
C241 C 0.7968 0.48329 0.21706 0.0
O242 O 0.81231 0.5168 0.21881 0.0
O243 O 0.81639 0.51088 0.27662 0.0
O244 O 0.8119 0.55691 0.28813 0.0
H245 H 0.80714 0.42944 0.3419 0.0
H246 H 0.75921 0.55013 0.21159 0.0
O247 O 0.72353 0.55471 0.25035 0.0
H248 H 0.88915 0.64549 0.22785 0.0
H249 H 0.785 0.67427 0.27421 0.0
H250 H 0.78767 0.5812 0.3237 0.0
H251 H 0.8466 0.61422 0.26475 0.0
H252 H 0.77096 0.62035 0.25217 0.0
O253 O 0.77619 0.46398 0.2356 0.0
H254 H 0.79835 0.47357 0.31945 0.0
H255 H 0.74139 0.4047 0.25659 0.0
H256 H 0.80217 0.63481 0.34649 0.0
H257 H 0.80061 0.58106 0.17407 0.0
H258 H 0.80084 0.68179 0.3217 0.0
H259 H 0.86616 0.62904 0.18209 0.0
O260 O 0.73298 0.52853 0.29906 0.0
H261 H 0.64477 0.4181 0.21408 0.0
H262 H 0.69736 0.42528 0.30255 0.0
H263 H 0.62909 0.38603 0.29458 0.0
H264 H 0.60251 0.38191 0.25009 0.0
H265 H 0.71258 0.45795 0.22303 0.0
H266 H 0.74978 0.3599 0.27829 0.0
H267 H 0.78268 0.3721 0.32133 0.0
O268 O 0.74807 0.48739 0.30466 0.0
C269 C 0.83028 0.54074 0.28678 0.0
C270 C 0.79265 0.42378 0.32319 0.0
C271 C 0.7605 0.38477 0.28747 0.0
N272 N 0.76915 0.44165 0.28682 0.0
C273 C 0.78754 0.44865 0.3104 0.0
C274 C 0.75592 0.41027 0.27525 0.0
C275 C 0.77895 0.39162 0.31163 0.0
C276 C 0.78756 0.57119 0.21524 0.0
N277 N 0.80045 0.58033 0.24036 0.0
C278 C 0.81093 0.58852 0.19391 0.0
C279 C 0.84773 0.61539 0.19843 0.0
C280 C 0.86066 0.6246 0.22409 0.0
C281 C 0.8365 0.60667 0.24493 0.0
C282 C 0.78569 0.654 0.28522 0.0
C283 C 0.78715 0.60158 0.31278 0.0
C284 C 0.77771 0.62339 0.27286 0.0
N285 N 0.77857 0.59768 0.28664 0.0
C286 C 0.79534 0.63185 0.32578 0.0
C287 C 0.79458 0.6582 0.31186 0.0
C288 C 0.73248 0.50429 0.31231 0.0
C289 C 0.65609 0.41949 0.23354 0.0
C290 C 0.68598 0.42388 0.28314 0.0
C291 C 0.64735 0.40143 0.27874 0.0
C292 C 0.6324 0.39921 0.25375 0.0
N293 N 0.70902 0.44381 0.26322 0.0
C294 C 0.69452 0.44187 0.2387 0.0
Co295 Co 0.27635 0.72824 0.42137 0.0
Co296 Co 0.26315 0.79875 0.41699 0.0
O297 O 0.27776 0.76919 0.43646 0.0
C298 C 0.23107 0.70144 0.47072 0.0
O299 O 0.21589 0.7208 0.46658 0.0
C300 C 0.33584 0.84819 0.44559 0.0
O301 O 0.34305 0.82355 0.45105 0.0
O302 O 0.29635 0.80254 0.38685 0.0
O303 O 0.29831 0.75336 0.3878 0.0
H304 H 0.21935 0.83555 0.33754 0.0
H305 H 0.314 0.75387 0.47286 0.0
O306 O 0.25518 0.7018 0.45469 0.0
H307 H 0.41321 0.75907 0.41449 0.0
H308 H 0.29178 0.62389 0.42297 0.0
H309 H 0.25225 0.69255 0.37017 0.0
H310 H 0.34816 0.7376 0.39812 0.0
H311 H 0.29624 0.67663 0.44105 0.0
O312 O 0.3064 0.84197 0.43247 0.0
H313 H 0.23752 0.79904 0.3626 0.0
H314 H 0.25816 0.86111 0.43023 0.0
H315 H 0.24639 0.63945 0.35159 0.0
H316 H 0.37847 0.7748 0.49023 0.0
H317 H 0.26668 0.60499 0.37792 0.0
H318 H 0.42868 0.77773 0.46091 0.0
O319 O 0.22365 0.71052 0.40808 0.0
H320 H 0.23267 0.8005 0.5124 0.0
H321 H 0.18327 0.78377 0.42206 0.0
H322 H 0.1416 0.7782 0.45901 0.0
H323 H 0.16631 0.78675 0.5046 0.0
H324 H 0.27313 0.8053 0.47493 0.0
H325 H 0.24059 0.89845 0.40585 0.0
H326 H 0.22084 0.88568 0.35918 0.0
O327 O 0.21917 0.75752 0.40078 0.0
C328 C 0.30624 0.78198 0.37734 0.0
C329 C 0.22781 0.84133 0.35788 0.0
C330 C 0.23978 0.87666 0.39621 0.0
N331 N 0.24869 0.82779 0.39787 0.0
C332 C 0.23804 0.8207 0.37218 0.0
C333 C 0.24981 0.85546 0.40989 0.0
C334 C 0.22869 0.86947 0.37003 0.0
C335 C 0.33561 0.75478 0.46004 0.0
N336 N 0.3274 0.74483 0.43444 0.0
C337 C 0.3721 0.76679 0.46996 0.0
C338 C 0.40027 0.76847 0.45349 0.0
C339 C 0.39164 0.75807 0.42744 0.0
C340 C 0.35482 0.74619 0.41821 0.0
C341 C 0.2831 0.63883 0.41123 0.0
C342 C 0.26114 0.67767 0.38175 0.0
C343 C 0.28559 0.66874 0.42135 0.0
N344 N 0.27479 0.6878 0.4066 0.0
C345 C 0.25782 0.64768 0.37111 0.0
C346 C 0.26903 0.62825 0.38595 0.0
C347 C 0.20588 0.72516 0.39951 0.0
C348 C 0.22163 0.7969 0.49263 0.0
C349 C 0.19421 0.78736 0.44181 0.0
C350 C 0.17049 0.78428 0.46267 0.0
C351 C 0.18438 0.78911 0.48824 0.0
N352 N 0.2308 0.79519 0.44624 0.0
C353 C 0.24453 0.79981 0.47128 0.0
H354 H 0.42472 0.11713 0.5821 0.0
H355 H 0.40211 0.06197 0.56035 0.0
H356 H 0.50953 0.10256 0.52028 0.0
H357 H 0.53297 0.15739 0.54322 0.0
H358 H 0.387 0.04202 0.51423 0.0
H359 H 0.52775 0.03992 0.50298 0.0
H360 H 0.58841 0.06068 0.52645 0.0
H361 H 0.53496 0.06106 0.59891 0.0
H362 H 0.47391 0.03989 0.57594 0.0
H363 H 0.34755 0.90924 0.42629 0.0
H364 H 0.37958 0.96534 0.44776 0.0
H365 H 0.4057 0.9209 0.51399 0.0
H366 H 0.37561 0.86508 0.49175 0.0
H367 H 0.46095 0.98203 0.50837 0.0
H368 H 0.32683 0.93444 0.5122 0.0
H369 H 0.26194 0.90816 0.49425 0.0
H370 H 0.29404 0.99868 0.44816 0.0
H371 H 0.35932 0.02528 0.46551 0.0
C372 C 0.44366 0.11425 0.56879 0.0
C373 C 0.48072 0.14162 0.56447 0.0
C374 C 0.43063 0.08264 0.55625 0.0
C375 C 0.45406 0.07767 0.53872 0.0
C376 C 0.49105 0.10521 0.53415 0.0
C377 C 0.50441 0.13668 0.54717 0.0
C378 C 0.43926 0.04394 0.52494 0.0
C379 C 0.4033 0.02902 0.51302 0.0
C380 C 0.45988 0.02626 0.52363 0.0
C381 C 0.49638 0.03868 0.53767 0.0
C382 C 0.52893 0.04433 0.52393 0.0
C383 C 0.56338 0.05618 0.53715 0.0
C384 C 0.56557 0.0623 0.56414 0.0
C385 C 0.53327 0.05644 0.57799 0.0
C386 C 0.49875 0.04455 0.56488 0.0
C387 C 0.36067 0.91158 0.44525 0.0
C388 C 0.3589 0.88274 0.4574 0.0
C389 C 0.37874 0.94363 0.45764 0.0
C390 C 0.39421 0.94735 0.48292 0.0
C391 C 0.3939 0.91883 0.49458 0.0
C392 C 0.37666 0.88689 0.48186 0.0
C393 C 0.40892 0.9804 0.4976 0.0
C394 C 0.44478 0.99516 0.50961 0.0
C395 C 0.38754 0.99727 0.49997 0.0
C396 C 0.34806 0.98173 0.48999 0.0
C397 C 0.32009 0.94868 0.49816 0.0
C398 C 0.28325 0.93372 0.48807 0.0
C399 C 0.2739 0.95171 0.47002 0.0
C400 C 0.30134 0.98476 0.46211 0.0
C401 C 0.33826 0.9998 0.47207 0.0
H402 H 0.24538 0.94006 0.4622 0.0
H403 H 0.59227 0.0715 0.57432 0.0
H404 H 0.43695 0.27478 0.6521 0.0
H405 H 0.41278 0.30776 0.67433 0.0
H406 H 0.50532 0.40175 0.64317 0.0
H407 H 0.52963 0.36879 0.62042 0.0
H408 H 0.44061 0.35456 0.71142 0.0
H409 H 0.4732 0.45872 0.6325 0.0
H410 H 0.47973 0.46531 0.58439 0.0
H411 H 0.40712 0.35639 0.57487 0.0
H412 H 0.39972 0.34923 0.62285 0.0
H413 H 0.40214 0.47544 0.77061 0.0
H414 H 0.43526 0.45203 0.74559 0.0
H415 H 0.34683 0.41402 0.68704 0.0
H416 H 0.31439 0.43839 0.71142 0.0
H417 H 0.4109 0.43429 0.66347 0.0
H418 H 0.34891 0.36255 0.73794 0.0
H419 H 0.33378 0.3495 0.78487 0.0
H420 H 0.45044 0.38188 0.80121 0.0
H421 H 0.46637 0.39564 0.75441 0.0
C422 C 0.45227 0.30247 0.64984 0.0
C423 C 0.48523 0.31903 0.63426 0.0
C424 C 0.43843 0.32134 0.66273 0.0
C425 C 0.45702 0.35726 0.66035 0.0
C426 C 0.49017 0.37402 0.64506 0.0
C427 C 0.5041 0.35511 0.63211 0.0
C428 C 0.44138 0.37688 0.67386 0.0
C429 C 0.43437 0.37216 0.70094 0.0
C430 C 0.43242 0.39933 0.66018 0.0
C431 C 0.43633 0.40343 0.63128 0.0
C432 C 0.45856 0.43621 0.62012 0.0
C433 C 0.46241 0.44003 0.59288 0.0
C434 C 0.44398 0.41127 0.57659 0.0
C435 C 0.42152 0.37863 0.58751 0.0
C436 C 0.41753 0.37467 0.61472 0.0
C437 C 0.39006 0.46256 0.7522 0.0
C438 C 0.35547 0.45864 0.74313 0.0
C439 C 0.40892 0.449 0.73796 0.0
C440 C 0.39321 0.43055 0.71464 0.0
C441 C 0.3596 0.42804 0.70495 0.0
C442 C 0.34101 0.44201 0.71898 0.0
C443 C 0.41041 0.41219 0.70112 0.0
C444 C 0.41764 0.41706 0.67403 0.0
C445 C 0.41845 0.38899 0.71463 0.0
C446 C 0.4089 0.38046 0.74273 0.0
C447 C 0.37138 0.36709 0.75158 0.0
C448 C 0.36266 0.35955 0.77814 0.0
C449 C 0.39116 0.36493 0.79602 0.0
C450 C 0.42841 0.37778 0.78734 0.0
C451 C 0.4373 0.38545 0.7608 0.0
H452 H 0.38435 0.35908 0.81658 0.0
H453 H 0.44703 0.41429 0.55551 0.0
H454 H 0.84667 0.28009 0.85725 0.0
H455 H 0.90965 0.31344 0.83783 0.0
H456 H 0.94378 0.38666 0.90118 0.0
H457 H 0.87994 0.35422 0.91995 0.0
H458 H 0.97469 0.42023 0.85948 0.0
H459 H 0.96835 0.32094 0.89817 0.0
H460 H 0.94131 0.25906 0.90703 0.0
H461 H 0.95293 0.2413 0.82573 0.0
H462 H 0.97974 0.30306 0.81632 0.0
H463 H 0.17002 0.43216 0.82679 0.0
H464 H 0.10782 0.40352 0.84782 0.0
H465 H 0.0683 0.45192 0.79299 0.0
H466 H 0.13109 0.48192 0.77266 0.0
H467 H 0.04208 0.35857 0.83367 0.0
H468 H 0.99916 0.4629 0.81889 0.0
H469 H 0.03021 0.52607 0.81576 0.0
H470 H 0.12486 0.53649 0.86042 0.0
H471 H 0.09411 0.47344 0.86421 0.0
C472 C 0.86752 0.3034 0.86698 0.0
C473 C 0.85838 0.31438 0.89025 0.0
C474 C 0.90368 0.32239 0.85593 0.0
C475 C 0.93201 0.35223 0.86832 0.0
C476 C 0.92261 0.36372 0.89123 0.0
C477 C 0.8861 0.34511 0.902 0.0
C478 C 0.97147 0.37096 0.85762 0.0
C479 C 0.9894 0.40671 0.85387 0.0
C480 C 0.99135 0.35367 0.85088 0.0
C481 C 0.97577 0.31659 0.85651 0.0
C482 C 0.96497 0.30381 0.88216 0.0
C483 C 0.94968 0.26876 0.88728 0.0
C484 C 0.94526 0.24625 0.86695 0.0
C485 C 0.95631 0.25877 0.84146 0.0
C486 C 0.97163 0.2938 0.83622 0.0
C487 C 0.14817 0.4369 0.81928 0.0
C488 C 0.15567 0.45956 0.79813 0.0
C489 C 0.11248 0.42037 0.83129 0.0
C490 C 0.08324 0.42575 0.82229 0.0
C491 C 0.09049 0.4479 0.80082 0.0
C492 C 0.12642 0.46495 0.78909 0.0
C493 C 0.04515 0.4078 0.83516 0.0
C494 C 0.02745 0.37215 0.83931 0.0
C495 C 0.02615 0.42542 0.84321 0.0
C496 C 0.04446 0.46342 0.84159 0.0
C497 C 0.02649 0.47868 0.82817 0.0
C498 C 0.04405 0.51447 0.82627 0.0
C499 C 0.07953 0.53527 0.83781 0.0
C500 C 0.09743 0.52035 0.85142 0.0
C501 C 0.07995 0.48459 0.85344 0.0
H502 H 0.09313 0.56297 0.83625 0.0
H503 H 0.93337 0.21911 0.87095 0.0
H504 H 0.58868 0.90184 0.09107 0.0
H505 H 0.61208 0.95803 0.07063 0.0
H506 H 0.51862 0.91346 0.01584 0.0
H507 H 0.49394 0.85756 0.03738 0.0
H508 H 0.63963 0.98107 0.02716 0.0
H509 H 0.49971 0.97208 0.99011 0.0
H510 H 0.43289 0.94651 1.00393 0.0
H511 H 0.46539 0.94725 0.08419 0.0
H512 H 0.53243 0.97322 0.0709 0.0
H513 H 0.69102 0.10839 0.93209 0.0
H514 H 0.6587 0.0535 0.95523 0.0
H515 H 0.61012 0.09498 1.00898 0.0
H516 H 0.64091 0.14958 0.98481 0.0
H517 H 0.56067 0.03174 1.00139 0.0
H518 H 0.69148 0.08882 0.02403 0.0
H519 H 0.76051 0.11949 0.01604 0.0
H520 H 0.75012 0.03089 0.97653 0.0
H521 H 0.68091 0.99988 0.9839 0.0
C522 C 0.5728 0.90415 0.07491 0.0
C523 C 0.53934 0.87531 0.06593 0.0
C524 C 0.58632 0.93632 0.06311 0.0
C525 C 0.56716 0.9404 0.04168 0.0
C526 C 0.53359 0.91149 0.03271 0.0
C527 C 0.51952 0.87941 0.04496 0.0
C528 C 0.58342 0.97447 0.0281 0.0
C529 C 0.62223 0.99205 0.02165 0.0
C530 C 0.56124 0.98957 0.02124 0.0
C531 C 0.52104 0.97428 0.02945 0.0
C532 C 0.49261 0.96691 1.01072 0.0
C533 C 0.45469 0.95232 0.01846 0.0
C534 C 0.44489 0.94515 0.04491 0.0
C535 C 0.473 0.95268 0.0637 0.0
C536 C 0.51095 0.9673 0.05606 0.0
C537 C 0.67315 0.10572 0.9487 0.0
C538 C 0.66875 0.13339 0.95677 0.0
C539 C 0.65483 0.07434 0.96205 0.0
C540 C 0.6327 0.07019 0.9844 0.0
C541 C 0.62714 0.09745 0.99192 0.0
C542 C 0.6448 0.12869 0.97812 0.0
C543 C 0.61661 0.03789 1.00027 0.0
C544 C 0.57795 0.02068 1.00705 0.0
C545 C 0.63923 0.02377 1.00845 0.0
C546 C 0.68095 0.04212 1.00434 0.0
C547 C 0.70389 0.07594 0.01352 0.0
C548 C 0.74305 0.09339 1.0091 0.0
C549 C 0.75968 0.07717 0.99575 0.0
C550 C 0.73719 0.04343 0.98685 0.0
C551 C 0.698 0.02589 0.99116 0.0
H552 H 0.78999 0.09073 0.99233 0.0
H553 H 0.41552 0.93383 0.05086 0.0
H554 H 0.62629 0.54919 0.27089 0.0
H555 H 0.59207 0.57135 0.24528 0.0
H556 H 0.68061 0.61031 0.187 0.0
H557 H 0.71449 0.58751 0.21206 0.0
H558 H 0.65952 0.65964 0.20987 0.0
H559 H 0.60537 0.54762 0.169 0.0
H560 H 0.57184 0.48426 0.16927 0.0
H561 H 0.47473 0.48131 0.20483 0.0
H562 H 0.50795 0.54473 0.20513 0.0
H563 H 0.59084 0.72284 0.1129 0.0
H564 H 0.61537 0.69046 0.13569 0.0
H565 H 0.50794 0.63074 0.17518 0.0
H566 H 0.48262 0.66246 0.15126 0.0
H567 H 0.53595 0.59075 0.16446 0.0
H568 H 0.58555 0.69982 0.20539 0.0
H569 H 0.61641 0.76301 0.20704 0.0
H570 H 0.71911 0.77204 0.17624 0.0
H571 H 0.68864 0.70886 0.17396 0.0
C572 C 0.63814 0.56197 0.2524 0.0
C573 C 0.67305 0.56649 0.24348 0.0
C574 C 0.61857 0.57462 0.23782 0.0
C575 C 0.63387 0.59253 0.2143 0.0
C576 C 0.66834 0.59654 0.2051 0.0
C577 C 0.68752 0.5833 0.21938 0.0
C578 C 0.61501 0.60867 0.19997 0.0
C579 C 0.63273 0.64464 0.19966 0.0
C580 C 0.57932 0.58901 0.18762 0.0
C581 C 0.55932 0.55092 0.18737 0.0
C582 C 0.57702 0.53347 0.17713 0.0
C583 C 0.55804 0.49755 0.17712 0.0
C584 C 0.52122 0.47877 0.18714 0.0
C585 C 0.50328 0.49589 0.19712 0.0
C586 C 0.52216 0.53182 0.1972 0.0
C587 C 0.57237 0.70278 0.12637 0.0
C588 C 0.53503 0.69561 0.13064 0.0
C589 C 0.58646 0.68427 0.13948 0.0
C590 C 0.56397 0.65878 0.15783 0.0
C591 C 0.52602 0.65047 0.16131 0.0
C592 C 0.51157 0.66861 0.14768 0.0
C593 C 0.58082 0.64194 0.17384 0.0
C594 C 0.56268 0.60587 0.17469 0.0
C595 C 0.61583 0.66153 0.18724 0.0
C596 C 0.63469 0.69956 0.18931 0.0
C597 C 0.61467 0.71527 0.19886 0.0
C598 C 0.63208 0.75109 0.19989 0.0
C599 C 0.66967 0.77153 0.19169 0.0
C600 C 0.68998 0.75617 0.18256 0.0
C601 C 0.67266 0.72034 0.18142 0.0
H602 H 0.68307 0.79926 0.19244 0.0
H603 H 0.50657 0.45096 0.18711 0.0
H604 H 0.16838 0.65585 0.38828 0.0
H605 H 0.10485 0.6212 0.36927 0.0
H606 H 0.09305 0.71114 0.36508 0.0
H607 H 0.15624 0.74593 0.38367 0.0
H608 H 0.02986 0.65467 0.3866 0.0
H609 H 0.11214 0.68161 0.31135 0.0
H610 H 0.1645 0.68278 0.28622 0.0
H611 H 0.10788 0.57253 0.28838 0.0
H612 H 0.05548 0.57073 0.31394 0.0
H613 H 0.87255 0.60644 0.3055 0.0
H614 H 0.9361 0.63405 0.32406 0.0
H615 H 0.93998 0.54068 0.31367 0.0
H616 H 0.8766 0.51309 0.29391 0.0
H617 H 1.00659 0.59381 0.30153 0.0
H618 H 0.92324 0.56553 0.3747 0.0
H619 H 0.87072 0.56302 0.40048 0.0
H620 H 0.92892 0.67327 0.40383 0.0
H621 H 0.98156 0.67647 0.37772 0.0
C622 C 0.1523 0.66829 0.38331 0.0
C623 C 0.16754 0.70375 0.38771 0.0
C624 C 0.11601 0.64844 0.37237 0.0
C625 C 0.09419 0.66359 0.36573 0.0
C626 C 0.10928 0.69886 0.37015 0.0
C627 C 0.14556 0.71874 0.3808 0.0
C628 C 0.05549 0.64295 0.35434 0.0
C629 C 0.0248 0.64158 0.36789 0.0
C630 C 0.04871 0.62497 0.33034 0.0
C631 C 0.08008 0.62605 0.31481 0.0
C632 C 0.11101 0.65763 0.30667 0.0
C633 C 0.14067 0.6584 0.29232 0.0
C634 C 0.13955 0.62775 0.28576 0.0
C635 C 0.10874 0.59625 0.29351 0.0
C636 C 0.07905 0.59534 0.30792 0.0
C637 C 0.88684 0.59168 0.30694 0.0
C638 C 0.86923 0.55743 0.29811 0.0
C639 C 0.92324 0.60751 0.3178 0.0
C640 C 0.94275 0.58933 0.32079 0.0
C641 C 0.92555 0.55528 0.31168 0.0
C642 C 0.88921 0.53949 0.30045 0.0
C643 C 0.98089 0.606 0.33357 0.0
C644 C 1.01149 0.60659 0.32034 0.0
C645 C 0.98761 0.62304 0.35805 0.0
C646 C 0.95623 0.62123 0.37409 0.0
C647 C 0.92475 0.58925 0.38081 0.0
C648 C 0.89496 0.5877 0.39549 0.0
C649 C 0.89645 0.61797 0.40375 0.0
C650 C 0.92779 0.64985 0.39741 0.0
C651 C 0.95764 0.65154 0.38269 0.0
H652 H 0.87334 0.61672 0.41509 0.0
H653 H 0.16248 0.62839 0.27459 0.0
H654 H 0.62144 0.36913 0.53449 0.0
H655 H 0.64678 0.40316 0.49475 0.0
H656 H 0.53458 0.35427 0.46101 0.0
H657 H 0.50863 0.31984 0.50115 0.0
H658 H 0.59151 0.3575 0.42684 0.0
H659 H 0.57078 0.43372 0.48052 0.0
H660 H 0.57447 0.46524 0.52097 0.0
H661 H 0.6962 0.51908 0.51709 0.0
H662 H 0.69326 0.48749 0.47682 0.0
H663 H 0.65699 0.47829 0.3198 0.0
H664 H 0.62057 0.44945 0.35957 0.0
H665 H 0.72469 0.47619 0.40022 0.0
H666 H 0.7609 0.50368 0.36019 0.0
H667 H 0.66549 0.48504 0.42964 0.0
H668 H 0.68775 0.40547 0.38098 0.0
H669 H 0.68719 0.37243 0.3423 0.0
H670 H 0.56575 0.32392 0.33821 0.0
H671 H 0.56569 0.3574 0.37654 0.0
C672 C 0.60197 0.36552 0.51871 0.0
C673 C 0.56293 0.3417 0.52105 0.0
C674 C 0.61656 0.38519 0.49601 0.0
C675 C 0.59256 0.38151 0.475 0.0
C676 C 0.55357 0.3576 0.47706 0.0
C677 C 0.53879 0.33805 0.50001 0.0
C678 C 0.60885 0.40234 0.45084 0.0
C679 C 0.60688 0.38539 0.42729 0.0
C680 C 0.62987 0.43873 0.45163 0.0
C681 C 0.63179 0.45804 0.47573 0.0
C682 C 0.59835 0.4521 0.48839 0.0
C683 C 0.6003 0.47001 0.51127 0.0
C684 C 0.63555 0.4941 0.52162 0.0
C685 C 0.66892 0.5004 0.50906 0.0
C686 C 0.66712 0.48253 0.48618 0.0
C687 C 0.67201 0.47871 0.33748 0.0
C688 C 0.71163 0.49351 0.33724 0.0
C689 C 0.65126 0.46209 0.36004 0.0
C690 C 0.67 0.46073 0.38277 0.0
C691 C 0.70978 0.47715 0.38291 0.0
C692 C 0.73039 0.49288 0.36016 0.0
C693 C 0.64816 0.44015 0.40578 0.0
C694 C 0.64936 0.45716 0.42909 0.0
C695 C 0.62677 0.40382 0.40486 0.0
C696 C 0.62676 0.38436 0.38138 0.0
C697 C 0.66097 0.3882 0.37158 0.0
C698 C 0.66076 0.36925 0.34981 0.0
C699 C 0.62644 0.346 0.33787 0.0
C700 C 0.5923 0.34189 0.34753 0.0
C701 C 0.59238 0.3609 0.36924 0.0
H702 H 0.62631 0.33127 0.32106 0.0
H703 H 0.63701 0.50793 0.53934 0.0
H704 H 0.20169 0.70815 0.51739 0.0
H705 H 0.19246 0.6751 0.55787 0.0
H706 H 0.23061 0.6132 0.5183 0.0
H707 H 0.24021 0.64611 0.47808 0.0
H708 H 0.16674 0.57457 0.55083 0.0
H709 H 0.29122 0.67633 0.55408 0.0
H710 H 0.33578 0.73884 0.55262 0.0
H711 H 0.27984 0.75309 0.61871 0.0
H712 H 0.23451 0.69067 0.62027 0.0
H713 H 0.21817 0.50285 0.65712 0.0
H714 H 0.21331 0.53014 0.61682 0.0
H715 H 0.20044 0.60411 0.66294 0.0
H716 H 0.20719 0.578 0.70305 0.0
H717 H 0.24782 0.63669 0.62716 0.0
H718 H 0.12501 0.53515 0.62613 0.0
H719 H 0.07909 0.47292 0.62752 0.0
H720 H 0.12881 0.45805 0.55814 0.0
H721 H 0.17535 0.52015 0.55653 0.0
C722 C 0.20764 0.68722 0.51727 0.0
C723 C 0.2219 0.67989 0.4946 0.0
C724 C 0.20246 0.66844 0.54039 0.0
C725 C 0.21105 0.64181 0.5411 0.0
C726 C 0.22376 0.63358 0.51819 0.0
C727 C 0.22943 0.65258 0.49525 0.0
C728 C 0.20902 0.62371 0.56597 0.0
C729 C 0.18454 0.58803 0.56753 0.0
C730 C 0.23176 0.64142 0.58787 0.0
C731 C 0.25921 0.6789 0.5871 0.0
C732 C 0.28822 0.69283 0.56816 0.0
C733 C 0.31364 0.72823 0.56733 0.0
C734 C 0.31057 0.74994 0.58551 0.0
C735 C 0.28213 0.73626 0.6046 0.0
C736 C 0.25657 0.70087 0.60547 0.0
C737 C 0.21376 0.52463 0.6586 0.0
C738 C 0.21307 0.53828 0.68322 0.0
C739 C 0.21084 0.54019 0.63554 0.0
C740 C 0.2061 0.56911 0.63669 0.0
C741 C 0.20424 0.582 0.66139 0.0
C742 C 0.20795 0.56694 0.68435 0.0
C743 C 0.20521 0.58722 0.61234 0.0
C744 C 0.22946 0.62304 0.61074 0.0
C745 C 0.18195 0.5696 0.59051 0.0
C746 C 0.15387 0.53227 0.59135 0.0
C747 C 0.12631 0.51858 0.61127 0.0
C748 C 0.10014 0.48333 0.61208 0.0
C749 C 0.10108 0.46153 0.59296 0.0
C750 C 0.12813 0.47496 0.57295 0.0
C751 C 0.15438 0.51018 0.57206 0.0
H752 H 0.08081 0.43425 0.59363 0.0
H753 H 0.33029 0.77734 0.58485 0.0
H754 H 0.671 0.17987 0.85629 0.0
H755 H 0.63368 0.1726 0.81655 0.0
H756 H 0.68329 0.28264 0.81083 0.0
H757 H 0.7195 0.29002 0.85059 0.0
H758 H 0.61097 0.25375 0.80244 0.0
H759 H 0.71108 0.23468 0.77167 0.0
H760 H 0.749 0.20583 0.7712 0.0
H761 H 0.64911 0.10968 0.7532 0.0
H762 H 0.61047 0.1379 0.75397 0.0
H763 H 0.59705 0.29164 0.67173 0.0
H764 H 0.62038 0.28229 0.71299 0.0
H765 H 0.53917 0.17386 0.7087 0.0
H766 H 0.51507 0.18294 0.66696 0.0
H767 H 0.61679 0.19189 0.72365 0.0
H768 H 0.51906 0.21583 0.74894 0.0
H769 H 0.48482 0.24807 0.74767 0.0
H770 H 0.58471 0.33884 0.77461 0.0
H771 H 0.61976 0.3073 0.77562 0.0
C772 C 0.67399 0.20249 0.8465 0.0
C773 C 0.69827 0.23552 0.8567 0.0
C774 C 0.6527 0.19831 0.82374 0.0
C775 C 0.65576 0.22709 0.81054 0.0
C776 C 0.68017 0.25999 0.82067 0.0
C777 C 0.70105 0.26417 0.84345 0.0
C778 C 0.63366 0.22352 0.78626 0.0
C779 C 0.61242 0.24029 0.78523 0.0
C780 C 0.63456 0.2052 0.76393 0.0
C781 C 0.65782 0.1883 0.7632 0.0
C782 C 0.69716 0.20734 0.76781 0.0
C783 C 0.71879 0.19111 0.76746 0.0
C784 C 0.70146 0.15592 0.76225 0.0
C785 C 0.66248 0.13692 0.75729 0.0
C786 C 0.6407 0.15301 0.75767 0.0
C787 C 0.58397 0.26569 0.67937 0.0
C788 C 0.55394 0.23804 0.66596 0.0
C789 C 0.59743 0.26044 0.70306 0.0
C790 C 0.58135 0.22745 0.71399 0.0
C791 C 0.55191 0.19954 0.70056 0.0
C792 C 0.5381 0.20481 0.6768 0.0
C793 C 0.59524 0.22294 0.73979 0.0
C794 C 0.61484 0.20472 0.74109 0.0
C795 C 0.59331 0.24031 0.76232 0.0
C796 C 0.57209 0.25921 0.76223 0.0
C797 C 0.5338 0.24272 0.75445 0.0
C798 C 0.51424 0.26087 0.75379 0.0
C799 C 0.53259 0.29549 0.76102 0.0
C800 C 0.57052 0.31201 0.76901 0.0
C801 C 0.59024 0.294 0.76967 0.0
H802 H 0.51741 0.30951 0.76047 0.0
H803 H 0.71825 0.1434 0.762 0.0
H804 H 0.30233 0.58181 0.83249 0.0
H805 H 0.33863 0.60876 0.87178 0.0
H806 H 0.36847 0.52953 0.87832 0.0
H807 H 0.3336 0.5032 0.83775 0.0
H808 H 0.33126 0.59137 0.91891 0.0
H809 H 0.45269 0.56001 0.91085 0.0
H810 H 0.48867 0.54985 0.87657 0.0
H811 H 0.4657 0.60995 0.82197 0.0
H812 H 0.43004 0.62085 0.856 0.0
H813 H 0.42028 0.63251 0.03979 0.0
H814 H 0.39366 0.59996 0.99947 0.0
H815 H 0.48601 0.68 0.95515 0.0
H816 H 0.51376 0.71212 0.99587 0.0
H817 H 0.46416 0.61892 0.9331 0.0
H818 H 0.4027 0.6795 0.96211 0.0
H819 H 0.37098 0.69745 0.99438 0.0
H820 H 0.27979 0.59313 1.00128 0.0
H821 H 0.31135 0.57445 0.96939 0.0
C822 C 0.31693 0.57017 0.84196 0.0
C823 C 0.31541 0.54051 0.83158 0.0
C824 C 0.33754 0.58558 0.86469 0.0
C825 C 0.35678 0.57154 0.87804 0.0
C826 C 0.35465 0.5414 0.86813 0.0
C827 C 0.33447 0.52622 0.84499 0.0
C828 C 0.37833 0.58844 0.90246 0.0
C829 C 0.36028 0.59724 0.92192 0.0
C830 C 0.41654 0.5969 0.90641 0.0
C831 C 0.43835 0.5909 0.88591 0.0
C832 C 0.45544 0.57115 0.89156 0.0
C833 C 0.47576 0.56525 0.87216 0.0
C834 C 0.47935 0.57914 0.84708 0.0
C835 C 0.46277 0.59909 0.84137 0.0
C836 C 0.44248 0.60511 0.8607 0.0
C837 C 0.43537 0.64283 0.02152 0.0
C838 C 0.46886 0.67499 0.02088 0.0
C839 C 0.42007 0.62425 0.99847 0.0
C840 C 0.43726 0.63792 0.97416 0.0
C841 C 0.47212 0.669 0.97365 0.0
C842 C 0.48795 0.68735 0.9969 0.0
C843 C 0.41686 0.62142 0.94938 0.0
C844 C 0.43508 0.61278 0.92998 0.0
C845 C 0.37923 0.61427 0.94494 0.0
C846 C 0.35956 0.62553 0.96353 0.0
C847 C 0.37596 0.66036 0.9706 0.0
C848 C 0.35804 0.67067 0.98883 0.0
C849 C 0.32344 0.64643 0.99993 0.0
C850 C 0.30662 0.61186 0.9927 0.0
C851 C 0.32451 0.6014 0.97453 0.0
H852 H 0.30964 0.65445 0.01408 0.0
H853 H 0.49505 0.57451 0.83209 0.0
H854 H 0.80786 0.29281 0.02916 0.0
H855 H 0.81423 0.32365 0.0704 0.0
H856 H 0.80001 0.39952 0.02809 0.0
H857 H 0.79278 0.36861 0.98714 0.0
H858 H 0.86061 0.42676 0.06747 0.0
H859 H 0.72738 0.34256 0.05584 0.0
H860 H 0.6738 0.28385 0.04883 0.0
H861 H 0.70204 0.25023 0.11986 0.0
H862 H 0.75625 0.30867 0.12704 0.0
H863 H 0.81414 0.50966 0.16724 0.0
H864 H 0.8182 0.48093 0.12765 0.0
H865 H 0.79654 0.39238 0.17389 0.0
H866 H 0.79051 0.42028 0.21313 0.0
H867 H 0.75712 0.37041 0.13292 0.0
H868 H 0.88796 0.45355 0.14687 0.0
H869 H 0.94344 0.51114 0.15423 0.0
H870 H 0.92328 0.54562 0.08055 0.0
H871 H 0.86738 0.48834 0.0729 0.0
C872 C 0.80655 0.31627 0.02867 0.0
C873 C 0.79963 0.32821 1.00498 0.0
C874 C 0.81011 0.33379 0.05219 0.0
C875 C 0.80751 0.36381 0.05224 0.0
C876 C 0.80219 0.37648 0.02845 0.0
C877 C 0.79787 0.35867 1.00511 0.0
C878 C 0.80809 0.38111 0.07714 0.0
C879 C 0.83796 0.41461 0.0818 0.0
C880 C 0.77892 0.3649 0.09598 0.0
C881 C 0.74614 0.32987 0.0918 0.0
C882 C 0.72239 0.32257 0.06983 0.0
C883 C 0.69187 0.28936 0.06585 0.0
C884 C 0.68459 0.2633 0.08385 0.0
C885 C 0.70776 0.27043 0.10591 0.0
C886 C 0.73839 0.30359 0.10994 0.0
C887 C 0.81057 0.48418 0.16894 0.0
C888 C 0.80204 0.46725 0.19328 0.0
C889 C 0.81309 0.46779 0.1463 0.0
C890 C 0.80824 0.43453 0.14768 0.0
C891 C 0.80031 0.41792 0.17215 0.0
C892 C 0.79699 0.43397 0.19463 0.0
C893 C 0.80989 0.41641 0.12362 0.0
C894 C 0.78022 0.38267 0.11894 0.0
C895 C 0.83959 0.4323 0.10494 0.0
C896 C 0.87329 0.46673 0.10942 0.0
C897 C 0.89521 0.47348 0.13232 0.0
C898 C 0.92676 0.50606 0.13653 0.0
C899 C 0.93682 0.53204 0.1179 0.0
C900 C 0.91543 0.52548 0.09498 0.0
C901 C 0.88384 0.49295 0.09068 0.0
H902 H 0.96125 0.55725 0.1212 0.0
H903 H 0.66093 0.2376 0.08074 0.0
H904 H 0.28593 0.79468 0.32946 0.0
H905 H 0.31871 0.80106 0.28748 0.0
H906 H 0.40877 0.79632 0.3283 0.0
H907 H 0.37576 0.78926 0.37003 0.0
H908 H 0.43215 0.84817 0.28446 0.0
H909 H 0.35144 0.72668 0.30498 0.0
H910 H 0.29045 0.67681 0.31814 0.0
H911 H 0.23593 0.69195 0.25146 0.0
H912 H 0.29689 0.74214 0.23791 0.0
H913 H 0.51725 0.79937 0.1835 0.0
H914 H 0.49029 0.80779 0.22388 0.0
H915 H 0.38424 0.77534 0.1837 0.0
H916 H 0.4105 0.76539 0.14398 0.0
H917 H 0.36832 0.74531 0.22723 0.0
H918 H 0.45038 0.86285 0.20293 0.0
H919 H 0.51059 0.91417 0.1902 0.0
H920 H 0.56122 0.90987 0.26298 0.0
H921 H 0.50145 0.85822 0.27601 0.0
C922 C 0.3131 0.79574 0.32942 0.0
C923 C 0.32834 0.79132 0.35282 0.0
C924 C 0.33174 0.79932 0.30552 0.0
C925 C 0.36616 0.79915 0.30484 0.0
C926 C 0.38237 0.79668 0.32842 0.0
C927 C 0.36339 0.7924 0.35218 0.0
C928 C 0.38326 0.7979 0.27947 0.0
C929 C 0.41844 0.82571 0.27191 0.0
C930 C 0.36496 0.76885 0.26298 0.0
C931 C 0.32855 0.73827 0.27059 0.0
C932 C 0.3264 0.71946 0.2932 0.0
C933 C 0.29185 0.69113 0.30072 0.0
C934 C 0.25923 0.68129 0.28575 0.0
C935 C 0.26121 0.69964 0.26307 0.0
C936 C 0.29578 0.72798 0.25542 0.0
C937 C 0.48833 0.79442 0.18329 0.0
C938 C 0.46591 0.78151 0.16063 0.0
C939 C 0.47293 0.79938 0.20636 0.0
C940 C 0.43516 0.79252 0.20695 0.0
C941 C 0.41328 0.78063 0.18397 0.0
C942 C 0.42836 0.77496 0.16119 0.0
C943 C 0.41758 0.79586 0.23167 0.0
C944 C 0.38217 0.76818 0.23935 0.0
C945 C 0.4356 0.82532 0.24804 0.0
C946 C 0.47153 0.85648 0.24034 0.0
C947 C 0.47443 0.87271 0.21615 0.0
C948 C 0.50847 0.90188 0.20889 0.0
C949 C 0.53973 0.91522 0.22574 0.0
C950 C 0.53699 0.89948 0.24993 0.0
C951 C 0.50302 0.87028 0.25728 0.0
H952 H 0.56606 0.9378 0.22008 0.0
H953 H 0.23248 0.6594 0.29168 0.0
loop_
_geom_bond_atom_site_label_1
_geom_bond_atom_site_label_2
_geom_bond_distance
_geom_bond_site_symmetry_2
_ccdc_geom_bond_type
Co0 O2 2.143 . S
Co0 O8 2.074 . S
Co0 O11 2.093 . S
Co0 O24 2.097 . S
Co0 N41 2.151 . S
Co0 N49 2.214 . S
Co1 O2 2.160 . S
Co1 O7 2.058 . S
Co1 O17 2.057 . S
Co1 O32 2.037 . S
Co1 N36 2.145 . S
Co1 N57 2.257 . S
O2 Co0 2.143 . S
O2 Co1 2.160 . S
C3 O4 1.278 . S
C3 O11 1.224 . S
O4 C3 1.278 . S
C5 O6 1.245 . S
C5 O17 1.232 . S
O6 C5 1.245 . S
O7 Co1 2.058 . S
O7 C33 1.269 . S
O8 Co0 2.074 . S
O8 C33 1.257 . S
H9 C34 0.930 . S
H10 C40 0.930 . S
O11 Co0 2.093 . S
O11 C3 1.224 . S
H12 C44 0.929 . S
H13 C46 0.930 . S
H14 C47 0.930 . S
H15 C45 0.929 . S
H16 C48 0.928 . S
O17 Co1 2.057 . S
O17 C5 1.232 . S
H18 C37 0.929 . S
H19 C38 0.929 . S
H20 C50 0.931 . S
H21 C42 0.929 . S
H22 C51 0.930 . S
H23 C43 0.931 . S
O24 Co0 2.097 . S
O24 C52 1.214 . S
H25 C53 0.929 . S
H26 C54 0.929 . S
H27 C55 0.930 . S
H28 C56 0.929 . S
H29 C58 0.930 . S
H30 C35 0.930 . S
H31 C39 0.930 . S
O32 Co1 2.037 . S
O32 C52 1.234 . S
C33 O7 1.269 . S
C33 O8 1.257 . S
C34 H9 0.930 . S
C34 C37 1.388 . S
C34 C39 1.418 . S
C35 H30 0.930 . S
C35 C38 1.404 . S
C35 C39 1.353 . S
N36 Co1 2.145 . S
N36 C37 1.397 . S
N36 C38 1.334 . S
C37 H18 0.929 . S
C37 C34 1.388 . S
C37 N36 1.397 . S
C38 H19 0.929 . S
C38 C35 1.404 . S
C38 N36 1.334 . S
C39 H31 0.930 . S
C39 C34 1.418 . S
C39 C35 1.353 . S
C40 H10 0.930 . S
C40 N41 1.330 . S
C40 C42 1.446 . S
N41 Co0 2.151 . S
N41 C40 1.330 . S
N41 C45 1.418 . S
C42 H21 0.929 . S
C42 C40 1.446 . S
C42 C43 1.332 . S
C43 H23 0.931 . S
C43 C42 1.332 . S
C43 C44 1.267 . S
C44 H12 0.929 . S
C44 C43 1.267 . S
C44 C45 1.251 . S
C45 H15 0.929 . S
C45 N41 1.418 . S
C45 C44 1.251 . S
C46 H13 0.930 . S
C46 C48 1.406 . S
C46 C51 1.261 . S
C47 H14 0.930 . S
C47 N49 1.325 . S
C47 C50 1.357 . S
C48 H16 0.928 . S
C48 C46 1.406 . S
C48 N49 1.261 . S
N49 Co0 2.214 . S
N49 C47 1.325 . S
N49 C48 1.261 . S
C50 H20 0.931 . S
C50 C47 1.357 . S
C50 C51 1.312 . S
C51 H22 0.930 . S
C51 C46 1.261 . S
C51 C50 1.312 . S
C52 O24 1.214 . S
C52 O32 1.234 . S
C53 H25 0.929 . S
C53 C56 1.391 . S
C53 C58 1.391 . S
C54 H26 0.929 . S
C54 C55 1.390 . S
C54 N57 1.391 . S
C55 H27 0.930 . S
C55 C54 1.390 . S
C55 C56 1.392 . S
C56 H28 0.929 . S
C56 C53 1.391 . S
C56 C55 1.392 . S
N57 Co1 2.257 . S
N57 C54 1.391 . S
N57 C58 1.388 . S
C58 H29 0.930 . S
C58 C53 1.391 . S
C58 N57 1.388 . S
Co59 O61 2.143 . S
Co59 O67 2.074 . S
Co59 O70 2.093 . S
Co59 O83 2.097 . S
Co59 N100 2.151 . S
Co59 N108 2.214 . S
Co60 O61 2.160 . S
Co60 O66 2.058 . S
Co60 O76 2.057 . S
Co60 O91 2.037 . S
Co60 N95 2.145 . S
Co60 N116 2.257 . S
O61 Co59 2.143 . S
O61 Co60 2.160 . S
C62 O63 1.278 . S
C62 O70 1.224 . S
O63 C62 1.278 . S
C64 O65 1.245 . S
C64 O76 1.232 . S
O65 C64 1.245 . S
O66 Co60 2.058 . S
O66 C92 1.269 . S
O67 Co59 2.074 . S
O67 C92 1.257 . S
H68 C93 0.930 . S
H69 C99 0.930 . S
O70 Co59 2.093 . S
O70 C62 1.224 . S
H71 C103 0.929 . S
H72 C105 0.930 . S
H73 C106 0.930 . S
H74 C104 0.929 . S
H75 C107 0.928 . S
O76 Co60 2.057 . S
O76 C64 1.232 . S
H77 C96 0.929 . S
H78 C97 0.929 . S
H79 C109 0.931 . S
H80 C101 0.929 . S
H81 C110 0.930 . S
H82 C102 0.931 . S
O83 Co59 2.097 . S
O83 C111 1.214 . S
H84 C112 0.929 . S
H85 C113 0.929 . S
H86 C114 0.930 . S
H87 C115 0.929 . S
H88 C117 0.930 . S
H89 C94 0.930 . S
H90 C98 0.930 . S
O91 Co60 2.037 . S
O91 C111 1.234 . S
C92 O66 1.269 . S
C92 O67 1.257 . S
C93 H68 0.930 . S
C93 C96 1.388 . S
C93 C98 1.418 . S
C94 H89 0.930 . S
C94 C97 1.404 . S
C94 C98 1.353 . S
N95 Co60 2.145 . S
N95 C96 1.397 . S
N95 C97 1.334 . S
C96 H77 0.929 . S
C96 C93 1.388 . S
C96 N95 1.397 . S
C97 H78 0.929 . S
C97 C94 1.404 . S
C97 N95 1.334 . S
C98 H90 0.930 . S
C98 C93 1.418 . S
C98 C94 1.353 . S
C99 H69 0.930 . S
C99 N100 1.330 . S
C99 C101 1.446 . S
N100 Co59 2.151 . S
N100 C99 1.330 . S
N100 C104 1.418 . S
C101 H80 0.929 . S
C101 C99 1.446 . S
C101 C102 1.332 . S
C102 H82 0.931 . S
C102 C101 1.332 . S
C102 C103 1.267 . S
C103 H71 0.929 . S
C103 C102 1.267 . S
C103 C104 1.251 . S
C104 H74 0.929 . S
C104 N100 1.418 . S
C104 C103 1.251 . S
C105 H72 0.930 . S
C105 C107 1.406 . S
C105 C110 1.261 . S
C106 H73 0.930 . S
C106 N108 1.325 . S
C106 C109 1.357 . S
C107 H75 0.928 . S
C107 C105 1.406 . S
C107 N108 1.261 . S
N108 Co59 2.214 . S
N108 C106 1.325 . S
N108 C107 1.261 . S
C109 H79 0.931 . S
C109 C106 1.357 . S
C109 C110 1.312 . S
C110 H81 0.930 . S
C110 C105 1.261 . S
C110 C109 1.312 . S
C111 O83 1.214 . S
C111 O91 1.234 . S
C112 H84 0.929 . S
C112 C115 1.391 . S
C112 C117 1.391 . S
C113 H85 0.929 . S
C113 C114 1.390 . S
C113 N116 1.391 . S
C114 H86 0.930 . S
C114 C113 1.390 . S
C114 C115 1.392 . S
C115 H87 0.929 . S
C115 C112 1.391 . S
C115 C114 1.392 . S
N116 Co60 2.257 . S
N116 C113 1.391 . S
N116 C117 1.388 . S
C117 H88 0.930 . S
C117 C112 1.391 . S
C117 N116 1.388 . S
Co118 O120 2.143 . S
Co118 O126 2.074 . S
Co118 O129 2.093 . S
Co118 O142 2.097 . S
Co118 N159 2.151 . S
Co118 N167 2.214 . S
Co119 O120 2.160 . S
Co119 O125 2.058 . S
Co119 O135 2.057 . S
Co119 O150 2.037 . S
Co119 N154 2.145 . S
Co119 N175 2.257 . S
O120 Co118 2.143 . S
O120 Co119 2.160 . S
C121 O122 1.278 . S
C121 O129 1.224 . S
O122 C121 1.278 . S
C123 O124 1.245 . S
C123 O135 1.232 . S
O124 C123 1.245 . S
O125 Co119 2.058 . S
O125 C151 1.269 . S
O126 Co118 2.074 . S
O126 C151 1.257 . S
H127 C152 0.930 . S
H128 C158 0.930 . S
O129 Co118 2.093 . S
O129 C121 1.224 . S
H130 C162 0.929 . S
H131 C164 0.930 . S
H132 C165 0.930 . S
H133 C163 0.929 . S
H134 C166 0.928 . S
O135 Co119 2.057 . S
O135 C123 1.232 . S
H136 C155 0.929 . S
H137 C156 0.929 . S
H138 C168 0.931 . S
H139 C160 0.929 . S
H140 C169 0.930 . S
H141 C161 0.931 . S
O142 Co118 2.097 . S
O142 C170 1.214 . S
H143 C171 0.929 1_554 S
H144 C172 0.929 . S
H145 C173 0.930 . S
H146 C174 0.929 . S
H147 C176 0.930 . S
H148 C153 0.930 . S
H149 C157 0.930 . S
O150 Co119 2.037 . S
O150 C170 1.234 . S
C151 O125 1.269 . S
C151 O126 1.257 . S
C152 H127 0.930 . S
C152 C155 1.388 . S
C152 C157 1.418 . S
C153 H148 0.930 . S
C153 C156 1.404 . S
C153 C157 1.353 . S
N154 Co119 2.145 . S
N154 C155 1.397 . S
N154 C156 1.334 . S
C155 H136 0.929 . S
C155 C152 1.388 . S
C155 N154 1.397 . S
C156 H137 0.929 . S
C156 C153 1.404 . S
C156 N154 1.334 . S
C157 H149 0.930 . S
C157 C152 1.418 . S
C157 C153 1.353 . S
C158 H128 0.930 . S
C158 N159 1.330 . S
C158 C160 1.446 . S
N159 Co118 2.151 . S
N159 C158 1.330 . S
N159 C163 1.418 . S
C160 H139 0.929 . S
C160 C158 1.446 . S
C160 C161 1.332 . S
C161 H141 0.931 . S
C161 C160 1.332 . S
C161 C162 1.267 . S
C162 H130 0.929 . S
C162 C161 1.267 . S
C162 C163 1.251 . S
C163 H133 0.929 . S
C163 N159 1.418 . S
C163 C162 1.251 . S
C164 H131 0.930 . S
C164 C166 1.406 . S
C164 C169 1.261 . S
C165 H132 0.930 . S
C165 N167 1.325 . S
C165 C168 1.357 . S
C166 H134 0.928 . S
C166 C164 1.406 . S
C166 N167 1.261 . S
N167 Co118 2.214 . S
N167 C165 1.325 . S
N167 C166 1.261 . S
C168 H138 0.931 . S
C168 C165 1.357 . S
C168 C169 1.312 . S
C169 H140 0.930 . S
C169 C164 1.261 . S
C169 C168 1.312 . S
C170 O142 1.214 . S
C170 O150 1.234 . S
C171 H143 0.929 1_556 S
C171 C174 1.391 . S
C171 C176 1.391 . S
C172 H144 0.929 . S
C172 C173 1.390 . S
C172 N175 1.391 . S
C173 H145 0.930 . S
C173 C172 1.390 . S
C173 C174 1.392 . S
C174 H146 0.929 . S
C174 C171 1.391 . S
C174 C173 1.392 . S
N175 Co119 2.257 . S
N175 C172 1.391 . S
N175 C176 1.388 . S
C176 H147 0.930 . S
C176 C171 1.391 . S
C176 N175 1.388 . S
Co177 O179 2.143 . S
Co177 O185 2.074 . S
Co177 O188 2.093 . S
Co177 O201 2.097 . S
Co177 N218 2.151 . S
Co177 N226 2.214 . S
Co178 O179 2.160 . S
Co178 O184 2.058 . S
Co178 O194 2.057 . S
Co178 O209 2.037 . S
Co178 N213 2.145 . S
Co178 N234 2.257 . S
O179 Co177 2.143 . S
O179 Co178 2.160 . S
C180 O181 1.278 . S
C180 O188 1.224 . S
O181 C180 1.278 . S
C182 O183 1.245 . S
C182 O194 1.232 . S
O183 C182 1.245 . S
O184 Co178 2.058 . S
O184 C210 1.269 . S
O185 Co177 2.074 . S
O185 C210 1.257 . S
H186 C211 0.930 . S
H187 C217 0.930 . S
O188 Co177 2.093 . S
O188 C180 1.224 . S
H189 C221 0.929 . S
H190 C223 0.930 . S
H191 C224 0.930 . S
H192 C222 0.929 . S
H193 C225 0.928 . S
O194 Co178 2.057 . S
O194 C182 1.232 . S
H195 C214 0.929 . S
H196 C215 0.929 . S
H197 C227 0.931 . S
H198 C219 0.929 . S
H199 C228 0.930 . S
H200 C220 0.931 . S
O201 Co177 2.097 . S
O201 C229 1.214 . S
H202 C230 0.929 . S
H203 C231 0.929 . S
H204 C232 0.930 . S
H205 C233 0.929 . S
H206 C235 0.930 . S
H207 C212 0.930 . S
H208 C216 0.930 . S
O209 Co178 2.037 . S
O209 C229 1.234 . S
C210 O184 1.269 . S
C210 O185 1.257 . S
C211 H186 0.930 . S
C211 C214 1.388 . S
C211 C216 1.418 . S
C212 H207 0.930 . S
C212 C215 1.404 . S
C212 C216 1.353 . S
N213 Co178 2.145 . S
N213 C214 1.397 . S
N213 C215 1.334 . S
C214 H195 0.929 . S
C214 C211 1.388 . S
C214 N213 1.397 . S
C215 H196 0.929 . S
C215 C212 1.404 . S
C215 N213 1.334 . S
C216 H208 0.930 . S
C216 C211 1.418 . S
C216 C212 1.353 . S
C217 H187 0.930 . S
C217 N218 1.330 . S
C217 C219 1.446 . S
N218 Co177 2.151 . S
N218 C217 1.330 . S
N218 C222 1.418 . S
C219 H198 0.929 . S
C219 C217 1.446 . S
C219 C220 1.332 . S
C220 H200 0.931 . S
C220 C219 1.332 . S
C220 C221 1.267 . S
C221 H189 0.929 . S
C221 C220 1.267 . S
C221 C222 1.251 . S
C222 H192 0.929 . S
C222 N218 1.418 . S
C222 C221 1.251 . S
C223 H190 0.930 . S
C223 C225 1.406 . S
C223 C228 1.261 . S
C224 H191 0.930 . S
C224 N226 1.325 . S
C224 C227 1.357 . S
C225 H193 0.928 . S
C225 C223 1.406 . S
C225 N226 1.261 . S
N226 Co177 2.214 . S
N226 C224 1.325 . S
N226 C225 1.261 . S
C227 H197 0.931 . S
C227 C224 1.357 . S
C227 C228 1.312 . S
C228 H199 0.930 . S
C228 C223 1.261 . S
C228 C227 1.312 . S
C229 O201 1.214 . S
C229 O209 1.234 . S
C230 H202 0.929 . S
C230 C233 1.391 . S
C230 C235 1.391 . S
C231 H203 0.929 . S
C231 C232 1.390 . S
C231 N234 1.391 . S
C232 H204 0.930 . S
C232 C231 1.390 . S
C232 C233 1.392 . S
C233 H205 0.929 . S
C233 C230 1.391 . S
C233 C232 1.392 . S
N234 Co178 2.257 . S
N234 C231 1.391 . S
N234 C235 1.388 . S
C235 H206 0.930 . S
C235 C230 1.391 . S
C235 N234 1.388 . S
Co236 O238 2.143 . S
Co236 O244 2.074 . S
Co236 O247 2.093 . S
Co236 O260 2.097 . S
Co236 N277 2.151 . S
Co236 N285 2.214 . S
Co237 O238 2.160 . S
Co237 O243 2.058 . S
Co237 O253 2.057 . S
Co237 O268 2.037 . S
Co237 N272 2.145 . S
Co237 N293 2.257 . S
O238 Co236 2.143 . S
O238 Co237 2.160 . S
C239 O240 1.278 . S
C239 O247 1.224 . S
O240 C239 1.278 . S
C241 O242 1.245 . S
C241 O253 1.232 . S
O242 C241 1.245 . S
O243 Co237 2.058 . S
O243 C269 1.269 . S
O244 Co236 2.074 . S
O244 C269 1.257 . S
H245 C270 0.930 . S
H246 C276 0.930 . S
O247 Co236 2.093 . S
O247 C239 1.224 . S
H248 C280 0.929 . S
H249 C282 0.930 . S
H250 C283 0.930 . S
H251 C281 0.929 . S
H252 C284 0.928 . S
O253 Co237 2.057 . S
O253 C241 1.232 . S
H254 C273 0.929 . S
H255 C274 0.929 . S
H256 C286 0.931 . S
H257 C278 0.929 . S
H258 C287 0.930 . S
H259 C279 0.931 . S
O260 Co236 2.097 . S
O260 C288 1.214 . S
H261 C289 0.929 . S
H262 C290 0.929 . S
H263 C291 0.930 . S
H264 C292 0.929 . S
H265 C294 0.930 . S
H266 C271 0.930 . S
H267 C275 0.930 . S
O268 Co237 2.037 . S
O268 C288 1.234 . S
C269 O243 1.269 . S
C269 O244 1.257 . S
C270 H245 0.930 . S
C270 C273 1.388 . S
C270 C275 1.418 . S
C271 H266 0.930 . S
C271 C274 1.404 . S
C271 C275 1.353 . S
N272 Co237 2.145 . S
N272 C273 1.397 . S
N272 C274 1.334 . S
C273 H254 0.929 . S
C273 C270 1.388 . S
C273 N272 1.397 . S
C274 H255 0.929 . S
C274 C271 1.404 . S
C274 N272 1.334 . S
C275 H267 0.930 . S
C275 C270 1.418 . S
C275 C271 1.353 . S
C276 H246 0.930 . S
C276 N277 1.330 . S
C276 C278 1.446 . S
N277 Co236 2.151 . S
N277 C276 1.330 . S
N277 C281 1.418 . S
C278 H257 0.929 . S
C278 C276 1.446 . S
C278 C279 1.332 . S
C279 H259 0.931 . S
C279 C278 1.332 . S
C279 C280 1.267 . S
C280 H248 0.929 . S
C280 C279 1.267 . S
C280 C281 1.251 . S
C281 H251 0.929 . S
C281 N277 1.418 . S
C281 C280 1.251 . S
C282 H249 0.930 . S
C282 C284 1.406 . S
C282 C287 1.261 . S
C283 H250 0.930 . S
C283 N285 1.325 . S
C283 C286 1.357 . S
C284 H252 0.928 . S
C284 C282 1.406 . S
C284 N285 1.261 . S
N285 Co236 2.214 . S
N285 C283 1.325 . S
N285 C284 1.261 . S
C286 H256 0.931 . S
C286 C283 1.357 . S
C286 C287 1.312 . S
C287 H258 0.930 . S
C287 C282 1.261 . S
C287 C286 1.312 . S
C288 O260 1.214 . S
C288 O268 1.234 . S
C289 H261 0.929 . S
C289 C292 1.391 . S
C289 C294 1.391 . S
C290 H262 0.929 . S
C290 C291 1.390 . S
C290 N293 1.391 . S
C291 H263 0.930 . S
C291 C290 1.390 . S
C291 C292 1.392 . S
C292 H264 0.929 . S
C292 C289 1.391 . S
C292 C291 1.392 . S
N293 Co237 2.257 . S
N293 C290 1.391 . S
N293 C294 1.388 . S
C294 H265 0.930 . S
C294 C289 1.391 . S
C294 N293 1.388 . S
Co295 O297 2.143 . S
Co295 O303 2.074 . S
Co295 O306 2.093 . S
Co295 O319 2.097 . S
Co295 N336 2.151 . S
Co295 N344 2.214 . S
Co296 O297 2.160 . S
Co296 O302 2.058 . S
Co296 O312 2.057 . S
Co296 O327 2.037 . S
Co296 N331 2.145 . S
Co296 N352 2.257 . S
O297 Co295 2.143 . S
O297 Co296 2.160 . S
C298 O299 1.278 . S
C298 O306 1.224 . S
O299 C298 1.278 . S
C300 O301 1.245 . S
C300 O312 1.232 . S
O301 C300 1.245 . S
O302 Co296 2.058 . S
O302 C328 1.269 . S
O303 Co295 2.074 . S
O303 C328 1.257 . S
H304 C329 0.930 . S
H305 C335 0.930 . S
O306 Co295 2.093 . S
O306 C298 1.224 . S
H307 C339 0.929 . S
H308 C341 0.930 . S
H309 C342 0.930 . S
H310 C340 0.929 . S
H311 C343 0.928 . S
O312 Co296 2.057 . S
O312 C300 1.232 . S
H313 C332 0.929 . S
H314 C333 0.929 . S
H315 C345 0.931 . S
H316 C337 0.929 . S
H317 C346 0.930 . S
H318 C338 0.931 . S
O319 Co295 2.097 . S
O319 C347 1.214 . S
H320 C348 0.929 . S
H321 C349 0.929 . S
H322 C350 0.930 . S
H323 C351 0.929 . S
H324 C353 0.930 . S
H325 C330 0.930 . S
H326 C334 0.930 . S
O327 Co296 2.037 . S
O327 C347 1.234 . S
C328 O302 1.269 . S
C328 O303 1.257 . S
C329 H304 0.930 . S
C329 C332 1.388 . S
C329 C334 1.418 . S
C330 H325 0.930 . S
C330 C333 1.404 . S
C330 C334 1.353 . S
N331 Co296 2.145 . S
N331 C332 1.397 . S
N331 C333 1.334 . S
C332 H313 0.929 . S
C332 C329 1.388 . S
C332 N331 1.397 . S
C333 H314 0.929 . S
C333 C330 1.404 . S
C333 N331 1.334 . S
C334 H326 0.930 . S
C334 C329 1.418 . S
C334 C330 1.353 . S
C335 H305 0.930 . S
C335 N336 1.330 . S
C335 C337 1.446 . S
N336 Co295 2.151 . S
N336 C335 1.330 . S
N336 C340 1.418 . S
C337 H316 0.929 . S
C337 C335 1.446 . S
C337 C338 1.332 . S
C338 H318 0.931 . S
C338 C337 1.332 . S
C338 C339 1.267 . S
C339 H307 0.929 . S
C339 C338 1.267 . S
C339 C340 1.251 . S
C340 H310 0.929 . S
C340 N336 1.418 . S
C340 C339 1.251 . S
C341 H308 0.930 . S
C341 C343 1.406 . S
C341 C346 1.261 . S
C342 H309 0.930 . S
C342 N344 1.325 . S
C342 C345 1.357 . S
C343 H311 0.928 . S
C343 C341 1.406 . S
C343 N344 1.261 . S
N344 Co295 2.214 . S
N344 C342 1.325 . S
N344 C343 1.261 . S
C345 H315 0.931 . S
C345 C342 1.357 . S
C345 C346 1.312 . S
C346 H317 0.930 . S
C346 C341 1.261 . S
C346 C345 1.312 . S
C347 O319 1.214 . S
C347 O327 1.234 . S
C348 H320 0.929 . S
C348 C351 1.391 . S
C348 C353 1.391 . S
C349 H321 0.929 . S
C349 C350 1.390 . S
C349 N352 1.391 . S
C350 H322 0.930 . S
C350 C349 1.390 . S
C350 C351 1.392 . S
C351 H323 0.929 . S
C351 C348 1.391 . S
C351 C350 1.392 . S
N352 Co296 2.257 . S
N352 C349 1.391 . S
N352 C353 1.388 . S
C353 H324 0.930 . S
C353 C348 1.391 . S
C353 N352 1.388 . S
H354 C372 0.951 . S
H355 C374 0.951 . S
H356 C376 0.950 . S
H357 C377 0.950 . S
H358 C379 0.950 . S
H359 C382 0.950 . S
H360 C383 0.950 . S
H361 C385 0.950 1_565 S
H362 C386 0.950 . S
H363 C387 0.951 . S
H364 C389 0.951 . S
H365 C391 0.950 . S
H366 C392 0.950 . S
H367 C394 0.950 . S
H368 C397 0.950 . S
H369 C398 0.950 . S
H370 C400 0.975 . S
H371 C401 0.950 . S
C372 H354 0.951 . S
C372 C373 1.366 . S
C372 C374 1.388 . S
C373 C372 1.366 . S
C373 C377 1.385 . S
C374 H355 0.951 . S
C374 C372 1.388 . S
C374 C375 1.366 . S
C375 C374 1.366 . S
C375 C376 1.414 . S
C375 C378 1.499 . S
C376 H356 0.950 . S
C376 C375 1.414 . S
C376 C377 1.374 . S
C377 H357 0.950 . S
C377 C373 1.385 . S
C377 C376 1.374 . S
C378 C375 1.499 . S
C378 C379 1.373 . S
C378 C380 1.389 . S
C379 H358 0.950 . S
C379 C378 1.373 . S
C379 C395 1.377 1_545 S
C380 C378 1.389 . S
C380 C381 1.524 . S
C380 C394 1.377 1_545 S
C381 C380 1.524 . S
C381 C382 1.397 . S
C381 C386 1.363 1_545 S
C382 H359 0.950 . S
C382 C381 1.397 . S
C382 C383 1.334 . S
C383 H360 0.950 . S
C383 C382 1.334 . S
C383 C384 1.287 . S
C384 C383 1.287 . S
C384 C385 1.524 . S
C384 H403 0.913 . S
C385 H361 0.950 1_545 S
C385 C384 1.524 . S
C385 C386 1.415 1_545 S
C386 H362 0.950 . S
C386 C381 1.363 1_565 S
C386 C385 1.415 1_565 S
C387 H363 0.951 . S
C387 C388 1.366 . S
C387 C389 1.388 . S
C388 C387 1.366 . S
C388 C392 1.385 . S
C389 H364 0.951 . S
C389 C387 1.388 . S
C389 C390 1.366 . S
C390 C389 1.366 . S
C390 C391 1.414 . S
C390 C393 1.499 . S
C391 H365 0.950 . S
C391 C390 1.414 . S
C391 C392 1.374 . S
C392 H366 0.950 . S
C392 C388 1.385 . S
C392 C391 1.374 . S
C393 C390 1.499 . S
C393 C394 1.373 . S
C393 C395 1.389 . S
C394 H367 0.950 . S
C394 C380 1.377 1_565 S
C394 C393 1.373 . S
C395 C379 1.377 1_565 S
C395 C393 1.389 . S
C395 C396 1.524 . S
C396 C395 1.524 . S
C396 C397 1.397 . S
C396 C401 1.363 1_565 S
C397 H368 0.950 . S
C397 C396 1.397 . S
C397 C398 1.334 . S
C398 H369 0.950 . S
C398 C397 1.334 . S
C398 C399 1.287 . S
C399 C398 1.287 . S
C399 C400 1.507 1_565 S
C399 H402 0.999 . S
C400 H370 0.975 . S
C400 C399 1.507 1_545 S
C400 C401 1.405 . S
C401 H371 0.950 . S
C401 C396 1.363 1_545 S
C401 C400 1.405 . S
H402 C399 0.999 . S
H403 C384 0.913 . S
H404 C422 0.951 . S
H405 C424 0.951 . S
H406 C426 0.950 . S
H407 C427 0.950 . S
H408 C429 0.950 . S
H409 C432 0.950 . S
H410 C433 0.950 . S
H411 C435 0.950 . S
H412 C436 0.950 . S
H413 C437 0.951 . S
H414 C439 0.951 . S
H415 C441 0.950 . S
H416 C442 0.950 . S
H417 C444 0.950 . S
H418 C447 0.950 . S
H419 C448 0.950 . S
H420 C450 0.950 . S
H421 C451 0.950 . S
C422 H404 0.951 . S
C422 C423 1.366 . S
C422 C424 1.388 . S
C423 C422 1.366 . S
C423 C427 1.385 . S
C424 H405 0.951 . S
C424 C422 1.388 . S
C424 C425 1.366 . S
C425 C424 1.366 . S
C425 C426 1.414 . S
C425 C428 1.499 . S
C426 H406 0.950 . S
C426 C425 1.414 . S
C426 C427 1.374 . S
C427 H407 0.950 . S
C427 C423 1.385 . S
C427 C426 1.374 . S
C428 C425 1.499 . S
C428 C429 1.373 . S
C428 C430 1.389 . S
C429 H408 0.950 . S
C429 C428 1.373 . S
C429 C445 1.377 . S
C430 C428 1.389 . S
C430 C431 1.524 . S
C430 C444 1.377 . S
C431 C430 1.524 . S
C431 C432 1.397 . S
C431 C436 1.363 . S
C432 H409 0.950 . S
C432 C431 1.397 . S
C432 C433 1.334 . S
C433 H410 0.950 . S
C433 C432 1.334 . S
C433 C434 1.287 . S
C434 C433 1.287 . S
C434 C435 1.524 . S
C434 H453 0.913 . S
C435 H411 0.950 . S
C435 C434 1.524 . S
C435 C436 1.415 . S
C436 H412 0.950 . S
C436 C431 1.363 . S
C436 C435 1.415 . S
C437 H413 0.951 . S
C437 C438 1.366 . S
C437 C439 1.388 . S
C438 C437 1.366 . S
C438 C442 1.385 . S
C439 H414 0.951 . S
C439 C437 1.388 . S
C439 C440 1.366 . S
C440 C439 1.366 . S
C440 C441 1.414 . S
C440 C443 1.499 . S
C441 H415 0.950 . S
C441 C440 1.414 . S
C441 C442 1.374 . S
C442 H416 0.950 . S
C442 C438 1.385 . S
C442 C441 1.374 . S
C443 C440 1.499 . S
C443 C444 1.373 . S
C443 C445 1.389 . S
C444 H417 0.950 . S
C444 C430 1.377 . S
C444 C443 1.373 . S
C445 C429 1.377 . S
C445 C443 1.389 . S
C445 C446 1.524 . S
C446 C445 1.524 . S
C446 C447 1.397 . S
C446 C451 1.363 . S
C447 H418 0.950 . S
C447 C446 1.397 . S
C447 C448 1.334 . S
C448 H419 0.950 . S
C448 C447 1.334 . S
C448 C449 1.287 . S
C449 C448 1.287 . S
C449 C450 1.524 . S
C449 H452 0.999 . S
C450 H420 0.950 . S
C450 C449 1.524 . S
C450 C451 1.415 . S
C451 H421 0.950 . S
C451 C446 1.363 . S
C451 C450 1.415 . S
H452 C449 0.999 . S
H453 C434 0.913 . S
H454 C472 0.951 . S
H455 C474 0.951 . S
H456 C476 0.950 . S
H457 C477 0.950 . S
H458 C479 0.950 . S
H459 C482 0.950 . S
H460 C483 0.950 . S
H461 C485 0.950 . S
H462 C486 0.950 . S
H463 C487 0.951 . S
H464 C489 0.951 . S
H465 C491 0.950 . S
H466 C492 0.950 . S
H467 C494 0.950 . S
H468 C497 0.950 . S
H469 C498 0.950 . S
H470 C500 0.950 . S
H471 C501 0.950 . S
C472 H454 0.951 . S
C472 C473 1.366 . S
C472 C474 1.388 . S
C473 C472 1.366 . S
C473 C477 1.385 . S
C474 H455 0.951 . S
C474 C472 1.388 . S
C474 C475 1.366 . S
C475 C474 1.366 . S
C475 C476 1.414 . S
C475 C478 1.499 . S
C476 H456 0.950 . S
C476 C475 1.414 . S
C476 C477 1.374 . S
C477 H457 0.950 . S
C477 C473 1.385 . S
C477 C476 1.374 . S
C478 C475 1.499 . S
C478 C479 1.373 . S
C478 C480 1.389 . S
C479 H458 0.950 . S
C479 C478 1.373 . S
C479 C495 1.377 1_655 S
C480 C478 1.389 . S
C480 C481 1.524 . S
C480 C494 1.377 1_655 S
C481 C480 1.524 . S
C481 C482 1.397 . S
C481 C486 1.363 . S
C482 H459 0.950 . S
C482 C481 1.397 . S
C482 C483 1.334 . S
C483 H460 0.950 . S
C483 C482 1.334 . S
C483 C484 1.287 . S
C484 C483 1.287 . S
C484 C485 1.524 . S
C484 H503 0.913 . S
C485 H461 0.950 . S
C485 C484 1.524 . S
C485 C486 1.415 . S
C486 H462 0.950 . S
C486 C481 1.363 . S
C486 C485 1.415 . S
C487 H463 0.951 . S
C487 C488 1.366 . S
C487 C489 1.388 . S
C488 C487 1.366 . S
C488 C492 1.385 . S
C489 H464 0.951 . S
C489 C487 1.388 . S
C489 C490 1.366 . S
C490 C489 1.366 . S
C490 C491 1.414 . S
C490 C493 1.499 . S
C491 H465 0.950 . S
C491 C490 1.414 . S
C491 C492 1.374 . S
C492 H466 0.950 . S
C492 C488 1.385 . S
C492 C491 1.374 . S
C493 C490 1.499 . S
C493 C494 1.373 . S
C493 C495 1.389 . S
C494 H467 0.950 . S
C494 C480 1.377 1_455 S
C494 C493 1.373 . S
C495 C479 1.377 1_455 S
C495 C493 1.389 . S
C495 C496 1.524 . S
C496 C495 1.524 . S
C496 C497 1.397 . S
C496 C501 1.363 . S
C497 H468 0.950 . S
C497 C496 1.397 . S
C497 C498 1.334 . S
C498 H469 0.950 . S
C498 C497 1.334 . S
C498 C499 1.287 . S
C499 C498 1.287 . S
C499 C500 1.524 . S
C499 H502 0.999 . S
C500 H470 0.950 . S
C500 C499 1.524 . S
C500 C501 1.415 . S
C501 H471 0.950 . S
C501 C496 1.363 . S
C501 C500 1.415 . S
H502 C499 0.999 . S
H503 C484 0.913 . S
H504 C522 0.951 . S
H505 C524 0.951 . S
H506 C526 0.950 1_556 S
H507 C527 0.950 . S
H508 C529 0.950 . S
H509 C532 0.945 1_556 S
H510 C533 0.950 1_556 S
H511 C535 0.950 . S
H512 C536 0.950 1_545 S
H513 C537 0.951 . S
H514 C539 0.951 . S
H515 C541 0.950 1_554 S
H516 C542 0.950 . S
H517 C544 0.950 . S
H518 C547 0.950 . S
H519 C548 0.952 . S
H520 C550 0.950 . S
H521 C551 0.950 1_565 S
C522 H504 0.951 . S
C522 C523 1.366 . S
C522 C524 1.388 . S
C523 C522 1.366 . S
C523 C527 1.385 . S
C524 H505 0.951 . S
C524 C522 1.388 . S
C524 C525 1.366 . S
C525 C524 1.366 . S
C525 C526 1.414 . S
C525 C528 1.499 . S
C526 H506 0.950 1_554 S
C526 C525 1.414 . S
C526 C527 1.374 . S
C527 H507 0.950 . S
C527 C523 1.385 . S
C527 C526 1.374 . S
C528 C525 1.499 . S
C528 C529 1.373 . S
C528 C530 1.389 . S
C529 H508 0.950 . S
C529 C528 1.373 . S
C529 C545 1.377 1_564 S
C530 C528 1.389 . S
C530 C531 1.524 . S
C530 C544 1.377 1_564 S
C531 C530 1.524 . S
C531 C532 1.400 . S
C531 C536 1.363 . S
C532 H509 0.945 1_554 S
C532 C531 1.400 . S
C532 C533 1.335 . S
C533 H510 0.950 1_554 S
C533 C532 1.335 . S
C533 C534 1.287 . S
C534 C533 1.287 . S
C534 C535 1.524 . S
C534 H553 0.913 . S
C535 H511 0.950 . S
C535 C534 1.524 . S
C535 C536 1.415 . S
C536 H512 0.950 1_565 S
C536 C531 1.363 . S
C536 C535 1.415 . S
C537 H513 0.951 . S
C537 C538 1.366 . S
C537 C539 1.388 . S
C538 C537 1.366 . S
C538 C542 1.385 . S
C539 H514 0.951 . S
C539 C537 1.388 . S
C539 C540 1.366 . S
C540 C539 1.366 . S
C540 C541 1.414 . S
C540 C543 1.499 . S
C541 H515 0.950 1_556 S
C541 C540 1.414 . S
C541 C542 1.374 . S
C542 H516 0.950 . S
C542 C538 1.385 . S
C542 C541 1.374 . S
C543 C540 1.499 . S
C543 C544 1.373 . S
C543 C545 1.389 . S
C544 H517 0.950 . S
C544 C530 1.377 1_546 S
C544 C543 1.373 . S
C545 C529 1.377 1_546 S
C545 C543 1.389 . S
C545 C546 1.524 . S
C546 C545 1.524 . S
C546 C547 1.397 1_556 S
C546 C551 1.363 . S
C547 H518 0.950 . S
C547 C546 1.397 1_554 S
C547 C548 1.335 . S
C548 H519 0.952 . S
C548 C547 1.335 . S
C548 C549 1.284 1_554 S
C549 C548 1.284 1_556 S
C549 C550 1.524 . S
C549 H552 0.999 . S
C550 H520 0.950 . S
C550 C549 1.524 . S
C550 C551 1.415 . S
C551 H521 0.950 1_545 S
C551 C546 1.363 . S
C551 C550 1.415 . S
H552 C549 0.999 . S
H553 C534 0.913 . S
H554 C572 0.951 . S
H555 C574 0.951 . S
H556 C576 0.950 . S
H557 C577 0.950 . S
H558 C579 0.950 . S
H559 C582 0.950 . S
H560 C583 0.950 . S
H561 C585 0.950 . S
H562 C586 0.950 . S
H563 C587 0.951 . S
H564 C589 0.951 . S
H565 C591 0.950 . S
H566 C592 0.950 . S
H567 C594 0.950 . S
H568 C597 0.950 . S
H569 C598 0.950 . S
H570 C600 0.950 . S
H571 C601 0.950 . S
C572 H554 0.951 . S
C572 C573 1.366 . S
C572 C574 1.388 . S
C573 C572 1.366 . S
C573 C577 1.385 . S
C574 H555 0.951 . S
C574 C572 1.388 . S
C574 C575 1.366 . S
C575 C574 1.366 . S
C575 C576 1.414 . S
C575 C578 1.499 . S
C576 H556 0.950 . S
C576 C575 1.414 . S
C576 C577 1.374 . S
C577 H557 0.950 . S
C577 C573 1.385 . S
C577 C576 1.374 . S
C578 C575 1.499 . S
C578 C579 1.373 . S
C578 C580 1.389 . S
C579 H558 0.950 . S
C579 C578 1.373 . S
C579 C595 1.377 . S
C580 C578 1.389 . S
C580 C581 1.524 . S
C580 C594 1.377 . S
C581 C580 1.524 . S
C581 C582 1.397 . S
C581 C586 1.363 . S
C582 H559 0.950 . S
C582 C581 1.397 . S
C582 C583 1.334 . S
C583 H560 0.950 . S
C583 C582 1.334 . S
C583 C584 1.287 . S
C584 C583 1.287 . S
C584 C585 1.524 . S
C584 H603 0.913 . S
C585 H561 0.950 . S
C585 C584 1.524 . S
C585 C586 1.415 . S
C586 H562 0.950 . S
C586 C581 1.363 . S
C586 C585 1.415 . S
C587 H563 0.951 . S
C587 C588 1.366 . S
C587 C589 1.388 . S
C588 C587 1.366 . S
C588 C592 1.385 . S
C589 H564 0.951 . S
C589 C587 1.388 . S
C589 C590 1.366 . S
C590 C589 1.366 . S
C590 C591 1.414 . S
C590 C593 1.499 . S
C591 H565 0.950 . S
C591 C590 1.414 . S
C591 C592 1.374 . S
C592 H566 0.950 . S
C592 C588 1.385 . S
C592 C591 1.374 . S
C593 C590 1.499 . S
C593 C594 1.373 . S
C593 C595 1.389 . S
C594 H567 0.950 . S
C594 C580 1.377 . S
C594 C593 1.373 . S
C595 C579 1.377 . S
C595 C593 1.389 . S
C595 C596 1.524 . S
C596 C595 1.524 . S
C596 C597 1.397 . S
C596 C601 1.363 . S
C597 H568 0.950 . S
C597 C596 1.397 . S
C597 C598 1.334 . S
C598 H569 0.950 . S
C598 C597 1.334 . S
C598 C599 1.287 . S
C599 C598 1.287 . S
C599 C600 1.524 . S
C599 H602 0.999 . S
C600 H570 0.950 . S
C600 C599 1.524 . S
C600 C601 1.415 . S
C601 H571 0.950 . S
C601 C596 1.363 . S
C601 C600 1.415 . S
H602 C599 0.999 . S
H603 C584 0.913 . S
H604 C622 0.951 . S
H605 C624 0.951 . S
H606 C626 0.950 . S
H607 C627 0.950 . S
H608 C629 0.950 . S
H609 C632 0.950 . S
H610 C633 0.950 . S
H611 C635 0.950 . S
H612 C636 0.950 . S
H613 C637 0.951 . S
H614 C639 0.951 . S
H615 C641 0.950 . S
H616 C642 0.950 . S
H617 C644 0.950 . S
H618 C647 0.950 . S
H619 C648 0.950 . S
H620 C650 0.950 . S
H621 C651 0.950 . S
C622 H604 0.951 . S
C622 C623 1.366 . S
C622 C624 1.388 . S
C623 C622 1.366 . S
C623 C627 1.385 . S
C624 H605 0.951 . S
C624 C622 1.388 . S
C624 C625 1.366 . S
C625 C624 1.366 . S
C625 C626 1.414 . S
C625 C628 1.499 . S
C626 H606 0.950 . S
C626 C625 1.414 . S
C626 C627 1.374 . S
C627 H607 0.950 . S
C627 C623 1.385 . S
C627 C626 1.374 . S
C628 C625 1.499 . S
C628 C629 1.373 . S
C628 C630 1.389 . S
C629 H608 0.950 . S
C629 C628 1.373 . S
C629 C645 1.377 1_455 S
C630 C628 1.389 . S
C630 C631 1.524 . S
C630 C644 1.377 1_455 S
C631 C630 1.524 . S
C631 C632 1.397 . S
C631 C636 1.363 . S
C632 H609 0.950 . S
C632 C631 1.397 . S
C632 C633 1.334 . S
C633 H610 0.950 . S
C633 C632 1.334 . S
C633 C634 1.287 . S
C634 C633 1.287 . S
C634 C635 1.524 . S
C634 H653 0.913 . S
C635 H611 0.950 . S
C635 C634 1.524 . S
C635 C636 1.415 . S
C636 H612 0.950 . S
C636 C631 1.363 . S
C636 C635 1.415 . S
C637 H613 0.951 . S
C637 C638 1.366 . S
C637 C639 1.388 . S
C638 C637 1.366 . S
C638 C642 1.385 . S
C639 H614 0.951 . S
C639 C637 1.388 . S
C639 C640 1.366 . S
C640 C639 1.366 . S
C640 C641 1.414 . S
C640 C643 1.499 . S
C641 H615 0.950 . S
C641 C640 1.414 . S
C641 C642 1.374 . S
C642 H616 0.950 . S
C642 C638 1.385 . S
C642 C641 1.374 . S
C643 C640 1.499 . S
C643 C644 1.373 . S
C643 C645 1.389 . S
C644 H617 0.950 . S
C644 C630 1.377 1_655 S
C644 C643 1.373 . S
C645 C629 1.377 1_655 S
C645 C643 1.389 . S
C645 C646 1.524 . S
C646 C645 1.524 . S
C646 C647 1.397 . S
C646 C651 1.363 . S
C647 H618 0.950 . S
C647 C646 1.397 . S
C647 C648 1.334 . S
C648 H619 0.950 . S
C648 C647 1.334 . S
C648 C649 1.287 . S
C649 C648 1.287 . S
C649 C650 1.524 . S
C649 H652 0.999 . S
C650 H620 0.950 . S
C650 C649 1.524 . S
C650 C651 1.415 . S
C651 H621 0.950 . S
C651 C646 1.363 . S
C651 C650 1.415 . S
H652 C649 0.999 . S
H653 C634 0.913 . S
H654 C672 0.951 . S
H655 C674 0.951 . S
H656 C676 0.950 . S
H657 C677 0.950 . S
H658 C679 0.950 . S
H659 C682 0.950 . S
H660 C683 0.950 . S
H661 C685 0.950 . S
H662 C686 0.950 . S
H663 C687 0.951 . S
H664 C689 0.951 . S
H665 C691 0.950 . S
H666 C692 0.950 . S
H667 C694 0.950 . S
H668 C697 0.950 . S
H669 C698 0.950 . S
H670 C700 0.950 . S
H671 C701 0.950 . S
C672 H654 0.951 . S
C672 C673 1.366 . S
C672 C674 1.388 . S
C673 C672 1.366 . S
C673 C677 1.385 . S
C674 H655 0.951 . S
C674 C672 1.388 . S
C674 C675 1.366 . S
C675 C674 1.366 . S
C675 C676 1.414 . S
C675 C678 1.499 . S
C676 H656 0.950 . S
C676 C675 1.414 . S
C676 C677 1.374 . S
C677 H657 0.950 . S
C677 C673 1.385 . S
C677 C676 1.374 . S
C678 C675 1.499 . S
C678 C679 1.373 . S
C678 C680 1.389 . S
C679 H658 0.950 . S
C679 C678 1.373 . S
C679 C695 1.377 . S
C680 C678 1.389 . S
C680 C681 1.524 . S
C680 C694 1.377 . S
C681 C680 1.524 . S
C681 C682 1.397 . S
C681 C686 1.363 . S
C682 H659 0.950 . S
C682 C681 1.397 . S
C682 C683 1.334 . S
C683 H660 0.950 . S
C683 C682 1.334 . S
C683 C684 1.287 . S
C684 C683 1.287 . S
C684 C685 1.524 . S
C684 H703 0.913 . S
C685 H661 0.950 . S
C685 C684 1.524 . S
C685 C686 1.415 . S
C686 H662 0.950 . S
C686 C681 1.363 . S
C686 C685 1.415 . S
C687 H663 0.951 . S
C687 C688 1.366 . S
C687 C689 1.388 . S
C688 C687 1.366 . S
C688 C692 1.385 . S
C689 H664 0.951 . S
C689 C687 1.388 . S
C689 C690 1.366 . S
C690 C689 1.366 . S
C690 C691 1.414 . S
C690 C693 1.499 . S
C691 H665 0.950 . S
C691 C690 1.414 . S
C691 C692 1.374 . S
C692 H666 0.950 . S
C692 C688 1.385 . S
C692 C691 1.374 . S
C693 C690 1.499 . S
C693 C694 1.373 . S
C693 C695 1.389 . S
C694 H667 0.950 . S
C694 C680 1.377 . S
C694 C693 1.373 . S
C695 C679 1.377 . S
C695 C693 1.389 . S
C695 C696 1.524 . S
C696 C695 1.524 . S
C696 C697 1.397 . S
C696 C701 1.363 . S
C697 H668 0.950 . S
C697 C696 1.397 . S
C697 C698 1.334 . S
C698 H669 0.950 . S
C698 C697 1.334 . S
C698 C699 1.287 . S
C699 C698 1.287 . S
C699 C700 1.524 . S
C699 H702 0.999 . S
C700 H670 0.950 . S
C700 C699 1.524 . S
C700 C701 1.415 . S
C701 H671 0.950 . S
C701 C696 1.363 . S
C701 C700 1.415 . S
H702 C699 0.999 . S
H703 C684 0.913 . S
H704 C722 0.951 . S
H705 C724 0.951 . S
H706 C726 0.950 . S
H707 C727 0.950 . S
H708 C729 0.950 . S
H709 C732 0.950 . S
H710 C733 0.950 . S
H711 C735 0.950 . S
H712 C736 0.950 . S
H713 C737 0.951 . S
H714 C739 0.951 . S
H715 C741 0.950 . S
H716 C742 0.950 . S
H717 C744 0.950 . S
H718 C747 0.950 . S
H719 C748 0.950 . S
H720 C750 0.950 . S
H721 C751 0.950 . S
C722 H704 0.951 . S
C722 C723 1.366 . S
C722 C724 1.388 . S
C723 C722 1.366 . S
C723 C727 1.385 . S
C724 H705 0.951 . S
C724 C722 1.388 . S
C724 C725 1.366 . S
C725 C724 1.366 . S
C725 C726 1.414 . S
C725 C728 1.499 . S
C726 H706 0.950 . S
C726 C725 1.414 . S
C726 C727 1.374 . S
C727 H707 0.950 . S
C727 C723 1.385 . S
C727 C726 1.374 . S
C728 C725 1.499 . S
C728 C729 1.373 . S
C728 C730 1.389 . S
C729 H708 0.950 . S
C729 C728 1.373 . S
C729 C745 1.377 . S
C730 C728 1.389 . S
C730 C731 1.524 . S
C730 C744 1.377 . S
C731 C730 1.524 . S
C731 C732 1.397 . S
C731 C736 1.363 . S
C732 H709 0.950 . S
C732 C731 1.397 . S
C732 C733 1.334 . S
C733 H710 0.950 . S
C733 C732 1.334 . S
C733 C734 1.287 . S
C734 C733 1.287 . S
C734 C735 1.524 . S
C734 H753 0.913 . S
C735 H711 0.950 . S
C735 C734 1.524 . S
C735 C736 1.415 . S
C736 H712 0.950 . S
C736 C731 1.363 . S
C736 C735 1.415 . S
C737 H713 0.951 . S
C737 C738 1.366 . S
C737 C739 1.388 . S
C738 C737 1.366 . S
C738 C742 1.385 . S
C739 H714 0.951 . S
C739 C737 1.388 . S
C739 C740 1.366 . S
C740 C739 1.366 . S
C740 C741 1.414 . S
C740 C743 1.499 . S
C741 H715 0.950 . S
C741 C740 1.414 . S
C741 C742 1.374 . S
C742 H716 0.950 . S
C742 C738 1.385 . S
C742 C741 1.374 . S
C743 C740 1.499 . S
C743 C744 1.373 . S
C743 C745 1.389 . S
C744 H717 0.950 . S
C744 C730 1.377 . S
C744 C743 1.373 . S
C745 C729 1.377 . S
C745 C743 1.389 . S
C745 C746 1.524 . S
C746 C745 1.524 . S
C746 C747 1.397 . S
C746 C751 1.363 . S
C747 H718 0.950 . S
C747 C746 1.397 . S
C747 C748 1.334 . S
C748 H719 0.950 . S
C748 C747 1.334 . S
C748 C749 1.287 . S
C749 C748 1.287 . S
C749 C750 1.524 . S
C749 H752 0.999 . S
C750 H720 0.950 . S
C750 C749 1.524 . S
C750 C751 1.415 . S
C751 H721 0.950 . S
C751 C746 1.363 . S
C751 C750 1.415 . S
H752 C749 0.999 . S
H753 C734 0.913 . S
H754 C772 0.951 . S
H755 C774 0.951 . S
H756 C776 0.950 . S
H757 C777 0.950 . S
H758 C779 0.950 . S
H759 C782 0.950 . S
H760 C783 0.950 . S
H761 C785 0.950 . S
H762 C786 0.950 . S
H763 C787 0.951 . S
H764 C789 0.951 . S
H765 C791 0.950 . S
H766 C792 0.950 . S
H767 C794 0.950 . S
H768 C797 0.950 . S
H769 C798 0.950 . S
H770 C800 0.950 . S
H771 C801 0.950 . S
C772 H754 0.951 . S
C772 C773 1.366 . S
C772 C774 1.388 . S
C773 C772 1.366 . S
C773 C777 1.385 . S
C774 H755 0.951 . S
C774 C772 1.388 . S
C774 C775 1.366 . S
C775 C774 1.366 . S
C775 C776 1.414 . S
C775 C778 1.499 . S
C776 H756 0.950 . S
C776 C775 1.414 . S
C776 C777 1.374 . S
C777 H757 0.950 . S
C777 C773 1.385 . S
C777 C776 1.374 . S
C778 C775 1.499 . S
C778 C779 1.373 . S
C778 C780 1.389 . S
C779 H758 0.950 . S
C779 C778 1.373 . S
C779 C795 1.377 . S
C780 C778 1.389 . S
C780 C781 1.524 . S
C780 C794 1.377 . S
C781 C780 1.524 . S
C781 C782 1.397 . S
C781 C786 1.363 . S
C782 H759 0.950 . S
C782 C781 1.397 . S
C782 C783 1.334 . S
C783 H760 0.950 . S
C783 C782 1.334 . S
C783 C784 1.287 . S
C784 C783 1.287 . S
C784 C785 1.524 . S
C784 H803 0.913 . S
C785 H761 0.950 . S
C785 C784 1.524 . S
C785 C786 1.415 . S
C786 H762 0.950 . S
C786 C781 1.363 . S
C786 C785 1.415 . S
C787 H763 0.951 . S
C787 C788 1.366 . S
C787 C789 1.388 . S
C788 C787 1.366 . S
C788 C792 1.385 . S
C789 H764 0.951 . S
C789 C787 1.388 . S
C789 C790 1.366 . S
C790 C789 1.366 . S
C790 C791 1.414 . S
C790 C793 1.499 . S
C791 H765 0.950 . S
C791 C790 1.414 . S
C791 C792 1.374 . S
C792 H766 0.950 . S
C792 C788 1.385 . S
C792 C791 1.374 . S
C793 C790 1.499 . S
C793 C794 1.373 . S
C793 C795 1.389 . S
C794 H767 0.950 . S
C794 C780 1.377 . S
C794 C793 1.373 . S
C795 C779 1.377 . S
C795 C793 1.389 . S
C795 C796 1.524 . S
C796 C795 1.524 . S
C796 C797 1.397 . S
C796 C801 1.363 . S
C797 H768 0.950 . S
C797 C796 1.397 . S
C797 C798 1.334 . S
C798 H769 0.950 . S
C798 C797 1.334 . S
C798 C799 1.287 . S
C799 C798 1.287 . S
C799 C800 1.524 . S
C799 H802 0.999 . S
C800 H770 0.950 . S
C800 C799 1.524 . S
C800 C801 1.415 . S
C801 H771 0.950 . S
C801 C796 1.363 . S
C801 C800 1.415 . S
H802 C799 0.999 . S
H803 C784 0.913 . S
H804 C822 0.951 . S
H805 C824 0.951 . S
H806 C826 0.950 . S
H807 C827 0.950 . S
H808 C829 0.950 . S
H809 C832 0.950 . S
H810 C833 0.950 . S
H811 C835 0.950 . S
H812 C836 0.950 . S
H813 C837 0.951 . S
H814 C839 0.951 . S
H815 C841 0.950 . S
H816 C842 0.950 . S
H817 C844 0.950 . S
H818 C847 0.950 . S
H819 C848 0.950 . S
H820 C850 0.950 . S
H821 C851 0.950 . S
C822 H804 0.951 . S
C822 C823 1.366 . S
C822 C824 1.388 . S
C823 C822 1.366 . S
C823 C827 1.385 . S
C824 H805 0.951 . S
C824 C822 1.388 . S
C824 C825 1.366 . S
C825 C824 1.366 . S
C825 C826 1.414 . S
C825 C828 1.499 . S
C826 H806 0.950 . S
C826 C825 1.414 . S
C826 C827 1.374 . S
C827 H807 0.950 . S
C827 C823 1.385 . S
C827 C826 1.374 . S
C828 C825 1.499 . S
C828 C829 1.373 . S
C828 C830 1.389 . S
C829 H808 0.950 . S
C829 C828 1.373 . S
C829 C845 1.377 . S
C830 C828 1.389 . S
C830 C831 1.524 . S
C830 C844 1.377 . S
C831 C830 1.524 . S
C831 C832 1.397 . S
C831 C836 1.363 . S
C832 H809 0.950 . S
C832 C831 1.397 . S
C832 C833 1.334 . S
C833 H810 0.950 . S
C833 C832 1.334 . S
C833 C834 1.287 . S
C834 C833 1.287 . S
C834 C835 1.524 . S
C834 H853 0.913 . S
C835 H811 0.950 . S
C835 C834 1.524 . S
C835 C836 1.415 . S
C836 H812 0.950 . S
C836 C831 1.363 . S
C836 C835 1.415 . S
C837 H813 0.951 . S
C837 C838 1.366 . S
C837 C839 1.388 1_554 S
C838 C837 1.366 . S
C838 C842 1.385 1_554 S
C839 H814 0.951 . S
C839 C837 1.388 1_556 S
C839 C840 1.366 . S
C840 C839 1.366 . S
C840 C841 1.414 . S
C840 C843 1.499 . S
C841 H815 0.950 . S
C841 C840 1.414 . S
C841 C842 1.374 . S
C842 H816 0.950 . S
C842 C838 1.385 1_556 S
C842 C841 1.374 . S
C843 C840 1.499 . S
C843 C844 1.373 . S
C843 C845 1.389 . S
C844 H817 0.950 . S
C844 C830 1.377 . S
C844 C843 1.373 . S
C845 C829 1.377 . S
C845 C843 1.389 . S
C845 C846 1.524 . S
C846 C845 1.524 . S
C846 C847 1.397 . S
C846 C851 1.363 . S
C847 H818 0.950 . S
C847 C846 1.397 . S
C847 C848 1.334 . S
C848 H819 0.950 . S
C848 C847 1.334 . S
C848 C849 1.287 . S
C849 C848 1.287 . S
C849 C850 1.524 . S
C849 H852 0.999 . S
C850 H820 0.950 . S
C850 C849 1.524 . S
C850 C851 1.415 . S
C851 H821 0.950 . S
C851 C846 1.363 . S
C851 C850 1.415 . S
H852 C849 0.999 . S
H853 C834 0.913 . S
H854 C872 0.951 . S
H855 C874 0.951 . S
H856 C876 0.950 . S
H857 C877 0.950 . S
H858 C879 0.950 . S
H859 C882 0.950 . S
H860 C883 0.950 . S
H861 C885 0.950 . S
H862 C886 0.950 . S
H863 C887 0.951 . S
H864 C889 0.951 . S
H865 C891 0.950 . S
H866 C892 0.950 . S
H867 C894 0.950 . S
H868 C897 0.950 . S
H869 C898 0.950 . S
H870 C900 0.950 . S
H871 C901 0.950 . S
C872 H854 0.951 . S
C872 C873 1.366 1_554 S
C872 C874 1.388 . S
C873 C872 1.366 1_556 S
C873 C877 1.385 . S
C874 H855 0.951 . S
C874 C872 1.388 . S
C874 C875 1.366 . S
C875 C874 1.366 . S
C875 C876 1.414 . S
C875 C878 1.499 . S
C876 H856 0.950 . S
C876 C875 1.414 . S
C876 C877 1.374 1_554 S
C877 H857 0.950 . S
C877 C873 1.385 . S
C877 C876 1.374 1_556 S
C878 C875 1.499 . S
C878 C879 1.373 . S
C878 C880 1.389 . S
C879 H858 0.950 . S
C879 C878 1.373 . S
C879 C895 1.377 . S
C880 C878 1.389 . S
C880 C881 1.524 . S
C880 C894 1.377 . S
C881 C880 1.524 . S
C881 C882 1.397 . S
C881 C886 1.363 . S
C882 H859 0.950 . S
C882 C881 1.397 . S
C882 C883 1.334 . S
C883 H860 0.950 . S
C883 C882 1.334 . S
C883 C884 1.287 . S
C884 C883 1.287 . S
C884 C885 1.524 . S
C884 H903 0.913 . S
C885 H861 0.950 . S
C885 C884 1.524 . S
C885 C886 1.415 . S
C886 H862 0.950 . S
C886 C881 1.363 . S
C886 C885 1.415 . S
C887 H863 0.951 . S
C887 C888 1.366 . S
C887 C889 1.388 . S
C888 C887 1.366 . S
C888 C892 1.385 . S
C889 H864 0.951 . S
C889 C887 1.388 . S
C889 C890 1.366 . S
C890 C889 1.366 . S
C890 C891 1.414 . S
C890 C893 1.499 . S
C891 H865 0.950 . S
C891 C890 1.414 . S
C891 C892 1.374 . S
C892 H866 0.950 . S
C892 C888 1.385 . S
C892 C891 1.374 . S
C893 C890 1.499 . S
C893 C894 1.373 . S
C893 C895 1.389 . S
C894 H867 0.950 . S
C894 C880 1.377 . S
C894 C893 1.373 . S
C895 C879 1.377 . S
C895 C893 1.389 . S
C895 C896 1.524 . S
C896 C895 1.524 . S
C896 C897 1.397 . S
C896 C901 1.363 . S
C897 H868 0.950 . S
C897 C896 1.397 . S
C897 C898 1.334 . S
C898 H869 0.950 . S
C898 C897 1.334 . S
C898 C899 1.287 . S
C899 C898 1.287 . S
C899 C900 1.524 . S
C899 H902 0.999 . S
C900 H870 0.950 . S
C900 C899 1.524 . S
C900 C901 1.415 . S
C901 H871 0.950 . S
C901 C896 1.363 . S
C901 C900 1.415 . S
H902 C899 0.999 . S
H903 C884 0.913 . S
H904 C922 0.951 . S
H905 C924 0.951 . S
H906 C926 0.950 . S
H907 C927 0.950 . S
H908 C929 0.950 . S
H909 C932 0.950 . S
H910 C933 0.950 . S
H911 C935 0.950 . S
H912 C936 0.950 . S
H913 C937 0.951 . S
H914 C939 0.951 . S
H915 C941 0.950 . S
H916 C942 0.950 . S
H917 C944 0.950 . S
H918 C947 0.950 . S
H919 C948 0.950 . S
H920 C950 0.950 . S
H921 C951 0.950 . S
C922 H904 0.951 . S
C922 C923 1.366 . S
C922 C924 1.388 . S
C923 C922 1.366 . S
C923 C927 1.385 . S
C924 H905 0.951 . S
C924 C922 1.388 . S
C924 C925 1.366 . S
C925 C924 1.366 . S
C925 C926 1.414 . S
C925 C928 1.499 . S
C926 H906 0.950 . S
C926 C925 1.414 . S
C926 C927 1.374 . S
C927 H907 0.950 . S
C927 C923 1.385 . S
C927 C926 1.374 . S
C928 C925 1.499 . S
C928 C929 1.373 . S
C928 C930 1.389 . S
C929 H908 0.950 . S
C929 C928 1.373 . S
C929 C945 1.377 . S
C930 C928 1.389 . S
C930 C931 1.524 . S
C930 C944 1.377 . S
C931 C930 1.524 . S
C931 C932 1.397 . S
C931 C936 1.363 . S
C932 H909 0.950 . S
C932 C931 1.397 . S
C932 C933 1.334 . S
C933 H910 0.950 . S
C933 C932 1.334 . S
C933 C934 1.287 . S
C934 C933 1.287 . S
C934 C935 1.524 . S
C934 H953 0.913 . S
C935 H911 0.950 . S
C935 C934 1.524 . S
C935 C936 1.415 . S
C936 H912 0.950 . S
C936 C931 1.363 . S
C936 C935 1.415 . S
C937 H913 0.951 . S
C937 C938 1.366 . S
C937 C939 1.388 . S
C938 C937 1.366 . S
C938 C942 1.385 . S
C939 H914 0.951 . S
C939 C937 1.388 . S
C939 C940 1.366 . S
C940 C939 1.366 . S
C940 C941 1.414 . S
C940 C943 1.499 . S
C941 H915 0.950 . S
C941 C940 1.414 . S
C941 C942 1.374 . S
C942 H916 0.950 . S
C942 C938 1.385 . S
C942 C941 1.374 . S
C943 C940 1.499 . S
C943 C944 1.373 . S
C943 C945 1.389 . S
C944 H917 0.950 . S
C944 C930 1.377 . S
C944 C943 1.373 . S
C945 C929 1.377 . S
C945 C943 1.389 . S
C945 C946 1.524 . S
C946 C945 1.524 . S
C946 C947 1.397 . S
C946 C951 1.363 . S
C947 H918 0.950 . S
C947 C946 1.397 . S
C947 C948 1.334 . S
C948 H919 0.950 . S
C948 C947 1.334 . S
C948 C949 1.287 . S
C949 C948 1.287 . S
C949 C950 1.524 . S
C949 H952 0.999 . S
C950 H920 0.950 . S
C950 C949 1.524 . S
C950 C951 1.415 . S
C951 H921 0.950 . S
C951 C946 1.363 . S
C951 C950 1.415 . S
H952 C949 0.999 . S
H953 C934 0.913 . S
C373 C5 1.856 . S
C388 C300 1.857 . S
C423 C52 1.781 . S
C438 C62 1.783 . S
C473 C170 1.713 . S
C488 C92 1.714 . S
C523 C182 1.856 . S
C538 C123 1.857 . S
C573 C239 1.783 . S
C588 C229 1.781 . S
C623 C347 1.712 . S
C638 C269 1.714 . S
C673 C3 1.448 . S
C688 C288 1.445 . S
C723 C298 1.267 . S
C738 C64 1.270 . S
C773 C151 1.580 . S
C788 C33 1.583 . S
C823 C111 1.444 . S
C838 C180 1.448 . S
C873 C121 1.267 . S
C888 C241 1.270 . S
C923 C328 1.580 . S
C938 C210 1.583 . S
