# Generated by pormake.
# Topology lcy-a, (4)-cn, num edge types: 1
# Building blocks:
#     Node 0, Type 0, BuildingBlock: QUQFOY_clean_sbu_1, # of connection points: 4
#     Node 1, Type 0, BuildingBlock: QUQFOY_clean_sbu_1, # of connection points: 4
#     Node 2, Type 0, BuildingBlock: QUQFOY_clean_sbu_1, # of connection points: 4
#     Node 3, Type 0, BuildingBlock: QUQFOY_clean_sbu_1, # of connection points: 4
#     Node 4, Type 0, BuildingBlock: QUQFOY_clean_sbu_1, # of connection points: 4
#     Node 5, Type 0, BuildingBlock: QUQFOY_clean_sbu_1, # of connection points: 4
#     Node 6, Type 0, BuildingBlock: QUQFOY_clean_sbu_1, # of connection points: 4
#     Node 7, Type 0, BuildingBlock: QUQFOY_clean_sbu_1, # of connection points: 4
#     Node 8, Type 0, BuildingBlock: QUQFOY_clean_sbu_1, # of connection points: 4
#     Node 9, Type 0, BuildingBlock: QUQFOY_clean_sbu_1, # of connection points: 4
#     Node 10, Type 0, BuildingBlock: QUQFOY_clean_sbu_1, # of connection points: 4
#     Node 11, Type 0, BuildingBlock: QUQFOY_clean_sbu_1, # of connection points: 4
#     Node 12, Type 0, BuildingBlock: QUQFOY_clean_sbu_1, # of connection points: 4
#     Node 13, Type 0, BuildingBlock: QUQFOY_clean_sbu_1, # of connection points: 4
#     Node 14, Type 0, BuildingBlock: QUQFOY_clean_sbu_1, # of connection points: 4
#     Node 15, Type 0, BuildingBlock: QUQFOY_clean_sbu_1, # of connection points: 4
#     Node 16, Type 0, BuildingBlock: QUQFOY_clean_sbu_1, # of connection points: 4
#     Node 17, Type 0, BuildingBlock: QUQFOY_clean_sbu_1, # of connection points: 4
#     Node 18, Type 0, BuildingBlock: QUQFOY_clean_sbu_1, # of connection points: 4
#     Node 19, Type 0, BuildingBlock: QUQFOY_clean_sbu_1, # of connection points: 4
#     Node 20, Type 0, BuildingBlock: QUQFOY_clean_sbu_1, # of connection points: 4
#     Node 21, Type 0, BuildingBlock: QUQFOY_clean_sbu_1, # of connection points: 4
#     Node 22, Type 0, BuildingBlock: QUQFOY_clean_sbu_1, # of connection points: 4
#     Node 23, Type 0, BuildingBlock: QUQFOY_clean_sbu_1, # of connection points: 4
#     Edge 24, Type (0, 0), BuildingBlock: EZIPEK_clean_linker_0, # of connection points: 2
#     Edge 25, Type (0, 0), BuildingBlock: EZIPEK_clean_linker_0, # of connection points: 2
#     Edge 26, Type (0, 0), BuildingBlock: EZIPEK_clean_linker_0, # of connection points: 2
#     Edge 27, Type (0, 0), BuildingBlock: EZIPEK_clean_linker_0, # of connection points: 2
#     Edge 28, Type (0, 0), BuildingBlock: EZIPEK_clean_linker_0, # of connection points: 2
#     Edge 29, Type (0, 0), BuildingBlock: EZIPEK_clean_linker_0, # of connection points: 2
#     Edge 30, Type (0, 0), BuildingBlock: EZIPEK_clean_linker_0, # of connection points: 2
#     Edge 31, Type (0, 0), BuildingBlock: EZIPEK_clean_linker_0, # of connection points: 2
#     Edge 32, Type (0, 0), BuildingBlock: EZIPEK_clean_linker_0, # of connection points: 2
#     Edge 33, Type (0, 0), BuildingBlock: EZIPEK_clean_linker_0, # of connection points: 2
#     Edge 34, Type (0, 0), BuildingBlock: EZIPEK_clean_linker_0, # of connection points: 2
#     Edge 35, Type (0, 0), BuildingBlock: EZIPEK_clean_linker_0, # of connection points: 2
#     Edge 36, Type (0, 0), BuildingBlock: EZIPEK_clean_linker_0, # of connection points: 2
#     Edge 37, Type (0, 0), BuildingBlock: EZIPEK_clean_linker_0, # of connection points: 2
#     Edge 38, Type (0, 0), BuildingBlock: EZIPEK_clean_linker_0, # of connection points: 2
#     Edge 39, Type (0, 0), BuildingBlock: EZIPEK_clean_linker_0, # of connection points: 2
#     Edge 40, Type (0, 0), BuildingBlock: EZIPEK_clean_linker_0, # of connection points: 2
#     Edge 41, Type (0, 0), BuildingBlock: EZIPEK_clean_linker_0, # of connection points: 2
#     Edge 42, Type (0, 0), BuildingBlock: EZIPEK_clean_linker_0, # of connection points: 2
#     Edge 43, Type (0, 0), BuildingBlock: EZIPEK_clean_linker_0, # of connection points: 2
#     Edge 44, Type (0, 0), BuildingBlock: EZIPEK_clean_linker_0, # of connection points: 2
#     Edge 45, Type (0, 0), BuildingBlock: EZIPEK_clean_linker_0, # of connection points: 2
#     Edge 46, Type (0, 0), BuildingBlock: EZIPEK_clean_linker_0, # of connection points: 2
#     Edge 47, Type (0, 0), BuildingBlock: EZIPEK_clean_linker_0, # of connection points: 2
#     Edge 48, Type (0, 0), BuildingBlock: EZIPEK_clean_linker_0, # of connection points: 2
#     Edge 49, Type (0, 0), BuildingBlock: EZIPEK_clean_linker_0, # of connection points: 2
#     Edge 50, Type (0, 0), BuildingBlock: EZIPEK_clean_linker_0, # of connection points: 2
#     Edge 51, Type (0, 0), BuildingBlock: EZIPEK_clean_linker_0, # of connection points: 2
#     Edge 52, Type (0, 0), BuildingBlock: EZIPEK_clean_linker_0, # of connection points: 2
#     Edge 53, Type (0, 0), BuildingBlock: EZIPEK_clean_linker_0, # of connection points: 2
#     Edge 54, Type (0, 0), BuildingBlock: EZIPEK_clean_linker_0, # of connection points: 2
#     Edge 55, Type (0, 0), BuildingBlock: EZIPEK_clean_linker_0, # of connection points: 2
#     Edge 56, Type (0, 0), BuildingBlock: EZIPEK_clean_linker_0, # of connection points: 2
#     Edge 57, Type (0, 0), BuildingBlock: EZIPEK_clean_linker_0, # of connection points: 2
#     Edge 58, Type (0, 0), BuildingBlock: EZIPEK_clean_linker_0, # of connection points: 2
#     Edge 59, Type (0, 0), BuildingBlock: EZIPEK_clean_linker_0, # of connection points: 2
#     Edge 60, Type (0, 0), BuildingBlock: EZIPEK_clean_linker_0, # of connection points: 2
#     Edge 61, Type (0, 0), BuildingBlock: EZIPEK_clean_linker_0, # of connection points: 2
#     Edge 62, Type (0, 0), BuildingBlock: EZIPEK_clean_linker_0, # of connection points: 2
#     Edge 63, Type (0, 0), BuildingBlock: EZIPEK_clean_linker_0, # of connection points: 2
#     Edge 64, Type (0, 0), BuildingBlock: EZIPEK_clean_linker_0, # of connection points: 2
#     Edge 65, Type (0, 0), BuildingBlock: EZIPEK_clean_linker_0, # of connection points: 2
#     Edge 66, Type (0, 0), BuildingBlock: EZIPEK_clean_linker_0, # of connection points: 2
#     Edge 67, Type (0, 0), BuildingBlock: EZIPEK_clean_linker_0, # of connection points: 2
#     Edge 68, Type (0, 0), BuildingBlock: EZIPEK_clean_linker_0, # of connection points: 2
#     Edge 69, Type (0, 0), BuildingBlock: EZIPEK_clean_linker_0, # of connection points: 2
#     Edge 70, Type (0, 0), BuildingBlock: EZIPEK_clean_linker_0, # of connection points: 2
#     Edge 71, Type (0, 0), BuildingBlock: EZIPEK_clean_linker_0, # of connection points: 2
# Relax obj value: 0.371
# Max RMSD: 0.181
# Mean RMSD: 0.181
data_MOF--net-lcy-a--node1-QUQFOY_clean_sbu_1--edge1-EZIPEK_clean_linker_0
_symmetry_space_group_name_H-M    P1
_symmetry_Int_Tables_number       1
_symmetry_cell_setting            triclinic
loop_
_symmetry_equiv_pos_as_xyz
'x, y, z'
_cell_length_a     44.394794
_cell_length_b     44.391348
_cell_length_c     44.40364
_cell_angle_alpha  90.012718
_cell_angle_beta   89.99946
_cell_angle_gamma 89.911591
loop_
_atom_site_label
_atom_site_type_symbol
_atom_site_fract_x
_atom_site_fract_y
_atom_site_fract_z
_atom_type_partial_charge
O0 O 0.2251 0.24602 0.37144 0.0
Cd1 Cd 0.18607 0.26808 0.38383 0.0
Cd2 Cd 0.2235 0.30391 0.40768 0.0
O3 O 0.24792 0.26433 0.41098 0.0
O4 O 0.15379 0.23908 0.39334 0.0
O5 O 0.17551 0.26897 0.4274 0.0
C6 C 0.15666 0.24773 0.42099 0.0
C7 C 0.23302 0.33955 0.44492 0.0
C8 C 0.24785 0.24644 0.38874 0.0
C9 C 0.19393 0.31904 0.34778 0.0
O10 O 0.2169 0.32138 0.36471 0.0
O11 O 0.17286 0.30115 0.35478 0.0
O12 O 0.25247 0.33342 0.42439 0.0
O13 O 0.20761 0.32551 0.44464 0.0
O14 O 0.0158 0.9691 0.62011 0.0
Cd15 Cd 0.98437 0.93741 0.63267 0.0
Cd16 Cd 0.95487 0.98419 0.65046 0.0
O17 O 0.9965 0.0048 0.64812 0.0
O18 O 0.00693 0.90016 0.64191 0.0
O19 O 0.98238 0.92723 0.67634 0.0
C20 C 0.00014 0.90506 0.66976 0.0
C21 C 0.92187 0.9962 0.68934 0.0
C22 C 0.01793 0.99513 0.63172 0.0
C23 C 0.93362 0.95142 0.59485 0.0
O24 O 0.93392 0.97572 0.60991 0.0
O25 O 0.95015 0.92939 0.60254 0.0
O26 O 0.9282 0.01528 0.66849 0.0
O27 O 0.93499 0.97025 0.68896 0.0
O28 O 0.28886 0.75268 0.85236 0.0
Cd29 Cd 0.31647 0.72167 0.8734 0.0
Cd30 Cd 0.26708 0.70477 0.89513 0.0
O31 O 0.25417 0.74828 0.88733 0.0
O32 O 0.35614 0.73979 0.88154 0.0
O33 O 0.32218 0.72975 0.9171 0.0
C34 C 0.34741 0.74204 0.90926 0.0
C35 C 0.24412 0.67463 0.93198 0.0
C36 C 0.26375 0.7608 0.86349 0.0
C37 C 0.29301 0.66966 0.8446 0.0
O38 O 0.26912 0.68007 0.85635 0.0
O39 O 0.31843 0.67977 0.85291 0.0
O40 O 0.27288 0.67853 0.93214 0.0
O41 O 0.22884 0.69043 0.91321 0.0
O42 O 0.47132 0.02175 0.12131 0.0
Cd43 Cd 0.50095 0.05491 0.13429 0.0
Cd44 Cd 0.53492 0.00922 0.14966 0.0
O45 O 0.49439 0.98643 0.1469 0.0
O46 O 0.4763 0.09032 0.14522 0.0
O47 O 0.50277 0.06351 0.17838 0.0
C48 C 0.4838 0.08492 0.17279 0.0
C49 C 0.56957 0.99564 0.18656 0.0
C50 C 0.47147 0.99531 0.13215 0.0
C51 C 0.55386 0.04748 0.09659 0.0
O52 O 0.55581 0.02245 0.11028 0.0
O53 O 0.53455 0.06696 0.1047 0.0
O54 O 0.56368 0.97821 0.16421 0.0
O55 O 0.55489 0.02065 0.18895 0.0
O56 O 0.72648 0.26662 0.61959 0.0
Cd57 Cd 0.69182 0.23719 0.6105 0.0
Cd58 Cd 0.73481 0.2017 0.59436 0.0
O59 O 0.7606 0.24022 0.59572 0.0
O60 O 0.65621 0.26178 0.60006 0.0
O61 O 0.68002 0.23192 0.56749 0.0
C62 C 0.65939 0.25176 0.57295 0.0
C63 C 0.74334 0.16761 0.55562 0.0
C64 C 0.75303 0.26431 0.60922 0.0
C65 C 0.70092 0.18723 0.65147 0.0
O66 O 0.72418 0.18293 0.6354 0.0
O67 O 0.68145 0.2067 0.64379 0.0
O68 O 0.76249 0.17126 0.57703 0.0
O69 O 0.71903 0.18355 0.55575 0.0
O70 O 0.99816 0.47434 0.88954 0.0
Cd71 Cd 0.01656 0.43422 0.87467 0.0
Cd72 Cd 0.05064 0.46906 0.84658 0.0
O73 O 0.01214 0.49537 0.84733 0.0
O74 O 0.98627 0.40199 0.86945 0.0
O75 O 0.00903 0.42522 0.83145 0.0
C76 C 0.98941 0.40584 0.84074 0.0
C77 C 0.08102 0.472 0.80412 0.0
C78 C 0.99719 0.49664 0.87162 0.0
C79 C 0.07292 0.43958 0.90324 0.0
O80 O 0.07369 0.4631 0.88693 0.0
O81 O 0.0536 0.41934 0.8978 0.0
O82 O 0.0792 0.49381 0.82308 0.0
O83 O 0.06525 0.44807 0.8088 0.0
O84 O 0.77874 0.74355 0.12427 0.0
Cd85 Cd 0.81274 0.77184 0.11111 0.0
Cd86 Cd 0.76918 0.81007 0.09821 0.0
O87 O 0.74224 0.77428 0.11031 0.0
O88 O 0.84702 0.74548 0.10076 0.0
O89 O 0.82311 0.7742 0.06732 0.0
C90 C 0.84326 0.75398 0.07323 0.0
C91 C 0.75294 0.8405 0.0587 0.0
C92 C 0.75092 0.7496 0.12189 0.0
C93 C 0.81114 0.82601 0.14937 0.0
O94 O 0.78811 0.83272 0.13379 0.0
O95 O 0.82626 0.80253 0.14318 0.0
O96 O 0.7391 0.84001 0.0841 0.0
O97 O 0.77613 0.82332 0.05514 0.0
O98 O 0.51789 0.52522 0.37108 0.0
Cd99 Cd 0.4862 0.55694 0.35911 0.0
Cd100 Cd 0.45562 0.51059 0.34319 0.0
O101 O 0.49672 0.48883 0.34544 0.0
O102 O 0.50787 0.59373 0.34681 0.0
O103 O 0.48106 0.56531 0.31537 0.0
C104 C 0.49893 0.58783 0.31976 0.0
C105 C 0.42159 0.49937 0.30507 0.0
C106 C 0.51893 0.49862 0.36065 0.0
C107 C 0.43631 0.54478 0.39863 0.0
O108 O 0.43552 0.52036 0.3838 0.0
O109 O 0.45346 0.56611 0.39051 0.0
O110 O 0.42759 0.48031 0.32605 0.0
O111 O 0.43564 0.52477 0.30487 0.0
O112 O 0.36086 0.22391 0.24793 0.0
Cd113 Cd 0.37251 0.18558 0.2716 0.0
Cd114 Cd 0.40606 0.22379 0.30086 0.0
O115 O 0.40512 0.24274 0.25811 0.0
O116 O 0.37988 0.15077 0.24457 0.0
O117 O 0.41592 0.17433 0.27033 0.0
C118 C 0.40812 0.15412 0.25091 0.0
C119 C 0.4456 0.23848 0.33189 0.0
C120 C 0.38077 0.24387 0.24325 0.0
C121 C 0.3485 0.19768 0.32948 0.0
O122 O 0.36726 0.21914 0.32655 0.0
O123 O 0.34813 0.17706 0.30979 0.0
O124 O 0.42487 0.25699 0.32385 0.0
O125 O 0.44507 0.21146 0.32117 0.0
O126 O 0.02558 0.11768 0.4808 0.0
Cd127 Cd 0.05784 0.13045 0.51167 0.0
Cd128 Cd 0.01096 0.14357 0.5454 0.0
O129 O 0.9869 0.13513 0.50663 0.0
O130 O 0.09386 0.14181 0.48803 0.0
O131 O 0.06645 0.17445 0.51448 0.0
C132 C 0.08826 0.16924 0.49591 0.0
C133 C -0.00025 0.18451 0.57614 0.0
C134 C 0.99748 0.12247 0.48321 0.0
C135 C 0.05069 0.09235 0.56534 0.0
O136 O 0.02586 0.10625 0.5682 0.0
O137 O 0.0694 0.10013 0.54515 0.0
O138 O 0.98188 0.16179 0.57418 0.0
O139 O 0.02376 0.18476 0.55977 0.0
O140 O 0.12552 0.76214 0.73898 0.0
Cd141 Cd 0.11734 0.80366 0.75825 0.0
Cd142 Cd 0.09687 0.7715 0.80228 0.0
O143 O 0.08969 0.74251 0.76644 0.0
O144 O 0.10469 0.83347 0.72783 0.0
O145 O 0.07466 0.81631 0.7643 0.0
C146 C 0.07862 0.83305 0.74079 0.0
C147 C 0.06372 0.76318 0.8422 0.0
C148 C 0.10852 0.74004 0.74513 0.0
C149 C 0.15846 0.80224 0.80671 0.0
O150 O 0.14109 0.781 0.81486 0.0
O151 O 0.15101 0.81942 0.78519 0.0
O152 O 0.08496 0.74459 0.83588 0.0
O153 O 0.06127 0.78734 0.82625 0.0
O154 O 0.46558 0.88293 0.98409 0.0
Cd155 Cd 0.43473 0.86282 0.01245 0.0
Cd156 Cd 0.48174 0.85101 0.04435 0.0
O157 O 0.50519 0.86306 0.00644 0.0
O158 O 0.39966 0.85276 0.98709 0.0
O159 O 0.42986 0.81827 0.00723 0.0
C160 C 0.40761 0.82489 0.98964 0.0
C161 C 0.49641 0.81034 0.07362 0.0
C162 C 0.49387 0.87885 0.98544 0.0
C163 C 0.43902 0.89744 0.06809 0.0
O164 O 0.46538 0.88647 0.06883 0.0
O165 O 0.42008 0.88807 0.04882 0.0
O166 O 0.5127 0.8342 0.07172 0.0
O167 O 0.47213 0.80868 0.05773 0.0
O168 O 0.86548 0.27064 0.7535 0.0
Cd169 Cd 0.88042 0.30887 0.73159 0.0
Cd170 Cd 0.90804 0.26908 0.70022 0.0
O171 O 0.90932 0.25101 0.74331 0.0
O172 O 0.8833 0.34334 0.7596 0.0
O173 O 0.92301 0.31943 0.74064 0.0
C174 C 0.91218 0.33966 0.75865 0.0
C175 C 0.94571 0.25401 0.66694 0.0
C176 C 0.88497 0.25019 0.75816 0.0
C177 C 0.85212 0.29894 0.67594 0.0
O178 O 0.86703 0.27458 0.67811 0.0
O179 O 0.85838 0.3209 0.693 0.0
O180 O 0.9253 0.23568 0.67608 0.0
O181 O 0.9458 0.28107 0.67758 0.0
O182 O 0.97322 0.61785 0.01641 0.0
Cd183 Cd 0.9425 0.63438 0.98554 0.0
Cd184 Cd 0.99033 0.65486 0.96005 0.0
O185 O 0.00905 0.64841 0.00193 0.0
O186 O 0.90505 0.64642 0.00675 0.0
O187 O 0.93658 0.67877 0.98508 0.0
C188 C 0.91285 0.6739 0.00115 0.0
C189 C 0.0044 0.69653 0.93131 0.0
C190 C -0.00094 0.62933 0.02077 0.0
C191 C 0.95791 0.60181 0.93183 0.0
O192 O 0.98234 0.61632 0.93537 0.0
O193 O 0.93512 0.6086 0.94766 0.0
O194 O 0.02292 0.67486 0.93663 0.0
O195 O 0.97794 0.69535 0.9432 0.0
O196 O 0.62128 0.72311 0.26366 0.0
Cd197 Cd 0.60979 0.69178 0.23148 0.0
Cd198 Cd 0.593 0.7384 0.202 0.0
O199 O 0.59357 0.75877 0.24386 0.0
O200 O 0.59839 0.65461 0.25289 0.0
O201 O 0.5661 0.68284 0.22678 0.0
C202 C 0.57111 0.66031 0.24452 0.0
C203 C 0.55575 0.7499 0.1671 0.0
C204 C 0.60937 0.74904 0.2657 0.0
C205 C 0.64922 0.70567 0.18225 0.0
O206 O 0.63425 0.73005 0.18244 0.0
O207 O 0.64108 0.68358 0.1984 0.0
O208 O 0.57599 0.76925 0.17448 0.0
O209 O 0.55565 0.72408 0.18039 0.0
O210 O 0.52277 0.37743 0.5145 0.0
Cd211 Cd 0.5552 0.36458 0.48371 0.0
Cd212 Cd 0.50862 0.35198 0.44971 0.0
O213 O 0.48403 0.36144 0.48791 0.0
O214 O 0.59139 0.35339 0.50727 0.0
O215 O 0.56423 0.32061 0.48091 0.0
C216 C 0.58617 0.32596 0.49921 0.0
C217 C 0.49875 0.30992 0.42026 0.0
C218 C 0.49458 0.37354 0.51162 0.0
C219 C 0.54886 0.40227 0.42937 0.0
O220 O 0.52401 0.38856 0.42621 0.0
O221 O 0.56705 0.3947 0.45013 0.0
O222 O 0.48048 0.33247 0.42094 0.0
O223 O 0.52235 0.31054 0.43717 0.0
O224 O 0.24104 0.36253 0.21538 0.0
Cd225 Cd 0.27057 0.37564 0.18217 0.0
Cd226 Cd 0.30242 0.39754 0.22706 0.0
O227 O 0.26479 0.38664 0.25174 0.0
O228 O 0.24717 0.38809 0.14634 0.0
O229 O 0.27356 0.41978 0.17488 0.0
C230 C 0.25494 0.41536 0.15294 0.0
C231 C 0.33117 0.43874 0.24206 0.0
C232 C 0.2431 0.37028 0.24284 0.0
C233 C 0.32743 0.34409 0.19157 0.0
O234 O 0.3286 0.3618 0.21401 0.0
O235 O 0.30579 0.34643 0.17303 0.0
O236 O 0.32882 0.4151 0.25853 0.0
O237 O 0.3162 0.43992 0.21722 0.0
O238 O 0.74309 0.13563 0.78193 0.0
Cd239 Cd 0.77192 0.1205 0.81487 0.0
Cd240 Cd 0.80392 0.09978 0.76926 0.0
O241 O 0.76689 0.11302 0.74459 0.0
O242 O 0.74758 0.10936 0.85035 0.0
O243 O 0.77277 0.07623 0.82223 0.0
C244 C 0.75423 0.08173 0.84402 0.0
C245 C 0.83249 0.05865 0.75319 0.0
C246 C 0.74541 0.12942 0.75412 0.0
C247 C 0.82939 0.15101 0.80752 0.0
O248 O 0.83058 0.13421 0.78439 0.0
O249 O 0.80746 0.14845 0.82565 0.0
O250 O 0.83089 0.08302 0.7377 0.0
O251 O 0.81678 0.0567 0.77754 0.0
O252 O 0.12272 0.47827 0.02873 0.0
Cd253 Cd 0.13591 0.50877 0.061 0.0
Cd254 Cd 0.15071 0.54062 0.01509 0.0
O255 O 0.1525 0.49847 0.99532 0.0
O256 O 0.14962 0.48567 0.09636 0.0
O257 O 0.18026 0.51265 0.06718 0.0
C258 C 0.17658 0.49388 0.08917 0.0
C259 C 0.18198 0.57849 0.99553 0.0
C260 C 0.13597 0.47662 0.00346 0.0
C261 C 0.09613 0.55887 0.05079 0.0
O262 O 0.10895 0.55864 0.02522 0.0
O263 O 0.10597 0.54243 0.072 0.0
O264 O 0.16243 0.56454 0.97941 0.0
O265 O 0.18531 0.56956 0.02295 0.0
O266 O 0.76027 0.87015 0.27663 0.0
Cd267 Cd 0.7282 0.88391 0.30735 0.0
Cd268 Cd 0.69599 0.89552 0.25927 0.0
O269 O 0.73596 0.88768 0.23707 0.0
O270 O 0.7506 0.8972 0.34342 0.0
O271 O 0.72474 0.92829 0.31375 0.0
C272 C 0.74283 0.92429 0.33621 0.0
C273 C 0.66439 0.93469 0.24487 0.0
C274 C 0.75899 0.87505 0.24849 0.0
C275 C 0.67509 0.84542 0.29968 0.0
O276 O 0.67334 0.85823 0.27421 0.0
O277 O 0.69437 0.85406 0.31897 0.0
O278 O 0.66847 0.91156 0.22788 0.0
O279 O 0.67931 0.93652 0.26974 0.0
O280 O 0.37795 0.51208 0.52948 0.0
Cd281 Cd 0.36291 0.48552 0.56403 0.0
Cd282 Cd 0.34547 0.44819 0.52181 0.0
O283 O 0.35981 0.48247 0.49394 0.0
O284 O 0.35175 0.51231 0.59783 0.0
O285 O 0.31879 0.48484 0.57184 0.0
C286 C 0.3242 0.50478 0.59234 0.0
C287 C 0.30211 0.42189 0.50847 0.0
C288 C 0.37404 0.50599 0.50184 0.0
C289 C 0.39626 0.42811 0.56244 0.0
O290 O 0.37969 0.42261 0.53978 0.0
O291 O 0.39229 0.45214 0.57745 0.0
O292 O 0.32657 0.41951 0.49318 0.0
O293 O 0.30173 0.43962 0.53146 0.0
O294 O 0.23797 0.62508 0.72588 0.0
Cd295 Cd 0.21559 0.61227 0.68745 0.0
Cd296 Cd 0.18768 0.57622 0.72438 0.0
O297 O 0.22778 0.58189 0.74756 0.0
O298 O 0.2437 0.60725 0.65312 0.0
O299 O 0.22021 0.56928 0.6761 0.0
C300 C 0.23953 0.5786 0.65645 0.0
C301 C 0.1616 0.53193 0.73467 0.0
C302 C 0.24184 0.60674 0.74747 0.0
C303 C 0.15575 0.63251 0.69888 0.0
O304 O 0.1587 0.61265 0.71936 0.0
O305 O 0.17629 0.63498 0.67918 0.0
O306 O 0.16465 0.5528 0.75445 0.0
O307 O 0.17412 0.53545 0.70871 0.0
O308 O 0.61772 0.02321 0.97117 0.0
Cd309 Cd 0.63167 0.99397 0.93797 0.0
Cd310 Cd 0.64558 0.95931 0.98298 0.0
O311 O 0.63902 0.99804 0.00791 0.0
O312 O 0.64567 0.01824 0.90337 0.0
O313 O 0.67586 0.98942 0.93121 0.0
C314 C 0.67245 0.00877 0.90973 0.0
C315 C 0.68458 0.92664 0.99601 0.0
C316 C 0.62499 0.0213 -0.00127 0.0
C317 C 0.59263 0.94211 0.94359 0.0
O318 O 0.60696 0.93849 0.96806 0.0
O319 O 0.60069 0.96215 0.9249 0.0
O320 O 0.66116 0.92972 0.01278 0.0
O321 O 0.68646 0.94255 0.97179 0.0
O322 O 0.87443 0.98765 0.46491 0.0
Cd323 Cd 0.86102 0.01602 0.4309 0.0
Cd324 Cd 0.84692 0.05367 0.47379 0.0
O325 O 0.85992 0.01845 0.50111 0.0
O326 O 0.84785 0.99084 0.39665 0.0
O327 O 0.81701 0.02044 0.42291 0.0
C328 C 0.82094 0.00049 0.40207 0.0
C329 C 0.80563 0.08234 0.48858 0.0
C330 C 0.87195 0.99387 0.49269 0.0
C331 C 0.89799 0.07106 0.43252 0.0
O332 O 0.88193 0.07751 0.45529 0.0
O333 O 0.89267 0.04726 0.4176 0.0
O334 O 0.8306 0.08307 0.50319 0.0
O335 O 0.80353 0.06492 0.46545 0.0
C336 C 0.13672 0.19556 0.48569 0.0
C337 C 0.10511 0.1941 0.48174 0.0
C338 C 0.10752 0.23477 0.44458 0.0
C339 C 0.13931 0.23249 0.44483 0.0
N340 N 0.18483 0.20993 0.46434 0.0
N341 N 0.06002 0.2107 0.45601 0.0
C342 C 0.15419 0.21305 0.4654 0.0
C343 C 0.09025 0.21364 0.46119 0.0
N344 N 0.14989 0.18039 0.50903 0.0
N345 N 0.09393 0.25731 0.42858 0.0
H346 H 0.04637 0.19553 0.46758 0.0
H347 H 0.04876 0.22176 0.43866 0.0
H348 H 0.10613 0.27318 0.41627 0.0
H349 H 0.07098 0.26205 0.42982 0.0
H350 H 0.17247 0.18275 0.51491 0.0
H351 H 0.13748 0.16758 0.52433 0.0
H352 H 0.19659 0.19348 0.47624 0.0
H353 H 0.19851 0.22248 0.44999 0.0
C354 C 0.01039 0.85579 0.69468 0.0
C355 C 0.01514 0.88731 0.69352 0.0
C356 C 0.05514 0.88298 0.73124 0.0
C357 C 0.05384 0.85128 0.72834 0.0
N358 N 0.03085 0.80673 0.70753 0.0
N359 N 0.04304 0.93136 0.70925 0.0
C360 C 0.03129 0.83738 0.71052 0.0
C361 C 0.03739 0.90118 0.71186 0.0
N362 N 0.98577 0.84366 0.68078 0.0
N363 N 0.07336 0.89556 0.75263 0.0
H364 H 0.03064 0.9457 0.69541 0.0
H365 H 0.06143 0.94194 0.71922 0.0
H366 H 0.08665 0.88262 0.76711 0.0
H367 H 0.07318 0.9184 0.75795 0.0
H368 H 0.97942 0.82119 0.68291 0.0
H369 H 0.97006 0.85682 0.66922 0.0
H370 H 0.01732 0.79539 0.69211 0.0
H371 H 0.04535 0.79252 0.71941 0.0
C372 C 0.37055 0.75288 0.9602 0.0
C373 C 0.36383 0.76207 0.93029 0.0
C374 C 0.39131 0.80889 0.93852 0.0
C375 C 0.39394 0.80203 0.96957 0.0
N376 N 0.38227 0.76893 0.0111 0.0
N377 N 0.36039 0.80319 0.89449 0.0
C378 C 0.38264 0.77432 0.98082 0.0
C379 C 0.37215 0.79128 0.92035 0.0
N380 N 0.36627 0.72362 0.96867 0.0
N381 N 0.40784 0.83162 0.92597 0.0
H382 H 0.34412 0.79234 0.88151 0.0
H383 H 0.36397 0.82549 0.88806 0.0
H384 H 0.42373 0.84403 0.93803 0.0
H385 H 0.40841 0.83557 0.90283 0.0
H386 H 0.37344 0.71508 0.98932 0.0
H387 H 0.35823 0.70719 0.95394 0.0
H388 H 0.37151 0.75042 0.02067 0.0
H389 H 0.39035 0.78431 0.02689 0.0
C390 C 0.44762 0.08708 0.21602 0.0
C391 C 0.46895 0.10178 0.19728 0.0
C392 C 0.4521 0.15095 0.21561 0.0
C393 C 0.43112 0.13626 0.23478 0.0
N394 N 0.41395 0.09083 0.25888 0.0
N395 N 0.49689 0.14639 0.18463 0.0
C396 C 0.43052 0.10442 0.2368 0.0
C397 C 0.47296 0.13335 0.19892 0.0
N398 N 0.44238 0.0569 0.21276 0.0
N399 N 0.45087 0.1815 0.21179 0.0
H400 H 0.5126 0.13389 0.17235 0.0
H401 H 0.50281 0.16892 0.18735 0.0
H402 H 0.43564 0.19535 0.22308 0.0
H403 H 0.46329 0.19295 0.19552 0.0
H404 H 0.42456 0.04575 0.22314 0.0
H405 H 0.45449 0.04323 0.19799 0.0
H406 H 0.41492 0.06783 0.26342 0.0
H407 H 0.40136 0.10299 0.2746 0.0
C408 C 0.6543 0.28391 0.52692 0.0
C409 C 0.64086 0.26461 0.54857 0.0
C410 C 0.5906 0.28144 0.53356 0.0
C411 C 0.60407 0.30128 0.51242 0.0
N412 N 0.64715 0.31552 0.48288 0.0
N413 N 0.5971 0.23857 0.56688 0.0
C414 C 0.63547 0.30047 0.50705 0.0
C415 C 0.60921 0.26121 0.54993 0.0
N416 N 0.68483 0.288 0.52664 0.0
N417 N 0.56042 0.28327 0.53947 0.0
H418 H 0.61042 0.22338 0.57895 0.0
H419 H 0.57432 0.23305 0.56669 0.0
H420 H 0.54586 0.29761 0.52789 0.0
H421 H 0.55004 0.27202 0.55722 0.0
H422 H 0.6955 0.30455 0.51392 0.0
H423 H 0.69955 0.27617 0.54059 0.0
H424 H 0.66949 0.3136 0.47602 0.0
H425 H 0.63368 0.3277 0.46792 0.0
C426 C 0.96101 0.3669 0.76955 0.0
C427 C 0.93215 0.35699 0.77917 0.0
C428 C 0.93921 0.38414 0.82645 0.0
C429 C 0.96988 0.38938 0.81914 0.0
N430 N 0.01163 0.37851 0.78564 0.0
N431 N 0.89863 0.34874 0.82159 0.0
C432 C 0.98137 0.37873 0.7912 0.0
C433 C 0.92256 0.36342 0.80902 0.0
N434 N 0.96874 0.36627 0.73978 0.0
N435 N 0.92535 0.39976 0.84907 0.0
H436 H 0.88744 0.33105 0.81102 0.0
H437 H 0.89264 0.35148 0.84414 0.0
H438 H 0.93569 0.41733 0.86071 0.0
H439 H 0.90233 0.3979 0.85338 0.0
H440 H 0.98869 0.37563 0.73171 0.0
H441 H 0.95382 0.35986 0.72284 0.0
H442 H 0.0209 0.36858 0.76647 0.0
H443 H 0.02763 0.38479 0.8016 0.0
C444 C 0.89276 0.74073 0.05079 0.0
C445 C 0.86098 0.73931 0.04922 0.0
C446 C 0.86458 0.70173 0.00899 0.0
C447 C 0.89586 0.69912 0.01472 0.0
N448 N 0.93987 0.71451 0.04296 0.0
N449 N 0.81591 0.71742 0.02797 0.0
C450 C 0.91019 0.71855 0.03572 0.0
C451 C 0.8466 0.71994 0.02823 0.0
N452 N 0.90618 0.76336 0.06675 0.0
N453 N 0.85219 0.68699 0.98498 0.0
H454 H 0.8018 0.73044 0.04149 0.0
H455 H 0.80447 0.70096 0.01581 0.0
H456 H 0.86495 0.67372 0.97034 0.0
H457 H 0.83006 0.69024 0.97789 0.0
H458 H 0.9293 0.76735 0.06645 0.0
H459 H 0.89379 0.78002 0.07782 0.0
H460 H 0.95041 0.72572 0.06066 0.0
H461 H 0.95355 0.6982 0.03305 0.0
C462 C 0.52573 0.65593 0.27776 0.0
C463 C 0.5462 0.64243 0.25717 0.0
C464 C 0.53054 0.59218 0.2732 0.0
C465 C 0.51074 0.60569 0.29441 0.0
N466 N 0.48263 0.64908 0.31065 0.0
N467 N 0.56163 0.59898 0.22876 0.0
C468 C 0.506 0.6372 0.29448 0.0
C469 C 0.5463 0.61089 0.25266 0.0
N470 N 0.52662 0.68627 0.28303 0.0
N471 N 0.53601 0.56187 0.27405 0.0
H472 H 0.5732 0.61242 0.21334 0.0
H473 H 0.5604 0.57639 0.22257 0.0
H474 H 0.52502 0.54719 0.28866 0.0
H475 H 0.55297 0.55145 0.26162 0.0
H476 H 0.51488 0.69668 0.30047 0.0
H477 H 0.54062 0.70099 0.27133 0.0
H478 H 0.47623 0.67163 0.30947 0.0
H479 H 0.46776 0.63565 0.32293 0.0
C480 C 0.24302 0.44239 0.10521 0.0
C481 C 0.2407 0.44088 0.13697 0.0
C482 C 0.20453 0.4826 0.13637 0.0
C483 C 0.2025 0.47991 0.10469 0.0
N484 N 0.21865 0.45605 0.05843 0.0
N485 N 0.21768 0.45825 0.18327 0.0
C486 C 0.22185 0.45994 0.08881 0.0
C487 C 0.2215 0.46105 0.15283 0.0
N488 N 0.26554 0.42708 0.09083 0.0
N489 N 0.19012 0.50579 0.15062 0.0
H490 H 0.22925 0.44261 0.19639 0.0
H491 H 0.20126 0.46994 0.19529 0.0
H492 H 0.17769 0.52198 0.1389 0.0
H493 H 0.19296 0.5107 0.17338 0.0
H494 H 0.27021 0.42949 0.06797 0.0
H495 H 0.28148 0.41425 0.10244 0.0
H496 H 0.22955 0.4391 0.0464 0.0
H497 H 0.2035 0.46833 0.04537 0.0
C498 C 0.71964 0.03981 0.9089 0.0
C499 C 0.69856 0.02136 0.89348 0.0
C500 C 0.71806 0.03839 0.84488 0.0
C501 C 0.73888 0.05715 0.86029 0.0
N502 N 0.76545 0.06942 0.90585 0.0
N503 N 0.68341 0.99629 0.84792 0.0
C504 C 0.74167 0.05566 0.89201 0.0
C505 C 0.69976 0.01837 0.86177 0.0
N506 N 0.7174 0.04387 0.93935 0.0
N507 N 0.71415 0.04115 0.81445 0.0
H508 H 0.66999 0.98118 0.85991 0.0
H509 H 0.68547 0.99106 0.82515 0.0
H510 H 0.72692 0.05554 0.80104 0.0
H511 H 0.69674 0.03074 0.80271 0.0
H512 H 0.7298 0.05988 0.95116 0.0
H513 H 0.70164 0.03278 0.95271 0.0
H514 H 0.77038 0.06685 0.92864 0.0
H515 H 0.782 0.081 0.89384 0.0
C516 C 0.75285 0.95228 0.38369 0.0
C517 C 0.75667 0.94997 0.35213 0.0
C518 C 0.79489 0.98963 0.35372 0.0
C519 C 0.79526 0.98744 0.3855 0.0
N520 N 0.77532 0.96601 0.43141 0.0
N521 N 0.78225 0.96544 0.30659 0.0
C522 C 0.774 0.96909 0.40079 0.0
C523 C 0.77747 0.96883 0.33683 0.0
N524 N 0.72898 0.93833 0.39716 0.0
N525 N 0.81126 0.01165 0.3398 0.0
H526 H 0.77007 0.95054 0.29317 0.0
H527 H 0.79976 0.97591 0.29506 0.0
H528 H 0.82405 0.02729 0.35181 0.0
H529 H 0.80979 0.01627 0.31685 0.0
H530 H 0.72328 0.94135 0.41971 0.0
H531 H 0.7131 0.92603 0.38493 0.0
H532 H 0.76285 0.95013 0.44331 0.0
H533 H 0.79035 0.9779 0.44492 0.0
C534 C 0.27915 0.5385 0.65607 0.0
C535 C 0.25849 0.55688 0.63993 0.0
C536 C 0.27964 0.5395 0.5921 0.0
C537 C 0.29942 0.52019 0.60825 0.0
N538 N 0.3134 0.49595 0.65471 0.0
N539 N 0.23439 0.57018 0.59319 0.0
C540 C 0.29768 0.51799 0.64 0.0
C541 C 0.25726 0.55589 0.60808 0.0
N542 N 0.28238 0.54186 0.68653 0.0
N543 N 0.28328 0.54353 0.56178 0.0
H544 H 0.21759 0.58231 0.60432 0.0
H545 H 0.23047 0.56773 0.57019 0.0
H546 H 0.29944 0.53212 0.54911 0.0
H547 H 0.27187 0.55996 0.5495 0.0
H548 H 0.29948 0.53157 0.69887 0.0
H549 H 0.26967 0.55696 0.69928 0.0
H550 H 0.31069 0.49124 0.67752 0.0
H551 H 0.32702 0.48041 0.64347 0.0
C552 C 0.25677 0.41435 0.47657 0.0
C553 C 0.27577 0.40367 0.49981 0.0
C554 C 0.25455 0.35306 0.49474 0.0
C555 C 0.24046 0.36246 0.46775 0.0
N556 N 0.22465 0.40177 0.43403 0.0
N557 N 0.29139 0.36435 0.53366 0.0
C558 C 0.23997 0.39325 0.45935 0.0
C559 C 0.27371 0.37355 0.51019 0.0
N560 N 0.2554 0.44457 0.47087 0.0
N561 N 0.25007 0.32439 0.50496 0.0
H562 H 0.30463 0.3793 0.54605 0.0
H563 H 0.29371 0.34203 0.54041 0.0
H564 H 0.23615 0.30914 0.49373 0.0
H565 H 0.25801 0.31639 0.5255 0.0
H566 H 0.24065 0.45439 0.45553 0.0
H567 H 0.26763 0.46022 0.48344 0.0
H568 H 0.22583 0.42314 0.42452 0.0
H569 H 0.21106 0.38684 0.42199 0.0
C570 C 0.9074 0.02188 0.73699 0.0
C571 C 0.89889 0.00402 0.71204 0.0
C572 C 0.84555 0.01311 0.72307 0.0
C573 C 0.85432 0.03522 0.74425 0.0
N574 N 0.89268 0.0599 0.77353 0.0
N575 N 0.86061 0.98031 0.68186 0.0
C576 C 0.88501 0.03893 0.75232 0.0
C577 C 0.86809 0.99841 0.70563 0.0
N578 N 0.93694 0.02261 0.74565 0.0
N579 N 0.81567 0.00666 0.71955 0.0
H580 H 0.87668 0.96834 0.66953 0.0
H581 H 0.83881 0.97781 0.67366 0.0
H582 H 0.79896 0.01734 0.73223 0.0
H583 H 0.80754 0.98931 0.70608 0.0
H584 H 0.94463 0.03337 0.76499 0.0
H585 H 0.95358 0.01019 0.73459 0.0
H586 H 0.9147 0.06649 0.77807 0.0
H587 H 0.87663 0.07162 0.78612 0.0
C588 C 0.24066 0.63999 0.97796 0.0
C589 C 0.22889 0.65073 0.95009 0.0
C590 C 0.18379 0.6211 0.95901 0.0
C591 C 0.19808 0.60502 0.98259 0.0
N592 N 0.24441 0.59653 0.01054 0.0
N593 N 0.19342 0.63996 0.9096 0.0
C594 C 0.22778 0.61367 0.99118 0.0
C595 C 0.20163 0.63804 0.93919 0.0
N596 N 0.26313 0.6551 0.99247 0.0
N597 N 0.15322 0.62101 0.95565 0.0
H598 H 0.2079 0.64751 0.89275 0.0
H599 H 0.17408 0.62947 0.90136 0.0
H600 H 0.13876 0.61183 0.97173 0.0
H601 H 0.14245 0.63383 0.93912 0.0
H602 H 0.27061 0.64902 0.01389 0.0
H603 H 0.27152 0.67569 0.98504 0.0
H604 H 0.26699 0.60107 0.01513 0.0
H605 H 0.23707 0.57608 0.01926 0.0
C606 C 0.62471 0.991 0.19586 0.0
C607 C 0.59482 0.98797 0.20679 0.0
C608 C 0.61245 0.95632 0.24832 0.0
C609 C 0.64196 0.95762 0.23608 0.0
N610 N 0.67811 0.98172 0.20392 0.0
N611 N 0.56084 0.97486 0.2468 0.0
C612 C 0.64871 0.97697 0.21172 0.0
C613 C 0.58895 0.97315 0.23437 0.0
N614 N 0.62979 0.00628 0.16961 0.0
N615 N 0.60664 0.93759 0.27206 0.0
H616 H 0.5433 0.98682 0.23667 0.0
H617 H 0.55547 0.96665 0.26807 0.0
H618 H 0.62354 0.92577 0.28333 0.0
H619 H 0.5851 0.93273 0.27989 0.0
H620 H 0.65032 0.00647 0.15832 0.0
H621 H 0.61285 0.01813 0.15843 0.0
H622 H 0.68502 0.99731 0.18786 0.0
H623 H 0.69597 0.9717 0.2155 0.0
C624 C 0.76277 0.15364 0.50491 0.0
C625 C 0.74932 0.14469 0.53238 0.0
C626 C 0.76211 0.09203 0.52222 0.0
C627 C 0.78065 0.10189 0.49831 0.0
N628 N 0.79702 0.14059 0.46418 0.0
N629 N 0.73248 0.10586 0.56617 0.0
C630 C 0.77991 0.13221 0.48836 0.0
C631 C 0.74733 0.11385 0.5404 0.0
N632 N 0.75964 0.18271 0.49528 0.0
N633 N 0.75926 0.06186 0.52761 0.0
H634 H 0.72022 0.12136 0.57895 0.0
H635 H 0.73275 0.08431 0.57533 0.0
H636 H 0.76997 0.04569 0.51429 0.0
H637 H 0.7447 0.05269 0.54351 0.0
H638 H 0.76713 0.19048 0.47449 0.0
H639 H 0.74732 0.19871 0.50734 0.0
H640 H 0.80036 0.1628 0.45753 0.0
H641 H 0.80872 0.12498 0.45103 0.0
C642 C 0.15381 0.48539 0.76413 0.0
C643 C 0.14285 0.50562 0.74213 0.0
C644 C 0.09121 0.48931 0.75204 0.0
C645 C 0.10173 0.47486 0.77838 0.0
N646 N 0.14227 0.45439 0.8078 0.0
N647 N 0.10231 0.52443 0.71152 0.0
C648 C 0.13294 0.47075 0.78345 0.0
C649 C 0.11191 0.50612 0.73433 0.0
N650 N 0.18417 0.48116 0.76683 0.0
N651 N 0.06136 0.4876 0.74483 0.0
H652 H 0.1173 0.53611 0.69771 0.0
H653 H 0.07978 0.5286 0.70659 0.0
H654 H 0.04615 0.47529 0.75786 0.0
H655 H 0.05212 0.49613 0.72506 0.0
H656 H 0.19407 0.46567 0.78137 0.0
H657 H 0.19945 0.49185 0.7525 0.0
H658 H 0.16454 0.45286 0.8149 0.0
H659 H 0.12716 0.44252 0.82133 0.0
C660 C 0.70043 0.87299 0.00109 0.0
C661 C 0.70759 0.904 0.00405 0.0
C662 C 0.75093 0.89175 0.03582 0.0
C663 C 0.74223 0.86104 0.0349 0.0
N664 N 0.71454 0.821 0.01141 0.0
N665 N 0.74309 0.94271 0.01719 0.0
C666 C 0.71894 0.85119 0.01554 0.0
C667 C 0.73423 0.91328 0.01891 0.0
N668 N 0.67523 0.86469 0.98543 0.0
N669 N 0.77417 0.90032 0.05411 0.0
H670 H 0.73092 0.9589 0.00526 0.0
H671 H 0.76346 0.95072 0.02552 0.0
H672 H 0.78757 0.88478 0.06561 0.0
H673 H 0.77968 0.92261 0.05873 0.0
H674 H 0.66659 0.84293 0.98508 0.0
H675 H 0.66225 0.88007 0.97325 0.0
H676 H 0.69936 0.81195 0.99604 0.0
H677 H 0.72799 0.80478 0.02187 0.0
C678 C 0.34391 0.48118 0.27601 0.0
C679 C 0.35205 0.46278 0.25132 0.0
C680 C 0.40451 0.47923 0.25553 0.0
C681 C 0.39729 0.49269 0.2835 0.0
N682 N 0.3606 0.50947 0.31977 0.0
N683 N 0.38898 0.44504 0.21574 0.0
C684 C 0.36697 0.49507 0.29328 0.0
C685 C 0.38194 0.46262 0.24004 0.0
N686 N 0.31413 0.48497 0.28284 0.0
N687 N 0.43302 0.48197 0.24428 0.0
H688 H 0.37271 0.43348 0.20336 0.0
H689 H 0.41088 0.44095 0.20844 0.0
H690 H 0.44987 0.49386 0.25555 0.0
H691 H 0.43938 0.47473 0.22291 0.0
H692 H 0.30619 0.49969 0.29927 0.0
H693 H 0.29704 0.47501 0.27013 0.0
H694 H 0.33958 0.50922 0.33012 0.0
H695 H 0.3769 0.52114 0.33204 0.0
C696 C 0.47778 0.2594 0.40742 0.0
C697 C 0.4937 0.28545 0.39839 0.0
C698 C 0.48889 0.27079 0.34548 0.0
C699 C 0.46804 0.24842 0.35423 0.0
N700 N 0.44379 0.2191 0.39284 0.0
N701 N 0.51749 0.31515 0.35978 0.0
C702 C 0.46343 0.24147 0.38508 0.0
C703 C 0.5007 0.29058 0.36765 0.0
N704 N 0.47604 0.2523 0.43731 0.0
N705 N 0.49691 0.27306 0.31585 0.0
H706 H 0.52763 0.32913 0.37572 0.0
H707 H 0.52073 0.3223 0.33771 0.0
H708 H 0.48848 0.25839 0.29951 0.0
H709 H 0.51349 0.2875 0.30781 0.0
H710 H 0.46674 0.23241 0.44548 0.0
H711 H 0.4862 0.26541 0.45396 0.0
H712 H 0.43641 0.21517 0.41472 0.0
H713 H 0.43397 0.20487 0.37694 0.0
C714 C 0.97811 0.23445 0.59068 0.0
C715 C 0.99387 0.20798 0.59895 0.0
C716 C 0.98808 0.22061 0.65233 0.0
C717 C 0.96759 0.24361 0.64412 0.0
N718 N 0.94392 0.27433 0.60617 0.0
N719 N 0.01638 0.17637 0.63688 0.0
C720 C 0.96341 0.25162 0.61346 0.0
C721 C 8e-05 0.20151 0.62962 0.0
N722 N 0.97693 0.24274 0.56107 0.0
N723 N 0.99578 0.21719 0.68194 0.0
H724 H 0.02677 0.16287 0.62067 0.0
H725 H 0.01886 0.16822 0.65871 0.0
H726 H 0.98732 0.23129 0.69877 0.0
H727 H 0.01226 0.20234 0.68957 0.0
H728 H 0.96788 0.26301 0.55354 0.0
H729 H 0.98731 0.23021 0.54408 0.0
H730 H 0.93684 0.27901 0.58433 0.0
H731 H 0.93386 0.28806 0.62237 0.0
C732 C 0.0381 0.73969 0.91953 0.0
C733 C 0.01349 0.72129 0.91104 0.0
C734 C 0.01483 0.74249 0.8601 0.0
C735 C 0.04289 0.75589 0.86705 0.0
N736 N 0.08066 0.7699 0.90321 0.0
N737 N 0.97757 0.70496 0.87365 0.0
C738 C 0.05408 0.75573 0.89693 0.0
C739 C 0.00104 0.72322 0.88164 0.0
N740 N 0.046 0.74166 0.94921 0.0
N741 N 0.0019 0.74764 0.83265 0.0
H742 H 0.96661 0.69084 0.88884 0.0
H743 H 0.96993 0.70248 0.85163 0.0
H744 H 0.01187 0.76132 0.81639 0.0
H745 H 0.98025 0.74069 0.82699 0.0
H746 H 0.06226 0.75638 0.95744 0.0
H747 H 0.03427 0.73026 0.9661 0.0
H748 H 0.09212 0.76779 0.92355 0.0
H749 H 0.09182 0.78324 0.88739 0.0
C750 C 0.50707 0.77029 0.14782 0.0
C751 C 0.53528 0.75669 0.14186 0.0
C752 C 0.53016 0.76817 0.08817 0.0
C753 C 0.50511 0.78659 0.09514 0.0
N754 N 0.46794 0.80444 0.13044 0.0
N755 N 0.57318 0.73992 0.10685 0.0
C756 C 0.49256 0.78685 0.12454 0.0
C757 C 0.5464 0.7543 0.11201 0.0
N758 N 0.49461 0.76765 0.17583 0.0
N759 N 0.53832 0.76431 0.05874 0.0
H760 H 0.58474 0.72828 0.1237 0.0
H761 H 0.58448 0.7402 0.08633 0.0
H762 H 0.5264 0.77426 0.04106 0.0
H763 H 0.55506 0.74953 0.05159 0.0
H764 H 0.47302 0.77501 0.18128 0.0
H765 H 0.50513 0.75574 0.19317 0.0
H766 H 0.4597 0.80861 0.15197 0.0
H767 H 0.45623 0.81591 0.1136 0.0
C768 C 0.19758 0.36424 0.31441 0.0
C769 C 0.19549 0.33256 0.31741 0.0
C770 C 0.22001 0.32553 0.26868 0.0
C771 C 0.22253 0.35733 0.26566 0.0
N772 N 0.20637 0.40677 0.28117 0.0
N773 N 0.19516 0.28381 0.29317 0.0
C774 C 0.20876 0.37666 0.28709 0.0
C775 C 0.20305 0.31355 0.2929 0.0
N776 N 0.18986 0.38228 0.33812 0.0
N777 N 0.23612 0.30658 0.25043 0.0
H778 H 0.1832 0.27384 0.31067 0.0
H779 H 0.19762 0.26979 0.2745 0.0
H780 H 0.25028 0.31381 0.23323 0.0
H781 H 0.23791 0.2835 0.25429 0.0
H782 H 0.19424 0.40531 0.33884 0.0
H783 H 0.18006 0.37373 0.35771 0.0
H784 H 0.1945 0.42174 0.2948 0.0
H785 H 0.2139 0.41624 0.26102 0.0
C786 C 0.91831 0.97006 0.51472 0.0
C787 C 0.88659 0.97459 0.5156 0.0
C788 C 0.88484 0.95482 0.56707 0.0
C789 C 0.91653 0.95109 0.56631 0.0
N790 N 0.96186 0.94577 0.53681 0.0
N791 N 0.83881 0.96398 0.5389 0.0
C792 C 0.93261 0.95513 0.53907 0.0
C793 C 0.86954 0.96443 0.54061 0.0
N794 N 0.9353 0.98247 0.49219 0.0
N795 N 0.86969 0.95025 0.59345 0.0
H796 H 0.8272 0.97056 0.51953 0.0
H797 H 0.82505 0.95464 0.55541 0.0
H798 H 0.8802 0.94152 0.61259 0.0
H799 H 0.84719 0.95607 0.59669 0.0
H800 H 0.95875 0.98313 0.49266 0.0
H801 H 0.92636 0.99463 0.47425 0.0
H802 H 0.97369 0.9455 0.51655 0.0
H803 H 0.97336 0.93533 0.5544 0.0
C804 C 0.25041 0.61175 0.80368 0.0
C805 C 0.26079 0.61573 0.77357 0.0
C806 C 0.3004 0.64966 0.79169 0.0
C807 C 0.28955 0.64582 0.8215 0.0
N808 N 0.26339 0.61403 0.85659 0.0
N809 N 0.30215 0.62925 0.74105 0.0
C810 C 0.26799 0.62326 0.82761 0.0
C811 C 0.28806 0.63158 0.7683 0.0
N812 N 0.2226 0.59998 0.8097 0.0
N813 N 0.3208 0.67168 0.78517 0.0
H814 H 0.29417 0.61528 0.72392 0.0
H815 H 0.32332 0.63843 0.73679 0.0
H816 H 0.33102 0.68498 0.80153 0.0
H817 H 0.32636 0.6778 0.7632 0.0
H818 H 0.21334 0.59974 0.83127 0.0
H819 H 0.20714 0.59363 0.79332 0.0
H820 H 0.24942 0.59602 0.86216 0.0
H821 H 0.27617 0.62241 0.87448 0.0
C822 C 0.60595 0.05029 0.07576 0.0
C823 C 0.57446 0.05306 0.07098 0.0
C824 C 0.58337 0.05532 0.01676 0.0
C825 C 0.61231 0.04272 0.0215 0.0
N826 N 0.65493 0.03778 0.0544 0.0
N827 N 0.53282 0.05966 0.0364 0.0
C828 C 0.62496 0.04368 0.05079 0.0
C829 C 0.56305 0.05679 0.04136 0.0
N830 N 0.61727 0.054 0.10412 0.0
N831 N 0.5756 0.06644 0.9892 0.0
H832 H 0.517 0.06091 0.05367 0.0
H833 H 0.52332 0.05877 0.01495 0.0
H834 H 0.59127 0.06871 0.97185 0.0
H835 H 0.55527 0.07749 0.98513 0.0
H836 H 0.64011 0.05361 0.10933 0.0
H837 H 0.60357 0.05993 0.12229 0.0
H838 H 0.66538 0.03481 0.07516 0.0
H839 H 0.66943 0.03596 0.03596 0.0
C840 C 0.7063 0.18948 0.70701 0.0
C841 C 0.69966 0.17214 0.68112 0.0
C842 C 0.71164 0.12613 0.70912 0.0
C843 C 0.72522 0.14398 0.73187 0.0
N844 N 0.73827 0.19368 0.75064 0.0
N845 N 0.69369 0.12381 0.6575 0.0
C846 C 0.72269 0.17594 0.73084 0.0
C847 C 0.70117 0.14029 0.68237 0.0
N848 N 0.69809 0.21911 0.70841 0.0
N849 N 0.70881 0.09576 0.71321 0.0
H850 H 0.68434 0.13372 0.63831 0.0
H851 H 0.69774 0.10079 0.6555 0.0
H852 H 0.7158 0.08504 0.73294 0.0
H853 H 0.69709 0.08178 0.69849 0.0
H854 H 0.70012 0.23199 0.72792 0.0
H855 H 0.68607 0.22984 0.69137 0.0
H856 H 0.73996 0.21697 0.74833 0.0
H857 H 0.75209 0.18536 0.76764 0.0
C858 C 0.14131 0.45236 0.95221 0.0
C859 C 0.12705 0.45329 0.98077 0.0
C860 C 0.08057 0.43384 0.95935 0.0
C861 C 0.09288 0.43772 0.92998 0.0
N862 N 0.13697 0.44105 0.89862 0.0
N863 N 0.09197 0.42659 0.01218 0.0
C864 C 0.12414 0.44368 0.92648 0.0
C865 C 0.09958 0.4378 0.98462 0.0
N866 N 0.1711 0.45967 0.95012 0.0
N867 N 0.05047 0.429 0.96357 0.0
H868 H 0.10701 0.42701 0.03024 0.0
H869 H 0.07296 0.41331 0.01572 0.0
H870 H 0.03496 0.42694 0.94614 0.0
H871 H 0.04042 0.42956 0.98478 0.0
H872 H 0.18278 0.46217 0.92999 0.0
H873 H 0.18443 0.46239 0.9693 0.0
H874 H 0.15969 0.44445 0.89412 0.0
H875 H 0.12486 0.43352 0.87993 0.0
C876 C 0.79412 0.88521 0.20568 0.0
C877 C 0.78362 0.86505 0.22818 0.0
C878 C 0.81363 0.825 0.20506 0.0
C879 C 0.81517 0.8422 0.17837 0.0
N880 N 0.81304 0.89057 0.15456 0.0
N881 N 0.78341 0.81429 0.2488 0.0
C882 C 0.80801 0.87323 0.17942 0.0
C883 C 0.79403 0.83468 0.22835 0.0
N884 N 0.79054 0.91553 0.20948 0.0
N885 N 0.83014 0.79922 0.2078 0.0
H886 H 0.7681 0.81952 0.26573 0.0
H887 H 0.7879 0.79128 0.24727 0.0
H888 H 0.84601 0.79285 0.19169 0.0
H889 H 0.8311 0.78675 0.22767 0.0
H890 H 0.79941 0.93153 0.19483 0.0
H891 H 0.78109 0.92468 0.22899 0.0
H892 H 0.80519 0.91256 0.15219 0.0
H893 H 0.82457 0.88213 0.13585 0.0
C894 C 0.37264 0.53561 0.45398 0.0
C895 C 0.38949 0.52394 0.47848 0.0
C896 C 0.43622 0.54028 0.45422 0.0
C897 C 0.41986 0.54592 0.42746 0.0
N898 N 0.37265 0.5503 0.4013 0.0
N899 N 0.43805 0.51197 0.50054 0.0
C900 C 0.388 0.54441 0.42731 0.0
C901 C 0.42147 0.52603 0.47866 0.0
N902 N 0.34207 0.5383 0.4564 0.0
N903 N 0.4661 0.54744 0.45588 0.0
H904 H 0.42867 0.5 0.51838 0.0
H905 H 0.46138 0.50965 0.49953 0.0
H906 H 0.47785 0.55731 0.43815 0.0
H907 H 0.47842 0.54648 0.47584 0.0
H908 H 0.32867 0.54885 0.44029 0.0
H909 H 0.33042 0.53235 0.47593 0.0
H910 H 0.34976 0.54608 0.39848 0.0
H911 H 0.38334 0.55844 0.382 0.0
C912 C 0.27173 0.19925 0.36802 0.0
C913 C 0.27511 0.22837 0.38104 0.0
C914 C 0.3295 0.22286 0.37565 0.0
C915 C 0.32516 0.20014 0.35384 0.0
N916 N 0.29256 0.16056 0.33549 0.0
N917 N 0.30935 0.26954 0.39361 0.0
C918 C 0.29642 0.18614 0.35204 0.0
C919 C 0.30461 0.24047 0.38463 0.0
N920 N 0.24543 0.18378 0.37194 0.0
N921 N 0.35755 0.22809 0.38705 0.0
H922 H 0.29236 0.28529 0.39699 0.0
H923 H 0.33075 0.2792 0.39393 0.0
H924 H 0.37584 0.21432 0.38154 0.0
H925 H 0.36148 0.24338 0.40445 0.0
H926 H 0.24233 0.16159 0.36504 0.0
H927 H 0.22781 0.19206 0.38513 0.0
H928 H 0.27148 0.15233 0.32934 0.0
H929 H 0.3105 0.14707 0.32866 0.0
C930 C 0.04429 0.04529 0.63506 0.0
C931 C 0.04167 0.01665 0.62124 0.0
C932 C 0.05975 0.03686 0.57357 0.0
C933 C 0.05641 0.06638 0.58551 0.0
N934 N 0.05571 0.09868 0.62897 0.0
N935 N 0.06559 0.98385 0.58529 0.0
C936 C 0.05238 0.07053 0.61698 0.0
C937 C 0.05569 0.0119 0.59305 0.0
N938 N 0.03888 0.04789 0.66521 0.0
N939 N 0.06435 0.03239 0.54349 0.0
H940 H 0.06538 0.96602 0.6006 0.0
H941 H 0.07774 0.97951 0.56568 0.0
H942 H 0.06778 0.04982 0.52821 0.0
H943 H 0.06302 0.01122 0.53342 0.0
H944 H 0.03837 0.06814 0.67695 0.0
H945 H 0.03591 0.02891 0.67879 0.0
H946 H 0.05302 0.10389 0.65163 0.0
H947 H 0.06283 0.11692 0.61594 0.0
C948 C 0.22454 0.80125 0.86047 0.0
C949 C 0.24219 0.77907 0.84559 0.0
C950 C 0.21117 0.78549 0.80041 0.0
C951 C 0.18986 0.80172 0.81765 0.0
N952 N 0.17592 0.82627 0.86381 0.0
N953 N 0.24851 0.74634 0.8019 0.0
C954 C 0.19663 0.81035 0.84754 0.0
C955 C 0.2351 0.77065 0.81539 0.0
N956 N 0.23448 0.81336 0.88693 0.0
N957 N 0.20778 0.78293 0.76993 0.0
H958 H 0.26456 0.73262 0.81201 0.0
H959 H 0.2412 0.73749 0.78143 0.0
H960 H 0.19005 0.79287 0.75818 0.0
H961 H 0.22432 0.7737 0.75603 0.0
H962 H 0.22376 0.8312 0.89779 0.0
H963 H 0.25516 0.80738 0.89643 0.0
H964 H 0.17792 0.83032 0.88682 0.0
H965 H 0.15598 0.83432 0.85425 0.0
C966 C 0.44734 0.94428 0.13734 0.0
C967 C 0.44798 0.97286 0.12322 0.0
C968 C 0.42606 0.95182 0.07755 0.0
C969 C 0.43212 0.92251 0.08899 0.0
N970 N 0.43993 0.89016 0.13166 0.0
N971 N 0.41989 0.00476 0.08956 0.0
C972 C 0.43937 0.91859 0.11988 0.0
C973 C 0.43133 0.97706 0.09641 0.0
N974 N 0.45405 0.94226 0.16727 0.0
N975 N 0.41775 0.95587 0.04822 0.0
H976 H 0.42088 0.02266 0.10476 0.0
H977 H 0.40586 0.00869 0.07117 0.0
H978 H 0.41262 0.93819 0.03372 0.0
H979 H 0.41724 0.97693 0.03788 0.0
H980 H 0.45416 0.92233 0.17956 0.0
H981 H 0.4575 0.9615 0.18037 0.0
H982 H 0.44693 0.88491 0.15338 0.0
H983 H 0.43275 0.8715 0.11927 0.0
C984 C 0.77266 0.30395 0.64437 0.0
C985 C 0.77691 0.28636 0.6182 0.0
C986 C 0.8315 0.29209 0.62395 0.0
C987 C 0.82664 0.30052 0.65445 0.0
N988 N 0.7916 0.31475 0.69401 0.0
N989 N 0.80963 0.27392 0.57698 0.0
C990 C 0.79703 0.30735 0.66463 0.0
C991 C 0.80627 0.28395 0.60585 0.0
N992 N 0.74571 0.31782 0.6495 0.0
N993 N 0.86014 0.29207 0.61264 0.0
H994 H 0.79117 0.2715 0.5626 0.0
H995 H 0.83019 0.26861 0.56708 0.0
H996 H 0.87858 0.29918 0.62534 0.0
H997 H 0.86559 0.28712 0.59041 0.0
H998 H 0.74213 0.33253 0.66745 0.0
H999 H 0.72863 0.31802 0.63334 0.0
H1000 H 0.76991 0.3165 0.70283 0.0
H1001 H 0.80839 0.31669 0.71025 0.0
C1002 C 0.99261 0.55387 0.87377 0.0
C1003 C 0.98092 0.52472 0.8805 0.0
C1004 C 0.94571 0.54752 0.91653 0.0
C1005 C 0.95789 0.57642 0.90981 0.0
N1006 N 0.9813 0.60714 0.87185 0.0
N1007 N 0.93796 0.49663 0.89835 0.0
C1008 C 0.97703 0.57948 0.88457 0.0
C1009 C 0.95463 0.52246 0.8986 0.0
N1010 N 0.01986 0.55772 0.85995 0.0
N1011 N 0.92717 0.54318 0.94066 0.0
H1012 H 0.94297 0.47857 0.88416 0.0
H1013 H 0.9173 0.49472 0.90934 0.0
H1014 H 0.91855 0.56044 0.95389 0.0
H1015 H 0.92137 0.52179 0.94841 0.0
H1016 H 0.02972 0.57887 0.85732 0.0
H1017 H 0.03461 0.54036 0.85455 0.0
H1018 H 0.99357 0.6102 0.85205 0.0
H1019 H 0.96961 0.62619 0.8793 0.0
C1020 C 0.70491 0.70945 0.18174 0.0
C1021 C 0.67788 0.70521 0.16543 0.0
C1022 C 0.70362 0.71932 0.11877 0.0
C1023 C 0.72828 0.7298 0.13613 0.0
N1024 N 0.75143 0.73729 0.18504 0.0
N1025 N 0.65117 0.70382 0.11839 0.0
C1026 C 0.72912 0.72487 0.16779 0.0
C1027 C 0.6773 0.70901 0.13378 0.0
N1028 N 0.70705 0.69978 0.21088 0.0
N1029 N 0.70555 0.71927 0.08806 0.0
H1030 H 0.63225 0.69444 0.12873 0.0
H1031 H 0.6479 0.70964 0.09592 0.0
H1032 H 0.72485 0.72639 0.07667 0.0
H1033 H 0.68933 0.70979 0.07405 0.0
H1034 H 0.72718 0.69974 0.22293 0.0
H1035 H 0.68952 0.68886 0.22197 0.0
H1036 H 0.75091 0.73759 0.20849 0.0
H1037 H 0.76925 0.74977 0.17633 0.0
C1038 C 0.54403 0.44774 0.35854 0.0
C1039 C 0.54228 0.47683 0.37153 0.0
C1040 C 0.55933 0.45734 0.41989 0.0
C1041 C 0.55534 0.42763 0.40868 0.0
N1042 N 0.5549 0.39439 0.36592 0.0
N1043 N 0.56693 0.50978 0.40678 0.0
C1044 C 0.55162 0.42282 0.37727 0.0
C1045 C 0.55627 0.48188 0.39968 0.0
N1046 N 0.53797 0.44435 0.3286 0.0
N1047 N 0.56362 0.4625 0.4499 0.0
H1048 H 0.56737 0.5272 0.39101 0.0
H1049 H 0.57904 0.51423 0.42639 0.0
H1050 H 0.56626 0.4454 0.46571 0.0
H1051 H 0.5628 0.48398 0.45935 0.0
H1052 H 0.53618 0.4237 0.31769 0.0
H1053 H 0.53529 0.46297 0.31446 0.0
H1054 H 0.5531 0.38892 0.34323 0.0
H1055 H 0.56149 0.37632 0.37946 0.0
C1056 C 0.35634 0.26418 0.19618 0.0
C1057 C 0.37454 0.26932 0.2221 0.0
C1058 C 0.37572 0.32264 0.20857 0.0
C1059 C 0.34965 0.31871 0.19088 0.0
N1060 N 0.31957 0.2845 0.16119 0.0
N1061 N 0.39958 0.30648 0.25417 0.0
C1062 C 0.3415 0.28905 0.18219 0.0
C1063 C 0.38458 0.29925 0.22827 0.0
N1064 N 0.35407 0.23581 0.18448 0.0
N1065 N 0.39051 0.34954 0.20799 0.0
H1066 H 0.40382 0.29159 0.27169 0.0
H1067 H 0.40463 0.32865 0.26001 0.0
H1068 H 0.38379 0.36689 0.19356 0.0
H1069 H 0.41087 0.35308 0.21916 0.0
H1070 H 0.34297 0.231 0.16439 0.0
H1071 H 0.36631 0.21765 0.19308 0.0
H1072 H 0.30952 0.26363 0.15749 0.0
H1073 H 0.31181 0.3016 0.14713 0.0
C1074 C 0.87864 0.17149 0.79279 0.0
C1075 C 0.85205 0.17577 0.80958 0.0
C1076 C 0.85948 0.23015 0.80467 0.0
C1077 C 0.8783 0.22481 0.77922 0.0
N1078 N 0.90425 0.18732 0.74808 0.0
N1079 N 0.82134 0.21028 0.83834 0.0
C1080 C 0.88837 0.19476 0.77341 0.0
C1081 C 0.84396 0.20548 0.81812 0.0
N1082 N 0.89296 0.1443 0.79375 0.0
N1083 N 0.85724 0.2585 0.81643 0.0
H1084 H 0.81281 0.19322 0.85195 0.0
H1085 H 0.81145 0.2313 0.8418 0.0
H1086 H 0.87001 0.27646 0.80831 0.0
H1087 H 0.84563 0.2634 0.83622 0.0
H1088 H 0.91363 0.14039 0.78327 0.0
H1089 H 0.88542 0.12703 0.80785 0.0
H1090 H 0.90926 0.16508 0.74242 0.0
H1091 H 0.90947 0.2021 0.73077 0.0
C1092 C 0.01552 0.58673 0.05468 0.0
C1093 C 0.02037 0.61612 0.04334 0.0
C1094 C 0.07445 0.61074 0.05212 0.0
C1095 C 0.07012 0.57921 0.05533 0.0
N1096 N 0.03661 0.53696 0.06228 0.0
N1097 N 0.05118 0.66022 0.04718 0.0
C1098 C 0.04064 0.56719 0.05828 0.0
C1099 C 0.04896 0.62955 0.0473 0.0
N1100 N 0.98724 0.57811 0.06303 0.0
N1101 N 0.103 0.62224 0.05225 0.0
H1102 H 0.03207 0.67391 0.04574 0.0
H1103 H 0.07096 0.67198 0.05149 0.0
H1104 H 0.12184 0.60914 0.05744 0.0
H1105 H 0.10818 0.64438 0.04662 0.0
H1106 H 0.98253 0.55757 0.07331 0.0
H1107 H 0.96931 0.59332 0.06351 0.0
H1108 H 0.01568 0.5265 0.06077 0.0
H1109 H 0.05443 0.52199 0.06551 0.0
C1110 C 0.66591 0.79041 0.31007 0.0
C1111 C 0.65441 0.81996 0.30562 0.0
C1112 C 0.60517 0.7991 0.292 0.0
C1113 C 0.61898 0.77043 0.28991 0.0
N1114 N 0.65372 0.73742 0.31525 0.0
N1115 N 0.61151 0.85283 0.30152 0.0
C1116 C 0.64654 0.76553 0.3051 0.0
C1117 C 0.62319 0.82436 0.30008 0.0
N1118 N 0.69564 0.78586 0.31656 0.0
N1119 N 0.57505 0.80163 0.28634 0.0
H1120 H 0.62436 0.87113 0.30878 0.0
H1121 H 0.58935 0.85842 0.2964 0.0
H1122 H 0.56166 0.78261 0.28289 0.0
H1123 H 0.56303 0.82173 0.28676 0.0
H1124 H 0.70575 0.76467 0.31604 0.0
H1125 H 0.71064 0.80331 0.32099 0.0
H1126 H 0.67275 0.73291 0.32823 0.0
H1127 H 0.63836 0.71967 0.31423 0.0
C1128 C 0.45198 0.42501 0.56574 0.0
C1129 C 0.42412 0.40974 0.56598 0.0
C1130 C 0.44914 0.36562 0.5442 0.0
C1131 C 0.47333 0.38447 0.53509 0.0
N1132 N 0.49667 0.43403 0.53648 0.0
N1133 N 0.39718 0.3632 0.56142 0.0
C1134 C 0.475 0.41452 0.54627 0.0
C1135 C 0.42327 0.37897 0.55765 0.0
N1136 N 0.45624 0.44971 0.58349 0.0
N1137 N 0.45103 0.3352 0.53994 0.0
H1138 H 0.37879 0.37242 0.57288 0.0
H1139 H 0.39357 0.34175 0.55265 0.0
H1140 H 0.47021 0.32494 0.53097 0.0
H1141 H 0.43504 0.32004 0.5479 0.0
H1142 H 0.47694 0.46061 0.58528 0.0
H1143 H 0.4404 0.45641 0.5995 0.0
H1144 H 0.49638 0.45691 0.54177 0.0
H1145 H 0.5132 0.42847 0.52084 0.0
C1146 C 0.11476 0.65577 0.72931 0.0
C1147 C 0.13204 0.65638 0.70267 0.0
C1148 C 0.1197 0.7101 0.69798 0.0
C1149 C 0.11252 0.71068 0.72926 0.0
N1150 N 0.10726 0.68186 0.77585 0.0
N1151 N 0.14263 0.68269 0.65642 0.0
C1152 C 0.1104 0.6829 0.74525 0.0
C1153 C 0.13181 0.68315 0.68516 0.0
N1154 N 0.10315 0.6293 0.73964 0.0
N1155 N 0.1139 0.73478 0.68052 0.0
H1156 H 0.14659 0.66257 0.64493 0.0
H1157 H 0.14714 0.70205 0.64398 0.0
H1158 H 0.1032 0.75396 0.68895 0.0
H1159 H 0.11668 0.73516 0.65725 0.0
H1160 H 0.08894 0.62821 0.75833 0.0
H1161 H 0.10466 0.60945 0.72708 0.0
H1162 H 0.10796 0.66166 0.78782 0.0
H1163 H 0.10803 0.70065 0.7898 0.0
C1164 C 0.51348 0.92659 0.96161 0.0
C1165 C 0.51447 0.89464 0.96446 0.0
C1166 C 0.56445 0.89373 0.94116 0.0
C1167 C 0.56399 0.92557 0.94004 0.0
N1168 N 0.53419 0.97088 0.93748 0.0
N1169 N 0.53596 0.84759 0.94798 0.0
C1170 C 0.53695 0.94141 0.94584 0.0
C1171 C 0.53834 0.87811 0.95103 0.0
N1172 N 0.49208 0.94321 0.97633 0.0
N1173 N 0.59037 0.8787 0.93414 0.0
H1174 H 0.51668 0.83586 0.95455 0.0
H1175 H 0.55163 0.83447 0.93645 0.0
H1176 H 0.60917 0.88978 0.92539 0.0
H1177 H 0.59354 0.85577 0.93796 0.0
H1178 H 0.4929 0.96661 0.97793 0.0
H1179 H 0.47492 0.934 0.98932 0.0
H1180 H 0.514 0.98278 0.93897 0.0
H1181 H 0.55102 0.98233 0.92584 0.0
C1182 C 0.92687 0.11903 0.43613 0.0
C1183 C 0.92658 0.08804 0.42864 0.0
C1184 C 0.97699 0.0816 0.4491 0.0
C1185 C 0.97632 0.11194 0.45954 0.0
N1186 N 0.95608 0.16198 0.45327 0.0
N1187 N 0.95709 0.04609 0.41281 0.0
C1188 C 0.95305 0.13158 0.44964 0.0
C1189 C 0.95376 0.07154 0.42968 0.0
N1190 N 0.90147 0.13579 0.43161 0.0
N1191 N 0.99787 0.0615 0.45955 0.0
H1192 H 0.94107 0.03954 0.39695 0.0
H1193 H 0.97732 0.0342 0.41154 0.0
H1194 H 0.01455 0.06685 0.47509 0.0
H1195 H 0.99679 0.03851 0.45488 0.0
H1196 H 0.89861 0.15761 0.43974 0.0
H1197 H 0.88285 0.12703 0.4202 0.0
H1198 H 0.94082 0.17764 0.44475 0.0
H1199 H 0.9755 0.17161 0.46236 0.0
loop_
_geom_bond_atom_site_label_1
_geom_bond_atom_site_label_2
_geom_bond_distance
_geom_bond_site_symmetry_2
_ccdc_geom_bond_type
O0 Cd1 2.223 . S
O0 C8 1.315 . S
Cd1 O0 2.223 . S
Cd1 O4 2.297 . S
Cd1 O5 2.439 . S
Cd1 O11 2.240 . S
Cd2 O3 2.240 . S
Cd2 O10 2.223 . S
Cd2 O12 2.297 . S
Cd2 O13 2.439 . S
O3 Cd2 2.240 . S
O3 C8 1.279 . S
O4 Cd1 2.297 . S
O4 C6 1.247 . S
O5 Cd1 2.439 . S
O5 C6 1.208 . S
C6 O4 1.247 . S
C6 O5 1.208 . S
C7 O12 1.247 . S
C7 O13 1.208 . S
C8 O0 1.315 . S
C8 O3 1.279 . S
C9 O10 1.315 . S
C9 O11 1.279 . S
O10 Cd2 2.223 . S
O10 C9 1.315 . S
O11 Cd1 2.240 . S
O11 C9 1.279 . S
O12 Cd2 2.297 . S
O12 C7 1.247 . S
O13 Cd2 2.439 . S
O13 C7 1.208 . S
O14 Cd15 2.233 . S
O14 C22 1.314 1_655 S
Cd15 O14 2.233 . S
Cd15 O18 2.297 1_655 S
Cd15 O19 2.439 . S
Cd15 O25 2.240 . S
Cd16 O17 2.240 . S
Cd16 O24 2.223 . S
Cd16 O26 2.296 1_565 S
Cd16 O27 2.439 . S
O17 Cd16 2.240 . S
O17 C22 1.269 1_655 S
O18 Cd15 2.297 1_455 S
O18 C20 1.247 . S
O19 Cd15 2.439 . S
O19 C20 1.208 1_655 S
C20 O18 1.247 . S
C20 O19 1.208 1_455 S
C21 O26 1.239 1_565 S
C21 O27 1.208 . S
C22 O14 1.314 1_455 S
C22 O17 1.269 1_455 S
C23 O24 1.315 . S
C23 O25 1.279 . S
O24 Cd16 2.223 . S
O24 C23 1.315 . S
O25 Cd15 2.240 . S
O25 C23 1.279 . S
O26 Cd16 2.296 1_545 S
O26 C21 1.239 1_545 S
O27 Cd16 2.439 . S
O27 C21 1.208 . S
O28 Cd29 2.223 . S
O28 C36 1.315 . S
Cd29 O28 2.223 . S
Cd29 O32 2.297 . S
Cd29 O33 2.439 . S
Cd29 O39 2.240 . S
Cd30 O31 2.240 . S
Cd30 O38 2.223 . S
Cd30 O40 2.297 . S
Cd30 O41 2.439 . S
O31 Cd30 2.240 . S
O31 C36 1.279 . S
O32 Cd29 2.297 . S
O32 C34 1.247 . S
O33 Cd29 2.439 . S
O33 C34 1.208 . S
C34 O32 1.247 . S
C34 O33 1.208 . S
C35 O40 1.247 . S
C35 O41 1.208 . S
C36 O28 1.315 . S
C36 O31 1.279 . S
C37 O38 1.315 . S
C37 O39 1.279 . S
O38 Cd30 2.223 . S
O38 C37 1.315 . S
O39 Cd29 2.240 . S
O39 C37 1.279 . S
O40 Cd30 2.297 . S
O40 C35 1.247 . S
O41 Cd30 2.439 . S
O41 C35 1.208 . S
O42 Cd43 2.223 . S
O42 C50 1.315 . S
Cd43 O42 2.223 . S
Cd43 O46 2.297 . S
Cd43 O47 2.439 . S
Cd43 O53 2.240 . S
Cd44 O45 2.240 . S
Cd44 O52 2.223 . S
Cd44 O54 2.296 1_545 S
Cd44 O55 2.439 . S
O45 Cd44 2.240 . S
O45 C50 1.279 . S
O46 Cd43 2.297 . S
O46 C48 1.247 . S
O47 Cd43 2.439 . S
O47 C48 1.208 . S
C48 O46 1.247 . S
C48 O47 1.208 . S
C49 O54 1.239 1_545 S
C49 O55 1.208 . S
C50 O42 1.315 . S
C50 O45 1.279 . S
C51 O52 1.315 . S
C51 O53 1.279 . S
O52 Cd44 2.223 . S
O52 C51 1.315 . S
O53 Cd43 2.240 . S
O53 C51 1.279 . S
O54 Cd44 2.296 1_565 S
O54 C49 1.239 1_565 S
O55 Cd44 2.439 . S
O55 C49 1.208 . S
O56 Cd57 2.223 . S
O56 C64 1.315 . S
Cd57 O56 2.223 . S
Cd57 O60 2.297 . S
Cd57 O61 2.439 . S
Cd57 O67 2.240 . S
Cd58 O59 2.240 . S
Cd58 O66 2.223 . S
Cd58 O68 2.297 . S
Cd58 O69 2.439 . S
O59 Cd58 2.240 . S
O59 C64 1.279 . S
O60 Cd57 2.297 . S
O60 C62 1.247 . S
O61 Cd57 2.439 . S
O61 C62 1.208 . S
C62 O60 1.247 . S
C62 O61 1.208 . S
C63 O68 1.247 . S
C63 O69 1.208 . S
C64 O56 1.315 . S
C64 O59 1.279 . S
C65 O66 1.315 . S
C65 O67 1.279 . S
O66 Cd58 2.223 . S
O66 C65 1.315 . S
O67 Cd57 2.240 . S
O67 C65 1.279 . S
O68 Cd58 2.297 . S
O68 C63 1.247 . S
O69 Cd58 2.439 . S
O69 C63 1.208 . S
O70 Cd71 2.233 . S
O70 C78 1.314 1_455 S
Cd71 O70 2.233 . S
Cd71 O74 2.297 1_455 S
Cd71 O75 2.439 . S
Cd71 O81 2.240 . S
Cd72 O73 2.240 . S
Cd72 O80 2.223 . S
Cd72 O82 2.297 . S
Cd72 O83 2.439 . S
O73 Cd72 2.240 . S
O73 C78 1.269 1_455 S
O74 Cd71 2.297 1_655 S
O74 C76 1.247 . S
O75 Cd71 2.439 . S
O75 C76 1.208 1_455 S
C76 O74 1.247 . S
C76 O75 1.208 1_655 S
C77 O82 1.247 . S
C77 O83 1.208 . S
C78 O70 1.314 1_655 S
C78 O73 1.269 1_655 S
C79 O80 1.315 . S
C79 O81 1.279 . S
O80 Cd72 2.223 . S
O80 C79 1.315 . S
O81 Cd71 2.240 . S
O81 C79 1.279 . S
O82 Cd72 2.297 . S
O82 C77 1.247 . S
O83 Cd72 2.439 . S
O83 C77 1.208 . S
O84 Cd85 2.223 . S
O84 C92 1.315 . S
Cd85 O84 2.223 . S
Cd85 O88 2.297 . S
Cd85 O89 2.439 . S
Cd85 O95 2.240 . S
Cd86 O87 2.240 . S
Cd86 O94 2.223 . S
Cd86 O96 2.297 . S
Cd86 O97 2.439 . S
O87 Cd86 2.240 . S
O87 C92 1.279 . S
O88 Cd85 2.297 . S
O88 C90 1.247 . S
O89 Cd85 2.439 . S
O89 C90 1.208 . S
C90 O88 1.247 . S
C90 O89 1.208 . S
C91 O96 1.247 . S
C91 O97 1.208 . S
C92 O84 1.315 . S
C92 O87 1.279 . S
C93 O94 1.315 . S
C93 O95 1.279 . S
O94 Cd86 2.223 . S
O94 C93 1.315 . S
O95 Cd85 2.240 . S
O95 C93 1.279 . S
O96 Cd86 2.297 . S
O96 C91 1.247 . S
O97 Cd86 2.439 . S
O97 C91 1.208 . S
O98 Cd99 2.223 . S
O98 C106 1.315 . S
Cd99 O98 2.223 . S
Cd99 O102 2.297 . S
Cd99 O103 2.439 . S
Cd99 O109 2.240 . S
Cd100 O101 2.240 . S
Cd100 O108 2.223 . S
Cd100 O110 2.297 . S
Cd100 O111 2.439 . S
O101 Cd100 2.240 . S
O101 C106 1.279 . S
O102 Cd99 2.297 . S
O102 C104 1.247 . S
O103 Cd99 2.439 . S
O103 C104 1.208 . S
C104 O102 1.247 . S
C104 O103 1.208 . S
C105 O110 1.247 . S
C105 O111 1.208 . S
C106 O98 1.315 . S
C106 O101 1.279 . S
C107 O108 1.315 . S
C107 O109 1.279 . S
O108 Cd100 2.223 . S
O108 C107 1.315 . S
O109 Cd99 2.240 . S
O109 C107 1.279 . S
O110 Cd100 2.297 . S
O110 C105 1.247 . S
O111 Cd100 2.439 . S
O111 C105 1.208 . S
O112 Cd113 2.223 . S
O112 C120 1.315 . S
Cd113 O112 2.223 . S
Cd113 O116 2.297 . S
Cd113 O117 2.439 . S
Cd113 O123 2.240 . S
Cd114 O115 2.240 . S
Cd114 O122 2.223 . S
Cd114 O124 2.297 . S
Cd114 O125 2.439 . S
O115 Cd114 2.240 . S
O115 C120 1.279 . S
O116 Cd113 2.297 . S
O116 C118 1.247 . S
O117 Cd113 2.439 . S
O117 C118 1.208 . S
C118 O116 1.247 . S
C118 O117 1.208 . S
C119 O124 1.247 . S
C119 O125 1.208 . S
C120 O112 1.315 . S
C120 O115 1.279 . S
C121 O122 1.315 . S
C121 O123 1.279 . S
O122 Cd114 2.223 . S
O122 C121 1.315 . S
O123 Cd113 2.240 . S
O123 C121 1.279 . S
O124 Cd114 2.297 . S
O124 C119 1.247 . S
O125 Cd114 2.439 . S
O125 C119 1.208 . S
O126 Cd127 2.223 . S
O126 C134 1.315 . S
Cd127 O126 2.223 . S
Cd127 O130 2.297 . S
Cd127 O131 2.439 . S
Cd127 O137 2.240 . S
Cd128 O129 2.240 . S
Cd128 O136 2.223 . S
Cd128 O138 2.296 1_455 S
Cd128 O139 2.439 . S
O129 Cd128 2.240 . S
O129 C134 1.279 . S
O130 Cd127 2.297 . S
O130 C132 1.247 . S
O131 Cd127 2.439 . S
O131 C132 1.208 . S
C132 O130 1.247 . S
C132 O131 1.208 . S
C133 O138 1.239 1_455 S
C133 O139 1.208 . S
C134 O126 1.315 . S
C134 O129 1.279 . S
C135 O136 1.315 . S
C135 O137 1.279 . S
O136 Cd128 2.223 . S
O136 C135 1.315 . S
O137 Cd127 2.240 . S
O137 C135 1.279 . S
O138 Cd128 2.296 1_655 S
O138 C133 1.239 1_655 S
O139 Cd128 2.439 . S
O139 C133 1.208 . S
O140 Cd141 2.223 . S
O140 C148 1.315 . S
Cd141 O140 2.223 . S
Cd141 O144 2.297 . S
Cd141 O145 2.439 . S
Cd141 O151 2.240 . S
Cd142 O143 2.240 . S
Cd142 O150 2.223 . S
Cd142 O152 2.297 . S
Cd142 O153 2.439 . S
O143 Cd142 2.240 . S
O143 C148 1.279 . S
O144 Cd141 2.297 . S
O144 C146 1.247 . S
O145 Cd141 2.439 . S
O145 C146 1.208 . S
C146 O144 1.247 . S
C146 O145 1.208 . S
C147 O152 1.247 . S
C147 O153 1.208 . S
C148 O140 1.315 . S
C148 O143 1.279 . S
C149 O150 1.315 . S
C149 O151 1.279 . S
O150 Cd142 2.223 . S
O150 C149 1.315 . S
O151 Cd141 2.240 . S
O151 C149 1.279 . S
O152 Cd142 2.297 . S
O152 C147 1.247 . S
O153 Cd142 2.439 . S
O153 C147 1.208 . S
O154 Cd155 2.233 . S
O154 C162 1.314 1_554 S
Cd155 O154 2.233 . S
Cd155 O158 2.297 1_554 S
Cd155 O159 2.439 . S
Cd155 O165 2.240 . S
Cd156 O157 2.240 . S
Cd156 O164 2.223 . S
Cd156 O166 2.297 . S
Cd156 O167 2.439 . S
O157 Cd156 2.240 . S
O157 C162 1.269 1_554 S
O158 Cd155 2.297 1_556 S
O158 C160 1.247 . S
O159 Cd155 2.439 . S
O159 C160 1.208 1_554 S
C160 O158 1.247 . S
C160 O159 1.208 1_556 S
C161 O166 1.247 . S
C161 O167 1.208 . S
C162 O154 1.314 1_556 S
C162 O157 1.269 1_556 S
C163 O164 1.315 . S
C163 O165 1.279 . S
O164 Cd156 2.223 . S
O164 C163 1.315 . S
O165 Cd155 2.240 . S
O165 C163 1.279 . S
O166 Cd156 2.297 . S
O166 C161 1.247 . S
O167 Cd156 2.439 . S
O167 C161 1.208 . S
O168 Cd169 2.223 . S
O168 C176 1.315 . S
Cd169 O168 2.223 . S
Cd169 O172 2.297 . S
Cd169 O173 2.439 . S
Cd169 O179 2.240 . S
Cd170 O171 2.240 . S
Cd170 O178 2.223 . S
Cd170 O180 2.297 . S
Cd170 O181 2.439 . S
O171 Cd170 2.240 . S
O171 C176 1.279 . S
O172 Cd169 2.297 . S
O172 C174 1.247 . S
O173 Cd169 2.439 . S
O173 C174 1.208 . S
C174 O172 1.247 . S
C174 O173 1.208 . S
C175 O180 1.247 . S
C175 O181 1.208 . S
C176 O168 1.315 . S
C176 O171 1.279 . S
C177 O178 1.315 . S
C177 O179 1.279 . S
O178 Cd170 2.223 . S
O178 C177 1.315 . S
O179 Cd169 2.240 . S
O179 C177 1.279 . S
O180 Cd170 2.297 . S
O180 C175 1.247 . S
O181 Cd170 2.439 . S
O181 C175 1.208 . S
O182 Cd183 2.233 . S
O182 C190 1.314 1_556 S
Cd183 O182 2.233 . S
Cd183 O186 2.297 1_556 S
Cd183 O187 2.439 . S
Cd183 O193 2.240 . S
Cd184 O185 2.240 . S
Cd184 O192 2.223 . S
Cd184 O194 2.296 1_655 S
Cd184 O195 2.439 . S
O185 Cd184 2.240 . S
O185 C190 1.269 1_556 S
O186 Cd183 2.297 1_554 S
O186 C188 1.247 . S
O187 Cd183 2.439 . S
O187 C188 1.208 1_556 S
C188 O186 1.247 . S
C188 O187 1.208 1_554 S
C189 O194 1.239 1_655 S
C189 O195 1.208 . S
C190 O182 1.314 1_554 S
C190 O185 1.269 1_554 S
C191 O192 1.315 . S
C191 O193 1.279 . S
O192 Cd184 2.223 . S
O192 C191 1.315 . S
O193 Cd183 2.240 . S
O193 C191 1.279 . S
O194 Cd184 2.296 1_455 S
O194 C189 1.239 1_455 S
O195 Cd184 2.439 . S
O195 C189 1.208 . S
O196 Cd197 2.223 . S
O196 C204 1.315 . S
Cd197 O196 2.223 . S
Cd197 O200 2.297 . S
Cd197 O201 2.439 . S
Cd197 O207 2.240 . S
Cd198 O199 2.240 . S
Cd198 O206 2.223 . S
Cd198 O208 2.297 . S
Cd198 O209 2.439 . S
O199 Cd198 2.240 . S
O199 C204 1.279 . S
O200 Cd197 2.297 . S
O200 C202 1.247 . S
O201 Cd197 2.439 . S
O201 C202 1.208 . S
C202 O200 1.247 . S
C202 O201 1.208 . S
C203 O208 1.247 . S
C203 O209 1.208 . S
C204 O196 1.315 . S
C204 O199 1.279 . S
C205 O206 1.315 . S
C205 O207 1.279 . S
O206 Cd198 2.223 . S
O206 C205 1.315 . S
O207 Cd197 2.240 . S
O207 C205 1.279 . S
O208 Cd198 2.297 . S
O208 C203 1.247 . S
O209 Cd198 2.439 . S
O209 C203 1.208 . S
O210 Cd211 2.223 . S
O210 C218 1.315 . S
Cd211 O210 2.223 . S
Cd211 O214 2.297 . S
Cd211 O215 2.439 . S
Cd211 O221 2.240 . S
Cd212 O213 2.240 . S
Cd212 O220 2.223 . S
Cd212 O222 2.297 . S
Cd212 O223 2.439 . S
O213 Cd212 2.240 . S
O213 C218 1.279 . S
O214 Cd211 2.297 . S
O214 C216 1.247 . S
O215 Cd211 2.439 . S
O215 C216 1.208 . S
C216 O214 1.247 . S
C216 O215 1.208 . S
C217 O222 1.247 . S
C217 O223 1.208 . S
C218 O210 1.315 . S
C218 O213 1.279 . S
C219 O220 1.315 . S
C219 O221 1.279 . S
O220 Cd212 2.223 . S
O220 C219 1.315 . S
O221 Cd211 2.240 . S
O221 C219 1.279 . S
O222 Cd212 2.297 . S
O222 C217 1.247 . S
O223 Cd212 2.439 . S
O223 C217 1.208 . S
O224 Cd225 2.223 . S
O224 C232 1.315 . S
Cd225 O224 2.223 . S
Cd225 O228 2.297 . S
Cd225 O229 2.439 . S
Cd225 O235 2.240 . S
Cd226 O227 2.240 . S
Cd226 O234 2.223 . S
Cd226 O236 2.297 . S
Cd226 O237 2.439 . S
O227 Cd226 2.240 . S
O227 C232 1.279 . S
O228 Cd225 2.297 . S
O228 C230 1.247 . S
O229 Cd225 2.439 . S
O229 C230 1.208 . S
C230 O228 1.247 . S
C230 O229 1.208 . S
C231 O236 1.247 . S
C231 O237 1.208 . S
C232 O224 1.315 . S
C232 O227 1.279 . S
C233 O234 1.315 . S
C233 O235 1.279 . S
O234 Cd226 2.223 . S
O234 C233 1.315 . S
O235 Cd225 2.240 . S
O235 C233 1.279 . S
O236 Cd226 2.297 . S
O236 C231 1.247 . S
O237 Cd226 2.439 . S
O237 C231 1.208 . S
O238 Cd239 2.223 . S
O238 C246 1.315 . S
Cd239 O238 2.223 . S
Cd239 O242 2.297 . S
Cd239 O243 2.439 . S
Cd239 O249 2.240 . S
Cd240 O241 2.240 . S
Cd240 O248 2.223 . S
Cd240 O250 2.297 . S
Cd240 O251 2.439 . S
O241 Cd240 2.240 . S
O241 C246 1.279 . S
O242 Cd239 2.297 . S
O242 C244 1.247 . S
O243 Cd239 2.439 . S
O243 C244 1.208 . S
C244 O242 1.247 . S
C244 O243 1.208 . S
C245 O250 1.247 . S
C245 O251 1.208 . S
C246 O238 1.315 . S
C246 O241 1.279 . S
C247 O248 1.315 . S
C247 O249 1.279 . S
O248 Cd240 2.223 . S
O248 C247 1.315 . S
O249 Cd239 2.240 . S
O249 C247 1.279 . S
O250 Cd240 2.297 . S
O250 C245 1.247 . S
O251 Cd240 2.439 . S
O251 C245 1.208 . S
O252 Cd253 2.223 . S
O252 C260 1.315 . S
Cd253 O252 2.223 . S
Cd253 O256 2.297 . S
Cd253 O257 2.439 . S
Cd253 O263 2.240 . S
Cd254 O255 2.240 . S
Cd254 O262 2.223 . S
Cd254 O264 2.296 1_554 S
Cd254 O265 2.439 . S
O255 Cd254 2.240 . S
O255 C260 1.279 . S
O256 Cd253 2.297 . S
O256 C258 1.247 . S
O257 Cd253 2.439 . S
O257 C258 1.208 . S
C258 O256 1.247 . S
C258 O257 1.208 . S
C259 O264 1.239 1_554 S
C259 O265 1.208 . S
C260 O252 1.315 . S
C260 O255 1.279 . S
C261 O262 1.315 . S
C261 O263 1.279 . S
O262 Cd254 2.223 . S
O262 C261 1.315 . S
O263 Cd253 2.240 . S
O263 C261 1.279 . S
O264 Cd254 2.296 1_556 S
O264 C259 1.239 1_556 S
O265 Cd254 2.439 . S
O265 C259 1.208 . S
O266 Cd267 2.223 . S
O266 C274 1.315 . S
Cd267 O266 2.223 . S
Cd267 O270 2.297 . S
Cd267 O271 2.439 . S
Cd267 O277 2.240 . S
Cd268 O269 2.240 . S
Cd268 O276 2.223 . S
Cd268 O278 2.297 . S
Cd268 O279 2.439 . S
O269 Cd268 2.240 . S
O269 C274 1.279 . S
O270 Cd267 2.297 . S
O270 C272 1.247 . S
O271 Cd267 2.439 . S
O271 C272 1.208 . S
C272 O270 1.247 . S
C272 O271 1.208 . S
C273 O278 1.247 . S
C273 O279 1.208 . S
C274 O266 1.315 . S
C274 O269 1.279 . S
C275 O276 1.315 . S
C275 O277 1.279 . S
O276 Cd268 2.223 . S
O276 C275 1.315 . S
O277 Cd267 2.240 . S
O277 C275 1.279 . S
O278 Cd268 2.297 . S
O278 C273 1.247 . S
O279 Cd268 2.439 . S
O279 C273 1.208 . S
O280 Cd281 2.223 . S
O280 C288 1.315 . S
Cd281 O280 2.223 . S
Cd281 O284 2.297 . S
Cd281 O285 2.439 . S
Cd281 O291 2.240 . S
Cd282 O283 2.240 . S
Cd282 O290 2.223 . S
Cd282 O292 2.297 . S
Cd282 O293 2.439 . S
O283 Cd282 2.240 . S
O283 C288 1.279 . S
O284 Cd281 2.297 . S
O284 C286 1.247 . S
O285 Cd281 2.439 . S
O285 C286 1.208 . S
C286 O284 1.247 . S
C286 O285 1.208 . S
C287 O292 1.247 . S
C287 O293 1.208 . S
C288 O280 1.315 . S
C288 O283 1.279 . S
C289 O290 1.315 . S
C289 O291 1.279 . S
O290 Cd282 2.223 . S
O290 C289 1.315 . S
O291 Cd281 2.240 . S
O291 C289 1.279 . S
O292 Cd282 2.297 . S
O292 C287 1.247 . S
O293 Cd282 2.439 . S
O293 C287 1.208 . S
O294 Cd295 2.223 . S
O294 C302 1.315 . S
Cd295 O294 2.223 . S
Cd295 O298 2.297 . S
Cd295 O299 2.439 . S
Cd295 O305 2.240 . S
Cd296 O297 2.240 . S
Cd296 O304 2.223 . S
Cd296 O306 2.297 . S
Cd296 O307 2.439 . S
O297 Cd296 2.240 . S
O297 C302 1.279 . S
O298 Cd295 2.297 . S
O298 C300 1.247 . S
O299 Cd295 2.439 . S
O299 C300 1.208 . S
C300 O298 1.247 . S
C300 O299 1.208 . S
C301 O306 1.247 . S
C301 O307 1.208 . S
C302 O294 1.315 . S
C302 O297 1.279 . S
C303 O304 1.315 . S
C303 O305 1.279 . S
O304 Cd296 2.223 . S
O304 C303 1.315 . S
O305 Cd295 2.240 . S
O305 C303 1.279 . S
O306 Cd296 2.297 . S
O306 C301 1.247 . S
O307 Cd296 2.439 . S
O307 C301 1.208 . S
O308 Cd309 2.233 . S
O308 C316 1.314 1_565 S
Cd309 O308 2.233 . S
Cd309 O312 2.297 1_565 S
Cd309 O313 2.439 . S
Cd309 O319 2.240 . S
Cd310 O311 2.240 . S
Cd310 O318 2.223 . S
Cd310 O320 2.296 1_556 S
Cd310 O321 2.439 . S
O311 Cd310 2.240 . S
O311 C316 1.269 1_565 S
O312 Cd309 2.297 1_545 S
O312 C314 1.247 . S
O313 Cd309 2.439 . S
O313 C314 1.208 1_565 S
C314 O312 1.247 . S
C314 O313 1.208 1_545 S
C315 O320 1.239 1_556 S
C315 O321 1.208 . S
C316 O308 1.314 1_545 S
C316 O311 1.269 1_545 S
C317 O318 1.315 . S
C317 O319 1.279 . S
O318 Cd310 2.223 . S
O318 C317 1.315 . S
O319 Cd309 2.240 . S
O319 C317 1.279 . S
O320 Cd310 2.296 1_554 S
O320 C315 1.239 1_554 S
O321 Cd310 2.439 . S
O321 C315 1.208 . S
O322 Cd323 2.233 . S
O322 C330 1.314 1_545 S
Cd323 O322 2.233 . S
Cd323 O326 2.297 1_545 S
Cd323 O327 2.439 . S
Cd323 O333 2.240 . S
Cd324 O325 2.240 . S
Cd324 O332 2.223 . S
Cd324 O334 2.297 . S
Cd324 O335 2.439 . S
O325 Cd324 2.240 . S
O325 C330 1.269 1_545 S
O326 Cd323 2.297 1_565 S
O326 C328 1.247 . S
O327 Cd323 2.439 . S
O327 C328 1.208 1_545 S
C328 O326 1.247 . S
C328 O327 1.208 1_565 S
C329 O334 1.247 . S
C329 O335 1.208 . S
C330 O322 1.314 1_565 S
C330 O325 1.269 1_565 S
C331 O332 1.315 . S
C331 O333 1.279 . S
O332 Cd324 2.223 . S
O332 C331 1.315 . S
O333 Cd323 2.240 . S
O333 C331 1.279 . S
O334 Cd324 2.297 . S
O334 C329 1.247 . S
O335 Cd324 2.439 . S
O335 C329 1.208 . S
C336 C337 1.363 . S
C336 C342 1.379 . S
C336 N344 1.356 . S
C337 C336 1.363 . S
C337 C343 1.363 . S
C338 C339 1.363 . S
C338 C343 1.379 . S
C338 N345 1.356 . S
C339 C338 1.363 . S
C339 C342 1.363 . S
N340 C342 1.356 . S
N340 H352 0.984 . S
N340 H353 0.985 . S
N341 C343 1.356 . S
N341 H346 0.984 . S
N341 H347 0.985 . S
C342 C336 1.379 . S
C342 C339 1.363 . S
C342 N340 1.356 . S
C343 C337 1.363 . S
C343 C338 1.379 . S
C343 N341 1.356 . S
N344 C336 1.356 . S
N344 H350 0.984 . S
N344 H351 0.984 . S
N345 C338 1.356 . S
N345 H348 0.984 . S
N345 H349 0.985 . S
H346 N341 0.984 . S
H347 N341 0.985 . S
H348 N345 0.984 . S
H349 N345 0.985 . S
H350 N344 0.984 . S
H351 N344 0.984 . S
H352 N340 0.984 . S
H353 N340 0.985 . S
C354 C355 1.363 . S
C354 C360 1.379 . S
C354 N362 1.356 1_455 S
C355 C354 1.363 . S
C355 C361 1.363 . S
C356 C357 1.363 . S
C356 C361 1.379 . S
C356 N363 1.356 . S
C357 C356 1.363 . S
C357 C360 1.363 . S
N358 C360 1.356 . S
N358 H370 0.984 . S
N358 H371 0.985 . S
N359 C361 1.356 . S
N359 H364 0.984 . S
N359 H365 0.985 . S
C360 C354 1.379 . S
C360 C357 1.363 . S
C360 N358 1.356 . S
C361 C355 1.363 . S
C361 C356 1.379 . S
C361 N359 1.356 . S
N362 C354 1.356 1_655 S
N362 H368 0.984 . S
N362 H369 0.984 . S
N363 C356 1.356 . S
N363 H366 0.984 . S
N363 H367 0.985 . S
H364 N359 0.984 . S
H365 N359 0.985 . S
H366 N363 0.984 . S
H367 N363 0.985 . S
H368 N362 0.984 . S
H369 N362 0.984 . S
H370 N358 0.984 . S
H371 N358 0.985 . S
C372 C373 1.363 . S
C372 C378 1.379 . S
C372 N380 1.356 . S
C373 C372 1.363 . S
C373 C379 1.363 . S
C374 C375 1.363 . S
C374 C379 1.379 . S
C374 N381 1.356 . S
C375 C374 1.363 . S
C375 C378 1.363 . S
N376 C378 1.356 1_554 S
N376 H388 0.984 . S
N376 H389 0.985 . S
N377 C379 1.356 . S
N377 H382 0.984 . S
N377 H383 0.985 . S
C378 C372 1.379 . S
C378 C375 1.363 . S
C378 N376 1.356 1_556 S
C379 C373 1.363 . S
C379 C374 1.379 . S
C379 N377 1.356 . S
N380 C372 1.356 . S
N380 H386 0.984 . S
N380 H387 0.984 . S
N381 C374 1.356 . S
N381 H384 0.984 . S
N381 H385 0.985 . S
H382 N377 0.984 . S
H383 N377 0.985 . S
H384 N381 0.984 . S
H385 N381 0.985 . S
H386 N380 0.984 . S
H387 N380 0.984 . S
H388 N376 0.984 . S
H389 N376 0.985 . S
C390 C391 1.363 . S
C390 C396 1.379 . S
C390 N398 1.356 . S
C391 C390 1.363 . S
C391 C397 1.363 . S
C392 C393 1.363 . S
C392 C397 1.379 . S
C392 N399 1.356 . S
C393 C392 1.363 . S
C393 C396 1.363 . S
N394 C396 1.356 . S
N394 H406 0.984 . S
N394 H407 0.985 . S
N395 C397 1.356 . S
N395 H400 0.984 . S
N395 H401 0.985 . S
C396 C390 1.379 . S
C396 C393 1.363 . S
C396 N394 1.356 . S
C397 C391 1.363 . S
C397 C392 1.379 . S
C397 N395 1.356 . S
N398 C390 1.356 . S
N398 H404 0.984 . S
N398 H405 0.984 . S
N399 C392 1.356 . S
N399 H402 0.984 . S
N399 H403 0.985 . S
H400 N395 0.984 . S
H401 N395 0.985 . S
H402 N399 0.984 . S
H403 N399 0.985 . S
H404 N398 0.984 . S
H405 N398 0.984 . S
H406 N394 0.984 . S
H407 N394 0.985 . S
C408 C409 1.363 . S
C408 C414 1.379 . S
C408 N416 1.356 . S
C409 C408 1.363 . S
C409 C415 1.363 . S
C410 C411 1.363 . S
C410 C415 1.379 . S
C410 N417 1.356 . S
C411 C410 1.363 . S
C411 C414 1.363 . S
N412 C414 1.356 . S
N412 H424 0.984 . S
N412 H425 0.985 . S
N413 C415 1.356 . S
N413 H418 0.984 . S
N413 H419 0.985 . S
C414 C408 1.379 . S
C414 C411 1.363 . S
C414 N412 1.356 . S
C415 C409 1.363 . S
C415 C410 1.379 . S
C415 N413 1.356 . S
N416 C408 1.356 . S
N416 H422 0.984 . S
N416 H423 0.984 . S
N417 C410 1.356 . S
N417 H420 0.984 . S
N417 H421 0.985 . S
H418 N413 0.984 . S
H419 N413 0.985 . S
H420 N417 0.984 . S
H421 N417 0.985 . S
H422 N416 0.984 . S
H423 N416 0.984 . S
H424 N412 0.984 . S
H425 N412 0.985 . S
C426 C427 1.363 . S
C426 C432 1.379 . S
C426 N434 1.356 . S
C427 C426 1.363 . S
C427 C433 1.363 . S
C428 C429 1.363 . S
C428 C433 1.379 . S
C428 N435 1.356 . S
C429 C428 1.363 . S
C429 C432 1.363 . S
N430 C432 1.356 1_455 S
N430 H442 0.984 . S
N430 H443 0.985 . S
N431 C433 1.356 . S
N431 H436 0.984 . S
N431 H437 0.985 . S
C432 C426 1.379 . S
C432 C429 1.363 . S
C432 N430 1.356 1_655 S
C433 C427 1.363 . S
C433 C428 1.379 . S
C433 N431 1.356 . S
N434 C426 1.356 . S
N434 H440 0.984 . S
N434 H441 0.984 . S
N435 C428 1.356 . S
N435 H438 0.984 . S
N435 H439 0.985 . S
H436 N431 0.984 . S
H437 N431 0.985 . S
H438 N435 0.984 . S
H439 N435 0.985 . S
H440 N434 0.984 . S
H441 N434 0.984 . S
H442 N430 0.984 . S
H443 N430 0.985 . S
C444 C445 1.363 . S
C444 C450 1.379 . S
C444 N452 1.356 . S
C445 C444 1.363 . S
C445 C451 1.363 . S
C446 C447 1.363 . S
C446 C451 1.379 . S
C446 N453 1.356 . S
C447 C446 1.363 . S
C447 C450 1.363 . S
N448 C450 1.356 . S
N448 H460 0.984 . S
N448 H461 0.985 . S
N449 C451 1.356 . S
N449 H454 0.984 . S
N449 H455 0.985 . S
C450 C444 1.379 . S
C450 C447 1.363 . S
C450 N448 1.356 . S
C451 C445 1.363 . S
C451 C446 1.379 . S
C451 N449 1.356 . S
N452 C444 1.356 . S
N452 H458 0.984 . S
N452 H459 0.984 . S
N453 C446 1.356 . S
N453 H456 0.984 1_554 S
N453 H457 0.985 . S
H454 N449 0.984 . S
H455 N449 0.985 . S
H456 N453 0.984 1_556 S
H457 N453 0.985 . S
H458 N452 0.984 . S
H459 N452 0.984 . S
H460 N448 0.984 . S
H461 N448 0.985 . S
C462 C463 1.363 . S
C462 C468 1.379 . S
C462 N470 1.356 . S
C463 C462 1.363 . S
C463 C469 1.363 . S
C464 C465 1.363 . S
C464 C469 1.379 . S
C464 N471 1.356 . S
C465 C464 1.363 . S
C465 C468 1.363 . S
N466 C468 1.356 . S
N466 H478 0.984 . S
N466 H479 0.985 . S
N467 C469 1.356 . S
N467 H472 0.984 . S
N467 H473 0.985 . S
C468 C462 1.379 . S
C468 C465 1.363 . S
C468 N466 1.356 . S
C469 C463 1.363 . S
C469 C464 1.379 . S
C469 N467 1.356 . S
N470 C462 1.356 . S
N470 H476 0.984 . S
N470 H477 0.984 . S
N471 C464 1.356 . S
N471 H474 0.984 . S
N471 H475 0.985 . S
H472 N467 0.984 . S
H473 N467 0.985 . S
H474 N471 0.984 . S
H475 N471 0.985 . S
H476 N470 0.984 . S
H477 N470 0.984 . S
H478 N466 0.984 . S
H479 N466 0.985 . S
C480 C481 1.363 . S
C480 C486 1.379 . S
C480 N488 1.356 . S
C481 C480 1.363 . S
C481 C487 1.363 . S
C482 C483 1.363 . S
C482 C487 1.379 . S
C482 N489 1.356 . S
C483 C482 1.363 . S
C483 C486 1.363 . S
N484 C486 1.356 . S
N484 H496 0.984 . S
N484 H497 0.985 . S
N485 C487 1.356 . S
N485 H490 0.984 . S
N485 H491 0.985 . S
C486 C480 1.379 . S
C486 C483 1.363 . S
C486 N484 1.356 . S
C487 C481 1.363 . S
C487 C482 1.379 . S
C487 N485 1.356 . S
N488 C480 1.356 . S
N488 H494 0.984 . S
N488 H495 0.984 . S
N489 C482 1.356 . S
N489 H492 0.984 . S
N489 H493 0.985 . S
H490 N485 0.984 . S
H491 N485 0.985 . S
H492 N489 0.984 . S
H493 N489 0.985 . S
H494 N488 0.984 . S
H495 N488 0.984 . S
H496 N484 0.984 . S
H497 N484 0.985 . S
C498 C499 1.363 . S
C498 C504 1.379 . S
C498 N506 1.356 . S
C499 C498 1.363 . S
C499 C505 1.363 . S
C500 C501 1.363 . S
C500 C505 1.379 . S
C500 N507 1.356 . S
C501 C500 1.363 . S
C501 C504 1.363 . S
N502 C504 1.356 . S
N502 H514 0.984 . S
N502 H515 0.985 . S
N503 C505 1.356 1_565 S
N503 H508 0.984 . S
N503 H509 0.985 . S
C504 C498 1.379 . S
C504 C501 1.363 . S
C504 N502 1.356 . S
C505 C499 1.363 . S
C505 C500 1.379 . S
C505 N503 1.356 1_545 S
N506 C498 1.356 . S
N506 H512 0.984 . S
N506 H513 0.984 . S
N507 C500 1.356 . S
N507 H510 0.984 . S
N507 H511 0.985 . S
H508 N503 0.984 . S
H509 N503 0.985 . S
H510 N507 0.984 . S
H511 N507 0.985 . S
H512 N506 0.984 . S
H513 N506 0.984 . S
H514 N502 0.984 . S
H515 N502 0.985 . S
C516 C517 1.363 . S
C516 C522 1.379 . S
C516 N524 1.356 . S
C517 C516 1.363 . S
C517 C523 1.363 . S
C518 C519 1.363 . S
C518 C523 1.379 . S
C518 N525 1.356 . S
C519 C518 1.363 . S
C519 C522 1.363 . S
N520 C522 1.356 . S
N520 H532 0.984 . S
N520 H533 0.985 . S
N521 C523 1.356 . S
N521 H526 0.984 . S
N521 H527 0.985 . S
C522 C516 1.379 . S
C522 C519 1.363 . S
C522 N520 1.356 . S
C523 C517 1.363 . S
C523 C518 1.379 . S
C523 N521 1.356 . S
N524 C516 1.356 . S
N524 H530 0.984 . S
N524 H531 0.984 . S
N525 C518 1.356 . S
N525 H528 0.984 . S
N525 H529 0.985 . S
H526 N521 0.984 . S
H527 N521 0.985 . S
H528 N525 0.984 . S
H529 N525 0.985 . S
H530 N524 0.984 . S
H531 N524 0.984 . S
H532 N520 0.984 . S
H533 N520 0.985 . S
C534 C535 1.363 . S
C534 C540 1.379 . S
C534 N542 1.356 . S
C535 C534 1.363 . S
C535 C541 1.363 . S
C536 C537 1.363 . S
C536 C541 1.379 . S
C536 N543 1.356 . S
C537 C536 1.363 . S
C537 C540 1.363 . S
N538 C540 1.356 . S
N538 H550 0.984 . S
N538 H551 0.985 . S
N539 C541 1.356 . S
N539 H544 0.984 . S
N539 H545 0.985 . S
C540 C534 1.379 . S
C540 C537 1.363 . S
C540 N538 1.356 . S
C541 C535 1.363 . S
C541 C536 1.379 . S
C541 N539 1.356 . S
N542 C534 1.356 . S
N542 H548 0.984 . S
N542 H549 0.984 . S
N543 C536 1.356 . S
N543 H546 0.984 . S
N543 H547 0.985 . S
H544 N539 0.984 . S
H545 N539 0.985 . S
H546 N543 0.984 . S
H547 N543 0.985 . S
H548 N542 0.984 . S
H549 N542 0.984 . S
H550 N538 0.984 . S
H551 N538 0.985 . S
C552 C553 1.363 . S
C552 C558 1.379 . S
C552 N560 1.356 . S
C553 C552 1.363 . S
C553 C559 1.363 . S
C554 C555 1.363 . S
C554 C559 1.379 . S
C554 N561 1.356 . S
C555 C554 1.363 . S
C555 C558 1.363 . S
N556 C558 1.356 . S
N556 H568 0.984 . S
N556 H569 0.985 . S
N557 C559 1.356 . S
N557 H562 0.984 . S
N557 H563 0.985 . S
C558 C552 1.379 . S
C558 C555 1.363 . S
C558 N556 1.356 . S
C559 C553 1.363 . S
C559 C554 1.379 . S
C559 N557 1.356 . S
N560 C552 1.356 . S
N560 H566 0.984 . S
N560 H567 0.984 . S
N561 C554 1.356 . S
N561 H564 0.984 . S
N561 H565 0.985 . S
H562 N557 0.984 . S
H563 N557 0.985 . S
H564 N561 0.984 . S
H565 N561 0.985 . S
H566 N560 0.984 . S
H567 N560 0.984 . S
H568 N556 0.984 . S
H569 N556 0.985 . S
C570 C571 1.363 1_545 S
C570 C576 1.379 . S
C570 N578 1.356 . S
C571 C570 1.363 1_565 S
C571 C577 1.363 . S
C572 C573 1.363 . S
C572 C577 1.379 1_545 S
C572 N579 1.356 . S
C573 C572 1.363 . S
C573 C576 1.363 . S
N574 C576 1.356 . S
N574 H586 0.984 . S
N574 H587 0.985 . S
N575 C577 1.356 . S
N575 H580 0.984 . S
N575 H581 0.985 . S
C576 C570 1.379 . S
C576 C573 1.363 . S
C576 N574 1.356 . S
C577 C571 1.363 . S
C577 C572 1.379 1_565 S
C577 N575 1.356 . S
N578 C570 1.356 . S
N578 H584 0.984 . S
N578 H585 0.984 . S
N579 C572 1.356 . S
N579 H582 0.984 . S
N579 H583 0.985 1_545 S
H580 N575 0.984 . S
H581 N575 0.985 . S
H582 N579 0.984 . S
H583 N579 0.985 1_565 S
H584 N578 0.984 . S
H585 N578 0.984 . S
H586 N574 0.984 . S
H587 N574 0.985 . S
C588 C589 1.363 . S
C588 C594 1.379 1_556 S
C588 N596 1.356 . S
C589 C588 1.363 . S
C589 C595 1.363 . S
C590 C591 1.363 1_556 S
C590 C595 1.379 . S
C590 N597 1.356 . S
C591 C590 1.363 1_554 S
C591 C594 1.363 . S
N592 C594 1.356 . S
N592 H604 0.984 . S
N592 H605 0.985 . S
N593 C595 1.356 . S
N593 H598 0.984 . S
N593 H599 0.985 . S
C594 C588 1.379 1_554 S
C594 C591 1.363 . S
C594 N592 1.356 . S
C595 C589 1.363 . S
C595 C590 1.379 . S
C595 N593 1.356 . S
N596 C588 1.356 . S
N596 H602 0.984 1_556 S
N596 H603 0.984 . S
N597 C590 1.356 . S
N597 H600 0.984 . S
N597 H601 0.985 . S
H598 N593 0.984 . S
H599 N593 0.985 . S
H600 N597 0.984 . S
H601 N597 0.985 . S
H602 N596 0.984 1_554 S
H603 N596 0.984 . S
H604 N592 0.984 . S
H605 N592 0.985 . S
C606 C607 1.363 1_565 S
C606 C612 1.379 . S
C606 N614 1.356 . S
C607 C606 1.363 1_545 S
C607 C613 1.363 . S
C608 C609 1.363 . S
C608 C613 1.379 1_565 S
C608 N615 1.356 . S
C609 C608 1.363 . S
C609 C612 1.363 . S
N610 C612 1.356 . S
N610 H622 0.984 . S
N610 H623 0.985 . S
N611 C613 1.356 . S
N611 H616 0.984 . S
N611 H617 0.985 . S
C612 C606 1.379 . S
C612 C609 1.363 . S
C612 N610 1.356 . S
C613 C607 1.363 . S
C613 C608 1.379 1_545 S
C613 N611 1.356 . S
N614 C606 1.356 . S
N614 H620 0.984 . S
N614 H621 0.984 1_565 S
N615 C608 1.356 . S
N615 H618 0.984 . S
N615 H619 0.985 . S
H616 N611 0.984 . S
H617 N611 0.985 . S
H618 N615 0.984 . S
H619 N615 0.985 . S
H620 N614 0.984 . S
H621 N614 0.984 1_545 S
H622 N610 0.984 . S
H623 N610 0.985 . S
C624 C625 1.363 . S
C624 C630 1.379 . S
C624 N632 1.356 . S
C625 C624 1.363 . S
C625 C631 1.363 . S
C626 C627 1.363 . S
C626 C631 1.379 . S
C626 N633 1.356 . S
C627 C626 1.363 . S
C627 C630 1.363 . S
N628 C630 1.356 . S
N628 H640 0.984 . S
N628 H641 0.985 . S
N629 C631 1.356 . S
N629 H634 0.984 . S
N629 H635 0.985 . S
C630 C624 1.379 . S
C630 C627 1.363 . S
C630 N628 1.356 . S
C631 C625 1.363 . S
C631 C626 1.379 . S
C631 N629 1.356 . S
N632 C624 1.356 . S
N632 H638 0.984 . S
N632 H639 0.984 . S
N633 C626 1.356 . S
N633 H636 0.984 . S
N633 H637 0.985 . S
H634 N629 0.984 . S
H635 N629 0.985 . S
H636 N633 0.984 . S
H637 N633 0.985 . S
H638 N632 0.984 . S
H639 N632 0.984 . S
H640 N628 0.984 . S
H641 N628 0.985 . S
C642 C643 1.363 . S
C642 C648 1.379 . S
C642 N650 1.356 . S
C643 C642 1.363 . S
C643 C649 1.363 . S
C644 C645 1.363 . S
C644 C649 1.379 . S
C644 N651 1.356 . S
C645 C644 1.363 . S
C645 C648 1.363 . S
N646 C648 1.356 . S
N646 H658 0.984 . S
N646 H659 0.985 . S
N647 C649 1.356 . S
N647 H652 0.984 . S
N647 H653 0.985 . S
C648 C642 1.379 . S
C648 C645 1.363 . S
C648 N646 1.356 . S
C649 C643 1.363 . S
C649 C644 1.379 . S
C649 N647 1.356 . S
N650 C642 1.356 . S
N650 H656 0.984 . S
N650 H657 0.984 . S
N651 C644 1.356 . S
N651 H654 0.984 . S
N651 H655 0.985 . S
H652 N647 0.984 . S
H653 N647 0.985 . S
H654 N651 0.984 . S
H655 N651 0.985 . S
H656 N650 0.984 . S
H657 N650 0.984 . S
H658 N646 0.984 . S
H659 N646 0.985 . S
C660 C661 1.363 1_554 S
C660 C666 1.379 . S
C660 N668 1.356 . S
C661 C660 1.363 1_556 S
C661 C667 1.363 1_556 S
C662 C663 1.363 . S
C662 C667 1.379 . S
C662 N669 1.356 . S
C663 C662 1.363 . S
C663 C666 1.363 . S
N664 C666 1.356 . S
N664 H676 0.984 . S
N664 H677 0.985 . S
N665 C667 1.356 1_556 S
N665 H670 0.984 . S
N665 H671 0.985 . S
C666 C660 1.379 . S
C666 C663 1.363 . S
C666 N664 1.356 . S
C667 C661 1.363 1_554 S
C667 C662 1.379 . S
C667 N665 1.356 1_554 S
N668 C660 1.356 . S
N668 H674 0.984 . S
N668 H675 0.984 1_554 S
N669 C662 1.356 . S
N669 H672 0.984 . S
N669 H673 0.985 . S
H670 N665 0.984 . S
H671 N665 0.985 . S
H672 N669 0.984 . S
H673 N669 0.985 . S
H674 N668 0.984 . S
H675 N668 0.984 1_556 S
H676 N664 0.984 . S
H677 N664 0.985 . S
C678 C679 1.363 . S
C678 C684 1.379 . S
C678 N686 1.356 . S
C679 C678 1.363 . S
C679 C685 1.363 . S
C680 C681 1.363 . S
C680 C685 1.379 . S
C680 N687 1.356 . S
C681 C680 1.363 . S
C681 C684 1.363 . S
N682 C684 1.356 . S
N682 H694 0.984 . S
N682 H695 0.985 . S
N683 C685 1.356 . S
N683 H688 0.984 . S
N683 H689 0.985 . S
C684 C678 1.379 . S
C684 C681 1.363 . S
C684 N682 1.356 . S
C685 C679 1.363 . S
C685 C680 1.379 . S
C685 N683 1.356 . S
N686 C678 1.356 . S
N686 H692 0.984 . S
N686 H693 0.984 . S
N687 C680 1.356 . S
N687 H690 0.984 . S
N687 H691 0.985 . S
H688 N683 0.984 . S
H689 N683 0.985 . S
H690 N687 0.984 . S
H691 N687 0.985 . S
H692 N686 0.984 . S
H693 N686 0.984 . S
H694 N682 0.984 . S
H695 N682 0.985 . S
C696 C697 1.363 . S
C696 C702 1.379 . S
C696 N704 1.356 . S
C697 C696 1.363 . S
C697 C703 1.363 . S
C698 C699 1.363 . S
C698 C703 1.379 . S
C698 N705 1.356 . S
C699 C698 1.363 . S
C699 C702 1.363 . S
N700 C702 1.356 . S
N700 H712 0.984 . S
N700 H713 0.985 . S
N701 C703 1.356 . S
N701 H706 0.984 . S
N701 H707 0.985 . S
C702 C696 1.379 . S
C702 C699 1.363 . S
C702 N700 1.356 . S
C703 C697 1.363 . S
C703 C698 1.379 . S
C703 N701 1.356 . S
N704 C696 1.356 . S
N704 H710 0.984 . S
N704 H711 0.984 . S
N705 C698 1.356 . S
N705 H708 0.984 . S
N705 H709 0.985 . S
H706 N701 0.984 . S
H707 N701 0.985 . S
H708 N705 0.984 . S
H709 N705 0.985 . S
H710 N704 0.984 . S
H711 N704 0.984 . S
H712 N700 0.984 . S
H713 N700 0.985 . S
C714 C715 1.363 . S
C714 C720 1.379 1_455 S
C714 N722 1.356 . S
C715 C714 1.363 . S
C715 C721 1.363 1_455 S
C716 C717 1.363 . S
C716 C721 1.379 . S
C716 N723 1.356 . S
C717 C716 1.363 . S
C717 C720 1.363 . S
N718 C720 1.356 . S
N718 H730 0.968 1_655 S
N718 H731 0.985 . S
N719 C721 1.356 . S
N719 H724 0.984 . S
N719 H725 0.985 . S
C720 C714 1.379 1_655 S
C720 C717 1.363 . S
C720 N718 1.356 . S
C721 C715 1.363 1_655 S
C721 C716 1.379 . S
C721 N719 1.356 . S
N722 C714 1.356 . S
N722 H728 0.984 . S
N722 H729 0.984 . S
N723 C716 1.356 . S
N723 H726 0.984 . S
N723 H727 0.985 . S
H724 N719 0.984 . S
H725 N719 0.985 . S
H726 N723 0.984 . S
H727 N723 0.985 . S
H728 N722 0.984 . S
H729 N722 0.984 . S
H730 N718 0.968 1_455 S
H731 N718 0.985 . S
C732 C733 1.363 . S
C732 C738 1.379 1_655 S
C732 N740 1.356 . S
C733 C732 1.363 . S
C733 C739 1.363 1_655 S
C734 C735 1.363 . S
C734 C739 1.379 . S
C734 N741 1.356 . S
C735 C734 1.363 . S
C735 C738 1.363 . S
N736 C738 1.356 . S
N736 H748 0.984 . S
N736 H749 0.985 . S
N737 C739 1.356 . S
N737 H742 0.965 1_455 S
N737 H743 0.985 . S
C738 C732 1.379 1_455 S
C738 C735 1.363 . S
C738 N736 1.356 . S
C739 C733 1.363 1_455 S
C739 C734 1.379 . S
C739 N737 1.356 . S
N740 C732 1.356 . S
N740 H746 0.984 . S
N740 H747 0.984 . S
N741 C734 1.356 . S
N741 H744 0.984 . S
N741 H745 0.985 . S
H742 N737 0.965 1_655 S
H743 N737 0.985 . S
H744 N741 0.984 . S
H745 N741 0.985 . S
H746 N740 0.984 . S
H747 N740 0.984 . S
H748 N736 0.984 . S
H749 N736 0.985 . S
C750 C751 1.363 . S
C750 C756 1.379 . S
C750 N758 1.356 . S
C751 C750 1.363 . S
C751 C757 1.363 . S
C752 C753 1.363 . S
C752 C757 1.379 . S
C752 N759 1.356 . S
C753 C752 1.363 . S
C753 C756 1.363 . S
N754 C756 1.356 . S
N754 H766 0.984 . S
N754 H767 0.985 . S
N755 C757 1.356 . S
N755 H760 0.984 . S
N755 H761 0.985 . S
C756 C750 1.379 . S
C756 C753 1.363 . S
C756 N754 1.356 . S
C757 C751 1.363 . S
C757 C752 1.379 . S
C757 N755 1.356 . S
N758 C750 1.356 . S
N758 H764 0.984 . S
N758 H765 0.984 . S
N759 C752 1.356 . S
N759 H762 0.984 . S
N759 H763 0.985 . S
H760 N755 0.984 . S
H761 N755 0.985 . S
H762 N759 0.984 . S
H763 N759 0.985 . S
H764 N758 0.984 . S
H765 N758 0.984 . S
H766 N754 0.984 . S
H767 N754 0.985 . S
C768 C769 1.363 . S
C768 C774 1.379 . S
C768 N776 1.356 . S
C769 C768 1.363 . S
C769 C775 1.363 . S
C770 C771 1.363 . S
C770 C775 1.379 . S
C770 N777 1.356 . S
C771 C770 1.363 . S
C771 C774 1.363 . S
N772 C774 1.356 . S
N772 H784 0.984 . S
N772 H785 0.985 . S
N773 C775 1.356 . S
N773 H778 0.984 . S
N773 H779 0.985 . S
C774 C768 1.379 . S
C774 C771 1.363 . S
C774 N772 1.356 . S
C775 C769 1.363 . S
C775 C770 1.379 . S
C775 N773 1.356 . S
N776 C768 1.356 . S
N776 H782 0.984 . S
N776 H783 0.984 . S
N777 C770 1.356 . S
N777 H780 0.984 . S
N777 H781 0.985 . S
H778 N773 0.984 . S
H779 N773 0.985 . S
H780 N777 0.984 . S
H781 N777 0.985 . S
H782 N776 0.984 . S
H783 N776 0.984 . S
H784 N772 0.984 . S
H785 N772 0.985 . S
C786 C787 1.363 . S
C786 C792 1.379 . S
C786 N794 1.356 1_565 S
C787 C786 1.363 . S
C787 C793 1.363 . S
C788 C789 1.363 . S
C788 C793 1.379 . S
C788 N795 1.356 . S
C789 C788 1.363 . S
C789 C792 1.363 . S
N790 C792 1.356 . S
N790 H802 0.984 1_565 S
N790 H803 0.985 . S
N791 C793 1.356 . S
N791 H796 0.984 . S
N791 H797 0.985 . S
C792 C786 1.379 . S
C792 C789 1.363 . S
C792 N790 1.356 . S
C793 C787 1.363 . S
C793 C788 1.379 . S
C793 N791 1.356 . S
N794 C786 1.356 1_545 S
N794 H800 0.984 . S
N794 H801 0.984 . S
N795 C788 1.356 . S
N795 H798 0.984 . S
N795 H799 0.985 . S
H796 N791 0.984 . S
H797 N791 0.985 . S
H798 N795 0.984 . S
H799 N795 0.985 . S
H800 N794 0.984 . S
H801 N794 0.984 . S
H802 N790 0.984 1_545 S
H803 N790 0.985 . S
C804 C805 1.363 . S
C804 C810 1.379 . S
C804 N812 1.356 . S
C805 C804 1.363 . S
C805 C811 1.363 . S
C806 C807 1.363 . S
C806 C811 1.379 . S
C806 N813 1.356 . S
C807 C806 1.363 . S
C807 C810 1.363 . S
N808 C810 1.356 . S
N808 H820 0.984 . S
N808 H821 0.985 . S
N809 C811 1.356 . S
N809 H814 0.984 . S
N809 H815 0.985 . S
C810 C804 1.379 . S
C810 C807 1.363 . S
C810 N808 1.356 . S
C811 C805 1.363 . S
C811 C806 1.379 . S
C811 N809 1.356 . S
N812 C804 1.356 . S
N812 H818 0.984 . S
N812 H819 0.984 . S
N813 C806 1.356 . S
N813 H816 0.984 . S
N813 H817 0.985 . S
H814 N809 0.984 . S
H815 N809 0.985 . S
H816 N813 0.984 . S
H817 N813 0.985 . S
H818 N812 0.984 . S
H819 N812 0.984 . S
H820 N808 0.984 . S
H821 N808 0.985 . S
C822 C823 1.363 . S
C822 C828 1.379 . S
C822 N830 1.356 . S
C823 C822 1.363 . S
C823 C829 1.363 . S
C824 C825 1.363 1_554 S
C824 C829 1.379 . S
C824 N831 1.356 1_554 S
C825 C824 1.363 1_556 S
C825 C828 1.363 1_556 S
N826 C828 1.356 1_565 S
N826 H838 0.984 . S
N826 H839 0.985 1_554 S
N827 C829 1.356 . S
N827 H832 0.984 . S
N827 H833 0.985 . S
C828 C822 1.379 . S
C828 C825 1.363 1_554 S
C828 N826 1.356 1_545 S
C829 C823 1.363 . S
C829 C824 1.379 . S
C829 N827 1.356 . S
N830 C822 1.356 . S
N830 H836 0.984 1_545 S
N830 H837 0.984 . S
N831 C824 1.356 1_556 S
N831 H834 0.984 . S
N831 H835 0.985 . S
H832 N827 0.984 . S
H833 N827 0.985 . S
H834 N831 0.984 . S
H835 N831 0.985 . S
H836 N830 0.984 1_565 S
H837 N830 0.984 . S
H838 N826 0.984 . S
H839 N826 0.985 1_556 S
C840 C841 1.363 . S
C840 C846 1.379 . S
C840 N848 1.356 . S
C841 C840 1.363 . S
C841 C847 1.363 . S
C842 C843 1.363 . S
C842 C847 1.379 . S
C842 N849 1.356 . S
C843 C842 1.363 . S
C843 C846 1.363 . S
N844 C846 1.356 . S
N844 H856 0.984 . S
N844 H857 0.985 . S
N845 C847 1.356 . S
N845 H850 0.984 . S
N845 H851 0.985 . S
C846 C840 1.379 . S
C846 C843 1.363 . S
C846 N844 1.356 . S
C847 C841 1.363 . S
C847 C842 1.379 . S
C847 N845 1.356 . S
N848 C840 1.356 . S
N848 H854 0.984 . S
N848 H855 0.984 . S
N849 C842 1.356 . S
N849 H852 0.984 . S
N849 H853 0.985 . S
H850 N845 0.984 . S
H851 N845 0.985 . S
H852 N849 0.984 . S
H853 N849 0.985 . S
H854 N848 0.984 . S
H855 N848 0.984 . S
H856 N844 0.984 . S
H857 N844 0.985 . S
C858 C859 1.363 1_556 S
C858 C864 1.379 . S
C858 N866 1.356 . S
C859 C858 1.363 1_554 S
C859 C865 1.363 1_554 S
C860 C861 1.363 . S
C860 C865 1.379 . S
C860 N867 1.356 . S
C861 C860 1.363 . S
C861 C864 1.363 . S
N862 C864 1.356 . S
N862 H874 0.984 . S
N862 H875 0.985 . S
N863 C865 1.356 1_554 S
N863 H868 0.984 . S
N863 H869 0.985 . S
C864 C858 1.379 . S
C864 C861 1.363 . S
C864 N862 1.356 . S
C865 C859 1.363 1_556 S
C865 C860 1.379 . S
C865 N863 1.356 1_556 S
N866 C858 1.356 . S
N866 H872 0.984 . S
N866 H873 0.984 1_556 S
N867 C860 1.356 . S
N867 H870 0.984 . S
N867 H871 0.985 . S
H868 N863 0.984 . S
H869 N863 0.985 . S
H870 N867 0.984 . S
H871 N867 0.985 . S
H872 N866 0.984 . S
H873 N866 0.984 1_554 S
H874 N862 0.984 . S
H875 N862 0.985 . S
C876 C877 1.363 . S
C876 C882 1.379 . S
C876 N884 1.356 . S
C877 C876 1.363 . S
C877 C883 1.363 . S
C878 C879 1.363 . S
C878 C883 1.379 . S
C878 N885 1.356 . S
C879 C878 1.363 . S
C879 C882 1.363 . S
N880 C882 1.356 . S
N880 H892 0.984 . S
N880 H893 0.985 . S
N881 C883 1.356 . S
N881 H886 0.984 . S
N881 H887 0.985 . S
C882 C876 1.379 . S
C882 C879 1.363 . S
C882 N880 1.356 . S
C883 C877 1.363 . S
C883 C878 1.379 . S
C883 N881 1.356 . S
N884 C876 1.356 . S
N884 H890 0.984 . S
N884 H891 0.984 . S
N885 C878 1.356 . S
N885 H888 0.984 . S
N885 H889 0.985 . S
H886 N881 0.984 . S
H887 N881 0.985 . S
H888 N885 0.984 . S
H889 N885 0.985 . S
H890 N884 0.984 . S
H891 N884 0.984 . S
H892 N880 0.984 . S
H893 N880 0.985 . S
C894 C895 1.363 . S
C894 C900 1.379 . S
C894 N902 1.356 . S
C895 C894 1.363 . S
C895 C901 1.363 . S
C896 C897 1.363 . S
C896 C901 1.379 . S
C896 N903 1.356 . S
C897 C896 1.363 . S
C897 C900 1.363 . S
N898 C900 1.356 . S
N898 H910 0.984 . S
N898 H911 0.985 . S
N899 C901 1.356 . S
N899 H904 0.984 . S
N899 H905 0.985 . S
C900 C894 1.379 . S
C900 C897 1.363 . S
C900 N898 1.356 . S
C901 C895 1.363 . S
C901 C896 1.379 . S
C901 N899 1.356 . S
N902 C894 1.356 . S
N902 H908 0.984 . S
N902 H909 0.984 . S
N903 C896 1.356 . S
N903 H906 0.984 . S
N903 H907 0.985 . S
H904 N899 0.984 . S
H905 N899 0.985 . S
H906 N903 0.984 . S
H907 N903 0.985 . S
H908 N902 0.984 . S
H909 N902 0.984 . S
H910 N898 0.984 . S
H911 N898 0.985 . S
C912 C913 1.363 . S
C912 C918 1.379 . S
C912 N920 1.356 . S
C913 C912 1.363 . S
C913 C919 1.363 . S
C914 C915 1.363 . S
C914 C919 1.379 . S
C914 N921 1.356 . S
C915 C914 1.363 . S
C915 C918 1.363 . S
N916 C918 1.356 . S
N916 H928 0.984 . S
N916 H929 0.985 . S
N917 C919 1.356 . S
N917 H922 0.984 . S
N917 H923 0.985 . S
C918 C912 1.379 . S
C918 C915 1.363 . S
C918 N916 1.356 . S
C919 C913 1.363 . S
C919 C914 1.379 . S
C919 N917 1.356 . S
N920 C912 1.356 . S
N920 H926 0.984 . S
N920 H927 0.984 . S
N921 C914 1.356 . S
N921 H924 0.984 . S
N921 H925 0.985 . S
H922 N917 0.984 . S
H923 N917 0.985 . S
H924 N921 0.984 . S
H925 N921 0.985 . S
H926 N920 0.984 . S
H927 N920 0.984 . S
H928 N916 0.984 . S
H929 N916 0.985 . S
C930 C931 1.363 1_545 S
C930 C936 1.379 . S
C930 N938 1.356 1_455 S
C931 C930 1.363 1_565 S
C931 C937 1.363 1_565 S
C932 C933 1.363 . S
C932 C937 1.379 . S
C932 N939 1.356 . S
C933 C932 1.363 . S
C933 C936 1.363 . S
N934 C936 1.356 . S
N934 H946 0.984 . S
N934 H947 0.985 . S
N935 C937 1.356 1_565 S
N935 H940 0.984 . S
N935 H941 0.985 . S
C936 C930 1.379 . S
C936 C933 1.363 . S
C936 N934 1.356 . S
C937 C931 1.363 1_545 S
C937 C932 1.379 . S
C937 N935 1.356 1_545 S
N938 C930 1.356 1_655 S
N938 H944 0.984 . S
N938 H945 0.984 1_545 S
N939 C932 1.356 . S
N939 H942 0.984 . S
N939 H943 0.985 . S
H940 N935 0.984 . S
H941 N935 0.985 . S
H942 N939 0.984 . S
H943 N939 0.985 . S
H944 N938 0.984 . S
H945 N938 0.984 1_565 S
H946 N934 0.984 . S
H947 N934 0.985 . S
C948 C949 1.363 . S
C948 C954 1.379 . S
C948 N956 1.356 . S
C949 C948 1.363 . S
C949 C955 1.363 . S
C950 C951 1.363 . S
C950 C955 1.379 . S
C950 N957 1.356 . S
C951 C950 1.363 . S
C951 C954 1.363 . S
N952 C954 1.356 . S
N952 H964 0.984 . S
N952 H965 0.985 . S
N953 C955 1.356 . S
N953 H958 0.984 . S
N953 H959 0.985 . S
C954 C948 1.379 . S
C954 C951 1.363 . S
C954 N952 1.356 . S
C955 C949 1.363 . S
C955 C950 1.379 . S
C955 N953 1.356 . S
N956 C948 1.356 . S
N956 H962 0.984 . S
N956 H963 0.984 . S
N957 C950 1.356 . S
N957 H960 0.984 . S
N957 H961 0.985 . S
H958 N953 0.984 . S
H959 N953 0.985 . S
H960 N957 0.984 . S
H961 N957 0.985 . S
H962 N956 0.984 . S
H963 N956 0.984 . S
H964 N952 0.984 . S
H965 N952 0.985 . S
C966 C967 1.363 1_565 S
C966 C972 1.379 . S
C966 N974 1.356 . S
C967 C966 1.363 1_545 S
C967 C973 1.363 1_545 S
C968 C969 1.363 . S
C968 C973 1.379 . S
C968 N975 1.356 . S
C969 C968 1.363 . S
C969 C972 1.363 . S
N970 C972 1.356 . S
N970 H982 0.984 . S
N970 H983 0.985 . S
N971 C973 1.356 1_545 S
N971 H976 0.984 . S
N971 H977 0.985 . S
C972 C966 1.379 . S
C972 C969 1.363 . S
C972 N970 1.356 . S
C973 C967 1.363 1_565 S
C973 C968 1.379 . S
C973 N971 1.356 1_565 S
N974 C966 1.356 . S
N974 H980 0.984 . S
N974 H981 0.984 1_565 S
N975 C968 1.356 . S
N975 H978 0.984 . S
N975 H979 0.985 . S
H976 N971 0.984 . S
H977 N971 0.985 . S
H978 N975 0.984 . S
H979 N975 0.985 . S
H980 N974 0.984 . S
H981 N974 0.984 1_545 S
H982 N970 0.984 . S
H983 N970 0.985 . S
C984 C985 1.363 . S
C984 C990 1.379 . S
C984 N992 1.356 . S
C985 C984 1.363 . S
C985 C991 1.363 . S
C986 C987 1.363 . S
C986 C991 1.379 . S
C986 N993 1.356 . S
C987 C986 1.363 . S
C987 C990 1.363 . S
N988 C990 1.356 . S
N988 H1000 0.984 . S
N988 H1001 0.985 . S
N989 C991 1.356 . S
N989 H994 0.984 . S
N989 H995 0.985 . S
C990 C984 1.379 . S
C990 C987 1.363 . S
C990 N988 1.356 . S
C991 C985 1.363 . S
C991 C986 1.379 . S
C991 N989 1.356 . S
N992 C984 1.356 . S
N992 H998 0.984 . S
N992 H999 0.984 . S
N993 C986 1.356 . S
N993 H996 0.984 . S
N993 H997 0.985 . S
H994 N989 0.984 . S
H995 N989 0.985 . S
H996 N993 0.984 . S
H997 N993 0.985 . S
H998 N992 0.984 . S
H999 N992 0.984 . S
H1000 N988 0.984 . S
H1001 N988 0.985 . S
C1002 C1003 1.363 . S
C1002 C1008 1.379 . S
C1002 N1010 1.356 1_655 S
C1003 C1002 1.363 . S
C1003 C1009 1.363 . S
C1004 C1005 1.363 . S
C1004 C1009 1.379 . S
C1004 N1011 1.356 . S
C1005 C1004 1.363 . S
C1005 C1008 1.363 . S
N1006 C1008 1.356 . S
N1006 H1018 0.984 . S
N1006 H1019 0.985 . S
N1007 C1009 1.356 . S
N1007 H1012 0.984 . S
N1007 H1013 0.985 . S
C1008 C1002 1.379 . S
C1008 C1005 1.363 . S
C1008 N1006 1.356 . S
C1009 C1003 1.363 . S
C1009 C1004 1.379 . S
C1009 N1007 1.356 . S
N1010 C1002 1.356 1_455 S
N1010 H1016 0.984 . S
N1010 H1017 0.984 . S
N1011 C1004 1.356 . S
N1011 H1014 0.984 . S
N1011 H1015 0.985 . S
H1012 N1007 0.984 . S
H1013 N1007 0.985 . S
H1014 N1011 0.984 . S
H1015 N1011 0.985 . S
H1016 N1010 0.984 . S
H1017 N1010 0.984 . S
H1018 N1006 0.984 . S
H1019 N1006 0.985 . S
C1020 C1021 1.363 . S
C1020 C1026 1.379 . S
C1020 N1028 1.356 . S
C1021 C1020 1.363 . S
C1021 C1027 1.363 . S
C1022 C1023 1.363 . S
C1022 C1027 1.379 . S
C1022 N1029 1.356 . S
C1023 C1022 1.363 . S
C1023 C1026 1.363 . S
N1024 C1026 1.356 . S
N1024 H1036 0.984 . S
N1024 H1037 0.985 . S
N1025 C1027 1.356 . S
N1025 H1030 0.984 . S
N1025 H1031 0.985 . S
C1026 C1020 1.379 . S
C1026 C1023 1.363 . S
C1026 N1024 1.356 . S
C1027 C1021 1.363 . S
C1027 C1022 1.379 . S
C1027 N1025 1.356 . S
N1028 C1020 1.356 . S
N1028 H1034 0.984 . S
N1028 H1035 0.984 . S
N1029 C1022 1.356 . S
N1029 H1032 0.984 . S
N1029 H1033 0.985 . S
H1030 N1025 0.984 . S
H1031 N1025 0.985 . S
H1032 N1029 0.984 . S
H1033 N1029 0.985 . S
H1034 N1028 0.984 . S
H1035 N1028 0.984 . S
H1036 N1024 0.984 . S
H1037 N1024 0.985 . S
C1038 C1039 1.363 . S
C1038 C1044 1.379 . S
C1038 N1046 1.356 . S
C1039 C1038 1.363 . S
C1039 C1045 1.363 . S
C1040 C1041 1.363 . S
C1040 C1045 1.379 . S
C1040 N1047 1.356 . S
C1041 C1040 1.363 . S
C1041 C1044 1.363 . S
N1042 C1044 1.356 . S
N1042 H1054 0.984 . S
N1042 H1055 0.985 . S
N1043 C1045 1.356 . S
N1043 H1048 0.984 . S
N1043 H1049 0.985 . S
C1044 C1038 1.379 . S
C1044 C1041 1.363 . S
C1044 N1042 1.356 . S
C1045 C1039 1.363 . S
C1045 C1040 1.379 . S
C1045 N1043 1.356 . S
N1046 C1038 1.356 . S
N1046 H1052 0.984 . S
N1046 H1053 0.984 . S
N1047 C1040 1.356 . S
N1047 H1050 0.984 . S
N1047 H1051 0.985 . S
H1048 N1043 0.984 . S
H1049 N1043 0.985 . S
H1050 N1047 0.984 . S
H1051 N1047 0.985 . S
H1052 N1046 0.984 . S
H1053 N1046 0.984 . S
H1054 N1042 0.984 . S
H1055 N1042 0.985 . S
C1056 C1057 1.363 . S
C1056 C1062 1.379 . S
C1056 N1064 1.356 . S
C1057 C1056 1.363 . S
C1057 C1063 1.363 . S
C1058 C1059 1.363 . S
C1058 C1063 1.379 . S
C1058 N1065 1.356 . S
C1059 C1058 1.363 . S
C1059 C1062 1.363 . S
N1060 C1062 1.356 . S
N1060 H1072 0.984 . S
N1060 H1073 0.985 . S
N1061 C1063 1.356 . S
N1061 H1066 0.984 . S
N1061 H1067 0.985 . S
C1062 C1056 1.379 . S
C1062 C1059 1.363 . S
C1062 N1060 1.356 . S
C1063 C1057 1.363 . S
C1063 C1058 1.379 . S
C1063 N1061 1.356 . S
N1064 C1056 1.356 . S
N1064 H1070 0.984 . S
N1064 H1071 0.984 . S
N1065 C1058 1.356 . S
N1065 H1068 0.984 . S
N1065 H1069 0.985 . S
H1066 N1061 0.984 . S
H1067 N1061 0.985 . S
H1068 N1065 0.984 . S
H1069 N1065 0.985 . S
H1070 N1064 0.984 . S
H1071 N1064 0.984 . S
H1072 N1060 0.984 . S
H1073 N1060 0.985 . S
C1074 C1075 1.363 . S
C1074 C1080 1.379 . S
C1074 N1082 1.356 . S
C1075 C1074 1.363 . S
C1075 C1081 1.363 . S
C1076 C1077 1.363 . S
C1076 C1081 1.379 . S
C1076 N1083 1.356 . S
C1077 C1076 1.363 . S
C1077 C1080 1.363 . S
N1078 C1080 1.356 . S
N1078 H1090 0.984 . S
N1078 H1091 0.985 . S
N1079 C1081 1.356 . S
N1079 H1084 0.984 . S
N1079 H1085 0.985 . S
C1080 C1074 1.379 . S
C1080 C1077 1.363 . S
C1080 N1078 1.356 . S
C1081 C1075 1.363 . S
C1081 C1076 1.379 . S
C1081 N1079 1.356 . S
N1082 C1074 1.356 . S
N1082 H1088 0.984 . S
N1082 H1089 0.984 . S
N1083 C1076 1.356 . S
N1083 H1086 0.984 . S
N1083 H1087 0.985 . S
H1084 N1079 0.984 . S
H1085 N1079 0.985 . S
H1086 N1083 0.984 . S
H1087 N1083 0.985 . S
H1088 N1082 0.984 . S
H1089 N1082 0.984 . S
H1090 N1078 0.984 . S
H1091 N1078 0.985 . S
C1092 C1093 1.363 1_455 S
C1092 C1098 1.379 . S
C1092 N1100 1.356 1_455 S
C1093 C1092 1.363 1_655 S
C1093 C1099 1.363 1_655 S
C1094 C1095 1.363 . S
C1094 C1099 1.379 . S
C1094 N1101 1.356 . S
C1095 C1094 1.363 . S
C1095 C1098 1.363 . S
N1096 C1098 1.356 . S
N1096 H1108 0.984 . S
N1096 H1109 0.985 . S
N1097 C1099 1.356 1_556 S
N1097 H1102 0.984 1_455 S
N1097 H1103 0.985 . S
C1098 C1092 1.379 . S
C1098 C1095 1.363 . S
C1098 N1096 1.356 . S
C1099 C1093 1.363 1_455 S
C1099 C1094 1.379 . S
C1099 N1097 1.356 1_554 S
N1100 C1092 1.356 1_655 S
N1100 H1106 0.984 . S
N1100 H1107 0.984 . S
N1101 C1094 1.356 . S
N1101 H1104 0.984 . S
N1101 H1105 0.985 . S
H1102 N1097 0.984 1_655 S
H1103 N1097 0.985 . S
H1104 N1101 0.984 . S
H1105 N1101 0.985 . S
H1106 N1100 0.984 . S
H1107 N1100 0.984 . S
H1108 N1096 0.984 . S
H1109 N1096 0.985 . S
C1110 C1111 1.363 . S
C1110 C1116 1.379 . S
C1110 N1118 1.356 . S
C1111 C1110 1.363 . S
C1111 C1117 1.363 . S
C1112 C1113 1.363 . S
C1112 C1117 1.379 . S
C1112 N1119 1.356 . S
C1113 C1112 1.363 . S
C1113 C1116 1.363 . S
N1114 C1116 1.356 . S
N1114 H1126 0.984 . S
N1114 H1127 0.985 . S
N1115 C1117 1.356 . S
N1115 H1120 0.984 . S
N1115 H1121 0.985 . S
C1116 C1110 1.379 . S
C1116 C1113 1.363 . S
C1116 N1114 1.356 . S
C1117 C1111 1.363 . S
C1117 C1112 1.379 . S
C1117 N1115 1.356 . S
N1118 C1110 1.356 . S
N1118 H1124 0.984 . S
N1118 H1125 0.984 . S
N1119 C1112 1.356 . S
N1119 H1122 0.984 . S
N1119 H1123 0.985 . S
H1120 N1115 0.984 . S
H1121 N1115 0.985 . S
H1122 N1119 0.984 . S
H1123 N1119 0.985 . S
H1124 N1118 0.984 . S
H1125 N1118 0.984 . S
H1126 N1114 0.984 . S
H1127 N1114 0.985 . S
C1128 C1129 1.363 . S
C1128 C1134 1.379 . S
C1128 N1136 1.356 . S
C1129 C1128 1.363 . S
C1129 C1135 1.363 . S
C1130 C1131 1.363 . S
C1130 C1135 1.379 . S
C1130 N1137 1.356 . S
C1131 C1130 1.363 . S
C1131 C1134 1.363 . S
N1132 C1134 1.356 . S
N1132 H1144 0.984 . S
N1132 H1145 0.985 . S
N1133 C1135 1.356 . S
N1133 H1138 0.984 . S
N1133 H1139 0.985 . S
C1134 C1128 1.379 . S
C1134 C1131 1.363 . S
C1134 N1132 1.356 . S
C1135 C1129 1.363 . S
C1135 C1130 1.379 . S
C1135 N1133 1.356 . S
N1136 C1128 1.356 . S
N1136 H1142 0.984 . S
N1136 H1143 0.984 . S
N1137 C1130 1.356 . S
N1137 H1140 0.984 . S
N1137 H1141 0.985 . S
H1138 N1133 0.984 . S
H1139 N1133 0.985 . S
H1140 N1137 0.984 . S
H1141 N1137 0.985 . S
H1142 N1136 0.984 . S
H1143 N1136 0.984 . S
H1144 N1132 0.984 . S
H1145 N1132 0.985 . S
C1146 C1147 1.363 . S
C1146 C1152 1.379 . S
C1146 N1154 1.356 . S
C1147 C1146 1.363 . S
C1147 C1153 1.363 . S
C1148 C1149 1.363 . S
C1148 C1153 1.379 . S
C1148 N1155 1.356 . S
C1149 C1148 1.363 . S
C1149 C1152 1.363 . S
N1150 C1152 1.356 . S
N1150 H1162 0.984 . S
N1150 H1163 0.985 . S
N1151 C1153 1.356 . S
N1151 H1156 0.984 . S
N1151 H1157 0.985 . S
C1152 C1146 1.379 . S
C1152 C1149 1.363 . S
C1152 N1150 1.356 . S
C1153 C1147 1.363 . S
C1153 C1148 1.379 . S
C1153 N1151 1.356 . S
N1154 C1146 1.356 . S
N1154 H1160 0.984 . S
N1154 H1161 0.984 . S
N1155 C1148 1.356 . S
N1155 H1158 0.984 . S
N1155 H1159 0.985 . S
H1156 N1151 0.984 . S
H1157 N1151 0.985 . S
H1158 N1155 0.984 . S
H1159 N1155 0.985 . S
H1160 N1154 0.984 . S
H1161 N1154 0.984 . S
H1162 N1150 0.984 . S
H1163 N1150 0.985 . S
C1164 C1165 1.363 . S
C1164 C1170 1.379 . S
C1164 N1172 1.356 . S
C1165 C1164 1.363 . S
C1165 C1171 1.363 . S
C1166 C1167 1.363 . S
C1166 C1171 1.379 . S
C1166 N1173 1.356 . S
C1167 C1166 1.363 . S
C1167 C1170 1.363 . S
N1168 C1170 1.356 . S
N1168 H1180 0.984 . S
N1168 H1181 0.985 . S
N1169 C1171 1.356 . S
N1169 H1174 0.984 1_556 S
N1169 H1175 0.985 . S
C1170 C1164 1.379 . S
C1170 C1167 1.363 . S
C1170 N1168 1.356 . S
C1171 C1165 1.363 . S
C1171 C1166 1.379 . S
C1171 N1169 1.356 . S
N1172 C1164 1.356 . S
N1172 H1178 0.984 . S
N1172 H1179 0.984 . S
N1173 C1166 1.356 . S
N1173 H1176 0.984 . S
N1173 H1177 0.985 . S
H1174 N1169 0.984 1_554 S
H1175 N1169 0.985 . S
H1176 N1173 0.984 . S
H1177 N1173 0.985 . S
H1178 N1172 0.984 . S
H1179 N1172 0.984 . S
H1180 N1168 0.984 . S
H1181 N1168 0.985 . S
C1182 C1183 1.363 . S
C1182 C1188 1.379 . S
C1182 N1190 1.356 . S
C1183 C1182 1.363 . S
C1183 C1189 1.363 . S
C1184 C1185 1.363 1_655 S
C1184 C1189 1.379 . S
C1184 N1191 1.356 1_655 S
C1185 C1184 1.363 1_455 S
C1185 C1188 1.363 1_455 S
N1186 C1188 1.356 1_455 S
N1186 H1198 0.984 . S
N1186 H1199 0.985 . S
N1187 C1189 1.356 . S
N1187 H1192 0.984 . S
N1187 H1193 0.985 . S
C1188 C1182 1.379 . S
C1188 C1185 1.363 1_655 S
C1188 N1186 1.356 1_655 S
C1189 C1183 1.363 . S
C1189 C1184 1.379 . S
C1189 N1187 1.356 . S
N1190 C1182 1.356 . S
N1190 H1196 0.984 . S
N1190 H1197 0.984 . S
N1191 C1184 1.356 1_455 S
N1191 H1194 0.984 . S
N1191 H1195 0.985 . S
H1192 N1187 0.984 . S
H1193 N1187 0.985 . S
H1194 N1191 0.984 . S
H1195 N1191 0.985 . S
H1196 N1190 0.984 . S
H1197 N1190 0.984 . S
H1198 N1186 0.984 . S
H1199 N1186 0.985 . S
C337 C132 1.430 . S
C339 C6 1.430 . S
C355 C20 1.430 . S
C357 C146 1.430 . S
C373 C34 1.430 . S
C375 C160 1.430 . S
C391 C48 1.430 . S
C393 C118 1.430 . S
C409 C62 1.430 . S
C411 C216 1.430 . S
C427 C174 1.430 . S
C429 C76 1.430 . S
C445 C90 1.430 . S
C447 C188 1.430 . S
C463 C202 1.430 . S
C465 C104 1.430 . S
C481 C230 1.430 . S
C483 C258 1.430 . S
C499 C314 1.430 . S
C501 C244 1.430 . S
C517 C272 1.430 . S
C519 C328 1.430 . S
C535 C300 1.430 . S
C537 C286 1.430 . S
C553 C287 1.845 . S
C555 C7 1.845 . S
C571 C21 1.845 . S
C573 C245 1.845 . S
C589 C35 1.845 . S
C591 C259 1.845 . S
C607 C49 1.845 . S
C609 C273 1.845 . S
C625 C63 1.845 . S
C627 C329 1.845 . S
C643 C301 1.845 . S
C645 C77 1.845 . S
C661 C315 1.845 . S
C663 C91 1.845 . S
C679 C231 1.845 . S
C681 C105 1.845 . S
C697 C217 1.845 . S
C699 C119 1.845 . S
C715 C133 1.845 . S
C717 C175 1.845 . S
C733 C189 1.845 . S
C735 C147 1.845 . S
C751 C203 1.845 . S
C753 C161 1.845 . S
C769 C9 1.347 . S
C771 C232 1.407 . S
C787 C330 1.418 . S
C789 C23 1.347 . S
C805 C302 1.406 . S
C807 C37 1.347 . S
C823 C51 1.347 . S
C825 C316 1.418 . S
C841 C65 1.347 . S
C843 C246 1.406 . S
C859 C260 1.406 . S
C861 C79 1.347 . S
C877 C274 1.406 . S
C879 C93 1.347 . S
C895 C288 1.406 . S
C897 C107 1.347 . S
C913 C8 1.407 . S
C915 C121 1.347 . S
C931 C22 1.418 . S
C933 C135 1.347 . S
C949 C36 1.406 . S
C951 C149 1.347 . S
C967 C50 1.406 . S
C969 C163 1.347 . S
C985 C64 1.406 . S
C987 C177 1.347 . S
C1003 C78 1.418 . S
C1005 C191 1.347 . S
C1021 C205 1.347 . S
C1023 C92 1.406 . S
C1039 C106 1.406 . S
C1041 C219 1.347 . S
C1057 C120 1.407 . S
C1059 C233 1.347 . S
C1075 C247 1.347 . S
C1077 C176 1.406 . S
C1093 C190 1.418 . S
C1095 C261 1.347 . S
C1111 C275 1.347 . S
C1113 C204 1.406 . S
C1129 C289 1.347 . S
C1131 C218 1.406 . S
C1147 C303 1.347 . S
C1149 C148 1.406 . S
C1165 C162 1.418 . S
C1167 C317 1.347 . S
C1183 C331 1.347 . S
C1185 C134 1.406 . S
