# Generated by pormake.
# Topology snl, (6)-cn, num edge types: 1
# Building blocks:
#     Node 0, Type 0, BuildingBlock: HISSIN_clean_sbu_0, # of connection points: 6
#     Node 1, Type 0, BuildingBlock: HISSIN_clean_sbu_0, # of connection points: 6
#     Node 2, Type 0, BuildingBlock: HISSIN_clean_sbu_0, # of connection points: 6
#     Node 3, Type 0, BuildingBlock: HISSIN_clean_sbu_0, # of connection points: 6
#     Node 4, Type 0, BuildingBlock: HISSIN_clean_sbu_0, # of connection points: 6
#     Node 5, Type 0, BuildingBlock: HISSIN_clean_sbu_0, # of connection points: 6
#     Node 6, Type 0, BuildingBlock: HISSIN_clean_sbu_0, # of connection points: 6
#     Node 7, Type 0, BuildingBlock: HISSIN_clean_sbu_0, # of connection points: 6
#     Node 8, Type 0, BuildingBlock: HISSIN_clean_sbu_0, # of connection points: 6
#     Node 9, Type 0, BuildingBlock: HISSIN_clean_sbu_0, # of connection points: 6
#     Node 10, Type 0, BuildingBlock: HISSIN_clean_sbu_0, # of connection points: 6
#     Node 11, Type 0, BuildingBlock: HISSIN_clean_sbu_0, # of connection points: 6
#     Node 12, Type 0, BuildingBlock: HISSIN_clean_sbu_0, # of connection points: 6
#     Node 13, Type 0, BuildingBlock: HISSIN_clean_sbu_0, # of connection points: 6
#     Node 14, Type 0, BuildingBlock: HISSIN_clean_sbu_0, # of connection points: 6
#     Node 15, Type 0, BuildingBlock: HISSIN_clean_sbu_0, # of connection points: 6
#     Edge 16, Type (0, 0), None
#     Edge 17, Type (0, 0), None
#     Edge 18, Type (0, 0), None
#     Edge 19, Type (0, 0), None
#     Edge 20, Type (0, 0), None
#     Edge 21, Type (0, 0), None
#     Edge 22, Type (0, 0), None
#     Edge 23, Type (0, 0), None
#     Edge 24, Type (0, 0), None
#     Edge 25, Type (0, 0), None
#     Edge 26, Type (0, 0), None
#     Edge 27, Type (0, 0), None
#     Edge 28, Type (0, 0), None
#     Edge 29, Type (0, 0), None
#     Edge 30, Type (0, 0), None
#     Edge 31, Type (0, 0), None
#     Edge 32, Type (0, 0), None
#     Edge 33, Type (0, 0), None
#     Edge 34, Type (0, 0), None
#     Edge 35, Type (0, 0), None
#     Edge 36, Type (0, 0), None
#     Edge 37, Type (0, 0), None
#     Edge 38, Type (0, 0), None
#     Edge 39, Type (0, 0), None
#     Edge 40, Type (0, 0), None
#     Edge 41, Type (0, 0), None
#     Edge 42, Type (0, 0), None
#     Edge 43, Type (0, 0), None
#     Edge 44, Type (0, 0), None
#     Edge 45, Type (0, 0), None
#     Edge 46, Type (0, 0), None
#     Edge 47, Type (0, 0), None
#     Edge 48, Type (0, 0), None
#     Edge 49, Type (0, 0), None
#     Edge 50, Type (0, 0), None
#     Edge 51, Type (0, 0), None
#     Edge 52, Type (0, 0), None
#     Edge 53, Type (0, 0), None
#     Edge 54, Type (0, 0), None
#     Edge 55, Type (0, 0), None
#     Edge 56, Type (0, 0), None
#     Edge 57, Type (0, 0), None
#     Edge 58, Type (0, 0), None
#     Edge 59, Type (0, 0), None
#     Edge 60, Type (0, 0), None
#     Edge 61, Type (0, 0), None
#     Edge 62, Type (0, 0), None
#     Edge 63, Type (0, 0), None
# Relax obj value: 0.216
# Max RMSD: 0.293
# Mean RMSD: 0.293
data_MOF--net-snl--node1-HISSIN_clean_sbu_0--edge1-none
_symmetry_space_group_name_H-M    P1
_symmetry_Int_Tables_number       1
_symmetry_cell_setting            triclinic
loop_
_symmetry_equiv_pos_as_xyz
'x, y, z'
_cell_length_a     24.818514
_cell_length_b     24.31411
_cell_length_c     15.838195
_cell_angle_alpha  90.00233
_cell_angle_beta   90.003084
_cell_angle_gamma 93.076112
loop_
_atom_site_label
_atom_site_type_symbol
_atom_site_fract_x
_atom_site_fract_y
_atom_site_fract_z
_atom_type_partial_charge
Eu0 Eu 0.12066 0.60656 0.33365 0.0
Eu1 Eu 0.18371 0.65746 0.1801 0.0
C2 C 0.24442 0.63066 0.35762 0.0
C3 C 0.10088 0.59104 0.56269 0.0
C4 C 0.15373 0.5802 0.58776 0.0
C5 C 0.08901 0.63965 0.695 0.0
C6 C 0.17408 0.59927 0.66512 0.0
C7 C 0.06877 0.62096 0.61711 0.0
C8 C 0.14207 0.62941 0.71935 0.0
C9 C 0.08095 0.57504 0.47765 0.0
O10 O 0.15761 0.57775 0.12158 0.0
O11 O 0.13802 0.5316 0.24432 0.0
C12 C 0.14559 0.53189 0.16051 0.0
O13 O 0.05922 0.59008 0.23561 0.0
O14 O 0.24647 0.65435 0.08395 0.0
O15 O 0.19785 0.72553 0.09182 0.0
O16 O 0.09183 0.65912 0.14862 0.0
C17 C 0.053 0.62252 0.1713 0.0
O18 O 0.09596 0.69544 0.3097 0.0
O19 O 0.18024 0.72253 0.27959 0.0
O20 O 0.24587 0.62409 0.27436 0.0
O21 O 0.06047 0.61415 0.43329 0.0
O22 O 0.11249 0.54509 0.43273 0.0
O23 O 0.19852 0.63919 0.39272 0.0
C24 C 0.20629 0.68339 0.95952 0.0
C25 C 0.15367 0.65941 0.95275 0.0
C26 C 0.21622 0.67402 0.80815 0.0
C27 C 0.13263 0.64245 0.87493 0.0
C28 C 0.23747 0.69062 0.88667 0.0
C29 C 0.16386 0.64919 0.80171 0.0
C30 C 0.2284 0.69652 1.04385 0.0
C31 C 0.13184 0.73659 0.29823 0.0
H32 H 0.17985 0.55754 0.54729 0.0
H33 H 0.06354 0.66315 0.73537 0.0
H34 H 0.21481 0.59009 0.68277 0.0
H35 H 0.02842 0.63086 0.59865 0.0
H36 H 0.12887 0.65282 1.00789 0.0
H37 H 0.24025 0.68112 0.75219 0.0
H38 H 0.09234 0.62303 0.87239 0.0
H39 H 0.27803 0.70881 0.89084 0.0
Eu40 Eu 0.61262 0.92536 0.4197 0.0
Eu41 Eu 0.63801 0.85025 0.57461 0.0
C42 C 0.72655 0.87733 0.41225 0.0
C43 C 0.59516 0.94888 0.19804 0.0
C44 C 0.63159 0.90677 0.19227 0.0
C45 C 0.58048 0.94222 1.04712 0.0
C46 C 0.64171 0.88197 0.11512 0.0
C47 C 0.56956 0.96629 0.12526 0.0
C48 C 0.61661 0.89986 1.04192 0.0
C49 C 0.58086 0.96968 0.28162 0.0
O50 O 0.62755 0.93332 0.63683 0.0
O51 O 0.64289 0.98766 0.52107 0.0
C52 C 0.639 0.98187 0.60432 0.0
O53 O 0.54602 0.92603 0.51438 0.0
O54 O 0.69612 0.82945 0.6704 0.0
O55 O 0.61409 0.79452 0.67772 0.0
O56 O 0.54751 0.83743 0.54593 0.0
C57 C 0.51907 0.87983 0.5294 0.0
O58 O 0.61745 0.83518 0.37058 0.0
O59 O 0.61724 0.78127 0.48894 0.0
O60 O 0.713 0.84873 0.48219 0.0
O61 O 0.55009 0.93503 0.32546 0.0
O62 O 0.62125 0.99109 0.3259 0.0
O63 O 0.69748 0.91645 0.38557 0.0
C64 C 0.65289 0.8277 0.80354 0.0
C65 C 0.66816 0.88318 0.82041 0.0
C66 C 0.61506 0.81906 0.94462 0.0
C67 C 0.65605 0.9066 0.89801 0.0
C68 C 0.6263 0.79583 0.86626 0.0
C69 C 0.62907 0.87483 0.96021 0.0
C70 C 0.65916 0.80503 0.71821 0.0
C71 C 0.6158 0.78612 0.40727 0.0
H72 H 0.65171 0.89229 0.2476 0.0
H73 H 0.55992 0.9555 0.99106 0.0
H74 H 0.66919 0.84893 0.11256 0.0
H75 H 0.54121 0.99818 0.12975 0.0
H76 H 0.68854 0.90888 0.77315 0.0
H77 H 0.59431 0.79395 0.99228 0.0
H78 H 0.66787 0.94947 0.90959 0.0
H79 H 0.61322 0.75344 0.85395 0.0
Eu80 Eu 0.39791 0.38984 0.83366 0.0
Eu81 Eu 0.33485 0.33894 0.6801 0.0
C82 C 0.27415 0.36574 0.85761 0.0
C83 C 0.41769 0.40535 1.0627 0.0
C84 C 0.36483 0.41618 0.08777 0.0
C85 C 0.42956 0.35674 0.19501 0.0
C86 C 0.34448 0.3971 0.16511 0.0
C87 C 0.4498 0.37544 0.11713 0.0
C88 C 0.37649 0.36697 0.21935 0.0
C89 C 0.43762 0.42136 0.97767 0.0
O90 O 0.36095 0.41866 0.62159 0.0
O91 O 0.38056 0.4648 0.74433 0.0
C92 C 0.37298 0.46451 0.66052 0.0
O93 O 0.45935 0.40632 0.73563 0.0
O94 O 0.27209 0.34204 0.58394 0.0
O95 O 0.32071 0.27087 0.59181 0.0
O96 O 0.42673 0.33728 0.64862 0.0
C97 C 0.46556 0.37389 0.67131 0.0
O98 O 0.42261 0.30097 0.8097 0.0
O99 O 0.33833 0.27388 0.77959 0.0
O100 O 0.27269 0.37231 0.77436 0.0
O101 O 0.4581 0.38225 0.9333 0.0
O102 O 0.40607 0.45131 0.93275 0.0
O103 O 0.32005 0.35722 0.89272 0.0
C104 C 0.31227 0.31301 0.45951 0.0
C105 C 0.3649 0.33699 0.45275 0.0
C106 C 0.30235 0.32236 0.30814 0.0
C107 C 0.38593 0.35395 0.37494 0.0
C108 C 0.28109 0.30577 0.38666 0.0
C109 C 0.35471 0.34719 0.30171 0.0
C110 C 0.29016 0.29988 0.54384 0.0
C111 C 0.38673 0.25982 0.79823 0.0
H112 H 0.33871 0.43883 1.04728 0.0
H113 H 0.45503 0.33325 0.23539 0.0
H114 H 0.30375 0.40627 0.18275 0.0
H115 H 0.49015 0.36555 0.09869 0.0
H116 H 0.38969 0.34358 0.50789 0.0
H117 H 0.27832 0.31525 0.25218 0.0
H118 H 0.42622 0.37337 0.3724 0.0
H119 H 0.24054 0.28758 0.39082 0.0
Eu120 Eu 0.90595 0.07107 0.91969 0.0
Eu121 Eu 0.88059 0.14619 1.07461 0.0
C122 C 0.79203 0.11911 0.91226 0.0
C123 C 0.92341 0.04755 0.69803 0.0
C124 C 0.88697 0.08965 0.69226 0.0
C125 C 0.93811 0.05424 0.54713 0.0
C126 C 0.87686 0.11446 0.61511 0.0
C127 C 0.94903 0.03016 0.62526 0.0
C128 C 0.90198 0.09659 0.54192 0.0
C129 C 0.9377 0.02675 0.78161 0.0
O130 O 0.89103 0.06312 0.13683 0.0
O131 O 0.87569 0.00878 1.02107 0.0
C132 C 0.87958 0.01457 0.10432 0.0
O133 O 0.97256 0.0704 1.01437 0.0
O134 O 0.82249 0.16702 0.1704 0.0
O135 O 0.90453 0.20192 0.17773 0.0
O136 O 0.97108 0.159 1.04591 0.0
C137 C 0.99952 0.11659 1.02938 0.0
O138 O 0.90111 0.16125 0.87057 0.0
O139 O 0.90135 0.21517 0.98893 0.0
O140 O 0.80559 0.14772 0.9822 0.0
O141 O 0.96847 0.06139 0.82546 0.0
O142 O 0.89731 0.00534 0.82588 0.0
O143 O 0.82109 0.07998 0.88558 0.0
C144 C 0.86572 0.16876 0.30354 0.0
C145 C 0.85044 0.11328 0.3204 0.0
C146 C 0.90354 0.17739 0.44464 0.0
C147 C 0.86254 0.08986 0.39799 0.0
C148 C 0.8923 0.20063 0.36627 0.0
C149 C 0.88952 0.12162 0.46021 0.0
C150 C 0.85946 0.19143 0.21821 0.0
C151 C 0.90277 0.21031 0.90726 0.0
H152 H 0.86683 0.10412 0.74758 0.0
H153 H 0.95869 0.04097 0.49107 0.0
H154 H 0.84937 0.1475 0.61255 0.0
H155 H 0.97739 -0.00172 0.62975 0.0
H156 H 0.83007 0.08759 0.27312 0.0
H157 H 0.92429 0.2025 0.49231 0.0
H158 H 0.85072 0.04699 0.40956 0.0
H159 H 0.90538 0.24302 0.35398 0.0
Eu160 Eu 0.11266 0.42533 0.91966 0.0
Eu161 Eu 0.13805 0.35023 1.07458 0.0
C162 C 0.22659 0.3773 0.91222 0.0
C163 C 0.09518 0.44885 0.698 0.0
C164 C 0.13163 0.40675 0.69223 0.0
C165 C 0.08049 0.44217 0.54709 0.0
C166 C 0.14175 0.38195 0.61507 0.0
C167 C 0.06956 0.46624 0.62523 0.0
C168 C 0.11663 0.39983 0.54188 0.0
C169 C 0.08089 0.46964 0.78159 0.0
O170 O 0.12759 0.43329 0.1368 0.0
O171 O 0.14291 0.48763 1.02104 0.0
C172 C 0.13902 0.48185 0.10429 0.0
O173 O 0.04606 0.42601 1.01435 0.0
O174 O 0.19617 0.32943 0.17037 0.0
O175 O 0.11414 0.29449 0.17768 0.0
O176 O 0.04755 0.33741 1.04591 0.0
C177 C 0.01911 0.37982 1.02939 0.0
O178 O 0.11749 0.33515 0.87054 0.0
O179 O 0.11729 0.28124 0.98891 0.0
O180 O 0.21304 0.3487 0.98215 0.0
O181 O 0.05012 0.43499 0.82543 0.0
O182 O 0.12128 0.49106 0.82585 0.0
O183 O 0.19752 0.41643 0.88554 0.0
C184 C 0.15293 0.32768 0.30351 0.0
C185 C 0.16819 0.38316 0.32037 0.0
C186 C 0.11511 0.31903 0.44459 0.0
C187 C 0.15607 0.40657 0.39796 0.0
C188 C 0.12636 0.2958 0.36623 0.0
C189 C 0.12909 0.37481 0.46017 0.0
C190 C 0.15921 0.30501 0.21818 0.0
C191 C 0.11585 0.28609 0.90724 0.0
H192 H 0.15176 0.39228 0.74755 0.0
H193 H 0.05991 0.45544 0.49104 0.0
H194 H 0.16924 0.34892 0.61251 0.0
H195 H 0.0412 0.49811 0.62973 0.0
H196 H 0.18855 0.40886 0.27311 0.0
H197 H 0.09437 0.29391 0.49225 0.0
H198 H 0.16787 0.44945 0.40954 0.0
H199 H 0.1133 0.2534 0.35393 0.0
Eu200 Eu 0.89789 0.88986 0.3337 0.0
Eu201 Eu 0.83481 0.83897 0.18013 0.0
C202 C 0.77412 0.86578 0.35765 0.0
C203 C 0.91766 0.90537 0.56274 0.0
C204 C 0.86481 0.91622 0.5878 0.0
C205 C 0.92952 0.85676 0.69505 0.0
C206 C 0.84446 0.89715 0.66515 0.0
C207 C 0.94977 0.87545 0.61716 0.0
C208 C 0.87646 0.86701 0.71939 0.0
C209 C 0.9376 0.92137 0.4777 0.0
O210 O 0.86092 0.91868 0.12162 0.0
O211 O 0.88057 0.96483 0.24436 0.0
C212 C 0.87298 0.96454 0.16055 0.0
O213 O 0.95933 0.90632 0.23566 0.0
O214 O 0.77205 0.84208 0.08397 0.0
O215 O 0.82067 0.7709 0.09184 0.0
O216 O 0.92669 0.8373 0.14864 0.0
C217 C 0.96553 0.87389 0.17133 0.0
O218 O 0.92257 0.80098 0.30974 0.0
O219 O 0.83828 0.7739 0.27962 0.0
O220 O 0.77265 0.87233 0.27439 0.0
O221 O 0.95807 0.88226 0.43334 0.0
O222 O 0.90606 0.95133 0.43278 0.0
O223 O 0.82002 0.85725 0.39276 0.0
C224 C 0.81223 0.81305 0.95954 0.0
C225 C 0.86486 0.83702 0.95279 0.0
C226 C 0.8023 0.82242 0.80818 0.0
C227 C 0.88589 0.85398 0.87498 0.0
C228 C 0.78105 0.80582 0.88669 0.0
C229 C 0.85467 0.84724 0.80175 0.0
C230 C 0.79011 0.79991 1.04387 0.0
C231 C 0.88668 0.75984 0.29826 0.0
H232 H 0.8387 0.93889 0.54732 0.0
H233 H 0.95498 0.83326 0.73542 0.0
H234 H 0.80373 0.90634 0.68279 0.0
H235 H 0.99011 0.86555 0.59872 0.0
H236 H 0.88965 0.8436 1.00792 0.0
H237 H 0.77827 0.81532 0.75221 0.0
H238 H 0.92619 0.87339 0.87244 0.0
H239 H 0.74049 0.78764 0.89085 0.0
Eu240 Eu 0.40591 0.57106 0.41968 0.0
Eu241 Eu 0.38052 0.64617 0.5746 0.0
C242 C 0.29198 0.6191 0.41223 0.0
C243 C 0.42338 0.54754 0.19801 0.0
C244 C 0.38692 0.58963 0.19225 0.0
C245 C 0.43807 0.55422 1.04711 0.0
C246 C 0.37681 0.61443 0.11509 0.0
C247 C 0.449 0.53015 0.12524 0.0
C248 C 0.40193 0.59656 1.0419 0.0
C249 C 0.43767 0.52674 0.2816 0.0
O250 O 0.39099 0.56311 0.63681 0.0
O251 O 0.37566 0.50876 0.52105 0.0
C252 C 0.37955 0.51455 0.6043 0.0
O253 O 0.47251 0.5704 0.51437 0.0
O254 O 0.32241 0.66697 0.67038 0.0
O255 O 0.40444 0.70191 0.67772 0.0
O256 O 0.47102 0.659 0.54593 0.0
C257 C 0.49946 0.61659 0.5294 0.0
O258 O 0.40108 0.66124 0.37056 0.0
O259 O 0.40128 0.71515 0.48893 0.0
O260 O 0.30553 0.6477 0.48217 0.0
O261 O 0.46844 0.56139 0.32544 0.0
O262 O 0.39728 0.50533 0.32586 0.0
O263 O 0.32105 0.57997 0.38555 0.0
C264 C 0.36564 0.66872 0.80353 0.0
C265 C 0.35037 0.61324 0.82038 0.0
C266 C 0.40346 0.67737 0.94462 0.0
C267 C 0.36249 0.58982 0.89797 0.0
C268 C 0.39221 0.7006 0.86626 0.0
C269 C 0.38946 0.62159 0.96019 0.0
C270 C 0.35937 0.69139 0.7182 0.0
C271 C 0.40272 0.7103 0.40725 0.0
H272 H 0.36679 0.6041 0.24756 0.0
H273 H 0.45865 0.54096 0.99106 0.0
H274 H 0.34931 0.64746 0.11253 0.0
H275 H 0.47736 0.49828 0.12974 0.0
H276 H 0.33001 0.58754 0.77311 0.0
H277 H 0.4242 0.70248 0.9923 0.0
H278 H 0.35068 0.54695 0.90954 0.0
H279 H 0.40528 0.743 0.85397 0.0
Eu280 Eu 0.62069 0.10659 0.8337 0.0
Eu281 Eu 0.68376 0.15748 0.68014 0.0
C282 C 0.74446 0.13067 0.85766 0.0
C283 C 0.60093 0.09108 1.06273 0.0
C284 C 0.65379 0.08025 0.08779 0.0
C285 C 0.58907 0.13968 0.19505 0.0
C286 C 0.67414 0.09932 0.16514 0.0
C287 C 0.56882 0.12099 0.11717 0.0
C288 C 0.64214 0.12944 0.21939 0.0
C289 C 0.58099 0.07508 0.9777 0.0
O290 O 0.65766 0.07776 0.62162 0.0
O291 O 0.63802 0.03162 0.74436 0.0
C292 C 0.6456 0.03191 0.66054 0.0
O293 O 0.55925 0.09012 0.73565 0.0
O294 O 0.74652 0.15437 0.584 0.0
O295 O 0.69791 0.22555 0.59187 0.0
O296 O 0.59189 0.15913 0.64864 0.0
C297 C 0.55305 0.12254 0.67133 0.0
O298 O 0.596 0.19546 0.80973 0.0
O299 O 0.68028 0.22254 0.77963 0.0
O300 O 0.74592 0.12411 0.7744 0.0
O301 O 0.56051 0.11419 0.93334 0.0
O302 O 0.61252 0.04512 0.93278 0.0
O303 O 0.69856 0.13921 0.89276 0.0
C304 C 0.70636 0.18341 0.45956 0.0
C305 C 0.65373 0.15945 0.45279 0.0
C306 C 0.7163 0.17403 0.3082 0.0
C307 C 0.6327 0.14249 0.37497 0.0
C308 C 0.73755 0.19063 0.38672 0.0
C309 C 0.66393 0.14922 0.30176 0.0
C310 C 0.72847 0.19654 0.5439 0.0
C311 C 0.63188 0.23661 0.79826 0.0
H312 H 0.6799 0.05759 1.0473 0.0
H313 H 0.56361 0.16317 0.23544 0.0
H314 H 0.71487 0.09014 0.18278 0.0
H315 H 0.52847 0.13088 0.09873 0.0
H316 H 0.62893 0.15287 0.50792 0.0
H317 H 0.74034 0.18112 0.25225 0.0
H318 H 0.5924 0.12308 0.37242 0.0
H319 H 0.77811 0.2088 0.3909 0.0
Eu320 Eu 0.83483 0.33895 0.97994 0.0
Eu321 Eu 0.89791 0.38985 0.82638 0.0
C322 C 0.96555 0.37386 0.98874 0.0
C323 C 0.81225 0.31303 0.20054 0.0
C324 C 0.86488 0.33701 0.20729 0.0
C325 C 0.80234 0.32238 0.35191 0.0
C326 C 0.88591 0.35396 0.28511 0.0
C327 C 0.78108 0.30578 0.27339 0.0
C328 C 0.8547 0.34721 0.35833 0.0
C329 C 0.79013 0.2999 0.11621 0.0
O330 O 0.92258 0.30096 0.8503 0.0
O331 O 0.83826 0.27386 0.88048 0.0
C332 C 0.88666 0.25985 0.86177 0.0
O333 O 0.77268 0.37232 0.88567 0.0
O334 O 0.9581 0.38226 0.72675 0.0
O335 O 0.90607 0.45132 0.72731 0.0
O336 O 0.82004 0.35722 0.76732 0.0
C337 C 0.77414 0.36576 0.80241 0.0
O338 O 0.86094 0.41866 1.03845 0.0
O339 O 0.88055 0.4648 0.91571 0.0
O340 O 0.95934 0.4063 0.92444 0.0
O341 O 0.77208 0.34208 1.07611 0.0
O342 O 0.82067 0.27088 1.06823 0.0
O343 O 0.9267 0.33726 1.01141 0.0
C344 C 0.91769 0.40537 0.59735 0.0
C345 C 0.86483 0.41621 0.57228 0.0
C346 C 0.92955 0.35675 0.46504 0.0
C347 C 0.84449 0.39713 0.49493 0.0
C348 C 0.94979 0.37545 0.54293 0.0
C349 C 0.87649 0.36699 0.44069 0.0
C350 C 0.93762 0.42137 0.68239 0.0
C351 C 0.87297 0.46451 0.99952 0.0
H352 H 0.88967 0.3436 0.15215 0.0
H353 H 0.77831 0.31527 0.40787 0.0
H354 H 0.92621 0.37339 0.28765 0.0
H355 H 0.74053 0.28759 0.26923 0.0
H356 H 0.83872 0.43887 0.61275 0.0
H357 H 0.95501 0.33326 0.42467 0.0
H358 H 0.80375 0.40631 0.47728 0.0
H359 H 0.99014 0.36555 0.56138 0.0
Eu360 Eu 0.38058 0.14617 0.58542 0.0
Eu361 Eu 0.40595 0.07103 0.74035 0.0
C362 C 0.49949 0.11654 0.63066 0.0
C363 C 0.3657 0.16872 0.35649 0.0
C364 C 0.35043 0.11325 0.33963 0.0
C365 C 0.40353 0.17737 0.21542 0.0
C366 C 0.36253 0.08983 0.26203 0.0
C367 C 0.39228 0.2006 0.29378 0.0
C368 C 0.38952 0.12159 0.19983 0.0
C369 C 0.35943 0.19139 0.44182 0.0
O370 O 0.40113 0.16122 0.78947 0.0
O371 O 0.40138 0.21514 0.67109 0.0
C372 C 0.40283 0.21028 0.75275 0.0
O373 O 0.30559 0.1477 0.67785 0.0
O374 O 0.46847 0.06135 0.8346 0.0
O375 O 0.3973 0.00531 0.83416 0.0
O376 O 0.32108 0.07995 0.77444 0.0
C377 C 0.29203 0.11908 0.74777 0.0
O378 O 0.39103 0.0631 0.5232 0.0
O379 O 0.37568 0.00876 0.63895 0.0
O380 O 0.47256 0.07035 0.64571 0.0
O381 O 0.32246 0.16697 0.48963 0.0
O382 O 0.40449 0.20191 0.48232 0.0
O383 O 0.47108 0.15897 0.61407 0.0
C384 C 0.42341 0.04752 0.96201 0.0
C385 C 0.38697 0.08963 0.96777 0.0
C386 C 0.4381 0.05421 0.11292 0.0
C387 C 0.37687 0.11445 1.04492 0.0
C388 C 0.44902 0.03013 1.03479 0.0
C389 C 0.40198 0.09657 0.11812 0.0
C390 C 0.43769 0.02671 0.87844 0.0
C391 C 0.37958 0.01455 0.55571 0.0
H392 H 0.33005 0.08755 0.38689 0.0
H393 H 0.42427 0.20248 0.16775 0.0
H394 H 0.35072 0.04695 0.25045 0.0
H395 H 0.40536 0.24299 0.30608 0.0
H396 H 0.36685 0.1041 0.91245 0.0
H397 H 0.45867 0.04093 0.16898 0.0
H398 H 0.34939 0.14749 1.04748 0.0
H399 H 0.47737 -0.00176 1.0303 0.0
Eu400 Eu 0.68374 0.65748 0.47996 0.0
Eu401 Eu 0.62064 0.60658 0.32638 0.0
C402 C 0.55302 0.62256 0.48874 0.0
C403 C 0.70631 0.6834 0.70056 0.0
C404 C 0.65368 0.65941 0.7073 0.0
C405 C 0.71621 0.67407 0.85193 0.0
C406 C 0.63264 0.64246 0.78511 0.0
C407 C 0.73747 0.69066 0.77342 0.0
C408 C 0.66385 0.64923 0.85835 0.0
C409 C 0.72843 0.69652 0.61624 0.0
O410 O 0.59599 0.69547 0.35031 0.0
O411 O 0.68031 0.72256 0.3805 0.0
C412 C 0.63191 0.73658 0.36179 0.0
O413 O 0.74589 0.62411 0.38569 0.0
O414 O 0.56045 0.61418 0.22674 0.0
O415 O 0.61247 0.54512 0.22729 0.0
O416 O 0.69852 0.6392 0.26733 0.0
C417 C 0.74442 0.63067 0.30243 0.0
O418 O 0.65763 0.57777 0.53845 0.0
O419 O 0.63799 0.53162 0.41571 0.0
O420 O 0.55922 0.59012 0.42443 0.0
O421 O 0.74648 0.65435 0.57613 0.0
O422 O 0.69789 0.72554 0.56826 0.0
O423 O 0.59186 0.65916 0.51141 0.0
C424 C 0.60086 0.59108 0.09735 0.0
C425 C 0.65372 0.58025 1.07229 0.0
C426 C 0.58899 0.63968 0.96504 0.0
C427 C 0.67406 0.59932 0.99495 0.0
C428 C 0.56875 0.62099 1.04292 0.0
C429 C 0.64206 0.62945 0.9407 0.0
C430 C 0.58092 0.57507 0.18238 0.0
C431 C 0.64558 0.53191 0.49952 0.0
H432 H 0.6289 0.65281 0.65215 0.0
H433 H 0.74023 0.68119 0.90791 0.0
H434 H 0.59235 0.62303 0.78764 0.0
H435 H 0.77802 0.70886 0.76927 0.0
H436 H 0.67983 0.55759 0.11277 0.0
H437 H 0.56353 0.66317 0.92465 0.0
H438 H 0.7148 0.59015 0.97731 0.0
H439 H 0.5284 0.63088 1.06136 0.0
Eu440 Eu 0.13799 0.85023 0.08542 0.0
Eu441 Eu 0.11264 0.92538 0.24036 0.0
C442 C 0.01909 0.87987 0.13067 0.0
C443 C 0.15287 0.82766 0.85649 0.0
C444 C 0.16815 0.88313 0.83964 0.0
C445 C 0.11505 0.81902 0.7154 0.0
C446 C 0.15605 0.90655 0.76204 0.0
C447 C 0.12629 0.79579 0.79376 0.0
C448 C 0.12907 0.87479 0.69983 0.0
C449 C 0.15913 0.80499 0.94182 0.0
O450 O 0.11746 0.83519 0.28947 0.0
O451 O 0.11718 0.78126 0.17109 0.0
C452 C 0.11574 0.78613 0.25276 0.0
O453 O 0.21298 0.84868 0.17786 0.0
O454 O 0.05013 0.93506 0.3346 0.0
O455 O 0.12131 0.99109 0.33418 0.0
O456 O 0.19751 0.91646 0.27442 0.0
C457 C 0.22655 0.87732 0.24776 0.0
O458 O 0.12755 0.9333 1.0232 0.0
O459 O 0.1429 0.98765 0.13895 0.0
O460 O 0.04602 0.92607 0.14572 0.0
O461 O 0.1961 0.8294 0.98964 0.0
O462 O 0.11406 0.79449 0.98231 0.0
O463 O 0.04748 0.83745 0.11407 0.0
C464 C 0.09519 0.94888 0.46202 0.0
C465 C 0.13164 0.90678 0.46778 0.0
C466 C 0.08048 0.94217 0.61292 0.0
C467 C 0.14174 0.88196 0.54493 0.0
C468 C 0.06956 0.96626 0.53479 0.0
C469 C 0.11661 0.89982 0.61812 0.0
C470 C 0.08091 0.9697 0.37844 0.0
C471 C 0.139 0.98185 1.05571 0.0
H472 H 0.18853 0.90883 0.88691 0.0
H473 H 0.0943 0.79391 0.66773 0.0
H474 H 0.16787 0.94943 0.75047 0.0
H475 H 0.11321 0.75339 0.80606 0.0
H476 H 0.15177 0.89232 0.41246 0.0
H477 H 0.05989 0.95543 0.66897 0.0
H478 H 0.16922 0.84892 0.54748 0.0
H479 H 0.0412 0.99813 0.5303 0.0
Eu480 Eu 0.88052 0.64618 0.08546 0.0
Eu481 Eu 0.90589 0.57105 0.24039 0.0
C482 C 0.99943 0.61654 0.13067 0.0
C483 C 0.86562 0.66873 0.85653 0.0
C484 C 0.85036 0.61325 0.83967 0.0
C485 C 0.90345 0.67738 0.71546 0.0
C486 C 0.86248 0.58983 0.76208 0.0
C487 C 0.89219 0.70061 0.79382 0.0
C488 C 0.88946 0.6216 0.69988 0.0
C489 C 0.85934 0.69139 0.94186 0.0
O490 O 0.90107 0.66124 0.2895 0.0
O491 O 0.90133 0.71515 0.17111 0.0
C492 C 0.90278 0.71029 0.25278 0.0
O493 O 0.80554 0.64773 0.17791 0.0
O494 O 0.96842 0.56137 0.33463 0.0
O495 O 0.89724 0.50533 0.33421 0.0
O496 O 0.82102 0.57995 0.27447 0.0
C497 C 0.79197 0.6191 0.24782 0.0
O498 O 0.89098 0.56311 1.02324 0.0
O499 O 0.87564 0.50876 0.13899 0.0
O500 O 0.9725 0.57035 0.14575 0.0
O501 O 0.82239 0.66696 0.98967 0.0
O502 O 0.90441 0.70193 0.98235 0.0
O503 O 0.97103 0.65896 0.11407 0.0
C504 C 0.92336 0.54754 0.46206 0.0
C505 C 0.88691 0.58963 0.46782 0.0
C506 C 0.93807 0.55424 0.61296 0.0
C507 C 0.87679 0.61444 0.54497 0.0
C508 C 0.94899 0.53016 0.53483 0.0
C509 C 0.90192 0.59658 0.61816 0.0
C510 C 0.93764 0.52673 0.37847 0.0
C511 C 0.87954 0.51455 1.05575 0.0
H512 H 0.82999 0.58755 0.88693 0.0
H513 H 0.92419 0.70249 0.66779 0.0
H514 H 0.85068 0.54695 0.7505 0.0
H515 H 0.90526 0.74301 0.80612 0.0
H516 H 0.86677 0.6041 0.4125 0.0
H517 H 0.95865 0.54098 0.66901 0.0
H518 H 0.8493 0.64747 0.54753 0.0
H519 H 0.97736 0.49829 0.53033 0.0
Eu520 Eu 0.18379 0.15745 0.97991 0.0
Eu521 Eu 0.12069 0.10656 0.82633 0.0
C522 C 0.05307 0.12256 0.9887 0.0
C523 C 0.20637 0.18336 0.20051 0.0
C524 C 0.15375 0.15938 0.20725 0.0
C525 C 0.21628 0.17401 0.35188 0.0
C526 C 0.13271 0.14242 0.28506 0.0
C527 C 0.23754 0.1906 0.27337 0.0
C528 C 0.16392 0.14918 0.35829 0.0
C529 C 0.2285 0.19649 0.11619 0.0
O530 O 0.09603 0.19545 0.85026 0.0
O531 O 0.18036 0.22253 0.88046 0.0
C532 C 0.13196 0.23655 0.86175 0.0
O533 O 0.24594 0.12408 0.88564 0.0
O534 O 0.0605 0.11415 0.72668 0.0
O535 O 0.11252 0.04509 0.72725 0.0
O536 O 0.19856 0.13916 0.76728 0.0
C537 C 0.24447 0.13064 0.80238 0.0
O538 O 0.15767 0.07774 1.0384 0.0
O539 O 0.13801 0.03159 0.91567 0.0
O540 O 0.05925 0.09012 0.92438 0.0
O541 O 0.24654 0.15431 1.07608 0.0
O542 O 0.19796 0.22551 1.06821 0.0
O543 O 0.09192 0.15914 1.01138 0.0
C544 C 0.10092 0.09104 0.5973 0.0
C545 C 0.15377 0.0802 0.57224 0.0
C546 C 0.08906 0.13965 0.46498 0.0
C547 C 0.17412 0.09927 0.4949 0.0
C548 C 0.06881 0.12096 0.54286 0.0
C549 C 0.14213 0.1294 0.44065 0.0
C550 C 0.08098 0.07504 0.68233 0.0
C551 C 0.1456 0.03188 0.99948 0.0
H552 H 0.12896 0.15278 0.1521 0.0
H553 H 0.2403 0.18112 0.40785 0.0
H554 H 0.09242 0.123 0.28759 0.0
H555 H 0.2781 0.2088 0.26922 0.0
H556 H 0.17988 0.05753 0.61273 0.0
H557 H 0.0636 0.16314 0.4246 0.0
H558 H 0.21486 0.09008 0.47726 0.0
H559 H 0.02846 0.13086 0.5613 0.0
Eu560 Eu 0.63803 0.35025 0.58544 0.0
Eu561 Eu 0.61267 0.42539 0.74038 0.0
C562 C 0.51912 0.37988 0.63067 0.0
C563 C 0.65293 0.3277 0.35651 0.0
C564 C 0.66819 0.38318 0.33966 0.0
C565 C 0.6151 0.31906 0.21542 0.0
C566 C 0.65608 0.4066 0.26207 0.0
C567 C 0.62635 0.29582 0.29378 0.0
C568 C 0.6291 0.37484 0.19986 0.0
C569 C 0.6592 0.30503 0.44184 0.0
O570 O 0.61748 0.3352 0.78949 0.0
O571 O 0.61724 0.28128 0.67111 0.0
C572 C 0.61579 0.28615 0.75277 0.0
O573 O 0.71301 0.34871 0.67788 0.0
O574 O 0.55014 0.43507 0.83462 0.0
O575 O 0.62132 0.49111 0.8342 0.0
O576 O 0.69754 0.41647 0.77447 0.0
C577 C 0.72658 0.37733 0.7478 0.0
O578 O 0.62757 0.43332 0.52323 0.0
O579 O 0.64291 0.48767 0.63898 0.0
O580 O 0.54605 0.42607 0.64574 0.0
O581 O 0.69615 0.32945 0.48966 0.0
O582 O 0.61413 0.29451 0.48232 0.0
O583 O 0.54753 0.33745 0.61407 0.0
C584 C 0.59521 0.44891 0.96204 0.0
C585 C 0.63166 0.40681 0.96781 0.0
C586 C 0.58049 0.4422 0.11294 0.0
C587 C 0.64177 0.382 1.04496 0.0
C588 C 0.56957 0.46628 1.03481 0.0
C589 C 0.61664 0.39986 0.11815 0.0
C590 C 0.58092 0.46971 0.87846 0.0
C591 C 0.63901 0.48187 0.55574 0.0
H592 H 0.68856 0.40888 0.38694 0.0
H593 H 0.59436 0.29394 0.16775 0.0
H594 H 0.66788 0.44948 0.25051 0.0
H595 H 0.61329 0.25342 0.30607 0.0
H596 H 0.6518 0.39235 0.91249 0.0
H597 H 0.5599 0.45546 0.16899 0.0
H598 H 0.66926 0.34897 1.04752 0.0
H599 H 0.5412 0.49814 1.03031 0.0
Eu600 Eu 0.33479 0.83895 0.47991 0.0
Eu601 Eu 0.3979 0.88983 0.32634 0.0
C602 C 0.46552 0.87385 0.48872 0.0
C603 C 0.3122 0.81303 0.7005 0.0
C604 C 0.36483 0.83701 0.70726 0.0
C605 C 0.30229 0.82237 0.85187 0.0
C606 C 0.38587 0.85397 0.78507 0.0
C607 C 0.28103 0.80578 0.77335 0.0
C608 C 0.35465 0.8472 0.8583 0.0
C609 C 0.29008 0.79991 0.61617 0.0
O610 O 0.42255 0.80094 0.35028 0.0
O611 O 0.33822 0.77386 0.38045 0.0
C612 C 0.38662 0.75984 0.36176 0.0
O613 O 0.27264 0.87231 0.38563 0.0
O614 O 0.45808 0.88222 0.2267 0.0
O615 O 0.40608 0.9513 0.22727 0.0
O616 O 0.32002 0.85722 0.26727 0.0
C617 C 0.27412 0.86576 0.30237 0.0
O618 O 0.36091 0.91866 0.53841 0.0
O619 O 0.38057 0.9648 0.41568 0.0
O620 O 0.45933 0.90628 0.4244 0.0
O621 O 0.27204 0.84209 0.57607 0.0
O622 O 0.32063 0.77089 0.5682 0.0
O623 O 0.42667 0.83727 0.5114 0.0
C624 C 0.41767 0.90534 0.09731 0.0
C625 C 0.36481 0.91617 1.07227 0.0
C626 C 0.42952 0.85675 0.96498 0.0
C627 C 0.34445 0.8971 0.99492 0.0
C628 C 0.44978 0.87544 1.04287 0.0
C629 C 0.37645 0.86698 0.94066 0.0
C630 C 0.43761 0.92134 0.18235 0.0
C631 C 0.37298 0.96451 0.49948 0.0
H632 H 0.38961 0.84361 0.65212 0.0
H633 H 0.27827 0.81526 0.90784 0.0
H634 H 0.42616 0.87339 0.78761 0.0
H635 H 0.24048 0.78759 0.76919 0.0
H636 H 0.33869 0.93882 0.11277 0.0
H637 H 0.45499 0.83327 0.92459 0.0
H638 H 0.30371 0.90627 0.9773 0.0
H639 H 0.49013 0.86555 1.06129 0.0
loop_
_geom_bond_atom_site_label_1
_geom_bond_atom_site_label_2
_geom_bond_distance
_geom_bond_site_symmetry_2
_ccdc_geom_bond_type
Eu0 C9 2.828 . S
Eu0 O11 2.392 . S
Eu0 O13 2.418 . S
Eu0 O18 2.373 . S
Eu0 O21 2.488 . S
Eu0 O22 2.471 . S
Eu0 O23 2.349 . S
Eu1 O10 2.373 . S
Eu1 O14 2.488 1_554 S
Eu1 O15 2.471 1_554 S
Eu1 O16 2.349 . S
Eu1 O19 2.392 . S
Eu1 O20 2.418 . S
Eu1 C30 2.828 1_554 S
C2 O20 1.244 . S
C2 O23 1.265 . S
C3 C4 1.379 . S
C3 C7 1.373 . S
C3 C9 1.505 . S
C4 C3 1.379 . S
C4 C6 1.369 . S
C4 H32 0.930 . S
C5 C7 1.383 . S
C5 C8 1.382 . S
C5 H33 0.930 . S
C6 C4 1.369 . S
C6 C8 1.392 . S
C6 H34 0.930 . S
C7 C3 1.373 . S
C7 C5 1.383 . S
C7 H35 0.931 . S
C8 C5 1.382 . S
C8 C6 1.392 . S
C9 Eu0 2.828 . S
C9 C3 1.505 . S
C9 O21 1.249 . S
C9 O22 1.244 . S
O10 Eu1 2.373 . S
O10 C12 1.258 . S
O11 Eu0 2.392 . S
O11 C12 1.242 . S
C12 O10 1.258 . S
C12 O11 1.242 . S
O13 Eu0 2.418 . S
O13 C17 1.244 . S
O14 Eu1 2.488 1_556 S
O14 C30 1.249 . S
O15 Eu1 2.471 1_556 S
O15 C30 1.244 . S
O16 Eu1 2.349 . S
O16 C17 1.265 . S
C17 O13 1.244 . S
C17 O16 1.265 . S
O18 Eu0 2.373 . S
O18 C31 1.258 . S
O19 Eu1 2.392 . S
O19 C31 1.242 . S
O20 Eu1 2.418 . S
O20 C2 1.244 . S
O21 Eu0 2.488 . S
O21 C9 1.249 . S
O22 Eu0 2.471 . S
O22 C9 1.244 . S
O23 Eu0 2.349 . S
O23 C2 1.265 . S
C24 C25 1.379 . S
C24 C28 1.373 . S
C24 C30 1.505 . S
C25 C24 1.379 . S
C25 C27 1.369 . S
C25 H36 0.930 . S
C26 C28 1.383 . S
C26 C29 1.382 . S
C26 H37 0.930 . S
C27 C25 1.369 . S
C27 C29 1.392 . S
C27 H38 0.930 . S
C28 C24 1.373 . S
C28 C26 1.383 . S
C28 H39 0.931 . S
C29 C26 1.382 . S
C29 C27 1.392 . S
C30 Eu1 2.828 1_556 S
C30 O14 1.249 . S
C30 O15 1.244 . S
C30 C24 1.505 . S
C31 O18 1.258 . S
C31 O19 1.242 . S
H32 C4 0.930 . S
H33 C5 0.930 . S
H34 C6 0.930 . S
H35 C7 0.931 . S
H36 C25 0.930 . S
H37 C26 0.930 . S
H38 C27 0.930 . S
H39 C28 0.931 . S
Eu40 C49 2.828 . S
Eu40 O51 2.392 1_565 S
Eu40 O53 2.418 . S
Eu40 O58 2.373 . S
Eu40 O61 2.488 . S
Eu40 O62 2.471 . S
Eu40 O63 2.349 . S
Eu41 O50 2.373 . S
Eu41 O54 2.488 . S
Eu41 O55 2.471 . S
Eu41 O56 2.349 . S
Eu41 O59 2.392 . S
Eu41 O60 2.418 . S
Eu41 C70 2.828 . S
C42 O60 1.244 . S
C42 O63 1.265 . S
C43 C44 1.379 1_554 S
C43 C47 1.373 1_554 S
C43 C49 1.505 . S
C44 C43 1.379 1_556 S
C44 C46 1.369 . S
C44 H72 0.930 1_556 S
C45 C47 1.383 . S
C45 C48 1.382 . S
C45 H73 0.930 . S
C46 C44 1.369 . S
C46 C48 1.392 . S
C46 H74 0.930 . S
C47 C43 1.373 1_556 S
C47 C45 1.383 . S
C47 H75 0.931 . S
C48 C45 1.382 . S
C48 C46 1.392 . S
C49 Eu40 2.828 . S
C49 C43 1.505 . S
C49 O61 1.249 . S
C49 O62 1.244 . S
O50 Eu41 2.373 . S
O50 C52 1.246 1_565 S
O51 Eu40 2.392 1_545 S
O51 C52 1.243 . S
C52 O50 1.246 1_545 S
C52 O51 1.243 . S
O53 Eu40 2.418 . S
O53 C57 1.244 . S
O54 Eu41 2.488 . S
O54 C70 1.249 . S
O55 Eu41 2.471 . S
O55 C70 1.244 . S
O56 Eu41 2.349 . S
O56 C57 1.265 . S
C57 O53 1.244 . S
C57 O56 1.265 . S
O58 Eu40 2.373 . S
O58 C71 1.258 . S
O59 Eu41 2.392 . S
O59 C71 1.242 . S
O60 Eu41 2.418 . S
O60 C42 1.244 . S
O61 Eu40 2.488 . S
O61 C49 1.249 . S
O62 Eu40 2.471 . S
O62 C49 1.244 . S
O63 Eu40 2.349 . S
O63 C42 1.265 . S
C64 C65 1.379 . S
C64 C68 1.373 . S
C64 C70 1.505 . S
C65 C64 1.379 . S
C65 C67 1.369 . S
C65 H76 0.930 . S
C66 C68 1.383 . S
C66 C69 1.382 . S
C66 H77 0.930 . S
C67 C65 1.369 . S
C67 C69 1.392 . S
C67 H78 0.930 . S
C68 C64 1.373 . S
C68 C66 1.383 . S
C68 H79 0.931 . S
C69 C66 1.382 . S
C69 C67 1.392 . S
C70 Eu41 2.828 . S
C70 O54 1.249 . S
C70 O55 1.244 . S
C70 C64 1.505 . S
C71 O58 1.258 . S
C71 O59 1.242 . S
H72 C44 0.930 1_554 S
H73 C45 0.930 . S
H74 C46 0.930 . S
H75 C47 0.931 . S
H76 C65 0.930 . S
H77 C66 0.930 . S
H78 C67 0.930 . S
H79 C68 0.931 . S
Eu80 C89 2.828 . S
Eu80 O91 2.392 . S
Eu80 O93 2.418 . S
Eu80 O98 2.373 . S
Eu80 O101 2.488 . S
Eu80 O102 2.471 . S
Eu80 O103 2.349 . S
Eu81 O90 2.373 . S
Eu81 O94 2.488 . S
Eu81 O95 2.471 . S
Eu81 O96 2.349 . S
Eu81 O99 2.392 . S
Eu81 O100 2.418 . S
Eu81 C110 2.828 . S
C82 O100 1.244 . S
C82 O103 1.265 . S
C83 C84 1.379 1_556 S
C83 C87 1.373 1_556 S
C83 C89 1.505 . S
C84 C83 1.379 1_554 S
C84 C86 1.369 . S
C84 H112 0.930 1_554 S
C85 C87 1.383 . S
C85 C88 1.382 . S
C85 H113 0.930 . S
C86 C84 1.369 . S
C86 C88 1.392 . S
C86 H114 0.930 . S
C87 C83 1.373 1_554 S
C87 C85 1.383 . S
C87 H115 0.931 . S
C88 C85 1.382 . S
C88 C86 1.392 . S
C89 Eu80 2.828 . S
C89 C83 1.505 . S
C89 O101 1.249 . S
C89 O102 1.244 . S
O90 Eu81 2.373 . S
O90 C92 1.258 . S
O91 Eu80 2.392 . S
O91 C92 1.242 . S
C92 O90 1.258 . S
C92 O91 1.242 . S
O93 Eu80 2.418 . S
O93 C97 1.244 . S
O94 Eu81 2.488 . S
O94 C110 1.249 . S
O95 Eu81 2.471 . S
O95 C110 1.244 . S
O96 Eu81 2.349 . S
O96 C97 1.265 . S
C97 O93 1.244 . S
C97 O96 1.265 . S
O98 Eu80 2.373 . S
O98 C111 1.258 . S
O99 Eu81 2.392 . S
O99 C111 1.242 . S
O100 Eu81 2.418 . S
O100 C82 1.244 . S
O101 Eu80 2.488 . S
O101 C89 1.249 . S
O102 Eu80 2.471 . S
O102 C89 1.244 . S
O103 Eu80 2.349 . S
O103 C82 1.265 . S
C104 C105 1.379 . S
C104 C108 1.373 . S
C104 C110 1.505 . S
C105 C104 1.379 . S
C105 C107 1.369 . S
C105 H116 0.930 . S
C106 C108 1.383 . S
C106 C109 1.382 . S
C106 H117 0.930 . S
C107 C105 1.369 . S
C107 C109 1.392 . S
C107 H118 0.930 . S
C108 C104 1.373 . S
C108 C106 1.383 . S
C108 H119 0.931 . S
C109 C106 1.382 . S
C109 C107 1.392 . S
C110 Eu81 2.828 . S
C110 O94 1.249 . S
C110 O95 1.244 . S
C110 C104 1.505 . S
C111 O98 1.258 . S
C111 O99 1.242 . S
H112 C84 0.930 1_556 S
H113 C85 0.930 . S
H114 C86 0.930 . S
H115 C87 0.931 . S
H116 C105 0.930 . S
H117 C106 0.930 . S
H118 C107 0.930 . S
H119 C108 0.931 . S
Eu120 C129 2.828 . S
Eu120 O131 2.392 1_545 S
Eu120 O133 2.418 . S
Eu120 O138 2.373 . S
Eu120 O141 2.488 . S
Eu120 O142 2.471 . S
Eu120 O143 2.349 . S
Eu121 O130 2.373 . S
Eu121 O134 2.488 1_556 S
Eu121 O135 2.471 1_556 S
Eu121 O136 2.349 . S
Eu121 O139 2.392 . S
Eu121 O140 2.418 . S
Eu121 C150 2.828 1_556 S
C122 O140 1.244 . S
C122 O143 1.265 . S
C123 C124 1.379 . S
C123 C127 1.373 . S
C123 C129 1.505 . S
C124 C123 1.379 . S
C124 C126 1.369 . S
C124 H152 0.930 . S
C125 C127 1.383 . S
C125 C128 1.382 . S
C125 H153 0.930 . S
C126 C124 1.369 . S
C126 C128 1.392 . S
C126 H154 0.930 . S
C127 C123 1.373 . S
C127 C125 1.383 . S
C127 H155 0.931 . S
C128 C125 1.382 . S
C128 C126 1.392 . S
C129 Eu120 2.828 . S
C129 C123 1.505 . S
C129 O141 1.249 . S
C129 O142 1.244 . S
O130 Eu121 2.373 . S
O130 C132 1.246 1_545 S
O131 Eu120 2.392 1_565 S
O131 C132 1.243 . S
C132 O130 1.246 1_565 S
C132 O131 1.243 . S
O133 Eu120 2.418 . S
O133 C137 1.244 . S
O134 Eu121 2.488 1_554 S
O134 C150 1.249 . S
O135 Eu121 2.471 1_554 S
O135 C150 1.244 . S
O136 Eu121 2.349 . S
O136 C137 1.265 . S
C137 O133 1.244 . S
C137 O136 1.265 . S
O138 Eu120 2.373 . S
O138 C151 1.258 . S
O139 Eu121 2.392 . S
O139 C151 1.242 . S
O140 Eu121 2.418 . S
O140 C122 1.244 . S
O141 Eu120 2.488 . S
O141 C129 1.249 . S
O142 Eu120 2.471 . S
O142 C129 1.244 . S
O143 Eu120 2.349 . S
O143 C122 1.265 . S
C144 C145 1.379 . S
C144 C148 1.373 . S
C144 C150 1.505 . S
C145 C144 1.379 . S
C145 C147 1.369 . S
C145 H156 0.930 . S
C146 C148 1.383 . S
C146 C149 1.382 . S
C146 H157 0.930 . S
C147 C145 1.369 . S
C147 C149 1.392 . S
C147 H158 0.930 . S
C148 C144 1.373 . S
C148 C146 1.383 . S
C148 H159 0.931 . S
C149 C146 1.382 . S
C149 C147 1.392 . S
C150 Eu121 2.828 1_554 S
C150 O134 1.249 . S
C150 O135 1.244 . S
C150 C144 1.505 . S
C151 O138 1.258 . S
C151 O139 1.242 . S
H152 C124 0.930 . S
H153 C125 0.930 . S
H154 C126 0.930 . S
H155 C127 0.931 . S
H156 C145 0.930 . S
H157 C146 0.930 . S
H158 C147 0.930 . S
H159 C148 0.931 . S
Eu160 C169 2.828 . S
Eu160 O171 2.392 . S
Eu160 O173 2.418 . S
Eu160 O178 2.373 . S
Eu160 O181 2.488 . S
Eu160 O182 2.471 . S
Eu160 O183 2.349 . S
Eu161 O170 2.373 . S
Eu161 O174 2.488 1_556 S
Eu161 O175 2.471 1_556 S
Eu161 O176 2.349 . S
Eu161 O179 2.392 . S
Eu161 O180 2.418 . S
Eu161 C190 2.828 1_556 S
C162 O180 1.244 . S
C162 O183 1.265 . S
C163 C164 1.379 . S
C163 C167 1.373 . S
C163 C169 1.505 . S
C164 C163 1.379 . S
C164 C166 1.369 . S
C164 H192 0.930 . S
C165 C167 1.383 . S
C165 C168 1.382 . S
C165 H193 0.930 . S
C166 C164 1.369 . S
C166 C168 1.392 . S
C166 H194 0.930 . S
C167 C163 1.373 . S
C167 C165 1.383 . S
C167 H195 0.931 . S
C168 C165 1.382 . S
C168 C166 1.392 . S
C169 Eu160 2.828 . S
C169 C163 1.505 . S
C169 O181 1.249 . S
C169 O182 1.244 . S
O170 Eu161 2.373 . S
O170 C172 1.258 . S
O171 Eu160 2.392 . S
O171 C172 1.242 . S
C172 O170 1.258 . S
C172 O171 1.242 . S
O173 Eu160 2.418 . S
O173 C177 1.244 . S
O174 Eu161 2.488 1_554 S
O174 C190 1.249 . S
O175 Eu161 2.471 1_554 S
O175 C190 1.244 . S
O176 Eu161 2.349 . S
O176 C177 1.265 . S
C177 O173 1.244 . S
C177 O176 1.265 . S
O178 Eu160 2.373 . S
O178 C191 1.258 . S
O179 Eu161 2.392 . S
O179 C191 1.242 . S
O180 Eu161 2.418 . S
O180 C162 1.244 . S
O181 Eu160 2.488 . S
O181 C169 1.249 . S
O182 Eu160 2.471 . S
O182 C169 1.244 . S
O183 Eu160 2.349 . S
O183 C162 1.265 . S
C184 C185 1.379 . S
C184 C188 1.373 . S
C184 C190 1.505 . S
C185 C184 1.379 . S
C185 C187 1.369 . S
C185 H196 0.930 . S
C186 C188 1.383 . S
C186 C189 1.382 . S
C186 H197 0.930 . S
C187 C185 1.369 . S
C187 C189 1.392 . S
C187 H198 0.930 . S
C188 C184 1.373 . S
C188 C186 1.383 . S
C188 H199 0.931 . S
C189 C186 1.382 . S
C189 C187 1.392 . S
C190 Eu161 2.828 1_554 S
C190 O174 1.249 . S
C190 O175 1.244 . S
C190 C184 1.505 . S
C191 O178 1.258 . S
C191 O179 1.242 . S
H192 C164 0.930 . S
H193 C165 0.930 . S
H194 C166 0.930 . S
H195 C167 0.931 . S
H196 C185 0.930 . S
H197 C186 0.930 . S
H198 C187 0.930 . S
H199 C188 0.931 . S
Eu200 C209 2.828 . S
Eu200 O211 2.392 1_565 S
Eu200 O213 2.418 . S
Eu200 O218 2.373 . S
Eu200 O221 2.488 . S
Eu200 O222 2.471 . S
Eu200 O223 2.349 . S
Eu201 O210 2.373 . S
Eu201 O214 2.488 1_554 S
Eu201 O215 2.471 1_554 S
Eu201 O216 2.349 . S
Eu201 O219 2.392 . S
Eu201 O220 2.418 . S
Eu201 C230 2.828 1_554 S
C202 O220 1.244 . S
C202 O223 1.265 . S
C203 C204 1.379 . S
C203 C207 1.373 . S
C203 C209 1.505 . S
C204 C203 1.379 . S
C204 C206 1.369 . S
C204 H232 0.930 . S
C205 C207 1.383 . S
C205 C208 1.382 . S
C205 H233 0.930 . S
C206 C204 1.369 . S
C206 C208 1.392 . S
C206 H234 0.930 . S
C207 C203 1.373 . S
C207 C205 1.383 . S
C207 H235 0.931 . S
C208 C205 1.382 . S
C208 C206 1.392 . S
C209 Eu200 2.828 . S
C209 C203 1.505 . S
C209 O221 1.249 . S
C209 O222 1.244 . S
O210 Eu201 2.373 . S
O210 C212 1.246 1_565 S
O211 Eu200 2.392 1_545 S
O211 C212 1.243 . S
C212 O210 1.246 1_545 S
C212 O211 1.243 . S
O213 Eu200 2.418 . S
O213 C217 1.244 . S
O214 Eu201 2.488 1_556 S
O214 C230 1.249 . S
O215 Eu201 2.471 1_556 S
O215 C230 1.244 . S
O216 Eu201 2.349 . S
O216 C217 1.265 . S
C217 O213 1.244 . S
C217 O216 1.265 . S
O218 Eu200 2.373 . S
O218 C231 1.258 . S
O219 Eu201 2.392 . S
O219 C231 1.242 . S
O220 Eu201 2.418 . S
O220 C202 1.244 . S
O221 Eu200 2.488 . S
O221 C209 1.249 . S
O222 Eu200 2.471 . S
O222 C209 1.244 . S
O223 Eu200 2.349 . S
O223 C202 1.265 . S
C224 C225 1.379 . S
C224 C228 1.373 . S
C224 C230 1.505 . S
C225 C224 1.379 . S
C225 C227 1.369 . S
C225 H236 0.930 . S
C226 C228 1.383 . S
C226 C229 1.382 . S
C226 H237 0.930 . S
C227 C225 1.369 . S
C227 C229 1.392 . S
C227 H238 0.930 . S
C228 C224 1.373 . S
C228 C226 1.383 . S
C228 H239 0.931 . S
C229 C226 1.382 . S
C229 C227 1.392 . S
C230 Eu201 2.828 1_556 S
C230 O214 1.249 . S
C230 O215 1.244 . S
C230 C224 1.505 . S
C231 O218 1.258 . S
C231 O219 1.242 . S
H232 C204 0.930 . S
H233 C205 0.930 . S
H234 C206 0.930 . S
H235 C207 0.931 . S
H236 C225 0.930 . S
H237 C226 0.930 . S
H238 C227 0.930 . S
H239 C228 0.931 . S
Eu240 C249 2.828 . S
Eu240 O251 2.392 . S
Eu240 O253 2.418 . S
Eu240 O258 2.373 . S
Eu240 O261 2.488 . S
Eu240 O262 2.471 . S
Eu240 O263 2.349 . S
Eu241 O250 2.373 . S
Eu241 O254 2.488 . S
Eu241 O255 2.471 . S
Eu241 O256 2.349 . S
Eu241 O259 2.392 . S
Eu241 O260 2.418 . S
Eu241 C270 2.828 . S
C242 O260 1.244 . S
C242 O263 1.265 . S
C243 C244 1.379 1_554 S
C243 C247 1.373 1_554 S
C243 C249 1.505 . S
C244 C243 1.379 1_556 S
C244 C246 1.369 . S
C244 H272 0.930 1_556 S
C245 C247 1.383 . S
C245 C248 1.382 . S
C245 H273 0.930 . S
C246 C244 1.369 . S
C246 C248 1.392 . S
C246 H274 0.930 . S
C247 C243 1.373 1_556 S
C247 C245 1.383 . S
C247 H275 0.931 . S
C248 C245 1.382 . S
C248 C246 1.392 . S
C249 Eu240 2.828 . S
C249 C243 1.505 . S
C249 O261 1.249 . S
C249 O262 1.244 . S
O250 Eu241 2.373 . S
O250 C252 1.258 . S
O251 Eu240 2.392 . S
O251 C252 1.242 . S
C252 O250 1.258 . S
C252 O251 1.242 . S
O253 Eu240 2.418 . S
O253 C257 1.244 . S
O254 Eu241 2.488 . S
O254 C270 1.249 . S
O255 Eu241 2.471 . S
O255 C270 1.244 . S
O256 Eu241 2.349 . S
O256 C257 1.265 . S
C257 O253 1.244 . S
C257 O256 1.265 . S
O258 Eu240 2.373 . S
O258 C271 1.258 . S
O259 Eu241 2.392 . S
O259 C271 1.242 . S
O260 Eu241 2.418 . S
O260 C242 1.244 . S
O261 Eu240 2.488 . S
O261 C249 1.249 . S
O262 Eu240 2.471 . S
O262 C249 1.244 . S
O263 Eu240 2.349 . S
O263 C242 1.265 . S
C264 C265 1.379 . S
C264 C268 1.373 . S
C264 C270 1.505 . S
C265 C264 1.379 . S
C265 C267 1.369 . S
C265 H276 0.930 . S
C266 C268 1.383 . S
C266 C269 1.382 . S
C266 H277 0.930 . S
C267 C265 1.369 . S
C267 C269 1.392 . S
C267 H278 0.930 . S
C268 C264 1.373 . S
C268 C266 1.383 . S
C268 H279 0.931 . S
C269 C266 1.382 . S
C269 C267 1.392 . S
C270 Eu241 2.828 . S
C270 O254 1.249 . S
C270 O255 1.244 . S
C270 C264 1.505 . S
C271 O258 1.258 . S
C271 O259 1.242 . S
H272 C244 0.930 1_554 S
H273 C245 0.930 . S
H274 C246 0.930 . S
H275 C247 0.931 . S
H276 C265 0.930 . S
H277 C266 0.930 . S
H278 C267 0.930 . S
H279 C268 0.931 . S
Eu280 C289 2.828 . S
Eu280 O291 2.392 1_545 S
Eu280 O293 2.418 . S
Eu280 O298 2.373 . S
Eu280 O301 2.488 . S
Eu280 O302 2.471 . S
Eu280 O303 2.349 . S
Eu281 O290 2.373 . S
Eu281 O294 2.488 . S
Eu281 O295 2.471 . S
Eu281 O296 2.349 . S
Eu281 O299 2.392 . S
Eu281 O300 2.418 . S
Eu281 C310 2.828 . S
C282 O300 1.244 . S
C282 O303 1.265 . S
C283 C284 1.379 1_556 S
C283 C287 1.373 1_556 S
C283 C289 1.505 . S
C284 C283 1.379 1_554 S
C284 C286 1.369 . S
C284 H312 0.930 1_554 S
C285 C287 1.383 . S
C285 C288 1.382 . S
C285 H313 0.930 . S
C286 C284 1.369 . S
C286 C288 1.392 . S
C286 H314 0.930 . S
C287 C283 1.373 1_554 S
C287 C285 1.383 . S
C287 H315 0.931 . S
C288 C285 1.382 . S
C288 C286 1.392 . S
C289 Eu280 2.828 . S
C289 C283 1.505 . S
C289 O301 1.249 . S
C289 O302 1.244 . S
O290 Eu281 2.373 . S
O290 C292 1.246 1_545 S
O291 Eu280 2.392 1_565 S
O291 C292 1.243 . S
C292 O290 1.246 1_565 S
C292 O291 1.243 . S
O293 Eu280 2.418 . S
O293 C297 1.244 . S
O294 Eu281 2.488 . S
O294 C310 1.249 . S
O295 Eu281 2.471 . S
O295 C310 1.244 . S
O296 Eu281 2.349 . S
O296 C297 1.265 . S
C297 O293 1.244 . S
C297 O296 1.265 . S
O298 Eu280 2.373 . S
O298 C311 1.258 . S
O299 Eu281 2.392 . S
O299 C311 1.242 . S
O300 Eu281 2.418 . S
O300 C282 1.244 . S
O301 Eu280 2.488 . S
O301 C289 1.249 . S
O302 Eu280 2.471 . S
O302 C289 1.244 . S
O303 Eu280 2.349 . S
O303 C282 1.265 . S
C304 C305 1.379 . S
C304 C308 1.373 . S
C304 C310 1.505 . S
C305 C304 1.379 . S
C305 C307 1.369 . S
C305 H316 0.930 . S
C306 C308 1.383 . S
C306 C309 1.382 . S
C306 H317 0.930 . S
C307 C305 1.369 . S
C307 C309 1.392 . S
C307 H318 0.930 . S
C308 C304 1.373 . S
C308 C306 1.383 . S
C308 H319 0.931 . S
C309 C306 1.382 . S
C309 C307 1.392 . S
C310 Eu281 2.828 . S
C310 O294 1.249 . S
C310 O295 1.244 . S
C310 C304 1.505 . S
C311 O298 1.258 . S
C311 O299 1.242 . S
H312 C284 0.930 1_556 S
H313 C285 0.930 . S
H314 C286 0.930 . S
H315 C287 0.931 . S
H316 C305 0.930 . S
H317 C306 0.930 . S
H318 C307 0.930 . S
H319 C308 0.931 . S
Eu320 C329 2.828 1_556 S
Eu320 O331 2.392 . S
Eu320 O333 2.418 . S
Eu320 O338 2.373 . S
Eu320 O341 2.488 1_556 S
Eu320 O342 2.471 1_556 S
Eu320 O343 2.349 . S
Eu321 O330 2.373 . S
Eu321 O334 2.488 . S
Eu321 O335 2.471 . S
Eu321 O336 2.349 . S
Eu321 O339 2.392 . S
Eu321 O340 2.418 . S
Eu321 C350 2.828 . S
C322 O340 1.244 . S
C322 O343 1.265 . S
C323 C324 1.379 . S
C323 C327 1.373 . S
C323 C329 1.505 . S
C324 C323 1.379 . S
C324 C326 1.369 . S
C324 H352 0.930 . S
C325 C327 1.383 . S
C325 C328 1.382 . S
C325 H353 0.930 . S
C326 C324 1.369 . S
C326 C328 1.392 . S
C326 H354 0.930 . S
C327 C323 1.373 . S
C327 C325 1.383 . S
C327 H355 0.931 . S
C328 C325 1.382 . S
C328 C326 1.392 . S
C329 Eu320 2.828 1_554 S
C329 C323 1.505 . S
C329 O341 1.249 . S
C329 O342 1.244 . S
O330 Eu321 2.373 . S
O330 C332 1.258 . S
O331 Eu320 2.392 . S
O331 C332 1.242 . S
C332 O330 1.258 . S
C332 O331 1.242 . S
O333 Eu320 2.418 . S
O333 C337 1.244 . S
O334 Eu321 2.488 . S
O334 C350 1.249 . S
O335 Eu321 2.471 . S
O335 C350 1.244 . S
O336 Eu321 2.349 . S
O336 C337 1.265 . S
C337 O333 1.244 . S
C337 O336 1.265 . S
O338 Eu320 2.373 . S
O338 C351 1.258 . S
O339 Eu321 2.392 . S
O339 C351 1.242 . S
O340 Eu321 2.418 . S
O340 C322 1.244 . S
O341 Eu320 2.488 1_554 S
O341 C329 1.249 . S
O342 Eu320 2.471 1_554 S
O342 C329 1.244 . S
O343 Eu320 2.349 . S
O343 C322 1.265 . S
C344 C345 1.379 . S
C344 C348 1.373 . S
C344 C350 1.505 . S
C345 C344 1.379 . S
C345 C347 1.369 . S
C345 H356 0.930 . S
C346 C348 1.383 . S
C346 C349 1.382 . S
C346 H357 0.930 . S
C347 C345 1.369 . S
C347 C349 1.392 . S
C347 H358 0.930 . S
C348 C344 1.373 . S
C348 C346 1.383 . S
C348 H359 0.931 . S
C349 C346 1.382 . S
C349 C347 1.392 . S
C350 Eu321 2.828 . S
C350 O334 1.249 . S
C350 O335 1.244 . S
C350 C344 1.505 . S
C351 O338 1.258 . S
C351 O339 1.242 . S
H352 C324 0.930 . S
H353 C325 0.930 . S
H354 C326 0.930 . S
H355 C327 0.931 . S
H356 C345 0.930 . S
H357 C346 0.930 . S
H358 C347 0.930 . S
H359 C348 0.931 . S
Eu360 C369 2.828 . S
Eu360 O371 2.392 . S
Eu360 O373 2.418 . S
Eu360 O378 2.373 . S
Eu360 O381 2.488 . S
Eu360 O382 2.471 . S
Eu360 O383 2.349 . S
Eu361 O370 2.373 . S
Eu361 O374 2.488 . S
Eu361 O375 2.471 . S
Eu361 O376 2.349 . S
Eu361 O379 2.392 1_545 S
Eu361 O380 2.418 . S
Eu361 C390 2.828 . S
C362 O380 1.244 . S
C362 O383 1.265 . S
C363 C364 1.379 . S
C363 C367 1.373 . S
C363 C369 1.505 . S
C364 C363 1.379 . S
C364 C366 1.369 . S
C364 H392 0.930 . S
C365 C367 1.383 . S
C365 C368 1.382 . S
C365 H393 0.930 . S
C366 C364 1.369 . S
C366 C368 1.392 . S
C366 H394 0.930 . S
C367 C363 1.373 . S
C367 C365 1.383 . S
C367 H395 0.931 . S
C368 C365 1.382 . S
C368 C366 1.392 . S
C369 Eu360 2.828 . S
C369 C363 1.505 . S
C369 O381 1.249 . S
C369 O382 1.244 . S
O370 Eu361 2.373 . S
O370 C372 1.258 . S
O371 Eu360 2.392 . S
O371 C372 1.242 . S
C372 O370 1.258 . S
C372 O371 1.242 . S
O373 Eu360 2.418 . S
O373 C377 1.244 . S
O374 Eu361 2.488 . S
O374 C390 1.249 . S
O375 Eu361 2.471 . S
O375 C390 1.244 . S
O376 Eu361 2.349 . S
O376 C377 1.265 . S
C377 O373 1.244 . S
C377 O376 1.265 . S
O378 Eu360 2.373 . S
O378 C391 1.246 1_545 S
O379 Eu361 2.392 1_565 S
O379 C391 1.243 . S
O380 Eu361 2.418 . S
O380 C362 1.244 . S
O381 Eu360 2.488 . S
O381 C369 1.249 . S
O382 Eu360 2.471 . S
O382 C369 1.244 . S
O383 Eu360 2.349 . S
O383 C362 1.265 . S
C384 C385 1.379 1_556 S
C384 C388 1.373 1_556 S
C384 C390 1.505 . S
C385 C384 1.379 1_554 S
C385 C387 1.369 . S
C385 H396 0.930 1_554 S
C386 C388 1.383 . S
C386 C389 1.382 . S
C386 H397 0.930 . S
C387 C385 1.369 . S
C387 C389 1.392 . S
C387 H398 0.930 . S
C388 C384 1.373 1_554 S
C388 C386 1.383 . S
C388 H399 0.931 . S
C389 C386 1.382 . S
C389 C387 1.392 . S
C390 Eu361 2.828 . S
C390 O374 1.249 . S
C390 O375 1.244 . S
C390 C384 1.505 . S
C391 O378 1.246 1_565 S
C391 O379 1.243 . S
H392 C364 0.930 . S
H393 C365 0.930 . S
H394 C366 0.930 . S
H395 C367 0.931 . S
H396 C385 0.930 1_556 S
H397 C386 0.930 . S
H398 C387 0.930 . S
H399 C388 0.931 . S
Eu400 C409 2.828 . S
Eu400 O411 2.392 . S
Eu400 O413 2.418 . S
Eu400 O418 2.373 . S
Eu400 O421 2.488 . S
Eu400 O422 2.471 . S
Eu400 O423 2.349 . S
Eu401 O410 2.373 . S
Eu401 O414 2.488 . S
Eu401 O415 2.471 . S
Eu401 O416 2.349 . S
Eu401 O419 2.392 . S
Eu401 O420 2.418 . S
Eu401 C430 2.828 . S
C402 O420 1.244 . S
C402 O423 1.265 . S
C403 C404 1.379 . S
C403 C407 1.373 . S
C403 C409 1.505 . S
C404 C403 1.379 . S
C404 C406 1.369 . S
C404 H432 0.930 . S
C405 C407 1.383 . S
C405 C408 1.382 . S
C405 H433 0.930 . S
C406 C404 1.369 . S
C406 C408 1.392 . S
C406 H434 0.930 . S
C407 C403 1.373 . S
C407 C405 1.383 . S
C407 H435 0.931 . S
C408 C405 1.382 . S
C408 C406 1.392 . S
C409 Eu400 2.828 . S
C409 C403 1.505 . S
C409 O421 1.249 . S
C409 O422 1.244 . S
O410 Eu401 2.373 . S
O410 C412 1.258 . S
O411 Eu400 2.392 . S
O411 C412 1.242 . S
C412 O410 1.258 . S
C412 O411 1.242 . S
O413 Eu400 2.418 . S
O413 C417 1.244 . S
O414 Eu401 2.488 . S
O414 C430 1.249 . S
O415 Eu401 2.471 . S
O415 C430 1.244 . S
O416 Eu401 2.349 . S
O416 C417 1.265 . S
C417 O413 1.244 . S
C417 O416 1.265 . S
O418 Eu400 2.373 . S
O418 C431 1.258 . S
O419 Eu401 2.392 . S
O419 C431 1.242 . S
O420 Eu401 2.418 . S
O420 C402 1.244 . S
O421 Eu400 2.488 . S
O421 C409 1.249 . S
O422 Eu400 2.471 . S
O422 C409 1.244 . S
O423 Eu400 2.349 . S
O423 C402 1.265 . S
C424 C425 1.379 1_554 S
C424 C428 1.373 1_554 S
C424 C430 1.505 . S
C425 C424 1.379 1_556 S
C425 C427 1.369 . S
C425 H436 0.930 1_556 S
C426 C428 1.383 . S
C426 C429 1.382 . S
C426 H437 0.930 . S
C427 C425 1.369 . S
C427 C429 1.392 . S
C427 H438 0.930 . S
C428 C424 1.373 1_556 S
C428 C426 1.383 . S
C428 H439 0.931 . S
C429 C426 1.382 . S
C429 C427 1.392 . S
C430 Eu401 2.828 . S
C430 O414 1.249 . S
C430 O415 1.244 . S
C430 C424 1.505 . S
C431 O418 1.258 . S
C431 O419 1.242 . S
H432 C404 0.930 . S
H433 C405 0.930 . S
H434 C406 0.930 . S
H435 C407 0.931 . S
H436 C425 0.930 1_554 S
H437 C426 0.930 . S
H438 C427 0.930 . S
H439 C428 0.931 . S
Eu440 C449 2.828 1_554 S
Eu440 O451 2.392 . S
Eu440 O453 2.418 . S
Eu440 O458 2.373 . S
Eu440 O461 2.488 1_554 S
Eu440 O462 2.471 1_554 S
Eu440 O463 2.349 . S
Eu441 O450 2.373 . S
Eu441 O454 2.488 . S
Eu441 O455 2.471 . S
Eu441 O456 2.349 . S
Eu441 O459 2.392 1_565 S
Eu441 O460 2.418 . S
Eu441 C470 2.828 . S
C442 O460 1.244 . S
C442 O463 1.265 . S
C443 C444 1.379 . S
C443 C447 1.373 . S
C443 C449 1.505 . S
C444 C443 1.379 . S
C444 C446 1.369 . S
C444 H472 0.930 . S
C445 C447 1.383 . S
C445 C448 1.382 . S
C445 H473 0.930 . S
C446 C444 1.369 . S
C446 C448 1.392 . S
C446 H474 0.930 . S
C447 C443 1.373 . S
C447 C445 1.383 . S
C447 H475 0.931 . S
C448 C445 1.382 . S
C448 C446 1.392 . S
C449 Eu440 2.828 1_556 S
C449 C443 1.505 . S
C449 O461 1.249 . S
C449 O462 1.244 . S
O450 Eu441 2.373 . S
O450 C452 1.258 . S
O451 Eu440 2.392 . S
O451 C452 1.242 . S
C452 O450 1.258 . S
C452 O451 1.242 . S
O453 Eu440 2.418 . S
O453 C457 1.244 . S
O454 Eu441 2.488 . S
O454 C470 1.249 . S
O455 Eu441 2.471 . S
O455 C470 1.244 . S
O456 Eu441 2.349 . S
O456 C457 1.265 . S
C457 O453 1.244 . S
C457 O456 1.265 . S
O458 Eu440 2.373 . S
O458 C471 1.246 1_565 S
O459 Eu441 2.392 1_545 S
O459 C471 1.243 . S
O460 Eu441 2.418 . S
O460 C442 1.244 . S
O461 Eu440 2.488 1_556 S
O461 C449 1.249 . S
O462 Eu440 2.471 1_556 S
O462 C449 1.244 . S
O463 Eu440 2.349 . S
O463 C442 1.265 . S
C464 C465 1.379 . S
C464 C468 1.373 . S
C464 C470 1.505 . S
C465 C464 1.379 . S
C465 C467 1.369 . S
C465 H476 0.930 . S
C466 C468 1.383 . S
C466 C469 1.382 . S
C466 H477 0.930 . S
C467 C465 1.369 . S
C467 C469 1.392 . S
C467 H478 0.930 . S
C468 C464 1.373 . S
C468 C466 1.383 . S
C468 H479 0.931 . S
C469 C466 1.382 . S
C469 C467 1.392 . S
C470 Eu441 2.828 . S
C470 O454 1.249 . S
C470 O455 1.244 . S
C470 C464 1.505 . S
C471 O458 1.246 1_545 S
C471 O459 1.243 . S
H472 C444 0.930 . S
H473 C445 0.930 . S
H474 C446 0.930 . S
H475 C447 0.931 . S
H476 C465 0.930 . S
H477 C466 0.930 . S
H478 C467 0.930 . S
H479 C468 0.931 . S
Eu480 C489 2.828 1_554 S
Eu480 O491 2.392 . S
Eu480 O493 2.418 . S
Eu480 O498 2.373 . S
Eu480 O501 2.488 1_554 S
Eu480 O502 2.471 1_554 S
Eu480 O503 2.349 . S
Eu481 O490 2.373 . S
Eu481 O494 2.488 . S
Eu481 O495 2.471 . S
Eu481 O496 2.349 . S
Eu481 O499 2.392 . S
Eu481 O500 2.418 . S
Eu481 C510 2.828 . S
C482 O500 1.244 . S
C482 O503 1.265 . S
C483 C484 1.379 . S
C483 C487 1.373 . S
C483 C489 1.505 . S
C484 C483 1.379 . S
C484 C486 1.369 . S
C484 H512 0.930 . S
C485 C487 1.383 . S
C485 C488 1.382 . S
C485 H513 0.930 . S
C486 C484 1.369 . S
C486 C488 1.392 . S
C486 H514 0.930 . S
C487 C483 1.373 . S
C487 C485 1.383 . S
C487 H515 0.931 . S
C488 C485 1.382 . S
C488 C486 1.392 . S
C489 Eu480 2.828 1_556 S
C489 C483 1.505 . S
C489 O501 1.249 . S
C489 O502 1.244 . S
O490 Eu481 2.373 . S
O490 C492 1.258 . S
O491 Eu480 2.392 . S
O491 C492 1.242 . S
C492 O490 1.258 . S
C492 O491 1.242 . S
O493 Eu480 2.418 . S
O493 C497 1.244 . S
O494 Eu481 2.488 . S
O494 C510 1.249 . S
O495 Eu481 2.471 . S
O495 C510 1.244 . S
O496 Eu481 2.349 . S
O496 C497 1.265 . S
C497 O493 1.244 . S
C497 O496 1.265 . S
O498 Eu480 2.373 . S
O498 C511 1.258 . S
O499 Eu481 2.392 . S
O499 C511 1.242 . S
O500 Eu481 2.418 . S
O500 C482 1.244 . S
O501 Eu480 2.488 1_556 S
O501 C489 1.249 . S
O502 Eu480 2.471 1_556 S
O502 C489 1.244 . S
O503 Eu480 2.349 . S
O503 C482 1.265 . S
C504 C505 1.379 . S
C504 C508 1.373 . S
C504 C510 1.505 . S
C505 C504 1.379 . S
C505 C507 1.369 . S
C505 H516 0.930 . S
C506 C508 1.383 . S
C506 C509 1.382 . S
C506 H517 0.930 . S
C507 C505 1.369 . S
C507 C509 1.392 . S
C507 H518 0.930 . S
C508 C504 1.373 . S
C508 C506 1.383 . S
C508 H519 0.931 . S
C509 C506 1.382 . S
C509 C507 1.392 . S
C510 Eu481 2.828 . S
C510 O494 1.249 . S
C510 O495 1.244 . S
C510 C504 1.505 . S
C511 O498 1.258 . S
C511 O499 1.242 . S
H512 C484 0.930 . S
H513 C485 0.930 . S
H514 C486 0.930 . S
H515 C487 0.931 . S
H516 C505 0.930 . S
H517 C506 0.930 . S
H518 C507 0.930 . S
H519 C508 0.931 . S
Eu520 C529 2.828 1_556 S
Eu520 O531 2.392 . S
Eu520 O533 2.418 . S
Eu520 O538 2.373 . S
Eu520 O541 2.488 1_556 S
Eu520 O542 2.471 1_556 S
Eu520 O543 2.349 . S
Eu521 O530 2.373 . S
Eu521 O534 2.488 . S
Eu521 O535 2.471 . S
Eu521 O536 2.349 . S
Eu521 O539 2.392 1_545 S
Eu521 O540 2.418 . S
Eu521 C550 2.828 . S
C522 O540 1.244 . S
C522 O543 1.265 . S
C523 C524 1.379 . S
C523 C527 1.373 . S
C523 C529 1.505 . S
C524 C523 1.379 . S
C524 C526 1.369 . S
C524 H552 0.930 . S
C525 C527 1.383 . S
C525 C528 1.382 . S
C525 H553 0.930 . S
C526 C524 1.369 . S
C526 C528 1.392 . S
C526 H554 0.930 . S
C527 C523 1.373 . S
C527 C525 1.383 . S
C527 H555 0.931 . S
C528 C525 1.382 . S
C528 C526 1.392 . S
C529 Eu520 2.828 1_554 S
C529 C523 1.505 . S
C529 O541 1.249 . S
C529 O542 1.244 . S
O530 Eu521 2.373 . S
O530 C532 1.258 . S
O531 Eu520 2.392 . S
O531 C532 1.242 . S
C532 O530 1.258 . S
C532 O531 1.242 . S
O533 Eu520 2.418 . S
O533 C537 1.244 . S
O534 Eu521 2.488 . S
O534 C550 1.249 . S
O535 Eu521 2.471 . S
O535 C550 1.244 . S
O536 Eu521 2.349 . S
O536 C537 1.265 . S
C537 O533 1.244 . S
C537 O536 1.265 . S
O538 Eu520 2.373 . S
O538 C551 1.246 1_545 S
O539 Eu521 2.392 1_565 S
O539 C551 1.243 . S
O540 Eu521 2.418 . S
O540 C522 1.244 . S
O541 Eu520 2.488 1_554 S
O541 C529 1.249 . S
O542 Eu520 2.471 1_554 S
O542 C529 1.244 . S
O543 Eu520 2.349 . S
O543 C522 1.265 . S
C544 C545 1.379 . S
C544 C548 1.373 . S
C544 C550 1.505 . S
C545 C544 1.379 . S
C545 C547 1.369 . S
C545 H556 0.930 . S
C546 C548 1.383 . S
C546 C549 1.382 . S
C546 H557 0.930 . S
C547 C545 1.369 . S
C547 C549 1.392 . S
C547 H558 0.930 . S
C548 C544 1.373 . S
C548 C546 1.383 . S
C548 H559 0.931 . S
C549 C546 1.382 . S
C549 C547 1.392 . S
C550 Eu521 2.828 . S
C550 O534 1.249 . S
C550 O535 1.244 . S
C550 C544 1.505 . S
C551 O538 1.246 1_565 S
C551 O539 1.243 . S
H552 C524 0.930 . S
H553 C525 0.930 . S
H554 C526 0.930 . S
H555 C527 0.931 . S
H556 C545 0.930 . S
H557 C546 0.930 . S
H558 C547 0.930 . S
H559 C548 0.931 . S
Eu560 C569 2.828 . S
Eu560 O571 2.392 . S
Eu560 O573 2.418 . S
Eu560 O578 2.373 . S
Eu560 O581 2.488 . S
Eu560 O582 2.471 . S
Eu560 O583 2.349 . S
Eu561 O570 2.373 . S
Eu561 O574 2.488 . S
Eu561 O575 2.471 . S
Eu561 O576 2.349 . S
Eu561 O579 2.392 . S
Eu561 O580 2.418 . S
Eu561 C590 2.828 . S
C562 O580 1.244 . S
C562 O583 1.265 . S
C563 C564 1.379 . S
C563 C567 1.373 . S
C563 C569 1.505 . S
C564 C563 1.379 . S
C564 C566 1.369 . S
C564 H592 0.930 . S
C565 C567 1.383 . S
C565 C568 1.382 . S
C565 H593 0.930 . S
C566 C564 1.369 . S
C566 C568 1.392 . S
C566 H594 0.930 . S
C567 C563 1.373 . S
C567 C565 1.383 . S
C567 H595 0.931 . S
C568 C565 1.382 . S
C568 C566 1.392 . S
C569 Eu560 2.828 . S
C569 C563 1.505 . S
C569 O581 1.249 . S
C569 O582 1.244 . S
O570 Eu561 2.373 . S
O570 C572 1.258 . S
O571 Eu560 2.392 . S
O571 C572 1.242 . S
C572 O570 1.258 . S
C572 O571 1.242 . S
O573 Eu560 2.418 . S
O573 C577 1.244 . S
O574 Eu561 2.488 . S
O574 C590 1.249 . S
O575 Eu561 2.471 . S
O575 C590 1.244 . S
O576 Eu561 2.349 . S
O576 C577 1.265 . S
C577 O573 1.244 . S
C577 O576 1.265 . S
O578 Eu560 2.373 . S
O578 C591 1.258 . S
O579 Eu561 2.392 . S
O579 C591 1.242 . S
O580 Eu561 2.418 . S
O580 C562 1.244 . S
O581 Eu560 2.488 . S
O581 C569 1.249 . S
O582 Eu560 2.471 . S
O582 C569 1.244 . S
O583 Eu560 2.349 . S
O583 C562 1.265 . S
C584 C585 1.379 1_556 S
C584 C588 1.373 1_556 S
C584 C590 1.505 . S
C585 C584 1.379 1_554 S
C585 C587 1.369 . S
C585 H596 0.930 1_554 S
C586 C588 1.383 . S
C586 C589 1.382 . S
C586 H597 0.930 . S
C587 C585 1.369 . S
C587 C589 1.392 . S
C587 H598 0.930 . S
C588 C584 1.373 1_554 S
C588 C586 1.383 . S
C588 H599 0.931 . S
C589 C586 1.382 . S
C589 C587 1.392 . S
C590 Eu561 2.828 . S
C590 O574 1.249 . S
C590 O575 1.244 . S
C590 C584 1.505 . S
C591 O578 1.258 . S
C591 O579 1.242 . S
H592 C564 0.930 . S
H593 C565 0.930 . S
H594 C566 0.930 . S
H595 C567 0.931 . S
H596 C585 0.930 1_556 S
H597 C586 0.930 . S
H598 C587 0.930 . S
H599 C588 0.931 . S
Eu600 C609 2.828 . S
Eu600 O611 2.392 . S
Eu600 O613 2.418 . S
Eu600 O618 2.373 . S
Eu600 O621 2.488 . S
Eu600 O622 2.471 . S
Eu600 O623 2.349 . S
Eu601 O610 2.373 . S
Eu601 O614 2.488 . S
Eu601 O615 2.471 . S
Eu601 O616 2.349 . S
Eu601 O619 2.392 1_565 S
Eu601 O620 2.418 . S
Eu601 C630 2.828 . S
C602 O620 1.244 . S
C602 O623 1.265 . S
C603 C604 1.379 . S
C603 C607 1.373 . S
C603 C609 1.505 . S
C604 C603 1.379 . S
C604 C606 1.369 . S
C604 H632 0.930 . S
C605 C607 1.383 . S
C605 C608 1.382 . S
C605 H633 0.930 . S
C606 C604 1.369 . S
C606 C608 1.392 . S
C606 H634 0.930 . S
C607 C603 1.373 . S
C607 C605 1.383 . S
C607 H635 0.931 . S
C608 C605 1.382 . S
C608 C606 1.392 . S
C609 Eu600 2.828 . S
C609 C603 1.505 . S
C609 O621 1.249 . S
C609 O622 1.244 . S
O610 Eu601 2.373 . S
O610 C612 1.258 . S
O611 Eu600 2.392 . S
O611 C612 1.242 . S
C612 O610 1.258 . S
C612 O611 1.242 . S
O613 Eu600 2.418 . S
O613 C617 1.244 . S
O614 Eu601 2.488 . S
O614 C630 1.249 . S
O615 Eu601 2.471 . S
O615 C630 1.244 . S
O616 Eu601 2.349 . S
O616 C617 1.265 . S
C617 O613 1.244 . S
C617 O616 1.265 . S
O618 Eu600 2.373 . S
O618 C631 1.246 1_565 S
O619 Eu601 2.392 1_545 S
O619 C631 1.243 . S
O620 Eu601 2.418 . S
O620 C602 1.244 . S
O621 Eu600 2.488 . S
O621 C609 1.249 . S
O622 Eu600 2.471 . S
O622 C609 1.244 . S
O623 Eu600 2.349 . S
O623 C602 1.265 . S
C624 C625 1.379 1_554 S
C624 C628 1.373 1_554 S
C624 C630 1.505 . S
C625 C624 1.379 1_556 S
C625 C627 1.369 . S
C625 H636 0.930 1_556 S
C626 C628 1.383 . S
C626 C629 1.382 . S
C626 H637 0.930 . S
C627 C625 1.369 . S
C627 C629 1.392 . S
C627 H638 0.930 . S
C628 C624 1.373 1_556 S
C628 C626 1.383 . S
C628 H639 0.931 . S
C629 C626 1.382 . S
C629 C627 1.392 . S
C630 Eu601 2.828 . S
C630 O614 1.249 . S
C630 O615 1.244 . S
C630 C624 1.505 . S
C631 O618 1.246 1_545 S
C631 O619 1.243 . S
H632 C604 0.930 . S
H633 C605 0.930 . S
H634 C606 0.930 . S
H635 C607 0.931 . S
H636 C625 0.930 1_554 S
H637 C626 0.930 . S
H638 C627 0.930 . S
H639 C628 0.931 . S
C29 C8 1.740 . S
C48 C69 1.740 . S
C109 C88 1.740 . S
C128 C149 1.740 . S
C189 C168 1.740 . S
C229 C208 1.740 . S
C269 C248 1.740 . S
C288 C309 1.740 . S
C328 C349 1.740 . S
C368 C389 1.740 . S
C429 C408 1.740 . S
C469 C448 1.740 . S
C488 C509 1.740 . S
C549 C528 1.740 . S
C568 C589 1.740 . S
C629 C608 1.740 . S
C31 C452 2.547 . S
C57 C602 1.449 . S
C111 C372 2.547 . S
C137 C522 1.449 1_655 S
C191 C532 2.547 . S
C442 C217 1.449 1_455 S
C271 C612 2.547 . S
C297 C362 1.449 . S
C151 C332 2.547 . S
C71 C412 2.547 . S
C492 C231 2.547 . S
C311 C572 2.547 . S
C322 C177 1.449 1_655 S
C257 C402 1.449 . S
C97 C562 1.449 . S
C17 C482 1.449 1_455 S
C12 C172 3.419 1_554 S
C42 C202 2.818 . S
C92 C252 3.419 . S
C122 C282 2.818 . S
C511 C351 3.419 1_554 S
C537 C377 2.818 . S
C431 C591 3.419 . S
C617 C457 2.818 . S
C52 C292 3.419 1_545 S
C162 C82 2.818 . S
C212 C132 3.419 1_544 S
C2 C242 2.818 . S
C631 C391 3.419 1_545 S
C497 C417 2.818 . S
C551 C471 3.419 1_566 S
C577 C337 2.818 . S
