# Generated by pormake.
# Topology mok, (4)-cn, num edge types: 1
# Building blocks:
#     Node 0, Type 0, BuildingBlock: NAHDIM_clean_sbu_0, # of connection points: 4
#     Node 1, Type 0, BuildingBlock: NAHDIM_clean_sbu_0, # of connection points: 4
#     Node 2, Type 0, BuildingBlock: NAHDIM_clean_sbu_0, # of connection points: 4
#     Node 3, Type 0, BuildingBlock: NAHDIM_clean_sbu_0, # of connection points: 4
#     Node 4, Type 0, BuildingBlock: NAHDIM_clean_sbu_0, # of connection points: 4
#     Node 5, Type 0, BuildingBlock: NAHDIM_clean_sbu_0, # of connection points: 4
#     Node 6, Type 0, BuildingBlock: NAHDIM_clean_sbu_0, # of connection points: 4
#     Node 7, Type 0, BuildingBlock: NAHDIM_clean_sbu_0, # of connection points: 4
#     Edge 8, Type (0, 0), BuildingBlock: ZUJKAS_clean_linker_0, # of connection points: 2
#     Edge 9, Type (0, 0), BuildingBlock: ZUJKAS_clean_linker_0, # of connection points: 2
#     Edge 10, Type (0, 0), BuildingBlock: ZUJKAS_clean_linker_0, # of connection points: 2
#     Edge 11, Type (0, 0), BuildingBlock: ZUJKAS_clean_linker_0, # of connection points: 2
#     Edge 12, Type (0, 0), BuildingBlock: ZUJKAS_clean_linker_0, # of connection points: 2
#     Edge 13, Type (0, 0), BuildingBlock: ZUJKAS_clean_linker_0, # of connection points: 2
#     Edge 14, Type (0, 0), BuildingBlock: ZUJKAS_clean_linker_0, # of connection points: 2
#     Edge 15, Type (0, 0), BuildingBlock: ZUJKAS_clean_linker_0, # of connection points: 2
#     Edge 16, Type (0, 0), BuildingBlock: ZUJKAS_clean_linker_0, # of connection points: 2
#     Edge 17, Type (0, 0), BuildingBlock: ZUJKAS_clean_linker_0, # of connection points: 2
#     Edge 18, Type (0, 0), BuildingBlock: ZUJKAS_clean_linker_0, # of connection points: 2
#     Edge 19, Type (0, 0), BuildingBlock: ZUJKAS_clean_linker_0, # of connection points: 2
#     Edge 20, Type (0, 0), BuildingBlock: ZUJKAS_clean_linker_0, # of connection points: 2
#     Edge 21, Type (0, 0), BuildingBlock: ZUJKAS_clean_linker_0, # of connection points: 2
#     Edge 22, Type (0, 0), BuildingBlock: ZUJKAS_clean_linker_0, # of connection points: 2
#     Edge 23, Type (0, 0), BuildingBlock: ZUJKAS_clean_linker_0, # of connection points: 2
# Relax obj value: 0.052
# Max RMSD: 0.062
# Mean RMSD: 0.062
data_MOF--net-mok--node1-NAHDIM_clean_sbu_0--edge1-ZUJKAS_clean_linker_0
_symmetry_space_group_name_H-M    P1
_symmetry_Int_Tables_number       1
_symmetry_cell_setting            triclinic
loop_
_symmetry_equiv_pos_as_xyz
'x, y, z'
_cell_length_a     64.472238
_cell_length_b     25.940374
_cell_length_c     32.663558
_cell_angle_alpha  89.951223
_cell_angle_beta   89.976395
_cell_angle_gamma 89.963279
loop_
_atom_site_label
_atom_site_type_symbol
_atom_site_fract_x
_atom_site_fract_y
_atom_site_fract_z
_atom_type_partial_charge
C0 C 0.56221 0.22266 0.98378 0.0
O1 O 0.55744 0.25639 0.95528 0.0
O2 O 0.58554 0.33835 0.95468 0.0
Zn3 Zn 0.59345 0.29817 0.00495 0.0
O4 O 0.58819 0.3395 0.05589 0.0
C5 C 0.63714 0.31573 0.01087 0.0
O6 O 0.63069 0.3613 0.02293 0.0
O7 O 0.57707 0.23227 0.00814 0.0
C8 C 0.59242 0.31917 0.09028 0.0
O9 O 0.59968 0.27185 0.09124 0.0
C10 C 0.58454 0.38724 0.95378 0.0
O11 O 0.58858 0.41354 0.98719 0.0
O12 O 0.62385 0.28157 0.0015 0.0
C13 C 0.43787 0.76613 0.02196 0.0
O14 O 0.44403 0.72681 0.04423 0.0
O15 O 0.41307 0.65475 0.95205 0.0
Zn16 Zn 0.40461 0.69698 0.00076 0.0
O17 O 0.40892 0.65772 0.0532 0.0
C18 C 0.36092 0.67934 0.0035 0.0
O19 O 0.36733 0.63359 0.01528 0.0
O20 O 0.42131 0.76229 0.00111 0.0
C21 C 0.40136 0.67609 0.08603 0.0
O22 O 0.39145 0.72034 0.08464 0.0
C23 C 0.41268 0.6058 0.95199 0.0
O24 O 0.40711 0.5812 0.98541 0.0
O25 O 0.37427 0.71391 0.99532 0.0
C26 C 0.56138 0.77215 0.49085 0.0
O27 O 0.55414 0.72706 0.47948 0.0
O28 O 0.59253 0.67598 0.56008 0.0
Zn29 Zn 0.59785 0.71208 0.50662 0.0
O30 O 0.59186 0.66581 0.4586 0.0
C31 C 0.64143 0.70014 0.51788 0.0
O32 O 0.63515 0.65548 0.53222 0.0
O33 O 0.57998 0.77545 0.50342 0.0
C34 C 0.59505 0.61747 0.45948 0.0
O35 O 0.60207 0.59613 0.49322 0.0
C36 C 0.57645 0.6497 0.56844 0.0
O37 O 0.56181 0.64473 0.54079 0.0
O38 O 0.62803 0.73213 0.50482 0.0
C39 C 0.43188 0.22258 0.50089 0.0
O40 O 0.44033 0.26798 0.50709 0.0
O41 O 0.40322 0.31819 0.55762 0.0
Zn42 Zn 0.39566 0.28421 0.50432 0.0
O43 O 0.40146 0.33087 0.45661 0.0
C44 C 0.35617 0.2554 0.53834 0.0
O45 O 0.3673 0.24999 0.57175 0.0
O46 O 0.41227 0.21925 0.49828 0.0
C47 C 0.39103 0.37205 0.45206 0.0
O48 O 0.37689 0.38402 0.47943 0.0
C49 C 0.41427 0.35846 0.56134 0.0
O50 O 0.42183 0.38086 0.52849 0.0
O51 O 0.36511 0.26852 0.50525 0.0
C52 C 0.06309 0.72292 0.01056 0.0
O53 O 0.05536 0.76877 0.01825 0.0
O54 O 0.09298 0.81948 0.94381 0.0
Zn55 Zn 0.0995 0.78288 0.99653 0.0
O56 O 0.09374 0.82795 0.04531 0.0
C57 C 0.14297 0.79141 0.97822 0.0
O58 O 0.13654 0.83224 0.95808 0.0
O59 O 0.08207 0.71903 0.00049 0.0
C60 C 0.10155 0.87271 0.04854 0.0
O61 O 0.11313 0.89069 0.01869 0.0
C62 C 0.07903 0.85368 0.93958 0.0
O63 O 0.06762 0.86682 0.97123 0.0
O64 O 0.12979 0.76355 0.99692 0.0
C65 C 0.935 0.2705 0.01842 0.0
O66 O 0.94326 0.22484 0.01229 0.0
O67 O 0.90716 0.17414 0.96401 0.0
Zn68 Zn 0.89814 0.21063 0.01548 0.0
O69 O 0.90267 0.16571 0.06516 0.0
C70 C 0.85527 0.20524 0.98952 0.0
O71 O 0.86199 0.16494 0.9691 0.0
O72 O 0.91541 0.2744 0.02128 0.0
C73 C 0.88841 0.13675 0.07907 0.0
O74 O 0.87038 0.13562 0.06043 0.0
C75 C 0.90879 0.12544 0.96134 0.0
O76 O 0.90448 0.09676 0.99338 0.0
O77 O 0.86797 0.23088 0.01122 0.0
C78 C 0.07122 0.28757 0.53196 0.0
O79 O 0.07571 0.26672 0.56754 0.0
O80 O 0.08446 0.15789 0.54962 0.0
Zn81 Zn 0.0943 0.20074 0.50209 0.0
O82 O 0.09052 0.16132 0.44942 0.0
C83 C 0.13387 0.2172 0.54337 0.0
O84 O 0.12327 0.20735 0.57683 0.0
O85 O 0.07771 0.26616 0.49941 0.0
C86 C 0.10582 0.13821 0.43307 0.0
O87 O 0.12398 0.13968 0.45123 0.0
C88 C 0.09174 0.11311 0.55602 0.0
O89 O 0.10554 0.09423 0.53051 0.0
O90 O 0.12459 0.21775 0.50906 0.0
C91 C 0.94002 0.73502 0.51103 0.0
O92 O 0.94767 0.78058 0.502 0.0
O93 O 0.90926 0.83395 0.57264 0.0
Zn94 Zn 0.90319 0.7947 0.5211 0.0
O95 O 0.90873 0.83832 0.47148 0.0
C96 C 0.85984 0.81099 0.51418 0.0
O97 O 0.8665 0.85803 0.50714 0.0
O98 O 0.9209 0.73118 0.51995 0.0
C99 C 0.90577 0.81925 0.43617 0.0
O100 O 0.89981 0.77097 0.43311 0.0
C101 C 0.91947 0.8758 0.57362 0.0
O102 O 0.92671 0.8953 0.53935 0.0
O103 O 0.87299 0.77556 0.52123 0.0
H104 H 0.82354 0.15181 0.95394 0.0
H105 H 0.7865 0.1723 0.95583 0.0
H106 H 0.79943 0.30889 0.02644 0.0
H107 H 0.83652 0.28884 0.02477 0.0
H108 H 0.76218 0.18604 0.03033 0.0
H109 H 0.76206 0.35899 0.92958 0.0
H110 H 0.78288 0.31231 0.92932 0.0
H111 H 0.78101 0.3586 0.96998 0.0
C112 C 0.81855 0.18644 0.96962 0.0
C113 C 0.83298 0.21874 0.98918 0.0
C114 C 0.79739 0.198 0.97069 0.0
C115 C 0.79032 0.2423 0.99092 0.0
C116 C 0.80465 0.27489 0.01018 0.0
H117 H 0.66937 0.37679 0.03527 0.0
H118 H 0.70646 0.35785 0.03097 0.0
C119 C 0.82581 0.26323 0.00933 0.0
C120 C 0.76785 0.25325 0.99334 0.0
H121 H 0.73065 0.33899 0.96351 0.0
C122 C 0.75522 0.21932 0.01562 0.0
C123 C 0.75895 0.29687 0.97427 0.0
C124 C 0.77184 0.33371 0.94914 0.0
C125 C 0.73387 0.22832 0.01994 0.0
C126 C 0.7249 0.27177 0.00058 0.0
C127 C 0.73757 0.3057 0.97828 0.0
C128 C 0.70239 0.28284 0.0032 0.0
C129 C 0.72126 0.19195 0.04605 0.0
C130 C 0.68782 0.24718 0.98856 0.0
C131 C 0.6666 0.25771 0.99123 0.0
C132 C 0.65959 0.30443 0.00812 0.0
C133 C 0.67425 0.34041 0.02217 0.0
C134 C 0.69545 0.3297 0.0197 0.0
H135 H 0.7312 0.16982 0.06759 0.0
H136 H 0.70936 0.21314 0.06397 0.0
H137 H 0.7132 0.1639 0.02597 0.0
H138 H 0.69285 0.21131 0.97482 0.0
H139 H 0.65572 0.22938 0.97978 0.0
H140 H 0.16143 0.70655 0.01241 0.0
H141 H 0.1986 0.68741 0.01625 0.0
H142 H 0.21221 0.82862 0.95199 0.0
H143 H 0.17517 0.84819 0.94795 0.0
H144 H 0.22792 0.68004 0.94753 0.0
H145 H 0.24767 0.83406 0.05925 0.0
H146 H 0.2215 0.81092 0.0521 0.0
H147 H 0.23284 0.8541 0.01542 0.0
C148 C 0.17233 0.73356 -0.0009 0.0
C149 C 0.16535 0.77899 0.98 0.0
C150 C 0.19352 0.72252 0.0013 0.0
C151 C 0.20807 0.75693 0.98483 0.0
C152 C 0.20119 0.80198 0.96537 0.0
H153 H 0.34239 0.76751 0.9754 0.0
H154 H 0.30522 0.78517 0.96962 0.0
C155 C 0.18001 0.81294 0.96295 0.0
C156 C 0.23049 0.74553 0.98759 0.0
H157 H 0.27566 0.78767 0.0304 0.0
C158 C 0.23839 0.70336 0.96574 0.0
C159 C 0.24402 0.7763 0.01124 0.0
C160 C 0.23614 0.82119 0.03615 0.0
C161 C 0.25964 0.69158 0.96635 0.0
C162 C 0.27319 0.72216 0.99024 0.0
C163 C 0.26524 0.76434 0.0121 0.0
C164 C 0.29567 0.71091 0.99321 0.0
C165 C 0.26744 0.64729 0.94065 0.0
C166 C 0.30259 0.66354 0.00884 0.0
C167 C 0.3238 0.65324 0.012 0.0
C168 C 0.33848 0.69037 1e-05 0.0
C169 C 0.33149 0.73806 0.98483 0.0
C170 C 0.31027 0.74823 0.98152 0.0
H171 H 0.25638 0.63739 0.9158 0.0
H172 H 0.28272 0.65642 0.92673 0.0
H173 H 0.26932 0.61274 0.96035 0.0
H174 H 0.29159 0.63468 0.01896 0.0
H175 H 0.32866 0.61628 0.02413 0.0
H176 H 0.82809 0.87677 0.49567 0.0
H177 H 0.79088 0.85847 0.4965 0.0
H178 H 0.80342 0.7018 0.53312 0.0
H179 H 0.84069 0.71968 0.53257 0.0
H180 H 0.76911 0.78036 0.45094 0.0
H181 H 0.7613 0.75585 0.61932 0.0
H182 H 0.78334 0.78731 0.59606 0.0
H183 H 0.78143 0.71824 0.59568 0.0
C184 C 0.82296 0.83842 0.50401 0.0
C185 C 0.83735 0.79973 0.51425 0.0
C186 C 0.8017 0.82807 0.5044 0.0
C187 C 0.79445 0.77903 0.51536 0.0
C188 C 0.80873 0.74014 0.5252 0.0
H189 H 0.67373 0.63821 0.5403 0.0
H190 H 0.71072 0.65831 0.53838 0.0
C191 C 0.83001 0.75038 0.52469 0.0
C192 C 0.77192 0.76836 0.51591 0.0
H193 H 0.73188 0.73553 0.57909 0.0
C194 C 0.7609 0.77077 0.47893 0.0
C195 C 0.76137 0.75584 0.55251 0.0
C196 C 0.77237 0.7545 0.59327 0.0
C197 C 0.7396 0.75986 0.47743 0.0
C198 C 0.72902 0.74731 0.51406 0.0
C199 C 0.74005 0.74515 0.55106 0.0
C200 C 0.70655 0.73551 0.51466 0.0
C201 C 0.72873 0.76055 0.43652 0.0
C202 C 0.69193 0.77251 0.50234 0.0
C203 C 0.67074 0.76109 0.50325 0.0
C204 C 0.66382 0.7126 0.51685 0.0
C205 C 0.67852 0.67589 0.52959 0.0
C206 C 0.69968 0.6873 0.52856 0.0
H207 H 0.73989 0.75764 0.41069 0.0
H208 H 0.71743 0.72839 0.43414 0.0
H209 H 0.72012 0.79736 0.43318 0.0
H210 H 0.69689 0.81036 0.49234 0.0
H211 H 0.6598 0.79033 0.49349 0.0
H212 H 0.16011 0.23896 0.47996 0.0
H213 H 0.1979 0.24568 0.48203 0.0
H214 H 0.19706 0.21799 0.61219 0.0
H215 H 0.1592 0.21082 0.61049 0.0
H216 H 0.22316 0.31392 0.52904 0.0
H217 H 0.23751 0.10784 0.56679 0.0
H218 H 0.2129 0.13069 0.54762 0.0
H219 H 0.21986 0.14118 0.60018 0.0
C220 C 0.16792 0.23443 0.5091 0.0
C221 C 0.15664 0.2241 0.54506 0.0
C222 C 0.18951 0.23829 0.51018 0.0
C223 C 0.20024 0.23158 0.54713 0.0
C224 C 0.18905 0.2224 0.58325 0.0
H225 H 0.33204 0.23151 0.60461 0.0
H226 H 0.29417 0.22648 0.60749 0.0
C227 C 0.16742 0.21863 0.58224 0.0
C228 C 0.22316 0.23432 0.54766 0.0
H229 H 0.26678 0.16254 0.56421 0.0
C230 C 0.23273 0.28088 0.53671 0.0
C231 C 0.23553 0.19109 0.55778 0.0
C232 C 0.22601 0.13968 0.56846 0.0
C233 C 0.2544 0.28552 0.53586 0.0
C234 C 0.26678 0.24211 0.54543 0.0
C235 C 0.25721 0.19569 0.55683 0.0
C236 C 0.28971 0.24398 0.54333 0.0
C237 C 0.26385 0.33707 0.52532 0.0
C238 C 0.29973 0.25438 0.50609 0.0
C239 C 0.32134 0.25731 0.50432 0.0
C240 C 0.33335 0.24956 0.53974 0.0
C241 C 0.32326 0.23783 0.57679 0.0
C242 C 0.30163 0.23494 0.57852 0.0
H243 H 0.25261 0.36909 0.52959 0.0
H244 H 0.27776 0.34481 0.5444 0.0
H245 H 0.26871 0.3369 0.49272 0.0
H246 H 0.29081 0.26035 0.47839 0.0
H247 H 0.32861 0.26612 0.47524 0.0
H248 H 0.60083 0.28754 0.16834 0.0
H249 H 0.59843 0.3382 0.23119 0.0
H250 H 0.5763 0.46876 0.16198 0.0
H251 H 0.57889 0.41859 0.09878 0.0
H252 H 0.60889 0.49185 0.21504 0.0
H253 H 0.54698 0.38315 0.29556 0.0
H254 H 0.5681 0.34382 0.27795 0.0
H255 H 0.55184 0.37629 0.24138 0.0
C256 C 0.59527 0.32689 0.16647 0.0
C257 C 0.59002 0.34902 0.12855 0.0
C258 C 0.59378 0.35566 0.20248 0.0
C259 C 0.58689 0.40694 0.20127 0.0
C260 C 0.58153 0.42909 0.16354 0.0
H261 H 0.58003 0.64928 0.38535 0.0
H262 H 0.57693 0.59859 0.3226 0.0
C263 C 0.58301 0.40036 0.12749 0.0
C264 C 0.58645 0.43835 0.23906 0.0
H265 H 0.56563 0.4448 0.33506 0.0
C266 C 0.5993 0.48189 0.24117 0.0
C267 C 0.57398 0.42502 0.27309 0.0
C268 C 0.55929 0.37979 0.2719 0.0
C269 C 0.60042 0.51183 0.27683 0.0
C270 C 0.58806 0.4983 0.31098 0.0
C271 C 0.57508 0.45499 0.30879 0.0
C272 C 0.58873 0.5282 0.34951 0.0
C273 C 0.61527 0.55676 0.27806 0.0
C274 C 0.59569 0.50487 0.38573 0.0
C275 C 0.59737 0.53361 0.42174 0.0
C276 C 0.59204 0.58618 0.42212 0.0
C277 C 0.58444 0.609 0.38602 0.0
C278 C 0.58274 0.58018 0.35008 0.0
H279 H 0.62709 0.55438 0.25337 0.0
H280 H 0.60647 0.59315 0.27387 0.0
H281 H 0.62336 0.55868 0.30803 0.0
H282 H 0.60028 0.46467 0.38591 0.0
H283 H 0.6032 0.51483 0.44904 0.0
H284 H 0.38372 0.70021 0.15959 0.0
H285 H 0.38468 0.64987 0.22276 0.0
H286 H 0.42333 0.53619 0.16386 0.0
H287 H 0.42213 0.58581 0.10018 0.0
H288 H 0.39048 0.49345 0.20438 0.0
H289 H 0.431 0.63211 0.30558 0.0
H290 H 0.40862 0.65914 0.28095 0.0
H291 H 0.43048 0.63911 0.25059 0.0
C292 C 0.3926 0.66475 0.16014 0.0
C293 C 0.40287 0.64703 0.12487 0.0
C294 C 0.39324 0.63621 0.19638 0.0
C295 C 0.40436 0.58975 0.1982 0.0
C296 C 0.41477 0.57214 0.16315 0.0
H297 H 0.4173 0.35508 0.38768 0.0
H298 H 0.42151 0.40797 0.3262 0.0
C299 C 0.41407 0.60055 0.12681 0.0
C300 C 0.40407 0.55802 0.23591 0.0
H301 H 0.41449 0.5607 0.33839 0.0
C302 C 0.39593 0.50794 0.23361 0.0
C303 C 0.41116 0.57711 0.27399 0.0
C304 C 0.42099 0.62963 0.27796 0.0
C305 C 0.39417 0.47687 0.26859 0.0
C306 C 0.40094 0.49628 0.30672 0.0
C307 C 0.40927 0.54612 0.30904 0.0
C308 C 0.39912 0.46557 0.34468 0.0
C309 C 0.38456 0.42406 0.26473 0.0
C310 C 0.38552 0.48125 0.37576 0.0
C311 C 0.38306 0.45117 0.41094 0.0
C312 C 0.39429 0.40508 0.4157 0.0
C313 C 0.40833 0.39023 0.38488 0.0
C314 C 0.41072 0.42026 0.34968 0.0
H315 H 0.37635 0.41907 0.2351 0.0
H316 H 0.39693 0.3944 0.26668 0.0
H317 H 0.37342 0.41697 0.29006 0.0
H318 H 0.37651 0.51627 0.37243 0.0
H319 H 0.3722 0.46381 0.43417 0.0
H320 H 0.42551 0.64496 0.8785 0.0
H321 H 0.42916 0.59887 0.81361 0.0
H322 H 0.41289 0.45639 0.87354 0.0
H323 H 0.40909 0.50207 0.93865 0.0
H324 H 0.45425 0.50774 0.7916 0.0
H325 H 0.36897 0.47778 0.78048 0.0
H326 H 0.38037 0.52467 0.81452 0.0
H327 H 0.38095 0.45742 0.82751 0.0
C328 C 0.42287 0.60373 0.87801 0.0
C329 C 0.41679 0.57724 0.91366 0.0
C330 C 0.42503 0.5775 0.84094 0.0
C331 C 0.42105 0.52448 0.83883 0.0
C332 C 0.41579 0.4975 0.87458 0.0
H333 H 0.40487 0.31545 0.63526 0.0
H334 H 0.4087 0.35407 0.70294 0.0
C335 C 0.41368 0.52365 0.91174 0.0
C336 C 0.4213 0.49802 0.79881 0.0
H337 H 0.3896 0.4408 0.7288 0.0
C338 C 0.44017 0.49295 0.77778 0.0
C339 C 0.40285 0.47908 0.78101 0.0
C340 C 0.38207 0.48522 0.80176 0.0
C341 C 0.44111 0.46855 0.73944 0.0
C342 C 0.42261 0.44985 0.72151 0.0
C343 C 0.40377 0.45498 0.74269 0.0
C344 C 0.4222 0.42512 0.68066 0.0
C345 C 0.46192 0.46221 0.71891 0.0
C346 C 0.42862 0.45218 0.64563 0.0
C347 C 0.42656 0.43005 0.60682 0.0
C348 C 0.41778 0.38077 0.60238 0.0
C349 C 0.41163 0.35355 0.63759 0.0
C350 C 0.41383 0.37552 0.67632 0.0
H351 H 0.47486 0.46492 0.74127 0.0
H352 H 0.46299 0.4246 0.70283 0.0
H353 H 0.464 0.49336 0.69598 0.0
H354 H 0.43465 0.49099 0.64817 0.0
H355 H 0.43133 0.45211 0.58027 0.0
H356 H 0.57499 0.34393 0.87993 0.0
H357 H 0.57019 0.38791 0.81442 0.0
H358 H 0.57931 0.53476 0.87344 0.0
H359 H 0.58396 0.4912 0.93934 0.0
H360 H 0.54588 0.53174 0.81436 0.0
H361 H 0.62024 0.45363 0.75417 0.0
H362 H 0.6023 0.40641 0.77332 0.0
H363 H 0.6137 0.45216 0.80788 0.0
C364 C 0.57585 0.38562 0.87911 0.0
C365 C 0.5801 0.41407 0.91478 0.0
C366 C 0.57313 0.41062 0.84163 0.0
C367 C 0.5747 0.46442 0.83911 0.0
C368 C 0.57811 0.49313 0.87484 0.0
H369 H 0.60389 0.6538 0.63186 0.0
H370 H 0.60176 0.60932 0.69752 0.0
C371 C 0.58082 0.46817 0.9124 0.0
C372 C 0.57381 0.49059 0.79893 0.0
H373 H 0.59992 0.5029 0.70861 0.0
C374 C 0.55763 0.52544 0.79112 0.0
C375 C 0.58931 0.4825 0.76898 0.0
C376 C 0.60749 0.447 0.77644 0.0
C377 C 0.55654 0.55252 0.75391 0.0
C378 C 0.57196 0.54402 0.72384 0.0
C379 C 0.58808 0.50906 0.7317 0.0
C380 C 0.57234 0.5727 0.68468 0.0
C381 C 0.53926 0.59091 0.74748 0.0
C382 C 0.55647 0.56678 0.65569 0.0
C383 C 0.55761 0.59229 0.61798 0.0
C384 C 0.57472 0.62383 0.60867 0.0
C385 C 0.59049 0.62981 0.63799 0.0
C386 C 0.58932 0.60442 0.67556 0.0
H387 H 0.53137 0.60094 0.77665 0.0
H388 H 0.54526 0.62682 0.73324 0.0
H389 H 0.52756 0.5741 0.72648 0.0
H390 H 0.54341 0.54172 0.6619 0.0
H391 H 0.54524 0.58674 0.596 0.0
H392 H 0.12007 0.96371 0.06937 0.0
H393 H 0.11783 0.00902 0.13482 0.0
H394 H 0.07448 0.8954 0.1792 0.0
H395 H 0.0769 0.84922 0.11413 0.0
H396 H 0.08469 0.05189 0.17738 0.0
H397 H 0.12075 0.89112 0.26455 0.0
H398 H 0.12091 0.89373 0.20936 0.0
H399 H 0.09796 0.87358 0.23622 0.0
C400 C 0.10997 0.94847 0.09295 0.0
C401 C 0.09885 0.90253 0.08673 0.0
C402 C 0.10869 0.97446 0.1303 0.0
C403 C 0.09629 0.95502 0.16205 0.0
C404 C 0.0845 0.91039 0.15537 0.0
H405 H 0.07018 0.12309 0.38893 0.0
H406 H 0.06662 0.07838 0.32331 0.0
C407 C 0.08583 0.88421 0.1181 0.0
C408 C 0.09625 0.98071 0.20249 0.0
H409 H 0.10901 0.96256 0.30287 0.0
C410 C 0.08993 0.0324 0.20489 0.0
C411 C 0.10336 0.95525 0.23816 0.0
C412 C 0.11132 0.90052 0.23707 0.0
C413 C 0.09058 0.05945 0.24208 0.0
C414 C 0.09741 0.03374 0.27783 0.0
C415 C 0.10363 0.98199 0.27543 0.0
C416 C 0.09928 0.06045 0.31769 0.0
C417 C 0.08459 0.1157 0.2425 0.0
C418 C 0.11872 0.06395 0.33674 0.0
C419 C 0.12078 0.08895 0.37432 0.0
C420 C 0.10341 0.11091 0.39363 0.0
C421 C 0.08388 0.10687 0.3747 0.0
C422 C 0.08183 0.08162 0.33711 0.0
H423 H 0.08448 0.13253 0.21121 0.0
H424 H 0.06876 0.11969 0.25548 0.0
H425 H 0.0954 0.13836 0.26186 0.0
H426 H 0.13237 0.04767 0.32231 0.0
H427 H 0.13604 0.09131 0.38806 0.0
H428 H 0.899 0.79153 0.35658 0.0
H429 H 0.89941 0.84733 0.29628 0.0
H430 H 0.91688 0.9766 0.37168 0.0
H431 H 0.91628 0.92125 0.43231 0.0
H432 H 0.88328 0.99662 0.32144 0.0
H433 H 0.94793 0.91046 0.23274 0.0
H434 H 0.92877 0.86444 0.24877 0.0
H435 H 0.94402 0.89763 0.28655 0.0
C436 C 0.90317 0.83169 0.36031 0.0
C437 C 0.90758 0.85197 0.39925 0.0
C438 C 0.90353 0.86344 0.32576 0.0
C439 C 0.90844 0.91591 0.32948 0.0
C440 C 0.91317 0.93611 0.36818 0.0
H441 H 0.92396 0.12891 0.12456 0.0
H442 H 0.92947 0.07697 0.18626 0.0
C443 C 0.91282 0.90441 0.40276 0.0
C444 C 0.90715 0.95042 0.29347 0.0
H445 H 0.92578 0.96884 0.19671 0.0
C446 C 0.89269 0.99085 0.29429 0.0
C447 C 0.91961 0.94308 0.2583 0.0
C448 C 0.9361 0.90187 0.25654 0.0
C449 C 0.88991 0.02327 0.26037 0.0
C450 C 0.90169 0.01446 0.22454 0.0
C451 C 0.91662 0.97507 0.22412 0.0
C452 C 0.89845 0.04526 0.18696 0.0
C453 C 0.87441 0.06675 0.26322 0.0
C454 C 0.87929 0.04391 0.16669 0.0
C455 C 0.87607 0.07348 0.13153 0.0
C456 C 0.89202 0.10478 0.11589 0.0
C457 C 0.91133 0.10538 0.13593 0.0
C458 C 0.91453 0.07571 0.17111 0.0
H459 H 0.87082 0.07666 0.29555 0.0
H460 H 0.88025 0.10181 0.24746 0.0
H461 H 0.85974 0.05487 0.24818 0.0
H462 H 0.86681 0.01987 0.17805 0.0
H463 H 0.86106 0.07187 0.11672 0.0
H464 H 0.90925 0.84172 0.65007 0.0
H465 H 0.91235 0.88832 0.71472 0.0
H466 H 0.93941 0.01768 0.65133 0.0
H467 H 0.93638 0.97136 0.58622 0.0
H468 H 0.94988 0.93601 0.75226 0.0
H469 H 0.88662 0.07409 0.71323 0.0
H470 H 0.88974 0.01337 0.68693 0.0
H471 H 0.90712 0.06569 0.6764 0.0
C472 C 0.91595 0.87999 0.64979 0.0
C473 C 0.92242 0.90302 0.61294 0.0
C474 C 0.91778 0.90643 0.68679 0.0
C475 C 0.92594 0.95645 0.68759 0.0
C476 C 0.9329 0.97919 0.65113 0.0
H477 H 0.92182 0.1734 0.89136 0.0
H478 H 0.92907 0.13387 0.82496 0.0
C479 C 0.93118 0.95265 0.61404 0.0
C480 C 0.92635 0.98524 0.72656 0.0
H481 H 0.90188 0.08198 0.77812 0.0
C482 C 0.93953 0.96821 0.75794 0.0
C483 C 0.91287 0.02726 0.73359 0.0
C484 C 0.89815 0.04625 0.70097 0.0
C485 C 0.93942 0.99191 0.79655 0.0
C486 C 0.92538 0.03276 0.8041 0.0
C487 C 0.91262 0.05063 0.77227 0.0
C488 C 0.92282 0.05597 0.84522 0.0
C489 C 0.95439 0.97309 0.82876 0.0
C490 C 0.91691 0.02527 0.87865 0.0
C491 C 0.91286 0.04768 0.91669 0.0
C492 C 0.91435 0.10134 0.92183 0.0
C493 C 0.92048 0.13195 0.88839 0.0
C494 C 0.92466 0.10945 0.85044 0.0
H495 H 0.96819 0.95447 0.81471 0.0
H496 H 0.95969 0.00514 0.84868 0.0
H497 H 0.94656 0.9439 0.84821 0.0
H498 H 0.91485 0.98409 0.87507 0.0
H499 H 0.90804 0.02307 0.94175 0.0
H500 H 0.09953 0.83324 0.86834 0.0
H501 H 0.09627 0.87805 0.80295 0.0
H502 H 0.04913 0.97681 0.85414 0.0
H503 H 0.05236 0.93235 0.9201 0.0
H504 H 0.06014 0.89308 0.75216 0.0
H505 H 0.09409 0.07684 0.80933 0.0
H506 H 0.0967 0.01682 0.83686 0.0
H507 H 0.07251 0.05108 0.83761 0.0
C508 C 0.08841 0.86439 0.86578 0.0
C509 C 0.0763 0.87948 0.89954 0.0
C510 C 0.08654 0.88983 0.82833 0.0
C511 C 0.07263 0.93099 0.82392 0.0
C512 C 0.06015 0.94551 0.85718 0.0
H513 H 0.06447 0.14239 0.61587 0.0
H514 H 0.05667 0.09722 0.67982 0.0
C515 C 0.06198 0.91997 0.89475 0.0
C516 C 0.07174 0.95924 0.78464 0.0
H517 H 0.08487 0.07349 0.73983 0.0
C518 C 0.06537 0.93267 0.74943 0.0
C519 C 0.07851 0.01089 0.78135 0.0
C520 C 0.08599 0.04071 0.81815 0.0
C521 C 0.06591 0.95622 0.71075 0.0
C522 C 0.07343 0.00724 0.70724 0.0
C523 C 0.07914 0.03435 0.74265 0.0
C524 C 0.07672 0.03229 0.66701 0.0
C525 C 0.05848 0.92622 0.67403 0.0
C526 C 0.09057 0.01071 0.63863 0.0
C527 C 0.09504 0.03634 0.60206 0.0
C528 C 0.08588 0.08429 0.59337 0.0
C529 C 0.07177 0.10548 0.62161 0.0
C530 C 0.06729 0.07976 0.65816 0.0
H531 H 0.04745 0.89534 0.68305 0.0
H532 H 0.0508 0.95184 0.65138 0.0
H533 H 0.07197 0.9076 0.65897 0.0
H534 H 0.0984 0.97471 0.64528 0.0
H535 H 0.10605 0.01908 0.58108 0.0
H536 H 0.47167 0.79111 0.06841 0.0
H537 H 0.49267 0.86948 0.06439 0.0
H538 H 0.45386 0.92625 0.96671 0.0
H539 H 0.43252 0.84873 0.97112 0.0
H540 H 0.51513 0.90593 -0.00046 0.0
H541 H 0.45502 0.04828 0.04382 0.0
H542 H 0.45164 0.97982 0.05107 0.0
H543 H 0.44736 0.00845 0.00158 0.0
C544 C 0.46751 0.82045 0.04628 0.0
C545 C 0.45037 0.81384 0.02022 0.0
C546 C 0.47953 0.86517 0.04402 0.0
C547 C 0.47461 0.90402 0.01572 0.0
C548 C 0.45761 0.89734 0.98948 0.0
H549 H 0.52979 0.1902 0.93653 0.0
H550 H 0.50929 0.11159 0.94469 0.0
C551 C 0.4455 0.85285 0.99189 0.0
C552 C 0.48774 0.95064 0.01251 0.0
H553 H 0.48628 0.08212 0.01558 0.0
C554 C 0.50888 0.94446 0.00337 0.0
C555 C 0.47952 0.00082 0.01755 0.0
C556 C 0.45719 0.00985 0.02945 0.0
C557 C 0.52192 0.98723 -0.0019 0.0
C558 C 0.51361 0.03734 0.00252 0.0
C559 C 0.49254 0.04355 0.01202 0.0
C560 C 0.52647 0.084 0.99719 0.0
C561 C 0.54436 0.97854 0.98685 0.0
C562 C 0.54284 0.09449 0.02418 0.0
C563 C 0.5546 0.13933 0.01962 0.0
C564 C 0.5501 0.17458 0.98809 0.0
C565 C 0.53367 0.16386 0.96111 0.0
C566 C 0.52193 0.11902 0.96572 0.0
H567 H 0.54714 0.9387 0.97564 0.0
H568 H 0.5494 0.00622 0.96289 0.0
H569 H 0.55418 0.98472 0.0143 0.0
H570 H 0.54634 0.06831 0.0491 0.0
H571 H 0.56708 0.14657 0.04104 0.0
H572 H 0.57195 0.87171 0.50885 0.0
H573 H 0.54932 0.94749 0.50865 0.0
H574 H 0.49786 0.85307 0.47039 0.0
H575 H 0.52029 0.77698 0.47062 0.0
H576 H 0.52498 0.98751 0.44108 0.0
H577 H 0.47686 0.9291 0.57467 0.0
H578 H 0.50185 0.90062 0.56395 0.0
H579 H 0.4795 0.88181 0.53479 0.0
C580 C 0.55581 0.867 0.50041 0.0
C581 C 0.54789 0.81827 0.48993 0.0
C582 C 0.54294 0.91034 0.50027 0.0
C583 C 0.52192 0.90562 0.49 0.0
C584 C 0.514 0.85725 0.479 0.0
H585 H 0.4196 0.1237 0.48463 0.0
H586 H 0.44151 0.04687 0.47977 0.0
C587 C 0.52686 0.8139 0.47899 0.0
C588 C 0.50831 0.95148 0.49051 0.0
H589 H 0.46665 0.00446 0.53934 0.0
C590 C 0.51223 0.99137 0.46256 0.0
C591 C 0.49169 0.95607 0.5185 0.0
C592 C 0.48723 0.91488 0.54995 0.0
C593 C 0.49978 0.03573 0.46156 0.0
C594 C 0.48329 0.04063 0.48988 0.0
C595 C 0.4793 0.00053 0.51765 0.0
C596 C 0.47018 0.08744 0.49174 0.0
C597 C 0.50418 0.07649 0.42972 0.0
C598 C 0.47904 0.13556 0.50048 0.0
C599 C 0.46661 0.17952 0.50313 0.0
C600 C 0.44503 0.17605 0.4975 0.0
C601 C 0.43617 0.12769 0.48905 0.0
C602 C 0.44865 0.08376 0.48628 0.0
H603 H 0.51318 0.06067 0.40358 0.0
H604 H 0.48957 0.09353 0.41781 0.0
H605 H 0.51348 0.10777 0.44379 0.0
H606 H 0.49557 0.13903 0.50577 0.0
H607 H 0.4739 0.2161 0.50998 0.0
H608 H 0.07434 0.62257 0.99751 0.0
H609 H 0.05217 0.54618 0.00085 0.0
H610 H -8e-05 0.64158 0.03342 0.0
H611 H 0.02188 0.71828 0.02983 0.0
H612 H 0.02821 0.50941 0.06851 0.0
H613 H 0.97934 0.5581 0.93372 0.0
H614 H 0.00393 0.589 0.94354 0.0
H615 H 0.98125 0.60776 0.97184 0.0
C616 C 0.05812 0.62736 0.00531 0.0
C617 C 0.04984 0.67654 0.01317 0.0
C618 C 0.04551 0.58367 0.00727 0.0
C619 C 0.02439 0.58843 0.01684 0.0
C620 C 0.01612 0.6373 0.02528 0.0
H621 H 0.92294 0.36987 0.03316 0.0
H622 H 0.94485 0.44674 0.03522 0.0
C623 C 0.02872 0.68102 0.02338 0.0
C624 C 0.01105 0.54214 0.01828 0.0
H625 H 0.96933 0.48534 0.97266 0.0
C626 C 0.01536 0.50399 0.04754 0.0
C627 C 0.9943 0.53544 0.9909 0.0
C628 C 0.98946 0.57447 0.95796 0.0
C629 C 0.00313 0.45941 0.05051 0.0
C630 C 0.98645 0.45254 0.02294 0.0
C631 C 0.98212 0.49083 0.99379 0.0
C632 C 0.97343 0.4056 0.02335 0.0
C633 C 0.00794 0.42057 0.08359 0.0
C634 C 0.98225 0.35708 0.01576 0.0
C635 C 0.96979 0.31306 0.01468 0.0
C636 C 0.94826 0.31688 0.0208 0.0
C637 C 0.93947 0.3656 0.02837 0.0
C638 C 0.95196 0.40956 0.02954 0.0
H639 H 0.01724 0.43787 0.10869 0.0
H640 H 0.99349 0.40424 0.09679 0.0
H641 H 0.01709 0.38847 0.07024 0.0
H642 H -0.00128 0.35335 0.01 0.0
H643 H 0.97702 0.27618 0.00852 0.0
H644 H 0.05141 0.33686 0.59474 0.0
H645 H 0.02904 0.41283 0.59047 0.0
H646 H 0.0397 0.42116 0.46027 0.0
H647 H 0.06175 0.34463 0.46406 0.0
H648 H 0.03763 0.51105 0.5644 0.0
H649 H 0.97673 0.42248 0.46732 0.0
H650 H 0.99655 0.3849 0.49247 0.0
H651 H 0.00227 0.41861 0.44567 0.0
C652 C 0.04898 0.35479 0.56517 0.0
C653 C 0.05823 0.33448 0.52969 0.0
C654 C 0.0362 0.3982 0.56281 0.0
C655 C 0.03243 0.42204 0.52496 0.0
C656 C 0.04202 0.40259 0.48963 0.0
H657 H 0.98097 0.72889 0.4898 0.0
H658 H 0.00352 0.65316 0.49301 0.0
C659 C 0.05471 0.35903 0.49191 0.0
C660 C 0.01865 0.46762 0.52258 0.0
H661 H 0.9744 0.51292 0.47787 0.0
C662 C 0.02377 0.51148 0.54557 0.0
C663 C 0.00044 0.46773 0.49843 0.0
C664 C 0.99352 0.42076 0.47487 0.0
C665 C 0.01129 0.55579 0.54466 0.0
C666 C 0.99346 0.5565 0.51942 0.0
C667 C 0.9882 0.51241 0.49685 0.0
C668 C 0.97978 0.60223 0.51667 0.0
C669 C 0.01707 0.60099 0.57137 0.0
C670 C 0.95881 0.59827 0.52768 0.0
C671 C 0.94583 0.6413 0.52547 0.0
C672 C 0.9536 0.6891 0.51215 0.0
C673 C 0.97455 0.69273 0.5005 0.0
C674 C 0.9875 0.64959 0.50255 0.0
H675 H 0.02767 0.58937 0.59656 0.0
H676 H 0.02517 0.63034 0.55251 0.0
H677 H 0.00307 0.61918 0.58492 0.0
H678 H 0.95254 0.56196 0.53844 0.0
H679 H 0.92977 0.63716 0.5346 0.0
loop_
_geom_bond_atom_site_label_1
_geom_bond_atom_site_label_2
_geom_bond_distance
_geom_bond_site_symmetry_2
_ccdc_geom_bond_type
C0 O1 1.160 1_554 S
C0 O7 1.185 . S
O1 C0 1.160 1_556 S
O2 Zn3 1.899 1_556 S
O2 C10 1.284 . S
Zn3 O2 1.899 1_554 S
Zn3 O4 2.032 . S
Zn3 O7 2.086 . S
Zn3 O12 1.977 . S
O4 Zn3 2.032 . S
O4 C8 1.278 . S
C5 O6 1.203 1_554 S
C5 O12 1.267 . S
O6 C5 1.203 1_556 S
O7 C0 1.185 . S
O7 Zn3 2.086 . S
C8 O4 1.278 . S
C8 O9 1.211 . S
O9 C8 1.211 . S
C10 O2 1.284 . S
C10 O11 1.273 . S
O11 C10 1.273 . S
O12 Zn3 1.977 . S
O12 C5 1.267 . S
C13 O14 1.160 1_554 S
C13 O20 1.185 . S
O14 C13 1.160 1_556 S
O15 Zn16 1.899 1_556 S
O15 C23 1.284 . S
Zn16 O15 1.899 1_554 S
Zn16 O17 2.032 . S
Zn16 O20 2.086 . S
Zn16 O25 1.977 . S
O17 Zn16 2.032 . S
O17 C21 1.278 . S
C18 O19 1.203 1_554 S
C18 O25 1.267 . S
O19 C18 1.203 1_556 S
O20 C13 1.185 . S
O20 Zn16 2.086 . S
C21 O17 1.278 . S
C21 O22 1.211 . S
O22 C21 1.211 . S
C23 O15 1.284 . S
C23 O24 1.273 . S
O24 C23 1.273 . S
O25 Zn16 1.977 . S
O25 C18 1.267 . S
C26 O27 1.160 . S
C26 O33 1.185 . S
O27 C26 1.160 . S
O28 Zn29 1.899 . S
O28 C36 1.284 . S
Zn29 O28 1.899 . S
Zn29 O30 2.032 . S
Zn29 O33 2.086 . S
Zn29 O38 1.977 . S
O30 Zn29 2.032 . S
O30 C34 1.278 . S
C31 O32 1.203 . S
C31 O38 1.267 . S
O32 C31 1.203 . S
O33 C26 1.185 . S
O33 Zn29 2.086 . S
C34 O30 1.278 . S
C34 O35 1.211 . S
O35 C34 1.211 . S
C36 O28 1.284 . S
C36 O37 1.273 . S
O37 C36 1.273 . S
O38 Zn29 1.977 . S
O38 C31 1.267 . S
C39 O40 1.160 . S
C39 O46 1.185 . S
O40 C39 1.160 . S
O41 Zn42 1.899 . S
O41 C49 1.284 . S
Zn42 O41 1.899 . S
Zn42 O43 2.032 . S
Zn42 O46 2.086 . S
Zn42 O51 1.977 . S
O43 Zn42 2.032 . S
O43 C47 1.278 . S
C44 O45 1.203 . S
C44 O51 1.267 . S
O45 C44 1.203 . S
O46 C39 1.185 . S
O46 Zn42 2.086 . S
C47 O43 1.278 . S
C47 O48 1.211 . S
O48 C47 1.211 . S
C49 O41 1.284 . S
C49 O50 1.273 . S
O50 C49 1.273 . S
O51 Zn42 1.977 . S
O51 C44 1.267 . S
C52 O53 1.160 1_554 S
C52 O59 1.185 . S
O53 C52 1.160 1_556 S
O54 Zn55 1.899 1_556 S
O54 C62 1.284 . S
Zn55 O54 1.899 1_554 S
Zn55 O56 2.032 . S
Zn55 O59 2.086 . S
Zn55 O64 1.977 . S
O56 Zn55 2.032 . S
O56 C60 1.278 . S
C57 O58 1.203 1_554 S
C57 O64 1.267 . S
O58 C57 1.203 1_556 S
O59 C52 1.185 . S
O59 Zn55 2.086 . S
C60 O56 1.278 . S
C60 O61 1.211 . S
O61 C60 1.211 . S
C62 O54 1.284 . S
C62 O63 1.273 . S
O63 C62 1.273 . S
O64 Zn55 1.977 . S
O64 C57 1.267 . S
C65 O66 1.160 1_554 S
C65 O72 1.185 . S
O66 C65 1.160 1_556 S
O67 Zn68 1.899 1_556 S
O67 C75 1.284 . S
Zn68 O67 1.899 1_554 S
Zn68 O69 2.032 . S
Zn68 O72 2.086 . S
Zn68 O77 1.977 . S
O69 Zn68 2.032 . S
O69 C73 1.278 . S
C70 O71 1.203 1_554 S
C70 O77 1.267 . S
O71 C70 1.203 1_556 S
O72 C65 1.185 . S
O72 Zn68 2.086 . S
C73 O69 1.278 . S
C73 O74 1.211 . S
O74 C73 1.211 . S
C75 O67 1.284 . S
C75 O76 1.273 . S
O76 C75 1.273 . S
O77 Zn68 1.977 . S
O77 C70 1.267 . S
C78 O79 1.160 . S
C78 O85 1.185 . S
O79 C78 1.160 . S
O80 Zn81 1.899 . S
O80 C88 1.284 . S
Zn81 O80 1.899 . S
Zn81 O82 2.032 . S
Zn81 O85 2.086 . S
Zn81 O90 1.977 . S
O82 Zn81 2.032 . S
O82 C86 1.278 . S
C83 O84 1.203 . S
C83 O90 1.267 . S
O84 C83 1.203 . S
O85 C78 1.185 . S
O85 Zn81 2.086 . S
C86 O82 1.278 . S
C86 O87 1.211 . S
O87 C86 1.211 . S
C88 O80 1.284 . S
C88 O89 1.273 . S
O89 C88 1.273 . S
O90 Zn81 1.977 . S
O90 C83 1.267 . S
C91 O92 1.160 . S
C91 O98 1.185 . S
O92 C91 1.160 . S
O93 Zn94 1.899 . S
O93 C101 1.284 . S
Zn94 O93 1.899 . S
Zn94 O95 2.032 . S
Zn94 O98 2.086 . S
Zn94 O103 1.977 . S
O95 Zn94 2.032 . S
O95 C99 1.278 . S
C96 O97 1.203 . S
C96 O103 1.267 . S
O97 C96 1.203 . S
O98 C91 1.185 . S
O98 Zn94 2.086 . S
C99 O95 1.278 . S
C99 O100 1.211 . S
O100 C99 1.211 . S
C101 O93 1.284 . S
C101 O102 1.273 . S
O102 C101 1.273 . S
O103 Zn94 1.977 . S
O103 C96 1.267 . S
H104 C112 0.929 . S
H105 C114 0.930 . S
H106 C116 0.930 . S
H107 C119 0.929 . S
H108 C122 0.930 . S
H109 C124 0.960 . S
H110 C124 0.960 . S
H111 C124 0.954 1_554 S
C112 H104 0.929 . S
C112 C113 1.377 1_556 S
C112 C114 1.384 . S
C113 C112 1.377 1_554 S
C113 C119 1.390 . S
C114 H105 0.930 . S
C114 C112 1.384 . S
C114 C115 1.372 1_556 S
C115 C114 1.372 1_554 S
C115 C116 1.400 . S
C115 C120 1.490 . S
C116 H106 0.930 . S
C116 C115 1.400 . S
C116 C119 1.386 . S
H117 C133 0.930 . S
H118 C134 0.931 . S
C119 H107 0.929 . S
C119 C113 1.390 . S
C119 C116 1.386 . S
C120 C115 1.490 . S
C120 C122 1.395 . S
C120 C123 1.403 1_554 S
H121 C127 0.930 . S
C122 H108 0.930 . S
C122 C120 1.395 . S
C122 C125 1.403 . S
C123 C120 1.403 1_556 S
C123 C124 1.524 . S
C123 C127 1.400 . S
C124 H109 0.960 . S
C124 H110 0.960 . S
C124 H111 0.954 1_556 S
C124 C123 1.524 . S
C125 C122 1.403 . S
C125 C126 1.392 . S
C125 C129 1.495 . S
C126 C125 1.392 . S
C126 C127 1.386 1_554 S
C126 C128 1.478 . S
C127 H121 0.930 . S
C127 C123 1.400 . S
C127 C126 1.386 1_556 S
C128 C126 1.478 . S
C128 C130 1.381 1_554 S
C128 C134 1.383 . S
C129 C125 1.495 . S
C129 H135 0.959 . S
C129 H136 0.961 . S
C129 H137 0.960 . S
C130 C128 1.381 1_556 S
C130 C131 1.394 . S
C130 H138 0.930 . S
C131 C130 1.394 . S
C131 C132 1.383 1_556 S
C131 H139 0.929 . S
C132 C131 1.383 1_554 S
C132 C133 1.377 . S
C133 H117 0.930 . S
C133 C132 1.377 . S
C133 C134 1.379 . S
C134 H118 0.931 . S
C134 C128 1.383 . S
C134 C133 1.379 . S
H135 C129 0.959 . S
H136 C129 0.961 . S
H137 C129 0.960 . S
H138 C130 0.930 . S
H139 C131 0.929 . S
H140 C148 0.929 . S
H141 C150 0.930 . S
H142 C152 0.930 . S
H143 C155 0.929 . S
H144 C158 0.930 . S
H145 C160 0.960 . S
H146 C160 0.960 . S
H147 C160 0.960 . S
C148 H140 0.929 . S
C148 C149 1.377 . S
C148 C150 1.384 . S
C149 C148 1.377 . S
C149 C155 1.390 1_554 S
C150 H141 0.930 . S
C150 C148 1.384 . S
C150 C151 1.372 . S
C151 C150 1.372 . S
C151 C152 1.400 1_554 S
C151 C156 1.490 . S
C152 H142 0.930 . S
C152 C151 1.400 1_556 S
C152 C155 1.386 . S
H153 C169 0.930 . S
H154 C170 0.931 . S
C155 H143 0.929 . S
C155 C149 1.390 1_556 S
C155 C152 1.386 . S
C156 C151 1.490 . S
C156 C158 1.395 1_554 S
C156 C159 1.403 . S
H157 C163 0.930 . S
C158 H144 0.930 . S
C158 C156 1.395 1_556 S
C158 C161 1.403 . S
C159 C156 1.403 . S
C159 C160 1.524 . S
C159 C163 1.400 . S
C160 H145 0.960 . S
C160 H146 0.960 . S
C160 H147 0.960 . S
C160 C159 1.524 . S
C161 C158 1.403 . S
C161 C162 1.392 1_556 S
C161 C165 1.495 . S
C162 C161 1.392 1_554 S
C162 C163 1.385 . S
C162 C164 1.478 . S
C163 H157 0.930 . S
C163 C159 1.400 . S
C163 C162 1.385 . S
C164 C162 1.478 . S
C164 C166 1.381 . S
C164 C170 1.383 1_554 S
C165 C161 1.495 . S
C165 H171 0.959 . S
C165 H172 0.961 . S
C165 H173 0.960 . S
C166 C164 1.381 . S
C166 C167 1.394 . S
C166 H174 0.930 . S
C167 C166 1.394 . S
C167 C168 1.383 . S
C167 H175 0.929 . S
C168 C167 1.383 . S
C168 C169 1.377 1_554 S
C169 H153 0.930 . S
C169 C168 1.377 1_556 S
C169 C170 1.379 . S
C170 H154 0.931 . S
C170 C164 1.383 1_556 S
C170 C169 1.379 . S
H171 C165 0.959 . S
H172 C165 0.961 . S
H173 C165 0.960 . S
H174 C166 0.930 . S
H175 C167 0.929 . S
H176 C184 0.929 . S
H177 C186 0.930 . S
H178 C188 0.930 . S
H179 C191 0.929 . S
H180 C194 0.930 . S
H181 C196 0.960 . S
H182 C196 0.960 . S
H183 C196 0.960 . S
C184 H176 0.929 . S
C184 C185 1.377 . S
C184 C186 1.384 . S
C185 C184 1.377 . S
C185 C191 1.390 . S
C186 H177 0.930 . S
C186 C184 1.384 . S
C186 C187 1.372 . S
C187 C186 1.372 . S
C187 C188 1.400 . S
C187 C192 1.490 . S
C188 H178 0.930 . S
C188 C187 1.400 . S
C188 C191 1.386 . S
H189 C205 0.930 . S
H190 C206 0.931 . S
C191 H179 0.929 . S
C191 C185 1.390 . S
C191 C188 1.386 . S
C192 C187 1.490 . S
C192 C194 1.395 . S
C192 C195 1.403 . S
H193 C199 0.930 . S
C194 H180 0.930 . S
C194 C192 1.395 . S
C194 C197 1.403 . S
C195 C192 1.403 . S
C195 C196 1.524 . S
C195 C199 1.400 . S
C196 H181 0.960 . S
C196 H182 0.960 . S
C196 H183 0.960 . S
C196 C195 1.524 . S
C197 C194 1.403 . S
C197 C198 1.392 . S
C197 C201 1.495 . S
C198 C197 1.392 . S
C198 C199 1.385 . S
C198 C200 1.478 . S
C199 H193 0.930 . S
C199 C195 1.400 . S
C199 C198 1.385 . S
C200 C198 1.478 . S
C200 C202 1.381 . S
C200 C206 1.383 . S
C201 C197 1.495 . S
C201 H207 0.959 . S
C201 H208 0.961 . S
C201 H209 0.960 . S
C202 C200 1.381 . S
C202 C203 1.394 . S
C202 H210 0.930 . S
C203 C202 1.394 . S
C203 C204 1.383 . S
C203 H211 0.929 . S
C204 C203 1.383 . S
C204 C205 1.377 . S
C205 H189 0.930 . S
C205 C204 1.377 . S
C205 C206 1.379 . S
C206 H190 0.931 . S
C206 C200 1.383 . S
C206 C205 1.379 . S
H207 C201 0.959 . S
H208 C201 0.961 . S
H209 C201 0.960 . S
H210 C202 0.930 . S
H211 C203 0.929 . S
H212 C220 0.929 . S
H213 C222 0.930 . S
H214 C224 0.930 . S
H215 C227 0.929 . S
H216 C230 0.930 . S
H217 C232 0.960 . S
H218 C232 0.960 . S
H219 C232 0.960 . S
C220 H212 0.929 . S
C220 C221 1.377 . S
C220 C222 1.384 . S
C221 C220 1.377 . S
C221 C227 1.390 . S
C222 H213 0.930 . S
C222 C220 1.384 . S
C222 C223 1.372 . S
C223 C222 1.372 . S
C223 C224 1.400 . S
C223 C228 1.490 . S
C224 H214 0.930 . S
C224 C223 1.400 . S
C224 C227 1.386 . S
H225 C241 0.930 . S
H226 C242 0.931 . S
C227 H215 0.929 . S
C227 C221 1.390 . S
C227 C224 1.386 . S
C228 C223 1.490 . S
C228 C230 1.395 . S
C228 C231 1.403 . S
H229 C235 0.930 . S
C230 H216 0.930 . S
C230 C228 1.395 . S
C230 C233 1.403 . S
C231 C228 1.403 . S
C231 C232 1.524 . S
C231 C235 1.400 . S
C232 H217 0.960 . S
C232 H218 0.960 . S
C232 H219 0.960 . S
C232 C231 1.524 . S
C233 C230 1.403 . S
C233 C234 1.392 . S
C233 C237 1.495 . S
C234 C233 1.392 . S
C234 C235 1.385 . S
C234 C236 1.478 . S
C235 H229 0.930 . S
C235 C231 1.400 . S
C235 C234 1.385 . S
C236 C234 1.478 . S
C236 C238 1.381 . S
C236 C242 1.383 . S
C237 C233 1.495 . S
C237 H243 0.959 . S
C237 H244 0.961 . S
C237 H245 0.960 . S
C238 C236 1.381 . S
C238 C239 1.394 . S
C238 H246 0.930 . S
C239 C238 1.394 . S
C239 C240 1.383 . S
C239 H247 0.929 . S
C240 C239 1.383 . S
C240 C241 1.377 . S
C241 H225 0.930 . S
C241 C240 1.377 . S
C241 C242 1.379 . S
C242 H226 0.931 . S
C242 C236 1.383 . S
C242 C241 1.379 . S
H243 C237 0.959 . S
H244 C237 0.961 . S
H245 C237 0.960 . S
H246 C238 0.930 . S
H247 C239 0.929 . S
H248 C256 0.929 . S
H249 C258 0.930 . S
H250 C260 0.930 . S
H251 C263 0.929 . S
H252 C266 0.930 . S
H253 C268 0.960 . S
H254 C268 0.960 . S
H255 C268 0.960 . S
C256 H248 0.929 . S
C256 C257 1.377 . S
C256 C258 1.384 . S
C257 C256 1.377 . S
C257 C263 1.390 . S
C258 H249 0.930 . S
C258 C256 1.384 . S
C258 C259 1.372 . S
C259 C258 1.372 . S
C259 C260 1.400 . S
C259 C264 1.490 . S
C260 H250 0.930 . S
C260 C259 1.400 . S
C260 C263 1.386 . S
H261 C277 0.930 . S
H262 C278 0.931 . S
C263 H251 0.929 . S
C263 C257 1.390 . S
C263 C260 1.386 . S
C264 C259 1.490 . S
C264 C266 1.395 . S
C264 C267 1.403 . S
H265 C271 0.930 . S
C266 H252 0.930 . S
C266 C264 1.395 . S
C266 C269 1.403 . S
C267 C264 1.403 . S
C267 C268 1.524 . S
C267 C271 1.400 . S
C268 H253 0.960 . S
C268 H254 0.960 . S
C268 H255 0.960 . S
C268 C267 1.524 . S
C269 C266 1.403 . S
C269 C270 1.392 . S
C269 C273 1.495 . S
C270 C269 1.392 . S
C270 C271 1.385 . S
C270 C272 1.478 . S
C271 H265 0.930 . S
C271 C267 1.400 . S
C271 C270 1.385 . S
C272 C270 1.478 . S
C272 C274 1.381 . S
C272 C278 1.383 . S
C273 C269 1.495 . S
C273 H279 0.959 . S
C273 H280 0.961 . S
C273 H281 0.960 . S
C274 C272 1.381 . S
C274 C275 1.394 . S
C274 H282 0.930 . S
C275 C274 1.394 . S
C275 C276 1.383 . S
C275 H283 0.929 . S
C276 C275 1.383 . S
C276 C277 1.377 . S
C277 H261 0.930 . S
C277 C276 1.377 . S
C277 C278 1.379 . S
C278 H262 0.931 . S
C278 C272 1.383 . S
C278 C277 1.379 . S
H279 C273 0.959 . S
H280 C273 0.961 . S
H281 C273 0.960 . S
H282 C274 0.930 . S
H283 C275 0.929 . S
H284 C292 0.929 . S
H285 C294 0.930 . S
H286 C296 0.930 . S
H287 C299 0.929 . S
H288 C302 0.930 . S
H289 C304 0.960 . S
H290 C304 0.960 . S
H291 C304 0.960 . S
C292 H284 0.929 . S
C292 C293 1.377 . S
C292 C294 1.384 . S
C293 C292 1.377 . S
C293 C299 1.390 . S
C294 H285 0.930 . S
C294 C292 1.384 . S
C294 C295 1.372 . S
C295 C294 1.372 . S
C295 C296 1.400 . S
C295 C300 1.490 . S
C296 H286 0.930 . S
C296 C295 1.400 . S
C296 C299 1.386 . S
H297 C313 0.930 . S
H298 C314 0.931 . S
C299 H287 0.929 . S
C299 C293 1.390 . S
C299 C296 1.386 . S
C300 C295 1.490 . S
C300 C302 1.395 . S
C300 C303 1.403 . S
H301 C307 0.930 . S
C302 H288 0.930 . S
C302 C300 1.395 . S
C302 C305 1.403 . S
C303 C300 1.403 . S
C303 C304 1.524 . S
C303 C307 1.400 . S
C304 H289 0.960 . S
C304 H290 0.960 . S
C304 H291 0.960 . S
C304 C303 1.524 . S
C305 C302 1.403 . S
C305 C306 1.392 . S
C305 C309 1.495 . S
C306 C305 1.392 . S
C306 C307 1.385 . S
C306 C308 1.478 . S
C307 H301 0.930 . S
C307 C303 1.400 . S
C307 C306 1.385 . S
C308 C306 1.478 . S
C308 C310 1.381 . S
C308 C314 1.383 . S
C309 C305 1.495 . S
C309 H315 0.959 . S
C309 H316 0.961 . S
C309 H317 0.960 . S
C310 C308 1.381 . S
C310 C311 1.394 . S
C310 H318 0.930 . S
C311 C310 1.394 . S
C311 C312 1.383 . S
C311 H319 0.929 . S
C312 C311 1.383 . S
C312 C313 1.377 . S
C313 H297 0.930 . S
C313 C312 1.377 . S
C313 C314 1.379 . S
C314 H298 0.931 . S
C314 C308 1.383 . S
C314 C313 1.379 . S
H315 C309 0.959 . S
H316 C309 0.961 . S
H317 C309 0.960 . S
H318 C310 0.930 . S
H319 C311 0.929 . S
H320 C328 0.929 . S
H321 C330 0.930 . S
H322 C332 0.930 . S
H323 C335 0.929 . S
H324 C338 0.930 . S
H325 C340 0.960 . S
H326 C340 0.960 . S
H327 C340 0.960 . S
C328 H320 0.929 . S
C328 C329 1.377 . S
C328 C330 1.384 . S
C329 C328 1.377 . S
C329 C335 1.390 . S
C330 H321 0.930 . S
C330 C328 1.384 . S
C330 C331 1.372 . S
C331 C330 1.372 . S
C331 C332 1.400 . S
C331 C336 1.490 . S
C332 H322 0.930 . S
C332 C331 1.400 . S
C332 C335 1.386 . S
H333 C349 0.930 . S
H334 C350 0.931 . S
C335 H323 0.929 . S
C335 C329 1.390 . S
C335 C332 1.386 . S
C336 C331 1.490 . S
C336 C338 1.395 . S
C336 C339 1.403 . S
H337 C343 0.930 . S
C338 H324 0.930 . S
C338 C336 1.395 . S
C338 C341 1.403 . S
C339 C336 1.403 . S
C339 C340 1.524 . S
C339 C343 1.400 . S
C340 H325 0.960 . S
C340 H326 0.960 . S
C340 H327 0.960 . S
C340 C339 1.524 . S
C341 C338 1.403 . S
C341 C342 1.392 . S
C341 C345 1.495 . S
C342 C341 1.392 . S
C342 C343 1.385 . S
C342 C344 1.478 . S
C343 H337 0.930 . S
C343 C339 1.400 . S
C343 C342 1.385 . S
C344 C342 1.478 . S
C344 C346 1.381 . S
C344 C350 1.383 . S
C345 C341 1.495 . S
C345 H351 0.959 . S
C345 H352 0.961 . S
C345 H353 0.960 . S
C346 C344 1.381 . S
C346 C347 1.394 . S
C346 H354 0.930 . S
C347 C346 1.394 . S
C347 C348 1.383 . S
C347 H355 0.929 . S
C348 C347 1.383 . S
C348 C349 1.377 . S
C349 H333 0.930 . S
C349 C348 1.377 . S
C349 C350 1.379 . S
C350 H334 0.931 . S
C350 C344 1.383 . S
C350 C349 1.379 . S
H351 C345 0.959 . S
H352 C345 0.961 . S
H353 C345 0.960 . S
H354 C346 0.930 . S
H355 C347 0.929 . S
H356 C364 0.929 . S
H357 C366 0.930 . S
H358 C368 0.930 . S
H359 C371 0.929 . S
H360 C374 0.930 . S
H361 C376 0.960 . S
H362 C376 0.960 . S
H363 C376 0.960 . S
C364 H356 0.929 . S
C364 C365 1.377 . S
C364 C366 1.384 . S
C365 C364 1.377 . S
C365 C371 1.390 . S
C366 H357 0.930 . S
C366 C364 1.384 . S
C366 C367 1.372 . S
C367 C366 1.372 . S
C367 C368 1.400 . S
C367 C372 1.490 . S
C368 H358 0.930 . S
C368 C367 1.400 . S
C368 C371 1.386 . S
H369 C385 0.930 . S
H370 C386 0.931 . S
C371 H359 0.929 . S
C371 C365 1.390 . S
C371 C368 1.386 . S
C372 C367 1.490 . S
C372 C374 1.395 . S
C372 C375 1.403 . S
H373 C379 0.930 . S
C374 H360 0.930 . S
C374 C372 1.395 . S
C374 C377 1.403 . S
C375 C372 1.403 . S
C375 C376 1.524 . S
C375 C379 1.400 . S
C376 H361 0.960 . S
C376 H362 0.960 . S
C376 H363 0.960 . S
C376 C375 1.524 . S
C377 C374 1.403 . S
C377 C378 1.392 . S
C377 C381 1.495 . S
C378 C377 1.392 . S
C378 C379 1.385 . S
C378 C380 1.478 . S
C379 H373 0.930 . S
C379 C375 1.400 . S
C379 C378 1.385 . S
C380 C378 1.478 . S
C380 C382 1.381 . S
C380 C386 1.383 . S
C381 C377 1.495 . S
C381 H387 0.959 . S
C381 H388 0.961 . S
C381 H389 0.960 . S
C382 C380 1.381 . S
C382 C383 1.394 . S
C382 H390 0.930 . S
C383 C382 1.394 . S
C383 C384 1.383 . S
C383 H391 0.929 . S
C384 C383 1.383 . S
C384 C385 1.377 . S
C385 H369 0.930 . S
C385 C384 1.377 . S
C385 C386 1.379 . S
C386 H370 0.931 . S
C386 C380 1.383 . S
C386 C385 1.379 . S
H387 C381 0.959 . S
H388 C381 0.961 . S
H389 C381 0.960 . S
H390 C382 0.930 . S
H391 C383 0.929 . S
H392 C400 0.929 . S
H393 C402 0.930 . S
H394 C404 0.930 . S
H395 C407 0.929 . S
H396 C410 0.930 . S
H397 C412 0.960 . S
H398 C412 0.960 . S
H399 C412 0.960 . S
C400 H392 0.929 . S
C400 C401 1.377 . S
C400 C402 1.384 . S
C401 C400 1.377 . S
C401 C407 1.390 . S
C402 H393 0.930 . S
C402 C400 1.384 . S
C402 C403 1.372 . S
C403 C402 1.372 . S
C403 C404 1.400 . S
C403 C408 1.490 . S
C404 H394 0.930 . S
C404 C403 1.400 . S
C404 C407 1.386 . S
H405 C421 0.930 . S
H406 C422 0.931 . S
C407 H395 0.929 . S
C407 C401 1.390 . S
C407 C404 1.386 . S
C408 C403 1.490 . S
C408 C410 1.395 1_565 S
C408 C411 1.403 . S
H409 C415 0.930 . S
C410 H396 0.930 . S
C410 C408 1.395 1_545 S
C410 C413 1.403 . S
C411 C408 1.403 . S
C411 C412 1.524 . S
C411 C415 1.400 . S
C412 H397 0.960 . S
C412 H398 0.960 . S
C412 H399 0.960 . S
C412 C411 1.524 . S
C413 C410 1.403 . S
C413 C414 1.392 . S
C413 C417 1.495 . S
C414 C413 1.392 . S
C414 C415 1.385 1_545 S
C414 C416 1.478 . S
C415 H409 0.930 . S
C415 C411 1.400 . S
C415 C414 1.385 1_565 S
C416 C414 1.478 . S
C416 C418 1.381 . S
C416 C422 1.383 . S
C417 C413 1.495 . S
C417 H423 0.959 . S
C417 H424 0.961 . S
C417 H425 0.960 . S
C418 C416 1.381 . S
C418 C419 1.394 . S
C418 H426 0.930 . S
C419 C418 1.394 . S
C419 C420 1.383 . S
C419 H427 0.929 . S
C420 C419 1.383 . S
C420 C421 1.377 . S
C421 H405 0.930 . S
C421 C420 1.377 . S
C421 C422 1.379 . S
C422 H406 0.931 . S
C422 C416 1.383 . S
C422 C421 1.379 . S
H423 C417 0.959 . S
H424 C417 0.961 . S
H425 C417 0.960 . S
H426 C418 0.930 . S
H427 C419 0.929 . S
H428 C436 0.929 . S
H429 C438 0.930 . S
H430 C440 0.930 . S
H431 C443 0.929 . S
H432 C446 0.930 . S
H433 C448 0.960 . S
H434 C448 0.960 . S
H435 C448 0.960 . S
C436 H428 0.929 . S
C436 C437 1.377 . S
C436 C438 1.384 . S
C437 C436 1.377 . S
C437 C443 1.390 . S
C438 H429 0.930 . S
C438 C436 1.384 . S
C438 C439 1.372 . S
C439 C438 1.372 . S
C439 C440 1.400 . S
C439 C444 1.490 . S
C440 H430 0.930 . S
C440 C439 1.400 . S
C440 C443 1.386 . S
H441 C457 0.930 . S
H442 C458 0.931 . S
C443 H431 0.929 . S
C443 C437 1.390 . S
C443 C440 1.386 . S
C444 C439 1.490 . S
C444 C446 1.395 . S
C444 C447 1.403 . S
H445 C451 0.930 . S
C446 H432 0.930 . S
C446 C444 1.395 . S
C446 C449 1.403 1_565 S
C447 C444 1.403 . S
C447 C448 1.524 . S
C447 C451 1.400 1_565 S
C448 H433 0.960 . S
C448 H434 0.960 . S
C448 H435 0.960 . S
C448 C447 1.524 . S
C449 C446 1.403 1_545 S
C449 C450 1.392 . S
C449 C453 1.495 . S
C450 C449 1.392 . S
C450 C451 1.385 . S
C450 C452 1.478 . S
C451 H445 0.930 . S
C451 C447 1.400 1_545 S
C451 C450 1.385 . S
C452 C450 1.478 . S
C452 C454 1.381 . S
C452 C458 1.383 . S
C453 C449 1.495 . S
C453 H459 0.959 . S
C453 H460 0.961 . S
C453 H461 0.960 . S
C454 C452 1.381 . S
C454 C455 1.394 . S
C454 H462 0.930 . S
C455 C454 1.394 . S
C455 C456 1.383 . S
C455 H463 0.929 . S
C456 C455 1.383 . S
C456 C457 1.377 . S
C457 H441 0.930 . S
C457 C456 1.377 . S
C457 C458 1.379 . S
C458 H442 0.931 . S
C458 C452 1.383 . S
C458 C457 1.379 . S
H459 C453 0.959 . S
H460 C453 0.961 . S
H461 C453 0.960 . S
H462 C454 0.930 . S
H463 C455 0.929 . S
H464 C472 0.929 . S
H465 C474 0.930 . S
H466 C476 0.930 . S
H467 C479 0.929 . S
H468 C482 0.930 . S
H469 C484 0.960 . S
H470 C484 0.960 . S
H471 C484 0.960 . S
C472 H464 0.929 . S
C472 C473 1.377 . S
C472 C474 1.384 . S
C473 C472 1.377 . S
C473 C479 1.390 . S
C474 H465 0.930 . S
C474 C472 1.384 . S
C474 C475 1.372 . S
C475 C474 1.372 . S
C475 C476 1.400 . S
C475 C480 1.490 . S
C476 H466 0.930 . S
C476 C475 1.400 . S
C476 C479 1.386 . S
H477 C493 0.930 . S
H478 C494 0.931 . S
C479 H467 0.929 . S
C479 C473 1.390 . S
C479 C476 1.386 . S
C480 C475 1.490 . S
C480 C482 1.395 . S
C480 C483 1.403 1_565 S
H481 C487 0.930 . S
C482 H468 0.930 . S
C482 C480 1.395 . S
C482 C485 1.403 . S
C483 C480 1.403 1_545 S
C483 C484 1.524 . S
C483 C487 1.400 . S
C484 H469 0.960 . S
C484 H470 0.960 . S
C484 H471 0.960 . S
C484 C483 1.524 . S
C485 C482 1.403 . S
C485 C486 1.392 1_565 S
C485 C489 1.495 . S
C486 C485 1.392 1_545 S
C486 C487 1.385 . S
C486 C488 1.478 . S
C487 H481 0.930 . S
C487 C483 1.400 . S
C487 C486 1.385 . S
C488 C486 1.478 . S
C488 C490 1.381 . S
C488 C494 1.383 . S
C489 C485 1.495 . S
C489 H495 0.959 . S
C489 H496 0.961 . S
C489 H497 0.960 . S
C490 C488 1.381 . S
C490 C491 1.394 . S
C490 H498 0.929 1_545 S
C491 C490 1.394 . S
C491 C492 1.383 . S
C491 H499 0.929 . S
C492 C491 1.383 . S
C492 C493 1.377 . S
C493 H477 0.930 . S
C493 C492 1.377 . S
C493 C494 1.379 . S
C494 H478 0.931 . S
C494 C488 1.383 . S
C494 C493 1.379 . S
H495 C489 0.959 . S
H496 C489 0.961 . S
H497 C489 0.960 . S
H498 C490 0.929 1_565 S
H499 C491 0.929 . S
H500 C508 0.929 . S
H501 C510 0.930 . S
H502 C512 0.930 . S
H503 C515 0.929 . S
H504 C518 0.930 . S
H505 C520 0.960 . S
H506 C520 0.960 . S
H507 C520 0.960 . S
C508 H500 0.929 . S
C508 C509 1.377 . S
C508 C510 1.384 . S
C509 C508 1.377 . S
C509 C515 1.390 . S
C510 H501 0.930 . S
C510 C508 1.384 . S
C510 C511 1.372 . S
C511 C510 1.372 . S
C511 C512 1.400 . S
C511 C516 1.490 . S
C512 H502 0.930 . S
C512 C511 1.400 . S
C512 C515 1.386 . S
H513 C529 0.930 . S
H514 C530 0.931 . S
C515 H503 0.929 . S
C515 C509 1.390 . S
C515 C512 1.386 . S
C516 C511 1.490 . S
C516 C518 1.395 . S
C516 C519 1.403 1_565 S
H517 C523 0.930 . S
C518 H504 0.930 . S
C518 C516 1.395 . S
C518 C521 1.403 . S
C519 C516 1.403 1_545 S
C519 C520 1.524 . S
C519 C523 1.400 . S
C520 H505 0.960 . S
C520 H506 0.960 . S
C520 H507 0.960 . S
C520 C519 1.524 . S
C521 C518 1.403 . S
C521 C522 1.392 1_565 S
C521 C525 1.495 . S
C522 C521 1.392 1_545 S
C522 C523 1.385 . S
C522 C524 1.478 . S
C523 H517 0.930 . S
C523 C519 1.400 . S
C523 C522 1.385 . S
C524 C522 1.478 . S
C524 C526 1.381 . S
C524 C530 1.383 . S
C525 C521 1.495 . S
C525 H531 0.959 . S
C525 H532 0.961 . S
C525 H533 0.960 . S
C526 C524 1.381 . S
C526 C527 1.394 . S
C526 H534 0.930 . S
C527 C526 1.394 . S
C527 C528 1.383 . S
C527 H535 0.929 . S
C528 C527 1.383 . S
C528 C529 1.377 . S
C529 H513 0.930 . S
C529 C528 1.377 . S
C529 C530 1.379 . S
C530 H514 0.931 . S
C530 C524 1.383 . S
C530 C529 1.379 . S
H531 C525 0.959 . S
H532 C525 0.961 . S
H533 C525 0.960 . S
H534 C526 0.930 . S
H535 C527 0.929 . S
H536 C544 0.929 . S
H537 C546 0.930 . S
H538 C548 0.930 . S
H539 C551 0.929 . S
H540 C554 0.930 . S
H541 C556 0.960 1_556 S
H542 C556 0.960 . S
H543 C556 0.960 1_566 S
C544 H536 0.929 . S
C544 C545 1.377 . S
C544 C546 1.384 . S
C545 C544 1.377 . S
C545 C551 1.390 1_554 S
C546 H537 0.930 . S
C546 C544 1.384 . S
C546 C547 1.372 . S
C547 C546 1.372 . S
C547 C548 1.400 1_554 S
C547 C552 1.490 . S
C548 H538 0.930 . S
C548 C547 1.400 1_556 S
C548 C551 1.386 . S
H549 C565 0.930 . S
H550 C566 0.931 . S
C551 H539 0.929 . S
C551 C545 1.390 1_556 S
C551 C548 1.386 . S
C552 C547 1.490 . S
C552 C554 1.395 . S
C552 C555 1.403 1_565 S
H553 C559 0.930 . S
C554 H540 0.930 . S
C554 C552 1.395 . S
C554 C557 1.403 . S
C555 C552 1.403 1_545 S
C555 C556 1.524 . S
C555 C559 1.400 . S
C556 H541 0.960 1_554 S
C556 H542 0.960 . S
C556 H543 0.960 1_544 S
C556 C555 1.524 . S
C557 C554 1.403 . S
C557 C558 1.392 1_565 S
C557 C561 1.495 . S
C558 C557 1.392 1_545 S
C558 C559 1.385 . S
C558 C560 1.478 . S
C559 H553 0.930 . S
C559 C555 1.400 . S
C559 C558 1.385 . S
C560 C558 1.478 . S
C560 C562 1.381 . S
C560 C566 1.383 1_554 S
C561 C557 1.495 . S
C561 H567 0.959 . S
C561 H568 0.961 . S
C561 H569 0.963 . S
C562 C560 1.381 . S
C562 C563 1.394 . S
C562 H570 0.930 . S
C563 C562 1.394 . S
C563 C564 1.383 . S
C563 H571 0.929 . S
C564 C563 1.383 . S
C564 C565 1.377 1_554 S
C565 H549 0.930 . S
C565 C564 1.377 1_556 S
C565 C566 1.379 . S
C566 H550 0.931 . S
C566 C560 1.383 1_556 S
C566 C565 1.379 . S
H567 C561 0.959 . S
H568 C561 0.961 . S
H569 C561 0.963 . S
H570 C562 0.930 . S
H571 C563 0.929 . S
H572 C580 0.929 . S
H573 C582 0.930 . S
H574 C584 0.930 . S
H575 C587 0.929 . S
H576 C590 0.930 . S
H577 C592 0.960 . S
H578 C592 0.960 . S
H579 C592 0.960 . S
C580 H572 0.929 . S
C580 C581 1.377 . S
C580 C582 1.384 . S
C581 C580 1.377 . S
C581 C587 1.390 . S
C582 H573 0.930 . S
C582 C580 1.384 . S
C582 C583 1.372 . S
C583 C582 1.372 . S
C583 C584 1.400 . S
C583 C588 1.490 . S
C584 H574 0.930 . S
C584 C583 1.400 . S
C584 C587 1.386 . S
H585 C601 0.930 . S
H586 C602 0.931 . S
C587 H575 0.929 . S
C587 C581 1.390 . S
C587 C584 1.386 . S
C588 C583 1.490 . S
C588 C590 1.395 . S
C588 C591 1.403 . S
H589 C595 0.930 . S
C590 H576 0.930 . S
C590 C588 1.395 . S
C590 C593 1.403 1_565 S
C591 C588 1.403 . S
C591 C592 1.524 . S
C591 C595 1.400 1_565 S
C592 H577 0.960 . S
C592 H578 0.960 . S
C592 H579 0.960 . S
C592 C591 1.524 . S
C593 C590 1.403 1_545 S
C593 C594 1.392 . S
C593 C597 1.495 . S
C594 C593 1.392 . S
C594 C595 1.385 . S
C594 C596 1.478 . S
C595 H589 0.930 . S
C595 C591 1.400 1_545 S
C595 C594 1.385 . S
C596 C594 1.478 . S
C596 C598 1.381 . S
C596 C602 1.383 . S
C597 C593 1.495 . S
C597 H603 0.959 . S
C597 H604 0.961 . S
C597 H605 0.960 . S
C598 C596 1.381 . S
C598 C599 1.394 . S
C598 H606 0.930 . S
C599 C598 1.394 . S
C599 C600 1.383 . S
C599 H607 0.929 . S
C600 C599 1.383 . S
C600 C601 1.377 . S
C601 H585 0.930 . S
C601 C600 1.377 . S
C601 C602 1.379 . S
C602 H586 0.931 . S
C602 C596 1.383 . S
C602 C601 1.379 . S
H603 C597 0.959 . S
H604 C597 0.961 . S
H605 C597 0.960 . S
H606 C598 0.930 . S
H607 C599 0.929 . S
H608 C616 0.929 . S
H609 C618 0.930 . S
H610 C620 0.930 . S
H611 C623 0.929 . S
H612 C626 0.930 . S
H613 C628 0.960 . S
H614 C628 0.960 . S
H615 C628 0.960 1_554 S
C616 H608 0.929 . S
C616 C617 1.377 1_556 S
C616 C618 1.384 . S
C617 C616 1.377 1_554 S
C617 C623 1.390 . S
C618 H609 0.930 . S
C618 C616 1.384 . S
C618 C619 1.372 1_556 S
C619 C618 1.372 1_554 S
C619 C620 1.400 . S
C619 C624 1.490 . S
C620 H610 0.930 . S
C620 C619 1.400 . S
C620 C623 1.386 . S
H621 C637 0.930 . S
H622 C638 0.931 . S
C623 H611 0.929 . S
C623 C617 1.390 . S
C623 C620 1.386 . S
C624 C619 1.490 . S
C624 C626 1.395 . S
C624 C627 1.403 1_455 S
H625 C631 0.930 . S
C626 H612 0.930 . S
C626 C624 1.395 . S
C626 C629 1.403 . S
C627 C624 1.403 1_655 S
C627 C628 1.524 1_554 S
C627 C631 1.400 . S
C628 H613 0.960 . S
C628 H614 0.960 . S
C628 H615 0.960 1_556 S
C628 C627 1.524 1_556 S
C629 C626 1.403 . S
C629 C630 1.392 1_455 S
C629 C633 1.495 . S
C630 C629 1.392 1_655 S
C630 C631 1.385 . S
C630 C632 1.478 . S
C631 H625 0.930 . S
C631 C627 1.400 . S
C631 C630 1.385 . S
C632 C630 1.478 . S
C632 C634 1.381 1_554 S
C632 C638 1.383 . S
C633 C629 1.495 . S
C633 H639 0.959 . S
C633 H640 0.961 . S
C633 H641 0.960 . S
C634 C632 1.381 1_556 S
C634 C635 1.394 . S
C634 H642 0.930 . S
C635 C634 1.394 . S
C635 C636 1.383 1_556 S
C635 H643 0.929 . S
C636 C635 1.383 1_554 S
C636 C637 1.377 . S
C637 H621 0.930 . S
C637 C636 1.377 . S
C637 C638 1.379 . S
C638 H622 0.931 . S
C638 C632 1.383 . S
C638 C637 1.379 . S
H639 C633 0.959 . S
H640 C633 0.961 . S
H641 C633 0.960 . S
H642 C634 0.930 . S
H643 C635 0.929 . S
H644 C652 0.929 . S
H645 C654 0.930 . S
H646 C656 0.930 . S
H647 C659 0.929 . S
H648 C662 0.930 . S
H649 C664 0.960 . S
H650 C664 0.960 . S
H651 C664 0.960 . S
C652 H644 0.929 . S
C652 C653 1.377 . S
C652 C654 1.384 . S
C653 C652 1.377 . S
C653 C659 1.390 . S
C654 H645 0.930 . S
C654 C652 1.384 . S
C654 C655 1.372 . S
C655 C654 1.372 . S
C655 C656 1.400 . S
C655 C660 1.490 . S
C656 H646 0.930 . S
C656 C655 1.400 . S
C656 C659 1.386 . S
H657 C673 0.930 . S
H658 C674 0.931 . S
C659 H647 0.929 . S
C659 C653 1.390 . S
C659 C656 1.386 . S
C660 C655 1.490 . S
C660 C662 1.395 . S
C660 C663 1.403 1_455 S
H661 C667 0.930 . S
C662 H648 0.930 . S
C662 C660 1.395 . S
C662 C665 1.403 . S
C663 C660 1.403 1_655 S
C663 C664 1.524 . S
C663 C667 1.400 . S
C664 H649 0.960 . S
C664 H650 0.960 . S
C664 H651 0.960 . S
C664 C663 1.524 . S
C665 C662 1.403 . S
C665 C666 1.392 1_455 S
C665 C669 1.495 . S
C666 C665 1.392 1_655 S
C666 C667 1.385 . S
C666 C668 1.478 . S
C667 H661 0.930 . S
C667 C663 1.400 . S
C667 C666 1.385 . S
C668 C666 1.478 . S
C668 C670 1.381 . S
C668 C674 1.383 . S
C669 C665 1.495 . S
C669 H675 0.959 . S
C669 H676 0.961 . S
C669 H677 0.960 . S
C670 C668 1.381 . S
C670 C671 1.394 . S
C670 H678 0.930 . S
C671 C670 1.394 . S
C671 C672 1.383 . S
C671 H679 0.929 . S
C672 C671 1.383 . S
C672 C673 1.377 . S
C673 H657 0.930 . S
C673 C672 1.377 . S
C673 C674 1.379 . S
C674 H658 0.931 . S
C674 C668 1.383 . S
C674 C673 1.379 . S
H675 C669 0.959 . S
H676 C669 0.961 . S
H677 C669 0.960 . S
H678 C670 0.930 . S
H679 C671 0.929 . S
C113 C70 1.475 . S
C132 C5 1.495 . S
C149 C57 1.478 . S
C168 C18 1.451 . S
C185 C96 1.472 . S
C204 C31 1.482 . S
C221 C83 1.477 . S
C240 C44 1.450 . S
C257 C8 1.269 . S
C276 C34 1.258 . S
C293 C21 1.269 . S
C312 C47 1.261 . S
C329 C23 1.307 . S
C348 C49 1.307 . S
C365 C10 1.308 . S
C384 C36 1.314 . S
C401 C60 1.268 . S
C420 C86 1.268 . S
C437 C99 1.274 . S
C456 C73 1.241 . S
C473 C101 1.305 . S
C492 C75 1.297 . S
C509 C62 1.305 . S
C528 C88 1.295 . S
C545 C13 1.500 . S
C564 C0 1.500 . S
C581 C26 1.493 . S
C600 C39 1.504 . S
C617 C52 1.492 . S
C636 C65 1.495 . S
C653 C78 1.493 . S
C672 C91 1.480 . S
