# Generated by pormake.
# Topology why, (6)-cn, num edge types: 1
# Building blocks:
#     Node 0, Type 0, BuildingBlock: INOVEN_clean_sbu_0, # of connection points: 6
#     Node 1, Type 0, BuildingBlock: INOVEN_clean_sbu_0, # of connection points: 6
#     Node 2, Type 0, BuildingBlock: INOVEN_clean_sbu_0, # of connection points: 6
#     Node 3, Type 0, BuildingBlock: INOVEN_clean_sbu_0, # of connection points: 6
#     Node 4, Type 0, BuildingBlock: INOVEN_clean_sbu_0, # of connection points: 6
#     Node 5, Type 0, BuildingBlock: INOVEN_clean_sbu_0, # of connection points: 6
#     Node 6, Type 0, BuildingBlock: INOVEN_clean_sbu_0, # of connection points: 6
#     Node 7, Type 0, BuildingBlock: INOVEN_clean_sbu_0, # of connection points: 6
#     Node 8, Type 0, BuildingBlock: INOVEN_clean_sbu_0, # of connection points: 6
#     Node 9, Type 0, BuildingBlock: INOVEN_clean_sbu_0, # of connection points: 6
#     Node 10, Type 0, BuildingBlock: INOVEN_clean_sbu_0, # of connection points: 6
#     Node 11, Type 0, BuildingBlock: INOVEN_clean_sbu_0, # of connection points: 6
#     Node 12, Type 0, BuildingBlock: INOVEN_clean_sbu_0, # of connection points: 6
#     Node 13, Type 0, BuildingBlock: INOVEN_clean_sbu_0, # of connection points: 6
#     Node 14, Type 0, BuildingBlock: INOVEN_clean_sbu_0, # of connection points: 6
#     Node 15, Type 0, BuildingBlock: INOVEN_clean_sbu_0, # of connection points: 6
#     Edge 16, Type (0, 0), BuildingBlock: OJICUG_clean_linker_0, # of connection points: 2
#     Edge 17, Type (0, 0), BuildingBlock: OJICUG_clean_linker_0, # of connection points: 2
#     Edge 18, Type (0, 0), BuildingBlock: OJICUG_clean_linker_0, # of connection points: 2
#     Edge 19, Type (0, 0), BuildingBlock: OJICUG_clean_linker_0, # of connection points: 2
#     Edge 20, Type (0, 0), BuildingBlock: OJICUG_clean_linker_0, # of connection points: 2
#     Edge 21, Type (0, 0), BuildingBlock: OJICUG_clean_linker_0, # of connection points: 2
#     Edge 22, Type (0, 0), BuildingBlock: OJICUG_clean_linker_0, # of connection points: 2
#     Edge 23, Type (0, 0), BuildingBlock: OJICUG_clean_linker_0, # of connection points: 2
#     Edge 24, Type (0, 0), BuildingBlock: OJICUG_clean_linker_0, # of connection points: 2
#     Edge 25, Type (0, 0), BuildingBlock: OJICUG_clean_linker_0, # of connection points: 2
#     Edge 26, Type (0, 0), BuildingBlock: OJICUG_clean_linker_0, # of connection points: 2
#     Edge 27, Type (0, 0), BuildingBlock: OJICUG_clean_linker_0, # of connection points: 2
#     Edge 28, Type (0, 0), BuildingBlock: OJICUG_clean_linker_0, # of connection points: 2
#     Edge 29, Type (0, 0), BuildingBlock: OJICUG_clean_linker_0, # of connection points: 2
#     Edge 30, Type (0, 0), BuildingBlock: OJICUG_clean_linker_0, # of connection points: 2
#     Edge 31, Type (0, 0), BuildingBlock: OJICUG_clean_linker_0, # of connection points: 2
#     Edge 32, Type (0, 0), BuildingBlock: OJICUG_clean_linker_0, # of connection points: 2
#     Edge 33, Type (0, 0), BuildingBlock: OJICUG_clean_linker_0, # of connection points: 2
#     Edge 34, Type (0, 0), BuildingBlock: OJICUG_clean_linker_0, # of connection points: 2
#     Edge 35, Type (0, 0), BuildingBlock: OJICUG_clean_linker_0, # of connection points: 2
#     Edge 36, Type (0, 0), BuildingBlock: OJICUG_clean_linker_0, # of connection points: 2
#     Edge 37, Type (0, 0), BuildingBlock: OJICUG_clean_linker_0, # of connection points: 2
#     Edge 38, Type (0, 0), BuildingBlock: OJICUG_clean_linker_0, # of connection points: 2
#     Edge 39, Type (0, 0), BuildingBlock: OJICUG_clean_linker_0, # of connection points: 2
#     Edge 40, Type (0, 0), BuildingBlock: OJICUG_clean_linker_0, # of connection points: 2
#     Edge 41, Type (0, 0), BuildingBlock: OJICUG_clean_linker_0, # of connection points: 2
#     Edge 42, Type (0, 0), BuildingBlock: OJICUG_clean_linker_0, # of connection points: 2
#     Edge 43, Type (0, 0), BuildingBlock: OJICUG_clean_linker_0, # of connection points: 2
#     Edge 44, Type (0, 0), BuildingBlock: OJICUG_clean_linker_0, # of connection points: 2
#     Edge 45, Type (0, 0), BuildingBlock: OJICUG_clean_linker_0, # of connection points: 2
#     Edge 46, Type (0, 0), BuildingBlock: OJICUG_clean_linker_0, # of connection points: 2
#     Edge 47, Type (0, 0), BuildingBlock: OJICUG_clean_linker_0, # of connection points: 2
#     Edge 48, Type (0, 0), BuildingBlock: OJICUG_clean_linker_0, # of connection points: 2
#     Edge 49, Type (0, 0), BuildingBlock: OJICUG_clean_linker_0, # of connection points: 2
#     Edge 50, Type (0, 0), BuildingBlock: OJICUG_clean_linker_0, # of connection points: 2
#     Edge 51, Type (0, 0), BuildingBlock: OJICUG_clean_linker_0, # of connection points: 2
#     Edge 52, Type (0, 0), BuildingBlock: OJICUG_clean_linker_0, # of connection points: 2
#     Edge 53, Type (0, 0), BuildingBlock: OJICUG_clean_linker_0, # of connection points: 2
#     Edge 54, Type (0, 0), BuildingBlock: OJICUG_clean_linker_0, # of connection points: 2
#     Edge 55, Type (0, 0), BuildingBlock: OJICUG_clean_linker_0, # of connection points: 2
#     Edge 56, Type (0, 0), BuildingBlock: OJICUG_clean_linker_0, # of connection points: 2
#     Edge 57, Type (0, 0), BuildingBlock: OJICUG_clean_linker_0, # of connection points: 2
#     Edge 58, Type (0, 0), BuildingBlock: OJICUG_clean_linker_0, # of connection points: 2
#     Edge 59, Type (0, 0), BuildingBlock: OJICUG_clean_linker_0, # of connection points: 2
#     Edge 60, Type (0, 0), BuildingBlock: OJICUG_clean_linker_0, # of connection points: 2
#     Edge 61, Type (0, 0), BuildingBlock: OJICUG_clean_linker_0, # of connection points: 2
#     Edge 62, Type (0, 0), BuildingBlock: OJICUG_clean_linker_0, # of connection points: 2
#     Edge 63, Type (0, 0), BuildingBlock: OJICUG_clean_linker_0, # of connection points: 2
# Relax obj value: 0.519
# Max RMSD: 0.254
# Mean RMSD: 0.254
data_MOF--net-why--node1-INOVEN_clean_sbu_0--edge1-OJICUG_clean_linker_0
_symmetry_space_group_name_H-M    P1
_symmetry_Int_Tables_number       1
_symmetry_cell_setting            triclinic
loop_
_symmetry_equiv_pos_as_xyz
'x, y, z'
_cell_length_a     34.563391
_cell_length_b     34.866327
_cell_length_c     33.092664
_cell_angle_alpha  90.022466
_cell_angle_beta   89.927959
_cell_angle_gamma 89.772528
loop_
_atom_site_label
_atom_site_type_symbol
_atom_site_fract_x
_atom_site_fract_y
_atom_site_fract_z
_atom_type_partial_charge
Gd0 Gd 0.55481 0.27047 0.0328 0.0
Gd1 Gd 0.51275 0.30942 0.07163 0.0
C2 C 0.60122 0.34722 0.06255 0.0
C3 C 0.59476 0.22618 0.98573 0.0
C4 C 0.61331 0.23292 0.94676 0.0
C5 C 0.63743 0.20486 0.93003 0.0
C6 C 0.60777 0.26793 0.92663 0.0
C7 C 0.64951 0.24621 0.87221 0.0
C8 C 0.62582 0.27459 0.88955 0.0
C9 C 0.65546 0.21145 0.89299 0.0
C10 C 0.54155 0.23195 0.10821 0.0
C11 C 0.46627 0.27764 -0.0064 0.0
C12 C 0.4828 0.32903 0.13973 0.0
C13 C 0.46467 0.30615 0.17196 0.0
C14 C 0.42572 0.31239 0.18131 0.0
C15 C 0.48567 0.27832 0.19372 0.0
C16 C 0.43073 0.26846 0.23837 0.0
C17 C 0.46873 0.25941 0.22646 0.0
C18 C 0.40883 0.29365 0.21393 0.0
C19 C 0.51404 0.35053 0.00422 0.0
O20 O 0.60231 0.31853 0.03616 0.0
O21 O 0.56825 0.3486 0.08366 0.0
O22 O 0.60968 0.24507 0.0158 0.0
O23 O 0.55705 0.22736 0.98566 0.0
O24 O 0.57416 0.24541 0.0953 0.0
O25 O 0.51692 0.24516 0.08283 0.0
O26 O 0.46053 0.29237 0.03026 0.0
O27 O 0.50269 0.2669 0.98647 0.0
O28 O 0.46378 0.33112 0.10577 0.0
O29 O 0.51999 0.3243 0.13454 0.0
O30 O 0.48533 0.34986 0.02943 0.0
O31 O 0.54335 0.33152 0.01644 0.0
H32 H 0.64229 0.17791 0.94557 0.0
H33 H 0.58932 0.28995 0.93954 0.0
H34 H 0.62054 0.30147 0.87407 0.0
H35 H 0.67409 0.18932 0.88058 0.0
H36 H 0.40878 0.33322 0.16457 0.0
H37 H 0.51569 0.27239 0.18673 0.0
H38 H 0.4863 0.24 0.24431 0.0
H39 H 0.37961 0.30195 0.22199 0.0
Gd40 Gd 0.80384 0.79933 0.28104 0.0
Gd41 Gd 0.76343 0.75832 0.32163 0.0
C42 C 0.72697 0.84697 0.31197 0.0
C43 C 0.84782 0.83676 0.23161 0.0
C44 C 0.84154 0.85453 0.19161 0.0
C45 C 0.82699 0.89214 0.18852 0.0
C46 C 0.84934 0.83377 0.1561 0.0
C47 C 0.82768 0.88766 0.11528 0.0
C48 C 0.84239 0.85015 0.11832 0.0
C49 C 0.81998 0.90847 0.15073 0.0
C50 C 0.84231 0.78686 0.35661 0.0
C51 C 0.79488 0.71065 0.2439 0.0
C52 C 0.7437 0.72969 0.39011 0.0
C53 C 0.76674 0.71138 0.42223 0.0
C54 C 0.7603 0.67282 0.4314 0.0
C55 C 0.79496 0.7318 0.44401 0.0
C56 C 0.80504 0.67694 0.48809 0.0
C57 C 0.81409 0.71465 0.47656 0.0
C58 C 0.77935 0.65569 0.46373 0.0
C59 C 0.72227 0.76072 0.25412 0.0
O60 O 0.75572 0.84726 0.28519 0.0
O61 O 0.72517 0.8145 0.33335 0.0
O62 O 0.82995 0.85268 0.26204 0.0
O63 O 0.84675 0.79939 0.23316 0.0
O64 O 0.83016 0.81934 0.3425 0.0
O65 O 0.82833 0.76212 0.33202 0.0
O66 O 0.77997 0.70582 0.28067 0.0
O67 O 0.80628 0.74638 0.23609 0.0
O68 O 0.74094 0.71062 0.35631 0.0
O69 O 0.74906 0.76639 0.38462 0.0
O70 O 0.72174 0.73239 0.27947 0.0
O71 O 0.74203 0.7891 0.26648 0.0
H72 H 0.821 0.90906 0.21528 0.0
H73 H 0.86068 0.80479 0.15745 0.0
H74 H 0.84844 0.83341 0.09145 0.0
H75 H 0.80933 0.9377 0.14926 0.0
H76 H 0.73914 0.65634 0.4147 0.0
H77 H 0.80107 0.76151 0.43714 0.0
H78 H 0.83377 0.73175 0.49447 0.0
H79 H 0.77097 0.62676 0.47164 0.0
Gd80 Gd 0.27305 1.04918 0.53328 0.0
Gd81 Gd 0.31522 1.01024 0.57216 0.0
C82 C 0.22669 0.97242 0.56316 0.0
C83 C 0.23304 1.09325 0.48619 0.0
C84 C 0.21459 1.08623 0.44727 0.0
C85 C 0.19044 1.11412 0.43036 0.0
C86 C 0.22034 1.05113 0.42731 0.0
C87 C 0.17888 1.07249 0.37263 0.0
C88 C 0.20254 1.04426 0.39019 0.0
C89 C 0.17266 1.10732 0.39327 0.0
C90 C 0.28637 1.08776 0.60861 0.0
C91 C 0.36164 1.0421 0.49394 0.0
C92 C 0.34523 0.99064 0.64015 0.0
C93 C 0.36414 1.01324 0.67208 0.0
C94 C 0.40307 1.00629 0.68085 0.0
C95 C 0.34388 1.0414 0.69421 0.0
C96 C 0.3995 1.05022 0.73806 0.0
C97 C 0.36151 1.05993 0.72677 0.0
C98 C 0.42065 1.02468 0.71325 0.0
C99 C 0.31391 0.96914 0.50478 0.0
O100 O 0.2256 1.0011 0.53678 0.0
O101 O 0.25967 0.97104 0.58419 0.0
O102 O 0.21814 1.07446 0.51637 0.0
O103 O 0.27076 1.09217 0.48607 0.0
O104 O 0.25373 1.07436 0.59578 0.0
O105 O 0.31099 1.0745 0.58318 0.0
O106 O 0.36739 1.02751 0.53064 0.0
O107 O 0.32519 1.0527 0.48684 0.0
O108 O 0.36397 0.98789 0.60602 0.0
O109 O 0.30812 0.99618 0.63531 0.0
O110 O 0.34271 0.96993 0.5298 0.0
O111 O 0.28458 0.98807 0.51716 0.0
H112 H 0.18541 1.14112 0.44577 0.0
H113 H 0.2388 1.02923 0.44037 0.0
H114 H 0.20801 1.01733 0.37482 0.0
H115 H 1.15405 1.12933 0.38067 0.0
H116 H 0.41944 0.98518 0.66385 0.0
H117 H 0.3139 1.04789 0.68766 0.0
H118 H 0.34449 1.07961 0.74494 0.0
H119 H 0.44981 1.01587 0.72088 0.0
Gd120 Gd 1.02449 0.52055 0.78077 0.0
Gd121 Gd 1.0646 0.56164 0.82154 0.0
C122 C 1.10112 0.47296 0.8118 0.0
C123 C 0.98097 0.48299 0.73115 0.0
C124 C 0.98783 0.46476 0.69151 0.0
C125 C 1.00948 0.43063 0.6882 0.0
C126 C 0.97332 0.48202 0.65634 0.0
C127 C 1.00166 0.43129 0.61524 0.0
C128 C 0.98032 0.46558 0.61858 0.0
C129 C 1.01632 0.41409 0.65044 0.0
C130 C 0.98569 0.53297 0.85629 0.0
C131 C 1.03319 0.60928 0.74386 0.0
C132 C 1.08417 0.59038 0.89001 0.0
C133 C 1.06117 0.60893 0.92208 0.0
C134 C 1.06795 0.64744 0.93126 0.0
C135 C 1.03274 0.58877 0.94388 0.0
C136 C 1.02325 0.64367 0.98812 0.0
C137 C 1.01379 0.60608 0.97652 0.0
C138 C 1.04908 0.66472 0.96368 0.0
C139 C 1.10602 0.55932 0.75407 0.0
O140 O 1.07268 0.47277 0.78477 0.0
O141 O 1.10272 0.50538 0.83334 0.0
O142 O 0.99794 0.46731 0.76221 0.0
O143 O 0.98252 0.52036 0.73206 0.0
O144 O 0.99793 0.5005 0.84216 0.0
O145 O 0.99969 0.55773 0.83174 0.0
O146 O 1.04805 0.61411 0.78063 0.0
O147 O 1.02186 0.57354 0.736 0.0
O148 O 1.08715 0.60933 0.85616 0.0
O149 O 1.0786 0.5537 0.8846 0.0
O150 O 1.10622 0.58773 0.77933 0.0
O151 O 1.0864 0.53086 0.76651 0.0
H152 H 1.02108 0.41653 0.71473 0.0
H153 H 0.95664 0.50835 0.658 0.0
H154 H 0.969 0.47976 0.59197 0.0
H155 H 1.03231 0.38735 0.64893 0.0
H156 H 1.08927 0.66373 0.91453 0.0
H157 H 1.02635 0.55912 0.937 0.0
H158 H 0.99396 0.58914 -0.00553 0.0
H159 H 1.05775 0.69356 0.97161 0.0
Gd160 Gd 0.81674 1.00951 0.89717 0.0
Gd161 Gd 0.77452 1.04871 0.93734 0.0
C162 C 0.86366 1.04014 0.97553 0.0
C163 C 0.84566 0.99029 0.82846 0.0
C164 C 0.85992 1.01328 0.79428 0.0
C165 C 0.89838 1.00911 0.78201 0.0
C166 C 0.83552 1.03872 0.77313 0.0
C167 C 0.88597 1.04944 0.72326 0.0
C168 C 0.84853 1.05685 0.73802 0.0
C169 C 0.9114 1.02715 0.74708 0.0
C170 C 0.81505 0.96778 0.96399 0.0
C171 C 0.72815 0.97193 0.90673 0.0
C172 C 0.7354 1.0919 0.98633 0.0
C173 C 0.71773 1.08558 0.02645 0.0
C174 C 0.67824 1.07652 0.0296 0.0
C175 C 0.74015 1.08756 0.06181 0.0
C176 C 0.68407 1.07104 0.10249 0.0
C177 C 0.72346 1.08037 0.09944 0.0
C178 C 0.66163 1.06908 0.06724 0.0
C179 C 0.78706 1.08721 0.86185 0.0
O180 O 0.8691 1.02523 0.9389 0.0
O181 O 0.82742 1.0515 0.98286 0.0
O182 O 0.86625 0.99151 0.86145 0.0
O183 O 0.80846 0.99166 0.83533 0.0
O184 O 0.84367 0.968 0.93864 0.0
O185 O 0.78612 0.98756 0.95233 0.0
O186 O 0.72722 1.00036 0.93351 0.0
O187 O 0.76095 0.97075 0.8853 0.0
O188 O 0.71984 1.07336 0.9563 0.0
O189 O 0.77312 1.09187 0.98451 0.0
O190 O 0.75441 1.07447 0.87547 0.0
O191 O 0.8119 1.07375 0.88683 0.0
H192 H 0.91789 0.9902 0.79822 0.0
H193 H 0.8058 1.04315 0.78243 0.0
H194 H 0.82835 1.07407 0.72069 0.0
H195 H 0.94038 1.02027 0.7369 0.0
H196 H 0.66015 1.0751 0.00294 0.0
H197 H 0.77064 1.09453 0.06049 0.0
H198 H 0.74139 1.08199 0.12621 0.0
H199 H 0.63103 1.06263 0.06885 0.0
Gd200 Gd 0.56676 0.56071 0.64935 0.0
Gd201 Gd 0.52486 0.51994 0.68874 0.0
C202 C 0.53355 0.60841 0.72663 0.0
C203 C 0.60412 0.59181 0.59086 0.0
C204 C 0.64515 0.60229 0.59068 0.0
C205 C 0.67276 0.57942 0.61079 0.0
C206 C 0.65634 0.63724 0.57387 0.0
C207 C 0.72282 0.62561 0.59515 0.0
C208 C 0.69477 0.64883 0.57608 0.0
C209 C 0.71145 0.5908 0.61257 0.0
C210 C 0.60539 0.55818 0.71895 0.0
C211 C 0.60156 0.4719 0.6591 0.0
C212 C 0.4796 0.48203 0.73665 0.0
C213 C 0.48573 0.46416 0.7762 0.0
C214 C 0.45731 0.44037 0.79266 0.0
C215 C 0.52061 0.46969 0.79703 0.0
C216 C 0.49827 0.42819 0.85119 0.0
C217 C 0.5269 0.45179 0.83425 0.0
C218 C 0.46349 0.42253 0.82988 0.0
C219 C 0.48866 0.53142 0.61147 0.0
O220 O 0.55073 0.61288 0.69094 0.0
O221 O 0.52046 0.57307 0.73344 0.0
O222 O 0.5965 0.5552 0.5919 0.0
O223 O 0.58277 0.6116 0.61576 0.0
O224 O 0.6054 0.58672 0.69422 0.0
O225 O 0.58636 0.52972 0.70569 0.0
O226 O 0.57371 0.47265 0.68682 0.0
O227 O 0.60234 0.50334 0.63618 0.0
O228 O 0.49868 0.46632 0.70698 0.0
O229 O 0.48114 0.5194 0.73584 0.0
O230 O 0.49948 0.4991 0.62712 0.0
O231 O 0.5025 0.55656 0.63565 0.0
H232 H 0.66451 0.5527 0.62501 0.0
H233 H 0.63535 0.65552 0.55891 0.0
H234 H 0.7028 0.67532 0.56122 0.0
H235 H 0.73255 0.57219 0.62685 0.0
H236 H 0.43044 0.43547 0.77667 0.0
H237 H 0.5429 0.48789 0.78445 0.0
H238 H 0.55381 0.45693 0.85006 0.0
H239 H 0.44115 0.40403 0.84186 0.0
Gd240 Gd 1.01405 0.30816 0.39758 0.0
Gd241 Gd 1.05601 0.26921 0.4376 0.0
C242 C 0.96685 0.27741 0.47578 0.0
C243 C 0.98543 0.32734 0.32881 0.0
C244 C 0.96948 0.30458 0.29528 0.0
C245 C 0.93071 0.3096 0.28454 0.0
C246 C 0.99256 0.27863 0.27315 0.0
C247 C 0.94018 0.26902 0.22535 0.0
C248 C 0.97793 0.2608 0.23858 0.0
C249 C 0.9161 0.29185 0.25018 0.0
C250 C 1.01511 0.34997 0.46434 0.0
C251 C 1.10255 0.34589 0.40731 0.0
C252 C 1.09514 0.22528 0.4858 0.0
C253 C 1.11289 0.23172 0.52528 0.0
C254 C 1.13653 0.20342 0.54229 0.0
C255 C 1.10702 0.26654 0.54572 0.0
C256 C 1.14772 0.24427 0.60078 0.0
C257 C 1.12436 0.27281 0.58324 0.0
C258 C 1.15385 0.20963 0.57978 0.0
C259 C 1.04334 0.23055 0.36217 0.0
O260 O 0.96149 0.292 0.43901 0.0
O261 O 1.00313 0.2664 0.48325 0.0
O262 O 0.96518 0.32791 0.36211 0.0
O263 O 1.02259 0.32409 0.33518 0.0
O264 O 0.98659 0.34935 0.43897 0.0
O265 O 1.04431 0.33042 0.4528 0.0
O266 O 1.10341 0.31744 0.43401 0.0
O267 O 1.0698 0.34708 0.38588 0.0
O268 O 1.11065 0.24427 0.45608 0.0
O269 O 1.05744 0.22639 0.48504 0.0
O270 O 1.07596 0.2436 0.37549 0.0
O271 O 1.01856 0.24392 0.38733 0.0
H272 H 0.9122 0.32895 0.3015 0.0
H273 H 1.02248 0.27355 0.28123 0.0
H274 H 0.99712 0.24315 0.22045 0.0
H275 H 0.88694 0.29936 0.24117 0.0
H276 H 1.14164 0.1766 0.52658 0.0
H277 H 1.08891 0.28875 0.53269 0.0
H278 H 1.11891 0.29963 0.59882 0.0
H279 H 0.17224 0.18737 0.59225 0.0
Gd280 Gd 0.26302 0.75697 0.1493 0.0
Gd281 Gd 0.30486 0.79782 0.18875 0.0
C282 C 0.29612 0.7093 0.22653 0.0
C283 C 0.22569 0.72587 0.09087 0.0
C284 C 0.18454 0.71587 0.09066 0.0
C285 C 1.15719 0.73897 0.11094 0.0
C286 C 0.17294 0.68114 0.07363 0.0
C287 C 1.10657 0.6935 0.09506 0.0
C288 C 1.13435 0.67002 0.07581 0.0
C289 C 1.11836 0.72808 0.11269 0.0
C290 C 0.22428 0.75996 0.21896 0.0
C291 C 0.22833 0.84591 0.15885 0.0
C292 C 0.34883 0.83563 0.23772 0.0
C293 C 0.34187 0.85406 0.27734 0.0
C294 C 0.32003 0.88811 0.28048 0.0
C295 C 0.35633 0.83704 0.31266 0.0
C296 C 0.32766 0.88786 0.35352 0.0
C297 C 0.34916 0.85363 0.35035 0.0
C298 C 0.31301 0.9048 0.31818 0.0
C299 C 0.34148 0.78628 0.11165 0.0
O300 O 0.27882 0.70483 0.19095 0.0
O301 O 0.30939 0.74459 0.23322 0.0
O302 O 0.23372 0.7624 0.09168 0.0
O303 O 0.24667 0.70602 0.11598 0.0
O304 O 0.22424 0.73124 0.19444 0.0
O305 O 0.2433 0.78827 0.2054 0.0
O306 O 0.2561 0.84519 0.18659 0.0
O307 O 0.22753 0.81438 0.13604 0.0
O308 O 0.33179 0.85111 0.20659 0.0
O309 O 0.34746 0.79823 0.23694 0.0
O310 O 0.33083 0.81862 0.1274 0.0
O311 O 0.3274 0.76111 0.1357 0.0
H312 H 0.16576 0.76551 0.12532 0.0
H313 H 0.19372 0.66268 0.05854 0.0
H314 H 1.126 0.64371 0.06079 0.0
H315 H 1.09747 0.74687 0.12712 0.0
H316 H 0.30841 0.90204 0.25386 0.0
H317 H 0.37311 0.81076 0.31118 0.0
H318 H 0.36048 0.83961 0.37705 0.0
H319 H 0.29687 0.93146 0.31952 0.0
Gd320 Gd 1.05341 0.76972 0.53291 0.0
Gd321 Gd 1.01153 0.81104 0.57096 0.0
C322 C 1.10082 0.84579 0.56252 0.0
C323 C 1.09308 0.72476 0.48623 0.0
C324 C 1.11166 0.73148 0.4472 0.0
C325 C 1.1331 0.7023 0.42868 0.0
C326 C 1.10873 0.7676 0.4287 0.0
C327 C 1.14791 0.745 0.37259 0.0
C328 C 1.12682 0.77438 0.39166 0.0
C329 C 1.15111 0.70899 0.3916 0.0
C330 C 1.0416 0.73392 0.6102 0.0
C331 C 0.96494 0.77763 0.49304 0.0
C332 C 0.97736 0.84832 0.62777 0.0
C333 C 0.96302 0.88785 0.62544 0.0
C334 C 0.98237 0.91523 0.60163 0.0
C335 C 0.92805 0.89756 0.64399 0.0
C336 C 0.93305 0.96256 0.61743 0.0
C337 C 0.91317 0.93455 0.64005 0.0
C338 C 0.96769 0.95245 0.598 0.0
C339 C 1.01443 0.84894 0.50095 0.0
O340 O 1.10047 0.81833 0.53471 0.0
O341 O 1.06896 0.84627 0.58533 0.0
O342 O 1.10806 0.74363 0.5163 0.0
O343 O 1.05536 0.7261 0.4862 0.0
O344 O 1.07416 0.74501 0.59492 0.0
O345 O 1.01627 0.74746 0.58578 0.0
O346 O 0.95978 0.79528 0.52829 0.0
O347 O 1.00076 0.76438 0.48721 0.0
O348 O 1.01484 0.84397 0.62642 0.0
O349 O 0.95927 0.82412 0.60467 0.0
O350 O 0.98518 0.8485 0.52511 0.0
O351 O 1.04326 0.83055 0.51497 0.0
H352 H 1.1359 0.67442 0.44287 0.0
H353 H 1.09232 0.79042 0.44294 0.0
H354 H 1.12363 0.80225 0.37756 0.0
H355 H 0.16767 0.68599 0.37782 0.0
H356 H 1.00902 0.90794 0.5861 0.0
H357 H 0.91241 0.87663 0.6618 0.0
H358 H 0.88694 0.94166 0.65642 0.0
H359 H 0.98376 0.97353 0.58085 0.0
Gd360 Gd 0.30471 0.29921 0.78192 0.0
Gd361 Gd 0.26518 0.25815 0.82186 0.0
C362 C 0.22784 0.34647 0.81215 0.0
C363 C 0.34929 0.33784 0.73415 0.0
C364 C 0.34231 0.3564 0.6953 0.0
C365 C 0.37177 0.37734 0.67675 0.0
C366 C 0.30578 0.35397 0.67702 0.0
C367 C 0.32859 0.39256 0.62095 0.0
C368 C 0.2989 0.37202 0.64007 0.0
C369 C 0.36499 0.39532 0.63979 0.0
C370 C 0.34335 0.28663 0.85746 0.0
C371 C 0.29661 0.21098 0.74375 0.0
C372 C 0.24557 0.22927 0.89029 0.0
C373 C 0.26859 0.21112 0.92253 0.0
C374 C 0.26259 0.17243 0.93148 0.0
C375 C 0.29623 0.23185 0.94478 0.0
C376 C 0.30626 0.1771 0.98903 0.0
C377 C 0.31509 0.21489 0.97761 0.0
C378 C 0.28134 1.15551 0.96413 0.0
C379 C 0.22358 0.25969 0.75468 0.0
O380 O 0.25642 0.3468 0.78528 0.0
O381 O 0.22641 0.31406 0.83368 0.0
O382 O 0.3308 0.35302 0.76451 0.0
O383 O 0.34756 0.30049 0.73404 0.0
O384 O 0.3301 0.31896 0.84402 0.0
O385 O 0.33 0.26199 0.83244 0.0
O386 O 0.28193 0.20586 0.78059 0.0
O387 O 0.3077 0.24686 0.73621 0.0
O388 O 0.24311 0.21021 0.85647 0.0
O389 O 0.25064 0.26601 0.88485 0.0
O390 O 0.22402 0.23134 0.77999 0.0
O391 O 0.24292 0.28851 0.76675 0.0
H392 H 0.39996 0.37976 0.69082 0.0
H393 H 0.28274 0.33795 0.69132 0.0
H394 H 0.27073 0.36924 0.62607 0.0
H395 H 0.3882 0.41147 0.62595 0.0
H396 H 0.24192 1.1557 0.9144 0.0
H397 H 0.30202 0.26166 0.9381 0.0
H398 H 0.33426 0.23223 -0.00413 0.0
H399 H 0.2732 1.12646 0.97184 0.0
Gd400 Gd 0.77465 0.54994 0.03303 0.0
Gd401 Gd 0.81637 0.5087 0.07082 0.0
C402 C 0.72714 0.47378 0.06224 0.0
C403 C 0.73513 0.59497 0.9865 0.0
C404 C 0.71684 0.58818 0.94738 0.0
C405 C 0.69282 0.61614 0.93036 0.0
C406 C 0.72234 0.553 0.92752 0.0
C407 C 0.68064 0.5742 0.87294 0.0
C408 C 0.7043 0.54599 0.89054 0.0
C409 C 0.67483 0.60922 0.89336 0.0
C410 C 0.7865 0.58582 0.11026 0.0
C411 C 0.86308 0.54211 -0.00701 0.0
C412 C 0.84989 0.47149 0.128 0.0
C413 C 0.86311 0.43154 0.12651 0.0
C414 C 0.84271 0.40408 0.10382 0.0
C415 C 0.89813 0.42143 0.14464 0.0
C416 C 0.89121 0.35601 0.11977 0.0
C417 C 0.91208 0.38404 0.14132 0.0
C418 C 0.85646 0.36644 0.10086 0.0
C419 C 0.81372 0.47067 0.00086 0.0
O420 O 0.72743 0.50148 0.03471 0.0
O421 O 0.75905 0.47313 0.08487 0.0
O422 O 0.72002 0.57598 0.01643 0.0
O423 O 0.77285 0.5938 0.98664 0.0
O424 O 0.75393 0.57459 0.09516 0.0
O425 O 0.81181 0.57229 0.08574 0.0
O426 O 0.86825 0.52461 0.0283 0.0
O427 O 0.82724 0.5552 0.98716 0.0
O428 O 0.81254 0.47688 0.12695 0.0
O429 O 0.8685 0.49464 0.10413 0.0
O430 O 0.84285 0.47109 0.02512 0.0
O431 O 0.78484 0.48913 0.01477 0.0
H432 H 0.68796 0.64322 0.94565 0.0
H433 H 0.74072 0.53108 0.94063 0.0
H434 H 0.70952 0.51893 0.87535 0.0
H435 H 0.65627 0.63126 0.88074 0.0
H436 H 0.81602 0.41164 0.0886 0.0
H437 H 0.91455 0.44239 0.16159 0.0
H438 H 0.93843 0.37668 0.15728 0.0
H439 H 0.83964 0.34534 0.08456 0.0
Gd440 Gd 0.52302 1.02039 0.28169 0.0
Gd441 Gd 0.56299 1.06202 0.32185 0.0
C442 C 0.60007 0.97345 0.31266 0.0
C443 C 0.47989 0.98179 0.23272 0.0
C444 C 0.48757 0.96424 0.19297 0.0
C445 C 0.4881 0.92412 0.18931 0.0
C446 C 0.49664 0.98689 0.15913 0.0
C447 C 0.50658 0.92952 0.11878 0.0
C448 C 0.50586 0.96964 0.1223 0.0
C449 C 0.49778 0.90689 0.15258 0.0
C450 C 0.48451 1.03298 0.35738 0.0
C451 C 0.53159 1.10869 0.24343 0.0
C452 C 0.58267 1.09164 0.38987 0.0
C453 C 0.55976 1.11019 0.422 0.0
C454 C 0.56642 1.14875 0.43101 0.0
C455 C 0.53162 1.08996 0.44412 0.0
C456 C 0.52249 1.14481 0.48851 0.0
C457 C 0.51297 1.10721 0.47697 0.0
C458 C 0.54787 0.16598 0.46366 0.0
C459 C 0.60431 1.05932 0.25439 0.0
O460 O 0.57146 0.97289 0.28585 0.0
O461 O 0.60164 1.00608 0.33385 0.0
O462 O 0.49825 0.96628 0.26297 0.0
O463 O 0.47956 1.0192 0.23452 0.0
O464 O 0.49705 1.00054 0.34347 0.0
O465 O 0.49813 1.05767 0.33251 0.0
O466 O 0.54619 1.11398 0.28025 0.0
O467 O 0.52048 1.07278 0.23599 0.0
O468 O 0.58508 1.11034 0.35582 0.0
O469 O 0.57754 1.05484 0.38488 0.0
O470 O 0.60445 1.08795 0.27937 0.0
O471 O 0.58478 1.03092 0.26707 0.0
H472 H 0.48129 0.90607 0.21498 0.0
H473 H 0.49687 1.0179 0.16103 0.0
H474 H 0.51253 0.98763 0.09655 0.0
H475 H 0.49753 0.87588 0.15035 0.0
H476 H 0.58748 0.16511 0.41399 0.0
H477 H 0.52529 1.06027 0.43734 0.0
H478 H 0.49342 1.0902 0.49518 0.0
H479 H 0.55652 0.19486 0.47145 0.0
Gd480 Gd 0.31735 0.50761 0.39865 0.0
Gd481 Gd 0.27559 0.54922 0.43756 0.0
C482 C 0.36446 0.54031 0.47643 0.0
C483 C 0.34942 0.47042 0.34052 0.0
C484 C 0.35951 0.42955 0.34055 0.0
C485 C 0.33638 0.40286 0.36137 0.0
C486 C 0.39436 0.41757 0.32324 0.0
C487 C 0.38199 0.35209 0.34541 0.0
C488 C 0.40553 0.37922 0.32563 0.0
C489 C 0.34732 0.36429 0.36335 0.0
C490 C 0.31414 0.46926 0.46815 0.0
C491 C 0.22788 0.47304 0.40779 0.0
C492 C 0.23696 0.59356 0.4858 0.0
C493 C 0.21924 0.58755 0.526 0.0
C494 C 0.17979 0.5783 0.5292 0.0
C495 C 0.24164 0.58965 0.56136 0.0
C496 C 0.18568 0.57265 0.60209 0.0
C497 C 0.225 0.5823 0.59902 0.0
C498 C 1.16324 0.57069 0.56684 0.0
C499 C 0.28746 0.58517 0.36048 0.0
O500 O 0.36948 0.52339 0.44074 0.0
O501 O 0.32863 0.55328 0.48288 0.0
O502 O 0.31255 0.47862 0.34091 0.0
O503 O 0.36914 0.49113 0.36584 0.0
O504 O 0.34327 0.46916 0.44381 0.0
O505 O 0.28557 0.48829 0.45461 0.0
O506 O 0.22807 0.50092 0.43521 0.0
O507 O 0.25993 0.47208 0.3853 0.0
O508 O 0.22123 0.57496 0.4559 0.0
O509 O 0.27469 0.5932 0.48394 0.0
O510 O 0.25481 0.5745 0.37592 0.0
O511 O 0.31279 0.57134 0.38474 0.0
H512 H 0.30978 0.41175 0.37599 0.0
H513 H 0.41286 0.43784 0.30775 0.0
H514 H 0.43191 0.37054 0.31039 0.0
H515 H 0.32848 0.34392 0.37821 0.0
H516 H 1.16169 0.57676 0.50254 0.0
H517 H 0.2721 0.59674 0.56003 0.0
H518 H 0.24296 0.58395 0.62577 0.0
H519 H 1.13269 0.56402 0.56845 0.0
Gd520 Gd 1.06617 1.06077 0.14862 0.0
Gd521 Gd 1.02433 1.01994 0.18744 0.0
C522 C 1.03322 1.10796 0.22647 0.0
C523 C 1.10359 1.09226 0.09042 0.0
C524 C 1.14458 1.10288 0.09052 0.0
C525 C 0.1721 1.08016 0.11095 0.0
C526 C 1.1558 1.13779 0.07364 0.0
C527 C 0.22217 1.12638 0.09545 0.0
C528 C 0.1942 1.14947 0.07608 0.0
C529 C 0.21075 1.09162 0.11296 0.0
C530 C 1.1049 1.05775 0.21807 0.0
C531 C 1.10105 0.97191 0.15816 0.0
C532 C 0.97904 0.98156 0.23473 0.0
C533 C 0.98575 0.96315 0.27383 0.0
C534 C 0.95781 0.93874 0.29011 0.0
C535 C 1.02086 0.96865 0.29427 0.0
C536 C 0.99955 0.92615 0.34789 0.0
C537 C 1.02778 0.95022 0.33106 0.0
C538 C 0.96463 0.92037 0.32688 0.0
C539 C 0.9883 1.03167 0.11017 0.0
O540 O 1.05043 1.11268 0.19083 0.0
O541 O 1.01992 1.07261 0.2328 0.0
O542 O 1.09613 1.05561 0.09127 0.0
O543 O 1.08206 1.11187 0.1153 0.0
O544 O 1.10486 1.08651 0.19362 0.0
O545 O 1.08577 1.02944 0.20469 0.0
O546 O 1.07312 0.97263 0.18577 0.0
O547 O 1.1019 1.00342 0.13534 0.0
O548 O 0.99782 0.96623 0.20463 0.0
O549 O 0.98061 1.01893 0.23451 0.0
O550 O 0.9994 0.99934 0.12555 0.0
O551 O 1.00192 1.05675 0.13457 0.0
H552 H 1.1638 1.05349 0.12523 0.0
H553 H 1.13488 1.15596 0.05845 0.0
H554 H 0.20228 0.17592 0.06116 0.0
H555 H 0.23178 1.07313 0.1275 0.0
H556 H 0.9308 0.93383 0.27437 0.0
H557 H 1.04278 0.9873 0.28175 0.0
H558 H 1.05477 0.95542 0.34669 0.0
H559 H 0.94258 0.9015 0.33886 0.0
Gd560 Gd 0.51315 0.81076 0.89901 0.0
Gd561 Gd 0.55514 0.76821 0.93748 0.0
C562 C 0.4662 0.77791 0.97676 0.0
C563 C 0.4808 0.84826 0.84136 0.0
C564 C 0.47096 0.88918 0.84125 0.0
C565 C 0.49451 0.91594 0.86141 0.0
C566 C 0.43598 0.90119 0.82435 0.0
C567 C 0.44904 0.96683 0.8455 0.0
C568 C 0.42508 0.93963 0.82645 0.0
C569 C 0.48384 0.95462 0.86308 0.0
C570 C 0.51809 0.84846 0.96889 0.0
C571 C 0.60293 0.84461 0.90728 0.0
C572 C 0.59349 0.72373 0.98564 0.0
C573 C 0.61079 0.72986 0.02595 0.0
C574 C 0.65087 0.73558 0.02957 0.0
C575 C 0.58754 0.73182 0.06082 0.0
C576 C 0.64403 0.74581 0.10185 0.0
C577 C 0.60405 0.73961 0.0984 0.0
C578 C 0.6673 0.74374 0.06712 0.0
C579 C 0.54277 0.73282 0.86033 0.0
O580 O 0.46118 0.79513 0.94129 0.0
O581 O 0.50196 0.76458 0.98292 0.0
O582 O 0.51762 0.83978 0.84127 0.0
O583 O 0.46118 0.82782 0.86706 0.0
O584 O 0.48862 0.8496 0.94507 0.0
O585 O 0.54597 0.82903 0.95454 0.0
O586 O 0.60291 0.81641 0.93439 0.0
O587 O 0.57063 0.84606 0.8853 0.0
O588 O 0.60946 0.7425 0.95597 0.0
O589 O 0.55578 0.7239 0.98345 0.0
O590 O 0.57558 0.74276 0.87583 0.0
O591 O 0.51757 0.74695 0.88468 0.0
H592 H 0.52123 0.90704 0.8757 0.0
H593 H 0.41717 0.88087 0.80938 0.0
H594 H 0.39859 0.9483 0.81151 0.0
H595 H 0.503 0.97504 0.87737 0.0
H596 H 0.66952 0.73404 0.00327 0.0
H597 H 0.55655 0.72764 0.05915 0.0
H598 H 0.5855 0.74108 0.12478 0.0
H599 H 0.69831 0.74775 0.06911 0.0
Gd600 Gd 0.76404 0.25722 0.64883 0.0
Gd601 Gd 0.80574 0.29819 0.68777 0.0
C602 C 0.79703 0.21006 0.72652 0.0
C603 C 0.72673 0.22588 0.59053 0.0
C604 C 0.68557 0.21594 0.59041 0.0
C605 C 0.65834 0.23902 0.61088 0.0
C606 C 0.67384 0.18129 0.5733 0.0
C607 C 0.60756 0.19373 0.59499 0.0
C608 C 0.63523 0.17025 0.57556 0.0
C609 C 0.61949 0.22821 0.61272 0.0
C610 C 0.72518 0.26025 0.71828 0.0
C611 C 0.72901 0.34608 0.65845 0.0
C612 C 0.85066 0.33679 0.7352 0.0
C613 C 0.84366 0.35549 0.77415 0.0
C614 C 0.87161 0.37976 0.79058 0.0
C615 C 0.80829 0.35037 0.79432 0.0
C616 C 0.82939 0.39295 0.84798 0.0
C617 C 0.80114 0.36903 0.83098 0.0
C618 C 0.86456 0.39837 0.82722 0.0
C619 C 0.84203 0.28631 0.61052 0.0
O620 O 0.77993 0.20532 0.69087 0.0
O621 O 0.81019 0.24545 0.73296 0.0
O622 O 0.73479 0.26241 0.59115 0.0
O623 O 0.74768 0.20613 0.61574 0.0
O624 O 0.72533 0.23145 0.69386 0.0
O625 O 0.74424 0.28859 0.70484 0.0
O626 O 0.75688 0.34542 0.68604 0.0
O627 O 0.72824 0.31453 0.63565 0.0
O628 O 0.83221 0.35196 0.70485 0.0
O629 O 0.84901 0.29942 0.73519 0.0
O630 O 0.83094 0.31868 0.62588 0.0
O631 O 0.82833 0.26128 0.63494 0.0
H632 H 0.66701 0.26549 0.62534 0.0
H633 H 0.69453 0.16283 0.55808 0.0
H634 H 0.62677 1.14401 0.56049 0.0
H635 H 0.5987 0.247 0.62732 0.0
H636 H 0.89882 0.38439 0.77505 0.0
H637 H 0.78635 0.33183 0.78169 0.0
H638 H 0.77395 0.3641 0.84641 0.0
H639 H 0.88665 0.4171 0.8393 0.0
C640 C 0.6492 0.39599 0.09951 0.0
C641 C 0.63338 0.37986 0.06346 0.0
H642 H 0.69006 0.43507 0.12821 0.0
C643 C 0.64944 0.39578 0.02746 0.0
H644 H 0.63883 0.38559 0.12835 0.0
C645 C 0.67821 0.42581 0.02739 0.0
C646 C 0.69468 0.44143 0.0633 0.0
H647 H 0.63914 0.38535 -0.0014 0.0
H648 H 0.68824 0.43641 -0.00152 0.0
C649 C 0.67929 0.42498 0.09942 0.0
C650 C 0.67552 0.89251 0.34905 0.0
C651 C 0.69455 0.87961 0.31315 0.0
H652 H 0.63392 0.93103 0.37803 0.0
C653 C 0.68147 0.89877 0.27757 0.0
H654 H 0.68357 0.8796 0.37758 0.0
C655 C 0.65138 0.92771 0.27765 0.0
C656 C 0.63287 0.94122 0.31352 0.0
H657 H 0.69414 0.89076 0.24882 0.0
H658 H 0.64295 0.94016 0.24899 0.0
C659 C 0.64645 0.92271 0.34933 0.0
C660 C 0.17907 0.92314 0.60001 0.0
C661 C 0.19455 0.93974 0.56401 0.0
H662 H 1.13848 0.88367 0.62862 0.0
C663 C 0.17816 0.92428 0.52798 0.0
H664 H 0.1897 0.93317 0.62887 0.0
C665 C 1.14941 0.89424 0.52781 0.0
C666 C 1.13326 0.87816 0.56368 0.0
H667 H 0.1882 0.93507 0.49915 0.0
H668 H 1.13912 0.88401 0.49887 0.0
C669 C 1.14899 0.89414 0.59986 0.0
C670 C 1.14982 0.42483 0.84903 0.0
C671 C 1.13361 0.44046 0.81288 0.0
H672 H 0.18906 0.38403 0.87796 0.0
C673 C 1.14944 0.42403 0.77697 0.0
H674 H 1.13949 0.43554 0.87781 0.0
C675 C 0.17951 0.39508 0.77706 0.0
C676 C 0.19519 0.37882 0.81307 0.0
H677 H 1.13897 0.43421 0.74806 0.0
H678 H 0.19013 0.38479 0.74821 0.0
C679 C 0.17883 0.39459 0.84912 0.0
C680 C 0.68304 0.92043 0.94175 0.0
C681 C 0.69624 0.93903 0.90592 0.0
H682 H 0.64667 0.87752 0.97053 0.0
C683 C 0.67784 0.92532 0.87011 0.0
H684 H 0.69543 0.92892 0.97042 0.0
C685 C 0.64802 0.89608 0.87035 0.0
C686 C 0.63545 0.87694 0.90621 0.0
H687 H 0.68593 0.93788 0.84143 0.0
H688 H 0.6351 0.88801 0.84183 0.0
C689 C 0.6545 0.89017 0.9418 0.0
C690 C 0.65006 0.42317 0.69392 0.0
C691 C 0.63413 0.43946 0.65804 0.0
H692 H 0.69103 0.38423 0.72258 0.0
C693 C 0.65058 0.42403 0.62186 0.0
H694 H 0.63947 0.43326 0.72285 0.0
C695 C 0.67985 0.39405 0.6217 0.0
C696 C 0.69632 0.37841 0.6577 0.0
H697 H 0.64025 0.4347 0.59311 0.0
H698 H 0.69019 0.38358 0.59283 0.0
C699 C 0.68041 0.39448 0.69376 0.0
C700 C 1.14933 0.39574 0.44249 0.0
C701 C 1.13454 0.3787 0.40649 0.0
H702 H 0.18697 0.4374 0.47145 0.0
C703 C 1.15142 0.39391 0.3705 0.0
H704 H 1.13815 0.38606 0.4713 0.0
C705 C 0.18131 0.42308 0.37067 0.0
C706 C 0.19544 0.44066 0.40675 0.0
H707 H 1.14206 0.38262 0.34167 0.0
H708 H 0.19299 0.43239 0.34195 0.0
C709 C 0.17791 0.42595 0.44257 0.0
C710 C 0.17913 0.89349 0.12159 0.0
C711 C 0.19581 0.8784 0.15776 0.0
H712 H 1.13937 0.9337 0.09254 0.0
C713 C 0.18015 0.89509 0.19363 0.0
H714 H 0.18925 0.8825 0.09285 0.0
C715 C 1.14985 0.92382 0.19347 0.0
C716 C 1.1337 0.93954 0.15741 0.0
H717 H 0.19093 0.88529 0.22256 0.0
H718 H 1.13943 0.93438 0.22229 0.0
C719 C 1.1499 0.9235 0.12141 0.0
C720 C 0.40318 0.25294 0.89497 0.0
C721 C 0.37408 0.28206 0.89301 0.0
H722 H 0.45394 0.22887 0.92505 0.0
C723 C 0.37598 0.30875 0.92566 0.0
H724 H 0.40423 0.23157 0.87126 0.0
C725 C 0.40411 0.30638 0.95785 0.0
C726 C 0.43378 0.27791 0.95946 0.0
H727 H 0.35514 0.33199 0.9266 0.0
H728 H 0.40314 0.32802 0.9813 0.0
C729 C 0.43234 0.25139 0.92651 0.0
C730 C 0.76358 0.61996 0.17762 0.0
C731 C 0.79076 0.61704 0.14522 0.0
H732 H 0.74377 0.64838 0.23248 0.0
C733 C 0.82007 0.64578 0.14667 0.0
H734 H 0.74008 0.59956 0.17885 0.0
C735 C 0.82146 0.67538 0.17755 0.0
C736 C 0.79457 0.67776 0.21036 0.0
H737 H 0.84175 0.64617 0.12304 0.0
H738 H 0.8442 0.69658 0.1757 0.0
C739 C 0.76578 0.64859 0.20918 0.0
C740 C 0.45197 1.01102 0.42575 0.0
C741 C 0.45383 1.03766 0.39307 0.0
H742 H 0.42487 0.9918 0.4815 0.0
C743 C 0.42472 1.06676 0.39512 0.0
H744 H 0.47283 0.9878 0.42664 0.0
C745 C 0.39556 1.06832 0.42675 0.0
C746 C 0.39415 1.04184 0.45972 0.0
H747 H 0.42363 1.08809 0.37139 0.0
H748 H 0.37393 1.09081 0.42533 0.0
C749 C 0.42386 1.01341 0.45804 0.0
C750 C 1.06458 0.69981 0.67743 0.0
C751 C 1.03733 0.70277 0.64519 0.0
H752 H 1.08446 0.67138 0.73219 0.0
C753 C 1.00793 0.67413 0.6468 0.0
H754 H 1.08815 0.72013 0.67852 0.0
C755 C 1.00653 0.64457 0.6777 0.0
C756 C 1.0335 0.64215 0.71035 0.0
H757 H 0.98619 0.67378 0.62329 0.0
H758 H 0.98372 0.62344 0.67598 0.0
C759 C 1.06238 0.67122 0.70901 0.0
C760 C 0.92583 1.01104 0.01103 0.0
C761 C 0.89643 1.03979 0.00941 0.0
H762 H 0.97502 0.98538 0.04192 0.0
C763 C 0.89853 1.06666 0.042 0.0
H764 H 0.92625 0.98906 0.98791 0.0
C765 C 0.92813 1.06526 0.07311 0.0
C766 C 0.9571 1.03599 0.07498 0.0
H767 H 0.87714 1.08938 0.04349 0.0
H768 H 0.92754 1.0869 0.09656 0.0
C769 C 0.95443 1.00885 0.04281 0.0
C770 C 0.56593 0.69792 0.79373 0.0
C771 C 0.5381 0.70173 0.82538 0.0
H772 H 0.58612 0.66889 0.73946 0.0
C773 C 0.50793 0.67391 0.82327 0.0
H774 H 0.59009 0.71757 0.79307 0.0
C775 C 0.50632 0.64433 0.79238 0.0
C776 C 0.53393 0.6411 0.76032 0.0
H777 H 0.48572 0.67424 0.84636 0.0
H778 H 0.48289 0.62386 0.79363 0.0
C779 C 0.56358 0.66935 0.7622 0.0
C780 C 0.90236 0.25273 0.5736 0.0
C781 C 0.87324 0.28187 0.57529 0.0
H782 H 0.9535 0.22863 0.54409 0.0
C783 C 0.87579 0.30876 0.54288 0.0
H784 H 0.90304 0.23128 0.59723 0.0
C785 C 0.90441 0.30643 0.51106 0.0
C786 C 0.93398 0.27783 0.50963 0.0
H787 H 0.85508 0.33212 0.54185 0.0
H788 H 0.90388 0.3282 0.48774 0.0
C789 C 0.93199 0.25122 0.54245 0.0
C790 C 0.32211 0.64394 0.32301 0.0
C791 C 0.29184 0.61625 0.3255 0.0
H792 H 0.34716 0.6938 0.293 0.0
C793 C 0.2638 0.62008 0.29413 0.0
H794 H 0.3445 0.64356 0.34584 0.0
C795 C 0.26603 0.64858 0.26253 0.0
C796 C 0.2958 0.67669 0.26026 0.0
H797 H 0.23956 0.60052 0.29376 0.0
H798 H 0.24331 0.64911 0.24004 0.0
C799 C 0.32362 0.67343 0.29205 0.0
C800 C 0.90097 0.75202 0.39515 0.0
C801 C 0.873 0.78215 0.39219 0.0
H802 H 0.95082 0.727 0.4261 0.0
C803 C 0.87598 0.80975 0.42386 0.0
H804 H 0.90114 0.72988 0.37223 0.0
C805 C 0.90407 0.80737 0.45605 0.0
C806 C 0.93265 0.77789 0.45868 0.0
H807 H 0.85603 0.83376 0.42402 0.0
H808 H 0.90392 0.82976 0.47871 0.0
C809 C 0.93013 0.75037 0.42673 0.0
C810 C 0.32239 0.17647 0.67658 0.0
C811 C 0.29599 0.17841 0.70985 0.0
H812 H 0.34188 1.14797 0.62132 0.0
C813 C 0.26729 1.14917 0.70879 0.0
H814 H 0.34508 0.1977 0.67466 0.0
C815 C 0.26461 1.12099 0.67684 0.0
C816 C 0.29119 1.1186 0.64386 0.0
H817 H 0.24569 1.14856 0.73249 0.0
H818 H 0.24121 1.10048 0.67824 0.0
C819 C 0.32054 1.14729 0.64528 0.0
C820 C 0.89788 0.56938 0.92665 0.0
C821 C 0.89539 0.54186 0.95859 0.0
H822 H 0.92683 0.58989 0.87208 0.0
C823 C 0.92398 0.51241 0.95587 0.0
H824 H 0.87716 0.59273 0.92608 0.0
C825 C 0.95207 0.51005 0.9236 0.0
C826 C 0.95502 0.53765 0.89194 0.0
H827 H 0.92415 0.49001 0.97852 0.0
H828 H 0.97204 0.48605 0.92369 0.0
C829 C 0.92702 0.56775 0.895 0.0
C830 C 0.56065 0.17066 0.20843 0.0
C831 C 0.53214 1.14121 0.20947 0.0
H832 H 0.5865 0.21952 0.17795 0.0
C833 C 0.50586 1.14297 0.17614 0.0
H834 H 0.58216 0.17142 0.23216 0.0
C835 C 0.50763 0.17216 0.14484 0.0
C836 C 0.53679 0.20106 0.14346 0.0
H837 H 0.48332 1.12158 0.17418 0.0
H838 H 0.48639 0.17131 0.12085 0.0
C839 C 0.56325 0.19885 0.17649 0.0
C840 C 0.42557 0.5103 0.51294 0.0
C841 C 0.39706 0.53988 0.51049 0.0
H842 H 0.47394 0.48393 0.54453 0.0
C843 C 0.39993 0.56743 0.54236 0.0
H844 H 0.42535 0.48778 0.4904 0.0
C845 C 0.42945 0.56586 0.57356 0.0
C846 C 0.45753 0.53579 0.57624 0.0
H847 H 0.37925 0.59081 0.5432 0.0
H848 H 0.42951 0.58806 0.59643 0.0
C849 C 0.45407 0.508 0.54479 0.0
C850 C 1.06591 0.19678 0.2946 0.0
C851 C 1.0386 0.19981 0.32684 0.0
H852 H 1.08545 0.16883 0.23944 0.0
C853 C 1.00853 0.17191 0.32459 0.0
H854 H 1.08986 0.21668 0.29384 0.0
C855 C 1.00664 1.14284 0.29317 0.0
C856 C 1.03381 1.14026 0.26064 0.0
H857 H 0.98659 0.17178 0.34796 0.0
H858 H 0.98332 1.12224 0.2944 0.0
C859 C 1.06327 0.16872 0.26256 0.0
C860 C 0.37606 0.8096 0.04491 0.0
C861 C 0.37275 0.78192 0.07646 0.0
H862 H 0.40477 0.82986 -0.00951 0.0
C863 C 0.40113 0.7521 0.07395 0.0
H864 H 0.35595 0.83347 0.04451 0.0
C865 C 0.43079 0.75068 0.0428 0.0
C866 C 0.43354 0.77815 0.01085 0.0
H867 H 0.40118 0.73001 0.09692 0.0
H868 H 0.45169 0.7275 0.04376 0.0
C869 C 0.40471 0.80745 0.01313 0.0
C870 C 0.76704 1.14923 0.76252 0.0
C871 C 0.79649 0.1777 0.76058 0.0
H872 H 0.74048 1.10121 0.79375 0.0
C873 C 0.8237 0.17506 0.793 0.0
H874 H 0.74483 1.14918 0.73948 0.0
C875 C 0.82185 1.14592 0.82433 0.0
C876 C 0.79177 1.11801 0.8266 0.0
H877 H 0.84701 0.19566 0.79421 0.0
H878 H 0.84381 1.146 0.84762 0.0
C879 C 0.76443 1.12111 0.79448 0.0
C880 C 0.66568 0.22178 0.80374 0.0
C881 C 0.66684 0.25184 0.83182 0.0
H882 H 0.68289 0.20127 0.74592 0.0
C883 C 0.68501 0.28647 0.82114 0.0
H884 H 0.65114 0.19512 0.81075 0.0
C885 C 0.70309 0.29022 0.78344 0.0
C886 C 0.70305 0.25941 0.75617 0.0
H887 H 0.68622 0.31012 0.84232 0.0
H888 H 0.71769 0.31672 0.77603 0.0
C889 C 0.6836 0.2255 0.76642 0.0
C890 C 0.85143 0.90221 0.04582 0.0
C891 C 0.8224 0.90582 0.07526 0.0
H892 H 0.87165 0.91894 0.98753 0.0
C893 C 0.78944 0.92823 0.0668 0.0
H894 H 0.87737 0.88559 0.05169 0.0
C895 C 0.7861 0.94739 0.02983 0.0
C896 C 0.81576 0.94452 0.001 0.0
H897 H 0.76649 0.93124 0.08891 0.0
H898 H 0.7609 0.96521 0.0243 0.0
C899 C 0.84818 0.92143 0.00912 0.0
C900 C 1.146 1.09269 0.26642 0.0
C901 C 1.12666 1.05873 0.25613 0.0
H902 H 0.1779 1.12331 0.31097 0.0
C903 C 1.12629 1.02806 0.28354 0.0
H904 H 1.14695 1.11682 0.24582 0.0
C905 C 1.14393 1.032 0.32141 0.0
C906 C 1.16197 1.06669 0.33212 0.0
H907 H 1.11176 1.00153 0.27611 0.0
H908 H 1.14249 1.00845 0.34268 0.0
C909 C 1.16345 1.09661 0.30392 0.0
C910 C 1.04526 0.37491 0.52795 0.0
C911 C 1.01367 0.37311 0.50144 0.0
H912 H 1.06647 0.39538 0.58483 0.0
C913 C 0.97895 0.39167 0.51183 0.0
H914 H 1.07233 0.36077 0.52058 0.0
C915 C 0.97545 0.41102 0.5484 0.0
C916 C 1.00667 0.41243 0.57544 0.0
H917 H 0.95396 0.39042 0.49215 0.0
H918 H 0.94781 0.42387 0.55601 0.0
C919 C 1.04179 0.39447 0.56472 0.0
C920 C 0.6729 1.09222 0.17343 0.0
C921 C 0.66591 1.0656 0.14253 0.0
H922 H 0.65882 1.11091 0.23308 0.0
C923 C 0.64026 1.0351 0.14964 0.0
H924 H 0.69215 1.11623 0.1686 0.0
C925 C 0.62131 1.03183 0.18685 0.0
C926 C 0.62747 1.05929 0.21715 0.0
H927 H 0.63457 1.01409 0.12629 0.0
H928 H 0.60092 1.00869 0.19139 0.0
C929 C 0.65372 1.0892 0.21029 0.0
C930 C 0.53929 0.39251 0.90187 0.0
C931 C 0.50398 0.41015 0.89135 0.0
H932 H 0.57048 0.35976 0.94631 0.0
C933 C 0.47344 0.40994 0.91931 0.0
H934 H 0.56331 0.39212 0.88082 0.0
C935 C 0.47755 0.39158 0.95638 0.0
C936 C 0.51231 0.37296 0.96652 0.0
H937 H 0.44615 0.42387 0.91246 0.0
H938 H 0.45302 0.39133 0.97679 0.0
C939 C 0.5434 0.37393 0.9392 0.0
C940 C 0.20079 0.28885 0.68953 0.0
C941 C 0.20128 0.25811 0.71689 0.0
H942 H 0.18357 0.30851 0.63079 0.0
C943 C 0.1825 0.22383 0.70664 0.0
H944 H 0.21503 0.31557 0.69681 0.0
C945 C 0.16457 0.2198 0.6693 0.0
C946 C 0.16503 0.24994 0.64124 0.0
H947 H 0.18238 0.1996 0.72713 0.0
H948 H 1.15055 0.19288 0.66228 0.0
C949 C 0.18271 0.28481 0.65192 0.0
C950 C 0.35014 0.9278 0.45695 0.0
C951 C 0.31534 0.9462 0.46744 0.0
H952 H 0.38142 0.89571 0.41278 0.0
C953 C 0.28379 0.94433 0.44088 0.0
H954 H 0.37513 0.92908 0.47662 0.0
C955 C 0.28737 0.92482 0.40402 0.0
C956 C 0.32254 0.90692 0.39329 0.0
H957 H 0.25666 0.95832 0.44829 0.0
H958 H 0.2627 0.92384 0.3839 0.0
C959 C 0.35372 0.90848 0.42035 0.0
C960 C 0.18665 0.78447 0.32337 0.0
C961 C 0.16544 0.75111 0.33231 0.0
H962 H 0.22226 0.81371 0.27989 0.0
C963 C 1.16152 0.72273 0.30262 0.0
H964 H 0.19012 0.80678 0.34585 0.0
C965 C 0.17959 0.72674 0.26536 0.0
C966 C 0.20198 0.75926 0.2568 0.0
H967 H 1.14471 0.69713 0.30832 0.0
H968 H 0.17665 0.70375 0.24355 0.0
C969 C 0.20495 0.78848 0.28578 0.0
C970 C 0.35091 0.4056 0.55095 0.0
C971 C 0.32244 0.41003 0.58078 0.0
H972 H 0.37013 0.4205 0.49195 0.0
C973 C 0.28906 0.4318 0.57216 0.0
H974 H 0.37651 0.38835 0.55645 0.0
C975 C 0.28518 0.45022 0.53475 0.0
C976 C 0.31457 0.44681 0.50567 0.0
H977 H 0.2667 0.43565 0.59478 0.0
H978 H 0.25998 0.468 0.5291 0.0
C979 C 0.34704 0.4238 0.51388 0.0
C980 C 0.64677 0.5935 0.7668 0.0
C981 C 0.62728 0.55949 0.75698 0.0
H982 H 0.6791 0.62447 0.81075 0.0
C983 C 0.62699 0.52911 0.78477 0.0
H984 H 0.64767 0.61742 0.74593 0.0
C985 C 0.64497 0.53338 0.82246 0.0
C986 C 0.66324 0.5681 0.83265 0.0
H987 H 0.61229 0.50257 0.77776 0.0
H988 H 0.64363 0.51003 0.84398 0.0
C989 C 0.66452 0.59775 0.80412 0.0
C990 C 0.49492 0.90363 0.0092 0.0
C991 C 0.51996 0.87206 0.00545 0.0
H992 H 0.47149 0.94677 0.04811 0.0
C993 C 0.54313 0.86115 0.03827 0.0
H994 H 0.47674 0.91254 0.98422 0.0
C995 C 0.53967 0.88048 0.07517 0.0
C996 C 0.51358 0.91132 0.0792 0.0
H997 H 0.56238 0.83662 0.036 0.0
H998 H 0.55671 0.87091 0.10073 0.0
C999 C 0.49199 0.92329 0.04565 0.0
C1000 C 1.14213 0.53606 0.64904 0.0
C1001 C 0.16761 0.56676 0.64215 0.0
H1002 H 1.10298 0.50908 0.69061 0.0
C1003 C 0.17449 0.59313 0.67332 0.0
H1004 H 1.13655 0.5152 0.62551 0.0
C1005 C 1.15535 0.5897 0.71018 0.0
C1006 C 1.12923 0.55962 0.71681 0.0
H1007 H 0.19362 0.61729 0.66871 0.0
H1008 H 1.16036 0.61125 0.73316 0.0
C1009 C 1.12322 0.53237 0.68626 0.0
C1010 C 0.975 0.9086 0.41602 0.0
C1011 C 1.00543 0.90824 0.38801 0.0
H1012 H 0.95441 0.89056 0.47346 0.0
C1013 C 1.04062 0.89032 0.39851 0.0
H1014 H 0.94788 0.92288 0.40922 0.0
C1015 C 1.04459 0.87179 0.43592 0.0
C1016 C 1.01344 0.87116 0.46315 0.0
H1017 H 1.06459 0.8897 0.3774 0.0
H1018 H 1.07152 0.85743 0.44315 0.0
C1019 C 0.97894 0.8903 0.45304 0.0
C1020 C 0.65263 0.72793 0.17416 0.0
C1021 C 0.66174 0.75236 0.14189 0.0
H1022 H 0.66475 0.7116 0.23502 0.0
C1023 C 0.68901 0.78169 0.14774 0.0
H1024 H 0.632 0.7049 0.17034 0.0
C1025 C 0.7075 0.78587 0.18507 0.0
C1026 C 0.69934 0.7604 0.21675 0.0
H1027 H 0.69633 0.80102 0.1233 0.0
H1028 H 0.72918 0.80798 0.18865 0.0
C1029 C 0.67144 0.73175 0.21112 0.0
C1030 C 0.84934 0.42899 0.95321 0.0
C1031 C 0.81488 0.44835 0.96308 0.0
H1032 H 0.88056 0.39612 0.90964 0.0
C1033 C 0.78396 0.44785 0.93564 0.0
H1034 H 0.87371 0.42863 0.97377 0.0
C1035 C 0.78812 0.4292 0.89828 0.0
C1036 C 0.82329 0.41103 0.88802 0.0
H1037 H 0.75706 0.46241 0.94267 0.0
H1038 H 0.76433 0.42992 0.87702 0.0
C1039 C 0.85348 0.41058 0.91624 0.0
C1040 C 0.44334 0.27411 0.31128 0.0
C1041 C 0.41787 0.26199 0.28071 0.0
H1042 H 0.45056 0.31453 0.35917 0.0
C1043 C 0.37797 0.26299 0.28915 0.0
H1044 H 0.47437 0.27166 0.30752 0.0
C1045 C 0.36426 0.28856 0.31841 0.0
C1046 C 0.39087 0.31091 0.34005 0.0
H1047 H 0.35752 0.25141 0.2676 0.0
H1048 H 0.33376 0.29583 0.31834 0.0
C1049 C 0.4297 0.29904 0.34107 0.0
C1050 C 0.81209 0.62391 0.53767 0.0
C1051 C 0.81214 0.66361 0.53008 0.0
H1052 H 0.78038 0.57911 0.56644 0.0
C1053 C 0.79962 0.68817 0.56125 0.0
H1054 H 0.82393 0.6042 0.51551 0.0
C1055 C 0.77517 0.67378 0.59112 0.0
C1056 C 0.76411 0.63511 0.58951 0.0
H1057 H 0.80128 0.71903 0.558 0.0
H1058 H 0.75925 0.69391 0.60983 0.0
C1059 C 0.78701 0.60945 0.56703 0.0
C1060 C 0.38784 1.04481 0.81123 0.0
C1061 C 0.41303 1.05649 0.78016 0.0
H1062 H 0.38091 1.00505 0.85975 0.0
C1063 C 0.45304 1.05515 0.78789 0.0
H1064 H 0.35678 1.04746 0.80792 0.0
C1065 C 0.4669 1.02984 0.81726 0.0
C1066 C 0.4404 1.00799 0.83966 0.0
H1067 H 0.47331 1.06631 0.76587 0.0
H1068 H 0.49734 1.02232 0.8168 0.0
C1069 C 0.40166 1.02016 0.84112 0.0
C1070 C 1.0536 0.64601 0.09091 0.0
C1071 C 1.06517 0.68453 0.08945 0.0
H1072 H 1.02671 0.60126 0.05782 0.0
C1073 C 1.04255 0.71059 0.06726 0.0
H1074 H 1.06933 0.62561 0.10942 0.0
C1075 C 1.01711 0.6966 0.03803 0.0
C1076 C 1.01648 0.65693 0.03023 0.0
H1077 H 1.0496 0.74084 0.06681 0.0
H1078 H 1.00546 0.71658 0.01608 0.0
C1079 C 1.02878 0.63208 0.06119 0.0
C1080 C 0.86811 1.03764 0.65245 0.0
C1081 C 0.89481 1.05386 0.67955 0.0
H1082 H 0.8605 0.99359 0.60831 0.0
C1083 C 0.93384 1.05529 0.66755 0.0
H1084 H 0.8374 1.03795 0.65896 0.0
C1085 C 0.94726 1.0289 0.63895 0.0
C1086 C 0.92101 1.00313 0.62142 0.0
H1087 H 0.95489 1.06983 0.68628 0.0
H1088 H 0.97816 1.0241 0.63664 0.0
C1089 C 0.88136 1.01182 0.62332 0.0
C1090 C 0.87643 0.29039 0.1432 0.0
C1091 C 0.90261 0.31533 0.12424 0.0
H1092 H 0.8695 0.25023 0.19133 0.0
C1093 C 0.94213 0.30594 0.12485 0.0
H1094 H 0.84557 0.29581 0.14195 0.0
C1095 C 0.9558 0.28021 0.1538 0.0
C1096 C 0.92968 0.26478 0.18205 0.0
H1097 H 0.96283 0.32356 0.10878 0.0
H1098 H 0.9867 0.2794 0.15912 0.0
C1099 C 0.89024 0.2641 0.17163 0.0
C1100 C 0.31228 1.12436 0.03917 0.0
C1101 C 0.3125 0.16401 0.03128 0.0
H1102 H 0.28009 1.07977 0.06772 0.0
C1103 C 0.29945 0.18879 0.06204 0.0
H1104 H 0.32453 1.10449 0.01741 0.0
C1105 C 0.27449 0.17461 0.09156 0.0
C1106 C 0.26348 1.13592 0.09008 0.0
H1107 H 0.3012 0.21962 0.05864 0.0
H1108 H 0.25831 0.19486 0.10986 0.0
C1109 C 0.2867 1.11011 0.06817 0.0
C1110 C 0.55442 1.14641 0.59085 0.0
C1111 C 0.56612 0.18489 0.58952 0.0
H1112 H 0.52682 1.102 0.55792 0.0
C1113 C 0.54336 0.21119 0.56779 0.0
H1114 H 0.57026 1.12583 0.60903 0.0
C1115 C 0.51745 0.19749 0.53886 0.0
C1116 C 0.51649 1.15788 0.53082 0.0
H1117 H 0.55054 0.2414 0.56747 0.0
H1118 H 0.50558 0.21767 0.51724 0.0
C1119 C 0.52911 1.13278 0.56143 0.0
loop_
_geom_bond_atom_site_label_1
_geom_bond_atom_site_label_2
_geom_bond_distance
_geom_bond_site_symmetry_2
_ccdc_geom_bond_type
Gd0 C3 2.818 . S
Gd0 O20 2.377 1_556 S
Gd0 O22 2.448 . S
Gd0 O23 2.506 . S
Gd0 O24 2.435 1_556 S
Gd0 O25 2.717 1_556 S
Gd0 O27 2.395 . S
Gd0 O31 2.327 . S
Gd1 C12 2.818 . S
Gd1 O21 2.395 . S
Gd1 O25 2.327 . S
Gd1 O26 2.377 . S
Gd1 O28 2.448 . S
Gd1 O29 2.506 . S
Gd1 O30 2.435 . S
Gd1 O31 2.717 1_554 S
C2 O20 1.240 . S
C2 O21 1.240 . S
C3 Gd0 2.818 . S
C3 C4 1.510 . S
C3 O22 1.249 . S
C3 O23 1.252 . S
C4 C3 1.510 . S
C4 C5 1.404 . S
C4 C6 1.352 . S
C5 C4 1.404 . S
C5 C9 1.389 . S
C5 H32 0.930 . S
C6 C4 1.352 . S
C6 C8 1.374 . S
C6 H33 0.931 . S
C7 C8 1.359 . S
C7 C9 1.364 . S
C8 C6 1.374 . S
C8 C7 1.359 . S
C8 H34 0.931 . S
C9 C5 1.389 . S
C9 C7 1.364 . S
C9 H35 0.931 . S
C10 O24 1.256 . S
C10 O25 1.257 . S
C11 O26 1.240 . S
C11 O27 1.240 1_554 S
C12 Gd1 2.818 . S
C12 C13 1.510 . S
C12 O28 1.249 . S
C12 O29 1.252 . S
C13 C12 1.510 . S
C13 C14 1.404 . S
C13 C15 1.352 . S
C14 C13 1.404 . S
C14 C18 1.389 . S
C14 H36 0.930 . S
C15 C13 1.352 . S
C15 C17 1.374 . S
C15 H37 0.931 . S
C16 C17 1.359 . S
C16 C18 1.364 . S
C17 C15 1.374 . S
C17 C16 1.359 . S
C17 H38 0.931 . S
C18 C14 1.389 . S
C18 C16 1.364 . S
C18 H39 0.931 . S
C19 O30 1.256 1_556 S
C19 O31 1.257 . S
O20 Gd0 2.377 1_554 S
O20 C2 1.240 . S
O21 Gd1 2.395 . S
O21 C2 1.240 . S
O22 Gd0 2.448 . S
O22 C3 1.249 . S
O23 Gd0 2.506 . S
O23 C3 1.252 . S
O24 Gd0 2.435 1_554 S
O24 C10 1.256 . S
O25 Gd0 2.717 1_554 S
O25 Gd1 2.327 . S
O25 C10 1.257 . S
O26 Gd1 2.377 . S
O26 C11 1.240 . S
O27 Gd0 2.395 . S
O27 C11 1.240 1_556 S
O28 Gd1 2.448 . S
O28 C12 1.249 . S
O29 Gd1 2.506 . S
O29 C12 1.252 . S
O30 Gd1 2.435 . S
O30 C19 1.256 1_554 S
O31 Gd0 2.327 . S
O31 Gd1 2.717 1_556 S
O31 C19 1.257 . S
H32 C5 0.930 . S
H33 C6 0.931 . S
H34 C8 0.931 . S
H35 C9 0.931 . S
H36 C14 0.930 . S
H37 C15 0.931 . S
H38 C17 0.931 . S
H39 C18 0.931 . S
Gd40 C43 2.818 . S
Gd40 O60 2.377 . S
Gd40 O62 2.448 . S
Gd40 O63 2.506 . S
Gd40 O64 2.435 . S
Gd40 O65 2.717 . S
Gd40 O67 2.395 . S
Gd40 O71 2.327 . S
Gd41 C52 2.818 . S
Gd41 O61 2.395 . S
Gd41 O65 2.327 . S
Gd41 O66 2.377 . S
Gd41 O68 2.448 . S
Gd41 O69 2.506 . S
Gd41 O70 2.435 . S
Gd41 O71 2.717 . S
C42 O60 1.240 . S
C42 O61 1.240 . S
C43 Gd40 2.818 . S
C43 C44 1.510 . S
C43 O62 1.249 . S
C43 O63 1.252 . S
C44 C43 1.510 . S
C44 C45 1.404 . S
C44 C46 1.352 . S
C45 C44 1.404 . S
C45 C49 1.389 . S
C45 H72 0.930 . S
C46 C44 1.352 . S
C46 C48 1.374 . S
C46 H73 0.931 . S
C47 C48 1.359 . S
C47 C49 1.364 . S
C48 C46 1.374 . S
C48 C47 1.359 . S
C48 H74 0.931 . S
C49 C45 1.389 . S
C49 C47 1.364 . S
C49 H75 0.931 . S
C50 O64 1.256 . S
C50 O65 1.257 . S
C51 O66 1.240 . S
C51 O67 1.240 . S
C52 Gd41 2.818 . S
C52 C53 1.510 . S
C52 O68 1.249 . S
C52 O69 1.252 . S
C53 C52 1.510 . S
C53 C54 1.404 . S
C53 C55 1.352 . S
C54 C53 1.404 . S
C54 C58 1.389 . S
C54 H76 0.930 . S
C55 C53 1.352 . S
C55 C57 1.374 . S
C55 H77 0.931 . S
C56 C57 1.359 . S
C56 C58 1.364 . S
C57 C55 1.374 . S
C57 C56 1.359 . S
C57 H78 0.931 . S
C58 C54 1.389 . S
C58 C56 1.364 . S
C58 H79 0.931 . S
C59 O70 1.256 . S
C59 O71 1.257 . S
O60 Gd40 2.377 . S
O60 C42 1.240 . S
O61 Gd41 2.395 . S
O61 C42 1.240 . S
O62 Gd40 2.448 . S
O62 C43 1.249 . S
O63 Gd40 2.506 . S
O63 C43 1.252 . S
O64 Gd40 2.435 . S
O64 C50 1.256 . S
O65 Gd40 2.717 . S
O65 Gd41 2.327 . S
O65 C50 1.257 . S
O66 Gd41 2.377 . S
O66 C51 1.240 . S
O67 Gd40 2.395 . S
O67 C51 1.240 . S
O68 Gd41 2.448 . S
O68 C52 1.249 . S
O69 Gd41 2.506 . S
O69 C52 1.252 . S
O70 Gd41 2.435 . S
O70 C59 1.256 . S
O71 Gd40 2.327 . S
O71 Gd41 2.717 . S
O71 C59 1.257 . S
H72 C45 0.930 . S
H73 C46 0.931 . S
H74 C48 0.931 . S
H75 C49 0.931 . S
H76 C54 0.930 . S
H77 C55 0.931 . S
H78 C57 0.931 . S
H79 C58 0.931 . S
Gd80 C83 2.818 . S
Gd80 O100 2.377 . S
Gd80 O102 2.448 . S
Gd80 O103 2.506 . S
Gd80 O104 2.435 . S
Gd80 O105 2.717 . S
Gd80 O107 2.395 . S
Gd80 O111 2.327 . S
Gd81 C92 2.818 . S
Gd81 O101 2.395 . S
Gd81 O105 2.327 . S
Gd81 O106 2.377 . S
Gd81 O108 2.448 . S
Gd81 O109 2.506 . S
Gd81 O110 2.435 . S
Gd81 O111 2.717 . S
C82 O100 1.240 . S
C82 O101 1.240 . S
C83 Gd80 2.818 . S
C83 C84 1.510 . S
C83 O102 1.249 . S
C83 O103 1.252 . S
C84 C83 1.510 . S
C84 C85 1.404 . S
C84 C86 1.352 . S
C85 C84 1.404 . S
C85 C89 1.389 1_455 S
C85 H112 0.930 . S
C86 C84 1.352 . S
C86 C88 1.374 1_455 S
C86 H113 0.931 . S
C87 C88 1.359 . S
C87 C89 1.364 . S
C88 C86 1.374 1_655 S
C88 C87 1.359 . S
C88 H114 0.931 . S
C89 C85 1.389 1_655 S
C89 C87 1.364 . S
C89 H115 0.931 . S
C90 O104 1.256 . S
C90 O105 1.257 . S
C91 O106 1.240 . S
C91 O107 1.240 . S
C92 Gd81 2.818 . S
C92 C93 1.510 . S
C92 O108 1.249 . S
C92 O109 1.252 . S
C93 C92 1.510 . S
C93 C94 1.404 . S
C93 C95 1.352 . S
C94 C93 1.404 . S
C94 C98 1.389 . S
C94 H116 0.930 . S
C95 C93 1.352 . S
C95 C97 1.374 . S
C95 H117 0.931 . S
C96 C97 1.359 . S
C96 C98 1.364 . S
C97 C95 1.374 . S
C97 C96 1.359 . S
C97 H118 0.931 . S
C98 C94 1.389 . S
C98 C96 1.364 . S
C98 H119 0.931 . S
C99 O110 1.256 . S
C99 O111 1.257 . S
O100 Gd80 2.377 . S
O100 C82 1.240 . S
O101 Gd81 2.395 . S
O101 C82 1.240 . S
O102 Gd80 2.448 . S
O102 C83 1.249 . S
O103 Gd80 2.506 . S
O103 C83 1.252 . S
O104 Gd80 2.435 . S
O104 C90 1.256 . S
O105 Gd80 2.717 . S
O105 Gd81 2.327 . S
O105 C90 1.257 . S
O106 Gd81 2.377 . S
O106 C91 1.240 . S
O107 Gd80 2.395 . S
O107 C91 1.240 . S
O108 Gd81 2.448 . S
O108 C92 1.249 . S
O109 Gd81 2.506 . S
O109 C92 1.252 . S
O110 Gd81 2.435 . S
O110 C99 1.256 . S
O111 Gd80 2.327 . S
O111 Gd81 2.717 . S
O111 C99 1.257 . S
H112 C85 0.930 . S
H113 C86 0.931 . S
H114 C88 0.931 . S
H115 C89 0.931 . S
H116 C94 0.930 . S
H117 C95 0.931 . S
H118 C97 0.931 . S
H119 C98 0.931 . S
Gd120 C123 2.818 . S
Gd120 O140 2.377 . S
Gd120 O142 2.448 . S
Gd120 O143 2.506 . S
Gd120 O144 2.435 . S
Gd120 O145 2.717 . S
Gd120 O147 2.395 . S
Gd120 O151 2.327 . S
Gd121 C132 2.818 . S
Gd121 O141 2.395 . S
Gd121 O145 2.327 . S
Gd121 O146 2.377 . S
Gd121 O148 2.448 . S
Gd121 O149 2.506 . S
Gd121 O150 2.435 . S
Gd121 O151 2.717 . S
C122 O140 1.240 . S
C122 O141 1.240 . S
C123 Gd120 2.818 . S
C123 C124 1.510 . S
C123 O142 1.249 . S
C123 O143 1.252 . S
C124 C123 1.510 . S
C124 C125 1.404 . S
C124 C126 1.352 . S
C125 C124 1.404 . S
C125 C129 1.389 . S
C125 H152 0.930 . S
C126 C124 1.352 . S
C126 C128 1.374 . S
C126 H153 0.931 . S
C127 C128 1.359 . S
C127 C129 1.364 . S
C128 C126 1.374 . S
C128 C127 1.359 . S
C128 H154 0.931 . S
C129 C125 1.389 . S
C129 C127 1.364 . S
C129 H155 0.931 . S
C130 O144 1.256 . S
C130 O145 1.257 . S
C131 O146 1.240 . S
C131 O147 1.240 . S
C132 Gd121 2.818 . S
C132 C133 1.510 . S
C132 O148 1.249 . S
C132 O149 1.252 . S
C133 C132 1.510 . S
C133 C134 1.404 . S
C133 C135 1.352 . S
C134 C133 1.404 . S
C134 C138 1.389 . S
C134 H156 0.930 . S
C135 C133 1.352 . S
C135 C137 1.374 . S
C135 H157 0.931 . S
C136 C137 1.359 . S
C136 C138 1.364 . S
C137 C135 1.374 . S
C137 C136 1.359 . S
C137 H158 0.931 . S
C138 C134 1.389 . S
C138 C136 1.364 . S
C138 H159 0.931 . S
C139 O150 1.256 . S
C139 O151 1.257 . S
O140 Gd120 2.377 . S
O140 C122 1.240 . S
O141 Gd121 2.395 . S
O141 C122 1.240 . S
O142 Gd120 2.448 . S
O142 C123 1.249 . S
O143 Gd120 2.506 . S
O143 C123 1.252 . S
O144 Gd120 2.435 . S
O144 C130 1.256 . S
O145 Gd120 2.717 . S
O145 Gd121 2.327 . S
O145 C130 1.257 . S
O146 Gd121 2.377 . S
O146 C131 1.240 . S
O147 Gd120 2.395 . S
O147 C131 1.240 . S
O148 Gd121 2.448 . S
O148 C132 1.249 . S
O149 Gd121 2.506 . S
O149 C132 1.252 . S
O150 Gd121 2.435 . S
O150 C139 1.256 . S
O151 Gd120 2.327 . S
O151 Gd121 2.717 . S
O151 C139 1.257 . S
H152 C125 0.930 . S
H153 C126 0.931 . S
H154 C128 0.931 . S
H155 C129 0.931 . S
H156 C134 0.930 . S
H157 C135 0.931 . S
H158 C137 0.931 . S
H159 C138 0.931 . S
Gd160 C163 2.818 . S
Gd160 O180 2.377 . S
Gd160 O182 2.448 . S
Gd160 O183 2.506 . S
Gd160 O184 2.435 . S
Gd160 O185 2.717 1_556 S
Gd160 O187 2.395 . S
Gd160 O191 2.327 . S
Gd161 C172 2.818 . S
Gd161 O181 2.395 . S
Gd161 O185 2.327 . S
Gd161 O186 2.377 1_554 S
Gd161 O188 2.448 . S
Gd161 O189 2.506 . S
Gd161 O190 2.435 1_554 S
Gd161 O191 2.717 1_554 S
C162 O180 1.240 . S
C162 O181 1.240 1_556 S
C163 Gd160 2.818 . S
C163 C164 1.510 . S
C163 O182 1.249 . S
C163 O183 1.252 . S
C164 C163 1.510 . S
C164 C165 1.404 . S
C164 C166 1.352 . S
C165 C164 1.404 . S
C165 C169 1.389 . S
C165 H192 0.930 . S
C166 C164 1.352 . S
C166 C168 1.374 . S
C166 H193 0.931 . S
C167 C168 1.359 . S
C167 C169 1.364 . S
C168 C166 1.374 . S
C168 C167 1.359 . S
C168 H194 0.931 . S
C169 C165 1.389 . S
C169 C167 1.364 . S
C169 H195 0.931 . S
C170 O184 1.256 1_554 S
C170 O185 1.257 . S
C171 O186 1.240 . S
C171 O187 1.240 . S
C172 Gd161 2.818 . S
C172 C173 1.510 . S
C172 O188 1.249 . S
C172 O189 1.252 . S
C173 C172 1.510 . S
C173 C174 1.404 . S
C173 C175 1.352 . S
C174 C173 1.404 . S
C174 C178 1.389 . S
C174 H196 0.930 . S
C175 C173 1.352 . S
C175 C177 1.374 . S
C175 H197 0.931 . S
C176 C177 1.359 . S
C176 C178 1.364 . S
C177 C175 1.374 . S
C177 C176 1.359 . S
C177 H198 0.931 . S
C178 C174 1.389 . S
C178 C176 1.364 . S
C178 H199 0.931 . S
C179 O190 1.256 . S
C179 O191 1.257 . S
O180 Gd160 2.377 . S
O180 C162 1.240 . S
O181 Gd161 2.395 . S
O181 C162 1.240 1_554 S
O182 Gd160 2.448 . S
O182 C163 1.249 . S
O183 Gd160 2.506 . S
O183 C163 1.252 . S
O184 Gd160 2.435 . S
O184 C170 1.256 1_556 S
O185 Gd160 2.717 1_554 S
O185 Gd161 2.327 . S
O185 C170 1.257 . S
O186 Gd161 2.377 1_556 S
O186 C171 1.240 . S
O187 Gd160 2.395 . S
O187 C171 1.240 . S
O188 Gd161 2.448 . S
O188 C172 1.249 . S
O189 Gd161 2.506 . S
O189 C172 1.252 . S
O190 Gd161 2.435 1_556 S
O190 C179 1.256 . S
O191 Gd160 2.327 . S
O191 Gd161 2.717 1_556 S
O191 C179 1.257 . S
H192 C165 0.930 . S
H193 C166 0.931 . S
H194 C168 0.931 . S
H195 C169 0.931 . S
H196 C174 0.930 . S
H197 C175 0.931 . S
H198 C177 0.931 . S
H199 C178 0.931 . S
Gd200 C203 2.818 . S
Gd200 O220 2.377 . S
Gd200 O222 2.448 . S
Gd200 O223 2.506 . S
Gd200 O224 2.435 . S
Gd200 O225 2.717 . S
Gd200 O227 2.395 . S
Gd200 O231 2.327 . S
Gd201 C212 2.818 . S
Gd201 O221 2.395 . S
Gd201 O225 2.327 . S
Gd201 O226 2.377 . S
Gd201 O228 2.448 . S
Gd201 O229 2.506 . S
Gd201 O230 2.435 . S
Gd201 O231 2.717 . S
C202 O220 1.240 . S
C202 O221 1.240 . S
C203 Gd200 2.818 . S
C203 C204 1.510 . S
C203 O222 1.249 . S
C203 O223 1.252 . S
C204 C203 1.510 . S
C204 C205 1.404 . S
C204 C206 1.352 . S
C205 C204 1.404 . S
C205 C209 1.389 . S
C205 H232 0.930 . S
C206 C204 1.352 . S
C206 C208 1.374 . S
C206 H233 0.931 . S
C207 C208 1.359 . S
C207 C209 1.364 . S
C208 C206 1.374 . S
C208 C207 1.359 . S
C208 H234 0.931 . S
C209 C205 1.389 . S
C209 C207 1.364 . S
C209 H235 0.931 . S
C210 O224 1.256 . S
C210 O225 1.257 . S
C211 O226 1.240 . S
C211 O227 1.240 . S
C212 Gd201 2.818 . S
C212 C213 1.510 . S
C212 O228 1.249 . S
C212 O229 1.252 . S
C213 C212 1.510 . S
C213 C214 1.404 . S
C213 C215 1.352 . S
C214 C213 1.404 . S
C214 C218 1.389 . S
C214 H236 0.930 . S
C215 C213 1.352 . S
C215 C217 1.374 . S
C215 H237 0.931 . S
C216 C217 1.359 . S
C216 C218 1.364 . S
C217 C215 1.374 . S
C217 C216 1.359 . S
C217 H238 0.931 . S
C218 C214 1.389 . S
C218 C216 1.364 . S
C218 H239 0.931 . S
C219 O230 1.256 . S
C219 O231 1.257 . S
O220 Gd200 2.377 . S
O220 C202 1.240 . S
O221 Gd201 2.395 . S
O221 C202 1.240 . S
O222 Gd200 2.448 . S
O222 C203 1.249 . S
O223 Gd200 2.506 . S
O223 C203 1.252 . S
O224 Gd200 2.435 . S
O224 C210 1.256 . S
O225 Gd200 2.717 . S
O225 Gd201 2.327 . S
O225 C210 1.257 . S
O226 Gd201 2.377 . S
O226 C211 1.240 . S
O227 Gd200 2.395 . S
O227 C211 1.240 . S
O228 Gd201 2.448 . S
O228 C212 1.249 . S
O229 Gd201 2.506 . S
O229 C212 1.252 . S
O230 Gd201 2.435 . S
O230 C219 1.256 . S
O231 Gd200 2.327 . S
O231 Gd201 2.717 . S
O231 C219 1.257 . S
H232 C205 0.930 . S
H233 C206 0.931 . S
H234 C208 0.931 . S
H235 C209 0.931 . S
H236 C214 0.930 . S
H237 C215 0.931 . S
H238 C217 0.931 . S
H239 C218 0.931 . S
Gd240 C243 2.818 . S
Gd240 O260 2.377 . S
Gd240 O262 2.448 . S
Gd240 O263 2.506 . S
Gd240 O264 2.435 . S
Gd240 O265 2.717 . S
Gd240 O267 2.395 . S
Gd240 O271 2.327 . S
Gd241 C252 2.818 . S
Gd241 O261 2.395 . S
Gd241 O265 2.327 . S
Gd241 O266 2.377 . S
Gd241 O268 2.448 . S
Gd241 O269 2.506 . S
Gd241 O270 2.435 . S
Gd241 O271 2.717 . S
C242 O260 1.240 . S
C242 O261 1.240 . S
C243 Gd240 2.818 . S
C243 C244 1.510 . S
C243 O262 1.249 . S
C243 O263 1.252 . S
C244 C243 1.510 . S
C244 C245 1.404 . S
C244 C246 1.352 . S
C245 C244 1.404 . S
C245 C249 1.389 . S
C245 H272 0.930 . S
C246 C244 1.352 . S
C246 C248 1.374 . S
C246 H273 0.931 . S
C247 C248 1.359 . S
C247 C249 1.364 . S
C248 C246 1.374 . S
C248 C247 1.359 . S
C248 H274 0.931 . S
C249 C245 1.389 . S
C249 C247 1.364 . S
C249 H275 0.931 . S
C250 O264 1.256 . S
C250 O265 1.257 . S
C251 O266 1.240 . S
C251 O267 1.240 . S
C252 Gd241 2.818 . S
C252 C253 1.510 . S
C252 O268 1.249 . S
C252 O269 1.252 . S
C253 C252 1.510 . S
C253 C254 1.404 . S
C253 C255 1.352 . S
C254 C253 1.404 . S
C254 C258 1.389 1_655 S
C254 H276 0.930 . S
C255 C253 1.352 . S
C255 C257 1.374 1_655 S
C255 H277 0.931 . S
C256 C257 1.359 . S
C256 C258 1.364 . S
C257 C255 1.374 1_455 S
C257 C256 1.359 . S
C257 H278 0.931 . S
C258 C254 1.389 1_455 S
C258 C256 1.364 . S
C258 H279 0.931 . S
C259 O270 1.256 . S
C259 O271 1.257 . S
O260 Gd240 2.377 . S
O260 C242 1.240 . S
O261 Gd241 2.395 . S
O261 C242 1.240 . S
O262 Gd240 2.448 . S
O262 C243 1.249 . S
O263 Gd240 2.506 . S
O263 C243 1.252 . S
O264 Gd240 2.435 . S
O264 C250 1.256 . S
O265 Gd240 2.717 . S
O265 Gd241 2.327 . S
O265 C250 1.257 . S
O266 Gd241 2.377 . S
O266 C251 1.240 . S
O267 Gd240 2.395 . S
O267 C251 1.240 . S
O268 Gd241 2.448 . S
O268 C252 1.249 . S
O269 Gd241 2.506 . S
O269 C252 1.252 . S
O270 Gd241 2.435 . S
O270 C259 1.256 . S
O271 Gd240 2.327 . S
O271 Gd241 2.717 . S
O271 C259 1.257 . S
H272 C245 0.930 . S
H273 C246 0.931 . S
H274 C248 0.931 . S
H275 C249 0.931 . S
H276 C254 0.930 . S
H277 C255 0.931 . S
H278 C257 0.931 . S
H279 C258 0.931 . S
Gd280 C283 2.818 . S
Gd280 O300 2.377 . S
Gd280 O302 2.448 . S
Gd280 O303 2.506 . S
Gd280 O304 2.435 . S
Gd280 O305 2.717 . S
Gd280 O307 2.395 . S
Gd280 O311 2.327 . S
Gd281 C292 2.818 . S
Gd281 O301 2.395 . S
Gd281 O305 2.327 . S
Gd281 O306 2.377 . S
Gd281 O308 2.448 . S
Gd281 O309 2.506 . S
Gd281 O310 2.435 . S
Gd281 O311 2.717 . S
C282 O300 1.240 . S
C282 O301 1.240 . S
C283 Gd280 2.818 . S
C283 C284 1.510 . S
C283 O302 1.249 . S
C283 O303 1.252 . S
C284 C283 1.510 . S
C284 C285 1.404 . S
C284 C286 1.352 . S
C285 C284 1.404 . S
C285 C289 1.389 . S
C285 H312 0.930 . S
C286 C284 1.352 . S
C286 C288 1.374 . S
C286 H313 0.931 . S
C287 C288 1.359 . S
C287 C289 1.364 . S
C288 C286 1.374 . S
C288 C287 1.359 . S
C288 H314 0.931 . S
C289 C285 1.389 . S
C289 C287 1.364 . S
C289 H315 0.931 . S
C290 O304 1.256 . S
C290 O305 1.257 . S
C291 O306 1.240 . S
C291 O307 1.240 . S
C292 Gd281 2.818 . S
C292 C293 1.510 . S
C292 O308 1.249 . S
C292 O309 1.252 . S
C293 C292 1.510 . S
C293 C294 1.404 . S
C293 C295 1.352 . S
C294 C293 1.404 . S
C294 C298 1.389 . S
C294 H316 0.930 . S
C295 C293 1.352 . S
C295 C297 1.374 . S
C295 H317 0.931 . S
C296 C297 1.359 . S
C296 C298 1.364 . S
C297 C295 1.374 . S
C297 C296 1.359 . S
C297 H318 0.931 . S
C298 C294 1.389 . S
C298 C296 1.364 . S
C298 H319 0.931 . S
C299 O310 1.256 . S
C299 O311 1.257 . S
O300 Gd280 2.377 . S
O300 C282 1.240 . S
O301 Gd281 2.395 . S
O301 C282 1.240 . S
O302 Gd280 2.448 . S
O302 C283 1.249 . S
O303 Gd280 2.506 . S
O303 C283 1.252 . S
O304 Gd280 2.435 . S
O304 C290 1.256 . S
O305 Gd280 2.717 . S
O305 Gd281 2.327 . S
O305 C290 1.257 . S
O306 Gd281 2.377 . S
O306 C291 1.240 . S
O307 Gd280 2.395 . S
O307 C291 1.240 . S
O308 Gd281 2.448 . S
O308 C292 1.249 . S
O309 Gd281 2.506 . S
O309 C292 1.252 . S
O310 Gd281 2.435 . S
O310 C299 1.256 . S
O311 Gd280 2.327 . S
O311 Gd281 2.717 . S
O311 C299 1.257 . S
H312 C285 0.930 . S
H313 C286 0.931 . S
H314 C288 0.931 . S
H315 C289 0.931 . S
H316 C294 0.930 . S
H317 C295 0.931 . S
H318 C297 0.931 . S
H319 C298 0.931 . S
Gd320 C323 2.818 . S
Gd320 O340 2.377 . S
Gd320 O342 2.448 . S
Gd320 O343 2.506 . S
Gd320 O344 2.435 . S
Gd320 O345 2.717 . S
Gd320 O347 2.395 . S
Gd320 O351 2.327 . S
Gd321 C332 2.818 . S
Gd321 O341 2.395 . S
Gd321 O345 2.327 . S
Gd321 O346 2.377 . S
Gd321 O348 2.448 . S
Gd321 O349 2.506 . S
Gd321 O350 2.435 . S
Gd321 O351 2.717 . S
C322 O340 1.240 . S
C322 O341 1.240 . S
C323 Gd320 2.818 . S
C323 C324 1.510 . S
C323 O342 1.249 . S
C323 O343 1.252 . S
C324 C323 1.510 . S
C324 C325 1.404 . S
C324 C326 1.352 . S
C325 C324 1.404 . S
C325 C329 1.389 1_655 S
C325 H352 0.930 . S
C326 C324 1.352 . S
C326 C328 1.374 1_655 S
C326 H353 0.931 . S
C327 C328 1.359 . S
C327 C329 1.364 . S
C328 C326 1.374 1_455 S
C328 C327 1.359 . S
C328 H354 0.931 . S
C329 C325 1.389 1_455 S
C329 C327 1.364 . S
C329 H355 0.931 . S
C330 O344 1.256 . S
C330 O345 1.257 . S
C331 O346 1.240 . S
C331 O347 1.240 . S
C332 Gd321 2.818 . S
C332 C333 1.510 . S
C332 O348 1.249 . S
C332 O349 1.252 . S
C333 C332 1.510 . S
C333 C334 1.404 . S
C333 C335 1.352 . S
C334 C333 1.404 . S
C334 C338 1.389 . S
C334 H356 0.930 . S
C335 C333 1.352 . S
C335 C337 1.374 . S
C335 H357 0.931 . S
C336 C337 1.359 . S
C336 C338 1.364 . S
C337 C335 1.374 . S
C337 C336 1.359 . S
C337 H358 0.931 . S
C338 C334 1.389 . S
C338 C336 1.364 . S
C338 H359 0.931 . S
C339 O350 1.256 . S
C339 O351 1.257 . S
O340 Gd320 2.377 . S
O340 C322 1.240 . S
O341 Gd321 2.395 . S
O341 C322 1.240 . S
O342 Gd320 2.448 . S
O342 C323 1.249 . S
O343 Gd320 2.506 . S
O343 C323 1.252 . S
O344 Gd320 2.435 . S
O344 C330 1.256 . S
O345 Gd320 2.717 . S
O345 Gd321 2.327 . S
O345 C330 1.257 . S
O346 Gd321 2.377 . S
O346 C331 1.240 . S
O347 Gd320 2.395 . S
O347 C331 1.240 . S
O348 Gd321 2.448 . S
O348 C332 1.249 . S
O349 Gd321 2.506 . S
O349 C332 1.252 . S
O350 Gd321 2.435 . S
O350 C339 1.256 . S
O351 Gd320 2.327 . S
O351 Gd321 2.717 . S
O351 C339 1.257 . S
H352 C325 0.930 . S
H353 C326 0.931 . S
H354 C328 0.931 . S
H355 C329 0.931 . S
H356 C334 0.930 . S
H357 C335 0.931 . S
H358 C337 0.931 . S
H359 C338 0.931 . S
Gd360 C363 2.818 . S
Gd360 O380 2.377 . S
Gd360 O382 2.448 . S
Gd360 O383 2.506 . S
Gd360 O384 2.435 . S
Gd360 O385 2.717 . S
Gd360 O387 2.395 . S
Gd360 O391 2.327 . S
Gd361 C372 2.818 . S
Gd361 O381 2.395 . S
Gd361 O385 2.327 . S
Gd361 O386 2.377 . S
Gd361 O388 2.448 . S
Gd361 O389 2.506 . S
Gd361 O390 2.435 . S
Gd361 O391 2.717 . S
C362 O380 1.240 . S
C362 O381 1.240 . S
C363 Gd360 2.818 . S
C363 C364 1.510 . S
C363 O382 1.249 . S
C363 O383 1.252 . S
C364 C363 1.510 . S
C364 C365 1.404 . S
C364 C366 1.352 . S
C365 C364 1.404 . S
C365 C369 1.389 . S
C365 H392 0.930 . S
C366 C364 1.352 . S
C366 C368 1.374 . S
C366 H393 0.931 . S
C367 C368 1.359 . S
C367 C369 1.364 . S
C368 C366 1.374 . S
C368 C367 1.359 . S
C368 H394 0.931 . S
C369 C365 1.389 . S
C369 C367 1.364 . S
C369 H395 0.931 . S
C370 O384 1.256 . S
C370 O385 1.257 . S
C371 O386 1.240 . S
C371 O387 1.240 . S
C372 Gd361 2.818 . S
C372 C373 1.510 . S
C372 O388 1.249 . S
C372 O389 1.252 . S
C373 C372 1.510 . S
C373 C374 1.404 . S
C373 C375 1.352 . S
C374 C373 1.404 . S
C374 C378 1.389 1_545 S
C374 H396 0.930 . S
C375 C373 1.352 . S
C375 C377 1.374 1_545 S
C375 H397 0.931 . S
C376 C377 1.359 . S
C376 C378 1.364 . S
C377 C375 1.374 1_565 S
C377 C376 1.359 . S
C377 H398 0.931 . S
C378 C374 1.389 1_565 S
C378 C376 1.364 . S
C378 H399 0.931 . S
C379 O390 1.256 . S
C379 O391 1.257 . S
O380 Gd360 2.377 . S
O380 C362 1.240 . S
O381 Gd361 2.395 . S
O381 C362 1.240 . S
O382 Gd360 2.448 . S
O382 C363 1.249 . S
O383 Gd360 2.506 . S
O383 C363 1.252 . S
O384 Gd360 2.435 . S
O384 C370 1.256 . S
O385 Gd360 2.717 . S
O385 Gd361 2.327 . S
O385 C370 1.257 . S
O386 Gd361 2.377 . S
O386 C371 1.240 . S
O387 Gd360 2.395 . S
O387 C371 1.240 . S
O388 Gd361 2.448 . S
O388 C372 1.249 . S
O389 Gd361 2.506 . S
O389 C372 1.252 . S
O390 Gd361 2.435 . S
O390 C379 1.256 . S
O391 Gd360 2.327 . S
O391 Gd361 2.717 . S
O391 C379 1.257 . S
H392 C365 0.930 . S
H393 C366 0.931 . S
H394 C368 0.931 . S
H395 C369 0.931 . S
H396 C374 0.930 . S
H397 C375 0.931 . S
H398 C377 0.931 . S
H399 C378 0.931 . S
Gd400 C403 2.818 . S
Gd400 O420 2.377 1_556 S
Gd400 O422 2.448 . S
Gd400 O423 2.506 . S
Gd400 O424 2.435 1_556 S
Gd400 O425 2.717 1_556 S
Gd400 O427 2.395 . S
Gd400 O431 2.327 . S
Gd401 C412 2.818 . S
Gd401 O421 2.395 . S
Gd401 O425 2.327 . S
Gd401 O426 2.377 . S
Gd401 O428 2.448 . S
Gd401 O429 2.506 . S
Gd401 O430 2.435 . S
Gd401 O431 2.717 1_554 S
C402 O420 1.240 . S
C402 O421 1.240 . S
C403 Gd400 2.818 . S
C403 C404 1.510 . S
C403 O422 1.249 . S
C403 O423 1.252 . S
C404 C403 1.510 . S
C404 C405 1.404 . S
C404 C406 1.352 . S
C405 C404 1.404 . S
C405 C409 1.389 . S
C405 H432 0.930 . S
C406 C404 1.352 . S
C406 C408 1.374 . S
C406 H433 0.931 . S
C407 C408 1.359 . S
C407 C409 1.364 . S
C408 C406 1.374 . S
C408 C407 1.359 . S
C408 H434 0.931 . S
C409 C405 1.389 . S
C409 C407 1.364 . S
C409 H435 0.931 . S
C410 O424 1.256 . S
C410 O425 1.257 . S
C411 O426 1.240 . S
C411 O427 1.240 1_554 S
C412 Gd401 2.818 . S
C412 C413 1.510 . S
C412 O428 1.249 . S
C412 O429 1.252 . S
C413 C412 1.510 . S
C413 C414 1.404 . S
C413 C415 1.352 . S
C414 C413 1.404 . S
C414 C418 1.389 . S
C414 H436 0.930 . S
C415 C413 1.352 . S
C415 C417 1.374 . S
C415 H437 0.931 . S
C416 C417 1.359 . S
C416 C418 1.364 . S
C417 C415 1.374 . S
C417 C416 1.359 . S
C417 H438 0.931 . S
C418 C414 1.389 . S
C418 C416 1.364 . S
C418 H439 0.931 . S
C419 O430 1.256 1_556 S
C419 O431 1.257 . S
O420 Gd400 2.377 1_554 S
O420 C402 1.240 . S
O421 Gd401 2.395 . S
O421 C402 1.240 . S
O422 Gd400 2.448 . S
O422 C403 1.249 . S
O423 Gd400 2.506 . S
O423 C403 1.252 . S
O424 Gd400 2.435 1_554 S
O424 C410 1.256 . S
O425 Gd400 2.717 1_554 S
O425 Gd401 2.327 . S
O425 C410 1.257 . S
O426 Gd401 2.377 . S
O426 C411 1.240 . S
O427 Gd400 2.395 . S
O427 C411 1.240 1_556 S
O428 Gd401 2.448 . S
O428 C412 1.249 . S
O429 Gd401 2.506 . S
O429 C412 1.252 . S
O430 Gd401 2.435 . S
O430 C419 1.256 1_554 S
O431 Gd400 2.327 . S
O431 Gd401 2.717 1_556 S
O431 C419 1.257 . S
H432 C405 0.930 . S
H433 C406 0.931 . S
H434 C408 0.931 . S
H435 C409 0.931 . S
H436 C414 0.930 . S
H437 C415 0.931 . S
H438 C417 0.931 . S
H439 C418 0.931 . S
Gd440 C443 2.818 . S
Gd440 O460 2.377 . S
Gd440 O462 2.448 . S
Gd440 O463 2.506 . S
Gd440 O464 2.435 . S
Gd440 O465 2.717 . S
Gd440 O467 2.395 . S
Gd440 O471 2.327 . S
Gd441 C452 2.818 . S
Gd441 O461 2.395 . S
Gd441 O465 2.327 . S
Gd441 O466 2.377 . S
Gd441 O468 2.448 . S
Gd441 O469 2.506 . S
Gd441 O470 2.435 . S
Gd441 O471 2.717 . S
C442 O460 1.240 . S
C442 O461 1.240 . S
C443 Gd440 2.818 . S
C443 C444 1.510 . S
C443 O462 1.249 . S
C443 O463 1.252 . S
C444 C443 1.510 . S
C444 C445 1.404 . S
C444 C446 1.352 . S
C445 C444 1.404 . S
C445 C449 1.389 . S
C445 H472 0.930 . S
C446 C444 1.352 . S
C446 C448 1.374 . S
C446 H473 0.931 . S
C447 C448 1.359 . S
C447 C449 1.364 . S
C448 C446 1.374 . S
C448 C447 1.359 . S
C448 H474 0.931 . S
C449 C445 1.389 . S
C449 C447 1.364 . S
C449 H475 0.931 . S
C450 O464 1.256 . S
C450 O465 1.257 . S
C451 O466 1.240 . S
C451 O467 1.240 . S
C452 Gd441 2.818 . S
C452 C453 1.510 . S
C452 O468 1.249 . S
C452 O469 1.252 . S
C453 C452 1.510 . S
C453 C454 1.404 . S
C453 C455 1.352 . S
C454 C453 1.404 . S
C454 C458 1.389 1_565 S
C454 H476 0.930 . S
C455 C453 1.352 . S
C455 C457 1.374 1_565 S
C455 H477 0.931 . S
C456 C457 1.359 . S
C456 C458 1.364 . S
C457 C455 1.374 1_545 S
C457 C456 1.359 . S
C457 H478 0.931 . S
C458 C454 1.389 1_545 S
C458 C456 1.364 . S
C458 H479 0.931 . S
C459 O470 1.256 . S
C459 O471 1.257 . S
O460 Gd440 2.377 . S
O460 C442 1.240 . S
O461 Gd441 2.395 . S
O461 C442 1.240 . S
O462 Gd440 2.448 . S
O462 C443 1.249 . S
O463 Gd440 2.506 . S
O463 C443 1.252 . S
O464 Gd440 2.435 . S
O464 C450 1.256 . S
O465 Gd440 2.717 . S
O465 Gd441 2.327 . S
O465 C450 1.257 . S
O466 Gd441 2.377 . S
O466 C451 1.240 . S
O467 Gd440 2.395 . S
O467 C451 1.240 . S
O468 Gd441 2.448 . S
O468 C452 1.249 . S
O469 Gd441 2.506 . S
O469 C452 1.252 . S
O470 Gd441 2.435 . S
O470 C459 1.256 . S
O471 Gd440 2.327 . S
O471 Gd441 2.717 . S
O471 C459 1.257 . S
H472 C445 0.930 . S
H473 C446 0.931 . S
H474 C448 0.931 . S
H475 C449 0.931 . S
H476 C454 0.930 . S
H477 C455 0.931 . S
H478 C457 0.931 . S
H479 C458 0.931 . S
Gd480 C483 2.818 . S
Gd480 O500 2.377 . S
Gd480 O502 2.448 . S
Gd480 O503 2.506 . S
Gd480 O504 2.435 . S
Gd480 O505 2.717 . S
Gd480 O507 2.395 . S
Gd480 O511 2.327 . S
Gd481 C492 2.818 . S
Gd481 O501 2.395 . S
Gd481 O505 2.327 . S
Gd481 O506 2.377 . S
Gd481 O508 2.448 . S
Gd481 O509 2.506 . S
Gd481 O510 2.435 . S
Gd481 O511 2.717 . S
C482 O500 1.240 . S
C482 O501 1.240 . S
C483 Gd480 2.818 . S
C483 C484 1.510 . S
C483 O502 1.249 . S
C483 O503 1.252 . S
C484 C483 1.510 . S
C484 C485 1.404 . S
C484 C486 1.352 . S
C485 C484 1.404 . S
C485 C489 1.389 . S
C485 H512 0.930 . S
C486 C484 1.352 . S
C486 C488 1.374 . S
C486 H513 0.931 . S
C487 C488 1.359 . S
C487 C489 1.364 . S
C488 C486 1.374 . S
C488 C487 1.359 . S
C488 H514 0.931 . S
C489 C485 1.389 . S
C489 C487 1.364 . S
C489 H515 0.931 . S
C490 O504 1.256 . S
C490 O505 1.257 . S
C491 O506 1.240 . S
C491 O507 1.240 . S
C492 Gd481 2.818 . S
C492 C493 1.510 . S
C492 O508 1.249 . S
C492 O509 1.252 . S
C493 C492 1.510 . S
C493 C494 1.404 . S
C493 C495 1.352 . S
C494 C493 1.404 . S
C494 C498 1.389 1_455 S
C494 H516 0.930 . S
C495 C493 1.352 . S
C495 C497 1.374 1_455 S
C495 H517 0.931 . S
C496 C497 1.359 . S
C496 C498 1.364 . S
C497 C495 1.374 1_655 S
C497 C496 1.359 . S
C497 H518 0.931 . S
C498 C494 1.389 1_655 S
C498 C496 1.364 . S
C498 H519 0.931 . S
C499 O510 1.256 . S
C499 O511 1.257 . S
O500 Gd480 2.377 . S
O500 C482 1.240 . S
O501 Gd481 2.395 . S
O501 C482 1.240 . S
O502 Gd480 2.448 . S
O502 C483 1.249 . S
O503 Gd480 2.506 . S
O503 C483 1.252 . S
O504 Gd480 2.435 . S
O504 C490 1.256 . S
O505 Gd480 2.717 . S
O505 Gd481 2.327 . S
O505 C490 1.257 . S
O506 Gd481 2.377 . S
O506 C491 1.240 . S
O507 Gd480 2.395 . S
O507 C491 1.240 . S
O508 Gd481 2.448 . S
O508 C492 1.249 . S
O509 Gd481 2.506 . S
O509 C492 1.252 . S
O510 Gd481 2.435 . S
O510 C499 1.256 . S
O511 Gd480 2.327 . S
O511 Gd481 2.717 . S
O511 C499 1.257 . S
H512 C485 0.930 . S
H513 C486 0.931 . S
H514 C488 0.931 . S
H515 C489 0.931 . S
H516 C494 0.930 . S
H517 C495 0.931 . S
H518 C497 0.931 . S
H519 C498 0.931 . S
Gd520 C523 2.818 . S
Gd520 O540 2.377 . S
Gd520 O542 2.448 . S
Gd520 O543 2.506 . S
Gd520 O544 2.435 . S
Gd520 O545 2.717 . S
Gd520 O547 2.395 . S
Gd520 O551 2.327 . S
Gd521 C532 2.818 . S
Gd521 O541 2.395 . S
Gd521 O545 2.327 . S
Gd521 O546 2.377 . S
Gd521 O548 2.448 . S
Gd521 O549 2.506 . S
Gd521 O550 2.435 . S
Gd521 O551 2.717 . S
C522 O540 1.240 . S
C522 O541 1.240 . S
C523 Gd520 2.818 . S
C523 C524 1.510 . S
C523 O542 1.249 . S
C523 O543 1.252 . S
C524 C523 1.510 . S
C524 C525 1.404 . S
C524 C526 1.352 . S
C525 C524 1.404 . S
C525 C529 1.389 1_565 S
C525 H552 0.930 . S
C526 C524 1.352 . S
C526 C528 1.374 1_565 S
C526 H553 0.931 . S
C527 C528 1.359 . S
C527 C529 1.364 . S
C528 C526 1.374 1_545 S
C528 C527 1.359 . S
C528 H554 0.931 . S
C529 C525 1.389 1_545 S
C529 C527 1.364 . S
C529 H555 0.931 . S
C530 O544 1.256 . S
C530 O545 1.257 . S
C531 O546 1.240 . S
C531 O547 1.240 . S
C532 Gd521 2.818 . S
C532 C533 1.510 . S
C532 O548 1.249 . S
C532 O549 1.252 . S
C533 C532 1.510 . S
C533 C534 1.404 . S
C533 C535 1.352 . S
C534 C533 1.404 . S
C534 C538 1.389 . S
C534 H556 0.930 . S
C535 C533 1.352 . S
C535 C537 1.374 . S
C535 H557 0.931 . S
C536 C537 1.359 . S
C536 C538 1.364 . S
C537 C535 1.374 . S
C537 C536 1.359 . S
C537 H558 0.931 . S
C538 C534 1.389 . S
C538 C536 1.364 . S
C538 H559 0.931 . S
C539 O550 1.256 . S
C539 O551 1.257 . S
O540 Gd520 2.377 . S
O540 C522 1.240 . S
O541 Gd521 2.395 . S
O541 C522 1.240 . S
O542 Gd520 2.448 . S
O542 C523 1.249 . S
O543 Gd520 2.506 . S
O543 C523 1.252 . S
O544 Gd520 2.435 . S
O544 C530 1.256 . S
O545 Gd520 2.717 . S
O545 Gd521 2.327 . S
O545 C530 1.257 . S
O546 Gd521 2.377 . S
O546 C531 1.240 . S
O547 Gd520 2.395 . S
O547 C531 1.240 . S
O548 Gd521 2.448 . S
O548 C532 1.249 . S
O549 Gd521 2.506 . S
O549 C532 1.252 . S
O550 Gd521 2.435 . S
O550 C539 1.256 . S
O551 Gd520 2.327 . S
O551 Gd521 2.717 . S
O551 C539 1.257 . S
H552 C525 0.930 . S
H553 C526 0.931 . S
H554 C528 0.931 . S
H555 C529 0.931 . S
H556 C534 0.930 . S
H557 C535 0.931 . S
H558 C537 0.931 . S
H559 C538 0.931 . S
Gd560 C563 2.818 . S
Gd560 O580 2.377 . S
Gd560 O582 2.448 . S
Gd560 O583 2.506 . S
Gd560 O584 2.435 . S
Gd560 O585 2.717 1_556 S
Gd560 O587 2.395 . S
Gd560 O591 2.327 . S
Gd561 C572 2.818 . S
Gd561 O581 2.395 . S
Gd561 O585 2.327 . S
Gd561 O586 2.377 1_554 S
Gd561 O588 2.448 . S
Gd561 O589 2.506 . S
Gd561 O590 2.435 1_554 S
Gd561 O591 2.717 1_554 S
C562 O580 1.240 . S
C562 O581 1.240 1_556 S
C563 Gd560 2.818 . S
C563 C564 1.510 . S
C563 O582 1.249 . S
C563 O583 1.252 . S
C564 C563 1.510 . S
C564 C565 1.404 . S
C564 C566 1.352 . S
C565 C564 1.404 . S
C565 C569 1.389 . S
C565 H592 0.930 . S
C566 C564 1.352 . S
C566 C568 1.374 . S
C566 H593 0.931 . S
C567 C568 1.359 . S
C567 C569 1.364 . S
C568 C566 1.374 . S
C568 C567 1.359 . S
C568 H594 0.931 . S
C569 C565 1.389 . S
C569 C567 1.364 . S
C569 H595 0.931 . S
C570 O584 1.256 1_554 S
C570 O585 1.257 . S
C571 O586 1.240 . S
C571 O587 1.240 . S
C572 Gd561 2.818 . S
C572 C573 1.510 . S
C572 O588 1.249 . S
C572 O589 1.252 . S
C573 C572 1.510 . S
C573 C574 1.404 . S
C573 C575 1.352 . S
C574 C573 1.404 . S
C574 C578 1.389 . S
C574 H596 0.930 . S
C575 C573 1.352 . S
C575 C577 1.374 . S
C575 H597 0.931 . S
C576 C577 1.359 . S
C576 C578 1.364 . S
C577 C575 1.374 . S
C577 C576 1.359 . S
C577 H598 0.931 . S
C578 C574 1.389 . S
C578 C576 1.364 . S
C578 H599 0.931 . S
C579 O590 1.256 . S
C579 O591 1.257 . S
O580 Gd560 2.377 . S
O580 C562 1.240 . S
O581 Gd561 2.395 . S
O581 C562 1.240 1_554 S
O582 Gd560 2.448 . S
O582 C563 1.249 . S
O583 Gd560 2.506 . S
O583 C563 1.252 . S
O584 Gd560 2.435 . S
O584 C570 1.256 1_556 S
O585 Gd560 2.717 1_554 S
O585 Gd561 2.327 . S
O585 C570 1.257 . S
O586 Gd561 2.377 1_556 S
O586 C571 1.240 . S
O587 Gd560 2.395 . S
O587 C571 1.240 . S
O588 Gd561 2.448 . S
O588 C572 1.249 . S
O589 Gd561 2.506 . S
O589 C572 1.252 . S
O590 Gd561 2.435 1_556 S
O590 C579 1.256 . S
O591 Gd560 2.327 . S
O591 Gd561 2.717 1_556 S
O591 C579 1.257 . S
H592 C565 0.930 . S
H593 C566 0.931 . S
H594 C568 0.931 . S
H595 C569 0.931 . S
H596 C574 0.930 . S
H597 C575 0.931 . S
H598 C577 0.931 . S
H599 C578 0.931 . S
Gd600 C603 2.818 . S
Gd600 O620 2.377 . S
Gd600 O622 2.448 . S
Gd600 O623 2.506 . S
Gd600 O624 2.435 . S
Gd600 O625 2.717 . S
Gd600 O627 2.395 . S
Gd600 O631 2.327 . S
Gd601 C612 2.818 . S
Gd601 O621 2.395 . S
Gd601 O625 2.327 . S
Gd601 O626 2.377 . S
Gd601 O628 2.448 . S
Gd601 O629 2.506 . S
Gd601 O630 2.435 . S
Gd601 O631 2.717 . S
C602 O620 1.240 . S
C602 O621 1.240 . S
C603 Gd600 2.818 . S
C603 C604 1.510 . S
C603 O622 1.249 . S
C603 O623 1.252 . S
C604 C603 1.510 . S
C604 C605 1.404 . S
C604 C606 1.352 . S
C605 C604 1.404 . S
C605 C609 1.389 1_545 S
C605 H632 0.930 . S
C606 C604 1.352 . S
C606 C608 1.374 1_545 S
C606 H633 0.931 . S
C607 C608 1.359 . S
C607 C609 1.364 . S
C608 C606 1.374 1_565 S
C608 C607 1.359 . S
C608 H634 0.931 . S
C609 C605 1.389 1_565 S
C609 C607 1.364 . S
C609 H635 0.931 . S
C610 O624 1.256 . S
C610 O625 1.257 . S
C611 O626 1.240 . S
C611 O627 1.240 . S
C612 Gd601 2.818 . S
C612 C613 1.510 . S
C612 O628 1.249 . S
C612 O629 1.252 . S
C613 C612 1.510 . S
C613 C614 1.404 . S
C613 C615 1.352 . S
C614 C613 1.404 . S
C614 C618 1.389 . S
C614 H636 0.930 . S
C615 C613 1.352 . S
C615 C617 1.374 . S
C615 H637 0.931 . S
C616 C617 1.359 . S
C616 C618 1.364 . S
C617 C615 1.374 . S
C617 C616 1.359 . S
C617 H638 0.931 . S
C618 C614 1.389 . S
C618 C616 1.364 . S
C618 H639 0.931 . S
C619 O630 1.256 . S
C619 O631 1.257 . S
O620 Gd600 2.377 . S
O620 C602 1.240 . S
O621 Gd601 2.395 . S
O621 C602 1.240 . S
O622 Gd600 2.448 . S
O622 C603 1.249 . S
O623 Gd600 2.506 . S
O623 C603 1.252 . S
O624 Gd600 2.435 . S
O624 C610 1.256 . S
O625 Gd600 2.717 . S
O625 Gd601 2.327 . S
O625 C610 1.257 . S
O626 Gd601 2.377 . S
O626 C611 1.240 . S
O627 Gd600 2.395 . S
O627 C611 1.240 . S
O628 Gd601 2.448 . S
O628 C612 1.249 . S
O629 Gd601 2.506 . S
O629 C612 1.252 . S
O630 Gd601 2.435 . S
O630 C619 1.256 . S
O631 Gd600 2.327 . S
O631 Gd601 2.717 . S
O631 C619 1.257 . S
H632 C605 0.930 . S
H633 C606 0.931 . S
H634 C608 0.931 . S
H635 C609 0.931 . S
H636 C614 0.930 . S
H637 C615 0.931 . S
H638 C617 0.931 . S
H639 C618 0.931 . S
C640 C641 1.387 . S
C640 H644 0.950 . S
C640 C649 1.390 . S
C641 C640 1.387 . S
C641 C643 1.398 . S
H642 C649 0.950 . S
C643 C641 1.398 . S
C643 C645 1.390 . S
C643 H647 0.939 1_554 S
H644 C640 0.950 . S
C645 C643 1.390 . S
C645 C646 1.398 . S
C645 H648 0.939 1_554 S
C646 C645 1.398 . S
C646 C649 1.387 . S
H647 C643 0.939 1_556 S
H648 C645 0.939 1_556 S
C649 C640 1.390 . S
C649 H642 0.950 . S
C649 C646 1.387 . S
C650 C651 1.387 . S
C650 H654 0.950 . S
C650 C659 1.390 . S
C651 C650 1.387 . S
C651 C653 1.387 . S
H652 C659 0.950 . S
C653 C651 1.387 . S
C653 C655 1.390 . S
C653 H657 0.950 . S
H654 C650 0.950 . S
C655 C653 1.390 . S
C655 C656 1.387 . S
C655 H658 0.950 . S
C656 C655 1.387 . S
C656 C659 1.387 . S
H657 C653 0.950 . S
H658 C655 0.950 . S
C659 C650 1.390 . S
C659 H652 0.950 . S
C659 C656 1.387 . S
C660 C661 1.387 . S
C660 H664 0.950 . S
C660 C669 1.390 1_455 S
C661 C660 1.387 . S
C661 C663 1.387 . S
H662 C669 0.950 . S
C663 C661 1.387 . S
C663 C665 1.390 1_455 S
C663 H667 0.950 . S
H664 C660 0.950 . S
C665 C663 1.390 1_655 S
C665 C666 1.387 . S
C665 H668 0.950 . S
C666 C665 1.387 . S
C666 C669 1.387 . S
H667 C663 0.950 . S
H668 C665 0.950 . S
C669 C660 1.390 1_655 S
C669 H662 0.950 . S
C669 C666 1.387 . S
C670 C671 1.387 . S
C670 H674 0.950 . S
C670 C679 1.390 1_655 S
C671 C670 1.387 . S
C671 C673 1.387 . S
H672 C679 0.950 . S
C673 C671 1.387 . S
C673 C675 1.390 1_655 S
C673 H677 0.950 . S
H674 C670 0.950 . S
C675 C673 1.390 1_455 S
C675 C676 1.387 . S
C675 H678 0.950 . S
C676 C675 1.387 . S
C676 C679 1.387 . S
H677 C673 0.950 . S
H678 C675 0.950 . S
C679 C670 1.390 1_455 S
C679 H672 0.950 . S
C679 C676 1.387 . S
C680 C681 1.398 . S
C680 H684 0.939 1_556 S
C680 C689 1.390 . S
C681 C680 1.398 . S
C681 C683 1.387 . S
H682 C689 0.939 1_554 S
C683 C681 1.387 . S
C683 C685 1.390 . S
C683 H687 0.950 . S
H684 C680 0.939 1_554 S
C685 C683 1.390 . S
C685 C686 1.387 . S
C685 H688 0.950 . S
C686 C685 1.387 . S
C686 C689 1.398 . S
H687 C683 0.950 . S
H688 C685 0.950 . S
C689 C680 1.390 . S
C689 H682 0.939 1_556 S
C689 C686 1.398 . S
C690 C691 1.387 . S
C690 H694 0.950 . S
C690 C699 1.390 . S
C691 C690 1.387 . S
C691 C693 1.387 . S
H692 C699 0.950 . S
C693 C691 1.387 . S
C693 C695 1.390 . S
C693 H697 0.950 . S
H694 C690 0.950 . S
C695 C693 1.390 . S
C695 C696 1.387 . S
C695 H698 0.950 . S
C696 C695 1.387 . S
C696 C699 1.387 . S
H697 C693 0.950 . S
H698 C695 0.950 . S
C699 C690 1.390 . S
C699 H692 0.950 . S
C699 C696 1.387 . S
C700 C701 1.387 . S
C700 H704 0.950 . S
C700 C709 1.390 1_655 S
C701 C700 1.387 . S
C701 C703 1.387 . S
H702 C709 0.950 . S
C703 C701 1.387 . S
C703 C705 1.390 1_655 S
C703 H707 0.950 . S
H704 C700 0.950 . S
C705 C703 1.390 1_455 S
C705 C706 1.387 . S
C705 H708 0.950 . S
C706 C705 1.387 . S
C706 C709 1.387 . S
H707 C703 0.950 . S
H708 C705 0.950 . S
C709 C700 1.390 1_455 S
C709 H702 0.950 . S
C709 C706 1.387 . S
C710 C711 1.387 . S
C710 H714 0.950 . S
C710 C719 1.390 1_455 S
C711 C710 1.387 . S
C711 C713 1.387 . S
H712 C719 0.950 . S
C713 C711 1.387 . S
C713 C715 1.390 1_455 S
C713 H717 0.950 . S
H714 C710 0.950 . S
C715 C713 1.390 1_655 S
C715 C716 1.387 . S
C715 H718 0.950 . S
C716 C715 1.387 . S
C716 C719 1.387 . S
H717 C713 0.950 . S
H718 C715 0.950 . S
C719 C710 1.390 1_655 S
C719 H712 0.950 . S
C719 C716 1.387 . S
C720 C721 1.387 . S
C720 H724 0.950 . S
C720 C729 1.390 . S
C721 C720 1.387 . S
C721 C723 1.387 . S
H722 C729 0.950 . S
C723 C721 1.387 . S
C723 C725 1.390 . S
C723 H727 0.950 . S
H724 C720 0.950 . S
C725 C723 1.390 . S
C725 C726 1.387 . S
C725 H728 0.950 . S
C726 C725 1.387 . S
C726 C729 1.387 . S
H727 C723 0.950 . S
H728 C725 0.950 . S
C729 C720 1.390 . S
C729 H722 0.950 . S
C729 C726 1.387 . S
C730 C731 1.387 . S
C730 H734 0.950 . S
C730 C739 1.390 . S
C731 C730 1.387 . S
C731 C733 1.387 . S
H732 C739 0.950 . S
C733 C731 1.387 . S
C733 C735 1.390 . S
C733 H737 0.950 . S
H734 C730 0.950 . S
C735 C733 1.390 . S
C735 C736 1.387 . S
C735 H738 0.950 . S
C736 C735 1.387 . S
C736 C739 1.387 . S
H737 C733 0.950 . S
H738 C735 0.950 . S
C739 C730 1.390 . S
C739 H732 0.950 . S
C739 C736 1.387 . S
C740 C741 1.387 . S
C740 H744 0.950 . S
C740 C749 1.390 . S
C741 C740 1.387 . S
C741 C743 1.387 . S
H742 C749 0.950 . S
C743 C741 1.387 . S
C743 C745 1.390 . S
C743 H747 0.950 . S
H744 C740 0.950 . S
C745 C743 1.390 . S
C745 C746 1.387 . S
C745 H748 0.950 . S
C746 C745 1.387 . S
C746 C749 1.387 . S
H747 C743 0.950 . S
H748 C745 0.950 . S
C749 C740 1.390 . S
C749 H742 0.950 . S
C749 C746 1.387 . S
C750 C751 1.387 . S
C750 H754 0.950 . S
C750 C759 1.390 . S
C751 C750 1.387 . S
C751 C753 1.387 . S
H752 C759 0.950 . S
C753 C751 1.387 . S
C753 C755 1.390 . S
C753 H757 0.950 . S
H754 C750 0.950 . S
C755 C753 1.390 . S
C755 C756 1.387 . S
C755 H758 0.950 . S
C756 C755 1.387 . S
C756 C759 1.387 . S
H757 C753 0.950 . S
H758 C755 0.950 . S
C759 C750 1.390 . S
C759 H752 0.950 . S
C759 C756 1.387 . S
C760 C761 1.387 . S
C760 H764 0.950 . S
C760 C769 1.390 . S
C761 C760 1.387 . S
C761 C763 1.387 . S
H762 C769 0.950 . S
C763 C761 1.387 . S
C763 C765 1.390 . S
C763 H767 0.950 . S
H764 C760 0.950 . S
C765 C763 1.390 . S
C765 C766 1.387 . S
C765 H768 0.950 . S
C766 C765 1.387 . S
C766 C769 1.387 . S
H767 C763 0.950 . S
H768 C765 0.950 . S
C769 C760 1.390 . S
C769 H762 0.950 . S
C769 C766 1.387 . S
C770 C771 1.387 . S
C770 H774 0.950 . S
C770 C779 1.390 . S
C771 C770 1.387 . S
C771 C773 1.387 . S
H772 C779 0.950 . S
C773 C771 1.387 . S
C773 C775 1.390 . S
C773 H777 0.950 . S
H774 C770 0.950 . S
C775 C773 1.390 . S
C775 C776 1.387 . S
C775 H778 0.950 . S
C776 C775 1.387 . S
C776 C779 1.387 . S
H777 C773 0.950 . S
H778 C775 0.950 . S
C779 C770 1.390 . S
C779 H772 0.950 . S
C779 C776 1.387 . S
C780 C781 1.387 . S
C780 H784 0.950 . S
C780 C789 1.390 . S
C781 C780 1.387 . S
C781 C783 1.387 . S
H782 C789 0.950 . S
C783 C781 1.387 . S
C783 C785 1.390 . S
C783 H787 0.950 . S
H784 C780 0.950 . S
C785 C783 1.390 . S
C785 C786 1.387 . S
C785 H788 0.950 . S
C786 C785 1.387 . S
C786 C789 1.387 . S
H787 C783 0.950 . S
H788 C785 0.950 . S
C789 C780 1.390 . S
C789 H782 0.950 . S
C789 C786 1.387 . S
C790 C791 1.387 . S
C790 H794 0.950 . S
C790 C799 1.390 . S
C791 C790 1.387 . S
C791 C793 1.387 . S
H792 C799 0.950 . S
C793 C791 1.387 . S
C793 C795 1.390 . S
C793 H797 0.950 . S
H794 C790 0.950 . S
C795 C793 1.390 . S
C795 C796 1.387 . S
C795 H798 0.950 . S
C796 C795 1.387 . S
C796 C799 1.387 . S
H797 C793 0.950 . S
H798 C795 0.950 . S
C799 C790 1.390 . S
C799 H792 0.950 . S
C799 C796 1.387 . S
C800 C801 1.387 . S
C800 H804 0.950 . S
C800 C809 1.390 . S
C801 C800 1.387 . S
C801 C803 1.387 . S
H802 C809 0.950 . S
C803 C801 1.387 . S
C803 C805 1.390 . S
C803 H807 0.950 . S
H804 C800 0.950 . S
C805 C803 1.390 . S
C805 C806 1.387 . S
C805 H808 0.950 . S
C806 C805 1.387 . S
C806 C809 1.387 . S
H807 C803 0.950 . S
H808 C805 0.950 . S
C809 C800 1.390 . S
C809 H802 0.950 . S
C809 C806 1.387 . S
C810 C811 1.387 . S
C810 H814 0.950 . S
C810 C819 1.390 1_545 S
C811 C810 1.387 . S
C811 C813 1.387 1_545 S
H812 C819 0.950 . S
C813 C811 1.387 1_565 S
C813 C815 1.390 . S
C813 H817 0.950 . S
H814 C810 0.950 . S
C815 C813 1.390 . S
C815 C816 1.387 . S
C815 H818 0.950 . S
C816 C815 1.387 . S
C816 C819 1.387 . S
H817 C813 0.950 . S
H818 C815 0.950 . S
C819 C810 1.390 1_565 S
C819 H812 0.950 . S
C819 C816 1.387 . S
C820 C821 1.387 . S
C820 H824 0.950 . S
C820 C829 1.390 . S
C821 C820 1.387 . S
C821 C823 1.387 . S
H822 C829 0.950 . S
C823 C821 1.387 . S
C823 C825 1.390 . S
C823 H827 0.950 . S
H824 C820 0.950 . S
C825 C823 1.390 . S
C825 C826 1.387 . S
C825 H828 0.950 . S
C826 C825 1.387 . S
C826 C829 1.387 . S
H827 C823 0.950 . S
H828 C825 0.950 . S
C829 C820 1.390 . S
C829 H822 0.950 . S
C829 C826 1.387 . S
C830 C831 1.387 1_545 S
C830 H834 0.950 . S
C830 C839 1.390 . S
C831 C830 1.387 1_565 S
C831 C833 1.387 . S
H832 C839 0.950 . S
C833 C831 1.387 . S
C833 C835 1.391 1_565 S
C833 H837 0.949 . S
H834 C830 0.950 . S
C835 C833 1.391 1_545 S
C835 C836 1.387 . S
C835 H838 0.950 . S
C836 C835 1.387 . S
C836 C839 1.387 . S
H837 C833 0.949 . S
H838 C835 0.950 . S
C839 C830 1.390 . S
C839 H832 0.950 . S
C839 C836 1.387 . S
C840 C841 1.387 . S
C840 H844 0.950 . S
C840 C849 1.390 . S
C841 C840 1.387 . S
C841 C843 1.387 . S
H842 C849 0.950 . S
C843 C841 1.387 . S
C843 C845 1.390 . S
C843 H847 0.950 . S
H844 C840 0.950 . S
C845 C843 1.390 . S
C845 C846 1.387 . S
C845 H848 0.950 . S
C846 C845 1.387 . S
C846 C849 1.387 . S
H847 C843 0.950 . S
H848 C845 0.950 . S
C849 C840 1.390 . S
C849 H842 0.950 . S
C849 C846 1.387 . S
C850 C851 1.387 . S
C850 H854 0.950 . S
C850 C859 1.390 . S
C851 C850 1.387 . S
C851 C853 1.387 . S
H852 C859 0.944 1_565 S
C853 C851 1.387 . S
C853 C855 1.390 . S
C853 H857 0.950 . S
H854 C850 0.950 . S
C855 C853 1.390 . S
C855 C856 1.387 1_545 S
C855 H858 0.950 1_545 S
C856 C855 1.387 1_565 S
C856 C859 1.387 1_565 S
H857 C853 0.950 . S
H858 C855 0.950 1_565 S
C859 C850 1.390 . S
C859 H852 0.944 1_545 S
C859 C856 1.387 1_545 S
C860 C861 1.387 . S
C860 H864 0.950 . S
C860 C869 1.390 . S
C861 C860 1.387 . S
C861 C863 1.387 . S
H862 C869 0.950 . S
C863 C861 1.387 . S
C863 C865 1.390 . S
C863 H867 0.950 . S
H864 C860 0.950 . S
C865 C863 1.390 . S
C865 C866 1.387 . S
C865 H868 0.950 . S
C866 C865 1.387 . S
C866 C869 1.387 . S
H867 C863 0.950 . S
H868 C865 0.950 . S
C869 C860 1.390 . S
C869 H862 0.950 . S
C869 C866 1.387 . S
C870 C871 1.387 1_565 S
C870 H874 0.950 . S
C870 C879 1.390 . S
C871 C870 1.387 1_545 S
C871 C873 1.387 . S
H872 C879 0.950 . S
C873 C871 1.387 . S
C873 C875 1.390 1_545 S
C873 H877 0.950 . S
H874 C870 0.950 . S
C875 C873 1.390 1_565 S
C875 C876 1.387 . S
C875 H878 0.950 . S
C876 C875 1.387 . S
C876 C879 1.387 . S
H877 C873 0.950 . S
H878 C875 0.950 . S
C879 C870 1.390 . S
C879 H872 0.950 . S
C879 C876 1.387 . S
C880 C881 1.387 . S
C880 H884 0.950 . S
C880 C889 1.390 . S
C881 C880 1.387 . S
C881 C883 1.387 . S
H882 C889 0.950 . S
C883 C881 1.387 . S
C883 C885 1.390 . S
C883 H887 0.950 . S
H884 C880 0.950 . S
C885 C883 1.390 . S
C885 C886 1.387 . S
C885 H888 0.950 . S
C886 C885 1.387 . S
C886 C889 1.387 . S
H887 C883 0.950 . S
H888 C885 0.950 . S
C889 C880 1.390 . S
C889 H882 0.950 . S
C889 C886 1.387 . S
C890 C891 1.387 . S
C890 H894 0.950 . S
C890 C899 1.390 . S
C891 C890 1.387 . S
C891 C893 1.387 . S
H892 C899 0.950 . S
C893 C891 1.387 . S
C893 C895 1.390 . S
C893 H897 0.950 . S
H894 C890 0.950 . S
C895 C893 1.390 . S
C895 C896 1.387 . S
C895 H898 0.950 . S
C896 C895 1.387 . S
C896 C899 1.387 . S
H897 C893 0.950 . S
H898 C895 0.950 . S
C899 C890 1.390 . S
C899 H892 0.950 . S
C899 C896 1.387 . S
C900 C901 1.387 . S
C900 H904 0.975 . S
C900 C909 1.390 . S
C901 C900 1.387 . S
C901 C903 1.387 . S
H902 C909 0.950 1_455 S
C903 C901 1.387 . S
C903 C905 1.390 . S
C903 H907 0.950 . S
H904 C900 0.975 . S
C905 C903 1.390 . S
C905 C906 1.387 . S
C905 H908 0.950 . S
C906 C905 1.387 . S
C906 C909 1.387 . S
H907 C903 0.950 . S
H908 C905 0.950 . S
C909 C900 1.390 . S
C909 H902 0.950 1_655 S
C909 C906 1.387 . S
C910 C911 1.387 . S
C910 H914 0.950 . S
C910 C919 1.390 . S
C911 C910 1.387 . S
C911 C913 1.387 . S
H912 C919 0.950 . S
C913 C911 1.387 . S
C913 C915 1.390 . S
C913 H917 0.950 . S
H914 C910 0.950 . S
C915 C913 1.390 . S
C915 C916 1.387 . S
C915 H918 0.950 . S
C916 C915 1.387 . S
C916 C919 1.387 . S
H917 C913 0.950 . S
H918 C915 0.950 . S
C919 C910 1.390 . S
C919 H912 0.950 . S
C919 C916 1.387 . S
C920 C921 1.387 . S
C920 H924 0.950 . S
C920 C929 1.390 . S
C921 C920 1.387 . S
C921 C923 1.387 . S
H922 C929 0.950 . S
C923 C921 1.387 . S
C923 C925 1.390 . S
C923 H927 0.950 . S
H924 C920 0.950 . S
C925 C923 1.390 . S
C925 C926 1.387 . S
C925 H928 0.950 . S
C926 C925 1.387 . S
C926 C929 1.387 . S
H927 C923 0.950 . S
H928 C925 0.950 . S
C929 C920 1.390 . S
C929 H922 0.950 . S
C929 C926 1.387 . S
C930 C931 1.387 . S
C930 H934 0.950 . S
C930 C939 1.390 . S
C931 C930 1.387 . S
C931 C933 1.387 . S
H932 C939 0.950 . S
C933 C931 1.387 . S
C933 C935 1.390 . S
C933 H937 0.950 . S
H934 C930 0.950 . S
C935 C933 1.390 . S
C935 C936 1.387 . S
C935 H938 0.950 . S
C936 C935 1.387 . S
C936 C939 1.387 . S
H937 C933 0.950 . S
H938 C935 0.950 . S
C939 C930 1.390 . S
C939 H932 0.950 . S
C939 C936 1.387 . S
C940 C941 1.387 . S
C940 H944 0.950 . S
C940 C949 1.390 . S
C941 C940 1.387 . S
C941 C943 1.387 . S
H942 C949 0.950 . S
C943 C941 1.387 . S
C943 C945 1.390 . S
C943 H947 0.975 . S
H944 C940 0.950 . S
C945 C943 1.390 . S
C945 C946 1.387 . S
C945 H948 0.950 1_455 S
C946 C945 1.387 . S
C946 C949 1.387 . S
H947 C943 0.975 . S
H948 C945 0.950 1_655 S
C949 C940 1.390 . S
C949 H942 0.950 . S
C949 C946 1.387 . S
C950 C951 1.387 . S
C950 H954 0.950 . S
C950 C959 1.390 . S
C951 C950 1.387 . S
C951 C953 1.387 . S
H952 C959 0.950 . S
C953 C951 1.387 . S
C953 C955 1.390 . S
C953 H957 0.950 . S
H954 C950 0.950 . S
C955 C953 1.390 . S
C955 C956 1.387 . S
C955 H958 0.950 . S
C956 C955 1.387 . S
C956 C959 1.387 . S
H957 C953 0.950 . S
H958 C955 0.950 . S
C959 C950 1.390 . S
C959 H952 0.950 . S
C959 C956 1.387 . S
C960 C961 1.387 . S
C960 H964 0.950 . S
C960 C969 1.390 . S
C961 C960 1.387 . S
C961 C963 1.387 . S
H962 C969 0.950 . S
C963 C961 1.387 . S
C963 C965 1.390 . S
C963 H967 0.929 1_455 S
H964 C960 0.950 . S
C965 C963 1.390 . S
C965 C966 1.387 . S
C965 H968 0.950 . S
C966 C965 1.387 . S
C966 C969 1.387 . S
H967 C963 0.929 1_655 S
H968 C965 0.950 . S
C969 C960 1.390 . S
C969 H962 0.950 . S
C969 C966 1.387 . S
C970 C971 1.387 . S
C970 H974 0.950 . S
C970 C979 1.390 . S
C971 C970 1.387 . S
C971 C973 1.387 . S
H972 C979 0.950 . S
C973 C971 1.387 . S
C973 C975 1.390 . S
C973 H977 0.950 . S
H974 C970 0.950 . S
C975 C973 1.390 . S
C975 C976 1.387 . S
C975 H978 0.950 . S
C976 C975 1.387 . S
C976 C979 1.387 . S
H977 C973 0.950 . S
H978 C975 0.950 . S
C979 C970 1.390 . S
C979 H972 0.950 . S
C979 C976 1.387 . S
C980 C981 1.387 . S
C980 H984 0.950 . S
C980 C989 1.390 . S
C981 C980 1.387 . S
C981 C983 1.387 . S
H982 C989 0.950 . S
C983 C981 1.387 . S
C983 C985 1.390 . S
C983 H987 0.950 . S
H984 C980 0.950 . S
C985 C983 1.390 . S
C985 C986 1.387 . S
C985 H988 0.950 . S
C986 C985 1.387 . S
C986 C989 1.387 . S
H987 C983 0.950 . S
H988 C985 0.950 . S
C989 C980 1.390 . S
C989 H982 0.950 . S
C989 C986 1.387 . S
C990 C991 1.387 . S
C990 H994 0.950 . S
C990 C999 1.390 . S
C991 C990 1.387 . S
C991 C993 1.387 . S
H992 C999 0.950 . S
C993 C991 1.387 . S
C993 C995 1.390 . S
C993 H997 0.950 . S
H994 C990 0.950 . S
C995 C993 1.390 . S
C995 C996 1.387 . S
C995 H998 0.950 . S
C996 C995 1.387 . S
C996 C999 1.387 . S
H997 C993 0.950 . S
H998 C995 0.950 . S
C999 C990 1.390 . S
C999 H992 0.950 . S
C999 C996 1.387 . S
C1000 C1001 1.387 . S
C1000 H1004 0.950 . S
C1000 C1009 1.390 . S
C1001 C1000 1.387 . S
C1001 C1003 1.387 . S
H1002 C1009 0.950 . S
C1003 C1001 1.387 . S
C1003 C1005 1.390 . S
C1003 H1007 0.950 . S
H1004 C1000 0.950 . S
C1005 C1003 1.390 . S
C1005 C1006 1.387 . S
C1005 H1008 0.950 . S
C1006 C1005 1.387 . S
C1006 C1009 1.387 . S
H1007 C1003 0.950 . S
H1008 C1005 0.950 . S
C1009 C1000 1.390 . S
C1009 H1002 0.950 . S
C1009 C1006 1.387 . S
C1010 C1011 1.387 . S
C1010 H1014 0.950 . S
C1010 C1019 1.390 . S
C1011 C1010 1.387 . S
C1011 C1013 1.387 . S
H1012 C1019 0.950 . S
C1013 C1011 1.387 . S
C1013 C1015 1.390 . S
C1013 H1017 0.950 . S
H1014 C1010 0.950 . S
C1015 C1013 1.390 . S
C1015 C1016 1.387 . S
C1015 H1018 0.950 . S
C1016 C1015 1.387 . S
C1016 C1019 1.387 . S
H1017 C1013 0.950 . S
H1018 C1015 0.950 . S
C1019 C1010 1.390 . S
C1019 H1012 0.950 . S
C1019 C1016 1.387 . S
C1020 C1021 1.387 . S
C1020 H1024 0.950 . S
C1020 C1029 1.390 . S
C1021 C1020 1.387 . S
C1021 C1023 1.387 . S
H1022 C1029 0.950 . S
C1023 C1021 1.387 . S
C1023 C1025 1.390 . S
C1023 H1027 0.950 . S
H1024 C1020 0.950 . S
C1025 C1023 1.390 . S
C1025 C1026 1.387 . S
C1025 H1028 0.950 . S
C1026 C1025 1.387 . S
C1026 C1029 1.387 . S
H1027 C1023 0.950 . S
H1028 C1025 0.950 . S
C1029 C1020 1.390 . S
C1029 H1022 0.950 . S
C1029 C1026 1.387 . S
C1030 C1031 1.387 . S
C1030 H1034 0.950 . S
C1030 C1039 1.390 . S
C1031 C1030 1.387 . S
C1031 C1033 1.387 . S
H1032 C1039 0.950 . S
C1033 C1031 1.387 . S
C1033 C1035 1.390 . S
C1033 H1037 0.950 . S
H1034 C1030 0.950 . S
C1035 C1033 1.390 . S
C1035 C1036 1.387 . S
C1035 H1038 0.950 . S
C1036 C1035 1.387 . S
C1036 C1039 1.387 . S
H1037 C1033 0.950 . S
H1038 C1035 0.950 . S
C1039 C1030 1.390 . S
C1039 H1032 0.950 . S
C1039 C1036 1.387 . S
C1040 C1041 1.387 . S
C1040 H1044 0.950 . S
C1040 C1049 1.390 . S
C1041 C1040 1.387 . S
C1041 C1043 1.387 . S
H1042 C1049 0.950 . S
C1043 C1041 1.387 . S
C1043 C1045 1.390 . S
C1043 H1047 0.950 . S
H1044 C1040 0.950 . S
C1045 C1043 1.390 . S
C1045 C1046 1.387 . S
C1045 H1048 0.950 . S
C1046 C1045 1.387 . S
C1046 C1049 1.387 . S
H1047 C1043 0.950 . S
H1048 C1045 0.950 . S
C1049 C1040 1.390 . S
C1049 H1042 0.950 . S
C1049 C1046 1.387 . S
C1050 C1051 1.387 . S
C1050 H1054 0.950 . S
C1050 C1059 1.390 . S
C1051 C1050 1.387 . S
C1051 C1053 1.387 . S
H1052 C1059 0.950 . S
C1053 C1051 1.387 . S
C1053 C1055 1.390 . S
C1053 H1057 0.950 . S
H1054 C1050 0.950 . S
C1055 C1053 1.390 . S
C1055 C1056 1.387 . S
C1055 H1058 0.950 . S
C1056 C1055 1.387 . S
C1056 C1059 1.387 . S
H1057 C1053 0.950 . S
H1058 C1055 0.950 . S
C1059 C1050 1.390 . S
C1059 H1052 0.950 . S
C1059 C1056 1.387 . S
C1060 C1061 1.387 . S
C1060 H1064 0.950 . S
C1060 C1069 1.390 . S
C1061 C1060 1.387 . S
C1061 C1063 1.387 . S
H1062 C1069 0.950 . S
C1063 C1061 1.387 . S
C1063 C1065 1.390 . S
C1063 H1067 0.950 . S
H1064 C1060 0.950 . S
C1065 C1063 1.390 . S
C1065 C1066 1.387 . S
C1065 H1068 0.950 . S
C1066 C1065 1.387 . S
C1066 C1069 1.387 . S
H1067 C1063 0.950 . S
H1068 C1065 0.950 . S
C1069 C1060 1.390 . S
C1069 H1062 0.950 . S
C1069 C1066 1.387 . S
C1070 C1071 1.387 1_556 S
C1070 H1074 0.950 . S
C1070 C1079 1.390 1_455 S
C1071 C1070 1.387 1_554 S
C1071 C1073 1.387 . S
H1072 C1079 0.950 . S
C1073 C1071 1.387 . S
C1073 C1075 1.390 1_455 S
C1073 H1077 0.950 . S
H1074 C1070 0.950 . S
C1075 C1073 1.390 1_655 S
C1075 C1076 1.387 1_554 S
C1075 H1078 0.950 . S
C1076 C1075 1.387 1_556 S
C1076 C1079 1.387 . S
H1077 C1073 0.950 . S
H1078 C1075 0.950 . S
C1079 C1070 1.390 1_655 S
C1079 H1072 0.950 . S
C1079 C1076 1.387 . S
C1080 C1081 1.387 . S
C1080 H1084 0.950 . S
C1080 C1089 1.390 . S
C1081 C1080 1.387 . S
C1081 C1083 1.387 . S
H1082 C1089 0.950 . S
C1083 C1081 1.387 . S
C1083 C1085 1.390 . S
C1083 H1087 0.950 . S
H1084 C1080 0.950 . S
C1085 C1083 1.390 . S
C1085 C1086 1.387 . S
C1085 H1088 0.950 . S
C1086 C1085 1.387 . S
C1086 C1089 1.387 . S
H1087 C1083 0.950 . S
H1088 C1085 0.950 . S
C1089 C1080 1.390 . S
C1089 H1082 0.950 . S
C1089 C1086 1.387 . S
C1090 C1091 1.387 . S
C1090 H1094 0.950 . S
C1090 C1099 1.390 . S
C1091 C1090 1.387 . S
C1091 C1093 1.387 . S
H1092 C1099 0.950 . S
C1093 C1091 1.387 . S
C1093 C1095 1.390 . S
C1093 H1097 0.950 . S
H1094 C1090 0.950 . S
C1095 C1093 1.390 . S
C1095 C1096 1.387 . S
C1095 H1098 0.950 . S
C1096 C1095 1.387 . S
C1096 C1099 1.387 . S
H1097 C1093 0.950 . S
H1098 C1095 0.950 . S
C1099 C1090 1.390 . S
C1099 H1092 0.950 . S
C1099 C1096 1.387 . S
C1100 C1101 1.404 . S
C1100 H1104 0.951 . S
C1100 C1109 1.373 1_456 S
C1101 C1100 1.404 . S
C1101 C1103 1.387 1_565 S
H1102 C1109 0.950 . S
C1103 C1101 1.387 1_545 S
C1103 C1105 1.373 1_456 S
C1103 H1107 0.950 . S
H1104 C1100 0.951 . S
C1105 C1103 1.373 1_654 S
C1105 C1106 1.404 . S
C1105 H1108 0.951 . S
C1106 C1105 1.404 . S
C1106 C1109 1.387 1_545 S
H1107 C1103 0.950 . S
H1108 C1105 0.951 . S
C1109 C1100 1.373 1_654 S
C1109 H1102 0.950 . S
C1109 C1106 1.387 1_565 S
C1110 C1111 1.387 . S
C1110 H1114 0.950 . S
C1110 C1119 1.390 . S
C1111 C1110 1.387 . S
C1111 C1113 1.387 1_565 S
H1112 C1119 0.950 . S
C1113 C1111 1.387 1_545 S
C1113 C1115 1.390 . S
C1113 H1117 0.950 . S
H1114 C1110 0.950 . S
C1115 C1113 1.390 . S
C1115 C1116 1.387 . S
C1115 H1118 0.950 . S
C1116 C1115 1.387 . S
C1116 C1119 1.387 1_545 S
H1117 C1113 0.950 . S
H1118 C1115 0.950 . S
C1119 C1110 1.390 . S
C1119 H1112 0.950 . S
C1119 C1116 1.387 1_565 S
C641 C2 3.422 . S
C646 C402 3.422 . S
C651 C42 3.422 . S
C656 C442 3.422 . S
C661 C82 3.422 . S
C666 C322 3.422 . S
C671 C122 3.422 . S
C676 C362 3.422 . S
C681 C171 3.422 . S
C686 C571 3.422 . S
C691 C211 3.422 . S
C696 C611 3.422 . S
C701 C251 3.422 . S
C706 C491 3.422 . S
C711 C291 3.424 . S
C716 C531 3.424 . S
C721 C370 3.851 . S
C726 C11 3.743 1_556 S
C731 C410 3.850 . S
C736 C51 3.745 . S
C741 C450 3.850 . S
C746 C91 3.744 . S
C751 C330 3.850 . S
C756 C131 3.745 . S
C761 C162 3.743 1_554 S
C766 C539 3.851 . S
C771 C579 3.851 . S
C776 C202 3.743 . S
C781 C619 3.850 . S
C786 C242 3.744 . S
C791 C499 3.850 . S
C796 C282 3.745 . S
C801 C50 3.851 . S
C806 C331 3.743 . S
C811 C371 3.743 . S
C816 C90 3.851 . S
C821 C411 3.743 1_556 S
C826 C130 3.851 . S
C831 C451 3.745 . S
C836 C10 3.850 . S
C841 C482 3.743 . S
C846 C219 3.851 . S
C851 C259 3.851 . S
C856 C522 3.743 . S
C861 C299 3.851 . S
C866 C562 3.743 1_554 S
C871 C602 3.743 . S
C876 C179 3.851 . S
C881 C7 0.718 . S
C886 C610 0.672 . S
C891 C47 0.718 . S
C896 C170 0.671 . S
C901 C530 0.671 . S
C906 C87 0.718 . S
C911 C250 0.664 . S
C916 C127 0.712 . S
C921 C176 0.714 . S
C926 C459 0.665 . S
C931 C216 0.718 . S
C936 C19 0.671 . S
C941 C379 0.671 . S
C946 C256 0.718 . S
C951 C99 0.664 . S
C956 C296 0.712 . S
C961 C327 0.713 . S
C966 C290 0.664 . S
C971 C367 0.718 . S
C976 C490 0.672 . S
C981 C210 0.671 . S
C986 C407 0.717 . S
C991 C570 0.671 . S
C996 C447 0.718 . S
C1001 C496 0.715 . S
C1006 C139 0.669 . S
C1011 C536 0.712 . S
C1016 C339 0.664 . S
C1021 C576 0.713 . S
C1026 C59 0.664 . S
C1031 C419 0.664 . S
C1036 C616 0.712 . S
C1041 C16 2.275 . S
C1046 C487 2.275 . S
C1051 C56 2.275 . S
C1056 C207 2.275 . S
C1061 C96 2.275 . S
C1066 C567 2.275 . S
C1071 C287 2.275 . S
C1076 C136 2.275 . S
C1081 C167 2.277 . S
C1086 C336 2.277 . S
C1091 C416 2.273 . S
C1096 C247 2.273 . S
C1101 C376 2.275 . S
C1106 C527 2.275 . S
C1111 C607 2.275 . S
C1116 C456 2.275 . S
