# Generated by pormake.
# Topology wip, (6)-cn, num edge types: 1
# Building blocks:
#     Node 0, Type 0, BuildingBlock: UKALOJ_clean_sbu_0, # of connection points: 6
#     Node 1, Type 0, BuildingBlock: UKALOJ_clean_sbu_0, # of connection points: 6
#     Node 2, Type 0, BuildingBlock: UKALOJ_clean_sbu_0, # of connection points: 6
#     Node 3, Type 0, BuildingBlock: UKALOJ_clean_sbu_0, # of connection points: 6
#     Node 4, Type 0, BuildingBlock: UKALOJ_clean_sbu_0, # of connection points: 6
#     Node 5, Type 0, BuildingBlock: UKALOJ_clean_sbu_0, # of connection points: 6
#     Node 6, Type 0, BuildingBlock: UKALOJ_clean_sbu_0, # of connection points: 6
#     Node 7, Type 0, BuildingBlock: UKALOJ_clean_sbu_0, # of connection points: 6
#     Node 8, Type 0, BuildingBlock: UKALOJ_clean_sbu_0, # of connection points: 6
#     Node 9, Type 0, BuildingBlock: UKALOJ_clean_sbu_0, # of connection points: 6
#     Node 10, Type 0, BuildingBlock: UKALOJ_clean_sbu_0, # of connection points: 6
#     Node 11, Type 0, BuildingBlock: UKALOJ_clean_sbu_0, # of connection points: 6
#     Node 12, Type 0, BuildingBlock: UKALOJ_clean_sbu_0, # of connection points: 6
#     Node 13, Type 0, BuildingBlock: UKALOJ_clean_sbu_0, # of connection points: 6
#     Node 14, Type 0, BuildingBlock: UKALOJ_clean_sbu_0, # of connection points: 6
#     Node 15, Type 0, BuildingBlock: UKALOJ_clean_sbu_0, # of connection points: 6
#     Node 16, Type 0, BuildingBlock: UKALOJ_clean_sbu_0, # of connection points: 6
#     Node 17, Type 0, BuildingBlock: UKALOJ_clean_sbu_0, # of connection points: 6
#     Node 18, Type 0, BuildingBlock: UKALOJ_clean_sbu_0, # of connection points: 6
#     Node 19, Type 0, BuildingBlock: UKALOJ_clean_sbu_0, # of connection points: 6
#     Node 20, Type 0, BuildingBlock: UKALOJ_clean_sbu_0, # of connection points: 6
#     Node 21, Type 0, BuildingBlock: UKALOJ_clean_sbu_0, # of connection points: 6
#     Node 22, Type 0, BuildingBlock: UKALOJ_clean_sbu_0, # of connection points: 6
#     Node 23, Type 0, BuildingBlock: UKALOJ_clean_sbu_0, # of connection points: 6
#     Node 24, Type 0, BuildingBlock: UKALOJ_clean_sbu_0, # of connection points: 6
#     Node 25, Type 0, BuildingBlock: UKALOJ_clean_sbu_0, # of connection points: 6
#     Node 26, Type 0, BuildingBlock: UKALOJ_clean_sbu_0, # of connection points: 6
#     Node 27, Type 0, BuildingBlock: UKALOJ_clean_sbu_0, # of connection points: 6
#     Node 28, Type 0, BuildingBlock: UKALOJ_clean_sbu_0, # of connection points: 6
#     Node 29, Type 0, BuildingBlock: UKALOJ_clean_sbu_0, # of connection points: 6
#     Node 30, Type 0, BuildingBlock: UKALOJ_clean_sbu_0, # of connection points: 6
#     Node 31, Type 0, BuildingBlock: UKALOJ_clean_sbu_0, # of connection points: 6
#     Edge 32, Type (0, 0), BuildingBlock: ZUJKAS_clean_linker_0, # of connection points: 2
#     Edge 33, Type (0, 0), BuildingBlock: ZUJKAS_clean_linker_0, # of connection points: 2
#     Edge 34, Type (0, 0), BuildingBlock: ZUJKAS_clean_linker_0, # of connection points: 2
#     Edge 35, Type (0, 0), BuildingBlock: ZUJKAS_clean_linker_0, # of connection points: 2
#     Edge 36, Type (0, 0), BuildingBlock: ZUJKAS_clean_linker_0, # of connection points: 2
#     Edge 37, Type (0, 0), BuildingBlock: ZUJKAS_clean_linker_0, # of connection points: 2
#     Edge 38, Type (0, 0), BuildingBlock: ZUJKAS_clean_linker_0, # of connection points: 2
#     Edge 39, Type (0, 0), BuildingBlock: ZUJKAS_clean_linker_0, # of connection points: 2
#     Edge 40, Type (0, 0), BuildingBlock: ZUJKAS_clean_linker_0, # of connection points: 2
#     Edge 41, Type (0, 0), BuildingBlock: ZUJKAS_clean_linker_0, # of connection points: 2
#     Edge 42, Type (0, 0), BuildingBlock: ZUJKAS_clean_linker_0, # of connection points: 2
#     Edge 43, Type (0, 0), BuildingBlock: ZUJKAS_clean_linker_0, # of connection points: 2
#     Edge 44, Type (0, 0), BuildingBlock: ZUJKAS_clean_linker_0, # of connection points: 2
#     Edge 45, Type (0, 0), BuildingBlock: ZUJKAS_clean_linker_0, # of connection points: 2
#     Edge 46, Type (0, 0), BuildingBlock: ZUJKAS_clean_linker_0, # of connection points: 2
#     Edge 47, Type (0, 0), BuildingBlock: ZUJKAS_clean_linker_0, # of connection points: 2
#     Edge 48, Type (0, 0), BuildingBlock: ZUJKAS_clean_linker_0, # of connection points: 2
#     Edge 49, Type (0, 0), BuildingBlock: ZUJKAS_clean_linker_0, # of connection points: 2
#     Edge 50, Type (0, 0), BuildingBlock: ZUJKAS_clean_linker_0, # of connection points: 2
#     Edge 51, Type (0, 0), BuildingBlock: ZUJKAS_clean_linker_0, # of connection points: 2
#     Edge 52, Type (0, 0), BuildingBlock: ZUJKAS_clean_linker_0, # of connection points: 2
#     Edge 53, Type (0, 0), BuildingBlock: ZUJKAS_clean_linker_0, # of connection points: 2
#     Edge 54, Type (0, 0), BuildingBlock: ZUJKAS_clean_linker_0, # of connection points: 2
#     Edge 55, Type (0, 0), BuildingBlock: ZUJKAS_clean_linker_0, # of connection points: 2
#     Edge 56, Type (0, 0), BuildingBlock: ZUJKAS_clean_linker_0, # of connection points: 2
#     Edge 57, Type (0, 0), BuildingBlock: ZUJKAS_clean_linker_0, # of connection points: 2
#     Edge 58, Type (0, 0), BuildingBlock: ZUJKAS_clean_linker_0, # of connection points: 2
#     Edge 59, Type (0, 0), BuildingBlock: ZUJKAS_clean_linker_0, # of connection points: 2
#     Edge 60, Type (0, 0), BuildingBlock: ZUJKAS_clean_linker_0, # of connection points: 2
#     Edge 61, Type (0, 0), BuildingBlock: ZUJKAS_clean_linker_0, # of connection points: 2
#     Edge 62, Type (0, 0), BuildingBlock: ZUJKAS_clean_linker_0, # of connection points: 2
#     Edge 63, Type (0, 0), BuildingBlock: ZUJKAS_clean_linker_0, # of connection points: 2
#     Edge 64, Type (0, 0), BuildingBlock: ZUJKAS_clean_linker_0, # of connection points: 2
#     Edge 65, Type (0, 0), BuildingBlock: ZUJKAS_clean_linker_0, # of connection points: 2
#     Edge 66, Type (0, 0), BuildingBlock: ZUJKAS_clean_linker_0, # of connection points: 2
#     Edge 67, Type (0, 0), BuildingBlock: ZUJKAS_clean_linker_0, # of connection points: 2
#     Edge 68, Type (0, 0), BuildingBlock: ZUJKAS_clean_linker_0, # of connection points: 2
#     Edge 69, Type (0, 0), BuildingBlock: ZUJKAS_clean_linker_0, # of connection points: 2
#     Edge 70, Type (0, 0), BuildingBlock: ZUJKAS_clean_linker_0, # of connection points: 2
#     Edge 71, Type (0, 0), BuildingBlock: ZUJKAS_clean_linker_0, # of connection points: 2
#     Edge 72, Type (0, 0), BuildingBlock: ZUJKAS_clean_linker_0, # of connection points: 2
#     Edge 73, Type (0, 0), BuildingBlock: ZUJKAS_clean_linker_0, # of connection points: 2
#     Edge 74, Type (0, 0), BuildingBlock: ZUJKAS_clean_linker_0, # of connection points: 2
#     Edge 75, Type (0, 0), BuildingBlock: ZUJKAS_clean_linker_0, # of connection points: 2
#     Edge 76, Type (0, 0), BuildingBlock: ZUJKAS_clean_linker_0, # of connection points: 2
#     Edge 77, Type (0, 0), BuildingBlock: ZUJKAS_clean_linker_0, # of connection points: 2
#     Edge 78, Type (0, 0), BuildingBlock: ZUJKAS_clean_linker_0, # of connection points: 2
#     Edge 79, Type (0, 0), BuildingBlock: ZUJKAS_clean_linker_0, # of connection points: 2
#     Edge 80, Type (0, 0), BuildingBlock: ZUJKAS_clean_linker_0, # of connection points: 2
#     Edge 81, Type (0, 0), BuildingBlock: ZUJKAS_clean_linker_0, # of connection points: 2
#     Edge 82, Type (0, 0), BuildingBlock: ZUJKAS_clean_linker_0, # of connection points: 2
#     Edge 83, Type (0, 0), BuildingBlock: ZUJKAS_clean_linker_0, # of connection points: 2
#     Edge 84, Type (0, 0), BuildingBlock: ZUJKAS_clean_linker_0, # of connection points: 2
#     Edge 85, Type (0, 0), BuildingBlock: ZUJKAS_clean_linker_0, # of connection points: 2
#     Edge 86, Type (0, 0), BuildingBlock: ZUJKAS_clean_linker_0, # of connection points: 2
#     Edge 87, Type (0, 0), BuildingBlock: ZUJKAS_clean_linker_0, # of connection points: 2
#     Edge 88, Type (0, 0), BuildingBlock: ZUJKAS_clean_linker_0, # of connection points: 2
#     Edge 89, Type (0, 0), BuildingBlock: ZUJKAS_clean_linker_0, # of connection points: 2
#     Edge 90, Type (0, 0), BuildingBlock: ZUJKAS_clean_linker_0, # of connection points: 2
#     Edge 91, Type (0, 0), BuildingBlock: ZUJKAS_clean_linker_0, # of connection points: 2
#     Edge 92, Type (0, 0), BuildingBlock: ZUJKAS_clean_linker_0, # of connection points: 2
#     Edge 93, Type (0, 0), BuildingBlock: ZUJKAS_clean_linker_0, # of connection points: 2
#     Edge 94, Type (0, 0), BuildingBlock: ZUJKAS_clean_linker_0, # of connection points: 2
#     Edge 95, Type (0, 0), BuildingBlock: ZUJKAS_clean_linker_0, # of connection points: 2
#     Edge 96, Type (0, 0), BuildingBlock: ZUJKAS_clean_linker_0, # of connection points: 2
#     Edge 97, Type (0, 0), BuildingBlock: ZUJKAS_clean_linker_0, # of connection points: 2
#     Edge 98, Type (0, 0), BuildingBlock: ZUJKAS_clean_linker_0, # of connection points: 2
#     Edge 99, Type (0, 0), BuildingBlock: ZUJKAS_clean_linker_0, # of connection points: 2
#     Edge 100, Type (0, 0), BuildingBlock: ZUJKAS_clean_linker_0, # of connection points: 2
#     Edge 101, Type (0, 0), BuildingBlock: ZUJKAS_clean_linker_0, # of connection points: 2
#     Edge 102, Type (0, 0), BuildingBlock: ZUJKAS_clean_linker_0, # of connection points: 2
#     Edge 103, Type (0, 0), BuildingBlock: ZUJKAS_clean_linker_0, # of connection points: 2
#     Edge 104, Type (0, 0), BuildingBlock: ZUJKAS_clean_linker_0, # of connection points: 2
#     Edge 105, Type (0, 0), BuildingBlock: ZUJKAS_clean_linker_0, # of connection points: 2
#     Edge 106, Type (0, 0), BuildingBlock: ZUJKAS_clean_linker_0, # of connection points: 2
#     Edge 107, Type (0, 0), BuildingBlock: ZUJKAS_clean_linker_0, # of connection points: 2
#     Edge 108, Type (0, 0), BuildingBlock: ZUJKAS_clean_linker_0, # of connection points: 2
#     Edge 109, Type (0, 0), BuildingBlock: ZUJKAS_clean_linker_0, # of connection points: 2
#     Edge 110, Type (0, 0), BuildingBlock: ZUJKAS_clean_linker_0, # of connection points: 2
#     Edge 111, Type (0, 0), BuildingBlock: ZUJKAS_clean_linker_0, # of connection points: 2
#     Edge 112, Type (0, 0), BuildingBlock: ZUJKAS_clean_linker_0, # of connection points: 2
#     Edge 113, Type (0, 0), BuildingBlock: ZUJKAS_clean_linker_0, # of connection points: 2
#     Edge 114, Type (0, 0), BuildingBlock: ZUJKAS_clean_linker_0, # of connection points: 2
#     Edge 115, Type (0, 0), BuildingBlock: ZUJKAS_clean_linker_0, # of connection points: 2
#     Edge 116, Type (0, 0), BuildingBlock: ZUJKAS_clean_linker_0, # of connection points: 2
#     Edge 117, Type (0, 0), BuildingBlock: ZUJKAS_clean_linker_0, # of connection points: 2
#     Edge 118, Type (0, 0), BuildingBlock: ZUJKAS_clean_linker_0, # of connection points: 2
#     Edge 119, Type (0, 0), BuildingBlock: ZUJKAS_clean_linker_0, # of connection points: 2
#     Edge 120, Type (0, 0), BuildingBlock: ZUJKAS_clean_linker_0, # of connection points: 2
#     Edge 121, Type (0, 0), BuildingBlock: ZUJKAS_clean_linker_0, # of connection points: 2
#     Edge 122, Type (0, 0), BuildingBlock: ZUJKAS_clean_linker_0, # of connection points: 2
#     Edge 123, Type (0, 0), BuildingBlock: ZUJKAS_clean_linker_0, # of connection points: 2
#     Edge 124, Type (0, 0), BuildingBlock: ZUJKAS_clean_linker_0, # of connection points: 2
#     Edge 125, Type (0, 0), BuildingBlock: ZUJKAS_clean_linker_0, # of connection points: 2
#     Edge 126, Type (0, 0), BuildingBlock: ZUJKAS_clean_linker_0, # of connection points: 2
#     Edge 127, Type (0, 0), BuildingBlock: ZUJKAS_clean_linker_0, # of connection points: 2
# Relax obj value: 0.807
# Max RMSD: 0.243
# Mean RMSD: 0.242
data_MOF--net-wip--node1-UKALOJ_clean_sbu_0--edge1-ZUJKAS_clean_linker_0
_symmetry_space_group_name_H-M    P1
_symmetry_Int_Tables_number       1
_symmetry_cell_setting            triclinic
loop_
_symmetry_equiv_pos_as_xyz
'x, y, z'
_cell_length_a     113.92961
_cell_length_b     113.90953
_cell_length_c     29.219759
_cell_angle_alpha  89.949876
_cell_angle_beta   89.962148
_cell_angle_gamma 90.101485
loop_
_atom_site_label
_atom_site_type_symbol
_atom_site_fract_x
_atom_site_fract_y
_atom_site_fract_z
_atom_type_partial_charge
Zn0 Zn 0.05372 0.45615 0.03439 0.0
O1 O 0.06228 0.46322 0.97902 0.0
C2 C 0.04717 0.43587 0.97415 0.0
Zn3 Zn 0.06635 0.44138 0.04024 0.0
C4 C 0.07221 0.45935 0.96668 0.0
O5 O 0.0767 0.45054 0.98742 0.0
C6 C 0.04675 0.439 0.10708 0.0
O7 O 0.07494 0.4515 0.09349 0.0
O8 O 0.06367 0.46666 0.07854 0.0
N9 N 0.0788 0.428 0.04444 0.0
C10 C 0.08535 0.42354 0.079 0.0
C11 C 0.0897 0.41397 0.01876 0.0
N12 N 0.08154 0.42198 0.00721 0.0
N13 N 0.09227 0.41466 0.06371 0.0
C14 C 0.03163 0.469 1.00406 0.0
C15 C 0.02687 0.47737 0.06585 0.0
N16 N 0.04111 0.46878 0.03145 0.0
N17 N 0.03824 0.47435 0.06949 0.0
N18 N 0.02236 0.47385 0.02542 0.0
H19 H 0.02712 0.47174 0.93396 0.0
H20 H 0.02567 0.45699 0.95276 0.0
H21 H 0.04023 0.46309 0.9421 0.0
C22 C 0.03129 0.46488 0.95544 0.0
C23 C 0.08567 0.42874 0.12611 0.0
H24 H 0.09053 0.43717 0.1247 0.0
H25 H 0.09018 0.42306 0.15119 0.0
H26 H 0.07662 0.4306 0.13801 0.0
O27 O 0.05544 0.43299 0.09256 0.0
O28 O 0.04482 0.449 0.08972 0.0
C29 C 0.07202 0.46212 0.10108 0.0
O30 O 0.04381 0.44547 0.99144 0.0
O31 O 0.05708 0.43169 0.98616 0.0
Zn32 Zn 0.7945 0.80152 0.27164 0.0
O33 O 0.78765 0.8114 0.21854 0.0
C34 C 0.81514 0.79504 0.21297 0.0
Zn35 Zn 0.80965 0.81365 0.28089 0.0
C36 C 0.79226 0.82118 0.20822 0.0
O37 O 0.8015 0.82465 0.22887 0.0
C38 C 0.81108 0.7934 0.34481 0.0
O39 O 0.79922 0.82226 0.33338 0.0
O40 O 0.78416 0.81088 0.31773 0.0
N41 N 0.82318 0.82565 0.28804 0.0
C42 C 0.82787 0.83133 0.32435 0.0
C43 C 0.83709 0.83713 0.26497 0.0
N44 N 0.82897 0.82927 0.25132 0.0
N45 N 0.83664 0.83859 0.31069 0.0
C46 C 0.78077 0.7807 0.23247 0.0
C47 C 0.77151 0.77484 0.29113 0.0
N48 N 0.78164 0.7892 0.26432 0.0
N49 N 0.77562 0.78566 0.30047 0.0
N50 N 0.77478 0.77138 0.24883 0.0
H51 H 0.78662 0.79095 0.17446 0.0
H52 H 0.77858 0.77769 0.1606 0.0
H53 H 0.79336 0.77666 0.17987 0.0
C54 C 0.78512 0.78165 0.18414 0.0
C55 C 0.82296 0.83063 0.37189 0.0
H56 H 0.81543 0.83676 0.3745 0.0
H57 H 0.82947 0.8332 0.3981 0.0
H58 H 0.81971 0.82165 0.37918 0.0
O59 O 0.81717 0.80228 0.33272 0.0
O60 O 0.80131 0.79153 0.32534 0.0
C61 C 0.78859 0.81924 0.3407 0.0
O62 O 0.80504 0.79211 0.22689 0.0
O63 O 0.81972 0.80449 0.22796 0.0
Zn64 Zn 0.4577 0.55331 0.5255 0.0
O65 O 0.4496 0.5423 0.47909 0.0
C66 C 0.45747 0.57357 0.46101 0.0
Zn67 Zn 0.44176 0.5642 0.534 0.0
C68 C 0.43918 0.54417 0.4658 0.0
O69 O 0.4336 0.55298 0.48172 0.0
C70 C 0.46125 0.5725 0.59428 0.0
O71 O 0.43633 0.55178 0.58684 0.0
O72 O 0.45273 0.54188 0.57827 0.0
N73 N 0.4264 0.57369 0.54031 0.0
C74 C 0.42129 0.57938 0.57568 0.0
C75 C 0.4106 0.58224 0.51697 0.0
N76 N 0.41971 0.57549 0.50397 0.0
N77 N 0.41137 0.5849 0.56182 0.0
C78 C 0.47899 0.54212 0.47828 0.0
C79 C 0.49149 0.54361 0.53222 0.0
N80 N 0.47317 0.54524 0.51666 0.0
N81 N 0.48095 0.54608 0.55007 0.0
N82 N 0.49054 0.54135 0.48715 0.0
H83 H 0.48019 0.53839 0.40578 0.0
H84 H 0.46793 0.54752 0.42233 0.0
H85 H 0.46768 0.53215 0.43494 0.0
C86 C 0.47346 0.53998 0.43252 0.0
C87 C 0.42568 0.57889 0.62397 0.0
H88 H 0.43049 0.57061 0.63028 0.0
H89 H 0.4183 0.57959 0.64859 0.0
H90 H 0.43181 0.58631 0.62984 0.0
O91 O 0.45051 0.57493 0.58654 0.0
O92 O 0.46599 0.56418 0.57252 0.0
C93 C 0.44294 0.54322 0.59848 0.0
O94 O 0.46288 0.56452 0.47402 0.0
O95 O 0.44774 0.57622 0.47989 0.0
Zn96 Zn 0.704 0.20342 0.76242 0.0
O97 O 0.70832 0.1934 0.70652 0.0
C98 C 0.6833 0.21062 0.70891 0.0
Zn99 Zn 0.6892 0.19126 0.77643 0.0
C100 C 0.70396 0.1835 0.69733 0.0
O101 O 0.69578 0.17942 0.7226 0.0
C102 C 0.68989 0.21209 0.84054 0.0
O103 O 0.70016 0.18247 0.82826 0.0
O104 O 0.7147 0.19365 0.80559 0.0
N105 N 0.67497 0.17997 0.7878 0.0
C106 C 0.67113 0.17339 0.8235 0.0
C107 C 0.65982 0.16983 0.76719 0.0
N108 N 0.66785 0.17773 0.75309 0.0
N109 N 0.6616 0.16691 0.81133 0.0
C110 C 0.7292 0.21191 0.74001 0.0
C111 C 0.72661 0.23028 0.73284 0.0
N112 N 0.71767 0.21406 0.74645 0.0
N113 N 0.71605 0.22545 0.74101 0.0
N114 N 0.7351 0.22201 0.732 0.0
H115 H 0.72902 0.19362 0.72008 0.0
H116 H 0.73573 0.19653 0.77398 0.0
H117 H 0.74333 0.20018 0.72173 0.0
C118 C 0.73462 0.1999 0.73874 0.0
C119 C 0.67745 0.17257 0.86832 0.0
H120 H 0.68524 0.16685 0.86396 0.0
H121 H 0.6719 0.16873 0.89557 0.0
H122 H 0.68054 0.1814 0.87891 0.0
O123 O 0.68328 0.20347 0.82932 0.0
O124 O 0.69938 0.21383 0.81861 0.0
C125 C 0.71085 0.18576 0.83229 0.0
O126 O 0.69353 0.21352 0.7212 0.0
O127 O 0.67887 0.20108 0.72433 0.0
Zn128 Zn 0.05803 0.55171 0.54949 0.0
O129 O 0.06855 0.54287 0.49976 0.0
C130 C 0.03678 0.54893 0.48546 0.0
Zn131 Zn 0.04642 0.53577 0.56209 0.0
C132 C 0.06644 0.53199 0.49423 0.0
O133 O 0.05831 0.52721 0.51743 0.0
C134 C 0.03754 0.55515 0.61683 0.0
O135 O 0.05734 0.53384 0.61893 0.0
O136 O 0.07044 0.54725 0.60227 0.0
N137 N 0.03956 0.51868 0.57647 0.0
C138 C 0.04831 0.50907 0.60112 0.0
C139 C 0.02914 0.49787 0.56423 0.0
N140 N 0.02864 0.51241 0.5551 0.0
N141 N 0.04146 0.49618 0.59571 0.0
C142 C 0.07336 0.57222 0.50399 0.0
C143 C 0.07615 0.58322 0.56185 0.0
N144 N 0.06714 0.56754 0.53918 0.0
N145 N 0.06888 0.57449 0.57484 0.0
N146 N 0.07914 0.58207 0.51747 0.0
H147 H 0.08197 0.56021 0.45934 0.0
H148 H 0.07654 0.57308 0.43109 0.0
H149 H 0.06643 0.56171 0.44921 0.0
C150 C 0.07459 0.56654 0.45808 0.0
C151 C 0.06117 0.50994 0.6104 0.0
H152 H 0.06562 0.51573 0.58541 0.0
H153 H 0.06511 0.50106 0.60844 0.0
H154 H 0.06254 0.51319 0.64569 0.0
O155 O 0.03481 0.54472 0.60517 0.0
O156 O 0.0468 0.55995 0.60047 0.0
C157 C 0.06681 0.53912 0.62848 0.0
O158 O 0.04528 0.55564 0.49733 0.0
O159 O 0.03525 0.53912 0.50592 0.0
Zn160 Zn 0.697 0.80948 0.79192 0.0
O161 O 0.70732 0.81837 0.73947 0.0
C162 C 0.69466 0.78921 0.72653 0.0
Zn163 Zn 0.71186 0.79684 0.79713 0.0
C164 C 0.71771 0.81497 0.72983 0.0
O165 O 0.72197 0.80606 0.75002 0.0
C166 C 0.6917 0.7905 0.85853 0.0
O167 O 0.71919 0.80681 0.8482 0.0
O168 O 0.70544 0.8202 0.84469 0.0
N169 N 0.7245 0.78438 0.80626 0.0
C170 C 0.72713 0.77875 0.8456 0.0
C171 C 0.73213 0.7676 0.7909 0.0
N172 N 0.72784 0.77752 0.77221 0.0
N173 N 0.73162 0.76803 0.83705 0.0
C174 C 0.6787 0.82808 0.75416 0.0
C175 C 0.66931 0.83194 0.81544 0.0
N176 N 0.68343 0.82149 0.78792 0.0
N177 N 0.67755 0.82392 0.8258 0.0
N178 N 0.66977 0.83472 0.77067 0.0
H179 H 0.69204 0.83369 0.70785 0.0
H180 H 0.67775 0.83327 0.6825 0.0
H181 H 0.68562 0.81976 0.6941 0.0
C182 C 0.68366 0.82873 0.70672 0.0
C183 C 0.726 0.78395 0.89268 0.0
H184 H 0.73094 0.79234 0.8941 0.0
H185 H 0.72971 0.77799 0.919 0.0
H186 H 0.71674 0.7858 0.90129 0.0
O187 O 0.70161 0.78745 0.8433 0.0
O188 O 0.6872 0.80007 0.84453 0.0
C189 C 0.71506 0.8165 0.86173 0.0
O190 O 0.68908 0.79836 0.73935 0.0
O191 O 0.70449 0.78689 0.7448 0.0
Zn192 Zn 0.4448 0.44569 0.04353 0.0
O193 O 0.43737 0.4568 0.98889 0.0
C194 C 0.46614 0.44238 0.98434 0.0
Zn195 Zn 0.45815 0.45981 0.0542 0.0
C196 C 0.44209 0.46677 0.98004 0.0
O197 O 0.4508 0.47018 1.00373 0.0
C198 C 0.46221 0.43937 0.11603 0.0
O199 O 0.44744 0.46783 0.10248 0.0
O200 O 0.43377 0.45437 0.09421 0.0
N201 N 0.47105 0.47177 0.0671 0.0
C202 C 0.47738 0.4731 0.10583 0.0
C203 C 0.48736 0.48037 0.05138 0.0
N204 N 0.47717 0.47653 0.0334 0.0
N205 N 0.48782 0.47818 0.09679 0.0
C206 C 0.42598 0.42799 1.00097 0.0
C207 C 0.4214 0.41842 0.06107 0.0
N208 N 0.43216 0.43268 0.03605 0.0
N209 N 0.42922 0.4267 0.07321 0.0
N210 N 0.41915 0.41899 0.01589 0.0
H211 H 0.42047 0.4386 0.94482 0.0
H212 H 0.42577 0.4243 0.92867 0.0
H213 H 0.43598 0.43571 0.94608 0.0
C214 C 0.42719 0.43181 0.95219 0.0
C215 C 0.47329 0.46997 0.15327 0.0
H216 H 0.47582 0.46088 0.16228 0.0
H217 H 0.46365 0.47074 0.15629 0.0
H218 H 0.4775 0.47587 0.17865 0.0
O219 O 0.46576 0.4493 0.10291 0.0
O220 O 0.45292 0.43512 0.09832 0.0
C221 C 0.43748 0.46374 0.11321 0.0
O222 O 0.4563 0.43748 0.9933 0.0
O223 O 0.46888 0.45179 0.00502 0.0
Zn224 Zn 0.80471 0.1945 0.28776 0.0
O225 O 0.79312 0.18766 0.23455 0.0
C226 C 0.80967 0.21524 0.22591 0.0
Zn227 Zn 0.7919 0.20916 0.29772 0.0
C228 C 0.78346 0.19286 0.22528 0.0
O229 O 0.78064 0.20201 0.24777 0.0
C230 C 0.81249 0.21172 0.35982 0.0
O231 O 0.78336 0.19959 0.34874 0.0
O232 O 0.79495 0.18444 0.33931 0.0
N233 N 0.78111 0.22315 0.30944 0.0
C234 C 0.77997 0.22928 0.34875 0.0
C235 C 0.7756 0.24077 0.29427 0.0
N236 N 0.77814 0.23026 0.27562 0.0
N237 N 0.77683 0.24044 0.34019 0.0
C238 C 0.82265 0.17566 0.24643 0.0
C239 C 0.8266 0.16595 0.30676 0.0
N240 N 0.81645 0.18055 0.28109 0.0
N241 N 0.81899 0.17447 0.3184 0.0
N242 N 0.82914 0.16644 0.26174 0.0
H243 H 0.81327 0.18398 0.19132 0.0
H244 H 0.82277 0.172 0.17411 0.0
H245 H 0.82891 0.18598 0.19049 0.0
C246 C 0.82178 0.17958 0.19765 0.0
C247 C 0.78148 0.22444 0.39624 0.0
H248 H 0.77728 0.21572 0.39882 0.0
H249 H 0.77728 0.23033 0.42164 0.0
H250 H 0.79085 0.2237 0.40553 0.0
O251 O 0.80315 0.21634 0.34544 0.0
O252 O 0.81583 0.20198 0.34271 0.0
C253 C 0.78634 0.18927 0.35983 0.0
O254 O 0.81385 0.20512 0.23559 0.0
O255 O 0.80059 0.21881 0.24686 0.0
Zn256 Zn 0.94194 0.56383 0.04811 0.0
O257 O 0.9535 0.57262 0.99972 0.0
C258 C 0.94131 0.54484 0.97739 0.0
Zn259 Zn 0.95631 0.55089 0.05685 0.0
C260 C 0.96417 0.56941 0.99474 0.0
O261 O 0.96806 0.56077 0.0177 0.0
C262 C 0.9344 0.54443 0.10808 0.0
O263 O 0.96204 0.55925 0.11484 0.0
O264 O 0.94949 0.57369 0.10558 0.0
N265 N 0.96838 0.53796 0.0674 0.0
C266 C 0.96874 0.52999 0.10159 0.0
C267 C 0.97854 0.52307 0.04611 0.0
N268 N 0.97476 0.53377 0.03333 0.0
N269 N 0.97476 0.52037 0.0887 0.0
C270 C 0.92439 0.58251 0.00517 0.0
C271 C 0.9144 0.58692 0.06433 0.0
N272 N 0.92891 0.57637 0.04069 0.0
N273 N 0.92268 0.5792 0.07729 0.0
N274 N 0.91523 0.58921 0.01919 0.0
H275 H 0.93325 0.57304 0.95137 0.0
H276 H 0.93479 0.5887 0.94936 0.0
H277 H 0.92109 0.58208 0.93262 0.0
C278 C 0.92858 0.58143 0.95677 0.0
C279 C 0.96242 0.53105 0.14657 0.0
H280 H 0.95963 0.54016 0.1536 0.0
H281 H 0.96828 0.52827 0.17479 0.0
H282 H 0.95468 0.52511 0.14683 0.0
O283 O 0.94427 0.54093 0.09405 0.0
O284 O 0.93079 0.55454 0.09635 0.0
C285 C 0.95789 0.56897 0.12783 0.0
O286 O 0.93495 0.5533 0.9917 0.0
O287 O 0.95076 0.54247 0.99826 0.0
Zn288 Zn 0.18889 0.19361 0.79679 0.0
O289 O 0.17944 0.20425 0.74733 0.0
C290 C 0.2097 0.19392 0.73513 0.0
Zn291 Zn 0.20006 0.20942 0.80985 0.0
C292 C 0.18289 0.21464 0.73797 0.0
O293 O 0.19155 0.21905 0.75931 0.0
C294 C 0.20673 0.18899 0.86896 0.0
O295 O 0.18889 0.21605 0.85884 0.0
O296 O 0.17773 0.20036 0.85184 0.0
N297 N 0.21181 0.22263 0.82103 0.0
C298 C 0.2193 0.2235 0.85658 0.0
C299 C 0.22752 0.23149 0.79943 0.0
N300 N 0.21683 0.2279 0.78574 0.0
N301 N 0.22944 0.22861 0.84364 0.0
C302 C 0.1713 0.17497 0.75285 0.0
C303 C 0.16653 0.16522 0.81231 0.0
N304 N 0.17745 0.1795 0.78835 0.0
N305 N 0.17448 0.17336 0.82506 0.0
N306 N 0.16436 0.16599 0.76711 0.0
H307 H 0.16472 0.18729 0.70433 0.0
H308 H 0.16896 0.17353 0.67953 0.0
H309 H 0.18004 0.18396 0.69774 0.0
C310 C 0.17132 0.18014 0.70572 0.0
C311 C 0.2166 0.21995 0.90498 0.0
H312 H 0.20704 0.21872 0.91018 0.0
H313 H 0.21986 0.22683 0.92869 0.0
H314 H 0.22124 0.21173 0.91403 0.0
O315 O 0.20859 0.19962 0.85936 0.0
O316 O 0.19883 0.18338 0.84722 0.0
C317 C 0.17998 0.21017 0.87099 0.0
O318 O 0.20055 0.18764 0.74183 0.0
O319 O 0.21137 0.20287 0.76008 0.0
Zn320 Zn 0.56118 0.43962 0.54915 0.0
O321 O 0.54908 0.43145 0.49974 0.0
C322 C 0.5614 0.46135 0.48973 0.0
Zn323 Zn 0.5467 0.45205 0.56667 0.0
C324 C 0.53877 0.43569 0.49461 0.0
O325 O 0.53559 0.4443 0.51923 0.0
C326 C 0.56829 0.45713 0.62075 0.0
O327 O 0.54056 0.44062 0.61526 0.0
O328 O 0.55476 0.42804 0.60443 0.0
N329 N 0.53387 0.46327 0.58724 0.0
C330 C 0.53173 0.46798 0.62892 0.0
C331 C 0.5197 0.47558 0.58203 0.0
N332 N 0.52623 0.46785 0.55834 0.0
N333 N 0.52294 0.47589 0.62653 0.0
C334 C 0.57977 0.42275 0.49848 0.0
C335 C 0.58682 0.41412 0.55696 0.0
N336 N 0.57445 0.42743 0.53577 0.0
N337 N 0.57895 0.42203 0.57185 0.0
N338 N 0.58758 0.41432 0.51096 0.0
H339 H 0.56807 0.43022 0.4484 0.0
H340 H 0.57713 0.41821 0.42778 0.0
H341 H 0.58345 0.43246 0.43771 0.0
C342 C 0.57685 0.42606 0.45026 0.0
C343 C 0.5378 0.46449 0.67263 0.0
H344 H 0.53227 0.46668 0.70271 0.0
H345 H 0.54625 0.46925 0.67581 0.0
H346 H 0.53973 0.45502 0.67367 0.0
O347 O 0.55779 0.46001 0.61321 0.0
O348 O 0.57274 0.44855 0.59873 0.0
C349 C 0.54553 0.43114 0.62585 0.0
O350 O 0.5669 0.45166 0.49517 0.0
O351 O 0.55277 0.46372 0.51588 0.0
Zn352 Zn 0.31202 0.80907 0.29651 0.0
O353 O 0.32043 0.79772 0.24531 0.0
C354 C 0.29153 0.81012 0.23168 0.0
Zn355 Zn 0.29949 0.79409 0.3063 0.0
C356 C 0.31683 0.78724 0.23788 0.0
O357 O 0.30814 0.78327 0.26039 0.0
C358 C 0.29351 0.81511 0.36413 0.0
O359 O 0.30973 0.78738 0.35788 0.0
O360 O 0.32288 0.80139 0.35095 0.0
N361 N 0.28687 0.78181 0.32014 0.0
C362 C 0.28062 0.78051 0.35919 0.0
C363 C 0.27063 0.77293 0.30546 0.0
N364 N 0.28073 0.77688 0.28691 0.0
N365 N 0.27027 0.77523 0.35074 0.0
C366 C 0.33079 0.82674 0.25202 0.0
C367 C 0.33523 0.83697 0.31049 0.0
N368 N 0.3243 0.8226 0.2875 0.0
N369 N 0.32711 0.82905 0.32357 0.0
N370 N 0.33775 0.83581 0.26566 0.0
H371 H 0.33611 0.81281 0.20811 0.0
H372 H 0.3352 0.82672 0.17961 0.0
H373 H 0.32195 0.81878 0.1951 0.0
C374 C 0.33101 0.82108 0.2058 0.0
C375 C 0.28451 0.7842 0.40627 0.0
H376 H 0.28208 0.79342 0.41318 0.0
H377 H 0.29409 0.78324 0.41051 0.0
H378 H 0.28006 0.77871 0.43251 0.0
O379 O 0.29062 0.80498 0.3509 0.0
O380 O 0.30286 0.81974 0.3483 0.0
C381 C 0.31931 0.79199 0.37029 0.0
O382 O 0.30061 0.8161 0.24268 0.0
O383 O 0.28932 0.80068 0.25316 0.0
Zn384 Zn 0.96336 0.46371 0.5222 0.0
O385 O 0.96953 0.45231 0.47074 0.0
C386 C 0.94147 0.46666 0.46725 0.0
Zn387 Zn 0.95005 0.44906 0.53533 0.0
C388 C 0.96596 0.44204 0.46155 0.0
O389 O 0.95752 0.43764 0.4843 0.0
C390 C 0.94772 0.47113 0.59533 0.0
O391 O 0.96224 0.44214 0.58571 0.0
O392 O 0.97515 0.45608 0.56929 0.0
N393 N 0.93693 0.43637 0.54881 0.0
C394 C 0.93265 0.4302 0.58502 0.0
C395 C 0.92216 0.42572 0.52735 0.0
N396 N 0.93034 0.43345 0.51326 0.0
N397 N 0.92332 0.42343 0.57235 0.0
C398 C 0.97566 0.4781 0.44007 0.0
C399 C 0.99743 0.48326 0.47538 0.0
N400 N 0.97584 0.47581 0.49575 0.0
N401 N 0.98818 0.47868 0.51609 0.0
N402 N 0.98904 0.48337 0.42771 0.0
H403 H 0.96326 0.46599 0.4101 0.0
H404 H 0.97041 0.47579 0.37038 0.0
H405 H 0.95911 0.4812 0.40768 0.0
C406 C 0.96657 0.47501 0.40514 0.0
C407 C 0.93724 0.43133 0.63272 0.0
H408 H 0.94381 0.42433 0.63884 0.0
H409 H 0.93003 0.43028 0.65795 0.0
H410 H 0.9416 0.43997 0.63742 0.0
O411 O 0.94318 0.4611 0.58619 0.0
O412 O 0.95682 0.47459 0.57365 0.0
C413 C 0.97223 0.44703 0.59257 0.0
O414 O 0.95113 0.47116 0.4792 0.0
O415 O 0.93848 0.45673 0.48361 0.0
Zn416 Zn 0.3004 0.21989 0.28108 0.0
O417 O 0.31301 0.22265 0.23124 0.0
C418 C 0.2896 0.20231 0.21955 0.0
Zn419 Zn 0.30946 0.20213 0.29035 0.0
C420 C 0.32101 0.21575 0.21814 0.0
O421 O 0.32201 0.20575 0.23688 0.0
C422 C 0.28857 0.20617 0.35409 0.0
O423 O 0.32103 0.20965 0.34109 0.0
O424 O 0.31193 0.22639 0.3302 0.0
N425 N 0.31726 0.18547 0.29842 0.0
C426 C 0.32367 0.18039 0.33223 0.0
C427 C 0.32515 0.16942 0.2736 0.0
N428 N 0.31818 0.17852 0.26229 0.0
N429 N 0.32877 0.17031 0.31736 0.0
C430 C 0.30177 0.24645 0.23714 0.0
C431 C 0.29364 0.25834 0.31286 0.0
N432 N 0.29464 0.23747 0.27191 0.0
N433 N 0.29002 0.24418 0.3147 0.0
N434 N 0.3006 0.25977 0.2621 0.0
H435 H 0.31671 0.24245 0.19648 0.0
H436 H 0.30658 0.25172 0.16878 0.0
H437 H 0.30303 0.23621 0.17524 0.0
C438 C 0.30722 0.24395 0.1915 0.0
C439 C 0.32576 0.18588 0.37805 0.0
H440 H 0.33337 0.19194 0.37556 0.0
H441 H 0.32781 0.1792 0.40437 0.0
H442 H 0.31793 0.19093 0.38891 0.0
O443 O 0.29661 0.19889 0.34284 0.0
O444 O 0.2879 0.21605 0.33344 0.0
C445 C 0.31976 0.22049 0.35051 0.0
O446 O 0.28901 0.21308 0.23128 0.0
O447 O 0.2972 0.19562 0.23866 0.0
Zn448 Zn 0.54161 0.54609 0.02839 0.0
O449 O 0.53419 0.55591 0.97666 0.0
C450 C 0.56247 0.54021 0.96984 0.0
Zn451 Zn 0.55625 0.55912 0.0369 0.0
C452 C 0.5385 0.56556 0.96315 0.0
O453 O 0.54801 0.56937 0.98117 0.0
C454 C 0.55822 0.53885 0.10282 0.0
O455 O 0.54499 0.5679 0.08716 0.0
O456 O 0.53097 0.55494 0.07484 0.0
N457 N 0.56978 0.57157 0.04347 0.0
C458 C 0.57378 0.5787 0.07725 0.0
C459 C 0.5849 0.58131 0.01954 0.0
N460 N 0.57677 0.57326 0.00784 0.0
N461 N 0.58334 0.5849 0.06305 0.0
C462 C 0.52836 0.52573 0.98372 0.0
C463 C 0.5205 0.51754 0.04134 0.0
N464 N 0.52937 0.53322 0.01929 0.0
N465 N 0.52424 0.5282 0.0549 0.0
N466 N 0.52312 0.51565 0.99688 0.0
H467 H 0.53134 0.53803 0.92849 0.0
H468 H 0.52576 0.52383 0.91122 0.0
H469 H 0.54076 0.52542 0.92764 0.0
C470 C 0.53175 0.52847 0.93513 0.0
C471 C 0.56758 0.58022 0.12209 0.0
H472 H 0.55882 0.5841 0.11569 0.0
H473 H 0.57234 0.58614 0.14568 0.0
H474 H 0.56623 0.57152 0.13838 0.0
O475 O 0.56367 0.5483 0.09228 0.0
O476 O 0.54892 0.5362 0.08134 0.0
C477 C 0.53464 0.56406 0.09538 0.0
O478 O 0.55233 0.53718 0.98284 0.0
O479 O 0.56691 0.54963 0.98582 0.0
Zn480 Zn 0.20535 0.79096 0.78448 0.0
O481 O 0.19554 0.78418 0.73137 0.0
C482 C 0.21203 0.81171 0.72588 0.0
Zn483 Zn 0.19282 0.80595 0.79159 0.0
C484 C 0.18602 0.78871 0.71797 0.0
O485 O 0.18229 0.79809 0.73681 0.0
C486 C 0.21281 0.80745 0.85847 0.0
O487 O 0.1839 0.79493 0.84298 0.0
O488 O 0.19606 0.7803 0.82947 0.0
N489 N 0.18067 0.81961 0.7979 0.0
C490 C 0.17395 0.82395 0.83223 0.0
C491 C 0.17027 0.83408 0.77265 0.0
N492 N 0.17833 0.82598 0.76112 0.0
N493 N 0.16733 0.8331 0.81717 0.0
C494 C 0.2236 0.77643 0.73403 0.0
C495 C 0.23473 0.77098 0.78816 0.0
N496 N 0.21785 0.77849 0.77363 0.0
N497 N 0.2247 0.77486 0.80727 0.0
N498 N 0.23437 0.77204 0.74214 0.0
H499 H 0.21024 0.77302 0.68411 0.0
H500 H 0.22464 0.77483 0.66025 0.0
H501 H 0.21653 0.7874 0.67993 0.0
C502 C 0.21853 0.77808 0.68694 0.0
C503 C 0.17321 0.81844 0.87871 0.0
H504 H 0.16845 0.80997 0.87581 0.0
H505 H 0.16843 0.82398 0.90356 0.0
H506 H 0.18217 0.81654 0.89157 0.0
O507 O 0.20382 0.81328 0.84565 0.0
O508 O 0.21511 0.79777 0.83886 0.0
C509 C 0.18727 0.7844 0.85086 0.0
O510 O 0.21492 0.80169 0.74049 0.0
O511 O 0.20246 0.81625 0.7399 0.0
Zn512 Zn 0.55048 0.95481 0.50779 0.0
O513 O 0.56197 0.96023 0.45806 0.0
C514 C 0.5452 0.93385 0.45197 0.0
Zn515 Zn 0.56277 0.94035 0.5251 0.0
C516 C 0.57187 0.95575 0.45033 0.0
O517 O 0.57513 0.94686 0.47342 0.0
C518 C 0.54078 0.94019 0.58353 0.0
O519 O 0.57084 0.9517 0.57623 0.0
O520 O 0.55871 0.96573 0.55592 0.0
N521 N 0.57427 0.92671 0.53823 0.0
C522 C 0.57934 0.92181 0.57553 0.0
C523 C 0.58672 0.91354 0.51685 0.0
N524 N 0.57885 0.92145 0.50203 0.0
N525 N 0.58727 0.91353 0.56291 0.0
C526 C 0.54163 0.97893 0.47298 0.0
C527 C 0.52324 0.97586 0.47023 0.0
N528 N 0.53965 0.96788 0.48795 0.0
N529 N 0.52824 0.96593 0.48541 0.0
N530 N 0.53142 0.98419 0.46172 0.0
H531 H 0.55955 0.98224 0.49336 0.0
H532 H 0.55326 0.99364 0.45734 0.0
H533 H 0.55729 0.98009 0.43293 0.0
C534 C 0.55358 0.9841 0.46431 0.0
C535 C 0.57687 0.92551 0.62374 0.0
H536 H 0.57197 0.93388 0.62481 0.0
H537 H 0.58519 0.92634 0.6432 0.0
H538 H 0.57138 0.91872 0.64058 0.0
O539 O 0.55027 0.93444 0.57693 0.0
O540 O 0.53865 0.94914 0.55884 0.0
C541 C 0.567 0.96215 0.58136 0.0
O542 O 0.54205 0.94422 0.46081 0.0
O543 O 0.55398 0.92947 0.47297 0.0
Zn544 Zn 0.29655 0.29842 0.78102 0.0
O545 O 0.28923 0.30788 0.72805 0.0
C546 C 0.31773 0.29376 0.7237 0.0
Zn547 Zn 0.3105 0.31192 0.79056 0.0
C548 C 0.29305 0.31786 0.71632 0.0
O549 O 0.30187 0.32228 0.73698 0.0
C550 C 0.31335 0.29158 0.85451 0.0
O551 O 0.29924 0.31954 0.84323 0.0
O552 O 0.28536 0.30673 0.82663 0.0
N553 N 0.32323 0.32481 0.79763 0.0
C554 C 0.32796 0.33088 0.83291 0.0
C555 C 0.3373 0.33584 0.77269 0.0
N556 N 0.32905 0.32799 0.76038 0.0
N557 N 0.33684 0.33787 0.81806 0.0
C558 C 0.28382 0.27808 0.73336 0.0
C559 C 0.27472 0.27002 0.78849 0.0
N560 N 0.2848 0.28526 0.7699 0.0
N561 N 0.27893 0.28033 0.80396 0.0
N562 N 0.27774 0.26834 0.74432 0.0
H563 H 0.28931 0.29011 0.67994 0.0
H564 H 0.2826 0.27667 0.66017 0.0
H565 H 0.29725 0.2765 0.6818 0.0
C566 C 0.28851 0.28057 0.68625 0.0
C567 C 0.3243 0.32945 0.8818 0.0
H568 H 0.3201 0.32079 0.88738 0.0
H569 H 0.31782 0.33637 0.89038 0.0
H570 H 0.33196 0.33044 0.90492 0.0
O571 O 0.31861 0.30102 0.84281 0.0
O572 O 0.30384 0.28881 0.83468 0.0
C573 C 0.28896 0.31538 0.85022 0.0
O574 O 0.3079 0.28998 0.73714 0.0
O575 O 0.32141 0.3036 0.73851 0.0
Zn576 Zn 0.95328 0.04712 0.02442 0.0
O577 O 0.94328 0.03907 0.97541 0.0
C578 C 0.95706 0.06782 0.96303 0.0
Zn579 Zn 0.93978 0.06111 0.03457 0.0
C580 C 0.93317 0.04264 0.96434 0.0
O581 O 0.92906 0.05193 0.98281 0.0
C582 C 0.9607 0.06432 0.09598 0.0
O583 O 0.93235 0.04997 0.08809 0.0
O584 O 0.94552 0.03636 0.07332 0.0
N585 N 0.92676 0.07377 0.04232 0.0
C586 C 0.92095 0.07861 0.0781 0.0
C587 C 0.91512 0.08735 0.01783 0.0
N588 N 0.92304 0.07924 0.00506 0.0
N589 N 0.91356 0.0872 0.06356 0.0
C590 C 0.97339 0.03401 0.9764 0.0
C591 C 0.98144 0.02505 0.03181 0.0
N592 N 0.96635 0.03528 0.01324 0.0
N593 N 0.97126 0.0295 0.04746 0.0
N594 N 0.98307 0.02783 0.98733 0.0
H595 H 0.96101 0.03848 0.92318 0.0
H596 H 0.97471 0.03231 0.90323 0.0
H597 H 0.97421 0.04713 0.92318 0.0
C598 C 0.97061 0.03821 0.92886 0.0
C599 C 0.923 0.07531 0.12702 0.0
H600 H 0.93174 0.0712 0.13134 0.0
H601 H 0.91624 0.06884 0.13768 0.0
H602 H 0.92229 0.08313 0.14944 0.0
O603 O 0.95116 0.06958 0.08557 0.0
O604 O 0.96337 0.05492 0.07523 0.0
C605 C 0.93669 0.03983 0.09614 0.0
O606 O 0.96104 0.05804 0.97613 0.0
O607 O 0.94768 0.07176 0.98085 0.0
Zn608 Zn 0.20436 0.70128 0.28523 0.0
O609 O 0.21229 0.69182 0.23341 0.0
C610 C 0.18422 0.70637 0.22271 0.0
Zn611 Zn 0.18995 0.68802 0.29235 0.0
C612 C 0.20841 0.68189 0.22108 0.0
O613 O 0.1993 0.6776 0.2405 0.0
C614 C 0.18668 0.70865 0.35466 0.0
O615 O 0.20025 0.67998 0.34677 0.0
O616 O 0.21452 0.69268 0.33478 0.0
N617 N 0.17683 0.67519 0.29733 0.0
C618 C 0.17153 0.6694 0.33229 0.0
C619 C 0.16329 0.66377 0.27074 0.0
N620 N 0.17167 0.6716 0.25926 0.0
N621 N 0.16296 0.66214 0.31644 0.0
C622 C 0.21735 0.72286 0.24797 0.0
C623 C 0.2261 0.72884 0.30755 0.0
N624 N 0.21662 0.71422 0.2794 0.0
N625 N 0.22233 0.71786 0.31612 0.0
N626 N 0.22293 0.7323 0.26515 0.0
H627 H 0.2121 0.71284 0.18859 0.0
H628 H 0.21926 0.72671 0.17651 0.0
H629 H 0.20447 0.72666 0.19638 0.0
C630 C 0.21301 0.72211 0.1996 0.0
C631 C 0.1744 0.67135 0.38169 0.0
H632 H 0.17872 0.67997 0.38676 0.0
H633 H 0.18055 0.66442 0.39325 0.0
H634 H 0.16634 0.67085 0.40293 0.0
O635 O 0.18131 0.69923 0.34343 0.0
O636 O 0.19645 0.71102 0.33613 0.0
C637 C 0.21041 0.68398 0.35676 0.0
O638 O 0.19393 0.70995 0.23827 0.0
O639 O 0.18002 0.69671 0.23741 0.0
Zn640 Zn 0.55726 0.0552 0.03787 0.0
O641 O 0.5664 0.04572 0.98251 0.0
C642 C 0.53664 0.05748 0.97594 0.0
Zn643 Zn 0.54599 0.03909 0.04181 0.0
C644 C 0.56314 0.03551 0.96943 0.0
O645 O 0.55446 0.03057 0.98874 0.0
C646 C 0.5394 0.05786 0.11191 0.0
O647 O 0.55705 0.03069 0.08678 0.0
O648 O 0.56833 0.04634 0.08949 0.0
N649 N 0.53399 0.02587 0.04733 0.0
C650 C 0.52819 0.02286 0.08578 0.0
C651 C 0.51679 0.01956 0.0301 0.0
N652 N 0.52698 0.0235 0.01252 0.0
N653 N 0.51716 0.01933 0.07629 0.0
C654 C 0.57437 0.07543 1.00104 0.0
C655 C 0.58201 0.08112 0.06365 0.0
N656 N 0.5693 0.0691 0.03507 0.0
N657 N 0.57407 0.07275 0.07382 0.0
N658 N 0.58246 0.08307 0.01813 0.0
H659 H 0.56722 0.06524 0.94522 0.0
H660 H 0.57995 0.07408 0.93087 0.0
H661 H 0.56583 0.0808 0.93951 0.0
C662 C 0.57175 0.07369 0.95129 0.0
C663 C 0.53356 0.02235 0.13269 0.0
H664 H 0.53998 0.02945 0.13843 0.0
H665 H 0.53841 0.01396 0.13586 0.0
H666 H 0.52674 0.02248 0.1598 0.0
O667 O 0.53737 0.04769 0.09622 0.0
O668 O 0.54751 0.064 0.09342 0.0
C669 C 0.56601 0.03588 0.10248 0.0
O670 O 0.54575 0.06335 0.98728 0.0
O671 O 0.53488 0.04754 0.99446 0.0
Zn672 Zn 0.1925 0.30122 0.29561 0.0
O673 O 0.20541 0.3042 0.24307 0.0
C674 C 0.18248 0.2835 0.23347 0.0
Zn675 Zn 0.20196 0.28371 0.3028 0.0
C676 C 0.2136 0.29713 0.23134 0.0
O677 O 0.21453 0.28718 0.25131 0.0
C678 C 0.18132 0.28781 0.36796 0.0
O679 O 0.21341 0.29057 0.3524 0.0
O680 O 0.20481 0.3078 0.34615 0.0
N681 N 0.20734 0.26628 0.31747 0.0
C682 C 0.20233 0.25434 0.29113 0.0
C683 C 0.20166 0.25171 0.38515 0.0
N684 N 0.20705 0.26462 0.37031 0.0
N685 N 0.19922 0.24493 0.33415 0.0
C686 C 0.17961 0.32325 0.25231 0.0
C687 C 0.17733 0.33403 0.31103 0.0
N688 N 0.18505 0.31781 0.28766 0.0
N689 N 0.18363 0.3246 0.32396 0.0
N690 N 0.17453 0.33345 0.26621 0.0
H691 H 0.18779 0.31328 0.19848 0.0
H692 H 0.17996 0.32618 0.17943 0.0
H693 H 0.17203 0.31326 0.19787 0.0
C694 C 0.1799 0.31878 0.20415 0.0
C695 C 0.19694 0.25382 0.24451 0.0
H696 H 0.19748 0.24481 0.23049 0.0
H697 H 0.20146 0.26004 0.22115 0.0
H698 H 0.18748 0.25596 0.24707 0.0
O699 O 0.18932 0.28102 0.35409 0.0
O700 O 0.18004 0.29777 0.34915 0.0
C701 C 0.21269 0.3013 0.36423 0.0
O702 O 0.18067 0.29408 0.24529 0.0
O703 O 0.19055 0.27769 0.25273 0.0
Zn704 Zn 0.94323 0.94551 0.54432 0.0
O705 O 0.93436 0.95508 0.48948 0.0
C706 C 0.96392 0.94305 0.48263 0.0
Zn707 Zn 0.95485 0.96131 0.54861 0.0
C708 C 0.93764 0.96533 0.4771 0.0
O709 O 0.94633 0.97016 0.4966 0.0
C710 C 0.96112 0.94227 0.61687 0.0
O711 O 0.94382 0.96947 0.59478 0.0
O712 O 0.93206 0.95413 0.59536 0.0
N713 N 0.96684 0.97448 0.55521 0.0
C714 C 0.97256 0.97763 0.59364 0.0
C715 C 0.98348 0.9821 0.53755 0.0
N716 N 0.97353 0.97753 0.52021 0.0
N717 N 0.98324 0.98209 0.58378 0.0
C718 C 0.92478 0.92687 0.50724 0.0
C719 C 0.92208 0.9165 0.56709 0.0
N720 N 0.93161 0.93145 0.54065 0.0
N721 N 0.9299 0.92495 0.57764 0.0
N722 N 0.91871 0.91743 0.52304 0.0
H723 H 0.9184 0.94073 0.46498 0.0
H724 H 0.91834 0.92682 0.43694 0.0
H725 H 0.93207 0.93449 0.44635 0.0
C726 C 0.92332 0.9324 0.46102 0.0
C727 C 0.96728 0.97762 0.64076 0.0
H728 H 0.96125 0.97017 0.64623 0.0
H729 H 0.96201 0.98574 0.64466 0.0
H730 H 0.97415 0.97773 0.66763 0.0
O731 O 0.96349 0.95239 0.60148 0.0
O732 O 0.9527 0.93652 0.59899 0.0
C733 C 0.93465 0.96442 0.60945 0.0
O734 O 0.95471 0.93743 0.49444 0.0
O735 O 0.96591 0.95305 0.50034 0.0
Zn736 Zn 0.30678 0.69318 0.79961 0.0
O737 O 0.2952 0.68588 0.74795 0.0
C738 C 0.3113 0.71327 0.73515 0.0
Zn739 Zn 0.29411 0.70782 0.80879 0.0
C740 C 0.28527 0.69067 0.7401 0.0
O741 O 0.28238 0.69978 0.76262 0.0
C742 C 0.31534 0.71105 0.86649 0.0
O743 O 0.28619 0.69922 0.86346 0.0
O744 O 0.29716 0.6836 0.85296 0.0
N745 N 0.2832 0.72183 0.81688 0.0
C746 C 0.2836 0.73046 0.84846 0.0
C747 C 0.27412 0.73702 0.79146 0.0
N748 N 0.27708 0.72585 0.7818 0.0
N749 N 0.27822 0.7402 0.83296 0.0
C750 C 0.32338 0.6736 0.75793 0.0
C751 C 0.3318 0.66755 0.8186 0.0
N752 N 0.3186 0.67951 0.79347 0.0
N753 N 0.32383 0.67566 0.83102 0.0
N754 N 0.33173 0.66605 0.77287 0.0
H755 H 0.31584 0.68424 0.7042 0.0
H756 H 0.31427 0.66868 0.69709 0.0
H757 H 0.32833 0.67541 0.68719 0.0
C758 C 0.32032 0.67571 0.70877 0.0
C759 C 0.28867 0.72933 0.89564 0.0
H760 H 0.28342 0.7346 0.92013 0.0
H761 H 0.29775 0.73284 0.8964 0.0
H762 H 0.28874 0.72002 0.90681 0.0
O763 O 0.30601 0.71575 0.85229 0.0
O764 O 0.31811 0.7009 0.85205 0.0
C765 C 0.28899 0.68884 0.8748 0.0
O766 O 0.31584 0.70345 0.74659 0.0
O767 O 0.30202 0.71666 0.75502 0.0
Zn768 Zn 0.43611 0.06114 0.54191 0.0
O769 O 0.44898 0.06604 0.48881 0.0
C770 C 0.42806 0.04128 0.48007 0.0
Zn771 Zn 0.44648 0.04465 0.54975 0.0
C772 C 0.45748 0.05921 0.47788 0.0
O773 O 0.4585 0.04936 0.49824 0.0
C774 C 0.42601 0.04554 0.61417 0.0
O775 O 0.45728 0.05303 0.5966 0.0
O776 O 0.44731 0.06946 0.59513 0.0
N777 N 0.45404 0.02893 0.56362 0.0
C778 C 0.45556 0.02352 0.60447 0.0
C779 C 0.45673 0.01052 0.5526 0.0
N780 N 0.4547 0.0208 0.53154 0.0
N781 N 0.45708 0.0118 0.59863 0.0
C782 C 0.42108 0.08226 0.4984 0.0
C783 C 0.41551 0.09076 0.55945 0.0
N784 N 0.42634 0.07664 0.53389 0.0
N785 N 0.42289 0.08207 0.57156 0.0
N786 N 0.41413 0.09114 0.51365 0.0
H787 H 0.42752 0.07051 0.44599 0.0
H788 H 0.4269 0.08565 0.43009 0.0
H789 H 0.41348 0.07743 0.43393 0.0
C790 C 0.42229 0.07864 0.44938 0.0
C791 C 0.45493 0.02967 0.64989 0.0
H792 H 0.44938 0.02457 0.67378 0.0
H793 H 0.45119 0.03853 0.64812 0.0
H794 H 0.46392 0.03062 0.66401 0.0
O795 O 0.43463 0.03981 0.59943 0.0
O796 O 0.42378 0.05553 0.59661 0.0
C797 C 0.45585 0.06341 0.61094 0.0
O798 O 0.42563 0.052 0.48886 0.0
O799 O 0.43619 0.0363 0.50205 0.0
Zn800 Zn 0.69154 0.69277 0.29241 0.0
O801 O 0.68245 0.70307 0.24001 0.0
C802 C 0.71222 0.6906 0.23032 0.0
Zn803 Zn 0.70336 0.70836 0.29811 0.0
C804 C 0.6863 0.71306 0.22679 0.0
O805 O 0.69539 0.71742 0.24522 0.0
C806 C 0.7094 0.68885 0.36482 0.0
O807 O 0.6923 0.71662 0.34299 0.0
O808 O 0.68096 0.70106 0.34688 0.0
N809 N 0.71539 0.72134 0.30715 0.0
C810 C 0.72007 0.72516 0.34684 0.0
C811 C 0.73184 0.7299 0.2937 0.0
N812 N 0.72263 0.72451 0.27395 0.0
N813 N 0.73054 0.73034 0.33961 0.0
C814 C 0.67415 0.67327 0.25232 0.0
C815 C 0.66584 0.66749 0.31361 0.0
N816 N 0.67918 0.67923 0.28739 0.0
N817 N 0.67399 0.67553 0.32531 0.0
N818 N 0.6657 0.66583 0.26793 0.0
H819 H 0.66906 0.67486 0.18167 0.0
H820 H 0.68313 0.66818 0.19142 0.0
H821 H 0.68161 0.68375 0.19787 0.0
C822 C 0.67712 0.67523 0.20296 0.0
C823 C 0.71398 0.72488 0.39247 0.0
H824 H 0.70918 0.7166 0.39813 0.0
H825 H 0.70738 0.73203 0.3931 0.0
H826 H 0.72021 0.72642 0.42099 0.0
O827 O 0.71149 0.69923 0.35157 0.0
O828 O 0.70131 0.68302 0.34494 0.0
C829 C 0.68347 0.71147 0.35986 0.0
O830 O 0.70263 0.68523 0.23931 0.0
O831 O 0.71457 0.70008 0.25125 0.0
Zn832 Zn 0.06007 0.94158 0.04791 0.0
O833 O 0.04825 0.93423 0.99675 0.0
C834 C 0.06441 0.96227 0.98497 0.0
Zn835 Zn 0.04705 0.95607 0.05677 0.0
C836 C 0.03866 0.93943 0.98658 0.0
O837 O 0.03597 0.94888 0.00719 0.0
C838 C 0.06796 0.95909 0.11718 0.0
O839 O 0.03844 0.94649 0.10556 0.0
O840 O 0.05072 0.93174 0.10245 0.0
N841 N 0.03583 0.96961 0.06868 0.0
C842 C 0.03465 0.97637 0.10638 0.0
C843 C 0.02578 0.98497 0.05204 0.0
N844 N 0.03011 0.97487 0.03511 0.0
N845 N 0.02857 0.98618 0.0967 0.0
C846 C 0.07769 0.92275 0.00489 0.0
C847 C 0.08308 0.91384 0.06535 0.0
N848 N 0.07201 0.92784 0.0405 0.0
N849 N 0.07544 0.92226 0.07788 0.0
N850 N 0.08475 0.9139 0.01965 0.0
H851 H 0.06726 0.93064 0.95155 0.0
H852 H 0.07617 0.91832 0.93349 0.0
H853 H 0.08284 0.93236 0.94539 0.0
C854 C 0.07581 0.92616 0.95595 0.0
C855 C 0.03899 0.97329 0.15344 0.0
H856 H 0.03918 0.96366 0.15854 0.0
H857 H 0.03323 0.97732 0.17974 0.0
H858 H 0.04797 0.97678 0.15874 0.0
O859 O 0.05823 0.96328 0.10469 0.0
O860 O 0.07154 0.94952 0.09962 0.0
C861 C 0.0415 0.93644 0.11935 0.0
O862 O 0.06857 0.95209 0.9938 0.0
O863 O 0.05553 0.9659 0.00695 0.0
Zn864 Zn 0.81263 0.31587 0.78516 0.0
O865 O 0.81698 0.30288 0.73189 0.0
C866 C 0.79401 0.32601 0.72257 0.0
Zn867 Zn 0.79518 0.3068 0.79001 0.0
C868 C 0.80939 0.29532 0.71827 0.0
O869 O 0.79921 0.29525 0.73636 0.0
C870 C 0.79736 0.32629 0.85783 0.0
O871 O 0.80248 0.29465 0.83566 0.0
O872 O 0.81945 0.3038 0.8383 0.0
N873 N 0.77854 0.30051 0.79901 0.0
C874 C 0.77221 0.29927 0.83791 0.0
C875 C 0.76021 0.2992 0.78223 0.0
N876 N 0.77103 0.30056 0.76456 0.0
N877 N 0.76054 0.29863 0.82842 0.0
C878 C 0.83409 0.33116 0.74589 0.0
C879 C 0.84523 0.33212 0.80413 0.0
N880 N 0.82898 0.32459 0.77926 0.0
N881 N 0.836 0.32523 0.81525 0.0
N882 N 0.84428 0.33611 0.76079 0.0
H883 H 0.82465 0.3239 0.68882 0.0
H884 H 0.83668 0.33351 0.67335 0.0
H885 H 0.82326 0.33954 0.69598 0.0
C886 C 0.82944 0.33205 0.69811 0.0
C887 C 0.77755 0.29913 0.885 0.0
H888 H 0.77444 0.30686 0.90462 0.0
H889 H 0.78717 0.29956 0.88452 0.0
H890 H 0.77509 0.29095 0.90327 0.0
O891 O 0.79115 0.3181 0.84212 0.0
O892 O 0.80746 0.32819 0.84042 0.0
C893 C 0.81279 0.29542 0.85188 0.0
O894 O 0.8049 0.32717 0.73178 0.0
O895 O 0.78805 0.31845 0.74398 0.0
Zn896 Zn 0.45664 0.96061 0.0236 0.0
O897 O 0.46445 0.95215 0.96856 0.0
C898 C 0.4349 0.96476 0.96805 0.0
Zn899 Zn 0.44335 0.94631 0.03288 0.0
C900 C 0.46102 0.94209 0.95588 0.0
O901 O 0.45241 0.93716 0.97646 0.0
C902 C 0.43985 0.96593 0.10001 0.0
O903 O 0.45558 0.93848 0.0822 0.0
O904 O 0.46845 0.95243 0.06818 0.0
N905 N 0.43145 0.93233 0.03952 0.0
C906 C 0.42609 0.92681 0.07502 0.0
C907 C 0.42026 0.91848 0.01397 0.0
N908 N 0.42775 0.9271 1.00179 0.0
N909 N 0.41896 0.91803 0.05983 0.0
C910 C 0.46741 0.98294 0.98236 0.0
C911 C 0.47651 0.99005 0.03929 0.0
N912 N 0.46757 0.97462 0.01526 0.0
N913 N 0.47346 0.97898 0.05034 0.0
N914 N 0.47271 0.99282 0.9969 0.0
H915 H 0.46209 0.97204 0.92544 0.0
H916 H 0.46798 0.98628 0.91011 0.0
H917 H 0.45353 0.98524 0.9333 0.0
C918 C 0.46246 0.98144 0.93514 0.0
C919 C 0.42835 0.92973 0.12418 0.0
H920 H 0.43688 0.9343 0.12816 0.0
H921 H 0.42828 0.92164 0.1454 0.0
H922 H 0.42135 0.93568 0.13662 0.0
O923 O 0.43499 0.95622 0.08868 0.0
O924 O 0.44896 0.96925 0.07867 0.0
C925 C 0.46562 0.94314 0.0897 0.0
O926 O 0.44466 0.96881 0.98103 0.0
O927 O 0.43159 0.95475 0.9828 0.0
Zn928 Zn 0.79363 0.70857 0.77347 0.0
O929 O 0.80315 0.71848 0.72745 0.0
C930 C 0.79195 0.68796 0.71025 0.0
Zn931 Zn 0.80816 0.69575 0.78397 0.0
C932 C 0.81312 0.71499 0.71398 0.0
O933 O 0.81742 0.7055 0.73006 0.0
C934 C 0.78777 0.69025 0.8441 0.0
O935 O 0.8152 0.70778 0.83521 0.0
O936 O 0.79979 0.71917 0.82691 0.0
N937 N 0.82242 0.68457 0.79074 0.0
C938 C 0.82724 0.67858 0.82603 0.0
C939 C 0.83742 0.67477 0.76675 0.0
N940 N 0.8288 0.68216 0.75406 0.0
N941 N 0.83667 0.67231 0.81177 0.0
C942 C 0.77078 0.71895 0.7327 0.0
C943 C 0.764 0.72808 0.79014 0.0
N944 N 0.77929 0.71912 0.76488 0.0
N945 N 0.77511 0.72504 0.80022 0.0
N946 N 0.76099 0.72426 0.74806 0.0
H947 H 0.76937 0.70489 0.68398 0.0
H948 H 0.78129 0.71508 0.67325 0.0
H949 H 0.76625 0.71912 0.66131 0.0
C950 C 0.77207 0.71424 0.68506 0.0
C951 C 0.82306 0.67947 0.8745 0.0
H952 H 0.81883 0.68808 0.88064 0.0
H953 H 0.83046 0.67831 0.89874 0.0
H954 H 0.81647 0.67248 0.88098 0.0
O955 O 0.79827 0.68672 0.83744 0.0
O956 O 0.78389 0.69875 0.8205 0.0
C957 C 0.80941 0.71689 0.84702 0.0
O958 O 0.7878 0.69785 0.72096 0.0
O959 O 0.80075 0.684 0.73218 0.0
Zn960 Zn 0.04253 0.04494 0.52992 0.0
O961 O 0.03467 0.05432 0.47822 0.0
C962 C 0.06336 0.04005 0.47006 0.0
Zn963 Zn 0.05645 0.05868 0.53623 0.0
C964 C 0.03825 0.06418 0.46385 0.0
O965 O 0.04754 0.06863 0.48125 0.0
C966 C 0.0596 0.03849 0.60263 0.0
O967 O 0.04518 0.06696 0.58752 0.0
O968 O 0.03167 0.05338 0.57683 0.0
N969 N 0.06921 0.07174 0.54197 0.0
C970 C 0.07415 0.07774 0.57708 0.0
C971 C 0.08289 0.0831 0.51611 0.0
N972 N 0.07467 0.07517 0.50426 0.0
N973 N 0.08282 0.08496 0.56168 0.0
C974 C 0.02973 0.02427 0.48474 0.0
C975 C 0.02145 0.01612 0.54158 0.0
N976 N 0.03075 0.03165 0.52066 0.0
N977 N 0.02538 0.02666 0.55579 0.0
N978 N 0.02417 0.01432 0.49716 0.0
H979 H 0.04255 0.02327 0.43052 0.0
H980 H 0.03387 0.03642 0.43002 0.0
H981 H 0.02765 0.02257 0.41194 0.0
C982 C 0.03368 0.02686 0.43669 0.0
C983 C 0.07085 0.07606 0.62626 0.0
H984 H 0.0663 0.06757 0.63148 0.0
H985 H 0.06477 0.08317 0.63663 0.0
H986 H 0.07876 0.07649 0.64835 0.0
O987 O 0.06463 0.04806 0.59061 0.0
O988 O 0.05021 0.03543 0.58258 0.0
C989 C 0.03509 0.06265 0.59709 0.0
O990 O 0.05354 0.03646 0.48446 0.0
O991 O 0.06729 0.04984 0.48455 0.0
Zn992 Zn 0.71174 0.29551 0.28119 0.0
O993 O 0.7026 0.28658 0.2309 0.0
C994 C 0.71692 0.31549 0.21696 0.0
Zn995 Zn 0.69779 0.3093 0.2833 0.0
C996 C 0.69296 0.2901 0.21421 0.0
O997 O 0.68851 0.29971 0.22872 0.0
C998 C 0.71765 0.31376 0.35004 0.0
O999 O 0.68895 0.29836 0.33526 0.0
O1000 O 0.70328 0.2855 0.33098 0.0
N1001 N 0.68457 0.32202 0.28578 0.0
C1002 C 0.67821 0.32697 0.3199 0.0
C1003 C 0.67339 0.33558 0.25807 0.0
N1004 N 0.68148 0.32741 0.2475 0.0
N1005 N 0.67109 0.33555 0.30335 0.0
C1006 C 0.73336 0.28282 0.24425 0.0
C1007 C 0.74062 0.27574 0.30506 0.0
N1008 N 0.72514 0.28375 0.27725 0.0
N1009 N 0.72958 0.27908 0.31486 0.0
N1010 N 0.74333 0.27816 0.26105 0.0
H1011 H 0.73547 0.29451 0.18667 0.0
H1012 H 0.72212 0.28597 0.18593 0.0
H1013 H 0.73614 0.27928 0.17297 0.0
C1014 C 0.73158 0.28584 0.1947 0.0
C1015 C 0.67949 0.32379 0.36939 0.0
H1016 H 0.68804 0.31953 0.37599 0.0
H1017 H 0.67245 0.31749 0.37885 0.0
H1018 H 0.67861 0.33171 0.39123 0.0
O1019 O 0.7079 0.31826 0.33743 0.0
O1020 O 0.72102 0.30428 0.33172 0.0
C1021 C 0.69363 0.28875 0.3487 0.0
O1022 O 0.72032 0.30578 0.23299 0.0
O1023 O 0.70716 0.3197 0.23069 0.0
H1024 H 0.07533 0.45484 0.18883 0.0
H1025 H 0.07875 0.46744 0.25557 0.0
H1026 H 0.08381 0.49719 0.16611 0.0
H1027 H 0.07953 0.48476 0.09981 0.0
H1028 H 0.09478 0.48139 0.29086 0.0
H1029 H 0.05707 0.50906 0.23852 0.0
H1030 H 0.06071 0.49565 0.2093 0.0
H1031 H 0.0686 0.50901 0.19689 0.0
C1032 C 0.07743 0.46402 0.18351 0.0
C1033 C 0.0771 0.46888 0.13936 0.0
C1034 C 0.07934 0.47124 0.22165 0.0
C1035 C 0.08114 0.48339 0.21612 0.0
C1036 C 0.08196 0.48797 0.17154 0.0
H1037 H 0.07842 0.54011 0.41895 0.0
H1038 H 0.08448 0.52863 0.35198 0.0
C1039 C 0.07969 0.48084 0.13359 0.0
C1040 C 0.08126 0.49131 0.25681 0.0
H1041 H 0.06752 0.51513 0.30369 0.0
C1042 C 0.08884 0.48879 0.2935 0.0
C1043 C 0.07346 0.50097 0.2607 0.0
C1044 C 0.06442 0.50377 0.22449 0.0
C1045 C 0.08878 0.49558 0.33378 0.0
C1046 C 0.08097 0.50516 0.33748 0.0
C1047 C 0.07361 0.50787 0.30052 0.0
C1048 C 0.07937 0.51186 0.38069 0.0
C1049 C 0.09701 0.49239 0.37221 0.0
C1050 C 0.07471 0.50624 0.41937 0.0
C1051 C 0.0712 0.51276 0.45746 0.0
C1052 C 0.07227 0.52508 0.45773 0.0
C1053 C 0.07756 0.53065 0.42 0.0
C1054 C 0.08099 0.5241 0.38164 0.0
H1055 H 0.10455 0.48711 0.35976 0.0
H1056 H 0.10039 0.50037 0.38959 0.0
H1057 H 0.09218 0.48705 0.39787 0.0
H1058 H 0.07317 0.49685 0.41917 0.0
H1059 H 0.06714 0.50819 0.48594 0.0
H1060 H 0.74125 0.818 0.72995 0.0
H1061 H 0.75368 0.82414 0.66623 0.0
H1062 H 0.72286 0.83026 0.58383 0.0
H1063 H 0.71035 0.82461 0.64869 0.0
H1064 H 0.75491 0.81209 0.59132 0.0
H1065 H 0.74265 0.85745 0.54339 0.0
H1066 H 0.73829 0.85091 0.5971 0.0
H1067 H 0.73021 0.8478 0.54557 0.0
C1068 C 0.73712 0.82098 0.69864 0.0
C1069 C 0.72485 0.82079 0.69413 0.0
C1070 C 0.74423 0.82448 0.66219 0.0
C1071 C 0.73926 0.82769 0.62004 0.0
C1072 C 0.72695 0.82808 0.61617 0.0
H1073 H 0.76482 0.81992 0.34797 0.0
H1074 H 0.75328 0.82445 0.41623 0.0
C1075 C 0.71979 0.82479 0.65317 0.0
C1076 C 0.74699 0.82897 0.57912 0.0
H1077 H 0.75352 0.84645 0.48713 0.0
C1078 C 0.75472 0.81972 0.5691 0.0
C1079 C 0.74674 0.83888 0.54975 0.0
C1080 C 0.73911 0.84937 0.55972 0.0
C1081 C 0.76196 0.81995 0.53031 0.0
C1082 C 0.76149 0.82968 0.50042 0.0
C1083 C 0.75389 0.83903 0.51035 0.0
C1084 C 0.76822 0.82963 0.45703 0.0
C1085 C 0.76983 0.80959 0.52059 0.0
C1086 C 0.78042 0.83146 0.45692 0.0
C1087 C 0.78707 0.82894 0.41773 0.0
C1088 C 0.7816 0.8244 0.3784 0.0
C1089 C 0.7693 0.82333 0.37784 0.0
C1090 C 0.76267 0.82597 0.41673 0.0
H1091 H 0.76855 0.80233 0.54552 0.0
H1092 H 0.76814 0.80619 0.48561 0.0
H1093 H 0.77915 0.81244 0.52202 0.0
H1094 H 0.78486 0.83421 0.48789 0.0
H1095 H 0.79653 0.82978 0.41929 0.0
H1096 H 0.45517 0.52414 0.6284 0.0
H1097 H 0.45015 0.51061 0.68977 0.0
H1098 H 0.41789 0.52938 0.71361 0.0
H1099 H 0.42301 0.54324 0.65226 0.0
H1100 H 0.42869 0.52511 0.79204 0.0
H1101 H 0.42763 0.48362 0.69573 0.0
H1102 H 0.44128 0.49102 0.68568 0.0
H1103 H 0.42773 0.49773 0.66759 0.0
C1104 C 0.44694 0.52539 0.64631 0.0
C1105 C 0.43948 0.53481 0.63517 0.0
C1106 C 0.44401 0.51752 0.68123 0.0
C1107 C 0.43349 0.51874 0.70578 0.0
C1108 C 0.42599 0.52814 0.69484 0.0
H1109 H 0.42405 0.46321 0.91738 0.0
H1110 H 0.41906 0.47578 0.85138 0.0
C1111 C 0.42893 0.53607 0.65977 0.0
C1112 C 0.43093 0.51073 0.74507 0.0
H1113 H 0.43197 0.48186 0.77722 0.0
C1114 C 0.42916 0.51565 0.78856 0.0
C1115 C 0.43121 0.49833 0.74081 0.0
C1116 C 0.43193 0.49238 0.6948 0.0
C1117 C 0.42859 0.5086 0.82803 0.0
C1118 C 0.43018 0.49629 0.82427 0.0
C1119 C 0.43099 0.49129 0.78047 0.0
C1120 C 0.43248 0.48879 0.86523 0.0
C1121 C 0.42657 0.5145 0.87357 0.0
C1122 C 0.44173 0.49179 0.89459 0.0
C1123 C 0.44449 0.48477 0.93209 0.0
C1124 C 0.43824 0.47434 0.94119 0.0
C1125 C 0.42898 0.47122 0.91167 0.0
C1126 C 0.42615 0.47838 0.87389 0.0
H1127 H 0.42111 0.5225 0.86949 0.0
H1128 H 0.42218 0.50852 0.89829 0.0
H1129 H 0.43513 0.51728 0.88806 0.0
H1130 H 0.44704 0.4995 0.88797 0.0
H1131 H 0.45178 0.48746 0.95347 0.0
H1132 H 0.76456 0.20427 0.18949 0.0
H1133 H 0.75219 0.19848 0.12573 0.0
H1134 H 0.7719 0.16642 0.1109 0.0
H1135 H 0.78476 0.17245 0.17426 0.0
H1136 H 0.76816 0.1752 0.0304 0.0
H1137 H 0.72556 0.17626 0.11863 0.0
H1138 H 0.73267 0.19016 0.1257 0.0
H1139 H 0.73924 0.1771 0.14946 0.0
C1140 C 0.76625 0.1959 0.17314 0.0
C1141 C 0.77565 0.18879 0.18746 0.0
C1142 C 0.75903 0.19254 0.13673 0.0
C1143 C 0.7608 0.18182 0.114 0.0
C1144 C 0.77022 0.17467 0.12807 0.0
H1145 H 0.70646 0.16945 0.90127 0.0
H1146 H 0.71874 0.1655 0.96895 0.0
C1147 C 0.77757 0.17812 0.16438 0.0
C1148 C 0.75327 0.17862 0.07383 0.0
H1149 H 0.72485 0.17922 0.03604 0.0
C1150 C 0.75868 0.17586 0.03197 0.0
C1151 C 0.74082 0.17908 0.07554 0.0
C1152 C 0.73426 0.18067 0.11994 0.0
C1153 C 0.75211 0.17443 0.99153 0.0
C1154 C 0.73978 0.17622 0.99234 0.0
C1155 C 0.73429 0.17809 0.03479 0.0
C1156 C 0.73268 0.17747 0.9494 0.0
C1157 C 0.75854 0.17112 0.94829 0.0
C1158 C 0.73632 0.18547 0.91577 0.0
C1159 C 0.72945 0.18759 0.87715 0.0
C1160 C 0.71854 0.18194 0.87097 0.0
C1161 C 0.71486 0.17383 0.90444 0.0
C1162 C 0.72186 0.17162 0.94329 0.0
H1163 H 0.7662 0.16545 0.95614 0.0
H1164 H 0.75275 0.16641 0.92385 0.0
H1165 H 0.76195 0.17918 0.93158 0.0
H1166 H 0.74431 0.1905 0.9201 0.0
H1167 H 0.73254 0.19412 0.85311 0.0
H1168 H 0.92031 0.54372 0.92933 0.0
H1169 H 0.91571 0.53054 0.86469 0.0
H1170 H 0.95093 0.5168 0.86964 0.0
H1171 H 0.95547 0.52951 0.93345 0.0
H1172 H 0.92551 0.52827 0.77888 0.0
H1173 H 0.93192 0.48696 0.87336 0.0
H1174 H 0.93034 0.5009 0.90211 0.0
H1175 H 0.94447 0.49624 0.88098 0.0
C1176 C 0.92702 0.53785 0.91656 0.0
C1177 C 0.93819 0.53757 0.93703 0.0
C1178 C 0.92438 0.53032 0.87978 0.0
C1179 C 0.93287 0.52241 0.86325 0.0
C1180 C 0.9441 0.52248 0.88275 0.0
H1181 H 0.95222 0.49427 0.61078 0.0
H1182 H 0.94581 0.50626 0.67472 0.0
C1183 C 0.9467 0.52987 0.91922 0.0
C1184 C 0.93049 0.51429 0.82453 0.0
H1185 H 0.93584 0.48609 0.79131 0.0
C1186 C 0.92748 0.51898 0.78172 0.0
C1187 C 0.93271 0.50209 0.82826 0.0
C1188 C 0.9349 0.49625 0.87384 0.0
C1189 C 0.92767 0.51201 0.742 0.0
C1190 C 0.93132 0.50014 0.74504 0.0
C1191 C 0.93328 0.49523 0.78847 0.0
C1192 C 0.93436 0.49301 0.70391 0.0
C1193 C 0.92415 0.51755 0.69718 0.0
C1194 C 0.93039 0.48137 0.69923 0.0
C1195 C 0.93446 0.47429 0.66333 0.0
C1196 C 0.94262 0.47872 0.63149 0.0
C1197 C 0.94622 0.49047 0.63536 0.0
C1198 C 0.94231 0.49746 0.67145 0.0
H1199 H 0.91724 0.52429 0.7026 0.0
H1200 H 0.93186 0.52206 0.68198 0.0
H1201 H 0.92082 0.51093 0.6725 0.0
H1202 H 0.92432 0.47767 0.72392 0.0
H1203 H 0.93146 0.46527 0.66124 0.0
H1204 H 0.23055 0.20494 0.72138 0.0
H1205 H 0.24329 0.20411 0.65518 0.0
H1206 H 0.22138 0.17725 0.59562 0.0
H1207 H 0.20808 0.1784 0.66199 0.0
H1208 H 0.25656 0.18821 0.61788 0.0
H1209 H 0.22201 0.20053 0.49259 0.0
H1210 H 0.21956 0.201 0.55353 0.0
H1211 H 0.21919 0.18721 0.52362 0.0
C1212 C 0.22837 0.19878 0.69443 0.0
C1213 C 0.21814 0.19183 0.69697 0.0
C1214 C 0.23575 0.19831 0.65641 0.0
C1215 C 0.23323 0.19081 0.61964 0.0
C1216 C 0.22336 0.18336 0.62288 0.0
H1217 H 0.287 0.18562 0.40279 0.0
H1218 H 0.27346 0.1808 0.46503 0.0
C1219 C 0.21584 0.18391 0.66112 0.0
C1220 C 0.24094 0.19124 0.57815 0.0
H1221 H 0.24111 0.19785 0.46382 0.0
C1222 C 0.25315 0.19021 0.58411 0.0
C1223 C 0.23656 0.19404 0.53405 0.0
C1224 C 0.22364 0.19587 0.52541 0.0
C1225 C 0.26106 0.19218 0.5479 0.0
C1226 C 0.25668 0.19493 0.50381 0.0
C1227 C 0.24448 0.1957 0.4975 0.0
C1228 C 0.26463 0.19761 0.46442 0.0
C1229 C 0.27406 0.19185 0.55787 0.0
C1230 C 0.26397 0.20852 0.44206 0.0
C1231 C 0.27165 0.21127 0.40607 0.0
C1232 C 0.28016 0.20316 0.39145 0.0
C1233 C 0.28064 0.19214 0.4133 0.0
C1234 C 0.27293 0.18938 0.44916 0.0
H1235 H 0.2759 0.19273 0.59505 0.0
H1236 H 0.27768 0.18332 0.5463 0.0
H1237 H 0.27875 0.19898 0.53942 0.0
H1238 H 0.25762 0.21501 0.45299 0.0
H1239 H 0.27098 0.21982 0.39002 0.0
H1240 H 0.57166 0.54371 0.17969 0.0
H1241 H 0.57513 0.53055 0.24531 0.0
H1242 H 0.557 0.50264 0.17494 0.0
H1243 H 0.55334 0.51565 0.1105 0.0
H1244 H 0.54816 0.50585 0.25841 0.0
H1245 H 0.59663 0.50268 0.2708 0.0
H1246 H 0.5911 0.51744 0.27021 0.0
H1247 H 0.58929 0.5083 0.22061 0.0
C1248 C 0.56865 0.53469 0.17795 0.0
C1249 C 0.56215 0.53078 0.13996 0.0
C1250 C 0.57066 0.52715 0.21544 0.0
C1251 C 0.56636 0.51553 0.21522 0.0
C1252 C 0.56038 0.51153 0.17625 0.0
H1253 H 0.57441 0.45743 0.41129 0.0
H1254 H 0.5766 0.47071 0.34525 0.0
C1255 C 0.55829 0.51903 0.1393 0.0
C1256 C 0.56696 0.50779 0.25661 0.0
H1257 H 0.58561 0.49436 0.33222 0.0
C1258 C 0.55638 0.50335 0.2744 0.0
C1259 C 0.57766 0.50435 0.27736 0.0
C1260 C 0.58934 0.50834 0.25862 0.0
C1261 C 0.55616 0.49573 0.31222 0.0
C1262 C 0.56681 0.49258 0.33397 0.0
C1263 C 0.57744 0.49685 0.31592 0.0
C1264 C 0.56687 0.485 0.37578 0.0
C1265 C 0.54448 0.49095 0.32811 0.0
C1266 C 0.56104 0.48873 0.41552 0.0
C1267 C 0.55972 0.48117 0.45295 0.0
C1268 C 0.56431 0.4697 0.45198 0.0
C1269 C 0.57077 0.46619 0.41322 0.0
C1270 C 0.57202 0.47378 0.37544 0.0
H1271 H 0.53769 0.49158 0.30094 0.0
H1272 H 0.54525 0.48162 0.33877 0.0
H1273 H 0.5414 0.49611 0.35798 0.0
H1274 H 0.55719 0.49741 0.4171 0.0
H1275 H 0.55483 0.48427 0.48236 0.0
H1276 H 0.27323 0.79751 0.19822 0.0
H1277 H 0.26011 0.80226 0.13582 0.0
H1278 H 0.27787 0.83536 0.11629 0.0
H1279 H 0.29148 0.83046 0.17899 0.0
H1280 H 0.24459 0.81979 0.125 0.0
H1281 H 0.27849 0.82189 0.98787 0.0
H1282 H 0.28168 0.81622 0.04413 0.0
H1283 H 0.28032 0.83176 0.03529 0.0
C1284 C 0.27444 0.80583 0.1809 0.0
C1285 C 0.28351 0.81358 0.19374 0.0
C1286 C 0.26684 0.80855 0.1451 0.0
C1287 C 0.26799 0.81912 0.12091 0.0
C1288 C 0.27691 0.82704 0.13387 0.0
H1289 H 0.21055 0.8268 0.91529 0.0
H1290 H 0.22374 0.83261 0.97812 0.0
C1291 C 0.28465 0.82427 0.16986 0.0
C1292 C 0.25984 0.82141 0.08193 0.0
H1293 H 0.25882 0.82278 0.96512 0.0
C1294 C 0.24768 0.82066 0.09005 0.0
C1295 C 0.26387 0.82252 0.03628 0.0
C1296 C 0.27679 0.82307 0.02503 0.0
C1297 C 0.23954 0.82022 0.0539 0.0
C1298 C 0.24361 0.82084 0.00819 0.0
C1299 C 0.2557 0.82234 1.00015 0.0
C1300 C 0.23581 0.81815 0.96852 0.0
C1301 C 0.22674 0.81824 0.06493 0.0
C1302 C 0.23834 0.80832 0.94144 0.0
C1303 C 0.23092 0.80506 0.9057 0.0
C1304 C 0.22072 0.81153 0.89578 0.0
C1305 C 0.21829 0.82158 0.92215 0.0
C1306 C 0.22579 0.82487 0.9582 0.0
H1307 H 0.22534 0.81598 0.10153 0.0
H1308 H 0.22174 0.82636 0.05738 0.0
H1309 H 0.22307 0.81107 0.04355 0.0
H1310 H 0.24599 0.80297 0.94859 0.0
H1311 H 0.23318 0.79731 0.88609 0.0
H1312 H 0.57125 0.01327 0.97096 0.0
H1313 H 0.57675 1.00112 0.9055 0.0
H1314 H 0.57211 0.03088 0.81584 0.0
H1315 H 0.56725 0.04321 0.88208 0.0
H1316 H 0.56259 0.99538 0.8418 0.0
H1317 H 0.60015 0.01703 0.75659 0.0
H1318 H 0.59544 0.02104 0.81344 0.0
H1319 H 0.58811 0.02696 0.7639 0.0
C1320 C 0.57185 0.0173 0.93743 0.0
C1321 C 0.56896 0.02919 0.93154 0.0
C1322 C 0.57491 0.01034 0.89992 0.0
C1323 C 0.57492 0.01501 0.85537 0.0
C1324 C 0.5725 0.02706 0.84973 0.0
H1325 H 0.56406 0.9858 0.58887 0.0
H1326 H 0.56782 0.99817 0.6555 0.0
C1327 C 0.56969 0.03413 0.8876 0.0
C1328 C 0.57595 0.00695 0.81511 0.0
H1329 H 0.58926 0.00312 0.71106 0.0
C1330 C 0.5686 0.99701 0.81369 0.0
C1331 C 0.58372 0.00899 0.77802 0.0
C1332 C 0.59238 0.01902 0.77824 0.0
C1333 C 0.56854 0.98933 0.77606 0.0
C1334 C 0.57605 0.99157 0.73851 0.0
C1335 C 0.58353 1.00139 0.73994 0.0
C1336 C 0.57547 0.98431 0.6962 0.0
C1337 C 0.56011 0.97909 0.77599 0.0
C1338 C 0.57888 0.97244 0.69628 0.0
C1339 C 0.57679 0.9653 0.65792 0.0
C1340 C 0.57118 0.9699 0.61898 0.0
C1341 C 0.56835 0.98194 0.61833 0.0
C1342 C 0.57052 0.98905 0.65639 0.0
H1343 H 0.55367 0.97958 0.8045 0.0
H1344 H 0.55524 0.9787 0.74311 0.0
H1345 H 0.56512 0.97079 0.7796 0.0
H1346 H 0.58279 0.96861 0.72657 0.0
H1347 H 0.57905 0.95608 0.65964 0.0
H1348 H 0.26535 0.31788 0.85144 0.0
H1349 H 0.25275 0.31817 0.91909 0.0
H1350 H 0.28337 0.32011 0.00557 0.0
H1351 H 0.29599 0.3203 0.93751 0.0
H1352 H 0.2532 0.30045 0.97701 0.0
H1353 H 0.26132 0.34136 0.07453 0.0
H1354 H 0.26577 0.33964 0.01559 0.0
H1355 H 0.27452 0.33352 0.06093 0.0
C1356 C 0.26936 0.31887 0.88483 0.0
C1357 C 0.28163 0.31913 0.88928 0.0
C1358 C 0.26216 0.31895 0.92353 0.0
C1359 C 0.26707 0.31911 0.96762 0.0
C1360 C 0.27932 0.3202 0.97206 0.0
H1361 H 0.23268 0.2849 0.19935 0.0
H1362 H 0.24606 0.29054 0.13748 0.0
C1363 C 0.28655 0.32033 0.93311 0.0
C1364 C 0.25948 0.31644 0.00796 0.0
H1365 H 0.25114 0.32601 0.11403 0.0
C1366 C 0.25272 0.3061 0.00681 0.0
C1367 C 0.25879 0.32379 0.04691 0.0
C1368 C 0.2654 0.33525 0.04952 0.0
C1369 C 0.24536 0.3029 0.04328 0.0
C1370 C 0.24494 0.31004 0.08281 0.0
C1371 C 0.25159 0.32045 0.08396 0.0
C1372 C 0.23734 0.30697 0.12252 0.0
C1373 C 0.2379 0.29199 0.03864 0.0
C1374 C 0.22819 0.31447 0.13566 0.0
C1375 C 0.22055 0.3113 0.17114 0.0
C1376 C 0.22193 0.30056 0.19444 0.0
C1377 C 0.23128 0.29318 0.18193 0.0
C1378 C 0.23893 0.29638 0.14646 0.0
H1379 H 0.23696 0.28926 1.00233 0.0
H1380 H 0.24211 0.28468 0.05757 0.0
H1381 H 0.22901 0.2934 0.05321 0.0
H1382 H 0.22679 0.32268 0.11776 0.0
H1383 H 0.21348 0.31723 0.17993 0.0
H1384 H 0.92355 0.04595 0.17163 0.0
H1385 H 0.9188 0.03335 0.23762 0.0
H1386 H 0.93492 0.00387 0.17002 0.0
H1387 H 0.93971 0.01629 0.10454 0.0
H1388 H 0.91233 0.99915 0.22111 0.0
H1389 H 0.94739 0.02203 0.31989 0.0
H1390 H 0.93642 0.03092 0.29233 0.0
H1391 H 0.94664 0.02276 0.25825 0.0
C1392 C 0.92586 0.03673 0.17052 0.0
C1393 C 0.93211 0.03215 0.13309 0.0
C1394 C 0.92317 0.02956 0.20823 0.0
C1395 C 0.92659 0.0177 0.20875 0.0
C1396 C 0.9322 0.01298 0.1703 0.0
H1397 H 0.93383 0.95813 0.38922 0.0
H1398 H 0.92897 0.97084 0.32409 0.0
C1399 C 0.93498 0.02013 0.13298 0.0
C1400 C 0.92548 0.01042 0.25067 0.0
H1401 H 0.93829 0.00595 0.35462 0.0
C1402 C 0.91787 1.0007 0.25069 0.0
C1403 C 0.93278 0.01241 0.28895 0.0
C1404 C 0.94134 0.02254 0.29015 0.0
C1405 C 0.91739 0.9929 0.2881 0.0
C1406 C 0.92497 0.99469 0.32589 0.0
C1407 C 0.93242 0.00456 0.32594 0.0
C1408 C 0.9258 0.98636 0.36522 0.0
C1409 C 0.9087 0.9829 0.28676 0.0
C1410 C 0.92558 0.99073 0.41018 0.0
C1411 C 0.92867 0.98356 0.44702 0.0
C1412 C 0.93178 0.97179 0.4399 0.0
C1413 C 0.93122 0.96712 0.39554 0.0
C1414 C 0.9284 0.9744 0.35835 0.0
H1415 H 0.90105 0.98507 0.26475 0.0
H1416 H 0.91302 0.97505 0.27196 0.0
H1417 H 0.90547 0.98065 0.32153 0.0
H1418 H 0.9236 0.99988 0.41657 0.0
H1419 H 0.92912 0.98735 0.48097 0.0
H1420 H 0.225 0.66505 0.36926 0.0
H1421 H 0.23751 0.66124 0.43665 0.0
H1422 H 0.22271 0.69149 0.50394 0.0
H1423 H 0.2103 0.6952 0.43725 0.0
H1424 H 0.25438 0.67706 0.47209 0.0
H1425 H 0.22134 0.66653 0.60455 0.0
H1426 H 0.2182 0.66565 0.54405 0.0
H1427 H 0.21773 0.67957 0.57311 0.0
C1428 C 0.22424 0.67064 0.39908 0.0
C1429 C 0.21656 0.68027 0.39871 0.0
C1430 C 0.23142 0.66852 0.43736 0.0
C1431 C 0.23092 0.67596 0.47577 0.0
C1432 C 0.22306 0.68544 0.47538 0.0
H1433 H 0.26418 0.69978 0.71425 0.0
H1434 H 0.25175 0.6939 0.65065 0.0
C1435 C 0.21597 0.68757 0.43727 0.0
C1436 C 0.23921 0.67461 0.51491 0.0
H1437 H 0.23996 0.67375 0.63176 0.0
C1438 C 0.25129 0.67607 0.50699 0.0
C1439 C 0.23518 0.67329 0.56043 0.0
C1440 C 0.22241 0.67105 0.57109 0.0
C1441 C 0.25931 0.67715 0.54347 0.0
C1442 C 0.25516 0.67652 0.58917 0.0
C1443 C 0.24317 0.67432 0.59686 0.0
C1444 C 0.26275 0.67945 0.62925 0.0
C1445 C 0.27202 0.67968 0.53273 0.0
C1446 C 0.27306 0.67316 0.63929 0.0
C1447 C 0.28033 0.67659 0.67584 0.0
C1448 C 0.27734 0.68629 0.70331 0.0
C1449 C 0.26682 0.69228 0.69394 0.0
C1450 C 0.25964 0.68891 0.65748 0.0
H1451 H 0.27334 0.68216 0.4963 0.0
H1452 H 0.27542 0.68688 0.55464 0.0
H1453 H 0.27732 0.67171 0.53965 0.0
H1454 H 0.27554 0.66567 0.61873 0.0
H1455 H 0.28833 0.67174 0.68217 0.0
H1456 H 0.42305 0.04876 0.39261 0.0
H1457 H 0.42101 0.03588 0.32536 0.0
H1458 H 0.42034 0.0056 0.41385 0.0
H1459 H 0.42235 0.01832 0.48051 0.0
H1460 H 0.43959 0.00714 0.34673 0.0
H1461 H 0.39523 0.01236 0.26969 0.0
H1462 H 0.40292 0.0254 0.28786 0.0
H1463 H 0.398 0.015 0.32975 0.0
C1464 C 0.42188 0.03941 0.39772 0.0
C1465 C 0.42278 0.03456 0.44183 0.0
C1466 C 0.4208 0.03204 0.35927 0.0
C1467 C 0.42055 0.01975 0.36457 0.0
C1468 C 0.42049 0.01502 0.40887 0.0
H1469 H 0.4231 0.96116 0.1668 0.0
H1470 H 0.41732 0.97404 0.23094 0.0
C1471 C 0.42157 0.02233 0.44699 0.0
C1472 C 0.42216 0.01173 0.32479 0.0
H1473 H 0.40882 1.00045 0.22949 0.0
C1474 C 0.43284 0.00565 0.32121 0.0
C1475 C 0.41334 0.00975 0.29165 0.0
C1476 C 0.40167 0.01589 0.2947 0.0
C1477 C 0.43499 0.99779 0.28517 0.0
C1478 C 0.42625 0.99591 0.25157 0.0
C1479 C 0.41549 0.00185 0.25538 0.0
C1480 C 0.42864 0.98843 0.21084 0.0
C1481 C 0.44667 0.99158 0.28306 0.0
C1482 C 0.43671 0.99233 0.17799 0.0
C1483 C 0.44001 0.98506 0.14182 0.0
C1484 C 0.43532 0.97364 0.13727 0.0
C1485 C 0.42688 0.96987 0.16928 0.0
C1486 C 0.42357 0.97722 0.20585 0.0
H1487 H 0.45144 0.99204 0.31617 0.0
H1488 H 0.44549 0.98222 0.27352 0.0
H1489 H 0.45223 0.9958 0.25646 0.0
H1490 H 0.44067 1.00095 0.18091 0.0
H1491 H 0.44643 0.98838 0.11768 0.0
H1492 H 0.76403 0.69139 0.84904 0.0
H1493 H 0.75164 0.68785 0.91568 0.0
H1494 H 0.78166 0.67551 0.99127 0.0
H1495 H 0.79427 0.67903 0.92402 0.0
H1496 H 0.75769 0.66276 0.00544 0.0
H1497 H 0.7572 0.71127 0.02663 0.0
H1498 H 0.75392 0.70593 0.97019 0.0
H1499 H 0.76831 0.70379 0.99362 0.0
C1500 C 0.76801 0.68767 0.87945 0.0
C1501 C 0.78018 0.68559 0.88132 0.0
C1502 C 0.76088 0.68565 0.91755 0.0
C1503 C 0.76574 0.68156 0.95859 0.0
C1504 C 0.77774 0.67868 0.95985 0.0
H1505 H 0.73534 0.696 0.22311 0.0
H1506 H 0.74853 0.69216 0.1593 0.0
C1507 C 0.78493 0.68066 0.9214 0.0
C1508 C 0.75848 0.6816 1.00092 0.0
H1509 H 0.7445 0.70033 0.07398 0.0
C1510 C 0.75484 0.67095 0.0207 0.0
C1511 C 0.75483 0.6923 0.02089 0.0
C1512 C 0.75881 0.704 1.00212 0.0
C1513 C 0.74749 0.67076 0.05962 0.0
C1514 C 0.7436 0.68148 0.07884 0.0
C1515 C 0.7474 0.69209 0.05921 0.0
C1516 C 0.73592 0.68212 0.12017 0.0
C1517 C 0.74409 0.6591 0.08024 0.0
C1518 C 0.72445 0.67749 0.12025 0.0
C1519 C 0.71682 0.67961 0.15725 0.0
C1520 C 0.72052 0.68653 0.19442 0.0
C1521 C 0.73216 0.6907 0.19493 0.0
C1522 C 0.73974 0.68851 0.15839 0.0
H1523 H 0.74999 0.65194 0.06865 0.0
H1524 H 0.74429 0.65951 0.1182 0.0
H1525 H 0.73501 0.65686 0.06959 0.0
H1526 H 0.7212 0.6727 0.09085 0.0
H1527 H 0.70789 0.67636 0.15566 0.0
H1528 H 0.0726 0.9563 0.89929 0.0
H1529 H 0.07571 0.96984 0.83472 0.0
H1530 H 0.06966 0.99931 0.92429 0.0
H1531 H 0.06621 0.98588 0.98791 0.0
H1532 H 0.05573 1.00048 0.85318 0.0
H1533 H 0.10076 0.99209 0.78974 0.0
H1534 H 0.09199 0.97902 0.79336 0.0
H1535 H 0.0957 0.98689 0.84474 0.0
C1536 C 0.07233 0.96567 0.90534 0.0
C1537 C 0.06918 0.97003 0.94861 0.0
C1538 C 0.07411 0.97344 0.86842 0.0
C1539 C 0.07297 0.98567 0.87446 0.0
C1540 C 0.07057 0.98996 0.91849 0.0
H1541 H 0.07512 0.04389 0.67267 0.0
H1542 H 0.07992 0.03147 0.73939 0.0
C1543 C 0.06865 0.98226 0.95496 0.0
C1544 C 0.07283 0.99394 0.83466 0.0
H1545 H 0.08808 0.00308 0.73993 0.0
C1546 C 0.0629 1.00112 0.82888 0.0
C1547 C 0.08217 0.99488 0.80275 0.0
C1548 C 0.09331 0.9879 0.80811 0.0
C1549 C 0.06192 0.00891 0.7918 0.0
C1550 C 0.07104 0.00953 0.7591 0.0
C1551 C 0.0811 0.0026 0.76512 0.0
C1552 C 0.06961 0.01661 0.71666 0.0
C1553 C 0.051 0.01629 0.78715 0.0
C1554 C 0.06247 0.01228 0.68156 0.0
C1555 C 0.05971 0.01929 0.64389 0.0
C1556 C 0.06404 0.03086 0.6402 0.0
C1557 C 0.07168 0.03503 0.67438 0.0
C1558 C 0.07442 0.02795 0.71247 0.0
H1559 H 0.04558 0.01616 0.81878 0.0
H1560 H 0.05336 0.02552 0.77902 0.0
H1561 H 0.0456 0.01287 0.75847 0.0
H1562 H 0.05867 0.00357 0.68407 0.0
H1563 H 0.05389 0.01571 0.61812 0.0
H1564 H 0.74107 0.3106 0.36001 0.0
H1565 H 0.75373 0.31716 0.42208 0.0
H1566 H 0.7246 0.33539 0.48363 0.0
H1567 H 0.71171 0.3288 0.4208 0.0
H1568 H 0.75913 0.34064 0.45704 0.0
H1569 H 0.73669 0.31156 0.58309 0.0
H1570 H 0.73514 0.30957 0.5221 0.0
H1571 H 0.72762 0.32136 0.55024 0.0
C1572 C 0.73732 0.3161 0.38646 0.0
C1573 C 0.72532 0.31911 0.38559 0.0
C1574 C 0.74462 0.31988 0.4219 0.0
C1575 C 0.74012 0.32667 0.45777 0.0
C1576 C 0.72824 0.33007 0.45642 0.0
H1577 H 0.77318 0.33728 0.72296 0.0
H1578 H 0.76025 0.33995 0.65711 0.0
C1579 C 0.7209 0.32637 0.42044 0.0
C1580 C 0.74785 0.32954 0.4974 0.0
H1581 H 0.75307 0.32209 0.60877 0.0
C1582 C 0.75774 0.33671 0.49044 0.0
C1583 C 0.7461 0.32433 0.54082 0.0
C1584 C 0.73587 0.31621 0.5498 0.0
C1585 C 0.76592 0.33882 0.52572 0.0
C1586 C 0.76433 0.33337 0.5689 0.0
C1587 C 0.75431 0.32635 0.57591 0.0
C1588 C 0.77306 0.33436 0.60699 0.0
C1589 C 0.77611 0.34694 0.51634 0.0
C1590 C 0.78484 0.33093 0.60091 0.0
C1591 C 0.79238 0.32973 0.63868 0.0
C1592 C 0.78821 0.33174 0.68322 0.0
C1593 C 0.7767 0.33592 0.68891 0.0
C1594 C 0.76925 0.33729 0.65127 0.0
H1595 H 0.77399 0.35331 0.48875 0.0
H1596 H 0.77868 0.35189 0.54749 0.0
H1597 H 0.78375 0.34168 0.50479 0.0
H1598 H 0.78798 0.32832 0.56746 0.0
H1599 H 0.80107 0.32611 0.63344 0.0
H1600 H 0.17207 0.35647 0.2857 0.0
H1601 H 0.15802 0.3703 0.2532 0.0
H1602 H 0.14591 0.34359 0.15995 0.0
H1603 H 0.15912 0.32946 0.1952 0.0
H1604 H 0.155 0.38006 0.17607 0.0
H1605 H 0.11516 0.35349 0.20697 0.0
H1606 H 0.12929 0.34932 0.22926 0.0
H1607 H 0.12534 0.34585 0.17105 0.0
C1608 C 0.16641 0.35351 0.25827 0.0
C1609 C 0.16701 0.34182 0.24271 0.0
C1610 C 0.15837 0.36148 0.23953 0.0
C1611 C 0.15066 0.35804 0.20442 0.0
C1612 C 0.15148 0.34647 0.18775 0.0
H1613 H 0.11373 0.40893 0.03265 0.0
H1614 H 0.12779 0.39537 0.06717 0.0
C1615 C 0.15937 0.33841 0.20719 0.0
C1616 C 0.1419 0.36661 0.18543 0.0
H1617 H 0.11288 0.37013 0.15822 0.0
C1618 C 0.14578 0.37787 0.17249 0.0
C1619 C 0.12975 0.36398 0.18149 0.0
C1620 C 0.12462 0.35255 0.19842 0.0
C1621 C 0.13801 0.38641 0.15529 0.0
C1622 C 0.126 0.38354 0.14882 0.0
C1623 C 0.12207 0.37236 0.16245 0.0
C1624 C 0.1174 0.39195 0.12784 0.0
C1625 C 0.14276 0.39854 0.14556 0.0
C1626 C 0.10653 0.39425 0.14902 0.0
C1627 C 0.09833 0.40182 0.12858 0.0
C1628 C 0.10088 0.40745 0.08687 0.0
C1629 C 0.11165 0.40498 0.0654 0.0
C1630 C 0.11975 0.3973 0.0854 0.0
H1631 H 0.15061 0.40046 0.16683 0.0
H1632 H 0.14548 0.39907 0.10916 0.0
H1633 H 0.13608 0.40541 0.15218 0.0
H1634 H 0.10432 0.3901 0.18128 0.0
H1635 H 0.08986 0.403 0.14475 0.0
H1636 H 0.89807 0.91036 0.55807 0.0
H1637 H 0.88408 0.89648 0.52455 0.0
H1638 H 0.90608 0.89348 0.40488 0.0
H1639 H 0.92046 0.90672 0.44002 0.0
H1640 H 0.87096 0.89735 0.45162 0.0
H1641 H 0.90108 0.85963 0.43224 0.0
H1642 H 0.9051 0.87264 0.46373 0.0
H1643 H 0.90625 0.87236 0.40224 0.0
C1644 C 0.89989 0.90673 0.52458 0.0
C1645 C 0.91019 0.90991 0.5011 0.0
C1646 C 0.89189 0.89881 0.50538 0.0
C1647 C 0.89401 0.89379 0.46224 0.0
C1648 C 0.90428 0.89702 0.43851 0.0
H1649 H 0.84072 0.86125 0.29096 0.0
H1650 H 0.85441 0.87459 0.32943 0.0
C1651 C 0.91238 0.90484 0.45808 0.0
C1652 C 0.88536 0.88537 0.44214 0.0
H1653 H 0.88256 0.85805 0.3947 0.0
C1654 C 0.87351 0.88874 0.4394 0.0
C1655 C 0.88857 0.87399 0.42693 0.0
C1656 C 0.90092 0.86939 0.43186 0.0
C1657 C 0.86489 0.88122 0.4212 0.0
C1658 C 0.86821 0.8701 0.40388 0.0
C1659 C 0.88 0.86661 0.40746 0.0
C1660 C 0.85964 0.86205 0.38128 0.0
C1661 C 0.85227 0.88521 0.42159 0.0
C1662 C 0.8582 0.85042 0.39663 0.0
C1663 C 0.85044 0.84276 0.37428 0.0
C1664 C 0.8439 0.8466 0.33636 0.0
C1665 C 0.84546 0.85817 0.32076 0.0
C1666 C 0.85323 0.86581 0.34291 0.0
H1667 H 0.85071 0.89193 0.44844 0.0
H1668 H 0.85012 0.88922 0.38803 0.0
H1669 H 0.84619 0.87773 0.42756 0.0
H1670 H 0.86317 0.84724 0.42567 0.0
H1671 H 0.84981 0.83375 0.38574 0.0
H1672 H 0.35478 0.6634 0.78895 0.0
H1673 H 0.36831 0.64977 0.75148 0.0
H1674 H 0.34019 0.63758 0.66482 0.0
H1675 H 0.32667 0.65132 0.70217 0.0
H1676 H 0.36742 0.62622 0.74958 0.0
H1677 H 0.36587 0.64311 0.57168 0.0
H1678 H 0.36013 0.65128 0.61957 0.0
H1679 H 0.35167 0.63957 0.5946 0.0
C1680 C 0.35154 0.65791 0.76147 0.0
C1681 C 0.33972 0.65859 0.74791 0.0
C1682 C 0.35927 0.65011 0.74012 0.0
C1683 C 0.35536 0.64274 0.70477 0.0
C1684 C 0.34353 0.6434 0.69109 0.0
H1685 H 0.38793 0.586 0.55105 0.0
H1686 H 0.37431 0.59982 0.58723 0.0
C1687 C 0.33579 0.65128 0.71234 0.0
C1688 C 0.36355 0.63401 0.68412 0.0
H1689 H 0.37551 0.62484 0.5829 0.0
C1690 C 0.36922 0.62597 0.71314 0.0
C1691 C 0.36595 0.63366 0.63657 0.0
C1692 C 0.36068 0.64243 0.6038 0.0
C1693 C 0.37704 0.6175 0.69593 0.0
C1694 C 0.37935 0.6171 0.6484 0.0
C1695 C 0.37369 0.62512 0.61933 0.0
C1696 C 0.38761 0.60842 0.62808 0.0
C1697 C 0.3826 0.6089 0.72863 0.0
C1698 C 0.39963 0.60866 0.63886 0.0
C1699 C 0.40742 0.60077 0.61811 0.0
C1700 C 0.40334 0.59243 0.58638 0.0
C1701 C 0.3913 0.59223 0.57572 0.0
C1702 C 0.38353 0.60013 0.5963 0.0
H1703 H 0.37796 0.60864 0.76207 0.0
H1704 H 0.38267 0.59992 0.71386 0.0
H1705 H 0.39183 0.61155 0.735 0.0
H1706 H 0.40303 0.61516 0.66243 0.0
H1707 H 0.41668 0.60152 0.62567 0.0
H1708 H 0.65594 0.14532 0.78166 0.0
H1709 H 0.64271 0.13112 0.81801 0.0
H1710 H 0.63847 0.15449 0.93286 0.0
H1711 H 0.65131 0.16894 0.89527 0.0
H1712 H 0.64335 0.11895 0.89561 0.0
H1713 H 0.60473 0.14842 0.90053 0.0
H1714 H 0.61793 0.15209 0.86953 0.0
H1715 H 0.61721 0.15418 0.93051 0.0
C1716 C 0.65224 0.14737 0.81485 0.0
C1717 C 0.65488 0.15814 0.83599 0.0
C1718 C 0.64467 0.13925 0.83566 0.0
C1719 C 0.63939 0.14172 0.87806 0.0
C1720 C 0.64221 0.1524 0.89982 0.0
H1721 H 0.60445 0.08825 0.04559 0.0
H1722 H 0.61813 0.10236 0.01202 0.0
C1723 C 0.64978 0.16057 0.87879 0.0
C1724 C 0.63091 0.13312 0.89878 0.0
H1725 H 0.60274 0.13007 0.93829 0.0
C1726 C 0.63448 0.12141 0.9049 0.0
C1727 C 0.61921 0.13618 0.91025 0.0
C1728 C 0.61448 0.14837 0.90198 0.0
C1729 C 0.6268 0.11278 0.92239 0.0
C1730 C 0.61522 0.11593 0.93535 0.0
C1731 C 0.6116 0.12761 0.92879 0.0
C1732 C 0.60676 0.10727 0.95589 0.0
C1733 C 0.63112 0.10029 0.92561 0.0
C1734 C 0.59554 0.10552 0.93684 0.0
C1735 C 0.58757 0.09752 0.95656 0.0
C1736 C 0.59065 0.09101 0.99575 0.0
C1737 C 0.60182 0.09295 0.01506 0.0
C1738 C 0.60973 0.10097 0.99559 0.0
H1739 H 0.63849 0.09866 0.90151 0.0
H1740 H 0.63441 0.09863 0.96076 0.0
H1741 H 0.62399 0.09392 0.91819 0.0
H1742 H 0.59292 0.11038 0.90667 0.0
H1743 H 0.57893 0.09672 0.94174 0.0
H1744 H 0.10115 0.58651 0.54581 0.0
H1745 H 0.11547 0.60002 0.51132 0.0
H1746 H 0.091 0.60769 0.40291 0.0
H1747 H 0.07661 0.59424 0.43793 0.0
H1748 H 0.12597 0.60038 0.42303 0.0
H1749 H 0.09939 0.6404 0.45408 0.0
H1750 H 0.09628 0.62656 0.48176 0.0
H1751 H 0.092 0.62891 0.4233 0.0
C1752 C 0.0989 0.591 0.51434 0.0
C1753 C 0.08784 0.58917 0.49415 0.0
C1754 C 0.10708 0.59872 0.49465 0.0
C1755 C 0.10433 0.605 0.45467 0.0
C1756 C 0.09333 0.60306 0.434 0.0
H1757 H 0.14035 0.65845 0.29362 0.0
H1758 H 0.12651 0.64456 0.32793 0.0
C1759 C 0.08515 0.59525 0.45361 0.0
C1760 C 0.11294 0.61365 0.43528 0.0
H1761 H 0.11694 0.64286 0.41196 0.0
C1762 C 0.12401 0.60967 0.42071 0.0
C1763 C 0.11044 0.62581 0.43227 0.0
C1764 C 0.09893 0.63074 0.449 0.0
C1765 C 0.13248 0.61742 0.40234 0.0
C1766 C 0.12999 0.6296 0.39945 0.0
C1767 C 0.11893 0.63357 0.41418 0.0
C1768 C 0.13853 0.63831 0.37974 0.0
C1769 C 0.14388 0.6124 0.38489 0.0
C1770 C 0.14993 0.63969 0.39768 0.0
C1771 C 0.15792 0.64766 0.37785 0.0
C1772 C 0.15465 0.65456 0.33998 0.0
C1773 C 0.14316 0.6533 0.32277 0.0
C1774 C 0.13522 0.64536 0.34247 0.0
H1775 H 0.14314 0.60284 0.37793 0.0
H1776 H 0.14673 0.61689 0.35301 0.0
H1777 H 0.15079 0.61365 0.41116 0.0
H1778 H 0.1527 0.63454 0.42688 0.0
H1779 H 0.16674 0.64812 0.39135 0.0
H1780 H 0.58384 0.90237 0.64497 0.0
H1781 H 0.59799 0.88991 0.68555 0.0
H1782 H 0.62333 0.89582 0.57826 0.0
H1783 H 0.60948 0.90864 0.53899 0.0
H1784 H 0.60799 0.86962 0.65865 0.0
H1785 H 0.64321 0.90208 0.68884 0.0
H1786 H 0.62866 0.90632 0.67107 0.0
H1787 H 0.63927 0.90144 0.62952 0.0
C1788 C 0.59255 0.90135 0.63089 0.0
C1789 C 0.59562 0.90676 0.58926 0.0
C1790 C 0.6006 0.89408 0.65379 0.0
C1791 C 0.61186 0.89209 0.63553 0.0
C1792 C 0.61486 0.89745 0.59388 0.0
H1793 H 0.65748 0.83215 0.69147 0.0
H1794 H 0.64353 0.84619 0.65838 0.0
C1795 C 0.60689 0.90471 0.57121 0.0
C1796 C 0.62031 0.88397 0.65834 0.0
H1797 H 0.64876 0.88183 0.69451 0.0
C1798 C 0.61687 0.87233 0.66691 0.0
C1799 C 0.63187 0.88749 0.66981 0.0
C1800 C 0.63594 0.90005 0.66479 0.0
C1801 C 0.62474 0.86405 0.68531 0.0
C1802 C 0.63651 0.86741 0.69426 0.0
C1803 C 0.63983 0.87915 0.68693 0.0
C1804 C 0.64543 0.85903 0.71256 0.0
C1805 C 0.62027 0.85186 0.69568 0.0
C1806 C 0.65157 0.86173 0.75287 0.0
C1807 C 0.65982 0.8539 0.77082 0.0
C1808 C 0.66222 0.8432 0.74879 0.0
C1809 C 0.65616 0.84051 0.70825 0.0
C1810 C 0.64796 0.84842 0.68997 0.0
H1811 H 0.61059 0.85176 0.70026 0.0
H1812 H 0.6224 0.84598 0.66659 0.0
H1813 H 0.6244 0.84825 0.72708 0.0
H1814 H 0.64983 0.86983 0.77103 0.0
H1815 H 0.66425 0.85611 0.80245 0.0
H1816 H 0.40246 0.42466 0.953 0.0
H1817 H 0.38768 0.41134 0.9201 0.0
H1818 H 0.40332 0.38228 0.99232 0.0
H1819 H 0.41783 0.39559 0.02577 0.0
H1820 H 0.38854 0.39229 0.8665 0.0
H1821 H 0.36994 0.37904 0.03352 0.0
H1822 H 0.38019 0.39104 0.02788 0.0
H1823 H 0.38537 0.37612 0.03043 0.0
C1824 C 0.40283 0.4154 0.96115 0.0
C1825 C 0.41133 0.41115 0.99176 0.0
C1826 C 0.39432 0.4078 0.94269 0.0
C1827 C 0.39415 0.39581 0.9546 0.0
C1828 C 0.40297 0.39151 0.98367 0.0
H1829 H 0.36019 0.3393 0.80669 0.0
H1830 H 0.37364 0.35354 0.841 0.0
C1831 C 0.41135 0.3991 1.0024 0.0
C1832 C 0.38486 0.38775 0.93657 0.0
H1833 H 0.36456 0.36716 0.96925 0.0
C1834 C 0.38324 0.38687 0.88904 0.0
C1835 C 0.37772 0.38079 0.96582 0.0
C1836 C 0.37829 0.38188 0.01724 0.0
C1837 C 0.37504 0.379 0.87002 0.0
C1838 C 0.36843 0.37154 0.89919 0.0
C1839 C 0.36973 0.37271 0.94675 0.0
C1840 C 0.36029 0.36236 0.88088 0.0
C1841 C 0.37347 0.37889 0.81874 0.0
C1842 C 0.34837 0.36208 0.89364 0.0
C1843 C 0.34068 0.35375 0.87456 0.0
C1844 C 0.34479 0.34552 0.84253 0.0
C1845 C 0.35678 0.34558 0.8311 0.0
C1846 C 0.36445 0.35379 0.85039 0.0
H1847 H 0.37616 0.38739 0.80318 0.0
H1848 H 0.37909 0.37193 0.80379 0.0
H1849 H 0.36421 0.37709 0.8092 0.0
H1850 H 0.34494 0.36853 0.91733 0.0
H1851 H 0.33146 0.35405 0.88339 0.0
H1852 H 0.83184 0.14338 0.2789 0.0
H1853 H 0.84645 0.13005 0.24654 0.0
H1854 H 0.85927 0.15792 0.15987 0.0
H1855 H 0.84492 0.17142 0.1936 0.0
H1856 H 0.85042 0.12213 0.1608 0.0
H1857 H 0.88931 0.14715 0.22008 0.0
H1858 H 0.87465 0.15034 0.23979 0.0
H1859 H 0.87955 0.15559 0.1849 0.0
C1860 C 0.83773 0.14666 0.25276 0.0
C1861 C 0.83706 0.15846 0.23848 0.0
C1862 C 0.8461 0.13902 0.23422 0.0
C1863 C 0.85413 0.14295 0.20113 0.0
C1864 C 0.85333 0.15467 0.18592 0.0
H1865 H 0.91015 0.11012 0.04588 0.0
H1866 H 0.89584 0.12329 0.08122 0.0
C1867 C 0.84494 0.16236 0.2046 0.0
C1868 C 0.8633 0.13475 0.18293 0.0
H1869 H 0.89296 0.13104 0.17063 0.0
C1870 C 0.85972 0.12407 0.16315 0.0
C1871 C 0.87548 0.13718 0.18616 0.0
C1872 C 0.88001 0.14813 0.20927 0.0
C1873 C 0.8679 0.11596 0.14563 0.0
C1874 C 0.88007 0.11845 0.14848 0.0
C1875 C 0.88366 0.12909 0.16844 0.0
C1876 C 0.88918 0.1104 0.12904 0.0
C1877 C 0.86342 0.10492 0.12303 0.0
C1878 C 0.89046 0.09877 0.14467 0.0
C1879 C 0.89871 0.09119 0.12442 0.0
C1880 C 0.90591 0.09511 0.08834 0.0
C1881 C 0.90477 0.10683 0.07364 0.0
C1882 C 0.89659 0.11438 0.09388 0.0
H1883 H 0.85397 0.10561 0.11401 0.0
H1884 H 0.86848 0.10296 0.09146 0.0
H1885 H 0.86446 0.09742 0.14692 0.0
H1886 H 0.88499 0.0955 0.17219 0.0
H1887 H 0.89915 0.08217 0.13592 0.0
H1888 H 0.89191 0.59109 0.03108 0.0
H1889 H 0.87857 0.60504 0.99446 0.0
H1890 H 0.90739 0.61904 0.91568 0.0
H1891 H 0.92078 0.60506 0.95245 0.0
H1892 H 0.87942 0.62897 0.99802 0.0
H1893 H 0.8825 0.61425 0.8175 0.0
H1894 H 0.88769 0.60543 0.86466 0.0
H1895 H 0.89642 0.61743 0.84352 0.0
C1896 C 0.89537 0.59705 0.00549 0.0
C1897 C 0.90737 0.5968 0.99404 0.0
C1898 C 0.88774 0.60503 0.98462 0.0
C1899 C 0.8919 0.61302 0.95177 0.0
C1900 C 0.90388 0.61278 0.94002 0.0
H1901 H 0.86 0.67039 0.79971 0.0
H1902 H 0.87329 0.6562 0.8354 0.0
C1903 C 0.91154 0.60474 0.9609 0.0
C1904 C 0.88376 0.62193 0.93178 0.0
H1905 H 0.87235 0.63208 0.83104 0.0
C1906 C 0.87784 0.62961 0.9615 0.0
C1907 C 0.88167 0.62279 0.88414 0.0
C1908 C 0.88731 0.61448 0.85056 0.0
C1909 C 0.87009 0.63824 0.94493 0.0
C1910 C 0.86802 0.63912 0.89728 0.0
C1911 C 0.87393 0.63143 0.86756 0.0
C1912 C 0.85991 0.64807 0.8774 0.0
C1913 C 0.86441 0.64651 0.97856 0.0
C1914 C 0.84792 0.64827 0.88898 0.0
C1915 C 0.8403 0.65643 0.86864 0.0
C1916 C 0.84452 0.66456 0.83628 0.0
C1917 C 0.85651 0.66431 0.82483 0.0
C1918 C 0.86411 0.65619 0.84513 0.0
H1919 H 0.86915 0.64669 0.01176 0.0
H1920 H 0.86407 0.65558 0.96463 0.0
H1921 H 0.85528 0.64357 0.98526 0.0
H1922 H 0.84437 0.6419 0.91284 0.0
H1923 H 0.83105 0.65607 0.87695 0.0
H1924 H 0.07839 0.09944 0.63451 0.0
H1925 H 0.09213 0.11336 0.66996 0.0
H1926 H 0.11927 0.10225 0.57686 0.0
H1927 H 0.10566 0.08827 0.54186 0.0
H1928 H 0.11455 0.10996 0.71213 0.0
H1929 H 0.11832 0.1379 0.55724 0.0
H1930 H 0.10685 0.12707 0.56414 0.0
H1931 H 0.12138 0.12265 0.54746 0.0
C1932 C 0.08734 0.09975 0.62231 0.0
C1933 C 0.09094 0.09259 0.58565 0.0
C1934 C 0.09517 0.10782 0.6423 0.0
C1935 C 0.10671 0.10902 0.62565 0.0
C1936 C 0.11037 0.1017 0.58978 0.0
H1937 H 0.16775 0.15277 0.69087 0.0
H1938 H 0.15362 0.13905 0.6561 0.0
C1939 C 0.10259 0.09366 0.56993 0.0
C1940 C 0.11494 0.11792 0.64538 0.0
H1941 H 0.1316 0.14197 0.61775 0.0
C1942 C 0.11821 0.11701 0.69159 0.0
C1943 C 0.11981 0.1271 0.61857 0.0
C1944 C 0.11635 0.12884 0.5692 0.0
C1945 C 0.12636 0.12483 0.71137 0.0
C1946 C 0.13121 0.13403 0.68457 0.0
C1947 C 0.12793 0.13494 0.63838 0.0
C1948 C 0.13961 0.14284 0.70397 0.0
C1949 C 0.12995 0.12292 0.76052 0.0
C1950 C 0.1364 0.14981 0.74159 0.0
C1951 C 0.14443 0.15767 0.76111 0.0
C1952 C 0.15579 0.15896 0.74302 0.0
C1953 C 0.15894 0.15223 0.70463 0.0
C1954 C 0.1509 0.1443 0.68511 0.0
H1955 H 0.1282 0.11377 0.77184 0.0
H1956 H 0.13942 0.12485 0.76552 0.0
H1957 H 0.12482 0.12888 0.78285 0.0
H1958 H 0.12769 0.14909 0.75624 0.0
H1959 H 0.14182 0.16269 0.79088 0.0
H1960 H 0.66766 0.35837 0.28294 0.0
H1961 H 0.65349 0.3719 0.31722 0.0
H1962 H 0.64179 0.34449 0.40833 0.0
H1963 H 0.65592 0.3309 0.37381 0.0
H1964 H 0.62953 0.37055 0.32045 0.0
H1965 H 0.64724 0.37144 0.49707 0.0
H1966 H 0.65542 0.36553 0.44948 0.0
H1967 H 0.64409 0.35694 0.47637 0.0
C1968 C 0.66214 0.35525 0.31061 0.0
C1969 C 0.66316 0.3436 0.32628 0.0
C1970 C 0.65402 0.363 0.33017 0.0
C1971 C 0.64665 0.35935 0.36601 0.0
C1972 C 0.64758 0.34768 0.38163 0.0
H1973 H 0.59125 0.39139 0.52718 0.0
H1974 H 0.60526 0.37837 0.48941 0.0
C1975 C 0.65573 0.33989 0.36202 0.0
C1976 C 0.63777 0.36764 0.38574 0.0
H1977 H 0.62878 0.38055 0.48549 0.0
C1978 C 0.6294 0.37277 0.35653 0.0
C1979 C 0.63757 0.37063 0.43279 0.0
C1980 C 0.64662 0.36595 0.46574 0.0
C1981 C 0.62071 0.38049 0.37315 0.0
C1982 C 0.62045 0.3834 0.42029 0.0
C1983 C 0.62889 0.37835 0.44939 0.0
C1984 C 0.61133 0.39133 0.44067 0.0
C1985 C 0.61167 0.38518 0.34022 0.0
C1986 C 0.60988 0.40302 0.42583 0.0
C1987 C 0.60173 0.41051 0.44734 0.0
C1988 C 0.59491 0.40647 0.48435 0.0
C1989 C 0.59631 0.39475 0.49863 0.0
C1990 C 0.60436 0.3873 0.47712 0.0
H1991 H 0.61117 0.37981 0.30855 0.0
H1992 H 0.60283 0.38543 0.35627 0.0
H1993 H 0.6141 0.39427 0.33022 0.0
H1994 H 0.61532 0.4065 0.39859 0.0
H1995 H 0.60115 0.41956 0.43638 0.0
H1996 H 0.33521 0.84726 0.18418 0.0
H1997 H 0.34944 0.8606 0.14788 0.0
H1998 H 0.37342 0.85494 0.25983 0.0
H1999 H 0.35946 0.84125 0.29472 0.0
H2000 H 0.35824 0.88104 0.17675 0.0
H2001 H 0.39543 0.85046 0.15475 0.0
H2002 H 0.38088 0.84545 0.16931 0.0
H2003 H 0.39052 0.85104 0.21301 0.0
C2004 C 0.34371 0.84851 0.2 0.0
C2005 C 0.34639 0.84282 0.24146 0.0
C2006 C 0.35179 0.8563 0.17965 0.0
C2007 C 0.36271 0.85866 0.20041 0.0
C2008 C 0.36529 0.85306 0.24212 0.0
H2009 H 0.4061 0.9211 0.13878 0.0
H2010 H 0.39288 0.90686 0.17479 0.0
C2011 C 0.35726 0.84526 0.26224 0.0
C2012 C 0.37118 0.86731 0.17979 0.0
H2013 H 0.39982 0.87084 0.14679 0.0
C2014 C 0.36732 0.87877 0.16998 0.0
C2015 C 0.38304 0.86443 0.17033 0.0
C2016 C 0.38769 0.85215 0.17694 0.0
C2017 C 0.37494 0.88738 0.15172 0.0
C2018 C 0.38692 0.88462 0.14396 0.0
C2019 C 0.39073 0.87311 0.15323 0.0
C2020 C 0.39552 0.89327 0.124 0.0
C2021 C 0.36995 0.89925 0.13981 0.0
C2022 C 0.40191 0.89034 0.08451 0.0
C2023 C 0.40976 0.89835 0.06468 0.0
C2024 C 0.41156 0.90958 0.08371 0.0
C2025 C 0.40529 0.91248 0.1237 0.0
C2026 C 0.39747 0.90438 0.14383 0.0
H2027 H 0.36027 0.89888 0.13529 0.0
H2028 H 0.37184 0.90548 0.16806 0.0
H2029 H 0.37393 0.90277 0.10791 0.0
H2030 H 0.40067 0.88187 0.06835 0.0
H2031 H 0.41439 0.89579 0.03389 0.0
H2032 H 0.92921 0.40679 0.63613 0.0
H2033 H 0.91606 0.39182 0.66938 0.0
H2034 H 0.88675 0.40723 0.5982 0.0
H2035 H 0.89983 0.42194 0.56468 0.0
H2036 H 0.89627 0.39211 0.72341 0.0
H2037 H 0.88424 0.37393 0.5543 0.0
H2038 H 0.89608 0.38429 0.5614 0.0
H2039 H 0.88112 0.38931 0.55869 0.0
C2040 C 0.91993 0.40711 0.62836 0.0
C2041 C 0.91558 0.41562 0.59782 0.0
C2042 C 0.9124 0.39847 0.64706 0.0
C2043 C 0.90038 0.39811 0.63549 0.0
C2044 C 0.89599 0.40698 0.60674 0.0
H2045 H 0.83916 0.35447 0.70345 0.0
H2046 H 0.85287 0.36917 0.67306 0.0
C2047 C 0.90348 0.4155 0.5879 0.0
C2048 C 0.89239 0.3885 0.65278 0.0
H2049 H 0.87275 0.36747 0.61764 0.0
C2050 C 0.89122 0.38667 0.70019 0.0
C2051 C 0.88569 0.38131 0.62279 0.0
C2052 C 0.88691 0.38221 0.57148 0.0
C2053 C 0.88339 0.37818 0.71825 0.0
C2054 C 0.87661 0.37109 0.68824 0.0
C2055 C 0.87784 0.37287 0.64086 0.0
C2056 C 0.86828 0.36177 0.70527 0.0
C2057 C 0.88221 0.37714 0.76951 0.0
C2058 C 0.87228 0.35244 0.73266 0.0
C2059 C 0.86445 0.34392 0.74958 0.0
C2060 C 0.85238 0.34434 0.7392 0.0
C2061 C 0.8484 0.35357 0.71106 0.0
C2062 C 0.85625 0.3621 0.69406 0.0
H2063 H 0.88539 0.38516 0.78723 0.0
H2064 H 0.87295 0.37554 0.77959 0.0
H2065 H 0.88757 0.36963 0.78163 0.0
H2066 H 0.8815 0.35174 0.74115 0.0
H2067 H 0.86784 0.33699 0.7712 0.0
H2068 H 0.35005 0.16497 0.28319 0.0
H2069 H 0.36464 0.15141 0.31519 0.0
H2070 H 0.34198 0.14504 0.43083 0.0
H2071 H 0.32726 0.15841 0.39809 0.0
H2072 H 0.37693 0.15156 0.39692 0.0
H2073 H 0.34888 0.11183 0.38692 0.0
H2074 H 0.34514 0.12537 0.35835 0.0
H2075 H 0.34244 0.12368 0.41864 0.0
C2076 C 0.34823 0.16071 0.31558 0.0
C2077 C 0.3376 0.16293 0.3385 0.0
C2078 C 0.35658 0.15296 0.3339 0.0
C2079 C 0.35444 0.14704 0.37532 0.0
C2080 C 0.34384 0.14933 0.39855 0.0
H2081 H 0.39236 0.09655 0.54247 0.0
H2082 H 0.37834 0.11007 0.5074 0.0
C2083 C 0.33549 0.15713 0.38023 0.0
C2084 C 0.36329 0.1385 0.39384 0.0
H2085 H 0.36703 0.1098 0.42577 0.0
C2086 C 0.37477 0.14241 0.40302 0.0
C2087 C 0.36056 0.12652 0.40174 0.0
C2088 C 0.34863 0.12153 0.39054 0.0
C2089 C 0.38343 0.13483 0.42093 0.0
C2090 C 0.38067 0.12285 0.42912 0.0
C2091 C 0.36922 0.11893 0.41958 0.0
C2092 C 0.38934 0.11438 0.4494 0.0
C2093 C 0.39534 0.13982 0.43231 0.0
C2094 C 0.40024 0.11204 0.42842 0.0
C2095 C 0.40834 0.10426 0.44865 0.0
C2096 C 0.40568 0.09854 0.49012 0.0
C2097 C 0.3947 0.10078 0.51053 0.0
C2098 C 0.38664 0.10851 0.49039 0.0
H2099 H 0.39512 0.14954 0.43533 0.0
H2100 H 0.39873 0.13611 0.46487 0.0
H2101 H 0.4016 0.13755 0.40459 0.0
H2102 H 0.40253 0.11627 0.39645 0.0
H2103 H 0.41679 0.10306 0.43253 0.0
H2104 H 0.59173 0.60496 0.02688 0.0
H2105 H 0.60591 0.61858 0.06062 0.0
H2106 H 0.60615 0.59799 0.18454 0.0
H2107 H 0.59252 0.58393 0.14949 0.0
H2108 H 0.60548 0.63278 0.13055 0.0
H2109 H 0.64058 0.60026 0.16273 0.0
H2110 H 0.62766 0.59676 0.12979 0.0
H2111 H 0.62713 0.59662 0.1914 0.0
C2112 C 0.59476 0.60338 0.06144 0.0
C2113 C 0.59071 0.5935 0.08584 0.0
C2114 C 0.60289 0.61118 0.08079 0.0
C2115 C 0.60731 0.60933 0.12511 0.0
C2116 C 0.60312 0.59957 0.14999 0.0
H2117 H 0.64288 0.66265 0.28841 0.0
H2118 H 0.62896 0.64915 0.25247 0.0
C2119 C 0.59506 0.59166 0.13035 0.0
C2120 C 0.61622 0.61768 0.14483 0.0
H2121 H 0.64346 0.6193 0.19434 0.0
C2122 C 0.61378 0.62979 0.14436 0.0
C2123 C 0.62723 0.61392 0.16222 0.0
C2124 C 0.63088 0.6012 0.16118 0.0
C2125 C 0.62184 0.63813 0.16131 0.0
C2126 C 0.63262 0.63432 0.18041 0.0
C2127 C 0.63518 0.62226 0.18015 0.0
C2128 C 0.64119 0.64271 0.2017 0.0
C2129 C 0.61881 0.65098 0.15776 0.0
C2130 C 0.65286 0.64351 0.18605 0.0
C2131 C 0.66089 0.65126 0.2068 0.0
C2132 C 0.65744 0.65835 0.24386 0.0
C2133 C 0.64579 0.65742 0.25964 0.0
C2134 C 0.63779 0.64974 0.23889 0.0
H2135 H 0.61216 0.65261 0.13067 0.0
H2136 H 0.61506 0.65399 0.19079 0.0
H2137 H 0.62672 0.65636 0.15021 0.0
H2138 H 0.65578 0.63809 0.1578 0.0
H2139 H 0.66986 0.65144 0.1947 0.0
H2140 H 0.14612 0.83909 0.78455 0.0
H2141 H 0.13216 0.85307 0.81726 0.0
H2142 H 0.15498 0.85789 0.93352 0.0
H2143 H 0.16927 0.84438 0.89927 0.0
H2144 H 0.11946 0.85333 0.89142 0.0
H2145 H 0.14963 0.89139 0.89946 0.0
H2146 H 0.15344 0.87797 0.87035 0.0
H2147 H 0.15493 0.87907 0.93155 0.0
C2148 C 0.14811 0.84309 0.81724 0.0
C2149 C 0.15867 0.84037 0.83982 0.0
C2150 C 0.14013 0.8511 0.83598 0.0
C2151 C 0.14249 0.85674 0.87776 0.0
C2152 C 0.15297 0.85389 0.90087 0.0
H2153 H 0.08905 0.89141 0.04252 0.0
H2154 H 0.10289 0.87787 0.00714 0.0
C2155 C 0.16103 0.84592 0.88183 0.0
C2156 C 0.1339 0.86546 0.89682 0.0
H2157 H 0.13119 0.89358 0.93704 0.0
C2158 C 0.12206 0.86213 0.90122 0.0
C2159 C 0.13713 0.8771 0.90882 0.0
C2160 C 0.14944 0.88165 0.90187 0.0
C2161 C 0.11348 0.86994 0.91786 0.0
C2162 C 0.1168 0.88138 0.93202 0.0
C2163 C 0.12859 0.88481 0.92677 0.0
C2164 C 0.10824 0.88978 0.95326 0.0
C2165 C 0.10086 0.86588 0.91905 0.0
C2166 C 0.10681 0.90125 0.93606 0.0
C2167 C 0.09895 0.90915 0.95689 0.0
C2168 C 0.0923 0.90574 0.99534 0.0
C2169 C 0.09387 0.8943 0.01259 0.0
C2170 C 0.10175 0.88648 0.99207 0.0
H2171 H 0.09923 0.85883 0.89354 0.0
H2172 H 0.09888 0.86222 0.9534 0.0
H2173 H 0.09472 0.87322 0.91216 0.0
H2174 H 0.11183 0.90413 0.90661 0.0
H2175 H 0.09841 0.91799 0.94366 0.0
H2176 H 0.9783 0.51045 0.17224 0.0
H2177 H 0.9723 0.49095 0.19619 0.0
H2178 H 0.95855 0.48473 0.05963 0.0
H2179 H 0.96383 0.50424 0.03849 0.0
H2180 H 0.95108 0.46785 0.09093 0.0
H2181 H 0.98042 0.46076 0.22534 0.0
H2182 H 0.96992 0.4726 0.22889 0.0
H2183 H 0.98508 0.47534 0.21219 0.0
C2184 C 0.97394 0.50478 0.14786 0.0
C2185 C 0.9719 0.50865 0.10305 0.0
C2186 C 0.97056 0.49345 0.16134 0.0
C2187 C 0.96536 0.48558 0.12987 0.0
C2188 C 0.96266 0.49003 0.08581 0.0
H2189 H 0.00202 0.48526 0.01148 0.0
H2190 H 0.98277 0.47805 0.03607 0.0
C2191 C 0.96592 0.50128 0.07276 0.0
C2192 C 0.96479 0.47248 0.13855 0.0
H2193 H 0.99096 0.4586 0.14523 0.0
C2194 C 0.95981 0.46573 0.10302 0.0
C2195 C 0.97459 0.46721 0.16004 0.0
C2196 C 0.97757 0.46915 0.20953 0.0
C2197 C 0.96749 0.45974 0.07343 0.0
C2198 C 0.97935 0.45865 0.08658 0.0
C2199 C 0.98224 0.46065 0.13262 0.0
C2200 C 0.98889 0.46058 0.05334 0.0
C2201 C 0.96348 0.45637 0.02623 0.0
C2202 C 0.99849 0.45294 0.0522 0.0
C2203 C 0.00936 0.457 0.03697 0.0
C2204 C 0.01083 0.46884 0.02406 0.0
C2205 C 1.00101 0.47611 0.0208 0.0
C2206 C 0.99003 0.47193 0.03464 0.0
H2207 H 0.95412 0.45363 0.02666 0.0
H2208 H 0.96429 0.4641 1.00329 0.0
H2209 H 0.96895 0.44916 0.01213 0.0
H2210 H 0.99785 0.44427 0.06731 0.0
H2211 H 0.01692 0.45131 0.04023 0.0
H2212 H 0.7596 0.75337 0.24783 0.0
H2213 H 0.76489 0.73335 0.26727 0.0
H2214 H 0.80161 0.74208 0.25322 0.0
H2215 H 0.79624 0.76212 0.23486 0.0
H2216 H 0.79676 0.73833 0.33927 0.0
H2217 H 0.77738 0.70064 0.25516 0.0
H2218 H 0.78266 0.71315 0.22261 0.0
H2219 H 0.76761 0.71247 0.24218 0.0
C2220 C 0.76874 0.75079 0.24587 0.0
C2221 C 0.77746 0.75929 0.23962 0.0
C2222 C 0.77183 0.73927 0.2567 0.0
C2223 C 0.78374 0.73614 0.26204 0.0
C2224 C 0.79241 0.74421 0.24898 0.0
H2225 H 0.73677 0.71219 0.39384 0.0
H2226 H 0.75705 0.70755 0.41243 0.0
C2227 C 0.78929 0.75572 0.23807 0.0
C2228 C 0.78657 0.72681 0.29569 0.0
H2229 H 0.76794 0.70593 0.3342 0.0
C2230 C 0.79089 0.73083 0.33807 0.0
C2231 C 0.78007 0.71626 0.2953 0.0
C2232 C 0.77683 0.71032 0.25108 0.0
C2233 C 0.78528 0.72733 0.37862 0.0
C2234 C 0.7754 0.71992 0.375 0.0
C2235 C 0.77469 0.71264 0.33613 0.0
C2236 C 0.76387 0.7244 0.39105 0.0
C2237 C 0.78801 0.73366 0.42252 0.0
C2238 C 0.76072 0.73589 0.37764 0.0
C2239 C 0.74913 0.7385 0.36638 0.0
C2240 C 0.7405 0.72981 0.36957 0.0
C2241 C 0.74327 0.7191 0.39124 0.0
C2242 C 0.7549 0.71642 0.40205 0.0
H2243 H 0.79765 0.73389 0.42807 0.0
H2244 H 0.78497 0.7429 0.42009 0.0
H2245 H 0.78368 0.72938 0.45226 0.0
H2246 H 0.76735 0.74231 0.36859 0.0
H2247 H 0.74718 0.74677 0.34973 0.0
H2248 H 0.5381 0.487 0.68643 0.0
H2249 H 0.53855 0.50791 0.68998 0.0
H2250 H 0.50366 0.50931 0.634 0.0
H2251 H 0.50276 0.48811 0.63316 0.0
H2252 H 0.53844 0.50673 0.59616 0.0
H2253 H 0.51039 0.54378 0.64807 0.0
H2254 H 0.51282 0.53128 0.68523 0.0
H2255 H 0.50166 0.53082 0.6415 0.0
C2256 C 0.53006 0.49148 0.67828 0.0
C2257 C 0.52067 0.48582 0.6558 0.0
C2258 C 0.53035 0.50369 0.68077 0.0
C2259 C 0.52162 0.51011 0.65822 0.0
C2260 C 0.51083 0.50453 0.6495 0.0
H2261 H 0.49591 0.51987 0.45573 0.0
H2262 H 0.51487 0.51343 0.48274 0.0
C2263 C 0.51036 0.49229 0.64836 0.0
C2264 C 0.52549 0.51877 0.62355 0.0
H2265 H 0.51426 0.54178 0.56465 0.0
C2266 C 0.5335 0.51472 0.59018 0.0
C2267 C 0.51918 0.52917 0.61535 0.0
C2268 C 0.51061 0.53404 0.6498 0.0
C2269 C 0.53385 0.51966 0.54635 0.0
C2270 C 0.52634 0.52908 0.53627 0.0
C2271 C 0.51992 0.53438 0.57202 0.0
C2272 C 0.52193 0.53104 0.4893 0.0
C2273 C 0.54121 0.51395 0.50976 0.0
C2274 C 0.5206 0.54267 0.47444 0.0
C2275 C 0.50965 0.54626 0.45822 0.0
C2276 C 0.50027 0.53823 0.45895 0.0
C2277 C 0.50295 0.52625 0.45746 0.0
C2278 C 0.5139 0.52258 0.47329 0.0
H2279 H 0.54901 0.50956 0.52475 0.0
H2280 H 0.5359 0.50715 0.49206 0.0
H2281 H 0.54413 0.52049 0.48393 0.0
H2282 H 0.52689 0.5493 0.48465 0.0
H2283 H 0.50785 0.55559 0.45678 0.0
H2284 H 0.74776 0.2402 0.69917 0.0
H2285 H 0.75919 0.25167 0.75294 0.0
H2286 H 0.76185 0.22169 0.84199 0.0
H2287 H 0.75013 0.21043 0.79021 0.0
H2288 H 0.74121 0.23663 0.85266 0.0
H2289 H 0.78238 0.26274 0.85458 0.0
H2290 H 0.77617 0.26057 0.79872 0.0
H2291 H 0.78159 0.24814 0.83018 0.0
C2292 C 0.75148 0.23579 0.72862 0.0
C2293 C 0.74718 0.22474 0.74205 0.0
C2294 C 0.75816 0.24236 0.75941 0.0
C2295 C 0.76061 0.23768 0.80286 0.0
C2296 C 0.7596 0.22556 0.80926 0.0
H2297 H 0.75718 0.29963 0.92463 0.0
H2298 H 0.75071 0.28135 0.95972 0.0
C2299 C 0.75273 0.21906 0.77905 0.0
C2300 C 0.75793 0.24528 0.84232 0.0
H2301 H 0.76504 0.27196 0.88484 0.0
C2302 C 0.74664 0.24413 0.86163 0.0
C2303 C 0.7649 0.25505 0.85349 0.0
C2304 C 0.77699 0.25668 0.83344 0.0
C2305 C 0.74158 0.25323 0.88693 0.0
C2306 C 0.74807 0.26362 0.89375 0.0
C2307 C 0.75998 0.26399 0.88009 0.0
C2308 C 0.74207 0.27507 0.89859 0.0
C2309 C 0.72889 0.25225 0.90104 0.0
C2310 C 0.73676 0.27893 0.8579 0.0
C2311 C 0.7415 0.28871 0.83591 0.0
C2312 C 0.75081 0.29482 0.85679 0.0
C2313 C 0.75184 0.29374 0.9047 0.0
C2314 C 0.74754 0.28359 0.92588 0.0
H2315 H 0.7266 0.24303 0.90975 0.0
H2316 H 0.7269 0.25799 0.93075 0.0
H2317 H 0.72323 0.25493 0.87196 0.0
H2318 H 0.73148 0.27297 0.83758 0.0
H2319 H 0.7394 0.29005 0.80015 0.0
H2320 H 0.00396 0.50396 0.39425 0.0
H2321 H 0.00531 0.51319 0.47224 0.0
H2322 H 0.98846 0.46988 0.46382 0.0
H2323 H 0.96915 0.49939 0.42495 0.0
H2324 H 0.99811 0.52485 0.52883 0.0
H2325 H 0.97268 0.49621 0.62189 0.0
H2326 H 0.97927 0.48431 0.59288 0.0
H2327 H 0.97086 0.49525 0.56098 0.0
C2328 C 0.9969 0.50306 0.4188 0.0
C2329 C 0.98735 0.49534 0.41147 0.0
C2330 C 0.99787 0.50768 0.46391 0.0
C2331 C 0.98911 0.50375 0.49733 0.0
C2332 C 0.98109 0.49415 0.4809 0.0
H2333 H 0.02966 0.47569 0.64602 0.0
H2334 H 0.01004 0.48521 0.64793 0.0
C2335 C 0.97804 0.49966 0.43801 0.0
C2336 C 0.99081 0.50775 0.54598 0.0
H2337 H 0.99429 0.49561 0.65109 0.0
C2338 C 0.99779 0.51783 0.5539 0.0
C2339 C 0.98813 0.50089 0.58483 0.0
C2340 C 0.9771 0.49375 0.58943 0.0
C2341 C 0.00544 0.51828 0.59152 0.0
C2342 C 0.00612 0.50837 0.62014 0.0
C2343 C 0.99585 0.50138 0.62224 0.0
C2344 C 0.01761 0.50341 0.63742 0.0
C2345 C 0.01203 0.52942 0.60105 0.0
C2346 C 0.02961 0.50861 0.62851 0.0
C2347 C 0.03577 0.50305 0.66574 0.0
C2348 C 0.03864 0.49263 0.64256 0.0
C2349 C 0.02886 0.48515 0.64782 0.0
C2350 C 0.01773 0.49074 0.64655 0.0
H2351 H 0.00551 0.5365 0.60654 0.0
H2352 H 0.01762 0.52882 0.63202 0.0
H2353 H 0.01727 0.53204 0.57069 0.0
H2354 H 0.04269 0.50533 0.54277 0.0
H2355 H 0.04247 0.5078 0.68456 0.0
H2356 H 0.75261 0.70248 0.73075 0.0
H2357 H 0.73281 0.69631 0.74963 0.0
H2358 H 0.72282 0.73272 0.76391 0.0
H2359 H 0.74252 0.73873 0.74461 0.0
H2360 H 0.72987 0.69966 0.83436 0.0
H2361 H 0.69063 0.72042 0.775 0.0
H2362 H 0.70121 0.71463 0.73455 0.0
H2363 H 0.70162 0.72991 0.75155 0.0
C2364 C 0.74596 0.70918 0.7345 0.0
C2365 C 0.74911 0.72113 0.73701 0.0
C2366 C 0.73456 0.7056 0.74548 0.0
C2367 C 0.72628 0.71392 0.75991 0.0
C2368 C 0.7289 0.72595 0.75341 0.0
H2369 H 0.7455 0.74904 0.83751 0.0
H2370 H 0.73891 0.72941 0.85622 0.0
C2371 C 0.74028 0.7295 0.74259 0.0
C2372 C 0.71782 0.71076 0.79688 0.0
H2373 H 0.70123 0.732 0.84422 0.0
C2374 C 0.72319 0.70639 0.83686 0.0
C2375 C 0.70788 0.71794 0.803 0.0
C2376 C 0.69991 0.72081 0.76352 0.0
C2377 C 0.72266 0.71309 0.87711 0.0
C2378 C 0.71625 0.72368 0.87602 0.0
C2379 C 0.7072 0.7246 0.84335 0.0
C2380 C 0.72238 0.73487 0.88692 0.0
C2381 C 0.73085 0.71028 0.91599 0.0
C2382 C 0.71587 0.74467 0.90095 0.0
C2383 C 0.7197 0.75597 0.88971 0.0
C2384 C 0.73014 0.75764 0.86454 0.0
C2385 C 0.73746 0.74799 0.85692 0.0
C2386 C 0.73366 0.73671 0.8682 0.0
H2387 H 0.72998 0.70088 0.92548 0.0
H2388 H 0.74006 0.71169 0.90485 0.0
H2389 H 0.72904 0.71582 0.94645 0.0
H2390 H 0.70717 0.74354 0.91531 0.0
H2391 H 0.71377 0.76318 0.89583 0.0
H2392 H 0.49451 0.45803 0.13912 0.0
H2393 H 0.51458 0.45143 0.14343 0.0
H2394 H 0.52623 0.48624 0.10549 0.0
H2395 H 0.50616 0.49284 0.10296 0.0
H2396 H 0.52175 0.44971 0.06241 0.0
H2397 H 0.55789 0.47427 0.13004 0.0
H2398 H 0.54524 0.47104 0.16559 0.0
H2399 H 0.54629 0.48475 0.13447 0.0
C2400 C 0.50133 0.46454 0.13539 0.0
C2401 C 0.49873 0.47598 0.1199 0.0
C2402 C 0.51294 0.46069 0.13769 0.0
C2403 C 0.52205 0.4681 0.12311 0.0
C2404 C 0.51953 0.48013 0.11663 0.0
H2405 H 0.50856 0.49715 0.99936 0.0
H2406 H 0.51511 0.47701 1.00436 0.0
C2407 C 0.50794 0.484 0.11471 0.0
C2408 C 0.53206 0.46301 0.09702 0.0
H2409 H 0.55148 0.48096 0.04504 0.0
C2410 C 0.52866 0.45622 0.05893 0.0
C2411 C 0.54235 0.46981 0.09221 0.0
C2412 C 0.54823 0.47521 0.13321 0.0
C2413 C 0.53147 0.4602 0.0148 0.0
C2414 C 0.5381 0.47063 0.01083 0.0
C2415 C 0.54532 0.47374 0.04815 0.0
C2416 C 0.53318 0.48066 0.98453 0.0
C2417 C 0.52538 0.45488 0.97407 0.0
C2418 C 0.54073 0.48942 0.96791 0.0
C2419 C 0.53692 0.50105 0.96587 0.0
C2420 C 0.52545 0.50407 0.97953 0.0
C2421 C 0.51741 0.49505 0.98854 0.0
C2422 C 0.52122 0.48344 0.99093 0.0
H2423 H 0.52646 0.44519 0.97464 0.0
H2424 H 0.51582 0.4567 0.97596 0.0
H2425 H 0.5289 0.45841 0.94136 0.0
H2426 H 0.54996 0.48757 0.96276 0.0
H2427 H 0.54346 0.50772 0.95978 0.0
H2428 H 0.76436 0.26001 0.35473 0.0
H2429 H 0.77282 0.27907 0.36975 0.0
H2430 H 0.80638 0.26286 0.3975 0.0
H2431 H 0.79773 0.24376 0.38211 0.0
H2432 H 0.78617 0.29581 0.40645 0.0
H2433 H 0.81858 0.27455 0.35365 0.0
H2434 H 0.81951 0.27832 0.29368 0.0
H2435 H 0.81057 0.26616 0.31123 0.0
C2436 C 0.77338 0.26053 0.36616 0.0
C2437 C 0.78042 0.25052 0.36606 0.0
C2438 C 0.77836 0.27148 0.37497 0.0
C2439 C 0.79061 0.27263 0.38218 0.0
C2440 C 0.7971 0.26238 0.39008 0.0
H2441 H 0.75088 0.29953 0.23325 0.0
H2442 H 0.77075 0.3068 0.24292 0.0
C2443 C 0.79208 0.25139 0.38167 0.0
C2444 C 0.79659 0.28373 0.36743 0.0
H2445 H 0.80152 0.28562 0.25353 0.0
C2446 C 0.78996 0.29399 0.37315 0.0
C2447 C 0.80315 0.28305 0.32625 0.0
C2448 C 0.81358 0.27509 0.32114 0.0
C2449 C 0.78495 0.29923 0.33413 0.0
C2450 C 0.78773 0.2944 0.29056 0.0
C2451 C 0.79837 0.28829 0.28696 0.0
C2452 C 0.77787 0.28992 0.26205 0.0
C2453 C 0.77511 0.30788 0.34072 0.0
C2454 C 0.77558 0.27773 0.26286 0.0
C2455 C 0.76421 0.2735 0.25627 0.0
C2456 C 0.75505 0.28134 0.24783 0.0
C2457 C 0.75776 0.29322 0.23911 0.0
C2458 C 0.76915 0.29746 0.24556 0.0
H2459 H 0.76655 0.30324 0.3387 0.0
H2460 H 0.77563 0.31221 0.37472 0.0
H2461 H 0.7754 0.31475 0.31382 0.0
H2462 H 0.78217 0.27157 0.27449 0.0
H2463 H 0.76234 0.26434 0.26301 0.0
H2464 H 0.29799 0.25832 0.71638 0.0
H2465 H 0.30148 0.23733 0.71397 0.0
H2466 H 0.2643 0.23128 0.73144 0.0
H2467 H 0.26088 0.25224 0.73259 0.0
H2468 H 0.29809 0.2291 0.79465 0.0
H2469 H 0.27243 0.19878 0.69402 0.0
H2470 H 0.27901 0.2117 0.66828 0.0
H2471 H 0.26421 0.21211 0.69063 0.0
C2472 C 0.29047 0.25253 0.71609 0.0
C2473 C 0.27912 0.25688 0.72475 0.0
C2474 C 0.29251 0.24045 0.71484 0.0
C2475 C 0.28325 0.23259 0.72315 0.0
C2476 C 0.27168 0.237 0.72445 0.0
H2477 H 0.2484 0.24246 0.84958 0.0
H2478 H 0.26843 0.23551 0.8423 0.0
C2479 C 0.26966 0.24906 0.72566 0.0
C2480 C 0.28561 0.2214 0.74757 0.0
H2481 H 0.26408 0.20252 0.77753 0.0
C2482 C 0.29103 0.22279 0.79054 0.0
C2483 C 0.27759 0.21205 0.74247 0.0
C2484 C 0.27314 0.2085 0.696 0.0
C2485 C 0.28528 0.21873 0.82994 0.0
C2486 C 0.27441 0.21295 0.82463 0.0
C2487 C 0.27189 0.20786 0.7818 0.0
C2488 C 0.26409 0.21704 0.8511 0.0
C2489 C 0.28951 0.22269 0.87622 0.0
C2490 C 0.25502 0.20917 0.8616 0.0
C2491 C 0.2435 0.21323 0.86524 0.0
C2492 C 0.24092 0.22524 0.85903 0.0
C2493 C 0.25019 0.23323 0.8551 0.0
C2494 C 0.2617 0.22919 0.85133 0.0
H2495 H 0.29915 0.22142 0.87891 0.0
H2496 H 0.28777 0.23222 0.88037 0.0
H2497 H 0.28506 0.21781 0.90427 0.0
H2498 H 0.25659 0.1998 0.86111 0.0
H2499 H 0.23655 0.20676 0.8668 0.0
H2500 H 0.23776 0.75049 0.25912 0.0
H2501 H 0.23244 0.77069 0.27549 0.0
H2502 H 0.19571 0.76128 0.27212 0.0
H2503 H 0.20114 0.74106 0.25555 0.0
H2504 H 0.20224 0.76682 0.35661 0.0
H2505 H 0.21901 0.8029 0.25437 0.0
H2506 H 0.21285 0.78984 0.22814 0.0
H2507 H 0.22834 0.79074 0.24117 0.0
C2508 C 0.22858 0.75293 0.25887 0.0
C2509 C 0.21991 0.74428 0.2559 0.0
C2510 C 0.22545 0.76453 0.26794 0.0
C2511 C 0.21359 0.76758 0.27511 0.0
C2512 C 0.20487 0.75921 0.26621 0.0
H2513 H 0.26268 0.79535 0.38989 0.0
H2514 H 0.24232 0.80008 0.40594 0.0
C2515 C 0.20801 0.74763 0.25658 0.0
C2516 C 0.21112 0.77756 0.30615 0.0
H2517 H 0.23031 0.79925 0.33073 0.0
C2518 C 0.2079 0.77435 0.351 0.0
C2519 C 0.21735 0.78814 0.30008 0.0
C2520 C 0.21941 0.79317 0.25311 0.0
C2521 C 0.21441 0.77869 0.38807 0.0
C2522 C 0.22399 0.78617 0.37854 0.0
C2523 C 0.22372 0.79258 0.33732 0.0
C2524 C 0.23591 0.78251 0.39321 0.0
C2525 C 0.21283 0.77328 0.43466 0.0
C2526 C 0.2393 0.77081 0.38436 0.0
C2527 C 0.25099 0.76809 0.37513 0.0
C2528 C 0.2595 0.77693 0.37541 0.0
C2529 C 0.25638 0.78825 0.3905 0.0
C2530 C 0.24467 0.79101 0.39966 0.0
H2531 H 0.20335 0.77296 0.4436 0.0
H2532 H 0.21607 0.76409 0.43422 0.0
H2533 H 0.21766 0.77827 0.46132 0.0
H2534 H 0.2328 0.76404 0.37827 0.0
H2535 H 0.25319 0.75936 0.36328 0.0
H2536 H 0.28696 0.25618 0.17892 0.0
H2537 H 0.30529 0.24739 0.29942 0.0
H2538 H 0.2699 0.27835 0.28991 0.0
H2539 H 0.29004 0.28508 0.25955 0.0
H2540 H 0.26269 0.25821 0.34973 0.0
H2541 H 0.25106 0.25296 0.16578 0.0
H2542 H 0.26489 0.24745 0.18623 0.0
H2543 H 0.26236 0.26303 0.18354 0.0
C2544 C 0.28568 0.25974 0.2129 0.0
C2545 C 0.29377 0.26746 0.23255 0.0
C2546 C 0.2832 0.25231 0.25189 0.0
C2547 C 0.27367 0.2598 0.2706 0.0
C2548 C 0.27608 0.27225 0.27488 0.0
H2549 H 0.21779 0.23664 0.39135 0.0
H2550 H 0.19361 0.26014 0.34018 0.0
C2551 C 0.2869 0.27619 0.25509 0.0
C2552 C 0.26145 0.25586 0.27719 0.0
H2553 H 0.23602 0.25172 0.21858 0.0
C2554 C 0.25681 0.25634 0.32146 0.0
C2555 C 0.25382 0.25423 0.23973 0.0
C2556 C 0.2582 0.25442 0.19101 0.0
C2557 C 0.24476 0.25476 0.32985 0.0
C2558 C 0.23707 0.25247 0.29234 0.0
C2559 C 0.24179 0.25274 0.24776 0.0
C2560 C 0.2246 0.2484 0.29743 0.0
C2561 C 0.24068 0.25567 0.37889 0.0
C2562 C 0.22054 0.23877 0.26862 0.0
C2563 C 0.21115 0.23177 0.28678 0.0
C2564 C 0.20711 0.23488 0.33136 0.0
C2565 C 0.21707 0.23857 0.35509 0.0
C2566 C 0.21742 0.25057 0.3385 0.0
H2567 H 0.23743 0.24702 0.39087 0.0
H2568 H 0.24784 0.25838 0.40244 0.0
H2569 H 0.2336 0.26229 0.38193 0.0
H2570 H 0.22477 0.23618 0.2371 0.0
H2571 H 0.20693 0.22499 0.26678 0.0
H2572 H 0.26378 0.75866 0.83727 0.0
H2573 H 0.26961 0.77851 0.81894 0.0
H2574 H 0.30612 0.76861 0.82892 0.0
H2575 H 0.30015 0.74864 0.84639 0.0
H2576 H 0.30231 0.77303 0.74545 0.0
H2577 H 0.28186 0.8109 0.81946 0.0
H2578 H 0.28748 0.79926 0.85568 0.0
H2579 H 0.27225 0.79942 0.83803 0.0
C2580 C 0.27302 0.76093 0.83848 0.0
C2581 C 0.28145 0.75211 0.84296 0.0
C2582 C 0.27645 0.77238 0.82828 0.0
C2583 C 0.28843 0.77516 0.82156 0.0
C2584 C 0.29687 0.76676 0.83372 0.0
H2585 H 0.23921 0.79114 0.68982 0.0
H2586 H 0.25889 0.79813 0.67251 0.0
C2587 C 0.29341 0.75528 0.84398 0.0
C2588 C 0.29139 0.78433 0.78709 0.0
H2589 H 0.27052 0.80241 0.74574 0.0
C2590 C 0.29574 0.77991 0.74537 0.0
C2591 C 0.28429 0.79445 0.7848 0.0
C2592 C 0.28139 0.80136 0.82714 0.0
C2593 C 0.28927 0.78175 0.70515 0.0
C2594 C 0.27874 0.7882 0.70846 0.0
C2595 C 0.27784 0.79635 0.74455 0.0
C2596 C 0.26753 0.78236 0.69567 0.0
C2597 C 0.29209 0.77468 0.66311 0.0
C2598 C 0.26569 0.77071 0.7107 0.0
C2599 C 0.25442 0.76668 0.72071 0.0
C2600 C 0.24478 0.77413 0.71541 0.0
C2601 C 0.24644 0.7851 0.69385 0.0
C2602 C 0.25774 0.78915 0.68389 0.0
H2603 H 0.30162 0.77531 0.65537 0.0
H2604 H 0.29007 0.76529 0.66961 0.0
H2605 H 0.28696 0.77772 0.63304 0.0
H2606 H 0.27298 0.76521 0.72096 0.0
H2607 H 0.25336 0.75826 0.73745 0.0
H2608 H 0.45883 0.98833 0.58144 0.0
H2609 H 0.47777 0.97993 0.59736 0.0
H2610 H 0.48269 0.0041 0.70799 0.0
H2611 H 0.46371 0.01243 0.69343 0.0
H2612 H 0.48468 0.01549 0.62149 0.0
H2613 H 0.51206 0.97547 0.61604 0.0
H2614 H 0.49775 0.97259 0.59354 0.0
H2615 H 0.49936 0.97648 0.65301 0.0
C2616 C 0.46366 0.99163 0.61064 0.0
C2617 C 0.46095 0.00265 0.62971 0.0
C2618 C 0.47455 0.98664 0.62041 0.0
C2619 C 0.48234 0.993 0.64821 0.0
C2620 C 0.47725 1.00015 0.68178 0.0
H2621 H 0.54213 1.00142 0.51174 0.0
H2622 H 0.52987 0.01427 0.55484 0.0
C2623 C 0.46645 0.00536 0.67174 0.0
C2624 C 0.49247 0.99806 0.62303 0.0
H2625 H 0.51509 0.98983 0.55458 0.0
C2626 C 0.4916 0.00991 0.60842 0.0
C2627 C 0.50131 0.99088 0.60438 0.0
C2628 C 0.50271 0.97818 0.61793 0.0
C2629 C 0.49881 0.01445 0.57387 0.0
C2630 C 0.50724 0.00709 0.55423 0.0
C2631 C 0.50859 0.9955 0.57027 0.0
C2632 C 0.51443 0.01067 0.5148 0.0
C2633 C 0.49699 0.02679 0.55664 0.0
C2634 C 0.51038 0.00695 0.47186 0.0
C2635 C 0.51765 0.99988 0.44508 0.0
C2636 C 0.52863 0.99648 0.46261 0.0
C2637 C 0.53366 0.00346 0.49727 0.0
C2638 C 0.52653 0.01091 0.52268 0.0
H2639 H 0.49058 0.03173 0.57782 0.0
H2640 H 0.50548 0.03159 0.55628 0.0
H2641 H 0.49372 0.02648 0.52086 0.0
H2642 H 0.50109 0.00717 0.46402 0.0
H2643 H 0.51376 0.99502 0.41705 0.0
H2644 H 0.04832 0.9957 0.13298 0.0
H2645 H 0.05245 0.01651 0.13116 0.0
H2646 H 0.01594 0.02329 0.10211 0.0
H2647 H 0.0118 0.00249 0.10529 0.0
H2648 H 0.05012 0.02069 0.04429 0.0
H2649 H 0.02579 0.05646 0.12034 0.0
H2650 H 0.03068 0.04413 0.15462 0.0
H2651 H 0.01637 0.04404 0.12784 0.0
C2652 C 0.04097 1.00163 0.13001 0.0
C2653 C 0.02972 0.99746 0.11816 0.0
C2654 C 0.04339 0.01365 0.12891 0.0
C2655 C 0.03467 0.02151 0.11466 0.0
C2656 C 0.02296 0.0175 0.11277 0.0
H2657 H 0.99973 0.01127 0.98416 0.0
H2658 H 0.0205 0.01565 0.98796 0.0
C2659 C 0.02053 0.00551 0.11406 0.0
C2660 C 0.03791 0.03126 0.08332 0.0
H2661 H 0.01895 0.05071 0.03735 0.0
C2662 C 0.0437 0.0277 0.04299 0.0
C2663 C 0.03065 0.04124 0.08102 0.0
C2664 C 0.02568 0.04675 0.12364 0.0
C2665 C 0.03901 0.03073 1.00025 0.0
C2666 C 0.02886 0.03779 0.99916 0.0
C2667 C 0.02618 0.04454 0.03822 0.0
C2668 C 0.01864 0.03416 0.97107 0.0
C2669 C 0.04348 0.02462 0.95801 0.0
C2670 C 0.01072 0.04269 0.95578 0.0
C2671 C 0.99873 0.04016 0.95461 0.0
C2672 C 0.99458 0.02898 0.9676 0.0
C2673 C 0.00271 0.01993 0.97414 0.0
C2674 C 0.01468 0.02248 0.97578 0.0
H2675 H 0.05322 0.02491 0.95723 0.0
H2676 H 0.04087 0.01523 0.95903 0.0
H2677 H 0.03996 0.02868 0.92627 0.0
H2678 H 0.01353 0.05173 0.95186 0.0
H2679 H 0.99278 0.04743 0.95029 0.0
H2680 H 0.45086 1.00123 0.98317 0.0
H2681 H 0.4452 0.02147 0.99668 0.0
H2682 H 0.48191 0.03115 1.00117 0.0
H2683 H 0.48737 0.01103 0.98718 0.0
H2684 H 0.44879 0.02704 0.07805 0.0
H2685 H 0.47085 0.0637 1.00412 0.0
H2686 H 0.4643 0.05263 0.96762 0.0
H2687 H 0.47972 0.05203 0.98243 0.0
C2688 C 0.45768 0.00785 0.98367 0.0
C2689 C 0.4696 0.0046 0.98459 0.0
C2690 C 0.4544 0.01949 0.9916 0.0
C2691 C 0.46301 0.02795 1.00156 0.0
C2692 C 0.47491 0.02498 0.99405 0.0
H2693 H 0.51413 0.03918 0.1248 0.0
H2694 H 0.49535 0.04804 0.14189 0.0
C2695 C 0.47816 0.01337 0.98628 0.0
C2696 C 0.46033 0.03744 0.03515 0.0
H2697 H 0.48317 0.05341 0.07358 0.0
C2698 C 0.45603 0.03322 0.07735 0.0
C2699 C 0.46808 0.04709 0.03726 0.0
C2700 C 0.47081 0.05423 0.99523 0.0
C2701 C 0.46328 0.034 0.11609 0.0
C2702 C 0.47428 0.03956 0.11113 0.0
C2703 C 0.47539 0.04795 0.07584 0.0
C2704 C 0.48513 0.03288 0.12215 0.0
C2705 C 0.46034 0.0269 0.15805 0.0
C2706 C 0.48583 0.02102 0.10814 0.0
C2707 C 0.49667 0.01592 0.09818 0.0
C2708 C 0.50698 0.02249 0.1026 0.0
C2709 C 0.50637 0.03375 0.12234 0.0
C2710 C 0.49555 0.03889 0.13209 0.0
H2711 H 0.4512 0.0288 0.16898 0.0
H2712 H 0.46076 0.01739 0.14986 0.0
H2713 H 0.46645 0.02885 0.18669 0.0
H2714 H 0.47803 0.01613 0.09898 0.0
H2715 H 0.49691 0.00733 0.08238 0.0
H2716 H 0.00241 0.99578 0.58682 0.0
H2717 H 0.02204 0.98816 0.59614 0.0
H2718 H 0.00786 0.95528 0.64537 0.0
H2719 H 0.98821 0.96294 0.63488 0.0
H2720 H 0.01642 0.95137 0.56624 0.0
H2721 H 0.05219 0.97538 0.64127 0.0
H2722 H 0.03832 0.97397 0.6713 0.0
H2723 H 0.04128 0.98653 0.63506 0.0
C2724 C 0.00352 0.98724 0.60252 0.0
C2725 C 0.99379 0.97996 0.6095 0.0
C2726 C 0.01483 0.9828 0.60832 0.0
C2727 C 0.01655 0.97092 0.62054 0.0
C2728 C 0.00683 0.9644 0.63565 0.0
H2729 H 0.04463 0.00549 0.46484 0.0
H2730 H 0.04992 0.98498 0.46883 0.0
C2731 C 0.99552 0.96886 0.62978 0.0
C2732 C 0.02679 0.96471 0.60036 0.0
H2733 H 0.04945 0.97919 0.5518 0.0
C2734 C 0.024 0.95711 0.56385 0.0
C2735 C 0.03767 0.97061 0.59812 0.0
C2736 C 0.04258 0.97693 0.63907 0.0
C2737 C 0.02875 0.95936 0.52038 0.0
C2738 C 0.03624 0.96915 0.5155 0.0
C2739 C 0.04253 0.97269 0.55471 0.0
C2740 C 0.03242 0.979 0.48544 0.0
C2741 C 0.02371 0.95324 0.47925 0.0
C2742 C 0.0205 0.9824 0.48731 0.0
C2743 C 0.01742 0.99422 0.48453 0.0
C2744 C 0.02612 0.00277 0.47901 0.0
C2745 C 0.03764 0.99916 0.46843 0.0
C2746 C 0.04072 0.98732 0.47096 0.0
H2747 H 0.02417 0.94359 0.48433 0.0
H2748 H 0.01429 0.95555 0.4754 0.0
H2749 H 0.02848 0.95566 0.44743 0.0
H2750 H 0.01375 0.97632 0.4983 0.0
H2751 H 0.00851 0.99679 0.49265 0.0
H2752 H 0.05387 0.42343 0.89704 0.0
H2753 H 0.04163 0.41984 0.8291 0.0
H2754 H 0.01173 0.43434 0.89999 0.0
H2755 H 0.02353 0.4367 0.96843 0.0
H2756 H 0.0038 0.41948 0.84645 0.0
H2757 H 0.03555 0.44546 0.74338 0.0
H2758 H 0.0414 0.4319 0.76431 0.0
H2759 H 0.03739 0.44334 0.80393 0.0
C2760 C 0.04459 0.42543 0.89843 0.0
C2761 C 0.03973 0.43067 0.93762 0.0
C2762 C 0.03762 0.42364 0.85921 0.0
C2763 C 0.02581 0.42737 0.85819 0.0
C2764 C 0.02081 0.43154 0.899 0.0
H2765 H 0.98865 0.4597 0.63859 0.0
H2766 H 1.00137 0.45335 0.70068 0.0
C2767 C 0.02762 0.433 0.93824 0.0
C2768 C 0.01873 0.42783 0.81487 0.0
H2769 H 0.01834 0.43946 0.70686 0.0
C2770 C 0.00702 0.42384 0.81589 0.0
C2771 C 0.0228 0.43359 0.77474 0.0
C2772 C 0.03492 0.43892 0.7715 0.0
C2773 C 0.99917 0.42598 0.77957 0.0
C2774 C 0.00326 0.43171 0.73948 0.0
C2775 C 0.01513 0.4351 0.73742 0.0
C2776 C 0.99529 0.4353 0.70106 0.0
C2777 C 0.98643 0.42273 0.7861 0.0
C2778 C 0.98752 0.42735 0.67982 0.0
C2779 C 0.97992 0.4311 0.64486 0.0
C2780 C 0.98022 0.44278 0.62924 0.0
C2781 C 0.98822 0.45062 0.64954 0.0
C2782 C 0.99555 0.44696 0.68516 0.0
H2783 H 0.98418 0.42161 0.82287 0.0
H2784 H 0.98054 0.42951 0.77145 0.0
H2785 H 0.98465 0.41425 0.76873 0.0
H2786 H 0.98735 0.41822 0.69005 0.0
H2787 H 0.97393 0.42483 0.62961 0.0
H2788 H 0.79666 0.73339 0.89201 0.0
H2789 H 0.80306 0.74688 0.95133 0.0
H2790 H 0.83798 0.7324 0.94523 0.0
H2791 H 0.83144 0.71841 0.88632 0.0
H2792 H 0.8322 0.73614 0.03107 0.0
H2793 H 0.82125 0.77641 0.93674 0.0
H2794 H 0.80848 0.76727 0.93963 0.0
H2795 H 0.82134 0.76221 0.90948 0.0
C2796 C 0.80574 0.73307 0.90297 0.0
C2797 C 0.81357 0.72488 0.8839 0.0
C2798 C 0.80942 0.7409 0.93676 0.0
C2799 C 0.82112 0.741 0.95185 0.0
C2800 C 0.82895 0.73265 0.93374 0.0
H2801 H 0.82944 0.8009 0.1397 0.0
H2802 H 0.83494 0.78783 0.07607 0.0
C2803 C 0.8252 0.72464 0.9001 0.0
C2804 C 0.82484 0.74956 0.98779 0.0
H2805 H 0.82122 0.77816 0.01985 0.0
C2806 C 0.83002 0.74538 0.02823 0.0
C2807 C 0.82246 0.76174 0.9839 0.0
C2808 C 0.81822 0.76717 0.93981 0.0
C2809 C 0.83194 0.75281 0.066 0.0
C2810 C 0.82816 0.76468 0.06403 0.0
C2811 C 0.82392 0.76905 0.02221 0.0
C2812 C 0.82709 0.77222 0.10576 0.0
C2813 C 0.83789 0.74776 0.10769 0.0
C2814 C 0.8212 0.76784 0.14437 0.0
C2815 C 0.81837 0.77519 0.1808 0.0
C2816 C 0.82094 0.78725 0.17923 0.0
C2817 C 0.82739 0.79163 0.14196 0.0
C2818 C 0.83043 0.78417 0.10544 0.0
H2819 H 0.84464 0.74124 0.09754 0.0
H2820 H 0.84215 0.75467 0.12874 0.0
H2821 H 0.8313 0.74306 0.12891 0.0
H2822 H 0.81813 0.75884 0.14546 0.0
H2823 H 0.81355 0.77153 0.2094 0.0
H2824 H 0.54022 0.57445 0.17778 0.0
H2825 H 0.5263 0.58039 0.23811 0.0
H2826 H 0.49736 0.57266 0.14795 0.0
H2827 H 0.5111 0.56632 0.08886 0.0
H2828 H 0.50781 0.59639 0.24781 0.0
H2829 H 0.49093 0.55077 0.25385 0.0
H2830 H 0.50405 0.55471 0.22288 0.0
H2831 H 0.48982 0.55713 0.19788 0.0
C2832 C 0.53089 0.57422 0.17076 0.0
C2833 C 0.52672 0.56977 0.12892 0.0
C2834 C 0.52294 0.57759 0.20521 0.0
C2835 C 0.51075 0.57666 0.19806 0.0
C2836 C 0.50668 0.57311 0.15489 0.0
H2837 H 0.4492 0.57649 0.37416 0.0
H2838 H 0.46167 0.57996 0.30687 0.0
C2839 C 0.51456 0.56956 0.12101 0.0
C2840 C 0.50221 0.57858 0.2361 0.0
H2841 H 0.48017 0.56495 0.29534 0.0
C2842 C 0.50177 0.58952 0.25825 0.0
C2843 C 0.49437 0.56959 0.25013 0.0
C2844 C 0.49487 0.55736 0.23031 0.0
C2845 C 0.49353 0.59177 0.29324 0.0
C2846 C 0.48556 0.58283 0.30657 0.0
C2847 C 0.48607 0.5719 0.2845 0.0
C2848 C 0.4773 0.58406 0.34593 0.0
C2849 C 0.49336 0.60373 0.31531 0.0
C2850 C 0.48174 0.58575 0.39022 0.0
C2851 C 0.47459 0.58388 0.42846 0.0
C2852 C 0.46285 0.5803 0.4233 0.0
C2853 C 0.4581 0.5796 0.3791 0.0
C2854 C 0.46529 0.58143 0.34067 0.0
H2855 H 0.4972 0.61052 0.29243 0.0
H2856 H 0.48429 0.60637 0.32462 0.0
H2857 H 0.4987 0.60347 0.34705 0.0
H2858 H 0.49099 0.58749 0.39545 0.0
H2859 H 0.47855 0.58415 0.46218 0.0
H2860 H 0.66743 0.2052 0.63968 0.0
H2861 H 0.66192 0.21822 0.57569 0.0
H2862 H 0.68109 0.24662 0.63876 0.0
H2863 H 0.68601 0.23402 0.70265 0.0
H2864 H 0.66322 0.25539 0.59565 0.0
H2865 H 0.68565 0.22409 0.47842 0.0
H2866 H 0.67274 0.21868 0.50669 0.0
H2867 H 0.68568 0.22205 0.5395 0.0
C2868 C 0.67011 0.21433 0.64037 0.0
C2869 C 0.67733 0.21852 0.67581 0.0
C2870 C 0.66712 0.22173 0.60347 0.0
C2871 C 0.67143 0.23336 0.60136 0.0
C2872 C 0.67772 0.23772 0.63893 0.0
H2873 H 0.70485 0.27265 0.40083 0.0
H2874 H 0.69681 0.25961 0.45856 0.0
C2875 C 0.68059 0.23044 0.67556 0.0
C2876 C 0.6707 0.2408 0.55913 0.0
H2877 H 0.68132 0.24261 0.44986 0.0
C2878 C 0.667 0.25255 0.56346 0.0
C2879 C 0.67565 0.23714 0.51697 0.0
C2880 C 0.68024 0.22485 0.50993 0.0
C2881 C 0.66896 0.26088 0.52854 0.0
C2882 C 0.67443 0.25732 0.4873 0.0
C2883 C 0.67721 0.24538 0.48155 0.0
C2884 C 0.67895 0.26587 0.45251 0.0
C2885 C 0.66593 0.27356 0.53754 0.0
C2886 C 0.67167 0.27401 0.42982 0.0
C2887 C 0.67636 0.28175 0.3968 0.0
C2888 C 0.68836 0.2813 0.3853 0.0
C2889 C 0.69555 0.2732 0.40835 0.0
C2890 C 0.69094 0.26567 0.44148 0.0
H2891 H 0.6639 0.27519 0.57418 0.0
H2892 H 0.67327 0.27942 0.52719 0.0
H2893 H 0.65809 0.27598 0.51714 0.0
H2894 H 0.66236 0.27426 0.43697 0.0
H2895 H 0.67058 0.28784 0.37951 0.0
H2896 H 0.98762 0.57365 0.99792 0.0
H2897 H 1.00072 0.57685 0.9328 0.0
H2898 H 0.97079 0.57774 0.84233 0.0
H2899 H 0.95767 0.57527 0.90795 0.0
H2900 H 0.00346 0.56145 0.87095 0.0
H2901 H 0.99009 0.60188 0.78057 0.0
H2902 H 0.98503 0.59851 0.83764 0.0
H2903 H 0.97784 0.59221 0.78845 0.0
C2904 C 0.98383 0.57503 0.96433 0.0
C2905 C 0.97164 0.57429 0.95797 0.0
C2906 C 0.99132 0.57679 0.92702 0.0
C2907 C 0.98682 0.57758 0.88233 0.0
C2908 C 0.97455 0.57749 0.87631 0.0
H2909 H 0.01385 0.55428 0.62581 0.0
H2910 H 0.00197 0.56168 0.68944 0.0
C2911 C 0.96703 0.57603 0.91391 0.0
C2912 C 0.99493 0.57667 0.84228 0.0
H2913 H 1.00114 0.58777 0.73598 0.0
C2914 C 0.00307 0.5674 0.84198 0.0
C2915 C 0.99445 0.58432 0.80399 0.0
C2916 C 0.98645 0.59485 0.80287 0.0
C2917 C 0.01044 0.56537 0.80435 0.0
C2918 C 0.00966 0.57274 0.76563 0.0
C2919 C 1.00171 0.58214 0.76584 0.0
C2920 C 0.01652 0.57012 0.72374 0.0
C2921 C 0.01878 0.55509 0.80543 0.0
C2922 C 0.02858 0.57267 0.72137 0.0
C2923 C 0.03538 0.56838 0.68504 0.0
C2924 C 0.03023 0.56133 0.65104 0.0
C2925 C 0.01806 0.55937 0.65228 0.0
C2926 C 0.01126 0.56374 0.68824 0.0
H2927 H 0.01786 0.54977 0.83713 0.0
H2928 H 0.01722 0.54932 0.77541 0.0
H2929 H 0.02796 0.55834 0.80324 0.0
H2930 H 0.03279 0.57756 0.74859 0.0
H2931 H 0.04475 0.57002 0.68489 0.0
H2932 H 0.68767 0.70813 0.13621 0.0
H2933 H 0.68364 0.72182 0.07322 0.0
H2934 H 0.66908 0.74657 0.1694 0.0
H2935 H 0.67366 0.7331 0.23247 0.0
H2936 H 0.66519 0.73344 0.03604 0.0
H2937 H 0.69558 0.76545 0.11706 0.0
H2938 H 0.69395 0.75064 0.13785 0.0
H2939 H 0.68321 0.76163 0.15198 0.0
C2940 C 0.68328 0.71635 0.14354 0.0
C2941 C 0.68086 0.71957 0.18889 0.0
C2942 C 0.68104 0.72421 0.10765 0.0
C2943 C 0.67633 0.73538 0.11663 0.0
C2944 C 0.67302 0.73816 0.16169 0.0
H2945 H 0.67722 0.79653 0.93046 0.0
H2946 H 0.67079 0.78352 0.99317 0.0
C2947 C 0.67547 0.73041 0.19761 0.0
C2948 C 0.67583 0.74437 0.07957 0.0
H2949 H 0.68682 0.77115 0.04793 0.0
C2950 C 0.66983 0.74173 0.03884 0.0
C2951 C 0.68192 0.75522 0.08301 0.0
C2952 C 0.68912 0.75839 0.1246 0.0
C2953 C 0.66993 0.7495 1.00137 0.0
C2954 C 0.67624 0.76018 0.00453 0.0
C2955 C 0.68187 0.76302 0.04574 0.0
C2956 C 0.67843 0.76781 0.96406 0.0
C2957 C 0.66341 0.74611 0.95844 0.0
C2958 C 0.68471 0.76329 0.92679 0.0
C2959 C 0.68839 0.77066 0.89145 0.0
C2960 C 0.68592 0.78276 0.89247 0.0
C2961 C 0.67915 0.78724 0.92864 0.0
C2962 C 0.67553 0.77982 0.96447 0.0
H2963 H 0.65608 0.73996 0.96608 0.0
H2964 H 0.65984 0.75395 0.94069 0.0
H2965 H 0.66954 0.74159 0.93479 0.0
H2966 H 0.68727 0.75414 0.92602 0.0
H2967 H 0.69355 0.76694 0.8639 0.0
H2968 H 0.51526 0.43929 0.49093 0.0
H2969 H 0.50206 0.43594 0.4268 0.0
H2970 H 0.53021 0.4199 0.35075 0.0
H2971 H 0.54364 0.42324 0.41554 0.0
H2972 H 0.50642 0.4462 0.34019 0.0
H2973 H 0.50139 0.3977 0.32862 0.0
H2974 H 0.50632 0.40496 0.38017 0.0
H2975 H 0.51615 0.40329 0.33266 0.0
C2976 C 0.51865 0.43483 0.46097 0.0
C2977 C 0.53056 0.43157 0.45839 0.0
C2978 C 0.51106 0.43293 0.42425 0.0
C2979 C 0.5151 0.42766 0.38391 0.0
C2980 C 0.52684 0.42385 0.38177 0.0
H2981 H 0.48566 0.4373 0.11586 0.0
H2982 H 0.49829 0.43275 0.18087 0.0
C2983 C 0.53451 0.42575 0.41882 0.0
C2984 C 0.50724 0.42733 0.34312 0.0
H2985 H 0.49242 0.40906 0.27012 0.0
C2986 C 0.50335 0.43806 0.325 0.0
C2987 C 0.50319 0.41673 0.32337 0.0
C2988 C 0.50688 0.40498 0.34223 0.0
C2989 C 0.49563 0.4385 0.28758 0.0
C2990 C 0.49165 0.42791 0.26755 0.0
C2991 C 0.49545 0.41715 0.2857 0.0
C2992 C 0.48403 0.42814 0.22627 0.0
C2993 C 0.49181 0.4503 0.26939 0.0
C2994 C 0.4718 0.42658 0.22961 0.0
C2995 C 0.46448 0.42913 0.19206 0.0
C2996 C 0.46937 0.4333 0.15098 0.0
C2997 C 0.48166 0.43402 0.14704 0.0
C2998 C 0.4889 0.43145 0.18418 0.0
H2999 H 0.49406 0.45756 0.29319 0.0
H3000 H 0.49624 0.452 0.23618 0.0
H3001 H 0.48219 0.45038 0.2632 0.0
H3002 H 0.46787 0.4241 0.26198 0.0
H3003 H 0.45505 0.42871 0.19626 0.0
H3004 H 0.83069 0.29062 0.67609 0.0
H3005 H 0.83471 0.27578 0.61683 0.0
H3006 H 0.79845 0.26502 0.62017 0.0
H3007 H 0.79436 0.27965 0.67876 0.0
H3008 H 0.83017 0.24974 0.61742 0.0
H3009 H 0.80531 0.27367 0.48364 0.0
H3010 H 0.81031 0.28066 0.53554 0.0
H3011 H 0.79738 0.2716 0.5362 0.0
C3012 C 0.82357 0.28511 0.66413 0.0
C3013 C 0.81217 0.28645 0.68212 0.0
C3014 C 0.8259 0.27658 0.63041 0.0
C3015 C 0.81686 0.26932 0.61372 0.0
C3016 C 0.80555 0.27056 0.63208 0.0
H3017 H 0.8125 0.20578 0.45007 0.0
H3018 H 0.81556 0.21945 0.51379 0.0
C3019 C 0.80324 0.27898 0.66574 0.0
C3020 C 0.81896 0.26065 0.5762 0.0
H3021 H 0.81015 0.2538 0.46789 0.0
C3022 C 0.82595 0.2507 0.58439 0.0
C3023 C 0.81349 0.26189 0.53301 0.0
C3024 C 0.80628 0.27257 0.52123 0.0
C3025 C 0.82736 0.24185 0.55092 0.0
C3026 C 0.82151 0.2429 0.50827 0.0
C3027 C 0.81473 0.25298 0.50011 0.0
C3028 C 0.82199 0.23371 0.47151 0.0
C3029 C 0.83511 0.23149 0.56158 0.0
C3030 C 0.82478 0.23695 0.4263 0.0
C3031 C 0.823 0.22913 0.38995 0.0
C3032 C 0.81855 0.2178 0.3978 0.0
C3033 C 0.81645 0.21426 0.44318 0.0
C3034 C 0.81812 0.22214 0.47968 0.0
H3035 H 0.84164 0.23366 0.58855 0.0
H3036 H 0.82959 0.22416 0.57443 0.0
H3037 H 0.83985 0.22844 0.5306 0.0
H3038 H 0.82767 0.24581 0.41875 0.0
H3039 H 0.82428 0.23225 0.35525 0.0
H3040 H 0.01552 0.53925 0.4624 0.0
H3041 H 1.00158 0.54625 0.40459 0.0
H3042 H 0.02519 0.57442 0.36916 0.0
H3043 H 0.03916 0.56758 0.42696 0.0
H3044 H 0.99228 0.57252 0.39705 0.0
H3045 H 0.01651 0.55452 0.247 0.0
H3046 H 0.01788 0.54818 0.30344 0.0
H3047 H 0.02468 0.56202 0.29101 0.0
C3048 C 0.01778 0.5469 0.44219 0.0
C3049 C 0.02849 0.55283 0.44926 0.0
C3050 C 0.00977 0.55093 0.40938 0.0
C3051 C 0.01236 0.56085 0.38271 0.0
C3052 C 0.02304 0.56674 0.38942 0.0
H3053 H 0.97663 0.58349 0.13484 0.0
H3054 H 0.98972 0.58438 0.20133 0.0
C3055 C 0.03101 0.5628 0.42245 0.0
C3056 C 0.00397 0.56495 0.34733 0.0
H3057 H 0.99901 0.56463 0.23223 0.0
C3058 C 0.99374 0.57086 0.36095 0.0
C3059 C 0.00599 0.5629 0.30034 0.0
C3060 C 0.01682 0.55652 0.28419 0.0
C3061 C 0.9854 0.57467 0.32866 0.0
C3062 C 0.98721 0.57225 0.28164 0.0
C3063 C 0.9976 0.56657 0.26814 0.0
C3064 C 0.97812 0.57457 0.24603 0.0
C3065 C 0.9748 0.58134 0.34525 0.0
C3066 C 0.96698 0.56933 0.24957 0.0
C3067 C 0.95942 0.56905 0.21185 0.0
C3068 C 0.96287 0.57397 0.16988 0.0
C3069 C 0.9736 0.58001 0.16729 0.0
C3070 C 0.98115 0.58034 0.2051 0.0
H3071 H 0.9767 0.58606 0.37767 0.0
H3072 H 0.97175 0.58779 0.31937 0.0
H3073 H 0.96756 0.57505 0.35213 0.0
H3074 H 0.96452 0.56454 0.28014 0.0
H3075 H 0.9514 0.56395 0.21413 0.0
H3076 H 0.19365 0.27764 0.15666 0.0
H3077 H 0.18625 0.26594 0.09307 0.0
H3078 H 0.15189 0.26525 0.15525 0.0
H3079 H 0.15943 0.27713 0.21968 0.0
H3080 H 0.16044 0.24294 0.13111 0.0
H3081 H 0.16496 0.27322 0.98478 0.0
H3082 H 0.1781 0.27305 0.01851 0.0
H3083 H 0.16461 0.27831 0.04333 0.0
C3084 C 0.18443 0.27528 0.15607 0.0
C3085 C 0.17704 0.27839 0.19245 0.0
C3086 C 0.18019 0.26862 0.11969 0.0
C3087 C 0.16846 0.26487 0.11893 0.0
C3088 C 0.16094 0.26818 0.15489 0.0
H3089 H 0.16058 0.224 0.8677 0.0
H3090 H 0.15346 0.23654 0.93019 0.0
C3091 C 0.16519 0.27501 0.1914 0.0
C3092 C 0.16468 0.25656 0.08261 0.0
H3093 H 0.16697 0.25243 0.96739 0.0
C3094 C 0.16153 0.24508 0.09518 0.0
C3095 C 0.16589 0.25936 0.03567 0.0
C3096 C 0.16845 0.2717 0.01977 0.0
C3097 C 0.16061 0.2361 0.06232 0.0
C3098 C 0.1631 0.23865 0.01586 0.0
C3099 C 0.16519 0.25036 1.00297 0.0
C3100 C 0.16517 0.22928 0.98121 0.0
C3101 C 0.15733 0.22392 0.07803 0.0
C3102 C 0.17382 0.22074 0.98929 0.0
C3103 C 0.17773 0.2135 0.95386 0.0
C3104 C 0.1731 0.21467 0.90967 0.0
C3105 C 0.164 0.22271 0.90192 0.0
C3106 C 0.16003 0.22995 0.93749 0.0
H3107 H 0.15133 0.22428 0.10796 0.0
H3108 H 0.15304 0.21881 0.05034 0.0
H3109 H 0.16538 0.21922 0.08899 0.0
H3110 H 0.17823 0.22027 0.02206 0.0
H3111 H 0.18504 0.20765 0.96013 0.0
H3112 H 0.48889 0.44884 0.97059 0.0
H3113 H 0.50245 0.44207 0.91183 0.0
H3114 H 0.47616 0.41816 0.86095 0.0
H3115 H 0.46237 0.42498 0.92008 0.0
H3116 H 0.51113 0.41907 0.89156 0.0
H3117 H 0.48543 0.43823 0.74784 0.0
H3118 H 0.48291 0.44233 0.80669 0.0
H3119 H 0.47772 0.42845 0.78577 0.0
C3120 C 0.48594 0.44211 0.94709 0.0
C3121 C 0.47446 0.43752 0.94993 0.0
C3122 C 0.49376 0.43821 0.91354 0.0
C3123 C 0.49031 0.4297 0.88162 0.0
C3124 C 0.47897 0.42485 0.88488 0.0
H3125 H 0.52781 0.41524 0.6267 0.0
H3126 H 0.5146 0.41187 0.69171 0.0
C3127 C 0.47111 0.42871 0.91882 0.0
C3128 C 0.49858 0.42631 0.84435 0.0
H3129 H 0.50333 0.42934 0.72952 0.0
C3130 C 0.50938 0.42117 0.85601 0.0
C3131 C 0.4963 0.42905 0.79798 0.0
C3132 C 0.48501 0.43489 0.78355 0.0
C3133 C 0.51802 0.41887 0.82271 0.0
C3134 C 0.51593 0.42203 0.77652 0.0
C3135 C 0.50496 0.42683 0.76475 0.0
C3136 C 0.52523 0.42146 0.74042 0.0
C3137 C 0.52928 0.41308 0.83754 0.0
C3138 C 0.53593 0.42747 0.74635 0.0
C3139 C 0.54362 0.42909 0.70945 0.0
C3140 C 0.54074 0.42486 0.66575 0.0
C3141 C 0.53046 0.4182 0.6604 0.0
C3142 C 0.52281 0.41645 0.69743 0.0
H3143 H 0.52784 0.4074 0.86798 0.0
H3144 H 0.53312 0.40767 0.80972 0.0
H3145 H 0.53572 0.41995 0.8473 0.0
H3146 H 0.53791 0.43175 0.77849 0.0
H3147 H 0.55122 0.43471 0.71403 0.0
H3148 H 0.31961 0.79848 0.45942 0.0
H3149 H 0.32274 0.78505 0.52399 0.0
H3150 H 0.33461 0.75829 0.43068 0.0
H3151 H 0.3314 0.77168 0.36625 0.0
H3152 H 0.30901 0.7634 0.51913 0.0
H3153 H 0.35652 0.75443 0.54564 0.0
H3154 H 0.3513 0.76793 0.52026 0.0
H3155 H 0.35122 0.75461 0.4876 0.0
C3156 C 0.32354 0.78998 0.45308 0.0
C3157 C 0.32559 0.78621 0.40807 0.0
C3158 C 0.3252 0.78226 0.48988 0.0
C3159 C 0.329 0.77068 0.48225 0.0
C3160 C 0.33191 0.76723 0.43758 0.0
H3161 H 0.324 0.70752 0.6574 0.0
H3162 H 0.32936 0.72099 0.59439 0.0
C3163 C 0.33016 0.77492 0.40078 0.0
C3164 C 0.32782 0.76172 0.51906 0.0
H3165 H 0.34305 0.74272 0.58762 0.0
C3166 C 0.31647 0.75893 0.53424 0.0
C3167 C 0.33752 0.75566 0.53782 0.0
C3168 C 0.34986 0.7583 0.52234 0.0
C3169 C 0.31454 0.75035 0.5679 0.0
C3170 C 0.32425 0.74461 0.58818 0.0
C3171 C 0.33562 0.74717 0.57228 0.0
C3172 C 0.32261 0.73654 0.62781 0.0
C3173 C 0.30206 0.7474 0.58107 0.0
C3174 C 0.31751 0.74087 0.66803 0.0
C3175 C 0.31439 0.73326 0.7034 0.0
C3176 C 0.31645 0.72112 0.6999 0.0
C3177 C 0.32231 0.71683 0.66101 0.0
C3178 C 0.32535 0.72451 0.62505 0.0
H3179 H 0.29573 0.75005 0.55407 0.0
H3180 H 0.30103 0.73785 0.58762 0.0
H3181 H 0.29973 0.75216 0.61285 0.0
H3182 H 0.31554 0.75013 0.67143 0.0
H3183 H 0.31004 0.73689 0.7332 0.0
H3184 H 0.02481 0.44704 0.12317 0.0
H3185 H 0.01133 0.44162 0.18391 0.0
H3186 H 0.03598 0.41587 0.23324 0.0
H3187 H 0.04978 0.42135 0.17158 0.0
H3188 H 1.00092 0.41966 0.2072 0.0
H3189 H 0.02954 0.43745 0.34548 0.0
H3190 H 0.03192 0.44104 0.28602 0.0
H3191 H 0.03572 0.42676 0.30714 0.0
C3192 C 0.02743 0.44017 0.14669 0.0
C3193 C 0.03847 0.4347 0.14272 0.0
C3194 C 0.01964 0.43705 0.18139 0.0
C3195 C 0.02266 0.42843 0.21346 0.0
C3196 C 0.03353 0.42265 0.2091 0.0
H3197 H 0.98137 0.42385 0.46808 0.0
H3198 H 0.99491 0.4172 0.40774 0.0
C3199 C 0.04137 0.42573 0.1738 0.0
C3200 C 0.01445 0.42611 0.25207 0.0
H3201 H 0.01034 0.43224 0.36539 0.0
C3202 C 0.00305 0.42217 0.24202 0.0
C3203 C 0.01721 0.4294 0.2975 0.0
C3204 C 0.02923 0.43397 0.31001 0.0
C3205 C 0.99421 0.42194 0.27564 0.0
C3206 C 0.99678 0.42592 0.32039 0.0
C3207 C 0.00836 0.42917 0.33112 0.0
C3208 C 0.98741 0.42819 0.35485 0.0
C3209 C 0.98212 0.41772 0.26254 0.0
C3210 C 0.97854 0.43637 0.34505 0.0
C3211 C 0.97084 0.44011 0.37931 0.0
C3212 C 0.9718 0.4357 0.424 0.0
C3213 C 0.98027 0.42711 0.43351 0.0
C3214 C 0.98806 0.42341 0.3992 0.0
H3215 H 0.98254 0.4113 0.23397 0.0
H3216 H 0.97755 0.41357 0.292 0.0
H3217 H 0.97682 0.42531 0.25075 0.0
H3218 H 0.97801 0.44043 0.31157 0.0
H3219 H 0.96453 0.44691 0.37144 0.0
H3220 H 0.30581 0.26951 0.87424 0.0
H3221 H 0.31265 0.25632 0.93396 0.0
H3222 H 0.33833 0.28196 0.97605 0.0
H3223 H 0.33145 0.29541 0.91573 0.0
H3224 H 0.33593 0.24704 0.95011 0.0
H3225 H 0.3188 0.27422 0.09383 0.0
H3226 H 0.31393 0.27624 0.0356 0.0
H3227 H 0.32817 0.28134 0.0526 0.0
C3228 C 0.31293 0.27241 0.89602 0.0
C3229 C 0.31804 0.28359 0.8903 0.0
C3230 C 0.31687 0.26479 0.93008 0.0
C3231 C 0.32594 0.26816 0.95961 0.0
C3232 C 0.33123 0.27923 0.95379 0.0
H3233 H 0.33937 0.23087 0.21487 0.0
H3234 H 0.34421 0.24312 0.14843 0.0
C3235 C 0.32733 0.28689 0.91928 0.0
C3236 C 0.32945 0.26007 0.9971 0.0
H3237 H 0.32663 0.25585 0.11224 0.0
C3238 C 0.3341 0.24903 0.9857 0.0
C3239 C 0.327 0.26265 0.04345 0.0
C3240 C 0.32164 0.27421 0.05743 0.0
C3241 C 0.33608 0.2404 0.01928 0.0
C3242 C 0.33316 0.2428 0.06539 0.0
C3243 C 0.32897 0.25402 0.07698 0.0
C3244 C 0.33306 0.23356 0.10146 0.0
C3245 C 0.34111 0.22874 0.00488 0.0
C3246 C 0.32572 0.2237 0.09665 0.0
C3247 C 0.32314 0.21659 0.13442 0.0
C3248 C 0.32779 0.21926 0.17762 0.0
C3249 C 0.33597 0.22843 0.18158 0.0
C3250 C 0.33859 0.23554 0.14376 0.0
H3251 H 0.34661 0.22967 0.97366 0.0
H3252 H 0.3465 0.22478 0.03251 0.0
H3253 H 0.33382 0.22263 0.99669 0.0
H3254 H 0.32112 0.22212 0.06484 0.0
H3255 H 0.31652 0.20981 0.1309 0.0
H3256 H 0.51541 0.57038 0.96443 0.0
H3257 H 0.50311 0.57647 0.90024 0.0
H3258 H 0.53397 0.58077 0.81635 0.0
H3259 H 0.5464 0.57467 0.88124 0.0
H3260 H 0.50197 0.59626 0.83854 0.0
H3261 H 0.5144 0.55441 0.75325 0.0
H3262 H 0.51741 0.55719 0.81289 0.0
H3263 H 0.52632 0.56391 0.76941 0.0
C3264 C 0.51961 0.57297 0.93268 0.0
C3265 C 0.53186 0.57209 0.92781 0.0
C3266 C 0.51256 0.57643 0.89598 0.0
C3267 C 0.51757 0.57892 0.85323 0.0
C3268 C 0.5299 0.57879 0.84895 0.0
H3269 H 0.48398 0.57879 0.58725 0.0
H3270 H 0.49761 0.58263 0.64981 0.0
C3271 C 0.53701 0.57543 0.88609 0.0
C3272 C 0.50974 0.58038 0.8127 0.0
H3273 H 0.50073 0.56632 0.71561 0.0
C3274 C 0.50177 0.58979 0.81136 0.0
C3275 C 0.50934 0.57183 0.77759 0.0
C3276 C 0.51723 0.5612 0.77823 0.0
C3277 C 0.4935 0.59093 0.77568 0.0
C3278 C 0.49304 0.58231 0.74085 0.0
C3279 C 0.50109 0.57297 0.74211 0.0
C3280 C 0.48431 0.58258 0.70268 0.0
C3281 C 0.48542 0.60139 0.77533 0.0
C3282 C 0.47214 0.5818 0.71103 0.0
C3283 C 0.46424 0.57976 0.67484 0.0
C3284 C 0.46843 0.57833 0.62995 0.0
C3285 C 0.48048 0.57993 0.62147 0.0
C3286 C 0.48831 0.58205 0.6573 0.0
H3287 H 0.48892 0.60868 0.79662 0.0
H3288 H 0.48404 0.60466 0.73992 0.0
H3289 H 0.47677 0.59877 0.78952 0.0
H3290 H 0.46883 0.58197 0.74575 0.0
H3291 H 0.45504 0.57833 0.68249 0.0
H3292 H 0.17588 0.76736 0.72146 0.0
H3293 H 0.17171 0.7546 0.65595 0.0
H3294 H 0.17942 0.7832 0.564 0.0
H3295 H 0.18348 0.79605 0.6298 0.0
H3296 H 0.15699 0.75651 0.56748 0.0
H3297 H 0.20562 0.75664 0.54785 0.0
H3298 H 0.19849 0.7613 0.59994 0.0
H3299 H 0.1985 0.77071 0.55065 0.0
C3300 C 0.17612 0.77106 0.68729 0.0
C3301 C 0.17976 0.78272 0.68056 0.0
C3302 C 0.17381 0.76375 0.64991 0.0
C3303 C 0.17532 0.76793 0.60514 0.0
C3304 C 0.17816 0.77983 0.59832 0.0
H3305 H 0.1898 0.73208 0.35251 0.0
H3306 H 0.18543 0.74634 0.41197 0.0
C3307 C 0.18036 0.78719 0.63584 0.0
C3308 C 0.17564 0.75946 0.5665 0.0
H3309 H 0.19481 0.74535 0.49563 0.0
C3310 C 0.16523 0.75408 0.55153 0.0
C3311 C 0.18643 0.75622 0.54618 0.0
C3312 C 0.19794 0.76142 0.56199 0.0
C3313 C 0.16531 0.74572 0.51593 0.0
C3314 C 0.17612 0.74247 0.49566 0.0
C3315 C 0.18651 0.74783 0.51105 0.0
C3316 C 0.17701 0.73388 0.4573 0.0
C3317 C 0.15381 0.74067 0.49957 0.0
C3318 C 0.17342 0.72208 0.46214 0.0
C3319 C 0.17582 0.71383 0.42753 0.0
C3320 C 0.182 0.71725 0.38806 0.0
C3321 C 0.18508 0.72914 0.38267 0.0
C3322 C 0.1826 0.73733 0.4167 0.0
H3323 H 0.14624 0.74615 0.5103 0.0
H3324 H 0.15372 0.73984 0.46171 0.0
H3325 H 0.15263 0.73178 0.51444 0.0
H3326 H 0.16928 0.71914 0.49347 0.0
H3327 H 0.17347 0.70471 0.43278 0.0
H3328 H 0.48769 0.95094 0.10891 0.0
H3329 H 0.5007 0.94483 0.17047 0.0
H3330 H 0.47557 0.91869 0.21293 0.0
H3331 H 0.46228 0.92483 0.15087 0.0
H3332 H 0.49275 0.94511 0.26805 0.0
H3333 H 0.50953 0.90192 0.20742 0.0
H3334 H 0.50431 0.91298 0.16801 0.0
H3335 H 0.49405 0.90505 0.20281 0.0
C3336 C 0.4849 0.94379 0.13085 0.0
C3337 C 0.47386 0.93841 0.12483 0.0
C3338 C 0.4924 0.94031 0.16611 0.0
C3339 C 0.48916 0.93128 0.19621 0.0
C3340 C 0.47831 0.9256 0.18977 0.0
H3341 H 0.52335 0.92517 0.46213 0.0
H3342 H 0.50921 0.92201 0.40019 0.0
C3343 C 0.47072 0.92914 0.15435 0.0
C3344 C 0.49685 0.92862 0.2361 0.0
H3345 H 0.51721 0.90917 0.27696 0.0
C3346 C 0.49799 0.93719 0.27029 0.0
C3347 C 0.50376 0.91834 0.2387 0.0
C3348 C 0.50296 0.909 0.20233 0.0
C3349 C 0.50596 0.93585 0.30658 0.0
C3350 C 0.51298 0.92562 0.3091 0.0
C3351 C 0.51178 0.91696 0.27516 0.0
C3352 C 0.52192 0.92423 0.34588 0.0
C3353 C 0.50709 0.94561 0.3413 0.0
C3354 C 0.53391 0.92577 0.33602 0.0
C3355 C 0.54205 0.9274 0.37156 0.0
C3356 C 0.53831 0.92744 0.41737 0.0
C3357 C 0.5265 0.92488 0.42715 0.0
C3358 C 0.5184 0.92321 0.39175 0.0
H3359 H 0.5026 0.95376 0.33 0.0
H3360 H 0.50307 0.94275 0.37409 0.0
H3361 H 0.51647 0.94766 0.34791 0.0
H3362 H 0.53682 0.92667 0.30089 0.0
H3363 H 0.55102 0.92973 0.36309 0.0
H3364 H 0.33017 0.24171 0.34574 0.0
H3365 H 0.33611 0.25401 0.41011 0.0
H3366 H 0.32887 0.22542 0.503 0.0
H3367 H 0.32345 0.21291 0.43801 0.0
H3368 H 0.32032 0.2601 0.47055 0.0
H3369 H 0.35709 0.23945 0.56435 0.0
H3370 H 0.35313 0.23515 0.5069 0.0
H3371 H 0.34507 0.22954 0.55525 0.0
C3372 C 0.33037 0.2379 0.37974 0.0
C3373 C 0.32646 0.22636 0.38703 0.0
C3374 C 0.3337 0.24495 0.41655 0.0
C3375 C 0.33297 0.24069 0.46157 0.0
C3376 C 0.32979 0.22887 0.46865 0.0
H3377 H 0.31844 0.27015 0.72071 0.0
H3378 H 0.32466 0.2579 0.65685 0.0
C3379 C 0.32668 0.2217 0.43151 0.0
C3380 C 0.33363 0.2491 0.5005 0.0
H3381 H 0.34591 0.25396 0.60557 0.0
C3382 C 0.32611 0.25887 0.49959 0.0
C3383 C 0.34106 0.24744 0.53877 0.0
C3384 C 0.34962 0.23738 0.54126 0.0
C3385 C 0.32553 0.26678 0.53624 0.0
C3386 C 0.3328 0.26503 0.57482 0.0
C3387 C 0.34047 0.25538 0.57564 0.0
C3388 C 0.33143 0.27233 0.61653 0.0
C3389 C 0.31666 0.27662 0.53442 0.0
C3390 C 0.33365 0.2845 0.616 0.0
C3391 C 0.33009 0.29158 0.65279 0.0
C3392 C 0.32423 0.28655 0.69025 0.0
C3393 C 0.32288 0.27427 0.69207 0.0
C3394 C 0.32646 0.26724 0.65566 0.0
H3395 H 0.3104 0.27558 0.50556 0.0
H3396 H 0.31158 0.27704 0.56684 0.0
H3397 H 0.32131 0.28511 0.53003 0.0
H3398 H 0.33757 0.28857 0.58618 0.0
H3399 H 0.33117 0.30101 0.65048 0.0
H3400 H 0.95295 0.06557 0.87253 0.0
H3401 H 0.96696 0.06984 0.811 0.0
H3402 H 0.98993 0.08673 0.90813 0.0
H3403 H 0.976 0.08216 0.96988 0.0
H3404 H 0.97825 0.08938 0.77391 0.0
H3405 H 0.01003 0.05986 0.86124 0.0
H3406 H 0.99489 0.06093 0.87865 0.0
H3407 H 0.00517 0.0722 0.89433 0.0
C3408 C 0.96076 0.07063 0.88028 0.0
C3409 C 0.96329 0.07381 0.92559 0.0
C3410 C 0.96882 0.07297 0.84523 0.0
C3411 C 0.97962 0.07842 0.85501 0.0
C3412 C 0.98177 0.08234 0.89984 0.0
H3413 H 0.04108 0.07721 0.66888 0.0
H3414 H 0.02825 0.08357 0.73209 0.0
C3415 C 0.97373 0.07992 0.93496 0.0
C3416 C 0.98891 0.07895 0.81912 0.0
H3417 H 0.0157 0.06762 0.79022 0.0
C3418 C 0.9865 0.08474 0.77772 0.0
C3419 C 0.9997 0.07289 0.82397 0.0
C3420 C 0.00262 0.06603 0.86672 0.0
C3421 C 0.99442 0.08437 0.74076 0.0
C3422 C 0.00498 0.07794 0.74505 0.0
C3423 C 0.00764 0.07261 0.78708 0.0
C3424 C 0.0126 0.07535 0.70491 0.0
C3425 C 0.9913 0.09068 0.69705 0.0
C3426 C 0.00808 0.06866 0.6687 0.0
C3427 C 0.01535 0.06497 0.63307 0.0
C3428 C 0.02736 0.06787 0.63259 0.0
C3429 C 0.03185 0.0749 0.66809 0.0
C3430 C 0.02455 0.07851 0.70424 0.0
H3431 H 0.98511 0.09803 0.70352 0.0
H3432 H 0.99926 0.09421 0.67987 0.0
H3433 H 0.98696 0.08443 0.67337 0.0
H3434 H 0.99897 0.06592 0.66882 0.0
H3435 H 0.01158 0.05957 0.6063 0.0
H3436 H 0.18249 0.7612 0.84452 0.0
H3437 H 0.17713 0.74776 0.90624 0.0
H3438 H 0.17541 0.77691 1.00021 0.0
H3439 H 0.1802 0.79048 0.9375 0.0
H3440 H 0.19018 0.74334 0.97578 0.0
H3441 H 0.14774 0.75895 0.04472 0.0
H3442 H 0.15354 0.76411 0.99081 0.0
H3443 H 0.15866 0.7703 0.0439 0.0
C3444 C 0.18059 0.76478 0.87806 0.0
C3445 C 0.18168 0.77689 0.88616 0.0
C3446 C 0.17758 0.75707 0.91346 0.0
C3447 C 0.17579 0.76123 0.95819 0.0
C3448 C 0.17642 0.77343 0.96599 0.0
H3449 H 0.1818 0.72989 0.2233 0.0
H3450 H 0.17776 0.74263 0.15791 0.0
C3451 C 0.1792 0.78121 0.93013 0.0
C3452 C 0.17463 0.75265 0.99684 0.0
H3453 H 0.15858 0.74557 0.09217 0.0
C3454 C 0.18313 0.74375 1.00069 0.0
C3455 C 0.16552 0.75315 0.02987 0.0
C3456 C 0.15579 0.76207 0.02692 0.0
C3457 C 0.18294 0.73558 0.03679 0.0
C3458 C 0.17395 0.73619 0.0701 0.0
C3459 C 0.1654 0.74502 0.06634 0.0
C3460 C 0.17405 0.72841 0.11115 0.0
C3461 C 0.19267 0.72663 0.04002 0.0
C3462 C 0.17278 0.71614 0.10731 0.0
C3463 C 0.17499 0.70879 0.14505 0.0
C3464 C 0.17856 0.71363 0.18697 0.0
C3465 C 0.17899 0.72593 0.19141 0.0
C3466 C 0.17671 0.73323 0.15402 0.0
H3467 H 0.19998 0.72856 0.01598 0.0
H3468 H 0.19624 0.72628 0.07536 0.0
H3469 H 0.18911 0.71781 0.03165 0.0
H3470 H 0.17064 0.71223 0.07458 0.0
H3471 H 0.17475 0.69936 0.14051 0.0
H3472 H 0.53062 0.04425 0.17963 0.0
H3473 H 0.51694 0.04938 0.24003 0.0
H3474 H 0.51831 0.08563 0.19822 0.0
H3475 H 0.53207 0.08039 0.13581 0.0
H3476 H 0.52095 0.07218 0.31178 0.0
H3477 H 0.48315 0.07471 0.19922 0.0
H3478 H 0.48659 0.05945 0.20088 0.0
H3479 H 0.497 0.06973 0.17669 0.0
C3480 C 0.52807 0.05333 0.18289 0.0
C3481 C 0.53235 0.06185 0.15215 0.0
C3482 C 0.52023 0.05626 0.21778 0.0
C3483 C 0.51648 0.06784 0.22348 0.0
C3484 C 0.52104 0.07658 0.19423 0.0
H3485 H 0.45689 0.07766 0.41611 0.0
H3486 H 0.47128 0.08222 0.3557 0.0
C3487 C 0.52896 0.07361 0.15882 0.0
C3488 C 0.50767 0.0704 0.25997 0.0
H3489 H 0.47824 0.06848 0.28233 0.0
C3490 C 0.5116 0.07165 0.30525 0.0
C3491 C 0.49543 0.06972 0.25168 0.0
C3492 C 0.49044 0.06837 0.20422 0.0
C3493 C 0.50369 0.07168 0.34243 0.0
C3494 C 0.49151 0.07013 0.33437 0.0
C3495 C 0.48754 0.0696 0.28889 0.0
C3496 C 0.48296 0.06789 0.37242 0.0
C3497 C 0.50852 0.07315 0.39013 0.0
C3498 C 0.4846 0.05825 0.40173 0.0
C3499 C 0.4764 0.0556 0.43592 0.0
C3500 C 0.46625 0.06249 0.4419 0.0
C3501 C 0.46461 0.0722 0.4127 0.0
C3502 C 0.47283 0.07481 0.3781 0.0
H3503 H 0.51688 0.07818 0.38977 0.0
H3504 H 0.50217 0.07772 0.41275 0.0
H3505 H 0.51037 0.06437 0.4049 0.0
H3506 H 0.49215 0.05258 0.39758 0.0
H3507 H 0.47801 0.04805 0.45756 0.0
H3508 H 0.19001 0.28919 0.45266 0.0
H3509 H 0.18369 0.27756 0.51838 0.0
H3510 H 0.15294 0.26642 0.44384 0.0
H3511 H 0.15959 0.27783 0.37703 0.0
H3512 H 0.16508 0.27466 0.57553 0.0
H3513 H 0.17016 0.2358 0.46159 0.0
H3514 H 0.17448 0.25033 0.4439 0.0
H3515 H 0.15922 0.24629 0.44504 0.0
C3516 C 0.18165 0.28465 0.45105 0.0
C3517 C 0.17519 0.28449 0.41023 0.0
C3518 C 0.17806 0.27794 0.48852 0.0
C3519 C 0.16797 0.27089 0.48578 0.0
C3520 C 0.16089 0.27159 0.44641 0.0
H3521 H 0.16053 0.22313 0.72628 0.0
H3522 H 0.15386 0.23643 0.66471 0.0
C3523 C 0.16457 0.27825 0.40855 0.0
C3524 C 0.16598 0.26182 0.52168 0.0
H3525 H 0.16802 0.23222 0.53973 0.0
C3526 C 0.16542 0.26537 0.5677 0.0
C3527 C 0.16661 0.24966 0.51144 0.0
C3528 C 0.16774 0.24523 0.46293 0.0
C3529 C 0.16612 0.25717 0.60364 0.0
C3530 C 0.1672 0.2451 0.59328 0.0
C3531 C 0.16707 0.24149 0.54742 0.0
C3532 C 0.17049 0.23638 0.62878 0.0
C3533 C 0.16658 0.26152 0.65236 0.0
C3534 C 0.1819 0.23178 0.62829 0.0
C3535 C 0.18568 0.22436 0.66322 0.0
C3536 C 0.17807 0.2212 0.69891 0.0
C3537 C 0.16648 0.22537 0.69868 0.0
C3538 C 0.16272 0.233 0.66385 0.0
H3539 H 0.16676 0.27126 0.65438 0.0
H3540 H 0.15876 0.2583 0.67125 0.0
H3541 H 0.17448 0.25802 0.66987 0.0
H3542 H 0.18803 0.23425 0.60157 0.0
H3543 H 0.19467 0.22124 0.66289 0.0
H3544 H 0.04307 0.92252 0.92106 0.0
H3545 H 0.0304 0.91705 0.85629 0.0
H3546 H 0.00395 0.94113 0.90412 0.0
H3547 H 0.01636 0.94651 0.96851 0.0
H3548 H 0.99465 0.91948 0.87317 0.0
H3549 H 0.02547 0.93968 0.74736 0.0
H3550 H 0.03118 0.92845 0.78447 0.0
H3551 H 0.02675 0.94229 0.80804 0.0
C3552 C 0.03449 0.92652 0.91804 0.0
C3553 C 0.03079 0.93503 0.94981 0.0
C3554 C 0.02728 0.92343 0.88089 0.0
C3555 C 0.01626 0.92877 0.87505 0.0
C3556 C 0.01239 0.93688 0.90784 0.0
H3557 H 0.97224 0.95521 0.68081 0.0
H3558 H 0.98579 0.94886 0.73954 0.0
C3559 C 0.01956 0.93999 0.94462 0.0
C3560 C 0.0089 0.9267 0.83372 0.0
H3561 H 0.0069 0.93426 0.7208 0.0
C3562 C 0.99741 0.92241 0.83952 0.0
C3563 C 0.0125 0.93062 0.78989 0.0
C3564 C 0.02461 0.93559 0.78175 0.0
C3565 C 0.98925 0.92256 0.80338 0.0
C3566 C 0.99267 0.92709 0.76036 0.0
C3567 C 0.00434 0.93069 0.75378 0.0
C3568 C 0.98389 0.93036 0.72502 0.0
C3569 C 0.97677 0.91874 0.81218 0.0
C3570 C 0.97807 0.92203 0.69755 0.0
C3571 C 0.97023 0.92571 0.66311 0.0
C3572 C 0.9682 0.93776 0.65576 0.0
C3573 C 0.97377 0.94592 0.68462 0.0
C3574 C 0.98152 0.94229 0.7185 0.0
H3575 H 0.97546 0.91556 0.84778 0.0
H3576 H 0.97071 0.92619 0.80582 0.0
H3577 H 0.97437 0.91159 0.78816 0.0
H3578 H 0.97979 0.91276 0.70208 0.0
H3579 H 0.96608 0.91922 0.64141 0.0
H3580 H 0.32884 0.79405 0.16026 0.0
H3581 H 0.3339 0.78159 0.09437 0.0
H3582 H 0.32098 0.75118 0.16658 0.0
H3583 H 0.31595 0.76346 0.23205 0.0
H3584 H 0.34247 0.74737 0.11348 0.0
H3585 H 0.30632 0.76841 0.01485 0.0
H3586 H 0.31727 0.77793 0.03921 0.0
H3587 H 0.30756 0.7699 0.07615 0.0
C3588 C 0.32734 0.78467 0.16244 0.0
C3589 C 0.32191 0.77977 0.20125 0.0
C3590 C 0.33016 0.77757 0.12469 0.0
C3591 C 0.32768 0.76547 0.12537 0.0
C3592 C 0.32296 0.76049 0.16521 0.0
H3593 H 0.32034 0.70459 0.95422 0.0
H3594 H 0.32573 0.71802 0.01634 0.0
C3595 C 0.32005 0.76755 0.20259 0.0
C3596 C 0.32891 0.75806 0.0837 0.0
H3597 H 0.31588 0.75255 0.98077 0.0
C3598 C 0.33678 0.74857 0.0841 0.0
C3599 C 0.32145 0.75961 0.0455 0.0
C3600 C 0.3126 0.76945 0.04365 0.0
C3601 C 0.33731 0.74054 0.0475 0.0
C3602 C 0.32953 0.74183 0.01004 0.0
C3603 C 0.32189 0.75152 0.00927 0.0
C3604 C 0.32861 0.73306 0.97219 0.0
C3605 C 0.34624 0.7308 0.04937 0.0
C3606 C 0.32857 0.73689 0.92646 0.0
C3607 C 0.32532 0.72927 0.89123 0.0
C3608 C 0.32224 0.71757 0.90074 0.0
C3609 C 0.32305 0.71346 0.94589 0.0
C3610 C 0.32612 0.72117 0.98142 0.0
H3611 H 0.35396 0.73336 0.07041 0.0
H3612 H 0.3422 0.72296 0.06553 0.0
H3613 H 0.34934 0.72836 0.01463 0.0
H3614 H 0.3304 0.74599 0.91827 0.0
H3615 H 0.3245 0.73271 0.85679 0.0
H3616 H 0.45265 0.08036 0.67837 0.0
H3617 H 0.46614 0.08483 0.74221 0.0
H3618 H 0.49119 0.06021 0.68751 0.0
H3619 H 0.47806 0.05591 0.62447 0.0
H3620 H 0.47394 0.06973 0.80768 0.0
H3621 H 0.51261 0.08715 0.7172 0.0
H3622 H 0.49842 0.086 0.69006 0.0
H3623 H 0.50816 0.07354 0.6918 0.0
C3624 C 0.46117 0.07616 0.67946 0.0
C3625 C 0.46426 0.0678 0.64616 0.0
C3626 C 0.46886 0.07866 0.71608 0.0
C3627 C 0.47983 0.073 0.71949 0.0
C3628 C 0.48298 0.06495 0.68537 0.0
H3629 H 0.51842 0.04521 0.93952 0.0
H3630 H 0.50457 0.05121 0.88114 0.0
C3631 C 0.47535 0.06242 0.64933 0.0
C3632 C 0.48765 0.07446 0.76031 0.0
H3633 H 0.5166 0.07726 0.78967 0.0
C3634 C 0.48322 0.07165 0.80385 0.0
C3635 C 0.49976 0.07718 0.75599 0.0
C3636 C 0.50497 0.08126 0.71126 0.0
C3637 C 0.49067 0.0706 0.84214 0.0
C3638 C 0.50296 0.07211 0.83672 0.0
C3639 C 0.50725 0.07584 0.794 0.0
C3640 C 0.51153 0.06879 0.87343 0.0
C3641 C 0.48524 0.06766 0.88788 0.0
C3642 C 0.52053 0.07646 0.88772 0.0
C3643 C 0.52874 0.07294 0.92109 0.0
C3644 C 0.52811 0.06167 0.94073 0.0
C3645 C 0.51915 0.05403 0.92586 0.0
C3646 C 0.51108 0.05749 0.89254 0.0
H3647 H 0.4762 0.07126 0.8905 0.0
H3648 H 0.48457 0.05799 0.89145 0.0
H3649 H 0.49054 0.07115 0.91671 0.0
H3650 H 0.5212 0.08518 0.87314 0.0
H3651 H 0.53556 0.07902 0.93146 0.0
H3652 H 0.67418 0.73315 0.35609 0.0
H3653 H 0.67142 0.74626 0.42142 0.0
H3654 H 0.67762 0.7174 0.51365 0.0
H3655 H 0.68027 0.70417 0.44797 0.0
H3656 H 0.65921 0.73857 0.53977 0.0
H3657 H 0.70522 0.74974 0.49117 0.0
H3658 H 0.69446 0.74898 0.44617 0.0
H3659 H 0.69856 0.73588 0.47622 0.0
C3660 C 0.6743 0.72947 0.39031 0.0
C3661 C 0.67727 0.71762 0.39705 0.0
C3662 C 0.6728 0.73699 0.4276 0.0
C3663 C 0.67437 0.73282 0.47232 0.0
C3664 C 0.67626 0.72076 0.47937 0.0
H3665 H 0.70329 0.76774 0.70469 0.0
H3666 H 0.69698 0.75447 0.64459 0.0
C3667 C 0.67767 0.71318 0.44187 0.0
C3668 C 0.67628 0.74133 0.51007 0.0
H3669 H 0.69693 0.7602 0.55217 0.0
C3670 C 0.66743 0.74334 0.54258 0.0
C3671 C 0.68703 0.74748 0.51365 0.0
C3672 C 0.69693 0.74543 0.48022 0.0
C3673 C 0.66911 0.75135 0.57881 0.0
C3674 C 0.67987 0.75754 0.58217 0.0
C3675 C 0.68865 0.75553 0.5494 0.0
C3676 C 0.68272 0.76544 0.62121 0.0
C3677 C 0.65955 0.75291 0.61394 0.0
C3678 C 0.67673 0.77607 0.62857 0.0
C3679 C 0.68035 0.78381 0.66339 0.0
C3680 C 0.69007 0.78104 0.69105 0.0
C3681 C 0.69583 0.77026 0.68394 0.0
C3682 C 0.69221 0.7626 0.64955 0.0
H3683 H 0.65265 0.74605 0.611 0.0
H3684 H 0.66327 0.75265 0.64905 0.0
H3685 H 0.65537 0.76161 0.60907 0.0
H3686 H 0.66948 0.77853 0.60665 0.0
H3687 H 0.67574 0.79203 0.6679 0.0
H3688 H 0.04742 0.92053 0.18789 0.0
H3689 H 0.03482 0.91459 0.25279 0.0
H3690 H 0.00625 0.93459 0.19541 0.0
H3691 H 0.0184 0.94004 0.13113 0.0
H3692 H 0.02602 0.92826 0.3155 0.0
H3693 H 0.98806 0.90707 0.23558 0.0
H3694 H 1.00155 0.90943 0.20442 0.0
H3695 H 0.9904 0.92068 0.20645 0.0
C3696 C 0.03833 0.92328 0.18859 0.0
C3697 C 0.03393 0.93077 0.15444 0.0
C3698 C 0.03114 0.91995 0.22575 0.0
C3699 C 0.01944 0.92395 0.22885 0.0
C3700 C 0.01503 0.93101 0.19354 0.0
H3701 H 0.98224 0.95457 0.4429 0.0
H3702 H 0.99602 0.94735 0.38625 0.0
C3703 C 0.02211 0.93427 0.15684 0.0
C3704 C 0.01217 0.92229 0.27098 0.0
H3705 H 0.98354 0.91912 0.30401 0.0
C3706 C 0.01681 0.92593 0.31318 0.0
C3707 C 1.00018 0.91896 0.26891 0.0
C3708 C 0.99484 0.91369 0.22639 0.0
C3709 C 0.00958 0.92742 0.35179 0.0
C3710 C 0.9973 0.92564 0.34785 0.0
C3711 C 0.99287 0.92087 0.30703 0.0
C3712 C 0.98886 0.92974 0.38367 0.0
C3713 C 0.01522 0.93124 0.39601 0.0
C3714 C 0.97977 0.92246 0.40004 0.0
C3715 C 0.97159 0.9267 0.4321 0.0
C3716 C 0.97236 0.9383 0.44842 0.0
C3717 C 0.98141 0.94555 0.43164 0.0
C3718 C 0.98944 0.94137 0.39944 0.0
H3719 H 0.0242 0.92752 0.39926 0.0
H3720 H 0.0161 0.94094 0.39593 0.0
H3721 H 0.00998 0.92852 0.42628 0.0
H3722 H 0.979 0.9135 0.38805 0.0
H3723 H 0.96472 0.92089 0.44417 0.0
H3724 H 0.80351 0.27376 0.86553 0.0
H3725 H 0.80682 0.26031 0.92904 0.0
H3726 H 0.83315 0.28357 0.98368 0.0
H3727 H 0.82991 0.29725 0.91928 0.0
H3728 H 0.83744 0.2559 0.98592 0.0
H3729 H 0.79567 0.27184 0.06184 0.0
H3730 H 0.79523 0.26836 1.00181 0.0
H3731 H 0.80407 0.28041 0.02136 0.0
C3732 C 0.81015 0.27601 0.89058 0.0
C3733 C 0.81638 0.28668 0.88734 0.0
C3734 C 0.81204 0.26825 0.92693 0.0
C3735 C 0.82016 0.27094 0.96139 0.0
C3736 C 0.82686 0.28129 0.95738 0.0
H3737 H 0.81173 0.23886 0.22933 0.0
H3738 H 0.81641 0.25234 0.16705 0.0
C3739 C 0.82501 0.2891 0.92055 0.0
C3740 C 0.82068 0.26336 1.00314 0.0
H3741 H 0.80394 0.2548 0.09433 0.0
C3742 C 0.8302 0.25572 0.01001 0.0
C3743 C 0.81127 0.26316 0.03471 0.0
C3744 C 0.80099 0.27142 0.03001 0.0
C3745 C 0.8304 0.24772 0.04709 0.0
C3746 C 0.82073 0.2472 0.07771 0.0
C3747 C 0.81137 0.25507 0.0711 0.0
C3748 C 0.81996 0.23876 0.11716 0.0
C3749 C 0.84103 0.24002 0.0533 0.0
C3750 C 0.82079 0.2265 0.11094 0.0
C3751 C 0.81835 0.2187 0.14725 0.0
C3752 C 0.81478 0.22302 0.19013 0.0
C3753 C 0.81445 0.23525 0.1967 0.0
C3754 C 0.81708 0.24299 0.16093 0.0
H3755 H 0.84891 0.24391 0.03674 0.0
H3756 H 0.84295 0.23855 0.09011 0.0
H3757 H 0.83935 0.23138 0.03706 0.0
H3758 H 0.82272 0.22292 0.07748 0.0
H3759 H 0.81849 0.20934 0.14095 0.0
H3760 H 0.54455 0.92644 0.65992 0.0
H3761 H 0.53089 0.92292 0.72384 0.0
H3762 H 0.5044 0.94327 0.65492 0.0
H3763 H 0.51792 0.94695 0.59163 0.0
H3764 H 0.51917 0.94256 0.77625 0.0
H3765 H 0.4877 0.91159 0.69569 0.0
H3766 H 0.50266 0.91326 0.67603 0.0
H3767 H 0.49185 0.9241 0.66162 0.0
C3768 C 0.53576 0.93001 0.65811 0.0
C3769 C 0.53235 0.93696 0.62054 0.0
C3770 C 0.52797 0.92802 0.69471 0.0
C3771 C 0.51657 0.93273 0.69397 0.0
C3772 C 0.51308 0.93942 0.65603 0.0
H3773 H 0.45633 0.944 0.86515 0.0
H3774 H 0.47001 0.93992 0.80217 0.0
C3775 C 0.52087 0.94155 0.61989 0.0
C3776 C 0.5085 0.93144 0.7339 0.0
H3777 H 0.48173 0.92042 0.76566 0.0
C3778 C 0.51108 0.93757 0.77428 0.0
C3779 C 0.49787 0.92502 0.73109 0.0
C3780 C 0.49483 0.91803 0.68895 0.0
C3781 C 0.50312 0.93786 0.81119 0.0
C3782 C 0.49238 0.93157 0.80824 0.0
C3783 C 0.48994 0.92521 0.76815 0.0
C3784 C 0.48334 0.93214 0.8453 0.0
C3785 C 0.50605 0.94539 0.85213 0.0
C3786 C 0.48598 0.9286 0.89026 0.0
C3787 C 0.47811 0.93086 0.92615 0.0
C3788 C 0.46738 0.9365 0.91766 0.0
C3789 C 0.46441 0.93935 0.87238 0.0
C3790 C 0.47228 0.93712 0.83647 0.0
H3791 H 0.51316 0.95179 0.84445 0.0
H3792 H 0.49822 0.95031 0.86403 0.0
H3793 H 0.50908 0.93969 0.88056 0.0
H3794 H 0.49435 0.92457 0.89795 0.0
H3795 H 0.48072 0.92883 0.96093 0.0
H3796 H 0.80119 0.77243 0.36691 0.0
H3797 H 0.80597 0.7595 0.43046 0.0
H3798 H 0.83424 0.78252 0.47012 0.0
H3799 H 0.8295 0.79572 0.40582 0.0
H3800 H 0.83806 0.75491 0.4706 0.0
H3801 H 0.7996 0.77194 0.56692 0.0
H3802 H 0.79687 0.76798 0.5083 0.0
H3803 H 0.80646 0.78007 0.521 0.0
C3804 C 0.8085 0.77478 0.38878 0.0
C3805 C 0.81489 0.78522 0.38149 0.0
C3806 C 0.81123 0.76732 0.42506 0.0
C3807 C 0.8204 0.77009 0.45507 0.0
C3808 C 0.82714 0.78024 0.44716 0.0
H3809 H 0.81936 0.73764 0.72284 0.0
H3810 H 0.82414 0.75131 0.66101 0.0
C3811 C 0.8244 0.78777 0.41055 0.0
C3812 C 0.82219 0.76273 0.49635 0.0
H3813 H 0.80846 0.75462 0.59518 0.0
C3814 C 0.83171 0.75493 0.49827 0.0
C3815 C 0.8139 0.76281 0.53234 0.0
C3816 C 0.80366 0.7712 0.53246 0.0
C3817 C 0.83295 0.74694 0.53484 0.0
C3818 C 0.82436 0.7467 0.56991 0.0
C3819 C 0.81506 0.75477 0.56841 0.0
C3820 C 0.82447 0.73803 0.6081 0.0
C3821 C 0.8434 0.73885 0.53555 0.0
C3822 C 0.8236 0.7259 0.59944 0.0
C3823 C 0.8211 0.71802 0.63515 0.0
C3824 C 0.81929 0.72221 0.67974 0.0
C3825 C 0.82088 0.7342 0.68878 0.0
C3826 C 0.82354 0.74202 0.65341 0.0
H3827 H 0.85076 0.74242 0.5148 0.0
H3828 H 0.84652 0.73734 0.57106 0.0
H3829 H 0.84083 0.73025 0.52073 0.0
H3830 H 0.824 0.72261 0.56472 0.0
H3831 H 0.81961 0.70884 0.62726 0.0
H3832 H 0.01509 0.06143 0.44932 0.0
H3833 H 0.00357 0.06761 0.38401 0.0
H3834 H 0.03346 0.08636 0.32995 0.0
H3835 H 0.04533 0.07982 0.39593 0.0
H3836 H 0.99677 0.08797 0.34666 0.0
H3837 H 0.02606 0.06401 0.22609 0.0
H3838 H 0.02752 0.0626 0.28726 0.0
H3839 H 0.03259 0.07566 0.25885 0.0
C3840 C 0.01926 0.06697 0.42386 0.0
C3841 C 0.03121 0.06997 0.42753 0.0
C3842 C 0.0126 0.07056 0.38648 0.0
C3843 C 0.01764 0.07728 0.35138 0.0
C3844 C 0.02941 0.08097 0.3561 0.0
H3845 H 0.96411 0.08684 0.12999 0.0
H3846 H 0.97864 0.09293 0.18791 0.0
C3847 C 0.03616 0.07734 0.394 0.0
C3848 C 0.01056 0.07941 0.30912 0.0
H3849 H 0.00806 0.07043 0.19799 0.0
C3850 C 0.99931 0.08434 0.31381 0.0
C3851 C 0.01385 0.07464 0.26625 0.0
C3852 C 0.02562 0.06885 0.25904 0.0
C3853 C 0.99097 0.08382 0.27826 0.0
C3854 C 0.99407 0.0785 0.23615 0.0
C3855 C 0.00564 0.07445 0.23028 0.0
C3856 C 0.98517 0.07536 0.20056 0.0
C3857 C 0.97869 0.08815 0.28742 0.0
C3858 C 0.98406 0.06355 0.1877 0.0
C3859 C 0.97601 0.06014 0.15437 0.0
C3860 C 0.96867 0.06841 0.13298 0.0
C3861 C 0.96956 0.08026 0.14616 0.0
C3862 C 0.97785 0.08373 0.17936 0.0
H3863 H 0.97717 0.08994 0.32432 0.0
H3864 H 0.97723 0.09645 0.26834 0.0
H3865 H 0.97208 0.08164 0.27568 0.0
H3866 H 0.98946 0.05687 0.2036 0.0
H3867 H 0.97553 0.05092 0.14543 0.0
H3868 H 0.70502 0.22531 0.89032 0.0
H3869 H 0.70066 0.23915 0.95127 0.0
H3870 H 0.6637 0.23163 0.9375 0.0
H3871 H 0.66813 0.21723 0.87725 0.0
H3872 H 0.68895 0.25879 0.94979 0.0
H3873 H 0.66676 0.22883 0.0729 0.0
H3874 H 0.67434 0.22344 0.023 0.0
H3875 H 0.65998 0.22983 0.01763 0.0
C3876 C 0.69595 0.2265 0.90041 0.0
C3877 C 0.68692 0.22012 0.87894 0.0
C3878 C 0.69345 0.23448 0.93532 0.0
C3879 C 0.68185 0.23645 0.94956 0.0
C3880 C 0.67275 0.23011 0.92809 0.0
H3881 H 0.67825 0.29687 0.14332 0.0
H3882 H 0.6723 0.28472 0.07737 0.0
C3883 C 0.67528 0.22191 0.89346 0.0
C3884 C 0.67956 0.2453 0.98633 0.0
H3885 H 0.66936 0.2484 0.0958 0.0
C3886 C 0.68453 0.25655 0.98152 0.0
C3887 C 0.67376 0.24244 0.0278 0.0
C3888 C 0.66847 0.23046 0.036 0.0
C3889 C 0.68452 0.26471 0.01766 0.0
C3890 C 0.67906 0.26171 0.05962 0.0
C3891 C 0.67347 0.25073 0.06356 0.0
C3892 C 0.68081 0.26891 0.10178 0.0
C3893 C 0.69109 0.27613 0.01161 0.0
C3894 C 0.68701 0.26396 0.13842 0.0
C3895 C 0.69032 0.27081 0.17578 0.0
C3896 C 0.68748 0.28282 0.17782 0.0
C3897 C 0.68059 0.28766 0.14267 0.0
C3898 C 0.67729 0.28074 0.10482 0.0
H3899 H 0.69645 0.27624 0.97982 0.0
H3900 H 0.68472 0.28347 0.00973 0.0
H3901 H 0.69699 0.27775 0.04118 0.0
H3902 H 0.6898 0.25488 0.13719 0.0
H3903 H 0.6955 0.26674 0.20252 0.0
H3904 H 0.09009 0.53316 0.63473 0.0
H3905 H 0.09871 0.52069 0.6949 0.0
H3906 H 0.06636 0.52266 0.77132 0.0
H3907 H 0.05791 0.53511 0.71212 0.0
H3908 H 0.08597 0.52198 0.8278 0.0
H3909 H 0.08695 0.48665 0.69597 0.0
H3910 H 0.09542 0.49968 0.68488 0.0
H3911 H 0.07969 0.50047 0.68605 0.0
C3912 C 0.08506 0.53131 0.66538 0.0
C3913 C 0.07336 0.53507 0.66898 0.0
C3914 C 0.08991 0.52406 0.69939 0.0
C3915 C 0.08309 0.52052 0.73717 0.0
C3916 C 0.0718 0.52522 0.74254 0.0
H3917 H 0.06261 0.46355 0.88464 0.0
H3918 H 0.06918 0.47779 0.82778 0.0
C3919 C 0.06698 0.53238 0.70875 0.0
C3920 C 0.08681 0.51089 0.76839 0.0
H3921 H 0.08896 0.48098 0.77225 0.0
C3922 C 0.08697 0.51304 0.81571 0.0
C3923 C 0.08796 0.4992 0.7525 0.0
C3924 C 0.08744 0.49626 0.70216 0.0
C3925 C 0.08744 0.50378 0.84757 0.0
C3926 C 0.08797 0.49205 0.83164 0.0
C3927 C 0.08866 0.48997 0.78436 0.0
C3928 C 0.08544 0.48195 0.86246 0.0
C3929 C 0.08635 0.50657 0.89788 0.0
C3930 C 0.09266 0.4791 0.89994 0.0
C3931 C 0.08893 0.47077 0.93248 0.0
C3932 C 0.07795 0.46528 0.92779 0.0
C3933 C 0.07117 0.46759 0.88874 0.0
C3934 C 0.0749 0.47576 0.85631 0.0
H3935 H 0.08463 0.51603 0.90413 0.0
H3936 H 0.07912 0.50137 0.91347 0.0
H3937 H 0.09462 0.50417 0.91559 0.0
H3938 H 0.10089 0.48367 0.9051 0.0
H3939 H 0.09421 0.46927 0.96274 0.0
H3940 H 0.73844 0.81553 0.87385 0.0
H3941 H 0.75006 0.82395 0.9351 0.0
H3942 H 0.71929 0.84118 0.98867 0.0
H3943 H 0.70738 0.83252 0.92659 0.0
H3944 H 0.75458 0.84692 0.9659 0.0
H3945 H 0.73039 0.81997 0.09476 0.0
H3946 H 0.72888 0.81734 0.03419 0.0
H3947 H 0.72212 0.82996 0.0597 0.0
C3948 C 0.7341 0.82119 0.89833 0.0
C3949 C 0.72194 0.82321 0.89583 0.0
C3950 C 0.7408 0.82608 0.93322 0.0
C3951 C 0.73555 0.83308 0.96682 0.0
C3952 C 0.7235 0.83567 0.96332 0.0
H3953 H 0.77482 0.83668 0.2235 0.0
H3954 H 0.76074 0.84385 0.1664 0.0
C3955 C 0.71672 0.8308 0.92782 0.0
C3956 C 0.74276 0.83654 0.00697 0.0
H3957 H 0.74829 0.82809 0.11693 0.0
C3958 C 0.75307 0.84307 0.99935 0.0
C3959 C 0.74079 0.83152 0.05062 0.0
C3960 C 0.73 0.82425 0.06062 0.0
C3961 C 0.76178 0.84404 0.03317 0.0
C3962 C 0.76022 0.83822 0.07548 0.0
C3963 C 0.74951 0.83252 0.0844 0.0
C3964 C 0.77 0.8365 0.10847 0.0
C3965 C 0.77277 0.85093 0.02266 0.0
C3966 C 0.78008 0.8303 0.09481 0.0
C3967 C 0.78813 0.82628 0.12737 0.0
C3968 C 0.78626 0.82844 0.174 0.0
C3969 C 0.77659 0.83522 0.18751 0.0
C3970 C 0.76851 0.83922 0.15498 0.0
H3971 H 0.77099 0.85803 0.99754 0.0
H3972 H 0.77657 0.85486 0.0541 0.0
H3973 H 0.77939 0.84497 0.00731 0.0
H3974 H 0.78128 0.82779 0.05937 0.0
H3975 H 0.79533 0.82074 0.11644 0.0
H3976 H 0.44479 0.52131 0.45433 0.0
H3977 H 0.43845 0.50802 0.39388 0.0
H3978 H 0.4158 0.53488 0.33943 0.0
H3979 H 0.42206 0.54836 0.40088 0.0
H3980 H 0.41379 0.50073 0.36232 0.0
H3981 H 0.44124 0.52546 0.23679 0.0
H3982 H 0.44382 0.52649 0.29761 0.0
H3983 H 0.43121 0.53343 0.27296 0.0
C3984 C 0.43832 0.52438 0.42993 0.0
C3985 C 0.43398 0.53593 0.43217 0.0
C3986 C 0.43467 0.51673 0.39551 0.0
C3987 C 0.42671 0.52046 0.3621 0.0
C3988 C 0.42197 0.53184 0.36499 0.0
H3989 H 0.42417 0.48314 0.10133 0.0
H3990 H 0.4181 0.4969 0.16133 0.0
C3991 C 0.42552 0.53951 0.40008 0.0
C3992 C 0.42433 0.51266 0.32249 0.0
H3993 H 0.43355 0.50742 0.2133 0.0
C3994 C 0.4179 0.50227 0.32936 0.0
C3995 C 0.42973 0.51467 0.27965 0.0
C3996 C 0.43694 0.52558 0.27093 0.0
C3997 C 0.417 0.4937 0.29483 0.0
C3998 C 0.42296 0.49542 0.25277 0.0
C3999 C 0.42895 0.50606 0.24537 0.0
C4000 C 0.42407 0.48603 0.21747 0.0
C4001 C 0.40976 0.48286 0.30399 0.0
C4002 C 0.42905 0.47511 0.22889 0.0
C4003 C 0.43231 0.46717 0.19459 0.0
C4004 C 0.4307 0.47002 0.14832 0.0
C4005 C 0.42518 0.48063 0.13689 0.0
C4006 C 0.42183 0.48853 0.17115 0.0
H4007 H 0.40256 0.48473 0.32859 0.0
H4008 H 0.40588 0.47929 0.27202 0.0
H4009 H 0.41543 0.47602 0.3195 0.0
H4010 H 0.43122 0.47307 0.26407 0.0
H4011 H 0.43692 0.45922 0.20407 0.0
H4012 H 0.78089 0.19847 0.44206 0.0
H4013 H 0.76694 0.19096 0.49818 0.0
H4014 H 0.76256 0.15944 0.41822 0.0
H4015 H 0.77657 0.16714 0.36107 0.0
H4016 H 0.74139 0.16987 0.44065 0.0
H4017 H 0.76831 0.16595 0.5966 0.0
H4018 H 0.77034 0.18004 0.57038 0.0
H4019 H 0.77473 0.16698 0.54018 0.0
C4020 C 0.77711 0.18985 0.43676 0.0
C4021 C 0.77978 0.1834 0.39717 0.0
C4022 C 0.7692 0.1855 0.46916 0.0
C4023 C 0.76376 0.17456 0.46289 0.0
C4024 C 0.76672 0.16787 0.42404 0.0
H4025 H 0.71562 0.16248 0.69413 0.0
H4026 H 0.7293 0.15652 0.63313 0.0
C4027 C 0.77477 0.17221 0.3916 0.0
C4028 C 0.75418 0.17089 0.49476 0.0
H4029 H 0.74751 0.1696 0.60866 0.0
C4030 C 0.74277 0.16951 0.47734 0.0
C4031 C 0.75592 0.1702 0.54266 0.0
C4032 C 0.76802 0.17074 0.56349 0.0
C4033 C 0.733 0.16843 0.50662 0.0
C4034 C 0.73464 0.16894 0.55466 0.0
C4035 C 0.74615 0.16933 0.57194 0.0
C4036 C 0.72466 0.17071 0.58719 0.0
C4037 C 0.72099 0.16709 0.48558 0.0
C4038 C 0.7172 0.18039 0.58127 0.0
C4039 C 0.70935 0.18366 0.61566 0.0
C4040 C 0.70875 0.17737 0.65697 0.0
C4041 C 0.71563 0.16724 0.66204 0.0
C4042 C 0.72356 0.16395 0.62742 0.0
H4043 H 0.72149 0.16221 0.45272 0.0
H4044 H 0.71485 0.16242 0.50885 0.0
H4045 H 0.71737 0.17591 0.47797 0.0
H4046 H 0.71805 0.186 0.55151 0.0
H4047 H 0.70439 0.19171 0.61146 0.0
H4048 H 0.93795 0.48996 0.46513 0.0
H4049 H 0.93091 0.50166 0.40109 0.0
H4050 H 0.92274 0.47002 0.32656 0.0
H4051 H 0.92993 0.45815 0.39138 0.0
H4052 H 0.93756 0.48542 0.27977 0.0
H4053 H 0.89937 0.51 0.34564 0.0
H4054 H 0.91169 0.51084 0.38365 0.0
H4055 H 0.90479 0.49686 0.37308 0.0
C4056 C 0.93426 0.48548 0.43576 0.0
C4057 C 0.93438 0.47315 0.43335 0.0
C4058 C 0.93019 0.49219 0.39915 0.0
C4059 C 0.92613 0.48675 0.35914 0.0
C4060 C 0.92571 0.4744 0.35734 0.0
H4061 H 0.92479 0.52306 0.09297 0.0
H4062 H 0.92024 0.50826 0.15138 0.0
C4063 C 0.92971 0.46763 0.39444 0.0
C4064 C 0.92392 0.49407 0.31781 0.0
H4065 H 0.90976 0.51888 0.28218 0.0
C4066 C 0.93128 0.49257 0.27972 0.0
C4067 C 0.91583 0.50349 0.31803 0.0
C4068 C 0.9074 0.50533 0.35716 0.0
C4069 C 0.9313 0.50062 0.24319 0.0
C4070 C 0.92347 0.5103 0.24416 0.0
C4071 C 0.91575 0.5115 0.28136 0.0
C4072 C 0.92385 0.51972 0.20874 0.0
C4073 C 0.94024 0.49906 0.20547 0.0
C4074 C 0.92644 0.53136 0.22143 0.0
C4075 C 0.9286 0.53993 0.18802 0.0
C4076 C 0.92822 0.53698 0.14144 0.0
C4077 C 0.9249 0.52557 0.12873 0.0
C4078 C 0.92252 0.51706 0.16208 0.0
H4079 H 0.94732 0.49286 0.21542 0.0
H4080 H 0.93585 0.49544 0.17467 0.0
H4081 H 0.94434 0.50758 0.19606 0.0
H4082 H 0.92751 0.53364 0.25717 0.0
H4083 H 0.93151 0.54857 0.19861 0.0
H4084 H 0.22518 0.17368 0.86608 0.0
H4085 H 0.23979 0.17089 0.92718 0.0
H4086 H 0.21875 0.19205 0.01785 0.0
H4087 H 0.20421 0.19462 0.95745 0.0
H4088 H 0.25229 0.18869 0.96346 0.0
H4089 H 0.22875 0.16667 0.10479 0.0
H4090 H 0.22313 0.16688 0.04701 0.0
H4091 H 0.22077 0.17919 0.0846 0.0
C4092 C 0.22343 0.17718 0.89985 0.0
C4093 C 0.21338 0.18402 0.90765 0.0
C4094 C 0.23184 0.17574 0.93458 0.0
C4095 C 0.23033 0.1811 0.97761 0.0
C4096 C 0.22 0.18749 0.98573 0.0
H4097 H 0.27352 0.21482 0.1705 0.0
H4098 H 0.26025 0.20784 0.11095 0.0
C4099 C 0.21165 0.18893 0.95118 0.0
C4100 C 0.24003 0.18138 0.01198 0.0
H4101 H 0.24567 0.17842 0.1265 0.0
C4102 C 0.25091 0.18618 0.99887 0.0
C4103 C 0.23833 0.1781 0.05835 0.0
C4104 C 0.22714 0.17231 0.0744 0.0
C4105 C 0.25979 0.18843 0.03121 0.0
C4106 C 0.25777 0.18585 0.07788 0.0
C4107 C 0.24718 0.18046 0.09071 0.0
C4108 C 0.26604 0.18981 0.11412 0.0
C4109 C 0.27117 0.19391 0.01567 0.0
C4110 C 0.27369 0.18195 0.13601 0.0
C4111 C 0.28141 0.18593 0.17024 0.0
C4112 C 0.28151 0.19782 0.18343 0.0
C4113 C 0.27373 0.2056 0.16141 0.0
C4114 C 0.26612 0.20164 0.12721 0.0
H4115 H 0.27212 0.19375 0.97782 0.0
H4116 H 0.2715 0.20319 0.02723 0.0
H4117 H 0.27873 0.18926 0.03131 0.0
H4118 H 0.27374 0.17277 0.12642 0.0
H4119 H 0.28727 0.1797 0.18636 0.0
H4120 H 0.57927 0.47789 0.60698 0.0
H4121 H 0.58336 0.49271 0.66572 0.0
H4122 H 0.57393 0.46778 0.77067 0.0
H4123 H 0.57001 0.45296 0.71185 0.0
H4124 H 0.56635 0.50108 0.72088 0.0
H4125 H 0.60192 0.48354 0.82977 0.0
H4126 H 0.59887 0.47781 0.77339 0.0
H4127 H 0.59023 0.47317 0.82176 0.0
C4128 C 0.57871 0.47541 0.64272 0.0
C4129 C 0.57477 0.46414 0.65495 0.0
C4130 C 0.58088 0.48393 0.67631 0.0
C4131 C 0.57909 0.4814 0.72291 0.0
C4132 C 0.5757 0.46993 0.73523 0.0
H4133 H 0.56297 0.51659 0.97141 0.0
H4134 H 0.5687 0.50329 0.90994 0.0
C4135 C 0.57355 0.4614 0.70159 0.0
C4136 C 0.57924 0.49103 0.75777 0.0
H4137 H 0.58996 0.49868 0.86305 0.0
C4138 C 0.5717 0.50066 0.75153 0.0
C4139 C 0.58615 0.49051 0.79803 0.0
C4140 C 0.59484 0.48076 0.806 0.0
C4141 C 0.57047 0.50945 0.78512 0.0
C4142 C 0.57711 0.50874 0.82599 0.0
C4143 C 0.58491 0.49929 0.83169 0.0
C4144 C 0.57512 0.51698 0.86506 0.0
C4145 C 0.5616 0.51908 0.77764 0.0
C4146 C 0.5772 0.52915 0.86128 0.0
C4147 C 0.57395 0.53684 0.89686 0.0
C4148 C 0.56852 0.53245 0.93656 0.0
C4149 C 0.56709 0.52023 0.94111 0.0
C4150 C 0.57038 0.5126 0.90597 0.0
H4151 H 0.55576 0.51725 0.74802 0.0
H4152 H 0.55607 0.52028 0.80862 0.0
H4153 H 0.56627 0.52747 0.77098 0.0
H4154 H 0.581 0.53274 0.83029 0.0
H4155 H 0.57504 0.54621 0.89221 0.0
H4156 H 0.23553 0.81338 0.7324 0.0
H4157 H 0.24948 0.81824 0.67189 0.0
H4158 H 0.22077 0.82639 0.58118 0.0
H4159 H 0.20671 0.82189 0.64284 0.0
H4160 H 0.25113 0.80602 0.59458 0.0
H4161 H 0.2433 0.8527 0.55016 0.0
H4162 H 0.23774 0.84615 0.60215 0.0
H4163 H 0.23033 0.84374 0.54863 0.0
C4164 C 0.23219 0.81663 0.70005 0.0
C4165 C 0.22003 0.81743 0.69256 0.0
C4166 C 0.24019 0.8193 0.66528 0.0
C4167 C 0.23626 0.82271 0.62173 0.0
C4168 C 0.22409 0.82402 0.61464 0.0
H4169 H 0.27004 0.81739 0.35898 0.0
H4170 H 0.25644 0.82087 0.42231 0.0
C4171 C 0.21603 0.82149 0.64992 0.0
C4172 C 0.2449 0.82364 0.58323 0.0
H4173 H 0.25545 0.84176 0.49895 0.0
C4174 C 0.25215 0.81391 0.57416 0.0
C4175 C 0.24623 0.83387 0.55605 0.0
C4176 C 0.23907 0.84475 0.5649 0.0
C4177 C 0.26051 0.81409 0.53873 0.0
C4178 C 0.26177 0.82428 0.51149 0.0
C4179 C 0.25455 0.83401 0.52022 0.0
C4180 C 0.27002 0.82449 0.47191 0.0
C4181 C 0.26778 0.80327 0.52971 0.0
C4182 C 0.28221 0.8258 0.47831 0.0
C4183 C 0.29005 0.82399 0.44173 0.0
C4184 C 0.28578 0.82075 0.39843 0.0
C4185 C 0.27356 0.82011 0.39175 0.0
C4186 C 0.26577 0.82203 0.42798 0.0
H4187 H 0.26533 0.79584 0.55247 0.0
H4188 H 0.2667 0.80046 0.49355 0.0
H4189 H 0.27721 0.80533 0.53503 0.0
H4190 H 0.28567 0.82761 0.51209 0.0
H4191 H 0.29941 0.82421 0.44816 0.0
H4192 H 0.57342 0.95022 0.36051 0.0
H4193 H 0.57798 0.96434 0.29961 0.0
H4194 H 0.58938 0.98941 0.40079 0.0
H4195 H 0.58494 0.97525 0.46143 0.0
H4196 H 0.56504 0.98509 0.30147 0.0
H4197 H 0.61271 0.99536 0.29535 0.0
H4198 H 0.60704 0.98192 0.31993 0.0
H4199 H 0.60621 0.99542 0.35142 0.0
C4200 C 0.57761 0.95846 0.36941 0.0
C4201 C 0.57918 0.96153 0.41548 0.0
C4202 C 0.58006 0.9666 0.3347 0.0
C4203 C 0.58409 0.97794 0.34551 0.0
C4204 C 0.58655 0.98066 0.39138 0.0
H4205 H 0.57236 0.04268 0.18907 0.0
H4206 H 0.57874 0.02937 0.25083 0.0
C4207 C 0.58409 0.97252 0.42606 0.0
C4208 C 0.58366 0.98742 0.31039 0.0
H4209 H 0.60002 0.00801 0.25327 0.0
C4210 C 0.57272 0.99004 0.29086 0.0
C4211 C 0.59363 0.99405 0.29712 0.0
C4212 C 0.6056 0.99153 0.31671 0.0
C4213 C 0.57147 0.99901 0.25828 0.0
C4214 C 0.58144 0.0055 0.24438 0.0
C4215 C 0.59239 0.00303 0.26419 0.0
C4216 C 0.5805 0.01422 0.20678 0.0
C4217 C 0.55949 1.00146 0.23847 0.0
C4218 C 0.57982 0.0102 0.16156 0.0
C4219 C 0.57613 0.01771 0.12666 0.0
C4220 C 0.5732 0.02944 0.13615 0.0
C4221 C 0.57481 0.03375 0.18074 0.0
C4222 C 0.57839 0.02615 0.216 0.0
H4223 H 0.55242 0.99662 0.25673 0.0
H4224 H 0.55756 0.01101 0.24003 0.0
H4225 H 0.55934 0.99882 0.20191 0.0
H4226 H 0.58132 1.00102 0.15382 0.0
H4227 H 0.57482 0.01415 0.09266 0.0
H4228 H 0.22944 0.28927 0.41164 0.0
H4229 H 0.243 0.29675 0.46927 0.0
H4230 H 0.22867 0.33149 0.45325 0.0
H4231 H 0.21492 0.32406 0.39517 0.0
H4232 H 0.25539 0.32902 0.45598 0.0
H4233 H 0.2317 0.30789 0.60041 0.0
H4234 H 0.23444 0.29852 0.55207 0.0
H4235 H 0.2248 0.31089 0.54598 0.0
C4236 C 0.22912 0.29851 0.42019 0.0
C4237 C 0.22101 0.30604 0.39886 0.0
C4238 C 0.23691 0.30277 0.45321 0.0
C4239 C 0.23679 0.31465 0.46575 0.0
C4240 C 0.22888 0.32228 0.44406 0.0
H4241 H 0.27348 0.33125 0.71904 0.0
H4242 H 0.25971 0.33387 0.65543 0.0
C4243 C 0.22101 0.31801 0.41103 0.0
C4244 C 0.24478 0.31886 0.50244 0.0
H4245 H 0.251 0.31475 0.61551 0.0
C4246 C 0.25437 0.32606 0.49105 0.0
C4247 C 0.24335 0.31511 0.54823 0.0
C4248 C 0.23297 0.30775 0.56271 0.0
C4249 C 0.26287 0.32914 0.52395 0.0
C4250 C 0.2618 0.32482 0.56923 0.0
C4251 C 0.25189 0.31808 0.58089 0.0
C4252 C 0.27118 0.32625 0.60441 0.0
C4253 C 0.27297 0.33691 0.5098 0.0
C4254 C 0.28244 0.32163 0.59667 0.0
C4255 C 0.29037 0.32033 0.63293 0.0
C4256 C 0.28719 0.32362 0.67752 0.0
C4257 C 0.27628 0.32901 0.6847 0.0
C4258 C 0.26836 0.33037 0.64843 0.0
H4259 H 0.27055 0.34259 0.48035 0.0
H4260 H 0.27593 0.34257 0.53851 0.0
H4261 H 0.28045 0.33134 0.49898 0.0
H4262 H 0.28476 0.31809 0.56349 0.0
H4263 H 0.29855 0.31574 0.62691 0.0
H4264 H 0.93165 0.01914 0.96397 0.0
H4265 H 0.92558 0.00656 0.9009 0.0
H4266 H 0.91415 0.03699 0.8252 0.0
H4267 H 0.92042 0.04975 0.8889 0.0
H4268 H 0.90534 0.00214 0.84915 0.0
H4269 H 0.94074 0.02335 0.74649 0.0
H4270 H 0.93927 0.0257 0.80722 0.0
H4271 H 0.92946 0.03287 0.76808 0.0
C4272 C 0.92755 0.02314 0.93438 0.0
C4273 C 0.92656 0.03542 0.93113 0.0
C4274 C 0.92406 0.01593 0.89835 0.0
C4275 C 0.9196 0.02082 0.85795 0.0
C4276 C 0.91773 0.03304 0.85587 0.0
H4277 H 0.92356 0.98495 0.59553 0.0
H4278 H 0.91673 0.99859 0.6544 0.0
C4279 C 0.92118 0.04032 0.89237 0.0
C4280 C 0.91836 0.01313 0.81703 0.0
H4281 H 0.93154 0.00696 0.71492 0.0
C4282 C 0.91091 0.00329 0.81936 0.0
C4283 C 0.92574 0.01455 0.77842 0.0
C4284 C 0.93433 0.02462 0.77474 0.0
C4285 C 0.91079 0.99474 0.78454 0.0
C4286 C 0.91847 0.99597 0.74672 0.0
C4287 C 0.92561 0.00602 0.74374 0.0
C4288 C 0.9199 0.98673 0.71097 0.0
C4289 C 0.90251 0.98446 0.78884 0.0
C4290 C 0.92349 0.97529 0.72277 0.0
C4291 C 0.92715 0.96738 0.68886 0.0
C4292 C 0.92741 0.97085 0.64279 0.0
C4293 C 0.92321 0.98201 0.6308 0.0
C4294 C 0.9194 0.98983 0.66447 0.0
H4295 H 0.89475 0.98673 0.8101 0.0
H4296 H 0.89943 0.98143 0.75479 0.0
H4297 H 0.90713 0.97709 0.80589 0.0
H4298 H 0.92427 0.97275 0.75834 0.0
H4299 H 0.93069 0.95895 0.69898 0.0
H4300 H 0.2092 0.68998 0.13497 0.0
H4301 H 0.22297 0.68428 0.07505 0.0
H4302 H 0.23567 0.65608 0.16017 0.0
H4303 H 0.22174 0.66187 0.22067 0.0
H4304 H 0.25327 0.67059 0.13124 0.0
H4305 H 0.22655 0.65843 0.98132 0.0
H4306 H 0.22157 0.67203 0.00521 0.0
H4307 H 0.22058 0.65875 0.03862 0.0
C4308 C 0.21457 0.68224 0.14007 0.0
C4309 C 0.21424 0.67619 0.1819 0.0
C4310 C 0.22246 0.67898 0.10576 0.0
C4311 C 0.23028 0.66962 0.11259 0.0
C4312 C 0.22963 0.66322 0.1538 0.0
H4313 H 0.28258 0.66562 0.88655 0.0
H4314 H 0.26945 0.6577 0.94647 0.0
C4315 C 0.22161 0.66645 0.18816 0.0
C4316 C 0.24009 0.66784 0.07946 0.0
H4317 H 0.24581 0.66695 0.96462 0.0
C4318 C 0.25165 0.66945 0.09494 0.0
C4319 C 0.23809 0.66621 0.03203 0.0
C4320 C 0.22602 0.66363 0.01342 0.0
C4321 C 0.26107 0.67053 0.06404 0.0
C4322 C 0.25887 0.67008 0.01643 0.0
C4323 C 0.2475 0.66742 1.0011 0.0
C4324 C 0.26774 0.6742 0.98254 0.0
C4325 C 0.27323 0.67271 0.08253 0.0
C4326 C 0.27115 0.68603 0.98308 0.0
C4327 C 0.27843 0.69054 0.94894 0.0
C4328 C 0.28261 0.68332 0.91349 0.0
C4329 C 0.27959 0.67134 0.91372 0.0
C4330 C 0.27206 0.66684 0.94775 0.0
H4331 H 0.27418 0.6692 0.11782 0.0
H4332 H 0.28001 0.66864 0.06029 0.0
H4333 H 0.27489 0.68231 0.08374 0.0
H4334 H 0.2678 0.69191 0.00909 0.0
H4335 H 0.28061 0.6998 0.94973 0.0
H4336 H 0.4298 0.98769 0.97729 0.0
H4337 H 0.42336 1.00127 0.9177 0.0
H4338 H 0.41923 0.97231 0.82416 0.0
H4339 H 0.42565 0.95859 0.88447 0.0
H4340 H 0.43432 0.99081 0.79318 0.0
H4341 H 0.39198 0.00897 0.85387 0.0
H4342 H 0.40335 0.00879 0.89645 0.0
H4343 H 0.39778 0.99516 0.87428 0.0
C4344 C 0.42706 0.98416 0.94457 0.0
C4345 C 0.42799 0.97205 0.93581 0.0
C4346 C 0.42339 0.99194 0.91044 0.0
C4347 C 0.42065 0.98785 0.86645 0.0
C4348 C 0.42114 0.97567 0.858 0.0
H4349 H 0.40996 0.02799 0.61369 0.0
H4350 H 0.40705 0.0139 0.67631 0.0
C4351 C 0.42469 0.96781 0.89255 0.0
C4352 C 0.41875 0.99644 0.82849 0.0
H4353 H 0.40199 0.01994 0.79554 0.0
C4354 C 0.4271 0.997 0.7932 0.0
C4355 C 0.40946 0.00471 0.82888 0.0
C4356 C 0.40006 0.00436 0.86517 0.0
C4357 C 0.42661 0.00574 0.75918 0.0
C4358 C 0.41751 0.0142 0.76022 0.0
C4359 C 0.40899 0.0135 0.79484 0.0
C4360 C 0.41699 0.02388 0.72583 0.0
C4361 C 0.43628 0.00627 0.724 0.0
C4362 C 0.42302 0.03447 0.73347 0.0
C4363 C 0.42444 0.04267 0.69793 0.0
C4364 C 0.41987 0.04043 0.65408 0.0
C4365 C 0.41315 0.0302 0.64753 0.0
C4366 C 0.41165 0.02204 0.68313 0.0
H4367 H 0.44104 0.9978 0.72123 0.0
H4368 H 0.43285 0.00867 0.68972 0.0
H4369 H 0.44266 0.0131 0.73471 0.0
H4370 H 0.42732 0.03602 0.76598 0.0
H4371 H 0.43011 0.05018 0.70349 0.0
H4372 H 0.77858 0.668 0.71194 0.0
H4373 H 0.7647 0.66181 0.652 0.0
H4374 H 0.77803 0.68899 0.56312 0.0
H4375 H 0.79179 0.69508 0.6226 0.0
H4376 H 0.74746 0.6764 0.62105 0.0
H4377 H 0.774 0.66227 0.47297 0.0
H4378 H 0.77996 0.66314 0.53017 0.0
H4379 H 0.779 0.67609 0.49497 0.0
C4380 C 0.77891 0.67223 0.67874 0.0
C4381 C 0.78647 0.68179 0.67133 0.0
C4382 C 0.77089 0.66879 0.64468 0.0
C4383 C 0.7704 0.6748 0.60259 0.0
C4384 C 0.77841 0.68396 0.59456 0.0
H4385 H 0.71848 0.70134 0.43487 0.0
H4386 H 0.73222 0.69513 0.49326 0.0
C4387 C 0.78631 0.68744 0.62859 0.0
C4388 C 0.76055 0.67281 0.56971 0.0
H4389 H 0.75458 0.66995 0.45547 0.0
C4390 C 0.74901 0.67466 0.58506 0.0
C4391 C 0.76247 0.67049 0.52266 0.0
C4392 C 0.77453 0.66776 0.50431 0.0
C4393 C 0.73952 0.67512 0.55432 0.0
C4394 C 0.74158 0.67375 0.50684 0.0
C4395 C 0.75297 0.67104 0.49181 0.0
C4396 C 0.73249 0.67694 0.47233 0.0
C4397 C 0.72741 0.67758 0.57275 0.0
C4398 C 0.72799 0.66878 0.44059 0.0
C4399 C 0.71994 0.67236 0.40668 0.0
C4400 C 0.7165 0.68419 0.40356 0.0
C4401 C 0.72092 0.69219 0.43598 0.0
C4402 C 0.72877 0.68863 0.46976 0.0
H4403 H 0.72658 0.67479 0.60907 0.0
H4404 H 0.72572 0.68716 0.57113 0.0
H4405 H 0.72057 0.67303 0.55222 0.0
H4406 H 0.73082 0.65971 0.44172 0.0
H4407 H 0.7168 0.66602 0.38193 0.0
H4408 H 0.07858 0.97994 0.10427 0.0
H4409 H 0.08331 0.99431 0.16369 0.0
H4410 H 0.07508 0.96863 0.26748 0.0
H4411 H 0.07062 0.95417 0.20775 0.0
H4412 H 0.06691 0.0022 0.22049 0.0
H4413 H 0.10323 0.98433 0.32482 0.0
H4414 H 0.09975 0.97873 0.26863 0.0
H4415 H 0.09147 0.974 0.31782 0.0
C4416 C 0.07841 0.9772 0.13979 0.0
C4417 C 0.07462 0.96584 0.15148 0.0
C4418 C 0.08097 0.98546 0.17378 0.0
C4419 C 0.07968 0.98259 0.22028 0.0
C4420 C 0.07648 0.97102 0.23202 0.0
H4421 H 0.06434 0.01645 0.47046 0.0
H4422 H 0.07034 0.00353 0.40833 0.0
C4423 C 0.074 0.96271 0.19788 0.0
C4424 C 0.08005 0.99204 0.25569 0.0
H4425 H 0.09147 0.99937 0.36008 0.0
C4426 C 0.07247 1.00169 0.25057 0.0
C4427 C 0.08723 0.9914 0.29512 0.0
C4428 C 0.09596 0.98161 0.30177 0.0
C4429 C 0.07148 0.01037 0.28455 0.0
C4430 C 0.07839 0.00953 0.32467 0.0
C4431 C 0.08623 1.00008 0.32923 0.0
C4432 C 0.07652 0.01753 0.36438 0.0
C4433 C 0.06256 0.02003 0.27836 0.0
C4434 C 0.07842 0.02974 0.36132 0.0
C4435 C 0.075 0.03722 0.39727 0.0
C4436 C 0.0696 0.03256 0.43654 0.0
C4437 C 0.06844 0.0203 0.4405 0.0
C4438 C 0.07188 0.01288 0.40498 0.0
H4439 H 0.0566 0.01834 0.249 0.0
H4440 H 0.05717 0.02106 0.30978 0.0
H4441 H 0.06719 0.02846 0.27201 0.0
H4442 H 0.08213 0.03351 0.33052 0.0
H4443 H 0.07592 0.04662 0.39317 0.0
H4444 H 0.71139 0.32651 0.13507 0.0
H4445 H 0.72546 0.3321 0.07429 0.0
H4446 H 0.75425 0.32269 0.16253 0.0
H4447 H 0.74038 0.31739 0.2229 0.0
H4448 H 0.74905 0.3482 0.08016 0.0
H4449 H 0.75458 0.30081 0.03996 0.0
H4450 H 0.7415 0.30651 0.06685 0.0
H4451 H 0.7547 0.3048 0.09959 0.0
C4452 C 0.72072 0.32601 0.14183 0.0
C4453 C 0.7248 0.32146 0.18364 0.0
C4454 C 0.72875 0.32911 0.10704 0.0
C4455 C 0.74092 0.32768 0.11371 0.0
C4456 C 0.74493 0.32379 0.15641 0.0
H4457 H 0.80349 0.32249 0.94613 0.0
H4458 H 0.78999 0.32441 0.01109 0.0
C4459 C 0.73699 0.32076 0.19088 0.0
C4460 C 0.74953 0.32937 0.07572 0.0
H4461 H 0.76785 0.314 0.00501 0.0
C4462 C 0.7531 0.34075 0.06337 0.0
C4463 C 0.75488 0.31963 0.05412 0.0
C4464 C 0.75122 0.30722 0.06539 0.0
C4465 C 0.76206 0.34262 0.03069 0.0
C4466 C 0.76752 0.33287 0.00949 0.0
C4467 C 0.76381 0.3215 0.02155 0.0
C4468 C 0.77682 0.33412 0.97356 0.0
C4469 C 0.76583 0.35502 0.02002 0.0
C4470 C 0.77423 0.3394 0.93129 0.0
C4471 C 0.78204 0.33842 0.89434 0.0
C4472 C 0.79265 0.33223 0.89882 0.0
C4473 C 0.79565 0.32775 0.94209 0.0
C4474 C 0.7878 0.32865 0.97902 0.0
H4475 H 0.76304 0.36125 0.04715 0.0
H4476 H 0.7755 0.35558 0.01599 0.0
H4477 H 0.76174 0.35782 0.98735 0.0
H4478 H 0.76576 0.34344 0.92568 0.0
H4479 H 0.77925 0.34151 0.86099 0.0
loop_
_geom_bond_atom_site_label_1
_geom_bond_atom_site_label_2
_geom_bond_distance
_geom_bond_site_symmetry_2
_ccdc_geom_bond_type
Zn0 O1 2.055 . S
Zn0 O8 2.046 . S
Zn0 N16 2.036 . S
Zn0 O28 2.053 . S
Zn0 O30 2.066 . S
O1 Zn0 2.055 . S
O1 C4 1.259 1_554 S
C2 O30 1.256 1_556 S
C2 O31 1.244 1_556 S
Zn3 O5 2.046 . S
Zn3 O7 2.055 . S
Zn3 N9 2.036 . S
Zn3 O27 2.066 . S
Zn3 O31 2.053 . S
C4 O1 1.259 1_556 S
C4 O5 1.254 1_556 S
O5 Zn3 2.046 . S
O5 C4 1.254 1_554 S
C6 O27 1.256 . S
C6 O28 1.244 . S
O7 Zn3 2.055 . S
O7 C29 1.259 . S
O8 Zn0 2.046 . S
O8 C29 1.254 . S
N9 Zn3 2.036 . S
N9 C10 1.298 . S
N9 N12 1.398 . S
C10 N9 1.298 . S
C10 N13 1.367 . S
C10 C23 1.481 . S
C11 N12 1.299 . S
C11 N13 1.379 . S
N12 N9 1.398 . S
N12 C11 1.299 . S
N13 C10 1.367 . S
N13 C11 1.379 . S
C14 N16 1.298 . S
C14 N18 1.367 . S
C14 C22 1.481 1_554 S
C15 N17 1.299 . S
C15 N18 1.379 . S
N16 Zn0 2.036 . S
N16 C14 1.298 . S
N16 N17 1.398 . S
N17 C15 1.299 . S
N17 N16 1.398 . S
N18 C14 1.367 . S
N18 C15 1.379 . S
H19 C22 0.980 . S
H20 C22 0.981 . S
H21 C22 0.981 . S
C22 C14 1.481 1_556 S
C22 H19 0.980 . S
C22 H20 0.981 . S
C22 H21 0.981 . S
C23 C10 1.481 . S
C23 H24 0.980 . S
C23 H25 0.981 . S
C23 H26 0.981 . S
H24 C23 0.980 . S
H25 C23 0.981 . S
H26 C23 0.981 . S
O27 Zn3 2.066 . S
O27 C6 1.256 . S
O28 Zn0 2.053 . S
O28 C6 1.244 . S
C29 O7 1.259 . S
C29 O8 1.254 . S
O30 Zn0 2.066 . S
O30 C2 1.256 1_554 S
O31 C2 1.244 1_554 S
O31 Zn3 2.053 . S
Zn32 O33 2.055 . S
Zn32 O40 2.046 . S
Zn32 N48 2.036 . S
Zn32 O60 2.053 . S
Zn32 O62 2.066 . S
O33 Zn32 2.055 . S
O33 C36 1.259 . S
C34 O62 1.256 . S
C34 O63 1.244 . S
Zn35 O37 2.046 . S
Zn35 O39 2.055 . S
Zn35 N41 2.036 . S
Zn35 O59 2.066 . S
Zn35 O63 2.053 . S
C36 O33 1.259 . S
C36 O37 1.254 . S
O37 Zn35 2.046 . S
O37 C36 1.254 . S
C38 O59 1.256 . S
C38 O60 1.244 . S
O39 Zn35 2.055 . S
O39 C61 1.259 . S
O40 Zn32 2.046 . S
O40 C61 1.254 . S
N41 Zn35 2.036 . S
N41 C42 1.298 . S
N41 N44 1.398 . S
C42 N41 1.298 . S
C42 N45 1.367 . S
C42 C55 1.481 . S
C43 N44 1.299 . S
C43 N45 1.379 . S
N44 N41 1.398 . S
N44 C43 1.299 . S
N45 C42 1.367 . S
N45 C43 1.379 . S
C46 N48 1.298 . S
C46 N50 1.367 . S
C46 C54 1.481 . S
C47 N49 1.299 . S
C47 N50 1.379 . S
N48 Zn32 2.036 . S
N48 C46 1.298 . S
N48 N49 1.398 . S
N49 C47 1.299 . S
N49 N48 1.398 . S
N50 C46 1.367 . S
N50 C47 1.379 . S
H51 C54 0.980 . S
H52 C54 0.981 . S
H53 C54 0.981 . S
C54 C46 1.481 . S
C54 H51 0.980 . S
C54 H52 0.981 . S
C54 H53 0.981 . S
C55 C42 1.481 . S
C55 H56 0.980 . S
C55 H57 0.981 . S
C55 H58 0.981 . S
H56 C55 0.980 . S
H57 C55 0.981 . S
H58 C55 0.981 . S
O59 Zn35 2.066 . S
O59 C38 1.256 . S
O60 Zn32 2.053 . S
O60 C38 1.244 . S
C61 O39 1.259 . S
C61 O40 1.254 . S
O62 Zn32 2.066 . S
O62 C34 1.256 . S
O63 C34 1.244 . S
O63 Zn35 2.053 . S
Zn64 O65 2.055 . S
Zn64 O72 2.046 . S
Zn64 N80 2.036 . S
Zn64 O92 2.053 . S
Zn64 O94 2.066 . S
O65 Zn64 2.055 . S
O65 C68 1.259 . S
C66 O94 1.256 . S
C66 O95 1.244 . S
Zn67 O69 2.046 . S
Zn67 O71 2.055 . S
Zn67 N73 2.036 . S
Zn67 O91 2.066 . S
Zn67 O95 2.053 . S
C68 O65 1.259 . S
C68 O69 1.254 . S
O69 Zn67 2.046 . S
O69 C68 1.254 . S
C70 O91 1.256 . S
C70 O92 1.244 . S
O71 Zn67 2.055 . S
O71 C93 1.259 . S
O72 Zn64 2.046 . S
O72 C93 1.254 . S
N73 Zn67 2.036 . S
N73 C74 1.298 . S
N73 N76 1.398 . S
C74 N73 1.298 . S
C74 N77 1.367 . S
C74 C87 1.481 . S
C75 N76 1.299 . S
C75 N77 1.379 . S
N76 N73 1.398 . S
N76 C75 1.299 . S
N77 C74 1.367 . S
N77 C75 1.379 . S
C78 N80 1.298 . S
C78 N82 1.367 . S
C78 C86 1.481 . S
C79 N81 1.299 . S
C79 N82 1.379 . S
N80 Zn64 2.036 . S
N80 C78 1.298 . S
N80 N81 1.398 . S
N81 C79 1.299 . S
N81 N80 1.398 . S
N82 C78 1.367 . S
N82 C79 1.379 . S
H83 C86 0.980 . S
H84 C86 0.981 . S
H85 C86 0.981 . S
C86 C78 1.481 . S
C86 H83 0.980 . S
C86 H84 0.981 . S
C86 H85 0.981 . S
C87 C74 1.481 . S
C87 H88 0.980 . S
C87 H89 0.981 . S
C87 H90 0.981 . S
H88 C87 0.980 . S
H89 C87 0.981 . S
H90 C87 0.981 . S
O91 Zn67 2.066 . S
O91 C70 1.256 . S
O92 Zn64 2.053 . S
O92 C70 1.244 . S
C93 O71 1.259 . S
C93 O72 1.254 . S
O94 Zn64 2.066 . S
O94 C66 1.256 . S
O95 C66 1.244 . S
O95 Zn67 2.053 . S
Zn96 O97 2.055 . S
Zn96 O104 2.046 . S
Zn96 N112 2.036 . S
Zn96 O124 2.053 . S
Zn96 O126 2.066 . S
O97 Zn96 2.055 . S
O97 C100 1.259 . S
C98 O126 1.256 . S
C98 O127 1.244 . S
Zn99 O101 2.046 . S
Zn99 O103 2.055 . S
Zn99 N105 2.036 . S
Zn99 O123 2.066 . S
Zn99 O127 2.053 . S
C100 O97 1.259 . S
C100 O101 1.254 . S
O101 Zn99 2.046 . S
O101 C100 1.254 . S
C102 O123 1.256 . S
C102 O124 1.244 . S
O103 Zn99 2.055 . S
O103 C125 1.259 . S
O104 Zn96 2.046 . S
O104 C125 1.254 . S
N105 Zn99 2.036 . S
N105 C106 1.298 . S
N105 N108 1.398 . S
C106 N105 1.298 . S
C106 N109 1.367 . S
C106 C119 1.481 . S
C107 N108 1.299 . S
C107 N109 1.379 . S
N108 N105 1.398 . S
N108 C107 1.299 . S
N109 C106 1.367 . S
N109 C107 1.379 . S
C110 N112 1.298 . S
C110 N114 1.367 . S
C110 C118 1.481 . S
C111 N113 1.299 . S
C111 N114 1.379 . S
N112 Zn96 2.036 . S
N112 C110 1.298 . S
N112 N113 1.398 . S
N113 C111 1.299 . S
N113 N112 1.398 . S
N114 C110 1.367 . S
N114 C111 1.379 . S
H115 C118 0.980 . S
H116 C118 0.981 . S
H117 C118 0.981 . S
C118 C110 1.481 . S
C118 H115 0.980 . S
C118 H116 0.981 . S
C118 H117 0.981 . S
C119 C106 1.481 . S
C119 H120 0.980 . S
C119 H121 0.981 . S
C119 H122 0.981 . S
H120 C119 0.980 . S
H121 C119 0.981 . S
H122 C119 0.981 . S
O123 Zn99 2.066 . S
O123 C102 1.256 . S
O124 Zn96 2.053 . S
O124 C102 1.244 . S
C125 O103 1.259 . S
C125 O104 1.254 . S
O126 Zn96 2.066 . S
O126 C98 1.256 . S
O127 C98 1.244 . S
O127 Zn99 2.053 . S
Zn128 O129 2.055 . S
Zn128 O136 2.046 . S
Zn128 N144 2.036 . S
Zn128 O156 2.053 . S
Zn128 O158 2.066 . S
O129 Zn128 2.055 . S
O129 C132 1.259 . S
C130 O158 1.256 . S
C130 O159 1.244 . S
Zn131 O133 2.046 . S
Zn131 O135 2.055 . S
Zn131 N137 2.036 . S
Zn131 O155 2.066 . S
Zn131 O159 2.053 . S
C132 O129 1.259 . S
C132 O133 1.254 . S
O133 Zn131 2.046 . S
O133 C132 1.254 . S
C134 O155 1.256 . S
C134 O156 1.244 . S
O135 Zn131 2.055 . S
O135 C157 1.259 . S
O136 Zn128 2.046 . S
O136 C157 1.254 . S
N137 Zn131 2.036 . S
N137 C138 1.298 . S
N137 N140 1.398 . S
C138 N137 1.298 . S
C138 N141 1.367 . S
C138 C151 1.481 . S
C139 N140 1.299 . S
C139 N141 1.379 . S
N140 N137 1.398 . S
N140 C139 1.299 . S
N141 C138 1.367 . S
N141 C139 1.379 . S
C142 N144 1.298 . S
C142 N146 1.367 . S
C142 C150 1.481 . S
C143 N145 1.299 . S
C143 N146 1.379 . S
N144 Zn128 2.036 . S
N144 C142 1.298 . S
N144 N145 1.398 . S
N145 C143 1.299 . S
N145 N144 1.398 . S
N146 C142 1.367 . S
N146 C143 1.379 . S
H147 C150 0.980 . S
H148 C150 0.981 . S
H149 C150 0.981 . S
C150 C142 1.481 . S
C150 H147 0.980 . S
C150 H148 0.981 . S
C150 H149 0.981 . S
C151 C138 1.481 . S
C151 H152 0.980 . S
C151 H153 0.981 . S
C151 H154 0.981 . S
H152 C151 0.980 . S
H153 C151 0.981 . S
H154 C151 0.981 . S
O155 Zn131 2.066 . S
O155 C134 1.256 . S
O156 Zn128 2.053 . S
O156 C134 1.244 . S
C157 O135 1.259 . S
C157 O136 1.254 . S
O158 Zn128 2.066 . S
O158 C130 1.256 . S
O159 C130 1.244 . S
O159 Zn131 2.053 . S
Zn160 O161 2.055 . S
Zn160 O168 2.046 . S
Zn160 N176 2.036 . S
Zn160 O188 2.053 . S
Zn160 O190 2.066 . S
O161 Zn160 2.055 . S
O161 C164 1.259 . S
C162 O190 1.256 . S
C162 O191 1.244 . S
Zn163 O165 2.046 . S
Zn163 O167 2.055 . S
Zn163 N169 2.036 . S
Zn163 O187 2.066 . S
Zn163 O191 2.053 . S
C164 O161 1.259 . S
C164 O165 1.254 . S
O165 Zn163 2.046 . S
O165 C164 1.254 . S
C166 O187 1.256 . S
C166 O188 1.244 . S
O167 Zn163 2.055 . S
O167 C189 1.259 . S
O168 Zn160 2.046 . S
O168 C189 1.254 . S
N169 Zn163 2.036 . S
N169 C170 1.298 . S
N169 N172 1.398 . S
C170 N169 1.298 . S
C170 N173 1.367 . S
C170 C183 1.481 . S
C171 N172 1.299 . S
C171 N173 1.379 . S
N172 N169 1.398 . S
N172 C171 1.299 . S
N173 C170 1.367 . S
N173 C171 1.379 . S
C174 N176 1.298 . S
C174 N178 1.367 . S
C174 C182 1.481 . S
C175 N177 1.299 . S
C175 N178 1.379 . S
N176 Zn160 2.036 . S
N176 C174 1.298 . S
N176 N177 1.398 . S
N177 C175 1.299 . S
N177 N176 1.398 . S
N178 C174 1.367 . S
N178 C175 1.379 . S
H179 C182 0.980 . S
H180 C182 0.981 . S
H181 C182 0.981 . S
C182 C174 1.481 . S
C182 H179 0.980 . S
C182 H180 0.981 . S
C182 H181 0.981 . S
C183 C170 1.481 . S
C183 H184 0.980 . S
C183 H185 0.981 . S
C183 H186 0.981 . S
H184 C183 0.980 . S
H185 C183 0.981 . S
H186 C183 0.981 . S
O187 Zn163 2.066 . S
O187 C166 1.256 . S
O188 Zn160 2.053 . S
O188 C166 1.244 . S
C189 O167 1.259 . S
C189 O168 1.254 . S
O190 Zn160 2.066 . S
O190 C162 1.256 . S
O191 C162 1.244 . S
O191 Zn163 2.053 . S
Zn192 O193 2.055 1_554 S
Zn192 O200 2.046 . S
Zn192 N208 2.036 . S
Zn192 O220 2.053 . S
Zn192 O222 2.066 1_554 S
O193 Zn192 2.055 1_556 S
O193 C196 1.259 . S
C194 O222 1.256 . S
C194 O223 1.244 . S
Zn195 O197 2.046 1_554 S
Zn195 O199 2.055 . S
Zn195 N201 2.036 . S
Zn195 O219 2.066 . S
Zn195 O223 2.053 1_554 S
C196 O193 1.259 . S
C196 O197 1.254 . S
O197 Zn195 2.046 1_556 S
O197 C196 1.254 . S
C198 O219 1.256 . S
C198 O220 1.244 . S
O199 Zn195 2.055 . S
O199 C221 1.259 . S
O200 Zn192 2.046 . S
O200 C221 1.254 . S
N201 Zn195 2.036 . S
N201 C202 1.298 . S
N201 N204 1.398 1_554 S
C202 N201 1.298 . S
C202 N205 1.367 . S
C202 C215 1.481 . S
C203 N204 1.299 . S
C203 N205 1.379 1_556 S
N204 N201 1.398 1_556 S
N204 C203 1.299 . S
N205 C202 1.367 . S
N205 C203 1.379 1_554 S
C206 N208 1.298 1_556 S
C206 N210 1.367 . S
C206 C214 1.481 . S
C207 N209 1.299 . S
C207 N210 1.379 1_554 S
N208 Zn192 2.036 . S
N208 C206 1.298 1_554 S
N208 N209 1.398 . S
N209 C207 1.299 . S
N209 N208 1.398 . S
N210 C206 1.367 . S
N210 C207 1.379 1_556 S
H211 C214 0.980 . S
H212 C214 0.981 . S
H213 C214 0.981 . S
C214 C206 1.481 . S
C214 H211 0.980 . S
C214 H212 0.981 . S
C214 H213 0.981 . S
C215 C202 1.481 . S
C215 H216 0.980 . S
C215 H217 0.981 . S
C215 H218 0.981 . S
H216 C215 0.980 . S
H217 C215 0.981 . S
H218 C215 0.981 . S
O219 Zn195 2.066 . S
O219 C198 1.256 . S
O220 Zn192 2.053 . S
O220 C198 1.244 . S
C221 O199 1.259 . S
C221 O200 1.254 . S
O222 Zn192 2.066 1_556 S
O222 C194 1.256 . S
O223 C194 1.244 . S
O223 Zn195 2.053 1_556 S
Zn224 O225 2.055 . S
Zn224 O232 2.046 . S
Zn224 N240 2.036 . S
Zn224 O252 2.053 . S
Zn224 O254 2.066 . S
O225 Zn224 2.055 . S
O225 C228 1.259 . S
C226 O254 1.256 . S
C226 O255 1.244 . S
Zn227 O229 2.046 . S
Zn227 O231 2.055 . S
Zn227 N233 2.036 . S
Zn227 O251 2.066 . S
Zn227 O255 2.053 . S
C228 O225 1.259 . S
C228 O229 1.254 . S
O229 Zn227 2.046 . S
O229 C228 1.254 . S
C230 O251 1.256 . S
C230 O252 1.244 . S
O231 Zn227 2.055 . S
O231 C253 1.259 . S
O232 Zn224 2.046 . S
O232 C253 1.254 . S
N233 Zn227 2.036 . S
N233 C234 1.298 . S
N233 N236 1.398 . S
C234 N233 1.298 . S
C234 N237 1.367 . S
C234 C247 1.481 . S
C235 N236 1.299 . S
C235 N237 1.379 . S
N236 N233 1.398 . S
N236 C235 1.299 . S
N237 C234 1.367 . S
N237 C235 1.379 . S
C238 N240 1.298 . S
C238 N242 1.367 . S
C238 C246 1.481 . S
C239 N241 1.299 . S
C239 N242 1.379 . S
N240 Zn224 2.036 . S
N240 C238 1.298 . S
N240 N241 1.398 . S
N241 C239 1.299 . S
N241 N240 1.398 . S
N242 C238 1.367 . S
N242 C239 1.379 . S
H243 C246 0.980 . S
H244 C246 0.981 . S
H245 C246 0.981 . S
C246 C238 1.481 . S
C246 H243 0.980 . S
C246 H244 0.981 . S
C246 H245 0.981 . S
C247 C234 1.481 . S
C247 H248 0.980 . S
C247 H249 0.981 . S
C247 H250 0.981 . S
H248 C247 0.980 . S
H249 C247 0.981 . S
H250 C247 0.981 . S
O251 Zn227 2.066 . S
O251 C230 1.256 . S
O252 Zn224 2.053 . S
O252 C230 1.244 . S
C253 O231 1.259 . S
C253 O232 1.254 . S
O254 Zn224 2.066 . S
O254 C226 1.256 . S
O255 C226 1.244 . S
O255 Zn227 2.053 . S
Zn256 O257 2.055 1_554 S
Zn256 O264 2.046 . S
Zn256 N272 2.036 . S
Zn256 O284 2.053 . S
Zn256 O286 2.066 1_554 S
O257 Zn256 2.055 1_556 S
O257 C260 1.259 . S
C258 O286 1.256 . S
C258 O287 1.244 . S
Zn259 O261 2.046 1_554 S
Zn259 O263 2.055 . S
Zn259 N265 2.036 . S
Zn259 O283 2.066 . S
Zn259 O287 2.053 1_554 S
C260 O257 1.259 . S
C260 O261 1.254 . S
O261 Zn259 2.046 1_556 S
O261 C260 1.254 . S
C262 O283 1.256 . S
C262 O284 1.244 . S
O263 Zn259 2.055 . S
O263 C285 1.259 . S
O264 Zn256 2.046 . S
O264 C285 1.254 . S
N265 Zn259 2.036 . S
N265 C266 1.298 . S
N265 N268 1.398 1_554 S
C266 N265 1.298 . S
C266 N269 1.367 . S
C266 C279 1.481 . S
C267 N268 1.299 . S
C267 N269 1.379 1_556 S
N268 N265 1.398 1_556 S
N268 C267 1.299 . S
N269 C266 1.367 . S
N269 C267 1.379 1_554 S
C270 N272 1.298 1_556 S
C270 N274 1.367 . S
C270 C278 1.481 . S
C271 N273 1.299 . S
C271 N274 1.379 1_554 S
N272 Zn256 2.036 . S
N272 C270 1.298 1_554 S
N272 N273 1.398 . S
N273 C271 1.299 . S
N273 N272 1.398 . S
N274 C270 1.367 . S
N274 C271 1.379 1_556 S
H275 C278 0.980 . S
H276 C278 0.981 . S
H277 C278 0.981 . S
C278 C270 1.481 . S
C278 H275 0.980 . S
C278 H276 0.981 . S
C278 H277 0.981 . S
C279 C266 1.481 . S
C279 H280 0.980 . S
C279 H281 0.981 . S
C279 H282 0.981 . S
H280 C279 0.980 . S
H281 C279 0.981 . S
H282 C279 0.981 . S
O283 Zn259 2.066 . S
O283 C262 1.256 . S
O284 Zn256 2.053 . S
O284 C262 1.244 . S
C285 O263 1.259 . S
C285 O264 1.254 . S
O286 Zn256 2.066 1_556 S
O286 C258 1.256 . S
O287 C258 1.244 . S
O287 Zn259 2.053 1_556 S
Zn288 O289 2.055 . S
Zn288 O296 2.046 . S
Zn288 N304 2.036 . S
Zn288 O316 2.053 . S
Zn288 O318 2.066 . S
O289 Zn288 2.055 . S
O289 C292 1.259 . S
C290 O318 1.256 . S
C290 O319 1.244 . S
Zn291 O293 2.046 . S
Zn291 O295 2.055 . S
Zn291 N297 2.036 . S
Zn291 O315 2.066 . S
Zn291 O319 2.053 . S
C292 O289 1.259 . S
C292 O293 1.254 . S
O293 Zn291 2.046 . S
O293 C292 1.254 . S
C294 O315 1.256 . S
C294 O316 1.244 . S
O295 Zn291 2.055 . S
O295 C317 1.259 . S
O296 Zn288 2.046 . S
O296 C317 1.254 . S
N297 Zn291 2.036 . S
N297 C298 1.298 . S
N297 N300 1.398 . S
C298 N297 1.298 . S
C298 N301 1.367 . S
C298 C311 1.481 . S
C299 N300 1.299 . S
C299 N301 1.379 . S
N300 N297 1.398 . S
N300 C299 1.299 . S
N301 C298 1.367 . S
N301 C299 1.379 . S
C302 N304 1.298 . S
C302 N306 1.367 . S
C302 C310 1.481 . S
C303 N305 1.299 . S
C303 N306 1.379 . S
N304 Zn288 2.036 . S
N304 C302 1.298 . S
N304 N305 1.398 . S
N305 C303 1.299 . S
N305 N304 1.398 . S
N306 C302 1.367 . S
N306 C303 1.379 . S
H307 C310 0.980 . S
H308 C310 0.981 . S
H309 C310 0.981 . S
C310 C302 1.481 . S
C310 H307 0.980 . S
C310 H308 0.981 . S
C310 H309 0.981 . S
C311 C298 1.481 . S
C311 H312 0.980 . S
C311 H313 0.981 . S
C311 H314 0.981 . S
H312 C311 0.980 . S
H313 C311 0.981 . S
H314 C311 0.981 . S
O315 Zn291 2.066 . S
O315 C294 1.256 . S
O316 Zn288 2.053 . S
O316 C294 1.244 . S
C317 O295 1.259 . S
C317 O296 1.254 . S
O318 Zn288 2.066 . S
O318 C290 1.256 . S
O319 C290 1.244 . S
O319 Zn291 2.053 . S
Zn320 O321 2.055 . S
Zn320 O328 2.046 . S
Zn320 N336 2.036 . S
Zn320 O348 2.053 . S
Zn320 O350 2.066 . S
O321 Zn320 2.055 . S
O321 C324 1.259 . S
C322 O350 1.256 . S
C322 O351 1.244 . S
Zn323 O325 2.046 . S
Zn323 O327 2.055 . S
Zn323 N329 2.036 . S
Zn323 O347 2.066 . S
Zn323 O351 2.053 . S
C324 O321 1.259 . S
C324 O325 1.254 . S
O325 Zn323 2.046 . S
O325 C324 1.254 . S
C326 O347 1.256 . S
C326 O348 1.244 . S
O327 Zn323 2.055 . S
O327 C349 1.259 . S
O328 Zn320 2.046 . S
O328 C349 1.254 . S
N329 Zn323 2.036 . S
N329 C330 1.298 . S
N329 N332 1.398 . S
C330 N329 1.298 . S
C330 N333 1.367 . S
C330 C343 1.481 . S
C331 N332 1.299 . S
C331 N333 1.379 . S
N332 N329 1.398 . S
N332 C331 1.299 . S
N333 C330 1.367 . S
N333 C331 1.379 . S
C334 N336 1.298 . S
C334 N338 1.367 . S
C334 C342 1.481 . S
C335 N337 1.299 . S
C335 N338 1.379 . S
N336 Zn320 2.036 . S
N336 C334 1.298 . S
N336 N337 1.398 . S
N337 C335 1.299 . S
N337 N336 1.398 . S
N338 C334 1.367 . S
N338 C335 1.379 . S
H339 C342 0.980 . S
H340 C342 0.981 . S
H341 C342 0.981 . S
C342 C334 1.481 . S
C342 H339 0.980 . S
C342 H340 0.981 . S
C342 H341 0.981 . S
C343 C330 1.481 . S
C343 H344 0.980 . S
C343 H345 0.981 . S
C343 H346 0.981 . S
H344 C343 0.980 . S
H345 C343 0.981 . S
H346 C343 0.981 . S
O347 Zn323 2.066 . S
O347 C326 1.256 . S
O348 Zn320 2.053 . S
O348 C326 1.244 . S
C349 O327 1.259 . S
C349 O328 1.254 . S
O350 Zn320 2.066 . S
O350 C322 1.256 . S
O351 C322 1.244 . S
O351 Zn323 2.053 . S
Zn352 O353 2.055 . S
Zn352 O360 2.046 . S
Zn352 N368 2.036 . S
Zn352 O380 2.053 . S
Zn352 O382 2.066 . S
O353 Zn352 2.055 . S
O353 C356 1.259 . S
C354 O382 1.256 . S
C354 O383 1.244 . S
Zn355 O357 2.046 . S
Zn355 O359 2.055 . S
Zn355 N361 2.036 . S
Zn355 O379 2.066 . S
Zn355 O383 2.053 . S
C356 O353 1.259 . S
C356 O357 1.254 . S
O357 Zn355 2.046 . S
O357 C356 1.254 . S
C358 O379 1.256 . S
C358 O380 1.244 . S
O359 Zn355 2.055 . S
O359 C381 1.259 . S
O360 Zn352 2.046 . S
O360 C381 1.254 . S
N361 Zn355 2.036 . S
N361 C362 1.298 . S
N361 N364 1.398 . S
C362 N361 1.298 . S
C362 N365 1.367 . S
C362 C375 1.481 . S
C363 N364 1.299 . S
C363 N365 1.379 . S
N364 N361 1.398 . S
N364 C363 1.299 . S
N365 C362 1.367 . S
N365 C363 1.379 . S
C366 N368 1.298 . S
C366 N370 1.367 . S
C366 C374 1.481 . S
C367 N369 1.299 . S
C367 N370 1.379 . S
N368 Zn352 2.036 . S
N368 C366 1.298 . S
N368 N369 1.398 . S
N369 C367 1.299 . S
N369 N368 1.398 . S
N370 C366 1.367 . S
N370 C367 1.379 . S
H371 C374 0.980 . S
H372 C374 0.981 . S
H373 C374 0.981 . S
C374 C366 1.481 . S
C374 H371 0.980 . S
C374 H372 0.981 . S
C374 H373 0.981 . S
C375 C362 1.481 . S
C375 H376 0.980 . S
C375 H377 0.981 . S
C375 H378 0.981 . S
H376 C375 0.980 . S
H377 C375 0.981 . S
H378 C375 0.981 . S
O379 Zn355 2.066 . S
O379 C358 1.256 . S
O380 Zn352 2.053 . S
O380 C358 1.244 . S
C381 O359 1.259 . S
C381 O360 1.254 . S
O382 Zn352 2.066 . S
O382 C354 1.256 . S
O383 C354 1.244 . S
O383 Zn355 2.053 . S
Zn384 O385 2.055 . S
Zn384 O392 2.046 . S
Zn384 N400 2.036 . S
Zn384 O412 2.053 . S
Zn384 O414 2.066 . S
O385 Zn384 2.055 . S
O385 C388 1.259 . S
C386 O414 1.256 . S
C386 O415 1.244 . S
Zn387 O389 2.046 . S
Zn387 O391 2.055 . S
Zn387 N393 2.036 . S
Zn387 O411 2.066 . S
Zn387 O415 2.053 . S
C388 O385 1.259 . S
C388 O389 1.254 . S
O389 Zn387 2.046 . S
O389 C388 1.254 . S
C390 O411 1.256 . S
C390 O412 1.244 . S
O391 Zn387 2.055 . S
O391 C413 1.259 . S
O392 Zn384 2.046 . S
O392 C413 1.254 . S
N393 Zn387 2.036 . S
N393 C394 1.298 . S
N393 N396 1.398 . S
C394 N393 1.298 . S
C394 N397 1.367 . S
C394 C407 1.481 . S
C395 N396 1.299 . S
C395 N397 1.379 . S
N396 N393 1.398 . S
N396 C395 1.299 . S
N397 C394 1.367 . S
N397 C395 1.379 . S
C398 N400 1.298 . S
C398 N402 1.367 . S
C398 C406 1.481 . S
C399 N401 1.299 . S
C399 N402 1.379 . S
N400 Zn384 2.036 . S
N400 C398 1.298 . S
N400 N401 1.398 . S
N401 C399 1.299 . S
N401 N400 1.398 . S
N402 C398 1.367 . S
N402 C399 1.379 . S
H403 C406 0.980 . S
H404 C406 0.981 . S
H405 C406 0.981 . S
C406 C398 1.481 . S
C406 H403 0.980 . S
C406 H404 0.981 . S
C406 H405 0.981 . S
C407 C394 1.481 . S
C407 H408 0.980 . S
C407 H409 0.981 . S
C407 H410 0.981 . S
H408 C407 0.980 . S
H409 C407 0.981 . S
H410 C407 0.981 . S
O411 Zn387 2.066 . S
O411 C390 1.256 . S
O412 Zn384 2.053 . S
O412 C390 1.244 . S
C413 O391 1.259 . S
C413 O392 1.254 . S
O414 Zn384 2.066 . S
O414 C386 1.256 . S
O415 C386 1.244 . S
O415 Zn387 2.053 . S
Zn416 O417 2.055 . S
Zn416 O424 2.046 . S
Zn416 N432 2.036 . S
Zn416 O444 2.053 . S
Zn416 O446 2.066 . S
O417 Zn416 2.055 . S
O417 C420 1.259 . S
C418 O446 1.256 . S
C418 O447 1.244 . S
Zn419 O421 2.046 . S
Zn419 O423 2.055 . S
Zn419 N425 2.036 . S
Zn419 O443 2.066 . S
Zn419 O447 2.053 . S
C420 O417 1.259 . S
C420 O421 1.254 . S
O421 Zn419 2.046 . S
O421 C420 1.254 . S
C422 O443 1.256 . S
C422 O444 1.244 . S
O423 Zn419 2.055 . S
O423 C445 1.259 . S
O424 Zn416 2.046 . S
O424 C445 1.254 . S
N425 Zn419 2.036 . S
N425 C426 1.298 . S
N425 N428 1.398 . S
C426 N425 1.298 . S
C426 N429 1.367 . S
C426 C439 1.481 . S
C427 N428 1.299 . S
C427 N429 1.379 . S
N428 N425 1.398 . S
N428 C427 1.299 . S
N429 C426 1.367 . S
N429 C427 1.379 . S
C430 N432 1.298 . S
C430 N434 1.367 . S
C430 C438 1.481 . S
C431 N433 1.299 . S
C431 N434 1.379 . S
N432 Zn416 2.036 . S
N432 C430 1.298 . S
N432 N433 1.398 . S
N433 C431 1.299 . S
N433 N432 1.398 . S
N434 C430 1.367 . S
N434 C431 1.379 . S
H435 C438 0.980 . S
H436 C438 0.981 . S
H437 C438 0.981 . S
C438 C430 1.481 . S
C438 H435 0.980 . S
C438 H436 0.981 . S
C438 H437 0.981 . S
C439 C426 1.481 . S
C439 H440 0.980 . S
C439 H441 0.981 . S
C439 H442 0.981 . S
H440 C439 0.980 . S
H441 C439 0.981 . S
H442 C439 0.981 . S
O443 Zn419 2.066 . S
O443 C422 1.256 . S
O444 Zn416 2.053 . S
O444 C422 1.244 . S
C445 O423 1.259 . S
C445 O424 1.254 . S
O446 Zn416 2.066 . S
O446 C418 1.256 . S
O447 C418 1.244 . S
O447 Zn419 2.053 . S
Zn448 O449 2.055 . S
Zn448 O456 2.046 . S
Zn448 N464 2.036 . S
Zn448 O476 2.053 . S
Zn448 O478 2.066 . S
O449 Zn448 2.055 . S
O449 C452 1.259 1_554 S
C450 O478 1.256 1_556 S
C450 O479 1.244 1_556 S
Zn451 O453 2.046 . S
Zn451 O455 2.055 . S
Zn451 N457 2.036 . S
Zn451 O475 2.066 . S
Zn451 O479 2.053 . S
C452 O449 1.259 1_556 S
C452 O453 1.254 1_556 S
O453 Zn451 2.046 . S
O453 C452 1.254 1_554 S
C454 O475 1.256 . S
C454 O476 1.244 . S
O455 Zn451 2.055 . S
O455 C477 1.259 . S
O456 Zn448 2.046 . S
O456 C477 1.254 . S
N457 Zn451 2.036 . S
N457 C458 1.298 . S
N457 N460 1.398 . S
C458 N457 1.298 . S
C458 N461 1.367 . S
C458 C471 1.481 . S
C459 N460 1.299 . S
C459 N461 1.379 . S
N460 N457 1.398 . S
N460 C459 1.299 . S
N461 C458 1.367 . S
N461 C459 1.379 . S
C462 N464 1.298 . S
C462 N466 1.367 . S
C462 C470 1.481 1_554 S
C463 N465 1.299 . S
C463 N466 1.379 . S
N464 Zn448 2.036 . S
N464 C462 1.298 . S
N464 N465 1.398 . S
N465 C463 1.299 . S
N465 N464 1.398 . S
N466 C462 1.367 . S
N466 C463 1.379 . S
H467 C470 0.980 . S
H468 C470 0.981 . S
H469 C470 0.981 . S
C470 C462 1.481 1_556 S
C470 H467 0.980 . S
C470 H468 0.981 . S
C470 H469 0.981 . S
C471 C458 1.481 . S
C471 H472 0.980 . S
C471 H473 0.981 . S
C471 H474 0.981 . S
H472 C471 0.980 . S
H473 C471 0.981 . S
H474 C471 0.981 . S
O475 Zn451 2.066 . S
O475 C454 1.256 . S
O476 Zn448 2.053 . S
O476 C454 1.244 . S
C477 O455 1.259 . S
C477 O456 1.254 . S
O478 Zn448 2.066 . S
O478 C450 1.256 1_554 S
O479 C450 1.244 1_554 S
O479 Zn451 2.053 . S
Zn480 O481 2.055 . S
Zn480 O488 2.046 . S
Zn480 N496 2.036 . S
Zn480 O508 2.053 . S
Zn480 O510 2.066 . S
O481 Zn480 2.055 . S
O481 C484 1.259 . S
C482 O510 1.256 . S
C482 O511 1.244 . S
Zn483 O485 2.046 . S
Zn483 O487 2.055 . S
Zn483 N489 2.036 . S
Zn483 O507 2.066 . S
Zn483 O511 2.053 . S
C484 O481 1.259 . S
C484 O485 1.254 . S
O485 Zn483 2.046 . S
O485 C484 1.254 . S
C486 O507 1.256 . S
C486 O508 1.244 . S
O487 Zn483 2.055 . S
O487 C509 1.259 . S
O488 Zn480 2.046 . S
O488 C509 1.254 . S
N489 Zn483 2.036 . S
N489 C490 1.298 . S
N489 N492 1.398 . S
C490 N489 1.298 . S
C490 N493 1.367 . S
C490 C503 1.481 . S
C491 N492 1.299 . S
C491 N493 1.379 . S
N492 N489 1.398 . S
N492 C491 1.299 . S
N493 C490 1.367 . S
N493 C491 1.379 . S
C494 N496 1.298 . S
C494 N498 1.367 . S
C494 C502 1.481 . S
C495 N497 1.299 . S
C495 N498 1.379 . S
N496 Zn480 2.036 . S
N496 C494 1.298 . S
N496 N497 1.398 . S
N497 C495 1.299 . S
N497 N496 1.398 . S
N498 C494 1.367 . S
N498 C495 1.379 . S
H499 C502 0.980 . S
H500 C502 0.981 . S
H501 C502 0.981 . S
C502 C494 1.481 . S
C502 H499 0.980 . S
C502 H500 0.981 . S
C502 H501 0.981 . S
C503 C490 1.481 . S
C503 H504 0.980 . S
C503 H505 0.981 . S
C503 H506 0.981 . S
H504 C503 0.980 . S
H505 C503 0.981 . S
H506 C503 0.981 . S
O507 Zn483 2.066 . S
O507 C486 1.256 . S
O508 Zn480 2.053 . S
O508 C486 1.244 . S
C509 O487 1.259 . S
C509 O488 1.254 . S
O510 Zn480 2.066 . S
O510 C482 1.256 . S
O511 C482 1.244 . S
O511 Zn483 2.053 . S
Zn512 O513 2.055 . S
Zn512 O520 2.046 . S
Zn512 N528 2.036 . S
Zn512 O540 2.053 . S
Zn512 O542 2.066 . S
O513 Zn512 2.055 . S
O513 C516 1.259 . S
C514 O542 1.256 . S
C514 O543 1.244 . S
Zn515 O517 2.046 . S
Zn515 O519 2.055 . S
Zn515 N521 2.036 . S
Zn515 O539 2.066 . S
Zn515 O543 2.053 . S
C516 O513 1.259 . S
C516 O517 1.254 . S
O517 Zn515 2.046 . S
O517 C516 1.254 . S
C518 O539 1.256 . S
C518 O540 1.244 . S
O519 Zn515 2.055 . S
O519 C541 1.259 . S
O520 Zn512 2.046 . S
O520 C541 1.254 . S
N521 Zn515 2.036 . S
N521 C522 1.298 . S
N521 N524 1.398 . S
C522 N521 1.298 . S
C522 N525 1.367 . S
C522 C535 1.481 . S
C523 N524 1.299 . S
C523 N525 1.379 . S
N524 N521 1.398 . S
N524 C523 1.299 . S
N525 C522 1.367 . S
N525 C523 1.379 . S
C526 N528 1.298 . S
C526 N530 1.367 . S
C526 C534 1.481 . S
C527 N529 1.299 . S
C527 N530 1.379 . S
N528 Zn512 2.036 . S
N528 C526 1.298 . S
N528 N529 1.398 . S
N529 C527 1.299 . S
N529 N528 1.398 . S
N530 C526 1.367 . S
N530 C527 1.379 . S
H531 C534 0.980 . S
H532 C534 0.981 . S
H533 C534 0.981 . S
C534 C526 1.481 . S
C534 H531 0.980 . S
C534 H532 0.981 . S
C534 H533 0.981 . S
C535 C522 1.481 . S
C535 H536 0.980 . S
C535 H537 0.981 . S
C535 H538 0.981 . S
H536 C535 0.980 . S
H537 C535 0.981 . S
H538 C535 0.981 . S
O539 Zn515 2.066 . S
O539 C518 1.256 . S
O540 Zn512 2.053 . S
O540 C518 1.244 . S
C541 O519 1.259 . S
C541 O520 1.254 . S
O542 Zn512 2.066 . S
O542 C514 1.256 . S
O543 C514 1.244 . S
O543 Zn515 2.053 . S
Zn544 O545 2.055 . S
Zn544 O552 2.046 . S
Zn544 N560 2.036 . S
Zn544 O572 2.053 . S
Zn544 O574 2.066 . S
O545 Zn544 2.055 . S
O545 C548 1.259 . S
C546 O574 1.256 . S
C546 O575 1.244 . S
Zn547 O549 2.046 . S
Zn547 O551 2.055 . S
Zn547 N553 2.036 . S
Zn547 O571 2.066 . S
Zn547 O575 2.053 . S
C548 O545 1.259 . S
C548 O549 1.254 . S
O549 Zn547 2.046 . S
O549 C548 1.254 . S
C550 O571 1.256 . S
C550 O572 1.244 . S
O551 Zn547 2.055 . S
O551 C573 1.259 . S
O552 Zn544 2.046 . S
O552 C573 1.254 . S
N553 Zn547 2.036 . S
N553 C554 1.298 . S
N553 N556 1.398 . S
C554 N553 1.298 . S
C554 N557 1.367 . S
C554 C567 1.481 . S
C555 N556 1.299 . S
C555 N557 1.379 . S
N556 N553 1.398 . S
N556 C555 1.299 . S
N557 C554 1.367 . S
N557 C555 1.379 . S
C558 N560 1.298 . S
C558 N562 1.367 . S
C558 C566 1.481 . S
C559 N561 1.299 . S
C559 N562 1.379 . S
N560 Zn544 2.036 . S
N560 C558 1.298 . S
N560 N561 1.398 . S
N561 C559 1.299 . S
N561 N560 1.398 . S
N562 C558 1.367 . S
N562 C559 1.379 . S
H563 C566 0.980 . S
H564 C566 0.981 . S
H565 C566 0.981 . S
C566 C558 1.481 . S
C566 H563 0.980 . S
C566 H564 0.981 . S
C566 H565 0.981 . S
C567 C554 1.481 . S
C567 H568 0.980 . S
C567 H569 0.981 . S
C567 H570 0.981 . S
H568 C567 0.980 . S
H569 C567 0.981 . S
H570 C567 0.981 . S
O571 Zn547 2.066 . S
O571 C550 1.256 . S
O572 Zn544 2.053 . S
O572 C550 1.244 . S
C573 O551 1.259 . S
C573 O552 1.254 . S
O574 Zn544 2.066 . S
O574 C546 1.256 . S
O575 C546 1.244 . S
O575 Zn547 2.053 . S
Zn576 O577 2.055 . S
Zn576 O584 2.046 . S
Zn576 N592 2.036 . S
Zn576 O604 2.053 . S
Zn576 O606 2.066 . S
O577 Zn576 2.055 . S
O577 C580 1.259 1_554 S
C578 O606 1.256 1_556 S
C578 O607 1.244 1_556 S
Zn579 O581 2.046 . S
Zn579 O583 2.055 . S
Zn579 N585 2.036 . S
Zn579 O603 2.066 . S
Zn579 O607 2.053 . S
C580 O577 1.259 1_556 S
C580 O581 1.254 1_556 S
O581 Zn579 2.046 . S
O581 C580 1.254 1_554 S
C582 O603 1.256 . S
C582 O604 1.244 . S
O583 Zn579 2.055 . S
O583 C605 1.259 . S
O584 Zn576 2.046 . S
O584 C605 1.254 . S
N585 Zn579 2.036 . S
N585 C586 1.298 . S
N585 N588 1.398 . S
C586 N585 1.298 . S
C586 N589 1.367 . S
C586 C599 1.481 . S
C587 N588 1.299 . S
C587 N589 1.379 . S
N588 N585 1.398 . S
N588 C587 1.299 . S
N589 C586 1.367 . S
N589 C587 1.379 . S
C590 N592 1.298 . S
C590 N594 1.367 . S
C590 C598 1.481 1_554 S
C591 N593 1.299 . S
C591 N594 1.379 . S
N592 Zn576 2.036 . S
N592 C590 1.298 . S
N592 N593 1.398 . S
N593 C591 1.299 . S
N593 N592 1.398 . S
N594 C590 1.367 . S
N594 C591 1.379 . S
H595 C598 0.980 . S
H596 C598 0.981 . S
H597 C598 0.981 . S
C598 C590 1.481 1_556 S
C598 H595 0.980 . S
C598 H596 0.981 . S
C598 H597 0.981 . S
C599 C586 1.481 . S
C599 H600 0.980 . S
C599 H601 0.981 . S
C599 H602 0.981 . S
H600 C599 0.980 . S
H601 C599 0.981 . S
H602 C599 0.981 . S
O603 Zn579 2.066 . S
O603 C582 1.256 . S
O604 Zn576 2.053 . S
O604 C582 1.244 . S
C605 O583 1.259 . S
C605 O584 1.254 . S
O606 Zn576 2.066 . S
O606 C578 1.256 1_554 S
O607 C578 1.244 1_554 S
O607 Zn579 2.053 . S
Zn608 O609 2.055 . S
Zn608 O616 2.046 . S
Zn608 N624 2.036 . S
Zn608 O636 2.053 . S
Zn608 O638 2.066 . S
O609 Zn608 2.055 . S
O609 C612 1.259 . S
C610 O638 1.256 . S
C610 O639 1.244 . S
Zn611 O613 2.046 . S
Zn611 O615 2.055 . S
Zn611 N617 2.036 . S
Zn611 O635 2.066 . S
Zn611 O639 2.053 . S
C612 O609 1.259 . S
C612 O613 1.254 . S
O613 Zn611 2.046 . S
O613 C612 1.254 . S
C614 O635 1.256 . S
C614 O636 1.244 . S
O615 Zn611 2.055 . S
O615 C637 1.259 . S
O616 Zn608 2.046 . S
O616 C637 1.254 . S
N617 Zn611 2.036 . S
N617 C618 1.298 . S
N617 N620 1.398 . S
C618 N617 1.298 . S
C618 N621 1.367 . S
C618 C631 1.481 . S
C619 N620 1.299 . S
C619 N621 1.379 . S
N620 N617 1.398 . S
N620 C619 1.299 . S
N621 C618 1.367 . S
N621 C619 1.379 . S
C622 N624 1.298 . S
C622 N626 1.367 . S
C622 C630 1.481 . S
C623 N625 1.299 . S
C623 N626 1.379 . S
N624 Zn608 2.036 . S
N624 C622 1.298 . S
N624 N625 1.398 . S
N625 C623 1.299 . S
N625 N624 1.398 . S
N626 C622 1.367 . S
N626 C623 1.379 . S
H627 C630 0.980 . S
H628 C630 0.981 . S
H629 C630 0.981 . S
C630 C622 1.481 . S
C630 H627 0.980 . S
C630 H628 0.981 . S
C630 H629 0.981 . S
C631 C618 1.481 . S
C631 H632 0.980 . S
C631 H633 0.981 . S
C631 H634 0.981 . S
H632 C631 0.980 . S
H633 C631 0.981 . S
H634 C631 0.981 . S
O635 Zn611 2.066 . S
O635 C614 1.256 . S
O636 Zn608 2.053 . S
O636 C614 1.244 . S
C637 O615 1.259 . S
C637 O616 1.254 . S
O638 Zn608 2.066 . S
O638 C610 1.256 . S
O639 C610 1.244 . S
O639 Zn611 2.053 . S
Zn640 O641 2.055 1_554 S
Zn640 O648 2.046 . S
Zn640 N656 2.036 . S
Zn640 O668 2.053 . S
Zn640 O670 2.066 1_554 S
O641 Zn640 2.055 1_556 S
O641 C644 1.259 . S
C642 O670 1.256 . S
C642 O671 1.244 . S
Zn643 O645 2.046 1_554 S
Zn643 O647 2.055 . S
Zn643 N649 2.036 . S
Zn643 O667 2.066 . S
Zn643 O671 2.053 1_554 S
C644 O641 1.259 . S
C644 O645 1.254 . S
O645 Zn643 2.046 1_556 S
O645 C644 1.254 . S
C646 O667 1.256 . S
C646 O668 1.244 . S
O647 Zn643 2.055 . S
O647 C669 1.259 . S
O648 Zn640 2.046 . S
O648 C669 1.254 . S
N649 Zn643 2.036 . S
N649 C650 1.298 . S
N649 N652 1.398 1_554 S
C650 N649 1.298 . S
C650 N653 1.367 . S
C650 C663 1.481 . S
C651 N652 1.299 . S
C651 N653 1.379 1_556 S
N652 N649 1.398 1_556 S
N652 C651 1.299 . S
N653 C650 1.367 . S
N653 C651 1.379 1_554 S
C654 N656 1.298 1_556 S
C654 N658 1.367 . S
C654 C662 1.481 . S
C655 N657 1.299 . S
C655 N658 1.379 1_554 S
N656 Zn640 2.036 . S
N656 C654 1.298 1_554 S
N656 N657 1.398 . S
N657 C655 1.299 . S
N657 N656 1.398 . S
N658 C654 1.367 . S
N658 C655 1.379 1_556 S
H659 C662 0.980 . S
H660 C662 0.981 . S
H661 C662 0.981 . S
C662 C654 1.481 . S
C662 H659 0.980 . S
C662 H660 0.981 . S
C662 H661 0.981 . S
C663 C650 1.481 . S
C663 H664 0.980 . S
C663 H665 0.981 . S
C663 H666 0.981 . S
H664 C663 0.980 . S
H665 C663 0.981 . S
H666 C663 0.981 . S
O667 Zn643 2.066 . S
O667 C646 1.256 . S
O668 Zn640 2.053 . S
O668 C646 1.244 . S
C669 O647 1.259 . S
C669 O648 1.254 . S
O670 Zn640 2.066 1_556 S
O670 C642 1.256 . S
O671 C642 1.244 . S
O671 Zn643 2.053 1_556 S
Zn672 O673 2.055 . S
Zn672 O680 2.046 . S
Zn672 N688 2.036 . S
Zn672 O700 2.053 . S
Zn672 O702 2.066 . S
O673 Zn672 2.055 . S
O673 C676 1.259 . S
C674 O702 1.256 . S
C674 O703 1.244 . S
Zn675 O677 2.046 . S
Zn675 O679 2.055 . S
Zn675 N681 2.036 . S
Zn675 O699 2.066 . S
Zn675 O703 2.053 . S
C676 O673 1.259 . S
C676 O677 1.254 . S
O677 Zn675 2.046 . S
O677 C676 1.254 . S
C678 O699 1.256 . S
C678 O700 1.244 . S
O679 Zn675 2.055 . S
O679 C701 1.259 . S
O680 Zn672 2.046 . S
O680 C701 1.254 . S
N681 Zn675 2.036 . S
N681 C682 1.298 . S
N681 N684 1.398 . S
C682 N681 1.298 . S
C682 N685 1.367 . S
C682 C695 1.481 . S
C683 N684 1.299 . S
C683 N685 1.379 . S
N684 N681 1.398 . S
N684 C683 1.299 . S
N685 C682 1.367 . S
N685 C683 1.379 . S
C686 N688 1.298 . S
C686 N690 1.367 . S
C686 C694 1.481 . S
C687 N689 1.299 . S
C687 N690 1.379 . S
N688 Zn672 2.036 . S
N688 C686 1.298 . S
N688 N689 1.398 . S
N689 C687 1.299 . S
N689 N688 1.398 . S
N690 C686 1.367 . S
N690 C687 1.379 . S
H691 C694 0.980 . S
H692 C694 0.981 . S
H693 C694 0.981 . S
C694 C686 1.481 . S
C694 H691 0.980 . S
C694 H692 0.981 . S
C694 H693 0.981 . S
C695 C682 1.481 . S
C695 H696 0.980 . S
C695 H697 0.981 . S
C695 H698 0.981 . S
H696 C695 0.980 . S
H697 C695 0.981 . S
H698 C695 0.981 . S
O699 Zn675 2.066 . S
O699 C678 1.256 . S
O700 Zn672 2.053 . S
O700 C678 1.244 . S
C701 O679 1.259 . S
C701 O680 1.254 . S
O702 Zn672 2.066 . S
O702 C674 1.256 . S
O703 C674 1.244 . S
O703 Zn675 2.053 . S
Zn704 O705 2.055 . S
Zn704 O712 2.046 . S
Zn704 N720 2.036 . S
Zn704 O732 2.053 . S
Zn704 O734 2.066 . S
O705 Zn704 2.055 . S
O705 C708 1.259 . S
C706 O734 1.256 . S
C706 O735 1.244 . S
Zn707 O709 2.046 . S
Zn707 O711 2.055 . S
Zn707 N713 2.036 . S
Zn707 O731 2.066 . S
Zn707 O735 2.053 . S
C708 O705 1.259 . S
C708 O709 1.254 . S
O709 Zn707 2.046 . S
O709 C708 1.254 . S
C710 O731 1.256 . S
C710 O732 1.244 . S
O711 Zn707 2.055 . S
O711 C733 1.259 . S
O712 Zn704 2.046 . S
O712 C733 1.254 . S
N713 Zn707 2.036 . S
N713 C714 1.298 . S
N713 N716 1.398 . S
C714 N713 1.298 . S
C714 N717 1.367 . S
C714 C727 1.481 . S
C715 N716 1.299 . S
C715 N717 1.379 . S
N716 N713 1.398 . S
N716 C715 1.299 . S
N717 C714 1.367 . S
N717 C715 1.379 . S
C718 N720 1.298 . S
C718 N722 1.367 . S
C718 C726 1.481 . S
C719 N721 1.299 . S
C719 N722 1.379 . S
N720 Zn704 2.036 . S
N720 C718 1.298 . S
N720 N721 1.398 . S
N721 C719 1.299 . S
N721 N720 1.398 . S
N722 C718 1.367 . S
N722 C719 1.379 . S
H723 C726 0.980 . S
H724 C726 0.981 . S
H725 C726 0.981 . S
C726 C718 1.481 . S
C726 H723 0.980 . S
C726 H724 0.981 . S
C726 H725 0.981 . S
C727 C714 1.481 . S
C727 H728 0.980 . S
C727 H729 0.981 . S
C727 H730 0.981 . S
H728 C727 0.980 . S
H729 C727 0.981 . S
H730 C727 0.981 . S
O731 Zn707 2.066 . S
O731 C710 1.256 . S
O732 Zn704 2.053 . S
O732 C710 1.244 . S
C733 O711 1.259 . S
C733 O712 1.254 . S
O734 Zn704 2.066 . S
O734 C706 1.256 . S
O735 C706 1.244 . S
O735 Zn707 2.053 . S
Zn736 O737 2.055 . S
Zn736 O744 2.046 . S
Zn736 N752 2.036 . S
Zn736 O764 2.053 . S
Zn736 O766 2.066 . S
O737 Zn736 2.055 . S
O737 C740 1.259 . S
C738 O766 1.256 . S
C738 O767 1.244 . S
Zn739 O741 2.046 . S
Zn739 O743 2.055 . S
Zn739 N745 2.036 . S
Zn739 O763 2.066 . S
Zn739 O767 2.053 . S
C740 O737 1.259 . S
C740 O741 1.254 . S
O741 Zn739 2.046 . S
O741 C740 1.254 . S
C742 O763 1.256 . S
C742 O764 1.244 . S
O743 Zn739 2.055 . S
O743 C765 1.259 . S
O744 Zn736 2.046 . S
O744 C765 1.254 . S
N745 Zn739 2.036 . S
N745 C746 1.298 . S
N745 N748 1.398 . S
C746 N745 1.298 . S
C746 N749 1.367 . S
C746 C759 1.481 . S
C747 N748 1.299 . S
C747 N749 1.379 . S
N748 N745 1.398 . S
N748 C747 1.299 . S
N749 C746 1.367 . S
N749 C747 1.379 . S
C750 N752 1.298 . S
C750 N754 1.367 . S
C750 C758 1.481 . S
C751 N753 1.299 . S
C751 N754 1.379 . S
N752 Zn736 2.036 . S
N752 C750 1.298 . S
N752 N753 1.398 . S
N753 C751 1.299 . S
N753 N752 1.398 . S
N754 C750 1.367 . S
N754 C751 1.379 . S
H755 C758 0.980 . S
H756 C758 0.981 . S
H757 C758 0.981 . S
C758 C750 1.481 . S
C758 H755 0.980 . S
C758 H756 0.981 . S
C758 H757 0.981 . S
C759 C746 1.481 . S
C759 H760 0.980 . S
C759 H761 0.981 . S
C759 H762 0.981 . S
H760 C759 0.980 . S
H761 C759 0.981 . S
H762 C759 0.981 . S
O763 Zn739 2.066 . S
O763 C742 1.256 . S
O764 Zn736 2.053 . S
O764 C742 1.244 . S
C765 O743 1.259 . S
C765 O744 1.254 . S
O766 Zn736 2.066 . S
O766 C738 1.256 . S
O767 C738 1.244 . S
O767 Zn739 2.053 . S
Zn768 O769 2.055 . S
Zn768 O776 2.046 . S
Zn768 N784 2.036 . S
Zn768 O796 2.053 . S
Zn768 O798 2.066 . S
O769 Zn768 2.055 . S
O769 C772 1.259 . S
C770 O798 1.256 . S
C770 O799 1.244 . S
Zn771 O773 2.046 . S
Zn771 O775 2.055 . S
Zn771 N777 2.036 . S
Zn771 O795 2.066 . S
Zn771 O799 2.053 . S
C772 O769 1.259 . S
C772 O773 1.254 . S
O773 Zn771 2.046 . S
O773 C772 1.254 . S
C774 O795 1.256 . S
C774 O796 1.244 . S
O775 Zn771 2.055 . S
O775 C797 1.259 . S
O776 Zn768 2.046 . S
O776 C797 1.254 . S
N777 Zn771 2.036 . S
N777 C778 1.298 . S
N777 N780 1.398 . S
C778 N777 1.298 . S
C778 N781 1.367 . S
C778 C791 1.481 . S
C779 N780 1.299 . S
C779 N781 1.379 . S
N780 N777 1.398 . S
N780 C779 1.299 . S
N781 C778 1.367 . S
N781 C779 1.379 . S
C782 N784 1.298 . S
C782 N786 1.367 . S
C782 C790 1.481 . S
C783 N785 1.299 . S
C783 N786 1.379 . S
N784 Zn768 2.036 . S
N784 C782 1.298 . S
N784 N785 1.398 . S
N785 C783 1.299 . S
N785 N784 1.398 . S
N786 C782 1.367 . S
N786 C783 1.379 . S
H787 C790 0.980 . S
H788 C790 0.981 . S
H789 C790 0.981 . S
C790 C782 1.481 . S
C790 H787 0.980 . S
C790 H788 0.981 . S
C790 H789 0.981 . S
C791 C778 1.481 . S
C791 H792 0.980 . S
C791 H793 0.981 . S
C791 H794 0.981 . S
H792 C791 0.980 . S
H793 C791 0.981 . S
H794 C791 0.981 . S
O795 Zn771 2.066 . S
O795 C774 1.256 . S
O796 Zn768 2.053 . S
O796 C774 1.244 . S
C797 O775 1.259 . S
C797 O776 1.254 . S
O798 Zn768 2.066 . S
O798 C770 1.256 . S
O799 C770 1.244 . S
O799 Zn771 2.053 . S
Zn800 O801 2.055 . S
Zn800 O808 2.046 . S
Zn800 N816 2.036 . S
Zn800 O828 2.053 . S
Zn800 O830 2.066 . S
O801 Zn800 2.055 . S
O801 C804 1.259 . S
C802 O830 1.256 . S
C802 O831 1.244 . S
Zn803 O805 2.046 . S
Zn803 O807 2.055 . S
Zn803 N809 2.036 . S
Zn803 O827 2.066 . S
Zn803 O831 2.053 . S
C804 O801 1.259 . S
C804 O805 1.254 . S
O805 Zn803 2.046 . S
O805 C804 1.254 . S
C806 O827 1.256 . S
C806 O828 1.244 . S
O807 Zn803 2.055 . S
O807 C829 1.259 . S
O808 Zn800 2.046 . S
O808 C829 1.254 . S
N809 Zn803 2.036 . S
N809 C810 1.298 . S
N809 N812 1.398 . S
C810 N809 1.298 . S
C810 N813 1.367 . S
C810 C823 1.481 . S
C811 N812 1.299 . S
C811 N813 1.379 . S
N812 N809 1.398 . S
N812 C811 1.299 . S
N813 C810 1.367 . S
N813 C811 1.379 . S
C814 N816 1.298 . S
C814 N818 1.367 . S
C814 C822 1.481 . S
C815 N817 1.299 . S
C815 N818 1.379 . S
N816 Zn800 2.036 . S
N816 C814 1.298 . S
N816 N817 1.398 . S
N817 C815 1.299 . S
N817 N816 1.398 . S
N818 C814 1.367 . S
N818 C815 1.379 . S
H819 C822 0.980 . S
H820 C822 0.981 . S
H821 C822 0.981 . S
C822 C814 1.481 . S
C822 H819 0.980 . S
C822 H820 0.981 . S
C822 H821 0.981 . S
C823 C810 1.481 . S
C823 H824 0.980 . S
C823 H825 0.981 . S
C823 H826 0.981 . S
H824 C823 0.980 . S
H825 C823 0.981 . S
H826 C823 0.981 . S
O827 Zn803 2.066 . S
O827 C806 1.256 . S
O828 Zn800 2.053 . S
O828 C806 1.244 . S
C829 O807 1.259 . S
C829 O808 1.254 . S
O830 Zn800 2.066 . S
O830 C802 1.256 . S
O831 C802 1.244 . S
O831 Zn803 2.053 . S
Zn832 O833 2.055 1_554 S
Zn832 O840 2.046 . S
Zn832 N848 2.036 . S
Zn832 O860 2.053 . S
Zn832 O862 2.066 1_554 S
O833 Zn832 2.055 1_556 S
O833 C836 1.259 . S
C834 O862 1.256 . S
C834 O863 1.244 . S
Zn835 O837 2.046 1_554 S
Zn835 O839 2.055 . S
Zn835 N841 2.036 . S
Zn835 O859 2.066 . S
Zn835 O863 2.053 1_554 S
C836 O833 1.259 . S
C836 O837 1.254 . S
O837 Zn835 2.046 1_556 S
O837 C836 1.254 . S
C838 O859 1.256 . S
C838 O860 1.244 . S
O839 Zn835 2.055 . S
O839 C861 1.259 . S
O840 Zn832 2.046 . S
O840 C861 1.254 . S
N841 Zn835 2.036 . S
N841 C842 1.298 . S
N841 N844 1.398 1_554 S
C842 N841 1.298 . S
C842 N845 1.367 . S
C842 C855 1.481 . S
C843 N844 1.299 . S
C843 N845 1.379 1_556 S
N844 N841 1.398 1_556 S
N844 C843 1.299 . S
N845 C842 1.367 . S
N845 C843 1.379 1_554 S
C846 N848 1.298 1_556 S
C846 N850 1.367 . S
C846 C854 1.481 . S
C847 N849 1.299 . S
C847 N850 1.379 1_554 S
N848 Zn832 2.036 . S
N848 C846 1.298 1_554 S
N848 N849 1.398 . S
N849 C847 1.299 . S
N849 N848 1.398 . S
N850 C846 1.367 . S
N850 C847 1.379 1_556 S
H851 C854 0.980 . S
H852 C854 0.981 . S
H853 C854 0.981 . S
C854 C846 1.481 . S
C854 H851 0.980 . S
C854 H852 0.981 . S
C854 H853 0.981 . S
C855 C842 1.481 . S
C855 H856 0.980 . S
C855 H857 0.981 . S
C855 H858 0.981 . S
H856 C855 0.980 . S
H857 C855 0.981 . S
H858 C855 0.981 . S
O859 Zn835 2.066 . S
O859 C838 1.256 . S
O860 Zn832 2.053 . S
O860 C838 1.244 . S
C861 O839 1.259 . S
C861 O840 1.254 . S
O862 Zn832 2.066 1_556 S
O862 C834 1.256 . S
O863 C834 1.244 . S
O863 Zn835 2.053 1_556 S
Zn864 O865 2.055 . S
Zn864 O872 2.046 . S
Zn864 N880 2.036 . S
Zn864 O892 2.053 . S
Zn864 O894 2.066 . S
O865 Zn864 2.055 . S
O865 C868 1.259 . S
C866 O894 1.256 . S
C866 O895 1.244 . S
Zn867 O869 2.046 . S
Zn867 O871 2.055 . S
Zn867 N873 2.036 . S
Zn867 O891 2.066 . S
Zn867 O895 2.053 . S
C868 O865 1.259 . S
C868 O869 1.254 . S
O869 Zn867 2.046 . S
O869 C868 1.254 . S
C870 O891 1.256 . S
C870 O892 1.244 . S
O871 Zn867 2.055 . S
O871 C893 1.259 . S
O872 Zn864 2.046 . S
O872 C893 1.254 . S
N873 Zn867 2.036 . S
N873 C874 1.298 . S
N873 N876 1.398 . S
C874 N873 1.298 . S
C874 N877 1.367 . S
C874 C887 1.481 . S
C875 N876 1.299 . S
C875 N877 1.379 . S
N876 N873 1.398 . S
N876 C875 1.299 . S
N877 C874 1.367 . S
N877 C875 1.379 . S
C878 N880 1.298 . S
C878 N882 1.367 . S
C878 C886 1.481 . S
C879 N881 1.299 . S
C879 N882 1.379 . S
N880 Zn864 2.036 . S
N880 C878 1.298 . S
N880 N881 1.398 . S
N881 C879 1.299 . S
N881 N880 1.398 . S
N882 C878 1.367 . S
N882 C879 1.379 . S
H883 C886 0.980 . S
H884 C886 0.981 . S
H885 C886 0.981 . S
C886 C878 1.481 . S
C886 H883 0.980 . S
C886 H884 0.981 . S
C886 H885 0.981 . S
C887 C874 1.481 . S
C887 H888 0.980 . S
C887 H889 0.981 . S
C887 H890 0.981 . S
H888 C887 0.980 . S
H889 C887 0.981 . S
H890 C887 0.981 . S
O891 Zn867 2.066 . S
O891 C870 1.256 . S
O892 Zn864 2.053 . S
O892 C870 1.244 . S
C893 O871 1.259 . S
C893 O872 1.254 . S
O894 Zn864 2.066 . S
O894 C866 1.256 . S
O895 C866 1.244 . S
O895 Zn867 2.053 . S
Zn896 O897 2.055 . S
Zn896 O904 2.046 . S
Zn896 N912 2.036 . S
Zn896 O924 2.053 . S
Zn896 O926 2.066 . S
O897 Zn896 2.055 . S
O897 C900 1.259 1_554 S
C898 O926 1.256 1_556 S
C898 O927 1.244 1_556 S
Zn899 O901 2.046 . S
Zn899 O903 2.055 . S
Zn899 N905 2.036 . S
Zn899 O923 2.066 . S
Zn899 O927 2.053 . S
C900 O897 1.259 1_556 S
C900 O901 1.254 1_556 S
O901 Zn899 2.046 . S
O901 C900 1.254 1_554 S
C902 O923 1.256 . S
C902 O924 1.244 . S
O903 Zn899 2.055 . S
O903 C925 1.259 . S
O904 Zn896 2.046 . S
O904 C925 1.254 . S
N905 Zn899 2.036 . S
N905 C906 1.298 . S
N905 N908 1.398 . S
C906 N905 1.298 . S
C906 N909 1.367 . S
C906 C919 1.481 . S
C907 N908 1.299 . S
C907 N909 1.379 . S
N908 N905 1.398 . S
N908 C907 1.299 . S
N909 C906 1.367 . S
N909 C907 1.379 . S
C910 N912 1.298 . S
C910 N914 1.367 . S
C910 C918 1.481 1_554 S
C911 N913 1.299 . S
C911 N914 1.379 . S
N912 Zn896 2.036 . S
N912 C910 1.298 . S
N912 N913 1.398 . S
N913 C911 1.299 . S
N913 N912 1.398 . S
N914 C910 1.367 . S
N914 C911 1.379 . S
H915 C918 0.980 . S
H916 C918 0.981 . S
H917 C918 0.981 . S
C918 C910 1.481 1_556 S
C918 H915 0.980 . S
C918 H916 0.981 . S
C918 H917 0.981 . S
C919 C906 1.481 . S
C919 H920 0.980 . S
C919 H921 0.981 . S
C919 H922 0.981 . S
H920 C919 0.980 . S
H921 C919 0.981 . S
H922 C919 0.981 . S
O923 Zn899 2.066 . S
O923 C902 1.256 . S
O924 Zn896 2.053 . S
O924 C902 1.244 . S
C925 O903 1.259 . S
C925 O904 1.254 . S
O926 Zn896 2.066 . S
O926 C898 1.256 1_554 S
O927 C898 1.244 1_554 S
O927 Zn899 2.053 . S
Zn928 O929 2.055 . S
Zn928 O936 2.046 . S
Zn928 N944 2.036 . S
Zn928 O956 2.053 . S
Zn928 O958 2.066 . S
O929 Zn928 2.055 . S
O929 C932 1.259 . S
C930 O958 1.256 . S
C930 O959 1.244 . S
Zn931 O933 2.046 . S
Zn931 O935 2.055 . S
Zn931 N937 2.036 . S
Zn931 O955 2.066 . S
Zn931 O959 2.053 . S
C932 O929 1.259 . S
C932 O933 1.254 . S
O933 Zn931 2.046 . S
O933 C932 1.254 . S
C934 O955 1.256 . S
C934 O956 1.244 . S
O935 Zn931 2.055 . S
O935 C957 1.259 . S
O936 Zn928 2.046 . S
O936 C957 1.254 . S
N937 Zn931 2.036 . S
N937 C938 1.298 . S
N937 N940 1.398 . S
C938 N937 1.298 . S
C938 N941 1.367 . S
C938 C951 1.481 . S
C939 N940 1.299 . S
C939 N941 1.379 . S
N940 N937 1.398 . S
N940 C939 1.299 . S
N941 C938 1.367 . S
N941 C939 1.379 . S
C942 N944 1.298 . S
C942 N946 1.367 . S
C942 C950 1.481 . S
C943 N945 1.299 . S
C943 N946 1.379 . S
N944 Zn928 2.036 . S
N944 C942 1.298 . S
N944 N945 1.398 . S
N945 C943 1.299 . S
N945 N944 1.398 . S
N946 C942 1.367 . S
N946 C943 1.379 . S
H947 C950 0.980 . S
H948 C950 0.981 . S
H949 C950 0.981 . S
C950 C942 1.481 . S
C950 H947 0.980 . S
C950 H948 0.981 . S
C950 H949 0.981 . S
C951 C938 1.481 . S
C951 H952 0.980 . S
C951 H953 0.981 . S
C951 H954 0.981 . S
H952 C951 0.980 . S
H953 C951 0.981 . S
H954 C951 0.981 . S
O955 Zn931 2.066 . S
O955 C934 1.256 . S
O956 Zn928 2.053 . S
O956 C934 1.244 . S
C957 O935 1.259 . S
C957 O936 1.254 . S
O958 Zn928 2.066 . S
O958 C930 1.256 . S
O959 C930 1.244 . S
O959 Zn931 2.053 . S
Zn960 O961 2.055 . S
Zn960 O968 2.046 . S
Zn960 N976 2.036 . S
Zn960 O988 2.053 . S
Zn960 O990 2.066 . S
O961 Zn960 2.055 . S
O961 C964 1.259 . S
C962 O990 1.256 . S
C962 O991 1.244 . S
Zn963 O965 2.046 . S
Zn963 O967 2.055 . S
Zn963 N969 2.036 . S
Zn963 O987 2.066 . S
Zn963 O991 2.053 . S
C964 O961 1.259 . S
C964 O965 1.254 . S
O965 Zn963 2.046 . S
O965 C964 1.254 . S
C966 O987 1.256 . S
C966 O988 1.244 . S
O967 Zn963 2.055 . S
O967 C989 1.259 . S
O968 Zn960 2.046 . S
O968 C989 1.254 . S
N969 Zn963 2.036 . S
N969 C970 1.298 . S
N969 N972 1.398 . S
C970 N969 1.298 . S
C970 N973 1.367 . S
C970 C983 1.481 . S
C971 N972 1.299 . S
C971 N973 1.379 . S
N972 N969 1.398 . S
N972 C971 1.299 . S
N973 C970 1.367 . S
N973 C971 1.379 . S
C974 N976 1.298 . S
C974 N978 1.367 . S
C974 C982 1.481 . S
C975 N977 1.299 . S
C975 N978 1.379 . S
N976 Zn960 2.036 . S
N976 C974 1.298 . S
N976 N977 1.398 . S
N977 C975 1.299 . S
N977 N976 1.398 . S
N978 C974 1.367 . S
N978 C975 1.379 . S
H979 C982 0.980 . S
H980 C982 0.981 . S
H981 C982 0.981 . S
C982 C974 1.481 . S
C982 H979 0.980 . S
C982 H980 0.981 . S
C982 H981 0.981 . S
C983 C970 1.481 . S
C983 H984 0.980 . S
C983 H985 0.981 . S
C983 H986 0.981 . S
H984 C983 0.980 . S
H985 C983 0.981 . S
H986 C983 0.981 . S
O987 Zn963 2.066 . S
O987 C966 1.256 . S
O988 Zn960 2.053 . S
O988 C966 1.244 . S
C989 O967 1.259 . S
C989 O968 1.254 . S
O990 Zn960 2.066 . S
O990 C962 1.256 . S
O991 C962 1.244 . S
O991 Zn963 2.053 . S
Zn992 O993 2.055 . S
Zn992 O1000 2.046 . S
Zn992 N1008 2.036 . S
Zn992 O1020 2.053 . S
Zn992 O1022 2.066 . S
O993 Zn992 2.055 . S
O993 C996 1.259 . S
C994 O1022 1.256 . S
C994 O1023 1.244 . S
Zn995 O997 2.046 . S
Zn995 O999 2.055 . S
Zn995 N1001 2.036 . S
Zn995 O1019 2.066 . S
Zn995 O1023 2.053 . S
C996 O993 1.259 . S
C996 O997 1.254 . S
O997 Zn995 2.046 . S
O997 C996 1.254 . S
C998 O1019 1.256 . S
C998 O1020 1.244 . S
O999 Zn995 2.055 . S
O999 C1021 1.259 . S
O1000 Zn992 2.046 . S
O1000 C1021 1.254 . S
N1001 Zn995 2.036 . S
N1001 C1002 1.298 . S
N1001 N1004 1.398 . S
C1002 N1001 1.298 . S
C1002 N1005 1.367 . S
C1002 C1015 1.481 . S
C1003 N1004 1.299 . S
C1003 N1005 1.379 . S
N1004 N1001 1.398 . S
N1004 C1003 1.299 . S
N1005 C1002 1.367 . S
N1005 C1003 1.379 . S
C1006 N1008 1.298 . S
C1006 N1010 1.367 . S
C1006 C1014 1.481 . S
C1007 N1009 1.299 . S
C1007 N1010 1.379 . S
N1008 Zn992 2.036 . S
N1008 C1006 1.298 . S
N1008 N1009 1.398 . S
N1009 C1007 1.299 . S
N1009 N1008 1.398 . S
N1010 C1006 1.367 . S
N1010 C1007 1.379 . S
H1011 C1014 0.980 . S
H1012 C1014 0.981 . S
H1013 C1014 0.981 . S
C1014 C1006 1.481 . S
C1014 H1011 0.980 . S
C1014 H1012 0.981 . S
C1014 H1013 0.981 . S
C1015 C1002 1.481 . S
C1015 H1016 0.980 . S
C1015 H1017 0.981 . S
C1015 H1018 0.981 . S
H1016 C1015 0.980 . S
H1017 C1015 0.981 . S
H1018 C1015 0.981 . S
O1019 Zn995 2.066 . S
O1019 C998 1.256 . S
O1020 Zn992 2.053 . S
O1020 C998 1.244 . S
C1021 O999 1.259 . S
C1021 O1000 1.254 . S
O1022 Zn992 2.066 . S
O1022 C994 1.256 . S
O1023 C994 1.244 . S
O1023 Zn995 2.053 . S
H1024 C1032 0.929 . S
H1025 C1034 0.930 . S
H1026 C1036 0.930 . S
H1027 C1039 0.929 . S
H1028 C1042 0.930 . S
H1029 C1044 0.960 . S
H1030 C1044 0.960 . S
H1031 C1044 0.960 . S
C1032 H1024 0.929 . S
C1032 C1033 1.377 . S
C1032 C1034 1.384 . S
C1033 C1032 1.377 . S
C1033 C1039 1.390 . S
C1034 H1025 0.930 . S
C1034 C1032 1.384 . S
C1034 C1035 1.372 . S
C1035 C1034 1.372 . S
C1035 C1036 1.400 . S
C1035 C1040 1.490 . S
C1036 H1026 0.930 . S
C1036 C1035 1.400 . S
C1036 C1039 1.386 . S
H1037 C1053 0.930 . S
H1038 C1054 0.931 . S
C1039 H1027 0.929 . S
C1039 C1033 1.390 . S
C1039 C1036 1.386 . S
C1040 C1035 1.490 . S
C1040 C1042 1.395 . S
C1040 C1043 1.403 . S
H1041 C1047 0.930 . S
C1042 H1028 0.930 . S
C1042 C1040 1.395 . S
C1042 C1045 1.403 . S
C1043 C1040 1.403 . S
C1043 C1044 1.524 . S
C1043 C1047 1.400 . S
C1044 H1029 0.960 . S
C1044 H1030 0.960 . S
C1044 H1031 0.960 . S
C1044 C1043 1.524 . S
C1045 C1042 1.403 . S
C1045 C1046 1.392 . S
C1045 C1049 1.495 . S
C1046 C1045 1.392 . S
C1046 C1047 1.385 . S
C1046 C1048 1.478 . S
C1047 H1041 0.930 . S
C1047 C1043 1.400 . S
C1047 C1046 1.385 . S
C1048 C1046 1.478 . S
C1048 C1050 1.381 . S
C1048 C1054 1.383 . S
C1049 C1045 1.495 . S
C1049 H1055 0.959 . S
C1049 H1056 0.961 . S
C1049 H1057 0.960 . S
C1050 C1048 1.381 . S
C1050 C1051 1.394 . S
C1050 H1058 0.930 . S
C1051 C1050 1.394 . S
C1051 C1052 1.383 . S
C1051 H1059 0.929 . S
C1052 C1051 1.383 . S
C1052 C1053 1.377 . S
C1053 H1037 0.930 . S
C1053 C1052 1.377 . S
C1053 C1054 1.379 . S
C1054 H1038 0.931 . S
C1054 C1048 1.383 . S
C1054 C1053 1.379 . S
H1055 C1049 0.959 . S
H1056 C1049 0.961 . S
H1057 C1049 0.960 . S
H1058 C1050 0.930 . S
H1059 C1051 0.929 . S
H1060 C1068 0.929 . S
H1061 C1070 0.930 . S
H1062 C1072 0.930 . S
H1063 C1075 0.929 . S
H1064 C1078 0.930 . S
H1065 C1080 0.960 . S
H1066 C1080 0.960 . S
H1067 C1080 0.960 . S
C1068 H1060 0.929 . S
C1068 C1069 1.377 . S
C1068 C1070 1.384 . S
C1069 C1068 1.377 . S
C1069 C1075 1.390 . S
C1070 H1061 0.930 . S
C1070 C1068 1.384 . S
C1070 C1071 1.372 . S
C1071 C1070 1.372 . S
C1071 C1072 1.400 . S
C1071 C1076 1.490 . S
C1072 H1062 0.930 . S
C1072 C1071 1.400 . S
C1072 C1075 1.386 . S
H1073 C1089 0.930 . S
H1074 C1090 0.931 . S
C1075 H1063 0.929 . S
C1075 C1069 1.390 . S
C1075 C1072 1.386 . S
C1076 C1071 1.490 . S
C1076 C1078 1.395 . S
C1076 C1079 1.403 . S
H1077 C1083 0.930 . S
C1078 H1064 0.930 . S
C1078 C1076 1.395 . S
C1078 C1081 1.403 . S
C1079 C1076 1.403 . S
C1079 C1080 1.524 . S
C1079 C1083 1.400 . S
C1080 H1065 0.960 . S
C1080 H1066 0.960 . S
C1080 H1067 0.960 . S
C1080 C1079 1.524 . S
C1081 C1078 1.403 . S
C1081 C1082 1.392 . S
C1081 C1085 1.495 . S
C1082 C1081 1.392 . S
C1082 C1083 1.385 . S
C1082 C1084 1.478 . S
C1083 H1077 0.930 . S
C1083 C1079 1.400 . S
C1083 C1082 1.385 . S
C1084 C1082 1.478 . S
C1084 C1086 1.381 . S
C1084 C1090 1.383 . S
C1085 C1081 1.495 . S
C1085 H1091 0.959 . S
C1085 H1092 0.961 . S
C1085 H1093 0.960 . S
C1086 C1084 1.381 . S
C1086 C1087 1.394 . S
C1086 H1094 0.930 . S
C1087 C1086 1.394 . S
C1087 C1088 1.383 . S
C1087 H1095 0.929 . S
C1088 C1087 1.383 . S
C1088 C1089 1.377 . S
C1089 H1073 0.930 . S
C1089 C1088 1.377 . S
C1089 C1090 1.379 . S
C1090 H1074 0.931 . S
C1090 C1084 1.383 . S
C1090 C1089 1.379 . S
H1091 C1085 0.959 . S
H1092 C1085 0.961 . S
H1093 C1085 0.960 . S
H1094 C1086 0.930 . S
H1095 C1087 0.929 . S
H1096 C1104 0.929 . S
H1097 C1106 0.930 . S
H1098 C1108 0.930 . S
H1099 C1111 0.929 . S
H1100 C1114 0.930 . S
H1101 C1116 0.960 . S
H1102 C1116 0.960 . S
H1103 C1116 0.960 . S
C1104 H1096 0.929 . S
C1104 C1105 1.377 . S
C1104 C1106 1.384 . S
C1105 C1104 1.377 . S
C1105 C1111 1.390 . S
C1106 H1097 0.930 . S
C1106 C1104 1.384 . S
C1106 C1107 1.372 . S
C1107 C1106 1.372 . S
C1107 C1108 1.400 . S
C1107 C1112 1.490 . S
C1108 H1098 0.930 . S
C1108 C1107 1.400 . S
C1108 C1111 1.386 . S
H1109 C1125 0.930 . S
H1110 C1126 0.931 . S
C1111 H1099 0.929 . S
C1111 C1105 1.390 . S
C1111 C1108 1.386 . S
C1112 C1107 1.490 . S
C1112 C1114 1.395 . S
C1112 C1115 1.403 . S
H1113 C1119 0.930 . S
C1114 H1100 0.930 . S
C1114 C1112 1.395 . S
C1114 C1117 1.403 . S
C1115 C1112 1.403 . S
C1115 C1116 1.524 . S
C1115 C1119 1.400 . S
C1116 H1101 0.960 . S
C1116 H1102 0.960 . S
C1116 H1103 0.960 . S
C1116 C1115 1.524 . S
C1117 C1114 1.403 . S
C1117 C1118 1.392 . S
C1117 C1121 1.495 . S
C1118 C1117 1.392 . S
C1118 C1119 1.385 . S
C1118 C1120 1.478 . S
C1119 H1113 0.930 . S
C1119 C1115 1.400 . S
C1119 C1118 1.385 . S
C1120 C1118 1.478 . S
C1120 C1122 1.381 . S
C1120 C1126 1.383 . S
C1121 C1117 1.495 . S
C1121 H1127 0.959 . S
C1121 H1128 0.961 . S
C1121 H1129 0.960 . S
C1122 C1120 1.381 . S
C1122 C1123 1.394 . S
C1122 H1130 0.930 . S
C1123 C1122 1.394 . S
C1123 C1124 1.383 . S
C1123 H1131 0.929 . S
C1124 C1123 1.383 . S
C1124 C1125 1.377 . S
C1125 H1109 0.930 . S
C1125 C1124 1.377 . S
C1125 C1126 1.379 . S
C1126 H1110 0.931 . S
C1126 C1120 1.383 . S
C1126 C1125 1.379 . S
H1127 C1121 0.959 . S
H1128 C1121 0.961 . S
H1129 C1121 0.960 . S
H1130 C1122 0.930 . S
H1131 C1123 0.929 . S
H1132 C1140 0.929 . S
H1133 C1142 0.930 . S
H1134 C1144 0.930 . S
H1135 C1147 0.929 . S
H1136 C1150 0.930 . S
H1137 C1152 0.960 . S
H1138 C1152 0.960 . S
H1139 C1152 0.960 . S
C1140 H1132 0.929 . S
C1140 C1141 1.377 . S
C1140 C1142 1.384 . S
C1141 C1140 1.377 . S
C1141 C1147 1.390 . S
C1142 H1133 0.930 . S
C1142 C1140 1.384 . S
C1142 C1143 1.372 . S
C1143 C1142 1.372 . S
C1143 C1144 1.400 . S
C1143 C1148 1.490 . S
C1144 H1134 0.930 . S
C1144 C1143 1.400 . S
C1144 C1147 1.386 . S
H1145 C1161 0.930 . S
H1146 C1162 0.931 . S
C1147 H1135 0.929 . S
C1147 C1141 1.390 . S
C1147 C1144 1.386 . S
C1148 C1143 1.490 . S
C1148 C1150 1.395 . S
C1148 C1151 1.403 . S
H1149 C1155 0.930 . S
C1150 H1136 0.930 . S
C1150 C1148 1.395 . S
C1150 C1153 1.403 1_554 S
C1151 C1148 1.403 . S
C1151 C1152 1.524 . S
C1151 C1155 1.400 . S
C1152 H1137 0.960 . S
C1152 H1138 0.960 . S
C1152 H1139 0.960 . S
C1152 C1151 1.524 . S
C1153 C1150 1.403 1_556 S
C1153 C1154 1.392 . S
C1153 C1157 1.495 . S
C1154 C1153 1.392 . S
C1154 C1155 1.385 1_556 S
C1154 C1156 1.478 . S
C1155 H1149 0.930 . S
C1155 C1151 1.400 . S
C1155 C1154 1.385 1_554 S
C1156 C1154 1.478 . S
C1156 C1158 1.381 . S
C1156 C1162 1.383 . S
C1157 C1153 1.495 . S
C1157 H1163 0.959 . S
C1157 H1164 0.961 . S
C1157 H1165 0.960 . S
C1158 C1156 1.381 . S
C1158 C1159 1.394 . S
C1158 H1166 0.930 . S
C1159 C1158 1.394 . S
C1159 C1160 1.383 . S
C1159 H1167 0.929 . S
C1160 C1159 1.383 . S
C1160 C1161 1.377 . S
C1161 H1145 0.930 . S
C1161 C1160 1.377 . S
C1161 C1162 1.379 . S
C1162 H1146 0.931 . S
C1162 C1156 1.383 . S
C1162 C1161 1.379 . S
H1163 C1157 0.959 . S
H1164 C1157 0.961 . S
H1165 C1157 0.960 . S
H1166 C1158 0.930 . S
H1167 C1159 0.929 . S
H1168 C1176 0.929 . S
H1169 C1178 0.930 . S
H1170 C1180 0.930 . S
H1171 C1183 0.929 . S
H1172 C1186 0.930 . S
H1173 C1188 0.960 . S
H1174 C1188 0.960 . S
H1175 C1188 0.960 . S
C1176 H1168 0.929 . S
C1176 C1177 1.377 . S
C1176 C1178 1.384 . S
C1177 C1176 1.377 . S
C1177 C1183 1.390 . S
C1178 H1169 0.930 . S
C1178 C1176 1.384 . S
C1178 C1179 1.372 . S
C1179 C1178 1.372 . S
C1179 C1180 1.400 . S
C1179 C1184 1.490 . S
C1180 H1170 0.930 . S
C1180 C1179 1.400 . S
C1180 C1183 1.386 . S
H1181 C1197 0.930 . S
H1182 C1198 0.931 . S
C1183 H1171 0.929 . S
C1183 C1177 1.390 . S
C1183 C1180 1.386 . S
C1184 C1179 1.490 . S
C1184 C1186 1.395 . S
C1184 C1187 1.403 . S
H1185 C1191 0.930 . S
C1186 H1172 0.930 . S
C1186 C1184 1.395 . S
C1186 C1189 1.403 . S
C1187 C1184 1.403 . S
C1187 C1188 1.524 . S
C1187 C1191 1.400 . S
C1188 H1173 0.960 . S
C1188 H1174 0.960 . S
C1188 H1175 0.960 . S
C1188 C1187 1.524 . S
C1189 C1186 1.403 . S
C1189 C1190 1.392 . S
C1189 C1193 1.495 . S
C1190 C1189 1.392 . S
C1190 C1191 1.385 . S
C1190 C1192 1.478 . S
C1191 H1185 0.930 . S
C1191 C1187 1.400 . S
C1191 C1190 1.385 . S
C1192 C1190 1.478 . S
C1192 C1194 1.381 . S
C1192 C1198 1.383 . S
C1193 C1189 1.495 . S
C1193 H1199 0.959 . S
C1193 H1200 0.961 . S
C1193 H1201 0.960 . S
C1194 C1192 1.381 . S
C1194 C1195 1.394 . S
C1194 H1202 0.930 . S
C1195 C1194 1.394 . S
C1195 C1196 1.383 . S
C1195 H1203 0.929 . S
C1196 C1195 1.383 . S
C1196 C1197 1.377 . S
C1197 H1181 0.930 . S
C1197 C1196 1.377 . S
C1197 C1198 1.379 . S
C1198 H1182 0.931 . S
C1198 C1192 1.383 . S
C1198 C1197 1.379 . S
H1199 C1193 0.959 . S
H1200 C1193 0.961 . S
H1201 C1193 0.960 . S
H1202 C1194 0.930 . S
H1203 C1195 0.929 . S
H1204 C1212 0.929 . S
H1205 C1214 0.930 . S
H1206 C1216 0.930 . S
H1207 C1219 0.929 . S
H1208 C1222 0.930 . S
H1209 C1224 0.960 . S
H1210 C1224 0.960 . S
H1211 C1224 0.960 . S
C1212 H1204 0.929 . S
C1212 C1213 1.377 . S
C1212 C1214 1.384 . S
C1213 C1212 1.377 . S
C1213 C1219 1.390 . S
C1214 H1205 0.930 . S
C1214 C1212 1.384 . S
C1214 C1215 1.372 . S
C1215 C1214 1.372 . S
C1215 C1216 1.400 . S
C1215 C1220 1.490 . S
C1216 H1206 0.930 . S
C1216 C1215 1.400 . S
C1216 C1219 1.386 . S
H1217 C1233 0.930 . S
H1218 C1234 0.931 . S
C1219 H1207 0.929 . S
C1219 C1213 1.390 . S
C1219 C1216 1.386 . S
C1220 C1215 1.490 . S
C1220 C1222 1.395 . S
C1220 C1223 1.403 . S
H1221 C1227 0.930 . S
C1222 H1208 0.930 . S
C1222 C1220 1.395 . S
C1222 C1225 1.403 . S
C1223 C1220 1.403 . S
C1223 C1224 1.524 . S
C1223 C1227 1.400 . S
C1224 H1209 0.960 . S
C1224 H1210 0.960 . S
C1224 H1211 0.960 . S
C1224 C1223 1.524 . S
C1225 C1222 1.403 . S
C1225 C1226 1.392 . S
C1225 C1229 1.495 . S
C1226 C1225 1.392 . S
C1226 C1227 1.385 . S
C1226 C1228 1.478 . S
C1227 H1221 0.930 . S
C1227 C1223 1.400 . S
C1227 C1226 1.385 . S
C1228 C1226 1.478 . S
C1228 C1230 1.381 . S
C1228 C1234 1.383 . S
C1229 C1225 1.495 . S
C1229 H1235 0.959 . S
C1229 H1236 0.961 . S
C1229 H1237 0.960 . S
C1230 C1228 1.381 . S
C1230 C1231 1.394 . S
C1230 H1238 0.930 . S
C1231 C1230 1.394 . S
C1231 C1232 1.383 . S
C1231 H1239 0.929 . S
C1232 C1231 1.383 . S
C1232 C1233 1.377 . S
C1233 H1217 0.930 . S
C1233 C1232 1.377 . S
C1233 C1234 1.379 . S
C1234 H1218 0.931 . S
C1234 C1228 1.383 . S
C1234 C1233 1.379 . S
H1235 C1229 0.959 . S
H1236 C1229 0.961 . S
H1237 C1229 0.960 . S
H1238 C1230 0.930 . S
H1239 C1231 0.929 . S
H1240 C1248 0.929 . S
H1241 C1250 0.930 . S
H1242 C1252 0.930 . S
H1243 C1255 0.929 . S
H1244 C1258 0.930 . S
H1245 C1260 0.960 . S
H1246 C1260 0.960 . S
H1247 C1260 0.960 . S
C1248 H1240 0.929 . S
C1248 C1249 1.377 . S
C1248 C1250 1.384 . S
C1249 C1248 1.377 . S
C1249 C1255 1.390 . S
C1250 H1241 0.930 . S
C1250 C1248 1.384 . S
C1250 C1251 1.372 . S
C1251 C1250 1.372 . S
C1251 C1252 1.400 . S
C1251 C1256 1.490 . S
C1252 H1242 0.930 . S
C1252 C1251 1.400 . S
C1252 C1255 1.386 . S
H1253 C1269 0.930 . S
H1254 C1270 0.931 . S
C1255 H1243 0.929 . S
C1255 C1249 1.390 . S
C1255 C1252 1.386 . S
C1256 C1251 1.490 . S
C1256 C1258 1.395 . S
C1256 C1259 1.403 . S
H1257 C1263 0.930 . S
C1258 H1244 0.930 . S
C1258 C1256 1.395 . S
C1258 C1261 1.403 . S
C1259 C1256 1.403 . S
C1259 C1260 1.524 . S
C1259 C1263 1.400 . S
C1260 H1245 0.960 . S
C1260 H1246 0.960 . S
C1260 H1247 0.960 . S
C1260 C1259 1.524 . S
C1261 C1258 1.403 . S
C1261 C1262 1.392 . S
C1261 C1265 1.495 . S
C1262 C1261 1.392 . S
C1262 C1263 1.385 . S
C1262 C1264 1.478 . S
C1263 H1257 0.930 . S
C1263 C1259 1.400 . S
C1263 C1262 1.385 . S
C1264 C1262 1.478 . S
C1264 C1266 1.381 . S
C1264 C1270 1.383 . S
C1265 C1261 1.495 . S
C1265 H1271 0.959 . S
C1265 H1272 0.961 . S
C1265 H1273 0.960 . S
C1266 C1264 1.381 . S
C1266 C1267 1.394 . S
C1266 H1274 0.930 . S
C1267 C1266 1.394 . S
C1267 C1268 1.383 . S
C1267 H1275 0.929 . S
C1268 C1267 1.383 . S
C1268 C1269 1.377 . S
C1269 H1253 0.930 . S
C1269 C1268 1.377 . S
C1269 C1270 1.379 . S
C1270 H1254 0.931 . S
C1270 C1264 1.383 . S
C1270 C1269 1.379 . S
H1271 C1265 0.959 . S
H1272 C1265 0.961 . S
H1273 C1265 0.960 . S
H1274 C1266 0.930 . S
H1275 C1267 0.929 . S
H1276 C1284 0.929 . S
H1277 C1286 0.930 . S
H1278 C1288 0.930 . S
H1279 C1291 0.929 . S
H1280 C1294 0.930 . S
H1281 C1296 0.960 1_556 S
H1282 C1296 0.960 . S
H1283 C1296 0.960 . S
C1284 H1276 0.929 . S
C1284 C1285 1.377 . S
C1284 C1286 1.384 . S
C1285 C1284 1.377 . S
C1285 C1291 1.390 . S
C1286 H1277 0.930 . S
C1286 C1284 1.384 . S
C1286 C1287 1.372 . S
C1287 C1286 1.372 . S
C1287 C1288 1.400 . S
C1287 C1292 1.490 . S
C1288 H1278 0.930 . S
C1288 C1287 1.400 . S
C1288 C1291 1.386 . S
H1289 C1305 0.930 . S
H1290 C1306 0.931 . S
C1291 H1279 0.929 . S
C1291 C1285 1.390 . S
C1291 C1288 1.386 . S
C1292 C1287 1.490 . S
C1292 C1294 1.395 . S
C1292 C1295 1.403 . S
H1293 C1299 0.925 1_556 S
C1294 H1280 0.930 . S
C1294 C1292 1.395 . S
C1294 C1297 1.403 . S
C1295 C1292 1.403 . S
C1295 C1296 1.524 . S
C1295 C1299 1.404 . S
C1296 H1281 0.960 1_554 S
C1296 H1282 0.960 . S
C1296 H1283 0.960 . S
C1296 C1295 1.524 . S
C1297 C1294 1.403 . S
C1297 C1298 1.392 . S
C1297 C1301 1.495 . S
C1298 C1297 1.392 . S
C1298 C1299 1.386 . S
C1298 C1300 1.478 1_554 S
C1299 H1293 0.925 1_554 S
C1299 C1295 1.404 . S
C1299 C1298 1.386 . S
C1300 C1298 1.478 1_556 S
C1300 C1302 1.381 . S
C1300 C1306 1.383 . S
C1301 C1297 1.495 . S
C1301 H1307 0.959 . S
C1301 H1308 0.961 . S
C1301 H1309 0.960 . S
C1302 C1300 1.381 . S
C1302 C1303 1.394 . S
C1302 H1310 0.930 . S
C1303 C1302 1.394 . S
C1303 C1304 1.383 . S
C1303 H1311 0.929 . S
C1304 C1303 1.383 . S
C1304 C1305 1.377 . S
C1305 H1289 0.930 . S
C1305 C1304 1.377 . S
C1305 C1306 1.379 . S
C1306 H1290 0.931 . S
C1306 C1300 1.383 . S
C1306 C1305 1.379 . S
H1307 C1301 0.959 . S
H1308 C1301 0.961 . S
H1309 C1301 0.960 . S
H1310 C1302 0.930 . S
H1311 C1303 0.929 . S
H1312 C1320 0.929 . S
H1313 C1322 0.930 . S
H1314 C1324 0.930 . S
H1315 C1327 0.929 . S
H1316 C1330 0.930 . S
H1317 C1332 0.960 . S
H1318 C1332 0.960 . S
H1319 C1332 0.960 . S
C1320 H1312 0.929 . S
C1320 C1321 1.377 . S
C1320 C1322 1.384 . S
C1321 C1320 1.377 . S
C1321 C1327 1.390 . S
C1322 H1313 0.930 . S
C1322 C1320 1.384 . S
C1322 C1323 1.372 . S
C1323 C1322 1.372 . S
C1323 C1324 1.400 . S
C1323 C1328 1.490 . S
C1324 H1314 0.930 . S
C1324 C1323 1.400 . S
C1324 C1327 1.386 . S
H1325 C1341 0.930 . S
H1326 C1342 0.931 . S
C1327 H1315 0.929 . S
C1327 C1321 1.390 . S
C1327 C1324 1.386 . S
C1328 C1323 1.490 . S
C1328 C1330 1.395 1_545 S
C1328 C1331 1.403 . S
H1329 C1335 0.936 . S
C1330 H1316 0.930 . S
C1330 C1328 1.395 1_565 S
C1330 C1333 1.403 . S
C1331 C1328 1.403 . S
C1331 C1332 1.524 . S
C1331 C1335 1.430 . S
C1332 H1317 0.960 . S
C1332 H1318 0.960 . S
C1332 H1319 0.960 . S
C1332 C1331 1.524 . S
C1333 C1330 1.403 . S
C1333 C1334 1.392 . S
C1333 C1337 1.495 . S
C1334 C1333 1.392 . S
C1334 C1335 1.351 1_565 S
C1334 C1336 1.478 . S
C1335 H1329 0.936 . S
C1335 C1331 1.430 . S
C1335 C1334 1.351 1_545 S
C1336 C1334 1.478 . S
C1336 C1338 1.381 . S
C1336 C1342 1.383 . S
C1337 C1333 1.495 . S
C1337 H1343 0.959 . S
C1337 H1344 0.961 . S
C1337 H1345 0.960 . S
C1338 C1336 1.381 . S
C1338 C1339 1.394 . S
C1338 H1346 0.930 . S
C1339 C1338 1.394 . S
C1339 C1340 1.383 . S
C1339 H1347 0.929 . S
C1340 C1339 1.383 . S
C1340 C1341 1.377 . S
C1341 H1325 0.930 . S
C1341 C1340 1.377 . S
C1341 C1342 1.379 . S
C1342 H1326 0.931 . S
C1342 C1336 1.383 . S
C1342 C1341 1.379 . S
H1343 C1337 0.959 . S
H1344 C1337 0.961 . S
H1345 C1337 0.960 . S
H1346 C1338 0.930 . S
H1347 C1339 0.929 . S
H1348 C1356 0.929 . S
H1349 C1358 0.930 . S
H1350 C1360 0.930 1_554 S
H1351 C1363 0.929 . S
H1352 C1366 0.930 1_556 S
H1353 C1368 0.960 . S
H1354 C1368 0.960 . S
H1355 C1368 0.960 . S
C1356 H1348 0.929 . S
C1356 C1357 1.377 . S
C1356 C1358 1.384 . S
C1357 C1356 1.377 . S
C1357 C1363 1.390 . S
C1358 H1349 0.930 . S
C1358 C1356 1.384 . S
C1358 C1359 1.372 . S
C1359 C1358 1.372 . S
C1359 C1360 1.400 . S
C1359 C1364 1.490 1_556 S
C1360 H1350 0.930 1_556 S
C1360 C1359 1.400 . S
C1360 C1363 1.386 . S
H1361 C1377 0.930 . S
H1362 C1378 0.931 . S
C1363 H1351 0.929 . S
C1363 C1357 1.390 . S
C1363 C1360 1.386 . S
C1364 C1359 1.490 1_554 S
C1364 C1366 1.395 . S
C1364 C1367 1.403 . S
H1365 C1371 0.930 . S
C1366 H1352 0.930 1_554 S
C1366 C1364 1.395 . S
C1366 C1369 1.403 . S
C1367 C1364 1.403 . S
C1367 C1368 1.524 . S
C1367 C1371 1.400 . S
C1368 H1353 0.960 . S
C1368 H1354 0.960 . S
C1368 H1355 0.960 . S
C1368 C1367 1.524 . S
C1369 C1366 1.403 . S
C1369 C1370 1.392 . S
C1369 C1373 1.495 . S
C1370 C1369 1.392 . S
C1370 C1371 1.385 . S
C1370 C1372 1.478 . S
C1371 H1365 0.930 . S
C1371 C1367 1.400 . S
C1371 C1370 1.385 . S
C1372 C1370 1.478 . S
C1372 C1374 1.381 . S
C1372 C1378 1.383 . S
C1373 C1369 1.495 . S
C1373 H1379 0.959 . S
C1373 H1380 0.961 . S
C1373 H1381 0.960 . S
C1374 C1372 1.381 . S
C1374 C1375 1.394 . S
C1374 H1382 0.930 . S
C1375 C1374 1.394 . S
C1375 C1376 1.383 . S
C1375 H1383 0.929 . S
C1376 C1375 1.383 . S
C1376 C1377 1.377 . S
C1377 H1361 0.930 . S
C1377 C1376 1.377 . S
C1377 C1378 1.379 . S
C1378 H1362 0.931 . S
C1378 C1372 1.383 . S
C1378 C1377 1.379 . S
H1379 C1373 0.959 . S
H1380 C1373 0.961 . S
H1381 C1373 0.960 . S
H1382 C1374 0.930 . S
H1383 C1375 0.929 . S
H1384 C1392 0.929 . S
H1385 C1394 0.930 . S
H1386 C1396 0.930 . S
H1387 C1399 0.929 . S
H1388 C1402 0.939 . S
H1389 C1404 0.960 . S
H1390 C1404 0.960 . S
H1391 C1404 0.960 . S
C1392 H1384 0.929 . S
C1392 C1393 1.377 . S
C1392 C1394 1.384 . S
C1393 C1392 1.377 . S
C1393 C1399 1.390 . S
C1394 H1385 0.930 . S
C1394 C1392 1.384 . S
C1394 C1395 1.372 . S
C1395 C1394 1.372 . S
C1395 C1396 1.400 . S
C1395 C1400 1.490 . S
C1396 H1386 0.930 . S
C1396 C1395 1.400 . S
C1396 C1399 1.386 . S
H1397 C1413 0.930 . S
H1398 C1414 0.931 . S
C1399 H1387 0.929 . S
C1399 C1393 1.390 . S
C1399 C1396 1.386 . S
C1400 C1395 1.490 . S
C1400 C1402 1.441 . S
C1400 C1403 1.403 . S
H1401 C1407 0.930 . S
C1402 H1388 0.939 . S
C1402 C1400 1.441 . S
C1402 C1405 1.353 1_545 S
C1403 C1400 1.403 . S
C1403 C1404 1.524 . S
C1403 C1407 1.400 1_545 S
C1404 H1389 0.960 . S
C1404 H1390 0.960 . S
C1404 H1391 0.960 . S
C1404 C1403 1.524 . S
C1405 C1402 1.353 1_565 S
C1405 C1406 1.392 . S
C1405 C1409 1.495 . S
C1406 C1405 1.392 . S
C1406 C1407 1.385 . S
C1406 C1408 1.478 . S
C1407 H1401 0.930 . S
C1407 C1403 1.400 1_565 S
C1407 C1406 1.385 . S
C1408 C1406 1.478 . S
C1408 C1410 1.381 . S
C1408 C1414 1.383 . S
C1409 C1405 1.495 . S
C1409 H1415 0.959 . S
C1409 H1416 0.961 . S
C1409 H1417 0.960 . S
C1410 C1408 1.381 . S
C1410 C1411 1.394 . S
C1410 H1418 0.930 . S
C1411 C1410 1.394 . S
C1411 C1412 1.383 . S
C1411 H1419 0.929 . S
C1412 C1411 1.383 . S
C1412 C1413 1.377 . S
C1413 H1397 0.930 . S
C1413 C1412 1.377 . S
C1413 C1414 1.379 . S
C1414 H1398 0.931 . S
C1414 C1408 1.383 . S
C1414 C1413 1.379 . S
H1415 C1409 0.959 . S
H1416 C1409 0.961 . S
H1417 C1409 0.960 . S
H1418 C1410 0.930 . S
H1419 C1411 0.929 . S
H1420 C1428 0.929 . S
H1421 C1430 0.930 . S
H1422 C1432 0.930 . S
H1423 C1435 0.929 . S
H1424 C1438 0.930 . S
H1425 C1440 0.960 . S
H1426 C1440 0.960 . S
H1427 C1440 0.960 . S
C1428 H1420 0.929 . S
C1428 C1429 1.377 . S
C1428 C1430 1.384 . S
C1429 C1428 1.377 . S
C1429 C1435 1.390 . S
C1430 H1421 0.930 . S
C1430 C1428 1.384 . S
C1430 C1431 1.372 . S
C1431 C1430 1.372 . S
C1431 C1432 1.400 . S
C1431 C1436 1.490 . S
C1432 H1422 0.930 . S
C1432 C1431 1.400 . S
C1432 C1435 1.386 . S
H1433 C1449 0.930 . S
H1434 C1450 0.931 . S
C1435 H1423 0.929 . S
C1435 C1429 1.390 . S
C1435 C1432 1.386 . S
C1436 C1431 1.490 . S
C1436 C1438 1.395 . S
C1436 C1439 1.403 . S
H1437 C1443 0.930 . S
C1438 H1424 0.930 . S
C1438 C1436 1.395 . S
C1438 C1441 1.403 . S
C1439 C1436 1.403 . S
C1439 C1440 1.524 . S
C1439 C1443 1.400 . S
C1440 H1425 0.960 . S
C1440 H1426 0.960 . S
C1440 H1427 0.960 . S
C1440 C1439 1.524 . S
C1441 C1438 1.403 . S
C1441 C1442 1.392 . S
C1441 C1445 1.495 . S
C1442 C1441 1.392 . S
C1442 C1443 1.385 . S
C1442 C1444 1.478 . S
C1443 H1437 0.930 . S
C1443 C1439 1.400 . S
C1443 C1442 1.385 . S
C1444 C1442 1.478 . S
C1444 C1446 1.381 . S
C1444 C1450 1.383 . S
C1445 C1441 1.495 . S
C1445 H1451 0.959 . S
C1445 H1452 0.961 . S
C1445 H1453 0.960 . S
C1446 C1444 1.381 . S
C1446 C1447 1.394 . S
C1446 H1454 0.930 . S
C1447 C1446 1.394 . S
C1447 C1448 1.383 . S
C1447 H1455 0.929 . S
C1448 C1447 1.383 . S
C1448 C1449 1.377 . S
C1449 H1433 0.930 . S
C1449 C1448 1.377 . S
C1449 C1450 1.379 . S
C1450 H1434 0.931 . S
C1450 C1444 1.383 . S
C1450 C1449 1.379 . S
H1451 C1445 0.959 . S
H1452 C1445 0.961 . S
H1453 C1445 0.960 . S
H1454 C1446 0.930 . S
H1455 C1447 0.929 . S
H1456 C1464 0.929 . S
H1457 C1466 0.930 . S
H1458 C1468 0.930 . S
H1459 C1471 0.929 . S
H1460 C1474 0.930 . S
H1461 C1476 0.960 . S
H1462 C1476 0.960 . S
H1463 C1476 0.960 . S
C1464 H1456 0.929 . S
C1464 C1465 1.377 . S
C1464 C1466 1.384 . S
C1465 C1464 1.377 . S
C1465 C1471 1.390 . S
C1466 H1457 0.930 . S
C1466 C1464 1.384 . S
C1466 C1467 1.372 . S
C1467 C1466 1.372 . S
C1467 C1468 1.400 . S
C1467 C1472 1.490 . S
C1468 H1458 0.930 . S
C1468 C1467 1.400 . S
C1468 C1471 1.386 . S
H1469 C1485 0.930 . S
H1470 C1486 0.931 . S
C1471 H1459 0.929 . S
C1471 C1465 1.390 . S
C1471 C1468 1.386 . S
C1472 C1467 1.490 . S
C1472 C1474 1.395 . S
C1472 C1475 1.403 . S
H1473 C1479 0.930 . S
C1474 H1460 0.930 . S
C1474 C1472 1.395 . S
C1474 C1477 1.403 1_545 S
C1475 C1472 1.403 . S
C1475 C1476 1.524 . S
C1475 C1479 1.400 1_545 S
C1476 H1461 0.960 . S
C1476 H1462 0.960 . S
C1476 H1463 0.960 . S
C1476 C1475 1.524 . S
C1477 C1474 1.403 1_565 S
C1477 C1478 1.392 . S
C1477 C1481 1.495 . S
C1478 C1477 1.392 . S
C1478 C1479 1.385 . S
C1478 C1480 1.478 . S
C1479 H1473 0.930 . S
C1479 C1475 1.400 1_565 S
C1479 C1478 1.385 . S
C1480 C1478 1.478 . S
C1480 C1482 1.381 . S
C1480 C1486 1.383 . S
C1481 C1477 1.495 . S
C1481 H1487 0.959 . S
C1481 H1488 0.961 . S
C1481 H1489 0.960 . S
C1482 C1480 1.381 . S
C1482 C1483 1.394 . S
C1482 H1490 0.930 . S
C1483 C1482 1.394 . S
C1483 C1484 1.383 . S
C1483 H1491 0.929 . S
C1484 C1483 1.383 . S
C1484 C1485 1.377 . S
C1485 H1469 0.930 . S
C1485 C1484 1.377 . S
C1485 C1486 1.379 . S
C1486 H1470 0.931 . S
C1486 C1480 1.383 . S
C1486 C1485 1.379 . S
H1487 C1481 0.959 . S
H1488 C1481 0.961 . S
H1489 C1481 0.960 . S
H1490 C1482 0.930 . S
H1491 C1483 0.929 . S
H1492 C1500 0.929 . S
H1493 C1502 0.930 . S
H1494 C1504 0.930 1_554 S
H1495 C1507 0.929 . S
H1496 C1510 0.930 1_556 S
H1497 C1512 0.960 . S
H1498 C1512 0.960 1_556 S
H1499 C1512 0.960 . S
C1500 H1492 0.929 . S
C1500 C1501 1.377 . S
C1500 C1502 1.384 . S
C1501 C1500 1.377 . S
C1501 C1507 1.390 . S
C1502 H1493 0.930 . S
C1502 C1500 1.384 . S
C1502 C1503 1.372 . S
C1503 C1502 1.372 . S
C1503 C1504 1.400 . S
C1503 C1508 1.490 1_556 S
C1504 H1494 0.930 1_556 S
C1504 C1503 1.400 . S
C1504 C1507 1.386 . S
H1505 C1521 0.930 . S
H1506 C1522 0.931 . S
C1507 H1495 0.929 . S
C1507 C1501 1.390 . S
C1507 C1504 1.386 . S
C1508 C1503 1.490 1_554 S
C1508 C1510 1.395 . S
C1508 C1511 1.403 . S
H1509 C1515 0.930 . S
C1510 H1496 0.930 1_554 S
C1510 C1508 1.395 . S
C1510 C1513 1.403 . S
C1511 C1508 1.403 . S
C1511 C1512 1.524 . S
C1511 C1515 1.400 . S
C1512 H1497 0.960 . S
C1512 H1498 0.960 1_554 S
C1512 H1499 0.960 . S
C1512 C1511 1.524 . S
C1513 C1510 1.403 . S
C1513 C1514 1.392 . S
C1513 C1517 1.495 . S
C1514 C1513 1.392 . S
C1514 C1515 1.385 . S
C1514 C1516 1.478 . S
C1515 H1509 0.930 . S
C1515 C1511 1.400 . S
C1515 C1514 1.385 . S
C1516 C1514 1.478 . S
C1516 C1518 1.381 . S
C1516 C1522 1.383 . S
C1517 C1513 1.495 . S
C1517 H1523 0.959 . S
C1517 H1524 0.961 . S
C1517 H1525 0.960 . S
C1518 C1516 1.381 . S
C1518 C1519 1.394 . S
C1518 H1526 0.930 . S
C1519 C1518 1.394 . S
C1519 C1520 1.383 . S
C1519 H1527 0.929 . S
C1520 C1519 1.383 . S
C1520 C1521 1.377 . S
C1521 H1505 0.930 . S
C1521 C1520 1.377 . S
C1521 C1522 1.379 . S
C1522 H1506 0.931 . S
C1522 C1516 1.383 . S
C1522 C1521 1.379 . S
H1523 C1517 0.959 . S
H1524 C1517 0.961 . S
H1525 C1517 0.960 . S
H1526 C1518 0.930 . S
H1527 C1519 0.929 . S
H1528 C1536 0.929 . S
H1529 C1538 0.930 . S
H1530 C1540 0.930 . S
H1531 C1543 0.929 . S
H1532 C1546 0.930 . S
H1533 C1548 0.960 . S
H1534 C1548 0.960 . S
H1535 C1548 0.960 . S
C1536 H1528 0.929 . S
C1536 C1537 1.377 . S
C1536 C1538 1.384 . S
C1537 C1536 1.377 . S
C1537 C1543 1.390 . S
C1538 H1529 0.930 . S
C1538 C1536 1.384 . S
C1538 C1539 1.372 . S
C1539 C1538 1.372 . S
C1539 C1540 1.400 . S
C1539 C1544 1.490 . S
C1540 H1530 0.930 . S
C1540 C1539 1.400 . S
C1540 C1543 1.386 . S
H1541 C1557 0.930 . S
H1542 C1558 0.931 . S
C1543 H1531 0.929 . S
C1543 C1537 1.390 . S
C1543 C1540 1.386 . S
C1544 C1539 1.490 . S
C1544 C1546 1.395 . S
C1544 C1547 1.403 . S
H1545 C1551 0.930 . S
C1546 H1532 0.930 . S
C1546 C1544 1.395 . S
C1546 C1549 1.403 1_565 S
C1547 C1544 1.403 . S
C1547 C1548 1.524 . S
C1547 C1551 1.400 1_565 S
C1548 H1533 0.960 . S
C1548 H1534 0.960 . S
C1548 H1535 0.960 . S
C1548 C1547 1.524 . S
C1549 C1546 1.403 1_545 S
C1549 C1550 1.392 . S
C1549 C1553 1.495 . S
C1550 C1549 1.392 . S
C1550 C1551 1.385 . S
C1550 C1552 1.478 . S
C1551 H1545 0.930 . S
C1551 C1547 1.400 1_545 S
C1551 C1550 1.385 . S
C1552 C1550 1.478 . S
C1552 C1554 1.381 . S
C1552 C1558 1.383 . S
C1553 C1549 1.495 . S
C1553 H1559 0.959 . S
C1553 H1560 0.961 . S
C1553 H1561 0.960 . S
C1554 C1552 1.381 . S
C1554 C1555 1.394 . S
C1554 H1562 0.930 . S
C1555 C1554 1.394 . S
C1555 C1556 1.383 . S
C1555 H1563 0.929 . S
C1556 C1555 1.383 . S
C1556 C1557 1.377 . S
C1557 H1541 0.930 . S
C1557 C1556 1.377 . S
C1557 C1558 1.379 . S
C1558 H1542 0.931 . S
C1558 C1552 1.383 . S
C1558 C1557 1.379 . S
H1559 C1553 0.959 . S
H1560 C1553 0.961 . S
H1561 C1553 0.960 . S
H1562 C1554 0.930 . S
H1563 C1555 0.929 . S
H1564 C1572 0.929 . S
H1565 C1574 0.930 . S
H1566 C1576 0.930 . S
H1567 C1579 0.929 . S
H1568 C1582 0.930 . S
H1569 C1584 0.960 . S
H1570 C1584 0.960 . S
H1571 C1584 0.960 . S
C1572 H1564 0.929 . S
C1572 C1573 1.377 . S
C1572 C1574 1.384 . S
C1573 C1572 1.377 . S
C1573 C1579 1.390 . S
C1574 H1565 0.930 . S
C1574 C1572 1.384 . S
C1574 C1575 1.372 . S
C1575 C1574 1.372 . S
C1575 C1576 1.400 . S
C1575 C1580 1.490 . S
C1576 H1566 0.930 . S
C1576 C1575 1.400 . S
C1576 C1579 1.386 . S
H1577 C1593 0.930 . S
H1578 C1594 0.931 . S
C1579 H1567 0.929 . S
C1579 C1573 1.390 . S
C1579 C1576 1.386 . S
C1580 C1575 1.490 . S
C1580 C1582 1.395 . S
C1580 C1583 1.403 . S
H1581 C1587 0.930 . S
C1582 H1568 0.930 . S
C1582 C1580 1.395 . S
C1582 C1585 1.403 . S
C1583 C1580 1.403 . S
C1583 C1584 1.524 . S
C1583 C1587 1.400 . S
C1584 H1569 0.960 . S
C1584 H1570 0.960 . S
C1584 H1571 0.960 . S
C1584 C1583 1.524 . S
C1585 C1582 1.403 . S
C1585 C1586 1.392 . S
C1585 C1589 1.495 . S
C1586 C1585 1.392 . S
C1586 C1587 1.385 . S
C1586 C1588 1.478 . S
C1587 H1581 0.930 . S
C1587 C1583 1.400 . S
C1587 C1586 1.385 . S
C1588 C1586 1.478 . S
C1588 C1590 1.381 . S
C1588 C1594 1.383 . S
C1589 C1585 1.495 . S
C1589 H1595 0.959 . S
C1589 H1596 0.961 . S
C1589 H1597 0.960 . S
C1590 C1588 1.381 . S
C1590 C1591 1.394 . S
C1590 H1598 0.930 . S
C1591 C1590 1.394 . S
C1591 C1592 1.383 . S
C1591 H1599 0.929 . S
C1592 C1591 1.383 . S
C1592 C1593 1.377 . S
C1593 H1577 0.930 . S
C1593 C1592 1.377 . S
C1593 C1594 1.379 . S
C1594 H1578 0.931 . S
C1594 C1588 1.383 . S
C1594 C1593 1.379 . S
H1595 C1589 0.959 . S
H1596 C1589 0.961 . S
H1597 C1589 0.960 . S
H1598 C1590 0.930 . S
H1599 C1591 0.929 . S
H1600 C1608 0.929 . S
H1601 C1610 0.930 . S
H1602 C1612 0.930 . S
H1603 C1615 0.929 . S
H1604 C1618 0.930 . S
H1605 C1620 0.960 . S
H1606 C1620 0.960 . S
H1607 C1620 0.960 . S
C1608 H1600 0.929 . S
C1608 C1609 1.377 . S
C1608 C1610 1.384 . S
C1609 C1608 1.377 . S
C1609 C1615 1.390 . S
C1610 H1601 0.930 . S
C1610 C1608 1.384 . S
C1610 C1611 1.372 . S
C1611 C1610 1.372 . S
C1611 C1612 1.400 . S
C1611 C1616 1.490 . S
C1612 H1602 0.930 . S
C1612 C1611 1.400 . S
C1612 C1615 1.386 . S
H1613 C1629 0.930 . S
H1614 C1630 0.931 . S
C1615 H1603 0.929 . S
C1615 C1609 1.390 . S
C1615 C1612 1.386 . S
C1616 C1611 1.490 . S
C1616 C1618 1.395 . S
C1616 C1619 1.403 . S
H1617 C1623 0.930 . S
C1618 H1604 0.930 . S
C1618 C1616 1.395 . S
C1618 C1621 1.403 . S
C1619 C1616 1.403 . S
C1619 C1620 1.524 . S
C1619 C1623 1.400 . S
C1620 H1605 0.960 . S
C1620 H1606 0.960 . S
C1620 H1607 0.960 . S
C1620 C1619 1.524 . S
C1621 C1618 1.403 . S
C1621 C1622 1.392 . S
C1621 C1625 1.495 . S
C1622 C1621 1.392 . S
C1622 C1623 1.385 . S
C1622 C1624 1.478 . S
C1623 H1617 0.930 . S
C1623 C1619 1.400 . S
C1623 C1622 1.385 . S
C1624 C1622 1.478 . S
C1624 C1626 1.381 . S
C1624 C1630 1.383 . S
C1625 C1621 1.495 . S
C1625 H1631 0.959 . S
C1625 H1632 0.961 . S
C1625 H1633 0.960 . S
C1626 C1624 1.381 . S
C1626 C1627 1.394 . S
C1626 H1634 0.930 . S
C1627 C1626 1.394 . S
C1627 C1628 1.383 . S
C1627 H1635 0.929 . S
C1628 C1627 1.383 . S
C1628 C1629 1.377 . S
C1629 H1613 0.930 . S
C1629 C1628 1.377 . S
C1629 C1630 1.379 . S
C1630 H1614 0.931 . S
C1630 C1624 1.383 . S
C1630 C1629 1.379 . S
H1631 C1625 0.959 . S
H1632 C1625 0.961 . S
H1633 C1625 0.960 . S
H1634 C1626 0.930 . S
H1635 C1627 0.929 . S
H1636 C1644 0.929 . S
H1637 C1646 0.930 . S
H1638 C1648 0.930 . S
H1639 C1651 0.929 . S
H1640 C1654 0.930 . S
H1641 C1656 0.960 . S
H1642 C1656 0.960 . S
H1643 C1656 0.960 . S
C1644 H1636 0.929 . S
C1644 C1645 1.377 . S
C1644 C1646 1.384 . S
C1645 C1644 1.377 . S
C1645 C1651 1.390 . S
C1646 H1637 0.930 . S
C1646 C1644 1.384 . S
C1646 C1647 1.372 . S
C1647 C1646 1.372 . S
C1647 C1648 1.400 . S
C1647 C1652 1.490 . S
C1648 H1638 0.930 . S
C1648 C1647 1.400 . S
C1648 C1651 1.386 . S
H1649 C1665 0.930 . S
H1650 C1666 0.931 . S
C1651 H1639 0.929 . S
C1651 C1645 1.390 . S
C1651 C1648 1.386 . S
C1652 C1647 1.490 . S
C1652 C1654 1.395 . S
C1652 C1655 1.403 . S
H1653 C1659 0.930 . S
C1654 H1640 0.930 . S
C1654 C1652 1.395 . S
C1654 C1657 1.403 . S
C1655 C1652 1.403 . S
C1655 C1656 1.524 . S
C1655 C1659 1.400 . S
C1656 H1641 0.960 . S
C1656 H1642 0.960 . S
C1656 H1643 0.960 . S
C1656 C1655 1.524 . S
C1657 C1654 1.403 . S
C1657 C1658 1.392 . S
C1657 C1661 1.495 . S
C1658 C1657 1.392 . S
C1658 C1659 1.385 . S
C1658 C1660 1.478 . S
C1659 H1653 0.930 . S
C1659 C1655 1.400 . S
C1659 C1658 1.385 . S
C1660 C1658 1.478 . S
C1660 C1662 1.381 . S
C1660 C1666 1.383 . S
C1661 C1657 1.495 . S
C1661 H1667 0.959 . S
C1661 H1668 0.961 . S
C1661 H1669 0.960 . S
C1662 C1660 1.381 . S
C1662 C1663 1.394 . S
C1662 H1670 0.930 . S
C1663 C1662 1.394 . S
C1663 C1664 1.383 . S
C1663 H1671 0.929 . S
C1664 C1663 1.383 . S
C1664 C1665 1.377 . S
C1665 H1649 0.930 . S
C1665 C1664 1.377 . S
C1665 C1666 1.379 . S
C1666 H1650 0.931 . S
C1666 C1660 1.383 . S
C1666 C1665 1.379 . S
H1667 C1661 0.959 . S
H1668 C1661 0.961 . S
H1669 C1661 0.960 . S
H1670 C1662 0.930 . S
H1671 C1663 0.929 . S
H1672 C1680 0.929 . S
H1673 C1682 0.930 . S
H1674 C1684 0.930 . S
H1675 C1687 0.929 . S
H1676 C1690 0.930 . S
H1677 C1692 0.960 . S
H1678 C1692 0.960 . S
H1679 C1692 0.960 . S
C1680 H1672 0.929 . S
C1680 C1681 1.377 . S
C1680 C1682 1.384 . S
C1681 C1680 1.377 . S
C1681 C1687 1.390 . S
C1682 H1673 0.930 . S
C1682 C1680 1.384 . S
C1682 C1683 1.372 . S
C1683 C1682 1.372 . S
C1683 C1684 1.400 . S
C1683 C1688 1.490 . S
C1684 H1674 0.930 . S
C1684 C1683 1.400 . S
C1684 C1687 1.386 . S
H1685 C1701 0.930 . S
H1686 C1702 0.931 . S
C1687 H1675 0.929 . S
C1687 C1681 1.390 . S
C1687 C1684 1.386 . S
C1688 C1683 1.490 . S
C1688 C1690 1.395 . S
C1688 C1691 1.403 . S
H1689 C1695 0.930 . S
C1690 H1676 0.930 . S
C1690 C1688 1.395 . S
C1690 C1693 1.403 . S
C1691 C1688 1.403 . S
C1691 C1692 1.524 . S
C1691 C1695 1.400 . S
C1692 H1677 0.960 . S
C1692 H1678 0.960 . S
C1692 H1679 0.960 . S
C1692 C1691 1.524 . S
C1693 C1690 1.403 . S
C1693 C1694 1.392 . S
C1693 C1697 1.495 . S
C1694 C1693 1.392 . S
C1694 C1695 1.385 . S
C1694 C1696 1.478 . S
C1695 H1689 0.930 . S
C1695 C1691 1.400 . S
C1695 C1694 1.385 . S
C1696 C1694 1.478 . S
C1696 C1698 1.381 . S
C1696 C1702 1.383 . S
C1697 C1693 1.495 . S
C1697 H1703 0.959 . S
C1697 H1704 0.961 . S
C1697 H1705 0.960 . S
C1698 C1696 1.381 . S
C1698 C1699 1.394 . S
C1698 H1706 0.930 . S
C1699 C1698 1.394 . S
C1699 C1700 1.383 . S
C1699 H1707 0.929 . S
C1700 C1699 1.383 . S
C1700 C1701 1.377 . S
C1701 H1685 0.930 . S
C1701 C1700 1.377 . S
C1701 C1702 1.379 . S
C1702 H1686 0.931 . S
C1702 C1696 1.383 . S
C1702 C1701 1.379 . S
H1703 C1697 0.959 . S
H1704 C1697 0.961 . S
H1705 C1697 0.960 . S
H1706 C1698 0.930 . S
H1707 C1699 0.929 . S
H1708 C1716 0.929 . S
H1709 C1718 0.930 . S
H1710 C1720 0.930 . S
H1711 C1723 0.929 . S
H1712 C1726 0.930 . S
H1713 C1728 0.960 . S
H1714 C1728 0.960 . S
H1715 C1728 0.960 . S
C1716 H1708 0.929 . S
C1716 C1717 1.377 . S
C1716 C1718 1.384 . S
C1717 C1716 1.377 . S
C1717 C1723 1.390 . S
C1718 H1709 0.930 . S
C1718 C1716 1.384 . S
C1718 C1719 1.372 . S
C1719 C1718 1.372 . S
C1719 C1720 1.400 . S
C1719 C1724 1.490 . S
C1720 H1710 0.930 . S
C1720 C1719 1.400 . S
C1720 C1723 1.386 . S
H1721 C1737 0.930 . S
H1722 C1738 0.931 1_554 S
C1723 H1711 0.929 . S
C1723 C1717 1.390 . S
C1723 C1720 1.386 . S
C1724 C1719 1.490 . S
C1724 C1726 1.395 . S
C1724 C1727 1.403 . S
H1725 C1731 0.930 . S
C1726 H1712 0.930 . S
C1726 C1724 1.395 . S
C1726 C1729 1.403 . S
C1727 C1724 1.403 . S
C1727 C1728 1.524 . S
C1727 C1731 1.400 . S
C1728 H1713 0.960 . S
C1728 H1714 0.960 . S
C1728 H1715 0.960 . S
C1728 C1727 1.524 . S
C1729 C1726 1.403 . S
C1729 C1730 1.392 . S
C1729 C1733 1.495 . S
C1730 C1729 1.392 . S
C1730 C1731 1.385 . S
C1730 C1732 1.478 . S
C1731 H1725 0.930 . S
C1731 C1727 1.400 . S
C1731 C1730 1.385 . S
C1732 C1730 1.478 . S
C1732 C1734 1.381 . S
C1732 C1738 1.383 . S
C1733 C1729 1.495 . S
C1733 H1739 0.959 . S
C1733 H1740 0.961 . S
C1733 H1741 0.960 . S
C1734 C1732 1.381 . S
C1734 C1735 1.394 . S
C1734 H1742 0.930 . S
C1735 C1734 1.394 . S
C1735 C1736 1.383 . S
C1735 H1743 0.929 . S
C1736 C1735 1.383 . S
C1736 C1737 1.377 1_556 S
C1737 H1721 0.930 . S
C1737 C1736 1.377 1_554 S
C1737 C1738 1.379 1_554 S
C1738 H1722 0.931 1_556 S
C1738 C1732 1.383 . S
C1738 C1737 1.379 1_556 S
H1739 C1733 0.959 . S
H1740 C1733 0.961 . S
H1741 C1733 0.960 . S
H1742 C1734 0.930 . S
H1743 C1735 0.929 . S
H1744 C1752 0.929 . S
H1745 C1754 0.930 . S
H1746 C1756 0.930 . S
H1747 C1759 0.929 . S
H1748 C1762 0.930 . S
H1749 C1764 0.960 . S
H1750 C1764 0.960 . S
H1751 C1764 0.960 . S
C1752 H1744 0.929 . S
C1752 C1753 1.377 . S
C1752 C1754 1.384 . S
C1753 C1752 1.377 . S
C1753 C1759 1.390 . S
C1754 H1745 0.930 . S
C1754 C1752 1.384 . S
C1754 C1755 1.372 . S
C1755 C1754 1.372 . S
C1755 C1756 1.400 . S
C1755 C1760 1.490 . S
C1756 H1746 0.930 . S
C1756 C1755 1.400 . S
C1756 C1759 1.386 . S
H1757 C1773 0.930 . S
H1758 C1774 0.931 . S
C1759 H1747 0.929 . S
C1759 C1753 1.390 . S
C1759 C1756 1.386 . S
C1760 C1755 1.490 . S
C1760 C1762 1.395 . S
C1760 C1763 1.403 . S
H1761 C1767 0.930 . S
C1762 H1748 0.930 . S
C1762 C1760 1.395 . S
C1762 C1765 1.403 . S
C1763 C1760 1.403 . S
C1763 C1764 1.524 . S
C1763 C1767 1.400 . S
C1764 H1749 0.960 . S
C1764 H1750 0.960 . S
C1764 H1751 0.960 . S
C1764 C1763 1.524 . S
C1765 C1762 1.403 . S
C1765 C1766 1.392 . S
C1765 C1769 1.495 . S
C1766 C1765 1.392 . S
C1766 C1767 1.385 . S
C1766 C1768 1.478 . S
C1767 H1761 0.930 . S
C1767 C1763 1.400 . S
C1767 C1766 1.385 . S
C1768 C1766 1.478 . S
C1768 C1770 1.381 . S
C1768 C1774 1.383 . S
C1769 C1765 1.495 . S
C1769 H1775 0.959 . S
C1769 H1776 0.961 . S
C1769 H1777 0.960 . S
C1770 C1768 1.381 . S
C1770 C1771 1.394 . S
C1770 H1778 0.930 . S
C1771 C1770 1.394 . S
C1771 C1772 1.383 . S
C1771 H1779 0.929 . S
C1772 C1771 1.383 . S
C1772 C1773 1.377 . S
C1773 H1757 0.930 . S
C1773 C1772 1.377 . S
C1773 C1774 1.379 . S
C1774 H1758 0.931 . S
C1774 C1768 1.383 . S
C1774 C1773 1.379 . S
H1775 C1769 0.959 . S
H1776 C1769 0.961 . S
H1777 C1769 0.960 . S
H1778 C1770 0.930 . S
H1779 C1771 0.929 . S
H1780 C1788 0.929 . S
H1781 C1790 0.930 . S
H1782 C1792 0.930 . S
H1783 C1795 0.929 . S
H1784 C1798 0.930 . S
H1785 C1800 0.960 . S
H1786 C1800 0.960 . S
H1787 C1800 0.960 . S
C1788 H1780 0.929 . S
C1788 C1789 1.377 . S
C1788 C1790 1.384 . S
C1789 C1788 1.377 . S
C1789 C1795 1.390 . S
C1790 H1781 0.930 . S
C1790 C1788 1.384 . S
C1790 C1791 1.372 . S
C1791 C1790 1.372 . S
C1791 C1792 1.400 . S
C1791 C1796 1.490 . S
C1792 H1782 0.930 . S
C1792 C1791 1.400 . S
C1792 C1795 1.386 . S
H1793 C1809 0.930 . S
H1794 C1810 0.931 . S
C1795 H1783 0.929 . S
C1795 C1789 1.390 . S
C1795 C1792 1.386 . S
C1796 C1791 1.490 . S
C1796 C1798 1.395 . S
C1796 C1799 1.403 . S
H1797 C1803 0.930 . S
C1798 H1784 0.930 . S
C1798 C1796 1.395 . S
C1798 C1801 1.403 . S
C1799 C1796 1.403 . S
C1799 C1800 1.524 . S
C1799 C1803 1.400 . S
C1800 H1785 0.960 . S
C1800 H1786 0.960 . S
C1800 H1787 0.960 . S
C1800 C1799 1.524 . S
C1801 C1798 1.403 . S
C1801 C1802 1.392 . S
C1801 C1805 1.495 . S
C1802 C1801 1.392 . S
C1802 C1803 1.385 . S
C1802 C1804 1.478 . S
C1803 H1797 0.930 . S
C1803 C1799 1.400 . S
C1803 C1802 1.385 . S
C1804 C1802 1.478 . S
C1804 C1806 1.381 . S
C1804 C1810 1.383 . S
C1805 C1801 1.495 . S
C1805 H1811 0.959 . S
C1805 H1812 0.961 . S
C1805 H1813 0.960 . S
C1806 C1804 1.381 . S
C1806 C1807 1.394 . S
C1806 H1814 0.930 . S
C1807 C1806 1.394 . S
C1807 C1808 1.383 . S
C1807 H1815 0.929 . S
C1808 C1807 1.383 . S
C1808 C1809 1.377 . S
C1809 H1793 0.930 . S
C1809 C1808 1.377 . S
C1809 C1810 1.379 . S
C1810 H1794 0.931 . S
C1810 C1804 1.383 . S
C1810 C1809 1.379 . S
H1811 C1805 0.959 . S
H1812 C1805 0.961 . S
H1813 C1805 0.960 . S
H1814 C1806 0.930 . S
H1815 C1807 0.929 . S
H1816 C1824 0.929 . S
H1817 C1826 0.930 . S
H1818 C1828 0.930 . S
H1819 C1831 0.929 . S
H1820 C1834 0.930 . S
H1821 C1836 0.960 . S
H1822 C1836 0.960 . S
H1823 C1836 0.960 . S
C1824 H1816 0.929 . S
C1824 C1825 1.377 . S
C1824 C1826 1.384 . S
C1825 C1824 1.377 . S
C1825 C1831 1.390 . S
C1826 H1817 0.930 . S
C1826 C1824 1.384 . S
C1826 C1827 1.372 . S
C1827 C1826 1.372 . S
C1827 C1828 1.400 . S
C1827 C1832 1.490 . S
C1828 H1818 0.930 . S
C1828 C1827 1.400 . S
C1828 C1831 1.386 . S
H1829 C1845 0.930 . S
H1830 C1846 0.931 . S
C1831 H1819 0.929 . S
C1831 C1825 1.390 . S
C1831 C1828 1.386 . S
C1832 C1827 1.490 . S
C1832 C1834 1.395 . S
C1832 C1835 1.403 . S
H1833 C1839 0.930 . S
C1834 H1820 0.930 . S
C1834 C1832 1.395 . S
C1834 C1837 1.403 . S
C1835 C1832 1.403 . S
C1835 C1836 1.524 1_556 S
C1835 C1839 1.400 . S
C1836 H1821 0.960 . S
C1836 H1822 0.960 . S
C1836 H1823 0.960 . S
C1836 C1835 1.524 1_554 S
C1837 C1834 1.403 . S
C1837 C1838 1.392 . S
C1837 C1841 1.495 . S
C1838 C1837 1.392 . S
C1838 C1839 1.385 . S
C1838 C1840 1.478 . S
C1839 H1833 0.930 . S
C1839 C1835 1.400 . S
C1839 C1838 1.385 . S
C1840 C1838 1.478 . S
C1840 C1842 1.381 . S
C1840 C1846 1.383 . S
C1841 C1837 1.495 . S
C1841 H1847 0.959 . S
C1841 H1848 0.961 . S
C1841 H1849 0.960 . S
C1842 C1840 1.381 . S
C1842 C1843 1.394 . S
C1842 H1850 0.930 . S
C1843 C1842 1.394 . S
C1843 C1844 1.383 . S
C1843 H1851 0.929 . S
C1844 C1843 1.383 . S
C1844 C1845 1.377 . S
C1845 H1829 0.930 . S
C1845 C1844 1.377 . S
C1845 C1846 1.379 . S
C1846 H1830 0.931 . S
C1846 C1840 1.383 . S
C1846 C1845 1.379 . S
H1847 C1841 0.959 . S
H1848 C1841 0.961 . S
H1849 C1841 0.960 . S
H1850 C1842 0.930 . S
H1851 C1843 0.929 . S
H1852 C1860 0.929 . S
H1853 C1862 0.930 . S
H1854 C1864 0.930 . S
H1855 C1867 0.929 . S
H1856 C1870 0.930 . S
H1857 C1872 0.960 . S
H1858 C1872 0.960 . S
H1859 C1872 0.960 . S
C1860 H1852 0.929 . S
C1860 C1861 1.377 . S
C1860 C1862 1.384 . S
C1861 C1860 1.377 . S
C1861 C1867 1.390 . S
C1862 H1853 0.930 . S
C1862 C1860 1.384 . S
C1862 C1863 1.372 . S
C1863 C1862 1.372 . S
C1863 C1864 1.400 . S
C1863 C1868 1.490 . S
C1864 H1854 0.930 . S
C1864 C1863 1.400 . S
C1864 C1867 1.386 . S
H1865 C1881 0.930 . S
H1866 C1882 0.931 . S
C1867 H1855 0.929 . S
C1867 C1861 1.390 . S
C1867 C1864 1.386 . S
C1868 C1863 1.490 . S
C1868 C1870 1.395 . S
C1868 C1871 1.403 . S
H1869 C1875 0.930 . S
C1870 H1856 0.930 . S
C1870 C1868 1.395 . S
C1870 C1873 1.403 . S
C1871 C1868 1.403 . S
C1871 C1872 1.524 . S
C1871 C1875 1.400 . S
C1872 H1857 0.960 . S
C1872 H1858 0.960 . S
C1872 H1859 0.960 . S
C1872 C1871 1.524 . S
C1873 C1870 1.403 . S
C1873 C1874 1.392 . S
C1873 C1877 1.495 . S
C1874 C1873 1.392 . S
C1874 C1875 1.385 . S
C1874 C1876 1.478 . S
C1875 H1869 0.930 . S
C1875 C1871 1.400 . S
C1875 C1874 1.385 . S
C1876 C1874 1.478 . S
C1876 C1878 1.381 . S
C1876 C1882 1.383 . S
C1877 C1873 1.495 . S
C1877 H1883 0.959 . S
C1877 H1884 0.961 . S
C1877 H1885 0.960 . S
C1878 C1876 1.381 . S
C1878 C1879 1.394 . S
C1878 H1886 0.930 . S
C1879 C1878 1.394 . S
C1879 C1880 1.383 . S
C1879 H1887 0.929 . S
C1880 C1879 1.383 . S
C1880 C1881 1.377 . S
C1881 H1865 0.930 . S
C1881 C1880 1.377 . S
C1881 C1882 1.379 . S
C1882 H1866 0.931 . S
C1882 C1876 1.383 . S
C1882 C1881 1.379 . S
H1883 C1877 0.959 . S
H1884 C1877 0.961 . S
H1885 C1877 0.960 . S
H1886 C1878 0.930 . S
H1887 C1879 0.929 . S
H1888 C1896 0.929 1_554 S
H1889 C1898 0.930 . S
H1890 C1900 0.930 . S
H1891 C1903 0.929 . S
H1892 C1906 0.930 . S
H1893 C1908 0.960 . S
H1894 C1908 0.960 . S
H1895 C1908 0.960 . S
C1896 H1888 0.929 1_556 S
C1896 C1897 1.377 . S
C1896 C1898 1.384 . S
C1897 C1896 1.377 . S
C1897 C1903 1.390 . S
C1898 H1889 0.930 . S
C1898 C1896 1.384 . S
C1898 C1899 1.372 . S
C1899 C1898 1.372 . S
C1899 C1900 1.400 . S
C1899 C1904 1.490 . S
C1900 H1890 0.930 . S
C1900 C1899 1.400 . S
C1900 C1903 1.386 . S
H1901 C1917 0.930 . S
H1902 C1918 0.931 . S
C1903 H1891 0.929 . S
C1903 C1897 1.390 . S
C1903 C1900 1.386 . S
C1904 C1899 1.490 . S
C1904 C1906 1.395 . S
C1904 C1907 1.403 . S
H1905 C1911 0.930 . S
C1906 H1892 0.930 . S
C1906 C1904 1.395 . S
C1906 C1909 1.403 . S
C1907 C1904 1.403 . S
C1907 C1908 1.524 . S
C1907 C1911 1.400 . S
C1908 H1893 0.960 . S
C1908 H1894 0.960 . S
C1908 H1895 0.960 . S
C1908 C1907 1.524 . S
C1909 C1906 1.403 . S
C1909 C1910 1.392 . S
C1909 C1913 1.495 . S
C1910 C1909 1.392 . S
C1910 C1911 1.385 . S
C1910 C1912 1.478 . S
C1911 H1905 0.930 . S
C1911 C1907 1.400 . S
C1911 C1910 1.385 . S
C1912 C1910 1.478 . S
C1912 C1914 1.381 . S
C1912 C1918 1.383 . S
C1913 C1909 1.495 . S
C1913 H1919 0.959 1_556 S
C1913 H1920 0.961 . S
C1913 H1921 0.960 . S
C1914 C1912 1.381 . S
C1914 C1915 1.394 . S
C1914 H1922 0.930 . S
C1915 C1914 1.394 . S
C1915 C1916 1.383 . S
C1915 H1923 0.929 . S
C1916 C1915 1.383 . S
C1916 C1917 1.377 . S
C1917 H1901 0.930 . S
C1917 C1916 1.377 . S
C1917 C1918 1.379 . S
C1918 H1902 0.931 . S
C1918 C1912 1.383 . S
C1918 C1917 1.379 . S
H1919 C1913 0.959 1_554 S
H1920 C1913 0.961 . S
H1921 C1913 0.960 . S
H1922 C1914 0.930 . S
H1923 C1915 0.929 . S
H1924 C1932 0.929 . S
H1925 C1934 0.930 . S
H1926 C1936 0.930 . S
H1927 C1939 0.929 . S
H1928 C1942 0.930 . S
H1929 C1944 0.960 . S
H1930 C1944 0.960 . S
H1931 C1944 0.960 . S
C1932 H1924 0.929 . S
C1932 C1933 1.377 . S
C1932 C1934 1.384 . S
C1933 C1932 1.377 . S
C1933 C1939 1.390 . S
C1934 H1925 0.930 . S
C1934 C1932 1.384 . S
C1934 C1935 1.372 . S
C1935 C1934 1.372 . S
C1935 C1936 1.400 . S
C1935 C1940 1.490 . S
C1936 H1926 0.930 . S
C1936 C1935 1.400 . S
C1936 C1939 1.386 . S
H1937 C1953 0.930 . S
H1938 C1954 0.931 . S
C1939 H1927 0.929 . S
C1939 C1933 1.390 . S
C1939 C1936 1.386 . S
C1940 C1935 1.490 . S
C1940 C1942 1.395 . S
C1940 C1943 1.403 . S
H1941 C1947 0.930 . S
C1942 H1928 0.930 . S
C1942 C1940 1.395 . S
C1942 C1945 1.403 . S
C1943 C1940 1.403 . S
C1943 C1944 1.524 . S
C1943 C1947 1.400 . S
C1944 H1929 0.960 . S
C1944 H1930 0.960 . S
C1944 H1931 0.960 . S
C1944 C1943 1.524 . S
C1945 C1942 1.403 . S
C1945 C1946 1.392 . S
C1945 C1949 1.495 . S
C1946 C1945 1.392 . S
C1946 C1947 1.385 . S
C1946 C1948 1.478 . S
C1947 H1941 0.930 . S
C1947 C1943 1.400 . S
C1947 C1946 1.385 . S
C1948 C1946 1.478 . S
C1948 C1950 1.381 . S
C1948 C1954 1.383 . S
C1949 C1945 1.495 . S
C1949 H1955 0.959 . S
C1949 H1956 0.961 . S
C1949 H1957 0.960 . S
C1950 C1948 1.381 . S
C1950 C1951 1.394 . S
C1950 H1958 0.930 . S
C1951 C1950 1.394 . S
C1951 C1952 1.383 . S
C1951 H1959 0.929 . S
C1952 C1951 1.383 . S
C1952 C1953 1.377 . S
C1953 H1937 0.930 . S
C1953 C1952 1.377 . S
C1953 C1954 1.379 . S
C1954 H1938 0.931 . S
C1954 C1948 1.383 . S
C1954 C1953 1.379 . S
H1955 C1949 0.959 . S
H1956 C1949 0.961 . S
H1957 C1949 0.960 . S
H1958 C1950 0.930 . S
H1959 C1951 0.929 . S
H1960 C1968 0.929 . S
H1961 C1970 0.930 . S
H1962 C1972 0.930 . S
H1963 C1975 0.929 . S
H1964 C1978 0.930 . S
H1965 C1980 0.960 . S
H1966 C1980 0.960 . S
H1967 C1980 0.960 . S
C1968 H1960 0.929 . S
C1968 C1969 1.377 . S
C1968 C1970 1.384 . S
C1969 C1968 1.377 . S
C1969 C1975 1.390 . S
C1970 H1961 0.930 . S
C1970 C1968 1.384 . S
C1970 C1971 1.372 . S
C1971 C1970 1.372 . S
C1971 C1972 1.400 . S
C1971 C1976 1.490 . S
C1972 H1962 0.930 . S
C1972 C1971 1.400 . S
C1972 C1975 1.386 . S
H1973 C1989 0.930 . S
H1974 C1990 0.931 . S
C1975 H1963 0.929 . S
C1975 C1969 1.390 . S
C1975 C1972 1.386 . S
C1976 C1971 1.490 . S
C1976 C1978 1.395 . S
C1976 C1979 1.403 . S
H1977 C1983 0.930 . S
C1978 H1964 0.930 . S
C1978 C1976 1.395 . S
C1978 C1981 1.403 . S
C1979 C1976 1.403 . S
C1979 C1980 1.524 . S
C1979 C1983 1.400 . S
C1980 H1965 0.960 . S
C1980 H1966 0.960 . S
C1980 H1967 0.960 . S
C1980 C1979 1.524 . S
C1981 C1978 1.403 . S
C1981 C1982 1.392 . S
C1981 C1985 1.495 . S
C1982 C1981 1.392 . S
C1982 C1983 1.385 . S
C1982 C1984 1.478 . S
C1983 H1977 0.930 . S
C1983 C1979 1.400 . S
C1983 C1982 1.385 . S
C1984 C1982 1.478 . S
C1984 C1986 1.381 . S
C1984 C1990 1.383 . S
C1985 C1981 1.495 . S
C1985 H1991 0.959 . S
C1985 H1992 0.961 . S
C1985 H1993 0.960 . S
C1986 C1984 1.381 . S
C1986 C1987 1.394 . S
C1986 H1994 0.930 . S
C1987 C1986 1.394 . S
C1987 C1988 1.383 . S
C1987 H1995 0.929 . S
C1988 C1987 1.383 . S
C1988 C1989 1.377 . S
C1989 H1973 0.930 . S
C1989 C1988 1.377 . S
C1989 C1990 1.379 . S
C1990 H1974 0.931 . S
C1990 C1984 1.383 . S
C1990 C1989 1.379 . S
H1991 C1985 0.959 . S
H1992 C1985 0.961 . S
H1993 C1985 0.960 . S
H1994 C1986 0.930 . S
H1995 C1987 0.929 . S
H1996 C2004 0.929 . S
H1997 C2006 0.930 . S
H1998 C2008 0.930 . S
H1999 C2011 0.929 . S
H2000 C2014 0.930 . S
H2001 C2016 0.960 . S
H2002 C2016 0.960 . S
H2003 C2016 0.960 . S
C2004 H1996 0.929 . S
C2004 C2005 1.377 . S
C2004 C2006 1.384 . S
C2005 C2004 1.377 . S
C2005 C2011 1.390 . S
C2006 H1997 0.930 . S
C2006 C2004 1.384 . S
C2006 C2007 1.372 . S
C2007 C2006 1.372 . S
C2007 C2008 1.400 . S
C2007 C2012 1.490 . S
C2008 H1998 0.930 . S
C2008 C2007 1.400 . S
C2008 C2011 1.386 . S
H2009 C2025 0.930 . S
H2010 C2026 0.931 . S
C2011 H1999 0.929 . S
C2011 C2005 1.390 . S
C2011 C2008 1.386 . S
C2012 C2007 1.490 . S
C2012 C2014 1.395 . S
C2012 C2015 1.403 . S
H2013 C2019 0.930 . S
C2014 H2000 0.930 . S
C2014 C2012 1.395 . S
C2014 C2017 1.403 . S
C2015 C2012 1.403 . S
C2015 C2016 1.524 . S
C2015 C2019 1.400 . S
C2016 H2001 0.960 . S
C2016 H2002 0.960 . S
C2016 H2003 0.960 . S
C2016 C2015 1.524 . S
C2017 C2014 1.403 . S
C2017 C2018 1.392 . S
C2017 C2021 1.495 . S
C2018 C2017 1.392 . S
C2018 C2019 1.385 . S
C2018 C2020 1.478 . S
C2019 H2013 0.930 . S
C2019 C2015 1.400 . S
C2019 C2018 1.385 . S
C2020 C2018 1.478 . S
C2020 C2022 1.381 . S
C2020 C2026 1.383 . S
C2021 C2017 1.495 . S
C2021 H2027 0.959 . S
C2021 H2028 0.961 . S
C2021 H2029 0.960 . S
C2022 C2020 1.381 . S
C2022 C2023 1.394 . S
C2022 H2030 0.930 . S
C2023 C2022 1.394 . S
C2023 C2024 1.383 . S
C2023 H2031 0.929 . S
C2024 C2023 1.383 . S
C2024 C2025 1.377 . S
C2025 H2009 0.930 . S
C2025 C2024 1.377 . S
C2025 C2026 1.379 . S
C2026 H2010 0.931 . S
C2026 C2020 1.383 . S
C2026 C2025 1.379 . S
H2027 C2021 0.959 . S
H2028 C2021 0.961 . S
H2029 C2021 0.960 . S
H2030 C2022 0.930 . S
H2031 C2023 0.929 . S
H2032 C2040 0.929 . S
H2033 C2042 0.930 . S
H2034 C2044 0.930 . S
H2035 C2047 0.929 . S
H2036 C2050 0.930 . S
H2037 C2052 0.960 . S
H2038 C2052 0.960 . S
H2039 C2052 0.960 . S
C2040 H2032 0.929 . S
C2040 C2041 1.377 . S
C2040 C2042 1.384 . S
C2041 C2040 1.377 . S
C2041 C2047 1.390 . S
C2042 H2033 0.930 . S
C2042 C2040 1.384 . S
C2042 C2043 1.372 . S
C2043 C2042 1.372 . S
C2043 C2044 1.400 . S
C2043 C2048 1.490 . S
C2044 H2034 0.930 . S
C2044 C2043 1.400 . S
C2044 C2047 1.386 . S
H2045 C2061 0.930 . S
H2046 C2062 0.931 . S
C2047 H2035 0.929 . S
C2047 C2041 1.390 . S
C2047 C2044 1.386 . S
C2048 C2043 1.490 . S
C2048 C2050 1.395 . S
C2048 C2051 1.403 . S
H2049 C2055 0.930 . S
C2050 H2036 0.930 . S
C2050 C2048 1.395 . S
C2050 C2053 1.403 . S
C2051 C2048 1.403 . S
C2051 C2052 1.524 . S
C2051 C2055 1.400 . S
C2052 H2037 0.960 . S
C2052 H2038 0.960 . S
C2052 H2039 0.960 . S
C2052 C2051 1.524 . S
C2053 C2050 1.403 . S
C2053 C2054 1.392 . S
C2053 C2057 1.495 . S
C2054 C2053 1.392 . S
C2054 C2055 1.385 . S
C2054 C2056 1.478 . S
C2055 H2049 0.930 . S
C2055 C2051 1.400 . S
C2055 C2054 1.385 . S
C2056 C2054 1.478 . S
C2056 C2058 1.381 . S
C2056 C2062 1.383 . S
C2057 C2053 1.495 . S
C2057 H2063 0.959 . S
C2057 H2064 0.961 . S
C2057 H2065 0.960 . S
C2058 C2056 1.381 . S
C2058 C2059 1.394 . S
C2058 H2066 0.930 . S
C2059 C2058 1.394 . S
C2059 C2060 1.383 . S
C2059 H2067 0.929 . S
C2060 C2059 1.383 . S
C2060 C2061 1.377 . S
C2061 H2045 0.930 . S
C2061 C2060 1.377 . S
C2061 C2062 1.379 . S
C2062 H2046 0.931 . S
C2062 C2056 1.383 . S
C2062 C2061 1.379 . S
H2063 C2057 0.959 . S
H2064 C2057 0.961 . S
H2065 C2057 0.960 . S
H2066 C2058 0.930 . S
H2067 C2059 0.929 . S
H2068 C2076 0.929 . S
H2069 C2078 0.930 . S
H2070 C2080 0.930 . S
H2071 C2083 0.929 . S
H2072 C2086 0.930 . S
H2073 C2088 0.960 . S
H2074 C2088 0.960 . S
H2075 C2088 0.960 . S
C2076 H2068 0.929 . S
C2076 C2077 1.377 . S
C2076 C2078 1.384 . S
C2077 C2076 1.377 . S
C2077 C2083 1.390 . S
C2078 H2069 0.930 . S
C2078 C2076 1.384 . S
C2078 C2079 1.372 . S
C2079 C2078 1.372 . S
C2079 C2080 1.400 . S
C2079 C2084 1.490 . S
C2080 H2070 0.930 . S
C2080 C2079 1.400 . S
C2080 C2083 1.386 . S
H2081 C2097 0.930 . S
H2082 C2098 0.931 . S
C2083 H2071 0.929 . S
C2083 C2077 1.390 . S
C2083 C2080 1.386 . S
C2084 C2079 1.490 . S
C2084 C2086 1.395 . S
C2084 C2087 1.403 . S
H2085 C2091 0.930 . S
C2086 H2072 0.930 . S
C2086 C2084 1.395 . S
C2086 C2089 1.403 . S
C2087 C2084 1.403 . S
C2087 C2088 1.524 . S
C2087 C2091 1.400 . S
C2088 H2073 0.960 . S
C2088 H2074 0.960 . S
C2088 H2075 0.960 . S
C2088 C2087 1.524 . S
C2089 C2086 1.403 . S
C2089 C2090 1.392 . S
C2089 C2093 1.495 . S
C2090 C2089 1.392 . S
C2090 C2091 1.385 . S
C2090 C2092 1.478 . S
C2091 H2085 0.930 . S
C2091 C2087 1.400 . S
C2091 C2090 1.385 . S
C2092 C2090 1.478 . S
C2092 C2094 1.381 . S
C2092 C2098 1.383 . S
C2093 C2089 1.495 . S
C2093 H2099 0.959 . S
C2093 H2100 0.961 . S
C2093 H2101 0.960 . S
C2094 C2092 1.381 . S
C2094 C2095 1.394 . S
C2094 H2102 0.930 . S
C2095 C2094 1.394 . S
C2095 C2096 1.383 . S
C2095 H2103 0.929 . S
C2096 C2095 1.383 . S
C2096 C2097 1.377 . S
C2097 H2081 0.930 . S
C2097 C2096 1.377 . S
C2097 C2098 1.379 . S
C2098 H2082 0.931 . S
C2098 C2092 1.383 . S
C2098 C2097 1.379 . S
H2099 C2093 0.959 . S
H2100 C2093 0.961 . S
H2101 C2093 0.960 . S
H2102 C2094 0.930 . S
H2103 C2095 0.929 . S
H2104 C2112 0.929 . S
H2105 C2114 0.930 . S
H2106 C2116 0.930 . S
H2107 C2119 0.929 . S
H2108 C2122 0.930 . S
H2109 C2124 0.960 . S
H2110 C2124 0.960 . S
H2111 C2124 0.960 . S
C2112 H2104 0.929 . S
C2112 C2113 1.377 . S
C2112 C2114 1.384 . S
C2113 C2112 1.377 . S
C2113 C2119 1.390 . S
C2114 H2105 0.930 . S
C2114 C2112 1.384 . S
C2114 C2115 1.372 . S
C2115 C2114 1.372 . S
C2115 C2116 1.400 . S
C2115 C2120 1.490 . S
C2116 H2106 0.930 . S
C2116 C2115 1.400 . S
C2116 C2119 1.386 . S
H2117 C2133 0.930 . S
H2118 C2134 0.931 . S
C2119 H2107 0.929 . S
C2119 C2113 1.390 . S
C2119 C2116 1.386 . S
C2120 C2115 1.490 . S
C2120 C2122 1.395 . S
C2120 C2123 1.403 . S
H2121 C2127 0.930 . S
C2122 H2108 0.930 . S
C2122 C2120 1.395 . S
C2122 C2125 1.403 . S
C2123 C2120 1.403 . S
C2123 C2124 1.524 . S
C2123 C2127 1.400 . S
C2124 H2109 0.960 . S
C2124 H2110 0.960 . S
C2124 H2111 0.960 . S
C2124 C2123 1.524 . S
C2125 C2122 1.403 . S
C2125 C2126 1.392 . S
C2125 C2129 1.495 . S
C2126 C2125 1.392 . S
C2126 C2127 1.385 . S
C2126 C2128 1.478 . S
C2127 H2121 0.930 . S
C2127 C2123 1.400 . S
C2127 C2126 1.385 . S
C2128 C2126 1.478 . S
C2128 C2130 1.381 . S
C2128 C2134 1.383 . S
C2129 C2125 1.495 . S
C2129 H2135 0.959 . S
C2129 H2136 0.961 . S
C2129 H2137 0.960 . S
C2130 C2128 1.381 . S
C2130 C2131 1.394 . S
C2130 H2138 0.930 . S
C2131 C2130 1.394 . S
C2131 C2132 1.383 . S
C2131 H2139 0.929 . S
C2132 C2131 1.383 . S
C2132 C2133 1.377 . S
C2133 H2117 0.930 . S
C2133 C2132 1.377 . S
C2133 C2134 1.379 . S
C2134 H2118 0.931 . S
C2134 C2128 1.383 . S
C2134 C2133 1.379 . S
H2135 C2129 0.959 . S
H2136 C2129 0.961 . S
H2137 C2129 0.960 . S
H2138 C2130 0.930 . S
H2139 C2131 0.929 . S
H2140 C2148 0.929 . S
H2141 C2150 0.930 . S
H2142 C2152 0.930 . S
H2143 C2155 0.929 . S
H2144 C2158 0.930 . S
H2145 C2160 0.960 . S
H2146 C2160 0.960 . S
H2147 C2160 0.960 . S
C2148 H2140 0.929 . S
C2148 C2149 1.377 . S
C2148 C2150 1.384 . S
C2149 C2148 1.377 . S
C2149 C2155 1.390 . S
C2150 H2141 0.930 . S
C2150 C2148 1.384 . S
C2150 C2151 1.372 . S
C2151 C2150 1.372 . S
C2151 C2152 1.400 . S
C2151 C2156 1.490 . S
C2152 H2142 0.930 . S
C2152 C2151 1.400 . S
C2152 C2155 1.386 . S
H2153 C2169 0.930 . S
H2154 C2170 0.931 1_554 S
C2155 H2143 0.929 . S
C2155 C2149 1.390 . S
C2155 C2152 1.386 . S
C2156 C2151 1.490 . S
C2156 C2158 1.395 . S
C2156 C2159 1.403 . S
H2157 C2163 0.930 . S
C2158 H2144 0.930 . S
C2158 C2156 1.395 . S
C2158 C2161 1.403 . S
C2159 C2156 1.403 . S
C2159 C2160 1.524 . S
C2159 C2163 1.400 . S
C2160 H2145 0.960 . S
C2160 H2146 0.960 . S
C2160 H2147 0.960 . S
C2160 C2159 1.524 . S
C2161 C2158 1.403 . S
C2161 C2162 1.392 . S
C2161 C2165 1.495 . S
C2162 C2161 1.392 . S
C2162 C2163 1.385 . S
C2162 C2164 1.478 . S
C2163 H2157 0.930 . S
C2163 C2159 1.400 . S
C2163 C2162 1.385 . S
C2164 C2162 1.478 . S
C2164 C2166 1.381 . S
C2164 C2170 1.383 . S
C2165 C2161 1.495 . S
C2165 H2171 0.959 . S
C2165 H2172 0.961 . S
C2165 H2173 0.960 . S
C2166 C2164 1.381 . S
C2166 C2167 1.394 . S
C2166 H2174 0.930 . S
C2167 C2166 1.394 . S
C2167 C2168 1.383 . S
C2167 H2175 0.929 . S
C2168 C2167 1.383 . S
C2168 C2169 1.377 1_556 S
C2169 H2153 0.930 . S
C2169 C2168 1.377 1_554 S
C2169 C2170 1.379 1_554 S
C2170 H2154 0.931 1_556 S
C2170 C2164 1.383 . S
C2170 C2169 1.379 1_556 S
H2171 C2165 0.959 . S
H2172 C2165 0.961 . S
H2173 C2165 0.960 . S
H2174 C2166 0.930 . S
H2175 C2167 0.929 . S
H2176 C2184 0.929 . S
H2177 C2186 0.930 . S
H2178 C2188 0.933 . S
H2179 C2191 0.929 . S
H2180 C2194 0.930 . S
H2181 C2196 0.960 . S
H2182 C2196 0.960 . S
H2183 C2196 0.949 1_655 S
C2184 H2176 0.929 . S
C2184 C2185 1.377 . S
C2184 C2186 1.384 . S
C2185 C2184 1.377 . S
C2185 C2191 1.390 . S
C2186 H2177 0.930 . S
C2186 C2184 1.384 . S
C2186 C2187 1.372 . S
C2187 C2186 1.372 . S
C2187 C2188 1.400 . S
C2187 C2192 1.490 . S
C2188 H2178 0.933 . S
C2188 C2187 1.400 . S
C2188 C2191 1.386 . S
H2189 C2205 0.930 . S
H2190 C2206 0.931 . S
C2191 H2179 0.929 . S
C2191 C2185 1.390 . S
C2191 C2188 1.386 . S
C2192 C2187 1.490 . S
C2192 C2194 1.395 . S
C2192 C2195 1.432 . S
H2193 C2199 0.930 . S
C2194 H2180 0.930 . S
C2194 C2192 1.395 . S
C2194 C2197 1.403 . S
C2195 C2192 1.432 . S
C2195 C2196 1.513 1_655 S
C2195 C2199 1.381 1_655 S
C2196 H2181 0.960 . S
C2196 H2182 0.960 . S
C2196 H2183 0.949 1_455 S
C2196 C2195 1.513 1_455 S
C2197 C2194 1.403 . S
C2197 C2198 1.392 1_655 S
C2197 C2201 1.495 . S
C2198 C2197 1.392 1_455 S
C2198 C2199 1.385 . S
C2198 C2200 1.478 . S
C2199 H2193 0.930 . S
C2199 C2195 1.381 1_455 S
C2199 C2198 1.385 . S
C2200 C2198 1.478 . S
C2200 C2202 1.381 . S
C2200 C2206 1.383 1_554 S
C2201 C2197 1.495 . S
C2201 H2207 0.959 . S
C2201 H2208 0.961 . S
C2201 H2209 0.960 . S
C2202 C2200 1.381 . S
C2202 C2203 1.394 . S
C2202 H2210 0.930 . S
C2203 C2202 1.394 . S
C2203 C2204 1.383 1_554 S
C2203 H2211 0.929 . S
C2204 C2203 1.383 1_556 S
C2204 C2205 1.377 . S
C2205 H2189 0.930 . S
C2205 C2204 1.377 . S
C2205 C2206 1.379 . S
C2206 H2190 0.931 . S
C2206 C2200 1.383 1_556 S
C2206 C2205 1.379 . S
H2207 C2201 0.959 . S
H2208 C2201 0.961 . S
H2209 C2201 0.960 . S
H2210 C2202 0.930 . S
H2211 C2203 0.929 . S
H2212 C2220 0.929 . S
H2213 C2222 0.930 . S
H2214 C2224 0.930 . S
H2215 C2227 0.929 . S
H2216 C2230 0.930 . S
H2217 C2232 0.960 . S
H2218 C2232 0.960 . S
H2219 C2232 0.960 . S
C2220 H2212 0.929 . S
C2220 C2221 1.377 . S
C2220 C2222 1.384 . S
C2221 C2220 1.377 . S
C2221 C2227 1.390 . S
C2222 H2213 0.930 . S
C2222 C2220 1.384 . S
C2222 C2223 1.372 . S
C2223 C2222 1.372 . S
C2223 C2224 1.400 . S
C2223 C2228 1.490 . S
C2224 H2214 0.930 . S
C2224 C2223 1.400 . S
C2224 C2227 1.386 . S
H2225 C2241 0.930 . S
H2226 C2242 0.931 . S
C2227 H2215 0.929 . S
C2227 C2221 1.390 . S
C2227 C2224 1.386 . S
C2228 C2223 1.490 . S
C2228 C2230 1.395 . S
C2228 C2231 1.403 . S
H2229 C2235 0.930 . S
C2230 H2216 0.930 . S
C2230 C2228 1.395 . S
C2230 C2233 1.403 . S
C2231 C2228 1.403 . S
C2231 C2232 1.524 . S
C2231 C2235 1.400 . S
C2232 H2217 0.960 . S
C2232 H2218 0.960 . S
C2232 H2219 0.960 . S
C2232 C2231 1.524 . S
C2233 C2230 1.403 . S
C2233 C2234 1.392 . S
C2233 C2237 1.495 . S
C2234 C2233 1.392 . S
C2234 C2235 1.385 . S
C2234 C2236 1.478 . S
C2235 H2229 0.930 . S
C2235 C2231 1.400 . S
C2235 C2234 1.385 . S
C2236 C2234 1.478 . S
C2236 C2238 1.381 . S
C2236 C2242 1.383 . S
C2237 C2233 1.495 . S
C2237 H2243 0.959 . S
C2237 H2244 0.961 . S
C2237 H2245 0.960 . S
C2238 C2236 1.381 . S
C2238 C2239 1.394 . S
C2238 H2246 0.930 . S
C2239 C2238 1.394 . S
C2239 C2240 1.383 . S
C2239 H2247 0.929 . S
C2240 C2239 1.383 . S
C2240 C2241 1.377 . S
C2241 H2225 0.930 . S
C2241 C2240 1.377 . S
C2241 C2242 1.379 . S
C2242 H2226 0.931 . S
C2242 C2236 1.383 . S
C2242 C2241 1.379 . S
H2243 C2237 0.959 . S
H2244 C2237 0.961 . S
H2245 C2237 0.960 . S
H2246 C2238 0.930 . S
H2247 C2239 0.929 . S
H2248 C2256 0.929 . S
H2249 C2258 0.930 . S
H2250 C2260 0.930 . S
H2251 C2263 0.929 . S
H2252 C2266 0.930 . S
H2253 C2268 0.960 . S
H2254 C2268 0.960 . S
H2255 C2268 0.960 . S
C2256 H2248 0.929 . S
C2256 C2257 1.377 . S
C2256 C2258 1.384 . S
C2257 C2256 1.377 . S
C2257 C2263 1.390 . S
C2258 H2249 0.930 . S
C2258 C2256 1.384 . S
C2258 C2259 1.372 . S
C2259 C2258 1.372 . S
C2259 C2260 1.400 . S
C2259 C2264 1.490 . S
C2260 H2250 0.930 . S
C2260 C2259 1.400 . S
C2260 C2263 1.386 . S
H2261 C2277 0.930 . S
H2262 C2278 0.931 . S
C2263 H2251 0.929 . S
C2263 C2257 1.390 . S
C2263 C2260 1.386 . S
C2264 C2259 1.490 . S
C2264 C2266 1.395 . S
C2264 C2267 1.403 . S
H2265 C2271 0.930 . S
C2266 H2252 0.930 . S
C2266 C2264 1.395 . S
C2266 C2269 1.403 . S
C2267 C2264 1.403 . S
C2267 C2268 1.524 . S
C2267 C2271 1.400 . S
C2268 H2253 0.960 . S
C2268 H2254 0.960 . S
C2268 H2255 0.960 . S
C2268 C2267 1.524 . S
C2269 C2266 1.403 . S
C2269 C2270 1.392 . S
C2269 C2273 1.495 . S
C2270 C2269 1.392 . S
C2270 C2271 1.385 . S
C2270 C2272 1.478 . S
C2271 H2265 0.930 . S
C2271 C2267 1.400 . S
C2271 C2270 1.385 . S
C2272 C2270 1.478 . S
C2272 C2274 1.381 . S
C2272 C2278 1.383 . S
C2273 C2269 1.495 . S
C2273 H2279 0.959 . S
C2273 H2280 0.961 . S
C2273 H2281 0.960 . S
C2274 C2272 1.381 . S
C2274 C2275 1.394 . S
C2274 H2282 0.930 . S
C2275 C2274 1.394 . S
C2275 C2276 1.383 . S
C2275 H2283 0.929 . S
C2276 C2275 1.383 . S
C2276 C2277 1.377 . S
C2277 H2261 0.930 . S
C2277 C2276 1.377 . S
C2277 C2278 1.379 . S
C2278 H2262 0.931 . S
C2278 C2272 1.383 . S
C2278 C2277 1.379 . S
H2279 C2273 0.959 . S
H2280 C2273 0.961 . S
H2281 C2273 0.960 . S
H2282 C2274 0.930 . S
H2283 C2275 0.929 . S
H2284 C2292 0.929 . S
H2285 C2294 0.930 . S
H2286 C2296 0.930 . S
H2287 C2299 0.929 . S
H2288 C2302 0.930 . S
H2289 C2304 0.960 . S
H2290 C2304 0.960 . S
H2291 C2304 0.960 . S
C2292 H2284 0.929 . S
C2292 C2293 1.377 . S
C2292 C2294 1.384 . S
C2293 C2292 1.377 . S
C2293 C2299 1.390 . S
C2294 H2285 0.930 . S
C2294 C2292 1.384 . S
C2294 C2295 1.372 . S
C2295 C2294 1.372 . S
C2295 C2296 1.400 . S
C2295 C2300 1.490 . S
C2296 H2286 0.930 . S
C2296 C2295 1.400 . S
C2296 C2299 1.386 . S
H2297 C2313 0.930 . S
H2298 C2314 0.931 . S
C2299 H2287 0.929 . S
C2299 C2293 1.390 . S
C2299 C2296 1.386 . S
C2300 C2295 1.490 . S
C2300 C2302 1.395 . S
C2300 C2303 1.403 . S
H2301 C2307 0.930 . S
C2302 H2288 0.930 . S
C2302 C2300 1.395 . S
C2302 C2305 1.403 . S
C2303 C2300 1.403 . S
C2303 C2304 1.524 . S
C2303 C2307 1.400 . S
C2304 H2289 0.960 . S
C2304 H2290 0.960 . S
C2304 H2291 0.960 . S
C2304 C2303 1.524 . S
C2305 C2302 1.403 . S
C2305 C2306 1.392 . S
C2305 C2309 1.495 . S
C2306 C2305 1.392 . S
C2306 C2307 1.385 . S
C2306 C2308 1.478 . S
C2307 H2301 0.930 . S
C2307 C2303 1.400 . S
C2307 C2306 1.385 . S
C2308 C2306 1.478 . S
C2308 C2310 1.381 . S
C2308 C2314 1.383 . S
C2309 C2305 1.495 . S
C2309 H2315 0.959 . S
C2309 H2316 0.961 . S
C2309 H2317 0.960 . S
C2310 C2308 1.381 . S
C2310 C2311 1.394 . S
C2310 H2318 0.930 . S
C2311 C2310 1.394 . S
C2311 C2312 1.383 . S
C2311 H2319 0.929 . S
C2312 C2311 1.383 . S
C2312 C2313 1.377 . S
C2313 H2297 0.930 . S
C2313 C2312 1.377 . S
C2313 C2314 1.379 . S
C2314 H2298 0.931 . S
C2314 C2308 1.383 . S
C2314 C2313 1.379 . S
H2315 C2309 0.959 . S
H2316 C2309 0.961 . S
H2317 C2309 0.960 . S
H2318 C2310 0.930 . S
H2319 C2311 0.929 . S
H2320 C2328 0.929 . S
H2321 C2330 0.930 . S
H2322 C2332 0.930 . S
H2323 C2335 0.929 . S
H2324 C2338 0.930 . S
H2325 C2340 0.960 . S
H2326 C2340 0.960 . S
H2327 C2340 0.960 1_655 S
C2328 H2320 0.929 . S
C2328 C2329 1.377 . S
C2328 C2330 1.384 . S
C2329 C2328 1.377 . S
C2329 C2335 1.390 . S
C2330 H2321 0.930 . S
C2330 C2328 1.384 . S
C2330 C2331 1.372 . S
C2331 C2330 1.372 . S
C2331 C2332 1.400 . S
C2331 C2336 1.490 . S
C2332 H2322 0.930 . S
C2332 C2331 1.400 . S
C2332 C2335 1.386 . S
H2333 C2349 0.930 . S
H2334 C2350 0.931 . S
C2335 H2323 0.929 . S
C2335 C2329 1.390 . S
C2335 C2332 1.386 . S
C2336 C2331 1.490 . S
C2336 C2338 1.395 . S
C2336 C2339 1.403 . S
H2337 C2343 0.930 . S
C2338 H2324 0.930 . S
C2338 C2336 1.395 . S
C2338 C2341 1.403 . S
C2339 C2336 1.403 . S
C2339 C2340 1.524 1_655 S
C2339 C2343 1.400 1_655 S
C2340 H2325 0.960 . S
C2340 H2326 0.960 . S
C2340 H2327 0.960 1_455 S
C2340 C2339 1.524 1_455 S
C2341 C2338 1.403 . S
C2341 C2342 1.392 1_655 S
C2341 C2345 1.495 . S
C2342 C2341 1.392 1_455 S
C2342 C2343 1.385 . S
C2342 C2344 1.478 . S
C2343 H2337 0.930 . S
C2343 C2339 1.400 1_455 S
C2343 C2342 1.385 . S
C2344 C2342 1.478 . S
C2344 C2346 1.381 . S
C2344 C2350 1.383 . S
C2345 C2341 1.495 . S
C2345 H2351 0.959 . S
C2345 H2352 0.961 . S
C2345 H2353 0.960 . S
C2346 C2344 1.381 . S
C2346 C2347 1.394 . S
C2346 H2354 0.930 . S
C2347 C2346 1.394 . S
C2347 C2348 1.383 . S
C2347 H2355 0.929 . S
C2348 C2347 1.383 . S
C2348 C2349 1.377 . S
C2349 H2333 0.930 . S
C2349 C2348 1.377 . S
C2349 C2350 1.379 . S
C2350 H2334 0.931 . S
C2350 C2344 1.383 . S
C2350 C2349 1.379 . S
H2351 C2345 0.959 . S
H2352 C2345 0.961 . S
H2353 C2345 0.960 . S
H2354 C2346 0.930 . S
H2355 C2347 0.929 . S
H2356 C2364 0.929 . S
H2357 C2366 0.930 . S
H2358 C2368 0.930 . S
H2359 C2371 0.929 . S
H2360 C2374 0.930 . S
H2361 C2376 0.960 . S
H2362 C2376 0.960 . S
H2363 C2376 0.960 . S
C2364 H2356 0.929 . S
C2364 C2365 1.377 . S
C2364 C2366 1.384 . S
C2365 C2364 1.377 . S
C2365 C2371 1.390 . S
C2366 H2357 0.930 . S
C2366 C2364 1.384 . S
C2366 C2367 1.372 . S
C2367 C2366 1.372 . S
C2367 C2368 1.400 . S
C2367 C2372 1.490 . S
C2368 H2358 0.930 . S
C2368 C2367 1.400 . S
C2368 C2371 1.386 . S
H2369 C2385 0.930 . S
H2370 C2386 0.931 . S
C2371 H2359 0.929 . S
C2371 C2365 1.390 . S
C2371 C2368 1.386 . S
C2372 C2367 1.490 . S
C2372 C2374 1.395 . S
C2372 C2375 1.403 . S
H2373 C2379 0.930 . S
C2374 H2360 0.930 . S
C2374 C2372 1.395 . S
C2374 C2377 1.403 . S
C2375 C2372 1.403 . S
C2375 C2376 1.524 . S
C2375 C2379 1.400 . S
C2376 H2361 0.960 . S
C2376 H2362 0.960 . S
C2376 H2363 0.960 . S
C2376 C2375 1.524 . S
C2377 C2374 1.403 . S
C2377 C2378 1.392 . S
C2377 C2381 1.495 . S
C2378 C2377 1.392 . S
C2378 C2379 1.385 . S
C2378 C2380 1.478 . S
C2379 H2373 0.930 . S
C2379 C2375 1.400 . S
C2379 C2378 1.385 . S
C2380 C2378 1.478 . S
C2380 C2382 1.381 . S
C2380 C2386 1.383 . S
C2381 C2377 1.495 . S
C2381 H2387 0.959 . S
C2381 H2388 0.961 . S
C2381 H2389 0.960 . S
C2382 C2380 1.381 . S
C2382 C2383 1.394 . S
C2382 H2390 0.930 . S
C2383 C2382 1.394 . S
C2383 C2384 1.383 . S
C2383 H2391 0.929 . S
C2384 C2383 1.383 . S
C2384 C2385 1.377 . S
C2385 H2369 0.930 . S
C2385 C2384 1.377 . S
C2385 C2386 1.379 . S
C2386 H2370 0.931 . S
C2386 C2380 1.383 . S
C2386 C2385 1.379 . S
H2387 C2381 0.959 . S
H2388 C2381 0.961 . S
H2389 C2381 0.960 . S
H2390 C2382 0.930 . S
H2391 C2383 0.929 . S
H2392 C2400 0.929 . S
H2393 C2402 0.930 . S
H2394 C2404 0.930 . S
H2395 C2407 0.929 . S
H2396 C2410 0.930 1_556 S
H2397 C2412 0.960 . S
H2398 C2412 0.960 . S
H2399 C2412 0.960 . S
C2400 H2392 0.929 . S
C2400 C2401 1.377 . S
C2400 C2402 1.384 . S
C2401 C2400 1.377 . S
C2401 C2407 1.390 . S
C2402 H2393 0.930 . S
C2402 C2400 1.384 . S
C2402 C2403 1.372 . S
C2403 C2402 1.372 . S
C2403 C2404 1.400 . S
C2403 C2408 1.490 . S
C2404 H2394 0.930 . S
C2404 C2403 1.400 . S
C2404 C2407 1.386 . S
H2405 C2421 0.930 . S
H2406 C2422 0.931 . S
C2407 H2395 0.929 . S
C2407 C2401 1.390 . S
C2407 C2404 1.386 . S
C2408 C2403 1.490 . S
C2408 C2410 1.395 . S
C2408 C2411 1.403 . S
H2409 C2415 0.930 . S
C2410 H2396 0.930 1_554 S
C2410 C2408 1.395 . S
C2410 C2413 1.403 1_554 S
C2411 C2408 1.403 . S
C2411 C2412 1.524 . S
C2411 C2415 1.400 . S
C2412 H2397 0.960 . S
C2412 H2398 0.960 . S
C2412 H2399 0.960 . S
C2412 C2411 1.524 . S
C2413 C2410 1.403 1_556 S
C2413 C2414 1.392 1_556 S
C2413 C2417 1.495 . S
C2414 C2413 1.392 1_554 S
C2414 C2415 1.385 . S
C2414 C2416 1.478 . S
C2415 H2409 0.930 . S
C2415 C2411 1.400 . S
C2415 C2414 1.385 . S
C2416 C2414 1.478 . S
C2416 C2418 1.379 1_554 S
C2416 C2422 1.383 . S
C2417 C2413 1.495 . S
C2417 H2423 0.959 . S
C2417 H2424 0.961 . S
C2417 H2425 0.960 . S
C2418 C2416 1.379 1_556 S
C2418 C2419 1.396 . S
C2418 H2426 0.931 . S
C2419 C2418 1.396 . S
C2419 C2420 1.383 . S
C2419 H2427 0.929 . S
C2420 C2419 1.383 . S
C2420 C2421 1.377 1_556 S
C2421 H2405 0.930 . S
C2421 C2420 1.377 1_554 S
C2421 C2422 1.379 . S
C2422 H2406 0.931 . S
C2422 C2416 1.383 . S
C2422 C2421 1.379 . S
H2423 C2417 0.959 . S
H2424 C2417 0.961 . S
H2425 C2417 0.960 . S
H2426 C2418 0.931 . S
H2427 C2419 0.929 . S
H2428 C2436 0.929 . S
H2429 C2438 0.930 . S
H2430 C2440 0.930 . S
H2431 C2443 0.929 . S
H2432 C2446 0.930 . S
H2433 C2448 0.960 . S
H2434 C2448 0.960 . S
H2435 C2448 0.960 . S
C2436 H2428 0.929 . S
C2436 C2437 1.377 . S
C2436 C2438 1.384 . S
C2437 C2436 1.377 . S
C2437 C2443 1.390 . S
C2438 H2429 0.930 . S
C2438 C2436 1.384 . S
C2438 C2439 1.372 . S
C2439 C2438 1.372 . S
C2439 C2440 1.400 . S
C2439 C2444 1.490 . S
C2440 H2430 0.930 . S
C2440 C2439 1.400 . S
C2440 C2443 1.386 . S
H2441 C2457 0.930 . S
H2442 C2458 0.931 . S
C2443 H2431 0.929 . S
C2443 C2437 1.390 . S
C2443 C2440 1.386 . S
C2444 C2439 1.490 . S
C2444 C2446 1.395 . S
C2444 C2447 1.403 . S
H2445 C2451 0.930 . S
C2446 H2432 0.930 . S
C2446 C2444 1.395 . S
C2446 C2449 1.403 . S
C2447 C2444 1.403 . S
C2447 C2448 1.524 . S
C2447 C2451 1.400 . S
C2448 H2433 0.960 . S
C2448 H2434 0.960 . S
C2448 H2435 0.960 . S
C2448 C2447 1.524 . S
C2449 C2446 1.403 . S
C2449 C2450 1.392 . S
C2449 C2453 1.495 . S
C2450 C2449 1.392 . S
C2450 C2451 1.385 . S
C2450 C2452 1.478 . S
C2451 H2445 0.930 . S
C2451 C2447 1.400 . S
C2451 C2450 1.385 . S
C2452 C2450 1.478 . S
C2452 C2454 1.381 . S
C2452 C2458 1.383 . S
C2453 C2449 1.495 . S
C2453 H2459 0.959 . S
C2453 H2460 0.961 . S
C2453 H2461 0.960 . S
C2454 C2452 1.381 . S
C2454 C2455 1.394 . S
C2454 H2462 0.930 . S
C2455 C2454 1.394 . S
C2455 C2456 1.383 . S
C2455 H2463 0.929 . S
C2456 C2455 1.383 . S
C2456 C2457 1.377 . S
C2457 H2441 0.930 . S
C2457 C2456 1.377 . S
C2457 C2458 1.379 . S
C2458 H2442 0.931 . S
C2458 C2452 1.383 . S
C2458 C2457 1.379 . S
H2459 C2453 0.959 . S
H2460 C2453 0.961 . S
H2461 C2453 0.960 . S
H2462 C2454 0.930 . S
H2463 C2455 0.929 . S
H2464 C2472 0.929 . S
H2465 C2474 0.930 . S
H2466 C2476 0.930 . S
H2467 C2479 0.929 . S
H2468 C2482 0.930 . S
H2469 C2484 0.960 . S
H2470 C2484 0.960 . S
H2471 C2484 0.960 . S
C2472 H2464 0.929 . S
C2472 C2473 1.377 . S
C2472 C2474 1.384 . S
C2473 C2472 1.377 . S
C2473 C2479 1.390 . S
C2474 H2465 0.930 . S
C2474 C2472 1.384 . S
C2474 C2475 1.372 . S
C2475 C2474 1.372 . S
C2475 C2476 1.400 . S
C2475 C2480 1.490 . S
C2476 H2466 0.930 . S
C2476 C2475 1.400 . S
C2476 C2479 1.386 . S
H2477 C2493 0.930 . S
H2478 C2494 0.931 . S
C2479 H2467 0.929 . S
C2479 C2473 1.390 . S
C2479 C2476 1.386 . S
C2480 C2475 1.490 . S
C2480 C2482 1.395 . S
C2480 C2483 1.403 . S
H2481 C2487 0.930 . S
C2482 H2468 0.930 . S
C2482 C2480 1.395 . S
C2482 C2485 1.403 . S
C2483 C2480 1.403 . S
C2483 C2484 1.524 . S
C2483 C2487 1.400 . S
C2484 H2469 0.960 . S
C2484 H2470 0.960 . S
C2484 H2471 0.960 . S
C2484 C2483 1.524 . S
C2485 C2482 1.403 . S
C2485 C2486 1.392 . S
C2485 C2489 1.495 . S
C2486 C2485 1.392 . S
C2486 C2487 1.385 . S
C2486 C2488 1.478 . S
C2487 H2481 0.930 . S
C2487 C2483 1.400 . S
C2487 C2486 1.385 . S
C2488 C2486 1.478 . S
C2488 C2490 1.381 . S
C2488 C2494 1.383 . S
C2489 C2485 1.495 . S
C2489 H2495 0.959 . S
C2489 H2496 0.961 . S
C2489 H2497 0.960 . S
C2490 C2488 1.381 . S
C2490 C2491 1.394 . S
C2490 H2498 0.930 . S
C2491 C2490 1.394 . S
C2491 C2492 1.383 . S
C2491 H2499 0.929 . S
C2492 C2491 1.383 . S
C2492 C2493 1.377 . S
C2493 H2477 0.930 . S
C2493 C2492 1.377 . S
C2493 C2494 1.379 . S
C2494 H2478 0.931 . S
C2494 C2488 1.383 . S
C2494 C2493 1.379 . S
H2495 C2489 0.959 . S
H2496 C2489 0.961 . S
H2497 C2489 0.960 . S
H2498 C2490 0.930 . S
H2499 C2491 0.929 . S
H2500 C2508 0.929 . S
H2501 C2510 0.930 . S
H2502 C2512 0.930 . S
H2503 C2515 0.929 . S
H2504 C2518 0.930 . S
H2505 C2520 0.960 . S
H2506 C2520 0.960 . S
H2507 C2520 0.960 . S
C2508 H2500 0.929 . S
C2508 C2509 1.377 . S
C2508 C2510 1.384 . S
C2509 C2508 1.377 . S
C2509 C2515 1.390 . S
C2510 H2501 0.930 . S
C2510 C2508 1.384 . S
C2510 C2511 1.372 . S
C2511 C2510 1.372 . S
C2511 C2512 1.400 . S
C2511 C2516 1.490 . S
C2512 H2502 0.930 . S
C2512 C2511 1.400 . S
C2512 C2515 1.386 . S
H2513 C2529 0.930 . S
H2514 C2530 0.931 . S
C2515 H2503 0.929 . S
C2515 C2509 1.390 . S
C2515 C2512 1.386 . S
C2516 C2511 1.490 . S
C2516 C2518 1.395 . S
C2516 C2519 1.403 . S
H2517 C2523 0.930 . S
C2518 H2504 0.930 . S
C2518 C2516 1.395 . S
C2518 C2521 1.403 . S
C2519 C2516 1.403 . S
C2519 C2520 1.524 . S
C2519 C2523 1.400 . S
C2520 H2505 0.960 . S
C2520 H2506 0.960 . S
C2520 H2507 0.960 . S
C2520 C2519 1.524 . S
C2521 C2518 1.403 . S
C2521 C2522 1.392 . S
C2521 C2525 1.495 . S
C2522 C2521 1.392 . S
C2522 C2523 1.385 . S
C2522 C2524 1.478 . S
C2523 H2517 0.930 . S
C2523 C2519 1.400 . S
C2523 C2522 1.385 . S
C2524 C2522 1.478 . S
C2524 C2526 1.381 . S
C2524 C2530 1.383 . S
C2525 C2521 1.495 . S
C2525 H2531 0.959 . S
C2525 H2532 0.961 . S
C2525 H2533 0.960 . S
C2526 C2524 1.381 . S
C2526 C2527 1.394 . S
C2526 H2534 0.930 . S
C2527 C2526 1.394 . S
C2527 C2528 1.383 . S
C2527 H2535 0.929 . S
C2528 C2527 1.383 . S
C2528 C2529 1.377 . S
C2529 H2513 0.930 . S
C2529 C2528 1.377 . S
C2529 C2530 1.379 . S
C2530 H2514 0.931 . S
C2530 C2524 1.383 . S
C2530 C2529 1.379 . S
H2531 C2525 0.959 . S
H2532 C2525 0.961 . S
H2533 C2525 0.960 . S
H2534 C2526 0.930 . S
H2535 C2527 0.929 . S
H2536 C2544 0.929 . S
H2537 C2546 0.930 . S
H2538 C2548 0.930 . S
H2539 C2551 0.929 . S
H2540 C2554 0.930 . S
H2541 C2556 0.960 . S
H2542 C2556 0.960 . S
H2543 C2556 0.960 . S
C2544 H2536 0.929 . S
C2544 C2545 1.377 . S
C2544 C2546 1.384 . S
C2545 C2544 1.377 . S
C2545 C2551 1.390 . S
C2546 H2537 0.930 . S
C2546 C2544 1.384 . S
C2546 C2547 1.372 . S
C2547 C2546 1.372 . S
C2547 C2548 1.400 . S
C2547 C2552 1.490 . S
C2548 H2538 0.930 . S
C2548 C2547 1.400 . S
C2548 C2551 1.386 . S
H2549 C2565 0.930 . S
H2550 C2566 0.931 . S
C2551 H2539 0.929 . S
C2551 C2545 1.390 . S
C2551 C2548 1.386 . S
C2552 C2547 1.490 . S
C2552 C2554 1.395 . S
C2552 C2555 1.403 . S
H2553 C2559 0.930 . S
C2554 H2540 0.930 . S
C2554 C2552 1.395 . S
C2554 C2557 1.403 . S
C2555 C2552 1.403 . S
C2555 C2556 1.524 . S
C2555 C2559 1.400 . S
C2556 H2541 0.960 . S
C2556 H2542 0.960 . S
C2556 H2543 0.960 . S
C2556 C2555 1.524 . S
C2557 C2554 1.403 . S
C2557 C2558 1.392 . S
C2557 C2561 1.495 . S
C2558 C2557 1.392 . S
C2558 C2559 1.385 . S
C2558 C2560 1.478 . S
C2559 H2553 0.930 . S
C2559 C2555 1.400 . S
C2559 C2558 1.385 . S
C2560 C2558 1.478 . S
C2560 C2562 1.381 . S
C2560 C2566 1.383 . S
C2561 C2557 1.495 . S
C2561 H2567 0.959 . S
C2561 H2568 0.961 . S
C2561 H2569 0.960 . S
C2562 C2560 1.381 . S
C2562 C2563 1.394 . S
C2562 H2570 0.930 . S
C2563 C2562 1.394 . S
C2563 C2564 1.383 . S
C2563 H2571 0.929 . S
C2564 C2563 1.383 . S
C2564 C2565 1.377 . S
C2565 H2549 0.930 . S
C2565 C2564 1.377 . S
C2565 C2566 1.379 . S
C2566 H2550 0.931 . S
C2566 C2560 1.383 . S
C2566 C2565 1.379 . S
H2567 C2561 0.959 . S
H2568 C2561 0.961 . S
H2569 C2561 0.960 . S
H2570 C2562 0.930 . S
H2571 C2563 0.929 . S
H2572 C2580 0.929 . S
H2573 C2582 0.930 . S
H2574 C2584 0.930 . S
H2575 C2587 0.929 . S
H2576 C2590 0.930 . S
H2577 C2592 0.960 . S
H2578 C2592 0.960 . S
H2579 C2592 0.960 . S
C2580 H2572 0.929 . S
C2580 C2581 1.377 . S
C2580 C2582 1.384 . S
C2581 C2580 1.377 . S
C2581 C2587 1.390 . S
C2582 H2573 0.930 . S
C2582 C2580 1.384 . S
C2582 C2583 1.372 . S
C2583 C2582 1.372 . S
C2583 C2584 1.400 . S
C2583 C2588 1.490 . S
C2584 H2574 0.930 . S
C2584 C2583 1.400 . S
C2584 C2587 1.386 . S
H2585 C2601 0.930 . S
H2586 C2602 0.931 . S
C2587 H2575 0.929 . S
C2587 C2581 1.390 . S
C2587 C2584 1.386 . S
C2588 C2583 1.490 . S
C2588 C2590 1.395 . S
C2588 C2591 1.403 . S
H2589 C2595 0.930 . S
C2590 H2576 0.930 . S
C2590 C2588 1.395 . S
C2590 C2593 1.403 . S
C2591 C2588 1.403 . S
C2591 C2592 1.524 . S
C2591 C2595 1.400 . S
C2592 H2577 0.960 . S
C2592 H2578 0.960 . S
C2592 H2579 0.960 . S
C2592 C2591 1.524 . S
C2593 C2590 1.403 . S
C2593 C2594 1.392 . S
C2593 C2597 1.495 . S
C2594 C2593 1.392 . S
C2594 C2595 1.385 . S
C2594 C2596 1.478 . S
C2595 H2589 0.930 . S
C2595 C2591 1.400 . S
C2595 C2594 1.385 . S
C2596 C2594 1.478 . S
C2596 C2598 1.381 . S
C2596 C2602 1.383 . S
C2597 C2593 1.495 . S
C2597 H2603 0.959 . S
C2597 H2604 0.961 . S
C2597 H2605 0.960 . S
C2598 C2596 1.381 . S
C2598 C2599 1.394 . S
C2598 H2606 0.930 . S
C2599 C2598 1.394 . S
C2599 C2600 1.383 . S
C2599 H2607 0.929 . S
C2600 C2599 1.383 . S
C2600 C2601 1.377 . S
C2601 H2585 0.930 . S
C2601 C2600 1.377 . S
C2601 C2602 1.379 . S
C2602 H2586 0.931 . S
C2602 C2596 1.383 . S
C2602 C2601 1.379 . S
H2603 C2597 0.959 . S
H2604 C2597 0.961 . S
H2605 C2597 0.960 . S
H2606 C2598 0.930 . S
H2607 C2599 0.929 . S
H2608 C2616 0.929 . S
H2609 C2618 0.930 . S
H2610 C2620 0.930 . S
H2611 C2623 0.929 . S
H2612 C2626 0.930 . S
H2613 C2628 0.960 . S
H2614 C2628 0.960 . S
H2615 C2628 0.960 . S
C2616 H2608 0.929 . S
C2616 C2617 1.377 . S
C2616 C2618 1.384 . S
C2617 C2616 1.377 . S
C2617 C2623 1.390 . S
C2618 H2609 0.930 . S
C2618 C2616 1.384 . S
C2618 C2619 1.372 . S
C2619 C2618 1.372 . S
C2619 C2620 1.400 . S
C2619 C2624 1.490 . S
C2620 H2610 0.930 . S
C2620 C2619 1.400 . S
C2620 C2623 1.386 . S
H2621 C2637 0.930 . S
H2622 C2638 0.931 . S
C2623 H2611 0.929 . S
C2623 C2617 1.390 . S
C2623 C2620 1.386 . S
C2624 C2619 1.490 . S
C2624 C2626 1.395 . S
C2624 C2627 1.403 1_545 S
H2625 C2631 0.930 . S
C2626 H2612 0.930 . S
C2626 C2624 1.395 . S
C2626 C2629 1.363 1_545 S
C2627 C2624 1.403 1_565 S
C2627 C2628 1.524 . S
C2627 C2631 1.400 . S
C2628 H2613 0.960 . S
C2628 H2614 0.960 . S
C2628 H2615 0.960 . S
C2628 C2627 1.524 . S
C2629 C2626 1.363 1_565 S
C2629 C2630 1.449 . S
C2629 C2633 1.480 1_565 S
C2630 C2629 1.449 . S
C2630 C2631 1.385 . S
C2630 C2632 1.478 . S
C2631 H2625 0.930 . S
C2631 C2627 1.400 . S
C2631 C2630 1.385 . S
C2632 C2630 1.478 . S
C2632 C2634 1.381 . S
C2632 C2638 1.383 . S
C2633 C2629 1.480 1_545 S
C2633 H2639 0.959 . S
C2633 H2640 0.961 . S
C2633 H2641 0.960 1_545 S
C2634 C2632 1.381 . S
C2634 C2635 1.394 . S
C2634 H2642 0.930 . S
C2635 C2634 1.394 . S
C2635 C2636 1.383 . S
C2635 H2643 0.929 . S
C2636 C2635 1.383 . S
C2636 C2637 1.377 . S
C2637 H2621 0.930 . S
C2637 C2636 1.377 . S
C2637 C2638 1.379 . S
C2638 H2622 0.931 . S
C2638 C2632 1.383 . S
C2638 C2637 1.379 . S
H2639 C2633 0.959 . S
H2640 C2633 0.961 . S
H2641 C2633 0.960 1_565 S
H2642 C2634 0.930 . S
H2643 C2635 0.929 . S
H2644 C2652 0.929 . S
H2645 C2654 0.930 . S
H2646 C2656 0.930 . S
H2647 C2659 0.929 . S
H2648 C2662 0.930 . S
H2649 C2664 0.960 . S
H2650 C2664 0.960 1_455 S
H2651 C2664 0.960 . S
C2652 H2644 0.929 . S
C2652 C2653 1.377 . S
C2652 C2654 1.384 . S
C2653 C2652 1.377 . S
C2653 C2659 1.390 . S
C2654 H2645 0.930 . S
C2654 C2652 1.384 . S
C2654 C2655 1.372 . S
C2655 C2654 1.372 . S
C2655 C2656 1.400 . S
C2655 C2660 1.490 . S
C2656 H2646 0.930 . S
C2656 C2655 1.400 . S
C2656 C2659 1.386 . S
H2657 C2673 0.930 . S
H2658 C2674 0.931 . S
C2659 H2647 0.929 . S
C2659 C2653 1.390 . S
C2659 C2656 1.386 . S
C2660 C2655 1.490 . S
C2660 C2662 1.395 1_565 S
C2660 C2663 1.482 . S
H2661 C2667 0.930 . S
C2662 H2648 0.930 . S
C2662 C2660 1.395 1_545 S
C2662 C2665 1.403 . S
C2663 C2660 1.482 . S
C2663 C2664 1.500 1_455 S
C2663 C2667 1.347 1_465 S
C2664 H2649 0.960 . S
C2664 H2650 0.960 1_655 S
C2664 H2651 0.960 . S
C2664 C2663 1.500 1_655 S
C2665 C2662 1.403 . S
C2665 C2666 1.392 1_455 S
C2665 C2669 1.495 1_554 S
C2666 C2665 1.392 1_655 S
C2666 C2667 1.385 . S
C2666 C2668 1.478 . S
C2667 H2661 0.930 . S
C2667 C2663 1.347 1_645 S
C2667 C2666 1.385 . S
C2668 C2666 1.478 . S
C2668 C2670 1.381 . S
C2668 C2674 1.383 1_554 S
C2669 C2665 1.495 1_556 S
C2669 H2675 0.959 . S
C2669 H2676 0.961 . S
C2669 H2677 0.960 . S
C2670 C2668 1.381 . S
C2670 C2671 1.394 . S
C2670 H2678 0.930 . S
C2671 C2670 1.394 . S
C2671 C2672 1.383 1_554 S
C2671 H2679 0.929 . S
C2672 C2671 1.383 1_556 S
C2672 C2673 1.377 . S
C2673 H2657 0.930 . S
C2673 C2672 1.377 . S
C2673 C2674 1.379 . S
C2674 H2658 0.931 . S
C2674 C2668 1.383 1_556 S
C2674 C2673 1.379 . S
H2675 C2669 0.959 . S
H2676 C2669 0.961 . S
H2677 C2669 0.960 . S
H2678 C2670 0.930 . S
H2679 C2671 0.929 . S
H2680 C2688 0.929 . S
H2681 C2690 0.930 . S
H2682 C2692 0.930 . S
H2683 C2695 0.929 . S
H2684 C2698 0.930 . S
H2685 C2700 0.960 . S
H2686 C2700 0.960 . S
H2687 C2700 0.960 1_556 S
C2688 H2680 0.929 . S
C2688 C2689 1.377 1_554 S
C2688 C2690 1.384 . S
C2689 C2688 1.377 1_556 S
C2689 C2695 1.390 . S
C2690 H2681 0.930 . S
C2690 C2688 1.384 . S
C2690 C2691 1.372 . S
C2691 C2690 1.372 . S
C2691 C2692 1.400 1_554 S
C2691 C2696 1.490 . S
C2692 H2682 0.930 . S
C2692 C2691 1.400 1_556 S
C2692 C2695 1.386 . S
H2693 C2709 0.930 . S
H2694 C2710 0.931 1_556 S
C2695 H2683 0.929 . S
C2695 C2689 1.390 . S
C2695 C2692 1.386 . S
C2696 C2691 1.490 . S
C2696 C2698 1.395 . S
C2696 C2699 1.403 1_565 S
H2697 C2703 0.930 . S
C2698 H2684 0.930 . S
C2698 C2696 1.395 . S
C2698 C2701 1.403 . S
C2699 C2696 1.403 1_545 S
C2699 C2700 1.524 . S
C2699 C2703 1.400 . S
C2700 H2685 0.960 . S
C2700 H2686 0.960 . S
C2700 H2687 0.960 1_554 S
C2700 C2699 1.524 . S
C2701 C2698 1.403 . S
C2701 C2702 1.392 1_565 S
C2701 C2705 1.495 . S
C2702 C2701 1.392 1_545 S
C2702 C2703 1.385 . S
C2702 C2704 1.478 . S
C2703 H2697 0.930 . S
C2703 C2699 1.400 . S
C2703 C2702 1.385 . S
C2704 C2702 1.478 . S
C2704 C2706 1.381 . S
C2704 C2710 1.383 . S
C2705 C2701 1.495 . S
C2705 H2711 0.959 . S
C2705 H2712 0.961 . S
C2705 H2713 0.960 . S
C2706 C2704 1.381 . S
C2706 C2707 1.394 . S
C2706 H2714 0.930 . S
C2707 C2706 1.394 . S
C2707 C2708 1.383 . S
C2707 H2715 0.929 . S
C2708 C2707 1.383 . S
C2708 C2709 1.377 . S
C2709 H2693 0.930 . S
C2709 C2708 1.377 . S
C2709 C2710 1.379 . S
C2710 H2694 0.931 1_554 S
C2710 C2704 1.383 . S
C2710 C2709 1.379 . S
H2711 C2705 0.959 . S
H2712 C2705 0.961 . S
H2713 C2705 0.960 . S
H2714 C2706 0.930 . S
H2715 C2707 0.929 . S
H2716 C2724 0.929 . S
H2717 C2726 0.930 . S
H2718 C2728 0.930 . S
H2719 C2731 0.929 . S
H2720 C2734 0.928 . S
H2721 C2736 0.960 . S
H2722 C2736 0.960 . S
H2723 C2736 0.960 . S
C2724 H2716 0.929 . S
C2724 C2725 1.377 . S
C2724 C2726 1.384 . S
C2725 C2724 1.377 . S
C2725 C2731 1.390 . S
C2726 H2717 0.930 . S
C2726 C2724 1.384 . S
C2726 C2727 1.372 . S
C2727 C2726 1.372 . S
C2727 C2728 1.400 . S
C2727 C2732 1.490 . S
C2728 H2718 0.930 . S
C2728 C2727 1.400 . S
C2728 C2731 1.386 . S
H2729 C2745 0.930 . S
H2730 C2746 0.931 . S
C2731 H2719 0.929 . S
C2731 C2725 1.390 . S
C2731 C2728 1.386 . S
C2732 C2727 1.490 . S
C2732 C2734 1.403 1_565 S
C2732 C2735 1.403 1_655 S
H2733 C2739 0.930 . S
C2734 H2720 0.928 . S
C2734 C2732 1.403 1_545 S
C2734 C2737 1.397 . S
C2735 C2732 1.403 1_455 S
C2735 C2736 1.524 . S
C2735 C2739 1.400 . S
C2736 H2721 0.960 . S
C2736 H2722 0.960 . S
C2736 H2723 0.960 . S
C2736 C2735 1.524 . S
C2737 C2734 1.397 . S
C2737 C2738 1.392 1_655 S
C2737 C2741 1.495 . S
C2738 C2737 1.392 1_455 S
C2738 C2739 1.385 1_545 S
C2738 C2740 1.478 . S
C2739 H2733 0.930 . S
C2739 C2735 1.400 . S
C2739 C2738 1.385 1_565 S
C2740 C2738 1.478 . S
C2740 C2742 1.381 . S
C2740 C2746 1.383 . S
C2741 C2737 1.495 . S
C2741 H2747 0.959 . S
C2741 H2748 0.961 . S
C2741 H2749 0.960 . S
C2742 C2740 1.381 . S
C2742 C2743 1.394 . S
C2742 H2750 0.930 . S
C2743 C2742 1.394 . S
C2743 C2744 1.383 . S
C2743 H2751 0.929 . S
C2744 C2743 1.383 . S
C2744 C2745 1.377 . S
C2745 H2729 0.930 . S
C2745 C2744 1.377 . S
C2745 C2746 1.379 . S
C2746 H2730 0.931 . S
C2746 C2740 1.383 . S
C2746 C2745 1.379 . S
H2747 C2741 0.959 . S
H2748 C2741 0.961 . S
H2749 C2741 0.960 . S
H2750 C2742 0.930 . S
H2751 C2743 0.929 . S
H2752 C2760 0.929 . S
H2753 C2762 0.930 . S
H2754 C2764 0.930 . S
H2755 C2767 0.929 . S
H2756 C2770 0.936 . S
H2757 C2772 0.960 . S
H2758 C2772 0.960 . S
H2759 C2772 0.960 . S
C2760 H2752 0.929 . S
C2760 C2761 1.377 . S
C2760 C2762 1.384 . S
C2761 C2760 1.377 . S
C2761 C2767 1.390 . S
C2762 H2753 0.930 . S
C2762 C2760 1.384 . S
C2762 C2763 1.372 . S
C2763 C2762 1.372 . S
C2763 C2764 1.400 . S
C2763 C2768 1.490 . S
C2764 H2754 0.930 . S
C2764 C2763 1.400 . S
C2764 C2767 1.386 . S
H2765 C2781 0.930 . S
H2766 C2782 0.931 . S
C2767 H2755 0.929 . S
C2767 C2761 1.390 . S
C2767 C2764 1.386 . S
C2768 C2763 1.490 . S
C2768 C2770 1.346 1_455 S
C2768 C2771 1.403 . S
H2769 C2775 0.942 . S
C2770 H2756 0.936 . S
C2770 C2768 1.346 1_655 S
C2770 C2773 1.449 . S
C2771 C2768 1.403 . S
C2771 C2772 1.524 . S
C2771 C2775 1.477 . S
C2772 H2757 0.960 . S
C2772 H2758 0.960 . S
C2772 H2759 0.960 . S
C2772 C2771 1.524 . S
C2773 C2770 1.449 . S
C2773 C2774 1.392 . S
C2773 C2777 1.495 . S
C2774 C2773 1.392 . S
C2774 C2775 1.305 1_655 S
C2774 C2776 1.478 . S
C2775 H2769 0.942 . S
C2775 C2771 1.477 . S
C2775 C2774 1.305 1_455 S
C2776 C2774 1.478 . S
C2776 C2778 1.381 . S
C2776 C2782 1.383 . S
C2777 C2773 1.495 . S
C2777 H2783 0.959 . S
C2777 H2784 0.961 . S
C2777 H2785 0.960 . S
C2778 C2776 1.381 . S
C2778 C2779 1.394 . S
C2778 H2786 0.930 . S
C2779 C2778 1.394 . S
C2779 C2780 1.383 . S
C2779 H2787 0.929 . S
C2780 C2779 1.383 . S
C2780 C2781 1.377 . S
C2781 H2765 0.930 . S
C2781 C2780 1.377 . S
C2781 C2782 1.379 . S
C2782 H2766 0.931 . S
C2782 C2776 1.383 . S
C2782 C2781 1.379 . S
H2783 C2777 0.959 . S
H2784 C2777 0.961 . S
H2785 C2777 0.960 . S
H2786 C2778 0.930 . S
H2787 C2779 0.929 . S
H2788 C2796 0.929 . S
H2789 C2798 0.930 1_554 S
H2790 C2800 0.930 . S
H2791 C2803 0.929 . S
H2792 C2806 0.930 . S
H2793 C2808 0.960 . S
H2794 C2808 0.960 . S
H2795 C2808 0.960 . S
C2796 H2788 0.929 . S
C2796 C2797 1.377 . S
C2796 C2798 1.384 . S
C2797 C2796 1.377 . S
C2797 C2803 1.390 . S
C2798 H2789 0.930 1_556 S
C2798 C2796 1.384 . S
C2798 C2799 1.372 . S
C2799 C2798 1.372 . S
C2799 C2800 1.400 . S
C2799 C2804 1.490 1_556 S
C2800 H2790 0.930 . S
C2800 C2799 1.400 . S
C2800 C2803 1.386 . S
H2801 C2817 0.930 . S
H2802 C2818 0.931 . S
C2803 H2791 0.929 . S
C2803 C2797 1.390 . S
C2803 C2800 1.386 . S
C2804 C2799 1.490 1_554 S
C2804 C2806 1.395 . S
C2804 C2807 1.403 . S
H2805 C2811 0.930 . S
C2806 H2792 0.930 . S
C2806 C2804 1.395 . S
C2806 C2809 1.403 . S
C2807 C2804 1.403 . S
C2807 C2808 1.524 1_554 S
C2807 C2811 1.400 . S
C2808 H2793 0.960 . S
C2808 H2794 0.960 . S
C2808 H2795 0.960 . S
C2808 C2807 1.524 1_556 S
C2809 C2806 1.403 . S
C2809 C2810 1.392 . S
C2809 C2813 1.495 . S
C2810 C2809 1.392 . S
C2810 C2811 1.385 . S
C2810 C2812 1.478 . S
C2811 H2805 0.930 . S
C2811 C2807 1.400 . S
C2811 C2810 1.385 . S
C2812 C2810 1.478 . S
C2812 C2814 1.381 . S
C2812 C2818 1.383 . S
C2813 C2809 1.495 . S
C2813 H2819 0.959 . S
C2813 H2820 0.961 . S
C2813 H2821 0.960 . S
C2814 C2812 1.381 . S
C2814 C2815 1.394 . S
C2814 H2822 0.930 . S
C2815 C2814 1.394 . S
C2815 C2816 1.383 . S
C2815 H2823 0.929 . S
C2816 C2815 1.383 . S
C2816 C2817 1.377 . S
C2817 H2801 0.930 . S
C2817 C2816 1.377 . S
C2817 C2818 1.379 . S
C2818 H2802 0.931 . S
C2818 C2812 1.383 . S
C2818 C2817 1.379 . S
H2819 C2813 0.959 . S
H2820 C2813 0.961 . S
H2821 C2813 0.960 . S
H2822 C2814 0.930 . S
H2823 C2815 0.929 . S
H2824 C2832 0.929 . S
H2825 C2834 0.930 . S
H2826 C2836 0.930 . S
H2827 C2839 0.929 . S
H2828 C2842 0.930 . S
H2829 C2844 0.960 . S
H2830 C2844 0.960 . S
H2831 C2844 0.960 . S
C2832 H2824 0.929 . S
C2832 C2833 1.377 . S
C2832 C2834 1.384 . S
C2833 C2832 1.377 . S
C2833 C2839 1.390 . S
C2834 H2825 0.930 . S
C2834 C2832 1.384 . S
C2834 C2835 1.372 . S
C2835 C2834 1.372 . S
C2835 C2836 1.400 . S
C2835 C2840 1.490 . S
C2836 H2826 0.930 . S
C2836 C2835 1.400 . S
C2836 C2839 1.386 . S
H2837 C2853 0.930 . S
H2838 C2854 0.931 . S
C2839 H2827 0.929 . S
C2839 C2833 1.390 . S
C2839 C2836 1.386 . S
C2840 C2835 1.490 . S
C2840 C2842 1.395 . S
C2840 C2843 1.403 . S
H2841 C2847 0.930 . S
C2842 H2828 0.930 . S
C2842 C2840 1.395 . S
C2842 C2845 1.403 . S
C2843 C2840 1.403 . S
C2843 C2844 1.524 . S
C2843 C2847 1.400 . S
C2844 H2829 0.960 . S
C2844 H2830 0.960 . S
C2844 H2831 0.960 . S
C2844 C2843 1.524 . S
C2845 C2842 1.403 . S
C2845 C2846 1.392 . S
C2845 C2849 1.495 . S
C2846 C2845 1.392 . S
C2846 C2847 1.385 . S
C2846 C2848 1.478 . S
C2847 H2841 0.930 . S
C2847 C2843 1.400 . S
C2847 C2846 1.385 . S
C2848 C2846 1.478 . S
C2848 C2850 1.381 . S
C2848 C2854 1.383 . S
C2849 C2845 1.495 . S
C2849 H2855 0.959 . S
C2849 H2856 0.961 . S
C2849 H2857 0.960 . S
C2850 C2848 1.381 . S
C2850 C2851 1.394 . S
C2850 H2858 0.930 . S
C2851 C2850 1.394 . S
C2851 C2852 1.383 . S
C2851 H2859 0.929 . S
C2852 C2851 1.383 . S
C2852 C2853 1.377 . S
C2853 H2837 0.930 . S
C2853 C2852 1.377 . S
C2853 C2854 1.379 . S
C2854 H2838 0.931 . S
C2854 C2848 1.383 . S
C2854 C2853 1.379 . S
H2855 C2849 0.959 . S
H2856 C2849 0.961 . S
H2857 C2849 0.960 . S
H2858 C2850 0.930 . S
H2859 C2851 0.929 . S
H2860 C2868 0.929 . S
H2861 C2870 0.930 . S
H2862 C2872 0.930 . S
H2863 C2875 0.929 . S
H2864 C2878 0.930 . S
H2865 C2880 0.960 . S
H2866 C2880 0.960 . S
H2867 C2880 0.960 . S
C2868 H2860 0.929 . S
C2868 C2869 1.377 . S
C2868 C2870 1.384 . S
C2869 C2868 1.377 . S
C2869 C2875 1.390 . S
C2870 H2861 0.930 . S
C2870 C2868 1.384 . S
C2870 C2871 1.372 . S
C2871 C2870 1.372 . S
C2871 C2872 1.400 . S
C2871 C2876 1.490 . S
C2872 H2862 0.930 . S
C2872 C2871 1.400 . S
C2872 C2875 1.386 . S
H2873 C2889 0.930 . S
H2874 C2890 0.931 . S
C2875 H2863 0.929 . S
C2875 C2869 1.390 . S
C2875 C2872 1.386 . S
C2876 C2871 1.490 . S
C2876 C2878 1.395 . S
C2876 C2879 1.403 . S
H2877 C2883 0.930 . S
C2878 H2864 0.930 . S
C2878 C2876 1.395 . S
C2878 C2881 1.403 . S
C2879 C2876 1.403 . S
C2879 C2880 1.524 . S
C2879 C2883 1.400 . S
C2880 H2865 0.960 . S
C2880 H2866 0.960 . S
C2880 H2867 0.960 . S
C2880 C2879 1.524 . S
C2881 C2878 1.403 . S
C2881 C2882 1.392 . S
C2881 C2885 1.495 . S
C2882 C2881 1.392 . S
C2882 C2883 1.385 . S
C2882 C2884 1.478 . S
C2883 H2877 0.930 . S
C2883 C2879 1.400 . S
C2883 C2882 1.385 . S
C2884 C2882 1.478 . S
C2884 C2886 1.381 . S
C2884 C2890 1.383 . S
C2885 C2881 1.495 . S
C2885 H2891 0.959 . S
C2885 H2892 0.961 . S
C2885 H2893 0.960 . S
C2886 C2884 1.381 . S
C2886 C2887 1.394 . S
C2886 H2894 0.930 . S
C2887 C2886 1.394 . S
C2887 C2888 1.383 . S
C2887 H2895 0.929 . S
C2888 C2887 1.383 . S
C2888 C2889 1.377 . S
C2889 H2873 0.930 . S
C2889 C2888 1.377 . S
C2889 C2890 1.379 . S
C2890 H2874 0.931 . S
C2890 C2884 1.383 . S
C2890 C2889 1.379 . S
H2891 C2885 0.959 . S
H2892 C2885 0.961 . S
H2893 C2885 0.960 . S
H2894 C2886 0.930 . S
H2895 C2887 0.929 . S
H2896 C2904 0.929 . S
H2897 C2906 0.930 . S
H2898 C2908 0.930 . S
H2899 C2911 0.929 . S
H2900 C2914 0.930 . S
H2901 C2916 0.960 . S
H2902 C2916 0.960 . S
H2903 C2916 0.960 . S
C2904 H2896 0.929 . S
C2904 C2905 1.377 . S
C2904 C2906 1.384 . S
C2905 C2904 1.377 . S
C2905 C2911 1.390 . S
C2906 H2897 0.930 . S
C2906 C2904 1.384 . S
C2906 C2907 1.372 . S
C2907 C2906 1.372 . S
C2907 C2908 1.400 . S
C2907 C2912 1.490 . S
C2908 H2898 0.930 . S
C2908 C2907 1.400 . S
C2908 C2911 1.386 . S
H2909 C2925 0.930 . S
H2910 C2926 0.931 . S
C2911 H2899 0.929 . S
C2911 C2905 1.390 . S
C2911 C2908 1.386 . S
C2912 C2907 1.490 . S
C2912 C2914 1.395 1_655 S
C2912 C2915 1.403 . S
H2913 C2919 0.930 . S
C2914 H2900 0.930 . S
C2914 C2912 1.395 1_455 S
C2914 C2917 1.403 . S
C2915 C2912 1.403 . S
C2915 C2916 1.524 . S
C2915 C2919 1.400 1_655 S
C2916 H2901 0.960 . S
C2916 H2902 0.960 . S
C2916 H2903 0.960 . S
C2916 C2915 1.524 . S
C2917 C2914 1.403 . S
C2917 C2918 1.392 . S
C2917 C2921 1.495 . S
C2918 C2917 1.392 . S
C2918 C2919 1.385 . S
C2918 C2920 1.478 . S
C2919 H2913 0.930 . S
C2919 C2915 1.400 1_455 S
C2919 C2918 1.385 . S
C2920 C2918 1.478 . S
C2920 C2922 1.381 . S
C2920 C2926 1.383 . S
C2921 C2917 1.495 . S
C2921 H2927 0.959 . S
C2921 H2928 0.961 . S
C2921 H2929 0.960 . S
C2922 C2920 1.381 . S
C2922 C2923 1.394 . S
C2922 H2930 0.930 . S
C2923 C2922 1.394 . S
C2923 C2924 1.383 . S
C2923 H2931 0.929 . S
C2924 C2923 1.383 . S
C2924 C2925 1.377 . S
C2925 H2909 0.930 . S
C2925 C2924 1.377 . S
C2925 C2926 1.379 . S
C2926 H2910 0.931 . S
C2926 C2920 1.383 . S
C2926 C2925 1.379 . S
H2927 C2921 0.959 . S
H2928 C2921 0.961 . S
H2929 C2921 0.960 . S
H2930 C2922 0.930 . S
H2931 C2923 0.929 . S
H2932 C2940 0.929 . S
H2933 C2942 0.930 . S
H2934 C2944 0.930 . S
H2935 C2947 0.929 . S
H2936 C2950 0.929 1_556 S
H2937 C2952 0.960 . S
H2938 C2952 0.960 . S
H2939 C2952 0.960 . S
C2940 H2932 0.929 . S
C2940 C2941 1.377 . S
C2940 C2942 1.384 . S
C2941 C2940 1.377 . S
C2941 C2947 1.390 . S
C2942 H2933 0.930 . S
C2942 C2940 1.384 . S
C2942 C2943 1.372 . S
C2943 C2942 1.372 . S
C2943 C2944 1.400 . S
C2943 C2948 1.490 . S
C2944 H2934 0.930 . S
C2944 C2943 1.400 . S
C2944 C2947 1.386 . S
H2945 C2961 0.930 . S
H2946 C2962 0.931 . S
C2947 H2935 0.929 . S
C2947 C2941 1.390 . S
C2947 C2944 1.386 . S
C2948 C2943 1.490 . S
C2948 C2950 1.395 . S
C2948 C2951 1.403 . S
H2949 C2955 0.930 . S
C2950 H2936 0.929 1_554 S
C2950 C2948 1.395 . S
C2950 C2953 1.403 1_554 S
C2951 C2948 1.403 . S
C2951 C2952 1.524 . S
C2951 C2955 1.400 . S
C2952 H2937 0.960 . S
C2952 H2938 0.960 . S
C2952 H2939 0.960 . S
C2952 C2951 1.524 . S
C2953 C2950 1.403 1_556 S
C2953 C2954 1.392 . S
C2953 C2957 1.495 . S
C2954 C2953 1.392 . S
C2954 C2955 1.385 1_556 S
C2954 C2956 1.478 . S
C2955 H2949 0.930 . S
C2955 C2951 1.400 . S
C2955 C2954 1.385 1_554 S
C2956 C2954 1.478 . S
C2956 C2958 1.381 . S
C2956 C2962 1.383 . S
C2957 C2953 1.495 . S
C2957 H2963 0.959 . S
C2957 H2964 0.961 . S
C2957 H2965 0.960 . S
C2958 C2956 1.381 . S
C2958 C2959 1.394 . S
C2958 H2966 0.930 . S
C2959 C2958 1.394 . S
C2959 C2960 1.383 . S
C2959 H2967 0.929 . S
C2960 C2959 1.383 . S
C2960 C2961 1.377 . S
C2961 H2945 0.930 . S
C2961 C2960 1.377 . S
C2961 C2962 1.379 . S
C2962 H2946 0.931 . S
C2962 C2956 1.383 . S
C2962 C2961 1.379 . S
H2963 C2957 0.959 . S
H2964 C2957 0.961 . S
H2965 C2957 0.960 . S
H2966 C2958 0.930 . S
H2967 C2959 0.929 . S
H2968 C2976 0.929 . S
H2969 C2978 0.930 . S
H2970 C2980 0.930 . S
H2971 C2983 0.929 . S
H2972 C2986 0.930 . S
H2973 C2988 0.960 . S
H2974 C2988 0.960 . S
H2975 C2988 0.960 . S
C2976 H2968 0.929 . S
C2976 C2977 1.377 . S
C2976 C2978 1.384 . S
C2977 C2976 1.377 . S
C2977 C2983 1.390 . S
C2978 H2969 0.930 . S
C2978 C2976 1.384 . S
C2978 C2979 1.372 . S
C2979 C2978 1.372 . S
C2979 C2980 1.400 . S
C2979 C2984 1.490 . S
C2980 H2970 0.930 . S
C2980 C2979 1.400 . S
C2980 C2983 1.386 . S
H2981 C2997 0.930 . S
H2982 C2998 0.931 . S
C2983 H2971 0.929 . S
C2983 C2977 1.390 . S
C2983 C2980 1.386 . S
C2984 C2979 1.490 . S
C2984 C2986 1.395 . S
C2984 C2987 1.403 . S
H2985 C2991 0.930 . S
C2986 H2972 0.930 . S
C2986 C2984 1.395 . S
C2986 C2989 1.403 . S
C2987 C2984 1.403 . S
C2987 C2988 1.524 . S
C2987 C2991 1.400 . S
C2988 H2973 0.960 . S
C2988 H2974 0.960 . S
C2988 H2975 0.960 . S
C2988 C2987 1.524 . S
C2989 C2986 1.403 . S
C2989 C2990 1.392 . S
C2989 C2993 1.495 . S
C2990 C2989 1.392 . S
C2990 C2991 1.385 . S
C2990 C2992 1.478 . S
C2991 H2985 0.930 . S
C2991 C2987 1.400 . S
C2991 C2990 1.385 . S
C2992 C2990 1.478 . S
C2992 C2994 1.381 . S
C2992 C2998 1.383 . S
C2993 C2989 1.495 . S
C2993 H2999 0.959 . S
C2993 H3000 0.961 . S
C2993 H3001 0.960 . S
C2994 C2992 1.381 . S
C2994 C2995 1.394 . S
C2994 H3002 0.930 . S
C2995 C2994 1.394 . S
C2995 C2996 1.383 . S
C2995 H3003 0.929 . S
C2996 C2995 1.383 . S
C2996 C2997 1.377 . S
C2997 H2981 0.930 . S
C2997 C2996 1.377 . S
C2997 C2998 1.379 . S
C2998 H2982 0.931 . S
C2998 C2992 1.383 . S
C2998 C2997 1.379 . S
H2999 C2993 0.959 . S
H3000 C2993 0.961 . S
H3001 C2993 0.960 . S
H3002 C2994 0.930 . S
H3003 C2995 0.929 . S
H3004 C3012 0.929 . S
H3005 C3014 0.930 . S
H3006 C3016 0.930 . S
H3007 C3019 0.929 . S
H3008 C3022 0.930 . S
H3009 C3024 0.960 . S
H3010 C3024 0.960 . S
H3011 C3024 0.960 . S
C3012 H3004 0.929 . S
C3012 C3013 1.377 . S
C3012 C3014 1.384 . S
C3013 C3012 1.377 . S
C3013 C3019 1.390 . S
C3014 H3005 0.930 . S
C3014 C3012 1.384 . S
C3014 C3015 1.372 . S
C3015 C3014 1.372 . S
C3015 C3016 1.400 . S
C3015 C3020 1.490 . S
C3016 H3006 0.930 . S
C3016 C3015 1.400 . S
C3016 C3019 1.386 . S
H3017 C3033 0.930 . S
H3018 C3034 0.931 . S
C3019 H3007 0.929 . S
C3019 C3013 1.390 . S
C3019 C3016 1.386 . S
C3020 C3015 1.490 . S
C3020 C3022 1.395 . S
C3020 C3023 1.403 . S
H3021 C3027 0.930 . S
C3022 H3008 0.930 . S
C3022 C3020 1.395 . S
C3022 C3025 1.403 . S
C3023 C3020 1.403 . S
C3023 C3024 1.524 . S
C3023 C3027 1.400 . S
C3024 H3009 0.960 . S
C3024 H3010 0.960 . S
C3024 H3011 0.960 . S
C3024 C3023 1.524 . S
C3025 C3022 1.403 . S
C3025 C3026 1.392 . S
C3025 C3029 1.495 . S
C3026 C3025 1.392 . S
C3026 C3027 1.385 . S
C3026 C3028 1.478 . S
C3027 H3021 0.930 . S
C3027 C3023 1.400 . S
C3027 C3026 1.385 . S
C3028 C3026 1.478 . S
C3028 C3030 1.381 . S
C3028 C3034 1.383 . S
C3029 C3025 1.495 . S
C3029 H3035 0.959 . S
C3029 H3036 0.961 . S
C3029 H3037 0.960 . S
C3030 C3028 1.381 . S
C3030 C3031 1.394 . S
C3030 H3038 0.930 . S
C3031 C3030 1.394 . S
C3031 C3032 1.383 . S
C3031 H3039 0.929 . S
C3032 C3031 1.383 . S
C3032 C3033 1.377 . S
C3033 H3017 0.930 . S
C3033 C3032 1.377 . S
C3033 C3034 1.379 . S
C3034 H3018 0.931 . S
C3034 C3028 1.383 . S
C3034 C3033 1.379 . S
H3035 C3029 0.959 . S
H3036 C3029 0.961 . S
H3037 C3029 0.960 . S
H3038 C3030 0.930 . S
H3039 C3031 0.929 . S
H3040 C3048 0.929 . S
H3041 C3050 0.930 . S
H3042 C3052 0.930 . S
H3043 C3055 0.929 . S
H3044 C3058 0.930 . S
H3045 C3060 0.960 . S
H3046 C3060 0.960 . S
H3047 C3060 0.960 . S
C3048 H3040 0.929 . S
C3048 C3049 1.377 . S
C3048 C3050 1.384 . S
C3049 C3048 1.377 . S
C3049 C3055 1.390 . S
C3050 H3041 0.930 . S
C3050 C3048 1.384 . S
C3050 C3051 1.372 . S
C3051 C3050 1.372 . S
C3051 C3052 1.400 . S
C3051 C3056 1.490 . S
C3052 H3042 0.930 . S
C3052 C3051 1.400 . S
C3052 C3055 1.386 . S
H3053 C3069 0.930 . S
H3054 C3070 0.931 . S
C3055 H3043 0.929 . S
C3055 C3049 1.390 . S
C3055 C3052 1.386 . S
C3056 C3051 1.490 . S
C3056 C3058 1.395 1_455 S
C3056 C3059 1.403 . S
H3057 C3063 0.930 . S
C3058 H3044 0.930 . S
C3058 C3056 1.395 1_655 S
C3058 C3061 1.403 . S
C3059 C3056 1.403 . S
C3059 C3060 1.524 . S
C3059 C3063 1.400 . S
C3060 H3045 0.960 . S
C3060 H3046 0.960 . S
C3060 H3047 0.960 . S
C3060 C3059 1.524 . S
C3061 C3058 1.403 . S
C3061 C3062 1.392 . S
C3061 C3065 1.495 . S
C3062 C3061 1.392 . S
C3062 C3063 1.385 1_655 S
C3062 C3064 1.478 . S
C3063 H3057 0.930 . S
C3063 C3059 1.400 . S
C3063 C3062 1.385 1_455 S
C3064 C3062 1.478 . S
C3064 C3066 1.381 . S
C3064 C3070 1.383 . S
C3065 C3061 1.495 . S
C3065 H3071 0.959 . S
C3065 H3072 0.961 . S
C3065 H3073 0.960 . S
C3066 C3064 1.381 . S
C3066 C3067 1.394 . S
C3066 H3074 0.930 . S
C3067 C3066 1.394 . S
C3067 C3068 1.383 . S
C3067 H3075 0.929 . S
C3068 C3067 1.383 . S
C3068 C3069 1.377 . S
C3069 H3053 0.930 . S
C3069 C3068 1.377 . S
C3069 C3070 1.379 . S
C3070 H3054 0.931 . S
C3070 C3064 1.383 . S
C3070 C3069 1.379 . S
H3071 C3065 0.959 . S
H3072 C3065 0.961 . S
H3073 C3065 0.960 . S
H3074 C3066 0.930 . S
H3075 C3067 0.929 . S
H3076 C3084 0.929 . S
H3077 C3086 0.930 . S
H3078 C3088 0.930 . S
H3079 C3091 0.929 . S
H3080 C3094 0.930 . S
H3081 C3096 0.960 . S
H3082 C3096 0.960 . S
H3083 C3096 0.960 1_554 S
C3084 H3076 0.929 . S
C3084 C3085 1.377 . S
C3084 C3086 1.384 . S
C3085 C3084 1.377 . S
C3085 C3091 1.390 . S
C3086 H3077 0.930 . S
C3086 C3084 1.384 . S
C3086 C3087 1.372 . S
C3087 C3086 1.372 . S
C3087 C3088 1.400 . S
C3087 C3092 1.490 . S
C3088 H3078 0.930 . S
C3088 C3087 1.400 . S
C3088 C3091 1.386 . S
H3089 C3105 0.930 . S
H3090 C3106 0.931 . S
C3091 H3079 0.929 . S
C3091 C3085 1.390 . S
C3091 C3088 1.386 . S
C3092 C3087 1.490 . S
C3092 C3094 1.395 . S
C3092 C3095 1.403 . S
H3093 C3099 0.930 . S
C3094 H3080 0.930 . S
C3094 C3092 1.395 . S
C3094 C3097 1.403 . S
C3095 C3092 1.403 . S
C3095 C3096 1.524 1_554 S
C3095 C3099 1.400 1_554 S
C3096 H3081 0.960 . S
C3096 H3082 0.960 . S
C3096 H3083 0.960 1_556 S
C3096 C3095 1.524 1_556 S
C3097 C3094 1.403 . S
C3097 C3098 1.392 1_554 S
C3097 C3101 1.495 . S
C3098 C3097 1.392 1_556 S
C3098 C3099 1.385 . S
C3098 C3100 1.478 . S
C3099 H3093 0.930 . S
C3099 C3095 1.400 1_556 S
C3099 C3098 1.385 . S
C3100 C3098 1.478 . S
C3100 C3102 1.381 . S
C3100 C3106 1.383 . S
C3101 C3097 1.495 . S
C3101 H3107 0.959 . S
C3101 H3108 0.961 . S
C3101 H3109 0.960 . S
C3102 C3100 1.381 . S
C3102 C3103 1.394 . S
C3102 H3110 0.930 . S
C3103 C3102 1.394 . S
C3103 C3104 1.383 . S
C3103 H3111 0.929 . S
C3104 C3103 1.383 . S
C3104 C3105 1.377 . S
C3105 H3089 0.930 . S
C3105 C3104 1.377 . S
C3105 C3106 1.379 . S
C3106 H3090 0.931 . S
C3106 C3100 1.383 . S
C3106 C3105 1.379 . S
H3107 C3101 0.959 . S
H3108 C3101 0.961 . S
H3109 C3101 0.960 . S
H3110 C3102 0.930 . S
H3111 C3103 0.929 . S
H3112 C3120 0.929 . S
H3113 C3122 0.930 . S
H3114 C3124 0.930 . S
H3115 C3127 0.929 . S
H3116 C3130 0.930 . S
H3117 C3132 0.960 . S
H3118 C3132 0.960 . S
H3119 C3132 0.960 . S
C3120 H3112 0.929 . S
C3120 C3121 1.377 . S
C3120 C3122 1.384 . S
C3121 C3120 1.377 . S
C3121 C3127 1.390 . S
C3122 H3113 0.930 . S
C3122 C3120 1.384 . S
C3122 C3123 1.372 . S
C3123 C3122 1.372 . S
C3123 C3124 1.400 . S
C3123 C3128 1.490 . S
C3124 H3114 0.930 . S
C3124 C3123 1.400 . S
C3124 C3127 1.386 . S
H3125 C3141 0.930 . S
H3126 C3142 0.931 . S
C3127 H3115 0.929 . S
C3127 C3121 1.390 . S
C3127 C3124 1.386 . S
C3128 C3123 1.490 . S
C3128 C3130 1.395 . S
C3128 C3131 1.403 . S
H3129 C3135 0.930 . S
C3130 H3116 0.930 . S
C3130 C3128 1.395 . S
C3130 C3133 1.403 . S
C3131 C3128 1.403 . S
C3131 C3132 1.524 . S
C3131 C3135 1.400 . S
C3132 H3117 0.960 . S
C3132 H3118 0.960 . S
C3132 H3119 0.960 . S
C3132 C3131 1.524 . S
C3133 C3130 1.403 . S
C3133 C3134 1.392 . S
C3133 C3137 1.495 . S
C3134 C3133 1.392 . S
C3134 C3135 1.385 . S
C3134 C3136 1.478 . S
C3135 H3129 0.930 . S
C3135 C3131 1.400 . S
C3135 C3134 1.385 . S
C3136 C3134 1.478 . S
C3136 C3138 1.381 . S
C3136 C3142 1.383 . S
C3137 C3133 1.495 . S
C3137 H3143 0.959 . S
C3137 H3144 0.961 . S
C3137 H3145 0.960 . S
C3138 C3136 1.381 . S
C3138 C3139 1.394 . S
C3138 H3146 0.930 . S
C3139 C3138 1.394 . S
C3139 C3140 1.383 . S
C3139 H3147 0.929 . S
C3140 C3139 1.383 . S
C3140 C3141 1.377 . S
C3141 H3125 0.930 . S
C3141 C3140 1.377 . S
C3141 C3142 1.379 . S
C3142 H3126 0.931 . S
C3142 C3136 1.383 . S
C3142 C3141 1.379 . S
H3143 C3137 0.959 . S
H3144 C3137 0.961 . S
H3145 C3137 0.960 . S
H3146 C3138 0.930 . S
H3147 C3139 0.929 . S
H3148 C3156 0.929 . S
H3149 C3158 0.930 . S
H3150 C3160 0.930 . S
H3151 C3163 0.929 . S
H3152 C3166 0.930 . S
H3153 C3168 0.960 . S
H3154 C3168 0.960 . S
H3155 C3168 0.960 . S
C3156 H3148 0.929 . S
C3156 C3157 1.377 . S
C3156 C3158 1.384 . S
C3157 C3156 1.377 . S
C3157 C3163 1.390 . S
C3158 H3149 0.930 . S
C3158 C3156 1.384 . S
C3158 C3159 1.372 . S
C3159 C3158 1.372 . S
C3159 C3160 1.400 . S
C3159 C3164 1.490 . S
C3160 H3150 0.930 . S
C3160 C3159 1.400 . S
C3160 C3163 1.386 . S
H3161 C3177 0.930 . S
H3162 C3178 0.931 . S
C3163 H3151 0.929 . S
C3163 C3157 1.390 . S
C3163 C3160 1.386 . S
C3164 C3159 1.490 . S
C3164 C3166 1.395 . S
C3164 C3167 1.403 . S
H3165 C3171 0.930 . S
C3166 H3152 0.930 . S
C3166 C3164 1.395 . S
C3166 C3169 1.403 . S
C3167 C3164 1.403 . S
C3167 C3168 1.524 . S
C3167 C3171 1.400 . S
C3168 H3153 0.960 . S
C3168 H3154 0.960 . S
C3168 H3155 0.960 . S
C3168 C3167 1.524 . S
C3169 C3166 1.403 . S
C3169 C3170 1.392 . S
C3169 C3173 1.495 . S
C3170 C3169 1.392 . S
C3170 C3171 1.385 . S
C3170 C3172 1.478 . S
C3171 H3165 0.930 . S
C3171 C3167 1.400 . S
C3171 C3170 1.385 . S
C3172 C3170 1.478 . S
C3172 C3174 1.381 . S
C3172 C3178 1.383 . S
C3173 C3169 1.495 . S
C3173 H3179 0.959 . S
C3173 H3180 0.961 . S
C3173 H3181 0.960 . S
C3174 C3172 1.381 . S
C3174 C3175 1.394 . S
C3174 H3182 0.930 . S
C3175 C3174 1.394 . S
C3175 C3176 1.383 . S
C3175 H3183 0.929 . S
C3176 C3175 1.383 . S
C3176 C3177 1.377 . S
C3177 H3161 0.930 . S
C3177 C3176 1.377 . S
C3177 C3178 1.379 . S
C3178 H3162 0.931 . S
C3178 C3172 1.383 . S
C3178 C3177 1.379 . S
H3179 C3173 0.959 . S
H3180 C3173 0.961 . S
H3181 C3173 0.960 . S
H3182 C3174 0.930 . S
H3183 C3175 0.929 . S
H3184 C3192 0.929 . S
H3185 C3194 0.930 . S
H3186 C3196 0.930 . S
H3187 C3199 0.929 . S
H3188 C3202 0.930 . S
H3189 C3204 0.960 . S
H3190 C3204 0.960 . S
H3191 C3204 0.960 . S
C3192 H3184 0.929 . S
C3192 C3193 1.377 . S
C3192 C3194 1.384 . S
C3193 C3192 1.377 . S
C3193 C3199 1.390 . S
C3194 H3185 0.930 . S
C3194 C3192 1.384 . S
C3194 C3195 1.372 . S
C3195 C3194 1.372 . S
C3195 C3196 1.400 . S
C3195 C3200 1.490 . S
C3196 H3186 0.930 . S
C3196 C3195 1.400 . S
C3196 C3199 1.386 . S
H3197 C3213 0.930 . S
H3198 C3214 0.931 . S
C3199 H3187 0.929 . S
C3199 C3193 1.390 . S
C3199 C3196 1.386 . S
C3200 C3195 1.490 . S
C3200 C3202 1.395 1_455 S
C3200 C3203 1.403 . S
H3201 C3207 0.930 . S
C3202 H3188 0.930 . S
C3202 C3200 1.395 1_655 S
C3202 C3205 1.403 . S
C3203 C3200 1.403 . S
C3203 C3204 1.524 . S
C3203 C3207 1.400 . S
C3204 H3189 0.960 . S
C3204 H3190 0.960 . S
C3204 H3191 0.960 . S
C3204 C3203 1.524 . S
C3205 C3202 1.403 . S
C3205 C3206 1.392 . S
C3205 C3209 1.495 . S
C3206 C3205 1.392 . S
C3206 C3207 1.385 1_655 S
C3206 C3208 1.478 . S
C3207 H3201 0.930 . S
C3207 C3203 1.400 . S
C3207 C3206 1.385 1_455 S
C3208 C3206 1.478 . S
C3208 C3210 1.381 . S
C3208 C3214 1.383 . S
C3209 C3205 1.495 . S
C3209 H3215 0.959 . S
C3209 H3216 0.961 . S
C3209 H3217 0.960 . S
C3210 C3208 1.381 . S
C3210 C3211 1.394 . S
C3210 H3218 0.930 . S
C3211 C3210 1.394 . S
C3211 C3212 1.383 . S
C3211 H3219 0.929 . S
C3212 C3211 1.383 . S
C3212 C3213 1.377 . S
C3213 H3197 0.930 . S
C3213 C3212 1.377 . S
C3213 C3214 1.379 . S
C3214 H3198 0.931 . S
C3214 C3208 1.383 . S
C3214 C3213 1.379 . S
H3215 C3209 0.959 . S
H3216 C3209 0.961 . S
H3217 C3209 0.960 . S
H3218 C3210 0.930 . S
H3219 C3211 0.929 . S
H3220 C3228 0.929 . S
H3221 C3230 0.930 . S
H3222 C3232 0.930 1_554 S
H3223 C3235 0.929 . S
H3224 C3238 0.930 1_556 S
H3225 C3240 0.960 . S
H3226 C3240 0.960 . S
H3227 C3240 0.960 . S
C3228 H3220 0.929 . S
C3228 C3229 1.377 . S
C3228 C3230 1.384 . S
C3229 C3228 1.377 . S
C3229 C3235 1.390 . S
C3230 H3221 0.930 . S
C3230 C3228 1.384 . S
C3230 C3231 1.372 . S
C3231 C3230 1.372 . S
C3231 C3232 1.400 . S
C3231 C3236 1.490 1_556 S
C3232 H3222 0.930 1_556 S
C3232 C3231 1.400 . S
C3232 C3235 1.386 . S
H3233 C3249 0.930 . S
H3234 C3250 0.931 . S
C3235 H3223 0.929 . S
C3235 C3229 1.390 . S
C3235 C3232 1.386 . S
C3236 C3231 1.490 1_554 S
C3236 C3238 1.395 . S
C3236 C3239 1.403 . S
H3237 C3243 0.930 . S
C3238 H3224 0.930 1_554 S
C3238 C3236 1.395 . S
C3238 C3241 1.403 . S
C3239 C3236 1.403 . S
C3239 C3240 1.524 . S
C3239 C3243 1.400 . S
C3240 H3225 0.960 . S
C3240 H3226 0.960 . S
C3240 H3227 0.960 . S
C3240 C3239 1.524 . S
C3241 C3238 1.403 . S
C3241 C3242 1.392 . S
C3241 C3245 1.495 . S
C3242 C3241 1.392 . S
C3242 C3243 1.385 . S
C3242 C3244 1.478 . S
C3243 H3237 0.930 . S
C3243 C3239 1.400 . S
C3243 C3242 1.385 . S
C3244 C3242 1.478 . S
C3244 C3246 1.381 . S
C3244 C3250 1.383 . S
C3245 C3241 1.495 . S
C3245 H3251 0.959 1_554 S
C3245 H3252 0.961 . S
C3245 H3253 0.960 . S
C3246 C3244 1.381 . S
C3246 C3247 1.394 . S
C3246 H3254 0.930 . S
C3247 C3246 1.394 . S
C3247 C3248 1.383 . S
C3247 H3255 0.929 . S
C3248 C3247 1.383 . S
C3248 C3249 1.377 . S
C3249 H3233 0.930 . S
C3249 C3248 1.377 . S
C3249 C3250 1.379 . S
C3250 H3234 0.931 . S
C3250 C3244 1.383 . S
C3250 C3249 1.379 . S
H3251 C3245 0.959 1_556 S
H3252 C3245 0.961 . S
H3253 C3245 0.960 . S
H3254 C3246 0.930 . S
H3255 C3247 0.929 . S
H3256 C3264 0.929 . S
H3257 C3266 0.930 . S
H3258 C3268 0.930 . S
H3259 C3271 0.929 . S
H3260 C3274 0.930 . S
H3261 C3276 0.960 . S
H3262 C3276 0.960 . S
H3263 C3276 0.960 . S
C3264 H3256 0.929 . S
C3264 C3265 1.377 . S
C3264 C3266 1.384 . S
C3265 C3264 1.377 . S
C3265 C3271 1.390 . S
C3266 H3257 0.930 . S
C3266 C3264 1.384 . S
C3266 C3267 1.372 . S
C3267 C3266 1.372 . S
C3267 C3268 1.400 . S
C3267 C3272 1.490 . S
C3268 H3258 0.930 . S
C3268 C3267 1.400 . S
C3268 C3271 1.386 . S
H3269 C3285 0.930 . S
H3270 C3286 0.931 . S
C3271 H3259 0.929 . S
C3271 C3265 1.390 . S
C3271 C3268 1.386 . S
C3272 C3267 1.490 . S
C3272 C3274 1.395 . S
C3272 C3275 1.403 . S
H3273 C3279 0.930 . S
C3274 H3260 0.930 . S
C3274 C3272 1.395 . S
C3274 C3277 1.403 . S
C3275 C3272 1.403 . S
C3275 C3276 1.524 . S
C3275 C3279 1.400 . S
C3276 H3261 0.960 . S
C3276 H3262 0.960 . S
C3276 H3263 0.960 . S
C3276 C3275 1.524 . S
C3277 C3274 1.403 . S
C3277 C3278 1.392 . S
C3277 C3281 1.495 . S
C3278 C3277 1.392 . S
C3278 C3279 1.385 . S
C3278 C3280 1.478 . S
C3279 H3273 0.930 . S
C3279 C3275 1.400 . S
C3279 C3278 1.385 . S
C3280 C3278 1.478 . S
C3280 C3282 1.381 . S
C3280 C3286 1.383 . S
C3281 C3277 1.495 . S
C3281 H3287 0.959 . S
C3281 H3288 0.961 . S
C3281 H3289 0.960 . S
C3282 C3280 1.381 . S
C3282 C3283 1.394 . S
C3282 H3290 0.930 . S
C3283 C3282 1.394 . S
C3283 C3284 1.383 . S
C3283 H3291 0.929 . S
C3284 C3283 1.383 . S
C3284 C3285 1.377 . S
C3285 H3269 0.930 . S
C3285 C3284 1.377 . S
C3285 C3286 1.379 . S
C3286 H3270 0.931 . S
C3286 C3280 1.383 . S
C3286 C3285 1.379 . S
H3287 C3281 0.959 . S
H3288 C3281 0.961 . S
H3289 C3281 0.960 . S
H3290 C3282 0.930 . S
H3291 C3283 0.929 . S
H3292 C3300 0.929 . S
H3293 C3302 0.930 . S
H3294 C3304 0.930 . S
H3295 C3307 0.929 . S
H3296 C3310 0.930 . S
H3297 C3312 0.960 . S
H3298 C3312 0.960 . S
H3299 C3312 0.960 . S
C3300 H3292 0.929 . S
C3300 C3301 1.377 . S
C3300 C3302 1.384 . S
C3301 C3300 1.377 . S
C3301 C3307 1.390 . S
C3302 H3293 0.930 . S
C3302 C3300 1.384 . S
C3302 C3303 1.372 . S
C3303 C3302 1.372 . S
C3303 C3304 1.400 . S
C3303 C3308 1.490 . S
C3304 H3294 0.930 . S
C3304 C3303 1.400 . S
C3304 C3307 1.386 . S
H3305 C3321 0.930 . S
H3306 C3322 0.931 . S
C3307 H3295 0.929 . S
C3307 C3301 1.390 . S
C3307 C3304 1.386 . S
C3308 C3303 1.490 . S
C3308 C3310 1.395 . S
C3308 C3311 1.403 . S
H3309 C3315 0.930 . S
C3310 H3296 0.930 . S
C3310 C3308 1.395 . S
C3310 C3313 1.403 . S
C3311 C3308 1.403 . S
C3311 C3312 1.524 . S
C3311 C3315 1.400 . S
C3312 H3297 0.960 . S
C3312 H3298 0.960 . S
C3312 H3299 0.960 . S
C3312 C3311 1.524 . S
C3313 C3310 1.403 . S
C3313 C3314 1.392 . S
C3313 C3317 1.495 . S
C3314 C3313 1.392 . S
C3314 C3315 1.385 . S
C3314 C3316 1.478 . S
C3315 H3309 0.930 . S
C3315 C3311 1.400 . S
C3315 C3314 1.385 . S
C3316 C3314 1.478 . S
C3316 C3318 1.381 . S
C3316 C3322 1.383 . S
C3317 C3313 1.495 . S
C3317 H3323 0.959 . S
C3317 H3324 0.961 . S
C3317 H3325 0.960 . S
C3318 C3316 1.381 . S
C3318 C3319 1.394 . S
C3318 H3326 0.930 . S
C3319 C3318 1.394 . S
C3319 C3320 1.383 . S
C3319 H3327 0.929 . S
C3320 C3319 1.383 . S
C3320 C3321 1.377 . S
C3321 H3305 0.930 . S
C3321 C3320 1.377 . S
C3321 C3322 1.379 . S
C3322 H3306 0.931 . S
C3322 C3316 1.383 . S
C3322 C3321 1.379 . S
H3323 C3317 0.959 . S
H3324 C3317 0.961 . S
H3325 C3317 0.960 . S
H3326 C3318 0.930 . S
H3327 C3319 0.929 . S
H3328 C3336 0.929 . S
H3329 C3338 0.930 . S
H3330 C3340 0.930 . S
H3331 C3343 0.929 . S
H3332 C3346 0.930 . S
H3333 C3348 0.960 . S
H3334 C3348 0.960 . S
H3335 C3348 0.960 . S
C3336 H3328 0.929 . S
C3336 C3337 1.377 . S
C3336 C3338 1.384 . S
C3337 C3336 1.377 . S
C3337 C3343 1.390 . S
C3338 H3329 0.930 . S
C3338 C3336 1.384 . S
C3338 C3339 1.372 . S
C3339 C3338 1.372 . S
C3339 C3340 1.400 . S
C3339 C3344 1.490 . S
C3340 H3330 0.930 . S
C3340 C3339 1.400 . S
C3340 C3343 1.386 . S
H3341 C3357 0.930 . S
H3342 C3358 0.931 . S
C3343 H3331 0.929 . S
C3343 C3337 1.390 . S
C3343 C3340 1.386 . S
C3344 C3339 1.490 . S
C3344 C3346 1.395 . S
C3344 C3347 1.403 . S
H3345 C3351 0.930 . S
C3346 H3332 0.930 . S
C3346 C3344 1.395 . S
C3346 C3349 1.403 . S
C3347 C3344 1.403 . S
C3347 C3348 1.524 . S
C3347 C3351 1.400 . S
C3348 H3333 0.960 . S
C3348 H3334 0.960 . S
C3348 H3335 0.960 . S
C3348 C3347 1.524 . S
C3349 C3346 1.403 . S
C3349 C3350 1.392 . S
C3349 C3353 1.495 . S
C3350 C3349 1.392 . S
C3350 C3351 1.385 . S
C3350 C3352 1.478 . S
C3351 H3345 0.930 . S
C3351 C3347 1.400 . S
C3351 C3350 1.385 . S
C3352 C3350 1.478 . S
C3352 C3354 1.381 . S
C3352 C3358 1.383 . S
C3353 C3349 1.495 . S
C3353 H3359 0.959 . S
C3353 H3360 0.961 . S
C3353 H3361 0.960 . S
C3354 C3352 1.381 . S
C3354 C3355 1.394 . S
C3354 H3362 0.930 . S
C3355 C3354 1.394 . S
C3355 C3356 1.383 . S
C3355 H3363 0.929 . S
C3356 C3355 1.383 . S
C3356 C3357 1.377 . S
C3357 H3341 0.930 . S
C3357 C3356 1.377 . S
C3357 C3358 1.379 . S
C3358 H3342 0.931 . S
C3358 C3352 1.383 . S
C3358 C3357 1.379 . S
H3359 C3353 0.959 . S
H3360 C3353 0.961 . S
H3361 C3353 0.960 . S
H3362 C3354 0.930 . S
H3363 C3355 0.929 . S
H3364 C3372 0.929 . S
H3365 C3374 0.930 . S
H3366 C3376 0.930 . S
H3367 C3379 0.929 . S
H3368 C3382 0.930 . S
H3369 C3384 0.960 . S
H3370 C3384 0.960 . S
H3371 C3384 0.960 . S
C3372 H3364 0.929 . S
C3372 C3373 1.377 . S
C3372 C3374 1.384 . S
C3373 C3372 1.377 . S
C3373 C3379 1.390 . S
C3374 H3365 0.930 . S
C3374 C3372 1.384 . S
C3374 C3375 1.372 . S
C3375 C3374 1.372 . S
C3375 C3376 1.400 . S
C3375 C3380 1.490 . S
C3376 H3366 0.930 . S
C3376 C3375 1.400 . S
C3376 C3379 1.386 . S
H3377 C3393 0.930 . S
H3378 C3394 0.931 . S
C3379 H3367 0.929 . S
C3379 C3373 1.390 . S
C3379 C3376 1.386 . S
C3380 C3375 1.490 . S
C3380 C3382 1.395 . S
C3380 C3383 1.403 . S
H3381 C3387 0.930 . S
C3382 H3368 0.930 . S
C3382 C3380 1.395 . S
C3382 C3385 1.403 . S
C3383 C3380 1.403 . S
C3383 C3384 1.524 . S
C3383 C3387 1.400 . S
C3384 H3369 0.960 . S
C3384 H3370 0.960 . S
C3384 H3371 0.960 . S
C3384 C3383 1.524 . S
C3385 C3382 1.403 . S
C3385 C3386 1.392 . S
C3385 C3389 1.495 . S
C3386 C3385 1.392 . S
C3386 C3387 1.385 . S
C3386 C3388 1.478 . S
C3387 H3381 0.930 . S
C3387 C3383 1.400 . S
C3387 C3386 1.385 . S
C3388 C3386 1.478 . S
C3388 C3390 1.381 . S
C3388 C3394 1.383 . S
C3389 C3385 1.495 . S
C3389 H3395 0.959 . S
C3389 H3396 0.961 . S
C3389 H3397 0.960 . S
C3390 C3388 1.381 . S
C3390 C3391 1.394 . S
C3390 H3398 0.930 . S
C3391 C3390 1.394 . S
C3391 C3392 1.383 . S
C3391 H3399 0.929 . S
C3392 C3391 1.383 . S
C3392 C3393 1.377 . S
C3393 H3377 0.930 . S
C3393 C3392 1.377 . S
C3393 C3394 1.379 . S
C3394 H3378 0.931 . S
C3394 C3388 1.383 . S
C3394 C3393 1.379 . S
H3395 C3389 0.959 . S
H3396 C3389 0.961 . S
H3397 C3389 0.960 . S
H3398 C3390 0.930 . S
H3399 C3391 0.929 . S
H3400 C3408 0.929 . S
H3401 C3410 0.930 . S
H3402 C3412 0.930 . S
H3403 C3415 0.929 . S
H3404 C3418 0.930 . S
H3405 C3420 0.960 . S
H3406 C3420 0.960 . S
H3407 C3420 0.960 . S
C3408 H3400 0.929 . S
C3408 C3409 1.377 . S
C3408 C3410 1.384 . S
C3409 C3408 1.377 . S
C3409 C3415 1.390 . S
C3410 H3401 0.930 . S
C3410 C3408 1.384 . S
C3410 C3411 1.372 . S
C3411 C3410 1.372 . S
C3411 C3412 1.400 . S
C3411 C3416 1.490 . S
C3412 H3402 0.930 . S
C3412 C3411 1.400 . S
C3412 C3415 1.386 . S
H3413 C3429 0.930 . S
H3414 C3430 0.931 . S
C3415 H3403 0.929 . S
C3415 C3409 1.390 . S
C3415 C3412 1.386 . S
C3416 C3411 1.490 . S
C3416 C3418 1.395 . S
C3416 C3419 1.403 1_655 S
H3417 C3423 0.930 . S
C3418 H3404 0.930 . S
C3418 C3416 1.395 . S
C3418 C3421 1.403 . S
C3419 C3416 1.403 1_455 S
C3419 C3420 1.524 . S
C3419 C3423 1.400 . S
C3420 H3405 0.960 . S
C3420 H3406 0.960 . S
C3420 H3407 0.960 . S
C3420 C3419 1.524 . S
C3421 C3418 1.403 . S
C3421 C3422 1.392 1_655 S
C3421 C3425 1.495 . S
C3422 C3421 1.392 1_455 S
C3422 C3423 1.385 . S
C3422 C3424 1.478 . S
C3423 H3417 0.930 . S
C3423 C3419 1.400 . S
C3423 C3422 1.385 . S
C3424 C3422 1.478 . S
C3424 C3426 1.381 . S
C3424 C3430 1.383 . S
C3425 C3421 1.495 . S
C3425 H3431 0.959 . S
C3425 H3432 0.961 . S
C3425 H3433 0.960 . S
C3426 C3424 1.381 . S
C3426 C3427 1.394 . S
C3426 H3434 0.930 . S
C3427 C3426 1.394 . S
C3427 C3428 1.383 . S
C3427 H3435 0.929 . S
C3428 C3427 1.383 . S
C3428 C3429 1.377 . S
C3429 H3413 0.930 . S
C3429 C3428 1.377 . S
C3429 C3430 1.379 . S
C3430 H3414 0.931 . S
C3430 C3424 1.383 . S
C3430 C3429 1.379 . S
H3431 C3425 0.959 . S
H3432 C3425 0.961 . S
H3433 C3425 0.960 . S
H3434 C3426 0.930 . S
H3435 C3427 0.929 . S
H3436 C3444 0.929 . S
H3437 C3446 0.930 . S
H3438 C3448 0.930 1_554 S
H3439 C3451 0.929 . S
H3440 C3454 0.930 1_556 S
H3441 C3456 0.960 . S
H3442 C3456 0.960 . S
H3443 C3456 0.960 . S
C3444 H3436 0.929 . S
C3444 C3445 1.377 . S
C3444 C3446 1.384 . S
C3445 C3444 1.377 . S
C3445 C3451 1.390 . S
C3446 H3437 0.930 . S
C3446 C3444 1.384 . S
C3446 C3447 1.372 . S
C3447 C3446 1.372 . S
C3447 C3448 1.400 . S
C3447 C3452 1.490 1_556 S
C3448 H3438 0.930 1_556 S
C3448 C3447 1.400 . S
C3448 C3451 1.386 . S
H3449 C3465 0.930 . S
H3450 C3466 0.931 . S
C3451 H3439 0.929 . S
C3451 C3445 1.390 . S
C3451 C3448 1.386 . S
C3452 C3447 1.490 1_554 S
C3452 C3454 1.395 . S
C3452 C3455 1.403 . S
H3453 C3459 0.930 . S
C3454 H3440 0.930 1_554 S
C3454 C3452 1.395 . S
C3454 C3457 1.403 . S
C3455 C3452 1.403 . S
C3455 C3456 1.524 . S
C3455 C3459 1.400 . S
C3456 H3441 0.960 . S
C3456 H3442 0.960 . S
C3456 H3443 0.960 . S
C3456 C3455 1.524 . S
C3457 C3454 1.403 . S
C3457 C3458 1.392 . S
C3457 C3461 1.495 . S
C3458 C3457 1.392 . S
C3458 C3459 1.385 . S
C3458 C3460 1.478 . S
C3459 H3453 0.930 . S
C3459 C3455 1.400 . S
C3459 C3458 1.385 . S
C3460 C3458 1.478 . S
C3460 C3462 1.381 . S
C3460 C3466 1.383 . S
C3461 C3457 1.495 . S
C3461 H3467 0.959 . S
C3461 H3468 0.961 . S
C3461 H3469 0.960 . S
C3462 C3460 1.381 . S
C3462 C3463 1.394 . S
C3462 H3470 0.930 . S
C3463 C3462 1.394 . S
C3463 C3464 1.383 . S
C3463 H3471 0.929 . S
C3464 C3463 1.383 . S
C3464 C3465 1.377 . S
C3465 H3449 0.930 . S
C3465 C3464 1.377 . S
C3465 C3466 1.379 . S
C3466 H3450 0.931 . S
C3466 C3460 1.383 . S
C3466 C3465 1.379 . S
H3467 C3461 0.959 . S
H3468 C3461 0.961 . S
H3469 C3461 0.960 . S
H3470 C3462 0.930 . S
H3471 C3463 0.929 . S
H3472 C3480 0.929 . S
H3473 C3482 0.930 . S
H3474 C3484 0.930 . S
H3475 C3487 0.929 . S
H3476 C3490 0.930 . S
H3477 C3492 0.960 . S
H3478 C3492 0.960 . S
H3479 C3492 0.960 . S
C3480 H3472 0.929 . S
C3480 C3481 1.377 . S
C3480 C3482 1.384 . S
C3481 C3480 1.377 . S
C3481 C3487 1.390 . S
C3482 H3473 0.930 . S
C3482 C3480 1.384 . S
C3482 C3483 1.372 . S
C3483 C3482 1.372 . S
C3483 C3484 1.400 . S
C3483 C3488 1.490 . S
C3484 H3474 0.930 . S
C3484 C3483 1.400 . S
C3484 C3487 1.386 . S
H3485 C3501 0.930 . S
H3486 C3502 0.931 . S
C3487 H3475 0.929 . S
C3487 C3481 1.390 . S
C3487 C3484 1.386 . S
C3488 C3483 1.490 . S
C3488 C3490 1.395 . S
C3488 C3491 1.403 . S
H3489 C3495 0.930 . S
C3490 H3476 0.930 . S
C3490 C3488 1.395 . S
C3490 C3493 1.403 . S
C3491 C3488 1.403 . S
C3491 C3492 1.524 . S
C3491 C3495 1.400 . S
C3492 H3477 0.960 . S
C3492 H3478 0.960 . S
C3492 H3479 0.960 . S
C3492 C3491 1.524 . S
C3493 C3490 1.403 . S
C3493 C3494 1.392 . S
C3493 C3497 1.495 . S
C3494 C3493 1.392 . S
C3494 C3495 1.385 . S
C3494 C3496 1.478 . S
C3495 H3489 0.930 . S
C3495 C3491 1.400 . S
C3495 C3494 1.385 . S
C3496 C3494 1.478 . S
C3496 C3498 1.381 . S
C3496 C3502 1.383 . S
C3497 C3493 1.495 . S
C3497 H3503 0.959 . S
C3497 H3504 0.961 . S
C3497 H3505 0.960 . S
C3498 C3496 1.381 . S
C3498 C3499 1.394 . S
C3498 H3506 0.930 . S
C3499 C3498 1.394 . S
C3499 C3500 1.383 . S
C3499 H3507 0.929 . S
C3500 C3499 1.383 . S
C3500 C3501 1.377 . S
C3501 H3485 0.930 . S
C3501 C3500 1.377 . S
C3501 C3502 1.379 . S
C3502 H3486 0.931 . S
C3502 C3496 1.383 . S
C3502 C3501 1.379 . S
H3503 C3497 0.959 . S
H3504 C3497 0.961 . S
H3505 C3497 0.960 . S
H3506 C3498 0.930 . S
H3507 C3499 0.929 . S
H3508 C3516 0.929 . S
H3509 C3518 0.930 . S
H3510 C3520 0.930 . S
H3511 C3523 0.929 . S
H3512 C3526 0.930 . S
H3513 C3528 0.960 . S
H3514 C3528 0.960 . S
H3515 C3528 0.960 . S
C3516 H3508 0.929 . S
C3516 C3517 1.377 . S
C3516 C3518 1.384 . S
C3517 C3516 1.377 . S
C3517 C3523 1.390 . S
C3518 H3509 0.930 . S
C3518 C3516 1.384 . S
C3518 C3519 1.372 . S
C3519 C3518 1.372 . S
C3519 C3520 1.400 . S
C3519 C3524 1.490 . S
C3520 H3510 0.930 . S
C3520 C3519 1.400 . S
C3520 C3523 1.386 . S
H3521 C3537 0.930 . S
H3522 C3538 0.931 . S
C3523 H3511 0.929 . S
C3523 C3517 1.390 . S
C3523 C3520 1.386 . S
C3524 C3519 1.490 . S
C3524 C3526 1.395 . S
C3524 C3527 1.403 . S
H3525 C3531 0.930 . S
C3526 H3512 0.930 . S
C3526 C3524 1.395 . S
C3526 C3529 1.403 . S
C3527 C3524 1.403 . S
C3527 C3528 1.524 . S
C3527 C3531 1.400 . S
C3528 H3513 0.960 . S
C3528 H3514 0.960 . S
C3528 H3515 0.960 . S
C3528 C3527 1.524 . S
C3529 C3526 1.403 . S
C3529 C3530 1.392 . S
C3529 C3533 1.495 . S
C3530 C3529 1.392 . S
C3530 C3531 1.385 . S
C3530 C3532 1.478 . S
C3531 H3525 0.930 . S
C3531 C3527 1.400 . S
C3531 C3530 1.385 . S
C3532 C3530 1.478 . S
C3532 C3534 1.381 . S
C3532 C3538 1.383 . S
C3533 C3529 1.495 . S
C3533 H3539 0.959 . S
C3533 H3540 0.961 . S
C3533 H3541 0.960 . S
C3534 C3532 1.381 . S
C3534 C3535 1.394 . S
C3534 H3542 0.930 . S
C3535 C3534 1.394 . S
C3535 C3536 1.383 . S
C3535 H3543 0.929 . S
C3536 C3535 1.383 . S
C3536 C3537 1.377 . S
C3537 H3521 0.930 . S
C3537 C3536 1.377 . S
C3537 C3538 1.379 . S
C3538 H3522 0.931 . S
C3538 C3532 1.383 . S
C3538 C3537 1.379 . S
H3539 C3533 0.959 . S
H3540 C3533 0.961 . S
H3541 C3533 0.960 . S
H3542 C3534 0.930 . S
H3543 C3535 0.929 . S
H3544 C3552 0.929 . S
H3545 C3554 0.930 . S
H3546 C3556 0.930 . S
H3547 C3559 0.929 . S
H3548 C3562 0.930 . S
H3549 C3564 0.960 . S
H3550 C3564 0.960 . S
H3551 C3564 0.960 . S
C3552 H3544 0.929 . S
C3552 C3553 1.377 . S
C3552 C3554 1.384 . S
C3553 C3552 1.377 . S
C3553 C3559 1.390 . S
C3554 H3545 0.930 . S
C3554 C3552 1.384 . S
C3554 C3555 1.372 . S
C3555 C3554 1.372 . S
C3555 C3556 1.400 . S
C3555 C3560 1.490 . S
C3556 H3546 0.930 . S
C3556 C3555 1.400 . S
C3556 C3559 1.386 . S
H3557 C3573 0.930 . S
H3558 C3574 0.931 . S
C3559 H3547 0.929 . S
C3559 C3553 1.390 . S
C3559 C3556 1.386 . S
C3560 C3555 1.490 . S
C3560 C3562 1.395 1_455 S
C3560 C3563 1.403 . S
H3561 C3567 0.930 . S
C3562 H3548 0.930 . S
C3562 C3560 1.395 1_655 S
C3562 C3565 1.403 . S
C3563 C3560 1.403 . S
C3563 C3564 1.524 . S
C3563 C3567 1.396 . S
C3564 H3549 0.960 . S
C3564 H3550 0.960 . S
C3564 H3551 0.960 . S
C3564 C3563 1.524 . S
C3565 C3562 1.403 . S
C3565 C3566 1.392 . S
C3565 C3569 1.495 . S
C3566 C3565 1.392 . S
C3566 C3567 1.390 1_655 S
C3566 C3568 1.478 . S
C3567 H3561 0.930 . S
C3567 C3563 1.396 . S
C3567 C3566 1.390 1_455 S
C3568 C3566 1.478 . S
C3568 C3570 1.381 . S
C3568 C3574 1.383 . S
C3569 C3565 1.495 . S
C3569 H3575 0.959 . S
C3569 H3576 0.961 . S
C3569 H3577 0.960 . S
C3570 C3568 1.381 . S
C3570 C3571 1.394 . S
C3570 H3578 0.930 . S
C3571 C3570 1.394 . S
C3571 C3572 1.383 . S
C3571 H3579 0.929 . S
C3572 C3571 1.383 . S
C3572 C3573 1.377 . S
C3573 H3557 0.930 . S
C3573 C3572 1.377 . S
C3573 C3574 1.379 . S
C3574 H3558 0.931 . S
C3574 C3568 1.383 . S
C3574 C3573 1.379 . S
H3575 C3569 0.959 . S
H3576 C3569 0.961 . S
H3577 C3569 0.960 . S
H3578 C3570 0.930 . S
H3579 C3571 0.929 . S
H3580 C3588 0.929 . S
H3581 C3590 0.930 . S
H3582 C3592 0.930 . S
H3583 C3595 0.929 . S
H3584 C3598 0.930 . S
H3585 C3600 0.960 1_556 S
H3586 C3600 0.960 . S
H3587 C3600 0.960 . S
C3588 H3580 0.929 . S
C3588 C3589 1.377 . S
C3588 C3590 1.384 . S
C3589 C3588 1.377 . S
C3589 C3595 1.390 . S
C3590 H3581 0.930 . S
C3590 C3588 1.384 . S
C3590 C3591 1.372 . S
C3591 C3590 1.372 . S
C3591 C3592 1.400 . S
C3591 C3596 1.490 . S
C3592 H3582 0.930 . S
C3592 C3591 1.400 . S
C3592 C3595 1.386 . S
H3593 C3609 0.930 . S
H3594 C3610 0.931 . S
C3595 H3583 0.929 . S
C3595 C3589 1.390 . S
C3595 C3592 1.386 . S
C3596 C3591 1.490 . S
C3596 C3598 1.395 . S
C3596 C3599 1.403 . S
H3597 C3603 0.930 . S
C3598 H3584 0.930 . S
C3598 C3596 1.395 . S
C3598 C3601 1.403 . S
C3599 C3596 1.403 . S
C3599 C3600 1.524 . S
C3599 C3603 1.400 1_554 S
C3600 H3585 0.960 1_554 S
C3600 H3586 0.960 . S
C3600 H3587 0.960 . S
C3600 C3599 1.524 . S
C3601 C3598 1.403 . S
C3601 C3602 1.392 1_554 S
C3601 C3605 1.495 . S
C3602 C3601 1.392 1_556 S
C3602 C3603 1.385 . S
C3602 C3604 1.478 . S
C3603 H3597 0.930 . S
C3603 C3599 1.400 1_556 S
C3603 C3602 1.385 . S
C3604 C3602 1.478 . S
C3604 C3606 1.381 . S
C3604 C3610 1.383 . S
C3605 C3601 1.495 . S
C3605 H3611 0.959 . S
C3605 H3612 0.961 . S
C3605 H3613 0.968 . S
C3606 C3604 1.381 . S
C3606 C3607 1.394 . S
C3606 H3614 0.930 . S
C3607 C3606 1.394 . S
C3607 C3608 1.383 . S
C3607 H3615 0.929 . S
C3608 C3607 1.383 . S
C3608 C3609 1.377 . S
C3609 H3593 0.930 . S
C3609 C3608 1.377 . S
C3609 C3610 1.379 . S
C3610 H3594 0.931 . S
C3610 C3604 1.383 . S
C3610 C3609 1.379 . S
H3611 C3605 0.959 . S
H3612 C3605 0.961 . S
H3613 C3605 0.968 . S
H3614 C3606 0.930 . S
H3615 C3607 0.929 . S
H3616 C3624 0.929 . S
H3617 C3626 0.930 . S
H3618 C3628 0.930 . S
H3619 C3631 0.929 . S
H3620 C3634 0.930 . S
H3621 C3636 0.960 . S
H3622 C3636 0.960 . S
H3623 C3636 0.960 . S
C3624 H3616 0.929 . S
C3624 C3625 1.377 . S
C3624 C3626 1.384 . S
C3625 C3624 1.377 . S
C3625 C3631 1.390 . S
C3626 H3617 0.930 . S
C3626 C3624 1.384 . S
C3626 C3627 1.372 . S
C3627 C3626 1.372 . S
C3627 C3628 1.400 . S
C3627 C3632 1.490 . S
C3628 H3618 0.930 . S
C3628 C3627 1.400 . S
C3628 C3631 1.386 . S
H3629 C3645 0.930 . S
H3630 C3646 0.931 . S
C3631 H3619 0.929 . S
C3631 C3625 1.390 . S
C3631 C3628 1.386 . S
C3632 C3627 1.490 . S
C3632 C3634 1.395 . S
C3632 C3635 1.403 . S
H3633 C3639 0.930 . S
C3634 H3620 0.930 . S
C3634 C3632 1.395 . S
C3634 C3637 1.403 . S
C3635 C3632 1.403 . S
C3635 C3636 1.524 . S
C3635 C3639 1.400 . S
C3636 H3621 0.960 . S
C3636 H3622 0.960 . S
C3636 H3623 0.960 . S
C3636 C3635 1.524 . S
C3637 C3634 1.403 . S
C3637 C3638 1.392 . S
C3637 C3641 1.495 . S
C3638 C3637 1.392 . S
C3638 C3639 1.385 . S
C3638 C3640 1.478 . S
C3639 H3633 0.930 . S
C3639 C3635 1.400 . S
C3639 C3638 1.385 . S
C3640 C3638 1.478 . S
C3640 C3642 1.381 . S
C3640 C3646 1.383 . S
C3641 C3637 1.495 . S
C3641 H3647 0.959 . S
C3641 H3648 0.961 . S
C3641 H3649 0.960 . S
C3642 C3640 1.381 . S
C3642 C3643 1.394 . S
C3642 H3650 0.930 . S
C3643 C3642 1.394 . S
C3643 C3644 1.383 . S
C3643 H3651 0.929 . S
C3644 C3643 1.383 . S
C3644 C3645 1.377 . S
C3645 H3629 0.930 . S
C3645 C3644 1.377 . S
C3645 C3646 1.379 . S
C3646 H3630 0.931 . S
C3646 C3640 1.383 . S
C3646 C3645 1.379 . S
H3647 C3641 0.959 . S
H3648 C3641 0.961 . S
H3649 C3641 0.960 . S
H3650 C3642 0.930 . S
H3651 C3643 0.929 . S
H3652 C3660 0.929 . S
H3653 C3662 0.930 . S
H3654 C3664 0.930 . S
H3655 C3667 0.929 . S
H3656 C3670 0.930 . S
H3657 C3672 0.960 . S
H3658 C3672 0.960 . S
H3659 C3672 0.960 . S
C3660 H3652 0.929 . S
C3660 C3661 1.377 . S
C3660 C3662 1.384 . S
C3661 C3660 1.377 . S
C3661 C3667 1.390 . S
C3662 H3653 0.930 . S
C3662 C3660 1.384 . S
C3662 C3663 1.372 . S
C3663 C3662 1.372 . S
C3663 C3664 1.400 . S
C3663 C3668 1.490 . S
C3664 H3654 0.930 . S
C3664 C3663 1.400 . S
C3664 C3667 1.386 . S
H3665 C3681 0.930 . S
H3666 C3682 0.931 . S
C3667 H3655 0.929 . S
C3667 C3661 1.390 . S
C3667 C3664 1.386 . S
C3668 C3663 1.490 . S
C3668 C3670 1.395 . S
C3668 C3671 1.403 . S
H3669 C3675 0.930 . S
C3670 H3656 0.930 . S
C3670 C3668 1.395 . S
C3670 C3673 1.403 . S
C3671 C3668 1.403 . S
C3671 C3672 1.524 . S
C3671 C3675 1.400 . S
C3672 H3657 0.960 . S
C3672 H3658 0.960 . S
C3672 H3659 0.960 . S
C3672 C3671 1.524 . S
C3673 C3670 1.403 . S
C3673 C3674 1.392 . S
C3673 C3677 1.495 . S
C3674 C3673 1.392 . S
C3674 C3675 1.385 . S
C3674 C3676 1.478 . S
C3675 H3669 0.930 . S
C3675 C3671 1.400 . S
C3675 C3674 1.385 . S
C3676 C3674 1.478 . S
C3676 C3678 1.381 . S
C3676 C3682 1.383 . S
C3677 C3673 1.495 . S
C3677 H3683 0.959 . S
C3677 H3684 0.961 . S
C3677 H3685 0.960 . S
C3678 C3676 1.381 . S
C3678 C3679 1.394 . S
C3678 H3686 0.930 . S
C3679 C3678 1.394 . S
C3679 C3680 1.383 . S
C3679 H3687 0.929 . S
C3680 C3679 1.383 . S
C3680 C3681 1.377 . S
C3681 H3665 0.930 . S
C3681 C3680 1.377 . S
C3681 C3682 1.379 . S
C3682 H3666 0.931 . S
C3682 C3676 1.383 . S
C3682 C3681 1.379 . S
H3683 C3677 0.959 . S
H3684 C3677 0.961 . S
H3685 C3677 0.960 . S
H3686 C3678 0.930 . S
H3687 C3679 0.929 . S
H3688 C3696 0.929 . S
H3689 C3698 0.930 . S
H3690 C3700 0.930 . S
H3691 C3703 0.929 . S
H3692 C3706 0.930 . S
H3693 C3708 0.960 . S
H3694 C3708 0.960 . S
H3695 C3708 0.960 . S
C3696 H3688 0.929 . S
C3696 C3697 1.377 . S
C3696 C3698 1.384 . S
C3697 C3696 1.377 . S
C3697 C3703 1.390 . S
C3698 H3689 0.930 . S
C3698 C3696 1.384 . S
C3698 C3699 1.372 . S
C3699 C3698 1.372 . S
C3699 C3700 1.400 . S
C3699 C3704 1.490 . S
C3700 H3690 0.930 . S
C3700 C3699 1.400 . S
C3700 C3703 1.386 . S
H3701 C3717 0.930 . S
H3702 C3718 0.931 . S
C3703 H3691 0.929 . S
C3703 C3697 1.390 . S
C3703 C3700 1.386 . S
C3704 C3699 1.490 . S
C3704 C3706 1.395 . S
C3704 C3707 1.403 1_455 S
H3705 C3711 0.930 . S
C3706 H3692 0.930 . S
C3706 C3704 1.395 . S
C3706 C3709 1.403 . S
C3707 C3704 1.403 1_655 S
C3707 C3708 1.524 . S
C3707 C3711 1.400 . S
C3708 H3693 0.960 . S
C3708 H3694 0.960 . S
C3708 H3695 0.960 . S
C3708 C3707 1.524 . S
C3709 C3706 1.403 . S
C3709 C3710 1.392 1_455 S
C3709 C3713 1.495 . S
C3710 C3709 1.392 1_655 S
C3710 C3711 1.385 . S
C3710 C3712 1.478 . S
C3711 H3705 0.930 . S
C3711 C3707 1.400 . S
C3711 C3710 1.385 . S
C3712 C3710 1.478 . S
C3712 C3714 1.381 . S
C3712 C3718 1.383 . S
C3713 C3709 1.495 . S
C3713 H3719 0.959 . S
C3713 H3720 0.961 . S
C3713 H3721 0.960 . S
C3714 C3712 1.381 . S
C3714 C3715 1.394 . S
C3714 H3722 0.930 . S
C3715 C3714 1.394 . S
C3715 C3716 1.383 . S
C3715 H3723 0.929 . S
C3716 C3715 1.383 . S
C3716 C3717 1.377 . S
C3717 H3701 0.930 . S
C3717 C3716 1.377 . S
C3717 C3718 1.379 . S
C3718 H3702 0.931 . S
C3718 C3712 1.383 . S
C3718 C3717 1.379 . S
H3719 C3713 0.959 . S
H3720 C3713 0.961 . S
H3721 C3713 0.960 . S
H3722 C3714 0.930 . S
H3723 C3715 0.929 . S
H3724 C3732 0.929 . S
H3725 C3734 0.930 . S
H3726 C3736 0.930 . S
H3727 C3739 0.929 . S
H3728 C3742 0.930 . S
H3729 C3744 0.960 . S
H3730 C3744 0.960 . S
H3731 C3744 0.960 . S
C3732 H3724 0.929 . S
C3732 C3733 1.377 . S
C3732 C3734 1.384 . S
C3733 C3732 1.377 . S
C3733 C3739 1.390 . S
C3734 H3725 0.930 . S
C3734 C3732 1.384 . S
C3734 C3735 1.372 . S
C3735 C3734 1.372 . S
C3735 C3736 1.400 . S
C3735 C3740 1.490 . S
C3736 H3726 0.930 . S
C3736 C3735 1.400 . S
C3736 C3739 1.386 . S
H3737 C3753 0.930 . S
H3738 C3754 0.931 . S
C3739 H3727 0.929 . S
C3739 C3733 1.390 . S
C3739 C3736 1.386 . S
C3740 C3735 1.490 . S
C3740 C3742 1.395 . S
C3740 C3743 1.403 1_556 S
H3741 C3747 0.930 . S
C3742 H3728 0.930 . S
C3742 C3740 1.395 . S
C3742 C3745 1.403 1_556 S
C3743 C3740 1.403 1_554 S
C3743 C3744 1.524 . S
C3743 C3747 1.400 . S
C3744 H3729 0.960 . S
C3744 H3730 0.960 . S
C3744 H3731 0.960 . S
C3744 C3743 1.524 . S
C3745 C3742 1.403 1_554 S
C3745 C3746 1.392 . S
C3745 C3749 1.496 . S
C3746 C3745 1.392 . S
C3746 C3747 1.385 . S
C3746 C3748 1.478 . S
C3747 H3741 0.930 . S
C3747 C3743 1.400 . S
C3747 C3746 1.385 . S
C3748 C3746 1.478 . S
C3748 C3750 1.381 . S
C3748 C3754 1.383 . S
C3749 C3745 1.496 . S
C3749 H3755 0.958 1_554 S
C3749 H3756 0.962 . S
C3749 H3757 0.959 . S
C3750 C3748 1.381 . S
C3750 C3751 1.394 . S
C3750 H3758 0.930 . S
C3751 C3750 1.394 . S
C3751 C3752 1.383 . S
C3751 H3759 0.929 . S
C3752 C3751 1.383 . S
C3752 C3753 1.377 . S
C3753 H3737 0.930 . S
C3753 C3752 1.377 . S
C3753 C3754 1.379 . S
C3754 H3738 0.931 . S
C3754 C3748 1.383 . S
C3754 C3753 1.379 . S
H3755 C3749 0.958 1_556 S
H3756 C3749 0.962 . S
H3757 C3749 0.959 . S
H3758 C3750 0.930 . S
H3759 C3751 0.929 . S
H3760 C3768 0.929 . S
H3761 C3770 0.930 . S
H3762 C3772 0.930 . S
H3763 C3775 0.929 . S
H3764 C3778 0.930 . S
H3765 C3780 0.960 . S
H3766 C3780 0.960 . S
H3767 C3780 0.960 . S
C3768 H3760 0.929 . S
C3768 C3769 1.377 . S
C3768 C3770 1.384 . S
C3769 C3768 1.377 . S
C3769 C3775 1.390 . S
C3770 H3761 0.930 . S
C3770 C3768 1.384 . S
C3770 C3771 1.372 . S
C3771 C3770 1.372 . S
C3771 C3772 1.400 . S
C3771 C3776 1.490 . S
C3772 H3762 0.930 . S
C3772 C3771 1.400 . S
C3772 C3775 1.386 . S
H3773 C3789 0.930 . S
H3774 C3790 0.931 . S
C3775 H3763 0.929 . S
C3775 C3769 1.390 . S
C3775 C3772 1.386 . S
C3776 C3771 1.490 . S
C3776 C3778 1.395 . S
C3776 C3779 1.403 . S
H3777 C3783 0.930 . S
C3778 H3764 0.930 . S
C3778 C3776 1.395 . S
C3778 C3781 1.403 . S
C3779 C3776 1.403 . S
C3779 C3780 1.524 . S
C3779 C3783 1.400 . S
C3780 H3765 0.960 . S
C3780 H3766 0.960 . S
C3780 H3767 0.960 . S
C3780 C3779 1.524 . S
C3781 C3778 1.403 . S
C3781 C3782 1.392 . S
C3781 C3785 1.495 . S
C3782 C3781 1.392 . S
C3782 C3783 1.385 . S
C3782 C3784 1.478 . S
C3783 H3777 0.930 . S
C3783 C3779 1.400 . S
C3783 C3782 1.385 . S
C3784 C3782 1.478 . S
C3784 C3786 1.381 . S
C3784 C3790 1.383 . S
C3785 C3781 1.495 . S
C3785 H3791 0.959 . S
C3785 H3792 0.961 . S
C3785 H3793 0.960 . S
C3786 C3784 1.381 . S
C3786 C3787 1.394 . S
C3786 H3794 0.930 . S
C3787 C3786 1.394 . S
C3787 C3788 1.383 . S
C3787 H3795 0.929 . S
C3788 C3787 1.383 . S
C3788 C3789 1.377 . S
C3789 H3773 0.930 . S
C3789 C3788 1.377 . S
C3789 C3790 1.379 . S
C3790 H3774 0.931 . S
C3790 C3784 1.383 . S
C3790 C3789 1.379 . S
H3791 C3785 0.959 . S
H3792 C3785 0.961 . S
H3793 C3785 0.960 . S
H3794 C3786 0.930 . S
H3795 C3787 0.929 . S
H3796 C3804 0.929 . S
H3797 C3806 0.930 . S
H3798 C3808 0.930 . S
H3799 C3811 0.929 . S
H3800 C3814 0.930 . S
H3801 C3816 0.960 . S
H3802 C3816 0.960 . S
H3803 C3816 0.960 . S
C3804 H3796 0.929 . S
C3804 C3805 1.377 . S
C3804 C3806 1.384 . S
C3805 C3804 1.377 . S
C3805 C3811 1.390 . S
C3806 H3797 0.930 . S
C3806 C3804 1.384 . S
C3806 C3807 1.372 . S
C3807 C3806 1.372 . S
C3807 C3808 1.400 . S
C3807 C3812 1.490 . S
C3808 H3798 0.930 . S
C3808 C3807 1.400 . S
C3808 C3811 1.386 . S
H3809 C3825 0.930 . S
H3810 C3826 0.931 . S
C3811 H3799 0.929 . S
C3811 C3805 1.390 . S
C3811 C3808 1.386 . S
C3812 C3807 1.490 . S
C3812 C3814 1.395 . S
C3812 C3815 1.403 . S
H3813 C3819 0.930 . S
C3814 H3800 0.930 . S
C3814 C3812 1.395 . S
C3814 C3817 1.403 . S
C3815 C3812 1.403 . S
C3815 C3816 1.524 . S
C3815 C3819 1.400 . S
C3816 H3801 0.960 . S
C3816 H3802 0.960 . S
C3816 H3803 0.960 . S
C3816 C3815 1.524 . S
C3817 C3814 1.403 . S
C3817 C3818 1.392 . S
C3817 C3821 1.495 . S
C3818 C3817 1.392 . S
C3818 C3819 1.385 . S
C3818 C3820 1.478 . S
C3819 H3813 0.930 . S
C3819 C3815 1.400 . S
C3819 C3818 1.385 . S
C3820 C3818 1.478 . S
C3820 C3822 1.381 . S
C3820 C3826 1.383 . S
C3821 C3817 1.495 . S
C3821 H3827 0.959 . S
C3821 H3828 0.961 . S
C3821 H3829 0.960 . S
C3822 C3820 1.381 . S
C3822 C3823 1.394 . S
C3822 H3830 0.930 . S
C3823 C3822 1.394 . S
C3823 C3824 1.383 . S
C3823 H3831 0.929 . S
C3824 C3823 1.383 . S
C3824 C3825 1.377 . S
C3825 H3809 0.930 . S
C3825 C3824 1.377 . S
C3825 C3826 1.379 . S
C3826 H3810 0.931 . S
C3826 C3820 1.383 . S
C3826 C3825 1.379 . S
H3827 C3821 0.959 . S
H3828 C3821 0.961 . S
H3829 C3821 0.960 . S
H3830 C3822 0.930 . S
H3831 C3823 0.929 . S
H3832 C3840 0.929 . S
H3833 C3842 0.930 . S
H3834 C3844 0.930 . S
H3835 C3847 0.929 . S
H3836 C3850 0.930 . S
H3837 C3852 0.960 . S
H3838 C3852 0.960 . S
H3839 C3852 0.960 . S
C3840 H3832 0.929 . S
C3840 C3841 1.377 . S
C3840 C3842 1.384 . S
C3841 C3840 1.377 . S
C3841 C3847 1.390 . S
C3842 H3833 0.930 . S
C3842 C3840 1.384 . S
C3842 C3843 1.372 . S
C3843 C3842 1.372 . S
C3843 C3844 1.400 . S
C3843 C3848 1.490 . S
C3844 H3834 0.930 . S
C3844 C3843 1.400 . S
C3844 C3847 1.386 . S
H3845 C3861 0.930 . S
H3846 C3862 0.931 . S
C3847 H3835 0.929 . S
C3847 C3841 1.390 . S
C3847 C3844 1.386 . S
C3848 C3843 1.490 . S
C3848 C3850 1.395 1_455 S
C3848 C3851 1.403 . S
H3849 C3855 0.921 1_455 S
C3850 H3836 0.930 . S
C3850 C3848 1.395 1_655 S
C3850 C3853 1.403 . S
C3851 C3848 1.403 . S
C3851 C3852 1.524 . S
C3851 C3855 1.360 1_455 S
C3852 H3837 0.960 . S
C3852 H3838 0.960 . S
C3852 H3839 0.960 . S
C3852 C3851 1.524 . S
C3853 C3850 1.403 . S
C3853 C3854 1.392 . S
C3853 C3857 1.495 . S
C3854 C3853 1.392 . S
C3854 C3855 1.433 . S
C3854 C3856 1.478 . S
C3855 H3849 0.921 1_655 S
C3855 C3851 1.360 1_655 S
C3855 C3854 1.433 . S
C3856 C3854 1.478 . S
C3856 C3858 1.381 . S
C3856 C3862 1.383 . S
C3857 C3853 1.495 . S
C3857 H3863 0.959 . S
C3857 H3864 0.961 . S
C3857 H3865 0.960 . S
C3858 C3856 1.381 . S
C3858 C3859 1.394 . S
C3858 H3866 0.930 . S
C3859 C3858 1.394 . S
C3859 C3860 1.383 . S
C3859 H3867 0.929 . S
C3860 C3859 1.383 . S
C3860 C3861 1.377 . S
C3861 H3845 0.930 . S
C3861 C3860 1.377 . S
C3861 C3862 1.379 . S
C3862 H3846 0.931 . S
C3862 C3856 1.383 . S
C3862 C3861 1.379 . S
H3863 C3857 0.959 . S
H3864 C3857 0.961 . S
H3865 C3857 0.960 . S
H3866 C3858 0.930 . S
H3867 C3859 0.929 . S
H3868 C3876 0.929 . S
H3869 C3878 0.930 1_554 S
H3870 C3880 0.930 . S
H3871 C3883 0.929 . S
H3872 C3886 0.930 . S
H3873 C3888 0.960 . S
H3874 C3888 0.960 . S
H3875 C3888 0.960 . S
C3876 H3868 0.929 . S
C3876 C3877 1.377 . S
C3876 C3878 1.384 . S
C3877 C3876 1.377 . S
C3877 C3883 1.390 . S
C3878 H3869 0.930 1_556 S
C3878 C3876 1.384 . S
C3878 C3879 1.372 . S
C3879 C3878 1.372 . S
C3879 C3880 1.400 . S
C3879 C3884 1.490 1_556 S
C3880 H3870 0.930 . S
C3880 C3879 1.400 . S
C3880 C3883 1.386 . S
H3881 C3897 0.930 . S
H3882 C3898 0.931 . S
C3883 H3871 0.929 . S
C3883 C3877 1.390 . S
C3883 C3880 1.386 . S
C3884 C3879 1.490 1_554 S
C3884 C3886 1.395 . S
C3884 C3887 1.403 . S
H3885 C3891 0.930 . S
C3886 H3872 0.930 . S
C3886 C3884 1.395 . S
C3886 C3889 1.403 . S
C3887 C3884 1.403 . S
C3887 C3888 1.524 . S
C3887 C3891 1.400 . S
C3888 H3873 0.960 . S
C3888 H3874 0.960 . S
C3888 H3875 0.960 . S
C3888 C3887 1.524 . S
C3889 C3886 1.403 . S
C3889 C3890 1.392 . S
C3889 C3893 1.495 . S
C3890 C3889 1.392 . S
C3890 C3891 1.385 . S
C3890 C3892 1.478 . S
C3891 H3885 0.930 . S
C3891 C3887 1.400 . S
C3891 C3890 1.385 . S
C3892 C3890 1.478 . S
C3892 C3894 1.381 . S
C3892 C3898 1.383 . S
C3893 C3889 1.495 . S
C3893 H3899 0.959 . S
C3893 H3900 0.961 . S
C3893 H3901 0.960 . S
C3894 C3892 1.381 . S
C3894 C3895 1.394 . S
C3894 H3902 0.930 . S
C3895 C3894 1.394 . S
C3895 C3896 1.383 . S
C3895 H3903 0.929 . S
C3896 C3895 1.383 . S
C3896 C3897 1.377 . S
C3897 H3881 0.930 . S
C3897 C3896 1.377 . S
C3897 C3898 1.379 . S
C3898 H3882 0.931 . S
C3898 C3892 1.383 . S
C3898 C3897 1.379 . S
H3899 C3893 0.959 . S
H3900 C3893 0.961 . S
H3901 C3893 0.960 . S
H3902 C3894 0.930 . S
H3903 C3895 0.929 . S
H3904 C3912 0.929 . S
H3905 C3914 0.930 . S
H3906 C3916 0.930 . S
H3907 C3919 0.929 . S
H3908 C3922 0.930 . S
H3909 C3924 0.960 . S
H3910 C3924 0.960 . S
H3911 C3924 0.960 . S
C3912 H3904 0.929 . S
C3912 C3913 1.377 . S
C3912 C3914 1.384 . S
C3913 C3912 1.377 . S
C3913 C3919 1.390 . S
C3914 H3905 0.930 . S
C3914 C3912 1.384 . S
C3914 C3915 1.372 . S
C3915 C3914 1.372 . S
C3915 C3916 1.400 . S
C3915 C3920 1.490 . S
C3916 H3906 0.930 . S
C3916 C3915 1.400 . S
C3916 C3919 1.386 . S
H3917 C3933 0.930 . S
H3918 C3934 0.931 . S
C3919 H3907 0.929 . S
C3919 C3913 1.390 . S
C3919 C3916 1.386 . S
C3920 C3915 1.490 . S
C3920 C3922 1.395 . S
C3920 C3923 1.403 . S
H3921 C3927 0.930 . S
C3922 H3908 0.930 . S
C3922 C3920 1.395 . S
C3922 C3925 1.403 . S
C3923 C3920 1.403 . S
C3923 C3924 1.524 . S
C3923 C3927 1.400 . S
C3924 H3909 0.960 . S
C3924 H3910 0.960 . S
C3924 H3911 0.960 . S
C3924 C3923 1.524 . S
C3925 C3922 1.403 . S
C3925 C3926 1.392 . S
C3925 C3929 1.495 . S
C3926 C3925 1.392 . S
C3926 C3927 1.385 . S
C3926 C3928 1.478 . S
C3927 H3921 0.930 . S
C3927 C3923 1.400 . S
C3927 C3926 1.385 . S
C3928 C3926 1.478 . S
C3928 C3930 1.381 . S
C3928 C3934 1.383 . S
C3929 C3925 1.495 . S
C3929 H3935 0.959 . S
C3929 H3936 0.961 . S
C3929 H3937 0.960 . S
C3930 C3928 1.381 . S
C3930 C3931 1.394 . S
C3930 H3938 0.930 . S
C3931 C3930 1.394 . S
C3931 C3932 1.383 . S
C3931 H3939 0.929 . S
C3932 C3931 1.383 . S
C3932 C3933 1.377 . S
C3933 H3917 0.930 . S
C3933 C3932 1.377 . S
C3933 C3934 1.379 . S
C3934 H3918 0.931 . S
C3934 C3928 1.383 . S
C3934 C3933 1.379 . S
H3935 C3929 0.959 . S
H3936 C3929 0.961 . S
H3937 C3929 0.960 . S
H3938 C3930 0.930 . S
H3939 C3931 0.929 . S
H3940 C3948 0.929 . S
H3941 C3950 0.930 . S
H3942 C3952 0.930 . S
H3943 C3955 0.929 . S
H3944 C3958 0.930 . S
H3945 C3960 0.960 . S
H3946 C3960 0.960 . S
H3947 C3960 0.960 . S
C3948 H3940 0.929 . S
C3948 C3949 1.377 . S
C3948 C3950 1.384 . S
C3949 C3948 1.377 . S
C3949 C3955 1.390 . S
C3950 H3941 0.930 . S
C3950 C3948 1.384 . S
C3950 C3951 1.372 . S
C3951 C3950 1.372 . S
C3951 C3952 1.400 . S
C3951 C3956 1.478 1_556 S
C3952 H3942 0.930 . S
C3952 C3951 1.400 . S
C3952 C3955 1.386 . S
H3953 C3969 0.930 . S
H3954 C3970 0.931 . S
C3955 H3943 0.929 . S
C3955 C3949 1.390 . S
C3955 C3952 1.386 . S
C3956 C3951 1.478 1_554 S
C3956 C3958 1.391 1_554 S
C3956 C3959 1.418 . S
H3957 C3963 0.930 . S
C3958 H3944 0.930 . S
C3958 C3956 1.391 1_556 S
C3958 C3961 1.403 1_556 S
C3959 C3956 1.418 . S
C3959 C3960 1.524 . S
C3959 C3963 1.400 . S
C3960 H3945 0.960 . S
C3960 H3946 0.960 . S
C3960 H3947 0.960 . S
C3960 C3959 1.524 . S
C3961 C3958 1.403 1_554 S
C3961 C3962 1.392 . S
C3961 C3965 1.495 . S
C3962 C3961 1.392 . S
C3962 C3963 1.385 . S
C3962 C3964 1.478 . S
C3963 H3957 0.930 . S
C3963 C3959 1.400 . S
C3963 C3962 1.385 . S
C3964 C3962 1.478 . S
C3964 C3966 1.381 . S
C3964 C3970 1.383 . S
C3965 C3961 1.495 . S
C3965 H3971 0.959 1_554 S
C3965 H3972 0.961 . S
C3965 H3973 0.960 . S
C3966 C3964 1.381 . S
C3966 C3967 1.394 . S
C3966 H3974 0.930 . S
C3967 C3966 1.394 . S
C3967 C3968 1.383 . S
C3967 H3975 0.929 . S
C3968 C3967 1.383 . S
C3968 C3969 1.377 . S
C3969 H3953 0.930 . S
C3969 C3968 1.377 . S
C3969 C3970 1.379 . S
C3970 H3954 0.931 . S
C3970 C3964 1.383 . S
C3970 C3969 1.379 . S
H3971 C3965 0.959 1_556 S
H3972 C3965 0.961 . S
H3973 C3965 0.960 . S
H3974 C3966 0.930 . S
H3975 C3967 0.929 . S
H3976 C3984 0.929 . S
H3977 C3986 0.930 . S
H3978 C3988 0.930 . S
H3979 C3991 0.929 . S
H3980 C3994 0.930 . S
H3981 C3996 0.960 . S
H3982 C3996 0.960 . S
H3983 C3996 0.960 . S
C3984 H3976 0.929 . S
C3984 C3985 1.377 . S
C3984 C3986 1.384 . S
C3985 C3984 1.377 . S
C3985 C3991 1.390 . S
C3986 H3977 0.930 . S
C3986 C3984 1.384 . S
C3986 C3987 1.372 . S
C3987 C3986 1.372 . S
C3987 C3988 1.400 . S
C3987 C3992 1.490 . S
C3988 H3978 0.930 . S
C3988 C3987 1.400 . S
C3988 C3991 1.386 . S
H3989 C4005 0.930 . S
H3990 C4006 0.931 . S
C3991 H3979 0.929 . S
C3991 C3985 1.390 . S
C3991 C3988 1.386 . S
C3992 C3987 1.490 . S
C3992 C3994 1.395 . S
C3992 C3995 1.403 . S
H3993 C3999 0.930 . S
C3994 H3980 0.930 . S
C3994 C3992 1.395 . S
C3994 C3997 1.403 . S
C3995 C3992 1.403 . S
C3995 C3996 1.524 . S
C3995 C3999 1.400 . S
C3996 H3981 0.960 . S
C3996 H3982 0.960 . S
C3996 H3983 0.960 . S
C3996 C3995 1.524 . S
C3997 C3994 1.403 . S
C3997 C3998 1.392 . S
C3997 C4001 1.495 . S
C3998 C3997 1.392 . S
C3998 C3999 1.385 . S
C3998 C4000 1.478 . S
C3999 H3993 0.930 . S
C3999 C3995 1.400 . S
C3999 C3998 1.385 . S
C4000 C3998 1.478 . S
C4000 C4002 1.381 . S
C4000 C4006 1.383 . S
C4001 C3997 1.495 . S
C4001 H4007 0.959 . S
C4001 H4008 0.961 . S
C4001 H4009 0.960 . S
C4002 C4000 1.381 . S
C4002 C4003 1.394 . S
C4002 H4010 0.930 . S
C4003 C4002 1.394 . S
C4003 C4004 1.383 . S
C4003 H4011 0.929 . S
C4004 C4003 1.383 . S
C4004 C4005 1.377 . S
C4005 H3989 0.930 . S
C4005 C4004 1.377 . S
C4005 C4006 1.379 . S
C4006 H3990 0.931 . S
C4006 C4000 1.383 . S
C4006 C4005 1.379 . S
H4007 C4001 0.959 . S
H4008 C4001 0.961 . S
H4009 C4001 0.960 . S
H4010 C4002 0.930 . S
H4011 C4003 0.929 . S
H4012 C4020 0.929 . S
H4013 C4022 0.930 . S
H4014 C4024 0.930 . S
H4015 C4027 0.929 . S
H4016 C4030 0.930 . S
H4017 C4032 0.960 . S
H4018 C4032 0.960 . S
H4019 C4032 0.960 . S
C4020 H4012 0.929 . S
C4020 C4021 1.377 . S
C4020 C4022 1.384 . S
C4021 C4020 1.377 . S
C4021 C4027 1.390 . S
C4022 H4013 0.930 . S
C4022 C4020 1.384 . S
C4022 C4023 1.372 . S
C4023 C4022 1.372 . S
C4023 C4024 1.400 . S
C4023 C4028 1.490 . S
C4024 H4014 0.930 . S
C4024 C4023 1.400 . S
C4024 C4027 1.386 . S
H4025 C4041 0.930 . S
H4026 C4042 0.931 . S
C4027 H4015 0.929 . S
C4027 C4021 1.390 . S
C4027 C4024 1.386 . S
C4028 C4023 1.490 . S
C4028 C4030 1.395 . S
C4028 C4031 1.403 . S
H4029 C4035 0.930 . S
C4030 H4016 0.930 . S
C4030 C4028 1.395 . S
C4030 C4033 1.403 . S
C4031 C4028 1.403 . S
C4031 C4032 1.524 . S
C4031 C4035 1.400 . S
C4032 H4017 0.960 . S
C4032 H4018 0.960 . S
C4032 H4019 0.960 . S
C4032 C4031 1.524 . S
C4033 C4030 1.403 . S
C4033 C4034 1.392 . S
C4033 C4037 1.495 . S
C4034 C4033 1.392 . S
C4034 C4035 1.385 . S
C4034 C4036 1.478 . S
C4035 H4029 0.930 . S
C4035 C4031 1.400 . S
C4035 C4034 1.385 . S
C4036 C4034 1.478 . S
C4036 C4038 1.381 . S
C4036 C4042 1.383 . S
C4037 C4033 1.495 . S
C4037 H4043 0.959 . S
C4037 H4044 0.961 . S
C4037 H4045 0.960 . S
C4038 C4036 1.381 . S
C4038 C4039 1.394 . S
C4038 H4046 0.930 . S
C4039 C4038 1.394 . S
C4039 C4040 1.383 . S
C4039 H4047 0.929 . S
C4040 C4039 1.383 . S
C4040 C4041 1.377 . S
C4041 H4025 0.930 . S
C4041 C4040 1.377 . S
C4041 C4042 1.379 . S
C4042 H4026 0.931 . S
C4042 C4036 1.383 . S
C4042 C4041 1.379 . S
H4043 C4037 0.959 . S
H4044 C4037 0.961 . S
H4045 C4037 0.960 . S
H4046 C4038 0.930 . S
H4047 C4039 0.929 . S
H4048 C4056 0.929 . S
H4049 C4058 0.930 . S
H4050 C4060 0.930 . S
H4051 C4063 0.929 . S
H4052 C4066 0.930 . S
H4053 C4068 0.960 . S
H4054 C4068 0.960 . S
H4055 C4068 0.960 . S
C4056 H4048 0.929 . S
C4056 C4057 1.377 . S
C4056 C4058 1.384 . S
C4057 C4056 1.377 . S
C4057 C4063 1.390 . S
C4058 H4049 0.930 . S
C4058 C4056 1.384 . S
C4058 C4059 1.372 . S
C4059 C4058 1.372 . S
C4059 C4060 1.400 . S
C4059 C4064 1.490 . S
C4060 H4050 0.930 . S
C4060 C4059 1.400 . S
C4060 C4063 1.386 . S
H4061 C4077 0.930 . S
H4062 C4078 0.931 . S
C4063 H4051 0.929 . S
C4063 C4057 1.390 . S
C4063 C4060 1.386 . S
C4064 C4059 1.490 . S
C4064 C4066 1.395 . S
C4064 C4067 1.403 . S
H4065 C4071 0.930 . S
C4066 H4052 0.930 . S
C4066 C4064 1.395 . S
C4066 C4069 1.403 . S
C4067 C4064 1.403 . S
C4067 C4068 1.524 . S
C4067 C4071 1.400 . S
C4068 H4053 0.960 . S
C4068 H4054 0.960 . S
C4068 H4055 0.960 . S
C4068 C4067 1.524 . S
C4069 C4066 1.403 . S
C4069 C4070 1.392 . S
C4069 C4073 1.495 . S
C4070 C4069 1.392 . S
C4070 C4071 1.385 . S
C4070 C4072 1.478 . S
C4071 H4065 0.930 . S
C4071 C4067 1.400 . S
C4071 C4070 1.385 . S
C4072 C4070 1.478 . S
C4072 C4074 1.381 . S
C4072 C4078 1.383 . S
C4073 C4069 1.495 . S
C4073 H4079 0.959 . S
C4073 H4080 0.961 . S
C4073 H4081 0.960 . S
C4074 C4072 1.381 . S
C4074 C4075 1.394 . S
C4074 H4082 0.930 . S
C4075 C4074 1.394 . S
C4075 C4076 1.383 . S
C4075 H4083 0.929 . S
C4076 C4075 1.383 . S
C4076 C4077 1.377 . S
C4077 H4061 0.930 . S
C4077 C4076 1.377 . S
C4077 C4078 1.379 . S
C4078 H4062 0.931 . S
C4078 C4072 1.383 . S
C4078 C4077 1.379 . S
H4079 C4073 0.959 . S
H4080 C4073 0.961 . S
H4081 C4073 0.960 . S
H4082 C4074 0.930 . S
H4083 C4075 0.929 . S
H4084 C4092 0.929 . S
H4085 C4094 0.930 . S
H4086 C4096 0.930 . S
H4087 C4099 0.929 . S
H4088 C4102 0.930 . S
H4089 C4104 0.960 . S
H4090 C4104 0.960 . S
H4091 C4104 0.960 . S
C4092 H4084 0.929 . S
C4092 C4093 1.377 . S
C4092 C4094 1.384 . S
C4093 C4092 1.377 . S
C4093 C4099 1.390 . S
C4094 H4085 0.930 . S
C4094 C4092 1.384 . S
C4094 C4095 1.372 . S
C4095 C4094 1.372 . S
C4095 C4096 1.400 . S
C4095 C4100 1.488 . S
C4096 H4086 0.930 . S
C4096 C4095 1.400 . S
C4096 C4099 1.386 . S
H4097 C4113 0.930 . S
H4098 C4114 0.931 . S
C4099 H4087 0.929 . S
C4099 C4093 1.390 . S
C4099 C4096 1.386 . S
C4100 C4095 1.488 . S
C4100 C4102 1.394 . S
C4100 C4103 1.405 1_556 S
H4101 C4107 0.930 . S
C4102 H4088 0.930 . S
C4102 C4100 1.394 . S
C4102 C4105 1.403 1_556 S
C4103 C4100 1.405 1_554 S
C4103 C4104 1.524 . S
C4103 C4107 1.400 . S
C4104 H4089 0.960 . S
C4104 H4090 0.960 . S
C4104 H4091 0.960 . S
C4104 C4103 1.524 . S
C4105 C4102 1.403 1_554 S
C4105 C4106 1.392 . S
C4105 C4109 1.495 . S
C4106 C4105 1.392 . S
C4106 C4107 1.385 . S
C4106 C4108 1.478 . S
C4107 H4101 0.930 . S
C4107 C4103 1.400 . S
C4107 C4106 1.385 . S
C4108 C4106 1.478 . S
C4108 C4110 1.381 . S
C4108 C4114 1.383 . S
C4109 C4105 1.495 . S
C4109 H4115 0.959 1_554 S
C4109 H4116 0.961 . S
C4109 H4117 0.960 . S
C4110 C4108 1.381 . S
C4110 C4111 1.394 . S
C4110 H4118 0.930 . S
C4111 C4110 1.394 . S
C4111 C4112 1.383 . S
C4111 H4119 0.929 . S
C4112 C4111 1.383 . S
C4112 C4113 1.377 . S
C4113 H4097 0.930 . S
C4113 C4112 1.377 . S
C4113 C4114 1.379 . S
C4114 H4098 0.931 . S
C4114 C4108 1.383 . S
C4114 C4113 1.379 . S
H4115 C4109 0.959 1_556 S
H4116 C4109 0.961 . S
H4117 C4109 0.960 . S
H4118 C4110 0.930 . S
H4119 C4111 0.929 . S
H4120 C4128 0.929 . S
H4121 C4130 0.930 . S
H4122 C4132 0.930 . S
H4123 C4135 0.929 . S
H4124 C4138 0.930 . S
H4125 C4140 0.960 . S
H4126 C4140 0.960 . S
H4127 C4140 0.960 . S
C4128 H4120 0.929 . S
C4128 C4129 1.377 . S
C4128 C4130 1.384 . S
C4129 C4128 1.377 . S
C4129 C4135 1.390 . S
C4130 H4121 0.930 . S
C4130 C4128 1.384 . S
C4130 C4131 1.372 . S
C4131 C4130 1.372 . S
C4131 C4132 1.400 . S
C4131 C4136 1.490 . S
C4132 H4122 0.930 . S
C4132 C4131 1.400 . S
C4132 C4135 1.386 . S
H4133 C4149 0.930 . S
H4134 C4150 0.931 . S
C4135 H4123 0.929 . S
C4135 C4129 1.390 . S
C4135 C4132 1.386 . S
C4136 C4131 1.490 . S
C4136 C4138 1.395 . S
C4136 C4139 1.403 . S
H4137 C4143 0.930 . S
C4138 H4124 0.930 . S
C4138 C4136 1.395 . S
C4138 C4141 1.403 . S
C4139 C4136 1.403 . S
C4139 C4140 1.524 . S
C4139 C4143 1.400 . S
C4140 H4125 0.960 . S
C4140 H4126 0.960 . S
C4140 H4127 0.960 . S
C4140 C4139 1.524 . S
C4141 C4138 1.403 . S
C4141 C4142 1.392 . S
C4141 C4145 1.495 . S
C4142 C4141 1.392 . S
C4142 C4143 1.385 . S
C4142 C4144 1.478 . S
C4143 H4137 0.930 . S
C4143 C4139 1.400 . S
C4143 C4142 1.385 . S
C4144 C4142 1.478 . S
C4144 C4146 1.381 . S
C4144 C4150 1.383 . S
C4145 C4141 1.495 . S
C4145 H4151 0.959 . S
C4145 H4152 0.961 . S
C4145 H4153 0.960 . S
C4146 C4144 1.381 . S
C4146 C4147 1.394 . S
C4146 H4154 0.930 . S
C4147 C4146 1.394 . S
C4147 C4148 1.383 . S
C4147 H4155 0.929 . S
C4148 C4147 1.383 . S
C4148 C4149 1.377 . S
C4149 H4133 0.930 . S
C4149 C4148 1.377 . S
C4149 C4150 1.379 . S
C4150 H4134 0.931 . S
C4150 C4144 1.383 . S
C4150 C4149 1.379 . S
H4151 C4145 0.959 . S
H4152 C4145 0.961 . S
H4153 C4145 0.960 . S
H4154 C4146 0.930 . S
H4155 C4147 0.929 . S
H4156 C4164 0.929 . S
H4157 C4166 0.930 . S
H4158 C4168 0.930 . S
H4159 C4171 0.929 . S
H4160 C4174 0.930 . S
H4161 C4176 0.960 . S
H4162 C4176 0.960 . S
H4163 C4176 0.960 . S
C4164 H4156 0.929 . S
C4164 C4165 1.377 . S
C4164 C4166 1.384 . S
C4165 C4164 1.377 . S
C4165 C4171 1.390 . S
C4166 H4157 0.930 . S
C4166 C4164 1.384 . S
C4166 C4167 1.372 . S
C4167 C4166 1.372 . S
C4167 C4168 1.400 . S
C4167 C4172 1.490 . S
C4168 H4158 0.930 . S
C4168 C4167 1.400 . S
C4168 C4171 1.386 . S
H4169 C4185 0.930 . S
H4170 C4186 0.931 . S
C4171 H4159 0.929 . S
C4171 C4165 1.390 . S
C4171 C4168 1.386 . S
C4172 C4167 1.490 . S
C4172 C4174 1.395 . S
C4172 C4175 1.403 . S
H4173 C4179 0.930 . S
C4174 H4160 0.930 . S
C4174 C4172 1.395 . S
C4174 C4177 1.403 . S
C4175 C4172 1.403 . S
C4175 C4176 1.524 . S
C4175 C4179 1.400 . S
C4176 H4161 0.960 . S
C4176 H4162 0.960 . S
C4176 H4163 0.960 . S
C4176 C4175 1.524 . S
C4177 C4174 1.403 . S
C4177 C4178 1.392 . S
C4177 C4181 1.495 . S
C4178 C4177 1.392 . S
C4178 C4179 1.385 . S
C4178 C4180 1.478 . S
C4179 H4173 0.930 . S
C4179 C4175 1.400 . S
C4179 C4178 1.385 . S
C4180 C4178 1.478 . S
C4180 C4182 1.381 . S
C4180 C4186 1.383 . S
C4181 C4177 1.495 . S
C4181 H4187 0.959 . S
C4181 H4188 0.961 . S
C4181 H4189 0.960 . S
C4182 C4180 1.381 . S
C4182 C4183 1.394 . S
C4182 H4190 0.930 . S
C4183 C4182 1.394 . S
C4183 C4184 1.383 . S
C4183 H4191 0.929 . S
C4184 C4183 1.383 . S
C4184 C4185 1.377 . S
C4185 H4169 0.930 . S
C4185 C4184 1.377 . S
C4185 C4186 1.379 . S
C4186 H4170 0.931 . S
C4186 C4180 1.383 . S
C4186 C4185 1.379 . S
H4187 C4181 0.959 . S
H4188 C4181 0.961 . S
H4189 C4181 0.960 . S
H4190 C4182 0.930 . S
H4191 C4183 0.929 . S
H4192 C4200 0.929 . S
H4193 C4202 0.930 . S
H4194 C4204 0.930 . S
H4195 C4207 0.929 . S
H4196 C4210 0.930 . S
H4197 C4212 0.960 1_545 S
H4198 C4212 0.960 . S
H4199 C4212 0.957 1_545 S
C4200 H4192 0.929 . S
C4200 C4201 1.377 . S
C4200 C4202 1.384 . S
C4201 C4200 1.377 . S
C4201 C4207 1.390 . S
C4202 H4193 0.930 . S
C4202 C4200 1.384 . S
C4202 C4203 1.372 . S
C4203 C4202 1.372 . S
C4203 C4204 1.400 . S
C4203 C4208 1.490 . S
C4204 H4194 0.930 . S
C4204 C4203 1.400 . S
C4204 C4207 1.386 . S
H4205 C4221 0.930 . S
H4206 C4222 0.931 . S
C4207 H4195 0.929 . S
C4207 C4201 1.390 . S
C4207 C4204 1.386 . S
C4208 C4203 1.490 . S
C4208 C4210 1.395 . S
C4208 C4211 1.403 . S
H4209 C4215 0.930 . S
C4210 H4196 0.930 . S
C4210 C4208 1.395 . S
C4210 C4213 1.421 . S
C4211 C4208 1.403 . S
C4211 C4212 1.524 . S
C4211 C4215 1.400 1_565 S
C4212 H4197 0.960 1_565 S
C4212 H4198 0.960 . S
C4212 H4199 0.957 1_565 S
C4212 C4211 1.524 . S
C4213 C4210 1.421 . S
C4213 C4214 1.375 1_565 S
C4213 C4217 1.495 . S
C4214 C4213 1.375 1_545 S
C4214 C4215 1.385 . S
C4214 C4216 1.478 . S
C4215 H4209 0.930 . S
C4215 C4211 1.400 1_545 S
C4215 C4214 1.385 . S
C4216 C4214 1.478 . S
C4216 C4218 1.381 . S
C4216 C4222 1.383 . S
C4217 C4213 1.495 . S
C4217 H4223 0.967 . S
C4217 H4224 0.951 1_565 S
C4217 H4225 0.962 . S
C4218 C4216 1.381 . S
C4218 C4219 1.394 . S
C4218 H4226 0.930 . S
C4219 C4218 1.394 . S
C4219 C4220 1.383 . S
C4219 H4227 0.929 . S
C4220 C4219 1.383 . S
C4220 C4221 1.377 . S
C4221 H4205 0.930 . S
C4221 C4220 1.377 . S
C4221 C4222 1.379 . S
C4222 H4206 0.931 . S
C4222 C4216 1.383 . S
C4222 C4221 1.379 . S
H4223 C4217 0.967 . S
H4224 C4217 0.951 1_545 S
H4225 C4217 0.962 . S
H4226 C4218 0.930 . S
H4227 C4219 0.929 . S
H4228 C4236 0.929 . S
H4229 C4238 0.930 . S
H4230 C4240 0.930 . S
H4231 C4243 0.929 . S
H4232 C4246 0.930 . S
H4233 C4248 0.960 . S
H4234 C4248 0.960 . S
H4235 C4248 0.960 . S
C4236 H4228 0.929 . S
C4236 C4237 1.377 . S
C4236 C4238 1.384 . S
C4237 C4236 1.377 . S
C4237 C4243 1.390 . S
C4238 H4229 0.930 . S
C4238 C4236 1.384 . S
C4238 C4239 1.372 . S
C4239 C4238 1.372 . S
C4239 C4240 1.400 . S
C4239 C4244 1.490 . S
C4240 H4230 0.930 . S
C4240 C4239 1.400 . S
C4240 C4243 1.386 . S
H4241 C4257 0.930 . S
H4242 C4258 0.931 . S
C4243 H4231 0.929 . S
C4243 C4237 1.390 . S
C4243 C4240 1.386 . S
C4244 C4239 1.490 . S
C4244 C4246 1.395 . S
C4244 C4247 1.403 . S
H4245 C4251 0.930 . S
C4246 H4232 0.930 . S
C4246 C4244 1.395 . S
C4246 C4249 1.403 . S
C4247 C4244 1.403 . S
C4247 C4248 1.524 . S
C4247 C4251 1.400 . S
C4248 H4233 0.960 . S
C4248 H4234 0.960 . S
C4248 H4235 0.960 . S
C4248 C4247 1.524 . S
C4249 C4246 1.403 . S
C4249 C4250 1.392 . S
C4249 C4253 1.495 . S
C4250 C4249 1.392 . S
C4250 C4251 1.385 . S
C4250 C4252 1.478 . S
C4251 H4245 0.930 . S
C4251 C4247 1.400 . S
C4251 C4250 1.385 . S
C4252 C4250 1.478 . S
C4252 C4254 1.381 . S
C4252 C4258 1.383 . S
C4253 C4249 1.495 . S
C4253 H4259 0.959 . S
C4253 H4260 0.961 . S
C4253 H4261 0.960 . S
C4254 C4252 1.381 . S
C4254 C4255 1.394 . S
C4254 H4262 0.930 . S
C4255 C4254 1.394 . S
C4255 C4256 1.383 . S
C4255 H4263 0.929 . S
C4256 C4255 1.383 . S
C4256 C4257 1.377 . S
C4257 H4241 0.930 . S
C4257 C4256 1.377 . S
C4257 C4258 1.379 . S
C4258 H4242 0.931 . S
C4258 C4252 1.383 . S
C4258 C4257 1.379 . S
H4259 C4253 0.959 . S
H4260 C4253 0.961 . S
H4261 C4253 0.960 . S
H4262 C4254 0.930 . S
H4263 C4255 0.929 . S
H4264 C4272 0.929 . S
H4265 C4274 0.930 . S
H4266 C4276 0.930 . S
H4267 C4279 0.929 . S
H4268 C4282 0.930 . S
H4269 C4284 0.960 . S
H4270 C4284 0.960 . S
H4271 C4284 0.960 . S
C4272 H4264 0.929 . S
C4272 C4273 1.377 . S
C4272 C4274 1.384 . S
C4273 C4272 1.377 . S
C4273 C4279 1.390 . S
C4274 H4265 0.930 . S
C4274 C4272 1.384 . S
C4274 C4275 1.372 . S
C4275 C4274 1.372 . S
C4275 C4276 1.400 . S
C4275 C4280 1.490 . S
C4276 H4266 0.930 . S
C4276 C4275 1.400 . S
C4276 C4279 1.386 . S
H4277 C4293 0.930 . S
H4278 C4294 0.931 . S
C4279 H4267 0.929 . S
C4279 C4273 1.390 . S
C4279 C4276 1.386 . S
C4280 C4275 1.490 . S
C4280 C4282 1.395 1_545 S
C4280 C4283 1.403 . S
H4281 C4287 0.926 1_545 S
C4282 H4268 0.930 . S
C4282 C4280 1.395 1_565 S
C4282 C4285 1.403 . S
C4283 C4280 1.403 . S
C4283 C4284 1.524 . S
C4283 C4287 1.407 1_545 S
C4284 H4269 0.960 . S
C4284 H4270 0.960 . S
C4284 H4271 0.960 . S
C4284 C4283 1.524 . S
C4285 C4282 1.403 . S
C4285 C4286 1.392 . S
C4285 C4289 1.495 . S
C4286 C4285 1.392 . S
C4286 C4287 1.377 . S
C4286 C4288 1.478 . S
C4287 H4281 0.926 1_565 S
C4287 C4283 1.407 1_565 S
C4287 C4286 1.377 . S
C4288 C4286 1.478 . S
C4288 C4290 1.381 . S
C4288 C4294 1.383 . S
C4289 C4285 1.495 . S
C4289 H4295 0.959 . S
C4289 H4296 0.961 . S
C4289 H4297 0.960 . S
C4290 C4288 1.381 . S
C4290 C4291 1.394 . S
C4290 H4298 0.930 . S
C4291 C4290 1.394 . S
C4291 C4292 1.383 . S
C4291 H4299 0.929 . S
C4292 C4291 1.383 . S
C4292 C4293 1.377 . S
C4293 H4277 0.930 . S
C4293 C4292 1.377 . S
C4293 C4294 1.379 . S
C4294 H4278 0.931 . S
C4294 C4288 1.383 . S
C4294 C4293 1.379 . S
H4295 C4289 0.959 . S
H4296 C4289 0.961 . S
H4297 C4289 0.960 . S
H4298 C4290 0.930 . S
H4299 C4291 0.929 . S
H4300 C4308 0.929 . S
H4301 C4310 0.930 . S
H4302 C4312 0.930 . S
H4303 C4315 0.929 . S
H4304 C4318 0.930 . S
H4305 C4320 0.960 1_556 S
H4306 C4320 0.960 . S
H4307 C4320 0.960 . S
C4308 H4300 0.929 . S
C4308 C4309 1.377 . S
C4308 C4310 1.384 . S
C4309 C4308 1.377 . S
C4309 C4315 1.390 . S
C4310 H4301 0.930 . S
C4310 C4308 1.384 . S
C4310 C4311 1.372 . S
C4311 C4310 1.372 . S
C4311 C4312 1.400 . S
C4311 C4316 1.490 . S
C4312 H4302 0.930 . S
C4312 C4311 1.400 . S
C4312 C4315 1.386 . S
H4313 C4329 0.930 . S
H4314 C4330 0.931 . S
C4315 H4303 0.929 . S
C4315 C4309 1.390 . S
C4315 C4312 1.386 . S
C4316 C4311 1.490 . S
C4316 C4318 1.395 . S
C4316 C4319 1.403 . S
H4317 C4323 0.930 . S
C4318 H4304 0.930 . S
C4318 C4316 1.395 . S
C4318 C4321 1.403 . S
C4319 C4316 1.403 . S
C4319 C4320 1.524 . S
C4319 C4323 1.400 1_554 S
C4320 H4305 0.960 1_554 S
C4320 H4306 0.960 . S
C4320 H4307 0.960 . S
C4320 C4319 1.524 . S
C4321 C4318 1.403 . S
C4321 C4322 1.392 . S
C4321 C4325 1.495 . S
C4322 C4321 1.392 . S
C4322 C4323 1.385 1_554 S
C4322 C4324 1.478 1_554 S
C4323 H4317 0.930 . S
C4323 C4319 1.400 1_556 S
C4323 C4322 1.385 1_556 S
C4324 C4322 1.478 1_556 S
C4324 C4326 1.381 . S
C4324 C4330 1.383 . S
C4325 C4321 1.495 . S
C4325 H4331 0.959 . S
C4325 H4332 0.961 . S
C4325 H4333 0.960 . S
C4326 C4324 1.381 . S
C4326 C4327 1.394 . S
C4326 H4334 0.930 . S
C4327 C4326 1.394 . S
C4327 C4328 1.383 . S
C4327 H4335 0.929 . S
C4328 C4327 1.383 . S
C4328 C4329 1.377 . S
C4329 H4313 0.930 . S
C4329 C4328 1.377 . S
C4329 C4330 1.379 . S
C4330 H4314 0.931 . S
C4330 C4324 1.383 . S
C4330 C4329 1.379 . S
H4331 C4325 0.959 . S
H4332 C4325 0.961 . S
H4333 C4325 0.960 . S
H4334 C4326 0.930 . S
H4335 C4327 0.929 . S
H4336 C4344 0.929 . S
H4337 C4346 0.930 . S
H4338 C4348 0.930 . S
H4339 C4351 0.929 . S
H4340 C4354 0.930 . S
H4341 C4356 0.983 . S
H4342 C4356 0.971 . S
H4343 C4356 0.928 1_565 S
C4344 H4336 0.929 . S
C4344 C4345 1.377 . S
C4344 C4346 1.384 . S
C4345 C4344 1.377 . S
C4345 C4351 1.390 . S
C4346 H4337 0.930 . S
C4346 C4344 1.384 . S
C4346 C4347 1.372 . S
C4347 C4346 1.372 . S
C4347 C4348 1.400 . S
C4347 C4352 1.490 . S
C4348 H4338 0.930 . S
C4348 C4347 1.400 . S
C4348 C4351 1.386 . S
H4349 C4365 0.930 . S
H4350 C4366 0.931 . S
C4351 H4339 0.929 . S
C4351 C4345 1.390 . S
C4351 C4348 1.386 . S
C4352 C4347 1.490 . S
C4352 C4354 1.395 . S
C4352 C4355 1.406 . S
H4353 C4359 0.930 . S
C4354 H4340 0.930 . S
C4354 C4352 1.395 . S
C4354 C4357 1.385 1_565 S
C4355 C4352 1.406 . S
C4355 C4356 1.522 1_565 S
C4355 C4359 1.396 1_565 S
C4356 H4341 0.983 . S
C4356 H4342 0.971 . S
C4356 H4343 0.928 1_545 S
C4356 C4355 1.522 1_545 S
C4357 C4354 1.385 1_545 S
C4357 C4358 1.411 . S
C4357 C4361 1.495 . S
C4358 C4357 1.411 . S
C4358 C4359 1.385 . S
C4358 C4360 1.478 . S
C4359 H4353 0.930 . S
C4359 C4355 1.396 1_545 S
C4359 C4358 1.385 . S
C4360 C4358 1.478 . S
C4360 C4362 1.381 . S
C4360 C4366 1.383 . S
C4361 C4357 1.495 . S
C4361 H4367 0.946 1_545 S
C4361 H4368 0.955 1_545 S
C4361 H4369 0.979 . S
C4362 C4360 1.381 . S
C4362 C4363 1.394 . S
C4362 H4370 0.930 . S
C4363 C4362 1.394 . S
C4363 C4364 1.383 . S
C4363 H4371 0.929 . S
C4364 C4363 1.383 . S
C4364 C4365 1.377 . S
C4365 H4349 0.930 . S
C4365 C4364 1.377 . S
C4365 C4366 1.379 . S
C4366 H4350 0.931 . S
C4366 C4360 1.383 . S
C4366 C4365 1.379 . S
H4367 C4361 0.946 1_565 S
H4368 C4361 0.955 1_565 S
H4369 C4361 0.979 . S
H4370 C4362 0.930 . S
H4371 C4363 0.929 . S
H4372 C4380 0.929 . S
H4373 C4382 0.930 . S
H4374 C4384 0.930 . S
H4375 C4387 0.929 . S
H4376 C4390 0.930 . S
H4377 C4392 0.960 . S
H4378 C4392 0.960 . S
H4379 C4392 0.960 . S
C4380 H4372 0.929 . S
C4380 C4381 1.377 . S
C4380 C4382 1.384 . S
C4381 C4380 1.377 . S
C4381 C4387 1.390 . S
C4382 H4373 0.930 . S
C4382 C4380 1.384 . S
C4382 C4383 1.372 . S
C4383 C4382 1.372 . S
C4383 C4384 1.400 . S
C4383 C4388 1.490 . S
C4384 H4374 0.930 . S
C4384 C4383 1.400 . S
C4384 C4387 1.386 . S
H4385 C4401 0.930 . S
H4386 C4402 0.931 . S
C4387 H4375 0.929 . S
C4387 C4381 1.390 . S
C4387 C4384 1.386 . S
C4388 C4383 1.490 . S
C4388 C4390 1.395 . S
C4388 C4391 1.403 . S
H4389 C4395 0.930 . S
C4390 H4376 0.930 . S
C4390 C4388 1.395 . S
C4390 C4393 1.403 . S
C4391 C4388 1.403 . S
C4391 C4392 1.524 . S
C4391 C4395 1.400 . S
C4392 H4377 0.960 . S
C4392 H4378 0.960 . S
C4392 H4379 0.960 . S
C4392 C4391 1.524 . S
C4393 C4390 1.403 . S
C4393 C4394 1.392 . S
C4393 C4397 1.495 . S
C4394 C4393 1.392 . S
C4394 C4395 1.385 . S
C4394 C4396 1.478 . S
C4395 H4389 0.930 . S
C4395 C4391 1.400 . S
C4395 C4394 1.385 . S
C4396 C4394 1.478 . S
C4396 C4398 1.381 . S
C4396 C4402 1.383 . S
C4397 C4393 1.495 . S
C4397 H4403 0.959 . S
C4397 H4404 0.961 . S
C4397 H4405 0.960 . S
C4398 C4396 1.381 . S
C4398 C4399 1.394 . S
C4398 H4406 0.930 . S
C4399 C4398 1.394 . S
C4399 C4400 1.383 . S
C4399 H4407 0.929 . S
C4400 C4399 1.383 . S
C4400 C4401 1.377 . S
C4401 H4385 0.930 . S
C4401 C4400 1.377 . S
C4401 C4402 1.379 . S
C4402 H4386 0.931 . S
C4402 C4396 1.383 . S
C4402 C4401 1.379 . S
H4403 C4397 0.959 . S
H4404 C4397 0.961 . S
H4405 C4397 0.960 . S
H4406 C4398 0.930 . S
H4407 C4399 0.929 . S
H4408 C4416 0.929 . S
H4409 C4418 0.930 . S
H4410 C4420 0.930 . S
H4411 C4423 0.929 . S
H4412 C4426 0.930 . S
H4413 C4428 0.960 . S
H4414 C4428 0.960 . S
H4415 C4428 0.960 . S
C4416 H4408 0.929 . S
C4416 C4417 1.377 . S
C4416 C4418 1.384 . S
C4417 C4416 1.377 . S
C4417 C4423 1.390 . S
C4418 H4409 0.930 . S
C4418 C4416 1.384 . S
C4418 C4419 1.372 . S
C4419 C4418 1.372 . S
C4419 C4420 1.400 . S
C4419 C4424 1.490 . S
C4420 H4410 0.930 . S
C4420 C4419 1.400 . S
C4420 C4423 1.386 . S
H4421 C4437 0.930 . S
H4422 C4438 0.931 . S
C4423 H4411 0.929 . S
C4423 C4417 1.390 . S
C4423 C4420 1.386 . S
C4424 C4419 1.490 . S
C4424 C4426 1.395 1_565 S
C4424 C4427 1.403 . S
H4425 C4431 0.933 . S
C4426 H4412 0.930 . S
C4426 C4424 1.395 1_545 S
C4426 C4429 1.403 . S
C4427 C4424 1.403 . S
C4427 C4428 1.524 . S
C4427 C4431 1.412 . S
C4428 H4413 0.960 . S
C4428 H4414 0.960 . S
C4428 H4415 0.960 . S
C4428 C4427 1.524 . S
C4429 C4426 1.403 . S
C4429 C4430 1.392 . S
C4429 C4433 1.495 . S
C4430 C4429 1.392 . S
C4430 C4431 1.370 1_545 S
C4430 C4432 1.478 . S
C4431 H4425 0.933 . S
C4431 C4427 1.412 . S
C4431 C4430 1.370 1_565 S
C4432 C4430 1.478 . S
C4432 C4434 1.381 . S
C4432 C4438 1.383 . S
C4433 C4429 1.495 . S
C4433 H4439 0.959 . S
C4433 H4440 0.961 . S
C4433 H4441 0.960 . S
C4434 C4432 1.381 . S
C4434 C4435 1.394 . S
C4434 H4442 0.930 . S
C4435 C4434 1.394 . S
C4435 C4436 1.383 . S
C4435 H4443 0.929 . S
C4436 C4435 1.383 . S
C4436 C4437 1.377 . S
C4437 H4421 0.930 . S
C4437 C4436 1.377 . S
C4437 C4438 1.379 . S
C4438 H4422 0.931 . S
C4438 C4432 1.383 . S
C4438 C4437 1.379 . S
H4439 C4433 0.959 . S
H4440 C4433 0.961 . S
H4441 C4433 0.960 . S
H4442 C4434 0.930 . S
H4443 C4435 0.929 . S
H4444 C4452 0.929 . S
H4445 C4454 0.930 . S
H4446 C4456 0.930 . S
H4447 C4459 0.929 . S
H4448 C4462 0.930 . S
H4449 C4464 0.960 . S
H4450 C4464 0.960 . S
H4451 C4464 0.960 . S
C4452 H4444 0.929 . S
C4452 C4453 1.377 . S
C4452 C4454 1.384 . S
C4453 C4452 1.377 . S
C4453 C4459 1.390 . S
C4454 H4445 0.930 . S
C4454 C4452 1.384 . S
C4454 C4455 1.372 . S
C4455 C4454 1.372 . S
C4455 C4456 1.400 . S
C4455 C4460 1.490 . S
C4456 H4446 0.930 . S
C4456 C4455 1.400 . S
C4456 C4459 1.386 . S
H4457 C4473 0.930 . S
H4458 C4474 0.931 . S
C4459 H4447 0.929 . S
C4459 C4453 1.390 . S
C4459 C4456 1.386 . S
C4460 C4455 1.490 . S
C4460 C4462 1.395 . S
C4460 C4463 1.403 . S
H4461 C4467 0.930 1_556 S
C4462 H4448 0.930 . S
C4462 C4460 1.395 . S
C4462 C4465 1.403 . S
C4463 C4460 1.403 . S
C4463 C4464 1.524 . S
C4463 C4467 1.400 . S
C4464 H4449 0.960 . S
C4464 H4450 0.960 . S
C4464 H4451 0.960 . S
C4464 C4463 1.524 . S
C4465 C4462 1.403 . S
C4465 C4466 1.392 . S
C4465 C4469 1.495 . S
C4466 C4465 1.392 . S
C4466 C4467 1.385 . S
C4466 C4468 1.478 1_554 S
C4467 H4461 0.930 1_554 S
C4467 C4463 1.400 . S
C4467 C4466 1.385 . S
C4468 C4466 1.478 1_556 S
C4468 C4470 1.381 . S
C4468 C4474 1.383 . S
C4469 C4465 1.495 . S
C4469 H4475 0.959 . S
C4469 H4476 0.961 . S
C4469 H4477 0.960 1_554 S
C4470 C4468 1.381 . S
C4470 C4471 1.394 . S
C4470 H4478 0.930 . S
C4471 C4470 1.394 . S
C4471 C4472 1.383 . S
C4471 H4479 0.929 . S
C4472 C4471 1.383 . S
C4472 C4473 1.377 . S
C4473 H4457 0.930 . S
C4473 C4472 1.377 . S
C4473 C4474 1.379 . S
C4474 H4458 0.931 . S
C4474 C4468 1.383 . S
C4474 C4473 1.379 . S
H4475 C4469 0.959 . S
H4476 C4469 0.961 . S
H4477 C4469 0.960 1_556 S
H4478 C4470 0.930 . S
H4479 C4471 0.929 . S
C1033 C29 1.104 . S
C1052 C132 1.083 . S
C1069 C164 1.108 . S
C1088 C61 1.081 . S
C1105 C93 1.104 . S
C1124 C196 1.084 . S
C1141 C228 1.104 . S
C1160 C125 1.081 . S
C1177 C258 1.298 . S
C1196 C390 1.298 . S
C1213 C290 1.297 . S
C1232 C422 1.305 . S
C1249 C454 1.304 . S
C1268 C322 1.273 . S
C1285 C354 1.299 . S
C1304 C486 1.295 . S
C1321 C644 1.116 . S
C1340 C541 1.114 . S
C1357 C573 1.112 . S
C1376 C676 1.094 . S
C1393 C605 1.116 . S
C1412 C708 1.141 . S
C1429 C637 1.118 . S
C1448 C740 1.134 . S
C1465 C770 1.302 . S
C1484 C902 1.277 . S
C1501 C934 1.294 . S
C1520 C802 1.321 . S
C1537 C834 1.302 . S
C1556 C966 1.280 . S
C1573 C998 1.294 . S
C1592 C866 1.315 . S
C1609 N690 0.902 . S
C1628 N13 0.906 . S
C1645 N722 0.902 . S
C1664 N45 0.908 . S
C1681 N754 0.905 . S
C1700 N77 0.919 . S
C1717 N109 0.900 . S
C1736 N658 0.898 . S
C1753 N146 0.898 . S
C1772 N621 0.882 . S
C1789 N525 0.906 . S
C1808 N178 0.907 . S
C1825 N210 0.899 . S
C1844 N557 0.879 . S
C1861 N242 0.899 . S
C1880 N589 0.886 . S
C1897 N274 1.001 . S
C1916 N941 1.015 . S
C1933 N973 0.997 . S
C1952 N306 0.981 . S
C1969 N1005 1.000 . S
C1988 N338 1.011 . S
C2005 N370 1.001 . S
C2024 N909 1.000 . S
C2041 N397 0.995 . S
C2060 N882 0.976 . S
C2077 N429 0.995 . S
C2096 N786 0.986 . S
C2113 N461 0.998 . S
C2132 N818 1.003 . S
C2149 N493 0.996 . S
C2168 N850 0.992 . S
C2185 N269 2.900 . S
C2204 N18 2.904 1_556 S
C2221 N50 2.890 . S
C2240 N813 2.897 . S
C2257 N333 2.901 . S
C2276 N82 2.910 . S
C2293 N114 2.898 . S
C2312 N877 2.917 . S
C2329 N402 2.899 . S
C2348 N141 2.896 . S
C2365 N946 2.898 . S
C2384 N173 2.919 . S
C2401 N205 2.897 . S
C2420 N466 2.924 1_556 S
C2437 N237 2.893 . S
C2456 N1010 2.887 . S
C2473 N562 2.897 . S
C2492 N301 2.924 . S
C2509 N626 2.890 . S
C2528 N365 2.897 . S
C2545 N434 2.895 . S
C2564 N685 2.907 . S
C2581 N749 2.890 . S
C2600 N498 2.889 . S
C2617 N781 2.896 . S
C2636 N530 2.914 . S
C2653 N845 2.901 . S
C2672 N594 2.917 1_556 S
C2689 N914 2.894 1_556 S
C2708 N653 2.901 . S
C2725 N717 2.890 . S
C2744 N978 2.898 . S
C2761 C2 1.584 . S
C2780 C413 1.616 . S
C2797 C957 1.594 . S
C2816 C34 1.568 . S
C2833 C477 1.596 . S
C2852 C66 1.587 . S
C2869 C98 1.585 . S
C2888 C1021 1.615 . S
C2905 C260 1.600 . S
C2924 C134 1.563 . S
C2941 C804 1.595 . S
C2960 C166 1.574 . S
C2977 C324 1.596 . S
C2996 C198 1.552 . S
C3013 C868 1.603 . S
C3032 C230 1.587 . S
C3049 C130 1.720 . S
C3068 C285 1.727 . S
C3085 C674 1.722 . S
C3104 C317 1.717 . S
C3121 C194 1.720 . S
C3140 C349 1.722 . S
C3157 C381 1.715 . S
C3176 C738 1.700 . S
C3193 C6 1.721 . S
C3212 C388 1.721 . S
C3229 C550 1.720 . S
C3248 C420 1.727 . S
C3265 C452 1.705 . S
C3284 C70 1.739 . S
C3301 C484 1.707 . S
C3320 C614 1.733 . S
C3337 C925 1.595 . S
C3356 C514 1.552 . S
C3373 C445 1.601 . S
C3392 C546 1.572 . S
C3409 C578 1.575 . S
C3428 C989 1.586 . S
C3445 C509 1.601 . S
C3464 C610 1.573 . S
C3481 C646 1.575 . S
C3500 C772 1.584 . S
C3517 C678 1.577 . S
C3536 C292 1.573 . S
C3553 C836 1.603 . S
C3572 C710 1.597 . S
C3589 C356 1.602 . S
C3608 C742 1.601 . S
C3625 C797 1.713 . S
C3644 C642 1.707 . S
C3661 C829 1.708 . S
C3680 C162 1.729 . S
C3697 C861 1.712 . S
C3716 C706 1.709 . S
C3733 C893 1.706 . S
C3752 C226 1.738 . S
C3769 C518 1.727 . S
C3788 C900 1.685 . S
C3805 C38 1.719 . S
C3824 C932 1.728 . S
C3841 C964 1.706 . S
C3860 C582 1.737 . S
C3877 C102 1.725 . S
C3896 C996 1.701 . S
C3913 C157 2.032 . S
C3932 C4 2.021 . S
C3949 C189 2.029 . S
C3968 C36 2.039 . S
C3985 C68 2.028 . S
C4004 C221 2.045 . S
C4021 C253 2.030 . S
C4040 C100 2.035 . S
C4057 C386 2.071 . S
C4076 C262 2.057 . S
C4093 C294 2.078 . S
C4112 C418 2.075 . S
C4129 C326 2.077 . S
C4148 C450 2.062 . S
C4165 C482 2.076 . S
C4184 C358 2.059 . S
C4201 C516 2.035 . S
C4220 C669 2.011 . S
C4237 C701 2.028 . S
C4256 C548 2.044 . S
C4273 C580 2.028 . S
C4292 C733 2.045 . S
C4309 C612 2.030 . S
C4328 C765 2.035 . S
C4345 C898 2.073 . S
C4364 C774 2.052 . S
C4381 C930 2.078 . S
C4400 C806 2.077 . S
C4417 C838 2.077 . S
C4436 C962 2.063 . S
C4453 C994 2.075 . S
C4472 C870 2.088 . S
