# Generated by pormake.
# Topology sxa, (6)-cn, num edge types: 1
# Building blocks:
#     Node 0, Type 0, BuildingBlock: UKALOJ_clean_sbu_0, # of connection points: 6
#     Node 1, Type 0, BuildingBlock: UKALOJ_clean_sbu_0, # of connection points: 6
#     Node 2, Type 0, BuildingBlock: UKALOJ_clean_sbu_0, # of connection points: 6
#     Node 3, Type 0, BuildingBlock: UKALOJ_clean_sbu_0, # of connection points: 6
#     Edge 4, Type (0, 0), BuildingBlock: XIVTED_clean_linker_0, # of connection points: 2
#     Edge 5, Type (0, 0), BuildingBlock: XIVTED_clean_linker_0, # of connection points: 2
#     Edge 6, Type (0, 0), BuildingBlock: XIVTED_clean_linker_0, # of connection points: 2
#     Edge 7, Type (0, 0), BuildingBlock: XIVTED_clean_linker_0, # of connection points: 2
#     Edge 8, Type (0, 0), BuildingBlock: XIVTED_clean_linker_0, # of connection points: 2
#     Edge 9, Type (0, 0), BuildingBlock: XIVTED_clean_linker_0, # of connection points: 2
#     Edge 10, Type (0, 0), BuildingBlock: XIVTED_clean_linker_0, # of connection points: 2
#     Edge 11, Type (0, 0), BuildingBlock: XIVTED_clean_linker_0, # of connection points: 2
#     Edge 12, Type (0, 0), BuildingBlock: XIVTED_clean_linker_0, # of connection points: 2
#     Edge 13, Type (0, 0), BuildingBlock: XIVTED_clean_linker_0, # of connection points: 2
#     Edge 14, Type (0, 0), BuildingBlock: XIVTED_clean_linker_0, # of connection points: 2
#     Edge 15, Type (0, 0), BuildingBlock: XIVTED_clean_linker_0, # of connection points: 2
# Relax obj value: 0.135
# Max RMSD: 0.193
# Mean RMSD: 0.193
data_MOF--net-sxa--node1-UKALOJ_clean_sbu_0--edge1-XIVTED_clean_linker_0
_symmetry_space_group_name_H-M    P1
_symmetry_Int_Tables_number       1
_symmetry_cell_setting            triclinic
loop_
_symmetry_equiv_pos_as_xyz
'x, y, z'
_cell_length_a     24.328221
_cell_length_b     37.956628
_cell_length_c     14.782473
_cell_angle_alpha  90.586085
_cell_angle_beta   90.060979
_cell_angle_gamma 89.964185
loop_
_atom_site_label
_atom_site_type_symbol
_atom_site_fract_x
_atom_site_fract_y
_atom_site_fract_z
_atom_type_partial_charge
Zn0 Zn -0.02045 0.82698 0.26126 0.0
O1 O 0.00409 0.82824 0.3981 0.0
C2 C 0.08899 0.79828 0.21859 0.0
Zn3 Zn -0.02011 0.76781 0.26149 0.0
C4 C 0.01539 0.79958 0.43818 0.0
O5 O 0.00612 0.77025 0.39819 0.0
C6 C 0.94766 0.79588 0.0832 0.0
O7 O 0.89643 0.76725 0.30146 0.0
O8 O 0.89512 0.82516 0.29804 0.0
N9 N -0.01542 0.71337 0.26014 0.0
C10 C 0.95762 0.68896 0.20992 0.0
C11 C 0.02379 0.66264 0.27499 0.0
N12 N 0.02542 0.6968 0.3011 0.0
N13 N -0.01818 0.65705 0.21707 0.0
C14 C -0.0119 0.90349 0.18678 0.0
C15 C 0.95241 0.93449 0.2922 0.0
N16 N 0.97597 0.88142 0.25522 0.0
N17 N 0.95395 0.90084 0.32069 0.0
N18 N 0.97307 0.93693 0.20785 0.0
H19 H 0.04224 0.86876 0.11107 0.0
H20 H 0.04374 0.9141 0.07681 0.0
H21 H -0.01391 0.88645 0.04825 0.0
C22 C 0.01696 0.89256 0.10126 0.0
C23 C 0.9061 0.69579 0.15745 0.0
H24 H 0.88477 0.71974 0.18238 0.0
H25 H 0.87808 0.67281 0.16202 0.0
H26 H 0.91654 0.69926 0.08544 0.0
O27 O 0.95549 0.76707 0.12416 0.0
O28 O 0.95604 0.82468 0.12506 0.0
C29 C 0.87018 0.7961 0.31023 0.0
O30 O 0.06342 0.82724 0.22805 0.0
O31 O 0.06294 0.76942 0.22422 0.0
Zn32 Zn 0.48105 0.26722 0.25944 0.0
O33 O 0.39706 0.26452 0.29613 0.0
C34 C 0.44814 0.29535 0.08202 0.0
Zn35 Zn 0.47903 0.32647 0.26032 0.0
C36 C 0.3706 0.29313 0.30837 0.0
O37 O 0.39531 0.32248 0.29968 0.0
C38 C 0.58916 0.30036 0.21682 0.0
O39 O 0.50524 0.32746 0.39643 0.0
O40 O 0.50541 0.26948 0.39701 0.0
N41 N 0.47236 0.38087 0.2571 0.0
C42 C 0.49033 0.40474 0.19649 0.0
C43 C 0.43798 0.43199 0.28899 0.0
N44 N 0.44009 0.39802 0.31468 0.0
N45 N 0.46936 0.43703 0.21515 0.0
C46 C 0.46431 0.1867 0.20959 0.0
C47 C 0.53419 0.16437 0.27401 0.0
N48 N 0.48895 0.2128 0.2578 0.0
N49 N 0.53186 0.19857 0.29867 0.0
N50 N 0.49241 0.15602 0.21774 0.0
H51 H 0.39777 0.21864 0.15757 0.0
H52 H 0.38191 0.17326 0.17157 0.0
H53 H 0.42539 0.18571 0.07951 0.0
C54 C 0.4147 0.19171 0.15097 0.0
C55 C 0.52523 0.39614 0.1156 0.0
H56 H 0.56805 0.40465 0.1295 0.0
H57 H 0.51027 0.41062 0.05553 0.0
H58 H 0.52583 0.36765 0.10005 0.0
O59 O 0.56231 0.32896 0.22386 0.0
O60 O 0.56442 0.27111 0.22497 0.0
C61 C 0.51558 0.29871 0.43678 0.0
O62 O 0.45899 0.26668 0.12165 0.0
O63 O 0.45359 0.32422 0.12501 0.0
Zn64 Zn -0.01933 0.32715 0.79622 0.0
O65 O 0.89725 0.32812 0.75613 0.0
C66 C 0.94803 0.29856 0.97357 0.0
Zn67 Zn -0.02022 0.26797 0.7948 0.0
C68 C 0.87071 0.29944 0.74643 0.0
O69 O 0.89537 0.2702 0.75773 0.0
C70 C 0.08949 0.29612 0.8385 0.0
O71 O 0.00437 0.26706 0.65812 0.0
O72 O 0.00688 0.32505 0.65945 0.0
N73 N 0.97592 0.21351 0.7999 0.0
C74 C -0.01192 0.19127 0.86802 0.0
C75 C 0.95202 0.16057 0.76229 0.0
N76 N 0.95368 0.19428 0.73422 0.0
N77 N 0.97284 0.15791 0.84656 0.0
C78 C 0.95868 0.40595 0.84902 0.0
C79 C 0.0248 0.43232 0.7843 0.0
N80 N -0.01438 0.38159 0.79864 0.0
N81 N 0.02643 0.39819 0.7579 0.0
N82 N -0.01714 0.43785 0.84218 0.0
H83 H 0.88591 0.37515 0.8764 0.0
H84 H 0.87917 0.42207 0.89695 0.0
H85 H 0.91779 0.39557 0.97342 0.0
C86 C 0.90723 0.39908 0.90143 0.0
C87 C 0.01718 0.20192 0.95364 0.0
H88 H 0.04254 0.22567 0.94423 0.0
H89 H 0.04391 0.18024 0.97768 0.0
H90 H -0.01353 0.20796 1.00684 0.0
O91 O 0.06361 0.26733 0.82823 0.0
O92 O 0.06374 0.32514 0.83365 0.0
C93 C 0.01592 0.29583 0.61879 0.0
O94 O 0.95621 0.32753 0.93355 0.0
O95 O 0.95623 0.26991 0.9309 0.0
Zn96 Zn 0.48048 0.82468 0.79744 0.0
O97 O 0.39647 0.82725 0.76034 0.0
C98 C 0.44775 0.79655 0.975 0.0
Zn99 Zn 0.47903 0.76543 0.79717 0.0
C100 C 0.3703 0.79853 0.7485 0.0
O101 O 0.39532 0.76929 0.75762 0.0
C102 C 0.58887 0.79176 0.84071 0.0
O103 O 0.5053 0.76456 0.66103 0.0
O104 O 0.50494 0.82254 0.66009 0.0
N105 N 0.47254 0.71104 0.79993 0.0
C106 C 0.48967 0.68708 0.86106 0.0
C107 C 0.43828 0.66004 0.76663 0.0
N108 N 0.44089 0.69401 0.74113 0.0
N109 N 0.46872 0.65487 0.84158 0.0
C110 C 0.46276 0.90514 0.84709 0.0
C111 C 0.53322 0.9276 0.78506 0.0
N112 N 0.48805 0.87911 0.79954 0.0
N113 N 0.53133 0.89342 0.76017 0.0
N114 N 0.49081 0.93587 0.84006 0.0
H115 H 0.39672 0.87275 0.89882 0.0
H116 H 0.37911 0.91747 0.87903 0.0
H117 H 0.42124 0.90732 0.97495 0.0
C118 C 0.41233 0.90003 0.90355 0.0
C119 C 0.52365 0.69552 0.9432 0.0
H120 H 0.52577 0.72411 0.95716 0.0
H121 H 0.56613 0.68579 0.93208 0.0
H122 H 0.50673 0.68194 1.00319 0.0
O123 O 0.56233 0.76305 0.83396 0.0
O124 O 0.56381 0.8209 0.83222 0.0
C125 C 0.51542 0.79331 0.62055 0.0
O126 O 0.45841 0.82516 0.93503 0.0
O127 O 0.45347 0.7676 0.93246 0.0
H128 H 0.97162 0.44192 1.02443 0.0
H129 H 0.97053 0.65294 0.03478 0.0
H130 H -0.02008 0.50522 0.78483 0.0
H131 H -0.02062 0.58968 0.27444 0.0
H132 H 0.96395 0.59936 0.94245 0.0
H133 H 0.96449 0.49549 0.11675 0.0
C134 C 0.97031 0.46712 0.99105 0.0
C135 C 0.97464 0.46915 0.89657 0.0
C136 C 0.96656 0.59709 1.01529 0.0
C137 C 0.96872 0.53084 1.00224 0.0
C138 C 0.96943 0.62775 0.06818 0.0
C139 C 0.97376 0.62573 0.16268 0.0
C140 C 0.96852 0.56402 0.05699 0.0
C141 C 0.97536 0.59227 0.2019 0.0
C142 C 0.96711 0.49776 0.04393 0.0
C143 C 0.97592 0.50261 0.85736 0.0
N144 N 0.97266 0.56273 0.14898 0.0
N145 N 0.97289 0.53214 0.91027 0.0
H146 H 0.55974 0.46883 0.14443 0.0
H147 H 0.38185 0.61489 0.887 0.0
H148 H 0.38383 0.47788 0.16674 0.0
H149 H 0.55761 0.62226 0.91576 0.0
H150 H 0.38257 0.5616 0.97907 0.0
H151 H 0.56096 0.52222 0.05154 0.0
C152 C 0.52139 0.48192 0.12905 0.0
C153 C 0.47151 0.46872 0.16213 0.0
C154 C 0.42105 0.57489 0.96572 0.0
C155 C 0.47248 0.52986 0.05687 0.0
C156 C 0.42061 0.60518 0.91285 0.0
C157 C 0.46961 0.62323 0.89492 0.0
C158 C 0.47104 0.56209 1.00005 0.0
C159 C 0.51883 0.60956 0.92978 0.0
C160 C 0.52209 0.51251 0.07671 0.0
C161 C 0.42309 0.48721 0.14237 0.0
N162 N 0.51835 0.57975 0.98053 0.0
N163 N 0.42472 0.51663 0.09062 0.0
H164 H 0.39936 0.97512 0.88436 0.0
H165 H 0.57774 0.12314 0.13833 0.0
H166 H 0.57526 0.97052 0.91758 0.0
H167 H 0.40237 0.11554 0.17368 0.0
H168 H 0.57581 0.06957 0.04607 0.0
H169 H 0.39739 1.02857 0.9793 0.0
C170 C 0.43738 0.98481 0.91289 0.0
C171 C 0.48746 0.96767 0.89465 0.0
C172 C 0.53756 0.07963 0.07344 0.0
C173 C 0.48574 1.02969 1.00031 0.0
C174 C 0.53869 0.11024 0.12631 0.0
C175 C 0.49005 0.12437 0.16251 0.0
C176 C 0.48732 0.06265 0.05609 0.0
C177 C 0.44057 0.10646 0.14457 0.0
C178 C 0.43631 1.01563 0.96627 0.0
C179 C 0.53575 0.98275 0.92989 0.0
N180 N 0.44043 0.07657 0.09238 0.0
N181 N 0.53367 1.01273 0.98072 0.0
H182 H 0.95297 0.943 1.02659 0.0
H183 H 0.95249 0.15168 1.02755 0.0
H184 H -0.00797 1.00359 0.26634 0.0
H185 H -0.00819 0.09128 0.78773 0.0
H186 H 0.95575 0.09785 0.11614 0.0
H187 H 0.95606 0.9968 0.9378 0.0
C188 C 0.96374 0.96739 0.06036 0.0
C189 C 0.97468 0.96845 0.15374 0.0
C190 C 0.96439 0.09644 0.04434 0.0
C191 C 0.97488 1.03067 0.05281 0.0
C192 C 0.96334 0.12732 0.99373 0.0
C193 C 0.97434 0.12633 0.90042 0.0
C194 C 0.97476 0.06405 1.0011 0.0
C195 C -0.01598 0.09332 0.85965 0.0
C196 C 0.96468 0.99825 1.00963 0.0
C197 C -0.01573 1.00149 0.19439 0.0
N198 N -0.01607 0.06349 0.91011 0.0
N199 N -0.01594 1.03128 0.14382 0.0
H200 H 0.30157 0.74205 0.72688 0.0
H201 H 0.05766 0.85739 0.52672 0.0
H202 H 0.30403 0.85568 0.71623 0.0
H203 H 0.05802 0.74366 0.53089 0.0
H204 H 0.13871 0.85771 0.6241 0.0
H205 H 0.20558 0.74268 0.67932 0.0
C206 C 0.28189 0.76718 0.71487 0.0
C207 C 0.31124 0.79885 0.72418 0.0
C208 C 0.12042 0.83269 0.6052 0.0
C209 C 0.20094 0.79974 0.66986 0.0
C210 C 0.07373 0.83247 0.55015 0.0
C211 C 0.05157 0.80041 0.51884 0.0
C212 C 0.14518 0.80064 0.62889 0.0
C213 C 0.0741 0.76902 0.55211 0.0
C214 C 0.2269 0.76752 0.68806 0.0
C215 C 0.28324 0.8306 0.70883 0.0
N216 N 0.12029 0.76991 0.60384 0.0
N217 N 0.22983 0.83021 0.68154 0.0
H218 H 0.05672 0.35191 0.52472 0.0
H219 H 0.30442 0.23556 0.33467 0.0
H220 H 0.06002 0.23824 0.53193 0.0
H221 H 0.30191 0.34931 0.33644 0.0
H222 H 0.20828 0.23556 0.38289 0.0
H223 H 0.13755 0.35082 0.4273 0.0
C224 C 0.07344 0.32665 0.50385 0.0
C225 C 0.05211 0.29515 0.53825 0.0
C226 C 0.22863 0.26051 0.37192 0.0
C227 C 0.14563 0.29377 0.42834 0.0
C228 C 0.28362 0.26054 0.34475 0.0
C229 C 0.3116 0.2925 0.33287 0.0
C230 C 0.20138 0.29267 0.38749 0.0
C231 C 0.28229 0.32403 0.34589 0.0
C232 C 0.12 0.32607 0.44876 0.0
C233 C 0.07543 0.26324 0.50815 0.0
N234 N 0.22901 0.32331 0.37323 0.0
N235 N 0.1216 0.26339 0.45646 0.0
H236 H 0.80471 0.35707 0.72124 0.0
H237 H 0.5554 0.2423 0.53102 0.0
H238 H 0.80173 0.24333 0.71771 0.0
H239 H 0.56065 0.35594 0.52382 0.0
H240 H 0.63642 0.24274 0.62833 0.0
H241 H 0.70853 0.3575 0.6736 0.0
C242 C 0.7838 0.33216 0.71081 0.0
C243 C 0.81166 0.3001 0.72208 0.0
C244 C 0.61924 0.26763 0.60692 0.0
C245 C 0.70129 0.30042 0.66802 0.0
C246 C 0.57257 0.26743 0.5519 0.0
C247 C 0.55176 0.29911 0.51746 0.0
C248 C 0.64544 0.29971 0.62733 0.0
C249 C 0.57565 0.33082 0.54759 0.0
C250 C 0.72876 0.33244 0.68399 0.0
C251 C 0.78217 0.26868 0.70876 0.0
N252 N 0.62187 0.33028 0.59928 0.0
N253 N 0.72878 0.26964 0.68165 0.0
H254 H 0.80137 0.85268 0.33329 0.0
H255 H 0.55844 0.73601 0.53083 0.0
H256 H 0.80408 0.73902 0.34149 0.0
H257 H 0.55747 0.84976 0.52945 0.0
H258 H 0.63941 0.73639 0.43361 0.0
H259 H 0.70536 0.85183 0.38126 0.0
C260 C 0.78174 0.82752 0.34478 0.0
C261 C 0.81116 0.79589 0.33472 0.0
C262 C 0.62086 0.76127 0.45311 0.0
C263 C 0.70097 0.79473 0.38935 0.0
C264 C 0.57422 0.76108 0.50807 0.0
C265 C 0.55167 0.79292 0.54006 0.0
C266 C 0.64526 0.79351 0.43027 0.0
C267 C 0.57384 0.82454 0.50764 0.0
C268 C 0.72679 0.82705 0.37183 0.0
C269 C 0.78328 0.76408 0.34952 0.0
N270 N 0.62004 0.82404 0.45604 0.0
N271 N 0.72995 0.76433 0.37689 0.0
H272 H 0.41331 0.85418 0.07281 0.0
H273 H 0.15723 0.74121 0.21995 0.0
H274 H 0.40845 0.74051 0.06995 0.0
H275 H 0.158 0.85467 0.20021 0.0
H276 H 0.25692 0.74103 0.20484 0.0
H277 H 0.33107 0.85505 0.16671 0.0
C278 C 0.39597 0.82938 0.09415 0.0
C279 C 0.4159 0.79726 0.05964 0.0
C280 C 0.23537 0.766 0.20461 0.0
C281 C 0.32177 0.79808 0.16569 0.0
C282 C 0.17837 0.7661 0.21219 0.0
C283 C 0.14919 0.79795 0.20894 0.0
C284 C 0.26339 0.79794 0.19285 0.0
C285 C 0.17882 0.82945 0.20118 0.0
C286 C 0.34877 0.82989 0.14739 0.0
C287 C 0.39309 0.76594 0.09224 0.0
N288 N 0.23431 0.82862 0.19222 0.0
N289 N 0.3461 0.76711 0.14133 0.0
H290 H 0.1585 0.35277 0.83758 0.0
H291 H 0.41297 0.23795 0.98391 0.0
H292 H 0.15774 0.23927 0.85605 0.0
H293 H 0.40999 0.35164 0.98658 0.0
H294 H 0.33075 0.23767 0.88971 0.0
H295 H 0.25823 0.35226 0.85227 0.0
C296 C 0.17931 0.32772 0.845 0.0
C297 C 0.1497 0.29606 0.84802 0.0
C298 C 0.34886 0.2627 0.90905 0.0
C299 C 0.26393 0.29528 0.86361 0.0
C300 C 0.39605 0.26288 0.96248 0.0
C301 C 0.41645 0.29484 0.9971 0.0
C302 C 0.32235 0.29471 0.89068 0.0
C303 C 0.39421 0.32633 0.96429 0.0
C304 C 0.23633 0.32743 0.85231 0.0
C305 C 0.17891 0.26435 0.85528 0.0
N306 N 0.3472 0.3255 0.91504 0.0
N307 N 0.23443 0.2648 0.86403 0.0
H308 H 0.65694 0.3578 0.20619 0.0
H309 H 0.90788 0.24101 0.06154 0.0
H310 H 0.65862 0.24402 0.2098 0.0
H311 H 0.91518 0.35432 0.08089 0.0
H312 H 0.82661 0.24163 0.1562 0.0
H313 H 0.75692 0.35748 0.19077 0.0
C314 C 0.67832 0.33277 0.20371 0.0
C315 C 0.64934 0.30088 0.20695 0.0
C316 C 0.84642 0.26644 0.14122 0.0
C317 C 0.76359 0.30031 0.19091 0.0
C318 C 0.89338 0.26608 0.08764 0.0
C319 C 0.91628 0.29792 0.05845 0.0
C320 C 0.82207 0.29884 0.16432 0.0
C321 C 0.89661 0.32937 0.09701 0.0
C322 C 0.73544 0.3326 0.19602 0.0
C323 C 0.67917 0.26924 0.20551 0.0
N324 N 0.84928 0.32922 0.14548 0.0
N325 N 0.73458 0.26977 0.19656 0.0
H326 H 0.90685 0.85307 0.99428 0.0
H327 H 0.65749 0.73466 0.85189 0.0
H328 H 0.91599 0.73979 0.97603 0.0
H329 H 0.65755 0.84843 0.84654 0.0
H330 H 0.75754 0.73553 0.86666 0.0
H331 H 0.82556 0.85183 0.89935 0.0
C332 C 0.89273 0.82788 0.96837 0.0
C333 C 0.91609 0.79622 0.99802 0.0
C334 C 0.73568 0.76028 0.86115 0.0
C335 C 0.8219 0.79458 0.89191 0.0
C336 C 0.67853 0.7598 0.85386 0.0
C337 C 0.64908 0.79154 0.85035 0.0
C338 C 0.76338 0.79273 0.86558 0.0
C339 C 0.67846 0.82332 0.8511 0.0
C340 C 0.84577 0.82716 0.91464 0.0
C341 C 0.89697 0.7646 0.95964 0.0
N342 N 0.7339 0.8231 0.85966 0.0
N343 N 0.84962 0.76439 0.91107 0.0
loop_
_geom_bond_atom_site_label_1
_geom_bond_atom_site_label_2
_geom_bond_distance
_geom_bond_site_symmetry_2
_ccdc_geom_bond_type
Zn0 O1 2.055 1_655 S
Zn0 O8 2.046 . S
Zn0 N16 2.036 . S
Zn0 O28 2.053 . S
Zn0 O30 2.066 1_655 S
O1 Zn0 2.055 1_455 S
O1 C4 1.259 . S
C2 O30 1.256 . S
C2 O31 1.244 . S
Zn3 O5 2.046 . S
Zn3 O7 2.055 1_455 S
Zn3 N9 2.036 . S
Zn3 O27 2.066 1_455 S
Zn3 O31 2.053 . S
C4 O1 1.259 . S
C4 O5 1.254 . S
O5 Zn3 2.046 . S
O5 C4 1.254 . S
C6 O27 1.256 . S
C6 O28 1.244 . S
O7 Zn3 2.055 1_655 S
O7 C29 1.259 . S
O8 Zn0 2.046 . S
O8 C29 1.254 . S
N9 Zn3 2.036 . S
N9 C10 1.298 1_455 S
N9 N12 1.398 . S
C10 N9 1.298 1_655 S
C10 N13 1.367 . S
C10 C23 1.481 . S
C11 N12 1.299 . S
C11 N13 1.379 1_455 S
N12 N9 1.398 . S
N12 C11 1.299 . S
N13 C10 1.367 . S
N13 C11 1.379 1_655 S
C14 N16 1.298 1_455 S
C14 N18 1.367 . S
C14 C22 1.481 . S
C15 N17 1.299 . S
C15 N18 1.379 1_655 S
N16 Zn0 2.036 . S
N16 C14 1.298 1_655 S
N16 N17 1.398 . S
N17 C15 1.299 . S
N17 N16 1.398 . S
N18 C14 1.367 . S
N18 C15 1.379 1_455 S
H19 C22 0.980 . S
H20 C22 0.981 . S
H21 C22 0.981 . S
C22 C14 1.481 . S
C22 H19 0.980 . S
C22 H20 0.981 . S
C22 H21 0.981 . S
C23 C10 1.481 . S
C23 H24 0.980 . S
C23 H25 0.981 . S
C23 H26 0.981 . S
H24 C23 0.980 . S
H25 C23 0.981 . S
H26 C23 0.981 . S
O27 Zn3 2.066 1_655 S
O27 C6 1.256 . S
O28 Zn0 2.053 . S
O28 C6 1.244 . S
C29 O7 1.259 . S
C29 O8 1.254 . S
O30 Zn0 2.066 1_455 S
O30 C2 1.256 . S
O31 C2 1.244 . S
O31 Zn3 2.053 . S
Zn32 O33 2.055 . S
Zn32 O40 2.046 . S
Zn32 N48 2.036 . S
Zn32 O60 2.053 . S
Zn32 O62 2.066 . S
O33 Zn32 2.055 . S
O33 C36 1.259 . S
C34 O62 1.256 . S
C34 O63 1.244 . S
Zn35 O37 2.046 . S
Zn35 O39 2.055 . S
Zn35 N41 2.036 . S
Zn35 O59 2.066 . S
Zn35 O63 2.053 . S
C36 O33 1.259 . S
C36 O37 1.254 . S
O37 Zn35 2.046 . S
O37 C36 1.254 . S
C38 O59 1.256 . S
C38 O60 1.244 . S
O39 Zn35 2.055 . S
O39 C61 1.259 . S
O40 Zn32 2.046 . S
O40 C61 1.254 . S
N41 Zn35 2.036 . S
N41 C42 1.298 . S
N41 N44 1.398 . S
C42 N41 1.298 . S
C42 N45 1.367 . S
C42 C55 1.481 . S
C43 N44 1.299 . S
C43 N45 1.379 . S
N44 N41 1.398 . S
N44 C43 1.299 . S
N45 C42 1.367 . S
N45 C43 1.379 . S
C46 N48 1.298 . S
C46 N50 1.367 . S
C46 C54 1.481 . S
C47 N49 1.299 . S
C47 N50 1.379 . S
N48 Zn32 2.036 . S
N48 C46 1.298 . S
N48 N49 1.398 . S
N49 C47 1.299 . S
N49 N48 1.398 . S
N50 C46 1.367 . S
N50 C47 1.379 . S
H51 C54 0.980 . S
H52 C54 0.981 . S
H53 C54 0.981 . S
C54 C46 1.481 . S
C54 H51 0.980 . S
C54 H52 0.981 . S
C54 H53 0.981 . S
C55 C42 1.481 . S
C55 H56 0.980 . S
C55 H57 0.981 . S
C55 H58 0.981 . S
H56 C55 0.980 . S
H57 C55 0.981 . S
H58 C55 0.981 . S
O59 Zn35 2.066 . S
O59 C38 1.256 . S
O60 Zn32 2.053 . S
O60 C38 1.244 . S
C61 O39 1.259 . S
C61 O40 1.254 . S
O62 Zn32 2.066 . S
O62 C34 1.256 . S
O63 C34 1.244 . S
O63 Zn35 2.053 . S
Zn64 O65 2.055 1_455 S
Zn64 O72 2.046 . S
Zn64 N80 2.036 . S
Zn64 O92 2.053 . S
Zn64 O94 2.066 1_455 S
O65 Zn64 2.055 1_655 S
O65 C68 1.259 . S
C66 O94 1.256 . S
C66 O95 1.244 . S
Zn67 O69 2.046 . S
Zn67 O71 2.055 1_655 S
Zn67 N73 2.036 . S
Zn67 O91 2.066 1_655 S
Zn67 O95 2.053 . S
C68 O65 1.259 . S
C68 O69 1.254 . S
O69 Zn67 2.046 . S
O69 C68 1.254 . S
C70 O91 1.256 . S
C70 O92 1.244 . S
O71 Zn67 2.055 1_455 S
O71 C93 1.259 . S
O72 Zn64 2.046 . S
O72 C93 1.254 . S
N73 Zn67 2.036 . S
N73 C74 1.298 1_655 S
N73 N76 1.398 . S
C74 N73 1.298 1_455 S
C74 N77 1.367 . S
C74 C87 1.481 . S
C75 N76 1.299 . S
C75 N77 1.379 1_655 S
N76 N73 1.398 . S
N76 C75 1.299 . S
N77 C74 1.367 . S
N77 C75 1.379 1_455 S
C78 N80 1.298 1_655 S
C78 N82 1.367 . S
C78 C86 1.481 . S
C79 N81 1.299 . S
C79 N82 1.379 1_455 S
N80 Zn64 2.036 . S
N80 C78 1.298 1_455 S
N80 N81 1.398 . S
N81 C79 1.299 . S
N81 N80 1.398 . S
N82 C78 1.367 . S
N82 C79 1.379 1_655 S
H83 C86 0.980 . S
H84 C86 0.981 . S
H85 C86 0.981 . S
C86 C78 1.481 . S
C86 H83 0.980 . S
C86 H84 0.981 . S
C86 H85 0.981 . S
C87 C74 1.481 . S
C87 H88 0.980 . S
C87 H89 0.981 . S
C87 H90 0.981 . S
H88 C87 0.980 . S
H89 C87 0.981 . S
H90 C87 0.981 . S
O91 Zn67 2.066 1_455 S
O91 C70 1.256 . S
O92 Zn64 2.053 . S
O92 C70 1.244 . S
C93 O71 1.259 . S
C93 O72 1.254 . S
O94 Zn64 2.066 1_655 S
O94 C66 1.256 . S
O95 C66 1.244 . S
O95 Zn67 2.053 . S
Zn96 O97 2.055 . S
Zn96 O104 2.046 . S
Zn96 N112 2.036 . S
Zn96 O124 2.053 . S
Zn96 O126 2.066 . S
O97 Zn96 2.055 . S
O97 C100 1.259 . S
C98 O126 1.256 . S
C98 O127 1.244 . S
Zn99 O101 2.046 . S
Zn99 O103 2.055 . S
Zn99 N105 2.036 . S
Zn99 O123 2.066 . S
Zn99 O127 2.053 . S
C100 O97 1.259 . S
C100 O101 1.254 . S
O101 Zn99 2.046 . S
O101 C100 1.254 . S
C102 O123 1.256 . S
C102 O124 1.244 . S
O103 Zn99 2.055 . S
O103 C125 1.259 . S
O104 Zn96 2.046 . S
O104 C125 1.254 . S
N105 Zn99 2.036 . S
N105 C106 1.298 . S
N105 N108 1.398 . S
C106 N105 1.298 . S
C106 N109 1.367 . S
C106 C119 1.481 . S
C107 N108 1.299 . S
C107 N109 1.379 . S
N108 N105 1.398 . S
N108 C107 1.299 . S
N109 C106 1.367 . S
N109 C107 1.379 . S
C110 N112 1.298 . S
C110 N114 1.367 . S
C110 C118 1.481 . S
C111 N113 1.299 . S
C111 N114 1.379 . S
N112 Zn96 2.036 . S
N112 C110 1.298 . S
N112 N113 1.398 . S
N113 C111 1.299 . S
N113 N112 1.398 . S
N114 C110 1.367 . S
N114 C111 1.379 . S
H115 C118 0.980 . S
H116 C118 0.981 . S
H117 C118 0.981 . S
C118 C110 1.481 . S
C118 H115 0.980 . S
C118 H116 0.981 . S
C118 H117 0.981 . S
C119 C106 1.481 . S
C119 H120 0.980 . S
C119 H121 0.981 . S
C119 H122 0.981 . S
H120 C119 0.980 . S
H121 C119 0.981 . S
H122 C119 0.981 . S
O123 Zn99 2.066 . S
O123 C102 1.256 . S
O124 Zn96 2.053 . S
O124 C102 1.244 . S
C125 O103 1.259 . S
C125 O104 1.254 . S
O126 Zn96 2.066 . S
O126 C98 1.256 . S
O127 C98 1.244 . S
O127 Zn99 2.053 . S
H128 C134 0.936 1_455 S
H129 C138 0.936 . S
H130 C143 0.929 . S
H131 C141 0.929 1_455 S
H132 C136 0.929 . S
H133 C142 0.929 1_455 S
C134 H128 0.936 1_655 S
C134 C135 1.367 . S
C134 C142 1.378 1_556 S
C135 C134 1.367 . S
C135 C143 1.433 . S
C136 H132 0.929 . S
C136 C138 1.378 1_556 S
C136 C140 1.350 1_556 S
C137 C140 1.463 1_556 S
C137 C142 1.350 1_556 S
C137 N145 1.427 . S
C138 H129 0.936 . S
C138 C136 1.378 1_554 S
C138 C139 1.367 . S
C139 C138 1.367 . S
C139 C141 1.433 . S
C140 C136 1.350 1_554 S
C140 C137 1.463 1_554 S
C140 N144 1.427 . S
C141 H131 0.929 1_655 S
C141 C139 1.433 . S
C141 N144 1.384 . S
C142 H133 0.929 1_655 S
C142 C134 1.378 1_554 S
C142 C137 1.350 1_554 S
C143 H130 0.929 . S
C143 C135 1.433 . S
C143 N145 1.384 . S
N144 C140 1.427 . S
N144 C141 1.384 . S
N145 C137 1.427 . S
N145 C143 1.384 . S
H146 C152 0.930 . S
H147 C156 0.930 . S
H148 C161 0.929 . S
H149 C159 0.929 . S
H150 C154 0.929 . S
H151 C160 0.929 . S
C152 H146 0.930 . S
C152 C153 1.367 . S
C152 C160 1.378 . S
C153 C152 1.367 . S
C153 C161 1.433 . S
C154 H150 0.929 . S
C154 C156 1.378 . S
C154 C158 1.350 . S
C155 C158 1.463 1_554 S
C155 C160 1.350 . S
C155 N163 1.427 . S
C156 H147 0.930 . S
C156 C154 1.378 . S
C156 C157 1.367 . S
C157 C156 1.367 . S
C157 C159 1.433 . S
C158 C154 1.350 . S
C158 C155 1.463 1_556 S
C158 N162 1.427 . S
C159 H149 0.929 . S
C159 C157 1.433 . S
C159 N162 1.384 . S
C160 H151 0.929 . S
C160 C152 1.378 . S
C160 C155 1.350 . S
C161 H148 0.929 . S
C161 C153 1.433 . S
C161 N163 1.384 . S
N162 C158 1.427 . S
N162 C159 1.384 . S
N163 C155 1.427 . S
N163 C161 1.384 . S
H164 C170 0.930 . S
H165 C174 0.930 . S
H166 C179 0.929 . S
H167 C177 0.929 . S
H168 C172 0.929 . S
H169 C178 0.929 . S
C170 H164 0.930 . S
C170 C171 1.367 . S
C170 C178 1.378 . S
C171 C170 1.367 . S
C171 C179 1.433 . S
C172 H168 0.929 . S
C172 C174 1.378 . S
C172 C176 1.350 . S
C173 C176 1.463 1_566 S
C173 C178 1.350 . S
C173 N181 1.427 . S
C174 H165 0.930 . S
C174 C172 1.378 . S
C174 C175 1.367 . S
C175 C174 1.367 . S
C175 C177 1.433 . S
C176 C172 1.350 . S
C176 C173 1.463 1_544 S
C176 N180 1.427 . S
C177 H167 0.929 . S
C177 C175 1.433 . S
C177 N180 1.384 . S
C178 H169 0.929 . S
C178 C170 1.378 . S
C178 C173 1.350 . S
C179 H166 0.929 . S
C179 C171 1.433 . S
C179 N181 1.384 . S
N180 C176 1.427 . S
N180 C177 1.384 . S
N181 C173 1.427 . S
N181 C179 1.384 . S
H182 C188 0.928 1_655 S
H183 C192 0.930 . S
H184 C197 0.929 . S
H185 C195 0.929 . S
H186 C190 0.929 . S
H187 C196 0.926 1_655 S
C188 H182 0.928 1_455 S
C188 C189 1.369 . S
C188 C196 1.378 1_554 S
C189 C188 1.369 . S
C189 C197 1.433 . S
C190 H186 0.929 . S
C190 C192 1.378 1_554 S
C190 C194 1.350 1_554 S
C191 C194 1.463 1_564 S
C191 C196 1.352 1_554 S
C191 N199 1.427 . S
C192 H183 0.930 . S
C192 C190 1.378 1_556 S
C192 C193 1.367 . S
C193 C192 1.367 . S
C193 C195 1.433 1_455 S
C194 C190 1.350 1_556 S
C194 C191 1.463 1_546 S
C194 N198 1.429 . S
C195 H185 0.929 . S
C195 C193 1.433 1_655 S
C195 N198 1.384 1_655 S
C196 H187 0.926 1_455 S
C196 C188 1.378 1_556 S
C196 C191 1.352 1_556 S
C197 H184 0.929 . S
C197 C189 1.433 . S
C197 N199 1.384 . S
N198 C194 1.429 . S
N198 C195 1.384 1_455 S
N199 C191 1.427 . S
N199 C197 1.384 . S
H200 C206 0.930 . S
H201 C210 0.930 . S
H202 C215 0.929 . S
H203 C213 0.929 . S
H204 C208 0.929 . S
H205 C214 0.929 . S
C206 H200 0.930 . S
C206 C207 1.367 . S
C206 C214 1.378 . S
C207 C206 1.367 . S
C207 C215 1.433 . S
C208 H204 0.929 . S
C208 C210 1.378 . S
C208 C212 1.350 . S
C209 C212 1.463 . S
C209 C214 1.350 . S
C209 N217 1.427 . S
C210 H201 0.930 . S
C210 C208 1.378 . S
C210 C211 1.367 . S
C211 C210 1.367 . S
C211 C213 1.433 . S
C212 C208 1.350 . S
C212 C209 1.463 . S
C212 N216 1.427 . S
C213 H203 0.929 . S
C213 C211 1.433 . S
C213 N216 1.384 . S
C214 H205 0.929 . S
C214 C206 1.378 . S
C214 C209 1.350 . S
C215 H202 0.929 . S
C215 C207 1.433 . S
C215 N217 1.384 . S
N216 C212 1.427 . S
N216 C213 1.384 . S
N217 C209 1.427 . S
N217 C215 1.384 . S
H218 C224 0.930 . S
H219 C228 0.930 . S
H220 C233 0.929 . S
H221 C231 0.929 . S
H222 C226 0.929 . S
H223 C232 0.929 . S
C224 H218 0.930 . S
C224 C225 1.367 . S
C224 C232 1.378 . S
C225 C224 1.367 . S
C225 C233 1.433 . S
C226 H222 0.929 . S
C226 C228 1.378 . S
C226 C230 1.350 . S
C227 C230 1.463 . S
C227 C232 1.350 . S
C227 N235 1.427 . S
C228 H219 0.930 . S
C228 C226 1.378 . S
C228 C229 1.367 . S
C229 C228 1.367 . S
C229 C231 1.433 . S
C230 C226 1.350 . S
C230 C227 1.463 . S
C230 N234 1.427 . S
C231 H221 0.929 . S
C231 C229 1.433 . S
C231 N234 1.384 . S
C232 H223 0.929 . S
C232 C224 1.378 . S
C232 C227 1.350 . S
C233 H220 0.929 . S
C233 C225 1.433 . S
C233 N235 1.384 . S
N234 C230 1.427 . S
N234 C231 1.384 . S
N235 C227 1.427 . S
N235 C233 1.384 . S
H236 C242 0.930 . S
H237 C246 0.930 . S
H238 C251 0.929 . S
H239 C249 0.929 . S
H240 C244 0.929 . S
H241 C250 0.929 . S
C242 H236 0.930 . S
C242 C243 1.367 . S
C242 C250 1.378 . S
C243 C242 1.367 . S
C243 C251 1.433 . S
C244 H240 0.929 . S
C244 C246 1.378 . S
C244 C248 1.350 . S
C245 C248 1.463 . S
C245 C250 1.350 . S
C245 N253 1.427 . S
C246 H237 0.930 . S
C246 C244 1.378 . S
C246 C247 1.367 . S
C247 C246 1.367 . S
C247 C249 1.433 . S
C248 C244 1.350 . S
C248 C245 1.463 . S
C248 N252 1.427 . S
C249 H239 0.929 . S
C249 C247 1.433 . S
C249 N252 1.384 . S
C250 H241 0.929 . S
C250 C242 1.378 . S
C250 C245 1.350 . S
C251 H238 0.929 . S
C251 C243 1.433 . S
C251 N253 1.384 . S
N252 C248 1.427 . S
N252 C249 1.384 . S
N253 C245 1.427 . S
N253 C251 1.384 . S
H254 C260 0.930 . S
H255 C264 0.930 . S
H256 C269 0.929 . S
H257 C267 0.929 . S
H258 C262 0.929 . S
H259 C268 0.929 . S
C260 H254 0.930 . S
C260 C261 1.367 . S
C260 C268 1.378 . S
C261 C260 1.367 . S
C261 C269 1.433 . S
C262 H258 0.929 . S
C262 C264 1.378 . S
C262 C266 1.350 . S
C263 C266 1.463 . S
C263 C268 1.350 . S
C263 N271 1.427 . S
C264 H255 0.930 . S
C264 C262 1.378 . S
C264 C265 1.367 . S
C265 C264 1.367 . S
C265 C267 1.433 . S
C266 C262 1.350 . S
C266 C263 1.463 . S
C266 N270 1.427 . S
C267 H257 0.929 . S
C267 C265 1.433 . S
C267 N270 1.384 . S
C268 H259 0.929 . S
C268 C260 1.378 . S
C268 C263 1.350 . S
C269 H256 0.929 . S
C269 C261 1.433 . S
C269 N271 1.384 . S
N270 C266 1.427 . S
N270 C267 1.384 . S
N271 C263 1.427 . S
N271 C269 1.384 . S
H272 C278 0.930 . S
H273 C282 0.930 . S
H274 C287 0.929 . S
H275 C285 0.929 . S
H276 C280 0.929 . S
H277 C286 0.929 . S
C278 H272 0.930 . S
C278 C279 1.367 . S
C278 C286 1.378 . S
C279 C278 1.367 . S
C279 C287 1.433 1_556 S
C280 H276 0.929 . S
C280 C282 1.378 . S
C280 C284 1.350 . S
C281 C284 1.463 1_556 S
C281 C286 1.350 . S
C281 N289 1.427 1_556 S
C282 H273 0.930 . S
C282 C280 1.378 . S
C282 C283 1.367 . S
C283 C282 1.367 . S
C283 C285 1.433 1_554 S
C284 C280 1.350 . S
C284 C281 1.463 1_554 S
C284 N288 1.427 1_554 S
C285 H275 0.929 . S
C285 C283 1.433 1_556 S
C285 N288 1.384 . S
C286 H277 0.929 . S
C286 C278 1.378 . S
C286 C281 1.350 . S
C287 H274 0.929 . S
C287 C279 1.433 1_554 S
C287 N289 1.384 . S
N288 C284 1.427 1_556 S
N288 C285 1.384 . S
N289 C281 1.427 1_554 S
N289 C287 1.384 . S
H290 C296 0.930 . S
H291 C300 0.930 . S
H292 C305 0.929 . S
H293 C303 0.929 . S
H294 C298 0.929 . S
H295 C304 0.929 . S
C296 H290 0.930 . S
C296 C297 1.367 . S
C296 C304 1.378 . S
C297 C296 1.367 . S
C297 C305 1.433 1_556 S
C298 H294 0.929 . S
C298 C300 1.378 . S
C298 C302 1.350 . S
C299 C302 1.463 1_556 S
C299 C304 1.350 . S
C299 N307 1.427 1_556 S
C300 H291 0.930 . S
C300 C298 1.378 . S
C300 C301 1.367 . S
C301 C300 1.367 . S
C301 C303 1.433 1_554 S
C302 C298 1.350 . S
C302 C299 1.463 1_554 S
C302 N306 1.427 1_554 S
C303 H293 0.929 . S
C303 C301 1.433 1_556 S
C303 N306 1.384 . S
C304 H295 0.929 . S
C304 C296 1.378 . S
C304 C299 1.350 . S
C305 H292 0.929 . S
C305 C297 1.433 1_554 S
C305 N307 1.384 . S
N306 C302 1.427 1_556 S
N306 C303 1.384 . S
N307 C299 1.427 1_554 S
N307 C305 1.384 . S
H308 C314 0.930 . S
H309 C318 0.930 . S
H310 C323 0.929 1_556 S
H311 C321 0.929 1_554 S
H312 C316 0.929 . S
H313 C322 0.929 . S
C314 H308 0.930 . S
C314 C315 1.367 . S
C314 C322 1.378 . S
C315 C314 1.367 . S
C315 C323 1.433 . S
C316 H312 0.929 . S
C316 C318 1.378 . S
C316 C320 1.350 . S
C317 C320 1.463 1_554 S
C317 C322 1.350 . S
C317 N325 1.427 1_554 S
C318 H309 0.930 . S
C318 C316 1.378 . S
C318 C319 1.367 . S
C319 C318 1.367 . S
C319 C321 1.433 . S
C320 C316 1.350 . S
C320 C317 1.463 1_556 S
C320 N324 1.427 1_556 S
C321 H311 0.929 1_556 S
C321 C319 1.433 . S
C321 N324 1.384 1_556 S
C322 H313 0.929 . S
C322 C314 1.378 . S
C322 C317 1.350 . S
C323 H310 0.929 1_554 S
C323 C315 1.433 . S
C323 N325 1.384 1_554 S
N324 C320 1.427 1_554 S
N324 C321 1.384 1_554 S
N325 C317 1.427 1_556 S
N325 C323 1.384 1_556 S
H326 C332 0.930 . S
H327 C336 0.930 . S
H328 C341 0.929 . S
H329 C339 0.929 . S
H330 C334 0.929 1_554 S
H331 C340 0.929 1_556 S
C332 H326 0.930 . S
C332 C333 1.367 . S
C332 C340 1.378 . S
C333 C332 1.367 . S
C333 C341 1.433 . S
C334 H330 0.929 1_556 S
C334 C336 1.378 . S
C334 C338 1.350 . S
C335 C338 1.463 1_554 S
C335 C340 1.350 . S
C335 N343 1.427 . S
C336 H327 0.930 . S
C336 C334 1.378 . S
C336 C337 1.367 . S
C337 C336 1.367 . S
C337 C339 1.433 . S
C338 C334 1.350 . S
C338 C335 1.463 1_556 S
C338 N342 1.427 . S
C339 H329 0.929 . S
C339 C337 1.433 . S
C339 N342 1.384 . S
C340 H331 0.929 1_554 S
C340 C332 1.378 . S
C340 C335 1.350 . S
C341 H328 0.929 . S
C341 C333 1.433 . S
C341 N343 1.384 . S
N342 C338 1.427 . S
N342 C339 1.384 . S
N343 C335 1.427 . S
N343 C341 1.384 . S
C135 N82 1.911 . S
C139 N13 1.916 . S
C153 N45 1.923 . S
C157 N109 1.914 . S
C171 N114 1.923 . S
C175 N50 1.913 . S
C189 N18 1.910 . S
C193 N77 1.916 . S
C207 C100 1.562 . S
C211 C4 1.563 . S
C225 C93 1.562 . S
C229 C36 1.564 . S
C243 C68 1.561 . S
C247 C61 1.560 . S
C261 C29 1.563 . S
C265 C125 1.564 . S
C279 C98 0.765 . S
C283 C2 0.765 . S
C297 C70 0.761 . S
C301 C34 0.761 . S
C315 C38 0.767 . S
C319 C66 0.766 . S
C333 C6 0.773 . S
C337 C102 0.774 . S
