# Generated by pormake.
# Topology uou, (4)-cn, num edge types: 1
# Building blocks:
#     Node 0, Type 0, BuildingBlock: QUQFOY_clean_sbu_3, # of connection points: 4
#     Node 1, Type 0, BuildingBlock: QUQFOY_clean_sbu_3, # of connection points: 4
#     Node 2, Type 0, BuildingBlock: QUQFOY_clean_sbu_3, # of connection points: 4
#     Node 3, Type 0, BuildingBlock: QUQFOY_clean_sbu_3, # of connection points: 4
#     Node 4, Type 0, BuildingBlock: QUQFOY_clean_sbu_3, # of connection points: 4
#     Node 5, Type 0, BuildingBlock: QUQFOY_clean_sbu_3, # of connection points: 4
#     Node 6, Type 0, BuildingBlock: QUQFOY_clean_sbu_3, # of connection points: 4
#     Node 7, Type 0, BuildingBlock: QUQFOY_clean_sbu_3, # of connection points: 4
#     Node 8, Type 0, BuildingBlock: QUQFOY_clean_sbu_3, # of connection points: 4
#     Node 9, Type 0, BuildingBlock: QUQFOY_clean_sbu_3, # of connection points: 4
#     Node 10, Type 0, BuildingBlock: QUQFOY_clean_sbu_3, # of connection points: 4
#     Node 11, Type 0, BuildingBlock: QUQFOY_clean_sbu_3, # of connection points: 4
#     Node 12, Type 0, BuildingBlock: QUQFOY_clean_sbu_3, # of connection points: 4
#     Node 13, Type 0, BuildingBlock: QUQFOY_clean_sbu_3, # of connection points: 4
#     Node 14, Type 0, BuildingBlock: QUQFOY_clean_sbu_3, # of connection points: 4
#     Node 15, Type 0, BuildingBlock: QUQFOY_clean_sbu_3, # of connection points: 4
#     Edge 16, Type (0, 0), BuildingBlock: XUDNAN_clean_linker_2, # of connection points: 2
#     Edge 17, Type (0, 0), BuildingBlock: XUDNAN_clean_linker_2, # of connection points: 2
#     Edge 18, Type (0, 0), BuildingBlock: XUDNAN_clean_linker_2, # of connection points: 2
#     Edge 19, Type (0, 0), BuildingBlock: XUDNAN_clean_linker_2, # of connection points: 2
#     Edge 20, Type (0, 0), BuildingBlock: XUDNAN_clean_linker_2, # of connection points: 2
#     Edge 21, Type (0, 0), BuildingBlock: XUDNAN_clean_linker_2, # of connection points: 2
#     Edge 22, Type (0, 0), BuildingBlock: XUDNAN_clean_linker_2, # of connection points: 2
#     Edge 23, Type (0, 0), BuildingBlock: XUDNAN_clean_linker_2, # of connection points: 2
#     Edge 24, Type (0, 0), BuildingBlock: XUDNAN_clean_linker_2, # of connection points: 2
#     Edge 25, Type (0, 0), BuildingBlock: XUDNAN_clean_linker_2, # of connection points: 2
#     Edge 26, Type (0, 0), BuildingBlock: XUDNAN_clean_linker_2, # of connection points: 2
#     Edge 27, Type (0, 0), BuildingBlock: XUDNAN_clean_linker_2, # of connection points: 2
#     Edge 28, Type (0, 0), BuildingBlock: XUDNAN_clean_linker_2, # of connection points: 2
#     Edge 29, Type (0, 0), BuildingBlock: XUDNAN_clean_linker_2, # of connection points: 2
#     Edge 30, Type (0, 0), BuildingBlock: XUDNAN_clean_linker_2, # of connection points: 2
#     Edge 31, Type (0, 0), BuildingBlock: XUDNAN_clean_linker_2, # of connection points: 2
#     Edge 32, Type (0, 0), BuildingBlock: XUDNAN_clean_linker_2, # of connection points: 2
#     Edge 33, Type (0, 0), BuildingBlock: XUDNAN_clean_linker_2, # of connection points: 2
#     Edge 34, Type (0, 0), BuildingBlock: XUDNAN_clean_linker_2, # of connection points: 2
#     Edge 35, Type (0, 0), BuildingBlock: XUDNAN_clean_linker_2, # of connection points: 2
#     Edge 36, Type (0, 0), BuildingBlock: XUDNAN_clean_linker_2, # of connection points: 2
#     Edge 37, Type (0, 0), BuildingBlock: XUDNAN_clean_linker_2, # of connection points: 2
#     Edge 38, Type (0, 0), BuildingBlock: XUDNAN_clean_linker_2, # of connection points: 2
#     Edge 39, Type (0, 0), BuildingBlock: XUDNAN_clean_linker_2, # of connection points: 2
#     Edge 40, Type (0, 0), BuildingBlock: XUDNAN_clean_linker_2, # of connection points: 2
#     Edge 41, Type (0, 0), BuildingBlock: XUDNAN_clean_linker_2, # of connection points: 2
#     Edge 42, Type (0, 0), BuildingBlock: XUDNAN_clean_linker_2, # of connection points: 2
#     Edge 43, Type (0, 0), BuildingBlock: XUDNAN_clean_linker_2, # of connection points: 2
#     Edge 44, Type (0, 0), BuildingBlock: XUDNAN_clean_linker_2, # of connection points: 2
#     Edge 45, Type (0, 0), BuildingBlock: XUDNAN_clean_linker_2, # of connection points: 2
#     Edge 46, Type (0, 0), BuildingBlock: XUDNAN_clean_linker_2, # of connection points: 2
#     Edge 47, Type (0, 0), BuildingBlock: XUDNAN_clean_linker_2, # of connection points: 2
# Relax obj value: 0.038
# Max RMSD: 0.066
# Mean RMSD: 0.066
data_MOF--net-uou--node1-QUQFOY_clean_sbu_3--edge1-XUDNAN_clean_linker_2
_symmetry_space_group_name_H-M    P1
_symmetry_Int_Tables_number       1
_symmetry_cell_setting            triclinic
loop_
_symmetry_equiv_pos_as_xyz
'x, y, z'
_cell_length_a     40.030961
_cell_length_b     40.283651
_cell_length_c     55.552444
_cell_angle_alpha  89.97473
_cell_angle_beta   89.908047
_cell_angle_gamma 90.13356
loop_
_atom_site_label
_atom_site_type_symbol
_atom_site_fract_x
_atom_site_fract_y
_atom_site_fract_z
_atom_type_partial_charge
C0 C 0.98999 0.03104 0.14014 0.0
O1 O 0.96676 0.03445 0.1248 0.0
Cd2 Cd 0.97722 0.0468 0.0839 0.0
O3 O 0.02062 0.03383 0.13398 0.0
Cd4 Cd 0.05677 0.04336 0.0981 0.0
C5 C 0.0222 0.11982 0.09142 0.0
O6 O 0.02051 0.00768 0.0762 0.0
O7 O 0.05754 0.03138 0.0541 0.0
O8 O 0.09343 0.00894 0.1228 0.0
C9 C 0.03372 0.01071 0.05572 0.0
O10 O -0.00456 0.10491 0.08526 0.0
C11 C 0.12041 0.01829 0.1129 0.0
O12 O 0.04813 0.1035 0.09744 0.0
O13 O 0.1181 0.03993 0.09636 0.0
C14 C 0.46486 0.96953 0.17126 0.0
O15 O 0.49254 0.97293 0.1603 0.0
Cd16 Cd 0.50046 0.9569 0.11959 0.0
O17 O 0.43972 0.95631 0.16088 0.0
Cd18 Cd 0.42017 0.93156 0.12241 0.0
C19 C 0.48072 0.87233 0.12365 0.0
O20 O 0.44945 0.97601 0.10317 0.0
O21 O 0.42532 0.94241 0.07877 0.0
O22 O 0.36961 0.94916 0.14339 0.0
C23 C 0.44315 0.96811 0.08167 0.0
O24 O 0.50138 0.89623 0.12118 0.0
C25 C 0.34926 0.93639 0.1286 0.0
O26 O 0.44934 0.87769 0.12517 0.0
O27 O 0.36161 0.92015 0.11117 0.0
C28 C 0.49508 0.97919 0.34213 0.0
O29 O 0.47522 0.98052 0.35994 0.0
Cd30 Cd 0.48809 0.95233 0.39651 0.0
O31 O 0.52368 0.96556 0.34409 0.0
Cd32 Cd 0.56368 0.93922 0.37206 0.0
C33 C 0.50886 0.87554 0.37037 0.0
O34 O 0.54339 0.96791 0.40642 0.0
O35 O 0.57569 0.92667 0.4145 0.0
O36 O 0.60017 0.9823 0.3575 0.0
C37 C 0.55803 0.95055 0.42216 0.0
O38 O 0.48965 0.89533 0.38173 0.0
C39 C 0.62625 0.96471 0.35556 0.0
O40 O 0.53824 0.88432 0.3639 0.0
O41 O 0.62319 0.93386 0.36017 0.0
C42 C 0.97334 0.02141 0.31454 0.0
O43 O 0.00148 0.01771 0.32471 0.0
Cd44 Cd 0.01024 0.03062 0.36635 0.0
O45 O 0.94817 0.03198 0.32625 0.0
Cd46 Cd 0.92894 0.04972 0.36608 0.0
C47 C 0.98592 0.11332 0.36531 0.0
O48 O 0.962 0.00913 0.38608 0.0
O49 O 0.93708 0.04348 0.40977 0.0
O50 O 0.87889 0.0169 0.35909 0.0
C51 C 0.95624 0.01862 0.40738 0.0
O52 O 0.00852 0.09122 0.36717 0.0
C53 C 0.85847 0.04078 0.36096 0.0
O54 O 0.95512 0.10524 0.36374 0.0
O55 O 0.87072 0.06923 0.36562 0.0
C56 C 0.97492 0.98689 0.81465 0.0
O57 O -0.00042 0.98782 0.82898 0.0
Cd58 Cd -0.00327 0.96083 0.86757 0.0
O59 O 0.9479 0.97225 0.82048 0.0
Cd60 Cd 0.91762 0.94234 0.85215 0.0
C61 C 0.97519 0.88086 0.84833 0.0
O62 O 0.94337 0.97293 0.88424 0.0
O63 O 0.91204 0.93189 0.8951 0.0
O64 O 0.87687 0.98223 0.83959 0.0
C65 C 0.93152 0.9553 0.90113 0.0
O66 O -0.00464 0.90238 0.85683 0.0
C67 C 0.85174 0.96306 0.83988 0.0
O68 O 0.94478 0.8882 0.84375 0.0
O69 O 0.85702 0.93283 0.84543 0.0
C70 C 0.49482 0.0072 0.84668 0.0
O71 O 0.47282 0.00502 0.86312 0.0
Cd72 Cd 0.4807 0.02955 0.90206 0.0
O73 O 0.52267 0.02154 0.85063 0.0
Cd74 Cd 0.55725 0.04933 0.88101 0.0
C75 C 0.49863 0.11057 0.884 0.0
O76 O 0.53645 0.01649 0.91315 0.0
O77 O 0.56774 0.05732 0.92424 0.0
O78 O 0.60353 0.01451 0.86878 0.0
C79 C 0.54958 0.03277 0.93018 0.0
O80 O 0.47913 0.08905 0.89337 0.0
C81 C 0.62292 0.03811 0.86289 0.0
O82 O 0.52812 0.10287 0.87722 0.0
O83 O 0.6118 0.06748 0.86544 0.0
C84 C 0.48475 0.00771 0.67378 0.0
O85 O 0.51314 0.00479 0.66378 0.0
Cd86 Cd 0.52292 0.01871 0.62232 0.0
O87 O 0.45993 0.01921 0.66222 0.0
Cd88 Cd 0.4438 0.03992 0.62242 0.0
C89 C 0.50251 0.10197 0.62069 0.0
O90 O 0.47516 -0.00194 0.60145 0.0
O91 O 0.45157 0.03487 0.57899 0.0
O92 O 0.38679 0.06264 0.62322 0.0
C93 C 0.46937 0.00893 0.5805 0.0
O94 O 0.52436 0.07909 0.61942 0.0
C95 C 0.37277 0.03449 0.62579 0.0
O96 O 0.47157 0.0949 0.6231 0.0
O97 O 0.39173 0.00936 0.62652 0.0
C98 C 0.00975 0.98864 0.64476 0.0
O99 O 0.98816 0.99089 0.62812 0.0
Cd100 Cd -0.00523 0.96335 0.59037 0.0
O101 O 0.03743 0.97385 0.64113 0.0
Cd102 Cd 0.07215 0.94698 0.60985 0.0
C103 C 0.01589 0.8841 0.61162 0.0
O104 O 0.0491 0.97766 0.57715 0.0
O105 O 0.08042 0.93671 0.56666 0.0
O106 O 0.11143 0.98821 0.62295 0.0
C107 C 0.06194 0.96071 0.56036 0.0
O108 O -0.00415 0.90504 0.60232 0.0
C109 C 0.13674 0.96945 0.62421 0.0
O110 O 0.04594 0.89206 0.6169 0.0
O111 O 0.13214 0.93883 0.61946 0.0
C112 C 0.49796 0.53576 0.15112 0.0
O113 O 0.47639 0.53985 0.13466 0.0
Cd114 Cd 0.48978 0.56234 0.0962 0.0
O115 O 0.52881 0.54151 0.14711 0.0
Cd116 Cd 0.56648 0.5574 0.11344 0.0
C117 C 0.53128 0.63387 0.11394 0.0
O118 O 0.53536 0.53009 0.08198 0.0
O119 O 0.57319 0.56431 0.06973 0.0
O120 O 0.60019 0.51022 0.1254 0.0
C121 C 0.55134 0.54266 0.06454 0.0
O122 O 0.50594 0.61966 0.10462 0.0
C123 C 0.62816 0.52502 0.12462 0.0
O124 O 0.55699 0.61713 0.11994 0.0
O125 O 0.6276 0.55587 0.11971 0.0
C126 C 0.97351 0.46056 0.13545 0.0
O127 O -0.0003 0.46329 0.12269 0.0
Cd128 Cd -0.00088 0.44265 0.08194 0.0
O129 O 0.94725 0.44714 0.12703 0.0
Cd130 Cd 0.92107 0.42148 0.09207 0.0
C131 C 0.97963 0.36016 0.09286 0.0
O132 O 0.94725 0.45842 0.06353 0.0
O133 O 0.91916 0.41756 0.04839 0.0
O134 O 0.87373 0.45618 0.10194 0.0
C135 C 0.93682 0.44334 0.04495 0.0
O136 O 0.00041 0.38271 0.08691 0.0
C137 C 0.85253 0.43294 0.10409 0.0
O138 O 0.94897 0.36705 0.09678 0.0
O139 O 0.86302 0.40355 0.10046 0.0
C140 C 0.98373 0.44733 0.30844 0.0
O141 O 0.95819 0.44118 0.3213 0.0
Cd142 Cd 0.95944 0.42574 0.36245 0.0
O143 O 0.01312 0.44576 0.31723 0.0
Cd144 Cd 0.03964 0.43596 0.35713 0.0
C145 C 0.00996 0.35654 0.36048 0.0
O146 O -0.00324 0.46681 0.37724 0.0
O147 O 0.03191 0.44383 0.40121 0.0
O148 O 0.07627 0.48152 0.34593 0.0
C149 C 0.00705 0.46292 0.39849 0.0
O150 O 0.98121 0.36923 0.36376 0.0
C151 C 0.10345 0.4676 0.35176 0.0
O152 O 0.03541 0.37496 0.35678 0.0
O153 O 0.10138 0.438 0.35958 0.0
C154 C 0.45448 0.53835 0.32228 0.0
O155 O 0.48113 0.54163 0.33444 0.0
Cd156 Cd 0.48182 0.56275 0.3749 0.0
O157 O 0.42633 0.54633 0.33123 0.0
Cd158 Cd 0.4021 0.56867 0.36851 0.0
C159 C 0.44911 0.63986 0.36481 0.0
O160 O 0.43641 0.53592 0.39564 0.0
O161 O 0.40437 0.5725 0.41223 0.0
O162 O 0.35383 0.53208 0.36299 0.0
C163 C 0.42505 0.54896 0.41473 0.0
O164 O 0.4745 0.62273 0.37072 0.0
C165 C 0.33238 0.55523 0.36235 0.0
O166 O 0.4207 0.62608 0.36188 0.0
O167 O 0.34334 0.58469 0.36462 0.0
C168 C 0.48606 0.43855 0.82383 0.0
O169 O 0.51082 0.4351 0.83784 0.0
Cd170 Cd 0.50808 0.42377 0.87928 0.0
O171 O 0.45609 0.43645 0.83168 0.0
Cd172 Cd 0.42893 0.4286 0.87212 0.0
C173 C 0.462 0.35149 0.87735 0.0
O174 O 0.46902 0.46515 0.89095 0.0
O175 O 0.43775 0.4387 0.91576 0.0
O176 O 0.38392 0.4643 0.85615 0.0
C177 C 0.45957 0.46102 0.91239 0.0
O178 O 0.48975 0.36592 0.88138 0.0
C179 C 0.36156 0.45223 0.86982 0.0
O180 O 0.43589 0.36828 0.87264 0.0
O181 O 0.37006 0.42841 0.88338 0.0
C182 C 0.02567 0.54896 0.80637 0.0
O183 O -0.00255 0.55201 0.81658 0.0
Cd184 Cd 0.98941 0.56686 0.8574 0.0
O185 O 0.05271 0.55412 0.81796 0.0
Cd186 Cd 0.06946 0.56965 0.85963 0.0
C187 C 0.02749 0.64314 0.85566 0.0
O188 O 0.02922 0.53146 0.87635 0.0
O189 O 0.0539 0.56194 0.90258 0.0
O190 O 0.11974 0.53745 0.84933 0.0
C191 C 0.03424 0.53801 0.89825 0.0
O192 O 0.00057 0.62658 0.85811 0.0
C193 C 0.13896 0.5535 0.86328 0.0
O194 O 0.05563 0.62847 0.8547 0.0
O195 O 0.12624 0.57764 0.87471 0.0
C196 C 0.98586 0.54698 0.63492 0.0
O197 O 0.00687 0.55171 0.61811 0.0
Cd198 Cd -0.00679 0.57497 0.58007 0.0
O199 O 0.95494 0.55344 0.63185 0.0
Cd200 Cd 0.91696 0.57388 0.59974 0.0
C201 C 0.9586 0.64819 0.59985 0.0
O202 O 0.94483 0.54466 0.56795 0.0
O203 O 0.90853 0.58043 0.55599 0.0
O204 O 0.87353 0.53252 0.60869 0.0
C205 C 0.9287 0.55731 0.55072 0.0
O206 O 0.98272 0.63335 0.5895 0.0
C207 C 0.8504 0.55348 0.61219 0.0
O208 O 0.9323 0.63235 0.60598 0.0
O209 O 0.8585 0.58395 0.61092 0.0
C210 C 0.50993 0.42987 0.64918 0.0
O211 O 0.48234 0.42426 0.63867 0.0
Cd212 Cd 0.48088 0.41164 0.59667 0.0
O213 O 0.5374 0.4293 0.63754 0.0
Cd214 Cd 0.5631 0.42194 0.59751 0.0
C215 C 0.53234 0.34257 0.59763 0.0
O216 O 0.51812 0.45238 0.5804 0.0
O217 O 0.55229 0.43297 0.55401 0.0
O218 O 0.59771 0.46677 0.61245 0.0
C219 C 0.5266 0.45031 0.55856 0.0
O220 O 0.50341 0.35538 0.59565 0.0
C221 C 0.62563 0.45521 0.60573 0.0
O222 O 0.55832 0.36088 0.59913 0.0
O223 O 0.625 0.42739 0.59488 0.0
H224 H 0.30668 0.95373 0.09263 0.0
H225 H 0.31158 0.93568 0.16943 0.0
H226 H 0.25224 0.95213 0.17354 0.0
H227 H 0.2599 0.02744 0.09777 0.0
H228 H 0.23579 0.02098 0.07079 0.0
H229 H 0.27698 0.0035 0.07327 0.0
H230 H 0.25318 0.94487 0.06451 0.0
H231 H 0.21192 0.96222 0.06176 0.0
H232 H 0.21946 0.92894 0.08274 0.0
H233 H 0.19264 0.97127 0.16917 0.0
H234 H 0.13853 -0.00403 0.15731 0.0
H235 H 0.17482 0.00751 0.08419 0.0
C236 C 0.29489 0.95243 0.11017 0.0
C237 C 0.31319 0.94273 0.13066 0.0
C238 C 0.2976 0.94259 0.15352 0.0
C239 C 0.26401 0.95188 0.156 0.0
C240 C 0.24672 0.96193 0.13549 0.0
C241 C 0.26171 0.9626 0.11304 0.0
C242 C 0.23867 0.97741 0.09431 0.0
C243 C 0.25374 0.00922 0.0834 0.0
C244 C 0.23031 0.95183 0.07467 0.0
C245 C 0.20842 0.98506 0.10971 0.0
C246 C 0.21334 0.97537 0.13332 0.0
C247 C 0.18858 0.97913 0.15077 0.0
C248 C 0.158 0.99316 0.1439 0.0
C249 C 0.1528 0.00395 0.11996 0.0
C250 C 0.1784 -8e-05 0.10271 0.0
H251 H 0.68887 0.93636 0.35696 0.0
H252 H 0.63752 0.02944 0.34386 0.0
H253 H 0.69157 0.05855 0.34183 0.0
H254 H 0.7499 0.96785 0.39513 0.0
H255 H 0.78368 0.94253 0.38409 0.0
H256 H 0.74129 0.92791 0.38185 0.0
H257 H 0.74817 0.92024 0.33581 0.0
H258 H 0.79079 0.93442 0.33794 0.0
H259 H 0.76223 0.95467 0.31767 0.0
H260 H 0.75027 0.07883 0.34616 0.0
H261 H 0.81071 0.08789 0.35264 0.0
H262 H 0.82445 0.98174 0.36153 0.0
C263 C 0.68906 0.96269 0.35305 0.0
C264 C 0.65893 0.98058 0.35057 0.0
C265 C 0.66024 0.01515 0.34581 0.0
C266 C 0.69084 0.03197 0.34463 0.0
C267 C 0.72002 0.01387 0.34799 0.0
C268 C 0.71949 0.97992 0.35169 0.0
C269 C 0.75445 0.9667 0.35577 0.0
C270 C 0.75749 0.95029 0.38069 0.0
C271 C 0.7645 0.94258 0.33559 0.0
C272 C 0.77446 -0.00136 0.35445 0.0
C273 C 0.75412 0.02556 0.34993 0.0
C274 C 0.76658 0.0579 0.34931 0.0
C275 C 0.80087 0.06283 0.35316 0.0
C276 C 0.82225 0.03554 0.35743 0.0
C277 C 0.80877 0.00307 0.35801 0.0
H278 H 0.79108 0.93444 0.85092 0.0
H279 H 0.83632 0.02315 0.82063 0.0
H280 H 0.78132 0.05029 0.81971 0.0
H281 H 0.70948 0.94145 0.81794 0.0
H282 H 0.68617 0.9267 0.8436 0.0
H283 H 0.72822 0.91236 0.83853 0.0
H284 H 0.74463 0.93178 0.88138 0.0
H285 H 0.70283 0.9465 0.88648 0.0
H286 H 0.73776 0.97441 0.88991 0.0
H287 H 0.72363 0.07073 0.82739 0.0
H288 H 0.66578 0.08163 0.84083 0.0
H289 H 0.65729 0.97963 0.86533 0.0
C290 C 0.78919 0.95917 0.8434 0.0
C291 C 0.81795 0.97664 0.83579 0.0
C292 C 0.81461 0.00927 0.82655 0.0
C293 C 0.78345 0.02491 0.8259 0.0
C294 C 0.75576 0.00754 0.83436 0.0
C295 C 0.75816 0.97523 0.84264 0.0
C296 C 0.72493 0.96312 0.8524 0.0
C297 C 0.7114 0.93419 0.8372 0.0
C298 C 0.72773 0.9534 0.87912 0.0
C299 C 0.70395 0.99406 0.84914 0.0
C300 C 0.72213 0.01931 0.83853 0.0
C301 C 0.70888 0.05098 0.83529 0.0
C302 C 0.67611 0.057 0.84309 0.0
C303 C 0.65702 0.03145 0.85395 0.0
C304 C 0.67112 -0.00047 0.85675 0.0
H305 H 0.1981 0.93846 0.62209 0.0
H306 H 0.15079 0.03316 0.63703 0.0
H307 H 0.20603 0.05953 0.64071 0.0
H308 H 0.27004 0.95065 0.66305 0.0
H309 H 0.2987 0.93038 0.64281 0.0
H310 H 0.25536 0.9182 0.64336 0.0
H311 H 0.25136 0.92932 0.59751 0.0
H312 H 0.29453 0.94185 0.59686 0.0
H313 H 0.26273 0.9696 0.5859 0.0
H314 H 0.26581 0.07703 0.63882 0.0
H315 H 0.32698 0.08337 0.63456 0.0
H316 H 0.33593 0.9774 0.62203 0.0
C317 C 0.19941 0.96458 0.62663 0.0
C318 C 0.1701 0.98371 0.62927 0.0
C319 C 0.17286 0.01794 0.63492 0.0
C320 C 0.20415 0.03321 0.63705 0.0
C321 C 0.23253 0.01391 0.63369 0.0
C322 C 0.23055 0.98027 0.62892 0.0
C323 C 0.265 0.96558 0.62526 0.0
C324 C 0.27273 0.93967 0.64479 0.0
C325 C 0.2686 0.95072 0.59987 0.0
C326 C 0.28646 -0.00364 0.6282 0.0
C327 C 0.26722 0.02396 0.63306 0.0
C328 C 0.28124 0.05552 0.63534 0.0
C329 C 0.31594 0.05893 0.63277 0.0
C330 C 0.33617 0.03089 0.6281 0.0
C331 C 0.32113 -0.00075 0.62585 0.0
H332 H 0.82276 0.49384 0.10621 0.0
H333 H 0.80282 0.38875 0.11604 0.0
H334 H 0.74401 0.40164 0.12613 0.0
H335 H 0.76784 0.52429 0.1539 0.0
H336 H 0.75479 0.55989 0.13668 0.0
H337 H 0.79578 0.54258 0.13212 0.0
H338 H 0.78342 0.53573 0.0866 0.0
H339 H 0.74252 0.55314 0.091 0.0
H340 H 0.74692 0.51283 0.07729 0.0
H341 H 0.68697 0.42594 0.13337 0.0
H342 H 0.63525 0.45902 0.13463 0.0
H343 H 0.69243 0.54826 0.11926 0.0
C344 C 0.80615 0.47351 0.11073 0.0
C345 C 0.81739 0.44026 0.11045 0.0
C346 C 0.79474 0.41439 0.11617 0.0
C347 C 0.76136 0.4215 0.12204 0.0
C348 C 0.7511 0.45458 0.12207 0.0
C349 C 0.77281 0.48015 0.11646 0.0
C350 C 0.75513 0.51337 0.11633 0.0
C351 C 0.76923 0.53639 0.13593 0.0
C352 C 0.75711 0.52971 0.09132 0.0
C353 C 0.71985 0.50248 0.12228 0.0
C354 C 0.71817 0.46854 0.12586 0.0
C355 C 0.68804 0.45254 0.13075 0.0
C356 C 0.65878 0.47159 0.13144 0.0
C357 C 0.65977 0.50627 0.12709 0.0
C358 C 0.69087 0.52189 0.1229 0.0
H359 H 0.3006 0.49489 0.36511 0.0
H360 H 0.28283 0.59968 0.35229 0.0
H361 H 0.22274 0.58807 0.34665 0.0
H362 H 0.24034 0.4631 0.32233 0.0
H363 H 0.22751 0.42911 0.34135 0.0
H364 H 0.26935 0.44538 0.34351 0.0
H365 H 0.26089 0.45564 0.38916 0.0
H366 H 0.21907 0.43933 0.38716 0.0
H367 H 0.22602 0.48031 0.39919 0.0
H368 H 0.1649 0.56525 0.34235 0.0
H369 H 0.11229 0.53338 0.34207 0.0
H370 H 0.16703 0.44345 0.3591 0.0
C371 C 0.28409 0.51537 0.36099 0.0
C372 C 0.2964 0.54819 0.35902 0.0
C373 C 0.27395 0.57435 0.35387 0.0
C374 C 0.23981 0.56799 0.35056 0.0
C375 C 0.2285 0.53537 0.35261 0.0
C376 C 0.24988 0.5095 0.35787 0.0
C377 C 0.23106 0.4769 0.35994 0.0
C378 C 0.24277 0.45217 0.34063 0.0
C379 C 0.23446 0.46219 0.38538 0.0
C380 C 0.19572 0.48853 0.35515 0.0
C381 C 0.19491 0.52229 0.35073 0.0
C382 C 0.1652 0.53881 0.3458 0.0
C383 C 0.13545 0.52044 0.34564 0.0
C384 C 0.13552 0.48591 0.35058 0.0
C385 C 0.16616 0.46979 0.35526 0.0
H386 H 0.18287 0.52427 0.83159 0.0
H387 H 0.17269 0.55787 0.90541 0.0
H388 H 0.22838 0.53517 0.91486 0.0
H389 H 0.22615 0.44913 0.84291 0.0
H390 H 0.25425 0.45266 0.81765 0.0
H391 H 0.2136 0.47164 0.81637 0.0
H392 H 0.24079 0.52865 0.80707 0.0
H393 H 0.28154 0.50978 0.80809 0.0
H394 H 0.27229 0.5449 0.82704 0.0
H395 H 0.28192 0.50403 0.91737 0.0
H396 H 0.33516 0.47421 0.91138 0.0
H397 H 0.3147 0.46635 0.83499 0.0
C398 C 0.1926 0.52705 0.84965 0.0
C399 C 0.17355 0.54265 0.86784 0.0
C400 C 0.18703 0.54614 0.89123 0.0
C401 C 0.21852 0.53317 0.89679 0.0
C402 C 0.23653 0.51752 0.87859 0.0
C403 C 0.22453 0.51512 0.85535 0.0
C404 C 0.24966 0.49808 0.83904 0.0
C405 C 0.23503 0.46598 0.82837 0.0
C406 C 0.26179 0.52177 0.81913 0.0
C407 C 0.27729 0.49066 0.8569 0.0
C408 C 0.26883 0.50166 0.87968 0.0
C409 C 0.28912 0.49583 0.89956 0.0
C410 C 0.31913 0.47874 0.89603 0.0
C411 C 0.32889 0.46836 0.87276 0.0
C412 C 0.30782 0.47447 0.8529 0.0
H413 H 0.69065 0.436 0.59634 0.0
H414 H 0.63145 0.51697 0.62523 0.0
H415 H 0.6827 0.54949 0.63204 0.0
H416 H 0.76103 0.44591 0.63774 0.0
H417 H 0.79189 0.43611 0.61519 0.0
H418 H 0.7506 0.41839 0.61328 0.0
H419 H 0.74405 0.44223 0.57022 0.0
H420 H 0.78531 0.45992 0.57199 0.0
H421 H 0.75006 0.48607 0.56524 0.0
H422 H 0.73965 0.57482 0.63348 0.0
H423 H 0.79914 0.5907 0.63017 0.0
H424 H 0.82221 0.49297 0.60189 0.0
C425 C 0.68853 0.46048 0.60423 0.0
C426 C 0.65697 0.47391 0.61022 0.0
C427 C 0.65528 0.50608 0.62049 0.0
C428 C 0.68428 0.52479 0.62448 0.0
C429 C 0.71493 0.51096 0.6183 0.0
C430 C 0.71735 0.47949 0.60852 0.0
C431 C 0.75345 0.47086 0.60308 0.0
C432 C 0.76491 0.44105 0.61824 0.0
C433 C 0.7585 0.4644 0.57603 0.0
C434 C 0.77077 0.50258 0.61096 0.0
C435 C 0.74805 0.52536 0.6197 0.0
C436 C 0.75777 0.55707 0.62694 0.0
C437 C 0.79158 0.56588 0.62497 0.0
C438 C 0.81532 0.543 0.61601 0.0
C439 C 0.80473 0.51081 0.60921 0.0
H440 H 0.023 0.01809 0.28071 0.0
H441 H 0.91541 0.01175 0.28976 0.0
H442 H 0.90861 0.00776 0.24578 0.0
H443 H 0.02161 0.07058 0.23177 0.0
H444 H 0.05659 0.05239 0.21618 0.0
H445 H 0.05378 0.04936 0.24841 0.0
H446 H 0.05788 0.98526 0.24578 0.0
H447 H 0.06104 0.9881 0.21347 0.0
H448 H 0.02899 0.9627 0.22702 0.0
H449 H 0.91275 0.01094 0.20136 0.0
H450 H 0.92766 0.02051 0.1589 0.0
H451 H 0.03259 0.0256 0.17855 0.0
C452 C -0.0019 0.01493 0.27346 0.0
C453 C 0.96975 0.01508 0.28858 0.0
C454 C 0.93748 0.01169 0.27844 0.0
C455 C 0.93336 0.00925 0.25352 0.0
C456 C 0.96175 0.01016 0.23905 0.0
C457 C -0.00648 0.01273 0.2486 0.0
C458 C 0.01957 0.01626 0.22899 0.0
C459 C 0.03901 0.0491 0.23149 0.0
C460 C 0.04327 0.98629 0.22881 0.0
C461 C -0.00268 0.01643 0.20701 0.0
C462 C 0.96413 0.0124 0.21321 0.0
C463 C 0.9387 0.01363 0.1962 0.0
C464 C 0.94742 0.01925 0.17214 0.0
C465 C 0.98129 0.02379 0.1654 0.0
C466 C 0.0065 0.02199 0.1831 0.0
H467 H 0.51582 0.98362 0.20209 0.0
H468 H 0.4077 0.97834 0.19773 0.0
H469 H 0.40374 0.99142 0.24107 0.0
H470 H 0.52274 0.94124 0.25451 0.0
H471 H 0.55732 0.96472 0.26647 0.0
H472 H 0.5514 0.96216 0.23451 0.0
H473 H 0.55022 0.02642 0.2318 0.0
H474 H 0.55608 0.02916 0.26391 0.0
H475 H 0.52098 0.04942 0.24997 0.0
H476 H 0.41171 -0.00263 0.28542 0.0
H477 H 0.4309 0.99083 0.32734 0.0
H478 H 0.53378 0.99066 0.30261 0.0
C479 C 0.49126 0.98617 0.21008 0.0
C480 C 0.46208 0.98018 0.19656 0.0
C481 C 0.43041 0.9829 0.20779 0.0
C482 C 0.4279 0.99061 0.23233 0.0
C483 C 0.45726 -0.00436 0.24529 0.0
C484 C 0.48836 0.99349 0.23453 0.0
C485 C 0.51612 -0.00469 0.25288 0.0
C486 C 0.53815 0.964 0.25204 0.0
C487 C 0.53708 0.02697 0.24943 0.0
C488 C 0.49578 -0.00306 0.27578 0.0
C489 C 0.46191 -0.00183 0.27103 0.0
C490 C 0.43816 -0.00298 0.28938 0.0
C491 C 0.4493 0.99332 0.31314 0.0
C492 C 0.48382 0.99017 0.31817 0.0
C493 C 0.50725 0.99319 0.2993 0.0
H494 H 0.04972 0.987 0.68464 0.0
H495 H 0.95178 0.01806 0.65997 0.0
H496 H 0.93597 0.03154 0.7017 0.0
H497 H 0.02369 0.94501 0.73335 0.0
H498 H 0.05752 0.95628 0.75313 0.0
H499 H 0.06393 0.95624 0.72115 0.0
H500 H 0.08315 0.01767 0.72278 0.0
H501 H 0.07692 0.01787 0.75494 0.0
H502 H 0.05642 0.04836 0.7364 0.0
H503 H 0.92675 0.03023 0.74561 0.0
H504 H 0.9254 0.01577 0.78876 0.0
H505 H 0.02974 0.98762 0.78551 0.0
C506 C 0.0253 -0.00237 0.68789 0.0
C507 C 0.00198 0.00145 0.66904 0.0
C508 C 0.97011 0.01499 0.6741 0.0
C509 C 0.96096 0.0229 0.69775 0.0
C510 C 0.98412 0.01763 0.71604 0.0
C511 C 0.01583 0.00573 0.71137 0.0
C512 C 0.03456 -0.00155 0.73443 0.0
C513 C 0.04553 0.96183 0.73557 0.0
C514 C 0.06454 0.022 0.73731 0.0
C515 C 0.00765 0.00599 0.75277 0.0
C516 C 0.97896 0.01766 0.74179 0.0
C517 C 0.94932 0.02213 0.75453 0.0
C518 C 0.94873 0.0137 0.77896 0.0
C519 C 0.97762 0.00109 0.79036 0.0
C520 C 0.00767 -0.00179 0.7773 0.0
H521 H 0.53315 0.00083 0.70803 0.0
H522 H 0.42605 0.99424 0.69697 0.0
H523 H 0.41797 0.98332 0.74027 0.0
H524 H 0.53872 0.9385 0.75827 0.0
H525 H 0.5697 0.963 0.77375 0.0
H526 H 0.56772 0.96365 0.74132 0.0
H527 H 0.56215 0.02776 0.74212 0.0
H528 H 0.56413 0.02728 0.77441 0.0
H529 H 0.52911 0.04641 0.75954 0.0
H530 H 0.42072 0.9806 0.78501 0.0
H531 H 0.43384 0.99007 0.82788 0.0
H532 H 0.53895 -0.00038 0.80972 0.0
C533 C 0.50811 -0.00387 0.71462 0.0
C534 C 0.48027 -0.00181 0.69919 0.0
C535 C 0.44776 0.99276 0.70853 0.0
C536 C 0.44293 0.98624 0.73305 0.0
C537 C 0.47086 0.98516 0.74793 0.0
C538 C 0.50284 0.98995 0.73907 0.0
C539 C 0.52815 0.9919 0.75918 0.0
C540 C 0.55251 0.9625 0.75806 0.0
C541 C 0.54696 0.02532 0.75879 0.0
C542 C 0.50521 0.98915 0.78073 0.0
C543 C 0.47239 0.98436 0.7739 0.0
C544 C 0.4464 0.98376 0.79064 0.0
C545 C 0.45408 0.98917 0.81493 0.0
C546 C 0.48739 -0.00435 0.82209 0.0
C547 C 0.51326 0.99459 0.80481 0.0
H548 H 0.53502 0.53514 0.19251 0.0
H549 H 0.43542 0.51572 0.16496 0.0
H550 H 0.41524 0.50614 0.20632 0.0
H551 H 0.53116 0.47542 0.2443 0.0
H552 H 0.55403 0.50341 0.26352 0.0
H553 H 0.56197 0.50305 0.23156 0.0
H554 H 0.54994 0.56618 0.22962 0.0
H555 H 0.54184 0.56674 0.26144 0.0
H556 H 0.51062 0.58167 0.24077 0.0
H557 H 0.40409 0.5068 0.25029 0.0
H558 H 0.40275 0.51756 0.29396 0.0
H559 H 0.50961 0.53619 0.2931 0.0
C560 C 0.50918 0.52795 0.19509 0.0
C561 C 0.48683 0.52608 0.17549 0.0
C562 C 0.45303 0.51725 0.17969 0.0
C563 C 0.44136 0.51159 0.20311 0.0
C564 C 0.46384 0.51457 0.22209 0.0
C565 C 0.49711 0.52231 0.21835 0.0
C566 C 0.51528 0.5274 0.24194 0.0
C567 C 0.5422 0.50072 0.24554 0.0
C568 C 0.53028 0.56258 0.24352 0.0
C569 C 0.48669 0.52282 0.25948 0.0
C570 C 0.45736 0.51488 0.24768 0.0
C571 C 0.427 0.51234 0.25981 0.0
C572 C 0.42647 0.51865 0.28459 0.0
C573 C 0.45612 0.52753 0.29693 0.0
C574 C 0.48668 0.52884 0.28425 0.0
H575 H 0.02877 0.44439 0.2711 0.0
H576 H 0.92743 0.47371 0.28904 0.0
H577 H 0.91775 0.4896 0.24689 0.0
H578 H 0.04368 0.50838 0.22327 0.0
H579 H 0.06637 0.4796 0.20459 0.0
H580 H 0.06759 0.47552 0.23691 0.0
H581 H 0.04686 0.4147 0.23348 0.0
H582 H 0.0458 0.41855 0.20125 0.0
H583 H 0.00875 0.40602 0.21738 0.0
H584 H 0.91606 0.49542 0.2031 0.0
H585 H 0.92146 0.48775 0.15929 0.0
H586 H 0.0238 0.45513 0.16853 0.0
C587 C 0.00482 0.45484 0.26619 0.0
C588 C 0.97888 0.45792 0.2833 0.0
C589 C 0.94762 0.47101 0.27619 0.0
C590 C 0.94198 0.48045 0.25235 0.0
C591 C 0.96785 0.4767 0.23583 0.0
C592 C -0.00136 0.46412 0.24233 0.0
C593 C 0.02074 0.45904 0.22046 0.0
C594 C 0.05141 0.48201 0.22137 0.0
C595 C 0.03112 0.42241 0.218 0.0
C596 C -0.00304 0.46935 0.20062 0.0
C597 C 0.96686 0.48011 0.21002 0.0
C598 C 0.93969 0.48774 0.19547 0.0
C599 C 0.94295 0.48324 0.17065 0.0
C600 C 0.97314 0.47127 0.1607 0.0
C601 C 0.00082 0.46524 0.17575 0.0
H602 H 0.45977 0.42042 0.68236 0.0
H603 H 0.56168 0.45628 0.67462 0.0
H604 H 0.56404 0.46731 0.71813 0.0
H605 H 0.43429 0.47861 0.73028 0.0
H606 H 0.40979 0.4477 0.74583 0.0
H607 H 0.4146 0.44556 0.7136 0.0
H608 H 0.43735 0.38561 0.71737 0.0
H609 H 0.43259 0.38754 0.74955 0.0
H610 H 0.47268 0.37769 0.7366 0.0
H611 H 0.55751 0.47044 0.76204 0.0
H612 H 0.54293 0.46433 0.80481 0.0
H613 H 0.44508 0.42646 0.785 0.0
C614 C 0.48237 0.43108 0.68978 0.0
C615 C 0.51052 0.43757 0.67511 0.0
C616 C 0.53984 0.45103 0.68552 0.0
C617 C 0.54137 0.45758 0.71019 0.0
C618 C 0.51338 0.45059 0.72418 0.0
C619 C 0.48441 0.43763 0.71446 0.0
C620 C 0.45882 0.43023 0.73389 0.0
C621 C 0.42752 0.45182 0.73071 0.0
C622 C 0.44985 0.39306 0.73437 0.0
C623 C 0.47832 0.44033 0.75606 0.0
C624 C 0.50958 0.45232 0.74992 0.0
C625 C 0.533 0.46144 0.76713 0.0
C626 C 0.52451 0.45772 0.79136 0.0
C627 C 0.49287 0.44495 0.79817 0.0
C628 C 0.46925 0.43672 0.78028 0.0
H629 H 0.97268 0.54113 0.77614 0.0
H630 H 0.08108 0.53845 0.77805 0.0
H631 H 0.08213 0.52893 0.73411 0.0
H632 H 0.96097 0.47917 0.72715 0.0
H633 H 0.92655 0.50216 0.71462 0.0
H634 H 0.93425 0.50322 0.74658 0.0
H635 H 0.93712 0.56751 0.74514 0.0
H636 H 0.92946 0.56665 0.7133 0.0
H637 H 0.96605 0.58739 0.72479 0.0
H638 H 0.0715 0.52662 0.68971 0.0
H639 H 0.0504 0.53408 0.64841 0.0
H640 H 0.94893 0.5388 0.67597 0.0
C641 C -0.00333 0.5378 0.76748 0.0
C642 C 0.02679 0.54044 0.78054 0.0
C643 C 0.05766 0.53643 0.76841 0.0
C644 C 0.05851 0.53082 0.74349 0.0
C645 C 0.02828 0.52905 0.73111 0.0
C646 C -0.00205 0.53232 0.74274 0.0
C647 C 0.96918 0.53297 0.72515 0.0
C648 C 0.9464 0.50256 0.72859 0.0
C649 C 0.94932 0.56557 0.72722 0.0
C650 C 0.98815 0.53103 0.70169 0.0
C651 C 0.02215 0.52807 0.70548 0.0
C652 C 0.0449 0.52839 0.6865 0.0
C653 C 0.03265 0.53271 0.6631 0.0
C654 C -0.00202 0.53704 0.65895 0.0
C655 C 0.97552 0.53523 0.6785 0.0
H656 H 0.96862 0.16209 0.08868 0.0
H657 H 0.07653 0.16076 0.0967 0.0
H658 H 0.0769 0.22197 0.09906 0.0
H659 H 0.96376 0.23506 0.05198 0.0
H660 H 0.9261 0.25011 0.06601 0.0
H661 H 0.93433 0.20621 0.06499 0.0
H662 H 0.92823 0.20295 0.11137 0.0
H663 H 0.92012 0.24689 0.11256 0.0
H664 H 0.95361 0.22942 0.13009 0.0
H665 H 0.0658 0.28302 0.09951 0.0
H666 H 0.04414 0.34016 0.09842 0.0
H667 H 0.94306 0.30203 0.09141 0.0
C668 C -0.00762 0.17462 0.09085 0.0
C669 C 0.0226 0.15657 0.0924 0.0
C670 C 0.05308 0.174 0.09545 0.0
C671 C 0.05354 0.20876 0.09683 0.0
C672 C 0.0233 0.22571 0.09533 0.0
C673 C -0.00673 0.20927 0.09248 0.0
C674 C 0.9643 0.23342 0.09146 0.0
C675 C 0.94606 0.23106 0.06716 0.0
C676 C 0.94015 0.22783 0.11263 0.0
C677 C 0.98279 0.26609 0.09392 0.0
C678 C 0.0168 0.26101 0.09612 0.0
C679 C 0.03922 0.28731 0.09792 0.0
C680 C 0.02663 0.31969 0.09724 0.0
C681 C 0.99187 0.3256 0.0949 0.0
C682 C 0.96969 0.29833 0.09348 0.0
H683 H 0.44691 0.81349 0.11628 0.0
H684 H 0.5448 0.85365 0.13333 0.0
H685 H 0.56805 0.79707 0.13401 0.0
H686 H 0.45321 0.7386 0.15259 0.0
H687 H 0.43189 0.71308 0.13081 0.0
H688 H 0.42247 0.7567 0.13289 0.0
H689 H 0.43609 0.76382 0.08755 0.0
H690 H 0.44561 0.72027 0.08535 0.0
H691 H 0.4762 0.75072 0.07628 0.0
H692 H 0.58109 0.73609 0.13225 0.0
H693 H 0.58301 0.67519 0.12683 0.0
H694 H 0.47716 0.67504 0.10976 0.0
C695 C 0.47314 0.81035 0.12041 0.0
C696 C 0.49397 0.83804 0.12483 0.0
C697 C 0.52831 0.83286 0.12983 0.0
C698 C 0.54178 0.80079 0.13033 0.0
C699 C 0.52068 0.77407 0.12567 0.0
C700 C 0.48713 0.77847 0.12073 0.0
C701 C 0.47024 0.74562 0.11538 0.0
C702 C 0.44283 0.73806 0.13403 0.0
C703 C 0.45622 0.74509 0.08961 0.0
C704 C 0.49955 0.72217 0.118 0.0
C705 C 0.52837 0.73901 0.12412 0.0
C706 C 0.55865 0.72259 0.12747 0.0
C707 C 0.55951 0.688 0.12437 0.0
C708 C 0.53032 0.67028 0.1178 0.0
C709 C 0.5 0.68778 0.11468 0.0
H710 H 0.50643 0.67764 0.36765 0.0
H711 H 0.39957 0.68466 0.35512 0.0
H712 H 0.40469 0.74545 0.35166 0.0
H713 H 0.51373 0.74855 0.40412 0.0
H714 H 0.55364 0.76154 0.39231 0.0
H715 H 0.54222 0.71831 0.39189 0.0
H716 H 0.55238 0.71644 0.34584 0.0
H717 H 0.56381 0.75975 0.34611 0.0
H718 H 0.5309 0.74538 0.32658 0.0
H719 H 0.42006 0.80508 0.35316 0.0
H720 H 0.44494 0.86048 0.359 0.0
H721 H 0.54239 0.81577 0.3692 0.0
C722 C 0.48414 0.69189 0.36391 0.0
C723 C 0.45256 0.67627 0.36167 0.0
C724 C 0.42403 0.69594 0.35688 0.0
C725 C 0.42669 0.73051 0.35482 0.0
C726 C 0.45808 0.74508 0.35736 0.0
C727 C 0.48636 0.72646 0.36166 0.0
C728 C 0.51685 0.74854 0.36468 0.0
C729 C 0.53252 0.74396 0.38974 0.0
C730 C 0.5425 0.74214 0.3446 0.0
C731 C 0.50108 0.78253 0.36207 0.0
C732 C 0.46717 0.77982 0.35771 0.0
C733 C 0.44664 0.80755 0.35622 0.0
C734 C 0.46099 0.83888 0.35964 0.0
C735 C 0.49559 0.84234 0.36436 0.0
C736 C 0.51601 0.81382 0.36513 0.0
H737 H 0.95989 0.30997 0.36266 0.0
H738 H 0.06785 0.32004 0.35922 0.0
H739 H 0.07331 0.25897 0.36024 0.0
H740 H 0.95753 0.24056 0.40309 0.0
H741 H 0.92253 0.221 0.38839 0.0
H742 H 0.92714 0.26546 0.38745 0.0
H743 H 0.92507 0.26399 0.34083 0.0
H744 H 0.92043 0.21952 0.34163 0.0
H745 H 0.95401 0.23804 0.32461 0.0
H746 H 0.06696 0.19693 0.36212 0.0
H747 H 0.04952 0.1383 0.36369 0.0
H748 H 0.94548 0.1687 0.36525 0.0
C749 C 0.98474 0.29943 0.36215 0.0
C750 C 0.01348 0.3199 0.36092 0.0
C751 C 0.04547 0.30495 0.36015 0.0
C752 C 0.04882 0.27027 0.36075 0.0
C753 C 0.01995 0.2509 0.36201 0.0
C754 C 0.98853 0.26493 0.36261 0.0
C755 C 0.96149 0.23857 0.36372 0.0
C756 C 0.94097 0.24158 0.38705 0.0
C757 C 0.93893 0.24013 0.34137 0.0
C758 C 0.98262 0.20745 0.36374 0.0
C759 C 0.01627 0.21514 0.3628 0.0
C760 C 0.04068 0.19061 0.36281 0.0
C761 C 0.03046 0.15733 0.36374 0.0
C762 C -0.00393 0.14876 0.36457 0.0
C763 C 0.97192 0.17432 0.36456 0.0
H764 H 0.9716 0.68292 0.85627 0.0
H765 H 0.07962 0.68627 0.84868 0.0
H766 H 0.07696 0.74689 0.84303 0.0
H767 H 0.9531 0.74665 0.81203 0.0
H768 H 0.91906 0.76393 0.82918 0.0
H769 H 0.92904 0.72049 0.83192 0.0
H770 H 0.93546 0.72715 0.87807 0.0
H771 H 0.92524 0.7705 0.8755 0.0
H772 H 0.96369 0.75813 0.88974 0.0
H773 H 0.0632 0.80676 0.83949 0.0
H774 H 0.03953 0.86307 0.8401 0.0
H775 H 0.9401 0.82172 0.84952 0.0
C776 C -0.00527 0.69635 0.85338 0.0
C777 C 0.02586 0.67972 0.8529 0.0
C778 C 0.05549 0.69834 0.84913 0.0
C779 C 0.05423 0.73279 0.8458 0.0
C780 C 0.02317 0.7483 0.84621 0.0
C781 C -0.00606 0.73079 0.84999 0.0
C782 C 0.96395 0.75377 0.85037 0.0
C783 C 0.93987 0.74572 0.82964 0.0
C784 C 0.94604 0.7523 0.87488 0.0
C785 C 0.98098 0.78702 0.84654 0.0
C786 C 0.01512 0.78313 0.84402 0.0
C787 C 0.0365 0.81012 0.84129 0.0
C788 C 0.02278 0.84201 0.84168 0.0
C789 C 0.98795 0.84678 0.84476 0.0
C790 C 0.96672 0.81882 0.84674 0.0
H791 H 0.51445 0.30785 0.87657 0.0
H792 H 0.40609 0.31204 0.87869 0.0
H793 H 0.40374 0.25074 0.87941 0.0
H794 H 0.51994 0.23617 0.83754 0.0
H795 H 0.55601 0.21945 0.85263 0.0
H796 H 0.54917 0.26363 0.85215 0.0
H797 H 0.55176 0.26518 0.89875 0.0
H798 H 0.55869 0.22105 0.89937 0.0
H799 H 0.52435 0.2387 0.91599 0.0
H800 H 0.41331 0.18927 0.8816 0.0
H801 H 0.43389 0.1317 0.88392 0.0
H802 H 0.53603 0.16751 0.87876 0.0
C803 C 0.49019 0.29592 0.87722 0.0
C804 C 0.46042 0.31477 0.87769 0.0
C805 C 0.42921 0.29814 0.87831 0.0
C806 C 0.42763 0.26335 0.87872 0.0
C807 C 0.45746 0.24558 0.87825 0.0
C808 C 0.48814 0.26127 0.87737 0.0
C809 C 0.51648 0.2364 0.87695 0.0
C810 C 0.53658 0.23908 0.85341 0.0
C811 C 0.53914 0.24059 0.89909 0.0
C812 C 0.49695 0.20421 0.87808 0.0
C813 C 0.46295 0.21009 0.87885 0.0
C814 C 0.43985 0.18434 0.88082 0.0
C815 C 0.45182 0.15174 0.88218 0.0
C816 C 0.48657 0.14509 0.88141 0.0
C817 C 0.50933 0.17176 0.87909 0.0
H818 H 0.46348 0.15777 0.61508 0.0
H819 H 0.56668 0.12558 0.62048 0.0
H820 H 0.58563 0.18322 0.61441 0.0
H821 H 0.47694 0.218 0.56857 0.0
H822 H 0.44732 0.24734 0.58054 0.0
H823 H 0.44163 0.20359 0.58587 0.0
H824 H 0.44005 0.21408 0.63189 0.0
H825 H 0.44547 0.25789 0.62668 0.0
H826 H 0.4741 0.23601 0.64599 0.0
H827 H 0.59358 0.24454 0.60747 0.0
H828 H 0.58955 0.30515 0.60116 0.0
H829 H 0.48135 0.29701 0.59968 0.0
C830 C 0.49005 0.16284 0.61518 0.0
C831 C 0.51353 0.13704 0.61832 0.0
C832 C 0.54812 0.14483 0.61812 0.0
C833 C 0.5592 0.17753 0.61466 0.0
C834 C 0.53543 0.20227 0.61134 0.0
C835 C 0.50158 0.19536 0.61163 0.0
C836 C 0.48126 0.22648 0.60745 0.0
C837 C 0.46057 0.22367 0.58422 0.0
C838 C 0.45891 0.23406 0.62931 0.0
C839 C 0.50896 0.25193 0.60483 0.0
C840 C 0.54003 0.23749 0.60711 0.0
C841 C 0.56936 0.25614 0.60563 0.0
C842 C 0.56684 0.29056 0.60199 0.0
C843 C 0.53518 0.30595 0.59984 0.0
C844 C 0.50598 0.28612 0.6011 0.0
H845 H 0.04949 0.82516 0.60567 0.0
H846 H 0.95339 0.86652 0.62549 0.0
H847 H 0.92923 0.81018 0.62733 0.0
H848 H 0.0175 0.76547 0.56625 0.0
H849 H 0.0472 0.73345 0.57353 0.0
H850 H 0.05851 0.77643 0.57706 0.0
H851 H 0.07334 0.76601 0.62181 0.0
H852 H 0.0624 0.72285 0.61835 0.0
H853 H 0.04273 0.74737 0.64149 0.0
H854 H 0.91428 0.75018 0.62411 0.0
H855 H 0.90945 0.6902 0.61569 0.0
H856 H 0.01453 0.68763 0.59614 0.0
C857 C 0.02365 0.82217 0.61107 0.0
C858 C 0.00336 0.85006 0.61573 0.0
C859 C 0.96935 0.84538 0.62199 0.0
C860 C 0.95543 0.8135 0.62312 0.0
C861 C 0.97576 0.78652 0.61776 0.0
C862 C 0.00915 0.79043 0.61189 0.0
C863 C 0.02465 0.75747 0.60496 0.0
C864 C 0.03772 0.75827 0.5789 0.0
C865 C 0.05242 0.74786 0.62272 0.0
C866 C -0.00537 0.73468 0.60742 0.0
C867 C 0.96681 0.75188 0.61513 0.0
C868 C 0.93595 0.73635 0.61823 0.0
C869 C 0.93344 0.70228 0.61335 0.0
C870 C 0.96154 0.68415 0.60519 0.0
C871 C -0.00748 0.70073 0.60228 0.0
H872 H 0.98004 -0.00285 0.91813 0.0
H873 H 0.90917 0.92129 0.94045 0.0
H874 H 0.92995 0.92545 0.98211 0.0
H875 H 0.04766 0.97091 0.95643 0.0
H876 H 0.0614 0.01257 0.96301 0.0
H877 H 0.0412 0.00362 0.93478 0.0
H878 H -0.00303 0.049 0.94341 0.0
H879 H 0.01718 0.05827 0.97155 0.0
H880 H 0.97346 0.0475 0.9711 0.0
H881 H 0.95729 0.93826 0.02104 0.0
H882 H 0.98849 0.96045 0.05569 0.0
H883 H 0.04242 0.02744 0.00817 0.0
C884 C 0.96883 0.9815 0.93181 0.0
C885 C 0.94301 0.95891 0.92613 0.0
C886 C 0.92901 0.93876 0.94446 0.0
C887 C 0.94068 0.94086 0.96813 0.0
C888 C 0.96639 0.96313 0.97307 0.0
C889 C 0.98026 0.98318 0.95551 0.0
C890 C 0.0073 0.00536 0.96575 0.0
C891 C 0.04141 -0.00236 0.95431 0.0
C892 C -0.00184 0.04221 0.96278 0.0
C893 C 0.00621 -0.00517 -0.00811 0.0
C894 C 0.98251 0.97035 -0.00436 0.0
C895 C 0.97603 0.95731 0.01835 0.0
C896 C -0.00613 0.97008 0.03789 0.0
C897 C 0.01787 -0.00444 0.03454 0.0
C898 C 0.02447 0.0077 0.01118 0.0
H899 H 0.50539 0.98642 0.94651 0.0
H900 H 0.56945 0.06707 0.97031 0.0
H901 H 0.54823 0.06004 0.01185 0.0
H902 H 0.43544 0.00668 0.98308 0.0
H903 H 0.42431 0.9641 -0.01088 0.0
H904 H 0.44535 0.97477 0.9615 0.0
H905 H 0.49226 0.93253 0.97111 0.0
H906 H 0.4712 0.92147 -0.00136 0.0
H907 H 0.51405 0.93527 -0.00058 0.0
H908 H 0.51905 0.04483 0.05042 0.0
H909 H 0.486 0.02089 0.08377 0.0
H910 H 0.44084 0.95074 0.03413 0.0
C911 C 0.51521 0.00245 0.96048 0.0
C912 C 0.53907 0.02728 0.95527 0.0
C913 C 0.55119 0.04785 0.97399 0.0
C914 C 0.53923 0.0441 -0.00243 0.0
C915 C 0.51525 0.01972 0.00199 0.0
C916 C 0.50353 -0.00087 0.98399 0.0
C917 C 0.47761 0.97501 -0.00665 0.0
C918 C 0.44367 0.98049 0.98103 0.0
C919 C 0.48951 0.93894 -0.00954 0.0
C920 C 0.47655 0.98522 0.01949 0.0
C921 C 0.49837 0.01108 0.02412 0.0
C922 C 0.5019 0.02456 0.04704 0.0
C923 C 0.48297 0.01086 0.06581 0.0
C924 C 0.46088 0.98399 0.06148 0.0
C925 C 0.45743 0.97134 0.03796 0.0
H926 H 0.46382 0.02948 0.53389 0.0
H927 H 0.51216 0.95609 0.57919 0.0
H928 H 0.54143 0.93355 0.5436 0.0
H929 H 0.45132 0.97661 0.48268 0.0
H930 H 0.45947 0.00921 0.4612 0.0
H931 H 0.44235 0.01917 0.4903 0.0
H932 H 0.49133 0.06013 0.49779 0.0
H933 H 0.50872 0.05012 0.46878 0.0
H934 H 0.53373 0.04547 0.49551 0.0
H935 H 0.56564 0.91942 0.50296 0.0
H936 H 0.58142 0.91369 0.46008 0.0
H937 H 0.51716 -0.00322 0.44219 0.0
C938 C 0.48045 0.00859 0.53634 0.0
C939 C 0.48575 0.9945 0.55924 0.0
C940 C 0.50774 0.9672 0.56174 0.0
C941 C 0.52452 0.95429 0.54167 0.0
C942 C 0.51897 0.96901 0.51936 0.0
C943 C 0.49737 -0.00454 0.51659 0.0
C944 C 0.49564 0.00678 0.49071 0.0
C945 C 0.46009 0.00268 0.48064 0.0
C946 C 0.50811 0.04276 0.48806 0.0
C947 C 0.51959 0.98252 0.47933 0.0
C948 C 0.53289 0.96096 0.4961 0.0
C949 C 0.55541 0.93617 0.48965 0.0
C950 C 0.56426 0.93314 0.46531 0.0
C951 C 0.55049 0.95479 0.44789 0.0
C952 C 0.52815 0.9799 0.45511 0.0
H953 H 0.01709 0.00572 0.54323 0.0
H954 H 0.08286 0.92589 0.5208 0.0
H955 H 0.06254 0.93179 0.47902 0.0
H956 H 0.94834 0.98347 0.50614 0.0
H957 H 0.93671 0.0257 0.49955 0.0
H958 H 0.95726 0.01599 0.52748 0.0
H959 H 0.0037 0.05899 0.51786 0.0
H960 H 0.98315 0.06904 0.48998 0.0
H961 H 0.02622 0.05609 0.48981 0.0
H962 H 0.03409 0.94558 0.4401 0.0
H963 H 0.00092 0.96755 0.40627 0.0
H964 H 0.95359 0.03802 0.45457 0.0
C965 C 0.02745 0.98964 0.52951 0.0
C966 C 0.05156 0.96537 0.53518 0.0
C967 C 0.06439 0.94469 0.51678 0.0
C968 C 0.05298 0.94781 0.49305 0.0
C969 C 0.02882 0.9717 0.48815 0.0
C970 C 0.01633 0.99236 0.50583 0.0
C971 C 0.99026 0.01576 0.49595 0.0
C972 C 0.95613 0.00986 0.508 0.0
C973 C 0.00152 0.05212 0.49855 0.0
C974 C 0.98996 0.00502 0.4699 0.0
C975 C 0.01235 0.97956 0.46577 0.0
C976 C 0.01652 0.96554 0.44308 0.0
C977 C -0.00247 0.97814 0.42402 0.0
C978 C 0.97471 0.00448 0.42784 0.0
C979 C 0.97079 0.01785 0.45113 0.0
H980 H 0.50317 0.49965 0.04921 0.0
H981 H 0.57949 0.56772 0.02336 0.0
H982 H 0.56366 0.55473 0.9814 0.0
H983 H 0.51401 0.43789 0.00343 0.0
H984 H 0.47008 0.42834 0.00151 0.0
H985 H 0.48746 0.44316 0.02939 0.0
H986 H 0.4444 0.49113 0.03004 0.0
H987 H 0.42694 0.47653 0.00211 0.0
H988 H 0.44162 0.51873 0.00456 0.0
H989 H 0.53943 0.53435 0.9425 0.0
H990 H 0.50924 0.50729 0.90915 0.0
H991 H 0.44875 0.45269 0.96073 0.0
C992 C 0.51661 0.51183 0.03474 0.0
C993 C 0.54253 0.53471 0.03947 0.0
C994 C 0.55953 0.55011 0.02008 0.0
C995 C 0.5507 0.54293 -0.00377 0.0
C996 C 0.52489 0.52034 -0.00779 0.0
C997 C 0.50814 0.50498 0.01092 0.0
C998 C 0.48143 0.48157 0.00179 0.0
C999 C 0.4887 0.44561 0.00949 0.0
C1000 C 0.44654 0.49267 0.01012 0.0
C1001 C 0.48579 0.4861 0.97497 0.0
C1002 C 0.51094 0.5086 0.96982 0.0
C1003 C 0.51969 0.5167 0.94629 0.0
C1004 C 0.50238 0.50121 0.9275 0.0
C1005 C 0.47669 0.47789 0.9324 0.0
C1006 C 0.46824 0.47044 0.95646 0.0
H1007 H 0.98 0.49334 0.03262 0.0
H1008 H 0.91569 0.4172 0.00225 0.0
H1009 H 0.93313 0.43392 0.96136 0.0
H1010 H 0.96602 0.55534 -0.01344 0.0
H1011 H 0.00862 0.5699 -0.01311 0.0
H1012 H 0.99033 0.55258 0.01377 0.0
H1013 H 0.03856 0.50991 0.01637 0.0
H1014 H 0.05695 0.52702 -0.01052 0.0
H1015 H 0.0471 0.48339 -0.00902 0.0
H1016 H 0.95819 0.45788 0.92413 0.0
H1017 H 0.98926 0.4878 0.89251 0.0
H1018 H 0.03766 0.54823 0.94707 0.0
C1019 C 0.96941 0.48033 0.01736 0.0
C1020 C 0.94645 0.45402 0.02055 0.0
C1021 C 0.93331 0.43745 0.00017 0.0
C1022 C 0.94303 0.44676 0.97691 0.0
C1023 C 0.96589 0.47264 0.9744 0.0
C1024 C 0.9789 0.48924 -0.00597 0.0
C1025 C 0.00357 0.51576 0.98636 0.0
C1026 C 0.99139 0.55045 -0.00616 0.0
C1027 C 0.03862 0.50857 -0.00361 0.0
C1028 C 0.00248 0.51137 0.95933 0.0
C1029 C 0.98052 0.48642 0.95285 0.0
C1030 C 0.9754 0.47753 0.92895 0.0
C1031 C -0.00681 0.49467 0.91114 0.0
C1032 C 0.01583 0.52035 0.91736 0.0
C1033 C 0.02048 0.52875 0.94179 0.0
H1034 H 0.97599 0.5138 0.53509 0.0
H1035 H 0.8955 0.57706 0.51006 0.0
H1036 H 0.9062 0.55869 0.46827 0.0
H1037 H 0.0312 0.52842 0.48562 0.0
H1038 H 0.04675 0.48647 0.48499 0.0
H1039 H 0.03219 0.50411 0.51286 0.0
H1040 H 0.9907 0.45511 0.51807 0.0
H1041 H 0.00507 0.43734 0.49018 0.0
H1042 H 0.9613 0.44598 0.49441 0.0
H1043 H 0.9258 0.53359 0.42955 0.0
H1044 H 0.95376 0.50469 0.39607 0.0
H1045 H 0.02193 0.45831 0.44661 0.0
C1046 C 0.96052 0.52377 0.52084 0.0
C1047 C 0.93488 0.54681 0.52574 0.0
C1048 C 0.9153 0.5594 0.50663 0.0
C1049 C 0.92114 0.54907 0.4829 0.0
C1050 C 0.94665 0.52627 0.47873 0.0
C1051 C 0.96608 0.51385 0.49715 0.0
C1052 C -0.00771 0.49007 0.48785 0.0
C1053 C 0.0277 0.50306 0.49314 0.0
C1054 C 0.987 0.45505 0.49824 0.0
C1055 C 0.98465 0.4911 0.46123 0.0
C1056 C 0.95815 0.51202 0.45639 0.0
C1057 C 0.94656 0.51715 0.43311 0.0
C1058 C 0.96262 0.5006 0.41424 0.0
C1059 C 0.99003 0.47928 0.41878 0.0
C1060 C 0.00104 0.47443 0.44261 0.0
H1061 H 0.53528 0.44774 0.50934 0.0
H1062 H 0.47387 0.49168 0.56539 0.0
H1063 H 0.44151 0.52159 0.53469 0.0
H1064 H 0.53829 0.5194 0.47081 0.0
H1065 H 0.53567 0.4959 0.44328 0.0
H1066 H 0.55424 0.47761 0.46963 0.0
H1067 H 0.51279 0.42823 0.46701 0.0
H1068 H 0.49414 0.44634 0.44062 0.0
H1069 H 0.46851 0.43627 0.46633 0.0
H1070 H 0.4165 0.54769 0.49844 0.0
H1071 H 0.39898 0.56695 0.45823 0.0
H1072 H 0.47545 0.50542 0.4254 0.0
C1073 C 0.51499 0.46361 0.51511 0.0
C1074 C 0.50713 0.46741 0.53975 0.0
C1075 C 0.48036 0.48836 0.54661 0.0
C1076 C 0.46181 0.50551 0.52932 0.0
C1077 C 0.47023 0.50136 0.50523 0.0
C1078 C 0.49603 0.48084 0.49804 0.0
C1079 C 0.49962 0.48072 0.47089 0.0
C1080 C 0.534 0.49422 0.46321 0.0
C1081 C 0.49338 0.44581 0.46061 0.0
C1082 C 0.47188 0.50442 0.46404 0.0
C1083 C 0.45535 0.51611 0.48415 0.0
C1084 C 0.42913 0.53864 0.48251 0.0
C1085 C 0.4194 0.54947 0.45962 0.0
C1086 C 0.43578 0.5376 0.43873 0.0
C1087 C 0.46235 0.51478 0.44105 0.0
loop_
_geom_bond_atom_site_label_1
_geom_bond_atom_site_label_2
_geom_bond_distance
_geom_bond_site_symmetry_2
_ccdc_geom_bond_type
C0 O1 1.306 . S
C0 O3 1.160 . S
O1 C0 1.306 . S
O1 Cd2 2.228 1_455 S
Cd2 O1 2.228 1_655 S
Cd2 O6 2.273 1_655 S
Cd2 O10 2.277 1_655 S
O3 C0 1.160 . S
O3 Cd4 2.203 . S
Cd4 O3 2.203 . S
Cd4 O6 2.411 . S
Cd4 O7 2.333 . S
Cd4 O8 2.352 . S
Cd4 O12 2.277 . S
Cd4 O13 2.356 . S
C5 O10 1.209 . S
C5 O12 1.226 . S
O6 Cd2 2.273 1_455 S
O6 Cd4 2.411 . S
O6 C9 1.320 . S
O7 Cd4 2.333 . S
O7 C9 1.214 . S
O8 Cd4 2.352 . S
O8 C11 1.258 . S
C9 O6 1.320 . S
C9 O7 1.214 . S
O10 Cd2 2.277 1_455 S
O10 C5 1.209 . S
C11 O8 1.258 . S
C11 O13 1.282 . S
O12 Cd4 2.277 . S
O12 C5 1.226 . S
O13 Cd4 2.356 . S
O13 C11 1.282 . S
C14 O15 1.306 . S
C14 O17 1.160 . S
O15 C14 1.306 . S
O15 Cd16 2.228 . S
Cd16 O15 2.228 . S
Cd16 O20 2.273 . S
Cd16 O24 2.277 . S
O17 C14 1.160 . S
O17 Cd18 2.203 . S
Cd18 O17 2.203 . S
Cd18 O20 2.411 . S
Cd18 O21 2.333 . S
Cd18 O22 2.352 . S
Cd18 O26 2.277 . S
Cd18 O27 2.356 . S
C19 O24 1.209 . S
C19 O26 1.226 . S
O20 Cd16 2.273 . S
O20 Cd18 2.411 . S
O20 C23 1.320 . S
O21 Cd18 2.333 . S
O21 C23 1.214 . S
O22 Cd18 2.352 . S
O22 C25 1.258 . S
C23 O20 1.320 . S
C23 O21 1.214 . S
O24 Cd16 2.277 . S
O24 C19 1.209 . S
C25 O22 1.258 . S
C25 O27 1.282 . S
O26 Cd18 2.277 . S
O26 C19 1.226 . S
O27 Cd18 2.356 . S
O27 C25 1.282 . S
C28 O29 1.306 . S
C28 O31 1.160 . S
O29 C28 1.306 . S
O29 Cd30 2.228 . S
Cd30 O29 2.228 . S
Cd30 O34 2.273 . S
Cd30 O38 2.277 . S
O31 C28 1.160 . S
O31 Cd32 2.203 . S
Cd32 O31 2.203 . S
Cd32 O34 2.411 . S
Cd32 O35 2.333 . S
Cd32 O36 2.352 . S
Cd32 O40 2.277 . S
Cd32 O41 2.356 . S
C33 O38 1.209 . S
C33 O40 1.226 . S
O34 Cd30 2.273 . S
O34 Cd32 2.411 . S
O34 C37 1.320 . S
O35 Cd32 2.333 . S
O35 C37 1.214 . S
O36 Cd32 2.352 . S
O36 C39 1.258 . S
C37 O34 1.320 . S
C37 O35 1.214 . S
O38 Cd30 2.277 . S
O38 C33 1.209 . S
C39 O36 1.258 . S
C39 O41 1.282 . S
O40 Cd32 2.277 . S
O40 C33 1.226 . S
O41 Cd32 2.356 . S
O41 C39 1.282 . S
C42 O43 1.306 . S
C42 O45 1.160 . S
O43 C42 1.306 . S
O43 Cd44 2.228 1_655 S
Cd44 O43 2.228 1_455 S
Cd44 O48 2.273 1_455 S
Cd44 O52 2.277 1_455 S
O45 C42 1.160 . S
O45 Cd46 2.203 . S
Cd46 O45 2.203 . S
Cd46 O48 2.411 . S
Cd46 O49 2.333 . S
Cd46 O50 2.352 . S
Cd46 O54 2.277 . S
Cd46 O55 2.356 . S
C47 O52 1.209 . S
C47 O54 1.226 . S
O48 Cd44 2.273 1_655 S
O48 Cd46 2.411 . S
O48 C51 1.320 . S
O49 Cd46 2.333 . S
O49 C51 1.214 . S
O50 Cd46 2.352 . S
O50 C53 1.258 . S
C51 O48 1.320 . S
C51 O49 1.214 . S
O52 Cd44 2.277 1_655 S
O52 C47 1.209 . S
C53 O50 1.258 . S
C53 O55 1.282 . S
O54 Cd46 2.277 . S
O54 C47 1.226 . S
O55 Cd46 2.356 . S
O55 C53 1.282 . S
C56 O57 1.306 . S
C56 O59 1.160 . S
O57 C56 1.306 . S
O57 Cd58 2.228 1_655 S
Cd58 O57 2.228 1_455 S
Cd58 O62 2.273 1_455 S
Cd58 O66 2.277 1_455 S
O59 C56 1.160 . S
O59 Cd60 2.203 . S
Cd60 O59 2.203 . S
Cd60 O62 2.411 . S
Cd60 O63 2.333 . S
Cd60 O64 2.352 . S
Cd60 O68 2.277 . S
Cd60 O69 2.356 . S
C61 O66 1.209 . S
C61 O68 1.226 . S
O62 Cd58 2.273 1_655 S
O62 Cd60 2.411 . S
O62 C65 1.320 . S
O63 Cd60 2.333 . S
O63 C65 1.214 . S
O64 Cd60 2.352 . S
O64 C67 1.258 . S
C65 O62 1.320 . S
C65 O63 1.214 . S
O66 Cd58 2.277 1_655 S
O66 C61 1.209 . S
C67 O64 1.258 . S
C67 O69 1.282 . S
O68 Cd60 2.277 . S
O68 C61 1.226 . S
O69 Cd60 2.356 . S
O69 C67 1.282 . S
C70 O71 1.306 . S
C70 O73 1.160 . S
O71 C70 1.306 . S
O71 Cd72 2.228 . S
Cd72 O71 2.228 . S
Cd72 O76 2.273 . S
Cd72 O80 2.277 . S
O73 C70 1.160 . S
O73 Cd74 2.203 . S
Cd74 O73 2.203 . S
Cd74 O76 2.411 . S
Cd74 O77 2.333 . S
Cd74 O78 2.352 . S
Cd74 O82 2.277 . S
Cd74 O83 2.356 . S
C75 O80 1.209 . S
C75 O82 1.226 . S
O76 Cd72 2.273 . S
O76 Cd74 2.411 . S
O76 C79 1.320 . S
O77 Cd74 2.333 . S
O77 C79 1.214 . S
O78 Cd74 2.352 . S
O78 C81 1.258 . S
C79 O76 1.320 . S
C79 O77 1.214 . S
O80 Cd72 2.277 . S
O80 C75 1.209 . S
C81 O78 1.258 . S
C81 O83 1.282 . S
O82 Cd74 2.277 . S
O82 C75 1.226 . S
O83 Cd74 2.356 . S
O83 C81 1.282 . S
C84 O85 1.306 . S
C84 O87 1.160 . S
O85 C84 1.306 . S
O85 Cd86 2.228 . S
Cd86 O85 2.228 . S
Cd86 O90 2.273 . S
Cd86 O94 2.277 . S
O87 C84 1.160 . S
O87 Cd88 2.203 . S
Cd88 O87 2.203 . S
Cd88 O90 2.411 . S
Cd88 O91 2.333 . S
Cd88 O92 2.352 . S
Cd88 O96 2.277 . S
Cd88 O97 2.356 . S
C89 O94 1.209 . S
C89 O96 1.226 . S
O90 Cd86 2.273 . S
O90 Cd88 2.411 . S
O90 C93 1.320 . S
O91 Cd88 2.333 . S
O91 C93 1.214 . S
O92 Cd88 2.352 . S
O92 C95 1.258 . S
C93 O90 1.320 . S
C93 O91 1.214 . S
O94 Cd86 2.277 . S
O94 C89 1.209 . S
C95 O92 1.258 . S
C95 O97 1.282 . S
O96 Cd88 2.277 . S
O96 C89 1.226 . S
O97 Cd88 2.356 . S
O97 C95 1.282 . S
C98 O99 1.306 . S
C98 O101 1.160 . S
O99 C98 1.306 . S
O99 Cd100 2.228 1_455 S
Cd100 O99 2.228 1_655 S
Cd100 O104 2.273 1_655 S
Cd100 O108 2.277 1_655 S
O101 C98 1.160 . S
O101 Cd102 2.203 . S
Cd102 O101 2.203 . S
Cd102 O104 2.411 . S
Cd102 O105 2.333 . S
Cd102 O106 2.352 . S
Cd102 O110 2.277 . S
Cd102 O111 2.356 . S
C103 O108 1.209 . S
C103 O110 1.226 . S
O104 Cd100 2.273 1_455 S
O104 Cd102 2.411 . S
O104 C107 1.320 . S
O105 Cd102 2.333 . S
O105 C107 1.214 . S
O106 Cd102 2.352 . S
O106 C109 1.258 . S
C107 O104 1.320 . S
C107 O105 1.214 . S
O108 Cd100 2.277 1_455 S
O108 C103 1.209 . S
C109 O106 1.258 . S
C109 O111 1.282 . S
O110 Cd102 2.277 . S
O110 C103 1.226 . S
O111 Cd102 2.356 . S
O111 C109 1.282 . S
C112 O113 1.306 . S
C112 O115 1.160 . S
O113 C112 1.306 . S
O113 Cd114 2.228 . S
Cd114 O113 2.228 . S
Cd114 O118 2.273 . S
Cd114 O122 2.277 . S
O115 C112 1.160 . S
O115 Cd116 2.203 . S
Cd116 O115 2.203 . S
Cd116 O118 2.411 . S
Cd116 O119 2.333 . S
Cd116 O120 2.352 . S
Cd116 O124 2.277 . S
Cd116 O125 2.356 . S
C117 O122 1.209 . S
C117 O124 1.226 . S
O118 Cd114 2.273 . S
O118 Cd116 2.411 . S
O118 C121 1.320 . S
O119 Cd116 2.333 . S
O119 C121 1.214 . S
O120 Cd116 2.352 . S
O120 C123 1.258 . S
C121 O118 1.320 . S
C121 O119 1.214 . S
O122 Cd114 2.277 . S
O122 C117 1.209 . S
C123 O120 1.258 . S
C123 O125 1.282 . S
O124 Cd116 2.277 . S
O124 C117 1.226 . S
O125 Cd116 2.356 . S
O125 C123 1.282 . S
C126 O127 1.306 . S
C126 O129 1.160 . S
O127 C126 1.306 . S
O127 Cd128 2.228 1_655 S
Cd128 O127 2.228 1_455 S
Cd128 O132 2.273 1_455 S
Cd128 O136 2.277 1_455 S
O129 C126 1.160 . S
O129 Cd130 2.203 . S
Cd130 O129 2.203 . S
Cd130 O132 2.411 . S
Cd130 O133 2.333 . S
Cd130 O134 2.352 . S
Cd130 O138 2.277 . S
Cd130 O139 2.356 . S
C131 O136 1.209 . S
C131 O138 1.226 . S
O132 Cd128 2.273 1_655 S
O132 Cd130 2.411 . S
O132 C135 1.320 . S
O133 Cd130 2.333 . S
O133 C135 1.214 . S
O134 Cd130 2.352 . S
O134 C137 1.258 . S
C135 O132 1.320 . S
C135 O133 1.214 . S
O136 Cd128 2.277 1_655 S
O136 C131 1.209 . S
C137 O134 1.258 . S
C137 O139 1.282 . S
O138 Cd130 2.277 . S
O138 C131 1.226 . S
O139 Cd130 2.356 . S
O139 C137 1.282 . S
C140 O141 1.306 . S
C140 O143 1.160 . S
O141 C140 1.306 . S
O141 Cd142 2.228 1_455 S
Cd142 O141 2.228 1_655 S
Cd142 O146 2.273 1_655 S
Cd142 O150 2.277 1_655 S
O143 C140 1.160 . S
O143 Cd144 2.203 . S
Cd144 O143 2.203 . S
Cd144 O146 2.411 . S
Cd144 O147 2.333 . S
Cd144 O148 2.352 . S
Cd144 O152 2.277 . S
Cd144 O153 2.356 . S
C145 O150 1.209 . S
C145 O152 1.226 . S
O146 Cd142 2.273 1_455 S
O146 Cd144 2.411 . S
O146 C149 1.320 . S
O147 Cd144 2.333 . S
O147 C149 1.214 . S
O148 Cd144 2.352 . S
O148 C151 1.258 . S
C149 O146 1.320 . S
C149 O147 1.214 . S
O150 Cd142 2.277 1_455 S
O150 C145 1.209 . S
C151 O148 1.258 . S
C151 O153 1.282 . S
O152 Cd144 2.277 . S
O152 C145 1.226 . S
O153 Cd144 2.356 . S
O153 C151 1.282 . S
C154 O155 1.306 . S
C154 O157 1.160 . S
O155 C154 1.306 . S
O155 Cd156 2.228 . S
Cd156 O155 2.228 . S
Cd156 O160 2.273 . S
Cd156 O164 2.277 . S
O157 C154 1.160 . S
O157 Cd158 2.203 . S
Cd158 O157 2.203 . S
Cd158 O160 2.411 . S
Cd158 O161 2.333 . S
Cd158 O162 2.352 . S
Cd158 O166 2.277 . S
Cd158 O167 2.356 . S
C159 O164 1.209 . S
C159 O166 1.226 . S
O160 Cd156 2.273 . S
O160 Cd158 2.411 . S
O160 C163 1.320 . S
O161 Cd158 2.333 . S
O161 C163 1.214 . S
O162 Cd158 2.352 . S
O162 C165 1.258 . S
C163 O160 1.320 . S
C163 O161 1.214 . S
O164 Cd156 2.277 . S
O164 C159 1.209 . S
C165 O162 1.258 . S
C165 O167 1.282 . S
O166 Cd158 2.277 . S
O166 C159 1.226 . S
O167 Cd158 2.356 . S
O167 C165 1.282 . S
C168 O169 1.306 . S
C168 O171 1.160 . S
O169 C168 1.306 . S
O169 Cd170 2.228 . S
Cd170 O169 2.228 . S
Cd170 O174 2.273 . S
Cd170 O178 2.277 . S
O171 C168 1.160 . S
O171 Cd172 2.203 . S
Cd172 O171 2.203 . S
Cd172 O174 2.411 . S
Cd172 O175 2.333 . S
Cd172 O176 2.352 . S
Cd172 O180 2.277 . S
Cd172 O181 2.356 . S
C173 O178 1.209 . S
C173 O180 1.226 . S
O174 Cd170 2.273 . S
O174 Cd172 2.411 . S
O174 C177 1.320 . S
O175 Cd172 2.333 . S
O175 C177 1.214 . S
O176 Cd172 2.352 . S
O176 C179 1.258 . S
C177 O174 1.320 . S
C177 O175 1.214 . S
O178 Cd170 2.277 . S
O178 C173 1.209 . S
C179 O176 1.258 . S
C179 O181 1.282 . S
O180 Cd172 2.277 . S
O180 C173 1.226 . S
O181 Cd172 2.356 . S
O181 C179 1.282 . S
C182 O183 1.306 . S
C182 O185 1.160 . S
O183 C182 1.306 . S
O183 Cd184 2.228 1_455 S
Cd184 O183 2.228 1_655 S
Cd184 O188 2.273 1_655 S
Cd184 O192 2.277 1_655 S
O185 C182 1.160 . S
O185 Cd186 2.203 . S
Cd186 O185 2.203 . S
Cd186 O188 2.411 . S
Cd186 O189 2.333 . S
Cd186 O190 2.352 . S
Cd186 O194 2.277 . S
Cd186 O195 2.356 . S
C187 O192 1.209 . S
C187 O194 1.226 . S
O188 Cd184 2.273 1_455 S
O188 Cd186 2.411 . S
O188 C191 1.320 . S
O189 Cd186 2.333 . S
O189 C191 1.214 . S
O190 Cd186 2.352 . S
O190 C193 1.258 . S
C191 O188 1.320 . S
C191 O189 1.214 . S
O192 Cd184 2.277 1_455 S
O192 C187 1.209 . S
C193 O190 1.258 . S
C193 O195 1.282 . S
O194 Cd186 2.277 . S
O194 C187 1.226 . S
O195 Cd186 2.356 . S
O195 C193 1.282 . S
C196 O197 1.306 . S
C196 O199 1.160 . S
O197 C196 1.306 . S
O197 Cd198 2.228 1_655 S
Cd198 O197 2.228 1_455 S
Cd198 O202 2.273 1_455 S
Cd198 O206 2.277 1_455 S
O199 C196 1.160 . S
O199 Cd200 2.203 . S
Cd200 O199 2.203 . S
Cd200 O202 2.411 . S
Cd200 O203 2.333 . S
Cd200 O204 2.352 . S
Cd200 O208 2.277 . S
Cd200 O209 2.356 . S
C201 O206 1.209 . S
C201 O208 1.226 . S
O202 Cd198 2.273 1_655 S
O202 Cd200 2.411 . S
O202 C205 1.320 . S
O203 Cd200 2.333 . S
O203 C205 1.214 . S
O204 Cd200 2.352 . S
O204 C207 1.258 . S
C205 O202 1.320 . S
C205 O203 1.214 . S
O206 Cd198 2.277 1_655 S
O206 C201 1.209 . S
C207 O204 1.258 . S
C207 O209 1.282 . S
O208 Cd200 2.277 . S
O208 C201 1.226 . S
O209 Cd200 2.356 . S
O209 C207 1.282 . S
C210 O211 1.306 . S
C210 O213 1.160 . S
O211 C210 1.306 . S
O211 Cd212 2.228 . S
Cd212 O211 2.228 . S
Cd212 O216 2.273 . S
Cd212 O220 2.277 . S
O213 C210 1.160 . S
O213 Cd214 2.203 . S
Cd214 O213 2.203 . S
Cd214 O216 2.411 . S
Cd214 O217 2.333 . S
Cd214 O218 2.352 . S
Cd214 O222 2.277 . S
Cd214 O223 2.356 . S
C215 O220 1.209 . S
C215 O222 1.226 . S
O216 Cd212 2.273 . S
O216 Cd214 2.411 . S
O216 C219 1.320 . S
O217 Cd214 2.333 . S
O217 C219 1.214 . S
O218 Cd214 2.352 . S
O218 C221 1.258 . S
C219 O216 1.320 . S
C219 O217 1.214 . S
O220 Cd212 2.277 . S
O220 C215 1.209 . S
C221 O218 1.258 . S
C221 O223 1.282 . S
O222 Cd214 2.277 . S
O222 C215 1.226 . S
O223 Cd214 2.356 . S
O223 C221 1.282 . S
H224 C236 0.930 . S
H225 C238 0.930 . S
H226 C239 0.930 . S
H227 C243 0.959 . S
H228 C243 0.959 . S
H229 C243 0.961 . S
H230 C244 0.960 . S
H231 C244 0.961 . S
H232 C244 0.959 . S
H233 C247 0.929 1_565 S
H234 C248 0.931 . S
H235 C250 0.930 . S
C236 H224 0.930 . S
C236 C237 1.399 . S
C236 C241 1.399 . S
C237 C236 1.399 . S
C237 C238 1.376 . S
C238 H225 0.930 . S
C238 C237 1.376 . S
C238 C239 1.388 . S
C239 H226 0.930 . S
C239 C238 1.388 . S
C239 C240 1.390 . S
C240 C239 1.390 . S
C240 C241 1.394 . S
C240 C246 1.469 . S
C241 C236 1.399 . S
C241 C240 1.394 . S
C241 C242 1.516 1_565 S
C242 C241 1.516 1_545 S
C242 C243 1.502 . S
C242 C244 1.561 1_545 S
C242 C245 1.526 . S
C243 H227 0.959 . S
C243 H228 0.959 . S
C243 H229 0.961 . S
C243 C242 1.502 . S
C244 H230 0.960 . S
C244 H231 0.961 . S
C244 H232 0.959 . S
C244 C242 1.561 1_565 S
C245 C242 1.526 . S
C245 C246 1.393 1_545 S
C245 C250 1.390 . S
C246 C240 1.469 . S
C246 C245 1.393 1_565 S
C246 C247 1.398 1_565 S
C247 H233 0.929 1_545 S
C247 C246 1.398 1_545 S
C247 C248 1.385 . S
C248 H234 0.931 . S
C248 C247 1.385 . S
C248 C249 1.389 . S
C249 C248 1.389 . S
C249 C250 1.387 . S
C250 H235 0.930 . S
C250 C245 1.390 . S
C250 C249 1.387 . S
H251 C263 0.930 . S
H252 C265 0.930 1_545 S
H253 C266 0.930 . S
H254 C270 0.959 . S
H255 C270 0.959 . S
H256 C270 0.961 . S
H257 C271 0.960 . S
H258 C271 0.961 . S
H259 C271 0.959 . S
H260 C274 0.929 . S
H261 C275 0.931 . S
H262 C277 0.930 1_565 S
C263 H251 0.930 . S
C263 C264 1.399 . S
C263 C268 1.399 . S
C264 C263 1.399 . S
C264 C265 1.376 . S
C265 H252 0.930 1_565 S
C265 C264 1.376 . S
C265 C266 1.388 1_565 S
C266 H253 0.930 . S
C266 C265 1.388 1_545 S
C266 C267 1.390 . S
C267 C266 1.390 . S
C267 C268 1.394 1_545 S
C267 C273 1.465 . S
C268 C263 1.399 . S
C268 C267 1.394 1_565 S
C268 C269 1.516 . S
C269 C268 1.516 . S
C269 C270 1.502 . S
C269 C271 1.561 . S
C269 C272 1.526 . S
C270 H254 0.959 . S
C270 H255 0.959 . S
C270 H256 0.961 . S
C270 C269 1.502 . S
C271 H257 0.960 . S
C271 H258 0.961 . S
C271 H259 0.959 . S
C271 C269 1.561 . S
C272 C269 1.526 . S
C272 C273 1.396 1_565 S
C272 C277 1.390 1_565 S
C273 C267 1.465 . S
C273 C272 1.396 1_545 S
C273 C274 1.399 . S
C274 H260 0.929 . S
C274 C273 1.399 . S
C274 C275 1.385 . S
C275 H261 0.931 . S
C275 C274 1.385 . S
C275 C276 1.389 . S
C276 C275 1.389 . S
C276 C277 1.387 . S
C277 H262 0.930 1_545 S
C277 C272 1.390 1_545 S
C277 C276 1.387 . S
H278 C290 0.930 . S
H279 C292 0.930 1_545 S
H280 C293 0.930 . S
H281 C297 0.959 . S
H282 C297 0.959 . S
H283 C297 0.961 . S
H284 C298 0.960 1_565 S
H285 C298 0.961 . S
H286 C298 0.959 . S
H287 C301 0.929 . S
H288 C302 0.931 . S
H289 C304 0.934 . S
C290 H278 0.930 . S
C290 C291 1.399 . S
C290 C295 1.399 . S
C291 C290 1.399 . S
C291 C292 1.376 . S
C292 H279 0.930 1_565 S
C292 C291 1.376 . S
C292 C293 1.388 1_565 S
C293 H280 0.930 . S
C293 C292 1.388 1_545 S
C293 C294 1.390 . S
C294 C293 1.390 . S
C294 C295 1.394 1_545 S
C294 C300 1.465 . S
C295 C290 1.399 . S
C295 C294 1.394 1_565 S
C295 C296 1.516 . S
C296 C295 1.516 . S
C296 C297 1.502 . S
C296 C298 1.561 1_565 S
C296 C299 1.526 1_565 S
C297 H281 0.959 . S
C297 H282 0.959 . S
C297 H283 0.961 . S
C297 C296 1.502 . S
C298 H284 0.960 1_545 S
C298 H285 0.961 . S
C298 H286 0.959 . S
C298 C296 1.561 1_545 S
C299 C296 1.526 1_545 S
C299 C300 1.396 . S
C299 C304 1.390 . S
C300 C294 1.465 . S
C300 C299 1.396 . S
C300 C301 1.399 . S
C301 H287 0.929 . S
C301 C300 1.399 . S
C301 C302 1.385 . S
C302 H288 0.931 . S
C302 C301 1.385 . S
C302 C303 1.389 . S
C303 C302 1.389 . S
C303 C304 1.387 . S
C304 H289 0.934 . S
C304 C299 1.390 . S
C304 C303 1.387 . S
H305 C317 0.930 . S
H306 C319 0.930 . S
H307 C320 0.930 . S
H308 C324 0.959 . S
H309 C324 0.959 . S
H310 C324 0.961 . S
H311 C325 0.960 . S
H312 C325 0.961 . S
H313 C325 0.959 . S
H314 C328 0.929 . S
H315 C329 0.931 . S
H316 C331 0.930 . S
C317 H305 0.930 . S
C317 C318 1.399 . S
C317 C322 1.399 . S
C318 C317 1.399 . S
C318 C319 1.376 . S
C319 H306 0.930 . S
C319 C318 1.376 . S
C319 C320 1.388 1_565 S
C320 H307 0.930 . S
C320 C319 1.388 1_545 S
C320 C321 1.390 . S
C321 C320 1.390 . S
C321 C322 1.394 1_545 S
C321 C327 1.465 . S
C322 C317 1.399 . S
C322 C321 1.394 1_565 S
C322 C323 1.516 . S
C323 C322 1.516 . S
C323 C324 1.502 . S
C323 C325 1.561 1_565 S
C323 C326 1.526 1_565 S
C324 H308 0.959 . S
C324 H309 0.959 . S
C324 H310 0.961 . S
C324 C323 1.502 . S
C325 H311 0.960 . S
C325 H312 0.961 . S
C325 H313 0.959 . S
C325 C323 1.561 1_545 S
C326 C323 1.526 1_545 S
C326 C327 1.396 . S
C326 C331 1.390 . S
C327 C321 1.465 . S
C327 C326 1.396 . S
C327 C328 1.399 . S
C328 H314 0.929 . S
C328 C327 1.399 . S
C328 C329 1.385 . S
C329 H315 0.931 . S
C329 C328 1.385 . S
C329 C330 1.389 . S
C330 C329 1.389 . S
C330 C331 1.387 . S
C331 H316 0.930 . S
C331 C326 1.390 . S
C331 C330 1.387 . S
H332 C344 0.930 . S
H333 C346 0.930 . S
H334 C347 0.930 . S
H335 C351 0.959 . S
H336 C351 0.959 . S
H337 C351 0.961 . S
H338 C352 0.960 . S
H339 C352 0.961 . S
H340 C352 0.959 . S
H341 C355 0.929 . S
H342 C356 0.931 . S
H343 C358 0.930 . S
C344 H332 0.930 . S
C344 C345 1.399 . S
C344 C349 1.399 . S
C345 C344 1.399 . S
C345 C346 1.376 . S
C346 H333 0.930 . S
C346 C345 1.376 . S
C346 C347 1.388 . S
C347 H334 0.930 . S
C347 C346 1.388 . S
C347 C348 1.390 . S
C348 C347 1.390 . S
C348 C349 1.394 . S
C348 C354 1.465 . S
C349 C344 1.399 . S
C349 C348 1.394 . S
C349 C350 1.516 . S
C350 C349 1.516 . S
C350 C351 1.502 . S
C350 C352 1.561 . S
C350 C353 1.526 . S
C351 H335 0.959 . S
C351 H336 0.959 . S
C351 H337 0.961 . S
C351 C350 1.502 . S
C352 H338 0.960 . S
C352 H339 0.961 . S
C352 H340 0.959 . S
C352 C350 1.561 . S
C353 C350 1.526 . S
C353 C354 1.396 . S
C353 C358 1.390 . S
C354 C348 1.465 . S
C354 C353 1.396 . S
C354 C355 1.399 . S
C355 H341 0.929 . S
C355 C354 1.399 . S
C355 C356 1.385 . S
C356 H342 0.931 . S
C356 C355 1.385 . S
C356 C357 1.389 . S
C357 C356 1.389 . S
C357 C358 1.387 . S
C358 H343 0.930 . S
C358 C353 1.390 . S
C358 C357 1.387 . S
H359 C371 0.930 . S
H360 C373 0.930 . S
H361 C374 0.930 . S
H362 C378 0.959 . S
H363 C378 0.959 . S
H364 C378 0.961 . S
H365 C379 0.960 . S
H366 C379 0.961 . S
H367 C379 0.959 . S
H368 C382 0.929 . S
H369 C383 0.931 . S
H370 C385 0.930 . S
C371 H359 0.930 . S
C371 C372 1.399 . S
C371 C376 1.399 . S
C372 C371 1.399 . S
C372 C373 1.376 . S
C373 H360 0.930 . S
C373 C372 1.376 . S
C373 C374 1.388 . S
C374 H361 0.930 . S
C374 C373 1.388 . S
C374 C375 1.390 . S
C375 C374 1.390 . S
C375 C376 1.394 . S
C375 C381 1.465 . S
C376 C371 1.399 . S
C376 C375 1.394 . S
C376 C377 1.516 . S
C377 C376 1.516 . S
C377 C378 1.502 . S
C377 C379 1.561 . S
C377 C380 1.526 . S
C378 H362 0.959 . S
C378 H363 0.959 . S
C378 H364 0.961 . S
C378 C377 1.502 . S
C379 H365 0.960 . S
C379 H366 0.961 . S
C379 H367 0.959 . S
C379 C377 1.561 . S
C380 C377 1.526 . S
C380 C381 1.396 . S
C380 C385 1.390 . S
C381 C375 1.465 . S
C381 C380 1.396 . S
C381 C382 1.399 . S
C382 H368 0.929 . S
C382 C381 1.399 . S
C382 C383 1.385 . S
C383 H369 0.931 . S
C383 C382 1.385 . S
C383 C384 1.389 . S
C384 C383 1.389 . S
C384 C385 1.387 . S
C385 H370 0.930 . S
C385 C380 1.390 . S
C385 C384 1.387 . S
H386 C398 0.930 . S
H387 C400 0.930 . S
H388 C401 0.930 . S
H389 C405 0.959 . S
H390 C405 0.959 . S
H391 C405 0.961 . S
H392 C406 0.960 . S
H393 C406 0.961 . S
H394 C406 0.959 . S
H395 C409 0.929 . S
H396 C410 0.931 . S
H397 C412 0.930 . S
C398 H386 0.930 . S
C398 C399 1.399 . S
C398 C403 1.399 . S
C399 C398 1.399 . S
C399 C400 1.376 . S
C400 H387 0.930 . S
C400 C399 1.376 . S
C400 C401 1.388 . S
C401 H388 0.930 . S
C401 C400 1.388 . S
C401 C402 1.390 . S
C402 C401 1.390 . S
C402 C403 1.394 . S
C402 C408 1.465 . S
C403 C398 1.399 . S
C403 C402 1.394 . S
C403 C404 1.516 . S
C404 C403 1.516 . S
C404 C405 1.502 . S
C404 C406 1.561 . S
C404 C407 1.526 . S
C405 H389 0.959 . S
C405 H390 0.959 . S
C405 H391 0.961 . S
C405 C404 1.502 . S
C406 H392 0.960 . S
C406 H393 0.961 . S
C406 H394 0.959 . S
C406 C404 1.561 . S
C407 C404 1.526 . S
C407 C408 1.396 . S
C407 C412 1.390 . S
C408 C402 1.465 . S
C408 C407 1.396 . S
C408 C409 1.399 . S
C409 H395 0.929 . S
C409 C408 1.399 . S
C409 C410 1.385 . S
C410 H396 0.931 . S
C410 C409 1.385 . S
C410 C411 1.389 . S
C411 C410 1.389 . S
C411 C412 1.387 . S
C412 H397 0.930 . S
C412 C407 1.390 . S
C412 C411 1.387 . S
H413 C425 0.930 . S
H414 C427 0.930 . S
H415 C428 0.930 . S
H416 C432 0.959 . S
H417 C432 0.959 . S
H418 C432 0.961 . S
H419 C433 0.960 . S
H420 C433 0.961 . S
H421 C433 0.959 . S
H422 C436 0.929 . S
H423 C437 0.931 . S
H424 C439 0.930 . S
C425 H413 0.930 . S
C425 C426 1.399 . S
C425 C430 1.399 . S
C426 C425 1.399 . S
C426 C427 1.376 . S
C427 H414 0.930 . S
C427 C426 1.376 . S
C427 C428 1.388 . S
C428 H415 0.930 . S
C428 C427 1.388 . S
C428 C429 1.390 . S
C429 C428 1.390 . S
C429 C430 1.394 . S
C429 C435 1.465 . S
C430 C425 1.399 . S
C430 C429 1.394 . S
C430 C431 1.516 . S
C431 C430 1.516 . S
C431 C432 1.502 . S
C431 C433 1.561 . S
C431 C434 1.526 . S
C432 H416 0.959 . S
C432 H417 0.959 . S
C432 H418 0.961 . S
C432 C431 1.502 . S
C433 H419 0.960 . S
C433 H420 0.961 . S
C433 H421 0.959 . S
C433 C431 1.561 . S
C434 C431 1.526 . S
C434 C435 1.396 . S
C434 C439 1.390 . S
C435 C429 1.465 . S
C435 C434 1.396 . S
C435 C436 1.399 . S
C436 H422 0.929 . S
C436 C435 1.399 . S
C436 C437 1.385 . S
C437 H423 0.931 . S
C437 C436 1.385 . S
C437 C438 1.389 . S
C438 C437 1.389 . S
C438 C439 1.387 . S
C439 H424 0.930 . S
C439 C434 1.390 . S
C439 C438 1.387 . S
H440 C452 0.930 . S
H441 C454 0.930 . S
H442 C455 0.930 1_565 S
H443 C459 0.959 . S
H444 C459 0.959 . S
H445 C459 0.961 . S
H446 C460 0.960 . S
H447 C460 0.961 . S
H448 C460 0.959 . S
H449 C463 0.929 1_565 S
H450 C464 0.954 . S
H451 C466 0.930 . S
C452 H440 0.930 . S
C452 C453 1.399 . S
C452 C457 1.399 . S
C453 C452 1.399 . S
C453 C454 1.376 . S
C454 H441 0.930 . S
C454 C453 1.376 . S
C454 C455 1.388 . S
C455 H442 0.930 1_545 S
C455 C454 1.388 . S
C455 C456 1.390 . S
C456 C455 1.390 . S
C456 C457 1.394 . S
C456 C462 1.465 1_655 S
C457 C452 1.399 . S
C457 C456 1.394 . S
C457 C458 1.516 1_655 S
C458 C457 1.516 1_455 S
C458 C459 1.502 1_455 S
C458 C460 1.561 . S
C458 C461 1.526 . S
C459 H443 0.959 . S
C459 H444 0.959 . S
C459 H445 0.961 . S
C459 C458 1.502 1_655 S
C460 H446 0.960 . S
C460 H447 0.961 . S
C460 H448 0.959 . S
C460 C458 1.561 . S
C461 C458 1.526 . S
C461 C462 1.396 . S
C461 C466 1.390 . S
C462 C456 1.465 1_455 S
C462 C461 1.396 . S
C462 C463 1.399 . S
C463 H449 0.929 1_545 S
C463 C462 1.399 . S
C463 C464 1.385 . S
C464 H450 0.954 . S
C464 C463 1.385 . S
C464 C465 1.389 . S
C465 C464 1.389 . S
C465 C466 1.387 . S
C466 H451 0.930 . S
C466 C461 1.390 . S
C466 C465 1.387 . S
H467 C479 0.930 . S
H468 C481 0.930 . S
H469 C482 0.930 . S
H470 C486 0.959 . S
H471 C486 0.959 . S
H472 C486 0.961 . S
H473 C487 0.960 . S
H474 C487 0.961 . S
H475 C487 0.959 . S
H476 C490 0.929 . S
H477 C491 0.931 . S
H478 C493 0.930 . S
C479 H467 0.930 . S
C479 C480 1.399 . S
C479 C484 1.399 . S
C480 C479 1.399 . S
C480 C481 1.376 . S
C481 H468 0.930 . S
C481 C480 1.376 . S
C481 C482 1.388 . S
C482 H469 0.930 . S
C482 C481 1.388 . S
C482 C483 1.390 . S
C483 C482 1.390 . S
C483 C484 1.394 . S
C483 C489 1.465 . S
C484 C479 1.399 . S
C484 C483 1.394 . S
C484 C485 1.516 . S
C485 C484 1.516 . S
C485 C486 1.502 . S
C485 C487 1.561 1_565 S
C485 C488 1.526 . S
C486 H470 0.959 . S
C486 H471 0.959 . S
C486 H472 0.961 . S
C486 C485 1.502 . S
C487 H473 0.960 . S
C487 H474 0.961 . S
C487 H475 0.959 . S
C487 C485 1.561 1_545 S
C488 C485 1.526 . S
C488 C489 1.396 . S
C488 C493 1.390 . S
C489 C483 1.465 . S
C489 C488 1.396 . S
C489 C490 1.399 . S
C490 H476 0.929 . S
C490 C489 1.399 . S
C490 C491 1.385 . S
C491 H477 0.931 . S
C491 C490 1.385 . S
C491 C492 1.389 . S
C492 C491 1.389 . S
C492 C493 1.387 . S
C493 H478 0.930 . S
C493 C488 1.390 . S
C493 C492 1.387 . S
H494 C506 0.930 . S
H495 C508 0.930 . S
H496 C509 0.930 . S
H497 C513 0.959 1_565 S
H498 C513 0.959 . S
H499 C513 0.961 . S
H500 C514 0.960 . S
H501 C514 0.961 . S
H502 C514 0.959 1_565 S
H503 C517 0.929 . S
H504 C518 0.931 . S
H505 C520 0.930 . S
C506 H494 0.930 . S
C506 C507 1.399 . S
C506 C511 1.399 . S
C507 C506 1.399 . S
C507 C508 1.376 . S
C508 H495 0.930 . S
C508 C507 1.376 . S
C508 C509 1.388 . S
C509 H496 0.930 . S
C509 C508 1.388 . S
C509 C510 1.390 . S
C510 C509 1.390 . S
C510 C511 1.394 . S
C510 C516 1.465 1_455 S
C511 C506 1.399 . S
C511 C510 1.394 . S
C511 C512 1.516 1_455 S
C512 C511 1.516 1_655 S
C512 C513 1.502 1_665 S
C512 C514 1.561 1_565 S
C512 C515 1.526 . S
C513 H497 0.959 1_545 S
C513 H498 0.959 . S
C513 H499 0.961 . S
C513 C512 1.502 1_445 S
C514 H500 0.960 . S
C514 H501 0.961 . S
C514 H502 0.959 1_545 S
C514 C512 1.561 1_545 S
C515 C512 1.526 . S
C515 C516 1.396 . S
C515 C520 1.390 . S
C516 C510 1.465 1_655 S
C516 C515 1.396 . S
C516 C517 1.399 . S
C517 H503 0.929 . S
C517 C516 1.399 . S
C517 C518 1.385 . S
C518 H504 0.931 . S
C518 C517 1.385 . S
C518 C519 1.389 . S
C519 C518 1.389 . S
C519 C520 1.387 . S
C520 H505 0.930 . S
C520 C515 1.390 . S
C520 C519 1.387 . S
H521 C533 0.930 . S
H522 C535 0.930 . S
H523 C536 0.930 1_565 S
H524 C540 0.959 . S
H525 C540 0.959 . S
H526 C540 0.961 . S
H527 C541 0.960 . S
H528 C541 0.961 . S
H529 C541 0.959 . S
H530 C544 0.929 1_565 S
H531 C545 0.931 . S
H532 C547 0.930 . S
C533 H521 0.930 . S
C533 C534 1.399 . S
C533 C538 1.399 . S
C534 C533 1.399 . S
C534 C535 1.376 . S
C535 H522 0.930 . S
C535 C534 1.376 . S
C535 C536 1.388 . S
C536 H523 0.930 1_545 S
C536 C535 1.388 . S
C536 C537 1.390 . S
C537 C536 1.390 . S
C537 C538 1.394 . S
C537 C543 1.465 . S
C538 C533 1.399 . S
C538 C537 1.394 . S
C538 C539 1.516 . S
C539 C538 1.516 . S
C539 C540 1.502 . S
C539 C541 1.561 . S
C539 C542 1.526 . S
C540 H524 0.959 . S
C540 H525 0.959 . S
C540 H526 0.961 . S
C540 C539 1.502 . S
C541 H527 0.960 . S
C541 H528 0.961 . S
C541 H529 0.959 . S
C541 C539 1.561 . S
C542 C539 1.526 . S
C542 C543 1.396 . S
C542 C547 1.390 . S
C543 C537 1.465 . S
C543 C542 1.396 . S
C543 C544 1.399 . S
C544 H530 0.929 1_545 S
C544 C543 1.399 . S
C544 C545 1.385 . S
C545 H531 0.931 . S
C545 C544 1.385 . S
C545 C546 1.389 . S
C546 C545 1.389 . S
C546 C547 1.387 . S
C547 H532 0.930 . S
C547 C542 1.390 . S
C547 C546 1.387 . S
H548 C560 0.930 . S
H549 C562 0.930 . S
H550 C563 0.930 . S
H551 C567 0.959 . S
H552 C567 0.959 . S
H553 C567 0.961 . S
H554 C568 0.960 . S
H555 C568 0.961 . S
H556 C568 0.959 . S
H557 C571 0.929 . S
H558 C572 0.931 . S
H559 C574 0.930 . S
C560 H548 0.930 . S
C560 C561 1.399 . S
C560 C565 1.399 . S
C561 C560 1.399 . S
C561 C562 1.376 . S
C562 H549 0.930 . S
C562 C561 1.376 . S
C562 C563 1.388 . S
C563 H550 0.930 . S
C563 C562 1.388 . S
C563 C564 1.390 . S
C564 C563 1.390 . S
C564 C565 1.394 . S
C564 C570 1.465 . S
C565 C560 1.399 . S
C565 C564 1.394 . S
C565 C566 1.516 . S
C566 C565 1.516 . S
C566 C567 1.502 . S
C566 C568 1.561 . S
C566 C569 1.526 . S
C567 H551 0.959 . S
C567 H552 0.959 . S
C567 H553 0.961 . S
C567 C566 1.502 . S
C568 H554 0.960 . S
C568 H555 0.961 . S
C568 H556 0.959 . S
C568 C566 1.561 . S
C569 C566 1.526 . S
C569 C570 1.396 . S
C569 C574 1.390 . S
C570 C564 1.465 . S
C570 C569 1.396 . S
C570 C571 1.399 . S
C571 H557 0.929 . S
C571 C570 1.399 . S
C571 C572 1.385 . S
C572 H558 0.931 . S
C572 C571 1.385 . S
C572 C573 1.389 . S
C573 C572 1.389 . S
C573 C574 1.387 . S
C574 H559 0.930 . S
C574 C569 1.390 . S
C574 C573 1.387 . S
H575 C587 0.930 . S
H576 C589 0.930 . S
H577 C590 0.930 . S
H578 C594 0.959 . S
H579 C594 0.959 . S
H580 C594 0.961 . S
H581 C595 0.960 . S
H582 C595 0.961 . S
H583 C595 0.959 . S
H584 C598 0.929 . S
H585 C599 0.931 . S
H586 C601 0.930 . S
C587 H575 0.930 . S
C587 C588 1.399 . S
C587 C592 1.399 . S
C588 C587 1.399 . S
C588 C589 1.376 1_455 S
C589 H576 0.930 . S
C589 C588 1.376 1_655 S
C589 C590 1.388 . S
C590 H577 0.930 . S
C590 C589 1.388 . S
C590 C591 1.390 . S
C591 C590 1.390 . S
C591 C592 1.394 1_655 S
C591 C597 1.465 . S
C592 C587 1.399 . S
C592 C591 1.394 1_455 S
C592 C593 1.516 . S
C593 C592 1.516 . S
C593 C594 1.502 . S
C593 C595 1.561 . S
C593 C596 1.526 . S
C594 H578 0.959 . S
C594 H579 0.959 . S
C594 H580 0.961 . S
C594 C593 1.502 . S
C595 H581 0.960 . S
C595 H582 0.961 . S
C595 H583 0.959 . S
C595 C593 1.561 . S
C596 C593 1.526 . S
C596 C597 1.396 1_455 S
C596 C601 1.390 . S
C597 C591 1.465 . S
C597 C596 1.396 1_655 S
C597 C598 1.399 . S
C598 H584 0.929 . S
C598 C597 1.399 . S
C598 C599 1.385 . S
C599 H585 0.931 . S
C599 C598 1.385 . S
C599 C600 1.389 . S
C600 C599 1.389 . S
C600 C601 1.387 1_655 S
C601 H586 0.930 . S
C601 C596 1.390 . S
C601 C600 1.387 1_455 S
H602 C614 0.930 . S
H603 C616 0.930 . S
H604 C617 0.930 . S
H605 C621 0.959 . S
H606 C621 0.959 . S
H607 C621 0.961 . S
H608 C622 0.960 . S
H609 C622 0.961 . S
H610 C622 0.959 . S
H611 C625 0.929 . S
H612 C626 0.931 . S
H613 C628 0.930 . S
C614 H602 0.930 . S
C614 C615 1.399 . S
C614 C619 1.399 . S
C615 C614 1.399 . S
C615 C616 1.376 . S
C616 H603 0.930 . S
C616 C615 1.376 . S
C616 C617 1.388 . S
C617 H604 0.930 . S
C617 C616 1.388 . S
C617 C618 1.390 . S
C618 C617 1.390 . S
C618 C619 1.394 . S
C618 C624 1.465 . S
C619 C614 1.399 . S
C619 C618 1.394 . S
C619 C620 1.516 . S
C620 C619 1.516 . S
C620 C621 1.502 . S
C620 C622 1.561 . S
C620 C623 1.526 . S
C621 H605 0.959 . S
C621 H606 0.959 . S
C621 H607 0.961 . S
C621 C620 1.502 . S
C622 H608 0.960 . S
C622 H609 0.961 . S
C622 H610 0.959 . S
C622 C620 1.561 . S
C623 C620 1.526 . S
C623 C624 1.396 . S
C623 C628 1.390 . S
C624 C618 1.465 . S
C624 C623 1.396 . S
C624 C625 1.399 . S
C625 H611 0.929 . S
C625 C624 1.399 . S
C625 C626 1.385 . S
C626 H612 0.931 . S
C626 C625 1.385 . S
C626 C627 1.389 . S
C627 C626 1.389 . S
C627 C628 1.387 . S
C628 H613 0.930 . S
C628 C623 1.390 . S
C628 C627 1.387 . S
H629 C641 0.930 . S
H630 C643 0.930 . S
H631 C644 0.930 . S
H632 C648 0.959 . S
H633 C648 0.959 . S
H634 C648 0.961 . S
H635 C649 0.960 . S
H636 C649 0.961 . S
H637 C649 0.959 . S
H638 C652 0.929 . S
H639 C653 0.931 . S
H640 C655 0.930 . S
C641 H629 0.930 . S
C641 C642 1.399 . S
C641 C646 1.399 . S
C642 C641 1.399 . S
C642 C643 1.376 . S
C643 H630 0.930 . S
C643 C642 1.376 . S
C643 C644 1.388 . S
C644 H631 0.930 . S
C644 C643 1.388 . S
C644 C645 1.390 . S
C645 C644 1.390 . S
C645 C646 1.394 . S
C645 C651 1.465 . S
C646 C641 1.399 . S
C646 C645 1.394 . S
C646 C647 1.516 1_455 S
C647 C646 1.516 1_655 S
C647 C648 1.502 . S
C647 C649 1.561 1_655 S
C647 C650 1.526 . S
C648 H632 0.959 . S
C648 H633 0.959 . S
C648 H634 0.961 . S
C648 C647 1.502 . S
C649 H635 0.960 . S
C649 H636 0.961 . S
C649 H637 0.959 . S
C649 C647 1.561 1_455 S
C650 C647 1.526 . S
C650 C651 1.396 1_655 S
C650 C655 1.390 . S
C651 C645 1.465 . S
C651 C650 1.396 1_455 S
C651 C652 1.399 . S
C652 H638 0.929 . S
C652 C651 1.399 . S
C652 C653 1.385 1_455 S
C653 H639 0.931 . S
C653 C652 1.385 1_655 S
C653 C654 1.389 . S
C654 C653 1.389 . S
C654 C655 1.387 . S
C655 H640 0.930 . S
C655 C650 1.390 . S
C655 C654 1.387 . S
H656 C668 0.932 . S
H657 C670 0.930 . S
H658 C671 0.930 . S
H659 C675 0.959 . S
H660 C675 0.959 . S
H661 C675 0.961 . S
H662 C676 0.960 . S
H663 C676 0.961 . S
H664 C676 0.959 . S
H665 C679 0.929 . S
H666 C680 0.931 . S
H667 C682 0.930 . S
C668 H656 0.932 . S
C668 C669 1.397 1_655 S
C668 C673 1.399 . S
C669 C668 1.397 1_455 S
C669 C670 1.376 . S
C670 H657 0.930 . S
C670 C669 1.376 . S
C670 C671 1.388 . S
C671 H658 0.930 . S
C671 C670 1.388 . S
C671 C672 1.390 . S
C672 C671 1.390 . S
C672 C673 1.394 1_455 S
C672 C678 1.465 . S
C673 C668 1.399 . S
C673 C672 1.394 1_655 S
C673 C674 1.516 . S
C674 C673 1.516 . S
C674 C675 1.502 . S
C674 C676 1.561 . S
C674 C677 1.526 . S
C675 H659 0.959 . S
C675 H660 0.959 . S
C675 H661 0.961 . S
C675 C674 1.502 . S
C676 H662 0.960 . S
C676 H663 0.961 . S
C676 H664 0.959 . S
C676 C674 1.561 . S
C677 C674 1.526 . S
C677 C678 1.396 1_655 S
C677 C682 1.390 . S
C678 C672 1.465 . S
C678 C677 1.396 1_455 S
C678 C679 1.399 . S
C679 H665 0.929 . S
C679 C678 1.399 . S
C679 C680 1.385 . S
C680 H666 0.931 . S
C680 C679 1.385 . S
C680 C681 1.389 1_455 S
C681 C680 1.389 1_655 S
C681 C682 1.387 . S
C682 H667 0.930 . S
C682 C677 1.390 . S
C682 C681 1.387 . S
H683 C695 0.930 . S
H684 C697 0.930 . S
H685 C698 0.930 . S
H686 C702 0.959 . S
H687 C702 0.959 . S
H688 C702 0.961 . S
H689 C703 0.960 . S
H690 C703 0.961 . S
H691 C703 0.959 . S
H692 C706 0.929 . S
H693 C707 0.931 . S
H694 C709 0.930 . S
C695 H683 0.930 . S
C695 C696 1.399 . S
C695 C700 1.399 . S
C696 C695 1.399 . S
C696 C697 1.376 . S
C697 H684 0.930 . S
C697 C696 1.376 . S
C697 C698 1.388 . S
C698 H685 0.930 . S
C698 C697 1.388 . S
C698 C699 1.390 . S
C699 C698 1.390 . S
C699 C700 1.394 . S
C699 C705 1.465 . S
C700 C695 1.399 . S
C700 C699 1.394 . S
C700 C701 1.516 . S
C701 C700 1.516 . S
C701 C702 1.502 . S
C701 C703 1.561 . S
C701 C704 1.526 . S
C702 H686 0.959 . S
C702 H687 0.959 . S
C702 H688 0.961 . S
C702 C701 1.502 . S
C703 H689 0.960 . S
C703 H690 0.961 . S
C703 H691 0.959 . S
C703 C701 1.561 . S
C704 C701 1.526 . S
C704 C705 1.396 . S
C704 C709 1.390 . S
C705 C699 1.465 . S
C705 C704 1.396 . S
C705 C706 1.399 . S
C706 H692 0.929 . S
C706 C705 1.399 . S
C706 C707 1.385 . S
C707 H693 0.931 . S
C707 C706 1.385 . S
C707 C708 1.389 . S
C708 C707 1.389 . S
C708 C709 1.387 . S
C709 H694 0.930 . S
C709 C704 1.390 . S
C709 C708 1.387 . S
H710 C722 0.930 . S
H711 C724 0.930 . S
H712 C725 0.930 . S
H713 C729 0.959 . S
H714 C729 0.959 . S
H715 C729 0.961 . S
H716 C730 0.960 . S
H717 C730 0.961 . S
H718 C730 0.959 . S
H719 C733 0.929 . S
H720 C734 0.931 . S
H721 C736 0.930 . S
C722 H710 0.930 . S
C722 C723 1.399 . S
C722 C727 1.399 . S
C723 C722 1.399 . S
C723 C724 1.376 . S
C724 H711 0.930 . S
C724 C723 1.376 . S
C724 C725 1.388 . S
C725 H712 0.930 . S
C725 C724 1.388 . S
C725 C726 1.390 . S
C726 C725 1.390 . S
C726 C727 1.394 . S
C726 C732 1.465 . S
C727 C722 1.399 . S
C727 C726 1.394 . S
C727 C728 1.516 . S
C728 C727 1.516 . S
C728 C729 1.502 . S
C728 C730 1.561 . S
C728 C731 1.526 . S
C729 H713 0.959 . S
C729 H714 0.959 . S
C729 H715 0.961 . S
C729 C728 1.502 . S
C730 H716 0.960 . S
C730 H717 0.961 . S
C730 H718 0.959 . S
C730 C728 1.561 . S
C731 C728 1.526 . S
C731 C732 1.396 . S
C731 C736 1.390 . S
C732 C726 1.465 . S
C732 C731 1.396 . S
C732 C733 1.399 . S
C733 H719 0.929 . S
C733 C732 1.399 . S
C733 C734 1.385 . S
C734 H720 0.931 . S
C734 C733 1.385 . S
C734 C735 1.389 . S
C735 C734 1.389 . S
C735 C736 1.387 . S
C736 H721 0.930 . S
C736 C731 1.390 . S
C736 C735 1.387 . S
H737 C749 0.930 . S
H738 C751 0.930 . S
H739 C752 0.930 . S
H740 C756 0.959 . S
H741 C756 0.959 . S
H742 C756 0.961 . S
H743 C757 0.960 . S
H744 C757 0.961 . S
H745 C757 0.959 . S
H746 C760 0.929 . S
H747 C761 0.931 . S
H748 C763 0.930 . S
C749 H737 0.930 . S
C749 C750 1.399 . S
C749 C754 1.399 . S
C750 C749 1.399 . S
C750 C751 1.376 . S
C751 H738 0.930 . S
C751 C750 1.376 . S
C751 C752 1.388 . S
C752 H739 0.930 . S
C752 C751 1.388 . S
C752 C753 1.390 . S
C753 C752 1.390 . S
C753 C754 1.394 . S
C753 C759 1.465 1_455 S
C754 C749 1.399 . S
C754 C753 1.394 . S
C754 C755 1.516 1_455 S
C755 C754 1.516 1_655 S
C755 C756 1.502 1_655 S
C755 C757 1.561 . S
C755 C758 1.526 . S
C756 H740 0.959 . S
C756 H741 0.959 . S
C756 H742 0.961 . S
C756 C755 1.502 1_455 S
C757 H743 0.960 . S
C757 H744 0.961 . S
C757 H745 0.959 . S
C757 C755 1.561 . S
C758 C755 1.526 . S
C758 C759 1.396 . S
C758 C763 1.390 . S
C759 C753 1.465 1_655 S
C759 C758 1.396 . S
C759 C760 1.399 . S
C760 H746 0.929 . S
C760 C759 1.399 . S
C760 C761 1.385 . S
C761 H747 0.931 . S
C761 C760 1.385 . S
C761 C762 1.389 . S
C762 C761 1.389 . S
C762 C763 1.387 . S
C763 H748 0.930 . S
C763 C758 1.390 . S
C763 C762 1.387 . S
H764 C776 0.930 1_655 S
H765 C778 0.930 . S
H766 C779 0.930 . S
H767 C783 0.959 . S
H768 C783 0.959 . S
H769 C783 0.961 . S
H770 C784 0.960 . S
H771 C784 0.961 1_655 S
H772 C784 0.959 . S
H773 C787 0.929 . S
H774 C788 0.930 1_455 S
H775 C790 0.930 . S
C776 H764 0.930 1_455 S
C776 C777 1.399 . S
C776 C781 1.399 . S
C777 C776 1.399 . S
C777 C778 1.376 . S
C778 H765 0.930 . S
C778 C777 1.376 . S
C778 C779 1.388 . S
C779 H766 0.930 . S
C779 C778 1.388 . S
C779 C780 1.390 . S
C780 C779 1.390 . S
C780 C781 1.394 . S
C780 C786 1.465 . S
C781 C776 1.399 . S
C781 C780 1.394 . S
C781 C782 1.516 1_455 S
C782 C781 1.516 1_655 S
C782 C783 1.502 . S
C782 C784 1.561 1_655 S
C782 C785 1.526 . S
C783 H767 0.959 . S
C783 H768 0.959 . S
C783 H769 0.961 . S
C783 C782 1.502 . S
C784 H770 0.960 . S
C784 H771 0.961 1_455 S
C784 H772 0.959 . S
C784 C782 1.561 1_455 S
C785 C782 1.526 . S
C785 C786 1.396 1_655 S
C785 C790 1.390 . S
C786 C780 1.465 . S
C786 C785 1.396 1_455 S
C786 C787 1.399 . S
C787 H773 0.929 . S
C787 C786 1.399 . S
C787 C788 1.385 1_455 S
C788 H774 0.930 1_655 S
C788 C787 1.385 1_655 S
C788 C789 1.389 . S
C789 C788 1.389 . S
C789 C790 1.387 . S
C790 H775 0.930 . S
C790 C785 1.390 . S
C790 C789 1.387 . S
H791 C803 0.930 . S
H792 C805 0.930 . S
H793 C806 0.930 . S
H794 C810 0.959 . S
H795 C810 0.959 . S
H796 C810 0.961 . S
H797 C811 0.960 . S
H798 C811 0.961 . S
H799 C811 0.959 . S
H800 C814 0.929 . S
H801 C815 0.931 . S
H802 C817 0.930 . S
C803 H791 0.930 . S
C803 C804 1.399 . S
C803 C808 1.399 . S
C804 C803 1.399 . S
C804 C805 1.376 . S
C805 H792 0.930 . S
C805 C804 1.376 . S
C805 C806 1.388 . S
C806 H793 0.930 . S
C806 C805 1.388 . S
C806 C807 1.390 . S
C807 C806 1.390 . S
C807 C808 1.394 . S
C807 C813 1.465 . S
C808 C803 1.399 . S
C808 C807 1.394 . S
C808 C809 1.516 . S
C809 C808 1.516 . S
C809 C810 1.502 . S
C809 C811 1.561 . S
C809 C812 1.526 . S
C810 H794 0.959 . S
C810 H795 0.959 . S
C810 H796 0.961 . S
C810 C809 1.502 . S
C811 H797 0.960 . S
C811 H798 0.961 . S
C811 H799 0.959 . S
C811 C809 1.561 . S
C812 C809 1.526 . S
C812 C813 1.396 . S
C812 C817 1.390 . S
C813 C807 1.465 . S
C813 C812 1.396 . S
C813 C814 1.399 . S
C814 H800 0.929 . S
C814 C813 1.399 . S
C814 C815 1.385 . S
C815 H801 0.931 . S
C815 C814 1.385 . S
C815 C816 1.389 . S
C816 C815 1.389 . S
C816 C817 1.387 . S
C817 H802 0.930 . S
C817 C812 1.390 . S
C817 C816 1.387 . S
H818 C830 0.930 . S
H819 C832 0.930 . S
H820 C833 0.930 . S
H821 C837 0.959 . S
H822 C837 0.959 . S
H823 C837 0.961 . S
H824 C838 0.960 . S
H825 C838 0.961 . S
H826 C838 0.959 . S
H827 C841 0.929 . S
H828 C842 0.931 . S
H829 C844 0.930 . S
C830 H818 0.930 . S
C830 C831 1.399 . S
C830 C835 1.399 . S
C831 C830 1.399 . S
C831 C832 1.376 . S
C832 H819 0.930 . S
C832 C831 1.376 . S
C832 C833 1.388 . S
C833 H820 0.930 . S
C833 C832 1.388 . S
C833 C834 1.390 . S
C834 C833 1.390 . S
C834 C835 1.394 . S
C834 C840 1.465 . S
C835 C830 1.399 . S
C835 C834 1.394 . S
C835 C836 1.516 . S
C836 C835 1.516 . S
C836 C837 1.502 . S
C836 C838 1.561 . S
C836 C839 1.526 . S
C837 H821 0.959 . S
C837 H822 0.959 . S
C837 H823 0.961 . S
C837 C836 1.502 . S
C838 H824 0.960 . S
C838 H825 0.961 . S
C838 H826 0.959 . S
C838 C836 1.561 . S
C839 C836 1.526 . S
C839 C840 1.396 . S
C839 C844 1.390 . S
C840 C834 1.465 . S
C840 C839 1.396 . S
C840 C841 1.399 . S
C841 H827 0.929 . S
C841 C840 1.399 . S
C841 C842 1.385 . S
C842 H828 0.931 . S
C842 C841 1.385 . S
C842 C843 1.389 . S
C843 C842 1.389 . S
C843 C844 1.387 . S
C844 H829 0.930 . S
C844 C839 1.390 . S
C844 C843 1.387 . S
H845 C857 0.930 . S
H846 C859 0.930 1_655 S
H847 C860 0.930 . S
H848 C864 0.959 . S
H849 C864 0.959 . S
H850 C864 0.961 . S
H851 C865 0.960 1_455 S
H852 C865 0.961 . S
H853 C865 0.959 . S
H854 C868 0.929 . S
H855 C869 0.931 . S
H856 C871 0.940 . S
C857 H845 0.930 . S
C857 C858 1.399 . S
C857 C862 1.399 . S
C858 C857 1.399 . S
C858 C859 1.376 . S
C859 H846 0.930 1_455 S
C859 C858 1.376 . S
C859 C860 1.388 1_455 S
C860 H847 0.930 . S
C860 C859 1.388 1_655 S
C860 C861 1.390 . S
C861 C860 1.390 . S
C861 C862 1.394 1_655 S
C861 C867 1.465 . S
C862 C857 1.399 . S
C862 C861 1.394 1_455 S
C862 C863 1.516 . S
C863 C862 1.516 . S
C863 C864 1.502 . S
C863 C865 1.561 1_455 S
C863 C866 1.526 1_455 S
C864 H848 0.959 . S
C864 H849 0.959 . S
C864 H850 0.961 . S
C864 C863 1.502 . S
C865 H851 0.960 1_655 S
C865 H852 0.961 . S
C865 H853 0.959 . S
C865 C863 1.561 1_655 S
C866 C863 1.526 1_655 S
C866 C867 1.396 . S
C866 C871 1.390 . S
C867 C861 1.465 . S
C867 C866 1.396 . S
C867 C868 1.399 . S
C868 H854 0.929 . S
C868 C867 1.399 . S
C868 C869 1.385 . S
C869 H855 0.931 . S
C869 C868 1.385 . S
C869 C870 1.389 . S
C870 C869 1.389 . S
C870 C871 1.387 . S
C871 H856 0.940 . S
C871 C866 1.390 . S
C871 C870 1.387 . S
H872 C884 0.930 . S
H873 C886 0.930 . S
H874 C887 0.930 . S
H875 C891 0.959 . S
H876 C891 0.959 . S
H877 C891 0.961 . S
H878 C892 0.960 . S
H879 C892 0.961 . S
H880 C892 0.959 . S
H881 C895 0.929 . S
H882 C896 0.931 . S
H883 C898 0.930 . S
C884 H872 0.930 . S
C884 C885 1.399 1_455 S
C884 C889 1.399 . S
C885 C884 1.399 1_655 S
C885 C886 1.376 . S
C886 H873 0.930 . S
C886 C885 1.376 . S
C886 C887 1.388 . S
C887 H874 0.930 . S
C887 C886 1.388 . S
C887 C888 1.390 . S
C888 C887 1.390 . S
C888 C889 1.394 1_655 S
C888 C894 1.465 1_566 S
C889 C884 1.399 . S
C889 C888 1.394 1_455 S
C889 C890 1.516 1_565 S
C890 C889 1.516 1_545 S
C890 C891 1.502 1_545 S
C890 C892 1.561 . S
C890 C893 1.526 1_556 S
C891 H875 0.959 . S
C891 H876 0.959 . S
C891 H877 0.961 . S
C891 C890 1.502 1_565 S
C892 H878 0.960 . S
C892 H879 0.961 . S
C892 H880 0.959 . S
C892 C890 1.561 . S
C893 C890 1.526 1_554 S
C893 C894 1.396 1_455 S
C893 C898 1.390 . S
C894 C888 1.465 1_544 S
C894 C893 1.396 1_655 S
C894 C895 1.399 . S
C895 H881 0.929 . S
C895 C894 1.399 . S
C895 C896 1.385 . S
C896 H882 0.931 . S
C896 C895 1.385 . S
C896 C897 1.389 1_655 S
C897 C896 1.389 1_455 S
C897 C898 1.387 . S
C898 H883 0.930 . S
C898 C893 1.390 . S
C898 C897 1.387 . S
H899 C911 0.919 1_565 S
H900 C913 0.930 . S
H901 C914 0.930 . S
H902 C918 0.959 . S
H903 C918 0.959 . S
H904 C918 0.961 . S
H905 C919 0.960 . S
H906 C919 0.961 . S
H907 C919 0.959 . S
H908 C922 0.929 . S
H909 C923 0.931 . S
H910 C925 0.930 . S
C911 H899 0.919 1_545 S
C911 C912 1.413 . S
C911 C916 1.397 1_545 S
C912 C911 1.413 . S
C912 C913 1.376 . S
C913 H900 0.930 . S
C913 C912 1.376 . S
C913 C914 1.388 . S
C914 H901 0.930 . S
C914 C913 1.388 . S
C914 C915 1.390 . S
C915 C914 1.390 . S
C915 C916 1.394 1_545 S
C915 C921 1.465 1_556 S
C916 C911 1.397 1_565 S
C916 C915 1.394 1_565 S
C916 C917 1.516 . S
C917 C916 1.516 . S
C917 C918 1.502 . S
C917 C919 1.561 . S
C917 C920 1.526 1_556 S
C918 H902 0.959 . S
C918 H903 0.959 . S
C918 H904 0.961 . S
C918 C917 1.502 . S
C919 H905 0.960 . S
C919 H906 0.961 . S
C919 H907 0.959 . S
C919 C917 1.561 . S
C920 C917 1.526 1_554 S
C920 C921 1.396 1_565 S
C920 C925 1.390 . S
C921 C915 1.465 1_554 S
C921 C920 1.396 1_545 S
C921 C922 1.399 . S
C922 H908 0.929 . S
C922 C921 1.399 . S
C922 C923 1.385 . S
C923 H909 0.931 . S
C923 C922 1.385 . S
C923 C924 1.389 1_545 S
C924 C923 1.389 1_565 S
C924 C925 1.387 . S
C925 H910 0.930 . S
C925 C920 1.390 . S
C925 C924 1.387 . S
H926 C938 0.930 . S
H927 C940 0.930 1_565 S
H928 C941 0.930 . S
H929 C945 0.959 . S
H930 C945 0.959 . S
H931 C945 0.961 . S
H932 C946 0.960 . S
H933 C946 0.961 . S
H934 C946 0.959 . S
H935 C949 0.929 . S
H936 C950 0.931 . S
H937 C952 0.930 1_545 S
C938 H926 0.930 . S
C938 C939 1.399 . S
C938 C943 1.399 . S
C939 C938 1.399 . S
C939 C940 1.376 . S
C940 H927 0.930 1_545 S
C940 C939 1.376 . S
C940 C941 1.388 1_545 S
C941 H928 0.930 . S
C941 C940 1.388 1_565 S
C941 C942 1.390 . S
C942 C941 1.390 . S
C942 C943 1.394 1_565 S
C942 C948 1.465 . S
C943 C938 1.399 . S
C943 C942 1.394 1_545 S
C943 C944 1.516 . S
C944 C943 1.516 . S
C944 C945 1.502 . S
C944 C946 1.561 . S
C944 C947 1.526 . S
C945 H929 0.959 . S
C945 H930 0.959 . S
C945 H931 0.961 . S
C945 C944 1.502 . S
C946 H932 0.960 . S
C946 H933 0.961 . S
C946 H934 0.959 . S
C946 C944 1.561 . S
C947 C944 1.526 . S
C947 C948 1.396 1_545 S
C947 C952 1.390 1_545 S
C948 C942 1.465 . S
C948 C947 1.396 1_565 S
C948 C949 1.399 . S
C949 H935 0.929 . S
C949 C948 1.399 . S
C949 C950 1.385 . S
C950 H936 0.931 . S
C950 C949 1.385 . S
C950 C951 1.389 . S
C951 C950 1.389 . S
C951 C952 1.387 . S
C952 H937 0.930 1_565 S
C952 C947 1.390 1_565 S
C952 C951 1.387 . S
H953 C965 0.928 . S
H954 C967 0.930 . S
H955 C968 0.930 . S
H956 C972 0.959 . S
H957 C972 0.959 . S
H958 C972 0.961 . S
H959 C973 0.960 . S
H960 C973 0.961 . S
H961 C973 0.959 . S
H962 C976 0.929 . S
H963 C977 0.931 . S
H964 C979 0.930 . S
C965 H953 0.928 . S
C965 C966 1.401 1_545 S
C965 C970 1.399 . S
C966 C965 1.401 1_565 S
C966 C967 1.376 . S
C967 H954 0.930 . S
C967 C966 1.376 . S
C967 C968 1.388 . S
C968 H955 0.930 . S
C968 C967 1.388 . S
C968 C969 1.390 . S
C969 C968 1.390 . S
C969 C970 1.394 1_565 S
C969 C975 1.465 1_455 S
C970 C965 1.399 . S
C970 C969 1.394 1_545 S
C970 C971 1.516 . S
C971 C970 1.516 . S
C971 C972 1.502 1_455 S
C971 C973 1.561 . S
C971 C974 1.526 1_455 S
C972 H956 0.959 . S
C972 H957 0.959 . S
C972 H958 0.961 . S
C972 C971 1.502 1_655 S
C973 H959 0.960 . S
C973 H960 0.961 . S
C973 H961 0.959 . S
C973 C971 1.561 . S
C974 C971 1.526 1_655 S
C974 C975 1.396 1_545 S
C974 C979 1.390 . S
C975 C969 1.465 1_655 S
C975 C974 1.396 1_565 S
C975 C976 1.399 . S
C976 H962 0.929 . S
C976 C975 1.399 . S
C976 C977 1.385 . S
C977 H963 0.931 . S
C977 C976 1.385 . S
C977 C978 1.389 1_565 S
C978 C977 1.389 1_545 S
C978 C979 1.387 . S
C979 H964 0.930 . S
C979 C974 1.390 . S
C979 C978 1.387 . S
H980 C992 0.930 . S
H981 C994 0.930 . S
H982 C995 0.930 . S
H983 C999 0.959 . S
H984 C999 0.959 . S
H985 C999 0.961 . S
H986 C1000 0.960 1_554 S
H987 C1000 0.961 . S
H988 C1000 0.959 . S
H989 C1003 0.929 . S
H990 C1004 0.931 . S
H991 C1006 0.930 . S
C992 H980 0.930 . S
C992 C993 1.399 . S
C992 C997 1.399 . S
C993 C992 1.399 . S
C993 C994 1.376 . S
C994 H981 0.930 . S
C994 C993 1.376 . S
C994 C995 1.388 . S
C995 H982 0.930 . S
C995 C994 1.388 . S
C995 C996 1.390 . S
C996 C995 1.390 . S
C996 C997 1.394 . S
C996 C1002 1.465 1_554 S
C997 C992 1.399 . S
C997 C996 1.394 . S
C997 C998 1.516 . S
C998 C997 1.516 . S
C998 C999 1.502 . S
C998 C1000 1.561 1_554 S
C998 C1001 1.526 1_554 S
C999 H983 0.959 . S
C999 H984 0.959 . S
C999 H985 0.961 . S
C999 C998 1.502 . S
C1000 H986 0.960 1_556 S
C1000 H987 0.961 . S
C1000 H988 0.959 . S
C1000 C998 1.561 1_556 S
C1001 C998 1.526 1_556 S
C1001 C1002 1.396 . S
C1001 C1006 1.390 . S
C1002 C996 1.465 1_556 S
C1002 C1001 1.396 . S
C1002 C1003 1.399 . S
C1003 H989 0.929 . S
C1003 C1002 1.399 . S
C1003 C1004 1.385 . S
C1004 H990 0.931 . S
C1004 C1003 1.385 . S
C1004 C1005 1.389 . S
C1005 C1004 1.389 . S
C1005 C1006 1.387 . S
C1006 H991 0.930 . S
C1006 C1001 1.390 . S
C1006 C1005 1.387 . S
H1007 C1019 0.930 . S
H1008 C1021 0.930 . S
H1009 C1022 0.930 . S
H1010 C1026 0.959 1_556 S
H1011 C1026 0.959 1_556 S
H1012 C1026 0.961 . S
H1013 C1027 0.960 . S
H1014 C1027 0.961 . S
H1015 C1027 0.959 . S
H1016 C1030 0.929 . S
H1017 C1031 0.931 . S
H1018 C1033 0.930 . S
C1019 H1007 0.930 . S
C1019 C1020 1.399 . S
C1019 C1024 1.399 . S
C1020 C1019 1.399 . S
C1020 C1021 1.376 . S
C1021 H1008 0.930 . S
C1021 C1020 1.376 . S
C1021 C1022 1.388 1_655 S
C1022 H1009 0.930 . S
C1022 C1021 1.388 1_455 S
C1022 C1023 1.390 . S
C1023 C1022 1.390 . S
C1023 C1024 1.394 1_455 S
C1023 C1029 1.465 1_554 S
C1024 C1019 1.399 . S
C1024 C1023 1.394 1_655 S
C1024 C1025 1.516 . S
C1025 C1024 1.516 . S
C1025 C1026 1.502 . S
C1025 C1027 1.561 1_655 S
C1025 C1028 1.526 1_654 S
C1026 H1010 0.959 1_554 S
C1026 H1011 0.959 1_554 S
C1026 H1012 0.961 . S
C1026 C1025 1.502 . S
C1027 H1013 0.960 . S
C1027 H1014 0.961 . S
C1027 H1015 0.959 . S
C1027 C1025 1.561 1_455 S
C1028 C1025 1.526 1_456 S
C1028 C1029 1.396 . S
C1028 C1033 1.390 . S
C1029 C1023 1.465 1_556 S
C1029 C1028 1.396 . S
C1029 C1030 1.399 . S
C1030 H1016 0.929 . S
C1030 C1029 1.399 . S
C1030 C1031 1.385 . S
C1031 H1017 0.931 . S
C1031 C1030 1.385 . S
C1031 C1032 1.389 . S
C1032 C1031 1.389 . S
C1032 C1033 1.387 . S
C1033 H1018 0.930 . S
C1033 C1028 1.390 . S
C1033 C1032 1.387 . S
H1034 C1046 0.930 . S
H1035 C1048 0.930 . S
H1036 C1049 0.930 . S
H1037 C1053 0.959 . S
H1038 C1053 0.959 . S
H1039 C1053 0.961 . S
H1040 C1054 0.960 . S
H1041 C1054 0.961 . S
H1042 C1054 0.959 . S
H1043 C1057 0.929 . S
H1044 C1058 0.931 . S
H1045 C1060 0.930 . S
C1046 H1034 0.930 . S
C1046 C1047 1.399 . S
C1046 C1051 1.399 . S
C1047 C1046 1.399 . S
C1047 C1048 1.376 . S
C1048 H1035 0.930 . S
C1048 C1047 1.376 . S
C1048 C1049 1.388 . S
C1049 H1036 0.930 . S
C1049 C1048 1.388 . S
C1049 C1050 1.390 . S
C1050 C1049 1.390 . S
C1050 C1051 1.394 . S
C1050 C1056 1.465 . S
C1051 C1046 1.399 . S
C1051 C1050 1.394 . S
C1051 C1052 1.516 1_655 S
C1052 C1051 1.516 1_455 S
C1052 C1053 1.502 . S
C1052 C1054 1.561 1_455 S
C1052 C1055 1.526 . S
C1053 H1037 0.959 . S
C1053 H1038 0.959 . S
C1053 H1039 0.961 . S
C1053 C1052 1.502 . S
C1054 H1040 0.960 . S
C1054 H1041 0.961 . S
C1054 H1042 0.959 . S
C1054 C1052 1.561 1_655 S
C1055 C1052 1.526 . S
C1055 C1056 1.396 1_455 S
C1055 C1060 1.390 . S
C1056 C1050 1.465 . S
C1056 C1055 1.396 1_655 S
C1056 C1057 1.399 . S
C1057 H1043 0.929 . S
C1057 C1056 1.399 . S
C1057 C1058 1.385 1_655 S
C1058 H1044 0.931 . S
C1058 C1057 1.385 1_455 S
C1058 C1059 1.389 . S
C1059 C1058 1.389 . S
C1059 C1060 1.387 . S
C1060 H1045 0.930 . S
C1060 C1055 1.390 . S
C1060 C1059 1.387 . S
H1061 C1073 0.930 . S
H1062 C1075 0.930 . S
H1063 C1076 0.930 . S
H1064 C1080 0.959 . S
H1065 C1080 0.959 . S
H1066 C1080 0.961 . S
H1067 C1081 0.960 . S
H1068 C1081 0.961 . S
H1069 C1081 0.959 . S
H1070 C1084 0.929 . S
H1071 C1085 0.931 . S
H1072 C1087 0.930 . S
C1073 H1061 0.930 . S
C1073 C1074 1.399 . S
C1073 C1078 1.399 . S
C1074 C1073 1.399 . S
C1074 C1075 1.376 . S
C1075 H1062 0.930 . S
C1075 C1074 1.376 . S
C1075 C1076 1.388 . S
C1076 H1063 0.930 . S
C1076 C1075 1.388 . S
C1076 C1077 1.390 . S
C1077 C1076 1.390 . S
C1077 C1078 1.394 . S
C1077 C1083 1.465 . S
C1078 C1073 1.399 . S
C1078 C1077 1.394 . S
C1078 C1079 1.516 . S
C1079 C1078 1.516 . S
C1079 C1080 1.502 . S
C1079 C1081 1.561 . S
C1079 C1082 1.526 . S
C1080 H1064 0.959 . S
C1080 H1065 0.959 . S
C1080 H1066 0.961 . S
C1080 C1079 1.502 . S
C1081 H1067 0.960 . S
C1081 H1068 0.961 . S
C1081 H1069 0.959 . S
C1081 C1079 1.561 . S
C1082 C1079 1.526 . S
C1082 C1083 1.396 . S
C1082 C1087 1.390 . S
C1083 C1077 1.465 . S
C1083 C1082 1.396 . S
C1083 C1084 1.399 . S
C1084 H1070 0.929 . S
C1084 C1083 1.399 . S
C1084 C1085 1.385 . S
C1085 H1071 0.931 . S
C1085 C1084 1.385 . S
C1085 C1086 1.389 . S
C1086 C1085 1.389 . S
C1086 C1087 1.387 . S
C1087 H1072 0.930 . S
C1087 C1082 1.390 . S
C1087 C1086 1.387 . S
C237 C25 1.491 . S
C249 C11 1.504 . S
C264 C39 1.504 . S
C276 C53 1.492 . S
C291 C67 1.509 . S
C303 C81 1.491 . S
C318 C109 1.508 . S
C330 C95 1.493 . S
C345 C137 1.491 . S
C357 C123 1.504 . S
C372 C165 1.493 . S
C384 C151 1.490 . S
C399 C193 1.483 . S
C411 C179 1.492 . S
C426 C221 1.504 . S
C438 C207 1.481 . S
C453 C42 1.398 . S
C465 C0 1.405 . S
C480 C14 1.401 . S
C492 C28 1.371 . S
C507 C98 1.368 . S
C519 C56 1.376 . S
C534 C84 1.409 . S
C546 C70 1.398 . S
C561 C112 1.390 . S
C573 C154 1.409 . S
C588 C140 1.368 . S
C600 C126 1.396 . S
C615 C210 1.409 . S
C627 C168 1.395 . S
C642 C182 1.409 . S
C654 C196 1.398 . S
C669 C5 1.495 . S
C681 C131 1.497 . S
C696 C19 1.487 . S
C708 C117 1.487 . S
C723 C159 1.500 . S
C735 C33 1.501 . S
C750 C145 1.487 . S
C762 C47 1.487 . S
C777 C187 1.490 . S
C789 C61 1.488 . S
C804 C173 1.489 . S
C816 C75 1.487 . S
C831 C89 1.496 . S
C843 C215 1.499 . S
C858 C103 1.498 . S
C870 C201 1.501 . S
C885 C65 1.317 . S
C897 C9 1.351 . S
C912 C79 1.316 . S
C924 C23 1.345 . S
C939 C93 1.352 . S
C951 C37 1.316 . S
C966 C107 1.319 . S
C978 C51 1.341 . S
C993 C121 1.313 . S
C1005 C177 1.350 . S
C1020 C135 1.341 . S
C1032 C191 1.330 . S
C1047 C205 1.315 . S
C1059 C149 1.347 . S
C1074 C219 1.347 . S
C1086 C163 1.323 . S
