# Generated by pormake.
# Topology sod-h, (3)-cn, num edge types: 1
# Building blocks:
#     Node 0, Type 0, BuildingBlock: WUSLED_clean_sbu_0, # of connection points: 3
#     Node 1, Type 0, BuildingBlock: WUSLED_clean_sbu_0, # of connection points: 3
#     Node 2, Type 0, BuildingBlock: WUSLED_clean_sbu_0, # of connection points: 3
#     Node 3, Type 0, BuildingBlock: WUSLED_clean_sbu_0, # of connection points: 3
#     Node 4, Type 0, BuildingBlock: WUSLED_clean_sbu_0, # of connection points: 3
#     Node 5, Type 0, BuildingBlock: WUSLED_clean_sbu_0, # of connection points: 3
#     Node 6, Type 0, BuildingBlock: WUSLED_clean_sbu_0, # of connection points: 3
#     Node 7, Type 0, BuildingBlock: WUSLED_clean_sbu_0, # of connection points: 3
#     Node 8, Type 0, BuildingBlock: WUSLED_clean_sbu_0, # of connection points: 3
#     Node 9, Type 0, BuildingBlock: WUSLED_clean_sbu_0, # of connection points: 3
#     Node 10, Type 0, BuildingBlock: WUSLED_clean_sbu_0, # of connection points: 3
#     Node 11, Type 0, BuildingBlock: WUSLED_clean_sbu_0, # of connection points: 3
#     Node 12, Type 0, BuildingBlock: WUSLED_clean_sbu_0, # of connection points: 3
#     Node 13, Type 0, BuildingBlock: WUSLED_clean_sbu_0, # of connection points: 3
#     Node 14, Type 0, BuildingBlock: WUSLED_clean_sbu_0, # of connection points: 3
#     Node 15, Type 0, BuildingBlock: WUSLED_clean_sbu_0, # of connection points: 3
#     Node 16, Type 0, BuildingBlock: WUSLED_clean_sbu_0, # of connection points: 3
#     Node 17, Type 0, BuildingBlock: WUSLED_clean_sbu_0, # of connection points: 3
#     Node 18, Type 0, BuildingBlock: WUSLED_clean_sbu_0, # of connection points: 3
#     Node 19, Type 0, BuildingBlock: WUSLED_clean_sbu_0, # of connection points: 3
#     Node 20, Type 0, BuildingBlock: WUSLED_clean_sbu_0, # of connection points: 3
#     Node 21, Type 0, BuildingBlock: WUSLED_clean_sbu_0, # of connection points: 3
#     Node 22, Type 0, BuildingBlock: WUSLED_clean_sbu_0, # of connection points: 3
#     Node 23, Type 0, BuildingBlock: WUSLED_clean_sbu_0, # of connection points: 3
#     Node 24, Type 0, BuildingBlock: WUSLED_clean_sbu_0, # of connection points: 3
#     Node 25, Type 0, BuildingBlock: WUSLED_clean_sbu_0, # of connection points: 3
#     Node 26, Type 0, BuildingBlock: WUSLED_clean_sbu_0, # of connection points: 3
#     Node 27, Type 0, BuildingBlock: WUSLED_clean_sbu_0, # of connection points: 3
#     Node 28, Type 0, BuildingBlock: WUSLED_clean_sbu_0, # of connection points: 3
#     Node 29, Type 0, BuildingBlock: WUSLED_clean_sbu_0, # of connection points: 3
#     Node 30, Type 0, BuildingBlock: WUSLED_clean_sbu_0, # of connection points: 3
#     Node 31, Type 0, BuildingBlock: WUSLED_clean_sbu_0, # of connection points: 3
#     Node 32, Type 0, BuildingBlock: WUSLED_clean_sbu_0, # of connection points: 3
#     Node 33, Type 0, BuildingBlock: WUSLED_clean_sbu_0, # of connection points: 3
#     Node 34, Type 0, BuildingBlock: WUSLED_clean_sbu_0, # of connection points: 3
#     Node 35, Type 0, BuildingBlock: WUSLED_clean_sbu_0, # of connection points: 3
#     Node 36, Type 0, BuildingBlock: WUSLED_clean_sbu_0, # of connection points: 3
#     Node 37, Type 0, BuildingBlock: WUSLED_clean_sbu_0, # of connection points: 3
#     Node 38, Type 0, BuildingBlock: WUSLED_clean_sbu_0, # of connection points: 3
#     Node 39, Type 0, BuildingBlock: WUSLED_clean_sbu_0, # of connection points: 3
#     Node 40, Type 0, BuildingBlock: WUSLED_clean_sbu_0, # of connection points: 3
#     Node 41, Type 0, BuildingBlock: WUSLED_clean_sbu_0, # of connection points: 3
#     Node 42, Type 0, BuildingBlock: WUSLED_clean_sbu_0, # of connection points: 3
#     Node 43, Type 0, BuildingBlock: WUSLED_clean_sbu_0, # of connection points: 3
#     Node 44, Type 0, BuildingBlock: WUSLED_clean_sbu_0, # of connection points: 3
#     Node 45, Type 0, BuildingBlock: WUSLED_clean_sbu_0, # of connection points: 3
#     Node 46, Type 0, BuildingBlock: WUSLED_clean_sbu_0, # of connection points: 3
#     Node 47, Type 0, BuildingBlock: WUSLED_clean_sbu_0, # of connection points: 3
#     Edge 48, Type (0, 0), BuildingBlock: EZIPEK_clean_linker_0, # of connection points: 2
#     Edge 49, Type (0, 0), BuildingBlock: EZIPEK_clean_linker_0, # of connection points: 2
#     Edge 50, Type (0, 0), BuildingBlock: EZIPEK_clean_linker_0, # of connection points: 2
#     Edge 51, Type (0, 0), BuildingBlock: EZIPEK_clean_linker_0, # of connection points: 2
#     Edge 52, Type (0, 0), BuildingBlock: EZIPEK_clean_linker_0, # of connection points: 2
#     Edge 53, Type (0, 0), BuildingBlock: EZIPEK_clean_linker_0, # of connection points: 2
#     Edge 54, Type (0, 0), BuildingBlock: EZIPEK_clean_linker_0, # of connection points: 2
#     Edge 55, Type (0, 0), BuildingBlock: EZIPEK_clean_linker_0, # of connection points: 2
#     Edge 56, Type (0, 0), BuildingBlock: EZIPEK_clean_linker_0, # of connection points: 2
#     Edge 57, Type (0, 0), BuildingBlock: EZIPEK_clean_linker_0, # of connection points: 2
#     Edge 58, Type (0, 0), BuildingBlock: EZIPEK_clean_linker_0, # of connection points: 2
#     Edge 59, Type (0, 0), BuildingBlock: EZIPEK_clean_linker_0, # of connection points: 2
#     Edge 60, Type (0, 0), BuildingBlock: EZIPEK_clean_linker_0, # of connection points: 2
#     Edge 61, Type (0, 0), BuildingBlock: EZIPEK_clean_linker_0, # of connection points: 2
#     Edge 62, Type (0, 0), BuildingBlock: EZIPEK_clean_linker_0, # of connection points: 2
#     Edge 63, Type (0, 0), BuildingBlock: EZIPEK_clean_linker_0, # of connection points: 2
#     Edge 64, Type (0, 0), BuildingBlock: EZIPEK_clean_linker_0, # of connection points: 2
#     Edge 65, Type (0, 0), BuildingBlock: EZIPEK_clean_linker_0, # of connection points: 2
#     Edge 66, Type (0, 0), BuildingBlock: EZIPEK_clean_linker_0, # of connection points: 2
#     Edge 67, Type (0, 0), BuildingBlock: EZIPEK_clean_linker_0, # of connection points: 2
#     Edge 68, Type (0, 0), BuildingBlock: EZIPEK_clean_linker_0, # of connection points: 2
#     Edge 69, Type (0, 0), BuildingBlock: EZIPEK_clean_linker_0, # of connection points: 2
#     Edge 70, Type (0, 0), BuildingBlock: EZIPEK_clean_linker_0, # of connection points: 2
#     Edge 71, Type (0, 0), BuildingBlock: EZIPEK_clean_linker_0, # of connection points: 2
#     Edge 72, Type (0, 0), BuildingBlock: EZIPEK_clean_linker_0, # of connection points: 2
#     Edge 73, Type (0, 0), BuildingBlock: EZIPEK_clean_linker_0, # of connection points: 2
#     Edge 74, Type (0, 0), BuildingBlock: EZIPEK_clean_linker_0, # of connection points: 2
#     Edge 75, Type (0, 0), BuildingBlock: EZIPEK_clean_linker_0, # of connection points: 2
#     Edge 76, Type (0, 0), BuildingBlock: EZIPEK_clean_linker_0, # of connection points: 2
#     Edge 77, Type (0, 0), BuildingBlock: EZIPEK_clean_linker_0, # of connection points: 2
#     Edge 78, Type (0, 0), BuildingBlock: EZIPEK_clean_linker_0, # of connection points: 2
#     Edge 79, Type (0, 0), BuildingBlock: EZIPEK_clean_linker_0, # of connection points: 2
#     Edge 80, Type (0, 0), BuildingBlock: EZIPEK_clean_linker_0, # of connection points: 2
#     Edge 81, Type (0, 0), BuildingBlock: EZIPEK_clean_linker_0, # of connection points: 2
#     Edge 82, Type (0, 0), BuildingBlock: EZIPEK_clean_linker_0, # of connection points: 2
#     Edge 83, Type (0, 0), BuildingBlock: EZIPEK_clean_linker_0, # of connection points: 2
#     Edge 84, Type (0, 0), BuildingBlock: EZIPEK_clean_linker_0, # of connection points: 2
#     Edge 85, Type (0, 0), BuildingBlock: EZIPEK_clean_linker_0, # of connection points: 2
#     Edge 86, Type (0, 0), BuildingBlock: EZIPEK_clean_linker_0, # of connection points: 2
#     Edge 87, Type (0, 0), BuildingBlock: EZIPEK_clean_linker_0, # of connection points: 2
#     Edge 88, Type (0, 0), BuildingBlock: EZIPEK_clean_linker_0, # of connection points: 2
#     Edge 89, Type (0, 0), BuildingBlock: EZIPEK_clean_linker_0, # of connection points: 2
#     Edge 90, Type (0, 0), BuildingBlock: EZIPEK_clean_linker_0, # of connection points: 2
#     Edge 91, Type (0, 0), BuildingBlock: EZIPEK_clean_linker_0, # of connection points: 2
#     Edge 92, Type (0, 0), BuildingBlock: EZIPEK_clean_linker_0, # of connection points: 2
#     Edge 93, Type (0, 0), BuildingBlock: EZIPEK_clean_linker_0, # of connection points: 2
#     Edge 94, Type (0, 0), BuildingBlock: EZIPEK_clean_linker_0, # of connection points: 2
#     Edge 95, Type (0, 0), BuildingBlock: EZIPEK_clean_linker_0, # of connection points: 2
#     Edge 96, Type (0, 0), BuildingBlock: EZIPEK_clean_linker_0, # of connection points: 2
#     Edge 97, Type (0, 0), BuildingBlock: EZIPEK_clean_linker_0, # of connection points: 2
#     Edge 98, Type (0, 0), BuildingBlock: EZIPEK_clean_linker_0, # of connection points: 2
#     Edge 99, Type (0, 0), BuildingBlock: EZIPEK_clean_linker_0, # of connection points: 2
#     Edge 100, Type (0, 0), BuildingBlock: EZIPEK_clean_linker_0, # of connection points: 2
#     Edge 101, Type (0, 0), BuildingBlock: EZIPEK_clean_linker_0, # of connection points: 2
#     Edge 102, Type (0, 0), BuildingBlock: EZIPEK_clean_linker_0, # of connection points: 2
#     Edge 103, Type (0, 0), BuildingBlock: EZIPEK_clean_linker_0, # of connection points: 2
#     Edge 104, Type (0, 0), BuildingBlock: EZIPEK_clean_linker_0, # of connection points: 2
#     Edge 105, Type (0, 0), BuildingBlock: EZIPEK_clean_linker_0, # of connection points: 2
#     Edge 106, Type (0, 0), BuildingBlock: EZIPEK_clean_linker_0, # of connection points: 2
#     Edge 107, Type (0, 0), BuildingBlock: EZIPEK_clean_linker_0, # of connection points: 2
#     Edge 108, Type (0, 0), BuildingBlock: EZIPEK_clean_linker_0, # of connection points: 2
#     Edge 109, Type (0, 0), BuildingBlock: EZIPEK_clean_linker_0, # of connection points: 2
#     Edge 110, Type (0, 0), BuildingBlock: EZIPEK_clean_linker_0, # of connection points: 2
#     Edge 111, Type (0, 0), BuildingBlock: EZIPEK_clean_linker_0, # of connection points: 2
#     Edge 112, Type (0, 0), BuildingBlock: EZIPEK_clean_linker_0, # of connection points: 2
#     Edge 113, Type (0, 0), BuildingBlock: EZIPEK_clean_linker_0, # of connection points: 2
#     Edge 114, Type (0, 0), BuildingBlock: EZIPEK_clean_linker_0, # of connection points: 2
#     Edge 115, Type (0, 0), BuildingBlock: EZIPEK_clean_linker_0, # of connection points: 2
#     Edge 116, Type (0, 0), BuildingBlock: EZIPEK_clean_linker_0, # of connection points: 2
#     Edge 117, Type (0, 0), BuildingBlock: EZIPEK_clean_linker_0, # of connection points: 2
#     Edge 118, Type (0, 0), BuildingBlock: EZIPEK_clean_linker_0, # of connection points: 2
#     Edge 119, Type (0, 0), BuildingBlock: EZIPEK_clean_linker_0, # of connection points: 2
# Relax obj value: 0.119
# Max RMSD: 0.099
# Mean RMSD: 0.099
data_MOF--net-sod-h--node1-WUSLED_clean_sbu_0--edge1-EZIPEK_clean_linker_0
_symmetry_space_group_name_H-M    P1
_symmetry_Int_Tables_number       1
_symmetry_cell_setting            triclinic
loop_
_symmetry_equiv_pos_as_xyz
'x, y, z'
_cell_length_a     117.72274
_cell_length_b     117.89646
_cell_length_c     117.87732
_cell_angle_alpha  90.140124
_cell_angle_beta   89.984795
_cell_angle_gamma 89.987412
loop_
_atom_site_label
_atom_site_type_symbol
_atom_site_fract_x
_atom_site_fract_y
_atom_site_fract_z
_atom_type_partial_charge
C0 C 0.06251 0.19985 0.6938 0.0
C1 C 0.05643 0.21007 0.6947 0.0
C2 C 0.03856 0.19993 0.6915 0.0
C3 C 0.04459 0.21017 0.69301 0.0
C4 C 0.04485 0.18989 0.69004 0.0
C5 C 0.05666 0.18991 0.69095 0.0
U6 U 0.09377 0.20627 0.70471 0.0
O7 O 0.10618 0.19291 0.70887 0.0
O8 O 0.10937 0.20438 0.69444 0.0
C9 C 0.11309 0.19589 0.70063 0.0
C10 C 0.07495 0.19895 0.69518 0.0
C11 C 0.12058 0.18726 0.6954 0.0
C12 C 0.12556 0.16777 0.69044 0.0
C13 C 0.11728 0.176 0.69316 0.0
C14 C 0.14013 0.18224 0.69097 0.0
C15 C 0.13716 0.17076 0.68981 0.0
C16 C 0.13199 0.1903 0.69398 0.0
C17 C 0.09719 0.23267 0.72629 0.0
C18 C 0.11176 0.24424 0.73541 0.0
C19 C 0.0921 0.24611 0.74107 0.0
C20 C 0.08898 0.23821 0.73284 0.0
C21 C 0.10355 0.249 0.74277 0.0
C22 C 0.10866 0.23582 0.72746 0.0
C23 C 0.09299 0.2239 0.71835 0.0
O24 O 0.08142 0.20682 0.69066 0.0
O25 O 0.07875 0.19512 0.70493 0.0
O26 O 0.09175 0.21342 0.72194 0.0
O27 O 0.09514 0.22476 0.70745 0.0
H28 H 0.06082 0.21793 0.69657 0.0
H29 H 0.04012 0.21819 0.6933 0.0
H30 H 0.0406 0.18187 0.68854 0.0
H31 H 0.06122 0.18201 0.68979 0.0
H32 H 0.12301 0.15901 0.68939 0.0
H33 H 0.10849 0.17345 0.69409 0.0
H34 H 0.14895 0.18482 0.69043 0.0
H35 H 0.13474 0.1989 0.69572 0.0
H36 H 0.12058 0.24677 0.73606 0.0
H37 H 0.0855 0.24989 0.74625 0.0
H38 H 0.08006 0.23619 0.73181 0.0
H39 H 0.11514 0.23184 0.72227 0.0
C40 C 0.82441 0.5606 0.19461 0.0
C41 C 0.817 0.55321 0.20026 0.0
C42 C 0.8271 0.53713 0.19207 0.0
C43 C 0.81832 0.54146 0.19893 0.0
C44 C 0.83401 0.54457 0.18594 0.0
C45 C 0.83265 0.55623 0.18721 0.0
U46 U 0.81974 0.5929 0.2047 0.0
O47 O 0.83494 0.6034 0.20798 0.0
O48 O 0.82401 0.60683 0.19294 0.0
C49 C 0.83315 0.60943 0.19879 0.0
C50 C 0.82475 0.57281 0.1968 0.0
C51 C 0.8407 0.61874 0.19546 0.0
C52 C 0.85819 0.62528 0.18672 0.0
C53 C 0.85052 0.61653 0.1891 0.0
C54 C 0.84611 0.63857 0.1968 0.0
C55 C 0.85616 0.63631 0.19077 0.0
C56 C 0.83841 0.62983 0.19911 0.0
C57 C 0.79305 0.59923 0.22569 0.0
C58 C 0.78528 0.61094 0.24078 0.0
C59 C 0.77585 0.59344 0.23545 0.0
C60 C 0.78405 0.59158 0.22707 0.0
C61 C 0.7767 0.60286 0.2427 0.0
C62 C 0.79344 0.60912 0.23231 0.0
C63 C 0.80237 0.59627 0.21796 0.0
O64 O 0.81765 0.57965 0.1916 0.0
O65 O 0.82844 0.57651 0.20666 0.0
O66 O 0.81258 0.59405 0.2219 0.0
O67 O 0.80145 0.5969 0.20687 0.0
H68 H 0.8106 0.55647 0.20601 0.0
H69 H 0.81299 0.53576 0.20377 0.0
H70 H 0.84088 0.54136 0.18073 0.0
H71 H 0.83844 0.56186 0.18283 0.0
H72 H 0.86595 0.62336 0.18215 0.0
H73 H 0.8524 0.60799 0.18624 0.0
H74 H 0.84446 0.64701 0.20007 0.0
H75 H 0.83086 0.63166 0.20405 0.0
H76 H 0.78604 0.61829 0.24625 0.0
H77 H 0.76933 0.58711 0.23683 0.0
H78 H 0.78365 0.5839 0.22202 0.0
H79 H 0.80029 0.61516 0.23127 0.0
C80 C 0.46588 0.32591 0.69545 0.0
C81 C 0.47338 0.32136 0.70347 0.0
C82 C 0.48944 0.32866 0.69257 0.0
C83 C 0.48511 0.3228 0.70205 0.0
C84 C 0.4819 0.33204 0.68402 0.0
C85 C 0.47021 0.33103 0.68564 0.0
U86 U 0.43353 0.32127 0.70519 0.0
O87 O 0.42238 0.33602 0.70802 0.0
O88 O 0.41945 0.32455 0.69325 0.0
C89 C 0.41615 0.33344 0.69913 0.0
C90 C 0.45357 0.32662 0.69727 0.0
C91 C 0.40738 0.34117 0.695 0.0
C92 C 0.40151 0.35865 0.68592 0.0
C93 C 0.41007 0.35089 0.68872 0.0
C94 C 0.38759 0.34681 0.69538 0.0
C95 C 0.39028 0.35679 0.68953 0.0
C96 C 0.3961 0.33904 0.69807 0.0
C97 C 0.42773 0.29485 0.72647 0.0
C98 C 0.41679 0.28565 0.74133 0.0
C99 C 0.43429 0.27731 0.73467 0.0
C100 C 0.43569 0.2862 0.72708 0.0
C101 C 0.42482 0.2767 0.74209 0.0
C102 C 0.41813 0.29451 0.73349 0.0
C103 C 0.42986 0.30435 0.71879 0.0
O104 O 0.44682 0.31939 0.6921 0.0
O105 O 0.44972 0.33038 0.70706 0.0
O106 O 0.43217 0.31457 0.7226 0.0
O107 O 0.42999 0.30306 0.7077 0.0
H108 H 0.47018 0.31717 0.71099 0.0
H109 H 0.49081 0.3196 0.70851 0.0
H110 H 0.48503 0.33594 0.67632 0.0
H111 H 0.46452 0.33448 0.67931 0.0
H112 H 0.40372 0.36638 0.68148 0.0
H113 H 0.41878 0.35263 0.68631 0.0
H114 H 0.379 0.34529 0.6983 0.0
H115 H 0.39393 0.33156 0.70295 0.0
H116 H 0.40965 0.28615 0.74709 0.0
H117 H 0.44093 0.27118 0.7344 0.0
H118 H 0.4432 0.2864 0.72175 0.0
H119 H 0.41187 0.30123 0.73315 0.0
C120 C 0.70103 0.96483 0.1939 0.0
C121 C 0.70827 0.97176 0.20039 0.0
C122 C 0.69945 0.98855 0.19212 0.0
C123 C 0.70748 0.98363 0.19946 0.0
C124 C 0.69282 0.98157 0.18516 0.0
C125 C 0.6936 0.96982 0.18608 0.0
U126 U 0.70603 0.93336 0.20506 0.0
O127 O 0.69195 0.92163 0.20884 0.0
O128 O 0.70357 0.918 0.1945 0.0
C129 C 0.6949 0.91463 0.20066 0.0
C130 C 0.69988 0.9525 0.19553 0.0
C131 C 0.68663 0.90632 0.1962 0.0
C132 C 0.66884 0.90089 0.18712 0.0
C133 C 0.67688 0.90928 0.18998 0.0
C134 C 0.68041 0.88665 0.19638 0.0
C135 C 0.67044 0.88956 0.19058 0.0
C136 C 0.68841 0.89495 0.19911 0.0
C137 C 0.73156 0.92933 0.22754 0.0
C138 C 0.74048 0.91506 0.23946 0.0
C139 C 0.74628 0.93461 0.24091 0.0
C140 C 0.7385 0.93752 0.23252 0.0
C141 C 0.74802 0.92322 0.24426 0.0
C142 C 0.73247 0.91806 0.23112 0.0
C143 C 0.72311 0.93337 0.21928 0.0
O144 O 0.70757 0.94573 0.1911 0.0
O145 O 0.69575 0.94894 0.20525 0.0
O146 O 0.71254 0.93489 0.22252 0.0
O147 O 0.72437 0.93118 0.20841 0.0
H148 H 0.71407 0.96806 0.20646 0.0
H149 H 0.71265 0.98895 0.2049 0.0
H150 H 0.68653 0.98522 0.17954 0.0
H151 H 0.68795 0.9646 0.18103 0.0
H152 H 0.66114 0.90329 0.1827 0.0
H153 H 0.67533 0.91802 0.18766 0.0
H154 H 0.68177 0.87802 0.1992 0.0
H155 H 0.69586 0.89251 0.20393 0.0
H156 H 0.74024 0.90635 0.24195 0.0
H157 H 0.75091 0.9415 0.24483 0.0
H158 H 0.7377 0.94635 0.23011 0.0
H159 H 0.7269 0.91164 0.22761 0.0
C160 C 0.06237 0.32598 0.83003 0.0
C161 C 0.05487 0.32129 0.82204 0.0
C162 C 0.03871 0.32866 0.83288 0.0
C163 C 0.0431 0.3227 0.82344 0.0
C164 C 0.04625 0.33213 0.84141 0.0
C165 C 0.05795 0.33118 0.83978 0.0
U166 U 0.09451 0.32022 0.82039 0.0
O167 O 0.1064 0.33417 0.81654 0.0
O168 O 0.10906 0.32351 0.8318 0.0
C169 C 0.11281 0.33179 0.82535 0.0
C170 C 0.07475 0.32675 0.82833 0.0
C171 C 0.12103 0.34017 0.82972 0.0
C172 C 0.12623 0.35794 0.83893 0.0
C173 C 0.11792 0.34986 0.83597 0.0
C174 C 0.14066 0.34652 0.82972 0.0
C175 C 0.13761 0.35644 0.83554 0.0
C176 C 0.13245 0.33848 0.82687 0.0
C177 C 0.09987 0.29289 0.80022 0.0
C178 C 0.11279 0.28508 0.78615 0.0
C179 C 0.09448 0.27624 0.78934 0.0
C180 C 0.09213 0.2842 0.79778 0.0
C181 C 0.10462 0.2769 0.78315 0.0
C182 C 0.11041 0.29311 0.79465 0.0
C183 C 0.09584 0.30213 0.8076 0.0
O184 O 0.08141 0.31967 0.83377 0.0
O185 O 0.07868 0.32996 0.8184 0.0
O186 O 0.09454 0.31238 0.80344 0.0
O187 O 0.09703 0.30167 0.81868 0.0
H188 H 0.05809 0.31699 0.81457 0.0
H189 H 0.03742 0.31939 0.817 0.0
H190 H 0.04312 0.33599 0.84915 0.0
H191 H 0.06361 0.33472 0.84612 0.0
H192 H 0.12371 0.3656 0.84336 0.0
H193 H 0.10913 0.35131 0.83826 0.0
H194 H 0.14935 0.34523 0.82696 0.0
H195 H 0.135 0.33105 0.82206 0.0
H196 H 0.12067 0.28567 0.78144 0.0
H197 H 0.08806 0.27004 0.7871 0.0
H198 H 0.08394 0.28395 0.80197 0.0
H199 H 0.11651 0.29975 0.79645 0.0
C200 C 0.69867 0.56136 0.3316 0.0
C201 C 0.70645 0.55454 0.32577 0.0
C202 C 0.6981 0.5373 0.33437 0.0
C203 C 0.70605 0.5427 0.327 0.0
C204 C 0.6899 0.54446 0.33943 0.0
C205 C 0.69043 0.55622 0.33835 0.0
U206 U 0.70542 0.59257 0.32111 0.0
O207 O 0.69218 0.60517 0.31726 0.0
O208 O 0.70382 0.60801 0.33167 0.0
C209 C 0.69532 0.61191 0.32559 0.0
C210 C 0.69793 0.57375 0.33032 0.0
C211 C 0.68677 0.61937 0.33099 0.0
C212 C 0.66728 0.62437 0.33596 0.0
C213 C 0.67549 0.61609 0.33323 0.0
C214 C 0.68181 0.63889 0.33549 0.0
C215 C 0.67031 0.63594 0.33661 0.0
C216 C 0.68986 0.63075 0.33247 0.0
C217 C 0.73152 0.59585 0.29932 0.0
C218 C 0.74061 0.61023 0.28765 0.0
C219 C 0.74645 0.59069 0.28612 0.0
C220 C 0.73857 0.58772 0.2944 0.0
C221 C 0.74817 0.60209 0.28283 0.0
C222 C 0.73249 0.60715 0.29586 0.0
C223 C 0.72285 0.59167 0.30728 0.0
O224 O 0.70587 0.58005 0.33498 0.0
O225 O 0.69421 0.57767 0.32058 0.0
O226 O 0.71228 0.5908 0.30381 0.0
O227 O 0.72395 0.59361 0.31821 0.0
H228 H 0.71259 0.55832 0.32008 0.0
H229 H 0.71176 0.53794 0.32165 0.0
H230 H 0.68258 0.54131 0.34385 0.0
H231 H 0.68399 0.56134 0.3425 0.0
H232 H 0.6585 0.62184 0.33698 0.0
H233 H 0.67292 0.60733 0.33224 0.0
H234 H 0.68441 0.64769 0.33605 0.0
H235 H 0.69847 0.63347 0.33073 0.0
H236 H 0.74043 0.61896 0.28525 0.0
H237 H 0.75113 0.58382 0.28221 0.0
H238 H 0.73775 0.57886 0.29672 0.0
H239 H 0.72685 0.61354 0.29933 0.0
C240 C 0.46605 0.20147 0.83201 0.0
C241 C 0.47305 0.21055 0.82887 0.0
C242 C 0.48963 0.19943 0.83423 0.0
C243 C 0.48485 0.20962 0.83021 0.0
C244 C 0.48249 0.19074 0.83801 0.0
C245 C 0.47079 0.19181 0.83701 0.0
U246 U 0.43404 0.20619 0.82128 0.0
O247 O 0.42346 0.19113 0.81867 0.0
O248 O 0.41965 0.20295 0.83298 0.0
C249 C 0.41702 0.19364 0.82743 0.0
C250 C 0.45385 0.20114 0.82977 0.0
C251 C 0.40825 0.18571 0.83118 0.0
C252 C 0.40212 0.1666 0.83562 0.0
C253 C 0.41085 0.17432 0.83336 0.0
C254 C 0.38835 0.18188 0.83466 0.0
C255 C 0.39074 0.17026 0.83594 0.0
C256 C 0.39702 0.1895 0.83204 0.0
C257 C 0.42837 0.23197 0.79921 0.0
C258 C 0.41684 0.24123 0.78485 0.0
C259 C 0.4353 0.24866 0.78967 0.0
C260 C 0.43676 0.24006 0.79759 0.0
C261 C 0.42513 0.24984 0.7833 0.0
C262 C 0.41837 0.23254 0.79283 0.0
C263 C 0.43047 0.22271 0.80718 0.0
O264 O 0.44713 0.20875 0.83441 0.0
O265 O 0.45025 0.19697 0.82007 0.0
O266 O 0.43308 0.21244 0.80367 0.0
O267 O 0.43023 0.22426 0.81822 0.0
H268 H 0.46946 0.2181 0.82505 0.0
H269 H 0.49028 0.21643 0.82727 0.0
H270 H 0.486 0.18286 0.84118 0.0
H271 H 0.46543 0.1848 0.83961 0.0
H272 H 0.40418 0.15772 0.83674 0.0
H273 H 0.41954 0.17133 0.8329 0.0
H274 H 0.37967 0.18491 0.83495 0.0
H275 H 0.39492 0.19828 0.83037 0.0
H276 H 0.40932 0.24079 0.77962 0.0
H277 H 0.44264 0.25387 0.78858 0.0
H278 H 0.4447 0.23953 0.80223 0.0
H279 H 0.41186 0.22611 0.7938 0.0
C280 C 0.82722 0.96386 0.33093 0.0
C281 C 0.81958 0.97085 0.32518 0.0
C282 C 0.82823 0.98791 0.33396 0.0
C283 C 0.82019 0.98269 0.32653 0.0
C284 C 0.83628 0.98056 0.33896 0.0
C285 C 0.83553 0.96882 0.33775 0.0
U286 U 0.82026 0.93217 0.32126 0.0
O287 O 0.83366 0.91971 0.31731 0.0
O288 O 0.82271 0.91727 0.33234 0.0
C289 C 0.83099 0.91327 0.326 0.0
C290 C 0.82776 0.95146 0.3295 0.0
C291 C 0.8397 0.9058 0.33106 0.0
C292 C 0.85922 0.9009 0.33594 0.0
C293 C 0.85096 0.90914 0.33327 0.0
C294 C 0.84477 0.8863 0.33544 0.0
C295 C 0.85625 0.88931 0.33658 0.0
C296 C 0.83668 0.8944 0.33247 0.0
C297 C 0.79277 0.9274 0.30136 0.0
C298 C 0.7855 0.91488 0.2866 0.0
C299 C 0.77521 0.93199 0.29154 0.0
C300 C 0.78331 0.93444 0.29981 0.0
C301 C 0.77654 0.92252 0.28446 0.0
C302 C 0.79362 0.91731 0.29502 0.0
C303 C 0.802 0.93189 0.30855 0.0
O304 O 0.82024 0.94515 0.33478 0.0
O305 O 0.83092 0.94742 0.31959 0.0
O306 O 0.81231 0.93275 0.30436 0.0
O307 O 0.80159 0.93069 0.31962 0.0
H308 H 0.81337 0.96722 0.31944 0.0
H309 H 0.81458 0.98759 0.32123 0.0
H310 H 0.84366 0.98354 0.3434 0.0
H311 H 0.84186 0.96356 0.34186 0.0
H312 H 0.86799 0.90348 0.33697 0.0
H313 H 0.85347 0.91792 0.33234 0.0
H314 H 0.84221 0.87749 0.33598 0.0
H315 H 0.82806 0.89164 0.33076 0.0
H316 H 0.78662 0.90747 0.28126 0.0
H317 H 0.76842 0.938 0.29001 0.0
H318 H 0.78252 0.94227 0.30459 0.0
H319 H 0.80083 0.91171 0.29612 0.0
C320 C 0.69455 0.0616 0.20223 0.0
C321 C 0.70101 0.05442 0.20921 0.0
C322 C 0.69244 0.03797 0.20002 0.0
C323 C 0.69991 0.0426 0.20812 0.0
C324 C 0.68548 0.04518 0.19367 0.0
C325 C 0.68658 0.05689 0.19475 0.0
U326 U 0.70471 0.0937 0.20721 0.0
O327 O 0.70842 0.10493 0.19273 0.0
O328 O 0.69336 0.10824 0.20362 0.0
C329 C 0.69966 0.11147 0.195 0.0
C330 C 0.69638 0.07391 0.20141 0.0
C331 C 0.69568 0.11999 0.18677 0.0
C332 C 0.68714 0.12562 0.16882 0.0
C333 C 0.68977 0.11715 0.1768 0.0
C334 C 0.69596 0.13974 0.18092 0.0
C335 C 0.69045 0.13695 0.17075 0.0
C336 C 0.69853 0.13134 0.18884 0.0
C337 C 0.72547 0.09939 0.23412 0.0
C338 C 0.74046 0.11151 0.24153 0.0
C339 C 0.73543 0.09422 0.25141 0.0
C340 C 0.72705 0.09205 0.24332 0.0
C341 C 0.74256 0.10368 0.25029 0.0
C342 C 0.73194 0.10938 0.23345 0.0
C343 C 0.71784 0.09559 0.22499 0.0
O344 O 0.69124 0.08073 0.20858 0.0
O345 O 0.70629 0.07761 0.19784 0.0
O346 O 0.72183 0.09388 0.2147 0.0
O347 O 0.70676 0.09682 0.22566 0.0
H348 H 0.70718 0.05791 0.21507 0.0
H349 H 0.70531 0.03709 0.21311 0.0
H350 H 0.67972 0.04175 0.18737 0.0
H351 H 0.68155 0.06232 0.1893 0.0
H352 H 0.68298 0.12329 0.16097 0.0
H353 H 0.6875 0.10842 0.17505 0.0
H354 H 0.6987 0.14837 0.1825 0.0
H355 H 0.70312 0.13367 0.19646 0.0
H356 H 0.74585 0.11889 0.24057 0.0
H357 H 0.73694 0.08806 0.25804 0.0
H358 H 0.72215 0.0843 0.24395 0.0
H359 H 0.73079 0.11519 0.22644 0.0
C360 C 0.96439 0.19606 0.69855 0.0
C361 C 0.9715 0.20222 0.70581 0.0
C362 C 0.9884 0.1933 0.69707 0.0
C363 C 0.98334 0.20095 0.70497 0.0
C364 C 0.98093 0.18785 0.68943 0.0
C365 C 0.96921 0.18895 0.69042 0.0
U366 U 0.93284 0.20587 0.70567 0.0
O367 O 0.92035 0.21004 0.69239 0.0
O368 O 0.91775 0.19497 0.70324 0.0
C369 C 0.91376 0.20146 0.69511 0.0
C370 C 0.95199 0.19737 0.69811 0.0
C371 C 0.90587 0.19678 0.68658 0.0
C372 C 0.90113 0.18751 0.66869 0.0
C373 C 0.90926 0.19058 0.67693 0.0
C374 C 0.88636 0.19648 0.67987 0.0
C375 C 0.88967 0.19075 0.66999 0.0
C376 C 0.89437 0.19943 0.68806 0.0
C377 C 0.92932 0.22704 0.73242 0.0
C378 C 0.9152 0.23672 0.74403 0.0
C379 C 0.93506 0.24186 0.7455 0.0
C380 C 0.93781 0.23347 0.73765 0.0
C381 C 0.92371 0.24386 0.74853 0.0
C382 C 0.91795 0.22853 0.73575 0.0
C383 C 0.9331 0.21924 0.72341 0.0
O384 O 0.94576 0.19231 0.70585 0.0
O385 O 0.9479 0.20716 0.69472 0.0
O386 O 0.93425 0.22302 0.713 0.0
O387 O 0.93121 0.20828 0.7242 0.0
H388 H 0.96795 0.20815 0.71188 0.0
H389 H 0.98845 0.20634 0.71037 0.0
H390 H 0.98372 0.18305 0.68222 0.0
H391 H 0.96384 0.1845 0.6844 0.0
H392 H 0.90385 0.18313 0.66107 0.0
H393 H 0.91811 0.18845 0.67563 0.0
H394 H 0.87761 0.19911 0.68101 0.0
H395 H 0.8916 0.20419 0.69543 0.0
H396 H 0.90642 0.23781 0.74658 0.0
H397 H 0.94183 0.24696 0.74907 0.0
H398 H 0.94666 0.23227 0.73538 0.0
H399 H 0.91127 0.2235 0.73191 0.0
C400 C 0.83262 0.46589 0.2016 0.0
C401 C 0.82551 0.47285 0.20821 0.0
C402 C 0.83424 0.48956 0.19977 0.0
C403 C 0.82637 0.4847 0.20731 0.0
C404 C 0.84189 0.48258 0.19393 0.0
C405 C 0.841 0.47084 0.19479 0.0
U406 U 0.82146 0.43446 0.20637 0.0
O407 O 0.81791 0.42272 0.19226 0.0
O408 O 0.83201 0.41907 0.20411 0.0
C409 C 0.82606 0.41572 0.19528 0.0
C410 C 0.83104 0.45359 0.20032 0.0
C411 C 0.83107 0.40791 0.18682 0.0
C412 C 0.83553 0.40229 0.16741 0.0
C413 C 0.83303 0.41082 0.17542 0.0
C414 C 0.8354 0.38824 0.18234 0.0
C415 C 0.83628 0.39082 0.17075 0.0
C416 C 0.83254 0.39663 0.1902 0.0
C417 C 0.79909 0.43037 0.23196 0.0
C418 C 0.78728 0.41604 0.24095 0.0
C419 C 0.78581 0.4356 0.24679 0.0
C420 C 0.79415 0.43854 0.23895 0.0
C421 C 0.78248 0.4242 0.24851 0.0
C422 C 0.79556 0.41908 0.23289 0.0
C423 C 0.80728 0.43444 0.22347 0.0
O424 O 0.83547 0.44681 0.20796 0.0
O425 O 0.82131 0.45002 0.19617 0.0
O426 O 0.80398 0.43588 0.21292 0.0
O427 O 0.81818 0.43234 0.2247 0.0
H428 H 0.81903 0.46916 0.21357 0.0
H429 H 0.82051 0.49004 0.21199 0.0
H430 H 0.84803 0.48621 0.18814 0.0
H431 H 0.84655 0.46559 0.18964 0.0
H432 H 0.83638 0.40455 0.15855 0.0
H433 H 0.83204 0.41951 0.17262 0.0
H434 H 0.83607 0.37953 0.1852 0.0
H435 H 0.83099 0.39418 0.19892 0.0
H436 H 0.78482 0.40732 0.24072 0.0
H437 H 0.78191 0.44248 0.25146 0.0
H438 H 0.79653 0.44738 0.23816 0.0
H439 H 0.79906 0.41267 0.2273 0.0
C440 C 0.56143 0.33354 0.69987 0.0
C441 C 0.55458 0.32957 0.70879 0.0
C442 C 0.53768 0.33522 0.69821 0.0
C443 C 0.5427 0.33061 0.70804 0.0
C444 C 0.54464 0.33971 0.68972 0.0
C445 C 0.55638 0.33897 0.69062 0.0
U446 U 0.59261 0.32192 0.70571 0.0
O447 O 0.60454 0.31798 0.69183 0.0
O448 O 0.60823 0.33212 0.70358 0.0
C449 C 0.61161 0.32608 0.69483 0.0
C450 C 0.57377 0.33178 0.69914 0.0
C451 C 0.61928 0.33115 0.68625 0.0
C452 C 0.62453 0.33599 0.66681 0.0
C453 C 0.61613 0.33342 0.67495 0.0
C454 C 0.63895 0.33526 0.68141 0.0
C455 C 0.63611 0.33647 0.6699 0.0
C456 C 0.63069 0.33238 0.68939 0.0
C457 C 0.59625 0.29967 0.73137 0.0
C458 C 0.61104 0.29032 0.74233 0.0
C459 C 0.59139 0.28544 0.74543 0.0
C460 C 0.58814 0.29364 0.73756 0.0
C461 C 0.60293 0.28342 0.74795 0.0
C462 C 0.60778 0.29795 0.73375 0.0
C463 C 0.59199 0.30784 0.72292 0.0
O464 O 0.58036 0.33604 0.70707 0.0
O465 O 0.57732 0.32204 0.69501 0.0
O466 O 0.5906 0.30454 0.71235 0.0
O467 O 0.59434 0.31869 0.72407 0.0
H468 H 0.55835 0.32537 0.71604 0.0
H469 H 0.53742 0.32708 0.71468 0.0
H470 H 0.54097 0.3433 0.6821 0.0
H471 H 0.56156 0.34217 0.68372 0.0
H472 H 0.62207 0.33708 0.65803 0.0
H473 H 0.60735 0.33262 0.67233 0.0
H474 H 0.64775 0.33569 0.68408 0.0
H475 H 0.63334 0.33062 0.69801 0.0
H476 H 0.6198 0.2906 0.74492 0.0
H477 H 0.58475 0.28067 0.74964 0.0
H478 H 0.57916 0.29507 0.73609 0.0
H479 H 0.6142 0.30285 0.72937 0.0
C480 C 0.6957 0.46507 0.32679 0.0
C481 C 0.69809 0.47131 0.31705 0.0
C482 C 0.69266 0.489 0.32681 0.0
C483 C 0.69632 0.48305 0.31697 0.0
C484 C 0.69033 0.48242 0.33654 0.0
C485 C 0.69153 0.47064 0.3364 0.0
U486 U 0.70485 0.43296 0.32081 0.0
O487 O 0.70832 0.42152 0.33515 0.0
O488 O 0.69302 0.41884 0.32435 0.0
C489 C 0.69921 0.41545 0.33297 0.0
C490 C 0.69711 0.45273 0.32741 0.0
C491 C 0.69528 0.40669 0.34084 0.0
C492 C 0.68687 0.40062 0.35864 0.0
C493 C 0.68938 0.40927 0.35087 0.0
C494 C 0.6957 0.38684 0.34613 0.0
C495 C 0.69027 0.3894 0.35641 0.0
C496 C 0.6982 0.39544 0.33843 0.0
C497 C 0.72539 0.42721 0.29361 0.0
C498 C 0.74039 0.41532 0.28581 0.0
C499 C 0.73512 0.43273 0.27628 0.0
C500 C 0.7268 0.43471 0.2845 0.0
C501 C 0.74234 0.42331 0.27717 0.0
C502 C 0.73195 0.41727 0.29402 0.0
C503 C 0.71784 0.43071 0.30295 0.0
O504 O 0.69185 0.44635 0.31992 0.0
O505 O 0.70698 0.4487 0.33069 0.0
O506 O 0.72192 0.43222 0.31323 0.0
O507 O 0.70671 0.43001 0.30227 0.0
H508 H 0.70115 0.46709 0.30946 0.0
H509 H 0.69767 0.48703 0.30897 0.0
H510 H 0.68789 0.48634 0.34448 0.0
H511 H 0.68953 0.46589 0.34401 0.0
H512 H 0.68275 0.40274 0.36659 0.0
H513 H 0.68707 0.41795 0.35285 0.0
H514 H 0.6985 0.37827 0.34434 0.0
H515 H 0.7028 0.39335 0.33073 0.0
H516 H 0.74583 0.40796 0.2866 0.0
H517 H 0.73651 0.43901 0.26972 0.0
H518 H 0.72184 0.44244 0.28406 0.0
H519 H 0.73092 0.41133 0.30094 0.0
C520 C 0.56151 0.19683 0.82558 0.0
C521 C 0.55385 0.20435 0.82046 0.0
C522 C 0.53788 0.19332 0.82808 0.0
C523 C 0.5421 0.20272 0.82191 0.0
C524 C 0.54573 0.1852 0.83184 0.0
C525 C 0.55735 0.18728 0.8312 0.0
U526 U 0.59364 0.2062 0.81939 0.0
O527 O 0.60558 0.2097 0.83334 0.0
O528 O 0.60812 0.1946 0.8224 0.0
C529 C 0.6119 0.20084 0.83084 0.0
C530 C 0.57386 0.19856 0.82599 0.0
C531 C 0.61967 0.19606 0.83941 0.0
C532 C 0.62488 0.19121 0.85881 0.0
C533 C 0.6165 0.19381 0.85069 0.0
C534 C 0.63931 0.19193 0.84419 0.0
C535 C 0.63645 0.19069 0.85568 0.0
C536 C 0.63106 0.19485 0.83623 0.0
C537 C 0.59905 0.22611 0.79199 0.0
C538 C 0.61168 0.24048 0.78432 0.0
C539 C 0.59374 0.23648 0.77503 0.0
C540 C 0.59147 0.22812 0.78306 0.0
C541 C 0.6036 0.24308 0.77591 0.0
C542 C 0.6094 0.23203 0.79238 0.0
C543 C 0.59502 0.21885 0.80127 0.0
O544 O 0.58038 0.19299 0.81884 0.0
O545 O 0.57789 0.20846 0.8292 0.0
O546 O 0.5939 0.22309 0.81154 0.0
O547 O 0.59601 0.20776 0.8008 0.0
H548 H 0.5569 0.21163 0.81578 0.0
H549 H 0.5363 0.20886 0.81829 0.0
H550 H 0.54299 0.17708 0.83506 0.0
H551 H 0.56315 0.18119 0.83492 0.0
H552 H 0.62242 0.19011 0.86759 0.0
H553 H 0.60771 0.19458 0.85331 0.0
H554 H 0.64811 0.19148 0.84151 0.0
H555 H 0.63368 0.19659 0.82759 0.0
H556 H 0.61937 0.24546 0.78506 0.0
H557 H 0.58741 0.23839 0.76864 0.0
H558 H 0.58343 0.22365 0.78266 0.0
H559 H 0.61537 0.23055 0.7992 0.0
C560 C 0.83188 0.06227 0.32813 0.0
C561 C 0.82913 0.05627 0.31827 0.0
C562 C 0.83423 0.03815 0.32742 0.0
C563 C 0.83054 0.04445 0.31783 0.0
C564 C 0.83685 0.04447 0.33729 0.0
C565 C 0.83597 0.0563 0.33751 0.0
U566 U 0.82145 0.09349 0.32148 0.0
O567 O 0.81719 0.10614 0.33458 0.0
O568 O 0.83195 0.10894 0.32333 0.0
C569 C 0.82552 0.11291 0.33154 0.0
C570 C 0.83082 0.07471 0.32911 0.0
C571 C 0.83022 0.12094 0.33993 0.0
C572 C 0.8401 0.12599 0.3574 0.0
C573 C 0.83702 0.11779 0.34923 0.0
C574 C 0.82976 0.14033 0.34694 0.0
C575 C 0.83611 0.13725 0.35649 0.0
C576 C 0.82693 0.13228 0.33874 0.0
C577 C 0.7994 0.09671 0.29553 0.0
C578 C 0.78754 0.11106 0.28653 0.0
C579 C 0.7861 0.09153 0.28068 0.0
C580 C 0.79444 0.08858 0.2885 0.0
C581 C 0.78274 0.10292 0.27896 0.0
C582 C 0.79584 0.10801 0.2946 0.0
C583 C 0.80751 0.09254 0.30412 0.0
O584 O 0.8354 0.081 0.32112 0.0
O585 O 0.82109 0.0787 0.33287 0.0
O586 O 0.80412 0.09154 0.31469 0.0
O587 O 0.81843 0.09457 0.30298 0.0
H588 H 0.82607 0.06072 0.31084 0.0
H589 H 0.82889 0.04069 0.30976 0.0
H590 H 0.8393 0.0403 0.34507 0.0
H591 H 0.8382 0.0608 0.34523 0.0
H592 H 0.84504 0.12345 0.36471 0.0
H593 H 0.83966 0.10906 0.3503 0.0
H594 H 0.82663 0.14892 0.34602 0.0
H595 H 0.82173 0.13488 0.33162 0.0
H596 H 0.78507 0.11978 0.28676 0.0
H597 H 0.78219 0.08465 0.27601 0.0
H598 H 0.79681 0.07972 0.28929 0.0
H599 H 0.7993 0.11441 0.30022 0.0
C600 C 0.96527 0.33262 0.82427 0.0
C601 C 0.97252 0.32913 0.81548 0.0
C602 C 0.98883 0.33487 0.82688 0.0
C603 C 0.98431 0.33044 0.81672 0.0
C604 C 0.98146 0.33894 0.83527 0.0
C605 C 0.96978 0.3379 0.83391 0.0
U606 U 0.93308 0.32241 0.81906 0.0
O607 O 0.92237 0.31902 0.83405 0.0
O608 O 0.91894 0.33406 0.82315 0.0
C609 C 0.91615 0.32806 0.83211 0.0
C610 C 0.95305 0.3304 0.82437 0.0
C611 C 0.90708 0.33158 0.83987 0.0
C612 C 0.90071 0.34037 0.85742 0.0
C613 C 0.90942 0.33794 0.84968 0.0
C614 C 0.88728 0.33032 0.84546 0.0
C615 C 0.88964 0.33633 0.85548 0.0
C616 C 0.89595 0.32798 0.83771 0.0
C617 C 0.92698 0.30128 0.79249 0.0
C618 C 0.91427 0.28719 0.78445 0.0
C619 C 0.93284 0.29027 0.77609 0.0
C620 C 0.935 0.29875 0.78408 0.0
C621 C 0.92262 0.28416 0.77648 0.0
C622 C 0.91645 0.29572 0.79247 0.0
C623 C 0.93035 0.30903 0.80165 0.0
O624 O 0.94634 0.33548 0.81708 0.0
O625 O 0.94931 0.32061 0.82814 0.0
O626 O 0.93239 0.30516 0.81191 0.0
O627 O 0.9293 0.32009 0.80079 0.0
H628 H 0.96914 0.32506 0.80796 0.0
H629 H 0.98992 0.32724 0.81017 0.0
H630 H 0.98476 0.34237 0.84314 0.0
H631 H 0.96425 0.34073 0.84071 0.0
H632 H 0.90268 0.34493 0.86516 0.0
H633 H 0.91799 0.34077 0.85147 0.0
H634 H 0.87882 0.32707 0.84387 0.0
H635 H 0.89404 0.32305 0.83018 0.0
H636 H 0.90635 0.28253 0.78485 0.0
H637 H 0.9394 0.28799 0.77006 0.0
H638 H 0.94319 0.30296 0.78402 0.0
H639 H 0.91015 0.29762 0.7989 0.0
C640 C 0.20325 0.69386 0.06146 0.0
C641 C 0.21041 0.69983 0.05407 0.0
C642 C 0.20056 0.69137 0.038 0.0
C643 C 0.20908 0.69853 0.04232 0.0
C644 C 0.19394 0.68492 0.04542 0.0
C645 C 0.19529 0.68618 0.05709 0.0
U646 U 0.20781 0.70389 0.09378 0.0
O647 O 0.19258 0.70713 0.10426 0.0
O648 O 0.20353 0.69211 0.10769 0.0
C649 C 0.19437 0.69793 0.11027 0.0
C650 C 0.20284 0.69601 0.07368 0.0
C651 C 0.18683 0.6946 0.11959 0.0
C652 C 0.16934 0.68584 0.12613 0.0
C653 C 0.17701 0.68823 0.11738 0.0
C654 C 0.18141 0.69592 0.13943 0.0
C655 C 0.17137 0.68989 0.13716 0.0
C656 C 0.18911 0.69825 0.13069 0.0
C657 C 0.23448 0.72489 0.10013 0.0
C658 C 0.24226 0.73998 0.11181 0.0
C659 C 0.25168 0.73464 0.0943 0.0
C660 C 0.24348 0.72626 0.09247 0.0
C661 C 0.25083 0.7419 0.10373 0.0
C662 C 0.23411 0.73152 0.11001 0.0
C663 C 0.22516 0.71716 0.0972 0.0
O664 O 0.20992 0.69079 0.08052 0.0
O665 O 0.19915 0.70587 0.07738 0.0
O666 O 0.21495 0.7211 0.09497 0.0
O667 O 0.22609 0.70607 0.0978 0.0
H668 H 0.2166 0.70579 0.05734 0.0
H669 H 0.21421 0.7036 0.03662 0.0
H670 H 0.18728 0.67945 0.0422 0.0
H671 H 0.18969 0.68156 0.06272 0.0
H672 H 0.16159 0.68127 0.12421 0.0
H673 H 0.17514 0.68538 0.10884 0.0
H674 H 0.18305 0.69919 0.14786 0.0
H675 H 0.19665 0.70319 0.13251 0.0
H676 H 0.2415 0.74546 0.11916 0.0
H677 H 0.2582 0.73601 0.08796 0.0
H678 H 0.24387 0.7212 0.08479 0.0
H679 H 0.22726 0.73048 0.11606 0.0
C680 C 0.20298 0.83162 0.46578 0.0
C681 C 0.21037 0.82596 0.47319 0.0
C682 C 0.20029 0.83418 0.48927 0.0
C683 C 0.20904 0.82729 0.48494 0.0
C684 C 0.19339 0.84031 0.48183 0.0
C685 C 0.19475 0.83903 0.47016 0.0
U686 U 0.20763 0.82159 0.43343 0.0
O687 O 0.19242 0.81832 0.42293 0.0
O688 O 0.20335 0.83335 0.41951 0.0
C689 C 0.1942 0.82752 0.41692 0.0
C690 C 0.20265 0.82944 0.45356 0.0
C691 C 0.18668 0.83083 0.40756 0.0
C692 C 0.16918 0.83956 0.40099 0.0
C693 C 0.17685 0.83719 0.40975 0.0
C694 C 0.18127 0.82947 0.38772 0.0
C695 C 0.17122 0.8355 0.38997 0.0
C696 C 0.18897 0.82716 0.39647 0.0
C697 C 0.23432 0.80059 0.42708 0.0
C698 C 0.24212 0.78551 0.41539 0.0
C699 C 0.25152 0.79085 0.4329 0.0
C700 C 0.24332 0.79922 0.43474 0.0
C701 C 0.25069 0.7836 0.42347 0.0
C702 C 0.23396 0.79397 0.41719 0.0
C703 C 0.22499 0.80831 0.43002 0.0
O704 O 0.20973 0.83466 0.44672 0.0
O705 O 0.19895 0.81959 0.44984 0.0
O706 O 0.21478 0.80438 0.43225 0.0
O707 O 0.22592 0.81941 0.42941 0.0
H708 H 0.21676 0.8202 0.46992 0.0
H709 H 0.21437 0.82244 0.49064 0.0
H710 H 0.18654 0.84554 0.48504 0.0
H711 H 0.18897 0.84343 0.46453 0.0
H712 H 0.16142 0.84412 0.4029 0.0
H713 H 0.17496 0.84006 0.41828 0.0
H714 H 0.18293 0.82619 0.37929 0.0
H715 H 0.19652 0.82223 0.39466 0.0
H716 H 0.24137 0.78004 0.40803 0.0
H717 H 0.25804 0.78948 0.43924 0.0
H718 H 0.2437 0.80427 0.44242 0.0
H719 H 0.22711 0.79501 0.41114 0.0
C720 C 0.19453 0.70083 0.96524 0.0
C721 C 0.20131 0.70775 0.97222 0.0
C722 C 0.19274 0.69908 0.98889 0.0
C723 C 0.20037 0.70689 0.98407 0.0
C724 C 0.18543 0.69288 0.98189 0.0
C725 C 0.18637 0.69373 0.97016 0.0
U726 U 0.20606 0.70534 0.93388 0.0
O727 O 0.20989 0.69106 0.92245 0.0
O728 O 0.19571 0.7027 0.91841 0.0
C729 C 0.20178 0.69386 0.91531 0.0
C730 C 0.19631 0.6995 0.95298 0.0
C731 C 0.19705 0.68522 0.90753 0.0
C732 C 0.19378 0.66562 0.90172 0.0
C733 C 0.196 0.67367 0.9103 0.0
C734 C 0.19237 0.68072 0.88794 0.0
C735 C 0.19234 0.66903 0.89034 0.0
C736 C 0.19497 0.68864 0.89635 0.0
C737 C 0.22829 0.73103 0.92967 0.0
C738 C 0.23987 0.74014 0.91524 0.0
C739 C 0.24152 0.74591 0.9348 0.0
C740 C 0.23327 0.73802 0.93781 0.0
C741 C 0.24473 0.74767 0.92337 0.0
C742 C 0.23167 0.73203 0.91835 0.0
C743 C 0.22012 0.72254 0.93377 0.0
O744 O 0.19191 0.70705 0.94607 0.0
O745 O 0.20611 0.69537 0.94959 0.0
O746 O 0.22348 0.71203 0.9354 0.0
O747 O 0.20924 0.72365 0.93152 0.0
H748 H 0.20764 0.71331 0.96856 0.0
H749 H 0.20602 0.71178 0.98943 0.0
H750 H 0.17953 0.68683 0.98549 0.0
H751 H 0.1811 0.68833 0.96489 0.0
H752 H 0.19352 0.6567 0.90391 0.0
H753 H 0.19746 0.67082 0.9189 0.0
H754 H 0.19095 0.6837 0.87937 0.0
H755 H 0.19577 0.69749 0.894 0.0
H756 H 0.24219 0.73999 0.90648 0.0
H757 H 0.24546 0.7506 0.94165 0.0
H758 H 0.23096 0.73719 0.94668 0.0
H759 H 0.22812 0.72645 0.91194 0.0
C760 C 0.3261 0.69339 0.4655 0.0
C761 C 0.31956 0.70059 0.47244 0.0
C762 C 0.32791 0.69182 0.48917 0.0
C763 C 0.32045 0.69976 0.48429 0.0
C764 C 0.33365 0.68409 0.48221 0.0
C765 C 0.33282 0.68496 0.47047 0.0
U766 U 0.32128 0.70435 0.43404 0.0
O767 O 0.33539 0.70806 0.42233 0.0
O768 O 0.32376 0.69371 0.41874 0.0
C769 C 0.33244 0.69984 0.41537 0.0
C770 C 0.32738 0.69492 0.4532 0.0
C771 C 0.34069 0.69536 0.40709 0.0
C772 C 0.35847 0.68628 0.40167 0.0
C773 C 0.35044 0.68914 0.41006 0.0
C774 C 0.3469 0.69554 0.38743 0.0
C775 C 0.35686 0.68975 0.39035 0.0
C776 C 0.3389 0.69827 0.39572 0.0
C777 C 0.29573 0.72678 0.43003 0.0
C778 C 0.28674 0.73872 0.41584 0.0
C779 C 0.28105 0.74012 0.43544 0.0
C780 C 0.28884 0.73173 0.43828 0.0
C781 C 0.27926 0.7435 0.42407 0.0
C782 C 0.29476 0.73038 0.41878 0.0
C783 C 0.30421 0.71854 0.43399 0.0
O784 O 0.31975 0.69042 0.44642 0.0
O785 O 0.33151 0.70463 0.44962 0.0
O786 O 0.31477 0.72181 0.43548 0.0
O787 O 0.30294 0.70767 0.43183 0.0
H788 H 0.31427 0.70712 0.46873 0.0
H789 H 0.31584 0.70568 0.48962 0.0
H790 H 0.33938 0.6779 0.48585 0.0
H791 H 0.33791 0.67935 0.46524 0.0
H792 H 0.36617 0.68187 0.40407 0.0
H793 H 0.35198 0.68683 0.41881 0.0
H794 H 0.34553 0.69836 0.3788 0.0
H795 H 0.33145 0.70309 0.39328 0.0
H796 H 0.28693 0.74123 0.40714 0.0
H797 H 0.27645 0.74403 0.44237 0.0
H798 H 0.2897 0.7293 0.4471 0.0
H799 H 0.3003 0.72689 0.41231 0.0
C800 C 0.33157 0.82651 0.9639 0.0
C801 C 0.32641 0.81822 0.97059 0.0
C802 C 0.3343 0.827 0.988 0.0
C803 C 0.3276 0.81857 0.98244 0.0
C804 C 0.33875 0.83562 0.98095 0.0
C805 C 0.33769 0.83516 0.96918 0.0
U806 U 0.32187 0.81948 0.93234 0.0
O807 O 0.31683 0.83255 0.91998 0.0
O808 O 0.33268 0.82279 0.91738 0.0
C809 C 0.32565 0.83051 0.91345 0.0
C810 C 0.33019 0.82722 0.95152 0.0
C811 C 0.32966 0.83937 0.90558 0.0
C812 C 0.34279 0.85385 0.89878 0.0
C813 C 0.33954 0.8459 0.90712 0.0
C814 C 0.32601 0.8492 0.88787 0.0
C815 C 0.33582 0.85585 0.8892 0.0
C816 C 0.32315 0.84094 0.89579 0.0
C817 C 0.30207 0.792 0.92761 0.0
C818 C 0.28721 0.785 0.91505 0.0
C819 C 0.29205 0.77453 0.93204 0.0
C820 C 0.30042 0.78251 0.93456 0.0
C821 C 0.28499 0.77601 0.92259 0.0
C822 C 0.29571 0.79302 0.91756 0.0
C823 C 0.30934 0.8011 0.93223 0.0
O824 O 0.33554 0.81979 0.94513 0.0
O825 O 0.32018 0.83018 0.94758 0.0
O826 O 0.30509 0.81134 0.93343 0.0
O827 O 0.32039 0.80083 0.93063 0.0
H828 H 0.3212 0.81171 0.96671 0.0
H829 H 0.32264 0.81241 0.98696 0.0
H830 H 0.34258 0.84321 0.98431 0.0
H831 H 0.34134 0.84194 0.96416 0.0
H832 H 0.35059 0.85857 0.89992 0.0
H833 H 0.34478 0.84475 0.91458 0.0
H834 H 0.32054 0.85034 0.88058 0.0
H835 H 0.31564 0.83583 0.89431 0.0
H836 H 0.28186 0.78625 0.90768 0.0
H837 H 0.29045 0.76772 0.93798 0.0
H838 H 0.30518 0.78161 0.94237 0.0
H839 H 0.29687 0.80027 0.91206 0.0
C840 C 0.32883 0.83109 0.06245 0.0
C841 C 0.32004 0.82626 0.05613 0.0
C842 C 0.32856 0.83336 0.03831 0.0
C843 C 0.31998 0.82724 0.04427 0.0
C844 C 0.33761 0.83758 0.04499 0.0
C845 C 0.33756 0.83672 0.0568 0.0
U846 U 0.32212 0.8204 0.09349 0.0
O847 O 0.33524 0.81639 0.10616 0.0
O848 O 0.32354 0.83072 0.10909 0.0
C849 C 0.33205 0.82465 0.11297 0.0
C850 C 0.32978 0.82993 0.07485 0.0
C851 C 0.34062 0.83011 0.12036 0.0
C852 C 0.36013 0.83507 0.12526 0.0
C853 C 0.35188 0.83233 0.11702 0.0
C854 C 0.34565 0.83469 0.13984 0.0
C855 C 0.35715 0.83575 0.13685 0.0
C856 C 0.33757 0.83166 0.13174 0.0
C857 C 0.29608 0.79851 0.09651 0.0
C858 C 0.28703 0.78681 0.11093 0.0
C859 C 0.28112 0.78531 0.09142 0.0
C860 C 0.28899 0.79359 0.08842 0.0
C861 C 0.27943 0.782 0.10283 0.0
C862 C 0.29515 0.79503 0.10782 0.0
C863 C 0.30471 0.80653 0.09229 0.0
O864 O 0.32175 0.83444 0.08117 0.0
O865 O 0.33354 0.82019 0.07872 0.0
O866 O 0.3153 0.8031 0.09141 0.0
O867 O 0.30359 0.81744 0.09434 0.0
H868 H 0.31339 0.82149 0.06032 0.0
H869 H 0.31332 0.82263 0.04013 0.0
H870 H 0.34518 0.84111 0.04124 0.0
H871 H 0.34467 0.84017 0.06153 0.0
H872 H 0.3689 0.83606 0.12269 0.0
H873 H 0.35442 0.83129 0.10825 0.0
H874 H 0.34309 0.83528 0.14866 0.0
H875 H 0.32896 0.82995 0.13451 0.0
H876 H 0.28726 0.7844 0.11966 0.0
H877 H 0.2764 0.78141 0.08457 0.0
H878 H 0.28976 0.79592 0.07956 0.0
H879 H 0.3008 0.7985 0.1142 0.0
C880 C 0.19582 0.82349 0.56031 0.0
C881 C 0.2026 0.81705 0.55293 0.0
C882 C 0.19363 0.82631 0.53682 0.0
C883 C 0.20147 0.81843 0.54117 0.0
C884 C 0.1863 0.83205 0.54421 0.0
C885 C 0.18748 0.83072 0.55588 0.0
U886 U 0.20545 0.81889 0.59267 0.0
O887 O 0.20891 0.83386 0.60339 0.0
O888 O 0.19351 0.82329 0.60646 0.0
C889 C 0.19952 0.83227 0.60921 0.0
C890 C 0.19773 0.82404 0.57256 0.0
C891 C 0.19634 0.8397 0.61865 0.0
C892 C 0.18566 0.85582 0.62579 0.0
C893 C 0.18812 0.84814 0.61707 0.0
C894 C 0.19971 0.84669 0.63772 0.0
C895 C 0.19176 0.85544 0.63604 0.0
C896 C 0.20192 0.83882 0.6291 0.0
C897 C 0.22618 0.79215 0.59912 0.0
C898 C 0.24122 0.78453 0.61093 0.0
C899 C 0.23596 0.77493 0.59348 0.0
C900 C 0.22759 0.78308 0.59155 0.0
C901 C 0.24317 0.77589 0.60291 0.0
C902 C 0.23275 0.79266 0.60903 0.0
C903 C 0.21854 0.80142 0.59595 0.0
O904 O 0.19239 0.81701 0.57935 0.0
O905 O 0.2076 0.82762 0.57636 0.0
O906 O 0.22259 0.81159 0.59381 0.0
O907 O 0.20742 0.80061 0.5966 0.0
H908 H 0.20904 0.81138 0.55624 0.0
H909 H 0.20706 0.81382 0.53551 0.0
H910 H 0.18017 0.83808 0.54097 0.0
H911 H 0.18219 0.83575 0.56149 0.0
H912 H 0.17942 0.86242 0.62435 0.0
H913 H 0.18376 0.84893 0.60901 0.0
H914 H 0.20438 0.84613 0.64561 0.0
H915 H 0.20823 0.83227 0.63047 0.0
H916 H 0.24668 0.78537 0.61828 0.0
H917 H 0.23738 0.76836 0.5872 0.0
H918 H 0.22259 0.78262 0.58385 0.0
H919 H 0.23169 0.79958 0.615 0.0
C920 C 0.33375 0.70088 0.56029 0.0
C921 C 0.32796 0.70846 0.55318 0.0
C922 C 0.33597 0.6988 0.53674 0.0
C923 C 0.32914 0.70745 0.54138 0.0
C924 C 0.34224 0.69175 0.54391 0.0
C925 C 0.34113 0.69282 0.5556 0.0
U926 U 0.32265 0.70555 0.59197 0.0
O927 O 0.31893 0.69079 0.60294 0.0
O928 O 0.33377 0.70195 0.60657 0.0
C929 C 0.3278 0.69295 0.60935 0.0
C930 C 0.33176 0.70007 0.5725 0.0
C931 C 0.3313 0.68549 0.61869 0.0
C932 C 0.34332 0.67065 0.62654 0.0
C933 C 0.34075 0.67826 0.61776 0.0
C934 C 0.32686 0.67721 0.63699 0.0
C935 C 0.33612 0.6697 0.63606 0.0
C936 C 0.32459 0.6851 0.62847 0.0
C937 C 0.30012 0.73104 0.59666 0.0
C938 C 0.28801 0.74013 0.61065 0.0
C939 C 0.2869 0.7457 0.59101 0.0
C940 C 0.2953 0.73784 0.58829 0.0
C941 C 0.28338 0.74757 0.60235 0.0
C942 C 0.29637 0.7321 0.60785 0.0
C943 C 0.30838 0.72246 0.59302 0.0
O944 O 0.33629 0.70766 0.57931 0.0
O945 O 0.322 0.69597 0.57598 0.0
O946 O 0.30508 0.71197 0.59116 0.0
O947 O 0.31928 0.72372 0.59515 0.0
H948 H 0.32221 0.71473 0.55669 0.0
H949 H 0.32418 0.71288 0.53587 0.0
H950 H 0.34742 0.68498 0.54046 0.0
H951 H 0.34562 0.6869 0.56101 0.0
H952 H 0.35064 0.66515 0.62567 0.0
H953 H 0.34601 0.67841 0.61022 0.0
H954 H 0.32128 0.67685 0.64429 0.0
H955 H 0.31734 0.6907 0.62937 0.0
H956 H 0.28536 0.73995 0.61931 0.0
H957 H 0.28309 0.75027 0.58403 0.0
H958 H 0.29785 0.73688 0.5795 0.0
H959 H 0.29975 0.7266 0.61438 0.0
C960 C 0.96628 0.82016 0.33644 0.0
C961 C 0.97396 0.81248 0.33153 0.0
C962 C 0.98975 0.82486 0.3368 0.0
C963 C 0.98567 0.81481 0.33176 0.0
C964 C 0.98211 0.83191 0.34262 0.0
C965 C 0.97047 0.82963 0.34233 0.0
U966 U 0.93374 0.81502 0.32627 0.0
O967 O 0.9193 0.81981 0.33743 0.0
O968 O 0.924 0.8306 0.32272 0.0
C969 C 0.91725 0.82897 0.33144 0.0
C970 C 0.95397 0.8198 0.33419 0.0
C971 C 0.90831 0.83723 0.33445 0.0
C972 C 0.90246 0.8566 0.33871 0.0
C973 C 0.91107 0.84847 0.33727 0.0
C974 C 0.88826 0.84208 0.33563 0.0
C975 C 0.89093 0.85356 0.33765 0.0
C976 C 0.89686 0.83407 0.33377 0.0
C977 C 0.9278 0.78906 0.30392 0.0
C978 C 0.91471 0.77833 0.29197 0.0
C979 C 0.93493 0.77737 0.28848 0.0
C980 C 0.93691 0.78443 0.29784 0.0
C981 C 0.92379 0.77463 0.28507 0.0
C982 C 0.91668 0.78572 0.30114 0.0
C983 C 0.9298 0.79844 0.31202 0.0
O984 O 0.95014 0.8237 0.3245 0.0
O985 O 0.94719 0.81252 0.33927 0.0
O986 O 0.92874 0.79716 0.32305 0.0
O987 O 0.93328 0.80847 0.30868 0.0
H988 H 0.97089 0.8051 0.32698 0.0
H989 H 0.99148 0.80915 0.32742 0.0
H990 H 0.98507 0.83963 0.34665 0.0
H991 H 0.96466 0.83567 0.34614 0.0
H992 H 0.90482 0.86533 0.34035 0.0
H993 H 0.91987 0.85106 0.33795 0.0
H994 H 0.87948 0.83945 0.33481 0.0
H995 H 0.89456 0.82545 0.33153 0.0
H996 H 0.90606 0.77602 0.28987 0.0
H997 H 0.94214 0.77434 0.28361 0.0
H998 H 0.94556 0.78676 0.29996 0.0
H999 H 0.90951 0.78918 0.30575 0.0
C1000 C 0.20634 0.466 0.83529 0.0
C1001 C 0.21409 0.47365 0.83045 0.0
C1002 C 0.20185 0.48952 0.83588 0.0
C1003 C 0.21186 0.48538 0.8308 0.0
C1004 C 0.19474 0.48191 0.84164 0.0
C1005 C 0.19692 0.47026 0.84123 0.0
U1006 U 0.21179 0.43336 0.82552 0.0
O1007 O 0.20659 0.41931 0.83684 0.0
O1008 O 0.19649 0.42323 0.8214 0.0
C1009 C 0.19766 0.417 0.83053 0.0
C1010 C 0.20667 0.45366 0.83313 0.0
C1011 C 0.18971 0.40773 0.83334 0.0
C1012 C 0.17206 0.40128 0.84201 0.0
C1013 C 0.18029 0.40974 0.84039 0.0
C1014 C 0.18274 0.38861 0.82982 0.0
C1015 C 0.17314 0.39071 0.83659 0.0
C1016 C 0.19094 0.39707 0.82819 0.0
C1017 C 0.23809 0.42668 0.80387 0.0
C1018 C 0.24461 0.41439 0.78853 0.0
C1019 C 0.25368 0.43255 0.79163 0.0
C1020 C 0.24649 0.43457 0.80089 0.0
C1021 C 0.25236 0.42275 0.78494 0.0
C1022 C 0.23753 0.41633 0.79796 0.0
C1023 C 0.22913 0.43028 0.81192 0.0
O1024 O 0.20305 0.44972 0.82336 0.0
O1025 O 0.21377 0.44693 0.83849 0.0
O1026 O 0.23001 0.42897 0.82297 0.0
O1027 O 0.21889 0.43274 0.80824 0.0
H1028 H 0.22146 0.47055 0.8259 0.0
H1029 H 0.21758 0.49115 0.8265 0.0
H1030 H 0.18705 0.48491 0.84571 0.0
H1031 H 0.19084 0.4645 0.84503 0.0
H1032 H 0.16465 0.40312 0.84716 0.0
H1033 H 0.17912 0.41796 0.84435 0.0
H1034 H 0.18366 0.38056 0.82547 0.0
H1035 H 0.19809 0.39539 0.82264 0.0
H1036 H 0.24357 0.40667 0.78364 0.0
H1037 H 0.25964 0.43909 0.78912 0.0
H1038 H 0.24706 0.44261 0.80531 0.0
H1039 H 0.23117 0.41008 0.80018 0.0
C1040 C 0.56084 0.70524 0.33704 0.0
C1041 C 0.55318 0.71422 0.33549 0.0
C1042 C 0.53724 0.70114 0.33784 0.0
C1043 C 0.54141 0.71223 0.33619 0.0
C1044 C 0.545 0.69245 0.34034 0.0
C1045 C 0.55667 0.69453 0.34007 0.0
U1046 U 0.59335 0.71074 0.32658 0.0
O1047 O 0.60301 0.69511 0.3229 0.0
O1048 O 0.60769 0.70579 0.33776 0.0
C1049 C 0.60968 0.69662 0.3317 0.0
C1050 C 0.57302 0.70605 0.33422 0.0
C1051 C 0.61853 0.68828 0.33468 0.0
C1052 C 0.62424 0.66886 0.33878 0.0
C1053 C 0.6157 0.67704 0.33739 0.0
C1054 C 0.63855 0.68331 0.33586 0.0
C1055 C 0.6358 0.67183 0.33778 0.0
C1056 C 0.63 0.69137 0.33406 0.0
C1057 C 0.59999 0.73665 0.30452 0.0
C1058 C 0.61268 0.74399 0.28992 0.0
C1059 C 0.59365 0.75157 0.29174 0.0
C1060 C 0.59165 0.74435 0.30094 0.0
C1061 C 0.60399 0.75106 0.28577 0.0
C1062 C 0.61069 0.73683 0.29924 0.0
C1063 C 0.59674 0.72766 0.31263 0.0
O1064 O 0.57685 0.70212 0.32452 0.0
O1065 O 0.57985 0.71316 0.33948 0.0
O1066 O 0.59799 0.72877 0.32366 0.0
O1067 O 0.59405 0.71742 0.30911 0.0
H1068 H 0.55623 0.72256 0.33316 0.0
H1069 H 0.53558 0.71909 0.33434 0.0
H1070 H 0.54206 0.68386 0.34175 0.0
H1071 H 0.56246 0.68752 0.34143 0.0
H1072 H 0.62183 0.66014 0.34033 0.0
H1073 H 0.60687 0.67451 0.33802 0.0
H1074 H 0.64735 0.68588 0.33508 0.0
H1075 H 0.63237 0.69998 0.3319 0.0
H1076 H 0.62074 0.74351 0.28552 0.0
H1077 H 0.58683 0.75694 0.28873 0.0
H1078 H 0.58332 0.74434 0.30487 0.0
H1079 H 0.61728 0.73099 0.30191 0.0
C1080 C 0.32145 0.06111 0.8347 0.0
C1081 C 0.3156 0.05368 0.82746 0.0
C1082 C 0.32651 0.03765 0.83494 0.0
C1083 C 0.31817 0.04205 0.82754 0.0
C1084 C 0.33132 0.04499 0.84303 0.0
C1085 C 0.32907 0.05663 0.84267 0.0
U1086 U 0.31618 0.09368 0.8253 0.0
O1087 O 0.32095 0.10803 0.83657 0.0
O1088 O 0.3315 0.10369 0.8215 0.0
C1089 C 0.32997 0.11026 0.83039 0.0
C1090 C 0.32147 0.0735 0.83299 0.0
C1091 C 0.33837 0.11899 0.83345 0.0
C1092 C 0.35778 0.12462 0.83778 0.0
C1093 C 0.34959 0.11611 0.83627 0.0
C1094 C 0.34334 0.13894 0.8348 0.0
C1095 C 0.35479 0.13616 0.83681 0.0
C1096 C 0.33528 0.13044 0.83286 0.0
C1097 C 0.28985 0.10045 0.80377 0.0
C1098 C 0.28337 0.11279 0.78851 0.0
C1099 C 0.27421 0.09467 0.79154 0.0
C1100 C 0.28139 0.09263 0.80078 0.0
C1101 C 0.27558 0.10446 0.78488 0.0
C1102 C 0.29046 0.1108 0.79792 0.0
C1103 C 0.2988 0.09674 0.81177 0.0
O1104 O 0.32497 0.07743 0.82319 0.0
O1105 O 0.31434 0.08021 0.83838 0.0
O1106 O 0.29793 0.09798 0.82283 0.0
O1107 O 0.30904 0.09431 0.80805 0.0
H1108 H 0.30959 0.05694 0.82132 0.0
H1109 H 0.31397 0.03654 0.82149 0.0
H1110 H 0.33737 0.04182 0.84918 0.0
H1111 H 0.33368 0.06223 0.84833 0.0
H1112 H 0.3665 0.12221 0.8394 0.0
H1113 H 0.3521 0.10729 0.8369 0.0
H1114 H 0.34077 0.14774 0.83405 0.0
H1115 H 0.32668 0.13282 0.83063 0.0
H1116 H 0.28446 0.12049 0.78365 0.0
H1117 H 0.26823 0.08816 0.789 0.0
H1118 H 0.28078 0.08458 0.80517 0.0
H1119 H 0.29686 0.11702 0.80016 0.0
C1120 C 0.9656 0.7045 0.19091 0.0
C1121 C 0.97338 0.71304 0.19386 0.0
C1122 C 0.98915 0.70009 0.18997 0.0
C1123 C 0.98512 0.71089 0.19323 0.0
C1124 C 0.98134 0.69193 0.18622 0.0
C1125 C 0.96969 0.69416 0.18662 0.0
U1126 U 0.93302 0.71046 0.20088 0.0
O1127 O 0.91897 0.70524 0.18952 0.0
O1128 O 0.92289 0.6952 0.20498 0.0
C1129 C 0.91668 0.69632 0.1958 0.0
C1130 C 0.95334 0.70527 0.19339 0.0
C1131 C 0.90736 0.68842 0.19304 0.0
C1132 C 0.90089 0.67076 0.18443 0.0
C1133 C 0.90935 0.67899 0.186 0.0
C1134 C 0.88824 0.68146 0.19664 0.0
C1135 C 0.89033 0.67185 0.18989 0.0
C1136 C 0.89671 0.68967 0.19822 0.0
C1137 C 0.92653 0.7368 0.22257 0.0
C1138 C 0.91378 0.74421 0.23712 0.0
C1139 C 0.93284 0.75172 0.23542 0.0
C1140 C 0.93486 0.7445 0.22619 0.0
C1141 C 0.92248 0.75125 0.24133 0.0
C1142 C 0.9158 0.737 0.2278 0.0
C1143 C 0.92989 0.72772 0.21456 0.0
O1144 O 0.94937 0.70162 0.20312 0.0
O1145 O 0.94666 0.71242 0.18802 0.0
O1146 O 0.92861 0.72861 0.20351 0.0
O1147 O 0.9324 0.71751 0.21822 0.0
H1148 H 0.97041 0.72109 0.19717 0.0
H1149 H 0.99103 0.7173 0.19616 0.0
H1150 H 0.98422 0.68359 0.18365 0.0
H1151 H 0.96381 0.68749 0.18424 0.0
H1152 H 0.9027 0.66334 0.1793 0.0
H1153 H 0.91756 0.67781 0.18203 0.0
H1154 H 0.8802 0.68239 0.20101 0.0
H1155 H 0.89506 0.69683 0.20376 0.0
H1156 H 0.9057 0.74377 0.24149 0.0
H1157 H 0.93967 0.75706 0.23849 0.0
H1158 H 0.9432 0.74446 0.2223 0.0
H1159 H 0.90922 0.73116 0.22511 0.0
C1160 C 0.32168 0.46617 0.69003 0.0
C1161 C 0.31431 0.47372 0.69555 0.0
C1162 C 0.32628 0.48966 0.68984 0.0
C1163 C 0.31659 0.48543 0.69543 0.0
C1164 C 0.33292 0.48216 0.68336 0.0
C1165 C 0.33073 0.47051 0.68362 0.0
U1166 U 0.31659 0.43367 0.7 0.0
O1167 O 0.32155 0.41951 0.68867 0.0
O1168 O 0.33208 0.42375 0.70376 0.0
C1169 C 0.33066 0.41736 0.69475 0.0
C1170 C 0.32149 0.45383 0.69205 0.0
C1171 C 0.33843 0.40798 0.69198 0.0
C1172 C 0.35601 0.40138 0.68336 0.0
C1173 C 0.34786 0.40989 0.68495 0.0
C1174 C 0.34522 0.38885 0.69555 0.0
C1175 C 0.35483 0.39086 0.6888 0.0
C1176 C 0.33708 0.39736 0.69715 0.0
C1177 C 0.29085 0.4279 0.72261 0.0
C1178 C 0.27903 0.41507 0.73375 0.0
C1179 C 0.28025 0.43489 0.73887 0.0
C1180 C 0.28728 0.43689 0.72951 0.0
C1181 C 0.27634 0.42387 0.74143 0.0
C1182 C 0.28649 0.417 0.72463 0.0
C1183 C 0.30013 0.42966 0.71435 0.0
O1184 O 0.32545 0.44997 0.7017 0.0
O1185 O 0.31406 0.44714 0.68706 0.0
O1186 O 0.29873 0.42856 0.70332 0.0
O1187 O 0.31016 0.43331 0.71758 0.0
H1188 H 0.30722 0.47055 0.70048 0.0
H1189 H 0.31117 0.49111 0.70023 0.0
H1190 H 0.34029 0.48524 0.67881 0.0
H1191 H 0.33654 0.46481 0.6793 0.0
H1192 H 0.36344 0.40312 0.67823 0.0
H1193 H 0.3491 0.41808 0.68099 0.0
H1194 H 0.34424 0.38082 0.69991 0.0
H1195 H 0.32991 0.39579 0.7027 0.0
H1196 H 0.27572 0.4066 0.73506 0.0
H1197 H 0.27806 0.44197 0.74432 0.0
H1198 H 0.29039 0.44541 0.728 0.0
H1199 H 0.28911 0.40992 0.71937 0.0
C1200 C 0.56161 0.82162 0.19235 0.0
C1201 C 0.55389 0.81426 0.19756 0.0
C1202 C 0.53772 0.82631 0.19148 0.0
C1203 C 0.54217 0.81666 0.19725 0.0
C1204 C 0.54592 0.83376 0.1868 0.0
C1205 C 0.55748 0.83124 0.18691 0.0
U1206 U 0.59411 0.81517 0.20139 0.0
O1207 O 0.60857 0.81973 0.19022 0.0
O1208 O 0.60484 0.82995 0.20562 0.0
C1209 C 0.61149 0.82823 0.19685 0.0
C1210 C 0.574 0.82104 0.19395 0.0
C1211 C 0.62005 0.83671 0.19345 0.0
C1212 C 0.62559 0.85456 0.18465 0.0
C1213 C 0.61742 0.84606 0.18656 0.0
C1214 C 0.63907 0.84429 0.19627 0.0
C1215 C 0.63641 0.85381 0.18968 0.0
C1216 C 0.63097 0.83583 0.19812 0.0
C1217 C 0.59914 0.78882 0.2233 0.0
C1218 C 0.61213 0.77795 0.23516 0.0
C1219 C 0.59192 0.77739 0.23881 0.0
C1220 C 0.59 0.78438 0.22944 0.0
C1221 C 0.60303 0.77446 0.24212 0.0
C1222 C 0.61022 0.78535 0.22602 0.0
C1223 C 0.59709 0.79831 0.21542 0.0
O1224 O 0.57829 0.82475 0.20354 0.0
O1225 O 0.58033 0.81354 0.18859 0.0
O1226 O 0.59819 0.79711 0.20437 0.0
O1227 O 0.59418 0.80848 0.21893 0.0
H1228 H 0.55693 0.80699 0.20226 0.0
H1229 H 0.53668 0.81108 0.20203 0.0
H1230 H 0.54404 0.84198 0.18352 0.0
H1231 H 0.56336 0.83734 0.1833 0.0
H1232 H 0.62335 0.86191 0.17963 0.0
H1233 H 0.60901 0.84695 0.18296 0.0
H1234 H 0.6473 0.84361 0.20032 0.0
H1235 H 0.63312 0.82874 0.20354 0.0
H1236 H 0.62075 0.77548 0.23719 0.0
H1237 H 0.58469 0.77455 0.24374 0.0
H1238 H 0.58138 0.78686 0.2274 0.0
H1239 H 0.61742 0.7887 0.22137 0.0
C1240 C 0.20615 0.06097 0.68916 0.0
C1241 C 0.21523 0.05343 0.69081 0.0
C1242 C 0.20231 0.03733 0.6885 0.0
C1243 C 0.21337 0.04164 0.69018 0.0
C1244 C 0.19353 0.04496 0.68593 0.0
C1245 C 0.19548 0.05664 0.68613 0.0
U1246 U 0.21155 0.09339 0.69978 0.0
O1247 O 0.20682 0.10783 0.68869 0.0
O1248 O 0.19593 0.10309 0.70334 0.0
C1249 C 0.19761 0.10987 0.69468 0.0
C1250 C 0.2068 0.0732 0.69177 0.0
C1251 C 0.18935 0.1188 0.69171 0.0
C1252 C 0.16996 0.12464 0.68754 0.0
C1253 C 0.17809 0.11605 0.68894 0.0
C1254 C 0.1845 0.13883 0.6906 0.0
C1255 C 0.173 0.13616 0.68861 0.0
C1256 C 0.19252 0.13023 0.6924 0.0
C1257 C 0.23724 0.09915 0.72249 0.0
C1258 C 0.24911 0.112 0.73361 0.0
C1259 C 0.24786 0.0922 0.73872 0.0
C1260 C 0.2408 0.09018 0.72937 0.0
C1261 C 0.25178 0.10322 0.74128 0.0
C1262 C 0.24164 0.11005 0.7245 0.0
C1263 C 0.22798 0.09735 0.7142 0.0
O1264 O 0.20269 0.07703 0.7014 0.0
O1265 O 0.21422 0.07993 0.68683 0.0
O1266 O 0.2294 0.09848 0.70319 0.0
O1267 O 0.21793 0.09371 0.71739 0.0
H1268 H 0.22355 0.05659 0.69314 0.0
H1269 H 0.2203 0.03592 0.69209 0.0
H1270 H 0.18496 0.04192 0.6845 0.0
H1271 H 0.1884 0.06233 0.68469 0.0
H1272 H 0.16121 0.12229 0.68593 0.0
H1273 H 0.17549 0.10726 0.68825 0.0
H1274 H 0.18714 0.14759 0.69142 0.0
H1275 H 0.20115 0.13253 0.69463 0.0
H1276 H 0.25243 0.12047 0.73493 0.0
H1277 H 0.25004 0.08514 0.74416 0.0
H1278 H 0.23769 0.08166 0.72785 0.0
H1279 H 0.23903 0.11711 0.71924 0.0
C1280 C 0.33717 0.96538 0.82088 0.0
C1281 C 0.33402 0.9731 0.81241 0.0
C1282 C 0.33791 0.98885 0.82534 0.0
C1283 C 0.33455 0.98482 0.81459 0.0
C1284 C 0.34186 0.98111 0.83343 0.0
C1285 C 0.34156 0.96948 0.83117 0.0
U1286 U 0.3268 0.933 0.81517 0.0
O1287 O 0.33827 0.91897 0.8204 0.0
O1288 O 0.32275 0.92298 0.83038 0.0
C1289 C 0.33192 0.91674 0.82929 0.0
C1290 C 0.33467 0.95316 0.82017 0.0
C1291 C 0.33422 0.90727 0.83711 0.0
C1292 C 0.34591 0.89868 0.85181 0.0
C1293 C 0.34412 0.90722 0.84374 0.0
C1294 C 0.32775 0.89037 0.84697 0.0
C1295 C 0.33759 0.89033 0.85379 0.0
C1296 C 0.32615 0.89867 0.83864 0.0
C1297 C 0.30435 0.92728 0.78932 0.0
C1298 C 0.29322 0.91434 0.77757 0.0
C1299 C 0.28803 0.93415 0.77878 0.0
C1300 C 0.29741 0.93623 0.78577 0.0
C1301 C 0.2855 0.9231 0.77492 0.0
C1302 C 0.30236 0.91635 0.78499 0.0
C1303 C 0.31254 0.92907 0.79864 0.0
O1304 O 0.32499 0.9493 0.82412 0.0
O1305 O 0.33971 0.94651 0.81274 0.0
O1306 O 0.32358 0.9279 0.79732 0.0
O1307 O 0.30924 0.93273 0.80865 0.0
H1308 H 0.3306 0.9701 0.80442 0.0
H1309 H 0.33145 0.99068 0.80824 0.0
H1310 H 0.3445 0.98402 0.84174 0.0
H1311 H 0.34406 0.96363 0.8378 0.0
H1312 H 0.35364 0.89881 0.85681 0.0
H1313 H 0.35039 0.91387 0.84279 0.0
H1314 H 0.32125 0.88397 0.84816 0.0
H1315 H 0.31848 0.89852 0.83356 0.0
H1316 H 0.29192 0.90585 0.77429 0.0
H1317 H 0.28254 0.94119 0.77661 0.0
H1318 H 0.29889 0.94476 0.78887 0.0
H1319 H 0.30764 0.9093 0.78762 0.0
C1320 C 0.06168 0.8352 0.32123 0.0
C1321 C 0.05394 0.83061 0.31339 0.0
C1322 C 0.03817 0.83596 0.32577 0.0
C1323 C 0.04221 0.83104 0.31565 0.0
C1324 C 0.04587 0.84143 0.33301 0.0
C1325 C 0.05752 0.84096 0.33079 0.0
U1326 U 0.09432 0.82532 0.31575 0.0
O1327 O 0.1084 0.83666 0.32098 0.0
O1328 O 0.10439 0.82127 0.33108 0.0
C1329 C 0.11066 0.83039 0.32991 0.0
C1330 C 0.074 0.83293 0.32078 0.0
C1331 C 0.11995 0.83318 0.33785 0.0
C1332 C 0.12645 0.8418 0.35551 0.0
C1333 C 0.11797 0.84022 0.34729 0.0
C1334 C 0.13909 0.82961 0.34479 0.0
C1335 C 0.13701 0.83636 0.35441 0.0
C1336 C 0.13061 0.82802 0.33659 0.0
C1337 C 0.10078 0.80363 0.2894 0.0
C1338 C 0.11371 0.78947 0.28156 0.0
C1339 C 0.09432 0.79048 0.27481 0.0
C1340 C 0.09228 0.7997 0.28204 0.0
C1341 C 0.1049 0.78498 0.27485 0.0
C1342 C 0.11166 0.79874 0.28883 0.0
C1343 C 0.09754 0.81161 0.29855 0.0
O1344 O 0.07792 0.82318 0.32445 0.0
O1345 O 0.08075 0.83826 0.31369 0.0
O1346 O 0.09884 0.82265 0.29764 0.0
O1347 O 0.09493 0.80795 0.30873 0.0
H1348 H 0.05698 0.82618 0.30592 0.0
H1349 H 0.03637 0.82691 0.30987 0.0
H1350 H 0.04293 0.84533 0.34081 0.0
H1351 H 0.06335 0.84456 0.33694 0.0
H1352 H 0.12464 0.84694 0.36293 0.0
H1353 H 0.10975 0.84419 0.34847 0.0
H1354 H 0.14713 0.82525 0.34384 0.0
H1355 H 0.13227 0.82248 0.32943 0.0
H1356 H 0.12194 0.78537 0.28171 0.0
H1357 H 0.08739 0.78715 0.26975 0.0
H1358 H 0.08383 0.80332 0.28238 0.0
H1359 H 0.11835 0.80165 0.29442 0.0
C1360 C 0.19122 0.5598 0.82051 0.0
C1361 C 0.19594 0.55214 0.81266 0.0
C1362 C 0.19071 0.53629 0.82494 0.0
C1363 C 0.19562 0.54041 0.81486 0.0
C1364 C 0.18512 0.54392 0.83219 0.0
C1365 C 0.18546 0.55556 0.83001 0.0
U1366 U 0.20157 0.59205 0.81466 0.0
O1367 O 0.19101 0.6066 0.82018 0.0
O1368 O 0.20674 0.60216 0.82963 0.0
C1369 C 0.19791 0.60888 0.82866 0.0
C1370 C 0.19344 0.57212 0.82028 0.0
C1371 C 0.19523 0.61758 0.83726 0.0
C1372 C 0.18689 0.6237 0.85517 0.0
C1373 C 0.18843 0.61536 0.84674 0.0
C1374 C 0.19945 0.63612 0.84509 0.0
C1375 C 0.19148 0.63483 0.85405 0.0
C1376 C 0.20092 0.6279 0.83668 0.0
C1377 C 0.22273 0.59862 0.78814 0.0
C1378 C 0.23789 0.6114 0.78217 0.0
C1379 C 0.23526 0.59346 0.77251 0.0
C1380 C 0.22597 0.59108 0.77951 0.0
C1381 C 0.24175 0.60332 0.77421 0.0
C1382 C 0.22842 0.60907 0.78911 0.0
C1383 C 0.21474 0.59432 0.79683 0.0
O1384 O 0.20342 0.57582 0.82358 0.0
O1385 O 0.18809 0.57892 0.81325 0.0
O1386 O 0.20375 0.59631 0.79639 0.0
O1387 O 0.21858 0.59172 0.80695 0.0
H1388 H 0.20038 0.55523 0.80525 0.0
H1389 H 0.19983 0.53462 0.80907 0.0
H1390 H 0.18123 0.54093 0.83995 0.0
H1391 H 0.18178 0.56132 0.83618 0.0
H1392 H 0.18255 0.62095 0.86271 0.0
H1393 H 0.18465 0.60705 0.84783 0.0
H1394 H 0.20507 0.64331 0.84453 0.0
H1395 H 0.20691 0.62949 0.82988 0.0
H1396 H 0.24264 0.61915 0.78352 0.0
H1397 H 0.23799 0.58713 0.76641 0.0
H1398 H 0.22174 0.58297 0.77862 0.0
H1399 H 0.22602 0.61507 0.79566 0.0
C1400 C 0.46592 0.69164 0.32265 0.0
C1401 C 0.47344 0.69613 0.31468 0.0
C1402 C 0.48987 0.69106 0.32679 0.0
C1403 C 0.48518 0.69608 0.31684 0.0
C1404 C 0.48188 0.68733 0.33496 0.0
C1405 C 0.47025 0.68724 0.33274 0.0
U1406 U 0.43336 0.70039 0.31619 0.0
O1407 O 0.41936 0.68887 0.32112 0.0
O1408 O 0.42297 0.70436 0.33132 0.0
C1409 C 0.4169 0.69511 0.33005 0.0
C1410 C 0.45355 0.69318 0.322 0.0
C1411 C 0.40761 0.69214 0.33787 0.0
C1412 C 0.40132 0.68346 0.3555 0.0
C1413 C 0.4097 0.68508 0.34721 0.0
C1414 C 0.38856 0.69569 0.345 0.0
C1415 C 0.39075 0.68891 0.35454 0.0
C1416 C 0.39695 0.69731 0.33674 0.0
C1417 C 0.42802 0.72239 0.28993 0.0
C1418 C 0.41513 0.73438 0.27905 0.0
C1419 C 0.43538 0.7377 0.27828 0.0
C1420 C 0.43721 0.72836 0.28536 0.0
C1421 C 0.4243 0.74117 0.27543 0.0
C1422 C 0.41695 0.72525 0.28649 0.0
C1423 C 0.42996 0.71445 0.29941 0.0
O1424 O 0.44921 0.70276 0.32564 0.0
O1425 O 0.44733 0.68784 0.31439 0.0
O1426 O 0.42897 0.7034 0.29817 0.0
O1427 O 0.43291 0.71795 0.30958 0.0
H1428 H 0.47023 0.70018 0.30709 0.0
H1429 H 0.49037 0.7006 0.31082 0.0
H1430 H 0.48421 0.68509 0.34348 0.0
H1431 H 0.46451 0.68434 0.33932 0.0
H1432 H 0.4032 0.67832 0.36286 0.0
H1433 H 0.41794 0.68115 0.3483 0.0
H1434 H 0.3805 0.70004 0.34418 0.0
H1435 H 0.39524 0.7029 0.32965 0.0
H1436 H 0.40652 0.73655 0.27665 0.0
H1437 H 0.44266 0.74249 0.27535 0.0
H1438 H 0.44582 0.7262 0.28779 0.0
H1439 H 0.40971 0.72073 0.28991 0.0
C1440 C 0.33703 0.55996 0.70482 0.0
C1441 C 0.3328 0.55228 0.71286 0.0
C1442 C 0.33781 0.53646 0.70039 0.0
C1443 C 0.33325 0.54055 0.71066 0.0
C1444 C 0.34283 0.54413 0.69284 0.0
C1445 C 0.34241 0.55578 0.69504 0.0
U1446 U 0.32679 0.59246 0.71021 0.0
O1447 O 0.33828 0.6065 0.70505 0.0
O1448 O 0.32286 0.60249 0.69495 0.0
C1449 C 0.33202 0.60873 0.69609 0.0
C1450 C 0.33469 0.57225 0.70531 0.0
C1451 C 0.33434 0.61828 0.68834 0.0
C1452 C 0.34552 0.62652 0.67304 0.0
C1453 C 0.34381 0.61797 0.68112 0.0
C1454 C 0.32817 0.6357 0.67917 0.0
C1455 C 0.33752 0.63531 0.6717 0.0
C1456 C 0.32666 0.62733 0.68747 0.0
C1457 C 0.30427 0.5982 0.73606 0.0
C1458 C 0.29313 0.6111 0.74788 0.0
C1459 C 0.28801 0.59129 0.74668 0.0
C1460 C 0.29737 0.58924 0.73964 0.0
C1461 C 0.28544 0.60232 0.75057 0.0
C1462 C 0.30225 0.60912 0.74042 0.0
C1463 C 0.31249 0.59643 0.72674 0.0
O1464 O 0.32503 0.57612 0.70133 0.0
O1465 O 0.33971 0.57895 0.71271 0.0
O1466 O 0.32354 0.59758 0.72807 0.0
O1467 O 0.30922 0.59278 0.71673 0.0
H1468 H 0.32862 0.55533 0.72046 0.0
H1469 H 0.32936 0.53473 0.71661 0.0
H1470 H 0.34635 0.54116 0.68488 0.0
H1471 H 0.3457 0.56158 0.68872 0.0
H1472 H 0.35286 0.62605 0.66751 0.0
H1473 H 0.34978 0.61099 0.68158 0.0
H1474 H 0.32195 0.64244 0.67848 0.0
H1475 H 0.31932 0.62776 0.693 0.0
H1476 H 0.29182 0.61959 0.75117 0.0
H1477 H 0.28255 0.58422 0.74888 0.0
H1478 H 0.29888 0.58071 0.73654 0.0
H1479 H 0.30751 0.61619 0.73778 0.0
C1480 C 0.46671 0.83591 0.20648 0.0
C1481 C 0.47447 0.83371 0.21525 0.0
C1482 C 0.49027 0.83659 0.2021 0.0
C1483 C 0.48622 0.83427 0.21311 0.0
C1484 C 0.48245 0.83963 0.19366 0.0
C1485 C 0.4708 0.83939 0.19587 0.0
U1486 U 0.43404 0.82586 0.21186 0.0
O1487 O 0.42456 0.82252 0.19607 0.0
O1488 O 0.41955 0.83697 0.20713 0.0
C1489 C 0.41767 0.8311 0.19781 0.0
C1490 C 0.4545 0.83324 0.20731 0.0
C1491 C 0.40883 0.83416 0.18946 0.0
C1492 C 0.40322 0.83795 0.16993 0.0
C1493 C 0.41171 0.83681 0.17821 0.0
C1494 C 0.38883 0.83486 0.18426 0.0
C1495 C 0.39165 0.83679 0.17279 0.0
C1496 C 0.39733 0.83332 0.19243 0.0
C1497 C 0.42746 0.80342 0.23745 0.0
C1498 C 0.41479 0.78891 0.24494 0.0
C1499 C 0.43388 0.7907 0.25237 0.0
C1500 C 0.43586 0.79986 0.24509 0.0
C1501 C 0.4235 0.7848 0.25199 0.0
C1502 C 0.41676 0.79817 0.23771 0.0
C1503 C 0.43053 0.81162 0.22849 0.0
O1504 O 0.45054 0.82363 0.20328 0.0
O1505 O 0.4477 0.83859 0.21438 0.0
O1506 O 0.42959 0.82266 0.22988 0.0
O1507 O 0.43304 0.80826 0.21816 0.0
H1508 H 0.47149 0.83098 0.22349 0.0
H1509 H 0.49212 0.83193 0.21976 0.0
H1510 H 0.48532 0.8415 0.18513 0.0
H1511 H 0.46494 0.84117 0.18901 0.0
H1512 H 0.40569 0.83948 0.16122 0.0
H1513 H 0.42054 0.83755 0.17574 0.0
H1514 H 0.38002 0.83393 0.18675 0.0
H1515 H 0.39492 0.83113 0.20102 0.0
H1516 H 0.40671 0.78454 0.24455 0.0
H1517 H 0.44073 0.78769 0.25771 0.0
H1518 H 0.44419 0.80378 0.24501 0.0
H1519 H 0.41014 0.80084 0.23191 0.0
C1520 C 0.19317 0.96438 0.70379 0.0
C1521 C 0.19762 0.97196 0.71174 0.0
C1522 C 0.19238 0.98828 0.69959 0.0
C1523 C 0.19746 0.98368 0.70956 0.0
C1524 C 0.18866 0.98023 0.69146 0.0
C1525 C 0.18867 0.96862 0.69371 0.0
U1526 U 0.2017 0.93183 0.71051 0.0
O1527 O 0.1901 0.91802 0.70526 0.0
O1528 O 0.20607 0.9212 0.69566 0.0
C1529 C 0.19663 0.91538 0.69658 0.0
C1530 C 0.19476 0.95203 0.70448 0.0
C1531 C 0.19377 0.9061 0.68873 0.0
C1532 C 0.18359 0.89929 0.67209 0.0
C1533 C 0.18534 0.90758 0.68045 0.0
C1534 C 0.19871 0.88797 0.68024 0.0
C1535 C 0.19051 0.88956 0.67171 0.0
C1536 C 0.2003 0.89616 0.68869 0.0
C1537 C 0.22293 0.92543 0.73707 0.0
C1538 C 0.23831 0.91324 0.74354 0.0
C1539 C 0.23512 0.93139 0.75265 0.0
C1540 C 0.22586 0.93333 0.74548 0.0
C1541 C 0.24186 0.92163 0.75129 0.0
C1542 C 0.22888 0.91512 0.73647 0.0
C1543 C 0.21501 0.92907 0.72807 0.0
O1544 O 0.20447 0.94768 0.70118 0.0
O1545 O 0.18912 0.9458 0.71182 0.0
O1546 O 0.20392 0.9279 0.72885 0.0
O1547 O 0.21886 0.93117 0.71783 0.0
H1548 H 0.20171 0.96883 0.71934 0.0
H1549 H 0.20196 0.98894 0.71556 0.0
H1550 H 0.18635 0.98249 0.68294 0.0
H1551 H 0.18578 0.96284 0.68715 0.0
H1552 H 0.1772 0.90067 0.66563 0.0
H1553 H 0.18033 0.91529 0.68025 0.0
H1554 H 0.20405 0.88049 0.68018 0.0
H1555 H 0.20687 0.8949 0.695 0.0
H1556 H 0.24326 0.90556 0.74247 0.0
H1557 H 0.23762 0.93794 0.7586 0.0
H1558 H 0.22141 0.94137 0.74605 0.0
H1559 H 0.22671 0.90887 0.73008 0.0
C1560 C 0.06172 0.69085 0.20584 0.0
C1561 C 0.05437 0.69825 0.21157 0.0
C1562 C 0.03817 0.69065 0.20092 0.0
C1563 C 0.04271 0.6982 0.20907 0.0
C1564 C 0.04544 0.68242 0.19621 0.0
C1565 C 0.05713 0.68276 0.19839 0.0
U1566 U 0.09437 0.7002 0.21112 0.0
O1567 O 0.10855 0.6889 0.20613 0.0
O1568 O 0.10454 0.70417 0.19584 0.0
C1569 C 0.11085 0.69509 0.19715 0.0
C1570 C 0.07416 0.69243 0.20581 0.0
C1571 C 0.12019 0.69225 0.1893 0.0
C1572 C 0.12667 0.68359 0.17167 0.0
C1573 C 0.1182 0.6852 0.17989 0.0
C1574 C 0.13932 0.6958 0.18236 0.0
C1575 C 0.13723 0.68904 0.17275 0.0
C1576 C 0.13085 0.69741 0.19056 0.0
C1577 C 0.10006 0.72222 0.23744 0.0
C1578 C 0.11309 0.73471 0.2476 0.0
C1579 C 0.0928 0.73713 0.24977 0.0
C1580 C 0.09092 0.72777 0.24266 0.0
C1581 C 0.10389 0.74107 0.25189 0.0
C1582 C 0.11119 0.72553 0.24021 0.0
C1583 C 0.09789 0.71428 0.22795 0.0
O1584 O 0.07819 0.70213 0.20214 0.0
O1585 O 0.08078 0.68723 0.21314 0.0
O1586 O 0.09899 0.70323 0.22909 0.0
O1587 O 0.09475 0.71776 0.21785 0.0
H1588 H 0.05771 0.70449 0.21745 0.0
H1589 H 0.03727 0.70437 0.2132 0.0
H1590 H 0.04218 0.67613 0.19035 0.0
H1591 H 0.06266 0.67695 0.19386 0.0
H1592 H 0.12486 0.67845 0.16426 0.0
H1593 H 0.10998 0.68124 0.17871 0.0
H1594 H 0.14737 0.70016 0.18328 0.0
H1595 H 0.1325 0.70297 0.19771 0.0
H1596 H 0.12173 0.73733 0.24937 0.0
H1597 H 0.08555 0.74161 0.25323 0.0
H1598 H 0.08227 0.72528 0.24074 0.0
H1599 H 0.11839 0.72135 0.23628 0.0
C1600 C 0.82171 0.33666 0.96484 0.0
C1601 C 0.81264 0.3367 0.97256 0.0
C1602 C 0.82601 0.3377 0.98841 0.0
C1603 C 0.81476 0.33757 0.98427 0.0
C1604 C 0.83493 0.33876 0.98055 0.0
C1605 C 0.83278 0.33836 0.96889 0.0
U1606 U 0.81549 0.32639 0.93228 0.0
O1607 O 0.82081 0.33791 0.91843 0.0
O1608 O 0.83083 0.32237 0.92219 0.0
C1609 C 0.82974 0.3316 0.9161 0.0
C1610 C 0.82017 0.33326 0.95287 0.0
C1611 C 0.83758 0.33429 0.90672 0.0
C1612 C 0.85523 0.34284 0.90017 0.0
C1613 C 0.84703 0.34131 0.90865 0.0
C1614 C 0.84448 0.3306 0.8876 0.0
C1615 C 0.8541 0.33735 0.88964 0.0
C1616 C 0.83629 0.32905 0.8961 0.0
C1617 C 0.78923 0.30469 0.92558 0.0
C1618 C 0.78262 0.28928 0.91345 0.0
C1619 C 0.77369 0.2925 0.93167 0.0
C1620 C 0.7809 0.30177 0.93357 0.0
C1621 C 0.77492 0.28575 0.92188 0.0
C1622 C 0.78971 0.2987 0.91527 0.0
C1623 C 0.79827 0.31274 0.92894 0.0
O1624 O 0.82425 0.32375 0.94873 0.0
O1625 O 0.81334 0.33889 0.94609 0.0
O1626 O 0.7973 0.3238 0.92782 0.0
O1627 O 0.80852 0.30908 0.93134 0.0
H1628 H 0.80401 0.33541 0.96962 0.0
H1629 H 0.80769 0.33694 0.99012 0.0
H1630 H 0.84367 0.33907 0.98343 0.0
H1631 H 0.83988 0.33853 0.96304 0.0
H1632 H 0.86266 0.34796 0.90194 0.0
H1633 H 0.84824 0.34531 0.91684 0.0
H1634 H 0.84352 0.3262 0.87958 0.0
H1635 H 0.82913 0.32351 0.8945 0.0
H1636 H 0.78361 0.28434 0.90575 0.0
H1637 H 0.76777 0.29003 0.93826 0.0
H1638 H 0.7804 0.30625 0.94159 0.0
H1639 H 0.79602 0.30088 0.90895 0.0
C1640 C 0.82096 0.19108 0.5602 0.0
C1641 C 0.81416 0.19742 0.55279 0.0
C1642 C 0.82567 0.19104 0.53668 0.0
C1643 C 0.81651 0.1974 0.54109 0.0
C1644 C 0.83159 0.18377 0.54402 0.0
C1645 C 0.82942 0.18399 0.55569 0.0
U1646 U 0.81597 0.20082 0.59281 0.0
O1647 O 0.82093 0.18951 0.60695 0.0
O1648 O 0.83143 0.20462 0.6028 0.0
C1649 C 0.83001 0.19562 0.60917 0.0
C1650 C 0.82093 0.19289 0.57259 0.0
C1651 C 0.83781 0.19283 0.61854 0.0
C1652 C 0.85541 0.18419 0.6251 0.0
C1653 C 0.84724 0.18578 0.6166 0.0
C1654 C 0.84465 0.19641 0.63769 0.0
C1655 C 0.85428 0.18965 0.63564 0.0
C1656 C 0.83649 0.198 0.62918 0.0
C1657 C 0.79011 0.22335 0.59849 0.0
C1658 C 0.77821 0.23451 0.61129 0.0
C1659 C 0.77951 0.23956 0.59148 0.0
C1660 C 0.78658 0.23021 0.58949 0.0
C1661 C 0.77556 0.24216 0.60249 0.0
C1662 C 0.78569 0.22539 0.60938 0.0
C1663 C 0.79944 0.21511 0.59679 0.0
O1664 O 0.82485 0.20254 0.57654 0.0
O1665 O 0.81352 0.18786 0.57926 0.0
O1666 O 0.79807 0.20408 0.59786 0.0
O1667 O 0.80948 0.21837 0.59319 0.0
H1668 H 0.80752 0.20286 0.55608 0.0
H1669 H 0.81155 0.20279 0.53555 0.0
H1670 H 0.83844 0.17852 0.54083 0.0
H1671 H 0.83478 0.17903 0.56127 0.0
H1672 H 0.86284 0.17906 0.62331 0.0
H1673 H 0.84846 0.18181 0.60839 0.0
H1674 H 0.84368 0.20077 0.64573 0.0
H1675 H 0.82933 0.20355 0.6308 0.0
H1676 H 0.77487 0.23585 0.61975 0.0
H1677 H 0.77735 0.24498 0.58439 0.0
H1678 H 0.78973 0.22867 0.58099 0.0
H1679 H 0.78828 0.22017 0.61647 0.0
C1680 C 0.83503 0.32279 0.06141 0.0
C1681 C 0.83564 0.31345 0.05407 0.0
C1682 C 0.83644 0.32618 0.03755 0.0
C1683 C 0.83686 0.31516 0.04233 0.0
C1684 C 0.83643 0.33542 0.04517 0.0
C1685 C 0.83609 0.33371 0.05689 0.0
U1686 U 0.82577 0.31603 0.09395 0.0
O1687 O 0.83725 0.32074 0.1082 0.0
O1688 O 0.82193 0.33108 0.10434 0.0
C1689 C 0.83092 0.32957 0.11076 0.0
C1690 C 0.83291 0.32185 0.07372 0.0
C1691 C 0.8341 0.33807 0.11939 0.0
C1692 C 0.83806 0.35757 0.12497 0.0
C1693 C 0.83657 0.34934 0.11647 0.0
C1694 C 0.83583 0.3431 0.13933 0.0
C1695 C 0.83744 0.3546 0.13654 0.0
C1696 C 0.83387 0.335 0.13086 0.0
C1697 C 0.8044 0.28953 0.10055 0.0
C1698 C 0.78912 0.28292 0.11286 0.0
C1699 C 0.79226 0.27383 0.0947 0.0
C1700 C 0.80147 0.28107 0.09269 0.0
C1701 C 0.78555 0.27514 0.1045 0.0
C1702 C 0.7985 0.29006 0.11091 0.0
C1703 C 0.81233 0.29855 0.09689 0.0
O1704 O 0.8232 0.32533 0.07796 0.0
O1705 O 0.83841 0.3145 0.08007 0.0
O1706 O 0.82343 0.29771 0.09792 0.0
O1707 O 0.80855 0.30881 0.09475 0.0
H1708 H 0.83521 0.3049 0.05738 0.0
H1709 H 0.83819 0.30777 0.03712 0.0
H1710 H 0.83624 0.34406 0.04209 0.0
H1711 H 0.83598 0.34105 0.06245 0.0
H1712 H 0.83939 0.36632 0.12252 0.0
H1713 H 0.83691 0.35186 0.10764 0.0
H1714 H 0.83539 0.34051 0.14813 0.0
H1715 H 0.8319 0.32637 0.13328 0.0
H1716 H 0.78423 0.28395 0.12058 0.0
H1717 H 0.78977 0.26786 0.08816 0.0
H1718 H 0.80589 0.28051 0.08464 0.0
H1719 H 0.80068 0.29644 0.11716 0.0
C1720 C 0.70578 0.33544 0.56022 0.0
C1721 C 0.71178 0.32832 0.55279 0.0
C1722 C 0.70085 0.33567 0.5367 0.0
C1723 C 0.70928 0.32839 0.54113 0.0
C1724 C 0.69587 0.34366 0.54405 0.0
C1725 C 0.69807 0.34331 0.55571 0.0
U1726 U 0.711 0.32612 0.59288 0.0
O1727 O 0.70618 0.3374 0.60725 0.0
O1728 O 0.69567 0.32233 0.60292 0.0
C1729 C 0.69718 0.3312 0.60951 0.0
C1730 C 0.70575 0.33375 0.57264 0.0
C1731 C 0.68874 0.33427 0.61828 0.0
C1732 C 0.66929 0.33859 0.62393 0.0
C1733 C 0.67751 0.33711 0.61541 0.0
C1734 C 0.68369 0.33555 0.63826 0.0
C1735 C 0.67222 0.33756 0.63549 0.0
C1736 C 0.69178 0.33365 0.62975 0.0
C1737 C 0.73739 0.30462 0.59963 0.0
C1738 C 0.74392 0.28937 0.61197 0.0
C1739 C 0.75306 0.29241 0.59384 0.0
C1740 C 0.74585 0.30163 0.5918 0.0
C1741 C 0.75171 0.28575 0.60363 0.0
C1742 C 0.73681 0.29876 0.60999 0.0
C1743 C 0.72841 0.31261 0.59594 0.0
O1744 O 0.70224 0.32396 0.5766 0.0
O1745 O 0.71284 0.33917 0.57936 0.0
O1746 O 0.72926 0.32367 0.59717 0.0
O1747 O 0.71817 0.30888 0.59354 0.0
H1748 H 0.71787 0.32226 0.55605 0.0
H1749 H 0.71361 0.32243 0.53562 0.0
H1750 H 0.68974 0.34972 0.54087 0.0
H1751 H 0.69335 0.3489 0.5613 0.0
H1752 H 0.66058 0.34023 0.6215 0.0
H1753 H 0.67502 0.33777 0.60659 0.0
H1754 H 0.68624 0.33477 0.64705 0.0
H1755 H 0.70038 0.33142 0.63214 0.0
H1756 H 0.74285 0.28451 0.61968 0.0
H1757 H 0.75904 0.28988 0.58732 0.0
H1758 H 0.74645 0.30602 0.58375 0.0
H1759 H 0.73041 0.301 0.61622 0.0
C1760 C 0.69065 0.20587 0.06108 0.0
C1761 C 0.69634 0.21316 0.05359 0.0
C1762 C 0.69052 0.2013 0.03756 0.0
C1763 C 0.69625 0.21088 0.04187 0.0
C1764 C 0.68387 0.19479 0.04499 0.0
C1765 C 0.68411 0.19695 0.05665 0.0
U1766 U 0.70057 0.21083 0.09367 0.0
O1767 O 0.68926 0.20585 0.10784 0.0
O1768 O 0.70434 0.19534 0.10356 0.0
C1769 C 0.69533 0.19673 0.10996 0.0
C1770 C 0.69262 0.20599 0.07345 0.0
C1771 C 0.69258 0.18895 0.11938 0.0
C1772 C 0.68426 0.17121 0.12595 0.0
C1773 C 0.68576 0.17937 0.11743 0.0
C1774 C 0.69602 0.18235 0.13863 0.0
C1775 C 0.68952 0.17255 0.13657 0.0
C1776 C 0.69757 0.19046 0.13008 0.0
C1777 C 0.72315 0.23665 0.09933 0.0
C1778 C 0.73429 0.24858 0.11211 0.0
C1779 C 0.73935 0.24727 0.09229 0.0
C1780 C 0.73001 0.24019 0.09031 0.0
C1781 C 0.74194 0.25123 0.10329 0.0
C1782 C 0.72518 0.24109 0.11022 0.0
C1783 C 0.71489 0.22734 0.09764 0.0
O1784 O 0.70228 0.20202 0.07733 0.0
O1785 O 0.6876 0.21337 0.08018 0.0
O1786 O 0.70385 0.2287 0.09878 0.0
O1787 O 0.71815 0.2173 0.09402 0.0
H1788 H 0.70136 0.22014 0.05683 0.0
H1789 H 0.70117 0.21622 0.03625 0.0
H1790 H 0.6792 0.18752 0.04186 0.0
H1791 H 0.67967 0.19122 0.0623 0.0
H1792 H 0.67931 0.16368 0.12415 0.0
H1793 H 0.68191 0.178 0.10919 0.0
H1794 H 0.70026 0.18349 0.1467 0.0
H1795 H 0.70295 0.19774 0.13171 0.0
H1796 H 0.73562 0.25192 0.12058 0.0
H1797 H 0.74478 0.24944 0.08519 0.0
H1798 H 0.72847 0.23704 0.08181 0.0
H1799 H 0.71995 0.23849 0.11731 0.0
C1800 C 0.70543 0.19044 0.96562 0.0
C1801 C 0.71347 0.19461 0.97336 0.0
C1802 C 0.70089 0.18973 0.9891 0.0
C1803 C 0.71123 0.1942 0.98508 0.0
C1804 C 0.69331 0.18479 0.98137 0.0
C1805 C 0.69557 0.18516 0.96974 0.0
U1806 U 0.71066 0.2008 0.93316 0.0
O1807 O 0.70591 0.18965 0.91872 0.0
O1808 O 0.69501 0.20431 0.92347 0.0
C1809 C 0.6967 0.19561 0.9167 0.0
C1810 C 0.70593 0.19285 0.95335 0.0
C1811 C 0.6885 0.19261 0.90772 0.0
C1812 C 0.66913 0.18842 0.90179 0.0
C1813 C 0.67723 0.18982 0.91041 0.0
C1814 C 0.68374 0.19149 0.88767 0.0
C1815 C 0.67222 0.18949 0.89028 0.0
C1816 C 0.69172 0.1933 0.8963 0.0
C1817 C 0.73638 0.22343 0.92728 0.0
C1818 C 0.7482 0.23453 0.91438 0.0
C1819 C 0.74704 0.23969 0.9342 0.0
C1820 C 0.73999 0.23035 0.93624 0.0
C1821 C 0.75092 0.24223 0.92317 0.0
C1822 C 0.74073 0.22542 0.91636 0.0
C1823 C 0.7271 0.21517 0.9291 0.0
O1824 O 0.70192 0.20251 0.94956 0.0
O1825 O 0.71328 0.18783 0.94658 0.0
O1826 O 0.72851 0.20415 0.92802 0.0
O1827 O 0.71707 0.21839 0.93277 0.0
H1828 H 0.72111 0.19874 0.97036 0.0
H1829 H 0.71718 0.19805 0.99094 0.0
H1830 H 0.68529 0.18136 0.98429 0.0
H1831 H 0.68923 0.18193 0.9639 0.0
H1832 H 0.66038 0.1868 0.9041 0.0
H1833 H 0.6746 0.18913 0.91919 0.0
H1834 H 0.68641 0.19231 0.87891 0.0
H1835 H 0.70036 0.19554 0.89404 0.0
H1836 H 0.75149 0.23581 0.9059 0.0
H1837 H 0.74926 0.24514 0.94127 0.0
H1838 H 0.73691 0.22886 0.94477 0.0
H1839 H 0.7381 0.22015 0.90929 0.0
C1840 C 0.83638 0.20541 0.46621 0.0
C1841 C 0.83256 0.21365 0.47393 0.0
C1842 C 0.83716 0.20105 0.48971 0.0
C1843 C 0.83303 0.2115 0.48565 0.0
C1844 C 0.84171 0.19322 0.48198 0.0
C1845 C 0.84134 0.19541 0.47034 0.0
U1846 U 0.82613 0.21099 0.43377 0.0
O1847 O 0.83745 0.20602 0.41959 0.0
O1848 O 0.82229 0.19558 0.42374 0.0
C1849 C 0.8313 0.19698 0.41736 0.0
C1850 C 0.83404 0.20599 0.45393 0.0
C1851 C 0.83408 0.18918 0.40798 0.0
C1852 C 0.84303 0.17178 0.40133 0.0
C1853 C 0.84142 0.17998 0.40981 0.0
C1854 C 0.83016 0.18202 0.38901 0.0
C1855 C 0.8372 0.1726 0.39096 0.0
C1856 C 0.82861 0.19025 0.39747 0.0
C1857 C 0.80349 0.23673 0.42807 0.0
C1858 C 0.79238 0.24851 0.41517 0.0
C1859 C 0.78723 0.24739 0.43498 0.0
C1860 C 0.79658 0.24035 0.43703 0.0
C1861 C 0.78469 0.25125 0.42395 0.0
C1862 C 0.80149 0.24104 0.41714 0.0
C1863 C 0.81174 0.22744 0.42989 0.0
O1864 O 0.82438 0.20203 0.45002 0.0
O1865 O 0.83905 0.21344 0.4473 0.0
O1866 O 0.82278 0.22883 0.42878 0.0
O1867 O 0.80851 0.21741 0.43347 0.0
H1868 H 0.82869 0.22141 0.47091 0.0
H1869 H 0.82944 0.21762 0.49151 0.0
H1870 H 0.84488 0.18511 0.48491 0.0
H1871 H 0.84431 0.18894 0.46451 0.0
H1872 H 0.84845 0.16455 0.40301 0.0
H1873 H 0.84563 0.17895 0.41792 0.0
H1874 H 0.82559 0.1828 0.38108 0.0
H1875 H 0.82286 0.19726 0.39594 0.0
H1876 H 0.79109 0.25178 0.40669 0.0
H1877 H 0.78177 0.24961 0.44204 0.0
H1878 H 0.79807 0.23728 0.44555 0.0
H1879 H 0.80676 0.23838 0.41008 0.0
C1880 C 0.6905 0.32171 0.46596 0.0
C1881 C 0.69363 0.31324 0.47371 0.0
C1882 C 0.68958 0.32615 0.48947 0.0
C1883 C 0.69302 0.31541 0.48544 0.0
C1884 C 0.68567 0.33422 0.48169 0.0
C1885 C 0.68608 0.33198 0.47005 0.0
U1886 U 0.70048 0.31572 0.43344 0.0
O1887 O 0.68912 0.32082 0.41938 0.0
O1888 O 0.70455 0.33098 0.42332 0.0
C1889 C 0.69539 0.32977 0.4171 0.0
C1890 C 0.69295 0.32096 0.45371 0.0
C1891 C 0.69255 0.33765 0.40783 0.0
C1892 C 0.68452 0.3556 0.4015 0.0
C1893 C 0.68603 0.34741 0.40998 0.0
C1894 C 0.69559 0.34411 0.3885 0.0
C1895 C 0.68944 0.35409 0.39073 0.0
C1896 C 0.6972 0.336 0.39701 0.0
C1897 C 0.72219 0.28949 0.42676 0.0
C1898 C 0.73752 0.28298 0.41445 0.0
C1899 C 0.73444 0.27391 0.43258 0.0
C1900 C 0.72518 0.28109 0.43462 0.0
C1901 C 0.74113 0.27522 0.42278 0.0
C1902 C 0.7281 0.29007 0.41642 0.0
C1903 C 0.71412 0.29842 0.43039 0.0
O1904 O 0.70272 0.3246 0.44976 0.0
O1905 O 0.68758 0.3138 0.44703 0.0
O1906 O 0.70306 0.29751 0.4291 0.0
O1907 O 0.71779 0.30867 0.4328 0.0
H1908 H 0.69706 0.30525 0.47073 0.0
H1909 H 0.69609 0.30907 0.49132 0.0
H1910 H 0.68298 0.34253 0.48458 0.0
H1911 H 0.68358 0.3386 0.46419 0.0
H1912 H 0.67984 0.36328 0.40344 0.0
H1913 H 0.68245 0.34887 0.41832 0.0
H1914 H 0.69956 0.34285 0.3803 0.0
H1915 H 0.70236 0.32859 0.39524 0.0
H1916 H 0.74241 0.28404 0.40674 0.0
H1917 H 0.73696 0.26795 0.4391 0.0
H1918 H 0.72077 0.28051 0.44266 0.0
H1919 H 0.72587 0.29643 0.41019 0.0
C1920 C 0.1125 0.26034 0.77202 0.0
C1921 C 0.10578 0.27031 0.77241 0.0
C1922 C 0.10055 0.26777 0.75242 0.0
C1923 C 0.10629 0.25717 0.75223 0.0
N1924 N 0.11975 0.24441 0.76105 0.0
N1925 N 0.09299 0.28347 0.76338 0.0
C1926 C 0.11298 0.2538 0.76176 0.0
C1927 C 0.09975 0.27404 0.76269 0.0
N1928 N 0.11794 0.25686 0.78167 0.0
N1929 N 0.0963 0.27208 0.74253 0.0
H1930 H 0.09288 0.28892 0.77036 0.0
H1931 H 0.087 0.28564 0.75726 0.0
H1932 H 0.09727 0.26794 0.73475 0.0
H1933 H 0.09291 0.28019 0.74173 0.0
H1934 H 0.12241 0.24931 0.78249 0.0
H1935 H 0.11764 0.26142 0.78925 0.0
H1936 H 0.12551 0.24192 0.76724 0.0
H1937 H 0.12003 0.23907 0.75405 0.0
C1938 C 0.75649 0.61338 0.26578 0.0
C1939 C 0.75737 0.60456 0.27395 0.0
C1940 C 0.77245 0.59582 0.26231 0.0
C1941 C 0.76987 0.60338 0.25333 0.0
N1942 N 0.75884 0.61904 0.24619 0.0
N1943 N 0.77105 0.59199 0.28238 0.0
C1944 C 0.76166 0.61203 0.25494 0.0
C1945 C 0.76675 0.59701 0.27288 0.0
N1946 N 0.75302 0.62389 0.26905 0.0
N1947 N 0.78033 0.58742 0.26082 0.0
H1948 H 0.76791 0.59386 0.29046 0.0
H1949 H 0.7785 0.58723 0.2825 0.0
H1950 H 0.78577 0.58696 0.25386 0.0
H1951 H 0.7811 0.58056 0.26631 0.0
H1952 H 0.75229 0.63072 0.26351 0.0
H1953 H 0.75393 0.62643 0.27747 0.0
H1954 H 0.75208 0.62474 0.24663 0.0
H1955 H 0.76258 0.61844 0.23818 0.0
C1956 C 0.43366 0.26352 0.76903 0.0
C1957 C 0.42388 0.25878 0.77399 0.0
C1958 C 0.41347 0.26515 0.75687 0.0
C1959 C 0.42403 0.26793 0.75156 0.0
N1960 N 0.44323 0.26046 0.75181 0.0
N1961 N 0.40352 0.26055 0.7744 0.0
C1962 C 0.43402 0.26466 0.75731 0.0
C1963 C 0.41338 0.26099 0.76835 0.0
N1964 N 0.44177 0.26876 0.7753 0.0
N1965 N 0.40374 0.26544 0.7506 0.0
H1966 H 0.40353 0.25912 0.78314 0.0
H1967 H 0.39566 0.26302 0.7712 0.0
H1968 H 0.40386 0.2673 0.74195 0.0
H1969 H 0.39592 0.26257 0.75354 0.0
H1970 H 0.44889 0.27243 0.77148 0.0
H1971 H 0.44033 0.27092 0.78378 0.0
H1972 H 0.45058 0.25821 0.75624 0.0
H1973 H 0.44241 0.25677 0.7438 0.0
C1974 C 0.76661 0.92832 0.25422 0.0
C1975 C 0.75723 0.92077 0.25315 0.0
C1976 C 0.76162 0.91321 0.27211 0.0
C1977 C 0.76989 0.92179 0.27371 0.0
N1978 N 0.78022 0.93784 0.26626 0.0
N1979 N 0.75293 0.90141 0.25799 0.0
C1980 C 0.77238 0.92942 0.26475 0.0
C1981 C 0.75639 0.91191 0.26129 0.0
N1982 N 0.77086 0.9334 0.24472 0.0
N1983 N 0.75878 0.9062 0.28086 0.0
H1984 H 0.75386 0.89891 0.24956 0.0
H1985 H 0.75224 0.89456 0.26351 0.0
H1986 H 0.7626 0.90673 0.28883 0.0
H1987 H 0.75197 0.90056 0.28042 0.0
H1988 H 0.7783 0.93817 0.2446 0.0
H1989 H 0.76771 0.93157 0.23664 0.0
H1990 H 0.78094 0.94476 0.26082 0.0
H1991 H 0.7857 0.93826 0.27319 0.0
C1992 C 0.76566 0.11424 0.27055 0.0
C1993 C 0.77384 0.10537 0.26974 0.0
C1994 C 0.76227 0.0967 0.25456 0.0
C1995 C 0.75327 0.10433 0.25704 0.0
N1996 N 0.74607 0.11999 0.26808 0.0
N1997 N 0.78233 0.09275 0.2561 0.0
C1998 C 0.75485 0.11295 0.26529 0.0
C1999 C 0.7728 0.09782 0.26035 0.0
N2000 N 0.76894 0.12474 0.27403 0.0
N2001 N 0.7608 0.08828 0.2467 0.0
H2002 H 0.79041 0.09459 0.25927 0.0
H2003 H 0.78248 0.08799 0.24865 0.0
H2004 H 0.75388 0.08786 0.2412 0.0
H2005 H 0.76627 0.08137 0.24598 0.0
H2006 H 0.7634 0.13161 0.27469 0.0
H2007 H 0.77738 0.12723 0.27321 0.0
H2008 H 0.74647 0.12566 0.27487 0.0
H2009 H 0.73809 0.11945 0.26426 0.0
C2010 C 0.92731 0.26368 0.77369 0.0
C2011 C 0.9215 0.27348 0.76984 0.0
C2012 C 0.91491 0.26312 0.75295 0.0
C2013 C 0.92129 0.25348 0.75651 0.0
N2014 N 0.93065 0.24351 0.77165 0.0
N2015 N 0.91015 0.28303 0.75586 0.0
C2016 C 0.92666 0.25349 0.76729 0.0
C2017 C 0.9152 0.27327 0.75959 0.0
N2018 N 0.93375 0.26422 0.78334 0.0
N2019 N 0.90857 0.26259 0.74325 0.0
H2020 H 0.91015 0.29053 0.76057 0.0
H2021 H 0.90645 0.28399 0.74792 0.0
H2022 H 0.90899 0.25593 0.73747 0.0
H2023 H 0.90246 0.26856 0.74104 0.0
H2024 H 0.9396 0.25802 0.78566 0.0
H2025 H 0.93373 0.27115 0.78885 0.0
H2026 H 0.93367 0.2426 0.77989 0.0
H2027 H 0.92984 0.23578 0.76739 0.0
C2028 C 0.76544 0.41288 0.25685 0.0
C2029 C 0.7736 0.42173 0.25771 0.0
C2030 C 0.76199 0.43042 0.27283 0.0
C2031 C 0.753 0.42279 0.27032 0.0
N2032 N 0.74584 0.40715 0.25923 0.0
N2033 N 0.78207 0.43433 0.27137 0.0
C2034 C 0.7546 0.41418 0.26206 0.0
C2035 C 0.77255 0.42928 0.26709 0.0
N2036 N 0.76873 0.40237 0.25338 0.0
N2037 N 0.76051 0.43883 0.2807 0.0
H2038 H 0.79015 0.43249 0.2682 0.0
H2039 H 0.78221 0.43908 0.27882 0.0
H2040 H 0.75358 0.43926 0.28618 0.0
H2041 H 0.76599 0.44573 0.28144 0.0
H2042 H 0.76319 0.39552 0.25265 0.0
H2043 H 0.77717 0.39987 0.25429 0.0
H2044 H 0.74627 0.40148 0.25244 0.0
H2045 H 0.73784 0.40771 0.263 0.0
C2046 C 0.61206 0.25455 0.75996 0.0
C2047 C 0.60453 0.25379 0.7693 0.0
C2048 C 0.59899 0.27369 0.76665 0.0
C2049 C 0.60574 0.27429 0.75664 0.0
N2050 N 0.62208 0.26657 0.74677 0.0
N2051 N 0.59042 0.2623 0.78146 0.0
C2052 C 0.61325 0.26508 0.7541 0.0
C2053 C 0.59792 0.26329 0.77264 0.0
N2054 N 0.61808 0.24514 0.75674 0.0
N2055 N 0.5942 0.28341 0.77084 0.0
H2056 H 0.59014 0.25531 0.78686 0.0
H2057 H 0.58404 0.26818 0.78315 0.0
H2058 H 0.59556 0.2913 0.76707 0.0
H2059 H 0.59003 0.28395 0.7786 0.0
H2060 H 0.6231 0.24458 0.74951 0.0
H2061 H 0.61753 0.23741 0.76101 0.0
H2062 H 0.62733 0.26016 0.74377 0.0
H2063 H 0.62549 0.27441 0.74495 0.0
C2064 C 0.2711 0.76498 0.11418 0.0
C2065 C 0.27022 0.77313 0.10533 0.0
C2066 C 0.25511 0.7615 0.09666 0.0
C2067 C 0.25767 0.75252 0.10423 0.0
N2068 N 0.2687 0.74541 0.11991 0.0
N2069 N 0.25651 0.78156 0.09281 0.0
C2070 C 0.26589 0.75415 0.11287 0.0
C2071 C 0.26082 0.77205 0.09781 0.0
N2072 N 0.27457 0.76827 0.12468 0.0
N2073 N 0.24721 0.76001 0.08828 0.0
H2074 H 0.25966 0.78963 0.09466 0.0
H2075 H 0.24904 0.78168 0.08808 0.0
H2076 H 0.24176 0.75307 0.08784 0.0
H2077 H 0.24643 0.76549 0.0814 0.0
H2078 H 0.27527 0.76275 0.13153 0.0
H2079 H 0.27372 0.77671 0.12718 0.0
H2080 H 0.27546 0.74586 0.1256 0.0
H2081 H 0.26493 0.73742 0.11934 0.0
C2082 C 0.26072 0.75345 0.42931 0.0
C2083 C 0.27006 0.7524 0.42171 0.0
C2084 C 0.26574 0.77139 0.41428 0.0
C2085 C 0.25755 0.77299 0.42294 0.0
N2086 N 0.24713 0.76547 0.43892 0.0
N2087 N 0.27427 0.7573 0.40234 0.0
C2088 C 0.25501 0.764 0.43052 0.0
C2089 C 0.2709 0.76057 0.41289 0.0
N2090 N 0.25646 0.74394 0.43435 0.0
N2091 N 0.26855 0.78016 0.40727 0.0
H2092 H 0.27328 0.74889 0.39981 0.0
H2093 H 0.27497 0.76284 0.39551 0.0
H2094 H 0.26481 0.78816 0.40789 0.0
H2095 H 0.27529 0.77971 0.40155 0.0
H2096 H 0.24904 0.74381 0.43916 0.0
H2097 H 0.25959 0.73587 0.43246 0.0
H2098 H 0.24638 0.75998 0.44579 0.0
H2099 H 0.24167 0.77241 0.43938 0.0
C2100 C 0.26173 0.75597 0.91197 0.0
C2101 C 0.25357 0.75688 0.92083 0.0
C2102 C 0.2652 0.77201 0.92945 0.0
C2103 C 0.27418 0.76946 0.92182 0.0
N2104 N 0.28134 0.75828 0.90624 0.0
N2105 N 0.24513 0.77053 0.93348 0.0
C2106 C 0.27257 0.76117 0.91325 0.0
C2107 C 0.25464 0.76628 0.92836 0.0
N2108 N 0.25844 0.75245 0.90149 0.0
N2109 N 0.26673 0.77985 0.93788 0.0
H2110 H 0.23705 0.76734 0.93171 0.0
H2111 H 0.24501 0.77799 0.93823 0.0
H2112 H 0.27372 0.78525 0.93832 0.0
H2113 H 0.26126 0.78062 0.94479 0.0
H2114 H 0.26399 0.75166 0.89465 0.0
H2115 H 0.25002 0.75339 0.89897 0.0
H2116 H 0.28091 0.75145 0.90062 0.0
H2117 H 0.28933 0.76208 0.90675 0.0
C2118 C 0.26627 0.75592 0.6135 0.0
C2119 C 0.27446 0.75674 0.60466 0.0
C2120 C 0.26283 0.77171 0.59588 0.0
C2121 C 0.25381 0.76913 0.60345 0.0
N2122 N 0.24664 0.75815 0.61912 0.0
N2123 N 0.28292 0.77028 0.59199 0.0
C2124 C 0.25541 0.76098 0.6121 0.0
C2125 C 0.2734 0.76602 0.59705 0.0
N2126 N 0.26956 0.75269 0.62407 0.0
N2127 N 0.26134 0.77958 0.58751 0.0
H2128 H 0.29101 0.76718 0.59388 0.0
H2129 H 0.28305 0.77768 0.58718 0.0
H2130 H 0.25437 0.78501 0.58708 0.0
H2131 H 0.26685 0.78037 0.58063 0.0
H2132 H 0.26399 0.75197 0.6309 0.0
H2133 H 0.27797 0.75379 0.6266 0.0
H2134 H 0.24711 0.75144 0.62484 0.0
H2135 H 0.2386 0.76184 0.6185 0.0
C2136 C 0.92737 0.75734 0.27287 0.0
C2137 C 0.92194 0.76802 0.27423 0.0
C2138 C 0.91505 0.76676 0.2544 0.0
C2139 C 0.92151 0.75671 0.25281 0.0
N2140 N 0.93427 0.74259 0.26031 0.0
N2141 N 0.90909 0.78217 0.26675 0.0
C2142 C 0.92776 0.75205 0.26201 0.0
C2143 C 0.91524 0.77246 0.26516 0.0
N2144 N 0.93149 0.75184 0.28221 0.0
N2145 N 0.90944 0.77132 0.24533 0.0
H2146 H 0.91041 0.78773 0.27349 0.0
H2147 H 0.90247 0.78472 0.2615 0.0
H2148 H 0.90913 0.76737 0.23741 0.0
H2149 H 0.90553 0.77923 0.24533 0.0
H2150 H 0.93451 0.74354 0.28207 0.0
H2151 H 0.93075 0.75509 0.29041 0.0
H2152 H 0.9405 0.73991 0.26598 0.0
H2153 H 0.93387 0.73764 0.25299 0.0
C2154 C 0.25475 0.42986 0.76489 0.0
C2155 C 0.25793 0.42201 0.77346 0.0
C2156 C 0.27223 0.41381 0.76042 0.0
C2157 C 0.26931 0.42206 0.75203 0.0
N2158 N 0.25497 0.43479 0.74501 0.0
N2159 N 0.27 0.40679 0.77973 0.0
C2160 C 0.2598 0.42923 0.75396 0.0
C2161 C 0.26654 0.41384 0.7712 0.0
N2162 N 0.24688 0.43808 0.76717 0.0
N2163 N 0.28045 0.40594 0.7582 0.0
H2164 H 0.26625 0.40675 0.78774 0.0
H2165 H 0.27702 0.40146 0.77925 0.0
H2166 H 0.28638 0.40678 0.75171 0.0
H2167 H 0.28134 0.39841 0.76269 0.0
H2168 H 0.24585 0.44526 0.76213 0.0
H2169 H 0.24164 0.43802 0.7743 0.0
H2170 H 0.24735 0.43925 0.74556 0.0
H2171 H 0.25781 0.43382 0.73668 0.0
C2172 C 0.59895 0.75735 0.25432 0.0
C2173 C 0.60478 0.76781 0.25293 0.0
C2174 C 0.6118 0.76634 0.27269 0.0
C2175 C 0.60496 0.75653 0.27432 0.0
N2176 N 0.59156 0.74294 0.26688 0.0
N2177 N 0.61817 0.78152 0.26033 0.0
C2178 C 0.59844 0.75213 0.26517 0.0
C2179 C 0.61171 0.77203 0.26195 0.0
N2180 N 0.59458 0.75196 0.24501 0.0
N2181 N 0.61766 0.7707 0.28172 0.0
H2182 H 0.61693 0.78714 0.25366 0.0
H2183 H 0.62493 0.78383 0.26552 0.0
H2184 H 0.61785 0.7668 0.28965 0.0
H2185 H 0.62189 0.77844 0.28168 0.0
H2186 H 0.59125 0.74378 0.24516 0.0
H2187 H 0.59544 0.75511 0.23679 0.0
H2188 H 0.58513 0.74057 0.2613 0.0
H2189 H 0.5919 0.73791 0.27413 0.0
C2190 C 0.26147 0.11334 0.77111 0.0
C2191 C 0.27008 0.10519 0.77338 0.0
C2192 C 0.26829 0.09792 0.75385 0.0
C2193 C 0.25878 0.10508 0.75191 0.0
N2194 N 0.24762 0.12121 0.75807 0.0
N2195 N 0.28118 0.08912 0.76708 0.0
C2196 C 0.25583 0.11335 0.76031 0.0
C2197 C 0.2733 0.09732 0.7648 0.0
N2198 N 0.25799 0.12042 0.77964 0.0
N2199 N 0.27316 0.09233 0.74491 0.0
H2200 H 0.28638 0.0892 0.77423 0.0
H2201 H 0.28225 0.08193 0.76202 0.0
H2202 H 0.27034 0.09328 0.73657 0.0
H2203 H 0.28078 0.08789 0.74547 0.0
H2204 H 0.25097 0.12576 0.77915 0.0
H2205 H 0.26172 0.12049 0.78766 0.0
H2206 H 0.24672 0.12876 0.76257 0.0
H2207 H 0.24172 0.12036 0.75157 0.0
C2208 C 0.25569 0.91288 0.76538 0.0
C2209 C 0.25336 0.92099 0.75677 0.0
C2210 C 0.27288 0.92829 0.75847 0.0
C2211 C 0.27487 0.92119 0.76797 0.0
N2212 N 0.2688 0.90512 0.77921 0.0
N2213 N 0.25955 0.93704 0.74565 0.0
C2214 C 0.2665 0.91292 0.77098 0.0
C2215 C 0.2619 0.92886 0.7535 0.0
N2216 N 0.24718 0.90582 0.7689 0.0
N2217 N 0.28179 0.93387 0.75357 0.0
H2218 H 0.25237 0.93694 0.74048 0.0
H2219 H 0.26458 0.94423 0.74456 0.0
H2220 H 0.29015 0.93294 0.75635 0.0
H2221 H 0.28119 0.93829 0.74595 0.0
H2222 H 0.24771 0.90052 0.77592 0.0
H2223 H 0.23913 0.90572 0.76521 0.0
H2224 H 0.26432 0.89757 0.78015 0.0
H2225 H 0.27532 0.90603 0.78509 0.0
C2226 C 0.10136 0.75315 0.26949 0.0
C2227 C 0.10558 0.75207 0.25824 0.0
C2228 C 0.11121 0.77231 0.25858 0.0
C2229 C 0.10604 0.77353 0.2694 0.0
N2230 N 0.09589 0.76539 0.28515 0.0
N2231 N 0.11589 0.76024 0.24251 0.0
C2232 C 0.10109 0.764 0.27486 0.0
C2233 C 0.111 0.76153 0.25295 0.0
N2234 N 0.09823 0.74363 0.27531 0.0
N2235 N 0.11563 0.78169 0.2534 0.0
H2236 H 0.11446 0.75327 0.23727 0.0
H2237 H 0.12157 0.76599 0.23898 0.0
H2238 H 0.11603 0.7896 0.25736 0.0
H2239 H 0.1185 0.78191 0.24506 0.0
H2240 H 0.09614 0.74355 0.28388 0.0
H2241 H 0.0988 0.73549 0.27186 0.0
H2242 H 0.09062 0.75935 0.28883 0.0
H2243 H 0.09636 0.77287 0.28987 0.0
C2244 C 0.26194 0.59645 0.77211 0.0
C2245 C 0.25333 0.60427 0.76888 0.0
C2246 C 0.2664 0.61244 0.75464 0.0
C2247 C 0.27482 0.6042 0.75759 0.0
N2248 N 0.28186 0.59153 0.77194 0.0
N2249 N 0.24705 0.61948 0.75686 0.0
C2250 C 0.2729 0.59708 0.76709 0.0
C2251 C 0.2556 0.61242 0.7603 0.0
N2252 N 0.25965 0.58824 0.77995 0.0
N2253 N 0.26863 0.62027 0.74643 0.0
H2254 H 0.23905 0.61957 0.76065 0.0
H2255 H 0.24752 0.62479 0.74985 0.0
H2256 H 0.27514 0.61942 0.74054 0.0
H2257 H 0.2641 0.62779 0.74551 0.0
H2258 H 0.26474 0.58108 0.78102 0.0
H2259 H 0.25247 0.58829 0.78511 0.0
H2260 H 0.28131 0.5871 0.77956 0.0
H2261 H 0.2902 0.59249 0.76912 0.0
C2262 C 0.41596 0.76115 0.27319 0.0
C2263 C 0.42264 0.75201 0.26881 0.0
C2264 C 0.42875 0.76413 0.25293 0.0
C2265 C 0.4225 0.77338 0.25751 0.0
N2266 N 0.41025 0.781 0.27196 0.0
N2267 N 0.43239 0.74392 0.25275 0.0
C2268 C 0.41589 0.77188 0.26749 0.0
C2269 C 0.42824 0.7533 0.25821 0.0
N2270 N 0.40972 0.75965 0.28285 0.0
N2271 N 0.43535 0.76573 0.24352 0.0
H2272 H 0.43156 0.73573 0.25598 0.0
H2273 H 0.43554 0.744 0.2445 0.0
H2274 H 0.435 0.77301 0.23852 0.0
H2275 H 0.4416 0.76004 0.24091 0.0
H2276 H 0.40313 0.76496 0.28536 0.0
H2277 H 0.41097 0.75294 0.28843 0.0
H2278 H 0.40619 0.78105 0.27979 0.0
H2279 H 0.41005 0.78891 0.26801 0.0
C2280 C 0.77252 0.26572 0.92906 0.0
C2281 C 0.76933 0.27428 0.92121 0.0
C2282 C 0.75504 0.26121 0.91304 0.0
C2283 C 0.75796 0.25284 0.92131 0.0
N2284 N 0.77233 0.24584 0.93402 0.0
N2285 N 0.75725 0.2805 0.90598 0.0
C2286 C 0.76747 0.25478 0.92845 0.0
C2287 C 0.76072 0.27199 0.91305 0.0
N2288 N 0.7804 0.26801 0.93727 0.0
N2289 N 0.74682 0.25896 0.90517 0.0
H2290 H 0.76098 0.28852 0.90593 0.0
H2291 H 0.75023 0.28001 0.90065 0.0
H2292 H 0.74091 0.25248 0.90602 0.0
H2293 H 0.74594 0.26344 0.89763 0.0
H2294 H 0.78145 0.26297 0.94445 0.0
H2295 H 0.78563 0.27513 0.93719 0.0
H2296 H 0.77996 0.2464 0.93845 0.0
H2297 H 0.76949 0.23751 0.93306 0.0
C2298 C 0.76585 0.272 0.61253 0.0
C2299 C 0.75725 0.27426 0.60436 0.0
C2300 C 0.75907 0.25472 0.59713 0.0
C2301 C 0.76856 0.25279 0.6043 0.0
N2302 N 0.77971 0.25898 0.62043 0.0
N2303 N 0.74619 0.26793 0.58828 0.0
C2304 C 0.7715 0.2612 0.61256 0.0
C2305 C 0.75404 0.26567 0.59651 0.0
N2306 N 0.76932 0.28054 0.6196 0.0
N2307 N 0.75422 0.24577 0.59154 0.0
H2308 H 0.74097 0.27508 0.58835 0.0
H2309 H 0.74514 0.26287 0.5811 0.0
H2310 H 0.75704 0.23744 0.5925 0.0
H2311 H 0.74661 0.24632 0.58708 0.0
H2312 H 0.77633 0.28006 0.62494 0.0
H2313 H 0.76559 0.28856 0.61965 0.0
H2314 H 0.7806 0.2635 0.62797 0.0
H2315 H 0.78562 0.25248 0.61958 0.0
C2316 C 0.76547 0.27275 0.09734 0.0
C2317 C 0.77406 0.26957 0.1052 0.0
C2318 C 0.76099 0.25532 0.11336 0.0
C2319 C 0.75258 0.25824 0.1051 0.0
N2320 N 0.74556 0.27254 0.09237 0.0
N2321 N 0.78033 0.25753 0.1204 0.0
C2322 C 0.75452 0.26771 0.09795 0.0
C2323 C 0.77179 0.26098 0.11334 0.0
N2324 N 0.76775 0.28061 0.08914 0.0
N2325 N 0.75877 0.24712 0.12121 0.0
H2326 H 0.78836 0.26126 0.12046 0.0
H2327 H 0.77985 0.25052 0.12572 0.0
H2328 H 0.75228 0.2412 0.12035 0.0
H2329 H 0.76326 0.24625 0.12876 0.0
H2330 H 0.7627 0.28164 0.08196 0.0
H2331 H 0.77488 0.28583 0.08922 0.0
H2332 H 0.74611 0.28014 0.08792 0.0
H2333 H 0.73722 0.26971 0.09331 0.0
C2334 C 0.76121 0.27286 0.42989 0.0
C2335 C 0.75262 0.26967 0.42203 0.0
C2336 C 0.76567 0.25538 0.41384 0.0
C2337 C 0.77408 0.2583 0.4221 0.0
N2338 N 0.78112 0.27264 0.43485 0.0
N2339 N 0.74633 0.2576 0.40679 0.0
C2340 C 0.77216 0.2678 0.42927 0.0
C2341 C 0.75488 0.26106 0.41386 0.0
N2342 N 0.75894 0.28072 0.43813 0.0
N2343 N 0.76789 0.24715 0.40596 0.0
H2344 H 0.73831 0.26136 0.40674 0.0
H2345 H 0.7468 0.25059 0.40146 0.0
H2346 H 0.77438 0.24124 0.4068 0.0
H2347 H 0.76338 0.24626 0.39842 0.0
H2348 H 0.764 0.28176 0.44531 0.0
H2349 H 0.75181 0.28596 0.43806 0.0
H2350 H 0.78058 0.28025 0.43932 0.0
H2351 H 0.78946 0.26979 0.43389 0.0
C2352 C 0.01977 0.1927 0.68392 0.0
C2353 C 0.02581 0.19907 0.69229 0.0
C2354 C 1.00807 0.19647 0.70515 0.0
C2355 C 1.00131 0.19224 0.69627 0.0
N2356 N 1.00365 0.17853 0.68128 0.0
N2357 N 0.02458 0.20915 0.71038 0.0
C2358 C 1.00718 0.18823 0.68651 0.0
C2359 C 0.02024 0.20161 0.70273 0.0
N2360 N 0.02446 0.19094 0.67347 0.0
N2361 N 1.00502 0.19437 0.71611 0.0
H2362 H 0.03219 0.21345 0.70945 0.0
H2363 H 0.01993 0.21183 0.71743 0.0
H2364 H 0.99788 0.1895 0.71808 0.0
H2365 H 1.0103 0.19624 0.72297 0.0
H2366 H 0.02003 0.18716 0.6668 0.0
H2367 H 0.0323 0.19437 0.67118 0.0
H2368 H 1.00792 0.17481 0.67448 0.0
H2369 H 0.99798 0.17305 0.6853 0.0
C2370 C 0.83711 0.5216 0.20231 0.0
C2371 C 0.83038 0.52505 0.19294 0.0
C2372 C 0.82817 0.50531 0.18684 0.0
C2373 C 0.83368 0.50181 0.19699 0.0
N2374 N 0.84595 0.50616 0.21272 0.0
N2375 N 0.82048 0.52081 0.17561 0.0
C2376 C 0.83893 0.50985 0.20425 0.0
C2377 C 0.82638 0.51708 0.18487 0.0
N2378 N 0.84151 0.52964 0.20947 0.0
N2379 N 0.82476 0.49735 0.17909 0.0
H2380 H 0.81937 0.5294 0.17381 0.0
H2381 H 0.81635 0.51555 0.16984 0.0
H2382 H 0.82517 0.48864 0.18054 0.0
H2383 H 0.82193 0.49922 0.17096 0.0
H2384 H 0.84551 0.52787 0.21712 0.0
H2385 H 0.84093 0.53833 0.20794 0.0
H2386 H 0.85084 0.51144 0.21783 0.0
H2387 H 0.84747 0.49758 0.21426 0.0
C2388 C 0.51824 0.34344 0.69443 0.0
C2389 C 0.52536 0.3338 0.69577 0.0
C2390 C 0.50928 0.32119 0.69166 0.0
C2391 C 0.50193 0.3307 0.69167 0.0
N2392 N 0.49985 0.35101 0.68919 0.0
N2393 N 0.5281 0.31353 0.6947 0.0
C2394 C 0.50654 0.34189 0.69177 0.0
C2395 C 0.521 0.32269 0.69404 0.0
N2396 N 0.52253 0.35405 0.69643 0.0
N2397 N 0.50509 0.31082 0.68856 0.0
H2398 H 0.53693 0.31418 0.6947 0.0
H2399 H 0.52529 0.30521 0.69554 0.0
H2400 H 0.49665 0.30961 0.68613 0.0
H2401 H 0.51004 0.30362 0.68732 0.0
H2402 H 0.51762 0.36138 0.69677 0.0
H2403 H 0.53096 0.3555 0.69872 0.0
H2404 H 0.50305 0.35905 0.68745 0.0
H2405 H 0.49111 0.35057 0.68812 0.0
C2406 C 0.70211 1.00883 0.18602 0.0
C2407 C 0.69659 1.00079 0.19305 0.0
C2408 C 0.68647 0.01771 0.20302 0.0
C2409 C 0.69308 0.02575 0.197 0.0
N2410 N 0.70539 0.03038 0.18134 0.0
N2411 N 0.68211 0.99615 0.20674 0.0
C2412 C 0.70034 0.02231 0.18799 0.0
C2413 C 0.68821 1.00423 0.20105 0.0
N2414 N 0.70922 1.0051 0.17763 0.0
N2415 N 0.67844 0.02146 0.21054 0.0
H2416 H 0.6832 0.98746 0.20547 0.0
H2417 H 0.67586 0.99782 0.21272 0.0
H2418 H 0.6768 0.03005 0.2119 0.0
H2419 H 0.67319 0.01627 0.21534 0.0
H2420 H 0.71402 1.0103 0.17239 0.0
H2421 H 0.71045 0.99651 0.17587 0.0
H2422 H 0.71031 0.02868 0.17422 0.0
H2423 H 0.70447 0.03907 0.1827 0.0
C2424 C 1.00806 0.34324 0.83128 0.0
C2425 C 1.00107 0.33356 0.82967 0.0
C2426 C 0.01887 0.32105 0.83365 0.0
C2427 C 0.02616 0.33061 0.83383 0.0
N2428 N 0.02791 0.3509 0.83696 0.0
N2429 N 0.99851 0.31327 0.8303 0.0
C2430 C 0.0214 0.34176 0.834 0.0
C2431 C 1.00552 0.32248 0.83122 0.0
N2432 N 1.00367 0.35384 0.82948 0.0
N2433 N 0.02312 0.31068 0.83663 0.0
H2434 H 0.98968 0.31385 0.83019 0.0
H2435 H 1.00141 0.30499 0.82932 0.0
H2436 H 0.03154 0.30951 0.83912 0.0
H2437 H 0.0182 0.30344 0.83775 0.0
H2438 H 1.00851 0.36121 0.82927 0.0
H2439 H 0.99521 0.35525 0.82727 0.0
H2440 H 0.02455 0.35885 0.83886 0.0
H2441 H 0.03663 0.35056 0.83818 0.0
C2442 C 0.68511 0.50751 0.33555 0.0
C2443 C 0.69257 0.50189 0.32777 0.0
C2444 C 0.70568 0.51769 0.32972 0.0
C2445 C 0.69755 0.52436 0.33535 0.0
N2446 N 0.68366 0.52191 0.35014 0.0
N2447 N 0.70638 0.50644 0.3132 0.0
C2448 C 0.68816 0.51838 0.34008 0.0
C2449 C 0.70206 0.50809 0.32375 0.0
N2450 N 0.67486 0.50278 0.33812 0.0
N2451 N 0.71694 0.52012 0.33047 0.0
H2452 H 0.70118 0.5036 0.30666 0.0
H2453 H 0.7135 0.51088 0.31035 0.0
H2454 H 0.71992 0.52658 0.33578 0.0
H2455 H 0.72308 0.51493 0.32673 0.0
H2456 H 0.66869 0.50692 0.34294 0.0
H2457 H 0.67206 0.49532 0.33425 0.0
H2458 H 0.67735 0.5175 0.35448 0.0
H2459 H 0.68771 0.5281 0.35504 0.0
C2460 C 0.50877 0.19467 0.84243 0.0
C2461 C 0.50192 0.19697 0.83281 0.0
C2462 C 0.51808 0.19312 0.82022 0.0
C2463 C 0.52526 0.19201 0.82981 0.0
N2464 N 0.52612 0.18663 0.84975 0.0
N2465 N 0.49959 0.1976 0.81248 0.0
C2466 C 0.52027 0.19124 0.84086 0.0
C2467 C 0.50644 0.19591 0.82169 0.0
N2468 N 0.50434 0.19606 0.85309 0.0
N2469 N 0.52231 0.19055 0.80971 0.0
H2470 H 0.49075 0.19781 0.81293 0.0
H2471 H 0.50264 0.19909 0.80433 0.0
H2472 H 0.5306 0.18765 0.80852 0.0
H2473 H 0.51745 0.19011 0.80236 0.0
H2474 H 0.5091 0.19572 0.86051 0.0
H2475 H 0.496 0.19865 0.85456 0.0
H2476 H 0.52268 0.18528 0.85775 0.0
H2477 H 0.5341 0.18304 0.84917 0.0
C2478 C 0.82458 0.01914 0.32394 0.0
C2479 C 0.83416 0.0252 0.32801 0.0
C2480 C 0.83847 1.00668 0.33983 0.0
C2481 C 0.829 1.00085 0.33507 0.0
N2482 N 0.8096 1.00533 0.33048 0.0
N2483 N 0.85204 0.02384 0.33801 0.0
C2484 C 0.82087 1.00769 0.32966 0.0
C2485 C 0.84168 0.0193 0.33551 0.0
N2486 N 0.82012 0.02112 0.31352 0.0
N2487 N 0.84302 1.00297 0.34978 0.0
H2488 H 0.85487 0.03134 0.33428 0.0
H2489 H 0.85823 0.01951 0.34261 0.0
H2490 H 0.8389 0.99682 0.35464 0.0
H2491 H 0.84943 1.00725 0.35413 0.0
H2492 H 0.81296 0.01675 0.31062 0.0
H2493 H 0.82518 0.02422 0.30701 0.0
H2494 H 0.80346 1.01065 0.32695 0.0
H2495 H 0.80662 0.9988 0.33566 0.0
C2496 C 0.18944 0.70065 0.02259 0.0
C2497 C 0.19727 0.6921 0.02591 0.0
C2498 C 0.20017 0.68673 1.00444 0.0
C2499 C 0.19348 0.69619 1.00109 0.0
N2500 N 0.17964 0.71053 1.00553 0.0
N2501 N 0.20899 0.67599 0.02151 0.0
C2502 C 0.18736 0.70266 1.00918 0.0
C2503 C 0.20225 0.6847 0.01785 0.0
N2504 N 0.18402 0.70694 0.03073 0.0
N2505 N 0.20464 0.67967 0.99635 0.0
H2506 H 0.21016 0.67417 0.03009 0.0
H2507 H 0.2136 0.67062 0.01624 0.0
H2508 H 0.20388 0.68113 0.98766 0.0
H2509 H 0.20881 0.6721 0.99804 0.0
H2510 H 0.17863 0.71372 0.02911 0.0
H2511 H 0.18497 0.7055 0.0394 0.0
H2512 H 0.17444 0.71533 1.0108 0.0
H2513 H 0.17805 0.71201 0.99696 0.0
C2514 C 0.20109 0.8414 0.50933 0.0
C2515 C 0.19703 0.83335 0.50137 0.0
C2516 C 0.18848 0.82209 0.51662 0.0
C2517 C 0.19383 0.82931 0.52462 0.0
N2518 N 0.20282 0.84718 0.52905 0.0
N2519 N 0.18576 0.81689 0.49684 0.0
C2520 C 0.19935 0.83944 0.5211 0.0
C2521 C 0.19025 0.82402 0.50485 0.0
N2522 N 0.20704 0.85063 0.50557 0.0
N2523 N 0.18145 0.81366 0.52036 0.0
H2524 H 0.18631 0.81842 0.48814 0.0
H2525 H 0.18169 0.80929 0.49863 0.0
H2526 H 0.17993 0.81217 0.52895 0.0
H2527 H 0.17652 0.80855 0.51511 0.0
H2528 H 0.21122 0.85637 0.51081 0.0
H2529 H 0.20811 0.85241 0.49697 0.0
H2530 H 0.20568 0.8553 0.52717 0.0
H2531 H 0.20244 0.84573 0.53776 0.0
C2532 C 0.32334 0.68735 0.50946 0.0
C2533 C 0.33071 0.69239 0.50142 0.0
C2534 C 0.34303 0.69949 0.51666 0.0
C2535 C 0.33488 0.6957 0.52463 0.0
N2536 N 0.3181 0.68496 0.52926 0.0
N2537 N 0.34883 0.70087 0.49694 0.0
C2538 C 0.32534 0.68918 0.52121 0.0
C2539 C 0.341 0.69769 0.5049 0.0
N2540 N 0.31472 0.68049 0.50579 0.0
N2541 N 0.35243 0.70522 0.52038 0.0
H2542 H 0.34734 0.70052 0.48824 0.0
H2543 H 0.35706 0.70346 0.49882 0.0
H2544 H 0.35426 0.70636 0.52896 0.0
H2545 H 0.35826 0.70922 0.51511 0.0
H2546 H 0.30953 0.67571 0.51108 0.0
H2547 H 0.31313 0.67896 0.49722 0.0
H2548 H 0.31032 0.68118 0.52749 0.0
H2549 H 0.31969 0.68548 0.53795 0.0
C2550 C 0.34109 0.83665 1.00674 0.0
C2551 C 0.33512 0.82782 1.00096 0.0
C2552 C 0.32304 0.82582 0.01886 0.0
C2553 C 0.32913 0.83381 0.02533 0.0
N2554 N 0.34061 0.85069 0.0234 0.0
N2555 N 0.3276 0.8096 1.00636 0.0
C2556 C 0.33744 0.84032 0.01935 0.0
C2557 C 0.32804 0.82102 1.00773 0.0
N2558 N 0.35131 0.84028 1.00269 0.0
N2559 N 0.31165 0.82455 0.02007 0.0
H2560 H 0.3331 0.80539 1.0008 0.0
H2561 H 0.3227 0.80453 1.01173 0.0
H2562 H 0.30689 0.83022 0.02497 0.0
H2563 H 0.30707 0.81899 0.01489 0.0
H2564 H 0.35646 0.84604 1.00701 0.0
H2565 H 0.35534 0.83614 0.99596 0.0
H2566 H 0.34591 0.85619 0.01894 0.0
H2567 H 0.33661 0.85436 0.03041 0.0
C2568 C 1.00407 0.83753 0.32715 0.0
C2569 C 1.00175 0.8286 0.33494 0.0
C2570 C 0.02385 0.82564 0.33786 0.0
C2571 C 0.02617 0.83407 0.32953 0.0
N2572 N 0.01982 0.84929 0.3176 0.0
N2573 N 1.00816 0.81567 0.3493 0.0
C2574 C 0.01721 0.84046 0.32465 0.0
C2575 C 1.01073 0.82314 0.34082 0.0
N2576 N 0.99522 0.84301 0.32198 0.0
N2577 N 0.03268 0.81984 0.3427 0.0
H2578 H 0.99984 0.81385 0.35173 0.0
H2579 H 0.01572 0.81165 0.35443 0.0
H2580 H 0.04117 0.82115 0.34056 0.0
H2581 H 0.0318 0.81334 0.34856 0.0
H2582 H 0.99605 0.84967 0.31629 0.0
H2583 H 0.98674 0.84074 0.32306 0.0
H2584 H 1.01231 0.8546 0.31375 0.0
H2585 H 0.02817 0.85169 0.31584 0.0
C2586 C 0.20108 0.52199 0.837 0.0
C2587 C 0.19265 0.52431 0.82865 0.0
C2588 C 0.18918 0.50386 0.82623 0.0
C2589 C 0.19813 0.50153 0.83404 0.0
N2590 N 0.21108 0.50796 0.84843 0.0
N2591 N 0.17738 0.51796 0.81671 0.0
C2592 C 0.20359 0.51051 0.83993 0.0
C2593 C 0.18624 0.51536 0.82375 0.0
N2594 N 0.20686 0.53082 0.84189 0.0
N2595 N 0.18368 0.49503 0.82103 0.0
H2596 H 0.17498 0.52629 0.81496 0.0
H2597 H 0.17206 0.51209 0.81286 0.0
H2598 H 0.18597 0.48656 0.82208 0.0
H2599 H 0.177 0.49586 0.81535 0.0
H2600 H 0.21337 0.52995 0.84777 0.0
H2601 H 0.20553 0.53929 0.83978 0.0
H2602 H 0.21511 0.51388 0.85358 0.0
H2603 H 0.21291 0.49964 0.85083 0.0
C2604 C 0.52128 0.69907 0.32368 0.0
C2605 C 0.52518 0.69808 0.33506 0.0
C2606 C 0.50759 0.68783 0.33969 0.0
C2607 C 0.50274 0.69112 0.32911 0.0
N2608 N 0.50869 0.69127 0.30964 0.0
N2609 N 0.52164 0.69163 0.35418 0.0
C2610 C 0.51055 0.6945 0.3206 0.0
C2611 C 0.5182 0.6925 0.34316 0.0
N2612 N 0.52791 0.70397 0.31555 0.0
N2613 N 0.5034 0.67862 0.34527 0.0
H2614 H 0.52931 0.69499 0.35709 0.0
H2615 H 0.51637 0.68855 0.36058 0.0
H2616 H 0.4977 0.67308 0.34134 0.0
H2617 H 0.50702 0.67535 0.35264 0.0
H2618 H 0.52464 0.70659 0.30777 0.0
H2619 H 0.53653 0.70567 0.31655 0.0
H2620 H 0.51452 0.69254 0.3031 0.0
H2621 H 0.50211 0.68573 0.30748 0.0
C2622 C 0.34431 1.00883 0.83013 0.0
C2623 C 0.33543 1.00078 0.82886 0.0
C2624 C 0.32153 0.01688 0.83446 0.0
C2625 C 0.33004 0.02539 0.83401 0.0
N2626 N 0.35003 0.03014 0.83305 0.0
N2627 N 0.31545 0.99621 0.82951 0.0
C2628 C 0.34165 0.02214 0.83245 0.0
C2629 C 0.32399 1.00395 0.83096 0.0
N2630 N 0.35529 1.00548 0.82828 0.0
N2631 N 0.31117 0.01937 0.83908 0.0
H2632 H 0.31685 0.98759 0.82816 0.0
H2633 H 0.30691 0.99848 0.82909 0.0
H2634 H 0.30921 0.02732 0.84245 0.0
H2635 H 0.3049 1.01159 0.8408 0.0
H2636 H 0.36226 1.01089 0.82811 0.0
H2637 H 0.35752 0.9971 0.8265 0.0
H2638 H 0.3586 0.02831 0.83416 0.0
H2639 H 0.3485 0.0388 0.83237 0.0
C2640 C 1.00453 0.69487 0.20375 0.0
C2641 C 1.00115 0.69663 0.19234 0.0
C2642 C 0.02237 0.69271 0.18598 0.0
C2643 C 0.02583 0.69152 0.19756 0.0
N2644 N 0.02005 0.687 0.21661 0.0
N2645 N 1.00558 0.69668 0.17242 0.0
C2646 C 0.01744 0.69136 0.2062 0.0
C2647 C 1.00908 0.69506 0.18337 0.0
N2648 N 0.99697 0.69663 0.21239 0.0
N2649 N 0.0302 0.69171 0.17747 0.0
H2650 H 0.99717 0.69848 0.17029 0.0
H2651 H 1.01091 0.69671 0.1654 0.0
H2652 H 0.03891 0.69236 0.1788 0.0
H2653 H 0.02816 0.69024 0.16902 0.0
H2654 H 0.99942 0.69734 0.22085 0.0
H2655 H 0.98831 0.69797 0.21113 0.0
H2656 H 1.0124 0.68549 0.2229 0.0
H2657 H 0.02801 0.68359 0.21851 0.0
C2658 C 0.34312 0.51569 0.70004 0.0
C2659 C 0.33568 0.52452 0.69669 0.0
C2660 C 0.3233 0.51069 0.68707 0.0
C2661 C 0.32996 0.50172 0.69156 0.0
N2662 N 0.34688 0.49543 0.7013 0.0
N2663 N 0.31886 0.53081 0.68688 0.0
C2664 C 0.34015 0.50416 0.69766 0.0
C2665 C 0.32588 0.52212 0.69006 0.0
N2666 N 0.35283 0.5184 0.70583 0.0
N2667 N 0.31478 0.50823 0.67957 0.0
H2668 H 0.32057 0.53932 0.68858 0.0
H2669 H 0.31096 0.52968 0.6831 0.0
H2670 H 0.31282 0.49997 0.67705 0.0
H2671 H 0.31022 0.51429 0.67508 0.0
H2672 H 0.35857 0.51259 0.70911 0.0
H2673 H 0.35526 0.52677 0.70742 0.0
H2674 H 0.35494 0.49638 0.70474 0.0
H2675 H 0.34442 0.48695 0.701 0.0
C2676 C 0.51697 0.82002 0.19384 0.0
C2677 C 0.52486 0.82883 0.19156 0.0
C2678 C 0.50948 0.84278 0.19461 0.0
C2679 C 0.5023 0.83407 0.19879 0.0
N2680 N 0.49913 0.81407 0.20199 0.0
N2681 N 0.52456 0.84667 0.18153 0.0
C2682 C 0.50605 0.82262 0.19833 0.0
C2683 C 0.5202 0.83989 0.18979 0.0
N2684 N 0.51924 0.80931 0.19001 0.0
N2685 N 0.50599 0.85383 0.19502 0.0
H2686 H 0.52899 0.84307 0.17475 0.0
H2687 H 0.52165 0.85482 0.17981 0.0
H2688 H 0.49813 0.85628 0.19829 0.0
H2689 H 0.51133 0.86061 0.19311 0.0
H2690 H 0.51344 0.80265 0.19034 0.0
H2691 H 0.52635 0.80754 0.18502 0.0
H2692 H 0.50211 0.80591 0.20363 0.0
H2693 H 0.49054 0.81513 0.20384 0.0
C2694 C 0.20031 0.02141 0.70267 0.0
C2695 C 0.19936 0.02526 0.69127 0.0
C2696 C 0.18913 1.0059 0.6866 0.0
C2697 C 0.19238 1.00113 0.69723 0.0
N2698 N 0.19239 1.00716 0.71668 0.0
N2699 N 0.19306 0.02159 0.6721 0.0
C2700 C 0.19568 1.00899 0.70574 0.0
C2701 C 0.19387 0.01821 0.68315 0.0
N2702 N 0.20514 0.0281 0.71082 0.0
N2703 N 0.17995 1.00166 0.68097 0.0
H2704 H 0.1964 0.02924 0.6692 0.0
H2705 H 0.19004 0.01627 0.6657 0.0
H2706 H 0.17439 0.996 0.6849 0.0
H2707 H 0.17671 1.00522 0.67356 0.0
H2708 H 0.20773 0.02488 0.71863 0.0
H2709 H 0.20684 0.0367 0.7098 0.0
H2710 H 0.19368 0.01472 0.72321 0.0
H2711 H 0.18691 1.00055 0.71882 0.0
C2712 C 0.84034 0.33773 0.0195 0.0
C2713 C 0.835 0.3283 0.02487 0.0
C2714 C 0.82443 0.32463 1.00535 0.0
C2715 C 0.82862 0.33488 1.0006 0.0
N2716 N 0.8389 0.35236 1.00341 0.0
N2717 N 0.82214 0.31254 0.02306 0.0
C2718 C 0.83605 0.34178 1.00716 0.0
C2719 C 0.82707 0.32184 0.01846 0.0
N2720 N 0.84986 0.34238 0.02421 0.0
N2721 N 0.8187 0.31695 0.99878 0.0
H2722 H 0.82695 0.30513 0.0235 0.0
H2723 H 0.8135 0.31098 0.02183 0.0
H2724 H 0.81812 0.31749 0.98999 0.0
H2725 H 0.8155 0.30932 1.00189 0.0
H2726 H 0.85471 0.34858 0.02019 0.0
H2727 H 0.85369 0.339 0.03143 0.0
H2728 H 0.84339 0.35817 1.00834 0.0
H2729 H 0.83574 0.35574 0.99587 0.0
C2730 C 0.82401 0.19296 0.50434 0.0
C2731 C 0.83487 0.19744 0.50163 0.0
C2732 C 0.84041 0.19642 0.52174 0.0
C2733 C 0.82927 0.19245 0.52452 0.0
N2734 N 0.81196 0.18364 0.51814 0.0
N2735 N 0.8538 0.2026 0.50718 0.0
C2736 C 0.82149 0.18981 0.51571 0.0
C2737 C 0.84328 0.19868 0.51016 0.0
N2738 N 0.81597 0.19193 0.49601 0.0
N2739 N 0.84817 0.19818 0.5302 0.0
H2740 H 0.8561 0.20417 0.49878 0.0
H2741 H 0.86028 0.20453 0.51285 0.0
H2742 H 0.84603 0.19852 0.53875 0.0
H2743 H 0.85681 0.19939 0.52889 0.0
H2744 H 0.80744 0.19027 0.49763 0.0
H2745 H 0.81763 0.19338 0.48745 0.0
H2746 H 0.80653 0.18034 0.512 0.0
H2747 H 0.81006 0.18078 0.52628 0.0
C2748 C 0.68578 0.33298 0.52114 0.0
C2749 C 0.69736 0.33472 0.52441 0.0
C2750 C 0.70337 0.33195 0.50462 0.0
C2751 C 0.69197 0.32967 0.50143 0.0
N2752 N 0.67212 0.32873 0.50612 0.0
N2753 N 0.71614 0.34014 0.51843 0.0
C2754 C 0.68307 0.33071 0.5095 0.0
C2755 C 0.70586 0.33539 0.5159 0.0
N2756 N 0.67739 0.33333 0.52915 0.0
N2757 N 0.71193 0.33071 0.49687 0.0
H2758 H 0.71805 0.34346 0.52642 0.0
H2759 H 0.72228 0.34203 0.51236 0.0
H2760 H 0.71055 0.32936 0.48824 0.0
H2761 H 0.72048 0.33044 0.49913 0.0
H2762 H 0.6688 0.33425 0.52733 0.0
H2763 H 0.67894 0.33263 0.53781 0.0
H2764 H 0.66515 0.3284 0.51152 0.0
H2765 H 0.66994 0.32702 0.49772 0.0
C2766 C 0.69793 0.18722 0.02299 0.0
C2767 C 0.69222 0.19762 0.02548 0.0
C2768 C 0.69091 0.20195 1.00344 0.0
C2769 C 0.69715 0.19192 1.00101 0.0
N2770 N 0.70556 0.17439 1.00706 0.0
N2771 N 0.68083 0.21325 0.01895 0.0
C2772 C 0.70011 0.18428 1.00981 0.0
C2773 C 0.68808 0.20451 0.01652 0.0
N2774 N 0.7012 0.18028 0.03169 0.0
N2775 N 0.68814 0.20917 0.9948 0.0
H2776 H 0.67825 0.21521 0.02719 0.0
H2777 H 0.67636 0.21801 1.0112 0.0
H2778 H 0.68979 0.20742 0.98628 0.0
H2779 H 0.68478 0.21724 0.996 0.0
H2780 H 0.70418 0.17204 0.03069 0.0
H2781 H 0.70106 0.18272 0.04018 0.0
H2782 H 0.70881 0.16849 0.01452 0.0
H2783 H 0.70714 0.17197 0.99869 0.0
C2784 C 0.15425 0.16106 0.69838 0.0
C2785 C 0.14637 0.1619 0.68925 0.0
C2786 C 0.15652 0.14655 0.67915 0.0
C2787 C 0.16405 0.14534 0.68856 0.0
N2788 N 0.16936 0.15068 0.70765 0.0
N2789 N 0.14043 0.15636 0.67052 0.0
C2790 C 0.16287 0.15258 0.6982 0.0
C2791 C 0.14756 0.15479 0.67955 0.0
N2792 N 0.15317 0.16811 0.70756 0.0
N2793 N 0.15825 0.14004 0.66967 0.0
H2794 H 0.13444 0.16286 0.6702 0.0
H2795 H 0.14043 0.15152 0.66315 0.0
H2796 H 0.16545 0.13502 0.66854 0.0
H2797 H 0.15286 0.1397 0.66271 0.0
H2798 H 0.15965 0.16978 0.71331 0.0
H2799 H 0.14575 0.17259 0.7094 0.0
H2800 H 0.16909 0.1555 0.71503 0.0
H2801 H 0.17441 0.14351 0.70874 0.0
C2802 C 0.88242 0.65384 0.19805 0.0
C2803 C 0.8819 0.66238 0.18957 0.0
C2804 C 0.86496 0.65334 0.18125 0.0
C2805 C 0.86521 0.64512 0.19004 0.0
N2806 N 0.87402 0.63701 0.20658 0.0
N2807 N 0.87347 0.67016 0.17272 0.0
C2808 C 0.87395 0.64519 0.19834 0.0
C2809 C 0.87339 0.66208 0.18103 0.0
N2810 N 0.89108 0.65408 0.2058 0.0
N2811 N 0.85665 0.65268 0.17315 0.0
H2812 H 0.87961 0.67654 0.17232 0.0
H2813 H 0.86763 0.6707 0.16615 0.0
H2814 H 0.85051 0.6463 0.17308 0.0
H2815 H 0.85574 0.65826 0.16641 0.0
H2816 H 0.89233 0.64817 0.21219 0.0
H2817 H 0.89743 0.66025 0.20582 0.0
H2818 H 0.87996 0.63637 0.21305 0.0
H2819 H 0.8679 0.63064 0.20716 0.0
C2820 C 0.37284 0.38297 0.69692 0.0
C2821 C 0.36425 0.38243 0.68847 0.0
C2822 C 0.37332 0.36561 0.67999 0.0
C2823 C 0.38164 0.36594 0.6887 0.0
N2824 N 0.38962 0.37449 0.70549 0.0
N2825 N 0.35637 0.37405 0.6716 0.0
C2826 C 0.38153 0.37456 0.69713 0.0
C2827 C 0.36452 0.37397 0.67987 0.0
N2828 N 0.37263 0.39161 0.70471 0.0
N2829 N 0.37389 0.35726 0.67192 0.0
H2830 H 0.3499 0.38009 0.67131 0.0
H2831 H 0.35591 0.36833 0.6649 0.0
H2832 H 0.38037 0.35122 0.67173 0.0
H2833 H 0.36811 0.35618 0.66536 0.0
H2834 H 0.37876 0.39302 0.71088 0.0
H2835 H 0.36634 0.39784 0.70489 0.0
H2836 H 0.39 0.38016 0.71223 0.0
H2837 H 0.39607 0.36846 0.70598 0.0
C2838 C 0.65316 0.86377 0.18068 0.0
C2839 C 0.64461 0.8635 0.18918 0.0
C2840 C 0.65248 0.88076 0.19797 0.0
C2841 C 0.66116 0.88096 0.18958 0.0
N2842 N 0.66994 0.87313 0.17289 0.0
N2843 N 0.6355 0.87171 0.20554 0.0
C2844 C 0.66153 0.87258 0.18088 0.0
C2845 C 0.64408 0.87204 0.19769 0.0
N2846 N 0.65319 0.85557 0.17244 0.0
N2847 N 0.65251 0.88882 0.20636 0.0
H2848 H 0.62925 0.86544 0.20562 0.0
H2849 H 0.6342 0.87766 0.21191 0.0
H2850 H 0.65856 0.89524 0.20694 0.0
H2851 H 0.64673 0.88927 0.213 0.0
H2852 H 0.65905 0.85502 0.16588 0.0
H2853 H 0.6471 0.84916 0.17205 0.0
H2854 H 0.67104 0.86737 0.1663 0.0
H2855 H 0.676 0.87958 0.17276 0.0
C2856 C 0.16331 0.37382 0.84547 0.0
C2857 C 0.16363 0.38229 0.83692 0.0
C2858 C 0.14629 0.37444 0.82823 0.0
C2859 C 0.14613 0.36578 0.8366 0.0
N2860 N 0.15392 0.3571 0.85332 0.0
N2861 N 0.15526 0.39147 0.82073 0.0
C2862 C 0.15449 0.36546 0.8453 0.0
C2863 C 0.15502 0.38284 0.82849 0.0
N2864 N 0.17146 0.37388 0.85375 0.0
N2865 N 0.13821 0.37441 0.81988 0.0
H2866 H 0.16156 0.39768 0.82059 0.0
H2867 H 0.14915 0.39288 0.81455 0.0
H2868 H 0.13173 0.36841 0.81936 0.0
H2869 H 0.13785 0.38009 0.81317 0.0
H2870 H 0.1719 0.36816 0.86042 0.0
H2871 H 0.17793 0.37991 0.85408 0.0
H2872 H 0.15971 0.356 0.85986 0.0
H2873 H 0.14741 0.3511 0.85349 0.0
C2874 C 0.65432 0.64635 0.34682 0.0
C2875 C 0.66146 0.64515 0.33714 0.0
C2876 C 0.65216 0.66163 0.32819 0.0
C2877 C 0.64493 0.66284 0.33782 0.0
N2878 N 0.63955 0.65703 0.35666 0.0
N2879 N 0.66767 0.65186 0.31884 0.0
C2880 C 0.64609 0.65531 0.34721 0.0
C2881 C 0.66063 0.65299 0.32801 0.0
N2882 N 0.65587 0.63923 0.35585 0.0
N2883 N 0.65027 0.6681 0.31874 0.0
H2884 H 0.67215 0.64445 0.31702 0.0
H2885 H 0.66933 0.6583 0.31306 0.0
H2886 H 0.64313 0.67319 0.31766 0.0
H2887 H 0.65508 0.6678 0.31135 0.0
H2888 H 0.651 0.63924 0.36319 0.0
H2889 H 0.66237 0.63323 0.35618 0.0
H2890 H 0.63915 0.65163 0.36359 0.0
H2891 H 0.63453 0.66423 0.3578 0.0
C2892 C 0.37353 0.16101 0.82731 0.0
C2893 C 0.38128 0.16182 0.83652 0.0
C2894 C 0.37119 0.14642 0.84643 0.0
C2895 C 0.36374 0.14526 0.83695 0.0
N2896 N 0.35857 0.15059 0.81783 0.0
N2897 N 0.38716 0.15624 0.85525 0.0
C2898 C 0.36495 0.15252 0.82737 0.0
C2899 C 0.38009 0.15468 0.84616 0.0
N2900 N 0.37473 0.16804 0.81816 0.0
N2901 N 0.36945 0.13985 0.85582 0.0
H2902 H 0.393 0.16287 0.85576 0.0
H2903 H 0.38724 0.15128 0.86252 0.0
H2904 H 0.36226 0.13481 0.85688 0.0
H2905 H 0.37482 0.13947 0.8628 0.0
H2906 H 0.3683 0.16971 0.81235 0.0
H2907 H 0.38216 0.17248 0.81638 0.0
H2908 H 0.3589 0.15542 0.81048 0.0
H2909 H 0.35356 0.14341 0.81667 0.0
C2910 C 0.866 0.87228 0.32795 0.0
C2911 C 0.86514 0.88014 0.3371 0.0
C2912 C 0.88052 0.87004 0.34716 0.0
C2913 C 0.88174 0.86251 0.33773 0.0
N2914 N 0.87641 0.85719 0.31863 0.0
N2915 N 0.87069 0.88612 0.35582 0.0
C2916 C 0.8745 0.86367 0.32811 0.0
C2917 C 0.87226 0.87898 0.34678 0.0
N2918 N 0.85896 0.87337 0.31878 0.0
N2919 N 0.88702 0.86832 0.35662 0.0
H2920 H 0.86418 0.8921 0.35617 0.0
H2921 H 0.87557 0.88616 0.36316 0.0
H2922 H 0.89206 0.86113 0.35773 0.0
H2923 H 0.88733 0.87369 0.36361 0.0
H2924 H 0.85731 0.86691 0.31299 0.0
H2925 H 0.85449 0.88077 0.31697 0.0
H2926 H 0.87157 0.85742 0.31128 0.0
H2927 H 0.8836 0.85216 0.31752 0.0
C2928 C 0.6992 0.14713 0.15426 0.0
C2929 C 0.6897 0.14562 0.16154 0.0
C2930 C 0.67975 0.16145 0.15219 0.0
C2931 C 0.68937 0.16311 0.14507 0.0
N2932 N 0.70778 0.15719 0.1384 0.0
N2933 N 0.67095 0.15087 0.16768 0.0
C2934 C 0.69898 0.15584 0.14588 0.0
C2935 C 0.67994 0.15263 0.16053 0.0
N2936 N 0.70846 0.1402 0.15547 0.0
N2937 N 0.67051 0.16837 0.15093 0.0
H2938 H 0.6709 0.14447 0.17377 0.0
H2939 H 0.66353 0.15563 0.16776 0.0
H2940 H 0.67024 0.17495 0.14504 0.0
H2941 H 0.66303 0.16772 0.15555 0.0
H2942 H 0.71602 0.14097 0.15099 0.0
H2943 H 0.7088 0.13351 0.16123 0.0
H2944 H 0.71502 0.15217 0.13811 0.0
H2945 H 0.70779 0.16324 0.13197 0.0
C2946 C 0.87236 0.19776 0.64352 0.0
C2947 C 0.86375 0.18934 0.64408 0.0
C2948 C 0.8729 0.18093 0.66087 0.0
C2949 C 0.88129 0.1896 0.66054 0.0
N2950 N 0.88918 0.20636 0.65196 0.0
N2951 N 0.8559 0.17251 0.65247 0.0
C2952 C 0.88111 0.19799 0.6519 0.0
C2953 C 0.86406 0.18078 0.65253 0.0
N2954 N 0.87213 0.20553 0.6349 0.0
N2955 N 0.87344 0.17292 0.66924 0.0
H2956 H 0.84941 0.17222 0.64646 0.0
H2957 H 0.85549 0.16581 0.65816 0.0
H2958 H 0.87997 0.1727 0.67522 0.0
H2959 H 0.86759 0.16643 0.67039 0.0
H2960 H 0.87827 0.21167 0.63346 0.0
H2961 H 0.8658 0.20571 0.62871 0.0
H2962 H 0.88949 0.21311 0.64634 0.0
H2963 H 0.89568 0.20685 0.65794 0.0
C2964 C 0.84637 0.38045 0.15468 0.0
C2965 C 0.83691 0.38138 0.16214 0.0
C2966 C 0.82823 0.36443 0.15335 0.0
C2967 C 0.83757 0.36359 0.14569 0.0
N2968 N 0.856 0.37004 0.13958 0.0
N2969 N 0.81915 0.37393 0.16917 0.0
C2970 C 0.84674 0.37146 0.14647 0.0
C2971 C 0.82808 0.37312 0.16178 0.0
N2972 N 0.85527 0.38782 0.15591 0.0
N2973 N 0.81893 0.3576 0.15189 0.0
H2974 H 0.8171 0.38135 0.17352 0.0
H2975 H 0.8138 0.36721 0.17121 0.0
H2976 H 0.81763 0.35259 0.14473 0.0
H2977 H 0.81181 0.35754 0.1571 0.0
H2978 H 0.86245 0.388 0.15081 0.0
H2979 H 0.85572 0.39377 0.16245 0.0
H2980 H 0.86264 0.37577 0.13878 0.0
H2981 H 0.85725 0.36279 0.13465 0.0
C2982 C 0.64665 0.34669 0.65402 0.0
C2983 C 0.64542 0.33701 0.66112 0.0
C2984 C 0.66199 0.32805 0.65186 0.0
C2985 C 0.66319 0.33764 0.64461 0.0
N2986 N 0.65737 0.35649 0.63928 0.0
N2987 N 0.65226 0.31876 0.66737 0.0
C2988 C 0.65564 0.34705 0.6458 0.0
C2989 C 0.65333 0.3279 0.66032 0.0
N2990 N 0.63956 0.35575 0.6556 0.0
N2991 N 0.66847 0.31857 0.64997 0.0
H2992 H 0.64482 0.3169 0.67178 0.0
H2993 H 0.65878 0.31308 0.66911 0.0
H2994 H 0.67354 0.31745 0.64282 0.0
H2995 H 0.66815 0.3112 0.65477 0.0
H2996 H 0.63961 0.36312 0.65079 0.0
H2997 H 0.63356 0.35612 0.6621 0.0
H2998 H 0.65194 0.36341 0.63887 0.0
H2999 H 0.6646 0.35761 0.6343 0.0
C3000 C 0.69947 0.36975 0.38034 0.0
C3001 C 0.68932 0.36348 0.38222 0.0
C3002 C 0.67945 0.37472 0.36761 0.0
C3003 C 0.68973 0.38064 0.36548 0.0
N3004 N 0.70934 0.38451 0.36981 0.0
N3005 N 0.66957 0.35998 0.37824 0.0
C3006 C 0.69971 0.37831 0.37183 0.0
C3007 C 0.67924 0.36603 0.37606 0.0
N3008 N 0.70877 0.36767 0.387 0.0
N3009 N 0.66998 0.37741 0.36144 0.0
H3010 H 0.66924 0.35343 0.38416 0.0
H3011 H 0.6618 0.36123 0.37426 0.0
H3012 H 0.66998 0.38358 0.35512 0.0
H3013 H 0.66204 0.3737 0.36246 0.0
H3014 H 0.71659 0.37167 0.38624 0.0
H3015 H 0.7087 0.36203 0.39379 0.0
H3016 H 0.71716 0.38319 0.37366 0.0
H3017 H 0.70968 0.39126 0.36412 0.0
C3018 C 0.65359 0.19921 0.86533 0.0
C3019 C 0.64571 0.1901 0.86446 0.0
C3020 C 0.65578 0.18003 0.87983 0.0
C3021 C 0.66331 0.18943 0.88108 0.0
N3022 N 0.66867 0.2085 0.87578 0.0
N3023 N 0.63972 0.17139 0.86995 0.0
C3024 C 0.66219 0.19904 0.87384 0.0
C3025 C 0.64685 0.18042 0.87156 0.0
N3026 N 0.65252 0.20839 0.85832 0.0
N3027 N 0.65748 0.17056 0.88631 0.0
H3028 H 0.6338 0.17102 0.86339 0.0
H3029 H 0.63963 0.16408 0.87484 0.0
H3030 H 0.66466 0.16943 0.89134 0.0
H3031 H 0.6521 0.16359 0.8866 0.0
H3032 H 0.65901 0.21413 0.85667 0.0
H3033 H 0.6451 0.21026 0.85388 0.0
H3034 H 0.66846 0.21585 0.87095 0.0
H3035 H 0.67368 0.20961 0.88298 0.0
C3036 C 0.84435 0.15551 0.36418 0.0
C3037 C 0.83751 0.14571 0.36588 0.0
C3038 C 0.83129 0.15314 0.38443 0.0
C3039 C 0.83773 0.16315 0.38249 0.0
N3040 N 0.85093 0.17385 0.37123 0.0
N3041 N 0.82427 0.13506 0.37729 0.0
C3042 C 0.84442 0.16433 0.37253 0.0
C3043 C 0.83104 0.14442 0.376 0.0
N3044 N 0.85083 0.15624 0.35456 0.0
N3045 N 0.82517 0.15216 0.39427 0.0
H3046 H 0.82323 0.12887 0.37106 0.0
H3047 H 0.81928 0.13333 0.38433 0.0
H3048 H 0.82461 0.15858 0.40033 0.0
H3049 H 0.82066 0.14501 0.39674 0.0
H3050 H 0.85592 0.1631 0.35241 0.0
H3051 H 0.85135 0.1497 0.34861 0.0
H3052 H 0.85601 0.17558 0.36424 0.0
H3053 H 0.85141 0.18022 0.37736 0.0
C3054 C 0.87213 0.32914 0.88172 0.0
C3055 C 0.86357 0.33763 0.8812 0.0
C3056 C 0.87261 0.34591 0.86429 0.0
C3057 C 0.88085 0.33712 0.86454 0.0
N3058 N 0.889 0.32058 0.87332 0.0
N3059 N 0.85576 0.35449 0.87282 0.0
C3060 C 0.88079 0.32882 0.87326 0.0
C3061 C 0.86387 0.34617 0.87271 0.0
N3062 N 0.87191 0.32141 0.89038 0.0
N3063 N 0.87327 0.354 0.856 0.0
H3064 H 0.84939 0.35492 0.87895 0.0
H3065 H 0.85522 0.36105 0.86698 0.0
H3066 H 0.87965 0.35405 0.84986 0.0
H3067 H 0.86769 0.36076 0.85511 0.0
H3068 H 0.87782 0.315 0.8916 0.0
H3069 H 0.86574 0.32142 0.89672 0.0
H3070 H 0.88967 0.31414 0.87927 0.0
H3071 H 0.89537 0.31998 0.86721 0.0
C3072 C 0.15415 0.68015 0.16295 0.0
C3073 C 0.14565 0.68871 0.16327 0.0
C3074 C 0.15357 0.69746 0.14606 0.0
C3075 C 0.16232 0.68915 0.14597 0.0
N3076 N 0.17088 0.67227 0.15353 0.0
N3077 N 0.13643 0.70491 0.15495 0.0
C3078 C 0.16257 0.68037 0.1542 0.0
C3079 C 0.14511 0.69717 0.15472 0.0
N3080 N 0.15406 0.67184 0.17103 0.0
N3081 N 0.1535 0.70569 0.13787 0.0
H3082 H 0.13011 0.70495 0.16114 0.0
H3083 H 0.13516 0.71127 0.14901 0.0
H3084 H 0.15959 0.70626 0.13148 0.0
H3085 H 0.14757 0.71218 0.13726 0.0
H3086 H 0.15988 0.66525 0.17154 0.0
H3087 H 0.14794 0.67145 0.17742 0.0
H3088 H 0.17181 0.66554 0.15912 0.0
H3089 H 0.17701 0.67219 0.14713 0.0
C3090 C 0.14495 0.82821 0.37242 0.0
C3091 C 0.14546 0.83668 0.36388 0.0
C3092 C 0.16241 0.845 0.37291 0.0
C3093 C 0.16217 0.83622 0.38114 0.0
N3094 N 0.15336 0.81969 0.38926 0.0
N3095 N 0.15388 0.85353 0.35609 0.0
C3096 C 0.15342 0.82792 0.38107 0.0
C3097 C 0.15397 0.84523 0.36418 0.0
N3098 N 0.13629 0.82046 0.37219 0.0
N3099 N 0.17071 0.8531 0.37357 0.0
H3100 H 0.14774 0.85393 0.34972 0.0
H3101 H 0.15973 0.8601 0.35554 0.0
H3102 H 0.17686 0.85317 0.37994 0.0
H3103 H 0.17162 0.85985 0.36799 0.0
H3104 H 0.13505 0.81406 0.3781 0.0
H3105 H 0.12994 0.82044 0.36602 0.0
H3106 H 0.14741 0.81323 0.3899 0.0
H3107 H 0.15947 0.81911 0.39562 0.0
C3108 C 0.19475 0.65523 0.86113 0.0
C3109 C 0.18919 0.64463 0.8625 0.0
C3110 C 0.1824 0.65211 0.88106 0.0
C3111 C 0.19107 0.66054 0.88082 0.0
N3112 N 0.20663 0.66898 0.87025 0.0
N3113 N 0.17295 0.63636 0.87184 0.0
C3114 C 0.19762 0.66172 0.87077 0.0
C3115 C 0.18173 0.64385 0.87207 0.0
N3116 N 0.1956 0.66005 0.85067 0.0
N3117 N 0.17417 0.65268 0.88924 0.0
H3118 H 0.16951 0.6336 0.86416 0.0
H3119 H 0.16868 0.63355 0.87904 0.0
H3120 H 0.17366 0.65929 0.8951 0.0
H3121 H 0.16728 0.64719 0.88979 0.0
H3122 H 0.19893 0.66816 0.84945 0.0
H3123 H 0.19146 0.6566 0.84363 0.0
H3124 H 0.21169 0.66962 0.86301 0.0
H3125 H 0.20981 0.67324 0.87733 0.0
C3126 C 0.38307 0.69698 0.37271 0.0
C3127 C 0.38244 0.68856 0.3641 0.0
C3128 C 0.36572 0.68009 0.37336 0.0
C3129 C 0.36612 0.68876 0.38174 0.0
N3130 N 0.37475 0.70556 0.38959 0.0
N3131 N 0.37403 0.67166 0.35633 0.0
C3132 C 0.37475 0.69719 0.38151 0.0
C3133 C 0.374 0.67995 0.36447 0.0
N3134 N 0.39172 0.70474 0.37244 0.0
N3135 N 0.35734 0.67206 0.37394 0.0
H3136 H 0.38001 0.67137 0.3498 0.0
H3137 H 0.36837 0.66491 0.35597 0.0
H3138 H 0.35139 0.67184 0.38049 0.0
H3139 H 0.35614 0.66558 0.36809 0.0
H3140 H 0.39321 0.71088 0.37859 0.0
H3141 H 0.39788 0.70491 0.36609 0.0
H3142 H 0.38038 0.71233 0.38987 0.0
H3143 H 0.36881 0.70603 0.39613 0.0
C3144 C 0.3386 0.86978 0.85994 0.0
C3145 C 0.33907 0.88148 0.8629 0.0
C3146 C 0.34014 0.87626 0.8832 0.0
C3147 C 0.33847 0.86465 0.88026 0.0
N3148 N 0.33937 0.85007 0.86594 0.0
N3149 N 0.34063 0.89599 0.87735 0.0
C3150 C 0.33859 0.86135 0.86862 0.0
C3151 C 0.34034 0.88472 0.87451 0.0
N3152 N 0.3384 0.86676 0.84872 0.0
N3153 N 0.34093 0.87935 0.89436 0.0
H3154 H 0.3392 0.90251 0.8716 0.0
H3155 H 0.34149 0.89914 0.88553 0.0
H3156 H 0.33808 0.8743 0.90099 0.0
H3157 H 0.34451 0.8869 0.89718 0.0
H3158 H 0.33647 0.85868 0.84573 0.0
H3159 H 0.34012 0.87246 0.8422 0.0
H3160 H 0.33968 0.84681 0.85776 0.0
H3161 H 0.34071 0.84382 0.87204 0.0
C3162 C 0.37319 0.84586 0.14724 0.0
C3163 C 0.36603 0.83622 0.14602 0.0
C3164 C 0.37533 0.82719 0.16247 0.0
C3165 C 0.38257 0.83681 0.16372 0.0
N3166 N 0.38795 0.85566 0.15796 0.0
N3167 N 0.3598 0.8179 0.15267 0.0
C3168 C 0.38142 0.84622 0.15621 0.0
C3169 C 0.36686 0.82706 0.15383 0.0
N3170 N 0.37168 0.8549 0.14013 0.0
N3171 N 0.37722 0.81772 0.16891 0.0
H3172 H 0.35529 0.81614 0.14526 0.0
H3173 H 0.35815 0.81209 0.15908 0.0
H3174 H 0.38435 0.81665 0.17402 0.0
H3175 H 0.37242 0.81033 0.16856 0.0
H3176 H 0.37657 0.86222 0.14013 0.0
H3177 H 0.36518 0.85527 0.13413 0.0
H3178 H 0.38835 0.8626 0.15258 0.0
H3179 H 0.39291 0.85681 0.16519 0.0
C3180 C 0.19322 0.87589 0.64231 0.0
C3181 C 0.1903 0.86446 0.64487 0.0
C3182 C 0.18594 0.86988 0.6646 0.0
C3183 C 0.18951 0.88115 0.66222 0.0
N3184 N 0.19623 0.8952 0.64895 0.0
N3185 N 0.18214 0.85078 0.65763 0.0
C3186 C 0.1928 0.8843 0.65103 0.0
C3187 C 0.1862 0.86151 0.65583 0.0
N3188 N 0.19688 0.87859 0.63162 0.0
N3189 N 0.18213 0.86732 0.67526 0.0
H3190 H 0.18146 0.84474 0.65119 0.0
H3191 H 0.17887 0.84784 0.66525 0.0
H3192 H 0.18088 0.87345 0.68153 0.0
H3193 H 0.18014 0.85922 0.67808 0.0
H3194 H 0.19777 0.88678 0.62853 0.0
H3195 H 0.19914 0.87256 0.62556 0.0
H3196 H 0.19873 0.89832 0.64111 0.0
H3197 H 0.19702 0.90138 0.65523 0.0
C3198 C 0.3386 0.64066 0.6508 0.0
C3199 C 0.33873 0.64403 0.66243 0.0
C3200 C 0.33919 0.66415 0.6566 0.0
C3201 C 0.33796 0.6608 0.64505 0.0
N3202 N 0.33762 0.64594 0.63093 0.0
N3203 N 0.34045 0.65878 0.67649 0.0
C3204 C 0.33825 0.64908 0.64209 0.0
C3205 C 0.33938 0.65575 0.66533 0.0
N3206 N 0.33782 0.62938 0.64808 0.0
N3207 N 0.34086 0.67538 0.65909 0.0
H3208 H 0.34212 0.65293 0.68289 0.0
H3209 H 0.33969 0.667 0.67958 0.0
H3210 H 0.34193 0.68156 0.65287 0.0
H3211 H 0.34203 0.67866 0.66719 0.0
H3212 H 0.33772 0.62611 0.6399 0.0
H3213 H 0.33657 0.623 0.65403 0.0
H3214 H 0.33995 0.63802 0.62781 0.0
H3215 H 0.33476 0.65131 0.62454 0.0
loop_
_geom_bond_atom_site_label_1
_geom_bond_atom_site_label_2
_geom_bond_distance
_geom_bond_site_symmetry_2
_ccdc_geom_bond_type
C0 C1 1.264 . S
C0 C5 1.479 . S
C0 C10 1.465 . S
C1 C0 1.264 . S
C1 C3 1.339 . S
C1 H28 0.931 . S
C2 C3 1.395 . S
C2 C4 1.320 . S
C3 C1 1.339 . S
C3 C2 1.395 . S
C3 H29 0.929 . S
C4 C2 1.320 . S
C4 C5 1.405 . S
C4 H30 0.930 . S
C5 C0 1.479 . S
C5 C4 1.405 . S
C5 H31 0.931 . S
U6 O7 2.454 . S
U6 O8 2.458 . S
U6 C9 2.984 . S
U6 C10 2.847 . S
U6 C23 2.882 . S
U6 O24 2.441 . S
U6 O25 2.420 . S
U6 O26 2.455 . S
U6 O27 2.449 . S
O7 U6 2.454 . S
O7 C9 1.353 . S
O8 U6 2.458 . S
O8 C9 1.286 . S
C9 U6 2.984 . S
C9 O7 1.353 . S
C9 O8 1.286 . S
C9 C11 1.363 . S
C10 C0 1.465 . S
C10 U6 2.847 . S
C10 O24 1.249 . S
C10 O25 1.202 . S
C11 C9 1.363 . S
C11 C13 1.408 . S
C11 C16 1.342 . S
C12 C13 1.310 . S
C12 C15 1.461 . S
C12 H32 0.932 . S
C13 C11 1.408 . S
C13 C12 1.310 . S
C13 H33 0.930 . S
C14 C15 1.474 . S
C14 C16 1.285 . S
C14 H34 0.929 . S
C15 C12 1.461 . S
C15 C14 1.474 . S
C16 C11 1.342 . S
C16 C14 1.285 . S
C16 H35 0.930 . S
C17 C20 1.424 . S
C17 C22 1.245 . S
C17 C23 1.428 . S
C18 C21 1.260 . S
C18 C22 1.477 . S
C18 H36 0.932 . S
C19 C20 1.384 . S
C19 C21 1.479 . S
C19 H37 0.929 . S
C20 C17 1.424 . S
C20 C19 1.384 . S
C20 H38 0.928 . S
C21 C18 1.260 . S
C21 C19 1.479 . S
C22 C17 1.245 . S
C22 C18 1.477 . S
C22 H39 0.932 . S
C23 U6 2.882 . S
C23 C17 1.428 . S
C23 O26 1.301 . S
C23 O27 1.282 . S
O24 U6 2.441 . S
O24 C10 1.249 . S
O25 U6 2.420 . S
O25 C10 1.202 . S
O26 U6 2.455 . S
O26 C23 1.301 . S
O27 U6 2.449 . S
O27 C23 1.282 . S
H28 C1 0.931 . S
H29 C3 0.929 . S
H30 C4 0.930 . S
H31 C5 0.931 . S
H32 C12 0.932 . S
H33 C13 0.930 . S
H34 C14 0.929 . S
H35 C16 0.930 . S
H36 C18 0.932 . S
H37 C19 0.929 . S
H38 C20 0.928 . S
H39 C22 0.932 . S
C40 C41 1.264 . S
C40 C45 1.479 . S
C40 C50 1.465 . S
C41 C40 1.264 . S
C41 C43 1.339 . S
C41 H68 0.931 . S
C42 C43 1.395 . S
C42 C44 1.320 . S
C43 C41 1.339 . S
C43 C42 1.395 . S
C43 H69 0.929 . S
C44 C42 1.320 . S
C44 C45 1.405 . S
C44 H70 0.930 . S
C45 C40 1.479 . S
C45 C44 1.405 . S
C45 H71 0.931 . S
U46 O47 2.454 . S
U46 O48 2.458 . S
U46 C49 2.984 . S
U46 C50 2.847 . S
U46 C63 2.882 . S
U46 O64 2.441 . S
U46 O65 2.420 . S
U46 O66 2.455 . S
U46 O67 2.449 . S
O47 U46 2.454 . S
O47 C49 1.353 . S
O48 U46 2.458 . S
O48 C49 1.286 . S
C49 U46 2.984 . S
C49 O47 1.353 . S
C49 O48 1.286 . S
C49 C51 1.363 . S
C50 C40 1.465 . S
C50 U46 2.847 . S
C50 O64 1.249 . S
C50 O65 1.202 . S
C51 C49 1.363 . S
C51 C53 1.408 . S
C51 C56 1.342 . S
C52 C53 1.310 . S
C52 C55 1.461 . S
C52 H72 0.932 . S
C53 C51 1.408 . S
C53 C52 1.310 . S
C53 H73 0.930 . S
C54 C55 1.474 . S
C54 C56 1.285 . S
C54 H74 0.929 . S
C55 C52 1.461 . S
C55 C54 1.474 . S
C56 C51 1.342 . S
C56 C54 1.285 . S
C56 H75 0.930 . S
C57 C60 1.424 . S
C57 C62 1.245 . S
C57 C63 1.428 . S
C58 C61 1.260 . S
C58 C62 1.477 . S
C58 H76 0.932 . S
C59 C60 1.384 . S
C59 C61 1.479 . S
C59 H77 0.929 . S
C60 C57 1.424 . S
C60 C59 1.384 . S
C60 H78 0.928 . S
C61 C58 1.260 . S
C61 C59 1.479 . S
C62 C57 1.245 . S
C62 C58 1.477 . S
C62 H79 0.932 . S
C63 U46 2.882 . S
C63 C57 1.428 . S
C63 O66 1.301 . S
C63 O67 1.282 . S
O64 U46 2.441 . S
O64 C50 1.249 . S
O65 U46 2.420 . S
O65 C50 1.202 . S
O66 U46 2.455 . S
O66 C63 1.301 . S
O67 U46 2.449 . S
O67 C63 1.282 . S
H68 C41 0.931 . S
H69 C43 0.929 . S
H70 C44 0.930 . S
H71 C45 0.931 . S
H72 C52 0.932 . S
H73 C53 0.930 . S
H74 C54 0.929 . S
H75 C56 0.930 . S
H76 C58 0.932 . S
H77 C59 0.929 . S
H78 C60 0.928 . S
H79 C62 0.932 . S
C80 C81 1.264 . S
C80 C85 1.479 . S
C80 C90 1.465 . S
C81 C80 1.264 . S
C81 C83 1.339 . S
C81 H108 0.931 . S
C82 C83 1.395 . S
C82 C84 1.320 . S
C83 C81 1.339 . S
C83 C82 1.395 . S
C83 H109 0.929 . S
C84 C82 1.320 . S
C84 C85 1.405 . S
C84 H110 0.930 . S
C85 C80 1.479 . S
C85 C84 1.405 . S
C85 H111 0.931 . S
U86 O87 2.454 . S
U86 O88 2.458 . S
U86 C89 2.984 . S
U86 C90 2.847 . S
U86 C103 2.882 . S
U86 O104 2.441 . S
U86 O105 2.420 . S
U86 O106 2.455 . S
U86 O107 2.449 . S
O87 U86 2.454 . S
O87 C89 1.353 . S
O88 U86 2.458 . S
O88 C89 1.286 . S
C89 U86 2.984 . S
C89 O87 1.353 . S
C89 O88 1.286 . S
C89 C91 1.363 . S
C90 C80 1.465 . S
C90 U86 2.847 . S
C90 O104 1.249 . S
C90 O105 1.202 . S
C91 C89 1.363 . S
C91 C93 1.408 . S
C91 C96 1.342 . S
C92 C93 1.310 . S
C92 C95 1.461 . S
C92 H112 0.932 . S
C93 C91 1.408 . S
C93 C92 1.310 . S
C93 H113 0.930 . S
C94 C95 1.474 . S
C94 C96 1.285 . S
C94 H114 0.929 . S
C95 C92 1.461 . S
C95 C94 1.474 . S
C96 C91 1.342 . S
C96 C94 1.285 . S
C96 H115 0.930 . S
C97 C100 1.424 . S
C97 C102 1.245 . S
C97 C103 1.428 . S
C98 C101 1.260 . S
C98 C102 1.477 . S
C98 H116 0.932 . S
C99 C100 1.384 . S
C99 C101 1.479 . S
C99 H117 0.929 . S
C100 C97 1.424 . S
C100 C99 1.384 . S
C100 H118 0.928 . S
C101 C98 1.260 . S
C101 C99 1.479 . S
C102 C97 1.245 . S
C102 C98 1.477 . S
C102 H119 0.932 . S
C103 U86 2.882 . S
C103 C97 1.428 . S
C103 O106 1.301 . S
C103 O107 1.282 . S
O104 U86 2.441 . S
O104 C90 1.249 . S
O105 U86 2.420 . S
O105 C90 1.202 . S
O106 U86 2.455 . S
O106 C103 1.301 . S
O107 U86 2.449 . S
O107 C103 1.282 . S
H108 C81 0.931 . S
H109 C83 0.929 . S
H110 C84 0.930 . S
H111 C85 0.931 . S
H112 C92 0.932 . S
H113 C93 0.930 . S
H114 C94 0.929 . S
H115 C96 0.930 . S
H116 C98 0.932 . S
H117 C99 0.929 . S
H118 C100 0.928 . S
H119 C102 0.932 . S
C120 C121 1.264 . S
C120 C125 1.479 . S
C120 C130 1.465 . S
C121 C120 1.264 . S
C121 C123 1.339 . S
C121 H148 0.931 . S
C122 C123 1.395 . S
C122 C124 1.320 . S
C123 C121 1.339 . S
C123 C122 1.395 . S
C123 H149 0.929 . S
C124 C122 1.320 . S
C124 C125 1.405 . S
C124 H150 0.930 . S
C125 C120 1.479 . S
C125 C124 1.405 . S
C125 H151 0.931 . S
U126 O127 2.454 . S
U126 O128 2.458 . S
U126 C129 2.984 . S
U126 C130 2.847 . S
U126 C143 2.882 . S
U126 O144 2.441 . S
U126 O145 2.420 . S
U126 O146 2.455 . S
U126 O147 2.449 . S
O127 U126 2.454 . S
O127 C129 1.353 . S
O128 U126 2.458 . S
O128 C129 1.286 . S
C129 U126 2.984 . S
C129 O127 1.353 . S
C129 O128 1.286 . S
C129 C131 1.363 . S
C130 C120 1.465 . S
C130 U126 2.847 . S
C130 O144 1.249 . S
C130 O145 1.202 . S
C131 C129 1.363 . S
C131 C133 1.408 . S
C131 C136 1.342 . S
C132 C133 1.310 . S
C132 C135 1.461 . S
C132 H152 0.932 . S
C133 C131 1.408 . S
C133 C132 1.310 . S
C133 H153 0.930 . S
C134 C135 1.474 . S
C134 C136 1.285 . S
C134 H154 0.929 . S
C135 C132 1.461 . S
C135 C134 1.474 . S
C136 C131 1.342 . S
C136 C134 1.285 . S
C136 H155 0.930 . S
C137 C140 1.424 . S
C137 C142 1.245 . S
C137 C143 1.428 . S
C138 C141 1.260 . S
C138 C142 1.477 . S
C138 H156 0.932 . S
C139 C140 1.384 . S
C139 C141 1.479 . S
C139 H157 0.929 . S
C140 C137 1.424 . S
C140 C139 1.384 . S
C140 H158 0.928 . S
C141 C138 1.260 . S
C141 C139 1.479 . S
C142 C137 1.245 . S
C142 C138 1.477 . S
C142 H159 0.932 . S
C143 U126 2.882 . S
C143 C137 1.428 . S
C143 O146 1.301 . S
C143 O147 1.282 . S
O144 U126 2.441 . S
O144 C130 1.249 . S
O145 U126 2.420 . S
O145 C130 1.202 . S
O146 U126 2.455 . S
O146 C143 1.301 . S
O147 U126 2.449 . S
O147 C143 1.282 . S
H148 C121 0.931 . S
H149 C123 0.929 . S
H150 C124 0.930 . S
H151 C125 0.931 . S
H152 C132 0.932 . S
H153 C133 0.930 . S
H154 C134 0.929 . S
H155 C136 0.930 . S
H156 C138 0.932 . S
H157 C139 0.929 . S
H158 C140 0.928 . S
H159 C142 0.932 . S
C160 C161 1.264 . S
C160 C165 1.479 . S
C160 C170 1.465 . S
C161 C160 1.264 . S
C161 C163 1.339 . S
C161 H188 0.931 . S
C162 C163 1.395 . S
C162 C164 1.320 . S
C163 C161 1.339 . S
C163 C162 1.395 . S
C163 H189 0.929 . S
C164 C162 1.320 . S
C164 C165 1.405 . S
C164 H190 0.930 . S
C165 C160 1.479 . S
C165 C164 1.405 . S
C165 H191 0.931 . S
U166 O167 2.454 . S
U166 O168 2.458 . S
U166 C169 2.984 . S
U166 C170 2.847 . S
U166 C183 2.882 . S
U166 O184 2.441 . S
U166 O185 2.420 . S
U166 O186 2.455 . S
U166 O187 2.449 . S
O167 U166 2.454 . S
O167 C169 1.353 . S
O168 U166 2.458 . S
O168 C169 1.286 . S
C169 U166 2.984 . S
C169 O167 1.353 . S
C169 O168 1.286 . S
C169 C171 1.363 . S
C170 C160 1.465 . S
C170 U166 2.847 . S
C170 O184 1.249 . S
C170 O185 1.202 . S
C171 C169 1.363 . S
C171 C173 1.408 . S
C171 C176 1.342 . S
C172 C173 1.310 . S
C172 C175 1.461 . S
C172 H192 0.932 . S
C173 C171 1.408 . S
C173 C172 1.310 . S
C173 H193 0.930 . S
C174 C175 1.474 . S
C174 C176 1.285 . S
C174 H194 0.929 . S
C175 C172 1.461 . S
C175 C174 1.474 . S
C176 C171 1.342 . S
C176 C174 1.285 . S
C176 H195 0.930 . S
C177 C180 1.424 . S
C177 C182 1.245 . S
C177 C183 1.428 . S
C178 C181 1.260 . S
C178 C182 1.477 . S
C178 H196 0.932 . S
C179 C180 1.384 . S
C179 C181 1.479 . S
C179 H197 0.929 . S
C180 C177 1.424 . S
C180 C179 1.384 . S
C180 H198 0.928 . S
C181 C178 1.260 . S
C181 C179 1.479 . S
C182 C177 1.245 . S
C182 C178 1.477 . S
C182 H199 0.932 . S
C183 U166 2.882 . S
C183 C177 1.428 . S
C183 O186 1.301 . S
C183 O187 1.282 . S
O184 U166 2.441 . S
O184 C170 1.249 . S
O185 U166 2.420 . S
O185 C170 1.202 . S
O186 U166 2.455 . S
O186 C183 1.301 . S
O187 U166 2.449 . S
O187 C183 1.282 . S
H188 C161 0.931 . S
H189 C163 0.929 . S
H190 C164 0.930 . S
H191 C165 0.931 . S
H192 C172 0.932 . S
H193 C173 0.930 . S
H194 C174 0.929 . S
H195 C176 0.930 . S
H196 C178 0.932 . S
H197 C179 0.929 . S
H198 C180 0.928 . S
H199 C182 0.932 . S
C200 C201 1.264 . S
C200 C205 1.479 . S
C200 C210 1.465 . S
C201 C200 1.264 . S
C201 C203 1.339 . S
C201 H228 0.931 . S
C202 C203 1.395 . S
C202 C204 1.320 . S
C203 C201 1.339 . S
C203 C202 1.395 . S
C203 H229 0.929 . S
C204 C202 1.320 . S
C204 C205 1.405 . S
C204 H230 0.930 . S
C205 C200 1.479 . S
C205 C204 1.405 . S
C205 H231 0.931 . S
U206 O207 2.454 . S
U206 O208 2.458 . S
U206 C209 2.984 . S
U206 C210 2.847 . S
U206 C223 2.882 . S
U206 O224 2.441 . S
U206 O225 2.420 . S
U206 O226 2.455 . S
U206 O227 2.449 . S
O207 U206 2.454 . S
O207 C209 1.353 . S
O208 U206 2.458 . S
O208 C209 1.286 . S
C209 U206 2.984 . S
C209 O207 1.353 . S
C209 O208 1.286 . S
C209 C211 1.363 . S
C210 C200 1.465 . S
C210 U206 2.847 . S
C210 O224 1.249 . S
C210 O225 1.202 . S
C211 C209 1.363 . S
C211 C213 1.408 . S
C211 C216 1.342 . S
C212 C213 1.310 . S
C212 C215 1.461 . S
C212 H232 0.932 . S
C213 C211 1.408 . S
C213 C212 1.310 . S
C213 H233 0.930 . S
C214 C215 1.474 . S
C214 C216 1.285 . S
C214 H234 0.929 . S
C215 C212 1.461 . S
C215 C214 1.474 . S
C216 C211 1.342 . S
C216 C214 1.285 . S
C216 H235 0.930 . S
C217 C220 1.424 . S
C217 C222 1.245 . S
C217 C223 1.428 . S
C218 C221 1.260 . S
C218 C222 1.477 . S
C218 H236 0.932 . S
C219 C220 1.384 . S
C219 C221 1.479 . S
C219 H237 0.929 . S
C220 C217 1.424 . S
C220 C219 1.384 . S
C220 H238 0.928 . S
C221 C218 1.260 . S
C221 C219 1.479 . S
C222 C217 1.245 . S
C222 C218 1.477 . S
C222 H239 0.932 . S
C223 U206 2.882 . S
C223 C217 1.428 . S
C223 O226 1.301 . S
C223 O227 1.282 . S
O224 U206 2.441 . S
O224 C210 1.249 . S
O225 U206 2.420 . S
O225 C210 1.202 . S
O226 U206 2.455 . S
O226 C223 1.301 . S
O227 U206 2.449 . S
O227 C223 1.282 . S
H228 C201 0.931 . S
H229 C203 0.929 . S
H230 C204 0.930 . S
H231 C205 0.931 . S
H232 C212 0.932 . S
H233 C213 0.930 . S
H234 C214 0.929 . S
H235 C216 0.930 . S
H236 C218 0.932 . S
H237 C219 0.929 . S
H238 C220 0.928 . S
H239 C222 0.932 . S
C240 C241 1.264 . S
C240 C245 1.479 . S
C240 C250 1.465 . S
C241 C240 1.264 . S
C241 C243 1.339 . S
C241 H268 0.931 . S
C242 C243 1.395 . S
C242 C244 1.320 . S
C243 C241 1.339 . S
C243 C242 1.395 . S
C243 H269 0.929 . S
C244 C242 1.320 . S
C244 C245 1.405 . S
C244 H270 0.930 . S
C245 C240 1.479 . S
C245 C244 1.405 . S
C245 H271 0.931 . S
U246 O247 2.454 . S
U246 O248 2.458 . S
U246 C249 2.984 . S
U246 C250 2.847 . S
U246 C263 2.882 . S
U246 O264 2.441 . S
U246 O265 2.420 . S
U246 O266 2.455 . S
U246 O267 2.449 . S
O247 U246 2.454 . S
O247 C249 1.353 . S
O248 U246 2.458 . S
O248 C249 1.286 . S
C249 U246 2.984 . S
C249 O247 1.353 . S
C249 O248 1.286 . S
C249 C251 1.363 . S
C250 C240 1.465 . S
C250 U246 2.847 . S
C250 O264 1.249 . S
C250 O265 1.202 . S
C251 C249 1.363 . S
C251 C253 1.408 . S
C251 C256 1.342 . S
C252 C253 1.310 . S
C252 C255 1.461 . S
C252 H272 0.932 . S
C253 C251 1.408 . S
C253 C252 1.310 . S
C253 H273 0.930 . S
C254 C255 1.474 . S
C254 C256 1.285 . S
C254 H274 0.929 . S
C255 C252 1.461 . S
C255 C254 1.474 . S
C256 C251 1.342 . S
C256 C254 1.285 . S
C256 H275 0.930 . S
C257 C260 1.424 . S
C257 C262 1.245 . S
C257 C263 1.428 . S
C258 C261 1.260 . S
C258 C262 1.477 . S
C258 H276 0.932 . S
C259 C260 1.384 . S
C259 C261 1.479 . S
C259 H277 0.929 . S
C260 C257 1.424 . S
C260 C259 1.384 . S
C260 H278 0.928 . S
C261 C258 1.260 . S
C261 C259 1.479 . S
C262 C257 1.245 . S
C262 C258 1.477 . S
C262 H279 0.932 . S
C263 U246 2.882 . S
C263 C257 1.428 . S
C263 O266 1.301 . S
C263 O267 1.282 . S
O264 U246 2.441 . S
O264 C250 1.249 . S
O265 U246 2.420 . S
O265 C250 1.202 . S
O266 U246 2.455 . S
O266 C263 1.301 . S
O267 U246 2.449 . S
O267 C263 1.282 . S
H268 C241 0.931 . S
H269 C243 0.929 . S
H270 C244 0.930 . S
H271 C245 0.931 . S
H272 C252 0.932 . S
H273 C253 0.930 . S
H274 C254 0.929 . S
H275 C256 0.930 . S
H276 C258 0.932 . S
H277 C259 0.929 . S
H278 C260 0.928 . S
H279 C262 0.932 . S
C280 C281 1.264 . S
C280 C285 1.479 . S
C280 C290 1.465 . S
C281 C280 1.264 . S
C281 C283 1.339 . S
C281 H308 0.931 . S
C282 C283 1.395 . S
C282 C284 1.320 . S
C283 C281 1.339 . S
C283 C282 1.395 . S
C283 H309 0.929 . S
C284 C282 1.320 . S
C284 C285 1.405 . S
C284 H310 0.930 . S
C285 C280 1.479 . S
C285 C284 1.405 . S
C285 H311 0.931 . S
U286 O287 2.454 . S
U286 O288 2.458 . S
U286 C289 2.984 . S
U286 C290 2.847 . S
U286 C303 2.882 . S
U286 O304 2.441 . S
U286 O305 2.420 . S
U286 O306 2.455 . S
U286 O307 2.449 . S
O287 U286 2.454 . S
O287 C289 1.353 . S
O288 U286 2.458 . S
O288 C289 1.286 . S
C289 U286 2.984 . S
C289 O287 1.353 . S
C289 O288 1.286 . S
C289 C291 1.363 . S
C290 C280 1.465 . S
C290 U286 2.847 . S
C290 O304 1.249 . S
C290 O305 1.202 . S
C291 C289 1.363 . S
C291 C293 1.408 . S
C291 C296 1.342 . S
C292 C293 1.310 . S
C292 C295 1.461 . S
C292 H312 0.932 . S
C293 C291 1.408 . S
C293 C292 1.310 . S
C293 H313 0.930 . S
C294 C295 1.474 . S
C294 C296 1.285 . S
C294 H314 0.929 . S
C295 C292 1.461 . S
C295 C294 1.474 . S
C296 C291 1.342 . S
C296 C294 1.285 . S
C296 H315 0.930 . S
C297 C300 1.424 . S
C297 C302 1.245 . S
C297 C303 1.428 . S
C298 C301 1.260 . S
C298 C302 1.477 . S
C298 H316 0.932 . S
C299 C300 1.384 . S
C299 C301 1.479 . S
C299 H317 0.929 . S
C300 C297 1.424 . S
C300 C299 1.384 . S
C300 H318 0.928 . S
C301 C298 1.260 . S
C301 C299 1.479 . S
C302 C297 1.245 . S
C302 C298 1.477 . S
C302 H319 0.932 . S
C303 U286 2.882 . S
C303 C297 1.428 . S
C303 O306 1.301 . S
C303 O307 1.282 . S
O304 U286 2.441 . S
O304 C290 1.249 . S
O305 U286 2.420 . S
O305 C290 1.202 . S
O306 U286 2.455 . S
O306 C303 1.301 . S
O307 U286 2.449 . S
O307 C303 1.282 . S
H308 C281 0.931 . S
H309 C283 0.929 . S
H310 C284 0.930 . S
H311 C285 0.931 . S
H312 C292 0.932 . S
H313 C293 0.930 . S
H314 C294 0.929 . S
H315 C296 0.930 . S
H316 C298 0.932 . S
H317 C299 0.929 . S
H318 C300 0.928 . S
H319 C302 0.932 . S
C320 C321 1.264 . S
C320 C325 1.479 . S
C320 C330 1.465 . S
C321 C320 1.264 . S
C321 C323 1.339 . S
C321 H348 0.931 . S
C322 C323 1.395 . S
C322 C324 1.320 . S
C323 C321 1.339 . S
C323 C322 1.395 . S
C323 H349 0.929 . S
C324 C322 1.320 . S
C324 C325 1.405 . S
C324 H350 0.930 . S
C325 C320 1.479 . S
C325 C324 1.405 . S
C325 H351 0.931 . S
U326 O327 2.454 . S
U326 O328 2.458 . S
U326 C329 2.984 . S
U326 C330 2.847 . S
U326 C343 2.882 . S
U326 O344 2.441 . S
U326 O345 2.420 . S
U326 O346 2.455 . S
U326 O347 2.449 . S
O327 U326 2.454 . S
O327 C329 1.353 . S
O328 U326 2.458 . S
O328 C329 1.286 . S
C329 U326 2.984 . S
C329 O327 1.353 . S
C329 O328 1.286 . S
C329 C331 1.363 . S
C330 C320 1.465 . S
C330 U326 2.847 . S
C330 O344 1.249 . S
C330 O345 1.202 . S
C331 C329 1.363 . S
C331 C333 1.408 . S
C331 C336 1.342 . S
C332 C333 1.310 . S
C332 C335 1.461 . S
C332 H352 0.932 . S
C333 C331 1.408 . S
C333 C332 1.310 . S
C333 H353 0.930 . S
C334 C335 1.474 . S
C334 C336 1.285 . S
C334 H354 0.929 . S
C335 C332 1.461 . S
C335 C334 1.474 . S
C336 C331 1.342 . S
C336 C334 1.285 . S
C336 H355 0.930 . S
C337 C340 1.424 . S
C337 C342 1.245 . S
C337 C343 1.428 . S
C338 C341 1.260 . S
C338 C342 1.477 . S
C338 H356 0.932 . S
C339 C340 1.384 . S
C339 C341 1.479 . S
C339 H357 0.929 . S
C340 C337 1.424 . S
C340 C339 1.384 . S
C340 H358 0.928 . S
C341 C338 1.260 . S
C341 C339 1.479 . S
C342 C337 1.245 . S
C342 C338 1.477 . S
C342 H359 0.932 . S
C343 U326 2.882 . S
C343 C337 1.428 . S
C343 O346 1.301 . S
C343 O347 1.282 . S
O344 U326 2.441 . S
O344 C330 1.249 . S
O345 U326 2.420 . S
O345 C330 1.202 . S
O346 U326 2.455 . S
O346 C343 1.301 . S
O347 U326 2.449 . S
O347 C343 1.282 . S
H348 C321 0.931 . S
H349 C323 0.929 . S
H350 C324 0.930 . S
H351 C325 0.931 . S
H352 C332 0.932 . S
H353 C333 0.930 . S
H354 C334 0.929 . S
H355 C336 0.930 . S
H356 C338 0.932 . S
H357 C339 0.929 . S
H358 C340 0.928 . S
H359 C342 0.932 . S
C360 C361 1.264 . S
C360 C365 1.479 . S
C360 C370 1.465 . S
C361 C360 1.264 . S
C361 C363 1.339 . S
C361 H388 0.931 . S
C362 C363 1.395 . S
C362 C364 1.320 . S
C363 C361 1.339 . S
C363 C362 1.395 . S
C363 H389 0.929 . S
C364 C362 1.320 . S
C364 C365 1.405 . S
C364 H390 0.930 . S
C365 C360 1.479 . S
C365 C364 1.405 . S
C365 H391 0.931 . S
U366 O367 2.454 . S
U366 O368 2.458 . S
U366 C369 2.984 . S
U366 C370 2.847 . S
U366 C383 2.882 . S
U366 O384 2.441 . S
U366 O385 2.420 . S
U366 O386 2.455 . S
U366 O387 2.449 . S
O367 U366 2.454 . S
O367 C369 1.353 . S
O368 U366 2.458 . S
O368 C369 1.286 . S
C369 U366 2.984 . S
C369 O367 1.353 . S
C369 O368 1.286 . S
C369 C371 1.363 . S
C370 C360 1.465 . S
C370 U366 2.847 . S
C370 O384 1.249 . S
C370 O385 1.202 . S
C371 C369 1.363 . S
C371 C373 1.408 . S
C371 C376 1.342 . S
C372 C373 1.310 . S
C372 C375 1.461 . S
C372 H392 0.932 . S
C373 C371 1.408 . S
C373 C372 1.310 . S
C373 H393 0.930 . S
C374 C375 1.474 . S
C374 C376 1.285 . S
C374 H394 0.929 . S
C375 C372 1.461 . S
C375 C374 1.474 . S
C376 C371 1.342 . S
C376 C374 1.285 . S
C376 H395 0.930 . S
C377 C380 1.424 . S
C377 C382 1.245 . S
C377 C383 1.428 . S
C378 C381 1.260 . S
C378 C382 1.477 . S
C378 H396 0.932 . S
C379 C380 1.384 . S
C379 C381 1.479 . S
C379 H397 0.929 . S
C380 C377 1.424 . S
C380 C379 1.384 . S
C380 H398 0.928 . S
C381 C378 1.260 . S
C381 C379 1.479 . S
C382 C377 1.245 . S
C382 C378 1.477 . S
C382 H399 0.932 . S
C383 U366 2.882 . S
C383 C377 1.428 . S
C383 O386 1.301 . S
C383 O387 1.282 . S
O384 U366 2.441 . S
O384 C370 1.249 . S
O385 U366 2.420 . S
O385 C370 1.202 . S
O386 U366 2.455 . S
O386 C383 1.301 . S
O387 U366 2.449 . S
O387 C383 1.282 . S
H388 C361 0.931 . S
H389 C363 0.929 . S
H390 C364 0.930 . S
H391 C365 0.931 . S
H392 C372 0.932 . S
H393 C373 0.930 . S
H394 C374 0.929 . S
H395 C376 0.930 . S
H396 C378 0.932 . S
H397 C379 0.929 . S
H398 C380 0.928 . S
H399 C382 0.932 . S
C400 C401 1.264 . S
C400 C405 1.479 . S
C400 C410 1.465 . S
C401 C400 1.264 . S
C401 C403 1.339 . S
C401 H428 0.931 . S
C402 C403 1.395 . S
C402 C404 1.320 . S
C403 C401 1.339 . S
C403 C402 1.395 . S
C403 H429 0.929 . S
C404 C402 1.320 . S
C404 C405 1.405 . S
C404 H430 0.930 . S
C405 C400 1.479 . S
C405 C404 1.405 . S
C405 H431 0.931 . S
U406 O407 2.454 . S
U406 O408 2.458 . S
U406 C409 2.984 . S
U406 C410 2.847 . S
U406 C423 2.882 . S
U406 O424 2.441 . S
U406 O425 2.420 . S
U406 O426 2.455 . S
U406 O427 2.449 . S
O407 U406 2.454 . S
O407 C409 1.353 . S
O408 U406 2.458 . S
O408 C409 1.286 . S
C409 U406 2.984 . S
C409 O407 1.353 . S
C409 O408 1.286 . S
C409 C411 1.363 . S
C410 C400 1.465 . S
C410 U406 2.847 . S
C410 O424 1.249 . S
C410 O425 1.202 . S
C411 C409 1.363 . S
C411 C413 1.408 . S
C411 C416 1.342 . S
C412 C413 1.310 . S
C412 C415 1.461 . S
C412 H432 0.932 . S
C413 C411 1.408 . S
C413 C412 1.310 . S
C413 H433 0.930 . S
C414 C415 1.474 . S
C414 C416 1.285 . S
C414 H434 0.929 . S
C415 C412 1.461 . S
C415 C414 1.474 . S
C416 C411 1.342 . S
C416 C414 1.285 . S
C416 H435 0.930 . S
C417 C420 1.424 . S
C417 C422 1.245 . S
C417 C423 1.428 . S
C418 C421 1.260 . S
C418 C422 1.477 . S
C418 H436 0.932 . S
C419 C420 1.384 . S
C419 C421 1.479 . S
C419 H437 0.929 . S
C420 C417 1.424 . S
C420 C419 1.384 . S
C420 H438 0.928 . S
C421 C418 1.260 . S
C421 C419 1.479 . S
C422 C417 1.245 . S
C422 C418 1.477 . S
C422 H439 0.932 . S
C423 U406 2.882 . S
C423 C417 1.428 . S
C423 O426 1.301 . S
C423 O427 1.282 . S
O424 U406 2.441 . S
O424 C410 1.249 . S
O425 U406 2.420 . S
O425 C410 1.202 . S
O426 U406 2.455 . S
O426 C423 1.301 . S
O427 U406 2.449 . S
O427 C423 1.282 . S
H428 C401 0.931 . S
H429 C403 0.929 . S
H430 C404 0.930 . S
H431 C405 0.931 . S
H432 C412 0.932 . S
H433 C413 0.930 . S
H434 C414 0.929 . S
H435 C416 0.930 . S
H436 C418 0.932 . S
H437 C419 0.929 . S
H438 C420 0.928 . S
H439 C422 0.932 . S
C440 C441 1.264 . S
C440 C445 1.479 . S
C440 C450 1.465 . S
C441 C440 1.264 . S
C441 C443 1.339 . S
C441 H468 0.931 . S
C442 C443 1.395 . S
C442 C444 1.320 . S
C443 C441 1.339 . S
C443 C442 1.395 . S
C443 H469 0.929 . S
C444 C442 1.320 . S
C444 C445 1.405 . S
C444 H470 0.930 . S
C445 C440 1.479 . S
C445 C444 1.405 . S
C445 H471 0.931 . S
U446 O447 2.454 . S
U446 O448 2.458 . S
U446 C449 2.984 . S
U446 C450 2.847 . S
U446 C463 2.882 . S
U446 O464 2.441 . S
U446 O465 2.420 . S
U446 O466 2.455 . S
U446 O467 2.449 . S
O447 U446 2.454 . S
O447 C449 1.353 . S
O448 U446 2.458 . S
O448 C449 1.286 . S
C449 U446 2.984 . S
C449 O447 1.353 . S
C449 O448 1.286 . S
C449 C451 1.363 . S
C450 C440 1.465 . S
C450 U446 2.847 . S
C450 O464 1.249 . S
C450 O465 1.202 . S
C451 C449 1.363 . S
C451 C453 1.408 . S
C451 C456 1.342 . S
C452 C453 1.310 . S
C452 C455 1.461 . S
C452 H472 0.932 . S
C453 C451 1.408 . S
C453 C452 1.310 . S
C453 H473 0.930 . S
C454 C455 1.474 . S
C454 C456 1.285 . S
C454 H474 0.929 . S
C455 C452 1.461 . S
C455 C454 1.474 . S
C456 C451 1.342 . S
C456 C454 1.285 . S
C456 H475 0.930 . S
C457 C460 1.424 . S
C457 C462 1.245 . S
C457 C463 1.428 . S
C458 C461 1.260 . S
C458 C462 1.477 . S
C458 H476 0.932 . S
C459 C460 1.384 . S
C459 C461 1.479 . S
C459 H477 0.929 . S
C460 C457 1.424 . S
C460 C459 1.384 . S
C460 H478 0.928 . S
C461 C458 1.260 . S
C461 C459 1.479 . S
C462 C457 1.245 . S
C462 C458 1.477 . S
C462 H479 0.932 . S
C463 U446 2.882 . S
C463 C457 1.428 . S
C463 O466 1.301 . S
C463 O467 1.282 . S
O464 U446 2.441 . S
O464 C450 1.249 . S
O465 U446 2.420 . S
O465 C450 1.202 . S
O466 U446 2.455 . S
O466 C463 1.301 . S
O467 U446 2.449 . S
O467 C463 1.282 . S
H468 C441 0.931 . S
H469 C443 0.929 . S
H470 C444 0.930 . S
H471 C445 0.931 . S
H472 C452 0.932 . S
H473 C453 0.930 . S
H474 C454 0.929 . S
H475 C456 0.930 . S
H476 C458 0.932 . S
H477 C459 0.929 . S
H478 C460 0.928 . S
H479 C462 0.932 . S
C480 C481 1.264 . S
C480 C485 1.479 . S
C480 C490 1.465 . S
C481 C480 1.264 . S
C481 C483 1.339 . S
C481 H508 0.931 . S
C482 C483 1.395 . S
C482 C484 1.320 . S
C483 C481 1.339 . S
C483 C482 1.395 . S
C483 H509 0.929 . S
C484 C482 1.320 . S
C484 C485 1.405 . S
C484 H510 0.930 . S
C485 C480 1.479 . S
C485 C484 1.405 . S
C485 H511 0.931 . S
U486 O487 2.454 . S
U486 O488 2.458 . S
U486 C489 2.984 . S
U486 C490 2.847 . S
U486 C503 2.882 . S
U486 O504 2.441 . S
U486 O505 2.420 . S
U486 O506 2.455 . S
U486 O507 2.449 . S
O487 U486 2.454 . S
O487 C489 1.353 . S
O488 U486 2.458 . S
O488 C489 1.286 . S
C489 U486 2.984 . S
C489 O487 1.353 . S
C489 O488 1.286 . S
C489 C491 1.363 . S
C490 C480 1.465 . S
C490 U486 2.847 . S
C490 O504 1.249 . S
C490 O505 1.202 . S
C491 C489 1.363 . S
C491 C493 1.408 . S
C491 C496 1.342 . S
C492 C493 1.310 . S
C492 C495 1.461 . S
C492 H512 0.932 . S
C493 C491 1.408 . S
C493 C492 1.310 . S
C493 H513 0.930 . S
C494 C495 1.474 . S
C494 C496 1.285 . S
C494 H514 0.929 . S
C495 C492 1.461 . S
C495 C494 1.474 . S
C496 C491 1.342 . S
C496 C494 1.285 . S
C496 H515 0.930 . S
C497 C500 1.424 . S
C497 C502 1.245 . S
C497 C503 1.428 . S
C498 C501 1.260 . S
C498 C502 1.477 . S
C498 H516 0.932 . S
C499 C500 1.384 . S
C499 C501 1.479 . S
C499 H517 0.929 . S
C500 C497 1.424 . S
C500 C499 1.384 . S
C500 H518 0.928 . S
C501 C498 1.260 . S
C501 C499 1.479 . S
C502 C497 1.245 . S
C502 C498 1.477 . S
C502 H519 0.932 . S
C503 U486 2.882 . S
C503 C497 1.428 . S
C503 O506 1.301 . S
C503 O507 1.282 . S
O504 U486 2.441 . S
O504 C490 1.249 . S
O505 U486 2.420 . S
O505 C490 1.202 . S
O506 U486 2.455 . S
O506 C503 1.301 . S
O507 U486 2.449 . S
O507 C503 1.282 . S
H508 C481 0.931 . S
H509 C483 0.929 . S
H510 C484 0.930 . S
H511 C485 0.931 . S
H512 C492 0.932 . S
H513 C493 0.930 . S
H514 C494 0.929 . S
H515 C496 0.930 . S
H516 C498 0.932 . S
H517 C499 0.929 . S
H518 C500 0.928 . S
H519 C502 0.932 . S
C520 C521 1.264 . S
C520 C525 1.479 . S
C520 C530 1.465 . S
C521 C520 1.264 . S
C521 C523 1.339 . S
C521 H548 0.931 . S
C522 C523 1.395 . S
C522 C524 1.320 . S
C523 C521 1.339 . S
C523 C522 1.395 . S
C523 H549 0.929 . S
C524 C522 1.320 . S
C524 C525 1.405 . S
C524 H550 0.930 . S
C525 C520 1.479 . S
C525 C524 1.405 . S
C525 H551 0.931 . S
U526 O527 2.454 . S
U526 O528 2.458 . S
U526 C529 2.984 . S
U526 C530 2.847 . S
U526 C543 2.882 . S
U526 O544 2.441 . S
U526 O545 2.420 . S
U526 O546 2.455 . S
U526 O547 2.449 . S
O527 U526 2.454 . S
O527 C529 1.353 . S
O528 U526 2.458 . S
O528 C529 1.286 . S
C529 U526 2.984 . S
C529 O527 1.353 . S
C529 O528 1.286 . S
C529 C531 1.363 . S
C530 C520 1.465 . S
C530 U526 2.847 . S
C530 O544 1.249 . S
C530 O545 1.202 . S
C531 C529 1.363 . S
C531 C533 1.408 . S
C531 C536 1.342 . S
C532 C533 1.310 . S
C532 C535 1.461 . S
C532 H552 0.932 . S
C533 C531 1.408 . S
C533 C532 1.310 . S
C533 H553 0.930 . S
C534 C535 1.474 . S
C534 C536 1.285 . S
C534 H554 0.929 . S
C535 C532 1.461 . S
C535 C534 1.474 . S
C536 C531 1.342 . S
C536 C534 1.285 . S
C536 H555 0.930 . S
C537 C540 1.424 . S
C537 C542 1.245 . S
C537 C543 1.428 . S
C538 C541 1.260 . S
C538 C542 1.477 . S
C538 H556 0.932 . S
C539 C540 1.384 . S
C539 C541 1.479 . S
C539 H557 0.929 . S
C540 C537 1.424 . S
C540 C539 1.384 . S
C540 H558 0.928 . S
C541 C538 1.260 . S
C541 C539 1.479 . S
C542 C537 1.245 . S
C542 C538 1.477 . S
C542 H559 0.932 . S
C543 U526 2.882 . S
C543 C537 1.428 . S
C543 O546 1.301 . S
C543 O547 1.282 . S
O544 U526 2.441 . S
O544 C530 1.249 . S
O545 U526 2.420 . S
O545 C530 1.202 . S
O546 U526 2.455 . S
O546 C543 1.301 . S
O547 U526 2.449 . S
O547 C543 1.282 . S
H548 C521 0.931 . S
H549 C523 0.929 . S
H550 C524 0.930 . S
H551 C525 0.931 . S
H552 C532 0.932 . S
H553 C533 0.930 . S
H554 C534 0.929 . S
H555 C536 0.930 . S
H556 C538 0.932 . S
H557 C539 0.929 . S
H558 C540 0.928 . S
H559 C542 0.932 . S
C560 C561 1.264 . S
C560 C565 1.479 . S
C560 C570 1.465 . S
C561 C560 1.264 . S
C561 C563 1.339 . S
C561 H588 0.931 . S
C562 C563 1.395 . S
C562 C564 1.320 . S
C563 C561 1.339 . S
C563 C562 1.395 . S
C563 H589 0.929 . S
C564 C562 1.320 . S
C564 C565 1.405 . S
C564 H590 0.930 . S
C565 C560 1.479 . S
C565 C564 1.405 . S
C565 H591 0.931 . S
U566 O567 2.454 . S
U566 O568 2.458 . S
U566 C569 2.984 . S
U566 C570 2.847 . S
U566 C583 2.882 . S
U566 O584 2.441 . S
U566 O585 2.420 . S
U566 O586 2.455 . S
U566 O587 2.449 . S
O567 U566 2.454 . S
O567 C569 1.353 . S
O568 U566 2.458 . S
O568 C569 1.286 . S
C569 U566 2.984 . S
C569 O567 1.353 . S
C569 O568 1.286 . S
C569 C571 1.363 . S
C570 C560 1.465 . S
C570 U566 2.847 . S
C570 O584 1.249 . S
C570 O585 1.202 . S
C571 C569 1.363 . S
C571 C573 1.408 . S
C571 C576 1.342 . S
C572 C573 1.310 . S
C572 C575 1.461 . S
C572 H592 0.932 . S
C573 C571 1.408 . S
C573 C572 1.310 . S
C573 H593 0.930 . S
C574 C575 1.474 . S
C574 C576 1.285 . S
C574 H594 0.929 . S
C575 C572 1.461 . S
C575 C574 1.474 . S
C576 C571 1.342 . S
C576 C574 1.285 . S
C576 H595 0.930 . S
C577 C580 1.424 . S
C577 C582 1.245 . S
C577 C583 1.428 . S
C578 C581 1.260 . S
C578 C582 1.477 . S
C578 H596 0.932 . S
C579 C580 1.384 . S
C579 C581 1.479 . S
C579 H597 0.929 . S
C580 C577 1.424 . S
C580 C579 1.384 . S
C580 H598 0.928 . S
C581 C578 1.260 . S
C581 C579 1.479 . S
C582 C577 1.245 . S
C582 C578 1.477 . S
C582 H599 0.932 . S
C583 U566 2.882 . S
C583 C577 1.428 . S
C583 O586 1.301 . S
C583 O587 1.282 . S
O584 U566 2.441 . S
O584 C570 1.249 . S
O585 U566 2.420 . S
O585 C570 1.202 . S
O586 U566 2.455 . S
O586 C583 1.301 . S
O587 U566 2.449 . S
O587 C583 1.282 . S
H588 C561 0.931 . S
H589 C563 0.929 . S
H590 C564 0.930 . S
H591 C565 0.931 . S
H592 C572 0.932 . S
H593 C573 0.930 . S
H594 C574 0.929 . S
H595 C576 0.930 . S
H596 C578 0.932 . S
H597 C579 0.929 . S
H598 C580 0.928 . S
H599 C582 0.932 . S
C600 C601 1.264 . S
C600 C605 1.479 . S
C600 C610 1.465 . S
C601 C600 1.264 . S
C601 C603 1.339 . S
C601 H628 0.931 . S
C602 C603 1.395 . S
C602 C604 1.320 . S
C603 C601 1.339 . S
C603 C602 1.395 . S
C603 H629 0.929 . S
C604 C602 1.320 . S
C604 C605 1.405 . S
C604 H630 0.930 . S
C605 C600 1.479 . S
C605 C604 1.405 . S
C605 H631 0.931 . S
U606 O607 2.454 . S
U606 O608 2.458 . S
U606 C609 2.984 . S
U606 C610 2.847 . S
U606 C623 2.882 . S
U606 O624 2.441 . S
U606 O625 2.420 . S
U606 O626 2.455 . S
U606 O627 2.449 . S
O607 U606 2.454 . S
O607 C609 1.353 . S
O608 U606 2.458 . S
O608 C609 1.286 . S
C609 U606 2.984 . S
C609 O607 1.353 . S
C609 O608 1.286 . S
C609 C611 1.363 . S
C610 C600 1.465 . S
C610 U606 2.847 . S
C610 O624 1.249 . S
C610 O625 1.202 . S
C611 C609 1.363 . S
C611 C613 1.408 . S
C611 C616 1.342 . S
C612 C613 1.310 . S
C612 C615 1.461 . S
C612 H632 0.932 . S
C613 C611 1.408 . S
C613 C612 1.310 . S
C613 H633 0.930 . S
C614 C615 1.474 . S
C614 C616 1.285 . S
C614 H634 0.929 . S
C615 C612 1.461 . S
C615 C614 1.474 . S
C616 C611 1.342 . S
C616 C614 1.285 . S
C616 H635 0.930 . S
C617 C620 1.424 . S
C617 C622 1.245 . S
C617 C623 1.428 . S
C618 C621 1.260 . S
C618 C622 1.477 . S
C618 H636 0.932 . S
C619 C620 1.384 . S
C619 C621 1.479 . S
C619 H637 0.929 . S
C620 C617 1.424 . S
C620 C619 1.384 . S
C620 H638 0.928 . S
C621 C618 1.260 . S
C621 C619 1.479 . S
C622 C617 1.245 . S
C622 C618 1.477 . S
C622 H639 0.932 . S
C623 U606 2.882 . S
C623 C617 1.428 . S
C623 O626 1.301 . S
C623 O627 1.282 . S
O624 U606 2.441 . S
O624 C610 1.249 . S
O625 U606 2.420 . S
O625 C610 1.202 . S
O626 U606 2.455 . S
O626 C623 1.301 . S
O627 U606 2.449 . S
O627 C623 1.282 . S
H628 C601 0.931 . S
H629 C603 0.929 . S
H630 C604 0.930 . S
H631 C605 0.931 . S
H632 C612 0.932 . S
H633 C613 0.930 . S
H634 C614 0.929 . S
H635 C616 0.930 . S
H636 C618 0.932 . S
H637 C619 0.929 . S
H638 C620 0.928 . S
H639 C622 0.932 . S
C640 C641 1.264 . S
C640 C645 1.479 . S
C640 C650 1.465 . S
C641 C640 1.264 . S
C641 C643 1.339 . S
C641 H668 0.931 . S
C642 C643 1.395 . S
C642 C644 1.320 . S
C643 C641 1.339 . S
C643 C642 1.395 . S
C643 H669 0.929 . S
C644 C642 1.320 . S
C644 C645 1.405 . S
C644 H670 0.930 . S
C645 C640 1.479 . S
C645 C644 1.405 . S
C645 H671 0.931 . S
U646 O647 2.454 . S
U646 O648 2.458 . S
U646 C649 2.984 . S
U646 C650 2.847 . S
U646 C663 2.882 . S
U646 O664 2.441 . S
U646 O665 2.420 . S
U646 O666 2.455 . S
U646 O667 2.449 . S
O647 U646 2.454 . S
O647 C649 1.353 . S
O648 U646 2.458 . S
O648 C649 1.286 . S
C649 U646 2.984 . S
C649 O647 1.353 . S
C649 O648 1.286 . S
C649 C651 1.363 . S
C650 C640 1.465 . S
C650 U646 2.847 . S
C650 O664 1.249 . S
C650 O665 1.202 . S
C651 C649 1.363 . S
C651 C653 1.408 . S
C651 C656 1.342 . S
C652 C653 1.310 . S
C652 C655 1.461 . S
C652 H672 0.932 . S
C653 C651 1.408 . S
C653 C652 1.310 . S
C653 H673 0.930 . S
C654 C655 1.474 . S
C654 C656 1.285 . S
C654 H674 0.929 . S
C655 C652 1.461 . S
C655 C654 1.474 . S
C656 C651 1.342 . S
C656 C654 1.285 . S
C656 H675 0.930 . S
C657 C660 1.424 . S
C657 C662 1.245 . S
C657 C663 1.428 . S
C658 C661 1.260 . S
C658 C662 1.477 . S
C658 H676 0.932 . S
C659 C660 1.384 . S
C659 C661 1.479 . S
C659 H677 0.929 . S
C660 C657 1.424 . S
C660 C659 1.384 . S
C660 H678 0.928 . S
C661 C658 1.260 . S
C661 C659 1.479 . S
C662 C657 1.245 . S
C662 C658 1.477 . S
C662 H679 0.932 . S
C663 U646 2.882 . S
C663 C657 1.428 . S
C663 O666 1.301 . S
C663 O667 1.282 . S
O664 U646 2.441 . S
O664 C650 1.249 . S
O665 U646 2.420 . S
O665 C650 1.202 . S
O666 U646 2.455 . S
O666 C663 1.301 . S
O667 U646 2.449 . S
O667 C663 1.282 . S
H668 C641 0.931 . S
H669 C643 0.929 . S
H670 C644 0.930 . S
H671 C645 0.931 . S
H672 C652 0.932 . S
H673 C653 0.930 . S
H674 C654 0.929 . S
H675 C656 0.930 . S
H676 C658 0.932 . S
H677 C659 0.929 . S
H678 C660 0.928 . S
H679 C662 0.932 . S
C680 C681 1.264 . S
C680 C685 1.479 . S
C680 C690 1.465 . S
C681 C680 1.264 . S
C681 C683 1.339 . S
C681 H708 0.931 . S
C682 C683 1.395 . S
C682 C684 1.320 . S
C683 C681 1.339 . S
C683 C682 1.395 . S
C683 H709 0.929 . S
C684 C682 1.320 . S
C684 C685 1.405 . S
C684 H710 0.930 . S
C685 C680 1.479 . S
C685 C684 1.405 . S
C685 H711 0.931 . S
U686 O687 2.454 . S
U686 O688 2.458 . S
U686 C689 2.984 . S
U686 C690 2.847 . S
U686 C703 2.882 . S
U686 O704 2.441 . S
U686 O705 2.420 . S
U686 O706 2.455 . S
U686 O707 2.449 . S
O687 U686 2.454 . S
O687 C689 1.353 . S
O688 U686 2.458 . S
O688 C689 1.286 . S
C689 U686 2.984 . S
C689 O687 1.353 . S
C689 O688 1.286 . S
C689 C691 1.363 . S
C690 C680 1.465 . S
C690 U686 2.847 . S
C690 O704 1.249 . S
C690 O705 1.202 . S
C691 C689 1.363 . S
C691 C693 1.408 . S
C691 C696 1.342 . S
C692 C693 1.310 . S
C692 C695 1.461 . S
C692 H712 0.932 . S
C693 C691 1.408 . S
C693 C692 1.310 . S
C693 H713 0.930 . S
C694 C695 1.474 . S
C694 C696 1.285 . S
C694 H714 0.929 . S
C695 C692 1.461 . S
C695 C694 1.474 . S
C696 C691 1.342 . S
C696 C694 1.285 . S
C696 H715 0.930 . S
C697 C700 1.424 . S
C697 C702 1.245 . S
C697 C703 1.428 . S
C698 C701 1.260 . S
C698 C702 1.477 . S
C698 H716 0.932 . S
C699 C700 1.384 . S
C699 C701 1.479 . S
C699 H717 0.929 . S
C700 C697 1.424 . S
C700 C699 1.384 . S
C700 H718 0.928 . S
C701 C698 1.260 . S
C701 C699 1.479 . S
C702 C697 1.245 . S
C702 C698 1.477 . S
C702 H719 0.932 . S
C703 U686 2.882 . S
C703 C697 1.428 . S
C703 O706 1.301 . S
C703 O707 1.282 . S
O704 U686 2.441 . S
O704 C690 1.249 . S
O705 U686 2.420 . S
O705 C690 1.202 . S
O706 U686 2.455 . S
O706 C703 1.301 . S
O707 U686 2.449 . S
O707 C703 1.282 . S
H708 C681 0.931 . S
H709 C683 0.929 . S
H710 C684 0.930 . S
H711 C685 0.931 . S
H712 C692 0.932 . S
H713 C693 0.930 . S
H714 C694 0.929 . S
H715 C696 0.930 . S
H716 C698 0.932 . S
H717 C699 0.929 . S
H718 C700 0.928 . S
H719 C702 0.932 . S
C720 C721 1.264 . S
C720 C725 1.479 . S
C720 C730 1.465 . S
C721 C720 1.264 . S
C721 C723 1.339 . S
C721 H748 0.931 . S
C722 C723 1.395 . S
C722 C724 1.320 . S
C723 C721 1.339 . S
C723 C722 1.395 . S
C723 H749 0.929 . S
C724 C722 1.320 . S
C724 C725 1.405 . S
C724 H750 0.930 . S
C725 C720 1.479 . S
C725 C724 1.405 . S
C725 H751 0.931 . S
U726 O727 2.454 . S
U726 O728 2.458 . S
U726 C729 2.984 . S
U726 C730 2.847 . S
U726 C743 2.882 . S
U726 O744 2.441 . S
U726 O745 2.420 . S
U726 O746 2.455 . S
U726 O747 2.449 . S
O727 U726 2.454 . S
O727 C729 1.353 . S
O728 U726 2.458 . S
O728 C729 1.286 . S
C729 U726 2.984 . S
C729 O727 1.353 . S
C729 O728 1.286 . S
C729 C731 1.363 . S
C730 C720 1.465 . S
C730 U726 2.847 . S
C730 O744 1.249 . S
C730 O745 1.202 . S
C731 C729 1.363 . S
C731 C733 1.408 . S
C731 C736 1.342 . S
C732 C733 1.310 . S
C732 C735 1.461 . S
C732 H752 0.932 . S
C733 C731 1.408 . S
C733 C732 1.310 . S
C733 H753 0.930 . S
C734 C735 1.474 . S
C734 C736 1.285 . S
C734 H754 0.929 . S
C735 C732 1.461 . S
C735 C734 1.474 . S
C736 C731 1.342 . S
C736 C734 1.285 . S
C736 H755 0.930 . S
C737 C740 1.424 . S
C737 C742 1.245 . S
C737 C743 1.428 . S
C738 C741 1.260 . S
C738 C742 1.477 . S
C738 H756 0.932 . S
C739 C740 1.384 . S
C739 C741 1.479 . S
C739 H757 0.929 . S
C740 C737 1.424 . S
C740 C739 1.384 . S
C740 H758 0.928 . S
C741 C738 1.260 . S
C741 C739 1.479 . S
C742 C737 1.245 . S
C742 C738 1.477 . S
C742 H759 0.932 . S
C743 U726 2.882 . S
C743 C737 1.428 . S
C743 O746 1.301 . S
C743 O747 1.282 . S
O744 U726 2.441 . S
O744 C730 1.249 . S
O745 U726 2.420 . S
O745 C730 1.202 . S
O746 U726 2.455 . S
O746 C743 1.301 . S
O747 U726 2.449 . S
O747 C743 1.282 . S
H748 C721 0.931 . S
H749 C723 0.929 . S
H750 C724 0.930 . S
H751 C725 0.931 . S
H752 C732 0.932 . S
H753 C733 0.930 . S
H754 C734 0.929 . S
H755 C736 0.930 . S
H756 C738 0.932 . S
H757 C739 0.929 . S
H758 C740 0.928 . S
H759 C742 0.932 . S
C760 C761 1.264 . S
C760 C765 1.479 . S
C760 C770 1.465 . S
C761 C760 1.264 . S
C761 C763 1.339 . S
C761 H788 0.931 . S
C762 C763 1.395 . S
C762 C764 1.320 . S
C763 C761 1.339 . S
C763 C762 1.395 . S
C763 H789 0.929 . S
C764 C762 1.320 . S
C764 C765 1.405 . S
C764 H790 0.930 . S
C765 C760 1.479 . S
C765 C764 1.405 . S
C765 H791 0.931 . S
U766 O767 2.454 . S
U766 O768 2.458 . S
U766 C769 2.984 . S
U766 C770 2.847 . S
U766 C783 2.882 . S
U766 O784 2.441 . S
U766 O785 2.420 . S
U766 O786 2.455 . S
U766 O787 2.449 . S
O767 U766 2.454 . S
O767 C769 1.353 . S
O768 U766 2.458 . S
O768 C769 1.286 . S
C769 U766 2.984 . S
C769 O767 1.353 . S
C769 O768 1.286 . S
C769 C771 1.363 . S
C770 C760 1.465 . S
C770 U766 2.847 . S
C770 O784 1.249 . S
C770 O785 1.202 . S
C771 C769 1.363 . S
C771 C773 1.408 . S
C771 C776 1.342 . S
C772 C773 1.310 . S
C772 C775 1.461 . S
C772 H792 0.932 . S
C773 C771 1.408 . S
C773 C772 1.310 . S
C773 H793 0.930 . S
C774 C775 1.474 . S
C774 C776 1.285 . S
C774 H794 0.929 . S
C775 C772 1.461 . S
C775 C774 1.474 . S
C776 C771 1.342 . S
C776 C774 1.285 . S
C776 H795 0.930 . S
C777 C780 1.424 . S
C777 C782 1.245 . S
C777 C783 1.428 . S
C778 C781 1.260 . S
C778 C782 1.477 . S
C778 H796 0.932 . S
C779 C780 1.384 . S
C779 C781 1.479 . S
C779 H797 0.929 . S
C780 C777 1.424 . S
C780 C779 1.384 . S
C780 H798 0.928 . S
C781 C778 1.260 . S
C781 C779 1.479 . S
C782 C777 1.245 . S
C782 C778 1.477 . S
C782 H799 0.932 . S
C783 U766 2.882 . S
C783 C777 1.428 . S
C783 O786 1.301 . S
C783 O787 1.282 . S
O784 U766 2.441 . S
O784 C770 1.249 . S
O785 U766 2.420 . S
O785 C770 1.202 . S
O786 U766 2.455 . S
O786 C783 1.301 . S
O787 U766 2.449 . S
O787 C783 1.282 . S
H788 C761 0.931 . S
H789 C763 0.929 . S
H790 C764 0.930 . S
H791 C765 0.931 . S
H792 C772 0.932 . S
H793 C773 0.930 . S
H794 C774 0.929 . S
H795 C776 0.930 . S
H796 C778 0.932 . S
H797 C779 0.929 . S
H798 C780 0.928 . S
H799 C782 0.932 . S
C800 C801 1.264 . S
C800 C805 1.479 . S
C800 C810 1.465 . S
C801 C800 1.264 . S
C801 C803 1.339 . S
C801 H828 0.931 . S
C802 C803 1.395 . S
C802 C804 1.320 . S
C803 C801 1.339 . S
C803 C802 1.395 . S
C803 H829 0.929 . S
C804 C802 1.320 . S
C804 C805 1.405 . S
C804 H830 0.930 . S
C805 C800 1.479 . S
C805 C804 1.405 . S
C805 H831 0.931 . S
U806 O807 2.454 . S
U806 O808 2.458 . S
U806 C809 2.984 . S
U806 C810 2.847 . S
U806 C823 2.882 . S
U806 O824 2.441 . S
U806 O825 2.420 . S
U806 O826 2.455 . S
U806 O827 2.449 . S
O807 U806 2.454 . S
O807 C809 1.353 . S
O808 U806 2.458 . S
O808 C809 1.286 . S
C809 U806 2.984 . S
C809 O807 1.353 . S
C809 O808 1.286 . S
C809 C811 1.363 . S
C810 C800 1.465 . S
C810 U806 2.847 . S
C810 O824 1.249 . S
C810 O825 1.202 . S
C811 C809 1.363 . S
C811 C813 1.408 . S
C811 C816 1.342 . S
C812 C813 1.310 . S
C812 C815 1.461 . S
C812 H832 0.932 . S
C813 C811 1.408 . S
C813 C812 1.310 . S
C813 H833 0.930 . S
C814 C815 1.474 . S
C814 C816 1.285 . S
C814 H834 0.929 . S
C815 C812 1.461 . S
C815 C814 1.474 . S
C816 C811 1.342 . S
C816 C814 1.285 . S
C816 H835 0.930 . S
C817 C820 1.424 . S
C817 C822 1.245 . S
C817 C823 1.428 . S
C818 C821 1.260 . S
C818 C822 1.477 . S
C818 H836 0.932 . S
C819 C820 1.384 . S
C819 C821 1.479 . S
C819 H837 0.929 . S
C820 C817 1.424 . S
C820 C819 1.384 . S
C820 H838 0.928 . S
C821 C818 1.260 . S
C821 C819 1.479 . S
C822 C817 1.245 . S
C822 C818 1.477 . S
C822 H839 0.932 . S
C823 U806 2.882 . S
C823 C817 1.428 . S
C823 O826 1.301 . S
C823 O827 1.282 . S
O824 U806 2.441 . S
O824 C810 1.249 . S
O825 U806 2.420 . S
O825 C810 1.202 . S
O826 U806 2.455 . S
O826 C823 1.301 . S
O827 U806 2.449 . S
O827 C823 1.282 . S
H828 C801 0.931 . S
H829 C803 0.929 . S
H830 C804 0.930 . S
H831 C805 0.931 . S
H832 C812 0.932 . S
H833 C813 0.930 . S
H834 C814 0.929 . S
H835 C816 0.930 . S
H836 C818 0.932 . S
H837 C819 0.929 . S
H838 C820 0.928 . S
H839 C822 0.932 . S
C840 C841 1.264 . S
C840 C845 1.479 . S
C840 C850 1.465 . S
C841 C840 1.264 . S
C841 C843 1.339 . S
C841 H868 0.931 . S
C842 C843 1.395 . S
C842 C844 1.320 . S
C843 C841 1.339 . S
C843 C842 1.395 . S
C843 H869 0.929 . S
C844 C842 1.320 . S
C844 C845 1.405 . S
C844 H870 0.930 . S
C845 C840 1.479 . S
C845 C844 1.405 . S
C845 H871 0.931 . S
U846 O847 2.454 . S
U846 O848 2.458 . S
U846 C849 2.984 . S
U846 C850 2.847 . S
U846 C863 2.882 . S
U846 O864 2.441 . S
U846 O865 2.420 . S
U846 O866 2.455 . S
U846 O867 2.449 . S
O847 U846 2.454 . S
O847 C849 1.353 . S
O848 U846 2.458 . S
O848 C849 1.286 . S
C849 U846 2.984 . S
C849 O847 1.353 . S
C849 O848 1.286 . S
C849 C851 1.363 . S
C850 C840 1.465 . S
C850 U846 2.847 . S
C850 O864 1.249 . S
C850 O865 1.202 . S
C851 C849 1.363 . S
C851 C853 1.408 . S
C851 C856 1.342 . S
C852 C853 1.310 . S
C852 C855 1.461 . S
C852 H872 0.932 . S
C853 C851 1.408 . S
C853 C852 1.310 . S
C853 H873 0.930 . S
C854 C855 1.474 . S
C854 C856 1.285 . S
C854 H874 0.929 . S
C855 C852 1.461 . S
C855 C854 1.474 . S
C856 C851 1.342 . S
C856 C854 1.285 . S
C856 H875 0.930 . S
C857 C860 1.424 . S
C857 C862 1.245 . S
C857 C863 1.428 . S
C858 C861 1.260 . S
C858 C862 1.477 . S
C858 H876 0.932 . S
C859 C860 1.384 . S
C859 C861 1.479 . S
C859 H877 0.929 . S
C860 C857 1.424 . S
C860 C859 1.384 . S
C860 H878 0.928 . S
C861 C858 1.260 . S
C861 C859 1.479 . S
C862 C857 1.245 . S
C862 C858 1.477 . S
C862 H879 0.932 . S
C863 U846 2.882 . S
C863 C857 1.428 . S
C863 O866 1.301 . S
C863 O867 1.282 . S
O864 U846 2.441 . S
O864 C850 1.249 . S
O865 U846 2.420 . S
O865 C850 1.202 . S
O866 U846 2.455 . S
O866 C863 1.301 . S
O867 U846 2.449 . S
O867 C863 1.282 . S
H868 C841 0.931 . S
H869 C843 0.929 . S
H870 C844 0.930 . S
H871 C845 0.931 . S
H872 C852 0.932 . S
H873 C853 0.930 . S
H874 C854 0.929 . S
H875 C856 0.930 . S
H876 C858 0.932 . S
H877 C859 0.929 . S
H878 C860 0.928 . S
H879 C862 0.932 . S
C880 C881 1.264 . S
C880 C885 1.479 . S
C880 C890 1.465 . S
C881 C880 1.264 . S
C881 C883 1.339 . S
C881 H908 0.931 . S
C882 C883 1.395 . S
C882 C884 1.320 . S
C883 C881 1.339 . S
C883 C882 1.395 . S
C883 H909 0.929 . S
C884 C882 1.320 . S
C884 C885 1.405 . S
C884 H910 0.930 . S
C885 C880 1.479 . S
C885 C884 1.405 . S
C885 H911 0.931 . S
U886 O887 2.454 . S
U886 O888 2.458 . S
U886 C889 2.984 . S
U886 C890 2.847 . S
U886 C903 2.882 . S
U886 O904 2.441 . S
U886 O905 2.420 . S
U886 O906 2.455 . S
U886 O907 2.449 . S
O887 U886 2.454 . S
O887 C889 1.353 . S
O888 U886 2.458 . S
O888 C889 1.286 . S
C889 U886 2.984 . S
C889 O887 1.353 . S
C889 O888 1.286 . S
C889 C891 1.363 . S
C890 C880 1.465 . S
C890 U886 2.847 . S
C890 O904 1.249 . S
C890 O905 1.202 . S
C891 C889 1.363 . S
C891 C893 1.408 . S
C891 C896 1.342 . S
C892 C893 1.310 . S
C892 C895 1.461 . S
C892 H912 0.932 . S
C893 C891 1.408 . S
C893 C892 1.310 . S
C893 H913 0.930 . S
C894 C895 1.474 . S
C894 C896 1.285 . S
C894 H914 0.929 . S
C895 C892 1.461 . S
C895 C894 1.474 . S
C896 C891 1.342 . S
C896 C894 1.285 . S
C896 H915 0.930 . S
C897 C900 1.424 . S
C897 C902 1.245 . S
C897 C903 1.428 . S
C898 C901 1.260 . S
C898 C902 1.477 . S
C898 H916 0.932 . S
C899 C900 1.384 . S
C899 C901 1.479 . S
C899 H917 0.929 . S
C900 C897 1.424 . S
C900 C899 1.384 . S
C900 H918 0.928 . S
C901 C898 1.260 . S
C901 C899 1.479 . S
C902 C897 1.245 . S
C902 C898 1.477 . S
C902 H919 0.932 . S
C903 U886 2.882 . S
C903 C897 1.428 . S
C903 O906 1.301 . S
C903 O907 1.282 . S
O904 U886 2.441 . S
O904 C890 1.249 . S
O905 U886 2.420 . S
O905 C890 1.202 . S
O906 U886 2.455 . S
O906 C903 1.301 . S
O907 U886 2.449 . S
O907 C903 1.282 . S
H908 C881 0.931 . S
H909 C883 0.929 . S
H910 C884 0.930 . S
H911 C885 0.931 . S
H912 C892 0.932 . S
H913 C893 0.930 . S
H914 C894 0.929 . S
H915 C896 0.930 . S
H916 C898 0.932 . S
H917 C899 0.929 . S
H918 C900 0.928 . S
H919 C902 0.932 . S
C920 C921 1.264 . S
C920 C925 1.479 . S
C920 C930 1.465 . S
C921 C920 1.264 . S
C921 C923 1.339 . S
C921 H948 0.931 . S
C922 C923 1.395 . S
C922 C924 1.320 . S
C923 C921 1.339 . S
C923 C922 1.395 . S
C923 H949 0.929 . S
C924 C922 1.320 . S
C924 C925 1.405 . S
C924 H950 0.930 . S
C925 C920 1.479 . S
C925 C924 1.405 . S
C925 H951 0.931 . S
U926 O927 2.454 . S
U926 O928 2.458 . S
U926 C929 2.984 . S
U926 C930 2.847 . S
U926 C943 2.882 . S
U926 O944 2.441 . S
U926 O945 2.420 . S
U926 O946 2.455 . S
U926 O947 2.449 . S
O927 U926 2.454 . S
O927 C929 1.353 . S
O928 U926 2.458 . S
O928 C929 1.286 . S
C929 U926 2.984 . S
C929 O927 1.353 . S
C929 O928 1.286 . S
C929 C931 1.363 . S
C930 C920 1.465 . S
C930 U926 2.847 . S
C930 O944 1.249 . S
C930 O945 1.202 . S
C931 C929 1.363 . S
C931 C933 1.408 . S
C931 C936 1.342 . S
C932 C933 1.310 . S
C932 C935 1.461 . S
C932 H952 0.932 . S
C933 C931 1.408 . S
C933 C932 1.310 . S
C933 H953 0.930 . S
C934 C935 1.474 . S
C934 C936 1.285 . S
C934 H954 0.929 . S
C935 C932 1.461 . S
C935 C934 1.474 . S
C936 C931 1.342 . S
C936 C934 1.285 . S
C936 H955 0.930 . S
C937 C940 1.424 . S
C937 C942 1.245 . S
C937 C943 1.428 . S
C938 C941 1.260 . S
C938 C942 1.477 . S
C938 H956 0.932 . S
C939 C940 1.384 . S
C939 C941 1.479 . S
C939 H957 0.929 . S
C940 C937 1.424 . S
C940 C939 1.384 . S
C940 H958 0.928 . S
C941 C938 1.260 . S
C941 C939 1.479 . S
C942 C937 1.245 . S
C942 C938 1.477 . S
C942 H959 0.932 . S
C943 U926 2.882 . S
C943 C937 1.428 . S
C943 O946 1.301 . S
C943 O947 1.282 . S
O944 U926 2.441 . S
O944 C930 1.249 . S
O945 U926 2.420 . S
O945 C930 1.202 . S
O946 U926 2.455 . S
O946 C943 1.301 . S
O947 U926 2.449 . S
O947 C943 1.282 . S
H948 C921 0.931 . S
H949 C923 0.929 . S
H950 C924 0.930 . S
H951 C925 0.931 . S
H952 C932 0.932 . S
H953 C933 0.930 . S
H954 C934 0.929 . S
H955 C936 0.930 . S
H956 C938 0.932 . S
H957 C939 0.929 . S
H958 C940 0.928 . S
H959 C942 0.932 . S
C960 C961 1.264 . S
C960 C965 1.479 . S
C960 C970 1.465 . S
C961 C960 1.264 . S
C961 C963 1.339 . S
C961 H988 0.931 . S
C962 C963 1.395 . S
C962 C964 1.320 . S
C963 C961 1.339 . S
C963 C962 1.395 . S
C963 H989 0.929 . S
C964 C962 1.320 . S
C964 C965 1.405 . S
C964 H990 0.930 . S
C965 C960 1.479 . S
C965 C964 1.405 . S
C965 H991 0.931 . S
U966 O967 2.454 . S
U966 O968 2.458 . S
U966 C969 2.984 . S
U966 C970 2.847 . S
U966 C983 2.882 . S
U966 O984 2.441 . S
U966 O985 2.420 . S
U966 O986 2.455 . S
U966 O987 2.449 . S
O967 U966 2.454 . S
O967 C969 1.353 . S
O968 U966 2.458 . S
O968 C969 1.286 . S
C969 U966 2.984 . S
C969 O967 1.353 . S
C969 O968 1.286 . S
C969 C971 1.363 . S
C970 C960 1.465 . S
C970 U966 2.847 . S
C970 O984 1.249 . S
C970 O985 1.202 . S
C971 C969 1.363 . S
C971 C973 1.408 . S
C971 C976 1.342 . S
C972 C973 1.310 . S
C972 C975 1.461 . S
C972 H992 0.932 . S
C973 C971 1.408 . S
C973 C972 1.310 . S
C973 H993 0.930 . S
C974 C975 1.474 . S
C974 C976 1.285 . S
C974 H994 0.929 . S
C975 C972 1.461 . S
C975 C974 1.474 . S
C976 C971 1.342 . S
C976 C974 1.285 . S
C976 H995 0.930 . S
C977 C980 1.424 . S
C977 C982 1.245 . S
C977 C983 1.428 . S
C978 C981 1.260 . S
C978 C982 1.477 . S
C978 H996 0.932 . S
C979 C980 1.384 . S
C979 C981 1.479 . S
C979 H997 0.929 . S
C980 C977 1.424 . S
C980 C979 1.384 . S
C980 H998 0.928 . S
C981 C978 1.260 . S
C981 C979 1.479 . S
C982 C977 1.245 . S
C982 C978 1.477 . S
C982 H999 0.932 . S
C983 U966 2.882 . S
C983 C977 1.428 . S
C983 O986 1.301 . S
C983 O987 1.282 . S
O984 U966 2.441 . S
O984 C970 1.249 . S
O985 U966 2.420 . S
O985 C970 1.202 . S
O986 U966 2.455 . S
O986 C983 1.301 . S
O987 U966 2.449 . S
O987 C983 1.282 . S
H988 C961 0.931 . S
H989 C963 0.929 . S
H990 C964 0.930 . S
H991 C965 0.931 . S
H992 C972 0.932 . S
H993 C973 0.930 . S
H994 C974 0.929 . S
H995 C976 0.930 . S
H996 C978 0.932 . S
H997 C979 0.929 . S
H998 C980 0.928 . S
H999 C982 0.932 . S
C1000 C1001 1.264 . S
C1000 C1005 1.479 . S
C1000 C1010 1.465 . S
C1001 C1000 1.264 . S
C1001 C1003 1.339 . S
C1001 H1028 0.931 . S
C1002 C1003 1.395 . S
C1002 C1004 1.320 . S
C1003 C1001 1.339 . S
C1003 C1002 1.395 . S
C1003 H1029 0.929 . S
C1004 C1002 1.320 . S
C1004 C1005 1.405 . S
C1004 H1030 0.930 . S
C1005 C1000 1.479 . S
C1005 C1004 1.405 . S
C1005 H1031 0.931 . S
U1006 O1007 2.454 . S
U1006 O1008 2.458 . S
U1006 C1009 2.984 . S
U1006 C1010 2.847 . S
U1006 C1023 2.882 . S
U1006 O1024 2.441 . S
U1006 O1025 2.420 . S
U1006 O1026 2.455 . S
U1006 O1027 2.449 . S
O1007 U1006 2.454 . S
O1007 C1009 1.353 . S
O1008 U1006 2.458 . S
O1008 C1009 1.286 . S
C1009 U1006 2.984 . S
C1009 O1007 1.353 . S
C1009 O1008 1.286 . S
C1009 C1011 1.363 . S
C1010 C1000 1.465 . S
C1010 U1006 2.847 . S
C1010 O1024 1.249 . S
C1010 O1025 1.202 . S
C1011 C1009 1.363 . S
C1011 C1013 1.408 . S
C1011 C1016 1.342 . S
C1012 C1013 1.310 . S
C1012 C1015 1.461 . S
C1012 H1032 0.932 . S
C1013 C1011 1.408 . S
C1013 C1012 1.310 . S
C1013 H1033 0.930 . S
C1014 C1015 1.474 . S
C1014 C1016 1.285 . S
C1014 H1034 0.929 . S
C1015 C1012 1.461 . S
C1015 C1014 1.474 . S
C1016 C1011 1.342 . S
C1016 C1014 1.285 . S
C1016 H1035 0.930 . S
C1017 C1020 1.424 . S
C1017 C1022 1.245 . S
C1017 C1023 1.428 . S
C1018 C1021 1.260 . S
C1018 C1022 1.477 . S
C1018 H1036 0.932 . S
C1019 C1020 1.384 . S
C1019 C1021 1.479 . S
C1019 H1037 0.929 . S
C1020 C1017 1.424 . S
C1020 C1019 1.384 . S
C1020 H1038 0.928 . S
C1021 C1018 1.260 . S
C1021 C1019 1.479 . S
C1022 C1017 1.245 . S
C1022 C1018 1.477 . S
C1022 H1039 0.932 . S
C1023 U1006 2.882 . S
C1023 C1017 1.428 . S
C1023 O1026 1.301 . S
C1023 O1027 1.282 . S
O1024 U1006 2.441 . S
O1024 C1010 1.249 . S
O1025 U1006 2.420 . S
O1025 C1010 1.202 . S
O1026 U1006 2.455 . S
O1026 C1023 1.301 . S
O1027 U1006 2.449 . S
O1027 C1023 1.282 . S
H1028 C1001 0.931 . S
H1029 C1003 0.929 . S
H1030 C1004 0.930 . S
H1031 C1005 0.931 . S
H1032 C1012 0.932 . S
H1033 C1013 0.930 . S
H1034 C1014 0.929 . S
H1035 C1016 0.930 . S
H1036 C1018 0.932 . S
H1037 C1019 0.929 . S
H1038 C1020 0.928 . S
H1039 C1022 0.932 . S
C1040 C1041 1.264 . S
C1040 C1045 1.479 . S
C1040 C1050 1.465 . S
C1041 C1040 1.264 . S
C1041 C1043 1.339 . S
C1041 H1068 0.931 . S
C1042 C1043 1.395 . S
C1042 C1044 1.320 . S
C1043 C1041 1.339 . S
C1043 C1042 1.395 . S
C1043 H1069 0.929 . S
C1044 C1042 1.320 . S
C1044 C1045 1.405 . S
C1044 H1070 0.930 . S
C1045 C1040 1.479 . S
C1045 C1044 1.405 . S
C1045 H1071 0.931 . S
U1046 O1047 2.454 . S
U1046 O1048 2.458 . S
U1046 C1049 2.984 . S
U1046 C1050 2.847 . S
U1046 C1063 2.882 . S
U1046 O1064 2.441 . S
U1046 O1065 2.420 . S
U1046 O1066 2.455 . S
U1046 O1067 2.449 . S
O1047 U1046 2.454 . S
O1047 C1049 1.353 . S
O1048 U1046 2.458 . S
O1048 C1049 1.286 . S
C1049 U1046 2.984 . S
C1049 O1047 1.353 . S
C1049 O1048 1.286 . S
C1049 C1051 1.363 . S
C1050 C1040 1.465 . S
C1050 U1046 2.847 . S
C1050 O1064 1.249 . S
C1050 O1065 1.202 . S
C1051 C1049 1.363 . S
C1051 C1053 1.408 . S
C1051 C1056 1.342 . S
C1052 C1053 1.310 . S
C1052 C1055 1.461 . S
C1052 H1072 0.932 . S
C1053 C1051 1.408 . S
C1053 C1052 1.310 . S
C1053 H1073 0.930 . S
C1054 C1055 1.474 . S
C1054 C1056 1.285 . S
C1054 H1074 0.929 . S
C1055 C1052 1.461 . S
C1055 C1054 1.474 . S
C1056 C1051 1.342 . S
C1056 C1054 1.285 . S
C1056 H1075 0.930 . S
C1057 C1060 1.424 . S
C1057 C1062 1.245 . S
C1057 C1063 1.428 . S
C1058 C1061 1.260 . S
C1058 C1062 1.477 . S
C1058 H1076 0.932 . S
C1059 C1060 1.384 . S
C1059 C1061 1.479 . S
C1059 H1077 0.929 . S
C1060 C1057 1.424 . S
C1060 C1059 1.384 . S
C1060 H1078 0.928 . S
C1061 C1058 1.260 . S
C1061 C1059 1.479 . S
C1062 C1057 1.245 . S
C1062 C1058 1.477 . S
C1062 H1079 0.932 . S
C1063 U1046 2.882 . S
C1063 C1057 1.428 . S
C1063 O1066 1.301 . S
C1063 O1067 1.282 . S
O1064 U1046 2.441 . S
O1064 C1050 1.249 . S
O1065 U1046 2.420 . S
O1065 C1050 1.202 . S
O1066 U1046 2.455 . S
O1066 C1063 1.301 . S
O1067 U1046 2.449 . S
O1067 C1063 1.282 . S
H1068 C1041 0.931 . S
H1069 C1043 0.929 . S
H1070 C1044 0.930 . S
H1071 C1045 0.931 . S
H1072 C1052 0.932 . S
H1073 C1053 0.930 . S
H1074 C1054 0.929 . S
H1075 C1056 0.930 . S
H1076 C1058 0.932 . S
H1077 C1059 0.929 . S
H1078 C1060 0.928 . S
H1079 C1062 0.932 . S
C1080 C1081 1.264 . S
C1080 C1085 1.479 . S
C1080 C1090 1.465 . S
C1081 C1080 1.264 . S
C1081 C1083 1.339 . S
C1081 H1108 0.931 . S
C1082 C1083 1.395 . S
C1082 C1084 1.320 . S
C1083 C1081 1.339 . S
C1083 C1082 1.395 . S
C1083 H1109 0.929 . S
C1084 C1082 1.320 . S
C1084 C1085 1.405 . S
C1084 H1110 0.930 . S
C1085 C1080 1.479 . S
C1085 C1084 1.405 . S
C1085 H1111 0.931 . S
U1086 O1087 2.454 . S
U1086 O1088 2.458 . S
U1086 C1089 2.984 . S
U1086 C1090 2.847 . S
U1086 C1103 2.882 . S
U1086 O1104 2.441 . S
U1086 O1105 2.420 . S
U1086 O1106 2.455 . S
U1086 O1107 2.449 . S
O1087 U1086 2.454 . S
O1087 C1089 1.353 . S
O1088 U1086 2.458 . S
O1088 C1089 1.286 . S
C1089 U1086 2.984 . S
C1089 O1087 1.353 . S
C1089 O1088 1.286 . S
C1089 C1091 1.363 . S
C1090 C1080 1.465 . S
C1090 U1086 2.847 . S
C1090 O1104 1.249 . S
C1090 O1105 1.202 . S
C1091 C1089 1.363 . S
C1091 C1093 1.408 . S
C1091 C1096 1.342 . S
C1092 C1093 1.310 . S
C1092 C1095 1.461 . S
C1092 H1112 0.932 . S
C1093 C1091 1.408 . S
C1093 C1092 1.310 . S
C1093 H1113 0.930 . S
C1094 C1095 1.474 . S
C1094 C1096 1.285 . S
C1094 H1114 0.929 . S
C1095 C1092 1.461 . S
C1095 C1094 1.474 . S
C1096 C1091 1.342 . S
C1096 C1094 1.285 . S
C1096 H1115 0.930 . S
C1097 C1100 1.424 . S
C1097 C1102 1.245 . S
C1097 C1103 1.428 . S
C1098 C1101 1.260 . S
C1098 C1102 1.477 . S
C1098 H1116 0.932 . S
C1099 C1100 1.384 . S
C1099 C1101 1.479 . S
C1099 H1117 0.929 . S
C1100 C1097 1.424 . S
C1100 C1099 1.384 . S
C1100 H1118 0.928 . S
C1101 C1098 1.260 . S
C1101 C1099 1.479 . S
C1102 C1097 1.245 . S
C1102 C1098 1.477 . S
C1102 H1119 0.932 . S
C1103 U1086 2.882 . S
C1103 C1097 1.428 . S
C1103 O1106 1.301 . S
C1103 O1107 1.282 . S
O1104 U1086 2.441 . S
O1104 C1090 1.249 . S
O1105 U1086 2.420 . S
O1105 C1090 1.202 . S
O1106 U1086 2.455 . S
O1106 C1103 1.301 . S
O1107 U1086 2.449 . S
O1107 C1103 1.282 . S
H1108 C1081 0.931 . S
H1109 C1083 0.929 . S
H1110 C1084 0.930 . S
H1111 C1085 0.931 . S
H1112 C1092 0.932 . S
H1113 C1093 0.930 . S
H1114 C1094 0.929 . S
H1115 C1096 0.930 . S
H1116 C1098 0.932 . S
H1117 C1099 0.929 . S
H1118 C1100 0.928 . S
H1119 C1102 0.932 . S
C1120 C1121 1.264 . S
C1120 C1125 1.479 . S
C1120 C1130 1.465 . S
C1121 C1120 1.264 . S
C1121 C1123 1.339 . S
C1121 H1148 0.931 . S
C1122 C1123 1.395 . S
C1122 C1124 1.320 . S
C1123 C1121 1.339 . S
C1123 C1122 1.395 . S
C1123 H1149 0.929 . S
C1124 C1122 1.320 . S
C1124 C1125 1.405 . S
C1124 H1150 0.930 . S
C1125 C1120 1.479 . S
C1125 C1124 1.405 . S
C1125 H1151 0.931 . S
U1126 O1127 2.454 . S
U1126 O1128 2.458 . S
U1126 C1129 2.984 . S
U1126 C1130 2.847 . S
U1126 C1143 2.882 . S
U1126 O1144 2.441 . S
U1126 O1145 2.420 . S
U1126 O1146 2.455 . S
U1126 O1147 2.449 . S
O1127 U1126 2.454 . S
O1127 C1129 1.353 . S
O1128 U1126 2.458 . S
O1128 C1129 1.286 . S
C1129 U1126 2.984 . S
C1129 O1127 1.353 . S
C1129 O1128 1.286 . S
C1129 C1131 1.363 . S
C1130 C1120 1.465 . S
C1130 U1126 2.847 . S
C1130 O1144 1.249 . S
C1130 O1145 1.202 . S
C1131 C1129 1.363 . S
C1131 C1133 1.408 . S
C1131 C1136 1.342 . S
C1132 C1133 1.310 . S
C1132 C1135 1.461 . S
C1132 H1152 0.932 . S
C1133 C1131 1.408 . S
C1133 C1132 1.310 . S
C1133 H1153 0.930 . S
C1134 C1135 1.474 . S
C1134 C1136 1.285 . S
C1134 H1154 0.929 . S
C1135 C1132 1.461 . S
C1135 C1134 1.474 . S
C1136 C1131 1.342 . S
C1136 C1134 1.285 . S
C1136 H1155 0.930 . S
C1137 C1140 1.424 . S
C1137 C1142 1.245 . S
C1137 C1143 1.428 . S
C1138 C1141 1.260 . S
C1138 C1142 1.477 . S
C1138 H1156 0.932 . S
C1139 C1140 1.384 . S
C1139 C1141 1.479 . S
C1139 H1157 0.929 . S
C1140 C1137 1.424 . S
C1140 C1139 1.384 . S
C1140 H1158 0.928 . S
C1141 C1138 1.260 . S
C1141 C1139 1.479 . S
C1142 C1137 1.245 . S
C1142 C1138 1.477 . S
C1142 H1159 0.932 . S
C1143 U1126 2.882 . S
C1143 C1137 1.428 . S
C1143 O1146 1.301 . S
C1143 O1147 1.282 . S
O1144 U1126 2.441 . S
O1144 C1130 1.249 . S
O1145 U1126 2.420 . S
O1145 C1130 1.202 . S
O1146 U1126 2.455 . S
O1146 C1143 1.301 . S
O1147 U1126 2.449 . S
O1147 C1143 1.282 . S
H1148 C1121 0.931 . S
H1149 C1123 0.929 . S
H1150 C1124 0.930 . S
H1151 C1125 0.931 . S
H1152 C1132 0.932 . S
H1153 C1133 0.930 . S
H1154 C1134 0.929 . S
H1155 C1136 0.930 . S
H1156 C1138 0.932 . S
H1157 C1139 0.929 . S
H1158 C1140 0.928 . S
H1159 C1142 0.932 . S
C1160 C1161 1.264 . S
C1160 C1165 1.479 . S
C1160 C1170 1.465 . S
C1161 C1160 1.264 . S
C1161 C1163 1.339 . S
C1161 H1188 0.931 . S
C1162 C1163 1.395 . S
C1162 C1164 1.320 . S
C1163 C1161 1.339 . S
C1163 C1162 1.395 . S
C1163 H1189 0.929 . S
C1164 C1162 1.320 . S
C1164 C1165 1.405 . S
C1164 H1190 0.930 . S
C1165 C1160 1.479 . S
C1165 C1164 1.405 . S
C1165 H1191 0.931 . S
U1166 O1167 2.454 . S
U1166 O1168 2.458 . S
U1166 C1169 2.984 . S
U1166 C1170 2.847 . S
U1166 C1183 2.882 . S
U1166 O1184 2.441 . S
U1166 O1185 2.420 . S
U1166 O1186 2.455 . S
U1166 O1187 2.449 . S
O1167 U1166 2.454 . S
O1167 C1169 1.353 . S
O1168 U1166 2.458 . S
O1168 C1169 1.286 . S
C1169 U1166 2.984 . S
C1169 O1167 1.353 . S
C1169 O1168 1.286 . S
C1169 C1171 1.363 . S
C1170 C1160 1.465 . S
C1170 U1166 2.847 . S
C1170 O1184 1.249 . S
C1170 O1185 1.202 . S
C1171 C1169 1.363 . S
C1171 C1173 1.408 . S
C1171 C1176 1.342 . S
C1172 C1173 1.310 . S
C1172 C1175 1.461 . S
C1172 H1192 0.932 . S
C1173 C1171 1.408 . S
C1173 C1172 1.310 . S
C1173 H1193 0.930 . S
C1174 C1175 1.474 . S
C1174 C1176 1.285 . S
C1174 H1194 0.929 . S
C1175 C1172 1.461 . S
C1175 C1174 1.474 . S
C1176 C1171 1.342 . S
C1176 C1174 1.285 . S
C1176 H1195 0.930 . S
C1177 C1180 1.424 . S
C1177 C1182 1.245 . S
C1177 C1183 1.428 . S
C1178 C1181 1.260 . S
C1178 C1182 1.477 . S
C1178 H1196 0.932 . S
C1179 C1180 1.384 . S
C1179 C1181 1.479 . S
C1179 H1197 0.929 . S
C1180 C1177 1.424 . S
C1180 C1179 1.384 . S
C1180 H1198 0.928 . S
C1181 C1178 1.260 . S
C1181 C1179 1.479 . S
C1182 C1177 1.245 . S
C1182 C1178 1.477 . S
C1182 H1199 0.932 . S
C1183 U1166 2.882 . S
C1183 C1177 1.428 . S
C1183 O1186 1.301 . S
C1183 O1187 1.282 . S
O1184 U1166 2.441 . S
O1184 C1170 1.249 . S
O1185 U1166 2.420 . S
O1185 C1170 1.202 . S
O1186 U1166 2.455 . S
O1186 C1183 1.301 . S
O1187 U1166 2.449 . S
O1187 C1183 1.282 . S
H1188 C1161 0.931 . S
H1189 C1163 0.929 . S
H1190 C1164 0.930 . S
H1191 C1165 0.931 . S
H1192 C1172 0.932 . S
H1193 C1173 0.930 . S
H1194 C1174 0.929 . S
H1195 C1176 0.930 . S
H1196 C1178 0.932 . S
H1197 C1179 0.929 . S
H1198 C1180 0.928 . S
H1199 C1182 0.932 . S
C1200 C1201 1.264 . S
C1200 C1205 1.479 . S
C1200 C1210 1.465 . S
C1201 C1200 1.264 . S
C1201 C1203 1.339 . S
C1201 H1228 0.931 . S
C1202 C1203 1.395 . S
C1202 C1204 1.320 . S
C1203 C1201 1.339 . S
C1203 C1202 1.395 . S
C1203 H1229 0.929 . S
C1204 C1202 1.320 . S
C1204 C1205 1.405 . S
C1204 H1230 0.930 . S
C1205 C1200 1.479 . S
C1205 C1204 1.405 . S
C1205 H1231 0.931 . S
U1206 O1207 2.454 . S
U1206 O1208 2.458 . S
U1206 C1209 2.984 . S
U1206 C1210 2.847 . S
U1206 C1223 2.882 . S
U1206 O1224 2.441 . S
U1206 O1225 2.420 . S
U1206 O1226 2.455 . S
U1206 O1227 2.449 . S
O1207 U1206 2.454 . S
O1207 C1209 1.353 . S
O1208 U1206 2.458 . S
O1208 C1209 1.286 . S
C1209 U1206 2.984 . S
C1209 O1207 1.353 . S
C1209 O1208 1.286 . S
C1209 C1211 1.363 . S
C1210 C1200 1.465 . S
C1210 U1206 2.847 . S
C1210 O1224 1.249 . S
C1210 O1225 1.202 . S
C1211 C1209 1.363 . S
C1211 C1213 1.408 . S
C1211 C1216 1.342 . S
C1212 C1213 1.310 . S
C1212 C1215 1.461 . S
C1212 H1232 0.932 . S
C1213 C1211 1.408 . S
C1213 C1212 1.310 . S
C1213 H1233 0.930 . S
C1214 C1215 1.474 . S
C1214 C1216 1.285 . S
C1214 H1234 0.929 . S
C1215 C1212 1.461 . S
C1215 C1214 1.474 . S
C1216 C1211 1.342 . S
C1216 C1214 1.285 . S
C1216 H1235 0.930 . S
C1217 C1220 1.424 . S
C1217 C1222 1.245 . S
C1217 C1223 1.428 . S
C1218 C1221 1.260 . S
C1218 C1222 1.477 . S
C1218 H1236 0.932 . S
C1219 C1220 1.384 . S
C1219 C1221 1.479 . S
C1219 H1237 0.929 . S
C1220 C1217 1.424 . S
C1220 C1219 1.384 . S
C1220 H1238 0.928 . S
C1221 C1218 1.260 . S
C1221 C1219 1.479 . S
C1222 C1217 1.245 . S
C1222 C1218 1.477 . S
C1222 H1239 0.932 . S
C1223 U1206 2.882 . S
C1223 C1217 1.428 . S
C1223 O1226 1.301 . S
C1223 O1227 1.282 . S
O1224 U1206 2.441 . S
O1224 C1210 1.249 . S
O1225 U1206 2.420 . S
O1225 C1210 1.202 . S
O1226 U1206 2.455 . S
O1226 C1223 1.301 . S
O1227 U1206 2.449 . S
O1227 C1223 1.282 . S
H1228 C1201 0.931 . S
H1229 C1203 0.929 . S
H1230 C1204 0.930 . S
H1231 C1205 0.931 . S
H1232 C1212 0.932 . S
H1233 C1213 0.930 . S
H1234 C1214 0.929 . S
H1235 C1216 0.930 . S
H1236 C1218 0.932 . S
H1237 C1219 0.929 . S
H1238 C1220 0.928 . S
H1239 C1222 0.932 . S
C1240 C1241 1.264 . S
C1240 C1245 1.479 . S
C1240 C1250 1.465 . S
C1241 C1240 1.264 . S
C1241 C1243 1.339 . S
C1241 H1268 0.931 . S
C1242 C1243 1.395 . S
C1242 C1244 1.320 . S
C1243 C1241 1.339 . S
C1243 C1242 1.395 . S
C1243 H1269 0.929 . S
C1244 C1242 1.320 . S
C1244 C1245 1.405 . S
C1244 H1270 0.930 . S
C1245 C1240 1.479 . S
C1245 C1244 1.405 . S
C1245 H1271 0.931 . S
U1246 O1247 2.454 . S
U1246 O1248 2.458 . S
U1246 C1249 2.984 . S
U1246 C1250 2.847 . S
U1246 C1263 2.882 . S
U1246 O1264 2.441 . S
U1246 O1265 2.420 . S
U1246 O1266 2.455 . S
U1246 O1267 2.449 . S
O1247 U1246 2.454 . S
O1247 C1249 1.353 . S
O1248 U1246 2.458 . S
O1248 C1249 1.286 . S
C1249 U1246 2.984 . S
C1249 O1247 1.353 . S
C1249 O1248 1.286 . S
C1249 C1251 1.363 . S
C1250 C1240 1.465 . S
C1250 U1246 2.847 . S
C1250 O1264 1.249 . S
C1250 O1265 1.202 . S
C1251 C1249 1.363 . S
C1251 C1253 1.408 . S
C1251 C1256 1.342 . S
C1252 C1253 1.310 . S
C1252 C1255 1.461 . S
C1252 H1272 0.932 . S
C1253 C1251 1.408 . S
C1253 C1252 1.310 . S
C1253 H1273 0.930 . S
C1254 C1255 1.474 . S
C1254 C1256 1.285 . S
C1254 H1274 0.929 . S
C1255 C1252 1.461 . S
C1255 C1254 1.474 . S
C1256 C1251 1.342 . S
C1256 C1254 1.285 . S
C1256 H1275 0.930 . S
C1257 C1260 1.424 . S
C1257 C1262 1.245 . S
C1257 C1263 1.428 . S
C1258 C1261 1.260 . S
C1258 C1262 1.477 . S
C1258 H1276 0.932 . S
C1259 C1260 1.384 . S
C1259 C1261 1.479 . S
C1259 H1277 0.929 . S
C1260 C1257 1.424 . S
C1260 C1259 1.384 . S
C1260 H1278 0.928 . S
C1261 C1258 1.260 . S
C1261 C1259 1.479 . S
C1262 C1257 1.245 . S
C1262 C1258 1.477 . S
C1262 H1279 0.932 . S
C1263 U1246 2.882 . S
C1263 C1257 1.428 . S
C1263 O1266 1.301 . S
C1263 O1267 1.282 . S
O1264 U1246 2.441 . S
O1264 C1250 1.249 . S
O1265 U1246 2.420 . S
O1265 C1250 1.202 . S
O1266 U1246 2.455 . S
O1266 C1263 1.301 . S
O1267 U1246 2.449 . S
O1267 C1263 1.282 . S
H1268 C1241 0.931 . S
H1269 C1243 0.929 . S
H1270 C1244 0.930 . S
H1271 C1245 0.931 . S
H1272 C1252 0.932 . S
H1273 C1253 0.930 . S
H1274 C1254 0.929 . S
H1275 C1256 0.930 . S
H1276 C1258 0.932 . S
H1277 C1259 0.929 . S
H1278 C1260 0.928 . S
H1279 C1262 0.932 . S
C1280 C1281 1.264 . S
C1280 C1285 1.479 . S
C1280 C1290 1.465 . S
C1281 C1280 1.264 . S
C1281 C1283 1.339 . S
C1281 H1308 0.931 . S
C1282 C1283 1.395 . S
C1282 C1284 1.320 . S
C1283 C1281 1.339 . S
C1283 C1282 1.395 . S
C1283 H1309 0.929 . S
C1284 C1282 1.320 . S
C1284 C1285 1.405 . S
C1284 H1310 0.930 . S
C1285 C1280 1.479 . S
C1285 C1284 1.405 . S
C1285 H1311 0.931 . S
U1286 O1287 2.454 . S
U1286 O1288 2.458 . S
U1286 C1289 2.984 . S
U1286 C1290 2.847 . S
U1286 C1303 2.882 . S
U1286 O1304 2.441 . S
U1286 O1305 2.420 . S
U1286 O1306 2.455 . S
U1286 O1307 2.449 . S
O1287 U1286 2.454 . S
O1287 C1289 1.353 . S
O1288 U1286 2.458 . S
O1288 C1289 1.286 . S
C1289 U1286 2.984 . S
C1289 O1287 1.353 . S
C1289 O1288 1.286 . S
C1289 C1291 1.363 . S
C1290 C1280 1.465 . S
C1290 U1286 2.847 . S
C1290 O1304 1.249 . S
C1290 O1305 1.202 . S
C1291 C1289 1.363 . S
C1291 C1293 1.408 . S
C1291 C1296 1.342 . S
C1292 C1293 1.310 . S
C1292 C1295 1.461 . S
C1292 H1312 0.932 . S
C1293 C1291 1.408 . S
C1293 C1292 1.310 . S
C1293 H1313 0.930 . S
C1294 C1295 1.474 . S
C1294 C1296 1.285 . S
C1294 H1314 0.929 . S
C1295 C1292 1.461 . S
C1295 C1294 1.474 . S
C1296 C1291 1.342 . S
C1296 C1294 1.285 . S
C1296 H1315 0.930 . S
C1297 C1300 1.424 . S
C1297 C1302 1.245 . S
C1297 C1303 1.428 . S
C1298 C1301 1.260 . S
C1298 C1302 1.477 . S
C1298 H1316 0.932 . S
C1299 C1300 1.384 . S
C1299 C1301 1.479 . S
C1299 H1317 0.929 . S
C1300 C1297 1.424 . S
C1300 C1299 1.384 . S
C1300 H1318 0.928 . S
C1301 C1298 1.260 . S
C1301 C1299 1.479 . S
C1302 C1297 1.245 . S
C1302 C1298 1.477 . S
C1302 H1319 0.932 . S
C1303 U1286 2.882 . S
C1303 C1297 1.428 . S
C1303 O1306 1.301 . S
C1303 O1307 1.282 . S
O1304 U1286 2.441 . S
O1304 C1290 1.249 . S
O1305 U1286 2.420 . S
O1305 C1290 1.202 . S
O1306 U1286 2.455 . S
O1306 C1303 1.301 . S
O1307 U1286 2.449 . S
O1307 C1303 1.282 . S
H1308 C1281 0.931 . S
H1309 C1283 0.929 . S
H1310 C1284 0.930 . S
H1311 C1285 0.931 . S
H1312 C1292 0.932 . S
H1313 C1293 0.930 . S
H1314 C1294 0.929 . S
H1315 C1296 0.930 . S
H1316 C1298 0.932 . S
H1317 C1299 0.929 . S
H1318 C1300 0.928 . S
H1319 C1302 0.932 . S
C1320 C1321 1.264 . S
C1320 C1325 1.479 . S
C1320 C1330 1.465 . S
C1321 C1320 1.264 . S
C1321 C1323 1.339 . S
C1321 H1348 0.931 . S
C1322 C1323 1.395 . S
C1322 C1324 1.320 . S
C1323 C1321 1.339 . S
C1323 C1322 1.395 . S
C1323 H1349 0.929 . S
C1324 C1322 1.320 . S
C1324 C1325 1.405 . S
C1324 H1350 0.930 . S
C1325 C1320 1.479 . S
C1325 C1324 1.405 . S
C1325 H1351 0.931 . S
U1326 O1327 2.454 . S
U1326 O1328 2.458 . S
U1326 C1329 2.984 . S
U1326 C1330 2.847 . S
U1326 C1343 2.882 . S
U1326 O1344 2.441 . S
U1326 O1345 2.420 . S
U1326 O1346 2.455 . S
U1326 O1347 2.449 . S
O1327 U1326 2.454 . S
O1327 C1329 1.353 . S
O1328 U1326 2.458 . S
O1328 C1329 1.286 . S
C1329 U1326 2.984 . S
C1329 O1327 1.353 . S
C1329 O1328 1.286 . S
C1329 C1331 1.363 . S
C1330 C1320 1.465 . S
C1330 U1326 2.847 . S
C1330 O1344 1.249 . S
C1330 O1345 1.202 . S
C1331 C1329 1.363 . S
C1331 C1333 1.408 . S
C1331 C1336 1.342 . S
C1332 C1333 1.310 . S
C1332 C1335 1.461 . S
C1332 H1352 0.932 . S
C1333 C1331 1.408 . S
C1333 C1332 1.310 . S
C1333 H1353 0.930 . S
C1334 C1335 1.474 . S
C1334 C1336 1.285 . S
C1334 H1354 0.929 . S
C1335 C1332 1.461 . S
C1335 C1334 1.474 . S
C1336 C1331 1.342 . S
C1336 C1334 1.285 . S
C1336 H1355 0.930 . S
C1337 C1340 1.424 . S
C1337 C1342 1.245 . S
C1337 C1343 1.428 . S
C1338 C1341 1.260 . S
C1338 C1342 1.477 . S
C1338 H1356 0.932 . S
C1339 C1340 1.384 . S
C1339 C1341 1.479 . S
C1339 H1357 0.929 . S
C1340 C1337 1.424 . S
C1340 C1339 1.384 . S
C1340 H1358 0.928 . S
C1341 C1338 1.260 . S
C1341 C1339 1.479 . S
C1342 C1337 1.245 . S
C1342 C1338 1.477 . S
C1342 H1359 0.932 . S
C1343 U1326 2.882 . S
C1343 C1337 1.428 . S
C1343 O1346 1.301 . S
C1343 O1347 1.282 . S
O1344 U1326 2.441 . S
O1344 C1330 1.249 . S
O1345 U1326 2.420 . S
O1345 C1330 1.202 . S
O1346 U1326 2.455 . S
O1346 C1343 1.301 . S
O1347 U1326 2.449 . S
O1347 C1343 1.282 . S
H1348 C1321 0.931 . S
H1349 C1323 0.929 . S
H1350 C1324 0.930 . S
H1351 C1325 0.931 . S
H1352 C1332 0.932 . S
H1353 C1333 0.930 . S
H1354 C1334 0.929 . S
H1355 C1336 0.930 . S
H1356 C1338 0.932 . S
H1357 C1339 0.929 . S
H1358 C1340 0.928 . S
H1359 C1342 0.932 . S
C1360 C1361 1.264 . S
C1360 C1365 1.479 . S
C1360 C1370 1.465 . S
C1361 C1360 1.264 . S
C1361 C1363 1.339 . S
C1361 H1388 0.931 . S
C1362 C1363 1.395 . S
C1362 C1364 1.320 . S
C1363 C1361 1.339 . S
C1363 C1362 1.395 . S
C1363 H1389 0.929 . S
C1364 C1362 1.320 . S
C1364 C1365 1.405 . S
C1364 H1390 0.930 . S
C1365 C1360 1.479 . S
C1365 C1364 1.405 . S
C1365 H1391 0.931 . S
U1366 O1367 2.454 . S
U1366 O1368 2.458 . S
U1366 C1369 2.984 . S
U1366 C1370 2.847 . S
U1366 C1383 2.882 . S
U1366 O1384 2.441 . S
U1366 O1385 2.420 . S
U1366 O1386 2.455 . S
U1366 O1387 2.449 . S
O1367 U1366 2.454 . S
O1367 C1369 1.353 . S
O1368 U1366 2.458 . S
O1368 C1369 1.286 . S
C1369 U1366 2.984 . S
C1369 O1367 1.353 . S
C1369 O1368 1.286 . S
C1369 C1371 1.363 . S
C1370 C1360 1.465 . S
C1370 U1366 2.847 . S
C1370 O1384 1.249 . S
C1370 O1385 1.202 . S
C1371 C1369 1.363 . S
C1371 C1373 1.408 . S
C1371 C1376 1.342 . S
C1372 C1373 1.310 . S
C1372 C1375 1.461 . S
C1372 H1392 0.932 . S
C1373 C1371 1.408 . S
C1373 C1372 1.310 . S
C1373 H1393 0.930 . S
C1374 C1375 1.474 . S
C1374 C1376 1.285 . S
C1374 H1394 0.929 . S
C1375 C1372 1.461 . S
C1375 C1374 1.474 . S
C1376 C1371 1.342 . S
C1376 C1374 1.285 . S
C1376 H1395 0.930 . S
C1377 C1380 1.424 . S
C1377 C1382 1.245 . S
C1377 C1383 1.428 . S
C1378 C1381 1.260 . S
C1378 C1382 1.477 . S
C1378 H1396 0.932 . S
C1379 C1380 1.384 . S
C1379 C1381 1.479 . S
C1379 H1397 0.929 . S
C1380 C1377 1.424 . S
C1380 C1379 1.384 . S
C1380 H1398 0.928 . S
C1381 C1378 1.260 . S
C1381 C1379 1.479 . S
C1382 C1377 1.245 . S
C1382 C1378 1.477 . S
C1382 H1399 0.932 . S
C1383 U1366 2.882 . S
C1383 C1377 1.428 . S
C1383 O1386 1.301 . S
C1383 O1387 1.282 . S
O1384 U1366 2.441 . S
O1384 C1370 1.249 . S
O1385 U1366 2.420 . S
O1385 C1370 1.202 . S
O1386 U1366 2.455 . S
O1386 C1383 1.301 . S
O1387 U1366 2.449 . S
O1387 C1383 1.282 . S
H1388 C1361 0.931 . S
H1389 C1363 0.929 . S
H1390 C1364 0.930 . S
H1391 C1365 0.931 . S
H1392 C1372 0.932 . S
H1393 C1373 0.930 . S
H1394 C1374 0.929 . S
H1395 C1376 0.930 . S
H1396 C1378 0.932 . S
H1397 C1379 0.929 . S
H1398 C1380 0.928 . S
H1399 C1382 0.932 . S
C1400 C1401 1.264 . S
C1400 C1405 1.479 . S
C1400 C1410 1.465 . S
C1401 C1400 1.264 . S
C1401 C1403 1.339 . S
C1401 H1428 0.931 . S
C1402 C1403 1.395 . S
C1402 C1404 1.320 . S
C1403 C1401 1.339 . S
C1403 C1402 1.395 . S
C1403 H1429 0.929 . S
C1404 C1402 1.320 . S
C1404 C1405 1.405 . S
C1404 H1430 0.930 . S
C1405 C1400 1.479 . S
C1405 C1404 1.405 . S
C1405 H1431 0.931 . S
U1406 O1407 2.454 . S
U1406 O1408 2.458 . S
U1406 C1409 2.984 . S
U1406 C1410 2.847 . S
U1406 C1423 2.882 . S
U1406 O1424 2.441 . S
U1406 O1425 2.420 . S
U1406 O1426 2.455 . S
U1406 O1427 2.449 . S
O1407 U1406 2.454 . S
O1407 C1409 1.353 . S
O1408 U1406 2.458 . S
O1408 C1409 1.286 . S
C1409 U1406 2.984 . S
C1409 O1407 1.353 . S
C1409 O1408 1.286 . S
C1409 C1411 1.363 . S
C1410 C1400 1.465 . S
C1410 U1406 2.847 . S
C1410 O1424 1.249 . S
C1410 O1425 1.202 . S
C1411 C1409 1.363 . S
C1411 C1413 1.408 . S
C1411 C1416 1.342 . S
C1412 C1413 1.310 . S
C1412 C1415 1.461 . S
C1412 H1432 0.932 . S
C1413 C1411 1.408 . S
C1413 C1412 1.310 . S
C1413 H1433 0.930 . S
C1414 C1415 1.474 . S
C1414 C1416 1.285 . S
C1414 H1434 0.929 . S
C1415 C1412 1.461 . S
C1415 C1414 1.474 . S
C1416 C1411 1.342 . S
C1416 C1414 1.285 . S
C1416 H1435 0.930 . S
C1417 C1420 1.424 . S
C1417 C1422 1.245 . S
C1417 C1423 1.428 . S
C1418 C1421 1.260 . S
C1418 C1422 1.477 . S
C1418 H1436 0.932 . S
C1419 C1420 1.384 . S
C1419 C1421 1.479 . S
C1419 H1437 0.929 . S
C1420 C1417 1.424 . S
C1420 C1419 1.384 . S
C1420 H1438 0.928 . S
C1421 C1418 1.260 . S
C1421 C1419 1.479 . S
C1422 C1417 1.245 . S
C1422 C1418 1.477 . S
C1422 H1439 0.932 . S
C1423 U1406 2.882 . S
C1423 C1417 1.428 . S
C1423 O1426 1.301 . S
C1423 O1427 1.282 . S
O1424 U1406 2.441 . S
O1424 C1410 1.249 . S
O1425 U1406 2.420 . S
O1425 C1410 1.202 . S
O1426 U1406 2.455 . S
O1426 C1423 1.301 . S
O1427 U1406 2.449 . S
O1427 C1423 1.282 . S
H1428 C1401 0.931 . S
H1429 C1403 0.929 . S
H1430 C1404 0.930 . S
H1431 C1405 0.931 . S
H1432 C1412 0.932 . S
H1433 C1413 0.930 . S
H1434 C1414 0.929 . S
H1435 C1416 0.930 . S
H1436 C1418 0.932 . S
H1437 C1419 0.929 . S
H1438 C1420 0.928 . S
H1439 C1422 0.932 . S
C1440 C1441 1.264 . S
C1440 C1445 1.479 . S
C1440 C1450 1.465 . S
C1441 C1440 1.264 . S
C1441 C1443 1.339 . S
C1441 H1468 0.931 . S
C1442 C1443 1.395 . S
C1442 C1444 1.320 . S
C1443 C1441 1.339 . S
C1443 C1442 1.395 . S
C1443 H1469 0.929 . S
C1444 C1442 1.320 . S
C1444 C1445 1.405 . S
C1444 H1470 0.930 . S
C1445 C1440 1.479 . S
C1445 C1444 1.405 . S
C1445 H1471 0.931 . S
U1446 O1447 2.454 . S
U1446 O1448 2.458 . S
U1446 C1449 2.984 . S
U1446 C1450 2.847 . S
U1446 C1463 2.882 . S
U1446 O1464 2.441 . S
U1446 O1465 2.420 . S
U1446 O1466 2.455 . S
U1446 O1467 2.449 . S
O1447 U1446 2.454 . S
O1447 C1449 1.353 . S
O1448 U1446 2.458 . S
O1448 C1449 1.286 . S
C1449 U1446 2.984 . S
C1449 O1447 1.353 . S
C1449 O1448 1.286 . S
C1449 C1451 1.363 . S
C1450 C1440 1.465 . S
C1450 U1446 2.847 . S
C1450 O1464 1.249 . S
C1450 O1465 1.202 . S
C1451 C1449 1.363 . S
C1451 C1453 1.408 . S
C1451 C1456 1.342 . S
C1452 C1453 1.310 . S
C1452 C1455 1.461 . S
C1452 H1472 0.932 . S
C1453 C1451 1.408 . S
C1453 C1452 1.310 . S
C1453 H1473 0.930 . S
C1454 C1455 1.474 . S
C1454 C1456 1.285 . S
C1454 H1474 0.929 . S
C1455 C1452 1.461 . S
C1455 C1454 1.474 . S
C1456 C1451 1.342 . S
C1456 C1454 1.285 . S
C1456 H1475 0.930 . S
C1457 C1460 1.424 . S
C1457 C1462 1.245 . S
C1457 C1463 1.428 . S
C1458 C1461 1.260 . S
C1458 C1462 1.477 . S
C1458 H1476 0.932 . S
C1459 C1460 1.384 . S
C1459 C1461 1.479 . S
C1459 H1477 0.929 . S
C1460 C1457 1.424 . S
C1460 C1459 1.384 . S
C1460 H1478 0.928 . S
C1461 C1458 1.260 . S
C1461 C1459 1.479 . S
C1462 C1457 1.245 . S
C1462 C1458 1.477 . S
C1462 H1479 0.932 . S
C1463 U1446 2.882 . S
C1463 C1457 1.428 . S
C1463 O1466 1.301 . S
C1463 O1467 1.282 . S
O1464 U1446 2.441 . S
O1464 C1450 1.249 . S
O1465 U1446 2.420 . S
O1465 C1450 1.202 . S
O1466 U1446 2.455 . S
O1466 C1463 1.301 . S
O1467 U1446 2.449 . S
O1467 C1463 1.282 . S
H1468 C1441 0.931 . S
H1469 C1443 0.929 . S
H1470 C1444 0.930 . S
H1471 C1445 0.931 . S
H1472 C1452 0.932 . S
H1473 C1453 0.930 . S
H1474 C1454 0.929 . S
H1475 C1456 0.930 . S
H1476 C1458 0.932 . S
H1477 C1459 0.929 . S
H1478 C1460 0.928 . S
H1479 C1462 0.932 . S
C1480 C1481 1.264 . S
C1480 C1485 1.479 . S
C1480 C1490 1.465 . S
C1481 C1480 1.264 . S
C1481 C1483 1.339 . S
C1481 H1508 0.931 . S
C1482 C1483 1.395 . S
C1482 C1484 1.320 . S
C1483 C1481 1.339 . S
C1483 C1482 1.395 . S
C1483 H1509 0.929 . S
C1484 C1482 1.320 . S
C1484 C1485 1.405 . S
C1484 H1510 0.930 . S
C1485 C1480 1.479 . S
C1485 C1484 1.405 . S
C1485 H1511 0.931 . S
U1486 O1487 2.454 . S
U1486 O1488 2.458 . S
U1486 C1489 2.984 . S
U1486 C1490 2.847 . S
U1486 C1503 2.882 . S
U1486 O1504 2.441 . S
U1486 O1505 2.420 . S
U1486 O1506 2.455 . S
U1486 O1507 2.449 . S
O1487 U1486 2.454 . S
O1487 C1489 1.353 . S
O1488 U1486 2.458 . S
O1488 C1489 1.286 . S
C1489 U1486 2.984 . S
C1489 O1487 1.353 . S
C1489 O1488 1.286 . S
C1489 C1491 1.363 . S
C1490 C1480 1.465 . S
C1490 U1486 2.847 . S
C1490 O1504 1.249 . S
C1490 O1505 1.202 . S
C1491 C1489 1.363 . S
C1491 C1493 1.408 . S
C1491 C1496 1.342 . S
C1492 C1493 1.310 . S
C1492 C1495 1.461 . S
C1492 H1512 0.932 . S
C1493 C1491 1.408 . S
C1493 C1492 1.310 . S
C1493 H1513 0.930 . S
C1494 C1495 1.474 . S
C1494 C1496 1.285 . S
C1494 H1514 0.929 . S
C1495 C1492 1.461 . S
C1495 C1494 1.474 . S
C1496 C1491 1.342 . S
C1496 C1494 1.285 . S
C1496 H1515 0.930 . S
C1497 C1500 1.424 . S
C1497 C1502 1.245 . S
C1497 C1503 1.428 . S
C1498 C1501 1.260 . S
C1498 C1502 1.477 . S
C1498 H1516 0.932 . S
C1499 C1500 1.384 . S
C1499 C1501 1.479 . S
C1499 H1517 0.929 . S
C1500 C1497 1.424 . S
C1500 C1499 1.384 . S
C1500 H1518 0.928 . S
C1501 C1498 1.260 . S
C1501 C1499 1.479 . S
C1502 C1497 1.245 . S
C1502 C1498 1.477 . S
C1502 H1519 0.932 . S
C1503 U1486 2.882 . S
C1503 C1497 1.428 . S
C1503 O1506 1.301 . S
C1503 O1507 1.282 . S
O1504 U1486 2.441 . S
O1504 C1490 1.249 . S
O1505 U1486 2.420 . S
O1505 C1490 1.202 . S
O1506 U1486 2.455 . S
O1506 C1503 1.301 . S
O1507 U1486 2.449 . S
O1507 C1503 1.282 . S
H1508 C1481 0.931 . S
H1509 C1483 0.929 . S
H1510 C1484 0.930 . S
H1511 C1485 0.931 . S
H1512 C1492 0.932 . S
H1513 C1493 0.930 . S
H1514 C1494 0.929 . S
H1515 C1496 0.930 . S
H1516 C1498 0.932 . S
H1517 C1499 0.929 . S
H1518 C1500 0.928 . S
H1519 C1502 0.932 . S
C1520 C1521 1.264 . S
C1520 C1525 1.479 . S
C1520 C1530 1.465 . S
C1521 C1520 1.264 . S
C1521 C1523 1.339 . S
C1521 H1548 0.931 . S
C1522 C1523 1.395 . S
C1522 C1524 1.320 . S
C1523 C1521 1.339 . S
C1523 C1522 1.395 . S
C1523 H1549 0.929 . S
C1524 C1522 1.320 . S
C1524 C1525 1.405 . S
C1524 H1550 0.930 . S
C1525 C1520 1.479 . S
C1525 C1524 1.405 . S
C1525 H1551 0.931 . S
U1526 O1527 2.454 . S
U1526 O1528 2.458 . S
U1526 C1529 2.984 . S
U1526 C1530 2.847 . S
U1526 C1543 2.882 . S
U1526 O1544 2.441 . S
U1526 O1545 2.420 . S
U1526 O1546 2.455 . S
U1526 O1547 2.449 . S
O1527 U1526 2.454 . S
O1527 C1529 1.353 . S
O1528 U1526 2.458 . S
O1528 C1529 1.286 . S
C1529 U1526 2.984 . S
C1529 O1527 1.353 . S
C1529 O1528 1.286 . S
C1529 C1531 1.363 . S
C1530 C1520 1.465 . S
C1530 U1526 2.847 . S
C1530 O1544 1.249 . S
C1530 O1545 1.202 . S
C1531 C1529 1.363 . S
C1531 C1533 1.408 . S
C1531 C1536 1.342 . S
C1532 C1533 1.310 . S
C1532 C1535 1.461 . S
C1532 H1552 0.932 . S
C1533 C1531 1.408 . S
C1533 C1532 1.310 . S
C1533 H1553 0.930 . S
C1534 C1535 1.474 . S
C1534 C1536 1.285 . S
C1534 H1554 0.929 . S
C1535 C1532 1.461 . S
C1535 C1534 1.474 . S
C1536 C1531 1.342 . S
C1536 C1534 1.285 . S
C1536 H1555 0.930 . S
C1537 C1540 1.424 . S
C1537 C1542 1.245 . S
C1537 C1543 1.428 . S
C1538 C1541 1.260 . S
C1538 C1542 1.477 . S
C1538 H1556 0.932 . S
C1539 C1540 1.384 . S
C1539 C1541 1.479 . S
C1539 H1557 0.929 . S
C1540 C1537 1.424 . S
C1540 C1539 1.384 . S
C1540 H1558 0.928 . S
C1541 C1538 1.260 . S
C1541 C1539 1.479 . S
C1542 C1537 1.245 . S
C1542 C1538 1.477 . S
C1542 H1559 0.932 . S
C1543 U1526 2.882 . S
C1543 C1537 1.428 . S
C1543 O1546 1.301 . S
C1543 O1547 1.282 . S
O1544 U1526 2.441 . S
O1544 C1530 1.249 . S
O1545 U1526 2.420 . S
O1545 C1530 1.202 . S
O1546 U1526 2.455 . S
O1546 C1543 1.301 . S
O1547 U1526 2.449 . S
O1547 C1543 1.282 . S
H1548 C1521 0.931 . S
H1549 C1523 0.929 . S
H1550 C1524 0.930 . S
H1551 C1525 0.931 . S
H1552 C1532 0.932 . S
H1553 C1533 0.930 . S
H1554 C1534 0.929 . S
H1555 C1536 0.930 . S
H1556 C1538 0.932 . S
H1557 C1539 0.929 . S
H1558 C1540 0.928 . S
H1559 C1542 0.932 . S
C1560 C1561 1.264 . S
C1560 C1565 1.479 . S
C1560 C1570 1.465 . S
C1561 C1560 1.264 . S
C1561 C1563 1.339 . S
C1561 H1588 0.931 . S
C1562 C1563 1.395 . S
C1562 C1564 1.320 . S
C1563 C1561 1.339 . S
C1563 C1562 1.395 . S
C1563 H1589 0.929 . S
C1564 C1562 1.320 . S
C1564 C1565 1.405 . S
C1564 H1590 0.930 . S
C1565 C1560 1.479 . S
C1565 C1564 1.405 . S
C1565 H1591 0.931 . S
U1566 O1567 2.454 . S
U1566 O1568 2.458 . S
U1566 C1569 2.984 . S
U1566 C1570 2.847 . S
U1566 C1583 2.882 . S
U1566 O1584 2.441 . S
U1566 O1585 2.420 . S
U1566 O1586 2.455 . S
U1566 O1587 2.449 . S
O1567 U1566 2.454 . S
O1567 C1569 1.353 . S
O1568 U1566 2.458 . S
O1568 C1569 1.286 . S
C1569 U1566 2.984 . S
C1569 O1567 1.353 . S
C1569 O1568 1.286 . S
C1569 C1571 1.363 . S
C1570 C1560 1.465 . S
C1570 U1566 2.847 . S
C1570 O1584 1.249 . S
C1570 O1585 1.202 . S
C1571 C1569 1.363 . S
C1571 C1573 1.408 . S
C1571 C1576 1.342 . S
C1572 C1573 1.310 . S
C1572 C1575 1.461 . S
C1572 H1592 0.932 . S
C1573 C1571 1.408 . S
C1573 C1572 1.310 . S
C1573 H1593 0.930 . S
C1574 C1575 1.474 . S
C1574 C1576 1.285 . S
C1574 H1594 0.929 . S
C1575 C1572 1.461 . S
C1575 C1574 1.474 . S
C1576 C1571 1.342 . S
C1576 C1574 1.285 . S
C1576 H1595 0.930 . S
C1577 C1580 1.424 . S
C1577 C1582 1.245 . S
C1577 C1583 1.428 . S
C1578 C1581 1.260 . S
C1578 C1582 1.477 . S
C1578 H1596 0.932 . S
C1579 C1580 1.384 . S
C1579 C1581 1.479 . S
C1579 H1597 0.929 . S
C1580 C1577 1.424 . S
C1580 C1579 1.384 . S
C1580 H1598 0.928 . S
C1581 C1578 1.260 . S
C1581 C1579 1.479 . S
C1582 C1577 1.245 . S
C1582 C1578 1.477 . S
C1582 H1599 0.932 . S
C1583 U1566 2.882 . S
C1583 C1577 1.428 . S
C1583 O1586 1.301 . S
C1583 O1587 1.282 . S
O1584 U1566 2.441 . S
O1584 C1570 1.249 . S
O1585 U1566 2.420 . S
O1585 C1570 1.202 . S
O1586 U1566 2.455 . S
O1586 C1583 1.301 . S
O1587 U1566 2.449 . S
O1587 C1583 1.282 . S
H1588 C1561 0.931 . S
H1589 C1563 0.929 . S
H1590 C1564 0.930 . S
H1591 C1565 0.931 . S
H1592 C1572 0.932 . S
H1593 C1573 0.930 . S
H1594 C1574 0.929 . S
H1595 C1576 0.930 . S
H1596 C1578 0.932 . S
H1597 C1579 0.929 . S
H1598 C1580 0.928 . S
H1599 C1582 0.932 . S
C1600 C1601 1.264 . S
C1600 C1605 1.479 . S
C1600 C1610 1.465 . S
C1601 C1600 1.264 . S
C1601 C1603 1.339 . S
C1601 H1628 0.931 . S
C1602 C1603 1.395 . S
C1602 C1604 1.320 . S
C1603 C1601 1.339 . S
C1603 C1602 1.395 . S
C1603 H1629 0.929 . S
C1604 C1602 1.320 . S
C1604 C1605 1.405 . S
C1604 H1630 0.930 . S
C1605 C1600 1.479 . S
C1605 C1604 1.405 . S
C1605 H1631 0.931 . S
U1606 O1607 2.454 . S
U1606 O1608 2.458 . S
U1606 C1609 2.984 . S
U1606 C1610 2.847 . S
U1606 C1623 2.882 . S
U1606 O1624 2.441 . S
U1606 O1625 2.420 . S
U1606 O1626 2.455 . S
U1606 O1627 2.449 . S
O1607 U1606 2.454 . S
O1607 C1609 1.353 . S
O1608 U1606 2.458 . S
O1608 C1609 1.286 . S
C1609 U1606 2.984 . S
C1609 O1607 1.353 . S
C1609 O1608 1.286 . S
C1609 C1611 1.363 . S
C1610 C1600 1.465 . S
C1610 U1606 2.847 . S
C1610 O1624 1.249 . S
C1610 O1625 1.202 . S
C1611 C1609 1.363 . S
C1611 C1613 1.408 . S
C1611 C1616 1.342 . S
C1612 C1613 1.310 . S
C1612 C1615 1.461 . S
C1612 H1632 0.932 . S
C1613 C1611 1.408 . S
C1613 C1612 1.310 . S
C1613 H1633 0.930 . S
C1614 C1615 1.474 . S
C1614 C1616 1.285 . S
C1614 H1634 0.929 . S
C1615 C1612 1.461 . S
C1615 C1614 1.474 . S
C1616 C1611 1.342 . S
C1616 C1614 1.285 . S
C1616 H1635 0.930 . S
C1617 C1620 1.424 . S
C1617 C1622 1.245 . S
C1617 C1623 1.428 . S
C1618 C1621 1.260 . S
C1618 C1622 1.477 . S
C1618 H1636 0.932 . S
C1619 C1620 1.384 . S
C1619 C1621 1.479 . S
C1619 H1637 0.929 . S
C1620 C1617 1.424 . S
C1620 C1619 1.384 . S
C1620 H1638 0.928 . S
C1621 C1618 1.260 . S
C1621 C1619 1.479 . S
C1622 C1617 1.245 . S
C1622 C1618 1.477 . S
C1622 H1639 0.932 . S
C1623 U1606 2.882 . S
C1623 C1617 1.428 . S
C1623 O1626 1.301 . S
C1623 O1627 1.282 . S
O1624 U1606 2.441 . S
O1624 C1610 1.249 . S
O1625 U1606 2.420 . S
O1625 C1610 1.202 . S
O1626 U1606 2.455 . S
O1626 C1623 1.301 . S
O1627 U1606 2.449 . S
O1627 C1623 1.282 . S
H1628 C1601 0.931 . S
H1629 C1603 0.929 . S
H1630 C1604 0.930 . S
H1631 C1605 0.931 . S
H1632 C1612 0.932 . S
H1633 C1613 0.930 . S
H1634 C1614 0.929 . S
H1635 C1616 0.930 . S
H1636 C1618 0.932 . S
H1637 C1619 0.929 . S
H1638 C1620 0.928 . S
H1639 C1622 0.932 . S
C1640 C1641 1.264 . S
C1640 C1645 1.479 . S
C1640 C1650 1.465 . S
C1641 C1640 1.264 . S
C1641 C1643 1.339 . S
C1641 H1668 0.931 . S
C1642 C1643 1.395 . S
C1642 C1644 1.320 . S
C1643 C1641 1.339 . S
C1643 C1642 1.395 . S
C1643 H1669 0.929 . S
C1644 C1642 1.320 . S
C1644 C1645 1.405 . S
C1644 H1670 0.930 . S
C1645 C1640 1.479 . S
C1645 C1644 1.405 . S
C1645 H1671 0.931 . S
U1646 O1647 2.454 . S
U1646 O1648 2.458 . S
U1646 C1649 2.984 . S
U1646 C1650 2.847 . S
U1646 C1663 2.882 . S
U1646 O1664 2.441 . S
U1646 O1665 2.420 . S
U1646 O1666 2.455 . S
U1646 O1667 2.449 . S
O1647 U1646 2.454 . S
O1647 C1649 1.353 . S
O1648 U1646 2.458 . S
O1648 C1649 1.286 . S
C1649 U1646 2.984 . S
C1649 O1647 1.353 . S
C1649 O1648 1.286 . S
C1649 C1651 1.363 . S
C1650 C1640 1.465 . S
C1650 U1646 2.847 . S
C1650 O1664 1.249 . S
C1650 O1665 1.202 . S
C1651 C1649 1.363 . S
C1651 C1653 1.408 . S
C1651 C1656 1.342 . S
C1652 C1653 1.310 . S
C1652 C1655 1.461 . S
C1652 H1672 0.932 . S
C1653 C1651 1.408 . S
C1653 C1652 1.310 . S
C1653 H1673 0.930 . S
C1654 C1655 1.474 . S
C1654 C1656 1.285 . S
C1654 H1674 0.929 . S
C1655 C1652 1.461 . S
C1655 C1654 1.474 . S
C1656 C1651 1.342 . S
C1656 C1654 1.285 . S
C1656 H1675 0.930 . S
C1657 C1660 1.424 . S
C1657 C1662 1.245 . S
C1657 C1663 1.428 . S
C1658 C1661 1.260 . S
C1658 C1662 1.477 . S
C1658 H1676 0.932 . S
C1659 C1660 1.384 . S
C1659 C1661 1.479 . S
C1659 H1677 0.929 . S
C1660 C1657 1.424 . S
C1660 C1659 1.384 . S
C1660 H1678 0.928 . S
C1661 C1658 1.260 . S
C1661 C1659 1.479 . S
C1662 C1657 1.245 . S
C1662 C1658 1.477 . S
C1662 H1679 0.932 . S
C1663 U1646 2.882 . S
C1663 C1657 1.428 . S
C1663 O1666 1.301 . S
C1663 O1667 1.282 . S
O1664 U1646 2.441 . S
O1664 C1650 1.249 . S
O1665 U1646 2.420 . S
O1665 C1650 1.202 . S
O1666 U1646 2.455 . S
O1666 C1663 1.301 . S
O1667 U1646 2.449 . S
O1667 C1663 1.282 . S
H1668 C1641 0.931 . S
H1669 C1643 0.929 . S
H1670 C1644 0.930 . S
H1671 C1645 0.931 . S
H1672 C1652 0.932 . S
H1673 C1653 0.930 . S
H1674 C1654 0.929 . S
H1675 C1656 0.930 . S
H1676 C1658 0.932 . S
H1677 C1659 0.929 . S
H1678 C1660 0.928 . S
H1679 C1662 0.932 . S
C1680 C1681 1.264 . S
C1680 C1685 1.479 . S
C1680 C1690 1.465 . S
C1681 C1680 1.264 . S
C1681 C1683 1.339 . S
C1681 H1708 0.931 . S
C1682 C1683 1.395 . S
C1682 C1684 1.320 . S
C1683 C1681 1.339 . S
C1683 C1682 1.395 . S
C1683 H1709 0.929 . S
C1684 C1682 1.320 . S
C1684 C1685 1.405 . S
C1684 H1710 0.930 . S
C1685 C1680 1.479 . S
C1685 C1684 1.405 . S
C1685 H1711 0.931 . S
U1686 O1687 2.454 . S
U1686 O1688 2.458 . S
U1686 C1689 2.984 . S
U1686 C1690 2.847 . S
U1686 C1703 2.882 . S
U1686 O1704 2.441 . S
U1686 O1705 2.420 . S
U1686 O1706 2.455 . S
U1686 O1707 2.449 . S
O1687 U1686 2.454 . S
O1687 C1689 1.353 . S
O1688 U1686 2.458 . S
O1688 C1689 1.286 . S
C1689 U1686 2.984 . S
C1689 O1687 1.353 . S
C1689 O1688 1.286 . S
C1689 C1691 1.363 . S
C1690 C1680 1.465 . S
C1690 U1686 2.847 . S
C1690 O1704 1.249 . S
C1690 O1705 1.202 . S
C1691 C1689 1.363 . S
C1691 C1693 1.408 . S
C1691 C1696 1.342 . S
C1692 C1693 1.310 . S
C1692 C1695 1.461 . S
C1692 H1712 0.932 . S
C1693 C1691 1.408 . S
C1693 C1692 1.310 . S
C1693 H1713 0.930 . S
C1694 C1695 1.474 . S
C1694 C1696 1.285 . S
C1694 H1714 0.929 . S
C1695 C1692 1.461 . S
C1695 C1694 1.474 . S
C1696 C1691 1.342 . S
C1696 C1694 1.285 . S
C1696 H1715 0.930 . S
C1697 C1700 1.424 . S
C1697 C1702 1.245 . S
C1697 C1703 1.428 . S
C1698 C1701 1.260 . S
C1698 C1702 1.477 . S
C1698 H1716 0.932 . S
C1699 C1700 1.384 . S
C1699 C1701 1.479 . S
C1699 H1717 0.929 . S
C1700 C1697 1.424 . S
C1700 C1699 1.384 . S
C1700 H1718 0.928 . S
C1701 C1698 1.260 . S
C1701 C1699 1.479 . S
C1702 C1697 1.245 . S
C1702 C1698 1.477 . S
C1702 H1719 0.932 . S
C1703 U1686 2.882 . S
C1703 C1697 1.428 . S
C1703 O1706 1.301 . S
C1703 O1707 1.282 . S
O1704 U1686 2.441 . S
O1704 C1690 1.249 . S
O1705 U1686 2.420 . S
O1705 C1690 1.202 . S
O1706 U1686 2.455 . S
O1706 C1703 1.301 . S
O1707 U1686 2.449 . S
O1707 C1703 1.282 . S
H1708 C1681 0.931 . S
H1709 C1683 0.929 . S
H1710 C1684 0.930 . S
H1711 C1685 0.931 . S
H1712 C1692 0.932 . S
H1713 C1693 0.930 . S
H1714 C1694 0.929 . S
H1715 C1696 0.930 . S
H1716 C1698 0.932 . S
H1717 C1699 0.929 . S
H1718 C1700 0.928 . S
H1719 C1702 0.932 . S
C1720 C1721 1.264 . S
C1720 C1725 1.479 . S
C1720 C1730 1.465 . S
C1721 C1720 1.264 . S
C1721 C1723 1.339 . S
C1721 H1748 0.931 . S
C1722 C1723 1.395 . S
C1722 C1724 1.320 . S
C1723 C1721 1.339 . S
C1723 C1722 1.395 . S
C1723 H1749 0.929 . S
C1724 C1722 1.320 . S
C1724 C1725 1.405 . S
C1724 H1750 0.930 . S
C1725 C1720 1.479 . S
C1725 C1724 1.405 . S
C1725 H1751 0.931 . S
U1726 O1727 2.454 . S
U1726 O1728 2.458 . S
U1726 C1729 2.984 . S
U1726 C1730 2.847 . S
U1726 C1743 2.882 . S
U1726 O1744 2.441 . S
U1726 O1745 2.420 . S
U1726 O1746 2.455 . S
U1726 O1747 2.449 . S
O1727 U1726 2.454 . S
O1727 C1729 1.353 . S
O1728 U1726 2.458 . S
O1728 C1729 1.286 . S
C1729 U1726 2.984 . S
C1729 O1727 1.353 . S
C1729 O1728 1.286 . S
C1729 C1731 1.363 . S
C1730 C1720 1.465 . S
C1730 U1726 2.847 . S
C1730 O1744 1.249 . S
C1730 O1745 1.202 . S
C1731 C1729 1.363 . S
C1731 C1733 1.408 . S
C1731 C1736 1.342 . S
C1732 C1733 1.310 . S
C1732 C1735 1.461 . S
C1732 H1752 0.932 . S
C1733 C1731 1.408 . S
C1733 C1732 1.310 . S
C1733 H1753 0.930 . S
C1734 C1735 1.474 . S
C1734 C1736 1.285 . S
C1734 H1754 0.929 . S
C1735 C1732 1.461 . S
C1735 C1734 1.474 . S
C1736 C1731 1.342 . S
C1736 C1734 1.285 . S
C1736 H1755 0.930 . S
C1737 C1740 1.424 . S
C1737 C1742 1.245 . S
C1737 C1743 1.428 . S
C1738 C1741 1.260 . S
C1738 C1742 1.477 . S
C1738 H1756 0.932 . S
C1739 C1740 1.384 . S
C1739 C1741 1.479 . S
C1739 H1757 0.929 . S
C1740 C1737 1.424 . S
C1740 C1739 1.384 . S
C1740 H1758 0.928 . S
C1741 C1738 1.260 . S
C1741 C1739 1.479 . S
C1742 C1737 1.245 . S
C1742 C1738 1.477 . S
C1742 H1759 0.932 . S
C1743 U1726 2.882 . S
C1743 C1737 1.428 . S
C1743 O1746 1.301 . S
C1743 O1747 1.282 . S
O1744 U1726 2.441 . S
O1744 C1730 1.249 . S
O1745 U1726 2.420 . S
O1745 C1730 1.202 . S
O1746 U1726 2.455 . S
O1746 C1743 1.301 . S
O1747 U1726 2.449 . S
O1747 C1743 1.282 . S
H1748 C1721 0.931 . S
H1749 C1723 0.929 . S
H1750 C1724 0.930 . S
H1751 C1725 0.931 . S
H1752 C1732 0.932 . S
H1753 C1733 0.930 . S
H1754 C1734 0.929 . S
H1755 C1736 0.930 . S
H1756 C1738 0.932 . S
H1757 C1739 0.929 . S
H1758 C1740 0.928 . S
H1759 C1742 0.932 . S
C1760 C1761 1.264 . S
C1760 C1765 1.479 . S
C1760 C1770 1.465 . S
C1761 C1760 1.264 . S
C1761 C1763 1.339 . S
C1761 H1788 0.931 . S
C1762 C1763 1.395 . S
C1762 C1764 1.320 . S
C1763 C1761 1.339 . S
C1763 C1762 1.395 . S
C1763 H1789 0.929 . S
C1764 C1762 1.320 . S
C1764 C1765 1.405 . S
C1764 H1790 0.930 . S
C1765 C1760 1.479 . S
C1765 C1764 1.405 . S
C1765 H1791 0.931 . S
U1766 O1767 2.454 . S
U1766 O1768 2.458 . S
U1766 C1769 2.984 . S
U1766 C1770 2.847 . S
U1766 C1783 2.882 . S
U1766 O1784 2.441 . S
U1766 O1785 2.420 . S
U1766 O1786 2.455 . S
U1766 O1787 2.449 . S
O1767 U1766 2.454 . S
O1767 C1769 1.353 . S
O1768 U1766 2.458 . S
O1768 C1769 1.286 . S
C1769 U1766 2.984 . S
C1769 O1767 1.353 . S
C1769 O1768 1.286 . S
C1769 C1771 1.363 . S
C1770 C1760 1.465 . S
C1770 U1766 2.847 . S
C1770 O1784 1.249 . S
C1770 O1785 1.202 . S
C1771 C1769 1.363 . S
C1771 C1773 1.408 . S
C1771 C1776 1.342 . S
C1772 C1773 1.310 . S
C1772 C1775 1.461 . S
C1772 H1792 0.932 . S
C1773 C1771 1.408 . S
C1773 C1772 1.310 . S
C1773 H1793 0.930 . S
C1774 C1775 1.474 . S
C1774 C1776 1.285 . S
C1774 H1794 0.929 . S
C1775 C1772 1.461 . S
C1775 C1774 1.474 . S
C1776 C1771 1.342 . S
C1776 C1774 1.285 . S
C1776 H1795 0.930 . S
C1777 C1780 1.424 . S
C1777 C1782 1.245 . S
C1777 C1783 1.428 . S
C1778 C1781 1.260 . S
C1778 C1782 1.477 . S
C1778 H1796 0.932 . S
C1779 C1780 1.384 . S
C1779 C1781 1.479 . S
C1779 H1797 0.929 . S
C1780 C1777 1.424 . S
C1780 C1779 1.384 . S
C1780 H1798 0.928 . S
C1781 C1778 1.260 . S
C1781 C1779 1.479 . S
C1782 C1777 1.245 . S
C1782 C1778 1.477 . S
C1782 H1799 0.932 . S
C1783 U1766 2.882 . S
C1783 C1777 1.428 . S
C1783 O1786 1.301 . S
C1783 O1787 1.282 . S
O1784 U1766 2.441 . S
O1784 C1770 1.249 . S
O1785 U1766 2.420 . S
O1785 C1770 1.202 . S
O1786 U1766 2.455 . S
O1786 C1783 1.301 . S
O1787 U1766 2.449 . S
O1787 C1783 1.282 . S
H1788 C1761 0.931 . S
H1789 C1763 0.929 . S
H1790 C1764 0.930 . S
H1791 C1765 0.931 . S
H1792 C1772 0.932 . S
H1793 C1773 0.930 . S
H1794 C1774 0.929 . S
H1795 C1776 0.930 . S
H1796 C1778 0.932 . S
H1797 C1779 0.929 . S
H1798 C1780 0.928 . S
H1799 C1782 0.932 . S
C1800 C1801 1.264 . S
C1800 C1805 1.479 . S
C1800 C1810 1.465 . S
C1801 C1800 1.264 . S
C1801 C1803 1.339 . S
C1801 H1828 0.931 . S
C1802 C1803 1.395 . S
C1802 C1804 1.320 . S
C1803 C1801 1.339 . S
C1803 C1802 1.395 . S
C1803 H1829 0.929 . S
C1804 C1802 1.320 . S
C1804 C1805 1.405 . S
C1804 H1830 0.930 . S
C1805 C1800 1.479 . S
C1805 C1804 1.405 . S
C1805 H1831 0.931 . S
U1806 O1807 2.454 . S
U1806 O1808 2.458 . S
U1806 C1809 2.984 . S
U1806 C1810 2.847 . S
U1806 C1823 2.882 . S
U1806 O1824 2.441 . S
U1806 O1825 2.420 . S
U1806 O1826 2.455 . S
U1806 O1827 2.449 . S
O1807 U1806 2.454 . S
O1807 C1809 1.353 . S
O1808 U1806 2.458 . S
O1808 C1809 1.286 . S
C1809 U1806 2.984 . S
C1809 O1807 1.353 . S
C1809 O1808 1.286 . S
C1809 C1811 1.363 . S
C1810 C1800 1.465 . S
C1810 U1806 2.847 . S
C1810 O1824 1.249 . S
C1810 O1825 1.202 . S
C1811 C1809 1.363 . S
C1811 C1813 1.408 . S
C1811 C1816 1.342 . S
C1812 C1813 1.310 . S
C1812 C1815 1.461 . S
C1812 H1832 0.932 . S
C1813 C1811 1.408 . S
C1813 C1812 1.310 . S
C1813 H1833 0.930 . S
C1814 C1815 1.474 . S
C1814 C1816 1.285 . S
C1814 H1834 0.929 . S
C1815 C1812 1.461 . S
C1815 C1814 1.474 . S
C1816 C1811 1.342 . S
C1816 C1814 1.285 . S
C1816 H1835 0.930 . S
C1817 C1820 1.424 . S
C1817 C1822 1.245 . S
C1817 C1823 1.428 . S
C1818 C1821 1.260 . S
C1818 C1822 1.477 . S
C1818 H1836 0.932 . S
C1819 C1820 1.384 . S
C1819 C1821 1.479 . S
C1819 H1837 0.929 . S
C1820 C1817 1.424 . S
C1820 C1819 1.384 . S
C1820 H1838 0.928 . S
C1821 C1818 1.260 . S
C1821 C1819 1.479 . S
C1822 C1817 1.245 . S
C1822 C1818 1.477 . S
C1822 H1839 0.932 . S
C1823 U1806 2.882 . S
C1823 C1817 1.428 . S
C1823 O1826 1.301 . S
C1823 O1827 1.282 . S
O1824 U1806 2.441 . S
O1824 C1810 1.249 . S
O1825 U1806 2.420 . S
O1825 C1810 1.202 . S
O1826 U1806 2.455 . S
O1826 C1823 1.301 . S
O1827 U1806 2.449 . S
O1827 C1823 1.282 . S
H1828 C1801 0.931 . S
H1829 C1803 0.929 . S
H1830 C1804 0.930 . S
H1831 C1805 0.931 . S
H1832 C1812 0.932 . S
H1833 C1813 0.930 . S
H1834 C1814 0.929 . S
H1835 C1816 0.930 . S
H1836 C1818 0.932 . S
H1837 C1819 0.929 . S
H1838 C1820 0.928 . S
H1839 C1822 0.932 . S
C1840 C1841 1.264 . S
C1840 C1845 1.479 . S
C1840 C1850 1.465 . S
C1841 C1840 1.264 . S
C1841 C1843 1.339 . S
C1841 H1868 0.931 . S
C1842 C1843 1.395 . S
C1842 C1844 1.320 . S
C1843 C1841 1.339 . S
C1843 C1842 1.395 . S
C1843 H1869 0.929 . S
C1844 C1842 1.320 . S
C1844 C1845 1.405 . S
C1844 H1870 0.930 . S
C1845 C1840 1.479 . S
C1845 C1844 1.405 . S
C1845 H1871 0.931 . S
U1846 O1847 2.454 . S
U1846 O1848 2.458 . S
U1846 C1849 2.984 . S
U1846 C1850 2.847 . S
U1846 C1863 2.882 . S
U1846 O1864 2.441 . S
U1846 O1865 2.420 . S
U1846 O1866 2.455 . S
U1846 O1867 2.449 . S
O1847 U1846 2.454 . S
O1847 C1849 1.353 . S
O1848 U1846 2.458 . S
O1848 C1849 1.286 . S
C1849 U1846 2.984 . S
C1849 O1847 1.353 . S
C1849 O1848 1.286 . S
C1849 C1851 1.363 . S
C1850 C1840 1.465 . S
C1850 U1846 2.847 . S
C1850 O1864 1.249 . S
C1850 O1865 1.202 . S
C1851 C1849 1.363 . S
C1851 C1853 1.408 . S
C1851 C1856 1.342 . S
C1852 C1853 1.310 . S
C1852 C1855 1.461 . S
C1852 H1872 0.932 . S
C1853 C1851 1.408 . S
C1853 C1852 1.310 . S
C1853 H1873 0.930 . S
C1854 C1855 1.474 . S
C1854 C1856 1.285 . S
C1854 H1874 0.929 . S
C1855 C1852 1.461 . S
C1855 C1854 1.474 . S
C1856 C1851 1.342 . S
C1856 C1854 1.285 . S
C1856 H1875 0.930 . S
C1857 C1860 1.424 . S
C1857 C1862 1.245 . S
C1857 C1863 1.428 . S
C1858 C1861 1.260 . S
C1858 C1862 1.477 . S
C1858 H1876 0.932 . S
C1859 C1860 1.384 . S
C1859 C1861 1.479 . S
C1859 H1877 0.929 . S
C1860 C1857 1.424 . S
C1860 C1859 1.384 . S
C1860 H1878 0.928 . S
C1861 C1858 1.260 . S
C1861 C1859 1.479 . S
C1862 C1857 1.245 . S
C1862 C1858 1.477 . S
C1862 H1879 0.932 . S
C1863 U1846 2.882 . S
C1863 C1857 1.428 . S
C1863 O1866 1.301 . S
C1863 O1867 1.282 . S
O1864 U1846 2.441 . S
O1864 C1850 1.249 . S
O1865 U1846 2.420 . S
O1865 C1850 1.202 . S
O1866 U1846 2.455 . S
O1866 C1863 1.301 . S
O1867 U1846 2.449 . S
O1867 C1863 1.282 . S
H1868 C1841 0.931 . S
H1869 C1843 0.929 . S
H1870 C1844 0.930 . S
H1871 C1845 0.931 . S
H1872 C1852 0.932 . S
H1873 C1853 0.930 . S
H1874 C1854 0.929 . S
H1875 C1856 0.930 . S
H1876 C1858 0.932 . S
H1877 C1859 0.929 . S
H1878 C1860 0.928 . S
H1879 C1862 0.932 . S
C1880 C1881 1.264 . S
C1880 C1885 1.479 . S
C1880 C1890 1.465 . S
C1881 C1880 1.264 . S
C1881 C1883 1.339 . S
C1881 H1908 0.931 . S
C1882 C1883 1.395 . S
C1882 C1884 1.320 . S
C1883 C1881 1.339 . S
C1883 C1882 1.395 . S
C1883 H1909 0.929 . S
C1884 C1882 1.320 . S
C1884 C1885 1.405 . S
C1884 H1910 0.930 . S
C1885 C1880 1.479 . S
C1885 C1884 1.405 . S
C1885 H1911 0.931 . S
U1886 O1887 2.454 . S
U1886 O1888 2.458 . S
U1886 C1889 2.984 . S
U1886 C1890 2.847 . S
U1886 C1903 2.882 . S
U1886 O1904 2.441 . S
U1886 O1905 2.420 . S
U1886 O1906 2.455 . S
U1886 O1907 2.449 . S
O1887 U1886 2.454 . S
O1887 C1889 1.353 . S
O1888 U1886 2.458 . S
O1888 C1889 1.286 . S
C1889 U1886 2.984 . S
C1889 O1887 1.353 . S
C1889 O1888 1.286 . S
C1889 C1891 1.363 . S
C1890 C1880 1.465 . S
C1890 U1886 2.847 . S
C1890 O1904 1.249 . S
C1890 O1905 1.202 . S
C1891 C1889 1.363 . S
C1891 C1893 1.408 . S
C1891 C1896 1.342 . S
C1892 C1893 1.310 . S
C1892 C1895 1.461 . S
C1892 H1912 0.932 . S
C1893 C1891 1.408 . S
C1893 C1892 1.310 . S
C1893 H1913 0.930 . S
C1894 C1895 1.474 . S
C1894 C1896 1.285 . S
C1894 H1914 0.929 . S
C1895 C1892 1.461 . S
C1895 C1894 1.474 . S
C1896 C1891 1.342 . S
C1896 C1894 1.285 . S
C1896 H1915 0.930 . S
C1897 C1900 1.424 . S
C1897 C1902 1.245 . S
C1897 C1903 1.428 . S
C1898 C1901 1.260 . S
C1898 C1902 1.477 . S
C1898 H1916 0.932 . S
C1899 C1900 1.384 . S
C1899 C1901 1.479 . S
C1899 H1917 0.929 . S
C1900 C1897 1.424 . S
C1900 C1899 1.384 . S
C1900 H1918 0.928 . S
C1901 C1898 1.260 . S
C1901 C1899 1.479 . S
C1902 C1897 1.245 . S
C1902 C1898 1.477 . S
C1902 H1919 0.932 . S
C1903 U1886 2.882 . S
C1903 C1897 1.428 . S
C1903 O1906 1.301 . S
C1903 O1907 1.282 . S
O1904 U1886 2.441 . S
O1904 C1890 1.249 . S
O1905 U1886 2.420 . S
O1905 C1890 1.202 . S
O1906 U1886 2.455 . S
O1906 C1903 1.301 . S
O1907 U1886 2.449 . S
O1907 C1903 1.282 . S
H1908 C1881 0.931 . S
H1909 C1883 0.929 . S
H1910 C1884 0.930 . S
H1911 C1885 0.931 . S
H1912 C1892 0.932 . S
H1913 C1893 0.930 . S
H1914 C1894 0.929 . S
H1915 C1896 0.930 . S
H1916 C1898 0.932 . S
H1917 C1899 0.929 . S
H1918 C1900 0.928 . S
H1919 C1902 0.932 . S
C1920 C1921 1.363 . S
C1920 C1926 1.379 . S
C1920 N1928 1.356 . S
C1921 C1920 1.363 . S
C1921 C1927 1.363 . S
C1922 C1923 1.363 . S
C1922 C1927 1.379 . S
C1922 N1929 1.356 . S
C1923 C1922 1.363 . S
C1923 C1926 1.363 . S
N1924 C1926 1.356 . S
N1924 H1936 0.984 . S
N1924 H1937 0.985 . S
N1925 C1927 1.356 . S
N1925 H1930 0.984 . S
N1925 H1931 0.985 . S
C1926 C1920 1.379 . S
C1926 C1923 1.363 . S
C1926 N1924 1.356 . S
C1927 C1921 1.363 . S
C1927 C1922 1.379 . S
C1927 N1925 1.356 . S
N1928 C1920 1.356 . S
N1928 H1934 0.984 . S
N1928 H1935 0.984 . S
N1929 C1922 1.356 . S
N1929 H1932 0.984 . S
N1929 H1933 0.985 . S
H1930 N1925 0.984 . S
H1931 N1925 0.985 . S
H1932 N1929 0.984 . S
H1933 N1929 0.985 . S
H1934 N1928 0.984 . S
H1935 N1928 0.984 . S
H1936 N1924 0.984 . S
H1937 N1924 0.985 . S
C1938 C1939 1.363 . S
C1938 C1944 1.379 . S
C1938 N1946 1.356 . S
C1939 C1938 1.363 . S
C1939 C1945 1.363 . S
C1940 C1941 1.363 . S
C1940 C1945 1.379 . S
C1940 N1947 1.356 . S
C1941 C1940 1.363 . S
C1941 C1944 1.363 . S
N1942 C1944 1.356 . S
N1942 H1954 0.984 . S
N1942 H1955 0.985 . S
N1943 C1945 1.356 . S
N1943 H1948 0.984 . S
N1943 H1949 0.985 . S
C1944 C1938 1.379 . S
C1944 C1941 1.363 . S
C1944 N1942 1.356 . S
C1945 C1939 1.363 . S
C1945 C1940 1.379 . S
C1945 N1943 1.356 . S
N1946 C1938 1.356 . S
N1946 H1952 0.984 . S
N1946 H1953 0.984 . S
N1947 C1940 1.356 . S
N1947 H1950 0.984 . S
N1947 H1951 0.985 . S
H1948 N1943 0.984 . S
H1949 N1943 0.985 . S
H1950 N1947 0.984 . S
H1951 N1947 0.985 . S
H1952 N1946 0.984 . S
H1953 N1946 0.984 . S
H1954 N1942 0.984 . S
H1955 N1942 0.985 . S
C1956 C1957 1.363 . S
C1956 C1962 1.379 . S
C1956 N1964 1.356 . S
C1957 C1956 1.363 . S
C1957 C1963 1.363 . S
C1958 C1959 1.363 . S
C1958 C1963 1.379 . S
C1958 N1965 1.356 . S
C1959 C1958 1.363 . S
C1959 C1962 1.363 . S
N1960 C1962 1.356 . S
N1960 H1972 0.984 . S
N1960 H1973 0.985 . S
N1961 C1963 1.356 . S
N1961 H1966 0.984 . S
N1961 H1967 0.985 . S
C1962 C1956 1.379 . S
C1962 C1959 1.363 . S
C1962 N1960 1.356 . S
C1963 C1957 1.363 . S
C1963 C1958 1.379 . S
C1963 N1961 1.356 . S
N1964 C1956 1.356 . S
N1964 H1970 0.984 . S
N1964 H1971 0.984 . S
N1965 C1958 1.356 . S
N1965 H1968 0.984 . S
N1965 H1969 0.985 . S
H1966 N1961 0.984 . S
H1967 N1961 0.985 . S
H1968 N1965 0.984 . S
H1969 N1965 0.985 . S
H1970 N1964 0.984 . S
H1971 N1964 0.984 . S
H1972 N1960 0.984 . S
H1973 N1960 0.985 . S
C1974 C1975 1.363 . S
C1974 C1980 1.379 . S
C1974 N1982 1.356 . S
C1975 C1974 1.363 . S
C1975 C1981 1.363 . S
C1976 C1977 1.363 . S
C1976 C1981 1.379 . S
C1976 N1983 1.356 . S
C1977 C1976 1.363 . S
C1977 C1980 1.363 . S
N1978 C1980 1.356 . S
N1978 H1990 0.984 . S
N1978 H1991 0.985 . S
N1979 C1981 1.356 . S
N1979 H1984 0.984 . S
N1979 H1985 0.985 . S
C1980 C1974 1.379 . S
C1980 C1977 1.363 . S
C1980 N1978 1.356 . S
C1981 C1975 1.363 . S
C1981 C1976 1.379 . S
C1981 N1979 1.356 . S
N1982 C1974 1.356 . S
N1982 H1988 0.984 . S
N1982 H1989 0.984 . S
N1983 C1976 1.356 . S
N1983 H1986 0.984 . S
N1983 H1987 0.985 . S
H1984 N1979 0.984 . S
H1985 N1979 0.985 . S
H1986 N1983 0.984 . S
H1987 N1983 0.985 . S
H1988 N1982 0.984 . S
H1989 N1982 0.984 . S
H1990 N1978 0.984 . S
H1991 N1978 0.985 . S
C1992 C1993 1.363 . S
C1992 C1998 1.379 . S
C1992 N2000 1.356 . S
C1993 C1992 1.363 . S
C1993 C1999 1.363 . S
C1994 C1995 1.363 . S
C1994 C1999 1.379 . S
C1994 N2001 1.356 . S
C1995 C1994 1.363 . S
C1995 C1998 1.363 . S
N1996 C1998 1.356 . S
N1996 H2008 0.984 . S
N1996 H2009 0.985 . S
N1997 C1999 1.356 . S
N1997 H2002 0.984 . S
N1997 H2003 0.985 . S
C1998 C1992 1.379 . S
C1998 C1995 1.363 . S
C1998 N1996 1.356 . S
C1999 C1993 1.363 . S
C1999 C1994 1.379 . S
C1999 N1997 1.356 . S
N2000 C1992 1.356 . S
N2000 H2006 0.984 . S
N2000 H2007 0.984 . S
N2001 C1994 1.356 . S
N2001 H2004 0.984 . S
N2001 H2005 0.985 . S
H2002 N1997 0.984 . S
H2003 N1997 0.985 . S
H2004 N2001 0.984 . S
H2005 N2001 0.985 . S
H2006 N2000 0.984 . S
H2007 N2000 0.984 . S
H2008 N1996 0.984 . S
H2009 N1996 0.985 . S
C2010 C2011 1.363 . S
C2010 C2016 1.379 . S
C2010 N2018 1.356 . S
C2011 C2010 1.363 . S
C2011 C2017 1.363 . S
C2012 C2013 1.363 . S
C2012 C2017 1.379 . S
C2012 N2019 1.356 . S
C2013 C2012 1.363 . S
C2013 C2016 1.363 . S
N2014 C2016 1.356 . S
N2014 H2026 0.984 . S
N2014 H2027 0.985 . S
N2015 C2017 1.356 . S
N2015 H2020 0.984 . S
N2015 H2021 0.985 . S
C2016 C2010 1.379 . S
C2016 C2013 1.363 . S
C2016 N2014 1.356 . S
C2017 C2011 1.363 . S
C2017 C2012 1.379 . S
C2017 N2015 1.356 . S
N2018 C2010 1.356 . S
N2018 H2024 0.984 . S
N2018 H2025 0.984 . S
N2019 C2012 1.356 . S
N2019 H2022 0.984 . S
N2019 H2023 0.985 . S
H2020 N2015 0.984 . S
H2021 N2015 0.985 . S
H2022 N2019 0.984 . S
H2023 N2019 0.985 . S
H2024 N2018 0.984 . S
H2025 N2018 0.984 . S
H2026 N2014 0.984 . S
H2027 N2014 0.985 . S
C2028 C2029 1.363 . S
C2028 C2034 1.379 . S
C2028 N2036 1.356 . S
C2029 C2028 1.363 . S
C2029 C2035 1.363 . S
C2030 C2031 1.363 . S
C2030 C2035 1.379 . S
C2030 N2037 1.356 . S
C2031 C2030 1.363 . S
C2031 C2034 1.363 . S
N2032 C2034 1.356 . S
N2032 H2044 0.984 . S
N2032 H2045 0.985 . S
N2033 C2035 1.356 . S
N2033 H2038 0.984 . S
N2033 H2039 0.985 . S
C2034 C2028 1.379 . S
C2034 C2031 1.363 . S
C2034 N2032 1.356 . S
C2035 C2029 1.363 . S
C2035 C2030 1.379 . S
C2035 N2033 1.356 . S
N2036 C2028 1.356 . S
N2036 H2042 0.984 . S
N2036 H2043 0.984 . S
N2037 C2030 1.356 . S
N2037 H2040 0.984 . S
N2037 H2041 0.985 . S
H2038 N2033 0.984 . S
H2039 N2033 0.985 . S
H2040 N2037 0.984 . S
H2041 N2037 0.985 . S
H2042 N2036 0.984 . S
H2043 N2036 0.984 . S
H2044 N2032 0.984 . S
H2045 N2032 0.985 . S
C2046 C2047 1.363 . S
C2046 C2052 1.379 . S
C2046 N2054 1.356 . S
C2047 C2046 1.363 . S
C2047 C2053 1.363 . S
C2048 C2049 1.363 . S
C2048 C2053 1.379 . S
C2048 N2055 1.356 . S
C2049 C2048 1.363 . S
C2049 C2052 1.363 . S
N2050 C2052 1.356 . S
N2050 H2062 0.984 . S
N2050 H2063 0.985 . S
N2051 C2053 1.356 . S
N2051 H2056 0.984 . S
N2051 H2057 0.985 . S
C2052 C2046 1.379 . S
C2052 C2049 1.363 . S
C2052 N2050 1.356 . S
C2053 C2047 1.363 . S
C2053 C2048 1.379 . S
C2053 N2051 1.356 . S
N2054 C2046 1.356 . S
N2054 H2060 0.984 . S
N2054 H2061 0.984 . S
N2055 C2048 1.356 . S
N2055 H2058 0.984 . S
N2055 H2059 0.985 . S
H2056 N2051 0.984 . S
H2057 N2051 0.985 . S
H2058 N2055 0.984 . S
H2059 N2055 0.985 . S
H2060 N2054 0.984 . S
H2061 N2054 0.984 . S
H2062 N2050 0.984 . S
H2063 N2050 0.985 . S
C2064 C2065 1.363 . S
C2064 C2070 1.379 . S
C2064 N2072 1.356 . S
C2065 C2064 1.363 . S
C2065 C2071 1.363 . S
C2066 C2067 1.363 . S
C2066 C2071 1.379 . S
C2066 N2073 1.356 . S
C2067 C2066 1.363 . S
C2067 C2070 1.363 . S
N2068 C2070 1.356 . S
N2068 H2080 0.984 . S
N2068 H2081 0.985 . S
N2069 C2071 1.356 . S
N2069 H2074 0.984 . S
N2069 H2075 0.985 . S
C2070 C2064 1.379 . S
C2070 C2067 1.363 . S
C2070 N2068 1.356 . S
C2071 C2065 1.363 . S
C2071 C2066 1.379 . S
C2071 N2069 1.356 . S
N2072 C2064 1.356 . S
N2072 H2078 0.984 . S
N2072 H2079 0.984 . S
N2073 C2066 1.356 . S
N2073 H2076 0.984 . S
N2073 H2077 0.985 . S
H2074 N2069 0.984 . S
H2075 N2069 0.985 . S
H2076 N2073 0.984 . S
H2077 N2073 0.985 . S
H2078 N2072 0.984 . S
H2079 N2072 0.984 . S
H2080 N2068 0.984 . S
H2081 N2068 0.985 . S
C2082 C2083 1.363 . S
C2082 C2088 1.379 . S
C2082 N2090 1.356 . S
C2083 C2082 1.363 . S
C2083 C2089 1.363 . S
C2084 C2085 1.363 . S
C2084 C2089 1.379 . S
C2084 N2091 1.356 . S
C2085 C2084 1.363 . S
C2085 C2088 1.363 . S
N2086 C2088 1.356 . S
N2086 H2098 0.984 . S
N2086 H2099 0.985 . S
N2087 C2089 1.356 . S
N2087 H2092 0.984 . S
N2087 H2093 0.985 . S
C2088 C2082 1.379 . S
C2088 C2085 1.363 . S
C2088 N2086 1.356 . S
C2089 C2083 1.363 . S
C2089 C2084 1.379 . S
C2089 N2087 1.356 . S
N2090 C2082 1.356 . S
N2090 H2096 0.984 . S
N2090 H2097 0.984 . S
N2091 C2084 1.356 . S
N2091 H2094 0.984 . S
N2091 H2095 0.985 . S
H2092 N2087 0.984 . S
H2093 N2087 0.985 . S
H2094 N2091 0.984 . S
H2095 N2091 0.985 . S
H2096 N2090 0.984 . S
H2097 N2090 0.984 . S
H2098 N2086 0.984 . S
H2099 N2086 0.985 . S
C2100 C2101 1.363 . S
C2100 C2106 1.379 . S
C2100 N2108 1.356 . S
C2101 C2100 1.363 . S
C2101 C2107 1.363 . S
C2102 C2103 1.363 . S
C2102 C2107 1.379 . S
C2102 N2109 1.356 . S
C2103 C2102 1.363 . S
C2103 C2106 1.363 . S
N2104 C2106 1.356 . S
N2104 H2116 0.984 . S
N2104 H2117 0.985 . S
N2105 C2107 1.356 . S
N2105 H2110 0.984 . S
N2105 H2111 0.985 . S
C2106 C2100 1.379 . S
C2106 C2103 1.363 . S
C2106 N2104 1.356 . S
C2107 C2101 1.363 . S
C2107 C2102 1.379 . S
C2107 N2105 1.356 . S
N2108 C2100 1.356 . S
N2108 H2114 0.984 . S
N2108 H2115 0.984 . S
N2109 C2102 1.356 . S
N2109 H2112 0.984 . S
N2109 H2113 0.985 . S
H2110 N2105 0.984 . S
H2111 N2105 0.985 . S
H2112 N2109 0.984 . S
H2113 N2109 0.985 . S
H2114 N2108 0.984 . S
H2115 N2108 0.984 . S
H2116 N2104 0.984 . S
H2117 N2104 0.985 . S
C2118 C2119 1.363 . S
C2118 C2124 1.379 . S
C2118 N2126 1.356 . S
C2119 C2118 1.363 . S
C2119 C2125 1.363 . S
C2120 C2121 1.363 . S
C2120 C2125 1.379 . S
C2120 N2127 1.356 . S
C2121 C2120 1.363 . S
C2121 C2124 1.363 . S
N2122 C2124 1.356 . S
N2122 H2134 0.984 . S
N2122 H2135 0.985 . S
N2123 C2125 1.356 . S
N2123 H2128 0.984 . S
N2123 H2129 0.985 . S
C2124 C2118 1.379 . S
C2124 C2121 1.363 . S
C2124 N2122 1.356 . S
C2125 C2119 1.363 . S
C2125 C2120 1.379 . S
C2125 N2123 1.356 . S
N2126 C2118 1.356 . S
N2126 H2132 0.984 . S
N2126 H2133 0.984 . S
N2127 C2120 1.356 . S
N2127 H2130 0.984 . S
N2127 H2131 0.985 . S
H2128 N2123 0.984 . S
H2129 N2123 0.985 . S
H2130 N2127 0.984 . S
H2131 N2127 0.985 . S
H2132 N2126 0.984 . S
H2133 N2126 0.984 . S
H2134 N2122 0.984 . S
H2135 N2122 0.985 . S
C2136 C2137 1.363 . S
C2136 C2142 1.379 . S
C2136 N2144 1.356 . S
C2137 C2136 1.363 . S
C2137 C2143 1.363 . S
C2138 C2139 1.363 . S
C2138 C2143 1.379 . S
C2138 N2145 1.356 . S
C2139 C2138 1.363 . S
C2139 C2142 1.363 . S
N2140 C2142 1.356 . S
N2140 H2152 0.984 . S
N2140 H2153 0.985 . S
N2141 C2143 1.356 . S
N2141 H2146 0.984 . S
N2141 H2147 0.985 . S
C2142 C2136 1.379 . S
C2142 C2139 1.363 . S
C2142 N2140 1.356 . S
C2143 C2137 1.363 . S
C2143 C2138 1.379 . S
C2143 N2141 1.356 . S
N2144 C2136 1.356 . S
N2144 H2150 0.984 . S
N2144 H2151 0.984 . S
N2145 C2138 1.356 . S
N2145 H2148 0.984 . S
N2145 H2149 0.985 . S
H2146 N2141 0.984 . S
H2147 N2141 0.985 . S
H2148 N2145 0.984 . S
H2149 N2145 0.985 . S
H2150 N2144 0.984 . S
H2151 N2144 0.984 . S
H2152 N2140 0.984 . S
H2153 N2140 0.985 . S
C2154 C2155 1.363 . S
C2154 C2160 1.379 . S
C2154 N2162 1.356 . S
C2155 C2154 1.363 . S
C2155 C2161 1.363 . S
C2156 C2157 1.363 . S
C2156 C2161 1.379 . S
C2156 N2163 1.356 . S
C2157 C2156 1.363 . S
C2157 C2160 1.363 . S
N2158 C2160 1.356 . S
N2158 H2170 0.984 . S
N2158 H2171 0.985 . S
N2159 C2161 1.356 . S
N2159 H2164 0.984 . S
N2159 H2165 0.985 . S
C2160 C2154 1.379 . S
C2160 C2157 1.363 . S
C2160 N2158 1.356 . S
C2161 C2155 1.363 . S
C2161 C2156 1.379 . S
C2161 N2159 1.356 . S
N2162 C2154 1.356 . S
N2162 H2168 0.984 . S
N2162 H2169 0.984 . S
N2163 C2156 1.356 . S
N2163 H2166 0.984 . S
N2163 H2167 0.985 . S
H2164 N2159 0.984 . S
H2165 N2159 0.985 . S
H2166 N2163 0.984 . S
H2167 N2163 0.985 . S
H2168 N2162 0.984 . S
H2169 N2162 0.984 . S
H2170 N2158 0.984 . S
H2171 N2158 0.985 . S
C2172 C2173 1.363 . S
C2172 C2178 1.379 . S
C2172 N2180 1.356 . S
C2173 C2172 1.363 . S
C2173 C2179 1.363 . S
C2174 C2175 1.363 . S
C2174 C2179 1.379 . S
C2174 N2181 1.356 . S
C2175 C2174 1.363 . S
C2175 C2178 1.363 . S
N2176 C2178 1.356 . S
N2176 H2188 0.984 . S
N2176 H2189 0.985 . S
N2177 C2179 1.356 . S
N2177 H2182 0.984 . S
N2177 H2183 0.985 . S
C2178 C2172 1.379 . S
C2178 C2175 1.363 . S
C2178 N2176 1.356 . S
C2179 C2173 1.363 . S
C2179 C2174 1.379 . S
C2179 N2177 1.356 . S
N2180 C2172 1.356 . S
N2180 H2186 0.984 . S
N2180 H2187 0.984 . S
N2181 C2174 1.356 . S
N2181 H2184 0.984 . S
N2181 H2185 0.985 . S
H2182 N2177 0.984 . S
H2183 N2177 0.985 . S
H2184 N2181 0.984 . S
H2185 N2181 0.985 . S
H2186 N2180 0.984 . S
H2187 N2180 0.984 . S
H2188 N2176 0.984 . S
H2189 N2176 0.985 . S
C2190 C2191 1.363 . S
C2190 C2196 1.379 . S
C2190 N2198 1.356 . S
C2191 C2190 1.363 . S
C2191 C2197 1.363 . S
C2192 C2193 1.363 . S
C2192 C2197 1.379 . S
C2192 N2199 1.356 . S
C2193 C2192 1.363 . S
C2193 C2196 1.363 . S
N2194 C2196 1.356 . S
N2194 H2206 0.984 . S
N2194 H2207 0.985 . S
N2195 C2197 1.356 . S
N2195 H2200 0.984 . S
N2195 H2201 0.985 . S
C2196 C2190 1.379 . S
C2196 C2193 1.363 . S
C2196 N2194 1.356 . S
C2197 C2191 1.363 . S
C2197 C2192 1.379 . S
C2197 N2195 1.356 . S
N2198 C2190 1.356 . S
N2198 H2204 0.984 . S
N2198 H2205 0.984 . S
N2199 C2192 1.356 . S
N2199 H2202 0.984 . S
N2199 H2203 0.985 . S
H2200 N2195 0.984 . S
H2201 N2195 0.985 . S
H2202 N2199 0.984 . S
H2203 N2199 0.985 . S
H2204 N2198 0.984 . S
H2205 N2198 0.984 . S
H2206 N2194 0.984 . S
H2207 N2194 0.985 . S
C2208 C2209 1.363 . S
C2208 C2214 1.379 . S
C2208 N2216 1.356 . S
C2209 C2208 1.363 . S
C2209 C2215 1.363 . S
C2210 C2211 1.363 . S
C2210 C2215 1.379 . S
C2210 N2217 1.356 . S
C2211 C2210 1.363 . S
C2211 C2214 1.363 . S
N2212 C2214 1.356 . S
N2212 H2224 0.984 . S
N2212 H2225 0.985 . S
N2213 C2215 1.356 . S
N2213 H2218 0.984 . S
N2213 H2219 0.985 . S
C2214 C2208 1.379 . S
C2214 C2211 1.363 . S
C2214 N2212 1.356 . S
C2215 C2209 1.363 . S
C2215 C2210 1.379 . S
C2215 N2213 1.356 . S
N2216 C2208 1.356 . S
N2216 H2222 0.984 . S
N2216 H2223 0.984 . S
N2217 C2210 1.356 . S
N2217 H2220 0.984 . S
N2217 H2221 0.985 . S
H2218 N2213 0.984 . S
H2219 N2213 0.985 . S
H2220 N2217 0.984 . S
H2221 N2217 0.985 . S
H2222 N2216 0.984 . S
H2223 N2216 0.984 . S
H2224 N2212 0.984 . S
H2225 N2212 0.985 . S
C2226 C2227 1.363 . S
C2226 C2232 1.379 . S
C2226 N2234 1.356 . S
C2227 C2226 1.363 . S
C2227 C2233 1.363 . S
C2228 C2229 1.363 . S
C2228 C2233 1.379 . S
C2228 N2235 1.356 . S
C2229 C2228 1.363 . S
C2229 C2232 1.363 . S
N2230 C2232 1.356 . S
N2230 H2242 0.984 . S
N2230 H2243 0.985 . S
N2231 C2233 1.356 . S
N2231 H2236 0.984 . S
N2231 H2237 0.985 . S
C2232 C2226 1.379 . S
C2232 C2229 1.363 . S
C2232 N2230 1.356 . S
C2233 C2227 1.363 . S
C2233 C2228 1.379 . S
C2233 N2231 1.356 . S
N2234 C2226 1.356 . S
N2234 H2240 0.984 . S
N2234 H2241 0.984 . S
N2235 C2228 1.356 . S
N2235 H2238 0.984 . S
N2235 H2239 0.985 . S
H2236 N2231 0.984 . S
H2237 N2231 0.985 . S
H2238 N2235 0.984 . S
H2239 N2235 0.985 . S
H2240 N2234 0.984 . S
H2241 N2234 0.984 . S
H2242 N2230 0.984 . S
H2243 N2230 0.985 . S
C2244 C2245 1.363 . S
C2244 C2250 1.379 . S
C2244 N2252 1.356 . S
C2245 C2244 1.363 . S
C2245 C2251 1.363 . S
C2246 C2247 1.363 . S
C2246 C2251 1.379 . S
C2246 N2253 1.356 . S
C2247 C2246 1.363 . S
C2247 C2250 1.363 . S
N2248 C2250 1.356 . S
N2248 H2260 0.984 . S
N2248 H2261 0.985 . S
N2249 C2251 1.356 . S
N2249 H2254 0.984 . S
N2249 H2255 0.985 . S
C2250 C2244 1.379 . S
C2250 C2247 1.363 . S
C2250 N2248 1.356 . S
C2251 C2245 1.363 . S
C2251 C2246 1.379 . S
C2251 N2249 1.356 . S
N2252 C2244 1.356 . S
N2252 H2258 0.984 . S
N2252 H2259 0.984 . S
N2253 C2246 1.356 . S
N2253 H2256 0.984 . S
N2253 H2257 0.985 . S
H2254 N2249 0.984 . S
H2255 N2249 0.985 . S
H2256 N2253 0.984 . S
H2257 N2253 0.985 . S
H2258 N2252 0.984 . S
H2259 N2252 0.984 . S
H2260 N2248 0.984 . S
H2261 N2248 0.985 . S
C2262 C2263 1.363 . S
C2262 C2268 1.379 . S
C2262 N2270 1.356 . S
C2263 C2262 1.363 . S
C2263 C2269 1.363 . S
C2264 C2265 1.363 . S
C2264 C2269 1.379 . S
C2264 N2271 1.356 . S
C2265 C2264 1.363 . S
C2265 C2268 1.363 . S
N2266 C2268 1.356 . S
N2266 H2278 0.984 . S
N2266 H2279 0.985 . S
N2267 C2269 1.356 . S
N2267 H2272 0.984 . S
N2267 H2273 0.985 . S
C2268 C2262 1.379 . S
C2268 C2265 1.363 . S
C2268 N2266 1.356 . S
C2269 C2263 1.363 . S
C2269 C2264 1.379 . S
C2269 N2267 1.356 . S
N2270 C2262 1.356 . S
N2270 H2276 0.984 . S
N2270 H2277 0.984 . S
N2271 C2264 1.356 . S
N2271 H2274 0.984 . S
N2271 H2275 0.985 . S
H2272 N2267 0.984 . S
H2273 N2267 0.985 . S
H2274 N2271 0.984 . S
H2275 N2271 0.985 . S
H2276 N2270 0.984 . S
H2277 N2270 0.984 . S
H2278 N2266 0.984 . S
H2279 N2266 0.985 . S
C2280 C2281 1.363 . S
C2280 C2286 1.379 . S
C2280 N2288 1.356 . S
C2281 C2280 1.363 . S
C2281 C2287 1.363 . S
C2282 C2283 1.363 . S
C2282 C2287 1.379 . S
C2282 N2289 1.356 . S
C2283 C2282 1.363 . S
C2283 C2286 1.363 . S
N2284 C2286 1.356 . S
N2284 H2296 0.984 . S
N2284 H2297 0.985 . S
N2285 C2287 1.356 . S
N2285 H2290 0.984 . S
N2285 H2291 0.985 . S
C2286 C2280 1.379 . S
C2286 C2283 1.363 . S
C2286 N2284 1.356 . S
C2287 C2281 1.363 . S
C2287 C2282 1.379 . S
C2287 N2285 1.356 . S
N2288 C2280 1.356 . S
N2288 H2294 0.984 . S
N2288 H2295 0.984 . S
N2289 C2282 1.356 . S
N2289 H2292 0.984 . S
N2289 H2293 0.985 . S
H2290 N2285 0.984 . S
H2291 N2285 0.985 . S
H2292 N2289 0.984 . S
H2293 N2289 0.985 . S
H2294 N2288 0.984 . S
H2295 N2288 0.984 . S
H2296 N2284 0.984 . S
H2297 N2284 0.985 . S
C2298 C2299 1.363 . S
C2298 C2304 1.379 . S
C2298 N2306 1.356 . S
C2299 C2298 1.363 . S
C2299 C2305 1.363 . S
C2300 C2301 1.363 . S
C2300 C2305 1.379 . S
C2300 N2307 1.356 . S
C2301 C2300 1.363 . S
C2301 C2304 1.363 . S
N2302 C2304 1.356 . S
N2302 H2314 0.984 . S
N2302 H2315 0.985 . S
N2303 C2305 1.356 . S
N2303 H2308 0.984 . S
N2303 H2309 0.985 . S
C2304 C2298 1.379 . S
C2304 C2301 1.363 . S
C2304 N2302 1.356 . S
C2305 C2299 1.363 . S
C2305 C2300 1.379 . S
C2305 N2303 1.356 . S
N2306 C2298 1.356 . S
N2306 H2312 0.984 . S
N2306 H2313 0.984 . S
N2307 C2300 1.356 . S
N2307 H2310 0.984 . S
N2307 H2311 0.985 . S
H2308 N2303 0.984 . S
H2309 N2303 0.985 . S
H2310 N2307 0.984 . S
H2311 N2307 0.985 . S
H2312 N2306 0.984 . S
H2313 N2306 0.984 . S
H2314 N2302 0.984 . S
H2315 N2302 0.985 . S
C2316 C2317 1.363 . S
C2316 C2322 1.379 . S
C2316 N2324 1.356 . S
C2317 C2316 1.363 . S
C2317 C2323 1.363 . S
C2318 C2319 1.363 . S
C2318 C2323 1.379 . S
C2318 N2325 1.356 . S
C2319 C2318 1.363 . S
C2319 C2322 1.363 . S
N2320 C2322 1.356 . S
N2320 H2332 0.984 . S
N2320 H2333 0.985 . S
N2321 C2323 1.356 . S
N2321 H2326 0.984 . S
N2321 H2327 0.985 . S
C2322 C2316 1.379 . S
C2322 C2319 1.363 . S
C2322 N2320 1.356 . S
C2323 C2317 1.363 . S
C2323 C2318 1.379 . S
C2323 N2321 1.356 . S
N2324 C2316 1.356 . S
N2324 H2330 0.984 . S
N2324 H2331 0.984 . S
N2325 C2318 1.356 . S
N2325 H2328 0.984 . S
N2325 H2329 0.985 . S
H2326 N2321 0.984 . S
H2327 N2321 0.985 . S
H2328 N2325 0.984 . S
H2329 N2325 0.985 . S
H2330 N2324 0.984 . S
H2331 N2324 0.984 . S
H2332 N2320 0.984 . S
H2333 N2320 0.985 . S
C2334 C2335 1.363 . S
C2334 C2340 1.379 . S
C2334 N2342 1.356 . S
C2335 C2334 1.363 . S
C2335 C2341 1.363 . S
C2336 C2337 1.363 . S
C2336 C2341 1.379 . S
C2336 N2343 1.356 . S
C2337 C2336 1.363 . S
C2337 C2340 1.363 . S
N2338 C2340 1.356 . S
N2338 H2350 0.984 . S
N2338 H2351 0.985 . S
N2339 C2341 1.356 . S
N2339 H2344 0.984 . S
N2339 H2345 0.985 . S
C2340 C2334 1.379 . S
C2340 C2337 1.363 . S
C2340 N2338 1.356 . S
C2341 C2335 1.363 . S
C2341 C2336 1.379 . S
C2341 N2339 1.356 . S
N2342 C2334 1.356 . S
N2342 H2348 0.984 . S
N2342 H2349 0.984 . S
N2343 C2336 1.356 . S
N2343 H2346 0.984 . S
N2343 H2347 0.985 . S
H2344 N2339 0.984 . S
H2345 N2339 0.985 . S
H2346 N2343 0.984 . S
H2347 N2343 0.985 . S
H2348 N2342 0.984 . S
H2349 N2342 0.984 . S
H2350 N2338 0.984 . S
H2351 N2338 0.985 . S
C2352 C2353 1.363 . S
C2352 C2358 1.379 1_455 S
C2352 N2360 1.356 . S
C2353 C2352 1.363 . S
C2353 C2359 1.363 . S
C2354 C2355 1.363 . S
C2354 C2359 1.379 1_655 S
C2354 N2361 1.356 . S
C2355 C2354 1.363 . S
C2355 C2358 1.363 . S
N2356 C2358 1.356 . S
N2356 H2368 0.984 . S
N2356 H2369 0.985 . S
N2357 C2359 1.356 . S
N2357 H2362 0.984 . S
N2357 H2363 0.985 . S
C2358 C2352 1.379 1_655 S
C2358 C2355 1.363 . S
C2358 N2356 1.356 . S
C2359 C2353 1.363 . S
C2359 C2354 1.379 1_455 S
C2359 N2357 1.356 . S
N2360 C2352 1.356 . S
N2360 H2366 0.984 . S
N2360 H2367 0.984 . S
N2361 C2354 1.356 . S
N2361 H2364 0.984 . S
N2361 H2365 0.985 . S
H2362 N2357 0.984 . S
H2363 N2357 0.985 . S
H2364 N2361 0.984 . S
H2365 N2361 0.985 . S
H2366 N2360 0.984 . S
H2367 N2360 0.984 . S
H2368 N2356 0.984 . S
H2369 N2356 0.985 . S
C2370 C2371 1.363 . S
C2370 C2376 1.379 . S
C2370 N2378 1.356 . S
C2371 C2370 1.363 . S
C2371 C2377 1.363 . S
C2372 C2373 1.363 . S
C2372 C2377 1.379 . S
C2372 N2379 1.356 . S
C2373 C2372 1.363 . S
C2373 C2376 1.363 . S
N2374 C2376 1.356 . S
N2374 H2386 0.984 . S
N2374 H2387 0.985 . S
N2375 C2377 1.356 . S
N2375 H2380 0.984 . S
N2375 H2381 0.985 . S
C2376 C2370 1.379 . S
C2376 C2373 1.363 . S
C2376 N2374 1.356 . S
C2377 C2371 1.363 . S
C2377 C2372 1.379 . S
C2377 N2375 1.356 . S
N2378 C2370 1.356 . S
N2378 H2384 0.984 . S
N2378 H2385 0.984 . S
N2379 C2372 1.356 . S
N2379 H2382 0.984 . S
N2379 H2383 0.985 . S
H2380 N2375 0.984 . S
H2381 N2375 0.985 . S
H2382 N2379 0.984 . S
H2383 N2379 0.985 . S
H2384 N2378 0.984 . S
H2385 N2378 0.984 . S
H2386 N2374 0.984 . S
H2387 N2374 0.985 . S
C2388 C2389 1.363 . S
C2388 C2394 1.379 . S
C2388 N2396 1.356 . S
C2389 C2388 1.363 . S
C2389 C2395 1.363 . S
C2390 C2391 1.363 . S
C2390 C2395 1.379 . S
C2390 N2397 1.356 . S
C2391 C2390 1.363 . S
C2391 C2394 1.363 . S
N2392 C2394 1.356 . S
N2392 H2404 0.984 . S
N2392 H2405 0.985 . S
N2393 C2395 1.356 . S
N2393 H2398 0.984 . S
N2393 H2399 0.985 . S
C2394 C2388 1.379 . S
C2394 C2391 1.363 . S
C2394 N2392 1.356 . S
C2395 C2389 1.363 . S
C2395 C2390 1.379 . S
C2395 N2393 1.356 . S
N2396 C2388 1.356 . S
N2396 H2402 0.984 . S
N2396 H2403 0.984 . S
N2397 C2390 1.356 . S
N2397 H2400 0.984 . S
N2397 H2401 0.985 . S
H2398 N2393 0.984 . S
H2399 N2393 0.985 . S
H2400 N2397 0.984 . S
H2401 N2397 0.985 . S
H2402 N2396 0.984 . S
H2403 N2396 0.984 . S
H2404 N2392 0.984 . S
H2405 N2392 0.985 . S
C2406 C2407 1.315 1_545 S
C2406 C2412 1.423 . S
C2406 N2414 1.344 1_545 S
C2407 C2406 1.315 1_565 S
C2407 C2413 1.363 . S
C2408 C2409 1.315 1_565 S
C2408 C2413 1.423 . S
C2408 N2415 1.344 1_565 S
C2409 C2408 1.315 1_545 S
C2409 C2412 1.363 . S
N2410 C2412 1.356 . S
N2410 H2422 0.984 . S
N2410 H2423 0.985 . S
N2411 C2413 1.356 . S
N2411 H2416 0.984 . S
N2411 H2417 0.985 . S
C2412 C2406 1.423 . S
C2412 C2409 1.363 . S
C2412 N2410 1.356 . S
C2413 C2407 1.363 . S
C2413 C2408 1.423 . S
C2413 N2411 1.356 . S
N2414 C2406 1.344 1_565 S
N2414 H2420 0.984 1_565 S
N2414 H2421 0.984 . S
N2415 C2408 1.344 1_545 S
N2415 H2418 0.984 . S
N2415 H2419 0.985 1_545 S
H2416 N2411 0.984 . S
H2417 N2411 0.985 . S
H2418 N2415 0.984 . S
H2419 N2415 0.985 1_565 S
H2420 N2414 0.984 1_545 S
H2421 N2414 0.984 . S
H2422 N2410 0.984 . S
H2423 N2410 0.985 . S
C2424 C2425 1.363 . S
C2424 C2430 1.379 1_655 S
C2424 N2432 1.356 . S
C2425 C2424 1.363 . S
C2425 C2431 1.363 . S
C2426 C2427 1.363 . S
C2426 C2431 1.379 1_455 S
C2426 N2433 1.356 . S
C2427 C2426 1.363 . S
C2427 C2430 1.363 . S
N2428 C2430 1.356 . S
N2428 H2440 0.984 . S
N2428 H2441 0.985 . S
N2429 C2431 1.356 . S
N2429 H2434 0.984 . S
N2429 H2435 0.985 . S
C2430 C2424 1.379 1_455 S
C2430 C2427 1.363 . S
C2430 N2428 1.356 . S
C2431 C2425 1.363 . S
C2431 C2426 1.379 1_655 S
C2431 N2429 1.356 . S
N2432 C2424 1.356 . S
N2432 H2438 0.984 . S
N2432 H2439 0.984 . S
N2433 C2426 1.356 . S
N2433 H2436 0.984 . S
N2433 H2437 0.985 . S
H2434 N2429 0.984 . S
H2435 N2429 0.985 . S
H2436 N2433 0.984 . S
H2437 N2433 0.985 . S
H2438 N2432 0.984 . S
H2439 N2432 0.984 . S
H2440 N2428 0.984 . S
H2441 N2428 0.985 . S
C2442 C2443 1.363 . S
C2442 C2448 1.379 . S
C2442 N2450 1.356 . S
C2443 C2442 1.363 . S
C2443 C2449 1.363 . S
C2444 C2445 1.363 . S
C2444 C2449 1.379 . S
C2444 N2451 1.356 . S
C2445 C2444 1.363 . S
C2445 C2448 1.363 . S
N2446 C2448 1.356 . S
N2446 H2458 0.984 . S
N2446 H2459 0.985 . S
N2447 C2449 1.356 . S
N2447 H2452 0.984 . S
N2447 H2453 0.985 . S
C2448 C2442 1.379 . S
C2448 C2445 1.363 . S
C2448 N2446 1.356 . S
C2449 C2443 1.363 . S
C2449 C2444 1.379 . S
C2449 N2447 1.356 . S
N2450 C2442 1.356 . S
N2450 H2456 0.984 . S
N2450 H2457 0.984 . S
N2451 C2444 1.356 . S
N2451 H2454 0.984 . S
N2451 H2455 0.985 . S
H2452 N2447 0.984 . S
H2453 N2447 0.985 . S
H2454 N2451 0.984 . S
H2455 N2451 0.985 . S
H2456 N2450 0.984 . S
H2457 N2450 0.984 . S
H2458 N2446 0.984 . S
H2459 N2446 0.985 . S
C2460 C2461 1.363 . S
C2460 C2466 1.379 . S
C2460 N2468 1.356 . S
C2461 C2460 1.363 . S
C2461 C2467 1.363 . S
C2462 C2463 1.363 . S
C2462 C2467 1.379 . S
C2462 N2469 1.356 . S
C2463 C2462 1.363 . S
C2463 C2466 1.363 . S
N2464 C2466 1.356 . S
N2464 H2476 0.984 . S
N2464 H2477 0.985 . S
N2465 C2467 1.356 . S
N2465 H2470 0.984 . S
N2465 H2471 0.985 . S
C2466 C2460 1.379 . S
C2466 C2463 1.363 . S
C2466 N2464 1.356 . S
C2467 C2461 1.363 . S
C2467 C2462 1.379 . S
C2467 N2465 1.356 . S
N2468 C2460 1.356 . S
N2468 H2474 0.984 . S
N2468 H2475 0.984 . S
N2469 C2462 1.356 . S
N2469 H2472 0.984 . S
N2469 H2473 0.985 . S
H2470 N2465 0.984 . S
H2471 N2465 0.985 . S
H2472 N2469 0.984 . S
H2473 N2469 0.985 . S
H2474 N2468 0.984 . S
H2475 N2468 0.984 . S
H2476 N2464 0.984 . S
H2477 N2464 0.985 . S
C2478 C2479 1.363 . S
C2478 C2484 1.379 1_545 S
C2478 N2486 1.356 . S
C2479 C2478 1.363 . S
C2479 C2485 1.363 . S
C2480 C2481 1.363 . S
C2480 C2485 1.379 1_565 S
C2480 N2487 1.356 . S
C2481 C2480 1.363 . S
C2481 C2484 1.363 . S
N2482 C2484 1.356 . S
N2482 H2494 0.984 . S
N2482 H2495 0.985 . S
N2483 C2485 1.356 . S
N2483 H2488 0.984 . S
N2483 H2489 0.985 . S
C2484 C2478 1.379 1_565 S
C2484 C2481 1.363 . S
C2484 N2482 1.356 . S
C2485 C2479 1.363 . S
C2485 C2480 1.379 1_545 S
C2485 N2483 1.356 . S
N2486 C2478 1.356 . S
N2486 H2492 0.984 . S
N2486 H2493 0.984 . S
N2487 C2480 1.356 . S
N2487 H2490 0.984 . S
N2487 H2491 0.985 . S
H2488 N2483 0.984 . S
H2489 N2483 0.985 . S
H2490 N2487 0.984 . S
H2491 N2487 0.985 . S
H2492 N2486 0.984 . S
H2493 N2486 0.984 . S
H2494 N2482 0.984 . S
H2495 N2482 0.985 . S
C2496 C2497 1.363 . S
C2496 C2502 1.420 . S
C2496 N2504 1.356 . S
C2497 C2496 1.363 . S
C2497 C2503 1.318 1_554 S
C2498 C2499 1.363 . S
C2498 C2503 1.420 . S
C2498 N2505 1.356 . S
C2499 C2498 1.363 . S
C2499 C2502 1.319 1_556 S
N2500 C2502 1.345 1_556 S
N2500 H2512 0.984 1_556 S
N2500 H2513 0.985 . S
N2501 C2503 1.345 1_554 S
N2501 H2506 0.984 . S
N2501 H2507 0.985 1_554 S
C2502 C2496 1.420 . S
C2502 C2499 1.319 1_554 S
C2502 N2500 1.345 1_554 S
C2503 C2497 1.318 1_556 S
C2503 C2498 1.420 . S
C2503 N2501 1.345 1_556 S
N2504 C2496 1.356 . S
N2504 H2510 0.984 . S
N2504 H2511 0.984 . S
N2505 C2498 1.356 . S
N2505 H2508 0.984 . S
N2505 H2509 0.985 . S
H2506 N2501 0.984 . S
H2507 N2501 0.985 1_556 S
H2508 N2505 0.984 . S
H2509 N2505 0.985 . S
H2510 N2504 0.984 . S
H2511 N2504 0.984 . S
H2512 N2500 0.984 1_554 S
H2513 N2500 0.985 . S
C2514 C2515 1.363 . S
C2514 C2520 1.379 . S
C2514 N2522 1.356 . S
C2515 C2514 1.363 . S
C2515 C2521 1.363 . S
C2516 C2517 1.363 . S
C2516 C2521 1.379 . S
C2516 N2523 1.356 . S
C2517 C2516 1.363 . S
C2517 C2520 1.363 . S
N2518 C2520 1.356 . S
N2518 H2530 0.984 . S
N2518 H2531 0.985 . S
N2519 C2521 1.356 . S
N2519 H2524 0.984 . S
N2519 H2525 0.985 . S
C2520 C2514 1.379 . S
C2520 C2517 1.363 . S
C2520 N2518 1.356 . S
C2521 C2515 1.363 . S
C2521 C2516 1.379 . S
C2521 N2519 1.356 . S
N2522 C2514 1.356 . S
N2522 H2528 0.984 . S
N2522 H2529 0.984 . S
N2523 C2516 1.356 . S
N2523 H2526 0.984 . S
N2523 H2527 0.985 . S
H2524 N2519 0.984 . S
H2525 N2519 0.985 . S
H2526 N2523 0.984 . S
H2527 N2523 0.985 . S
H2528 N2522 0.984 . S
H2529 N2522 0.984 . S
H2530 N2518 0.984 . S
H2531 N2518 0.985 . S
C2532 C2533 1.363 . S
C2532 C2538 1.379 . S
C2532 N2540 1.356 . S
C2533 C2532 1.363 . S
C2533 C2539 1.363 . S
C2534 C2535 1.363 . S
C2534 C2539 1.379 . S
C2534 N2541 1.356 . S
C2535 C2534 1.363 . S
C2535 C2538 1.363 . S
N2536 C2538 1.356 . S
N2536 H2548 0.984 . S
N2536 H2549 0.985 . S
N2537 C2539 1.356 . S
N2537 H2542 0.984 . S
N2537 H2543 0.985 . S
C2538 C2532 1.379 . S
C2538 C2535 1.363 . S
C2538 N2536 1.356 . S
C2539 C2533 1.363 . S
C2539 C2534 1.379 . S
C2539 N2537 1.356 . S
N2540 C2532 1.356 . S
N2540 H2546 0.984 . S
N2540 H2547 0.984 . S
N2541 C2534 1.356 . S
N2541 H2544 0.984 . S
N2541 H2545 0.985 . S
H2542 N2537 0.984 . S
H2543 N2537 0.985 . S
H2544 N2541 0.984 . S
H2545 N2541 0.985 . S
H2546 N2540 0.984 . S
H2547 N2540 0.984 . S
H2548 N2536 0.984 . S
H2549 N2536 0.985 . S
C2550 C2551 1.363 . S
C2550 C2556 1.379 1_556 S
C2550 N2558 1.356 . S
C2551 C2550 1.363 . S
C2551 C2557 1.363 . S
C2552 C2553 1.363 . S
C2552 C2557 1.379 1_554 S
C2552 N2559 1.356 . S
C2553 C2552 1.363 . S
C2553 C2556 1.363 . S
N2554 C2556 1.356 . S
N2554 H2566 0.984 . S
N2554 H2567 0.985 . S
N2555 C2557 1.356 . S
N2555 H2560 0.984 . S
N2555 H2561 0.985 . S
C2556 C2550 1.379 1_554 S
C2556 C2553 1.363 . S
C2556 N2554 1.356 . S
C2557 C2551 1.363 . S
C2557 C2552 1.379 1_556 S
C2557 N2555 1.356 . S
N2558 C2550 1.356 . S
N2558 H2564 0.984 . S
N2558 H2565 0.984 . S
N2559 C2552 1.356 . S
N2559 H2562 0.984 . S
N2559 H2563 0.985 . S
H2560 N2555 0.984 . S
H2561 N2555 0.985 . S
H2562 N2559 0.984 . S
H2563 N2559 0.985 . S
H2564 N2558 0.984 . S
H2565 N2558 0.984 . S
H2566 N2554 0.984 . S
H2567 N2554 0.985 . S
C2568 C2569 1.363 . S
C2568 C2574 1.423 . S
C2568 N2576 1.356 . S
C2569 C2568 1.363 . S
C2569 C2575 1.315 1_655 S
C2570 C2571 1.363 . S
C2570 C2575 1.423 . S
C2570 N2577 1.356 . S
C2571 C2570 1.363 . S
C2571 C2574 1.315 1_455 S
N2572 C2574 1.344 1_455 S
N2572 H2584 0.984 1_455 S
N2572 H2585 0.985 . S
N2573 C2575 1.344 1_655 S
N2573 H2578 0.984 . S
N2573 H2579 0.985 1_655 S
C2574 C2568 1.423 . S
C2574 C2571 1.315 1_655 S
C2574 N2572 1.344 1_655 S
C2575 C2569 1.315 1_455 S
C2575 C2570 1.423 . S
C2575 N2573 1.344 1_455 S
N2576 C2568 1.356 . S
N2576 H2582 0.984 . S
N2576 H2583 0.984 . S
N2577 C2570 1.356 . S
N2577 H2580 0.984 . S
N2577 H2581 0.985 . S
H2578 N2573 0.984 . S
H2579 N2573 0.985 1_455 S
H2580 N2577 0.984 . S
H2581 N2577 0.985 . S
H2582 N2576 0.984 . S
H2583 N2576 0.984 . S
H2584 N2572 0.984 1_655 S
H2585 N2572 0.985 . S
C2586 C2587 1.363 . S
C2586 C2592 1.379 . S
C2586 N2594 1.356 . S
C2587 C2586 1.363 . S
C2587 C2593 1.363 . S
C2588 C2589 1.363 . S
C2588 C2593 1.379 . S
C2588 N2595 1.356 . S
C2589 C2588 1.363 . S
C2589 C2592 1.363 . S
N2590 C2592 1.356 . S
N2590 H2602 0.984 . S
N2590 H2603 0.985 . S
N2591 C2593 1.356 . S
N2591 H2596 0.984 . S
N2591 H2597 0.985 . S
C2592 C2586 1.379 . S
C2592 C2589 1.363 . S
C2592 N2590 1.356 . S
C2593 C2587 1.363 . S
C2593 C2588 1.379 . S
C2593 N2591 1.356 . S
N2594 C2586 1.356 . S
N2594 H2600 0.984 . S
N2594 H2601 0.984 . S
N2595 C2588 1.356 . S
N2595 H2598 0.984 . S
N2595 H2599 0.985 . S
H2596 N2591 0.984 . S
H2597 N2591 0.985 . S
H2598 N2595 0.984 . S
H2599 N2595 0.985 . S
H2600 N2594 0.984 . S
H2601 N2594 0.984 . S
H2602 N2590 0.984 . S
H2603 N2590 0.985 . S
C2604 C2605 1.363 . S
C2604 C2610 1.379 . S
C2604 N2612 1.356 . S
C2605 C2604 1.363 . S
C2605 C2611 1.363 . S
C2606 C2607 1.363 . S
C2606 C2611 1.379 . S
C2606 N2613 1.356 . S
C2607 C2606 1.363 . S
C2607 C2610 1.363 . S
N2608 C2610 1.356 . S
N2608 H2620 0.984 . S
N2608 H2621 0.985 . S
N2609 C2611 1.356 . S
N2609 H2614 0.984 . S
N2609 H2615 0.985 . S
C2610 C2604 1.379 . S
C2610 C2607 1.363 . S
C2610 N2608 1.356 . S
C2611 C2605 1.363 . S
C2611 C2606 1.379 . S
C2611 N2609 1.356 . S
N2612 C2604 1.356 . S
N2612 H2618 0.984 . S
N2612 H2619 0.984 . S
N2613 C2606 1.356 . S
N2613 H2616 0.984 . S
N2613 H2617 0.985 . S
H2614 N2609 0.984 . S
H2615 N2609 0.985 . S
H2616 N2613 0.984 . S
H2617 N2613 0.985 . S
H2618 N2612 0.984 . S
H2619 N2612 0.984 . S
H2620 N2608 0.984 . S
H2621 N2608 0.985 . S
C2622 C2623 1.444 . S
C2622 C2628 1.294 1_565 S
C2622 N2630 1.395 . S
C2623 C2622 1.444 . S
C2623 C2629 1.363 . S
C2624 C2625 1.444 . S
C2624 C2629 1.294 1_545 S
C2624 N2631 1.395 . S
C2625 C2624 1.444 . S
C2625 C2628 1.363 . S
N2626 C2628 1.356 . S
N2626 H2638 0.984 . S
N2626 H2639 0.985 . S
N2627 C2629 1.356 . S
N2627 H2632 0.984 . S
N2627 H2633 0.985 . S
C2628 C2622 1.294 1_545 S
C2628 C2625 1.363 . S
C2628 N2626 1.356 . S
C2629 C2623 1.363 . S
C2629 C2624 1.294 1_565 S
C2629 N2627 1.356 . S
N2630 C2622 1.395 . S
N2630 H2636 0.994 . S
N2630 H2637 0.984 . S
N2631 C2624 1.395 . S
N2631 H2634 0.984 . S
N2631 H2635 0.994 . S
H2632 N2627 0.984 . S
H2633 N2627 0.985 . S
H2634 N2631 0.984 . S
H2635 N2631 0.994 . S
H2636 N2630 0.994 . S
H2637 N2630 0.984 . S
H2638 N2626 0.984 . S
H2639 N2626 0.985 . S
C2640 C2641 1.363 . S
C2640 C2646 1.379 1_655 S
C2640 N2648 1.356 . S
C2641 C2640 1.363 . S
C2641 C2647 1.363 . S
C2642 C2643 1.363 . S
C2642 C2647 1.379 1_455 S
C2642 N2649 1.356 . S
C2643 C2642 1.363 . S
C2643 C2646 1.363 . S
N2644 C2646 1.356 . S
N2644 H2656 1.020 . S
N2644 H2657 0.985 . S
N2645 C2647 1.356 . S
N2645 H2650 0.984 . S
N2645 H2651 1.020 . S
C2646 C2640 1.379 1_455 S
C2646 C2643 1.363 . S
C2646 N2644 1.356 . S
C2647 C2641 1.363 . S
C2647 C2642 1.379 1_655 S
C2647 N2645 1.356 . S
N2648 C2640 1.356 . S
N2648 H2654 0.984 . S
N2648 H2655 0.984 . S
N2649 C2642 1.356 . S
N2649 H2652 0.984 . S
N2649 H2653 0.985 . S
H2650 N2645 0.984 . S
H2651 N2645 1.020 . S
H2652 N2649 0.984 . S
H2653 N2649 0.985 . S
H2654 N2648 0.984 . S
H2655 N2648 0.984 . S
H2656 N2644 1.020 . S
H2657 N2644 0.985 . S
C2658 C2659 1.363 . S
C2658 C2664 1.379 . S
C2658 N2666 1.356 . S
C2659 C2658 1.363 . S
C2659 C2665 1.363 . S
C2660 C2661 1.363 . S
C2660 C2665 1.379 . S
C2660 N2667 1.356 . S
C2661 C2660 1.363 . S
C2661 C2664 1.363 . S
N2662 C2664 1.356 . S
N2662 H2674 0.984 . S
N2662 H2675 0.985 . S
N2663 C2665 1.356 . S
N2663 H2668 0.984 . S
N2663 H2669 0.985 . S
C2664 C2658 1.379 . S
C2664 C2661 1.363 . S
C2664 N2662 1.356 . S
C2665 C2659 1.363 . S
C2665 C2660 1.379 . S
C2665 N2663 1.356 . S
N2666 C2658 1.356 . S
N2666 H2672 0.984 . S
N2666 H2673 0.984 . S
N2667 C2660 1.356 . S
N2667 H2670 0.984 . S
N2667 H2671 0.985 . S
H2668 N2663 0.984 . S
H2669 N2663 0.985 . S
H2670 N2667 0.984 . S
H2671 N2667 0.985 . S
H2672 N2666 0.984 . S
H2673 N2666 0.984 . S
H2674 N2662 0.984 . S
H2675 N2662 0.985 . S
C2676 C2677 1.363 . S
C2676 C2682 1.379 . S
C2676 N2684 1.356 . S
C2677 C2676 1.363 . S
C2677 C2683 1.363 . S
C2678 C2679 1.363 . S
C2678 C2683 1.379 . S
C2678 N2685 1.356 . S
C2679 C2678 1.363 . S
C2679 C2682 1.363 . S
N2680 C2682 1.356 . S
N2680 H2692 0.984 . S
N2680 H2693 0.985 . S
N2681 C2683 1.356 . S
N2681 H2686 0.984 . S
N2681 H2687 0.985 . S
C2682 C2676 1.379 . S
C2682 C2679 1.363 . S
C2682 N2680 1.356 . S
C2683 C2677 1.363 . S
C2683 C2678 1.379 . S
C2683 N2681 1.356 . S
N2684 C2676 1.356 . S
N2684 H2690 0.984 . S
N2684 H2691 0.984 . S
N2685 C2678 1.356 . S
N2685 H2688 0.984 . S
N2685 H2689 0.985 . S
H2686 N2681 0.984 . S
H2687 N2681 0.985 . S
H2688 N2685 0.984 . S
H2689 N2685 0.985 . S
H2690 N2684 0.984 . S
H2691 N2684 0.984 . S
H2692 N2680 0.984 . S
H2693 N2680 0.985 . S
C2694 C2695 1.363 . S
C2694 C2700 1.379 1_545 S
C2694 N2702 1.356 . S
C2695 C2694 1.363 . S
C2695 C2701 1.363 . S
C2696 C2697 1.363 . S
C2696 C2701 1.379 1_565 S
C2696 N2703 1.356 . S
C2697 C2696 1.363 . S
C2697 C2700 1.363 . S
N2698 C2700 1.356 . S
N2698 H2710 0.984 . S
N2698 H2711 0.985 . S
N2699 C2701 1.356 . S
N2699 H2704 0.984 . S
N2699 H2705 0.985 . S
C2700 C2694 1.379 1_565 S
C2700 C2697 1.363 . S
C2700 N2698 1.356 . S
C2701 C2695 1.363 . S
C2701 C2696 1.379 1_545 S
C2701 N2699 1.356 . S
N2702 C2694 1.356 . S
N2702 H2708 0.984 . S
N2702 H2709 0.984 . S
N2703 C2696 1.356 . S
N2703 H2706 0.984 . S
N2703 H2707 0.985 . S
H2704 N2699 0.984 . S
H2705 N2699 0.985 . S
H2706 N2703 0.984 . S
H2707 N2703 0.985 . S
H2708 N2702 0.984 . S
H2709 N2702 0.984 . S
H2710 N2698 0.984 . S
H2711 N2698 0.985 . S
C2712 C2713 1.363 . S
C2712 C2718 1.379 1_554 S
C2712 N2720 1.356 . S
C2713 C2712 1.363 . S
C2713 C2719 1.363 . S
C2714 C2715 1.363 . S
C2714 C2719 1.379 1_556 S
C2714 N2721 1.356 . S
C2715 C2714 1.363 . S
C2715 C2718 1.363 . S
N2716 C2718 1.356 . S
N2716 H2728 0.984 . S
N2716 H2729 0.985 . S
N2717 C2719 1.356 . S
N2717 H2722 0.984 . S
N2717 H2723 0.985 . S
C2718 C2712 1.379 1_556 S
C2718 C2715 1.363 . S
C2718 N2716 1.356 . S
C2719 C2713 1.363 . S
C2719 C2714 1.379 1_554 S
C2719 N2717 1.356 . S
N2720 C2712 1.356 . S
N2720 H2726 0.984 . S
N2720 H2727 0.984 . S
N2721 C2714 1.356 . S
N2721 H2724 0.984 . S
N2721 H2725 0.985 . S
H2722 N2717 0.984 . S
H2723 N2717 0.985 . S
H2724 N2721 0.984 . S
H2725 N2721 0.985 . S
H2726 N2720 0.984 . S
H2727 N2720 0.984 . S
H2728 N2716 0.984 . S
H2729 N2716 0.985 . S
C2730 C2731 1.363 . S
C2730 C2736 1.379 . S
C2730 N2738 1.356 . S
C2731 C2730 1.363 . S
C2731 C2737 1.363 . S
C2732 C2733 1.363 . S
C2732 C2737 1.379 . S
C2732 N2739 1.356 . S
C2733 C2732 1.363 . S
C2733 C2736 1.363 . S
N2734 C2736 1.356 . S
N2734 H2746 0.984 . S
N2734 H2747 0.985 . S
N2735 C2737 1.356 . S
N2735 H2740 0.984 . S
N2735 H2741 0.985 . S
C2736 C2730 1.379 . S
C2736 C2733 1.363 . S
C2736 N2734 1.356 . S
C2737 C2731 1.363 . S
C2737 C2732 1.379 . S
C2737 N2735 1.356 . S
N2738 C2730 1.356 . S
N2738 H2744 0.984 . S
N2738 H2745 0.984 . S
N2739 C2732 1.356 . S
N2739 H2742 0.984 . S
N2739 H2743 0.985 . S
H2740 N2735 0.984 . S
H2741 N2735 0.985 . S
H2742 N2739 0.984 . S
H2743 N2739 0.985 . S
H2744 N2738 0.984 . S
H2745 N2738 0.984 . S
H2746 N2734 0.984 . S
H2747 N2734 0.985 . S
C2748 C2749 1.363 . S
C2748 C2754 1.379 . S
C2748 N2756 1.356 . S
C2749 C2748 1.363 . S
C2749 C2755 1.363 . S
C2750 C2751 1.363 . S
C2750 C2755 1.379 . S
C2750 N2757 1.356 . S
C2751 C2750 1.363 . S
C2751 C2754 1.363 . S
N2752 C2754 1.356 . S
N2752 H2764 0.984 . S
N2752 H2765 0.985 . S
N2753 C2755 1.356 . S
N2753 H2758 0.984 . S
N2753 H2759 0.985 . S
C2754 C2748 1.379 . S
C2754 C2751 1.363 . S
C2754 N2752 1.356 . S
C2755 C2749 1.363 . S
C2755 C2750 1.379 . S
C2755 N2753 1.356 . S
N2756 C2748 1.356 . S
N2756 H2762 0.984 . S
N2756 H2763 0.984 . S
N2757 C2750 1.356 . S
N2757 H2760 0.984 . S
N2757 H2761 0.985 . S
H2758 N2753 0.984 . S
H2759 N2753 0.985 . S
H2760 N2757 0.984 . S
H2761 N2757 0.985 . S
H2762 N2756 0.984 . S
H2763 N2756 0.984 . S
H2764 N2752 0.984 . S
H2765 N2752 0.985 . S
C2766 C2767 1.363 . S
C2766 C2772 1.401 . S
C2766 N2774 1.356 . S
C2767 C2766 1.363 . S
C2767 C2773 1.340 1_554 S
C2768 C2769 1.363 . S
C2768 C2773 1.401 . S
C2768 N2775 1.356 . S
C2769 C2768 1.363 . S
C2769 C2772 1.340 1_556 S
N2770 C2772 1.350 1_556 S
N2770 H2782 0.984 1_556 S
N2770 H2783 0.985 . S
N2771 C2773 1.350 1_554 S
N2771 H2776 0.984 . S
N2771 H2777 0.985 1_554 S
C2772 C2766 1.401 . S
C2772 C2769 1.340 1_554 S
C2772 N2770 1.350 1_554 S
C2773 C2767 1.340 1_556 S
C2773 C2768 1.401 . S
C2773 N2771 1.350 1_556 S
N2774 C2766 1.356 . S
N2774 H2780 0.984 . S
N2774 H2781 0.984 . S
N2775 C2768 1.356 . S
N2775 H2778 0.984 . S
N2775 H2779 0.985 . S
H2776 N2771 0.984 . S
H2777 N2771 0.985 1_556 S
H2778 N2775 0.984 . S
H2779 N2775 0.985 . S
H2780 N2774 0.984 . S
H2781 N2774 0.984 . S
H2782 N2770 0.984 1_554 S
H2783 N2770 0.985 . S
C2784 C2785 1.363 . S
C2784 C2790 1.379 . S
C2784 N2792 1.356 . S
C2785 C2784 1.363 . S
C2785 C2791 1.363 . S
C2786 C2787 1.363 . S
C2786 C2791 1.379 . S
C2786 N2793 1.356 . S
C2787 C2786 1.363 . S
C2787 C2790 1.363 . S
N2788 C2790 1.356 . S
N2788 H2800 0.984 . S
N2788 H2801 0.985 . S
N2789 C2791 1.356 . S
N2789 H2794 0.984 . S
N2789 H2795 0.985 . S
C2790 C2784 1.379 . S
C2790 C2787 1.363 . S
C2790 N2788 1.356 . S
C2791 C2785 1.363 . S
C2791 C2786 1.379 . S
C2791 N2789 1.356 . S
N2792 C2784 1.356 . S
N2792 H2798 0.984 . S
N2792 H2799 0.984 . S
N2793 C2786 1.356 . S
N2793 H2796 0.984 . S
N2793 H2797 0.985 . S
H2794 N2789 0.984 . S
H2795 N2789 0.985 . S
H2796 N2793 0.984 . S
H2797 N2793 0.985 . S
H2798 N2792 0.984 . S
H2799 N2792 0.984 . S
H2800 N2788 0.984 . S
H2801 N2788 0.985 . S
C2802 C2803 1.363 . S
C2802 C2808 1.379 . S
C2802 N2810 1.356 . S
C2803 C2802 1.363 . S
C2803 C2809 1.363 . S
C2804 C2805 1.363 . S
C2804 C2809 1.379 . S
C2804 N2811 1.356 . S
C2805 C2804 1.363 . S
C2805 C2808 1.363 . S
N2806 C2808 1.356 . S
N2806 H2818 0.984 . S
N2806 H2819 0.985 . S
N2807 C2809 1.356 . S
N2807 H2812 0.984 . S
N2807 H2813 0.985 . S
C2808 C2802 1.379 . S
C2808 C2805 1.363 . S
C2808 N2806 1.356 . S
C2809 C2803 1.363 . S
C2809 C2804 1.379 . S
C2809 N2807 1.356 . S
N2810 C2802 1.356 . S
N2810 H2816 0.984 . S
N2810 H2817 0.984 . S
N2811 C2804 1.356 . S
N2811 H2814 0.984 . S
N2811 H2815 0.985 . S
H2812 N2807 0.984 . S
H2813 N2807 0.985 . S
H2814 N2811 0.984 . S
H2815 N2811 0.985 . S
H2816 N2810 0.984 . S
H2817 N2810 0.984 . S
H2818 N2806 0.984 . S
H2819 N2806 0.985 . S
C2820 C2821 1.363 . S
C2820 C2826 1.379 . S
C2820 N2828 1.356 . S
C2821 C2820 1.363 . S
C2821 C2827 1.363 . S
C2822 C2823 1.363 . S
C2822 C2827 1.379 . S
C2822 N2829 1.356 . S
C2823 C2822 1.363 . S
C2823 C2826 1.363 . S
N2824 C2826 1.356 . S
N2824 H2836 0.984 . S
N2824 H2837 0.985 . S
N2825 C2827 1.356 . S
N2825 H2830 0.984 . S
N2825 H2831 0.985 . S
C2826 C2820 1.379 . S
C2826 C2823 1.363 . S
C2826 N2824 1.356 . S
C2827 C2821 1.363 . S
C2827 C2822 1.379 . S
C2827 N2825 1.356 . S
N2828 C2820 1.356 . S
N2828 H2834 0.984 . S
N2828 H2835 0.984 . S
N2829 C2822 1.356 . S
N2829 H2832 0.984 . S
N2829 H2833 0.985 . S
H2830 N2825 0.984 . S
H2831 N2825 0.985 . S
H2832 N2829 0.984 . S
H2833 N2829 0.985 . S
H2834 N2828 0.984 . S
H2835 N2828 0.984 . S
H2836 N2824 0.984 . S
H2837 N2824 0.985 . S
C2838 C2839 1.363 . S
C2838 C2844 1.379 . S
C2838 N2846 1.356 . S
C2839 C2838 1.363 . S
C2839 C2845 1.363 . S
C2840 C2841 1.363 . S
C2840 C2845 1.379 . S
C2840 N2847 1.356 . S
C2841 C2840 1.363 . S
C2841 C2844 1.363 . S
N2842 C2844 1.356 . S
N2842 H2854 0.984 . S
N2842 H2855 0.985 . S
N2843 C2845 1.356 . S
N2843 H2848 0.984 . S
N2843 H2849 0.985 . S
C2844 C2838 1.379 . S
C2844 C2841 1.363 . S
C2844 N2842 1.356 . S
C2845 C2839 1.363 . S
C2845 C2840 1.379 . S
C2845 N2843 1.356 . S
N2846 C2838 1.356 . S
N2846 H2852 0.984 . S
N2846 H2853 0.984 . S
N2847 C2840 1.356 . S
N2847 H2850 0.984 . S
N2847 H2851 0.985 . S
H2848 N2843 0.984 . S
H2849 N2843 0.985 . S
H2850 N2847 0.984 . S
H2851 N2847 0.985 . S
H2852 N2846 0.984 . S
H2853 N2846 0.984 . S
H2854 N2842 0.984 . S
H2855 N2842 0.985 . S
C2856 C2857 1.363 . S
C2856 C2862 1.379 . S
C2856 N2864 1.356 . S
C2857 C2856 1.363 . S
C2857 C2863 1.363 . S
C2858 C2859 1.363 . S
C2858 C2863 1.379 . S
C2858 N2865 1.356 . S
C2859 C2858 1.363 . S
C2859 C2862 1.363 . S
N2860 C2862 1.356 . S
N2860 H2872 0.984 . S
N2860 H2873 0.985 . S
N2861 C2863 1.356 . S
N2861 H2866 0.984 . S
N2861 H2867 0.985 . S
C2862 C2856 1.379 . S
C2862 C2859 1.363 . S
C2862 N2860 1.356 . S
C2863 C2857 1.363 . S
C2863 C2858 1.379 . S
C2863 N2861 1.356 . S
N2864 C2856 1.356 . S
N2864 H2870 0.984 . S
N2864 H2871 0.984 . S
N2865 C2858 1.356 . S
N2865 H2868 0.984 . S
N2865 H2869 0.985 . S
H2866 N2861 0.984 . S
H2867 N2861 0.985 . S
H2868 N2865 0.984 . S
H2869 N2865 0.985 . S
H2870 N2864 0.984 . S
H2871 N2864 0.984 . S
H2872 N2860 0.984 . S
H2873 N2860 0.985 . S
C2874 C2875 1.363 . S
C2874 C2880 1.379 . S
C2874 N2882 1.356 . S
C2875 C2874 1.363 . S
C2875 C2881 1.363 . S
C2876 C2877 1.363 . S
C2876 C2881 1.379 . S
C2876 N2883 1.356 . S
C2877 C2876 1.363 . S
C2877 C2880 1.363 . S
N2878 C2880 1.356 . S
N2878 H2890 0.984 . S
N2878 H2891 0.985 . S
N2879 C2881 1.356 . S
N2879 H2884 0.984 . S
N2879 H2885 0.985 . S
C2880 C2874 1.379 . S
C2880 C2877 1.363 . S
C2880 N2878 1.356 . S
C2881 C2875 1.363 . S
C2881 C2876 1.379 . S
C2881 N2879 1.356 . S
N2882 C2874 1.356 . S
N2882 H2888 0.984 . S
N2882 H2889 0.984 . S
N2883 C2876 1.356 . S
N2883 H2886 0.984 . S
N2883 H2887 0.985 . S
H2884 N2879 0.984 . S
H2885 N2879 0.985 . S
H2886 N2883 0.984 . S
H2887 N2883 0.985 . S
H2888 N2882 0.984 . S
H2889 N2882 0.984 . S
H2890 N2878 0.984 . S
H2891 N2878 0.985 . S
C2892 C2893 1.363 . S
C2892 C2898 1.379 . S
C2892 N2900 1.356 . S
C2893 C2892 1.363 . S
C2893 C2899 1.363 . S
C2894 C2895 1.363 . S
C2894 C2899 1.379 . S
C2894 N2901 1.356 . S
C2895 C2894 1.363 . S
C2895 C2898 1.363 . S
N2896 C2898 1.356 . S
N2896 H2908 0.984 . S
N2896 H2909 0.985 . S
N2897 C2899 1.356 . S
N2897 H2902 0.984 . S
N2897 H2903 0.985 . S
C2898 C2892 1.379 . S
C2898 C2895 1.363 . S
C2898 N2896 1.356 . S
C2899 C2893 1.363 . S
C2899 C2894 1.379 . S
C2899 N2897 1.356 . S
N2900 C2892 1.356 . S
N2900 H2906 0.984 . S
N2900 H2907 0.984 . S
N2901 C2894 1.356 . S
N2901 H2904 0.984 . S
N2901 H2905 0.985 . S
H2902 N2897 0.984 . S
H2903 N2897 0.985 . S
H2904 N2901 0.984 . S
H2905 N2901 0.985 . S
H2906 N2900 0.984 . S
H2907 N2900 0.984 . S
H2908 N2896 0.984 . S
H2909 N2896 0.985 . S
C2910 C2911 1.363 . S
C2910 C2916 1.379 . S
C2910 N2918 1.356 . S
C2911 C2910 1.363 . S
C2911 C2917 1.363 . S
C2912 C2913 1.363 . S
C2912 C2917 1.379 . S
C2912 N2919 1.356 . S
C2913 C2912 1.363 . S
C2913 C2916 1.363 . S
N2914 C2916 1.356 . S
N2914 H2926 0.984 . S
N2914 H2927 0.985 . S
N2915 C2917 1.356 . S
N2915 H2920 0.984 . S
N2915 H2921 0.985 . S
C2916 C2910 1.379 . S
C2916 C2913 1.363 . S
C2916 N2914 1.356 . S
C2917 C2911 1.363 . S
C2917 C2912 1.379 . S
C2917 N2915 1.356 . S
N2918 C2910 1.356 . S
N2918 H2924 0.984 . S
N2918 H2925 0.984 . S
N2919 C2912 1.356 . S
N2919 H2922 0.984 . S
N2919 H2923 0.985 . S
H2920 N2915 0.984 . S
H2921 N2915 0.985 . S
H2922 N2919 0.984 . S
H2923 N2919 0.985 . S
H2924 N2918 0.984 . S
H2925 N2918 0.984 . S
H2926 N2914 0.984 . S
H2927 N2914 0.985 . S
C2928 C2929 1.363 . S
C2928 C2934 1.379 . S
C2928 N2936 1.356 . S
C2929 C2928 1.363 . S
C2929 C2935 1.363 . S
C2930 C2931 1.363 . S
C2930 C2935 1.379 . S
C2930 N2937 1.356 . S
C2931 C2930 1.363 . S
C2931 C2934 1.363 . S
N2932 C2934 1.356 . S
N2932 H2944 0.984 . S
N2932 H2945 0.985 . S
N2933 C2935 1.356 . S
N2933 H2938 0.984 . S
N2933 H2939 0.985 . S
C2934 C2928 1.379 . S
C2934 C2931 1.363 . S
C2934 N2932 1.356 . S
C2935 C2929 1.363 . S
C2935 C2930 1.379 . S
C2935 N2933 1.356 . S
N2936 C2928 1.356 . S
N2936 H2942 0.984 . S
N2936 H2943 0.984 . S
N2937 C2930 1.356 . S
N2937 H2940 0.984 . S
N2937 H2941 0.985 . S
H2938 N2933 0.984 . S
H2939 N2933 0.985 . S
H2940 N2937 0.984 . S
H2941 N2937 0.985 . S
H2942 N2936 0.984 . S
H2943 N2936 0.984 . S
H2944 N2932 0.984 . S
H2945 N2932 0.985 . S
C2946 C2947 1.363 . S
C2946 C2952 1.379 . S
C2946 N2954 1.356 . S
C2947 C2946 1.363 . S
C2947 C2953 1.363 . S
C2948 C2949 1.363 . S
C2948 C2953 1.379 . S
C2948 N2955 1.356 . S
C2949 C2948 1.363 . S
C2949 C2952 1.363 . S
N2950 C2952 1.356 . S
N2950 H2962 0.984 . S
N2950 H2963 0.985 . S
N2951 C2953 1.356 . S
N2951 H2956 0.984 . S
N2951 H2957 0.985 . S
C2952 C2946 1.379 . S
C2952 C2949 1.363 . S
C2952 N2950 1.356 . S
C2953 C2947 1.363 . S
C2953 C2948 1.379 . S
C2953 N2951 1.356 . S
N2954 C2946 1.356 . S
N2954 H2960 0.984 . S
N2954 H2961 0.984 . S
N2955 C2948 1.356 . S
N2955 H2958 0.984 . S
N2955 H2959 0.985 . S
H2956 N2951 0.984 . S
H2957 N2951 0.985 . S
H2958 N2955 0.984 . S
H2959 N2955 0.985 . S
H2960 N2954 0.984 . S
H2961 N2954 0.984 . S
H2962 N2950 0.984 . S
H2963 N2950 0.985 . S
C2964 C2965 1.363 . S
C2964 C2970 1.379 . S
C2964 N2972 1.356 . S
C2965 C2964 1.363 . S
C2965 C2971 1.363 . S
C2966 C2967 1.363 . S
C2966 C2971 1.379 . S
C2966 N2973 1.356 . S
C2967 C2966 1.363 . S
C2967 C2970 1.363 . S
N2968 C2970 1.356 . S
N2968 H2980 0.984 . S
N2968 H2981 0.985 . S
N2969 C2971 1.356 . S
N2969 H2974 0.984 . S
N2969 H2975 0.985 . S
C2970 C2964 1.379 . S
C2970 C2967 1.363 . S
C2970 N2968 1.356 . S
C2971 C2965 1.363 . S
C2971 C2966 1.379 . S
C2971 N2969 1.356 . S
N2972 C2964 1.356 . S
N2972 H2978 0.984 . S
N2972 H2979 0.984 . S
N2973 C2966 1.356 . S
N2973 H2976 0.984 . S
N2973 H2977 0.985 . S
H2974 N2969 0.984 . S
H2975 N2969 0.985 . S
H2976 N2973 0.984 . S
H2977 N2973 0.985 . S
H2978 N2972 0.984 . S
H2979 N2972 0.984 . S
H2980 N2968 0.984 . S
H2981 N2968 0.985 . S
C2982 C2983 1.363 . S
C2982 C2988 1.379 . S
C2982 N2990 1.356 . S
C2983 C2982 1.363 . S
C2983 C2989 1.363 . S
C2984 C2985 1.363 . S
C2984 C2989 1.379 . S
C2984 N2991 1.356 . S
C2985 C2984 1.363 . S
C2985 C2988 1.363 . S
N2986 C2988 1.356 . S
N2986 H2998 0.984 . S
N2986 H2999 0.985 . S
N2987 C2989 1.356 . S
N2987 H2992 0.984 . S
N2987 H2993 0.985 . S
C2988 C2982 1.379 . S
C2988 C2985 1.363 . S
C2988 N2986 1.356 . S
C2989 C2983 1.363 . S
C2989 C2984 1.379 . S
C2989 N2987 1.356 . S
N2990 C2982 1.356 . S
N2990 H2996 0.984 . S
N2990 H2997 0.984 . S
N2991 C2984 1.356 . S
N2991 H2994 0.984 . S
N2991 H2995 0.985 . S
H2992 N2987 0.984 . S
H2993 N2987 0.985 . S
H2994 N2991 0.984 . S
H2995 N2991 0.985 . S
H2996 N2990 0.984 . S
H2997 N2990 0.984 . S
H2998 N2986 0.984 . S
H2999 N2986 0.985 . S
C3000 C3001 1.363 . S
C3000 C3006 1.379 . S
C3000 N3008 1.356 . S
C3001 C3000 1.363 . S
C3001 C3007 1.363 . S
C3002 C3003 1.363 . S
C3002 C3007 1.379 . S
C3002 N3009 1.356 . S
C3003 C3002 1.363 . S
C3003 C3006 1.363 . S
N3004 C3006 1.356 . S
N3004 H3016 0.984 . S
N3004 H3017 0.985 . S
N3005 C3007 1.356 . S
N3005 H3010 0.984 . S
N3005 H3011 0.985 . S
C3006 C3000 1.379 . S
C3006 C3003 1.363 . S
C3006 N3004 1.356 . S
C3007 C3001 1.363 . S
C3007 C3002 1.379 . S
C3007 N3005 1.356 . S
N3008 C3000 1.356 . S
N3008 H3014 0.984 . S
N3008 H3015 0.984 . S
N3009 C3002 1.356 . S
N3009 H3012 0.984 . S
N3009 H3013 0.985 . S
H3010 N3005 0.984 . S
H3011 N3005 0.985 . S
H3012 N3009 0.984 . S
H3013 N3009 0.985 . S
H3014 N3008 0.984 . S
H3015 N3008 0.984 . S
H3016 N3004 0.984 . S
H3017 N3004 0.985 . S
C3018 C3019 1.363 . S
C3018 C3024 1.379 . S
C3018 N3026 1.356 . S
C3019 C3018 1.363 . S
C3019 C3025 1.363 . S
C3020 C3021 1.363 . S
C3020 C3025 1.379 . S
C3020 N3027 1.356 . S
C3021 C3020 1.363 . S
C3021 C3024 1.363 . S
N3022 C3024 1.356 . S
N3022 H3034 0.984 . S
N3022 H3035 0.985 . S
N3023 C3025 1.356 . S
N3023 H3028 0.984 . S
N3023 H3029 0.985 . S
C3024 C3018 1.379 . S
C3024 C3021 1.363 . S
C3024 N3022 1.356 . S
C3025 C3019 1.363 . S
C3025 C3020 1.379 . S
C3025 N3023 1.356 . S
N3026 C3018 1.356 . S
N3026 H3032 0.984 . S
N3026 H3033 0.984 . S
N3027 C3020 1.356 . S
N3027 H3030 0.984 . S
N3027 H3031 0.985 . S
H3028 N3023 0.984 . S
H3029 N3023 0.985 . S
H3030 N3027 0.984 . S
H3031 N3027 0.985 . S
H3032 N3026 0.984 . S
H3033 N3026 0.984 . S
H3034 N3022 0.984 . S
H3035 N3022 0.985 . S
C3036 C3037 1.363 . S
C3036 C3042 1.379 . S
C3036 N3044 1.356 . S
C3037 C3036 1.363 . S
C3037 C3043 1.363 . S
C3038 C3039 1.363 . S
C3038 C3043 1.379 . S
C3038 N3045 1.356 . S
C3039 C3038 1.363 . S
C3039 C3042 1.363 . S
N3040 C3042 1.356 . S
N3040 H3052 0.984 . S
N3040 H3053 0.985 . S
N3041 C3043 1.356 . S
N3041 H3046 0.984 . S
N3041 H3047 0.985 . S
C3042 C3036 1.379 . S
C3042 C3039 1.363 . S
C3042 N3040 1.356 . S
C3043 C3037 1.363 . S
C3043 C3038 1.379 . S
C3043 N3041 1.356 . S
N3044 C3036 1.356 . S
N3044 H3050 0.984 . S
N3044 H3051 0.984 . S
N3045 C3038 1.356 . S
N3045 H3048 0.984 . S
N3045 H3049 0.985 . S
H3046 N3041 0.984 . S
H3047 N3041 0.985 . S
H3048 N3045 0.984 . S
H3049 N3045 0.985 . S
H3050 N3044 0.984 . S
H3051 N3044 0.984 . S
H3052 N3040 0.984 . S
H3053 N3040 0.985 . S
C3054 C3055 1.363 . S
C3054 C3060 1.379 . S
C3054 N3062 1.356 . S
C3055 C3054 1.363 . S
C3055 C3061 1.363 . S
C3056 C3057 1.363 . S
C3056 C3061 1.379 . S
C3056 N3063 1.356 . S
C3057 C3056 1.363 . S
C3057 C3060 1.363 . S
N3058 C3060 1.356 . S
N3058 H3070 0.984 . S
N3058 H3071 0.985 . S
N3059 C3061 1.356 . S
N3059 H3064 0.984 . S
N3059 H3065 0.985 . S
C3060 C3054 1.379 . S
C3060 C3057 1.363 . S
C3060 N3058 1.356 . S
C3061 C3055 1.363 . S
C3061 C3056 1.379 . S
C3061 N3059 1.356 . S
N3062 C3054 1.356 . S
N3062 H3068 0.984 . S
N3062 H3069 0.984 . S
N3063 C3056 1.356 . S
N3063 H3066 0.984 . S
N3063 H3067 0.985 . S
H3064 N3059 0.984 . S
H3065 N3059 0.985 . S
H3066 N3063 0.984 . S
H3067 N3063 0.985 . S
H3068 N3062 0.984 . S
H3069 N3062 0.984 . S
H3070 N3058 0.984 . S
H3071 N3058 0.985 . S
C3072 C3073 1.363 . S
C3072 C3078 1.379 . S
C3072 N3080 1.356 . S
C3073 C3072 1.363 . S
C3073 C3079 1.363 . S
C3074 C3075 1.363 . S
C3074 C3079 1.379 . S
C3074 N3081 1.356 . S
C3075 C3074 1.363 . S
C3075 C3078 1.363 . S
N3076 C3078 1.356 . S
N3076 H3088 0.984 . S
N3076 H3089 0.985 . S
N3077 C3079 1.356 . S
N3077 H3082 0.984 . S
N3077 H3083 0.985 . S
C3078 C3072 1.379 . S
C3078 C3075 1.363 . S
C3078 N3076 1.356 . S
C3079 C3073 1.363 . S
C3079 C3074 1.379 . S
C3079 N3077 1.356 . S
N3080 C3072 1.356 . S
N3080 H3086 0.984 . S
N3080 H3087 0.984 . S
N3081 C3074 1.356 . S
N3081 H3084 0.984 . S
N3081 H3085 0.985 . S
H3082 N3077 0.984 . S
H3083 N3077 0.985 . S
H3084 N3081 0.984 . S
H3085 N3081 0.985 . S
H3086 N3080 0.984 . S
H3087 N3080 0.984 . S
H3088 N3076 0.984 . S
H3089 N3076 0.985 . S
C3090 C3091 1.363 . S
C3090 C3096 1.379 . S
C3090 N3098 1.356 . S
C3091 C3090 1.363 . S
C3091 C3097 1.363 . S
C3092 C3093 1.363 . S
C3092 C3097 1.379 . S
C3092 N3099 1.356 . S
C3093 C3092 1.363 . S
C3093 C3096 1.363 . S
N3094 C3096 1.356 . S
N3094 H3106 0.984 . S
N3094 H3107 0.985 . S
N3095 C3097 1.356 . S
N3095 H3100 0.984 . S
N3095 H3101 0.985 . S
C3096 C3090 1.379 . S
C3096 C3093 1.363 . S
C3096 N3094 1.356 . S
C3097 C3091 1.363 . S
C3097 C3092 1.379 . S
C3097 N3095 1.356 . S
N3098 C3090 1.356 . S
N3098 H3104 0.984 . S
N3098 H3105 0.984 . S
N3099 C3092 1.356 . S
N3099 H3102 0.984 . S
N3099 H3103 0.985 . S
H3100 N3095 0.984 . S
H3101 N3095 0.985 . S
H3102 N3099 0.984 . S
H3103 N3099 0.985 . S
H3104 N3098 0.984 . S
H3105 N3098 0.984 . S
H3106 N3094 0.984 . S
H3107 N3094 0.985 . S
C3108 C3109 1.363 . S
C3108 C3114 1.379 . S
C3108 N3116 1.356 . S
C3109 C3108 1.363 . S
C3109 C3115 1.363 . S
C3110 C3111 1.363 . S
C3110 C3115 1.379 . S
C3110 N3117 1.356 . S
C3111 C3110 1.363 . S
C3111 C3114 1.363 . S
N3112 C3114 1.356 . S
N3112 H3124 0.984 . S
N3112 H3125 0.985 . S
N3113 C3115 1.356 . S
N3113 H3118 0.984 . S
N3113 H3119 0.985 . S
C3114 C3108 1.379 . S
C3114 C3111 1.363 . S
C3114 N3112 1.356 . S
C3115 C3109 1.363 . S
C3115 C3110 1.379 . S
C3115 N3113 1.356 . S
N3116 C3108 1.356 . S
N3116 H3122 0.984 . S
N3116 H3123 0.984 . S
N3117 C3110 1.356 . S
N3117 H3120 0.984 . S
N3117 H3121 0.985 . S
H3118 N3113 0.984 . S
H3119 N3113 0.985 . S
H3120 N3117 0.984 . S
H3121 N3117 0.985 . S
H3122 N3116 0.984 . S
H3123 N3116 0.984 . S
H3124 N3112 0.984 . S
H3125 N3112 0.985 . S
C3126 C3127 1.363 . S
C3126 C3132 1.379 . S
C3126 N3134 1.356 . S
C3127 C3126 1.363 . S
C3127 C3133 1.363 . S
C3128 C3129 1.363 . S
C3128 C3133 1.379 . S
C3128 N3135 1.356 . S
C3129 C3128 1.363 . S
C3129 C3132 1.363 . S
N3130 C3132 1.356 . S
N3130 H3142 0.984 . S
N3130 H3143 0.985 . S
N3131 C3133 1.356 . S
N3131 H3136 0.984 . S
N3131 H3137 0.985 . S
C3132 C3126 1.379 . S
C3132 C3129 1.363 . S
C3132 N3130 1.356 . S
C3133 C3127 1.363 . S
C3133 C3128 1.379 . S
C3133 N3131 1.356 . S
N3134 C3126 1.356 . S
N3134 H3140 0.984 . S
N3134 H3141 0.984 . S
N3135 C3128 1.356 . S
N3135 H3138 0.984 . S
N3135 H3139 0.985 . S
H3136 N3131 0.984 . S
H3137 N3131 0.985 . S
H3138 N3135 0.984 . S
H3139 N3135 0.985 . S
H3140 N3134 0.984 . S
H3141 N3134 0.984 . S
H3142 N3130 0.984 . S
H3143 N3130 0.985 . S
C3144 C3145 1.363 . S
C3144 C3150 1.379 . S
C3144 N3152 1.356 . S
C3145 C3144 1.363 . S
C3145 C3151 1.363 . S
C3146 C3147 1.363 . S
C3146 C3151 1.379 . S
C3146 N3153 1.356 . S
C3147 C3146 1.363 . S
C3147 C3150 1.363 . S
N3148 C3150 1.356 . S
N3148 H3160 0.984 . S
N3148 H3161 0.985 . S
N3149 C3151 1.356 . S
N3149 H3154 0.984 . S
N3149 H3155 0.985 . S
C3150 C3144 1.379 . S
C3150 C3147 1.363 . S
C3150 N3148 1.356 . S
C3151 C3145 1.363 . S
C3151 C3146 1.379 . S
C3151 N3149 1.356 . S
N3152 C3144 1.356 . S
N3152 H3158 0.984 . S
N3152 H3159 0.984 . S
N3153 C3146 1.356 . S
N3153 H3156 0.984 . S
N3153 H3157 0.985 . S
H3154 N3149 0.984 . S
H3155 N3149 0.985 . S
H3156 N3153 0.984 . S
H3157 N3153 0.985 . S
H3158 N3152 0.984 . S
H3159 N3152 0.984 . S
H3160 N3148 0.984 . S
H3161 N3148 0.985 . S
C3162 C3163 1.363 . S
C3162 C3168 1.379 . S
C3162 N3170 1.356 . S
C3163 C3162 1.363 . S
C3163 C3169 1.363 . S
C3164 C3165 1.363 . S
C3164 C3169 1.379 . S
C3164 N3171 1.356 . S
C3165 C3164 1.363 . S
C3165 C3168 1.363 . S
N3166 C3168 1.356 . S
N3166 H3178 0.984 . S
N3166 H3179 0.985 . S
N3167 C3169 1.356 . S
N3167 H3172 0.984 . S
N3167 H3173 0.985 . S
C3168 C3162 1.379 . S
C3168 C3165 1.363 . S
C3168 N3166 1.356 . S
C3169 C3163 1.363 . S
C3169 C3164 1.379 . S
C3169 N3167 1.356 . S
N3170 C3162 1.356 . S
N3170 H3176 0.984 . S
N3170 H3177 0.984 . S
N3171 C3164 1.356 . S
N3171 H3174 0.984 . S
N3171 H3175 0.985 . S
H3172 N3167 0.984 . S
H3173 N3167 0.985 . S
H3174 N3171 0.984 . S
H3175 N3171 0.985 . S
H3176 N3170 0.984 . S
H3177 N3170 0.984 . S
H3178 N3166 0.984 . S
H3179 N3166 0.985 . S
C3180 C3181 1.363 . S
C3180 C3186 1.379 . S
C3180 N3188 1.356 . S
C3181 C3180 1.363 . S
C3181 C3187 1.363 . S
C3182 C3183 1.363 . S
C3182 C3187 1.379 . S
C3182 N3189 1.356 . S
C3183 C3182 1.363 . S
C3183 C3186 1.363 . S
N3184 C3186 1.356 . S
N3184 H3196 0.984 . S
N3184 H3197 0.985 . S
N3185 C3187 1.356 . S
N3185 H3190 0.984 . S
N3185 H3191 0.985 . S
C3186 C3180 1.379 . S
C3186 C3183 1.363 . S
C3186 N3184 1.356 . S
C3187 C3181 1.363 . S
C3187 C3182 1.379 . S
C3187 N3185 1.356 . S
N3188 C3180 1.356 . S
N3188 H3194 0.984 . S
N3188 H3195 0.984 . S
N3189 C3182 1.356 . S
N3189 H3192 0.984 . S
N3189 H3193 0.985 . S
H3190 N3185 0.984 . S
H3191 N3185 0.985 . S
H3192 N3189 0.984 . S
H3193 N3189 0.985 . S
H3194 N3188 0.984 . S
H3195 N3188 0.984 . S
H3196 N3184 0.984 . S
H3197 N3184 0.985 . S
C3198 C3199 1.363 . S
C3198 C3204 1.379 . S
C3198 N3206 1.356 . S
C3199 C3198 1.363 . S
C3199 C3205 1.363 . S
C3200 C3201 1.363 . S
C3200 C3205 1.379 . S
C3200 N3207 1.356 . S
C3201 C3200 1.363 . S
C3201 C3204 1.363 . S
N3202 C3204 1.356 . S
N3202 H3214 0.984 . S
N3202 H3215 0.985 . S
N3203 C3205 1.356 . S
N3203 H3208 0.984 . S
N3203 H3209 0.985 . S
C3204 C3198 1.379 . S
C3204 C3201 1.363 . S
C3204 N3202 1.356 . S
C3205 C3199 1.363 . S
C3205 C3200 1.379 . S
C3205 N3203 1.356 . S
N3206 C3198 1.356 . S
N3206 H3212 0.984 . S
N3206 H3213 0.984 . S
N3207 C3200 1.356 . S
N3207 H3210 0.984 . S
N3207 H3211 0.985 . S
H3208 N3203 0.984 . S
H3209 N3203 0.985 . S
H3210 N3207 0.984 . S
H3211 N3207 0.985 . S
H3212 N3206 0.984 . S
H3213 N3206 0.984 . S
H3214 N3202 0.984 . S
H3215 N3202 0.985 . S
C1921 C181 2.056 . S
C1923 C21 2.056 . S
C1939 C221 2.056 . S
C1941 C61 2.056 . S
C1957 C261 2.056 . S
C1959 C101 2.056 . S
C1975 C141 2.056 . S
C1977 C301 2.056 . S
C1993 C581 2.056 . S
C1995 C341 2.056 . S
C2011 C621 2.056 . S
C2013 C381 2.056 . S
C2029 C421 2.056 . S
C2031 C501 2.056 . S
C2047 C541 2.056 . S
C2049 C461 2.056 . S
C2065 C861 2.056 . S
C2067 C661 2.056 . S
C2083 C781 2.056 . S
C2085 C701 2.056 . S
C2101 C741 2.056 . S
C2103 C821 2.056 . S
C2119 C941 2.056 . S
C2121 C901 2.056 . S
C2137 C981 2.243 . S
C2139 C1141 2.243 . S
C2155 C1021 2.243 . S
C2157 C1181 2.243 . S
C2173 C1221 2.243 . S
C2175 C1061 2.243 . S
C2191 C1101 2.243 . S
C2193 C1261 2.243 . S
C2209 C1541 2.243 . S
C2211 C1301 2.243 . S
C2227 C1581 2.243 . S
C2229 C1341 2.243 . S
C2245 C1381 2.243 . S
C2247 C1461 2.243 . S
C2263 C1421 2.243 . S
C2265 C1501 2.243 . S
C2281 C1621 2.243 . S
C2283 C1821 2.243 . S
C2299 C1741 2.243 . S
C2301 C1661 2.243 . S
C2317 C1701 2.243 . S
C2319 C1781 2.243 . S
C2335 C1901 2.243 . S
C2337 C1861 2.243 . S
C2353 C2 1.929 . S
C2355 C362 1.929 . S
C2371 C42 1.929 . S
C2373 C402 1.929 . S
C2389 C442 1.929 . S
C2391 C82 1.929 . S
C2407 C122 1.929 . S
C2409 C322 1.929 . S
C2425 C602 1.929 . S
C2427 C162 1.929 . S
C2443 C482 1.929 . S
C2445 C202 1.929 . S
C2461 C242 1.929 . S
C2463 C522 1.929 . S
C2479 C562 1.929 . S
C2481 C282 1.929 . S
C2497 C642 1.929 . S
C2499 C722 1.929 . S
C2515 C682 1.929 . S
C2517 C882 1.929 . S
C2533 C762 1.929 . S
C2535 C922 1.929 . S
C2551 C802 1.929 . S
C2553 C842 1.929 . S
C2569 C962 2.094 . S
C2571 C1322 2.094 . S
C2587 C1362 2.094 . S
C2589 C1002 2.094 . S
C2605 C1042 2.094 . S
C2607 C1402 2.094 . S
C2623 C1282 2.094 . S
C2625 C1082 2.094 . S
C2641 C1122 2.094 . S
C2643 C1562 2.094 . S
C2659 C1442 2.094 . S
C2661 C1162 2.094 . S
C2677 C1202 2.094 . S
C2679 C1482 2.094 . S
C2695 C1242 2.094 . S
C2697 C1522 2.094 . S
C2713 C1682 2.094 . S
C2715 C1602 2.094 . S
C2731 C1842 2.094 . S
C2733 C1642 2.094 . S
C2749 C1722 2.094 . S
C2751 C1882 2.094 . S
C2767 C1762 2.094 . S
C2769 C1802 2.094 . S
C2785 C15 1.584 . S
C2787 C1255 1.589 . S
C2803 C1135 1.589 . S
C2805 C55 1.584 . S
C2821 C1175 1.589 . S
C2823 C95 1.584 . S
C2839 C1215 1.589 . S
C2841 C135 1.584 . S
C2857 C1015 1.589 . S
C2859 C175 1.584 . S
C2875 C215 1.584 . S
C2877 C1055 1.589 . S
C2893 C255 1.584 . S
C2895 C1095 1.589 . S
C2911 C295 1.584 . S
C2913 C975 1.589 . S
C2929 C335 1.584 . S
C2931 C1775 1.589 . S
C2947 C1655 1.589 . S
C2949 C375 1.584 . S
C2965 C415 1.584 . S
C2967 C1695 1.589 . S
C2983 C455 1.584 . S
C2985 C1735 1.589 . S
C3001 C1895 1.589 . S
C3003 C495 1.584 . S
C3019 C535 1.584 . S
C3021 C1815 1.589 . S
C3037 C575 1.584 . S
C3039 C1855 1.589 . S
C3055 C1615 1.589 . S
C3057 C615 1.584 . S
C3073 C1575 1.589 . S
C3075 C655 1.584 . S
C3091 C1335 1.589 . S
C3093 C695 1.584 . S
C3109 C1375 1.589 . S
C3111 C735 1.584 . S
C3127 C1415 1.589 . S
C3129 C775 1.584 . S
C3145 C1295 1.589 . S
C3147 C815 1.584 . S
C3163 C855 1.584 . S
C3165 C1495 1.589 . S
C3181 C895 1.584 . S
C3183 C1535 1.589 . S
C3199 C1455 1.589 . S
C3201 C935 1.584 . S
