# Generated by pormake.
# Topology sod, (4)-cn, num edge types: 1
# Building blocks:
#     Node 0, Type 0, BuildingBlock: ICAMEG_clean_sbu_1, # of connection points: 4
#     Node 1, Type 0, BuildingBlock: ICAMEG_clean_sbu_1, # of connection points: 4
#     Node 2, Type 0, BuildingBlock: ICAMEG_clean_sbu_1, # of connection points: 4
#     Node 3, Type 0, BuildingBlock: ICAMEG_clean_sbu_1, # of connection points: 4
#     Node 4, Type 0, BuildingBlock: ICAMEG_clean_sbu_1, # of connection points: 4
#     Node 5, Type 0, BuildingBlock: ICAMEG_clean_sbu_1, # of connection points: 4
#     Node 6, Type 0, BuildingBlock: ICAMEG_clean_sbu_1, # of connection points: 4
#     Node 7, Type 0, BuildingBlock: ICAMEG_clean_sbu_1, # of connection points: 4
#     Node 8, Type 0, BuildingBlock: ICAMEG_clean_sbu_1, # of connection points: 4
#     Node 9, Type 0, BuildingBlock: ICAMEG_clean_sbu_1, # of connection points: 4
#     Node 10, Type 0, BuildingBlock: ICAMEG_clean_sbu_1, # of connection points: 4
#     Node 11, Type 0, BuildingBlock: ICAMEG_clean_sbu_1, # of connection points: 4
#     Edge 12, Type (0, 0), BuildingBlock: EZIPEK_clean_linker_0, # of connection points: 2
#     Edge 13, Type (0, 0), BuildingBlock: EZIPEK_clean_linker_0, # of connection points: 2
#     Edge 14, Type (0, 0), BuildingBlock: EZIPEK_clean_linker_0, # of connection points: 2
#     Edge 15, Type (0, 0), BuildingBlock: EZIPEK_clean_linker_0, # of connection points: 2
#     Edge 16, Type (0, 0), BuildingBlock: EZIPEK_clean_linker_0, # of connection points: 2
#     Edge 17, Type (0, 0), BuildingBlock: EZIPEK_clean_linker_0, # of connection points: 2
#     Edge 18, Type (0, 0), BuildingBlock: EZIPEK_clean_linker_0, # of connection points: 2
#     Edge 19, Type (0, 0), BuildingBlock: EZIPEK_clean_linker_0, # of connection points: 2
#     Edge 20, Type (0, 0), BuildingBlock: EZIPEK_clean_linker_0, # of connection points: 2
#     Edge 21, Type (0, 0), BuildingBlock: EZIPEK_clean_linker_0, # of connection points: 2
#     Edge 22, Type (0, 0), BuildingBlock: EZIPEK_clean_linker_0, # of connection points: 2
#     Edge 23, Type (0, 0), BuildingBlock: EZIPEK_clean_linker_0, # of connection points: 2
#     Edge 24, Type (0, 0), BuildingBlock: EZIPEK_clean_linker_0, # of connection points: 2
#     Edge 25, Type (0, 0), BuildingBlock: EZIPEK_clean_linker_0, # of connection points: 2
#     Edge 26, Type (0, 0), BuildingBlock: EZIPEK_clean_linker_0, # of connection points: 2
#     Edge 27, Type (0, 0), BuildingBlock: EZIPEK_clean_linker_0, # of connection points: 2
#     Edge 28, Type (0, 0), BuildingBlock: EZIPEK_clean_linker_0, # of connection points: 2
#     Edge 29, Type (0, 0), BuildingBlock: EZIPEK_clean_linker_0, # of connection points: 2
#     Edge 30, Type (0, 0), BuildingBlock: EZIPEK_clean_linker_0, # of connection points: 2
#     Edge 31, Type (0, 0), BuildingBlock: EZIPEK_clean_linker_0, # of connection points: 2
#     Edge 32, Type (0, 0), BuildingBlock: EZIPEK_clean_linker_0, # of connection points: 2
#     Edge 33, Type (0, 0), BuildingBlock: EZIPEK_clean_linker_0, # of connection points: 2
#     Edge 34, Type (0, 0), BuildingBlock: EZIPEK_clean_linker_0, # of connection points: 2
#     Edge 35, Type (0, 0), BuildingBlock: EZIPEK_clean_linker_0, # of connection points: 2
# Relax obj value: 0.210
# Max RMSD: 0.236
# Mean RMSD: 0.235
data_MOF--net-sod--node1-ICAMEG_clean_sbu_1--edge1-EZIPEK_clean_linker_0
_symmetry_space_group_name_H-M    P1
_symmetry_Int_Tables_number       1
_symmetry_cell_setting            triclinic
loop_
_symmetry_equiv_pos_as_xyz
'x, y, z'
_cell_length_a     31.490793
_cell_length_b     34.79609
_cell_length_c     33.1581
_cell_angle_alpha  90.086559
_cell_angle_beta   90.054303
_cell_angle_gamma 90.026684
loop_
_atom_site_label
_atom_site_type_symbol
_atom_site_fract_x
_atom_site_fract_y
_atom_site_fract_z
_atom_type_partial_charge
Co0 Co 0.00675 0.22667 0.56458 0.0
Co1 Co 0.99751 0.22512 0.46259 0.0
O2 O 0.00342 0.25453 0.51304 0.0
C3 C 0.98692 0.30914 0.58738 0.0
O4 O 0.99293 0.32066 0.55035 0.0
C5 C 0.02517 0.30469 0.43744 0.0
O6 O 0.01876 0.31758 0.47393 0.0
O7 O 0.05357 0.20016 0.47629 0.0
O8 O 0.03152 0.18092 0.53705 0.0
H9 H 0.99889 0.10093 0.38438 0.0
H10 H 0.06143 0.29308 0.53573 0.0
O11 O 0.98484 0.27328 0.59575 0.0
H12 H 0.15671 0.2127 0.6172 0.0
H13 H 0.01892 0.21044 0.71615 0.0
H14 H 0.99183 0.1453 0.58699 0.0
H15 H 0.08312 0.19311 0.60626 0.0
H16 H 0.02074 0.2465 0.65289 0.0
O17 O 0.02528 0.26845 0.43022 0.0
H18 H 1.00105 0.14153 0.44475 0.0
H19 H 0.99215 0.24166 0.37229 0.0
H20 H 0.9901 0.10786 0.64963 0.0
H21 H 0.13509 0.31268 0.54477 0.0
H22 H 0.00376 0.14043 0.71507 0.0
H23 H 0.18354 0.27297 0.58651 0.0
O24 O 0.9476 0.20716 0.55234 0.0
H25 H 0.88013 0.32439 0.47499 0.0
H26 H 0.91928 0.19931 0.417 0.0
H27 H 0.85142 0.22823 0.39888 0.0
H28 H 0.83095 0.29132 0.42784 0.0
H29 H 0.94869 0.29588 0.49052 0.0
H30 H 0.99054 0.20225 0.31135 0.0
H31 H 0.9935 0.13117 0.3168 0.0
O32 O 0.96665 0.18358 0.49212 0.0
C33 C 0.0583 0.17979 0.50832 0.0
C34 C 0.99722 0.13188 0.38156 0.0
C35 C 0.99263 0.18868 0.34064 0.0
N36 N 0.99574 0.19429 0.41301 0.0
C37 C 0.9982 0.15515 0.41589 0.0
C38 C 0.99367 0.21103 0.37567 0.0
C39 C 0.99428 0.14883 0.34369 0.0
C40 C 0.08121 0.27562 0.55453 0.0
N41 N 0.06566 0.24352 0.57336 0.0
C42 C 0.12348 0.28693 0.55935 0.0
C43 C 0.15066 0.26466 0.5827 0.0
C44 C 0.13554 0.23103 0.60014 0.0
C45 C 0.09314 0.22052 0.59451 0.0
C46 C 0.01284 0.1959 0.68785 0.0
C47 C 0.99773 0.15977 0.61499 0.0
C48 C 0.01356 0.21634 0.65162 0.0
N49 N 0.00631 0.19826 0.61553 0.0
C50 C 0.99674 0.13838 0.65057 0.0
C51 C 0.00438 0.15664 0.68724 0.0
C52 C 0.93969 0.18698 0.5206 0.0
C53 C 0.88922 0.29748 0.46105 0.0
C54 C 0.91261 0.22781 0.42802 0.0
C55 C 0.8732 0.24368 0.41829 0.0
C56 C 0.86162 0.27892 0.43471 0.0
N57 N 0.94123 0.24743 0.45154 0.0
C58 C 0.92872 0.28108 0.46949 0.0
Co59 Co 0.73681 0.06756 0.48108 0.0
Co60 Co 0.72826 0.96971 0.47474 0.0
O61 O 0.76168 0.01699 0.46947 0.0
C62 C 0.80897 0.11277 0.43323 0.0
O63 O 0.81974 0.11938 0.39562 0.0
C64 C 0.82055 0.94628 0.48331 0.0
O65 O 0.83274 0.9805 0.47183 0.0
O66 O 0.71608 0.9847 0.53248 0.0
O67 O 0.69591 0.04559 0.52091 0.0
H68 H 0.59873 0.89654 0.5199 0.0
H69 H 0.82648 0.04684 0.49529 0.0
O70 O 0.7765 0.09109 0.43941 0.0
H71 H 0.77734 0.09763 0.62544 0.0
H72 H 0.73402 0.20681 0.52768 0.0
H73 H 0.65151 0.10245 0.4663 0.0
H74 H 0.7294 0.09541 0.56698 0.0
H75 H 0.76652 0.14416 0.51557 0.0
O76 O 0.78126 0.93924 0.49051 0.0
H77 H 0.64209 0.95376 0.50694 0.0
H78 H 0.74226 0.8843 0.46308 0.0
H79 H 0.61738 0.1644 0.47797 0.0
H80 H 0.87543 0.04698 0.55328 0.0
H81 H 0.6586 0.21759 0.50906 0.0
H82 H 0.85126 0.07359 0.61885 0.0
O83 O 0.69598 0.05639 0.43555 0.0
H84 H 0.80704 0.97046 0.34116 0.0
H85 H 0.67756 0.92866 0.41135 0.0
H86 H 0.68882 0.90944 0.34119 0.0
H87 H 0.75429 0.92974 0.30548 0.0
H88 H 0.79492 0.98888 0.41114 0.0
H89 H 0.70052 0.82617 0.47593 0.0
H90 H 0.62785 0.83189 0.50433 0.0
O91 O 0.67608 0.99752 0.45607 0.0
C92 C 0.69716 0.01576 0.54328 0.0
C93 C 0.63022 0.89361 0.50717 0.0
C94 C 0.68732 0.85418 0.48265 0.0
N95 N 0.69467 0.92305 0.4834 0.0
C96 C 0.65489 0.92615 0.49951 0.0
C97 C 0.71106 0.88741 0.4755 0.0
C98 C 0.64658 0.85738 0.49855 0.0
C99 C 0.81612 0.05895 0.52331 0.0
N100 N 0.77629 0.07388 0.52631 0.0
C101 C 0.8438 0.05876 0.55627 0.0
C102 C 0.83017 0.07349 0.59307 0.0
C103 C 0.78883 0.08715 0.5967 0.0
C104 C 0.76193 0.0862 0.56319 0.0
C105 C 0.71555 0.1839 0.51419 0.0
C106 C 0.66984 0.12464 0.47998 0.0
C107 C 0.73401 0.14803 0.50698 0.0
N108 N 0.71127 0.11846 0.4904 0.0
C109 C 0.65024 0.16013 0.48644 0.0
C110 C 0.67332 0.18994 0.50379 0.0
C111 C 0.67273 0.02617 0.43219 0.0
C112 C 0.77917 0.96012 0.35685 0.0
C113 C 0.70722 0.93628 0.39719 0.0
C114 C 0.71297 0.92581 0.35688 0.0
C115 C 0.74953 0.9374 0.33679 0.0
N116 N 0.7377 0.95652 0.41778 0.0
C117 C 0.77234 0.97 0.39719 0.0
Co118 Co 0.01948 0.78007 0.45352 0.0
Co119 Co 0.98473 0.77772 0.55184 0.0
O120 O 1.00232 0.75099 0.50177 0.0
C121 C 0.97875 0.70728 0.42077 0.0
O122 O 0.96799 0.69678 0.45727 0.0
C123 C 0.02388 0.70172 0.57998 0.0
O124 O 0.04739 0.69671 0.54778 0.0
O125 O 0.04268 0.80262 0.5546 0.0
O126 O 0.04843 0.81914 0.48888 0.0
H127 H 0.95229 0.89173 0.64211 0.0
H128 H 0.04604 0.69844 0.46867 0.0
O129 O 0.99365 0.74103 0.41548 0.0
H130 H 0.17574 0.76474 0.42418 0.0
H131 H 0.06976 0.79998 0.31044 0.0
H132 H 0.01924 0.86315 0.43464 0.0
H133 H 0.10952 0.80101 0.43448 0.0
H134 H 0.05295 0.76177 0.37079 0.0
O135 O 1.00315 0.73265 0.58528 0.0
H136 H 0.97222 0.86024 0.57914 0.0
H137 H 0.95198 0.75066 0.63222 0.0
H138 H 0.03669 0.90259 0.37524 0.0
H139 H 0.11163 0.66159 0.46004 0.0
H140 H 0.06199 0.87101 0.31248 0.0
H141 H 0.17724 0.69457 0.43716 0.0
O142 O 0.96466 0.8091 0.45555 0.0
H143 H 0.88148 0.66956 0.52791 0.0
H144 H 0.89602 0.80748 0.55907 0.0
H145 H 0.82469 0.77928 0.55232 0.0
H146 H 0.81696 0.70977 0.53675 0.0
H147 H 0.95211 0.69919 0.53443 0.0
H148 H 0.93205 0.78124 0.69576 0.0
H149 H 0.93225 0.85236 0.70148 0.0
O150 O 0.9639 0.82293 0.52121 0.0
C151 C 0.06065 0.82122 0.52568 0.0
C152 C 0.95332 0.86068 0.64045 0.0
C153 C 0.94196 0.79875 0.67051 0.0
N154 N 0.96732 0.80322 0.60208 0.0
C155 C 0.96553 0.84244 0.60474 0.0
C156 C 0.95426 0.78153 0.63429 0.0
C157 C 0.9419 0.83862 0.67366 0.0
C158 C 0.07404 0.71332 0.45878 0.0
N159 N 0.07307 0.75187 0.45096 0.0
C160 C 0.11136 0.69215 0.45402 0.0
C161 C 0.14814 0.71065 0.44122 0.0
C162 C 0.14729 0.75001 0.43393 0.0
C163 C 0.1095 0.77035 0.43959 0.0
C164 C 0.05866 0.8141 0.33757 0.0
C165 C 0.03051 0.84918 0.40758 0.0
C166 C 0.04867 0.79255 0.37176 0.0
N167 N 0.03488 0.81013 0.40627 0.0
C168 C 0.04023 0.87167 0.37397 0.0
C169 C 0.05436 0.85394 0.33876 0.0
C170 C 0.9507 0.82824 0.48556 0.0
C171 C 0.88436 0.69985 0.53487 0.0
C172 C 0.89311 0.77721 0.55231 0.0
C173 C 0.85252 0.7614 0.54853 0.0
C174 C 0.84821 0.72242 0.53978 0.0
N175 N 0.9285 0.75489 0.54746 0.0
C176 C 0.9244 0.71672 0.53878 0.0
Co177 Co 0.27328 0.95284 0.52524 0.0
Co178 Co 0.27637 0.05085 0.51931 0.0
O179 O 0.24329 1.00237 0.52005 0.0
C180 C 0.18863 0.93328 0.4928 0.0
O181 O 0.17552 0.96847 0.48593 0.0
C182 C 0.18954 0.072 0.55127 0.0
O183 O 0.1792 0.03556 0.55147 0.0
O184 O 0.29793 0.03781 0.57431 0.0
O185 O 0.3178 0.97699 0.56213 0.0
H186 H 0.40907 0.1285 0.54187 0.0
H187 H 0.23448 0.99677 0.59413 0.0
O188 O 0.22838 0.92604 0.49233 0.0
H189 H 0.1923 0.86217 0.61565 0.0
H190 H 0.33384 0.83268 0.46427 0.0
H191 H 0.32105 0.90868 0.58874 0.0
H192 H 0.23641 0.87972 0.55757 0.0
H193 H 0.29352 0.89334 0.46482 0.0
O194 O 0.22746 0.08128 0.54217 0.0
H195 H 0.36597 0.0695 0.53942 0.0
H196 H 0.25894 0.13352 0.50002 0.0
H197 H 0.36255 0.84881 0.58973 0.0
H198 H 0.18997 0.98045 0.65218 0.0
H199 H 0.36886 0.81004 0.52704 0.0
H200 H 0.16864 0.91265 0.66361 0.0
O201 O 0.30573 0.96663 0.47495 0.0
H202 H 0.16728 0.05671 0.4079 0.0
H203 H 0.31622 0.08268 0.4445 0.0
H204 H 0.29138 0.09741 0.37593 0.0
H205 H 0.2164 0.0844 0.3571 0.0
H206 H 0.19328 0.04262 0.47606 0.0
H207 H 0.30065 0.19336 0.50286 0.0
H208 H 0.3764 0.1911 0.52372 0.0
O209 O 0.32619 0.0243 0.49532 0.0
C210 C 0.31828 1.00739 0.58431 0.0
C211 C 0.37605 0.12991 0.53288 0.0
C212 C 0.31518 0.16632 0.51114 0.0
N213 N 0.30965 0.09801 0.52032 0.0
C214 C 0.35143 0.09655 0.53141 0.0
C215 C 0.29156 0.13236 0.51004 0.0
C216 C 0.35769 0.16502 0.52274 0.0
C217 C 0.22615 0.96716 0.59879 0.0
N218 N 0.24005 0.93919 0.57296 0.0
C219 C 0.20062 0.95807 0.63187 0.0
C220 C 0.18864 0.92006 0.63826 0.0
C221 C 0.20206 0.89173 0.61149 0.0
C222 C 0.22761 0.90188 0.5788 0.0
C223 C 0.33123 0.84922 0.49183 0.0
C224 C 0.32419 0.89247 0.5615 0.0
C225 C 0.30826 0.88355 0.4924 0.0
N226 N 0.30466 0.90463 0.52706 0.0
C227 C 0.34745 0.85832 0.56216 0.0
C228 C 0.35093 0.83657 0.52702 0.0
C229 C 0.32623 0.99773 0.46914 0.0
C230 C 0.19997 0.06276 0.41579 0.0
C231 C 0.28336 0.07736 0.43693 0.0
C232 C 0.26952 0.08568 0.39788 0.0
C233 C 0.22751 0.07829 0.38731 0.0
N234 N 0.2561 0.06241 0.46498 0.0
C235 C 0.21491 0.05493 0.4546 0.0
Co236 Co 0.46348 0.96789 0.27878 0.0
Co237 Co 0.49125 0.06343 0.27384 0.0
O238 O 0.47115 0.01576 0.24741 0.0
C239 C 0.47772 0.94076 0.1924 0.0
O240 O 0.47453 0.9759 0.17867 0.0
C241 C 0.45703 0.09166 0.19423 0.0
O242 O 0.43707 0.06077 0.1818 0.0
O243 O 0.43877 0.06134 0.30922 0.0
O244 O 0.44426 0.99866 0.32664 0.0
H245 H 0.53621 0.14565 0.39259 0.0
H246 H 0.40999 0.99675 0.20868 0.0
O247 O 0.47944 0.93435 0.23043 0.0
H248 H 0.30949 0.93235 0.29946 0.0
H249 H 0.42934 0.82714 0.30135 0.0
H250 H 0.48479 0.94537 0.36299 0.0
H251 H 0.38411 0.93911 0.3187 0.0
H252 H 0.43378 0.88664 0.26224 0.0
O253 O 0.46229 0.09693 0.23205 0.0
H254 H 0.51464 0.08619 0.35894 0.0
H255 H 0.51648 0.14227 0.24553 0.0
H256 H 0.48013 0.88688 0.40383 0.0
H257 H 0.33541 0.99232 0.1894 0.0
H258 H 0.45217 0.82688 0.37305 0.0
H259 H 0.28433 0.95894 0.23428 0.0
O260 O 0.52467 0.97201 0.2974 0.0
H261 H 0.58039 0.03478 0.15057 0.0
H262 H 0.58239 0.08256 0.29031 0.0
H263 H 0.64867 0.08067 0.25171 0.0
H264 H 0.64815 0.05703 0.18102 0.0
H265 H 0.51499 0.03702 0.19044 0.0
H266 H 0.53769 0.20251 0.27795 0.0
H267 H 0.54764 0.20479 0.35222 0.0
O268 O 0.52165 0.03387 0.31518 0.0
C269 C 0.42845 0.03228 0.33137 0.0
C270 C 0.53061 0.14544 0.36037 0.0
C271 C 0.53144 0.17732 0.29613 0.0
N272 N 0.51 0.11096 0.30044 0.0
C273 C 0.51738 0.11178 0.3411 0.0
C274 C 0.51829 0.1431 0.27793 0.0
C275 C 0.53722 0.17853 0.33772 0.0
C276 C 0.38891 0.9818 0.22848 0.0
N277 N 0.40331 0.96515 0.26327 0.0
C278 C 0.34617 0.97956 0.21735 0.0
C279 C 0.31753 0.96089 0.24251 0.0
C280 C 0.33168 0.9457 0.27888 0.0
C281 C 0.37454 0.94898 0.28923 0.0
C282 C 0.44137 0.85313 0.31525 0.0
C283 C 0.47197 0.92002 0.34948 0.0
C284 C 0.44418 0.8871 0.29302 0.0
N285 N 0.45878 0.92037 0.31024 0.0
C286 C 0.46968 0.88663 0.37272 0.0
C287 C 0.45413 0.85299 0.35544 0.0
C288 C 0.53915 1.00125 0.31666 0.0
C289 C 0.58092 0.04615 0.18096 0.0
C290 C 0.58114 0.07344 0.25921 0.0
C291 C 0.61917 0.07193 0.23763 0.0
C292 C 0.61891 0.0585 0.19808 0.0
N293 N 0.54347 0.06271 0.24177 0.0
C294 C 0.54357 0.04803 0.20357 0.0
Co295 Co 0.01979 0.5585 0.24969 0.0
Co296 Co 0.02846 0.46052 0.24222 0.0
O297 O 0.03101 0.50799 0.27413 0.0
C298 C 0.07141 0.604 0.31826 0.0
O299 O 0.11093 0.60685 0.33059 0.0
C300 C 0.02609 0.43424 0.32683 0.0
O301 O 0.04617 0.46592 0.33679 0.0
O302 O 0.96841 0.47383 0.22674 0.0
O303 O 0.97733 0.53617 0.21117 0.0
H304 H 0.07015 0.36785 0.13179 0.0
H305 H 0.00624 0.53797 0.33539 0.0
O306 O 0.06392 0.58152 0.28807 0.0
H307 H 0.87129 0.59616 0.29216 0.0
H308 H 0.97602 0.699 0.24241 0.0
H309 H 0.02637 0.58716 0.16565 0.0
H310 H 0.93052 0.58907 0.24438 0.0
H311 H 0.98751 0.63719 0.27594 0.0
O312 O 0.01013 0.43058 0.29142 0.0
H313 H 0.07925 0.42485 0.17506 0.0
H314 H 0.96584 0.39754 0.23819 0.0
H315 H 0.01542 0.64821 0.13077 0.0
H316 H 0.94699 0.5422 0.38348 0.0
H317 H 0.9902 0.70511 0.16913 0.0
H318 H 0.87926 0.57269 0.36244 0.0
O319 O 0.06713 0.54799 0.21009 0.0
H320 H 0.18108 0.49012 0.27777 0.0
H321 H 0.07571 0.38712 0.2587 0.0
H322 H 0.14989 0.37021 0.27293 0.0
H323 H 0.20343 0.42186 0.28238 0.0
H324 H 0.10687 0.50579 0.26239 0.0
H325 H 0.95601 0.33973 0.19601 0.0
H326 H 0.00833 0.32467 0.14227 0.0
O327 O 0.04921 0.48775 0.19305 0.0
C328 C 0.95622 0.50487 0.20951 0.0
C329 C 0.04721 0.37404 0.15519 0.0
C330 C 0.98322 0.3582 0.19132 0.0
N331 N 0.02334 0.41428 0.20958 0.0
C332 C 0.05207 0.40641 0.17973 0.0
C333 C 0.98909 0.39082 0.21529 0.0
C334 C 0.01253 0.34981 0.16111 0.0
C335 C 0.97711 0.55147 0.32596 0.0
N336 N 0.97331 0.56591 0.28789 0.0
C337 C 0.94348 0.55361 0.35332 0.0
C338 C 0.90546 0.57055 0.34147 0.0
C339 C 0.90106 0.58388 0.30214 0.0
C340 C 0.93503 0.58024 0.27533 0.0
C341 C 0.98809 0.67474 0.22552 0.0
C342 C 0.01659 0.61158 0.18315 0.0
C343 C 0.99549 0.63964 0.2447 0.0
N344 N 0.01013 0.60849 0.22385 0.0
C345 C 0.00996 0.64625 0.16293 0.0
C346 C 0.99579 0.67811 0.1844 0.0
C347 C 0.0707 0.51826 0.18745 0.0
C348 C 0.1583 0.46731 0.27269 0.0
C349 C 0.09883 0.40993 0.26121 0.0
C350 C 0.14086 0.40007 0.26985 0.0
C351 C 0.17082 0.42904 0.27535 0.0
N352 N 0.08706 0.44758 0.25661 0.0
C353 C 0.11608 0.47605 0.26352 0.0
Co354 Co 0.51962 0.05902 0.73391 0.0
Co355 Co 0.53979 0.96364 0.72675 0.0
O356 O 0.53315 1.00978 0.76057 0.0
C357 C 0.55225 0.08202 0.81687 0.0
O358 O 0.56087 0.04671 0.82784 0.0
C359 C 0.52364 0.93379 0.81138 0.0
O360 O 0.52467 0.96886 0.82578 0.0
O361 O 0.47931 0.97238 0.70812 0.0
O362 O 0.4902 0.03232 0.688 0.0
H363 H 0.52466 0.89555 0.5936 0.0
H364 H 0.48435 0.03241 0.81304 0.0
O365 O 0.5448 0.08991 0.77993 0.0
H366 H 0.36223 0.08606 0.74007 0.0
H367 H 0.4758 0.19844 0.72764 0.0
H368 H 0.53458 0.08927 0.65125 0.0
H369 H 0.43284 0.08506 0.70887 0.0
H370 H 0.4868 0.13587 0.76057 0.0
O371 O 0.52222 0.9281 0.77314 0.0
H372 H 0.52152 0.95035 0.64014 0.0
H373 H 0.56154 0.87896 0.73667 0.0
H374 H 0.52341 0.1511 0.61698 0.0
H375 H 0.41467 0.03353 0.84592 0.0
H376 H 0.49361 0.20629 0.65516 0.0
H377 H 0.35267 0.06067 0.80944 0.0
O378 O 0.57586 0.05428 0.70481 0.0
H379 H 0.6682 0.98145 0.8171 0.0
H380 H 0.61819 0.93554 0.68496 0.0
H381 H 0.69355 0.93041 0.70191 0.0
H382 H 0.71936 0.95328 0.76848 0.0
H383 H 0.59309 0.98536 0.79947 0.0
H384 H 0.56434 0.82342 0.6914 0.0
H385 H 0.5462 0.83137 0.61902 0.0
O386 O 0.56153 0.9953 0.68165 0.0
C387 C 0.4687 1.00126 0.68611 0.0
C388 C 0.53307 0.89175 0.625 0.0
C389 C 0.55521 0.85131 0.67987 0.0
N390 N 0.54246 0.91861 0.69138 0.0
C391 C 0.53174 0.92287 0.65161 0.0
C392 C 0.55352 0.88311 0.70559 0.0
C393 C 0.54504 0.85576 0.63928 0.0
C394 C 0.45838 0.04567 0.79759 0.0
N395 N 0.46398 0.06112 0.76016 0.0
C396 C 0.41855 0.04563 0.8161 0.0
C397 C 0.38377 0.06068 0.79557 0.0
C398 C 0.38913 0.07502 0.75675 0.0
C399 C 0.42949 0.07465 0.73934 0.0
C400 C 0.48829 0.17448 0.71051 0.0
C401 C 0.52084 0.11277 0.66793 0.0
C402 C 0.49459 0.13889 0.72899 0.0
N403 N 0.5097 0.10821 0.70744 0.0
C404 C 0.51492 0.14791 0.64842 0.0
C405 C 0.49832 0.17888 0.66988 0.0
C406 C 0.58377 0.02585 0.68113 0.0
C407 C 0.65723 0.97046 0.78837 0.0
C408 C 0.62818 0.94398 0.71482 0.0
C409 C 0.67141 0.94165 0.7239 0.0
C410 C 0.68592 0.95472 0.7611 0.0
N411 N 0.5996 0.958 0.74234 0.0
C412 C 0.61422 0.97237 0.77821 0.0
Co413 Co 0.96809 0.46442 0.78014 0.0
Co414 Co 0.99537 0.55998 0.7812 0.0
O415 O 0.98283 0.51218 0.75144 0.0
C416 C 0.99235 0.43865 0.69826 0.0
O417 O 0.98615 0.47359 0.68476 0.0
C418 C 0.9811 0.58595 0.69789 0.0
O419 O 1.00129 0.55428 0.68817 0.0
O420 O 0.93848 0.55622 0.8089 0.0
O421 O 0.93932 0.49354 0.82411 0.0
H422 H 0.07851 0.64677 0.87439 0.0
H423 H 0.90664 0.52155 0.74584 0.0
O424 O 0.99422 0.4323 0.73619 0.0
H425 H 0.8486 0.39472 0.70934 0.0
H426 H 1.00175 0.33373 0.83553 0.0
H427 H 0.89366 0.43599 0.82829 0.0
H428 H 0.91614 0.39974 0.74607 0.0
H429 H 0.01552 0.39299 0.79691 0.0
O430 O 0.97128 0.59146 0.73499 0.0
H431 H 0.067 0.58898 0.83278 0.0
H432 H 0.94543 0.62997 0.7979 0.0
H433 H 0.87898 0.37759 0.86782 0.0
H434 H 0.83989 0.51773 0.70787 0.0
H435 H 0.9331 0.3258 0.87139 0.0
H436 H 0.80981 0.45399 0.6899 0.0
O437 O 0.0233 0.46808 0.81067 0.0
H438 H 0.13033 0.5073 0.72021 0.0
H439 H 0.04909 0.62482 0.75013 0.0
H440 H 0.11899 0.63013 0.71782 0.0
H441 H 0.1605 0.57112 0.70297 0.0
H442 H 0.06007 0.50328 0.75185 0.0
H443 H 0.95601 0.68874 0.83848 0.0
H444 H 0.02295 0.69735 0.87716 0.0
O445 O 0.02154 0.53075 0.82666 0.0
C446 C 0.92475 0.5273 0.82885 0.0
C447 C 0.04936 0.64352 0.85739 0.0
C448 C 0.98066 0.66711 0.83716 0.0
N449 N 0.00598 0.60662 0.81195 0.0
C450 C 0.0426 0.61081 0.83379 0.0
C451 C 0.97499 0.63397 0.81394 0.0
C452 C 0.01817 0.67188 0.85894 0.0
C453 C 0.89405 0.4936 0.73853 0.0
N454 N 0.91457 0.46092 0.75042 0.0
C455 C 0.85607 0.49165 0.71679 0.0
C456 C 0.83921 0.45591 0.70673 0.0
C457 C 0.86082 0.42267 0.71781 0.0
C458 C 0.89893 0.42575 0.73916 0.0
C459 C 0.97783 0.356 0.83402 0.0
C460 C 0.91759 0.41378 0.82994 0.0
C461 C 0.98536 0.38952 0.81202 0.0
N462 N 0.9553 0.41774 0.80988 0.0
C463 C 0.90897 0.38066 0.85223 0.0
C464 C 0.93934 0.35161 0.8542 0.0
C465 C 0.03693 0.49714 0.83063 0.0
C466 C 0.11299 0.53329 0.72731 0.0
C467 C 0.0671 0.59894 0.74467 0.0
C468 C 0.10663 0.60217 0.72594 0.0
C469 C 0.12984 0.56908 0.71753 0.0
N470 N 0.05114 0.56376 0.75535 0.0
C471 C 0.07329 0.53119 0.74594 0.0
Co472 Co 0.22356 0.55519 1.00437 0.0
Co473 Co 0.23162 0.45881 0.98694 0.0
O474 O 0.25886 0.50944 0.99466 0.0
C475 C 0.30794 0.58691 0.98916 0.0
O476 O 0.32043 0.55729 0.01053 0.0
C477 C 0.32204 0.44115 0.01362 0.0
O478 O 0.33182 0.47709 0.02108 0.0
O479 O 0.20515 0.4644 0.04209 0.0
O480 O 0.17917 0.52358 0.03184 0.0
H481 H 0.1095 0.36586 0.99538 0.0
H482 H 0.26432 0.50583 0.06804 0.0
O483 O 0.2688 0.58911 0.97874 0.0
H484 H 0.28069 0.63831 0.11756 0.0
H485 H 0.15126 0.67583 0.95818 0.0
H486 H 0.16527 0.58332 0.06989 0.0
H487 H 0.24639 0.6258 0.05251 0.0
H488 H 0.20045 0.62086 0.95274 0.0
O489 O 0.2833 0.43115 0.00879 0.0
H490 H 0.14445 0.42899 1.00032 0.0
H491 H 0.26138 0.38002 0.96271 0.0
H492 H 0.1153 0.63739 0.07629 0.0
H493 H 0.29843 0.51712 0.13338 0.0
H494 H 0.10826 0.68433 0.02031 0.0
H495 H 0.30677 0.58378 0.15891 0.0
O496 O 0.19517 0.54497 0.95119 0.0
H497 H 0.34291 0.47961 0.8796 0.0
H498 H 0.20085 0.42707 0.90808 0.0
H499 H 0.23129 0.41948 0.84034 0.0
H500 H 0.30302 0.4456 0.82564 0.0
H501 H 0.31142 0.4863 0.94682 0.0
H502 H 0.22793 0.31627 0.95809 0.0
H503 H 0.15135 0.30883 0.97418 0.0
O504 O 0.18002 0.4829 0.96202 0.0
C505 C 0.18082 0.49249 0.05204 0.0
C506 C 0.14286 0.36873 0.98816 0.0
C507 C 0.20933 0.3409 0.96735 0.0
N508 N 0.20483 0.40854 0.98168 0.0
C509 C 0.16278 0.40452 0.99079 0.0
C510 C 0.22816 0.37714 0.97032 0.0
C511 C 0.16637 0.33675 0.97634 0.0
C512 C 0.2662 0.53482 0.07912 0.0
N513 N 0.2506 0.56476 0.05692 0.0
C514 C 0.28634 0.54111 0.1161 0.0
C515 C 0.29115 0.57848 0.13034 0.0
C516 C 0.27644 0.60904 0.10722 0.0
C517 C 0.25654 0.60164 0.07037 0.0
C518 C 0.15433 0.65577 0.98292 0.0
C519 C 0.16238 0.6035 0.04528 0.0
C520 C 0.18231 0.62476 0.9801 0.0
N521 N 0.18652 0.59939 0.01123 0.0
C522 C 0.13407 0.63415 0.04917 0.0
C523 C 0.13014 0.66047 0.01775 0.0
C524 C 0.17464 0.51424 0.9428 0.0
C525 C 0.31205 0.46727 0.88583 0.0
C526 C 0.23262 0.43752 0.90256 0.0
C527 C 0.24951 0.43347 0.86385 0.0
C528 C 0.28964 0.44828 0.85557 0.0
N529 N 0.25552 0.45474 0.93272 0.0
C530 C 0.29422 0.47053 0.92423 0.0
Co531 Co 0.528 0.29007 0.95778 0.0
Co532 Co 0.49643 0.28266 0.05658 0.0
O533 O 0.51829 0.259 1.0069 0.0
C534 C 0.51704 0.2073 0.92971 0.0
O535 O 0.51405 0.19561 0.96709 0.0
C536 C 0.52494 0.20655 0.08506 0.0
O537 O 0.5159 0.19474 0.0485 0.0
O538 O 0.54787 0.31731 0.05584 0.0
O539 O 0.54309 0.33579 0.99142 0.0
H540 H 0.39118 0.35275 0.14499 0.0
H541 H 0.58036 0.22358 0.99035 0.0
O542 O 0.51603 0.24335 0.92154 0.0
H543 H 0.68368 0.3115 0.92848 0.0
H544 H 0.56259 0.31499 0.81045 0.0
H545 H 0.51908 0.37409 0.93882 0.0
H546 H 0.60876 0.32924 0.93182 0.0
H547 H 0.55261 0.27525 0.87005 0.0
O548 O 0.52622 0.24287 0.0916 0.0
H549 H 0.41414 0.31781 0.08422 0.0
H550 H 0.53798 0.30497 0.13277 0.0
H551 H 0.52984 0.4147 0.87976 0.0
H552 H 0.65527 0.20609 0.98947 0.0
H553 H 0.55159 0.38547 0.81468 0.0
H554 H 0.70784 0.2496 0.95758 0.0
O555 O 0.4662 0.30661 0.95886 0.0
H556 H 0.38969 0.19332 0.99201 0.0
H557 H 0.44244 0.24551 0.12066 0.0
H558 H 0.38471 0.19838 0.12114 0.0
H559 H 0.35785 0.17162 0.05653 0.0
H560 H 0.44628 0.24155 0.99253 0.0
H561 H 0.51618 0.33901 0.19471 0.0
H562 H 0.44228 0.36318 0.2011 0.0
O563 O 0.46304 0.32143 0.02469 0.0
C564 C 0.55944 0.33864 0.02634 0.0
C565 C 0.42341 0.34217 0.14271 0.0
C566 C 0.49351 0.33437 0.17064 0.0
N567 N 0.47713 0.30859 0.10523 0.0
C568 C 0.43665 0.32253 0.1082 0.0
C569 C 0.5056 0.31488 0.13563 0.0
C570 C 0.45208 0.348 0.17417 0.0
C571 C 0.60214 0.243 0.97607 0.0
N572 N 0.58849 0.27636 0.95835 0.0
C573 C 0.64504 0.23279 0.97586 0.0
C574 C 0.67452 0.25718 0.95802 0.0
C575 C 0.66095 0.29179 0.94156 0.0
C576 C 0.61791 0.30133 0.94283 0.0
C577 C 0.55318 0.32812 0.83867 0.0
C578 C 0.52934 0.36056 0.91124 0.0
C579 C 0.54718 0.30551 0.87298 0.0
N580 N 0.53551 0.32161 0.90906 0.0
C581 C 0.53502 0.38402 0.87754 0.0
C582 C 0.54709 0.36763 0.84105 0.0
C583 C 0.44819 0.32352 0.98888 0.0
C584 C 0.40072 0.20511 0.02037 0.0
C585 C 0.43017 0.23548 0.09216 0.0
C586 C 0.39771 0.20814 0.09273 0.0
C587 C 0.38285 0.19297 0.05654 0.0
N588 N 0.44715 0.2481 0.0565 0.0
C589 C 0.43306 0.23262 0.02095 0.0
Co590 Co 0.78024 0.47468 0.03993 0.0
Co591 Co 0.78236 0.57087 0.02306 0.0
O592 O 0.74927 0.52356 0.03339 0.0
C593 C 0.69405 0.45071 1.00519 0.0
O594 O 0.68845 0.48295 0.98539 0.0
C595 C 0.70107 0.59697 0.06286 0.0
O596 O 0.69295 0.56135 0.07291 0.0
O597 O 0.81215 0.56224 0.0763 0.0
O598 O 0.83154 0.50226 0.06109 0.0
H599 H 0.91727 0.64818 0.02018 0.0
H600 H 0.69707 0.48649 0.08027 0.0
O601 O 0.72918 0.44397 0.02278 0.0
H602 H 0.7946 0.44606 0.18846 0.0
H603 H 0.79718 0.3341 0.07363 0.0
H604 H 0.86775 0.44965 0.02035 0.0
H605 H 0.82005 0.45226 0.11857 0.0
H606 H 0.75861 0.39543 0.06914 0.0
O607 O 0.73763 0.60476 0.04864 0.0
H608 H 0.8737 0.59017 0.03018 0.0
H609 H 0.76266 0.65149 0.99714 0.0
H610 H 0.90787 0.38907 0.02495 0.0
H611 H 0.67035 0.48096 0.14978 0.0
H612 H 0.87249 0.33062 0.0517 0.0
H613 H 0.71926 0.46055 0.20453 0.0
O614 O 0.80155 0.48143 0.98296 0.0
H615 H 0.65691 0.57003 0.92828 0.0
H616 H 0.81077 0.59332 0.94033 0.0
H617 H 0.77562 0.60252 0.87477 0.0
H618 H 0.69805 0.59107 0.86838 0.0
H619 H 0.69323 0.56086 0.99305 0.0
H620 H 0.80473 0.71041 0.98748 0.0
H621 H 0.88272 0.70899 0.99874 0.0
O622 O 0.8272 0.54046 0.99431 0.0
C623 C 0.83349 0.53168 0.08401 0.0
C624 C 0.88331 0.6492 0.0152 0.0
C625 C 0.82017 0.68413 0.99694 0.0
N626 N 0.8157 0.61726 0.01449 0.0
C627 C 0.85852 0.61635 0.0208 0.0
C628 C 0.79644 0.65069 1.00279 0.0
C629 C 0.86391 0.6833 1.0032 0.0
C630 C 0.7186 0.47774 0.10383 0.0
N631 N 0.76009 0.46985 0.09519 0.0
C632 C 0.70326 0.47458 0.14319 0.0
C633 C 0.7307 0.4631 0.17388 0.0
C634 C 0.77294 0.45491 0.16488 0.0
C635 C 0.78717 0.45854 0.1252 0.0
C636 C 0.81297 0.35935 0.0619 0.0
C637 C 0.85226 0.42453 0.03215 0.0
C638 C 0.7912 0.3942 0.05904 0.0
N639 N 0.81094 0.42634 0.04441 0.0
C640 C 0.87508 0.3902 0.03464 0.0
C641 C 0.85521 0.35742 0.04962 0.0
C642 C 0.82343 0.51079 0.9719 0.0
C643 C 0.69064 0.57554 0.93075 0.0
C644 C 0.77692 0.58862 0.93808 0.0
C645 C 0.75721 0.59381 0.90074 0.0
C646 C 0.71373 0.5873 0.89716 0.0
N647 N 0.75399 0.57768 0.97119 0.0
C648 C 0.71144 0.57068 0.96761 0.0
Co649 Co 0.50716 0.73822 0.05642 0.0
Co650 Co 0.5044 0.73699 0.95405 0.0
O651 O 0.50682 0.76643 1.00489 0.0
C652 C 0.46897 0.81689 0.07342 0.0
O653 O 0.46008 0.8227 0.03534 0.0
C654 C 0.54401 0.81444 0.93418 0.0
O655 O 0.55344 0.82183 0.97188 0.0
O656 O 0.56052 0.71299 0.97032 0.0
O657 O 0.53664 0.69317 0.03039 0.0
H658 H 0.51797 0.61684 0.8705 0.0
H659 H 0.55064 0.81333 0.04738 0.0
O660 O 0.48119 0.78386 0.08558 0.0
H661 H 0.65531 0.73013 0.1141 0.0
H662 H 0.51658 0.72268 0.2075 0.0
H663 H 0.48763 0.65759 0.07835 0.0
H664 H 0.58519 0.70491 0.09466 0.0
H665 H 0.52083 0.75831 0.14355 0.0
O666 O 0.53234 0.78074 0.92357 0.0
H667 H 0.51656 0.65496 0.93314 0.0
H668 H 0.4914 0.75637 0.86669 0.0
H669 H 0.48372 0.62066 0.14153 0.0
H670 H 0.62053 0.84 0.06559 0.0
H671 H 0.49821 0.65326 0.20681 0.0
H672 H 0.67357 0.79814 0.09946 0.0
O673 O 0.45026 0.71648 0.04063 0.0
H674 H 0.39558 0.84272 0.94329 0.0
H675 H 0.42397 0.70543 0.91892 0.0
H676 H 0.35418 0.73221 0.90111 0.0
H677 H 0.3395 0.80142 0.91313 0.0
H678 H 0.46471 0.81426 0.96073 0.0
H679 H 0.49293 0.71968 0.80324 0.0
H680 H 0.50613 0.64933 0.80478 0.0
O681 O 0.47277 0.69403 0.98108 0.0
C682 C 0.56509 0.69326 1.00288 0.0
C683 C 0.51238 0.64751 0.86937 0.0
C684 C 0.4984 0.70521 0.83164 0.0
N685 N 0.50461 0.70783 0.90387 0.0
C686 C 0.5117 0.66918 0.90485 0.0
C687 C 0.49794 0.7259 0.86777 0.0
C688 C 0.50574 0.66574 0.83253 0.0
C689 C 0.57327 0.79528 0.06215 0.0
N690 N 0.56317 0.75808 0.07055 0.0
C691 C 0.61295 0.81036 0.07238 0.0
C692 C 0.64266 0.7869 0.09137 0.0
C693 C 0.63241 0.74879 0.09965 0.0
C694 C 0.59247 0.73472 0.08868 0.0
C695 C 0.51018 0.70814 0.17926 0.0
C696 C 0.49423 0.6719 0.10647 0.0
C697 C 0.51228 0.72823 0.14288 0.0
N698 N 0.50462 0.71 0.10699 0.0
C699 C 0.49185 0.65088 0.14224 0.0
C700 C 0.49993 0.66919 0.17885 0.0
C701 C 0.44496 0.69554 0.00911 0.0
C702 C 0.40162 0.81259 0.93754 0.0
C703 C 0.4182 0.73568 0.92392 0.0
C704 C 0.37844 0.75064 0.91384 0.0
C705 C 0.3702 0.78942 0.92066 0.0
N706 N 0.44917 0.75869 0.94006 0.0
C707 C 0.44096 0.79652 0.94719 0.0
C708 C 0.9912 0.34345 0.38186 0.0
C709 C 0.02816 0.33374 0.40442 0.0
C710 C 0.06546 0.3883 0.37353 0.0
C711 C 0.0268 0.40053 0.3548 0.0
N712 N 0.95088 0.39366 0.34894 0.0
N713 N 0.09908 0.34976 0.42553 0.0
C714 C 0.98918 0.37905 0.36096 0.0
C715 C 0.06485 0.35706 0.40134 0.0
N716 N 0.9578 0.31863 0.38012 0.0
N717 N 0.10326 0.40513 0.36366 0.0
H718 H 0.10091 0.32573 0.44426 0.0
H719 H 0.12449 0.36869 0.42883 0.0
H720 H 0.10617 0.42797 0.34375 0.0
H721 H 0.13259 0.39414 0.37246 0.0
H722 H 0.93194 0.32217 0.36087 0.0
H723 H 0.95818 0.29242 0.39469 0.0
H724 H 0.92186 0.38128 0.35656 0.0
H725 H 0.94765 0.42047 0.33526 0.0
C726 C 0.64955 0.01264 0.36055 0.0
C727 C 0.63897 0.02337 0.4007 0.0
C728 C 0.56399 0.01038 0.38701 0.0
C729 C 0.574 0.99919 0.34685 0.0
N730 N 0.6261 0.98692 0.29562 0.0
N731 N 0.58526 0.0441 0.44703 0.0
C732 C 0.6169 0.9994 0.33372 0.0
C733 C 0.59602 0.02492 0.41267 0.0
N734 N 0.69047 0.01712 0.34773 0.0
N735 N 0.52327 1.00768 0.40077 0.0
H736 H 0.60778 0.05718 0.46517 0.0
H737 H 0.55424 0.05103 0.45511 0.0
H738 H 0.4976 1.00228 0.38207 0.0
H739 H 0.51523 1.00878 0.43122 0.0
H740 H 0.70061 0.0126 0.31829 0.0
H741 H 0.71429 0.02799 0.36639 0.0
H742 H 0.65665 0.98385 0.28424 0.0
H743 H 0.60268 0.97727 0.27576 0.0
C744 C 0.03346 0.66695 0.32928 0.0
C745 C 0.03944 0.62786 0.34031 0.0
C746 C 0.9929 0.63813 0.39909 0.0
C747 C 0.98851 0.67752 0.38881 0.0
N748 N 0.98816 0.72295 0.33432 0.0
N749 N 0.03649 0.58112 0.39399 0.0
C750 C 0.00386 0.68996 0.35083 0.0
C751 C 0.02232 0.61474 0.37753 0.0
N752 N 0.05728 0.6827 0.29909 0.0
N753 N 0.9671 0.62231 0.42765 0.0
H754 H 0.05848 0.56333 0.37967 0.0
H755 H 0.02893 0.5725 0.4232 0.0
H756 H 0.94108 0.637 0.43947 0.0
H757 H 0.96731 0.59317 0.4348 0.0
H758 H 0.05774 0.71209 0.29307 0.0
H759 H 0.07854 0.66673 0.28172 0.0
H760 H 0.99593 0.73236 0.30545 0.0
H761 H 0.96358 0.73836 0.3479 0.0
C762 C 0.33277 1.00546 0.39306 0.0
C763 C 0.35217 1.00461 0.43205 0.0
C764 C 0.41364 0.03905 0.40478 0.0
C765 C 0.39749 0.03535 0.36538 0.0
N766 N 0.33756 0.02589 0.32257 0.0
N767 N 0.41471 0.01459 0.47287 0.0
C768 C 0.35573 0.0214 0.35966 0.0
C769 C 0.39372 0.01967 0.43718 0.0
N770 N 0.29262 0.99126 0.38805 0.0
N771 N 0.44604 0.06402 0.41156 0.0
H772 H 0.40184 0.999 0.49679 0.0
H773 H 0.44641 0.02224 0.47705 0.0
H774 H 0.45522 0.08282 0.3889 0.0
H775 H 0.45802 0.07042 0.4401 0.0
H776 H 0.27766 0.9882 0.36028 0.0
H777 H 0.27407 0.98127 0.41178 0.0
H778 H 0.30608 0.01962 0.31581 0.0
H779 H 0.35396 0.0387 0.29874 0.0
C780 C 0.99423 0.65547 0.67879 0.0
C781 C 0.98143 0.61793 0.66729 0.0
C782 C 0.99499 0.63529 0.59612 0.0
C783 C 0.015 0.66996 0.60909 0.0
N784 N 0.04021 0.70927 0.66404 0.0
N785 N 0.96453 0.5734 0.61401 0.0
C786 C 0.01669 0.67872 0.65086 0.0
C787 C 0.9803 0.60834 0.62552 0.0
N788 N 0.98257 0.6702 0.71525 0.0
N789 N 0.98809 0.62878 0.55595 0.0
H790 H 0.94795 0.55563 0.63387 0.0
H791 H 0.96841 0.56176 0.58531 0.0
H792 H 0.99953 0.6465 0.53319 0.0
H793 H 0.96882 0.60685 0.5449 0.0
H794 H 0.98919 0.69834 0.72405 0.0
H795 H 0.96008 0.65685 0.73337 0.0
H796 H 0.04572 0.71481 0.6945 0.0
H797 H 0.05793 0.72647 0.64452 0.0
C798 C 0.4163 0.03611 0.63919 0.0
C799 C 0.42918 1.0013 0.65919 0.0
C800 C 0.35917 0.97444 0.64062 0.0
C801 C 0.34875 1.00847 0.61952 0.0
N802 N 0.357 0.07712 0.62381 0.0
N803 N 0.41405 0.93308 0.66659 0.0
C804 C 0.37379 0.04111 0.62677 0.0
C805 C 0.40072 0.9693 0.6571 0.0
N806 N 0.44501 0.06301 0.62714 0.0
N807 N 0.3277 0.94881 0.64874 0.0
H808 H 0.44546 0.92612 0.67257 0.0
H809 H 0.39529 0.90877 0.66211 0.0
H810 H 0.29659 0.95383 0.63956 0.0
H811 H 0.33142 0.92548 0.6681 0.0
H812 H 0.43651 0.08747 0.61085 0.0
H813 H 0.47712 0.05743 0.62573 0.0
H814 H 0.37408 0.10168 0.63184 0.0
H815 H 0.32466 0.082 0.6197 0.0
C816 C 0.02212 0.34507 0.64489 0.0
C817 C 0.98593 0.33894 0.61985 0.0
C818 C 0.95527 0.39974 0.64378 0.0
C819 C 0.99093 0.40525 0.66994 0.0
N820 N 0.05653 0.38148 0.69807 0.0
N821 N 0.91486 0.35609 0.60108 0.0
C822 C 0.0236 0.37723 0.67145 0.0
C823 C 0.95167 0.36515 0.62089 0.0
N824 N 0.05633 0.32127 0.64177 0.0
N825 N 0.92476 0.4275 0.64033 0.0
H826 H 0.91122 0.33084 0.5844 0.0
H827 H 0.88669 0.37144 0.60414 0.0
H828 H 0.92293 0.45167 0.65866 0.0
H829 H 0.90185 0.42766 0.61768 0.0
H830 H 0.08614 0.32718 0.65387 0.0
H831 H 0.0554 0.29602 0.6254 0.0
H832 H 0.07755 0.35948 0.70539 0.0
H833 H 0.06216 0.40666 0.71428 0.0
C834 C 0.65815 0.02829 0.65225 0.0
C835 C 0.61342 0.02909 0.64613 0.0
C836 C 0.6244 0.01997 0.57341 0.0
C837 C 0.6688 0.01635 0.57945 0.0
N838 N 0.72814 0.01294 0.62496 0.0
N839 N 0.55411 0.01856 0.60094 0.0
C840 C 0.68578 0.01933 0.61908 0.0
C841 C 0.59676 0.02314 0.60671 0.0
N842 N 0.67405 0.03571 0.68982 0.0
N843 N 0.6081 0.02083 0.53536 0.0
H844 H 0.53202 0.0229 0.62348 0.0
H845 H 0.54068 1.0074 0.57469 0.0
H846 H 0.62609 0.01454 0.51014 0.0
H847 H 0.57735 0.02985 0.52871 0.0
H848 H 0.70623 0.03872 0.69616 0.0
H849 H 0.65463 0.04136 0.71459 0.0
H850 H 0.74246 0.01136 0.65318 0.0
H851 H 0.7488 1.00656 0.60131 0.0
C852 C 0.37522 0.34301 0.01112 0.0
C853 C 0.40953 0.34878 0.98433 0.0
C854 C 0.38755 0.41614 0.97618 0.0
C855 C 0.35568 0.41124 1.00657 0.0
N856 N 0.32459 0.37075 0.05761 0.0
N857 N 0.43384 0.38467 0.92767 0.0
C858 C 0.35087 0.37473 0.02509 0.0
C859 C 0.41183 0.38374 0.96298 0.0
N860 N 0.36376 0.30636 0.02032 0.0
N861 N 0.39573 0.45163 0.96041 0.0
H862 H 0.44582 0.35955 0.91493 0.0
H863 H 0.43441 0.40817 0.90828 0.0
H864 H 0.37963 0.47643 0.96858 0.0
H865 H 0.42157 0.45729 0.94177 0.0
H866 H 0.33711 0.29922 0.03732 0.0
H867 H 0.37763 0.28335 1.0053 0.0
H868 H 0.32312 0.34584 0.07493 0.0
H869 H 0.30771 0.39371 0.06999 0.0
C870 C 0.38241 0.60698 0.97903 0.0
C871 C 0.33969 0.6187 0.98364 0.0
C872 C 0.36555 0.68337 1.00326 0.0
C873 C 0.40778 0.66896 1.00509 0.0
N874 N 0.45391 0.61333 0.99998 0.0
N875 N 0.29017 0.66987 0.99905 0.0
C876 C 0.4154 0.63005 0.99434 0.0
C877 C 0.33104 0.65756 0.99506 0.0
N878 N 0.3917 0.57243 0.9615 0.0
N879 N 0.35847 0.72193 0.00742 0.0
H880 H 0.26434 0.65457 0.9881 0.0
H881 H 0.28182 0.69524 0.01374 0.0
H882 H 0.38254 0.74161 0.01375 0.0
H883 H 0.32938 0.73495 1.00144 0.0
H884 H 0.42281 0.56251 0.95819 0.0
H885 H 0.36844 0.55529 0.94799 0.0
H886 H 0.47906 0.62686 0.01467 0.0
H887 H 0.47906 0.62686 0.01467 0.0
C888 C 0.6364 0.35612 0.02714 0.0
C889 C 0.5936 0.36808 0.03064 0.0
C890 C 0.61684 0.43524 0.02275 0.0
C891 C 0.65839 0.42258 0.01183 0.0
N892 N 0.7048 0.36906 0.99686 0.0
N893 N 0.54205 0.41908 0.02807 0.0
C894 C 0.66745 0.38243 0.01247 0.0
C895 C 0.58355 0.4077 0.02725 0.0
N896 N 0.64726 0.31933 0.03704 0.0
N897 N 0.60942 0.47307 0.03139 0.0
H898 H 0.51716 0.40008 0.03396 0.0
H899 H 0.53238 0.44685 0.02072 0.0
H900 H 0.63302 0.49402 0.03145 0.0
H901 H 0.58071 0.48295 0.04307 0.0
H902 H 0.6786 0.30989 0.03872 0.0
H903 H 0.62513 0.29932 0.04733 0.0
H904 H 0.71219 0.33999 0.99447 0.0
H905 H 0.72659 0.38671 0.98214 0.0
C906 C 0.67396 0.66355 0.04275 0.0
C907 C 0.66521 0.62472 0.05395 0.0
C908 C 0.5957 0.62961 0.02159 0.0
C909 C 0.6032 0.66835 0.0108 0.0
N910 N 0.65186 0.72144 1.00671 0.0
N911 N 0.60871 0.58059 0.07102 0.0
C912 C 0.64328 0.68508 0.01991 0.0
C913 C 0.62347 0.61048 0.04838 0.0
N914 N 0.70978 0.68077 0.05747 0.0
N915 N 0.56264 0.61028 1.00467 0.0
H916 H 0.62506 0.57021 0.09607 0.0
H917 H 0.57743 0.57087 0.06939 0.0
H918 H 0.54433 0.62274 0.98217 0.0
H919 H 0.55751 0.58095 0.00887 0.0
H920 H 0.71785 0.70938 0.05278 0.0
H921 H 0.72956 0.66719 0.07831 0.0
H922 H 0.68131 0.73473 0.00923 0.0
H923 H 0.62988 0.73779 0.99069 0.0
C924 C 0.5113 0.87679 0.90861 0.0
C925 C 0.54111 0.84621 0.9037 0.0
C926 C 0.56133 0.87386 0.83833 0.0
C927 C 0.52742 0.90099 0.84072 0.0
N928 N 0.46429 0.92184 0.87527 0.0
N929 N 0.59085 0.81321 0.8605 0.0
C930 C 0.5007 0.90046 0.87504 0.0
C931 C 0.56451 0.84375 0.86727 0.0
N932 N 0.49358 0.88426 0.94533 0.0
N933 N 0.59289 0.8785 0.81072 0.0
H934 H 0.59749 0.79243 0.88222 0.0
H935 H 0.60427 0.80751 0.83239 0.0
H936 H 0.6207 0.86229 0.81056 0.0
H937 H 0.59347 0.90126 0.79076 0.0
H938 H 0.47522 0.90857 0.95109 0.0
H939 H 0.50056 0.86874 0.97114 0.0
H940 H 0.44129 0.9195 0.89771 0.0
H941 H 0.45486 0.93867 0.85083 0.0
C942 C 0.09742 0.51764 0.92599 0.0
C943 C 0.13986 0.51442 0.9125 0.0
C944 C 0.11474 0.49058 0.84684 0.0
C945 C 0.07217 0.49383 0.86043 0.0
N946 N 0.02353 0.50061 0.91555 0.0
N947 N 0.18901 0.50687 0.85787 0.0
C948 C 0.06373 0.5047 0.90081 0.0
C949 C 0.14858 0.50329 0.87225 0.0
N950 N 0.08932 0.53526 0.96199 0.0
N951 N 0.12282 0.47373 0.81045 0.0
H952 H 0.21385 0.51724 0.8757 0.0
H953 H 0.19728 0.50292 0.82777 0.0
H954 H 0.09885 0.46191 0.79267 0.0
H955 H 0.15319 0.46765 0.79988 0.0
H956 H 0.05891 0.54226 0.97187 0.0
H957 H 0.11348 0.54629 0.9802 0.0
H958 H 0.01587 0.50404 0.94587 0.0
H959 H 0.99877 0.48967 0.89798 0.0
C960 C 0.56902 0.14817 0.84436 0.0
C961 C 0.54607 0.11319 0.84767 0.0
C962 C 0.49886 0.14408 0.89731 0.0
C963 C 0.52474 0.1774 0.89771 0.0
N964 N 0.59144 0.20629 0.8778 0.0
N965 N 0.49562 0.07563 0.8865 0.0
C966 C 0.56156 0.17836 0.87264 0.0
C967 C 0.51299 0.11039 0.8769 0.0
N968 N 0.59889 0.15244 0.81482 0.0
N969 N 0.46006 0.14481 0.91574 0.0
H970 H 0.50631 0.04969 0.87484 0.0
H971 H 0.4741 0.072 0.91004 0.0
H972 H 0.44813 0.16932 0.92995 0.0
H973 H 0.43793 0.12268 0.91294 0.0
H974 H 0.61241 0.17891 0.80765 0.0
H975 H 0.60862 0.12999 0.79613 0.0
H976 H 0.62104 0.20584 0.86381 0.0
H977 H 0.58852 0.22787 0.8991 0.0
C978 C 0.85238 0.51874 0.8599 0.0
C979 C 0.89493 0.53203 0.86334 0.0
C980 C 0.89198 0.52245 0.93613 0.0
C981 C 0.84869 0.51123 0.93366 0.0
N982 N 0.78567 0.50318 0.8931 0.0
N983 N 0.95023 0.55722 0.90559 0.0
C984 C 0.82829 0.51031 0.8954 0.0
C985 C 0.91293 0.53755 0.90183 0.0
N986 N 0.83505 0.51467 0.82247 0.0
N987 N 0.91389 0.51639 0.97097 0.0
H988 H 0.9661 0.56873 0.88079 0.0
H989 H 0.96295 0.56532 0.93336 0.0
H990 H 0.90034 0.50148 0.99485 0.0
H991 H 0.9463 0.52151 0.97417 0.0
H992 H 0.80674 0.50021 0.81668 0.0
H993 H 0.84974 0.5262 0.79712 0.0
H994 H 0.76794 0.50613 0.8668 0.0
H995 H 0.76724 0.49648 0.91821 0.0
C996 C 0.47235 0.16081 0.1754 0.0
C997 C 0.47457 0.12109 0.16506 0.0
C998 C 0.52333 0.1382 0.10935 0.0
C999 C 0.51877 0.17771 0.11864 0.0
N1000 N 0.50723 0.2227 0.17263 0.0
N1001 N 0.49814 0.07304 0.11642 0.0
C1002 C 0.49867 0.18802 0.15527 0.0
C1003 C 0.49908 0.10997 0.13054 0.0
N1004 N 0.44312 0.17312 0.20296 0.0
N1005 N 0.55341 0.12765 0.08178 0.0
H1006 H 0.48198 0.05057 0.12997 0.0
H1007 H 0.51068 0.06492 0.08866 0.0
H1008 H 0.57318 0.14779 0.06792 0.0
H1009 H 0.56248 0.09934 0.0764 0.0
H1010 H 0.43735 0.2021 0.20873 0.0
H1011 H 0.42109 0.15471 0.21629 0.0
H1012 H 0.49575 0.23072 0.20088 0.0
H1013 H 0.53128 0.24049 0.16192 0.0
C1014 C 0.88051 0.52085 0.19042 0.0
C1015 C 0.9203 0.50429 0.18026 0.0
C1016 C 0.9057 0.51479 0.10908 0.0
C1017 C 0.86474 0.5294 0.11805 0.0
N1018 N 0.81074 0.54231 0.16783 0.0
N1019 N 0.9626 0.47284 0.12992 0.0
C1020 C 0.85142 0.53158 0.15905 0.0
C1021 C 0.93013 0.49709 0.13956 0.0
N1022 N 0.87042 0.52532 0.23013 0.0
N1023 N 0.92239 0.51987 0.0716 0.0
H1024 H 0.98067 0.45896 0.15184 0.0
H1025 H 0.96862 0.46385 0.10046 0.0
H1026 H 0.90684 0.53646 0.05014 0.0
H1027 H 0.95342 0.51232 0.06405 0.0
H1028 H 0.84422 0.54067 0.2404 0.0
H1029 H 0.88932 0.51375 0.25298 0.0
H1030 H 0.79758 0.54097 0.19656 0.0
H1031 H 0.78902 0.55067 0.14581 0.0
C1032 C 0.49922 0.88037 0.09841 0.0
C1033 C 0.4693 0.84978 0.10261 0.0
C1034 C 0.44204 0.88103 0.16369 0.0
C1035 C 0.476 0.90812 0.16287 0.0
N1036 N 0.54129 0.92913 0.1323 0.0
N1037 N 0.41531 0.81888 0.14271 0.0
C1038 C 0.50584 0.90647 0.131 0.0
C1039 C 0.44205 0.84926 0.13658 0.0
N1040 N 0.52075 0.88538 0.06312 0.0
N1041 N 0.40775 0.88722 0.18788 0.0
H1042 H 0.4117 0.79646 0.12209 0.0
H1043 H 0.39864 0.81492 0.16954 0.0
H1044 H 0.40507 0.91137 0.20601 0.0
H1045 H 0.38013 0.87076 0.18663 0.0
H1046 H 0.5395 0.90939 0.05719 0.0
H1047 H 0.51651 0.86789 0.0381 0.0
H1048 H 0.56649 0.92621 0.11219 0.0
H1049 H 0.5475 0.94823 0.15588 0.0
C1050 C 0.16881 0.49464 0.12692 0.0
C1051 C 0.15177 0.49103 0.08751 0.0
C1052 C 0.08218 0.51153 0.11305 0.0
C1053 C 0.09973 0.51751 0.15197 0.0
N1054 N 0.16245 0.52464 0.19271 0.0
N1055 N 0.09052 0.4927 0.04384 0.0
C1056 C 0.14389 0.51187 0.15801 0.0
C1057 C 0.10802 0.49848 0.08102 0.0
N1058 N 0.20825 0.48043 0.13502 0.0
N1059 N 0.04073 0.51945 0.10511 0.0
H1060 H 0.10789 0.4818 0.01969 0.0
H1061 H 0.05848 0.49778 0.03769 0.0
H1062 H 0.01978 0.53101 0.12623 0.0
H1063 H 0.01978 0.53101 0.12623 0.0
H1064 H 0.22109 0.47922 0.16395 0.0
H1065 H 0.22603 0.46575 0.11346 0.0
H1066 H 0.19513 0.52434 0.19759 0.0
H1067 H 0.14557 0.53985 0.21451 0.0
C1068 C 0.89165 0.92103 0.50533 0.0
C1069 C 0.85312 0.9151 0.48403 0.0
C1070 C 0.87875 0.85155 0.46256 0.0
C1071 C 0.91876 0.85925 0.48033 0.0
N1072 N 0.96657 0.90604 0.5092 0.0
N1073 N 0.81757 0.87973 0.4309 0.0
C1074 C 0.9262 0.89549 0.49889 0.0
C1075 C 0.84862 0.88172 0.45945 0.0
N1076 N 0.895 0.9504 0.53255 0.0
N1077 N 0.86859 0.81532 0.44987 0.0
H1078 H 0.81555 0.8575 0.40987 0.0
H1079 H 0.79714 0.90244 0.42519 0.0
H1080 H 0.8893 0.79206 0.45211 0.0
H1081 H 0.83803 0.8078 0.44063 0.0
H1082 H 0.92108 0.95374 0.55162 0.0
H1083 H 0.86994 0.96901 0.53901 0.0
H1084 H 0.97434 0.93343 0.51959 0.0
H1085 H 0.99288 0.88876 0.50316 0.0
C1086 C 0.9039 0.12601 0.50283 0.0
C1087 C 0.89956 0.16495 0.51453 0.0
C1088 C 0.83211 0.16824 0.47737 0.0
C1089 C 0.8372 0.1293 0.46491 0.0
N1090 N 0.88594 0.07658 0.45464 0.0
N1091 N 0.85509 0.22054 0.52117 0.0
C1092 C 0.87534 0.10967 0.47459 0.0
C1093 C 0.86192 0.18509 0.50474 0.0
N1094 N 0.93569 0.10452 0.51916 0.0
N1095 N 0.80077 0.19006 0.46034 0.0
H1096 H 0.87655 0.23329 0.54105 0.0
H1097 H 0.82676 0.23566 0.51819 0.0
H1098 H 0.77892 0.17898 0.4397 0.0
H1099 H 0.79748 0.21949 0.46492 0.0
H1100 H 0.93882 0.07501 0.51469 0.0
H1101 H 0.95604 0.1158 0.54082 0.0
H1102 H 0.91583 0.06389 0.45657 0.0
H1103 H 0.86582 0.06303 0.43403 0.0
C1104 C 0.09268 0.88553 0.54393 0.0
C1105 C 0.09826 0.8467 0.53264 0.0
C1106 C 0.1639 0.86363 0.49739 0.0
C1107 C 0.15795 0.90313 0.50732 0.0
N1108 N 0.12505 0.94768 0.55423 0.0
N1109 N 0.14853 0.79773 0.51638 0.0
C1110 C 0.12466 0.9131 0.53468 0.0
C1111 C 0.13715 0.83547 0.51529 0.0
N1112 N 0.05701 0.8959 0.56417 0.0
N1113 N 0.19297 0.85288 0.46901 0.0
H1114 H 0.12901 0.77699 0.52962 0.0
H1115 H 0.17858 0.78812 0.50786 0.0
H1116 H 0.21042 0.87246 0.45203 0.0
H1117 H 0.1962 0.8246 0.45914 0.0
H1118 H 0.04726 0.92428 0.56812 0.0
H1119 H 0.03765 0.87517 0.57696 0.0
H1120 H 0.10363 0.95503 0.57687 0.0
H1121 H 0.14993 0.96714 0.55191 0.0
C1122 C 0.1357 0.16468 0.51892 0.0
C1123 C 0.09341 0.15149 0.51368 0.0
C1124 C 0.11217 0.09078 0.54731 0.0
C1125 C 0.15529 0.10209 0.54833 0.0
N1126 N 0.20197 0.15643 0.55515 0.0
N1127 N 0.04308 0.09934 0.51729 0.0
C1128 C 0.16565 0.14097 0.53951 0.0
C1129 C 0.08229 0.1137 0.52625 0.0
N1130 N 0.14735 0.19986 0.50446 0.0
N1131 N 0.09891 0.06032 0.57002 0.0
H1132 H 0.02047 0.11521 0.50174 0.0
H1133 H 0.03462 0.0707 0.52168 0.0
H1134 H 0.11885 0.0467 0.59067 0.0
H1135 H 0.06715 0.05253 0.57322 0.0
H1136 H 0.17871 0.20934 0.50365 0.0
H1137 H 0.1262 0.2184 0.49018 0.0
H1138 H 0.20998 0.18537 0.55289 0.0
H1139 H 0.22121 0.14129 0.57524 0.0
loop_
_geom_bond_atom_site_label_1
_geom_bond_atom_site_label_2
_geom_bond_distance
_geom_bond_site_symmetry_2
_ccdc_geom_bond_type
Co0 O2 2.143 . S
Co0 O8 2.074 . S
Co0 O11 2.093 1_455 S
Co0 O24 2.097 1_455 S
Co0 N41 2.151 . S
Co0 N49 2.214 . S
Co1 O2 2.160 1_655 S
Co1 O7 2.058 1_655 S
Co1 O17 2.057 1_655 S
Co1 O32 2.037 . S
Co1 N36 2.145 . S
Co1 N57 2.257 . S
O2 Co0 2.143 . S
O2 Co1 2.160 1_455 S
C3 O4 1.278 . S
C3 O11 1.224 . S
O4 C3 1.278 . S
C5 O6 1.245 . S
C5 O17 1.232 . S
O6 C5 1.245 . S
O7 Co1 2.058 1_455 S
O7 C33 1.269 . S
O8 Co0 2.074 . S
O8 C33 1.257 . S
H9 C34 0.930 . S
H10 C40 0.930 . S
O11 Co0 2.093 1_655 S
O11 C3 1.224 . S
H12 C44 0.929 . S
H13 C46 0.930 . S
H14 C47 0.930 . S
H15 C45 0.929 . S
H16 C48 0.928 . S
O17 Co1 2.057 1_455 S
O17 C5 1.232 . S
H18 C37 0.929 . S
H19 C38 0.929 . S
H20 C50 0.931 . S
H21 C42 0.929 . S
H22 C51 0.930 . S
H23 C43 0.931 . S
O24 Co0 2.097 1_655 S
O24 C52 1.214 . S
H25 C53 0.929 . S
H26 C54 0.929 . S
H27 C55 0.930 . S
H28 C56 0.929 . S
H29 C58 0.930 . S
H30 C35 0.930 . S
H31 C39 0.930 . S
O32 Co1 2.037 . S
O32 C52 1.234 . S
C33 O7 1.269 . S
C33 O8 1.257 . S
C34 H9 0.930 . S
C34 C37 1.388 . S
C34 C39 1.418 . S
C35 H30 0.930 . S
C35 C38 1.404 . S
C35 C39 1.353 . S
N36 Co1 2.145 . S
N36 C37 1.397 . S
N36 C38 1.334 . S
C37 H18 0.929 . S
C37 C34 1.388 . S
C37 N36 1.397 . S
C38 H19 0.929 . S
C38 C35 1.404 . S
C38 N36 1.334 . S
C39 H31 0.930 . S
C39 C34 1.418 . S
C39 C35 1.353 . S
C40 H10 0.930 . S
C40 N41 1.330 . S
C40 C42 1.446 . S
N41 Co0 2.151 . S
N41 C40 1.330 . S
N41 C45 1.418 . S
C42 H21 0.929 . S
C42 C40 1.446 . S
C42 C43 1.332 . S
C43 H23 0.931 . S
C43 C42 1.332 . S
C43 C44 1.267 . S
C44 H12 0.929 . S
C44 C43 1.267 . S
C44 C45 1.251 . S
C45 H15 0.929 . S
C45 N41 1.418 . S
C45 C44 1.251 . S
C46 H13 0.930 . S
C46 C48 1.406 . S
C46 C51 1.261 . S
C47 H14 0.930 . S
C47 N49 1.325 . S
C47 C50 1.357 . S
C48 H16 0.928 . S
C48 C46 1.406 . S
C48 N49 1.261 . S
N49 Co0 2.214 . S
N49 C47 1.325 . S
N49 C48 1.261 . S
C50 H20 0.931 . S
C50 C47 1.357 . S
C50 C51 1.312 . S
C51 H22 0.930 . S
C51 C46 1.261 . S
C51 C50 1.312 . S
C52 O24 1.214 . S
C52 O32 1.234 . S
C53 H25 0.929 . S
C53 C56 1.391 . S
C53 C58 1.391 . S
C54 H26 0.929 . S
C54 C55 1.390 . S
C54 N57 1.391 . S
C55 H27 0.930 . S
C55 C54 1.390 . S
C55 C56 1.392 . S
C56 H28 0.929 . S
C56 C53 1.391 . S
C56 C55 1.392 . S
N57 Co1 2.257 . S
N57 C54 1.391 . S
N57 C58 1.388 . S
C58 H29 0.930 . S
C58 C53 1.391 . S
C58 N57 1.388 . S
Co59 O61 2.143 . S
Co59 O67 2.074 . S
Co59 O70 2.093 . S
Co59 O83 2.097 . S
Co59 N100 2.151 . S
Co59 N108 2.214 . S
Co60 O61 2.160 1_565 S
Co60 O66 2.058 . S
Co60 O76 2.057 . S
Co60 O91 2.037 . S
Co60 N95 2.145 . S
Co60 N116 2.257 . S
O61 Co59 2.143 . S
O61 Co60 2.160 1_545 S
C62 O63 1.278 . S
C62 O70 1.224 . S
O63 C62 1.278 . S
C64 O65 1.245 . S
C64 O76 1.232 . S
O65 C64 1.245 . S
O66 Co60 2.058 . S
O66 C92 1.269 . S
O67 Co59 2.074 . S
O67 C92 1.257 1_545 S
H68 C93 0.930 . S
H69 C99 0.930 . S
O70 Co59 2.093 . S
O70 C62 1.224 . S
H71 C103 0.929 . S
H72 C105 0.930 . S
H73 C106 0.930 . S
H74 C104 0.929 . S
H75 C107 0.928 . S
O76 Co60 2.057 . S
O76 C64 1.232 . S
H77 C96 0.929 . S
H78 C97 0.929 . S
H79 C109 0.931 . S
H80 C101 0.929 . S
H81 C110 0.930 . S
H82 C102 0.931 . S
O83 Co59 2.097 . S
O83 C111 1.214 . S
H84 C112 0.929 . S
H85 C113 0.929 . S
H86 C114 0.930 . S
H87 C115 0.929 . S
H88 C117 0.930 . S
H89 C94 0.930 . S
H90 C98 0.930 . S
O91 Co60 2.037 . S
O91 C111 1.234 1_565 S
C92 O66 1.269 . S
C92 O67 1.257 1_565 S
C93 H68 0.930 . S
C93 C96 1.388 . S
C93 C98 1.418 . S
C94 H89 0.930 . S
C94 C97 1.404 . S
C94 C98 1.353 . S
N95 Co60 2.145 . S
N95 C96 1.397 . S
N95 C97 1.334 . S
C96 H77 0.929 . S
C96 C93 1.388 . S
C96 N95 1.397 . S
C97 H78 0.929 . S
C97 C94 1.404 . S
C97 N95 1.334 . S
C98 H90 0.930 . S
C98 C93 1.418 . S
C98 C94 1.353 . S
C99 H69 0.930 . S
C99 N100 1.330 . S
C99 C101 1.446 . S
N100 Co59 2.151 . S
N100 C99 1.330 . S
N100 C104 1.418 . S
C101 H80 0.929 . S
C101 C99 1.446 . S
C101 C102 1.332 . S
C102 H82 0.931 . S
C102 C101 1.332 . S
C102 C103 1.267 . S
C103 H71 0.929 . S
C103 C102 1.267 . S
C103 C104 1.251 . S
C104 H74 0.929 . S
C104 N100 1.418 . S
C104 C103 1.251 . S
C105 H72 0.930 . S
C105 C107 1.406 . S
C105 C110 1.261 . S
C106 H73 0.930 . S
C106 N108 1.325 . S
C106 C109 1.357 . S
C107 H75 0.928 . S
C107 C105 1.406 . S
C107 N108 1.261 . S
N108 Co59 2.214 . S
N108 C106 1.325 . S
N108 C107 1.261 . S
C109 H79 0.931 . S
C109 C106 1.357 . S
C109 C110 1.312 . S
C110 H81 0.930 . S
C110 C105 1.261 . S
C110 C109 1.312 . S
C111 O83 1.214 . S
C111 O91 1.234 1_545 S
C112 H84 0.929 . S
C112 C115 1.391 . S
C112 C117 1.391 . S
C113 H85 0.929 . S
C113 C114 1.390 . S
C113 N116 1.391 . S
C114 H86 0.930 . S
C114 C113 1.390 . S
C114 C115 1.392 . S
C115 H87 0.929 . S
C115 C112 1.391 . S
C115 C114 1.392 . S
N116 Co60 2.257 . S
N116 C113 1.391 . S
N116 C117 1.388 . S
C117 H88 0.930 . S
C117 C112 1.391 . S
C117 N116 1.388 . S
Co118 O120 2.143 . S
Co118 O126 2.074 . S
Co118 O129 2.093 1_455 S
Co118 O142 2.097 1_455 S
Co118 N159 2.151 . S
Co118 N167 2.214 . S
Co119 O120 2.160 1_655 S
Co119 O125 2.058 1_655 S
Co119 O135 2.057 1_655 S
Co119 O150 2.037 . S
Co119 N154 2.145 . S
Co119 N175 2.257 . S
O120 Co118 2.143 . S
O120 Co119 2.160 1_455 S
C121 O122 1.278 . S
C121 O129 1.224 . S
O122 C121 1.278 . S
C123 O124 1.245 . S
C123 O135 1.232 . S
O124 C123 1.245 . S
O125 Co119 2.058 1_455 S
O125 C151 1.269 . S
O126 Co118 2.074 . S
O126 C151 1.257 . S
H127 C152 0.930 . S
H128 C158 0.930 . S
O129 Co118 2.093 1_655 S
O129 C121 1.224 . S
H130 C162 0.929 . S
H131 C164 0.930 . S
H132 C165 0.930 . S
H133 C163 0.929 . S
H134 C166 0.928 . S
O135 Co119 2.057 1_455 S
O135 C123 1.232 . S
H136 C155 0.929 . S
H137 C156 0.929 . S
H138 C168 0.931 . S
H139 C160 0.929 . S
H140 C169 0.930 . S
H141 C161 0.931 . S
O142 Co118 2.097 1_655 S
O142 C170 1.214 . S
H143 C171 0.929 . S
H144 C172 0.929 . S
H145 C173 0.930 . S
H146 C174 0.929 . S
H147 C176 0.930 . S
H148 C153 0.930 . S
H149 C157 0.930 . S
O150 Co119 2.037 . S
O150 C170 1.234 . S
C151 O125 1.269 . S
C151 O126 1.257 . S
C152 H127 0.930 . S
C152 C155 1.388 . S
C152 C157 1.418 . S
C153 H148 0.930 . S
C153 C156 1.404 . S
C153 C157 1.353 . S
N154 Co119 2.145 . S
N154 C155 1.397 . S
N154 C156 1.334 . S
C155 H136 0.929 . S
C155 C152 1.388 . S
C155 N154 1.397 . S
C156 H137 0.929 . S
C156 C153 1.404 . S
C156 N154 1.334 . S
C157 H149 0.930 . S
C157 C152 1.418 . S
C157 C153 1.353 . S
C158 H128 0.930 . S
C158 N159 1.330 . S
C158 C160 1.446 . S
N159 Co118 2.151 . S
N159 C158 1.330 . S
N159 C163 1.418 . S
C160 H139 0.929 . S
C160 C158 1.446 . S
C160 C161 1.332 . S
C161 H141 0.931 . S
C161 C160 1.332 . S
C161 C162 1.267 . S
C162 H130 0.929 . S
C162 C161 1.267 . S
C162 C163 1.251 . S
C163 H133 0.929 . S
C163 N159 1.418 . S
C163 C162 1.251 . S
C164 H131 0.930 . S
C164 C166 1.406 . S
C164 C169 1.261 . S
C165 H132 0.930 . S
C165 N167 1.325 . S
C165 C168 1.357 . S
C166 H134 0.928 . S
C166 C164 1.406 . S
C166 N167 1.261 . S
N167 Co118 2.214 . S
N167 C165 1.325 . S
N167 C166 1.261 . S
C168 H138 0.931 . S
C168 C165 1.357 . S
C168 C169 1.312 . S
C169 H140 0.930 . S
C169 C164 1.261 . S
C169 C168 1.312 . S
C170 O142 1.214 . S
C170 O150 1.234 . S
C171 H143 0.929 . S
C171 C174 1.391 . S
C171 C176 1.391 . S
C172 H144 0.929 . S
C172 C173 1.390 . S
C172 N175 1.391 . S
C173 H145 0.930 . S
C173 C172 1.390 . S
C173 C174 1.392 . S
C174 H146 0.929 . S
C174 C171 1.391 . S
C174 C173 1.392 . S
N175 Co119 2.257 . S
N175 C172 1.391 . S
N175 C176 1.388 . S
C176 H147 0.930 . S
C176 C171 1.391 . S
C176 N175 1.388 . S
Co177 O179 2.143 . S
Co177 O185 2.074 . S
Co177 O188 2.093 . S
Co177 O201 2.097 . S
Co177 N218 2.151 . S
Co177 N226 2.214 . S
Co178 O179 2.160 1_545 S
Co178 O184 2.058 . S
Co178 O194 2.057 . S
Co178 O209 2.037 . S
Co178 N213 2.145 . S
Co178 N234 2.257 . S
O179 Co177 2.143 . S
O179 Co178 2.160 1_565 S
C180 O181 1.278 . S
C180 O188 1.224 . S
O181 C180 1.278 . S
C182 O183 1.245 . S
C182 O194 1.232 . S
O183 C182 1.245 . S
O184 Co178 2.058 . S
O184 C210 1.269 . S
O185 Co177 2.074 . S
O185 C210 1.257 1_565 S
H186 C211 0.930 . S
H187 C217 0.930 . S
O188 Co177 2.093 . S
O188 C180 1.224 . S
H189 C221 0.929 . S
H190 C223 0.930 . S
H191 C224 0.930 . S
H192 C222 0.929 . S
H193 C225 0.928 . S
O194 Co178 2.057 . S
O194 C182 1.232 . S
H195 C214 0.929 . S
H196 C215 0.929 . S
H197 C227 0.931 . S
H198 C219 0.929 . S
H199 C228 0.930 . S
H200 C220 0.931 . S
O201 Co177 2.097 . S
O201 C229 1.214 . S
H202 C230 0.929 . S
H203 C231 0.929 . S
H204 C232 0.930 . S
H205 C233 0.929 . S
H206 C235 0.930 . S
H207 C212 0.930 . S
H208 C216 0.930 . S
O209 Co178 2.037 . S
O209 C229 1.234 1_545 S
C210 O184 1.269 . S
C210 O185 1.257 1_545 S
C211 H186 0.930 . S
C211 C214 1.388 . S
C211 C216 1.418 . S
C212 H207 0.930 . S
C212 C215 1.404 . S
C212 C216 1.353 . S
N213 Co178 2.145 . S
N213 C214 1.397 . S
N213 C215 1.334 . S
C214 H195 0.929 . S
C214 C211 1.388 . S
C214 N213 1.397 . S
C215 H196 0.929 . S
C215 C212 1.404 . S
C215 N213 1.334 . S
C216 H208 0.930 . S
C216 C211 1.418 . S
C216 C212 1.353 . S
C217 H187 0.930 . S
C217 N218 1.330 . S
C217 C219 1.446 . S
N218 Co177 2.151 . S
N218 C217 1.330 . S
N218 C222 1.418 . S
C219 H198 0.929 . S
C219 C217 1.446 . S
C219 C220 1.332 . S
C220 H200 0.931 . S
C220 C219 1.332 . S
C220 C221 1.267 . S
C221 H189 0.929 . S
C221 C220 1.267 . S
C221 C222 1.251 . S
C222 H192 0.929 . S
C222 N218 1.418 . S
C222 C221 1.251 . S
C223 H190 0.930 . S
C223 C225 1.406 . S
C223 C228 1.261 . S
C224 H191 0.930 . S
C224 N226 1.325 . S
C224 C227 1.357 . S
C225 H193 0.928 . S
C225 C223 1.406 . S
C225 N226 1.261 . S
N226 Co177 2.214 . S
N226 C224 1.325 . S
N226 C225 1.261 . S
C227 H197 0.931 . S
C227 C224 1.357 . S
C227 C228 1.312 . S
C228 H199 0.930 . S
C228 C223 1.261 . S
C228 C227 1.312 . S
C229 O201 1.214 . S
C229 O209 1.234 1_565 S
C230 H202 0.929 . S
C230 C233 1.391 . S
C230 C235 1.391 . S
C231 H203 0.929 . S
C231 C232 1.390 . S
C231 N234 1.391 . S
C232 H204 0.930 . S
C232 C231 1.390 . S
C232 C233 1.392 . S
C233 H205 0.929 . S
C233 C230 1.391 . S
C233 C232 1.392 . S
N234 Co178 2.257 . S
N234 C231 1.391 . S
N234 C235 1.388 . S
C235 H206 0.930 . S
C235 C230 1.391 . S
C235 N234 1.388 . S
Co236 O238 2.143 . S
Co236 O244 2.074 . S
Co236 O247 2.093 . S
Co236 O260 2.097 . S
Co236 N277 2.151 . S
Co236 N285 2.214 . S
Co237 O238 2.160 1_545 S
Co237 O243 2.058 . S
Co237 O253 2.057 . S
Co237 O268 2.037 . S
Co237 N272 2.145 . S
Co237 N293 2.257 . S
O238 Co236 2.143 . S
O238 Co237 2.160 1_565 S
C239 O240 1.278 . S
C239 O247 1.224 . S
O240 C239 1.278 . S
C241 O242 1.245 . S
C241 O253 1.232 . S
O242 C241 1.245 . S
O243 Co237 2.058 . S
O243 C269 1.269 . S
O244 Co236 2.074 . S
O244 C269 1.257 1_565 S
H245 C270 0.930 . S
H246 C276 0.930 . S
O247 Co236 2.093 . S
O247 C239 1.224 . S
H248 C280 0.929 . S
H249 C282 0.930 . S
H250 C283 0.930 . S
H251 C281 0.929 . S
H252 C284 0.928 . S
O253 Co237 2.057 . S
O253 C241 1.232 . S
H254 C273 0.929 . S
H255 C274 0.929 . S
H256 C286 0.931 . S
H257 C278 0.929 . S
H258 C287 0.930 . S
H259 C279 0.931 . S
O260 Co236 2.097 . S
O260 C288 1.214 . S
H261 C289 0.929 . S
H262 C290 0.929 . S
H263 C291 0.930 . S
H264 C292 0.929 . S
H265 C294 0.930 . S
H266 C271 0.930 . S
H267 C275 0.930 . S
O268 Co237 2.037 . S
O268 C288 1.234 1_545 S
C269 O243 1.269 . S
C269 O244 1.257 1_545 S
C270 H245 0.930 . S
C270 C273 1.388 . S
C270 C275 1.418 . S
C271 H266 0.930 . S
C271 C274 1.404 . S
C271 C275 1.353 . S
N272 Co237 2.145 . S
N272 C273 1.397 . S
N272 C274 1.334 . S
C273 H254 0.929 . S
C273 C270 1.388 . S
C273 N272 1.397 . S
C274 H255 0.929 . S
C274 C271 1.404 . S
C274 N272 1.334 . S
C275 H267 0.930 . S
C275 C270 1.418 . S
C275 C271 1.353 . S
C276 H246 0.930 . S
C276 N277 1.330 . S
C276 C278 1.446 . S
N277 Co236 2.151 . S
N277 C276 1.330 . S
N277 C281 1.418 . S
C278 H257 0.929 . S
C278 C276 1.446 . S
C278 C279 1.332 . S
C279 H259 0.931 . S
C279 C278 1.332 . S
C279 C280 1.267 . S
C280 H248 0.929 . S
C280 C279 1.267 . S
C280 C281 1.251 . S
C281 H251 0.929 . S
C281 N277 1.418 . S
C281 C280 1.251 . S
C282 H249 0.930 . S
C282 C284 1.406 . S
C282 C287 1.261 . S
C283 H250 0.930 . S
C283 N285 1.325 . S
C283 C286 1.357 . S
C284 H252 0.928 . S
C284 C282 1.406 . S
C284 N285 1.261 . S
N285 Co236 2.214 . S
N285 C283 1.325 . S
N285 C284 1.261 . S
C286 H256 0.931 . S
C286 C283 1.357 . S
C286 C287 1.312 . S
C287 H258 0.930 . S
C287 C282 1.261 . S
C287 C286 1.312 . S
C288 O260 1.214 . S
C288 O268 1.234 1_565 S
C289 H261 0.929 . S
C289 C292 1.391 . S
C289 C294 1.391 . S
C290 H262 0.929 . S
C290 C291 1.390 . S
C290 N293 1.391 . S
C291 H263 0.930 . S
C291 C290 1.390 . S
C291 C292 1.392 . S
C292 H264 0.929 . S
C292 C289 1.391 . S
C292 C291 1.392 . S
N293 Co237 2.257 . S
N293 C290 1.391 . S
N293 C294 1.388 . S
C294 H265 0.930 . S
C294 C289 1.391 . S
C294 N293 1.388 . S
Co295 O297 2.143 . S
Co295 O303 2.074 . S
Co295 O306 2.093 1_655 S
Co295 O319 2.097 1_655 S
Co295 N336 2.151 . S
Co295 N344 2.214 . S
Co296 O297 2.160 1_455 S
Co296 O302 2.058 1_455 S
Co296 O312 2.057 1_455 S
Co296 O327 2.037 . S
Co296 N331 2.145 . S
Co296 N352 2.257 . S
O297 Co295 2.143 . S
O297 Co296 2.160 1_655 S
C298 O299 1.278 . S
C298 O306 1.224 . S
O299 C298 1.278 . S
C300 O301 1.245 . S
C300 O312 1.232 . S
O301 C300 1.245 . S
O302 Co296 2.058 1_655 S
O302 C328 1.269 . S
O303 Co295 2.074 . S
O303 C328 1.257 . S
H304 C329 0.930 . S
H305 C335 0.930 . S
O306 Co295 2.093 1_455 S
O306 C298 1.224 . S
H307 C339 0.929 . S
H308 C341 0.930 . S
H309 C342 0.930 . S
H310 C340 0.929 . S
H311 C343 0.928 . S
O312 Co296 2.057 1_655 S
O312 C300 1.232 . S
H313 C332 0.929 . S
H314 C333 0.929 . S
H315 C345 0.931 . S
H316 C337 0.929 . S
H317 C346 0.930 . S
H318 C338 0.931 . S
O319 Co295 2.097 1_455 S
O319 C347 1.214 . S
H320 C348 0.929 . S
H321 C349 0.929 . S
H322 C350 0.930 . S
H323 C351 0.929 . S
H324 C353 0.930 . S
H325 C330 0.930 . S
H326 C334 0.930 . S
O327 Co296 2.037 . S
O327 C347 1.234 . S
C328 O302 1.269 . S
C328 O303 1.257 . S
C329 H304 0.930 . S
C329 C332 1.388 . S
C329 C334 1.418 . S
C330 H325 0.930 . S
C330 C333 1.404 . S
C330 C334 1.353 . S
N331 Co296 2.145 . S
N331 C332 1.397 . S
N331 C333 1.334 . S
C332 H313 0.929 . S
C332 C329 1.388 . S
C332 N331 1.397 . S
C333 H314 0.929 . S
C333 C330 1.404 . S
C333 N331 1.334 . S
C334 H326 0.930 . S
C334 C329 1.418 . S
C334 C330 1.353 . S
C335 H305 0.930 . S
C335 N336 1.330 . S
C335 C337 1.446 . S
N336 Co295 2.151 . S
N336 C335 1.330 . S
N336 C340 1.418 . S
C337 H316 0.929 . S
C337 C335 1.446 . S
C337 C338 1.332 . S
C338 H318 0.931 . S
C338 C337 1.332 . S
C338 C339 1.267 . S
C339 H307 0.929 . S
C339 C338 1.267 . S
C339 C340 1.251 . S
C340 H310 0.929 . S
C340 N336 1.418 . S
C340 C339 1.251 . S
C341 H308 0.930 . S
C341 C343 1.406 . S
C341 C346 1.261 . S
C342 H309 0.930 . S
C342 N344 1.325 . S
C342 C345 1.357 . S
C343 H311 0.928 . S
C343 C341 1.406 . S
C343 N344 1.261 . S
N344 Co295 2.214 . S
N344 C342 1.325 . S
N344 C343 1.261 . S
C345 H315 0.931 . S
C345 C342 1.357 . S
C345 C346 1.312 . S
C346 H317 0.930 . S
C346 C341 1.261 . S
C346 C345 1.312 . S
C347 O319 1.214 . S
C347 O327 1.234 . S
C348 H320 0.929 . S
C348 C351 1.391 . S
C348 C353 1.391 . S
C349 H321 0.929 . S
C349 C350 1.390 . S
C349 N352 1.391 . S
C350 H322 0.930 . S
C350 C349 1.390 . S
C350 C351 1.392 . S
C351 H323 0.929 . S
C351 C348 1.391 . S
C351 C350 1.392 . S
N352 Co296 2.257 . S
N352 C349 1.391 . S
N352 C353 1.388 . S
C353 H324 0.930 . S
C353 C348 1.391 . S
C353 N352 1.388 . S
Co354 O356 2.143 . S
Co354 O362 2.074 . S
Co354 O365 2.093 . S
Co354 O378 2.097 . S
Co354 N395 2.151 . S
Co354 N403 2.214 . S
Co355 O356 2.160 1_565 S
Co355 O361 2.058 . S
Co355 O371 2.057 . S
Co355 O386 2.037 . S
Co355 N390 2.145 . S
Co355 N411 2.257 . S
O356 Co354 2.143 . S
O356 Co355 2.160 1_545 S
C357 O358 1.278 . S
C357 O365 1.224 . S
O358 C357 1.278 . S
C359 O360 1.245 . S
C359 O371 1.232 . S
O360 C359 1.245 . S
O361 Co355 2.058 . S
O361 C387 1.269 . S
O362 Co354 2.074 . S
O362 C387 1.257 1_545 S
H363 C388 0.930 . S
H364 C394 0.930 . S
O365 Co354 2.093 . S
O365 C357 1.224 . S
H366 C398 0.929 . S
H367 C400 0.930 . S
H368 C401 0.930 . S
H369 C399 0.929 . S
H370 C402 0.928 . S
O371 Co355 2.057 . S
O371 C359 1.232 . S
H372 C391 0.929 . S
H373 C392 0.929 . S
H374 C404 0.931 . S
H375 C396 0.929 . S
H376 C405 0.930 . S
H377 C397 0.931 . S
O378 Co354 2.097 . S
O378 C406 1.214 . S
H379 C407 0.929 . S
H380 C408 0.929 . S
H381 C409 0.930 . S
H382 C410 0.929 . S
H383 C412 0.930 . S
H384 C389 0.930 . S
H385 C393 0.930 . S
O386 Co355 2.037 . S
O386 C406 1.234 1_565 S
C387 O361 1.269 . S
C387 O362 1.257 1_565 S
C388 H363 0.930 . S
C388 C391 1.388 . S
C388 C393 1.418 . S
C389 H384 0.930 . S
C389 C392 1.404 . S
C389 C393 1.353 . S
N390 Co355 2.145 . S
N390 C391 1.397 . S
N390 C392 1.334 . S
C391 H372 0.929 . S
C391 C388 1.388 . S
C391 N390 1.397 . S
C392 H373 0.929 . S
C392 C389 1.404 . S
C392 N390 1.334 . S
C393 H385 0.930 . S
C393 C388 1.418 . S
C393 C389 1.353 . S
C394 H364 0.930 . S
C394 N395 1.330 . S
C394 C396 1.446 . S
N395 Co354 2.151 . S
N395 C394 1.330 . S
N395 C399 1.418 . S
C396 H375 0.929 . S
C396 C394 1.446 . S
C396 C397 1.332 . S
C397 H377 0.931 . S
C397 C396 1.332 . S
C397 C398 1.267 . S
C398 H366 0.929 . S
C398 C397 1.267 . S
C398 C399 1.251 . S
C399 H369 0.929 . S
C399 N395 1.418 . S
C399 C398 1.251 . S
C400 H367 0.930 . S
C400 C402 1.406 . S
C400 C405 1.261 . S
C401 H368 0.930 . S
C401 N403 1.325 . S
C401 C404 1.357 . S
C402 H370 0.928 . S
C402 C400 1.406 . S
C402 N403 1.261 . S
N403 Co354 2.214 . S
N403 C401 1.325 . S
N403 C402 1.261 . S
C404 H374 0.931 . S
C404 C401 1.357 . S
C404 C405 1.312 . S
C405 H376 0.930 . S
C405 C400 1.261 . S
C405 C404 1.312 . S
C406 O378 1.214 . S
C406 O386 1.234 1_545 S
C407 H379 0.929 . S
C407 C410 1.391 . S
C407 C412 1.391 . S
C408 H380 0.929 . S
C408 C409 1.390 . S
C408 N411 1.391 . S
C409 H381 0.930 . S
C409 C408 1.390 . S
C409 C410 1.392 . S
C410 H382 0.929 . S
C410 C407 1.391 . S
C410 C409 1.392 . S
N411 Co355 2.257 . S
N411 C408 1.391 . S
N411 C412 1.388 . S
C412 H383 0.930 . S
C412 C407 1.391 . S
C412 N411 1.388 . S
Co413 O415 2.143 . S
Co413 O421 2.074 . S
Co413 O424 2.093 1_655 S
Co413 O437 2.097 1_655 S
Co413 N454 2.151 . S
Co413 N462 2.214 . S
Co414 O415 2.160 1_455 S
Co414 O420 2.058 1_455 S
Co414 O430 2.049 1_455 S
Co414 O445 2.037 . S
Co414 N449 2.145 . S
Co414 N470 2.257 . S
O415 Co413 2.143 . S
O415 Co414 2.160 1_655 S
C416 O417 1.278 . S
C416 O424 1.224 . S
O417 C416 1.278 . S
C418 O419 1.245 . S
C418 O430 1.249 . S
O419 C418 1.245 . S
O420 Co414 2.058 1_655 S
O420 C446 1.269 . S
O421 Co413 2.074 . S
O421 C446 1.257 . S
H422 C447 0.930 . S
H423 C453 0.930 . S
O424 Co413 2.093 1_455 S
O424 C416 1.224 . S
H425 C457 0.929 . S
H426 C459 0.930 . S
H427 C460 0.930 . S
H428 C458 0.929 . S
H429 C461 0.928 . S
O430 Co414 2.049 1_655 S
O430 C418 1.249 . S
H431 C450 0.929 . S
H432 C451 0.929 . S
H433 C463 0.931 . S
H434 C455 0.929 . S
H435 C464 0.930 . S
H436 C456 0.931 . S
O437 Co413 2.097 1_455 S
O437 C465 1.214 . S
H438 C466 0.929 . S
H439 C467 0.929 . S
H440 C468 0.930 . S
H441 C469 0.929 . S
H442 C471 0.930 . S
H443 C448 0.930 . S
H444 C452 0.930 . S
O445 Co414 2.037 . S
O445 C465 1.234 . S
C446 O420 1.269 . S
C446 O421 1.257 . S
C447 H422 0.930 . S
C447 C450 1.388 . S
C447 C452 1.418 . S
C448 H443 0.930 . S
C448 C451 1.404 . S
C448 C452 1.353 . S
N449 Co414 2.145 . S
N449 C450 1.397 . S
N449 C451 1.334 . S
C450 H431 0.929 . S
C450 C447 1.388 . S
C450 N449 1.397 . S
C451 H432 0.929 . S
C451 C448 1.404 . S
C451 N449 1.334 . S
C452 H444 0.930 . S
C452 C447 1.418 . S
C452 C448 1.353 . S
C453 H423 0.930 . S
C453 N454 1.330 . S
C453 C455 1.446 . S
N454 Co413 2.151 . S
N454 C453 1.330 . S
N454 C458 1.418 . S
C455 H434 0.929 . S
C455 C453 1.446 . S
C455 C456 1.332 . S
C456 H436 0.931 . S
C456 C455 1.332 . S
C456 C457 1.267 . S
C457 H425 0.929 . S
C457 C456 1.267 . S
C457 C458 1.251 . S
C458 H428 0.929 . S
C458 N454 1.418 . S
C458 C457 1.251 . S
C459 H426 0.930 . S
C459 C461 1.406 . S
C459 C464 1.261 . S
C460 H427 0.930 . S
C460 N462 1.325 . S
C460 C463 1.357 . S
C461 H429 0.928 . S
C461 C459 1.406 . S
C461 N462 1.261 . S
N462 Co413 2.214 . S
N462 C460 1.325 . S
N462 C461 1.261 . S
C463 H433 0.931 . S
C463 C460 1.357 . S
C463 C464 1.312 . S
C464 H435 0.930 . S
C464 C459 1.261 . S
C464 C463 1.312 . S
C465 O437 1.214 . S
C465 O445 1.234 . S
C466 H438 0.929 . S
C466 C469 1.391 . S
C466 C471 1.391 . S
C467 H439 0.929 . S
C467 C468 1.390 . S
C467 N470 1.391 . S
C468 H440 0.930 . S
C468 C467 1.390 . S
C468 C469 1.392 . S
C469 H441 0.929 . S
C469 C466 1.391 . S
C469 C468 1.392 . S
N470 Co414 2.257 . S
N470 C467 1.391 . S
N470 C471 1.388 . S
C471 H442 0.930 . S
C471 C466 1.391 . S
C471 N470 1.388 . S
Co472 O474 2.143 . S
Co472 O480 2.074 . S
Co472 O483 2.093 1_554 S
Co472 O496 2.097 1_554 S
Co472 N513 2.151 . S
Co472 N521 2.214 . S
Co473 O474 2.160 1_556 S
Co473 O479 2.058 1_556 S
Co473 O489 2.057 1_556 S
Co473 O504 2.037 . S
Co473 N508 2.145 . S
Co473 N529 2.257 . S
O474 Co472 2.143 . S
O474 Co473 2.160 1_554 S
C475 O476 1.278 . S
C475 O483 1.224 . S
O476 C475 1.278 . S
C477 O478 1.245 . S
C477 O489 1.232 . S
O478 C477 1.245 . S
O479 Co473 2.058 1_554 S
O479 C505 1.269 . S
O480 Co472 2.074 . S
O480 C505 1.257 . S
H481 C506 0.930 . S
H482 C512 0.930 . S
O483 Co472 2.093 1_556 S
O483 C475 1.224 . S
H484 C516 0.929 . S
H485 C518 0.930 . S
H486 C519 0.930 . S
H487 C517 0.929 . S
H488 C520 0.928 . S
O489 Co473 2.057 1_554 S
O489 C477 1.232 . S
H490 C509 0.929 . S
H491 C510 0.929 . S
H492 C522 0.931 . S
H493 C514 0.929 . S
H494 C523 0.930 . S
H495 C515 0.931 . S
O496 Co472 2.097 1_556 S
O496 C524 1.214 . S
H497 C525 0.929 . S
H498 C526 0.929 . S
H499 C527 0.930 . S
H500 C528 0.929 . S
H501 C530 0.930 . S
H502 C507 0.930 . S
H503 C511 0.930 . S
O504 Co473 2.037 . S
O504 C524 1.234 . S
C505 O479 1.269 . S
C505 O480 1.257 . S
C506 H481 0.930 . S
C506 C509 1.388 . S
C506 C511 1.418 . S
C507 H502 0.930 . S
C507 C510 1.404 . S
C507 C511 1.353 . S
N508 Co473 2.145 . S
N508 C509 1.397 . S
N508 C510 1.334 . S
C509 H490 0.929 . S
C509 C506 1.388 . S
C509 N508 1.397 . S
C510 H491 0.929 . S
C510 C507 1.404 . S
C510 N508 1.334 . S
C511 H503 0.930 . S
C511 C506 1.418 . S
C511 C507 1.353 . S
C512 H482 0.930 . S
C512 N513 1.330 . S
C512 C514 1.446 . S
N513 Co472 2.151 . S
N513 C512 1.330 . S
N513 C517 1.418 . S
C514 H493 0.929 . S
C514 C512 1.446 . S
C514 C515 1.332 . S
C515 H495 0.931 . S
C515 C514 1.332 . S
C515 C516 1.267 . S
C516 H484 0.929 . S
C516 C515 1.267 . S
C516 C517 1.251 . S
C517 H487 0.929 . S
C517 N513 1.418 . S
C517 C516 1.251 . S
C518 H485 0.930 . S
C518 C520 1.406 . S
C518 C523 1.261 . S
C519 H486 0.930 . S
C519 N521 1.325 . S
C519 C522 1.357 . S
C520 H488 0.928 . S
C520 C518 1.406 . S
C520 N521 1.261 . S
N521 Co472 2.214 . S
N521 C519 1.325 . S
N521 C520 1.261 . S
C522 H492 0.931 . S
C522 C519 1.357 . S
C522 C523 1.312 . S
C523 H494 0.930 . S
C523 C518 1.261 . S
C523 C522 1.312 . S
C524 O496 1.214 . S
C524 O504 1.234 . S
C525 H497 0.929 . S
C525 C528 1.391 . S
C525 C530 1.391 . S
C526 H498 0.929 . S
C526 C527 1.390 . S
C526 N529 1.391 . S
C527 H499 0.930 . S
C527 C526 1.390 . S
C527 C528 1.392 . S
C528 H500 0.929 . S
C528 C525 1.391 . S
C528 C527 1.392 . S
N529 Co473 2.257 . S
N529 C526 1.391 . S
N529 C530 1.388 . S
C530 H501 0.930 . S
C530 C525 1.391 . S
C530 N529 1.388 . S
Co531 O533 2.143 . S
Co531 O539 2.074 . S
Co531 O542 2.093 . S
Co531 O555 2.097 . S
Co531 N572 2.151 . S
Co531 N580 2.214 . S
Co532 O533 2.160 1_554 S
Co532 O538 2.058 . S
Co532 O548 2.057 . S
Co532 O563 2.037 . S
Co532 N567 2.145 . S
Co532 N588 2.257 . S
O533 Co531 2.143 . S
O533 Co532 2.160 1_556 S
C534 O535 1.278 . S
C534 O542 1.224 . S
O535 C534 1.278 . S
C536 O537 1.245 . S
C536 O548 1.232 . S
O537 C536 1.245 . S
O538 Co532 2.058 . S
O538 C564 1.269 . S
O539 Co531 2.074 . S
O539 C564 1.257 1_556 S
H540 C565 0.930 . S
H541 C571 0.930 . S
O542 Co531 2.093 . S
O542 C534 1.224 . S
H543 C575 0.929 . S
H544 C577 0.930 . S
H545 C578 0.930 . S
H546 C576 0.929 . S
H547 C579 0.928 . S
O548 Co532 2.057 . S
O548 C536 1.232 . S
H549 C568 0.929 . S
H550 C569 0.929 . S
H551 C581 0.931 . S
H552 C573 0.929 . S
H553 C582 0.930 . S
H554 C574 0.931 . S
O555 Co531 2.097 . S
O555 C583 1.214 . S
H556 C584 0.929 . S
H557 C585 0.929 . S
H558 C586 0.930 . S
H559 C587 0.929 . S
H560 C589 0.930 . S
H561 C566 0.930 . S
H562 C570 0.930 . S
O563 Co532 2.037 . S
O563 C583 1.234 1_554 S
C564 O538 1.269 . S
C564 O539 1.257 1_554 S
C565 H540 0.930 . S
C565 C568 1.388 . S
C565 C570 1.418 . S
C566 H561 0.930 . S
C566 C569 1.404 . S
C566 C570 1.353 . S
N567 Co532 2.145 . S
N567 C568 1.397 . S
N567 C569 1.334 . S
C568 H549 0.929 . S
C568 C565 1.388 . S
C568 N567 1.397 . S
C569 H550 0.929 . S
C569 C566 1.404 . S
C569 N567 1.334 . S
C570 H562 0.930 . S
C570 C565 1.418 . S
C570 C566 1.353 . S
C571 H541 0.930 . S
C571 N572 1.330 . S
C571 C573 1.446 . S
N572 Co531 2.151 . S
N572 C571 1.330 . S
N572 C576 1.418 . S
C573 H552 0.929 . S
C573 C571 1.446 . S
C573 C574 1.332 . S
C574 H554 0.931 . S
C574 C573 1.332 . S
C574 C575 1.267 . S
C575 H543 0.929 . S
C575 C574 1.267 . S
C575 C576 1.251 . S
C576 H546 0.929 . S
C576 N572 1.418 . S
C576 C575 1.251 . S
C577 H544 0.930 . S
C577 C579 1.406 . S
C577 C582 1.261 . S
C578 H545 0.930 . S
C578 N580 1.325 . S
C578 C581 1.357 . S
C579 H547 0.928 . S
C579 C577 1.406 . S
C579 N580 1.261 . S
N580 Co531 2.214 . S
N580 C578 1.325 . S
N580 C579 1.261 . S
C581 H551 0.931 . S
C581 C578 1.357 . S
C581 C582 1.312 . S
C582 H553 0.930 . S
C582 C577 1.261 . S
C582 C581 1.312 . S
C583 O555 1.214 . S
C583 O563 1.234 1_556 S
C584 H556 0.929 . S
C584 C587 1.391 . S
C584 C589 1.391 . S
C585 H557 0.929 . S
C585 C586 1.390 . S
C585 N588 1.391 . S
C586 H558 0.930 . S
C586 C585 1.390 . S
C586 C587 1.392 . S
C587 H559 0.929 . S
C587 C584 1.391 . S
C587 C586 1.392 . S
N588 Co532 2.257 . S
N588 C585 1.391 . S
N588 C589 1.388 . S
C589 H560 0.930 . S
C589 C584 1.391 . S
C589 N588 1.388 . S
Co590 O592 2.143 . S
Co590 O598 2.074 . S
Co590 O601 2.093 1_554 S
Co590 O614 2.097 1_554 S
Co590 N631 2.151 . S
Co590 N639 2.214 . S
Co591 O592 2.160 1_556 S
Co591 O597 2.058 1_556 S
Co591 O607 2.057 1_556 S
Co591 O622 2.037 . S
Co591 N626 2.145 . S
Co591 N647 2.257 . S
O592 Co590 2.143 . S
O592 Co591 2.160 1_554 S
C593 O594 1.278 . S
C593 O601 1.224 . S
O594 C593 1.278 . S
C595 O596 1.245 . S
C595 O607 1.232 . S
O596 C595 1.245 . S
O597 Co591 2.058 1_554 S
O597 C623 1.269 . S
O598 Co590 2.074 . S
O598 C623 1.257 . S
H599 C624 0.930 . S
H600 C630 0.930 . S
O601 Co590 2.093 1_556 S
O601 C593 1.224 . S
H602 C634 0.929 . S
H603 C636 0.930 . S
H604 C637 0.930 . S
H605 C635 0.929 . S
H606 C638 0.928 . S
O607 Co591 2.057 1_554 S
O607 C595 1.232 . S
H608 C627 0.929 . S
H609 C628 0.929 . S
H610 C640 0.931 . S
H611 C632 0.929 . S
H612 C641 0.930 . S
H613 C633 0.931 . S
O614 Co590 2.097 1_556 S
O614 C642 1.214 . S
H615 C643 0.929 . S
H616 C644 0.929 . S
H617 C645 0.930 . S
H618 C646 0.929 . S
H619 C648 0.930 . S
H620 C625 0.930 . S
H621 C629 0.930 . S
O622 Co591 2.037 . S
O622 C642 1.234 . S
C623 O597 1.269 . S
C623 O598 1.257 . S
C624 H599 0.930 . S
C624 C627 1.388 . S
C624 C629 1.418 . S
C625 H620 0.930 . S
C625 C628 1.404 . S
C625 C629 1.353 . S
N626 Co591 2.145 . S
N626 C627 1.397 . S
N626 C628 1.334 . S
C627 H608 0.929 . S
C627 C624 1.388 . S
C627 N626 1.397 . S
C628 H609 0.929 . S
C628 C625 1.404 . S
C628 N626 1.334 . S
C629 H621 0.930 . S
C629 C624 1.418 . S
C629 C625 1.353 . S
C630 H600 0.930 . S
C630 N631 1.330 . S
C630 C632 1.446 . S
N631 Co590 2.151 . S
N631 C630 1.330 . S
N631 C635 1.418 . S
C632 H611 0.929 . S
C632 C630 1.446 . S
C632 C633 1.332 . S
C633 H613 0.931 . S
C633 C632 1.332 . S
C633 C634 1.267 . S
C634 H602 0.929 . S
C634 C633 1.267 . S
C634 C635 1.251 . S
C635 H605 0.929 . S
C635 N631 1.418 . S
C635 C634 1.251 . S
C636 H603 0.930 . S
C636 C638 1.406 . S
C636 C641 1.261 . S
C637 H604 0.930 . S
C637 N639 1.325 . S
C637 C640 1.357 . S
C638 H606 0.928 . S
C638 C636 1.406 . S
C638 N639 1.261 . S
N639 Co590 2.214 . S
N639 C637 1.325 . S
N639 C638 1.261 . S
C640 H610 0.931 . S
C640 C637 1.357 . S
C640 C641 1.312 . S
C641 H612 0.930 . S
C641 C636 1.261 . S
C641 C640 1.312 . S
C642 O614 1.214 . S
C642 O622 1.234 . S
C643 H615 0.929 . S
C643 C646 1.391 . S
C643 C648 1.391 . S
C644 H616 0.929 . S
C644 C645 1.390 . S
C644 N647 1.391 . S
C645 H617 0.930 . S
C645 C644 1.390 . S
C645 C646 1.392 . S
C646 H618 0.929 . S
C646 C643 1.391 . S
C646 C645 1.392 . S
N647 Co591 2.257 . S
N647 C644 1.391 . S
N647 C648 1.388 . S
C648 H619 0.930 . S
C648 C643 1.391 . S
C648 N647 1.388 . S
Co649 O651 2.143 . S
Co649 O657 2.074 . S
Co649 O660 2.093 . S
Co649 O673 2.097 . S
Co649 N690 2.151 . S
Co649 N698 2.214 . S
Co650 O651 2.160 1_556 S
Co650 O656 2.058 . S
Co650 O666 2.057 . S
Co650 O681 2.037 . S
Co650 N685 2.145 . S
Co650 N706 2.257 . S
O651 Co649 2.143 . S
O651 Co650 2.160 1_554 S
C652 O653 1.278 . S
C652 O660 1.224 . S
O653 C652 1.278 . S
C654 O655 1.245 . S
C654 O666 1.232 . S
O655 C654 1.245 . S
O656 Co650 2.058 . S
O656 C682 1.269 . S
O657 Co649 2.074 . S
O657 C682 1.257 1_554 S
H658 C683 0.930 . S
H659 C689 0.930 . S
O660 Co649 2.093 . S
O660 C652 1.224 . S
H661 C693 0.929 . S
H662 C695 0.930 . S
H663 C696 0.930 . S
H664 C694 0.929 . S
H665 C697 0.928 . S
O666 Co650 2.057 . S
O666 C654 1.232 . S
H667 C686 0.929 . S
H668 C687 0.929 . S
H669 C699 0.931 . S
H670 C691 0.929 . S
H671 C700 0.930 . S
H672 C692 0.931 . S
O673 Co649 2.097 . S
O673 C701 1.214 . S
H674 C702 0.929 . S
H675 C703 0.929 . S
H676 C704 0.930 . S
H677 C705 0.929 . S
H678 C707 0.930 . S
H679 C684 0.930 . S
H680 C688 0.930 . S
O681 Co650 2.037 . S
O681 C701 1.234 1_556 S
C682 O656 1.269 . S
C682 O657 1.257 1_556 S
C683 H658 0.930 . S
C683 C686 1.388 . S
C683 C688 1.418 . S
C684 H679 0.930 . S
C684 C687 1.404 . S
C684 C688 1.353 . S
N685 Co650 2.145 . S
N685 C686 1.397 . S
N685 C687 1.334 . S
C686 H667 0.929 . S
C686 C683 1.388 . S
C686 N685 1.397 . S
C687 H668 0.929 . S
C687 C684 1.404 . S
C687 N685 1.334 . S
C688 H680 0.930 . S
C688 C683 1.418 . S
C688 C684 1.353 . S
C689 H659 0.930 . S
C689 N690 1.330 . S
C689 C691 1.446 . S
N690 Co649 2.151 . S
N690 C689 1.330 . S
N690 C694 1.418 . S
C691 H670 0.929 . S
C691 C689 1.446 . S
C691 C692 1.332 . S
C692 H672 0.931 . S
C692 C691 1.332 . S
C692 C693 1.267 . S
C693 H661 0.929 . S
C693 C692 1.267 . S
C693 C694 1.251 . S
C694 H664 0.929 . S
C694 N690 1.418 . S
C694 C693 1.251 . S
C695 H662 0.930 . S
C695 C697 1.406 . S
C695 C700 1.261 . S
C696 H663 0.930 . S
C696 N698 1.325 . S
C696 C699 1.357 . S
C697 H665 0.928 . S
C697 C695 1.406 . S
C697 N698 1.261 . S
N698 Co649 2.214 . S
N698 C696 1.325 . S
N698 C697 1.261 . S
C699 H669 0.931 . S
C699 C696 1.357 . S
C699 C700 1.312 . S
C700 H671 0.930 . S
C700 C695 1.261 . S
C700 C699 1.312 . S
C701 O673 1.214 . S
C701 O681 1.234 1_554 S
C702 H674 0.929 . S
C702 C705 1.391 . S
C702 C707 1.391 . S
C703 H675 0.929 . S
C703 C704 1.390 . S
C703 N706 1.391 . S
C704 H676 0.930 . S
C704 C703 1.390 . S
C704 C705 1.392 . S
C705 H677 0.929 . S
C705 C702 1.391 . S
C705 C704 1.392 . S
N706 Co650 2.257 . S
N706 C703 1.391 . S
N706 C707 1.388 . S
C707 H678 0.930 . S
C707 C702 1.391 . S
C707 N706 1.388 . S
C708 C709 1.363 1_655 S
C708 C714 1.379 . S
C708 N716 1.356 . S
C709 C708 1.363 1_455 S
C709 C715 1.363 . S
C710 C711 1.363 1_455 S
C710 C715 1.379 . S
C710 N717 1.356 . S
C711 C710 1.363 1_655 S
C711 C714 1.363 . S
N712 C714 1.356 . S
N712 H724 0.984 . S
N712 H725 0.985 . S
N713 C715 1.356 . S
N713 H718 0.984 . S
N713 H719 0.985 . S
C714 C708 1.379 . S
C714 C711 1.363 . S
C714 N712 1.356 . S
C715 C709 1.363 . S
C715 C710 1.379 . S
C715 N713 1.356 . S
N716 C708 1.356 . S
N716 H722 0.984 . S
N716 H723 0.984 . S
N717 C710 1.356 . S
N717 H720 0.984 . S
N717 H721 0.985 . S
H718 N713 0.984 . S
H719 N713 0.985 . S
H720 N717 0.984 . S
H721 N717 0.985 . S
H722 N716 0.984 . S
H723 N716 0.984 . S
H724 N712 0.984 . S
H725 N712 0.985 . S
C726 C727 1.363 1_565 S
C726 C732 1.379 . S
C726 N734 1.356 . S
C727 C726 1.363 1_545 S
C727 C733 1.363 . S
C728 C729 1.363 1_545 S
C728 C733 1.379 . S
C728 N735 1.356 . S
C729 C728 1.363 1_565 S
C729 C732 1.363 . S
N730 C732 1.356 . S
N730 H742 0.984 . S
N730 H743 0.985 . S
N731 C733 1.356 . S
N731 H736 0.984 . S
N731 H737 0.985 . S
C732 C726 1.379 . S
C732 C729 1.363 . S
C732 N730 1.356 . S
C733 C727 1.363 . S
C733 C728 1.379 . S
C733 N731 1.356 . S
N734 C726 1.356 . S
N734 H740 0.984 . S
N734 H741 0.984 . S
N735 C728 1.356 . S
N735 H738 0.984 . S
N735 H739 0.985 . S
H736 N731 0.984 . S
H737 N731 0.985 . S
H738 N735 0.984 . S
H739 N735 0.985 . S
H740 N734 0.984 . S
H741 N734 0.984 . S
H742 N730 0.984 . S
H743 N730 0.985 . S
C744 C745 1.363 . S
C744 C750 1.379 . S
C744 N752 1.356 . S
C745 C744 1.363 . S
C745 C751 1.363 1_455 S
C746 C747 1.363 . S
C746 C751 1.379 . S
C746 N753 1.356 . S
C747 C746 1.363 . S
C747 C750 1.363 1_655 S
N748 C750 1.356 . S
N748 H760 0.984 . S
N748 H761 0.985 1_455 S
N749 C751 1.356 . S
N749 H754 0.984 1_655 S
N749 H755 0.985 . S
C750 C744 1.379 . S
C750 C747 1.363 1_455 S
C750 N748 1.356 . S
C751 C745 1.363 1_655 S
C751 C746 1.379 . S
C751 N749 1.356 . S
N752 C744 1.356 . S
N752 H758 0.984 . S
N752 H759 0.984 . S
N753 C746 1.356 . S
N753 H756 0.984 . S
N753 H757 0.985 . S
H754 N749 0.984 1_455 S
H755 N749 0.985 . S
H756 N753 0.984 . S
H757 N753 0.985 . S
H758 N752 0.984 . S
H759 N752 0.984 . S
H760 N748 0.984 . S
H761 N748 0.985 1_655 S
C762 C763 1.363 . S
C762 C768 1.379 . S
C762 N770 1.356 . S
C763 C762 1.363 . S
C763 C769 1.363 1_565 S
C764 C765 1.363 . S
C764 C769 1.379 . S
C764 N771 1.356 . S
C765 C764 1.363 . S
C765 C768 1.363 1_545 S
N766 C768 1.356 . S
N766 H778 0.984 . S
N766 H779 0.985 1_565 S
N767 C769 1.356 . S
N767 H772 0.984 1_545 S
N767 H773 0.985 . S
C768 C762 1.379 . S
C768 C765 1.363 1_565 S
C768 N766 1.356 . S
C769 C763 1.363 1_545 S
C769 C764 1.379 . S
C769 N767 1.356 . S
N770 C762 1.356 . S
N770 H776 0.984 . S
N770 H777 0.984 . S
N771 C764 1.356 . S
N771 H774 0.984 . S
N771 H775 0.985 . S
H772 N767 0.984 1_565 S
H773 N767 0.985 . S
H774 N771 0.984 . S
H775 N771 0.985 . S
H776 N770 0.984 . S
H777 N770 0.984 . S
H778 N766 0.984 . S
H779 N766 0.985 1_545 S
C780 C781 1.363 1_455 S
C780 C786 1.379 . S
C780 N788 1.356 . S
C781 C780 1.363 1_655 S
C781 C787 1.363 . S
C782 C783 1.363 1_655 S
C782 C787 1.379 . S
C782 N789 1.356 . S
C783 C782 1.363 1_455 S
C783 C786 1.363 . S
N784 C786 1.356 . S
N784 H796 0.984 . S
N784 H797 0.985 . S
N785 C787 1.356 . S
N785 H790 0.984 . S
N785 H791 0.985 . S
C786 C780 1.379 . S
C786 C783 1.363 . S
C786 N784 1.356 . S
C787 C781 1.363 . S
C787 C782 1.379 . S
C787 N785 1.356 . S
N788 C780 1.356 . S
N788 H794 0.984 . S
N788 H795 0.984 . S
N789 C782 1.356 . S
N789 H792 0.984 . S
N789 H793 0.985 . S
H790 N785 0.984 . S
H791 N785 0.985 . S
H792 N789 0.984 . S
H793 N789 0.985 . S
H794 N788 0.984 . S
H795 N788 0.984 . S
H796 N784 0.984 . S
H797 N784 0.985 . S
C798 C799 1.363 1_545 S
C798 C804 1.379 . S
C798 N806 1.356 . S
C799 C798 1.363 1_565 S
C799 C805 1.363 . S
C800 C801 1.363 1_565 S
C800 C805 1.379 . S
C800 N807 1.356 . S
C801 C800 1.363 1_545 S
C801 C804 1.363 . S
N802 C804 1.356 . S
N802 H814 0.984 . S
N802 H815 0.985 . S
N803 C805 1.356 . S
N803 H808 0.984 . S
N803 H809 0.985 . S
C804 C798 1.379 . S
C804 C801 1.363 . S
C804 N802 1.356 . S
C805 C799 1.363 . S
C805 C800 1.379 . S
C805 N803 1.356 . S
N806 C798 1.356 . S
N806 H812 0.984 . S
N806 H813 0.984 . S
N807 C800 1.356 . S
N807 H810 0.984 . S
N807 H811 0.985 . S
H808 N803 0.984 . S
H809 N803 0.985 . S
H810 N807 0.984 . S
H811 N807 0.985 . S
H812 N806 0.984 . S
H813 N806 0.984 . S
H814 N802 0.984 . S
H815 N802 0.985 . S
C816 C817 1.363 1_455 S
C816 C822 1.379 . S
C816 N824 1.356 . S
C817 C816 1.363 1_655 S
C817 C823 1.363 . S
C818 C819 1.363 1_655 S
C818 C823 1.379 . S
C818 N825 1.356 . S
C819 C818 1.363 1_455 S
C819 C822 1.363 . S
N820 C822 1.356 . S
N820 H832 0.984 . S
N820 H833 0.985 . S
N821 C823 1.356 . S
N821 H826 0.984 . S
N821 H827 0.985 . S
C822 C816 1.379 . S
C822 C819 1.363 . S
C822 N820 1.356 . S
C823 C817 1.363 . S
C823 C818 1.379 . S
C823 N821 1.356 . S
N824 C816 1.356 . S
N824 H830 0.984 . S
N824 H831 0.984 . S
N825 C818 1.356 . S
N825 H828 0.984 . S
N825 H829 0.985 . S
H826 N821 0.984 . S
H827 N821 0.985 . S
H828 N825 0.984 . S
H829 N825 0.985 . S
H830 N824 0.984 . S
H831 N824 0.984 . S
H832 N820 0.984 . S
H833 N820 0.985 . S
C834 C835 1.363 1_565 S
C834 C840 1.379 . S
C834 N842 1.356 . S
C835 C834 1.363 1_545 S
C835 C841 1.363 . S
C836 C837 1.363 1_545 S
C836 C841 1.379 . S
C836 N843 1.356 . S
C837 C836 1.363 1_565 S
C837 C840 1.363 . S
N838 C840 1.356 . S
N838 H850 0.984 . S
N838 H851 0.985 . S
N839 C841 1.356 . S
N839 H844 0.984 . S
N839 H845 0.985 . S
C840 C834 1.379 . S
C840 C837 1.363 . S
C840 N838 1.356 . S
C841 C835 1.363 . S
C841 C836 1.379 . S
C841 N839 1.356 . S
N842 C834 1.356 . S
N842 H848 0.984 . S
N842 H849 0.984 1_565 S
N843 C836 1.356 . S
N843 H846 0.984 1_545 S
N843 H847 0.985 . S
H844 N839 0.984 . S
H845 N839 0.985 . S
H846 N843 0.984 1_565 S
H847 N843 0.985 . S
H848 N842 0.984 . S
H849 N842 0.984 1_545 S
H850 N838 0.984 . S
H851 N838 0.985 . S
C852 C853 1.363 1_554 S
C852 C858 1.379 . S
C852 N860 1.356 . S
C853 C852 1.363 1_556 S
C853 C859 1.363 . S
C854 C855 1.363 1_556 S
C854 C859 1.379 . S
C854 N861 1.356 . S
C855 C854 1.363 1_554 S
C855 C858 1.363 . S
N856 C858 1.356 . S
N856 H868 0.984 . S
N856 H869 0.985 . S
N857 C859 1.356 . S
N857 H862 0.984 . S
N857 H863 0.985 . S
C858 C852 1.379 . S
C858 C855 1.363 . S
C858 N856 1.356 . S
C859 C853 1.363 . S
C859 C854 1.379 . S
C859 N857 1.356 . S
N860 C852 1.356 . S
N860 H866 0.984 . S
N860 H867 0.984 . S
N861 C854 1.356 . S
N861 H864 0.984 . S
N861 H865 0.985 . S
H862 N857 0.984 . S
H863 N857 0.985 . S
H864 N861 0.984 . S
H865 N861 0.985 . S
H866 N860 0.984 . S
H867 N860 0.984 . S
H868 N856 0.984 . S
H869 N856 0.985 . S
C870 C871 1.363 . S
C870 C876 1.379 . S
C870 N878 1.356 . S
C871 C870 1.363 . S
C871 C877 1.363 1_556 S
C872 C873 1.363 . S
C872 C877 1.379 . S
C872 N879 1.356 . S
C873 C872 1.363 . S
C873 C876 1.363 1_554 S
N874 C876 1.356 . S
N874 H886 0.984 . S
N874 H887 0.985 . S
N875 C877 1.356 . S
N875 H880 0.984 . S
N875 H881 0.985 . S
C876 C870 1.379 . S
C876 C873 1.363 1_556 S
C876 N874 1.356 . S
C877 C871 1.363 1_554 S
C877 C872 1.379 . S
C877 N875 1.356 . S
N878 C870 1.356 . S
N878 H884 0.984 . S
N878 H885 0.984 . S
N879 C872 1.356 . S
N879 H882 0.984 . S
N879 H883 0.985 . S
H880 N875 0.984 . S
H881 N875 0.985 . S
H882 N879 0.984 . S
H883 N879 0.985 . S
H884 N878 0.984 . S
H885 N878 0.984 . S
H886 N874 0.984 . S
H887 N874 0.985 . S
C888 C889 1.363 1_556 S
C888 C894 1.379 . S
C888 N896 1.356 . S
C889 C888 1.363 1_554 S
C889 C895 1.363 . S
C890 C891 1.363 1_554 S
C890 C895 1.379 . S
C890 N897 1.356 . S
C891 C890 1.363 1_556 S
C891 C894 1.363 . S
N892 C894 1.356 . S
N892 H904 0.984 . S
N892 H905 0.985 . S
N893 C895 1.356 . S
N893 H898 0.984 . S
N893 H899 0.985 . S
C894 C888 1.379 . S
C894 C891 1.363 . S
C894 N892 1.356 . S
C895 C889 1.363 . S
C895 C890 1.379 . S
C895 N893 1.356 . S
N896 C888 1.356 . S
N896 H902 0.984 . S
N896 H903 0.984 . S
N897 C890 1.356 . S
N897 H900 0.984 . S
N897 H901 0.985 . S
H898 N893 0.984 . S
H899 N893 0.985 . S
H900 N897 0.984 . S
H901 N897 0.985 . S
H902 N896 0.984 . S
H903 N896 0.984 . S
H904 N892 0.984 . S
H905 N892 0.985 . S
C906 C907 1.363 1_556 S
C906 C912 1.379 . S
C906 N914 1.356 . S
C907 C906 1.363 1_554 S
C907 C913 1.363 . S
C908 C909 1.363 1_554 S
C908 C913 1.379 . S
C908 N915 1.356 . S
C909 C908 1.363 1_556 S
C909 C912 1.363 . S
N910 C912 1.356 . S
N910 H922 0.984 . S
N910 H923 0.985 . S
N911 C913 1.356 . S
N911 H916 0.984 . S
N911 H917 0.985 . S
C912 C906 1.379 . S
C912 C909 1.363 . S
C912 N910 1.356 . S
C913 C907 1.363 . S
C913 C908 1.379 . S
C913 N911 1.356 . S
N914 C906 1.356 . S
N914 H920 0.984 . S
N914 H921 0.978 1_556 S
N915 C908 1.356 . S
N915 H918 0.984 . S
N915 H919 0.985 . S
H916 N911 0.984 . S
H917 N911 0.985 . S
H918 N915 0.984 . S
H919 N915 0.985 . S
H920 N914 0.984 . S
H921 N914 0.978 1_554 S
H922 N910 0.984 . S
H923 N910 0.985 . S
C924 C925 1.363 . S
C924 C930 1.379 . S
C924 N932 1.356 . S
C925 C924 1.363 . S
C925 C931 1.363 . S
C926 C927 1.363 . S
C926 C931 1.379 . S
C926 N933 1.356 . S
C927 C926 1.363 . S
C927 C930 1.363 . S
N928 C930 1.356 . S
N928 H940 0.984 . S
N928 H941 0.985 . S
N929 C931 1.356 . S
N929 H934 0.984 . S
N929 H935 0.985 . S
C930 C924 1.379 . S
C930 C927 1.363 . S
C930 N928 1.356 . S
C931 C925 1.363 . S
C931 C926 1.379 . S
C931 N929 1.356 . S
N932 C924 1.356 . S
N932 H938 0.984 . S
N932 H939 0.984 . S
N933 C926 1.356 . S
N933 H936 0.984 . S
N933 H937 0.985 . S
H934 N929 0.984 . S
H935 N929 0.985 . S
H936 N933 0.984 . S
H937 N933 0.985 . S
H938 N932 0.984 . S
H939 N932 0.984 . S
H940 N928 0.984 . S
H941 N928 0.985 . S
C942 C943 1.363 . S
C942 C948 1.379 . S
C942 N950 1.356 . S
C943 C942 1.363 . S
C943 C949 1.363 . S
C944 C945 1.363 . S
C944 C949 1.379 . S
C944 N951 1.356 . S
C945 C944 1.363 . S
C945 C948 1.363 . S
N946 C948 1.356 . S
N946 H958 0.984 . S
N946 H959 0.985 . S
N947 C949 1.356 . S
N947 H952 0.984 . S
N947 H953 0.985 . S
C948 C942 1.379 . S
C948 C945 1.363 . S
C948 N946 1.356 . S
C949 C943 1.363 . S
C949 C944 1.379 . S
C949 N947 1.356 . S
N950 C942 1.356 . S
N950 H956 0.984 . S
N950 H957 0.984 . S
N951 C944 1.356 . S
N951 H954 0.984 . S
N951 H955 0.985 . S
H952 N947 0.984 . S
H953 N947 0.985 . S
H954 N951 0.984 . S
H955 N951 0.985 . S
H956 N950 0.984 . S
H957 N950 0.984 . S
H958 N946 0.984 . S
H959 N946 0.985 . S
C960 C961 1.363 . S
C960 C966 1.379 . S
C960 N968 1.356 . S
C961 C960 1.363 . S
C961 C967 1.363 . S
C962 C963 1.363 . S
C962 C967 1.379 . S
C962 N969 1.356 . S
C963 C962 1.363 . S
C963 C966 1.363 . S
N964 C966 1.356 . S
N964 H976 0.984 . S
N964 H977 0.985 . S
N965 C967 1.356 . S
N965 H970 0.984 . S
N965 H971 0.985 . S
C966 C960 1.379 . S
C966 C963 1.363 . S
C966 N964 1.356 . S
C967 C961 1.363 . S
C967 C962 1.379 . S
C967 N965 1.356 . S
N968 C960 1.356 . S
N968 H974 0.984 . S
N968 H975 0.984 . S
N969 C962 1.356 . S
N969 H972 0.984 . S
N969 H973 0.985 . S
H970 N965 0.984 . S
H971 N965 0.985 . S
H972 N969 0.984 . S
H973 N969 0.985 . S
H974 N968 0.984 . S
H975 N968 0.984 . S
H976 N964 0.984 . S
H977 N964 0.985 . S
C978 C979 1.363 . S
C978 C984 1.379 . S
C978 N986 1.356 . S
C979 C978 1.363 . S
C979 C985 1.363 . S
C980 C981 1.363 . S
C980 C985 1.379 . S
C980 N987 1.356 . S
C981 C980 1.363 . S
C981 C984 1.363 . S
N982 C984 1.356 . S
N982 H994 0.984 . S
N982 H995 0.985 . S
N983 C985 1.356 . S
N983 H988 0.984 . S
N983 H989 0.985 . S
C984 C978 1.379 . S
C984 C981 1.363 . S
C984 N982 1.356 . S
C985 C979 1.363 . S
C985 C980 1.379 . S
C985 N983 1.356 . S
N986 C978 1.356 . S
N986 H992 0.984 . S
N986 H993 0.984 . S
N987 C980 1.356 . S
N987 H990 0.984 . S
N987 H991 0.985 . S
H988 N983 0.984 . S
H989 N983 0.985 . S
H990 N987 0.984 . S
H991 N987 0.985 . S
H992 N986 0.984 . S
H993 N986 0.984 . S
H994 N982 0.984 . S
H995 N982 0.985 . S
C996 C997 1.363 . S
C996 C1002 1.379 . S
C996 N1004 1.356 . S
C997 C996 1.363 . S
C997 C1003 1.363 . S
C998 C999 1.363 . S
C998 C1003 1.379 . S
C998 N1005 1.356 . S
C999 C998 1.363 . S
C999 C1002 1.363 . S
N1000 C1002 1.356 . S
N1000 H1012 0.984 . S
N1000 H1013 0.985 . S
N1001 C1003 1.356 . S
N1001 H1006 0.984 . S
N1001 H1007 0.985 . S
C1002 C996 1.379 . S
C1002 C999 1.363 . S
C1002 N1000 1.356 . S
C1003 C997 1.363 . S
C1003 C998 1.379 . S
C1003 N1001 1.356 . S
N1004 C996 1.356 . S
N1004 H1010 0.984 . S
N1004 H1011 0.984 . S
N1005 C998 1.356 . S
N1005 H1008 0.984 . S
N1005 H1009 0.985 . S
H1006 N1001 0.984 . S
H1007 N1001 0.985 . S
H1008 N1005 0.984 . S
H1009 N1005 0.985 . S
H1010 N1004 0.984 . S
H1011 N1004 0.984 . S
H1012 N1000 0.984 . S
H1013 N1000 0.985 . S
C1014 C1015 1.363 . S
C1014 C1020 1.379 . S
C1014 N1022 1.356 . S
C1015 C1014 1.363 . S
C1015 C1021 1.363 . S
C1016 C1017 1.363 . S
C1016 C1021 1.379 . S
C1016 N1023 1.356 . S
C1017 C1016 1.363 . S
C1017 C1020 1.363 . S
N1018 C1020 1.356 . S
N1018 H1030 0.984 . S
N1018 H1031 0.985 . S
N1019 C1021 1.356 . S
N1019 H1024 0.984 . S
N1019 H1025 0.985 . S
C1020 C1014 1.379 . S
C1020 C1017 1.363 . S
C1020 N1018 1.356 . S
C1021 C1015 1.363 . S
C1021 C1016 1.379 . S
C1021 N1019 1.356 . S
N1022 C1014 1.356 . S
N1022 H1028 0.984 . S
N1022 H1029 0.984 . S
N1023 C1016 1.356 . S
N1023 H1026 0.984 . S
N1023 H1027 0.985 . S
H1024 N1019 0.984 . S
H1025 N1019 0.985 . S
H1026 N1023 0.984 . S
H1027 N1023 0.985 . S
H1028 N1022 0.984 . S
H1029 N1022 0.984 . S
H1030 N1018 0.984 . S
H1031 N1018 0.985 . S
C1032 C1033 1.363 . S
C1032 C1038 1.379 . S
C1032 N1040 1.356 . S
C1033 C1032 1.363 . S
C1033 C1039 1.363 . S
C1034 C1035 1.363 . S
C1034 C1039 1.379 . S
C1034 N1041 1.356 . S
C1035 C1034 1.363 . S
C1035 C1038 1.363 . S
N1036 C1038 1.356 . S
N1036 H1048 0.984 . S
N1036 H1049 0.985 . S
N1037 C1039 1.356 . S
N1037 H1042 0.984 . S
N1037 H1043 0.985 . S
C1038 C1032 1.379 . S
C1038 C1035 1.363 . S
C1038 N1036 1.356 . S
C1039 C1033 1.363 . S
C1039 C1034 1.379 . S
C1039 N1037 1.356 . S
N1040 C1032 1.356 . S
N1040 H1046 0.984 . S
N1040 H1047 0.984 . S
N1041 C1034 1.356 . S
N1041 H1044 0.984 . S
N1041 H1045 0.985 . S
H1042 N1037 0.984 . S
H1043 N1037 0.985 . S
H1044 N1041 0.984 . S
H1045 N1041 0.985 . S
H1046 N1040 0.984 . S
H1047 N1040 0.984 . S
H1048 N1036 0.984 . S
H1049 N1036 0.985 . S
C1050 C1051 1.363 . S
C1050 C1056 1.379 . S
C1050 N1058 1.356 . S
C1051 C1050 1.363 . S
C1051 C1057 1.363 . S
C1052 C1053 1.363 . S
C1052 C1057 1.379 . S
C1052 N1059 1.356 . S
C1053 C1052 1.363 . S
C1053 C1056 1.363 . S
N1054 C1056 1.356 . S
N1054 H1066 0.984 . S
N1054 H1067 0.985 . S
N1055 C1057 1.356 . S
N1055 H1060 0.984 . S
N1055 H1061 0.985 . S
C1056 C1050 1.379 . S
C1056 C1053 1.363 . S
C1056 N1054 1.356 . S
C1057 C1051 1.363 . S
C1057 C1052 1.379 . S
C1057 N1055 1.356 . S
N1058 C1050 1.356 . S
N1058 H1064 0.984 . S
N1058 H1065 0.984 . S
N1059 C1052 1.356 . S
N1059 H1062 0.984 . S
N1059 H1063 0.985 . S
H1060 N1055 0.984 . S
H1061 N1055 0.985 . S
H1062 N1059 0.984 . S
H1063 N1059 0.985 . S
H1064 N1058 0.984 . S
H1065 N1058 0.984 . S
H1066 N1054 0.984 . S
H1067 N1054 0.985 . S
C1068 C1069 1.363 . S
C1068 C1074 1.379 . S
C1068 N1076 1.356 . S
C1069 C1068 1.363 . S
C1069 C1075 1.363 . S
C1070 C1071 1.363 . S
C1070 C1075 1.379 . S
C1070 N1077 1.356 . S
C1071 C1070 1.363 . S
C1071 C1074 1.363 . S
N1072 C1074 1.356 . S
N1072 H1084 0.984 . S
N1072 H1085 0.985 . S
N1073 C1075 1.356 . S
N1073 H1078 0.984 . S
N1073 H1079 0.985 . S
C1074 C1068 1.379 . S
C1074 C1071 1.363 . S
C1074 N1072 1.356 . S
C1075 C1069 1.363 . S
C1075 C1070 1.379 . S
C1075 N1073 1.356 . S
N1076 C1068 1.356 . S
N1076 H1082 0.984 . S
N1076 H1083 0.984 . S
N1077 C1070 1.356 . S
N1077 H1080 0.984 . S
N1077 H1081 0.985 . S
H1078 N1073 0.984 . S
H1079 N1073 0.985 . S
H1080 N1077 0.984 . S
H1081 N1077 0.985 . S
H1082 N1076 0.984 . S
H1083 N1076 0.984 . S
H1084 N1072 0.984 . S
H1085 N1072 0.985 . S
C1086 C1087 1.363 . S
C1086 C1092 1.379 . S
C1086 N1094 1.356 . S
C1087 C1086 1.363 . S
C1087 C1093 1.363 . S
C1088 C1089 1.363 . S
C1088 C1093 1.379 . S
C1088 N1095 1.356 . S
C1089 C1088 1.363 . S
C1089 C1092 1.363 . S
N1090 C1092 1.356 . S
N1090 H1102 0.984 . S
N1090 H1103 0.985 . S
N1091 C1093 1.356 . S
N1091 H1096 0.984 . S
N1091 H1097 0.985 . S
C1092 C1086 1.379 . S
C1092 C1089 1.363 . S
C1092 N1090 1.356 . S
C1093 C1087 1.363 . S
C1093 C1088 1.379 . S
C1093 N1091 1.356 . S
N1094 C1086 1.356 . S
N1094 H1100 0.984 . S
N1094 H1101 0.984 . S
N1095 C1088 1.356 . S
N1095 H1098 0.984 . S
N1095 H1099 0.985 . S
H1096 N1091 0.984 . S
H1097 N1091 0.985 . S
H1098 N1095 0.984 . S
H1099 N1095 0.985 . S
H1100 N1094 0.984 . S
H1101 N1094 0.984 . S
H1102 N1090 0.984 . S
H1103 N1090 0.985 . S
C1104 C1105 1.363 . S
C1104 C1110 1.379 . S
C1104 N1112 1.356 . S
C1105 C1104 1.363 . S
C1105 C1111 1.363 . S
C1106 C1107 1.363 . S
C1106 C1111 1.379 . S
C1106 N1113 1.356 . S
C1107 C1106 1.363 . S
C1107 C1110 1.363 . S
N1108 C1110 1.356 . S
N1108 H1120 0.984 . S
N1108 H1121 0.985 . S
N1109 C1111 1.356 . S
N1109 H1114 0.984 . S
N1109 H1115 0.985 . S
C1110 C1104 1.379 . S
C1110 C1107 1.363 . S
C1110 N1108 1.356 . S
C1111 C1105 1.363 . S
C1111 C1106 1.379 . S
C1111 N1109 1.356 . S
N1112 C1104 1.356 . S
N1112 H1118 0.984 . S
N1112 H1119 0.984 . S
N1113 C1106 1.356 . S
N1113 H1116 0.984 . S
N1113 H1117 0.985 . S
H1114 N1109 0.984 . S
H1115 N1109 0.985 . S
H1116 N1113 0.984 . S
H1117 N1113 0.985 . S
H1118 N1112 0.984 . S
H1119 N1112 0.984 . S
H1120 N1108 0.984 . S
H1121 N1108 0.985 . S
C1122 C1123 1.363 . S
C1122 C1128 1.379 . S
C1122 N1130 1.356 . S
C1123 C1122 1.363 . S
C1123 C1129 1.363 . S
C1124 C1125 1.363 . S
C1124 C1129 1.379 . S
C1124 N1131 1.356 . S
C1125 C1124 1.363 . S
C1125 C1128 1.363 . S
N1126 C1128 1.356 . S
N1126 H1138 0.984 . S
N1126 H1139 0.985 . S
N1127 C1129 1.356 . S
N1127 H1132 0.984 . S
N1127 H1133 0.985 . S
C1128 C1122 1.379 . S
C1128 C1125 1.363 . S
C1128 N1126 1.356 . S
C1129 C1123 1.363 . S
C1129 C1124 1.379 . S
C1129 N1127 1.356 . S
N1130 C1122 1.356 . S
N1130 H1136 0.984 . S
N1130 H1137 0.984 . S
N1131 C1124 1.356 . S
N1131 H1134 0.984 . S
N1131 H1135 0.985 . S
H1132 N1127 0.984 . S
H1133 N1127 0.985 . S
H1134 N1131 0.984 . S
H1135 N1131 0.985 . S
H1136 N1130 0.984 . S
H1137 N1130 0.984 . S
H1138 N1126 0.984 . S
H1139 N1126 0.985 . S
C709 C5 1.674 . S
C711 C300 1.672 . S
C727 C111 1.645 . S
C729 C288 1.643 . S
C745 C298 1.682 . S
C747 C121 1.681 . S
C763 C229 1.646 . S
C765 C269 1.647 . S
C781 C418 1.672 . S
C783 C123 1.673 . S
C799 C387 1.648 . S
C801 C210 1.647 . S
C817 C3 1.680 . S
C819 C416 1.682 . S
C835 C406 1.644 . S
C837 C92 1.646 . S
C853 C583 1.640 . S
C855 C477 1.654 . S
C871 C475 1.662 . S
C873 C701 1.638 . S
C889 C564 1.640 . S
C891 C593 1.663 . S
C907 C595 1.656 . S
C909 C682 1.642 . S
C925 C654 1.674 . S
C927 C359 1.672 . S
C943 C524 1.645 . S
C945 C465 1.643 . S
C961 C357 1.682 . S
C963 C534 1.681 . S
C979 C446 1.647 . S
C981 C642 1.646 . S
C997 C241 1.672 . S
C999 C536 1.673 . S
C1015 C328 1.648 . S
C1017 C623 1.647 . S
C1033 C652 1.680 . S
C1035 C239 1.682 . S
C1051 C505 1.646 . S
C1053 C347 1.644 . S
C1069 C64 1.654 . S
C1071 C170 1.640 . S
C1087 C52 1.638 . S
C1089 C62 1.662 . S
C1105 C151 1.640 . S
C1107 C180 1.663 . S
C1123 C33 1.642 . S
C1125 C182 1.656 . S
