# Generated by pormake.
# Topology pcu-i, (5)-cn, num edge types: 1
# Building blocks:
#     Node 0, Type 0, BuildingBlock: BEQFEK_clean_sbu_0, # of connection points: 5
#     Node 1, Type 0, BuildingBlock: BEQFEK_clean_sbu_0, # of connection points: 5
#     Node 2, Type 0, BuildingBlock: BEQFEK_clean_sbu_0, # of connection points: 5
#     Node 3, Type 0, BuildingBlock: BEQFEK_clean_sbu_0, # of connection points: 5
#     Node 4, Type 0, BuildingBlock: BEQFEK_clean_sbu_0, # of connection points: 5
#     Node 5, Type 0, BuildingBlock: BEQFEK_clean_sbu_0, # of connection points: 5
#     Node 6, Type 0, BuildingBlock: BEQFEK_clean_sbu_0, # of connection points: 5
#     Node 7, Type 0, BuildingBlock: BEQFEK_clean_sbu_0, # of connection points: 5
#     Node 8, Type 0, BuildingBlock: BEQFEK_clean_sbu_0, # of connection points: 5
#     Node 9, Type 0, BuildingBlock: BEQFEK_clean_sbu_0, # of connection points: 5
#     Node 10, Type 0, BuildingBlock: BEQFEK_clean_sbu_0, # of connection points: 5
#     Node 11, Type 0, BuildingBlock: BEQFEK_clean_sbu_0, # of connection points: 5
#     Node 12, Type 0, BuildingBlock: BEQFEK_clean_sbu_0, # of connection points: 5
#     Node 13, Type 0, BuildingBlock: BEQFEK_clean_sbu_0, # of connection points: 5
#     Node 14, Type 0, BuildingBlock: BEQFEK_clean_sbu_0, # of connection points: 5
#     Node 15, Type 0, BuildingBlock: BEQFEK_clean_sbu_0, # of connection points: 5
#     Node 16, Type 0, BuildingBlock: BEQFEK_clean_sbu_0, # of connection points: 5
#     Node 17, Type 0, BuildingBlock: BEQFEK_clean_sbu_0, # of connection points: 5
#     Node 18, Type 0, BuildingBlock: BEQFEK_clean_sbu_0, # of connection points: 5
#     Node 19, Type 0, BuildingBlock: BEQFEK_clean_sbu_0, # of connection points: 5
#     Node 20, Type 0, BuildingBlock: BEQFEK_clean_sbu_0, # of connection points: 5
#     Node 21, Type 0, BuildingBlock: BEQFEK_clean_sbu_0, # of connection points: 5
#     Node 22, Type 0, BuildingBlock: BEQFEK_clean_sbu_0, # of connection points: 5
#     Node 23, Type 0, BuildingBlock: BEQFEK_clean_sbu_0, # of connection points: 5
#     Edge 24, Type (0, 0), BuildingBlock: CIFDUS_clean_linker_0, # of connection points: 2
#     Edge 25, Type (0, 0), BuildingBlock: CIFDUS_clean_linker_0, # of connection points: 2
#     Edge 26, Type (0, 0), BuildingBlock: CIFDUS_clean_linker_0, # of connection points: 2
#     Edge 27, Type (0, 0), BuildingBlock: CIFDUS_clean_linker_0, # of connection points: 2
#     Edge 28, Type (0, 0), BuildingBlock: CIFDUS_clean_linker_0, # of connection points: 2
#     Edge 29, Type (0, 0), BuildingBlock: CIFDUS_clean_linker_0, # of connection points: 2
#     Edge 30, Type (0, 0), BuildingBlock: CIFDUS_clean_linker_0, # of connection points: 2
#     Edge 31, Type (0, 0), BuildingBlock: CIFDUS_clean_linker_0, # of connection points: 2
#     Edge 32, Type (0, 0), BuildingBlock: CIFDUS_clean_linker_0, # of connection points: 2
#     Edge 33, Type (0, 0), BuildingBlock: CIFDUS_clean_linker_0, # of connection points: 2
#     Edge 34, Type (0, 0), BuildingBlock: CIFDUS_clean_linker_0, # of connection points: 2
#     Edge 35, Type (0, 0), BuildingBlock: CIFDUS_clean_linker_0, # of connection points: 2
#     Edge 36, Type (0, 0), BuildingBlock: CIFDUS_clean_linker_0, # of connection points: 2
#     Edge 37, Type (0, 0), BuildingBlock: CIFDUS_clean_linker_0, # of connection points: 2
#     Edge 38, Type (0, 0), BuildingBlock: CIFDUS_clean_linker_0, # of connection points: 2
#     Edge 39, Type (0, 0), BuildingBlock: CIFDUS_clean_linker_0, # of connection points: 2
#     Edge 40, Type (0, 0), BuildingBlock: CIFDUS_clean_linker_0, # of connection points: 2
#     Edge 41, Type (0, 0), BuildingBlock: CIFDUS_clean_linker_0, # of connection points: 2
#     Edge 42, Type (0, 0), BuildingBlock: CIFDUS_clean_linker_0, # of connection points: 2
#     Edge 43, Type (0, 0), BuildingBlock: CIFDUS_clean_linker_0, # of connection points: 2
#     Edge 44, Type (0, 0), BuildingBlock: CIFDUS_clean_linker_0, # of connection points: 2
#     Edge 45, Type (0, 0), BuildingBlock: CIFDUS_clean_linker_0, # of connection points: 2
#     Edge 46, Type (0, 0), BuildingBlock: CIFDUS_clean_linker_0, # of connection points: 2
#     Edge 47, Type (0, 0), BuildingBlock: CIFDUS_clean_linker_0, # of connection points: 2
#     Edge 48, Type (0, 0), BuildingBlock: CIFDUS_clean_linker_0, # of connection points: 2
#     Edge 49, Type (0, 0), BuildingBlock: CIFDUS_clean_linker_0, # of connection points: 2
#     Edge 50, Type (0, 0), BuildingBlock: CIFDUS_clean_linker_0, # of connection points: 2
#     Edge 51, Type (0, 0), BuildingBlock: CIFDUS_clean_linker_0, # of connection points: 2
#     Edge 52, Type (0, 0), BuildingBlock: CIFDUS_clean_linker_0, # of connection points: 2
#     Edge 53, Type (0, 0), BuildingBlock: CIFDUS_clean_linker_0, # of connection points: 2
#     Edge 54, Type (0, 0), BuildingBlock: CIFDUS_clean_linker_0, # of connection points: 2
#     Edge 55, Type (0, 0), BuildingBlock: CIFDUS_clean_linker_0, # of connection points: 2
#     Edge 56, Type (0, 0), BuildingBlock: CIFDUS_clean_linker_0, # of connection points: 2
#     Edge 57, Type (0, 0), BuildingBlock: CIFDUS_clean_linker_0, # of connection points: 2
#     Edge 58, Type (0, 0), BuildingBlock: CIFDUS_clean_linker_0, # of connection points: 2
#     Edge 59, Type (0, 0), BuildingBlock: CIFDUS_clean_linker_0, # of connection points: 2
#     Edge 60, Type (0, 0), BuildingBlock: CIFDUS_clean_linker_0, # of connection points: 2
#     Edge 61, Type (0, 0), BuildingBlock: CIFDUS_clean_linker_0, # of connection points: 2
#     Edge 62, Type (0, 0), BuildingBlock: CIFDUS_clean_linker_0, # of connection points: 2
#     Edge 63, Type (0, 0), BuildingBlock: CIFDUS_clean_linker_0, # of connection points: 2
#     Edge 64, Type (0, 0), BuildingBlock: CIFDUS_clean_linker_0, # of connection points: 2
#     Edge 65, Type (0, 0), BuildingBlock: CIFDUS_clean_linker_0, # of connection points: 2
#     Edge 66, Type (0, 0), BuildingBlock: CIFDUS_clean_linker_0, # of connection points: 2
#     Edge 67, Type (0, 0), BuildingBlock: CIFDUS_clean_linker_0, # of connection points: 2
#     Edge 68, Type (0, 0), BuildingBlock: CIFDUS_clean_linker_0, # of connection points: 2
#     Edge 69, Type (0, 0), BuildingBlock: CIFDUS_clean_linker_0, # of connection points: 2
#     Edge 70, Type (0, 0), BuildingBlock: CIFDUS_clean_linker_0, # of connection points: 2
#     Edge 71, Type (0, 0), BuildingBlock: CIFDUS_clean_linker_0, # of connection points: 2
#     Edge 72, Type (0, 0), BuildingBlock: CIFDUS_clean_linker_0, # of connection points: 2
#     Edge 73, Type (0, 0), BuildingBlock: CIFDUS_clean_linker_0, # of connection points: 2
#     Edge 74, Type (0, 0), BuildingBlock: CIFDUS_clean_linker_0, # of connection points: 2
#     Edge 75, Type (0, 0), BuildingBlock: CIFDUS_clean_linker_0, # of connection points: 2
#     Edge 76, Type (0, 0), BuildingBlock: CIFDUS_clean_linker_0, # of connection points: 2
#     Edge 77, Type (0, 0), BuildingBlock: CIFDUS_clean_linker_0, # of connection points: 2
#     Edge 78, Type (0, 0), BuildingBlock: CIFDUS_clean_linker_0, # of connection points: 2
#     Edge 79, Type (0, 0), BuildingBlock: CIFDUS_clean_linker_0, # of connection points: 2
#     Edge 80, Type (0, 0), BuildingBlock: CIFDUS_clean_linker_0, # of connection points: 2
#     Edge 81, Type (0, 0), BuildingBlock: CIFDUS_clean_linker_0, # of connection points: 2
#     Edge 82, Type (0, 0), BuildingBlock: CIFDUS_clean_linker_0, # of connection points: 2
#     Edge 83, Type (0, 0), BuildingBlock: CIFDUS_clean_linker_0, # of connection points: 2
# Relax obj value: 0.235
# Max RMSD: 0.176
# Mean RMSD: 0.176
data_MOF--net-pcu-i--node1-BEQFEK_clean_sbu_0--edge1-CIFDUS_clean_linker_0
_symmetry_space_group_name_H-M    P1
_symmetry_Int_Tables_number       1
_symmetry_cell_setting            triclinic
loop_
_symmetry_equiv_pos_as_xyz
'x, y, z'
_cell_length_a     50.665589
_cell_length_b     50.614458
_cell_length_c     50.759168
_cell_angle_alpha  90.03712
_cell_angle_beta   90.077787
_cell_angle_gamma 90.176906
loop_
_atom_site_label
_atom_site_type_symbol
_atom_site_fract_x
_atom_site_fract_y
_atom_site_fract_z
_atom_type_partial_charge
Co0 Co 0.1346 0.12213 0.37617 0.0
Co1 Co 0.12893 0.18371 0.37243 0.0
C2 C 0.08357 0.14713 0.36104 0.0
O3 O 0.09761 0.1268 0.36504 0.0
O4 O 0.09316 0.17026 0.36326 0.0
C5 C 0.12998 0.06946 0.35757 0.0
O6 O 0.11271 0.08051 0.34176 0.0
C7 C 0.12542 0.22986 0.33965 0.0
C8 C 0.1304 0.26331 0.36721 0.0
C9 C 0.12672 0.25713 0.34086 0.0
N10 N 0.12863 0.22023 0.36402 0.0
N11 N 0.13145 0.24026 0.38053 0.0
C12 C 0.11983 0.21308 0.31593 0.0
H13 H 0.1128 0.19321 0.32185 0.0
H14 H 0.13812 0.21056 0.30426 0.0
H15 H 0.10494 0.22276 0.30314 0.0
C16 C 0.18055 0.13282 0.34251 0.0
N17 N 0.15828 0.14082 0.35449 0.0
N18 N 0.15715 0.16678 0.35409 0.0
C19 C 0.17927 0.17617 0.34251 0.0
C20 C 0.1947 0.15493 0.33465 0.0
C21 C 0.18833 0.10448 0.33939 0.0
H22 H 0.17156 0.0932 0.33096 0.0
H23 H 0.20557 0.10219 0.32616 0.0
H24 H 0.19304 0.09604 0.35901 0.0
O25 O 0.13872 0.13488 0.41321 0.0
O26 O 0.13364 0.17861 0.41044 0.0
H27 H 0.20954 0.20634 0.34295 0.0
H28 H 0.18018 0.21463 0.32505 0.0
C29 C 0.1877 0.20457 0.34291 0.0
H30 H 0.1798 0.21464 0.36059 0.0
H31 H 0.13421 0.23821 0.4008 0.0
O32 O 0.14217 0.08369 0.37434 0.0
C33 C 0.13756 0.15773 0.42387 0.0
Co34 Co 0.87266 0.13824 0.37773 0.0
Co35 Co 0.81129 0.13072 0.37079 0.0
C36 C 0.85019 0.08655 0.36225 0.0
O37 O 0.8703 0.10102 0.36627 0.0
O38 O 0.82699 0.09581 0.36377 0.0
C39 C 0.92687 0.13673 0.36358 0.0
O40 O 0.91797 0.119 0.34686 0.0
C41 C 0.77025 0.12377 0.33221 0.0
C42 C 0.73309 0.1264 0.35468 0.0
C43 C 0.74303 0.1229 0.32944 0.0
N44 N 0.77612 0.12801 0.35767 0.0
N45 N 0.75385 0.12945 0.37111 0.0
C46 C 0.79067 0.11938 0.31132 0.0
H47 H 0.80948 0.11262 0.32011 0.0
H48 H 0.79472 0.13826 0.30099 0.0
H49 H 0.78361 0.10469 0.29665 0.0
C50 C 0.86221 0.18395 0.34354 0.0
N51 N 0.85446 0.16127 0.35505 0.0
N52 N 0.82862 0.15921 0.35353 0.0
C53 C 0.819 0.18097 0.34163 0.0
C54 C 0.83997 0.19728 0.33479 0.0
C55 C 0.89033 0.19288 0.34173 0.0
H56 H 0.8975 0.19851 0.36163 0.0
H57 H 0.90267 0.17639 0.33445 0.0
H58 H 0.89266 0.20988 0.32815 0.0
O59 O 0.85687 0.14139 0.41359 0.0
O60 O 0.81322 0.13606 0.40923 0.0
H61 H 0.77986 0.1797 0.35797 0.0
H62 H 0.78759 0.20979 0.34051 0.0
C63 C 0.79031 0.18804 0.3407 0.0
H64 H 0.78137 0.17986 0.32248 0.0
H65 H 0.75282 0.13251 0.39142 0.0
O66 O 0.91073 0.148 0.37912 0.0
C67 C 0.83367 0.1401 0.42342 0.0
Co68 Co 0.84852 0.87557 0.37656 0.0
Co69 Co 0.8544 0.81425 0.36914 0.0
C70 C 0.8971 0.85252 0.35374 0.0
O71 O 0.88345 0.87236 0.36037 0.0
O72 O 0.88831 0.82916 0.35643 0.0
C73 C 0.85174 0.92951 0.36221 0.0
O74 O 0.86807 0.91992 0.3446 0.0
C75 C 0.85448 0.77257 0.33112 0.0
C76 C 0.85384 0.7357 0.35434 0.0
C77 C 0.85387 0.74538 0.32879 0.0
N78 N 0.85429 0.77885 0.35678 0.0
N79 N 0.85407 0.75677 0.37069 0.0
C80 C 0.85648 0.79243 0.3093 0.0
H81 H 0.86325 0.81183 0.31684 0.0
H82 H 0.83687 0.79531 0.30009 0.0
H83 H 0.87019 0.78527 0.29383 0.0
C84 C 0.79939 0.86588 0.3472 0.0
N85 N 0.82256 0.85763 0.35717 0.0
N86 N 0.82386 0.83173 0.35568 0.0
C87 C 0.80098 0.82256 0.34549 0.0
C88 C 0.78488 0.8439 0.33956 0.0
C89 C 0.79163 0.8943 0.34496 0.0
H90 H 0.80828 0.90582 0.33667 0.0
H91 H 0.77414 0.89695 0.33208 0.0
H92 H 0.78725 0.90218 0.36488 0.0
O93 O 0.84983 0.86031 0.41269 0.0
O94 O 0.8548 0.81668 0.40787 0.0
H95 H 0.77131 0.79194 0.34708 0.0
H96 H 0.7986 0.78525 0.3257 0.0
C97 C 0.79301 0.79404 0.34489 0.0
H98 H 0.80289 0.78301 0.36094 0.0
H99 H 0.85398 0.75608 0.39123 0.0
O100 O 0.84038 0.9139 0.37828 0.0
C101 C 0.85261 0.83716 0.42235 0.0
Co102 Co 0.10661 0.86278 0.35892 0.0
Co103 Co 0.16805 0.86704 0.35804 0.0
C104 C 0.13159 0.91295 0.34509 0.0
O105 O 0.11067 0.89912 0.34599 0.0
O106 O 0.15402 0.90286 0.35003 0.0
C107 C 0.05245 0.86518 0.34381 0.0
O108 O 0.06058 0.8847 0.3288 0.0
C109 C 0.21171 0.87687 0.32431 0.0
C110 C 0.24688 0.86408 0.34657 0.0
C111 C 0.23883 0.87433 0.32249 0.0
N112 N 0.20407 0.86877 0.34824 0.0
N113 N 0.22514 0.86138 0.36169 0.0
C114 C 0.19273 0.88412 0.30284 0.0
H115 H 0.17269 0.87648 0.3072 0.0
H116 H 0.19941 0.87617 0.28359 0.0
H117 H 0.19156 0.90595 0.30139 0.0
C118 C 0.11774 0.81637 0.32566 0.0
N119 N 0.12551 0.83826 0.33862 0.0
N120 N 0.15141 0.83946 0.33882 0.0
C121 C 0.16105 0.81808 0.32628 0.0
C122 C 0.14001 0.80276 0.31753 0.0
C123 C 0.08951 0.80869 0.32137 0.0
H124 H 0.08068 0.80267 0.34044 0.0
H125 H 0.0784 0.82595 0.31386 0.0
H126 H 0.08756 0.79226 0.30703 0.0
O127 O 0.11906 0.86187 0.39606 0.0
O128 O 0.16312 0.8609 0.39596 0.0
H129 H 0.19925 0.81593 0.34438 0.0
H130 H 0.19249 0.78961 0.3213 0.0
C131 C 0.18969 0.81095 0.32536 0.0
H132 H 0.19946 0.82249 0.30954 0.0
H133 H 0.22459 0.85381 0.3808 0.0
O134 O 0.06888 0.85322 0.35845 0.0
C135 C 0.14113 0.86059 0.40814 0.0
Co136 Co 0.14357 0.87658 0.61241 0.0
Co137 Co 0.14594 0.81482 0.61236 0.0
C138 C 0.09579 0.84563 0.62331 0.0
O139 O 0.10708 0.86806 0.62302 0.0
O140 O 0.10867 0.82463 0.6188 0.0
C141 C 0.13363 0.92995 0.62828 0.0
O142 O 0.11359 0.91926 0.64077 0.0
C143 C 0.13784 0.77019 0.64509 0.0
C144 C 0.15285 0.73593 0.62283 0.0
C145 C 0.141 0.74308 0.64644 0.0
N146 N 0.14695 0.77865 0.62181 0.0
N147 N 0.15574 0.75813 0.60835 0.0
C148 C 0.12843 0.78844 0.66635 0.0
H149 H 0.13547 0.80888 0.66287 0.0
H150 H 0.13539 0.7817 0.68596 0.0
H151 H 0.10654 0.78873 0.66636 0.0
C152 C 0.18957 0.86954 0.64749 0.0
N153 N 0.16888 0.85984 0.63387 0.0
N154 N 0.17044 0.83395 0.63319 0.0
C155 C 0.1924 0.82628 0.64603 0.0
C156 C 0.20528 0.84861 0.65552 0.0
C157 C 0.19444 0.89837 0.65205 0.0
H158 H 0.2004 0.90777 0.63322 0.0
H159 H 0.17597 0.90786 0.65883 0.0
H160 H 0.21006 0.90173 0.66703 0.0
O161 O 0.14853 0.86497 0.5752 0.0
O162 O 0.15375 0.82113 0.57501 0.0
H163 H 0.19882 0.78913 0.62677 0.0
H164 H 0.22395 0.79779 0.65054 0.0
C165 C 0.20251 0.79851 0.64618 0.0
H166 H 0.19179 0.78703 0.66142 0.0
H167 H 0.16402 0.75932 0.58958 0.0
O168 O 0.14874 0.91537 0.61459 0.0
C169 C 0.15292 0.84328 0.56309 0.0
Co170 Co 0.1119 0.1381 0.6232 0.0
Co171 Co 0.17282 0.13262 0.63221 0.0
C172 C 0.13645 0.08667 0.63889 0.0
O173 O 0.11644 0.10068 0.63329 0.0
O174 O 0.15956 0.09652 0.63935 0.0
C175 C 0.05862 0.13385 0.63923 0.0
O176 O 0.06872 0.11704 0.65613 0.0
C177 C 0.21918 0.12387 0.6643 0.0
C178 C 0.25077 0.14461 0.64254 0.0
C179 C 0.2456 0.13084 0.66555 0.0
N180 N 0.20905 0.13343 0.64184 0.0
N181 N 0.22809 0.14544 0.62864 0.0
C182 C 0.20352 0.10818 0.68387 0.0
H183 H 0.19958 0.0883 0.67548 0.0
H184 H 0.18411 0.1177 0.68724 0.0
H185 H 0.21414 0.10566 0.70279 0.0
C186 C 0.11894 0.1824 0.65989 0.0
N187 N 0.12843 0.1613 0.64692 0.0
N188 N 0.15392 0.15919 0.65133 0.0
C189 C 0.16141 0.17887 0.66777 0.0
C190 C 0.13941 0.19416 0.67376 0.0
C191 C 0.09147 0.19277 0.65654 0.0
H192 H 0.08569 0.1918 0.63549 0.0
H193 H 0.07761 0.18033 0.66806 0.0
H194 H 0.08975 0.21355 0.66323 0.0
O195 O 0.12655 0.14361 0.58774 0.0
O196 O 0.16985 0.1386 0.59364 0.0
H197 H 0.20272 0.18481 0.66101 0.0
H198 H 0.19081 0.19995 0.69105 0.0
C199 C 0.18896 0.18263 0.67785 0.0
H200 H 0.19478 0.16497 0.68925 0.0
H201 H 0.22539 0.155 0.61063 0.0
O202 O 0.07363 0.14518 0.62266 0.0
C203 C 0.15001 0.14285 0.57878 0.0
Co204 Co 0.85179 0.11456 0.62499 0.0
Co205 Co 0.85703 0.17626 0.63082 0.0
C206 C 0.90217 0.13936 0.64173 0.0
O207 O 0.88844 0.11895 0.63685 0.0
O208 O 0.89243 0.16238 0.63997 0.0
C209 C 0.85716 0.06086 0.63989 0.0
O210 O 0.87479 0.07118 0.65589 0.0
C211 C 0.85962 0.21922 0.66782 0.0
C212 C 0.85768 0.25521 0.64335 0.0
C213 C 0.85963 0.24657 0.66923 0.0
N214 N 0.85736 0.21202 0.64247 0.0
N215 N 0.85625 0.23358 0.62784 0.0
C216 C 0.86329 0.19996 0.68992 0.0
H217 H 0.8708 0.18085 0.68242 0.0
H218 H 0.844 0.19613 0.69951 0.0
H219 H 0.87709 0.20804 0.70492 0.0
C220 C 0.80548 0.12375 0.65831 0.0
N221 N 0.82799 0.13225 0.6471 0.0
N222 N 0.82857 0.15821 0.64737 0.0
C223 C 0.80572 0.16716 0.65756 0.0
C224 C 0.79034 0.1456 0.66502 0.0
C225 C 0.79873 0.0952 0.6621 0.0
H226 H 0.81652 0.08428 0.66853 0.0
H227 H 0.78313 0.09252 0.67718 0.0
H228 H 0.79193 0.0867 0.64309 0.0
O229 O 0.84816 0.12931 0.58858 0.0
O230 O 0.85294 0.1731 0.59243 0.0
H231 H 0.80628 0.20521 0.63867 0.0
H232 H 0.77519 0.19668 0.65369 0.0
C233 C 0.79695 0.19536 0.6558 0.0
H234 H 0.80283 0.20599 0.674 0.0
H235 H 0.85469 0.23354 0.60734 0.0
O236 O 0.84419 0.07595 0.6246 0.0
C237 C 0.84925 0.15243 0.57848 0.0
Co238 Co 0.88844 0.85388 0.62434 0.0
Co239 Co 0.82686 0.85647 0.63085 0.0
C240 C 0.86101 0.90379 0.63999 0.0
O241 O 0.88183 0.89087 0.63495 0.0
O242 O 0.83845 0.89284 0.63923 0.0
C243 C 0.94061 0.86322 0.64144 0.0
O244 O 0.92801 0.87858 0.65802 0.0
C245 C 0.78316 0.85828 0.6664 0.0
C246 C 0.74843 0.84766 0.64225 0.0
C247 C 0.75636 0.85362 0.66771 0.0
N248 N 0.79102 0.85492 0.64144 0.0
N249 N 0.77016 0.84891 0.62691 0.0
C250 C 0.80116 0.86585 0.68864 0.0
H251 H 0.82149 0.86955 0.68149 0.0
H252 H 0.80176 0.84992 0.70358 0.0
H253 H 0.79344 0.88382 0.69849 0.0
C254 C 0.88158 0.8089 0.66121 0.0
N255 N 0.87212 0.82953 0.64732 0.0
N256 N 0.84619 0.82959 0.64871 0.0
C257 C 0.83833 0.80839 0.66275 0.0
C258 C 0.86039 0.79498 0.67161 0.0
C259 C 0.91029 0.80282 0.66431 0.0
H260 H 0.92054 0.82028 0.67272 0.0
H261 H 0.91358 0.78559 0.67737 0.0
H262 H 0.91898 0.79884 0.64465 0.0
O263 O 0.87423 0.84875 0.5878 0.0
O264 O 0.83052 0.85192 0.59277 0.0
H265 H 0.79894 0.80475 0.64713 0.0
H266 H 0.80983 0.77686 0.66632 0.0
C267 C 0.81045 0.79872 0.66467 0.0
H268 H 0.80129 0.80695 0.68263 0.0
H269 H 0.77087 0.84494 0.60674 0.0
O270 O 0.92746 0.84949 0.62495 0.0
C271 C 0.85083 0.84898 0.57831 0.0
Co272 Co 0.37218 0.15659 0.11895 0.0
Co273 Co 0.36653 0.15623 0.18046 0.0
C274 C 0.35311 0.10882 0.14661 0.0
O275 O 0.35717 0.12146 0.12544 0.0
O276 O 0.35664 0.11961 0.16899 0.0
C277 C 0.37153 0.14226 0.06486 0.0
O278 O 0.37191 0.11829 0.07474 0.0
C279 C 0.32804 0.15888 0.22164 0.0
C280 C 0.35071 0.16677 0.25797 0.0
C281 C 0.32525 0.16395 0.24825 0.0
N282 N 0.35382 0.15931 0.21562 0.0
N283 N 0.3674 0.16381 0.23744 0.0
C284 C 0.30653 0.15313 0.20213 0.0
H285 H 0.2975 0.17187 0.19542 0.0
H286 H 0.29083 0.14095 0.21139 0.0
H287 H 0.31447 0.14285 0.1846 0.0
C288 C 0.33966 0.20429 0.12427 0.0
N289 N 0.35159 0.18291 0.13453 0.0
N290 N 0.35076 0.18407 0.16037 0.0
C291 C 0.33921 0.20702 0.16742 0.0
C292 C 0.33145 0.22037 0.14481 0.0
C293 C 0.33611 0.20891 0.09537 0.0
H294 H 0.35504 0.21595 0.08688 0.0
H295 H 0.33067 0.19011 0.08548 0.0
H296 H 0.32054 0.22377 0.09144 0.0
O297 O 0.40875 0.15839 0.13357 0.0
O298 O 0.40538 0.15894 0.17755 0.0
H299 H 0.35605 0.21024 0.20628 0.0
H300 H 0.34036 0.23993 0.19442 0.0
C301 C 0.33914 0.21803 0.19483 0.0
H302 H 0.3205 0.21255 0.20484 0.0
H303 H 0.38793 0.16538 0.23824 0.0
O304 O 0.37282 0.16198 0.08031 0.0
C305 C 0.41913 0.15929 0.1565 0.0
Co306 Co 0.85052 0.36561 0.11926 0.0
Co307 Co 0.84097 0.36512 0.17995 0.0
C308 C 0.89406 0.35294 0.15488 0.0
O309 O 0.88487 0.35344 0.13163 0.0
O310 O 0.87946 0.35785 0.17465 0.0
C311 C 0.87244 0.37139 0.06848 0.0
O312 O 0.89292 0.37924 0.08236 0.0
C313 C 0.83449 0.32885 0.2223 0.0
C314 C 0.82227 0.35279 0.25652 0.0
C315 C 0.82691 0.32707 0.24833 0.0
N316 N 0.83383 0.35428 0.21502 0.0
N317 N 0.82668 0.36865 0.23556 0.0
C318 C 0.8429 0.30671 0.20461 0.0
H319 H 0.85417 0.31433 0.18753 0.0
H320 H 0.82522 0.29616 0.19707 0.0
H321 H 0.85505 0.2923 0.21574 0.0
C322 C 0.80394 0.33008 0.12018 0.0
N323 N 0.82304 0.34425 0.13216 0.0
N324 N 0.81779 0.34603 0.1574 0.0
C325 C 0.79433 0.3344 0.16214 0.0
C326 C 0.78494 0.32332 0.13884 0.0
C327 C 0.8041 0.32342 0.09146 0.0
H328 H 0.79524 0.33998 0.08022 0.0
H329 H 0.82468 0.32072 0.08455 0.0
H330 H 0.79263 0.30512 0.08751 0.0
O331 O 0.84538 0.40296 0.13116 0.0
O332 O 0.83542 0.40292 0.17401 0.0
H333 H 0.78513 0.35653 0.19719 0.0
H334 H 0.75757 0.33876 0.1832 0.0
C335 C 0.7791 0.33798 0.1872 0.0
H336 H 0.78289 0.32113 0.20059 0.0
H337 H 0.82451 0.38915 0.2352 0.0
O338 O 0.85134 0.36485 0.08037 0.0
C339 C 0.83916 0.41509 0.15235 0.0
Co340 Co 0.62121 0.84364 0.11535 0.0
Co341 Co 0.62249 0.84381 0.17697 0.0
C342 C 0.63254 0.89317 0.14483 0.0
O343 O 0.63005 0.88088 0.12313 0.0
O344 O 0.63026 0.88109 0.1667 0.0
C345 C 0.63937 0.85219 0.06321 0.0
O346 O 0.65393 0.87028 0.07485 0.0
C347 C 0.65728 0.84277 0.22125 0.0
C348 C 0.63231 0.83185 0.25516 0.0
C349 C 0.65822 0.83664 0.24774 0.0
N350 N 0.63217 0.8411 0.21305 0.0
N351 N 0.61717 0.83489 0.23344 0.0
C352 C 0.67999 0.85004 0.20377 0.0
H353 H 0.67305 0.86122 0.18634 0.0
H354 H 0.68987 0.83188 0.19667 0.0
H355 H 0.69473 0.86193 0.21486 0.0
C356 C 0.65718 0.79873 0.12293 0.0
N357 N 0.64359 0.81954 0.13233 0.0
N358 N 0.64217 0.8179 0.15812 0.0
C359 C 0.65395 0.79531 0.16589 0.0
C360 C 0.66418 0.78268 0.14392 0.0
C361 C 0.6625 0.79398 0.09433 0.0
H362 H 0.64383 0.78837 0.08431 0.0
H363 H 0.67 0.81241 0.08521 0.0
H364 H 0.6773 0.77816 0.09136 0.0
O365 O 0.58431 0.83663 0.12682 0.0
O366 O 0.58447 0.83772 0.17084 0.0
H367 H 0.63308 0.79046 0.20252 0.0
H368 H 0.65084 0.76158 0.19172 0.0
C369 C 0.65135 0.78348 0.19282 0.0
H370 H 0.66863 0.78918 0.20493 0.0
H371 H 0.59681 0.8319 0.23237 0.0
O372 O 0.62354 0.83836 0.07689 0.0
C373 C 0.57239 0.83504 0.14891 0.0
Co374 Co 0.14459 0.62551 0.09652 0.0
Co375 Co 0.1473 0.63684 0.15725 0.0
C376 C 0.09821 0.64662 0.12581 0.0
O377 O 0.10901 0.63895 0.10459 0.0
O378 O 0.1108 0.64709 0.14746 0.0
C379 C 0.12673 0.61599 0.04441 0.0
O380 O 0.10545 0.60819 0.057 0.0
C381 C 0.14649 0.67343 0.2005 0.0
C382 C 0.16537 0.65193 0.23331 0.0
C383 C 0.15485 0.67616 0.22628 0.0
N384 N 0.15215 0.6489 0.19238 0.0
N385 N 0.1631 0.63592 0.21215 0.0
C386 C 0.13333 0.69371 0.1835 0.0
H387 H 0.1117 0.69025 0.18398 0.0
H388 H 0.13994 0.69158 0.16278 0.0
H389 H 0.13719 0.71409 0.19052 0.0
C390 C 0.19345 0.65808 0.09775 0.0
N391 N 0.17196 0.64766 0.10953 0.0
N392 N 0.1732 0.65232 0.135 0.0
C393 C 0.19563 0.66573 0.14028 0.0
C394 C 0.20927 0.66974 0.1169 0.0
C395 C 0.19976 0.65462 0.06917 0.0
H396 H 0.19918 0.63328 0.06415 0.0
H397 H 0.18445 0.66463 0.05717 0.0
H398 H 0.21947 0.66279 0.06417 0.0
O399 O 0.14718 0.58981 0.11245 0.0
O400 O 0.15047 0.59773 0.15563 0.0
H401 H 0.20367 0.65732 0.1809 0.0
H402 H 0.22375 0.68365 0.16758 0.0
C403 C 0.20393 0.67443 0.16729 0.0
H404 H 0.18985 0.68941 0.17451 0.0
H405 H 0.16974 0.61645 0.21096 0.0
O406 O 0.14675 0.62344 0.05761 0.0
C407 C 0.14958 0.58179 0.13616 0.0
Co408 Co 0.3775 0.85883 0.87406 0.0
Co409 Co 0.37374 0.85497 0.81248 0.0
C410 C 0.36016 0.90465 0.84243 0.0
O411 O 0.36407 0.894 0.86474 0.0
O412 O 0.3633 0.8917 0.82122 0.0
C413 C 0.37553 0.87555 0.92817 0.0
O414 O 0.37548 0.8994 0.91798 0.0
C415 C 0.33667 0.84892 0.7705 0.0
C416 C 0.36055 0.84158 0.73492 0.0
C417 C 0.33479 0.84346 0.74392 0.0
N418 N 0.36226 0.84968 0.77723 0.0
N419 N 0.37657 0.84545 0.75588 0.0
C420 C 0.31445 0.8542 0.78922 0.0
H421 H 0.32169 0.86438 0.80717 0.0
H422 H 0.30524 0.83525 0.79525 0.0
H423 H 0.29905 0.86631 0.77946 0.0
C424 C 0.34439 0.81085 0.87034 0.0
N425 N 0.35677 0.83171 0.85938 0.0
N426 N 0.35764 0.82855 0.83373 0.0
C427 C 0.34715 0.80484 0.82759 0.0
C428 C 0.3379 0.79297 0.85052 0.0
C429 C 0.33902 0.80835 0.89922 0.0
H430 H 0.33447 0.82803 0.90767 0.0
H431 H 0.32219 0.79481 0.903 0.0
H432 H 0.35687 0.80058 0.9092 0.0
O433 O 0.41454 0.85552 0.86071 0.0
O434 O 0.41221 0.85331 0.81675 0.0
H435 H 0.36757 0.79983 0.79073 0.0
H436 H 0.35239 0.77016 0.80337 0.0
C437 C 0.35009 0.79185 0.80119 0.0
H438 H 0.33225 0.79552 0.78912 0.0
H439 H 0.39716 0.84494 0.75566 0.0
O440 O 0.37716 0.85562 0.913 0.0
C441 C 0.42552 0.85382 0.8381 0.0
Co442 Co 0.14177 0.37391 0.88544 0.0
Co443 Co 0.14429 0.36545 0.8244 0.0
C444 C 0.09312 0.36262 0.85394 0.0
O445 O 0.10446 0.3669 0.87592 0.0
O446 O 0.10623 0.36159 0.83262 0.0
C447 C 0.13106 0.35966 0.93887 0.0
O448 O 0.11399 0.34329 0.92813 0.0
C449 C 0.1407 0.33195 0.77836 0.0
C450 C 0.1628 0.35427 0.74816 0.0
C451 C 0.14969 0.33049 0.75244 0.0
N452 N 0.1485 0.35512 0.78865 0.0
N453 N 0.16131 0.36861 0.77044 0.0
C454 C 0.12728 0.31105 0.79445 0.0
H455 H 0.12891 0.31561 0.81577 0.0
H456 H 0.13609 0.29138 0.79062 0.0
H457 H 0.10602 0.31038 0.78923 0.0
C458 C 0.18412 0.33456 0.88432 0.0
N459 N 0.16475 0.34807 0.87223 0.0
N460 N 0.16637 0.34447 0.8466 0.0
C461 C 0.18696 0.32836 0.84157 0.0
C462 C 0.19877 0.32154 0.86535 0.0
C463 C 0.19085 0.33745 0.91294 0.0
H464 H 0.19125 0.35869 0.9183 0.0
H465 H 0.17547 0.3275 0.92492 0.0
H466 H 0.21034 0.32883 0.9178 0.0
O467 O 0.15331 0.40849 0.87177 0.0
O468 O 0.15444 0.40306 0.82821 0.0
H469 H 0.19796 0.33839 0.80202 0.0
H470 H 0.21444 0.30933 0.81459 0.0
C471 C 0.19573 0.32054 0.81448 0.0
H472 H 0.18061 0.30757 0.80552 0.0
H473 H 0.16981 0.38717 0.7735 0.0
O474 O 0.14451 0.37491 0.9242 0.0
C475 C 0.1576 0.41734 0.84868 0.0
Co476 Co 0.62114 0.14123 0.8777 0.0
Co477 Co 0.62765 0.14396 0.81604 0.0
C478 C 0.63895 0.09461 0.84434 0.0
O479 O 0.63283 0.10571 0.86596 0.0
O480 O 0.63865 0.1073 0.82277 0.0
C481 C 0.63914 0.12582 0.92861 0.0
O482 O 0.65451 0.11051 0.91453 0.0
C483 C 0.65475 0.14377 0.76595 0.0
C484 C 0.63411 0.17492 0.74364 0.0
C485 C 0.65564 0.15815 0.74281 0.0
N486 N 0.63379 0.15171 0.77993 0.0
N487 N 0.62098 0.16975 0.76615 0.0
C488 C 0.67568 0.12582 0.7766 0.0
H489 H 0.68 0.13096 0.79742 0.0
H490 H 0.69409 0.12684 0.76482 0.0
H491 H 0.66816 0.10521 0.77622 0.0
C492 C 0.65165 0.19086 0.87435 0.0
N493 N 0.64165 0.16875 0.86334 0.0
N494 N 0.64555 0.16936 0.83773 0.0
C495 C 0.65904 0.19159 0.83178 0.0
C496 C 0.66291 0.20623 0.85465 0.0
C497 C 0.64763 0.19827 0.90262 0.0
H498 H 0.62758 0.19225 0.90904 0.0
H499 H 0.66219 0.18753 0.91494 0.0
H500 H 0.65011 0.21982 0.90578 0.0
O501 O 0.58429 0.14547 0.86591 0.0
O502 O 0.58913 0.14518 0.82222 0.0
H503 H 0.65204 0.20519 0.79251 0.0
H504 H 0.68408 0.21413 0.80539 0.0
C505 C 0.66879 0.19843 0.80482 0.0
H506 H 0.67771 0.18078 0.79569 0.0
H507 H 0.60452 0.17998 0.77302 0.0
O508 O 0.62323 0.14138 0.91698 0.0
C509 C 0.57463 0.14591 0.8427 0.0
Co510 Co 0.86245 0.62516 0.8837 0.0
Co511 Co 0.86385 0.62518 0.82187 0.0
C512 C 0.91262 0.63415 0.85452 0.0
O513 O 0.8998 0.63248 0.87589 0.0
O514 O 0.90117 0.63151 0.8324 0.0
C515 C 0.87301 0.64701 0.93373 0.0
O516 O 0.8893 0.6614 0.91961 0.0
C517 C 0.8674 0.65833 0.77621 0.0
C518 C 0.85856 0.63219 0.74249 0.0
C519 C 0.86455 0.65814 0.74908 0.0
N520 N 0.86285 0.63388 0.78536 0.0
N521 N 0.85773 0.6182 0.76514 0.0
C522 C 0.87545 0.68117 0.79329 0.0
H523 H 0.8843 0.67415 0.81196 0.0
H524 H 0.85785 0.69307 0.79836 0.0
H525 H 0.88967 0.69411 0.78277 0.0
C526 C 0.8186 0.6617 0.87454 0.0
N527 N 0.83954 0.64801 0.86572 0.0
N528 N 0.83879 0.64686 0.83984 0.0
C529 C 0.81678 0.65929 0.83139 0.0
C530 C 0.80341 0.66921 0.8531 0.0
C531 C 0.81256 0.66605 0.90307 0.0
H532 H 0.80774 0.64684 0.91245 0.0
H533 H 0.83021 0.67435 0.91303 0.0
H534 H 0.7959 0.67993 0.90585 0.0
O535 O 0.85356 0.58819 0.87315 0.0
O536 O 0.85547 0.58753 0.82911 0.0
H537 H 0.81217 0.63878 0.79452 0.0
H538 H 0.78437 0.65904 0.80362 0.0
C539 C 0.80623 0.65764 0.80385 0.0
H540 H 0.8142 0.67427 0.79207 0.0
H541 H 0.85353 0.59807 0.76678 0.0
O542 O 0.85856 0.62982 0.92235 0.0
C543 C 0.85166 0.57597 0.85117 0.0
Co544 Co 0.09931 0.37432 0.14334 0.0
Co545 Co 0.16141 0.37655 0.14207 0.0
C546 C 0.12836 0.35925 0.09535 0.0
O547 O 0.10688 0.3608 0.108 0.0
O548 O 0.15025 0.3653 0.10607 0.0
C549 C 0.04967 0.34996 0.13752 0.0
O550 O 0.06419 0.33349 0.12382 0.0
C551 C 0.20691 0.34308 0.14292 0.0
C552 C 0.24072 0.3696 0.15053 0.0
C553 C 0.23382 0.34324 0.14739 0.0
N554 N 0.19803 0.36801 0.1439 0.0
N555 N 0.21836 0.38392 0.14814 0.0
C556 C 0.18978 0.31943 0.13773 0.0
H557 H 0.17086 0.32531 0.12853 0.0
H558 H 0.18522 0.30924 0.1565 0.0
H559 H 0.20025 0.3052 0.12482 0.0
C560 C 0.11039 0.34196 0.19069 0.0
N561 N 0.11819 0.3559 0.16944 0.0
N562 N 0.14402 0.35844 0.16987 0.0
C563 C 0.15336 0.3472 0.19206 0.0
C564 C 0.13252 0.33589 0.20558 0.0
C565 C 0.08239 0.33428 0.19617 0.0
H566 H 0.07447 0.32306 0.17914 0.0
H567 H 0.08061 0.32189 0.21408 0.0
H568 H 0.0703 0.35236 0.19856 0.0
O569 O 0.10957 0.41266 0.14366 0.0
O570 O 0.15369 0.4146 0.14513 0.0
H571 H 0.18997 0.36883 0.19466 0.0
H572 H 0.18085 0.35127 0.22423 0.0
C573 C 0.1809 0.35047 0.20237 0.0
H574 H 0.19298 0.33329 0.19651 0.0
H575 H 0.2169 0.40439 0.1501 0.0
O576 O 0.06064 0.36965 0.14874 0.0
C577 C 0.13116 0.42586 0.1446 0.0
Co578 Co 0.12271 0.61536 0.83856 0.0
Co579 Co 0.18414 0.62394 0.8419 0.0
C580 C 0.15044 0.62884 0.88953 0.0
O581 O 0.12977 0.62315 0.8764 0.0
O582 O 0.17282 0.63054 0.8784 0.0
C583 C 0.06963 0.63144 0.84659 0.0
O584 O 0.08086 0.64739 0.8637 0.0
C585 C 0.2309 0.65611 0.84929 0.0
C586 C 0.26056 0.63656 0.82428 0.0
C587 C 0.25637 0.65867 0.83981 0.0
N588 N 0.22048 0.63359 0.83987 0.0
N589 N 0.23856 0.62155 0.8255 0.0
C590 C 0.21541 0.67639 0.86414 0.0
H591 H 0.19438 0.67583 0.85799 0.0
H592 H 0.22358 0.69654 0.86118 0.0
H593 H 0.21634 0.67168 0.88546 0.0
C594 C 0.12937 0.64916 0.79231 0.0
N595 N 0.13869 0.63915 0.81506 0.0
N596 N 0.16424 0.64355 0.81664 0.0
C597 C 0.17182 0.65744 0.79526 0.0
C598 C 0.15011 0.66104 0.77891 0.0
C599 C 0.10235 0.64319 0.7818 0.0
H600 H 0.09758 0.62205 0.78516 0.0
H601 H 0.08766 0.65524 0.79262 0.0
H602 H 0.10069 0.64734 0.76043 0.0
O603 O 0.13646 0.58024 0.8303 0.0
O604 O 0.18009 0.58539 0.83449 0.0
H605 H 0.21236 0.64951 0.78658 0.0
H606 H 0.2006 0.68058 0.77346 0.0
C607 C 0.19943 0.66673 0.79033 0.0
H608 H 0.20665 0.67737 0.80792 0.0
H609 H 0.23526 0.60407 0.81508 0.0
O610 O 0.0839 0.61562 0.83341 0.0
C611 C 0.15984 0.57109 0.82968 0.0
Co612 Co 0.37244 0.11059 0.8576 0.0
Co613 Co 0.3659 0.17197 0.86255 0.0
C614 C 0.35857 0.13723 0.90881 0.0
O615 O 0.3643 0.11708 0.89508 0.0
O616 O 0.35746 0.16006 0.89853 0.0
C617 C 0.35277 0.05942 0.86662 0.0
O618 O 0.33765 0.07274 0.88284 0.0
C619 C 0.33478 0.21883 0.86827 0.0
C620 C 0.36117 0.25087 0.85471 0.0
C621 C 0.3358 0.24595 0.86388 0.0
N622 N 0.35823 0.2085 0.8619 0.0
N623 N 0.37412 0.22769 0.85415 0.0
C624 C 0.31161 0.20211 0.87608 0.0
H625 H 0.31518 0.18105 0.87125 0.0
H626 H 0.2934 0.20879 0.86594 0.0
H627 H 0.30866 0.20359 0.89768 0.0
C628 C 0.33434 0.11867 0.81432 0.0
N629 N 0.34875 0.12784 0.8347 0.0
N630 N 0.34656 0.15372 0.83592 0.0
C631 C 0.33093 0.16186 0.81598 0.0
C632 C 0.32249 0.13992 0.8019 0.0
C633 C 0.33198 0.09007 0.80712 0.0
H634 H 0.35193 0.08186 0.80348 0.0
H635 H 0.32315 0.07913 0.82385 0.0
H636 H 0.31943 0.08697 0.78948 0.0
O637 O 0.40904 0.12359 0.85134 0.0
O638 O 0.40393 0.16693 0.85763 0.0
H639 H 0.34418 0.20213 0.81279 0.0
H640 H 0.32151 0.19192 0.78729 0.0
C641 C 0.32638 0.19011 0.80854 0.0
H642 H 0.30953 0.19797 0.81997 0.0
H643 H 0.39349 0.22486 0.84782 0.0
O644 O 0.36973 0.07172 0.85273 0.0
C645 C 0.41846 0.14696 0.85311 0.0
Co646 Co 0.88545 0.37181 0.86226 0.0
Co647 Co 0.82329 0.36965 0.86342 0.0
C648 C 0.85565 0.36394 0.91245 0.0
O649 O 0.87733 0.36676 0.90023 0.0
O650 O 0.8338 0.36441 0.90027 0.0
C651 C 0.93727 0.35513 0.8754 0.0
O652 O 0.92428 0.3428 0.89411 0.0
C653 C 0.77805 0.33701 0.87295 0.0
C654 C 0.74428 0.35914 0.85677 0.0
C655 C 0.75095 0.33556 0.86911 0.0
N656 N 0.78686 0.36017 0.86349 0.0
N657 N 0.76658 0.37355 0.85411 0.0
C658 C 0.79604 0.31582 0.88303 0.0
H659 H 0.81671 0.3196 0.87703 0.0
H660 H 0.78977 0.29616 0.87557 0.0
H661 H 0.79536 0.31558 0.90487 0.0
C662 C 0.87686 0.33086 0.82133 0.0
N663 N 0.86793 0.34707 0.8404 0.0
N664 N 0.84196 0.34713 0.83997 0.0
C665 C 0.83354 0.33116 0.82041 0.0
C666 C 0.85532 0.32015 0.80811 0.0
C667 C 0.90545 0.32644 0.81556 0.0
H668 H 0.91426 0.34503 0.80796 0.0
H669 H 0.91589 0.32123 0.83404 0.0
H670 H 0.90833 0.3104 0.80094 0.0
O671 O 0.87395 0.40785 0.85173 0.0
O672 O 0.82986 0.40729 0.85407 0.0
H673 H 0.79536 0.34829 0.81382 0.0
H674 H 0.80408 0.32284 0.79057 0.0
C675 C 0.80541 0.32902 0.81151 0.0
H676 H 0.79505 0.31407 0.82369 0.0
H677 H 0.76803 0.39214 0.84533 0.0
O678 O 0.92454 0.36867 0.85853 0.0
C679 C 0.85162 0.41934 0.84969 0.0
Co680 Co 0.6276 0.88775 0.86043 0.0
Co681 Co 0.63401 0.82579 0.85934 0.0
C682 C 0.6461 0.85778 0.9075 0.0
O683 O 0.64031 0.87922 0.89599 0.0
O684 O 0.64455 0.83575 0.89562 0.0
C685 C 0.64347 0.9402 0.8722 0.0
O686 O 0.65829 0.92774 0.88936 0.0
C687 C 0.67178 0.78409 0.8543 0.0
C688 C 0.64825 0.74813 0.8466 0.0
C689 C 0.67394 0.75746 0.84873 0.0
N690 N 0.64612 0.79051 0.85482 0.0
N691 N 0.63203 0.76891 0.85042 0.0
C692 C 0.6938 0.80319 0.85968 0.0
H693 H 0.6864 0.82092 0.87011 0.0
H694 H 0.70272 0.80971 0.84084 0.0
H695 H 0.70946 0.79354 0.87155 0.0
C696 C 0.66028 0.88343 0.81279 0.0
N697 N 0.64889 0.87276 0.83427 0.0
N698 N 0.64938 0.84687 0.8324 0.0
C699 C 0.65993 0.84022 0.80897 0.0
C700 C 0.66761 0.8631 0.79603 0.0
C701 C 0.66368 0.91249 0.8085 0.0
H702 H 0.6443 0.92129 0.80341 0.0
H703 H 0.67084 0.92188 0.82691 0.0
H704 H 0.67798 0.91672 0.79252 0.0
O705 O 0.59097 0.87321 0.8564 0.0
O706 O 0.59541 0.82917 0.85732 0.0
H707 H 0.64125 0.80212 0.80506 0.0
H708 H 0.65634 0.81434 0.77531 0.0
C709 C 0.65837 0.81314 0.79705 0.0
H710 H 0.67672 0.80212 0.80144 0.0
H711 H 0.61145 0.76843 0.8496 0.0
O712 O 0.62818 0.92702 0.85716 0.0
C713 C 0.58116 0.84988 0.85597 0.0
Co714 Co 0.88921 0.62014 0.1318 0.0
Co715 Co 0.82787 0.62136 0.13898 0.0
C716 C 0.85513 0.63798 0.08855 0.0
O717 O 0.87813 0.63563 0.0982 0.0
O718 O 0.83478 0.63252 0.10212 0.0
C719 C 0.94155 0.64039 0.12516 0.0
O720 O 0.92934 0.66277 0.12059 0.0
C721 C 0.78426 0.65662 0.14588 0.0
C722 C 0.74992 0.63088 0.15369 0.0
C723 C 0.75762 0.65709 0.15146 0.0
N724 N 0.79228 0.63141 0.14533 0.0
N725 N 0.77167 0.61599 0.14986 0.0
C726 C 0.80175 0.67982 0.14005 0.0
H727 H 0.79152 0.69366 0.12653 0.0
H728 H 0.82065 0.67334 0.13123 0.0
H729 H 0.80614 0.69068 0.15853 0.0
C730 C 0.88679 0.65 0.18259 0.0
N731 N 0.87557 0.63854 0.16129 0.0
N732 N 0.84984 0.63766 0.16464 0.0
C733 C 0.84393 0.64761 0.18851 0.0
C734 C 0.86698 0.65628 0.20043 0.0
C735 C 0.9158 0.6548 0.18561 0.0
H736 H 0.92668 0.63614 0.18212 0.0
H737 H 0.92223 0.66938 0.17066 0.0
H738 H 0.92097 0.66275 0.20528 0.0
O739 O 0.87659 0.58271 0.13285 0.0
O740 O 0.83325 0.58304 0.14084 0.0
H741 H 0.80691 0.6274 0.19419 0.0
H742 H 0.81972 0.64346 0.22325 0.0
C743 C 0.81751 0.64511 0.20155 0.0
H744 H 0.80557 0.66292 0.1974 0.0
H745 H 0.77245 0.59539 0.15043 0.0
O746 O 0.92829 0.61989 0.13112 0.0
C747 C 0.85477 0.57065 0.13694 0.0
Co748 Co 0.37527 0.8991 0.13917 0.0
Co749 Co 0.36635 0.83846 0.1285 0.0
C750 C 0.3648 0.87827 0.08495 0.0
O751 O 0.36923 0.89755 0.10044 0.0
O752 O 0.36296 0.85483 0.09363 0.0
C753 C 0.35783 0.95221 0.13907 0.0
O754 O 0.34068 0.9423 0.1223 0.0
C755 C 0.33285 0.79486 0.11234 0.0
C756 C 0.35495 0.75959 0.12503 0.0
C757 C 0.33161 0.76734 0.11287 0.0
N758 N 0.35554 0.80266 0.12369 0.0
N759 N 0.36888 0.78151 0.13094 0.0
C760 C 0.31216 0.81397 0.10345 0.0
H761 H 0.31617 0.83397 0.11148 0.0
H762 H 0.2923 0.80737 0.10994 0.0
H763 H 0.31239 0.81524 0.08163 0.0
C764 C 0.33758 0.88785 0.18154 0.0
N765 N 0.34959 0.88076 0.159 0.0
N766 N 0.34558 0.85541 0.15472 0.0
C767 C 0.33044 0.84562 0.17429 0.0
C768 C 0.32495 0.86586 0.19199 0.0
C769 C 0.34227 0.9138 0.19505 0.0
H770 H 0.36349 0.91904 0.19394 0.0
H771 H 0.3308 0.92938 0.18485 0.0
H772 H 0.33645 0.91331 0.21608 0.0
O773 O 0.4099 0.88325 0.14755 0.0
O774 O 0.40406 0.84028 0.13915 0.0
H775 H 0.34066 0.80473 0.17775 0.0
H776 H 0.30997 0.81334 0.19397 0.0
C777 C 0.32267 0.81713 0.17663 0.0
H778 H 0.3114 0.8112 0.15892 0.0
H779 H 0.38721 0.78207 0.14032 0.0
O780 O 0.37518 0.93711 0.14906 0.0
C781 C 0.41855 0.85961 0.14654 0.0
Co782 Co 0.62084 0.10084 0.13274 0.0
Co783 Co 0.62291 0.16293 0.13719 0.0
C784 C 0.62871 0.13519 0.08528 0.0
O785 O 0.62705 0.11234 0.09564 0.0
O786 O 0.62736 0.15596 0.09927 0.0
C787 C 0.63508 0.04834 0.11625 0.0
O788 O 0.64448 0.06089 0.09565 0.0
C789 C 0.65309 0.21124 0.13438 0.0
C790 C 0.63082 0.23898 0.15934 0.0
C791 C 0.6539 0.23637 0.14496 0.0
N792 N 0.63058 0.19947 0.14193 0.0
N793 N 0.61695 0.21638 0.15633 0.0
C794 C 0.67492 0.19745 0.12009 0.0
H795 H 0.67194 0.17574 0.1204 0.0
H796 H 0.69432 0.20246 0.129 0.0
H797 H 0.67518 0.20428 0.09932 0.0
C798 C 0.66167 0.10583 0.17447 0.0
N799 N 0.6454 0.11645 0.1563 0.0
N800 N 0.6459 0.14236 0.15856 0.0
C801 C 0.66231 0.14899 0.17845 0.0
C802 C 0.67305 0.12616 0.18895 0.0
C803 C 0.66557 0.0768 0.17827 0.0
H804 H 0.64667 0.06769 0.18461 0.0
H805 H 0.67124 0.06768 0.15923 0.0
H806 H 0.68106 0.07265 0.19315 0.0
O807 O 0.58424 0.11132 0.14326 0.0
O808 O 0.58598 0.15521 0.14653 0.0
H809 H 0.64585 0.18641 0.18946 0.0
H810 H 0.67266 0.17588 0.2101 0.0
C811 C 0.66515 0.17626 0.18957 0.0
H812 H 0.67934 0.18758 0.17739 0.0
H813 H 0.59905 0.2119 0.16548 0.0
O814 O 0.62399 0.06147 0.13452 0.0
C815 C 0.57321 0.13351 0.14798 0.0
H816 H 0.12354 0.17477 0.54561 0.0
H817 H 0.18482 0.11593 0.54818 0.0
H818 H 0.18681 0.11545 0.49996 0.0
H819 H 0.16875 0.12974 0.45708 0.0
H820 H 0.10975 0.19095 0.45495 0.0
H821 H 0.10922 0.19265 0.50305 0.0
C822 C 0.13751 0.16209 0.53554 0.0
C823 C 0.15382 0.14524 0.55019 0.0
C824 C 0.13879 0.16223 0.50799 0.0
C825 C 0.17213 0.12911 0.53715 0.0
C826 C 0.17314 0.12871 0.50964 0.0
C827 C 0.15594 0.14352 0.46725 0.0
C828 C 0.13909 0.15996 0.4527 0.0
C829 C 0.15619 0.14482 0.49486 0.0
C830 C 0.12286 0.1781 0.46588 0.0
C831 C 0.12249 0.17903 0.49332 0.0
H832 H 0.86149 0.17118 0.45668 0.0
H833 H 0.7997 0.11246 0.45441 0.0
H834 H 0.79872 0.11122 0.50262 0.0
H835 H 0.8175 0.125 0.54532 0.0
H836 H 0.87689 0.18618 0.54747 0.0
H837 H 0.87675 0.18846 0.49934 0.0
C838 C 0.84767 0.15832 0.46681 0.0
C839 C 0.83088 0.14175 0.45221 0.0
C840 C 0.84692 0.15808 0.49441 0.0
C841 C 0.81276 0.12542 0.46538 0.0
C842 C 0.8123 0.1246 0.49288 0.0
C843 C 0.83026 0.1389 0.53516 0.0
C844 C 0.8474 0.15517 0.54971 0.0
C845 C 0.82961 0.14052 0.50758 0.0
C846 C 0.86355 0.17346 0.53654 0.0
C847 C 0.86354 0.17471 0.50908 0.0
H848 H 0.82416 0.86369 0.45833 0.0
H849 H 0.88446 0.80435 0.45045 0.0
H850 H 0.88963 0.80269 0.49844 0.0
H851 H 0.87801 0.81969 0.54261 0.0
H852 H 0.81502 0.87635 0.55001 0.0
H853 H 0.80977 0.8775 0.50224 0.0
C854 C 0.83831 0.85031 0.46721 0.0
C855 C 0.85409 0.83437 0.45111 0.0
C856 C 0.84071 0.84908 0.49465 0.0
C857 C 0.87209 0.81677 0.46264 0.0
C858 C 0.87513 0.81592 0.49 0.0
C859 C 0.86312 0.83216 0.53365 0.0
C860 C 0.84707 0.84807 0.54961 0.0
C861 C 0.85974 0.83222 0.50619 0.0
C862 C 0.82754 0.8639 0.538 0.0
C863 C 0.82458 0.86464 0.51073 0.0
H864 H 0.1251 0.87361 0.53002 0.0
H865 H 0.18525 0.81362 0.53191 0.0
H866 H 0.18803 0.81452 0.48364 0.0
H867 H 0.17251 0.83213 0.44087 0.0
H868 H 0.10906 0.88873 0.43976 0.0
H869 H 0.10832 0.8895 0.48784 0.0
C870 C 0.13895 0.8609 0.51982 0.0
C871 C 0.15518 0.84382 0.53426 0.0
C872 C 0.13971 0.86088 0.49229 0.0
C873 C 0.17264 0.82697 0.52099 0.0
C874 C 0.17422 0.8275 0.4935 0.0
C875 C 0.15863 0.84462 0.45129 0.0
C876 C 0.14093 0.86042 0.43704 0.0
C877 C 0.15775 0.84432 0.47893 0.0
C878 C 0.12275 0.87632 0.4505 0.0
C879 C 0.12237 0.87684 0.47791 0.0
H880 H 0.45076 0.11783 0.16593 0.0
H881 H 0.45144 0.20136 0.14992 0.0
H882 H 0.49981 0.20113 0.14796 0.0
H883 H 0.54134 0.17655 0.14773 0.0
H884 H 0.54061 0.09227 0.16093 0.0
H885 H 0.49281 0.09334 0.1672 0.0
C886 C 0.46169 0.13597 0.16245 0.0
C887 C 0.44797 0.15964 0.15836 0.0
C888 C 0.48933 0.13547 0.16064 0.0
C889 C 0.4619 0.18304 0.15336 0.0
C890 C 0.48944 0.18285 0.15214 0.0
C891 C 0.53082 0.15842 0.15226 0.0
C892 C 0.54457 0.13434 0.15377 0.0
C893 C 0.50331 0.15909 0.1553 0.0
C894 C 0.53052 0.11105 0.15951 0.0
C895 C 0.50318 0.11164 0.16311 0.0
H896 H 0.82292 0.53792 0.16491 0.0
H897 H 0.88624 0.53845 0.10815 0.0
H898 H 0.88589 0.49022 0.10689 0.0
H899 H 0.86812 0.44802 0.12237 0.0
H900 H 0.8075 0.44697 0.18192 0.0
H901 H 0.80614 0.49536 0.18166 0.0
C902 C 0.83655 0.5274 0.15223 0.0
C903 C 0.8545 0.54159 0.13657 0.0
C904 C 0.83669 0.49968 0.15211 0.0
C905 C 0.87233 0.52786 0.12046 0.0
C906 C 0.87209 0.50034 0.11967 0.0
C907 C 0.85447 0.45842 0.13513 0.0
C908 C 0.83775 0.44411 0.15194 0.0
C909 C 0.85441 0.48607 0.13544 0.0
C910 C 0.82052 0.4577 0.16879 0.0
C911 C 0.81974 0.4853 0.16864 0.0
H912 H 0.538 0.86076 0.1801 0.0
H913 H 0.54239 0.80459 0.11642 0.0
H914 H 0.49425 0.80489 0.11215 0.0
H915 H 0.45145 0.82441 0.12379 0.0
H916 H 0.44792 0.88463 0.1838 0.0
H917 H 0.49513 0.87949 0.19243 0.0
C918 C 0.5283 0.84822 0.16567 0.0
C919 C 0.54348 0.83254 0.14871 0.0
C920 C 0.50083 0.84949 0.16252 0.0
C921 C 0.53092 0.81677 0.12968 0.0
C922 C 0.50347 0.81701 0.1272 0.0
C923 C 0.46101 0.83609 0.139 0.0
C924 C 0.4464 0.85483 0.15317 0.0
C925 C 0.4883 0.83378 0.14309 0.0
C926 C 0.45894 0.87017 0.17258 0.0
C927 C 0.48587 0.86723 0.17752 0.0
H928 H 0.16505 0.46183 0.16595 0.0
H929 H 0.09486 0.45484 0.11819 0.0
H930 H 0.0949 0.50248 0.11075 0.0
H931 H 0.11567 0.54596 0.1166 0.0
H932 H 0.18322 0.55412 0.1676 0.0
H933 H 0.18361 0.50618 0.17503 0.0
C934 C 0.1497 0.47084 0.15409 0.0
C935 C 0.13007 0.45491 0.14252 0.0
C936 C 0.14952 0.49835 0.15034 0.0
C937 C 0.11009 0.46675 0.12742 0.0
C938 C 0.11019 0.49395 0.12302 0.0
C939 C 0.13046 0.53713 0.12929 0.0
C940 C 0.14965 0.55321 0.14123 0.0
C941 C 0.12995 0.50988 0.13413 0.0
C942 C 0.1684 0.54189 0.15813 0.0
C943 C 0.1686 0.51458 0.16235 0.0
H944 H 0.45965 0.82856 0.87027 0.0
H945 H 0.45593 0.87993 0.80267 0.0
H946 H 0.5041 0.88377 0.8024 0.0
H947 H 0.54723 0.87366 0.82253 0.0
H948 H 0.55114 0.81883 0.88732 0.0
H949 H 0.50293 0.81507 0.88767 0.0
C950 C 0.4695 0.84043 0.85543 0.0
C951 C 0.45448 0.85411 0.83666 0.0
C952 C 0.49713 0.84198 0.855 0.0
C953 C 0.46726 0.86918 0.81725 0.0
C954 C 0.49472 0.87148 0.81717 0.0
C955 C 0.5374 0.86087 0.83661 0.0
C956 C 0.55239 0.84675 0.85505 0.0
C957 C 0.50983 0.85818 0.83612 0.0
C958 C 0.53976 0.82986 0.87299 0.0
C959 C 0.51229 0.82776 0.87322 0.0
H960 H 0.14403 0.45037 0.8092 0.0
H961 H 0.18788 0.44657 0.88196 0.0
H962 H 0.19651 0.49407 0.87985 0.0
H963 H 0.18699 0.5373 0.8601 0.0
H964 H 0.13815 0.54165 0.79072 0.0
H965 H 0.13637 0.49335 0.78826 0.0
C966 C 0.15586 0.45994 0.8243 0.0
C967 C 0.16525 0.4452 0.84573 0.0
C968 C 0.15974 0.48735 0.82353 0.0
C969 C 0.18029 0.45771 0.86539 0.0
C970 C 0.18524 0.4848 0.86418 0.0
C971 C 0.17657 0.52753 0.84412 0.0
C972 C 0.1629 0.54266 0.82549 0.0
C973 C 0.17444 0.49992 0.84374 0.0
C974 C 0.14888 0.53011 0.80515 0.0
C975 C 0.14776 0.50261 0.80385 0.0
H976 H 0.45432 0.12319 0.82129 0.0
H977 H 0.44651 0.17984 0.88428 0.0
H978 H 0.49438 0.18493 0.88652 0.0
H979 H 0.53854 0.17185 0.87183 0.0
H980 H 0.54663 0.11823 0.80635 0.0
H981 H 0.49861 0.11349 0.80356 0.0
C982 C 0.46322 0.13671 0.83535 0.0
C983 C 0.44715 0.15096 0.85272 0.0
C984 C 0.49072 0.14007 0.83606 0.0
C985 C 0.45865 0.16873 0.87067 0.0
C986 C 0.48597 0.17159 0.87204 0.0
C987 C 0.52969 0.15931 0.85686 0.0
C988 C 0.54585 0.14524 0.83948 0.0
C989 C 0.50219 0.15717 0.85502 0.0
C990 C 0.53438 0.1293 0.81989 0.0
C991 C 0.507 0.12648 0.81837 0.0
H992 H 0.87267 0.53822 0.81985 0.0
H993 H 0.81817 0.54992 0.88391 0.0
H994 H 0.81083 0.5022 0.88694 0.0
H995 H 0.82248 0.45698 0.87352 0.0
H996 H 0.88111 0.44522 0.81326 0.0
H997 H 0.88419 0.49301 0.80631 0.0
C998 C 0.85894 0.53026 0.8342 0.0
C999 C 0.84587 0.54742 0.85155 0.0
C1000 C 0.85567 0.5028 0.83653 0.0
C1001 C 0.82847 0.53698 0.8704 0.0
C1002 C 0.82427 0.50975 0.87213 0.0
C1003 C 0.83557 0.46496 0.85859 0.0
C1004 C 0.85138 0.4478 0.84373 0.0
C1005 C 0.8381 0.49244 0.85559 0.0
C1006 C 0.86873 0.45821 0.82483 0.0
C1007 C 0.87052 0.48547 0.82091 0.0
H1008 H 0.16573 0.95041 0.36229 0.0
H1009 H 0.09212 0.94014 0.3206 0.0
H1010 H 0.08594 0.98802 0.31953 0.0
H1011 H 0.09998 0.03244 0.33307 0.0
H1012 H 0.17205 0.04239 0.37747 0.0
H1013 H 0.18028 0.9949 0.37495 0.0
C1014 C 0.14855 0.95867 0.35258 0.0
C1015 C 0.12945 0.9418 0.34145 0.0
C1016 C 0.14469 0.9861 0.35285 0.0
C1017 C 0.10709 0.95275 0.3293 0.0
C1018 C 0.10351 0.9801 0.32877 0.0
C1019 C 0.11758 0.02424 0.34206 0.0
C1020 C 0.13532 0.04087 0.35554 0.0
C1021 C 0.12193 0.99691 0.34093 0.0
C1022 C 0.15797 0.02995 0.36718 0.0
C1023 C 0.16273 0.00283 0.36567 0.0
H1024 H 0.96683 0.10993 0.34046 0.0
H1025 H 0.95062 0.17901 0.38757 0.0
H1026 H -0.00229 0.18975 0.38873 0.0
H1027 H 0.0437 0.1783 0.37804 0.0
H1028 H 0.05981 0.10745 0.33373 0.0
H1029 H 0.01249 0.09881 0.32939 0.0
C1030 C 0.97356 0.12743 0.35087 0.0
C1031 C 0.95526 0.14361 0.36396 0.0
C1032 C 0.00064 0.13321 0.35183 0.0
C1033 C 0.96433 0.16613 0.37746 0.0
C1034 C 0.99124 0.17233 0.37807 0.0
C1035 C 0.03677 0.16122 0.36709 0.0
C1036 C 0.0551 0.14361 0.35606 0.0
C1037 C 0.00959 0.15588 0.36551 0.0
C1038 C 0.04599 0.12126 0.34236 0.0
C1039 C 0.01898 0.11628 0.33994 0.0
H1040 H 0.88375 0.96825 0.34425 0.0
H1041 H 0.80882 0.95484 0.38235 0.0
H1042 H 0.80093 0.00249 0.38383 0.0
H1043 H 0.816 0.0478 0.37548 0.0
H1044 H 0.89242 0.06131 0.3405 0.0
H1045 H 0.89905 0.0136 0.33635 0.0
C1046 C 0.86563 0.97578 0.35276 0.0
C1047 C 0.84685 0.95816 0.36315 0.0
C1048 C 0.86153 0.00311 0.35403 0.0
C1049 C 0.82361 0.9681 0.37438 0.0
C1050 C 0.81907 0.99529 0.37514 0.0
C1051 C 0.83397 0.04029 0.36667 0.0
C1052 C 0.85362 0.05795 0.3581 0.0
C1053 C 0.83796 0.01295 0.36515 0.0
C1054 C 0.87703 0.04802 0.34718 0.0
C1055 C 0.88082 0.0208 0.34486 0.0
H1056 H 0.9382 0.81924 0.3603 0.0
H1057 H 0.91761 0.89583 0.32935 0.0
H1058 H 0.96417 0.90562 0.32138 0.0
H1059 H 0.01077 0.89399 0.32697 0.0
H1060 H 0.03141 0.81877 0.36116 0.0
H1061 H 0.98477 0.80682 0.36409 0.0
C1062 C 0.9439 0.83786 0.35135 0.0
C1063 C 0.9246 0.8568 0.34543 0.0
C1064 C 0.97071 0.84372 0.34775 0.0
C1065 C 0.9322 0.881 0.33417 0.0
C1066 C 0.95879 0.88663 0.32968 0.0
C1067 C 0.00505 0.87488 0.33481 0.0
C1068 C 0.02442 0.85737 0.34401 0.0
C1069 C 0.97823 0.86841 0.33701 0.0
C1070 C 0.01678 0.83271 0.35421 0.0
C1071 C 0.99015 0.82583 0.35583 0.0
H1072 H 0.17233 0.04844 0.62889 0.0
H1073 H 0.09232 0.06047 0.65521 0.0
H1074 H 0.08483 0.01273 0.65553 0.0
H1075 H 0.10016 0.96785 0.64566 0.0
H1076 H 0.17922 0.95615 0.61641 0.0
H1077 H 0.18791 0.00352 0.61979 0.0
C1078 C 0.15339 0.04058 0.6351 0.0
C1079 C 0.13294 0.0579 0.64212 0.0
C1080 C 0.14896 0.01322 0.63437 0.0
C1081 C 0.10836 0.04749 0.64972 0.0
C1082 C 0.10405 0.02023 0.64982 0.0
C1083 C 0.11933 0.97566 0.64016 0.0
C1084 C 0.13897 0.95855 0.63069 0.0
C1085 C 0.12404 0.00295 0.64172 0.0
C1086 C 0.16368 0.96895 0.62353 0.0
C1087 C 0.16871 0.99602 0.62555 0.0
H1088 H 0.01956 0.10384 0.66001 0.0
H1089 H 0.03409 0.17741 0.61957 0.0
H1090 H 0.98684 0.18695 0.61943 0.0
H1091 H 0.94131 0.17317 0.62856 0.0
H1092 H 0.92654 0.09795 0.6657 0.0
H1093 H 0.97402 0.09037 0.66975 0.0
C1094 C 0.01237 0.12203 0.65134 0.0
C1095 C 0.03019 0.13985 0.63974 0.0
C1096 C 0.98518 0.12709 0.65081 0.0
C1097 C 0.02067 0.16328 0.6284 0.0
C1098 C 0.99369 0.16878 0.6284 0.0
C1099 C 0.94853 0.15534 0.63793 0.0
C1100 C 0.93058 0.1362 0.64694 0.0
C1101 C 0.97576 0.15069 0.63927 0.0
C1102 C 0.94009 0.11294 0.65862 0.0
C1103 C 0.96718 0.10857 0.66086 0.0
H1104 H 0.82455 0.94102 0.62826 0.0
H1105 H 0.90232 0.93083 0.66139 0.0
H1106 H 0.90729 0.9787 0.66557 0.0
H1107 H 0.89051 0.02332 0.65769 0.0
H1108 H 0.81415 0.0338 0.62149 0.0
H1109 H 0.80763 0.98587 0.62053 0.0
C1110 C 0.84243 0.94931 0.63672 0.0
C1111 C 0.863 0.93249 0.64465 0.0
C1112 C 0.84548 0.97684 0.63824 0.0
C1113 C 0.88624 0.94343 0.65515 0.0
C1114 C 0.8891 0.97076 0.6575 0.0
C1115 C 0.87236 0.01512 0.64974 0.0
C1116 C 0.85284 0.03202 0.63966 0.0
C1117 C 0.86901 0.98764 0.64876 0.0
C1118 C 0.82953 0.02115 0.6292 0.0
C1119 C 0.82577 0.99378 0.62872 0.0
H1120 H 0.06341 0.88287 0.64425 0.0
H1121 H 0.0633 0.80442 0.61082 0.0
H1122 H 0.01526 0.80277 0.61355 0.0
H1123 H 0.97301 0.82436 0.62374 0.0
H1124 H 0.97337 0.9019 0.65909 0.0
H1125 H 0.02149 0.90312 0.65731 0.0
C1126 C 0.05288 0.86537 0.63768 0.0
C1127 C 0.06691 0.84393 0.62715 0.0
C1128 C 0.02526 0.86441 0.63952 0.0
C1129 C 0.05299 0.82124 0.61903 0.0
C1130 C 0.02549 0.82029 0.62047 0.0
C1131 C 0.98368 0.84147 0.63106 0.0
C1132 C 0.96971 0.86308 0.64129 0.0
C1133 C 0.01139 0.84189 0.63037 0.0
C1134 C 0.98372 0.88499 0.65111 0.0
C1135 C 0.01122 0.88575 0.65006 0.0
H1136 H 0.36078 0.17607 0.94578 0.0
H1137 H 0.3521 0.09163 0.93667 0.0
H1138 H 0.35491 0.08594 0.98428 0.0
H1139 H 0.36261 0.10451 0.02806 0.0
H1140 H 0.37214 0.1888 0.03745 0.0
H1141 H 0.36639 0.19492 0.99004 0.0
C1142 C 0.35909 0.15646 0.95423 0.0
C1143 C 0.35635 0.13431 0.93767 0.0
C1144 C 0.36129 0.15324 0.98159 0.0
C1145 C 0.35433 0.10902 0.94895 0.0
C1146 C 0.35604 0.10571 0.97616 0.0
C1147 C 0.36347 0.12424 0.01978 0.0
C1148 C 0.3681 0.14612 0.03622 0.0
C1149 C 0.36009 0.12762 0.99259 0.0
C1150 C 0.36882 0.17158 0.02518 0.0
C1151 C 0.36545 0.17511 -0.00191 0.0
H1152 H 0.83371 0.35674 0.03436 0.0
H1153 H 0.9149 0.38276 0.03735 0.0
H1154 H 0.91741 0.38113 0.98936 0.0
H1155 H 0.89608 0.37388 0.94647 0.0
H1156 H 0.81453 0.34893 0.94368 0.0
H1157 H 0.81278 0.34837 0.99166 0.0
C1158 C 0.85198 0.36202 0.02454 0.0
C1159 C 0.87402 0.37 0.03943 0.0
C1160 C 0.85327 0.3612 -0.00305 0.0
C1161 C 0.89757 0.37667 0.02637 0.0
C1162 C 0.89906 0.37572 -0.00109 0.0
C1163 C 0.878 0.36808 0.95636 0.0
C1164 C 0.85547 0.36156 0.94149 0.0
C1165 C 0.87697 0.36819 0.984 0.0
C1166 C 0.83215 0.35419 0.95463 0.0
C1167 C 0.8311 0.35389 0.98209 0.0
H1168 H 0.63395 0.82031 0.94341 0.0
H1169 H 0.66957 0.89738 0.93532 0.0
H1170 H 0.67243 0.90158 0.98321 0.0
H1171 H 0.66124 0.885 0.02716 0.0
H1172 H 0.62249 0.80937 0.03516 0.0
H1173 H 0.62436 0.80293 0.9875 0.0
C1174 C 0.64283 0.83777 0.95217 0.0
C1175 C 0.65159 0.85849 0.93597 0.0
C1176 C 0.64346 0.84046 0.97966 0.0
C1177 C 0.66265 0.88121 0.94748 0.0
C1178 C 0.6642 0.88365 0.97482 0.0
C1179 C 0.65341 0.86701 0.01849 0.0
C1180 C 0.64158 0.84778 0.03459 0.0
C1181 C 0.65406 0.86369 0.99108 0.0
C1182 C 0.63144 0.8246 0.02311 0.0
C1183 C 0.63258 0.82086 0.99589 0.0
H1184 H 0.16591 0.63457 0.0127 0.0
H1185 H 0.08751 0.60092 0.01063 0.0
H1186 H 0.08718 0.60378 0.96266 0.0
H1187 H 0.10958 0.61455 0.92124 0.0
H1188 H 0.18834 0.64736 0.92322 0.0
H1189 H 0.18788 0.64643 0.97129 0.0
C1190 C 0.14876 0.62782 0.00178 0.0
C1191 C 0.12684 0.6174 0.01528 0.0
C1192 C 0.14867 0.62952 0.97416 0.0
C1193 C 0.10471 0.60892 0.00078 0.0
C1194 C 0.10446 0.6106 0.97332 0.0
C1195 C 0.12654 0.6218 0.93216 0.0
C1196 C 0.14896 0.63098 0.91859 0.0
C1197 C 0.12636 0.62077 0.9598 0.0
C1198 C 0.17082 0.64013 0.93312 0.0
C1199 C 0.17063 0.63953 0.96063 0.0
H1200 H 0.36346 0.84087 0.0467 0.0
H1201 H 0.36524 0.92541 0.05827 0.0
H1202 H 0.36834 0.93201 0.01066 0.0
H1203 H 0.37237 0.91366 0.96595 0.0
H1204 H 0.37174 0.82901 0.955 0.0
H1205 H 0.36655 0.82265 0.00231 0.0
C1206 C 0.36429 0.8608 0.03888 0.0
C1207 C 0.36416 0.88261 0.0561 0.0
C1208 C 0.36656 0.86443 0.01161 0.0
C1209 C 0.36533 0.90825 0.0455 0.0
C1210 C 0.3672 0.91204 0.01828 0.0
C1211 C 0.3711 0.89381 0.9739 0.0
C1212 C 0.3726 0.87185 0.95693 0.0
C1213 C 0.36819 0.89026 0.00118 0.0
C1214 C 0.37082 0.84628 0.96758 0.0
C1215 C 0.36777 0.8426 0.99465 0.0
H1216 H 0.10024 0.33729 0.97658 0.0
H1217 H 0.17206 0.38206 0.96566 0.0
H1218 H 0.17906 0.38326 0.0132 0.0
H1219 H 0.16347 0.37396 0.05792 0.0
H1220 H 0.09028 0.33163 0.06905 0.0
H1221 H 0.08536 0.32672 0.0214 0.0
C1222 C 0.11749 0.34718 0.9846 0.0
C1223 C 0.13547 0.35972 0.96764 0.0
C1224 C 0.12121 0.34815 0.012 0.0
C1225 C 0.15774 0.37248 0.97832 0.0
C1226 C 0.16184 0.3731 0.0055 0.0
C1227 C 0.14669 0.36326 0.04992 0.0
C1228 C 0.1273 0.35314 0.06694 0.0
C1229 C 0.14354 0.36128 0.02253 0.0
C1230 C 0.10546 0.33964 0.0563 0.0
C1231 C 0.10258 0.33691 0.02908 0.0
H1232 H 0.64457 0.09815 0.04969 0.0
H1233 H 0.61709 0.17857 0.05579 0.0
H1234 H 0.61764 0.18279 0.00795 0.0
H1235 H 0.62487 0.16334 0.96414 0.0
H1236 H 0.65462 0.08381 0.95808 0.0
H1237 H 0.65424 0.07957 0.006 0.0
C1238 C 0.63877 0.11661 0.04055 0.0
C1239 C 0.63066 0.13792 0.05631 0.0
C1240 C 0.63946 0.11906 0.01298 0.0
C1241 C 0.62348 0.16183 0.04415 0.0
C1242 C 0.62369 0.16426 0.01675 0.0
C1243 C 0.63125 0.14511 0.97336 0.0
C1244 C 0.63956 0.12387 0.95764 0.0
C1245 C 0.63144 0.14296 0.00096 0.0
C1246 C 0.64816 0.10047 0.96979 0.0
C1247 C 0.6479 0.098 -0.00281 0.0
H1248 H 0.83246 0.63567 0.96684 0.0
H1249 H 0.91215 0.66592 0.9651 0.0
H1250 H 0.91279 0.66832 0.01312 0.0
H1251 H 0.89204 0.65843 0.05556 0.0
H1252 H 0.81189 0.6293 0.05751 0.0
H1253 H 0.80991 0.63044 0.00949 0.0
C1254 C 0.84988 0.64289 0.97703 0.0
C1255 C 0.87235 0.6502 0.96257 0.0
C1256 C 0.85002 0.64453 0.00465 0.0
C1257 C 0.89464 0.66005 0.97587 0.0
C1258 C 0.89505 0.6614 0.00332 0.0
C1259 C 0.874 0.65269 0.0455 0.0
C1260 C 0.8523 0.64348 0.06009 0.0
C1261 C 0.87303 0.65324 0.0179 0.0
C1262 C 0.82894 0.63645 0.04678 0.0
C1263 C 0.82783 0.63689 0.01929 0.0
H1264 H 0.92829 0.32992 0.12115 0.0
H1265 H 0.92447 0.36987 0.19615 0.0
H1266 H 0.97268 0.37207 0.19786 0.0
H1267 H 0.01584 0.36595 0.17603 0.0
H1268 H 0.01908 0.32461 0.10173 0.0
H1269 H 0.97119 0.31976 0.10171 0.0
C1270 C 0.93801 0.33878 0.13805 0.0
C1271 C 0.92285 0.34993 0.15834 0.0
C1272 C 0.96563 0.34006 0.13886 0.0
C1273 C 0.93571 0.36107 0.18028 0.0
C1274 C 0.96327 0.36255 0.18117 0.0
C1275 C 0.00599 0.35582 0.15993 0.0
C1276 C 0.02086 0.34598 0.13874 0.0
C1277 C 0.97841 0.35271 0.16023 0.0
C1278 C 0.00801 0.33244 0.11822 0.0
C1279 C 0.98063 0.32967 0.11817 0.0
H1280 H 0.94888 0.61966 0.8179 0.0
H1281 H 0.94117 0.65674 0.89408 0.0
H1282 H 0.98909 0.66039 0.89766 0.0
H1283 H 0.03317 0.65125 0.88014 0.0
H1284 H 0.04117 0.61165 0.80529 0.0
H1285 H 0.99317 0.61076 0.80019 0.0
C1286 C 0.95771 0.62879 0.83514 0.0
C1287 C 0.94152 0.63796 0.85566 0.0
C1288 C 0.98532 0.63019 0.8374 0.0
C1289 C 0.95322 0.64945 0.87805 0.0
C1290 C 0.98062 0.65154 0.88012 0.0
C1291 C 0.02442 0.64258 0.86263 0.0
C1292 C 0.04067 0.63151 0.84315 0.0
C1293 C 0.99685 0.64168 0.86008 0.0
C1294 C 0.02905 0.62015 0.82066 0.0
C1295 C 0.00162 0.61969 0.8177 0.0
H1296 H 0.36291 0.02766 0.82471 0.0
H1297 H 0.33676 0.0265 0.90554 0.0
H1298 H 0.33461 0.97831 0.90461 0.0
H1299 H 0.34284 0.93653 0.88174 0.0
H1300 H 0.36737 0.93744 0.80034 0.0
H1301 H 0.3669 0.98567 0.8004 0.0
C1302 C 0.3567 0.01678 0.84205 0.0
C1303 C 0.35037 0.03046 0.86525 0.0
C1304 C 0.35506 0.98909 0.84124 0.0
C1305 C 0.34183 0.01631 0.88747 0.0
C1306 C 0.3406 0.98878 0.88697 0.0
C1307 C 0.34776 0.94727 0.86391 0.0
C1308 C 0.3554 0.93342 0.84119 0.0
C1309 C 0.34751 0.97497 0.86408 0.0
C1310 C 0.3614 0.94761 0.81813 0.0
C1311 C 0.36134 0.97521 0.81819 0.0
H1312 H 0.97002 0.364 0.83376 0.0
H1313 H 0.96983 0.34392 0.91637 0.0
H1314 H 0.01795 0.34389 0.91692 0.0
H1315 H 0.06012 0.35087 0.89439 0.0
H1316 H 0.06076 0.36897 0.81132 0.0
H1317 H 0.01254 0.36824 0.81046 0.0
C1318 C 0.98057 0.35961 0.85184 0.0
C1319 C 0.96641 0.35419 0.87502 0.0
C1320 C 0.00832 0.35922 0.85195 0.0
C1321 C 0.98027 0.34815 0.89824 0.0
C1322 C 0.0078 0.34817 0.89861 0.0
C1323 C 0.04972 0.35457 0.87607 0.0
C1324 C 0.06401 0.36018 0.85303 0.0
C1325 C 0.02203 0.35387 0.87565 0.0
C1326 C 0.05023 0.36458 0.82937 0.0
C1327 C 0.02264 0.36428 0.82886 0.0
H1328 H 0.65133 0.06338 0.88584 0.0
H1329 H 0.63539 0.06093 0.80233 0.0
H1330 H 0.6351 0.01265 0.80348 0.0
H1331 H 0.63653 0.97109 0.82895 0.0
H1332 H 0.65434 0.97405 0.91203 0.0
H1333 H 0.65648 0.0222 0.91037 0.0
C1334 C 0.64809 0.05231 0.86782 0.0
C1335 C 0.64315 0.06573 0.84412 0.0
C1336 C 0.64789 0.02464 0.86863 0.0
C1337 C 0.63929 0.05108 0.82087 0.0
C1338 C 0.6389 0.02346 0.82154 0.0
C1339 C 0.64081 0.98237 0.84663 0.0
C1340 C 0.64489 0.9692 0.87064 0.0
C1341 C 0.64261 0.01005 0.84542 0.0
C1342 C 0.65101 0.98385 0.89335 0.0
C1343 C 0.65226 0.01135 0.89243 0.0
H1344 H 0.06124 0.61579 0.10384 0.0
H1345 H 0.07137 0.68693 0.14942 0.0
H1346 H 0.02325 0.6923 0.15196 0.0
H1347 H 0.97825 0.67552 0.14238 0.0
H1348 H 0.96904 0.60125 0.10171 0.0
H1349 H 0.01686 0.59813 0.09606 0.0
C1350 C 0.05283 0.63264 0.11402 0.0
C1351 C 0.06957 0.65123 0.12603 0.0
C1352 C 0.02539 0.63481 0.11643 0.0
C1353 C 0.05867 0.67258 0.13984 0.0
C1354 C 0.03125 0.67557 0.14134 0.0
C1355 C 0.98685 0.65876 0.13223 0.0
C1356 C 0.97037 0.63869 0.12233 0.0
C1357 C 0.01441 0.65665 0.12991 0.0
C1358 C 0.98151 0.61683 0.10955 0.0
C1359 C 0.00877 0.6151 0.10624 0.0
H1360 H 0.37024 0.06984 0.17894 0.0
H1361 H 0.32382 0.08405 0.10914 0.0
H1362 H 0.3196 0.03649 0.10172 0.0
H1363 H 0.33221 0.99119 0.11297 0.0
H1364 H 0.38168 0.97693 0.18071 0.0
H1365 H 0.38172 0.02414 0.19103 0.0
C1366 C 0.35874 0.06245 0.16246 0.0
C1367 C 0.34717 0.08033 0.14471 0.0
C1368 C 0.35733 0.03511 0.15772 0.0
C1369 C 0.3328 0.07059 0.12309 0.0
C1370 C 0.3305 0.04344 0.11878 0.0
C1371 C 0.34283 -0.00163 0.13012 0.0
C1372 C 0.35704 0.9806 0.14596 0.0
C1373 C 0.34321 0.02555 0.1356 0.0
C1374 C 0.37079 0.99024 0.16805 0.0
C1375 C 0.37075 0.01722 0.17401 0.0
H1376 H 0.63011 0.01711 0.15977 0.0
H1377 H 0.64501 0.01413 0.07612 0.0
H1378 H 0.64709 0.96602 0.07785 0.0
H1379 H 0.64278 0.92471 0.10261 0.0
H1380 H 0.62879 0.92739 0.18646 0.0
H1381 H 0.62863 0.97561 0.18516 0.0
C1382 C 0.63381 0.00591 0.14194 0.0
C1383 C 0.63712 0.0192 0.11781 0.0
C1384 C 0.63525 0.97818 0.14309 0.0
C1385 C 0.64232 0.00442 0.09495 0.0
C1386 C 0.6435 0.97688 0.09589 0.0
C1387 C 0.63991 0.9358 0.12067 0.0
C1388 C 0.6356 0.92235 0.14455 0.0
C1389 C 0.63976 0.96354 0.1198 0.0
C1390 C 0.63215 0.93714 0.16777 0.0
C1391 C 0.63191 0.96477 0.16704 0.0
H1392 H 0.15412 0.25378 0.29563 0.0
H1393 H 0.09815 0.30251 0.33684 0.0
H1394 H 0.09481 0.33174 0.29837 0.0
H1395 H 0.10693 0.34226 0.25224 0.0
H1396 H 0.16299 0.2929 0.21178 0.0
H1397 H 0.16701 0.2647 0.25063 0.0
C1398 C 0.1409 0.27057 0.29602 0.0
C1399 C 0.12584 0.27571 0.31858 0.0
C1400 C 0.13909 0.28702 0.27397 0.0
C1401 C 0.10973 0.29818 0.31945 0.0
C1402 C 0.10775 0.31475 0.29748 0.0
C1403 C 0.11983 0.32519 0.25204 0.0
C1404 C 0.13442 0.3193 0.22931 0.0
C1405 C 0.12211 0.30916 0.2745 0.0
C1406 C 0.15156 0.2976 0.22919 0.0
C1407 C 0.15384 0.28152 0.25131 0.0
H1408 H 0.66393 0.10091 0.23527 0.0
H1409 H 0.72076 0.14927 0.19442 0.0
H1410 H 0.74767 0.15244 0.23435 0.0
H1411 H 0.75328 0.14406 0.28133 0.0
H1412 H 0.69698 0.09566 0.32293 0.0
H1413 H 0.67102 0.09048 0.28244 0.0
C1414 C 0.6825 0.11162 0.23512 0.0
C1415 C 0.69064 0.12464 0.21207 0.0
C1416 C 0.6976 0.11373 0.2583 0.0
C1417 C 0.71437 0.13898 0.21202 0.0
C1418 C 0.72961 0.14091 0.23483 0.0
C1419 C 0.73582 0.13169 0.28144 0.0
C1420 C 0.72746 0.11965 0.30493 0.0
C1421 C 0.72123 0.12869 0.25815 0.0
C1422 C 0.70389 0.10497 0.305 0.0
C1423 C 0.68913 0.10191 0.28185 0.0
H1424 H 0.88297 0.70247 0.31518 0.0
H1425 H 0.82081 0.75355 0.28767 0.0
H1426 H 0.82056 0.73123 0.24515 0.0
H1427 H 0.83854 0.69799 0.21545 0.0
H1428 H 0.89865 0.64459 0.2428 0.0
H1429 H 0.89964 0.66719 0.28561 0.0
C1430 C 0.86932 0.70849 0.29986 0.0
C1431 C 0.85244 0.73003 0.30416 0.0
C1432 C 0.86919 0.6954 0.27541 0.0
C1433 C 0.83463 0.73763 0.28439 0.0
C1434 C 0.83434 0.72477 0.26016 0.0
C1435 C 0.85181 0.69131 0.23084 0.0
C1436 C 0.86882 0.67007 0.22599 0.0
C1437 C 0.85173 0.70388 0.25537 0.0
C1438 C 0.88592 0.66144 0.24597 0.0
C1439 C 0.88624 0.67414 0.27048 0.0
H1440 H 0.28772 0.89834 0.21132 0.0
H1441 H 0.33434 0.83015 0.23128 0.0
H1442 H 0.31248 0.82726 0.27416 0.0
H1443 H 0.27903 0.84361 0.30541 0.0
H1444 H 0.23582 0.91447 0.28679 0.0
H1445 H 0.25788 0.91733 0.24423 0.0
C1446 C 0.29312 0.88294 0.22516 0.0
C1447 C 0.31198 0.86406 0.21798 0.0
C1448 C 0.28122 0.88203 0.25003 0.0
C1449 C 0.31914 0.84435 0.23609 0.0
C1450 C 0.30691 0.8429 0.2607 0.0
C1451 C 0.27475 0.85985 0.29215 0.0
C1452 C 0.25519 0.87827 0.29876 0.0
C1453 C 0.28778 0.86155 0.26781 0.0
C1454 C 0.25004 0.89943 0.28163 0.0
C1455 C 0.26275 0.90118 0.25737 0.0
H1456 H 0.17102 0.70251 0.66387 0.0
H1457 H 0.09897 0.74455 0.68015 0.0
H1458 H 0.09536 0.72275 0.7228 0.0
H1459 H 0.11512 0.69496 0.75724 0.0
H1460 H 0.18442 0.64922 0.73928 0.0
H1461 H 0.18682 0.66928 0.69557 0.0
C1462 C 0.1543 0.70652 0.67658 0.0
C1463 C 0.13598 0.726 0.66949 0.0
C1464 C 0.15211 0.69357 0.70092 0.0
C1465 C 0.11409 0.73062 0.68581 0.0
C1466 C 0.11188 0.71801 0.71012 0.0
C1467 C 0.13048 0.68913 0.74357 0.0
C1468 C 0.15004 0.67136 0.75167 0.0
C1469 C 0.13125 0.7001 0.71823 0.0
C1470 C 0.1697 0.66367 0.73375 0.0
C1471 C 0.17094 0.67491 0.70869 0.0
H1472 H 0.23528 0.14905 0.71418 0.0
H1473 H 0.29551 0.11124 0.66788 0.0
H1474 H 0.3249 0.1102 0.7064 0.0
H1475 H 0.33319 0.12039 0.75337 0.0
H1476 H 0.27309 0.15951 0.7988 0.0
H1477 H 0.24364 0.15971 0.76052 0.0
C1478 C 0.25471 0.14024 0.71271 0.0
C1479 C 0.26314 0.12961 0.68863 0.0
C1480 C 0.27139 0.14005 0.7347 0.0
C1481 C 0.28864 0.11916 0.68647 0.0
C1482 C 0.30536 0.11859 0.70842 0.0
C1483 C 0.31354 0.12871 0.75478 0.0
C1484 C 0.305 0.13964 0.77871 0.0
C1485 C 0.29691 0.12896 0.73265 0.0
C1486 C 0.27984 0.15092 0.78046 0.0
C1487 C 0.26307 0.15101 0.75866 0.0
H1488 H 0.87995 0.32836 0.76133 0.0
H1489 H 0.82914 0.27389 0.80246 0.0
H1490 H 0.82554 0.24643 0.76291 0.0
H1491 H 0.83575 0.2388 0.71648 0.0
H1492 H 0.88685 0.29271 0.67492 0.0
H1493 H 0.89099 0.32002 0.71462 0.0
C1494 C 0.86847 0.31024 0.76162 0.0
C1495 C 0.85503 0.30287 0.78468 0.0
C1496 C 0.86632 0.29474 0.73874 0.0
C1497 C 0.8397 0.27975 0.78485 0.0
C1498 C 0.8376 0.26414 0.76228 0.0
C1499 C 0.84832 0.25614 0.71625 0.0
C1500 C 0.86157 0.26335 0.69304 0.0
C1501 C 0.85072 0.27152 0.73911 0.0
C1502 C 0.87662 0.28669 0.69267 0.0
C1503 C 0.87908 0.30221 0.71536 0.0
H1504 H 0.70889 0.83456 0.77996 0.0
H1505 H 0.65498 0.89492 0.75415 0.0
H1506 H 0.67713 0.89678 0.71122 0.0
H1507 H 0.71268 0.88134 0.68135 0.0
H1508 H 0.76495 0.81975 0.70775 0.0
H1509 H 0.74225 0.81768 0.74993 0.0
C1510 C 0.70186 0.84794 0.76482 0.0
C1511 C 0.68061 0.86472 0.77011 0.0
C1512 C 0.71433 0.84852 0.7403 0.0
C1513 C 0.67173 0.88218 0.75055 0.0
C1514 C 0.68421 0.88307 0.726 0.0
C1515 C 0.7188 0.86737 0.69635 0.0
C1516 C 0.74065 0.85105 0.69184 0.0
C1517 C 0.70562 0.86636 0.72068 0.0
C1518 C 0.74853 0.8329 0.71116 0.0
C1519 C 0.73553 0.83165 0.73522 0.0
H1520 H 0.21022 0.1819 0.29152 0.0
H1521 H 0.23898 0.1302 0.35244 0.0
H1522 H 0.28267 0.12954 0.33189 0.0
H1523 H 0.31208 0.14204 0.29514 0.0
H1524 H 0.28295 0.19379 0.23438 0.0
H1525 H 0.24019 0.19632 0.25627 0.0
C1526 C 0.22618 0.17069 0.30032 0.0
C1527 C 0.22145 0.15579 0.32311 0.0
C1528 C 0.25112 0.17035 0.28835 0.0
C1529 C 0.24216 0.14139 0.33453 0.0
C1530 C 0.26712 0.14111 0.32288 0.0
C1531 C 0.29638 0.154 0.28691 0.0
C1532 C 0.30034 0.16717 0.26292 0.0
C1533 C 0.27174 0.15523 0.29956 0.0
C1534 C 0.28002 0.18279 0.25242 0.0
C1535 C 0.25563 0.18441 0.26502 0.0
H1536 H 0.84838 0.31541 0.29578 0.0
H1537 H 0.79797 0.28412 0.23476 0.0
H1538 H 0.79698 0.24118 0.25663 0.0
H1539 H 0.81292 0.21171 0.29149 0.0
H1540 H 0.86324 0.24254 0.35277 0.0
H1541 H 0.86204 0.28642 0.33249 0.0
C1542 C 0.83691 0.29923 0.28761 0.0
C1543 C 0.82361 0.3026 0.26361 0.0
C1544 C 0.83674 0.27448 0.30013 0.0
C1545 C 0.80879 0.28166 0.253 0.0
C1546 C 0.80817 0.25716 0.2655 0.0
C1547 C 0.82341 0.22815 0.30045 0.0
C1548 C 0.8385 0.22398 0.32322 0.0
C1549 C 0.82253 0.2532 0.28875 0.0
C1550 C 0.85201 0.24529 0.33482 0.0
C1551 C 0.85116 0.27037 0.32336 0.0
H1552 H 0.669 0.85754 0.29582 0.0
H1553 H 0.70075 0.80675 0.23556 0.0
H1554 H 0.74234 0.80354 0.25942 0.0
H1555 H 0.77078 0.81754 0.29583 0.0
H1556 H 0.74 0.86852 0.35633 0.0
H1557 H 0.69699 0.86943 0.33412 0.0
C1558 C 0.68501 0.84559 0.28818 0.0
C1559 C 0.68214 0.83285 0.26379 0.0
C1560 C 0.70906 0.84408 0.30193 0.0
C1561 C 0.70282 0.8173 0.25399 0.0
C1562 C 0.72656 0.81534 0.26767 0.0
C1563 C 0.75451 0.82855 0.30427 0.0
C1564 C 0.75843 0.84316 0.32739 0.0
C1565 C 0.73008 0.82905 0.29137 0.0
C1566 C 0.73738 0.85749 0.33821 0.0
C1567 C 0.71283 0.85792 0.32561 0.0
H1568 H 0.13128 0.68663 0.27287 0.0
H1569 H 0.18207 0.72032 0.21369 0.0
H1570 H 0.18265 0.76253 0.23719 0.0
H1571 H 0.16703 0.79038 0.27358 0.0
H1572 H 0.11577 0.75719 0.33263 0.0
H1573 H 0.11677 0.71429 0.31027 0.0
C1574 C 0.14256 0.70325 0.26537 0.0
C1575 C 0.15634 0.70075 0.24159 0.0
C1576 C 0.14249 0.7275 0.27882 0.0
C1577 C 0.17104 0.72215 0.23187 0.0
C1578 C 0.17139 0.7462 0.24527 0.0
C1579 C 0.15625 0.77364 0.28154 0.0
C1580 C 0.14117 0.77678 0.30444 0.0
C1581 C 0.1569 0.7492 0.26857 0.0
C1582 C 0.12719 0.75514 0.31472 0.0
C1583 C 0.12787 0.73066 0.30204 0.0
H1584 H 0.32099 0.86721 0.69819 0.0
H1585 H 0.29408 0.81072 0.75576 0.0
H1586 H 0.25156 0.80712 0.73331 0.0
H1587 H 0.22129 0.82153 0.69835 0.0
H1588 H 0.24778 0.8781 0.64071 0.0
H1589 H 0.29109 0.88043 0.66208 0.0
C1590 C 0.30584 0.85395 0.70555 0.0
C1591 C 0.31034 0.83955 0.7287 0.0
C1592 C 0.28132 0.85224 0.69269 0.0
C1593 C 0.29071 0.82241 0.73823 0.0
C1594 C 0.26647 0.82028 0.72537 0.0
C1595 C 0.23666 0.83424 0.69049 0.0
C1596 C 0.23145 0.84984 0.6683 0.0
C1597 C 0.26141 0.8354 0.70283 0.0
C1598 C 0.25134 0.86628 0.65813 0.0
C1599 C 0.27611 0.86747 0.67022 0.0
H1600 H 0.11416 0.28926 0.74921 0.0
H1601 H 0.1846 0.32064 0.71292 0.0
H1602 H 0.1872 0.28182 0.6846 0.0
H1603 H 0.17054 0.23796 0.67145 0.0
H1604 H 0.10394 0.20432 0.71233 0.0
H1605 H 0.09926 0.24471 0.73832 0.0
C1606 C 0.13068 0.28738 0.73592 0.0
C1607 C 0.14973 0.30756 0.73413 0.0
C1608 C 0.13282 0.26446 0.72057 0.0
C1609 C 0.16975 0.30535 0.71505 0.0
C1610 C 0.1714 0.28305 0.69892 0.0
C1611 C 0.15538 0.23932 0.68645 0.0
C1612 C 0.13776 0.2182 0.69022 0.0
C1613 C 0.15331 0.26227 0.70184 0.0
C1614 C 0.11769 0.22043 0.70912 0.0
C1615 C 0.11502 0.24347 0.72395 0.0
H1616 H 0.67242 0.12884 0.70167 0.0
H1617 H 0.69232 0.19601 0.74995 0.0
H1618 H 0.73623 0.19818 0.73007 0.0
H1619 H 0.76999 0.17846 0.70173 0.0
H1620 H 0.74888 0.11418 0.64995 0.0
H1621 H 0.70454 0.11293 0.66869 0.0
C1622 C 0.68626 0.14427 0.70725 0.0
C1623 C 0.67946 0.16229 0.72702 0.0
C1624 C 0.71133 0.14548 0.69559 0.0
C1625 C 0.69735 0.18211 0.73454 0.0
C1626 C 0.72243 0.18322 0.72335 0.0
C1627 C 0.75555 0.1645 0.69422 0.0
C1628 C 0.76292 0.14597 0.67505 0.0
C1629 C 0.72982 0.16464 0.70428 0.0
C1630 C 0.74401 0.12797 0.66549 0.0
C1631 C 0.71854 0.12746 0.67593 0.0
H1632 H 0.84294 0.70629 0.75628 0.0
H1633 H 0.88847 0.66077 0.70096 0.0
H1634 H 0.89226 0.6995 0.67205 0.0
H1635 H 0.88271 0.74675 0.66298 0.0
H1636 H 0.8371 0.79136 0.71904 0.0
H1637 H 0.83379 0.75273 0.74769 0.0
C1638 C 0.85418 0.70498 0.73819 0.0
C1639 C 0.86605 0.68101 0.73105 0.0
C1640 C 0.85635 0.72721 0.72194 0.0
C1641 C 0.87937 0.67918 0.70689 0.0
C1642 C 0.88163 0.70131 0.69047 0.0
C1643 C 0.87241 0.74795 0.68166 0.0
C1644 C 0.86039 0.77177 0.68918 0.0
C1645 C 0.87034 0.72551 0.6979 0.0
C1646 C 0.84655 0.77314 0.71305 0.0
C1647 C 0.84462 0.75111 0.72936 0.0
H1648 H 0.28795 0.23427 0.17166 0.0
H1649 H 0.34371 0.26344 0.11459 0.0
H1650 H 0.31915 0.30499 0.1112 0.0
H1651 H 0.2806 0.33239 0.1236 0.0
H1652 H 0.22521 0.30226 0.18061 0.0
H1653 H 0.25091 0.26196 0.18526 0.0
C1654 C 0.29484 0.24987 0.15871 0.0
C1655 C 0.31739 0.24587 0.14328 0.0
C1656 C 0.28063 0.27351 0.15686 0.0
C1657 C 0.32609 0.26604 0.12637 0.0
C1658 C 0.31216 0.2898 0.12454 0.0
C1659 C 0.2744 0.31702 0.13714 0.0
C1660 C 0.25085 0.31999 0.15138 0.0
C1661 C 0.28923 0.29367 0.13953 0.0
C1662 C 0.24292 0.30009 0.16896 0.0
C1663 C 0.25768 0.27709 0.17174 0.0
H1664 H 0.29339 0.67811 0.87342 0.0
H1665 H 0.25141 0.69498 0.80155 0.0
H1666 H 0.27199 0.73864 0.79923 0.0
H1667 H 0.30085 0.77233 0.81829 0.0
H1668 H 0.34658 0.75451 0.88769 0.0
H1669 H 0.32522 0.7112 0.89087 0.0
C1670 C 0.28911 0.69136 0.85719 0.0
C1671 C 0.27103 0.68364 0.83768 0.0
C1672 C 0.30135 0.7163 0.8558 0.0
C1673 C 0.26533 0.70074 0.81672 0.0
C1674 C 0.27701 0.72565 0.81544 0.0
C1675 C 0.30645 0.75883 0.83389 0.0
C1676 C 0.32509 0.76671 0.85283 0.0
C1677 C 0.2949 0.73369 0.83495 0.0
C1678 C 0.33179 0.74918 0.87322 0.0
C1679 C 0.31981 0.72429 0.87487 0.0
H1680 H 0.29215 0.24625 0.89579 0.0
H1681 H 0.33066 0.29027 0.83395 0.0
H1682 H 0.29233 0.31916 0.83048 0.0
H1683 H 0.24644 0.32948 0.84242 0.0
H1684 H 0.20579 0.2806 0.8989 0.0
H1685 H 0.24617 0.25532 0.90659 0.0
C1686 C 0.29198 0.26151 0.88092 0.0
C1687 C 0.31384 0.2652 0.86432 0.0
C1688 C 0.26936 0.27701 0.87794 0.0
C1689 C 0.31394 0.28667 0.84674 0.0
C1690 C 0.29196 0.3031 0.84458 0.0
C1691 C 0.24637 0.31296 0.85602 0.0
C1692 C 0.2232 0.30642 0.86969 0.0
C1693 C 0.26929 0.29795 0.85954 0.0
C1694 C 0.22348 0.28572 0.88805 0.0
C1695 C 0.24649 0.27134 0.89243 0.0
H1696 H 0.69819 0.22484 0.89068 0.0
H1697 H 0.6519 0.2485 0.82345 0.0
H1698 H 0.67398 0.29143 0.82289 0.0
H1699 H 0.7091 0.32073 0.83926 0.0
H1700 H 0.75225 0.29896 0.90921 0.0
H1701 H 0.72851 0.25708 0.91124 0.0
C1702 C 0.69264 0.23959 0.87624 0.0
C1703 C 0.67404 0.23328 0.85667 0.0
C1704 C 0.70503 0.26448 0.87636 0.0
C1705 C 0.66684 0.25263 0.83818 0.0
C1706 C 0.67931 0.27724 0.83795 0.0
C1707 C 0.71305 0.307 0.85517 0.0
C1708 C 0.73341 0.3124 0.87324 0.0
C1709 C 0.69889 0.28315 0.85657 0.0
C1710 C 0.73781 0.29467 0.8941 0.0
C1711 C 0.72399 0.27079 0.89549 0.0
H1712 H 0.68739 0.71066 0.8707 0.0
H1713 H 0.71511 0.77058 0.81708 0.0
H1714 H 0.75743 0.748 0.81293 0.0
H1715 H 0.78745 0.71231 0.82632 0.0
H1716 H 0.76021 0.65264 0.88038 0.0
H1717 H 0.71686 0.67379 0.88262 0.0
C1718 C 0.70268 0.71854 0.85797 0.0
C1719 C 0.69847 0.74243 0.84464 0.0
C1720 C 0.72708 0.70559 0.85592 0.0
C1721 C 0.71827 0.75255 0.8281 0.0
C1722 C 0.74239 0.73959 0.82559 0.0
C1723 C 0.7719 0.70396 0.83844 0.0
C1724 C 0.77694 0.68133 0.85349 0.0
C1725 C 0.74718 0.71634 0.83974 0.0
C1726 C 0.75677 0.67043 0.86905 0.0
C1727 C 0.73201 0.68243 0.87023 0.0
H1728 H 0.70607 0.7679 0.17292 0.0
H1729 H 0.65191 0.73975 0.11366 0.0
H1730 H 0.67508 0.69735 0.11194 0.0
H1731 H 0.71204 0.66894 0.12625 0.0
H1732 H 0.76659 0.6979 0.1848 0.0
H1733 H 0.74191 0.73918 0.18821 0.0
C1734 C 0.69934 0.75236 0.15977 0.0
C1735 C 0.67765 0.75687 0.1432 0.0
C1736 C 0.71282 0.72823 0.15883 0.0
C1737 C 0.66894 0.73675 0.12621 0.0
C1738 C 0.68207 0.71251 0.12535 0.0
C1739 C 0.71824 0.68426 0.1399 0.0
C1740 C 0.74113 0.68071 0.15505 0.0
C1741 C 0.70419 0.70811 0.1414 0.0
C1742 C 0.74922 0.70055 0.17265 0.0
C1743 C 0.7351 0.72407 0.17465 0.0
H1744 H 0.22321 0.71139 0.08615 0.0
H1745 H 0.25446 0.65465 0.14108 0.0
H1746 H 0.29614 0.67904 0.14322 0.0
H1747 H 0.32141 0.71909 0.13346 0.0
H1748 H 0.29197 0.7741 0.0756 0.0
H1749 H 0.25192 0.74791 0.07067 0.0
C1750 C 0.2394 0.70417 0.09812 0.0
C1751 C 0.23572 0.68175 0.11398 0.0
C1752 C 0.26334 0.71828 0.09919 0.0
C1753 C 0.25682 0.67226 0.12917 0.0
C1754 C 0.28058 0.68619 0.13042 0.0
C1755 C 0.30643 0.72529 0.1195 0.0
C1756 C 0.30914 0.74952 0.10618 0.0
C1757 C 0.28373 0.7097 0.11618 0.0
C1758 C 0.28979 0.75664 0.0876 0.0
C1759 C 0.26696 0.74137 0.08438 0.0
H1760 H 0.67455 0.27141 0.11021 0.0
H1761 H 0.68687 0.23626 0.18648 0.0
H1762 H 0.72949 0.25879 0.19051 0.0
H1763 H 0.76356 0.28733 0.17177 0.0
H1764 H 0.74946 0.32696 0.09793 0.0
H1765 H 0.70762 0.30325 0.09295 0.0
C1766 C 0.68653 0.26911 0.12779 0.0
C1767 C 0.67782 0.25249 0.14812 0.0
C1768 C 0.71078 0.28248 0.13012 0.0
C1769 C 0.69332 0.24923 0.17077 0.0
C1770 C 0.71766 0.26195 0.17299 0.0
C1771 C 0.75116 0.29115 0.15479 0.0
C1772 C 0.75974 0.30876 0.13519 0.0
C1773 C 0.72663 0.27849 0.15272 0.0
C1774 C 0.74368 0.313 0.113 0.0
C1775 C 0.71957 0.29971 0.11031 0.0
loop_
_geom_bond_atom_site_label_1
_geom_bond_atom_site_label_2
_geom_bond_distance
_geom_bond_site_symmetry_2
_ccdc_geom_bond_type
Co0 O3 1.970 . S
Co0 N17 1.989 . S
Co0 O25 1.967 . S
Co0 O32 1.920 . S
Co1 O4 1.966 . S
Co1 N10 2.022 . S
Co1 N18 1.993 . S
Co1 O26 1.941 . S
C2 O3 1.258 . S
C2 O4 1.263 . S
O3 Co0 1.970 . S
O3 C2 1.258 . S
O4 Co1 1.966 . S
O4 C2 1.263 . S
C5 O6 1.235 . S
C5 O32 1.289 . S
O6 C5 1.235 . S
C7 C9 1.400 . S
C7 N10 1.351 . S
C7 C12 1.501 . S
C8 C9 1.387 . S
C8 N11 1.341 . S
C9 C7 1.400 . S
C9 C8 1.387 . S
N10 Co1 2.022 . S
N10 C7 1.351 . S
N10 N11 1.365 . S
N11 C8 1.341 . S
N11 N10 1.365 . S
N11 H31 0.862 . S
C12 C7 1.501 . S
C12 H13 0.961 . S
C12 H14 0.961 . S
C12 H15 0.960 . S
H13 C12 0.961 . S
H14 C12 0.961 . S
H15 C12 0.960 . S
C16 N17 1.342 . S
C16 C20 1.401 . S
C16 C21 1.499 . S
N17 Co0 1.989 . S
N17 C16 1.342 . S
N17 N18 1.388 . S
N18 Co1 1.993 . S
N18 N17 1.388 . S
N18 C19 1.346 . S
C19 N18 1.346 . S
C19 C20 1.396 . S
C19 C29 1.510 . S
C20 C16 1.401 . S
C20 C19 1.396 . S
C21 C16 1.499 . S
C21 H22 0.959 . S
C21 H23 0.960 . S
C21 H24 0.961 . S
H22 C21 0.959 . S
H23 C21 0.960 . S
H24 C21 0.961 . S
O25 Co0 1.967 . S
O25 C33 1.258 . S
O26 Co1 1.941 . S
O26 C33 1.266 . S
H27 C29 0.959 . S
H28 C29 0.961 . S
C29 C19 1.510 . S
C29 H27 0.959 . S
C29 H28 0.961 . S
C29 H30 0.960 . S
H30 C29 0.960 . S
H31 N11 0.862 . S
O32 Co0 1.920 . S
O32 C5 1.289 . S
C33 O25 1.258 . S
C33 O26 1.266 . S
Co34 O37 1.970 . S
Co34 N51 1.989 . S
Co34 O59 1.967 . S
Co34 O66 1.920 . S
Co35 O38 1.966 . S
Co35 N44 2.022 . S
Co35 N52 1.993 . S
Co35 O60 1.941 . S
C36 O37 1.258 . S
C36 O38 1.263 . S
O37 Co34 1.970 . S
O37 C36 1.258 . S
O38 Co35 1.966 . S
O38 C36 1.263 . S
C39 O40 1.235 . S
C39 O66 1.289 . S
O40 C39 1.235 . S
C41 C43 1.400 . S
C41 N44 1.351 . S
C41 C46 1.501 . S
C42 C43 1.387 . S
C42 N45 1.341 . S
C43 C41 1.400 . S
C43 C42 1.387 . S
N44 Co35 2.022 . S
N44 C41 1.351 . S
N44 N45 1.365 . S
N45 C42 1.341 . S
N45 N44 1.365 . S
N45 H65 0.862 . S
C46 C41 1.501 . S
C46 H47 0.961 . S
C46 H48 0.961 . S
C46 H49 0.960 . S
H47 C46 0.961 . S
H48 C46 0.961 . S
H49 C46 0.960 . S
C50 N51 1.342 . S
C50 C54 1.401 . S
C50 C55 1.499 . S
N51 Co34 1.989 . S
N51 C50 1.342 . S
N51 N52 1.388 . S
N52 Co35 1.993 . S
N52 N51 1.388 . S
N52 C53 1.346 . S
C53 N52 1.346 . S
C53 C54 1.396 . S
C53 C63 1.510 . S
C54 C50 1.401 . S
C54 C53 1.396 . S
C55 C50 1.499 . S
C55 H56 0.959 . S
C55 H57 0.960 . S
C55 H58 0.961 . S
H56 C55 0.959 . S
H57 C55 0.960 . S
H58 C55 0.961 . S
O59 Co34 1.967 . S
O59 C67 1.258 . S
O60 Co35 1.941 . S
O60 C67 1.266 . S
H61 C63 0.959 . S
H62 C63 0.961 . S
C63 C53 1.510 . S
C63 H61 0.959 . S
C63 H62 0.961 . S
C63 H64 0.960 . S
H64 C63 0.960 . S
H65 N45 0.862 . S
O66 Co34 1.920 . S
O66 C39 1.289 . S
C67 O59 1.258 . S
C67 O60 1.266 . S
Co68 O71 1.970 . S
Co68 N85 1.989 . S
Co68 O93 1.967 . S
Co68 O100 1.920 . S
Co69 O72 1.966 . S
Co69 N78 2.022 . S
Co69 N86 1.993 . S
Co69 O94 1.941 . S
C70 O71 1.258 . S
C70 O72 1.263 . S
O71 Co68 1.970 . S
O71 C70 1.258 . S
O72 Co69 1.966 . S
O72 C70 1.263 . S
C73 O74 1.235 . S
C73 O100 1.289 . S
O74 C73 1.235 . S
C75 C77 1.400 . S
C75 N78 1.351 . S
C75 C80 1.501 . S
C76 C77 1.387 . S
C76 N79 1.341 . S
C77 C75 1.400 . S
C77 C76 1.387 . S
N78 Co69 2.022 . S
N78 C75 1.351 . S
N78 N79 1.365 . S
N79 C76 1.341 . S
N79 N78 1.365 . S
N79 H99 0.862 . S
C80 C75 1.501 . S
C80 H81 0.961 . S
C80 H82 0.961 . S
C80 H83 0.960 . S
H81 C80 0.961 . S
H82 C80 0.961 . S
H83 C80 0.960 . S
C84 N85 1.342 . S
C84 C88 1.401 . S
C84 C89 1.499 . S
N85 Co68 1.989 . S
N85 C84 1.342 . S
N85 N86 1.388 . S
N86 Co69 1.993 . S
N86 N85 1.388 . S
N86 C87 1.346 . S
C87 N86 1.346 . S
C87 C88 1.396 . S
C87 C97 1.510 . S
C88 C84 1.401 . S
C88 C87 1.396 . S
C89 C84 1.499 . S
C89 H90 0.959 . S
C89 H91 0.960 . S
C89 H92 0.961 . S
H90 C89 0.959 . S
H91 C89 0.960 . S
H92 C89 0.961 . S
O93 Co68 1.967 . S
O93 C101 1.258 . S
O94 Co69 1.941 . S
O94 C101 1.266 . S
H95 C97 0.959 . S
H96 C97 0.961 . S
C97 C87 1.510 . S
C97 H95 0.959 . S
C97 H96 0.961 . S
C97 H98 0.960 . S
H98 C97 0.960 . S
H99 N79 0.862 . S
O100 Co68 1.920 . S
O100 C73 1.289 . S
C101 O93 1.258 . S
C101 O94 1.266 . S
Co102 O105 1.970 . S
Co102 N119 1.989 . S
Co102 O127 1.967 . S
Co102 O134 1.920 . S
Co103 O106 1.966 . S
Co103 N112 2.022 . S
Co103 N120 1.993 . S
Co103 O128 1.941 . S
C104 O105 1.258 . S
C104 O106 1.263 . S
O105 Co102 1.970 . S
O105 C104 1.258 . S
O106 Co103 1.966 . S
O106 C104 1.263 . S
C107 O108 1.235 . S
C107 O134 1.289 . S
O108 C107 1.235 . S
C109 C111 1.400 . S
C109 N112 1.351 . S
C109 C114 1.501 . S
C110 C111 1.387 . S
C110 N113 1.341 . S
C111 C109 1.400 . S
C111 C110 1.387 . S
N112 Co103 2.022 . S
N112 C109 1.351 . S
N112 N113 1.365 . S
N113 C110 1.341 . S
N113 N112 1.365 . S
N113 H133 0.862 . S
C114 C109 1.501 . S
C114 H115 0.961 . S
C114 H116 0.961 . S
C114 H117 0.960 . S
H115 C114 0.961 . S
H116 C114 0.961 . S
H117 C114 0.960 . S
C118 N119 1.342 . S
C118 C122 1.401 . S
C118 C123 1.499 . S
N119 Co102 1.989 . S
N119 C118 1.342 . S
N119 N120 1.388 . S
N120 Co103 1.993 . S
N120 N119 1.388 . S
N120 C121 1.346 . S
C121 N120 1.346 . S
C121 C122 1.396 . S
C121 C131 1.510 . S
C122 C118 1.401 . S
C122 C121 1.396 . S
C123 C118 1.499 . S
C123 H124 0.959 . S
C123 H125 0.960 . S
C123 H126 0.961 . S
H124 C123 0.959 . S
H125 C123 0.960 . S
H126 C123 0.961 . S
O127 Co102 1.967 . S
O127 C135 1.258 . S
O128 Co103 1.941 . S
O128 C135 1.266 . S
H129 C131 0.959 . S
H130 C131 0.961 . S
C131 C121 1.510 . S
C131 H129 0.959 . S
C131 H130 0.961 . S
C131 H132 0.960 . S
H132 C131 0.960 . S
H133 N113 0.862 . S
O134 Co102 1.920 . S
O134 C107 1.289 . S
C135 O127 1.258 . S
C135 O128 1.266 . S
Co136 O139 1.970 . S
Co136 N153 1.989 . S
Co136 O161 1.967 . S
Co136 O168 1.920 . S
Co137 O140 1.966 . S
Co137 N146 2.022 . S
Co137 N154 1.993 . S
Co137 O162 1.941 . S
C138 O139 1.258 . S
C138 O140 1.263 . S
O139 Co136 1.970 . S
O139 C138 1.258 . S
O140 Co137 1.966 . S
O140 C138 1.263 . S
C141 O142 1.235 . S
C141 O168 1.289 . S
O142 C141 1.235 . S
C143 C145 1.400 . S
C143 N146 1.351 . S
C143 C148 1.501 . S
C144 C145 1.387 . S
C144 N147 1.341 . S
C145 C143 1.400 . S
C145 C144 1.387 . S
N146 Co137 2.022 . S
N146 C143 1.351 . S
N146 N147 1.365 . S
N147 C144 1.341 . S
N147 N146 1.365 . S
N147 H167 0.862 . S
C148 C143 1.501 . S
C148 H149 0.961 . S
C148 H150 0.961 . S
C148 H151 0.960 . S
H149 C148 0.961 . S
H150 C148 0.961 . S
H151 C148 0.960 . S
C152 N153 1.342 . S
C152 C156 1.401 . S
C152 C157 1.499 . S
N153 Co136 1.989 . S
N153 C152 1.342 . S
N153 N154 1.388 . S
N154 Co137 1.993 . S
N154 N153 1.388 . S
N154 C155 1.346 . S
C155 N154 1.346 . S
C155 C156 1.396 . S
C155 C165 1.510 . S
C156 C152 1.401 . S
C156 C155 1.396 . S
C157 C152 1.499 . S
C157 H158 0.959 . S
C157 H159 0.960 . S
C157 H160 0.961 . S
H158 C157 0.959 . S
H159 C157 0.960 . S
H160 C157 0.961 . S
O161 Co136 1.967 . S
O161 C169 1.258 . S
O162 Co137 1.941 . S
O162 C169 1.266 . S
H163 C165 0.959 . S
H164 C165 0.961 . S
C165 C155 1.510 . S
C165 H163 0.959 . S
C165 H164 0.961 . S
C165 H166 0.960 . S
H166 C165 0.960 . S
H167 N147 0.862 . S
O168 Co136 1.920 . S
O168 C141 1.289 . S
C169 O161 1.258 . S
C169 O162 1.266 . S
Co170 O173 1.970 . S
Co170 N187 1.989 . S
Co170 O195 1.967 . S
Co170 O202 1.920 . S
Co171 O174 1.966 . S
Co171 N180 2.022 . S
Co171 N188 1.993 . S
Co171 O196 1.941 . S
C172 O173 1.258 . S
C172 O174 1.263 . S
O173 Co170 1.970 . S
O173 C172 1.258 . S
O174 Co171 1.966 . S
O174 C172 1.263 . S
C175 O176 1.235 . S
C175 O202 1.289 . S
O176 C175 1.235 . S
C177 C179 1.400 . S
C177 N180 1.351 . S
C177 C182 1.501 . S
C178 C179 1.387 . S
C178 N181 1.341 . S
C179 C177 1.400 . S
C179 C178 1.387 . S
N180 Co171 2.022 . S
N180 C177 1.351 . S
N180 N181 1.365 . S
N181 C178 1.341 . S
N181 N180 1.365 . S
N181 H201 0.862 . S
C182 C177 1.501 . S
C182 H183 0.961 . S
C182 H184 0.961 . S
C182 H185 0.960 . S
H183 C182 0.961 . S
H184 C182 0.961 . S
H185 C182 0.960 . S
C186 N187 1.342 . S
C186 C190 1.401 . S
C186 C191 1.499 . S
N187 Co170 1.989 . S
N187 C186 1.342 . S
N187 N188 1.388 . S
N188 Co171 1.993 . S
N188 N187 1.388 . S
N188 C189 1.346 . S
C189 N188 1.346 . S
C189 C190 1.396 . S
C189 C199 1.510 . S
C190 C186 1.401 . S
C190 C189 1.396 . S
C191 C186 1.499 . S
C191 H192 0.959 . S
C191 H193 0.960 . S
C191 H194 0.961 . S
H192 C191 0.959 . S
H193 C191 0.960 . S
H194 C191 0.961 . S
O195 Co170 1.967 . S
O195 C203 1.258 . S
O196 Co171 1.941 . S
O196 C203 1.266 . S
H197 C199 0.959 . S
H198 C199 0.961 . S
C199 C189 1.510 . S
C199 H197 0.959 . S
C199 H198 0.961 . S
C199 H200 0.960 . S
H200 C199 0.960 . S
H201 N181 0.862 . S
O202 Co170 1.920 . S
O202 C175 1.289 . S
C203 O195 1.258 . S
C203 O196 1.266 . S
Co204 O207 1.970 . S
Co204 N221 1.989 . S
Co204 O229 1.967 . S
Co204 O236 1.920 . S
Co205 O208 1.966 . S
Co205 N214 2.022 . S
Co205 N222 1.993 . S
Co205 O230 1.941 . S
C206 O207 1.258 . S
C206 O208 1.263 . S
O207 Co204 1.970 . S
O207 C206 1.258 . S
O208 Co205 1.966 . S
O208 C206 1.263 . S
C209 O210 1.235 . S
C209 O236 1.289 . S
O210 C209 1.235 . S
C211 C213 1.400 . S
C211 N214 1.351 . S
C211 C216 1.501 . S
C212 C213 1.387 . S
C212 N215 1.341 . S
C213 C211 1.400 . S
C213 C212 1.387 . S
N214 Co205 2.022 . S
N214 C211 1.351 . S
N214 N215 1.365 . S
N215 C212 1.341 . S
N215 N214 1.365 . S
N215 H235 0.862 . S
C216 C211 1.501 . S
C216 H217 0.961 . S
C216 H218 0.961 . S
C216 H219 0.960 . S
H217 C216 0.961 . S
H218 C216 0.961 . S
H219 C216 0.960 . S
C220 N221 1.342 . S
C220 C224 1.401 . S
C220 C225 1.499 . S
N221 Co204 1.989 . S
N221 C220 1.342 . S
N221 N222 1.388 . S
N222 Co205 1.993 . S
N222 N221 1.388 . S
N222 C223 1.346 . S
C223 N222 1.346 . S
C223 C224 1.396 . S
C223 C233 1.510 . S
C224 C220 1.401 . S
C224 C223 1.396 . S
C225 C220 1.499 . S
C225 H226 0.959 . S
C225 H227 0.960 . S
C225 H228 0.961 . S
H226 C225 0.959 . S
H227 C225 0.960 . S
H228 C225 0.961 . S
O229 Co204 1.967 . S
O229 C237 1.258 . S
O230 Co205 1.941 . S
O230 C237 1.266 . S
H231 C233 0.959 . S
H232 C233 0.961 . S
C233 C223 1.510 . S
C233 H231 0.959 . S
C233 H232 0.961 . S
C233 H234 0.960 . S
H234 C233 0.960 . S
H235 N215 0.862 . S
O236 Co204 1.920 . S
O236 C209 1.289 . S
C237 O229 1.258 . S
C237 O230 1.266 . S
Co238 O241 1.970 . S
Co238 N255 1.989 . S
Co238 O263 1.967 . S
Co238 O270 1.920 . S
Co239 O242 1.966 . S
Co239 N248 2.022 . S
Co239 N256 1.993 . S
Co239 O264 1.941 . S
C240 O241 1.258 . S
C240 O242 1.263 . S
O241 Co238 1.970 . S
O241 C240 1.258 . S
O242 Co239 1.966 . S
O242 C240 1.263 . S
C243 O244 1.235 . S
C243 O270 1.289 . S
O244 C243 1.235 . S
C245 C247 1.400 . S
C245 N248 1.351 . S
C245 C250 1.501 . S
C246 C247 1.387 . S
C246 N249 1.341 . S
C247 C245 1.400 . S
C247 C246 1.387 . S
N248 Co239 2.022 . S
N248 C245 1.351 . S
N248 N249 1.365 . S
N249 C246 1.341 . S
N249 N248 1.365 . S
N249 H269 0.862 . S
C250 C245 1.501 . S
C250 H251 0.961 . S
C250 H252 0.961 . S
C250 H253 0.960 . S
H251 C250 0.961 . S
H252 C250 0.961 . S
H253 C250 0.960 . S
C254 N255 1.342 . S
C254 C258 1.401 . S
C254 C259 1.499 . S
N255 Co238 1.989 . S
N255 C254 1.342 . S
N255 N256 1.388 . S
N256 Co239 1.993 . S
N256 N255 1.388 . S
N256 C257 1.346 . S
C257 N256 1.346 . S
C257 C258 1.396 . S
C257 C267 1.510 . S
C258 C254 1.401 . S
C258 C257 1.396 . S
C259 C254 1.499 . S
C259 H260 0.959 . S
C259 H261 0.960 . S
C259 H262 0.961 . S
H260 C259 0.959 . S
H261 C259 0.960 . S
H262 C259 0.961 . S
O263 Co238 1.967 . S
O263 C271 1.258 . S
O264 Co239 1.941 . S
O264 C271 1.266 . S
H265 C267 0.959 . S
H266 C267 0.961 . S
C267 C257 1.510 . S
C267 H265 0.959 . S
C267 H266 0.961 . S
C267 H268 0.960 . S
H268 C267 0.960 . S
H269 N249 0.862 . S
O270 Co238 1.920 . S
O270 C243 1.289 . S
C271 O263 1.258 . S
C271 O264 1.266 . S
Co272 O275 1.970 . S
Co272 N289 1.989 . S
Co272 O297 1.967 . S
Co272 O304 1.920 . S
Co273 O276 1.966 . S
Co273 N282 2.022 . S
Co273 N290 1.993 . S
Co273 O298 1.941 . S
C274 O275 1.258 . S
C274 O276 1.263 . S
O275 Co272 1.970 . S
O275 C274 1.258 . S
O276 Co273 1.966 . S
O276 C274 1.263 . S
C277 O278 1.235 . S
C277 O304 1.289 . S
O278 C277 1.235 . S
C279 C281 1.400 . S
C279 N282 1.351 . S
C279 C284 1.501 . S
C280 C281 1.387 . S
C280 N283 1.341 . S
C281 C279 1.400 . S
C281 C280 1.387 . S
N282 Co273 2.022 . S
N282 C279 1.351 . S
N282 N283 1.365 . S
N283 C280 1.341 . S
N283 N282 1.365 . S
N283 H303 0.862 . S
C284 C279 1.501 . S
C284 H285 0.961 . S
C284 H286 0.961 . S
C284 H287 0.960 . S
H285 C284 0.961 . S
H286 C284 0.961 . S
H287 C284 0.960 . S
C288 N289 1.342 . S
C288 C292 1.401 . S
C288 C293 1.499 . S
N289 Co272 1.989 . S
N289 C288 1.342 . S
N289 N290 1.388 . S
N290 Co273 1.993 . S
N290 N289 1.388 . S
N290 C291 1.346 . S
C291 N290 1.346 . S
C291 C292 1.396 . S
C291 C301 1.510 . S
C292 C288 1.401 . S
C292 C291 1.396 . S
C293 C288 1.499 . S
C293 H294 0.959 . S
C293 H295 0.960 . S
C293 H296 0.961 . S
H294 C293 0.959 . S
H295 C293 0.960 . S
H296 C293 0.961 . S
O297 Co272 1.967 . S
O297 C305 1.258 . S
O298 Co273 1.941 . S
O298 C305 1.266 . S
H299 C301 0.959 . S
H300 C301 0.961 . S
C301 C291 1.510 . S
C301 H299 0.959 . S
C301 H300 0.961 . S
C301 H302 0.960 . S
H302 C301 0.960 . S
H303 N283 0.862 . S
O304 Co272 1.920 . S
O304 C277 1.289 . S
C305 O297 1.258 . S
C305 O298 1.266 . S
Co306 O309 1.970 . S
Co306 N323 1.989 . S
Co306 O331 1.967 . S
Co306 O338 1.920 . S
Co307 O310 1.966 . S
Co307 N316 2.022 . S
Co307 N324 1.993 . S
Co307 O332 1.941 . S
C308 O309 1.258 . S
C308 O310 1.263 . S
O309 Co306 1.970 . S
O309 C308 1.258 . S
O310 Co307 1.966 . S
O310 C308 1.263 . S
C311 O312 1.235 . S
C311 O338 1.289 . S
O312 C311 1.235 . S
C313 C315 1.400 . S
C313 N316 1.351 . S
C313 C318 1.501 . S
C314 C315 1.387 . S
C314 N317 1.341 . S
C315 C313 1.400 . S
C315 C314 1.387 . S
N316 Co307 2.022 . S
N316 C313 1.351 . S
N316 N317 1.365 . S
N317 C314 1.341 . S
N317 N316 1.365 . S
N317 H337 0.862 . S
C318 C313 1.501 . S
C318 H319 0.961 . S
C318 H320 0.961 . S
C318 H321 0.960 . S
H319 C318 0.961 . S
H320 C318 0.961 . S
H321 C318 0.960 . S
C322 N323 1.342 . S
C322 C326 1.401 . S
C322 C327 1.499 . S
N323 Co306 1.989 . S
N323 C322 1.342 . S
N323 N324 1.388 . S
N324 Co307 1.993 . S
N324 N323 1.388 . S
N324 C325 1.346 . S
C325 N324 1.346 . S
C325 C326 1.396 . S
C325 C335 1.510 . S
C326 C322 1.401 . S
C326 C325 1.396 . S
C327 C322 1.499 . S
C327 H328 0.959 . S
C327 H329 0.960 . S
C327 H330 0.961 . S
H328 C327 0.959 . S
H329 C327 0.960 . S
H330 C327 0.961 . S
O331 Co306 1.967 . S
O331 C339 1.258 . S
O332 Co307 1.941 . S
O332 C339 1.266 . S
H333 C335 0.959 . S
H334 C335 0.961 . S
C335 C325 1.510 . S
C335 H333 0.959 . S
C335 H334 0.961 . S
C335 H336 0.960 . S
H336 C335 0.960 . S
H337 N317 0.862 . S
O338 Co306 1.920 . S
O338 C311 1.289 . S
C339 O331 1.258 . S
C339 O332 1.266 . S
Co340 O343 1.970 . S
Co340 N357 1.989 . S
Co340 O365 1.967 . S
Co340 O372 1.920 . S
Co341 O344 1.966 . S
Co341 N350 2.022 . S
Co341 N358 1.993 . S
Co341 O366 1.941 . S
C342 O343 1.258 . S
C342 O344 1.263 . S
O343 Co340 1.970 . S
O343 C342 1.258 . S
O344 Co341 1.966 . S
O344 C342 1.263 . S
C345 O346 1.235 . S
C345 O372 1.289 . S
O346 C345 1.235 . S
C347 C349 1.400 . S
C347 N350 1.351 . S
C347 C352 1.501 . S
C348 C349 1.387 . S
C348 N351 1.341 . S
C349 C347 1.400 . S
C349 C348 1.387 . S
N350 Co341 2.022 . S
N350 C347 1.351 . S
N350 N351 1.365 . S
N351 C348 1.341 . S
N351 N350 1.365 . S
N351 H371 0.862 . S
C352 C347 1.501 . S
C352 H353 0.961 . S
C352 H354 0.961 . S
C352 H355 0.960 . S
H353 C352 0.961 . S
H354 C352 0.961 . S
H355 C352 0.960 . S
C356 N357 1.342 . S
C356 C360 1.401 . S
C356 C361 1.499 . S
N357 Co340 1.989 . S
N357 C356 1.342 . S
N357 N358 1.388 . S
N358 Co341 1.993 . S
N358 N357 1.388 . S
N358 C359 1.346 . S
C359 N358 1.346 . S
C359 C360 1.396 . S
C359 C369 1.510 . S
C360 C356 1.401 . S
C360 C359 1.396 . S
C361 C356 1.499 . S
C361 H362 0.959 . S
C361 H363 0.960 . S
C361 H364 0.961 . S
H362 C361 0.959 . S
H363 C361 0.960 . S
H364 C361 0.961 . S
O365 Co340 1.967 . S
O365 C373 1.258 . S
O366 Co341 1.941 . S
O366 C373 1.266 . S
H367 C369 0.959 . S
H368 C369 0.961 . S
C369 C359 1.510 . S
C369 H367 0.959 . S
C369 H368 0.961 . S
C369 H370 0.960 . S
H370 C369 0.960 . S
H371 N351 0.862 . S
O372 Co340 1.920 . S
O372 C345 1.289 . S
C373 O365 1.258 . S
C373 O366 1.266 . S
Co374 O377 1.970 . S
Co374 N391 1.989 . S
Co374 O399 1.967 . S
Co374 O406 1.920 . S
Co375 O378 1.966 . S
Co375 N384 2.022 . S
Co375 N392 1.993 . S
Co375 O400 1.941 . S
C376 O377 1.258 . S
C376 O378 1.263 . S
O377 Co374 1.970 . S
O377 C376 1.258 . S
O378 Co375 1.966 . S
O378 C376 1.263 . S
C379 O380 1.235 . S
C379 O406 1.289 . S
O380 C379 1.235 . S
C381 C383 1.400 . S
C381 N384 1.351 . S
C381 C386 1.501 . S
C382 C383 1.387 . S
C382 N385 1.341 . S
C383 C381 1.400 . S
C383 C382 1.387 . S
N384 Co375 2.022 . S
N384 C381 1.351 . S
N384 N385 1.365 . S
N385 C382 1.341 . S
N385 N384 1.365 . S
N385 H405 0.862 . S
C386 C381 1.501 . S
C386 H387 0.961 . S
C386 H388 0.961 . S
C386 H389 0.960 . S
H387 C386 0.961 . S
H388 C386 0.961 . S
H389 C386 0.960 . S
C390 N391 1.342 . S
C390 C394 1.401 . S
C390 C395 1.499 . S
N391 Co374 1.989 . S
N391 C390 1.342 . S
N391 N392 1.388 . S
N392 Co375 1.993 . S
N392 N391 1.388 . S
N392 C393 1.346 . S
C393 N392 1.346 . S
C393 C394 1.396 . S
C393 C403 1.510 . S
C394 C390 1.401 . S
C394 C393 1.396 . S
C395 C390 1.499 . S
C395 H396 0.959 . S
C395 H397 0.960 . S
C395 H398 0.961 . S
H396 C395 0.959 . S
H397 C395 0.960 . S
H398 C395 0.961 . S
O399 Co374 1.967 . S
O399 C407 1.258 . S
O400 Co375 1.941 . S
O400 C407 1.266 . S
H401 C403 0.959 . S
H402 C403 0.961 . S
C403 C393 1.510 . S
C403 H401 0.959 . S
C403 H402 0.961 . S
C403 H404 0.960 . S
H404 C403 0.960 . S
H405 N385 0.862 . S
O406 Co374 1.920 . S
O406 C379 1.289 . S
C407 O399 1.258 . S
C407 O400 1.266 . S
Co408 O411 1.970 . S
Co408 N425 1.989 . S
Co408 O433 1.967 . S
Co408 O440 1.920 . S
Co409 O412 1.966 . S
Co409 N418 2.022 . S
Co409 N426 1.993 . S
Co409 O434 1.941 . S
C410 O411 1.258 . S
C410 O412 1.263 . S
O411 Co408 1.970 . S
O411 C410 1.258 . S
O412 Co409 1.966 . S
O412 C410 1.263 . S
C413 O414 1.235 . S
C413 O440 1.289 . S
O414 C413 1.235 . S
C415 C417 1.400 . S
C415 N418 1.351 . S
C415 C420 1.501 . S
C416 C417 1.387 . S
C416 N419 1.341 . S
C417 C415 1.400 . S
C417 C416 1.387 . S
N418 Co409 2.022 . S
N418 C415 1.351 . S
N418 N419 1.365 . S
N419 C416 1.341 . S
N419 N418 1.365 . S
N419 H439 0.862 . S
C420 C415 1.501 . S
C420 H421 0.961 . S
C420 H422 0.961 . S
C420 H423 0.960 . S
H421 C420 0.961 . S
H422 C420 0.961 . S
H423 C420 0.960 . S
C424 N425 1.342 . S
C424 C428 1.401 . S
C424 C429 1.499 . S
N425 Co408 1.989 . S
N425 C424 1.342 . S
N425 N426 1.388 . S
N426 Co409 1.993 . S
N426 N425 1.388 . S
N426 C427 1.346 . S
C427 N426 1.346 . S
C427 C428 1.396 . S
C427 C437 1.510 . S
C428 C424 1.401 . S
C428 C427 1.396 . S
C429 C424 1.499 . S
C429 H430 0.959 . S
C429 H431 0.960 . S
C429 H432 0.961 . S
H430 C429 0.959 . S
H431 C429 0.960 . S
H432 C429 0.961 . S
O433 Co408 1.967 . S
O433 C441 1.258 . S
O434 Co409 1.941 . S
O434 C441 1.266 . S
H435 C437 0.959 . S
H436 C437 0.961 . S
C437 C427 1.510 . S
C437 H435 0.959 . S
C437 H436 0.961 . S
C437 H438 0.960 . S
H438 C437 0.960 . S
H439 N419 0.862 . S
O440 Co408 1.920 . S
O440 C413 1.289 . S
C441 O433 1.258 . S
C441 O434 1.266 . S
Co442 O445 1.970 . S
Co442 N459 1.989 . S
Co442 O467 1.967 . S
Co442 O474 1.920 . S
Co443 O446 1.966 . S
Co443 N452 2.022 . S
Co443 N460 1.993 . S
Co443 O468 1.941 . S
C444 O445 1.258 . S
C444 O446 1.263 . S
O445 Co442 1.970 . S
O445 C444 1.258 . S
O446 Co443 1.966 . S
O446 C444 1.263 . S
C447 O448 1.235 . S
C447 O474 1.289 . S
O448 C447 1.235 . S
C449 C451 1.400 . S
C449 N452 1.351 . S
C449 C454 1.501 . S
C450 C451 1.387 . S
C450 N453 1.341 . S
C451 C449 1.400 . S
C451 C450 1.387 . S
N452 Co443 2.022 . S
N452 C449 1.351 . S
N452 N453 1.365 . S
N453 C450 1.341 . S
N453 N452 1.365 . S
N453 H473 0.862 . S
C454 C449 1.501 . S
C454 H455 0.961 . S
C454 H456 0.961 . S
C454 H457 0.960 . S
H455 C454 0.961 . S
H456 C454 0.961 . S
H457 C454 0.960 . S
C458 N459 1.342 . S
C458 C462 1.401 . S
C458 C463 1.499 . S
N459 Co442 1.989 . S
N459 C458 1.342 . S
N459 N460 1.388 . S
N460 Co443 1.993 . S
N460 N459 1.388 . S
N460 C461 1.346 . S
C461 N460 1.346 . S
C461 C462 1.396 . S
C461 C471 1.510 . S
C462 C458 1.401 . S
C462 C461 1.396 . S
C463 C458 1.499 . S
C463 H464 0.959 . S
C463 H465 0.960 . S
C463 H466 0.961 . S
H464 C463 0.959 . S
H465 C463 0.960 . S
H466 C463 0.961 . S
O467 Co442 1.967 . S
O467 C475 1.258 . S
O468 Co443 1.941 . S
O468 C475 1.266 . S
H469 C471 0.959 . S
H470 C471 0.961 . S
C471 C461 1.510 . S
C471 H469 0.959 . S
C471 H470 0.961 . S
C471 H472 0.960 . S
H472 C471 0.960 . S
H473 N453 0.862 . S
O474 Co442 1.920 . S
O474 C447 1.289 . S
C475 O467 1.258 . S
C475 O468 1.266 . S
Co476 O479 1.970 . S
Co476 N493 1.989 . S
Co476 O501 1.967 . S
Co476 O508 1.920 . S
Co477 O480 1.966 . S
Co477 N486 2.022 . S
Co477 N494 1.993 . S
Co477 O502 1.941 . S
C478 O479 1.258 . S
C478 O480 1.263 . S
O479 Co476 1.970 . S
O479 C478 1.258 . S
O480 Co477 1.966 . S
O480 C478 1.263 . S
C481 O482 1.235 . S
C481 O508 1.289 . S
O482 C481 1.235 . S
C483 C485 1.400 . S
C483 N486 1.351 . S
C483 C488 1.501 . S
C484 C485 1.387 . S
C484 N487 1.341 . S
C485 C483 1.400 . S
C485 C484 1.387 . S
N486 Co477 2.022 . S
N486 C483 1.351 . S
N486 N487 1.365 . S
N487 C484 1.341 . S
N487 N486 1.365 . S
N487 H507 0.862 . S
C488 C483 1.501 . S
C488 H489 0.961 . S
C488 H490 0.961 . S
C488 H491 0.960 . S
H489 C488 0.961 . S
H490 C488 0.961 . S
H491 C488 0.960 . S
C492 N493 1.342 . S
C492 C496 1.401 . S
C492 C497 1.499 . S
N493 Co476 1.989 . S
N493 C492 1.342 . S
N493 N494 1.388 . S
N494 Co477 1.993 . S
N494 N493 1.388 . S
N494 C495 1.346 . S
C495 N494 1.346 . S
C495 C496 1.396 . S
C495 C505 1.510 . S
C496 C492 1.401 . S
C496 C495 1.396 . S
C497 C492 1.499 . S
C497 H498 0.959 . S
C497 H499 0.960 . S
C497 H500 0.961 . S
H498 C497 0.959 . S
H499 C497 0.960 . S
H500 C497 0.961 . S
O501 Co476 1.967 . S
O501 C509 1.258 . S
O502 Co477 1.941 . S
O502 C509 1.266 . S
H503 C505 0.959 . S
H504 C505 0.961 . S
C505 C495 1.510 . S
C505 H503 0.959 . S
C505 H504 0.961 . S
C505 H506 0.960 . S
H506 C505 0.960 . S
H507 N487 0.862 . S
O508 Co476 1.920 . S
O508 C481 1.289 . S
C509 O501 1.258 . S
C509 O502 1.266 . S
Co510 O513 1.970 . S
Co510 N527 1.989 . S
Co510 O535 1.967 . S
Co510 O542 1.920 . S
Co511 O514 1.966 . S
Co511 N520 2.022 . S
Co511 N528 1.993 . S
Co511 O536 1.941 . S
C512 O513 1.258 . S
C512 O514 1.263 . S
O513 Co510 1.970 . S
O513 C512 1.258 . S
O514 Co511 1.966 . S
O514 C512 1.263 . S
C515 O516 1.235 . S
C515 O542 1.289 . S
O516 C515 1.235 . S
C517 C519 1.400 . S
C517 N520 1.351 . S
C517 C522 1.501 . S
C518 C519 1.387 . S
C518 N521 1.341 . S
C519 C517 1.400 . S
C519 C518 1.387 . S
N520 Co511 2.022 . S
N520 C517 1.351 . S
N520 N521 1.365 . S
N521 C518 1.341 . S
N521 N520 1.365 . S
N521 H541 0.862 . S
C522 C517 1.501 . S
C522 H523 0.961 . S
C522 H524 0.961 . S
C522 H525 0.960 . S
H523 C522 0.961 . S
H524 C522 0.961 . S
H525 C522 0.960 . S
C526 N527 1.342 . S
C526 C530 1.401 . S
C526 C531 1.499 . S
N527 Co510 1.989 . S
N527 C526 1.342 . S
N527 N528 1.388 . S
N528 Co511 1.993 . S
N528 N527 1.388 . S
N528 C529 1.346 . S
C529 N528 1.346 . S
C529 C530 1.396 . S
C529 C539 1.510 . S
C530 C526 1.401 . S
C530 C529 1.396 . S
C531 C526 1.499 . S
C531 H532 0.959 . S
C531 H533 0.960 . S
C531 H534 0.961 . S
H532 C531 0.959 . S
H533 C531 0.960 . S
H534 C531 0.961 . S
O535 Co510 1.967 . S
O535 C543 1.258 . S
O536 Co511 1.941 . S
O536 C543 1.266 . S
H537 C539 0.959 . S
H538 C539 0.961 . S
C539 C529 1.510 . S
C539 H537 0.959 . S
C539 H538 0.961 . S
C539 H540 0.960 . S
H540 C539 0.960 . S
H541 N521 0.862 . S
O542 Co510 1.920 . S
O542 C515 1.289 . S
C543 O535 1.258 . S
C543 O536 1.266 . S
Co544 O547 1.970 . S
Co544 N561 1.989 . S
Co544 O569 1.967 . S
Co544 O576 1.920 . S
Co545 O548 1.966 . S
Co545 N554 2.022 . S
Co545 N562 1.993 . S
Co545 O570 1.941 . S
C546 O547 1.258 . S
C546 O548 1.263 . S
O547 Co544 1.970 . S
O547 C546 1.258 . S
O548 Co545 1.966 . S
O548 C546 1.263 . S
C549 O550 1.235 . S
C549 O576 1.289 . S
O550 C549 1.235 . S
C551 C553 1.400 . S
C551 N554 1.351 . S
C551 C556 1.501 . S
C552 C553 1.387 . S
C552 N555 1.341 . S
C553 C551 1.400 . S
C553 C552 1.387 . S
N554 Co545 2.022 . S
N554 C551 1.351 . S
N554 N555 1.365 . S
N555 C552 1.341 . S
N555 N554 1.365 . S
N555 H575 0.862 . S
C556 C551 1.501 . S
C556 H557 0.961 . S
C556 H558 0.961 . S
C556 H559 0.960 . S
H557 C556 0.961 . S
H558 C556 0.961 . S
H559 C556 0.960 . S
C560 N561 1.342 . S
C560 C564 1.401 . S
C560 C565 1.499 . S
N561 Co544 1.989 . S
N561 C560 1.342 . S
N561 N562 1.388 . S
N562 Co545 1.993 . S
N562 N561 1.388 . S
N562 C563 1.346 . S
C563 N562 1.346 . S
C563 C564 1.396 . S
C563 C573 1.510 . S
C564 C560 1.401 . S
C564 C563 1.396 . S
C565 C560 1.499 . S
C565 H566 0.959 . S
C565 H567 0.960 . S
C565 H568 0.961 . S
H566 C565 0.959 . S
H567 C565 0.960 . S
H568 C565 0.961 . S
O569 Co544 1.967 . S
O569 C577 1.258 . S
O570 Co545 1.941 . S
O570 C577 1.266 . S
H571 C573 0.959 . S
H572 C573 0.961 . S
C573 C563 1.510 . S
C573 H571 0.959 . S
C573 H572 0.961 . S
C573 H574 0.960 . S
H574 C573 0.960 . S
H575 N555 0.862 . S
O576 Co544 1.920 . S
O576 C549 1.289 . S
C577 O569 1.258 . S
C577 O570 1.266 . S
Co578 O581 1.970 . S
Co578 N595 1.989 . S
Co578 O603 1.967 . S
Co578 O610 1.920 . S
Co579 O582 1.966 . S
Co579 N588 2.022 . S
Co579 N596 1.993 . S
Co579 O604 1.941 . S
C580 O581 1.258 . S
C580 O582 1.263 . S
O581 Co578 1.970 . S
O581 C580 1.258 . S
O582 Co579 1.966 . S
O582 C580 1.263 . S
C583 O584 1.235 . S
C583 O610 1.289 . S
O584 C583 1.235 . S
C585 C587 1.400 . S
C585 N588 1.351 . S
C585 C590 1.501 . S
C586 C587 1.387 . S
C586 N589 1.341 . S
C587 C585 1.400 . S
C587 C586 1.387 . S
N588 Co579 2.022 . S
N588 C585 1.351 . S
N588 N589 1.365 . S
N589 C586 1.341 . S
N589 N588 1.365 . S
N589 H609 0.862 . S
C590 C585 1.501 . S
C590 H591 0.961 . S
C590 H592 0.961 . S
C590 H593 0.960 . S
H591 C590 0.961 . S
H592 C590 0.961 . S
H593 C590 0.960 . S
C594 N595 1.342 . S
C594 C598 1.401 . S
C594 C599 1.499 . S
N595 Co578 1.989 . S
N595 C594 1.342 . S
N595 N596 1.388 . S
N596 Co579 1.993 . S
N596 N595 1.388 . S
N596 C597 1.346 . S
C597 N596 1.346 . S
C597 C598 1.396 . S
C597 C607 1.510 . S
C598 C594 1.401 . S
C598 C597 1.396 . S
C599 C594 1.499 . S
C599 H600 0.959 . S
C599 H601 0.960 . S
C599 H602 0.961 . S
H600 C599 0.959 . S
H601 C599 0.960 . S
H602 C599 0.961 . S
O603 Co578 1.967 . S
O603 C611 1.258 . S
O604 Co579 1.941 . S
O604 C611 1.266 . S
H605 C607 0.959 . S
H606 C607 0.961 . S
C607 C597 1.510 . S
C607 H605 0.959 . S
C607 H606 0.961 . S
C607 H608 0.960 . S
H608 C607 0.960 . S
H609 N589 0.862 . S
O610 Co578 1.920 . S
O610 C583 1.289 . S
C611 O603 1.258 . S
C611 O604 1.266 . S
Co612 O615 1.970 . S
Co612 N629 1.989 . S
Co612 O637 1.967 . S
Co612 O644 1.920 . S
Co613 O616 1.966 . S
Co613 N622 2.022 . S
Co613 N630 1.993 . S
Co613 O638 1.941 . S
C614 O615 1.258 . S
C614 O616 1.263 . S
O615 Co612 1.970 . S
O615 C614 1.258 . S
O616 Co613 1.966 . S
O616 C614 1.263 . S
C617 O618 1.235 . S
C617 O644 1.289 . S
O618 C617 1.235 . S
C619 C621 1.400 . S
C619 N622 1.351 . S
C619 C624 1.501 . S
C620 C621 1.387 . S
C620 N623 1.341 . S
C621 C619 1.400 . S
C621 C620 1.387 . S
N622 Co613 2.022 . S
N622 C619 1.351 . S
N622 N623 1.365 . S
N623 C620 1.341 . S
N623 N622 1.365 . S
N623 H643 0.862 . S
C624 C619 1.501 . S
C624 H625 0.961 . S
C624 H626 0.961 . S
C624 H627 0.960 . S
H625 C624 0.961 . S
H626 C624 0.961 . S
H627 C624 0.960 . S
C628 N629 1.342 . S
C628 C632 1.401 . S
C628 C633 1.499 . S
N629 Co612 1.989 . S
N629 C628 1.342 . S
N629 N630 1.388 . S
N630 Co613 1.993 . S
N630 N629 1.388 . S
N630 C631 1.346 . S
C631 N630 1.346 . S
C631 C632 1.396 . S
C631 C641 1.510 . S
C632 C628 1.401 . S
C632 C631 1.396 . S
C633 C628 1.499 . S
C633 H634 0.959 . S
C633 H635 0.960 . S
C633 H636 0.961 . S
H634 C633 0.959 . S
H635 C633 0.960 . S
H636 C633 0.961 . S
O637 Co612 1.967 . S
O637 C645 1.258 . S
O638 Co613 1.941 . S
O638 C645 1.266 . S
H639 C641 0.959 . S
H640 C641 0.961 . S
C641 C631 1.510 . S
C641 H639 0.959 . S
C641 H640 0.961 . S
C641 H642 0.960 . S
H642 C641 0.960 . S
H643 N623 0.862 . S
O644 Co612 1.920 . S
O644 C617 1.289 . S
C645 O637 1.258 . S
C645 O638 1.266 . S
Co646 O649 1.970 . S
Co646 N663 1.989 . S
Co646 O671 1.967 . S
Co646 O678 1.920 . S
Co647 O650 1.966 . S
Co647 N656 2.022 . S
Co647 N664 1.993 . S
Co647 O672 1.941 . S
C648 O649 1.258 . S
C648 O650 1.263 . S
O649 Co646 1.970 . S
O649 C648 1.258 . S
O650 Co647 1.966 . S
O650 C648 1.263 . S
C651 O652 1.235 . S
C651 O678 1.289 . S
O652 C651 1.235 . S
C653 C655 1.400 . S
C653 N656 1.351 . S
C653 C658 1.501 . S
C654 C655 1.387 . S
C654 N657 1.341 . S
C655 C653 1.400 . S
C655 C654 1.387 . S
N656 Co647 2.022 . S
N656 C653 1.351 . S
N656 N657 1.365 . S
N657 C654 1.341 . S
N657 N656 1.365 . S
N657 H677 0.862 . S
C658 C653 1.501 . S
C658 H659 0.961 . S
C658 H660 0.961 . S
C658 H661 0.960 . S
H659 C658 0.961 . S
H660 C658 0.961 . S
H661 C658 0.960 . S
C662 N663 1.342 . S
C662 C666 1.401 . S
C662 C667 1.499 . S
N663 Co646 1.989 . S
N663 C662 1.342 . S
N663 N664 1.388 . S
N664 Co647 1.993 . S
N664 N663 1.388 . S
N664 C665 1.346 . S
C665 N664 1.346 . S
C665 C666 1.396 . S
C665 C675 1.510 . S
C666 C662 1.401 . S
C666 C665 1.396 . S
C667 C662 1.499 . S
C667 H668 0.959 . S
C667 H669 0.960 . S
C667 H670 0.961 . S
H668 C667 0.959 . S
H669 C667 0.960 . S
H670 C667 0.961 . S
O671 Co646 1.967 . S
O671 C679 1.258 . S
O672 Co647 1.941 . S
O672 C679 1.266 . S
H673 C675 0.959 . S
H674 C675 0.961 . S
C675 C665 1.510 . S
C675 H673 0.959 . S
C675 H674 0.961 . S
C675 H676 0.960 . S
H676 C675 0.960 . S
H677 N657 0.862 . S
O678 Co646 1.920 . S
O678 C651 1.289 . S
C679 O671 1.258 . S
C679 O672 1.266 . S
Co680 O683 1.970 . S
Co680 N697 1.989 . S
Co680 O705 1.967 . S
Co680 O712 1.920 . S
Co681 O684 1.966 . S
Co681 N690 2.022 . S
Co681 N698 1.993 . S
Co681 O706 1.941 . S
C682 O683 1.258 . S
C682 O684 1.263 . S
O683 Co680 1.970 . S
O683 C682 1.258 . S
O684 Co681 1.966 . S
O684 C682 1.263 . S
C685 O686 1.235 . S
C685 O712 1.289 . S
O686 C685 1.235 . S
C687 C689 1.400 . S
C687 N690 1.351 . S
C687 C692 1.501 . S
C688 C689 1.387 . S
C688 N691 1.341 . S
C689 C687 1.400 . S
C689 C688 1.387 . S
N690 Co681 2.022 . S
N690 C687 1.351 . S
N690 N691 1.365 . S
N691 C688 1.341 . S
N691 N690 1.365 . S
N691 H711 0.862 . S
C692 C687 1.501 . S
C692 H693 0.961 . S
C692 H694 0.961 . S
C692 H695 0.960 . S
H693 C692 0.961 . S
H694 C692 0.961 . S
H695 C692 0.960 . S
C696 N697 1.342 . S
C696 C700 1.401 . S
C696 C701 1.499 . S
N697 Co680 1.989 . S
N697 C696 1.342 . S
N697 N698 1.388 . S
N698 Co681 1.993 . S
N698 N697 1.388 . S
N698 C699 1.346 . S
C699 N698 1.346 . S
C699 C700 1.396 . S
C699 C709 1.510 . S
C700 C696 1.401 . S
C700 C699 1.396 . S
C701 C696 1.499 . S
C701 H702 0.959 . S
C701 H703 0.960 . S
C701 H704 0.961 . S
H702 C701 0.959 . S
H703 C701 0.960 . S
H704 C701 0.961 . S
O705 Co680 1.967 . S
O705 C713 1.258 . S
O706 Co681 1.941 . S
O706 C713 1.266 . S
H707 C709 0.959 . S
H708 C709 0.961 . S
C709 C699 1.510 . S
C709 H707 0.959 . S
C709 H708 0.961 . S
C709 H710 0.960 . S
H710 C709 0.960 . S
H711 N691 0.862 . S
O712 Co680 1.920 . S
O712 C685 1.289 . S
C713 O705 1.258 . S
C713 O706 1.266 . S
Co714 O717 1.970 . S
Co714 N731 1.989 . S
Co714 O739 1.967 . S
Co714 O746 1.920 . S
Co715 O718 1.966 . S
Co715 N724 2.022 . S
Co715 N732 1.993 . S
Co715 O740 1.941 . S
C716 O717 1.258 . S
C716 O718 1.263 . S
O717 Co714 1.970 . S
O717 C716 1.258 . S
O718 Co715 1.966 . S
O718 C716 1.263 . S
C719 O720 1.235 . S
C719 O746 1.289 . S
O720 C719 1.235 . S
C721 C723 1.400 . S
C721 N724 1.351 . S
C721 C726 1.501 . S
C722 C723 1.387 . S
C722 N725 1.341 . S
C723 C721 1.400 . S
C723 C722 1.387 . S
N724 Co715 2.022 . S
N724 C721 1.351 . S
N724 N725 1.365 . S
N725 C722 1.341 . S
N725 N724 1.365 . S
N725 H745 0.862 . S
C726 C721 1.501 . S
C726 H727 0.961 . S
C726 H728 0.961 . S
C726 H729 0.960 . S
H727 C726 0.961 . S
H728 C726 0.961 . S
H729 C726 0.960 . S
C730 N731 1.342 . S
C730 C734 1.401 . S
C730 C735 1.499 . S
N731 Co714 1.989 . S
N731 C730 1.342 . S
N731 N732 1.388 . S
N732 Co715 1.993 . S
N732 N731 1.388 . S
N732 C733 1.346 . S
C733 N732 1.346 . S
C733 C734 1.396 . S
C733 C743 1.510 . S
C734 C730 1.401 . S
C734 C733 1.396 . S
C735 C730 1.499 . S
C735 H736 0.959 . S
C735 H737 0.960 . S
C735 H738 0.961 . S
H736 C735 0.959 . S
H737 C735 0.960 . S
H738 C735 0.961 . S
O739 Co714 1.967 . S
O739 C747 1.258 . S
O740 Co715 1.941 . S
O740 C747 1.266 . S
H741 C743 0.959 . S
H742 C743 0.961 . S
C743 C733 1.510 . S
C743 H741 0.959 . S
C743 H742 0.961 . S
C743 H744 0.960 . S
H744 C743 0.960 . S
H745 N725 0.862 . S
O746 Co714 1.920 . S
O746 C719 1.289 . S
C747 O739 1.258 . S
C747 O740 1.266 . S
Co748 O751 1.970 . S
Co748 N765 1.989 . S
Co748 O773 1.967 . S
Co748 O780 1.920 . S
Co749 O752 1.966 . S
Co749 N758 2.022 . S
Co749 N766 1.993 . S
Co749 O774 1.941 . S
C750 O751 1.258 . S
C750 O752 1.263 . S
O751 Co748 1.970 . S
O751 C750 1.258 . S
O752 Co749 1.966 . S
O752 C750 1.263 . S
C753 O754 1.235 . S
C753 O780 1.289 . S
O754 C753 1.235 . S
C755 C757 1.400 . S
C755 N758 1.351 . S
C755 C760 1.501 . S
C756 C757 1.387 . S
C756 N759 1.341 . S
C757 C755 1.400 . S
C757 C756 1.387 . S
N758 Co749 2.022 . S
N758 C755 1.351 . S
N758 N759 1.365 . S
N759 C756 1.341 . S
N759 N758 1.365 . S
N759 H779 0.862 . S
C760 C755 1.501 . S
C760 H761 0.961 . S
C760 H762 0.961 . S
C760 H763 0.960 . S
H761 C760 0.961 . S
H762 C760 0.961 . S
H763 C760 0.960 . S
C764 N765 1.342 . S
C764 C768 1.401 . S
C764 C769 1.499 . S
N765 Co748 1.989 . S
N765 C764 1.342 . S
N765 N766 1.388 . S
N766 Co749 1.993 . S
N766 N765 1.388 . S
N766 C767 1.346 . S
C767 N766 1.346 . S
C767 C768 1.396 . S
C767 C777 1.510 . S
C768 C764 1.401 . S
C768 C767 1.396 . S
C769 C764 1.499 . S
C769 H770 0.959 . S
C769 H771 0.960 . S
C769 H772 0.961 . S
H770 C769 0.959 . S
H771 C769 0.960 . S
H772 C769 0.961 . S
O773 Co748 1.967 . S
O773 C781 1.258 . S
O774 Co749 1.941 . S
O774 C781 1.266 . S
H775 C777 0.959 . S
H776 C777 0.961 . S
C777 C767 1.510 . S
C777 H775 0.959 . S
C777 H776 0.961 . S
C777 H778 0.960 . S
H778 C777 0.960 . S
H779 N759 0.862 . S
O780 Co748 1.920 . S
O780 C753 1.289 . S
C781 O773 1.258 . S
C781 O774 1.266 . S
Co782 O785 1.970 . S
Co782 N799 1.989 . S
Co782 O807 1.967 . S
Co782 O814 1.920 . S
Co783 O786 1.966 . S
Co783 N792 2.022 . S
Co783 N800 1.993 . S
Co783 O808 1.941 . S
C784 O785 1.258 . S
C784 O786 1.263 . S
O785 Co782 1.970 . S
O785 C784 1.258 . S
O786 Co783 1.966 . S
O786 C784 1.263 . S
C787 O788 1.235 . S
C787 O814 1.289 . S
O788 C787 1.235 . S
C789 C791 1.400 . S
C789 N792 1.351 . S
C789 C794 1.501 . S
C790 C791 1.387 . S
C790 N793 1.341 . S
C791 C789 1.400 . S
C791 C790 1.387 . S
N792 Co783 2.022 . S
N792 C789 1.351 . S
N792 N793 1.365 . S
N793 C790 1.341 . S
N793 N792 1.365 . S
N793 H813 0.862 . S
C794 C789 1.501 . S
C794 H795 0.961 . S
C794 H796 0.961 . S
C794 H797 0.960 . S
H795 C794 0.961 . S
H796 C794 0.961 . S
H797 C794 0.960 . S
C798 N799 1.342 . S
C798 C802 1.401 . S
C798 C803 1.499 . S
N799 Co782 1.989 . S
N799 C798 1.342 . S
N799 N800 1.388 . S
N800 Co783 1.993 . S
N800 N799 1.388 . S
N800 C801 1.346 . S
C801 N800 1.346 . S
C801 C802 1.396 . S
C801 C811 1.510 . S
C802 C798 1.401 . S
C802 C801 1.396 . S
C803 C798 1.499 . S
C803 H804 0.959 . S
C803 H805 0.960 . S
C803 H806 0.961 . S
H804 C803 0.959 . S
H805 C803 0.960 . S
H806 C803 0.961 . S
O807 Co782 1.967 . S
O807 C815 1.258 . S
O808 Co783 1.941 . S
O808 C815 1.266 . S
H809 C811 0.959 . S
H810 C811 0.961 . S
C811 C801 1.510 . S
C811 H809 0.959 . S
C811 H810 0.961 . S
C811 H812 0.960 . S
H812 C811 0.960 . S
H813 N793 0.862 . S
O814 Co782 1.920 . S
O814 C787 1.289 . S
C815 O807 1.258 . S
C815 O808 1.266 . S
H816 C822 0.930 . S
H817 C825 0.930 . S
H818 C826 0.930 . S
H819 C827 0.930 . S
H820 C830 0.930 . S
H821 C831 0.930 . S
C822 H816 0.930 . S
C822 C823 1.355 . S
C822 C824 1.415 . S
C823 C822 1.355 . S
C823 C825 1.419 . S
C824 C822 1.415 . S
C824 C829 1.425 . S
C824 C831 1.409 . S
C825 H817 0.930 . S
C825 C823 1.419 . S
C825 C826 1.362 . S
C826 H818 0.930 . S
C826 C825 1.362 . S
C826 C829 1.409 . S
C827 H819 0.930 . S
C827 C828 1.355 . S
C827 C829 1.415 . S
C828 C827 1.355 . S
C828 C830 1.419 . S
C829 C824 1.425 . S
C829 C826 1.409 . S
C829 C827 1.415 . S
C830 H820 0.930 . S
C830 C828 1.419 . S
C830 C831 1.362 . S
C831 H821 0.930 . S
C831 C824 1.409 . S
C831 C830 1.362 . S
H832 C838 0.930 . S
H833 C841 0.930 . S
H834 C842 0.930 . S
H835 C843 0.930 . S
H836 C846 0.930 . S
H837 C847 0.930 . S
C838 H832 0.930 . S
C838 C839 1.355 . S
C838 C840 1.415 . S
C839 C838 1.355 . S
C839 C841 1.419 . S
C840 C838 1.415 . S
C840 C845 1.425 . S
C840 C847 1.409 . S
C841 H833 0.930 . S
C841 C839 1.419 . S
C841 C842 1.362 . S
C842 H834 0.930 . S
C842 C841 1.362 . S
C842 C845 1.409 . S
C843 H835 0.930 . S
C843 C844 1.355 . S
C843 C845 1.415 . S
C844 C843 1.355 . S
C844 C846 1.419 . S
C845 C840 1.425 . S
C845 C842 1.409 . S
C845 C843 1.415 . S
C846 H836 0.930 . S
C846 C844 1.419 . S
C846 C847 1.362 . S
C847 H837 0.930 . S
C847 C840 1.409 . S
C847 C846 1.362 . S
H848 C854 0.930 . S
H849 C857 0.930 . S
H850 C858 0.930 . S
H851 C859 0.930 . S
H852 C862 0.930 . S
H853 C863 0.930 . S
C854 H848 0.930 . S
C854 C855 1.355 . S
C854 C856 1.415 . S
C855 C854 1.355 . S
C855 C857 1.419 . S
C856 C854 1.415 . S
C856 C861 1.425 . S
C856 C863 1.409 . S
C857 H849 0.930 . S
C857 C855 1.419 . S
C857 C858 1.362 . S
C858 H850 0.930 . S
C858 C857 1.362 . S
C858 C861 1.409 . S
C859 H851 0.930 . S
C859 C860 1.355 . S
C859 C861 1.415 . S
C860 C859 1.355 . S
C860 C862 1.419 . S
C861 C856 1.425 . S
C861 C858 1.409 . S
C861 C859 1.415 . S
C862 H852 0.930 . S
C862 C860 1.419 . S
C862 C863 1.362 . S
C863 H853 0.930 . S
C863 C856 1.409 . S
C863 C862 1.362 . S
H864 C870 0.930 . S
H865 C873 0.930 . S
H866 C874 0.930 . S
H867 C875 0.930 . S
H868 C878 0.930 . S
H869 C879 0.930 . S
C870 H864 0.930 . S
C870 C871 1.355 . S
C870 C872 1.415 . S
C871 C870 1.355 . S
C871 C873 1.419 . S
C872 C870 1.415 . S
C872 C877 1.425 . S
C872 C879 1.409 . S
C873 H865 0.930 . S
C873 C871 1.419 . S
C873 C874 1.362 . S
C874 H866 0.930 . S
C874 C873 1.362 . S
C874 C877 1.409 . S
C875 H867 0.930 . S
C875 C876 1.355 . S
C875 C877 1.415 . S
C876 C875 1.355 . S
C876 C878 1.419 . S
C877 C872 1.425 . S
C877 C874 1.409 . S
C877 C875 1.415 . S
C878 H868 0.930 . S
C878 C876 1.419 . S
C878 C879 1.362 . S
C879 H869 0.930 . S
C879 C872 1.409 . S
C879 C878 1.362 . S
H880 C886 0.930 . S
H881 C889 0.930 . S
H882 C890 0.930 . S
H883 C891 0.930 . S
H884 C894 0.930 . S
H885 C895 0.930 . S
C886 H880 0.930 . S
C886 C887 1.355 . S
C886 C888 1.415 . S
C887 C886 1.355 . S
C887 C889 1.419 . S
C888 C886 1.415 . S
C888 C893 1.425 . S
C888 C895 1.409 . S
C889 H881 0.930 . S
C889 C887 1.419 . S
C889 C890 1.362 . S
C890 H882 0.930 . S
C890 C889 1.362 . S
C890 C893 1.409 . S
C891 H883 0.930 . S
C891 C892 1.355 . S
C891 C893 1.415 . S
C892 C891 1.355 . S
C892 C894 1.419 . S
C893 C888 1.425 . S
C893 C890 1.409 . S
C893 C891 1.415 . S
C894 H884 0.930 . S
C894 C892 1.419 . S
C894 C895 1.362 . S
C895 H885 0.930 . S
C895 C888 1.409 . S
C895 C894 1.362 . S
H896 C902 0.930 . S
H897 C905 0.930 . S
H898 C906 0.930 . S
H899 C907 0.930 . S
H900 C910 0.930 . S
H901 C911 0.930 . S
C902 H896 0.930 . S
C902 C903 1.355 . S
C902 C904 1.415 . S
C903 C902 1.355 . S
C903 C905 1.419 . S
C904 C902 1.415 . S
C904 C909 1.425 . S
C904 C911 1.409 . S
C905 H897 0.930 . S
C905 C903 1.419 . S
C905 C906 1.362 . S
C906 H898 0.930 . S
C906 C905 1.362 . S
C906 C909 1.409 . S
C907 H899 0.930 . S
C907 C908 1.355 . S
C907 C909 1.415 . S
C908 C907 1.355 . S
C908 C910 1.419 . S
C909 C904 1.425 . S
C909 C906 1.409 . S
C909 C907 1.415 . S
C910 H900 0.930 . S
C910 C908 1.419 . S
C910 C911 1.362 . S
C911 H901 0.930 . S
C911 C904 1.409 . S
C911 C910 1.362 . S
H912 C918 0.930 . S
H913 C921 0.930 . S
H914 C922 0.930 . S
H915 C923 0.930 . S
H916 C926 0.930 . S
H917 C927 0.930 . S
C918 H912 0.930 . S
C918 C919 1.355 . S
C918 C920 1.415 . S
C919 C918 1.355 . S
C919 C921 1.419 . S
C920 C918 1.415 . S
C920 C925 1.425 . S
C920 C927 1.409 . S
C921 H913 0.930 . S
C921 C919 1.419 . S
C921 C922 1.362 . S
C922 H914 0.930 . S
C922 C921 1.362 . S
C922 C925 1.409 . S
C923 H915 0.930 . S
C923 C924 1.355 . S
C923 C925 1.415 . S
C924 C923 1.355 . S
C924 C926 1.419 . S
C925 C920 1.425 . S
C925 C922 1.409 . S
C925 C923 1.415 . S
C926 H916 0.930 . S
C926 C924 1.419 . S
C926 C927 1.362 . S
C927 H917 0.930 . S
C927 C920 1.409 . S
C927 C926 1.362 . S
H928 C934 0.930 . S
H929 C937 0.930 . S
H930 C938 0.930 . S
H931 C939 0.930 . S
H932 C942 0.930 . S
H933 C943 0.930 . S
C934 H928 0.930 . S
C934 C935 1.355 . S
C934 C936 1.415 . S
C935 C934 1.355 . S
C935 C937 1.419 . S
C936 C934 1.415 . S
C936 C941 1.425 . S
C936 C943 1.409 . S
C937 H929 0.930 . S
C937 C935 1.419 . S
C937 C938 1.362 . S
C938 H930 0.930 . S
C938 C937 1.362 . S
C938 C941 1.409 . S
C939 H931 0.930 . S
C939 C940 1.355 . S
C939 C941 1.415 . S
C940 C939 1.355 . S
C940 C942 1.419 . S
C941 C936 1.425 . S
C941 C938 1.409 . S
C941 C939 1.415 . S
C942 H932 0.930 . S
C942 C940 1.419 . S
C942 C943 1.362 . S
C943 H933 0.930 . S
C943 C936 1.409 . S
C943 C942 1.362 . S
H944 C950 0.930 . S
H945 C953 0.930 . S
H946 C954 0.930 . S
H947 C955 0.930 . S
H948 C958 0.930 . S
H949 C959 0.930 . S
C950 H944 0.930 . S
C950 C951 1.355 . S
C950 C952 1.415 . S
C951 C950 1.355 . S
C951 C953 1.419 . S
C952 C950 1.415 . S
C952 C957 1.425 . S
C952 C959 1.409 . S
C953 H945 0.930 . S
C953 C951 1.419 . S
C953 C954 1.362 . S
C954 H946 0.930 . S
C954 C953 1.362 . S
C954 C957 1.409 . S
C955 H947 0.930 . S
C955 C956 1.355 . S
C955 C957 1.415 . S
C956 C955 1.355 . S
C956 C958 1.419 . S
C957 C952 1.425 . S
C957 C954 1.409 . S
C957 C955 1.415 . S
C958 H948 0.930 . S
C958 C956 1.419 . S
C958 C959 1.362 . S
C959 H949 0.930 . S
C959 C952 1.409 . S
C959 C958 1.362 . S
H960 C966 0.930 . S
H961 C969 0.930 . S
H962 C970 0.930 . S
H963 C971 0.930 . S
H964 C974 0.930 . S
H965 C975 0.930 . S
C966 H960 0.930 . S
C966 C967 1.355 . S
C966 C968 1.415 . S
C967 C966 1.355 . S
C967 C969 1.419 . S
C968 C966 1.415 . S
C968 C973 1.425 . S
C968 C975 1.409 . S
C969 H961 0.930 . S
C969 C967 1.419 . S
C969 C970 1.362 . S
C970 H962 0.930 . S
C970 C969 1.362 . S
C970 C973 1.409 . S
C971 H963 0.930 . S
C971 C972 1.355 . S
C971 C973 1.415 . S
C972 C971 1.355 . S
C972 C974 1.419 . S
C973 C968 1.425 . S
C973 C970 1.409 . S
C973 C971 1.415 . S
C974 H964 0.930 . S
C974 C972 1.419 . S
C974 C975 1.362 . S
C975 H965 0.930 . S
C975 C968 1.409 . S
C975 C974 1.362 . S
H976 C982 0.930 . S
H977 C985 0.930 . S
H978 C986 0.930 . S
H979 C987 0.930 . S
H980 C990 0.930 . S
H981 C991 0.930 . S
C982 H976 0.930 . S
C982 C983 1.355 . S
C982 C984 1.415 . S
C983 C982 1.355 . S
C983 C985 1.419 . S
C984 C982 1.415 . S
C984 C989 1.425 . S
C984 C991 1.409 . S
C985 H977 0.930 . S
C985 C983 1.419 . S
C985 C986 1.362 . S
C986 H978 0.930 . S
C986 C985 1.362 . S
C986 C989 1.409 . S
C987 H979 0.930 . S
C987 C988 1.355 . S
C987 C989 1.415 . S
C988 C987 1.355 . S
C988 C990 1.419 . S
C989 C984 1.425 . S
C989 C986 1.409 . S
C989 C987 1.415 . S
C990 H980 0.930 . S
C990 C988 1.419 . S
C990 C991 1.362 . S
C991 H981 0.930 . S
C991 C984 1.409 . S
C991 C990 1.362 . S
H992 C998 0.930 . S
H993 C1001 0.930 . S
H994 C1002 0.930 . S
H995 C1003 0.930 . S
H996 C1006 0.930 . S
H997 C1007 0.930 . S
C998 H992 0.930 . S
C998 C999 1.355 . S
C998 C1000 1.415 . S
C999 C998 1.355 . S
C999 C1001 1.419 . S
C1000 C998 1.415 . S
C1000 C1005 1.425 . S
C1000 C1007 1.409 . S
C1001 H993 0.930 . S
C1001 C999 1.419 . S
C1001 C1002 1.362 . S
C1002 H994 0.930 . S
C1002 C1001 1.362 . S
C1002 C1005 1.409 . S
C1003 H995 0.930 . S
C1003 C1004 1.355 . S
C1003 C1005 1.415 . S
C1004 C1003 1.355 . S
C1004 C1006 1.419 . S
C1005 C1000 1.425 . S
C1005 C1002 1.409 . S
C1005 C1003 1.415 . S
C1006 H996 0.930 . S
C1006 C1004 1.419 . S
C1006 C1007 1.362 . S
C1007 H997 0.930 . S
C1007 C1000 1.409 . S
C1007 C1006 1.362 . S
H1008 C1014 0.930 . S
H1009 C1017 0.930 . S
H1010 C1018 0.930 . S
H1011 C1019 0.930 . S
H1012 C1022 0.930 . S
H1013 C1023 0.930 . S
C1014 H1008 0.930 . S
C1014 C1015 1.355 . S
C1014 C1016 1.415 . S
C1015 C1014 1.355 . S
C1015 C1017 1.419 . S
C1016 C1014 1.415 . S
C1016 C1021 1.425 . S
C1016 C1023 1.409 . S
C1017 H1009 0.930 . S
C1017 C1015 1.419 . S
C1017 C1018 1.362 . S
C1018 H1010 0.930 . S
C1018 C1017 1.362 . S
C1018 C1021 1.409 . S
C1019 H1011 0.930 . S
C1019 C1020 1.355 . S
C1019 C1021 1.415 1_545 S
C1020 C1019 1.355 . S
C1020 C1022 1.419 . S
C1021 C1016 1.425 . S
C1021 C1018 1.409 . S
C1021 C1019 1.415 1_565 S
C1022 H1012 0.930 . S
C1022 C1020 1.419 . S
C1022 C1023 1.362 1_545 S
C1023 H1013 0.930 . S
C1023 C1016 1.409 . S
C1023 C1022 1.362 1_565 S
H1024 C1030 0.930 . S
H1025 C1033 0.930 . S
H1026 C1034 0.930 . S
H1027 C1035 0.930 . S
H1028 C1038 0.930 . S
H1029 C1039 0.930 . S
C1030 H1024 0.930 . S
C1030 C1031 1.355 . S
C1030 C1032 1.415 1_655 S
C1031 C1030 1.355 . S
C1031 C1033 1.419 . S
C1032 C1030 1.415 1_455 S
C1032 C1037 1.425 . S
C1032 C1039 1.409 . S
C1033 H1025 0.930 . S
C1033 C1031 1.419 . S
C1033 C1034 1.362 1_655 S
C1034 H1026 0.930 . S
C1034 C1033 1.362 1_455 S
C1034 C1037 1.409 . S
C1035 H1027 0.930 . S
C1035 C1036 1.355 . S
C1035 C1037 1.415 . S
C1036 C1035 1.355 . S
C1036 C1038 1.419 . S
C1037 C1032 1.425 . S
C1037 C1034 1.409 . S
C1037 C1035 1.415 . S
C1038 H1028 0.930 . S
C1038 C1036 1.419 . S
C1038 C1039 1.362 . S
C1039 H1029 0.930 . S
C1039 C1032 1.409 . S
C1039 C1038 1.362 . S
H1040 C1046 0.930 . S
H1041 C1049 0.930 . S
H1042 C1050 0.930 . S
H1043 C1051 0.930 . S
H1044 C1054 0.930 . S
H1045 C1055 0.930 . S
C1046 H1040 0.930 . S
C1046 C1047 1.355 . S
C1046 C1048 1.415 1_565 S
C1047 C1046 1.355 . S
C1047 C1049 1.419 . S
C1048 C1046 1.415 1_545 S
C1048 C1053 1.425 . S
C1048 C1055 1.409 . S
C1049 H1041 0.930 . S
C1049 C1047 1.419 . S
C1049 C1050 1.362 1_565 S
C1050 H1042 0.930 . S
C1050 C1049 1.362 1_545 S
C1050 C1053 1.409 . S
C1051 H1043 0.930 . S
C1051 C1052 1.355 . S
C1051 C1053 1.415 . S
C1052 C1051 1.355 . S
C1052 C1054 1.419 . S
C1053 C1048 1.425 . S
C1053 C1050 1.409 . S
C1053 C1051 1.415 . S
C1054 H1044 0.930 . S
C1054 C1052 1.419 . S
C1054 C1055 1.362 . S
C1055 H1045 0.930 . S
C1055 C1048 1.409 . S
C1055 C1054 1.362 . S
H1056 C1062 0.930 . S
H1057 C1065 0.930 . S
H1058 C1066 0.930 . S
H1059 C1067 0.930 . S
H1060 C1070 0.930 . S
H1061 C1071 0.930 . S
C1062 H1056 0.930 . S
C1062 C1063 1.355 . S
C1062 C1064 1.415 . S
C1063 C1062 1.355 . S
C1063 C1065 1.419 . S
C1064 C1062 1.415 . S
C1064 C1069 1.425 . S
C1064 C1071 1.409 . S
C1065 H1057 0.930 . S
C1065 C1063 1.419 . S
C1065 C1066 1.362 . S
C1066 H1058 0.930 . S
C1066 C1065 1.362 . S
C1066 C1069 1.409 . S
C1067 H1059 0.930 . S
C1067 C1068 1.355 . S
C1067 C1069 1.415 1_455 S
C1068 C1067 1.355 . S
C1068 C1070 1.419 . S
C1069 C1064 1.425 . S
C1069 C1066 1.409 . S
C1069 C1067 1.415 1_655 S
C1070 H1060 0.930 . S
C1070 C1068 1.419 . S
C1070 C1071 1.362 1_455 S
C1071 H1061 0.930 . S
C1071 C1064 1.409 . S
C1071 C1070 1.362 1_655 S
H1072 C1078 0.930 . S
H1073 C1081 0.930 . S
H1074 C1082 0.930 . S
H1075 C1083 0.930 . S
H1076 C1086 0.930 . S
H1077 C1087 0.930 . S
C1078 H1072 0.930 . S
C1078 C1079 1.355 . S
C1078 C1080 1.415 . S
C1079 C1078 1.355 . S
C1079 C1081 1.419 . S
C1080 C1078 1.415 . S
C1080 C1085 1.425 . S
C1080 C1087 1.409 . S
C1081 H1073 0.930 . S
C1081 C1079 1.419 . S
C1081 C1082 1.362 . S
C1082 H1074 0.930 . S
C1082 C1081 1.362 . S
C1082 C1085 1.409 . S
C1083 H1075 0.930 . S
C1083 C1084 1.355 . S
C1083 C1085 1.415 1_565 S
C1084 C1083 1.355 . S
C1084 C1086 1.419 . S
C1085 C1080 1.425 . S
C1085 C1082 1.409 . S
C1085 C1083 1.415 1_545 S
C1086 H1076 0.930 . S
C1086 C1084 1.419 . S
C1086 C1087 1.362 1_565 S
C1087 H1077 0.930 . S
C1087 C1080 1.409 . S
C1087 C1086 1.362 1_545 S
H1088 C1094 0.930 . S
H1089 C1097 0.930 . S
H1090 C1098 0.930 . S
H1091 C1099 0.930 . S
H1092 C1102 0.930 . S
H1093 C1103 0.930 . S
C1094 H1088 0.930 . S
C1094 C1095 1.355 . S
C1094 C1096 1.415 1_455 S
C1095 C1094 1.355 . S
C1095 C1097 1.419 . S
C1096 C1094 1.415 1_655 S
C1096 C1101 1.425 . S
C1096 C1103 1.409 . S
C1097 H1089 0.930 . S
C1097 C1095 1.419 . S
C1097 C1098 1.362 1_455 S
C1098 H1090 0.930 . S
C1098 C1097 1.362 1_655 S
C1098 C1101 1.409 . S
C1099 H1091 0.930 . S
C1099 C1100 1.355 . S
C1099 C1101 1.415 . S
C1100 C1099 1.355 . S
C1100 C1102 1.419 . S
C1101 C1096 1.425 . S
C1101 C1098 1.409 . S
C1101 C1099 1.415 . S
C1102 H1092 0.930 . S
C1102 C1100 1.419 . S
C1102 C1103 1.362 . S
C1103 H1093 0.930 . S
C1103 C1096 1.409 . S
C1103 C1102 1.362 . S
H1104 C1110 0.930 . S
H1105 C1113 0.930 . S
H1106 C1114 0.930 . S
H1107 C1115 0.930 . S
H1108 C1118 0.930 . S
H1109 C1119 0.930 . S
C1110 H1104 0.930 . S
C1110 C1111 1.355 . S
C1110 C1112 1.415 . S
C1111 C1110 1.355 . S
C1111 C1113 1.419 . S
C1112 C1110 1.415 . S
C1112 C1117 1.425 . S
C1112 C1119 1.409 . S
C1113 H1105 0.930 . S
C1113 C1111 1.419 . S
C1113 C1114 1.362 . S
C1114 H1106 0.930 . S
C1114 C1113 1.362 . S
C1114 C1117 1.409 . S
C1115 H1107 0.930 . S
C1115 C1116 1.355 . S
C1115 C1117 1.415 1_545 S
C1116 C1115 1.355 . S
C1116 C1118 1.419 . S
C1117 C1112 1.425 . S
C1117 C1114 1.409 . S
C1117 C1115 1.415 1_565 S
C1118 H1108 0.930 . S
C1118 C1116 1.419 . S
C1118 C1119 1.362 1_545 S
C1119 H1109 0.930 . S
C1119 C1112 1.409 . S
C1119 C1118 1.362 1_565 S
H1120 C1126 0.930 . S
H1121 C1129 0.930 . S
H1122 C1130 0.930 . S
H1123 C1131 0.930 . S
H1124 C1134 0.930 . S
H1125 C1135 0.930 . S
C1126 H1120 0.930 . S
C1126 C1127 1.355 . S
C1126 C1128 1.415 . S
C1127 C1126 1.355 . S
C1127 C1129 1.419 . S
C1128 C1126 1.415 . S
C1128 C1133 1.425 . S
C1128 C1135 1.409 . S
C1129 H1121 0.930 . S
C1129 C1127 1.419 . S
C1129 C1130 1.362 . S
C1130 H1122 0.930 . S
C1130 C1129 1.362 . S
C1130 C1133 1.409 . S
C1131 H1123 0.930 . S
C1131 C1132 1.355 . S
C1131 C1133 1.415 1_655 S
C1132 C1131 1.355 . S
C1132 C1134 1.419 . S
C1133 C1128 1.425 . S
C1133 C1130 1.409 . S
C1133 C1131 1.415 1_455 S
C1134 H1124 0.930 . S
C1134 C1132 1.419 . S
C1134 C1135 1.362 1_655 S
C1135 H1125 0.930 . S
C1135 C1128 1.409 . S
C1135 C1134 1.362 1_455 S
H1136 C1142 0.930 . S
H1137 C1145 0.930 . S
H1138 C1146 0.930 . S
H1139 C1147 0.930 . S
H1140 C1150 0.930 . S
H1141 C1151 0.930 . S
C1142 H1136 0.930 . S
C1142 C1143 1.355 . S
C1142 C1144 1.415 . S
C1143 C1142 1.355 . S
C1143 C1145 1.419 . S
C1144 C1142 1.415 . S
C1144 C1149 1.425 . S
C1144 C1151 1.409 . S
C1145 H1137 0.930 . S
C1145 C1143 1.419 . S
C1145 C1146 1.362 . S
C1146 H1138 0.930 . S
C1146 C1145 1.362 . S
C1146 C1149 1.409 . S
C1147 H1139 0.930 . S
C1147 C1148 1.355 . S
C1147 C1149 1.415 1_554 S
C1148 C1147 1.355 . S
C1148 C1150 1.419 . S
C1149 C1144 1.425 . S
C1149 C1146 1.409 . S
C1149 C1147 1.415 1_556 S
C1150 H1140 0.930 . S
C1150 C1148 1.419 . S
C1150 C1151 1.362 1_554 S
C1151 H1141 0.930 . S
C1151 C1144 1.409 . S
C1151 C1150 1.362 1_556 S
H1152 C1158 0.930 . S
H1153 C1161 0.930 . S
H1154 C1162 0.930 . S
H1155 C1163 0.930 . S
H1156 C1166 0.930 . S
H1157 C1167 0.930 . S
C1158 H1152 0.930 . S
C1158 C1159 1.355 . S
C1158 C1160 1.415 1_554 S
C1159 C1158 1.355 . S
C1159 C1161 1.419 . S
C1160 C1158 1.415 1_556 S
C1160 C1165 1.425 . S
C1160 C1167 1.409 . S
C1161 H1153 0.930 . S
C1161 C1159 1.419 . S
C1161 C1162 1.362 1_554 S
C1162 H1154 0.930 . S
C1162 C1161 1.362 1_556 S
C1162 C1165 1.409 . S
C1163 H1155 0.930 . S
C1163 C1164 1.355 . S
C1163 C1165 1.415 . S
C1164 C1163 1.355 . S
C1164 C1166 1.419 . S
C1165 C1160 1.425 . S
C1165 C1162 1.409 . S
C1165 C1163 1.415 . S
C1166 H1156 0.930 . S
C1166 C1164 1.419 . S
C1166 C1167 1.362 . S
C1167 H1157 0.930 . S
C1167 C1160 1.409 . S
C1167 C1166 1.362 . S
H1168 C1174 0.930 . S
H1169 C1177 0.930 . S
H1170 C1178 0.930 . S
H1171 C1179 0.930 . S
H1172 C1182 0.930 . S
H1173 C1183 0.930 . S
C1174 H1168 0.930 . S
C1174 C1175 1.355 . S
C1174 C1176 1.415 . S
C1175 C1174 1.355 . S
C1175 C1177 1.419 . S
C1176 C1174 1.415 . S
C1176 C1181 1.425 . S
C1176 C1183 1.409 . S
C1177 H1169 0.930 . S
C1177 C1175 1.419 . S
C1177 C1178 1.362 . S
C1178 H1170 0.930 . S
C1178 C1177 1.362 . S
C1178 C1181 1.409 . S
C1179 H1171 0.930 . S
C1179 C1180 1.355 . S
C1179 C1181 1.415 1_554 S
C1180 C1179 1.355 . S
C1180 C1182 1.419 . S
C1181 C1176 1.425 . S
C1181 C1178 1.409 . S
C1181 C1179 1.415 1_556 S
C1182 H1172 0.930 . S
C1182 C1180 1.419 . S
C1182 C1183 1.362 1_554 S
C1183 H1173 0.930 . S
C1183 C1176 1.409 . S
C1183 C1182 1.362 1_556 S
H1184 C1190 0.930 . S
H1185 C1193 0.930 . S
H1186 C1194 0.930 . S
H1187 C1195 0.930 . S
H1188 C1198 0.930 . S
H1189 C1199 0.930 . S
C1190 H1184 0.930 . S
C1190 C1191 1.355 . S
C1190 C1192 1.415 1_554 S
C1191 C1190 1.355 . S
C1191 C1193 1.419 . S
C1192 C1190 1.415 1_556 S
C1192 C1197 1.425 . S
C1192 C1199 1.409 . S
C1193 H1185 0.930 . S
C1193 C1191 1.419 . S
C1193 C1194 1.362 1_554 S
C1194 H1186 0.930 . S
C1194 C1193 1.362 1_556 S
C1194 C1197 1.409 . S
C1195 H1187 0.930 . S
C1195 C1196 1.355 . S
C1195 C1197 1.415 . S
C1196 C1195 1.355 . S
C1196 C1198 1.419 . S
C1197 C1192 1.425 . S
C1197 C1194 1.409 . S
C1197 C1195 1.415 . S
C1198 H1188 0.930 . S
C1198 C1196 1.419 . S
C1198 C1199 1.362 . S
C1199 H1189 0.930 . S
C1199 C1192 1.409 . S
C1199 C1198 1.362 . S
H1200 C1206 0.930 . S
H1201 C1209 0.930 . S
H1202 C1210 0.930 . S
H1203 C1211 0.930 . S
H1204 C1214 0.930 . S
H1205 C1215 0.930 . S
C1206 H1200 0.930 . S
C1206 C1207 1.355 . S
C1206 C1208 1.415 . S
C1207 C1206 1.355 . S
C1207 C1209 1.419 . S
C1208 C1206 1.415 . S
C1208 C1213 1.425 . S
C1208 C1215 1.409 . S
C1209 H1201 0.930 . S
C1209 C1207 1.419 . S
C1209 C1210 1.362 . S
C1210 H1202 0.930 . S
C1210 C1209 1.362 . S
C1210 C1213 1.409 . S
C1211 H1203 0.930 . S
C1211 C1212 1.355 . S
C1211 C1213 1.415 1_556 S
C1212 C1211 1.355 . S
C1212 C1214 1.419 . S
C1213 C1208 1.425 . S
C1213 C1210 1.409 . S
C1213 C1211 1.415 1_554 S
C1214 H1204 0.930 . S
C1214 C1212 1.419 . S
C1214 C1215 1.362 1_556 S
C1215 H1205 0.930 . S
C1215 C1208 1.409 . S
C1215 C1214 1.362 1_554 S
H1216 C1222 0.930 . S
H1217 C1225 0.930 . S
H1218 C1226 0.930 . S
H1219 C1227 0.930 . S
H1220 C1230 0.930 . S
H1221 C1231 0.930 . S
C1222 H1216 0.930 . S
C1222 C1223 1.355 . S
C1222 C1224 1.415 1_556 S
C1223 C1222 1.355 . S
C1223 C1225 1.419 . S
C1224 C1222 1.415 1_554 S
C1224 C1229 1.425 . S
C1224 C1231 1.409 . S
C1225 H1217 0.930 . S
C1225 C1223 1.419 . S
C1225 C1226 1.362 1_556 S
C1226 H1218 0.930 . S
C1226 C1225 1.362 1_554 S
C1226 C1229 1.409 . S
C1227 H1219 0.930 . S
C1227 C1228 1.355 . S
C1227 C1229 1.415 . S
C1228 C1227 1.355 . S
C1228 C1230 1.419 . S
C1229 C1224 1.425 . S
C1229 C1226 1.409 . S
C1229 C1227 1.415 . S
C1230 H1220 0.930 . S
C1230 C1228 1.419 . S
C1230 C1231 1.362 . S
C1231 H1221 0.930 . S
C1231 C1224 1.409 . S
C1231 C1230 1.362 . S
H1232 C1238 0.930 . S
H1233 C1241 0.930 . S
H1234 C1242 0.930 . S
H1235 C1243 0.930 . S
H1236 C1246 0.930 . S
H1237 C1247 0.930 . S
C1238 H1232 0.930 . S
C1238 C1239 1.355 . S
C1238 C1240 1.415 . S
C1239 C1238 1.355 . S
C1239 C1241 1.419 . S
C1240 C1238 1.415 . S
C1240 C1245 1.425 . S
C1240 C1247 1.409 . S
C1241 H1233 0.930 . S
C1241 C1239 1.419 . S
C1241 C1242 1.362 . S
C1242 H1234 0.930 . S
C1242 C1241 1.362 . S
C1242 C1245 1.409 . S
C1243 H1235 0.930 . S
C1243 C1244 1.355 . S
C1243 C1245 1.415 1_556 S
C1244 C1243 1.355 . S
C1244 C1246 1.419 . S
C1245 C1240 1.425 . S
C1245 C1242 1.409 . S
C1245 C1243 1.415 1_554 S
C1246 H1236 0.930 . S
C1246 C1244 1.419 . S
C1246 C1247 1.362 1_556 S
C1247 H1237 0.930 . S
C1247 C1240 1.409 . S
C1247 C1246 1.362 1_554 S
H1248 C1254 0.930 . S
H1249 C1257 0.930 . S
H1250 C1258 0.930 . S
H1251 C1259 0.930 . S
H1252 C1262 0.930 . S
H1253 C1263 0.930 . S
C1254 H1248 0.930 . S
C1254 C1255 1.355 . S
C1254 C1256 1.415 1_556 S
C1255 C1254 1.355 . S
C1255 C1257 1.419 . S
C1256 C1254 1.415 1_554 S
C1256 C1261 1.425 . S
C1256 C1263 1.409 . S
C1257 H1249 0.930 . S
C1257 C1255 1.419 . S
C1257 C1258 1.362 1_556 S
C1258 H1250 0.930 . S
C1258 C1257 1.362 1_554 S
C1258 C1261 1.409 . S
C1259 H1251 0.930 . S
C1259 C1260 1.355 . S
C1259 C1261 1.415 . S
C1260 C1259 1.355 . S
C1260 C1262 1.419 . S
C1261 C1256 1.425 . S
C1261 C1258 1.409 . S
C1261 C1259 1.415 . S
C1262 H1252 0.930 . S
C1262 C1260 1.419 . S
C1262 C1263 1.362 . S
C1263 H1253 0.930 . S
C1263 C1256 1.409 . S
C1263 C1262 1.362 . S
H1264 C1270 0.930 . S
H1265 C1273 0.930 . S
H1266 C1274 0.930 . S
H1267 C1275 0.930 . S
H1268 C1278 0.930 . S
H1269 C1279 0.930 . S
C1270 H1264 0.930 . S
C1270 C1271 1.355 . S
C1270 C1272 1.415 . S
C1271 C1270 1.355 . S
C1271 C1273 1.419 . S
C1272 C1270 1.415 . S
C1272 C1277 1.425 . S
C1272 C1279 1.409 . S
C1273 H1265 0.930 . S
C1273 C1271 1.419 . S
C1273 C1274 1.362 . S
C1274 H1266 0.930 . S
C1274 C1273 1.362 . S
C1274 C1277 1.409 . S
C1275 H1267 0.930 . S
C1275 C1276 1.355 . S
C1275 C1277 1.415 1_455 S
C1276 C1275 1.355 . S
C1276 C1278 1.419 . S
C1277 C1272 1.425 . S
C1277 C1274 1.409 . S
C1277 C1275 1.415 1_655 S
C1278 H1268 0.930 . S
C1278 C1276 1.419 . S
C1278 C1279 1.362 1_455 S
C1279 H1269 0.930 . S
C1279 C1272 1.409 . S
C1279 C1278 1.362 1_655 S
H1280 C1286 0.930 . S
H1281 C1289 0.930 . S
H1282 C1290 0.930 . S
H1283 C1291 0.930 . S
H1284 C1294 0.930 . S
H1285 C1295 0.930 . S
C1286 H1280 0.930 . S
C1286 C1287 1.355 . S
C1286 C1288 1.415 . S
C1287 C1286 1.355 . S
C1287 C1289 1.419 . S
C1288 C1286 1.415 . S
C1288 C1293 1.425 . S
C1288 C1295 1.409 . S
C1289 H1281 0.930 . S
C1289 C1287 1.419 . S
C1289 C1290 1.362 . S
C1290 H1282 0.930 . S
C1290 C1289 1.362 . S
C1290 C1293 1.409 . S
C1291 H1283 0.930 . S
C1291 C1292 1.355 . S
C1291 C1293 1.415 1_455 S
C1292 C1291 1.355 . S
C1292 C1294 1.419 . S
C1293 C1288 1.425 . S
C1293 C1290 1.409 . S
C1293 C1291 1.415 1_655 S
C1294 H1284 0.930 . S
C1294 C1292 1.419 . S
C1294 C1295 1.362 1_455 S
C1295 H1285 0.930 . S
C1295 C1288 1.409 . S
C1295 C1294 1.362 1_655 S
H1296 C1302 0.930 . S
H1297 C1305 0.930 . S
H1298 C1306 0.930 . S
H1299 C1307 0.930 . S
H1300 C1310 0.930 . S
H1301 C1311 0.930 . S
C1302 H1296 0.930 . S
C1302 C1303 1.355 . S
C1302 C1304 1.415 1_545 S
C1303 C1302 1.355 . S
C1303 C1305 1.419 . S
C1304 C1302 1.415 1_565 S
C1304 C1309 1.425 . S
C1304 C1311 1.409 . S
C1305 H1297 0.930 . S
C1305 C1303 1.419 . S
C1305 C1306 1.362 1_545 S
C1306 H1298 0.930 . S
C1306 C1305 1.362 1_565 S
C1306 C1309 1.409 . S
C1307 H1299 0.930 . S
C1307 C1308 1.355 . S
C1307 C1309 1.415 . S
C1308 C1307 1.355 . S
C1308 C1310 1.419 . S
C1309 C1304 1.425 . S
C1309 C1306 1.409 . S
C1309 C1307 1.415 . S
C1310 H1300 0.930 . S
C1310 C1308 1.419 . S
C1310 C1311 1.362 . S
C1311 H1301 0.930 . S
C1311 C1304 1.409 . S
C1311 C1310 1.362 . S
H1312 C1318 0.930 . S
H1313 C1321 0.930 . S
H1314 C1322 0.930 . S
H1315 C1323 0.930 . S
H1316 C1326 0.930 . S
H1317 C1327 0.930 . S
C1318 H1312 0.930 . S
C1318 C1319 1.355 . S
C1318 C1320 1.415 1_655 S
C1319 C1318 1.355 . S
C1319 C1321 1.419 . S
C1320 C1318 1.415 1_455 S
C1320 C1325 1.425 . S
C1320 C1327 1.409 . S
C1321 H1313 0.930 . S
C1321 C1319 1.419 . S
C1321 C1322 1.362 1_655 S
C1322 H1314 0.930 . S
C1322 C1321 1.362 1_455 S
C1322 C1325 1.409 . S
C1323 H1315 0.930 . S
C1323 C1324 1.355 . S
C1323 C1325 1.415 . S
C1324 C1323 1.355 . S
C1324 C1326 1.419 . S
C1325 C1320 1.425 . S
C1325 C1322 1.409 . S
C1325 C1323 1.415 . S
C1326 H1316 0.930 . S
C1326 C1324 1.419 . S
C1326 C1327 1.362 . S
C1327 H1317 0.930 . S
C1327 C1320 1.409 . S
C1327 C1326 1.362 . S
H1328 C1334 0.930 . S
H1329 C1337 0.930 . S
H1330 C1338 0.930 . S
H1331 C1339 0.930 . S
H1332 C1342 0.930 . S
H1333 C1343 0.930 . S
C1334 H1328 0.930 . S
C1334 C1335 1.355 . S
C1334 C1336 1.415 . S
C1335 C1334 1.355 . S
C1335 C1337 1.419 . S
C1336 C1334 1.415 . S
C1336 C1341 1.425 . S
C1336 C1343 1.409 . S
C1337 H1329 0.930 . S
C1337 C1335 1.419 . S
C1337 C1338 1.362 . S
C1338 H1330 0.930 . S
C1338 C1337 1.362 . S
C1338 C1341 1.409 . S
C1339 H1331 0.930 . S
C1339 C1340 1.355 . S
C1339 C1341 1.415 1_565 S
C1340 C1339 1.355 . S
C1340 C1342 1.419 . S
C1341 C1336 1.425 . S
C1341 C1338 1.409 . S
C1341 C1339 1.415 1_545 S
C1342 H1332 0.930 . S
C1342 C1340 1.419 . S
C1342 C1343 1.362 1_565 S
C1343 H1333 0.930 . S
C1343 C1336 1.409 . S
C1343 C1342 1.362 1_545 S
H1344 C1350 0.930 . S
H1345 C1353 0.930 . S
H1346 C1354 0.930 . S
H1347 C1355 0.930 . S
H1348 C1358 0.930 . S
H1349 C1359 0.930 . S
C1350 H1344 0.930 . S
C1350 C1351 1.355 . S
C1350 C1352 1.415 . S
C1351 C1350 1.355 . S
C1351 C1353 1.419 . S
C1352 C1350 1.415 . S
C1352 C1357 1.425 . S
C1352 C1359 1.409 . S
C1353 H1345 0.930 . S
C1353 C1351 1.419 . S
C1353 C1354 1.362 . S
C1354 H1346 0.930 . S
C1354 C1353 1.362 . S
C1354 C1357 1.409 . S
C1355 H1347 0.930 . S
C1355 C1356 1.355 . S
C1355 C1357 1.415 1_655 S
C1356 C1355 1.355 . S
C1356 C1358 1.419 . S
C1357 C1352 1.425 . S
C1357 C1354 1.409 . S
C1357 C1355 1.415 1_455 S
C1358 H1348 0.930 . S
C1358 C1356 1.419 . S
C1358 C1359 1.362 1_655 S
C1359 H1349 0.930 . S
C1359 C1352 1.409 . S
C1359 C1358 1.362 1_455 S
H1360 C1366 0.930 . S
H1361 C1369 0.930 . S
H1362 C1370 0.930 . S
H1363 C1371 0.930 . S
H1364 C1374 0.930 . S
H1365 C1375 0.930 . S
C1366 H1360 0.930 . S
C1366 C1367 1.355 . S
C1366 C1368 1.415 . S
C1367 C1366 1.355 . S
C1367 C1369 1.419 . S
C1368 C1366 1.415 . S
C1368 C1373 1.425 . S
C1368 C1375 1.409 . S
C1369 H1361 0.930 . S
C1369 C1367 1.419 . S
C1369 C1370 1.362 . S
C1370 H1362 0.930 . S
C1370 C1369 1.362 . S
C1370 C1373 1.409 . S
C1371 H1363 0.930 . S
C1371 C1372 1.355 . S
C1371 C1373 1.415 1_565 S
C1372 C1371 1.355 . S
C1372 C1374 1.419 . S
C1373 C1368 1.425 . S
C1373 C1370 1.409 . S
C1373 C1371 1.415 1_545 S
C1374 H1364 0.930 . S
C1374 C1372 1.419 . S
C1374 C1375 1.362 1_565 S
C1375 H1365 0.930 . S
C1375 C1368 1.409 . S
C1375 C1374 1.362 1_545 S
H1376 C1382 0.930 . S
H1377 C1385 0.930 . S
H1378 C1386 0.930 . S
H1379 C1387 0.930 . S
H1380 C1390 0.930 . S
H1381 C1391 0.930 . S
C1382 H1376 0.930 . S
C1382 C1383 1.355 . S
C1382 C1384 1.415 1_545 S
C1383 C1382 1.355 . S
C1383 C1385 1.419 . S
C1384 C1382 1.415 1_565 S
C1384 C1389 1.425 . S
C1384 C1391 1.409 . S
C1385 H1377 0.930 . S
C1385 C1383 1.419 . S
C1385 C1386 1.362 1_545 S
C1386 H1378 0.930 . S
C1386 C1385 1.362 1_565 S
C1386 C1389 1.409 . S
C1387 H1379 0.930 . S
C1387 C1388 1.355 . S
C1387 C1389 1.415 . S
C1388 C1387 1.355 . S
C1388 C1390 1.419 . S
C1389 C1384 1.425 . S
C1389 C1386 1.409 . S
C1389 C1387 1.415 . S
C1390 H1380 0.930 . S
C1390 C1388 1.419 . S
C1390 C1391 1.362 . S
C1391 H1381 0.930 . S
C1391 C1384 1.409 . S
C1391 C1390 1.362 . S
H1392 C1398 0.930 . S
H1393 C1401 0.930 . S
H1394 C1402 0.930 . S
H1395 C1403 0.930 . S
H1396 C1406 0.930 . S
H1397 C1407 0.930 . S
C1398 H1392 0.930 . S
C1398 C1399 1.355 . S
C1398 C1400 1.415 . S
C1399 C1398 1.355 . S
C1399 C1401 1.419 . S
C1400 C1398 1.415 . S
C1400 C1405 1.425 . S
C1400 C1407 1.409 . S
C1401 H1393 0.930 . S
C1401 C1399 1.419 . S
C1401 C1402 1.362 . S
C1402 H1394 0.930 . S
C1402 C1401 1.362 . S
C1402 C1405 1.409 . S
C1403 H1395 0.930 . S
C1403 C1404 1.355 . S
C1403 C1405 1.415 . S
C1404 C1403 1.355 . S
C1404 C1406 1.419 . S
C1405 C1400 1.425 . S
C1405 C1402 1.409 . S
C1405 C1403 1.415 . S
C1406 H1396 0.930 . S
C1406 C1404 1.419 . S
C1406 C1407 1.362 . S
C1407 H1397 0.930 . S
C1407 C1400 1.409 . S
C1407 C1406 1.362 . S
H1408 C1414 0.930 . S
H1409 C1417 0.930 . S
H1410 C1418 0.930 . S
H1411 C1419 0.930 . S
H1412 C1422 0.930 . S
H1413 C1423 0.930 . S
C1414 H1408 0.930 . S
C1414 C1415 1.355 . S
C1414 C1416 1.415 . S
C1415 C1414 1.355 . S
C1415 C1417 1.419 . S
C1416 C1414 1.415 . S
C1416 C1421 1.425 . S
C1416 C1423 1.409 . S
C1417 H1409 0.930 . S
C1417 C1415 1.419 . S
C1417 C1418 1.362 . S
C1418 H1410 0.930 . S
C1418 C1417 1.362 . S
C1418 C1421 1.409 . S
C1419 H1411 0.930 . S
C1419 C1420 1.355 . S
C1419 C1421 1.415 . S
C1420 C1419 1.355 . S
C1420 C1422 1.419 . S
C1421 C1416 1.425 . S
C1421 C1418 1.409 . S
C1421 C1419 1.415 . S
C1422 H1412 0.930 . S
C1422 C1420 1.419 . S
C1422 C1423 1.362 . S
C1423 H1413 0.930 . S
C1423 C1416 1.409 . S
C1423 C1422 1.362 . S
H1424 C1430 0.930 . S
H1425 C1433 0.930 . S
H1426 C1434 0.930 . S
H1427 C1435 0.930 . S
H1428 C1438 0.930 . S
H1429 C1439 0.930 . S
C1430 H1424 0.930 . S
C1430 C1431 1.355 . S
C1430 C1432 1.415 . S
C1431 C1430 1.355 . S
C1431 C1433 1.419 . S
C1432 C1430 1.415 . S
C1432 C1437 1.425 . S
C1432 C1439 1.409 . S
C1433 H1425 0.930 . S
C1433 C1431 1.419 . S
C1433 C1434 1.362 . S
C1434 H1426 0.930 . S
C1434 C1433 1.362 . S
C1434 C1437 1.409 . S
C1435 H1427 0.930 . S
C1435 C1436 1.355 . S
C1435 C1437 1.415 . S
C1436 C1435 1.355 . S
C1436 C1438 1.419 . S
C1437 C1432 1.425 . S
C1437 C1434 1.409 . S
C1437 C1435 1.415 . S
C1438 H1428 0.930 . S
C1438 C1436 1.419 . S
C1438 C1439 1.362 . S
C1439 H1429 0.930 . S
C1439 C1432 1.409 . S
C1439 C1438 1.362 . S
H1440 C1446 0.930 . S
H1441 C1449 0.930 . S
H1442 C1450 0.930 . S
H1443 C1451 0.930 . S
H1444 C1454 0.930 . S
H1445 C1455 0.930 . S
C1446 H1440 0.930 . S
C1446 C1447 1.355 . S
C1446 C1448 1.415 . S
C1447 C1446 1.355 . S
C1447 C1449 1.419 . S
C1448 C1446 1.415 . S
C1448 C1453 1.425 . S
C1448 C1455 1.409 . S
C1449 H1441 0.930 . S
C1449 C1447 1.419 . S
C1449 C1450 1.362 . S
C1450 H1442 0.930 . S
C1450 C1449 1.362 . S
C1450 C1453 1.409 . S
C1451 H1443 0.930 . S
C1451 C1452 1.355 . S
C1451 C1453 1.415 . S
C1452 C1451 1.355 . S
C1452 C1454 1.419 . S
C1453 C1448 1.425 . S
C1453 C1450 1.409 . S
C1453 C1451 1.415 . S
C1454 H1444 0.930 . S
C1454 C1452 1.419 . S
C1454 C1455 1.362 . S
C1455 H1445 0.930 . S
C1455 C1448 1.409 . S
C1455 C1454 1.362 . S
H1456 C1462 0.930 . S
H1457 C1465 0.930 . S
H1458 C1466 0.930 . S
H1459 C1467 0.930 . S
H1460 C1470 0.930 . S
H1461 C1471 0.930 . S
C1462 H1456 0.930 . S
C1462 C1463 1.355 . S
C1462 C1464 1.415 . S
C1463 C1462 1.355 . S
C1463 C1465 1.419 . S
C1464 C1462 1.415 . S
C1464 C1469 1.425 . S
C1464 C1471 1.409 . S
C1465 H1457 0.930 . S
C1465 C1463 1.419 . S
C1465 C1466 1.362 . S
C1466 H1458 0.930 . S
C1466 C1465 1.362 . S
C1466 C1469 1.409 . S
C1467 H1459 0.930 . S
C1467 C1468 1.355 . S
C1467 C1469 1.415 . S
C1468 C1467 1.355 . S
C1468 C1470 1.419 . S
C1469 C1464 1.425 . S
C1469 C1466 1.409 . S
C1469 C1467 1.415 . S
C1470 H1460 0.930 . S
C1470 C1468 1.419 . S
C1470 C1471 1.362 . S
C1471 H1461 0.930 . S
C1471 C1464 1.409 . S
C1471 C1470 1.362 . S
H1472 C1478 0.930 . S
H1473 C1481 0.930 . S
H1474 C1482 0.930 . S
H1475 C1483 0.930 . S
H1476 C1486 0.930 . S
H1477 C1487 0.930 . S
C1478 H1472 0.930 . S
C1478 C1479 1.355 . S
C1478 C1480 1.415 . S
C1479 C1478 1.355 . S
C1479 C1481 1.419 . S
C1480 C1478 1.415 . S
C1480 C1485 1.425 . S
C1480 C1487 1.409 . S
C1481 H1473 0.930 . S
C1481 C1479 1.419 . S
C1481 C1482 1.362 . S
C1482 H1474 0.930 . S
C1482 C1481 1.362 . S
C1482 C1485 1.409 . S
C1483 H1475 0.930 . S
C1483 C1484 1.355 . S
C1483 C1485 1.415 . S
C1484 C1483 1.355 . S
C1484 C1486 1.419 . S
C1485 C1480 1.425 . S
C1485 C1482 1.409 . S
C1485 C1483 1.415 . S
C1486 H1476 0.930 . S
C1486 C1484 1.419 . S
C1486 C1487 1.362 . S
C1487 H1477 0.930 . S
C1487 C1480 1.409 . S
C1487 C1486 1.362 . S
H1488 C1494 0.930 . S
H1489 C1497 0.930 . S
H1490 C1498 0.930 . S
H1491 C1499 0.930 . S
H1492 C1502 0.930 . S
H1493 C1503 0.930 . S
C1494 H1488 0.930 . S
C1494 C1495 1.355 . S
C1494 C1496 1.415 . S
C1495 C1494 1.355 . S
C1495 C1497 1.419 . S
C1496 C1494 1.415 . S
C1496 C1501 1.425 . S
C1496 C1503 1.409 . S
C1497 H1489 0.930 . S
C1497 C1495 1.419 . S
C1497 C1498 1.362 . S
C1498 H1490 0.930 . S
C1498 C1497 1.362 . S
C1498 C1501 1.409 . S
C1499 H1491 0.930 . S
C1499 C1500 1.355 . S
C1499 C1501 1.415 . S
C1500 C1499 1.355 . S
C1500 C1502 1.419 . S
C1501 C1496 1.425 . S
C1501 C1498 1.409 . S
C1501 C1499 1.415 . S
C1502 H1492 0.930 . S
C1502 C1500 1.419 . S
C1502 C1503 1.362 . S
C1503 H1493 0.930 . S
C1503 C1496 1.409 . S
C1503 C1502 1.362 . S
H1504 C1510 0.930 . S
H1505 C1513 0.930 . S
H1506 C1514 0.930 . S
H1507 C1515 0.930 . S
H1508 C1518 0.930 . S
H1509 C1519 0.930 . S
C1510 H1504 0.930 . S
C1510 C1511 1.355 . S
C1510 C1512 1.415 . S
C1511 C1510 1.355 . S
C1511 C1513 1.419 . S
C1512 C1510 1.415 . S
C1512 C1517 1.425 . S
C1512 C1519 1.409 . S
C1513 H1505 0.930 . S
C1513 C1511 1.419 . S
C1513 C1514 1.362 . S
C1514 H1506 0.930 . S
C1514 C1513 1.362 . S
C1514 C1517 1.409 . S
C1515 H1507 0.930 . S
C1515 C1516 1.355 . S
C1515 C1517 1.415 . S
C1516 C1515 1.355 . S
C1516 C1518 1.419 . S
C1517 C1512 1.425 . S
C1517 C1514 1.409 . S
C1517 C1515 1.415 . S
C1518 H1508 0.930 . S
C1518 C1516 1.419 . S
C1518 C1519 1.362 . S
C1519 H1509 0.930 . S
C1519 C1512 1.409 . S
C1519 C1518 1.362 . S
H1520 C1526 0.930 . S
H1521 C1529 0.930 . S
H1522 C1530 0.930 . S
H1523 C1531 0.930 . S
H1524 C1534 0.930 . S
H1525 C1535 0.930 . S
C1526 H1520 0.930 . S
C1526 C1527 1.355 . S
C1526 C1528 1.415 . S
C1527 C1526 1.355 . S
C1527 C1529 1.419 . S
C1528 C1526 1.415 . S
C1528 C1533 1.425 . S
C1528 C1535 1.409 . S
C1529 H1521 0.930 . S
C1529 C1527 1.419 . S
C1529 C1530 1.362 . S
C1530 H1522 0.930 . S
C1530 C1529 1.362 . S
C1530 C1533 1.409 . S
C1531 H1523 0.930 . S
C1531 C1532 1.355 . S
C1531 C1533 1.415 . S
C1532 C1531 1.355 . S
C1532 C1534 1.419 . S
C1533 C1528 1.425 . S
C1533 C1530 1.409 . S
C1533 C1531 1.415 . S
C1534 H1524 0.930 . S
C1534 C1532 1.419 . S
C1534 C1535 1.362 . S
C1535 H1525 0.930 . S
C1535 C1528 1.409 . S
C1535 C1534 1.362 . S
H1536 C1542 0.930 . S
H1537 C1545 0.930 . S
H1538 C1546 0.930 . S
H1539 C1547 0.930 . S
H1540 C1550 0.930 . S
H1541 C1551 0.930 . S
C1542 H1536 0.930 . S
C1542 C1543 1.355 . S
C1542 C1544 1.415 . S
C1543 C1542 1.355 . S
C1543 C1545 1.419 . S
C1544 C1542 1.415 . S
C1544 C1549 1.425 . S
C1544 C1551 1.409 . S
C1545 H1537 0.930 . S
C1545 C1543 1.419 . S
C1545 C1546 1.362 . S
C1546 H1538 0.930 . S
C1546 C1545 1.362 . S
C1546 C1549 1.409 . S
C1547 H1539 0.930 . S
C1547 C1548 1.355 . S
C1547 C1549 1.415 . S
C1548 C1547 1.355 . S
C1548 C1550 1.419 . S
C1549 C1544 1.425 . S
C1549 C1546 1.409 . S
C1549 C1547 1.415 . S
C1550 H1540 0.930 . S
C1550 C1548 1.419 . S
C1550 C1551 1.362 . S
C1551 H1541 0.930 . S
C1551 C1544 1.409 . S
C1551 C1550 1.362 . S
H1552 C1558 0.930 . S
H1553 C1561 0.930 . S
H1554 C1562 0.930 . S
H1555 C1563 0.930 . S
H1556 C1566 0.930 . S
H1557 C1567 0.930 . S
C1558 H1552 0.930 . S
C1558 C1559 1.355 . S
C1558 C1560 1.415 . S
C1559 C1558 1.355 . S
C1559 C1561 1.419 . S
C1560 C1558 1.415 . S
C1560 C1565 1.425 . S
C1560 C1567 1.409 . S
C1561 H1553 0.930 . S
C1561 C1559 1.419 . S
C1561 C1562 1.362 . S
C1562 H1554 0.930 . S
C1562 C1561 1.362 . S
C1562 C1565 1.409 . S
C1563 H1555 0.930 . S
C1563 C1564 1.355 . S
C1563 C1565 1.415 . S
C1564 C1563 1.355 . S
C1564 C1566 1.419 . S
C1565 C1560 1.425 . S
C1565 C1562 1.409 . S
C1565 C1563 1.415 . S
C1566 H1556 0.930 . S
C1566 C1564 1.419 . S
C1566 C1567 1.362 . S
C1567 H1557 0.930 . S
C1567 C1560 1.409 . S
C1567 C1566 1.362 . S
H1568 C1574 0.930 . S
H1569 C1577 0.930 . S
H1570 C1578 0.930 . S
H1571 C1579 0.930 . S
H1572 C1582 0.930 . S
H1573 C1583 0.930 . S
C1574 H1568 0.930 . S
C1574 C1575 1.355 . S
C1574 C1576 1.415 . S
C1575 C1574 1.355 . S
C1575 C1577 1.419 . S
C1576 C1574 1.415 . S
C1576 C1581 1.425 . S
C1576 C1583 1.409 . S
C1577 H1569 0.930 . S
C1577 C1575 1.419 . S
C1577 C1578 1.362 . S
C1578 H1570 0.930 . S
C1578 C1577 1.362 . S
C1578 C1581 1.409 . S
C1579 H1571 0.930 . S
C1579 C1580 1.355 . S
C1579 C1581 1.415 . S
C1580 C1579 1.355 . S
C1580 C1582 1.419 . S
C1581 C1576 1.425 . S
C1581 C1578 1.409 . S
C1581 C1579 1.415 . S
C1582 H1572 0.930 . S
C1582 C1580 1.419 . S
C1582 C1583 1.362 . S
C1583 H1573 0.930 . S
C1583 C1576 1.409 . S
C1583 C1582 1.362 . S
H1584 C1590 0.930 . S
H1585 C1593 0.930 . S
H1586 C1594 0.930 . S
H1587 C1595 0.930 . S
H1588 C1598 0.930 . S
H1589 C1599 0.930 . S
C1590 H1584 0.930 . S
C1590 C1591 1.355 . S
C1590 C1592 1.415 . S
C1591 C1590 1.355 . S
C1591 C1593 1.419 . S
C1592 C1590 1.415 . S
C1592 C1597 1.425 . S
C1592 C1599 1.409 . S
C1593 H1585 0.930 . S
C1593 C1591 1.419 . S
C1593 C1594 1.362 . S
C1594 H1586 0.930 . S
C1594 C1593 1.362 . S
C1594 C1597 1.409 . S
C1595 H1587 0.930 . S
C1595 C1596 1.355 . S
C1595 C1597 1.415 . S
C1596 C1595 1.355 . S
C1596 C1598 1.419 . S
C1597 C1592 1.425 . S
C1597 C1594 1.409 . S
C1597 C1595 1.415 . S
C1598 H1588 0.930 . S
C1598 C1596 1.419 . S
C1598 C1599 1.362 . S
C1599 H1589 0.930 . S
C1599 C1592 1.409 . S
C1599 C1598 1.362 . S
H1600 C1606 0.930 . S
H1601 C1609 0.930 . S
H1602 C1610 0.930 . S
H1603 C1611 0.930 . S
H1604 C1614 0.930 . S
H1605 C1615 0.930 . S
C1606 H1600 0.930 . S
C1606 C1607 1.355 . S
C1606 C1608 1.415 . S
C1607 C1606 1.355 . S
C1607 C1609 1.419 . S
C1608 C1606 1.415 . S
C1608 C1613 1.425 . S
C1608 C1615 1.409 . S
C1609 H1601 0.930 . S
C1609 C1607 1.419 . S
C1609 C1610 1.362 . S
C1610 H1602 0.930 . S
C1610 C1609 1.362 . S
C1610 C1613 1.409 . S
C1611 H1603 0.930 . S
C1611 C1612 1.355 . S
C1611 C1613 1.415 . S
C1612 C1611 1.355 . S
C1612 C1614 1.419 . S
C1613 C1608 1.425 . S
C1613 C1610 1.409 . S
C1613 C1611 1.415 . S
C1614 H1604 0.930 . S
C1614 C1612 1.419 . S
C1614 C1615 1.362 . S
C1615 H1605 0.930 . S
C1615 C1608 1.409 . S
C1615 C1614 1.362 . S
H1616 C1622 0.930 . S
H1617 C1625 0.930 . S
H1618 C1626 0.930 . S
H1619 C1627 0.930 . S
H1620 C1630 0.930 . S
H1621 C1631 0.930 . S
C1622 H1616 0.930 . S
C1622 C1623 1.355 . S
C1622 C1624 1.415 . S
C1623 C1622 1.355 . S
C1623 C1625 1.419 . S
C1624 C1622 1.415 . S
C1624 C1629 1.425 . S
C1624 C1631 1.409 . S
C1625 H1617 0.930 . S
C1625 C1623 1.419 . S
C1625 C1626 1.362 . S
C1626 H1618 0.930 . S
C1626 C1625 1.362 . S
C1626 C1629 1.409 . S
C1627 H1619 0.930 . S
C1627 C1628 1.355 . S
C1627 C1629 1.415 . S
C1628 C1627 1.355 . S
C1628 C1630 1.419 . S
C1629 C1624 1.425 . S
C1629 C1626 1.409 . S
C1629 C1627 1.415 . S
C1630 H1620 0.930 . S
C1630 C1628 1.419 . S
C1630 C1631 1.362 . S
C1631 H1621 0.930 . S
C1631 C1624 1.409 . S
C1631 C1630 1.362 . S
H1632 C1638 0.930 . S
H1633 C1641 0.930 . S
H1634 C1642 0.930 . S
H1635 C1643 0.930 . S
H1636 C1646 0.930 . S
H1637 C1647 0.930 . S
C1638 H1632 0.930 . S
C1638 C1639 1.355 . S
C1638 C1640 1.415 . S
C1639 C1638 1.355 . S
C1639 C1641 1.419 . S
C1640 C1638 1.415 . S
C1640 C1645 1.425 . S
C1640 C1647 1.409 . S
C1641 H1633 0.930 . S
C1641 C1639 1.419 . S
C1641 C1642 1.362 . S
C1642 H1634 0.930 . S
C1642 C1641 1.362 . S
C1642 C1645 1.409 . S
C1643 H1635 0.930 . S
C1643 C1644 1.355 . S
C1643 C1645 1.415 . S
C1644 C1643 1.355 . S
C1644 C1646 1.419 . S
C1645 C1640 1.425 . S
C1645 C1642 1.409 . S
C1645 C1643 1.415 . S
C1646 H1636 0.930 . S
C1646 C1644 1.419 . S
C1646 C1647 1.362 . S
C1647 H1637 0.930 . S
C1647 C1640 1.409 . S
C1647 C1646 1.362 . S
H1648 C1654 0.930 . S
H1649 C1657 0.930 . S
H1650 C1658 0.930 . S
H1651 C1659 0.930 . S
H1652 C1662 0.930 . S
H1653 C1663 0.930 . S
C1654 H1648 0.930 . S
C1654 C1655 1.355 . S
C1654 C1656 1.415 . S
C1655 C1654 1.355 . S
C1655 C1657 1.419 . S
C1656 C1654 1.415 . S
C1656 C1661 1.425 . S
C1656 C1663 1.409 . S
C1657 H1649 0.930 . S
C1657 C1655 1.419 . S
C1657 C1658 1.362 . S
C1658 H1650 0.930 . S
C1658 C1657 1.362 . S
C1658 C1661 1.409 . S
C1659 H1651 0.930 . S
C1659 C1660 1.355 . S
C1659 C1661 1.415 . S
C1660 C1659 1.355 . S
C1660 C1662 1.419 . S
C1661 C1656 1.425 . S
C1661 C1658 1.409 . S
C1661 C1659 1.415 . S
C1662 H1652 0.930 . S
C1662 C1660 1.419 . S
C1662 C1663 1.362 . S
C1663 H1653 0.930 . S
C1663 C1656 1.409 . S
C1663 C1662 1.362 . S
H1664 C1670 0.930 . S
H1665 C1673 0.930 . S
H1666 C1674 0.930 . S
H1667 C1675 0.930 . S
H1668 C1678 0.930 . S
H1669 C1679 0.930 . S
C1670 H1664 0.930 . S
C1670 C1671 1.355 . S
C1670 C1672 1.415 . S
C1671 C1670 1.355 . S
C1671 C1673 1.419 . S
C1672 C1670 1.415 . S
C1672 C1677 1.425 . S
C1672 C1679 1.409 . S
C1673 H1665 0.930 . S
C1673 C1671 1.419 . S
C1673 C1674 1.362 . S
C1674 H1666 0.930 . S
C1674 C1673 1.362 . S
C1674 C1677 1.409 . S
C1675 H1667 0.930 . S
C1675 C1676 1.355 . S
C1675 C1677 1.415 . S
C1676 C1675 1.355 . S
C1676 C1678 1.419 . S
C1677 C1672 1.425 . S
C1677 C1674 1.409 . S
C1677 C1675 1.415 . S
C1678 H1668 0.930 . S
C1678 C1676 1.419 . S
C1678 C1679 1.362 . S
C1679 H1669 0.930 . S
C1679 C1672 1.409 . S
C1679 C1678 1.362 . S
H1680 C1686 0.930 . S
H1681 C1689 0.930 . S
H1682 C1690 0.930 . S
H1683 C1691 0.930 . S
H1684 C1694 0.930 . S
H1685 C1695 0.930 . S
C1686 H1680 0.930 . S
C1686 C1687 1.355 . S
C1686 C1688 1.415 . S
C1687 C1686 1.355 . S
C1687 C1689 1.419 . S
C1688 C1686 1.415 . S
C1688 C1693 1.425 . S
C1688 C1695 1.409 . S
C1689 H1681 0.930 . S
C1689 C1687 1.419 . S
C1689 C1690 1.362 . S
C1690 H1682 0.930 . S
C1690 C1689 1.362 . S
C1690 C1693 1.409 . S
C1691 H1683 0.930 . S
C1691 C1692 1.355 . S
C1691 C1693 1.415 . S
C1692 C1691 1.355 . S
C1692 C1694 1.419 . S
C1693 C1688 1.425 . S
C1693 C1690 1.409 . S
C1693 C1691 1.415 . S
C1694 H1684 0.930 . S
C1694 C1692 1.419 . S
C1694 C1695 1.362 . S
C1695 H1685 0.930 . S
C1695 C1688 1.409 . S
C1695 C1694 1.362 . S
H1696 C1702 0.930 . S
H1697 C1705 0.930 . S
H1698 C1706 0.930 . S
H1699 C1707 0.930 . S
H1700 C1710 0.930 . S
H1701 C1711 0.930 . S
C1702 H1696 0.930 . S
C1702 C1703 1.355 . S
C1702 C1704 1.415 . S
C1703 C1702 1.355 . S
C1703 C1705 1.419 . S
C1704 C1702 1.415 . S
C1704 C1709 1.425 . S
C1704 C1711 1.409 . S
C1705 H1697 0.930 . S
C1705 C1703 1.419 . S
C1705 C1706 1.362 . S
C1706 H1698 0.930 . S
C1706 C1705 1.362 . S
C1706 C1709 1.409 . S
C1707 H1699 0.930 . S
C1707 C1708 1.355 . S
C1707 C1709 1.415 . S
C1708 C1707 1.355 . S
C1708 C1710 1.419 . S
C1709 C1704 1.425 . S
C1709 C1706 1.409 . S
C1709 C1707 1.415 . S
C1710 H1700 0.930 . S
C1710 C1708 1.419 . S
C1710 C1711 1.362 . S
C1711 H1701 0.930 . S
C1711 C1704 1.409 . S
C1711 C1710 1.362 . S
H1712 C1718 0.930 . S
H1713 C1721 0.930 . S
H1714 C1722 0.930 . S
H1715 C1723 0.930 . S
H1716 C1726 0.930 . S
H1717 C1727 0.930 . S
C1718 H1712 0.930 . S
C1718 C1719 1.355 . S
C1718 C1720 1.415 . S
C1719 C1718 1.355 . S
C1719 C1721 1.419 . S
C1720 C1718 1.415 . S
C1720 C1725 1.425 . S
C1720 C1727 1.409 . S
C1721 H1713 0.930 . S
C1721 C1719 1.419 . S
C1721 C1722 1.362 . S
C1722 H1714 0.930 . S
C1722 C1721 1.362 . S
C1722 C1725 1.409 . S
C1723 H1715 0.930 . S
C1723 C1724 1.355 . S
C1723 C1725 1.415 . S
C1724 C1723 1.355 . S
C1724 C1726 1.419 . S
C1725 C1720 1.425 . S
C1725 C1722 1.409 . S
C1725 C1723 1.415 . S
C1726 H1716 0.930 . S
C1726 C1724 1.419 . S
C1726 C1727 1.362 . S
C1727 H1717 0.930 . S
C1727 C1720 1.409 . S
C1727 C1726 1.362 . S
H1728 C1734 0.930 . S
H1729 C1737 0.930 . S
H1730 C1738 0.930 . S
H1731 C1739 0.930 . S
H1732 C1742 0.930 . S
H1733 C1743 0.930 . S
C1734 H1728 0.930 . S
C1734 C1735 1.355 . S
C1734 C1736 1.415 . S
C1735 C1734 1.355 . S
C1735 C1737 1.419 . S
C1736 C1734 1.415 . S
C1736 C1741 1.425 . S
C1736 C1743 1.409 . S
C1737 H1729 0.930 . S
C1737 C1735 1.419 . S
C1737 C1738 1.362 . S
C1738 H1730 0.930 . S
C1738 C1737 1.362 . S
C1738 C1741 1.409 . S
C1739 H1731 0.930 . S
C1739 C1740 1.355 . S
C1739 C1741 1.415 . S
C1740 C1739 1.355 . S
C1740 C1742 1.419 . S
C1741 C1736 1.425 . S
C1741 C1738 1.409 . S
C1741 C1739 1.415 . S
C1742 H1732 0.930 . S
C1742 C1740 1.419 . S
C1742 C1743 1.362 . S
C1743 H1733 0.930 . S
C1743 C1736 1.409 . S
C1743 C1742 1.362 . S
H1744 C1750 0.930 . S
H1745 C1753 0.930 . S
H1746 C1754 0.930 . S
H1747 C1755 0.930 . S
H1748 C1758 0.930 . S
H1749 C1759 0.930 . S
C1750 H1744 0.930 . S
C1750 C1751 1.355 . S
C1750 C1752 1.415 . S
C1751 C1750 1.355 . S
C1751 C1753 1.419 . S
C1752 C1750 1.415 . S
C1752 C1757 1.425 . S
C1752 C1759 1.409 . S
C1753 H1745 0.930 . S
C1753 C1751 1.419 . S
C1753 C1754 1.362 . S
C1754 H1746 0.930 . S
C1754 C1753 1.362 . S
C1754 C1757 1.409 . S
C1755 H1747 0.930 . S
C1755 C1756 1.355 . S
C1755 C1757 1.415 . S
C1756 C1755 1.355 . S
C1756 C1758 1.419 . S
C1757 C1752 1.425 . S
C1757 C1754 1.409 . S
C1757 C1755 1.415 . S
C1758 H1748 0.930 . S
C1758 C1756 1.419 . S
C1758 C1759 1.362 . S
C1759 H1749 0.930 . S
C1759 C1752 1.409 . S
C1759 C1758 1.362 . S
H1760 C1766 0.930 . S
H1761 C1769 0.930 . S
H1762 C1770 0.930 . S
H1763 C1771 0.930 . S
H1764 C1774 0.930 . S
H1765 C1775 0.930 . S
C1766 H1760 0.930 . S
C1766 C1767 1.355 . S
C1766 C1768 1.415 . S
C1767 C1766 1.355 . S
C1767 C1769 1.419 . S
C1768 C1766 1.415 . S
C1768 C1773 1.425 . S
C1768 C1775 1.409 . S
C1769 H1761 0.930 . S
C1769 C1767 1.419 . S
C1769 C1770 1.362 . S
C1770 H1762 0.930 . S
C1770 C1769 1.362 . S
C1770 C1773 1.409 . S
C1771 H1763 0.930 . S
C1771 C1772 1.355 . S
C1771 C1773 1.415 . S
C1772 C1771 1.355 . S
C1772 C1774 1.419 . S
C1773 C1768 1.425 . S
C1773 C1770 1.409 . S
C1773 C1771 1.415 . S
C1774 H1764 0.930 . S
C1774 C1772 1.419 . S
C1774 C1775 1.362 . S
C1775 H1765 0.930 . S
C1775 C1768 1.409 . S
C1775 C1774 1.362 . S
C823 C203 0.673 . S
C828 C33 0.668 . S
C839 C67 0.647 . S
C844 C237 0.701 . S
C855 C101 0.692 . S
C860 C271 0.652 . S
C871 C169 0.708 . S
C876 C135 0.646 . S
C887 C305 0.700 . S
C892 C815 0.674 . S
C903 C747 0.647 . S
C908 C339 0.710 . S
C919 C373 0.710 . S
C924 C781 0.657 . S
C935 C577 0.649 . S
C940 C407 0.711 . S
C951 C441 0.673 . S
C956 C713 0.669 . S
C967 C475 0.711 . S
C972 C611 0.648 . S
C983 C645 0.653 . S
C988 C509 0.691 . S
C999 C543 0.710 . S
C1004 C679 0.656 . S
C1015 C104 1.861 . S
C1020 C5 1.818 . S
C1031 C39 1.795 . S
C1036 C2 1.857 . S
C1047 C73 1.820 . S
C1052 C36 1.860 . S
C1063 C70 1.852 . S
C1068 C107 1.772 . S
C1079 C172 1.861 . S
C1084 C141 1.823 . S
C1095 C175 1.824 . S
C1100 C206 1.862 . S
C1111 C240 1.858 . S
C1116 C209 1.810 . S
C1127 C138 1.853 . S
C1132 C243 1.774 . S
C1143 C614 1.854 . S
C1148 C277 1.788 . S
C1159 C311 1.772 . S
C1164 C648 1.852 . S
C1175 C682 1.855 . S
C1180 C345 1.791 . S
C1191 C379 1.773 . S
C1196 C580 1.852 . S
C1207 C750 1.859 . S
C1212 C413 1.813 . S
C1223 C447 1.826 . S
C1228 C546 1.862 . S
C1239 C784 1.856 . S
C1244 C481 1.788 . S
C1255 C515 1.772 . S
C1260 C716 1.852 . S
C1271 C308 1.855 . S
C1276 C549 1.784 . S
C1287 C512 1.858 . S
C1292 C583 1.811 . S
C1303 C617 1.772 . S
C1308 C410 1.852 . S
C1319 C651 1.774 . S
C1324 C444 1.853 . S
C1335 C478 1.854 . S
C1340 C685 1.778 . S
C1351 C376 1.862 . S
C1356 C719 1.826 . S
C1367 C274 1.862 . S
C1372 C753 1.827 . S
C1383 C787 1.781 . S
C1388 C342 1.853 . S
C1399 C9 1.442 . S
C1404 C564 1.443 . S
C1415 C802 1.448 . S
C1420 C43 1.429 . S
C1431 C77 1.440 . S
C1436 C734 1.440 . S
C1447 C768 1.438 . S
C1452 C111 1.448 . S
C1463 C145 1.452 . S
C1468 C598 1.438 . S
C1479 C179 1.434 . S
C1484 C632 1.446 . S
C1495 C666 1.443 . S
C1500 C213 1.442 . S
C1511 C700 1.447 . S
C1516 C247 1.423 . S
C1527 C20 1.455 . S
C1532 C281 1.407 . S
C1543 C315 1.435 . S
C1548 C54 1.442 . S
C1559 C349 1.410 . S
C1564 C88 1.453 . S
C1575 C383 1.447 . S
C1580 C122 1.438 . S
C1591 C417 1.445 . S
C1596 C156 1.439 . S
C1607 C451 1.407 . S
C1612 C190 1.455 . S
C1623 C485 1.420 . S
C1628 C224 1.448 . S
C1639 C519 1.443 . S
C1644 C258 1.443 . S
C1655 C292 1.444 . S
C1660 C553 1.430 . S
C1671 C587 1.416 . S
C1676 C428 1.450 . S
C1687 C621 1.408 . S
C1692 C462 1.455 . S
C1703 C496 1.439 . S
C1708 C655 1.444 . S
C1719 C689 1.441 . S
C1724 C530 1.440 . S
C1735 C360 1.447 . S
C1740 C723 1.422 . S
C1751 C394 1.437 . S
C1756 C757 1.451 . S
C1767 C791 1.427 . S
C1772 C326 1.445 . S
