# Generated by pormake.
# Topology uox, (4)-cn, num edge types: 1
# Building blocks:
#     Node 0, Type 0, BuildingBlock: NAHDIM_clean_sbu_0, # of connection points: 4
#     Node 1, Type 0, BuildingBlock: NAHDIM_clean_sbu_0, # of connection points: 4
#     Node 2, Type 0, BuildingBlock: NAHDIM_clean_sbu_0, # of connection points: 4
#     Node 3, Type 0, BuildingBlock: NAHDIM_clean_sbu_0, # of connection points: 4
#     Node 4, Type 0, BuildingBlock: NAHDIM_clean_sbu_0, # of connection points: 4
#     Node 5, Type 0, BuildingBlock: NAHDIM_clean_sbu_0, # of connection points: 4
#     Node 6, Type 0, BuildingBlock: NAHDIM_clean_sbu_0, # of connection points: 4
#     Node 7, Type 0, BuildingBlock: NAHDIM_clean_sbu_0, # of connection points: 4
#     Node 8, Type 0, BuildingBlock: NAHDIM_clean_sbu_0, # of connection points: 4
#     Node 9, Type 0, BuildingBlock: NAHDIM_clean_sbu_0, # of connection points: 4
#     Node 10, Type 0, BuildingBlock: NAHDIM_clean_sbu_0, # of connection points: 4
#     Node 11, Type 0, BuildingBlock: NAHDIM_clean_sbu_0, # of connection points: 4
#     Node 12, Type 0, BuildingBlock: NAHDIM_clean_sbu_0, # of connection points: 4
#     Node 13, Type 0, BuildingBlock: NAHDIM_clean_sbu_0, # of connection points: 4
#     Node 14, Type 0, BuildingBlock: NAHDIM_clean_sbu_0, # of connection points: 4
#     Node 15, Type 0, BuildingBlock: NAHDIM_clean_sbu_0, # of connection points: 4
#     Node 16, Type 0, BuildingBlock: NAHDIM_clean_sbu_0, # of connection points: 4
#     Node 17, Type 0, BuildingBlock: NAHDIM_clean_sbu_0, # of connection points: 4
#     Node 18, Type 0, BuildingBlock: NAHDIM_clean_sbu_0, # of connection points: 4
#     Node 19, Type 0, BuildingBlock: NAHDIM_clean_sbu_0, # of connection points: 4
#     Node 20, Type 0, BuildingBlock: NAHDIM_clean_sbu_0, # of connection points: 4
#     Node 21, Type 0, BuildingBlock: NAHDIM_clean_sbu_0, # of connection points: 4
#     Node 22, Type 0, BuildingBlock: NAHDIM_clean_sbu_0, # of connection points: 4
#     Node 23, Type 0, BuildingBlock: NAHDIM_clean_sbu_0, # of connection points: 4
#     Node 24, Type 0, BuildingBlock: NAHDIM_clean_sbu_0, # of connection points: 4
#     Node 25, Type 0, BuildingBlock: NAHDIM_clean_sbu_0, # of connection points: 4
#     Node 26, Type 0, BuildingBlock: NAHDIM_clean_sbu_0, # of connection points: 4
#     Node 27, Type 0, BuildingBlock: NAHDIM_clean_sbu_0, # of connection points: 4
#     Node 28, Type 0, BuildingBlock: NAHDIM_clean_sbu_0, # of connection points: 4
#     Node 29, Type 0, BuildingBlock: NAHDIM_clean_sbu_0, # of connection points: 4
#     Node 30, Type 0, BuildingBlock: NAHDIM_clean_sbu_0, # of connection points: 4
#     Node 31, Type 0, BuildingBlock: NAHDIM_clean_sbu_0, # of connection points: 4
#     Edge 32, Type (0, 0), BuildingBlock: CIFDUS_clean_linker_0, # of connection points: 2
#     Edge 33, Type (0, 0), BuildingBlock: CIFDUS_clean_linker_0, # of connection points: 2
#     Edge 34, Type (0, 0), BuildingBlock: CIFDUS_clean_linker_0, # of connection points: 2
#     Edge 35, Type (0, 0), BuildingBlock: CIFDUS_clean_linker_0, # of connection points: 2
#     Edge 36, Type (0, 0), BuildingBlock: CIFDUS_clean_linker_0, # of connection points: 2
#     Edge 37, Type (0, 0), BuildingBlock: CIFDUS_clean_linker_0, # of connection points: 2
#     Edge 38, Type (0, 0), BuildingBlock: CIFDUS_clean_linker_0, # of connection points: 2
#     Edge 39, Type (0, 0), BuildingBlock: CIFDUS_clean_linker_0, # of connection points: 2
#     Edge 40, Type (0, 0), BuildingBlock: CIFDUS_clean_linker_0, # of connection points: 2
#     Edge 41, Type (0, 0), BuildingBlock: CIFDUS_clean_linker_0, # of connection points: 2
#     Edge 42, Type (0, 0), BuildingBlock: CIFDUS_clean_linker_0, # of connection points: 2
#     Edge 43, Type (0, 0), BuildingBlock: CIFDUS_clean_linker_0, # of connection points: 2
#     Edge 44, Type (0, 0), BuildingBlock: CIFDUS_clean_linker_0, # of connection points: 2
#     Edge 45, Type (0, 0), BuildingBlock: CIFDUS_clean_linker_0, # of connection points: 2
#     Edge 46, Type (0, 0), BuildingBlock: CIFDUS_clean_linker_0, # of connection points: 2
#     Edge 47, Type (0, 0), BuildingBlock: CIFDUS_clean_linker_0, # of connection points: 2
#     Edge 48, Type (0, 0), BuildingBlock: CIFDUS_clean_linker_0, # of connection points: 2
#     Edge 49, Type (0, 0), BuildingBlock: CIFDUS_clean_linker_0, # of connection points: 2
#     Edge 50, Type (0, 0), BuildingBlock: CIFDUS_clean_linker_0, # of connection points: 2
#     Edge 51, Type (0, 0), BuildingBlock: CIFDUS_clean_linker_0, # of connection points: 2
#     Edge 52, Type (0, 0), BuildingBlock: CIFDUS_clean_linker_0, # of connection points: 2
#     Edge 53, Type (0, 0), BuildingBlock: CIFDUS_clean_linker_0, # of connection points: 2
#     Edge 54, Type (0, 0), BuildingBlock: CIFDUS_clean_linker_0, # of connection points: 2
#     Edge 55, Type (0, 0), BuildingBlock: CIFDUS_clean_linker_0, # of connection points: 2
#     Edge 56, Type (0, 0), BuildingBlock: CIFDUS_clean_linker_0, # of connection points: 2
#     Edge 57, Type (0, 0), BuildingBlock: CIFDUS_clean_linker_0, # of connection points: 2
#     Edge 58, Type (0, 0), BuildingBlock: CIFDUS_clean_linker_0, # of connection points: 2
#     Edge 59, Type (0, 0), BuildingBlock: CIFDUS_clean_linker_0, # of connection points: 2
#     Edge 60, Type (0, 0), BuildingBlock: CIFDUS_clean_linker_0, # of connection points: 2
#     Edge 61, Type (0, 0), BuildingBlock: CIFDUS_clean_linker_0, # of connection points: 2
#     Edge 62, Type (0, 0), BuildingBlock: CIFDUS_clean_linker_0, # of connection points: 2
#     Edge 63, Type (0, 0), BuildingBlock: CIFDUS_clean_linker_0, # of connection points: 2
#     Edge 64, Type (0, 0), BuildingBlock: CIFDUS_clean_linker_0, # of connection points: 2
#     Edge 65, Type (0, 0), BuildingBlock: CIFDUS_clean_linker_0, # of connection points: 2
#     Edge 66, Type (0, 0), BuildingBlock: CIFDUS_clean_linker_0, # of connection points: 2
#     Edge 67, Type (0, 0), BuildingBlock: CIFDUS_clean_linker_0, # of connection points: 2
#     Edge 68, Type (0, 0), BuildingBlock: CIFDUS_clean_linker_0, # of connection points: 2
#     Edge 69, Type (0, 0), BuildingBlock: CIFDUS_clean_linker_0, # of connection points: 2
#     Edge 70, Type (0, 0), BuildingBlock: CIFDUS_clean_linker_0, # of connection points: 2
#     Edge 71, Type (0, 0), BuildingBlock: CIFDUS_clean_linker_0, # of connection points: 2
#     Edge 72, Type (0, 0), BuildingBlock: CIFDUS_clean_linker_0, # of connection points: 2
#     Edge 73, Type (0, 0), BuildingBlock: CIFDUS_clean_linker_0, # of connection points: 2
#     Edge 74, Type (0, 0), BuildingBlock: CIFDUS_clean_linker_0, # of connection points: 2
#     Edge 75, Type (0, 0), BuildingBlock: CIFDUS_clean_linker_0, # of connection points: 2
#     Edge 76, Type (0, 0), BuildingBlock: CIFDUS_clean_linker_0, # of connection points: 2
#     Edge 77, Type (0, 0), BuildingBlock: CIFDUS_clean_linker_0, # of connection points: 2
#     Edge 78, Type (0, 0), BuildingBlock: CIFDUS_clean_linker_0, # of connection points: 2
#     Edge 79, Type (0, 0), BuildingBlock: CIFDUS_clean_linker_0, # of connection points: 2
#     Edge 80, Type (0, 0), BuildingBlock: CIFDUS_clean_linker_0, # of connection points: 2
#     Edge 81, Type (0, 0), BuildingBlock: CIFDUS_clean_linker_0, # of connection points: 2
#     Edge 82, Type (0, 0), BuildingBlock: CIFDUS_clean_linker_0, # of connection points: 2
#     Edge 83, Type (0, 0), BuildingBlock: CIFDUS_clean_linker_0, # of connection points: 2
#     Edge 84, Type (0, 0), BuildingBlock: CIFDUS_clean_linker_0, # of connection points: 2
#     Edge 85, Type (0, 0), BuildingBlock: CIFDUS_clean_linker_0, # of connection points: 2
#     Edge 86, Type (0, 0), BuildingBlock: CIFDUS_clean_linker_0, # of connection points: 2
#     Edge 87, Type (0, 0), BuildingBlock: CIFDUS_clean_linker_0, # of connection points: 2
#     Edge 88, Type (0, 0), BuildingBlock: CIFDUS_clean_linker_0, # of connection points: 2
#     Edge 89, Type (0, 0), BuildingBlock: CIFDUS_clean_linker_0, # of connection points: 2
#     Edge 90, Type (0, 0), BuildingBlock: CIFDUS_clean_linker_0, # of connection points: 2
#     Edge 91, Type (0, 0), BuildingBlock: CIFDUS_clean_linker_0, # of connection points: 2
#     Edge 92, Type (0, 0), BuildingBlock: CIFDUS_clean_linker_0, # of connection points: 2
#     Edge 93, Type (0, 0), BuildingBlock: CIFDUS_clean_linker_0, # of connection points: 2
#     Edge 94, Type (0, 0), BuildingBlock: CIFDUS_clean_linker_0, # of connection points: 2
#     Edge 95, Type (0, 0), BuildingBlock: CIFDUS_clean_linker_0, # of connection points: 2
# Relax obj value: 0.104
# Max RMSD: 0.135
# Mean RMSD: 0.135
data_MOF--net-uox--node1-NAHDIM_clean_sbu_0--edge1-CIFDUS_clean_linker_0
_symmetry_space_group_name_H-M    P1
_symmetry_Int_Tables_number       1
_symmetry_cell_setting            triclinic
loop_
_symmetry_equiv_pos_as_xyz
'x, y, z'
_cell_length_a     39.118794
_cell_length_b     39.155286
_cell_length_c     71.749183
_cell_angle_alpha  90.006037
_cell_angle_beta   89.923523
_cell_angle_gamma 89.965002
loop_
_atom_site_label
_atom_site_type_symbol
_atom_site_fract_x
_atom_site_fract_y
_atom_site_fract_z
_atom_type_partial_charge
C0 C 0.41116 0.00067 0.20171 0.0
O1 O 0.41233 0.97618 0.18921 0.0
O2 O 0.44274 0.03557 0.15596 0.0
Zn3 Zn 0.39714 0.03721 0.16895 0.0
O4 O 0.365 0.00031 0.1609 0.0
C5 C 0.38874 0.11054 0.16382 0.0
O6 O 0.42064 0.11206 0.16946 0.0
O7 O 0.405 0.03104 0.19639 0.0
C8 C 0.36901 0.97827 0.14812 0.0
O9 O 0.39734 0.97808 0.13827 0.0
C10 C 0.44736 0.04809 0.13981 0.0
O11 O 0.42102 0.06037 0.13064 0.0
O12 O 0.37384 0.08176 0.16319 0.0
C13 C 0.243 0.19442 0.43315 0.0
O14 O 0.26472 0.19704 0.41926 0.0
O15 O 0.19824 0.21799 0.38693 0.0
Zn16 Zn 0.19679 0.17655 0.40343 0.0
O17 O 0.2259 0.1389 0.39313 0.0
C18 C 0.13872 0.14619 0.38773 0.0
O19 O 0.16071 0.1444 0.3739 0.0
O20 O 0.21204 0.18677 0.42973 0.0
C21 C 0.25435 0.14277 0.38488 0.0
O22 O 0.26676 0.17359 0.38236 0.0
C23 C 0.19468 0.2477 0.39377 0.0
O24 O 0.19292 0.25121 0.41195 0.0
O25 O 0.14824 0.15954 0.40302 0.0
C26 C 0.07611 0.99335 0.68676 0.0
O27 O 0.07796 0.01874 0.67484 0.0
O28 O 0.04139 0.9535 0.63956 0.0
Zn29 Zn 0.08636 0.95671 0.65309 0.0
O30 O 0.11353 0.99702 0.64445 0.0
C31 C 0.09673 0.88575 0.6456 0.0
O32 O 0.06351 0.88564 0.64833 0.0
O33 O 0.07851 0.96286 0.68074 0.0
C34 C 0.12372 0.00238 0.62793 0.0
O35 O 0.11606 0.98035 0.61477 0.0
C36 C 0.01496 0.97123 0.64313 0.0
O37 O 0.01648 0.99499 0.65601 0.0
O38 O 0.11302 0.91361 0.64758 0.0
C39 C 0.26589 0.8491 0.94007 0.0
O40 O 0.25568 0.87369 0.92892 0.0
O41 O 0.3123 0.77842 0.8988 0.0
Zn42 Zn 0.29809 0.82583 0.90649 0.0
O43 O 0.25739 0.84289 0.89221 0.0
C44 C 0.36771 0.84959 0.90692 0.0
O45 O 0.372 0.82208 0.91714 0.0
O46 O 0.28546 0.82592 0.93368 0.0
C47 C 0.26149 0.85913 0.87706 0.0
O48 O 0.29237 0.86171 0.86997 0.0
C49 C 0.30543 0.76461 0.88322 0.0
O50 O 0.28625 0.78107 0.87119 0.0
O51 O 0.33783 0.85719 0.90139 0.0
C52 C 0.43783 0.98725 0.31173 0.0
O53 O 0.44629 0.01139 0.32357 0.0
O54 O 0.48422 0.94423 0.35268 0.0
Zn55 Zn 0.43506 0.95016 0.34551 0.0
O56 O 0.41441 0.9914 0.3576 0.0
C57 C 0.41747 0.87865 0.3496 0.0
O58 O 0.4455 0.87403 0.33981 0.0
O59 O 0.43202 0.95731 0.31783 0.0
C60 C 0.38223 0.99379 0.35571 0.0
O61 O 0.36574 0.96917 0.34712 0.0
C62 C 0.49232 0.9311 0.36824 0.0
O63 O 0.46802 0.92268 0.38003 0.0
O64 O 0.408 0.90887 0.35343 0.0
C65 C 0.27694 0.19065 0.54257 0.0
O66 O 0.25403 0.18913 0.55595 0.0
O67 O 0.32407 0.20979 0.59027 0.0
Zn68 Zn 0.3174 0.16964 0.57297 0.0
O69 O 0.27822 0.13948 0.58035 0.0
C70 C 0.36436 0.12926 0.59169 0.0
O71 O 0.34204 0.13735 0.60466 0.0
O72 O 0.30807 0.1844 0.54647 0.0
C73 C 0.25948 0.14139 0.59475 0.0
O74 O 0.26518 0.16539 0.60716 0.0
C75 C 0.30723 0.23754 0.59081 0.0
O76 O 0.28137 0.24195 0.57941 0.0
O77 O 0.35978 0.14059 0.57526 0.0
C78 C 0.06809 0.00364 0.79769 0.0
O79 O 0.06361 0.9792 0.81001 0.0
O80 O 0.03783 0.04802 0.84299 0.0
Zn81 Zn 0.08352 0.04127 0.83067 0.0
O82 O 0.11084 0.00168 0.84042 0.0
C83 C 0.12262 0.08991 0.85086 0.0
O84 O 0.11534 0.06839 0.86434 0.0
O85 O 0.07615 0.03336 0.80331 0.0
C86 C 0.1386 -0.00241 0.83144 0.0
O87 O 0.14564 0.01861 0.81768 0.0
C88 C 0.0297 0.04163 0.85979 0.0
O89 O 0.05216 0.02722 0.87089 0.0
O90 O 0.11155 0.08385 0.83454 0.0
C91 C 0.21175 0.81114 0.04544 0.0
O92 O 0.22665 0.7901 0.05716 0.0
O93 O 0.17199 0.7765 0.08473 0.0
Zn94 Zn 0.17954 0.82634 0.07899 0.0
O95 O 0.22243 0.84389 0.09112 0.0
C96 C 0.12312 0.84429 0.10243 0.0
O97 O 0.13471 0.81729 0.11125 0.0
O98 O 0.18809 0.83056 0.05144 0.0
C99 C 0.22335 0.8584 0.10694 0.0
O100 O 0.19512 0.86112 0.11674 0.0
C101 C 0.18365 0.76101 0.09893 0.0
O102 O 0.20251 0.77777 0.11099 0.0
O103 O 0.13811 0.85382 0.08755 0.0
C104 C 0.57144 0.98873 0.80831 0.0
O105 O 0.569 0.01476 0.81979 0.0
O106 O 0.54028 0.94288 0.85608 0.0
Zn107 Zn 0.58426 0.95382 0.84267 0.0
O108 O 0.60564 0.99681 0.8525 0.0
C109 C 0.64795 0.91782 0.85134 0.0
O110 O 0.66182 0.94836 0.85088 0.0
O111 O 0.5771 0.95914 0.81495 0.0
C112 C 0.60997 0.00274 0.86973 0.0
O113 O 0.59861 0.9806 0.88202 0.0
C114 C 0.51081 0.95449 0.85217 0.0
O115 O 0.50748 0.9765 0.83848 0.0
O116 O 0.61628 0.9145 0.84775 0.0
C117 C 0.77044 0.80845 0.55488 0.0
O118 O 0.74463 0.80989 0.5666 0.0
O119 O 0.81684 0.78169 0.60279 0.0
Zn120 Zn 0.80812 0.82443 0.58803 0.0
O121 O 0.76756 0.85055 0.59776 0.0
C122 C 0.85154 0.88091 0.5997 0.0
O123 O 0.82325 0.89281 0.60716 0.0
O124 O 0.80055 0.81335 0.56095 0.0
C125 C 0.75144 0.84403 0.61273 0.0
O126 O 0.76097 0.81803 0.62306 0.0
C127 C 0.8026 0.75296 0.60013 0.0
O128 O 0.77905 0.75006 0.58719 0.0
O129 O 0.85063 0.85309 0.59057 0.0
C130 C 0.89899 0.01471 0.30008 0.0
O131 O 0.90299 0.99061 0.31262 0.0
O132 O 0.94757 0.06445 0.3399 0.0
Zn133 Zn 0.89823 0.05674 0.33293 0.0
O134 O 0.87851 0.0181 0.34811 0.0
C135 C 0.88369 0.12903 0.33631 0.0
O136 O 0.91361 0.13208 0.32813 0.0
O137 O 0.89584 0.04552 0.30546 0.0
C138 C 0.86555 0.02422 0.36403 0.0
O139 O 0.86576 0.05566 0.3704 0.0
C140 C 0.95591 0.07823 0.35529 0.0
O141 O 0.93183 0.0868 0.36718 0.0
O142 O 0.87143 0.09938 0.33893 0.0
C143 C 0.7122 0.1728 0.04903 0.0
O144 O 0.73753 0.16709 0.06062 0.0
O145 O 0.66625 0.20524 0.09701 0.0
Zn146 Zn 0.67236 0.16198 0.0822 0.0
O147 O 0.71073 0.1329 0.09217 0.0
C148 C 0.62283 0.11659 0.09819 0.0
O149 O 0.6475 0.1121 0.11036 0.0
O150 O 0.68169 0.17255 0.05517 0.0
C151 C 0.73108 0.14178 0.10508 0.0
O152 O 0.72722 0.17169 0.1131 0.0
C153 C 0.67975 0.23383 0.09303 0.0
O154 O 0.70059 0.23598 0.07871 0.0
O155 O 0.62792 0.13626 0.08437 0.0
C156 C 0.57588 0.99064 0.69697 0.0
O157 O 0.57545 0.96497 0.68518 0.0
O158 O 0.53374 0.03838 0.65333 0.0
Zn159 Zn 0.58158 0.03052 0.66317 0.0
O160 O 0.60568 0.99106 0.65056 0.0
C161 C 0.60424 0.09286 0.64553 0.0
O162 O 0.57917 0.0854 0.6341 0.0
O163 O 0.57835 0.02093 0.69072 0.0
C164 C 0.62086 0.99478 0.63502 0.0
O165 O 0.61933 0.02442 0.62651 0.0
C166 C 0.52355 0.03303 0.63675 0.0
O167 O 0.54465 0.01963 0.62452 0.0
O168 O 0.60995 0.07341 0.65938 0.0
C169 C 0.76631 0.79624 0.44396 0.0
O170 O 0.79166 0.7964 0.43193 0.0
O171 O 0.71715 0.76163 0.39813 0.0
Zn172 Zn 0.72422 0.80651 0.4111 0.0
O173 O 0.76034 0.835 0.39861 0.0
C174 C 0.67254 0.85261 0.39699 0.0
O175 O 0.69585 0.85902 0.38427 0.0
O176 O 0.73584 0.79938 0.43808 0.0
C177 C 0.76682 0.86371 0.40607 0.0
O178 O 0.75088 0.87208 0.42155 0.0
C179 C 0.71188 0.76087 0.38066 0.0
O180 O 0.71423 0.78935 0.37107 0.0
O181 O 0.67926 0.83152 0.40995 0.0
C182 C 0.90487 -0.00186 0.18896 0.0
O183 O 0.90755 0.02252 0.17646 0.0
O184 O 0.94837 0.94731 0.14599 0.0
Zn185 Zn 0.90094 0.95713 0.15587 0.0
O186 O 0.8776 0.99605 0.14263 0.0
C187 C 0.88536 0.88547 0.15437 0.0
O188 O 0.91549 0.88312 0.16235 0.0
O189 O 0.90225 0.96735 0.18349 0.0
C190 C 0.86151 0.99079 0.12753 0.0
O191 O 0.86261 0.96029 0.11991 0.0
C192 C 0.9598 0.95624 0.13011 0.0
O193 O 0.94105 0.97587 0.11936 0.0
O194 O 0.87309 0.91487 0.15103 0.0
C195 C 0.77559 0.17885 0.94336 0.0
O196 O 0.75143 0.1896 0.93208 0.0
O197 O 0.8168 0.21337 0.89908 0.0
Zn198 Zn 0.80687 0.16597 0.90852 0.0
O199 O 0.76317 0.14526 0.89883 0.0
C200 C 0.85582 0.13863 0.88373 0.0
O201 O 0.83949 0.16 0.8728 0.0
O202 O 0.80326 0.16747 0.93643 0.0
C203 C 0.75139 0.14642 0.88234 0.0
O204 O 0.76779 0.16386 0.86952 0.0
C205 C 0.79747 0.23561 0.89164 0.0
O206 O 0.76483 0.22906 0.88931 0.0
O207 O 0.84646 0.13605 0.90065 0.0
C208 C 0.93287 0.50833 0.69003 0.0
O209 O 0.92407 0.48058 0.68094 0.0
O210 O 0.97115 0.5447 0.63882 0.0
Zn211 Zn 0.92767 0.53797 0.65338 0.0
O212 O 0.902 0.49606 0.64548 0.0
C213 C 0.90663 0.60794 0.65326 0.0
O214 O 0.93441 0.61125 0.66337 0.0
O215 O 0.93671 0.53609 0.68108 0.0
C216 C 0.90367 0.4819 0.62959 0.0
O217 O 0.92435 0.49443 0.61687 0.0
C218 C 0.00077 0.53638 0.64446 0.0
O219 O 0.00398 0.52042 0.66047 0.0
O220 O 0.89795 0.57839 0.64772 0.0
C221 C 0.75356 0.68686 0.94062 0.0
O222 O 0.77918 0.68984 0.92888 0.0
O223 O 0.70545 0.71485 0.89334 0.0
Zn224 Zn 0.71818 0.67161 0.90677 0.0
O225 O 0.76092 0.64951 0.89697 0.0
C226 C 0.67259 0.63452 0.88473 0.0
O227 O 0.69115 0.65057 0.87223 0.0
O228 O 0.72399 0.67981 0.93434 0.0
C229 C 0.77555 0.65441 0.88139 0.0
O230 O 0.76314 0.67721 0.86979 0.0
C231 C 0.72171 0.74275 0.89168 0.0
O232 O 0.75202 0.74593 0.89934 0.0
O233 O 0.67945 0.63885 0.90189 0.0
C234 C 0.55492 0.48361 0.18628 0.0
O235 O 0.55083 0.51096 0.17591 0.0
O236 O 0.52196 0.44915 0.13876 0.0
Zn237 Zn 0.5684 0.45333 0.15071 0.0
O238 O 0.59354 0.49528 0.14224 0.0
C239 C 0.58775 0.3827 0.14987 0.0
O240 O 0.56164 0.3802 0.16133 0.0
O241 O 0.56255 0.45545 0.1785 0.0
C242 C 0.5984 0.50197 0.12513 0.0
O243 O 0.58551 0.48156 0.11243 0.0
C244 C 0.51825 0.43267 0.12363 0.0
O245 O 0.54536 0.41996 0.11531 0.0
O246 O 0.59621 0.41197 0.14379 0.0
C247 C 0.75146 0.32253 0.44427 0.0
O248 O 0.72657 0.31919 0.43214 0.0
O249 O 0.79926 0.29562 0.39666 0.0
Zn250 Zn 0.7874 0.33839 0.41084 0.0
O251 O 0.74362 0.35869 0.40156 0.0
C252 C 0.82292 0.40263 0.40201 0.0
O253 O 0.7923 0.41641 0.40191 0.0
O254 O 0.78136 0.32962 0.43841 0.0
C255 C 0.7356 0.36294 0.38459 0.0
O256 O 0.75708 0.35348 0.37148 0.0
C257 C 0.78116 0.26889 0.39492 0.0
O258 O 0.75127 0.26723 0.40324 0.0
O259 O 0.82621 0.37117 0.40607 0.0
C260 C 0.93502 0.47638 0.79994 0.0
O261 O 0.94915 0.50183 0.80904 0.0
O262 O 0.97686 0.44324 0.8434 0.0
Zn263 Zn 0.92735 0.45092 0.83694 0.0
O264 O 0.90872 0.4952 0.84698 0.0
C265 C 0.91178 0.39521 0.86148 0.0
O266 O 0.94099 0.40492 0.86874 0.0
O267 O 0.92328 0.45116 0.80907 0.0
C268 C 0.90167 0.49866 0.86416 0.0
O269 O 0.90831 0.47341 0.87566 0.0
C270 C 0.99494 0.45935 0.85519 0.0
O271 O 0.98202 0.48601 0.86379 0.0
O272 O 0.89994 0.41141 0.84753 0.0
C273 C 0.7566 0.68308 0.05187 0.0
O274 O 0.73071 0.68332 0.06355 0.0
O275 O 0.80232 0.71214 0.09988 0.0
Zn276 Zn 0.79255 0.66895 0.0857 0.0
O277 O 0.75022 0.64597 0.09522 0.0
C278 C 0.82974 0.6059 0.09365 0.0
O279 O 0.79945 0.59155 0.0927 0.0
O280 O 0.78659 0.67809 0.05817 0.0
C281 C 0.74173 0.6441 0.11227 0.0
O282 O 0.76086 0.65905 0.1249 0.0
C283 C 0.78547 0.73985 0.09915 0.0
O284 O 0.75848 0.74183 0.08833 0.0
O285 O 0.83263 0.63771 0.09038 0.0
C286 C 0.55105 0.52571 0.29497 0.0
O287 O 0.5505 0.49764 0.30499 0.0
O288 O 0.52844 0.55864 0.34682 0.0
Zn289 Zn 0.56962 0.5527 0.33024 0.0
O290 O 0.59514 0.50909 0.33502 0.0
C291 C 0.61394 0.59012 0.35312 0.0
O292 O 0.60488 0.56501 0.36421 0.0
O293 O 0.55743 0.55397 0.30297 0.0
C294 C 0.59127 0.48916 0.34881 0.0
O295 O 0.56794 0.49612 0.36144 0.0
C296 C 0.49981 0.54343 0.34593 0.0
O297 O 0.49491 0.52001 0.3331 0.0
O298 O 0.60188 0.59096 0.33668 0.0
C299 C 0.73951 0.32264 0.55544 0.0
O300 O 0.7638 0.31591 0.56753 0.0
O301 O 0.69096 0.27754 0.59547 0.0
Zn302 Zn 0.70139 0.32657 0.58914 0.0
O303 O 0.74391 0.34525 0.60144 0.0
C304 C 0.64615 0.34799 0.61222 0.0
O305 O 0.65832 0.32256 0.62211 0.0
O306 O 0.7094 0.32858 0.56136 0.0
C307 C 0.74742 0.35409 0.61837 0.0
O308 O 0.72207 0.34946 0.6301 0.0
C309 C 0.69995 0.26009 0.60957 0.0
O310 O 0.72039 0.27366 0.62205 0.0
O311 O 0.66023 0.35518 0.59671 0.0
C312 C 0.05474 0.49102 0.30668 0.0
O313 O 0.04444 0.51914 0.31496 0.0
O314 O 0.02457 0.45728 0.3566 0.0
Zn315 Zn 0.06882 0.47088 0.34442 0.0
O316 O 0.08492 0.51782 0.35137 0.0
C317 C 0.11505 0.41205 0.34621 0.0
O318 O 0.10474 0.40562 0.32915 0.0
O319 O 0.06588 0.4665 0.31655 0.0
C320 C 0.08771 0.52582 0.36845 0.0
O321 O 0.07631 0.50448 0.38115 0.0
C322 C 0.99789 0.47465 0.3601 0.0
O323 O 0.99657 0.50697 0.35524 0.0
O324 O 0.10373 0.43828 0.35461 0.0
C325 C 0.26052 0.32705 0.0563 0.0
O326 O 0.24682 0.3549 0.06329 0.0
O327 O 0.29705 0.27999 0.10914 0.0
Zn328 Zn 0.28394 0.3209 0.09382 0.0
O329 O 0.24069 0.34301 0.10315 0.0
C330 C 0.32542 0.37567 0.10885 0.0
O331 O 0.29993 0.37878 0.12066 0.0
O332 O 0.27793 0.3077 0.06689 0.0
C333 C 0.22996 0.34134 0.11984 0.0
O334 O 0.24731 0.32352 0.13213 0.0
C335 C 0.27979 0.2527 0.11076 0.0
O336 O 0.2503 0.25007 0.10214 0.0
O337 O 0.32343 0.35366 0.09587 0.0
C338 C 0.43642 0.50711 0.80894 0.0
O339 O 0.43639 0.47882 0.81878 0.0
O340 O 0.48539 0.54372 0.85399 0.0
Zn341 Zn 0.43649 0.5383 0.84542 0.0
O342 O 0.41304 0.49629 0.85549 0.0
C343 C 0.41675 0.59571 0.86833 0.0
O344 O 0.44179 0.58428 0.87879 0.0
O345 O 0.43651 0.53571 0.81734 0.0
C346 C 0.40207 0.49345 0.8721 0.0
O347 O 0.40754 0.51826 0.88403 0.0
C348 C 0.49886 0.53267 0.86895 0.0
O349 O 0.48066 0.51384 0.88039 0.0
O350 O 0.40966 0.58015 0.85326 0.0
C351 C 0.23899 0.68936 0.55333 0.0
O352 O 0.25304 0.71273 0.56398 0.0
O353 O 0.19497 0.71184 0.59838 0.0
Zn354 Zn 0.21011 0.66622 0.58829 0.0
O355 O 0.25219 0.64842 0.60101 0.0
C356 C 0.14253 0.63699 0.58678 0.0
O357 O 0.13768 0.66148 0.57454 0.0
O358 O 0.219 0.66752 0.56062 0.0
C359 C 0.2496 0.63685 0.61749 0.0
O360 O 0.22022 0.6398 0.62625 0.0
C361 C 0.2136 0.73506 0.60544 0.0
O362 O 0.2469 0.7309 0.60601 0.0
O363 O 0.17195 0.63336 0.59398 0.0
C364 C 0.06063 0.51129 0.19602 0.0
O365 O 0.07009 0.48286 0.18777 0.0
O366 O 0.02739 0.55319 0.14422 0.0
Zn367 Zn 0.06901 0.54004 0.15899 0.0
O368 O 0.09012 0.49574 0.15048 0.0
C369 C 0.10801 0.58657 0.13773 0.0
O370 O 0.09224 0.56977 0.12443 0.0
O371 O 0.05793 0.53846 0.18643 0.0
C372 C 0.08731 0.48348 0.13416 0.0
O373 O 0.06833 0.49943 0.12183 0.0
C374 C 0.00064 0.536 0.14072 0.0
O375 O 0.99776 0.50476 0.14721 0.0
O376 O 0.10298 0.57777 0.15456 0.0
C377 C 0.2255 0.31317 0.9469 0.0
O378 O 0.24445 0.28942 0.93909 0.0
O379 O 0.20081 0.27482 0.90336 0.0
Zn380 Zn 0.20737 0.32512 0.90885 0.0
O381 O 0.25204 0.34421 0.89953 0.0
C382 C 0.15396 0.34256 0.88263 0.0
O383 O 0.16419 0.31422 0.8746 0.0
O384 O 0.20668 0.33176 0.93663 0.0
C385 C 0.25699 0.3533 0.88274 0.0
O386 O 0.23293 0.34804 0.87032 0.0
C387 C 0.21117 0.25917 0.88889 0.0
O388 O 0.22932 0.27563 0.87638 0.0
O389 O 0.16853 0.35233 0.89754 0.0
C390 C 0.42863 0.46953 0.69955 0.0
O391 O 0.43588 0.49691 0.68973 0.0
O392 O 0.46379 0.44042 0.65234 0.0
Zn393 Zn 0.41636 0.44365 0.66305 0.0
O394 O 0.39131 0.4863 0.65528 0.0
C395 C 0.40323 0.37343 0.65493 0.0
O396 O 0.4328 0.37002 0.66341 0.0
O397 O 0.41963 0.44246 0.69109 0.0
C398 C 0.36394 0.49251 0.66425 0.0
O399 O 0.35463 0.47147 0.67759 0.0
C400 C 0.47009 0.44145 0.63496 0.0
O401 O 0.44509 0.44794 0.62327 0.0
O402 O 0.39014 0.40302 0.65356 0.0
C403 C 0.27494 0.64761 0.44597 0.0
O404 O 0.26445 0.62118 0.43625 0.0
O405 O 0.31251 0.7103 0.39812 0.0
Zn406 Zn 0.2964 0.66653 0.4098 0.0
O407 O 0.2508 0.6521 0.39962 0.0
C408 C 0.32697 0.60408 0.39433 0.0
O409 O 0.2954 0.59556 0.39023 0.0
O410 O 0.29111 0.67131 0.43765 0.0
C411 C 0.2413 0.65442 0.38275 0.0
O412 O 0.26198 0.66821 0.37043 0.0
C413 C 0.3001 0.73998 0.40041 0.0
O414 O 0.27339 0.74407 0.4113 0.0
O415 O 0.33251 0.63159 0.40327 0.0
H416 H 0.42947 0.94257 0.28308 0.0
H417 H 0.43767 0.05015 0.29544 0.0
H418 H 0.43003 0.06387 0.26255 0.0
H419 H 0.42042 0.0454 0.23028 0.0
H420 H 0.41363 0.93774 0.21784 0.0
H421 H 0.42134 0.92405 0.25073 0.0
C422 C 0.4296 0.96901 0.27858 0.0
C423 C 0.43403 0.99527 0.29171 0.0
C424 C 0.42542 0.97675 0.25962 0.0
C425 C 0.43436 0.02941 0.28563 0.0
C426 C 0.42993 0.03731 0.26681 0.0
C427 C 0.42061 0.01895 0.23477 0.0
C428 C 0.41634 0.99267 0.22163 0.0
C429 C 0.42533 0.0112 0.25369 0.0
C430 C 0.4169 0.9585 0.22766 0.0
C431 C 0.42126 0.95061 0.24647 0.0
H432 H 0.31665 0.19469 0.51131 0.0
H433 H 0.21176 0.19845 0.53006 0.0
H434 H 0.19211 0.20159 0.49793 0.0
H435 H 0.20428 0.19963 0.46447 0.0
H436 H 0.30897 0.19642 0.44547 0.0
H437 H 0.329 0.19693 0.47768 0.0
C438 C 0.28952 0.1965 0.50837 0.0
C439 C 0.26576 0.19599 0.52309 0.0
C440 C 0.27827 0.19822 0.4898 0.0
C441 C 0.23068 0.1986 0.51902 0.0
C442 C 0.21934 0.20033 0.50063 0.0
C443 C 0.23149 0.19925 0.46737 0.0
C444 C 0.25505 0.19766 0.45259 0.0
C445 C 0.24286 0.19955 0.4859 0.0
C446 C 0.29024 0.19757 0.45659 0.0
C447 C 0.30175 0.19777 0.47501 0.0
H448 H 0.07125 0.04888 0.76911 0.0
H449 H 0.06096 0.94131 0.78099 0.0
H450 H 0.06162 0.92852 0.74767 0.0
H451 H 0.06739 0.94778 0.71516 0.0
H452 H 0.07726 0.05558 0.7036 0.0
H453 H 0.07442 0.06827 0.73678 0.0
C454 C 0.069 0.02264 0.76443 0.0
C455 C 0.06627 0.99611 0.77753 0.0
C456 C 0.06945 0.01545 0.74529 0.0
C457 C 0.06313 0.96225 0.77121 0.0
C458 C 0.06359 0.95489 0.75215 0.0
C459 C 0.0688 0.97404 0.7199 0.0
C460 C 0.07275 0.00063 0.7069 0.0
C461 C 0.06711 0.98126 0.73906 0.0
C462 C 0.0743 0.03456 0.71328 0.0
C463 C 0.07272 0.0419 0.73227 0.0
H464 H 0.28066 0.80099 0.96615 0.0
H465 H 0.22195 0.89303 0.95753 0.0
H466 H 0.19916 0.88896 0.98914 0.0
H467 H 0.19589 0.85921 0.01931 0.0
H468 H 0.25527 0.76755 0.02782 0.0
H469 H 0.27755 0.77148 0.99616 0.0
C470 C 0.26295 0.82024 0.97118 0.0
C471 C 0.25308 0.84727 0.95947 0.0
C472 C 0.24989 0.81774 0.98935 0.0
C473 C 0.23007 0.87196 0.96624 0.0
C474 C 0.21693 0.86962 0.98432 0.0
C475 C 0.21355 0.84 0.0142 0.0
C476 C 0.22383 0.81312 0.02592 0.0
C477 C 0.22659 0.84256 0.99599 0.0
C478 C 0.24694 0.78856 0.01912 0.0
C479 C 0.25975 0.79077 0.001 0.0
H480 H 0.57454 0.94086 0.78073 0.0
H481 H 0.56448 0.04937 0.79003 0.0
H482 H 0.56452 0.05942 0.75651 0.0
H483 H 0.569 0.03775 0.72457 0.0
H484 H 0.57857 0.92929 0.71507 0.0
H485 H 0.57709 0.91897 0.74863 0.0
C486 C 0.57221 0.9667 0.77543 0.0
C487 C 0.56966 0.9943 0.78792 0.0
C488 C 0.57229 0.97236 0.75609 0.0
C489 C 0.56653 0.02761 0.78078 0.0
C490 C 0.56661 0.03343 0.76159 0.0
C491 C 0.57073 0.01183 0.72982 0.0
C492 C 0.57407 0.98437 0.7173 0.0
C493 C 0.56976 0.00604 0.74912 0.0
C494 C 0.57602 0.95093 0.72437 0.0
C495 C 0.57521 0.94499 0.74358 0.0
H496 H 0.71962 0.79398 0.47197 0.0
H497 H 0.82832 0.79647 0.46155 0.0
H498 H 0.83927 0.79906 0.49503 0.0
H499 H 0.81785 0.8034 0.52716 0.0
H500 H 0.70904 0.80125 0.53736 0.0
H501 H 0.69836 0.79563 0.50404 0.0
C502 C 0.74575 0.79489 0.47699 0.0
C503 C 0.77309 0.79524 0.46424 0.0
C504 C 0.75186 0.79658 0.49623 0.0
C505 C 0.80677 0.79623 0.47103 0.0
C506 C 0.81306 0.79779 0.49019 0.0
C507 C 0.7918 0.80153 0.52211 0.0
C508 C 0.7643 0.80298 0.53476 0.0
C509 C 0.78578 0.79843 0.5029 0.0
C510 C 0.73071 0.80033 0.52797 0.0
C511 C 0.72454 0.79714 0.50889 0.0
H512 H 0.90056 0.05857 0.2706 0.0
H513 H 0.89821 0.95126 0.28433 0.0
H514 H 0.89978 0.93663 0.25128 0.0
H515 H 0.9022 0.9542 0.21843 0.0
H516 H 0.90549 0.06153 0.20476 0.0
H517 H 0.90327 0.07613 0.23779 0.0
C518 C 0.90027 0.03198 0.26638 0.0
C519 C 0.89922 0.00609 0.27996 0.0
C520 C 0.90147 0.02369 0.24733 0.0
C521 C 0.89905 0.97175 0.2742 0.0
C522 C 0.89995 0.96332 0.25528 0.0
C523 C 0.90245 0.98079 0.22266 0.0
C524 C 0.90401 0.00669 0.20909 0.0
C525 C 0.90126 0.98907 0.24172 0.0
C526 C 0.90435 0.04102 0.21487 0.0
C527 C 0.90304 0.04944 0.23378 0.0
H528 H 0.71657 0.19272 0.96183 0.0
H529 H 0.82184 0.16385 0.97069 0.0
H530 H 0.81178 0.16094 0.00425 0.0
H531 H 0.77267 0.16465 0.03092 0.0
H532 H 0.66698 0.19181 0.02194 0.0
H533 H 0.67773 0.19745 0.98855 0.0
C534 C 0.73739 0.18598 0.9711 0.0
C535 C 0.7699 0.17846 0.96375 0.0
C536 C 0.73134 0.18396 0.99035 0.0
C537 C 0.79654 0.16966 0.97597 0.0
C538 C 0.79082 0.16799 0.99516 0.0
C539 C 0.75201 0.17201 0.02169 0.0
C540 C 0.71906 0.17773 0.02893 0.0
C541 C 0.75825 0.1748 0.00249 0.0
C542 C 0.69256 0.18713 0.01674 0.0
C543 C 0.69868 0.19037 0.99764 0.0
H544 H 0.91716 0.45603 0.7133 0.0
H545 H 0.9567 0.55894 0.71286 0.0
H546 H 0.96122 0.55796 0.74683 0.0
H547 H 0.95314 0.52816 0.77664 0.0
H548 H 0.91243 0.42567 0.77693 0.0
H549 H 0.90914 0.42631 0.74299 0.0
C550 C 0.92692 0.47822 0.7206 0.0
C551 C 0.93662 0.50749 0.71054 0.0
C552 C 0.92913 0.47762 0.74011 0.0
C553 C 0.94903 0.53607 0.72026 0.0
C554 C 0.95161 0.53555 0.73969 0.0
C555 C 0.94359 0.50593 0.76929 0.0
C556 C 0.93305 0.47692 0.77934 0.0
C557 C 0.94158 0.50651 0.74975 0.0
C558 C 0.92065 0.44838 0.76957 0.0
C559 C 0.91879 0.44868 0.75014 0.0
H560 H 0.80399 0.68882 0.02416 0.0
H561 H 0.69516 0.68467 0.034 0.0
H562 H 0.68456 0.68662 0.00055 0.0
H563 H 0.70611 0.68715 0.96842 0.0
H564 H 0.81487 0.69198 0.95851 0.0
H565 H 0.82545 0.69232 0.99201 0.0
C566 C 0.77795 0.6885 0.01899 0.0
C567 C 0.75046 0.68637 0.03159 0.0
C568 C 0.77196 0.68968 -0.00031 0.0
C569 C 0.71686 0.68623 0.02464 0.0
C570 C 0.71072 0.68729 0.00549 0.0
C571 C 0.73212 0.68843 0.97358 0.0
C572 C 0.75963 0.6893 0.96095 0.0
C573 C 0.73808 0.68864 0.99288 0.0
C574 C 0.79318 0.69123 0.96789 0.0
C575 C 0.7993 0.69135 0.98707 0.0
H576 H 0.54993 0.46856 0.27368 0.0
H577 H 0.54566 0.57854 0.27015 0.0
H578 H 0.54492 0.5751 0.23613 0.0
H579 H 0.54825 0.54091 0.20744 0.0
H580 H 0.55469 0.43102 0.21123 0.0
H581 H 0.55179 0.43445 0.24514 0.0
C582 C 0.54852 0.49181 0.2655 0.0
C583 C 0.5479 0.52376 0.27445 0.0
C584 C 0.54872 0.48967 0.24599 0.0
C585 C 0.54624 0.55361 0.26361 0.0
C586 C 0.54588 0.55167 0.24415 0.0
C587 C 0.54882 0.51769 0.21567 0.0
C588 C 0.5518 0.48577 0.2068 0.0
C589 C 0.54756 0.51984 0.2352 0.0
C590 C 0.55258 0.45594 0.21769 0.0
C591 C 0.55089 0.45786 0.23709 0.0
H592 H 0.6945 0.31986 0.52662 0.0
H593 H 0.80228 0.32538 0.53901 0.0
H594 H 0.81567 0.3253 0.50577 0.0
H595 H 0.79677 0.32416 0.47312 0.0
H596 H 0.68899 0.31701 0.46084 0.0
H597 H 0.67572 0.31699 0.49403 0.0
C598 C 0.7209 0.32115 0.52204 0.0
C599 C 0.74731 0.3228 0.53527 0.0
C600 C 0.72848 0.32065 0.5029 0.0
C601 C 0.78143 0.32408 0.52911 0.0
C602 C 0.78914 0.32404 0.5101 0.0
C603 C 0.7704 0.32248 0.4777 0.0
C604 C 0.74396 0.32069 0.46448 0.0
C605 C 0.76287 0.32235 0.49686 0.0
C606 C 0.70991 0.31837 0.47068 0.0
C607 C 0.70223 0.31846 0.48969 0.0
H608 H 0.03848 0.54064 0.28168 0.0
H609 H 0.07196 0.43576 0.28538 0.0
H610 H 0.07523 0.43238 0.25147 0.0
H611 H 0.07074 0.45978 0.22083 0.0
H612 H 0.03846 0.56503 0.21715 0.0
H613 H 0.03244 0.56756 0.25098 0.0
C614 C 0.04631 0.51697 0.27508 0.0
C615 C 0.05507 0.48856 0.28609 0.0
C616 C 0.04845 0.51526 0.25557 0.0
C617 C 0.06517 0.45809 0.27727 0.0
C618 C 0.06707 0.45611 0.25787 0.0
C619 C 0.06219 0.48323 0.2274 0.0
C620 C 0.05519 0.51219 0.21645 0.0
C621 C 0.05909 0.48463 0.24688 0.0
C622 C 0.04414 0.54237 0.22523 0.0
C623 C 0.04071 0.54386 0.24459 0.0
H624 H 0.22179 0.36086 0.03089 0.0
H625 H 0.29003 0.27483 0.03669 0.0
H626 H 0.2846 0.26254 0.00345 0.0
H627 H 0.26155 0.27701 0.97263 0.0
H628 H 0.19312 0.36296 0.96695 0.0
H629 H 0.19752 0.37435 0.00029 0.0
C630 C 0.23545 0.33937 0.02491 0.0
C631 C 0.25641 0.31891 0.03627 0.0
C632 C 0.23221 0.33243 0.0058 0.0
C633 C 0.27376 0.29105 0.02828 0.0
C634 C 0.27069 0.284 0.00926 0.0
C635 C 0.24751 0.29819 0.97867 0.0
C636 C 0.22715 0.31916 0.96726 0.0
C637 C 0.25015 0.30465 -0.00213 0.0
C638 C 0.20902 0.34641 0.97538 0.0
C639 C 0.21154 0.35299 0.99445 0.0
H640 H 0.4288 0.45097 0.78699 0.0
H641 H 0.44344 0.56017 0.7845 0.0
H642 H 0.44292 0.55798 0.75051 0.0
H643 H 0.4379 0.52524 0.72152 0.0
H644 H 0.42201 0.41623 0.72392 0.0
H645 H 0.42348 0.41823 0.75794 0.0
C646 C 0.43195 0.4743 0.77903 0.0
C647 C 0.43619 0.50568 0.78831 0.0
C648 C 0.43139 0.47291 0.75947 0.0
C649 C 0.44007 0.53567 0.77774 0.0
C650 C 0.43981 0.53445 0.75829 0.0
C651 C 0.43486 0.50187 0.72946 0.0
C652 C 0.42992 0.47063 0.72017 0.0
C653 C 0.43545 0.50323 0.74901 0.0
C654 C 0.42582 0.44064 0.73071 0.0
C655 C 0.42667 0.44175 0.75017 0.0
H656 H 0.22273 0.63862 0.52907 0.0
H657 H 0.27568 0.73509 0.53258 0.0
H658 H 0.29186 0.73062 0.49976 0.0
H659 H 0.29117 0.69913 0.47005 0.0
H660 H 0.23878 0.60224 0.46696 0.0
H661 H 0.22242 0.60707 0.49962 0.0
C662 C 0.23769 0.65877 0.52266 0.0
C663 C 0.24788 0.68719 0.53328 0.0
C664 C 0.24719 0.6559 0.50385 0.0
C665 C 0.26746 0.71292 0.52475 0.0
C666 C 0.27677 0.71038 0.50597 0.0
C667 C 0.27626 0.67902 0.47653 0.0
C668 C 0.26626 0.65037 0.46602 0.0
C669 C 0.26687 0.68192 0.4954 0.0
C670 C 0.24691 0.62458 0.47467 0.0
C671 C 0.23745 0.62732 0.49338 0.0
H672 H 0.36413 0.93346 0.1191 0.0
H673 H 0.31034 0.96933 0.16795 0.0
H674 H 0.26162 0.93348 0.1602 0.0
H675 H 0.2327 0.89492 0.13863 0.0
H676 H 0.28547 0.8596 0.08938 0.0
H677 H 0.33618 0.89196 0.09835 0.0
C678 C 0.34187 0.93321 0.12812 0.0
C679 C 0.34082 0.95432 0.14396 0.0
C680 C 0.31365 0.91271 0.12351 0.0
C681 C 0.31178 0.95359 0.15555 0.0
C682 C 0.28384 0.93306 0.15116 0.0
C683 C 0.25537 0.89402 0.12993 0.0
C684 C 0.25514 0.87511 0.1133 0.0
C685 C 0.28426 0.91299 0.13502 0.0
C686 C 0.28485 0.87411 0.10223 0.0
C687 C 0.31387 0.89267 0.10732 0.0
H688 H 0.32295 0.13703 0.37995 0.0
H689 H 0.2286 0.08034 0.37645 0.0
H690 H 0.26 0.0292 0.36721 0.0
H691 H 0.31404 0.00057 0.36027 0.0
H692 H 0.40894 0.05599 0.36506 0.0
H693 H 0.37757 0.10764 0.37383 0.0
C694 C 0.30933 0.11351 0.37703 0.0
C695 C 0.27357 0.11243 0.37875 0.0
C696 C 0.32761 0.08398 0.37211 0.0
C697 C 0.25618 0.08172 0.37523 0.0
C698 C 0.27408 0.05249 0.36995 0.0
C699 C 0.32788 0.02393 0.36325 0.0
C700 C 0.36369 0.02453 0.36197 0.0
C701 C 0.30977 0.05332 0.36841 0.0
C702 C 0.38132 0.05489 0.36603 0.0
C703 C 0.36341 0.08444 0.37096 0.0
H704 H 0.15569 0.01837 0.59538 0.0
H705 H 0.14145 0.05342 0.65193 0.0
H706 H 0.18083 0.10056 0.64641 0.0
H707 H 0.22159 0.13027 0.62605 0.0
H708 H 0.23659 0.09443 0.56971 0.0
H709 H 0.19459 0.04943 0.57465 0.0
C710 C 0.161 0.03644 0.60646 0.0
C711 C 0.1458 0.03219 0.62404 0.0
C712 C 0.18396 0.06336 0.60328 0.0
C713 C 0.15294 0.05593 0.63825 0.0
C714 C 0.17549 0.08294 0.63513 0.0
C715 C 0.21548 0.11278 0.61482 0.0
C716 C 0.2324 0.11559 0.59761 0.0
C717 C 0.1915 0.08666 0.61778 0.0
C718 C 0.22417 0.09269 0.58318 0.0
C719 C 0.20011 0.06692 0.58596 0.0
H720 H 0.1326 0.94968 0.85887 0.0
H721 H 0.20032 0.98498 0.81537 0.0
H722 H 0.24308 0.94317 0.82466 0.0
H723 H 0.26286 0.89926 0.84628 0.0
H724 H 0.19596 0.86417 0.89018 0.0
H725 H 0.15118 0.90283 0.87938 0.0
C726 C 0.15663 0.94808 0.85137 0.0
C727 C 0.16334 0.97067 0.83658 0.0
C728 C 0.1813 0.924 0.85682 0.0
C729 C 0.19452 0.96808 0.8269 0.0
C730 C 0.21905 0.94415 0.83218 0.0
C731 C 0.23837 0.89975 0.85338 0.0
C732 C 0.23292 0.87906 0.8691 0.0
C733 C 0.21293 0.92236 0.84729 0.0
C734 C 0.20092 0.87992 0.87806 0.0
C735 C 0.17531 0.90214 0.87195 0.0
H736 H 0.71273 0.10738 0.90553 0.0
H737 H 0.72286 0.13759 0.8479 0.0
H738 H 0.67767 0.09771 0.83919 0.0
H739 H 0.63887 0.05103 0.84754 0.0
H740 H 0.62982 0.01976 0.90506 0.0
H741 H 0.67086 0.06362 0.9142 0.0
C742 C 0.70488 0.10551 0.89107 0.0
C743 C 0.72147 0.12519 0.87736 0.0
C744 C 0.6792 0.08223 0.88612 0.0
C745 C 0.71071 0.12262 0.85873 0.0
C746 C 0.6849 0.09976 0.85372 0.0
C747 C 0.64557 0.05399 0.86212 0.0
C748 C 0.63154 0.03186 0.87557 0.0
C749 C 0.66952 0.07892 0.86725 0.0
C750 C 0.64035 0.03629 0.8944 0.0
C751 C 0.6639 0.06131 0.89964 0.0
H752 H 0.63875 0.93483 0.65172 0.0
H753 H 0.65218 0.99308 0.60112 0.0
H754 H 0.69232 0.95053 0.58943 0.0
H755 H 0.7261 0.89886 0.59426 0.0
H756 H 0.71412 0.84086 0.64502 0.0
H757 H 0.67075 0.88123 0.6559 0.0
C758 C 0.65019 0.93804 0.63805 0.0
C759 C 0.64262 0.96723 0.62737 0.0
C760 C 0.67366 0.91367 0.63148 0.0
C761 C 0.65769 0.97099 0.6097 0.0
C762 C 0.6807 0.94668 0.60299 0.0
C763 C 0.71391 0.89486 0.60767 0.0
C764 C 0.72356 0.867 0.61886 0.0
C765 C 0.68929 0.91826 0.61389 0.0
C766 C 0.70729 0.86217 0.63615 0.0
C767 C 0.68251 0.88526 0.64239 0.0
H768 H 0.78281 0.92754 0.41777 0.0
H769 H 0.80124 0.85597 0.37309 0.0
H770 H 0.83483 0.8989 0.35648 0.0
H771 H 0.85648 0.95769 0.35395 0.0
H772 H 0.83685 0.02922 0.39854 0.0
H773 H 0.80629 0.98526 0.41586 0.0
C774 C 0.79435 0.92119 0.40446 0.0
C775 C 0.78936 0.88864 0.39665 0.0
C776 C 0.81329 0.94605 0.39491 0.0
C777 C 0.8046 0.88087 0.37941 0.0
C778 C 0.82376 0.90542 0.36987 0.0
C779 C 0.8457 0.96361 0.36751 0.0
C780 C 0.8488 0.99678 0.37487 0.0
C781 C 0.82789 0.93825 0.37738 0.0
C782 C 0.83473 0.00397 0.39248 0.0
C783 C 0.81722 0.97884 0.40242 0.0
H784 H 0.74999 0.08225 0.08866 0.0
H785 H 0.77434 0.14873 0.13477 0.0
H786 H 0.81844 0.10881 0.14513 0.0
H787 H 0.84821 0.05384 0.14189 0.0
H788 H 0.82329 0.9874 0.09582 0.0
H789 H 0.7815 0.02876 0.08457 0.0
C790 C 0.76496 0.08809 0.10097 0.0
C791 C 0.75865 0.11831 0.11101 0.0
C792 C 0.79022 0.06507 0.10684 0.0
C793 C 0.77856 0.1256 0.12681 0.0
C794 C 0.80379 0.10278 0.13275 0.0
C795 C 0.83388 0.04852 0.12929 0.0
C796 C 0.83876 0.01744 0.11978 0.0
C797 C 0.8096 0.07228 0.12298 0.0
C798 C 0.81999 0.01103 0.10346 0.0
C799 C 0.796 0.03464 0.09703 0.0
H800 H 0.80061 0.37435 0.59654 0.0
H801 H 0.76308 0.37762 0.65316 0.0
H802 H 0.81003 0.41534 0.66189 0.0
H803 H 0.85862 0.45103 0.65292 0.0
H804 H 0.89523 0.44939 0.59612 0.0
H805 H 0.85181 0.40707 0.58805 0.0
C806 C 0.80288 0.38298 0.61085 0.0
C807 C 0.77812 0.37343 0.62413 0.0
C808 C 0.82961 0.40512 0.61572 0.0
C809 C 0.78161 0.38474 0.64262 0.0
C810 C 0.80842 0.40638 0.64763 0.0
C811 C 0.85734 0.44125 0.63879 0.0
C812 C 0.87992 0.45369 0.62509 0.0
C813 C 0.83207 0.41733 0.6342 0.0
C814 C 0.87806 0.44044 0.60691 0.0
C815 C 0.85319 0.41628 0.60228 0.0
H816 H 0.87933 0.55272 0.84356 0.0
H817 H 0.88189 0.51317 0.89974 0.0
H818 H 0.84555 0.55995 0.91027 0.0
H819 H 0.80919 0.6089 0.90309 0.0
H820 H 0.80506 0.64804 0.84689 0.0
H821 H 0.8463 0.6048 0.83687 0.0
C822 C 0.87225 0.55453 0.85815 0.0
C823 C 0.883 0.52921 0.8708 0.0
C824 C 0.85096 0.5813 0.8641 0.0
C825 C 0.87378 0.5321 0.88967 0.0
C826 C 0.85294 0.55884 0.89571 0.0
C827 C 0.8175 0.60823 0.88867 0.0
C828 C 0.80371 0.6314 0.87571 0.0
C829 C 0.84076 0.58308 0.88297 0.0
C830 C 0.81513 0.63042 0.85714 0.0
C831 C 0.83862 0.6056 0.85138 0.0
H832 H 0.70015 0.60783 0.08945 0.0
H833 H 0.71798 0.63101 0.14747 0.0
H834 H 0.67331 0.59064 0.15651 0.0
H835 H 0.63211 0.546 0.14799 0.0
H836 H 0.61568 0.522 0.08993 0.0
H837 H 0.65689 0.56569 0.08088 0.0
C838 C 0.69414 0.60431 0.10408 0.0
C839 C 0.7126 0.62223 0.11777 0.0
C840 C 0.66881 0.58079 0.10918 0.0
C841 C 0.70429 0.61744 0.13665 0.0
C842 C 0.67879 0.59431 0.14183 0.0
C843 C 0.6373 0.5505 0.13334 0.0
C844 C 0.621 0.53055 0.11967 0.0
C845 C 0.66134 0.5754 0.12823 0.0
C846 C 0.62795 0.53685 0.10075 0.0
C847 C 0.65156 0.56181 0.09556 0.0
H848 H 0.71613 0.38804 0.35086 0.0
H849 H 0.68347 0.37936 0.40817 0.0
H850 H 0.63376 0.41495 0.40167 0.0
H851 H 0.60238 0.45267 0.38046 0.0
H852 H 0.63623 0.46317 0.32346 0.0
H853 H 0.68231 0.42248 0.32906 0.0
C854 C 0.69792 0.39358 0.36187 0.0
C855 C 0.70372 0.38136 0.38 0.0
C856 C 0.66963 0.41456 0.35813 0.0
C857 C 0.67982 0.38874 0.39411 0.0
C858 C 0.65134 0.40909 0.39042 0.0
C859 C 0.61951 0.44567 0.36919 0.0
C860 C 0.61607 0.46117 0.35164 0.0
C861 C 0.64641 0.42278 0.37259 0.0
C862 C 0.63852 0.45184 0.33718 0.0
C863 C 0.66493 0.42859 0.34035 0.0
H864 H 0.12426 0.56796 0.34572 0.0
H865 H 0.10047 0.54911 0.40361 0.0
H866 H 0.14386 0.59032 0.41306 0.0
H867 H 0.19273 0.62641 0.40502 0.0
H868 H 0.2181 0.64387 0.34722 0.0
H869 H 0.16962 0.60871 0.33762 0.0
C870 C 0.12812 0.57326 0.36041 0.0
C871 C 0.10942 0.55509 0.37395 0.0
C872 C 0.15364 0.59647 0.36577 0.0
C873 C 0.11468 0.56248 0.3929 0.0
C874 C 0.13959 0.58597 0.39832 0.0
C875 C 0.18747 0.62289 0.3903 0.0
C876 C 0.20933 0.63735 0.37686 0.0
C877 C 0.15993 0.60225 0.3849 0.0
C878 C 0.20184 0.63285 0.35787 0.0
C879 C 0.17417 0.61266 0.35236 0.0
H880 H 0.18485 0.37459 0.09755 0.0
H881 H 0.20946 0.35634 0.15534 0.0
H882 H 0.16548 0.39703 0.16493 0.0
H883 H 0.12347 0.44117 0.1568 0.0
H884 H 0.09892 0.45936 0.09899 0.0
H885 H 0.13927 0.41502 0.08955 0.0
C886 C 0.18041 0.37927 0.11226 0.0
C887 C 0.2007 0.36276 0.1257 0.0
C888 C 0.15521 0.4028 0.11767 0.0
C889 C 0.1943 0.36879 0.1447 0.0
C890 C 0.16923 0.39215 0.1502 0.0
C891 C 0.1267 0.43524 0.14214 0.0
C892 C 0.10851 0.45386 0.12862 0.0
C893 C 0.15007 0.40984 0.13679 0.0
C894 C 0.11268 0.44554 0.10969 0.0
C895 C 0.13585 0.42025 0.10427 0.0
H896 H 0.36992 0.44929 0.84881 0.0
H897 H 0.38425 0.47268 0.90707 0.0
H898 H 0.34307 0.42844 0.91558 0.0
H899 H 0.29952 0.38675 0.90636 0.0
H900 H 0.28222 0.36636 0.84801 0.0
H901 H 0.32832 0.40559 0.83965 0.0
C902 C 0.3644 0.4444 0.86339 0.0
C903 C 0.38 0.46434 0.87729 0.0
C904 C 0.34002 0.4196 0.86815 0.0
C905 C 0.37241 0.45782 0.8961 0.0
C906 C 0.34886 0.43255 0.90098 0.0
C907 C 0.30617 0.39049 0.89182 0.0
C908 C 0.28741 0.37376 0.87781 0.0
C909 C 0.33198 0.41381 0.8871 0.0
C910 C 0.29616 0.37908 0.85904 0.0
C911 C 0.32248 0.40153 0.85425 0.0
H912 H 0.37178 0.5372 0.63536 0.0
H913 H 0.30599 0.51337 0.68196 0.0
H914 H 0.2665 0.55826 0.67256 0.0
H915 H 0.24836 0.60121 0.64991 0.0
H916 H 0.31294 0.62427 0.60273 0.0
H917 H 0.35533 0.58315 0.61374 0.0
C918 C 0.34896 0.54203 0.64355 0.0
C919 C 0.34172 0.52168 0.65922 0.0
C920 C 0.32606 0.56774 0.63796 0.0
C921 C 0.31209 0.52841 0.66973 0.0
C922 C 0.28945 0.55412 0.66438 0.0
C923 C 0.27189 0.59761 0.64214 0.0
C924 C 0.27729 0.6156 0.62544 0.0
C925 C 0.29585 0.5735 0.64834 0.0
C926 C 0.30801 0.61063 0.61559 0.0
C927 C 0.33224 0.58702 0.62184 0.0
H928 H 0.32515 0.11448 0.14862 0.0
H929 H 0.41341 0.17577 0.16221 0.0
H930 H 0.38667 0.22548 0.14774 0.0
H931 H 0.33969 0.25072 0.12988 0.0
H932 H 0.25183 0.18927 0.11575 0.0
H933 H 0.27701 0.14043 0.13189 0.0
C934 C 0.33847 0.13876 0.14857 0.0
C935 C 0.37135 0.14131 0.15643 0.0
C936 C 0.32311 0.16716 0.14005 0.0
C937 C 0.38816 0.17302 0.15623 0.0
C938 C 0.3729 0.20146 0.14792 0.0
C939 C 0.3259 0.22672 0.13039 0.0
C940 C 0.29398 0.22365 0.12149 0.0
C941 C 0.34062 0.19869 0.13957 0.0
C942 C 0.27647 0.19236 0.12241 0.0
C943 C 0.29087 0.16439 0.13162 0.0
H944 H 0.11332 0.11211 0.35793 0.0
H945 H 0.08457 0.15221 0.41176 0.0
H946 H 0.02564 0.13364 0.40672 0.0
H947 H 0.98198 0.10775 0.38655 0.0
H948 H 0.0112 0.06777 0.33273 0.0
H949 H 0.07034 0.08448 0.33833 0.0
C950 C 0.09423 0.11675 0.3686 0.0
C951 C 0.10333 0.13372 0.38515 0.0
C952 C 0.06046 0.10606 0.36561 0.0
C953 C 0.07826 0.13926 0.39888 0.0
C954 C 0.04454 0.12869 0.396 0.0
C955 C 0.00129 0.10254 0.37607 0.0
C956 C 0.99208 0.08666 0.35921 0.0
C957 C 0.03531 0.11232 0.37935 0.0
C958 C 0.0175 0.08 0.34582 0.0
C959 C 0.05136 0.0896 0.34899 0.0
H960 H 0.16508 0.87622 0.63937 0.0
H961 H 0.06754 0.82484 0.63662 0.0
H962 H 0.09509 0.77413 0.62393 0.0
H963 H 0.14637 0.74463 0.61301 0.0
H964 H 0.24441 0.79475 0.61618 0.0
H965 H 0.21713 0.84566 0.62929 0.0
C966 C 0.14988 0.85388 0.63608 0.0
C967 C 0.11424 0.85446 0.63892 0.0
C968 C 0.16592 0.8246 0.62877 0.0
C969 C 0.09498 0.8252 0.63461 0.0
C970 C 0.1107 0.79615 0.62729 0.0
C971 C 0.16184 0.76669 0.61651 0.0
C972 C 0.19737 0.76594 0.61348 0.0
C973 C 0.14607 0.79565 0.62419 0.0
C974 C 0.21701 0.79465 0.61833 0.0
C975 C 0.20141 0.82378 0.62583 0.0
H976 H 0.50956 0.90891 0.88074 0.0
H977 H 0.44351 0.96991 0.8459 0.0
H978 H 0.39332 0.94449 0.8607 0.0
H979 H 0.36827 0.90241 0.88216 0.0
H980 H 0.43464 0.84068 0.91646 0.0
H981 H 0.48458 0.86917 0.9033 0.0
C982 C 0.48421 0.91686 0.87644 0.0
C983 C 0.48037 0.94112 0.86211 0.0
C984 C 0.45548 0.90194 0.88488 0.0
C985 C 0.44727 0.95121 0.85683 0.0
C986 C 0.41852 0.93664 0.86527 0.0
C987 C 0.39363 0.8954 0.88691 0.0
C988 C 0.39765 0.86927 0.90022 0.0
C989 C 0.42233 0.91161 0.87911 0.0
C990 C 0.43074 0.86057 0.90619 0.0
C991 C 0.45937 0.87682 0.89865 0.0
H992 H 0.35528 0.7391 0.37741 0.0
H993 H 0.28268 0.8076 0.40315 0.0
H994 H 0.31202 0.85648 0.38922 0.0
H995 H 0.3593 0.87977 0.37053 0.0
H996 H 0.432 0.81093 0.34512 0.0
H997 H 0.40144 0.76215 0.35815 0.0
C998 C 0.34573 0.76469 0.37996 0.0
C999 C 0.31685 0.76964 0.39139 0.0
C1000 C 0.36278 0.79263 0.372 0.0
C1001 C 0.30486 0.80302 0.39445 0.0
C1002 C 0.32165 0.831 0.3865 0.0
C1003 C 0.36842 0.8541 0.36777 0.0
C1004 C 0.39801 0.84907 0.35689 0.0
C1005 C 0.3508 0.82611 0.37538 0.0
C1006 C 0.40936 0.8156 0.35345 0.0
C1007 C 0.39191 0.78765 0.36091 0.0
H1008 H 0.38143 0.10529 0.6258 0.0
H1009 H 0.41535 0.10628 0.56853 0.0
H1010 H 0.46644 0.07388 0.57721 0.0
H1011 H 0.50289 0.04804 0.60144 0.0
H1012 H 0.46937 0.04955 0.65879 0.0
H1013 H 0.41646 0.07793 0.64963 0.0
C1014 C 0.39986 0.09831 0.61515 0.0
C1015 C 0.39464 0.10838 0.59655 0.0
C1016 C 0.42924 0.08009 0.62027 0.0
C1017 C 0.41881 0.099 0.58297 0.0
C1018 C 0.44802 0.08045 0.58792 0.0
C1019 C 0.48378 0.05415 0.61189 0.0
C1020 C 0.49007 0.04673 0.63078 0.0
C1021 C 0.45368 0.0712 0.60658 0.0
C1022 C 0.46521 0.0551 0.64417 0.0
C1023 C 0.43497 0.07139 0.63896 0.0
H1024 H 0.13899 0.11575 0.88477 0.0
H1025 H 0.15094 0.13437 0.82583 0.0
H1026 H 0.1822 0.18699 0.83248 0.0
H1027 H 0.20356 0.22916 0.85503 0.0
H1028 H 0.18852 0.21199 0.91388 0.0
H1029 H 0.16138 0.15712 0.90727 0.0
C1030 C 0.14861 0.13118 0.87337 0.0
C1031 C 0.14255 0.12117 0.85483 0.0
C1032 C 0.16606 0.16165 0.87728 0.0
C1033 C 0.15508 0.14158 0.84023 0.0
C1034 C 0.17302 0.17164 0.84402 0.0
C1035 C 0.1948 0.21316 0.86642 0.0
C1036 C 0.19813 0.22453 0.88492 0.0
C1037 C 0.17835 0.18211 0.86249 0.0
C1038 C 0.1862 0.20378 0.89952 0.0
C1039 C 0.17062 0.17246 0.89575 0.0
H1040 H 0.08914 0.89883 0.08721 0.0
H1041 H 0.09096 0.83278 0.13541 0.0
H1042 H 0.04219 0.86282 0.14859 0.0
H1043 H 0.99785 0.90638 0.14619 0.0
H1044 H 0.99407 0.97188 0.09786 0.0
H1045 H 0.04485 0.94376 0.08512 0.0
C1046 C 0.0789 0.8911 0.10061 0.0
C1047 C 0.0937 0.86345 0.11023 0.0
C1048 C 0.05051 0.90842 0.10815 0.0
C1049 C 0.08008 0.85381 0.12761 0.0
C1050 C 0.05216 0.87103 0.13522 0.0
C1051 C 0.00825 0.91479 0.13294 0.0
C1052 C 0.99212 0.94124 0.12302 0.0
C1053 C 0.03704 0.89819 0.12557 0.0
C1054 C 0.00594 0.95158 0.10581 0.0
C1055 C 0.03495 0.93545 0.09849 0.0
H1056 H 0.74636 0.80757 0.88683 0.0
H1057 H 0.65972 0.74308 0.87449 0.0
H1058 H 0.63029 0.79099 0.86011 0.0
H1059 H 0.6276 0.85162 0.85239 0.0
H1060 H 0.71356 0.91689 0.86464 0.0
H1061 H 0.74478 0.86823 0.8775 0.0
C1062 C 0.72114 0.80396 0.88089 0.0
C1063 C 0.70524 0.77178 0.88192 0.0
C1064 C 0.70412 0.83178 0.87264 0.0
C1065 C 0.67258 0.76756 0.87405 0.0
C1066 C 0.65563 0.79497 0.86579 0.0
C1067 C 0.65326 0.85524 0.85775 0.0
C1068 C 0.66808 0.88793 0.85765 0.0
C1069 C 0.67095 0.82726 0.86523 0.0
C1070 C 0.70146 0.89202 0.86456 0.0
C1071 C 0.71932 0.86421 0.87198 0.0
H1072 H 0.00351 0.92304 0.61664 0.0
H1073 H 0.95202 -0.00102 0.65011 0.0
H1074 H 0.89681 0.97945 0.63837 0.0
H1075 H 0.86304 0.93771 0.62067 0.0
H1076 H 0.91483 0.86112 0.58775 0.0
H1077 H 0.97003 0.88427 0.59714 0.0
C1078 C 0.98026 0.9356 0.62124 0.0
C1079 C 0.98192 0.9622 0.6344 0.0
C1080 C 0.94861 0.924 0.61463 0.0
C1081 C 0.95151 0.97832 0.64008 0.0
C1082 C 0.9199 0.96711 0.63341 0.0
C1083 C 0.88638 0.92629 0.61538 0.0
C1084 C 0.88474 0.89748 0.60369 0.0
C1085 C 0.91811 0.93948 0.621 0.0
C1086 C 0.91528 0.88316 0.59687 0.0
C1087 C 0.94691 0.89634 0.60226 0.0
H1088 H 0.8369 0.26818 0.37236 0.0
H1089 H 0.75484 0.20425 0.39242 0.0
H1090 H 0.77829 0.15573 0.37515 0.0
H1091 H 0.82358 0.1309 0.35556 0.0
H1092 H 0.90549 0.19522 0.33562 0.0
H1093 H 0.88035 0.24421 0.35156 0.0
C1094 C 0.82404 0.24366 0.37295 0.0
C1095 C 0.7943 0.2398 0.38382 0.0
C1096 C 0.83762 0.21594 0.363 0.0
C1097 C 0.77782 0.20793 0.38422 0.0
C1098 C 0.79123 0.18015 0.37436 0.0
C1099 C 0.8358 0.1557 0.35455 0.0
C1100 C 0.86651 0.15929 0.34447 0.0
C1101 C 0.82132 0.18378 0.36386 0.0
C1102 C 0.8819 0.19165 0.34329 0.0
C1103 C 0.86759 0.2197 0.35245 0.0
H1104 H 0.6042 0.07318 0.12593 0.0
H1105 H 0.56417 0.12727 0.07828 0.0
H1106 H 0.50646 0.10827 0.08607 0.0
H1107 H 0.46688 0.08037 0.10789 0.0
H1108 H 0.50709 0.02718 0.15582 0.0
H1109 H 0.56518 0.04152 0.1463 0.0
C1110 C 0.58293 0.08058 0.11713 0.0
C1111 C 0.58851 0.10194 0.10167 0.0
C1112 C 0.54977 0.06985 0.12178 0.0
C1113 C 0.56063 0.11099 0.09033 0.0
C1114 C 0.52757 0.1002 0.0948 0.0
C1115 C 0.48834 0.07154 0.11614 0.0
C1116 C 0.48254 0.05303 0.13266 0.0
C1117 C 0.52175 0.08023 0.11072 0.0
C1118 C 0.51073 0.04167 0.14311 0.0
C1119 C 0.54401 0.04992 0.13771 0.0
H1120 H 0.70263 0.22066 0.64102 0.0
H1121 H 0.65935 0.22463 0.58569 0.0
H1122 H 0.62654 0.17316 0.59198 0.0
H1123 H 0.60783 0.12877 0.61346 0.0
H1124 H 0.65069 0.12348 0.66877 0.0
H1125 H 0.68597 0.17374 0.66218 0.0
C1126 C 0.68633 0.21004 0.63027 0.0
C1127 C 0.68333 0.2267 0.61296 0.0
C1128 C 0.66719 0.1804 0.63401 0.0
C1129 C 0.66205 0.21253 0.59919 0.0
C1130 C 0.64317 0.1831 0.60277 0.0
C1131 C 0.62486 0.13857 0.62412 0.0
C1132 C 0.62636 0.12264 0.64164 0.0
C1133 C 0.6451 0.16719 0.62021 0.0
C1134 C 0.64896 0.13539 0.65517 0.0
C1135 C 0.66913 0.16411 0.65142 0.0
H1136 H 0.51732 0.89602 0.39798 0.0
H1137 H 0.54845 0.94674 0.34728 0.0
H1138 H 0.60735 0.92855 0.35234 0.0
H1139 H 0.6493 0.8955 0.37009 0.0
H1140 H 0.61809 0.84366 0.42043 0.0
H1141 H 0.55998 0.86525 0.41659 0.0
C1142 C 0.53702 0.90337 0.38812 0.0
C1143 C 0.52841 0.92253 0.37222 0.0
C1144 C 0.57081 0.8925 0.39098 0.0
C1145 C 0.55431 0.93185 0.3596 0.0
C1146 C 0.58802 0.92144 0.36246 0.0
C1147 C 0.62988 0.88909 0.38031 0.0
C1148 C 0.63802 0.86779 0.39544 0.0
C1149 C 0.59645 0.9013 0.37793 0.0
C1150 C 0.61252 0.85988 0.40859 0.0
C1151 C 0.57925 0.87219 0.4064 0.0
H1152 H 0.83767 0.74236 0.12401 0.0
H1153 H 0.76053 0.80521 0.09803 0.0
H1154 H 0.78325 0.85555 0.11389 0.0
H1155 H 0.8271 0.88216 0.13365 0.0
H1156 H 0.90466 0.81907 0.15912 0.0
H1157 H 0.87943 0.76834 0.14502 0.0
C1158 C 0.82566 0.76702 0.12186 0.0
C1159 C 0.7976 0.77002 0.10971 0.0
C1160 C 0.83896 0.79585 0.13091 0.0
C1161 C 0.78223 0.80216 0.10724 0.0
C1162 C 0.79524 0.83098 0.11629 0.0
C1163 C 0.8383 0.85728 0.13629 0.0
C1164 C 0.86789 0.85449 0.14736 0.0
C1165 C 0.82389 0.8282 0.12795 0.0
C1166 C 0.882 0.82202 0.15062 0.0
C1167 C 0.86763 0.79297 0.14252 0.0
H1168 H 0.97954 0.07337 0.8404 0.0
H1169 H 0.0052 0.03798 0.89562 0.0
H1170 H 0.95259 0.06338 0.90788 0.0
H1171 H 0.90095 0.09873 0.90312 0.0
H1172 H 0.87712 0.13485 0.84775 0.0
H1173 H 0.92738 0.10602 0.83541 0.0
C1174 C 0.97361 0.07092 0.85511 0.0
C1175 C 0.99645 0.05396 0.86708 0.0
C1176 C 0.94369 0.08594 0.86208 0.0
C1177 C 0.98813 0.05096 0.88608 0.0
C1178 C 0.95809 0.06558 0.89312 0.0
C1179 C 0.90665 0.10007 0.88834 0.0
C1180 C 0.88538 0.11916 0.87642 0.0
C1181 C 0.93594 0.08362 0.88129 0.0
C1182 C 0.89312 0.12059 0.85729 0.0
C1183 C 0.92188 0.10407 0.85019 0.0
H1184 H 0.85071 0.75101 0.62735 0.0
H1185 H 0.78261 0.68646 0.59577 0.0
H1186 H 0.80728 0.63586 0.61046 0.0
H1187 H 0.8509 0.60988 0.63058 0.0
H1188 H 0.91969 0.67468 0.66159 0.0
H1189 H 0.8918 0.72528 0.64886 0.0
C1190 C 0.84102 0.72591 0.62376 0.0
C1191 C 0.81505 0.72255 0.61033 0.0
C1192 C 0.85556 0.69695 0.63209 0.0
C1193 C 0.80268 0.68981 0.60599 0.0
C1194 C 0.81683 0.66084 0.61436 0.0
C1195 C 0.85963 0.63506 0.63469 0.0
C1196 C 0.88757 0.63845 0.6469 0.0
C1197 C 0.84371 0.66409 0.62716 0.0
C1198 C 0.89839 0.67129 0.65214 0.0
C1199 C 0.88249 0.70027 0.64485 0.0
H1200 H 0.63135 0.59402 0.90618 0.0
H1201 H 0.6472 0.62846 0.84964 0.0
H1202 H 0.59628 0.59797 0.83962 0.0
H1203 H 0.54538 0.5646 0.84708 0.0
H1204 H 0.52888 0.52948 0.90338 0.0
H1205 H 0.58212 0.55673 0.91323 0.0
C1206 C 0.62376 0.59467 0.89166 0.0
C1207 C 0.64292 0.61381 0.87874 0.0
C1208 C 0.59432 0.57696 0.88591 0.0
C1209 C 0.6329 0.6141 0.85993 0.0
C1210 C 0.60372 0.59668 0.85415 0.0
C1211 C 0.55354 0.56262 0.86148 0.0
C1212 C 0.53302 0.5453 0.87449 0.0
C1213 C 0.58398 0.57848 0.86706 0.0
C1214 C 0.54418 0.54268 0.89306 0.0
C1215 C 0.57455 0.55842 0.89873 0.0
H1216 H 0.63889 0.37891 0.12414 0.0
H1217 H 0.57494 0.31647 0.15946 0.0
H1218 H 0.59952 0.26494 0.14581 0.0
H1219 H 0.63635 0.23766 0.12256 0.0
H1220 H 0.69958 0.29986 0.08675 0.0
H1221 H 0.67826 0.35141 0.10203 0.0
C1222 C 0.63052 0.35404 0.12898 0.0
C1223 C 0.60491 0.35161 0.14272 0.0
C1224 C 0.64452 0.32445 0.12094 0.0
C1225 C 0.59448 0.31915 0.14885 0.0
C1226 C 0.60849 0.28962 0.14104 0.0
C1227 C 0.64572 0.26245 0.11817 0.0
C1228 C 0.66934 0.26486 0.10341 0.0
C1229 C 0.6331 0.29199 0.12687 0.0
C1230 C 0.68131 0.29723 0.09801 0.0
C1231 C 0.66907 0.32675 0.10672 0.0
H1232 H 0.88808 0.37992 0.39823 0.0
H1233 H 0.82538 0.46968 0.39101 0.0
H1234 H 0.87424 0.50051 0.37798 0.0
H1235 H 0.93431 0.501 0.36727 0.0
H1236 H 0.99578 0.41018 0.37417 0.0
H1237 H 0.94784 0.38092 0.38864 0.0
C1238 C 0.88505 0.40632 0.39395 0.0
C1239 C 0.85303 0.42237 0.39556 0.0
C1240 C 0.91305 0.42371 0.38627 0.0
C1241 C 0.84972 0.45663 0.38993 0.0
C1242 C 0.87764 0.47427 0.38242 0.0
C1243 C 0.93724 0.47487 0.37202 0.0
C1244 C 0.96862 0.45784 0.3695 0.0
C1245 C 0.90935 0.45792 0.3803 0.0
C1246 C 0.97193 0.42395 0.37578 0.0
C1247 C 0.94451 0.40712 0.38411 0.0
H1248 H 0.84694 0.37298 0.85382 0.0
H1249 H 0.93643 0.34983 0.8867 0.0
H1250 H 0.90852 0.29927 0.89917 0.0
H1251 H 0.85973 0.26081 0.90027 0.0
H1252 H 0.76929 0.2833 0.86816 0.0
H1253 H 0.79647 0.33508 0.85599 0.0
C1254 C 0.86027 0.35687 0.86373 0.0
C1255 C 0.89381 0.36514 0.86922 0.0
C1256 C 0.84394 0.32775 0.87101 0.0
C1257 C 0.91064 0.34415 0.8822 0.0
C1258 C 0.89472 0.31515 0.88935 0.0
C1259 C 0.84584 0.27702 0.89063 0.0
C1260 C 0.81262 0.26807 0.88504 0.0
C1261 C 0.86153 0.30661 0.88377 0.0
C1262 C 0.79491 0.28962 0.8727 0.0
C1263 C 0.81048 0.31916 0.86569 0.0
H1264 H 0.93813 0.50913 0.13197 0.0
H1265 H 0.00041 0.59933 0.12507 0.0
H1266 H 0.95391 0.62783 0.10885 0.0
H1267 H 0.89477 0.62862 0.09809 0.0
H1268 H 0.83158 0.53919 0.10511 0.0
H1269 H 0.87932 0.50892 0.11957 0.0
C1270 C 0.94158 0.53493 0.12682 0.0
C1271 C 0.97267 0.55209 0.12992 0.0
C1272 C 0.91457 0.55141 0.11751 0.0
C1273 C 0.97673 0.58551 0.12304 0.0
C1274 C 0.95013 0.6019 0.11373 0.0
C1275 C 0.89144 0.6024 0.10263 0.0
C1276 C 0.85953 0.58633 0.10062 0.0
C1277 C 0.91882 0.58529 0.11111 0.0
C1278 C 0.85582 0.55226 0.10651 0.0
C1279 C 0.8831 0.53494 0.11485 0.0
H1280 H 0.63614 0.64678 0.33454 0.0
H1281 H 0.64207 0.59536 0.38769 0.0
H1282 H 0.67546 0.64237 0.40038 0.0
H1283 H 0.69958 0.69964 0.39714 0.0
H1284 H 0.69304 0.75191 0.34429 0.0
H1285 H 0.66376 0.70281 0.33071 0.0
C1286 C 0.64494 0.64575 0.34885 0.0
C1287 C 0.63628 0.61772 0.36017 0.0
C1288 C 0.66404 0.67303 0.35615 0.0
C1289 C 0.64811 0.61671 0.37867 0.0
C1290 C 0.66725 0.6436 0.38597 0.0
C1291 C 0.69212 0.7002 0.38259 0.0
C1292 C 0.69825 0.72956 0.37181 0.0
C1293 C 0.67487 0.67212 0.37494 0.0
C1294 C 0.68853 0.72971 0.35295 0.0
C1295 C 0.67165 0.70168 0.34517 0.0
H1296 H 0.60128 0.38765 0.59252 0.0
H1297 H 0.62435 0.35174 0.64798 0.0
H1298 H 0.57363 0.38018 0.6601 0.0
H1299 H 0.52098 0.41192 0.6548 0.0
H1300 H 0.49511 0.44548 0.5993 0.0
H1301 H 0.54874 0.42165 0.5874 0.0
C1302 C 0.59532 0.38639 0.60727 0.0
C1303 C 0.61646 0.36745 0.61931 0.0
C1304 C 0.56556 0.40229 0.61415 0.0
C1305 C 0.60835 0.36587 0.63838 0.0
C1306 C 0.57936 0.38218 0.64535 0.0
C1307 C 0.52718 0.41445 0.64013 0.0
C1308 C 0.50401 0.43043 0.62797 0.0
C1309 C 0.55752 0.39998 0.63333 0.0
C1310 C 0.51246 0.43323 0.60897 0.0
C1311 C 0.54309 0.41954 0.60214 0.0
H1312 H 0.13926 0.35081 0.33381 0.0
H1313 H 0.13822 0.41705 0.38195 0.0
H1314 H 0.16625 0.37304 0.40042 0.0
H1315 H 0.18558 0.31392 0.40381 0.0
H1316 H 0.18582 0.24709 0.35595 0.0
H1317 H 0.16408 0.29332 0.33647 0.0
C1318 C 0.14555 0.35579 0.34827 0.0
C1319 C 0.13615 0.38701 0.35652 0.0
C1320 C 0.16138 0.33019 0.35893 0.0
C1321 C 0.1448 0.39313 0.37525 0.0
C1322 C 0.16082 0.36794 0.38587 0.0
C1323 C 0.18132 0.30955 0.38907 0.0
C1324 C 0.18687 0.27696 0.38143 0.0
C1325 C 0.16837 0.33608 0.37799 0.0
C1326 C 0.18156 0.27188 0.36224 0.0
C1327 C 0.16898 0.29828 0.35108 0.0
H1328 H 0.38431 0.37106 0.08882 0.0
H1329 H 0.33957 0.42158 0.13647 0.0
H1330 H 0.39499 0.44623 0.14434 0.0
H1331 H 0.457 0.44918 0.13933 0.0
H1332 H 0.50183 0.3973 0.09213 0.0
H1333 H 0.44545 0.37772 0.0824 0.0
C1334 C 0.38655 0.38779 0.1008 0.0
C1335 C 0.35788 0.39412 0.11215 0.0
C1336 C 0.41858 0.40147 0.10542 0.0
C1337 C 0.36125 0.41606 0.12755 0.0
C1338 C 0.39296 0.43012 0.1321 0.0
C1339 C 0.45442 0.43393 0.12679 0.0
C1340 C 0.48368 0.42442 0.1166 0.0
C1341 C 0.42195 0.42233 0.1214 0.0
C1342 C 0.4798 0.40479 0.10033 0.0
C1343 C 0.44755 0.39352 0.09476 0.0
H1344 H 0.35172 0.7284 0.9033 0.0
H1345 H 0.295 0.72649 0.85173 0.0
H1346 H 0.32372 0.67351 0.84275 0.0
H1347 H 0.3664 0.62875 0.84912 0.0
H1348 H 0.42364 0.63189 0.90053 0.0
H1349 H 0.39319 0.68337 0.90994 0.0
C1350 C 0.34541 0.71634 0.89014 0.0
C1351 C 0.32125 0.73147 0.8782 0.0
C1352 C 0.36225 0.68615 0.88497 0.0
C1353 C 0.31353 0.71545 0.86118 0.0
C1354 C 0.32998 0.68516 0.85602 0.0
C1355 C 0.37213 0.64062 0.86241 0.0
C1356 C 0.39738 0.62648 0.87405 0.0
C1357 C 0.35463 0.67045 0.86773 0.0
C1358 C 0.40445 0.64223 0.89123 0.0
C1359 C 0.38702 0.6717 0.89666 0.0
H1360 H 0.00229 0.57353 0.61246 0.0
H1361 H 0.06807 0.52629 0.6533 0.0
H1362 H 0.11811 0.55116 0.6381 0.0
H1363 H 0.14269 0.58986 0.61471 0.0
H1364 H 0.07651 0.63832 0.57448 0.0
H1365 H 0.02718 0.60919 0.58791 0.0
C1366 C 0.02757 0.56835 0.61796 0.0
C1367 C 0.03134 0.54828 0.63411 0.0
C1368 C 0.05618 0.58311 0.60932 0.0
C1369 C 0.06436 0.54176 0.64095 0.0
C1370 C 0.09302 0.55604 0.63229 0.0
C1371 C 0.11754 0.59379 0.60873 0.0
C1372 C 0.11332 0.61649 0.59369 0.0
C1373 C 0.08916 0.57731 0.61669 0.0
C1374 C 0.08052 0.62117 0.58612 0.0
C1375 C 0.05225 0.60455 0.59381 0.0
H1376 H 0.11623 0.61564 0.10377 0.0
H1377 H 0.14498 0.62695 0.16151 0.0
H1378 H 0.17369 0.68079 0.15425 0.0
H1379 H 0.18676 0.72669 0.1319 0.0
H1380 H 0.1554 0.71601 0.07452 0.0
H1381 H 0.13178 0.65973 0.08126 0.0
C1382 C 0.12905 0.62966 0.11477 0.0
C1383 C 0.12824 0.61738 0.13318 0.0
C1384 C 0.1449 0.66082 0.11057 0.0
C1385 C 0.14505 0.6359 0.14723 0.0
C1386 C 0.16144 0.66672 0.1431 0.0
C1387 C 0.17515 0.71185 0.12082 0.0
C1388 C 0.17266 0.7256 0.10276 0.0
C1389 C 0.16096 0.67974 0.12488 0.0
C1390 C 0.15741 0.70612 0.08858 0.0
C1391 C 0.14388 0.67393 0.09241 0.0
H1392 H 0.12769 0.40336 0.89468 0.0
H1393 H 0.11627 0.32632 0.85204 0.0
H1394 H 0.06786 0.3572 0.83901 0.0
H1395 H 0.02702 0.40414 0.84058 0.0
H1396 H 0.0371 0.48112 0.8833 0.0
H1397 H 0.08811 0.45241 0.89524 0.0
C1398 C 0.11468 0.3934 0.8825 0.0
C1399 C 0.12547 0.3624 0.87446 0.0
C1400 C 0.08668 0.41128 0.87505 0.0
C1401 C 0.10847 0.35 0.85859 0.0
C1402 C 0.08075 0.36765 0.8511 0.0
C1403 C 0.04049 0.4149 0.85241 0.0
C1404 C 0.02807 0.44463 0.8611 0.0
C1405 C 0.06941 0.39806 0.85934 0.0
C1406 C 0.04604 0.45824 0.87634 0.0
C1407 C 0.07513 0.44174 0.88324 0.0
H1408 H 0.36009 0.23645 0.61534 0.0
H1409 H 0.27987 0.30164 0.59429 0.0
H1410 H 0.30133 0.34895 0.61315 0.0
H1411 H 0.34481 0.37266 0.63423 0.0
H1412 H 0.42547 0.30739 0.65472 0.0
H1413 H 0.40171 0.25926 0.6375 0.0
C1414 C 0.34711 0.26093 0.61493 0.0
C1415 C 0.31854 0.26551 0.60329 0.0
C1416 C 0.35974 0.28808 0.62567 0.0
C1417 C 0.30199 0.29739 0.60306 0.0
C1418 C 0.31428 0.3245 0.61382 0.0
C1419 C 0.35705 0.34785 0.63506 0.0
C1420 C 0.38702 0.34375 0.64568 0.0
C1421 C 0.34343 0.32027 0.62497 0.0
C1422 C 0.40247 0.31137 0.64661 0.0
C1423 C 0.38893 0.28379 0.63674 0.0
H1424 H 0.43341 0.52168 0.34587 0.0
H1425 H 0.50285 0.58998 0.37411 0.0
H1426 H 0.45593 0.61247 0.39274 0.0
H1427 H 0.39474 0.61617 0.39932 0.0
H1428 H 0.32464 0.54893 0.37089 0.0
H1429 H 0.3723 0.52238 0.35429 0.0
C1430 C 0.43834 0.54124 0.35623 0.0
C1431 C 0.4716 0.55435 0.35839 0.0
C1432 C 0.4111 0.55438 0.36686 0.0
C1433 C 0.4775 0.57958 0.37198 0.0
C1434 C 0.45066 0.59251 0.38268 0.0
C1435 C 0.38984 0.59544 0.38966 0.0
C1436 C 0.35608 0.58484 0.38624 0.0
C1437 C 0.41727 0.58061 0.37997 0.0
C1438 C 0.35033 0.55775 0.37376 0.0
C1439 C 0.37759 0.54261 0.36418 0.0
loop_
_geom_bond_atom_site_label_1
_geom_bond_atom_site_label_2
_geom_bond_distance
_geom_bond_site_symmetry_2
_ccdc_geom_bond_type
C0 O1 1.160 . S
C0 O7 1.185 . S
O1 C0 1.160 . S
O2 Zn3 1.899 . S
O2 C10 1.284 . S
Zn3 O2 1.899 . S
Zn3 O4 2.032 . S
Zn3 O7 2.086 . S
Zn3 O12 1.977 . S
O4 Zn3 2.032 . S
O4 C8 1.278 . S
C5 O6 1.203 . S
C5 O12 1.267 . S
O6 C5 1.203 . S
O7 C0 1.185 . S
O7 Zn3 2.086 . S
C8 O4 1.278 . S
C8 O9 1.211 . S
O9 C8 1.211 . S
C10 O2 1.284 . S
C10 O11 1.273 . S
O11 C10 1.273 . S
O12 Zn3 1.977 . S
O12 C5 1.267 . S
C13 O14 1.160 . S
C13 O20 1.185 . S
O14 C13 1.160 . S
O15 Zn16 1.899 . S
O15 C23 1.284 . S
Zn16 O15 1.899 . S
Zn16 O17 2.032 . S
Zn16 O20 2.086 . S
Zn16 O25 1.977 . S
O17 Zn16 2.032 . S
O17 C21 1.278 . S
C18 O19 1.203 . S
C18 O25 1.267 . S
O19 C18 1.203 . S
O20 C13 1.185 . S
O20 Zn16 2.086 . S
C21 O17 1.278 . S
C21 O22 1.211 . S
O22 C21 1.211 . S
C23 O15 1.284 . S
C23 O24 1.273 . S
O24 C23 1.273 . S
O25 Zn16 1.977 . S
O25 C18 1.267 . S
C26 O27 1.160 . S
C26 O33 1.185 . S
O27 C26 1.160 . S
O28 Zn29 1.899 . S
O28 C36 1.284 . S
Zn29 O28 1.899 . S
Zn29 O30 2.032 . S
Zn29 O33 2.086 . S
Zn29 O38 1.977 . S
O30 Zn29 2.032 . S
O30 C34 1.278 . S
C31 O32 1.203 . S
C31 O38 1.267 . S
O32 C31 1.203 . S
O33 C26 1.185 . S
O33 Zn29 2.086 . S
C34 O30 1.278 . S
C34 O35 1.211 . S
O35 C34 1.211 . S
C36 O28 1.284 . S
C36 O37 1.273 . S
O37 C36 1.273 . S
O38 Zn29 1.977 . S
O38 C31 1.267 . S
C39 O40 1.160 . S
C39 O46 1.185 . S
O40 C39 1.160 . S
O41 Zn42 1.899 . S
O41 C49 1.284 . S
Zn42 O41 1.899 . S
Zn42 O43 2.032 . S
Zn42 O46 2.086 . S
Zn42 O51 1.977 . S
O43 Zn42 2.032 . S
O43 C47 1.278 . S
C44 O45 1.203 . S
C44 O51 1.267 . S
O45 C44 1.203 . S
O46 C39 1.185 . S
O46 Zn42 2.086 . S
C47 O43 1.278 . S
C47 O48 1.211 . S
O48 C47 1.211 . S
C49 O41 1.284 . S
C49 O50 1.273 . S
O50 C49 1.273 . S
O51 Zn42 1.977 . S
O51 C44 1.267 . S
C52 O53 1.160 . S
C52 O59 1.185 . S
O53 C52 1.160 . S
O54 Zn55 1.899 . S
O54 C62 1.284 . S
Zn55 O54 1.899 . S
Zn55 O56 2.032 . S
Zn55 O59 2.086 . S
Zn55 O64 1.977 . S
O56 Zn55 2.032 . S
O56 C60 1.278 . S
C57 O58 1.203 . S
C57 O64 1.267 . S
O58 C57 1.203 . S
O59 C52 1.185 . S
O59 Zn55 2.086 . S
C60 O56 1.278 . S
C60 O61 1.211 . S
O61 C60 1.211 . S
C62 O54 1.284 . S
C62 O63 1.273 . S
O63 C62 1.273 . S
O64 Zn55 1.977 . S
O64 C57 1.267 . S
C65 O66 1.160 . S
C65 O72 1.185 . S
O66 C65 1.160 . S
O67 Zn68 1.899 . S
O67 C75 1.284 . S
Zn68 O67 1.899 . S
Zn68 O69 2.032 . S
Zn68 O72 2.086 . S
Zn68 O77 1.977 . S
O69 Zn68 2.032 . S
O69 C73 1.278 . S
C70 O71 1.203 . S
C70 O77 1.267 . S
O71 C70 1.203 . S
O72 C65 1.185 . S
O72 Zn68 2.086 . S
C73 O69 1.278 . S
C73 O74 1.211 . S
O74 C73 1.211 . S
C75 O67 1.284 . S
C75 O76 1.273 . S
O76 C75 1.273 . S
O77 Zn68 1.977 . S
O77 C70 1.267 . S
C78 O79 1.160 . S
C78 O85 1.185 . S
O79 C78 1.160 . S
O80 Zn81 1.899 . S
O80 C88 1.284 . S
Zn81 O80 1.899 . S
Zn81 O82 2.032 . S
Zn81 O85 2.086 . S
Zn81 O90 1.977 . S
O82 Zn81 2.032 . S
O82 C86 1.278 . S
C83 O84 1.203 . S
C83 O90 1.267 . S
O84 C83 1.203 . S
O85 C78 1.185 . S
O85 Zn81 2.086 . S
C86 O82 1.278 . S
C86 O87 1.211 . S
O87 C86 1.211 . S
C88 O80 1.284 . S
C88 O89 1.273 . S
O89 C88 1.273 . S
O90 Zn81 1.977 . S
O90 C83 1.267 . S
C91 O92 1.160 . S
C91 O98 1.185 . S
O92 C91 1.160 . S
O93 Zn94 1.899 . S
O93 C101 1.284 . S
Zn94 O93 1.899 . S
Zn94 O95 2.032 . S
Zn94 O98 2.086 . S
Zn94 O103 1.977 . S
O95 Zn94 2.032 . S
O95 C99 1.278 . S
C96 O97 1.203 . S
C96 O103 1.267 . S
O97 C96 1.203 . S
O98 C91 1.185 . S
O98 Zn94 2.086 . S
C99 O95 1.278 . S
C99 O100 1.211 . S
O100 C99 1.211 . S
C101 O93 1.284 . S
C101 O102 1.273 . S
O102 C101 1.273 . S
O103 Zn94 1.977 . S
O103 C96 1.267 . S
C104 O105 1.160 . S
C104 O111 1.185 . S
O105 C104 1.160 . S
O106 Zn107 1.899 . S
O106 C114 1.284 . S
Zn107 O106 1.899 . S
Zn107 O108 2.032 . S
Zn107 O111 2.086 . S
Zn107 O116 1.977 . S
O108 Zn107 2.032 . S
O108 C112 1.278 . S
C109 O110 1.203 . S
C109 O116 1.267 . S
O110 C109 1.203 . S
O111 C104 1.185 . S
O111 Zn107 2.086 . S
C112 O108 1.278 . S
C112 O113 1.211 . S
O113 C112 1.211 . S
C114 O106 1.284 . S
C114 O115 1.273 . S
O115 C114 1.273 . S
O116 Zn107 1.977 . S
O116 C109 1.267 . S
C117 O118 1.160 . S
C117 O124 1.185 . S
O118 C117 1.160 . S
O119 Zn120 1.899 . S
O119 C127 1.284 . S
Zn120 O119 1.899 . S
Zn120 O121 2.032 . S
Zn120 O124 2.086 . S
Zn120 O129 1.977 . S
O121 Zn120 2.032 . S
O121 C125 1.278 . S
C122 O123 1.203 . S
C122 O129 1.267 . S
O123 C122 1.203 . S
O124 C117 1.185 . S
O124 Zn120 2.086 . S
C125 O121 1.278 . S
C125 O126 1.211 . S
O126 C125 1.211 . S
C127 O119 1.284 . S
C127 O128 1.273 . S
O128 C127 1.273 . S
O129 Zn120 1.977 . S
O129 C122 1.267 . S
C130 O131 1.160 . S
C130 O137 1.185 . S
O131 C130 1.160 . S
O132 Zn133 1.899 . S
O132 C140 1.284 . S
Zn133 O132 1.899 . S
Zn133 O134 2.032 . S
Zn133 O137 2.086 . S
Zn133 O142 1.977 . S
O134 Zn133 2.032 . S
O134 C138 1.278 . S
C135 O136 1.203 . S
C135 O142 1.267 . S
O136 C135 1.203 . S
O137 C130 1.185 . S
O137 Zn133 2.086 . S
C138 O134 1.278 . S
C138 O139 1.211 . S
O139 C138 1.211 . S
C140 O132 1.284 . S
C140 O141 1.273 . S
O141 C140 1.273 . S
O142 Zn133 1.977 . S
O142 C135 1.267 . S
C143 O144 1.160 . S
C143 O150 1.185 . S
O144 C143 1.160 . S
O145 Zn146 1.899 . S
O145 C153 1.284 . S
Zn146 O145 1.899 . S
Zn146 O147 2.032 . S
Zn146 O150 2.086 . S
Zn146 O155 1.977 . S
O147 Zn146 2.032 . S
O147 C151 1.278 . S
C148 O149 1.203 . S
C148 O155 1.267 . S
O149 C148 1.203 . S
O150 C143 1.185 . S
O150 Zn146 2.086 . S
C151 O147 1.278 . S
C151 O152 1.211 . S
O152 C151 1.211 . S
C153 O145 1.284 . S
C153 O154 1.273 . S
O154 C153 1.273 . S
O155 Zn146 1.977 . S
O155 C148 1.267 . S
C156 O157 1.160 . S
C156 O163 1.185 . S
O157 C156 1.160 . S
O158 Zn159 1.899 . S
O158 C166 1.284 . S
Zn159 O158 1.899 . S
Zn159 O160 2.032 . S
Zn159 O163 2.086 . S
Zn159 O168 1.977 . S
O160 Zn159 2.032 . S
O160 C164 1.278 . S
C161 O162 1.203 . S
C161 O168 1.267 . S
O162 C161 1.203 . S
O163 C156 1.185 . S
O163 Zn159 2.086 . S
C164 O160 1.278 . S
C164 O165 1.211 . S
O165 C164 1.211 . S
C166 O158 1.284 . S
C166 O167 1.273 . S
O167 C166 1.273 . S
O168 Zn159 1.977 . S
O168 C161 1.267 . S
C169 O170 1.160 . S
C169 O176 1.185 . S
O170 C169 1.160 . S
O171 Zn172 1.899 . S
O171 C179 1.284 . S
Zn172 O171 1.899 . S
Zn172 O173 2.032 . S
Zn172 O176 2.086 . S
Zn172 O181 1.977 . S
O173 Zn172 2.032 . S
O173 C177 1.278 . S
C174 O175 1.203 . S
C174 O181 1.267 . S
O175 C174 1.203 . S
O176 C169 1.185 . S
O176 Zn172 2.086 . S
C177 O173 1.278 . S
C177 O178 1.211 . S
O178 C177 1.211 . S
C179 O171 1.284 . S
C179 O180 1.273 . S
O180 C179 1.273 . S
O181 Zn172 1.977 . S
O181 C174 1.267 . S
C182 O183 1.160 . S
C182 O189 1.185 . S
O183 C182 1.160 . S
O184 Zn185 1.899 . S
O184 C192 1.284 . S
Zn185 O184 1.899 . S
Zn185 O186 2.032 . S
Zn185 O189 2.086 . S
Zn185 O194 1.977 . S
O186 Zn185 2.032 . S
O186 C190 1.278 . S
C187 O188 1.203 . S
C187 O194 1.267 . S
O188 C187 1.203 . S
O189 C182 1.185 . S
O189 Zn185 2.086 . S
C190 O186 1.278 . S
C190 O191 1.211 . S
O191 C190 1.211 . S
C192 O184 1.284 . S
C192 O193 1.273 . S
O193 C192 1.273 . S
O194 Zn185 1.977 . S
O194 C187 1.267 . S
C195 O196 1.160 . S
C195 O202 1.185 . S
O196 C195 1.160 . S
O197 Zn198 1.899 . S
O197 C205 1.284 . S
Zn198 O197 1.899 . S
Zn198 O199 2.032 . S
Zn198 O202 2.086 . S
Zn198 O207 1.977 . S
O199 Zn198 2.032 . S
O199 C203 1.278 . S
C200 O201 1.203 . S
C200 O207 1.267 . S
O201 C200 1.203 . S
O202 C195 1.185 . S
O202 Zn198 2.086 . S
C203 O199 1.278 . S
C203 O204 1.211 . S
O204 C203 1.211 . S
C205 O197 1.284 . S
C205 O206 1.273 . S
O206 C205 1.273 . S
O207 Zn198 1.977 . S
O207 C200 1.267 . S
C208 O209 1.160 . S
C208 O215 1.185 . S
O209 C208 1.160 . S
O210 Zn211 1.899 . S
O210 C218 1.284 . S
Zn211 O210 1.899 . S
Zn211 O212 2.032 . S
Zn211 O215 2.086 . S
Zn211 O220 1.977 . S
O212 Zn211 2.032 . S
O212 C216 1.278 . S
C213 O214 1.203 . S
C213 O220 1.267 . S
O214 C213 1.203 . S
O215 C208 1.185 . S
O215 Zn211 2.086 . S
C216 O212 1.278 . S
C216 O217 1.211 . S
O217 C216 1.211 . S
C218 O210 1.284 . S
C218 O219 1.273 . S
O219 C218 1.273 . S
O220 Zn211 1.977 . S
O220 C213 1.267 . S
C221 O222 1.160 . S
C221 O228 1.185 . S
O222 C221 1.160 . S
O223 Zn224 1.899 . S
O223 C231 1.284 . S
Zn224 O223 1.899 . S
Zn224 O225 2.032 . S
Zn224 O228 2.086 . S
Zn224 O233 1.977 . S
O225 Zn224 2.032 . S
O225 C229 1.278 . S
C226 O227 1.203 . S
C226 O233 1.267 . S
O227 C226 1.203 . S
O228 C221 1.185 . S
O228 Zn224 2.086 . S
C229 O225 1.278 . S
C229 O230 1.211 . S
O230 C229 1.211 . S
C231 O223 1.284 . S
C231 O232 1.273 . S
O232 C231 1.273 . S
O233 Zn224 1.977 . S
O233 C226 1.267 . S
C234 O235 1.160 . S
C234 O241 1.185 . S
O235 C234 1.160 . S
O236 Zn237 1.899 . S
O236 C244 1.284 . S
Zn237 O236 1.899 . S
Zn237 O238 2.032 . S
Zn237 O241 2.086 . S
Zn237 O246 1.977 . S
O238 Zn237 2.032 . S
O238 C242 1.278 . S
C239 O240 1.203 . S
C239 O246 1.267 . S
O240 C239 1.203 . S
O241 C234 1.185 . S
O241 Zn237 2.086 . S
C242 O238 1.278 . S
C242 O243 1.211 . S
O243 C242 1.211 . S
C244 O236 1.284 . S
C244 O245 1.273 . S
O245 C244 1.273 . S
O246 Zn237 1.977 . S
O246 C239 1.267 . S
C247 O248 1.160 . S
C247 O254 1.185 . S
O248 C247 1.160 . S
O249 Zn250 1.899 . S
O249 C257 1.284 . S
Zn250 O249 1.899 . S
Zn250 O251 2.032 . S
Zn250 O254 2.086 . S
Zn250 O259 1.977 . S
O251 Zn250 2.032 . S
O251 C255 1.278 . S
C252 O253 1.203 . S
C252 O259 1.267 . S
O253 C252 1.203 . S
O254 C247 1.185 . S
O254 Zn250 2.086 . S
C255 O251 1.278 . S
C255 O256 1.211 . S
O256 C255 1.211 . S
C257 O249 1.284 . S
C257 O258 1.273 . S
O258 C257 1.273 . S
O259 Zn250 1.977 . S
O259 C252 1.267 . S
C260 O261 1.160 . S
C260 O267 1.185 . S
O261 C260 1.160 . S
O262 Zn263 1.899 . S
O262 C270 1.284 . S
Zn263 O262 1.899 . S
Zn263 O264 2.032 . S
Zn263 O267 2.086 . S
Zn263 O272 1.977 . S
O264 Zn263 2.032 . S
O264 C268 1.278 . S
C265 O266 1.203 . S
C265 O272 1.267 . S
O266 C265 1.203 . S
O267 C260 1.185 . S
O267 Zn263 2.086 . S
C268 O264 1.278 . S
C268 O269 1.211 . S
O269 C268 1.211 . S
C270 O262 1.284 . S
C270 O271 1.273 . S
O271 C270 1.273 . S
O272 Zn263 1.977 . S
O272 C265 1.267 . S
C273 O274 1.160 . S
C273 O280 1.185 . S
O274 C273 1.160 . S
O275 Zn276 1.899 . S
O275 C283 1.284 . S
Zn276 O275 1.899 . S
Zn276 O277 2.032 . S
Zn276 O280 2.086 . S
Zn276 O285 1.977 . S
O277 Zn276 2.032 . S
O277 C281 1.278 . S
C278 O279 1.203 . S
C278 O285 1.267 . S
O279 C278 1.203 . S
O280 C273 1.185 . S
O280 Zn276 2.086 . S
C281 O277 1.278 . S
C281 O282 1.211 . S
O282 C281 1.211 . S
C283 O275 1.284 . S
C283 O284 1.273 . S
O284 C283 1.273 . S
O285 Zn276 1.977 . S
O285 C278 1.267 . S
C286 O287 1.160 . S
C286 O293 1.185 . S
O287 C286 1.160 . S
O288 Zn289 1.899 . S
O288 C296 1.284 . S
Zn289 O288 1.899 . S
Zn289 O290 2.032 . S
Zn289 O293 2.086 . S
Zn289 O298 1.977 . S
O290 Zn289 2.032 . S
O290 C294 1.278 . S
C291 O292 1.203 . S
C291 O298 1.267 . S
O292 C291 1.203 . S
O293 C286 1.185 . S
O293 Zn289 2.086 . S
C294 O290 1.278 . S
C294 O295 1.211 . S
O295 C294 1.211 . S
C296 O288 1.284 . S
C296 O297 1.273 . S
O297 C296 1.273 . S
O298 Zn289 1.977 . S
O298 C291 1.267 . S
C299 O300 1.160 . S
C299 O306 1.185 . S
O300 C299 1.160 . S
O301 Zn302 1.899 . S
O301 C309 1.284 . S
Zn302 O301 1.899 . S
Zn302 O303 2.032 . S
Zn302 O306 2.086 . S
Zn302 O311 1.977 . S
O303 Zn302 2.032 . S
O303 C307 1.278 . S
C304 O305 1.203 . S
C304 O311 1.267 . S
O305 C304 1.203 . S
O306 C299 1.185 . S
O306 Zn302 2.086 . S
C307 O303 1.278 . S
C307 O308 1.211 . S
O308 C307 1.211 . S
C309 O301 1.284 . S
C309 O310 1.273 . S
O310 C309 1.273 . S
O311 Zn302 1.977 . S
O311 C304 1.267 . S
C312 O313 1.160 . S
C312 O319 1.185 . S
O313 C312 1.160 . S
O314 Zn315 1.899 . S
O314 C322 1.284 . S
Zn315 O314 1.899 . S
Zn315 O316 2.032 . S
Zn315 O319 2.086 . S
Zn315 O324 1.977 . S
O316 Zn315 2.032 . S
O316 C320 1.278 . S
C317 O318 1.203 . S
C317 O324 1.267 . S
O318 C317 1.203 . S
O319 C312 1.185 . S
O319 Zn315 2.086 . S
C320 O316 1.278 . S
C320 O321 1.211 . S
O321 C320 1.211 . S
C322 O314 1.284 . S
C322 O323 1.273 . S
O323 C322 1.273 . S
O324 Zn315 1.977 . S
O324 C317 1.267 . S
C325 O326 1.160 . S
C325 O332 1.185 . S
O326 C325 1.160 . S
O327 Zn328 1.899 . S
O327 C335 1.284 . S
Zn328 O327 1.899 . S
Zn328 O329 2.032 . S
Zn328 O332 2.086 . S
Zn328 O337 1.977 . S
O329 Zn328 2.032 . S
O329 C333 1.278 . S
C330 O331 1.203 . S
C330 O337 1.267 . S
O331 C330 1.203 . S
O332 C325 1.185 . S
O332 Zn328 2.086 . S
C333 O329 1.278 . S
C333 O334 1.211 . S
O334 C333 1.211 . S
C335 O327 1.284 . S
C335 O336 1.273 . S
O336 C335 1.273 . S
O337 Zn328 1.977 . S
O337 C330 1.267 . S
C338 O339 1.160 . S
C338 O345 1.185 . S
O339 C338 1.160 . S
O340 Zn341 1.899 . S
O340 C348 1.284 . S
Zn341 O340 1.899 . S
Zn341 O342 2.032 . S
Zn341 O345 2.086 . S
Zn341 O350 1.977 . S
O342 Zn341 2.032 . S
O342 C346 1.278 . S
C343 O344 1.203 . S
C343 O350 1.267 . S
O344 C343 1.203 . S
O345 C338 1.185 . S
O345 Zn341 2.086 . S
C346 O342 1.278 . S
C346 O347 1.211 . S
O347 C346 1.211 . S
C348 O340 1.284 . S
C348 O349 1.273 . S
O349 C348 1.273 . S
O350 Zn341 1.977 . S
O350 C343 1.267 . S
C351 O352 1.160 . S
C351 O358 1.185 . S
O352 C351 1.160 . S
O353 Zn354 1.899 . S
O353 C361 1.284 . S
Zn354 O353 1.899 . S
Zn354 O355 2.032 . S
Zn354 O358 2.086 . S
Zn354 O363 1.977 . S
O355 Zn354 2.032 . S
O355 C359 1.278 . S
C356 O357 1.203 . S
C356 O363 1.267 . S
O357 C356 1.203 . S
O358 C351 1.185 . S
O358 Zn354 2.086 . S
C359 O355 1.278 . S
C359 O360 1.211 . S
O360 C359 1.211 . S
C361 O353 1.284 . S
C361 O362 1.273 . S
O362 C361 1.273 . S
O363 Zn354 1.977 . S
O363 C356 1.267 . S
C364 O365 1.160 . S
C364 O371 1.185 . S
O365 C364 1.160 . S
O366 Zn367 1.899 . S
O366 C374 1.284 . S
Zn367 O366 1.899 . S
Zn367 O368 2.032 . S
Zn367 O371 2.086 . S
Zn367 O376 1.977 . S
O368 Zn367 2.032 . S
O368 C372 1.278 . S
C369 O370 1.203 . S
C369 O376 1.267 . S
O370 C369 1.203 . S
O371 C364 1.185 . S
O371 Zn367 2.086 . S
C372 O368 1.278 . S
C372 O373 1.211 . S
O373 C372 1.211 . S
C374 O366 1.284 . S
C374 O375 1.273 . S
O375 C374 1.273 . S
O376 Zn367 1.977 . S
O376 C369 1.267 . S
C377 O378 1.160 . S
C377 O384 1.185 . S
O378 C377 1.160 . S
O379 Zn380 1.899 . S
O379 C387 1.284 . S
Zn380 O379 1.899 . S
Zn380 O381 2.032 . S
Zn380 O384 2.086 . S
Zn380 O389 1.977 . S
O381 Zn380 2.032 . S
O381 C385 1.278 . S
C382 O383 1.203 . S
C382 O389 1.267 . S
O383 C382 1.203 . S
O384 C377 1.185 . S
O384 Zn380 2.086 . S
C385 O381 1.278 . S
C385 O386 1.211 . S
O386 C385 1.211 . S
C387 O379 1.284 . S
C387 O388 1.273 . S
O388 C387 1.273 . S
O389 Zn380 1.977 . S
O389 C382 1.267 . S
C390 O391 1.160 . S
C390 O397 1.185 . S
O391 C390 1.160 . S
O392 Zn393 1.899 . S
O392 C400 1.284 . S
Zn393 O392 1.899 . S
Zn393 O394 2.032 . S
Zn393 O397 2.086 . S
Zn393 O402 1.977 . S
O394 Zn393 2.032 . S
O394 C398 1.278 . S
C395 O396 1.203 . S
C395 O402 1.267 . S
O396 C395 1.203 . S
O397 C390 1.185 . S
O397 Zn393 2.086 . S
C398 O394 1.278 . S
C398 O399 1.211 . S
O399 C398 1.211 . S
C400 O392 1.284 . S
C400 O401 1.273 . S
O401 C400 1.273 . S
O402 Zn393 1.977 . S
O402 C395 1.267 . S
C403 O404 1.160 . S
C403 O410 1.185 . S
O404 C403 1.160 . S
O405 Zn406 1.899 . S
O405 C413 1.284 . S
Zn406 O405 1.899 . S
Zn406 O407 2.032 . S
Zn406 O410 2.086 . S
Zn406 O415 1.977 . S
O407 Zn406 2.032 . S
O407 C411 1.278 . S
C408 O409 1.203 . S
C408 O415 1.267 . S
O409 C408 1.203 . S
O410 C403 1.185 . S
O410 Zn406 2.086 . S
C411 O407 1.278 . S
C411 O412 1.211 . S
O412 C411 1.211 . S
C413 O405 1.284 . S
C413 O414 1.273 . S
O414 C413 1.273 . S
O415 Zn406 1.977 . S
O415 C408 1.267 . S
H416 C422 0.930 . S
H417 C425 0.930 . S
H418 C426 0.930 . S
H419 C427 0.930 . S
H420 C430 0.930 . S
H421 C431 0.930 . S
C422 H416 0.930 . S
C422 C423 1.355 . S
C422 C424 1.415 . S
C423 C422 1.355 . S
C423 C425 1.419 1_565 S
C424 C422 1.415 . S
C424 C429 1.425 1_565 S
C424 C431 1.409 . S
C425 H417 0.930 . S
C425 C423 1.419 1_545 S
C425 C426 1.362 . S
C426 H418 0.930 . S
C426 C425 1.362 . S
C426 C429 1.409 . S
C427 H419 0.930 . S
C427 C428 1.355 . S
C427 C429 1.415 . S
C428 C427 1.355 . S
C428 C430 1.419 1_545 S
C429 C424 1.425 1_545 S
C429 C426 1.409 . S
C429 C427 1.415 . S
C430 H420 0.930 . S
C430 C428 1.419 1_565 S
C430 C431 1.362 . S
C431 H421 0.930 . S
C431 C424 1.409 . S
C431 C430 1.362 . S
H432 C438 0.930 . S
H433 C441 0.930 . S
H434 C442 0.930 . S
H435 C443 0.930 . S
H436 C446 0.930 . S
H437 C447 0.930 . S
C438 H432 0.930 . S
C438 C439 1.355 . S
C438 C440 1.415 . S
C439 C438 1.355 . S
C439 C441 1.419 . S
C440 C438 1.415 . S
C440 C445 1.425 . S
C440 C447 1.409 . S
C441 H433 0.930 . S
C441 C439 1.419 . S
C441 C442 1.362 . S
C442 H434 0.930 . S
C442 C441 1.362 . S
C442 C445 1.409 . S
C443 H435 0.930 . S
C443 C444 1.355 . S
C443 C445 1.415 . S
C444 C443 1.355 . S
C444 C446 1.419 . S
C445 C440 1.425 . S
C445 C442 1.409 . S
C445 C443 1.415 . S
C446 H436 0.930 . S
C446 C444 1.419 . S
C446 C447 1.362 . S
C447 H437 0.930 . S
C447 C440 1.409 . S
C447 C446 1.362 . S
H448 C454 0.930 . S
H449 C457 0.930 . S
H450 C458 0.930 . S
H451 C459 0.930 . S
H452 C462 0.930 . S
H453 C463 0.930 . S
C454 H448 0.930 . S
C454 C455 1.355 . S
C454 C456 1.415 . S
C455 C454 1.355 . S
C455 C457 1.419 1_545 S
C456 C454 1.415 . S
C456 C461 1.425 1_545 S
C456 C463 1.409 . S
C457 H449 0.930 . S
C457 C455 1.419 1_565 S
C457 C458 1.362 . S
C458 H450 0.930 . S
C458 C457 1.362 . S
C458 C461 1.409 . S
C459 H451 0.930 . S
C459 C460 1.355 . S
C459 C461 1.415 . S
C460 C459 1.355 . S
C460 C462 1.419 1_565 S
C461 C456 1.425 1_565 S
C461 C458 1.409 . S
C461 C459 1.415 . S
C462 H452 0.930 . S
C462 C460 1.419 1_545 S
C462 C463 1.362 . S
C463 H453 0.930 . S
C463 C456 1.409 . S
C463 C462 1.362 . S
H464 C470 0.930 . S
H465 C473 0.930 . S
H466 C474 0.930 . S
H467 C475 0.930 . S
H468 C478 0.930 . S
H469 C479 0.930 . S
C470 H464 0.930 . S
C470 C471 1.355 . S
C470 C472 1.415 . S
C471 C470 1.355 . S
C471 C473 1.419 . S
C472 C470 1.415 . S
C472 C477 1.425 1_556 S
C472 C479 1.409 1_556 S
C473 H465 0.930 . S
C473 C471 1.419 . S
C473 C474 1.362 . S
C474 H466 0.930 . S
C474 C473 1.362 . S
C474 C477 1.409 1_556 S
C475 H467 0.930 . S
C475 C476 1.355 . S
C475 C477 1.415 . S
C476 C475 1.355 . S
C476 C478 1.419 . S
C477 C472 1.425 1_554 S
C477 C474 1.409 1_554 S
C477 C475 1.415 . S
C478 H468 0.930 . S
C478 C476 1.419 . S
C478 C479 1.362 . S
C479 H469 0.930 . S
C479 C472 1.409 1_554 S
C479 C478 1.362 . S
H480 C486 0.930 . S
H481 C489 0.930 . S
H482 C490 0.930 . S
H483 C491 0.930 . S
H484 C494 0.930 . S
H485 C495 0.930 . S
C486 H480 0.930 . S
C486 C487 1.355 . S
C486 C488 1.415 . S
C487 C486 1.355 . S
C487 C489 1.419 1_565 S
C488 C486 1.415 . S
C488 C493 1.425 1_565 S
C488 C495 1.409 . S
C489 H481 0.930 . S
C489 C487 1.419 1_545 S
C489 C490 1.362 . S
C490 H482 0.930 . S
C490 C489 1.362 . S
C490 C493 1.409 . S
C491 H483 0.930 . S
C491 C492 1.355 . S
C491 C493 1.415 . S
C492 C491 1.355 . S
C492 C494 1.419 1_545 S
C493 C488 1.425 1_545 S
C493 C490 1.409 . S
C493 C491 1.415 . S
C494 H484 0.930 . S
C494 C492 1.419 1_565 S
C494 C495 1.362 . S
C495 H485 0.930 . S
C495 C488 1.409 . S
C495 C494 1.362 . S
H496 C502 0.930 . S
H497 C505 0.930 . S
H498 C506 0.930 . S
H499 C507 0.930 . S
H500 C510 0.930 . S
H501 C511 0.930 . S
C502 H496 0.930 . S
C502 C503 1.355 . S
C502 C504 1.415 . S
C503 C502 1.355 . S
C503 C505 1.419 . S
C504 C502 1.415 . S
C504 C509 1.425 . S
C504 C511 1.409 . S
C505 H497 0.930 . S
C505 C503 1.419 . S
C505 C506 1.362 . S
C506 H498 0.930 . S
C506 C505 1.362 . S
C506 C509 1.409 . S
C507 H499 0.930 . S
C507 C508 1.355 . S
C507 C509 1.415 . S
C508 C507 1.355 . S
C508 C510 1.419 . S
C509 C504 1.425 . S
C509 C506 1.409 . S
C509 C507 1.415 . S
C510 H500 0.930 . S
C510 C508 1.419 . S
C510 C511 1.362 . S
C511 H501 0.930 . S
C511 C504 1.409 . S
C511 C510 1.362 . S
H512 C518 0.930 . S
H513 C521 0.930 . S
H514 C522 0.930 . S
H515 C523 0.930 . S
H516 C526 0.930 . S
H517 C527 0.930 . S
C518 H512 0.930 . S
C518 C519 1.355 . S
C518 C520 1.415 . S
C519 C518 1.355 . S
C519 C521 1.419 1_545 S
C520 C518 1.415 . S
C520 C525 1.425 1_545 S
C520 C527 1.409 . S
C521 H513 0.930 . S
C521 C519 1.419 1_565 S
C521 C522 1.362 . S
C522 H514 0.930 . S
C522 C521 1.362 . S
C522 C525 1.409 . S
C523 H515 0.930 . S
C523 C524 1.355 . S
C523 C525 1.415 . S
C524 C523 1.355 . S
C524 C526 1.419 1_565 S
C525 C520 1.425 1_565 S
C525 C522 1.409 . S
C525 C523 1.415 . S
C526 H516 0.930 . S
C526 C524 1.419 1_545 S
C526 C527 1.362 . S
C527 H517 0.930 . S
C527 C520 1.409 . S
C527 C526 1.362 . S
H528 C534 0.930 . S
H529 C537 0.930 . S
H530 C538 0.930 1_554 S
H531 C539 0.930 . S
H532 C542 0.930 . S
H533 C543 0.930 1_556 S
C534 H528 0.930 . S
C534 C535 1.355 . S
C534 C536 1.415 . S
C535 C534 1.355 . S
C535 C537 1.419 . S
C536 C534 1.415 . S
C536 C541 1.425 1_556 S
C536 C543 1.409 1_556 S
C537 H529 0.930 . S
C537 C535 1.419 . S
C537 C538 1.362 . S
C538 H530 0.930 1_556 S
C538 C537 1.362 . S
C538 C541 1.409 1_556 S
C539 H531 0.930 . S
C539 C540 1.355 . S
C539 C541 1.415 . S
C540 C539 1.355 . S
C540 C542 1.419 . S
C541 C536 1.425 1_554 S
C541 C538 1.409 1_554 S
C541 C539 1.415 . S
C542 H532 0.930 . S
C542 C540 1.419 . S
C542 C543 1.362 . S
C543 H533 0.930 1_554 S
C543 C536 1.409 1_554 S
C543 C542 1.362 . S
H544 C550 0.930 . S
H545 C553 0.930 . S
H546 C554 0.930 . S
H547 C555 0.930 . S
H548 C558 0.930 . S
H549 C559 0.930 . S
C550 H544 0.930 . S
C550 C551 1.355 . S
C550 C552 1.415 . S
C551 C550 1.355 . S
C551 C553 1.419 . S
C552 C550 1.415 . S
C552 C557 1.425 . S
C552 C559 1.409 . S
C553 H545 0.930 . S
C553 C551 1.419 . S
C553 C554 1.362 . S
C554 H546 0.930 . S
C554 C553 1.362 . S
C554 C557 1.409 . S
C555 H547 0.930 . S
C555 C556 1.355 . S
C555 C557 1.415 . S
C556 C555 1.355 . S
C556 C558 1.419 . S
C557 C552 1.425 . S
C557 C554 1.409 . S
C557 C555 1.415 . S
C558 H548 0.930 . S
C558 C556 1.419 . S
C558 C559 1.362 . S
C559 H549 0.930 . S
C559 C552 1.409 . S
C559 C558 1.362 . S
H560 C566 0.930 . S
H561 C569 0.930 . S
H562 C570 0.930 . S
H563 C571 0.930 . S
H564 C574 0.930 . S
H565 C575 0.930 . S
C566 H560 0.930 . S
C566 C567 1.355 . S
C566 C568 1.415 . S
C567 C566 1.355 . S
C567 C569 1.419 . S
C568 C566 1.415 . S
C568 C573 1.425 1_554 S
C568 C575 1.409 1_554 S
C569 H561 0.930 . S
C569 C567 1.419 . S
C569 C570 1.362 . S
C570 H562 0.930 . S
C570 C569 1.362 . S
C570 C573 1.409 1_554 S
C571 H563 0.930 . S
C571 C572 1.355 . S
C571 C573 1.415 . S
C572 C571 1.355 . S
C572 C574 1.419 . S
C573 C568 1.425 1_556 S
C573 C570 1.409 1_556 S
C573 C571 1.415 . S
C574 H564 0.930 . S
C574 C572 1.419 . S
C574 C575 1.362 . S
C575 H565 0.930 . S
C575 C568 1.409 1_556 S
C575 C574 1.362 . S
H576 C582 0.930 . S
H577 C585 0.930 . S
H578 C586 0.930 . S
H579 C587 0.930 . S
H580 C590 0.930 . S
H581 C591 0.930 . S
C582 H576 0.930 . S
C582 C583 1.355 . S
C582 C584 1.415 . S
C583 C582 1.355 . S
C583 C585 1.419 . S
C584 C582 1.415 . S
C584 C589 1.425 . S
C584 C591 1.409 . S
C585 H577 0.930 . S
C585 C583 1.419 . S
C585 C586 1.362 . S
C586 H578 0.930 . S
C586 C585 1.362 . S
C586 C589 1.409 . S
C587 H579 0.930 . S
C587 C588 1.355 . S
C587 C589 1.415 . S
C588 C587 1.355 . S
C588 C590 1.419 . S
C589 C584 1.425 . S
C589 C586 1.409 . S
C589 C587 1.415 . S
C590 H580 0.930 . S
C590 C588 1.419 . S
C590 C591 1.362 . S
C591 H581 0.930 . S
C591 C584 1.409 . S
C591 C590 1.362 . S
H592 C598 0.930 . S
H593 C601 0.930 . S
H594 C602 0.930 . S
H595 C603 0.930 . S
H596 C606 0.930 . S
H597 C607 0.930 . S
C598 H592 0.930 . S
C598 C599 1.355 . S
C598 C600 1.415 . S
C599 C598 1.355 . S
C599 C601 1.419 . S
C600 C598 1.415 . S
C600 C605 1.425 . S
C600 C607 1.409 . S
C601 H593 0.930 . S
C601 C599 1.419 . S
C601 C602 1.362 . S
C602 H594 0.930 . S
C602 C601 1.362 . S
C602 C605 1.409 . S
C603 H595 0.930 . S
C603 C604 1.355 . S
C603 C605 1.415 . S
C604 C603 1.355 . S
C604 C606 1.419 . S
C605 C600 1.425 . S
C605 C602 1.409 . S
C605 C603 1.415 . S
C606 H596 0.930 . S
C606 C604 1.419 . S
C606 C607 1.362 . S
C607 H597 0.930 . S
C607 C600 1.409 . S
C607 C606 1.362 . S
H608 C614 0.930 . S
H609 C617 0.930 . S
H610 C618 0.930 . S
H611 C619 0.930 . S
H612 C622 0.930 . S
H613 C623 0.930 . S
C614 H608 0.930 . S
C614 C615 1.355 . S
C614 C616 1.415 . S
C615 C614 1.355 . S
C615 C617 1.419 . S
C616 C614 1.415 . S
C616 C621 1.425 . S
C616 C623 1.409 . S
C617 H609 0.930 . S
C617 C615 1.419 . S
C617 C618 1.362 . S
C618 H610 0.930 . S
C618 C617 1.362 . S
C618 C621 1.409 . S
C619 H611 0.930 . S
C619 C620 1.355 . S
C619 C621 1.415 . S
C620 C619 1.355 . S
C620 C622 1.419 . S
C621 C616 1.425 . S
C621 C618 1.409 . S
C621 C619 1.415 . S
C622 H612 0.930 . S
C622 C620 1.419 . S
C622 C623 1.362 . S
C623 H613 0.930 . S
C623 C616 1.409 . S
C623 C622 1.362 . S
H624 C630 0.930 . S
H625 C633 0.930 . S
H626 C634 0.930 1_556 S
H627 C635 0.930 . S
H628 C638 0.930 . S
H629 C639 0.930 1_554 S
C630 H624 0.930 . S
C630 C631 1.355 . S
C630 C632 1.415 . S
C631 C630 1.355 . S
C631 C633 1.419 . S
C632 C630 1.415 . S
C632 C637 1.425 1_554 S
C632 C639 1.409 1_554 S
C633 H625 0.930 . S
C633 C631 1.419 . S
C633 C634 1.362 . S
C634 H626 0.930 1_554 S
C634 C633 1.362 . S
C634 C637 1.409 1_554 S
C635 H627 0.930 . S
C635 C636 1.355 . S
C635 C637 1.415 . S
C636 C635 1.355 . S
C636 C638 1.419 . S
C637 C632 1.425 1_556 S
C637 C634 1.409 1_556 S
C637 C635 1.415 . S
C638 H628 0.930 . S
C638 C636 1.419 . S
C638 C639 1.362 . S
C639 H629 0.930 1_556 S
C639 C632 1.409 1_556 S
C639 C638 1.362 . S
H640 C646 0.930 . S
H641 C649 0.930 . S
H642 C650 0.930 . S
H643 C651 0.930 . S
H644 C654 0.930 . S
H645 C655 0.930 . S
C646 H640 0.930 . S
C646 C647 1.355 . S
C646 C648 1.415 . S
C647 C646 1.355 . S
C647 C649 1.419 . S
C648 C646 1.415 . S
C648 C653 1.425 . S
C648 C655 1.409 . S
C649 H641 0.930 . S
C649 C647 1.419 . S
C649 C650 1.362 . S
C650 H642 0.930 . S
C650 C649 1.362 . S
C650 C653 1.409 . S
C651 H643 0.930 . S
C651 C652 1.355 . S
C651 C653 1.415 . S
C652 C651 1.355 . S
C652 C654 1.419 . S
C653 C648 1.425 . S
C653 C650 1.409 . S
C653 C651 1.415 . S
C654 H644 0.930 . S
C654 C652 1.419 . S
C654 C655 1.362 . S
C655 H645 0.930 . S
C655 C648 1.409 . S
C655 C654 1.362 . S
H656 C662 0.930 . S
H657 C665 0.930 . S
H658 C666 0.930 . S
H659 C667 0.930 . S
H660 C670 0.930 . S
H661 C671 0.930 . S
C662 H656 0.930 . S
C662 C663 1.355 . S
C662 C664 1.415 . S
C663 C662 1.355 . S
C663 C665 1.419 . S
C664 C662 1.415 . S
C664 C669 1.425 . S
C664 C671 1.409 . S
C665 H657 0.930 . S
C665 C663 1.419 . S
C665 C666 1.362 . S
C666 H658 0.930 . S
C666 C665 1.362 . S
C666 C669 1.409 . S
C667 H659 0.930 . S
C667 C668 1.355 . S
C667 C669 1.415 . S
C668 C667 1.355 . S
C668 C670 1.419 . S
C669 C664 1.425 . S
C669 C666 1.409 . S
C669 C667 1.415 . S
C670 H660 0.930 . S
C670 C668 1.419 . S
C670 C671 1.362 . S
C671 H661 0.930 . S
C671 C664 1.409 . S
C671 C670 1.362 . S
H672 C678 0.930 . S
H673 C681 0.930 1_545 S
H674 C682 0.930 . S
H675 C683 0.930 . S
H676 C686 0.930 . S
H677 C687 0.930 . S
C678 H672 0.930 . S
C678 C679 1.355 . S
C678 C680 1.415 . S
C679 C678 1.355 . S
C679 C681 1.419 . S
C680 C678 1.415 . S
C680 C685 1.425 . S
C680 C687 1.409 . S
C681 H673 0.930 1_565 S
C681 C679 1.419 . S
C681 C682 1.362 . S
C682 H674 0.930 . S
C682 C681 1.362 . S
C682 C685 1.409 . S
C683 H675 0.930 . S
C683 C684 1.355 . S
C683 C685 1.415 . S
C684 C683 1.355 . S
C684 C686 1.419 . S
C685 C680 1.425 . S
C685 C682 1.409 . S
C685 C683 1.415 . S
C686 H676 0.930 . S
C686 C684 1.419 . S
C686 C687 1.362 . S
C687 H677 0.930 . S
C687 C680 1.409 . S
C687 C686 1.362 . S
H688 C694 0.930 . S
H689 C697 0.930 . S
H690 C698 0.930 . S
H691 C699 0.930 1_565 S
H692 C702 0.930 . S
H693 C703 0.930 . S
C694 H688 0.930 . S
C694 C695 1.355 . S
C694 C696 1.415 . S
C695 C694 1.355 . S
C695 C697 1.419 . S
C696 C694 1.415 . S
C696 C701 1.425 . S
C696 C703 1.409 . S
C697 H689 0.930 . S
C697 C695 1.419 . S
C697 C698 1.362 . S
C698 H690 0.930 . S
C698 C697 1.362 . S
C698 C701 1.409 . S
C699 H691 0.930 1_545 S
C699 C700 1.355 . S
C699 C701 1.415 . S
C700 C699 1.355 . S
C700 C702 1.419 . S
C701 C696 1.425 . S
C701 C698 1.409 . S
C701 C699 1.415 . S
C702 H692 0.930 . S
C702 C700 1.419 . S
C702 C703 1.362 . S
C703 H693 0.930 . S
C703 C696 1.409 . S
C703 C702 1.362 . S
H704 C710 0.930 . S
H705 C713 0.930 1_565 S
H706 C714 0.930 . S
H707 C715 0.930 . S
H708 C718 0.930 . S
H709 C719 0.930 . S
C710 H704 0.930 . S
C710 C711 1.355 . S
C710 C712 1.415 . S
C711 C710 1.355 . S
C711 C713 1.419 . S
C712 C710 1.415 . S
C712 C717 1.425 . S
C712 C719 1.409 . S
C713 H705 0.930 1_545 S
C713 C711 1.419 . S
C713 C714 1.362 . S
C714 H706 0.930 . S
C714 C713 1.362 . S
C714 C717 1.409 . S
C715 H707 0.930 . S
C715 C716 1.355 . S
C715 C717 1.415 . S
C716 C715 1.355 . S
C716 C718 1.419 . S
C717 C712 1.425 . S
C717 C714 1.409 . S
C717 C715 1.415 . S
C718 H708 0.930 . S
C718 C716 1.419 . S
C718 C719 1.362 . S
C719 H709 0.930 . S
C719 C712 1.409 . S
C719 C718 1.362 . S
H720 C726 0.930 . S
H721 C729 0.930 1_545 S
H722 C730 0.930 . S
H723 C731 0.930 . S
H724 C734 0.930 . S
H725 C735 0.930 . S
C726 H720 0.930 . S
C726 C727 1.355 . S
C726 C728 1.415 . S
C727 C726 1.355 . S
C727 C729 1.419 . S
C728 C726 1.415 . S
C728 C733 1.425 . S
C728 C735 1.409 . S
C729 H721 0.930 1_565 S
C729 C727 1.419 . S
C729 C730 1.362 . S
C730 H722 0.930 . S
C730 C729 1.362 . S
C730 C733 1.409 . S
C731 H723 0.930 . S
C731 C732 1.355 . S
C731 C733 1.415 . S
C732 C731 1.355 . S
C732 C734 1.419 . S
C733 C728 1.425 . S
C733 C730 1.409 . S
C733 C731 1.415 . S
C734 H724 0.930 . S
C734 C732 1.419 . S
C734 C735 1.362 . S
C735 H725 0.930 . S
C735 C728 1.409 . S
C735 C734 1.362 . S
H736 C742 0.930 . S
H737 C745 0.930 . S
H738 C746 0.930 . S
H739 C747 0.930 . S
H740 C750 0.930 . S
H741 C751 0.930 . S
C742 H736 0.930 . S
C742 C743 1.355 . S
C742 C744 1.415 . S
C743 C742 1.355 . S
C743 C745 1.419 . S
C744 C742 1.415 . S
C744 C749 1.425 . S
C744 C751 1.409 . S
C745 H737 0.930 . S
C745 C743 1.419 . S
C745 C746 1.362 . S
C746 H738 0.930 . S
C746 C745 1.362 . S
C746 C749 1.409 . S
C747 H739 0.930 . S
C747 C748 1.355 . S
C747 C749 1.415 . S
C748 C747 1.355 . S
C748 C750 1.419 . S
C749 C744 1.425 . S
C749 C746 1.409 . S
C749 C747 1.415 . S
C750 H740 0.930 . S
C750 C748 1.419 . S
C750 C751 1.362 . S
C751 H741 0.930 . S
C751 C744 1.409 . S
C751 C750 1.362 . S
H752 C758 0.930 . S
H753 C761 0.930 . S
H754 C762 0.930 . S
H755 C763 0.930 . S
H756 C766 0.930 . S
H757 C767 0.930 . S
C758 H752 0.930 . S
C758 C759 1.355 . S
C758 C760 1.415 . S
C759 C758 1.355 . S
C759 C761 1.419 1_565 S
C760 C758 1.415 . S
C760 C765 1.425 . S
C760 C767 1.409 . S
C761 H753 0.930 . S
C761 C759 1.419 1_545 S
C761 C762 1.362 1_545 S
C762 H754 0.930 . S
C762 C761 1.362 1_565 S
C762 C765 1.409 . S
C763 H755 0.930 . S
C763 C764 1.355 . S
C763 C765 1.415 . S
C764 C763 1.355 . S
C764 C766 1.419 . S
C765 C760 1.425 . S
C765 C762 1.409 . S
C765 C763 1.415 . S
C766 H756 0.930 . S
C766 C764 1.419 . S
C766 C767 1.362 . S
C767 H757 0.930 . S
C767 C760 1.409 . S
C767 C766 1.362 . S
H768 C774 0.930 . S
H769 C777 0.930 . S
H770 C778 0.930 . S
H771 C779 0.930 . S
H772 C782 0.961 . S
H773 C783 0.930 . S
C774 H768 0.930 . S
C774 C775 1.355 . S
C774 C776 1.415 . S
C775 C774 1.355 . S
C775 C777 1.419 . S
C776 C774 1.415 . S
C776 C781 1.425 . S
C776 C783 1.409 . S
C777 H769 0.930 . S
C777 C775 1.419 . S
C777 C778 1.362 . S
C778 H770 0.930 . S
C778 C777 1.362 . S
C778 C781 1.409 . S
C779 H771 0.930 . S
C779 C780 1.355 . S
C779 C781 1.415 . S
C780 C779 1.355 . S
C780 C782 1.408 1_565 S
C781 C776 1.425 . S
C781 C778 1.409 . S
C781 C779 1.415 . S
C782 H772 0.961 . S
C782 C780 1.408 1_545 S
C782 C783 1.343 1_545 S
C783 H773 0.930 . S
C783 C776 1.409 . S
C783 C782 1.343 1_565 S
H784 C790 0.930 . S
H785 C793 0.930 . S
H786 C794 0.930 . S
H787 C795 0.930 . S
H788 C798 0.930 . S
H789 C799 0.930 . S
C790 H784 0.930 . S
C790 C791 1.355 . S
C790 C792 1.415 . S
C791 C790 1.355 . S
C791 C793 1.419 . S
C792 C790 1.415 . S
C792 C797 1.425 . S
C792 C799 1.409 . S
C793 H785 0.930 . S
C793 C791 1.419 . S
C793 C794 1.362 . S
C794 H786 0.930 . S
C794 C793 1.362 . S
C794 C797 1.409 . S
C795 H787 0.930 . S
C795 C796 1.355 . S
C795 C797 1.415 . S
C796 C795 1.355 . S
C796 C798 1.419 1_545 S
C797 C792 1.425 . S
C797 C794 1.409 . S
C797 C795 1.415 . S
C798 H788 0.930 . S
C798 C796 1.419 1_565 S
C798 C799 1.362 1_565 S
C799 H789 0.930 . S
C799 C792 1.409 . S
C799 C798 1.362 1_545 S
H800 C806 0.930 . S
H801 C809 0.930 . S
H802 C810 0.930 . S
H803 C811 0.930 . S
H804 C814 0.930 . S
H805 C815 0.930 . S
C806 H800 0.930 . S
C806 C807 1.355 . S
C806 C808 1.415 . S
C807 C806 1.355 . S
C807 C809 1.419 . S
C808 C806 1.415 . S
C808 C813 1.425 . S
C808 C815 1.409 . S
C809 H801 0.930 . S
C809 C807 1.419 . S
C809 C810 1.362 . S
C810 H802 0.930 . S
C810 C809 1.362 . S
C810 C813 1.409 . S
C811 H803 0.930 . S
C811 C812 1.355 . S
C811 C813 1.415 . S
C812 C811 1.355 . S
C812 C814 1.419 . S
C813 C808 1.425 . S
C813 C810 1.409 . S
C813 C811 1.415 . S
C814 H804 0.930 . S
C814 C812 1.419 . S
C814 C815 1.362 . S
C815 H805 0.930 . S
C815 C808 1.409 . S
C815 C814 1.362 . S
H816 C822 0.930 . S
H817 C825 0.930 . S
H818 C826 0.930 . S
H819 C827 0.930 . S
H820 C830 0.930 . S
H821 C831 0.930 . S
C822 H816 0.930 . S
C822 C823 1.355 . S
C822 C824 1.415 . S
C823 C822 1.355 . S
C823 C825 1.419 . S
C824 C822 1.415 . S
C824 C829 1.425 . S
C824 C831 1.409 . S
C825 H817 0.930 . S
C825 C823 1.419 . S
C825 C826 1.362 . S
C826 H818 0.930 . S
C826 C825 1.362 . S
C826 C829 1.409 . S
C827 H819 0.930 . S
C827 C828 1.355 . S
C827 C829 1.415 . S
C828 C827 1.355 . S
C828 C830 1.419 . S
C829 C824 1.425 . S
C829 C826 1.409 . S
C829 C827 1.415 . S
C830 H820 0.930 . S
C830 C828 1.419 . S
C830 C831 1.362 . S
C831 H821 0.930 . S
C831 C824 1.409 . S
C831 C830 1.362 . S
H832 C838 0.930 . S
H833 C841 0.930 . S
H834 C842 0.930 . S
H835 C843 0.930 . S
H836 C846 0.930 . S
H837 C847 0.930 . S
C838 H832 0.930 . S
C838 C839 1.355 . S
C838 C840 1.415 . S
C839 C838 1.355 . S
C839 C841 1.419 . S
C840 C838 1.415 . S
C840 C845 1.425 . S
C840 C847 1.409 . S
C841 H833 0.930 . S
C841 C839 1.419 . S
C841 C842 1.362 . S
C842 H834 0.930 . S
C842 C841 1.362 . S
C842 C845 1.409 . S
C843 H835 0.930 . S
C843 C844 1.355 . S
C843 C845 1.415 . S
C844 C843 1.355 . S
C844 C846 1.419 . S
C845 C840 1.425 . S
C845 C842 1.409 . S
C845 C843 1.415 . S
C846 H836 0.930 . S
C846 C844 1.419 . S
C846 C847 1.362 . S
C847 H837 0.930 . S
C847 C840 1.409 . S
C847 C846 1.362 . S
H848 C854 0.930 . S
H849 C857 0.930 . S
H850 C858 0.930 . S
H851 C859 0.930 . S
H852 C862 0.930 . S
H853 C863 0.930 . S
C854 H848 0.930 . S
C854 C855 1.355 . S
C854 C856 1.415 . S
C855 C854 1.355 . S
C855 C857 1.419 . S
C856 C854 1.415 . S
C856 C861 1.425 . S
C856 C863 1.409 . S
C857 H849 0.930 . S
C857 C855 1.419 . S
C857 C858 1.362 . S
C858 H850 0.930 . S
C858 C857 1.362 . S
C858 C861 1.409 . S
C859 H851 0.930 . S
C859 C860 1.355 . S
C859 C861 1.415 . S
C860 C859 1.355 . S
C860 C862 1.419 . S
C861 C856 1.425 . S
C861 C858 1.409 . S
C861 C859 1.415 . S
C862 H852 0.930 . S
C862 C860 1.419 . S
C862 C863 1.362 . S
C863 H853 0.930 . S
C863 C856 1.409 . S
C863 C862 1.362 . S
H864 C870 0.930 . S
H865 C873 0.930 . S
H866 C874 0.930 . S
H867 C875 0.930 . S
H868 C878 0.930 . S
H869 C879 0.930 . S
C870 H864 0.930 . S
C870 C871 1.355 . S
C870 C872 1.415 . S
C871 C870 1.355 . S
C871 C873 1.419 . S
C872 C870 1.415 . S
C872 C877 1.425 . S
C872 C879 1.409 . S
C873 H865 0.930 . S
C873 C871 1.419 . S
C873 C874 1.362 . S
C874 H866 0.930 . S
C874 C873 1.362 . S
C874 C877 1.409 . S
C875 H867 0.930 . S
C875 C876 1.355 . S
C875 C877 1.415 . S
C876 C875 1.355 . S
C876 C878 1.419 . S
C877 C872 1.425 . S
C877 C874 1.409 . S
C877 C875 1.415 . S
C878 H868 0.930 . S
C878 C876 1.419 . S
C878 C879 1.362 . S
C879 H869 0.930 . S
C879 C872 1.409 . S
C879 C878 1.362 . S
H880 C886 0.930 . S
H881 C889 0.930 . S
H882 C890 0.930 . S
H883 C891 0.930 . S
H884 C894 0.930 . S
H885 C895 0.930 . S
C886 H880 0.930 . S
C886 C887 1.355 . S
C886 C888 1.415 . S
C887 C886 1.355 . S
C887 C889 1.419 . S
C888 C886 1.415 . S
C888 C893 1.425 . S
C888 C895 1.409 . S
C889 H881 0.930 . S
C889 C887 1.419 . S
C889 C890 1.362 . S
C890 H882 0.930 . S
C890 C889 1.362 . S
C890 C893 1.409 . S
C891 H883 0.930 . S
C891 C892 1.355 . S
C891 C893 1.415 . S
C892 C891 1.355 . S
C892 C894 1.419 . S
C893 C888 1.425 . S
C893 C890 1.409 . S
C893 C891 1.415 . S
C894 H884 0.930 . S
C894 C892 1.419 . S
C894 C895 1.362 . S
C895 H885 0.930 . S
C895 C888 1.409 . S
C895 C894 1.362 . S
H896 C902 0.930 . S
H897 C905 0.930 . S
H898 C906 0.930 . S
H899 C907 0.930 . S
H900 C910 0.930 . S
H901 C911 0.930 . S
C902 H896 0.930 . S
C902 C903 1.355 . S
C902 C904 1.415 . S
C903 C902 1.355 . S
C903 C905 1.419 . S
C904 C902 1.415 . S
C904 C909 1.425 . S
C904 C911 1.409 . S
C905 H897 0.930 . S
C905 C903 1.419 . S
C905 C906 1.362 . S
C906 H898 0.930 . S
C906 C905 1.362 . S
C906 C909 1.409 . S
C907 H899 0.930 . S
C907 C908 1.355 . S
C907 C909 1.415 . S
C908 C907 1.355 . S
C908 C910 1.419 . S
C909 C904 1.425 . S
C909 C906 1.409 . S
C909 C907 1.415 . S
C910 H900 0.930 . S
C910 C908 1.419 . S
C910 C911 1.362 . S
C911 H901 0.930 . S
C911 C904 1.409 . S
C911 C910 1.362 . S
H912 C918 0.930 . S
H913 C921 0.930 . S
H914 C922 0.930 . S
H915 C923 0.930 . S
H916 C926 0.930 . S
H917 C927 0.930 . S
C918 H912 0.930 . S
C918 C919 1.355 . S
C918 C920 1.415 . S
C919 C918 1.355 . S
C919 C921 1.419 . S
C920 C918 1.415 . S
C920 C925 1.425 . S
C920 C927 1.409 . S
C921 H913 0.930 . S
C921 C919 1.419 . S
C921 C922 1.362 . S
C922 H914 0.930 . S
C922 C921 1.362 . S
C922 C925 1.409 . S
C923 H915 0.930 . S
C923 C924 1.355 . S
C923 C925 1.415 . S
C924 C923 1.355 . S
C924 C926 1.419 . S
C925 C920 1.425 . S
C925 C922 1.409 . S
C925 C923 1.415 . S
C926 H916 0.930 . S
C926 C924 1.419 . S
C926 C927 1.362 . S
C927 H917 0.930 . S
C927 C920 1.409 . S
C927 C926 1.362 . S
H928 C934 0.930 . S
H929 C937 0.930 . S
H930 C938 0.930 . S
H931 C939 0.930 . S
H932 C942 0.930 . S
H933 C943 0.930 . S
C934 H928 0.930 . S
C934 C935 1.355 . S
C934 C936 1.415 . S
C935 C934 1.355 . S
C935 C937 1.419 . S
C936 C934 1.415 . S
C936 C941 1.425 . S
C936 C943 1.409 . S
C937 H929 0.930 . S
C937 C935 1.419 . S
C937 C938 1.362 . S
C938 H930 0.930 . S
C938 C937 1.362 . S
C938 C941 1.409 . S
C939 H931 0.930 . S
C939 C940 1.355 . S
C939 C941 1.415 . S
C940 C939 1.355 . S
C940 C942 1.419 . S
C941 C936 1.425 . S
C941 C938 1.409 . S
C941 C939 1.415 . S
C942 H932 0.930 . S
C942 C940 1.419 . S
C942 C943 1.362 . S
C943 H933 0.930 . S
C943 C936 1.409 . S
C943 C942 1.362 . S
H944 C950 0.930 . S
H945 C953 0.930 . S
H946 C954 0.930 . S
H947 C955 0.930 1_655 S
H948 C958 0.930 . S
H949 C959 0.930 . S
C950 H944 0.930 . S
C950 C951 1.355 . S
C950 C952 1.415 . S
C951 C950 1.355 . S
C951 C953 1.419 . S
C952 C950 1.415 . S
C952 C957 1.425 . S
C952 C959 1.409 . S
C953 H945 0.930 . S
C953 C951 1.419 . S
C953 C954 1.362 . S
C954 H946 0.930 . S
C954 C953 1.362 . S
C954 C957 1.409 . S
C955 H947 0.930 1_455 S
C955 C956 1.355 1_455 S
C955 C957 1.415 . S
C956 C955 1.355 1_655 S
C956 C958 1.419 1_655 S
C957 C952 1.425 . S
C957 C954 1.409 . S
C957 C955 1.415 . S
C958 H948 0.930 . S
C958 C956 1.419 1_455 S
C958 C959 1.362 . S
C959 H949 0.930 . S
C959 C952 1.409 . S
C959 C958 1.362 . S
H960 C966 0.930 . S
H961 C969 0.930 . S
H962 C970 0.930 . S
H963 C971 0.930 . S
H964 C974 0.930 . S
H965 C975 0.930 . S
C966 H960 0.930 . S
C966 C967 1.355 . S
C966 C968 1.415 . S
C967 C966 1.355 . S
C967 C969 1.419 . S
C968 C966 1.415 . S
C968 C973 1.425 . S
C968 C975 1.409 . S
C969 H961 0.930 . S
C969 C967 1.419 . S
C969 C970 1.362 . S
C970 H962 0.930 . S
C970 C969 1.362 . S
C970 C973 1.409 . S
C971 H963 0.930 . S
C971 C972 1.355 . S
C971 C973 1.415 . S
C972 C971 1.355 . S
C972 C974 1.419 . S
C973 C968 1.425 . S
C973 C970 1.409 . S
C973 C971 1.415 . S
C974 H964 0.930 . S
C974 C972 1.419 . S
C974 C975 1.362 . S
C975 H965 0.930 . S
C975 C968 1.409 . S
C975 C974 1.362 . S
H976 C982 0.930 . S
H977 C985 0.930 . S
H978 C986 0.930 . S
H979 C987 0.930 . S
H980 C990 0.930 . S
H981 C991 0.930 . S
C982 H976 0.930 . S
C982 C983 1.355 . S
C982 C984 1.415 . S
C983 C982 1.355 . S
C983 C985 1.419 . S
C984 C982 1.415 . S
C984 C989 1.425 . S
C984 C991 1.409 . S
C985 H977 0.930 . S
C985 C983 1.419 . S
C985 C986 1.362 . S
C986 H978 0.930 . S
C986 C985 1.362 . S
C986 C989 1.409 . S
C987 H979 0.930 . S
C987 C988 1.355 . S
C987 C989 1.415 . S
C988 C987 1.355 . S
C988 C990 1.419 . S
C989 C984 1.425 . S
C989 C986 1.409 . S
C989 C987 1.415 . S
C990 H980 0.930 . S
C990 C988 1.419 . S
C990 C991 1.362 . S
C991 H981 0.930 . S
C991 C984 1.409 . S
C991 C990 1.362 . S
H992 C998 0.930 . S
H993 C1001 0.930 . S
H994 C1002 0.930 . S
H995 C1003 0.930 . S
H996 C1006 0.930 . S
H997 C1007 0.930 . S
C998 H992 0.930 . S
C998 C999 1.355 . S
C998 C1000 1.415 . S
C999 C998 1.355 . S
C999 C1001 1.419 . S
C1000 C998 1.415 . S
C1000 C1005 1.425 . S
C1000 C1007 1.409 . S
C1001 H993 0.930 . S
C1001 C999 1.419 . S
C1001 C1002 1.362 . S
C1002 H994 0.930 . S
C1002 C1001 1.362 . S
C1002 C1005 1.409 . S
C1003 H995 0.930 . S
C1003 C1004 1.355 . S
C1003 C1005 1.415 . S
C1004 C1003 1.355 . S
C1004 C1006 1.419 . S
C1005 C1000 1.425 . S
C1005 C1002 1.409 . S
C1005 C1003 1.415 . S
C1006 H996 0.930 . S
C1006 C1004 1.419 . S
C1006 C1007 1.362 . S
C1007 H997 0.930 . S
C1007 C1000 1.409 . S
C1007 C1006 1.362 . S
H1008 C1014 0.930 . S
H1009 C1017 0.930 . S
H1010 C1018 0.930 . S
H1011 C1019 0.930 . S
H1012 C1022 0.930 . S
H1013 C1023 0.930 . S
C1014 H1008 0.930 . S
C1014 C1015 1.355 . S
C1014 C1016 1.415 . S
C1015 C1014 1.355 . S
C1015 C1017 1.419 . S
C1016 C1014 1.415 . S
C1016 C1021 1.425 . S
C1016 C1023 1.409 . S
C1017 H1009 0.930 . S
C1017 C1015 1.419 . S
C1017 C1018 1.362 . S
C1018 H1010 0.930 . S
C1018 C1017 1.362 . S
C1018 C1021 1.409 . S
C1019 H1011 0.930 . S
C1019 C1020 1.355 . S
C1019 C1021 1.415 . S
C1020 C1019 1.355 . S
C1020 C1022 1.419 . S
C1021 C1016 1.425 . S
C1021 C1018 1.409 . S
C1021 C1019 1.415 . S
C1022 H1012 0.930 . S
C1022 C1020 1.419 . S
C1022 C1023 1.362 . S
C1023 H1013 0.930 . S
C1023 C1016 1.409 . S
C1023 C1022 1.362 . S
H1024 C1030 0.930 . S
H1025 C1033 0.930 . S
H1026 C1034 0.930 . S
H1027 C1035 0.930 . S
H1028 C1038 0.930 . S
H1029 C1039 0.930 . S
C1030 H1024 0.930 . S
C1030 C1031 1.355 . S
C1030 C1032 1.415 . S
C1031 C1030 1.355 . S
C1031 C1033 1.419 . S
C1032 C1030 1.415 . S
C1032 C1037 1.425 . S
C1032 C1039 1.409 . S
C1033 H1025 0.930 . S
C1033 C1031 1.419 . S
C1033 C1034 1.362 . S
C1034 H1026 0.930 . S
C1034 C1033 1.362 . S
C1034 C1037 1.409 . S
C1035 H1027 0.930 . S
C1035 C1036 1.355 . S
C1035 C1037 1.415 . S
C1036 C1035 1.355 . S
C1036 C1038 1.419 . S
C1037 C1032 1.425 . S
C1037 C1034 1.409 . S
C1037 C1035 1.415 . S
C1038 H1028 0.930 . S
C1038 C1036 1.419 . S
C1038 C1039 1.362 . S
C1039 H1029 0.930 . S
C1039 C1032 1.409 . S
C1039 C1038 1.362 . S
H1040 C1046 0.930 . S
H1041 C1049 0.930 . S
H1042 C1050 0.930 . S
H1043 C1051 0.930 . S
H1044 C1054 0.930 1_655 S
H1045 C1055 0.930 . S
C1046 H1040 0.930 . S
C1046 C1047 1.355 . S
C1046 C1048 1.415 . S
C1047 C1046 1.355 . S
C1047 C1049 1.419 . S
C1048 C1046 1.415 . S
C1048 C1053 1.425 . S
C1048 C1055 1.409 . S
C1049 H1041 0.930 . S
C1049 C1047 1.419 . S
C1049 C1050 1.362 . S
C1050 H1042 0.930 . S
C1050 C1049 1.362 . S
C1050 C1053 1.409 . S
C1051 H1043 0.930 . S
C1051 C1052 1.355 1_455 S
C1051 C1053 1.415 . S
C1052 C1051 1.355 1_655 S
C1052 C1054 1.419 1_655 S
C1053 C1048 1.425 . S
C1053 C1050 1.409 . S
C1053 C1051 1.415 . S
C1054 H1044 0.930 1_455 S
C1054 C1052 1.419 1_455 S
C1054 C1055 1.362 . S
C1055 H1045 0.930 . S
C1055 C1048 1.409 . S
C1055 C1054 1.362 . S
H1056 C1062 0.930 . S
H1057 C1065 0.930 . S
H1058 C1066 0.930 . S
H1059 C1067 0.930 . S
H1060 C1070 0.930 . S
H1061 C1071 0.930 . S
C1062 H1056 0.930 . S
C1062 C1063 1.355 . S
C1062 C1064 1.415 . S
C1063 C1062 1.355 . S
C1063 C1065 1.419 . S
C1064 C1062 1.415 . S
C1064 C1069 1.425 . S
C1064 C1071 1.409 . S
C1065 H1057 0.930 . S
C1065 C1063 1.419 . S
C1065 C1066 1.362 . S
C1066 H1058 0.930 . S
C1066 C1065 1.362 . S
C1066 C1069 1.409 . S
C1067 H1059 0.930 . S
C1067 C1068 1.355 . S
C1067 C1069 1.415 . S
C1068 C1067 1.355 . S
C1068 C1070 1.419 . S
C1069 C1064 1.425 . S
C1069 C1066 1.409 . S
C1069 C1067 1.415 . S
C1070 H1060 0.930 . S
C1070 C1068 1.419 . S
C1070 C1071 1.362 . S
C1071 H1061 0.930 . S
C1071 C1064 1.409 . S
C1071 C1070 1.362 . S
H1072 C1078 0.930 1_455 S
H1073 C1081 0.930 . S
H1074 C1082 0.930 . S
H1075 C1083 0.930 . S
H1076 C1086 0.930 . S
H1077 C1087 0.930 . S
C1078 H1072 0.930 1_655 S
C1078 C1079 1.355 1_655 S
C1078 C1080 1.415 . S
C1079 C1078 1.355 1_455 S
C1079 C1081 1.419 1_455 S
C1080 C1078 1.415 . S
C1080 C1085 1.425 . S
C1080 C1087 1.409 . S
C1081 H1073 0.930 . S
C1081 C1079 1.419 1_655 S
C1081 C1082 1.362 . S
C1082 H1074 0.930 . S
C1082 C1081 1.362 . S
C1082 C1085 1.409 . S
C1083 H1075 0.930 . S
C1083 C1084 1.355 . S
C1083 C1085 1.415 . S
C1084 C1083 1.355 . S
C1084 C1086 1.419 . S
C1085 C1080 1.425 . S
C1085 C1082 1.409 . S
C1085 C1083 1.415 . S
C1086 H1076 0.930 . S
C1086 C1084 1.419 . S
C1086 C1087 1.362 . S
C1087 H1077 0.930 . S
C1087 C1080 1.409 . S
C1087 C1086 1.362 . S
H1088 C1094 0.930 . S
H1089 C1097 0.930 . S
H1090 C1098 0.930 . S
H1091 C1099 0.930 . S
H1092 C1102 0.930 . S
H1093 C1103 0.930 . S
C1094 H1088 0.930 . S
C1094 C1095 1.355 . S
C1094 C1096 1.415 . S
C1095 C1094 1.355 . S
C1095 C1097 1.419 . S
C1096 C1094 1.415 . S
C1096 C1101 1.425 . S
C1096 C1103 1.409 . S
C1097 H1089 0.930 . S
C1097 C1095 1.419 . S
C1097 C1098 1.362 . S
C1098 H1090 0.930 . S
C1098 C1097 1.362 . S
C1098 C1101 1.409 . S
C1099 H1091 0.930 . S
C1099 C1100 1.355 . S
C1099 C1101 1.415 . S
C1100 C1099 1.355 . S
C1100 C1102 1.419 . S
C1101 C1096 1.425 . S
C1101 C1098 1.409 . S
C1101 C1099 1.415 . S
C1102 H1092 0.930 . S
C1102 C1100 1.419 . S
C1102 C1103 1.362 . S
C1103 H1093 0.930 . S
C1103 C1096 1.409 . S
C1103 C1102 1.362 . S
H1104 C1110 0.930 . S
H1105 C1113 0.930 . S
H1106 C1114 0.930 . S
H1107 C1115 0.930 . S
H1108 C1118 0.930 . S
H1109 C1119 0.930 . S
C1110 H1104 0.930 . S
C1110 C1111 1.355 . S
C1110 C1112 1.415 . S
C1111 C1110 1.355 . S
C1111 C1113 1.419 . S
C1112 C1110 1.415 . S
C1112 C1117 1.425 . S
C1112 C1119 1.409 . S
C1113 H1105 0.930 . S
C1113 C1111 1.419 . S
C1113 C1114 1.362 . S
C1114 H1106 0.930 . S
C1114 C1113 1.362 . S
C1114 C1117 1.409 . S
C1115 H1107 0.930 . S
C1115 C1116 1.355 . S
C1115 C1117 1.415 . S
C1116 C1115 1.355 . S
C1116 C1118 1.419 . S
C1117 C1112 1.425 . S
C1117 C1114 1.409 . S
C1117 C1115 1.415 . S
C1118 H1108 0.930 . S
C1118 C1116 1.419 . S
C1118 C1119 1.362 . S
C1119 H1109 0.930 . S
C1119 C1112 1.409 . S
C1119 C1118 1.362 . S
H1120 C1126 0.930 . S
H1121 C1129 0.930 . S
H1122 C1130 0.930 . S
H1123 C1131 0.930 . S
H1124 C1134 0.930 . S
H1125 C1135 0.930 . S
C1126 H1120 0.930 . S
C1126 C1127 1.355 . S
C1126 C1128 1.415 . S
C1127 C1126 1.355 . S
C1127 C1129 1.419 . S
C1128 C1126 1.415 . S
C1128 C1133 1.425 . S
C1128 C1135 1.409 . S
C1129 H1121 0.930 . S
C1129 C1127 1.419 . S
C1129 C1130 1.362 . S
C1130 H1122 0.930 . S
C1130 C1129 1.362 . S
C1130 C1133 1.409 . S
C1131 H1123 0.930 . S
C1131 C1132 1.355 . S
C1131 C1133 1.415 . S
C1132 C1131 1.355 . S
C1132 C1134 1.419 . S
C1133 C1128 1.425 . S
C1133 C1130 1.409 . S
C1133 C1131 1.415 . S
C1134 H1124 0.930 . S
C1134 C1132 1.419 . S
C1134 C1135 1.362 . S
C1135 H1125 0.930 . S
C1135 C1128 1.409 . S
C1135 C1134 1.362 . S
H1136 C1142 0.930 . S
H1137 C1145 0.930 . S
H1138 C1146 0.930 . S
H1139 C1147 0.930 . S
H1140 C1150 0.930 . S
H1141 C1151 0.930 . S
C1142 H1136 0.930 . S
C1142 C1143 1.355 . S
C1142 C1144 1.415 . S
C1143 C1142 1.355 . S
C1143 C1145 1.419 . S
C1144 C1142 1.415 . S
C1144 C1149 1.425 . S
C1144 C1151 1.409 . S
C1145 H1137 0.930 . S
C1145 C1143 1.419 . S
C1145 C1146 1.362 . S
C1146 H1138 0.930 . S
C1146 C1145 1.362 . S
C1146 C1149 1.409 . S
C1147 H1139 0.930 . S
C1147 C1148 1.355 . S
C1147 C1149 1.415 . S
C1148 C1147 1.355 . S
C1148 C1150 1.419 . S
C1149 C1144 1.425 . S
C1149 C1146 1.409 . S
C1149 C1147 1.415 . S
C1150 H1140 0.930 . S
C1150 C1148 1.419 . S
C1150 C1151 1.362 . S
C1151 H1141 0.930 . S
C1151 C1144 1.409 . S
C1151 C1150 1.362 . S
H1152 C1158 0.930 . S
H1153 C1161 0.930 . S
H1154 C1162 0.930 . S
H1155 C1163 0.930 . S
H1156 C1166 0.930 . S
H1157 C1167 0.930 . S
C1158 H1152 0.930 . S
C1158 C1159 1.355 . S
C1158 C1160 1.415 . S
C1159 C1158 1.355 . S
C1159 C1161 1.419 . S
C1160 C1158 1.415 . S
C1160 C1165 1.425 . S
C1160 C1167 1.409 . S
C1161 H1153 0.930 . S
C1161 C1159 1.419 . S
C1161 C1162 1.362 . S
C1162 H1154 0.930 . S
C1162 C1161 1.362 . S
C1162 C1165 1.409 . S
C1163 H1155 0.930 . S
C1163 C1164 1.355 . S
C1163 C1165 1.415 . S
C1164 C1163 1.355 . S
C1164 C1166 1.419 . S
C1165 C1160 1.425 . S
C1165 C1162 1.409 . S
C1165 C1163 1.415 . S
C1166 H1156 0.930 . S
C1166 C1164 1.419 . S
C1166 C1167 1.362 . S
C1167 H1157 0.930 . S
C1167 C1160 1.409 . S
C1167 C1166 1.362 . S
H1168 C1174 0.930 . S
H1169 C1177 0.930 . S
H1170 C1178 0.930 . S
H1171 C1179 0.930 . S
H1172 C1182 0.930 . S
H1173 C1183 0.930 . S
C1174 H1168 0.930 . S
C1174 C1175 1.355 1_655 S
C1174 C1176 1.415 . S
C1175 C1174 1.355 1_455 S
C1175 C1177 1.419 . S
C1176 C1174 1.415 . S
C1176 C1181 1.425 . S
C1176 C1183 1.409 . S
C1177 H1169 0.930 . S
C1177 C1175 1.419 . S
C1177 C1178 1.362 1_455 S
C1178 H1170 0.930 . S
C1178 C1177 1.362 1_655 S
C1178 C1181 1.409 . S
C1179 H1171 0.930 . S
C1179 C1180 1.355 . S
C1179 C1181 1.415 . S
C1180 C1179 1.355 . S
C1180 C1182 1.419 . S
C1181 C1176 1.425 . S
C1181 C1178 1.409 . S
C1181 C1179 1.415 . S
C1182 H1172 0.930 . S
C1182 C1180 1.419 . S
C1182 C1183 1.362 . S
C1183 H1173 0.930 . S
C1183 C1176 1.409 . S
C1183 C1182 1.362 . S
H1184 C1190 0.930 . S
H1185 C1193 0.930 . S
H1186 C1194 0.930 . S
H1187 C1195 0.930 . S
H1188 C1198 0.930 . S
H1189 C1199 0.930 . S
C1190 H1184 0.930 . S
C1190 C1191 1.355 . S
C1190 C1192 1.415 . S
C1191 C1190 1.355 . S
C1191 C1193 1.419 . S
C1192 C1190 1.415 . S
C1192 C1197 1.425 . S
C1192 C1199 1.409 . S
C1193 H1185 0.930 . S
C1193 C1191 1.419 . S
C1193 C1194 1.362 . S
C1194 H1186 0.930 . S
C1194 C1193 1.362 . S
C1194 C1197 1.409 . S
C1195 H1187 0.930 . S
C1195 C1196 1.355 . S
C1195 C1197 1.415 . S
C1196 C1195 1.355 . S
C1196 C1198 1.419 . S
C1197 C1192 1.425 . S
C1197 C1194 1.409 . S
C1197 C1195 1.415 . S
C1198 H1188 0.930 . S
C1198 C1196 1.419 . S
C1198 C1199 1.362 . S
C1199 H1189 0.930 . S
C1199 C1192 1.409 . S
C1199 C1198 1.362 . S
H1200 C1206 0.930 . S
H1201 C1209 0.930 . S
H1202 C1210 0.930 . S
H1203 C1211 0.930 . S
H1204 C1214 0.930 . S
H1205 C1215 0.930 . S
C1206 H1200 0.930 . S
C1206 C1207 1.355 . S
C1206 C1208 1.415 . S
C1207 C1206 1.355 . S
C1207 C1209 1.419 . S
C1208 C1206 1.415 . S
C1208 C1213 1.425 . S
C1208 C1215 1.409 . S
C1209 H1201 0.930 . S
C1209 C1207 1.419 . S
C1209 C1210 1.362 . S
C1210 H1202 0.930 . S
C1210 C1209 1.362 . S
C1210 C1213 1.409 . S
C1211 H1203 0.930 . S
C1211 C1212 1.355 . S
C1211 C1213 1.415 . S
C1212 C1211 1.355 . S
C1212 C1214 1.419 . S
C1213 C1208 1.425 . S
C1213 C1210 1.409 . S
C1213 C1211 1.415 . S
C1214 H1204 0.930 . S
C1214 C1212 1.419 . S
C1214 C1215 1.362 . S
C1215 H1205 0.930 . S
C1215 C1208 1.409 . S
C1215 C1214 1.362 . S
H1216 C1222 0.930 . S
H1217 C1225 0.930 . S
H1218 C1226 0.930 . S
H1219 C1227 0.930 . S
H1220 C1230 0.930 . S
H1221 C1231 0.930 . S
C1222 H1216 0.930 . S
C1222 C1223 1.355 . S
C1222 C1224 1.415 . S
C1223 C1222 1.355 . S
C1223 C1225 1.419 . S
C1224 C1222 1.415 . S
C1224 C1229 1.425 . S
C1224 C1231 1.409 . S
C1225 H1217 0.930 . S
C1225 C1223 1.419 . S
C1225 C1226 1.362 . S
C1226 H1218 0.930 . S
C1226 C1225 1.362 . S
C1226 C1229 1.409 . S
C1227 H1219 0.930 . S
C1227 C1228 1.355 . S
C1227 C1229 1.415 . S
C1228 C1227 1.355 . S
C1228 C1230 1.419 . S
C1229 C1224 1.425 . S
C1229 C1226 1.409 . S
C1229 C1227 1.415 . S
C1230 H1220 0.930 . S
C1230 C1228 1.419 . S
C1230 C1231 1.362 . S
C1231 H1221 0.930 . S
C1231 C1224 1.409 . S
C1231 C1230 1.362 . S
H1232 C1238 0.930 . S
H1233 C1241 0.930 . S
H1234 C1242 0.930 . S
H1235 C1243 0.930 . S
H1236 C1246 0.930 . S
H1237 C1247 0.930 . S
C1238 H1232 0.930 . S
C1238 C1239 1.355 . S
C1238 C1240 1.415 . S
C1239 C1238 1.355 . S
C1239 C1241 1.419 . S
C1240 C1238 1.415 . S
C1240 C1245 1.425 . S
C1240 C1247 1.409 . S
C1241 H1233 0.930 . S
C1241 C1239 1.419 . S
C1241 C1242 1.362 . S
C1242 H1234 0.930 . S
C1242 C1241 1.362 . S
C1242 C1245 1.409 . S
C1243 H1235 0.930 . S
C1243 C1244 1.355 1_655 S
C1243 C1245 1.415 . S
C1244 C1243 1.355 1_455 S
C1244 C1246 1.419 . S
C1245 C1240 1.425 . S
C1245 C1242 1.409 . S
C1245 C1243 1.415 . S
C1246 H1236 0.930 . S
C1246 C1244 1.419 . S
C1246 C1247 1.362 1_455 S
C1247 H1237 0.930 . S
C1247 C1240 1.409 . S
C1247 C1246 1.362 1_655 S
H1248 C1254 0.930 . S
H1249 C1257 0.930 . S
H1250 C1258 0.930 . S
H1251 C1259 0.930 . S
H1252 C1262 0.930 . S
H1253 C1263 0.930 . S
C1254 H1248 0.930 . S
C1254 C1255 1.355 . S
C1254 C1256 1.415 . S
C1255 C1254 1.355 . S
C1255 C1257 1.419 . S
C1256 C1254 1.415 . S
C1256 C1261 1.425 . S
C1256 C1263 1.409 . S
C1257 H1249 0.930 . S
C1257 C1255 1.419 . S
C1257 C1258 1.362 . S
C1258 H1250 0.930 . S
C1258 C1257 1.362 . S
C1258 C1261 1.409 . S
C1259 H1251 0.930 . S
C1259 C1260 1.355 . S
C1259 C1261 1.415 . S
C1260 C1259 1.355 . S
C1260 C1262 1.419 . S
C1261 C1256 1.425 . S
C1261 C1258 1.409 . S
C1261 C1259 1.415 . S
C1262 H1252 0.930 . S
C1262 C1260 1.419 . S
C1262 C1263 1.362 . S
C1263 H1253 0.930 . S
C1263 C1256 1.409 . S
C1263 C1262 1.362 . S
H1264 C1270 0.930 . S
H1265 C1273 0.930 . S
H1266 C1274 0.930 . S
H1267 C1275 0.930 . S
H1268 C1278 0.930 . S
H1269 C1279 0.930 . S
C1270 H1264 0.930 . S
C1270 C1271 1.355 1_655 S
C1270 C1272 1.415 . S
C1271 C1270 1.355 1_455 S
C1271 C1273 1.419 . S
C1272 C1270 1.415 . S
C1272 C1277 1.425 . S
C1272 C1279 1.409 . S
C1273 H1265 0.930 . S
C1273 C1271 1.419 . S
C1273 C1274 1.362 1_455 S
C1274 H1266 0.930 . S
C1274 C1273 1.362 1_655 S
C1274 C1277 1.409 . S
C1275 H1267 0.930 . S
C1275 C1276 1.355 . S
C1275 C1277 1.415 . S
C1276 C1275 1.355 . S
C1276 C1278 1.419 . S
C1277 C1272 1.425 . S
C1277 C1274 1.409 . S
C1277 C1275 1.415 . S
C1278 H1268 0.930 . S
C1278 C1276 1.419 . S
C1278 C1279 1.362 . S
C1279 H1269 0.930 . S
C1279 C1272 1.409 . S
C1279 C1278 1.362 . S
H1280 C1286 0.930 . S
H1281 C1289 0.930 . S
H1282 C1290 0.930 . S
H1283 C1291 0.930 . S
H1284 C1294 0.930 . S
H1285 C1295 0.930 . S
C1286 H1280 0.930 . S
C1286 C1287 1.355 . S
C1286 C1288 1.415 . S
C1287 C1286 1.355 . S
C1287 C1289 1.419 . S
C1288 C1286 1.415 . S
C1288 C1293 1.425 . S
C1288 C1295 1.409 . S
C1289 H1281 0.930 . S
C1289 C1287 1.419 . S
C1289 C1290 1.362 . S
C1290 H1282 0.930 . S
C1290 C1289 1.362 . S
C1290 C1293 1.409 . S
C1291 H1283 0.930 . S
C1291 C1292 1.355 . S
C1291 C1293 1.415 . S
C1292 C1291 1.355 . S
C1292 C1294 1.419 . S
C1293 C1288 1.425 . S
C1293 C1290 1.409 . S
C1293 C1291 1.415 . S
C1294 H1284 0.930 . S
C1294 C1292 1.419 . S
C1294 C1295 1.362 . S
C1295 H1285 0.930 . S
C1295 C1288 1.409 . S
C1295 C1294 1.362 . S
H1296 C1302 0.930 . S
H1297 C1305 0.930 . S
H1298 C1306 0.930 . S
H1299 C1307 0.930 . S
H1300 C1310 0.930 . S
H1301 C1311 0.930 . S
C1302 H1296 0.930 . S
C1302 C1303 1.355 . S
C1302 C1304 1.415 . S
C1303 C1302 1.355 . S
C1303 C1305 1.419 . S
C1304 C1302 1.415 . S
C1304 C1309 1.425 . S
C1304 C1311 1.409 . S
C1305 H1297 0.930 . S
C1305 C1303 1.419 . S
C1305 C1306 1.362 . S
C1306 H1298 0.930 . S
C1306 C1305 1.362 . S
C1306 C1309 1.409 . S
C1307 H1299 0.930 . S
C1307 C1308 1.355 . S
C1307 C1309 1.415 . S
C1308 C1307 1.355 . S
C1308 C1310 1.419 . S
C1309 C1304 1.425 . S
C1309 C1306 1.409 . S
C1309 C1307 1.415 . S
C1310 H1300 0.930 . S
C1310 C1308 1.419 . S
C1310 C1311 1.362 . S
C1311 H1301 0.930 . S
C1311 C1304 1.409 . S
C1311 C1310 1.362 . S
H1312 C1318 0.930 . S
H1313 C1321 0.930 . S
H1314 C1322 0.930 . S
H1315 C1323 0.930 . S
H1316 C1326 0.930 . S
H1317 C1327 0.930 . S
C1318 H1312 0.930 . S
C1318 C1319 1.355 . S
C1318 C1320 1.415 . S
C1319 C1318 1.355 . S
C1319 C1321 1.419 . S
C1320 C1318 1.415 . S
C1320 C1325 1.425 . S
C1320 C1327 1.409 . S
C1321 H1313 0.930 . S
C1321 C1319 1.419 . S
C1321 C1322 1.362 . S
C1322 H1314 0.930 . S
C1322 C1321 1.362 . S
C1322 C1325 1.409 . S
C1323 H1315 0.930 . S
C1323 C1324 1.355 . S
C1323 C1325 1.415 . S
C1324 C1323 1.355 . S
C1324 C1326 1.419 . S
C1325 C1320 1.425 . S
C1325 C1322 1.409 . S
C1325 C1323 1.415 . S
C1326 H1316 0.930 . S
C1326 C1324 1.419 . S
C1326 C1327 1.362 . S
C1327 H1317 0.930 . S
C1327 C1320 1.409 . S
C1327 C1326 1.362 . S
H1328 C1334 0.930 . S
H1329 C1337 0.930 . S
H1330 C1338 0.930 . S
H1331 C1339 0.930 . S
H1332 C1342 0.930 . S
H1333 C1343 0.930 . S
C1334 H1328 0.930 . S
C1334 C1335 1.355 . S
C1334 C1336 1.415 . S
C1335 C1334 1.355 . S
C1335 C1337 1.419 . S
C1336 C1334 1.415 . S
C1336 C1341 1.425 . S
C1336 C1343 1.409 . S
C1337 H1329 0.930 . S
C1337 C1335 1.419 . S
C1337 C1338 1.362 . S
C1338 H1330 0.930 . S
C1338 C1337 1.362 . S
C1338 C1341 1.409 . S
C1339 H1331 0.930 . S
C1339 C1340 1.355 . S
C1339 C1341 1.415 . S
C1340 C1339 1.355 . S
C1340 C1342 1.419 . S
C1341 C1336 1.425 . S
C1341 C1338 1.409 . S
C1341 C1339 1.415 . S
C1342 H1332 0.930 . S
C1342 C1340 1.419 . S
C1342 C1343 1.362 . S
C1343 H1333 0.930 . S
C1343 C1336 1.409 . S
C1343 C1342 1.362 . S
H1344 C1350 0.930 . S
H1345 C1353 0.930 . S
H1346 C1354 0.930 . S
H1347 C1355 0.930 . S
H1348 C1358 0.930 . S
H1349 C1359 0.930 . S
C1350 H1344 0.930 . S
C1350 C1351 1.355 . S
C1350 C1352 1.415 . S
C1351 C1350 1.355 . S
C1351 C1353 1.419 . S
C1352 C1350 1.415 . S
C1352 C1357 1.425 . S
C1352 C1359 1.409 . S
C1353 H1345 0.930 . S
C1353 C1351 1.419 . S
C1353 C1354 1.362 . S
C1354 H1346 0.930 . S
C1354 C1353 1.362 . S
C1354 C1357 1.409 . S
C1355 H1347 0.930 . S
C1355 C1356 1.355 . S
C1355 C1357 1.415 . S
C1356 C1355 1.355 . S
C1356 C1358 1.419 . S
C1357 C1352 1.425 . S
C1357 C1354 1.409 . S
C1357 C1355 1.415 . S
C1358 H1348 0.930 . S
C1358 C1356 1.419 . S
C1358 C1359 1.362 . S
C1359 H1349 0.930 . S
C1359 C1352 1.409 . S
C1359 C1358 1.362 . S
H1360 C1366 0.930 1_655 S
H1361 C1369 0.930 . S
H1362 C1370 0.930 . S
H1363 C1371 0.930 . S
H1364 C1374 0.930 . S
H1365 C1375 0.930 . S
C1366 H1360 0.930 1_455 S
C1366 C1367 1.355 1_455 S
C1366 C1368 1.415 . S
C1367 C1366 1.355 1_655 S
C1367 C1369 1.419 1_655 S
C1368 C1366 1.415 . S
C1368 C1373 1.425 . S
C1368 C1375 1.409 . S
C1369 H1361 0.930 . S
C1369 C1367 1.419 1_455 S
C1369 C1370 1.362 . S
C1370 H1362 0.930 . S
C1370 C1369 1.362 . S
C1370 C1373 1.409 . S
C1371 H1363 0.930 . S
C1371 C1372 1.355 . S
C1371 C1373 1.415 . S
C1372 C1371 1.355 . S
C1372 C1374 1.419 . S
C1373 C1368 1.425 . S
C1373 C1370 1.409 . S
C1373 C1371 1.415 . S
C1374 H1364 0.930 . S
C1374 C1372 1.419 . S
C1374 C1375 1.362 . S
C1375 H1365 0.930 . S
C1375 C1368 1.409 . S
C1375 C1374 1.362 . S
H1376 C1382 0.930 . S
H1377 C1385 0.930 . S
H1378 C1386 0.930 . S
H1379 C1387 0.930 . S
H1380 C1390 0.930 . S
H1381 C1391 0.930 . S
C1382 H1376 0.930 . S
C1382 C1383 1.355 . S
C1382 C1384 1.415 . S
C1383 C1382 1.355 . S
C1383 C1385 1.419 . S
C1384 C1382 1.415 . S
C1384 C1389 1.425 . S
C1384 C1391 1.409 . S
C1385 H1377 0.930 . S
C1385 C1383 1.419 . S
C1385 C1386 1.362 . S
C1386 H1378 0.930 . S
C1386 C1385 1.362 . S
C1386 C1389 1.409 . S
C1387 H1379 0.930 . S
C1387 C1388 1.355 . S
C1387 C1389 1.415 . S
C1388 C1387 1.355 . S
C1388 C1390 1.419 . S
C1389 C1384 1.425 . S
C1389 C1386 1.409 . S
C1389 C1387 1.415 . S
C1390 H1380 0.930 . S
C1390 C1388 1.419 . S
C1390 C1391 1.362 . S
C1391 H1381 0.930 . S
C1391 C1384 1.409 . S
C1391 C1390 1.362 . S
H1392 C1398 0.930 . S
H1393 C1401 0.930 . S
H1394 C1402 0.930 . S
H1395 C1403 0.930 1_655 S
H1396 C1406 0.930 . S
H1397 C1407 0.930 . S
C1398 H1392 0.930 . S
C1398 C1399 1.355 . S
C1398 C1400 1.415 . S
C1399 C1398 1.355 . S
C1399 C1401 1.419 . S
C1400 C1398 1.415 . S
C1400 C1405 1.425 . S
C1400 C1407 1.409 . S
C1401 H1393 0.930 . S
C1401 C1399 1.419 . S
C1401 C1402 1.362 . S
C1402 H1394 0.930 . S
C1402 C1401 1.362 . S
C1402 C1405 1.409 . S
C1403 H1395 0.930 1_455 S
C1403 C1404 1.355 1_455 S
C1403 C1405 1.415 . S
C1404 C1403 1.355 1_655 S
C1404 C1406 1.419 1_655 S
C1405 C1400 1.425 . S
C1405 C1402 1.409 . S
C1405 C1403 1.415 . S
C1406 H1396 0.930 . S
C1406 C1404 1.419 1_455 S
C1406 C1407 1.362 . S
C1407 H1397 0.930 . S
C1407 C1400 1.409 . S
C1407 C1406 1.362 . S
H1408 C1414 0.930 . S
H1409 C1417 0.930 . S
H1410 C1418 0.930 . S
H1411 C1419 0.930 . S
H1412 C1422 0.930 . S
H1413 C1423 0.930 . S
C1414 H1408 0.930 . S
C1414 C1415 1.355 . S
C1414 C1416 1.415 . S
C1415 C1414 1.355 . S
C1415 C1417 1.419 . S
C1416 C1414 1.415 . S
C1416 C1421 1.425 . S
C1416 C1423 1.409 . S
C1417 H1409 0.930 . S
C1417 C1415 1.419 . S
C1417 C1418 1.362 . S
C1418 H1410 0.930 . S
C1418 C1417 1.362 . S
C1418 C1421 1.409 . S
C1419 H1411 0.930 . S
C1419 C1420 1.355 . S
C1419 C1421 1.415 . S
C1420 C1419 1.355 . S
C1420 C1422 1.419 . S
C1421 C1416 1.425 . S
C1421 C1418 1.409 . S
C1421 C1419 1.415 . S
C1422 H1412 0.930 . S
C1422 C1420 1.419 . S
C1422 C1423 1.362 . S
C1423 H1413 0.930 . S
C1423 C1416 1.409 . S
C1423 C1422 1.362 . S
H1424 C1430 0.930 . S
H1425 C1433 0.930 . S
H1426 C1434 0.930 . S
H1427 C1435 0.930 . S
H1428 C1438 0.930 . S
H1429 C1439 0.930 . S
C1430 H1424 0.930 . S
C1430 C1431 1.355 . S
C1430 C1432 1.415 . S
C1431 C1430 1.355 . S
C1431 C1433 1.419 . S
C1432 C1430 1.415 . S
C1432 C1437 1.425 . S
C1432 C1439 1.409 . S
C1433 H1425 0.930 . S
C1433 C1431 1.419 . S
C1433 C1434 1.362 . S
C1434 H1426 0.930 . S
C1434 C1433 1.362 . S
C1434 C1437 1.409 . S
C1435 H1427 0.930 . S
C1435 C1436 1.355 . S
C1435 C1437 1.415 . S
C1436 C1435 1.355 . S
C1436 C1438 1.419 . S
C1437 C1432 1.425 . S
C1437 C1434 1.409 . S
C1437 C1435 1.415 . S
C1438 H1428 0.930 . S
C1438 C1436 1.419 . S
C1438 C1439 1.362 . S
C1439 H1429 0.930 . S
C1439 C1432 1.409 . S
C1439 C1438 1.362 . S
C423 C52 1.431 . S
C428 C0 1.477 . S
C439 C65 1.470 . S
C444 C13 1.435 . S
C455 C78 1.430 . S
C460 C26 1.478 . S
C471 C39 1.466 . S
C476 C91 1.439 . S
C487 C104 1.475 . S
C492 C156 1.432 . S
C503 C169 1.476 . S
C508 C117 1.431 . S
C519 C130 1.468 . S
C524 C182 1.437 . S
C535 C195 1.462 . S
C540 C143 1.457 . S
C551 C208 1.463 . S
C556 C260 1.455 . S
C567 C273 1.465 . S
C572 C221 1.440 . S
C583 C286 1.469 . S
C588 C234 1.448 . S
C599 C299 1.438 . S
C604 C247 1.467 . S
C615 C312 1.474 . S
C620 C364 1.442 . S
C631 C325 1.462 . S
C636 C377 1.457 . S
C647 C338 1.437 . S
C652 C390 1.478 . S
C663 C351 1.435 . S
C668 C403 1.470 . S
C679 C8 0.901 1_565 S
C684 C99 0.992 . S
C695 C21 0.898 . S
C700 C60 0.992 1_545 S
C711 C34 0.910 1_545 S
C716 C73 0.985 . S
C727 C86 0.900 1_565 S
C732 C47 0.992 . S
C743 C203 0.899 . S
C748 C112 0.989 1_545 S
C759 C164 0.899 1_565 S
C764 C125 0.992 . S
C775 C177 0.992 . S
C780 C138 0.898 1_565 S
C791 C151 0.991 . S
C796 C190 0.898 1_545 S
C807 C307 0.905 . S
C812 C216 0.982 . S
C823 C268 0.992 . S
C828 C229 0.898 . S
C839 C281 0.937 . S
C844 C242 0.948 . S
C855 C255 0.968 . S
C860 C294 0.931 . S
C871 C320 0.903 . S
C876 C411 0.985 . S
C887 C333 0.926 . S
C892 C372 0.960 . S
C903 C346 0.898 . S
C908 C385 0.993 . S
C919 C398 0.903 . S
C924 C359 0.990 . S
C935 C5 1.387 . S
C940 C335 1.440 . S
C951 C18 1.443 . S
C956 C140 1.464 . S
C967 C31 1.390 . S
C972 C361 1.454 . S
C983 C114 1.466 . S
C988 C44 1.423 . S
C999 C413 1.458 . S
C1004 C57 1.396 . S
C1015 C70 1.440 . S
C1020 C166 1.465 . S
C1031 C83 1.448 . S
C1036 C387 1.449 . S
C1047 C96 1.386 . S
C1052 C192 1.441 . S
C1063 C231 1.438 . S
C1068 C109 1.430 . S
C1079 C36 1.463 . S
C1084 C122 1.410 . S
C1095 C257 1.460 . S
C1100 C135 1.400 . S
C1111 C148 1.445 . S
C1116 C10 1.463 . S
C1127 C309 1.461 . S
C1132 C161 1.449 . S
C1143 C62 1.466 . S
C1148 C174 1.435 . S
C1159 C283 1.455 . S
C1164 C187 1.391 . S
C1175 C88 1.439 . S
C1180 C200 1.388 . S
C1191 C127 1.466 . S
C1196 C213 1.419 . S
C1207 C226 1.387 . S
C1212 C348 1.451 . S
C1223 C239 1.393 . S
C1228 C153 1.456 . S
C1239 C252 1.426 . S
C1244 C322 1.437 . S
C1255 C265 1.389 . S
C1260 C205 1.453 . S
C1271 C374 1.434 . S
C1276 C278 1.400 . S
C1287 C291 1.405 . S
C1292 C179 1.434 . S
C1303 C304 1.415 . S
C1308 C400 1.435 . S
C1319 C317 1.427 . S
C1324 C23 1.437 . S
C1335 C330 1.397 . S
C1340 C244 1.435 . S
C1351 C49 1.436 . S
C1356 C343 1.393 . S
C1367 C218 1.463 . S
C1372 C356 1.410 . S
C1383 C369 1.447 . S
C1388 C101 1.448 . S
C1399 C382 1.404 . S
C1404 C270 1.461 . S
C1415 C75 1.454 . S
C1420 C395 1.390 . S
C1431 C296 1.440 . S
C1436 C408 1.436 . S
