# Generated by pormake.
# Topology fnj, (5)-cn, num edge types: 1
# Building blocks:
#     Node 0, Type 0, BuildingBlock: XOMCOT_clean_sbu_0, # of connection points: 5
#     Node 1, Type 0, BuildingBlock: XOMCOT_clean_sbu_0, # of connection points: 5
#     Node 2, Type 0, BuildingBlock: XOMCOT_clean_sbu_0, # of connection points: 5
#     Node 3, Type 0, BuildingBlock: XOMCOT_clean_sbu_0, # of connection points: 5
#     Node 4, Type 0, BuildingBlock: XOMCOT_clean_sbu_0, # of connection points: 5
#     Node 5, Type 0, BuildingBlock: XOMCOT_clean_sbu_0, # of connection points: 5
#     Node 6, Type 0, BuildingBlock: XOMCOT_clean_sbu_0, # of connection points: 5
#     Node 7, Type 0, BuildingBlock: XOMCOT_clean_sbu_0, # of connection points: 5
#     Node 8, Type 0, BuildingBlock: XOMCOT_clean_sbu_0, # of connection points: 5
#     Node 9, Type 0, BuildingBlock: XOMCOT_clean_sbu_0, # of connection points: 5
#     Node 10, Type 0, BuildingBlock: XOMCOT_clean_sbu_0, # of connection points: 5
#     Node 11, Type 0, BuildingBlock: XOMCOT_clean_sbu_0, # of connection points: 5
#     Node 12, Type 0, BuildingBlock: XOMCOT_clean_sbu_0, # of connection points: 5
#     Node 13, Type 0, BuildingBlock: XOMCOT_clean_sbu_0, # of connection points: 5
#     Node 14, Type 0, BuildingBlock: XOMCOT_clean_sbu_0, # of connection points: 5
#     Node 15, Type 0, BuildingBlock: XOMCOT_clean_sbu_0, # of connection points: 5
#     Edge 16, Type (0, 0), BuildingBlock: KIFKEQ_clean_linker_1, # of connection points: 2
#     Edge 17, Type (0, 0), BuildingBlock: KIFKEQ_clean_linker_1, # of connection points: 2
#     Edge 18, Type (0, 0), BuildingBlock: KIFKEQ_clean_linker_1, # of connection points: 2
#     Edge 19, Type (0, 0), BuildingBlock: KIFKEQ_clean_linker_1, # of connection points: 2
#     Edge 20, Type (0, 0), BuildingBlock: KIFKEQ_clean_linker_1, # of connection points: 2
#     Edge 21, Type (0, 0), BuildingBlock: KIFKEQ_clean_linker_1, # of connection points: 2
#     Edge 22, Type (0, 0), BuildingBlock: KIFKEQ_clean_linker_1, # of connection points: 2
#     Edge 23, Type (0, 0), BuildingBlock: KIFKEQ_clean_linker_1, # of connection points: 2
#     Edge 24, Type (0, 0), BuildingBlock: KIFKEQ_clean_linker_1, # of connection points: 2
#     Edge 25, Type (0, 0), BuildingBlock: KIFKEQ_clean_linker_1, # of connection points: 2
#     Edge 26, Type (0, 0), BuildingBlock: KIFKEQ_clean_linker_1, # of connection points: 2
#     Edge 27, Type (0, 0), BuildingBlock: KIFKEQ_clean_linker_1, # of connection points: 2
#     Edge 28, Type (0, 0), BuildingBlock: KIFKEQ_clean_linker_1, # of connection points: 2
#     Edge 29, Type (0, 0), BuildingBlock: KIFKEQ_clean_linker_1, # of connection points: 2
#     Edge 30, Type (0, 0), BuildingBlock: KIFKEQ_clean_linker_1, # of connection points: 2
#     Edge 31, Type (0, 0), BuildingBlock: KIFKEQ_clean_linker_1, # of connection points: 2
#     Edge 32, Type (0, 0), BuildingBlock: KIFKEQ_clean_linker_1, # of connection points: 2
#     Edge 33, Type (0, 0), BuildingBlock: KIFKEQ_clean_linker_1, # of connection points: 2
#     Edge 34, Type (0, 0), BuildingBlock: KIFKEQ_clean_linker_1, # of connection points: 2
#     Edge 35, Type (0, 0), BuildingBlock: KIFKEQ_clean_linker_1, # of connection points: 2
#     Edge 36, Type (0, 0), BuildingBlock: KIFKEQ_clean_linker_1, # of connection points: 2
#     Edge 37, Type (0, 0), BuildingBlock: KIFKEQ_clean_linker_1, # of connection points: 2
#     Edge 38, Type (0, 0), BuildingBlock: KIFKEQ_clean_linker_1, # of connection points: 2
#     Edge 39, Type (0, 0), BuildingBlock: KIFKEQ_clean_linker_1, # of connection points: 2
#     Edge 40, Type (0, 0), BuildingBlock: KIFKEQ_clean_linker_1, # of connection points: 2
#     Edge 41, Type (0, 0), BuildingBlock: KIFKEQ_clean_linker_1, # of connection points: 2
#     Edge 42, Type (0, 0), BuildingBlock: KIFKEQ_clean_linker_1, # of connection points: 2
#     Edge 43, Type (0, 0), BuildingBlock: KIFKEQ_clean_linker_1, # of connection points: 2
#     Edge 44, Type (0, 0), BuildingBlock: KIFKEQ_clean_linker_1, # of connection points: 2
#     Edge 45, Type (0, 0), BuildingBlock: KIFKEQ_clean_linker_1, # of connection points: 2
#     Edge 46, Type (0, 0), BuildingBlock: KIFKEQ_clean_linker_1, # of connection points: 2
#     Edge 47, Type (0, 0), BuildingBlock: KIFKEQ_clean_linker_1, # of connection points: 2
#     Edge 48, Type (0, 0), BuildingBlock: KIFKEQ_clean_linker_1, # of connection points: 2
#     Edge 49, Type (0, 0), BuildingBlock: KIFKEQ_clean_linker_1, # of connection points: 2
#     Edge 50, Type (0, 0), BuildingBlock: KIFKEQ_clean_linker_1, # of connection points: 2
#     Edge 51, Type (0, 0), BuildingBlock: KIFKEQ_clean_linker_1, # of connection points: 2
#     Edge 52, Type (0, 0), BuildingBlock: KIFKEQ_clean_linker_1, # of connection points: 2
#     Edge 53, Type (0, 0), BuildingBlock: KIFKEQ_clean_linker_1, # of connection points: 2
#     Edge 54, Type (0, 0), BuildingBlock: KIFKEQ_clean_linker_1, # of connection points: 2
#     Edge 55, Type (0, 0), BuildingBlock: KIFKEQ_clean_linker_1, # of connection points: 2
# Relax obj value: 0.071
# Max RMSD: 0.155
# Mean RMSD: 0.154
data_MOF--net-fnj--node1-XOMCOT_clean_sbu_0--edge1-KIFKEQ_clean_linker_1
_symmetry_space_group_name_H-M    P1
_symmetry_Int_Tables_number       1
_symmetry_cell_setting            triclinic
loop_
_symmetry_equiv_pos_as_xyz
'x, y, z'
_cell_length_a     78.256982
_cell_length_b     78.301561
_cell_length_c     17.847912
_cell_angle_alpha  90.894963
_cell_angle_beta   90.964956
_cell_angle_gamma 90.069008
loop_
_atom_site_label
_atom_site_type_symbol
_atom_site_fract_x
_atom_site_fract_y
_atom_site_fract_z
_atom_type_partial_charge
Co0 Co 0.37937 0.00679 0.03235 0.0
C1 C 0.37849 0.00803 0.86588 0.0
C2 C 0.36334 0.02788 0.91556 0.0
C3 C 0.36149 0.02865 0.83892 0.0
N4 N 0.37405 0.015 0.93261 0.0
N5 N 0.37094 0.01612 0.80753 0.0
H6 H 0.38649 0.99685 0.86029 0.0
H7 H 0.35687 0.0359 0.95577 0.0
C8 C 0.37698 0.03843 0.13515 0.0
O9 O 0.38945 0.03375 0.18052 0.0
N10 N 0.38454 0.99826 0.13194 0.0
C11 C 0.3979 0.98835 0.15159 0.0
C12 C 0.39745 0.98552 0.22737 0.0
C13 C 0.37577 1.00077 0.19586 0.0
N14 N 0.38364 0.9935 0.2555 0.0
C15 C 0.41282 0.99846 0.98361 0.0
C16 C 0.42958 0.02771 0.03225 0.0
C17 C 0.43921 0.01384 1.00564 0.0
C18 C 0.4305 0.99938 0.97853 0.0
C19 C 0.41172 0.02626 0.03628 0.0
N20 N 0.40363 0.01135 0.01603 0.0
H21 H 0.40672 0.98689 0.96379 0.0
H22 H 0.40467 0.03713 0.05616 0.0
H23 H 0.40753 0.98361 0.11407 0.0
H24 H 0.36415 0.00821 0.19902 0.0
O25 O 0.37823 0.9835 0.99478 0.0
O26 O 0.35631 0.99813 0.03855 0.0
O27 O 0.37394 0.03029 0.07373 0.0
C28 C 0.36199 0.98412 1.00805 0.0
H29 H 0.35363 0.0377 0.80879 0.0
H30 H 0.40699 0.97872 0.25973 0.0
H31 H 0.43579 0.03934 0.05191 0.0
H32 H 0.43733 0.98862 0.95467 0.0
Co33 Co 0.25691 0.13227 0.29538 0.0
C34 C 0.25718 0.13003 0.12822 0.0
C35 C 0.24004 0.11201 0.17642 0.0
C36 C 0.23932 0.10995 0.09981 0.0
N37 N 0.251 0.12478 0.19429 0.0
N38 N 0.2501 0.12126 0.06963 0.0
H39 H 0.26667 0.13994 0.12275 0.0
H40 H 0.23335 0.10437 0.2164 0.0
C41 C 0.22334 0.12922 0.38204 0.0
O42 O 0.22842 0.13997 0.43503 0.0
N43 N 0.26309 0.13951 0.39684 0.0
C44 C 0.26966 0.15477 0.41835 0.0
C45 C 0.27229 0.1549 0.49455 0.0
C46 C 0.26239 0.13035 0.46032 0.0
N47 N 0.26763 0.13959 0.52133 0.0
C48 C 0.2648 0.16491 0.23556 0.0
C49 C 0.23618 0.18241 0.28188 0.0
C50 C 0.24997 0.19168 0.25374 0.0
C51 C 0.26412 0.18258 0.22808 0.0
C52 C 0.23742 0.16457 0.28897 0.0
N53 N 0.25196 0.15607 0.26885 0.0
H54 H 0.27629 0.15856 0.2181 0.0
H55 H 0.22686 0.15794 0.31283 0.0
H56 H 0.2723 0.16527 0.38193 0.0
H57 H 0.2577 0.11736 0.46175 0.0
O58 O 0.28099 0.13174 0.2718 0.0
O59 O 0.26643 0.1098 0.31381 0.0
O60 O 0.23243 0.12668 0.32388 0.0
C61 C 0.28088 0.1158 0.29054 0.0
H62 H 0.23179 0.10054 0.06874 0.0
H63 H 0.27676 0.16574 0.5277 0.0
H64 H 0.22487 0.18894 0.30145 0.0
H65 H 0.27489 0.18915 0.20426 0.0
Co66 Co 0.12672 0.00741 0.5472 0.0
C67 C 0.12837 0.00831 0.71472 0.0
C68 C 0.14873 0.02224 0.66494 0.0
C69 C 0.15106 0.0228 0.74148 0.0
N70 N 0.13442 0.01332 0.64807 0.0
N71 N 0.13825 0.01402 0.77292 0.0
H72 H 0.11718 1.00045 0.7208 0.0
H73 H 0.15727 0.02746 0.62418 0.0
C74 C 0.13103 0.04113 0.4611 0.0
O75 O 0.11977 0.03699 0.40856 0.0
N76 N 0.11933 1.00115 0.44614 0.0
C77 C 0.10483 0.99273 0.4273 0.0
C78 C 0.10418 0.99027 0.35104 0.0
C79 C 0.12767 0.00305 0.38104 0.0
N80 N 0.11841 0.997 0.32144 0.0
C81 C 0.09384 1.0008 0.60697 0.0
C82 C 0.07671 0.02861 0.54996 0.0
C83 C 0.06719 0.01509 0.57904 0.0
C84 C 0.0761 1.00148 0.61084 0.0
C85 C 0.09464 0.02745 0.54736 0.0
N86 N 0.10299 0.01321 0.57226 0.0
H87 H 0.09998 0.9895 0.62789 0.0
H88 H 0.10149 0.03775 0.5227 0.0
H89 H 0.09536 0.98845 0.46606 0.0
H90 H 0.13993 0.00935 0.37745 0.0
O91 O 0.12622 0.98349 0.57259 0.0
O92 O 0.14881 0.99684 0.52963 0.0
O93 O 0.13337 0.03156 0.51794 0.0
C94 C 0.14216 0.98278 0.55409 0.0
H95 H 0.16173 0.0287 0.77129 0.0
H96 H 0.09394 0.98392 0.32014 0.0
H97 H 0.07033 0.03955 0.52585 0.0
H98 H 0.06936 0.99097 0.63585 0.0
Co99 Co 0.25667 0.88385 0.73864 0.0
C100 C 0.25233 0.88292 0.9053 0.0
C101 C 0.23772 0.90279 0.85409 0.0
C102 C 0.23621 0.90432 0.93067 0.0
N103 N 0.24753 0.88911 0.83766 0.0
N104 N 0.24549 0.89186 0.96295 0.0
H105 H 0.26122 0.87264 0.91318 0.0
H106 H 0.23269 0.91161 0.81328 0.0
C107 C 0.21862 0.88679 0.71191 0.0
O108 O 0.21562 0.87799 0.7724 0.0
N109 N 0.26587 0.87911 0.64048 0.0
C110 C 0.27861 0.8682 0.62438 0.0
C111 C 0.28029 0.86723 0.54768 0.0
C112 C 0.26004 0.88473 0.57358 0.0
N113 N 0.26855 0.87757 0.51564 0.0
C114 C 0.26253 0.85049 0.79509 0.0
C115 C 0.24008 0.83304 0.70078 0.0
C116 C 0.25058 0.82368 0.74991 0.0
C117 C 0.26163 0.83279 0.79842 0.0
C118 C 0.24112 0.85094 0.70045 0.0
N119 N 0.25208 0.8595 0.74826 0.0
H120 H 0.27238 0.85679 0.82795 0.0
H121 H 0.23378 0.85773 0.65881 0.0
H122 H 0.28591 0.86112 0.66547 0.0
H123 H 0.24944 0.89344 0.56731 0.0
O124 O 0.2795 0.88462 0.78153 0.0
O125 O 0.26545 0.90683 0.73602 0.0
O126 O 0.23389 0.88887 0.68989 0.0
C127 C 0.27908 0.90094 0.76928 0.0
H128 H 0.22959 0.91444 0.96028 0.0
H129 H 0.28941 0.8594 0.51798 0.0
H130 H 0.23166 0.82661 0.66063 0.0
H131 H 0.26997 0.82632 0.83778 0.0
Co132 Co 0.6284 0.01021 1.01169 0.0
C133 C 0.62203 0.0081 0.17568 0.0
C134 C 0.63036 0.98408 0.13012 0.0
C135 C 0.62867 0.98249 0.20631 0.0
N136 N 0.6261 1.00013 0.11048 0.0
N137 N 0.62358 0.99763 0.23495 0.0
H138 H 0.61845 0.02141 0.18032 0.0
H139 H 0.63496 0.97423 0.09262 0.0
C140 C 0.62954 0.97482 0.92948 0.0
O141 O 0.61357 0.97435 0.9059 0.0
N142 N 0.63112 0.02016 0.9125 0.0
C143 C 0.63722 0.03579 0.89565 0.0
C144 C 0.63656 0.03778 0.81913 0.0
C145 C 0.62681 0.01298 0.8453 0.0
N146 N 0.63007 0.0234 0.78759 0.0
C147 C 0.59538 0.02139 0.96698 0.0
C148 C 0.5773 0.99324 1.01325 0.0
C149 C 0.56824 0.00756 0.98776 0.0
C150 C 0.57757 0.02164 0.96338 0.0
C151 C 0.59519 0.99349 0.01575 0.0
N152 N 0.60402 0.00746 0.99261 0.0
H153 H 0.60225 0.0328 0.95233 0.0
H154 H 0.60189 0.98261 0.03808 0.0
H155 H 0.64178 0.04532 0.93547 0.0
H156 H 0.62091 1.00064 0.83829 0.0
O157 O 0.62787 0.03283 0.05733 0.0
O158 O 0.65116 0.01705 0.0405 0.0
O159 O 0.63533 0.98741 0.96853 0.0
C160 C 0.64431 0.03095 0.067 0.0
H161 H 0.63182 0.97132 0.2387 0.0
H162 H 0.64076 0.04887 0.78899 0.0
H163 H 0.57063 0.98203 0.03237 0.0
H164 H 0.57119 0.03315 0.94505 0.0
Co165 Co 0.74677 0.88019 0.73266 0.0
C166 C 0.75126 0.87932 0.9 0.0
C167 C 0.76344 0.90078 0.85065 0.0
C168 C 0.76494 0.90242 0.92726 0.0
N169 N 0.75504 0.88618 0.83317 0.0
N170 N 0.75723 0.88893 0.95859 0.0
H171 H 0.74379 0.86795 0.90626 0.0
H172 H 0.76749 0.91007 0.81035 0.0
C173 C 0.7849 0.88476 0.71774 0.0
O174 O 0.78768 0.87486 0.77543 0.0
N175 N 0.73848 0.87478 0.63258 0.0
C176 C 0.72546 0.8642 0.61393 0.0
C177 C 0.72382 0.86346 0.53698 0.0
C178 C 0.74463 0.88031 0.56707 0.0
N179 N 0.73592 0.87355 0.50769 0.0
C180 C 0.74206 0.84648 0.78801 0.0
C181 C 0.76533 0.83006 0.69752 0.0
C182 C 0.75504 0.82023 0.74407 0.0
C183 C 0.74343 0.82874 0.79016 0.0
C184 C 0.76379 0.84795 0.69822 0.0
N185 N 0.75244 0.85603 0.74422 0.0
H186 H 0.73185 0.85237 0.81867 0.0
H187 H 0.77107 0.85514 0.65867 0.0
H188 H 0.71785 0.85731 0.6535 0.0
H189 H 0.75519 0.88915 0.56278 0.0
O190 O 0.72349 0.87983 0.76872 0.0
O191 O 0.73668 0.90264 0.72624 0.0
O192 O 0.76976 0.88662 0.69122 0.0
C193 C 0.72298 0.89606 0.75436 0.0
H194 H 0.77052 0.91323 0.95717 0.0
H195 H 0.7147 0.85577 0.50503 0.0
H196 H 0.77423 0.82397 0.65978 0.0
H197 H 0.73473 0.82168 0.82473 0.0
Co198 Co 0.8778 0.00893 0.51909 0.0
C199 C 0.8737 0.00663 0.3515 0.0
C200 C 0.88007 0.98253 0.39976 0.0
C201 C 0.87909 0.98046 0.32322 0.0
N202 N 0.87666 0.99893 0.41803 0.0
N203 N 0.87517 0.99563 0.29266 0.0
H204 H 0.87131 0.02013 0.34561 0.0
H205 H 0.88366 0.97274 0.43874 0.0
C206 C 0.87481 0.97226 0.58285 0.0
O207 O 0.89128 0.96927 0.58695 0.0
N208 N 0.87863 0.01877 0.61976 0.0
C209 C 0.8874 0.03287 0.64144 0.0
C210 C 0.88618 0.03492 0.71786 0.0
C211 C 0.87209 0.01248 0.68335 0.0
N212 N 0.87665 0.02204 0.74437 0.0
C213 C 0.91202 0.00745 0.46693 0.0
C214 C 0.92796 0.99965 0.60128 0.0
C215 C 0.9381 0.00376 0.53995 0.0
C216 C 0.92985 0.00739 0.47184 0.0
C217 C 0.91009 0.99965 0.59373 0.0
N218 N 0.90222 0.0035 0.52698 0.0
H219 H 0.90614 0.0117 0.41544 0.0
H220 H 0.90263 0.99711 0.64268 0.0
H221 H 0.89483 0.04072 0.60475 0.0
H222 H 0.86455 1.00093 0.68535 0.0
O223 O 0.88017 0.03165 0.47872 0.0
O224 O 0.85557 0.0191 0.50411 0.0
O225 O 0.86902 0.98647 0.5589 0.0
C226 C 0.86356 0.03257 0.48095 0.0
H227 H 0.88133 0.96866 0.29258 0.0
H228 H 0.89261 0.04464 0.75165 0.0
H229 H 0.93378 0.99676 0.65508 0.0
H230 H 0.93708 0.01109 0.42346 0.0
Co231 Co 0.75222 0.13338 0.29124 0.0
C232 C 0.75602 0.13371 0.1245 0.0
C233 C 0.768 0.11205 0.17493 0.0
C234 C 0.7695 0.11054 0.0984 0.0
N235 N 0.7598 0.12673 0.19162 0.0
N236 N 0.7619 0.12415 0.0667 0.0
H237 H 0.7488 0.14528 0.11728 0.0
H238 H 0.7722 0.10281 0.21571 0.0
C239 C 0.79052 0.12975 0.30476 0.0
O240 O 0.79255 0.13685 0.23928 0.0
N241 N 0.74451 0.13959 0.39018 0.0
C242 C 0.73227 0.15103 0.40683 0.0
C243 C 0.73108 0.15236 0.48357 0.0
C244 C 0.7505 0.13397 0.45672 0.0
N245 N 0.74257 0.14166 0.51494 0.0
C246 C 0.74408 0.16601 0.23179 0.0
C247 C 0.77009 0.18438 0.30155 0.0
C248 C 0.75773 0.1932 0.25921 0.0
C249 C 0.74465 0.18366 0.22402 0.0
C250 C 0.76895 0.16661 0.30851 0.0
N251 N 0.75621 0.15755 0.27259 0.0
H252 H 0.73338 0.15925 0.20666 0.0
H253 H 0.77792 0.16039 0.34545 0.0
H254 H 0.72481 0.15801 0.36602 0.0
H255 H 0.76066 0.12471 0.46238 0.0
O256 O 0.72869 0.13154 0.25633 0.0
O257 O 0.74402 0.11043 0.30394 0.0
O258 O 0.77579 0.12927 0.33429 0.0
C259 C 0.7297 0.11554 0.27416 0.0
H260 H 0.77511 0.09988 0.06837 0.0
H261 H 0.72232 0.16051 0.51382 0.0
H262 H 0.78039 0.19114 0.33037 0.0
H263 H 0.7344 0.1898 0.1931 0.0
Co264 Co 0.87931 0.50437 0.53885 0.0
C265 C 0.87803 0.5052 0.37224 0.0
C266 C 0.8625 0.52476 0.42176 0.0
C267 C 0.86053 0.52539 0.34515 0.0
N268 N 0.87353 0.51216 0.4389 0.0
N269 N 0.87023 0.51306 0.31389 0.0
H270 H 0.88627 0.4942 0.36666 0.0
H271 H 0.85593 0.53271 0.46193 0.0
C272 C 0.87668 0.53628 0.63995 0.0
O273 O 0.88898 0.53171 0.68645 0.0
N274 N 0.88493 0.49627 0.63862 0.0
C275 C 0.89867 0.48689 0.65838 0.0
C276 C 0.89831 0.48406 0.73417 0.0
C277 C 0.87607 0.49848 0.70247 0.0
N278 N 0.8842 0.4915 0.76214 0.0
C279 C 0.91246 0.49618 0.48606 0.0
C280 C 0.92957 0.52515 0.53567 0.0
C281 C 0.939 0.51141 0.5065 0.0
C282 C 0.93009 0.49708 0.47915 0.0
C283 C 0.91174 0.52372 0.5416 0.0
N284 N 0.90347 0.50898 0.52035 0.0
H285 H 0.90622 0.48471 0.46599 0.0
H286 H 0.90486 0.53446 0.56385 0.0
H287 H 0.90847 0.48252 0.6209 0.0
H288 H 0.86418 0.50549 0.70549 0.0
O289 O 0.87817 0.48092 0.50325 0.0
O290 O 0.85634 0.49562 0.54745 0.0
O291 O 0.87389 0.52802 0.57858 0.0
C292 C 0.86198 0.48151 0.51768 0.0
H293 H 0.85246 0.53424 0.31493 0.0
H294 H 0.90808 0.47761 0.76662 0.0
H295 H 0.93593 0.53666 0.55586 0.0
H296 H 0.93675 0.48642 0.45361 0.0
Co297 Co 0.7567 0.63129 0.79279 0.0
C298 C 0.75666 0.62936 0.62596 0.0
C299 C 0.74001 0.61086 0.67403 0.0
C300 C 0.7396 0.60863 0.59747 0.0
N301 N 0.75059 0.62393 0.69189 0.0
N302 N 0.75009 0.62023 0.56715 0.0
H303 H 0.76611 0.63934 0.6212 0.0
H304 H 0.73334 0.60319 0.71402 0.0
C305 C 0.72325 0.62901 0.88003 0.0
O306 O 0.72821 0.64059 0.92981 0.0
N307 N 0.7631 0.63837 0.89413 0.0
C308 C 0.77096 0.65305 0.91524 0.0
C309 C 0.77355 0.65309 0.99156 0.0
C310 C 0.76154 0.62944 0.95788 0.0
N311 N 0.76752 0.63831 0.01853 0.0
C312 C 0.76486 0.66415 0.73553 0.0
C313 C 0.73504 0.68097 0.77035 0.0
C314 C 0.74877 0.69052 0.74307 0.0
C315 C 0.76367 0.68168 0.72416 0.0
C316 C 0.73677 0.66329 0.78103 0.0
N317 N 0.75183 0.65513 0.76644 0.0
H318 H 0.77678 0.65807 0.7222 0.0
H319 H 0.72597 0.65645 0.80166 0.0
H320 H 0.77459 0.66316 0.87835 0.0
H321 H 0.75579 0.61687 0.95986 0.0
O322 O 0.78075 0.63056 0.76825 0.0
O323 O 0.7661 0.60874 0.81084 0.0
O324 O 0.73232 0.62576 0.82246 0.0
C325 C 0.78056 0.61463 0.78714 0.0
H326 H 0.73211 0.59916 0.56667 0.0
H327 H 0.779 0.66347 0.02486 0.0
H328 H 0.72305 0.68709 0.78385 0.0
H329 H 0.77475 0.68831 0.70359 0.0
Co330 Co 0.62758 0.50426 0.02015 0.0
C331 C 0.62722 0.50851 0.18766 0.0
C332 C 0.6493 0.5195 0.13778 0.0
C333 C 0.65115 0.52086 0.21435 0.0
N334 N 0.63422 0.51191 0.12069 0.0
N335 N 0.63728 0.51391 0.24567 0.0
H336 H 0.61559 0.50139 0.19477 0.0
H337 H 0.65863 0.52324 0.09712 0.0
C338 C 0.63301 0.54227 1.00942 0.0
O339 O 0.62391 0.54451 0.07001 0.0
N340 N 0.62145 0.49653 0.91995 0.0
C341 C 0.61036 0.48395 0.90166 0.0
C342 C 0.60912 0.48262 0.8248 0.0
C343 C 0.62682 0.50271 0.85422 0.0
N344 N 0.61943 0.49447 0.7947 0.0
C345 C 0.59397 0.49949 0.07538 0.0
C346 C 0.57766 0.52384 0.9899 0.0
C347 C 0.56778 0.51236 0.03047 0.0
C348 C 0.57618 0.5003 0.07446 0.0
C349 C 0.59558 0.52243 0.99142 0.0
N350 N 0.60359 0.51041 0.03436 0.0
H351 H 0.59984 0.48919 0.10554 0.0
H352 H 0.60279 0.53028 0.95413 0.0
H353 H 0.60356 0.47632 0.94146 0.0
H354 H 0.63574 0.51318 0.85029 0.0
O355 O 0.62665 0.48095 0.05454 0.0
O356 O 0.64975 0.49341 1.01125 0.0
O357 O 0.63434 0.52734 0.9799 0.0
C358 C 0.64276 0.47987 0.03911 0.0
H359 H 0.66204 0.52624 0.2446 0.0
H360 H 0.60127 0.47347 0.79391 0.0
H361 H 0.57157 0.53311 0.95383 0.0
H362 H 0.569 0.49107 0.1059 0.0
Co363 Co 0.75606 0.38205 0.24763 0.0
C364 C 0.75237 0.38193 0.41465 0.0
C365 C 0.73565 0.39987 0.36215 0.0
C366 C 0.7342 0.40165 0.43861 0.0
N367 N 0.74668 0.38712 0.34652 0.0
N368 N 0.74478 0.39038 0.47188 0.0
H369 H 0.76284 0.37324 0.4229 0.0
H370 H 0.72966 0.40799 0.32094 0.0
C371 C 0.71811 0.38469 0.2157 0.0
O372 O 0.71471 0.37528 0.27395 0.0
N373 N 0.76549 0.37755 0.14968 0.0
C374 C 0.77753 0.36594 0.13261 0.0
C375 C 0.77934 0.36538 0.05592 0.0
C376 C 0.76023 0.38399 0.08343 0.0
N377 N 0.76839 0.37669 0.02477 0.0
C378 C 0.76011 0.34841 0.30532 0.0
C379 C 0.73924 0.33176 0.2014 0.0
C380 C 0.74827 0.32214 0.2545 0.0
C381 C 0.75865 0.3307 0.30729 0.0
C382 C 0.74075 0.3496 0.20256 0.0
N383 N 0.75089 0.35778 0.25502 0.0
H384 H 0.76957 0.35438 0.34131 0.0
H385 H 0.73448 0.35668 0.15861 0.0
H386 H 0.78408 0.35799 0.17291 0.0
H387 H 0.75046 0.39367 0.07837 0.0
O388 O 0.77879 0.38222 0.29181 0.0
O389 O 0.76521 0.40484 0.2472 0.0
O390 O 0.73353 0.38752 0.1976 0.0
C391 C 0.77866 0.39861 0.28065 0.0
H392 H 0.7263 0.41093 0.46713 0.0
H393 H 0.78761 0.35676 0.02553 0.0
H394 H 0.7314 0.32552 0.15848 0.0
H395 H 0.76639 0.32368 0.34718 0.0
Co396 Co 0.12777 0.50992 0.48977 0.0
C397 C 0.12149 0.50756 0.65383 0.0
C398 C 0.13044 0.48379 0.60811 0.0
C399 C 0.12884 0.48215 0.68434 0.0
N400 N 0.12573 0.49972 0.58853 0.0
N401 N 0.12338 0.49714 0.71307 0.0
H402 H 0.11756 0.52077 0.65858 0.0
H403 H 0.13527 0.47407 0.57053 0.0
C404 C 0.13041 0.47467 0.40734 0.0
O405 O 0.11446 0.47355 0.38385 0.0
N406 N 0.13023 0.51999 0.39069 0.0
C407 C 0.13597 0.53575 0.37389 0.0
C408 C 0.13529 0.53772 0.29735 0.0
C409 C 0.12611 0.51271 0.32348 0.0
N410 N 0.12915 0.52319 0.26577 0.0
C411 C 0.09443 0.51996 0.44493 0.0
C412 C 0.07725 0.49137 0.49242 0.0
C413 C 0.06774 0.5055 0.46802 0.0
C414 C 0.07662 0.51979 0.44274 0.0
C415 C 0.09514 0.49205 0.4935 0.0
N416 N 0.10352 0.50627 0.47013 0.0
H417 H 0.10095 0.53156 0.43002 0.0
H418 H 0.10219 0.48135 0.51541 0.0
H419 H 0.14032 0.54537 0.41377 0.0
H420 H 0.12051 0.50022 0.31647 0.0
O421 O 0.12628 0.53248 0.53545 0.0
O422 O 0.1502 0.51763 0.51931 0.0
O423 O 0.13566 0.48744 0.44667 0.0
C424 C 0.14275 0.53122 0.5458 0.0
H425 H 0.13232 0.47106 0.71667 0.0
H426 H 0.13926 0.5489 0.26721 0.0
H427 H 0.07094 0.48001 0.51211 0.0
H428 H 0.0699 0.53117 0.42515 0.0
Co429 Co 0.2501 0.38152 0.2243 0.0
C430 C 0.24927 0.38554 0.39163 0.0
C431 C 0.2731 0.39385 0.3472 0.0
C432 C 0.27382 0.39578 0.42376 0.0
N433 N 0.25775 0.38726 0.32649 0.0
N434 N 0.2589 0.39047 0.45198 0.0
H435 H 0.23642 0.38057 0.39517 0.0
H436 H 0.28329 0.39711 0.3101 0.0
C437 C 0.28263 0.38649 0.12896 0.0
O438 O 0.27752 0.37665 0.07273 0.0
N439 N 0.24222 0.3759 0.12318 0.0
C440 C 0.23389 0.36154 0.10151 0.0
C441 C 0.23063 0.36211 0.02564 0.0
C442 C 0.24326 0.38535 0.06065 0.0
N443 N 0.23667 0.37701 0.99961 0.0
C444 C 0.24531 0.34906 0.29057 0.0
C445 C 0.26766 0.33038 0.20413 0.0
C446 C 0.2565 0.32156 0.25092 0.0
C447 C 0.24569 0.33132 0.2965 0.0
C448 C 0.26705 0.34829 0.2008 0.0
N449 N 0.2555 0.35742 0.24169 0.0
H450 H 0.23607 0.35597 0.32316 0.0
H451 H 0.27534 0.35449 0.1627 0.0
H452 H 0.23064 0.35118 0.138 0.0
H453 H 0.24924 0.39781 0.05961 0.0
O454 O 0.22648 0.38128 0.25534 0.0
O455 O 0.24022 0.40406 0.21587 0.0
O456 O 0.27385 0.38789 0.18872 0.0
C457 C 0.2262 0.39751 0.24114 0.0
H458 H 0.28456 0.40084 0.45605 0.0
H459 H 0.22491 0.35196 0.99186 0.0
H460 H 0.2763 0.32354 0.16772 0.0
H461 H 0.2372 0.32531 0.33545 0.0
Co462 Co 0.37801 0.51178 1.00539 0.0
C463 C 0.37784 0.50803 0.83728 0.0
C464 C 0.35616 0.49645 0.88758 0.0
C465 C 0.35431 0.49495 0.81094 0.0
N466 N 0.37108 0.5044 0.90448 0.0
N467 N 0.36793 0.50232 0.77937 0.0
H468 H 0.38948 0.51502 0.82973 0.0
H469 H 0.34697 0.49247 0.92839 0.0
C470 C 0.37344 0.47384 1.01233 0.0
O471 O 0.38239 0.47247 0.9509 0.0
N472 N 0.38429 0.51926 0.10571 0.0
C473 C 0.39625 0.531 0.1246 0.0
C474 C 0.39748 0.53211 0.20155 0.0
C475 C 0.3783 0.51347 0.17108 0.0
N476 N 0.38623 0.52107 0.23077 0.0
C477 C 0.41135 0.5164 0.94617 0.0
C478 C 0.42831 0.49383 0.03821 0.0
C479 C 0.43803 0.50475 0.99364 0.0
C480 C 0.42913 0.51566 0.94526 0.0
C481 C 0.41035 0.49461 0.03572 0.0
N482 N 0.40201 0.50586 0.98999 0.0
H483 H 0.40529 0.52649 0.91535 0.0
H484 H 0.40331 0.48712 0.07501 0.0
H485 H 0.40369 0.53809 0.08514 0.0
H486 H 0.36864 0.50365 0.17484 0.0
O487 O 0.37872 0.53515 0.97178 0.0
O488 O 0.35582 0.52245 0.01654 0.0
O489 O 0.37175 0.48844 0.04457 0.0
C490 C 0.36267 0.53606 0.9886 0.0
H491 H 0.34341 0.48954 0.78087 0.0
H492 H 0.40598 0.5405 0.23341 0.0
H493 H 0.43445 0.48543 0.07798 0.0
H494 H 0.4358 0.52424 0.90883 0.0
Co495 Co 0.24579 0.63466 0.80402 0.0
C496 C 0.2501 0.63587 0.63804 0.0
C497 C 0.2634 0.61486 0.68754 0.0
C498 C 0.26499 0.61366 0.61095 0.0
N499 N 0.25433 0.62898 0.70488 0.0
N500 N 0.25655 0.62684 0.57976 0.0
H501 H 0.242 0.64688 0.63149 0.0
H502 H 0.26797 0.60566 0.72775 0.0
C503 C 0.28408 0.63078 0.82649 0.0
O504 O 0.28747 0.63883 0.76443 0.0
N505 N 0.23716 0.64001 0.90253 0.0
C506 C 0.2243 0.65079 0.91856 0.0
C507 C 0.22285 0.65204 0.99527 0.0
C508 C 0.24329 0.63473 0.96947 0.0
N509 N 0.23483 0.64198 0.02732 0.0
C510 C 0.23774 0.66772 0.74908 0.0
C511 C 0.26391 0.68559 0.82049 0.0
C512 C 0.25162 0.69455 0.77885 0.0
C513 C 0.23846 0.6854 0.74286 0.0
C514 C 0.26254 0.6678 0.82653 0.0
N515 N 0.24976 0.659 0.78962 0.0
H516 H 0.22712 0.66114 0.72251 0.0
H517 H 0.27139 0.66139 0.86334 0.0
H518 H 0.21666 0.65748 0.87739 0.0
H519 H 0.254 0.62614 0.97581 0.0
O520 O 0.22259 0.63284 0.76459 0.0
O521 O 0.23776 0.61155 0.81166 0.0
O522 O 0.26886 0.63021 0.85082 0.0
C523 C 0.22367 0.6167 0.77995 0.0
H524 H 0.27112 0.60337 0.58048 0.0
H525 H 0.21365 0.65977 0.02502 0.0
H526 H 0.27405 0.69234 0.85057 0.0
H527 H 0.22865 0.6919 0.71066 0.0
H528 H 0.34721 0.02255 0.69881 0.0
H529 H 0.39694 1.0001 0.736 0.0
H530 H 0.34918 0.01634 0.56534 0.0
H531 H 0.39897 0.99392 0.60198 0.0
H532 H 0.39098 0.97155 0.36736 0.0
H533 H 0.38728 0.97635 0.50138 0.0
H534 H 0.36434 0.02538 0.45659 0.0
H535 H 0.36796 0.02048 0.32252 0.0
C536 C 0.35866 0.01641 0.67855 0.0
C537 C 0.37198 0.01195 0.72846 0.0
C538 C 0.35978 0.01284 0.60175 0.0
C539 C 0.37426 0.00468 0.5725 0.0
C540 C 0.38751 1.00001 0.62249 0.0
C541 C 0.38637 0.00357 0.69948 0.0
C542 C 0.3851 0.98333 0.38611 0.0
C543 C 0.37981 0.99564 0.33404 0.0
C544 C 0.38304 0.98612 0.46306 0.0
C545 C 0.37565 1.00132 0.49016 0.0
C546 C 0.36991 0.01343 0.4379 0.0
C547 C 0.37194 0.01062 0.36083 0.0
H548 H 0.22733 0.11778 0.95534 0.0
H549 H 0.28024 0.12909 1.00616 0.0
H550 H 0.23257 0.12099 0.82228 0.0
H551 H 0.28582 0.13166 0.87262 0.0
H552 H 0.28518 0.1542 0.63837 0.0
H553 H 0.28121 0.14933 0.77044 0.0
H554 H 0.24517 0.10896 0.71578 0.0
H555 H 0.24822 0.11473 0.58321 0.0
C556 C 0.24016 0.12075 0.93774 0.0
C557 C 0.25337 0.12323 0.99104 0.0
C558 C 0.24322 0.12249 0.86133 0.0
C559 C 0.25966 0.12651 0.83605 0.0
C560 C 0.27292 0.12884 0.88969 0.0
C561 C 0.26977 0.12735 0.96631 0.0
C562 C 0.2763 0.14436 0.65417 0.0
C563 C 0.26682 0.13508 0.5995 0.0
C564 C 0.2742 0.14137 0.73041 0.0
C565 C 0.26275 0.12882 0.75444 0.0
C566 C 0.25384 0.11899 0.69971 0.0
C567 C 0.25579 0.12213 0.62328 0.0
H568 H 0.14912 0.00368 0.25737 0.0
H569 H 0.09573 0.99443 0.20451 0.0
H570 H 0.15458 0.00735 0.12426 0.0
H571 H 0.10131 0.9978 0.07274 0.0
H572 H 0.12038 0.98826 0.83614 0.0
H573 H 0.11635 0.9835 0.96911 0.0
H574 H 0.1472 0.02788 0.02321 0.0
H575 H 0.15107 0.03284 0.89025 0.0
C576 C 0.13854 0.00241 0.21788 0.0
C577 C 0.12198 0.99863 0.24251 0.0
C578 C 0.14169 0.00451 0.14147 0.0
C579 C 0.12839 0.00277 0.08788 0.0
C580 C 0.11191 0.9989 0.11236 0.0
C581 C 0.10873 0.99692 0.18843 0.0
C582 C 0.1262 0.99712 0.87606 0.0
C583 C 0.13601 0.011 0.8519 0.0
C584 C 0.12393 0.99434 0.95247 0.0
C585 C 0.13146 0.00531 1.00677 0.0
C586 C 0.14144 0.01905 0.98285 0.0
C587 C 0.14364 0.02189 0.90643 0.0
H588 H 0.25354 0.90471 0.44755 0.0
H589 H 0.27572 0.8552 0.40255 0.0
H590 H 0.24784 0.90816 0.31389 0.0
H591 H 0.26998 0.85861 0.26937 0.0
H592 H 0.27357 0.8779 0.02982 0.0
H593 H 0.27906 0.87459 0.16336 0.0
H594 H 0.23019 0.89752 0.21113 0.0
H595 H 0.22473 0.90089 0.07722 0.0
C596 C 0.2571 0.8945 0.40939 0.0
C597 C 0.26518 0.87971 0.43627 0.0
C598 C 0.25381 0.89647 0.33255 0.0
C599 C 0.25848 0.88369 0.28047 0.0
C600 C 0.26649 0.86887 0.30745 0.0
C601 C 0.26979 0.86692 0.38415 0.0
C602 C 0.26388 0.88206 0.06854 0.0
C603 C 0.24866 0.88962 0.04235 0.0
C604 C 0.26705 0.88018 0.14543 0.0
C605 C 0.25508 0.88576 0.19841 0.0
C606 C 0.23983 0.8933 0.17221 0.0
C607 C 0.23668 0.89521 0.09528 0.0
H608 H 0.63312 0.99279 0.71663 0.0
H609 H 0.62155 0.04584 0.6794 0.0
H610 H 0.63048 0.98691 0.58252 0.0
H611 H 0.61822 0.03999 0.54538 0.0
H612 H 0.63286 0.02746 0.30284 0.0
H613 H 0.63357 0.03382 0.43703 0.0
H614 H 0.61201 0.98406 0.47909 0.0
H615 H 0.61202 0.97761 0.34496 0.0
C616 C 0.62972 0.00314 0.67975 0.0
C617 C 0.6276 0.01979 0.70857 0.0
C618 C 0.62813 0.99979 0.60266 0.0
C619 C 0.62412 0.01296 0.55234 0.0
C620 C 0.62166 0.02955 0.58173 0.0
C621 C 0.62349 0.03294 0.65872 0.0
C622 C 0.62806 0.01801 0.34085 0.0
C623 C 0.6224 1.00203 0.31348 0.0
C624 C 0.62844 0.02163 0.41799 0.0
C625 C 0.62293 0.00944 0.46968 0.0
C626 C 0.61674 0.99365 0.44163 0.0
C627 C 0.61661 0.98996 0.36464 0.0
H628 H 0.76651 0.87917 0.44374 0.0
H629 H 0.71265 0.87346 0.39399 0.0
H630 H 0.77209 0.88237 0.3107 0.0
H631 H 0.71804 0.87717 0.26121 0.0
H632 H 0.73425 0.86756 0.02304 0.0
H633 H 0.72974 0.86352 0.15539 0.0
H634 H 0.76894 0.90089 0.20854 0.0
H635 H 0.77429 0.90412 0.07619 0.0
C636 C 0.75584 0.87883 0.40436 0.0
C637 C 0.73915 0.87603 0.42931 0.0
C638 C 0.75901 0.88069 0.32799 0.0
C639 C 0.74553 0.87999 0.27472 0.0
C640 C 0.7288 0.87741 0.30011 0.0
C641 C 0.72568 0.87536 0.37634 0.0
C642 C 0.74215 0.87477 0.06243 0.0
C643 C 0.75466 0.88624 0.03779 0.0
C644 C 0.73935 0.87261 0.1389 0.0
C645 C 0.74886 0.88196 0.19315 0.0
C646 C 0.76147 0.89331 0.16869 0.0
C647 C 0.76438 0.89535 0.09224 0.0
H648 H 0.89005 0.97825 0.17823 0.0
H649 H 0.85785 0.02168 0.22659 0.0
H650 H 0.88847 0.98457 0.04569 0.0
H651 H 0.85631 0.02806 0.09309 0.0
H652 H 0.87593 0.04466 0.86091 0.0
H653 H 0.87445 0.03821 0.99374 0.0
H654 H 0.86918 0.98454 0.93837 0.0
H655 H 0.87131 0.99095 0.80568 0.0
C656 C 0.88242 0.98902 0.1607 0.0
C657 C 0.87402 0.9994 0.2136 0.0
C658 C 0.88151 0.99265 0.08433 0.0
C659 C 0.87219 0.00677 0.05841 0.0
C660 C 0.86375 0.01717 0.11112 0.0
C661 C 0.86465 0.01353 0.18776 0.0
C662 C 0.87446 0.03148 0.87701 0.0
C663 C 0.8739 0.01833 0.82237 0.0
C664 C 0.87341 0.0278 0.95327 0.0
C665 C 0.87181 0.01084 0.97698 0.0
C666 C 0.87066 0.99773 0.92222 0.0
C667 C 0.87168 1.00142 0.84591 0.0
H668 H 0.73757 0.16468 0.62746 0.0
H669 H 0.75515 0.11336 0.5824 0.0
H670 H 0.74267 0.16072 0.76087 0.0
H671 H 0.76012 0.10929 0.7162 0.0
H672 H 0.78244 0.11361 0.95431 0.0
H673 H 0.77819 0.11802 0.82035 0.0
H674 H 0.73158 0.14559 0.86509 0.0
H675 H 0.73594 0.14131 0.99883 0.0
C676 C 0.74237 0.15248 0.64603 0.0
C677 C 0.74585 0.13931 0.59403 0.0
C678 C 0.7453 0.1502 0.72271 0.0
C679 C 0.75175 0.13466 0.74962 0.0
C680 C 0.75537 0.12152 0.69754 0.0
C681 C 0.7525 0.12383 0.62071 0.0
C682 C 0.77125 0.12055 0.93551 0.0
C683 C 0.75955 0.12712 0.9875 0.0
C684 C 0.76879 0.12305 0.85861 0.0
C685 C 0.75452 0.13215 0.83164 0.0
C686 C 0.74286 0.13877 0.88375 0.0
C687 C 0.74536 0.13632 0.96064 0.0
H688 H 0.84633 0.51872 0.20512 0.0
H689 H 0.89677 0.49793 0.24264 0.0
H690 H 0.84858 0.51269 0.07156 0.0
H691 H 0.89909 0.49195 0.10861 0.0
H692 H 0.89215 0.46966 0.87355 0.0
H693 H 0.8881 0.47411 1.00754 0.0
H694 H 0.86354 0.52239 0.96338 0.0
H695 H 0.8675 0.51783 0.8293 0.0
C696 C 0.85798 0.51298 0.1849 0.0
C697 C 0.87143 0.50892 0.23487 0.0
C698 C 0.85926 0.50951 0.10808 0.0
C699 C 0.87404 0.50188 0.07894 0.0
C700 C 0.88741 0.49761 0.12904 0.0
C701 C 0.88611 0.50106 0.20601 0.0
C702 C 0.88584 0.4812 0.89245 0.0
C703 C 0.8802 0.4934 0.84059 0.0
C704 C 0.88357 0.48379 0.96937 0.0
C705 C 0.87562 0.49869 0.99662 0.0
C706 C 0.86954 0.51067 0.94454 0.0
C707 C 0.87178 0.50805 0.86749 0.0
H708 H 0.76074 0.64889 0.49778 0.0
H709 H 0.74746 0.59595 0.45719 0.0
H710 H 0.76574 0.65232 0.3644 0.0
H711 H 0.75243 0.59938 0.32407 0.0
H712 H 0.74346 0.61848 0.0823 0.0
H713 H 0.73989 0.61354 0.21583 0.0
H714 H 0.78507 0.64365 0.26561 0.0
H715 H 0.7886 0.64858 0.13232 0.0
C716 C 0.75906 0.63793 0.46068 0.0
C717 C 0.75361 0.62217 0.48849 0.0
C718 C 0.76193 0.63989 0.38409 0.0
C719 C 0.75945 0.62612 0.33336 0.0
C720 C 0.75419 0.61032 0.36129 0.0
C721 C 0.75133 0.60837 0.4378 0.0
C722 C 0.75279 0.62379 0.12163 0.0
C723 C 0.76627 0.63399 0.09659 0.0
C724 C 0.75073 0.621 0.19826 0.0
C725 C 0.76212 0.62833 0.2516 0.0
C726 C 0.77587 0.63811 0.22626 0.0
C727 C 0.77792 0.6409 0.14979 0.0
H728 H 0.64491 0.51285 0.73114 0.0
H729 H 0.59931 0.48359 0.67699 0.0
H730 H 0.64868 0.51836 0.59913 0.0
H731 H 0.60372 0.48825 0.54496 0.0
H732 H 0.60696 0.51306 0.31645 0.0
H733 H 0.60236 0.50902 0.44998 0.0
H734 H 0.65692 0.50463 0.48647 0.0
H735 H 0.66141 0.50907 0.35371 0.0
C736 C 0.63566 0.50755 0.69157 0.0
C737 C 0.6218 0.49771 0.71581 0.0
C738 C 0.63797 0.51055 0.61531 0.0
C739 C 0.62656 0.5037 0.56092 0.0
C740 C 0.61267 0.49393 0.58504 0.0
C741 C 0.61028 0.49104 0.66127 0.0
C742 C 0.61793 0.51118 0.35313 0.0
C743 C 0.63454 0.51146 0.32452 0.0
C744 C 0.61532 0.50882 0.4297 0.0
C745 C 0.62927 0.50651 0.47943 0.0
C746 C 0.64588 0.50672 0.45044 0.0
C747 C 0.64847 0.50923 0.37412 0.0
H748 H 0.75914 0.3632 0.54253 0.0
H749 H 0.73836 0.41354 0.58383 0.0
H750 H 0.7651 0.36033 0.67611 0.0
H751 H 0.74411 0.41049 0.71724 0.0
H752 H 0.73999 0.39037 0.95831 0.0
H753 H 0.73444 0.39391 0.82486 0.0
H754 H 0.78384 0.37237 0.77608 0.0
H755 H 0.78956 0.36903 0.90949 0.0
C756 C 0.75594 0.37373 0.57965 0.0
C757 C 0.74825 0.38862 0.55152 0.0
C758 C 0.75936 0.37206 0.65652 0.0
C759 C 0.75509 0.38518 0.70758 0.0
C760 C 0.74736 0.40003 0.6797 0.0
C761 C 0.74403 0.40176 0.60282 0.0
C762 C 0.74981 0.38658 0.91956 0.0
C763 C 0.76525 0.37936 0.94548 0.0
C764 C 0.74659 0.38859 0.84272 0.0
C765 C 0.75866 0.38336 0.78955 0.0
C766 C 0.77413 0.37628 0.81533 0.0
C767 C 0.77741 0.37436 0.89213 0.0
H768 H 0.13195 0.52719 0.78081 0.0
H769 H 0.11241 0.47683 0.8233 0.0
H770 H 0.13253 0.5336 0.91496 0.0
H771 H 0.11226 0.48331 0.9574 0.0
H772 H 0.133 0.49266 0.19505 0.0
H773 H 0.13058 0.48667 0.06097 0.0
H774 H 0.11706 0.53942 0.02325 0.0
H775 H 0.12017 0.5454 0.15727 0.0
C776 C 0.12741 0.51763 0.8189 0.0
C777 C 0.12215 0.50151 0.79163 0.0
C778 C 0.12771 0.52128 0.89602 0.0
C779 C 0.12252 0.50896 0.94783 0.0
C780 C 0.11674 0.49301 0.91987 0.0
C781 C 0.11669 0.4893 0.8429 0.0
C782 C 0.12937 0.50291 0.15806 0.0
C783 C 0.12683 0.51951 0.18673 0.0
C784 C 0.12791 0.4995 0.08097 0.0
C785 C 0.12361 0.51254 0.03048 0.0
C786 C 0.12073 0.52909 0.05972 0.0
C787 C 0.12244 0.53254 0.13671 0.0
H788 H 0.26021 0.39787 0.93777 0.0
H789 H 0.21629 0.36632 0.88342 0.0
H790 H 0.26439 0.40278 0.80497 0.0
H791 H 0.22092 0.3706 0.75046 0.0
H792 H 0.2273 0.39149 0.51384 0.0
H793 H 0.22061 0.39023 0.64709 0.0
H794 H 0.27444 0.386 0.70118 0.0
H795 H 0.28104 0.3873 0.56923 0.0
C796 C 0.2513 0.39215 0.89774 0.0
C797 C 0.23799 0.38156 0.92164 0.0
C798 C 0.25383 0.39478 0.8213 0.0
C799 C 0.24315 0.38689 0.76666 0.0
C800 C 0.22937 0.37694 0.79071 0.0
C801 C 0.22683 0.37433 0.86714 0.0
C802 C 0.23768 0.39023 0.55422 0.0
C803 C 0.25472 0.38963 0.53052 0.0
C804 C 0.23386 0.38953 0.63068 0.0
C805 C 0.247 0.38818 0.68522 0.0
C806 C 0.264 0.38749 0.66122 0.0
C807 C 0.2678 0.3882 0.58516 0.0
H808 H 0.38536 0.52804 0.71468 0.0
H809 H 0.35659 0.48208 0.66426 0.0
H810 H 0.38972 0.5322 0.58161 0.0
H811 H 0.36102 0.48617 0.53071 0.0
H812 H 0.35734 0.50945 0.29537 0.0
H813 H 0.35289 0.50458 0.42835 0.0
H814 H 0.40489 0.52025 0.4772 0.0
H815 H 0.40927 0.52519 0.34474 0.0
C816 C 0.38014 0.51868 0.67531 0.0
C817 C 0.37068 0.50467 0.70036 0.0
C818 C 0.38263 0.52108 0.59881 0.0
C819 C 0.37577 0.5095 0.54523 0.0
C820 C 0.36629 0.49548 0.57026 0.0
C821 C 0.36377 0.49311 0.64687 0.0
C822 C 0.36785 0.51172 0.33441 0.0
C823 C 0.38363 0.51783 0.30924 0.0
C824 C 0.36531 0.50892 0.41073 0.0
C825 C 0.3785 0.5121 0.46371 0.0
C826 C 0.39433 0.51799 0.43829 0.0
C827 C 0.39685 0.52083 0.36216 0.0
H828 H 0.22827 0.66479 0.1392 0.0
H829 H 0.24928 0.61471 0.09608 0.0
H830 H 0.23387 0.66152 0.27266 0.0
H831 H 0.25477 0.61133 0.22992 0.0
H832 H 0.2774 0.6176 0.46643 0.0
H833 H 0.27246 0.62145 0.33255 0.0
H834 H 0.22434 0.64611 0.37899 0.0
H835 H 0.2294 0.64238 0.51273 0.0
C836 C 0.23392 0.65299 0.15817 0.0
C837 C 0.23825 0.63999 0.10661 0.0
C838 C 0.23714 0.6511 0.23495 0.0
C839 C 0.24474 0.63613 0.26247 0.0
C840 C 0.24914 0.62315 0.21085 0.0
C841 C 0.24596 0.62507 0.13395 0.0
C842 C 0.26574 0.62379 0.44805 0.0
C843 C 0.25382 0.62967 0.50058 0.0
C844 C 0.26287 0.62597 0.37116 0.0
C845 C 0.24796 0.63405 0.3446 0.0
C846 C 0.23609 0.64006 0.39723 0.0
C847 C 0.239 0.63793 0.47416 0.0
H848 H 0.37988 0.06243 0.24973 0.0
H849 H 0.34492 0.04318 0.07823 0.0
H850 H 0.35736 0.08167 0.29562 0.0
H851 H 0.32275 0.062 0.12452 0.0
H852 H 0.28208 0.08099 0.28588 0.0
H853 H 0.30643 0.06298 0.25296 0.0
H854 H 0.33835 0.10771 0.23795 0.0
H855 H 0.31391 0.12584 0.26966 0.0
C856 C 0.36753 0.06241 0.22141 0.0
C857 C 0.3643 0.05136 0.15984 0.0
C858 C 0.35467 0.07337 0.24773 0.0
C859 C 0.33829 0.07314 0.21401 0.0
C860 C 0.33519 0.06229 0.15205 0.0
C861 C 0.34803 0.05164 0.12504 0.0
C862 C 0.29434 0.08698 0.27667 0.0
C863 C 0.29606 0.10482 0.27994 0.0
C864 C 0.30824 0.07668 0.25757 0.0
C865 C 0.32423 0.08399 0.24263 0.0
C866 C 0.32619 0.10177 0.24955 0.0
C867 C 0.31219 0.11211 0.26737 0.0
H868 H 0.15436 0.05479 0.56185 0.0
H869 H 0.13317 0.06219 0.3398 0.0
H870 H 0.17492 0.0775 0.54199 0.0
H871 H 0.15346 0.08535 0.32066 0.0
H872 H 0.20692 0.10832 0.27882 0.0
H873 H 0.18334 0.08878 0.29928 0.0
H874 H 0.17972 0.10741 0.52754 0.0
H875 H 0.20377 0.12659 0.50765 0.0
C876 C 0.15391 0.0614 0.50906 0.0
C877 C 0.14213 0.05647 0.45225 0.0
C878 C 0.16567 0.07459 0.49783 0.0
C879 C 0.16601 0.0833 0.42945 0.0
C880 C 0.15381 0.07878 0.3736 0.0
C881 C 0.14204 0.06557 0.38486 0.0
C882 C 0.20109 0.10833 0.33333 0.0
C883 C 0.20747 0.11895 0.39174 0.0
C884 C 0.18739 0.09719 0.34495 0.0
C885 C 0.1796 0.09634 0.41534 0.0
C886 C 0.18555 0.10745 0.47294 0.0
C887 C 0.19927 0.1186 0.46129 0.0
H888 H 0.21902 0.90209 0.57562 0.0
H889 H 0.18772 0.89595 0.77043 0.0
H890 H 0.19952 0.92378 0.52877 0.0
H891 H 0.16834 0.91792 0.72424 0.0
H892 H 0.13081 0.95191 0.6017 0.0
H893 H 0.14769 0.92663 0.63043 0.0
H894 H 0.19341 0.95297 0.56374 0.0
H895 H 0.17644 0.97813 0.53348 0.0
C896 C 0.20784 0.9052 0.60803 0.0
C897 C 0.20502 0.89737 0.67714 0.0
C898 C 0.19672 0.91776 0.58139 0.0
C899 C 0.1825 0.92285 0.62325 0.0
C900 C 0.17911 0.91428 0.69022 0.0
C901 C 0.19022 0.90164 0.71678 0.0
C902 C 0.14445 0.95224 0.59238 0.0
C903 C 0.1523 0.96705 0.56544 0.0
C904 C 0.15414 0.93777 0.60931 0.0
C905 C 0.17193 0.93774 0.59976 0.0
C906 C 0.17971 0.95242 0.57086 0.0
C907 C 0.17 0.9669 0.55383 0.0
H908 H 0.37037 0.95414 0.93798 0.0
H909 H 0.32724 0.98347 0.01601 0.0
H910 H 0.35087 0.93345 0.87872 0.0
H911 H 0.30779 0.96269 0.95743 0.0
H912 H 0.2798 0.93566 0.76379 0.0
H913 H 0.30025 0.95493 0.82562 0.0
H914 H 0.32878 0.91165 0.90735 0.0
H915 H 0.30838 0.89231 0.84482 0.0
C916 C 0.35673 0.95602 0.9435 0.0
C917 C 0.35031 0.97046 0.98133 0.0
C918 C 0.34558 0.94416 0.90962 0.0
C919 C 0.32783 0.94658 0.91267 0.0
C920 C 0.32143 0.96068 0.953 0.0
C921 C 0.33256 0.97249 0.98711 0.0
C922 C 0.29053 0.93025 0.79421 0.0
C923 C 0.29248 0.91249 0.79953 0.0
C924 C 0.30214 0.94128 0.83024 0.0
C925 C 0.31597 0.93478 0.8721 0.0
C926 C 0.31826 0.91701 0.87532 0.0
C927 C 0.30659 0.90596 0.83953 0.0
H928 H 0.69164 0.88562 0.80306 0.0
H929 H 0.72047 0.93066 0.7478 0.0
H930 H 0.66778 0.90374 0.84281 0.0
H931 H 0.69677 0.94861 0.78757 0.0
H932 H 0.66347 0.9735 0.96463 0.0
H933 H 0.68475 0.95384 0.91752 0.0
H934 H 0.64575 0.92641 0.79111 0.0
H935 H 0.62406 0.9464 0.83809 0.0
C936 C 0.69282 0.89935 0.79876 0.0
C937 C 0.70798 0.90673 0.77282 0.0
C938 C 0.67914 0.90969 0.82114 0.0
C939 C 0.68049 0.92756 0.81883 0.0
C940 C 0.69545 0.93486 0.79076 0.0
C941 C 0.709 0.92457 0.76774 0.0
C942 C 0.65926 0.96329 0.92697 0.0
C943 C 0.64199 0.96167 0.90467 0.0
C944 C 0.67155 0.95206 0.89971 0.0
C945 C 0.66695 0.93876 0.84985 0.0
C946 C 0.64963 0.93661 0.82945 0.0
C947 C 0.63724 0.94804 0.85629 0.0
H948 H 0.81977 0.88075 0.73148 0.0
H949 H 0.78119 0.915 0.64633 0.0
H950 H 0.84203 0.90071 0.69464 0.0
H951 H 0.803 0.93539 0.61469 0.0
H952 H 0.84444 0.96574 0.51237 0.0
H953 H 0.82387 0.94347 0.53772 0.0
H954 H 0.85617 0.92588 0.72 0.0
H955 H 0.87736 0.94754 0.68986 0.0
C956 C 0.81605 0.89255 0.70485 0.0
C957 C 0.7987 0.89616 0.69117 0.0
C958 C 0.82882 0.90415 0.68439 0.0
C959 C 0.82454 0.91988 0.65129 0.0
C960 C 0.80709 0.92335 0.63785 0.0
C961 C 0.79443 0.91161 0.65654 0.0
C962 C 0.84714 0.95706 0.55774 0.0
C963 C 0.86246 0.95847 0.59944 0.0
C964 C 0.83524 0.94429 0.57294 0.0
C965 C 0.838 0.9328 0.63202 0.0
C966 C 0.85351 0.93418 0.67338 0.0
C967 C 0.86567 0.94672 0.65662 0.0
H968 H 0.87644 0.06143 0.41755 0.0
H969 H 0.82944 0.03876 0.49166 0.0
H970 H 0.86074 0.08705 0.38012 0.0
H971 H 0.81381 0.06416 0.45392 0.0
H972 H 0.79189 0.11652 0.44521 0.0
H973 H 0.8109 0.0943 0.49097 0.0
H974 H 0.83895 0.09587 0.28491 0.0
H975 H 0.81995 0.1183 0.23906 0.0
C976 C 0.86278 0.06192 0.42588 0.0
C977 C 0.85418 0.04808 0.45767 0.0
C978 C 0.85378 0.07656 0.40422 0.0
C979 C 0.83605 0.07772 0.4146 0.0
C980 C 0.82751 0.06384 0.44639 0.0
C981 C 0.83645 0.0492 0.4675 0.0
C982 C 0.80228 0.11238 0.41005 0.0
C983 C 0.80425 0.11907 0.33805 0.0
C984 C 0.81312 0.09954 0.43614 0.0
C985 C 0.82622 0.09306 0.39098 0.0
C986 C 0.82898 0.10058 0.32111 0.0
C987 C 0.8181 0.11347 0.29488 0.0
H988 H 0.69562 0.12204 0.25413 0.0
H989 H 0.73303 0.08164 0.2481 0.0
H990 H 0.67336 0.10176 0.21464 0.0
H991 H 0.71138 0.0617 0.20359 0.0
H992 H 0.66938 0.02486 0.16813 0.0
H993 H 0.68829 0.04546 0.23026 0.0
H994 H 0.66259 0.08638 0.11317 0.0
H995 H 0.64276 0.06563 0.05643 0.0
C996 C 0.69903 0.1088 0.24426 0.0
C997 C 0.71596 0.10334 0.25464 0.0
C998 C 0.68634 0.09719 0.22094 0.0
C999 C 0.69044 0.07997 0.20572 0.0
C1000 C 0.70748 0.07465 0.2166 0.0
C1001 C 0.72001 0.08613 0.2417 0.0
C1002 C 0.66774 0.03831 0.15655 0.0
C1003 C 0.65485 0.04374 0.10711 0.0
C1004 C 0.67865 0.05015 0.19157 0.0
C1005 C 0.67734 0.06767 0.17573 0.0
C1006 C 0.66398 0.07308 0.12765 0.0
C1007 C 0.65268 0.06122 0.09451 0.0
H1008 H 0.81361 0.62444 0.76474 0.0
H1009 H 0.78163 0.57981 0.78478 0.0
H1010 H 0.838 0.60609 0.73466 0.0
H1011 H 0.80592 0.56157 0.75358 0.0
H1012 H 0.84452 0.54035 0.58328 0.0
H1013 H 0.82231 0.55947 0.62682 0.0
H1014 H 0.85699 0.58063 0.7943 0.0
H1015 H 0.87955 0.56112 0.75101 0.0
C1016 C 0.81184 0.61072 0.76355 0.0
C1017 C 0.79569 0.60355 0.77679 0.0
C1018 C 0.82581 0.60025 0.74667 0.0
C1019 C 0.8238 0.58245 0.7414 0.0
C1020 C 0.80778 0.57528 0.75686 0.0
C1021 C 0.79391 0.58571 0.77498 0.0
C1022 C 0.84763 0.54921 0.62861 0.0
C1023 C 0.86394 0.54929 0.6631 0.0
C1024 C 0.83478 0.56003 0.65413 0.0
C1025 C 0.83788 0.5714 0.71429 0.0
C1026 C 0.85429 0.57195 0.74775 0.0
C1027 C 0.86717 0.56083 0.72294 0.0
H1028 H 0.70562 0.60841 0.77975 0.0
H1029 H 0.70574 0.62565 1.01065 0.0
H1030 H 0.68209 0.58901 0.8047 0.0
H1031 H 0.68258 0.60591 0.0364 0.0
H1032 H 0.63374 0.5758 0.05714 0.0
H1033 H 0.65353 0.59818 0.0208 0.0
H1034 H 0.67711 0.563 0.86493 0.0
H1035 H 0.65699 0.54092 0.89932 0.0
C1036 C 0.70059 0.60812 0.83586 0.0
C1037 C 0.70767 0.61858 0.89319 0.0
C1038 C 0.68712 0.59687 0.85039 0.0
C1039 C 0.68042 0.59565 0.92289 0.0
C1040 C 0.68716 0.60656 0.97963 0.0
C1041 C 0.70054 0.6179 0.96491 0.0
C1042 C 0.64299 0.57292 1.01428 0.0
C1043 C 0.64374 0.55649 0.98139 0.0
C1044 C 0.65448 0.58574 0.99385 0.0
C1045 C 0.66714 0.58249 0.94021 0.0
C1046 C 0.66748 0.56619 0.90566 0.0
C1047 C 0.65593 0.55342 0.92573 0.0
H1048 H 0.67706 0.47477 0.02333 0.0
H1049 H 0.63094 0.44975 0.09363 0.0
H1050 H 0.69366 0.44978 0.05895 0.0
H1051 H 0.64747 0.42455 0.12767 0.0
H1052 H 0.6871 0.39415 0.27191 0.0
H1053 H 0.66788 0.41595 0.22252 0.0
H1054 H 0.69948 0.4205 0.02759 0.0
H1055 H 0.71883 0.39905 0.07784 0.0
C1056 C 0.67044 0.46384 0.04547 0.0
C1057 C 0.6527 0.46427 0.05583 0.0
C1058 C 0.67993 0.44944 0.0655 0.0
C1059 C 0.67192 0.43509 0.09616 0.0
C1060 C 0.6541 0.43543 0.10509 0.0
C1061 C 0.64461 0.44985 0.08519 0.0
C1062 C 0.6897 0.39952 0.21771 0.0
C1063 C 0.70458 0.39501 0.17919 0.0
C1064 C 0.67869 0.41205 0.18933 0.0
C1065 C 0.68228 0.42023 0.1216 0.0
C1066 C 0.69655 0.41481 0.08081 0.0
C1067 C 0.70758 0.40241 0.10935 0.0
H1068 H 0.8075 0.38954 0.35901 0.0
H1069 H 0.78006 0.43327 0.27448 0.0
H1070 H 0.82805 0.40866 0.42234 0.0
H1071 H 0.80059 0.45226 0.33714 0.0
H1072 H 0.87026 0.45112 0.45075 0.0
H1073 H 0.85065 0.43025 0.39324 0.0
H1074 H 0.80772 0.46002 0.46974 0.0
H1075 H 0.82727 0.48094 0.52665 0.0
C1076 C 0.80598 0.40321 0.35318 0.0
C1077 C 0.79216 0.40992 0.31192 0.0
C1078 C 0.81773 0.41413 0.38945 0.0
C1079 C 0.81577 0.43193 0.38547 0.0
C1080 C 0.80222 0.43859 0.34241 0.0
C1081 C 0.79056 0.4277 0.30593 0.0
C1082 C 0.85663 0.45306 0.45624 0.0
C1083 C 0.85028 0.46771 0.49279 0.0
C1084 C 0.84542 0.44111 0.4234 0.0
C1085 C 0.82768 0.44365 0.42617 0.0
C1086 C 0.82135 0.45791 0.46558 0.0
C1087 C 0.83254 0.46981 0.49869 0.0
H1088 H 0.12599 0.44582 0.3176 0.0
H1089 H 0.16449 0.475 0.44045 0.0
H1090 H 0.14837 0.42652 0.27161 0.0
H1091 H 0.18645 0.45598 0.39456 0.0
H1092 H 0.22344 0.43214 0.23256 0.0
H1093 H 0.19933 0.44996 0.269 0.0
H1094 H 0.17047 0.40491 0.32302 0.0
H1095 H 0.19467 0.38698 0.28646 0.0
C1096 C 0.13913 0.44808 0.33512 0.0
C1097 C 0.14339 0.46205 0.3824 0.0
C1098 C 0.15192 0.43703 0.30883 0.0
C1099 C 0.16918 0.4399 0.32866 0.0
C1100 C 0.17332 0.45363 0.37707 0.0
C1101 C 0.16064 0.46449 0.40376 0.0
C1102 C 0.21192 0.426 0.2515 0.0
C1103 C 0.21102 0.40816 0.25713 0.0
C1104 C 0.19813 0.43621 0.27266 0.0
C1105 C 0.18306 0.42883 0.29946 0.0
C1106 C 0.18188 0.41095 0.30226 0.0
C1107 C 0.19577 0.40071 0.28168 0.0
H1108 H 0.28933 0.41715 0.19819 0.0
H1109 H 0.31024 0.38124 0.03873 0.0
H1110 H 0.31238 0.43696 0.1744 0.0
H1111 H 0.3341 0.40053 0.01811 0.0
H1112 H 0.36244 0.44661 0.9274 0.0
H1113 H 0.34188 0.42487 0.95979 0.0
H1114 H 0.34005 0.44577 0.18542 0.0
H1115 H 0.35981 0.46827 0.15058 0.0
C1116 C 0.29914 0.41329 0.15935 0.0
C1117 C 0.2979 0.39759 0.12032 0.0
C1118 C 0.31253 0.42468 0.1458 0.0
C1119 C 0.32533 0.4206 0.09384 0.0
C1120 C 0.32439 0.40451 0.05707 0.0
C1121 C 0.31075 0.39328 0.0694 0.0
C1122 C 0.35781 0.44644 0.98424 0.0
C1123 C 0.36278 0.45922 0.03633 0.0
C1124 C 0.34599 0.43383 1.0032 0.0
C1125 C 0.33901 0.43337 0.07549 0.0
C1126 C 0.34465 0.44579 0.1286 0.0
C1127 C 0.35619 0.45865 0.10899 0.0
H1128 H 0.27794 0.60413 0.9176 0.0
H1129 H 0.31912 0.63097 0.81235 0.0
H1130 H 0.29758 0.58268 0.96061 0.0
H1131 H 0.33939 0.60995 0.86072 0.0
H1132 H 0.36703 0.55842 0.87569 0.0
H1133 H 0.34913 0.58268 0.84316 0.0
H1134 H 0.31849 0.57363 0.03848 0.0
H1135 H 0.33564 0.54854 0.06643 0.0
C1136 C 0.29135 0.60574 0.90542 0.0
C1137 C 0.29693 0.61932 0.86129 0.0
C1138 C 0.30277 0.59338 0.93082 0.0
C1139 C 0.32027 0.59436 0.91466 0.0
C1140 C 0.326 0.60842 0.87318 0.0
C1141 C 0.31442 0.62064 0.84602 0.0
C1142 C 0.35645 0.56172 0.91157 0.0
C1143 C 0.35256 0.55154 0.97305 0.0
C1144 C 0.34623 0.57576 0.8934 0.0
C1145 C 0.33212 0.58026 0.93755 0.0
C1146 C 0.32883 0.57041 1.00135 0.0
C1147 C 0.33873 0.55605 0.01803 0.0
H1148 H 0.14075 0.56588 0.53551 0.0
H1149 H 0.16663 0.52539 0.65227 0.0
H1150 H 0.1594 0.58692 0.59822 0.0
H1151 H 0.18427 0.54621 0.71999 0.0
H1152 H 0.22801 0.58307 0.75108 0.0
H1153 H 0.2074 0.56296 0.69912 0.0
H1154 H 0.16845 0.60218 0.70378 0.0
H1155 H 0.18975 0.62271 0.75115 0.0
C1156 C 0.15026 0.56159 0.57582 0.0
C1157 C 0.15261 0.54413 0.58829 0.0
C1158 C 0.16086 0.5736 0.61236 0.0
C1159 C 0.17364 0.56833 0.66361 0.0
C1160 C 0.1751 0.5508 0.67902 0.0
C1161 C 0.16491 0.53883 0.64074 0.0
C1162 C 0.21499 0.58734 0.74171 0.0
C1163 C 0.21043 0.60439 0.75535 0.0
C1164 C 0.20306 0.57576 0.71229 0.0
C1165 C 0.18608 0.58079 0.69758 0.0
C1166 C 0.18143 0.59785 0.71314 0.0
C1167 C 0.19356 0.60959 0.74093 0.0
H1168 H 0.46119 0.03948 0.96555 0.0
H1169 H 0.46018 0.98818 0.05076 0.0
H1170 H 0.49249 0.03838 0.96326 0.0
H1171 H 0.49116 0.98688 0.0464 0.0
H1172 H 0.54755 0.99616 0.09862 0.0
H1173 H 0.5166 0.99863 0.10647 0.0
H1174 H 0.51494 0.02358 0.89235 0.0
H1175 H 0.54594 0.02109 0.88438 0.0
C1176 C 0.46765 0.02804 0.98415 0.0
C1177 C 0.45821 0.01388 1.00771 0.0
C1178 C 0.48554 0.02732 0.98213 0.0
C1179 C 0.49433 0.0125 1.00431 0.0
C1180 C 0.48485 0.99854 0.02952 0.0
C1181 C 0.46706 0.99923 0.03126 0.0
C1182 C 0.54058 1.00197 0.0527 0.0
C1183 C 0.54925 0.00835 0.99069 0.0
C1184 C 0.52283 0.00345 0.05736 0.0
C1185 C 0.51328 0.01135 1.00012 0.0
C1186 C 0.52193 0.0177 0.93801 0.0
C1187 C 0.5397 0.0162 0.93332 0.0
H1188 H 0.22809 0.30135 0.2679 0.0
H1189 H 0.28245 0.2981 0.23135 0.0
H1190 H 0.22633 0.27048 0.27112 0.0
H1191 H 0.28044 0.2671 0.22881 0.0
H1192 H 0.27558 0.21244 0.30544 0.0
H1193 H 0.27701 0.24345 0.30486 0.0
H1194 H 0.22675 0.24508 0.20073 0.0
H1195 H 0.22517 0.2139 0.20438 0.0
C1196 C 0.23973 0.2941 0.26071 0.0
C1197 C 0.25548 0.30243 0.2504 0.0
C1198 C 0.23864 0.27626 0.26118 0.0
C1199 C 0.25322 0.26609 0.25034 0.0
C1200 C 0.26894 0.27439 0.23873 0.0
C1201 C 0.27006 0.29227 0.23908 0.0
C1202 C 0.26484 0.21944 0.28231 0.0
C1203 C 0.2503 0.21071 0.25454 0.0
C1204 C 0.26569 0.23728 0.28149 0.0
C1205 C 0.25208 0.24697 0.25203 0.0
C1206 C 0.23743 0.23818 0.22481 0.0
C1207 C 0.2365 0.22028 0.22659 0.0
H1208 H 0.04339 0.04018 0.60906 0.0
H1209 H 0.04803 0.9879 0.53184 0.0
H1210 H 0.0121 0.03769 0.60012 0.0
H1211 H 0.01708 0.98534 0.52401 0.0
H1212 H 0.9621 0.99241 0.4412 0.0
H1213 H 0.99302 0.99613 0.44894 0.0
H1214 H 0.98815 0.02216 0.66255 0.0
H1215 H 0.95708 0.01869 0.65413 0.0
C1216 C 0.03775 0.02821 0.59 0.0
C1217 C 0.04819 0.0142 0.57178 0.0
C1218 C 0.01985 0.02672 0.58548 0.0
C1219 C 0.01207 0.01129 0.56149 0.0
C1220 C 0.02259 0.99744 0.54214 0.0
C1221 C 0.04037 0.99887 0.54732 0.0
C1222 C 0.9676 0.99895 0.48979 0.0
C1223 C 0.95708 0.00519 0.54714 0.0
C1224 C 0.98535 1.00101 0.49445 0.0
C1225 C 0.9931 0.00946 0.55636 0.0
C1226 C 0.9826 0.01573 0.61377 0.0
C1227 C 0.96481 0.01354 0.60941 0.0
H1228 H 0.27741 0.71494 0.73131 0.0
H1229 H 0.22625 0.71647 0.81692 0.0
H1230 H 0.277 0.74591 0.71749 0.0
H1231 H 0.22602 0.74748 0.80772 0.0
H1232 H 0.22368 0.80143 0.72475 0.0
H1233 H 0.22417 0.77036 0.72693 0.0
H1234 H 0.27825 0.77174 0.78083 0.0
H1235 H 0.27805 0.80247 0.77167 0.0
C1236 C 0.26619 0.72201 0.74826 0.0
C1237 C 0.25188 0.71341 0.77508 0.0
C1238 C 0.26592 0.73978 0.74069 0.0
C1239 C 0.25144 0.74937 0.76134 0.0
C1240 C 0.23724 0.74062 0.78947 0.0
C1241 C 0.23741 0.72286 0.79556 0.0
C1242 C 0.23573 0.79509 0.73569 0.0
C1243 C 0.25075 0.8046 0.74902 0.0
C1244 C 0.23598 0.77722 0.73817 0.0
C1245 C 0.25123 0.76838 0.75495 0.0
C1246 C 0.26627 0.77793 0.76696 0.0
C1247 C 0.26608 0.79571 0.76318 0.0
H1248 H 0.73319 0.71365 0.8374 0.0
H1249 H 0.76312 0.71087 0.6364 0.0
H1250 H 0.73445 0.74469 0.83459 0.0
H1251 H 0.76541 0.74178 0.63657 0.0
H1252 H 0.75452 0.79899 0.62048 0.0
H1253 H 0.75178 0.76794 0.61681 0.0
H1254 H 0.75343 0.76738 0.85903 0.0
H1255 H 0.75555 0.79842 0.86212 0.0
C1256 C 0.73995 0.7196 0.79224 0.0
C1257 C 0.74816 0.70959 0.73752 0.0
C1258 C 0.74094 0.73749 0.79134 0.0
C1259 C 0.75028 0.74591 0.73602 0.0
C1260 C 0.75802 0.7359 0.67996 0.0
C1261 C 0.75689 0.71805 0.68045 0.0
C1262 C 0.75451 0.79218 0.67283 0.0
C1263 C 0.75526 0.80118 0.74156 0.0
C1264 C 0.75292 0.77433 0.67087 0.0
C1265 C 0.75221 0.76498 0.73766 0.0
C1266 C 0.75346 0.77404 0.80635 0.0
C1267 C 0.75485 0.79187 0.80823 0.0
H1268 H 0.74792 0.21311 0.14061 0.0
H1269 H 0.76713 0.21663 0.36885 0.0
H1270 H 0.74444 0.24386 0.13884 0.0
H1271 H 0.76504 0.24754 0.36484 0.0
H1272 H 0.74244 0.30051 0.36931 0.0
H1273 H 0.74495 0.26948 0.36853 0.0
H1274 H 0.75793 0.27027 0.1339 0.0
H1275 H 0.75454 0.30124 0.13455 0.0
C1276 C 0.75154 0.22043 0.19036 0.0
C1277 C 0.75762 0.21224 0.25522 0.0
C1278 C 0.74977 0.23818 0.18893 0.0
C1279 C 0.7543 0.24833 0.2519 0.0
C1280 C 0.76102 0.24019 0.31577 0.0
C1281 C 0.76254 0.2224 0.31759 0.0
C1282 C 0.74562 0.29396 0.31748 0.0
C1283 C 0.7482 0.30321 0.25192 0.0
C1284 C 0.74727 0.27618 0.31708 0.0
C1285 C 0.75186 0.26725 0.25136 0.0
C1286 C 0.75415 0.27659 0.18539 0.0
C1287 C 0.75222 0.29435 0.18558 0.0
H1288 H 0.96066 0.53714 0.46478 0.0
H1289 H 0.96025 0.4856 0.54728 0.0
H1290 H 0.9919 0.53598 0.45728 0.0
H1291 H 0.99118 0.48425 0.53793 0.0
H1292 H 0.04805 0.4936 0.58139 0.0
H1293 H 0.01719 0.49588 0.59432 0.0
H1294 H 0.01359 0.5212 0.38138 0.0
H1295 H 0.04448 0.51885 0.3682 0.0
C1296 C 0.96724 0.52564 0.48173 0.0
C1297 C 0.95799 0.51143 0.50599 0.0
C1298 C 0.98509 0.52489 0.47673 0.0
C1299 C 0.99403 0.50998 0.4966 0.0
C1300 C 0.98475 0.49597 0.5227 0.0
C1301 C 0.96699 0.49669 0.52735 0.0
C1302 C 0.04067 0.49942 0.53674 0.0
C1303 C 0.04877 0.50597 0.47359 0.0
C1304 C 0.02297 0.50081 0.54435 0.0
C1305 C 0.01291 0.5088 0.48904 0.0
C1306 C 0.02098 0.51525 0.42565 0.0
C1307 C 0.03869 0.51384 0.41797 0.0
H1308 H 0.45858 0.53305 0.97922 0.0
H1309 H 0.46118 0.4791 0.02601 0.0
H1310 H 0.48934 0.53482 0.98385 0.0
H1311 H 0.49211 0.48126 0.03812 0.0
H1312 H 0.54826 0.48551 0.98306 0.0
H1313 H 0.51724 0.48368 0.97389 0.0
H1314 H 0.5136 0.53573 0.05717 0.0
H1315 H 0.54476 0.53769 0.06146 0.0
C1316 C 0.46565 0.52147 0.9903 0.0
C1317 C 0.45715 0.50581 1.0006 0.0
C1318 C 0.48347 0.5226 0.99466 0.0
C1319 C 0.49349 0.50821 1.01135 0.0
C1320 C 0.485 0.49261 0.02357 0.0
C1321 C 0.46712 0.4914 0.0178 0.0
C1322 C 0.54075 0.49657 0.99884 0.0
C1323 C 0.54887 0.51176 0.02277 0.0
C1324 C 0.52291 0.49549 0.99442 0.0
C1325 C 0.51264 0.50949 0.01527 0.0
C1326 C 0.5209 0.52473 0.0392 0.0
C1327 C 0.53879 0.5259 0.04211 0.0
loop_
_geom_bond_atom_site_label_1
_geom_bond_atom_site_label_2
_geom_bond_distance
_geom_bond_site_symmetry_2
_ccdc_geom_bond_type
Co0 N4 2.148 1_554 S
Co0 N10 2.128 1_545 S
Co0 N20 2.194 1_554 S
Co0 O25 2.351 1_544 S
Co0 O26 2.155 1_544 S
Co0 O27 2.096 . S
C1 N4 1.301 . S
C1 N5 1.328 . S
C1 H6 0.930 1_545 S
C2 C3 1.333 . S
C2 N4 1.317 . S
C2 H7 0.930 . S
C3 C2 1.333 . S
C3 N5 1.350 . S
C3 H29 0.931 . S
N4 Co0 2.148 1_556 S
N4 C1 1.301 . S
N4 C2 1.317 . S
N5 C1 1.328 . S
N5 C3 1.350 . S
H6 C1 0.930 1_565 S
H7 C2 0.930 . S
C8 O9 1.224 . S
C8 O27 1.247 . S
O9 C8 1.224 . S
N10 Co0 2.128 1_565 S
N10 C11 1.355 . S
N10 C13 1.311 1_565 S
C11 N10 1.355 . S
C11 C12 1.363 . S
C11 H23 0.929 . S
C12 C11 1.363 . S
C12 N14 1.375 . S
C12 H30 0.931 . S
C13 N10 1.311 1_545 S
C13 N14 1.347 1_545 S
C13 H24 0.929 . S
N14 C12 1.375 . S
N14 C13 1.347 1_565 S
C15 C18 1.365 . S
C15 N20 1.328 1_565 S
C15 H21 0.929 . S
C16 C17 1.362 . S
C16 C19 1.378 . S
C16 H31 0.929 . S
C17 C16 1.362 . S
C17 C18 1.366 1_544 S
C18 C15 1.365 . S
C18 C17 1.366 1_566 S
C18 H32 0.930 . S
C19 C16 1.378 . S
C19 N20 1.315 1_554 S
C19 H22 0.930 . S
N20 Co0 2.194 1_556 S
N20 C15 1.328 1_545 S
N20 C19 1.315 1_556 S
H21 C15 0.929 . S
H22 C19 0.930 . S
H23 C11 0.929 . S
H24 C13 0.929 . S
O25 Co0 2.351 1_566 S
O25 C28 1.244 . S
O26 Co0 2.155 1_566 S
O26 C28 1.240 . S
O27 Co0 2.096 . S
O27 C8 1.247 . S
C28 O25 1.244 . S
C28 O26 1.240 . S
H29 C3 0.931 . S
H30 C12 0.931 . S
H31 C16 0.929 . S
H32 C18 0.930 . S
Co33 N37 2.148 . S
Co33 N43 2.128 . S
Co33 N53 2.194 . S
Co33 O58 2.351 . S
Co33 O59 2.155 . S
Co33 O60 2.096 . S
C34 N37 1.301 . S
C34 N38 1.328 . S
C34 H39 0.930 . S
C35 C36 1.333 . S
C35 N37 1.317 . S
C35 H40 0.930 . S
C36 C35 1.333 . S
C36 N38 1.350 . S
C36 H62 0.931 . S
N37 Co33 2.148 . S
N37 C34 1.301 . S
N37 C35 1.317 . S
N38 C34 1.328 . S
N38 C36 1.350 . S
H39 C34 0.930 . S
H40 C35 0.930 . S
C41 O42 1.224 . S
C41 O60 1.247 . S
O42 C41 1.224 . S
N43 Co33 2.128 . S
N43 C44 1.355 . S
N43 C46 1.311 . S
C44 N43 1.355 . S
C44 C45 1.363 . S
C44 H56 0.929 . S
C45 C44 1.363 . S
C45 N47 1.375 . S
C45 H63 0.931 . S
C46 N43 1.311 . S
C46 N47 1.347 . S
C46 H57 0.929 . S
N47 C45 1.375 . S
N47 C46 1.347 . S
C48 C51 1.365 . S
C48 N53 1.328 . S
C48 H54 0.929 . S
C49 C50 1.362 . S
C49 C52 1.378 . S
C49 H64 0.929 . S
C50 C49 1.362 . S
C50 C51 1.366 . S
C51 C48 1.365 . S
C51 C50 1.366 . S
C51 H65 0.930 . S
C52 C49 1.378 . S
C52 N53 1.315 . S
C52 H55 0.930 . S
N53 Co33 2.194 . S
N53 C48 1.328 . S
N53 C52 1.315 . S
H54 C48 0.929 . S
H55 C52 0.930 . S
H56 C44 0.929 . S
H57 C46 0.929 . S
O58 Co33 2.351 . S
O58 C61 1.244 . S
O59 Co33 2.155 . S
O59 C61 1.240 . S
O60 Co33 2.096 . S
O60 C41 1.247 . S
C61 O58 1.244 . S
C61 O59 1.240 . S
H62 C36 0.931 . S
H63 C45 0.931 . S
H64 C49 0.929 . S
H65 C51 0.930 . S
Co66 N70 2.148 . S
Co66 N76 2.128 1_545 S
Co66 N86 2.194 . S
Co66 O91 2.351 1_545 S
Co66 O92 2.155 1_545 S
Co66 O93 2.096 . S
C67 N70 1.301 . S
C67 N71 1.328 . S
C67 H72 0.930 1_545 S
C68 C69 1.333 . S
C68 N70 1.317 . S
C68 H73 0.930 . S
C69 C68 1.333 . S
C69 N71 1.350 . S
C69 H95 0.931 . S
N70 Co66 2.148 . S
N70 C67 1.301 . S
N70 C68 1.317 . S
N71 C67 1.328 . S
N71 C69 1.350 . S
H72 C67 0.930 1_565 S
H73 C68 0.930 . S
C74 O75 1.224 . S
C74 O93 1.247 . S
O75 C74 1.224 . S
N76 Co66 2.128 1_565 S
N76 C77 1.355 . S
N76 C79 1.311 1_565 S
C77 N76 1.355 . S
C77 C78 1.363 . S
C77 H89 0.929 . S
C78 C77 1.363 . S
C78 N80 1.375 . S
C78 H96 0.931 . S
C79 N76 1.311 1_545 S
C79 N80 1.347 1_545 S
C79 H90 0.929 . S
N80 C78 1.375 . S
N80 C79 1.347 1_565 S
C81 C84 1.365 . S
C81 N86 1.328 1_565 S
C81 H87 0.929 . S
C82 C83 1.362 . S
C82 C85 1.378 . S
C82 H97 0.929 . S
C83 C82 1.362 . S
C83 C84 1.366 1_545 S
C84 C81 1.365 . S
C84 C83 1.366 1_565 S
C84 H98 0.930 . S
C85 C82 1.378 . S
C85 N86 1.315 . S
C85 H88 0.930 . S
N86 Co66 2.194 . S
N86 C81 1.328 1_545 S
N86 C85 1.315 . S
H87 C81 0.929 . S
H88 C85 0.930 . S
H89 C77 0.929 . S
H90 C79 0.929 . S
O91 Co66 2.351 1_565 S
O91 C94 1.244 . S
O92 Co66 2.155 1_565 S
O92 C94 1.240 . S
O93 Co66 2.096 . S
O93 C74 1.247 . S
C94 O91 1.244 . S
C94 O92 1.240 . S
H95 C69 0.931 . S
H96 C78 0.931 . S
H97 C82 0.929 . S
H98 C84 0.930 . S
Co99 N103 2.148 . S
Co99 N109 2.128 . S
Co99 N119 2.194 . S
Co99 O124 2.351 . S
Co99 O125 2.155 . S
Co99 O126 2.096 . S
C100 N103 1.301 . S
C100 N104 1.328 . S
C100 H105 0.930 . S
C101 C102 1.333 . S
C101 N103 1.317 . S
C101 H106 0.930 . S
C102 C101 1.333 . S
C102 N104 1.350 . S
C102 H128 0.931 . S
N103 Co99 2.148 . S
N103 C100 1.301 . S
N103 C101 1.317 . S
N104 C100 1.328 . S
N104 C102 1.350 . S
H105 C100 0.930 . S
H106 C101 0.930 . S
C107 O108 1.224 . S
C107 O126 1.247 . S
O108 C107 1.224 . S
N109 Co99 2.128 . S
N109 C110 1.355 . S
N109 C112 1.311 . S
C110 N109 1.355 . S
C110 C111 1.363 . S
C110 H122 0.929 . S
C111 C110 1.363 . S
C111 N113 1.375 . S
C111 H129 0.931 . S
C112 N109 1.311 . S
C112 N113 1.347 . S
C112 H123 0.929 . S
N113 C111 1.375 . S
N113 C112 1.347 . S
C114 C117 1.365 . S
C114 N119 1.328 . S
C114 H120 0.929 . S
C115 C116 1.362 . S
C115 C118 1.378 . S
C115 H130 0.929 . S
C116 C115 1.362 . S
C116 C117 1.366 . S
C117 C114 1.365 . S
C117 C116 1.366 . S
C117 H131 0.930 . S
C118 C115 1.378 . S
C118 N119 1.315 . S
C118 H121 0.930 . S
N119 Co99 2.194 . S
N119 C114 1.328 . S
N119 C118 1.315 . S
H120 C114 0.929 . S
H121 C118 0.930 . S
H122 C110 0.929 . S
H123 C112 0.929 . S
O124 Co99 2.351 . S
O124 C127 1.244 . S
O125 Co99 2.155 . S
O125 C127 1.240 . S
O126 Co99 2.096 . S
O126 C107 1.247 . S
C127 O124 1.244 . S
C127 O125 1.240 . S
H128 C102 0.931 . S
H129 C111 0.931 . S
H130 C115 0.929 . S
H131 C117 0.930 . S
Co132 N136 2.127 1_545 S
Co132 N142 2.128 1_554 S
Co132 N152 2.194 . S
Co132 O157 2.351 . S
Co132 O158 2.155 . S
Co132 O159 2.096 1_544 S
C133 N136 1.270 1_545 S
C133 N137 1.328 1_545 S
C133 H138 0.930 . S
C134 C135 1.333 . S
C134 N136 1.377 . S
C134 H139 0.930 . S
C135 C134 1.333 . S
C135 N137 1.350 . S
C135 H161 0.931 . S
N136 Co132 2.127 1_565 S
N136 C133 1.270 1_565 S
N136 C134 1.377 . S
N137 C133 1.328 1_565 S
N137 C135 1.350 . S
H138 C133 0.930 . S
H139 C134 0.930 . S
C140 O141 1.224 . S
C140 O159 1.247 . S
O141 C140 1.224 . S
N142 Co132 2.128 1_556 S
N142 C143 1.355 . S
N142 C145 1.311 . S
C143 N142 1.355 . S
C143 C144 1.363 . S
C143 H155 0.929 . S
C144 C143 1.363 . S
C144 N146 1.375 . S
C144 H162 0.931 . S
C145 N142 1.311 . S
C145 N146 1.347 . S
C145 H156 0.929 1_545 S
N146 C144 1.375 . S
N146 C145 1.347 . S
C147 C150 1.365 . S
C147 N152 1.328 . S
C147 H153 0.929 . S
C148 C149 1.362 1_566 S
C148 C151 1.378 . S
C148 H163 0.929 . S
C149 C148 1.362 1_544 S
C149 C150 1.366 . S
C150 C147 1.365 . S
C150 C149 1.366 . S
C150 H164 0.930 . S
C151 C148 1.378 . S
C151 N152 1.315 1_566 S
C151 H154 0.930 . S
N152 Co132 2.194 . S
N152 C147 1.328 . S
N152 C151 1.315 1_544 S
H153 C147 0.929 . S
H154 C151 0.930 . S
H155 C143 0.929 . S
H156 C145 0.929 1_565 S
O157 Co132 2.351 . S
O157 C160 1.244 . S
O158 Co132 2.155 . S
O158 C160 1.240 . S
O159 Co132 2.096 1_566 S
O159 C140 1.247 . S
C160 O157 1.244 . S
C160 O158 1.240 . S
H161 C135 0.931 . S
H162 C144 0.931 . S
H163 C148 0.929 . S
H164 C150 0.930 . S
Co165 N169 2.148 . S
Co165 N175 2.128 . S
Co165 N185 2.194 . S
Co165 O190 2.351 . S
Co165 O191 2.155 . S
Co165 O192 2.096 . S
C166 N169 1.301 . S
C166 N170 1.328 . S
C166 H171 0.930 . S
C167 C168 1.333 . S
C167 N169 1.317 . S
C167 H172 0.930 . S
C168 C167 1.333 . S
C168 N170 1.350 . S
C168 H194 0.931 . S
N169 Co165 2.148 . S
N169 C166 1.301 . S
N169 C167 1.317 . S
N170 C166 1.328 . S
N170 C168 1.350 . S
H171 C166 0.930 . S
H172 C167 0.930 . S
C173 O174 1.224 . S
C173 O192 1.247 . S
O174 C173 1.224 . S
N175 Co165 2.128 . S
N175 C176 1.355 . S
N175 C178 1.311 . S
C176 N175 1.355 . S
C176 C177 1.363 . S
C176 H188 0.929 . S
C177 C176 1.363 . S
C177 N179 1.375 . S
C177 H195 0.931 . S
C178 N175 1.311 . S
C178 N179 1.347 . S
C178 H189 0.929 . S
N179 C177 1.375 . S
N179 C178 1.347 . S
C180 C183 1.365 . S
C180 N185 1.328 . S
C180 H186 0.929 . S
C181 C182 1.362 . S
C181 C184 1.378 . S
C181 H196 0.929 . S
C182 C181 1.362 . S
C182 C183 1.366 . S
C183 C180 1.365 . S
C183 C182 1.366 . S
C183 H197 0.930 . S
C184 C181 1.378 . S
C184 N185 1.315 . S
C184 H187 0.930 . S
N185 Co165 2.194 . S
N185 C180 1.328 . S
N185 C184 1.315 . S
H186 C180 0.929 . S
H187 C184 0.930 . S
H188 C176 0.929 . S
H189 C178 0.929 . S
O190 Co165 2.351 . S
O190 C193 1.244 . S
O191 Co165 2.155 . S
O191 C193 1.240 . S
O192 Co165 2.096 . S
O192 C173 1.247 . S
C193 O190 1.244 . S
C193 O191 1.240 . S
H194 C168 0.931 . S
H195 C177 0.931 . S
H196 C181 0.929 . S
H197 C183 0.930 . S
Co198 N202 2.148 1_545 S
Co198 N208 2.128 . S
Co198 N218 2.194 . S
Co198 O223 2.351 . S
Co198 O224 2.155 . S
Co198 O225 2.096 1_545 S
C199 N202 1.301 1_545 S
C199 N203 1.328 1_545 S
C199 H204 0.930 . S
C200 C201 1.333 . S
C200 N202 1.317 . S
C200 H205 0.930 . S
C201 C200 1.333 . S
C201 N203 1.350 . S
C201 H227 0.931 . S
N202 Co198 2.148 1_565 S
N202 C199 1.301 1_565 S
N202 C200 1.317 . S
N203 C199 1.328 1_565 S
N203 C201 1.350 . S
H204 C199 0.930 . S
H205 C200 0.930 . S
C206 O207 1.224 . S
C206 O225 1.247 . S
O207 C206 1.224 . S
N208 Co198 2.128 . S
N208 C209 1.355 . S
N208 C211 1.311 . S
C209 N208 1.355 . S
C209 C210 1.363 . S
C209 H221 0.929 . S
C210 C209 1.363 . S
C210 N212 1.375 . S
C210 H228 0.931 . S
C211 N208 1.311 . S
C211 N212 1.347 . S
C211 H222 0.929 1_545 S
N212 C210 1.375 . S
N212 C211 1.347 . S
C213 C216 1.365 . S
C213 N218 1.328 . S
C213 H219 0.929 . S
C214 C215 1.362 1_565 S
C214 C217 1.378 . S
C214 H229 0.929 . S
C215 C214 1.362 1_545 S
C215 C216 1.366 . S
C216 C213 1.365 . S
C216 C215 1.366 . S
C216 H230 0.930 . S
C217 C214 1.378 . S
C217 N218 1.315 1_565 S
C217 H220 0.930 . S
N218 Co198 2.194 . S
N218 C213 1.328 . S
N218 C217 1.315 1_545 S
H219 C213 0.929 . S
H220 C217 0.930 . S
H221 C209 0.929 . S
H222 C211 0.929 1_565 S
O223 Co198 2.351 . S
O223 C226 1.244 . S
O224 Co198 2.155 . S
O224 C226 1.240 . S
O225 Co198 2.096 1_565 S
O225 C206 1.247 . S
C226 O223 1.244 . S
C226 O224 1.240 . S
H227 C201 0.931 . S
H228 C210 0.931 . S
H229 C214 0.929 . S
H230 C216 0.930 . S
Co231 N235 2.148 . S
Co231 N241 2.128 . S
Co231 N251 2.194 . S
Co231 O256 2.351 . S
Co231 O257 2.155 . S
Co231 O258 2.096 . S
C232 N235 1.301 . S
C232 N236 1.328 . S
C232 H237 0.930 . S
C233 C234 1.333 . S
C233 N235 1.317 . S
C233 H238 0.930 . S
C234 C233 1.333 . S
C234 N236 1.350 . S
C234 H260 0.931 . S
N235 Co231 2.148 . S
N235 C232 1.301 . S
N235 C233 1.317 . S
N236 C232 1.328 . S
N236 C234 1.350 . S
H237 C232 0.930 . S
H238 C233 0.930 . S
C239 O240 1.224 . S
C239 O258 1.247 . S
O240 C239 1.224 . S
N241 Co231 2.128 . S
N241 C242 1.355 . S
N241 C244 1.311 . S
C242 N241 1.355 . S
C242 C243 1.363 . S
C242 H254 0.929 . S
C243 C242 1.363 . S
C243 N245 1.375 . S
C243 H261 0.931 . S
C244 N241 1.311 . S
C244 N245 1.347 . S
C244 H255 0.929 . S
N245 C243 1.375 . S
N245 C244 1.347 . S
C246 C249 1.365 . S
C246 N251 1.328 . S
C246 H252 0.929 . S
C247 C248 1.362 . S
C247 C250 1.378 . S
C247 H262 0.929 . S
C248 C247 1.362 . S
C248 C249 1.366 . S
C249 C246 1.365 . S
C249 C248 1.366 . S
C249 H263 0.930 . S
C250 C247 1.378 . S
C250 N251 1.315 . S
C250 H253 0.930 . S
N251 Co231 2.194 . S
N251 C246 1.328 . S
N251 C250 1.315 . S
H252 C246 0.929 . S
H253 C250 0.930 . S
H254 C242 0.929 . S
H255 C244 0.929 . S
O256 Co231 2.351 . S
O256 C259 1.244 . S
O257 Co231 2.155 . S
O257 C259 1.240 . S
O258 Co231 2.096 . S
O258 C239 1.247 . S
C259 O256 1.244 . S
C259 O257 1.240 . S
H260 C234 0.931 . S
H261 C243 0.931 . S
H262 C247 0.929 . S
H263 C249 0.930 . S
Co264 N268 2.148 . S
Co264 N274 2.128 . S
Co264 N284 2.194 . S
Co264 O289 2.351 . S
Co264 O290 2.155 . S
Co264 O291 2.096 . S
C265 N268 1.301 . S
C265 N269 1.328 . S
C265 H270 0.930 . S
C266 C267 1.333 . S
C266 N268 1.317 . S
C266 H271 0.930 . S
C267 C266 1.333 . S
C267 N269 1.350 . S
C267 H293 0.931 . S
N268 Co264 2.148 . S
N268 C265 1.301 . S
N268 C266 1.317 . S
N269 C265 1.328 . S
N269 C267 1.350 . S
H270 C265 0.930 . S
H271 C266 0.930 . S
C272 O273 1.224 . S
C272 O291 1.247 . S
O273 C272 1.224 . S
N274 Co264 2.128 . S
N274 C275 1.355 . S
N274 C277 1.311 . S
C275 N274 1.355 . S
C275 C276 1.363 . S
C275 H287 0.929 . S
C276 C275 1.363 . S
C276 N278 1.375 . S
C276 H294 0.931 . S
C277 N274 1.311 . S
C277 N278 1.347 . S
C277 H288 0.929 . S
N278 C276 1.375 . S
N278 C277 1.347 . S
C279 C282 1.365 . S
C279 N284 1.328 . S
C279 H285 0.929 . S
C280 C281 1.362 . S
C280 C283 1.378 . S
C280 H295 0.929 . S
C281 C280 1.362 . S
C281 C282 1.366 . S
C282 C279 1.365 . S
C282 C281 1.366 . S
C282 H296 0.930 . S
C283 C280 1.378 . S
C283 N284 1.315 . S
C283 H286 0.930 . S
N284 Co264 2.194 . S
N284 C279 1.328 . S
N284 C283 1.315 . S
H285 C279 0.929 . S
H286 C283 0.930 . S
H287 C275 0.929 . S
H288 C277 0.929 . S
O289 Co264 2.351 . S
O289 C292 1.244 . S
O290 Co264 2.155 . S
O290 C292 1.240 . S
O291 Co264 2.096 . S
O291 C272 1.247 . S
C292 O289 1.244 . S
C292 O290 1.240 . S
H293 C267 0.931 . S
H294 C276 0.931 . S
H295 C280 0.929 . S
H296 C282 0.930 . S
Co297 N301 2.148 . S
Co297 N307 2.128 . S
Co297 N317 2.194 . S
Co297 O322 2.351 . S
Co297 O323 2.155 . S
Co297 O324 2.096 . S
C298 N301 1.301 . S
C298 N302 1.328 . S
C298 H303 0.930 . S
C299 C300 1.333 . S
C299 N301 1.317 . S
C299 H304 0.930 . S
C300 C299 1.333 . S
C300 N302 1.350 . S
C300 H326 0.931 . S
N301 Co297 2.148 . S
N301 C298 1.301 . S
N301 C299 1.317 . S
N302 C298 1.328 . S
N302 C300 1.350 . S
H303 C298 0.930 . S
H304 C299 0.930 . S
C305 O306 1.224 . S
C305 O324 1.247 . S
O306 C305 1.224 . S
N307 Co297 2.128 . S
N307 C308 1.355 . S
N307 C310 1.311 . S
C308 N307 1.355 . S
C308 C309 1.363 . S
C308 H320 0.929 . S
C309 C308 1.363 . S
C309 N311 1.375 . S
C309 H327 0.929 1_556 S
C310 N307 1.311 . S
C310 N311 1.347 . S
C310 H321 0.929 . S
N311 C309 1.375 . S
N311 C310 1.347 . S
C312 C315 1.365 . S
C312 N317 1.328 . S
C312 H318 0.929 . S
C313 C314 1.362 . S
C313 C316 1.378 . S
C313 H328 0.929 . S
C314 C313 1.362 . S
C314 C315 1.366 . S
C315 C312 1.365 . S
C315 C314 1.366 . S
C315 H329 0.930 . S
C316 C313 1.378 . S
C316 N317 1.315 . S
C316 H319 0.930 . S
N317 Co297 2.194 . S
N317 C312 1.328 . S
N317 C316 1.315 . S
H318 C312 0.929 . S
H319 C316 0.930 . S
H320 C308 0.929 . S
H321 C310 0.929 . S
O322 Co297 2.351 . S
O322 C325 1.244 . S
O323 Co297 2.155 . S
O323 C325 1.240 . S
O324 Co297 2.096 . S
O324 C305 1.247 . S
C325 O322 1.244 . S
C325 O323 1.240 . S
H326 C300 0.931 . S
H327 C309 0.929 1_554 S
H328 C313 0.929 . S
H329 C315 0.930 . S
Co330 N334 2.148 . S
Co330 N340 2.128 1_554 S
Co330 N350 2.194 . S
Co330 O355 2.351 . S
Co330 O356 2.155 . S
Co330 O357 2.096 1_554 S
C331 N334 1.301 . S
C331 N335 1.328 . S
C331 H336 0.930 . S
C332 C333 1.333 . S
C332 N334 1.317 . S
C332 H337 0.930 . S
C333 C332 1.333 . S
C333 N335 1.350 . S
C333 H359 0.931 . S
N334 Co330 2.148 . S
N334 C331 1.301 . S
N334 C332 1.317 . S
N335 C331 1.328 . S
N335 C333 1.350 . S
H336 C331 0.930 . S
H337 C332 0.930 . S
C338 O339 1.224 . S
C338 O357 1.247 . S
O339 C338 1.224 . S
N340 Co330 2.128 1_556 S
N340 C341 1.355 . S
N340 C343 1.311 . S
C341 N340 1.355 . S
C341 C342 1.363 . S
C341 H353 0.929 . S
C342 C341 1.363 . S
C342 N344 1.375 . S
C342 H360 0.931 . S
C343 N340 1.311 . S
C343 N344 1.347 . S
C343 H354 0.929 . S
N344 C342 1.375 . S
N344 C343 1.347 . S
C345 C348 1.365 . S
C345 N350 1.328 . S
C345 H351 0.929 . S
C346 C347 1.362 1_556 S
C346 C349 1.378 . S
C346 H361 0.929 . S
C347 C346 1.362 1_554 S
C347 C348 1.366 . S
C348 C345 1.365 . S
C348 C347 1.366 . S
C348 H362 0.930 . S
C349 C346 1.378 . S
C349 N350 1.315 1_556 S
C349 H352 0.930 . S
N350 Co330 2.194 . S
N350 C345 1.328 . S
N350 C349 1.315 1_554 S
H351 C345 0.929 . S
H352 C349 0.930 . S
H353 C341 0.929 . S
H354 C343 0.929 . S
O355 Co330 2.351 . S
O355 C358 1.244 . S
O356 Co330 2.155 . S
O356 C358 1.240 . S
O357 Co330 2.096 1_556 S
O357 C338 1.247 . S
C358 O355 1.244 . S
C358 O356 1.240 . S
H359 C333 0.931 . S
H360 C342 0.931 . S
H361 C346 0.929 . S
H362 C348 0.930 . S
Co363 N367 2.148 . S
Co363 N373 2.128 . S
Co363 N383 2.194 . S
Co363 O388 2.351 . S
Co363 O389 2.155 . S
Co363 O390 2.096 . S
C364 N367 1.301 . S
C364 N368 1.328 . S
C364 H369 0.930 . S
C365 C366 1.333 . S
C365 N367 1.317 . S
C365 H370 0.930 . S
C366 C365 1.333 . S
C366 N368 1.350 . S
C366 H392 0.931 . S
N367 Co363 2.148 . S
N367 C364 1.301 . S
N367 C365 1.317 . S
N368 C364 1.328 . S
N368 C366 1.350 . S
H369 C364 0.930 . S
H370 C365 0.930 . S
C371 O372 1.224 . S
C371 O390 1.247 . S
O372 C371 1.224 . S
N373 Co363 2.128 . S
N373 C374 1.355 . S
N373 C376 1.311 . S
C374 N373 1.355 . S
C374 C375 1.363 . S
C374 H386 0.929 . S
C375 C374 1.363 . S
C375 N377 1.375 . S
C375 H393 0.931 . S
C376 N373 1.311 . S
C376 N377 1.347 . S
C376 H387 0.929 . S
N377 C375 1.375 . S
N377 C376 1.347 . S
C378 C381 1.365 . S
C378 N383 1.328 . S
C378 H384 0.929 . S
C379 C380 1.362 . S
C379 C382 1.378 . S
C379 H394 0.929 . S
C380 C379 1.362 . S
C380 C381 1.366 . S
C381 C378 1.365 . S
C381 C380 1.366 . S
C381 H395 0.930 . S
C382 C379 1.378 . S
C382 N383 1.315 . S
C382 H385 0.930 . S
N383 Co363 2.194 . S
N383 C378 1.328 . S
N383 C382 1.315 . S
H384 C378 0.929 . S
H385 C382 0.930 . S
H386 C374 0.929 . S
H387 C376 0.929 . S
O388 Co363 2.351 . S
O388 C391 1.244 . S
O389 Co363 2.155 . S
O389 C391 1.240 . S
O390 Co363 2.096 . S
O390 C371 1.247 . S
C391 O388 1.244 . S
C391 O389 1.240 . S
H392 C366 0.931 . S
H393 C375 0.931 . S
H394 C379 0.929 . S
H395 C381 0.930 . S
Co396 N400 2.148 . S
Co396 N406 2.128 . S
Co396 N416 2.194 . S
Co396 O421 2.351 . S
Co396 O422 2.155 . S
Co396 O423 2.096 . S
C397 N400 1.301 . S
C397 N401 1.328 . S
C397 H402 0.930 . S
C398 C399 1.333 . S
C398 N400 1.317 . S
C398 H403 0.930 . S
C399 C398 1.333 . S
C399 N401 1.350 . S
C399 H425 0.931 . S
N400 Co396 2.148 . S
N400 C397 1.301 . S
N400 C398 1.317 . S
N401 C397 1.328 . S
N401 C399 1.350 . S
H402 C397 0.930 . S
H403 C398 0.930 . S
C404 O405 1.224 . S
C404 O423 1.247 . S
O405 C404 1.224 . S
N406 Co396 2.128 . S
N406 C407 1.355 . S
N406 C409 1.311 . S
C407 N406 1.355 . S
C407 C408 1.363 . S
C407 H419 0.929 . S
C408 C407 1.363 . S
C408 N410 1.375 . S
C408 H426 0.931 . S
C409 N406 1.311 . S
C409 N410 1.347 . S
C409 H420 0.929 . S
N410 C408 1.375 . S
N410 C409 1.347 . S
C411 C414 1.365 . S
C411 N416 1.328 . S
C411 H417 0.929 . S
C412 C413 1.362 . S
C412 C415 1.378 . S
C412 H427 0.929 . S
C413 C412 1.362 . S
C413 C414 1.366 . S
C414 C411 1.365 . S
C414 C413 1.366 . S
C414 H428 0.930 . S
C415 C412 1.378 . S
C415 N416 1.315 . S
C415 H418 0.930 . S
N416 Co396 2.194 . S
N416 C411 1.328 . S
N416 C415 1.315 . S
H417 C411 0.929 . S
H418 C415 0.930 . S
H419 C407 0.929 . S
H420 C409 0.929 . S
O421 Co396 2.351 . S
O421 C424 1.244 . S
O422 Co396 2.155 . S
O422 C424 1.240 . S
O423 Co396 2.096 . S
O423 C404 1.247 . S
C424 O421 1.244 . S
C424 O422 1.240 . S
H425 C399 0.931 . S
H426 C408 0.931 . S
H427 C412 0.929 . S
H428 C414 0.930 . S
Co429 N433 2.148 . S
Co429 N439 2.128 . S
Co429 N449 2.194 . S
Co429 O454 2.351 . S
Co429 O455 2.155 . S
Co429 O456 2.096 . S
C430 N433 1.301 . S
C430 N434 1.328 . S
C430 H435 0.930 . S
C431 C432 1.333 . S
C431 N433 1.317 . S
C431 H436 0.930 . S
C432 C431 1.333 . S
C432 N434 1.350 . S
C432 H458 0.931 . S
N433 Co429 2.148 . S
N433 C430 1.301 . S
N433 C431 1.317 . S
N434 C430 1.328 . S
N434 C432 1.350 . S
H435 C430 0.930 . S
H436 C431 0.930 . S
C437 O438 1.224 . S
C437 O456 1.247 . S
O438 C437 1.224 . S
N439 Co429 2.128 . S
N439 C440 1.355 . S
N439 C442 1.311 . S
C440 N439 1.355 . S
C440 C441 1.363 . S
C440 H452 0.929 . S
C441 C440 1.363 . S
C441 N443 1.375 . S
C441 H459 0.931 . S
C442 N439 1.311 . S
C442 N443 1.347 . S
C442 H453 0.929 . S
N443 C441 1.375 . S
N443 C442 1.347 . S
C444 C447 1.365 . S
C444 N449 1.328 . S
C444 H450 0.929 . S
C445 C446 1.362 . S
C445 C448 1.378 . S
C445 H460 0.929 . S
C446 C445 1.362 . S
C446 C447 1.366 . S
C447 C444 1.365 . S
C447 C446 1.366 . S
C447 H461 0.930 . S
C448 C445 1.378 . S
C448 N449 1.315 . S
C448 H451 0.930 . S
N449 Co429 2.194 . S
N449 C444 1.328 . S
N449 C448 1.315 . S
H450 C444 0.929 . S
H451 C448 0.930 . S
H452 C440 0.929 . S
H453 C442 0.929 . S
O454 Co429 2.351 . S
O454 C457 1.244 . S
O455 Co429 2.155 . S
O455 C457 1.240 . S
O456 Co429 2.096 . S
O456 C437 1.247 . S
C457 O454 1.244 . S
C457 O455 1.240 . S
H458 C432 0.931 . S
H459 C441 0.931 . S
H460 C445 0.929 . S
H461 C447 0.930 . S
Co462 N466 2.148 1_554 S
Co462 N472 2.128 . S
Co462 N482 2.194 1_554 S
Co462 O487 2.351 1_554 S
Co462 O488 2.155 1_554 S
Co462 O489 2.096 . S
C463 N466 1.301 . S
C463 N467 1.328 . S
C463 H468 0.930 . S
C464 C465 1.333 . S
C464 N466 1.317 . S
C464 H469 0.930 . S
C465 C464 1.333 . S
C465 N467 1.350 . S
C465 H491 0.931 . S
N466 Co462 2.148 1_556 S
N466 C463 1.301 . S
N466 C464 1.317 . S
N467 C463 1.328 . S
N467 C465 1.350 . S
H468 C463 0.930 . S
H469 C464 0.930 . S
C470 O471 1.224 . S
C470 O489 1.247 . S
O471 C470 1.224 . S
N472 Co462 2.128 . S
N472 C473 1.355 . S
N472 C475 1.311 . S
C473 N472 1.355 . S
C473 C474 1.363 . S
C473 H485 0.929 . S
C474 C473 1.363 . S
C474 N476 1.375 . S
C474 H492 0.931 . S
C475 N472 1.311 . S
C475 N476 1.347 . S
C475 H486 0.929 . S
N476 C474 1.375 . S
N476 C475 1.347 . S
C477 C480 1.365 . S
C477 N482 1.328 . S
C477 H483 0.929 . S
C478 C479 1.362 . S
C478 C481 1.378 . S
C478 H493 0.929 . S
C479 C478 1.362 . S
C479 C480 1.366 1_554 S
C480 C477 1.365 . S
C480 C479 1.366 1_556 S
C480 H494 0.930 . S
C481 C478 1.378 . S
C481 N482 1.315 1_554 S
C481 H484 0.930 . S
N482 Co462 2.194 1_556 S
N482 C477 1.328 . S
N482 C481 1.315 1_556 S
H483 C477 0.929 . S
H484 C481 0.930 . S
H485 C473 0.929 . S
H486 C475 0.929 . S
O487 Co462 2.351 1_556 S
O487 C490 1.244 . S
O488 Co462 2.155 1_556 S
O488 C490 1.240 . S
O489 Co462 2.096 . S
O489 C470 1.247 . S
C490 O487 1.244 . S
C490 O488 1.240 . S
H491 C465 0.931 . S
H492 C474 0.931 . S
H493 C478 0.929 . S
H494 C480 0.930 . S
Co495 N499 2.148 . S
Co495 N505 2.128 . S
Co495 N515 2.194 . S
Co495 O520 2.351 . S
Co495 O521 2.155 . S
Co495 O522 2.096 . S
C496 N499 1.301 . S
C496 N500 1.328 . S
C496 H501 0.930 . S
C497 C498 1.333 . S
C497 N499 1.317 . S
C497 H502 0.930 . S
C498 C497 1.333 . S
C498 N500 1.350 . S
C498 H524 0.931 . S
N499 Co495 2.148 . S
N499 C496 1.301 . S
N499 C497 1.317 . S
N500 C496 1.328 . S
N500 C498 1.350 . S
H501 C496 0.930 . S
H502 C497 0.930 . S
C503 O504 1.224 . S
C503 O522 1.247 . S
O504 C503 1.224 . S
N505 Co495 2.128 . S
N505 C506 1.355 . S
N505 C508 1.311 . S
C506 N505 1.355 . S
C506 C507 1.363 . S
C506 H518 0.929 . S
C507 C506 1.363 . S
C507 N509 1.375 . S
C507 H525 0.931 . S
C508 N505 1.311 . S
C508 N509 1.347 . S
C508 H519 0.929 . S
N509 C507 1.375 . S
N509 C508 1.347 . S
C510 C513 1.365 . S
C510 N515 1.328 . S
C510 H516 0.929 . S
C511 C512 1.362 . S
C511 C514 1.378 . S
C511 H526 0.929 . S
C512 C511 1.362 . S
C512 C513 1.366 . S
C513 C510 1.365 . S
C513 C512 1.366 . S
C513 H527 0.930 . S
C514 C511 1.378 . S
C514 N515 1.315 . S
C514 H517 0.930 . S
N515 Co495 2.194 . S
N515 C510 1.328 . S
N515 C514 1.315 . S
H516 C510 0.929 . S
H517 C514 0.930 . S
H518 C506 0.929 . S
H519 C508 0.929 . S
O520 Co495 2.351 . S
O520 C523 1.244 . S
O521 Co495 2.155 . S
O521 C523 1.240 . S
O522 Co495 2.096 . S
O522 C503 1.247 . S
C523 O520 1.244 . S
C523 O521 1.240 . S
H524 C498 0.931 . S
H525 C507 0.931 . S
H526 C511 0.929 . S
H527 C513 0.930 . S
H528 C536 0.950 . S
H529 C541 0.950 . S
H530 C538 0.950 . S
H531 C540 0.950 . S
H532 C542 0.950 . S
H533 C544 0.950 . S
H534 C546 0.950 . S
H535 C547 0.950 . S
C536 H528 0.950 . S
C536 C537 1.386 . S
C536 C538 1.391 . S
C537 C536 1.386 . S
C537 C541 1.393 1_545 S
C538 H530 0.950 . S
C538 C536 1.391 . S
C538 C539 1.400 . S
C539 C538 1.400 . S
C539 C540 1.398 1_545 S
C539 C545 1.491 . S
C540 H531 0.950 . S
C540 C539 1.398 1_565 S
C540 C541 1.391 . S
C541 H529 0.950 . S
C541 C537 1.393 1_565 S
C541 C540 1.391 . S
C542 H532 0.950 . S
C542 C543 1.386 1_565 S
C542 C544 1.391 . S
C543 C542 1.386 1_545 S
C543 C547 1.393 . S
C544 H533 0.950 . S
C544 C542 1.391 . S
C544 C545 1.400 1_565 S
C545 C539 1.491 . S
C545 C544 1.400 1_545 S
C545 C546 1.398 . S
C546 H534 0.950 . S
C546 C545 1.398 . S
C546 C547 1.391 . S
C547 H535 0.950 . S
C547 C543 1.393 . S
C547 C546 1.391 . S
H548 C556 0.950 . S
H549 C561 0.950 . S
H550 C558 0.950 . S
H551 C560 0.950 . S
H552 C562 0.950 . S
H553 C564 0.950 . S
H554 C566 0.950 . S
H555 C567 0.950 . S
C556 H548 0.950 . S
C556 C557 1.386 . S
C556 C558 1.391 . S
C557 C556 1.386 . S
C557 C561 1.393 . S
C558 H550 0.950 . S
C558 C556 1.391 . S
C558 C559 1.400 . S
C559 C558 1.400 . S
C559 C560 1.398 . S
C559 C565 1.491 . S
C560 H551 0.950 . S
C560 C559 1.398 . S
C560 C561 1.391 . S
C561 H549 0.950 . S
C561 C557 1.393 . S
C561 C560 1.391 . S
C562 H552 0.950 . S
C562 C563 1.386 . S
C562 C564 1.391 . S
C563 C562 1.386 . S
C563 C567 1.393 . S
C564 H553 0.950 . S
C564 C562 1.391 . S
C564 C565 1.400 . S
C565 C559 1.491 . S
C565 C564 1.400 . S
C565 C566 1.398 . S
C566 H554 0.950 . S
C566 C565 1.398 . S
C566 C567 1.391 . S
C567 H555 0.950 . S
C567 C563 1.393 . S
C567 C566 1.391 . S
H568 C576 0.950 . S
H569 C581 0.950 . S
H570 C578 0.950 . S
H571 C580 0.950 . S
H572 C582 0.931 1_565 S
H573 C584 0.950 . S
H574 C586 0.950 . S
H575 C587 0.950 . S
C576 H568 0.950 . S
C576 C577 1.386 . S
C576 C578 1.391 . S
C577 C576 1.386 . S
C577 C581 1.393 1_545 S
C578 H570 0.950 . S
C578 C576 1.391 . S
C578 C579 1.400 . S
C579 C578 1.400 . S
C579 C580 1.398 1_545 S
C579 C585 1.491 1_554 S
C580 H571 0.950 . S
C580 C579 1.398 1_565 S
C580 C581 1.391 . S
C581 H569 0.950 . S
C581 C577 1.393 1_565 S
C581 C580 1.391 . S
C582 H572 0.931 1_545 S
C582 C583 1.412 . S
C582 C584 1.386 1_545 S
C583 C582 1.412 . S
C583 C587 1.393 . S
C584 H573 0.950 . S
C584 C582 1.386 1_565 S
C584 C585 1.400 1_565 S
C585 C579 1.491 1_556 S
C585 C584 1.400 1_545 S
C585 C586 1.398 . S
C586 H574 0.950 . S
C586 C585 1.398 . S
C586 C587 1.391 . S
C587 H575 0.950 . S
C587 C583 1.393 . S
C587 C586 1.391 . S
H588 C596 0.950 . S
H589 C601 0.950 . S
H590 C598 0.950 . S
H591 C600 0.950 . S
H592 C602 0.950 . S
H593 C604 0.950 . S
H594 C606 0.950 . S
H595 C607 0.950 . S
C596 H588 0.950 . S
C596 C597 1.386 . S
C596 C598 1.391 . S
C597 C596 1.386 . S
C597 C601 1.393 . S
C598 H590 0.950 . S
C598 C596 1.391 . S
C598 C599 1.400 . S
C599 C598 1.400 . S
C599 C600 1.398 . S
C599 C605 1.491 . S
C600 H591 0.950 . S
C600 C599 1.398 . S
C600 C601 1.391 . S
C601 H589 0.950 . S
C601 C597 1.393 . S
C601 C600 1.391 . S
C602 H592 0.950 . S
C602 C603 1.386 . S
C602 C604 1.391 . S
C603 C602 1.386 . S
C603 C607 1.393 . S
C604 H593 0.950 . S
C604 C602 1.391 . S
C604 C605 1.400 . S
C605 C599 1.491 . S
C605 C604 1.400 . S
C605 C606 1.398 . S
C606 H594 0.950 . S
C606 C605 1.398 . S
C606 C607 1.391 . S
C607 H595 0.950 . S
C607 C603 1.393 . S
C607 C606 1.391 . S
H608 C616 0.949 . S
H609 C621 0.950 . S
H610 C618 0.950 1_565 S
H611 C620 0.950 . S
H612 C622 0.950 . S
H613 C624 0.950 . S
H614 C626 0.948 1_565 S
H615 C627 0.950 . S
C616 H608 0.949 . S
C616 C617 1.386 . S
C616 C618 1.391 . S
C617 C616 1.386 . S
C617 C621 1.393 . S
C618 H610 0.950 1_545 S
C618 C616 1.391 . S
C618 C619 1.400 . S
C619 C618 1.400 . S
C619 C620 1.398 . S
C619 C625 1.491 . S
C620 H611 0.950 . S
C620 C619 1.398 . S
C620 C621 1.391 . S
C621 H609 0.950 . S
C621 C617 1.393 . S
C621 C620 1.391 . S
C622 H612 0.950 . S
C622 C623 1.386 . S
C622 C624 1.391 . S
C623 C622 1.386 . S
C623 C627 1.393 1_545 S
C624 H613 0.950 . S
C624 C622 1.391 . S
C624 C625 1.400 . S
C625 C619 1.491 . S
C625 C624 1.400 . S
C625 C626 1.401 . S
C626 H614 0.948 1_545 S
C626 C625 1.401 . S
C626 C627 1.390 1_545 S
C627 H615 0.950 . S
C627 C623 1.393 1_565 S
C627 C626 1.390 1_565 S
H628 C636 0.950 . S
H629 C641 0.950 . S
H630 C638 0.950 . S
H631 C640 0.950 . S
H632 C642 0.950 . S
H633 C644 0.950 . S
H634 C646 0.950 . S
H635 C647 0.950 . S
C636 H628 0.950 . S
C636 C637 1.386 . S
C636 C638 1.391 . S
C637 C636 1.386 . S
C637 C641 1.393 . S
C638 H630 0.950 . S
C638 C636 1.391 . S
C638 C639 1.400 . S
C639 C638 1.400 . S
C639 C640 1.398 . S
C639 C645 1.491 . S
C640 H631 0.950 . S
C640 C639 1.398 . S
C640 C641 1.391 . S
C641 H629 0.950 . S
C641 C637 1.393 . S
C641 C640 1.391 . S
C642 H632 0.950 . S
C642 C643 1.386 . S
C642 C644 1.391 . S
C643 C642 1.386 . S
C643 C647 1.393 . S
C644 H633 0.950 . S
C644 C642 1.391 . S
C644 C645 1.400 . S
C645 C639 1.491 . S
C645 C644 1.400 . S
C645 C646 1.398 . S
C646 H634 0.950 . S
C646 C645 1.398 . S
C646 C647 1.391 . S
C647 H635 0.950 . S
C647 C643 1.393 . S
C647 C646 1.391 . S
H648 C656 0.950 . S
H649 C661 0.950 . S
H650 C658 0.950 . S
H651 C660 0.950 . S
H652 C662 0.950 . S
H653 C664 0.950 . S
H654 C666 0.950 . S
H655 C667 0.950 . S
C656 H648 0.950 . S
C656 C657 1.386 1_565 S
C656 C658 1.391 . S
C657 C656 1.386 1_545 S
C657 C661 1.393 . S
C658 H650 0.950 . S
C658 C656 1.391 . S
C658 C659 1.400 1_565 S
C659 C658 1.400 1_545 S
C659 C660 1.398 . S
C659 C665 1.491 1_554 S
C660 H651 0.950 . S
C660 C659 1.398 . S
C660 C661 1.391 . S
C661 H649 0.950 . S
C661 C657 1.393 . S
C661 C660 1.391 . S
C662 H652 0.950 . S
C662 C663 1.386 . S
C662 C664 1.391 . S
C663 C662 1.386 . S
C663 C667 1.393 1_545 S
C664 H653 0.950 . S
C664 C662 1.391 . S
C664 C665 1.400 . S
C665 C659 1.491 1_556 S
C665 C664 1.400 . S
C665 C666 1.398 1_545 S
C666 H654 0.950 . S
C666 C665 1.398 1_565 S
C666 C667 1.391 . S
C667 H655 0.950 . S
C667 C663 1.393 1_565 S
C667 C666 1.391 . S
H668 C676 0.950 . S
H669 C681 0.950 . S
H670 C678 0.950 . S
H671 C680 0.950 . S
H672 C682 0.950 . S
H673 C684 0.950 . S
H674 C686 0.950 . S
H675 C687 0.950 . S
C676 H668 0.950 . S
C676 C677 1.386 . S
C676 C678 1.391 . S
C677 C676 1.386 . S
C677 C681 1.393 . S
C678 H670 0.950 . S
C678 C676 1.391 . S
C678 C679 1.400 . S
C679 C678 1.400 . S
C679 C680 1.398 . S
C679 C685 1.491 . S
C680 H671 0.950 . S
C680 C679 1.398 . S
C680 C681 1.391 . S
C681 H669 0.950 . S
C681 C677 1.393 . S
C681 C680 1.391 . S
C682 H672 0.950 . S
C682 C683 1.386 . S
C682 C684 1.391 . S
C683 C682 1.386 . S
C683 C687 1.393 . S
C684 H673 0.950 . S
C684 C682 1.391 . S
C684 C685 1.400 . S
C685 C679 1.491 . S
C685 C684 1.400 . S
C685 C686 1.398 . S
C686 H674 0.950 . S
C686 C685 1.398 . S
C686 C687 1.391 . S
C687 H675 0.950 . S
C687 C683 1.393 . S
C687 C686 1.391 . S
H688 C696 0.950 . S
H689 C701 0.950 . S
H690 C698 0.950 . S
H691 C700 0.950 . S
H692 C702 0.950 . S
H693 C704 0.950 . S
H694 C706 0.950 . S
H695 C707 0.950 . S
C696 H688 0.950 . S
C696 C697 1.386 . S
C696 C698 1.391 . S
C697 C696 1.386 . S
C697 C701 1.393 . S
C698 H690 0.950 . S
C698 C696 1.391 . S
C698 C699 1.400 . S
C699 C698 1.400 . S
C699 C700 1.398 . S
C699 C705 1.491 1_554 S
C700 H691 0.950 . S
C700 C699 1.398 . S
C700 C701 1.391 . S
C701 H689 0.950 . S
C701 C697 1.393 . S
C701 C700 1.391 . S
C702 H692 0.950 . S
C702 C703 1.386 . S
C702 C704 1.391 . S
C703 C702 1.386 . S
C703 C707 1.393 . S
C704 H693 0.950 . S
C704 C702 1.391 . S
C704 C705 1.400 . S
C705 C699 1.491 1_556 S
C705 C704 1.400 . S
C705 C706 1.398 . S
C706 H694 0.950 . S
C706 C705 1.398 . S
C706 C707 1.391 . S
C707 H695 0.950 . S
C707 C703 1.393 . S
C707 C706 1.391 . S
H708 C716 0.950 . S
H709 C721 0.950 . S
H710 C718 0.950 . S
H711 C720 0.950 . S
H712 C722 0.950 . S
H713 C724 0.950 . S
H714 C726 0.950 . S
H715 C727 0.950 . S
C716 H708 0.950 . S
C716 C717 1.386 . S
C716 C718 1.391 . S
C717 C716 1.386 . S
C717 C721 1.393 . S
C718 H710 0.950 . S
C718 C716 1.391 . S
C718 C719 1.400 . S
C719 C718 1.400 . S
C719 C720 1.398 . S
C719 C725 1.491 . S
C720 H711 0.950 . S
C720 C719 1.398 . S
C720 C721 1.391 . S
C721 H709 0.950 . S
C721 C717 1.393 . S
C721 C720 1.391 . S
C722 H712 0.950 . S
C722 C723 1.386 . S
C722 C724 1.391 . S
C723 C722 1.386 . S
C723 C727 1.393 . S
C724 H713 0.950 . S
C724 C722 1.391 . S
C724 C725 1.400 . S
C725 C719 1.491 . S
C725 C724 1.400 . S
C725 C726 1.398 . S
C726 H714 0.950 . S
C726 C725 1.398 . S
C726 C727 1.391 . S
C727 H715 0.950 . S
C727 C723 1.393 . S
C727 C726 1.391 . S
H728 C736 0.950 . S
H729 C741 0.950 . S
H730 C738 0.950 . S
H731 C740 0.950 . S
H732 C742 0.950 . S
H733 C744 0.950 . S
H734 C746 0.950 . S
H735 C747 0.950 . S
C736 H728 0.950 . S
C736 C737 1.386 . S
C736 C738 1.391 . S
C737 C736 1.386 . S
C737 C741 1.393 . S
C738 H730 0.950 . S
C738 C736 1.391 . S
C738 C739 1.400 . S
C739 C738 1.400 . S
C739 C740 1.398 . S
C739 C745 1.491 . S
C740 H731 0.950 . S
C740 C739 1.398 . S
C740 C741 1.391 . S
C741 H729 0.950 . S
C741 C737 1.393 . S
C741 C740 1.391 . S
C742 H732 0.950 . S
C742 C743 1.386 . S
C742 C744 1.391 . S
C743 C742 1.386 . S
C743 C747 1.393 . S
C744 H733 0.950 . S
C744 C742 1.391 . S
C744 C745 1.400 . S
C745 C739 1.491 . S
C745 C744 1.400 . S
C745 C746 1.398 . S
C746 H734 0.950 . S
C746 C745 1.398 . S
C746 C747 1.391 . S
C747 H735 0.950 . S
C747 C743 1.393 . S
C747 C746 1.391 . S
H748 C756 0.950 . S
H749 C761 0.950 . S
H750 C758 0.950 . S
H751 C760 0.950 . S
H752 C762 0.950 . S
H753 C764 0.950 . S
H754 C766 0.950 . S
H755 C767 0.950 . S
C756 H748 0.950 . S
C756 C757 1.386 . S
C756 C758 1.391 . S
C757 C756 1.386 . S
C757 C761 1.393 . S
C758 H750 0.950 . S
C758 C756 1.391 . S
C758 C759 1.400 . S
C759 C758 1.400 . S
C759 C760 1.398 . S
C759 C765 1.491 . S
C760 H751 0.950 . S
C760 C759 1.398 . S
C760 C761 1.391 . S
C761 H749 0.950 . S
C761 C757 1.393 . S
C761 C760 1.391 . S
C762 H752 0.950 . S
C762 C763 1.386 . S
C762 C764 1.391 . S
C763 C762 1.386 . S
C763 C767 1.393 . S
C764 H753 0.950 . S
C764 C762 1.391 . S
C764 C765 1.400 . S
C765 C759 1.491 . S
C765 C764 1.400 . S
C765 C766 1.398 . S
C766 H754 0.950 . S
C766 C765 1.398 . S
C766 C767 1.391 . S
C767 H755 0.950 . S
C767 C763 1.393 . S
C767 C766 1.391 . S
H768 C776 0.950 . S
H769 C781 0.950 . S
H770 C778 0.950 . S
H771 C780 0.950 . S
H772 C782 0.950 . S
H773 C784 0.950 . S
H774 C786 0.950 . S
H775 C787 0.950 . S
C776 H768 0.950 . S
C776 C777 1.386 . S
C776 C778 1.391 . S
C777 C776 1.386 . S
C777 C781 1.393 . S
C778 H770 0.950 . S
C778 C776 1.391 . S
C778 C779 1.400 . S
C779 C778 1.400 . S
C779 C780 1.398 . S
C779 C785 1.491 1_556 S
C780 H771 0.950 . S
C780 C779 1.398 . S
C780 C781 1.391 . S
C781 H769 0.950 . S
C781 C777 1.393 . S
C781 C780 1.391 . S
C782 H772 0.950 . S
C782 C783 1.386 . S
C782 C784 1.391 . S
C783 C782 1.386 . S
C783 C787 1.393 . S
C784 H773 0.950 . S
C784 C782 1.391 . S
C784 C785 1.400 . S
C785 C779 1.491 1_554 S
C785 C784 1.400 . S
C785 C786 1.398 . S
C786 H774 0.950 . S
C786 C785 1.398 . S
C786 C787 1.391 . S
C787 H775 0.950 . S
C787 C783 1.393 . S
C787 C786 1.391 . S
H788 C796 0.950 . S
H789 C801 0.950 . S
H790 C798 0.950 . S
H791 C800 0.950 . S
H792 C802 0.950 . S
H793 C804 0.950 . S
H794 C806 0.950 . S
H795 C807 0.950 . S
C796 H788 0.950 . S
C796 C797 1.386 . S
C796 C798 1.391 . S
C797 C796 1.386 . S
C797 C801 1.393 . S
C798 H790 0.950 . S
C798 C796 1.391 . S
C798 C799 1.400 . S
C799 C798 1.400 . S
C799 C800 1.398 . S
C799 C805 1.491 . S
C800 H791 0.950 . S
C800 C799 1.398 . S
C800 C801 1.391 . S
C801 H789 0.950 . S
C801 C797 1.393 . S
C801 C800 1.391 . S
C802 H792 0.950 . S
C802 C803 1.386 . S
C802 C804 1.391 . S
C803 C802 1.386 . S
C803 C807 1.393 . S
C804 H793 0.950 . S
C804 C802 1.391 . S
C804 C805 1.400 . S
C805 C799 1.491 . S
C805 C804 1.400 . S
C805 C806 1.398 . S
C806 H794 0.950 . S
C806 C805 1.398 . S
C806 C807 1.391 . S
C807 H795 0.950 . S
C807 C803 1.393 . S
C807 C806 1.391 . S
H808 C816 0.950 . S
H809 C821 0.950 . S
H810 C818 0.950 . S
H811 C820 0.950 . S
H812 C822 0.950 . S
H813 C824 0.950 . S
H814 C826 0.950 . S
H815 C827 0.950 . S
C816 H808 0.950 . S
C816 C817 1.386 . S
C816 C818 1.391 . S
C817 C816 1.386 . S
C817 C821 1.393 . S
C818 H810 0.950 . S
C818 C816 1.391 . S
C818 C819 1.400 . S
C819 C818 1.400 . S
C819 C820 1.398 . S
C819 C825 1.491 . S
C820 H811 0.950 . S
C820 C819 1.398 . S
C820 C821 1.391 . S
C821 H809 0.950 . S
C821 C817 1.393 . S
C821 C820 1.391 . S
C822 H812 0.950 . S
C822 C823 1.386 . S
C822 C824 1.391 . S
C823 C822 1.386 . S
C823 C827 1.393 . S
C824 H813 0.950 . S
C824 C822 1.391 . S
C824 C825 1.400 . S
C825 C819 1.491 . S
C825 C824 1.400 . S
C825 C826 1.398 . S
C826 H814 0.950 . S
C826 C825 1.398 . S
C826 C827 1.391 . S
C827 H815 0.950 . S
C827 C823 1.393 . S
C827 C826 1.391 . S
H828 C836 0.950 . S
H829 C841 0.950 . S
H830 C838 0.950 . S
H831 C840 0.950 . S
H832 C842 0.950 . S
H833 C844 0.950 . S
H834 C846 0.950 . S
H835 C847 0.950 . S
C836 H828 0.950 . S
C836 C837 1.386 . S
C836 C838 1.391 . S
C837 C836 1.386 . S
C837 C841 1.393 . S
C838 H830 0.950 . S
C838 C836 1.391 . S
C838 C839 1.400 . S
C839 C838 1.400 . S
C839 C840 1.398 . S
C839 C845 1.491 . S
C840 H831 0.950 . S
C840 C839 1.398 . S
C840 C841 1.391 . S
C841 H829 0.950 . S
C841 C837 1.393 . S
C841 C840 1.391 . S
C842 H832 0.950 . S
C842 C843 1.386 . S
C842 C844 1.391 . S
C843 C842 1.386 . S
C843 C847 1.393 . S
C844 H833 0.950 . S
C844 C842 1.391 . S
C844 C845 1.400 . S
C845 C839 1.491 . S
C845 C844 1.400 . S
C845 C846 1.398 . S
C846 H834 0.950 . S
C846 C845 1.398 . S
C846 C847 1.391 . S
C847 H835 0.950 . S
C847 C843 1.393 . S
C847 C846 1.391 . S
H848 C856 0.950 . S
H849 C861 0.950 . S
H850 C858 0.950 . S
H851 C860 0.950 . S
H852 C862 0.950 . S
H853 C864 0.950 . S
H854 C866 0.950 . S
H855 C867 0.950 . S
C856 H848 0.950 . S
C856 C857 1.386 . S
C856 C858 1.391 . S
C857 C856 1.386 . S
C857 C861 1.393 . S
C858 H850 0.950 . S
C858 C856 1.391 . S
C858 C859 1.400 . S
C859 C858 1.400 . S
C859 C860 1.398 . S
C859 C865 1.491 . S
C860 H851 0.950 . S
C860 C859 1.398 . S
C860 C861 1.391 . S
C861 H849 0.950 . S
C861 C857 1.393 . S
C861 C860 1.391 . S
C862 H852 0.950 . S
C862 C863 1.386 . S
C862 C864 1.391 . S
C863 C862 1.386 . S
C863 C867 1.393 . S
C864 H853 0.950 . S
C864 C862 1.391 . S
C864 C865 1.400 . S
C865 C859 1.491 . S
C865 C864 1.400 . S
C865 C866 1.398 . S
C866 H854 0.950 . S
C866 C865 1.398 . S
C866 C867 1.391 . S
C867 H855 0.950 . S
C867 C863 1.393 . S
C867 C866 1.391 . S
H868 C876 0.950 . S
H869 C881 0.950 . S
H870 C878 0.950 . S
H871 C880 0.950 . S
H872 C882 0.950 . S
H873 C884 0.950 . S
H874 C886 0.950 . S
H875 C887 0.950 . S
C876 H868 0.950 . S
C876 C877 1.386 . S
C876 C878 1.391 . S
C877 C876 1.386 . S
C877 C881 1.393 . S
C878 H870 0.950 . S
C878 C876 1.391 . S
C878 C879 1.400 . S
C879 C878 1.400 . S
C879 C880 1.398 . S
C879 C885 1.491 . S
C880 H871 0.950 . S
C880 C879 1.398 . S
C880 C881 1.391 . S
C881 H869 0.950 . S
C881 C877 1.393 . S
C881 C880 1.391 . S
C882 H872 0.950 . S
C882 C883 1.386 . S
C882 C884 1.391 . S
C883 C882 1.386 . S
C883 C887 1.393 . S
C884 H873 0.950 . S
C884 C882 1.391 . S
C884 C885 1.400 . S
C885 C879 1.491 . S
C885 C884 1.400 . S
C885 C886 1.398 . S
C886 H874 0.950 . S
C886 C885 1.398 . S
C886 C887 1.391 . S
C887 H875 0.950 . S
C887 C883 1.393 . S
C887 C886 1.391 . S
H888 C896 0.950 . S
H889 C901 0.950 . S
H890 C898 0.950 . S
H891 C900 0.950 . S
H892 C902 0.950 . S
H893 C904 0.950 . S
H894 C906 0.950 . S
H895 C907 0.950 . S
C896 H888 0.950 . S
C896 C897 1.386 . S
C896 C898 1.391 . S
C897 C896 1.386 . S
C897 C901 1.393 . S
C898 H890 0.950 . S
C898 C896 1.391 . S
C898 C899 1.400 . S
C899 C898 1.400 . S
C899 C900 1.398 . S
C899 C905 1.491 . S
C900 H891 0.950 . S
C900 C899 1.398 . S
C900 C901 1.391 . S
C901 H889 0.950 . S
C901 C897 1.393 . S
C901 C900 1.391 . S
C902 H892 0.950 . S
C902 C903 1.386 . S
C902 C904 1.391 . S
C903 C902 1.386 . S
C903 C907 1.393 . S
C904 H893 0.950 . S
C904 C902 1.391 . S
C904 C905 1.400 . S
C905 C899 1.491 . S
C905 C904 1.400 . S
C905 C906 1.398 . S
C906 H894 0.950 . S
C906 C905 1.398 . S
C906 C907 1.391 . S
C907 H895 0.950 . S
C907 C903 1.393 . S
C907 C906 1.391 . S
H908 C916 0.950 . S
H909 C921 0.950 . S
H910 C918 0.950 . S
H911 C920 0.950 . S
H912 C922 0.950 . S
H913 C924 0.950 . S
H914 C926 0.950 . S
H915 C927 0.950 . S
C916 H908 0.950 . S
C916 C917 1.386 . S
C916 C918 1.391 . S
C917 C916 1.386 . S
C917 C921 1.393 . S
C918 H910 0.950 . S
C918 C916 1.391 . S
C918 C919 1.400 . S
C919 C918 1.400 . S
C919 C920 1.398 . S
C919 C925 1.491 . S
C920 H911 0.950 . S
C920 C919 1.398 . S
C920 C921 1.391 . S
C921 H909 0.950 . S
C921 C917 1.393 . S
C921 C920 1.391 . S
C922 H912 0.950 . S
C922 C923 1.386 . S
C922 C924 1.391 . S
C923 C922 1.386 . S
C923 C927 1.393 . S
C924 H913 0.950 . S
C924 C922 1.391 . S
C924 C925 1.400 . S
C925 C919 1.491 . S
C925 C924 1.400 . S
C925 C926 1.398 . S
C926 H914 0.950 . S
C926 C925 1.398 . S
C926 C927 1.391 . S
C927 H915 0.950 . S
C927 C923 1.393 . S
C927 C926 1.391 . S
H928 C936 0.950 . S
H929 C941 0.950 . S
H930 C938 0.950 . S
H931 C940 0.950 . S
H932 C942 0.950 . S
H933 C944 0.950 . S
H934 C946 0.950 . S
H935 C947 0.950 . S
C936 H928 0.950 . S
C936 C937 1.386 . S
C936 C938 1.391 . S
C937 C936 1.386 . S
C937 C941 1.393 . S
C938 H930 0.950 . S
C938 C936 1.391 . S
C938 C939 1.400 . S
C939 C938 1.400 . S
C939 C940 1.398 . S
C939 C945 1.491 . S
C940 H931 0.950 . S
C940 C939 1.398 . S
C940 C941 1.391 . S
C941 H929 0.950 . S
C941 C937 1.393 . S
C941 C940 1.391 . S
C942 H932 0.950 . S
C942 C943 1.386 . S
C942 C944 1.391 . S
C943 C942 1.386 . S
C943 C947 1.393 . S
C944 H933 0.950 . S
C944 C942 1.391 . S
C944 C945 1.400 . S
C945 C939 1.491 . S
C945 C944 1.400 . S
C945 C946 1.398 . S
C946 H934 0.950 . S
C946 C945 1.398 . S
C946 C947 1.391 . S
C947 H935 0.950 . S
C947 C943 1.393 . S
C947 C946 1.391 . S
H948 C956 0.950 . S
H949 C961 0.950 . S
H950 C958 0.950 . S
H951 C960 0.950 . S
H952 C962 0.950 . S
H953 C964 0.950 . S
H954 C966 0.950 . S
H955 C967 0.950 . S
C956 H948 0.950 . S
C956 C957 1.386 . S
C956 C958 1.391 . S
C957 C956 1.386 . S
C957 C961 1.393 . S
C958 H950 0.950 . S
C958 C956 1.391 . S
C958 C959 1.400 . S
C959 C958 1.400 . S
C959 C960 1.398 . S
C959 C965 1.491 . S
C960 H951 0.950 . S
C960 C959 1.398 . S
C960 C961 1.391 . S
C961 H949 0.950 . S
C961 C957 1.393 . S
C961 C960 1.391 . S
C962 H952 0.950 . S
C962 C963 1.386 . S
C962 C964 1.391 . S
C963 C962 1.386 . S
C963 C967 1.393 . S
C964 H953 0.950 . S
C964 C962 1.391 . S
C964 C965 1.400 . S
C965 C959 1.491 . S
C965 C964 1.400 . S
C965 C966 1.398 . S
C966 H954 0.950 . S
C966 C965 1.398 . S
C966 C967 1.391 . S
C967 H955 0.950 . S
C967 C963 1.393 . S
C967 C966 1.391 . S
H968 C976 0.950 . S
H969 C981 0.950 . S
H970 C978 0.950 . S
H971 C980 0.950 . S
H972 C982 0.950 . S
H973 C984 0.950 . S
H974 C986 0.950 . S
H975 C987 0.950 . S
C976 H968 0.950 . S
C976 C977 1.386 . S
C976 C978 1.391 . S
C977 C976 1.386 . S
C977 C981 1.393 . S
C978 H970 0.950 . S
C978 C976 1.391 . S
C978 C979 1.400 . S
C979 C978 1.400 . S
C979 C980 1.398 . S
C979 C985 1.491 . S
C980 H971 0.950 . S
C980 C979 1.398 . S
C980 C981 1.391 . S
C981 H969 0.950 . S
C981 C977 1.393 . S
C981 C980 1.391 . S
C982 H972 0.950 . S
C982 C983 1.386 . S
C982 C984 1.391 . S
C983 C982 1.386 . S
C983 C987 1.393 . S
C984 H973 0.950 . S
C984 C982 1.391 . S
C984 C985 1.400 . S
C985 C979 1.491 . S
C985 C984 1.400 . S
C985 C986 1.398 . S
C986 H974 0.950 . S
C986 C985 1.398 . S
C986 C987 1.391 . S
C987 H975 0.950 . S
C987 C983 1.393 . S
C987 C986 1.391 . S
H988 C996 0.950 . S
H989 C1001 0.950 . S
H990 C998 0.950 . S
H991 C1000 0.950 . S
H992 C1002 0.950 . S
H993 C1004 0.950 . S
H994 C1006 0.950 . S
H995 C1007 0.950 . S
C996 H988 0.950 . S
C996 C997 1.386 . S
C996 C998 1.391 . S
C997 C996 1.386 . S
C997 C1001 1.393 . S
C998 H990 0.950 . S
C998 C996 1.391 . S
C998 C999 1.400 . S
C999 C998 1.400 . S
C999 C1000 1.398 . S
C999 C1005 1.491 . S
C1000 H991 0.950 . S
C1000 C999 1.398 . S
C1000 C1001 1.391 . S
C1001 H989 0.950 . S
C1001 C997 1.393 . S
C1001 C1000 1.391 . S
C1002 H992 0.950 . S
C1002 C1003 1.386 . S
C1002 C1004 1.391 . S
C1003 C1002 1.386 . S
C1003 C1007 1.393 . S
C1004 H993 0.950 . S
C1004 C1002 1.391 . S
C1004 C1005 1.400 . S
C1005 C999 1.491 . S
C1005 C1004 1.400 . S
C1005 C1006 1.398 . S
C1006 H994 0.950 . S
C1006 C1005 1.398 . S
C1006 C1007 1.391 . S
C1007 H995 0.950 . S
C1007 C1003 1.393 . S
C1007 C1006 1.391 . S
H1008 C1016 0.950 . S
H1009 C1021 0.950 . S
H1010 C1018 0.950 . S
H1011 C1020 0.950 . S
H1012 C1022 0.950 . S
H1013 C1024 0.950 . S
H1014 C1026 0.950 . S
H1015 C1027 0.950 . S
C1016 H1008 0.950 . S
C1016 C1017 1.386 . S
C1016 C1018 1.391 . S
C1017 C1016 1.386 . S
C1017 C1021 1.393 . S
C1018 H1010 0.950 . S
C1018 C1016 1.391 . S
C1018 C1019 1.400 . S
C1019 C1018 1.400 . S
C1019 C1020 1.398 . S
C1019 C1025 1.491 . S
C1020 H1011 0.950 . S
C1020 C1019 1.398 . S
C1020 C1021 1.391 . S
C1021 H1009 0.950 . S
C1021 C1017 1.393 . S
C1021 C1020 1.391 . S
C1022 H1012 0.950 . S
C1022 C1023 1.386 . S
C1022 C1024 1.391 . S
C1023 C1022 1.386 . S
C1023 C1027 1.393 . S
C1024 H1013 0.950 . S
C1024 C1022 1.391 . S
C1024 C1025 1.400 . S
C1025 C1019 1.491 . S
C1025 C1024 1.400 . S
C1025 C1026 1.398 . S
C1026 H1014 0.950 . S
C1026 C1025 1.398 . S
C1026 C1027 1.391 . S
C1027 H1015 0.950 . S
C1027 C1023 1.393 . S
C1027 C1026 1.391 . S
H1028 C1036 0.950 . S
H1029 C1041 0.950 . S
H1030 C1038 0.950 . S
H1031 C1040 0.950 . S
H1032 C1042 0.950 1_554 S
H1033 C1044 0.950 . S
H1034 C1046 0.950 . S
H1035 C1047 0.950 . S
C1036 H1028 0.950 . S
C1036 C1037 1.386 . S
C1036 C1038 1.391 . S
C1037 C1036 1.386 . S
C1037 C1041 1.393 . S
C1038 H1030 0.950 . S
C1038 C1036 1.391 . S
C1038 C1039 1.400 . S
C1039 C1038 1.400 . S
C1039 C1040 1.398 . S
C1039 C1045 1.491 . S
C1040 H1031 0.950 . S
C1040 C1039 1.398 . S
C1040 C1041 1.391 . S
C1041 H1029 0.950 . S
C1041 C1037 1.393 . S
C1041 C1040 1.391 . S
C1042 H1032 0.950 1_556 S
C1042 C1043 1.386 . S
C1042 C1044 1.391 . S
C1043 C1042 1.386 . S
C1043 C1047 1.393 . S
C1044 H1033 0.950 . S
C1044 C1042 1.391 . S
C1044 C1045 1.400 . S
C1045 C1039 1.491 . S
C1045 C1044 1.400 . S
C1045 C1046 1.398 . S
C1046 H1034 0.950 . S
C1046 C1045 1.398 . S
C1046 C1047 1.391 . S
C1047 H1035 0.950 . S
C1047 C1043 1.393 . S
C1047 C1046 1.391 . S
H1048 C1056 0.950 . S
H1049 C1061 0.950 . S
H1050 C1058 0.950 . S
H1051 C1060 0.950 . S
H1052 C1062 0.950 . S
H1053 C1064 0.950 . S
H1054 C1066 0.950 . S
H1055 C1067 0.950 . S
C1056 H1048 0.950 . S
C1056 C1057 1.386 . S
C1056 C1058 1.391 . S
C1057 C1056 1.386 . S
C1057 C1061 1.393 . S
C1058 H1050 0.950 . S
C1058 C1056 1.391 . S
C1058 C1059 1.400 . S
C1059 C1058 1.400 . S
C1059 C1060 1.398 . S
C1059 C1065 1.491 . S
C1060 H1051 0.950 . S
C1060 C1059 1.398 . S
C1060 C1061 1.391 . S
C1061 H1049 0.950 . S
C1061 C1057 1.393 . S
C1061 C1060 1.391 . S
C1062 H1052 0.950 . S
C1062 C1063 1.386 . S
C1062 C1064 1.391 . S
C1063 C1062 1.386 . S
C1063 C1067 1.393 . S
C1064 H1053 0.950 . S
C1064 C1062 1.391 . S
C1064 C1065 1.400 . S
C1065 C1059 1.491 . S
C1065 C1064 1.400 . S
C1065 C1066 1.398 . S
C1066 H1054 0.950 . S
C1066 C1065 1.398 . S
C1066 C1067 1.391 . S
C1067 H1055 0.950 . S
C1067 C1063 1.393 . S
C1067 C1066 1.391 . S
H1068 C1076 0.950 . S
H1069 C1081 0.950 . S
H1070 C1078 0.950 . S
H1071 C1080 0.950 . S
H1072 C1082 0.950 . S
H1073 C1084 0.950 . S
H1074 C1086 0.950 . S
H1075 C1087 0.950 . S
C1076 H1068 0.950 . S
C1076 C1077 1.386 . S
C1076 C1078 1.391 . S
C1077 C1076 1.386 . S
C1077 C1081 1.393 . S
C1078 H1070 0.950 . S
C1078 C1076 1.391 . S
C1078 C1079 1.400 . S
C1079 C1078 1.400 . S
C1079 C1080 1.398 . S
C1079 C1085 1.491 . S
C1080 H1071 0.950 . S
C1080 C1079 1.398 . S
C1080 C1081 1.391 . S
C1081 H1069 0.950 . S
C1081 C1077 1.393 . S
C1081 C1080 1.391 . S
C1082 H1072 0.950 . S
C1082 C1083 1.386 . S
C1082 C1084 1.391 . S
C1083 C1082 1.386 . S
C1083 C1087 1.393 . S
C1084 H1073 0.950 . S
C1084 C1082 1.391 . S
C1084 C1085 1.400 . S
C1085 C1079 1.491 . S
C1085 C1084 1.400 . S
C1085 C1086 1.398 . S
C1086 H1074 0.950 . S
C1086 C1085 1.398 . S
C1086 C1087 1.391 . S
C1087 H1075 0.950 . S
C1087 C1083 1.393 . S
C1087 C1086 1.391 . S
H1088 C1096 0.950 . S
H1089 C1101 0.950 . S
H1090 C1098 0.950 . S
H1091 C1100 0.950 . S
H1092 C1102 0.950 . S
H1093 C1104 0.950 . S
H1094 C1106 0.950 . S
H1095 C1107 0.950 . S
C1096 H1088 0.950 . S
C1096 C1097 1.386 . S
C1096 C1098 1.391 . S
C1097 C1096 1.386 . S
C1097 C1101 1.393 . S
C1098 H1090 0.950 . S
C1098 C1096 1.391 . S
C1098 C1099 1.400 . S
C1099 C1098 1.400 . S
C1099 C1100 1.398 . S
C1099 C1105 1.491 . S
C1100 H1091 0.950 . S
C1100 C1099 1.398 . S
C1100 C1101 1.391 . S
C1101 H1089 0.950 . S
C1101 C1097 1.393 . S
C1101 C1100 1.391 . S
C1102 H1092 0.950 . S
C1102 C1103 1.386 . S
C1102 C1104 1.391 . S
C1103 C1102 1.386 . S
C1103 C1107 1.393 . S
C1104 H1093 0.950 . S
C1104 C1102 1.391 . S
C1104 C1105 1.400 . S
C1105 C1099 1.491 . S
C1105 C1104 1.400 . S
C1105 C1106 1.398 . S
C1106 H1094 0.950 . S
C1106 C1105 1.398 . S
C1106 C1107 1.391 . S
C1107 H1095 0.950 . S
C1107 C1103 1.393 . S
C1107 C1106 1.391 . S
H1108 C1116 0.950 . S
H1109 C1121 0.950 . S
H1110 C1118 0.950 . S
H1111 C1120 0.950 . S
H1112 C1122 0.950 1_556 S
H1113 C1124 0.950 . S
H1114 C1126 0.950 . S
H1115 C1127 0.950 . S
C1116 H1108 0.950 . S
C1116 C1117 1.386 . S
C1116 C1118 1.391 . S
C1117 C1116 1.386 . S
C1117 C1121 1.393 . S
C1118 H1110 0.950 . S
C1118 C1116 1.391 . S
C1118 C1119 1.400 . S
C1119 C1118 1.400 . S
C1119 C1120 1.398 . S
C1119 C1125 1.491 . S
C1120 H1111 0.950 . S
C1120 C1119 1.398 . S
C1120 C1121 1.391 . S
C1121 H1109 0.950 . S
C1121 C1117 1.393 . S
C1121 C1120 1.391 . S
C1122 H1112 0.950 1_554 S
C1122 C1123 1.386 . S
C1122 C1124 1.391 . S
C1123 C1122 1.386 . S
C1123 C1127 1.393 . S
C1124 H1113 0.950 . S
C1124 C1122 1.391 . S
C1124 C1125 1.400 . S
C1125 C1119 1.491 . S
C1125 C1124 1.400 . S
C1125 C1126 1.398 . S
C1126 H1114 0.950 . S
C1126 C1125 1.398 . S
C1126 C1127 1.391 . S
C1127 H1115 0.950 . S
C1127 C1123 1.393 . S
C1127 C1126 1.391 . S
H1128 C1136 0.950 . S
H1129 C1141 0.950 . S
H1130 C1138 0.950 . S
H1131 C1140 0.950 . S
H1132 C1142 0.950 . S
H1133 C1144 0.950 . S
H1134 C1146 0.950 1_554 S
H1135 C1147 0.950 1_554 S
C1136 H1128 0.950 . S
C1136 C1137 1.386 . S
C1136 C1138 1.391 . S
C1137 C1136 1.386 . S
C1137 C1141 1.393 . S
C1138 H1130 0.950 . S
C1138 C1136 1.391 . S
C1138 C1139 1.400 . S
C1139 C1138 1.400 . S
C1139 C1140 1.398 . S
C1139 C1145 1.491 . S
C1140 H1131 0.950 . S
C1140 C1139 1.398 . S
C1140 C1141 1.391 . S
C1141 H1129 0.950 . S
C1141 C1137 1.393 . S
C1141 C1140 1.391 . S
C1142 H1132 0.950 . S
C1142 C1143 1.386 . S
C1142 C1144 1.391 . S
C1143 C1142 1.386 . S
C1143 C1147 1.393 . S
C1144 H1133 0.950 . S
C1144 C1142 1.391 . S
C1144 C1145 1.400 . S
C1145 C1139 1.491 . S
C1145 C1144 1.400 . S
C1145 C1146 1.398 . S
C1146 H1134 0.950 1_556 S
C1146 C1145 1.398 . S
C1146 C1147 1.391 . S
C1147 H1135 0.950 1_556 S
C1147 C1143 1.393 . S
C1147 C1146 1.391 . S
H1148 C1156 0.950 . S
H1149 C1161 0.950 . S
H1150 C1158 0.950 . S
H1151 C1160 0.950 . S
H1152 C1162 0.950 . S
H1153 C1164 0.950 . S
H1154 C1166 0.950 . S
H1155 C1167 0.950 . S
C1156 H1148 0.950 . S
C1156 C1157 1.386 . S
C1156 C1158 1.391 . S
C1157 C1156 1.386 . S
C1157 C1161 1.393 . S
C1158 H1150 0.950 . S
C1158 C1156 1.391 . S
C1158 C1159 1.400 . S
C1159 C1158 1.400 . S
C1159 C1160 1.398 . S
C1159 C1165 1.491 . S
C1160 H1151 0.950 . S
C1160 C1159 1.398 . S
C1160 C1161 1.391 . S
C1161 H1149 0.950 . S
C1161 C1157 1.393 . S
C1161 C1160 1.391 . S
C1162 H1152 0.950 . S
C1162 C1163 1.386 . S
C1162 C1164 1.391 . S
C1163 C1162 1.386 . S
C1163 C1167 1.393 . S
C1164 H1153 0.950 . S
C1164 C1162 1.391 . S
C1164 C1165 1.400 . S
C1165 C1159 1.491 . S
C1165 C1164 1.400 . S
C1165 C1166 1.398 . S
C1166 H1154 0.950 . S
C1166 C1165 1.398 . S
C1166 C1167 1.391 . S
C1167 H1155 0.950 . S
C1167 C1163 1.393 . S
C1167 C1166 1.391 . S
H1168 C1176 0.950 . S
H1169 C1181 0.950 . S
H1170 C1178 0.950 . S
H1171 C1180 0.950 . S
H1172 C1182 0.950 . S
H1173 C1184 0.950 . S
H1174 C1186 0.950 . S
H1175 C1187 0.950 . S
C1176 H1168 0.950 . S
C1176 C1177 1.386 1_556 S
C1176 C1178 1.391 . S
C1177 C1176 1.386 1_554 S
C1177 C1181 1.393 1_545 S
C1178 H1170 0.950 . S
C1178 C1176 1.391 . S
C1178 C1179 1.400 1_556 S
C1179 C1178 1.400 1_554 S
C1179 C1180 1.398 1_545 S
C1179 C1185 1.491 . S
C1180 H1171 0.950 . S
C1180 C1179 1.398 1_565 S
C1180 C1181 1.391 . S
C1181 H1169 0.950 . S
C1181 C1177 1.393 1_565 S
C1181 C1180 1.391 . S
C1182 H1172 0.950 . S
C1182 C1183 1.378 1_564 S
C1182 C1184 1.391 . S
C1183 C1182 1.378 1_546 S
C1183 C1187 1.400 . S
C1184 H1173 0.950 . S
C1184 C1182 1.391 . S
C1184 C1185 1.400 1_565 S
C1185 C1179 1.491 . S
C1185 C1184 1.400 1_545 S
C1185 C1186 1.398 1_554 S
C1186 H1174 0.950 . S
C1186 C1185 1.398 1_556 S
C1186 C1187 1.391 . S
C1187 H1175 0.950 . S
C1187 C1183 1.400 . S
C1187 C1186 1.391 . S
H1188 C1196 0.950 . S
H1189 C1201 0.950 . S
H1190 C1198 0.950 . S
H1191 C1200 0.950 . S
H1192 C1202 0.950 . S
H1193 C1204 0.950 . S
H1194 C1206 0.950 . S
H1195 C1207 0.950 . S
C1196 H1188 0.950 . S
C1196 C1197 1.386 . S
C1196 C1198 1.391 . S
C1197 C1196 1.386 . S
C1197 C1201 1.393 . S
C1198 H1190 0.950 . S
C1198 C1196 1.391 . S
C1198 C1199 1.400 . S
C1199 C1198 1.400 . S
C1199 C1200 1.398 . S
C1199 C1205 1.491 . S
C1200 H1191 0.950 . S
C1200 C1199 1.398 . S
C1200 C1201 1.391 . S
C1201 H1189 0.950 . S
C1201 C1197 1.393 . S
C1201 C1200 1.391 . S
C1202 H1192 0.950 . S
C1202 C1203 1.386 . S
C1202 C1204 1.391 . S
C1203 C1202 1.386 . S
C1203 C1207 1.393 . S
C1204 H1193 0.950 . S
C1204 C1202 1.391 . S
C1204 C1205 1.400 . S
C1205 C1199 1.491 . S
C1205 C1204 1.400 . S
C1205 C1206 1.398 . S
C1206 H1194 0.950 . S
C1206 C1205 1.398 . S
C1206 C1207 1.391 . S
C1207 H1195 0.950 . S
C1207 C1203 1.393 . S
C1207 C1206 1.391 . S
H1208 C1216 0.950 . S
H1209 C1221 0.950 1_565 S
H1210 C1218 0.950 . S
H1211 C1220 0.950 1_565 S
H1212 C1222 0.954 . S
H1213 C1224 0.949 . S
H1214 C1226 0.950 . S
H1215 C1227 0.950 . S
C1216 H1208 0.950 . S
C1216 C1217 1.386 . S
C1216 C1218 1.391 . S
C1217 C1216 1.386 . S
C1217 C1221 1.393 . S
C1218 H1210 0.950 . S
C1218 C1216 1.391 . S
C1218 C1219 1.400 . S
C1219 C1218 1.400 . S
C1219 C1220 1.398 . S
C1219 C1225 1.491 1_455 S
C1220 H1211 0.950 1_545 S
C1220 C1219 1.398 . S
C1220 C1221 1.391 . S
C1221 H1209 0.950 1_545 S
C1221 C1217 1.393 . S
C1221 C1220 1.391 . S
C1222 H1212 0.954 . S
C1222 C1223 1.382 1_565 S
C1222 C1224 1.391 . S
C1223 C1222 1.382 1_545 S
C1223 C1227 1.393 . S
C1224 H1213 0.949 . S
C1224 C1222 1.391 . S
C1224 C1225 1.401 1_565 S
C1225 C1219 1.491 1_655 S
C1225 C1224 1.401 1_545 S
C1225 C1226 1.398 . S
C1226 H1214 0.950 . S
C1226 C1225 1.398 . S
C1226 C1227 1.391 . S
C1227 H1215 0.950 . S
C1227 C1223 1.393 . S
C1227 C1226 1.391 . S
H1228 C1236 0.950 . S
H1229 C1241 0.950 . S
H1230 C1238 0.950 . S
H1231 C1240 0.950 . S
H1232 C1242 0.950 . S
H1233 C1244 0.950 . S
H1234 C1246 0.950 . S
H1235 C1247 0.950 . S
C1236 H1228 0.950 . S
C1236 C1237 1.386 . S
C1236 C1238 1.391 . S
C1237 C1236 1.386 . S
C1237 C1241 1.393 . S
C1238 H1230 0.950 . S
C1238 C1236 1.391 . S
C1238 C1239 1.400 . S
C1239 C1238 1.400 . S
C1239 C1240 1.398 . S
C1239 C1245 1.491 . S
C1240 H1231 0.950 . S
C1240 C1239 1.398 . S
C1240 C1241 1.391 . S
C1241 H1229 0.950 . S
C1241 C1237 1.393 . S
C1241 C1240 1.391 . S
C1242 H1232 0.950 . S
C1242 C1243 1.386 . S
C1242 C1244 1.391 . S
C1243 C1242 1.386 . S
C1243 C1247 1.393 . S
C1244 H1233 0.950 . S
C1244 C1242 1.391 . S
C1244 C1245 1.400 . S
C1245 C1239 1.491 . S
C1245 C1244 1.400 . S
C1245 C1246 1.398 . S
C1246 H1234 0.950 . S
C1246 C1245 1.398 . S
C1246 C1247 1.391 . S
C1247 H1235 0.950 . S
C1247 C1243 1.393 . S
C1247 C1246 1.391 . S
H1248 C1256 0.950 . S
H1249 C1261 0.950 . S
H1250 C1258 0.950 . S
H1251 C1260 0.950 . S
H1252 C1262 0.950 . S
H1253 C1264 0.950 . S
H1254 C1266 0.950 . S
H1255 C1267 0.950 . S
C1256 H1248 0.950 . S
C1256 C1257 1.386 . S
C1256 C1258 1.391 . S
C1257 C1256 1.386 . S
C1257 C1261 1.393 . S
C1258 H1250 0.950 . S
C1258 C1256 1.391 . S
C1258 C1259 1.400 . S
C1259 C1258 1.400 . S
C1259 C1260 1.398 . S
C1259 C1265 1.491 . S
C1260 H1251 0.950 . S
C1260 C1259 1.398 . S
C1260 C1261 1.391 . S
C1261 H1249 0.950 . S
C1261 C1257 1.393 . S
C1261 C1260 1.391 . S
C1262 H1252 0.950 . S
C1262 C1263 1.386 . S
C1262 C1264 1.391 . S
C1263 C1262 1.386 . S
C1263 C1267 1.393 . S
C1264 H1253 0.950 . S
C1264 C1262 1.391 . S
C1264 C1265 1.400 . S
C1265 C1259 1.491 . S
C1265 C1264 1.400 . S
C1265 C1266 1.398 . S
C1266 H1254 0.950 . S
C1266 C1265 1.398 . S
C1266 C1267 1.391 . S
C1267 H1255 0.950 . S
C1267 C1263 1.393 . S
C1267 C1266 1.391 . S
H1268 C1276 0.950 . S
H1269 C1281 0.950 . S
H1270 C1278 0.950 . S
H1271 C1280 0.950 . S
H1272 C1282 0.950 . S
H1273 C1284 0.950 . S
H1274 C1286 0.950 . S
H1275 C1287 0.950 . S
C1276 H1268 0.950 . S
C1276 C1277 1.386 . S
C1276 C1278 1.391 . S
C1277 C1276 1.386 . S
C1277 C1281 1.393 . S
C1278 H1270 0.950 . S
C1278 C1276 1.391 . S
C1278 C1279 1.400 . S
C1279 C1278 1.400 . S
C1279 C1280 1.398 . S
C1279 C1285 1.491 . S
C1280 H1271 0.950 . S
C1280 C1279 1.398 . S
C1280 C1281 1.391 . S
C1281 H1269 0.950 . S
C1281 C1277 1.393 . S
C1281 C1280 1.391 . S
C1282 H1272 0.950 . S
C1282 C1283 1.386 . S
C1282 C1284 1.391 . S
C1283 C1282 1.386 . S
C1283 C1287 1.393 . S
C1284 H1273 0.950 . S
C1284 C1282 1.391 . S
C1284 C1285 1.400 . S
C1285 C1279 1.491 . S
C1285 C1284 1.400 . S
C1285 C1286 1.398 . S
C1286 H1274 0.950 . S
C1286 C1285 1.398 . S
C1286 C1287 1.391 . S
C1287 H1275 0.950 . S
C1287 C1283 1.393 . S
C1287 C1286 1.391 . S
H1288 C1296 0.950 . S
H1289 C1301 0.950 . S
H1290 C1298 0.950 . S
H1291 C1300 0.950 . S
H1292 C1302 0.950 . S
H1293 C1304 0.950 . S
H1294 C1306 0.950 . S
H1295 C1307 0.950 . S
C1296 H1288 0.950 . S
C1296 C1297 1.386 . S
C1296 C1298 1.391 . S
C1297 C1296 1.386 . S
C1297 C1301 1.393 . S
C1298 H1290 0.950 . S
C1298 C1296 1.391 . S
C1298 C1299 1.400 . S
C1299 C1298 1.400 . S
C1299 C1300 1.398 . S
C1299 C1305 1.491 1_655 S
C1300 H1291 0.950 . S
C1300 C1299 1.398 . S
C1300 C1301 1.391 . S
C1301 H1289 0.950 . S
C1301 C1297 1.393 . S
C1301 C1300 1.391 . S
C1302 H1292 0.950 . S
C1302 C1303 1.386 . S
C1302 C1304 1.391 . S
C1303 C1302 1.386 . S
C1303 C1307 1.393 . S
C1304 H1293 0.950 . S
C1304 C1302 1.391 . S
C1304 C1305 1.400 . S
C1305 C1299 1.491 1_455 S
C1305 C1304 1.400 . S
C1305 C1306 1.398 . S
C1306 H1294 0.950 . S
C1306 C1305 1.398 . S
C1306 C1307 1.391 . S
C1307 H1295 0.950 . S
C1307 C1303 1.393 . S
C1307 C1306 1.391 . S
H1308 C1316 0.950 . S
H1309 C1321 0.950 1_556 S
H1310 C1318 0.950 . S
H1311 C1320 0.951 . S
H1312 C1322 0.950 . S
H1313 C1324 0.950 . S
H1314 C1326 0.950 . S
H1315 C1327 0.950 . S
C1316 H1308 0.950 . S
C1316 C1317 1.386 . S
C1316 C1318 1.391 . S
C1317 C1316 1.386 . S
C1317 C1321 1.393 . S
C1318 H1310 0.950 . S
C1318 C1316 1.391 . S
C1318 C1319 1.400 . S
C1319 C1318 1.400 . S
C1319 C1320 1.398 . S
C1319 C1325 1.491 . S
C1320 H1311 0.951 . S
C1320 C1319 1.398 . S
C1320 C1321 1.391 . S
C1321 H1309 0.950 1_554 S
C1321 C1317 1.393 . S
C1321 C1320 1.391 . S
C1322 H1312 0.950 . S
C1322 C1323 1.386 . S
C1322 C1324 1.391 . S
C1323 C1322 1.386 . S
C1323 C1327 1.393 1_556 S
C1324 H1313 0.950 . S
C1324 C1322 1.391 . S
C1324 C1325 1.400 1_556 S
C1325 C1319 1.491 . S
C1325 C1324 1.400 1_554 S
C1325 C1326 1.398 . S
C1326 H1314 0.950 . S
C1326 C1325 1.398 . S
C1326 C1327 1.391 . S
C1327 H1315 0.950 . S
C1327 C1323 1.393 1_554 S
C1327 C1326 1.391 . S
C537 N5 1.422 . S
C543 N14 1.418 1_545 S
C557 N38 1.430 1_556 S
C563 N47 1.426 . S
C577 N80 1.417 1_545 S
C583 N71 1.421 . S
C597 N113 1.416 . S
C603 N104 1.419 1_554 S
C617 N146 1.412 . S
C623 N137 1.418 1_545 S
C637 N179 1.411 . S
C643 N170 1.417 1_554 S
C657 N203 1.419 1_545 S
C663 N212 1.412 . S
C677 N245 1.415 . S
C683 N236 1.419 1_556 S
C697 N269 1.422 . S
C703 N278 1.418 . S
C717 N302 1.430 . S
C723 N311 1.425 1_554 S
C737 N344 1.411 . S
C743 N335 1.417 . S
C757 N368 1.414 . S
C763 N377 1.407 1_556 S
C777 N401 1.411 . S
C783 N410 1.406 . S
C797 N443 1.413 1_556 S
C803 N434 1.420 . S
C817 N467 1.426 . S
C823 N476 1.422 . S
C837 N509 1.415 1_554 S
C843 N500 1.419 . S
C857 C8 1.350 . S
C863 C61 1.340 . S
C877 C74 1.428 . S
C883 C41 1.432 . S
C897 C107 1.351 . S
C903 C94 1.334 . S
C917 C28 1.257 . S
C923 C127 1.261 . S
C937 C193 1.343 . S
C943 C140 1.342 . S
C957 C173 1.429 . S
C963 C206 1.423 . S
C977 C226 1.334 . S
C983 C239 1.352 . S
C997 C259 1.253 . S
C1003 C160 1.264 . S
C1017 C325 1.334 . S
C1023 C272 1.352 . S
C1037 C305 1.422 . S
C1043 C338 1.430 . S
C1057 C358 1.339 . S
C1063 C371 1.345 . S
C1077 C391 1.266 . S
C1083 C292 1.251 . S
C1097 C404 1.341 . S
C1103 C457 1.345 . S
C1117 C437 1.433 . S
C1123 C470 1.424 . S
C1137 C503 1.341 . S
C1143 C490 1.349 . S
C1157 C424 1.259 . S
C1163 C523 1.257 . S
C1177 C17 1.201 . S
C1183 C149 1.200 1_556 S
C1197 C446 1.271 . S
C1203 C50 1.271 . S
C1217 C83 1.269 . S
C1223 C215 1.269 . S
C1237 C512 1.195 . S
C1243 C116 1.195 . S
C1257 C314 1.267 . S
C1263 C182 1.267 . S
C1277 C248 1.200 . S
C1283 C380 1.200 . S
C1297 C281 1.201 . S
C1303 C413 1.201 . S
C1317 C479 1.270 . S
C1323 C347 1.270 1_556 S
