# Generated by pormake.
# Topology yfw, (5)-cn, num edge types: 1
# Building blocks:
#     Node 0, Type 0, BuildingBlock: XOMCOT_clean_sbu_0, # of connection points: 5
#     Node 1, Type 0, BuildingBlock: XOMCOT_clean_sbu_0, # of connection points: 5
#     Node 2, Type 0, BuildingBlock: XOMCOT_clean_sbu_0, # of connection points: 5
#     Node 3, Type 0, BuildingBlock: XOMCOT_clean_sbu_0, # of connection points: 5
#     Node 4, Type 0, BuildingBlock: XOMCOT_clean_sbu_0, # of connection points: 5
#     Node 5, Type 0, BuildingBlock: XOMCOT_clean_sbu_0, # of connection points: 5
#     Node 6, Type 0, BuildingBlock: XOMCOT_clean_sbu_0, # of connection points: 5
#     Node 7, Type 0, BuildingBlock: XOMCOT_clean_sbu_0, # of connection points: 5
#     Node 8, Type 0, BuildingBlock: XOMCOT_clean_sbu_0, # of connection points: 5
#     Node 9, Type 0, BuildingBlock: XOMCOT_clean_sbu_0, # of connection points: 5
#     Node 10, Type 0, BuildingBlock: XOMCOT_clean_sbu_0, # of connection points: 5
#     Node 11, Type 0, BuildingBlock: XOMCOT_clean_sbu_0, # of connection points: 5
#     Node 12, Type 0, BuildingBlock: XOMCOT_clean_sbu_0, # of connection points: 5
#     Node 13, Type 0, BuildingBlock: XOMCOT_clean_sbu_0, # of connection points: 5
#     Node 14, Type 0, BuildingBlock: XOMCOT_clean_sbu_0, # of connection points: 5
#     Node 15, Type 0, BuildingBlock: XOMCOT_clean_sbu_0, # of connection points: 5
#     Edge 16, Type (0, 0), BuildingBlock: KIFKEQ_clean_linker_1, # of connection points: 2
#     Edge 17, Type (0, 0), BuildingBlock: KIFKEQ_clean_linker_1, # of connection points: 2
#     Edge 18, Type (0, 0), BuildingBlock: KIFKEQ_clean_linker_1, # of connection points: 2
#     Edge 19, Type (0, 0), BuildingBlock: KIFKEQ_clean_linker_1, # of connection points: 2
#     Edge 20, Type (0, 0), BuildingBlock: KIFKEQ_clean_linker_1, # of connection points: 2
#     Edge 21, Type (0, 0), BuildingBlock: KIFKEQ_clean_linker_1, # of connection points: 2
#     Edge 22, Type (0, 0), BuildingBlock: KIFKEQ_clean_linker_1, # of connection points: 2
#     Edge 23, Type (0, 0), BuildingBlock: KIFKEQ_clean_linker_1, # of connection points: 2
#     Edge 24, Type (0, 0), BuildingBlock: KIFKEQ_clean_linker_1, # of connection points: 2
#     Edge 25, Type (0, 0), BuildingBlock: KIFKEQ_clean_linker_1, # of connection points: 2
#     Edge 26, Type (0, 0), BuildingBlock: KIFKEQ_clean_linker_1, # of connection points: 2
#     Edge 27, Type (0, 0), BuildingBlock: KIFKEQ_clean_linker_1, # of connection points: 2
#     Edge 28, Type (0, 0), BuildingBlock: KIFKEQ_clean_linker_1, # of connection points: 2
#     Edge 29, Type (0, 0), BuildingBlock: KIFKEQ_clean_linker_1, # of connection points: 2
#     Edge 30, Type (0, 0), BuildingBlock: KIFKEQ_clean_linker_1, # of connection points: 2
#     Edge 31, Type (0, 0), BuildingBlock: KIFKEQ_clean_linker_1, # of connection points: 2
#     Edge 32, Type (0, 0), BuildingBlock: KIFKEQ_clean_linker_1, # of connection points: 2
#     Edge 33, Type (0, 0), BuildingBlock: KIFKEQ_clean_linker_1, # of connection points: 2
#     Edge 34, Type (0, 0), BuildingBlock: KIFKEQ_clean_linker_1, # of connection points: 2
#     Edge 35, Type (0, 0), BuildingBlock: KIFKEQ_clean_linker_1, # of connection points: 2
#     Edge 36, Type (0, 0), BuildingBlock: KIFKEQ_clean_linker_1, # of connection points: 2
#     Edge 37, Type (0, 0), BuildingBlock: KIFKEQ_clean_linker_1, # of connection points: 2
#     Edge 38, Type (0, 0), BuildingBlock: KIFKEQ_clean_linker_1, # of connection points: 2
#     Edge 39, Type (0, 0), BuildingBlock: KIFKEQ_clean_linker_1, # of connection points: 2
#     Edge 40, Type (0, 0), BuildingBlock: KIFKEQ_clean_linker_1, # of connection points: 2
#     Edge 41, Type (0, 0), BuildingBlock: KIFKEQ_clean_linker_1, # of connection points: 2
#     Edge 42, Type (0, 0), BuildingBlock: KIFKEQ_clean_linker_1, # of connection points: 2
#     Edge 43, Type (0, 0), BuildingBlock: KIFKEQ_clean_linker_1, # of connection points: 2
#     Edge 44, Type (0, 0), BuildingBlock: KIFKEQ_clean_linker_1, # of connection points: 2
#     Edge 45, Type (0, 0), BuildingBlock: KIFKEQ_clean_linker_1, # of connection points: 2
#     Edge 46, Type (0, 0), BuildingBlock: KIFKEQ_clean_linker_1, # of connection points: 2
#     Edge 47, Type (0, 0), BuildingBlock: KIFKEQ_clean_linker_1, # of connection points: 2
#     Edge 48, Type (0, 0), BuildingBlock: KIFKEQ_clean_linker_1, # of connection points: 2
#     Edge 49, Type (0, 0), BuildingBlock: KIFKEQ_clean_linker_1, # of connection points: 2
#     Edge 50, Type (0, 0), BuildingBlock: KIFKEQ_clean_linker_1, # of connection points: 2
#     Edge 51, Type (0, 0), BuildingBlock: KIFKEQ_clean_linker_1, # of connection points: 2
#     Edge 52, Type (0, 0), BuildingBlock: KIFKEQ_clean_linker_1, # of connection points: 2
#     Edge 53, Type (0, 0), BuildingBlock: KIFKEQ_clean_linker_1, # of connection points: 2
#     Edge 54, Type (0, 0), BuildingBlock: KIFKEQ_clean_linker_1, # of connection points: 2
#     Edge 55, Type (0, 0), BuildingBlock: KIFKEQ_clean_linker_1, # of connection points: 2
# Relax obj value: 0.110
# Max RMSD: 0.162
# Mean RMSD: 0.162
data_MOF--net-yfw--node1-XOMCOT_clean_sbu_0--edge1-KIFKEQ_clean_linker_1
_symmetry_space_group_name_H-M    P1
_symmetry_Int_Tables_number       1
_symmetry_cell_setting            triclinic
loop_
_symmetry_equiv_pos_as_xyz
'x, y, z'
_cell_length_a     58.081037
_cell_length_b     58.051322
_cell_length_c     25.164786
_cell_angle_alpha  90.023196
_cell_angle_beta   90.058257
_cell_angle_gamma 90.01997
loop_
_atom_site_label
_atom_site_type_symbol
_atom_site_fract_x
_atom_site_fract_y
_atom_site_fract_z
_atom_type_partial_charge
Co0 Co 0.14731 0.0793 0.9858 0.0
C1 C 0.194 0.09394 0.95444 0.0
C2 C 0.19512 0.07002 0.01949 0.0
C3 C 0.21733 0.07625 0.00675 0.0
N4 N 0.18053 0.08125 0.9869 0.0
N5 N 0.21657 0.0912 0.96576 0.0
H6 H 0.18742 0.10503 0.92338 0.0
H7 H 0.19009 0.0579 0.04991 0.0
C8 C 0.13199 0.06695 0.09663 0.0
O9 O 0.1127 0.07841 0.0904 0.0
N10 N 0.11382 0.07725 0.98321 0.0
C11 C 0.09859 0.094 0.97087 0.0
C12 C 0.07686 0.08477 0.96918 0.0
C13 C 0.10095 0.05792 0.98817 0.0
N14 N 0.07831 0.06211 0.97999 0.0
C15 C 0.14244 0.12823 0.97024 0.0
C16 C 0.14812 0.14083 0.07531 0.0
C17 C 0.14171 0.15773 0.03843 0.0
C18 C 0.13957 0.15131 0.98492 0.0
C19 C 0.15061 0.11798 0.059 0.0
N20 N 0.14618 0.11161 0.00768 0.0
H21 H 0.14039 0.12356 0.92897 0.0
H22 H 0.15611 0.10562 0.0882 0.0
H23 H 0.10251 0.11171 0.96254 0.0
H24 H 0.10806 0.0411 0.99673 0.0
O25 O 0.14737 0.08237 0.90869 0.0
O26 O 0.14948 0.04953 0.95349 0.0
O27 O 0.14766 0.06745 0.06109 0.0
C28 C 0.14889 0.05995 0.90799 0.0
H29 H 0.23287 0.06983 0.02533 0.0
H30 H 0.06115 0.09409 0.96064 0.0
H31 H 0.15048 0.14503 0.1169 0.0
H32 H 0.13537 0.16394 0.95475 0.0
Co33 Co 0.94083 0.64549 0.23143 0.0
C34 C 0.92656 0.69391 0.20859 0.0
C35 C 0.95836 0.69196 0.25144 0.0
C36 C 0.95458 0.71453 0.23768 0.0
N37 N 0.94055 0.67898 0.23436 0.0
N38 N 0.93464 0.71575 0.21042 0.0
H39 H 0.91192 0.68885 0.18499 0.0
H40 H 0.97376 0.68529 0.27007 0.0
C41 C 0.95275 0.65649 0.34467 0.0
O42 O 0.9368 0.67254 0.34549 0.0
N43 N 0.94171 0.61237 0.22706 0.0
C44 C 0.92544 0.59878 0.20531 0.0
C45 C 0.93323 0.57641 0.2058 0.0
C46 C 0.95919 0.59824 0.24031 0.0
N47 N 0.95447 0.57609 0.22763 0.0
C48 C 0.891 0.64944 0.23125 0.0
C49 C 0.88463 0.62728 0.32727 0.0
C50 C 0.86518 0.63408 0.29836 0.0
C51 C 0.86856 0.64548 0.2498 0.0
C52 C 0.90658 0.63146 0.30732 0.0
N53 N 0.90974 0.64306 0.26063 0.0
H54 H 0.89319 0.65646 0.19196 0.0
H55 H 0.92095 0.6242 0.32861 0.0
H56 H 0.90926 0.60479 0.18919 0.0
H57 H 0.97534 0.60419 0.25686 0.0
O58 O 0.93443 0.64667 0.15543 0.0
O59 O 0.96908 0.64731 0.19296 0.0
O60 O 0.95553 0.64386 0.30371 0.0
C61 C 0.95677 0.64769 0.15001 0.0
H62 H 0.96613 0.72878 0.24545 0.0
H63 H 0.92401 0.56157 0.19077 0.0
H64 H 0.88299 0.61826 0.36474 0.0
H65 H 0.85403 0.65035 0.22523 0.0
Co66 Co 0.37217 0.44113 0.48962 0.0
C67 C 0.32537 0.42685 0.45722 0.0
C68 C 0.32467 0.4548 0.51316 0.0
C69 C 0.30249 0.45035 0.49683 0.0
N70 N 0.33896 0.44008 0.48834 0.0
N71 N 0.30295 0.43286 0.46147 0.0
H72 H 0.33188 0.41394 0.43007 0.0
H73 H 0.33003 0.46845 0.53967 0.0
C74 C 0.38603 0.45364 0.60109 0.0
O75 O 0.40397 0.43993 0.59801 0.0
N76 N 0.40567 0.44263 0.48987 0.0
C77 C 0.42111 0.42559 0.48195 0.0
C78 C 0.44291 0.43478 0.48242 0.0
C79 C 0.41845 0.46202 0.49429 0.0
N80 N 0.44124 0.45769 0.49011 0.0
C81 C 0.37669 0.39191 0.47756 0.0
C82 C 0.36953 0.38071 0.58289 0.0
C83 C 0.3763 0.36318 0.54777 0.0
C84 C 0.37906 0.36897 0.49394 0.0
C85 C 0.36714 0.40331 0.5647 0.0
N86 N 0.37242 0.40903 0.51348 0.0
H87 H 0.37945 0.39606 0.43623 0.0
H88 H 0.36112 0.41606 0.59245 0.0
H89 H 0.41728 0.40771 0.47519 0.0
H90 H 0.41116 0.47894 0.5007 0.0
O91 O 0.37303 0.43716 0.41265 0.0
O92 O 0.37103 0.47052 0.45545 0.0
O93 O 0.37112 0.45409 0.56382 0.0
C94 C 0.37191 0.4596 0.41062 0.0
H95 H 0.28725 0.45959 0.5093 0.0
H96 H 0.45874 0.42537 0.47588 0.0
H97 H 0.3667 0.37729 0.62465 0.0
H98 H 0.38334 0.35598 0.46468 0.0
Co99 Co 0.57994 0.87439 0.7358 0.0
C100 C 0.59294 0.82751 0.70187 0.0
C101 C 0.56741 0.82676 0.76359 0.0
C102 C 0.57302 0.80443 0.75034 0.0
N103 N 0.58003 0.84116 0.73343 0.0
N104 N 0.58901 0.80495 0.71151 0.0
H105 H 0.60516 0.83396 0.67304 0.0
H106 H 0.55494 0.83203 0.79305 0.0
C107 C 0.57083 0.88742 0.84938 0.0
O108 O 0.58626 0.90395 0.84734 0.0
N109 N 0.57945 0.90793 0.73766 0.0
C110 C 0.59617 0.92309 0.72472 0.0
C111 C 0.58756 0.94507 0.7285 0.0
C112 C 0.56078 0.92106 0.74819 0.0
N113 N 0.56531 0.9438 0.74315 0.0
C114 C 0.62908 0.87861 0.72067 0.0
C115 C 0.64123 0.86838 0.82415 0.0
C116 C 0.65835 0.87653 0.78959 0.0
C117 C 0.65213 0.88072 0.73646 0.0
C118 C 0.61854 0.86636 0.80653 0.0
N119 N 0.61234 0.87341 0.75676 0.0
H120 H 0.62451 0.88231 0.67994 0.0
H121 H 0.60602 0.85939 0.83364 0.0
H122 H 0.61329 0.91898 0.71165 0.0
H123 H 0.54419 0.91405 0.75919 0.0
O124 O 0.58218 0.87555 0.65829 0.0
O125 O 0.54994 0.87468 0.70515 0.0
O126 O 0.56836 0.87338 0.81084 0.0
C127 C 0.55968 0.87575 0.659 0.0
H128 H 0.56561 0.78899 0.76733 0.0
H129 H 0.59677 0.96076 0.71906 0.0
H130 H 0.64501 0.86431 0.8652 0.0
H131 H 0.66484 0.88599 0.70747 0.0
Co132 Co 0.87695 0.07781 0.48668 0.0
C133 C 0.82836 0.08946 0.45714 0.0
C134 C 0.83148 0.0563 0.49383 0.0
C135 C 0.80899 0.05928 0.47823 0.0
N136 N 0.84362 0.07537 0.48157 0.0
N137 N 0.80703 0.08011 0.45491 0.0
H138 H 0.83283 0.10553 0.43848 0.0
H139 H 0.83866 0.04096 0.51169 0.0
C140 C 0.86122 0.06645 0.59726 0.0
O141 O 0.84324 0.07997 0.59182 0.0
N142 N 0.91006 0.07964 0.49044 0.0
C143 C 0.92336 0.09697 0.47248 0.0
C144 C 0.94605 0.09031 0.47569 0.0
C145 C 0.92473 0.06265 0.50412 0.0
N146 N 0.94688 0.06868 0.49528 0.0
C147 C 0.8705 0.1273 0.47707 0.0
C148 C 0.88423 0.13741 0.57967 0.0
C149 C 0.87827 0.15561 0.54598 0.0
C150 C 0.87158 0.1504 0.4937 0.0
C151 C 0.8832 0.11483 0.56141 0.0
N152 N 0.8755 0.10974 0.51139 0.0
H153 H 0.86659 0.12362 0.43599 0.0
H154 H 0.88993 0.10166 0.58717 0.0
H155 H 0.91701 0.11297 0.45613 0.0
H156 H 0.91918 0.04578 0.51721 0.0
O157 O 0.87867 0.08157 0.40949 0.0
O158 O 0.87947 0.04849 0.45342 0.0
O159 O 0.87641 0.06511 0.56085 0.0
C160 C 0.88034 0.0591 0.40828 0.0
H161 H 0.79527 0.04685 0.48298 0.0
H162 H 0.96073 0.10041 0.46319 0.0
H163 H 0.89071 0.14062 0.61938 0.0
H164 H 0.86752 0.164 0.46578 0.0
Co165 Co 0.94132 0.37312 0.73142 0.0
C166 C 0.92497 0.32556 0.70673 0.0
C167 C 0.95442 0.32553 0.75794 0.0
C168 C 0.94911 0.3031 0.74532 0.0
N169 N 0.93883 0.33969 0.73524 0.0
N170 N 0.93063 0.30314 0.71295 0.0
H171 H 0.91185 0.3314 0.67965 0.0
H172 H 0.96945 0.33111 0.7798 0.0
C173 C 0.95096 0.36333 0.84652 0.0
O174 O 0.93292 0.34968 0.84834 0.0
N175 N 0.94422 0.40612 0.72602 0.0
C176 C 0.92841 0.42054 0.70537 0.0
C177 C 0.93716 0.44254 0.70622 0.0
C178 C 0.96251 0.41937 0.73843 0.0
N179 N 0.95859 0.44177 0.72687 0.0
C180 C 0.8913 0.37089 0.73169 0.0
C181 C 0.88588 0.39561 0.82472 0.0
C182 C 0.86616 0.38813 0.79769 0.0
C183 C 0.86905 0.37556 0.75052 0.0
C184 C 0.90762 0.39059 0.80464 0.0
N185 N 0.9103 0.37761 0.75972 0.0
H186 H 0.89311 0.36291 0.69334 0.0
H187 H 0.92232 0.39801 0.8245 0.0
H188 H 0.91183 0.41534 0.68989 0.0
H189 H 0.97835 0.41272 0.75513 0.0
O190 O 0.93529 0.37203 0.65528 0.0
O191 O 0.96959 0.36934 0.69418 0.0
O192 O 0.95574 0.37431 0.80406 0.0
C193 C 0.95758 0.3697 0.65079 0.0
H194 H 0.95893 0.28802 0.75658 0.0
H195 H 0.92869 0.4578 0.69111 0.0
H196 H 0.88458 0.4056 0.86096 0.0
H197 H 0.85429 0.3702 0.72726 0.0
Co198 Co 0.64563 0.44249 0.97977 0.0
C199 C 0.69445 0.42829 0.95968 0.0
C200 C 0.69176 0.46016 0.00208 0.0
C201 C 0.71456 0.45623 0.99106 0.0
N202 N 0.67909 0.44235 0.98382 0.0
N203 N 0.71627 0.43621 0.96425 0.0
H204 H 0.68987 0.41327 0.9369 0.0
H205 H 0.68478 0.47561 0.01987 0.0
C206 C 0.65588 0.4539 0.0937 0.0
O207 O 0.67183 0.43786 0.09478 0.0
N208 N 0.61256 0.44333 0.9745 0.0
C209 C 0.59879 0.42682 0.95433 0.0
C210 C 0.57641 0.4346 0.95553 0.0
C211 C 0.59857 0.46099 0.98707 0.0
N212 N 0.57634 0.4561 0.97593 0.0
C213 C 0.64992 0.39268 0.97926 0.0
C214 C 0.62621 0.38598 0.07317 0.0
C215 C 0.63363 0.36669 0.04463 0.0
C216 C 0.64583 0.37017 -0.00272 0.0
C217 C 0.63082 0.408 0.05416 0.0
N218 N 0.64309 0.41132 0.00844 0.0
H219 H 0.65737 0.395 0.94045 0.0
H220 H 0.62326 0.42232 0.07507 0.0
H221 H 0.60466 0.41045 0.93893 0.0
H222 H 0.60461 0.47712 0.00358 0.0
O223 O 0.64716 0.4363 0.90375 0.0
O224 O 0.64755 0.47087 0.94179 0.0
O225 O 0.64357 0.45694 0.05228 0.0
C226 C 0.64805 0.45868 0.89867 0.0
H227 H 0.72862 0.46794 -0.0007 0.0
H228 H 0.56146 0.42546 0.94083 0.0
H229 H 0.61639 0.38408 0.10949 0.0
H230 H 0.65116 0.35567 0.97315 0.0
Co231 Co 0.58091 0.14827 0.24236 0.0
C232 C 0.59167 0.19617 0.20951 0.0
C233 C 0.57855 0.19489 0.2891 0.0
C234 C 0.58324 0.21744 0.27653 0.0
N235 N 0.58372 0.18151 0.24699 0.0
N236 N 0.59139 0.21831 0.22636 0.0
H237 H 0.59726 0.19081 0.17046 0.0
H238 H 0.57195 0.18889 0.32674 0.0
C239 C 0.56825 0.13157 0.35184 0.0
O240 O 0.58167 0.11351 0.34643 0.0
N241 N 0.57799 0.11497 0.23703 0.0
C242 C 0.59407 0.09945 0.22229 0.0
C243 C 0.58446 0.07785 0.22265 0.0
C244 C 0.5586 0.10251 0.24468 0.0
N245 N 0.5622 0.07976 0.23687 0.0
C246 C 0.62975 0.14209 0.2289 0.0
C247 C 0.64165 0.14589 0.33482 0.0
C248 C 0.65867 0.13941 0.29826 0.0
C249 C 0.65259 0.13833 0.24432 0.0
C250 C 0.61905 0.14951 0.31762 0.0
N251 N 0.61295 0.14589 0.26581 0.0
H252 H 0.62539 0.14087 0.18727 0.0
H253 H 0.60664 0.15519 0.34651 0.0
H254 H 0.61151 0.10315 0.21088 0.0
H255 H 0.54231 0.10994 0.25664 0.0
O256 O 0.58475 0.14929 0.16542 0.0
O257 O 0.55155 0.15168 0.20856 0.0
O258 O 0.56797 0.14733 0.31652 0.0
C259 C 0.56238 0.15129 0.1636 0.0
H260 H 0.58101 0.23201 0.30283 0.0
H261 H 0.59309 0.06198 0.21199 0.0
H262 H 0.64551 0.14753 0.37675 0.0
H263 H 0.6653 0.13433 0.21424 0.0
Co264 Co 0.64446 0.58045 0.48072 0.0
C265 C 0.69249 0.5935 0.45533 0.0
C266 C 0.69078 0.56402 0.50676 0.0
C267 C 0.7135 0.56847 0.49548 0.0
N268 N 0.67766 0.5798 0.48192 0.0
N269 N 0.71461 0.58699 0.46312 0.0
H270 H 0.68716 0.60773 0.43042 0.0
H271 H 0.68427 0.54981 0.53008 0.0
C272 C 0.62892 0.56556 0.59032 0.0
O273 O 0.6096 0.57718 0.58644 0.0
N274 N 0.61096 0.58063 0.47863 0.0
C275 C 0.59633 0.59851 0.47258 0.0
C276 C 0.57409 0.5903 0.47227 0.0
C277 C 0.59732 0.56179 0.48092 0.0
N278 N 0.57474 0.56721 0.47759 0.0
C279 C 0.64294 0.62983 0.47044 0.0
C280 C 0.64715 0.63991 0.57729 0.0
C281 C 0.64251 0.65798 0.54186 0.0
C282 C 0.64116 0.65274 0.48746 0.0
C283 C 0.64896 0.61734 0.55858 0.0
N284 N 0.64539 0.61229 0.50617 0.0
H285 H 0.64116 0.62612 0.4286 0.0
H286 H 0.6531 0.60414 0.58696 0.0
H287 H 0.60103 0.61635 0.4684 0.0
H288 H 0.60382 0.5445 0.48647 0.0
O289 O 0.64513 0.58515 0.40405 0.0
O290 O 0.64422 0.55132 0.44509 0.0
O291 O 0.64435 0.56697 0.55441 0.0
C292 C 0.64457 0.56273 0.40089 0.0
H293 H 0.72802 0.55825 0.50853 0.0
H294 H 0.55867 0.60056 0.46769 0.0
H295 H 0.64868 0.64293 0.61959 0.0
H296 H 0.63839 0.66613 0.45821 0.0
Co297 Co 0.44187 0.14764 0.74375 0.0
C298 C 0.42806 0.19424 0.70886 0.0
C299 C 0.45344 0.19564 0.77095 0.0
C300 C 0.44747 0.21782 0.75731 0.0
N301 N 0.44113 0.1809 0.74088 0.0
N302 N 0.43158 0.2169 0.71825 0.0
H303 H 0.41605 0.18752 0.67983 0.0
H304 H 0.46601 0.1907 0.80051 0.0
C305 C 0.4538 0.13432 0.85631 0.0
O306 O 0.44203 0.11509 0.85217 0.0
N307 N 0.44281 0.11406 0.74556 0.0
C308 C 0.42529 0.09884 0.74167 0.0
C309 C 0.434 0.07685 0.74374 0.0
C310 C 0.46198 0.10092 0.74928 0.0
N311 N 0.45706 0.07817 0.74855 0.0
C312 C 0.39281 0.14381 0.72739 0.0
C313 C 0.38027 0.15132 0.83184 0.0
C314 C 0.36315 0.1448 0.79544 0.0
C315 C 0.36962 0.14175 0.7421 0.0
C316 C 0.40311 0.15328 0.81544 0.0
N317 N 0.40944 0.14801 0.7646 0.0
H318 H 0.39755 0.14078 0.68649 0.0
H319 H 0.41553 0.15895 0.84436 0.0
H320 H 0.40732 0.10291 0.73763 0.0
H321 H 0.47916 0.1079 0.75355 0.0
O322 O 0.4395 0.14618 0.66634 0.0
O323 O 0.47187 0.14789 0.71273 0.0
O324 O 0.45341 0.14934 0.81927 0.0
C325 C 0.46199 0.14637 0.66673 0.0
H326 H 0.45458 0.23344 0.77416 0.0
H327 H 0.4241 0.0611 0.74095 0.0
H328 H 0.3763 0.15423 0.87333 0.0
H329 H 0.35697 0.13746 0.71205 0.0
Co330 Co 0.87351 0.93997 0.98544 0.0
C331 C 0.82634 0.92747 0.95413 0.0
C332 C 0.82607 0.95022 0.02142 0.0
C333 C 0.80365 0.94465 0.00865 0.0
N334 N 0.84025 0.93935 0.98728 0.0
N335 N 0.8039 0.93044 0.96622 0.0
H336 H 0.83252 0.91663 0.92218 0.0
H337 H 0.8315 0.9615 0.0532 0.0
C338 C 0.8897 0.95112 0.09592 0.0
O339 O 0.9068 0.93646 0.09108 0.0
N340 N 0.90702 0.9407 0.98223 0.0
C341 C 0.92157 0.92418 0.96506 0.0
C342 C 0.94365 0.93266 0.96567 0.0
C343 C 0.92056 0.95921 0.99171 0.0
N344 N 0.94307 0.95468 0.98255 0.0
C345 C 0.87727 0.89087 0.97189 0.0
C346 C 0.8708 0.87924 0.07724 0.0
C347 C 0.87758 0.862 0.04149 0.0
C348 C 0.87991 0.86793 0.9877 0.0
C349 C 0.86836 0.90194 0.05966 0.0
N350 N 0.87344 0.90783 0.00842 0.0
H351 H 0.87942 0.89514 0.93044 0.0
H352 H 0.86259 0.91464 0.08782 0.0
H353 H 0.91686 0.90734 0.95096 0.0
H354 H 0.91397 0.97564 0.00515 0.0
O355 O 0.87258 0.93639 0.90846 0.0
O356 O 0.87284 0.96957 0.95238 0.0
O357 O 0.87426 0.95251 0.05998 0.0
C358 C 0.87258 0.95886 0.90724 0.0
H359 H 0.78832 0.9509 0.02838 0.0
H360 H 0.95884 0.9235 0.95258 0.0
H361 H 0.86818 0.87549 0.11894 0.0
H362 H 0.88415 0.85504 0.95817 0.0
Co363 Co 0.07916 0.37285 0.23721 0.0
C364 C 0.09297 0.32581 0.20579 0.0
C365 C 0.06488 0.32562 0.26128 0.0
C366 C 0.06914 0.30333 0.24561 0.0
N367 N 0.07982 0.33966 0.23635 0.0
N368 N 0.08673 0.30347 0.21059 0.0
H369 H 0.10601 0.33208 0.1787 0.0
H370 H 0.05124 0.33127 0.28741 0.0
C371 C 0.06823 0.38679 0.34985 0.0
O372 O 0.07992 0.40605 0.34524 0.0
N373 N 0.0779 0.40639 0.23724 0.0
C374 C 0.09469 0.42182 0.22678 0.0
C375 C 0.08556 0.44364 0.22855 0.0
C376 C 0.05872 0.4192 0.24442 0.0
N377 N 0.06293 0.44202 0.2397 0.0
C378 C 0.12795 0.37748 0.21888 0.0
C379 C 0.14161 0.3698 0.32259 0.0
C380 C 0.15811 0.37712 0.28568 0.0
C381 C 0.15116 0.38023 0.23273 0.0
C382 C 0.11863 0.36747 0.30715 0.0
N383 N 0.11175 0.37289 0.25671 0.0
H384 H 0.1228 0.38044 0.1782 0.0
H385 H 0.10653 0.36147 0.3364 0.0
H386 H 0.11233 0.41801 0.21741 0.0
H387 H 0.04205 0.41189 0.25355 0.0
O388 O 0.08086 0.37322 0.15968 0.0
O389 O 0.04891 0.37204 0.20756 0.0
O390 O 0.0684 0.37174 0.31295 0.0
C391 C 0.05838 0.3725 0.16103 0.0
H392 H 0.05973 0.28821 0.2583 0.0
H393 H 0.09483 0.45944 0.22056 0.0
H394 H 0.14618 0.36671 0.36371 0.0
H395 H 0.16344 0.38519 0.20247 0.0
Co396 Co 0.37262 0.58071 0.99239 0.0
C397 C 0.32439 0.58889 0.95669 0.0
C398 C 0.32649 0.58243 0.04039 0.0
C399 C 0.30406 0.58736 0.02773 0.0
N400 N 0.33932 0.58323 0.9959 0.0
N401 N 0.30257 0.59142 0.97498 0.0
H402 H 0.32949 0.59153 0.9159 0.0
H403 H 0.3329 0.57945 0.08003 0.0
C404 C 0.38924 0.56769 0.10233 0.0
O405 O 0.40891 0.5784 0.09534 0.0
N406 N 0.40604 0.57837 0.98837 0.0
C407 C 0.42168 0.59549 0.9837 0.0
C408 C 0.44339 0.58614 0.98362 0.0
C409 C 0.41862 0.55878 0.99011 0.0
N410 N 0.44144 0.56311 0.98779 0.0
C411 C 0.37728 0.62939 0.97355 0.0
C412 C 0.37488 0.64302 0.07865 0.0
C413 C 0.37994 0.65959 0.03993 0.0
C414 C 0.38057 0.65263 0.98655 0.0
C415 C 0.37195 0.62002 0.06404 0.0
N416 N 0.37443 0.61318 0.01238 0.0
H417 H 0.37829 0.62425 0.93239 0.0
H418 H 0.36774 0.60794 0.0949 0.0
H419 H 0.41808 0.61363 0.98128 0.0
H420 H 0.41128 0.54177 0.99489 0.0
O421 O 0.37191 0.5827 0.91482 0.0
O422 O 0.36994 0.55064 0.96213 0.0
O423 O 0.37312 0.5692 0.06795 0.0
C424 C 0.37069 0.56023 0.91574 0.0
H425 H 0.29019 0.58859 0.05617 0.0
H426 H 0.4594 0.59559 0.9805 0.0
H427 H 0.37391 0.64761 0.12031 0.0
H428 H 0.38389 0.66495 0.95519 0.0
Co429 Co 0.44111 0.87618 0.23339 0.0
C430 C 0.42925 0.82894 0.19981 0.0
C431 C 0.45897 0.82956 0.25067 0.0
C432 C 0.45538 0.80727 0.23393 0.0
N433 N 0.44258 0.84307 0.22929 0.0
N434 N 0.43673 0.80691 0.20184 0.0
H435 H 0.415 0.83484 0.17563 0.0
H436 H 0.47298 0.8356 0.27533 0.0
C437 C 0.45164 0.88899 0.34646 0.0
O438 O 0.43677 0.906 0.34413 0.0
N439 N 0.44019 0.90972 0.23673 0.0
C440 C 0.42227 0.92438 0.23123 0.0
C441 C 0.43029 0.94666 0.23395 0.0
C442 C 0.45883 0.92346 0.24229 0.0
N443 N 0.45328 0.94603 0.24069 0.0
C444 C 0.39209 0.87819 0.21891 0.0
C445 C 0.3801 0.86865 0.3228 0.0
C446 C 0.36294 0.87614 0.28756 0.0
C447 C 0.36905 0.87991 0.23436 0.0
C448 C 0.40295 0.86717 0.30562 0.0
N449 N 0.40894 0.87374 0.25535 0.0
H450 H 0.39654 0.88207 0.17824 0.0
H451 H 0.4157 0.86115 0.33341 0.0
H452 H 0.40456 0.91975 0.22497 0.0
H453 H 0.47614 0.917 0.24775 0.0
O454 O 0.4376 0.8777 0.15652 0.0
O455 O 0.47077 0.87817 0.20048 0.0
O456 O 0.45341 0.87474 0.30807 0.0
C457 C 0.46001 0.87896 0.15544 0.0
H458 H 0.46585 0.7925 0.24419 0.0
H459 H 0.42004 0.96212 0.2297 0.0
H460 H 0.37617 0.86495 0.36398 0.0
H461 H 0.35625 0.88491 0.20523 0.0
Co462 Co 0.14857 0.94113 0.48647 0.0
C463 C 0.19548 0.92608 0.45663 0.0
C464 C 0.19596 0.95378 0.5133 0.0
C465 C 0.21825 0.94892 0.4988 0.0
N466 N 0.18173 0.93948 0.48689 0.0
N467 N 0.21794 0.93159 0.46302 0.0
H468 H 0.18911 0.91341 0.42869 0.0
H469 H 0.19049 0.96739 0.53976 0.0
C470 C 0.13428 0.95193 0.59866 0.0
O471 O 0.11567 0.93927 0.59347 0.0
N472 N 0.11515 0.94342 0.4852 0.0
C473 C 0.09946 0.92773 0.46918 0.0
C474 C 0.07789 0.93737 0.4718 0.0
C475 C 0.1028 0.96261 0.49595 0.0
N476 N 0.07996 0.95929 0.4888 0.0
C477 C 0.14215 0.89233 0.47122 0.0
C478 C 0.15016 0.87947 0.57527 0.0
C479 C 0.14204 0.86283 0.53944 0.0
C480 C 0.13883 0.86937 0.48627 0.0
C481 C 0.15314 0.90222 0.55853 0.0
N482 N 0.14744 0.90879 0.50804 0.0
H483 H 0.13941 0.89707 0.4302 0.0
H484 H 0.15995 0.9144 0.58673 0.0
H485 H 0.103 0.91065 0.45482 0.0
H486 H 0.11047 0.97859 0.50926 0.0
O487 O 0.14827 0.93814 0.40936 0.0
O488 O 0.15049 0.97096 0.45425 0.0
O489 O 0.14936 0.95272 0.56185 0.0
C490 C 0.14965 0.96057 0.40868 0.0
H491 H 0.23349 0.95778 0.5128 0.0
H492 H 0.06199 0.92903 0.46026 0.0
H493 H 0.15346 0.87519 0.61646 0.0
H494 H 0.13346 0.85693 0.45665 0.0
Co495 Co 0.07907 0.64668 0.73181 0.0
C496 C 0.0921 0.69429 0.7034 0.0
C497 C 0.06287 0.69342 0.75559 0.0
C498 C 0.06694 0.71592 0.74123 0.0
N499 N 0.07866 0.67991 0.73194 0.0
N500 N 0.08525 0.71645 0.70822 0.0
H501 H 0.10586 0.68851 0.67767 0.0
H502 H 0.04884 0.68729 0.78 0.0
C503 C 0.06335 0.63134 0.84078 0.0
O504 O 0.0749 0.61198 0.83712 0.0
N505 N 0.07916 0.61313 0.73058 0.0
C506 C 0.09721 0.59846 0.72916 0.0
C507 C 0.08908 0.5762 0.72925 0.0
C508 C 0.06032 0.59944 0.73058 0.0
N509 N 0.0659 0.57687 0.73022 0.0
C510 C 0.12847 0.64506 0.72221 0.0
C511 C 0.13782 0.64575 0.82986 0.0
C512 C 0.15562 0.64061 0.79443 0.0
C513 C 0.15109 0.6414 0.73981 0.0
C514 C 0.11565 0.64966 0.81064 0.0
N515 N 0.11081 0.64744 0.75773 0.0
H516 H 0.12496 0.64424 0.68013 0.0
H517 H 0.10252 0.65394 0.83902 0.0
H518 H 0.11513 0.60313 0.72859 0.0
H519 H 0.04287 0.60589 0.73276 0.0
O520 O 0.08403 0.64687 0.65521 0.0
O521 O 0.05007 0.64647 0.69565 0.0
O522 O 0.06523 0.64695 0.80529 0.0
C523 C 0.06163 0.64646 0.65168 0.0
H524 H 0.05692 0.7307 0.75351 0.0
H525 H 0.09945 0.56072 0.7283 0.0
H526 H 0.14092 0.64617 0.87232 0.0
H527 H 0.16455 0.63785 0.7112 0.0
H528 H 0.98797 0.9432 0.99631 0.0
H529 H 0.94237 1.0015 0.97881 0.0
H530 H 0.02096 0.96896 0.99661 0.0
H531 H 0.97532 0.02737 0.98184 0.0
H532 H 0.03948 0.06383 0.92111 0.0
H533 H 1.0067 0.03787 0.92516 0.0
H534 H 0.04116 0.998 0.04649 0.0
H535 H 0.07426 0.02403 0.04168 0.0
C536 C 0.98492 0.96152 0.99272 0.0
C537 C 0.96243 0.97019 0.98686 0.0
C538 C 1.00388 0.97634 0.99362 0.0
C539 C 1.00086 1.00026 0.9889 0.0
C540 C 0.97833 1.00901 0.98465 0.0
C541 C 0.95936 0.99417 0.98358 0.0
C542 C 0.04001 0.04961 0.94889 0.0
C543 C 0.05941 0.04604 0.98128 0.0
C544 C 0.02116 0.03475 0.95138 0.0
C545 C 0.02113 0.01596 0.98656 0.0
C546 C 0.04067 0.01219 0.01859 0.0
C547 C 0.05965 0.02705 0.01585 0.0
H548 H 0.98798 0.56953 0.30118 0.0
H549 H 0.95507 0.53804 0.16547 0.0
H550 H 0.01363 0.53635 0.30888 0.0
H551 H 0.9807 0.50513 0.17264 0.0
H552 H 0.01662 0.44013 0.22437 0.0
H553 H 0.98962 0.47217 0.22647 0.0
H554 H 0.04543 0.51883 0.26286 0.0
H555 H 0.0722 0.48667 0.26336 0.0
C556 C 0.9863 0.55558 0.27287 0.0
C557 C 0.96945 0.55642 0.23281 0.0
C558 C 1.00098 0.53657 0.27723 0.0
C559 C 0.9992 0.518 0.24145 0.0
C560 C 0.98227 0.51886 0.20156 0.0
C561 C 0.96756 0.53779 0.19737 0.0
C562 C 0.0231 0.45713 0.23371 0.0
C563 C 0.04668 0.46077 0.24332 0.0
C564 C 1.00764 0.47558 0.2343 0.0
C565 C 0.01535 0.49814 0.24441 0.0
C566 C 0.03882 0.50168 0.25534 0.0
C567 C 0.05426 0.48324 0.2549 0.0
H568 H 0.57392 0.52215 0.44925 0.0
H569 H 0.53152 0.57696 0.51147 0.0
H570 H 0.54123 0.4959 0.45363 0.0
H571 H 0.49884 0.55072 0.516 0.0
H572 H 0.43999 0.50277 0.46162 0.0
H573 H 0.4723 0.52963 0.45907 0.0
H574 H 0.5174 0.47634 0.51845 0.0
H575 H 0.48516 0.44956 0.52077 0.0
C576 C 0.55769 0.52856 0.46432 0.0
C577 C 0.55538 0.55167 0.48003 0.0
C578 C 0.53893 0.51351 0.46686 0.0
C579 C 0.5174 0.52119 0.48528 0.0
C580 C 0.51507 0.54432 0.50089 0.0
C581 C 0.53383 0.55937 0.49829 0.0
C582 C 0.45673 0.49688 0.47472 0.0
C583 C 0.46 0.47397 0.49112 0.0
C584 C 0.47528 0.51227 0.47322 0.0
C585 C 0.49749 0.5051 0.48821 0.0
C586 C 0.50063 0.48231 0.50558 0.0
C587 C 0.48213 0.46695 0.50698 0.0
H588 H 0.57564 0.98747 0.77212 0.0
H589 H 0.5192 0.94336 0.72601 0.0
H590 H 0.54951 0.02024 0.77637 0.0
H591 H 0.49303 0.97615 0.72977 0.0
H592 H 0.44865 0.03562 0.78806 0.0
H593 H 0.47488 1.00291 0.79003 0.0
H594 H 0.52773 0.04465 0.71708 0.0
H595 H 0.50148 0.07742 0.71555 0.0
C596 C 0.55765 0.9848 0.76269 0.0
C597 C 0.54952 0.96282 0.74853 0.0
C598 C 0.54267 1.00359 0.76502 0.0
C599 C 0.51918 1.00089 0.75312 0.0
C600 C 0.51096 0.97881 0.73988 0.0
C601 C 0.52595 0.95998 0.73773 0.0
C602 C 0.46583 0.03779 0.77223 0.0
C603 C 0.47294 0.05912 0.75145 0.0
C604 C 0.48087 0.01902 0.77332 0.0
C605 C 0.5034 0.02109 0.75354 0.0
C606 C 0.51061 0.04252 0.73336 0.0
C607 C 0.49557 0.06133 0.73244 0.0
H608 H 0.03506 0.94998 0.50872 0.0
H609 H 0.08293 1.00601 0.48502 0.0
H610 H 1.0035 0.97731 0.51403 0.0
H611 H 0.05142 0.0335 0.49284 0.0
H612 H 0.98593 0.07112 0.43668 0.0
H613 H 0.01884 0.04537 0.44031 0.0
H614 H 0.98643 1.00721 0.56727 0.0
H615 H 0.95327 0.033 0.56318 0.0
C616 C 0.0389 0.96814 0.50485 0.0
C617 C 0.06157 0.97572 0.49579 0.0
C618 C 0.0208 0.98387 0.50867 0.0
C619 C 0.02488 1.00763 0.50374 0.0
C620 C 0.04762 0.01529 0.49614 0.0
C621 C 0.06576 0.99953 0.49222 0.0
C622 C 0.98593 0.05749 0.46597 0.0
C623 C 0.96692 0.05412 0.49962 0.0
C624 C 1.00487 0.0427 0.4681 0.0
C625 C 1.00532 0.02419 0.50406 0.0
C626 C 0.9865 0.02109 0.53852 0.0
C627 C 0.9675 0.03586 0.53623 0.0
H628 H 1.00507 0.44072 0.7186 0.0
H629 H 0.94754 0.48616 0.74633 0.0
H630 H 0.03123 0.47361 0.72084 0.0
H631 H 0.9736 0.51901 0.74961 0.0
H632 H 0.02283 0.57458 0.68951 0.0
H633 H 0.99688 0.54157 0.69111 0.0
H634 H 0.04792 0.50232 0.77737 0.0
H635 H 0.07393 0.53524 0.77483 0.0
C636 C 0.99808 0.4577 0.72603 0.0
C637 C 0.97425 0.46088 0.73199 0.0
C638 C 0.01304 0.47657 0.72734 0.0
C639 C 1.00452 0.49902 0.73504 0.0
C640 C 0.98072 0.50206 0.74241 0.0
C641 C 0.96578 0.48323 0.74072 0.0
C642 C 0.0284 0.55895 0.70913 0.0
C643 C 0.05043 0.55749 0.7319 0.0
C644 C 0.01353 0.54002 0.71018 0.0
C645 C 0.02029 0.51924 0.73442 0.0
C646 C 0.04229 0.51789 0.75757 0.0
C647 C 0.0572 0.53677 0.75618 0.0
H648 H 0.57605 0.50253 0.96783 0.0
H649 H 0.53225 0.44369 0.99544 0.0
H650 H 0.54279 0.52788 0.97311 0.0
H651 H 0.49887 0.46906 0.00186 0.0
H652 H 0.44199 0.51966 0.94876 0.0
H653 H 0.47464 0.4931 0.94817 0.0
H654 H 0.51544 0.54323 0.0337 0.0
H655 H 0.48303 0.56977 0.03294 0.0
C656 C 0.55934 0.49506 0.97588 0.0
C657 C 0.55677 0.47113 0.98126 0.0
C658 C 0.54024 0.50958 0.97898 0.0
C659 C 0.5181 0.50054 0.98804 0.0
C660 C 0.51558 0.47658 0.99401 0.0
C661 C 0.5347 0.46204 0.99048 0.0
C662 C 0.4579 0.52483 0.96778 0.0
C663 C 0.46008 0.54684 0.99037 0.0
C664 C 0.4766 0.50964 0.9676 0.0
C665 C 0.49778 0.5161 0.99048 0.0
C666 C 0.49961 0.53788 0.01456 0.0
C667 C 0.48103 0.55309 0.01427 0.0
H668 H 0.49765 0.94721 0.20815 0.0
H669 H 0.44397 0.98886 0.27764 0.0
H670 H 0.52359 0.98011 0.20972 0.0
H671 H 0.47002 0.02185 0.27986 0.0
H672 H 0.5162 0.08125 0.21865 0.0
H673 H 0.4893 0.04886 0.22159 0.0
H674 H 0.54468 1.00389 0.27053 0.0
H675 H 0.57142 0.0361 0.26677 0.0
C676 C 0.49149 0.96332 0.22446 0.0
C677 C 0.46877 0.9654 0.24291 0.0
C678 C 0.50636 0.98222 0.22539 0.0
C679 C 0.49893 1.00364 0.2451 0.0
C680 C 0.47621 1.0057 0.26375 0.0
C681 C 0.46129 0.9868 0.26257 0.0
C682 C 0.5225 0.06448 0.23055 0.0
C683 C 0.54595 0.06116 0.24192 0.0
C684 C 0.50712 0.04592 0.2323 0.0
C685 C 0.51488 0.0237 0.24579 0.0
C686 C 0.53821 0.02062 0.25875 0.0
C687 C 0.55355 0.0391 0.25669 0.0
H688 H 0.17004 1.00179 0.39284 0.0
H689 H 0.12814 0.95053 0.31454 0.0
H690 H 0.16633 0.0271 0.3159 0.0
H691 H 0.124 0.97626 0.23744 0.0
H692 H 0.09872 0.04548 0.15486 0.0
H693 H 0.10422 0.01782 0.22733 0.0
H694 H 0.17784 0.02631 0.21501 0.0
H695 H 0.17243 0.05367 0.14218 0.0
C696 C 0.16022 0.99587 0.35883 0.0
C697 C 0.14941 0.97422 0.35939 0.0
C698 C 0.15814 1.01033 0.31487 0.0
C699 C 0.1448 1.00365 0.27103 0.0
C700 C 0.13428 0.98181 0.27104 0.0
C701 C 0.1368 0.96706 0.31474 0.0
C702 C 0.11605 0.04158 0.16798 0.0
C703 C 0.13515 0.05181 0.14317 0.0
C704 C 0.11919 0.02556 0.20889 0.0
C705 C 0.14145 0.01986 0.22631 0.0
C706 C 0.16051 0.03041 0.20217 0.0
C707 C 0.1574 0.04606 0.16063 0.0
H708 H 0.06762 0.67361 0.56415 0.0
H709 H 0.02698 0.61772 0.62715 0.0
H710 H 0.04171 0.67583 0.4867 0.0
H711 H 1.00168 0.61943 0.54956 0.0
H712 H 0.97696 0.61827 0.37268 0.0
H713 H 1.00587 0.61478 0.44304 0.0
H714 H 0.99527 0.686 0.48551 0.0
H715 H 0.96591 0.68946 0.41586 0.0
C716 C 0.05356 0.66144 0.56054 0.0
C717 C 0.04921 0.64544 0.60102 0.0
C718 C 0.03869 0.66283 0.51677 0.0
C719 C 0.01975 0.64783 0.51259 0.0
C720 C 0.01621 0.63109 0.55189 0.0
C721 C 0.03065 0.63011 0.59607 0.0
C722 C 0.98071 0.63315 0.39725 0.0
C723 C 0.96909 0.6541 0.3892 0.0
C724 C 0.99727 0.63115 0.43723 0.0
C725 C 1.00288 0.6502 0.46901 0.0
C726 C 0.99138 0.67118 0.46091 0.0
C727 C 0.97443 0.67306 0.42164 0.0
H728 H 0.41107 0.4545 0.69324 0.0
H729 H 0.35533 0.48902 0.61185 0.0
H730 H 0.40736 0.48148 0.76716 0.0
H731 H 0.35165 0.51591 0.68594 0.0
H732 H 0.37046 0.57337 0.81026 0.0
H733 H 0.37425 0.54798 0.73245 0.0
H734 H 0.37743 0.48884 0.83621 0.0
H735 H 0.37369 0.51377 0.9129 0.0
C736 C 0.39798 0.46775 0.69118 0.0
C737 C 0.38336 0.46943 0.64688 0.0
C738 C 0.39585 0.4832 0.7335 0.0
C739 C 0.3792 0.50079 0.73226 0.0
C740 C 0.36476 0.50266 0.68775 0.0
C741 C 0.36674 0.48708 0.64562 0.0
C742 C 0.37185 0.55495 0.81619 0.0
C743 C 0.37177 0.54561 0.86767 0.0
C744 C 0.37398 0.54043 0.7718 0.0
C745 C 0.37635 0.51645 0.77841 0.0
C746 C 0.37601 0.50725 0.82987 0.0
C747 C 0.37367 0.5216 0.87384 0.0
H748 H 0.45956 0.85184 0.06724 0.0
H749 H 0.49071 0.91242 0.13535 0.0
H750 H 0.48664 0.85347 0.99314 0.0
H751 H 0.51665 0.91542 0.0598 0.0
H752 H 0.57718 0.90116 0.95243 0.0
H753 H 0.54931 0.89934 0.02473 0.0
H754 H 0.49876 0.87089 0.91647 0.0
H755 H 0.52714 0.87123 0.84594 0.0
C756 C 0.47179 0.86591 0.0652 0.0
C757 C 0.47316 0.88204 0.10638 0.0
C758 C 0.48734 0.86695 0.02282 0.0
C759 C 0.50417 0.88448 0.02038 0.0
C760 C 0.50454 0.90125 0.06079 0.0
C761 C 0.48945 0.8998 0.10371 0.0
C762 C 0.56014 0.89437 0.94452 0.0
C763 C 0.55439 0.88615 0.89387 0.0
C764 C 0.54401 0.89352 0.98573 0.0
C765 C 0.52155 0.88505 0.97673 0.0
C766 C 0.5159 0.87705 0.92561 0.0
C767 C 0.53218 0.87735 0.88494 0.0
H768 H 0.82674 0.04978 0.66024 0.0
H769 H 0.90044 0.04778 0.63731 0.0
H770 H 0.8303 0.02139 0.73197 0.0
H771 H 0.90393 0.01981 0.70938 0.0
H772 H 0.89681 0.99746 0.88916 0.0
H773 H 0.89438 0.02301 0.81237 0.0
H774 H 0.84556 0.97689 0.73857 0.0
H775 H 0.84845 0.9508 0.81557 0.0
C776 C 0.84367 0.04349 0.67096 0.0
C777 C 0.86333 0.05106 0.64355 0.0
C778 C 0.84566 0.02708 0.71138 0.0
C779 C 0.86735 0.01836 0.72559 0.0
C780 C 0.88702 0.02626 0.6989 0.0
C781 C 0.88501 0.04229 0.65791 0.0
C782 C 0.88583 0.99262 0.85613 0.0
C783 C 0.87285 0.97224 0.85784 0.0
C784 C 0.88447 1.0072 0.81234 0.0
C785 C 0.8697 1.00191 0.76997 0.0
C786 C 0.85697 0.9813 0.7711 0.0
C787 C 0.85877 0.96635 0.81462 0.0
H788 H 0.94795 0.34126 0.94234 0.0
H789 H 0.99025 0.38907 0.854 0.0
H790 H 0.975 0.34322 0.01634 0.0
H791 H 0.01709 0.39123 0.92835 0.0
H792 H 0.07133 0.36998 0.0557 0.0
H793 H 0.04564 0.36758 0.97824 0.0
H794 H 0.98662 0.3718 0.0821 0.0
H795 H 0.01187 0.37387 0.15847 0.0
C796 C 0.96292 0.35228 0.9388 0.0
C797 C 0.96685 0.36507 0.89236 0.0
C798 C 0.97842 0.35343 0.98121 0.0
C799 C 0.99819 0.3674 0.97816 0.0
C800 C 1.00218 0.38011 0.93165 0.0
C801 C 0.98666 0.379 0.88926 0.0
C802 C 0.05287 0.37043 0.06171 0.0
C803 C 0.04366 0.37196 0.11314 0.0
C804 C 0.03818 0.36912 0.0175 0.0
C805 C 0.01409 0.36924 0.0242 0.0
C806 C 1.00505 0.37116 0.07563 0.0
C807 C 0.01961 0.3725 0.11944 0.0
H808 H 0.67195 0.56874 0.31374 0.0
H809 H 0.61625 0.52773 0.37628 0.0
H810 H 0.67452 0.54275 0.23649 0.0
H811 H 0.6183 0.50236 0.29884 0.0
H812 H 0.61758 0.47807 0.12122 0.0
H813 H 0.61384 0.50683 0.19184 0.0
H814 H 0.68487 0.49609 0.23567 0.0
H815 H 0.68856 0.46686 0.16579 0.0
C816 C 0.65991 0.55456 0.31009 0.0
C817 C 0.64385 0.55015 0.35039 0.0
C818 C 0.6615 0.53965 0.26643 0.0
C819 C 0.64664 0.5206 0.26214 0.0
C820 C 0.62986 0.51698 0.30127 0.0
C821 C 0.62869 0.53146 0.34536 0.0
C822 C 0.63236 0.48175 0.14616 0.0
C823 C 0.65331 0.47013 0.13841 0.0
C824 C 0.63022 0.49823 0.18629 0.0
C825 C 0.64915 0.50377 0.21852 0.0
C826 C 0.67014 0.49226 0.21074 0.0
C827 C 0.67214 0.47538 0.17133 0.0
H828 H 0.53495 0.16402 0.36861 0.0
H829 H 0.56505 0.1029 0.43796 0.0
H830 H 0.5079 0.16646 0.44238 0.0
H831 H 0.53784 0.10537 0.51162 0.0
H832 H 0.50744 0.13664 0.6637 0.0
H833 H 0.53211 0.13234 0.58678 0.0
H834 H 0.47416 0.14522 0.48333 0.0
H835 H 0.44908 0.14967 0.56139 0.0
C836 C 0.53586 0.15111 0.39963 0.0
C837 C 0.55236 0.13336 0.39764 0.0
C838 C 0.52016 0.15241 0.44156 0.0
C839 C 0.52071 0.1361 0.48268 0.0
C840 C 0.53712 0.1183 0.48064 0.0
C841 C 0.55273 0.1169 0.4385 0.0
C842 C 0.49983 0.13859 0.62464 0.0
C843 C 0.47629 0.14363 0.6186 0.0
C844 C 0.514 0.13591 0.58051 0.0
C845 C 0.50508 0.13833 0.52904 0.0
C846 C 0.48151 0.14337 0.52267 0.0
C847 C 0.46716 0.14584 0.56717 0.0
H848 H 0.67331 0.496 0.87462 0.0
H849 H 0.62344 0.44884 0.80873 0.0
H850 H 0.66944 0.52079 0.79694 0.0
H851 H 0.6192 0.47403 0.73063 0.0
H852 H 0.59642 0.545 0.65294 0.0
H853 H 0.60279 0.5161 0.72237 0.0
H854 H 0.67611 0.52049 0.69648 0.0
H855 H 0.66985 0.54921 0.62719 0.0
C856 C 0.66188 0.49074 0.84277 0.0
C857 C 0.64877 0.47053 0.84719 0.0
C858 C 0.65965 0.50491 0.79842 0.0
C859 C 0.64391 0.49939 0.75808 0.0
C860 C 0.63135 0.4787 0.76149 0.0
C861 C 0.63396 0.46419 0.80563 0.0
C862 C 0.61389 0.5399 0.66239 0.0
C863 C 0.63264 0.54946 0.6349 0.0
C864 C 0.61749 0.52315 0.70151 0.0
C865 C 0.63992 0.51595 0.71431 0.0
C866 C 0.65866 0.52571 0.68726 0.0
C867 C 0.65505 0.54217 0.64772 0.0
H868 H 0.57131 0.12851 0.07071 0.0
H869 H 0.52321 0.17496 0.14548 0.0
H870 H 0.54526 0.12497 0.99396 0.0
H871 H 0.4976 0.17186 0.06883 0.0
H872 H 0.46945 0.17515 0.89599 0.0
H873 H 0.49786 0.18092 0.96663 0.0
H874 H 0.5028 0.10734 0.98814 0.0
H875 H 0.47413 0.1015 0.91799 0.0
C876 C 0.55549 0.13838 0.07003 0.0
C877 C 0.5492 0.15202 0.1137 0.0
C878 C 0.54053 0.1362 0.02657 0.0
C879 C 0.51942 0.14807 0.02582 0.0
C880 C 0.5138 0.16261 0.06837 0.0
C881 C 0.52843 0.16437 0.11214 0.0
C882 C 0.4765 0.16022 0.91602 0.0
C883 C 0.46947 0.13789 0.9018 0.0
C884 C 0.49277 0.16353 0.95626 0.0
C885 C 0.50265 0.14455 0.98227 0.0
C886 C 0.49563 0.12222 0.96813 0.0
C887 C 0.47902 0.11892 0.92857 0.0
H888 H 0.89538 0.01531 0.40314 0.0
H889 H 0.873 0.07166 0.30354 0.0
H890 H 0.8986 0.99062 0.32631 0.0
H891 H 0.87666 0.04657 0.22506 0.0
H892 H 0.85706 0.98385 0.11694 0.0
H893 H 0.85674 0.01193 0.18887 0.0
H894 H 0.92123 0.98469 0.24691 0.0
H895 H 0.92137 0.95627 0.1756 0.0
C896 C 0.8913 0.02253 0.36456 0.0
C897 C 0.88375 0.04543 0.35941 0.0
C898 C 0.89338 1.00834 0.32034 0.0
C899 C 0.88797 0.0166 0.26953 0.0
C900 C 0.88081 0.03969 0.26389 0.0
C901 C 0.87885 0.05408 0.30858 0.0
C902 C 0.87114 0.98373 0.14518 0.0
C903 C 0.8891 0.96756 0.14091 0.0
C904 C 0.87108 1.00007 0.186 0.0
C905 C 0.88896 1.00059 0.22353 0.0
C906 C 0.90706 0.98458 0.21891 0.0
C907 C 0.90711 0.96824 0.17813 0.0
H908 H 0.04911 0.41952 0.41436 0.0
H909 H 0.05068 0.34618 0.38523 0.0
H910 H 0.01934 0.41372 0.48193 0.0
H911 H 0.02099 0.34047 0.45235 0.0
H912 H 0.99292 0.34186 0.62668 0.0
H913 H 0.01914 0.34537 0.55161 0.0
H914 H 0.97698 0.3998 0.48664 0.0
H915 H 0.95043 0.39604 0.56231 0.0
C916 C 0.04331 0.40217 0.42284 0.0
C917 C 0.05231 0.38329 0.3948 0.0
C918 C 0.02603 0.3989 0.46081 0.0
C919 C 0.01771 0.37667 0.47182 0.0
C920 C 0.02708 0.35778 0.44456 0.0
C921 C 0.04411 0.36106 0.40629 0.0
C922 C 0.98893 0.35412 0.59553 0.0
C923 C 0.96967 0.36857 0.59974 0.0
C924 C 1.00394 0.35617 0.5527 0.0
C925 C 1.00019 0.373 0.51365 0.0
C926 C 0.98032 0.38683 0.51658 0.0
C927 C 0.965 0.38448 0.55924 0.0
H928 H 0.34882 0.55195 0.14369 0.0
H929 H 0.42262 0.54722 0.16267 0.0
H930 H 0.34359 0.52371 0.21436 0.0
H931 H 0.41727 0.51865 0.23325 0.0
H932 H 0.39568 0.45045 0.31893 0.0
H933 H 0.39982 0.47636 0.24202 0.0
H934 H 0.35276 0.52442 0.31497 0.0
H935 H 0.34899 0.49897 0.39147 0.0
C936 C 0.36392 0.54498 0.1631 0.0
C937 C 0.38613 0.55199 0.14796 0.0
C938 C 0.3609 0.52876 0.2034 0.0
C939 C 0.38003 0.5189 0.22881 0.0
C940 C 0.40226 0.52582 0.21374 0.0
C941 C 0.40529 0.54237 0.17393 0.0
C942 C 0.38595 0.46636 0.31777 0.0
C943 C 0.372 0.47278 0.36078 0.0
C944 C 0.38849 0.48123 0.27427 0.0
C945 C 0.37667 0.50239 0.27288 0.0
C946 C 0.36197 0.5082 0.31496 0.0
C947 C 0.35984 0.49365 0.35866 0.0
H948 H 0.4864 0.85775 0.36019 0.0
H949 H 0.45363 0.91616 0.43522 0.0
H950 H 0.51386 0.85548 0.43334 0.0
H951 H 0.48128 0.91398 0.50799 0.0
H952 H 0.51385 0.88337 0.65687 0.0
H953 H 0.48871 0.8869 0.58072 0.0
H954 H 0.5467 0.87723 0.47573 0.0
H955 H 0.57231 0.87342 0.55321 0.0
C956 C 0.48499 0.87008 0.39231 0.0
C957 C 0.46763 0.88701 0.3921 0.0
C958 C 0.50092 0.86891 0.4339 0.0
C959 C 0.49977 0.88456 0.47633 0.0
C960 C 0.48247 0.90153 0.47604 0.0
C961 C 0.4666 0.90276 0.43438 0.0
C962 C 0.5214 0.88197 0.61766 0.0
C963 C 0.54513 0.87803 0.61107 0.0
C964 C 0.50693 0.8842 0.57393 0.0
C965 C 0.51571 0.88251 0.52223 0.0
C966 C 0.53945 0.87851 0.51525 0.0
C967 C 0.55411 0.87642 0.55943 0.0
H968 H 0.17437 0.96811 0.64048 0.0
H969 H 0.10054 0.97088 0.66003 0.0
H970 H 0.17904 0.99602 0.71256 0.0
H971 H 0.10528 0.99917 0.73161 0.0
H972 H 0.12624 0.06865 0.8147 0.0
H973 H 0.12284 0.04243 0.73817 0.0
H974 H 0.16868 0.99437 0.8152 0.0
H975 H 0.17162 0.02011 0.89165 0.0
C976 C 0.15917 0.97462 0.66035 0.0
C977 C 0.1371 0.96721 0.64505 0.0
C978 C 0.16185 0.9906 0.70138 0.0
C979 C 0.1425 0.99983 0.72707 0.0
C980 C 0.12043 0.99245 0.71188 0.0
C981 C 0.11775 0.97608 0.67152 0.0
C982 C 0.13584 0.05265 0.81463 0.0
C983 C 0.14921 0.04633 0.85875 0.0
C984 C 0.13374 0.03762 0.7713 0.0
C985 C 0.14544 0.01641 0.77116 0.0
C986 C 0.15956 0.01065 0.81436 0.0
C987 C 0.16122 0.02535 0.85798 0.0
H988 H 0.9469 0.62342 0.05955 0.0
H989 H 0.99361 0.67361 0.12586 0.0
H990 H 0.9717 0.62012 0.98062 0.0
H991 H 0.018 0.67068 0.04734 0.0
H992 H 0.04606 0.67207 0.87719 0.0
H993 H 0.01722 0.67779 0.94654 0.0
H994 H 0.014 0.60433 0.97189 0.0
H995 H 0.043 0.59852 0.90267 0.0
C996 C 0.96207 0.6342 0.05641 0.0
C997 C 0.96842 0.6488 0.09834 0.0
C998 C 0.97634 0.63215 0.01176 0.0
C999 C 0.99679 0.64507 0.00819 0.0
C1000 C 1.0023 0.66063 0.04892 0.0
C1001 C 0.98837 0.6623 0.09378 0.0
C1002 C 0.03924 0.65714 0.8976 0.0
C1003 C 0.04692 0.63486 0.8848 0.0
C1004 C 0.02271 0.66042 0.93714 0.0
C1005 C 0.01326 0.64148 0.9641 0.0
C1006 C 0.02079 0.61919 0.95112 0.0
C1007 C 0.0376 0.61591 0.91209 0.0
H1008 H 0.06294 0.26587 0.17904 0.0
H1009 H 0.13043 0.29696 0.17576 0.0
H1010 H 0.07779 0.23228 0.13243 0.0
H1011 H 0.14537 0.26325 0.12813 0.0
H1012 H 0.16473 0.18457 0.11104 0.0
H1013 H 0.15228 0.22135 0.14861 0.0
H1014 H 0.09326 0.2213 0.04415 0.0
H1015 H 0.10541 0.18438 0.00738 0.0
C1016 C 0.08098 0.26551 0.16839 0.0
C1017 C 0.09556 0.284 0.18145 0.0
C1018 C 0.08944 0.24637 0.14108 0.0
C1019 C 0.11274 0.24514 0.12641 0.0
C1020 C 0.12735 0.26368 0.13912 0.0
C1021 C 0.11879 0.28301 0.16603 0.0
C1022 C 0.14919 0.19251 0.09585 0.0
C1023 C 0.13598 0.18146 0.05647 0.0
C1024 C 0.14217 0.21366 0.11705 0.0
C1025 C 0.12169 0.22413 0.09965 0.0
C1026 C 0.10898 0.21353 0.05881 0.0
C1027 C 0.11608 0.19248 0.03736 0.0
H1028 H 0.82566 0.66041 0.29706 0.0
H1029 H 0.85153 0.59358 0.34325 0.0
H1030 H 0.78812 0.65071 0.33593 0.0
H1031 H 0.8145 0.58416 0.38227 0.0
H1032 H 0.75768 0.58558 0.50375 0.0
H1033 H 0.79308 0.59807 0.46122 0.0
H1034 H 0.7542 0.62295 0.32672 0.0
H1035 H 0.71849 0.61014 0.3693 0.0
C1036 C 0.82331 0.64362 0.31503 0.0
C1037 C 0.84176 0.62796 0.31796 0.0
C1038 C 0.80184 0.6381 0.33731 0.0
C1039 C 0.7985 0.61684 0.36304 0.0
C1040 C 0.81669 0.60092 0.364 0.0
C1041 C 0.83796 0.60635 0.34167 0.0
C1042 C 0.75659 0.59361 0.46504 0.0
C1043 C 0.73522 0.59649 0.43966 0.0
C1044 C 0.77692 0.60081 0.44067 0.0
C1045 C 0.77648 0.61117 0.39022 0.0
C1046 C 0.75507 0.61505 0.36565 0.0
C1047 C 0.73463 0.60774 0.3901 0.0
H1048 H 0.40943 0.33289 0.51284 0.0
H1049 H 0.35486 0.33939 0.62871 0.0
H1050 H 0.4202 0.29588 0.55128 0.0
H1051 H 0.36644 0.30286 0.66826 0.0
H1052 H 0.41911 0.25718 0.76314 0.0
H1053 H 0.40325 0.29102 0.71843 0.0
H1054 H 0.40454 0.25457 0.56893 0.0
H1055 H 0.42029 0.22052 0.61408 0.0
C1056 C 0.39943 0.32635 0.54584 0.0
C1057 C 0.38135 0.33943 0.56781 0.0
C1058 C 0.40572 0.30513 0.56799 0.0
C1059 C 0.3943 0.29659 0.61304 0.0
C1060 C 0.37576 0.30919 0.63397 0.0
C1061 C 0.36924 0.33022 0.6114 0.0
C1062 C 0.4159 0.25638 0.72079 0.0
C1063 C 0.42098 0.23627 0.69205 0.0
C1064 C 0.40666 0.27567 0.69527 0.0
C1065 C 0.40265 0.27543 0.64019 0.0
C1066 C 0.40753 0.25525 0.61139 0.0
C1067 C 0.41638 0.23575 0.6372 0.0
H1068 H 0.68728 0.91164 0.7594 0.0
H1069 H 0.68321 0.85352 0.86649 0.0
H1070 H 0.72387 0.92278 0.79943 0.0
H1071 H 0.71929 0.86542 0.90778 0.0
H1072 H 0.76387 0.91639 0.01006 0.0
H1073 H 0.73007 0.90124 0.96362 0.0
H1074 H 0.76558 0.90798 0.81384 0.0
H1075 H 0.7995 0.92302 0.86052 0.0
C1076 C 0.69428 0.90096 0.79074 0.0
C1077 C 0.682 0.88175 0.80986 0.0
C1078 C 0.71524 0.90747 0.81387 0.0
C1079 C 0.72428 0.89511 0.85708 0.0
C1080 C 0.71251 0.87548 0.87505 0.0
C1081 C 0.69176 0.86875 0.85145 0.0
C1082 C 0.76444 0.91459 0.96726 0.0
C1083 C 0.78428 0.92089 0.93889 0.0
C1084 C 0.74519 0.90575 0.94073 0.0
C1085 C 0.74523 0.90339 0.88513 0.0
C1086 C 0.76508 0.90967 0.85669 0.0
C1087 C 0.7845 0.91812 0.88338 0.0
H1088 H 0.91034 0.30123 0.61551 0.0
H1089 H 0.92786 0.26006 0.75247 0.0
H1090 H 0.89414 0.26711 0.57198 0.0
H1091 H 0.91215 0.22604 0.7089 0.0
H1092 H 0.86468 0.17309 0.64145 0.0
H1093 H 0.87487 0.21019 0.68022 0.0
H1094 H 0.9084 0.22975 0.53395 0.0
H1095 H 0.89819 0.19244 0.49504 0.0
C1096 C 0.91054 0.28496 0.63651 0.0
C1097 C 0.92038 0.28334 0.68751 0.0
C1098 C 0.90146 0.2654 0.61138 0.0
C1099 C 0.90176 0.24388 0.63704 0.0
C1100 C 0.91135 0.2424 0.68827 0.0
C1101 C 0.92058 0.26184 0.71307 0.0
C1102 C 0.87401 0.18541 0.61732 0.0
C1103 C 0.88089 0.1797 0.5654 0.0
C1104 C 0.8799 0.20664 0.6396 0.0
C1105 C 0.89279 0.22277 0.61051 0.0
C1106 C 0.8984 0.21771 0.55736 0.0
C1107 C 0.89251 0.19636 0.535 0.0
H1108 H 0.8272 0.36123 0.80302 0.0
H1109 H 0.85249 0.42961 0.83755 0.0
H1110 H 0.79005 0.37134 0.84298 0.0
H1111 H 0.81573 0.43956 0.87737 0.0
H1112 H 0.75967 0.44127 0.00086 0.0
H1113 H 0.79509 0.42864 0.95846 0.0
H1114 H 0.75566 0.39711 0.83233 0.0
H1115 H 0.72003 0.40992 0.87487 0.0
C1116 C 0.82476 0.37845 0.81861 0.0
C1117 C 0.84294 0.39448 0.81791 0.0
C1118 C 0.80352 0.38422 0.84152 0.0
C1119 C 0.80009 0.40612 0.86418 0.0
C1120 C 0.818 0.42235 0.86157 0.0
C1121 C 0.8391 0.41663 0.83871 0.0
C1122 C 0.75851 0.43171 0.96403 0.0
C1123 C 0.73699 0.42688 0.94101 0.0
C1124 C 0.77882 0.42447 0.93968 0.0
C1125 C 0.77821 0.41216 0.89158 0.0
C1126 C 0.7567 0.40649 0.86947 0.0
C1127 C 0.73628 0.4138 0.89391 0.0
H1128 H 0.57737 0.26211 0.24527 0.0
H1129 H 0.61967 0.22127 0.14004 0.0
H1130 H 0.58811 0.29659 0.19746 0.0
H1131 H 0.62957 0.25598 0.09014 0.0
H1132 H 0.66148 0.32882 0.05615 0.0
H1133 H 0.65139 0.29181 0.09697 0.0
H1134 H 0.58108 0.31494 0.11445 0.0
H1135 H 0.59133 0.3518 0.07513 0.0
C1136 C 0.589 0.2604 0.21198 0.0
C1137 C 0.59767 0.23875 0.19688 0.0
C1138 C 0.59491 0.28024 0.1839 0.0
C1139 C 0.60954 0.2791 0.1395 0.0
C1140 C 0.61834 0.25751 0.12429 0.0
C1141 C 0.61245 0.23756 0.15262 0.0
C1142 C 0.64385 0.32578 0.06824 0.0
C1143 C 0.62728 0.34328 0.06335 0.0
C1144 C 0.63803 0.30461 0.09151 0.0
C1145 C 0.61549 0.30053 0.10991 0.0
C1146 C 0.59874 0.31769 0.1022 0.0
C1147 C 0.60457 0.3388 0.07947 0.0
H1148 H 0.68585 0.10446 0.26104 0.0
H1149 H 0.68479 0.15912 0.3776 0.0
H1150 H 0.72285 0.09153 0.29519 0.0
H1151 H 0.72138 0.14549 0.41336 0.0
H1152 H 0.79692 0.1253 0.43858 0.0
H1153 H 0.76242 0.14108 0.39648 0.0
H1154 H 0.73625 0.07211 0.37369 0.0
H1155 H 0.7709 0.05643 0.41361 0.0
C1156 C 0.6936 0.11391 0.29358 0.0
C1157 C 0.6822 0.1328 0.31664 0.0
C1158 C 0.71472 0.10628 0.31367 0.0
C1159 C 0.72502 0.11728 0.35747 0.0
C1160 C 0.71403 0.13666 0.37944 0.0
C1161 C 0.69289 0.14432 0.35929 0.0
C1162 C 0.78392 0.11352 0.42403 0.0
C1163 C 0.78674 0.08957 0.42973 0.0
C1164 C 0.76403 0.12257 0.40034 0.0
C1165 C 0.74653 0.10788 0.38157 0.0
C1166 C 0.74947 0.08396 0.38698 0.0
C1167 C 0.76927 0.07494 0.41065 0.0
H1168 H 0.60154 0.80135 0.60816 0.0
H1169 H 0.59976 0.76416 0.75646 0.0
H1170 H 0.61712 0.76713 0.56359 0.0
H1171 H 0.6153 0.73009 0.71225 0.0
H1172 H 0.66299 0.68029 0.62621 0.0
H1173 H 0.65197 0.71701 0.66575 0.0
H1174 H 0.6012 0.72683 0.54259 0.0
H1175 H 0.61151 0.68974 0.50388 0.0
C1176 C 0.60474 0.78595 0.63127 0.0
C1177 C 0.59936 0.78536 0.68571 0.0
C1178 C 0.61349 0.76636 0.60576 0.0
C1179 C 0.61745 0.74596 0.63446 0.0
C1180 C 0.61263 0.74561 0.68917 0.0
C1181 C 0.60354 0.76503 0.7144 0.0
C1182 C 0.64941 0.69017 0.6075 0.0
C1183 C 0.63798 0.68177 0.56208 0.0
C1184 C 0.6432 0.71128 0.63011 0.0
C1185 C 0.62563 0.72471 0.60746 0.0
C1186 C 0.61494 0.71694 0.56067 0.0
C1187 C 0.62095 0.69567 0.53839 0.0
H1188 H 0.33856 0.16753 0.87285 0.0
H1189 H 0.33322 0.11128 0.76081 0.0
H1190 H 0.30188 0.15625 0.91194 0.0
H1191 H 0.29607 0.10067 0.7989 0.0
H1192 H 0.22063 0.10028 0.86058 0.0
H1193 H 0.25462 0.11563 0.81472 0.0
H1194 H 0.29036 0.12035 0.96482 0.0
H1195 H 0.25654 0.10495 0.01031 0.0
C1196 C 0.32957 0.15285 0.85625 0.0
C1197 C 0.33917 0.14013 0.81405 0.0
C1198 C 0.30848 0.14648 0.87858 0.0
C1199 C 0.29622 0.12747 0.85878 0.0
C1200 C 0.30508 0.1155 0.81477 0.0
C1201 C 0.32636 0.12168 0.79282 0.0
C1202 C 0.23569 0.10485 0.88368 0.0
C1203 C 0.236 0.10138 0.93897 0.0
C1204 C 0.25515 0.11347 0.85746 0.0
C1205 C 0.27511 0.11922 0.88622 0.0
C1206 C 0.27517 0.11627 0.94165 0.0
C1207 C 0.2559 0.10729 0.96765 0.0
H1208 H 0.85588 0.83614 0.11829 0.0
H1209 H 0.91322 0.83471 0.00907 0.0
H1210 H 0.86885 0.79979 0.15685 0.0
H1211 H 0.92559 0.79805 0.04615 0.0
H1212 H 0.95847 0.75249 0.17313 0.0
H1213 H 0.9431 0.78646 0.12951 0.0
H1214 H 0.87444 0.75828 0.14076 0.0
H1215 H 0.88988 0.72435 0.18626 0.0
C1216 C 0.8711 0.82798 0.10213 0.0
C1217 C 0.88359 0.83849 0.0608 0.0
C1218 C 0.8784 0.80702 0.12389 0.0
C1219 C 0.89839 0.79611 0.10494 0.0
C1220 C 0.91032 0.80617 0.06225 0.0
C1221 C 0.90303 0.82707 0.04049 0.0
C1222 C 0.94008 0.75355 0.16685 0.0
C1223 C 0.9254 0.73571 0.18359 0.0
C1224 C 0.93128 0.77293 0.14109 0.0
C1225 C 0.90754 0.77506 0.13132 0.0
C1226 C 0.8928 0.75723 0.14793 0.0
C1227 C 0.90166 0.73772 0.1736 0.0
H1228 H 0.26503 0.4563 0.43042 0.0
H1229 H 0.29718 0.38934 0.42417 0.0
H1230 H 0.23183 0.44132 0.38261 0.0
H1231 H 0.26388 0.37429 0.37517 0.0
H1232 H 0.18577 0.35348 0.35557 0.0
H1233 H 0.22234 0.36618 0.39379 0.0
H1234 H 0.22082 0.4267 0.29416 0.0
H1235 H 0.18406 0.41432 0.25689 0.0
C1236 C 0.265 0.43834 0.41887 0.0
C1237 C 0.28369 0.42396 0.43152 0.0
C1238 C 0.24607 0.42982 0.39082 0.0
C1239 C 0.24523 0.40663 0.37487 0.0
C1240 C 0.26398 0.39222 0.38712 0.0
C1241 C 0.28309 0.40085 0.41484 0.0
C1242 C 0.19334 0.36941 0.34154 0.0
C1243 C 0.18188 0.38297 0.30344 0.0
C1244 C 0.21439 0.37658 0.36312 0.0
C1245 C 0.22439 0.39756 0.34738 0.0
C1246 C 0.21343 0.4106 0.30764 0.0
C1247 C 0.19247 0.40336 0.28583 0.0
H1248 H 0.46058 0.77003 0.16603 0.0
H1249 H 0.39234 0.79928 0.17319 0.0
H1250 H 0.44526 0.7361 0.12144 0.0
H1251 H 0.37695 0.76534 0.12744 0.0
H1252 H 0.35842 0.68671 0.11401 0.0
H1253 H 0.37132 0.72383 0.14869 0.0
H1254 H 0.42762 0.72387 0.03673 0.0
H1255 H 0.41501 0.68651 0.00285 0.0
C1256 C 0.44228 0.76922 0.15806 0.0
C1257 C 0.42765 0.78728 0.17355 0.0
C1258 C 0.43353 0.74988 0.13186 0.0
C1259 C 0.40989 0.74803 0.12074 0.0
C1260 C 0.39523 0.7662 0.1357 0.0
C1261 C 0.40405 0.78569 0.16155 0.0
C1262 C 0.37345 0.69474 0.09654 0.0
C1263 C 0.38579 0.68357 0.05595 0.0
C1264 C 0.38073 0.7161 0.11611 0.0
C1265 C 0.40061 0.72671 0.09577 0.0
C1266 C 0.41239 0.716 0.05368 0.0
C1267 C 0.40503 0.69471 0.03388 0.0
H1268 H 0.22382 0.888 0.42627 0.0
H1269 H 0.25632 0.95478 0.43464 0.0
H1270 H 0.25754 0.8728 0.37903 0.0
H1271 H 0.28985 0.93969 0.3885 0.0
H1272 H 0.33664 0.91327 0.26071 0.0
H1273 H 0.3001 0.92529 0.29896 0.0
H1274 H 0.2997 0.86485 0.39887 0.0
H1275 H 0.3362 0.85243 0.35956 0.0
C1276 C 0.23809 0.89942 0.41782 0.0
C1277 C 0.23747 0.92254 0.43443 0.0
C1278 C 0.25743 0.89071 0.39116 0.0
C1279 C 0.27632 0.90507 0.37989 0.0
C1280 C 0.27549 0.92823 0.39602 0.0
C1281 C 0.25637 0.93682 0.42305 0.0
C1282 C 0.32857 0.90222 0.28994 0.0
C1283 C 0.33942 0.88189 0.30712 0.0
C1284 C 0.30773 0.90927 0.3123 0.0
C1285 C 0.29713 0.89614 0.35232 0.0
C1286 C 0.30741 0.87529 0.36798 0.0
C1287 C 0.32841 0.86829 0.34579 0.0
H1288 H 0.16501 0.83529 0.61093 0.0
H1289 H 0.10449 0.83726 0.51111 0.0
H1290 H 0.152 0.7988 0.64886 0.0
H1291 H 0.09189 0.80055 0.54784 0.0
H1292 H 0.06174 0.75463 0.67878 0.0
H1293 H 0.07683 0.78862 0.63445 0.0
H1294 H 0.14431 0.75748 0.62924 0.0
H1295 H 0.12919 0.72345 0.67502 0.0
C1296 C 0.14906 0.82784 0.5967 0.0
C1297 C 0.13573 0.83932 0.55819 0.0
C1298 C 0.14172 0.80682 0.61809 0.0
C1299 C 0.12081 0.79685 0.60171 0.0
C1300 C 0.10792 0.80792 0.56186 0.0
C1301 C 0.1153 0.82885 0.54033 0.0
C1302 C 0.07983 0.75503 0.6686 0.0
C1303 C 0.09428 0.73635 0.68081 0.0
C1304 C 0.08843 0.77443 0.64251 0.0
C1305 C 0.11177 0.77574 0.62806 0.0
C1306 C 0.12628 0.75705 0.64009 0.0
C1307 C 0.11759 0.7375 0.66593 0.0
H1308 H 0.29946 0.60665 0.87189 0.0
H1309 H 0.25821 0.59107 0.01049 0.0
H1310 H 0.2647 0.61737 0.82391 0.0
H1311 H 0.22421 0.6031 0.96399 0.0
H1312 H 0.16282 0.6044 0.85938 0.0
H1313 H 0.19887 0.59126 0.89797 0.0
H1314 H 0.23511 0.64591 0.81645 0.0
H1315 H 0.19876 0.65824 0.77554 0.0
C1316 C 0.28319 0.6055 0.89247 0.0
C1317 C 0.28204 0.5979 0.94564 0.0
C1318 C 0.26318 0.61193 0.8649 0.0
C1319 C 0.24151 0.61103 0.88979 0.0
C1320 C 0.24044 0.6036 0.94286 0.0
C1321 C 0.26026 0.59696 0.97009 0.0
C1322 C 0.17855 0.61351 0.84961 0.0
C1323 C 0.17805 0.63249 0.81517 0.0
C1324 C 0.19923 0.60611 0.87195 0.0
C1325 C 0.21996 0.61778 0.86136 0.0
C1326 C 0.21955 0.63641 0.82539 0.0
C1327 C 0.19877 0.64358 0.80218 0.0
loop_
_geom_bond_atom_site_label_1
_geom_bond_atom_site_label_2
_geom_bond_distance
_geom_bond_site_symmetry_2
_ccdc_geom_bond_type
Co0 N4 2.148 . S
Co0 N10 2.128 . S
Co0 N20 2.194 1_556 S
Co0 O25 2.351 . S
Co0 O26 2.155 . S
Co0 O27 2.096 1_556 S
C1 N4 1.301 . S
C1 N5 1.328 . S
C1 H6 0.930 . S
C2 C3 1.333 . S
C2 N4 1.317 1_554 S
C2 H7 0.930 . S
C3 C2 1.333 . S
C3 N5 1.350 1_554 S
C3 H29 0.931 . S
N4 Co0 2.148 . S
N4 C1 1.301 . S
N4 C2 1.317 1_556 S
N5 C1 1.328 . S
N5 C3 1.350 1_556 S
H6 C1 0.930 . S
H7 C2 0.930 . S
C8 O9 1.224 . S
C8 O27 1.247 . S
O9 C8 1.224 . S
N10 Co0 2.128 . S
N10 C11 1.355 . S
N10 C13 1.311 1_556 S
C11 N10 1.355 . S
C11 C12 1.363 . S
C11 H23 0.929 . S
C12 C11 1.363 . S
C12 N14 1.375 1_556 S
C12 H30 0.931 . S
C13 N10 1.311 1_554 S
C13 N14 1.347 . S
C13 H24 0.929 . S
N14 C12 1.375 1_554 S
N14 C13 1.347 . S
C15 C18 1.365 . S
C15 N20 1.328 1_556 S
C15 H21 0.929 . S
C16 C17 1.362 . S
C16 C19 1.378 . S
C16 H31 0.929 . S
C17 C16 1.362 . S
C17 C18 1.366 1_554 S
C18 C15 1.365 . S
C18 C17 1.366 1_556 S
C18 H32 0.930 . S
C19 C16 1.378 . S
C19 N20 1.315 . S
C19 H22 0.930 . S
N20 Co0 2.194 1_554 S
N20 C15 1.328 1_554 S
N20 C19 1.315 . S
H21 C15 0.929 . S
H22 C19 0.930 . S
H23 C11 0.929 . S
H24 C13 0.929 . S
O25 Co0 2.351 . S
O25 C28 1.244 . S
O26 Co0 2.155 . S
O26 C28 1.240 . S
O27 Co0 2.096 1_554 S
O27 C8 1.247 . S
C28 O25 1.244 . S
C28 O26 1.240 . S
H29 C3 0.931 . S
H30 C12 0.931 . S
H31 C16 0.929 . S
H32 C18 0.930 . S
Co33 N37 2.148 . S
Co33 N43 2.128 . S
Co33 N53 2.194 . S
Co33 O58 2.351 . S
Co33 O59 2.155 . S
Co33 O60 2.096 . S
C34 N37 1.301 . S
C34 N38 1.328 . S
C34 H39 0.930 . S
C35 C36 1.333 . S
C35 N37 1.317 . S
C35 H40 0.930 . S
C36 C35 1.333 . S
C36 N38 1.350 . S
C36 H62 0.931 . S
N37 Co33 2.148 . S
N37 C34 1.301 . S
N37 C35 1.317 . S
N38 C34 1.328 . S
N38 C36 1.350 . S
H39 C34 0.930 . S
H40 C35 0.930 . S
C41 O42 1.224 . S
C41 O60 1.247 . S
O42 C41 1.224 . S
N43 Co33 2.128 . S
N43 C44 1.355 . S
N43 C46 1.311 . S
C44 N43 1.355 . S
C44 C45 1.363 . S
C44 H56 0.929 . S
C45 C44 1.363 . S
C45 N47 1.375 . S
C45 H63 0.931 . S
C46 N43 1.311 . S
C46 N47 1.347 . S
C46 H57 0.929 . S
N47 C45 1.375 . S
N47 C46 1.347 . S
C48 C51 1.365 . S
C48 N53 1.328 . S
C48 H54 0.929 . S
C49 C50 1.362 . S
C49 C52 1.378 . S
C49 H64 0.929 . S
C50 C49 1.362 . S
C50 C51 1.366 . S
C51 C48 1.365 . S
C51 C50 1.366 . S
C51 H65 0.930 . S
C52 C49 1.378 . S
C52 N53 1.315 . S
C52 H55 0.930 . S
N53 Co33 2.194 . S
N53 C48 1.328 . S
N53 C52 1.315 . S
H54 C48 0.929 . S
H55 C52 0.930 . S
H56 C44 0.929 . S
H57 C46 0.929 . S
O58 Co33 2.351 . S
O58 C61 1.244 . S
O59 Co33 2.155 . S
O59 C61 1.240 . S
O60 Co33 2.096 . S
O60 C41 1.247 . S
C61 O58 1.244 . S
C61 O59 1.240 . S
H62 C36 0.931 . S
H63 C45 0.931 . S
H64 C49 0.929 . S
H65 C51 0.930 . S
Co66 N70 2.148 . S
Co66 N76 2.128 . S
Co66 N86 2.194 . S
Co66 O91 2.351 . S
Co66 O92 2.155 . S
Co66 O93 2.096 . S
C67 N70 1.301 . S
C67 N71 1.328 . S
C67 H72 0.930 . S
C68 C69 1.333 . S
C68 N70 1.317 . S
C68 H73 0.930 . S
C69 C68 1.333 . S
C69 N71 1.350 . S
C69 H95 0.931 . S
N70 Co66 2.148 . S
N70 C67 1.301 . S
N70 C68 1.317 . S
N71 C67 1.328 . S
N71 C69 1.350 . S
H72 C67 0.930 . S
H73 C68 0.930 . S
C74 O75 1.224 . S
C74 O93 1.247 . S
O75 C74 1.224 . S
N76 Co66 2.128 . S
N76 C77 1.355 . S
N76 C79 1.311 . S
C77 N76 1.355 . S
C77 C78 1.363 . S
C77 H89 0.929 . S
C78 C77 1.363 . S
C78 N80 1.375 . S
C78 H96 0.931 . S
C79 N76 1.311 . S
C79 N80 1.347 . S
C79 H90 0.929 . S
N80 C78 1.375 . S
N80 C79 1.347 . S
C81 C84 1.365 . S
C81 N86 1.328 . S
C81 H87 0.929 . S
C82 C83 1.362 . S
C82 C85 1.378 . S
C82 H97 0.929 . S
C83 C82 1.362 . S
C83 C84 1.366 . S
C84 C81 1.365 . S
C84 C83 1.366 . S
C84 H98 0.930 . S
C85 C82 1.378 . S
C85 N86 1.315 . S
C85 H88 0.930 . S
N86 Co66 2.194 . S
N86 C81 1.328 . S
N86 C85 1.315 . S
H87 C81 0.929 . S
H88 C85 0.930 . S
H89 C77 0.929 . S
H90 C79 0.929 . S
O91 Co66 2.351 . S
O91 C94 1.244 . S
O92 Co66 2.155 . S
O92 C94 1.240 . S
O93 Co66 2.096 . S
O93 C74 1.247 . S
C94 O91 1.244 . S
C94 O92 1.240 . S
H95 C69 0.931 . S
H96 C78 0.931 . S
H97 C82 0.929 . S
H98 C84 0.930 . S
Co99 N103 2.148 . S
Co99 N109 2.128 . S
Co99 N119 2.194 . S
Co99 O124 2.351 . S
Co99 O125 2.155 . S
Co99 O126 2.096 . S
C100 N103 1.301 . S
C100 N104 1.328 . S
C100 H105 0.930 . S
C101 C102 1.333 . S
C101 N103 1.317 . S
C101 H106 0.930 . S
C102 C101 1.333 . S
C102 N104 1.350 . S
C102 H128 0.931 . S
N103 Co99 2.148 . S
N103 C100 1.301 . S
N103 C101 1.317 . S
N104 C100 1.328 . S
N104 C102 1.350 . S
H105 C100 0.930 . S
H106 C101 0.930 . S
C107 O108 1.224 . S
C107 O126 1.247 . S
O108 C107 1.224 . S
N109 Co99 2.128 . S
N109 C110 1.355 . S
N109 C112 1.311 . S
C110 N109 1.355 . S
C110 C111 1.363 . S
C110 H122 0.929 . S
C111 C110 1.363 . S
C111 N113 1.375 . S
C111 H129 0.931 . S
C112 N109 1.311 . S
C112 N113 1.347 . S
C112 H123 0.929 . S
N113 C111 1.375 . S
N113 C112 1.347 . S
C114 C117 1.365 . S
C114 N119 1.328 . S
C114 H120 0.929 . S
C115 C116 1.362 . S
C115 C118 1.378 . S
C115 H130 0.929 . S
C116 C115 1.362 . S
C116 C117 1.366 . S
C117 C114 1.365 . S
C117 C116 1.366 . S
C117 H131 0.930 . S
C118 C115 1.378 . S
C118 N119 1.315 . S
C118 H121 0.930 . S
N119 Co99 2.194 . S
N119 C114 1.328 . S
N119 C118 1.315 . S
H120 C114 0.929 . S
H121 C118 0.930 . S
H122 C110 0.929 . S
H123 C112 0.929 . S
O124 Co99 2.351 . S
O124 C127 1.244 . S
O125 Co99 2.155 . S
O125 C127 1.240 . S
O126 Co99 2.096 . S
O126 C107 1.247 . S
C127 O124 1.244 . S
C127 O125 1.240 . S
H128 C102 0.931 . S
H129 C111 0.931 . S
H130 C115 0.929 . S
H131 C117 0.930 . S
Co132 N136 2.148 . S
Co132 N142 2.128 . S
Co132 N152 2.194 . S
Co132 O157 2.351 . S
Co132 O158 2.155 . S
Co132 O159 2.096 . S
C133 N136 1.301 . S
C133 N137 1.328 . S
C133 H138 0.930 . S
C134 C135 1.333 . S
C134 N136 1.317 . S
C134 H139 0.930 . S
C135 C134 1.333 . S
C135 N137 1.350 . S
C135 H161 0.931 . S
N136 Co132 2.148 . S
N136 C133 1.301 . S
N136 C134 1.317 . S
N137 C133 1.328 . S
N137 C135 1.350 . S
H138 C133 0.930 . S
H139 C134 0.930 . S
C140 O141 1.224 . S
C140 O159 1.247 . S
O141 C140 1.224 . S
N142 Co132 2.128 . S
N142 C143 1.355 . S
N142 C145 1.311 . S
C143 N142 1.355 . S
C143 C144 1.363 . S
C143 H155 0.929 . S
C144 C143 1.363 . S
C144 N146 1.375 . S
C144 H162 0.931 . S
C145 N142 1.311 . S
C145 N146 1.347 . S
C145 H156 0.929 . S
N146 C144 1.375 . S
N146 C145 1.347 . S
C147 C150 1.365 . S
C147 N152 1.328 . S
C147 H153 0.929 . S
C148 C149 1.362 . S
C148 C151 1.378 . S
C148 H163 0.929 . S
C149 C148 1.362 . S
C149 C150 1.366 . S
C150 C147 1.365 . S
C150 C149 1.366 . S
C150 H164 0.930 . S
C151 C148 1.378 . S
C151 N152 1.315 . S
C151 H154 0.930 . S
N152 Co132 2.194 . S
N152 C147 1.328 . S
N152 C151 1.315 . S
H153 C147 0.929 . S
H154 C151 0.930 . S
H155 C143 0.929 . S
H156 C145 0.929 . S
O157 Co132 2.351 . S
O157 C160 1.244 . S
O158 Co132 2.155 . S
O158 C160 1.240 . S
O159 Co132 2.096 . S
O159 C140 1.247 . S
C160 O157 1.244 . S
C160 O158 1.240 . S
H161 C135 0.931 . S
H162 C144 0.931 . S
H163 C148 0.929 . S
H164 C150 0.930 . S
Co165 N169 2.148 . S
Co165 N175 2.128 . S
Co165 N185 2.194 . S
Co165 O190 2.351 . S
Co165 O191 2.155 . S
Co165 O192 2.096 . S
C166 N169 1.301 . S
C166 N170 1.328 . S
C166 H171 0.930 . S
C167 C168 1.333 . S
C167 N169 1.317 . S
C167 H172 0.930 . S
C168 C167 1.333 . S
C168 N170 1.350 . S
C168 H194 0.931 . S
N169 Co165 2.148 . S
N169 C166 1.301 . S
N169 C167 1.317 . S
N170 C166 1.328 . S
N170 C168 1.350 . S
H171 C166 0.930 . S
H172 C167 0.930 . S
C173 O174 1.224 . S
C173 O192 1.247 . S
O174 C173 1.224 . S
N175 Co165 2.128 . S
N175 C176 1.355 . S
N175 C178 1.311 . S
C176 N175 1.355 . S
C176 C177 1.363 . S
C176 H188 0.929 . S
C177 C176 1.363 . S
C177 N179 1.375 . S
C177 H195 0.931 . S
C178 N175 1.311 . S
C178 N179 1.347 . S
C178 H189 0.929 . S
N179 C177 1.375 . S
N179 C178 1.347 . S
C180 C183 1.365 . S
C180 N185 1.328 . S
C180 H186 0.929 . S
C181 C182 1.362 . S
C181 C184 1.378 . S
C181 H196 0.929 . S
C182 C181 1.362 . S
C182 C183 1.366 . S
C183 C180 1.365 . S
C183 C182 1.366 . S
C183 H197 0.930 . S
C184 C181 1.378 . S
C184 N185 1.315 . S
C184 H187 0.930 . S
N185 Co165 2.194 . S
N185 C180 1.328 . S
N185 C184 1.315 . S
H186 C180 0.929 . S
H187 C184 0.930 . S
H188 C176 0.929 . S
H189 C178 0.929 . S
O190 Co165 2.351 . S
O190 C193 1.244 . S
O191 Co165 2.155 . S
O191 C193 1.240 . S
O192 Co165 2.096 . S
O192 C173 1.247 . S
C193 O190 1.244 . S
C193 O191 1.240 . S
H194 C168 0.931 . S
H195 C177 0.931 . S
H196 C181 0.929 . S
H197 C183 0.930 . S
Co198 N202 2.148 . S
Co198 N208 2.128 . S
Co198 N218 2.194 1_556 S
Co198 O223 2.351 . S
Co198 O224 2.155 . S
Co198 O225 2.096 1_556 S
C199 N202 1.301 . S
C199 N203 1.328 . S
C199 H204 0.930 . S
C200 C201 1.333 . S
C200 N202 1.317 1_554 S
C200 H205 0.930 . S
C201 C200 1.333 . S
C201 N203 1.350 1_554 S
C201 H227 0.931 . S
N202 Co198 2.148 . S
N202 C199 1.301 . S
N202 C200 1.317 1_556 S
N203 C199 1.328 . S
N203 C201 1.350 1_556 S
H204 C199 0.930 . S
H205 C200 0.930 . S
C206 O207 1.224 . S
C206 O225 1.247 . S
O207 C206 1.224 . S
N208 Co198 2.128 . S
N208 C209 1.355 . S
N208 C211 1.311 1_556 S
C209 N208 1.355 . S
C209 C210 1.363 . S
C209 H221 0.929 . S
C210 C209 1.363 . S
C210 N212 1.375 1_556 S
C210 H228 0.931 . S
C211 N208 1.311 1_554 S
C211 N212 1.347 . S
C211 H222 0.929 . S
N212 C210 1.375 1_554 S
N212 C211 1.347 . S
C213 C216 1.365 . S
C213 N218 1.328 1_556 S
C213 H219 0.929 . S
C214 C215 1.362 . S
C214 C217 1.378 . S
C214 H229 0.929 . S
C215 C214 1.362 . S
C215 C216 1.366 1_554 S
C216 C213 1.365 . S
C216 C215 1.366 1_556 S
C216 H230 0.930 . S
C217 C214 1.378 . S
C217 N218 1.315 . S
C217 H220 0.930 . S
N218 Co198 2.194 1_554 S
N218 C213 1.328 1_554 S
N218 C217 1.315 . S
H219 C213 0.929 . S
H220 C217 0.930 . S
H221 C209 0.929 . S
H222 C211 0.929 . S
O223 Co198 2.351 . S
O223 C226 1.244 . S
O224 Co198 2.155 . S
O224 C226 1.240 . S
O225 Co198 2.096 1_554 S
O225 C206 1.247 . S
C226 O223 1.244 . S
C226 O224 1.240 . S
H227 C201 0.931 . S
H228 C210 0.931 . S
H229 C214 0.929 . S
H230 C216 0.930 . S
Co231 N235 2.148 . S
Co231 N241 2.128 . S
Co231 N251 2.194 . S
Co231 O256 2.351 . S
Co231 O257 2.155 . S
Co231 O258 2.096 . S
C232 N235 1.301 . S
C232 N236 1.328 . S
C232 H237 0.930 . S
C233 C234 1.333 . S
C233 N235 1.317 . S
C233 H238 0.930 . S
C234 C233 1.333 . S
C234 N236 1.350 . S
C234 H260 0.931 . S
N235 Co231 2.148 . S
N235 C232 1.301 . S
N235 C233 1.317 . S
N236 C232 1.328 . S
N236 C234 1.350 . S
H237 C232 0.930 . S
H238 C233 0.930 . S
C239 O240 1.224 . S
C239 O258 1.247 . S
O240 C239 1.224 . S
N241 Co231 2.128 . S
N241 C242 1.355 . S
N241 C244 1.311 . S
C242 N241 1.355 . S
C242 C243 1.363 . S
C242 H254 0.929 . S
C243 C242 1.363 . S
C243 N245 1.375 . S
C243 H261 0.931 . S
C244 N241 1.311 . S
C244 N245 1.347 . S
C244 H255 0.929 . S
N245 C243 1.375 . S
N245 C244 1.347 . S
C246 C249 1.365 . S
C246 N251 1.328 . S
C246 H252 0.929 . S
C247 C248 1.362 . S
C247 C250 1.378 . S
C247 H262 0.929 . S
C248 C247 1.362 . S
C248 C249 1.366 . S
C249 C246 1.365 . S
C249 C248 1.366 . S
C249 H263 0.930 . S
C250 C247 1.378 . S
C250 N251 1.315 . S
C250 H253 0.930 . S
N251 Co231 2.194 . S
N251 C246 1.328 . S
N251 C250 1.315 . S
H252 C246 0.929 . S
H253 C250 0.930 . S
H254 C242 0.929 . S
H255 C244 0.929 . S
O256 Co231 2.351 . S
O256 C259 1.244 . S
O257 Co231 2.155 . S
O257 C259 1.240 . S
O258 Co231 2.096 . S
O258 C239 1.247 . S
C259 O256 1.244 . S
C259 O257 1.240 . S
H260 C234 0.931 . S
H261 C243 0.931 . S
H262 C247 0.929 . S
H263 C249 0.930 . S
Co264 N268 2.148 . S
Co264 N274 2.128 . S
Co264 N284 2.194 . S
Co264 O289 2.351 . S
Co264 O290 2.155 . S
Co264 O291 2.096 . S
C265 N268 1.301 . S
C265 N269 1.328 . S
C265 H270 0.930 . S
C266 C267 1.333 . S
C266 N268 1.317 . S
C266 H271 0.930 . S
C267 C266 1.333 . S
C267 N269 1.350 . S
C267 H293 0.931 . S
N268 Co264 2.148 . S
N268 C265 1.301 . S
N268 C266 1.317 . S
N269 C265 1.328 . S
N269 C267 1.350 . S
H270 C265 0.930 . S
H271 C266 0.930 . S
C272 O273 1.224 . S
C272 O291 1.247 . S
O273 C272 1.224 . S
N274 Co264 2.128 . S
N274 C275 1.355 . S
N274 C277 1.311 . S
C275 N274 1.355 . S
C275 C276 1.363 . S
C275 H287 0.929 . S
C276 C275 1.363 . S
C276 N278 1.375 . S
C276 H294 0.931 . S
C277 N274 1.311 . S
C277 N278 1.347 . S
C277 H288 0.929 . S
N278 C276 1.375 . S
N278 C277 1.347 . S
C279 C282 1.365 . S
C279 N284 1.328 . S
C279 H285 0.929 . S
C280 C281 1.362 . S
C280 C283 1.378 . S
C280 H295 0.929 . S
C281 C280 1.362 . S
C281 C282 1.366 . S
C282 C279 1.365 . S
C282 C281 1.366 . S
C282 H296 0.930 . S
C283 C280 1.378 . S
C283 N284 1.315 . S
C283 H286 0.930 . S
N284 Co264 2.194 . S
N284 C279 1.328 . S
N284 C283 1.315 . S
H285 C279 0.929 . S
H286 C283 0.930 . S
H287 C275 0.929 . S
H288 C277 0.929 . S
O289 Co264 2.351 . S
O289 C292 1.244 . S
O290 Co264 2.155 . S
O290 C292 1.240 . S
O291 Co264 2.096 . S
O291 C272 1.247 . S
C292 O289 1.244 . S
C292 O290 1.240 . S
H293 C267 0.931 . S
H294 C276 0.931 . S
H295 C280 0.929 . S
H296 C282 0.930 . S
Co297 N301 2.148 . S
Co297 N307 2.128 . S
Co297 N317 2.194 . S
Co297 O322 2.351 . S
Co297 O323 2.155 . S
Co297 O324 2.096 . S
C298 N301 1.301 . S
C298 N302 1.328 . S
C298 H303 0.930 . S
C299 C300 1.333 . S
C299 N301 1.317 . S
C299 H304 0.930 . S
C300 C299 1.333 . S
C300 N302 1.350 . S
C300 H326 0.931 . S
N301 Co297 2.148 . S
N301 C298 1.301 . S
N301 C299 1.317 . S
N302 C298 1.328 . S
N302 C300 1.350 . S
H303 C298 0.930 . S
H304 C299 0.930 . S
C305 O306 1.224 . S
C305 O324 1.247 . S
O306 C305 1.224 . S
N307 Co297 2.128 . S
N307 C308 1.355 . S
N307 C310 1.311 . S
C308 N307 1.355 . S
C308 C309 1.363 . S
C308 H320 0.929 . S
C309 C308 1.363 . S
C309 N311 1.375 . S
C309 H327 0.931 . S
C310 N307 1.311 . S
C310 N311 1.347 . S
C310 H321 0.929 . S
N311 C309 1.375 . S
N311 C310 1.347 . S
C312 C315 1.365 . S
C312 N317 1.328 . S
C312 H318 0.929 . S
C313 C314 1.362 . S
C313 C316 1.378 . S
C313 H328 0.929 . S
C314 C313 1.362 . S
C314 C315 1.366 . S
C315 C312 1.365 . S
C315 C314 1.366 . S
C315 H329 0.930 . S
C316 C313 1.378 . S
C316 N317 1.315 . S
C316 H319 0.930 . S
N317 Co297 2.194 . S
N317 C312 1.328 . S
N317 C316 1.315 . S
H318 C312 0.929 . S
H319 C316 0.930 . S
H320 C308 0.929 . S
H321 C310 0.929 . S
O322 Co297 2.351 . S
O322 C325 1.244 . S
O323 Co297 2.155 . S
O323 C325 1.240 . S
O324 Co297 2.096 . S
O324 C305 1.247 . S
C325 O322 1.244 . S
C325 O323 1.240 . S
H326 C300 0.931 . S
H327 C309 0.931 . S
H328 C313 0.929 . S
H329 C315 0.930 . S
Co330 N334 2.148 . S
Co330 N340 2.128 . S
Co330 N350 2.194 1_556 S
Co330 O355 2.351 . S
Co330 O356 2.155 . S
Co330 O357 2.096 1_556 S
C331 N334 1.301 . S
C331 N335 1.328 . S
C331 H336 0.930 . S
C332 C333 1.333 . S
C332 N334 1.317 1_554 S
C332 H337 0.930 . S
C333 C332 1.333 . S
C333 N335 1.350 1_554 S
C333 H359 0.931 . S
N334 Co330 2.148 . S
N334 C331 1.301 . S
N334 C332 1.317 1_556 S
N335 C331 1.328 . S
N335 C333 1.350 1_556 S
H336 C331 0.930 . S
H337 C332 0.930 . S
C338 O339 1.224 . S
C338 O357 1.247 . S
O339 C338 1.224 . S
N340 Co330 2.128 . S
N340 C341 1.355 . S
N340 C343 1.311 1_556 S
C341 N340 1.355 . S
C341 C342 1.363 . S
C341 H353 0.929 . S
C342 C341 1.363 . S
C342 N344 1.375 1_556 S
C342 H360 0.931 . S
C343 N340 1.311 1_554 S
C343 N344 1.347 . S
C343 H354 0.929 . S
N344 C342 1.375 1_554 S
N344 C343 1.347 . S
C345 C348 1.365 . S
C345 N350 1.328 1_556 S
C345 H351 0.929 . S
C346 C347 1.362 . S
C346 C349 1.378 . S
C346 H361 0.929 . S
C347 C346 1.362 . S
C347 C348 1.366 1_554 S
C348 C345 1.365 . S
C348 C347 1.366 1_556 S
C348 H362 0.930 . S
C349 C346 1.378 . S
C349 N350 1.315 . S
C349 H352 0.930 . S
N350 Co330 2.194 1_554 S
N350 C345 1.328 1_554 S
N350 C349 1.315 . S
H351 C345 0.929 . S
H352 C349 0.930 . S
H353 C341 0.929 . S
H354 C343 0.929 . S
O355 Co330 2.351 . S
O355 C358 1.244 . S
O356 Co330 2.155 . S
O356 C358 1.240 . S
O357 Co330 2.096 1_554 S
O357 C338 1.247 . S
C358 O355 1.244 . S
C358 O356 1.240 . S
H359 C333 0.931 . S
H360 C342 0.931 . S
H361 C346 0.929 . S
H362 C348 0.930 . S
Co363 N367 2.148 . S
Co363 N373 2.128 . S
Co363 N383 2.194 . S
Co363 O388 2.351 . S
Co363 O389 2.155 . S
Co363 O390 2.096 . S
C364 N367 1.301 . S
C364 N368 1.328 . S
C364 H369 0.930 . S
C365 C366 1.333 . S
C365 N367 1.317 . S
C365 H370 0.930 . S
C366 C365 1.333 . S
C366 N368 1.350 . S
C366 H392 0.931 . S
N367 Co363 2.148 . S
N367 C364 1.301 . S
N367 C365 1.317 . S
N368 C364 1.328 . S
N368 C366 1.350 . S
H369 C364 0.930 . S
H370 C365 0.930 . S
C371 O372 1.224 . S
C371 O390 1.247 . S
O372 C371 1.224 . S
N373 Co363 2.128 . S
N373 C374 1.355 . S
N373 C376 1.311 . S
C374 N373 1.355 . S
C374 C375 1.363 . S
C374 H386 0.929 . S
C375 C374 1.363 . S
C375 N377 1.375 . S
C375 H393 0.931 . S
C376 N373 1.311 . S
C376 N377 1.347 . S
C376 H387 0.929 . S
N377 C375 1.375 . S
N377 C376 1.347 . S
C378 C381 1.365 . S
C378 N383 1.328 . S
C378 H384 0.929 . S
C379 C380 1.362 . S
C379 C382 1.378 . S
C379 H394 0.929 . S
C380 C379 1.362 . S
C380 C381 1.366 . S
C381 C378 1.365 . S
C381 C380 1.366 . S
C381 H395 0.930 . S
C382 C379 1.378 . S
C382 N383 1.315 . S
C382 H385 0.930 . S
N383 Co363 2.194 . S
N383 C378 1.328 . S
N383 C382 1.315 . S
H384 C378 0.929 . S
H385 C382 0.930 . S
H386 C374 0.929 . S
H387 C376 0.929 . S
O388 Co363 2.351 . S
O388 C391 1.244 . S
O389 Co363 2.155 . S
O389 C391 1.240 . S
O390 Co363 2.096 . S
O390 C371 1.247 . S
C391 O388 1.244 . S
C391 O389 1.240 . S
H392 C366 0.931 . S
H393 C375 0.931 . S
H394 C379 0.929 . S
H395 C381 0.930 . S
Co396 N400 2.148 . S
Co396 N406 2.128 . S
Co396 N416 2.194 1_556 S
Co396 O421 2.351 . S
Co396 O422 2.155 . S
Co396 O423 2.096 1_556 S
C397 N400 1.301 . S
C397 N401 1.328 . S
C397 H402 0.930 . S
C398 C399 1.333 . S
C398 N400 1.317 1_554 S
C398 H403 0.930 . S
C399 C398 1.333 . S
C399 N401 1.350 1_554 S
C399 H425 0.931 . S
N400 Co396 2.148 . S
N400 C397 1.301 . S
N400 C398 1.317 1_556 S
N401 C397 1.328 . S
N401 C399 1.350 1_556 S
H402 C397 0.930 . S
H403 C398 0.930 . S
C404 O405 1.224 . S
C404 O423 1.247 . S
O405 C404 1.224 . S
N406 Co396 2.128 . S
N406 C407 1.355 . S
N406 C409 1.311 1_556 S
C407 N406 1.355 . S
C407 C408 1.363 . S
C407 H419 0.929 . S
C408 C407 1.363 . S
C408 N410 1.375 1_556 S
C408 H426 0.931 . S
C409 N406 1.311 1_554 S
C409 N410 1.347 . S
C409 H420 0.929 . S
N410 C408 1.375 1_554 S
N410 C409 1.347 . S
C411 C414 1.365 . S
C411 N416 1.328 1_556 S
C411 H417 0.929 . S
C412 C413 1.362 . S
C412 C415 1.378 . S
C412 H427 0.929 . S
C413 C412 1.362 . S
C413 C414 1.366 1_554 S
C414 C411 1.365 . S
C414 C413 1.366 1_556 S
C414 H428 0.930 . S
C415 C412 1.378 . S
C415 N416 1.315 . S
C415 H418 0.930 . S
N416 Co396 2.194 1_554 S
N416 C411 1.328 1_554 S
N416 C415 1.315 . S
H417 C411 0.929 . S
H418 C415 0.930 . S
H419 C407 0.929 . S
H420 C409 0.929 . S
O421 Co396 2.351 . S
O421 C424 1.244 . S
O422 Co396 2.155 . S
O422 C424 1.240 . S
O423 Co396 2.096 1_554 S
O423 C404 1.247 . S
C424 O421 1.244 . S
C424 O422 1.240 . S
H425 C399 0.931 . S
H426 C408 0.931 . S
H427 C412 0.929 . S
H428 C414 0.930 . S
Co429 N433 2.148 . S
Co429 N439 2.128 . S
Co429 N449 2.194 . S
Co429 O454 2.351 . S
Co429 O455 2.155 . S
Co429 O456 2.096 . S
C430 N433 1.301 . S
C430 N434 1.328 . S
C430 H435 0.930 . S
C431 C432 1.333 . S
C431 N433 1.317 . S
C431 H436 0.930 . S
C432 C431 1.333 . S
C432 N434 1.350 . S
C432 H458 0.931 . S
N433 Co429 2.148 . S
N433 C430 1.301 . S
N433 C431 1.317 . S
N434 C430 1.328 . S
N434 C432 1.350 . S
H435 C430 0.930 . S
H436 C431 0.930 . S
C437 O438 1.224 . S
C437 O456 1.247 . S
O438 C437 1.224 . S
N439 Co429 2.128 . S
N439 C440 1.355 . S
N439 C442 1.311 . S
C440 N439 1.355 . S
C440 C441 1.363 . S
C440 H452 0.929 . S
C441 C440 1.363 . S
C441 N443 1.375 . S
C441 H459 0.931 . S
C442 N439 1.311 . S
C442 N443 1.347 . S
C442 H453 0.929 . S
N443 C441 1.375 . S
N443 C442 1.347 . S
C444 C447 1.365 . S
C444 N449 1.328 . S
C444 H450 0.929 . S
C445 C446 1.362 . S
C445 C448 1.378 . S
C445 H460 0.929 . S
C446 C445 1.362 . S
C446 C447 1.366 . S
C447 C444 1.365 . S
C447 C446 1.366 . S
C447 H461 0.930 . S
C448 C445 1.378 . S
C448 N449 1.315 . S
C448 H451 0.930 . S
N449 Co429 2.194 . S
N449 C444 1.328 . S
N449 C448 1.315 . S
H450 C444 0.929 . S
H451 C448 0.930 . S
H452 C440 0.929 . S
H453 C442 0.929 . S
O454 Co429 2.351 . S
O454 C457 1.244 . S
O455 Co429 2.155 . S
O455 C457 1.240 . S
O456 Co429 2.096 . S
O456 C437 1.247 . S
C457 O454 1.244 . S
C457 O455 1.240 . S
H458 C432 0.931 . S
H459 C441 0.931 . S
H460 C445 0.929 . S
H461 C447 0.930 . S
Co462 N466 2.148 . S
Co462 N472 2.128 . S
Co462 N482 2.194 . S
Co462 O487 2.351 . S
Co462 O488 2.155 . S
Co462 O489 2.096 . S
C463 N466 1.301 . S
C463 N467 1.328 . S
C463 H468 0.930 . S
C464 C465 1.333 . S
C464 N466 1.317 . S
C464 H469 0.930 . S
C465 C464 1.333 . S
C465 N467 1.350 . S
C465 H491 0.931 . S
N466 Co462 2.148 . S
N466 C463 1.301 . S
N466 C464 1.317 . S
N467 C463 1.328 . S
N467 C465 1.350 . S
H468 C463 0.930 . S
H469 C464 0.930 . S
C470 O471 1.224 . S
C470 O489 1.247 . S
O471 C470 1.224 . S
N472 Co462 2.128 . S
N472 C473 1.355 . S
N472 C475 1.311 . S
C473 N472 1.355 . S
C473 C474 1.363 . S
C473 H485 0.929 . S
C474 C473 1.363 . S
C474 N476 1.375 . S
C474 H492 0.931 . S
C475 N472 1.311 . S
C475 N476 1.347 . S
C475 H486 0.929 . S
N476 C474 1.375 . S
N476 C475 1.347 . S
C477 C480 1.365 . S
C477 N482 1.328 . S
C477 H483 0.929 . S
C478 C479 1.362 . S
C478 C481 1.378 . S
C478 H493 0.929 . S
C479 C478 1.362 . S
C479 C480 1.366 . S
C480 C477 1.365 . S
C480 C479 1.366 . S
C480 H494 0.930 . S
C481 C478 1.378 . S
C481 N482 1.315 . S
C481 H484 0.930 . S
N482 Co462 2.194 . S
N482 C477 1.328 . S
N482 C481 1.315 . S
H483 C477 0.929 . S
H484 C481 0.930 . S
H485 C473 0.929 . S
H486 C475 0.929 . S
O487 Co462 2.351 . S
O487 C490 1.244 . S
O488 Co462 2.155 . S
O488 C490 1.240 . S
O489 Co462 2.096 . S
O489 C470 1.247 . S
C490 O487 1.244 . S
C490 O488 1.240 . S
H491 C465 0.931 . S
H492 C474 0.931 . S
H493 C478 0.929 . S
H494 C480 0.930 . S
Co495 N499 2.148 . S
Co495 N505 2.128 . S
Co495 N515 2.194 . S
Co495 O520 2.351 . S
Co495 O521 2.155 . S
Co495 O522 2.096 . S
C496 N499 1.301 . S
C496 N500 1.328 . S
C496 H501 0.930 . S
C497 C498 1.333 . S
C497 N499 1.317 . S
C497 H502 0.930 . S
C498 C497 1.333 . S
C498 N500 1.350 . S
C498 H524 0.931 . S
N499 Co495 2.148 . S
N499 C496 1.301 . S
N499 C497 1.317 . S
N500 C496 1.328 . S
N500 C498 1.350 . S
H501 C496 0.930 . S
H502 C497 0.930 . S
C503 O504 1.224 . S
C503 O522 1.247 . S
O504 C503 1.224 . S
N505 Co495 2.128 . S
N505 C506 1.355 . S
N505 C508 1.311 . S
C506 N505 1.355 . S
C506 C507 1.363 . S
C506 H518 0.929 . S
C507 C506 1.363 . S
C507 N509 1.375 . S
C507 H525 0.931 . S
C508 N505 1.311 . S
C508 N509 1.347 . S
C508 H519 0.929 . S
N509 C507 1.375 . S
N509 C508 1.347 . S
C510 C513 1.365 . S
C510 N515 1.328 . S
C510 H516 0.929 . S
C511 C512 1.362 . S
C511 C514 1.378 . S
C511 H526 0.929 . S
C512 C511 1.362 . S
C512 C513 1.366 . S
C513 C510 1.365 . S
C513 C512 1.366 . S
C513 H527 0.930 . S
C514 C511 1.378 . S
C514 N515 1.315 . S
C514 H517 0.930 . S
N515 Co495 2.194 . S
N515 C510 1.328 . S
N515 C514 1.315 . S
H516 C510 0.929 . S
H517 C514 0.930 . S
H518 C506 0.929 . S
H519 C508 0.929 . S
O520 Co495 2.351 . S
O520 C523 1.244 . S
O521 Co495 2.155 . S
O521 C523 1.240 . S
O522 Co495 2.096 . S
O522 C503 1.247 . S
C523 O520 1.244 . S
C523 O521 1.240 . S
H524 C498 0.931 . S
H525 C507 0.931 . S
H526 C511 0.929 . S
H527 C513 0.930 . S
H528 C536 0.950 . S
H529 C541 0.950 . S
H530 C538 0.950 . S
H531 C540 0.950 1_545 S
H532 C542 0.950 . S
H533 C544 0.950 . S
H534 C546 0.950 1_565 S
H535 C547 0.950 . S
C536 H528 0.950 . S
C536 C537 1.386 . S
C536 C538 1.391 . S
C537 C536 1.386 . S
C537 C541 1.393 1_554 S
C538 H530 0.950 . S
C538 C536 1.391 . S
C538 C539 1.400 . S
C539 C538 1.400 . S
C539 C540 1.398 1_554 S
C539 C545 1.491 1_665 S
C540 H531 0.950 1_565 S
C540 C539 1.398 1_556 S
C540 C541 1.391 . S
C541 H529 0.950 . S
C541 C537 1.393 1_556 S
C541 C540 1.391 . S
C542 H532 0.950 . S
C542 C543 1.386 1_556 S
C542 C544 1.391 . S
C543 C542 1.386 1_554 S
C543 C547 1.393 . S
C544 H533 0.950 . S
C544 C542 1.391 . S
C544 C545 1.400 1_556 S
C545 C539 1.491 1_445 S
C545 C544 1.400 1_554 S
C545 C546 1.398 . S
C546 H534 0.950 1_545 S
C546 C545 1.398 . S
C546 C547 1.391 . S
C547 H535 0.950 . S
C547 C543 1.393 . S
C547 C546 1.391 . S
H548 C556 0.950 . S
H549 C561 0.950 . S
H550 C558 0.950 . S
H551 C560 0.950 . S
H552 C562 0.950 . S
H553 C564 0.950 . S
H554 C566 0.950 . S
H555 C567 0.950 . S
C556 H548 0.950 . S
C556 C557 1.386 . S
C556 C558 1.391 1_655 S
C557 C556 1.386 . S
C557 C561 1.393 . S
C558 H550 0.950 . S
C558 C556 1.391 1_455 S
C558 C559 1.400 1_455 S
C559 C558 1.400 1_655 S
C559 C560 1.398 . S
C559 C565 1.491 1_655 S
C560 H551 0.950 . S
C560 C559 1.398 . S
C560 C561 1.391 . S
C561 H549 0.950 . S
C561 C557 1.393 . S
C561 C560 1.391 . S
C562 H552 0.950 . S
C562 C563 1.386 . S
C562 C564 1.391 1_455 S
C563 C562 1.386 . S
C563 C567 1.393 . S
C564 H553 0.950 . S
C564 C562 1.391 1_655 S
C564 C565 1.400 1_655 S
C565 C559 1.491 1_455 S
C565 C564 1.400 1_455 S
C565 C566 1.398 . S
C566 H554 0.950 . S
C566 C565 1.398 . S
C566 C567 1.391 . S
C567 H555 0.950 . S
C567 C563 1.393 . S
C567 C566 1.391 . S
H568 C576 0.950 . S
H569 C581 0.950 . S
H570 C578 0.950 . S
H571 C580 0.950 . S
H572 C582 0.950 . S
H573 C584 0.950 . S
H574 C586 0.950 . S
H575 C587 0.950 . S
C576 H568 0.950 . S
C576 C577 1.386 . S
C576 C578 1.391 . S
C577 C576 1.386 . S
C577 C581 1.393 . S
C578 H570 0.950 . S
C578 C576 1.391 . S
C578 C579 1.400 . S
C579 C578 1.400 . S
C579 C580 1.398 . S
C579 C585 1.491 . S
C580 H571 0.950 . S
C580 C579 1.398 . S
C580 C581 1.391 . S
C581 H569 0.950 . S
C581 C577 1.393 . S
C581 C580 1.391 . S
C582 H572 0.950 . S
C582 C583 1.386 . S
C582 C584 1.391 . S
C583 C582 1.386 . S
C583 C587 1.393 . S
C584 H573 0.950 . S
C584 C582 1.391 . S
C584 C585 1.400 . S
C585 C579 1.491 . S
C585 C584 1.400 . S
C585 C586 1.398 . S
C586 H574 0.950 . S
C586 C585 1.398 . S
C586 C587 1.391 . S
C587 H575 0.950 . S
C587 C583 1.393 . S
C587 C586 1.391 . S
H588 C596 0.950 . S
H589 C601 0.950 . S
H590 C598 0.934 1_545 S
H591 C600 0.950 . S
H592 C602 0.950 . S
H593 C604 0.934 1_565 S
H594 C606 0.950 . S
H595 C607 0.950 . S
C596 H588 0.950 . S
C596 C597 1.386 . S
C596 C598 1.391 . S
C597 C596 1.386 . S
C597 C601 1.393 . S
C598 H590 0.934 1_565 S
C598 C596 1.391 . S
C598 C599 1.400 . S
C599 C598 1.400 . S
C599 C600 1.398 . S
C599 C605 1.491 1_565 S
C600 H591 0.950 . S
C600 C599 1.398 . S
C600 C601 1.391 . S
C601 H589 0.950 . S
C601 C597 1.393 . S
C601 C600 1.391 . S
C602 H592 0.950 . S
C602 C603 1.386 . S
C602 C604 1.391 . S
C603 C602 1.386 . S
C603 C607 1.393 . S
C604 H593 0.934 1_545 S
C604 C602 1.391 . S
C604 C605 1.400 . S
C605 C599 1.491 1_545 S
C605 C604 1.400 . S
C605 C606 1.398 . S
C606 H594 0.950 . S
C606 C605 1.398 . S
C606 C607 1.391 . S
C607 H595 0.950 . S
C607 C603 1.393 . S
C607 C606 1.391 . S
H608 C616 0.950 . S
H609 C621 0.950 . S
H610 C618 0.950 . S
H611 C620 0.950 . S
H612 C622 0.950 . S
H613 C624 0.950 . S
H614 C626 0.950 . S
H615 C627 0.950 . S
C616 H608 0.950 . S
C616 C617 1.386 . S
C616 C618 1.391 . S
C617 C616 1.386 . S
C617 C621 1.393 . S
C618 H610 0.950 . S
C618 C616 1.391 . S
C618 C619 1.400 . S
C619 C618 1.400 . S
C619 C620 1.398 1_565 S
C619 C625 1.491 1_465 S
C620 H611 0.950 . S
C620 C619 1.398 1_545 S
C620 C621 1.391 1_545 S
C621 H609 0.950 . S
C621 C617 1.393 . S
C621 C620 1.391 1_565 S
C622 H612 0.950 . S
C622 C623 1.386 . S
C622 C624 1.391 . S
C623 C622 1.386 . S
C623 C627 1.393 . S
C624 H613 0.950 . S
C624 C622 1.391 . S
C624 C625 1.400 . S
C625 C619 1.491 1_645 S
C625 C624 1.400 . S
C625 C626 1.398 1_545 S
C626 H614 0.950 . S
C626 C625 1.398 1_565 S
C626 C627 1.391 1_565 S
C627 H615 0.950 . S
C627 C623 1.393 . S
C627 C626 1.391 1_545 S
H628 C636 0.950 1_455 S
H629 C641 0.950 . S
H630 C638 0.950 . S
H631 C640 0.950 . S
H632 C642 0.950 1_655 S
H633 C644 0.950 . S
H634 C646 0.950 . S
H635 C647 0.950 . S
C636 H628 0.950 1_655 S
C636 C637 1.386 . S
C636 C638 1.391 1_655 S
C637 C636 1.386 . S
C637 C641 1.393 . S
C638 H630 0.950 . S
C638 C636 1.391 1_455 S
C638 C639 1.400 1_455 S
C639 C638 1.400 1_655 S
C639 C640 1.398 . S
C639 C645 1.491 1_655 S
C640 H631 0.950 . S
C640 C639 1.398 . S
C640 C641 1.391 . S
C641 H629 0.950 . S
C641 C637 1.393 . S
C641 C640 1.391 . S
C642 H632 0.950 1_455 S
C642 C643 1.386 . S
C642 C644 1.391 1_455 S
C643 C642 1.386 . S
C643 C647 1.393 . S
C644 H633 0.950 . S
C644 C642 1.391 1_655 S
C644 C645 1.400 1_655 S
C645 C639 1.491 1_455 S
C645 C644 1.400 1_455 S
C645 C646 1.398 . S
C646 H634 0.950 . S
C646 C645 1.398 . S
C646 C647 1.391 . S
C647 H635 0.950 . S
C647 C643 1.393 . S
C647 C646 1.391 . S
H648 C656 0.950 . S
H649 C661 0.950 . S
H650 C658 0.950 . S
H651 C660 0.950 . S
H652 C662 0.950 . S
H653 C664 0.950 . S
H654 C666 0.950 . S
H655 C667 0.950 . S
C656 H648 0.950 . S
C656 C657 1.386 . S
C656 C658 1.391 . S
C657 C656 1.386 . S
C657 C661 1.393 . S
C658 H650 0.950 . S
C658 C656 1.391 . S
C658 C659 1.400 . S
C659 C658 1.400 . S
C659 C660 1.398 . S
C659 C665 1.491 . S
C660 H651 0.950 . S
C660 C659 1.398 . S
C660 C661 1.391 . S
C661 H649 0.950 . S
C661 C657 1.393 . S
C661 C660 1.391 . S
C662 H652 0.950 . S
C662 C663 1.386 . S
C662 C664 1.391 . S
C663 C662 1.386 . S
C663 C667 1.393 . S
C664 H653 0.950 . S
C664 C662 1.391 . S
C664 C665 1.400 . S
C665 C659 1.491 . S
C665 C664 1.400 . S
C665 C666 1.398 . S
C666 H654 0.950 . S
C666 C665 1.398 . S
C666 C667 1.391 . S
C667 H655 0.950 . S
C667 C663 1.393 . S
C667 C666 1.391 . S
H668 C676 0.950 . S
H669 C681 0.950 . S
H670 C678 0.950 . S
H671 C680 0.919 1_545 S
H672 C682 0.950 . S
H673 C684 0.950 . S
H674 C686 0.919 1_565 S
H675 C687 0.950 . S
C676 H668 0.950 . S
C676 C677 1.386 . S
C676 C678 1.391 . S
C677 C676 1.386 . S
C677 C681 1.393 . S
C678 H670 0.950 . S
C678 C676 1.391 . S
C678 C679 1.400 . S
C679 C678 1.400 . S
C679 C680 1.398 . S
C679 C685 1.491 1_565 S
C680 H671 0.919 1_565 S
C680 C679 1.398 . S
C680 C681 1.391 . S
C681 H669 0.950 . S
C681 C677 1.393 . S
C681 C680 1.391 . S
C682 H672 0.950 . S
C682 C683 1.386 . S
C682 C684 1.391 . S
C683 C682 1.386 . S
C683 C687 1.393 . S
C684 H673 0.950 . S
C684 C682 1.391 . S
C684 C685 1.400 . S
C685 C679 1.491 1_545 S
C685 C684 1.400 . S
C685 C686 1.398 . S
C686 H674 0.919 1_545 S
C686 C685 1.398 . S
C686 C687 1.391 . S
C687 H675 0.950 . S
C687 C683 1.393 . S
C687 C686 1.391 . S
H688 C696 0.950 . S
H689 C701 0.950 . S
H690 C698 0.950 1_545 S
H691 C700 0.950 . S
H692 C702 0.950 . S
H693 C704 0.950 . S
H694 C706 0.950 . S
H695 C707 0.950 . S
C696 H688 0.950 . S
C696 C697 1.386 . S
C696 C698 1.391 . S
C697 C696 1.386 . S
C697 C701 1.393 . S
C698 H690 0.950 1_565 S
C698 C696 1.391 . S
C698 C699 1.400 . S
C699 C698 1.400 . S
C699 C700 1.398 . S
C699 C705 1.469 1_565 S
C700 H691 0.950 . S
C700 C699 1.398 . S
C700 C701 1.391 . S
C701 H689 0.950 . S
C701 C697 1.393 . S
C701 C700 1.391 . S
C702 H692 0.950 . S
C702 C703 1.386 . S
C702 C704 1.391 1_545 S
C703 C702 1.386 . S
C703 C707 1.393 . S
C704 H693 0.950 . S
C704 C702 1.391 1_565 S
C704 C705 1.395 1_565 S
C705 C699 1.469 1_545 S
C705 C704 1.395 1_545 S
C705 C706 1.427 . S
C706 H694 0.950 . S
C706 C705 1.427 . S
C706 C707 1.391 . S
C707 H695 0.950 . S
C707 C703 1.393 . S
C707 C706 1.391 . S
H708 C716 0.950 . S
H709 C721 0.950 . S
H710 C718 0.950 . S
H711 C720 0.950 1_655 S
H712 C722 0.950 . S
H713 C724 0.950 . S
H714 C726 0.950 . S
H715 C727 0.950 . S
C716 H708 0.950 . S
C716 C717 1.386 . S
C716 C718 1.391 . S
C717 C716 1.386 . S
C717 C721 1.393 . S
C718 H710 0.950 . S
C718 C716 1.391 . S
C718 C719 1.400 . S
C719 C718 1.400 . S
C719 C720 1.398 . S
C719 C725 1.471 1_455 S
C720 H711 0.950 1_455 S
C720 C719 1.398 . S
C720 C721 1.391 . S
C721 H709 0.950 . S
C721 C717 1.393 . S
C721 C720 1.391 . S
C722 H712 0.950 . S
C722 C723 1.386 . S
C722 C724 1.391 . S
C723 C722 1.386 . S
C723 C727 1.393 . S
C724 H713 0.950 . S
C724 C722 1.391 . S
C724 C725 1.427 . S
C725 C719 1.471 1_655 S
C725 C724 1.427 . S
C725 C726 1.393 1_655 S
C726 H714 0.950 . S
C726 C725 1.393 1_455 S
C726 C727 1.391 1_455 S
C727 H715 0.950 . S
C727 C723 1.393 . S
C727 C726 1.391 1_655 S
H728 C736 0.950 . S
H729 C741 0.950 . S
H730 C738 0.950 . S
H731 C740 0.950 . S
H732 C742 0.950 . S
H733 C744 0.950 . S
H734 C746 0.950 . S
H735 C747 0.950 . S
C736 H728 0.950 . S
C736 C737 1.386 . S
C736 C738 1.391 . S
C737 C736 1.386 . S
C737 C741 1.393 . S
C738 H730 0.950 . S
C738 C736 1.391 . S
C738 C739 1.400 . S
C739 C738 1.400 . S
C739 C740 1.398 . S
C739 C745 1.491 . S
C740 H731 0.950 . S
C740 C739 1.398 . S
C740 C741 1.391 . S
C741 H729 0.950 . S
C741 C737 1.393 . S
C741 C740 1.391 . S
C742 H732 0.950 . S
C742 C743 1.386 . S
C742 C744 1.391 . S
C743 C742 1.386 . S
C743 C747 1.393 . S
C744 H733 0.950 . S
C744 C742 1.391 . S
C744 C745 1.400 . S
C745 C739 1.491 . S
C745 C744 1.400 . S
C745 C746 1.398 . S
C746 H734 0.950 . S
C746 C745 1.398 . S
C746 C747 1.391 . S
C747 H735 0.950 . S
C747 C743 1.393 . S
C747 C746 1.391 . S
H748 C756 0.950 . S
H749 C761 0.950 . S
H750 C758 0.950 1_556 S
H751 C760 0.950 . S
H752 C762 0.950 . S
H753 C764 0.939 1_554 S
H754 C766 0.950 . S
H755 C767 0.950 . S
C756 H748 0.950 . S
C756 C757 1.386 . S
C756 C758 1.391 . S
C757 C756 1.386 . S
C757 C761 1.393 . S
C758 H750 0.950 1_554 S
C758 C756 1.391 . S
C758 C759 1.400 . S
C759 C758 1.400 . S
C759 C760 1.398 . S
C759 C765 1.491 1_554 S
C760 H751 0.950 . S
C760 C759 1.398 . S
C760 C761 1.391 . S
C761 H749 0.950 . S
C761 C757 1.393 . S
C761 C760 1.391 . S
C762 H752 0.950 . S
C762 C763 1.386 . S
C762 C764 1.391 . S
C763 C762 1.386 . S
C763 C767 1.393 . S
C764 H753 0.939 1_556 S
C764 C762 1.391 . S
C764 C765 1.400 . S
C765 C759 1.491 1_556 S
C765 C764 1.400 . S
C765 C766 1.398 . S
C766 H754 0.950 . S
C766 C765 1.398 . S
C766 C767 1.391 . S
C767 H755 0.950 . S
C767 C763 1.393 . S
C767 C766 1.391 . S
H768 C776 0.950 . S
H769 C781 0.950 . S
H770 C778 0.950 . S
H771 C780 0.950 . S
H772 C782 0.950 . S
H773 C784 0.950 1_545 S
H774 C786 0.950 . S
H775 C787 0.950 . S
C776 H768 0.950 . S
C776 C777 1.386 . S
C776 C778 1.391 1_545 S
C777 C776 1.386 . S
C777 C781 1.393 . S
C778 H770 0.950 . S
C778 C776 1.391 1_565 S
C778 C779 1.400 1_565 S
C779 C778 1.400 1_545 S
C779 C780 1.402 . S
C779 C785 1.488 1_545 S
C780 H771 0.950 . S
C780 C779 1.402 . S
C780 C781 1.391 . S
C781 H769 0.950 . S
C781 C777 1.393 . S
C781 C780 1.391 . S
C782 H772 0.950 . S
C782 C783 1.386 . S
C782 C784 1.391 . S
C783 C782 1.386 . S
C783 C787 1.393 . S
C784 H773 0.950 1_565 S
C784 C782 1.391 . S
C784 C785 1.400 . S
C785 C779 1.488 1_565 S
C785 C784 1.400 . S
C785 C786 1.398 . S
C786 H774 0.950 . S
C786 C785 1.398 . S
C786 C787 1.391 . S
C787 H775 0.950 . S
C787 C783 1.393 . S
C787 C786 1.391 . S
H788 C796 0.950 . S
H789 C801 0.954 . S
H790 C798 0.950 . S
H791 C800 0.950 . S
H792 C802 0.950 . S
H793 C804 0.950 1_556 S
H794 C806 0.950 1_655 S
H795 C807 0.950 . S
C796 H788 0.950 . S
C796 C797 1.386 . S
C796 C798 1.391 . S
C797 C796 1.386 . S
C797 C801 1.393 . S
C798 H790 0.950 . S
C798 C796 1.391 . S
C798 C799 1.427 . S
C799 C798 1.427 . S
C799 C800 1.389 1_655 S
C799 C805 1.474 1_656 S
C800 H791 0.950 . S
C800 C799 1.389 1_455 S
C800 C801 1.391 1_455 S
C801 H789 0.954 . S
C801 C797 1.393 . S
C801 C800 1.391 1_655 S
C802 H792 0.950 . S
C802 C803 1.386 . S
C802 C804 1.391 . S
C803 C802 1.386 . S
C803 C807 1.393 . S
C804 H793 0.950 1_554 S
C804 C802 1.391 . S
C804 C805 1.400 . S
C805 C799 1.474 1_454 S
C805 C804 1.400 . S
C805 C806 1.398 . S
C806 H794 0.950 1_455 S
C806 C805 1.398 . S
C806 C807 1.391 . S
C807 H795 0.950 . S
C807 C803 1.393 . S
C807 C806 1.391 . S
H808 C816 0.950 . S
H809 C821 0.950 . S
H810 C818 0.950 . S
H811 C820 0.950 . S
H812 C822 0.950 . S
H813 C824 0.950 . S
H814 C826 0.950 . S
H815 C827 0.950 . S
C816 H808 0.950 . S
C816 C817 1.386 . S
C816 C818 1.391 . S
C817 C816 1.386 . S
C817 C821 1.393 . S
C818 H810 0.950 . S
C818 C816 1.391 . S
C818 C819 1.400 . S
C819 C818 1.400 . S
C819 C820 1.398 . S
C819 C825 1.491 . S
C820 H811 0.950 . S
C820 C819 1.398 . S
C820 C821 1.391 . S
C821 H809 0.950 . S
C821 C817 1.393 . S
C821 C820 1.391 . S
C822 H812 0.950 . S
C822 C823 1.386 . S
C822 C824 1.391 . S
C823 C822 1.386 . S
C823 C827 1.393 . S
C824 H813 0.950 . S
C824 C822 1.391 . S
C824 C825 1.400 . S
C825 C819 1.491 . S
C825 C824 1.400 . S
C825 C826 1.398 . S
C826 H814 0.950 . S
C826 C825 1.398 . S
C826 C827 1.391 . S
C827 H815 0.950 . S
C827 C823 1.393 . S
C827 C826 1.391 . S
H828 C836 0.950 . S
H829 C841 0.950 . S
H830 C838 0.950 . S
H831 C840 0.950 . S
H832 C842 0.950 . S
H833 C844 0.950 . S
H834 C846 0.950 . S
H835 C847 0.950 . S
C836 H828 0.950 . S
C836 C837 1.386 . S
C836 C838 1.391 . S
C837 C836 1.386 . S
C837 C841 1.393 . S
C838 H830 0.950 . S
C838 C836 1.391 . S
C838 C839 1.400 . S
C839 C838 1.400 . S
C839 C840 1.398 . S
C839 C845 1.491 . S
C840 H831 0.950 . S
C840 C839 1.398 . S
C840 C841 1.391 . S
C841 H829 0.950 . S
C841 C837 1.393 . S
C841 C840 1.391 . S
C842 H832 0.950 . S
C842 C843 1.386 . S
C842 C844 1.391 . S
C843 C842 1.386 . S
C843 C847 1.393 . S
C844 H833 0.950 . S
C844 C842 1.391 . S
C844 C845 1.400 . S
C845 C839 1.491 . S
C845 C844 1.400 . S
C845 C846 1.398 . S
C846 H834 0.950 . S
C846 C845 1.398 . S
C846 C847 1.391 . S
C847 H835 0.950 . S
C847 C843 1.393 . S
C847 C846 1.391 . S
H848 C856 0.950 . S
H849 C861 0.950 . S
H850 C858 0.950 . S
H851 C860 0.950 . S
H852 C862 0.950 . S
H853 C864 0.950 . S
H854 C866 0.950 . S
H855 C867 0.950 . S
C856 H848 0.950 . S
C856 C857 1.386 . S
C856 C858 1.391 . S
C857 C856 1.386 . S
C857 C861 1.393 . S
C858 H850 0.950 . S
C858 C856 1.391 . S
C858 C859 1.400 . S
C859 C858 1.400 . S
C859 C860 1.398 . S
C859 C865 1.491 . S
C860 H851 0.950 . S
C860 C859 1.398 . S
C860 C861 1.391 . S
C861 H849 0.950 . S
C861 C857 1.393 . S
C861 C860 1.391 . S
C862 H852 0.950 . S
C862 C863 1.386 . S
C862 C864 1.391 . S
C863 C862 1.386 . S
C863 C867 1.393 . S
C864 H853 0.950 . S
C864 C862 1.391 . S
C864 C865 1.400 . S
C865 C859 1.491 . S
C865 C864 1.400 . S
C865 C866 1.398 . S
C866 H854 0.950 . S
C866 C865 1.398 . S
C866 C867 1.391 . S
C867 H855 0.950 . S
C867 C863 1.393 . S
C867 C866 1.391 . S
H868 C876 0.950 . S
H869 C881 0.950 . S
H870 C878 0.950 1_556 S
H871 C880 0.950 . S
H872 C882 0.950 . S
H873 C884 0.950 . S
H874 C886 0.950 . S
H875 C887 0.950 . S
C876 H868 0.950 . S
C876 C877 1.386 . S
C876 C878 1.391 . S
C877 C876 1.386 . S
C877 C881 1.393 . S
C878 H870 0.950 1_554 S
C878 C876 1.391 . S
C878 C879 1.400 . S
C879 C878 1.400 . S
C879 C880 1.398 . S
C879 C885 1.491 1_554 S
C880 H871 0.950 . S
C880 C879 1.398 . S
C880 C881 1.391 . S
C881 H869 0.950 . S
C881 C877 1.393 . S
C881 C880 1.391 . S
C882 H872 0.950 . S
C882 C883 1.386 . S
C882 C884 1.391 . S
C883 C882 1.386 . S
C883 C887 1.393 . S
C884 H873 0.950 . S
C884 C882 1.391 . S
C884 C885 1.400 . S
C885 C879 1.491 1_556 S
C885 C884 1.400 . S
C885 C886 1.398 . S
C886 H874 0.950 . S
C886 C885 1.398 . S
C886 C887 1.391 . S
C887 H875 0.950 . S
C887 C883 1.393 . S
C887 C886 1.391 . S
H888 C896 0.950 . S
H889 C901 0.950 . S
H890 C898 0.950 . S
H891 C900 0.950 . S
H892 C902 0.950 . S
H893 C904 0.950 . S
H894 C906 0.950 1_545 S
H895 C907 0.950 . S
C896 H888 0.950 . S
C896 C897 1.386 . S
C896 C898 1.391 . S
C897 C896 1.386 . S
C897 C901 1.393 . S
C898 H890 0.950 . S
C898 C896 1.391 . S
C898 C899 1.400 . S
C899 C898 1.400 . S
C899 C900 1.398 . S
C899 C905 1.491 1_545 S
C900 H891 0.950 . S
C900 C899 1.398 . S
C900 C901 1.391 . S
C901 H889 0.950 . S
C901 C897 1.393 . S
C901 C900 1.391 . S
C902 H892 0.950 . S
C902 C903 1.386 . S
C902 C904 1.391 . S
C903 C902 1.386 . S
C903 C907 1.393 . S
C904 H893 0.950 . S
C904 C902 1.391 . S
C904 C905 1.400 . S
C905 C899 1.491 1_565 S
C905 C904 1.400 . S
C905 C906 1.398 . S
C906 H894 0.950 1_565 S
C906 C905 1.398 . S
C906 C907 1.391 . S
C907 H895 0.950 . S
C907 C903 1.393 . S
C907 C906 1.391 . S
H908 C916 0.950 . S
H909 C921 0.950 . S
H910 C918 0.950 . S
H911 C920 0.950 . S
H912 C922 0.950 . S
H913 C924 0.950 . S
H914 C926 0.950 . S
H915 C927 0.950 . S
C916 H908 0.950 . S
C916 C917 1.386 . S
C916 C918 1.391 1_455 S
C917 C916 1.386 . S
C917 C921 1.393 . S
C918 H910 0.950 . S
C918 C916 1.391 1_655 S
C918 C919 1.400 1_655 S
C919 C918 1.400 1_455 S
C919 C920 1.400 . S
C919 C925 1.489 1_455 S
C920 H911 0.950 . S
C920 C919 1.400 . S
C920 C921 1.391 . S
C921 H909 0.950 . S
C921 C917 1.393 . S
C921 C920 1.391 . S
C922 H912 0.950 . S
C922 C923 1.386 . S
C922 C924 1.391 . S
C923 C922 1.386 . S
C923 C927 1.393 . S
C924 H913 0.950 . S
C924 C922 1.391 . S
C924 C925 1.400 . S
C925 C919 1.489 1_655 S
C925 C924 1.400 . S
C925 C926 1.398 . S
C926 H914 0.950 . S
C926 C925 1.398 . S
C926 C927 1.391 . S
C927 H915 0.950 . S
C927 C923 1.393 . S
C927 C926 1.391 . S
H928 C936 0.950 . S
H929 C941 0.950 . S
H930 C938 0.950 . S
H931 C940 0.950 . S
H932 C942 0.950 . S
H933 C944 0.950 . S
H934 C946 0.950 . S
H935 C947 0.950 . S
C936 H928 0.950 . S
C936 C937 1.386 . S
C936 C938 1.391 . S
C937 C936 1.386 . S
C937 C941 1.393 . S
C938 H930 0.950 . S
C938 C936 1.391 . S
C938 C939 1.400 . S
C939 C938 1.400 . S
C939 C940 1.398 . S
C939 C945 1.491 . S
C940 H931 0.950 . S
C940 C939 1.398 . S
C940 C941 1.391 . S
C941 H929 0.950 . S
C941 C937 1.393 . S
C941 C940 1.391 . S
C942 H932 0.950 . S
C942 C943 1.386 . S
C942 C944 1.391 . S
C943 C942 1.386 . S
C943 C947 1.393 . S
C944 H933 0.950 . S
C944 C942 1.391 . S
C944 C945 1.400 . S
C945 C939 1.491 . S
C945 C944 1.400 . S
C945 C946 1.398 . S
C946 H934 0.950 . S
C946 C945 1.398 . S
C946 C947 1.391 . S
C947 H935 0.950 . S
C947 C943 1.393 . S
C947 C946 1.391 . S
H948 C956 0.950 . S
H949 C961 0.950 . S
H950 C958 0.950 . S
H951 C960 0.950 . S
H952 C962 0.950 . S
H953 C964 0.950 . S
H954 C966 0.950 . S
H955 C967 0.950 . S
C956 H948 0.950 . S
C956 C957 1.386 . S
C956 C958 1.391 . S
C957 C956 1.386 . S
C957 C961 1.393 . S
C958 H950 0.950 . S
C958 C956 1.391 . S
C958 C959 1.400 . S
C959 C958 1.400 . S
C959 C960 1.398 . S
C959 C965 1.491 . S
C960 H951 0.950 . S
C960 C959 1.398 . S
C960 C961 1.391 . S
C961 H949 0.950 . S
C961 C957 1.393 . S
C961 C960 1.391 . S
C962 H952 0.950 . S
C962 C963 1.386 . S
C962 C964 1.391 . S
C963 C962 1.386 . S
C963 C967 1.393 . S
C964 H953 0.950 . S
C964 C962 1.391 . S
C964 C965 1.400 . S
C965 C959 1.491 . S
C965 C964 1.400 . S
C965 C966 1.398 . S
C966 H954 0.950 . S
C966 C965 1.398 . S
C966 C967 1.391 . S
C967 H955 0.950 . S
C967 C963 1.393 . S
C967 C966 1.391 . S
H968 C976 0.950 . S
H969 C981 0.950 1_545 S
H970 C978 0.950 . S
H971 C980 0.950 . S
H972 C982 0.950 . S
H973 C984 0.950 . S
H974 C986 0.950 1_565 S
H975 C987 0.950 . S
C976 H968 0.950 . S
C976 C977 1.386 . S
C976 C978 1.391 . S
C977 C976 1.386 . S
C977 C981 1.393 . S
C978 H970 0.950 . S
C978 C976 1.391 . S
C978 C979 1.420 . S
C979 C978 1.420 . S
C979 C980 1.390 1_565 S
C979 C985 1.480 1_565 S
C980 H971 0.950 . S
C980 C979 1.390 1_545 S
C980 C981 1.391 1_545 S
C981 H969 0.950 1_565 S
C981 C977 1.393 . S
C981 C980 1.391 1_565 S
C982 H972 0.950 . S
C982 C983 1.386 . S
C982 C984 1.391 . S
C983 C982 1.386 . S
C983 C987 1.393 . S
C984 H973 0.950 . S
C984 C982 1.391 . S
C984 C985 1.400 . S
C985 C979 1.480 1_545 S
C985 C984 1.400 . S
C985 C986 1.398 . S
C986 H974 0.950 1_545 S
C986 C985 1.398 . S
C986 C987 1.391 . S
C987 H975 0.950 . S
C987 C983 1.393 . S
C987 C986 1.391 . S
H988 C996 0.950 . S
H989 C1001 0.950 . S
H990 C998 0.950 1_556 S
H991 C1000 0.950 1_455 S
H992 C1002 0.950 . S
H993 C1004 0.950 . S
H994 C1006 0.950 . S
H995 C1007 0.950 . S
C996 H988 0.950 . S
C996 C997 1.386 . S
C996 C998 1.391 . S
C997 C996 1.386 . S
C997 C1001 1.393 . S
C998 H990 0.950 1_554 S
C998 C996 1.391 . S
C998 C999 1.400 . S
C999 C998 1.400 . S
C999 C1000 1.398 . S
C999 C1005 1.473 1_654 S
C1000 H991 0.950 1_655 S
C1000 C999 1.398 . S
C1000 C1001 1.391 . S
C1001 H989 0.950 . S
C1001 C997 1.393 . S
C1001 C1000 1.391 . S
C1002 H992 0.950 . S
C1002 C1003 1.386 . S
C1002 C1004 1.391 . S
C1003 C1002 1.386 . S
C1003 C1007 1.393 . S
C1004 H993 0.950 . S
C1004 C1002 1.391 . S
C1004 C1005 1.427 . S
C1005 C999 1.473 1_456 S
C1005 C1004 1.427 . S
C1005 C1006 1.390 1_455 S
C1006 H994 0.950 . S
C1006 C1005 1.390 1_655 S
C1006 C1007 1.391 1_655 S
C1007 H995 0.950 . S
C1007 C1003 1.393 . S
C1007 C1006 1.391 1_455 S
H1008 C1016 0.950 . S
H1009 C1021 0.950 . S
H1010 C1018 0.950 . S
H1011 C1020 0.950 . S
H1012 C1022 0.950 . S
H1013 C1024 0.950 . S
H1014 C1026 0.950 . S
H1015 C1027 0.950 . S
C1016 H1008 0.950 . S
C1016 C1017 1.386 . S
C1016 C1018 1.391 . S
C1017 C1016 1.386 . S
C1017 C1021 1.393 . S
C1018 H1010 0.950 . S
C1018 C1016 1.391 . S
C1018 C1019 1.400 . S
C1019 C1018 1.400 . S
C1019 C1020 1.398 . S
C1019 C1025 1.491 . S
C1020 H1011 0.950 . S
C1020 C1019 1.398 . S
C1020 C1021 1.391 . S
C1021 H1009 0.950 . S
C1021 C1017 1.393 . S
C1021 C1020 1.391 . S
C1022 H1012 0.950 . S
C1022 C1023 1.386 . S
C1022 C1024 1.391 . S
C1023 C1022 1.386 . S
C1023 C1027 1.393 . S
C1024 H1013 0.950 . S
C1024 C1022 1.391 . S
C1024 C1025 1.400 . S
C1025 C1019 1.491 . S
C1025 C1024 1.400 . S
C1025 C1026 1.398 . S
C1026 H1014 0.950 . S
C1026 C1025 1.398 . S
C1026 C1027 1.391 . S
C1027 H1015 0.950 . S
C1027 C1023 1.393 . S
C1027 C1026 1.391 . S
H1028 C1036 0.950 . S
H1029 C1041 0.950 . S
H1030 C1038 0.950 . S
H1031 C1040 0.950 . S
H1032 C1042 0.950 . S
H1033 C1044 0.950 . S
H1034 C1046 0.950 . S
H1035 C1047 0.950 . S
C1036 H1028 0.950 . S
C1036 C1037 1.386 . S
C1036 C1038 1.391 . S
C1037 C1036 1.386 . S
C1037 C1041 1.393 . S
C1038 H1030 0.950 . S
C1038 C1036 1.391 . S
C1038 C1039 1.400 . S
C1039 C1038 1.400 . S
C1039 C1040 1.398 . S
C1039 C1045 1.491 . S
C1040 H1031 0.950 . S
C1040 C1039 1.398 . S
C1040 C1041 1.391 . S
C1041 H1029 0.950 . S
C1041 C1037 1.393 . S
C1041 C1040 1.391 . S
C1042 H1032 0.950 . S
C1042 C1043 1.386 . S
C1042 C1044 1.391 . S
C1043 C1042 1.386 . S
C1043 C1047 1.393 . S
C1044 H1033 0.950 . S
C1044 C1042 1.391 . S
C1044 C1045 1.400 . S
C1045 C1039 1.491 . S
C1045 C1044 1.400 . S
C1045 C1046 1.398 . S
C1046 H1034 0.950 . S
C1046 C1045 1.398 . S
C1046 C1047 1.391 . S
C1047 H1035 0.950 . S
C1047 C1043 1.393 . S
C1047 C1046 1.391 . S
H1048 C1056 0.950 . S
H1049 C1061 0.950 . S
H1050 C1058 0.950 . S
H1051 C1060 0.950 . S
H1052 C1062 0.950 . S
H1053 C1064 0.950 . S
H1054 C1066 0.950 . S
H1055 C1067 0.950 . S
C1056 H1048 0.950 . S
C1056 C1057 1.386 . S
C1056 C1058 1.391 . S
C1057 C1056 1.386 . S
C1057 C1061 1.393 . S
C1058 H1050 0.950 . S
C1058 C1056 1.391 . S
C1058 C1059 1.400 . S
C1059 C1058 1.400 . S
C1059 C1060 1.398 . S
C1059 C1065 1.491 . S
C1060 H1051 0.950 . S
C1060 C1059 1.398 . S
C1060 C1061 1.391 . S
C1061 H1049 0.950 . S
C1061 C1057 1.393 . S
C1061 C1060 1.391 . S
C1062 H1052 0.950 . S
C1062 C1063 1.386 . S
C1062 C1064 1.391 . S
C1063 C1062 1.386 . S
C1063 C1067 1.393 . S
C1064 H1053 0.950 . S
C1064 C1062 1.391 . S
C1064 C1065 1.400 . S
C1065 C1059 1.491 . S
C1065 C1064 1.400 . S
C1065 C1066 1.398 . S
C1066 H1054 0.950 . S
C1066 C1065 1.398 . S
C1066 C1067 1.391 . S
C1067 H1055 0.950 . S
C1067 C1063 1.393 . S
C1067 C1066 1.391 . S
H1068 C1076 0.950 . S
H1069 C1081 0.950 . S
H1070 C1078 0.950 . S
H1071 C1080 0.950 . S
H1072 C1082 0.950 1_554 S
H1073 C1084 0.950 . S
H1074 C1086 0.950 . S
H1075 C1087 0.950 . S
C1076 H1068 0.950 . S
C1076 C1077 1.386 . S
C1076 C1078 1.391 . S
C1077 C1076 1.386 . S
C1077 C1081 1.393 . S
C1078 H1070 0.950 . S
C1078 C1076 1.391 . S
C1078 C1079 1.400 . S
C1079 C1078 1.400 . S
C1079 C1080 1.398 . S
C1079 C1085 1.491 . S
C1080 H1071 0.950 . S
C1080 C1079 1.398 . S
C1080 C1081 1.391 . S
C1081 H1069 0.950 . S
C1081 C1077 1.393 . S
C1081 C1080 1.391 . S
C1082 H1072 0.950 1_556 S
C1082 C1083 1.386 . S
C1082 C1084 1.391 . S
C1083 C1082 1.386 . S
C1083 C1087 1.393 . S
C1084 H1073 0.950 . S
C1084 C1082 1.391 . S
C1084 C1085 1.400 . S
C1085 C1079 1.491 . S
C1085 C1084 1.400 . S
C1085 C1086 1.398 . S
C1086 H1074 0.950 . S
C1086 C1085 1.398 . S
C1086 C1087 1.391 . S
C1087 H1075 0.950 . S
C1087 C1083 1.393 . S
C1087 C1086 1.391 . S
H1088 C1096 0.950 . S
H1089 C1101 0.950 . S
H1090 C1098 0.950 . S
H1091 C1100 0.950 . S
H1092 C1102 0.950 . S
H1093 C1104 0.950 . S
H1094 C1106 0.950 . S
H1095 C1107 0.950 . S
C1096 H1088 0.950 . S
C1096 C1097 1.386 . S
C1096 C1098 1.391 . S
C1097 C1096 1.386 . S
C1097 C1101 1.393 . S
C1098 H1090 0.950 . S
C1098 C1096 1.391 . S
C1098 C1099 1.400 . S
C1099 C1098 1.400 . S
C1099 C1100 1.398 . S
C1099 C1105 1.491 . S
C1100 H1091 0.950 . S
C1100 C1099 1.398 . S
C1100 C1101 1.391 . S
C1101 H1089 0.950 . S
C1101 C1097 1.393 . S
C1101 C1100 1.391 . S
C1102 H1092 0.950 . S
C1102 C1103 1.386 . S
C1102 C1104 1.391 . S
C1103 C1102 1.386 . S
C1103 C1107 1.393 . S
C1104 H1093 0.950 . S
C1104 C1102 1.391 . S
C1104 C1105 1.400 . S
C1105 C1099 1.491 . S
C1105 C1104 1.400 . S
C1105 C1106 1.398 . S
C1106 H1094 0.950 . S
C1106 C1105 1.398 . S
C1106 C1107 1.391 . S
C1107 H1095 0.950 . S
C1107 C1103 1.393 . S
C1107 C1106 1.391 . S
H1108 C1116 0.950 . S
H1109 C1121 0.950 . S
H1110 C1118 0.950 . S
H1111 C1120 0.950 . S
H1112 C1122 0.950 . S
H1113 C1124 0.950 . S
H1114 C1126 0.950 . S
H1115 C1127 0.950 . S
C1116 H1108 0.950 . S
C1116 C1117 1.386 . S
C1116 C1118 1.391 . S
C1117 C1116 1.386 . S
C1117 C1121 1.393 . S
C1118 H1110 0.950 . S
C1118 C1116 1.391 . S
C1118 C1119 1.400 . S
C1119 C1118 1.400 . S
C1119 C1120 1.398 . S
C1119 C1125 1.491 . S
C1120 H1111 0.950 . S
C1120 C1119 1.398 . S
C1120 C1121 1.391 . S
C1121 H1109 0.950 . S
C1121 C1117 1.393 . S
C1121 C1120 1.391 . S
C1122 H1112 0.950 . S
C1122 C1123 1.386 . S
C1122 C1124 1.391 . S
C1123 C1122 1.386 . S
C1123 C1127 1.393 . S
C1124 H1113 0.950 . S
C1124 C1122 1.391 . S
C1124 C1125 1.400 . S
C1125 C1119 1.491 . S
C1125 C1124 1.400 . S
C1125 C1126 1.398 . S
C1126 H1114 0.950 . S
C1126 C1125 1.398 . S
C1126 C1127 1.391 . S
C1127 H1115 0.950 . S
C1127 C1123 1.393 . S
C1127 C1126 1.391 . S
H1128 C1136 0.950 . S
H1129 C1141 0.950 . S
H1130 C1138 0.950 . S
H1131 C1140 0.950 . S
H1132 C1142 0.950 . S
H1133 C1144 0.950 . S
H1134 C1146 0.950 . S
H1135 C1147 0.950 . S
C1136 H1128 0.950 . S
C1136 C1137 1.386 . S
C1136 C1138 1.391 . S
C1137 C1136 1.386 . S
C1137 C1141 1.393 . S
C1138 H1130 0.950 . S
C1138 C1136 1.391 . S
C1138 C1139 1.400 . S
C1139 C1138 1.400 . S
C1139 C1140 1.398 . S
C1139 C1145 1.491 . S
C1140 H1131 0.950 . S
C1140 C1139 1.398 . S
C1140 C1141 1.391 . S
C1141 H1129 0.950 . S
C1141 C1137 1.393 . S
C1141 C1140 1.391 . S
C1142 H1132 0.950 . S
C1142 C1143 1.386 . S
C1142 C1144 1.391 . S
C1143 C1142 1.386 . S
C1143 C1147 1.393 . S
C1144 H1133 0.950 . S
C1144 C1142 1.391 . S
C1144 C1145 1.400 . S
C1145 C1139 1.491 . S
C1145 C1144 1.400 . S
C1145 C1146 1.398 . S
C1146 H1134 0.950 . S
C1146 C1145 1.398 . S
C1146 C1147 1.391 . S
C1147 H1135 0.950 . S
C1147 C1143 1.393 . S
C1147 C1146 1.391 . S
H1148 C1156 0.950 . S
H1149 C1161 0.950 . S
H1150 C1158 0.950 . S
H1151 C1160 0.950 . S
H1152 C1162 0.950 . S
H1153 C1164 0.950 . S
H1154 C1166 0.950 . S
H1155 C1167 0.950 . S
C1156 H1148 0.950 . S
C1156 C1157 1.386 . S
C1156 C1158 1.391 . S
C1157 C1156 1.386 . S
C1157 C1161 1.393 . S
C1158 H1150 0.950 . S
C1158 C1156 1.391 . S
C1158 C1159 1.400 . S
C1159 C1158 1.400 . S
C1159 C1160 1.398 . S
C1159 C1165 1.491 . S
C1160 H1151 0.950 . S
C1160 C1159 1.398 . S
C1160 C1161 1.391 . S
C1161 H1149 0.950 . S
C1161 C1157 1.393 . S
C1161 C1160 1.391 . S
C1162 H1152 0.950 . S
C1162 C1163 1.386 . S
C1162 C1164 1.391 . S
C1163 C1162 1.386 . S
C1163 C1167 1.393 . S
C1164 H1153 0.950 . S
C1164 C1162 1.391 . S
C1164 C1165 1.400 . S
C1165 C1159 1.491 . S
C1165 C1164 1.400 . S
C1165 C1166 1.398 . S
C1166 H1154 0.950 . S
C1166 C1165 1.398 . S
C1166 C1167 1.391 . S
C1167 H1155 0.950 . S
C1167 C1163 1.393 . S
C1167 C1166 1.391 . S
H1168 C1176 0.950 . S
H1169 C1181 0.950 . S
H1170 C1178 0.950 . S
H1171 C1180 0.950 . S
H1172 C1182 0.950 . S
H1173 C1184 0.950 . S
H1174 C1186 0.950 . S
H1175 C1187 0.950 . S
C1176 H1168 0.950 . S
C1176 C1177 1.386 . S
C1176 C1178 1.391 . S
C1177 C1176 1.386 . S
C1177 C1181 1.393 . S
C1178 H1170 0.950 . S
C1178 C1176 1.391 . S
C1178 C1179 1.400 . S
C1179 C1178 1.400 . S
C1179 C1180 1.398 . S
C1179 C1185 1.491 . S
C1180 H1171 0.950 . S
C1180 C1179 1.398 . S
C1180 C1181 1.391 . S
C1181 H1169 0.950 . S
C1181 C1177 1.393 . S
C1181 C1180 1.391 . S
C1182 H1172 0.950 . S
C1182 C1183 1.386 . S
C1182 C1184 1.391 . S
C1183 C1182 1.386 . S
C1183 C1187 1.393 . S
C1184 H1173 0.950 . S
C1184 C1182 1.391 . S
C1184 C1185 1.400 . S
C1185 C1179 1.491 . S
C1185 C1184 1.400 . S
C1185 C1186 1.398 . S
C1186 H1174 0.950 . S
C1186 C1185 1.398 . S
C1186 C1187 1.391 . S
C1187 H1175 0.950 . S
C1187 C1183 1.393 . S
C1187 C1186 1.391 . S
H1188 C1196 0.950 . S
H1189 C1201 0.950 . S
H1190 C1198 0.950 . S
H1191 C1200 0.950 . S
H1192 C1202 0.950 . S
H1193 C1204 0.950 . S
H1194 C1206 0.950 . S
H1195 C1207 0.950 . S
C1196 H1188 0.950 . S
C1196 C1197 1.386 . S
C1196 C1198 1.391 . S
C1197 C1196 1.386 . S
C1197 C1201 1.393 . S
C1198 H1190 0.950 . S
C1198 C1196 1.391 . S
C1198 C1199 1.400 . S
C1199 C1198 1.400 . S
C1199 C1200 1.398 . S
C1199 C1205 1.491 . S
C1200 H1191 0.950 . S
C1200 C1199 1.398 . S
C1200 C1201 1.391 . S
C1201 H1189 0.950 . S
C1201 C1197 1.393 . S
C1201 C1200 1.391 . S
C1202 H1192 0.950 . S
C1202 C1203 1.386 . S
C1202 C1204 1.391 . S
C1203 C1202 1.386 . S
C1203 C1207 1.393 . S
C1204 H1193 0.950 . S
C1204 C1202 1.391 . S
C1204 C1205 1.400 . S
C1205 C1199 1.491 . S
C1205 C1204 1.400 . S
C1205 C1206 1.398 . S
C1206 H1194 0.950 . S
C1206 C1205 1.398 . S
C1206 C1207 1.391 . S
C1207 H1195 0.950 . S
C1207 C1203 1.393 . S
C1207 C1206 1.391 . S
H1208 C1216 0.950 . S
H1209 C1221 0.950 . S
H1210 C1218 0.950 . S
H1211 C1220 0.950 . S
H1212 C1222 0.950 . S
H1213 C1224 0.950 . S
H1214 C1226 0.950 . S
H1215 C1227 0.950 . S
C1216 H1208 0.950 . S
C1216 C1217 1.386 . S
C1216 C1218 1.391 . S
C1217 C1216 1.386 . S
C1217 C1221 1.393 . S
C1218 H1210 0.950 . S
C1218 C1216 1.391 . S
C1218 C1219 1.400 . S
C1219 C1218 1.400 . S
C1219 C1220 1.398 . S
C1219 C1225 1.491 . S
C1220 H1211 0.950 . S
C1220 C1219 1.398 . S
C1220 C1221 1.391 . S
C1221 H1209 0.950 . S
C1221 C1217 1.393 . S
C1221 C1220 1.391 . S
C1222 H1212 0.950 . S
C1222 C1223 1.386 . S
C1222 C1224 1.391 . S
C1223 C1222 1.386 . S
C1223 C1227 1.393 . S
C1224 H1213 0.950 . S
C1224 C1222 1.391 . S
C1224 C1225 1.400 . S
C1225 C1219 1.491 . S
C1225 C1224 1.400 . S
C1225 C1226 1.398 . S
C1226 H1214 0.950 . S
C1226 C1225 1.398 . S
C1226 C1227 1.391 . S
C1227 H1215 0.950 . S
C1227 C1223 1.393 . S
C1227 C1226 1.391 . S
H1228 C1236 0.950 . S
H1229 C1241 0.950 . S
H1230 C1238 0.950 . S
H1231 C1240 0.950 . S
H1232 C1242 0.950 . S
H1233 C1244 0.950 . S
H1234 C1246 0.950 . S
H1235 C1247 0.950 . S
C1236 H1228 0.950 . S
C1236 C1237 1.386 . S
C1236 C1238 1.391 . S
C1237 C1236 1.386 . S
C1237 C1241 1.393 . S
C1238 H1230 0.950 . S
C1238 C1236 1.391 . S
C1238 C1239 1.400 . S
C1239 C1238 1.400 . S
C1239 C1240 1.398 . S
C1239 C1245 1.491 . S
C1240 H1231 0.950 . S
C1240 C1239 1.398 . S
C1240 C1241 1.391 . S
C1241 H1229 0.950 . S
C1241 C1237 1.393 . S
C1241 C1240 1.391 . S
C1242 H1232 0.950 . S
C1242 C1243 1.386 . S
C1242 C1244 1.391 . S
C1243 C1242 1.386 . S
C1243 C1247 1.393 . S
C1244 H1233 0.950 . S
C1244 C1242 1.391 . S
C1244 C1245 1.400 . S
C1245 C1239 1.491 . S
C1245 C1244 1.400 . S
C1245 C1246 1.398 . S
C1246 H1234 0.950 . S
C1246 C1245 1.398 . S
C1246 C1247 1.391 . S
C1247 H1235 0.950 . S
C1247 C1243 1.393 . S
C1247 C1246 1.391 . S
H1248 C1256 0.950 . S
H1249 C1261 0.950 . S
H1250 C1258 0.950 . S
H1251 C1260 0.950 . S
H1252 C1262 0.950 . S
H1253 C1264 0.950 . S
H1254 C1266 0.950 . S
H1255 C1267 0.950 . S
C1256 H1248 0.950 . S
C1256 C1257 1.386 . S
C1256 C1258 1.391 . S
C1257 C1256 1.386 . S
C1257 C1261 1.393 . S
C1258 H1250 0.950 . S
C1258 C1256 1.391 . S
C1258 C1259 1.400 . S
C1259 C1258 1.400 . S
C1259 C1260 1.398 . S
C1259 C1265 1.491 . S
C1260 H1251 0.950 . S
C1260 C1259 1.398 . S
C1260 C1261 1.391 . S
C1261 H1249 0.950 . S
C1261 C1257 1.393 . S
C1261 C1260 1.391 . S
C1262 H1252 0.950 . S
C1262 C1263 1.386 . S
C1262 C1264 1.391 . S
C1263 C1262 1.386 . S
C1263 C1267 1.393 . S
C1264 H1253 0.950 . S
C1264 C1262 1.391 . S
C1264 C1265 1.400 . S
C1265 C1259 1.491 . S
C1265 C1264 1.400 . S
C1265 C1266 1.398 . S
C1266 H1254 0.950 . S
C1266 C1265 1.398 . S
C1266 C1267 1.391 . S
C1267 H1255 0.950 . S
C1267 C1263 1.393 . S
C1267 C1266 1.391 . S
H1268 C1276 0.950 . S
H1269 C1281 0.950 . S
H1270 C1278 0.950 . S
H1271 C1280 0.950 . S
H1272 C1282 0.950 . S
H1273 C1284 0.950 . S
H1274 C1286 0.950 . S
H1275 C1287 0.950 . S
C1276 H1268 0.950 . S
C1276 C1277 1.386 . S
C1276 C1278 1.391 . S
C1277 C1276 1.386 . S
C1277 C1281 1.393 . S
C1278 H1270 0.950 . S
C1278 C1276 1.391 . S
C1278 C1279 1.400 . S
C1279 C1278 1.400 . S
C1279 C1280 1.398 . S
C1279 C1285 1.491 . S
C1280 H1271 0.950 . S
C1280 C1279 1.398 . S
C1280 C1281 1.391 . S
C1281 H1269 0.950 . S
C1281 C1277 1.393 . S
C1281 C1280 1.391 . S
C1282 H1272 0.950 . S
C1282 C1283 1.386 . S
C1282 C1284 1.391 . S
C1283 C1282 1.386 . S
C1283 C1287 1.393 . S
C1284 H1273 0.950 . S
C1284 C1282 1.391 . S
C1284 C1285 1.400 . S
C1285 C1279 1.491 . S
C1285 C1284 1.400 . S
C1285 C1286 1.398 . S
C1286 H1274 0.950 . S
C1286 C1285 1.398 . S
C1286 C1287 1.391 . S
C1287 H1275 0.950 . S
C1287 C1283 1.393 . S
C1287 C1286 1.391 . S
H1288 C1296 0.950 . S
H1289 C1301 0.950 . S
H1290 C1298 0.950 . S
H1291 C1300 0.950 . S
H1292 C1302 0.950 . S
H1293 C1304 0.950 . S
H1294 C1306 0.950 . S
H1295 C1307 0.950 . S
C1296 H1288 0.950 . S
C1296 C1297 1.386 . S
C1296 C1298 1.391 . S
C1297 C1296 1.386 . S
C1297 C1301 1.393 . S
C1298 H1290 0.950 . S
C1298 C1296 1.391 . S
C1298 C1299 1.400 . S
C1299 C1298 1.400 . S
C1299 C1300 1.398 . S
C1299 C1305 1.491 . S
C1300 H1291 0.950 . S
C1300 C1299 1.398 . S
C1300 C1301 1.391 . S
C1301 H1289 0.950 . S
C1301 C1297 1.393 . S
C1301 C1300 1.391 . S
C1302 H1292 0.950 . S
C1302 C1303 1.386 . S
C1302 C1304 1.391 . S
C1303 C1302 1.386 . S
C1303 C1307 1.393 . S
C1304 H1293 0.950 . S
C1304 C1302 1.391 . S
C1304 C1305 1.400 . S
C1305 C1299 1.491 . S
C1305 C1304 1.400 . S
C1305 C1306 1.398 . S
C1306 H1294 0.950 . S
C1306 C1305 1.398 . S
C1306 C1307 1.391 . S
C1307 H1295 0.950 . S
C1307 C1303 1.393 . S
C1307 C1306 1.391 . S
H1308 C1316 0.950 . S
H1309 C1321 0.950 . S
H1310 C1318 0.950 . S
H1311 C1320 0.950 . S
H1312 C1322 0.950 . S
H1313 C1324 0.950 . S
H1314 C1326 0.950 . S
H1315 C1327 0.950 . S
C1316 H1308 0.950 . S
C1316 C1317 1.386 . S
C1316 C1318 1.391 . S
C1317 C1316 1.386 . S
C1317 C1321 1.393 . S
C1318 H1310 0.950 . S
C1318 C1316 1.391 . S
C1318 C1319 1.400 . S
C1319 C1318 1.400 . S
C1319 C1320 1.398 . S
C1319 C1325 1.491 . S
C1320 H1311 0.950 . S
C1320 C1319 1.398 . S
C1320 C1321 1.391 . S
C1321 H1309 0.950 . S
C1321 C1317 1.393 . S
C1321 C1320 1.391 . S
C1322 H1312 0.950 . S
C1322 C1323 1.386 . S
C1322 C1324 1.391 . S
C1323 C1322 1.386 . S
C1323 C1327 1.393 . S
C1324 H1313 0.950 . S
C1324 C1322 1.391 . S
C1324 C1325 1.400 . S
C1325 C1319 1.491 . S
C1325 C1324 1.400 . S
C1325 C1326 1.398 . S
C1326 H1314 0.950 . S
C1326 C1325 1.398 . S
C1326 C1327 1.391 . S
C1327 H1315 0.950 . S
C1327 C1323 1.393 . S
C1327 C1326 1.391 . S
C537 N344 1.542 . S
C543 N14 1.556 . S
C557 N47 1.557 . S
C563 N377 1.541 . S
C577 N278 1.558 . S
C583 N80 1.541 . S
C597 N113 1.541 . S
C603 N311 1.563 . S
C617 N476 1.560 . S
C623 N146 1.546 . S
C637 N179 1.539 . S
C643 N509 1.561 . S
C657 N212 1.539 . S
C663 N410 1.561 . S
C677 N443 1.540 . S
C683 N245 1.562 . S
C697 C490 0.931 . S
C703 C8 0.917 . S
C717 C523 0.921 . S
C723 C41 0.926 . S
C737 C74 0.929 . S
C743 C424 0.906 . S
C757 C457 0.913 . S
C763 C107 0.930 . S
C777 C140 0.922 . S
C783 C358 0.915 . S
C797 C173 0.928 . S
C803 C391 0.917 . S
C817 C292 0.909 . S
C823 C206 0.925 . S
C837 C239 0.927 . S
C843 C325 0.908 . S
C857 C226 0.930 . S
C863 C272 0.920 . S
C877 C259 0.906 . S
C883 C305 0.930 . S
C897 C160 0.907 . S
C903 C338 0.927 . S
C917 C371 0.930 . S
C923 C193 0.906 . S
C937 C404 0.931 . S
C943 C94 0.908 . S
C957 C437 0.927 . S
C963 C127 0.907 . S
C977 C470 0.930 . S
C983 C28 0.913 . S
C997 C61 0.929 . S
C1003 C503 0.917 . S
C1017 N368 1.733 . S
C1023 C17 1.707 . S
C1037 C50 1.715 . S
C1043 N269 1.734 . S
C1057 C83 1.707 . S
C1063 N302 1.732 . S
C1077 C116 1.710 . S
C1083 N335 1.734 . S
C1097 N170 1.726 . S
C1103 C149 1.714 . S
C1117 C182 1.706 . S
C1123 N203 1.727 . S
C1137 N236 1.729 . S
C1143 C215 1.719 . S
C1157 C248 1.719 . S
C1163 N137 1.729 . S
C1177 N104 1.734 . S
C1183 C281 1.711 . S
C1197 C314 1.715 . S
C1203 N5 1.726 . S
C1217 C347 1.719 . S
C1223 N38 1.730 . S
C1237 N71 1.731 . S
C1243 C380 1.705 . S
C1257 N434 1.731 . S
C1263 C413 1.720 . S
C1277 N467 1.728 . S
C1283 C446 1.705 . S
C1297 C479 1.706 . S
C1303 N500 1.732 . S
C1317 N401 1.726 . S
C1323 C512 1.707 . S
