# Generated by pormake.
# Topology wgl, (5)-cn, num edge types: 1
# Building blocks:
#     Node 0, Type 0, BuildingBlock: XOMCOT_clean_sbu_0, # of connection points: 5
#     Node 1, Type 0, BuildingBlock: XOMCOT_clean_sbu_0, # of connection points: 5
#     Node 2, Type 0, BuildingBlock: XOMCOT_clean_sbu_0, # of connection points: 5
#     Node 3, Type 0, BuildingBlock: XOMCOT_clean_sbu_0, # of connection points: 5
#     Node 4, Type 0, BuildingBlock: XOMCOT_clean_sbu_0, # of connection points: 5
#     Node 5, Type 0, BuildingBlock: XOMCOT_clean_sbu_0, # of connection points: 5
#     Node 6, Type 0, BuildingBlock: XOMCOT_clean_sbu_0, # of connection points: 5
#     Node 7, Type 0, BuildingBlock: XOMCOT_clean_sbu_0, # of connection points: 5
#     Node 8, Type 0, BuildingBlock: XOMCOT_clean_sbu_0, # of connection points: 5
#     Node 9, Type 0, BuildingBlock: XOMCOT_clean_sbu_0, # of connection points: 5
#     Node 10, Type 0, BuildingBlock: XOMCOT_clean_sbu_0, # of connection points: 5
#     Node 11, Type 0, BuildingBlock: XOMCOT_clean_sbu_0, # of connection points: 5
#     Node 12, Type 0, BuildingBlock: XOMCOT_clean_sbu_0, # of connection points: 5
#     Node 13, Type 0, BuildingBlock: XOMCOT_clean_sbu_0, # of connection points: 5
#     Node 14, Type 0, BuildingBlock: XOMCOT_clean_sbu_0, # of connection points: 5
#     Node 15, Type 0, BuildingBlock: XOMCOT_clean_sbu_0, # of connection points: 5
#     Node 16, Type 0, BuildingBlock: XOMCOT_clean_sbu_0, # of connection points: 5
#     Node 17, Type 0, BuildingBlock: XOMCOT_clean_sbu_0, # of connection points: 5
#     Node 18, Type 0, BuildingBlock: XOMCOT_clean_sbu_0, # of connection points: 5
#     Node 19, Type 0, BuildingBlock: XOMCOT_clean_sbu_0, # of connection points: 5
#     Node 20, Type 0, BuildingBlock: XOMCOT_clean_sbu_0, # of connection points: 5
#     Node 21, Type 0, BuildingBlock: XOMCOT_clean_sbu_0, # of connection points: 5
#     Node 22, Type 0, BuildingBlock: XOMCOT_clean_sbu_0, # of connection points: 5
#     Node 23, Type 0, BuildingBlock: XOMCOT_clean_sbu_0, # of connection points: 5
#     Node 24, Type 0, BuildingBlock: XOMCOT_clean_sbu_0, # of connection points: 5
#     Node 25, Type 0, BuildingBlock: XOMCOT_clean_sbu_0, # of connection points: 5
#     Node 26, Type 0, BuildingBlock: XOMCOT_clean_sbu_0, # of connection points: 5
#     Node 27, Type 0, BuildingBlock: XOMCOT_clean_sbu_0, # of connection points: 5
#     Node 28, Type 0, BuildingBlock: XOMCOT_clean_sbu_0, # of connection points: 5
#     Node 29, Type 0, BuildingBlock: XOMCOT_clean_sbu_0, # of connection points: 5
#     Node 30, Type 0, BuildingBlock: XOMCOT_clean_sbu_0, # of connection points: 5
#     Node 31, Type 0, BuildingBlock: XOMCOT_clean_sbu_0, # of connection points: 5
#     Edge 32, Type (0, 0), None
#     Edge 33, Type (0, 0), None
#     Edge 34, Type (0, 0), None
#     Edge 35, Type (0, 0), None
#     Edge 36, Type (0, 0), None
#     Edge 37, Type (0, 0), None
#     Edge 38, Type (0, 0), None
#     Edge 39, Type (0, 0), None
#     Edge 40, Type (0, 0), None
#     Edge 41, Type (0, 0), None
#     Edge 42, Type (0, 0), None
#     Edge 43, Type (0, 0), None
#     Edge 44, Type (0, 0), None
#     Edge 45, Type (0, 0), None
#     Edge 46, Type (0, 0), None
#     Edge 47, Type (0, 0), None
#     Edge 48, Type (0, 0), None
#     Edge 49, Type (0, 0), None
#     Edge 50, Type (0, 0), None
#     Edge 51, Type (0, 0), None
#     Edge 52, Type (0, 0), None
#     Edge 53, Type (0, 0), None
#     Edge 54, Type (0, 0), None
#     Edge 55, Type (0, 0), None
#     Edge 56, Type (0, 0), None
#     Edge 57, Type (0, 0), None
#     Edge 58, Type (0, 0), None
#     Edge 59, Type (0, 0), None
#     Edge 60, Type (0, 0), None
#     Edge 61, Type (0, 0), None
#     Edge 62, Type (0, 0), None
#     Edge 63, Type (0, 0), None
#     Edge 64, Type (0, 0), None
#     Edge 65, Type (0, 0), None
#     Edge 66, Type (0, 0), None
#     Edge 67, Type (0, 0), None
#     Edge 68, Type (0, 0), None
#     Edge 69, Type (0, 0), None
#     Edge 70, Type (0, 0), None
#     Edge 71, Type (0, 0), None
#     Edge 72, Type (0, 0), None
#     Edge 73, Type (0, 0), None
#     Edge 74, Type (0, 0), None
#     Edge 75, Type (0, 0), None
#     Edge 76, Type (0, 0), None
#     Edge 77, Type (0, 0), None
#     Edge 78, Type (0, 0), None
#     Edge 79, Type (0, 0), None
#     Edge 80, Type (0, 0), None
#     Edge 81, Type (0, 0), None
#     Edge 82, Type (0, 0), None
#     Edge 83, Type (0, 0), None
#     Edge 84, Type (0, 0), None
#     Edge 85, Type (0, 0), None
#     Edge 86, Type (0, 0), None
#     Edge 87, Type (0, 0), None
#     Edge 88, Type (0, 0), None
#     Edge 89, Type (0, 0), None
#     Edge 90, Type (0, 0), None
#     Edge 91, Type (0, 0), None
#     Edge 92, Type (0, 0), None
#     Edge 93, Type (0, 0), None
#     Edge 94, Type (0, 0), None
#     Edge 95, Type (0, 0), None
#     Edge 96, Type (0, 0), None
#     Edge 97, Type (0, 0), None
#     Edge 98, Type (0, 0), None
#     Edge 99, Type (0, 0), None
#     Edge 100, Type (0, 0), None
#     Edge 101, Type (0, 0), None
#     Edge 102, Type (0, 0), None
#     Edge 103, Type (0, 0), None
#     Edge 104, Type (0, 0), None
#     Edge 105, Type (0, 0), None
#     Edge 106, Type (0, 0), None
#     Edge 107, Type (0, 0), None
#     Edge 108, Type (0, 0), None
#     Edge 109, Type (0, 0), None
#     Edge 110, Type (0, 0), None
#     Edge 111, Type (0, 0), None
# Relax obj value: 0.043
# Max RMSD: 0.082
# Mean RMSD: 0.082
data_MOF--net-wgl--node1-XOMCOT_clean_sbu_0--edge1-none
_symmetry_space_group_name_H-M    P1
_symmetry_Int_Tables_number       1
_symmetry_cell_setting            triclinic
loop_
_symmetry_equiv_pos_as_xyz
'x, y, z'
_cell_length_a     30.672369
_cell_length_b     30.669656
_cell_length_c     22.916081
_cell_angle_alpha  90.000231
_cell_angle_beta   90.001392
_cell_angle_gamma 90.000088
loop_
_atom_site_label
_atom_site_type_symbol
_atom_site_fract_x
_atom_site_fract_y
_atom_site_fract_z
_atom_type_partial_charge
Co0 Co 0.2919 0.32683 0.18534 0.0
C1 C 0.3545 0.25052 0.17801 0.0
C2 C 0.2983 0.24865 0.12183 0.0
C3 C 0.31925 0.21 0.11709 0.0
N4 N 0.32013 0.27447 0.15926 0.0
N5 N 0.35476 0.21094 0.15161 0.0
H6 H 0.37794 0.26127 0.21024 0.0
H7 H 0.26728 0.25633 0.10195 0.0
C8 C 0.27568 0.37086 0.06999 0.0
O9 O 0.28907 0.40751 0.09362 0.0
N10 N 0.2567 0.37906 0.20594 0.0
C11 C 0.26741 0.416 0.23489 0.0
C12 C 0.23809 0.44871 0.22069 0.0
C13 C 0.21941 0.39018 0.17658 0.0
N14 N 0.20794 0.43254 0.18384 0.0
C15 C 0.36341 0.37486 0.22551 0.0
C16 C 0.40963 0.38447 0.12303 0.0
C17 C 0.42589 0.40249 0.17498 0.0
C18 C 0.40333 0.39506 0.22667 0.0
C19 C 0.36963 0.36169 0.12441 0.0
N20 N 0.34552 0.36001 0.17481 0.0
H21 H 0.34711 0.37148 0.26673 0.0
H22 H 0.35818 0.3459 0.08517 0.0
H23 H 0.29607 0.42093 0.26108 0.0
H24 H 0.20374 0.36905 0.14513 0.0
O25 O 0.30462 0.31102 0.26597 0.0
O26 O 0.24702 0.28783 0.21874 0.0
O27 O 0.2732 0.33599 0.10065 0.0
C28 C 0.27188 0.28531 0.26528 0.0
H29 H 0.30858 0.18257 0.09094 0.0
H30 H 0.2409 0.48274 0.23262 0.0
H31 H 0.42685 0.3888 0.08222 0.0
H32 H 0.41565 0.40684 0.26808 0.0
Co33 Co 0.96137 0.04196 0.43533 0.0
C34 C 0.0377 0.10455 0.42797 0.0
C35 C 0.03952 0.04836 0.37177 0.0
C36 C 0.07816 0.06929 0.36701 0.0
N37 N 1.01372 0.07019 0.40922 0.0
N38 N 0.07725 0.1048 0.40154 0.0
H39 H 0.02697 0.12798 0.46023 0.0
H40 H 0.03182 1.01734 0.35188 0.0
C41 C 0.91732 0.02573 0.31998 0.0
O42 O 0.88068 0.03912 0.34361 0.0
N43 N 0.90914 1.00676 0.45594 0.0
C44 C 0.87221 1.01749 0.48489 0.0
C45 C 0.8395 0.98816 0.47069 0.0
C46 C 0.89802 0.96947 0.4266 0.0
N47 N 0.85566 0.958 0.43386 0.0
C48 C 0.91336 0.11348 0.47552 0.0
C49 C 0.90371 0.15971 0.37305 0.0
C50 C 0.88572 0.17598 0.42501 0.0
C51 C 0.89318 0.15341 0.47669 0.0
C52 C 0.92649 0.1197 0.3744 0.0
N53 N 0.92819 0.09559 0.42481 0.0
H54 H 0.91675 0.09718 0.51673 0.0
H55 H 0.94226 0.10825 0.33515 0.0
H56 H 0.86728 0.04616 0.51107 0.0
H57 H 0.91915 0.95379 0.39516 0.0
O58 O 0.97719 0.05468 0.51595 0.0
O59 O 1.00036 0.99708 0.46873 0.0
O60 O 0.95218 0.02326 0.35064 0.0
C61 C 1.0029 0.02194 0.51526 0.0
H62 H 0.10558 0.05861 0.34084 0.0
H63 H 0.80546 0.99098 0.48262 0.0
H64 H 0.89937 0.17693 0.33223 0.0
H65 H 0.88142 0.16573 0.51811 0.0
Co66 Co 0.24627 0.71143 0.68534 0.0
C67 C 0.18366 0.78774 0.67801 0.0
C68 C 0.23986 0.78961 0.62183 0.0
C69 C 0.21892 0.82825 0.61709 0.0
N70 N 0.21803 0.76378 0.65925 0.0
N71 N 0.18341 0.82731 0.65161 0.0
H72 H 0.16023 0.77699 0.71024 0.0
H73 H 0.27088 0.78193 0.60195 0.0
C74 C 0.26248 0.6674 0.56999 0.0
O75 O 0.2491 0.63075 0.59362 0.0
N76 N 0.28147 0.65919 0.70593 0.0
C77 C 0.27076 0.62226 0.73489 0.0
C78 C 0.30009 0.58955 0.72069 0.0
C79 C 0.31876 0.64808 0.67658 0.0
N80 N 0.33023 0.60572 0.68384 0.0
C81 C 0.17477 0.66339 0.72551 0.0
C82 C 0.12854 0.65378 0.62303 0.0
C83 C 0.11228 0.63576 0.67499 0.0
C84 C 0.13484 0.6432 0.72667 0.0
C85 C 0.16854 0.67656 0.62441 0.0
N86 N 0.19265 0.67824 0.67481 0.0
H87 H 0.19107 0.66677 0.76673 0.0
H88 H 0.17998 0.69235 0.58517 0.0
H89 H 0.2421 0.61733 0.76109 0.0
H90 H 0.33443 0.66921 0.64513 0.0
O91 O 0.23355 0.72723 0.76597 0.0
O92 O 0.29115 0.75042 0.71875 0.0
O93 O 0.26496 0.70226 0.60065 0.0
C94 C 0.26629 0.75295 0.76528 0.0
H95 H 0.22958 0.85568 0.59094 0.0
H96 H 0.29727 0.55551 0.73262 0.0
H97 H 0.11131 0.64945 0.58222 0.0
H98 H 0.12252 0.63142 0.76808 0.0
Co99 Co 0.5768 0.9963 0.93533 0.0
C100 C 0.50047 0.93371 0.92797 0.0
C101 C 0.49865 0.9899 0.87176 0.0
C102 C 0.46 0.96897 0.867 0.0
N103 N 0.52445 0.96806 0.90921 0.0
N104 N 0.46091 0.93346 0.90154 0.0
H105 H 0.51119 0.91028 0.96023 0.0
H106 H 0.50634 0.02092 0.85187 0.0
C107 C 0.62085 1.01253 0.81999 0.0
O108 O 0.65749 0.99914 0.84362 0.0
N109 N 0.62903 0.0315 0.95595 0.0
C110 C 0.66596 0.02077 0.98489 0.0
C111 C 0.69867 0.0501 0.97069 0.0
C112 C 0.64014 0.06879 0.92661 0.0
N113 N 0.6825 0.08026 0.93386 0.0
C114 C 0.6248 0.92478 0.97552 0.0
C115 C 0.63446 0.87856 0.87305 0.0
C116 C 0.65245 0.86228 0.92501 0.0
C117 C 0.64499 0.88485 0.97669 0.0
C118 C 0.61168 0.91856 0.87441 0.0
N119 N 0.60998 0.94267 0.92481 0.0
H120 H 0.62142 0.94108 1.01673 0.0
H121 H 0.59591 0.93001 0.83516 0.0
H122 H 0.67089 0.9921 1.01107 0.0
H123 H 0.61902 0.08447 0.89516 0.0
O124 O 0.56098 0.98358 1.01595 0.0
O125 O 0.5378 0.04118 0.96873 0.0
O126 O 0.58598 1.015 0.85065 0.0
C127 C 0.53527 1.01632 1.01526 0.0
H128 H 0.43259 0.97965 0.84083 0.0
H129 H 0.7327 0.04727 0.98262 0.0
H130 H 0.6388 0.86133 0.83223 0.0
H131 H 0.65675 0.87253 1.01812 0.0
Co132 Co 0.29189 0.71143 0.3929 0.0
C133 C 0.3545 0.78774 0.40023 0.0
C134 C 0.2983 0.78961 0.45641 0.0
C135 C 0.31925 0.82825 0.46115 0.0
N136 N 0.32014 0.76378 0.41899 0.0
N137 N 0.35476 0.82731 0.42663 0.0
H138 H 0.37794 0.77699 0.368 0.0
H139 H 0.26728 0.78193 0.4763 0.0
C140 C 0.27568 0.6674 0.50825 0.0
O141 O 0.28907 0.63075 0.48462 0.0
N142 N 0.25669 0.6592 0.3723 0.0
C143 C 0.26741 0.62226 0.34335 0.0
C144 C 0.23808 0.58955 0.35755 0.0
C145 C 0.21941 0.64808 0.40166 0.0
N146 N 0.20794 0.60572 0.3944 0.0
C147 C 0.3634 0.6634 0.35273 0.0
C148 C 0.40963 0.65378 0.45521 0.0
C149 C 0.42589 0.63576 0.40326 0.0
C150 C 0.40333 0.6432 0.35157 0.0
C151 C 0.36963 0.67656 0.45383 0.0
N152 N 0.34552 0.67824 0.40343 0.0
H153 H 0.3471 0.66677 0.31151 0.0
H154 H 0.35818 0.69235 0.49307 0.0
H155 H 0.29607 0.61733 0.31716 0.0
H156 H 0.20374 0.66921 0.4331 0.0
O157 O 0.30461 0.72723 0.31227 0.0
O158 O 0.24702 0.75042 0.35949 0.0
O159 O 0.2732 0.70226 0.47759 0.0
C160 C 0.27188 0.75295 0.31296 0.0
H161 H 0.30858 0.85568 0.4873 0.0
H162 H 0.2409 0.55551 0.34562 0.0
H163 H 0.42686 0.64945 0.49603 0.0
H164 H 0.41564 0.63142 0.31016 0.0
Co165 Co 0.5768 0.04196 0.64291 0.0
C166 C 0.50047 0.10455 0.65027 0.0
C167 C 0.49865 0.04836 0.70647 0.0
C168 C 0.46 0.06929 0.71123 0.0
N169 N 0.52445 0.0702 0.66902 0.0
N170 N 0.46091 0.1048 0.67669 0.0
H171 H 0.5112 0.12798 0.61801 0.0
H172 H 0.50634 1.01734 0.72636 0.0
C173 C 0.62085 0.02573 0.75826 0.0
O174 O 0.65749 0.03912 0.73462 0.0
N175 N 0.62903 1.00676 0.6223 0.0
C176 C 0.66596 1.01748 0.59335 0.0
C177 C 0.69867 0.98816 0.60754 0.0
C178 C 0.64015 0.96947 0.65164 0.0
N179 N 0.6825 0.958 0.64438 0.0
C180 C 0.62481 0.11348 0.60272 0.0
C181 C 0.63446 0.15971 0.70519 0.0
C182 C 0.65245 0.17598 0.65323 0.0
C183 C 0.64499 0.15341 0.60155 0.0
C184 C 0.61168 0.1197 0.70383 0.0
N185 N 0.60998 0.09559 0.65343 0.0
H186 H 0.62142 0.09718 0.56151 0.0
H187 H 0.59591 0.10825 0.74308 0.0
H188 H 0.67089 0.04615 0.56717 0.0
H189 H 0.61902 0.95379 0.68308 0.0
O190 O 0.56098 0.05468 0.56229 0.0
O191 O 0.53781 0.99708 0.60951 0.0
O192 O 0.58598 0.02326 0.7276 0.0
C193 C 0.53527 0.02194 0.56298 0.0
H194 H 0.43259 0.05861 0.7374 0.0
H195 H 0.7327 0.99098 0.59562 0.0
H196 H 0.6388 0.17694 0.74601 0.0
H197 H 0.65675 0.16573 0.56012 0.0
Co198 Co 0.24627 0.32683 0.8929 0.0
C199 C 0.18367 0.25051 0.90023 0.0
C200 C 0.23987 0.24865 0.95641 0.0
C201 C 0.21892 0.21 0.96115 0.0
N202 N 0.21803 0.27447 0.91898 0.0
N203 N 0.18341 0.21094 0.92663 0.0
H204 H 0.16023 0.26126 0.868 0.0
H205 H 0.27089 0.25633 0.97629 0.0
C206 C 0.26248 0.37086 1.00825 0.0
O207 O 0.2491 0.40751 0.98462 0.0
N208 N 0.28147 0.37906 0.8723 0.0
C209 C 0.27076 0.416 0.84335 0.0
C210 C 0.30008 0.44871 0.85755 0.0
C211 C 0.31875 0.39018 0.90166 0.0
N212 N 0.33023 0.43254 0.8944 0.0
C213 C 0.17476 0.37486 0.85272 0.0
C214 C 0.12854 0.38447 0.95521 0.0
C215 C 0.11227 0.40249 0.90325 0.0
C216 C 0.13484 0.39505 0.85157 0.0
C217 C 0.16854 0.36169 0.95383 0.0
N218 N 0.19265 0.36001 0.90343 0.0
H219 H 0.19106 0.37148 0.81151 0.0
H220 H 0.17999 0.3459 0.99307 0.0
H221 H 0.2421 0.42092 0.81716 0.0
H222 H 0.33443 0.36905 0.93311 0.0
O223 O 0.23355 0.31102 0.81227 0.0
O224 O 0.29115 0.28783 0.8595 0.0
O225 O 0.26496 0.33599 0.97759 0.0
C226 C 0.26629 0.28531 0.81296 0.0
H227 H 0.22959 0.18257 0.9873 0.0
H228 H 0.29726 0.48274 0.84562 0.0
H229 H 0.11131 0.3888 0.99602 0.0
H230 H 0.12252 0.40683 0.81016 0.0
Co231 Co 0.96137 0.9963 0.14291 0.0
C232 C 0.0377 0.93371 0.15027 0.0
C233 C 0.03952 0.9899 0.20647 0.0
C234 C 0.07817 0.96897 0.21123 0.0
N235 N 1.01372 0.96806 0.16902 0.0
N236 N 0.07726 0.93346 0.17669 0.0
H237 H 0.02697 0.91028 0.118 0.0
H238 H 0.03182 0.02092 0.22636 0.0
C239 C 0.91732 1.01252 0.25825 0.0
O240 O 0.88068 0.99914 0.23462 0.0
N241 N 0.90914 0.0315 0.12229 0.0
C242 C 0.87221 0.02077 0.09334 0.0
C243 C 0.8395 0.0501 0.10754 0.0
C244 C 0.89802 0.06879 0.15163 0.0
N245 N 0.85567 0.08026 0.14437 0.0
C246 C 0.91336 0.92478 0.10271 0.0
C247 C 0.90371 0.87855 0.20519 0.0
C248 C 0.88572 0.86228 0.15322 0.0
C249 C 0.89317 0.88485 0.10154 0.0
C250 C 0.92649 0.91856 0.20383 0.0
N251 N 0.92819 0.94267 0.15343 0.0
H252 H 0.91674 0.94108 0.0615 0.0
H253 H 0.94226 0.93001 0.24308 0.0
H254 H 0.86728 0.9921 0.06717 0.0
H255 H 0.91915 0.08447 0.18308 0.0
O256 O 0.97719 0.98357 0.06229 0.0
O257 O 1.00036 0.04118 0.10951 0.0
O258 O 0.95218 1.015 0.22759 0.0
C259 C 1.0029 1.01632 0.06298 0.0
H260 H 0.10558 0.97965 0.2374 0.0
H261 H 0.80546 0.04728 0.09562 0.0
H262 H 0.89937 0.86133 0.24601 0.0
H263 H 0.88141 0.87253 0.06012 0.0
Co264 Co 0.74627 0.71141 0.89292 0.0
C265 C 0.68368 0.78773 0.90029 0.0
C266 C 0.73986 0.78956 0.9565 0.0
C267 C 0.71891 0.82819 0.9613 0.0
N268 N 0.71803 0.76376 0.91903 0.0
N269 N 0.6834 0.82728 0.92676 0.0
H270 H 0.66026 0.77701 0.86801 0.0
H271 H 0.77087 0.78187 0.97639 0.0
C272 C 0.76249 0.66735 1.00825 0.0
O273 O 0.7491 0.6307 0.98461 0.0
N274 N 0.78146 0.65917 0.8723 0.0
C275 C 0.77074 0.62224 0.84335 0.0
C276 C 0.80006 0.58952 0.85754 0.0
C277 C 0.81875 0.64805 0.90164 0.0
N278 N 0.83021 0.60568 0.89438 0.0
C279 C 0.67475 0.6634 0.85273 0.0
C280 C 0.62853 0.65377 0.9552 0.0
C281 C 0.61225 0.63578 0.90324 0.0
C282 C 0.63481 0.64323 0.85156 0.0
C283 C 0.66853 0.67654 0.95384 0.0
N284 N 0.69264 0.67823 0.90344 0.0
H285 H 0.69105 0.66678 0.81151 0.0
H286 H 0.67999 0.69231 0.99309 0.0
H287 H 0.74207 0.61732 0.81717 0.0
H288 H 0.83443 0.66917 0.93309 0.0
O289 O 0.73355 0.72723 0.8123 0.0
O290 O 0.79115 0.75041 0.85952 0.0
O291 O 0.76497 0.70222 0.9776 0.0
C292 C 0.76628 0.75294 0.81299 0.0
H293 H 0.72957 0.85561 0.98748 0.0
H294 H 0.79723 0.55549 0.84562 0.0
H295 H 0.6113 0.64943 0.99602 0.0
H296 H 0.62249 0.63147 0.81014 0.0
Co297 Co 0.07678 0.9963 0.6429 0.0
C298 C 1.00045 0.93372 0.65026 0.0
C299 C 0.9986 0.98995 0.70641 0.0
C300 C 0.95995 0.96901 0.71116 0.0
N301 N 0.02442 0.96809 0.66899 0.0
N302 N 0.96088 0.93349 0.67666 0.0
H303 H 1.01119 0.91027 0.61804 0.0
H304 H 1.00629 0.02097 0.72628 0.0
C305 C 0.12081 1.01253 0.75826 0.0
O306 O 0.15745 0.99913 0.73463 0.0
N307 N 0.12903 0.03147 0.6223 0.0
C308 C 0.16597 0.02072 0.5934 0.0
C309 C 0.19869 0.05003 0.6076 0.0
C310 C 0.14016 0.06877 0.65163 0.0
N311 N 0.18252 0.08021 0.6444 0.0
C312 C 0.12475 0.92474 0.60275 0.0
C313 C 0.13442 0.87857 0.70526 0.0
C314 C 0.15241 0.86228 0.65331 0.0
C315 C 0.14495 0.88481 0.60161 0.0
C316 C 0.11163 0.91857 0.70387 0.0
N317 N 0.10993 0.94266 0.65345 0.0
H318 H 0.12138 0.94103 0.56153 0.0
H319 H 0.09586 0.93003 0.74311 0.0
H320 H 0.17089 0.99203 0.56725 0.0
H321 H 0.11902 0.08447 0.68305 0.0
O322 O 0.06098 0.98358 0.56228 0.0
O323 O 0.03781 0.0412 0.60948 0.0
O324 O 0.08595 1.015 0.72759 0.0
C325 C 0.03528 1.01632 0.56296 0.0
H326 H 0.93253 0.9797 0.73731 0.0
H327 H 0.23273 0.04718 0.59571 0.0
H328 H 0.13877 0.86136 0.74609 0.0
H329 H 0.15671 0.87248 0.5602 0.0
Co330 Co 0.7919 0.32685 0.39292 0.0
C331 C 0.85449 0.25053 0.40029 0.0
C332 C 0.79831 0.2487 0.4565 0.0
C333 C 0.81927 0.21007 0.46129 0.0
N334 N 0.82013 0.2745 0.41903 0.0
N335 N 0.85477 0.21098 0.42676 0.0
H336 H 0.87791 0.26125 0.36801 0.0
H337 H 0.7673 0.25639 0.47639 0.0
C338 C 0.77568 0.37091 0.50825 0.0
O339 O 0.78907 0.40755 0.48462 0.0
N340 N 0.7567 0.37909 0.3723 0.0
C341 C 0.76742 0.41602 0.34335 0.0
C342 C 0.73811 0.44874 0.35754 0.0
C343 C 0.71942 0.39021 0.40164 0.0
N344 N 0.70795 0.43257 0.39438 0.0
C345 C 0.86341 0.37486 0.35273 0.0
C346 C 0.90964 0.38449 0.4552 0.0
C347 C 0.92591 0.40248 0.40324 0.0
C348 C 0.90335 0.39504 0.35156 0.0
C349 C 0.86963 0.36173 0.45384 0.0
N350 N 0.84552 0.36004 0.40344 0.0
H351 H 0.84711 0.37148 0.31151 0.0
H352 H 0.85818 0.34595 0.49309 0.0
H353 H 0.79609 0.42094 0.31716 0.0
H354 H 0.70374 0.36909 0.43309 0.0
O355 O 0.80462 0.31103 0.3123 0.0
O356 O 0.74702 0.28785 0.35952 0.0
O357 O 0.7732 0.33604 0.4776 0.0
C358 C 0.77188 0.28532 0.31299 0.0
H359 H 0.8086 0.18266 0.48747 0.0
H360 H 0.74093 0.48277 0.34562 0.0
H361 H 0.92687 0.38883 0.49602 0.0
H362 H 0.91567 0.40679 0.31014 0.0
Co363 Co 0.46139 0.04195 0.1429 0.0
C364 C 0.53772 0.10453 0.15026 0.0
C365 C 0.53957 0.04831 0.20641 0.0
C366 C 0.57821 0.06924 0.21117 0.0
N367 N 0.51375 0.07017 0.16899 0.0
N368 N 0.57729 0.10477 0.17666 0.0
H369 H 0.52698 0.12798 0.11803 0.0
H370 H 0.53187 1.01729 0.22628 0.0
C371 C 0.41736 0.02573 0.25825 0.0
O372 O 0.38071 0.03913 0.23462 0.0
N373 N 0.40914 1.00678 0.1223 0.0
C374 C 0.37219 1.01754 0.09339 0.0
C375 C 0.33948 0.98823 0.1076 0.0
C376 C 0.39801 0.96949 0.15162 0.0
N377 N 0.35564 0.95805 0.14439 0.0
C378 C 0.41341 0.11351 0.10275 0.0
C379 C 0.40375 0.15969 0.20526 0.0
C380 C 0.38575 0.17597 0.15331 0.0
C381 C 0.39322 0.15344 0.10161 0.0
C382 C 0.42654 0.11969 0.20387 0.0
N383 N 0.42823 0.0956 0.15345 0.0
H384 H 0.41678 0.09722 0.06152 0.0
H385 H 0.44231 0.10822 0.24311 0.0
H386 H 0.36727 0.04623 0.06725 0.0
H387 H 0.41915 0.95379 0.18304 0.0
O388 O 0.47719 0.05468 0.06228 0.0
O389 O 0.50035 0.99706 0.10948 0.0
O390 O 0.45221 0.02325 0.22759 0.0
C391 C 0.50289 0.02193 0.06296 0.0
H392 H 0.60564 0.05856 0.23731 0.0
H393 H 0.30544 0.99108 0.09571 0.0
H394 H 0.3994 0.17689 0.24609 0.0
H395 H 0.38145 0.16578 0.0602 0.0
Co396 Co 0.74627 0.32685 0.68532 0.0
C397 C 0.68368 0.25053 0.67795 0.0
C398 C 0.73986 0.2487 0.62173 0.0
C399 C 0.71891 0.21007 0.61694 0.0
N400 N 0.71804 0.2745 0.65921 0.0
N401 N 0.6834 0.21098 0.65148 0.0
H402 H 0.66026 0.26125 0.71023 0.0
H403 H 0.77087 0.25639 0.60185 0.0
C404 C 0.76249 0.37091 0.56999 0.0
O405 O 0.7491 0.40755 0.59362 0.0
N406 N 0.78147 0.37909 0.70594 0.0
C407 C 0.77074 0.41602 0.73489 0.0
C408 C 0.80006 0.44874 0.72069 0.0
C409 C 0.81875 0.39021 0.6766 0.0
N410 N 0.83021 0.43258 0.68386 0.0
C411 C 0.67475 0.37486 0.72551 0.0
C412 C 0.62853 0.38449 0.62303 0.0
C413 C 0.61225 0.40248 0.675 0.0
C414 C 0.63482 0.39503 0.72668 0.0
C415 C 0.66854 0.36173 0.6244 0.0
N416 N 0.69264 0.36003 0.6748 0.0
H417 H 0.69105 0.37148 0.76672 0.0
H418 H 0.67999 0.34595 0.58515 0.0
H419 H 0.74207 0.42094 0.76107 0.0
H420 H 0.83443 0.36909 0.64515 0.0
O421 O 0.73355 0.31103 0.76594 0.0
O422 O 0.79115 0.28785 0.71872 0.0
O423 O 0.76497 0.33604 0.60064 0.0
C424 C 0.76628 0.28532 0.76525 0.0
H425 H 0.72957 0.18265 0.59076 0.0
H426 H 0.79723 0.48278 0.73262 0.0
H427 H 0.6113 0.38883 0.58222 0.0
H428 H 0.62249 0.40679 0.7681 0.0
Co429 Co 0.46139 0.9963 0.43534 0.0
C430 C 0.53772 0.93372 0.42798 0.0
C431 C 0.53957 0.98994 0.37183 0.0
C432 C 0.57821 0.96901 0.36707 0.0
N433 N 0.51375 0.96809 0.40924 0.0
N434 N 0.57729 0.93349 0.40158 0.0
H435 H 0.52698 0.91027 0.4602 0.0
H436 H 0.53187 0.02097 0.35196 0.0
C437 C 0.41736 1.01252 0.31998 0.0
O438 O 0.38071 0.99913 0.34361 0.0
N439 N 0.40914 0.03148 0.45594 0.0
C440 C 0.3722 0.02072 0.48485 0.0
C441 C 0.33948 0.05003 0.47064 0.0
C442 C 0.39801 0.06877 0.42661 0.0
N443 N 0.35565 0.08021 0.43384 0.0
C444 C 0.41341 0.92475 0.47549 0.0
C445 C 0.40375 0.87857 0.37298 0.0
C446 C 0.38575 0.86229 0.42493 0.0
C447 C 0.39322 0.88482 0.47663 0.0
C448 C 0.42654 0.91857 0.37437 0.0
N449 N 0.42823 0.94266 0.42479 0.0
H450 H 0.41678 0.94104 0.51671 0.0
H451 H 0.44231 0.93003 0.33513 0.0
H452 H 0.36728 0.99204 0.511 0.0
H453 H 0.41914 0.08447 0.39519 0.0
O454 O 0.47719 0.98358 0.51596 0.0
O455 O 0.50035 0.0412 0.46876 0.0
O456 O 0.45221 1.015 0.35065 0.0
C457 C 0.50289 1.01632 0.51528 0.0
H458 H 0.60564 0.97969 0.34093 0.0
H459 H 0.30544 0.04719 0.48254 0.0
H460 H 0.3994 0.86136 0.33215 0.0
H461 H 0.38145 0.87248 0.51804 0.0
Co462 Co 0.7919 0.71141 0.18532 0.0
C463 C 0.85449 0.78773 0.17795 0.0
C464 C 0.79831 0.78956 0.12174 0.0
C465 C 0.81926 0.82819 0.11695 0.0
N466 N 0.82013 0.76376 0.15921 0.0
N467 N 0.85477 0.82728 0.15148 0.0
H468 H 0.87791 0.77701 0.21023 0.0
H469 H 0.76729 0.78187 0.10186 0.0
C470 C 0.77568 0.66735 0.06999 0.0
O471 O 0.78907 0.6307 0.09362 0.0
N472 N 0.7567 0.65917 0.20594 0.0
C473 C 0.76743 0.62224 0.23489 0.0
C474 C 0.73812 0.58952 0.22069 0.0
C475 C 0.71942 0.64804 0.1766 0.0
N476 N 0.70796 0.60568 0.18386 0.0
C477 C 0.86342 0.6634 0.22551 0.0
C478 C 0.90964 0.65377 0.12303 0.0
C479 C 0.92592 0.63578 0.175 0.0
C480 C 0.90336 0.64323 0.22668 0.0
C481 C 0.86963 0.67654 0.1244 0.0
N482 N 0.84553 0.67823 0.1748 0.0
H483 H 0.84712 0.66678 0.26672 0.0
H484 H 0.85818 0.69231 0.08515 0.0
H485 H 0.7961 0.61732 0.26107 0.0
H486 H 0.70374 0.66917 0.14515 0.0
O487 O 0.80462 0.72723 0.26594 0.0
O488 O 0.74702 0.75041 0.21872 0.0
O489 O 0.7732 0.70222 0.10064 0.0
C490 C 0.77188 0.75294 0.26525 0.0
H491 H 0.80859 0.85561 0.09077 0.0
H492 H 0.74095 0.55548 0.23262 0.0
H493 H 0.92687 0.64943 0.08222 0.0
H494 H 0.91568 0.63147 0.2681 0.0
Co495 Co 0.07678 0.04195 0.93534 0.0
C496 C 1.00045 0.10453 0.92798 0.0
C497 C 0.9986 0.04831 0.87183 0.0
C498 C 0.95995 0.06925 0.86707 0.0
N499 N 0.02442 0.07017 0.90924 0.0
N500 N 0.96088 0.10477 0.90158 0.0
H501 H 1.01118 0.12799 0.96021 0.0
H502 H 1.00629 1.01729 0.85196 0.0
C503 C 0.12081 0.02573 0.81999 0.0
O504 O 0.15745 0.03913 0.84362 0.0
N505 N 0.12903 1.00678 0.95594 0.0
C506 C 0.16597 1.01754 0.98485 0.0
C507 C 0.19869 0.98822 0.97064 0.0
C508 C 0.14015 0.96949 0.92661 0.0
N509 N 0.18252 0.95804 0.93384 0.0
C510 C 0.12476 0.11351 0.97549 0.0
C511 C 0.13442 0.15969 0.87298 0.0
C512 C 0.15242 0.17597 0.92493 0.0
C513 C 0.14495 0.15344 0.97663 0.0
C514 C 0.11163 0.11969 0.87437 0.0
N515 N 0.10993 0.0956 0.92479 0.0
H516 H 0.12138 0.09722 1.01672 0.0
H517 H 0.09585 0.10823 0.83513 0.0
H518 H 0.17089 0.04622 1.011 0.0
H519 H 0.11902 0.95379 0.89519 0.0
O520 O 0.06098 0.05468 1.01596 0.0
O521 O 0.03781 0.99706 0.96876 0.0
O522 O 0.08595 0.02325 0.85065 0.0
C523 C 0.03527 0.02193 1.01528 0.0
H524 H 0.93253 0.05856 0.84093 0.0
H525 H 0.23273 0.99107 0.98253 0.0
H526 H 0.13876 0.1769 0.83215 0.0
H527 H 0.15672 0.16578 1.01804 0.0
Co528 Co 0.79191 0.82683 0.68535 0.0
C529 C 0.85452 0.75052 0.67803 0.0
C530 C 0.79829 0.74863 0.6219 0.0
C531 C 0.81924 0.70999 0.61716 0.0
N532 N 0.82014 0.77447 0.65929 0.0
N533 N 0.85477 0.71094 0.65165 0.0
H534 H 0.87798 0.76128 0.71024 0.0
H535 H 0.76727 0.7563 0.60203 0.0
C536 C 0.7757 0.87083 0.56998 0.0
O537 O 0.78909 0.90748 0.5936 0.0
N538 N 0.75671 0.87908 0.70591 0.0
C539 C 0.76747 0.91608 0.7347 0.0
C540 C 0.73818 0.9488 0.72036 0.0
C541 C 0.71942 0.89015 0.67654 0.0
N542 N 0.70805 0.93256 0.68355 0.0
C543 C 0.86342 0.87487 0.72551 0.0
C544 C 0.90964 0.88447 0.62302 0.0
C545 C 0.9259 0.90251 0.67496 0.0
C546 C 0.90334 0.89507 0.72666 0.0
C547 C 0.86964 0.86168 0.62441 0.0
N548 N 0.84554 0.86001 0.67481 0.0
H549 H 0.84712 0.87151 0.76672 0.0
H550 H 0.8582 0.84588 0.58518 0.0
H551 H 0.79614 0.92105 0.76085 0.0
H552 H 0.70372 0.86896 0.6452 0.0
O553 O 0.80462 0.81105 0.76599 0.0
O554 O 0.74703 0.78785 0.71877 0.0
O555 O 0.77322 0.83598 0.60066 0.0
C556 C 0.77189 0.78533 0.7653 0.0
H557 H 0.80857 0.68255 0.59102 0.0
H558 H 0.74101 0.98286 0.73215 0.0
H559 H 0.92686 0.88879 0.5822 0.0
H560 H 0.91566 0.90687 0.76806 0.0
Co561 Co 0.46138 0.54196 0.93533 0.0
C562 C 0.5377 0.60456 0.92796 0.0
C563 C 0.53953 0.54836 0.87177 0.0
C564 C 0.57816 0.56931 0.86698 0.0
N565 N 0.51373 0.57019 0.90923 0.0
N566 N 0.57725 0.60483 0.9015 0.0
H567 H 0.52698 0.62799 0.96023 0.0
H568 H 0.53184 0.51734 0.85189 0.0
C569 C 0.41734 0.52574 0.81998 0.0
O570 O 0.3807 0.53914 0.8436 0.0
N571 N 0.40914 0.50676 0.95592 0.0
C572 C 0.37214 0.51752 0.9847 0.0
C573 C 0.33943 0.48822 0.97037 0.0
C574 C 0.39807 0.46946 0.92655 0.0
N575 N 0.35567 0.45809 0.93357 0.0
C576 C 0.41337 0.61348 0.97551 0.0
C577 C 0.40374 0.65971 0.87303 0.0
C578 C 0.38574 0.67598 0.92499 0.0
C579 C 0.39319 0.65341 0.97667 0.0
C580 C 0.42652 0.61971 0.8744 0.0
N581 N 0.4282 0.59559 0.9248 0.0
H582 H 0.41673 0.59717 1.01672 0.0
H583 H 0.44229 0.60825 0.83515 0.0
H584 H 0.36718 0.5462 1.01084 0.0
H585 H 0.41926 0.45375 0.89521 0.0
O586 O 0.47719 0.55468 1.01595 0.0
O587 O 0.50037 0.49708 0.96873 0.0
O588 O 0.4522 0.52326 0.85064 0.0
C589 C 0.5029 0.52194 1.01526 0.0
H590 H 0.60557 0.55864 0.84081 0.0
H591 H 0.30538 0.49106 0.98216 0.0
H592 H 0.39941 0.67694 0.83222 0.0
H593 H 0.38142 0.66573 1.01809 0.0
Co594 Co 0.74626 0.21142 0.18535 0.0
C595 C 0.68365 0.28773 0.17803 0.0
C596 C 0.73987 0.28963 0.1219 0.0
C597 C 0.71892 0.32827 0.11716 0.0
N598 N 0.71802 0.26379 0.15929 0.0
N599 N 0.68339 0.32731 0.15165 0.0
H600 H 0.66019 0.27697 0.21024 0.0
H601 H 0.7709 0.28195 0.10203 0.0
C602 C 0.76247 0.16742 0.06998 0.0
O603 O 0.74907 0.13077 0.0936 0.0
N604 N 0.78146 0.15918 0.20591 0.0
C605 C 0.77071 0.12217 0.2347 0.0
C606 C 0.8 0.08946 0.22036 0.0
C607 C 0.81875 0.14811 0.17654 0.0
N608 N 0.83012 0.1057 0.18355 0.0
C609 C 0.67475 0.16339 0.22551 0.0
C610 C 0.62853 0.15378 0.12302 0.0
C611 C 0.61227 0.13575 0.17496 0.0
C612 C 0.63483 0.14318 0.22666 0.0
C613 C 0.66852 0.17657 0.12441 0.0
N614 N 0.69263 0.17825 0.17481 0.0
H615 H 0.69106 0.16674 0.26672 0.0
H616 H 0.67997 0.19238 0.08518 0.0
H617 H 0.74203 0.11721 0.26085 0.0
H618 H 0.83445 0.1693 0.14519 0.0
O619 O 0.73355 0.22721 0.26599 0.0
O620 O 0.79114 0.25041 0.21877 0.0
O621 O 0.76495 0.20228 0.10066 0.0
C622 C 0.76628 0.25293 0.2653 0.0
H623 H 0.72959 0.3557 0.09102 0.0
H624 H 0.79716 0.0554 0.23216 0.0
H625 H 0.6113 0.14946 0.0822 0.0
H626 H 0.62252 0.13139 0.26806 0.0
Co627 Co 0.07679 0.4963 0.43533 0.0
C628 C 1.00047 0.4337 0.42796 0.0
C629 C 0.99864 0.4899 0.37176 0.0
C630 C 0.96 0.46895 0.36697 0.0
N631 N 0.02444 0.46806 0.40923 0.0
N632 N 0.96092 0.43343 0.4015 0.0
H633 H 1.01118 0.41027 0.46024 0.0
H634 H 1.00633 0.52092 0.35189 0.0
C635 C 0.12082 0.51252 0.31998 0.0
O636 O 0.15747 0.49912 0.34361 0.0
N637 N 0.12902 0.5315 0.45592 0.0
C638 C 0.16603 0.52074 0.4847 0.0
C639 C 0.19873 0.55004 0.47038 0.0
C640 C 0.14009 0.5688 0.42656 0.0
N641 N 0.1825 0.58017 0.43357 0.0
C642 C 0.1248 0.42478 0.47551 0.0
C643 C 0.13442 0.37855 0.37304 0.0
C644 C 0.15243 0.36228 0.42499 0.0
C645 C 0.14499 0.38485 0.47668 0.0
C646 C 0.11165 0.41855 0.3744 0.0
N647 N 0.10997 0.44267 0.4248 0.0
H648 H 0.12144 0.44109 0.51672 0.0
H649 H 0.09587 0.43001 0.33516 0.0
H650 H 0.17099 0.49206 0.51084 0.0
H651 H 0.1189 0.58451 0.39522 0.0
O652 O 0.06098 0.48358 0.51595 0.0
O653 O 0.0378 0.54118 0.46873 0.0
O654 O 0.08597 0.51499 0.35064 0.0
C655 C 0.03527 0.51632 0.51526 0.0
H656 H 0.93259 0.47962 0.3408 0.0
H657 H 0.23279 0.5472 0.48216 0.0
H658 H 0.13876 0.36132 0.33222 0.0
H659 H 0.15676 0.37253 0.51809 0.0
Co660 Co 0.79191 0.21142 0.89289 0.0
C661 C 0.85452 0.28774 0.90021 0.0
C662 C 0.7983 0.28963 0.95635 0.0
C663 C 0.81924 0.32827 0.96109 0.0
N664 N 0.82014 0.26379 0.91895 0.0
N665 N 0.85477 0.32732 0.9266 0.0
H666 H 0.87797 0.27697 0.868 0.0
H667 H 0.76727 0.28195 0.97622 0.0
C668 C 0.7757 0.16742 1.00826 0.0
O669 O 0.78909 0.13077 0.98464 0.0
N670 N 0.75671 0.15918 0.87233 0.0
C671 C 0.76746 0.12217 0.84354 0.0
C672 C 0.73817 0.08946 0.85788 0.0
C673 C 0.71942 0.14811 0.9017 0.0
N674 N 0.70805 0.1057 0.89469 0.0
C675 C 0.86342 0.16339 0.85273 0.0
C676 C 0.90964 0.15378 0.95522 0.0
C677 C 0.92589 0.13575 0.90328 0.0
C678 C 0.90334 0.14318 0.85158 0.0
C679 C 0.86964 0.17658 0.95383 0.0
N680 N 0.84554 0.17825 0.90343 0.0
H681 H 0.84711 0.16675 0.81152 0.0
H682 H 0.8582 0.19238 0.99307 0.0
H683 H 0.79614 0.11721 0.81739 0.0
H684 H 0.70372 0.1693 0.93304 0.0
O685 O 0.80462 0.22721 0.81225 0.0
O686 O 0.74703 0.25041 0.85947 0.0
O687 O 0.77322 0.20228 0.97758 0.0
C688 C 0.77189 0.25293 0.81294 0.0
H689 H 0.80857 0.3557 0.98722 0.0
H690 H 0.74101 0.0554 0.84609 0.0
H691 H 0.92686 0.14946 0.99604 0.0
H692 H 0.91565 0.13139 0.81018 0.0
Co693 Co 0.07679 0.54196 0.14291 0.0
C694 C 1.00047 0.60456 0.15027 0.0
C695 C 0.99864 0.54836 0.20647 0.0
C696 C 0.96001 0.56931 0.21126 0.0
N697 N 0.02444 0.5702 0.16901 0.0
N698 N 0.96092 0.60483 0.17674 0.0
H699 H 1.01119 0.62799 0.118 0.0
H700 H 1.00633 0.51734 0.22634 0.0
C701 C 0.12082 0.52574 0.25826 0.0
O702 O 0.15747 0.53914 0.23464 0.0
N703 N 0.12902 0.50676 0.12232 0.0
C704 C 0.16602 0.51752 0.09354 0.0
C705 C 0.19873 0.48822 0.10786 0.0
C706 C 0.1401 0.46946 0.15169 0.0
N707 N 0.1825 0.45809 0.14467 0.0
C708 C 0.1248 0.61348 0.10273 0.0
C709 C 0.13443 0.65971 0.2052 0.0
C710 C 0.15243 0.67598 0.15324 0.0
C711 C 0.14499 0.65341 0.10156 0.0
C712 C 0.11165 0.61971 0.20384 0.0
N713 N 0.10997 0.59559 0.15344 0.0
H714 H 0.12144 0.59716 0.06152 0.0
H715 H 0.09587 0.60826 0.24308 0.0
H716 H 0.17099 0.5462 0.0674 0.0
H717 H 0.1189 0.45376 0.18303 0.0
O718 O 0.06098 0.55468 0.06229 0.0
O719 O 0.0378 0.49708 0.10951 0.0
O720 O 0.08597 0.52327 0.2276 0.0
C721 C 0.03527 0.52194 0.06298 0.0
H722 H 0.93259 0.55864 0.23743 0.0
H723 H 0.23279 0.49106 0.09607 0.0
H724 H 0.13876 0.67694 0.24602 0.0
H725 H 0.15676 0.66573 0.06015 0.0
Co726 Co 0.74626 0.82683 0.39289 0.0
C727 C 0.68365 0.75052 0.40021 0.0
C728 C 0.73987 0.74863 0.45634 0.0
C729 C 0.71892 0.70999 0.46109 0.0
N730 N 0.71803 0.77447 0.41895 0.0
N731 N 0.6834 0.71094 0.4266 0.0
H732 H 0.66019 0.76128 0.368 0.0
H733 H 0.7709 0.7563 0.47621 0.0
C734 C 0.76247 0.87083 0.50826 0.0
O735 O 0.74907 0.90748 0.48464 0.0
N736 N 0.78146 0.87908 0.37233 0.0
C737 C 0.7707 0.91608 0.34354 0.0
C738 C 0.79999 0.94879 0.35787 0.0
C739 C 0.81874 0.89015 0.4017 0.0
N740 N 0.83011 0.93256 0.39469 0.0
C741 C 0.67475 0.87486 0.35273 0.0
C742 C 0.62853 0.88447 0.45522 0.0
C743 C 0.61227 0.9025 0.40328 0.0
C744 C 0.63482 0.89507 0.35158 0.0
C745 C 0.66852 0.86168 0.45383 0.0
N746 N 0.69263 0.86001 0.40343 0.0
H747 H 0.69105 0.87151 0.31152 0.0
H748 H 0.67997 0.84588 0.49306 0.0
H749 H 0.74202 0.92105 0.31739 0.0
H750 H 0.83445 0.86896 0.43304 0.0
O751 O 0.73354 0.81105 0.31225 0.0
O752 O 0.79114 0.78785 0.35947 0.0
O753 O 0.76495 0.83598 0.47758 0.0
C754 C 0.76628 0.78533 0.31294 0.0
H755 H 0.7296 0.68255 0.48722 0.0
H756 H 0.79715 0.98286 0.34608 0.0
H757 H 0.61131 0.88879 0.49604 0.0
H758 H 0.62251 0.90686 0.31018 0.0
Co759 Co 0.46138 0.4963 0.64291 0.0
C760 C 0.5377 0.4337 0.65027 0.0
C761 C 0.53953 0.4899 0.70647 0.0
C762 C 0.57816 0.46895 0.71126 0.0
N763 N 0.51373 0.46806 0.66901 0.0
N764 N 0.57725 0.43343 0.67674 0.0
H765 H 0.52698 0.41027 0.618 0.0
H766 H 0.53184 0.52092 0.72635 0.0
C767 C 0.41734 0.51252 0.75825 0.0
O768 O 0.3807 0.49912 0.73463 0.0
N769 N 0.40914 0.5315 0.62232 0.0
C770 C 0.37214 0.52074 0.59353 0.0
C771 C 0.33943 0.55004 0.60786 0.0
C772 C 0.39807 0.5688 0.65168 0.0
N773 N 0.35567 0.58017 0.64467 0.0
C774 C 0.41336 0.42478 0.60273 0.0
C775 C 0.40374 0.37855 0.7052 0.0
C776 C 0.38574 0.36228 0.65324 0.0
C777 C 0.39318 0.38485 0.60156 0.0
C778 C 0.42652 0.41855 0.70384 0.0
N779 N 0.4282 0.44267 0.65343 0.0
H780 H 0.41672 0.44109 0.56152 0.0
H781 H 0.4423 0.43001 0.74308 0.0
H782 H 0.36717 0.49206 0.5674 0.0
H783 H 0.41927 0.5845 0.68302 0.0
O784 O 0.47718 0.48358 0.56229 0.0
O785 O 0.50037 0.54118 0.60951 0.0
O786 O 0.4522 0.51499 0.72759 0.0
C787 C 0.50289 0.51632 0.56298 0.0
H788 H 0.60558 0.47962 0.73743 0.0
H789 H 0.30537 0.5472 0.59608 0.0
H790 H 0.39941 0.36132 0.74602 0.0
H791 H 0.38141 0.37253 0.56014 0.0
Co792 Co 0.24626 0.2114 0.3929 0.0
C793 C 0.18366 0.28773 0.40027 0.0
C794 C 0.23986 0.28957 0.45644 0.0
C795 C 0.21891 0.32821 0.46123 0.0
N796 N 0.21803 0.26376 0.41899 0.0
N797 N 0.18339 0.32728 0.42673 0.0
H798 H 0.16022 0.277 0.36801 0.0
H799 H 0.27089 0.28189 0.47631 0.0
C800 C 0.26247 0.16737 0.50826 0.0
O801 O 0.24907 0.13073 0.48464 0.0
N802 N 0.28145 0.15916 0.37232 0.0
C803 C 0.27068 0.12215 0.34354 0.0
C804 C 0.29997 0.08944 0.35787 0.0
C805 C 0.31874 0.14807 0.40169 0.0
N806 N 0.3301 0.10567 0.39467 0.0
C807 C 0.17473 0.16339 0.35273 0.0
C808 C 0.12852 0.15377 0.45522 0.0
C809 C 0.11225 0.13577 0.40326 0.0
C810 C 0.1348 0.14321 0.35157 0.0
C811 C 0.16852 0.17655 0.45384 0.0
N812 N 0.19263 0.17823 0.40344 0.0
H813 H 0.19104 0.16675 0.31152 0.0
H814 H 0.17997 0.19233 0.49308 0.0
H815 H 0.242 0.1172 0.3174 0.0
H816 H 0.33445 0.16926 0.43303 0.0
O817 O 0.23354 0.22721 0.31228 0.0
O818 O 0.29114 0.25039 0.3595 0.0
O819 O 0.26495 0.20223 0.47759 0.0
C820 C 0.26627 0.25292 0.31297 0.0
H821 H 0.22958 0.35563 0.48739 0.0
H822 H 0.29712 0.05537 0.34608 0.0
H823 H 0.11129 0.14944 0.49604 0.0
H824 H 0.12248 0.13144 0.31016 0.0
Co825 Co 0.57677 0.4963 0.1429 0.0
C826 C 0.50044 0.43371 0.15027 0.0
C827 C 0.49859 0.48994 0.2064 0.0
C828 C 0.45995 0.46899 0.21119 0.0
N829 N 0.5244 0.46809 0.16898 0.0
N830 N 0.46089 0.43346 0.1767 0.0
H831 H 0.51118 0.41026 0.11803 0.0
H832 H 0.50628 0.52097 0.22626 0.0
C833 C 0.62079 0.51252 0.25826 0.0
O834 O 0.65743 0.49911 0.23464 0.0
N835 N 0.62903 0.53148 0.12233 0.0
C836 C 0.66604 0.52068 0.09358 0.0
C837 C 0.69875 0.54997 0.10792 0.0
C838 C 0.64011 0.56878 0.15168 0.0
N839 N 0.68252 0.58012 0.14469 0.0
C840 C 0.62475 0.42475 0.10276 0.0
C841 C 0.63438 0.37856 0.20528 0.0
C842 C 0.65239 0.36228 0.15333 0.0
C843 C 0.64494 0.38481 0.10163 0.0
C844 C 0.6116 0.41856 0.20388 0.0
N845 N 0.60992 0.44265 0.15346 0.0
H846 H 0.6214 0.44104 0.06154 0.0
H847 H 0.59582 0.43003 0.24311 0.0
H848 H 0.671 0.49198 0.06748 0.0
H849 H 0.61891 0.5845 0.183 0.0
O850 O 0.56098 0.48358 0.06227 0.0
O851 O 0.53781 0.5412 0.10948 0.0
O852 O 0.58593 0.515 0.22759 0.0
C853 C 0.53528 0.51633 0.06296 0.0
H854 H 0.43253 0.47967 0.23734 0.0
H855 H 0.73282 0.5471 0.09616 0.0
H856 H 0.63872 0.36135 0.24611 0.0
H857 H 0.65672 0.37248 0.06022 0.0
Co858 Co 0.29191 0.82686 0.8929 0.0
C859 C 0.35451 0.75053 0.90027 0.0
C860 C 0.29831 0.74869 0.95644 0.0
C861 C 0.31926 0.71005 0.96123 0.0
N862 N 0.32014 0.7745 0.91899 0.0
N863 N 0.35478 0.71098 0.92672 0.0
H864 H 0.37794 0.76127 0.86801 0.0
H865 H 0.26728 0.75637 0.97631 0.0
C866 C 0.27569 0.87089 1.00826 0.0
O867 O 0.28909 0.90753 0.98464 0.0
N868 N 0.25671 0.8791 0.87232 0.0
C869 C 0.26748 0.9161 0.84354 0.0
C870 C 0.23819 0.94882 0.85787 0.0
C871 C 0.21943 0.89018 0.90169 0.0
N872 N 0.20806 0.93259 0.89468 0.0
C873 C 0.36343 0.87487 0.85273 0.0
C874 C 0.40965 0.88449 0.95522 0.0
C875 C 0.42592 0.9025 0.90326 0.0
C876 C 0.40336 0.89505 0.85157 0.0
C877 C 0.36965 0.86171 0.95384 0.0
N878 N 0.34554 0.86003 0.90344 0.0
H879 H 0.34712 0.87151 0.81152 0.0
H880 H 0.3582 0.84593 0.99308 0.0
H881 H 0.29616 0.92106 0.8174 0.0
H882 H 0.20372 0.86899 0.93303 0.0
O883 O 0.30463 0.81105 0.81228 0.0
O884 O 0.24703 0.78787 0.8595 0.0
O885 O 0.27322 0.83603 0.97759 0.0
C886 C 0.27189 0.78534 0.81297 0.0
H887 H 0.30859 0.68263 0.98739 0.0
H888 H 0.24104 0.98288 0.84608 0.0
H889 H 0.42688 0.88882 0.99603 0.0
H890 H 0.41568 0.90682 0.81016 0.0
Co891 Co 0.96139 0.54195 0.6429 0.0
C892 C 0.03773 0.60454 0.65027 0.0
C893 C 0.03958 0.54832 0.70641 0.0
C894 C 0.07821 0.56926 0.71119 0.0
N895 N 1.01376 0.57017 0.66898 0.0
N896 N 0.07728 0.6048 0.67671 0.0
H897 H 0.02699 0.62799 0.61803 0.0
H898 H 0.03189 0.51729 0.72627 0.0
C899 C 0.91738 0.52574 0.75825 0.0
O900 O 0.88073 0.53915 0.73464 0.0
N901 N 0.90914 0.50678 0.62232 0.0
C902 C 0.87213 0.51757 0.59358 0.0
C903 C 0.83941 0.48829 0.60792 0.0
C904 C 0.89806 0.46948 0.65167 0.0
N905 N 0.85565 0.45813 0.64469 0.0
C906 C 0.91341 0.61351 0.60276 0.0
C907 C 0.90378 0.65969 0.70527 0.0
C908 C 0.88577 0.67598 0.65333 0.0
C909 C 0.89322 0.65344 0.60163 0.0
C910 C 0.92657 0.6197 0.70387 0.0
N911 N 0.92825 0.5956 0.65345 0.0
H912 H 0.91676 0.59721 0.56154 0.0
H913 H 0.94235 0.60823 0.74311 0.0
H914 H 0.86717 0.54627 0.56747 0.0
H915 H 0.91926 0.45375 0.68299 0.0
O916 O 0.97719 0.55468 0.56227 0.0
O917 O 1.00036 0.49706 0.60948 0.0
O918 O 0.95223 0.52326 0.72759 0.0
C919 C 1.00289 0.52193 0.56296 0.0
H920 H 0.10563 0.55858 0.73735 0.0
H921 H 0.80535 0.49115 0.59616 0.0
H922 H 0.89945 0.6769 0.74611 0.0
H923 H 0.88144 0.66578 0.56022 0.0
Co924 Co 0.24626 0.82686 0.18534 0.0
C925 C 0.18366 0.75053 0.17797 0.0
C926 C 0.23986 0.74869 0.1218 0.0
C927 C 0.21891 0.71005 0.11701 0.0
N928 N 0.21803 0.7745 0.15924 0.0
N929 N 0.18339 0.71098 0.15151 0.0
H930 H 0.16022 0.76126 0.21022 0.0
H931 H 0.27089 0.75637 0.10193 0.0
C932 C 0.26247 0.87089 0.06998 0.0
O933 O 0.24907 0.90753 0.0936 0.0
N934 N 0.28145 0.8791 0.20592 0.0
C935 C 0.27068 0.91611 0.2347 0.0
C936 C 0.29997 0.94883 0.22037 0.0
C937 C 0.31874 0.89019 0.17655 0.0
N938 N 0.3301 0.9326 0.18356 0.0
C939 C 0.17474 0.87487 0.22551 0.0
C940 C 0.12852 0.88449 0.12302 0.0
C941 C 0.11225 0.90249 0.17497 0.0
C942 C 0.13481 0.89505 0.22666 0.0
C943 C 0.16852 0.86171 0.12439 0.0
N944 N 0.19263 0.86003 0.1748 0.0
H945 H 0.19105 0.87151 0.26672 0.0
H946 H 0.17997 0.84593 0.08515 0.0
H947 H 0.242 0.92107 0.26084 0.0
H948 H 0.33445 0.86899 0.14521 0.0
O949 O 0.23354 0.81106 0.26596 0.0
O950 O 0.29114 0.78787 0.21874 0.0
O951 O 0.26495 0.83603 0.10065 0.0
C952 C 0.26627 0.78534 0.26527 0.0
H953 H 0.22958 0.68263 0.09085 0.0
H954 H 0.29712 0.98289 0.23216 0.0
H955 H 0.11129 0.88882 0.0822 0.0
H956 H 0.12248 0.90682 0.26808 0.0
Co957 Co 0.96139 0.4963 0.93533 0.0
C958 C 0.03773 0.43371 0.92797 0.0
C959 C 0.03958 0.48994 0.87183 0.0
C960 C 0.07821 0.46899 0.86705 0.0
N961 N 1.01376 0.46809 0.90926 0.0
N962 N 0.07728 0.43346 0.90153 0.0
H963 H 0.02699 0.41026 0.96021 0.0
H964 H 0.03189 0.52097 0.85197 0.0
C965 C 0.91738 0.51252 0.81998 0.0
O966 O 0.88073 0.49911 0.84359 0.0
N967 N 0.90914 0.53148 0.95591 0.0
C968 C 0.87213 0.52069 0.98466 0.0
C969 C 0.83942 0.54997 0.97032 0.0
C970 C 0.89806 0.56878 0.92656 0.0
N971 N 0.85565 0.58013 0.93355 0.0
C972 C 0.91341 0.42475 0.97548 0.0
C973 C 0.90378 0.37856 0.87297 0.0
C974 C 0.88577 0.36228 0.92491 0.0
C975 C 0.89322 0.38482 0.97661 0.0
C976 C 0.92656 0.41856 0.87436 0.0
N977 N 0.92824 0.44266 0.92478 0.0
H978 H 0.91676 0.44105 1.0167 0.0
H979 H 0.94235 0.43002 0.83513 0.0
H980 H 0.86717 0.49199 1.01077 0.0
H981 H 0.91926 0.5845 0.89524 0.0
O982 O 0.97719 0.48358 1.01596 0.0
O983 O 1.00036 0.5412 0.96876 0.0
O984 O 0.95223 0.515 0.85065 0.0
C985 C 1.00289 0.51633 1.01528 0.0
H986 H 0.10563 0.47967 0.84089 0.0
H987 H 0.80535 0.54711 0.98208 0.0
H988 H 0.89944 0.36135 0.83213 0.0
H989 H 0.88144 0.37248 1.01802 0.0
Co990 Co 0.29191 0.2114 0.68534 0.0
C991 C 0.35451 0.28773 0.67797 0.0
C992 C 0.2983 0.28957 0.6218 0.0
C993 C 0.31926 0.32821 0.61701 0.0
N994 N 0.32014 0.26376 0.65925 0.0
N995 N 0.35478 0.32728 0.65151 0.0
H996 H 0.37795 0.277 0.71022 0.0
H997 H 0.26728 0.28189 0.60193 0.0
C998 C 0.27569 0.16737 0.56998 0.0
O999 O 0.28909 0.13073 0.5936 0.0
N1000 N 0.25672 0.15916 0.70592 0.0
C1001 C 0.26749 0.12215 0.7347 0.0
C1002 C 0.2382 0.08943 0.72037 0.0
C1003 C 0.21943 0.14807 0.67655 0.0
N1004 N 0.20807 0.10566 0.68356 0.0
C1005 C 0.36343 0.1634 0.72551 0.0
C1006 C 0.40965 0.15377 0.62302 0.0
C1007 C 0.42592 0.13577 0.67498 0.0
C1008 C 0.40337 0.14321 0.72666 0.0
C1009 C 0.36965 0.17655 0.6244 0.0
N1010 N 0.34554 0.17823 0.6748 0.0
H1011 H 0.34713 0.16675 0.76672 0.0
H1012 H 0.35819 0.19233 0.58516 0.0
H1013 H 0.29617 0.1172 0.76084 0.0
H1014 H 0.20372 0.16926 0.64521 0.0
O1015 O 0.30463 0.2272 0.76596 0.0
O1016 O 0.24703 0.25039 0.71874 0.0
O1017 O 0.27322 0.20223 0.60065 0.0
C1018 C 0.27189 0.25292 0.76527 0.0
H1019 H 0.30858 0.35563 0.59085 0.0
H1020 H 0.24105 0.05537 0.73216 0.0
H1021 H 0.42687 0.14944 0.5822 0.0
H1022 H 0.41569 0.13144 0.76808 0.0
Co1023 Co 0.57677 0.54195 0.43534 0.0
C1024 C 0.50044 0.60454 0.42797 0.0
C1025 C 0.49859 0.54832 0.37183 0.0
C1026 C 0.45995 0.56927 0.36704 0.0
N1027 N 0.5244 0.57017 0.40926 0.0
N1028 N 0.46089 0.6048 0.40153 0.0
H1029 H 0.51117 0.62799 0.46021 0.0
H1030 H 0.50628 0.51729 0.35197 0.0
C1031 C 0.62079 0.52574 0.31998 0.0
O1032 O 0.65743 0.53915 0.3436 0.0
N1033 N 0.62902 0.50678 0.45591 0.0
C1034 C 0.66603 0.51757 0.48466 0.0
C1035 C 0.69875 0.48828 0.47032 0.0
C1036 C 0.6401 0.46948 0.42656 0.0
N1037 N 0.68251 0.45813 0.43355 0.0
C1038 C 0.62476 0.61351 0.47548 0.0
C1039 C 0.63438 0.65969 0.37297 0.0
C1040 C 0.6524 0.67598 0.42491 0.0
C1041 C 0.64494 0.65344 0.47662 0.0
C1042 C 0.6116 0.6197 0.37437 0.0
N1043 N 0.60992 0.5956 0.42479 0.0
H1044 H 0.6214 0.59721 0.5167 0.0
H1045 H 0.59581 0.60823 0.33513 0.0
H1046 H 0.671 0.54627 0.51077 0.0
H1047 H 0.6189 0.45375 0.39525 0.0
O1048 O 0.56098 0.55468 0.51597 0.0
O1049 O 0.53781 0.49706 0.46876 0.0
O1050 O 0.58593 0.52326 0.35065 0.0
C1051 C 0.53527 0.52193 0.51528 0.0
H1052 H 0.43253 0.55859 0.34089 0.0
H1053 H 0.73281 0.49115 0.48208 0.0
H1054 H 0.63872 0.6769 0.33214 0.0
H1055 H 0.65673 0.66578 0.51802 0.0
loop_
_geom_bond_atom_site_label_1
_geom_bond_atom_site_label_2
_geom_bond_distance
_geom_bond_site_symmetry_2
_ccdc_geom_bond_type
Co0 N4 2.148 . S
Co0 N10 2.128 . S
Co0 N20 2.194 . S
Co0 O25 2.351 . S
Co0 O26 2.155 . S
Co0 O27 2.096 . S
C1 N4 1.301 . S
C1 N5 1.328 . S
C1 H6 0.930 . S
C2 C3 1.333 . S
C2 N4 1.317 . S
C2 H7 0.930 . S
C3 C2 1.333 . S
C3 N5 1.350 . S
C3 H29 0.931 . S
N4 Co0 2.148 . S
N4 C1 1.301 . S
N4 C2 1.317 . S
N5 C1 1.328 . S
N5 C3 1.350 . S
H6 C1 0.930 . S
H7 C2 0.930 . S
C8 O9 1.224 . S
C8 O27 1.247 . S
O9 C8 1.224 . S
N10 Co0 2.128 . S
N10 C11 1.355 . S
N10 C13 1.311 . S
C11 N10 1.355 . S
C11 C12 1.363 . S
C11 H23 0.929 . S
C12 C11 1.363 . S
C12 N14 1.375 . S
C12 H30 0.931 . S
C13 N10 1.311 . S
C13 N14 1.347 . S
C13 H24 0.929 . S
N14 C12 1.375 . S
N14 C13 1.347 . S
C15 C18 1.365 . S
C15 N20 1.328 . S
C15 H21 0.929 . S
C16 C17 1.362 . S
C16 C19 1.378 . S
C16 H31 0.929 . S
C17 C16 1.362 . S
C17 C18 1.366 . S
C18 C15 1.365 . S
C18 C17 1.366 . S
C18 H32 0.930 . S
C19 C16 1.378 . S
C19 N20 1.315 . S
C19 H22 0.930 . S
N20 Co0 2.194 . S
N20 C15 1.328 . S
N20 C19 1.315 . S
H21 C15 0.929 . S
H22 C19 0.930 . S
H23 C11 0.929 . S
H24 C13 0.929 . S
O25 Co0 2.351 . S
O25 C28 1.244 . S
O26 Co0 2.155 . S
O26 C28 1.240 . S
O27 Co0 2.096 . S
O27 C8 1.247 . S
C28 O25 1.244 . S
C28 O26 1.240 . S
H29 C3 0.931 . S
H30 C12 0.931 . S
H31 C16 0.929 . S
H32 C18 0.930 . S
Co33 N37 2.148 1_655 S
Co33 N43 2.128 1_545 S
Co33 N53 2.194 . S
Co33 O58 2.351 . S
Co33 O59 2.155 1_545 S
Co33 O60 2.096 1_545 S
C34 N37 1.301 . S
C34 N38 1.328 . S
C34 H39 0.930 . S
C35 C36 1.333 . S
C35 N37 1.317 . S
C35 H40 0.930 . S
C36 C35 1.333 . S
C36 N38 1.350 . S
C36 H62 0.931 . S
N37 Co33 2.148 1_455 S
N37 C34 1.301 . S
N37 C35 1.317 . S
N38 C34 1.328 . S
N38 C36 1.350 . S
H39 C34 0.930 . S
H40 C35 0.930 . S
C41 O42 1.224 1_565 S
C41 O60 1.247 . S
O42 C41 1.224 1_545 S
N43 Co33 2.128 1_565 S
N43 C44 1.355 1_565 S
N43 C46 1.311 . S
C44 N43 1.355 1_545 S
C44 C45 1.363 1_545 S
C44 H56 0.929 . S
C45 C44 1.363 1_565 S
C45 N47 1.375 . S
C45 H63 0.931 . S
C46 N43 1.311 . S
C46 N47 1.347 . S
C46 H57 0.929 . S
N47 C45 1.375 . S
N47 C46 1.347 . S
C48 C51 1.365 . S
C48 N53 1.328 . S
C48 H54 0.929 . S
C49 C50 1.362 . S
C49 C52 1.378 . S
C49 H64 0.929 . S
C50 C49 1.362 . S
C50 C51 1.366 . S
C51 C48 1.365 . S
C51 C50 1.366 . S
C51 H65 0.930 . S
C52 C49 1.378 . S
C52 N53 1.315 . S
C52 H55 0.930 . S
N53 Co33 2.194 . S
N53 C48 1.328 . S
N53 C52 1.315 . S
H54 C48 0.929 . S
H55 C52 0.930 . S
H56 C44 0.929 . S
H57 C46 0.929 . S
O58 Co33 2.351 . S
O58 C61 1.241 1_545 S
O59 Co33 2.155 1_565 S
O59 C61 1.242 . S
O60 Co33 2.096 1_565 S
O60 C41 1.247 . S
C61 O58 1.241 1_565 S
C61 O59 1.242 . S
H62 C36 0.931 . S
H63 C45 0.931 . S
H64 C49 0.929 . S
H65 C51 0.930 . S
Co66 N70 2.148 . S
Co66 N76 2.128 . S
Co66 N86 2.194 . S
Co66 O91 2.351 . S
Co66 O92 2.155 . S
Co66 O93 2.096 . S
C67 N70 1.301 . S
C67 N71 1.328 . S
C67 H72 0.930 . S
C68 C69 1.333 . S
C68 N70 1.317 . S
C68 H73 0.930 . S
C69 C68 1.333 . S
C69 N71 1.350 . S
C69 H95 0.931 . S
N70 Co66 2.148 . S
N70 C67 1.301 . S
N70 C68 1.317 . S
N71 C67 1.328 . S
N71 C69 1.350 . S
H72 C67 0.930 . S
H73 C68 0.930 . S
C74 O75 1.224 . S
C74 O93 1.247 . S
O75 C74 1.224 . S
N76 Co66 2.128 . S
N76 C77 1.355 . S
N76 C79 1.311 . S
C77 N76 1.355 . S
C77 C78 1.363 . S
C77 H89 0.929 . S
C78 C77 1.363 . S
C78 N80 1.375 . S
C78 H96 0.931 . S
C79 N76 1.311 . S
C79 N80 1.347 . S
C79 H90 0.929 . S
N80 C78 1.375 . S
N80 C79 1.347 . S
C81 C84 1.365 . S
C81 N86 1.328 . S
C81 H87 0.929 . S
C82 C83 1.362 . S
C82 C85 1.378 . S
C82 H97 0.929 . S
C83 C82 1.362 . S
C83 C84 1.366 . S
C84 C81 1.365 . S
C84 C83 1.366 . S
C84 H98 0.930 . S
C85 C82 1.378 . S
C85 N86 1.315 . S
C85 H88 0.930 . S
N86 Co66 2.194 . S
N86 C81 1.328 . S
N86 C85 1.315 . S
H87 C81 0.929 . S
H88 C85 0.930 . S
H89 C77 0.929 . S
H90 C79 0.929 . S
O91 Co66 2.351 . S
O91 C94 1.244 . S
O92 Co66 2.155 . S
O92 C94 1.240 . S
O93 Co66 2.096 . S
O93 C74 1.247 . S
C94 O91 1.244 . S
C94 O92 1.240 . S
H95 C69 0.931 . S
H96 C78 0.931 . S
H97 C82 0.929 . S
H98 C84 0.930 . S
Co99 N103 2.148 . S
Co99 N109 2.128 1_565 S
Co99 N119 2.194 . S
Co99 O124 2.351 . S
Co99 O125 2.155 1_565 S
Co99 O126 2.096 1_565 S
C100 N103 1.301 . S
C100 N104 1.328 . S
C100 H105 0.930 . S
C101 C102 1.333 . S
C101 N103 1.317 . S
C101 H106 0.930 . S
C102 C101 1.333 . S
C102 N104 1.350 . S
C102 H128 0.931 . S
N103 Co99 2.148 . S
N103 C100 1.301 . S
N103 C101 1.317 . S
N104 C100 1.328 . S
N104 C102 1.350 . S
H105 C100 0.930 . S
H106 C101 0.930 . S
C107 O108 1.224 1_545 S
C107 O126 1.247 . S
O108 C107 1.224 1_565 S
N109 Co99 2.128 1_545 S
N109 C110 1.355 1_545 S
N109 C112 1.311 . S
C110 N109 1.355 1_565 S
C110 C111 1.363 1_565 S
C110 H122 0.929 . S
C111 C110 1.363 1_545 S
C111 N113 1.375 . S
C111 H129 0.931 . S
C112 N109 1.311 . S
C112 N113 1.347 . S
C112 H123 0.929 . S
N113 C111 1.375 . S
N113 C112 1.347 . S
C114 C117 1.365 . S
C114 N119 1.328 . S
C114 H120 0.929 . S
C115 C116 1.362 . S
C115 C118 1.378 . S
C115 H130 0.929 . S
C116 C115 1.362 . S
C116 C117 1.366 . S
C117 C114 1.365 . S
C117 C116 1.366 . S
C117 H131 0.930 . S
C118 C115 1.378 . S
C118 N119 1.315 . S
C118 H121 0.930 . S
N119 Co99 2.194 . S
N119 C114 1.328 . S
N119 C118 1.315 . S
H120 C114 0.929 . S
H121 C118 0.930 . S
H122 C110 0.929 . S
H123 C112 0.929 . S
O124 Co99 2.351 . S
O124 C127 1.241 1_565 S
O125 Co99 2.155 1_545 S
O125 C127 1.242 . S
O126 Co99 2.096 1_545 S
O126 C107 1.247 . S
C127 O124 1.241 1_545 S
C127 O125 1.242 . S
H128 C102 0.931 . S
H129 C111 0.931 . S
H130 C115 0.929 . S
H131 C117 0.930 . S
Co132 N136 2.148 . S
Co132 N142 2.128 . S
Co132 N152 2.194 . S
Co132 O157 2.351 . S
Co132 O158 2.155 . S
Co132 O159 2.096 . S
C133 N136 1.301 . S
C133 N137 1.328 . S
C133 H138 0.930 . S
C134 C135 1.333 . S
C134 N136 1.317 . S
C134 H139 0.930 . S
C135 C134 1.333 . S
C135 N137 1.350 . S
C135 H161 0.931 . S
N136 Co132 2.148 . S
N136 C133 1.301 . S
N136 C134 1.317 . S
N137 C133 1.328 . S
N137 C135 1.350 . S
H138 C133 0.930 . S
H139 C134 0.930 . S
C140 O141 1.224 . S
C140 O159 1.247 . S
O141 C140 1.224 . S
N142 Co132 2.128 . S
N142 C143 1.355 . S
N142 C145 1.311 . S
C143 N142 1.355 . S
C143 C144 1.363 . S
C143 H155 0.929 . S
C144 C143 1.363 . S
C144 N146 1.375 . S
C144 H162 0.931 . S
C145 N142 1.311 . S
C145 N146 1.347 . S
C145 H156 0.929 . S
N146 C144 1.375 . S
N146 C145 1.347 . S
C147 C150 1.365 . S
C147 N152 1.328 . S
C147 H153 0.929 . S
C148 C149 1.362 . S
C148 C151 1.378 . S
C148 H163 0.929 . S
C149 C148 1.362 . S
C149 C150 1.366 . S
C150 C147 1.365 . S
C150 C149 1.366 . S
C150 H164 0.930 . S
C151 C148 1.378 . S
C151 N152 1.315 . S
C151 H154 0.930 . S
N152 Co132 2.194 . S
N152 C147 1.328 . S
N152 C151 1.315 . S
H153 C147 0.929 . S
H154 C151 0.930 . S
H155 C143 0.929 . S
H156 C145 0.929 . S
O157 Co132 2.351 . S
O157 C160 1.244 . S
O158 Co132 2.155 . S
O158 C160 1.240 . S
O159 Co132 2.096 . S
O159 C140 1.247 . S
C160 O157 1.244 . S
C160 O158 1.240 . S
H161 C135 0.931 . S
H162 C144 0.931 . S
H163 C148 0.929 . S
H164 C150 0.930 . S
Co165 N169 2.148 . S
Co165 N175 2.128 1_545 S
Co165 N185 2.194 . S
Co165 O190 2.351 . S
Co165 O191 2.155 1_545 S
Co165 O192 2.096 1_545 S
C166 N169 1.301 . S
C166 N170 1.328 . S
C166 H171 0.930 . S
C167 C168 1.333 . S
C167 N169 1.317 . S
C167 H172 0.930 . S
C168 C167 1.333 . S
C168 N170 1.350 . S
C168 H194 0.931 . S
N169 Co165 2.148 . S
N169 C166 1.301 . S
N169 C167 1.317 . S
N170 C166 1.328 . S
N170 C168 1.350 . S
H171 C166 0.930 . S
H172 C167 0.930 . S
C173 O174 1.224 1_565 S
C173 O192 1.247 . S
O174 C173 1.224 1_545 S
N175 Co165 2.128 1_565 S
N175 C176 1.355 1_565 S
N175 C178 1.311 . S
C176 N175 1.355 1_545 S
C176 C177 1.363 1_545 S
C176 H188 0.929 . S
C177 C176 1.363 1_565 S
C177 N179 1.375 . S
C177 H195 0.931 . S
C178 N175 1.311 . S
C178 N179 1.347 . S
C178 H189 0.929 . S
N179 C177 1.375 . S
N179 C178 1.347 . S
C180 C183 1.365 . S
C180 N185 1.328 . S
C180 H186 0.929 . S
C181 C182 1.362 . S
C181 C184 1.378 . S
C181 H196 0.929 . S
C182 C181 1.362 . S
C182 C183 1.366 . S
C183 C180 1.365 . S
C183 C182 1.366 . S
C183 H197 0.930 . S
C184 C181 1.378 . S
C184 N185 1.315 . S
C184 H187 0.930 . S
N185 Co165 2.194 . S
N185 C180 1.328 . S
N185 C184 1.315 . S
H186 C180 0.929 . S
H187 C184 0.930 . S
H188 C176 0.929 . S
H189 C178 0.929 . S
O190 Co165 2.351 . S
O190 C193 1.241 1_545 S
O191 Co165 2.155 1_565 S
O191 C193 1.242 . S
O192 Co165 2.096 1_565 S
O192 C173 1.247 . S
C193 O190 1.241 1_565 S
C193 O191 1.242 . S
H194 C168 0.931 . S
H195 C177 0.931 . S
H196 C181 0.929 . S
H197 C183 0.930 . S
Co198 N202 2.148 . S
Co198 N208 2.128 . S
Co198 N218 2.194 . S
Co198 O223 2.351 . S
Co198 O224 2.155 . S
Co198 O225 2.096 . S
C199 N202 1.301 . S
C199 N203 1.328 . S
C199 H204 0.930 . S
C200 C201 1.333 . S
C200 N202 1.317 . S
C200 H205 0.930 . S
C201 C200 1.333 . S
C201 N203 1.350 . S
C201 H227 0.931 . S
N202 Co198 2.148 . S
N202 C199 1.301 . S
N202 C200 1.317 . S
N203 C199 1.328 . S
N203 C201 1.350 . S
H204 C199 0.930 . S
H205 C200 0.930 . S
C206 O207 1.224 . S
C206 O225 1.247 . S
O207 C206 1.224 . S
N208 Co198 2.128 . S
N208 C209 1.355 . S
N208 C211 1.311 . S
C209 N208 1.355 . S
C209 C210 1.363 . S
C209 H221 0.929 . S
C210 C209 1.363 . S
C210 N212 1.375 . S
C210 H228 0.931 . S
C211 N208 1.311 . S
C211 N212 1.347 . S
C211 H222 0.929 . S
N212 C210 1.375 . S
N212 C211 1.347 . S
C213 C216 1.365 . S
C213 N218 1.328 . S
C213 H219 0.929 . S
C214 C215 1.362 . S
C214 C217 1.378 . S
C214 H229 0.929 . S
C215 C214 1.362 . S
C215 C216 1.366 . S
C216 C213 1.365 . S
C216 C215 1.366 . S
C216 H230 0.930 . S
C217 C214 1.378 . S
C217 N218 1.315 . S
C217 H220 0.930 . S
N218 Co198 2.194 . S
N218 C213 1.328 . S
N218 C217 1.315 . S
H219 C213 0.929 . S
H220 C217 0.930 . S
H221 C209 0.929 . S
H222 C211 0.929 . S
O223 Co198 2.351 . S
O223 C226 1.244 . S
O224 Co198 2.155 . S
O224 C226 1.240 . S
O225 Co198 2.096 . S
O225 C206 1.247 . S
C226 O223 1.244 . S
C226 O224 1.240 . S
H227 C201 0.931 . S
H228 C210 0.931 . S
H229 C214 0.929 . S
H230 C216 0.930 . S
Co231 N235 2.148 1_655 S
Co231 N241 2.128 1_565 S
Co231 N251 2.194 . S
Co231 O256 2.351 . S
Co231 O257 2.155 1_565 S
Co231 O258 2.096 1_565 S
C232 N235 1.301 . S
C232 N236 1.328 . S
C232 H237 0.930 . S
C233 C234 1.333 . S
C233 N235 1.317 . S
C233 H238 0.930 . S
C234 C233 1.333 . S
C234 N236 1.350 . S
C234 H260 0.931 . S
N235 Co231 2.148 1_455 S
N235 C232 1.301 . S
N235 C233 1.317 . S
N236 C232 1.328 . S
N236 C234 1.350 . S
H237 C232 0.930 . S
H238 C233 0.930 . S
C239 O240 1.224 1_545 S
C239 O258 1.247 . S
O240 C239 1.224 1_565 S
N241 Co231 2.128 1_545 S
N241 C242 1.355 1_545 S
N241 C244 1.311 . S
C242 N241 1.355 1_565 S
C242 C243 1.363 1_565 S
C242 H254 0.929 . S
C243 C242 1.363 1_545 S
C243 N245 1.375 . S
C243 H261 0.931 . S
C244 N241 1.311 . S
C244 N245 1.347 . S
C244 H255 0.929 . S
N245 C243 1.375 . S
N245 C244 1.347 . S
C246 C249 1.365 . S
C246 N251 1.328 . S
C246 H252 0.929 . S
C247 C248 1.362 . S
C247 C250 1.378 . S
C247 H262 0.929 . S
C248 C247 1.362 . S
C248 C249 1.366 . S
C249 C246 1.365 . S
C249 C248 1.366 . S
C249 H263 0.930 . S
C250 C247 1.378 . S
C250 N251 1.315 . S
C250 H253 0.930 . S
N251 Co231 2.194 . S
N251 C246 1.328 . S
N251 C250 1.315 . S
H252 C246 0.929 . S
H253 C250 0.930 . S
H254 C242 0.929 . S
H255 C244 0.929 . S
O256 Co231 2.351 . S
O256 C259 1.241 1_565 S
O257 Co231 2.155 1_545 S
O257 C259 1.242 . S
O258 Co231 2.096 1_545 S
O258 C239 1.247 . S
C259 O256 1.241 1_545 S
C259 O257 1.242 . S
H260 C234 0.931 . S
H261 C243 0.931 . S
H262 C247 0.929 . S
H263 C249 0.930 . S
Co264 N268 2.148 . S
Co264 N274 2.128 . S
Co264 N284 2.194 . S
Co264 O289 2.351 . S
Co264 O290 2.155 . S
Co264 O291 2.096 . S
C265 N268 1.301 . S
C265 N269 1.328 . S
C265 H270 0.930 . S
C266 C267 1.333 . S
C266 N268 1.317 . S
C266 H271 0.930 . S
C267 C266 1.333 . S
C267 N269 1.350 . S
C267 H293 0.931 . S
N268 Co264 2.148 . S
N268 C265 1.301 . S
N268 C266 1.317 . S
N269 C265 1.328 . S
N269 C267 1.350 . S
H270 C265 0.930 . S
H271 C266 0.930 . S
C272 O273 1.224 . S
C272 O291 1.247 . S
O273 C272 1.224 . S
N274 Co264 2.128 . S
N274 C275 1.355 . S
N274 C277 1.311 . S
C275 N274 1.355 . S
C275 C276 1.363 . S
C275 H287 0.929 . S
C276 C275 1.363 . S
C276 N278 1.375 . S
C276 H294 0.931 . S
C277 N274 1.311 . S
C277 N278 1.347 . S
C277 H288 0.929 . S
N278 C276 1.375 . S
N278 C277 1.347 . S
C279 C282 1.365 . S
C279 N284 1.328 . S
C279 H285 0.929 . S
C280 C281 1.362 . S
C280 C283 1.378 . S
C280 H295 0.929 . S
C281 C280 1.362 . S
C281 C282 1.366 . S
C282 C279 1.365 . S
C282 C281 1.366 . S
C282 H296 0.930 . S
C283 C280 1.378 . S
C283 N284 1.315 . S
C283 H286 0.930 . S
N284 Co264 2.194 . S
N284 C279 1.328 . S
N284 C283 1.315 . S
H285 C279 0.929 . S
H286 C283 0.930 . S
H287 C275 0.929 . S
H288 C277 0.929 . S
O289 Co264 2.351 . S
O289 C292 1.244 . S
O290 Co264 2.155 . S
O290 C292 1.240 . S
O291 Co264 2.096 . S
O291 C272 1.247 . S
C292 O289 1.244 . S
C292 O290 1.240 . S
H293 C267 0.931 . S
H294 C276 0.931 . S
H295 C280 0.929 . S
H296 C282 0.930 . S
Co297 N301 2.148 1_455 S
Co297 N307 2.128 1_565 S
Co297 N317 2.194 . S
Co297 O322 2.351 . S
Co297 O323 2.155 1_565 S
Co297 O324 2.096 1_565 S
C298 N301 1.301 . S
C298 N302 1.328 . S
C298 H303 0.930 . S
C299 C300 1.333 . S
C299 N301 1.317 . S
C299 H304 0.930 . S
C300 C299 1.333 . S
C300 N302 1.350 . S
C300 H326 0.931 . S
N301 Co297 2.148 1_655 S
N301 C298 1.301 . S
N301 C299 1.317 . S
N302 C298 1.328 . S
N302 C300 1.350 . S
H303 C298 0.930 . S
H304 C299 0.930 . S
C305 O306 1.224 1_545 S
C305 O324 1.247 . S
O306 C305 1.224 1_565 S
N307 Co297 2.128 1_545 S
N307 C308 1.355 1_545 S
N307 C310 1.311 . S
C308 N307 1.355 1_565 S
C308 C309 1.363 1_565 S
C308 H320 0.929 . S
C309 C308 1.363 1_545 S
C309 N311 1.375 . S
C309 H327 0.931 . S
C310 N307 1.311 . S
C310 N311 1.347 . S
C310 H321 0.929 . S
N311 C309 1.375 . S
N311 C310 1.347 . S
C312 C315 1.365 . S
C312 N317 1.328 . S
C312 H318 0.929 . S
C313 C314 1.362 . S
C313 C316 1.378 . S
C313 H328 0.929 . S
C314 C313 1.362 . S
C314 C315 1.366 . S
C315 C312 1.365 . S
C315 C314 1.366 . S
C315 H329 0.930 . S
C316 C313 1.378 . S
C316 N317 1.315 . S
C316 H319 0.930 . S
N317 Co297 2.194 . S
N317 C312 1.328 . S
N317 C316 1.315 . S
H318 C312 0.929 . S
H319 C316 0.930 . S
H320 C308 0.929 . S
H321 C310 0.929 . S
O322 Co297 2.351 . S
O322 C325 1.241 1_565 S
O323 Co297 2.155 1_545 S
O323 C325 1.242 . S
O324 Co297 2.096 1_545 S
O324 C305 1.247 . S
C325 O322 1.241 1_545 S
C325 O323 1.242 . S
H326 C300 0.931 . S
H327 C309 0.931 . S
H328 C313 0.929 . S
H329 C315 0.930 . S
Co330 N334 2.148 . S
Co330 N340 2.128 . S
Co330 N350 2.194 . S
Co330 O355 2.351 . S
Co330 O356 2.155 . S
Co330 O357 2.096 . S
C331 N334 1.301 . S
C331 N335 1.328 . S
C331 H336 0.930 . S
C332 C333 1.333 . S
C332 N334 1.317 . S
C332 H337 0.930 . S
C333 C332 1.333 . S
C333 N335 1.350 . S
C333 H359 0.931 . S
N334 Co330 2.148 . S
N334 C331 1.301 . S
N334 C332 1.317 . S
N335 C331 1.328 . S
N335 C333 1.350 . S
H336 C331 0.930 . S
H337 C332 0.930 . S
C338 O339 1.224 . S
C338 O357 1.247 . S
O339 C338 1.224 . S
N340 Co330 2.128 . S
N340 C341 1.355 . S
N340 C343 1.311 . S
C341 N340 1.355 . S
C341 C342 1.363 . S
C341 H353 0.929 . S
C342 C341 1.363 . S
C342 N344 1.375 . S
C342 H360 0.931 . S
C343 N340 1.311 . S
C343 N344 1.347 . S
C343 H354 0.929 . S
N344 C342 1.375 . S
N344 C343 1.347 . S
C345 C348 1.365 . S
C345 N350 1.328 . S
C345 H351 0.929 . S
C346 C347 1.362 . S
C346 C349 1.378 . S
C346 H361 0.929 . S
C347 C346 1.362 . S
C347 C348 1.366 . S
C348 C345 1.365 . S
C348 C347 1.366 . S
C348 H362 0.930 . S
C349 C346 1.378 . S
C349 N350 1.315 . S
C349 H352 0.930 . S
N350 Co330 2.194 . S
N350 C345 1.328 . S
N350 C349 1.315 . S
H351 C345 0.929 . S
H352 C349 0.930 . S
H353 C341 0.929 . S
H354 C343 0.929 . S
O355 Co330 2.351 . S
O355 C358 1.244 . S
O356 Co330 2.155 . S
O356 C358 1.240 . S
O357 Co330 2.096 . S
O357 C338 1.247 . S
C358 O355 1.244 . S
C358 O356 1.240 . S
H359 C333 0.931 . S
H360 C342 0.931 . S
H361 C346 0.929 . S
H362 C348 0.930 . S
Co363 N367 2.148 . S
Co363 N373 2.128 1_545 S
Co363 N383 2.194 . S
Co363 O388 2.351 . S
Co363 O389 2.155 1_545 S
Co363 O390 2.096 1_545 S
C364 N367 1.301 . S
C364 N368 1.328 . S
C364 H369 0.930 . S
C365 C366 1.333 . S
C365 N367 1.317 . S
C365 H370 0.930 . S
C366 C365 1.333 . S
C366 N368 1.350 . S
C366 H392 0.931 . S
N367 Co363 2.148 . S
N367 C364 1.301 . S
N367 C365 1.317 . S
N368 C364 1.328 . S
N368 C366 1.350 . S
H369 C364 0.930 . S
H370 C365 0.930 . S
C371 O372 1.224 1_565 S
C371 O390 1.247 . S
O372 C371 1.224 1_545 S
N373 Co363 2.128 1_565 S
N373 C374 1.355 1_565 S
N373 C376 1.311 . S
C374 N373 1.355 1_545 S
C374 C375 1.363 1_545 S
C374 H386 0.929 . S
C375 C374 1.363 1_565 S
C375 N377 1.375 . S
C375 H393 0.931 . S
C376 N373 1.311 . S
C376 N377 1.347 . S
C376 H387 0.929 . S
N377 C375 1.375 . S
N377 C376 1.347 . S
C378 C381 1.365 . S
C378 N383 1.328 . S
C378 H384 0.929 . S
C379 C380 1.362 . S
C379 C382 1.378 . S
C379 H394 0.929 . S
C380 C379 1.362 . S
C380 C381 1.366 . S
C381 C378 1.365 . S
C381 C380 1.366 . S
C381 H395 0.930 . S
C382 C379 1.378 . S
C382 N383 1.315 . S
C382 H385 0.930 . S
N383 Co363 2.194 . S
N383 C378 1.328 . S
N383 C382 1.315 . S
H384 C378 0.929 . S
H385 C382 0.930 . S
H386 C374 0.929 . S
H387 C376 0.929 . S
O388 Co363 2.351 . S
O388 C391 1.241 1_545 S
O389 Co363 2.155 1_565 S
O389 C391 1.242 . S
O390 Co363 2.096 1_565 S
O390 C371 1.247 . S
C391 O388 1.241 1_565 S
C391 O389 1.242 . S
H392 C366 0.931 . S
H393 C375 0.931 . S
H394 C379 0.929 . S
H395 C381 0.930 . S
Co396 N400 2.148 . S
Co396 N406 2.128 . S
Co396 N416 2.194 . S
Co396 O421 2.351 . S
Co396 O422 2.155 . S
Co396 O423 2.096 . S
C397 N400 1.301 . S
C397 N401 1.328 . S
C397 H402 0.930 . S
C398 C399 1.333 . S
C398 N400 1.317 . S
C398 H403 0.930 . S
C399 C398 1.333 . S
C399 N401 1.350 . S
C399 H425 0.931 . S
N400 Co396 2.148 . S
N400 C397 1.301 . S
N400 C398 1.317 . S
N401 C397 1.328 . S
N401 C399 1.350 . S
H402 C397 0.930 . S
H403 C398 0.930 . S
C404 O405 1.224 . S
C404 O423 1.247 . S
O405 C404 1.224 . S
N406 Co396 2.128 . S
N406 C407 1.355 . S
N406 C409 1.311 . S
C407 N406 1.355 . S
C407 C408 1.363 . S
C407 H419 0.929 . S
C408 C407 1.363 . S
C408 N410 1.375 . S
C408 H426 0.931 . S
C409 N406 1.311 . S
C409 N410 1.347 . S
C409 H420 0.929 . S
N410 C408 1.375 . S
N410 C409 1.347 . S
C411 C414 1.365 . S
C411 N416 1.328 . S
C411 H417 0.929 . S
C412 C413 1.362 . S
C412 C415 1.378 . S
C412 H427 0.929 . S
C413 C412 1.362 . S
C413 C414 1.366 . S
C414 C411 1.365 . S
C414 C413 1.366 . S
C414 H428 0.930 . S
C415 C412 1.378 . S
C415 N416 1.315 . S
C415 H418 0.930 . S
N416 Co396 2.194 . S
N416 C411 1.328 . S
N416 C415 1.315 . S
H417 C411 0.929 . S
H418 C415 0.930 . S
H419 C407 0.929 . S
H420 C409 0.929 . S
O421 Co396 2.351 . S
O421 C424 1.244 . S
O422 Co396 2.155 . S
O422 C424 1.240 . S
O423 Co396 2.096 . S
O423 C404 1.247 . S
C424 O421 1.244 . S
C424 O422 1.240 . S
H425 C399 0.931 . S
H426 C408 0.931 . S
H427 C412 0.929 . S
H428 C414 0.930 . S
Co429 N433 2.148 . S
Co429 N439 2.128 1_565 S
Co429 N449 2.194 . S
Co429 O454 2.351 . S
Co429 O455 2.155 1_565 S
Co429 O456 2.096 1_565 S
C430 N433 1.301 . S
C430 N434 1.328 . S
C430 H435 0.930 . S
C431 C432 1.333 . S
C431 N433 1.317 . S
C431 H436 0.930 . S
C432 C431 1.333 . S
C432 N434 1.350 . S
C432 H458 0.931 . S
N433 Co429 2.148 . S
N433 C430 1.301 . S
N433 C431 1.317 . S
N434 C430 1.328 . S
N434 C432 1.350 . S
H435 C430 0.930 . S
H436 C431 0.930 . S
C437 O438 1.224 1_545 S
C437 O456 1.247 . S
O438 C437 1.224 1_565 S
N439 Co429 2.128 1_545 S
N439 C440 1.355 1_545 S
N439 C442 1.311 . S
C440 N439 1.355 1_565 S
C440 C441 1.363 1_565 S
C440 H452 0.929 . S
C441 C440 1.363 1_545 S
C441 N443 1.375 . S
C441 H459 0.931 . S
C442 N439 1.311 . S
C442 N443 1.347 . S
C442 H453 0.929 . S
N443 C441 1.375 . S
N443 C442 1.347 . S
C444 C447 1.365 . S
C444 N449 1.328 . S
C444 H450 0.929 . S
C445 C446 1.362 . S
C445 C448 1.378 . S
C445 H460 0.929 . S
C446 C445 1.362 . S
C446 C447 1.366 . S
C447 C444 1.365 . S
C447 C446 1.366 . S
C447 H461 0.930 . S
C448 C445 1.378 . S
C448 N449 1.315 . S
C448 H451 0.930 . S
N449 Co429 2.194 . S
N449 C444 1.328 . S
N449 C448 1.315 . S
H450 C444 0.929 . S
H451 C448 0.930 . S
H452 C440 0.929 . S
H453 C442 0.929 . S
O454 Co429 2.351 . S
O454 C457 1.241 1_565 S
O455 Co429 2.155 1_545 S
O455 C457 1.242 . S
O456 Co429 2.096 1_545 S
O456 C437 1.247 . S
C457 O454 1.241 1_545 S
C457 O455 1.242 . S
H458 C432 0.931 . S
H459 C441 0.931 . S
H460 C445 0.929 . S
H461 C447 0.930 . S
Co462 N466 2.148 . S
Co462 N472 2.128 . S
Co462 N482 2.194 . S
Co462 O487 2.351 . S
Co462 O488 2.155 . S
Co462 O489 2.096 . S
C463 N466 1.301 . S
C463 N467 1.328 . S
C463 H468 0.930 . S
C464 C465 1.333 . S
C464 N466 1.317 . S
C464 H469 0.930 . S
C465 C464 1.333 . S
C465 N467 1.350 . S
C465 H491 0.931 . S
N466 Co462 2.148 . S
N466 C463 1.301 . S
N466 C464 1.317 . S
N467 C463 1.328 . S
N467 C465 1.350 . S
H468 C463 0.930 . S
H469 C464 0.930 . S
C470 O471 1.224 . S
C470 O489 1.247 . S
O471 C470 1.224 . S
N472 Co462 2.128 . S
N472 C473 1.355 . S
N472 C475 1.311 . S
C473 N472 1.355 . S
C473 C474 1.363 . S
C473 H485 0.929 . S
C474 C473 1.363 . S
C474 N476 1.375 . S
C474 H492 0.931 . S
C475 N472 1.311 . S
C475 N476 1.347 . S
C475 H486 0.929 . S
N476 C474 1.375 . S
N476 C475 1.347 . S
C477 C480 1.365 . S
C477 N482 1.328 . S
C477 H483 0.929 . S
C478 C479 1.362 . S
C478 C481 1.378 . S
C478 H493 0.929 . S
C479 C478 1.362 . S
C479 C480 1.366 . S
C480 C477 1.365 . S
C480 C479 1.366 . S
C480 H494 0.930 . S
C481 C478 1.378 . S
C481 N482 1.315 . S
C481 H484 0.930 . S
N482 Co462 2.194 . S
N482 C477 1.328 . S
N482 C481 1.315 . S
H483 C477 0.929 . S
H484 C481 0.930 . S
H485 C473 0.929 . S
H486 C475 0.929 . S
O487 Co462 2.351 . S
O487 C490 1.244 . S
O488 Co462 2.155 . S
O488 C490 1.240 . S
O489 Co462 2.096 . S
O489 C470 1.247 . S
C490 O487 1.244 . S
C490 O488 1.240 . S
H491 C465 0.931 . S
H492 C474 0.931 . S
H493 C478 0.929 . S
H494 C480 0.930 . S
Co495 N499 2.148 1_455 S
Co495 N505 2.128 1_545 S
Co495 N515 2.194 . S
Co495 O520 2.351 . S
Co495 O521 2.155 1_545 S
Co495 O522 2.096 1_545 S
C496 N499 1.301 . S
C496 N500 1.328 . S
C496 H501 0.930 . S
C497 C498 1.333 . S
C497 N499 1.317 . S
C497 H502 0.930 . S
C498 C497 1.333 . S
C498 N500 1.350 . S
C498 H524 0.931 . S
N499 Co495 2.148 1_655 S
N499 C496 1.301 . S
N499 C497 1.317 . S
N500 C496 1.328 . S
N500 C498 1.350 . S
H501 C496 0.930 . S
H502 C497 0.930 . S
C503 O504 1.224 1_565 S
C503 O522 1.247 . S
O504 C503 1.224 1_545 S
N505 Co495 2.128 1_565 S
N505 C506 1.355 1_565 S
N505 C508 1.311 . S
C506 N505 1.355 1_545 S
C506 C507 1.363 1_545 S
C506 H518 0.929 . S
C507 C506 1.363 1_565 S
C507 N509 1.375 . S
C507 H525 0.931 . S
C508 N505 1.311 . S
C508 N509 1.347 . S
C508 H519 0.929 . S
N509 C507 1.375 . S
N509 C508 1.347 . S
C510 C513 1.365 . S
C510 N515 1.328 . S
C510 H516 0.929 . S
C511 C512 1.362 . S
C511 C514 1.378 . S
C511 H526 0.929 . S
C512 C511 1.362 . S
C512 C513 1.366 . S
C513 C510 1.365 . S
C513 C512 1.366 . S
C513 H527 0.930 . S
C514 C511 1.378 . S
C514 N515 1.315 . S
C514 H517 0.930 . S
N515 Co495 2.194 . S
N515 C510 1.328 . S
N515 C514 1.315 . S
H516 C510 0.929 . S
H517 C514 0.930 . S
H518 C506 0.929 . S
H519 C508 0.929 . S
O520 Co495 2.351 . S
O520 C523 1.241 1_545 S
O521 Co495 2.155 1_565 S
O521 C523 1.242 . S
O522 Co495 2.096 1_565 S
O522 C503 1.247 . S
C523 O520 1.241 1_565 S
C523 O521 1.242 . S
H524 C498 0.931 . S
H525 C507 0.931 . S
H526 C511 0.929 . S
H527 C513 0.930 . S
Co528 N532 2.148 . S
Co528 N538 2.128 . S
Co528 N548 2.194 . S
Co528 O553 2.351 . S
Co528 O554 2.155 . S
Co528 O555 2.096 . S
C529 N532 1.301 . S
C529 N533 1.328 . S
C529 H534 0.930 . S
C530 C531 1.333 . S
C530 N532 1.317 . S
C530 H535 0.930 . S
C531 C530 1.333 . S
C531 N533 1.350 . S
C531 H557 0.931 . S
N532 Co528 2.148 . S
N532 C529 1.301 . S
N532 C530 1.317 . S
N533 C529 1.328 . S
N533 C531 1.350 . S
H534 C529 0.930 . S
H535 C530 0.930 . S
C536 O537 1.224 . S
C536 O555 1.247 . S
O537 C536 1.224 . S
N538 Co528 2.128 . S
N538 C539 1.355 . S
N538 C541 1.311 . S
C539 N538 1.355 . S
C539 C540 1.363 . S
C539 H551 0.929 . S
C540 C539 1.363 . S
C540 N542 1.375 . S
C540 H558 0.931 . S
C541 N538 1.311 . S
C541 N542 1.347 . S
C541 H552 0.929 . S
N542 C540 1.375 . S
N542 C541 1.347 . S
C543 C546 1.365 . S
C543 N548 1.328 . S
C543 H549 0.929 . S
C544 C545 1.362 . S
C544 C547 1.378 . S
C544 H559 0.929 . S
C545 C544 1.362 . S
C545 C546 1.366 . S
C546 C543 1.365 . S
C546 C545 1.366 . S
C546 H560 0.930 . S
C547 C544 1.378 . S
C547 N548 1.315 . S
C547 H550 0.930 . S
N548 Co528 2.194 . S
N548 C543 1.328 . S
N548 C547 1.315 . S
H549 C543 0.929 . S
H550 C547 0.930 . S
H551 C539 0.929 . S
H552 C541 0.929 . S
O553 Co528 2.351 . S
O553 C556 1.244 . S
O554 Co528 2.155 . S
O554 C556 1.240 . S
O555 Co528 2.096 . S
O555 C536 1.247 . S
C556 O553 1.244 . S
C556 O554 1.240 . S
H557 C531 0.931 . S
H558 C540 0.931 . S
H559 C544 0.929 . S
H560 C546 0.930 . S
Co561 N565 2.148 . S
Co561 N571 2.128 . S
Co561 N581 2.194 . S
Co561 O586 2.351 . S
Co561 O587 2.155 . S
Co561 O588 2.096 . S
C562 N565 1.301 . S
C562 N566 1.328 . S
C562 H567 0.930 . S
C563 C564 1.333 . S
C563 N565 1.317 . S
C563 H568 0.930 . S
C564 C563 1.333 . S
C564 N566 1.350 . S
C564 H590 0.931 . S
N565 Co561 2.148 . S
N565 C562 1.301 . S
N565 C563 1.317 . S
N566 C562 1.328 . S
N566 C564 1.350 . S
H567 C562 0.930 . S
H568 C563 0.930 . S
C569 O570 1.224 . S
C569 O588 1.247 . S
O570 C569 1.224 . S
N571 Co561 2.128 . S
N571 C572 1.355 . S
N571 C574 1.311 . S
C572 N571 1.355 . S
C572 C573 1.363 . S
C572 H584 0.929 . S
C573 C572 1.363 . S
C573 N575 1.375 . S
C573 H591 0.931 . S
C574 N571 1.311 . S
C574 N575 1.347 . S
C574 H585 0.929 . S
N575 C573 1.375 . S
N575 C574 1.347 . S
C576 C579 1.365 . S
C576 N581 1.328 . S
C576 H582 0.929 . S
C577 C578 1.362 . S
C577 C580 1.378 . S
C577 H592 0.929 . S
C578 C577 1.362 . S
C578 C579 1.366 . S
C579 C576 1.365 . S
C579 C578 1.366 . S
C579 H593 0.930 . S
C580 C577 1.378 . S
C580 N581 1.315 . S
C580 H583 0.930 . S
N581 Co561 2.194 . S
N581 C576 1.328 . S
N581 C580 1.315 . S
H582 C576 0.929 . S
H583 C580 0.930 . S
H584 C572 0.929 . S
H585 C574 0.929 . S
O586 Co561 2.351 . S
O586 C589 1.244 . S
O587 Co561 2.155 . S
O587 C589 1.240 . S
O588 Co561 2.096 . S
O588 C569 1.247 . S
C589 O586 1.244 . S
C589 O587 1.240 . S
H590 C564 0.931 . S
H591 C573 0.931 . S
H592 C577 0.929 . S
H593 C579 0.930 . S
Co594 N598 2.148 . S
Co594 N604 2.128 . S
Co594 N614 2.194 . S
Co594 O619 2.351 . S
Co594 O620 2.155 . S
Co594 O621 2.096 . S
C595 N598 1.301 . S
C595 N599 1.328 . S
C595 H600 0.930 . S
C596 C597 1.333 . S
C596 N598 1.317 . S
C596 H601 0.930 . S
C597 C596 1.333 . S
C597 N599 1.350 . S
C597 H623 0.931 . S
N598 Co594 2.148 . S
N598 C595 1.301 . S
N598 C596 1.317 . S
N599 C595 1.328 . S
N599 C597 1.350 . S
H600 C595 0.930 . S
H601 C596 0.930 . S
C602 O603 1.224 . S
C602 O621 1.247 . S
O603 C602 1.224 . S
N604 Co594 2.128 . S
N604 C605 1.355 . S
N604 C607 1.311 . S
C605 N604 1.355 . S
C605 C606 1.363 . S
C605 H617 0.929 . S
C606 C605 1.363 . S
C606 N608 1.375 . S
C606 H624 0.931 . S
C607 N604 1.311 . S
C607 N608 1.347 . S
C607 H618 0.929 . S
N608 C606 1.375 . S
N608 C607 1.347 . S
C609 C612 1.365 . S
C609 N614 1.328 . S
C609 H615 0.929 . S
C610 C611 1.362 . S
C610 C613 1.378 . S
C610 H625 0.929 . S
C611 C610 1.362 . S
C611 C612 1.366 . S
C612 C609 1.365 . S
C612 C611 1.366 . S
C612 H626 0.930 . S
C613 C610 1.378 . S
C613 N614 1.315 . S
C613 H616 0.930 . S
N614 Co594 2.194 . S
N614 C609 1.328 . S
N614 C613 1.315 . S
H615 C609 0.929 . S
H616 C613 0.930 . S
H617 C605 0.929 . S
H618 C607 0.929 . S
O619 Co594 2.351 . S
O619 C622 1.244 . S
O620 Co594 2.155 . S
O620 C622 1.240 . S
O621 Co594 2.096 . S
O621 C602 1.247 . S
C622 O619 1.244 . S
C622 O620 1.240 . S
H623 C597 0.931 . S
H624 C606 0.931 . S
H625 C610 0.929 . S
H626 C612 0.930 . S
Co627 N631 2.148 1_455 S
Co627 N637 2.128 . S
Co627 N647 2.194 . S
Co627 O652 2.351 . S
Co627 O653 2.155 . S
Co627 O654 2.096 . S
C628 N631 1.301 . S
C628 N632 1.328 . S
C628 H633 0.930 . S
C629 C630 1.333 . S
C629 N631 1.317 . S
C629 H634 0.930 . S
C630 C629 1.333 . S
C630 N632 1.350 . S
C630 H656 0.931 . S
N631 Co627 2.148 1_655 S
N631 C628 1.301 . S
N631 C629 1.317 . S
N632 C628 1.328 . S
N632 C630 1.350 . S
H633 C628 0.930 . S
H634 C629 0.930 . S
C635 O636 1.224 . S
C635 O654 1.247 . S
O636 C635 1.224 . S
N637 Co627 2.128 . S
N637 C638 1.355 . S
N637 C640 1.311 . S
C638 N637 1.355 . S
C638 C639 1.363 . S
C638 H650 0.929 . S
C639 C638 1.363 . S
C639 N641 1.375 . S
C639 H657 0.931 . S
C640 N637 1.311 . S
C640 N641 1.347 . S
C640 H651 0.929 . S
N641 C639 1.375 . S
N641 C640 1.347 . S
C642 C645 1.365 . S
C642 N647 1.328 . S
C642 H648 0.929 . S
C643 C644 1.362 . S
C643 C646 1.378 . S
C643 H658 0.929 . S
C644 C643 1.362 . S
C644 C645 1.366 . S
C645 C642 1.365 . S
C645 C644 1.366 . S
C645 H659 0.930 . S
C646 C643 1.378 . S
C646 N647 1.315 . S
C646 H649 0.930 . S
N647 Co627 2.194 . S
N647 C642 1.328 . S
N647 C646 1.315 . S
H648 C642 0.929 . S
H649 C646 0.930 . S
H650 C638 0.929 . S
H651 C640 0.929 . S
O652 Co627 2.351 . S
O652 C655 1.244 . S
O653 Co627 2.155 . S
O653 C655 1.240 . S
O654 Co627 2.096 . S
O654 C635 1.247 . S
C655 O652 1.244 . S
C655 O653 1.240 . S
H656 C630 0.931 . S
H657 C639 0.931 . S
H658 C643 0.929 . S
H659 C645 0.930 . S
Co660 N664 2.148 . S
Co660 N670 2.128 . S
Co660 N680 2.194 . S
Co660 O685 2.351 . S
Co660 O686 2.155 . S
Co660 O687 2.096 . S
C661 N664 1.301 . S
C661 N665 1.328 . S
C661 H666 0.930 . S
C662 C663 1.333 . S
C662 N664 1.317 . S
C662 H667 0.930 . S
C663 C662 1.333 . S
C663 N665 1.350 . S
C663 H689 0.931 . S
N664 Co660 2.148 . S
N664 C661 1.301 . S
N664 C662 1.317 . S
N665 C661 1.328 . S
N665 C663 1.350 . S
H666 C661 0.930 . S
H667 C662 0.930 . S
C668 O669 1.224 . S
C668 O687 1.247 . S
O669 C668 1.224 . S
N670 Co660 2.128 . S
N670 C671 1.355 . S
N670 C673 1.311 . S
C671 N670 1.355 . S
C671 C672 1.363 . S
C671 H683 0.929 . S
C672 C671 1.363 . S
C672 N674 1.375 . S
C672 H690 0.931 . S
C673 N670 1.311 . S
C673 N674 1.347 . S
C673 H684 0.929 . S
N674 C672 1.375 . S
N674 C673 1.347 . S
C675 C678 1.365 . S
C675 N680 1.328 . S
C675 H681 0.929 . S
C676 C677 1.362 . S
C676 C679 1.378 . S
C676 H691 0.929 . S
C677 C676 1.362 . S
C677 C678 1.366 . S
C678 C675 1.365 . S
C678 C677 1.366 . S
C678 H692 0.930 . S
C679 C676 1.378 . S
C679 N680 1.315 . S
C679 H682 0.930 . S
N680 Co660 2.194 . S
N680 C675 1.328 . S
N680 C679 1.315 . S
H681 C675 0.929 . S
H682 C679 0.930 . S
H683 C671 0.929 . S
H684 C673 0.929 . S
O685 Co660 2.351 . S
O685 C688 1.244 . S
O686 Co660 2.155 . S
O686 C688 1.240 . S
O687 Co660 2.096 . S
O687 C668 1.247 . S
C688 O685 1.244 . S
C688 O686 1.240 . S
H689 C663 0.931 . S
H690 C672 0.931 . S
H691 C676 0.929 . S
H692 C678 0.930 . S
Co693 N697 2.148 1_455 S
Co693 N703 2.128 . S
Co693 N713 2.194 . S
Co693 O718 2.351 . S
Co693 O719 2.155 . S
Co693 O720 2.096 . S
C694 N697 1.301 . S
C694 N698 1.328 . S
C694 H699 0.930 . S
C695 C696 1.333 . S
C695 N697 1.317 . S
C695 H700 0.930 . S
C696 C695 1.333 . S
C696 N698 1.350 . S
C696 H722 0.931 . S
N697 Co693 2.148 1_655 S
N697 C694 1.301 . S
N697 C695 1.317 . S
N698 C694 1.328 . S
N698 C696 1.350 . S
H699 C694 0.930 . S
H700 C695 0.930 . S
C701 O702 1.224 . S
C701 O720 1.247 . S
O702 C701 1.224 . S
N703 Co693 2.128 . S
N703 C704 1.355 . S
N703 C706 1.311 . S
C704 N703 1.355 . S
C704 C705 1.363 . S
C704 H716 0.929 . S
C705 C704 1.363 . S
C705 N707 1.375 . S
C705 H723 0.931 . S
C706 N703 1.311 . S
C706 N707 1.347 . S
C706 H717 0.929 . S
N707 C705 1.375 . S
N707 C706 1.347 . S
C708 C711 1.365 . S
C708 N713 1.328 . S
C708 H714 0.929 . S
C709 C710 1.362 . S
C709 C712 1.378 . S
C709 H724 0.929 . S
C710 C709 1.362 . S
C710 C711 1.366 . S
C711 C708 1.365 . S
C711 C710 1.366 . S
C711 H725 0.930 . S
C712 C709 1.378 . S
C712 N713 1.315 . S
C712 H715 0.930 . S
N713 Co693 2.194 . S
N713 C708 1.328 . S
N713 C712 1.315 . S
H714 C708 0.929 . S
H715 C712 0.930 . S
H716 C704 0.929 . S
H717 C706 0.929 . S
O718 Co693 2.351 . S
O718 C721 1.244 . S
O719 Co693 2.155 . S
O719 C721 1.240 . S
O720 Co693 2.096 . S
O720 C701 1.247 . S
C721 O718 1.244 . S
C721 O719 1.240 . S
H722 C696 0.931 . S
H723 C705 0.931 . S
H724 C709 0.929 . S
H725 C711 0.930 . S
Co726 N730 2.148 . S
Co726 N736 2.128 . S
Co726 N746 2.194 . S
Co726 O751 2.351 . S
Co726 O752 2.155 . S
Co726 O753 2.096 . S
C727 N730 1.301 . S
C727 N731 1.328 . S
C727 H732 0.930 . S
C728 C729 1.333 . S
C728 N730 1.317 . S
C728 H733 0.930 . S
C729 C728 1.333 . S
C729 N731 1.350 . S
C729 H755 0.931 . S
N730 Co726 2.148 . S
N730 C727 1.301 . S
N730 C728 1.317 . S
N731 C727 1.328 . S
N731 C729 1.350 . S
H732 C727 0.930 . S
H733 C728 0.930 . S
C734 O735 1.224 . S
C734 O753 1.247 . S
O735 C734 1.224 . S
N736 Co726 2.128 . S
N736 C737 1.355 . S
N736 C739 1.311 . S
C737 N736 1.355 . S
C737 C738 1.363 . S
C737 H749 0.929 . S
C738 C737 1.363 . S
C738 N740 1.375 . S
C738 H756 0.931 . S
C739 N736 1.311 . S
C739 N740 1.347 . S
C739 H750 0.929 . S
N740 C738 1.375 . S
N740 C739 1.347 . S
C741 C744 1.365 . S
C741 N746 1.328 . S
C741 H747 0.929 . S
C742 C743 1.362 . S
C742 C745 1.378 . S
C742 H757 0.929 . S
C743 C742 1.362 . S
C743 C744 1.366 . S
C744 C741 1.365 . S
C744 C743 1.366 . S
C744 H758 0.930 . S
C745 C742 1.378 . S
C745 N746 1.315 . S
C745 H748 0.930 . S
N746 Co726 2.194 . S
N746 C741 1.328 . S
N746 C745 1.315 . S
H747 C741 0.929 . S
H748 C745 0.930 . S
H749 C737 0.929 . S
H750 C739 0.929 . S
O751 Co726 2.351 . S
O751 C754 1.244 . S
O752 Co726 2.155 . S
O752 C754 1.240 . S
O753 Co726 2.096 . S
O753 C734 1.247 . S
C754 O751 1.244 . S
C754 O752 1.240 . S
H755 C729 0.931 . S
H756 C738 0.931 . S
H757 C742 0.929 . S
H758 C744 0.930 . S
Co759 N763 2.148 . S
Co759 N769 2.128 . S
Co759 N779 2.194 . S
Co759 O784 2.351 . S
Co759 O785 2.155 . S
Co759 O786 2.096 . S
C760 N763 1.301 . S
C760 N764 1.328 . S
C760 H765 0.930 . S
C761 C762 1.333 . S
C761 N763 1.317 . S
C761 H766 0.930 . S
C762 C761 1.333 . S
C762 N764 1.350 . S
C762 H788 0.931 . S
N763 Co759 2.148 . S
N763 C760 1.301 . S
N763 C761 1.317 . S
N764 C760 1.328 . S
N764 C762 1.350 . S
H765 C760 0.930 . S
H766 C761 0.930 . S
C767 O768 1.224 . S
C767 O786 1.247 . S
O768 C767 1.224 . S
N769 Co759 2.128 . S
N769 C770 1.355 . S
N769 C772 1.311 . S
C770 N769 1.355 . S
C770 C771 1.363 . S
C770 H782 0.929 . S
C771 C770 1.363 . S
C771 N773 1.375 . S
C771 H789 0.931 . S
C772 N769 1.311 . S
C772 N773 1.347 . S
C772 H783 0.929 . S
N773 C771 1.375 . S
N773 C772 1.347 . S
C774 C777 1.365 . S
C774 N779 1.328 . S
C774 H780 0.929 . S
C775 C776 1.362 . S
C775 C778 1.378 . S
C775 H790 0.929 . S
C776 C775 1.362 . S
C776 C777 1.366 . S
C777 C774 1.365 . S
C777 C776 1.366 . S
C777 H791 0.930 . S
C778 C775 1.378 . S
C778 N779 1.315 . S
C778 H781 0.930 . S
N779 Co759 2.194 . S
N779 C774 1.328 . S
N779 C778 1.315 . S
H780 C774 0.929 . S
H781 C778 0.930 . S
H782 C770 0.929 . S
H783 C772 0.929 . S
O784 Co759 2.351 . S
O784 C787 1.244 . S
O785 Co759 2.155 . S
O785 C787 1.240 . S
O786 Co759 2.096 . S
O786 C767 1.247 . S
C787 O784 1.244 . S
C787 O785 1.240 . S
H788 C762 0.931 . S
H789 C771 0.931 . S
H790 C775 0.929 . S
H791 C777 0.930 . S
Co792 N796 2.148 . S
Co792 N802 2.128 . S
Co792 N812 2.194 . S
Co792 O817 2.351 . S
Co792 O818 2.155 . S
Co792 O819 2.096 . S
C793 N796 1.301 . S
C793 N797 1.328 . S
C793 H798 0.930 . S
C794 C795 1.333 . S
C794 N796 1.317 . S
C794 H799 0.930 . S
C795 C794 1.333 . S
C795 N797 1.350 . S
C795 H821 0.931 . S
N796 Co792 2.148 . S
N796 C793 1.301 . S
N796 C794 1.317 . S
N797 C793 1.328 . S
N797 C795 1.350 . S
H798 C793 0.930 . S
H799 C794 0.930 . S
C800 O801 1.224 . S
C800 O819 1.247 . S
O801 C800 1.224 . S
N802 Co792 2.128 . S
N802 C803 1.355 . S
N802 C805 1.311 . S
C803 N802 1.355 . S
C803 C804 1.363 . S
C803 H815 0.929 . S
C804 C803 1.363 . S
C804 N806 1.375 . S
C804 H822 0.931 . S
C805 N802 1.311 . S
C805 N806 1.347 . S
C805 H816 0.929 . S
N806 C804 1.375 . S
N806 C805 1.347 . S
C807 C810 1.365 . S
C807 N812 1.328 . S
C807 H813 0.929 . S
C808 C809 1.362 . S
C808 C811 1.378 . S
C808 H823 0.929 . S
C809 C808 1.362 . S
C809 C810 1.366 . S
C810 C807 1.365 . S
C810 C809 1.366 . S
C810 H824 0.930 . S
C811 C808 1.378 . S
C811 N812 1.315 . S
C811 H814 0.930 . S
N812 Co792 2.194 . S
N812 C807 1.328 . S
N812 C811 1.315 . S
H813 C807 0.929 . S
H814 C811 0.930 . S
H815 C803 0.929 . S
H816 C805 0.929 . S
O817 Co792 2.351 . S
O817 C820 1.244 . S
O818 Co792 2.155 . S
O818 C820 1.240 . S
O819 Co792 2.096 . S
O819 C800 1.247 . S
C820 O817 1.244 . S
C820 O818 1.240 . S
H821 C795 0.931 . S
H822 C804 0.931 . S
H823 C808 0.929 . S
H824 C810 0.930 . S
Co825 N829 2.148 . S
Co825 N835 2.128 . S
Co825 N845 2.194 . S
Co825 O850 2.351 . S
Co825 O851 2.155 . S
Co825 O852 2.096 . S
C826 N829 1.301 . S
C826 N830 1.328 . S
C826 H831 0.930 . S
C827 C828 1.333 . S
C827 N829 1.317 . S
C827 H832 0.930 . S
C828 C827 1.333 . S
C828 N830 1.350 . S
C828 H854 0.931 . S
N829 Co825 2.148 . S
N829 C826 1.301 . S
N829 C827 1.317 . S
N830 C826 1.328 . S
N830 C828 1.350 . S
H831 C826 0.930 . S
H832 C827 0.930 . S
C833 O834 1.224 . S
C833 O852 1.247 . S
O834 C833 1.224 . S
N835 Co825 2.128 . S
N835 C836 1.355 . S
N835 C838 1.311 . S
C836 N835 1.355 . S
C836 C837 1.363 . S
C836 H848 0.929 . S
C837 C836 1.363 . S
C837 N839 1.375 . S
C837 H855 0.931 . S
C838 N835 1.311 . S
C838 N839 1.347 . S
C838 H849 0.929 . S
N839 C837 1.375 . S
N839 C838 1.347 . S
C840 C843 1.365 . S
C840 N845 1.328 . S
C840 H846 0.929 . S
C841 C842 1.362 . S
C841 C844 1.378 . S
C841 H856 0.929 . S
C842 C841 1.362 . S
C842 C843 1.366 . S
C843 C840 1.365 . S
C843 C842 1.366 . S
C843 H857 0.930 . S
C844 C841 1.378 . S
C844 N845 1.315 . S
C844 H847 0.930 . S
N845 Co825 2.194 . S
N845 C840 1.328 . S
N845 C844 1.315 . S
H846 C840 0.929 . S
H847 C844 0.930 . S
H848 C836 0.929 . S
H849 C838 0.929 . S
O850 Co825 2.351 . S
O850 C853 1.244 . S
O851 Co825 2.155 . S
O851 C853 1.240 . S
O852 Co825 2.096 . S
O852 C833 1.247 . S
C853 O850 1.244 . S
C853 O851 1.240 . S
H854 C828 0.931 . S
H855 C837 0.931 . S
H856 C841 0.929 . S
H857 C843 0.930 . S
Co858 N862 2.148 . S
Co858 N868 2.128 . S
Co858 N878 2.194 . S
Co858 O883 2.351 . S
Co858 O884 2.155 . S
Co858 O885 2.096 . S
C859 N862 1.301 . S
C859 N863 1.328 . S
C859 H864 0.930 . S
C860 C861 1.333 . S
C860 N862 1.317 . S
C860 H865 0.930 . S
C861 C860 1.333 . S
C861 N863 1.350 . S
C861 H887 0.931 . S
N862 Co858 2.148 . S
N862 C859 1.301 . S
N862 C860 1.317 . S
N863 C859 1.328 . S
N863 C861 1.350 . S
H864 C859 0.930 . S
H865 C860 0.930 . S
C866 O867 1.224 . S
C866 O885 1.247 . S
O867 C866 1.224 . S
N868 Co858 2.128 . S
N868 C869 1.355 . S
N868 C871 1.311 . S
C869 N868 1.355 . S
C869 C870 1.363 . S
C869 H881 0.929 . S
C870 C869 1.363 . S
C870 N872 1.375 . S
C870 H888 0.931 . S
C871 N868 1.311 . S
C871 N872 1.347 . S
C871 H882 0.929 . S
N872 C870 1.375 . S
N872 C871 1.347 . S
C873 C876 1.365 . S
C873 N878 1.328 . S
C873 H879 0.929 . S
C874 C875 1.362 . S
C874 C877 1.378 . S
C874 H889 0.929 . S
C875 C874 1.362 . S
C875 C876 1.366 . S
C876 C873 1.365 . S
C876 C875 1.366 . S
C876 H890 0.930 . S
C877 C874 1.378 . S
C877 N878 1.315 . S
C877 H880 0.930 . S
N878 Co858 2.194 . S
N878 C873 1.328 . S
N878 C877 1.315 . S
H879 C873 0.929 . S
H880 C877 0.930 . S
H881 C869 0.929 . S
H882 C871 0.929 . S
O883 Co858 2.351 . S
O883 C886 1.244 . S
O884 Co858 2.155 . S
O884 C886 1.240 . S
O885 Co858 2.096 . S
O885 C866 1.247 . S
C886 O883 1.244 . S
C886 O884 1.240 . S
H887 C861 0.931 . S
H888 C870 0.931 . S
H889 C874 0.929 . S
H890 C876 0.930 . S
Co891 N895 2.148 1_655 S
Co891 N901 2.128 . S
Co891 N911 2.194 . S
Co891 O916 2.351 . S
Co891 O917 2.155 . S
Co891 O918 2.096 . S
C892 N895 1.301 . S
C892 N896 1.328 . S
C892 H897 0.930 . S
C893 C894 1.333 . S
C893 N895 1.317 . S
C893 H898 0.930 . S
C894 C893 1.333 . S
C894 N896 1.350 . S
C894 H920 0.931 . S
N895 Co891 2.148 1_455 S
N895 C892 1.301 . S
N895 C893 1.317 . S
N896 C892 1.328 . S
N896 C894 1.350 . S
H897 C892 0.930 . S
H898 C893 0.930 . S
C899 O900 1.224 . S
C899 O918 1.247 . S
O900 C899 1.224 . S
N901 Co891 2.128 . S
N901 C902 1.355 . S
N901 C904 1.311 . S
C902 N901 1.355 . S
C902 C903 1.363 . S
C902 H914 0.929 . S
C903 C902 1.363 . S
C903 N905 1.375 . S
C903 H921 0.931 . S
C904 N901 1.311 . S
C904 N905 1.347 . S
C904 H915 0.929 . S
N905 C903 1.375 . S
N905 C904 1.347 . S
C906 C909 1.365 . S
C906 N911 1.328 . S
C906 H912 0.929 . S
C907 C908 1.362 . S
C907 C910 1.378 . S
C907 H922 0.929 . S
C908 C907 1.362 . S
C908 C909 1.366 . S
C909 C906 1.365 . S
C909 C908 1.366 . S
C909 H923 0.930 . S
C910 C907 1.378 . S
C910 N911 1.315 . S
C910 H913 0.930 . S
N911 Co891 2.194 . S
N911 C906 1.328 . S
N911 C910 1.315 . S
H912 C906 0.929 . S
H913 C910 0.930 . S
H914 C902 0.929 . S
H915 C904 0.929 . S
O916 Co891 2.351 . S
O916 C919 1.244 . S
O917 Co891 2.155 . S
O917 C919 1.240 . S
O918 Co891 2.096 . S
O918 C899 1.247 . S
C919 O916 1.244 . S
C919 O917 1.240 . S
H920 C894 0.931 . S
H921 C903 0.931 . S
H922 C907 0.929 . S
H923 C909 0.930 . S
Co924 N928 2.148 . S
Co924 N934 2.128 . S
Co924 N944 2.194 . S
Co924 O949 2.351 . S
Co924 O950 2.155 . S
Co924 O951 2.096 . S
C925 N928 1.301 . S
C925 N929 1.328 . S
C925 H930 0.930 . S
C926 C927 1.333 . S
C926 N928 1.317 . S
C926 H931 0.930 . S
C927 C926 1.333 . S
C927 N929 1.350 . S
C927 H953 0.931 . S
N928 Co924 2.148 . S
N928 C925 1.301 . S
N928 C926 1.317 . S
N929 C925 1.328 . S
N929 C927 1.350 . S
H930 C925 0.930 . S
H931 C926 0.930 . S
C932 O933 1.224 . S
C932 O951 1.247 . S
O933 C932 1.224 . S
N934 Co924 2.128 . S
N934 C935 1.355 . S
N934 C937 1.311 . S
C935 N934 1.355 . S
C935 C936 1.363 . S
C935 H947 0.929 . S
C936 C935 1.363 . S
C936 N938 1.375 . S
C936 H954 0.931 . S
C937 N934 1.311 . S
C937 N938 1.347 . S
C937 H948 0.929 . S
N938 C936 1.375 . S
N938 C937 1.347 . S
C939 C942 1.365 . S
C939 N944 1.328 . S
C939 H945 0.929 . S
C940 C941 1.362 . S
C940 C943 1.378 . S
C940 H955 0.929 . S
C941 C940 1.362 . S
C941 C942 1.366 . S
C942 C939 1.365 . S
C942 C941 1.366 . S
C942 H956 0.930 . S
C943 C940 1.378 . S
C943 N944 1.315 . S
C943 H946 0.930 . S
N944 Co924 2.194 . S
N944 C939 1.328 . S
N944 C943 1.315 . S
H945 C939 0.929 . S
H946 C943 0.930 . S
H947 C935 0.929 . S
H948 C937 0.929 . S
O949 Co924 2.351 . S
O949 C952 1.244 . S
O950 Co924 2.155 . S
O950 C952 1.240 . S
O951 Co924 2.096 . S
O951 C932 1.247 . S
C952 O949 1.244 . S
C952 O950 1.240 . S
H953 C927 0.931 . S
H954 C936 0.931 . S
H955 C940 0.929 . S
H956 C942 0.930 . S
Co957 N961 2.148 1_655 S
Co957 N967 2.128 . S
Co957 N977 2.194 . S
Co957 O982 2.351 . S
Co957 O983 2.155 . S
Co957 O984 2.096 . S
C958 N961 1.301 . S
C958 N962 1.328 . S
C958 H963 0.930 . S
C959 C960 1.333 . S
C959 N961 1.317 . S
C959 H964 0.930 . S
C960 C959 1.333 . S
C960 N962 1.350 . S
C960 H986 0.931 . S
N961 Co957 2.148 1_455 S
N961 C958 1.301 . S
N961 C959 1.317 . S
N962 C958 1.328 . S
N962 C960 1.350 . S
H963 C958 0.930 . S
H964 C959 0.930 . S
C965 O966 1.224 . S
C965 O984 1.247 . S
O966 C965 1.224 . S
N967 Co957 2.128 . S
N967 C968 1.355 . S
N967 C970 1.311 . S
C968 N967 1.355 . S
C968 C969 1.363 . S
C968 H980 0.929 . S
C969 C968 1.363 . S
C969 N971 1.375 . S
C969 H987 0.931 . S
C970 N967 1.311 . S
C970 N971 1.347 . S
C970 H981 0.929 . S
N971 C969 1.375 . S
N971 C970 1.347 . S
C972 C975 1.365 . S
C972 N977 1.328 . S
C972 H978 0.929 . S
C973 C974 1.362 . S
C973 C976 1.378 . S
C973 H988 0.929 . S
C974 C973 1.362 . S
C974 C975 1.366 . S
C975 C972 1.365 . S
C975 C974 1.366 . S
C975 H989 0.930 . S
C976 C973 1.378 . S
C976 N977 1.315 . S
C976 H979 0.930 . S
N977 Co957 2.194 . S
N977 C972 1.328 . S
N977 C976 1.315 . S
H978 C972 0.929 . S
H979 C976 0.930 . S
H980 C968 0.929 . S
H981 C970 0.929 . S
O982 Co957 2.351 . S
O982 C985 1.244 . S
O983 Co957 2.155 . S
O983 C985 1.240 . S
O984 Co957 2.096 . S
O984 C965 1.247 . S
C985 O982 1.244 . S
C985 O983 1.240 . S
H986 C960 0.931 . S
H987 C969 0.931 . S
H988 C973 0.929 . S
H989 C975 0.930 . S
Co990 N994 2.148 . S
Co990 N1000 2.128 . S
Co990 N1010 2.194 . S
Co990 O1015 2.351 . S
Co990 O1016 2.155 . S
Co990 O1017 2.096 . S
C991 N994 1.301 . S
C991 N995 1.328 . S
C991 H996 0.930 . S
C992 C993 1.333 . S
C992 N994 1.317 . S
C992 H997 0.930 . S
C993 C992 1.333 . S
C993 N995 1.350 . S
C993 H1019 0.931 . S
N994 Co990 2.148 . S
N994 C991 1.301 . S
N994 C992 1.317 . S
N995 C991 1.328 . S
N995 C993 1.350 . S
H996 C991 0.930 . S
H997 C992 0.930 . S
C998 O999 1.224 . S
C998 O1017 1.247 . S
O999 C998 1.224 . S
N1000 Co990 2.128 . S
N1000 C1001 1.355 . S
N1000 C1003 1.311 . S
C1001 N1000 1.355 . S
C1001 C1002 1.363 . S
C1001 H1013 0.929 . S
C1002 C1001 1.363 . S
C1002 N1004 1.375 . S
C1002 H1020 0.931 . S
C1003 N1000 1.311 . S
C1003 N1004 1.347 . S
C1003 H1014 0.929 . S
N1004 C1002 1.375 . S
N1004 C1003 1.347 . S
C1005 C1008 1.365 . S
C1005 N1010 1.328 . S
C1005 H1011 0.929 . S
C1006 C1007 1.362 . S
C1006 C1009 1.378 . S
C1006 H1021 0.929 . S
C1007 C1006 1.362 . S
C1007 C1008 1.366 . S
C1008 C1005 1.365 . S
C1008 C1007 1.366 . S
C1008 H1022 0.930 . S
C1009 C1006 1.378 . S
C1009 N1010 1.315 . S
C1009 H1012 0.930 . S
N1010 Co990 2.194 . S
N1010 C1005 1.328 . S
N1010 C1009 1.315 . S
H1011 C1005 0.929 . S
H1012 C1009 0.930 . S
H1013 C1001 0.929 . S
H1014 C1003 0.929 . S
O1015 Co990 2.351 . S
O1015 C1018 1.244 . S
O1016 Co990 2.155 . S
O1016 C1018 1.240 . S
O1017 Co990 2.096 . S
O1017 C998 1.247 . S
C1018 O1015 1.244 . S
C1018 O1016 1.240 . S
H1019 C993 0.931 . S
H1020 C1002 0.931 . S
H1021 C1006 0.929 . S
H1022 C1008 0.930 . S
Co1023 N1027 2.148 . S
Co1023 N1033 2.128 . S
Co1023 N1043 2.194 . S
Co1023 O1048 2.351 . S
Co1023 O1049 2.155 . S
Co1023 O1050 2.096 . S
C1024 N1027 1.301 . S
C1024 N1028 1.328 . S
C1024 H1029 0.930 . S
C1025 C1026 1.333 . S
C1025 N1027 1.317 . S
C1025 H1030 0.930 . S
C1026 C1025 1.333 . S
C1026 N1028 1.350 . S
C1026 H1052 0.931 . S
N1027 Co1023 2.148 . S
N1027 C1024 1.301 . S
N1027 C1025 1.317 . S
N1028 C1024 1.328 . S
N1028 C1026 1.350 . S
H1029 C1024 0.930 . S
H1030 C1025 0.930 . S
C1031 O1032 1.224 . S
C1031 O1050 1.247 . S
O1032 C1031 1.224 . S
N1033 Co1023 2.128 . S
N1033 C1034 1.355 . S
N1033 C1036 1.311 . S
C1034 N1033 1.355 . S
C1034 C1035 1.363 . S
C1034 H1046 0.929 . S
C1035 C1034 1.363 . S
C1035 N1037 1.375 . S
C1035 H1053 0.931 . S
C1036 N1033 1.311 . S
C1036 N1037 1.347 . S
C1036 H1047 0.929 . S
N1037 C1035 1.375 . S
N1037 C1036 1.347 . S
C1038 C1041 1.365 . S
C1038 N1043 1.328 . S
C1038 H1044 0.929 . S
C1039 C1040 1.362 . S
C1039 C1042 1.378 . S
C1039 H1054 0.929 . S
C1040 C1039 1.362 . S
C1040 C1041 1.366 . S
C1041 C1038 1.365 . S
C1041 C1040 1.366 . S
C1041 H1055 0.930 . S
C1042 C1039 1.378 . S
C1042 N1043 1.315 . S
C1042 H1045 0.930 . S
N1043 Co1023 2.194 . S
N1043 C1038 1.328 . S
N1043 C1042 1.315 . S
H1044 C1038 0.929 . S
H1045 C1042 0.930 . S
H1046 C1034 0.929 . S
H1047 C1036 0.929 . S
O1048 Co1023 2.351 . S
O1048 C1051 1.244 . S
O1049 Co1023 2.155 . S
O1049 C1051 1.240 . S
O1050 Co1023 2.096 . S
O1050 C1031 1.247 . S
C1051 O1048 1.244 . S
C1051 O1049 1.240 . S
H1052 C1026 0.931 . S
H1053 C1035 0.931 . S
H1054 C1039 0.929 . S
H1055 C1041 0.930 . S
C28 C820 1.686 . S
C325 C61 1.686 1_445 S
C886 C94 1.686 . S
C391 C127 1.686 1_564 S
C952 C160 1.686 . S
C457 C193 1.686 1_545 S
C1018 C226 1.686 . S
C523 C259 1.686 1_466 S
C292 C556 1.686 . S
C358 C622 1.686 . S
C424 C688 1.686 . S
C754 C490 1.686 . S
C589 C853 1.686 1_556 S
C919 C655 1.686 1_655 S
C721 C985 1.686 1_454 S
C1051 C787 1.686 . S
N5 C380 1.252 . S
N38 C809 1.252 . S
C314 N71 1.252 . S
N104 C875 1.252 . S
C446 N137 1.252 . S
C1007 N170 1.252 . S
N203 C512 1.252 . S
C941 N236 1.252 . S
N269 C116 1.252 . S
N302 C545 1.252 . S
C50 N335 1.252 . S
N368 C611 1.252 . S
N401 C182 1.252 . S
C743 N434 1.252 . S
C248 N467 1.252 . S
N500 C677 1.252 . S
C908 N533 1.252 . S
C281 N566 1.252 . S
C842 N599 1.252 . S
N632 C347 1.252 . S
C974 N665 1.252 . S
C479 N698 1.252 . S
N731 C1040 1.252 . S
C413 N764 1.252 . S
C644 N797 1.252 . S
N830 C17 1.252 . S
N863 C578 1.252 . S
C83 N896 1.252 . S
C710 N929 1.252 . S
N962 C215 1.252 . S
C776 N995 1.252 . S
C149 N1028 1.252 . S
C8 C206 1.301 1_554 S
C239 C41 1.301 1_545 S
C74 C140 1.301 . S
C107 C173 1.301 1_545 S
C470 C272 1.301 1_554 S
C503 C305 1.301 1_565 S
C404 C338 1.301 . S
C437 C371 1.301 1_545 S
C536 C734 1.301 . S
C569 C767 1.301 . S
C602 C668 1.301 1_554 S
C635 C701 1.301 . S
C998 C800 1.301 . S
C1031 C833 1.301 . S
C866 C932 1.301 1_556 S
C899 C965 1.301 . S
N14 N707 1.917 . S
N47 N740 1.917 . S
N80 N773 1.918 . S
N113 N674 1.917 . S
N641 N146 1.917 . S
N179 N542 1.918 . S
N575 N212 1.918 . S
N245 N608 1.917 . S
N971 N278 1.917 . S
N311 N1004 1.917 . S
N1037 N344 1.918 . S
N377 N938 1.917 . S
N410 N905 1.917 . S
N806 N443 1.918 . S
N476 N839 1.918 . S
N509 N872 1.917 . S
