# Generated by pormake.
# Topology uoa, (4)-cn, num edge types: 1
# Building blocks:
#     Node 0, Type 0, BuildingBlock: GALJAG_clean_sbu_0, # of connection points: 4
#     Node 1, Type 0, BuildingBlock: GALJAG_clean_sbu_0, # of connection points: 4
#     Node 2, Type 0, BuildingBlock: GALJAG_clean_sbu_0, # of connection points: 4
#     Node 3, Type 0, BuildingBlock: GALJAG_clean_sbu_0, # of connection points: 4
#     Node 4, Type 0, BuildingBlock: GALJAG_clean_sbu_0, # of connection points: 4
#     Node 5, Type 0, BuildingBlock: GALJAG_clean_sbu_0, # of connection points: 4
#     Node 6, Type 0, BuildingBlock: GALJAG_clean_sbu_0, # of connection points: 4
#     Node 7, Type 0, BuildingBlock: GALJAG_clean_sbu_0, # of connection points: 4
#     Node 8, Type 0, BuildingBlock: GALJAG_clean_sbu_0, # of connection points: 4
#     Node 9, Type 0, BuildingBlock: GALJAG_clean_sbu_0, # of connection points: 4
#     Node 10, Type 0, BuildingBlock: GALJAG_clean_sbu_0, # of connection points: 4
#     Node 11, Type 0, BuildingBlock: GALJAG_clean_sbu_0, # of connection points: 4
#     Node 12, Type 0, BuildingBlock: GALJAG_clean_sbu_0, # of connection points: 4
#     Node 13, Type 0, BuildingBlock: GALJAG_clean_sbu_0, # of connection points: 4
#     Node 14, Type 0, BuildingBlock: GALJAG_clean_sbu_0, # of connection points: 4
#     Node 15, Type 0, BuildingBlock: GALJAG_clean_sbu_0, # of connection points: 4
#     Node 16, Type 0, BuildingBlock: GALJAG_clean_sbu_0, # of connection points: 4
#     Node 17, Type 0, BuildingBlock: GALJAG_clean_sbu_0, # of connection points: 4
#     Node 18, Type 0, BuildingBlock: GALJAG_clean_sbu_0, # of connection points: 4
#     Node 19, Type 0, BuildingBlock: GALJAG_clean_sbu_0, # of connection points: 4
#     Node 20, Type 0, BuildingBlock: GALJAG_clean_sbu_0, # of connection points: 4
#     Node 21, Type 0, BuildingBlock: GALJAG_clean_sbu_0, # of connection points: 4
#     Node 22, Type 0, BuildingBlock: GALJAG_clean_sbu_0, # of connection points: 4
#     Node 23, Type 0, BuildingBlock: GALJAG_clean_sbu_0, # of connection points: 4
#     Node 24, Type 0, BuildingBlock: GALJAG_clean_sbu_0, # of connection points: 4
#     Node 25, Type 0, BuildingBlock: GALJAG_clean_sbu_0, # of connection points: 4
#     Node 26, Type 0, BuildingBlock: GALJAG_clean_sbu_0, # of connection points: 4
#     Node 27, Type 0, BuildingBlock: GALJAG_clean_sbu_0, # of connection points: 4
#     Node 28, Type 0, BuildingBlock: GALJAG_clean_sbu_0, # of connection points: 4
#     Node 29, Type 0, BuildingBlock: GALJAG_clean_sbu_0, # of connection points: 4
#     Node 30, Type 0, BuildingBlock: GALJAG_clean_sbu_0, # of connection points: 4
#     Node 31, Type 0, BuildingBlock: GALJAG_clean_sbu_0, # of connection points: 4
#     Edge 32, Type (0, 0), BuildingBlock: ZUJKAS_clean_linker_0, # of connection points: 2
#     Edge 33, Type (0, 0), BuildingBlock: ZUJKAS_clean_linker_0, # of connection points: 2
#     Edge 34, Type (0, 0), BuildingBlock: ZUJKAS_clean_linker_0, # of connection points: 2
#     Edge 35, Type (0, 0), BuildingBlock: ZUJKAS_clean_linker_0, # of connection points: 2
#     Edge 36, Type (0, 0), BuildingBlock: ZUJKAS_clean_linker_0, # of connection points: 2
#     Edge 37, Type (0, 0), BuildingBlock: ZUJKAS_clean_linker_0, # of connection points: 2
#     Edge 38, Type (0, 0), BuildingBlock: ZUJKAS_clean_linker_0, # of connection points: 2
#     Edge 39, Type (0, 0), BuildingBlock: ZUJKAS_clean_linker_0, # of connection points: 2
#     Edge 40, Type (0, 0), BuildingBlock: ZUJKAS_clean_linker_0, # of connection points: 2
#     Edge 41, Type (0, 0), BuildingBlock: ZUJKAS_clean_linker_0, # of connection points: 2
#     Edge 42, Type (0, 0), BuildingBlock: ZUJKAS_clean_linker_0, # of connection points: 2
#     Edge 43, Type (0, 0), BuildingBlock: ZUJKAS_clean_linker_0, # of connection points: 2
#     Edge 44, Type (0, 0), BuildingBlock: ZUJKAS_clean_linker_0, # of connection points: 2
#     Edge 45, Type (0, 0), BuildingBlock: ZUJKAS_clean_linker_0, # of connection points: 2
#     Edge 46, Type (0, 0), BuildingBlock: ZUJKAS_clean_linker_0, # of connection points: 2
#     Edge 47, Type (0, 0), BuildingBlock: ZUJKAS_clean_linker_0, # of connection points: 2
#     Edge 48, Type (0, 0), BuildingBlock: ZUJKAS_clean_linker_0, # of connection points: 2
#     Edge 49, Type (0, 0), BuildingBlock: ZUJKAS_clean_linker_0, # of connection points: 2
#     Edge 50, Type (0, 0), BuildingBlock: ZUJKAS_clean_linker_0, # of connection points: 2
#     Edge 51, Type (0, 0), BuildingBlock: ZUJKAS_clean_linker_0, # of connection points: 2
#     Edge 52, Type (0, 0), BuildingBlock: ZUJKAS_clean_linker_0, # of connection points: 2
#     Edge 53, Type (0, 0), BuildingBlock: ZUJKAS_clean_linker_0, # of connection points: 2
#     Edge 54, Type (0, 0), BuildingBlock: ZUJKAS_clean_linker_0, # of connection points: 2
#     Edge 55, Type (0, 0), BuildingBlock: ZUJKAS_clean_linker_0, # of connection points: 2
#     Edge 56, Type (0, 0), BuildingBlock: ZUJKAS_clean_linker_0, # of connection points: 2
#     Edge 57, Type (0, 0), BuildingBlock: ZUJKAS_clean_linker_0, # of connection points: 2
#     Edge 58, Type (0, 0), BuildingBlock: ZUJKAS_clean_linker_0, # of connection points: 2
#     Edge 59, Type (0, 0), BuildingBlock: ZUJKAS_clean_linker_0, # of connection points: 2
#     Edge 60, Type (0, 0), BuildingBlock: ZUJKAS_clean_linker_0, # of connection points: 2
#     Edge 61, Type (0, 0), BuildingBlock: ZUJKAS_clean_linker_0, # of connection points: 2
#     Edge 62, Type (0, 0), BuildingBlock: ZUJKAS_clean_linker_0, # of connection points: 2
#     Edge 63, Type (0, 0), BuildingBlock: ZUJKAS_clean_linker_0, # of connection points: 2
#     Edge 64, Type (0, 0), BuildingBlock: ZUJKAS_clean_linker_0, # of connection points: 2
#     Edge 65, Type (0, 0), BuildingBlock: ZUJKAS_clean_linker_0, # of connection points: 2
#     Edge 66, Type (0, 0), BuildingBlock: ZUJKAS_clean_linker_0, # of connection points: 2
#     Edge 67, Type (0, 0), BuildingBlock: ZUJKAS_clean_linker_0, # of connection points: 2
#     Edge 68, Type (0, 0), BuildingBlock: ZUJKAS_clean_linker_0, # of connection points: 2
#     Edge 69, Type (0, 0), BuildingBlock: ZUJKAS_clean_linker_0, # of connection points: 2
#     Edge 70, Type (0, 0), BuildingBlock: ZUJKAS_clean_linker_0, # of connection points: 2
#     Edge 71, Type (0, 0), BuildingBlock: ZUJKAS_clean_linker_0, # of connection points: 2
#     Edge 72, Type (0, 0), BuildingBlock: ZUJKAS_clean_linker_0, # of connection points: 2
#     Edge 73, Type (0, 0), BuildingBlock: ZUJKAS_clean_linker_0, # of connection points: 2
#     Edge 74, Type (0, 0), BuildingBlock: ZUJKAS_clean_linker_0, # of connection points: 2
#     Edge 75, Type (0, 0), BuildingBlock: ZUJKAS_clean_linker_0, # of connection points: 2
#     Edge 76, Type (0, 0), BuildingBlock: ZUJKAS_clean_linker_0, # of connection points: 2
#     Edge 77, Type (0, 0), BuildingBlock: ZUJKAS_clean_linker_0, # of connection points: 2
#     Edge 78, Type (0, 0), BuildingBlock: ZUJKAS_clean_linker_0, # of connection points: 2
#     Edge 79, Type (0, 0), BuildingBlock: ZUJKAS_clean_linker_0, # of connection points: 2
#     Edge 80, Type (0, 0), BuildingBlock: ZUJKAS_clean_linker_0, # of connection points: 2
#     Edge 81, Type (0, 0), BuildingBlock: ZUJKAS_clean_linker_0, # of connection points: 2
#     Edge 82, Type (0, 0), BuildingBlock: ZUJKAS_clean_linker_0, # of connection points: 2
#     Edge 83, Type (0, 0), BuildingBlock: ZUJKAS_clean_linker_0, # of connection points: 2
#     Edge 84, Type (0, 0), BuildingBlock: ZUJKAS_clean_linker_0, # of connection points: 2
#     Edge 85, Type (0, 0), BuildingBlock: ZUJKAS_clean_linker_0, # of connection points: 2
#     Edge 86, Type (0, 0), BuildingBlock: ZUJKAS_clean_linker_0, # of connection points: 2
#     Edge 87, Type (0, 0), BuildingBlock: ZUJKAS_clean_linker_0, # of connection points: 2
#     Edge 88, Type (0, 0), BuildingBlock: ZUJKAS_clean_linker_0, # of connection points: 2
#     Edge 89, Type (0, 0), BuildingBlock: ZUJKAS_clean_linker_0, # of connection points: 2
#     Edge 90, Type (0, 0), BuildingBlock: ZUJKAS_clean_linker_0, # of connection points: 2
#     Edge 91, Type (0, 0), BuildingBlock: ZUJKAS_clean_linker_0, # of connection points: 2
#     Edge 92, Type (0, 0), BuildingBlock: ZUJKAS_clean_linker_0, # of connection points: 2
#     Edge 93, Type (0, 0), BuildingBlock: ZUJKAS_clean_linker_0, # of connection points: 2
#     Edge 94, Type (0, 0), BuildingBlock: ZUJKAS_clean_linker_0, # of connection points: 2
#     Edge 95, Type (0, 0), BuildingBlock: ZUJKAS_clean_linker_0, # of connection points: 2
# Relax obj value: 0.050
# Max RMSD: 0.160
# Mean RMSD: 0.160
data_MOF--net-uoa--node1-GALJAG_clean_sbu_0--edge1-ZUJKAS_clean_linker_0
_symmetry_space_group_name_H-M    P1
_symmetry_Int_Tables_number       1
_symmetry_cell_setting            triclinic
loop_
_symmetry_equiv_pos_as_xyz
'x, y, z'
_cell_length_a     96.814837
_cell_length_b     96.823258
_cell_length_c     36.941293
_cell_angle_alpha  90.008707
_cell_angle_beta   90.014832
_cell_angle_gamma 89.984134
loop_
_atom_site_label
_atom_site_type_symbol
_atom_site_fract_x
_atom_site_fract_y
_atom_site_fract_z
_atom_type_partial_charge
In0 In 0.03245 0.09726 0.04755 0.0
O1 O 0.05554 0.09573 0.05965 0.0
O2 O 0.0463 0.11569 0.05702 0.0
C3 C 0.02573 0.07069 0.03557 0.0
C4 C 0.02108 0.10191 0.11311 0.0
C5 C 0.02664 0.10684 0.98065 0.0
O6 O 0.03815 0.0746 0.03829 0.0
O7 O 0.01687 0.08014 0.03909 0.0
O8 O 0.01837 0.10838 0.00686 0.0
O9 O 0.03781 0.10084 0.9886 0.0
C10 C 0.05708 0.10866 0.06248 0.0
O11 O 0.01779 0.10904 0.08571 0.0
O12 O 0.0298 0.09253 0.10701 0.0
In13 In 0.1508 0.77614 0.29507 0.0
O14 O 0.13748 0.7629 0.33302 0.0
O15 O 0.15776 0.76833 0.34988 0.0
C16 C 0.13839 0.77245 0.23018 0.0
C17 C 0.14253 0.80092 0.31947 0.0
C18 C 0.17718 0.77024 0.27822 0.0
O19 O 0.13977 0.76274 0.25269 0.0
O20 O 0.14287 0.78395 0.24089 0.0
O21 O 0.17339 0.7822 0.28763 0.0
O22 O 0.16767 0.76134 0.27727 0.0
C23 C 0.14656 0.76238 0.35758 0.0
O24 O 0.15417 0.79925 0.30462 0.0
O25 O 0.13512 0.79022 0.32113 0.0
In26 In 0.47144 0.90051 0.54313 0.0
O27 O 0.48464 0.88765 0.58273 0.0
O28 O 0.47068 0.90254 0.60398 0.0
C29 C 0.47805 0.8915 0.47627 0.0
C30 C 0.44531 0.89143 0.54809 0.0
C31 C 0.48067 0.92662 0.53793 0.0
O32 O 0.48431 0.88717 0.50415 0.0
O33 O 0.46865 0.9002 0.48246 0.0
O34 O 0.46798 0.92363 0.53735 0.0
O35 O 0.48871 0.91643 0.54128 0.0
C36 C 0.47952 0.89333 0.61053 0.0
O37 O 0.4483 0.90411 0.55 0.0
O38 O 0.45546 0.88346 0.54322 0.0
In39 In 0.3472 0.22432 0.78808 0.0
O40 O 0.36115 0.23757 0.82487 0.0
O41 O 0.34255 0.22945 0.84662 0.0
C42 C 0.35656 0.22941 0.72054 0.0
C43 C 0.3569 0.19893 0.80356 0.0
C44 C 0.32058 0.2311 0.77725 0.0
O45 O 0.3594 0.23728 0.74686 0.0
O46 O 0.34917 0.21914 0.72857 0.0
O47 O 0.32456 0.21875 0.78096 0.0
O48 O 0.33006 0.24005 0.77898 0.0
C49 C 0.35339 0.23632 0.85218 0.0
O50 O 0.34416 0.20168 0.80391 0.0
O51 O 0.36461 0.20888 0.79488 0.0
In52 In 0.0242 0.90199 0.4649 0.0
O53 O 0.0474 0.90519 0.45663 0.0
O54 O 0.03858 0.8858 0.44217 0.0
C55 C 0.01767 0.9283 0.48066 0.0
C56 C 0.01126 0.89784 0.40119 0.0
C57 C 0.01963 0.89014 0.53004 0.0
O58 O 0.02983 0.92467 0.4726 0.0
O59 O 0.00891 0.91866 0.48077 0.0
O60 O 0.01046 0.89058 0.50573 0.0
O61 O 0.03108 0.89523 0.52096 0.0
C62 C 0.04925 0.89326 0.44359 0.0
O63 O 0.01106 0.8889 0.42613 0.0
O64 O 0.01761 0.90881 0.40895 0.0
In65 In 0.34932 0.77371 0.71369 0.0
O66 O 0.36381 0.76187 0.67499 0.0
O67 O 0.34294 0.76493 0.65945 0.0
C68 C 0.36054 0.76921 0.77954 0.0
C69 C 0.35701 0.79908 0.69224 0.0
C70 C 0.32297 0.76826 0.73137 0.0
O71 O 0.3599 0.75984 0.75578 0.0
O72 O 0.35584 0.78075 0.76967 0.0
O73 O 0.32718 0.78037 0.72501 0.0
O74 O 0.33208 0.75898 0.72906 0.0
C75 C 0.35461 0.76018 0.65114 0.0
O76 O 0.3445 0.79543 0.69323 0.0
O77 O 0.36553 0.78999 0.70228 0.0
In78 In 0.4723 0.09326 0.96601 0.0
O79 O 0.48666 0.10544 0.92797 0.0
O80 O 0.47475 0.08892 0.90635 0.0
C81 C 0.47821 0.10296 0.03265 0.0
C82 C 0.44747 0.10433 0.95181 0.0
C83 C 0.47895 0.06663 0.97757 0.0
O84 O 0.48662 0.10408 0.0066 0.0
O85 O 0.4669 0.09725 0.02471 0.0
O86 O 0.46656 0.07069 0.97605 0.0
O87 O 0.48786 0.07598 0.97316 0.0
C88 C 0.48332 0.09844 0.90038 0.0
O89 O 0.44929 0.09141 0.95338 0.0
O90 O 0.45809 0.11152 0.95805 0.0
In91 In 0.15223 0.23085 0.20347 0.0
O92 O 0.15153 0.21377 0.16128 0.0
O93 O 0.15123 0.20778 0.21659 0.0
C94 C 0.17919 0.236 0.21658 0.0
C95 C 0.14198 0.24347 0.14391 0.0
C96 C 0.13866 0.23768 0.2653 0.0
O97 O 0.17422 0.22396 0.21744 0.0
O98 O 0.17058 0.24534 0.20923 0.0
O99 O 0.13622 0.22676 0.24797 0.0
O100 O 0.14737 0.2455 0.25043 0.0
C101 C 0.15078 0.20404 0.18386 0.0
O102 O 0.15461 0.24336 0.15207 0.0
O103 O 0.13421 0.23769 0.16682 0.0
In104 In 0.96886 0.90675 0.96169 0.0
O105 O 0.9829 0.89329 0.92581 0.0
O106 O 0.9707 0.90894 0.90111 0.0
C107 C 0.97387 0.8982 0.02975 0.0
C108 C 0.94298 0.89761 0.95091 0.0
C109 C 0.97846 0.93269 0.96859 0.0
O110 O 0.98061 0.89355 0.00304 0.0
O111 O 0.96468 0.90692 0.02182 0.0
O112 O 0.9657 0.92999 0.96729 0.0
O113 O 0.98631 0.92232 0.96621 0.0
C114 C 0.97929 0.8993 0.8969 0.0
O115 O 0.94609 0.91024 0.94826 0.0
O116 O 0.95285 0.88976 0.95958 0.0
In117 In 0.8489 0.22587 0.7149 0.0
O118 O 0.84309 0.20446 0.69303 0.0
O119 O 0.86342 0.20757 0.71305 0.0
C120 C 0.82122 0.22751 0.72329 0.0
C121 C 0.85883 0.24088 0.65848 0.0
C122 C 0.85947 0.23316 0.77987 0.0
O123 O 0.82953 0.22836 0.74945 0.0
O124 O 0.82683 0.22555 0.69292 0.0
O125 O 0.85616 0.24206 0.75636 0.0
O126 O 0.85767 0.22081 0.77022 0.0
C127 C 0.85489 0.19938 0.69877 0.0
O128 O 0.84803 0.24416 0.67542 0.0
O129 O 0.86506 0.2306 0.67139 0.0
In130 In 0.53218 0.09245 0.46639 0.0
O131 O 0.51859 0.10547 0.42813 0.0
O132 O 0.52887 0.08781 0.40714 0.0
C133 C 0.52645 0.10278 0.53251 0.0
C134 C 0.55765 0.10169 0.45133 0.0
C135 C 0.52509 0.06606 0.47948 0.0
O136 O 0.51797 0.10364 0.50655 0.0
O137 O 0.53776 0.09706 0.5247 0.0
O138 O 0.53753 0.06992 0.4778 0.0
O139 O 0.51631 0.0755 0.47454 0.0
C140 C 0.52111 0.09796 0.40088 0.0
O141 O 0.55483 0.08897 0.45247 0.0
O142 O 0.54769 0.10967 0.45841 0.0
In143 In 0.65017 0.7807 0.20333 0.0
O144 O 0.63674 0.76782 0.16457 0.0
O145 O 0.65589 0.77569 0.14542 0.0
C146 C 0.63964 0.77541 0.26957 0.0
C147 C 0.64064 0.80605 0.1876 0.0
C148 C 0.67653 0.77354 0.21623 0.0
O149 O 0.63909 0.76667 0.24418 0.0
O150 O 0.64516 0.78674 0.26115 0.0
O151 O 0.673 0.78589 0.21017 0.0
O152 O 0.66677 0.7649 0.2158 0.0
C153 C 0.64508 0.76895 0.13841 0.0
O154 O 0.65325 0.80388 0.19438 0.0
O155 O 0.633 0.7955 0.18913 0.0
In156 In 0.97114 0.09602 0.54794 0.0
O157 O 0.94788 0.0939 0.55615 0.0
O158 O 0.95669 0.11408 0.55647 0.0
C159 C 0.97822 0.06938 0.53863 0.0
C160 C 0.98197 0.10159 0.61374 0.0
C161 C 0.97705 0.10527 0.48077 0.0
O162 O 0.96582 0.07315 0.54249 0.0
O163 O 0.98696 0.07904 0.53952 0.0
O164 O 0.98525 0.10701 0.50704 0.0
O165 O 0.96596 0.09917 0.48873 0.0
C166 C 0.94595 0.10675 0.55937 0.0
O167 O 0.98533 0.10845 0.58596 0.0
O168 O 0.97339 0.09205 0.60796 0.0
In169 In 0.65469 0.21869 0.28645 0.0
O170 O 0.64218 0.2331 0.32384 0.0
O171 O 0.65678 0.21934 0.34723 0.0
C172 C 0.64523 0.22402 0.21926 0.0
C173 C 0.6461 0.19259 0.29622 0.0
C174 C 0.68078 0.2279 0.27983 0.0
O175 O 0.64071 0.23042 0.24667 0.0
O176 O 0.65433 0.21507 0.22603 0.0
O177 O 0.6778 0.21521 0.28044 0.0
O178 O 0.67057 0.23595 0.2824 0.0
C179 C 0.64784 0.22858 0.35236 0.0
O180 O 0.65872 0.19586 0.29691 0.0
O181 O 0.63789 0.20245 0.29 0.0
In182 In 0.52091 0.89784 0.04614 0.0
O183 O 0.50343 0.89411 0.087 0.0
O184 O 0.52138 0.88186 0.0919 0.0
C185 C 0.51114 0.88654 0.98394 0.0
C186 C 0.54832 0.89623 0.05797 0.0
C187 C 0.5172 0.9253 0.03827 0.0
O188 O 0.50361 0.89347 0.00505 0.0
O189 O 0.52331 0.88485 0.99497 0.0
O190 O 0.52296 0.91799 0.01437 0.0
O191 O 0.51361 0.91881 0.06631 0.0
C192 C 0.50979 0.88503 0.10483 0.0
O193 O 0.54096 0.90551 0.07228 0.0
O194 O 0.54188 0.88807 0.03738 0.0
In195 In 0.84585 0.7783 0.78253 0.0
O196 O 0.85829 0.76438 0.82134 0.0
O197 O 0.84044 0.77467 0.84119 0.0
C198 C 0.85714 0.77308 0.71715 0.0
C199 C 0.8552 0.80358 0.79945 0.0
C200 C 0.81955 0.77149 0.76694 0.0
O201 O 0.85707 0.76417 0.74216 0.0
O202 O 0.85182 0.78453 0.72552 0.0
O203 O 0.82342 0.78388 0.77014 0.0
O204 O 0.82893 0.76262 0.77152 0.0
C205 C 0.85046 0.76679 0.84802 0.0
O206 O 0.84246 0.80102 0.79606 0.0
O207 O 0.86313 0.79344 0.7938 0.0
In208 In 0.52453 0.59509 0.52596 0.0
O209 O 0.54719 0.59195 0.54141 0.0
O210 O 0.53994 0.61244 0.53254 0.0
C211 C 0.51689 0.56864 0.51672 0.0
C212 C 0.51302 0.60198 0.58999 0.0
C213 C 0.5193 0.60381 0.45802 0.0
O214 O 0.52942 0.57218 0.51944 0.0
O215 O 0.50832 0.57844 0.51859 0.0
O216 O 0.51085 0.60574 0.48363 0.0
O217 O 0.53034 0.5978 0.46702 0.0
C218 C 0.54991 0.60472 0.54116 0.0
O219 O 0.51183 0.60964 0.56244 0.0
O220 O 0.51963 0.59096 0.58469 0.0
In221 In 0.65351 0.27375 0.78847 0.0
O222 O 0.65778 0.29601 0.80579 0.0
O223 O 0.63692 0.28987 0.79716 0.0
C224 C 0.67961 0.26577 0.77485 0.0
C225 C 0.64707 0.26149 0.85195 0.0
C226 C 0.64354 0.26954 0.72124 0.0
O227 O 0.67648 0.2782 0.78135 0.0
O228 O 0.66958 0.25743 0.77531 0.0
O229 O 0.64191 0.2608 0.74634 0.0
O230 O 0.64987 0.28037 0.73043 0.0
C231 C 0.64517 0.29935 0.80628 0.0
O232 O 0.63887 0.26129 0.82531 0.0
O233 O 0.6584 0.26743 0.84595 0.0
In234 In 0.96808 0.40353 0.03475 0.0
O235 O 0.98203 0.39125 0.07377 0.0
O236 O 0.96734 0.4053 0.09561 0.0
C237 C 0.97516 0.39513 0.96772 0.0
C238 C 0.94239 0.39343 0.0406 0.0
C239 C 0.97642 0.42998 0.03023 0.0
O240 O 0.98199 0.39152 0.99537 0.0
O241 O 0.96484 0.40266 0.97424 0.0
O242 O 0.96382 0.4266 0.02931 0.0
O243 O 0.98473 0.42003 0.03355 0.0
C244 C 0.97674 0.39661 0.10178 0.0
O245 O 0.94487 0.40624 0.04144 0.0
O246 O 0.95285 0.3858 0.03619 0.0
In247 In 0.8429 0.72255 0.28607 0.0
O248 O 0.8573 0.73555 0.32229 0.0
O249 O 0.83872 0.72762 0.34475 0.0
C250 C 0.85271 0.72708 0.21876 0.0
C251 C 0.85128 0.69688 0.30272 0.0
C252 C 0.81665 0.73051 0.2743 0.0
O253 O 0.854 0.73589 0.24381 0.0
O254 O 0.84677 0.71605 0.22799 0.0
O255 O 0.82 0.71798 0.27796 0.0
O256 O 0.82654 0.73895 0.27648 0.0
C257 C 0.84964 0.73443 0.34985 0.0
O258 O 0.83866 0.70021 0.30221 0.0
O259 O 0.85955 0.70644 0.29433 0.0
In260 In 0.53043 0.40187 0.96405 0.0
O261 O 0.5535 0.40477 0.9543 0.0
O262 O 0.54612 0.38451 0.96574 0.0
C263 C 0.52208 0.42841 0.96494 0.0
C264 C 0.52058 0.3935 0.89922 0.0
C265 C 0.52415 0.39418 0.03233 0.0
O266 O 0.53468 0.42505 0.96629 0.0
O267 O 0.51378 0.41841 0.96285 0.0
O268 O 0.51906 0.38811 0.00508 0.0
O269 O 0.53232 0.4039 0.02488 0.0
C270 C 0.55632 0.39212 0.95817 0.0
O271 O 0.51432 0.39082 0.92843 0.0
O272 O 0.53159 0.40026 0.90301 0.0
In273 In 0.84768 0.27656 0.21719 0.0
O274 O 0.84259 0.29819 0.1967 0.0
O275 O 0.8636 0.29335 0.20814 0.0
C276 C 0.82141 0.2701 0.23326 0.0
C277 C 0.85383 0.264 0.15376 0.0
C278 C 0.8584 0.27175 0.28352 0.0
O279 O 0.82539 0.28243 0.22925 0.0
O280 O 0.8307 0.26107 0.22922 0.0
O281 O 0.85864 0.26273 0.25878 0.0
O282 O 0.85312 0.28313 0.27435 0.0
C283 C 0.855 0.3022 0.19707 0.0
O284 O 0.86261 0.26506 0.17894 0.0
O285 O 0.8421 0.2688 0.16126 0.0
In286 In 0.966 0.5955 0.46488 0.0
O287 O 0.94301 0.59228 0.45444 0.0
O288 O 0.95048 0.61288 0.46037 0.0
C289 C 0.9745 0.56928 0.47431 0.0
C290 C 0.97564 0.6017 0.39832 0.0
C291 C 0.97232 0.60503 0.53139 0.0
O292 O 0.96186 0.57255 0.47405 0.0
O293 O 0.98274 0.57921 0.46969 0.0
O294 O 0.98003 0.60728 0.50436 0.0
O295 O 0.96148 0.59832 0.52449 0.0
C296 C 0.94028 0.60505 0.45449 0.0
O297 O 0.97934 0.60846 0.42599 0.0
O298 O 0.96736 0.59195 0.40463 0.0
In299 In 0.6523 0.72259 0.70244 0.0
O300 O 0.65464 0.69952 0.69117 0.0
O301 O 0.63437 0.70771 0.69715 0.0
C302 C 0.67884 0.73029 0.71014 0.0
C303 C 0.64616 0.73345 0.63713 0.0
C304 C 0.6435 0.72843 0.76995 0.0
O305 O 0.67522 0.71777 0.70843 0.0
O306 O 0.66907 0.73888 0.70789 0.0
O307 O 0.6397 0.73546 0.74284 0.0
O308 O 0.65148 0.71852 0.76271 0.0
C309 C 0.6418 0.69727 0.69089 0.0
O310 O 0.6399 0.73722 0.66553 0.0
O311 O 0.65541 0.7245 0.64208 0.0
In312 In 0.47053 0.40009 0.46488 0.0
O313 O 0.4843 0.38725 0.42668 0.0
O314 O 0.47385 0.40481 0.40561 0.0
C315 C 0.47703 0.39108 0.53186 0.0
C316 C 0.4458 0.38858 0.45154 0.0
C317 C 0.4766 0.42689 0.47546 0.0
O318 O 0.4854 0.39018 0.50568 0.0
O319 O 0.46545 0.39623 0.52394 0.0
O320 O 0.46428 0.42265 0.473 0.0
O321 O 0.4857 0.41763 0.47261 0.0
C322 C 0.48173 0.39472 0.39941 0.0
O323 O 0.44745 0.40153 0.45217 0.0
O324 O 0.45652 0.38161 0.45825 0.0
In325 In 0.34409 0.72122 0.2108 0.0
O326 O 0.34029 0.69875 0.19473 0.0
O327 O 0.36102 0.70538 0.20266 0.0
C328 C 0.3179 0.72961 0.22107 0.0
C329 C 0.35079 0.7334 0.14749 0.0
C330 C 0.35354 0.72544 0.27854 0.0
O331 O 0.32107 0.71704 0.21704 0.0
O332 O 0.32795 0.7379 0.22002 0.0
O333 O 0.35673 0.73333 0.25257 0.0
O334 O 0.34581 0.71547 0.27007 0.0
C335 C 0.35296 0.69567 0.19413 0.0
O336 O 0.35807 0.73498 0.17561 0.0
O337 O 0.34023 0.72599 0.15179 0.0
In338 In 0.02735 0.59641 0.96553 0.0
O339 O 0.0505 0.59414 0.95608 0.0
O340 O 0.042 0.61443 0.95926 0.0
C341 C 0.02036 0.56984 0.97619 0.0
C342 C 0.01739 0.60178 0.89876 0.0
C343 C 0.02061 0.60617 0.03157 0.0
O344 O 0.03279 0.57379 0.97536 0.0
O345 O 0.01156 0.57927 0.9715 0.0
O346 O 0.01268 0.60759 0.00462 0.0
O347 O 0.03187 0.60015 0.02481 0.0
C348 C 0.05259 0.60701 0.95465 0.0
O349 O 0.01344 0.60855 0.92617 0.0
O350 O 0.02606 0.5924 0.90542 0.0
In351 In 0.15141 0.27069 0.70263 0.0
O352 O 0.13606 0.25918 0.66579 0.0
O353 O 0.15645 0.26242 0.64663 0.0
C354 C 0.14084 0.2662 0.76929 0.0
C355 C 0.1436 0.29627 0.68271 0.0
C356 C 0.17792 0.2646 0.71748 0.0
O357 O 0.1401 0.25724 0.74447 0.0
O358 O 0.14674 0.27728 0.76022 0.0
O359 O 0.17376 0.27682 0.71256 0.0
O360 O 0.16868 0.25543 0.71495 0.0
C361 C 0.14455 0.2578 0.6401 0.0
O362 O 0.15606 0.29244 0.68177 0.0
O363 O 0.13524 0.28728 0.69408 0.0
In364 In 0.46753 0.59431 0.02123 0.0
O365 O 0.44446 0.59156 0.03193 0.0
O366 O 0.45246 0.61198 0.02777 0.0
C367 C 0.47582 0.56813 0.01024 0.0
C368 C 0.47789 0.59938 0.08771 0.0
C369 C 0.4732 0.60453 0.95506 0.0
O370 O 0.46322 0.57144 0.01192 0.0
O371 O 0.48418 0.57802 0.01423 0.0
O372 O 0.48002 0.60811 0.98274 0.0
O373 O 0.4636 0.59603 0.96112 0.0
C374 C 0.44208 0.60438 0.03325 0.0
O375 O 0.48216 0.60581 0.06007 0.0
O376 O 0.4687 0.59048 0.08141 0.0
In377 In 0.15436 0.72579 0.79947 0.0
O378 O 0.14043 0.73989 0.83396 0.0
O379 O 0.15802 0.73068 0.8585 0.0
C380 C 0.14554 0.73 0.73113 0.0
C381 C 0.1448 0.70045 0.81541 0.0
C382 C 0.18088 0.73317 0.79026 0.0
O383 O 0.14238 0.73811 0.75667 0.0
O384 O 0.15294 0.71987 0.74033 0.0
O385 O 0.1772 0.72076 0.79456 0.0
O386 O 0.17115 0.74186 0.79054 0.0
C387 C 0.14756 0.73828 0.86233 0.0
O388 O 0.15753 0.70325 0.81565 0.0
O389 O 0.13702 0.71035 0.80672 0.0
In390 In 0.03086 0.40424 0.53454 0.0
O391 O 0.01665 0.39241 0.57372 0.0
O392 O 0.03152 0.40633 0.59535 0.0
C393 C 0.02372 0.39579 0.46761 0.0
C394 C 0.05611 0.3931 0.54093 0.0
C395 C 0.02282 0.43075 0.52917 0.0
O396 O 0.01685 0.39231 0.4953 0.0
O397 O 0.0341 0.40326 0.47403 0.0
O398 O 0.03539 0.42727 0.52846 0.0
O399 O 0.01443 0.42089 0.53277 0.0
C400 C 0.02198 0.39781 0.60163 0.0
O401 O 0.05421 0.40602 0.5415 0.0
O402 O 0.04532 0.38596 0.53651 0.0
In403 In 0.35001 0.26819 0.29079 0.0
O404 O 0.36867 0.26312 0.32711 0.0
O405 O 0.34952 0.25347 0.33866 0.0
C406 C 0.36239 0.26132 0.22722 0.0
C407 C 0.35148 0.29457 0.3137 0.0
C408 C 0.32277 0.26391 0.27918 0.0
O409 O 0.35448 0.25326 0.24408 0.0
O410 O 0.36465 0.27255 0.2433 0.0
O411 O 0.32826 0.27564 0.27579 0.0
O412 O 0.33097 0.25446 0.28845 0.0
C413 C 0.36191 0.25527 0.34783 0.0
O414 O 0.35284 0.29125 0.28083 0.0
O415 O 0.34882 0.28463 0.33469 0.0
H416 H 0.00064 0.12142 0.63489 0.0
H417 H 0.00981 0.12525 0.69622 0.0
H418 H 0.9846 0.0919 0.73639 0.0
H419 H 0.97554 0.08796 0.67569 0.0
H420 H 0.99525 0.13091 0.76356 0.0
H421 H 0.02433 0.08159 0.76737 0.0
H422 H 0.018 0.08905 0.72576 0.0
H423 H 0.00652 0.07958 0.75487 0.0
C424 C 0.99708 0.11492 0.65685 0.0
C425 C 0.98747 0.10431 0.65042 0.0
C426 C 0.00229 0.11714 0.69181 0.0
C427 C 0.99801 0.10873 0.72067 0.0
C428 C 0.9882 0.09835 0.71437 0.0
H429 H 0.00146 0.11427 0.95298 0.0
H430 H 0.99534 0.1168 0.88896 0.0
C431 C 0.98302 0.09614 0.67964 0.0
C432 C 0.00382 0.11052 0.75749 0.0
H433 H 0.02097 0.09302 0.8238 0.0
C434 C 0.00102 0.12272 0.77669 0.0
C435 C 0.01148 0.09988 0.77434 0.0
C436 C 0.01539 0.08683 0.75444 0.0
C437 C 0.00526 0.12433 0.81288 0.0
C438 C 0.01229 0.11336 0.83031 0.0
C439 C 0.0155 0.10139 0.81057 0.0
C440 C 0.01619 0.11379 0.86919 0.0
C441 C 0.00218 0.13773 0.83206 0.0
C442 C 0.02992 0.11127 0.87944 0.0
C443 C 0.03339 0.10964 0.91588 0.0
C444 C 0.02319 0.11051 0.94286 0.0
C445 C 0.00955 0.11364 0.93279 0.0
C446 C 0.00606 0.11517 0.89621 0.0
H447 H 0.00069 0.14633 0.81253 0.0
H448 H 0.9925 0.13659 0.84784 0.0
H449 H 0.01062 0.14053 0.85105 0.0
H450 H 0.0379 0.11013 0.8591 0.0
H451 H 0.044 0.10727 0.92281 0.0
H452 H 0.12395 0.75231 0.8814 0.0
H453 H 0.1179 0.76116 0.94184 0.0
H454 H 0.15677 0.74626 0.98345 0.0
H455 H 0.16287 0.73752 0.92373 0.0
H456 H 0.1161 0.74568 0.00851 0.0
H457 H 0.15547 0.78701 0.01584 0.0
H458 H 0.15027 0.77916 0.97362 0.0
H459 H 0.16264 0.77069 0.00245 0.0
C460 C 0.13123 0.75106 0.90343 0.0
C461 C 0.14391 0.74429 0.89783 0.0
C462 C 0.12775 0.75607 0.93787 0.0
C463 C 0.13698 0.75451 0.96692 0.0
C464 C 0.14961 0.74778 0.96125 0.0
H465 H 0.13479 0.74799 0.19455 0.0
H466 H 0.13119 0.74484 0.12959 0.0
C467 C 0.15306 0.74275 0.92709 0.0
C468 C 0.13347 0.75945 0.00372 0.0
H469 H 0.14647 0.77891 0.07259 0.0
C470 C 0.12254 0.75315 0.02243 0.0
C471 C 0.14174 0.76935 0.02159 0.0
C472 C 0.1531 0.77705 0.00223 0.0
C473 C 0.12024 0.75586 0.05933 0.0
C474 C 0.12926 0.76492 0.07795 0.0
C475 C 0.13962 0.77186 0.05852 0.0
C476 C 0.12895 0.76665 0.11789 0.0
C477 C 0.10831 0.74885 0.07804 0.0
C478 C 0.12883 0.77994 0.13309 0.0
C479 C 0.13113 0.78177 0.17011 0.0
C480 C 0.13355 0.77033 0.19266 0.0
C481 C 0.13285 0.75699 0.17786 0.0
C482 C 0.1307 0.75517 0.14072 0.0
H483 H 0.09985 0.74653 0.05864 0.0
H484 H 0.11189 0.7389 0.08961 0.0
H485 H 0.10411 0.75531 0.10031 0.0
H486 H 0.12754 0.78895 0.11603 0.0
H487 H 0.13157 0.79218 0.18081 0.0
H488 H 0.52321 0.86755 0.15095 0.0
H489 H 0.51765 0.86309 0.21453 0.0
H490 H 0.48078 0.88781 0.20424 0.0
H491 H 0.48619 0.89216 0.14067 0.0
H492 H 0.5162 0.88378 0.26481 0.0
H493 H 0.46682 0.85511 0.26264 0.0
H494 H 0.47782 0.85654 0.22333 0.0
H495 H 0.46623 0.87037 0.23512 0.0
C496 C 0.51372 0.87171 0.16197 0.0
C497 C 0.50514 0.88022 0.14082 0.0
C498 C 0.51058 0.86919 0.19833 0.0
C499 C 0.49874 0.87501 0.21409 0.0
C500 C 0.48982 0.88296 0.19252 0.0
H501 H 0.46524 0.89941 0.41431 0.0
H502 H 0.47108 0.89314 0.35229 0.0
C503 C 0.49295 0.8855 0.15619 0.0
C504 C 0.49655 0.87424 0.25381 0.0
H505 H 0.47224 0.86713 0.31806 0.0
C506 C 0.50671 0.87987 0.27659 0.0
C507 C 0.48417 0.86915 0.26909 0.0
C508 C 0.4732 0.86232 0.24629 0.0
C509 C 0.50448 0.88133 0.31396 0.0
C510 C 0.49182 0.87682 0.32898 0.0
C511 C 0.48192 0.87061 0.30646 0.0
C512 C 0.48808 0.87979 0.36712 0.0
C513 C 0.51534 0.88841 0.33667 0.0
C514 C 0.49561 0.87421 0.3962 0.0
C515 C 0.49231 0.87784 0.43192 0.0
C516 C 0.48141 0.88706 0.43899 0.0
C517 C 0.47373 0.89233 0.4098 0.0
C518 C 0.47702 0.88872 0.3743 0.0
H519 H 0.52341 0.89342 0.31983 0.0
H520 H 0.51056 0.89637 0.35435 0.0
H521 H 0.52044 0.88067 0.35434 0.0
H522 H 0.50407 0.86715 0.39125 0.0
H523 H 0.49836 0.87356 0.45389 0.0
H524 H 0.38343 0.26569 0.38723 0.0
H525 H 0.38857 0.26088 0.45111 0.0
H526 H 0.3569 0.22958 0.45237 0.0
H527 H 0.35162 0.23443 0.38895 0.0
H528 H 0.36666 0.264 0.50485 0.0
H529 H 0.39011 0.21178 0.50762 0.0
H530 H 0.39052 0.22274 0.468 0.0
H531 H 0.37515 0.21322 0.47904 0.0
C532 C 0.37787 0.25749 0.40086 0.0
C533 C 0.36713 0.25042 0.38319 0.0
C534 C 0.38077 0.25481 0.43734 0.0
C535 C 0.37318 0.24481 0.45633 0.0
C536 C 0.36303 0.23718 0.43805 0.0
H537 H 0.34883 0.21539 0.66022 0.0
H538 H 0.35527 0.22002 0.59764 0.0
C539 C 0.35999 0.23999 0.40185 0.0
C540 C 0.37445 0.24346 0.49613 0.0
H541 H 0.37988 0.21975 0.5629 0.0
C542 C 0.36983 0.25445 0.51775 0.0
C543 C 0.37853 0.23097 0.51267 0.0
C544 C 0.38398 0.21903 0.4907 0.0
C545 C 0.36827 0.25295 0.55536 0.0
C546 C 0.3718 0.24021 0.57182 0.0
C547 C 0.37715 0.2295 0.55031 0.0
C548 C 0.36863 0.23728 0.6104 0.0
C549 C 0.36201 0.26469 0.57665 0.0
C550 C 0.37413 0.24533 0.63861 0.0
C551 C 0.3703 0.2428 0.67461 0.0
C552 C 0.36108 0.23204 0.68293 0.0
C553 C 0.35594 0.22377 0.65472 0.0
C554 C 0.35965 0.22638 0.61889 0.0
H555 H 0.35717 0.27255 0.55878 0.0
H556 H 0.35405 0.26082 0.59578 0.0
H557 H 0.37021 0.26988 0.59261 0.0
H558 H 0.38131 0.25361 0.6328 0.0
H559 H 0.37452 0.24926 0.69584 0.0
H560 H 0.97237 0.91115 0.83298 0.0
H561 H 0.98094 0.90555 0.77278 0.0
H562 H 0.00664 0.87348 0.81782 0.0
H563 H 0.99796 0.879 0.87876 0.0
H564 H 0.0092 0.90651 0.7518 0.0
H565 H 0.98559 0.85462 0.7317 0.0
H566 H 0.97929 0.86665 0.76525 0.0
H567 H 0.99514 0.85751 0.77285 0.0
C568 C 0.9798 0.90286 0.83021 0.0
C569 C 0.98452 0.89553 0.86063 0.0
C570 C 0.98467 0.89966 0.79574 0.0
C571 C 0.99432 0.88904 0.79084 0.0
C572 C -0.00096 0.88159 0.82104 0.0
H573 H 0.03826 0.88636 0.58436 0.0
H574 H 0.03331 0.88352 0.64886 0.0
C575 C 0.99415 0.88481 0.85577 0.0
C576 C -0.00022 0.88641 0.75406 0.0
H577 H 0.99853 0.86376 0.6832 0.0
C578 C 0.00703 0.8971 0.73691 0.0
C579 C 0.99678 0.87417 0.73473 0.0
C580 C 0.9887 0.86256 0.75181 0.0
C581 C 0.01106 0.89606 0.70059 0.0
C582 C 0.00798 0.88386 0.68106 0.0
C583 C 0.00097 0.87303 0.69839 0.0
C584 C 0.01114 0.88274 0.64195 0.0
C585 C 0.01802 0.90829 0.68298 0.0
C586 C 0.00034 0.88243 0.61659 0.0
C587 C 0.00315 0.88392 0.57964 0.0
C588 C 0.01679 0.88579 0.56763 0.0
C589 C 0.02764 0.88508 0.59288 0.0
C590 C 0.02483 0.88349 0.62973 0.0
H591 H 0.01702 0.91783 0.69951 0.0
H592 H 0.02919 0.90606 0.67964 0.0
H593 H 0.01359 0.91031 0.65576 0.0
H594 H 0.9897 0.88182 0.62552 0.0
H595 H 0.99459 0.8844 0.56079 0.0
H596 H 0.36677 0.78844 0.83064 0.0
H597 H 0.37041 0.78459 0.8953 0.0
H598 H 0.36711 0.7406 0.87857 0.0
H599 H 0.36391 0.74439 0.81364 0.0
H600 H 0.35134 0.77401 0.93736 0.0
H601 H 0.39819 0.74183 0.95049 0.0
H602 H 0.39401 0.75097 0.9093 0.0
H603 H 0.38626 0.73445 0.91882 0.0
C604 C 0.36719 0.77792 0.84063 0.0
C605 C 0.36501 0.76671 0.81718 0.0
C606 C 0.36927 0.77574 0.87758 0.0
C607 C 0.36915 0.76231 0.89185 0.0
C608 C 0.3676 0.75104 0.86817 0.0
H609 H 0.33542 0.73231 0.08621 0.0
H610 H 0.34137 0.74096 0.02629 0.0
C611 C 0.36567 0.75322 0.83106 0.0
C612 C 0.36869 0.7602 0.93164 0.0
H613 H 0.38198 0.74076 0.00051 0.0
C614 C 0.35824 0.76694 0.95123 0.0
C615 C 0.37777 0.75112 0.94998 0.0
C616 C 0.38978 0.7443 0.93109 0.0
C617 C 0.35612 0.76425 0.98807 0.0
C618 C 0.3645 0.75437 0.00568 0.0
C619 C 0.37547 0.74822 0.98678 0.0
C620 C 0.36112 0.74937 0.04249 0.0
C621 C 0.3447 0.77179 0.00764 0.0
C622 C 0.37039 0.75104 0.0714 0.0
C623 C 0.367 0.74608 0.10594 0.0
C624 C 0.35438 0.73927 0.11179 0.0
C625 C 0.3452 0.73759 0.08265 0.0
C626 C 0.34855 0.74256 0.04838 0.0
H627 H 0.34219 0.78174 0.9942 0.0
H628 H 0.33524 0.76532 0.00743 0.0
H629 H 0.34755 0.77387 0.03625 0.0
H630 H 0.38019 0.7562 0.06725 0.0
H631 H 0.37431 0.74743 0.12787 0.0
H632 H 0.50365 0.10885 0.0611 0.0
H633 H 0.5095 0.11128 0.12541 0.0
H634 H 0.46635 0.10821 0.15328 0.0
H635 H 0.46048 0.10543 0.08934 0.0
H636 H 0.50162 0.12902 0.18261 0.0
H637 H 0.48367 0.07518 0.20495 0.0
H638 H 0.48607 0.08232 0.16033 0.0
H639 H 0.47087 0.08649 0.18608 0.0
C640 C 0.4954 0.10892 0.08092 0.0
C641 C 0.48164 0.10674 0.07032 0.0
C642 C 0.49875 0.11032 0.11761 0.0
C643 C 0.48837 0.10963 0.14412 0.0
C644 C 0.47454 0.10847 0.13331 0.0
H645 H 0.50353 0.11867 0.3788 0.0
H646 H 0.49484 0.12275 0.31713 0.0
C647 C 0.4712 0.10692 0.09677 0.0
C648 C 0.49211 0.10893 0.18299 0.0
H649 H 0.49114 0.08749 0.25627 0.0
C650 C 0.49928 0.11999 0.19885 0.0
C651 C 0.48917 0.09705 0.20393 0.0
C652 C 0.48214 0.08452 0.18797 0.0
C653 C 0.50369 0.11942 0.23511 0.0
C654 C 0.50067 0.10756 0.25602 0.0
C655 C 0.49334 0.09662 0.24024 0.0
C656 C 0.50602 0.10565 0.29328 0.0
C657 C 0.51197 0.13127 0.25037 0.0
C658 C 0.51497 0.09458 0.30036 0.0
C659 C 0.51979 0.09217 0.33533 0.0
C660 C 0.51576 0.10077 0.36411 0.0
C661 C 0.50681 0.1119 0.35711 0.0
C662 C 0.50193 0.11429 0.32191 0.0
H663 H 0.51567 0.13837 0.22884 0.0
H664 H 0.5054 0.13728 0.26929 0.0
H665 H 0.52102 0.12738 0.26577 0.0
H666 H 0.51823 0.08777 0.27871 0.0
H667 H 0.52669 0.08353 0.33976 0.0
H668 H 0.11861 0.25279 0.61333 0.0
H669 H 0.11247 0.24695 0.55061 0.0
H670 H 0.15568 0.2457 0.52247 0.0
H671 H 0.16185 0.25145 0.58469 0.0
H672 H 0.11943 0.26303 0.48956 0.0
H673 H 0.14052 0.21014 0.47709 0.0
H674 H 0.13716 0.21817 0.52037 0.0
H675 H 0.15279 0.22201 0.49602 0.0
C676 C 0.12678 0.25098 0.59389 0.0
C677 C 0.14071 0.25254 0.6039 0.0
C678 C 0.12326 0.2477 0.5581 0.0
C679 C 0.13363 0.24574 0.532 0.0
C680 C 0.14753 0.2469 0.54229 0.0
H681 H 0.14412 0.25964 0.30924 0.0
H682 H 0.13948 0.26143 0.37399 0.0
C683 C 0.15103 0.25026 0.57785 0.0
C684 C 0.13011 0.24356 0.49335 0.0
H685 H 0.13751 0.22276 0.42141 0.0
C686 C 0.12313 0.2541 0.47471 0.0
C687 C 0.13476 0.23183 0.47411 0.0
C688 C 0.1416 0.21982 0.493 0.0
C689 C 0.12148 0.25362 0.43694 0.0
C690 C 0.12713 0.2424 0.41736 0.0
C691 C 0.13329 0.23144 0.43633 0.0
C692 C 0.12793 0.24232 0.37722 0.0
C693 C 0.11395 0.26526 0.41833 0.0
C694 C 0.12291 0.23103 0.35732 0.0
C695 C 0.12562 0.22995 0.32022 0.0
C696 C 0.13352 0.24008 0.30247 0.0
C697 C 0.13794 0.2517 0.32208 0.0
C698 C 0.13523 0.25278 0.35912 0.0
H699 H 0.10638 0.27023 0.43681 0.0
H700 H 0.12153 0.27325 0.41003 0.0
H701 H 0.10843 0.26158 0.3938 0.0
H702 H 0.11732 0.22281 0.37076 0.0
H703 H 0.12212 0.22084 0.30587 0.0
H704 H 0.00784 0.9168 0.34792 0.0
H705 H 0.00072 0.91277 0.2855 0.0
H706 H 0.9953 0.86943 0.30852 0.0
H707 H 0.0022 0.87347 0.37165 0.0
H708 H 0.01422 0.89582 0.23708 0.0
H709 H 0.95956 0.87947 0.25511 0.0
H710 H 0.96923 0.88791 0.29055 0.0
H711 H 0.97224 0.87001 0.28059 0.0
C712 C 0.00495 0.90643 0.33989 0.0
C713 C 0.00556 0.89544 0.36465 0.0
C714 C 0.00092 0.90414 0.30417 0.0
C715 C 0.99744 0.89082 0.29238 0.0
C716 C 0.99775 0.87983 0.3172 0.0
H717 H 0.99307 0.87972 0.05523 0.0
H718 H 0.99888 0.87505 0.11877 0.0
C719 C 0.00171 0.88214 0.35318 0.0
C720 C 0.99419 0.88857 0.25363 0.0
H721 H 0.96806 0.88036 0.19542 0.0
C722 C 0.00418 0.8923 0.2279 0.0
C723 C 0.98107 0.88399 0.24186 0.0
C724 C 0.96984 0.8802 0.26836 0.0
C725 C 0.00124 0.89215 0.19073 0.0
C726 C 0.98803 0.88782 0.17892 0.0
C727 C 0.9782 0.88357 0.20459 0.0
C728 C 0.98371 0.88922 0.14059 0.0
C729 C 0.01205 0.89737 0.16464 0.0
C730 C 0.97291 0.89828 0.1319 0.0
C731 C 0.96951 0.90085 0.09585 0.0
C732 C 0.97685 0.89441 0.0677 0.0
C733 C 0.98732 0.88491 0.07638 0.0
C734 C 0.99068 0.88228 0.11261 0.0
H735 H 0.02057 0.90287 0.17873 0.0
H736 H 0.01659 0.8885 0.1498 0.0
H737 H 0.0074 0.9045 0.14449 0.0
H738 H 0.96739 0.90374 0.15303 0.0
H739 H 0.96134 0.90818 0.09007 0.0
H740 H 0.83573 0.25902 0.09928 0.0
H741 H 0.84085 0.25235 0.03713 0.0
H742 H 0.88428 0.25044 0.06264 0.0
H743 H 0.8792 0.25729 0.12539 0.0
H744 H 0.87819 0.26556 0.99907 0.0
H745 H 0.85235 0.21462 0.9976 0.0
H746 H 0.84131 0.22802 0.01457 0.0
H747 H 0.85673 0.22346 0.03908 0.0
C748 C 0.84637 0.25701 0.09189 0.0
C749 C 0.85706 0.25862 0.11727 0.0
C750 C 0.84927 0.25315 0.05634 0.0
C751 C 0.86292 0.25073 0.04537 0.0
C752 C 0.87366 0.25218 0.07067 0.0
H753 H 0.87204 0.21635 0.82867 0.0
H754 H 0.87597 0.22082 0.89294 0.0
C755 C 0.87075 0.25601 0.10648 0.0
C756 C 0.86581 0.24733 0.00698 0.0
H757 H 0.85622 0.2252 0.93975 0.0
C758 C 0.8736 0.25662 0.98612 0.0
C759 C 0.85998 0.23556 0.99025 0.0
C760 C 0.85225 0.22477 0.01162 0.0
C761 C 0.87511 0.25481 0.94855 0.0
C762 C 0.86843 0.24356 0.93142 0.0
C763 C 0.86124 0.23392 0.95269 0.0
C764 C 0.86818 0.24177 0.89145 0.0
C765 C 0.88377 0.265 0.92767 0.0
C766 C 0.86281 0.25217 0.86891 0.0
C767 C 0.86074 0.2497 0.83195 0.0
C768 C 0.86375 0.23668 0.81713 0.0
C769 C 0.86959 0.22647 0.8394 0.0
C770 C 0.87183 0.22901 0.87615 0.0
H771 H 0.89174 0.26983 0.94525 0.0
H772 H 0.88899 0.26001 0.90433 0.0
H773 H 0.87703 0.27338 0.91727 0.0
H774 H 0.85958 0.26198 0.88015 0.0
H775 H 0.85609 0.2577 0.81547 0.0
H776 H 0.502 0.11818 0.87867 0.0
H777 H 0.51066 0.12213 0.81695 0.0
H778 H 0.48517 0.08881 0.77772 0.0
H779 H 0.47667 0.08472 0.83883 0.0
H780 H 0.51248 0.08723 0.75513 0.0
H781 H 0.49013 0.13925 0.72938 0.0
H782 H 0.50024 0.13741 0.76995 0.0
H783 H 0.48421 0.12826 0.76568 0.0
C784 C 0.49824 0.11175 0.8568 0.0
C785 C 0.48868 0.10113 0.86358 0.0
C786 C 0.50312 0.11407 0.82158 0.0
C787 C 0.49843 0.10586 0.79273 0.0
C788 C 0.48888 0.09529 0.79957 0.0
H789 H 0.50109 0.10924 0.56056 0.0
H790 H 0.49517 0.1118 0.62478 0.0
C791 C 0.48405 0.09297 0.83456 0.0
C792 C 0.50379 0.10768 0.75547 0.0
H793 H 0.50368 0.12948 0.68271 0.0
C794 C 0.51066 0.09651 0.73937 0.0
C795 C 0.50123 0.11974 0.73493 0.0
C796 C 0.49346 0.13185 0.75062 0.0
C797 C 0.51487 0.09695 0.7031 0.0
C798 C 0.5124 0.10903 0.68254 0.0
C799 C 0.50565 0.12029 0.69869 0.0
C800 C 0.51622 0.10976 0.64375 0.0
C801 C 0.52146 0.08425 0.68676 0.0
C802 C 0.53006 0.10834 0.63316 0.0
C803 C 0.53343 0.10675 0.59666 0.0
C804 C 0.52304 0.10674 0.57007 0.0
C805 C 0.5093 0.10918 0.58048 0.0
C806 C 0.50591 0.11065 0.61712 0.0
H807 H 0.51967 0.0749 0.70355 0.0
H808 H 0.51739 0.08228 0.65913 0.0
H809 H 0.53277 0.08587 0.68469 0.0
H810 H 0.53819 0.10789 0.65327 0.0
H811 H 0.54414 0.10504 0.5894 0.0
H812 H 0.6264 0.75245 0.61732 0.0
H813 H 0.62175 0.76122 0.55599 0.0
H814 H 0.65411 0.73522 0.51365 0.0
H815 H 0.65886 0.72655 0.57429 0.0
H816 H 0.65561 0.76323 0.49216 0.0
H817 H 0.60356 0.74044 0.46892 0.0
H818 H 0.60605 0.75013 0.51 0.0
H819 H 0.6151 0.73415 0.50365 0.0
C820 C 0.63247 0.7486 0.59485 0.0
C821 C 0.64301 0.73884 0.6006 0.0
C822 C 0.62975 0.75354 0.55988 0.0
C823 C 0.63751 0.74875 0.5303 0.0
C824 C 0.64798 0.73901 0.5361 0.0
H825 H 0.63359 0.7502 0.29907 0.0
H826 H 0.63104 0.74482 0.3636 0.0
C827 C 0.65069 0.73408 0.57082 0.0
C828 C 0.63532 0.7542 0.49328 0.0
H829 H 0.61317 0.75353 0.42128 0.0
C830 C 0.64628 0.76125 0.47675 0.0
C831 C 0.62318 0.75144 0.47326 0.0
C832 C 0.61129 0.74355 0.4896 0.0
C833 C 0.64558 0.76536 0.44043 0.0
C834 C 0.63346 0.76259 0.42027 0.0
C835 C 0.62238 0.75573 0.43694 0.0
C836 C 0.63258 0.76607 0.38128 0.0
C837 C 0.65807 0.77215 0.42358 0.0
C838 C 0.63371 0.77983 0.36984 0.0
C839 C 0.63529 0.78291 0.33316 0.0
C840 C 0.6356 0.77228 0.30724 0.0
C841 C 0.63342 0.75859 0.31847 0.0
C842 C 0.63195 0.75551 0.35529 0.0
H843 H 0.6675 0.77074 0.44033 0.0
H844 H 0.66009 0.76791 0.39615 0.0
H845 H 0.65615 0.7834 0.42088 0.0
H846 H 0.63396 0.78815 0.38945 0.0
H847 H 0.6368 0.79358 0.32525 0.0
H848 H 0.00218 0.11273 0.45283 0.0
H849 H 0.00813 0.11547 0.38875 0.0
H850 H 0.9655 0.10884 0.35949 0.0
H851 H 0.95958 0.10576 0.42321 0.0
H852 H 0.98228 0.09196 0.32329 0.0
H853 H 0.0025 0.14532 0.3134 0.0
H854 H 0.01084 0.13541 0.34814 0.0
H855 H 0.99273 0.13933 0.35196 0.0
C856 C 0.99405 0.11214 0.43275 0.0
C857 C 0.98044 0.10896 0.44298 0.0
C858 C 0.99744 0.1138 0.39614 0.0
C859 C 0.98723 0.1125 0.36928 0.0
C860 C 0.97354 0.10992 0.37971 0.0
H861 H 0.00236 0.12156 0.13515 0.0
H862 H 0.99319 0.12496 0.19664 0.0
C863 C 0.97018 0.10815 0.41615 0.0
C864 C 0.991 0.11227 0.33032 0.0
H865 H 0.00779 0.13015 0.26379 0.0
C866 C 0.98771 0.1004 0.31023 0.0
C867 C 0.99796 0.12332 0.3131 0.0
C868 C 0.0011 0.13662 0.33266 0.0
C869 C 0.99158 0.09908 0.27384 0.0
C870 C -0.00081 0.10979 0.2572 0.0
C871 C 0.00206 0.12189 0.27676 0.0
C872 C 0.0049 0.10818 0.22023 0.0
C873 C 0.98757 0.08615 0.25358 0.0
C874 C 0.01463 0.09779 0.21339 0.0
C875 C 0.01981 0.09582 0.17856 0.0
C876 C 0.01543 0.10426 0.1498 0.0
C877 C 0.00585 0.11485 0.15675 0.0
C878 C 0.00065 0.11683 0.1918 0.0
H879 H 0.97862 0.0809 0.26644 0.0
H880 H 0.98492 0.08851 0.22499 0.0
H881 H 0.9964 0.07884 0.2537 0.0
H882 H 0.01821 0.09116 0.23507 0.0
H883 H 0.02727 0.08764 0.17421 0.0
H884 H 0.62624 0.24314 0.19604 0.0
H885 H 0.6203 0.24883 0.13313 0.0
H886 H 0.64863 0.21756 0.09551 0.0
H887 H 0.65433 0.21167 0.15775 0.0
H888 H 0.63743 0.25886 0.08344 0.0
H889 H 0.61618 0.21001 0.03097 0.0
H890 H 0.61815 0.21326 0.07885 0.0
H891 H 0.63249 0.20695 0.05244 0.0
C892 C 0.631 0.23734 0.17429 0.0
C893 C 0.64074 0.22697 0.1818 0.0
C894 C 0.62759 0.24058 0.13841 0.0
C895 C 0.63381 0.23343 0.10956 0.0
C896 C 0.64336 0.22293 0.1172 0.0
H897 H 0.66421 0.2592 0.90963 0.0
H898 H 0.65831 0.25273 0.97142 0.0
C899 C 0.64673 0.21968 0.15289 0.0
C900 C 0.63165 0.23785 0.07151 0.0
H901 H 0.62702 0.22509 0.98613 0.0
C902 C 0.63483 0.25154 0.06227 0.0
C903 C 0.628 0.22841 0.04381 0.0
C904 C 0.62336 0.21388 0.05212 0.0
C905 C 0.63554 0.25574 0.02601 0.0
C906 C 0.63329 0.24592 0.99826 0.0
C907 C 0.62901 0.23253 0.00745 0.0
C908 C 0.6367 0.24904 0.96005 0.0
C909 C 0.63913 0.27057 0.01771 0.0
C910 C 0.62662 0.24849 0.93274 0.0
C911 C 0.63 0.2521 0.89705 0.0
C912 C 0.64353 0.25622 0.88832 0.0
C913 C 0.65367 0.25619 0.91553 0.0
C914 C 0.6503 0.25259 0.95094 0.0
H915 H 0.63608 0.27753 0.04026 0.0
H916 H 0.65047 0.27148 0.01408 0.0
H917 H 0.634 0.27413 0.99248 0.0
H918 H 0.61609 0.24562 0.93921 0.0
H919 H 0.62199 0.25202 0.8766 0.0
H920 H 0.46805 0.90325 0.67227 0.0
H921 H 0.47392 0.89746 0.73462 0.0
H922 H 0.50502 0.86901 0.69685 0.0
H923 H 0.49918 0.87481 0.63381 0.0
H924 H 0.47388 0.87046 0.76924 0.0
H925 H 0.52554 0.89585 0.76753 0.0
H926 H 0.51252 0.89954 0.73388 0.0
H927 H 0.52182 0.88353 0.73238 0.0
C928 C 0.47615 0.89575 0.6771 0.0
C929 C 0.48322 0.88954 0.6481 0.0
C930 C 0.47945 0.89242 0.71278 0.0
C931 C 0.48994 0.88288 0.72032 0.0
C932 C 0.49696 0.87651 0.69153 0.0
H933 H 0.52527 0.87054 0.9358 0.0
H934 H 0.51976 0.8667 0.87194 0.0
C935 C 0.49362 0.87981 0.65561 0.0
C936 C 0.49355 0.87999 0.75855 0.0
H937 H 0.51788 0.88686 0.82286 0.0
C938 C 0.48357 0.87387 0.78097 0.0
C939 C 0.50621 0.88442 0.77365 0.0
C940 C 0.51716 0.89128 0.75083 0.0
C941 C 0.48578 0.87237 0.81834 0.0
C942 C 0.49817 0.87741 0.83377 0.0
C943 C 0.50838 0.88301 0.81105 0.0
C944 C 0.50045 0.87793 0.87352 0.0
C945 C 0.47479 0.86546 0.84089 0.0
C946 C 0.49129 0.8853 0.89586 0.0
C947 C 0.49435 0.8874 0.93246 0.0
C948 C 0.50673 0.88235 0.94723 0.0
C949 C 0.51564 0.87454 0.92518 0.0
C950 C 0.51252 0.87236 0.88867 0.0
H951 H 0.46857 0.85815 0.8244 0.0
H952 H 0.47935 0.85976 0.86407 0.0
H953 H 0.46766 0.87344 0.85167 0.0
H954 H 0.48208 0.88999 0.88467 0.0
H955 H 0.48736 0.89356 0.94867 0.0
H956 H 0.86091 0.74787 0.68539 0.0
H957 H 0.86439 0.74325 0.62091 0.0
H958 H 0.86728 0.78703 0.60034 0.0
H959 H 0.86329 0.79168 0.66449 0.0
H960 H 0.84873 0.77593 0.55845 0.0
H961 H 0.89565 0.74363 0.54998 0.0
H962 H 0.88349 0.73654 0.58148 0.0
H963 H 0.89116 0.75316 0.59034 0.0
C964 C 0.86263 0.75647 0.66721 0.0
C965 C 0.86175 0.77013 0.67985 0.0
C966 C 0.86472 0.75383 0.63036 0.0
C967 C 0.86625 0.76479 0.60571 0.0
C968 C 0.86615 0.77841 0.61879 0.0
H969 H 0.8733 0.74798 0.37084 0.0
H970 H 0.87877 0.75686 0.43164 0.0
C971 C 0.86387 0.78105 0.65546 0.0
C972 C 0.86603 0.76218 0.56607 0.0
H973 H 0.87983 0.74206 0.49922 0.0
C974 C 0.85573 0.76871 0.54546 0.0
C975 C 0.87522 0.7529 0.54883 0.0
C976 C 0.88709 0.74628 0.56878 0.0
C977 C 0.85391 0.76569 0.50868 0.0
C978 C 0.86242 0.75564 0.49216 0.0
C979 C 0.87321 0.74965 0.51209 0.0
C980 C 0.85939 0.75039 0.45535 0.0
C981 C 0.8427 0.77311 0.48798 0.0
C982 C 0.84679 0.74371 0.44881 0.0
C983 C 0.84366 0.7387 0.41442 0.0
C984 C 0.8531 0.74018 0.38579 0.0
C985 C 0.8658 0.74678 0.39235 0.0
C986 C 0.86895 0.7518 0.427 0.0
H987 H 0.84014 0.7832 0.50064 0.0
H988 H 0.84579 0.77491 0.45942 0.0
H989 H 0.8332 0.7667 0.48806 0.0
H990 H 0.83938 0.7423 0.47046 0.0
H991 H 0.83383 0.73359 0.41036 0.0
H992 H 0.46905 0.58709 0.14945 0.0
H993 H 0.47726 0.59083 0.21101 0.0
H994 H 0.50649 0.62099 0.17218 0.0
H995 H 0.49814 0.61741 0.10999 0.0
H996 H 0.50397 0.58653 0.23569 0.0
H997 H 0.48718 0.64085 0.25748 0.0
H998 H 0.48048 0.63029 0.22119 0.0
H999 H 0.49743 0.63767 0.21774 0.0
C1000 C 0.47719 0.59458 0.1539 0.0
C1001 C 0.48297 0.60195 0.12485 0.0
C1002 C 0.48185 0.59671 0.18915 0.0
C1003 C 0.49238 0.60627 0.19622 0.0
C1004 C 0.49819 0.61372 0.16736 0.0
H1005 H 0.53702 0.60307 0.40092 0.0
H1006 H 0.53136 0.6054 0.33674 0.0
C1007 C 0.49349 0.61161 0.13188 0.0
C1008 C 0.49756 0.6078 0.23377 0.0
H1009 H 0.49943 0.63013 0.30525 0.0
C1010 C 0.50306 0.59609 0.25084 0.0
C1011 C 0.49621 0.62025 0.25351 0.0
C1012 C 0.48991 0.63299 0.23678 0.0
C1013 C 0.5071 0.5964 0.28726 0.0
C1014 C 0.50587 0.60887 0.30699 0.0
C1015 C 0.50046 0.62064 0.28991 0.0
C1016 C 0.50968 0.60958 0.34579 0.0
C1017 C 0.51221 0.58323 0.30462 0.0
C1018 C 0.4995 0.61185 0.37219 0.0
C1019 C 0.50273 0.61065 0.40899 0.0
C1020 C 0.51619 0.60713 0.41984 0.0
C1021 C 0.52652 0.60565 0.39336 0.0
C1022 C 0.5233 0.60694 0.35669 0.0
H1023 H 0.50948 0.57397 0.28837 0.0
H1024 H 0.52363 0.58364 0.30697 0.0
H1025 H 0.50786 0.58199 0.33224 0.0
H1026 H 0.48893 0.61395 0.36428 0.0
H1027 H 0.49458 0.61188 0.42881 0.0
H1028 H 0.65824 0.21897 0.41561 0.0
H1029 H 0.65397 0.22754 0.47656 0.0
H1030 H 0.62605 0.25823 0.43403 0.0
H1031 H 0.63021 0.24956 0.37235 0.0
H1032 H 0.65949 0.25481 0.49919 0.0
H1033 H 0.60444 0.24013 0.51965 0.0
H1034 H 0.61509 0.23233 0.48509 0.0
H1035 H 0.6086 0.24952 0.47903 0.0
C1036 C 0.65111 0.22749 0.41911 0.0
C1037 C 0.64459 0.23363 0.38915 0.0
C1038 C 0.64867 0.23236 0.454 0.0
C1039 C 0.63963 0.24344 0.45982 0.0
C1040 C 0.63292 0.24953 0.43011 0.0
H1041 H 0.64388 0.28778 0.66519 0.0
H1042 H 0.64091 0.28266 0.60085 0.0
C1043 C 0.63536 0.24462 0.39495 0.0
C1044 C 0.63807 0.24898 0.49697 0.0
H1045 H 0.61561 0.25154 0.568 0.0
C1046 C 0.64987 0.25423 0.51415 0.0
C1047 C 0.62552 0.24805 0.51641 0.0
C1048 C 0.61267 0.24213 0.49936 0.0
C1049 C 0.64957 0.25833 0.55051 0.0
C1050 C 0.63704 0.2574 0.57007 0.0
C1051 C 0.62515 0.25233 0.55279 0.0
C1052 C 0.63643 0.261 0.609 0.0
C1053 C 0.66282 0.26312 0.56807 0.0
C1054 C 0.63419 0.25066 0.63497 0.0
C1055 C 0.63577 0.25357 0.67185 0.0
C1056 C 0.63965 0.26687 0.6832 0.0
C1057 C 0.64103 0.27739 0.65723 0.0
C1058 C 0.63936 0.27449 0.62046 0.0
H1059 H 0.67204 0.26036 0.55168 0.0
H1060 H 0.66258 0.27452 0.57099 0.0
H1061 H 0.664 0.25855 0.59546 0.0
H1062 H 0.63189 0.24018 0.62662 0.0
H1063 H 0.63461 0.24527 0.69127 0.0
H1064 H 0.03423 0.4062 0.66388 0.0
H1065 H 0.02639 0.40253 0.72581 0.0
H1066 H 0.99157 0.37917 0.68636 0.0
H1067 H -0.00045 0.38262 0.62387 0.0
H1068 H 0.00181 0.41174 0.7526 0.0
H1069 H 0.00613 0.35487 0.7691 0.0
H1070 H 0.01458 0.36413 0.73287 0.0
H1071 H 0.99643 0.36039 0.73021 0.0
C1072 C 0.02498 0.40015 0.66831 0.0
C1073 C 0.01747 0.39474 0.639 0.0
C1074 C 0.02053 0.39804 0.70376 0.0
C1075 C 0.00847 0.39048 0.71076 0.0
C1076 C 0.00105 0.38482 0.68162 0.0
H1077 H 0.96048 0.39981 0.90629 0.0
H1078 H 0.96829 0.39722 0.84382 0.0
C1079 C 0.00556 0.38687 0.64595 0.0
C1080 C 0.00321 0.3896 0.74839 0.0
H1081 H 0.9951 0.36721 0.81672 0.0
C1082 C 0.00037 0.40199 0.7666 0.0
C1083 C 0.00147 0.37688 0.76671 0.0
C1084 C 0.00492 0.3633 0.74892 0.0
C1085 C 0.99574 0.40205 0.80251 0.0
C1086 C 0.99364 0.38935 0.82057 0.0
C1087 C 0.99662 0.37692 0.80262 0.0
C1088 C 0.98832 0.38897 0.85811 0.0
C1089 C 0.99332 0.41574 0.82105 0.0
C1090 C 0.9968 0.38462 0.88676 0.0
C1091 C 0.99233 0.38603 0.92265 0.0
C1092 C 0.97933 0.39181 0.93023 0.0
C1093 C 0.97061 0.39544 0.90133 0.0
C1094 C 0.97505 0.39398 0.86562 0.0
H1095 H 0.99849 0.42438 0.8066 0.0
H1096 H 0.98207 0.41793 0.8217 0.0
H1097 H 0.99714 0.41549 0.8494 0.0
H1098 H 0.00708 0.38069 0.88142 0.0
H1099 H -0.00075 0.38312 0.94439 0.0
H1100 H 0.85914 0.7519 0.18768 0.0
H1101 H 0.86191 0.75668 0.12292 0.0
H1102 H 0.85807 0.71321 0.09955 0.0
H1103 H 0.85488 0.70841 0.164 0.0
H1104 H 0.87963 0.74799 0.06791 0.0
H1105 H 0.82595 0.72989 0.04382 0.0
H1106 H 0.83274 0.73271 0.08866 0.0
H1107 H 0.83706 0.71725 0.06418 0.0
C1108 C 0.85909 0.74335 0.16876 0.0
C1109 C 0.85659 0.72981 0.18077 0.0
C1110 C 0.86069 0.74609 0.1318 0.0
C1111 C 0.85989 0.73533 0.10638 0.0
C1112 C 0.85838 0.7217 0.11863 0.0
H1113 H 0.87092 0.74915 0.87135 0.0
H1114 H 0.87441 0.74045 0.93324 0.0
C1115 C 0.85662 0.71897 0.15546 0.0
C1116 C 0.85954 0.73849 0.06711 0.0
H1117 H 0.83867 0.73681 0.99274 0.0
C1118 C 0.87073 0.74549 0.05135 0.0
C1119 C 0.84783 0.73533 0.0457 0.0
C1120 C 0.83515 0.7285 0.06143 0.0
C1121 C 0.87044 0.74957 0.01481 0.0
C1122 C 0.85873 0.74637 0.99347 0.0
C1123 C 0.84768 0.73914 0.0091 0.0
C1124 C 0.85703 0.75154 0.95595 0.0
C1125 C 0.88239 0.75774 0.99974 0.0
C1126 C 0.84598 0.7604 0.94812 0.0
C1127 C 0.84389 0.76523 0.91302 0.0
C1128 C 0.85282 0.7613 0.88485 0.0
C1129 C 0.8639 0.75237 0.89256 0.0
C1130 C 0.86596 0.74748 0.9279 0.0
H1131 H 0.88932 0.76163 0.02144 0.0
H1132 H 0.88855 0.75103 0.98151 0.0
H1133 H 0.87861 0.76667 0.98367 0.0
H1134 H 0.83895 0.76365 0.96931 0.0
H1135 H 0.83527 0.7721 0.90803 0.0
H1136 H 0.53289 0.40716 0.09332 0.0
H1137 H 0.52638 0.40234 0.15569 0.0
H1138 H 0.50113 0.36826 0.11992 0.0
H1139 H 0.50739 0.37329 0.05685 0.0
H1140 H 0.48744 0.38434 0.16625 0.0
H1141 H 0.53848 0.37294 0.22536 0.0
H1142 H 0.53885 0.38915 0.20198 0.0
H1143 H 0.53563 0.37346 0.17707 0.0
C1144 C 0.52606 0.39853 0.09867 0.0
C1145 C 0.52066 0.39058 0.07016 0.0
C1146 C 0.52246 0.3957 0.13446 0.0
C1147 C 0.51352 0.38474 0.14266 0.0
C1148 C 0.50817 0.37669 0.11426 0.0
H1149 H 0.49616 0.37201 0.37544 0.0
H1150 H 0.5035 0.3671 0.313 0.0
C1151 C 0.51173 0.37957 0.07827 0.0
C1152 C 0.50894 0.38258 0.18062 0.0
H1153 H 0.52098 0.38111 0.26747 0.0
C1154 C 0.49476 0.38335 0.18831 0.0
C1155 C 0.51844 0.38099 0.20949 0.0
C1156 C 0.53368 0.37893 0.20299 0.0
C1157 C 0.48993 0.38356 0.22411 0.0
C1158 C 0.49954 0.38334 0.25299 0.0
C1159 C 0.51363 0.38155 0.24534 0.0
C1160 C 0.49527 0.38611 0.29089 0.0
C1161 C 0.47456 0.3843 0.23061 0.0
C1162 C 0.48858 0.39855 0.29928 0.0
C1163 C 0.48439 0.40133 0.33463 0.0
C1164 C 0.48695 0.39182 0.36256 0.0
C1165 C 0.49403 0.37952 0.35445 0.0
C1166 C 0.49819 0.3767 0.31883 0.0
H1167 H 0.46872 0.37962 0.20779 0.0
H1168 H 0.47162 0.37895 0.25605 0.0
H1169 H 0.47139 0.39528 0.2327 0.0
H1170 H 0.48659 0.40615 0.27841 0.0
H1171 H 0.47908 0.41097 0.34002 0.0
H1172 H 0.86502 0.24688 0.31432 0.0
H1173 H 0.86871 0.24217 0.37892 0.0
H1174 H 0.86478 0.28561 0.40243 0.0
H1175 H 0.86109 0.2904 0.33817 0.0
H1176 H 0.88677 0.27047 0.44245 0.0
H1177 H 0.83449 0.24661 0.44866 0.0
H1178 H 0.84606 0.24007 0.41463 0.0
H1179 H 0.83985 0.25749 0.41156 0.0
C1180 C 0.8652 0.25544 0.33319 0.0
C1181 C 0.86265 0.26899 0.32127 0.0
C1182 C 0.86726 0.25273 0.37003 0.0
C1183 C 0.86687 0.26354 0.39538 0.0
C1184 C 0.86511 0.27714 0.38327 0.0
H1185 H 0.84506 0.26096 0.62123 0.0
H1186 H 0.84851 0.26756 0.55794 0.0
C1187 C 0.86296 0.27984 0.34656 0.0
C1188 C 0.86705 0.26065 0.43473 0.0
H1189 H 0.84733 0.2472 0.50266 0.0
C1190 C 0.87821 0.26531 0.45569 0.0
C1191 C 0.85574 0.25411 0.45184 0.0
C1192 C 0.84328 0.24934 0.43071 0.0
C1193 C 0.87838 0.26353 0.49348 0.0
C1194 C 0.8671 0.25692 0.51052 0.0
C1195 C 0.85595 0.25228 0.48949 0.0
C1196 C 0.8665 0.25463 0.55015 0.0
C1197 C 0.89045 0.26896 0.51501 0.0
C1198 C 0.87569 0.24545 0.56698 0.0
C1199 C 0.87374 0.24167 0.60317 0.0
C1200 C 0.86254 0.24696 0.62305 0.0
C1201 C 0.85381 0.25673 0.60669 0.0
C1202 C 0.85574 0.26048 0.5705 0.0
H1203 H 0.8968 0.27632 0.49905 0.0
H1204 H 0.88683 0.27419 0.54002 0.0
H1205 H 0.89714 0.26019 0.52317 0.0
H1206 H 0.88393 0.24067 0.55164 0.0
H1207 H 0.8806 0.23406 0.61498 0.0
H1208 H 0.02624 0.58937 0.83716 0.0
H1209 H 0.01811 0.59309 0.77552 0.0
H1210 H 0.98923 0.62369 0.8139 0.0
H1211 H 0.99754 0.62016 0.87611 0.0
H1212 H 0.99167 0.58874 0.75137 0.0
H1213 H 0.00786 0.64306 0.72749 0.0
H1214 H 0.01462 0.63278 0.76424 0.0
H1215 H 0.99767 0.6402 0.76747 0.0
C1216 C 0.01821 0.59697 0.83257 0.0
C1217 C 0.01249 0.60446 0.86151 0.0
C1218 C 0.01359 0.59909 0.79727 0.0
C1219 C 0.00317 0.60875 0.79005 0.0
C1220 C 0.99747 0.61636 0.8188 0.0
H1221 H 0.95575 0.6045 0.59073 0.0
H1222 H 0.96264 0.60719 0.65396 0.0
C1223 C 0.00214 0.61427 0.85431 0.0
C1224 C 0.99782 0.6101 0.7526 0.0
H1225 H 0.99482 0.63229 0.68107 0.0
C1226 C 0.99231 0.59828 0.73605 0.0
C1227 C 0.99883 0.62251 0.73259 0.0
C1228 C 0.00516 0.63536 0.74863 0.0
C1229 C 0.98785 0.59848 0.69998 0.0
C1230 C 0.98862 0.61094 0.68009 0.0
C1231 C 0.99412 0.6228 0.69655 0.0
C1232 C 0.98405 0.61159 0.64186 0.0
C1233 C 0.98271 0.58522 0.68318 0.0
C1234 C 0.99366 0.61392 0.61405 0.0
C1235 C 0.98972 0.61252 0.57776 0.0
C1236 C 0.97612 0.60874 0.56889 0.0
C1237 C 0.96635 0.60726 0.59676 0.0
C1238 C 0.97026 0.60877 0.6329 0.0
H1239 H 0.98592 0.57601 0.69905 0.0
H1240 H 0.97125 0.58539 0.68225 0.0
H1241 H 0.98659 0.58407 0.65506 0.0
H1242 H 0.00435 0.61617 0.62046 0.0
H1243 H 0.99745 0.61374 0.55681 0.0
H1244 H 0.66324 0.7669 0.08278 0.0
H1245 H 0.65856 0.7599 0.0206 0.0
H1246 H 0.61593 0.7523 0.048 0.0
H1247 H 0.62066 0.75903 0.11099 0.0
H1248 H 0.62661 0.73213 0.00397 0.0
H1249 H 0.63849 0.78352 0.94705 0.0
H1250 H 0.65252 0.77718 0.97402 0.0
H1251 H 0.63609 0.78072 0.99495 0.0
C1252 C 0.65287 0.76368 0.07568 0.0
C1253 C 0.64228 0.76362 0.10166 0.0
C1254 C 0.65019 0.75979 0.04003 0.0
C1255 C 0.63681 0.75597 0.02942 0.0
C1256 C 0.62629 0.75539 0.05556 0.0
H1257 H 0.6263 0.74905 0.79375 0.0
H1258 H 0.62141 0.75545 0.85675 0.0
C1259 C 0.629 0.75919 0.09149 0.0
C1260 C 0.63404 0.7525 0.99098 0.0
H1261 H 0.63935 0.76442 0.90521 0.0
C1262 C 0.62917 0.73925 0.98234 0.0
C1263 C 0.63701 0.76192 0.96274 0.0
C1264 C 0.64116 0.77667 0.97016 0.0
C1265 C 0.62811 0.73487 0.94618 0.0
C1266 C 0.63234 0.74388 0.91808 0.0
C1267 C 0.6363 0.75743 0.9267 0.0
C1268 C 0.63392 0.73917 0.88004 0.0
C1269 C 0.62262 0.72059 0.93856 0.0
C1270 C 0.64255 0.72792 0.87218 0.0
C1271 C 0.64527 0.72423 0.83638 0.0
C1272 C 0.6396 0.73183 0.8076 0.0
C1273 C 0.63079 0.74299 0.81538 0.0
C1274 C 0.628 0.74664 0.85133 0.0
H1275 H 0.61528 0.71725 0.95995 0.0
H1276 H 0.61731 0.7201 0.91194 0.0
H1277 H 0.63134 0.71314 0.9384 0.0
H1278 H 0.64759 0.72225 0.89372 0.0
H1279 H 0.65218 0.71563 0.8313 0.0
H1280 H 0.49451 0.38498 0.88043 0.0
H1281 H 0.48572 0.38075 0.81892 0.0
H1282 H 0.52615 0.38911 0.77521 0.0
H1283 H 0.53493 0.39347 0.83613 0.0
H1284 H 0.4882 0.40214 0.76102 0.0
H1285 H 0.51297 0.35223 0.72507 0.0
H1286 H 0.51002 0.35751 0.77138 0.0
H1287 H 0.52403 0.36483 0.74603 0.0
C1288 C 0.50154 0.3857 0.85771 0.0
C1289 C 0.51538 0.38959 0.86301 0.0
C1290 C 0.49652 0.3833 0.82268 0.0
C1291 C 0.50534 0.38447 0.79266 0.0
C1292 C 0.51924 0.38794 0.79807 0.0
H1293 H 0.5028 0.38688 0.56022 0.0
H1294 H 0.50882 0.38407 0.62428 0.0
C1295 C 0.52421 0.39051 0.83289 0.0
C1296 C 0.49989 0.38339 0.75533 0.0
H1297 H 0.5031 0.36512 0.6767 0.0
C1298 C 0.49126 0.39395 0.74265 0.0
C1299 C 0.50411 0.37279 0.73147 0.0
C1300 C 0.51322 0.36111 0.7441 0.0
C1301 C 0.48712 0.3945 0.70626 0.0
C1302 C 0.49139 0.38393 0.68218 0.0
C1303 C 0.4998 0.37319 0.69515 0.0
C1304 C 0.48765 0.38419 0.64318 0.0
C1305 C 0.47877 0.40678 0.69369 0.0
C1306 C 0.47376 0.38469 0.6324 0.0
C1307 C 0.47032 0.38648 0.59598 0.0
C1308 C 0.48071 0.38751 0.56954 0.0
C1309 C 0.49458 0.38613 0.58003 0.0
C1310 C 0.49803 0.38453 0.6166 0.0
H1311 H 0.47964 0.41562 0.71273 0.0
H1312 H 0.48214 0.41027 0.66646 0.0
H1313 H 0.46771 0.40383 0.69212 0.0
H1314 H 0.46557 0.38403 0.65227 0.0
H1315 H 0.45952 0.38734 0.58861 0.0
H1316 H 0.34659 0.71042 0.33798 0.0
H1317 H 0.35119 0.71596 0.40128 0.0
H1318 H 0.37464 0.7517 0.36845 0.0
H1319 H 0.3698 0.74637 0.30475 0.0
H1320 H 0.375 0.71969 0.44248 0.0
H1321 H 0.34425 0.7681 0.43185 0.0
H1322 H 0.34423 0.75515 0.39677 0.0
H1323 H 0.35863 0.76674 0.40133 0.0
C1324 C 0.35284 0.7194 0.34416 0.0
C1325 C 0.35769 0.72807 0.31643 0.0
C1326 C 0.3555 0.72251 0.38037 0.0
C1327 C 0.36308 0.73435 0.38959 0.0
C1328 C 0.36856 0.74265 0.36191 0.0
H1329 H 0.37964 0.75492 0.61892 0.0
H1330 H 0.38358 0.74823 0.55555 0.0
C1331 C 0.36583 0.73957 0.32557 0.0
C1332 C 0.36426 0.73838 0.42817 0.0
H1333 H 0.35324 0.76254 0.48893 0.0
C1334 C 0.3704 0.72913 0.45268 0.0
C1335 C 0.3581 0.75064 0.44136 0.0
C1336 C 0.35083 0.76071 0.41661 0.0
C1337 C 0.3702 0.73164 0.49017 0.0
C1338 C 0.36385 0.74379 0.50329 0.0
C1339 C 0.35813 0.75324 0.47869 0.0
C1340 C 0.36186 0.74645 0.54244 0.0
C1341 C 0.37621 0.72101 0.51554 0.0
C1342 C 0.34839 0.74754 0.55606 0.0
C1343 C 0.34613 0.75142 0.59189 0.0
C1344 C 0.35731 0.75429 0.61494 0.0
C1345 C 0.37084 0.75267 0.60179 0.0
C1346 C 0.3731 0.74884 0.56566 0.0
H1347 H 0.37856 0.71114 0.5015 0.0
H1348 H 0.38595 0.72506 0.52731 0.0
H1349 H 0.36897 0.71889 0.53818 0.0
H1350 H 0.33957 0.74571 0.53862 0.0
H1351 H 0.33558 0.75254 0.60125 0.0
H1352 H 0.03735 0.60722 0.09057 0.0
H1353 H 0.03046 0.60995 0.15378 0.0
H1354 H 0.98818 0.61599 0.12064 0.0
H1355 H 0.99506 0.6135 0.057 0.0
H1356 H 0.99697 0.63315 0.18062 0.0
H1357 H 0.00918 0.57755 0.20017 0.0
H1358 H 0.02317 0.58774 0.18269 0.0
H1359 H 0.00785 0.58532 0.15593 0.0
C1360 C 0.02662 0.60936 0.09666 0.0
C1361 C 0.0167 0.60997 0.06891 0.0
C1362 C 0.02271 0.61089 0.13279 0.0
C1363 C 0.00879 0.6129 0.14186 0.0
C1364 C 0.99898 0.61439 0.11413 0.0
H1365 H 0.96739 0.58914 0.3364 0.0
H1366 H 0.97552 0.59328 0.27497 0.0
C1367 C 0.00291 0.61295 0.07784 0.0
C1368 C 0.00435 0.61218 0.18017 0.0
H1369 H 0.00252 0.59009 0.25197 0.0
C1370 C 0.9982 0.62377 0.19635 0.0
C1371 C 0.00584 0.59985 0.20038 0.0
C1372 C 0.01175 0.58685 0.18392 0.0
C1373 C 0.99352 0.62335 0.23238 0.0
C1374 C 0.99518 0.61107 0.25266 0.0
C1375 C 0.00137 0.59952 0.23643 0.0
C1376 C 0.98977 0.60951 0.28995 0.0
C1377 C 0.98649 0.63588 0.24817 0.0
C1378 C 0.99506 0.61731 0.31887 0.0
C1379 C 0.9904 0.61497 0.35428 0.0
C1380 C 0.98045 0.60473 0.36118 0.0
C1381 C 0.9751 0.59707 0.33204 0.0
C1382 C 0.97971 0.59943 0.29687 0.0
H1383 H 0.98359 0.64348 0.22696 0.0
H1384 H 0.97705 0.63284 0.26328 0.0
H1385 H 0.99361 0.64102 0.26747 0.0
H1386 H 0.00301 0.62498 0.31418 0.0
H1387 H 0.99471 0.621 0.37624 0.0
H1388 H 0.12959 0.24262 0.79797 0.0
H1389 H 0.12367 0.23833 0.8616 0.0
H1390 H 0.13567 0.27999 0.88852 0.0
H1391 H 0.14134 0.28438 0.82533 0.0
H1392 H 0.14191 0.23909 0.91646 0.0
H1393 H 0.10031 0.27649 0.94556 0.0
H1394 H 0.10526 0.27193 0.89995 0.0
H1395 H 0.11482 0.2848 0.92472 0.0
C1396 C 0.13069 0.25093 0.81739 0.0
C1397 C 0.13595 0.26382 0.8067 0.0
C1398 C 0.1273 0.24848 0.85369 0.0
C1399 C 0.129 0.25892 0.87977 0.0
C1400 C 0.1339 0.2719 0.86883 0.0
H1401 H 0.15667 0.25799 0.09432 0.0
H1402 H 0.151 0.26148 0.0306 0.0
C1403 C 0.13728 0.27435 0.83268 0.0
C1404 C 0.12734 0.25588 0.91891 0.0
H1405 H 0.11381 0.26883 0.99741 0.0
C1406 C 0.13552 0.24539 0.93401 0.0
C1407 C 0.11892 0.26403 0.94189 0.0
C1408 C 0.10922 0.27484 0.92711 0.0
C1409 C 0.13619 0.24343 0.97156 0.0
C1410 C 0.12861 0.25228 0.99461 0.0
C1411 C 0.11975 0.26219 0.97959 0.0
C1412 C 0.13083 0.25202 0.03419 0.0
C1413 C 0.14542 0.23224 0.98649 0.0
C1414 C 0.12108 0.24606 0.05754 0.0
C1415 C 0.12428 0.24407 0.0942 0.0
C1416 C 0.13728 0.24802 0.10776 0.0
C1417 C 0.14661 0.25478 0.08466 0.0
C1418 C 0.1434 0.25677 0.04824 0.0
H1419 H 0.1481 0.22445 0.96555 0.0
H1420 H 0.15515 0.23695 0.9965 0.0
H1421 H 0.14038 0.22692 0.00961 0.0
H1422 H 0.1113 0.24236 0.04708 0.0
H1423 H 0.11691 0.23878 0.11136 0.0
H1424 H 0.50297 0.627 0.61349 0.0
H1425 H 0.49657 0.63325 0.67586 0.0
H1426 H 0.50504 0.59153 0.71029 0.0
H1427 H 0.51163 0.58534 0.6488 0.0
H1428 H 0.4767 0.62311 0.72239 0.0
H1429 H 0.52851 0.61395 0.77972 0.0
H1430 H 0.52553 0.61533 0.73161 0.0
H1431 H 0.52274 0.59918 0.75469 0.0
C1432 C 0.50339 0.61919 0.63441 0.0
C1433 C 0.50792 0.60573 0.62638 0.0
C1434 C 0.49979 0.62276 0.66998 0.0
C1435 C 0.50071 0.61294 0.69787 0.0
C1436 C 0.50468 0.59938 0.68945 0.0
H1437 H 0.46083 0.5964 0.89266 0.0
H1438 H 0.46743 0.60215 0.83097 0.0
C1439 C 0.50833 0.59584 0.65418 0.0
C1440 C 0.49732 0.61652 0.73587 0.0
H1441 H 0.5094 0.61232 0.82188 0.0
C1442 C 0.48392 0.62104 0.74417 0.0
C1443 C 0.50686 0.61423 0.76428 0.0
C1444 C 0.52176 0.61056 0.75709 0.0
C1445 C 0.47948 0.62219 0.78024 0.0
C1446 C 0.48858 0.61839 0.80858 0.0
C1447 C 0.50231 0.61501 0.80026 0.0
C1448 C 0.48374 0.61628 0.84633 0.0
C1449 C 0.46499 0.62719 0.78752 0.0
C1450 C 0.4909 0.62206 0.87578 0.0
C1451 C 0.48729 0.61858 0.91136 0.0
C1452 C 0.47649 0.60922 0.91797 0.0
C1453 C 0.46916 0.60372 0.88849 0.0
C1454 C 0.47281 0.60712 0.8531 0.0
H1455 H 0.46159 0.63459 0.76632 0.0
H1456 H 0.4578 0.61827 0.78681 0.0
H1457 H 0.46415 0.63228 0.81436 0.0
H1458 H 0.49947 0.62904 0.87122 0.0
H1459 H 0.49312 0.62296 0.93356 0.0
H1460 H 0.12179 0.75478 0.38755 0.0
H1461 H 0.11745 0.74882 0.45121 0.0
H1462 H 0.16112 0.75137 0.47327 0.0
H1463 H 0.16549 0.75751 0.41025 0.0
H1464 H 0.1272 0.72776 0.49742 0.0
H1465 H 0.14428 0.77933 0.54387 0.0
H1466 H 0.14055 0.7756 0.497 0.0
H1467 H 0.15701 0.77097 0.51619 0.0
C1468 C 0.13046 0.75387 0.40592 0.0
C1469 C 0.14396 0.75674 0.39408 0.0
C1470 C 0.12797 0.75052 0.44224 0.0
C1471 C 0.13894 0.75001 0.46707 0.0
C1472 C 0.15248 0.75206 0.45473 0.0
H1473 H 0.15277 0.71459 0.67266 0.0
H1474 H 0.14822 0.71947 0.60912 0.0
C1475 C 0.15496 0.75548 0.41865 0.0
C1476 C 0.13639 0.74774 0.50615 0.0
H1477 H 0.14335 0.76157 0.58908 0.0
C1478 C 0.13053 0.73522 0.51752 0.0
C1479 C 0.14039 0.75763 0.53231 0.0
C1480 C 0.14577 0.7717 0.52175 0.0
C1481 C 0.12941 0.73198 0.55448 0.0
C1482 C 0.13454 0.7414 0.58056 0.0
C1483 C 0.13957 0.75427 0.56914 0.0
C1484 C 0.13593 0.73774 0.61941 0.0
C1485 C 0.12287 0.71843 0.56515 0.0
C1486 C 0.13075 0.74652 0.64651 0.0
C1487 C 0.13353 0.74386 0.68305 0.0
C1488 C 0.14158 0.73239 0.69301 0.0
C1489 C 0.14647 0.72347 0.66588 0.0
C1490 C 0.14376 0.72617 0.62948 0.0
H1491 H 0.1152 0.71503 0.54462 0.0
H1492 H 0.131 0.71037 0.5668 0.0
H1493 H 0.11766 0.71917 0.59185 0.0
H1494 H 0.12479 0.75559 0.63933 0.0
H1495 H 0.12964 0.75092 0.70338 0.0
H1496 H -0.00062 0.38169 0.12397 0.0
H1497 H 0.00746 0.37843 0.18647 0.0
H1498 H 0.97214 0.40103 0.22592 0.0
H1499 H 0.9642 0.40452 0.16401 0.0
H1500 H 0.9966 0.41096 0.25195 0.0
H1501 H 0.99368 0.35408 0.27016 0.0
H1502 H 0.00311 0.35971 0.23093 0.0
H1503 H 0.98488 0.36298 0.23388 0.0
C1504 C 0.99328 0.38579 0.14606 0.0
C1505 C 0.98122 0.39343 0.13911 0.0
C1506 C 0.99785 0.38385 0.18173 0.0
C1507 C 0.99033 0.38939 0.21086 0.0
C1508 C 0.97809 0.39665 0.20388 0.0
H1509 H -0.00022 0.38341 0.44458 0.0
H1510 H 0.99201 0.38055 0.38168 0.0
C1511 C 0.97358 0.39865 0.16843 0.0
C1512 C 0.99569 0.38878 0.24844 0.0
H1513 H 0.00437 0.3669 0.31742 0.0
C1514 C 0.99828 0.40132 0.26624 0.0
C1515 C 0.99775 0.37619 0.26713 0.0
C1516 C 0.99461 0.36245 0.24975 0.0
C1517 C 0.00294 0.40164 0.30212 0.0
C1518 C 0.00532 0.38907 0.32057 0.0
C1519 C 0.00263 0.3765 0.30302 0.0
C1520 C 0.01064 0.38899 0.35814 0.0
C1521 C 0.00508 0.41546 0.32022 0.0
C1522 C 0.02382 0.39427 0.36551 0.0
C1523 C 0.02823 0.39597 0.40118 0.0
C1524 C 0.01956 0.39234 0.43019 0.0
C1525 C 0.00665 0.38633 0.42276 0.0
C1526 C 0.00222 0.38467 0.38691 0.0
H1527 H -0.00023 0.42393 0.30543 0.0
H1528 H 0.00123 0.41528 0.34853 0.0
H1529 H 0.01628 0.41786 0.3209 0.0
H1530 H 0.03053 0.3975 0.34362 0.0
H1531 H 0.03829 0.40051 0.40602 0.0
H1532 H 0.3772 0.27843 0.18293 0.0
H1533 H 0.38057 0.27596 0.11749 0.0
H1534 H 0.36042 0.23627 0.12052 0.0
H1535 H 0.35715 0.23858 0.18587 0.0
H1536 H 0.38362 0.23767 0.07235 0.0
H1537 H 0.34613 0.28065 0.05226 0.0
H1538 H 0.36098 0.28438 0.07979 0.0
H1539 H 0.34835 0.27219 0.09539 0.0
C1540 C 0.37376 0.26904 0.16977 0.0
C1541 C 0.36678 0.25875 0.18946 0.0
C1542 C 0.37563 0.26769 0.13237 0.0
C1543 C 0.37051 0.25605 0.11411 0.0
C1544 C 0.3644 0.24536 0.1341 0.0
H1545 H 0.3366 0.23744 0.91087 0.0
H1546 H 0.34271 0.24375 0.97276 0.0
C1547 C 0.36253 0.2467 0.17145 0.0
C1548 C 0.37032 0.25546 0.074 0.0
H1549 H 0.35418 0.26935 0.00025 0.0
C1550 C 0.37738 0.24472 0.05643 0.0
C1551 C 0.36204 0.26461 0.05345 0.0
C1552 C 0.35384 0.27606 0.07104 0.0
C1553 C 0.37605 0.24264 0.01893 0.0
C1554 C 0.36751 0.2516 0.99858 0.0
C1555 C 0.36082 0.2626 0.01596 0.0
C1556 C 0.36397 0.24869 0.96031 0.0
C1557 C 0.38319 0.23047 0.00158 0.0
C1558 C 0.37385 0.24967 0.9326 0.0
C1559 C 0.37035 0.24613 0.89693 0.0
C1560 C 0.35695 0.24151 0.88866 0.0
C1561 C 0.34702 0.24093 0.91638 0.0
C1562 C 0.35049 0.24454 0.95177 0.0
H1563 H 0.3881 0.22358 0.02189 0.0
H1564 H 0.37571 0.22435 0.98542 0.0
H1565 H 0.39132 0.23425 0.98288 0.0
H1566 H 0.38428 0.25301 0.93863 0.0
H1567 H 0.37821 0.24665 0.87611 0.0
H1568 H -0.00028 0.06041 0.02912 0.0
H1569 H 0.99292 0.03659 0.0166 0.0
H1570 H 0.03577 0.02452 0.01255 0.0
H1571 H 0.0427 0.04838 0.02552 0.0
H1572 H -4e-05 0.02051 0.95573 0.0
H1573 H 0.01845 0.99681 0.08407 0.0
H1574 H 0.01626 0.01522 0.07879 0.0
H1575 H 0.03104 0.00674 0.05955 0.0
C1576 C 0.00771 0.05268 0.02575 0.0
C1577 C 0.02175 0.05623 0.02843 0.0
C1578 C 0.0038 0.03909 0.01854 0.0
C1579 C 0.01383 0.0288 0.01404 0.0
C1580 C 0.02787 0.03229 0.01655 0.0
H1581 H 0.00541 0.9407 0.9724 0.0
H1582 H 0.01437 0.96408 0.98137 0.0
C1583 C 0.03181 0.04592 0.02379 0.0
C1584 C 0.00949 0.01448 0.00598 0.0
H1585 H 0.00929 0.98171 0.03998 0.0
C1586 C 0.00201 0.01201 0.9741 0.0
C1587 C 0.01222 0.00345 0.03 0.0
C1588 C 0.01984 0.00564 0.06519 0.0
C1589 C 0.99717 0.99876 0.96553 0.0
C1590 C -0.00031 0.98777 0.98984 0.0
C1591 C 0.00737 0.99019 0.02145 0.0
C1592 C 0.99422 0.97372 0.98337 0.0
C1593 C 0.98952 0.9966 0.93038 0.0
C1594 C 0.97992 0.97141 0.98179 0.0
C1595 C 0.97477 0.95808 0.97663 0.0
C1596 C 0.98385 0.94683 0.9732 0.0
C1597 C 0.99817 0.94918 0.97487 0.0
C1598 C 0.0033 0.96251 0.98002 0.0
H1599 H 0.99169 0.005 0.91068 0.0
H1600 H 0.99234 0.98656 0.91785 0.0
H1601 H 0.97825 0.99654 0.93577 0.0
H1602 H 0.97274 0.9799 0.98504 0.0
H1603 H 0.96369 0.95657 0.97566 0.0
H1604 H 0.19951 0.78749 0.27863 0.0
H1605 H 0.22363 0.78144 0.2662 0.0
H1606 H 0.21166 0.73912 0.24756 0.0
H1607 H 0.18757 0.74511 0.25939 0.0
H1608 H 0.23984 0.76233 0.30317 0.0
H1609 H 0.23491 0.748 0.15836 0.0
H1610 H 0.22175 0.75758 0.1822 0.0
H1611 H 0.22295 0.73915 0.18734 0.0
C1612 C 0.20202 0.77693 0.27158 0.0
C1613 C 0.19167 0.76678 0.26983 0.0
C1614 C 0.21578 0.77349 0.26452 0.0
C1615 C 0.21938 0.75988 0.25543 0.0
C1616 C 0.20906 0.74974 0.25373 0.0
H1617 H 0.29455 0.71384 0.22169 0.0
H1618 H 0.27072 0.72169 0.23032 0.0
C1619 C 0.19531 0.75317 0.26072 0.0
C1620 C 0.234 0.75612 0.24933 0.0
H1621 H 0.25594 0.7417 0.18766 0.0
C1622 C 0.24341 0.75794 0.27782 0.0
C1623 C 0.23857 0.75038 0.21623 0.0
C1624 C 0.22905 0.74877 0.18415 0.0
C1625 C 0.25724 0.75381 0.27443 0.0
C1626 C 0.26176 0.74789 0.24153 0.0
C1627 C 0.25239 0.74621 0.21289 0.0
C1628 C 0.27616 0.74324 0.23639 0.0
C1629 C 0.26682 0.75547 0.30637 0.0
C1630 C 0.28703 0.7528 0.23663 0.0
C1631 C 0.30063 0.74836 0.2317 0.0
C1632 C 0.30354 0.73428 0.22636 0.0
C1633 C 0.29261 0.72474 0.22588 0.0
C1634 C 0.27901 0.7292 0.23072 0.0
H1635 H 0.26107 0.75733 0.33193 0.0
H1636 H 0.27339 0.74616 0.30981 0.0
H1637 H 0.27372 0.76443 0.3016 0.0
H1638 H 0.28499 0.76371 0.24039 0.0
H1639 H 0.30884 0.75595 0.23203 0.0
H1640 H 0.54202 0.04386 0.49052 0.0
H1641 H 0.53511 0.01982 0.50087 0.0
H1642 H 0.49224 0.03172 0.49483 0.0
H1643 H 0.49902 0.05568 0.48413 0.0
H1644 H 0.5182 0.00893 0.55699 0.0
H1645 H 0.49553 8e-05 0.42089 0.0
H1646 H 0.50681 0.01445 0.43065 0.0
H1647 H 0.48894 0.01507 0.44374 0.0
C1648 C 0.53112 0.04133 0.49133 0.0
C1649 C 0.52105 0.05161 0.48631 0.0
C1650 C 0.52721 0.02763 0.49727 0.0
C1651 C 0.51318 0.02401 0.49805 0.0
C1652 C 0.50312 0.03429 0.49361 0.0
H1653 H 0.46532 0.95 0.52957 0.0
H1654 H 0.47374 0.97363 0.52146 0.0
C1655 C 0.50701 0.04797 0.48768 0.0
C1656 C 0.509 0.00951 0.50393 0.0
H1657 H 0.49122 0.98289 0.46537 0.0
C1658 C 0.51239 0.00317 0.53691 0.0
C1659 C 0.50144 0.00209 0.4776 0.0
C1660 C 0.49806 0.0082 0.44108 0.0
C1661 C 0.50805 0.98967 0.5447 0.0
C1662 C 0.50032 0.98232 0.51854 0.0
C1663 C 0.49709 0.98861 0.4854 0.0
C1664 C 0.49536 0.9681 0.52501 0.0
C1665 C 0.51142 0.98351 0.58116 0.0
C1666 C 0.50475 0.95721 0.52955 0.0
C1667 C 0.49997 0.94371 0.5342 0.0
C1668 C 0.48573 0.94091 0.53418 0.0
C1669 C 0.47635 0.95186 0.52976 0.0
C1670 C 0.48114 0.96534 0.5251 0.0
H1671 H 0.51453 0.99154 0.60105 0.0
H1672 H 0.50244 0.97775 0.59217 0.0
H1673 H 0.52014 0.97615 0.57816 0.0
H1674 H 0.51577 0.95912 0.52888 0.0
H1675 H 0.50744 0.93546 0.53739 0.0
H1676 H 0.29857 0.21362 0.77276 0.0
H1677 H 0.27431 0.2197 0.76296 0.0
H1678 H 0.28525 0.26286 0.75959 0.0
H1679 H 0.30955 0.25686 0.76898 0.0
H1680 H 0.25731 0.23684 0.80575 0.0
H1681 H 0.26302 0.25718 0.66591 0.0
H1682 H 0.27615 0.24681 0.68753 0.0
H1683 H 0.27443 0.26479 0.69868 0.0
C1684 C 0.29581 0.2244 0.7698 0.0
C1685 C 0.30595 0.23477 0.77144 0.0
C1686 C 0.28196 0.22785 0.76426 0.0
C1687 C 0.27804 0.24171 0.76007 0.0
C1688 C 0.28812 0.25209 0.76208 0.0
H1689 H 0.1995 0.28256 0.72349 0.0
H1690 H 0.22375 0.27701 0.7354 0.0
C1691 C 0.30197 0.24865 0.76762 0.0
C1692 C 0.26335 0.24528 0.75422 0.0
H1693 H 0.24118 0.26011 0.69378 0.0
C1694 C 0.25375 0.24189 0.78125 0.0
C1695 C 0.2588 0.25189 0.72223 0.0
C1696 C 0.26859 0.25529 0.69174 0.0
C1697 C 0.2397 0.2451 0.77734 0.0
C1698 C 0.23514 0.25166 0.7453 0.0
C1699 C 0.24474 0.25509 0.71833 0.0
C1700 C 0.22041 0.25496 0.73903 0.0
C1701 C 0.22989 0.24168 0.8078 0.0
C1702 C 0.21055 0.24437 0.73685 0.0
C1703 C 0.1967 0.24751 0.73008 0.0
C1704 C 0.19251 0.26128 0.72518 0.0
C1705 C 0.20242 0.27185 0.72725 0.0
C1706 C 0.21626 0.26871 0.73401 0.0
H1707 H 0.23545 0.24 0.83375 0.0
H1708 H 0.22219 0.25005 0.81166 0.0
H1709 H 0.22424 0.23204 0.8011 0.0
H1710 H 0.21359 0.23367 0.73994 0.0
H1711 H 0.1893 0.23914 0.72845 0.0
H1712 H 0.03459 0.95087 0.48201 0.0
H1713 H 0.02802 0.97489 0.49404 0.0
H1714 H 0.98563 0.96232 0.50825 0.0
H1715 H 0.99212 0.93832 0.49679 0.0
H1716 H 0.00907 0.9909 0.45531 0.0
H1717 H 0.99311 0.9854 0.59891 0.0
H1718 H 0.0032 0.97246 0.57568 0.0
H1719 H 0.98485 0.97345 0.56868 0.0
C1720 C 0.0239 0.95323 0.48798 0.0
C1721 C 0.01388 0.94274 0.48862 0.0
C1722 C 0.02016 0.96693 0.4948 0.0
C1723 C 0.00638 0.97032 0.50255 0.0
C1724 C 0.99636 0.95986 0.5031 0.0
H1725 H 0.96147 0.04668 0.53724 0.0
H1726 H 0.96839 0.02257 0.52795 0.0
C1727 C 8e-05 0.94618 0.49633 0.0
C1728 C 0.00237 0.98487 0.50859 0.0
H1729 H 0.98758 0.00665 0.57006 0.0
C1730 C 0.00446 0.99438 0.48047 0.0
C1731 C 0.9963 0.98933 0.54141 0.0
C1732 C 0.99433 0.97967 0.57305 0.0
C1733 C 0.00041 0.00822 0.48405 0.0
C1734 C 0.99431 0.01266 0.51681 0.0
C1735 C 0.99223 0.00316 0.54496 0.0
C1736 C 0.99016 0.02718 0.52252 0.0
C1737 C 0.00243 0.01791 0.45251 0.0
C1738 C 0.00015 0.03765 0.52299 0.0
C1739 C 0.99625 0.05138 0.52829 0.0
C1740 C 0.98228 0.05484 0.53335 0.0
C1741 C 0.9723 0.04431 0.53328 0.0
C1742 C 0.97623 0.03056 0.52804 0.0
H1743 H 0.00411 0.01223 0.42675 0.0
H1744 H 0.99337 0.02484 0.44925 0.0
H1745 H 0.01165 0.02444 0.45759 0.0
H1746 H 0.01098 0.0352 0.51941 0.0
H1747 H 0.00417 0.05927 0.52839 0.0
H1748 H 0.20342 0.71631 0.7892 0.0
H1749 H 0.22758 0.723 0.78089 0.0
H1750 H 0.21537 0.76569 0.7713 0.0
H1751 H 0.19118 0.7591 0.78001 0.0
H1752 H 0.23905 0.73685 0.72101 0.0
H1753 H 0.24607 0.76666 0.84828 0.0
H1754 H 0.23178 0.75496 0.84141 0.0
H1755 H 0.23156 0.77183 0.82112 0.0
C1756 C 0.20589 0.72713 0.7855 0.0
C1757 C 0.19544 0.7372 0.78536 0.0
C1758 C 0.21968 0.73092 0.78075 0.0
C1759 C 0.22324 0.74484 0.776 0.0
C1760 C 0.21283 0.75492 0.77564 0.0
H1761 H 0.30131 0.78629 0.73521 0.0
H1762 H 0.27696 0.78072 0.74593 0.0
C1763 C 0.19903 0.75113 0.7804 0.0
C1764 C 0.23783 0.74873 0.77018 0.0
H1765 H 0.26448 0.76732 0.80604 0.0
C1766 C 0.24464 0.74347 0.73963 0.0
C1767 C 0.24502 0.75742 0.79449 0.0
C1768 C 0.2383 0.76297 0.82835 0.0
C1769 C 0.25847 0.74678 0.73252 0.0
C1770 C 0.2657 0.75537 0.757 0.0
C1771 C 0.25887 0.76073 0.78739 0.0
C1772 C 0.28044 0.75876 0.75166 0.0
C1773 C 0.26515 0.74123 0.69859 0.0
C1774 C 0.29042 0.74827 0.75211 0.0
C1775 C 0.30429 0.7514 0.74598 0.0
C1776 C 0.3084 0.7651 0.73953 0.0
C1777 C 0.29843 0.77564 0.74001 0.0
C1778 C 0.28454 0.77249 0.74613 0.0
H1779 H 0.25735 0.73788 0.67836 0.0
H1780 H 0.27193 0.74913 0.68595 0.0
H1781 H 0.2716 0.73215 0.70562 0.0
H1782 H 0.28747 0.73764 0.75705 0.0
H1783 H 0.31177 0.74307 0.74599 0.0
H1784 H 0.50367 0.94249 0.08466 0.0
H1785 H 0.49725 0.96661 0.07449 0.0
H1786 H 0.51759 0.96573 0.97064 0.0
H1787 H 0.52386 0.9415 0.98034 0.0
H1788 H 0.51341 0.98969 0.06188 0.0
H1789 H 0.47864 0.97908 0.94562 0.0
H1790 H 0.48497 0.96562 0.97509 0.0
H1791 H 0.49586 0.97252 0.94008 0.0
C1792 C 0.50682 0.94745 0.0597 0.0
C1793 C 0.51419 0.9401 0.03316 0.0
C1794 C 0.50314 0.96121 0.05395 0.0
C1795 C 0.50674 0.96786 0.02156 0.0
C1796 C 0.51446 0.96068 0.99548 0.0
H1797 H 0.50488 0.05577 0.97941 0.0
H1798 H 0.51145 0.03179 0.99068 0.0
C1799 C 0.51811 0.94689 0.00116 0.0
C1800 C 0.50236 0.98229 0.01516 0.0
H1801 H 0.48333 0.00264 0.95852 0.0
C1802 C 0.50681 0.99254 0.03933 0.0
C1803 C 0.49357 0.9859 0.98606 0.0
C1804 C 0.48785 0.9752 0.96039 0.0
C1805 C 0.5029 0.00638 0.03483 0.0
C1806 C 0.49451 0.01007 0.00499 0.0
C1807 C 0.48986 -0.00022 0.98118 0.0
C1808 C 0.49049 0.02456 0.99793 0.0
C1809 C 0.5076 0.0169 0.06236 0.0
C1810 C 0.47649 0.02835 0.99727 0.0
C1811 C 0.47269 0.04204 0.99053 0.0
C1812 C 0.48284 0.05212 0.98422 0.0
C1813 C 0.49683 0.04825 0.98444 0.0
C1814 C 0.50061 0.03457 0.99108 0.0
H1815 H 0.51065 0.01194 0.08829 0.0
H1816 H 0.51673 0.02248 0.05163 0.0
H1817 H 0.49936 0.02458 0.06792 0.0
H1818 H 0.46852 0.02073 0.00227 0.0
H1819 H 0.46183 0.04473 0.99043 0.0
H1820 H 0.19956 0.21776 0.23486 0.0
H1821 H 0.22397 0.22291 0.24614 0.0
H1822 H 0.21642 0.266 0.22411 0.0
H1823 H 0.19201 0.26099 0.21336 0.0
H1824 H 0.24311 0.23482 0.1988 0.0
H1825 H 0.23618 0.26701 0.32191 0.0
H1826 H 0.22266 0.25609 0.30417 0.0
H1827 H 0.22617 0.27255 0.28365 0.0
C1828 C 0.2031 0.22834 0.23261 0.0
C1829 C 0.19389 0.23899 0.22344 0.0
C1830 C 0.21703 0.23125 0.23902 0.0
C1831 C 0.22192 0.24486 0.2365 0.0
C1832 C 0.21277 0.25548 0.22697 0.0
H1833 H 0.30296 0.28255 0.25927 0.0
H1834 H 0.27843 0.27797 0.24781 0.0
C1835 C 0.19886 0.25258 0.22064 0.0
C1836 C 0.2367 0.2479 0.24286 0.0
H1837 H 0.25867 0.26644 0.29637 0.0
C1838 C 0.24653 0.24168 0.22022 0.0
C1839 C 0.24108 0.2569 0.27074 0.0
C1840 C 0.23099 0.26344 0.29675 0.0
C1841 C 0.26067 0.24436 0.22444 0.0
C1842 C 0.26506 0.25333 0.25238 0.0
C1843 C 0.25523 0.2596 0.27492 0.0
C1844 C 0.27984 0.25609 0.25917 0.0
C1845 C 0.27079 0.23777 0.19861 0.0
C1846 C 0.28864 0.24533 0.26982 0.0
C1847 C 0.3026 0.24791 0.27637 0.0
C1848 C 0.30797 0.26132 0.27257 0.0
C1849 C 0.2991 0.27212 0.26231 0.0
C1850 C 0.28512 0.26953 0.25578 0.0
H1851 H 0.26563 0.23412 0.17349 0.0
H1852 H 0.27911 0.24511 0.1911 0.0
H1853 H 0.27563 0.22871 0.21192 0.0
H1854 H 0.2847 0.23495 0.27326 0.0
H1855 H 0.30918 0.2394 0.28443 0.0
H1856 H 0.80724 0.2336 0.78528 0.0
H1857 H 0.78262 0.23855 0.79174 0.0
H1858 H 0.77659 0.23078 0.67783 0.0
H1859 H 0.80132 0.22607 0.67101 0.0
H1860 H 0.76475 0.25488 0.69952 0.0
H1861 H 0.74971 0.21266 0.79262 0.0
H1862 H 0.76396 0.22263 0.80938 0.0
H1863 H 0.76593 0.21271 0.76851 0.0
C1864 C 0.80065 0.23278 0.76169 0.0
C1865 C 0.80619 0.22943 0.72765 0.0
C1866 C 0.78656 0.23553 0.76547 0.0
C1867 C 0.77774 0.23483 0.73537 0.0
C1868 C 0.78322 0.2313 0.70143 0.0
H1869 H 0.68818 0.24029 0.75298 0.0
H1870 H 0.71184 0.23271 0.74103 0.0
C1871 C 0.79732 0.2286 0.6976 0.0
C1872 C 0.76298 0.2386 0.73897 0.0
H1873 H 0.73364 0.23129 0.78642 0.0
C1874 C 0.75791 0.24965 0.71828 0.0
C1875 C 0.75403 0.23164 0.7631 0.0
C1876 C 0.75863 0.21916 0.78439 0.0
C1877 C 0.74421 0.25418 0.72179 0.0
C1878 C 0.73546 0.24768 0.74728 0.0
C1879 C 0.74042 0.23638 0.76722 0.0
C1880 C 0.72113 0.25245 0.75378 0.0
C1881 C 0.73923 0.2658 0.69787 0.0
C1882 C 0.71852 0.26603 0.76521 0.0
C1883 C 0.705 0.27043 0.77175 0.0
C1884 C 0.69389 0.26124 0.76749 0.0
C1885 C 0.69654 0.24761 0.75645 0.0
C1886 C 0.71004 0.24325 0.74965 0.0
H1887 H 0.74564 0.26677 0.67306 0.0
H1888 H 0.7283 0.26425 0.6897 0.0
H1889 H 0.73996 0.27569 0.71294 0.0
H1890 H 0.72695 0.2732 0.76945 0.0
H1891 H 0.70326 0.28096 0.78053 0.0
H1892 H 0.69944 0.79002 0.21776 0.0
H1893 H 0.72346 0.78282 0.22732 0.0
H1894 H 0.71015 0.74056 0.23934 0.0
H1895 H 0.68621 0.74763 0.22952 0.0
H1896 H 0.73494 0.76865 0.28798 0.0
H1897 H 0.7403 0.73856 0.16072 0.0
H1898 H 0.72652 0.75083 0.1679 0.0
H1899 H 0.72564 0.73394 0.18794 0.0
C1900 C 0.70165 0.7792 0.22239 0.0
C1901 C 0.69098 0.76937 0.2227 0.0
C1902 C 0.71535 0.77511 0.22785 0.0
C1903 C 0.71856 0.76115 0.23346 0.0
C1904 C 0.7079 0.75135 0.23435 0.0
H1905 H 0.79349 0.71445 0.2712 0.0
H1906 H 0.76963 0.72214 0.26218 0.0
C1907 C 0.69422 0.75542 0.22892 0.0
C1908 C 0.73304 0.75679 0.23894 0.0
H1909 H 0.75851 0.73657 0.20337 0.0
C1910 C 0.74014 0.7617 0.26942 0.0
C1911 C 0.73973 0.7477 0.21467 0.0
C1912 C 0.73272 0.74252 0.18078 0.0
C1913 C 0.75374 0.75751 0.27672 0.0
C1914 C 0.76042 0.74839 0.25247 0.0
C1915 C 0.75332 0.74353 0.22192 0.0
C1916 C 0.77484 0.74382 0.25818 0.0
C1917 C 0.76069 0.76262 0.31074 0.0
C1918 C 0.78564 0.75346 0.25841 0.0
C1919 C 0.79925 0.74911 0.26362 0.0
C1920 C 0.80228 0.73503 0.26839 0.0
C1921 C 0.79146 0.72537 0.26766 0.0
C1922 C 0.77784 0.72974 0.26251 0.0
H1923 H 0.75308 0.76649 0.33084 0.0
H1924 H 0.76693 0.75432 0.3235 0.0
H1925 H 0.76772 0.77128 0.30379 0.0
H1926 H 0.78357 0.76434 0.25432 0.0
H1927 H 0.80739 0.75678 0.26383 0.0
H1928 H 0.68962 0.25465 0.27812 0.0
H1929 H 0.71344 0.26291 0.27267 0.0
H1930 H 0.72799 0.22084 0.26849 0.0
H1931 H 0.70424 0.21248 0.27431 0.0
H1932 H 0.74282 0.23828 0.3168 0.0
H1933 H 0.73714 0.26154 0.17994 0.0
H1934 H 0.72473 0.26713 0.21301 0.0
H1935 H 0.72478 0.24946 0.19823 0.0
C1936 C 0.6979 0.24716 0.27595 0.0
C1937 C 0.69509 0.23292 0.27646 0.0
C1938 C 0.71147 0.2519 0.2727 0.0
C1939 C 0.72241 0.24247 0.26972 0.0
C1940 C 0.71965 0.22826 0.27062 0.0
H1941 H 0.81063 0.24435 0.24245 0.0
H1942 H 0.78651 0.23823 0.25356 0.0
C1943 C 0.7061 0.22351 0.27387 0.0
C1944 C 0.73678 0.24738 0.26602 0.0
H1945 H 0.75855 0.26475 0.20945 0.0
C1946 C 0.74628 0.24407 0.29337 0.0
C1947 C 0.74119 0.25498 0.23547 0.0
C1948 C 0.73149 0.25842 0.20479 0.0
C1949 C 0.76013 0.24819 0.29098 0.0
C1950 C 0.7646 0.25559 0.26014 0.0
C1951 C 0.75505 0.25908 0.23307 0.0
C1952 C 0.77924 0.25937 0.25474 0.0
C1953 C 0.76984 0.2447 0.32162 0.0
C1954 C 0.78307 0.27327 0.25106 0.0
C1955 C 0.79683 0.27679 0.24449 0.0
C1956 C 0.80695 0.26645 0.24126 0.0
C1957 C 0.80307 0.25254 0.245 0.0
C1958 C 0.78932 0.24903 0.25156 0.0
H1959 H 0.76414 0.24254 0.34711 0.0
H1960 H 0.77582 0.23532 0.31443 0.0
H1961 H 0.77725 0.25325 0.32659 0.0
H1962 H 0.7754 0.28137 0.25319 0.0
H1963 H 0.79953 0.2876 0.24164 0.0
H1964 H 0.70158 0.71375 0.71573 0.0
H1965 H 0.72559 0.72098 0.72424 0.0
H1966 H 0.71287 0.76367 0.72375 0.0
H1967 H 0.68885 0.75655 0.71483 0.0
H1968 H 0.73618 0.75802 0.6801 0.0
H1969 H 0.74191 0.73651 0.81871 0.0
H1970 H 0.73588 0.72437 0.78549 0.0
H1971 H 0.72529 0.73893 0.79744 0.0
C1972 C 0.7039 0.72468 0.71746 0.0
C1973 C 0.69335 0.73459 0.7148 0.0
C1974 C 0.7176 0.72878 0.7225 0.0
C1975 C 0.72094 0.74284 0.72516 0.0
C1976 C 0.71046 0.75277 0.72194 0.0
H1977 H 0.79736 0.78858 0.75759 0.0
H1978 H 0.77334 0.78187 0.74631 0.0
C1979 C 0.69676 0.74868 0.7169 0.0
C1980 C 0.7354 0.74723 0.73102 0.0
H1981 H 0.76222 0.745 0.79067 0.0
C1982 C 0.74188 0.75524 0.70432 0.0
C1983 C 0.74275 0.74358 0.76268 0.0
C1984 C 0.73609 0.73548 0.79291 0.0
C1985 C 0.75567 0.75947 0.70811 0.0
C1986 C 0.76303 0.75576 0.7397 0.0
C1987 C 0.75653 0.7478 0.76645 0.0
C1988 C 0.77756 0.75991 0.74551 0.0
C1989 C 0.76233 0.76759 0.67795 0.0
C1990 C 0.78781 0.74978 0.74939 0.0
C1991 C 0.80148 0.75358 0.75601 0.0
C1992 C 0.80513 0.76758 0.75908 0.0
C1993 C 0.79485 0.77772 0.75517 0.0
C1994 C 0.78116 0.77391 0.74855 0.0
H1995 H 0.75646 0.76669 0.65222 0.0
H1996 H 0.76268 0.77867 0.68561 0.0
H1997 H 0.7731 0.76405 0.67322 0.0
H1998 H 0.78521 0.73893 0.74729 0.0
H1999 H 0.80918 0.74553 0.75896 0.0
H2000 H 0.53324 0.54569 0.51239 0.0
H2001 H 0.52576 0.52166 0.50529 0.0
H2002 H 0.48321 0.53487 0.50448 0.0
H2003 H 0.49059 0.55889 0.51113 0.0
H2004 H 0.50828 0.50639 0.55158 0.0
H2005 H 0.48625 0.51086 0.41318 0.0
H2006 H 0.49764 0.52373 0.43218 0.0
H2007 H 0.47976 0.52325 0.44515 0.0
C2008 C 0.5223 0.54347 0.51049 0.0
C2009 C 0.5125 0.55415 0.51213 0.0
C2010 C 0.51805 0.52976 0.50649 0.0
C2011 C 0.50395 0.52654 0.50386 0.0
C2012 C 0.49415 0.53718 0.50574 0.0
H2013 H 0.45909 0.449 0.48083 0.0
H2014 H 0.46541 0.47333 0.48939 0.0
C2015 C 0.49839 0.55088 0.50973 0.0
C2016 C 0.49948 0.51201 0.50012 0.0
H2017 H 0.48243 0.48975 0.44407 0.0
C2018 C 0.50267 0.50272 0.52804 0.0
C2019 C 0.49209 0.50732 0.46945 0.0
C2020 C 0.48881 0.51676 0.4381 0.0
C2021 C 0.49856 0.48885 0.52626 0.0
C2022 C 0.49128 0.48413 0.49546 0.0
C2023 C 0.48798 0.49344 0.46768 0.0
C2024 C 0.48742 0.46946 0.49098 0.0
C2025 C 0.50188 0.4794 0.55756 0.0
C2026 C 0.49771 0.45931 0.48865 0.0
C2027 C 0.49415 0.44548 0.48378 0.0
C2028 C 0.48022 0.44155 0.48095 0.0
C2029 C 0.46991 0.45173 0.48305 0.0
C2030 C 0.47349 0.4656 0.4879 0.0
H2031 H 0.50408 0.4853 0.58271 0.0
H2032 H 0.49324 0.47214 0.56289 0.0
H2033 H 0.5112 0.47323 0.55086 0.0
H2034 H 0.50853 0.46212 0.49023 0.0
H2035 H 0.50233 0.43787 0.48206 0.0
H2036 H 0.00292 0.4394 0.03125 0.0
H2037 H 0.01082 0.46327 0.02456 0.0
H2038 H 0.96857 0.47692 0.01463 0.0
H2039 H 0.96057 0.45308 0.0217 0.0
H2040 H 0.00599 0.48078 0.96536 0.0
H2041 H 0.9846 0.50264 0.0925 0.0
H2042 H 0.9864 0.48429 0.08512 0.0
H2043 H 0.97222 0.49357 0.06518 0.0
C2044 C 0.99531 0.4475 0.0279 0.0
C2045 C 0.98113 0.44441 0.02709 0.0
C2046 C -0.00016 0.46111 0.02407 0.0
C2047 C 0.99027 0.47184 0.01958 0.0
C2048 C 0.9761 0.46879 0.01877 0.0
H2049 H 0.99433 0.55928 0.97848 0.0
H2050 H 0.98757 0.53528 0.98886 0.0
C2051 C 0.97156 0.45518 0.02261 0.0
C2052 C 0.99514 0.48616 0.01425 0.0
H2053 H 0.99344 0.51866 0.04961 0.0
C2054 C 0.00334 0.48906 0.98387 0.0
C2055 C 0.99164 0.49689 0.03851 0.0
C2056 C 0.98334 0.49422 0.07235 0.0
C2057 C 0.00786 0.50253 0.97657 0.0
C2058 C 0.00425 0.51329 0.00066 0.0
C2059 C 0.99616 0.51036 0.03121 0.0
C2060 C 0.0085 0.52774 0.99422 0.0
C2061 C 0.01612 0.50521 0.94266 0.0
C2062 C 0.02252 0.53142 0.99412 0.0
C2063 C 0.02642 0.54513 0.98811 0.0
C2064 C 0.01635 0.55534 0.98234 0.0
C2065 C 0.00232 0.55162 0.98276 0.0
C2066 C 0.99844 0.53793 0.98873 0.0
H2067 H 0.01526 0.49657 0.92301 0.0
H2068 H 0.01267 0.51488 0.92924 0.0
H2069 H 0.02718 0.50641 0.94991 0.0
H2070 H 0.03042 0.52372 0.99895 0.0
H2071 H 0.0373 0.54772 0.98814 0.0
H2072 H 0.53788 0.45166 0.97152 0.0
H2073 H 0.52979 0.47553 0.97774 0.0
H2074 H 0.4876 0.46167 0.96872 0.0
H2075 H 0.49557 0.4378 0.96286 0.0
H2076 H 0.51301 0.4915 0.93005 0.0
H2077 H 0.48821 0.48373 0.06416 0.0
H2078 H 0.50038 0.47158 0.04526 0.0
H2079 H 0.4828 0.47183 0.02966 0.0
C2080 C 0.52689 0.45371 0.9708 0.0
C2081 C 0.51734 0.44287 0.96696 0.0
C2082 C 0.52229 0.46733 0.97433 0.0
C2083 C 0.50811 0.4703 0.97426 0.0
C2084 C 0.49858 0.45954 0.96953 0.0
H2085 H 0.45986 0.54518 0.00053 0.0
H2086 H 0.46774 0.52145 0.99017 0.0
C2087 C 0.50316 0.44593 0.96601 0.0
C2088 C 0.50325 0.48465 0.97922 0.0
H2089 H 0.48447 0.50531 0.03561 0.0
C2090 C 0.50681 0.49456 0.95316 0.0
C2091 C 0.49515 0.48854 0.0094 0.0
C2092 C 0.49149 0.47841 0.03893 0.0
C2093 C 0.50228 0.50828 0.95619 0.0
C2094 C 0.4942 0.51218 0.98641 0.0
C2095 C 0.49063 0.50225 0.01243 0.0
C2096 C 0.48949 0.52656 0.99187 0.0
C2097 C 0.50595 0.51842 0.92671 0.0
C2098 C 0.49912 0.53722 0.99665 0.0
C2099 C 0.49466 0.55075 0.00254 0.0
C2100 C 0.48049 0.55382 0.00398 0.0
C2101 C 0.47085 0.54311 0.99946 0.0
C2102 C 0.47533 0.52957 0.99356 0.0
H2103 H 0.50898 0.51309 0.90128 0.0
H2104 H 0.49716 0.52544 0.92083 0.0
H2105 H 0.51483 0.5248 0.93572 0.0
H2106 H 0.5101 0.53505 0.9962 0.0
H2107 H 0.50233 0.55878 0.00612 0.0
H2108 H 0.03868 0.45379 0.51901 0.0
H2109 H 0.03063 0.47759 0.51062 0.0
H2110 H 0.98844 0.46401 0.52227 0.0
H2111 H 0.99636 0.44023 0.53026 0.0
H2112 H 0.99305 0.48096 0.46183 0.0
H2113 H 0.01475 0.50398 0.58736 0.0
H2114 H 0.02697 0.49472 0.55993 0.0
H2115 H 0.013 0.48556 0.58111 0.0
C2116 C 0.0277 0.45591 0.52002 0.0
C2117 C 0.01815 0.44518 0.52534 0.0
C2118 C 0.02313 0.4695 0.51541 0.0
C2119 C 0.00896 0.47254 0.51628 0.0
C2120 C -0.00058 0.46185 0.52166 0.0
H2121 H 0.95891 0.5462 0.48616 0.0
H2122 H 0.96719 0.52258 0.49601 0.0
C2123 C 0.00397 0.44829 0.52625 0.0
C2124 C 0.00398 0.4868 0.51024 0.0
H2125 H 0.00485 0.51945 0.54493 0.0
C2126 C 0.99558 0.48938 0.48004 0.0
C2127 C 0.00734 0.49772 0.53406 0.0
C2128 C 0.01591 0.49539 0.56763 0.0
C2129 C 0.99058 0.50268 0.47268 0.0
C2130 C 0.9939 0.5136 0.49655 0.0
C2131 C 0.00233 0.51102 0.52672 0.0
C2132 C 0.98883 0.52782 0.49055 0.0
C2133 C 0.98204 0.50499 0.43905 0.0
C2134 C 0.99827 0.53859 0.485 0.0
C2135 C 0.99358 0.55206 0.47958 0.0
C2136 C 0.97936 0.555 0.47981 0.0
C2137 C 0.96992 0.54421 0.48563 0.0
C2138 C 0.97462 0.53072 0.49108 0.0
H2139 H 0.98331 0.49646 0.41922 0.0
H2140 H 0.97096 0.50553 0.44662 0.0
H2141 H 0.98487 0.51487 0.42571 0.0
H2142 H 0.00927 0.53654 0.48465 0.0
H2143 H 0.0011 0.56017 0.47525 0.0
H2144 H 0.0812 0.09592 0.08278 0.0
H2145 H 0.10203 0.10705 0.10731 0.0
H2146 H 0.08322 0.147 0.09215 0.0
H2147 H 0.06249 0.13607 0.06796 0.0
H2148 H 0.11998 0.12906 0.07677 0.0
H2149 H 0.09282 0.14426 0.20248 0.0
H2150 H 0.08651 0.13085 0.17274 0.0
H2151 H 0.0834 0.14873 0.16228 0.0
C2152 C 0.08159 0.10708 0.08437 0.0
C2153 C 0.07019 0.11513 0.07378 0.0
C2154 C 0.09347 0.11339 0.09836 0.0
C2155 C 0.09401 0.1278 0.10203 0.0
C2156 C 0.08287 0.13584 0.09003 0.0
H2157 H 0.14584 0.1947 0.1157 0.0
H2158 H 0.13557 0.17272 0.09882 0.0
C2159 C 0.07106 0.12958 0.07613 0.0
C2160 C 0.10589 0.13468 0.11942 0.0
H2161 H 0.11303 0.1574 0.18716 0.0
C2162 C 0.11863 0.13503 0.10136 0.0
C2163 C 0.10421 0.14214 0.15198 0.0
C2164 C 0.09104 0.14138 0.17374 0.0
C2165 C 0.12935 0.14365 0.11348 0.0
C2166 C 0.1271 0.15226 0.1439 0.0
C2167 C 0.11478 0.15093 0.16363 0.0
C2168 C 0.13626 0.16406 0.15288 0.0
C2169 C 0.14281 0.14371 0.09296 0.0
C2170 C 0.14026 0.16655 0.18888 0.0
C2171 C 0.14589 0.1793 0.19876 0.0
C2172 C 0.14764 0.18974 0.17276 0.0
C2173 C 0.14463 0.18685 0.13634 0.0
C2174 C 0.13889 0.17418 0.12655 0.0
H2175 H 0.14506 0.13331 0.08168 0.0
H2176 H 0.14201 0.15097 0.06983 0.0
H2177 H 0.15158 0.14694 0.1104 0.0
H2178 H 0.13827 0.15892 0.20969 0.0
H2179 H 0.14817 0.18123 0.22703 0.0
H2180 H 0.15322 0.82674 0.30715 0.0
H2181 H 0.14422 0.84884 0.33032 0.0
H2182 H 0.11245 0.82691 0.38854 0.0
H2183 H 0.12119 0.80504 0.36544 0.0
H2184 H 0.11612 0.85799 0.31809 0.0
H2185 H 0.12808 0.85458 0.46402 0.0
H2186 H 0.13752 0.84498 0.43006 0.0
H2187 H 0.12125 0.83865 0.44679 0.0
C2188 C 0.14442 0.82669 0.32523 0.0
C2189 C 0.13784 0.81422 0.3344 0.0
C2190 C 0.13934 0.83927 0.33847 0.0
C2191 C 0.12786 0.83943 0.36165 0.0
C2192 C 0.12151 0.82696 0.37134 0.0
H2193 H 0.05389 0.87092 0.40137 0.0
H2194 H 0.07596 0.86219 0.37956 0.0
C2195 C 0.12643 0.81448 0.35781 0.0
C2196 C 0.12129 0.8525 0.37296 0.0
H2197 H 0.10693 0.86702 0.4481 0.0
C2198 C 0.11449 0.86034 0.34648 0.0
C2199 C 0.11935 0.85567 0.40996 0.0
C2200 C 0.12707 0.8481 0.43933 0.0
C2201 C 0.10452 0.87016 0.35624 0.0
C2202 C 0.10132 0.87204 0.39322 0.0
C2203 C 0.10931 0.86543 0.41971 0.0
C2204 C 0.08813 0.87836 0.40443 0.0
C2205 C 0.09672 0.87766 0.32689 0.0
C2206 C 0.08772 0.89026 0.42607 0.0
C2207 C 0.07503 0.89534 0.4385 0.0
C2208 C 0.0627 0.88837 0.43005 0.0
C2209 C 0.06322 0.87648 0.4084 0.0
C2210 C 0.07581 0.87155 0.39566 0.0
H2211 H 0.10302 0.87857 0.30186 0.0
H2212 H 0.08723 0.87177 0.32014 0.0
H2213 H 0.09361 0.88815 0.33594 0.0
H2214 H 0.09719 0.89552 0.43346 0.0
H2215 H 0.07488 0.90453 0.45522 0.0
H2216 H 0.38269 0.8101 0.69676 0.0
H2217 H 0.39082 0.83173 0.67071 0.0
H2218 H 0.3498 0.84049 0.63124 0.0
H2219 H 0.34152 0.81869 0.65748 0.0
H2220 H 0.37062 0.84222 0.57825 0.0
H2221 H 0.38512 0.87228 0.69931 0.0
H2222 H 0.39155 0.85494 0.70212 0.0
H2223 H 0.37318 0.85793 0.70113 0.0
C2224 C 0.37534 0.81671 0.68302 0.0
C2225 C 0.36149 0.81272 0.67908 0.0
C2226 C 0.37997 0.82913 0.66842 0.0
C2227 C 0.37085 0.83781 0.64963 0.0
C2228 C 0.35694 0.83399 0.64607 0.0
H2229 H 0.42273 0.90561 0.5727 0.0
H2230 H 0.40051 0.89575 0.59148 0.0
C2231 C 0.35225 0.82156 0.66101 0.0
C2232 C 0.37645 0.85002 0.63073 0.0
H2233 H 0.39886 0.87656 0.64494 0.0
C2234 C 0.37645 0.85002 0.59275 0.0
C2235 C 0.38377 0.86038 0.64962 0.0
C2236 C 0.38328 0.86148 0.69032 0.0
C2237 C 0.38487 0.85917 0.57331 0.0
C2238 C 0.39359 0.86832 0.59248 0.0
C2239 C 0.39234 0.86938 0.63023 0.0
C2240 C 0.40567 0.87491 0.57513 0.0
C2241 C 0.38496 0.85839 0.53255 0.0
C2242 C 0.41582 0.86649 0.55939 0.0
C2243 C 0.42847 0.87204 0.54895 0.0
C2244 C 0.43124 0.88612 0.55419 0.0
C2245 C 0.42084 0.89471 0.5683 0.0
C2246 C 0.40816 0.88911 0.57897 0.0
H2247 H 0.37465 0.85533 0.52207 0.0
H2248 H 0.38794 0.86842 0.52025 0.0
H2249 H 0.39248 0.85041 0.5238 0.0
H2250 H 0.41428 0.85544 0.55705 0.0
H2251 H 0.4363 0.86518 0.53815 0.0
H2252 H 0.42418 0.09144 0.92653 0.0
H2253 H 0.40327 0.10257 0.90254 0.0
H2254 H 0.42027 0.14254 0.92845 0.0
H2255 H 0.44101 0.13159 0.9525 0.0
H2256 H 0.39131 0.13896 0.9456 0.0
H2257 H 0.40514 0.12394 0.80438 0.0
H2258 H 0.40387 0.1106 0.83816 0.0
H2259 H 0.41754 0.12306 0.84081 0.0
C2260 C 0.42334 0.10259 0.92754 0.0
C2261 C 0.43425 0.11067 0.94108 0.0
C2262 C 0.41144 0.10891 0.91374 0.0
C2263 C 0.41034 0.12335 0.91346 0.0
C2264 C 0.42095 0.13136 0.92847 0.0
H2265 H 0.38364 0.19061 0.80041 0.0
H2266 H 0.39359 0.1695 0.82526 0.0
C2267 C 0.43281 0.12509 0.94208 0.0
C2268 C 0.39871 0.13046 0.89544 0.0
H2269 H 0.38792 0.14066 0.81169 0.0
C2270 C 0.39026 0.13909 0.91637 0.0
C2271 C 0.39749 0.13059 0.8573 0.0
C2272 C 0.40649 0.12162 0.83362 0.0
C2273 C 0.38125 0.14858 0.90005 0.0
C2274 C 0.38066 0.1493 0.86185 0.0
C2275 C 0.3884 0.14 0.84098 0.0
C2276 C 0.37406 0.16111 0.84337 0.0
C2277 C 0.37327 0.15849 0.92365 0.0
C2278 C 0.35973 0.1632 0.84458 0.0
C2279 C 0.35399 0.17532 0.83036 0.0
C2280 C 0.36254 0.18546 0.81487 0.0
C2281 C 0.3768 0.18301 0.81235 0.0
C2282 C 0.38249 0.17094 0.82641 0.0
H2283 H 0.37599 0.15744 0.95275 0.0
H2284 H 0.37528 0.16931 0.91514 0.0
H2285 H 0.36205 0.15651 0.92059 0.0
H2286 H 0.35305 0.15565 0.85728 0.0
H2287 H 0.34295 0.17693 0.83254 0.0
H2288 H 0.84046 0.82554 0.82565 0.0
H2289 H 0.84976 0.84725 0.84997 0.0
H2290 H 0.89105 0.8337 0.82412 0.0
H2291 H 0.8819 0.81212 0.79997 0.0
H2292 H 0.86866 0.84868 0.90821 0.0
H2293 H 0.89011 0.87362 0.78605 0.0
H2294 H 0.87709 0.86026 0.78386 0.0
H2295 H 0.89504 0.85578 0.78898 0.0
C2296 C 0.8515 0.82732 0.82464 0.0
C2297 C 0.86048 0.81716 0.81097 0.0
C2298 C 0.85677 0.8397 0.83851 0.0
C2299 C 0.87105 0.84214 0.83829 0.0
C2300 C 0.87997 0.83214 0.8238 0.0
H2301 H 0.93336 0.87172 0.9631 0.0
H2302 H 0.91229 0.8614 0.93926 0.0
C2303 C 0.87473 0.81977 0.81027 0.0
C2304 C 0.877 0.8544 0.85625 0.0
H2305 H 0.90134 0.8793 0.84302 0.0
C2306 C 0.87551 0.85566 0.89389 0.0
C2307 C 0.88571 0.86366 0.83746 0.0
C2308 C 0.88697 0.86337 0.79678 0.0
C2309 C 0.88358 0.86504 0.91363 0.0
C2310 C 0.89343 0.87319 0.89519 0.0
C2311 C 0.89389 0.87291 0.85722 0.0
C2312 C 0.90478 0.88025 0.91457 0.0
C2313 C 0.88196 0.86566 0.95419 0.0
C2314 C 0.90755 0.8943 0.9087 0.0
C2315 C 0.91966 0.90024 0.92232 0.0
C2316 C 0.92925 0.89212 0.94142 0.0
C2317 C 0.92616 0.87822 0.94848 0.0
C2318 C 0.91405 0.87234 0.93515 0.0
H2319 H 0.87124 0.86303 0.96237 0.0
H2320 H 0.88898 0.85798 0.96684 0.0
H2321 H 0.88458 0.87605 0.96488 0.0
H2322 H 0.90059 0.90053 0.89253 0.0
H2323 H 0.92183 0.91098 0.91638 0.0
H2324 H 0.93984 0.13393 0.56701 0.0
H2325 H 0.91796 0.14411 0.58573 0.0
H2326 H 0.89929 0.10368 0.58885 0.0
H2327 H 0.92138 0.09331 0.57051 0.0
H2328 H 0.89118 0.1429 0.55498 0.0
H2329 H 0.89363 0.11896 0.69218 0.0
H2330 H 0.90842 0.1192 0.66252 0.0
H2331 H 0.89423 0.10783 0.65319 0.0
C2332 C 0.93107 0.12719 0.5714 0.0
C2333 C 0.93234 0.11282 0.56764 0.0
C2334 C 0.91856 0.13302 0.58195 0.0
C2335 C 0.90706 0.12463 0.58898 0.0
C2336 C 0.90811 0.1103 0.58398 0.0
H2337 H 0.84021 0.1812 0.65672 0.0
H2338 H 0.84883 0.15962 0.62992 0.0
C2339 C 0.92069 0.10442 0.57341 0.0
C2340 C 0.89443 0.13114 0.60361 0.0
H2341 H 0.8782 0.13726 0.68398 0.0
C2342 C 0.88801 0.14144 0.58288 0.0
C2343 C 0.89036 0.12912 0.63999 0.0
C2344 C 0.897 0.11823 0.6635 0.0
C2345 C 0.87855 0.15064 0.59849 0.0
C2346 C 0.8753 0.1493 0.63567 0.0
C2347 C 0.88074 0.1382 0.65548 0.0
C2348 C 0.86885 0.16081 0.65585 0.0
C2349 C 0.87311 0.16247 0.57599 0.0
C2350 C 0.87701 0.16822 0.68047 0.0
C2351 C 0.87214 0.18042 0.69577 0.0
C2352 C 0.85898 0.18544 0.68681 0.0
C2353 C 0.85043 0.17758 0.66392 0.0
C2354 C 0.85535 0.16531 0.64851 0.0
H2355 H 0.87775 0.16274 0.5485 0.0
H2356 H 0.86175 0.16146 0.573 0.0
H2357 H 0.87525 0.17247 0.58961 0.0
H2358 H 0.88746 0.16492 0.68649 0.0
H2359 H 0.87892 0.18619 0.71353 0.0
H2360 H 0.66099 0.17111 0.32422 0.0
H2361 H 0.65184 0.1492 0.34745 0.0
H2362 H 0.61096 0.16099 0.31273 0.0
H2363 H 0.61997 0.18274 0.28951 0.0
H2364 H 0.63248 0.14847 0.40218 0.0
H2365 H 0.6126 0.12047 0.28304 0.0
H2366 H 0.62529 0.1341 0.2794 0.0
H2367 H 0.60716 0.13818 0.28228 0.0
C2368 C 0.65011 0.16885 0.32077 0.0
C2369 C 0.64115 0.17862 0.30524 0.0
C2370 C 0.64492 0.15635 0.33402 0.0
C2371 C 0.63077 0.1534 0.33134 0.0
C2372 C 0.62196 0.1629 0.3143 0.0
H2373 H 0.56689 0.1281 0.45556 0.0
H2374 H 0.58811 0.1375 0.43003 0.0
C2375 C 0.6271 0.1754 0.30134 0.0
C2376 C 0.62469 0.14151 0.35063 0.0
H2377 H 0.60017 0.11661 0.33987 0.0
C2378 C 0.62574 0.1412 0.38852 0.0
C2379 C 0.61611 0.13186 0.3328 0.0
C2380 C 0.61534 0.13107 0.29208 0.0
C2381 C 0.61731 0.13248 0.40918 0.0
C2382 C 0.60753 0.12403 0.39141 0.0
C2383 C 0.60754 0.12326 0.35348 0.0
C2384 C 0.59583 0.11778 0.41112 0.0
C2385 C 0.61838 0.13295 0.44988 0.0
C2386 C 0.59314 0.10358 0.40889 0.0
C2387 C 0.58097 0.09816 0.42354 0.0
C2388 C 0.57125 0.10695 0.44 0.0
C2389 C 0.57419 0.12109 0.44307 0.0
C2390 C 0.58637 0.12645 0.42875 0.0
H2391 H 0.62899 0.13582 0.45859 0.0
H2392 H 0.61119 0.14091 0.46045 0.0
H2393 H 0.61562 0.12285 0.46215 0.0
H2394 H 0.60026 0.09676 0.39499 0.0
H2395 H 0.57891 0.08722 0.42068 0.0
H2396 H 0.56524 0.87612 0.0326 0.0
H2397 H 0.5871 0.8687 0.05848 0.0
H2398 H 0.58649 0.90343 0.1317 0.0
H2399 H 0.56416 0.91069 0.10656 0.0
H2400 H 0.61314 0.8786 0.07159 0.0
H2401 H 0.584 0.87104 0.20046 0.0
H2402 H 0.57534 0.87552 0.15894 0.0
H2403 H 0.58523 0.88829 0.18293 0.0
C2404 C 0.56985 0.88235 0.05374 0.0
C2405 C 0.56285 0.89379 0.06816 0.0
C2406 C 0.58242 0.87815 0.06839 0.0
C2407 C 0.58827 0.88533 0.0976 0.0
C2408 C 0.58198 0.89756 0.10973 0.0
H2409 H 0.65439 0.83086 0.18457 0.0
H2410 H 0.64467 0.85345 0.16755 0.0
C2411 C 0.56928 0.90172 0.09524 0.0
C2412 C 0.59965 0.87866 0.1179 0.0
H2413 H 0.60472 0.85927 0.19386 0.0
C2414 C 0.61156 0.87469 0.09878 0.0
C2415 C 0.59753 0.87359 0.15344 0.0
C2416 C 0.58483 0.87722 0.17523 0.0
C2417 C 0.62064 0.86471 0.11277 0.0
C2418 C 0.6178 0.8588 0.14691 0.0
C2419 C 0.60677 0.86385 0.1676 0.0
C2420 C 0.62407 0.84556 0.15813 0.0
C2421 C 0.63243 0.85963 0.08963 0.0
C2422 C 0.61566 0.83377 0.15885 0.0
C2423 C 0.62109 0.82102 0.16866 0.0
C2424 C 0.63509 0.81975 0.17794 0.0
C2425 C 0.64356 0.83157 0.17744 0.0
C2426 C 0.63806 0.84443 0.16765 0.0
H2427 H 0.63281 0.86488 0.06291 0.0
H2428 H 0.64235 0.86148 0.10382 0.0
H2429 H 0.63145 0.84833 0.08511 0.0
H2430 H 0.60484 0.83443 0.15144 0.0
H2431 H 0.61431 0.81212 0.16871 0.0
H2432 H 0.57166 0.59099 0.57227 0.0
H2433 H 0.59264 0.60134 0.59816 0.0
H2434 H 0.57909 0.64157 0.56265 0.0
H2435 H 0.55831 0.63137 0.53669 0.0
H2436 H 0.60802 0.63602 0.55212 0.0
H2437 H 0.58954 0.62495 0.69217 0.0
H2438 H 0.59104 0.61079 0.66082 0.0
H2439 H 0.57818 0.62384 0.65356 0.0
C2440 C 0.5733 0.60201 0.56953 0.0
C2441 C 0.56332 0.61041 0.55278 0.0
C2442 C 0.58523 0.60789 0.58443 0.0
C2443 C 0.58729 0.62222 0.58261 0.0
C2444 C 0.57767 0.63048 0.56431 0.0
H2445 H 0.61468 0.69016 0.6917 0.0
H2446 H 0.60427 0.66904 0.6683 0.0
C2447 C 0.56578 0.62465 0.5496 0.0
C2448 C 0.59881 0.62903 0.60182 0.0
H2449 H 0.60791 0.64045 0.68589 0.0
C2450 C 0.60829 0.63673 0.58142 0.0
C2451 C 0.59902 0.62993 0.64003 0.0
C2452 C 0.5889 0.62202 0.66314 0.0
C2453 C 0.61735 0.64608 0.59808 0.0
C2454 C 0.61696 0.6476 0.63615 0.0
C2455 C 0.60818 0.63918 0.65673 0.0
C2456 C 0.62373 0.65942 0.65422 0.0
C2457 C 0.62647 0.65504 0.57469 0.0
C2458 C 0.63815 0.66083 0.65493 0.0
C2459 C 0.64415 0.67296 0.66829 0.0
C2460 C 0.63578 0.68379 0.68106 0.0
C2461 C 0.62139 0.68203 0.68188 0.0
C2462 C 0.61543 0.66995 0.66863 0.0
H2463 H 0.62437 0.6536 0.54536 0.0
H2464 H 0.62495 0.66611 0.58153 0.0
H2465 H 0.63745 0.65244 0.57983 0.0
H2466 H 0.64471 0.65274 0.64429 0.0
H2467 H 0.65528 0.67404 0.66748 0.0
H2468 H 0.5648 0.36562 0.96788 0.0
H2469 H 0.58615 0.35516 0.94636 0.0
H2470 H 0.60037 0.39492 0.90911 0.0
H2471 H 0.57883 0.4055 0.93039 0.0
H2472 H 0.60075 0.37558 0.85611 0.0
H2473 H 0.62624 0.35419 0.97719 0.0
H2474 H 0.60834 0.3495 0.97661 0.0
H2475 H 0.61313 0.36744 0.97999 0.0
C2476 C 0.5726 0.37221 0.9559 0.0
C2477 C 0.57013 0.38635 0.95063 0.0
C2478 C 0.58487 0.36624 0.9439 0.0
C2479 C 0.59495 0.3743 0.92659 0.0
C2480 C 0.59278 0.38855 0.92272 0.0
H2481 H 0.65991 0.31958 0.84084 0.0
H2482 H 0.65074 0.34093 0.86762 0.0
C2483 C 0.58048 0.39457 0.93487 0.0
C2484 C 0.60662 0.36736 0.90816 0.0
H2485 H 0.63005 0.34151 0.92063 0.0
C2486 C 0.60746 0.36842 0.87032 0.0
C2487 C 0.61555 0.35821 0.92666 0.0
C2488 C 0.61587 0.35739 0.96741 0.0
C2489 C 0.61601 0.35959 0.85029 0.0
C2490 C 0.62373 0.34935 0.8686 0.0
C2491 C 0.62395 0.34923 0.90658 0.0
C2492 C 0.62982 0.3375 0.84908 0.0
C2493 C 0.61618 0.36082 0.8096 0.0
C2494 C 0.62109 0.32857 0.82983 0.0
C2495 C 0.62624 0.31641 0.81484 0.0
C2496 C 0.64023 0.31293 0.81885 0.0
C2497 C 0.64909 0.32207 0.83719 0.0
C2498 C 0.64388 0.33423 0.8525 0.0
H2499 H 0.61394 0.37158 0.80092 0.0
H2500 H 0.6263 0.35763 0.79824 0.0
H2501 H 0.60804 0.35406 0.79805 0.0
H2502 H 0.61014 0.33074 0.82759 0.0
H2503 H 0.61916 0.30956 0.80093 0.0
H2504 H 0.88028 0.31401 0.20361 0.0
H2505 H 0.88844 0.33514 0.17489 0.0
H2506 H 0.84793 0.34213 0.12981 0.0
H2507 H 0.83963 0.32084 0.15868 0.0
H2508 H 0.8692 0.34251 0.0787 0.0
H2509 H 0.88219 0.37632 0.19402 0.0
H2510 H 0.88886 0.35922 0.20074 0.0
H2511 H 0.87047 0.36187 0.19812 0.0
C2512 C 0.87303 0.32017 0.18817 0.0
C2513 C 0.85934 0.31579 0.18329 0.0
C2514 C 0.87767 0.33231 0.17201 0.0
C2515 C 0.86872 0.3403 0.15072 0.0
C2516 C 0.85493 0.33617 0.14651 0.0
H2517 H 0.91918 0.40724 0.06232 0.0
H2518 H 0.89737 0.39699 0.08273 0.0
C2519 C 0.85023 0.32404 0.16299 0.0
C2520 C 0.87444 0.35196 0.12974 0.0
H2521 H 0.89625 0.37928 0.13967 0.0
C2522 C 0.87478 0.35083 0.09188 0.0
C2523 C 0.88145 0.36296 0.14686 0.0
C2524 C 0.8806 0.36526 0.18718 0.0
C2525 C 0.88318 0.35954 0.07107 0.0
C2526 C 0.89153 0.36944 0.08875 0.0
C2527 C 0.89 0.37154 0.12614 0.0
C2528 C 0.90343 0.37599 0.07051 0.0
C2529 C 0.88359 0.35759 0.03059 0.0
C2530 C 0.91397 0.36759 0.05651 0.0
C2531 C 0.9264 0.37338 0.04508 0.0
C2532 C 0.92856 0.38768 0.04761 0.0
C2533 C 0.91777 0.39618 0.06001 0.0
C2534 C 0.90532 0.39036 0.07163 0.0
H2535 H 0.87346 0.35388 0.02029 0.0
H2536 H 0.88632 0.36733 0.01645 0.0
H2537 H 0.89143 0.34965 0.02379 0.0
H2538 H 0.91289 0.35646 0.05626 0.0
H2539 H 0.93453 0.36657 0.03568 0.0
H2540 H 0.93159 0.63158 0.46086 0.0
H2541 H 0.91009 0.64147 0.43848 0.0
H2542 H 0.8964 0.60108 0.40467 0.0
H2543 H 0.91807 0.59105 0.42707 0.0
H2544 H 0.89573 0.62044 0.34997 0.0
H2545 H 0.86991 0.64146 0.4711 0.0
H2546 H 0.88781 0.64622 0.47049 0.0
H2547 H 0.8831 0.62826 0.47377 0.0
C2548 C 0.92389 0.62475 0.44937 0.0
C2549 C 0.92651 0.61056 0.44556 0.0
C2550 C 0.91154 0.63039 0.43688 0.0
C2551 C 0.90156 0.62197 0.42043 0.0
C2552 C 0.90392 0.60771 0.41768 0.0
H2553 H 0.8364 0.67641 0.33569 0.0
H2554 H 0.84543 0.65479 0.36127 0.0
C2555 C 0.91628 0.60201 0.43045 0.0
C2556 C 0.88969 0.62854 0.402 0.0
H2557 H 0.86591 0.65404 0.41456 0.0
C2558 C 0.8889 0.62748 0.36416 0.0
C2559 C 0.8806 0.63751 0.42052 0.0
C2560 C 0.8803 0.63831 0.46127 0.0
C2561 C 0.88027 0.63625 0.34415 0.0
C2562 C 0.87242 0.64637 0.3625 0.0
C2563 C 0.87211 0.64641 0.40047 0.0
C2564 C 0.86639 0.65829 0.34318 0.0
C2565 C 0.88019 0.6351 0.30344 0.0
C2566 C 0.87519 0.66734 0.32455 0.0
C2567 C 0.87013 0.67966 0.3103 0.0
C2568 C 0.85616 0.68317 0.31442 0.0
C2569 C 0.84722 0.6739 0.332 0.0
C2570 C 0.85233 0.66158 0.34659 0.0
H2571 H 0.8825 0.62437 0.29463 0.0
H2572 H 0.87007 0.63828 0.29197 0.0
H2573 H 0.88832 0.64193 0.29213 0.0
H2574 H 0.88614 0.66515 0.32236 0.0
H2575 H 0.87726 0.68661 0.29693 0.0
H2576 H 0.35648 0.31791 0.27422 0.0
H2577 H 0.36762 0.33904 0.29604 0.0
H2578 H 0.36633 0.32335 0.40525 0.0
H2579 H 0.35482 0.30246 0.38388 0.0
H2580 H 0.36378 0.3522 0.40211 0.0
H2581 H 0.4082 0.33281 0.32079 0.0
H2582 H 0.39276 0.33653 0.29571 0.0
H2583 H 0.39286 0.32266 0.32805 0.0
C2584 C 0.3582 0.31916 0.30301 0.0
C2585 C 0.35504 0.30845 0.32729 0.0
C2586 C 0.3646 0.33121 0.3154 0.0
C2587 C 0.36812 0.33257 0.35209 0.0
C2588 C 0.36377 0.32246 0.37679 0.0
H2589 H 0.43954 0.36133 0.45584 0.0
H2590 H 0.41912 0.3497 0.43217 0.0
C2591 C 0.35723 0.31051 0.3645 0.0
C2592 C 0.37807 0.34323 0.36412 0.0
H2593 H 0.41209 0.35206 0.35743 0.0
C2594 C 0.3743 0.35235 0.39202 0.0
C2595 C 0.39184 0.34323 0.35117 0.0
C2596 C 0.39675 0.33324 0.32251 0.0
C2597 C 0.38407 0.36119 0.40805 0.0
C2598 C 0.39785 0.36091 0.39558 0.0
C2599 C 0.40147 0.35221 0.36679 0.0
C2600 C 0.40912 0.36844 0.414 0.0
C2601 C 0.3798 0.37026 0.43929 0.0
C2602 C 0.4101 0.38289 0.41227 0.0
C2603 C 0.4218 0.38961 0.42598 0.0
C2604 C 0.43267 0.38192 0.44122 0.0
C2605 C 0.43137 0.36752 0.44409 0.0
C2606 C 0.4197 0.36086 0.43062 0.0
H2607 H 0.36912 0.36802 0.44858 0.0
H2608 H 0.38701 0.36887 0.4624 0.0
H2609 H 0.38031 0.38125 0.43086 0.0
H2610 H 0.4021 0.38889 0.39911 0.0
H2611 H 0.42257 0.40072 0.42332 0.0
H2612 H 0.37948 0.68664 0.19521 0.0
H2613 H 0.38871 0.66574 0.16747 0.0
H2614 H 0.34759 0.65329 0.13659 0.0
H2615 H 0.33821 0.67438 0.16422 0.0
H2616 H 0.38274 0.63692 0.17773 0.0
H2617 H 0.36942 0.65629 0.03984 0.0
H2618 H 0.36924 0.6675 0.07887 0.0
H2619 H 0.35585 0.65489 0.07294 0.0
C2620 C 0.37236 0.67938 0.18295 0.0
C2621 C 0.35815 0.68219 0.18155 0.0
C2622 C 0.37764 0.66743 0.16722 0.0
C2623 C 0.36884 0.65808 0.14968 0.0
C2624 C 0.35455 0.66048 0.14969 0.0
H2625 H 0.41914 0.59048 0.05698 0.0
H2626 H 0.39795 0.60069 0.08196 0.0
C2627 C 0.34922 0.67248 0.16558 0.0
C2628 C 0.37503 0.64651 0.12927 0.0
H2629 H 0.38485 0.63777 0.04359 0.0
C2630 C 0.38293 0.6368 0.14837 0.0
C2631 C 0.37523 0.64649 0.09099 0.0
C2632 C 0.36705 0.65685 0.06923 0.0
C2633 C 0.39187 0.62774 0.13027 0.0
C2634 C 0.39276 0.62835 0.09208 0.0
C2635 C 0.38406 0.63733 0.07286 0.0
C2636 C 0.40434 0.6218 0.0725 0.0
C2637 C 0.40113 0.6184 0.15223 0.0
C2638 C 0.41462 0.63028 0.0577 0.0
C2639 C 0.42663 0.62453 0.04345 0.0
C2640 C 0.42856 0.61016 0.04365 0.0
C2641 C 0.41793 0.6016 0.05663 0.0
C2642 C 0.40587 0.6074 0.07101 0.0
H2643 H 0.40011 0.62023 0.1818 0.0
H2644 H 0.39845 0.60746 0.14667 0.0
H2645 H 0.4121 0.61996 0.14443 0.0
H2646 H 0.41362 0.64143 0.05862 0.0
H2647 H 0.43461 0.63138 0.03345 0.0
H2648 H 0.05957 0.63414 0.95541 0.0
H2649 H 0.08103 0.64451 0.93415 0.0
H2650 H 0.09774 0.60405 0.91244 0.0
H2651 H 0.07613 0.5935 0.93362 0.0
H2652 H 0.10965 0.64042 0.95531 0.0
H2653 H 0.09797 0.62478 0.81316 0.0
H2654 H 0.08491 0.62438 0.84798 0.0
H2655 H 0.09842 0.6117 0.84776 0.0
C2656 C 0.06786 0.62742 0.94654 0.0
C2657 C 0.06615 0.61303 0.94582 0.0
C2658 C 0.08013 0.63336 0.93455 0.0
C2659 C 0.09088 0.62504 0.92148 0.0
C2660 C 0.08948 0.61062 0.92218 0.0
H2661 H 0.15892 0.67861 0.84469 0.0
H2662 H 0.14899 0.65716 0.86891 0.0
C2663 C 0.07717 0.60464 0.93435 0.0
C2664 C 0.10293 0.63179 0.90463 0.0
H2665 H 0.11491 0.64169 0.82178 0.0
C2666 C 0.11114 0.64043 0.9262 0.0
C2667 C 0.10473 0.63174 0.86665 0.0
C2668 C 0.09605 0.62272 0.84231 0.0
C2669 C 0.12038 0.64985 0.91055 0.0
C2670 C 0.12144 0.65049 0.87242 0.0
C2671 C 0.11404 0.64109 0.85102 0.0
C2672 C 0.12798 0.66241 0.85441 0.0
C2673 C 0.12805 0.65982 0.93466 0.0
C2674 C 0.11948 0.67217 0.8374 0.0
C2675 C 0.12506 0.68434 0.82369 0.0
C2676 C 0.13928 0.68693 0.8266 0.0
C2677 C 0.14791 0.67687 0.84221 0.0
C2678 C 0.14227 0.66466 0.8561 0.0
H2679 H 0.12523 0.65862 0.96363 0.0
H2680 H 0.13933 0.6581 0.93189 0.0
H2681 H 0.12585 0.67062 0.9263 0.0
H2682 H 0.10841 0.67059 0.83592 0.0
H2683 H 0.11818 0.69187 0.81166 0.0
H2684 H 0.06242 0.36585 0.53735 0.0
H2685 H 0.0836 0.35465 0.55744 0.0
H2686 H 0.10166 0.39439 0.58076 0.0
H2687 H 0.08026 0.40576 0.561 0.0
H2688 H 0.11188 0.35698 0.53764 0.0
H2689 H 0.10145 0.37414 0.67923 0.0
H2690 H 0.08853 0.37548 0.64422 0.0
H2691 H 0.10296 0.38711 0.6446 0.0
C2692 C 0.07095 0.37224 0.54626 0.0
C2693 C 0.06964 0.38666 0.54806 0.0
C2694 C 0.08307 0.36583 0.55758 0.0
C2695 C 0.09411 0.37369 0.57098 0.0
C2696 C 0.09317 0.38816 0.57091 0.0
H2697 H 0.15894 0.31642 0.64954 0.0
H2698 H 0.15035 0.33812 0.6233 0.0
C2699 C 0.08098 0.39462 0.55951 0.0
C2700 C 0.10586 0.36641 0.58794 0.0
H2701 H 0.11757 0.35647 0.67106 0.0
C2702 C 0.11347 0.35711 0.56671 0.0
C2703 C 0.10781 0.36664 0.62589 0.0
C2704 C 0.09976 0.37631 0.65003 0.0
C2705 C 0.12216 0.34725 0.5827 0.0
C2706 C 0.12333 0.34685 0.62083 0.0
C2707 C 0.11662 0.35688 0.64182 0.0
C2708 C 0.12916 0.33468 0.6395 0.0
C2709 C 0.12908 0.3366 0.559 0.0
C2710 C 0.12014 0.32585 0.65809 0.0
C2711 C 0.12497 0.31356 0.67301 0.0
C2712 C 0.13894 0.30989 0.66973 0.0
C2713 C 0.14811 0.31899 0.65233 0.0
C2714 C 0.14323 0.33134 0.63726 0.0
H2715 H 0.12611 0.33766 0.53007 0.0
H2716 H 0.14045 0.33771 0.5611 0.0
H2717 H 0.12634 0.32603 0.56823 0.0
H2718 H 0.10923 0.32825 0.66003 0.0
H2719 H 0.11768 0.30678 0.68638 0.0
loop_
_geom_bond_atom_site_label_1
_geom_bond_atom_site_label_2
_geom_bond_distance
_geom_bond_site_symmetry_2
_ccdc_geom_bond_type
In0 O1 2.294 . S
In0 O2 2.326 . S
In0 O6 2.266 . S
In0 O7 2.326 . S
In0 O8 2.254 1_455 S
In0 O9 2.326 . S
In0 O11 2.325 . S
In0 O12 2.326 . S
O1 In0 2.294 . S
O1 C10 1.240 . S
O2 In0 2.326 . S
O2 C10 1.252 . S
C3 O6 1.252 . S
C3 O7 1.260 . S
C4 O11 1.264 . S
C4 O12 1.252 . S
C5 O8 1.242 1_456 S
C5 O9 1.260 1_556 S
O6 In0 2.266 . S
O6 C3 1.252 . S
O7 In0 2.326 . S
O7 C3 1.260 . S
O8 In0 2.254 1_655 S
O8 C5 1.242 1_654 S
O9 In0 2.326 . S
O9 C5 1.260 1_554 S
C10 O1 1.240 . S
C10 O2 1.252 . S
O11 In0 2.325 . S
O11 C4 1.264 . S
O12 In0 2.326 . S
O12 C4 1.252 . S
In13 O14 2.294 . S
In13 O15 2.326 . S
In13 O19 2.266 . S
In13 O20 2.326 . S
In13 O21 2.266 . S
In13 O22 2.326 . S
In13 O24 2.294 . S
In13 O25 2.326 . S
O14 In13 2.294 . S
O14 C23 1.240 . S
O15 In13 2.326 . S
O15 C23 1.252 . S
C16 O19 1.252 . S
C16 O20 1.260 . S
C17 O24 1.240 . S
C17 O25 1.252 . S
C18 O21 1.252 . S
C18 O22 1.260 . S
O19 In13 2.266 . S
O19 C16 1.252 . S
O20 In13 2.326 . S
O20 C16 1.260 . S
O21 In13 2.266 . S
O21 C18 1.252 . S
O22 In13 2.326 . S
O22 C18 1.260 . S
C23 O14 1.240 . S
C23 O15 1.252 . S
O24 In13 2.294 . S
O24 C17 1.240 . S
O25 In13 2.326 . S
O25 C17 1.252 . S
In26 O27 2.294 . S
In26 O28 2.326 . S
In26 O32 2.266 . S
In26 O33 2.326 . S
In26 O34 2.266 . S
In26 O35 2.326 . S
In26 O37 2.294 . S
In26 O38 2.326 . S
O27 In26 2.294 . S
O27 C36 1.240 . S
O28 In26 2.326 . S
O28 C36 1.252 . S
C29 O32 1.252 . S
C29 O33 1.260 . S
C30 O37 1.240 . S
C30 O38 1.252 . S
C31 O34 1.252 . S
C31 O35 1.260 . S
O32 In26 2.266 . S
O32 C29 1.252 . S
O33 In26 2.326 . S
O33 C29 1.260 . S
O34 In26 2.266 . S
O34 C31 1.252 . S
O35 In26 2.326 . S
O35 C31 1.260 . S
C36 O27 1.240 . S
C36 O28 1.252 . S
O37 In26 2.294 . S
O37 C30 1.240 . S
O38 In26 2.326 . S
O38 C30 1.252 . S
In39 O40 2.294 . S
In39 O41 2.326 . S
In39 O45 2.266 . S
In39 O46 2.326 . S
In39 O47 2.266 . S
In39 O48 2.326 . S
In39 O50 2.294 . S
In39 O51 2.326 . S
O40 In39 2.294 . S
O40 C49 1.240 . S
O41 In39 2.326 . S
O41 C49 1.252 . S
C42 O45 1.252 . S
C42 O46 1.260 . S
C43 O50 1.240 . S
C43 O51 1.252 . S
C44 O47 1.252 . S
C44 O48 1.260 . S
O45 In39 2.266 . S
O45 C42 1.252 . S
O46 In39 2.326 . S
O46 C42 1.260 . S
O47 In39 2.266 . S
O47 C44 1.252 . S
O48 In39 2.326 . S
O48 C44 1.260 . S
C49 O40 1.240 . S
C49 O41 1.252 . S
O50 In39 2.294 . S
O50 C43 1.240 . S
O51 In39 2.326 . S
O51 C43 1.252 . S
In52 O53 2.294 . S
In52 O54 2.326 . S
In52 O58 2.266 . S
In52 O59 2.326 . S
In52 O60 2.254 1_455 S
In52 O61 2.326 . S
In52 O63 2.325 . S
In52 O64 2.326 . S
O53 In52 2.294 . S
O53 C62 1.240 . S
O54 In52 2.326 . S
O54 C62 1.252 . S
C55 O58 1.252 . S
C55 O59 1.260 . S
C56 O63 1.265 . S
C56 O64 1.252 . S
C57 O60 1.242 1_455 S
C57 O61 1.260 . S
O58 In52 2.266 . S
O58 C55 1.252 . S
O59 In52 2.326 . S
O59 C55 1.260 . S
O60 In52 2.254 1_655 S
O60 C57 1.242 1_655 S
O61 In52 2.326 . S
O61 C57 1.260 . S
C62 O53 1.240 . S
C62 O54 1.252 . S
O63 In52 2.325 . S
O63 C56 1.265 . S
O64 In52 2.326 . S
O64 C56 1.252 . S
In65 O66 2.294 . S
In65 O67 2.326 . S
In65 O71 2.266 . S
In65 O72 2.326 . S
In65 O73 2.266 . S
In65 O74 2.326 . S
In65 O76 2.294 . S
In65 O77 2.326 . S
O66 In65 2.294 . S
O66 C75 1.240 . S
O67 In65 2.326 . S
O67 C75 1.252 . S
C68 O71 1.252 . S
C68 O72 1.260 . S
C69 O76 1.240 . S
C69 O77 1.252 . S
C70 O73 1.252 . S
C70 O74 1.260 . S
O71 In65 2.266 . S
O71 C68 1.252 . S
O72 In65 2.326 . S
O72 C68 1.260 . S
O73 In65 2.266 . S
O73 C70 1.252 . S
O74 In65 2.326 . S
O74 C70 1.260 . S
C75 O66 1.240 . S
C75 O67 1.252 . S
O76 In65 2.294 . S
O76 C69 1.240 . S
O77 In65 2.326 . S
O77 C69 1.252 . S
In78 O79 2.294 . S
In78 O80 2.326 . S
In78 O84 2.266 . S
In78 O85 2.326 . S
In78 O86 2.266 . S
In78 O87 2.326 . S
In78 O89 2.294 . S
In78 O90 2.326 . S
O79 In78 2.294 . S
O79 C88 1.240 . S
O80 In78 2.326 . S
O80 C88 1.252 . S
C81 O84 1.252 1_554 S
C81 O85 1.260 1_554 S
C82 O89 1.240 . S
C82 O90 1.252 . S
C83 O86 1.252 . S
C83 O87 1.260 . S
O84 In78 2.266 . S
O84 C81 1.252 1_556 S
O85 In78 2.326 . S
O85 C81 1.260 1_556 S
O86 In78 2.266 . S
O86 C83 1.252 . S
O87 In78 2.326 . S
O87 C83 1.260 . S
C88 O79 1.240 . S
C88 O80 1.252 . S
O89 In78 2.294 . S
O89 C82 1.240 . S
O90 In78 2.326 . S
O90 C82 1.252 . S
In91 O92 2.294 . S
In91 O93 2.326 . S
In91 O97 2.266 . S
In91 O98 2.326 . S
In91 O99 2.266 . S
In91 O100 2.326 . S
In91 O102 2.294 . S
In91 O103 2.326 . S
O92 In91 2.294 . S
O92 C101 1.240 . S
O93 In91 2.326 . S
O93 C101 1.252 . S
C94 O97 1.252 . S
C94 O98 1.260 . S
C95 O102 1.240 . S
C95 O103 1.252 . S
C96 O99 1.252 . S
C96 O100 1.260 . S
O97 In91 2.266 . S
O97 C94 1.252 . S
O98 In91 2.326 . S
O98 C94 1.260 . S
O99 In91 2.266 . S
O99 C96 1.252 . S
O100 In91 2.326 . S
O100 C96 1.260 . S
C101 O92 1.240 . S
C101 O93 1.252 . S
O102 In91 2.294 . S
O102 C95 1.240 . S
O103 In91 2.326 . S
O103 C95 1.252 . S
In104 O105 2.325 . S
In104 O106 2.326 . S
In104 O110 2.254 1_655 S
In104 O111 2.326 . S
In104 O112 2.266 . S
In104 O113 2.326 . S
In104 O115 2.294 . S
In104 O116 2.326 . S
O105 In104 2.325 . S
O105 C114 1.264 . S
O106 In104 2.326 . S
O106 C114 1.252 . S
C107 O110 1.242 1_654 S
C107 O111 1.260 1_554 S
C108 O115 1.240 . S
C108 O116 1.252 . S
C109 O112 1.252 . S
C109 O113 1.260 . S
O110 In104 2.254 1_455 S
O110 C107 1.242 1_456 S
O111 In104 2.326 . S
O111 C107 1.260 1_556 S
O112 In104 2.266 . S
O112 C109 1.252 . S
O113 In104 2.326 . S
O113 C109 1.260 . S
C114 O105 1.264 . S
C114 O106 1.252 . S
O115 In104 2.294 . S
O115 C108 1.240 . S
O116 In104 2.326 . S
O116 C108 1.252 . S
In117 O118 2.294 . S
In117 O119 2.326 . S
In117 O123 2.266 . S
In117 O124 2.326 . S
In117 O125 2.266 . S
In117 O126 2.326 . S
In117 O128 2.294 . S
In117 O129 2.326 . S
O118 In117 2.294 . S
O118 C127 1.240 . S
O119 In117 2.326 . S
O119 C127 1.252 . S
C120 O123 1.252 . S
C120 O124 1.260 . S
C121 O128 1.240 . S
C121 O129 1.252 . S
C122 O125 1.252 . S
C122 O126 1.260 . S
O123 In117 2.266 . S
O123 C120 1.252 . S
O124 In117 2.326 . S
O124 C120 1.260 . S
O125 In117 2.266 . S
O125 C122 1.252 . S
O126 In117 2.326 . S
O126 C122 1.260 . S
C127 O118 1.240 . S
C127 O119 1.252 . S
O128 In117 2.294 . S
O128 C121 1.240 . S
O129 In117 2.326 . S
O129 C121 1.252 . S
In130 O131 2.294 . S
In130 O132 2.326 . S
In130 O136 2.266 . S
In130 O137 2.326 . S
In130 O138 2.266 . S
In130 O139 2.326 . S
In130 O141 2.294 . S
In130 O142 2.326 . S
O131 In130 2.294 . S
O131 C140 1.240 . S
O132 In130 2.326 . S
O132 C140 1.252 . S
C133 O136 1.252 . S
C133 O137 1.260 . S
C134 O141 1.240 . S
C134 O142 1.252 . S
C135 O138 1.252 . S
C135 O139 1.260 . S
O136 In130 2.266 . S
O136 C133 1.252 . S
O137 In130 2.326 . S
O137 C133 1.260 . S
O138 In130 2.266 . S
O138 C135 1.252 . S
O139 In130 2.326 . S
O139 C135 1.260 . S
C140 O131 1.240 . S
C140 O132 1.252 . S
O141 In130 2.294 . S
O141 C134 1.240 . S
O142 In130 2.326 . S
O142 C134 1.252 . S
In143 O144 2.294 . S
In143 O145 2.326 . S
In143 O149 2.266 . S
In143 O150 2.326 . S
In143 O151 2.266 . S
In143 O152 2.326 . S
In143 O154 2.294 . S
In143 O155 2.326 . S
O144 In143 2.294 . S
O144 C153 1.240 . S
O145 In143 2.326 . S
O145 C153 1.252 . S
C146 O149 1.252 . S
C146 O150 1.260 . S
C147 O154 1.240 . S
C147 O155 1.252 . S
C148 O151 1.252 . S
C148 O152 1.260 . S
O149 In143 2.266 . S
O149 C146 1.252 . S
O150 In143 2.326 . S
O150 C146 1.260 . S
O151 In143 2.266 . S
O151 C148 1.252 . S
O152 In143 2.326 . S
O152 C148 1.260 . S
C153 O144 1.240 . S
C153 O145 1.252 . S
O154 In143 2.294 . S
O154 C147 1.240 . S
O155 In143 2.326 . S
O155 C147 1.252 . S
In156 O157 2.294 . S
In156 O158 2.326 . S
In156 O162 2.266 . S
In156 O163 2.326 . S
In156 O164 2.254 1_655 S
In156 O165 2.326 . S
In156 O167 2.325 . S
In156 O168 2.326 . S
O157 In156 2.294 . S
O157 C166 1.240 . S
O158 In156 2.326 . S
O158 C166 1.252 . S
C159 O162 1.252 . S
C159 O163 1.260 . S
C160 O167 1.265 . S
C160 O168 1.252 . S
C161 O164 1.242 1_655 S
C161 O165 1.260 . S
O162 In156 2.266 . S
O162 C159 1.252 . S
O163 In156 2.326 . S
O163 C159 1.260 . S
O164 In156 2.254 1_455 S
O164 C161 1.242 1_455 S
O165 In156 2.326 . S
O165 C161 1.260 . S
C166 O157 1.240 . S
C166 O158 1.252 . S
O167 In156 2.325 . S
O167 C160 1.265 . S
O168 In156 2.326 . S
O168 C160 1.252 . S
In169 O170 2.294 . S
In169 O171 2.326 . S
In169 O175 2.266 . S
In169 O176 2.326 . S
In169 O177 2.266 . S
In169 O178 2.326 . S
In169 O180 2.294 . S
In169 O181 2.326 . S
O170 In169 2.294 . S
O170 C179 1.240 . S
O171 In169 2.326 . S
O171 C179 1.252 . S
C172 O175 1.252 . S
C172 O176 1.260 . S
C173 O180 1.240 . S
C173 O181 1.252 . S
C174 O177 1.252 . S
C174 O178 1.260 . S
O175 In169 2.266 . S
O175 C172 1.252 . S
O176 In169 2.326 . S
O176 C172 1.260 . S
O177 In169 2.266 . S
O177 C174 1.252 . S
O178 In169 2.326 . S
O178 C174 1.260 . S
C179 O170 1.240 . S
C179 O171 1.252 . S
O180 In169 2.294 . S
O180 C173 1.240 . S
O181 In169 2.326 . S
O181 C173 1.252 . S
In182 O183 2.294 . S
In182 O184 2.326 . S
In182 O188 2.266 . S
In182 O189 2.326 . S
In182 O190 2.266 . S
In182 O191 2.326 . S
In182 O193 2.294 . S
In182 O194 2.326 . S
O183 In182 2.294 . S
O183 C192 1.240 . S
O184 In182 2.326 . S
O184 C192 1.252 . S
C185 O188 1.252 1_556 S
C185 O189 1.260 1_556 S
C186 O193 1.240 . S
C186 O194 1.252 . S
C187 O190 1.252 . S
C187 O191 1.260 . S
O188 In182 2.266 . S
O188 C185 1.252 1_554 S
O189 In182 2.326 . S
O189 C185 1.260 1_554 S
O190 In182 2.266 . S
O190 C187 1.252 . S
O191 In182 2.326 . S
O191 C187 1.260 . S
C192 O183 1.240 . S
C192 O184 1.252 . S
O193 In182 2.294 . S
O193 C186 1.240 . S
O194 In182 2.326 . S
O194 C186 1.252 . S
In195 O196 2.294 . S
In195 O197 2.326 . S
In195 O201 2.266 . S
In195 O202 2.326 . S
In195 O203 2.266 . S
In195 O204 2.326 . S
In195 O206 2.294 . S
In195 O207 2.326 . S
O196 In195 2.294 . S
O196 C205 1.240 . S
O197 In195 2.326 . S
O197 C205 1.252 . S
C198 O201 1.252 . S
C198 O202 1.260 . S
C199 O206 1.240 . S
C199 O207 1.252 . S
C200 O203 1.252 . S
C200 O204 1.260 . S
O201 In195 2.266 . S
O201 C198 1.252 . S
O202 In195 2.326 . S
O202 C198 1.260 . S
O203 In195 2.266 . S
O203 C200 1.252 . S
O204 In195 2.326 . S
O204 C200 1.260 . S
C205 O196 1.240 . S
C205 O197 1.252 . S
O206 In195 2.294 . S
O206 C199 1.240 . S
O207 In195 2.326 . S
O207 C199 1.252 . S
In208 O209 2.294 . S
In208 O210 2.326 . S
In208 O214 2.266 . S
In208 O215 2.326 . S
In208 O216 2.266 . S
In208 O217 2.326 . S
In208 O219 2.294 . S
In208 O220 2.326 . S
O209 In208 2.294 . S
O209 C218 1.240 . S
O210 In208 2.326 . S
O210 C218 1.252 . S
C211 O214 1.252 . S
C211 O215 1.260 . S
C212 O219 1.240 . S
C212 O220 1.252 . S
C213 O216 1.252 . S
C213 O217 1.260 . S
O214 In208 2.266 . S
O214 C211 1.252 . S
O215 In208 2.326 . S
O215 C211 1.260 . S
O216 In208 2.266 . S
O216 C213 1.252 . S
O217 In208 2.326 . S
O217 C213 1.260 . S
C218 O209 1.240 . S
C218 O210 1.252 . S
O219 In208 2.294 . S
O219 C212 1.240 . S
O220 In208 2.326 . S
O220 C212 1.252 . S
In221 O222 2.294 . S
In221 O223 2.326 . S
In221 O227 2.266 . S
In221 O228 2.326 . S
In221 O229 2.266 . S
In221 O230 2.326 . S
In221 O232 2.294 . S
In221 O233 2.326 . S
O222 In221 2.294 . S
O222 C231 1.240 . S
O223 In221 2.326 . S
O223 C231 1.252 . S
C224 O227 1.252 . S
C224 O228 1.260 . S
C225 O232 1.240 . S
C225 O233 1.252 . S
C226 O229 1.252 . S
C226 O230 1.260 . S
O227 In221 2.266 . S
O227 C224 1.252 . S
O228 In221 2.326 . S
O228 C224 1.260 . S
O229 In221 2.266 . S
O229 C226 1.252 . S
O230 In221 2.326 . S
O230 C226 1.260 . S
C231 O222 1.240 . S
C231 O223 1.252 . S
O232 In221 2.294 . S
O232 C225 1.240 . S
O233 In221 2.326 . S
O233 C225 1.252 . S
In234 O235 2.325 . S
In234 O236 2.326 . S
In234 O240 2.254 1_655 S
In234 O241 2.326 . S
In234 O242 2.266 . S
In234 O243 2.326 . S
In234 O245 2.294 . S
In234 O246 2.326 . S
O235 In234 2.325 . S
O235 C244 1.264 . S
O236 In234 2.326 . S
O236 C244 1.252 . S
C237 O240 1.242 1_656 S
C237 O241 1.260 1_556 S
C238 O245 1.240 . S
C238 O246 1.252 . S
C239 O242 1.252 . S
C239 O243 1.260 . S
O240 In234 2.254 1_455 S
O240 C237 1.242 1_454 S
O241 In234 2.326 . S
O241 C237 1.260 1_554 S
O242 In234 2.266 . S
O242 C239 1.252 . S
O243 In234 2.326 . S
O243 C239 1.260 . S
C244 O235 1.264 . S
C244 O236 1.252 . S
O245 In234 2.294 . S
O245 C238 1.240 . S
O246 In234 2.326 . S
O246 C238 1.252 . S
In247 O248 2.294 . S
In247 O249 2.326 . S
In247 O253 2.266 . S
In247 O254 2.326 . S
In247 O255 2.266 . S
In247 O256 2.326 . S
In247 O258 2.294 . S
In247 O259 2.326 . S
O248 In247 2.294 . S
O248 C257 1.240 . S
O249 In247 2.326 . S
O249 C257 1.252 . S
C250 O253 1.252 . S
C250 O254 1.260 . S
C251 O258 1.240 . S
C251 O259 1.252 . S
C252 O255 1.252 . S
C252 O256 1.260 . S
O253 In247 2.266 . S
O253 C250 1.252 . S
O254 In247 2.326 . S
O254 C250 1.260 . S
O255 In247 2.266 . S
O255 C252 1.252 . S
O256 In247 2.326 . S
O256 C252 1.260 . S
C257 O248 1.240 . S
C257 O249 1.252 . S
O258 In247 2.294 . S
O258 C251 1.240 . S
O259 In247 2.326 . S
O259 C251 1.252 . S
In260 O261 2.294 . S
In260 O262 2.326 . S
In260 O266 2.266 . S
In260 O267 2.326 . S
In260 O268 2.266 . S
In260 O269 2.326 . S
In260 O271 2.294 . S
In260 O272 2.326 . S
O261 In260 2.294 . S
O261 C270 1.240 . S
O262 In260 2.326 . S
O262 C270 1.252 . S
C263 O266 1.252 . S
C263 O267 1.260 . S
C264 O271 1.240 . S
C264 O272 1.252 . S
C265 O268 1.252 1_554 S
C265 O269 1.260 1_554 S
O266 In260 2.266 . S
O266 C263 1.252 . S
O267 In260 2.326 . S
O267 C263 1.260 . S
O268 In260 2.266 . S
O268 C265 1.252 1_556 S
O269 In260 2.326 . S
O269 C265 1.260 1_556 S
C270 O261 1.240 . S
C270 O262 1.252 . S
O271 In260 2.294 . S
O271 C264 1.240 . S
O272 In260 2.326 . S
O272 C264 1.252 . S
In273 O274 2.294 . S
In273 O275 2.326 . S
In273 O279 2.266 . S
In273 O280 2.326 . S
In273 O281 2.266 . S
In273 O282 2.326 . S
In273 O284 2.294 . S
In273 O285 2.326 . S
O274 In273 2.294 . S
O274 C283 1.240 . S
O275 In273 2.326 . S
O275 C283 1.252 . S
C276 O279 1.252 . S
C276 O280 1.260 . S
C277 O284 1.240 . S
C277 O285 1.252 . S
C278 O281 1.252 . S
C278 O282 1.260 . S
O279 In273 2.266 . S
O279 C276 1.252 . S
O280 In273 2.326 . S
O280 C276 1.260 . S
O281 In273 2.266 . S
O281 C278 1.252 . S
O282 In273 2.326 . S
O282 C278 1.260 . S
C283 O274 1.240 . S
C283 O275 1.252 . S
O284 In273 2.294 . S
O284 C277 1.240 . S
O285 In273 2.326 . S
O285 C277 1.252 . S
In286 O287 2.294 . S
In286 O288 2.326 . S
In286 O292 2.266 . S
In286 O293 2.326 . S
In286 O294 2.254 1_655 S
In286 O295 2.326 . S
In286 O297 2.326 . S
In286 O298 2.326 . S
O287 In286 2.294 . S
O287 C296 1.240 . S
O288 In286 2.326 . S
O288 C296 1.252 . S
C289 O292 1.252 . S
C289 O293 1.260 . S
C290 O297 1.265 . S
C290 O298 1.252 . S
C291 O294 1.242 1_655 S
C291 O295 1.260 . S
O292 In286 2.266 . S
O292 C289 1.252 . S
O293 In286 2.326 . S
O293 C289 1.260 . S
O294 In286 2.254 1_455 S
O294 C291 1.242 1_455 S
O295 In286 2.326 . S
O295 C291 1.260 . S
C296 O287 1.240 . S
C296 O288 1.252 . S
O297 In286 2.326 . S
O297 C290 1.265 . S
O298 In286 2.326 . S
O298 C290 1.252 . S
In299 O300 2.294 . S
In299 O301 2.326 . S
In299 O305 2.266 . S
In299 O306 2.326 . S
In299 O307 2.266 . S
In299 O308 2.326 . S
In299 O310 2.294 . S
In299 O311 2.326 . S
O300 In299 2.294 . S
O300 C309 1.240 . S
O301 In299 2.326 . S
O301 C309 1.252 . S
C302 O305 1.252 . S
C302 O306 1.260 . S
C303 O310 1.240 . S
C303 O311 1.252 . S
C304 O307 1.252 . S
C304 O308 1.260 . S
O305 In299 2.266 . S
O305 C302 1.252 . S
O306 In299 2.326 . S
O306 C302 1.260 . S
O307 In299 2.266 . S
O307 C304 1.252 . S
O308 In299 2.326 . S
O308 C304 1.260 . S
C309 O300 1.240 . S
C309 O301 1.252 . S
O310 In299 2.294 . S
O310 C303 1.240 . S
O311 In299 2.326 . S
O311 C303 1.252 . S
In312 O313 2.294 . S
In312 O314 2.326 . S
In312 O318 2.266 . S
In312 O319 2.326 . S
In312 O320 2.266 . S
In312 O321 2.326 . S
In312 O323 2.294 . S
In312 O324 2.326 . S
O313 In312 2.294 . S
O313 C322 1.240 . S
O314 In312 2.326 . S
O314 C322 1.252 . S
C315 O318 1.252 . S
C315 O319 1.260 . S
C316 O323 1.240 . S
C316 O324 1.252 . S
C317 O320 1.252 . S
C317 O321 1.260 . S
O318 In312 2.266 . S
O318 C315 1.252 . S
O319 In312 2.326 . S
O319 C315 1.260 . S
O320 In312 2.266 . S
O320 C317 1.252 . S
O321 In312 2.326 . S
O321 C317 1.260 . S
C322 O313 1.240 . S
C322 O314 1.252 . S
O323 In312 2.294 . S
O323 C316 1.240 . S
O324 In312 2.326 . S
O324 C316 1.252 . S
In325 O326 2.294 . S
In325 O327 2.326 . S
In325 O331 2.266 . S
In325 O332 2.326 . S
In325 O333 2.266 . S
In325 O334 2.326 . S
In325 O336 2.294 . S
In325 O337 2.326 . S
O326 In325 2.294 . S
O326 C335 1.240 . S
O327 In325 2.326 . S
O327 C335 1.252 . S
C328 O331 1.252 . S
C328 O332 1.260 . S
C329 O336 1.240 . S
C329 O337 1.252 . S
C330 O333 1.252 . S
C330 O334 1.260 . S
O331 In325 2.266 . S
O331 C328 1.252 . S
O332 In325 2.326 . S
O332 C328 1.260 . S
O333 In325 2.266 . S
O333 C330 1.252 . S
O334 In325 2.326 . S
O334 C330 1.260 . S
C335 O326 1.240 . S
C335 O327 1.252 . S
O336 In325 2.294 . S
O336 C329 1.240 . S
O337 In325 2.326 . S
O337 C329 1.252 . S
In338 O339 2.294 . S
In338 O340 2.326 . S
In338 O344 2.266 . S
In338 O345 2.326 . S
In338 O346 2.254 1_455 S
In338 O347 2.326 . S
In338 O349 2.325 . S
In338 O350 2.326 . S
O339 In338 2.294 . S
O339 C348 1.240 . S
O340 In338 2.326 . S
O340 C348 1.252 . S
C341 O344 1.252 . S
C341 O345 1.260 . S
C342 O349 1.264 . S
C342 O350 1.252 . S
C343 O346 1.242 1_454 S
C343 O347 1.260 1_554 S
O344 In338 2.266 . S
O344 C341 1.252 . S
O345 In338 2.326 . S
O345 C341 1.260 . S
O346 In338 2.254 1_655 S
O346 C343 1.242 1_656 S
O347 In338 2.326 . S
O347 C343 1.260 1_556 S
C348 O339 1.240 . S
C348 O340 1.252 . S
O349 In338 2.325 . S
O349 C342 1.264 . S
O350 In338 2.326 . S
O350 C342 1.252 . S
In351 O352 2.294 . S
In351 O353 2.326 . S
In351 O357 2.266 . S
In351 O358 2.326 . S
In351 O359 2.266 . S
In351 O360 2.326 . S
In351 O362 2.294 . S
In351 O363 2.326 . S
O352 In351 2.294 . S
O352 C361 1.240 . S
O353 In351 2.326 . S
O353 C361 1.252 . S
C354 O357 1.252 . S
C354 O358 1.260 . S
C355 O362 1.240 . S
C355 O363 1.252 . S
C356 O359 1.252 . S
C356 O360 1.260 . S
O357 In351 2.266 . S
O357 C354 1.252 . S
O358 In351 2.326 . S
O358 C354 1.260 . S
O359 In351 2.266 . S
O359 C356 1.252 . S
O360 In351 2.326 . S
O360 C356 1.260 . S
C361 O352 1.240 . S
C361 O353 1.252 . S
O362 In351 2.294 . S
O362 C355 1.240 . S
O363 In351 2.326 . S
O363 C355 1.252 . S
In364 O365 2.294 . S
In364 O366 2.326 . S
In364 O370 2.266 . S
In364 O371 2.326 . S
In364 O372 2.266 . S
In364 O373 2.326 . S
In364 O375 2.294 . S
In364 O376 2.326 . S
O365 In364 2.294 . S
O365 C374 1.240 . S
O366 In364 2.326 . S
O366 C374 1.252 . S
C367 O370 1.252 . S
C367 O371 1.260 . S
C368 O375 1.240 . S
C368 O376 1.252 . S
C369 O372 1.252 1_556 S
C369 O373 1.260 1_556 S
O370 In364 2.266 . S
O370 C367 1.252 . S
O371 In364 2.326 . S
O371 C367 1.260 . S
O372 In364 2.266 . S
O372 C369 1.252 1_554 S
O373 In364 2.326 . S
O373 C369 1.260 1_554 S
C374 O365 1.240 . S
C374 O366 1.252 . S
O375 In364 2.294 . S
O375 C368 1.240 . S
O376 In364 2.326 . S
O376 C368 1.252 . S
In377 O378 2.294 . S
In377 O379 2.326 . S
In377 O383 2.266 . S
In377 O384 2.326 . S
In377 O385 2.266 . S
In377 O386 2.326 . S
In377 O388 2.294 . S
In377 O389 2.326 . S
O378 In377 2.294 . S
O378 C387 1.240 . S
O379 In377 2.326 . S
O379 C387 1.252 . S
C380 O383 1.252 . S
C380 O384 1.260 . S
C381 O388 1.240 . S
C381 O389 1.252 . S
C382 O385 1.252 . S
C382 O386 1.260 . S
O383 In377 2.266 . S
O383 C380 1.252 . S
O384 In377 2.326 . S
O384 C380 1.260 . S
O385 In377 2.266 . S
O385 C382 1.252 . S
O386 In377 2.326 . S
O386 C382 1.260 . S
C387 O378 1.240 . S
C387 O379 1.252 . S
O388 In377 2.294 . S
O388 C381 1.240 . S
O389 In377 2.326 . S
O389 C381 1.252 . S
In390 O391 2.326 . S
In390 O392 2.326 . S
In390 O396 2.254 1_455 S
In390 O397 2.326 . S
In390 O398 2.266 . S
In390 O399 2.326 . S
In390 O401 2.294 . S
In390 O402 2.326 . S
O391 In390 2.326 . S
O391 C400 1.265 . S
O392 In390 2.326 . S
O392 C400 1.252 . S
C393 O396 1.242 1_455 S
C393 O397 1.260 . S
C394 O401 1.240 . S
C394 O402 1.252 . S
C395 O398 1.252 . S
C395 O399 1.260 . S
O396 In390 2.254 1_655 S
O396 C393 1.242 1_655 S
O397 In390 2.326 . S
O397 C393 1.260 . S
O398 In390 2.266 . S
O398 C395 1.252 . S
O399 In390 2.326 . S
O399 C395 1.260 . S
C400 O391 1.265 . S
C400 O392 1.252 . S
O401 In390 2.294 . S
O401 C394 1.240 . S
O402 In390 2.326 . S
O402 C394 1.252 . S
In403 O404 2.294 . S
In403 O405 2.326 . S
In403 O409 2.266 . S
In403 O410 2.326 . S
In403 O411 2.266 . S
In403 O412 2.326 . S
In403 O414 2.294 . S
In403 O415 2.326 . S
O404 In403 2.294 . S
O404 C413 1.240 . S
O405 In403 2.326 . S
O405 C413 1.252 . S
C406 O409 1.252 . S
C406 O410 1.260 . S
C407 O414 1.240 . S
C407 O415 1.252 . S
C408 O411 1.252 . S
C408 O412 1.260 . S
O409 In403 2.266 . S
O409 C406 1.252 . S
O410 In403 2.326 . S
O410 C406 1.260 . S
O411 In403 2.266 . S
O411 C408 1.252 . S
O412 In403 2.326 . S
O412 C408 1.260 . S
C413 O404 1.240 . S
C413 O405 1.252 . S
O414 In403 2.294 . S
O414 C407 1.240 . S
O415 In403 2.326 . S
O415 C407 1.252 . S
H416 C424 0.929 . S
H417 C426 0.930 . S
H418 C428 0.930 . S
H419 C431 0.929 . S
H420 C434 0.930 . S
H421 C436 0.960 . S
H422 C436 0.960 . S
H423 C436 0.960 . S
C424 H416 0.929 . S
C424 C425 1.377 1_455 S
C424 C426 1.384 . S
C425 C424 1.377 1_655 S
C425 C431 1.390 . S
C426 H417 0.930 . S
C426 C424 1.384 . S
C426 C427 1.372 1_455 S
C427 C426 1.372 1_655 S
C427 C428 1.400 . S
C427 C432 1.489 1_655 S
C428 H418 0.930 . S
C428 C427 1.400 . S
C428 C431 1.386 . S
H429 C445 0.930 . S
H430 C446 0.931 . S
C431 H419 0.929 . S
C431 C425 1.390 . S
C431 C428 1.386 . S
C432 C427 1.489 1_455 S
C432 C434 1.405 . S
C432 C435 1.393 1_455 S
H433 C439 0.930 . S
C434 H420 0.930 . S
C434 C432 1.405 . S
C434 C437 1.403 . S
C435 C432 1.393 1_655 S
C435 C436 1.524 . S
C435 C439 1.400 . S
C436 H421 0.960 . S
C436 H422 0.960 . S
C436 H423 0.960 . S
C436 C435 1.524 . S
C437 C434 1.403 . S
C437 C438 1.392 . S
C437 C441 1.495 . S
C438 C437 1.392 . S
C438 C439 1.385 1_455 S
C438 C440 1.478 . S
C439 H433 0.930 . S
C439 C435 1.400 . S
C439 C438 1.385 1_655 S
C440 C438 1.478 . S
C440 C442 1.381 . S
C440 C446 1.383 1_455 S
C441 C437 1.495 . S
C441 H447 0.959 . S
C441 H448 0.961 . S
C441 H449 0.960 . S
C442 C440 1.381 . S
C442 C443 1.394 . S
C442 H450 0.930 . S
C443 C442 1.394 . S
C443 C444 1.383 . S
C443 H451 0.929 . S
C444 C443 1.383 . S
C444 C445 1.377 1_455 S
C445 H429 0.930 . S
C445 C444 1.377 1_655 S
C445 C446 1.379 . S
C446 H430 0.931 . S
C446 C440 1.383 1_655 S
C446 C445 1.379 . S
H447 C441 0.959 . S
H448 C441 0.961 . S
H449 C441 0.960 . S
H450 C442 0.930 . S
H451 C443 0.929 . S
H452 C460 0.929 . S
H453 C462 0.930 . S
H454 C464 0.930 . S
H455 C467 0.929 . S
H456 C470 0.930 . S
H457 C472 0.960 . S
H458 C472 0.960 . S
H459 C472 0.960 . S
C460 H452 0.929 . S
C460 C461 1.377 . S
C460 C462 1.384 . S
C461 C460 1.377 . S
C461 C467 1.390 . S
C462 H453 0.930 . S
C462 C460 1.384 . S
C462 C463 1.372 . S
C463 C462 1.372 . S
C463 C464 1.400 . S
C463 C468 1.490 1_556 S
C464 H454 0.930 . S
C464 C463 1.400 . S
C464 C467 1.386 . S
H465 C481 0.930 . S
H466 C482 0.931 . S
C467 H455 0.929 . S
C467 C461 1.390 . S
C467 C464 1.386 . S
C468 C463 1.490 1_554 S
C468 C470 1.395 . S
C468 C471 1.403 . S
H469 C475 0.930 . S
C470 H456 0.930 . S
C470 C468 1.395 . S
C470 C473 1.403 . S
C471 C468 1.403 . S
C471 C472 1.524 . S
C471 C475 1.400 . S
C472 H457 0.960 . S
C472 H458 0.960 . S
C472 H459 0.960 . S
C472 C471 1.524 . S
C473 C470 1.403 . S
C473 C474 1.392 . S
C473 C477 1.495 . S
C474 C473 1.392 . S
C474 C475 1.385 . S
C474 C476 1.478 . S
C475 H469 0.930 . S
C475 C471 1.400 . S
C475 C474 1.385 . S
C476 C474 1.478 . S
C476 C478 1.381 . S
C476 C482 1.383 . S
C477 C473 1.495 . S
C477 H483 0.959 . S
C477 H484 0.961 . S
C477 H485 0.960 . S
C478 C476 1.381 . S
C478 C479 1.394 . S
C478 H486 0.930 . S
C479 C478 1.394 . S
C479 C480 1.383 . S
C479 H487 0.929 . S
C480 C479 1.383 . S
C480 C481 1.377 . S
C481 H465 0.930 . S
C481 C480 1.377 . S
C481 C482 1.379 . S
C482 H466 0.931 . S
C482 C476 1.383 . S
C482 C481 1.379 . S
H483 C477 0.959 . S
H484 C477 0.961 . S
H485 C477 0.960 . S
H486 C478 0.930 . S
H487 C479 0.929 . S
H488 C496 0.929 . S
H489 C498 0.930 . S
H490 C500 0.930 . S
H491 C503 0.929 . S
H492 C506 0.930 . S
H493 C508 0.960 . S
H494 C508 0.960 . S
H495 C508 0.960 . S
C496 H488 0.929 . S
C496 C497 1.377 . S
C496 C498 1.384 . S
C497 C496 1.377 . S
C497 C503 1.390 . S
C498 H489 0.930 . S
C498 C496 1.384 . S
C498 C499 1.372 . S
C499 C498 1.372 . S
C499 C500 1.400 . S
C499 C504 1.490 . S
C500 H490 0.930 . S
C500 C499 1.400 . S
C500 C503 1.386 . S
H501 C517 0.930 . S
H502 C518 0.931 . S
C503 H491 0.929 . S
C503 C497 1.390 . S
C503 C500 1.386 . S
C504 C499 1.490 . S
C504 C506 1.395 . S
C504 C507 1.403 . S
H505 C511 0.930 . S
C506 H492 0.930 . S
C506 C504 1.395 . S
C506 C509 1.403 . S
C507 C504 1.403 . S
C507 C508 1.524 . S
C507 C511 1.400 . S
C508 H493 0.960 . S
C508 H494 0.960 . S
C508 H495 0.960 . S
C508 C507 1.524 . S
C509 C506 1.403 . S
C509 C510 1.392 . S
C509 C513 1.495 . S
C510 C509 1.392 . S
C510 C511 1.385 . S
C510 C512 1.478 . S
C511 H505 0.930 . S
C511 C507 1.400 . S
C511 C510 1.385 . S
C512 C510 1.478 . S
C512 C514 1.381 . S
C512 C518 1.383 . S
C513 C509 1.495 . S
C513 H519 0.959 . S
C513 H520 0.961 . S
C513 H521 0.960 . S
C514 C512 1.381 . S
C514 C515 1.394 . S
C514 H522 0.930 . S
C515 C514 1.394 . S
C515 C516 1.383 . S
C515 H523 0.929 . S
C516 C515 1.383 . S
C516 C517 1.377 . S
C517 H501 0.930 . S
C517 C516 1.377 . S
C517 C518 1.379 . S
C518 H502 0.931 . S
C518 C512 1.383 . S
C518 C517 1.379 . S
H519 C513 0.959 . S
H520 C513 0.961 . S
H521 C513 0.960 . S
H522 C514 0.930 . S
H523 C515 0.929 . S
H524 C532 0.929 . S
H525 C534 0.930 . S
H526 C536 0.930 . S
H527 C539 0.929 . S
H528 C542 0.930 . S
H529 C544 0.960 . S
H530 C544 0.960 . S
H531 C544 0.960 . S
C532 H524 0.929 . S
C532 C533 1.377 . S
C532 C534 1.384 . S
C533 C532 1.377 . S
C533 C539 1.390 . S
C534 H525 0.930 . S
C534 C532 1.384 . S
C534 C535 1.372 . S
C535 C534 1.372 . S
C535 C536 1.400 . S
C535 C540 1.490 . S
C536 H526 0.930 . S
C536 C535 1.400 . S
C536 C539 1.386 . S
H537 C553 0.930 . S
H538 C554 0.931 . S
C539 H527 0.929 . S
C539 C533 1.390 . S
C539 C536 1.386 . S
C540 C535 1.490 . S
C540 C542 1.395 . S
C540 C543 1.403 . S
H541 C547 0.930 . S
C542 H528 0.930 . S
C542 C540 1.395 . S
C542 C545 1.403 . S
C543 C540 1.403 . S
C543 C544 1.524 . S
C543 C547 1.400 . S
C544 H529 0.960 . S
C544 H530 0.960 . S
C544 H531 0.960 . S
C544 C543 1.524 . S
C545 C542 1.403 . S
C545 C546 1.392 . S
C545 C549 1.495 . S
C546 C545 1.392 . S
C546 C547 1.385 . S
C546 C548 1.478 . S
C547 H541 0.930 . S
C547 C543 1.400 . S
C547 C546 1.385 . S
C548 C546 1.478 . S
C548 C550 1.381 . S
C548 C554 1.383 . S
C549 C545 1.495 . S
C549 H555 0.959 . S
C549 H556 0.961 . S
C549 H557 0.960 . S
C550 C548 1.381 . S
C550 C551 1.394 . S
C550 H558 0.930 . S
C551 C550 1.394 . S
C551 C552 1.383 . S
C551 H559 0.929 . S
C552 C551 1.383 . S
C552 C553 1.377 . S
C553 H537 0.930 . S
C553 C552 1.377 . S
C553 C554 1.379 . S
C554 H538 0.931 . S
C554 C548 1.383 . S
C554 C553 1.379 . S
H555 C549 0.959 . S
H556 C549 0.961 . S
H557 C549 0.960 . S
H558 C550 0.930 . S
H559 C551 0.929 . S
H560 C568 0.929 . S
H561 C570 0.930 . S
H562 C572 0.930 . S
H563 C575 0.929 . S
H564 C578 0.930 . S
H565 C580 0.960 . S
H566 C580 0.960 . S
H567 C580 0.960 . S
C568 H560 0.929 . S
C568 C569 1.377 . S
C568 C570 1.384 . S
C569 C568 1.377 . S
C569 C575 1.390 1_655 S
C570 H561 0.930 . S
C570 C568 1.384 . S
C570 C571 1.372 . S
C571 C570 1.372 . S
C571 C572 1.400 1_655 S
C571 C576 1.490 . S
C572 H562 0.930 . S
C572 C571 1.400 1_455 S
C572 C575 1.386 . S
H573 C589 0.930 . S
H574 C590 0.931 . S
C575 H563 0.929 . S
C575 C569 1.390 1_455 S
C575 C572 1.386 . S
C576 C571 1.490 . S
C576 C578 1.395 1_655 S
C576 C579 1.403 . S
H577 C583 0.930 . S
C578 H564 0.930 . S
C578 C576 1.395 1_455 S
C578 C581 1.403 . S
C579 C576 1.403 . S
C579 C580 1.524 . S
C579 C583 1.400 . S
C580 H565 0.960 . S
C580 H566 0.960 . S
C580 H567 0.960 . S
C580 C579 1.524 . S
C581 C578 1.403 . S
C581 C582 1.392 . S
C581 C585 1.495 . S
C582 C581 1.392 . S
C582 C583 1.385 1_455 S
C582 C584 1.478 . S
C583 H577 0.930 . S
C583 C579 1.400 . S
C583 C582 1.385 1_655 S
C584 C582 1.478 . S
C584 C586 1.381 1_455 S
C584 C590 1.383 . S
C585 C581 1.495 . S
C585 H591 0.959 . S
C585 H592 0.961 . S
C585 H593 0.960 . S
C586 C584 1.381 1_655 S
C586 C587 1.394 . S
C586 H594 0.930 . S
C587 C586 1.394 . S
C587 C588 1.383 1_655 S
C587 H595 0.929 . S
C588 C587 1.383 1_455 S
C588 C589 1.377 . S
C589 H573 0.930 . S
C589 C588 1.377 . S
C589 C590 1.379 . S
C590 H574 0.931 . S
C590 C584 1.383 . S
C590 C589 1.379 . S
H591 C585 0.959 . S
H592 C585 0.961 . S
H593 C585 0.960 . S
H594 C586 0.930 . S
H595 C587 0.929 . S
H596 C604 0.929 . S
H597 C606 0.930 . S
H598 C608 0.930 . S
H599 C611 0.929 . S
H600 C614 0.930 . S
H601 C616 0.960 . S
H602 C616 0.960 . S
H603 C616 0.960 . S
C604 H596 0.929 . S
C604 C605 1.377 . S
C604 C606 1.384 . S
C605 C604 1.377 . S
C605 C611 1.390 . S
C606 H597 0.930 . S
C606 C604 1.384 . S
C606 C607 1.372 . S
C607 C606 1.372 . S
C607 C608 1.400 . S
C607 C612 1.490 . S
C608 H598 0.930 . S
C608 C607 1.400 . S
C608 C611 1.386 . S
H609 C625 0.930 . S
H610 C626 0.931 . S
C611 H599 0.929 . S
C611 C605 1.390 . S
C611 C608 1.386 . S
C612 C607 1.490 . S
C612 C614 1.395 . S
C612 C615 1.403 . S
H613 C619 0.930 . S
C614 H600 0.930 . S
C614 C612 1.395 . S
C614 C617 1.403 . S
C615 C612 1.403 . S
C615 C616 1.524 . S
C615 C619 1.400 . S
C616 H601 0.960 . S
C616 H602 0.960 . S
C616 H603 0.960 . S
C616 C615 1.524 . S
C617 C614 1.403 . S
C617 C618 1.392 . S
C617 C621 1.495 . S
C618 C617 1.392 . S
C618 C619 1.385 . S
C618 C620 1.478 1_556 S
C619 H613 0.930 . S
C619 C615 1.400 . S
C619 C618 1.385 . S
C620 C618 1.478 1_554 S
C620 C622 1.381 . S
C620 C626 1.383 . S
C621 C617 1.495 . S
C621 H627 0.959 . S
C621 H628 0.961 . S
C621 H629 0.960 . S
C622 C620 1.381 . S
C622 C623 1.394 . S
C622 H630 0.930 . S
C623 C622 1.394 . S
C623 C624 1.383 . S
C623 H631 0.929 . S
C624 C623 1.383 . S
C624 C625 1.377 . S
C625 H609 0.930 . S
C625 C624 1.377 . S
C625 C626 1.379 . S
C626 H610 0.931 . S
C626 C620 1.383 . S
C626 C625 1.379 . S
H627 C621 0.959 . S
H628 C621 0.961 . S
H629 C621 0.960 . S
H630 C622 0.930 . S
H631 C623 0.929 . S
H632 C640 0.929 . S
H633 C642 0.930 . S
H634 C644 0.930 . S
H635 C647 0.929 . S
H636 C650 0.930 . S
H637 C652 0.960 . S
H638 C652 0.960 . S
H639 C652 0.960 . S
C640 H632 0.929 . S
C640 C641 1.377 . S
C640 C642 1.384 . S
C641 C640 1.377 . S
C641 C647 1.390 . S
C642 H633 0.930 . S
C642 C640 1.384 . S
C642 C643 1.372 . S
C643 C642 1.372 . S
C643 C644 1.400 . S
C643 C648 1.490 . S
C644 H634 0.930 . S
C644 C643 1.400 . S
C644 C647 1.386 . S
H645 C661 0.930 . S
H646 C662 0.931 . S
C647 H635 0.929 . S
C647 C641 1.390 . S
C647 C644 1.386 . S
C648 C643 1.490 . S
C648 C650 1.395 . S
C648 C651 1.403 . S
H649 C655 0.930 . S
C650 H636 0.930 . S
C650 C648 1.395 . S
C650 C653 1.403 . S
C651 C648 1.403 . S
C651 C652 1.524 . S
C651 C655 1.400 . S
C652 H637 0.960 . S
C652 H638 0.960 . S
C652 H639 0.960 . S
C652 C651 1.524 . S
C653 C650 1.403 . S
C653 C654 1.392 . S
C653 C657 1.495 . S
C654 C653 1.392 . S
C654 C655 1.385 . S
C654 C656 1.478 . S
C655 H649 0.930 . S
C655 C651 1.400 . S
C655 C654 1.385 . S
C656 C654 1.478 . S
C656 C658 1.381 . S
C656 C662 1.383 . S
C657 C653 1.495 . S
C657 H663 0.959 . S
C657 H664 0.961 . S
C657 H665 0.960 . S
C658 C656 1.381 . S
C658 C659 1.394 . S
C658 H666 0.930 . S
C659 C658 1.394 . S
C659 C660 1.383 . S
C659 H667 0.929 . S
C660 C659 1.383 . S
C660 C661 1.377 . S
C661 H645 0.930 . S
C661 C660 1.377 . S
C661 C662 1.379 . S
C662 H646 0.931 . S
C662 C656 1.383 . S
C662 C661 1.379 . S
H663 C657 0.959 . S
H664 C657 0.961 . S
H665 C657 0.960 . S
H666 C658 0.930 . S
H667 C659 0.929 . S
H668 C676 0.929 . S
H669 C678 0.930 . S
H670 C680 0.930 . S
H671 C683 0.929 . S
H672 C686 0.930 . S
H673 C688 0.960 . S
H674 C688 0.960 . S
H675 C688 0.960 . S
C676 H668 0.929 . S
C676 C677 1.377 . S
C676 C678 1.384 . S
C677 C676 1.377 . S
C677 C683 1.390 . S
C678 H669 0.930 . S
C678 C676 1.384 . S
C678 C679 1.372 . S
C679 C678 1.372 . S
C679 C680 1.400 . S
C679 C684 1.490 . S
C680 H670 0.930 . S
C680 C679 1.400 . S
C680 C683 1.386 . S
H681 C697 0.930 . S
H682 C698 0.931 . S
C683 H671 0.929 . S
C683 C677 1.390 . S
C683 C680 1.386 . S
C684 C679 1.490 . S
C684 C686 1.395 . S
C684 C687 1.403 . S
H685 C691 0.930 . S
C686 H672 0.930 . S
C686 C684 1.395 . S
C686 C689 1.403 . S
C687 C684 1.403 . S
C687 C688 1.524 . S
C687 C691 1.400 . S
C688 H673 0.960 . S
C688 H674 0.960 . S
C688 H675 0.960 . S
C688 C687 1.524 . S
C689 C686 1.403 . S
C689 C690 1.392 . S
C689 C693 1.495 . S
C690 C689 1.392 . S
C690 C691 1.385 . S
C690 C692 1.478 . S
C691 H685 0.930 . S
C691 C687 1.400 . S
C691 C690 1.385 . S
C692 C690 1.478 . S
C692 C694 1.381 . S
C692 C698 1.383 . S
C693 C689 1.495 . S
C693 H699 0.959 . S
C693 H700 0.961 . S
C693 H701 0.960 . S
C694 C692 1.381 . S
C694 C695 1.394 . S
C694 H702 0.930 . S
C695 C694 1.394 . S
C695 C696 1.383 . S
C695 H703 0.929 . S
C696 C695 1.383 . S
C696 C697 1.377 . S
C697 H681 0.930 . S
C697 C696 1.377 . S
C697 C698 1.379 . S
C698 H682 0.931 . S
C698 C692 1.383 . S
C698 C697 1.379 . S
H699 C693 0.959 . S
H700 C693 0.961 . S
H701 C693 0.960 . S
H702 C694 0.930 . S
H703 C695 0.929 . S
H704 C712 0.934 . S
H705 C714 0.930 . S
H706 C716 0.930 . S
H707 C719 0.929 . S
H708 C722 0.930 . S
H709 C724 0.960 . S
H710 C724 0.960 . S
H711 C724 0.960 . S
C712 H704 0.934 . S
C712 C713 1.371 1_655 S
C712 C714 1.385 . S
C713 C712 1.371 1_455 S
C713 C719 1.390 . S
C714 H705 0.930 . S
C714 C712 1.385 . S
C714 C715 1.372 1_655 S
C715 C714 1.372 1_455 S
C715 C716 1.400 . S
C715 C720 1.495 . S
C716 H706 0.930 . S
C716 C715 1.400 . S
C716 C719 1.386 . S
H717 C733 0.930 . S
H718 C734 0.931 . S
C719 H707 0.929 . S
C719 C713 1.390 . S
C719 C716 1.386 . S
C720 C715 1.495 . S
C720 C722 1.435 . S
C720 C723 1.361 1_455 S
H721 C727 0.930 . S
C722 H708 0.930 . S
C722 C720 1.435 . S
C722 C725 1.403 . S
C723 C720 1.361 1_655 S
C723 C724 1.524 . S
C723 C727 1.400 . S
C724 H709 0.960 . S
C724 H710 0.960 . S
C724 H711 0.960 . S
C724 C723 1.524 . S
C725 C722 1.403 . S
C725 C726 1.414 . S
C725 C729 1.495 . S
C726 C725 1.414 . S
C726 C727 1.365 1_455 S
C726 C728 1.476 1_455 S
C727 H721 0.930 . S
C727 C723 1.400 . S
C727 C726 1.365 1_655 S
C728 C726 1.476 1_655 S
C728 C730 1.388 . S
C728 C734 1.378 1_655 S
C729 C725 1.495 . S
C729 H735 0.959 . S
C729 H736 0.961 . S
C729 H737 0.960 . S
C730 C728 1.388 . S
C730 C731 1.394 . S
C730 H738 0.930 . S
C731 C730 1.394 . S
C731 C732 1.383 . S
C731 H739 0.929 . S
C732 C731 1.383 . S
C732 C733 1.377 1_655 S
C733 H717 0.930 . S
C733 C732 1.377 1_455 S
C733 C734 1.379 . S
C734 H718 0.931 . S
C734 C728 1.378 1_455 S
C734 C733 1.379 . S
H735 C729 0.959 . S
H736 C729 0.961 . S
H737 C729 0.960 . S
H738 C730 0.930 . S
H739 C731 0.929 . S
H740 C748 0.929 . S
H741 C750 0.930 . S
H742 C752 0.930 . S
H743 C755 0.929 . S
H744 C758 0.930 . S
H745 C760 0.960 . S
H746 C760 0.960 . S
H747 C760 0.960 . S
C748 H740 0.929 . S
C748 C749 1.377 . S
C748 C750 1.384 . S
C749 C748 1.377 . S
C749 C755 1.390 . S
C750 H741 0.930 . S
C750 C748 1.384 . S
C750 C751 1.372 . S
C751 C750 1.372 . S
C751 C752 1.400 . S
C751 C756 1.490 1_554 S
C752 H742 0.930 . S
C752 C751 1.400 . S
C752 C755 1.386 . S
H753 C769 0.930 . S
H754 C770 0.931 . S
C755 H743 0.929 . S
C755 C749 1.390 . S
C755 C752 1.386 . S
C756 C751 1.490 1_556 S
C756 C758 1.395 . S
C756 C759 1.403 . S
H757 C763 0.930 . S
C758 H744 0.930 . S
C758 C756 1.395 . S
C758 C761 1.403 . S
C759 C756 1.403 . S
C759 C760 1.524 . S
C759 C763 1.400 . S
C760 H745 0.960 . S
C760 H746 0.960 . S
C760 H747 0.960 . S
C760 C759 1.524 . S
C761 C758 1.403 . S
C761 C762 1.392 . S
C761 C765 1.495 . S
C762 C761 1.392 . S
C762 C763 1.385 . S
C762 C764 1.478 . S
C763 H757 0.930 . S
C763 C759 1.400 . S
C763 C762 1.385 . S
C764 C762 1.478 . S
C764 C766 1.381 . S
C764 C770 1.383 . S
C765 C761 1.495 . S
C765 H771 0.959 . S
C765 H772 0.961 . S
C765 H773 0.960 . S
C766 C764 1.381 . S
C766 C767 1.394 . S
C766 H774 0.930 . S
C767 C766 1.394 . S
C767 C768 1.383 . S
C767 H775 0.929 . S
C768 C767 1.383 . S
C768 C769 1.377 . S
C769 H753 0.930 . S
C769 C768 1.377 . S
C769 C770 1.379 . S
C770 H754 0.931 . S
C770 C764 1.383 . S
C770 C769 1.379 . S
H771 C765 0.959 . S
H772 C765 0.961 . S
H773 C765 0.960 . S
H774 C766 0.930 . S
H775 C767 0.929 . S
H776 C784 0.929 . S
H777 C786 0.930 . S
H778 C788 0.930 . S
H779 C791 0.929 . S
H780 C794 0.930 . S
H781 C796 0.960 . S
H782 C796 0.960 . S
H783 C796 0.960 . S
C784 H776 0.929 . S
C784 C785 1.377 . S
C784 C786 1.384 . S
C785 C784 1.377 . S
C785 C791 1.390 . S
C786 H777 0.930 . S
C786 C784 1.384 . S
C786 C787 1.372 . S
C787 C786 1.372 . S
C787 C788 1.400 . S
C787 C792 1.490 . S
C788 H778 0.930 . S
C788 C787 1.400 . S
C788 C791 1.386 . S
H789 C805 0.930 . S
H790 C806 0.931 . S
C791 H779 0.929 . S
C791 C785 1.390 . S
C791 C788 1.386 . S
C792 C787 1.490 . S
C792 C794 1.395 . S
C792 C795 1.403 . S
H793 C799 0.930 . S
C794 H780 0.930 . S
C794 C792 1.395 . S
C794 C797 1.403 . S
C795 C792 1.403 . S
C795 C796 1.524 . S
C795 C799 1.400 . S
C796 H781 0.960 . S
C796 H782 0.960 . S
C796 H783 0.960 . S
C796 C795 1.524 . S
C797 C794 1.403 . S
C797 C798 1.392 . S
C797 C801 1.495 . S
C798 C797 1.392 . S
C798 C799 1.385 . S
C798 C800 1.478 . S
C799 H793 0.930 . S
C799 C795 1.400 . S
C799 C798 1.385 . S
C800 C798 1.478 . S
C800 C802 1.381 . S
C800 C806 1.383 . S
C801 C797 1.495 . S
C801 H807 0.959 . S
C801 H808 0.961 . S
C801 H809 0.960 . S
C802 C800 1.381 . S
C802 C803 1.394 . S
C802 H810 0.930 . S
C803 C802 1.394 . S
C803 C804 1.383 . S
C803 H811 0.929 . S
C804 C803 1.383 . S
C804 C805 1.377 . S
C805 H789 0.930 . S
C805 C804 1.377 . S
C805 C806 1.379 . S
C806 H790 0.931 . S
C806 C800 1.383 . S
C806 C805 1.379 . S
H807 C801 0.959 . S
H808 C801 0.961 . S
H809 C801 0.960 . S
H810 C802 0.930 . S
H811 C803 0.929 . S
H812 C820 0.929 . S
H813 C822 0.930 . S
H814 C824 0.930 . S
H815 C827 0.929 . S
H816 C830 0.930 . S
H817 C832 0.960 . S
H818 C832 0.960 . S
H819 C832 0.960 . S
C820 H812 0.929 . S
C820 C821 1.377 . S
C820 C822 1.384 . S
C821 C820 1.377 . S
C821 C827 1.390 . S
C822 H813 0.930 . S
C822 C820 1.384 . S
C822 C823 1.372 . S
C823 C822 1.372 . S
C823 C824 1.400 . S
C823 C828 1.490 . S
C824 H814 0.930 . S
C824 C823 1.400 . S
C824 C827 1.386 . S
H825 C841 0.930 . S
H826 C842 0.931 . S
C827 H815 0.929 . S
C827 C821 1.390 . S
C827 C824 1.386 . S
C828 C823 1.490 . S
C828 C830 1.395 . S
C828 C831 1.403 . S
H829 C835 0.930 . S
C830 H816 0.930 . S
C830 C828 1.395 . S
C830 C833 1.403 . S
C831 C828 1.403 . S
C831 C832 1.524 . S
C831 C835 1.400 . S
C832 H817 0.960 . S
C832 H818 0.960 . S
C832 H819 0.960 . S
C832 C831 1.524 . S
C833 C830 1.403 . S
C833 C834 1.392 . S
C833 C837 1.495 . S
C834 C833 1.392 . S
C834 C835 1.385 . S
C834 C836 1.478 . S
C835 H829 0.930 . S
C835 C831 1.400 . S
C835 C834 1.385 . S
C836 C834 1.478 . S
C836 C838 1.381 . S
C836 C842 1.383 . S
C837 C833 1.495 . S
C837 H843 0.959 . S
C837 H844 0.961 . S
C837 H845 0.960 . S
C838 C836 1.381 . S
C838 C839 1.394 . S
C838 H846 0.930 . S
C839 C838 1.394 . S
C839 C840 1.383 . S
C839 H847 0.929 . S
C840 C839 1.383 . S
C840 C841 1.377 . S
C841 H825 0.930 . S
C841 C840 1.377 . S
C841 C842 1.379 . S
C842 H826 0.931 . S
C842 C836 1.383 . S
C842 C841 1.379 . S
H843 C837 0.959 . S
H844 C837 0.961 . S
H845 C837 0.960 . S
H846 C838 0.930 . S
H847 C839 0.929 . S
H848 C856 0.929 . S
H849 C858 0.930 . S
H850 C860 0.930 . S
H851 C863 0.929 . S
H852 C866 0.930 . S
H853 C868 0.960 . S
H854 C868 0.960 . S
H855 C868 0.960 . S
C856 H848 0.929 . S
C856 C857 1.377 1_455 S
C856 C858 1.384 . S
C857 C856 1.377 1_655 S
C857 C863 1.390 . S
C858 H849 0.930 . S
C858 C856 1.384 . S
C858 C859 1.372 1_455 S
C859 C858 1.372 1_655 S
C859 C860 1.400 . S
C859 C864 1.490 . S
C860 H850 0.930 . S
C860 C859 1.400 . S
C860 C863 1.386 . S
H861 C877 0.930 . S
H862 C878 0.931 . S
C863 H851 0.929 . S
C863 C857 1.390 . S
C863 C860 1.386 . S
C864 C859 1.490 . S
C864 C866 1.393 1_655 S
C864 C867 1.404 . S
H865 C871 0.930 . S
C866 H852 0.930 . S
C866 C864 1.393 1_455 S
C866 C869 1.403 . S
C867 C864 1.404 . S
C867 C868 1.524 . S
C867 C871 1.400 . S
C868 H853 0.960 . S
C868 H854 0.960 . S
C868 H855 0.960 . S
C868 C867 1.524 . S
C869 C866 1.403 . S
C869 C870 1.392 . S
C869 C873 1.495 . S
C870 C869 1.392 . S
C870 C871 1.385 1_455 S
C870 C872 1.478 . S
C871 H865 0.930 . S
C871 C867 1.400 . S
C871 C870 1.385 1_655 S
C872 C870 1.478 . S
C872 C874 1.381 . S
C872 C878 1.383 1_455 S
C873 C869 1.495 . S
C873 H879 0.959 . S
C873 H880 0.961 . S
C873 H881 0.960 . S
C874 C872 1.381 . S
C874 C875 1.394 . S
C874 H882 0.930 . S
C875 C874 1.394 . S
C875 C876 1.383 . S
C875 H883 0.929 . S
C876 C875 1.383 . S
C876 C877 1.377 1_455 S
C877 H861 0.930 . S
C877 C876 1.377 1_655 S
C877 C878 1.379 . S
C878 H862 0.931 . S
C878 C872 1.383 1_655 S
C878 C877 1.379 . S
H879 C873 0.959 . S
H880 C873 0.961 . S
H881 C873 0.960 . S
H882 C874 0.930 . S
H883 C875 0.929 . S
H884 C892 0.929 . S
H885 C894 0.930 . S
H886 C896 0.930 . S
H887 C899 0.929 . S
H888 C902 0.930 . S
H889 C904 0.960 . S
H890 C904 0.960 . S
H891 C904 0.960 . S
C892 H884 0.929 . S
C892 C893 1.377 . S
C892 C894 1.384 . S
C893 C892 1.377 . S
C893 C899 1.390 . S
C894 H885 0.930 . S
C894 C892 1.384 . S
C894 C895 1.372 . S
C895 C894 1.372 . S
C895 C896 1.400 . S
C895 C900 1.490 . S
C896 H886 0.930 . S
C896 C895 1.400 . S
C896 C899 1.386 . S
H897 C913 0.930 . S
H898 C914 0.931 . S
C899 H887 0.929 . S
C899 C893 1.390 . S
C899 C896 1.386 . S
C900 C895 1.490 . S
C900 C902 1.395 . S
C900 C903 1.403 . S
H901 C907 0.930 . S
C902 H888 0.930 . S
C902 C900 1.395 . S
C902 C905 1.403 . S
C903 C900 1.403 . S
C903 C904 1.524 . S
C903 C907 1.400 . S
C904 H889 0.960 . S
C904 H890 0.960 . S
C904 H891 0.960 . S
C904 C903 1.524 . S
C905 C902 1.403 . S
C905 C906 1.392 . S
C905 C909 1.495 . S
C906 C905 1.392 . S
C906 C907 1.385 . S
C906 C908 1.478 1_554 S
C907 H901 0.930 . S
C907 C903 1.400 . S
C907 C906 1.385 . S
C908 C906 1.478 1_556 S
C908 C910 1.381 . S
C908 C914 1.383 . S
C909 C905 1.495 . S
C909 H915 0.959 . S
C909 H916 0.961 . S
C909 H917 0.960 . S
C910 C908 1.381 . S
C910 C911 1.394 . S
C910 H918 0.930 . S
C911 C910 1.394 . S
C911 C912 1.383 . S
C911 H919 0.929 . S
C912 C911 1.383 . S
C912 C913 1.377 . S
C913 H897 0.930 . S
C913 C912 1.377 . S
C913 C914 1.379 . S
C914 H898 0.931 . S
C914 C908 1.383 . S
C914 C913 1.379 . S
H915 C909 0.959 . S
H916 C909 0.961 . S
H917 C909 0.960 . S
H918 C910 0.930 . S
H919 C911 0.929 . S
H920 C928 0.929 . S
H921 C930 0.930 . S
H922 C932 0.930 . S
H923 C935 0.929 . S
H924 C938 0.930 . S
H925 C940 0.960 . S
H926 C940 0.960 . S
H927 C940 0.960 . S
C928 H920 0.929 . S
C928 C929 1.377 . S
C928 C930 1.384 . S
C929 C928 1.377 . S
C929 C935 1.390 . S
C930 H921 0.930 . S
C930 C928 1.384 . S
C930 C931 1.372 . S
C931 C930 1.372 . S
C931 C932 1.400 . S
C931 C936 1.490 . S
C932 H922 0.930 . S
C932 C931 1.400 . S
C932 C935 1.386 . S
H933 C949 0.930 . S
H934 C950 0.931 . S
C935 H923 0.929 . S
C935 C929 1.390 . S
C935 C932 1.386 . S
C936 C931 1.490 . S
C936 C938 1.395 . S
C936 C939 1.403 . S
H937 C943 0.930 . S
C938 H924 0.930 . S
C938 C936 1.395 . S
C938 C941 1.403 . S
C939 C936 1.403 . S
C939 C940 1.524 . S
C939 C943 1.400 . S
C940 H925 0.960 . S
C940 H926 0.960 . S
C940 H927 0.960 . S
C940 C939 1.524 . S
C941 C938 1.403 . S
C941 C942 1.392 . S
C941 C945 1.495 . S
C942 C941 1.392 . S
C942 C943 1.385 . S
C942 C944 1.478 . S
C943 H937 0.930 . S
C943 C939 1.400 . S
C943 C942 1.385 . S
C944 C942 1.478 . S
C944 C946 1.381 . S
C944 C950 1.383 . S
C945 C941 1.495 . S
C945 H951 0.959 . S
C945 H952 0.961 . S
C945 H953 0.960 . S
C946 C944 1.381 . S
C946 C947 1.394 . S
C946 H954 0.930 . S
C947 C946 1.394 . S
C947 C948 1.383 . S
C947 H955 0.929 . S
C948 C947 1.383 . S
C948 C949 1.377 . S
C949 H933 0.930 . S
C949 C948 1.377 . S
C949 C950 1.379 . S
C950 H934 0.931 . S
C950 C944 1.383 . S
C950 C949 1.379 . S
H951 C945 0.959 . S
H952 C945 0.961 . S
H953 C945 0.960 . S
H954 C946 0.930 . S
H955 C947 0.929 . S
H956 C964 0.929 . S
H957 C966 0.930 . S
H958 C968 0.930 . S
H959 C971 0.929 . S
H960 C974 0.930 . S
H961 C976 0.960 . S
H962 C976 0.960 . S
H963 C976 0.960 . S
C964 H956 0.929 . S
C964 C965 1.377 . S
C964 C966 1.384 . S
C965 C964 1.377 . S
C965 C971 1.390 . S
C966 H957 0.930 . S
C966 C964 1.384 . S
C966 C967 1.372 . S
C967 C966 1.372 . S
C967 C968 1.400 . S
C967 C972 1.490 . S
C968 H958 0.930 . S
C968 C967 1.400 . S
C968 C971 1.386 . S
H969 C985 0.930 . S
H970 C986 0.931 . S
C971 H959 0.929 . S
C971 C965 1.390 . S
C971 C968 1.386 . S
C972 C967 1.490 . S
C972 C974 1.395 . S
C972 C975 1.403 . S
H973 C979 0.930 . S
C974 H960 0.930 . S
C974 C972 1.395 . S
C974 C977 1.403 . S
C975 C972 1.403 . S
C975 C976 1.524 . S
C975 C979 1.400 . S
C976 H961 0.960 . S
C976 H962 0.960 . S
C976 H963 0.960 . S
C976 C975 1.524 . S
C977 C974 1.403 . S
C977 C978 1.392 . S
C977 C981 1.495 . S
C978 C977 1.392 . S
C978 C979 1.385 . S
C978 C980 1.478 . S
C979 H973 0.930 . S
C979 C975 1.400 . S
C979 C978 1.385 . S
C980 C978 1.478 . S
C980 C982 1.381 . S
C980 C986 1.383 . S
C981 C977 1.495 . S
C981 H987 0.959 . S
C981 H988 0.961 . S
C981 H989 0.960 . S
C982 C980 1.381 . S
C982 C983 1.394 . S
C982 H990 0.930 . S
C983 C982 1.394 . S
C983 C984 1.383 . S
C983 H991 0.929 . S
C984 C983 1.383 . S
C984 C985 1.377 . S
C985 H969 0.930 . S
C985 C984 1.377 . S
C985 C986 1.379 . S
C986 H970 0.931 . S
C986 C980 1.383 . S
C986 C985 1.379 . S
H987 C981 0.959 . S
H988 C981 0.961 . S
H989 C981 0.960 . S
H990 C982 0.930 . S
H991 C983 0.929 . S
H992 C1000 0.929 . S
H993 C1002 0.930 . S
H994 C1004 0.930 . S
H995 C1007 0.929 . S
H996 C1010 0.930 . S
H997 C1012 0.960 . S
H998 C1012 0.960 . S
H999 C1012 0.960 . S
C1000 H992 0.929 . S
C1000 C1001 1.377 . S
C1000 C1002 1.384 . S
C1001 C1000 1.377 . S
C1001 C1007 1.390 . S
C1002 H993 0.930 . S
C1002 C1000 1.384 . S
C1002 C1003 1.372 . S
C1003 C1002 1.372 . S
C1003 C1004 1.400 . S
C1003 C1008 1.490 . S
C1004 H994 0.930 . S
C1004 C1003 1.400 . S
C1004 C1007 1.386 . S
H1005 C1021 0.930 . S
H1006 C1022 0.931 . S
C1007 H995 0.929 . S
C1007 C1001 1.390 . S
C1007 C1004 1.386 . S
C1008 C1003 1.490 . S
C1008 C1010 1.395 . S
C1008 C1011 1.403 . S
H1009 C1015 0.930 . S
C1010 H996 0.930 . S
C1010 C1008 1.395 . S
C1010 C1013 1.403 . S
C1011 C1008 1.403 . S
C1011 C1012 1.524 . S
C1011 C1015 1.400 . S
C1012 H997 0.960 . S
C1012 H998 0.960 . S
C1012 H999 0.960 . S
C1012 C1011 1.524 . S
C1013 C1010 1.403 . S
C1013 C1014 1.392 . S
C1013 C1017 1.495 . S
C1014 C1013 1.392 . S
C1014 C1015 1.385 . S
C1014 C1016 1.478 . S
C1015 H1009 0.930 . S
C1015 C1011 1.400 . S
C1015 C1014 1.385 . S
C1016 C1014 1.478 . S
C1016 C1018 1.381 . S
C1016 C1022 1.383 . S
C1017 C1013 1.495 . S
C1017 H1023 0.959 . S
C1017 H1024 0.961 . S
C1017 H1025 0.960 . S
C1018 C1016 1.381 . S
C1018 C1019 1.394 . S
C1018 H1026 0.930 . S
C1019 C1018 1.394 . S
C1019 C1020 1.383 . S
C1019 H1027 0.929 . S
C1020 C1019 1.383 . S
C1020 C1021 1.377 . S
C1021 H1005 0.930 . S
C1021 C1020 1.377 . S
C1021 C1022 1.379 . S
C1022 H1006 0.931 . S
C1022 C1016 1.383 . S
C1022 C1021 1.379 . S
H1023 C1017 0.959 . S
H1024 C1017 0.961 . S
H1025 C1017 0.960 . S
H1026 C1018 0.930 . S
H1027 C1019 0.929 . S
H1028 C1036 0.929 . S
H1029 C1038 0.930 . S
H1030 C1040 0.930 . S
H1031 C1043 0.929 . S
H1032 C1046 0.930 . S
H1033 C1048 0.960 . S
H1034 C1048 0.960 . S
H1035 C1048 0.960 . S
C1036 H1028 0.929 . S
C1036 C1037 1.377 . S
C1036 C1038 1.384 . S
C1037 C1036 1.377 . S
C1037 C1043 1.390 . S
C1038 H1029 0.930 . S
C1038 C1036 1.384 . S
C1038 C1039 1.372 . S
C1039 C1038 1.372 . S
C1039 C1040 1.400 . S
C1039 C1044 1.490 . S
C1040 H1030 0.930 . S
C1040 C1039 1.400 . S
C1040 C1043 1.386 . S
H1041 C1057 0.930 . S
H1042 C1058 0.931 . S
C1043 H1031 0.929 . S
C1043 C1037 1.390 . S
C1043 C1040 1.386 . S
C1044 C1039 1.490 . S
C1044 C1046 1.395 . S
C1044 C1047 1.403 . S
H1045 C1051 0.930 . S
C1046 H1032 0.930 . S
C1046 C1044 1.395 . S
C1046 C1049 1.403 . S
C1047 C1044 1.403 . S
C1047 C1048 1.524 . S
C1047 C1051 1.400 . S
C1048 H1033 0.960 . S
C1048 H1034 0.960 . S
C1048 H1035 0.960 . S
C1048 C1047 1.524 . S
C1049 C1046 1.403 . S
C1049 C1050 1.392 . S
C1049 C1053 1.495 . S
C1050 C1049 1.392 . S
C1050 C1051 1.385 . S
C1050 C1052 1.478 . S
C1051 H1045 0.930 . S
C1051 C1047 1.400 . S
C1051 C1050 1.385 . S
C1052 C1050 1.478 . S
C1052 C1054 1.381 . S
C1052 C1058 1.383 . S
C1053 C1049 1.495 . S
C1053 H1059 0.959 . S
C1053 H1060 0.961 . S
C1053 H1061 0.960 . S
C1054 C1052 1.381 . S
C1054 C1055 1.394 . S
C1054 H1062 0.930 . S
C1055 C1054 1.394 . S
C1055 C1056 1.383 . S
C1055 H1063 0.929 . S
C1056 C1055 1.383 . S
C1056 C1057 1.377 . S
C1057 H1041 0.930 . S
C1057 C1056 1.377 . S
C1057 C1058 1.379 . S
C1058 H1042 0.931 . S
C1058 C1052 1.383 . S
C1058 C1057 1.379 . S
H1059 C1053 0.959 . S
H1060 C1053 0.961 . S
H1061 C1053 0.960 . S
H1062 C1054 0.930 . S
H1063 C1055 0.929 . S
H1064 C1072 0.929 . S
H1065 C1074 0.930 . S
H1066 C1076 0.930 . S
H1067 C1079 0.929 . S
H1068 C1082 0.930 . S
H1069 C1084 0.960 . S
H1070 C1084 0.960 1_455 S
H1071 C1084 0.960 . S
C1072 H1064 0.929 . S
C1072 C1073 1.377 . S
C1072 C1074 1.384 . S
C1073 C1072 1.377 . S
C1073 C1079 1.390 1_455 S
C1074 H1065 0.930 . S
C1074 C1072 1.384 . S
C1074 C1075 1.372 . S
C1075 C1074 1.372 . S
C1075 C1076 1.400 1_455 S
C1075 C1080 1.490 . S
C1076 H1066 0.930 . S
C1076 C1075 1.400 1_655 S
C1076 C1079 1.386 . S
H1077 C1093 0.930 . S
H1078 C1094 0.931 . S
C1079 H1067 0.929 . S
C1079 C1073 1.390 1_655 S
C1079 C1076 1.386 . S
C1080 C1075 1.490 . S
C1080 C1082 1.395 . S
C1080 C1083 1.403 1_455 S
H1081 C1087 0.930 . S
C1082 H1068 0.930 . S
C1082 C1080 1.395 . S
C1082 C1085 1.403 . S
C1083 C1080 1.403 1_655 S
C1083 C1084 1.524 . S
C1083 C1087 1.400 . S
C1084 H1069 0.960 . S
C1084 H1070 0.960 1_655 S
C1084 H1071 0.960 . S
C1084 C1083 1.524 . S
C1085 C1082 1.403 . S
C1085 C1086 1.393 1_455 S
C1085 C1089 1.495 . S
C1086 C1085 1.393 1_655 S
C1086 C1087 1.384 . S
C1086 C1088 1.477 . S
C1087 H1081 0.930 . S
C1087 C1083 1.400 . S
C1087 C1086 1.384 . S
C1088 C1086 1.477 . S
C1088 C1090 1.381 1_655 S
C1088 C1094 1.383 . S
C1089 C1085 1.495 . S
C1089 H1095 0.959 . S
C1089 H1096 0.961 1_455 S
C1089 H1097 0.960 . S
C1090 C1088 1.381 1_455 S
C1090 C1091 1.394 . S
C1090 H1098 0.930 . S
C1091 C1090 1.394 . S
C1091 C1092 1.383 1_455 S
C1091 H1099 0.929 . S
C1092 C1091 1.383 1_655 S
C1092 C1093 1.377 . S
C1093 H1077 0.930 . S
C1093 C1092 1.377 . S
C1093 C1094 1.379 . S
C1094 H1078 0.931 . S
C1094 C1088 1.383 . S
C1094 C1093 1.379 . S
H1095 C1089 0.959 . S
H1096 C1089 0.961 1_655 S
H1097 C1089 0.960 . S
H1098 C1090 0.930 . S
H1099 C1091 0.929 . S
H1100 C1108 0.929 . S
H1101 C1110 0.930 . S
H1102 C1112 0.930 . S
H1103 C1115 0.929 . S
H1104 C1118 0.930 . S
H1105 C1120 0.960 . S
H1106 C1120 0.960 . S
H1107 C1120 0.960 . S
C1108 H1100 0.929 . S
C1108 C1109 1.377 . S
C1108 C1110 1.384 . S
C1109 C1108 1.377 . S
C1109 C1115 1.390 . S
C1110 H1101 0.930 . S
C1110 C1108 1.384 . S
C1110 C1111 1.372 . S
C1111 C1110 1.372 . S
C1111 C1112 1.400 . S
C1111 C1116 1.490 . S
C1112 H1102 0.930 . S
C1112 C1111 1.400 . S
C1112 C1115 1.386 . S
H1113 C1129 0.930 . S
H1114 C1130 0.931 . S
C1115 H1103 0.929 . S
C1115 C1109 1.390 . S
C1115 C1112 1.386 . S
C1116 C1111 1.490 . S
C1116 C1118 1.395 . S
C1116 C1119 1.403 . S
H1117 C1123 0.930 . S
C1118 H1104 0.930 . S
C1118 C1116 1.395 . S
C1118 C1121 1.403 . S
C1119 C1116 1.403 . S
C1119 C1120 1.524 . S
C1119 C1123 1.400 . S
C1120 H1105 0.960 . S
C1120 H1106 0.960 . S
C1120 H1107 0.960 . S
C1120 C1119 1.524 . S
C1121 C1118 1.403 . S
C1121 C1122 1.392 . S
C1121 C1125 1.495 . S
C1122 C1121 1.392 . S
C1122 C1123 1.385 . S
C1122 C1124 1.478 1_554 S
C1123 H1117 0.930 . S
C1123 C1119 1.400 . S
C1123 C1122 1.385 . S
C1124 C1122 1.478 1_556 S
C1124 C1126 1.381 . S
C1124 C1130 1.383 . S
C1125 C1121 1.495 . S
C1125 H1131 0.959 . S
C1125 H1132 0.961 . S
C1125 H1133 0.960 . S
C1126 C1124 1.381 . S
C1126 C1127 1.394 . S
C1126 H1134 0.930 . S
C1127 C1126 1.394 . S
C1127 C1128 1.383 . S
C1127 H1135 0.929 . S
C1128 C1127 1.383 . S
C1128 C1129 1.377 . S
C1129 H1113 0.930 . S
C1129 C1128 1.377 . S
C1129 C1130 1.379 . S
C1130 H1114 0.931 . S
C1130 C1124 1.383 . S
C1130 C1129 1.379 . S
H1131 C1125 0.959 . S
H1132 C1125 0.961 . S
H1133 C1125 0.960 . S
H1134 C1126 0.930 . S
H1135 C1127 0.929 . S
H1136 C1144 0.929 . S
H1137 C1146 0.930 . S
H1138 C1148 0.930 . S
H1139 C1151 0.929 . S
H1140 C1154 0.930 . S
H1141 C1156 0.960 . S
H1142 C1156 0.960 . S
H1143 C1156 0.960 . S
C1144 H1136 0.929 . S
C1144 C1145 1.377 . S
C1144 C1146 1.384 . S
C1145 C1144 1.377 . S
C1145 C1151 1.390 . S
C1146 H1137 0.930 . S
C1146 C1144 1.384 . S
C1146 C1147 1.372 . S
C1147 C1146 1.372 . S
C1147 C1148 1.400 . S
C1147 C1152 1.490 . S
C1148 H1138 0.930 . S
C1148 C1147 1.400 . S
C1148 C1151 1.386 . S
H1149 C1165 0.930 . S
H1150 C1166 0.931 . S
C1151 H1139 0.929 . S
C1151 C1145 1.390 . S
C1151 C1148 1.386 . S
C1152 C1147 1.490 . S
C1152 C1154 1.395 . S
C1152 C1155 1.403 . S
H1153 C1159 0.930 . S
C1154 H1140 0.930 . S
C1154 C1152 1.395 . S
C1154 C1157 1.403 . S
C1155 C1152 1.403 . S
C1155 C1156 1.524 . S
C1155 C1159 1.400 . S
C1156 H1141 0.960 . S
C1156 H1142 0.960 . S
C1156 H1143 0.960 . S
C1156 C1155 1.524 . S
C1157 C1154 1.403 . S
C1157 C1158 1.392 . S
C1157 C1161 1.495 . S
C1158 C1157 1.392 . S
C1158 C1159 1.385 . S
C1158 C1160 1.478 . S
C1159 H1153 0.930 . S
C1159 C1155 1.400 . S
C1159 C1158 1.385 . S
C1160 C1158 1.478 . S
C1160 C1162 1.381 . S
C1160 C1166 1.383 . S
C1161 C1157 1.495 . S
C1161 H1167 0.959 . S
C1161 H1168 0.961 . S
C1161 H1169 0.960 . S
C1162 C1160 1.381 . S
C1162 C1163 1.394 . S
C1162 H1170 0.930 . S
C1163 C1162 1.394 . S
C1163 C1164 1.383 . S
C1163 H1171 0.929 . S
C1164 C1163 1.383 . S
C1164 C1165 1.377 . S
C1165 H1149 0.930 . S
C1165 C1164 1.377 . S
C1165 C1166 1.379 . S
C1166 H1150 0.931 . S
C1166 C1160 1.383 . S
C1166 C1165 1.379 . S
H1167 C1161 0.959 . S
H1168 C1161 0.961 . S
H1169 C1161 0.960 . S
H1170 C1162 0.930 . S
H1171 C1163 0.929 . S
H1172 C1180 0.929 . S
H1173 C1182 0.930 . S
H1174 C1184 0.930 . S
H1175 C1187 0.929 . S
H1176 C1190 0.930 . S
H1177 C1192 0.960 . S
H1178 C1192 0.960 . S
H1179 C1192 0.960 . S
C1180 H1172 0.929 . S
C1180 C1181 1.377 . S
C1180 C1182 1.384 . S
C1181 C1180 1.377 . S
C1181 C1187 1.390 . S
C1182 H1173 0.930 . S
C1182 C1180 1.384 . S
C1182 C1183 1.372 . S
C1183 C1182 1.372 . S
C1183 C1184 1.400 . S
C1183 C1188 1.490 . S
C1184 H1174 0.930 . S
C1184 C1183 1.400 . S
C1184 C1187 1.386 . S
H1185 C1201 0.930 . S
H1186 C1202 0.931 . S
C1187 H1175 0.929 . S
C1187 C1181 1.390 . S
C1187 C1184 1.386 . S
C1188 C1183 1.490 . S
C1188 C1190 1.395 . S
C1188 C1191 1.403 . S
H1189 C1195 0.930 . S
C1190 H1176 0.930 . S
C1190 C1188 1.395 . S
C1190 C1193 1.403 . S
C1191 C1188 1.403 . S
C1191 C1192 1.524 . S
C1191 C1195 1.400 . S
C1192 H1177 0.960 . S
C1192 H1178 0.960 . S
C1192 H1179 0.960 . S
C1192 C1191 1.524 . S
C1193 C1190 1.403 . S
C1193 C1194 1.392 . S
C1193 C1197 1.495 . S
C1194 C1193 1.392 . S
C1194 C1195 1.385 . S
C1194 C1196 1.478 . S
C1195 H1189 0.930 . S
C1195 C1191 1.400 . S
C1195 C1194 1.385 . S
C1196 C1194 1.478 . S
C1196 C1198 1.381 . S
C1196 C1202 1.383 . S
C1197 C1193 1.495 . S
C1197 H1203 0.959 . S
C1197 H1204 0.961 . S
C1197 H1205 0.960 . S
C1198 C1196 1.381 . S
C1198 C1199 1.394 . S
C1198 H1206 0.930 . S
C1199 C1198 1.394 . S
C1199 C1200 1.383 . S
C1199 H1207 0.929 . S
C1200 C1199 1.383 . S
C1200 C1201 1.377 . S
C1201 H1185 0.930 . S
C1201 C1200 1.377 . S
C1201 C1202 1.379 . S
C1202 H1186 0.931 . S
C1202 C1196 1.383 . S
C1202 C1201 1.379 . S
H1203 C1197 0.959 . S
H1204 C1197 0.961 . S
H1205 C1197 0.960 . S
H1206 C1198 0.930 . S
H1207 C1199 0.929 . S
H1208 C1216 0.929 . S
H1209 C1218 0.930 . S
H1210 C1220 0.930 . S
H1211 C1223 0.929 . S
H1212 C1226 0.930 . S
H1213 C1228 0.960 . S
H1214 C1228 0.960 . S
H1215 C1228 0.960 . S
C1216 H1208 0.929 . S
C1216 C1217 1.377 . S
C1216 C1218 1.384 . S
C1217 C1216 1.377 . S
C1217 C1223 1.390 1_455 S
C1218 H1209 0.930 . S
C1218 C1216 1.384 . S
C1218 C1219 1.372 . S
C1219 C1218 1.372 . S
C1219 C1220 1.400 1_455 S
C1219 C1224 1.499 . S
C1220 H1210 0.930 . S
C1220 C1219 1.400 1_655 S
C1220 C1223 1.386 . S
H1221 C1237 0.930 . S
H1222 C1238 0.931 . S
C1223 H1211 0.929 . S
C1223 C1217 1.390 1_655 S
C1223 C1220 1.386 . S
C1224 C1219 1.499 . S
C1224 C1226 1.352 1_455 S
C1224 C1227 1.441 . S
H1225 C1231 0.930 . S
C1226 H1212 0.930 . S
C1226 C1224 1.352 1_655 S
C1226 C1229 1.403 . S
C1227 C1224 1.441 . S
C1227 C1228 1.524 . S
C1227 C1231 1.400 . S
C1228 H1213 0.960 . S
C1228 H1214 0.960 . S
C1228 H1215 0.960 . S
C1228 C1227 1.524 . S
C1229 C1226 1.403 . S
C1229 C1230 1.392 . S
C1229 C1233 1.495 . S
C1230 C1229 1.392 . S
C1230 C1231 1.385 1_655 S
C1230 C1232 1.478 . S
C1231 H1225 0.930 . S
C1231 C1227 1.400 . S
C1231 C1230 1.385 1_455 S
C1232 C1230 1.478 . S
C1232 C1234 1.381 1_655 S
C1232 C1238 1.383 . S
C1233 C1229 1.495 . S
C1233 H1239 0.959 . S
C1233 H1240 0.961 . S
C1233 H1241 0.960 . S
C1234 C1232 1.381 1_455 S
C1234 C1235 1.394 . S
C1234 H1242 0.930 . S
C1235 C1234 1.394 . S
C1235 C1236 1.383 1_455 S
C1235 H1243 0.929 . S
C1236 C1235 1.383 1_655 S
C1236 C1237 1.377 . S
C1237 H1221 0.930 . S
C1237 C1236 1.377 . S
C1237 C1238 1.379 . S
C1238 H1222 0.931 . S
C1238 C1232 1.383 . S
C1238 C1237 1.379 . S
H1239 C1233 0.959 . S
H1240 C1233 0.961 . S
H1241 C1233 0.960 . S
H1242 C1234 0.930 . S
H1243 C1235 0.929 . S
H1244 C1252 0.929 . S
H1245 C1254 0.930 . S
H1246 C1256 0.930 . S
H1247 C1259 0.929 . S
H1248 C1262 0.930 . S
H1249 C1264 0.960 . S
H1250 C1264 0.960 . S
H1251 C1264 0.960 . S
C1252 H1244 0.929 . S
C1252 C1253 1.377 . S
C1252 C1254 1.384 . S
C1253 C1252 1.377 . S
C1253 C1259 1.390 . S
C1254 H1245 0.930 . S
C1254 C1252 1.384 . S
C1254 C1255 1.372 . S
C1255 C1254 1.372 . S
C1255 C1256 1.400 . S
C1255 C1260 1.490 1_554 S
C1256 H1246 0.930 . S
C1256 C1255 1.400 . S
C1256 C1259 1.386 . S
H1257 C1273 0.930 . S
H1258 C1274 0.931 . S
C1259 H1247 0.929 . S
C1259 C1253 1.390 . S
C1259 C1256 1.386 . S
C1260 C1255 1.490 1_556 S
C1260 C1262 1.395 . S
C1260 C1263 1.403 . S
H1261 C1267 0.930 . S
C1262 H1248 0.930 . S
C1262 C1260 1.395 . S
C1262 C1265 1.403 . S
C1263 C1260 1.403 . S
C1263 C1264 1.524 . S
C1263 C1267 1.400 . S
C1264 H1249 0.960 . S
C1264 H1250 0.960 . S
C1264 H1251 0.960 . S
C1264 C1263 1.524 . S
C1265 C1262 1.403 . S
C1265 C1266 1.392 . S
C1265 C1269 1.495 . S
C1266 C1265 1.392 . S
C1266 C1267 1.385 . S
C1266 C1268 1.478 . S
C1267 H1261 0.930 . S
C1267 C1263 1.400 . S
C1267 C1266 1.385 . S
C1268 C1266 1.478 . S
C1268 C1270 1.381 . S
C1268 C1274 1.383 . S
C1269 C1265 1.495 . S
C1269 H1275 0.959 . S
C1269 H1276 0.961 . S
C1269 H1277 0.960 . S
C1270 C1268 1.381 . S
C1270 C1271 1.394 . S
C1270 H1278 0.930 . S
C1271 C1270 1.394 . S
C1271 C1272 1.383 . S
C1271 H1279 0.929 . S
C1272 C1271 1.383 . S
C1272 C1273 1.377 . S
C1273 H1257 0.930 . S
C1273 C1272 1.377 . S
C1273 C1274 1.379 . S
C1274 H1258 0.931 . S
C1274 C1268 1.383 . S
C1274 C1273 1.379 . S
H1275 C1269 0.959 . S
H1276 C1269 0.961 . S
H1277 C1269 0.960 . S
H1278 C1270 0.930 . S
H1279 C1271 0.929 . S
H1280 C1288 0.929 . S
H1281 C1290 0.930 . S
H1282 C1292 0.930 . S
H1283 C1295 0.929 . S
H1284 C1298 0.930 . S
H1285 C1300 0.960 . S
H1286 C1300 0.960 . S
H1287 C1300 0.960 . S
C1288 H1280 0.929 . S
C1288 C1289 1.377 . S
C1288 C1290 1.384 . S
C1289 C1288 1.377 . S
C1289 C1295 1.390 . S
C1290 H1281 0.930 . S
C1290 C1288 1.384 . S
C1290 C1291 1.372 . S
C1291 C1290 1.372 . S
C1291 C1292 1.400 . S
C1291 C1296 1.490 . S
C1292 H1282 0.930 . S
C1292 C1291 1.400 . S
C1292 C1295 1.386 . S
H1293 C1309 0.930 . S
H1294 C1310 0.931 . S
C1295 H1283 0.929 . S
C1295 C1289 1.390 . S
C1295 C1292 1.386 . S
C1296 C1291 1.490 . S
C1296 C1298 1.395 . S
C1296 C1299 1.403 . S
H1297 C1303 0.930 . S
C1298 H1284 0.930 . S
C1298 C1296 1.395 . S
C1298 C1301 1.403 . S
C1299 C1296 1.403 . S
C1299 C1300 1.524 . S
C1299 C1303 1.400 . S
C1300 H1285 0.960 . S
C1300 H1286 0.960 . S
C1300 H1287 0.960 . S
C1300 C1299 1.524 . S
C1301 C1298 1.403 . S
C1301 C1302 1.392 . S
C1301 C1305 1.495 . S
C1302 C1301 1.392 . S
C1302 C1303 1.385 . S
C1302 C1304 1.478 . S
C1303 H1297 0.930 . S
C1303 C1299 1.400 . S
C1303 C1302 1.385 . S
C1304 C1302 1.478 . S
C1304 C1306 1.381 . S
C1304 C1310 1.383 . S
C1305 C1301 1.495 . S
C1305 H1311 0.959 . S
C1305 H1312 0.961 . S
C1305 H1313 0.960 . S
C1306 C1304 1.381 . S
C1306 C1307 1.394 . S
C1306 H1314 0.930 . S
C1307 C1306 1.394 . S
C1307 C1308 1.383 . S
C1307 H1315 0.929 . S
C1308 C1307 1.383 . S
C1308 C1309 1.377 . S
C1309 H1293 0.930 . S
C1309 C1308 1.377 . S
C1309 C1310 1.379 . S
C1310 H1294 0.931 . S
C1310 C1304 1.383 . S
C1310 C1309 1.379 . S
H1311 C1305 0.959 . S
H1312 C1305 0.961 . S
H1313 C1305 0.960 . S
H1314 C1306 0.930 . S
H1315 C1307 0.929 . S
H1316 C1324 0.929 . S
H1317 C1326 0.930 . S
H1318 C1328 0.930 . S
H1319 C1331 0.929 . S
H1320 C1334 0.930 . S
H1321 C1336 0.960 . S
H1322 C1336 0.960 . S
H1323 C1336 0.960 . S
C1324 H1316 0.929 . S
C1324 C1325 1.377 . S
C1324 C1326 1.384 . S
C1325 C1324 1.377 . S
C1325 C1331 1.390 . S
C1326 H1317 0.930 . S
C1326 C1324 1.384 . S
C1326 C1327 1.372 . S
C1327 C1326 1.372 . S
C1327 C1328 1.400 . S
C1327 C1332 1.490 . S
C1328 H1318 0.930 . S
C1328 C1327 1.400 . S
C1328 C1331 1.386 . S
H1329 C1345 0.930 . S
H1330 C1346 0.931 . S
C1331 H1319 0.929 . S
C1331 C1325 1.390 . S
C1331 C1328 1.386 . S
C1332 C1327 1.490 . S
C1332 C1334 1.395 . S
C1332 C1335 1.403 . S
H1333 C1339 0.930 . S
C1334 H1320 0.930 . S
C1334 C1332 1.395 . S
C1334 C1337 1.403 . S
C1335 C1332 1.403 . S
C1335 C1336 1.524 . S
C1335 C1339 1.400 . S
C1336 H1321 0.960 . S
C1336 H1322 0.960 . S
C1336 H1323 0.960 . S
C1336 C1335 1.524 . S
C1337 C1334 1.403 . S
C1337 C1338 1.392 . S
C1337 C1341 1.495 . S
C1338 C1337 1.392 . S
C1338 C1339 1.385 . S
C1338 C1340 1.478 . S
C1339 H1333 0.930 . S
C1339 C1335 1.400 . S
C1339 C1338 1.385 . S
C1340 C1338 1.478 . S
C1340 C1342 1.381 . S
C1340 C1346 1.383 . S
C1341 C1337 1.495 . S
C1341 H1347 0.959 . S
C1341 H1348 0.961 . S
C1341 H1349 0.960 . S
C1342 C1340 1.381 . S
C1342 C1343 1.394 . S
C1342 H1350 0.930 . S
C1343 C1342 1.394 . S
C1343 C1344 1.383 . S
C1343 H1351 0.929 . S
C1344 C1343 1.383 . S
C1344 C1345 1.377 . S
C1345 H1329 0.930 . S
C1345 C1344 1.377 . S
C1345 C1346 1.379 . S
C1346 H1330 0.931 . S
C1346 C1340 1.383 . S
C1346 C1345 1.379 . S
H1347 C1341 0.959 . S
H1348 C1341 0.961 . S
H1349 C1341 0.960 . S
H1350 C1342 0.930 . S
H1351 C1343 0.929 . S
H1352 C1360 0.929 . S
H1353 C1362 0.930 . S
H1354 C1364 0.940 . S
H1355 C1367 0.925 1_655 S
H1356 C1370 0.930 . S
H1357 C1372 0.960 . S
H1358 C1372 0.960 . S
H1359 C1372 0.960 . S
C1360 H1352 0.929 . S
C1360 C1361 1.377 . S
C1360 C1362 1.384 . S
C1361 C1360 1.377 . S
C1361 C1367 1.396 . S
C1362 H1353 0.930 . S
C1362 C1360 1.384 . S
C1362 C1363 1.372 . S
C1363 C1362 1.372 . S
C1363 C1364 1.393 1_455 S
C1363 C1368 1.490 . S
C1364 H1354 0.940 . S
C1364 C1363 1.393 1_655 S
C1364 C1367 1.384 1_655 S
H1365 C1381 0.930 . S
H1366 C1382 0.931 . S
C1367 H1355 0.925 1_455 S
C1367 C1361 1.396 . S
C1367 C1364 1.384 1_455 S
C1368 C1363 1.490 . S
C1368 C1370 1.395 1_455 S
C1368 C1371 1.403 . S
H1369 C1375 0.930 . S
C1370 H1356 0.930 . S
C1370 C1368 1.395 1_655 S
C1370 C1373 1.403 . S
C1371 C1368 1.403 . S
C1371 C1372 1.524 . S
C1371 C1375 1.400 . S
C1372 H1357 0.960 . S
C1372 H1358 0.960 . S
C1372 H1359 0.960 . S
C1372 C1371 1.524 . S
C1373 C1370 1.403 . S
C1373 C1374 1.392 . S
C1373 C1377 1.495 . S
C1374 C1373 1.392 . S
C1374 C1375 1.385 1_655 S
C1374 C1376 1.478 . S
C1375 H1369 0.930 . S
C1375 C1371 1.400 . S
C1375 C1374 1.385 1_455 S
C1376 C1374 1.478 . S
C1376 C1378 1.360 1_655 S
C1376 C1382 1.383 . S
C1377 C1373 1.495 . S
C1377 H1383 0.959 . S
C1377 H1384 0.961 . S
C1377 H1385 0.960 . S
C1378 C1376 1.360 1_455 S
C1378 C1379 1.394 . S
C1378 H1386 0.957 . S
C1379 C1378 1.394 . S
C1379 C1380 1.368 1_455 S
C1379 H1387 0.945 . S
C1380 C1379 1.368 1_655 S
C1380 C1381 1.377 . S
C1381 H1365 0.930 . S
C1381 C1380 1.377 . S
C1381 C1382 1.379 . S
C1382 H1366 0.931 . S
C1382 C1376 1.383 . S
C1382 C1381 1.379 . S
H1383 C1377 0.959 . S
H1384 C1377 0.961 . S
H1385 C1377 0.960 . S
H1386 C1378 0.957 . S
H1387 C1379 0.945 . S
H1388 C1396 0.929 . S
H1389 C1398 0.930 . S
H1390 C1400 0.930 . S
H1391 C1403 0.929 . S
H1392 C1406 0.930 . S
H1393 C1408 0.960 . S
H1394 C1408 0.960 . S
H1395 C1408 0.960 . S
C1396 H1388 0.929 . S
C1396 C1397 1.377 . S
C1396 C1398 1.384 . S
C1397 C1396 1.377 . S
C1397 C1403 1.390 . S
C1398 H1389 0.930 . S
C1398 C1396 1.384 . S
C1398 C1399 1.372 . S
C1399 C1398 1.372 . S
C1399 C1400 1.400 . S
C1399 C1404 1.490 . S
C1400 H1390 0.930 . S
C1400 C1399 1.400 . S
C1400 C1403 1.386 . S
H1401 C1417 0.930 . S
H1402 C1418 0.931 . S
C1403 H1391 0.929 . S
C1403 C1397 1.390 . S
C1403 C1400 1.386 . S
C1404 C1399 1.490 . S
C1404 C1406 1.395 . S
C1404 C1407 1.403 . S
H1405 C1411 0.930 . S
C1406 H1392 0.930 . S
C1406 C1404 1.395 . S
C1406 C1409 1.403 . S
C1407 C1404 1.403 . S
C1407 C1408 1.524 . S
C1407 C1411 1.400 . S
C1408 H1393 0.960 . S
C1408 H1394 0.960 . S
C1408 H1395 0.960 . S
C1408 C1407 1.524 . S
C1409 C1406 1.403 . S
C1409 C1410 1.392 . S
C1409 C1413 1.495 . S
C1410 C1409 1.392 . S
C1410 C1411 1.385 . S
C1410 C1412 1.478 1_556 S
C1411 H1405 0.930 . S
C1411 C1407 1.400 . S
C1411 C1410 1.385 . S
C1412 C1410 1.478 1_554 S
C1412 C1414 1.381 . S
C1412 C1418 1.383 . S
C1413 C1409 1.495 . S
C1413 H1419 0.959 . S
C1413 H1420 0.961 . S
C1413 H1421 0.960 . S
C1414 C1412 1.381 . S
C1414 C1415 1.394 . S
C1414 H1422 0.930 . S
C1415 C1414 1.394 . S
C1415 C1416 1.383 . S
C1415 H1423 0.929 . S
C1416 C1415 1.383 . S
C1416 C1417 1.377 . S
C1417 H1401 0.930 . S
C1417 C1416 1.377 . S
C1417 C1418 1.379 . S
C1418 H1402 0.931 . S
C1418 C1412 1.383 . S
C1418 C1417 1.379 . S
H1419 C1413 0.959 . S
H1420 C1413 0.961 . S
H1421 C1413 0.960 . S
H1422 C1414 0.930 . S
H1423 C1415 0.929 . S
H1424 C1432 0.929 . S
H1425 C1434 0.930 . S
H1426 C1436 0.930 . S
H1427 C1439 0.929 . S
H1428 C1442 0.930 . S
H1429 C1444 0.960 . S
H1430 C1444 0.960 . S
H1431 C1444 0.960 . S
C1432 H1424 0.929 . S
C1432 C1433 1.377 . S
C1432 C1434 1.384 . S
C1433 C1432 1.377 . S
C1433 C1439 1.390 . S
C1434 H1425 0.930 . S
C1434 C1432 1.384 . S
C1434 C1435 1.372 . S
C1435 C1434 1.372 . S
C1435 C1436 1.400 . S
C1435 C1440 1.490 . S
C1436 H1426 0.930 . S
C1436 C1435 1.400 . S
C1436 C1439 1.386 . S
H1437 C1453 0.930 . S
H1438 C1454 0.931 . S
C1439 H1427 0.929 . S
C1439 C1433 1.390 . S
C1439 C1436 1.386 . S
C1440 C1435 1.490 . S
C1440 C1442 1.395 . S
C1440 C1443 1.403 . S
H1441 C1447 0.930 . S
C1442 H1428 0.930 . S
C1442 C1440 1.395 . S
C1442 C1445 1.403 . S
C1443 C1440 1.403 . S
C1443 C1444 1.524 . S
C1443 C1447 1.400 . S
C1444 H1429 0.960 . S
C1444 H1430 0.960 . S
C1444 H1431 0.960 . S
C1444 C1443 1.524 . S
C1445 C1442 1.403 . S
C1445 C1446 1.392 . S
C1445 C1449 1.495 . S
C1446 C1445 1.392 . S
C1446 C1447 1.385 . S
C1446 C1448 1.478 . S
C1447 H1441 0.930 . S
C1447 C1443 1.400 . S
C1447 C1446 1.385 . S
C1448 C1446 1.478 . S
C1448 C1450 1.381 . S
C1448 C1454 1.383 . S
C1449 C1445 1.495 . S
C1449 H1455 0.959 . S
C1449 H1456 0.961 . S
C1449 H1457 0.960 . S
C1450 C1448 1.381 . S
C1450 C1451 1.394 . S
C1450 H1458 0.930 . S
C1451 C1450 1.394 . S
C1451 C1452 1.383 . S
C1451 H1459 0.929 . S
C1452 C1451 1.383 . S
C1452 C1453 1.377 . S
C1453 H1437 0.930 . S
C1453 C1452 1.377 . S
C1453 C1454 1.379 . S
C1454 H1438 0.931 . S
C1454 C1448 1.383 . S
C1454 C1453 1.379 . S
H1455 C1449 0.959 . S
H1456 C1449 0.961 . S
H1457 C1449 0.960 . S
H1458 C1450 0.930 . S
H1459 C1451 0.929 . S
H1460 C1468 0.929 . S
H1461 C1470 0.930 . S
H1462 C1472 0.930 . S
H1463 C1475 0.929 . S
H1464 C1478 0.930 . S
H1465 C1480 0.960 . S
H1466 C1480 0.960 . S
H1467 C1480 0.960 . S
C1468 H1460 0.929 . S
C1468 C1469 1.377 . S
C1468 C1470 1.384 . S
C1469 C1468 1.377 . S
C1469 C1475 1.390 . S
C1470 H1461 0.930 . S
C1470 C1468 1.384 . S
C1470 C1471 1.372 . S
C1471 C1470 1.372 . S
C1471 C1472 1.400 . S
C1471 C1476 1.490 . S
C1472 H1462 0.930 . S
C1472 C1471 1.400 . S
C1472 C1475 1.386 . S
H1473 C1489 0.930 . S
H1474 C1490 0.931 . S
C1475 H1463 0.929 . S
C1475 C1469 1.390 . S
C1475 C1472 1.386 . S
C1476 C1471 1.490 . S
C1476 C1478 1.395 . S
C1476 C1479 1.403 . S
H1477 C1483 0.930 . S
C1478 H1464 0.930 . S
C1478 C1476 1.395 . S
C1478 C1481 1.403 . S
C1479 C1476 1.403 . S
C1479 C1480 1.524 . S
C1479 C1483 1.400 . S
C1480 H1465 0.960 . S
C1480 H1466 0.960 . S
C1480 H1467 0.960 . S
C1480 C1479 1.524 . S
C1481 C1478 1.403 . S
C1481 C1482 1.392 . S
C1481 C1485 1.495 . S
C1482 C1481 1.392 . S
C1482 C1483 1.385 . S
C1482 C1484 1.478 . S
C1483 H1477 0.930 . S
C1483 C1479 1.400 . S
C1483 C1482 1.385 . S
C1484 C1482 1.478 . S
C1484 C1486 1.381 . S
C1484 C1490 1.383 . S
C1485 C1481 1.495 . S
C1485 H1491 0.959 . S
C1485 H1492 0.961 . S
C1485 H1493 0.960 . S
C1486 C1484 1.381 . S
C1486 C1487 1.394 . S
C1486 H1494 0.930 . S
C1487 C1486 1.394 . S
C1487 C1488 1.383 . S
C1487 H1495 0.929 . S
C1488 C1487 1.383 . S
C1488 C1489 1.377 . S
C1489 H1473 0.930 . S
C1489 C1488 1.377 . S
C1489 C1490 1.379 . S
C1490 H1474 0.931 . S
C1490 C1484 1.383 . S
C1490 C1489 1.379 . S
H1491 C1485 0.959 . S
H1492 C1485 0.961 . S
H1493 C1485 0.960 . S
H1494 C1486 0.930 . S
H1495 C1487 0.929 . S
H1496 C1504 0.929 . S
H1497 C1506 0.930 . S
H1498 C1508 0.930 . S
H1499 C1511 0.929 . S
H1500 C1514 0.930 . S
H1501 C1516 0.960 . S
H1502 C1516 0.960 . S
H1503 C1516 0.898 1_655 S
C1504 H1496 0.929 . S
C1504 C1505 1.377 1_455 S
C1504 C1506 1.384 . S
C1505 C1504 1.377 1_655 S
C1505 C1511 1.390 . S
C1506 H1497 0.930 . S
C1506 C1504 1.384 . S
C1506 C1507 1.372 1_455 S
C1507 C1506 1.372 1_655 S
C1507 C1508 1.400 . S
C1507 C1512 1.491 . S
C1508 H1498 0.930 . S
C1508 C1507 1.400 . S
C1508 C1511 1.386 . S
H1509 C1525 0.930 . S
H1510 C1526 0.931 . S
C1511 H1499 0.929 . S
C1511 C1505 1.390 . S
C1511 C1508 1.386 . S
C1512 C1507 1.491 . S
C1512 C1514 1.397 . S
C1512 C1515 1.400 1_655 S
H1513 C1519 0.930 . S
C1514 H1500 0.930 . S
C1514 C1512 1.397 . S
C1514 C1517 1.403 . S
C1515 C1512 1.400 1_455 S
C1515 C1516 1.524 . S
C1515 C1519 1.400 . S
C1516 H1501 0.960 . S
C1516 H1502 0.960 . S
C1516 H1503 0.898 1_455 S
C1516 C1515 1.524 . S
C1517 C1514 1.403 . S
C1517 C1518 1.377 1_655 S
C1517 C1521 1.495 . S
C1518 C1517 1.377 1_455 S
C1518 C1519 1.402 . S
C1518 C1520 1.484 . S
C1519 H1513 0.930 . S
C1519 C1515 1.400 . S
C1519 C1518 1.402 . S
C1520 C1518 1.484 . S
C1520 C1522 1.381 . S
C1520 C1526 1.383 1_455 S
C1521 C1517 1.495 . S
C1521 H1527 0.959 . S
C1521 H1528 0.961 . S
C1521 H1529 0.960 1_655 S
C1522 C1520 1.381 . S
C1522 C1523 1.394 . S
C1522 H1530 0.930 . S
C1523 C1522 1.394 . S
C1523 C1524 1.383 . S
C1523 H1531 0.929 . S
C1524 C1523 1.383 . S
C1524 C1525 1.377 1_455 S
C1525 H1509 0.930 . S
C1525 C1524 1.377 1_655 S
C1525 C1526 1.379 . S
C1526 H1510 0.931 . S
C1526 C1520 1.383 1_655 S
C1526 C1525 1.379 . S
H1527 C1521 0.959 . S
H1528 C1521 0.961 . S
H1529 C1521 0.960 1_455 S
H1530 C1522 0.930 . S
H1531 C1523 0.929 . S
H1532 C1540 0.929 . S
H1533 C1542 0.930 . S
H1534 C1544 0.930 . S
H1535 C1547 0.929 . S
H1536 C1550 0.930 . S
H1537 C1552 0.960 . S
H1538 C1552 0.960 . S
H1539 C1552 0.960 . S
C1540 H1532 0.929 . S
C1540 C1541 1.377 . S
C1540 C1542 1.384 . S
C1541 C1540 1.377 . S
C1541 C1547 1.390 . S
C1542 H1533 0.930 . S
C1542 C1540 1.384 . S
C1542 C1543 1.372 . S
C1543 C1542 1.372 . S
C1543 C1544 1.400 . S
C1543 C1548 1.490 . S
C1544 H1534 0.930 . S
C1544 C1543 1.400 . S
C1544 C1547 1.386 . S
H1545 C1561 0.930 . S
H1546 C1562 0.931 . S
C1547 H1535 0.929 . S
C1547 C1541 1.390 . S
C1547 C1544 1.386 . S
C1548 C1543 1.490 . S
C1548 C1550 1.395 . S
C1548 C1551 1.403 . S
H1549 C1555 0.930 . S
C1550 H1536 0.930 . S
C1550 C1548 1.395 . S
C1550 C1553 1.403 . S
C1551 C1548 1.403 . S
C1551 C1552 1.524 . S
C1551 C1555 1.400 . S
C1552 H1537 0.960 . S
C1552 H1538 0.960 . S
C1552 H1539 0.960 . S
C1552 C1551 1.524 . S
C1553 C1550 1.403 . S
C1553 C1554 1.392 . S
C1553 C1557 1.495 . S
C1554 C1553 1.392 . S
C1554 C1555 1.385 . S
C1554 C1556 1.478 1_554 S
C1555 H1549 0.930 . S
C1555 C1551 1.400 . S
C1555 C1554 1.385 . S
C1556 C1554 1.478 1_556 S
C1556 C1558 1.381 . S
C1556 C1562 1.383 . S
C1557 C1553 1.495 . S
C1557 H1563 0.959 . S
C1557 H1564 0.961 . S
C1557 H1565 0.960 . S
C1558 C1556 1.381 . S
C1558 C1559 1.394 . S
C1558 H1566 0.930 . S
C1559 C1558 1.394 . S
C1559 C1560 1.383 . S
C1559 H1567 0.929 . S
C1560 C1559 1.383 . S
C1560 C1561 1.377 . S
C1561 H1545 0.930 . S
C1561 C1560 1.377 . S
C1561 C1562 1.379 . S
C1562 H1546 0.931 . S
C1562 C1556 1.383 . S
C1562 C1561 1.379 . S
H1563 C1557 0.959 . S
H1564 C1557 0.961 . S
H1565 C1557 0.960 . S
H1566 C1558 0.930 . S
H1567 C1559 0.929 . S
H1568 C1576 0.883 1_655 S
H1569 C1578 0.930 . S
H1570 C1580 0.930 1_556 S
H1571 C1583 0.929 . S
H1572 C1586 0.930 . S
H1573 C1588 0.960 1_565 S
H1574 C1588 0.960 . S
H1575 C1588 0.960 . S
C1576 H1568 0.883 1_455 S
C1576 C1577 1.445 . S
C1576 C1578 1.367 1_455 S
C1577 C1576 1.445 . S
C1577 C1583 1.390 . S
C1578 H1569 0.930 . S
C1578 C1576 1.367 1_655 S
C1578 C1579 1.372 1_655 S
C1579 C1578 1.372 1_455 S
C1579 C1580 1.400 . S
C1579 C1584 1.490 . S
C1580 H1570 0.930 1_554 S
C1580 C1579 1.400 . S
C1580 C1583 1.386 . S
H1581 C1597 0.930 1_455 S
H1582 C1598 0.891 1_455 S
C1583 H1571 0.929 . S
C1583 C1577 1.390 . S
C1583 C1580 1.386 . S
C1584 C1579 1.490 . S
C1584 C1586 1.395 1_454 S
C1584 C1587 1.403 . S
H1585 C1591 0.930 . S
C1586 H1572 0.930 . S
C1586 C1584 1.395 1_656 S
C1586 C1589 1.403 1_545 S
C1587 C1584 1.403 . S
C1587 C1588 1.524 . S
C1587 C1591 1.400 1_545 S
C1588 H1573 0.960 1_545 S
C1588 H1574 0.960 . S
C1588 H1575 0.960 . S
C1588 C1587 1.524 . S
C1589 C1586 1.403 1_565 S
C1589 C1590 1.392 . S
C1589 C1593 1.495 . S
C1590 C1589 1.392 . S
C1590 C1591 1.385 1_656 S
C1590 C1592 1.478 . S
C1591 H1585 0.930 . S
C1591 C1587 1.400 1_565 S
C1591 C1590 1.385 1_454 S
C1592 C1590 1.478 . S
C1592 C1594 1.381 . S
C1592 C1598 1.415 . S
C1593 C1589 1.495 . S
C1593 H1599 0.959 1_565 S
C1593 H1600 0.961 . S
C1593 H1601 0.960 . S
C1594 C1592 1.381 . S
C1594 C1595 1.394 . S
C1594 H1602 0.930 1_556 S
C1595 C1594 1.394 . S
C1595 C1596 1.383 . S
C1595 H1603 0.929 . S
C1596 C1595 1.383 . S
C1596 C1597 1.377 . S
C1597 H1581 0.930 1_655 S
C1597 C1596 1.377 . S
C1597 C1598 1.389 . S
C1598 H1582 0.891 1_655 S
C1598 C1592 1.415 . S
C1598 C1597 1.389 . S
H1599 C1593 0.959 1_545 S
H1600 C1593 0.961 . S
H1601 C1593 0.960 . S
H1602 C1594 0.930 1_554 S
H1603 C1595 0.929 . S
H1604 C1612 0.929 . S
H1605 C1614 0.930 . S
H1606 C1616 0.930 . S
H1607 C1619 0.929 . S
H1608 C1622 0.930 . S
H1609 C1624 0.960 . S
H1610 C1624 0.960 . S
H1611 C1624 0.960 . S
C1612 H1604 0.929 . S
C1612 C1613 1.377 . S
C1612 C1614 1.384 . S
C1613 C1612 1.377 . S
C1613 C1619 1.390 . S
C1614 H1605 0.930 . S
C1614 C1612 1.384 . S
C1614 C1615 1.372 . S
C1615 C1614 1.372 . S
C1615 C1616 1.400 . S
C1615 C1620 1.490 . S
C1616 H1606 0.930 . S
C1616 C1615 1.400 . S
C1616 C1619 1.386 . S
H1617 C1633 0.930 . S
H1618 C1634 0.931 . S
C1619 H1607 0.929 . S
C1619 C1613 1.390 . S
C1619 C1616 1.386 . S
C1620 C1615 1.490 . S
C1620 C1622 1.395 . S
C1620 C1623 1.403 . S
H1621 C1627 0.930 . S
C1622 H1608 0.930 . S
C1622 C1620 1.395 . S
C1622 C1625 1.403 . S
C1623 C1620 1.403 . S
C1623 C1624 1.524 . S
C1623 C1627 1.400 . S
C1624 H1609 0.960 . S
C1624 H1610 0.960 . S
C1624 H1611 0.960 . S
C1624 C1623 1.524 . S
C1625 C1622 1.403 . S
C1625 C1626 1.392 . S
C1625 C1629 1.495 . S
C1626 C1625 1.392 . S
C1626 C1627 1.385 . S
C1626 C1628 1.478 . S
C1627 H1621 0.930 . S
C1627 C1623 1.400 . S
C1627 C1626 1.385 . S
C1628 C1626 1.478 . S
C1628 C1630 1.381 . S
C1628 C1634 1.383 . S
C1629 C1625 1.495 . S
C1629 H1635 0.959 . S
C1629 H1636 0.961 . S
C1629 H1637 0.960 . S
C1630 C1628 1.381 . S
C1630 C1631 1.394 . S
C1630 H1638 0.930 . S
C1631 C1630 1.394 . S
C1631 C1632 1.383 . S
C1631 H1639 0.929 . S
C1632 C1631 1.383 . S
C1632 C1633 1.377 . S
C1633 H1617 0.930 . S
C1633 C1632 1.377 . S
C1633 C1634 1.379 . S
C1634 H1618 0.931 . S
C1634 C1628 1.383 . S
C1634 C1633 1.379 . S
H1635 C1629 0.959 . S
H1636 C1629 0.961 . S
H1637 C1629 0.960 . S
H1638 C1630 0.930 . S
H1639 C1631 0.929 . S
H1640 C1648 0.929 . S
H1641 C1650 0.930 . S
H1642 C1652 0.930 . S
H1643 C1655 0.929 . S
H1644 C1658 0.930 . S
H1645 C1660 0.960 . S
H1646 C1660 0.960 . S
H1647 C1660 0.960 . S
C1648 H1640 0.929 . S
C1648 C1649 1.377 . S
C1648 C1650 1.384 . S
C1649 C1648 1.377 . S
C1649 C1655 1.390 . S
C1650 H1641 0.930 . S
C1650 C1648 1.384 . S
C1650 C1651 1.372 . S
C1651 C1650 1.372 . S
C1651 C1652 1.400 . S
C1651 C1656 1.490 . S
C1652 H1642 0.930 . S
C1652 C1651 1.400 . S
C1652 C1655 1.386 . S
H1653 C1669 0.930 . S
H1654 C1670 0.931 . S
C1655 H1643 0.929 . S
C1655 C1649 1.390 . S
C1655 C1652 1.386 . S
C1656 C1651 1.490 . S
C1656 C1658 1.395 . S
C1656 C1659 1.403 . S
H1657 C1663 0.930 . S
C1658 H1644 0.930 . S
C1658 C1656 1.395 . S
C1658 C1661 1.403 1_545 S
C1659 C1656 1.403 . S
C1659 C1660 1.524 . S
C1659 C1663 1.400 1_545 S
C1660 H1645 0.960 . S
C1660 H1646 0.960 . S
C1660 H1647 0.960 . S
C1660 C1659 1.524 . S
C1661 C1658 1.403 1_565 S
C1661 C1662 1.392 . S
C1661 C1665 1.495 . S
C1662 C1661 1.392 . S
C1662 C1663 1.385 . S
C1662 C1664 1.478 . S
C1663 H1657 0.930 . S
C1663 C1659 1.400 1_565 S
C1663 C1662 1.385 . S
C1664 C1662 1.478 . S
C1664 C1666 1.381 . S
C1664 C1670 1.383 . S
C1665 C1661 1.495 . S
C1665 H1671 0.959 . S
C1665 H1672 0.961 . S
C1665 H1673 0.960 . S
C1666 C1664 1.381 . S
C1666 C1667 1.394 . S
C1666 H1674 0.930 . S
C1667 C1666 1.394 . S
C1667 C1668 1.383 . S
C1667 H1675 0.929 . S
C1668 C1667 1.383 . S
C1668 C1669 1.377 . S
C1669 H1653 0.930 . S
C1669 C1668 1.377 . S
C1669 C1670 1.379 . S
C1670 H1654 0.931 . S
C1670 C1664 1.383 . S
C1670 C1669 1.379 . S
H1671 C1665 0.959 . S
H1672 C1665 0.961 . S
H1673 C1665 0.960 . S
H1674 C1666 0.930 . S
H1675 C1667 0.929 . S
H1676 C1684 0.929 . S
H1677 C1686 0.930 . S
H1678 C1688 0.930 . S
H1679 C1691 0.929 . S
H1680 C1694 0.930 . S
H1681 C1696 0.960 . S
H1682 C1696 0.960 . S
H1683 C1696 0.960 . S
C1684 H1676 0.929 . S
C1684 C1685 1.377 . S
C1684 C1686 1.384 . S
C1685 C1684 1.377 . S
C1685 C1691 1.390 . S
C1686 H1677 0.930 . S
C1686 C1684 1.384 . S
C1686 C1687 1.372 . S
C1687 C1686 1.372 . S
C1687 C1688 1.400 . S
C1687 C1692 1.490 . S
C1688 H1678 0.930 . S
C1688 C1687 1.400 . S
C1688 C1691 1.386 . S
H1689 C1705 0.930 . S
H1690 C1706 0.931 . S
C1691 H1679 0.929 . S
C1691 C1685 1.390 . S
C1691 C1688 1.386 . S
C1692 C1687 1.490 . S
C1692 C1694 1.395 . S
C1692 C1695 1.403 . S
H1693 C1699 0.930 . S
C1694 H1680 0.930 . S
C1694 C1692 1.395 . S
C1694 C1697 1.403 . S
C1695 C1692 1.403 . S
C1695 C1696 1.524 . S
C1695 C1699 1.400 . S
C1696 H1681 0.960 . S
C1696 H1682 0.960 . S
C1696 H1683 0.960 . S
C1696 C1695 1.524 . S
C1697 C1694 1.403 . S
C1697 C1698 1.392 . S
C1697 C1701 1.495 . S
C1698 C1697 1.392 . S
C1698 C1699 1.385 . S
C1698 C1700 1.478 . S
C1699 H1693 0.930 . S
C1699 C1695 1.400 . S
C1699 C1698 1.385 . S
C1700 C1698 1.478 . S
C1700 C1702 1.381 . S
C1700 C1706 1.383 . S
C1701 C1697 1.495 . S
C1701 H1707 0.959 . S
C1701 H1708 0.961 . S
C1701 H1709 0.960 . S
C1702 C1700 1.381 . S
C1702 C1703 1.394 . S
C1702 H1710 0.930 . S
C1703 C1702 1.394 . S
C1703 C1704 1.383 . S
C1703 H1711 0.929 . S
C1704 C1703 1.383 . S
C1704 C1705 1.377 . S
C1705 H1689 0.930 . S
C1705 C1704 1.377 . S
C1705 C1706 1.379 . S
C1706 H1690 0.931 . S
C1706 C1700 1.383 . S
C1706 C1705 1.379 . S
H1707 C1701 0.959 . S
H1708 C1701 0.961 . S
H1709 C1701 0.960 . S
H1710 C1702 0.930 . S
H1711 C1703 0.929 . S
H1712 C1720 0.929 . S
H1713 C1722 0.930 . S
H1714 C1724 0.930 . S
H1715 C1727 0.929 1_655 S
H1716 C1730 0.930 . S
H1717 C1732 0.960 . S
H1718 C1732 0.960 . S
H1719 C1732 0.960 . S
C1720 H1712 0.929 . S
C1720 C1721 1.377 . S
C1720 C1722 1.384 . S
C1721 C1720 1.377 . S
C1721 C1727 1.390 . S
C1722 H1713 0.930 . S
C1722 C1720 1.384 . S
C1722 C1723 1.372 . S
C1723 C1722 1.372 . S
C1723 C1724 1.400 1_455 S
C1723 C1728 1.490 . S
C1724 H1714 0.930 . S
C1724 C1723 1.400 1_655 S
C1724 C1727 1.386 1_655 S
H1725 C1741 0.930 . S
H1726 C1742 0.931 . S
C1727 H1715 0.929 1_455 S
C1727 C1721 1.390 . S
C1727 C1724 1.386 1_455 S
C1728 C1723 1.490 . S
C1728 C1730 1.395 . S
C1728 C1731 1.403 1_455 S
H1729 C1735 0.930 . S
C1730 H1716 0.930 . S
C1730 C1728 1.395 . S
C1730 C1733 1.403 1_565 S
C1731 C1728 1.403 1_655 S
C1731 C1732 1.524 . S
C1731 C1735 1.400 1_565 S
C1732 H1717 0.960 . S
C1732 H1718 0.960 . S
C1732 H1719 0.960 . S
C1732 C1731 1.524 . S
C1733 C1730 1.403 1_545 S
C1733 C1734 1.356 1_455 S
C1733 C1737 1.495 . S
C1734 C1733 1.356 1_655 S
C1734 C1735 1.415 . S
C1734 C1736 1.488 . S
C1735 H1729 0.930 . S
C1735 C1731 1.400 1_545 S
C1735 C1734 1.415 . S
C1736 C1734 1.488 . S
C1736 C1738 1.381 1_655 S
C1736 C1742 1.383 . S
C1737 C1733 1.495 . S
C1737 H1743 0.959 . S
C1737 H1744 0.961 . S
C1737 H1745 0.960 . S
C1738 C1736 1.381 1_455 S
C1738 C1739 1.379 1_455 S
C1738 H1746 0.930 . S
C1739 C1738 1.379 1_655 S
C1739 C1740 1.431 . S
C1739 H1747 0.900 1_655 S
C1740 C1739 1.431 . S
C1740 C1741 1.377 . S
C1741 H1725 0.930 . S
C1741 C1740 1.377 . S
C1741 C1742 1.379 . S
C1742 H1726 0.931 . S
C1742 C1736 1.383 . S
C1742 C1741 1.379 . S
H1743 C1737 0.959 . S
H1744 C1737 0.961 . S
H1745 C1737 0.960 . S
H1746 C1738 0.930 . S
H1747 C1739 0.900 1_455 S
H1748 C1756 0.929 . S
H1749 C1758 0.930 . S
H1750 C1760 0.930 . S
H1751 C1763 0.929 . S
H1752 C1766 0.930 . S
H1753 C1768 0.960 . S
H1754 C1768 0.960 . S
H1755 C1768 0.960 . S
C1756 H1748 0.929 . S
C1756 C1757 1.377 . S
C1756 C1758 1.384 . S
C1757 C1756 1.377 . S
C1757 C1763 1.390 . S
C1758 H1749 0.930 . S
C1758 C1756 1.384 . S
C1758 C1759 1.372 . S
C1759 C1758 1.372 . S
C1759 C1760 1.400 . S
C1759 C1764 1.490 . S
C1760 H1750 0.930 . S
C1760 C1759 1.400 . S
C1760 C1763 1.386 . S
H1761 C1777 0.930 . S
H1762 C1778 0.931 . S
C1763 H1751 0.929 . S
C1763 C1757 1.390 . S
C1763 C1760 1.386 . S
C1764 C1759 1.490 . S
C1764 C1766 1.395 . S
C1764 C1767 1.403 . S
H1765 C1771 0.930 . S
C1766 H1752 0.930 . S
C1766 C1764 1.395 . S
C1766 C1769 1.403 . S
C1767 C1764 1.403 . S
C1767 C1768 1.524 . S
C1767 C1771 1.400 . S
C1768 H1753 0.960 . S
C1768 H1754 0.960 . S
C1768 H1755 0.960 . S
C1768 C1767 1.524 . S
C1769 C1766 1.403 . S
C1769 C1770 1.392 . S
C1769 C1773 1.495 . S
C1770 C1769 1.392 . S
C1770 C1771 1.385 . S
C1770 C1772 1.478 . S
C1771 H1765 0.930 . S
C1771 C1767 1.400 . S
C1771 C1770 1.385 . S
C1772 C1770 1.478 . S
C1772 C1774 1.381 . S
C1772 C1778 1.383 . S
C1773 C1769 1.495 . S
C1773 H1779 0.959 . S
C1773 H1780 0.961 . S
C1773 H1781 0.960 . S
C1774 C1772 1.381 . S
C1774 C1775 1.394 . S
C1774 H1782 0.930 . S
C1775 C1774 1.394 . S
C1775 C1776 1.383 . S
C1775 H1783 0.929 . S
C1776 C1775 1.383 . S
C1776 C1777 1.377 . S
C1777 H1761 0.930 . S
C1777 C1776 1.377 . S
C1777 C1778 1.379 . S
C1778 H1762 0.931 . S
C1778 C1772 1.383 . S
C1778 C1777 1.379 . S
H1779 C1773 0.959 . S
H1780 C1773 0.961 . S
H1781 C1773 0.960 . S
H1782 C1774 0.930 . S
H1783 C1775 0.929 . S
H1784 C1792 0.929 . S
H1785 C1794 0.930 . S
H1786 C1796 0.930 . S
H1787 C1799 0.929 1_556 S
H1788 C1802 0.930 . S
H1789 C1804 0.960 . S
H1790 C1804 0.960 1_554 S
H1791 C1804 0.960 . S
C1792 H1784 0.929 . S
C1792 C1793 1.377 . S
C1792 C1794 1.384 . S
C1793 C1792 1.377 . S
C1793 C1799 1.390 . S
C1794 H1785 0.930 . S
C1794 C1792 1.384 . S
C1794 C1795 1.372 . S
C1795 C1794 1.372 . S
C1795 C1796 1.400 1_554 S
C1795 C1800 1.490 . S
C1796 H1786 0.930 . S
C1796 C1795 1.400 1_556 S
C1796 C1799 1.386 1_556 S
H1797 C1813 0.930 . S
H1798 C1814 0.931 . S
C1799 H1787 0.929 1_554 S
C1799 C1793 1.390 . S
C1799 C1796 1.386 1_554 S
C1800 C1795 1.490 . S
C1800 C1802 1.395 . S
C1800 C1803 1.403 1_554 S
H1801 C1807 0.930 . S
C1802 H1788 0.930 . S
C1802 C1800 1.395 . S
C1802 C1805 1.403 1_565 S
C1803 C1800 1.403 1_556 S
C1803 C1804 1.524 . S
C1803 C1807 1.400 1_565 S
C1804 H1789 0.960 . S
C1804 H1790 0.960 1_556 S
C1804 H1791 0.960 . S
C1804 C1803 1.524 . S
C1805 C1802 1.403 1_545 S
C1805 C1806 1.392 1_554 S
C1805 C1809 1.495 . S
C1806 C1805 1.392 1_556 S
C1806 C1807 1.385 . S
C1806 C1808 1.478 . S
C1807 H1801 0.930 . S
C1807 C1803 1.400 1_545 S
C1807 C1806 1.385 . S
C1808 C1806 1.478 . S
C1808 C1810 1.381 1_556 S
C1808 C1814 1.383 . S
C1809 C1805 1.495 . S
C1809 H1815 0.959 . S
C1809 H1816 0.961 1_554 S
C1809 H1817 0.960 . S
C1810 C1808 1.381 1_554 S
C1810 C1811 1.394 1_554 S
C1810 H1818 0.930 . S
C1811 C1810 1.394 1_556 S
C1811 C1812 1.383 . S
C1811 H1819 0.929 1_556 S
C1812 C1811 1.383 . S
C1812 C1813 1.377 . S
C1813 H1797 0.930 . S
C1813 C1812 1.377 . S
C1813 C1814 1.379 . S
C1814 H1798 0.931 . S
C1814 C1808 1.383 . S
C1814 C1813 1.379 . S
H1815 C1809 0.959 . S
H1816 C1809 0.961 1_556 S
H1817 C1809 0.960 . S
H1818 C1810 0.930 . S
H1819 C1811 0.929 1_554 S
H1820 C1828 0.929 . S
H1821 C1830 0.930 . S
H1822 C1832 0.930 . S
H1823 C1835 0.929 . S
H1824 C1838 0.930 . S
H1825 C1840 0.960 . S
H1826 C1840 0.960 . S
H1827 C1840 0.960 . S
C1828 H1820 0.929 . S
C1828 C1829 1.377 . S
C1828 C1830 1.384 . S
C1829 C1828 1.377 . S
C1829 C1835 1.390 . S
C1830 H1821 0.930 . S
C1830 C1828 1.384 . S
C1830 C1831 1.372 . S
C1831 C1830 1.372 . S
C1831 C1832 1.400 . S
C1831 C1836 1.490 . S
C1832 H1822 0.930 . S
C1832 C1831 1.400 . S
C1832 C1835 1.386 . S
H1833 C1849 0.930 . S
H1834 C1850 0.931 . S
C1835 H1823 0.929 . S
C1835 C1829 1.390 . S
C1835 C1832 1.386 . S
C1836 C1831 1.490 . S
C1836 C1838 1.395 . S
C1836 C1839 1.403 . S
H1837 C1843 0.930 . S
C1838 H1824 0.930 . S
C1838 C1836 1.395 . S
C1838 C1841 1.403 . S
C1839 C1836 1.403 . S
C1839 C1840 1.524 . S
C1839 C1843 1.400 . S
C1840 H1825 0.960 . S
C1840 H1826 0.960 . S
C1840 H1827 0.960 . S
C1840 C1839 1.524 . S
C1841 C1838 1.403 . S
C1841 C1842 1.392 . S
C1841 C1845 1.495 . S
C1842 C1841 1.392 . S
C1842 C1843 1.385 . S
C1842 C1844 1.478 . S
C1843 H1837 0.930 . S
C1843 C1839 1.400 . S
C1843 C1842 1.385 . S
C1844 C1842 1.478 . S
C1844 C1846 1.381 . S
C1844 C1850 1.383 . S
C1845 C1841 1.495 . S
C1845 H1851 0.959 . S
C1845 H1852 0.961 . S
C1845 H1853 0.960 . S
C1846 C1844 1.381 . S
C1846 C1847 1.394 . S
C1846 H1854 0.930 . S
C1847 C1846 1.394 . S
C1847 C1848 1.383 . S
C1847 H1855 0.929 . S
C1848 C1847 1.383 . S
C1848 C1849 1.377 . S
C1849 H1833 0.930 . S
C1849 C1848 1.377 . S
C1849 C1850 1.379 . S
C1850 H1834 0.931 . S
C1850 C1844 1.383 . S
C1850 C1849 1.379 . S
H1851 C1845 0.959 . S
H1852 C1845 0.961 . S
H1853 C1845 0.960 . S
H1854 C1846 0.930 . S
H1855 C1847 0.929 . S
H1856 C1864 0.929 . S
H1857 C1866 0.930 . S
H1858 C1868 0.930 . S
H1859 C1871 0.929 . S
H1860 C1874 0.930 . S
H1861 C1876 0.960 . S
H1862 C1876 0.960 . S
H1863 C1876 0.960 . S
C1864 H1856 0.929 . S
C1864 C1865 1.377 . S
C1864 C1866 1.384 . S
C1865 C1864 1.377 . S
C1865 C1871 1.390 . S
C1866 H1857 0.930 . S
C1866 C1864 1.384 . S
C1866 C1867 1.372 . S
C1867 C1866 1.372 . S
C1867 C1868 1.400 . S
C1867 C1872 1.490 . S
C1868 H1858 0.930 . S
C1868 C1867 1.400 . S
C1868 C1871 1.386 . S
H1869 C1885 0.930 . S
H1870 C1886 0.931 . S
C1871 H1859 0.929 . S
C1871 C1865 1.390 . S
C1871 C1868 1.386 . S
C1872 C1867 1.490 . S
C1872 C1874 1.395 . S
C1872 C1875 1.403 . S
H1873 C1879 0.930 . S
C1874 H1860 0.930 . S
C1874 C1872 1.395 . S
C1874 C1877 1.403 . S
C1875 C1872 1.403 . S
C1875 C1876 1.524 . S
C1875 C1879 1.400 . S
C1876 H1861 0.960 . S
C1876 H1862 0.960 . S
C1876 H1863 0.960 . S
C1876 C1875 1.524 . S
C1877 C1874 1.403 . S
C1877 C1878 1.392 . S
C1877 C1881 1.495 . S
C1878 C1877 1.392 . S
C1878 C1879 1.385 . S
C1878 C1880 1.478 . S
C1879 H1873 0.930 . S
C1879 C1875 1.400 . S
C1879 C1878 1.385 . S
C1880 C1878 1.478 . S
C1880 C1882 1.381 . S
C1880 C1886 1.383 . S
C1881 C1877 1.495 . S
C1881 H1887 0.959 . S
C1881 H1888 0.961 . S
C1881 H1889 0.960 . S
C1882 C1880 1.381 . S
C1882 C1883 1.394 . S
C1882 H1890 0.930 . S
C1883 C1882 1.394 . S
C1883 C1884 1.383 . S
C1883 H1891 0.929 . S
C1884 C1883 1.383 . S
C1884 C1885 1.377 . S
C1885 H1869 0.930 . S
C1885 C1884 1.377 . S
C1885 C1886 1.379 . S
C1886 H1870 0.931 . S
C1886 C1880 1.383 . S
C1886 C1885 1.379 . S
H1887 C1881 0.959 . S
H1888 C1881 0.961 . S
H1889 C1881 0.960 . S
H1890 C1882 0.930 . S
H1891 C1883 0.929 . S
H1892 C1900 0.929 . S
H1893 C1902 0.930 . S
H1894 C1904 0.930 . S
H1895 C1907 0.929 . S
H1896 C1910 0.930 . S
H1897 C1912 0.960 . S
H1898 C1912 0.960 . S
H1899 C1912 0.960 . S
C1900 H1892 0.929 . S
C1900 C1901 1.377 . S
C1900 C1902 1.384 . S
C1901 C1900 1.377 . S
C1901 C1907 1.390 . S
C1902 H1893 0.930 . S
C1902 C1900 1.384 . S
C1902 C1903 1.372 . S
C1903 C1902 1.372 . S
C1903 C1904 1.400 . S
C1903 C1908 1.490 . S
C1904 H1894 0.930 . S
C1904 C1903 1.400 . S
C1904 C1907 1.386 . S
H1905 C1921 0.930 . S
H1906 C1922 0.931 . S
C1907 H1895 0.929 . S
C1907 C1901 1.390 . S
C1907 C1904 1.386 . S
C1908 C1903 1.490 . S
C1908 C1910 1.395 . S
C1908 C1911 1.403 . S
H1909 C1915 0.930 . S
C1910 H1896 0.930 . S
C1910 C1908 1.395 . S
C1910 C1913 1.403 . S
C1911 C1908 1.403 . S
C1911 C1912 1.524 . S
C1911 C1915 1.400 . S
C1912 H1897 0.960 . S
C1912 H1898 0.960 . S
C1912 H1899 0.960 . S
C1912 C1911 1.524 . S
C1913 C1910 1.403 . S
C1913 C1914 1.392 . S
C1913 C1917 1.495 . S
C1914 C1913 1.392 . S
C1914 C1915 1.385 . S
C1914 C1916 1.478 . S
C1915 H1909 0.930 . S
C1915 C1911 1.400 . S
C1915 C1914 1.385 . S
C1916 C1914 1.478 . S
C1916 C1918 1.381 . S
C1916 C1922 1.383 . S
C1917 C1913 1.495 . S
C1917 H1923 0.959 . S
C1917 H1924 0.961 . S
C1917 H1925 0.960 . S
C1918 C1916 1.381 . S
C1918 C1919 1.394 . S
C1918 H1926 0.930 . S
C1919 C1918 1.394 . S
C1919 C1920 1.383 . S
C1919 H1927 0.929 . S
C1920 C1919 1.383 . S
C1920 C1921 1.377 . S
C1921 H1905 0.930 . S
C1921 C1920 1.377 . S
C1921 C1922 1.379 . S
C1922 H1906 0.931 . S
C1922 C1916 1.383 . S
C1922 C1921 1.379 . S
H1923 C1917 0.959 . S
H1924 C1917 0.961 . S
H1925 C1917 0.960 . S
H1926 C1918 0.930 . S
H1927 C1919 0.929 . S
H1928 C1936 0.929 . S
H1929 C1938 0.930 . S
H1930 C1940 0.930 . S
H1931 C1943 0.929 . S
H1932 C1946 0.930 . S
H1933 C1948 0.960 . S
H1934 C1948 0.960 . S
H1935 C1948 0.960 . S
C1936 H1928 0.929 . S
C1936 C1937 1.377 . S
C1936 C1938 1.384 . S
C1937 C1936 1.377 . S
C1937 C1943 1.390 . S
C1938 H1929 0.930 . S
C1938 C1936 1.384 . S
C1938 C1939 1.372 . S
C1939 C1938 1.372 . S
C1939 C1940 1.400 . S
C1939 C1944 1.490 . S
C1940 H1930 0.930 . S
C1940 C1939 1.400 . S
C1940 C1943 1.386 . S
H1941 C1957 0.930 . S
H1942 C1958 0.931 . S
C1943 H1931 0.929 . S
C1943 C1937 1.390 . S
C1943 C1940 1.386 . S
C1944 C1939 1.490 . S
C1944 C1946 1.395 . S
C1944 C1947 1.403 . S
H1945 C1951 0.930 . S
C1946 H1932 0.930 . S
C1946 C1944 1.395 . S
C1946 C1949 1.403 . S
C1947 C1944 1.403 . S
C1947 C1948 1.524 . S
C1947 C1951 1.400 . S
C1948 H1933 0.960 . S
C1948 H1934 0.960 . S
C1948 H1935 0.960 . S
C1948 C1947 1.524 . S
C1949 C1946 1.403 . S
C1949 C1950 1.392 . S
C1949 C1953 1.495 . S
C1950 C1949 1.392 . S
C1950 C1951 1.385 . S
C1950 C1952 1.478 . S
C1951 H1945 0.930 . S
C1951 C1947 1.400 . S
C1951 C1950 1.385 . S
C1952 C1950 1.478 . S
C1952 C1954 1.381 . S
C1952 C1958 1.383 . S
C1953 C1949 1.495 . S
C1953 H1959 0.959 . S
C1953 H1960 0.961 . S
C1953 H1961 0.960 . S
C1954 C1952 1.381 . S
C1954 C1955 1.394 . S
C1954 H1962 0.930 . S
C1955 C1954 1.394 . S
C1955 C1956 1.383 . S
C1955 H1963 0.929 . S
C1956 C1955 1.383 . S
C1956 C1957 1.377 . S
C1957 H1941 0.930 . S
C1957 C1956 1.377 . S
C1957 C1958 1.379 . S
C1958 H1942 0.931 . S
C1958 C1952 1.383 . S
C1958 C1957 1.379 . S
H1959 C1953 0.959 . S
H1960 C1953 0.961 . S
H1961 C1953 0.960 . S
H1962 C1954 0.930 . S
H1963 C1955 0.929 . S
H1964 C1972 0.929 . S
H1965 C1974 0.930 . S
H1966 C1976 0.930 . S
H1967 C1979 0.929 . S
H1968 C1982 0.930 . S
H1969 C1984 0.960 . S
H1970 C1984 0.960 . S
H1971 C1984 0.960 . S
C1972 H1964 0.929 . S
C1972 C1973 1.377 . S
C1972 C1974 1.384 . S
C1973 C1972 1.377 . S
C1973 C1979 1.390 . S
C1974 H1965 0.930 . S
C1974 C1972 1.384 . S
C1974 C1975 1.372 . S
C1975 C1974 1.372 . S
C1975 C1976 1.400 . S
C1975 C1980 1.490 . S
C1976 H1966 0.930 . S
C1976 C1975 1.400 . S
C1976 C1979 1.386 . S
H1977 C1993 0.930 . S
H1978 C1994 0.931 . S
C1979 H1967 0.929 . S
C1979 C1973 1.390 . S
C1979 C1976 1.386 . S
C1980 C1975 1.490 . S
C1980 C1982 1.395 . S
C1980 C1983 1.403 . S
H1981 C1987 0.930 . S
C1982 H1968 0.930 . S
C1982 C1980 1.395 . S
C1982 C1985 1.403 . S
C1983 C1980 1.403 . S
C1983 C1984 1.524 . S
C1983 C1987 1.400 . S
C1984 H1969 0.960 . S
C1984 H1970 0.960 . S
C1984 H1971 0.960 . S
C1984 C1983 1.524 . S
C1985 C1982 1.403 . S
C1985 C1986 1.392 . S
C1985 C1989 1.495 . S
C1986 C1985 1.392 . S
C1986 C1987 1.385 . S
C1986 C1988 1.478 . S
C1987 H1981 0.930 . S
C1987 C1983 1.400 . S
C1987 C1986 1.385 . S
C1988 C1986 1.478 . S
C1988 C1990 1.381 . S
C1988 C1994 1.383 . S
C1989 C1985 1.495 . S
C1989 H1995 0.959 . S
C1989 H1996 0.961 . S
C1989 H1997 0.960 . S
C1990 C1988 1.381 . S
C1990 C1991 1.394 . S
C1990 H1998 0.930 . S
C1991 C1990 1.394 . S
C1991 C1992 1.383 . S
C1991 H1999 0.929 . S
C1992 C1991 1.383 . S
C1992 C1993 1.377 . S
C1993 H1977 0.930 . S
C1993 C1992 1.377 . S
C1993 C1994 1.379 . S
C1994 H1978 0.931 . S
C1994 C1988 1.383 . S
C1994 C1993 1.379 . S
H1995 C1989 0.959 . S
H1996 C1989 0.961 . S
H1997 C1989 0.960 . S
H1998 C1990 0.930 . S
H1999 C1991 0.929 . S
H2000 C2008 0.929 . S
H2001 C2010 0.930 . S
H2002 C2012 0.930 . S
H2003 C2015 0.929 . S
H2004 C2018 0.930 . S
H2005 C2020 0.960 . S
H2006 C2020 0.960 . S
H2007 C2020 0.960 . S
C2008 H2000 0.929 . S
C2008 C2009 1.377 . S
C2008 C2010 1.384 . S
C2009 C2008 1.377 . S
C2009 C2015 1.390 . S
C2010 H2001 0.930 . S
C2010 C2008 1.384 . S
C2010 C2011 1.372 . S
C2011 C2010 1.372 . S
C2011 C2012 1.400 . S
C2011 C2016 1.490 . S
C2012 H2002 0.930 . S
C2012 C2011 1.400 . S
C2012 C2015 1.386 . S
H2013 C2029 0.930 . S
H2014 C2030 0.931 . S
C2015 H2003 0.929 . S
C2015 C2009 1.390 . S
C2015 C2012 1.386 . S
C2016 C2011 1.490 . S
C2016 C2018 1.395 . S
C2016 C2019 1.403 . S
H2017 C2023 0.930 . S
C2018 H2004 0.930 . S
C2018 C2016 1.395 . S
C2018 C2021 1.403 . S
C2019 C2016 1.403 . S
C2019 C2020 1.524 . S
C2019 C2023 1.400 . S
C2020 H2005 0.960 . S
C2020 H2006 0.960 . S
C2020 H2007 0.960 . S
C2020 C2019 1.524 . S
C2021 C2018 1.403 . S
C2021 C2022 1.392 . S
C2021 C2025 1.495 . S
C2022 C2021 1.392 . S
C2022 C2023 1.385 . S
C2022 C2024 1.478 . S
C2023 H2017 0.930 . S
C2023 C2019 1.400 . S
C2023 C2022 1.385 . S
C2024 C2022 1.478 . S
C2024 C2026 1.381 . S
C2024 C2030 1.383 . S
C2025 C2021 1.495 . S
C2025 H2031 0.959 . S
C2025 H2032 0.961 . S
C2025 H2033 0.960 . S
C2026 C2024 1.381 . S
C2026 C2027 1.394 . S
C2026 H2034 0.930 . S
C2027 C2026 1.394 . S
C2027 C2028 1.383 . S
C2027 H2035 0.929 . S
C2028 C2027 1.383 . S
C2028 C2029 1.377 . S
C2029 H2013 0.930 . S
C2029 C2028 1.377 . S
C2029 C2030 1.379 . S
C2030 H2014 0.931 . S
C2030 C2024 1.383 . S
C2030 C2029 1.379 . S
H2031 C2025 0.959 . S
H2032 C2025 0.961 . S
H2033 C2025 0.960 . S
H2034 C2026 0.930 . S
H2035 C2027 0.929 . S
H2036 C2044 0.920 1_455 S
H2037 C2046 0.920 1_455 S
H2038 C2048 0.907 1_556 S
H2039 C2051 0.929 1_556 S
H2040 C2054 0.930 . S
H2041 C2056 0.960 . S
H2042 C2056 0.960 . S
H2043 C2056 0.960 . S
C2044 H2036 0.920 1_655 S
C2044 C2045 1.377 . S
C2044 C2046 1.387 . S
C2045 C2044 1.377 . S
C2045 C2051 1.390 . S
C2046 H2037 0.920 1_655 S
C2046 C2044 1.387 . S
C2046 C2047 1.378 . S
C2047 C2046 1.378 . S
C2047 C2048 1.416 . S
C2047 C2052 1.490 . S
C2048 H2038 0.907 1_554 S
C2048 C2047 1.416 . S
C2048 C2051 1.393 . S
H2049 C2065 0.930 . S
H2050 C2066 0.931 1_655 S
C2051 H2039 0.929 1_554 S
C2051 C2045 1.390 . S
C2051 C2048 1.393 . S
C2052 C2047 1.490 . S
C2052 C2054 1.395 1_655 S
C2052 C2055 1.403 . S
H2053 C2059 0.930 . S
C2054 H2040 0.930 . S
C2054 C2052 1.395 1_455 S
C2054 C2057 1.403 1_554 S
C2055 C2052 1.403 . S
C2055 C2056 1.524 . S
C2055 C2059 1.400 1_554 S
C2056 H2041 0.960 . S
C2056 H2042 0.960 . S
C2056 H2043 0.960 . S
C2056 C2055 1.524 . S
C2057 C2054 1.403 1_556 S
C2057 C2058 1.392 . S
C2057 C2061 1.495 . S
C2058 C2057 1.392 . S
C2058 C2059 1.385 1_455 S
C2058 C2060 1.478 . S
C2059 H2053 0.930 . S
C2059 C2055 1.400 1_556 S
C2059 C2058 1.385 1_655 S
C2060 C2058 1.478 . S
C2060 C2062 1.381 1_556 S
C2060 C2066 1.383 . S
C2061 C2057 1.495 . S
C2061 H2067 0.959 . S
C2061 H2068 0.961 . S
C2061 H2069 0.967 . S
C2062 C2060 1.381 1_554 S
C2062 C2063 1.394 1_554 S
C2062 H2070 0.930 . S
C2063 C2062 1.394 1_556 S
C2063 C2064 1.383 . S
C2063 H2071 0.929 1_556 S
C2064 C2063 1.383 . S
C2064 C2065 1.377 . S
C2065 H2049 0.930 . S
C2065 C2064 1.377 . S
C2065 C2066 1.379 . S
C2066 H2050 0.931 1_455 S
C2066 C2060 1.383 . S
C2066 C2065 1.379 . S
H2067 C2061 0.959 . S
H2068 C2061 0.961 . S
H2069 C2061 0.967 . S
H2070 C2062 0.930 . S
H2071 C2063 0.929 1_554 S
H2072 C2080 0.929 . S
H2073 C2082 0.930 . S
H2074 C2084 0.930 . S
H2075 C2087 0.929 . S
H2076 C2090 0.930 . S
H2077 C2092 0.960 . S
H2078 C2092 0.960 . S
H2079 C2092 0.960 . S
C2080 H2072 0.929 . S
C2080 C2081 1.377 . S
C2080 C2082 1.384 . S
C2081 C2080 1.377 . S
C2081 C2087 1.390 . S
C2082 H2073 0.930 . S
C2082 C2080 1.384 . S
C2082 C2083 1.372 . S
C2083 C2082 1.372 . S
C2083 C2084 1.400 . S
C2083 C2088 1.490 . S
C2084 H2074 0.930 . S
C2084 C2083 1.400 . S
C2084 C2087 1.386 . S
H2085 C2101 0.930 . S
H2086 C2102 0.931 1_556 S
C2087 H2075 0.929 . S
C2087 C2081 1.390 . S
C2087 C2084 1.386 . S
C2088 C2083 1.490 . S
C2088 C2090 1.395 . S
C2088 C2091 1.403 1_556 S
H2089 C2095 0.930 . S
C2090 H2076 0.930 . S
C2090 C2088 1.395 . S
C2090 C2093 1.403 . S
C2091 C2088 1.403 1_554 S
C2091 C2092 1.524 . S
C2091 C2095 1.400 . S
C2092 H2077 0.960 . S
C2092 H2078 0.960 . S
C2092 H2079 0.960 . S
C2092 C2091 1.524 . S
C2093 C2090 1.403 . S
C2093 C2094 1.392 1_556 S
C2093 C2097 1.495 . S
C2094 C2093 1.392 1_554 S
C2094 C2095 1.385 . S
C2094 C2096 1.478 . S
C2095 H2089 0.930 . S
C2095 C2091 1.400 . S
C2095 C2094 1.385 . S
C2096 C2094 1.478 . S
C2096 C2098 1.381 . S
C2096 C2102 1.383 . S
C2097 C2093 1.495 . S
C2097 H2103 0.959 . S
C2097 H2104 0.961 . S
C2097 H2105 0.960 . S
C2098 C2096 1.381 . S
C2098 C2099 1.394 . S
C2098 H2106 0.930 . S
C2099 C2098 1.394 . S
C2099 C2100 1.383 . S
C2099 H2107 0.929 . S
C2100 C2099 1.383 . S
C2100 C2101 1.377 . S
C2101 H2085 0.930 . S
C2101 C2100 1.377 . S
C2101 C2102 1.379 . S
C2102 H2086 0.931 1_554 S
C2102 C2096 1.383 . S
C2102 C2101 1.379 . S
H2103 C2097 0.959 . S
H2104 C2097 0.961 . S
H2105 C2097 0.960 . S
H2106 C2098 0.930 . S
H2107 C2099 0.929 . S
H2108 C2116 0.929 . S
H2109 C2118 0.930 . S
H2110 C2120 0.930 . S
H2111 C2123 0.929 . S
H2112 C2126 0.930 . S
H2113 C2128 0.960 . S
H2114 C2128 0.960 . S
H2115 C2128 0.960 . S
C2116 H2108 0.929 . S
C2116 C2117 1.377 . S
C2116 C2118 1.384 . S
C2117 C2116 1.377 . S
C2117 C2123 1.390 . S
C2118 H2109 0.930 . S
C2118 C2116 1.384 . S
C2118 C2119 1.372 . S
C2119 C2118 1.372 . S
C2119 C2120 1.400 . S
C2119 C2124 1.490 . S
C2120 H2110 0.930 . S
C2120 C2119 1.400 . S
C2120 C2123 1.386 . S
H2121 C2137 0.930 . S
H2122 C2138 0.931 . S
C2123 H2111 0.929 . S
C2123 C2117 1.390 . S
C2123 C2120 1.386 . S
C2124 C2119 1.490 . S
C2124 C2126 1.395 1_455 S
C2124 C2127 1.403 . S
H2125 C2131 0.930 . S
C2126 H2112 0.930 . S
C2126 C2124 1.395 1_655 S
C2126 C2129 1.403 . S
C2127 C2124 1.403 . S
C2127 C2128 1.524 . S
C2127 C2131 1.400 . S
C2128 H2113 0.960 . S
C2128 H2114 0.960 . S
C2128 H2115 0.960 . S
C2128 C2127 1.524 . S
C2129 C2126 1.403 . S
C2129 C2130 1.392 . S
C2129 C2133 1.495 . S
C2130 C2129 1.392 . S
C2130 C2131 1.385 1_655 S
C2130 C2132 1.478 . S
C2131 H2125 0.930 . S
C2131 C2127 1.400 . S
C2131 C2130 1.385 1_455 S
C2132 C2130 1.478 . S
C2132 C2134 1.381 . S
C2132 C2138 1.383 . S
C2133 C2129 1.495 . S
C2133 H2139 0.959 . S
C2133 H2140 0.961 . S
C2133 H2141 0.960 . S
C2134 C2132 1.381 . S
C2134 C2135 1.394 . S
C2134 H2142 0.930 . S
C2135 C2134 1.394 . S
C2135 C2136 1.383 . S
C2135 H2143 0.929 . S
C2136 C2135 1.383 . S
C2136 C2137 1.377 . S
C2137 H2121 0.930 . S
C2137 C2136 1.377 . S
C2137 C2138 1.379 . S
C2138 H2122 0.931 . S
C2138 C2132 1.383 . S
C2138 C2137 1.379 . S
H2139 C2133 0.959 . S
H2140 C2133 0.961 . S
H2141 C2133 0.960 . S
H2142 C2134 0.930 . S
H2143 C2135 0.929 . S
H2144 C2152 0.929 . S
H2145 C2154 0.930 . S
H2146 C2156 0.930 . S
H2147 C2159 0.929 . S
H2148 C2162 0.930 . S
H2149 C2164 0.960 . S
H2150 C2164 0.960 . S
H2151 C2164 0.960 . S
C2152 H2144 0.929 . S
C2152 C2153 1.377 . S
C2152 C2154 1.384 . S
C2153 C2152 1.377 . S
C2153 C2159 1.390 . S
C2154 H2145 0.930 . S
C2154 C2152 1.384 . S
C2154 C2155 1.372 . S
C2155 C2154 1.372 . S
C2155 C2156 1.400 . S
C2155 C2160 1.490 . S
C2156 H2146 0.930 . S
C2156 C2155 1.400 . S
C2156 C2159 1.386 . S
H2157 C2173 0.930 . S
H2158 C2174 0.931 . S
C2159 H2147 0.929 . S
C2159 C2153 1.390 . S
C2159 C2156 1.386 . S
C2160 C2155 1.490 . S
C2160 C2162 1.395 . S
C2160 C2163 1.403 . S
H2161 C2167 0.930 . S
C2162 H2148 0.930 . S
C2162 C2160 1.395 . S
C2162 C2165 1.403 . S
C2163 C2160 1.403 . S
C2163 C2164 1.524 . S
C2163 C2167 1.400 . S
C2164 H2149 0.960 . S
C2164 H2150 0.960 . S
C2164 H2151 0.960 . S
C2164 C2163 1.524 . S
C2165 C2162 1.403 . S
C2165 C2166 1.392 . S
C2165 C2169 1.495 . S
C2166 C2165 1.392 . S
C2166 C2167 1.385 . S
C2166 C2168 1.478 . S
C2167 H2161 0.930 . S
C2167 C2163 1.400 . S
C2167 C2166 1.385 . S
C2168 C2166 1.478 . S
C2168 C2170 1.381 . S
C2168 C2174 1.383 . S
C2169 C2165 1.495 . S
C2169 H2175 0.959 . S
C2169 H2176 0.961 . S
C2169 H2177 0.960 . S
C2170 C2168 1.381 . S
C2170 C2171 1.394 . S
C2170 H2178 0.930 . S
C2171 C2170 1.394 . S
C2171 C2172 1.383 . S
C2171 H2179 0.929 . S
C2172 C2171 1.383 . S
C2172 C2173 1.377 . S
C2173 H2157 0.930 . S
C2173 C2172 1.377 . S
C2173 C2174 1.379 . S
C2174 H2158 0.931 . S
C2174 C2168 1.383 . S
C2174 C2173 1.379 . S
H2175 C2169 0.959 . S
H2176 C2169 0.961 . S
H2177 C2169 0.960 . S
H2178 C2170 0.930 . S
H2179 C2171 0.929 . S
H2180 C2188 0.929 . S
H2181 C2190 0.930 . S
H2182 C2192 0.930 . S
H2183 C2195 0.929 . S
H2184 C2198 0.930 . S
H2185 C2200 0.960 . S
H2186 C2200 0.960 . S
H2187 C2200 0.960 . S
C2188 H2180 0.929 . S
C2188 C2189 1.377 . S
C2188 C2190 1.384 . S
C2189 C2188 1.377 . S
C2189 C2195 1.390 . S
C2190 H2181 0.930 . S
C2190 C2188 1.384 . S
C2190 C2191 1.372 . S
C2191 C2190 1.372 . S
C2191 C2192 1.400 . S
C2191 C2196 1.490 . S
C2192 H2182 0.930 . S
C2192 C2191 1.400 . S
C2192 C2195 1.386 . S
H2193 C2209 0.930 . S
H2194 C2210 0.931 . S
C2195 H2183 0.929 . S
C2195 C2189 1.390 . S
C2195 C2192 1.386 . S
C2196 C2191 1.490 . S
C2196 C2198 1.395 . S
C2196 C2199 1.403 . S
H2197 C2203 0.930 . S
C2198 H2184 0.930 . S
C2198 C2196 1.395 . S
C2198 C2201 1.403 . S
C2199 C2196 1.403 . S
C2199 C2200 1.524 . S
C2199 C2203 1.400 . S
C2200 H2185 0.960 . S
C2200 H2186 0.960 . S
C2200 H2187 0.960 . S
C2200 C2199 1.524 . S
C2201 C2198 1.403 . S
C2201 C2202 1.392 . S
C2201 C2205 1.495 . S
C2202 C2201 1.392 . S
C2202 C2203 1.385 . S
C2202 C2204 1.478 . S
C2203 H2197 0.930 . S
C2203 C2199 1.400 . S
C2203 C2202 1.385 . S
C2204 C2202 1.478 . S
C2204 C2206 1.381 . S
C2204 C2210 1.383 . S
C2205 C2201 1.495 . S
C2205 H2211 0.959 . S
C2205 H2212 0.961 . S
C2205 H2213 0.960 . S
C2206 C2204 1.381 . S
C2206 C2207 1.394 . S
C2206 H2214 0.930 . S
C2207 C2206 1.394 . S
C2207 C2208 1.383 . S
C2207 H2215 0.929 . S
C2208 C2207 1.383 . S
C2208 C2209 1.377 . S
C2209 H2193 0.930 . S
C2209 C2208 1.377 . S
C2209 C2210 1.379 . S
C2210 H2194 0.931 . S
C2210 C2204 1.383 . S
C2210 C2209 1.379 . S
H2211 C2205 0.959 . S
H2212 C2205 0.961 . S
H2213 C2205 0.960 . S
H2214 C2206 0.930 . S
H2215 C2207 0.929 . S
H2216 C2224 0.929 . S
H2217 C2226 0.930 . S
H2218 C2228 0.930 . S
H2219 C2231 0.929 . S
H2220 C2234 0.930 . S
H2221 C2236 0.960 . S
H2222 C2236 0.960 . S
H2223 C2236 0.960 . S
C2224 H2216 0.929 . S
C2224 C2225 1.377 . S
C2224 C2226 1.384 . S
C2225 C2224 1.377 . S
C2225 C2231 1.390 . S
C2226 H2217 0.930 . S
C2226 C2224 1.384 . S
C2226 C2227 1.372 . S
C2227 C2226 1.372 . S
C2227 C2228 1.400 . S
C2227 C2232 1.490 . S
C2228 H2218 0.930 . S
C2228 C2227 1.400 . S
C2228 C2231 1.386 . S
H2229 C2245 0.930 . S
H2230 C2246 0.931 . S
C2231 H2219 0.929 . S
C2231 C2225 1.390 . S
C2231 C2228 1.386 . S
C2232 C2227 1.490 . S
C2232 C2234 1.395 . S
C2232 C2235 1.403 . S
H2233 C2239 0.930 . S
C2234 H2220 0.930 . S
C2234 C2232 1.395 . S
C2234 C2237 1.403 . S
C2235 C2232 1.403 . S
C2235 C2236 1.524 . S
C2235 C2239 1.400 . S
C2236 H2221 0.960 . S
C2236 H2222 0.960 . S
C2236 H2223 0.960 . S
C2236 C2235 1.524 . S
C2237 C2234 1.403 . S
C2237 C2238 1.392 . S
C2237 C2241 1.495 . S
C2238 C2237 1.392 . S
C2238 C2239 1.385 . S
C2238 C2240 1.478 . S
C2239 H2233 0.930 . S
C2239 C2235 1.400 . S
C2239 C2238 1.385 . S
C2240 C2238 1.478 . S
C2240 C2242 1.381 . S
C2240 C2246 1.383 . S
C2241 C2237 1.495 . S
C2241 H2247 0.959 . S
C2241 H2248 0.961 . S
C2241 H2249 0.960 . S
C2242 C2240 1.381 . S
C2242 C2243 1.394 . S
C2242 H2250 0.930 . S
C2243 C2242 1.394 . S
C2243 C2244 1.383 . S
C2243 H2251 0.929 . S
C2244 C2243 1.383 . S
C2244 C2245 1.377 . S
C2245 H2229 0.930 . S
C2245 C2244 1.377 . S
C2245 C2246 1.379 . S
C2246 H2230 0.931 . S
C2246 C2240 1.383 . S
C2246 C2245 1.379 . S
H2247 C2241 0.959 . S
H2248 C2241 0.961 . S
H2249 C2241 0.960 . S
H2250 C2242 0.930 . S
H2251 C2243 0.929 . S
H2252 C2260 0.929 . S
H2253 C2262 0.930 . S
H2254 C2264 0.930 . S
H2255 C2267 0.929 . S
H2256 C2270 0.930 . S
H2257 C2272 0.960 . S
H2258 C2272 0.960 . S
H2259 C2272 0.960 . S
C2260 H2252 0.929 . S
C2260 C2261 1.377 . S
C2260 C2262 1.384 . S
C2261 C2260 1.377 . S
C2261 C2267 1.390 . S
C2262 H2253 0.930 . S
C2262 C2260 1.384 . S
C2262 C2263 1.372 . S
C2263 C2262 1.372 . S
C2263 C2264 1.400 . S
C2263 C2268 1.490 . S
C2264 H2254 0.930 . S
C2264 C2263 1.400 . S
C2264 C2267 1.386 . S
H2265 C2281 0.930 . S
H2266 C2282 0.931 . S
C2267 H2255 0.929 . S
C2267 C2261 1.390 . S
C2267 C2264 1.386 . S
C2268 C2263 1.490 . S
C2268 C2270 1.395 . S
C2268 C2271 1.403 . S
H2269 C2275 0.930 . S
C2270 H2256 0.930 . S
C2270 C2268 1.395 . S
C2270 C2273 1.403 . S
C2271 C2268 1.403 . S
C2271 C2272 1.524 . S
C2271 C2275 1.400 . S
C2272 H2257 0.960 . S
C2272 H2258 0.960 . S
C2272 H2259 0.960 . S
C2272 C2271 1.524 . S
C2273 C2270 1.403 . S
C2273 C2274 1.392 . S
C2273 C2277 1.495 . S
C2274 C2273 1.392 . S
C2274 C2275 1.385 . S
C2274 C2276 1.478 . S
C2275 H2269 0.930 . S
C2275 C2271 1.400 . S
C2275 C2274 1.385 . S
C2276 C2274 1.478 . S
C2276 C2278 1.381 . S
C2276 C2282 1.383 . S
C2277 C2273 1.495 . S
C2277 H2283 0.959 . S
C2277 H2284 0.961 . S
C2277 H2285 0.960 . S
C2278 C2276 1.381 . S
C2278 C2279 1.394 . S
C2278 H2286 0.930 . S
C2279 C2278 1.394 . S
C2279 C2280 1.383 . S
C2279 H2287 0.929 . S
C2280 C2279 1.383 . S
C2280 C2281 1.377 . S
C2281 H2265 0.930 . S
C2281 C2280 1.377 . S
C2281 C2282 1.379 . S
C2282 H2266 0.931 . S
C2282 C2276 1.383 . S
C2282 C2281 1.379 . S
H2283 C2277 0.959 . S
H2284 C2277 0.961 . S
H2285 C2277 0.960 . S
H2286 C2278 0.930 . S
H2287 C2279 0.929 . S
H2288 C2296 0.929 . S
H2289 C2298 0.930 . S
H2290 C2300 0.930 . S
H2291 C2303 0.929 . S
H2292 C2306 0.930 . S
H2293 C2308 0.960 . S
H2294 C2308 0.960 . S
H2295 C2308 0.960 . S
C2296 H2288 0.929 . S
C2296 C2297 1.377 . S
C2296 C2298 1.384 . S
C2297 C2296 1.377 . S
C2297 C2303 1.390 . S
C2298 H2289 0.930 . S
C2298 C2296 1.384 . S
C2298 C2299 1.372 . S
C2299 C2298 1.372 . S
C2299 C2300 1.400 . S
C2299 C2304 1.490 . S
C2300 H2290 0.930 . S
C2300 C2299 1.400 . S
C2300 C2303 1.386 . S
H2301 C2317 0.930 . S
H2302 C2318 0.931 . S
C2303 H2291 0.929 . S
C2303 C2297 1.390 . S
C2303 C2300 1.386 . S
C2304 C2299 1.490 . S
C2304 C2306 1.395 . S
C2304 C2307 1.403 . S
H2305 C2311 0.930 . S
C2306 H2292 0.930 . S
C2306 C2304 1.395 . S
C2306 C2309 1.403 . S
C2307 C2304 1.403 . S
C2307 C2308 1.524 . S
C2307 C2311 1.400 . S
C2308 H2293 0.960 . S
C2308 H2294 0.960 . S
C2308 H2295 0.960 . S
C2308 C2307 1.524 . S
C2309 C2306 1.403 . S
C2309 C2310 1.392 . S
C2309 C2313 1.495 . S
C2310 C2309 1.392 . S
C2310 C2311 1.385 . S
C2310 C2312 1.478 . S
C2311 H2305 0.930 . S
C2311 C2307 1.400 . S
C2311 C2310 1.385 . S
C2312 C2310 1.478 . S
C2312 C2314 1.381 . S
C2312 C2318 1.383 . S
C2313 C2309 1.495 . S
C2313 H2319 0.959 . S
C2313 H2320 0.961 . S
C2313 H2321 0.960 . S
C2314 C2312 1.381 . S
C2314 C2315 1.394 . S
C2314 H2322 0.930 . S
C2315 C2314 1.394 . S
C2315 C2316 1.383 . S
C2315 H2323 0.929 . S
C2316 C2315 1.383 . S
C2316 C2317 1.377 . S
C2317 H2301 0.930 . S
C2317 C2316 1.377 . S
C2317 C2318 1.379 . S
C2318 H2302 0.931 . S
C2318 C2312 1.383 . S
C2318 C2317 1.379 . S
H2319 C2313 0.959 . S
H2320 C2313 0.961 . S
H2321 C2313 0.960 . S
H2322 C2314 0.930 . S
H2323 C2315 0.929 . S
H2324 C2332 0.929 . S
H2325 C2334 0.930 . S
H2326 C2336 0.930 . S
H2327 C2339 0.929 . S
H2328 C2342 0.930 . S
H2329 C2344 0.960 . S
H2330 C2344 0.960 . S
H2331 C2344 0.960 . S
C2332 H2324 0.929 . S
C2332 C2333 1.377 . S
C2332 C2334 1.384 . S
C2333 C2332 1.377 . S
C2333 C2339 1.390 . S
C2334 H2325 0.930 . S
C2334 C2332 1.384 . S
C2334 C2335 1.372 . S
C2335 C2334 1.372 . S
C2335 C2336 1.400 . S
C2335 C2340 1.490 . S
C2336 H2326 0.930 . S
C2336 C2335 1.400 . S
C2336 C2339 1.386 . S
H2337 C2353 0.930 . S
H2338 C2354 0.931 . S
C2339 H2327 0.929 . S
C2339 C2333 1.390 . S
C2339 C2336 1.386 . S
C2340 C2335 1.490 . S
C2340 C2342 1.395 . S
C2340 C2343 1.403 . S
H2341 C2347 0.930 . S
C2342 H2328 0.930 . S
C2342 C2340 1.395 . S
C2342 C2345 1.403 . S
C2343 C2340 1.403 . S
C2343 C2344 1.524 . S
C2343 C2347 1.400 . S
C2344 H2329 0.960 . S
C2344 H2330 0.960 . S
C2344 H2331 0.960 . S
C2344 C2343 1.524 . S
C2345 C2342 1.403 . S
C2345 C2346 1.392 . S
C2345 C2349 1.495 . S
C2346 C2345 1.392 . S
C2346 C2347 1.385 . S
C2346 C2348 1.478 . S
C2347 H2341 0.930 . S
C2347 C2343 1.400 . S
C2347 C2346 1.385 . S
C2348 C2346 1.478 . S
C2348 C2350 1.381 . S
C2348 C2354 1.383 . S
C2349 C2345 1.495 . S
C2349 H2355 0.959 . S
C2349 H2356 0.961 . S
C2349 H2357 0.960 . S
C2350 C2348 1.381 . S
C2350 C2351 1.394 . S
C2350 H2358 0.930 . S
C2351 C2350 1.394 . S
C2351 C2352 1.383 . S
C2351 H2359 0.929 . S
C2352 C2351 1.383 . S
C2352 C2353 1.377 . S
C2353 H2337 0.930 . S
C2353 C2352 1.377 . S
C2353 C2354 1.379 . S
C2354 H2338 0.931 . S
C2354 C2348 1.383 . S
C2354 C2353 1.379 . S
H2355 C2349 0.959 . S
H2356 C2349 0.961 . S
H2357 C2349 0.960 . S
H2358 C2350 0.930 . S
H2359 C2351 0.929 . S
H2360 C2368 0.929 . S
H2361 C2370 0.930 . S
H2362 C2372 0.930 . S
H2363 C2375 0.929 . S
H2364 C2378 0.930 . S
H2365 C2380 0.960 . S
H2366 C2380 0.960 . S
H2367 C2380 0.960 . S
C2368 H2360 0.929 . S
C2368 C2369 1.377 . S
C2368 C2370 1.384 . S
C2369 C2368 1.377 . S
C2369 C2375 1.390 . S
C2370 H2361 0.930 . S
C2370 C2368 1.384 . S
C2370 C2371 1.372 . S
C2371 C2370 1.372 . S
C2371 C2372 1.400 . S
C2371 C2376 1.490 . S
C2372 H2362 0.930 . S
C2372 C2371 1.400 . S
C2372 C2375 1.386 . S
H2373 C2389 0.930 . S
H2374 C2390 0.931 . S
C2375 H2363 0.929 . S
C2375 C2369 1.390 . S
C2375 C2372 1.386 . S
C2376 C2371 1.490 . S
C2376 C2378 1.395 . S
C2376 C2379 1.403 . S
H2377 C2383 0.930 . S
C2378 H2364 0.930 . S
C2378 C2376 1.395 . S
C2378 C2381 1.403 . S
C2379 C2376 1.403 . S
C2379 C2380 1.524 . S
C2379 C2383 1.400 . S
C2380 H2365 0.960 . S
C2380 H2366 0.960 . S
C2380 H2367 0.960 . S
C2380 C2379 1.524 . S
C2381 C2378 1.403 . S
C2381 C2382 1.392 . S
C2381 C2385 1.495 . S
C2382 C2381 1.392 . S
C2382 C2383 1.385 . S
C2382 C2384 1.478 . S
C2383 H2377 0.930 . S
C2383 C2379 1.400 . S
C2383 C2382 1.385 . S
C2384 C2382 1.478 . S
C2384 C2386 1.381 . S
C2384 C2390 1.383 . S
C2385 C2381 1.495 . S
C2385 H2391 0.959 . S
C2385 H2392 0.961 . S
C2385 H2393 0.960 . S
C2386 C2384 1.381 . S
C2386 C2387 1.394 . S
C2386 H2394 0.930 . S
C2387 C2386 1.394 . S
C2387 C2388 1.383 . S
C2387 H2395 0.929 . S
C2388 C2387 1.383 . S
C2388 C2389 1.377 . S
C2389 H2373 0.930 . S
C2389 C2388 1.377 . S
C2389 C2390 1.379 . S
C2390 H2374 0.931 . S
C2390 C2384 1.383 . S
C2390 C2389 1.379 . S
H2391 C2385 0.959 . S
H2392 C2385 0.961 . S
H2393 C2385 0.960 . S
H2394 C2386 0.930 . S
H2395 C2387 0.929 . S
H2396 C2404 0.929 . S
H2397 C2406 0.930 . S
H2398 C2408 0.930 . S
H2399 C2411 0.929 . S
H2400 C2414 0.930 . S
H2401 C2416 0.960 . S
H2402 C2416 0.960 . S
H2403 C2416 0.960 . S
C2404 H2396 0.929 . S
C2404 C2405 1.377 . S
C2404 C2406 1.384 . S
C2405 C2404 1.377 . S
C2405 C2411 1.390 . S
C2406 H2397 0.930 . S
C2406 C2404 1.384 . S
C2406 C2407 1.372 . S
C2407 C2406 1.372 . S
C2407 C2408 1.400 . S
C2407 C2412 1.490 . S
C2408 H2398 0.930 . S
C2408 C2407 1.400 . S
C2408 C2411 1.386 . S
H2409 C2425 0.930 . S
H2410 C2426 0.931 . S
C2411 H2399 0.929 . S
C2411 C2405 1.390 . S
C2411 C2408 1.386 . S
C2412 C2407 1.490 . S
C2412 C2414 1.395 . S
C2412 C2415 1.403 . S
H2413 C2419 0.930 . S
C2414 H2400 0.930 . S
C2414 C2412 1.395 . S
C2414 C2417 1.403 . S
C2415 C2412 1.403 . S
C2415 C2416 1.524 . S
C2415 C2419 1.400 . S
C2416 H2401 0.960 . S
C2416 H2402 0.960 . S
C2416 H2403 0.960 . S
C2416 C2415 1.524 . S
C2417 C2414 1.403 . S
C2417 C2418 1.392 . S
C2417 C2421 1.495 . S
C2418 C2417 1.392 . S
C2418 C2419 1.385 . S
C2418 C2420 1.478 . S
C2419 H2413 0.930 . S
C2419 C2415 1.400 . S
C2419 C2418 1.385 . S
C2420 C2418 1.478 . S
C2420 C2422 1.381 . S
C2420 C2426 1.383 . S
C2421 C2417 1.495 . S
C2421 H2427 0.959 . S
C2421 H2428 0.961 . S
C2421 H2429 0.960 . S
C2422 C2420 1.381 . S
C2422 C2423 1.394 . S
C2422 H2430 0.930 . S
C2423 C2422 1.394 . S
C2423 C2424 1.383 . S
C2423 H2431 0.929 . S
C2424 C2423 1.383 . S
C2424 C2425 1.377 . S
C2425 H2409 0.930 . S
C2425 C2424 1.377 . S
C2425 C2426 1.379 . S
C2426 H2410 0.931 . S
C2426 C2420 1.383 . S
C2426 C2425 1.379 . S
H2427 C2421 0.959 . S
H2428 C2421 0.961 . S
H2429 C2421 0.960 . S
H2430 C2422 0.930 . S
H2431 C2423 0.929 . S
H2432 C2440 0.929 . S
H2433 C2442 0.930 . S
H2434 C2444 0.930 . S
H2435 C2447 0.929 . S
H2436 C2450 0.930 . S
H2437 C2452 0.960 . S
H2438 C2452 0.960 . S
H2439 C2452 0.960 . S
C2440 H2432 0.929 . S
C2440 C2441 1.377 . S
C2440 C2442 1.384 . S
C2441 C2440 1.377 . S
C2441 C2447 1.390 . S
C2442 H2433 0.930 . S
C2442 C2440 1.384 . S
C2442 C2443 1.372 . S
C2443 C2442 1.372 . S
C2443 C2444 1.400 . S
C2443 C2448 1.490 . S
C2444 H2434 0.930 . S
C2444 C2443 1.400 . S
C2444 C2447 1.386 . S
H2445 C2461 0.930 . S
H2446 C2462 0.931 . S
C2447 H2435 0.929 . S
C2447 C2441 1.390 . S
C2447 C2444 1.386 . S
C2448 C2443 1.490 . S
C2448 C2450 1.395 . S
C2448 C2451 1.403 . S
H2449 C2455 0.930 . S
C2450 H2436 0.930 . S
C2450 C2448 1.395 . S
C2450 C2453 1.403 . S
C2451 C2448 1.403 . S
C2451 C2452 1.524 . S
C2451 C2455 1.400 . S
C2452 H2437 0.960 . S
C2452 H2438 0.960 . S
C2452 H2439 0.960 . S
C2452 C2451 1.524 . S
C2453 C2450 1.403 . S
C2453 C2454 1.392 . S
C2453 C2457 1.495 . S
C2454 C2453 1.392 . S
C2454 C2455 1.385 . S
C2454 C2456 1.478 . S
C2455 H2449 0.930 . S
C2455 C2451 1.400 . S
C2455 C2454 1.385 . S
C2456 C2454 1.478 . S
C2456 C2458 1.381 . S
C2456 C2462 1.383 . S
C2457 C2453 1.495 . S
C2457 H2463 0.959 . S
C2457 H2464 0.961 . S
C2457 H2465 0.960 . S
C2458 C2456 1.381 . S
C2458 C2459 1.394 . S
C2458 H2466 0.930 . S
C2459 C2458 1.394 . S
C2459 C2460 1.383 . S
C2459 H2467 0.929 . S
C2460 C2459 1.383 . S
C2460 C2461 1.377 . S
C2461 H2445 0.930 . S
C2461 C2460 1.377 . S
C2461 C2462 1.379 . S
C2462 H2446 0.931 . S
C2462 C2456 1.383 . S
C2462 C2461 1.379 . S
H2463 C2457 0.959 . S
H2464 C2457 0.961 . S
H2465 C2457 0.960 . S
H2466 C2458 0.930 . S
H2467 C2459 0.929 . S
H2468 C2476 0.929 . S
H2469 C2478 0.930 . S
H2470 C2480 0.930 . S
H2471 C2483 0.929 . S
H2472 C2486 0.930 . S
H2473 C2488 0.960 . S
H2474 C2488 0.960 . S
H2475 C2488 0.960 . S
C2476 H2468 0.929 . S
C2476 C2477 1.377 . S
C2476 C2478 1.384 . S
C2477 C2476 1.377 . S
C2477 C2483 1.390 . S
C2478 H2469 0.930 . S
C2478 C2476 1.384 . S
C2478 C2479 1.372 . S
C2479 C2478 1.372 . S
C2479 C2480 1.400 . S
C2479 C2484 1.490 . S
C2480 H2470 0.930 . S
C2480 C2479 1.400 . S
C2480 C2483 1.386 . S
H2481 C2497 0.930 . S
H2482 C2498 0.931 . S
C2483 H2471 0.929 . S
C2483 C2477 1.390 . S
C2483 C2480 1.386 . S
C2484 C2479 1.490 . S
C2484 C2486 1.395 . S
C2484 C2487 1.403 . S
H2485 C2491 0.930 . S
C2486 H2472 0.930 . S
C2486 C2484 1.395 . S
C2486 C2489 1.403 . S
C2487 C2484 1.403 . S
C2487 C2488 1.524 . S
C2487 C2491 1.400 . S
C2488 H2473 0.960 . S
C2488 H2474 0.960 . S
C2488 H2475 0.960 . S
C2488 C2487 1.524 . S
C2489 C2486 1.403 . S
C2489 C2490 1.392 . S
C2489 C2493 1.495 . S
C2490 C2489 1.392 . S
C2490 C2491 1.385 . S
C2490 C2492 1.478 . S
C2491 H2485 0.930 . S
C2491 C2487 1.400 . S
C2491 C2490 1.385 . S
C2492 C2490 1.478 . S
C2492 C2494 1.381 . S
C2492 C2498 1.383 . S
C2493 C2489 1.495 . S
C2493 H2499 0.959 . S
C2493 H2500 0.961 . S
C2493 H2501 0.960 . S
C2494 C2492 1.381 . S
C2494 C2495 1.394 . S
C2494 H2502 0.930 . S
C2495 C2494 1.394 . S
C2495 C2496 1.383 . S
C2495 H2503 0.929 . S
C2496 C2495 1.383 . S
C2496 C2497 1.377 . S
C2497 H2481 0.930 . S
C2497 C2496 1.377 . S
C2497 C2498 1.379 . S
C2498 H2482 0.931 . S
C2498 C2492 1.383 . S
C2498 C2497 1.379 . S
H2499 C2493 0.959 . S
H2500 C2493 0.961 . S
H2501 C2493 0.960 . S
H2502 C2494 0.930 . S
H2503 C2495 0.929 . S
H2504 C2512 0.929 . S
H2505 C2514 0.930 . S
H2506 C2516 0.930 . S
H2507 C2519 0.929 . S
H2508 C2522 0.930 . S
H2509 C2524 0.960 . S
H2510 C2524 0.960 . S
H2511 C2524 0.960 . S
C2512 H2504 0.929 . S
C2512 C2513 1.377 . S
C2512 C2514 1.384 . S
C2513 C2512 1.377 . S
C2513 C2519 1.390 . S
C2514 H2505 0.930 . S
C2514 C2512 1.384 . S
C2514 C2515 1.372 . S
C2515 C2514 1.372 . S
C2515 C2516 1.400 . S
C2515 C2520 1.490 . S
C2516 H2506 0.930 . S
C2516 C2515 1.400 . S
C2516 C2519 1.386 . S
H2517 C2533 0.930 . S
H2518 C2534 0.931 . S
C2519 H2507 0.929 . S
C2519 C2513 1.390 . S
C2519 C2516 1.386 . S
C2520 C2515 1.490 . S
C2520 C2522 1.395 . S
C2520 C2523 1.403 . S
H2521 C2527 0.930 . S
C2522 H2508 0.930 . S
C2522 C2520 1.395 . S
C2522 C2525 1.403 . S
C2523 C2520 1.403 . S
C2523 C2524 1.524 . S
C2523 C2527 1.400 . S
C2524 H2509 0.960 . S
C2524 H2510 0.960 . S
C2524 H2511 0.960 . S
C2524 C2523 1.524 . S
C2525 C2522 1.403 . S
C2525 C2526 1.392 . S
C2525 C2529 1.495 . S
C2526 C2525 1.392 . S
C2526 C2527 1.385 . S
C2526 C2528 1.478 . S
C2527 H2521 0.930 . S
C2527 C2523 1.400 . S
C2527 C2526 1.385 . S
C2528 C2526 1.478 . S
C2528 C2530 1.381 . S
C2528 C2534 1.383 . S
C2529 C2525 1.495 . S
C2529 H2535 0.959 . S
C2529 H2536 0.961 . S
C2529 H2537 0.960 . S
C2530 C2528 1.381 . S
C2530 C2531 1.394 . S
C2530 H2538 0.930 . S
C2531 C2530 1.394 . S
C2531 C2532 1.383 . S
C2531 H2539 0.929 . S
C2532 C2531 1.383 . S
C2532 C2533 1.377 . S
C2533 H2517 0.930 . S
C2533 C2532 1.377 . S
C2533 C2534 1.379 . S
C2534 H2518 0.931 . S
C2534 C2528 1.383 . S
C2534 C2533 1.379 . S
H2535 C2529 0.959 . S
H2536 C2529 0.961 . S
H2537 C2529 0.960 . S
H2538 C2530 0.930 . S
H2539 C2531 0.929 . S
H2540 C2548 0.929 . S
H2541 C2550 0.930 . S
H2542 C2552 0.930 . S
H2543 C2555 0.929 . S
H2544 C2558 0.930 . S
H2545 C2560 0.960 . S
H2546 C2560 0.960 . S
H2547 C2560 0.960 . S
C2548 H2540 0.929 . S
C2548 C2549 1.377 . S
C2548 C2550 1.384 . S
C2549 C2548 1.377 . S
C2549 C2555 1.390 . S
C2550 H2541 0.930 . S
C2550 C2548 1.384 . S
C2550 C2551 1.372 . S
C2551 C2550 1.372 . S
C2551 C2552 1.400 . S
C2551 C2556 1.490 . S
C2552 H2542 0.930 . S
C2552 C2551 1.400 . S
C2552 C2555 1.386 . S
H2553 C2569 0.930 . S
H2554 C2570 0.931 . S
C2555 H2543 0.929 . S
C2555 C2549 1.390 . S
C2555 C2552 1.386 . S
C2556 C2551 1.490 . S
C2556 C2558 1.395 . S
C2556 C2559 1.403 . S
H2557 C2563 0.930 . S
C2558 H2544 0.930 . S
C2558 C2556 1.395 . S
C2558 C2561 1.403 . S
C2559 C2556 1.403 . S
C2559 C2560 1.524 . S
C2559 C2563 1.400 . S
C2560 H2545 0.960 . S
C2560 H2546 0.960 . S
C2560 H2547 0.960 . S
C2560 C2559 1.524 . S
C2561 C2558 1.403 . S
C2561 C2562 1.392 . S
C2561 C2565 1.495 . S
C2562 C2561 1.392 . S
C2562 C2563 1.385 . S
C2562 C2564 1.478 . S
C2563 H2557 0.930 . S
C2563 C2559 1.400 . S
C2563 C2562 1.385 . S
C2564 C2562 1.478 . S
C2564 C2566 1.381 . S
C2564 C2570 1.383 . S
C2565 C2561 1.495 . S
C2565 H2571 0.959 . S
C2565 H2572 0.961 . S
C2565 H2573 0.960 . S
C2566 C2564 1.381 . S
C2566 C2567 1.394 . S
C2566 H2574 0.930 . S
C2567 C2566 1.394 . S
C2567 C2568 1.383 . S
C2567 H2575 0.929 . S
C2568 C2567 1.383 . S
C2568 C2569 1.377 . S
C2569 H2553 0.930 . S
C2569 C2568 1.377 . S
C2569 C2570 1.379 . S
C2570 H2554 0.931 . S
C2570 C2564 1.383 . S
C2570 C2569 1.379 . S
H2571 C2565 0.959 . S
H2572 C2565 0.961 . S
H2573 C2565 0.960 . S
H2574 C2566 0.930 . S
H2575 C2567 0.929 . S
H2576 C2584 0.929 . S
H2577 C2586 0.930 . S
H2578 C2588 0.930 . S
H2579 C2591 0.929 . S
H2580 C2594 0.930 . S
H2581 C2596 0.960 . S
H2582 C2596 0.960 . S
H2583 C2596 0.960 . S
C2584 H2576 0.929 . S
C2584 C2585 1.377 . S
C2584 C2586 1.384 . S
C2585 C2584 1.377 . S
C2585 C2591 1.390 . S
C2586 H2577 0.930 . S
C2586 C2584 1.384 . S
C2586 C2587 1.372 . S
C2587 C2586 1.372 . S
C2587 C2588 1.400 . S
C2587 C2592 1.490 . S
C2588 H2578 0.930 . S
C2588 C2587 1.400 . S
C2588 C2591 1.386 . S
H2589 C2605 0.930 . S
H2590 C2606 0.931 . S
C2591 H2579 0.929 . S
C2591 C2585 1.390 . S
C2591 C2588 1.386 . S
C2592 C2587 1.490 . S
C2592 C2594 1.395 . S
C2592 C2595 1.403 . S
H2593 C2599 0.930 . S
C2594 H2580 0.930 . S
C2594 C2592 1.395 . S
C2594 C2597 1.403 . S
C2595 C2592 1.403 . S
C2595 C2596 1.524 . S
C2595 C2599 1.400 . S
C2596 H2581 0.960 . S
C2596 H2582 0.960 . S
C2596 H2583 0.960 . S
C2596 C2595 1.524 . S
C2597 C2594 1.403 . S
C2597 C2598 1.392 . S
C2597 C2601 1.495 . S
C2598 C2597 1.392 . S
C2598 C2599 1.385 . S
C2598 C2600 1.478 . S
C2599 H2593 0.930 . S
C2599 C2595 1.400 . S
C2599 C2598 1.385 . S
C2600 C2598 1.478 . S
C2600 C2602 1.381 . S
C2600 C2606 1.383 . S
C2601 C2597 1.495 . S
C2601 H2607 0.959 . S
C2601 H2608 0.961 . S
C2601 H2609 0.960 . S
C2602 C2600 1.381 . S
C2602 C2603 1.394 . S
C2602 H2610 0.930 . S
C2603 C2602 1.394 . S
C2603 C2604 1.383 . S
C2603 H2611 0.929 . S
C2604 C2603 1.383 . S
C2604 C2605 1.377 . S
C2605 H2589 0.930 . S
C2605 C2604 1.377 . S
C2605 C2606 1.379 . S
C2606 H2590 0.931 . S
C2606 C2600 1.383 . S
C2606 C2605 1.379 . S
H2607 C2601 0.959 . S
H2608 C2601 0.961 . S
H2609 C2601 0.960 . S
H2610 C2602 0.930 . S
H2611 C2603 0.929 . S
H2612 C2620 0.929 . S
H2613 C2622 0.930 . S
H2614 C2624 0.930 . S
H2615 C2627 0.929 . S
H2616 C2630 0.930 . S
H2617 C2632 0.960 . S
H2618 C2632 0.960 . S
H2619 C2632 0.960 . S
C2620 H2612 0.929 . S
C2620 C2621 1.377 . S
C2620 C2622 1.384 . S
C2621 C2620 1.377 . S
C2621 C2627 1.390 . S
C2622 H2613 0.930 . S
C2622 C2620 1.384 . S
C2622 C2623 1.372 . S
C2623 C2622 1.372 . S
C2623 C2624 1.400 . S
C2623 C2628 1.490 . S
C2624 H2614 0.930 . S
C2624 C2623 1.400 . S
C2624 C2627 1.386 . S
H2625 C2641 0.930 . S
H2626 C2642 0.931 . S
C2627 H2615 0.929 . S
C2627 C2621 1.390 . S
C2627 C2624 1.386 . S
C2628 C2623 1.490 . S
C2628 C2630 1.395 . S
C2628 C2631 1.403 . S
H2629 C2635 0.930 . S
C2630 H2616 0.930 . S
C2630 C2628 1.395 . S
C2630 C2633 1.403 . S
C2631 C2628 1.403 . S
C2631 C2632 1.524 . S
C2631 C2635 1.400 . S
C2632 H2617 0.960 . S
C2632 H2618 0.960 . S
C2632 H2619 0.960 . S
C2632 C2631 1.524 . S
C2633 C2630 1.403 . S
C2633 C2634 1.392 . S
C2633 C2637 1.495 . S
C2634 C2633 1.392 . S
C2634 C2635 1.385 . S
C2634 C2636 1.478 . S
C2635 H2629 0.930 . S
C2635 C2631 1.400 . S
C2635 C2634 1.385 . S
C2636 C2634 1.478 . S
C2636 C2638 1.381 . S
C2636 C2642 1.383 . S
C2637 C2633 1.495 . S
C2637 H2643 0.959 . S
C2637 H2644 0.961 . S
C2637 H2645 0.960 . S
C2638 C2636 1.381 . S
C2638 C2639 1.394 . S
C2638 H2646 0.930 . S
C2639 C2638 1.394 . S
C2639 C2640 1.383 . S
C2639 H2647 0.929 . S
C2640 C2639 1.383 . S
C2640 C2641 1.377 . S
C2641 H2625 0.930 . S
C2641 C2640 1.377 . S
C2641 C2642 1.379 . S
C2642 H2626 0.931 . S
C2642 C2636 1.383 . S
C2642 C2641 1.379 . S
H2643 C2637 0.959 . S
H2644 C2637 0.961 . S
H2645 C2637 0.960 . S
H2646 C2638 0.930 . S
H2647 C2639 0.929 . S
H2648 C2656 0.929 . S
H2649 C2658 0.930 . S
H2650 C2660 0.930 . S
H2651 C2663 0.929 . S
H2652 C2666 0.930 . S
H2653 C2668 0.960 . S
H2654 C2668 0.960 . S
H2655 C2668 0.960 . S
C2656 H2648 0.929 . S
C2656 C2657 1.377 . S
C2656 C2658 1.384 . S
C2657 C2656 1.377 . S
C2657 C2663 1.390 . S
C2658 H2649 0.930 . S
C2658 C2656 1.384 . S
C2658 C2659 1.372 . S
C2659 C2658 1.372 . S
C2659 C2660 1.400 . S
C2659 C2664 1.490 . S
C2660 H2650 0.930 . S
C2660 C2659 1.400 . S
C2660 C2663 1.386 . S
H2661 C2677 0.930 . S
H2662 C2678 0.931 . S
C2663 H2651 0.929 . S
C2663 C2657 1.390 . S
C2663 C2660 1.386 . S
C2664 C2659 1.490 . S
C2664 C2666 1.395 . S
C2664 C2667 1.403 . S
H2665 C2671 0.930 . S
C2666 H2652 0.930 . S
C2666 C2664 1.395 . S
C2666 C2669 1.403 . S
C2667 C2664 1.403 . S
C2667 C2668 1.524 . S
C2667 C2671 1.400 . S
C2668 H2653 0.960 . S
C2668 H2654 0.960 . S
C2668 H2655 0.960 . S
C2668 C2667 1.524 . S
C2669 C2666 1.403 . S
C2669 C2670 1.392 . S
C2669 C2673 1.495 . S
C2670 C2669 1.392 . S
C2670 C2671 1.385 . S
C2670 C2672 1.478 . S
C2671 H2665 0.930 . S
C2671 C2667 1.400 . S
C2671 C2670 1.385 . S
C2672 C2670 1.478 . S
C2672 C2674 1.381 . S
C2672 C2678 1.383 . S
C2673 C2669 1.495 . S
C2673 H2679 0.959 . S
C2673 H2680 0.961 . S
C2673 H2681 0.960 . S
C2674 C2672 1.381 . S
C2674 C2675 1.394 . S
C2674 H2682 0.930 . S
C2675 C2674 1.394 . S
C2675 C2676 1.383 . S
C2675 H2683 0.929 . S
C2676 C2675 1.383 . S
C2676 C2677 1.377 . S
C2677 H2661 0.930 . S
C2677 C2676 1.377 . S
C2677 C2678 1.379 . S
C2678 H2662 0.931 . S
C2678 C2672 1.383 . S
C2678 C2677 1.379 . S
H2679 C2673 0.959 . S
H2680 C2673 0.961 . S
H2681 C2673 0.960 . S
H2682 C2674 0.930 . S
H2683 C2675 0.929 . S
H2684 C2692 0.929 . S
H2685 C2694 0.930 . S
H2686 C2696 0.930 . S
H2687 C2699 0.929 . S
H2688 C2702 0.930 . S
H2689 C2704 0.960 . S
H2690 C2704 0.960 . S
H2691 C2704 0.960 . S
C2692 H2684 0.929 . S
C2692 C2693 1.377 . S
C2692 C2694 1.384 . S
C2693 C2692 1.377 . S
C2693 C2699 1.390 . S
C2694 H2685 0.930 . S
C2694 C2692 1.384 . S
C2694 C2695 1.372 . S
C2695 C2694 1.372 . S
C2695 C2696 1.400 . S
C2695 C2700 1.490 . S
C2696 H2686 0.930 . S
C2696 C2695 1.400 . S
C2696 C2699 1.386 . S
H2697 C2713 0.930 . S
H2698 C2714 0.931 . S
C2699 H2687 0.929 . S
C2699 C2693 1.390 . S
C2699 C2696 1.386 . S
C2700 C2695 1.490 . S
C2700 C2702 1.395 . S
C2700 C2703 1.403 . S
H2701 C2707 0.930 . S
C2702 H2688 0.930 . S
C2702 C2700 1.395 . S
C2702 C2705 1.403 . S
C2703 C2700 1.403 . S
C2703 C2704 1.524 . S
C2703 C2707 1.400 . S
C2704 H2689 0.960 . S
C2704 H2690 0.960 . S
C2704 H2691 0.960 . S
C2704 C2703 1.524 . S
C2705 C2702 1.403 . S
C2705 C2706 1.392 . S
C2705 C2709 1.495 . S
C2706 C2705 1.392 . S
C2706 C2707 1.385 . S
C2706 C2708 1.478 . S
C2707 H2701 0.930 . S
C2707 C2703 1.400 . S
C2707 C2706 1.385 . S
C2708 C2706 1.478 . S
C2708 C2710 1.381 . S
C2708 C2714 1.383 . S
C2709 C2705 1.495 . S
C2709 H2715 0.959 . S
C2709 H2716 0.961 . S
C2709 H2717 0.960 . S
C2710 C2708 1.381 . S
C2710 C2711 1.394 . S
C2710 H2718 0.930 . S
C2711 C2710 1.394 . S
C2711 C2712 1.383 . S
C2711 H2719 0.929 . S
C2712 C2711 1.383 . S
C2712 C2713 1.377 . S
C2713 H2697 0.930 . S
C2713 C2712 1.377 . S
C2713 C2714 1.379 . S
C2714 H2698 0.931 . S
C2714 C2708 1.383 . S
C2714 C2713 1.379 . S
H2715 C2709 0.959 . S
H2716 C2709 0.961 . S
H2717 C2709 0.960 . S
H2718 C2710 0.930 . S
H2719 C2711 0.929 . S
C425 C160 1.154 . S
C444 C5 1.142 . S
C461 C387 1.159 . S
C480 C16 1.172 . S
C497 C192 1.156 . S
C516 C29 1.158 . S
C533 C413 1.158 . S
C552 C42 1.170 . S
C569 C114 1.150 . S
C588 C57 1.128 . S
C605 C68 1.153 . S
C624 C329 1.168 . S
C641 C81 1.149 . S
C660 C140 1.145 . S
C677 C361 1.158 . S
C696 C96 1.167 . S
C713 C56 1.158 . S
C732 C107 1.154 . S
C749 C277 1.155 . S
C768 C122 1.168 . S
C785 C88 1.158 . S
C804 C133 1.128 . S
C821 C303 1.154 . S
C840 C146 1.129 . S
C857 C161 1.155 . S
C876 C4 1.134 . S
C893 C172 1.151 . S
C912 C225 1.132 . S
C929 C36 1.156 . S
C948 C185 1.166 . S
C965 C198 1.150 . S
C984 C257 1.173 . S
C1001 C368 1.150 . S
C1020 C213 1.127 . S
C1037 C179 1.151 . S
C1056 C226 1.132 . S
C1073 C400 1.152 . S
C1092 C237 1.137 . S
C1109 C250 1.152 . S
C1128 C205 1.155 . S
C1145 C265 1.145 . S
C1164 C322 1.131 . S
C1181 C278 1.153 . S
C1200 C121 1.161 . S
C1217 C342 1.150 . S
C1236 C291 1.124 . S
C1253 C153 1.154 . S
C1272 C304 1.141 . S
C1289 C264 1.159 . S
C1308 C315 1.132 . S
C1325 C330 1.148 . S
C1344 C75 1.174 . S
C1361 C343 1.148 . S
C1380 C290 1.140 . S
C1397 C354 1.155 . S
C1416 C95 1.143 . S
C1433 C212 1.153 . S
C1452 C369 1.131 . S
C1469 C23 1.150 . S
C1488 C380 1.150 . S
C1505 C244 1.159 . S
C1524 C393 1.140 . S
C1541 C406 1.146 . S
C1560 C49 1.149 . S
C1577 C3 1.378 . S
C1596 C109 1.385 . S
C1613 C18 1.379 . S
C1632 C328 1.378 . S
C1649 C135 1.378 . S
C1668 C31 1.368 . S
C1685 C44 1.378 . S
C1704 C356 1.367 . S
C1721 C55 1.376 . S
C1740 C159 1.363 . S
C1757 C382 1.379 . S
C1776 C70 1.372 . S
C1793 C187 1.376 . S
C1812 C83 1.363 . S
C1829 C94 1.376 . S
C1848 C408 1.363 . S
C1865 C120 1.378 . S
C1884 C224 1.385 . S
C1901 C148 1.377 . S
C1920 C252 1.364 . S
C1937 C174 1.375 . S
C1956 C276 1.365 . S
C1973 C302 1.379 . S
C1992 C200 1.375 . S
C2009 C211 1.379 . S
C2028 C317 1.376 . S
C2045 C239 1.378 . S
C2064 C341 1.385 . S
C2081 C263 1.377 . S
C2100 C367 1.365 . S
C2117 C395 1.378 . S
C2136 C289 1.385 . S
C2153 C10 1.361 . S
C2172 C101 1.365 . S
C2189 C17 1.362 . S
C2208 C62 1.361 . S
C2225 C69 1.362 . S
C2244 C30 1.367 . S
C2261 C82 1.364 . S
C2280 C43 1.353 . S
C2297 C199 1.363 . S
C2316 C108 1.364 . S
C2333 C166 1.362 . S
C2352 C127 1.356 . S
C2369 C173 1.364 . S
C2388 C134 1.366 . S
C2405 C186 1.362 . S
C2424 C147 1.359 . S
C2441 C218 1.361 . S
C2460 C309 1.366 . S
C2477 C270 1.364 . S
C2496 C231 1.356 . S
C2513 C283 1.363 . S
C2532 C238 1.366 . S
C2549 C296 1.364 . S
C2568 C251 1.359 . S
C2585 C407 1.363 . S
C2604 C316 1.364 . S
C2621 C335 1.362 . S
C2640 C374 1.354 . S
C2657 C348 1.361 . S
C2676 C381 1.353 . S
C2693 C394 1.361 . S
C2712 C355 1.354 . S
