# Generated by pormake.
# Topology sxg, (6)-cn, num edge types: 1
# Building blocks:
#     Node 0, Type 0, BuildingBlock: OJICUG_clean_sbu_0, # of connection points: 6
#     Node 1, Type 0, BuildingBlock: OJICUG_clean_sbu_0, # of connection points: 6
#     Node 2, Type 0, BuildingBlock: OJICUG_clean_sbu_0, # of connection points: 6
#     Node 3, Type 0, BuildingBlock: OJICUG_clean_sbu_0, # of connection points: 6
#     Node 4, Type 0, BuildingBlock: OJICUG_clean_sbu_0, # of connection points: 6
#     Node 5, Type 0, BuildingBlock: OJICUG_clean_sbu_0, # of connection points: 6
#     Node 6, Type 0, BuildingBlock: OJICUG_clean_sbu_0, # of connection points: 6
#     Node 7, Type 0, BuildingBlock: OJICUG_clean_sbu_0, # of connection points: 6
#     Node 8, Type 0, BuildingBlock: OJICUG_clean_sbu_0, # of connection points: 6
#     Node 9, Type 0, BuildingBlock: OJICUG_clean_sbu_0, # of connection points: 6
#     Node 10, Type 0, BuildingBlock: OJICUG_clean_sbu_0, # of connection points: 6
#     Node 11, Type 0, BuildingBlock: OJICUG_clean_sbu_0, # of connection points: 6
#     Node 12, Type 0, BuildingBlock: OJICUG_clean_sbu_0, # of connection points: 6
#     Node 13, Type 0, BuildingBlock: OJICUG_clean_sbu_0, # of connection points: 6
#     Node 14, Type 0, BuildingBlock: OJICUG_clean_sbu_0, # of connection points: 6
#     Node 15, Type 0, BuildingBlock: OJICUG_clean_sbu_0, # of connection points: 6
#     Node 16, Type 0, BuildingBlock: OJICUG_clean_sbu_0, # of connection points: 6
#     Node 17, Type 0, BuildingBlock: OJICUG_clean_sbu_0, # of connection points: 6
#     Node 18, Type 0, BuildingBlock: OJICUG_clean_sbu_0, # of connection points: 6
#     Node 19, Type 0, BuildingBlock: OJICUG_clean_sbu_0, # of connection points: 6
#     Node 20, Type 0, BuildingBlock: OJICUG_clean_sbu_0, # of connection points: 6
#     Node 21, Type 0, BuildingBlock: OJICUG_clean_sbu_0, # of connection points: 6
#     Node 22, Type 0, BuildingBlock: OJICUG_clean_sbu_0, # of connection points: 6
#     Node 23, Type 0, BuildingBlock: OJICUG_clean_sbu_0, # of connection points: 6
#     Edge 24, Type (0, 0), BuildingBlock: CIFDUS_clean_linker_0, # of connection points: 2
#     Edge 25, Type (0, 0), BuildingBlock: CIFDUS_clean_linker_0, # of connection points: 2
#     Edge 26, Type (0, 0), BuildingBlock: CIFDUS_clean_linker_0, # of connection points: 2
#     Edge 27, Type (0, 0), BuildingBlock: CIFDUS_clean_linker_0, # of connection points: 2
#     Edge 28, Type (0, 0), BuildingBlock: CIFDUS_clean_linker_0, # of connection points: 2
#     Edge 29, Type (0, 0), BuildingBlock: CIFDUS_clean_linker_0, # of connection points: 2
#     Edge 30, Type (0, 0), BuildingBlock: CIFDUS_clean_linker_0, # of connection points: 2
#     Edge 31, Type (0, 0), BuildingBlock: CIFDUS_clean_linker_0, # of connection points: 2
#     Edge 32, Type (0, 0), BuildingBlock: CIFDUS_clean_linker_0, # of connection points: 2
#     Edge 33, Type (0, 0), BuildingBlock: CIFDUS_clean_linker_0, # of connection points: 2
#     Edge 34, Type (0, 0), BuildingBlock: CIFDUS_clean_linker_0, # of connection points: 2
#     Edge 35, Type (0, 0), BuildingBlock: CIFDUS_clean_linker_0, # of connection points: 2
#     Edge 36, Type (0, 0), BuildingBlock: CIFDUS_clean_linker_0, # of connection points: 2
#     Edge 37, Type (0, 0), BuildingBlock: CIFDUS_clean_linker_0, # of connection points: 2
#     Edge 38, Type (0, 0), BuildingBlock: CIFDUS_clean_linker_0, # of connection points: 2
#     Edge 39, Type (0, 0), BuildingBlock: CIFDUS_clean_linker_0, # of connection points: 2
#     Edge 40, Type (0, 0), BuildingBlock: CIFDUS_clean_linker_0, # of connection points: 2
#     Edge 41, Type (0, 0), BuildingBlock: CIFDUS_clean_linker_0, # of connection points: 2
#     Edge 42, Type (0, 0), BuildingBlock: CIFDUS_clean_linker_0, # of connection points: 2
#     Edge 43, Type (0, 0), BuildingBlock: CIFDUS_clean_linker_0, # of connection points: 2
#     Edge 44, Type (0, 0), BuildingBlock: CIFDUS_clean_linker_0, # of connection points: 2
#     Edge 45, Type (0, 0), BuildingBlock: CIFDUS_clean_linker_0, # of connection points: 2
#     Edge 46, Type (0, 0), BuildingBlock: CIFDUS_clean_linker_0, # of connection points: 2
#     Edge 47, Type (0, 0), BuildingBlock: CIFDUS_clean_linker_0, # of connection points: 2
#     Edge 48, Type (0, 0), BuildingBlock: CIFDUS_clean_linker_0, # of connection points: 2
#     Edge 49, Type (0, 0), BuildingBlock: CIFDUS_clean_linker_0, # of connection points: 2
#     Edge 50, Type (0, 0), BuildingBlock: CIFDUS_clean_linker_0, # of connection points: 2
#     Edge 51, Type (0, 0), BuildingBlock: CIFDUS_clean_linker_0, # of connection points: 2
#     Edge 52, Type (0, 0), BuildingBlock: CIFDUS_clean_linker_0, # of connection points: 2
#     Edge 53, Type (0, 0), BuildingBlock: CIFDUS_clean_linker_0, # of connection points: 2
#     Edge 54, Type (0, 0), BuildingBlock: CIFDUS_clean_linker_0, # of connection points: 2
#     Edge 55, Type (0, 0), BuildingBlock: CIFDUS_clean_linker_0, # of connection points: 2
#     Edge 56, Type (0, 0), BuildingBlock: CIFDUS_clean_linker_0, # of connection points: 2
#     Edge 57, Type (0, 0), BuildingBlock: CIFDUS_clean_linker_0, # of connection points: 2
#     Edge 58, Type (0, 0), BuildingBlock: CIFDUS_clean_linker_0, # of connection points: 2
#     Edge 59, Type (0, 0), BuildingBlock: CIFDUS_clean_linker_0, # of connection points: 2
#     Edge 60, Type (0, 0), BuildingBlock: CIFDUS_clean_linker_0, # of connection points: 2
#     Edge 61, Type (0, 0), BuildingBlock: CIFDUS_clean_linker_0, # of connection points: 2
#     Edge 62, Type (0, 0), BuildingBlock: CIFDUS_clean_linker_0, # of connection points: 2
#     Edge 63, Type (0, 0), BuildingBlock: CIFDUS_clean_linker_0, # of connection points: 2
#     Edge 64, Type (0, 0), BuildingBlock: CIFDUS_clean_linker_0, # of connection points: 2
#     Edge 65, Type (0, 0), BuildingBlock: CIFDUS_clean_linker_0, # of connection points: 2
#     Edge 66, Type (0, 0), BuildingBlock: CIFDUS_clean_linker_0, # of connection points: 2
#     Edge 67, Type (0, 0), BuildingBlock: CIFDUS_clean_linker_0, # of connection points: 2
#     Edge 68, Type (0, 0), BuildingBlock: CIFDUS_clean_linker_0, # of connection points: 2
#     Edge 69, Type (0, 0), BuildingBlock: CIFDUS_clean_linker_0, # of connection points: 2
#     Edge 70, Type (0, 0), BuildingBlock: CIFDUS_clean_linker_0, # of connection points: 2
#     Edge 71, Type (0, 0), BuildingBlock: CIFDUS_clean_linker_0, # of connection points: 2
#     Edge 72, Type (0, 0), BuildingBlock: CIFDUS_clean_linker_0, # of connection points: 2
#     Edge 73, Type (0, 0), BuildingBlock: CIFDUS_clean_linker_0, # of connection points: 2
#     Edge 74, Type (0, 0), BuildingBlock: CIFDUS_clean_linker_0, # of connection points: 2
#     Edge 75, Type (0, 0), BuildingBlock: CIFDUS_clean_linker_0, # of connection points: 2
#     Edge 76, Type (0, 0), BuildingBlock: CIFDUS_clean_linker_0, # of connection points: 2
#     Edge 77, Type (0, 0), BuildingBlock: CIFDUS_clean_linker_0, # of connection points: 2
#     Edge 78, Type (0, 0), BuildingBlock: CIFDUS_clean_linker_0, # of connection points: 2
#     Edge 79, Type (0, 0), BuildingBlock: CIFDUS_clean_linker_0, # of connection points: 2
#     Edge 80, Type (0, 0), BuildingBlock: CIFDUS_clean_linker_0, # of connection points: 2
#     Edge 81, Type (0, 0), BuildingBlock: CIFDUS_clean_linker_0, # of connection points: 2
#     Edge 82, Type (0, 0), BuildingBlock: CIFDUS_clean_linker_0, # of connection points: 2
#     Edge 83, Type (0, 0), BuildingBlock: CIFDUS_clean_linker_0, # of connection points: 2
#     Edge 84, Type (0, 0), BuildingBlock: CIFDUS_clean_linker_0, # of connection points: 2
#     Edge 85, Type (0, 0), BuildingBlock: CIFDUS_clean_linker_0, # of connection points: 2
#     Edge 86, Type (0, 0), BuildingBlock: CIFDUS_clean_linker_0, # of connection points: 2
#     Edge 87, Type (0, 0), BuildingBlock: CIFDUS_clean_linker_0, # of connection points: 2
#     Edge 88, Type (0, 0), BuildingBlock: CIFDUS_clean_linker_0, # of connection points: 2
#     Edge 89, Type (0, 0), BuildingBlock: CIFDUS_clean_linker_0, # of connection points: 2
#     Edge 90, Type (0, 0), BuildingBlock: CIFDUS_clean_linker_0, # of connection points: 2
#     Edge 91, Type (0, 0), BuildingBlock: CIFDUS_clean_linker_0, # of connection points: 2
#     Edge 92, Type (0, 0), BuildingBlock: CIFDUS_clean_linker_0, # of connection points: 2
#     Edge 93, Type (0, 0), BuildingBlock: CIFDUS_clean_linker_0, # of connection points: 2
#     Edge 94, Type (0, 0), BuildingBlock: CIFDUS_clean_linker_0, # of connection points: 2
#     Edge 95, Type (0, 0), BuildingBlock: CIFDUS_clean_linker_0, # of connection points: 2
# Relax obj value: 0.142
# Max RMSD: 0.235
# Mean RMSD: 0.235
data_MOF--net-sxg--node1-OJICUG_clean_sbu_0--edge1-CIFDUS_clean_linker_0
_symmetry_space_group_name_H-M    P1
_symmetry_Int_Tables_number       1
_symmetry_cell_setting            triclinic
loop_
_symmetry_equiv_pos_as_xyz
'x, y, z'
_cell_length_a     41.457408
_cell_length_b     41.47596
_cell_length_c     41.314604
_cell_angle_alpha  90.043717
_cell_angle_beta   90.035951
_cell_angle_gamma 89.94644
loop_
_atom_site_label
_atom_site_type_symbol
_atom_site_fract_x
_atom_site_fract_y
_atom_site_fract_z
_atom_type_partial_charge
Sc0 Sc 0.07853 0.37135 0.17063 0.0
Sc1 Sc 0.05216 0.34726 0.24837 0.0
Sc2 Sc 0.05447 0.29108 0.18496 0.0
O3 O 0.06154 0.33663 0.20131 0.0
C4 C 0.03317 0.3302 0.12235 0.0
C5 C 0.02121 0.40584 0.20834 0.0
C6 C 0.99522 0.2971 0.23281 0.0
C7 C 0.11374 0.39182 0.23691 0.0
C8 C 0.12369 0.31153 0.15638 0.0
C9 C 0.08262 0.27807 0.25576 0.0
O10 O 0.04916 0.35539 0.12973 0.0
O11 O 0.02376 0.38841 0.23364 0.0
O12 O 0.00718 0.28544 0.2069 0.0
O13 O 0.11069 0.39308 0.20629 0.0
O14 O 0.10221 0.29103 0.16427 0.0
O15 O 0.07865 0.3062 0.26745 0.0
O16 O 0.11885 0.34181 0.15647 0.0
O17 O 0.09455 0.37589 0.25458 0.0
O18 O 0.07489 0.27061 0.22708 0.0
O19 O 0.03937 0.40269 0.18368 0.0
O20 O 0.0323 0.30561 0.14051 0.0
O21 O 0.00895 0.31917 0.24907 0.0
Sc22 Sc 0.42352 0.62602 0.66263 0.0
Sc23 Sc 0.43905 0.64381 0.74433 0.0
Sc24 Sc 0.43362 0.70478 0.68756 0.0
O25 O 0.4326 0.65784 0.6982 0.0
C26 C 0.47299 0.67736 0.63089 0.0
C27 C 0.47772 0.59066 0.70262 0.0
C28 C 0.48602 0.70158 0.74511 0.0
C29 C 0.38164 0.59849 0.7216 0.0
C30 C 0.37792 0.68058 0.64047 0.0
C31 C 0.39439 0.70683 0.7501 0.0
O32 O 0.45438 0.65277 0.62877 0.0
O33 O 0.46896 0.60283 0.72968 0.0
O34 O 0.46807 0.71708 0.72551 0.0
O35 O 0.39165 0.5969 0.69246 0.0
O36 O 0.39872 0.70154 0.64867 0.0
O37 O 0.41148 0.6848 0.76335 0.0
O38 O 0.38095 0.65108 0.64758 0.0
O39 O 0.39524 0.61595 0.74296 0.0
O40 O 0.39483 0.71208 0.71988 0.0
O41 O 0.46473 0.59829 0.67585 0.0
O42 O 0.47189 0.69707 0.65445 0.0
O43 O 0.48262 0.67146 0.74971 0.0
Sc44 Sc 0.55428 0.1993 0.80831 0.0
Sc45 Sc 0.55419 0.14172 0.74618 0.0
Sc46 Sc 0.57971 0.12014 0.82499 0.0
O47 O 0.56255 0.15364 0.79312 0.0
C48 C 0.6216 0.18105 0.84249 0.0
C49 C 0.58765 0.21063 0.74026 0.0
C50 C 0.61772 0.1003 0.76 0.0
C51 C 0.49673 0.19123 0.75744 0.0
C52 C 0.5295 0.16103 0.86915 0.0
C53 C 0.52425 0.0829 0.78692 0.0
O54 O 0.59876 0.20031 0.83535 0.0
O55 O 0.57925 0.184 0.7273 0.0
O56 O 0.61353 0.09846 0.79051 0.0
O57 O 0.50996 0.20585 0.78104 0.0
O58 O 0.54866 0.1373 0.86448 0.0
O59 O 0.52748 0.09936 0.76103 0.0
O60 O 0.52705 0.18427 0.84937 0.0
O61 O 0.50912 0.16674 0.74391 0.0
O62 O 0.5414 0.08754 0.8121 0.0
O63 O 0.58068 0.21821 0.76912 0.0
O64 O 0.6192 0.15067 0.83943 0.0
O65 O 0.59844 0.11559 0.74178 0.0
Sc66 Sc 0.93197 0.79656 0.31644 0.0
Sc67 Sc 0.94143 0.84795 0.25146 0.0
Sc68 Sc 0.91636 0.87789 0.32644 0.0
O69 O 0.92989 0.84118 0.29801 0.0
C70 C 0.87281 0.82612 0.3555 0.0
C71 C 0.89718 0.78414 0.25244 0.0
C72 C 0.8811 0.89425 0.25874 0.0
C73 C 0.98856 0.79288 0.26401 0.0
C74 C 0.96518 0.83464 0.37069 0.0
C75 C 0.97422 0.9081 0.28704 0.0
O76 O 0.89504 0.80524 0.35242 0.0
O77 O 0.91572 0.80375 0.23736 0.0
O78 O 0.88589 0.8997 0.28884 0.0
O79 O 0.96872 0.77887 0.28279 0.0
O80 O 0.94552 0.85839 0.36693 0.0
O81 O 0.9692 0.89126 0.26168 0.0
O82 O 0.96743 0.81161 0.35041 0.0
O83 O 0.98565 0.8224 0.25703 0.0
O84 O 0.95761 0.90509 0.31264 0.0
O85 O 0.89589 0.78238 0.28309 0.0
O86 O 0.87396 0.85341 0.34203 0.0
O87 O 0.89835 0.87484 0.2424 0.0
Sc88 Sc 0.16431 0.06695 0.37846 0.0
Sc89 Sc 0.24402 0.05003 0.35667 0.0
Sc90 Sc 0.18284 0.05009 0.29837 0.0
O91 O 0.19727 0.05539 0.34463 0.0
C92 C 0.12636 0.01654 0.33263 0.0
C93 C 0.20505 0.01316 0.41352 0.0
C94 C 0.24049 -0.00156 0.30163 0.0
C95 C 0.22479 0.1083 0.40238 0.0
C96 C 0.14033 0.10946 0.32247 0.0
C97 C 0.24542 0.09104 0.29035 0.0
O98 O 0.12778 0.03676 0.35591 0.0
O99 O 0.23143 0.02078 0.39927 0.0
O100 O 0.21833 0.01329 0.28637 0.0
O101 O 0.19574 0.09892 0.40496 0.0
O102 O 0.14618 0.08711 0.30219 0.0
O103 O 0.26011 0.07745 0.314 0.0
O104 O 0.14936 0.10825 0.3517 0.0
O105 O 0.24499 0.09429 0.38402 0.0
O106 O 0.21591 0.08626 0.28375 0.0
O107 O 0.17828 0.02672 0.4072 0.0
O108 O 0.14836 0.01411 0.31134 0.0
O109 O 0.24847 0.00591 0.33033 0.0
Sc110 Sc 0.30924 0.94744 0.79724 0.0
Sc111 Sc 0.25345 0.93985 0.86101 0.0
Sc112 Sc 0.33496 0.91909 0.87342 0.0
O113 O 0.29921 0.93583 0.84399 0.0
C114 C 0.34655 0.88078 0.80865 0.0
C115 C 0.24285 0.90943 0.79085 0.0
C116 C 0.27598 0.87615 0.89805 0.0
C117 C 0.25692 0.00109 0.81391 0.0
C118 C 0.37314 0.97187 0.8312 0.0
C119 C 0.29797 0.96964 0.91762 0.0
O120 O 0.33594 0.90332 0.79066 0.0
O121 O 0.23331 0.91321 0.81998 0.0
O122 O 0.30583 0.88251 0.89611 0.0
O123 O 0.28121 0.99161 0.7976 0.0
O124 O 0.37045 0.95258 0.85496 0.0
O125 O 0.27093 0.96712 0.90283 0.0
O126 O 0.35187 0.97425 0.80921 0.0
O127 O 0.24506 0.98497 0.83712 0.0
O128 O 0.323 0.9537 0.90976 0.0
O129 O 0.26876 0.92126 0.77988 0.0
O130 O 0.34801 0.88289 0.83924 0.0
O131 O 0.25452 0.89465 0.88649 0.0
Sc132 Sc 0.6867 0.44617 0.69641 0.0
Sc133 Sc 0.74558 0.43602 0.63604 0.0
Sc134 Sc 0.66369 0.4211 0.61877 0.0
O135 O 0.69877 0.43469 0.65037 0.0
C136 C 0.64684 0.38168 0.6813 0.0
C137 C 0.75142 0.40619 0.70707 0.0
C138 C 0.72155 0.37504 0.59635 0.0
C139 C 0.74234 0.49733 0.68244 0.0
C140 C 0.62592 0.47435 0.66111 0.0
C141 C 0.70555 0.47017 0.57831 0.0
O142 O 0.65625 0.4042 0.70007 0.0
O143 O 0.76355 0.4109 0.67908 0.0
O144 O 0.6927 0.38516 0.59455 0.0
O145 O 0.71784 0.48796 0.69844 0.0
O146 O 0.62802 0.45438 0.63782 0.0
O147 O 0.73191 0.46265 0.59258 0.0
O148 O 0.64726 0.47653 0.68295 0.0
O149 O 0.75406 0.48164 0.65881 0.0
O150 O 0.67843 0.45786 0.58572 0.0
O151 O 0.7242 0.41725 0.7154 0.0
O152 O 0.64846 0.38347 0.65065 0.0
O153 O 0.74317 0.38994 0.61214 0.0
Sc154 Sc 0.83358 0.56997 0.12136 0.0
Sc155 Sc 0.75247 0.55607 0.14372 0.0
Sc156 Sc 0.81401 0.55308 0.20244 0.0
O157 O 0.79998 0.5595 0.15584 0.0
C158 C 0.87229 0.51982 0.16553 0.0
C159 C 0.78895 0.51817 0.08667 0.0
C160 C 0.75811 0.50044 0.19724 0.0
C161 C 0.77492 0.61446 0.0988 0.0
C162 C 0.85568 0.61409 0.17929 0.0
C163 C 0.74934 0.59376 0.21074 0.0
O164 O 0.86787 0.53542 0.13946 0.0
O165 O 0.76378 0.52394 0.10352 0.0
O166 O 0.78418 0.51058 0.21009 0.0
O167 O 0.80445 0.60645 0.09874 0.0
O168 O 0.84307 0.5963 0.20096 0.0
O169 O 0.73666 0.58683 0.18349 0.0
O170 O 0.85461 0.60771 0.14933 0.0
O171 O 0.75351 0.59848 0.11377 0.0
O172 O 0.77634 0.58275 0.21988 0.0
O173 O 0.81531 0.53325 0.09047 0.0
O174 O 0.85408 0.52281 0.19004 0.0
O175 O 0.74496 0.51422 0.17314 0.0
Sc176 Sc 0.37337 0.16017 0.07213 0.0
Sc177 Sc 0.35688 0.24183 0.05491 0.0
Sc178 Sc 0.29385 0.18752 0.06486 0.0
O179 O 0.3415 0.19635 0.06354 0.0
C180 C 0.31901 0.12665 0.02723 0.0
C181 C 0.40934 0.19825 0.01679 0.0
C182 C 0.29894 0.24015 0.00719 0.0
C183 C 0.4018 0.21975 0.11304 0.0
C184 C 0.3198 0.14376 0.12339 0.0
C185 C 0.29439 0.25391 0.09913 0.0
O186 O 0.3461 0.12632 0.04211 0.0
O187 O 0.39724 0.22534 0.02516 0.0
O188 O 0.28306 0.22107 0.02546 0.0
O189 O 0.40282 0.19034 0.10385 0.0
O190 O 0.29723 0.15534 0.10605 0.0
O191 O 0.31742 0.26483 0.08186 0.0
O192 O 0.34918 0.14478 0.11513 0.0
O193 O 0.38503 0.24105 0.09857 0.0
O194 O 0.28676 0.2244 0.09936 0.0
O195 O 0.40139 0.17193 0.03021 0.0
O196 O 0.29832 0.14901 0.03081 0.0
O197 O 0.32878 0.24583 0.01153 0.0
Sc198 Sc 0.79884 0.30761 0.94496 0.0
Sc199 Sc 0.86109 0.25051 0.93842 0.0
Sc200 Sc 0.87557 0.33203 0.91948 0.0
O201 O 0.84521 0.29662 0.93458 0.0
C202 C 0.81288 0.3458 0.87878 0.0
C203 C 0.79096 0.24116 0.90751 0.0
C204 C 0.89925 0.27288 0.87588 0.0
C205 C 0.81414 0.25467 0.99909 0.0
C206 C 0.8317 0.37032 0.97103 0.0
C207 C 0.91748 0.29396 0.97097 0.0
O208 O 0.79452 0.3368 0.90182 0.0
O209 O 0.81886 0.22982 0.91402 0.0
O210 O 0.90054 0.30214 0.88481 0.0
O211 O 0.79715 0.27773 0.98793 0.0
O212 O 0.8549 0.36832 0.95098 0.0
O213 O 0.90406 0.26694 0.96433 0.0
O214 O 0.81089 0.34823 0.9743 0.0
O215 O 0.83877 0.24358 0.98461 0.0
O216 O 0.90916 0.32035 0.95753 0.0
O217 O 0.78172 0.26877 0.91672 0.0
O218 O 0.84348 0.34465 0.88057 0.0
O219 O 0.88445 0.25153 0.89203 0.0
Sc220 Sc 0.70394 0.6897 0.45085 0.0
Sc221 Sc 0.6407 0.74615 0.45177 0.0
Sc222 Sc 0.62754 0.66822 0.41999 0.0
O223 O 0.65737 0.70131 0.44115 0.0
C224 C 0.69218 0.65939 0.3803 0.0
C225 C 0.71044 0.76191 0.42529 0.0
C226 C 0.60555 0.73274 0.38443 0.0
C227 C 0.68863 0.73473 0.51126 0.0
C228 C 0.66903 0.62376 0.46815 0.0
C229 C 0.58357 0.69942 0.47468 0.0
O230 O 0.71026 0.66927 0.40316 0.0
O231 O 0.68121 0.77045 0.4292 0.0
O232 O 0.60728 0.70224 0.38604 0.0
O233 O 0.70432 0.71153 0.49855 0.0
O234 O 0.64451 0.62928 0.45043 0.0
O235 O 0.59933 0.72577 0.47606 0.0
O236 O 0.69199 0.64374 0.47137 0.0
O237 O 0.66483 0.74827 0.49753 0.0
O238 O 0.5904 0.67677 0.4551 0.0
O239 O 0.72091 0.73398 0.43197 0.0
O240 O 0.66179 0.65724 0.38295 0.0
O241 O 0.61583 0.75098 0.40676 0.0
Sc242 Sc 0.1145 0.82563 0.57858 0.0
Sc243 Sc 0.13728 0.74886 0.55123 0.0
Sc244 Sc 0.19569 0.80687 0.56526 0.0
O245 O 0.14894 0.79407 0.56486 0.0
C246 C 0.16313 0.86785 0.53403 0.0
C247 C 0.07916 0.79031 0.52094 0.0
C248 C 0.19161 0.75992 0.5026 0.0
C249 C 0.09437 0.75908 0.61374 0.0
C250 C 0.16888 0.84441 0.6279 0.0
C251 C 0.20372 0.73841 0.58995 0.0
O252 O 0.13711 0.86405 0.55033 0.0
O253 O 0.09341 0.7636 0.52627 0.0
O254 O 0.20784 0.77626 0.52322 0.0
O255 O 0.09027 0.78928 0.60864 0.0
O256 O 0.19153 0.83643 0.60867 0.0
O257 O 0.18128 0.72747 0.57188 0.0
O258 O 0.1394 0.83993 0.62143 0.0
O259 O 0.11227 0.74149 0.59593 0.0
O260 O 0.20615 0.76804 0.59675 0.0
O261 O 0.08559 0.81564 0.53682 0.0
O262 O 0.18622 0.84751 0.53443 0.0
O263 O 0.16173 0.75448 0.50617 0.0
Sc264 Sc 0.93536 0.69902 0.81688 0.0
Sc265 Sc 0.93777 0.63987 0.75623 0.0
Sc266 Sc 0.91749 0.61868 0.83625 0.0
O267 O 0.9305 0.6525 0.80303 0.0
C268 C 0.96517 0.66407 0.8772 0.0
C269 C 0.99097 0.69418 0.76275 0.0
C270 C 0.97369 0.58418 0.79749 0.0
C271 C 0.89863 0.70625 0.75043 0.0
C272 C 0.87125 0.67593 0.85361 0.0
C273 C 0.87827 0.59509 0.77405 0.0
O274 O 0.96634 0.68674 0.85656 0.0
O275 O 0.98119 0.66727 0.75192 0.0
O276 O 0.95809 0.58926 0.82351 0.0
O277 O 0.90452 0.71486 0.77923 0.0
O278 O 0.8758 0.64588 0.85031 0.0
O279 O 0.89428 0.61188 0.75409 0.0
O280 O 0.89255 0.69694 0.84667 0.0
O281 O 0.9101 0.68073 0.7375 0.0
O282 O 0.88566 0.59328 0.80381 0.0
O283 O 0.97707 0.70869 0.78614 0.0
O284 O 0.94695 0.63961 0.87396 0.0
O285 O 0.96747 0.59891 0.771 0.0
Sc286 Sc 0.54853 0.29808 0.3108 0.0
Sc287 Sc 0.54549 0.3572 0.25136 0.0
Sc288 Sc 0.57665 0.37508 0.32852 0.0
O289 O 0.55674 0.34376 0.2968 0.0
C290 C 0.52427 0.33497 0.37087 0.0
C291 C 0.4912 0.3068 0.25914 0.0
C292 C 0.5217 0.4168 0.29549 0.0
C293 C 0.58078 0.28812 0.2437 0.0
C294 C 0.6141 0.31366 0.34816 0.0
C295 C 0.61166 0.39494 0.26227 0.0
O296 O 0.51806 0.31407 0.34914 0.0
O297 O 0.4987 0.33561 0.25259 0.0
O298 O 0.53987 0.40986 0.31924 0.0
O299 O 0.57935 0.28177 0.27373 0.0
O300 O 0.61535 0.34299 0.33992 0.0
O301 O 0.591 0.38071 0.24463 0.0
O302 O 0.58908 0.29652 0.3437 0.0
O303 O 0.56711 0.31284 0.23096 0.0
O304 O 0.60901 0.39653 0.29297 0.0
O305 O 0.50789 0.28962 0.27835 0.0
O306 O 0.54644 0.35629 0.36785 0.0
O307 O 0.52198 0.40117 0.26878 0.0
Sc308 Sc 0.43841 0.7869 0.19349 0.0
Sc309 Sc 0.44862 0.84963 0.24914 0.0
Sc310 Sc 0.42173 0.86707 0.16978 0.0
O311 O 0.43649 0.83461 0.20405 0.0
C312 C 0.46473 0.81711 0.12826 0.0
C313 C 0.50005 0.79347 0.2389 0.0
C314 C 0.48068 0.90305 0.20344 0.0
C315 C 0.40882 0.78612 0.26404 0.0
C316 C 0.37261 0.8096 0.16012 0.0
C317 C 0.38835 0.89488 0.23405 0.0
O318 O 0.46291 0.79485 0.14916 0.0
O319 O 0.49042 0.8197 0.25145 0.0
O320 O 0.46202 0.89841 0.17943 0.0
O321 O 0.41371 0.77414 0.23634 0.0
O322 O 0.3798 0.83921 0.15763 0.0
O323 O 0.40799 0.88055 0.25259 0.0
O324 O 0.39206 0.78848 0.1708 0.0
O325 O 0.42007 0.81309 0.27328 0.0
O326 O 0.39026 0.89315 0.2033 0.0
O327 O 0.4843 0.77869 0.21704 0.0
O328 O 0.45087 0.84441 0.1318 0.0
O329 O 0.47832 0.88748 0.22987 0.0
Sc330 Sc 0.05233 0.20268 0.68547 0.0
Sc331 Sc 0.059 0.14385 0.74636 0.0
Sc332 Sc 0.0789 0.12477 0.66544 0.0
O333 O 0.0632 0.15706 0.69913 0.0
C334 C 0.02939 0.16597 0.62226 0.0
C335 C 0.99692 0.18897 0.7364 0.0
C336 C 0.02727 0.08537 0.7058 0.0
C337 C 0.0851 0.21535 0.75434 0.0
C338 C 0.12026 0.18711 0.65141 0.0
C339 C 0.12165 0.10417 0.7269 0.0
O340 O 0.02788 0.18928 0.64197 0.0
O341 O 0.01334 0.16762 0.75107 0.0
O342 O 0.04191 0.09157 0.67945 0.0
O343 O 0.0747 0.2229 0.7266 0.0
O344 O 0.1168 0.15666 0.65063 0.0
O345 O 0.10468 0.11911 0.74761 0.0
O346 O 0.09836 0.20637 0.66131 0.0
O347 O 0.08349 0.18668 0.76537 0.0
O348 O 0.11395 0.10282 0.69718 0.0
O349 O 0.00667 0.20342 0.711 0.0
O350 O 0.04702 0.1414 0.6273 0.0
O351 O 0.03259 0.10069 0.73213 0.0
Sc352 Sc 0.83821 0.92132 0.61984 0.0
Sc353 Sc 0.75758 0.93862 0.64149 0.0
Sc354 Sc 0.81838 0.93802 0.70108 0.0
O355 O 0.80471 0.93297 0.65416 0.0
C356 C 0.85779 0.87544 0.67748 0.0
C357 C 0.77792 0.87842 0.59772 0.0
C358 C 0.75156 0.901 0.70844 0.0
C359 C 0.79637 0.975 0.58453 0.0
C360 C 0.87841 0.96962 0.66524 0.0
C361 C 0.76445 0.99331 0.69573 0.0
O362 O 0.85728 0.8824 0.64764 0.0
O363 O 0.75714 0.89541 0.61254 0.0
O364 O 0.7794 0.90959 0.71762 0.0
O365 O 0.82228 0.95922 0.58868 0.0
O366 O 0.85986 0.96708 0.68959 0.0
O367 O 0.75179 0.98115 0.67048 0.0
O368 O 0.87359 0.95442 0.63892 0.0
O369 O 0.77081 0.96966 0.60095 0.0
O370 O 0.7895 0.98139 0.70924 0.0
O371 O 0.80766 0.8858 0.59693 0.0
O372 O 0.84585 0.8935 0.69936 0.0
O373 O 0.73941 0.90946 0.6814 0.0
Sc374 Sc 0.6831 0.05205 0.19754 0.0
Sc375 Sc 0.74213 0.05638 0.13698 0.0
Sc376 Sc 0.66132 0.07932 0.11997 0.0
O377 O 0.69558 0.06238 0.1514 0.0
C378 C 0.62095 0.02733 0.16027 0.0
C379 C 0.73523 0.99697 0.18633 0.0
C380 C 0.69972 0.02765 0.07797 0.0
C381 C 0.75185 0.0849 0.20777 0.0
C382 C 0.64627 0.11888 0.18361 0.0
C383 C 0.72265 0.12067 0.09879 0.0
O384 O 0.64056 0.0269 0.18379 0.0
O385 O 0.74855 0.01195 0.16306 0.0
O386 O 0.67517 0.04507 0.08381 0.0
O387 O 0.72414 0.07538 0.21622 0.0
O388 O 0.64507 0.11572 0.15309 0.0
O389 O 0.74316 0.1011 0.11044 0.0
O390 O 0.65794 0.09735 0.2022 0.0
O391 O 0.7624 0.08211 0.17883 0.0
O392 O 0.69249 0.11569 0.10018 0.0
O393 O 0.70933 0.00682 0.19968 0.0
O394 O 0.62484 0.04528 0.13563 0.0
O395 O 0.72559 0.02871 0.09491 0.0
Sc396 Sc 0.30644 0.5646 0.2989 0.0
Sc397 Sc 0.24958 0.55948 0.3608 0.0
Sc398 Sc 0.332 0.571 0.37942 0.0
O399 O 0.29608 0.56466 0.34649 0.0
C400 C 0.36459 0.52403 0.32627 0.0
C401 C 0.25106 0.50991 0.30362 0.0
C402 C 0.28922 0.52014 0.41522 0.0
C403 C 0.24176 0.60239 0.29641 0.0
C404 C 0.35316 0.6199 0.32605 0.0
C405 C 0.27445 0.61585 0.40661 0.0
O406 O 0.34322 0.52913 0.30486 0.0
O407 O 0.2434 0.51626 0.33278 0.0
O408 O 0.31653 0.53127 0.40754 0.0
O409 O 0.27134 0.60026 0.28929 0.0
O410 O 0.35115 0.61174 0.35539 0.0
O411 O 0.25256 0.60319 0.38905 0.0
O412 O 0.34023 0.60421 0.303 0.0
O413 O 0.2294 0.58721 0.32023 0.0
O414 O 0.3032 0.60477 0.40798 0.0
O415 O 0.27199 0.5263 0.28805 0.0
O416 O 0.36491 0.53858 0.35358 0.0
O417 O 0.26282 0.52928 0.40222 0.0
Sc418 Sc 0.17098 0.42409 0.87976 0.0
Sc419 Sc 0.24826 0.44878 0.85614 0.0
Sc420 Sc 0.18541 0.44811 0.80062 0.0
O421 O 0.20167 0.44045 0.84572 0.0
C422 C 0.1476 0.38411 0.82131 0.0
C423 C 0.23612 0.38554 0.89707 0.0
C424 C 0.25028 0.41402 0.78606 0.0
C425 C 0.2094 0.47815 0.91709 0.0
C426 C 0.128 0.47548 0.83899 0.0
C427 C 0.23881 0.50401 0.80679 0.0
O428 O 0.15749 0.38383 0.85033 0.0
O429 O 0.25372 0.40265 0.87873 0.0
O430 O 0.21995 0.41551 0.78238 0.0
O431 O 0.18325 0.46337 0.91092 0.0
O432 O 0.14941 0.48069 0.81761 0.0
O433 O 0.24733 0.49566 0.83498 0.0
O434 O 0.13117 0.45377 0.86082 0.0
O435 O 0.23564 0.47271 0.90169 0.0
O436 O 0.21855 0.48786 0.79021 0.0
O437 O 0.2065 0.39213 0.90228 0.0
O438 O 0.15136 0.40835 0.80274 0.0
O439 O 0.26484 0.42712 0.81011 0.0
Sc440 Sc 0.62823 0.83262 0.92125 0.0
Sc441 Sc 0.6377 0.75422 0.95229 0.0
Sc442 Sc 0.70358 0.80384 0.94337 0.0
O443 O 0.65605 0.79704 0.93924 0.0
C444 C 0.68898 0.8405 0.87792 0.0
C445 C 0.59951 0.76843 0.88744 0.0
C446 C 0.70293 0.73592 0.91421 0.0
C447 C 0.5844 0.80538 0.97711 0.0
C448 C 0.67773 0.86792 0.97137 0.0
C449 C 0.69014 0.75748 0.00403 0.0
O450 O 0.65862 0.83813 0.87977 0.0
O451 O 0.61388 0.74959 0.90691 0.0
O452 O 0.71147 0.76511 0.9115 0.0
O453 O 0.59514 0.82886 0.96064 0.0
O454 O 0.69557 0.84324 0.97477 0.0
O455 O 0.6601 0.75583 0.99881 0.0
O456 O 0.65484 0.86927 0.95031 0.0
O457 O 0.59562 0.77676 0.97462 0.0
O458 O 0.70913 0.77154 0.98443 0.0
O459 O 0.59981 0.79915 0.89091 0.0
O460 O 0.70725 0.83542 0.90208 0.0
O461 O 0.67908 0.72716 0.93186 0.0
Sc462 Sc 0.19936 0.69143 0.05572 0.0
Sc463 Sc 0.1377 0.74941 0.05529 0.0
Sc464 Sc 0.12107 0.66965 0.08006 0.0
O465 O 0.15263 0.70347 0.06334 0.0
C466 C 0.16566 0.62768 0.03154 0.0
C467 C 0.18708 0.74054 0.99719 0.0
C468 C 0.08109 0.70574 0.02549 0.0
C469 C 0.20574 0.76027 0.08864 0.0
C470 C 0.18249 0.65757 0.12357 0.0
C471 C 0.09814 0.73245 0.11892 0.0
O472 O 0.18781 0.64863 0.02915 0.0
O473 O 0.1619 0.75267 0.00973 0.0
O474 O 0.08793 0.6803 0.04135 0.0
O475 O 0.21551 0.73214 0.08189 0.0
O476 O 0.15205 0.65778 0.1201 0.0
O477 O 0.11272 0.75185 0.10034 0.0
O478 O 0.20186 0.66584 0.10114 0.0
O479 O 0.17851 0.77131 0.0798 0.0
O480 O 0.09689 0.7023 0.11341 0.0
O481 O 0.2034 0.71822 0.01068 0.0
O482 O 0.14117 0.6315 0.04983 0.0
O483 O 0.09577 0.73241 0.02954 0.0
Sc484 Sc 0.296 0.30482 0.55393 0.0
Sc485 Sc 0.36018 0.25171 0.55867 0.0
Sc486 Sc 0.37151 0.33422 0.57373 0.0
O487 O 0.34285 0.29683 0.56184 0.0
C488 C 0.32436 0.36343 0.51879 0.0
C489 C 0.31052 0.24807 0.50287 0.0
C490 C 0.41409 0.29586 0.52409 0.0
C491 C 0.29235 0.24283 0.59508 0.0
C492 C 0.31084 0.35039 0.61423 0.0
C493 C 0.39801 0.27759 0.61952 0.0
O494 O 0.30692 0.33842 0.51684 0.0
O495 O 0.33947 0.24407 0.51191 0.0
O496 O 0.40344 0.32257 0.53485 0.0
O497 O 0.28413 0.27192 0.59076 0.0
O498 O 0.34115 0.34659 0.61361 0.0
O499 O 0.38209 0.25554 0.60541 0.0
O500 O 0.29284 0.34242 0.5905 0.0
O501 O 0.31748 0.23043 0.58206 0.0
O502 O 0.39986 0.30624 0.6084 0.0
O503 O 0.29125 0.26703 0.51754 0.0
O504 O 0.34576 0.36725 0.54084 0.0
O505 O 0.40335 0.26853 0.53356 0.0
Sc506 Sc 0.87713 0.16781 0.41788 0.0
Sc507 Sc 0.85371 0.24444 0.44448 0.0
Sc508 Sc 0.7983 0.18225 0.44197 0.0
O509 O 0.84331 0.19817 0.43491 0.0
C510 C 0.81887 0.14508 0.37734 0.0
C511 C 0.89195 0.23361 0.37949 0.0
C512 C 0.7835 0.24788 0.41116 0.0
C513 C 0.9153 0.2058 0.47155 0.0
C514 C 0.83643 0.12455 0.46915 0.0
C515 C 0.80585 0.2334 0.50005 0.0
O516 O 0.84783 0.15465 0.37747 0.0
O517 O 0.87408 0.25082 0.39752 0.0
O518 O 0.78077 0.21749 0.40967 0.0
O519 O 0.90858 0.17957 0.45716 0.0
O520 O 0.81489 0.14582 0.47404 0.0
O521 O 0.83428 0.24115 0.49211 0.0
O522 O 0.85852 0.12776 0.44764 0.0
O523 O 0.90008 0.23205 0.46613 0.0
O524 O 0.78857 0.21477 0.48266 0.0
O525 O 0.89832 0.20411 0.38578 0.0
O526 O 0.80011 0.14877 0.40149 0.0
O527 O 0.8072 0.26177 0.42529 0.0
H528 H 0.16309 0.42727 0.20973 0.0
H529 H 0.12401 0.39712 0.30183 0.0
H530 H 0.1647 0.42823 0.33011 0.0
H531 H 0.20913 0.46659 0.32941 0.0
H532 H 0.24885 0.4979 0.23817 0.0
H533 H 0.21074 0.46337 0.20919 0.0
C534 C 0.16355 0.42739 0.23596 0.0
C535 C 0.14008 0.40999 0.25341 0.0
C536 C 0.18728 0.44551 0.25243 0.0
C537 C 0.14143 0.41032 0.28751 0.0
C538 C 0.1648 0.42814 0.30387 0.0
C539 C 0.20981 0.46566 0.30318 0.0
C540 C 0.2318 0.48509 0.28613 0.0
C541 C 0.18754 0.44617 0.28664 0.0
C542 C 0.23231 0.48322 0.25208 0.0
C543 C 0.2103 0.46363 0.23542 0.0
H544 H 0.26382 0.50441 0.74608 0.0
H545 H 0.25923 0.55975 0.83433 0.0
H546 H 0.30242 0.59483 0.81499 0.0
H547 H 0.34516 0.60609 0.77581 0.0
H548 H 0.35164 0.54968 0.68819 0.0
H549 H 0.30427 0.51862 0.70454 0.0
C550 C 0.27158 0.52482 0.76054 0.0
C551 C 0.25814 0.52974 0.79145 0.0
C552 C 0.29737 0.54414 0.74978 0.0
C553 C 0.26902 0.55572 0.81035 0.0
C554 C 0.29394 0.57555 0.79944 0.0
C555 C 0.33628 0.58702 0.7602 0.0
C556 C 0.35238 0.57996 0.73102 0.0
C557 C 0.30902 0.56929 0.76971 0.0
C558 C 0.34 0.55551 0.71092 0.0
C559 C 0.31281 0.53776 0.72021 0.0
H560 H 0.67147 0.07168 0.78804 0.0
H561 H 0.62754 0.09262 0.69545 0.0
H562 H 0.67143 0.06582 0.66777 0.0
H563 H 0.71994 0.03301 0.66908 0.0
H564 H 0.76467 0.00984 0.76039 0.0
H565 H 0.72369 0.04165 0.78892 0.0
C566 C 0.67154 0.07041 0.76184 0.0
C567 C 0.64574 0.08401 0.74411 0.0
C568 C 0.69727 0.05478 0.74561 0.0
C569 C 0.64669 0.08237 0.71003 0.0
C570 C 0.67194 0.06704 0.69398 0.0
C571 C 0.72117 0.03533 0.69521 0.0
C572 C 0.74537 0.01884 0.71246 0.0
C573 C 0.69707 0.05279 0.71146 0.0
C574 C 0.74655 0.02243 0.74634 0.0
C575 C 0.72279 0.0403 0.76275 0.0
H576 H 0.82278 0.91645 0.28182 0.0
H577 H 0.88053 0.90979 0.19515 0.0
H578 H 0.83853 0.93672 0.16421 0.0
H579 H 0.78704 0.96497 0.16194 0.0
H580 H 0.7283 0.97246 0.2478 0.0
H581 H 0.7683 0.94153 0.27832 0.0
C582 C 0.82614 0.92104 0.25621 0.0
C583 C 0.85501 0.9114 0.24099 0.0
C584 C 0.80146 0.93627 0.23817 0.0
C585 C 0.85868 0.91699 0.20759 0.0
C586 C 0.8346 0.93234 0.18977 0.0
C587 C 0.78258 0.95937 0.18719 0.0
C588 C 0.75464 0.9713 0.20244 0.0
C589 C 0.80603 0.94231 0.20481 0.0
C590 C 0.74938 0.96349 0.2352 0.0
C591 C 0.77253 0.94614 0.25286 0.0
H592 H 0.24895 0.22705 0.4953 0.0
H593 H 0.34438 0.2188 0.45447 0.0
H594 H 0.32596 0.17554 0.41885 0.0
H595 H 0.28393 0.13729 0.40237 0.0
H596 H 0.18897 0.14424 0.44483 0.0
H597 H 0.20614 0.19058 0.47674 0.0
C598 C 0.26554 0.21628 0.47809 0.0
C599 C 0.29797 0.2262 0.4775 0.0
C600 C 0.25503 0.19074 0.45836 0.0
C601 C 0.31928 0.2116 0.45542 0.0
C602 C 0.30882 0.18674 0.43517 0.0
C603 C 0.26691 0.14893 0.41853 0.0
C604 C 0.23526 0.13693 0.42132 0.0
C605 C 0.27695 0.17557 0.437 0.0
C606 C 0.21356 0.15265 0.44227 0.0
C607 C 0.22331 0.17929 0.46052 0.0
H608 H 0.21683 0.84778 0.89614 0.0
H609 H 0.31224 0.83623 0.93647 0.0
H610 H 0.29429 0.78874 0.96634 0.0
H611 H 0.24991 0.75446 0.98591 0.0
H612 H 0.15418 0.76784 0.94731 0.0
H613 H 0.17405 0.80994 0.91114 0.0
C614 C 0.23379 0.83483 0.91133 0.0
C615 C 0.2657 0.84602 0.91448 0.0
C616 C 0.2233 0.80759 0.92854 0.0
C617 C 0.28745 0.82845 0.93381 0.0
C618 C 0.27722 0.8012 0.95088 0.0
C619 C 0.23367 0.76579 0.96874 0.0
C620 C 0.20065 0.75801 0.96918 0.0
C621 C 0.24502 0.79097 0.949 0.0
C622 C 0.17973 0.77336 0.94729 0.0
C623 C 0.19101 0.79768 0.92688 0.0
H624 H 0.74447 0.25604 0.50356 0.0
H625 H 0.83505 0.25464 0.55493 0.0
H626 H 0.81596 0.2973 0.59092 0.0
H627 H 0.77634 0.33939 0.60332 0.0
H628 H 0.68638 0.34241 0.5507 0.0
H629 H 0.70243 0.29488 0.51973 0.0
C630 C 0.75958 0.26435 0.52332 0.0
C631 C 0.79109 0.25216 0.52665 0.0
C632 C 0.74888 0.28978 0.54319 0.0
C633 C 0.81067 0.26361 0.55196 0.0
C634 C 0.79988 0.28821 0.57234 0.0
C635 C 0.76013 0.32961 0.5852 0.0
C636 C 0.73041 0.34488 0.57904 0.0
C637 C 0.76953 0.3023 0.56738 0.0
C638 C 0.70953 0.33141 0.55582 0.0
C639 C 0.71866 0.30415 0.53808 0.0
H640 H 0.71832 0.64737 0.10394 0.0
H641 H 0.80991 0.64826 0.05418 0.0
H642 H 0.79327 0.69579 0.0237 0.0
H643 H 0.75123 0.73423 0.008 0.0
H644 H 0.6591 0.73247 0.05664 0.0
H645 H 0.67784 0.68863 0.0913 0.0
C646 C 0.73469 0.65795 0.08646 0.0
C647 C 0.76514 0.64391 0.08105 0.0
C648 C 0.72501 0.68532 0.06901 0.0
C649 C 0.78623 0.65835 0.05869 0.0
C650 C 0.77678 0.68561 0.04127 0.0
C651 C 0.73549 0.72484 0.02671 0.0
C652 C 0.70375 0.73655 0.02961 0.0
C653 C 0.74606 0.699 0.04589 0.0
C654 C 0.68361 0.72384 0.05382 0.0
C655 C 0.69422 0.6986 0.0735 0.0
H656 H 0.39341 0.27446 0.14829 0.0
H657 H 0.44995 0.18706 0.14511 0.0
H658 H 0.47954 0.20428 0.19341 0.0
H659 H 0.49208 0.24622 0.23407 0.0
H660 H 0.43643 0.33412 0.23546 0.0
H661 H 0.40319 0.31424 0.19086 0.0
C662 C 0.41223 0.25909 0.15805 0.0
C663 C 0.41974 0.22969 0.14265 0.0
C664 C 0.42902 0.26908 0.18584 0.0
C665 C 0.4438 0.20993 0.1562 0.0
C666 C 0.46068 0.21973 0.18391 0.0
C667 C 0.47202 0.26056 0.22526 0.0
C668 C 0.4665 0.2915 0.23828 0.0
C669 C 0.45375 0.24944 0.19874 0.0
C670 C 0.44097 0.31015 0.22603 0.0
C671 C 0.42218 0.29892 0.20031 0.0
H672 H 0.89782 0.21422 0.84612 0.0
H673 H 0.93662 0.31033 0.83618 0.0
H674 H 0.96526 0.29399 0.78729 0.0
H675 H 0.98433 0.25088 0.75113 0.0
H676 H 0.94866 0.15416 0.76362 0.0
H677 H 0.91288 0.17247 0.80699 0.0
C678 C 0.91239 0.2317 0.83323 0.0
C679 C 0.91544 0.26333 0.84526 0.0
C680 C 0.92905 0.2221 0.80525 0.0
C681 C 0.9341 0.2857 0.82782 0.0
C682 C 0.95042 0.27643 0.79973 0.0
C683 C 0.96775 0.23415 0.76253 0.0
C684 C 0.96868 0.20136 0.75402 0.0
C685 C 0.94862 0.24453 0.7886 0.0
C686 C 0.94791 0.1796 0.76957 0.0
C687 C 0.92783 0.18999 0.79463 0.0
H688 H 0.54533 0.82092 0.27682 0.0
H689 H 0.51442 0.72881 0.23947 0.0
H690 H 0.54695 0.7012 0.28037 0.0
H691 H 0.57707 0.70372 0.332 0.0
H692 H 0.60419 0.79684 0.37045 0.0
H693 H 0.57974 0.82337 0.32426 0.0
C694 C 0.54624 0.79477 0.27713 0.0
C695 C 0.52704 0.777 0.25551 0.0
C696 C 0.56357 0.77917 0.30159 0.0
C697 C 0.52894 0.74314 0.25585 0.0
C698 C 0.54716 0.72732 0.27958 0.0
C699 C 0.57778 0.72979 0.33018 0.0
C700 C 0.59184 0.74818 0.35516 0.0
C701 C 0.56332 0.74515 0.30352 0.0
C702 C 0.59298 0.78197 0.35205 0.0
C703 C 0.57918 0.79726 0.32548 0.0
H704 H 0.06454 0.78684 0.66673 0.0
H705 H 0.08824 0.69467 0.62396 0.0
H706 H 0.06287 0.66694 0.66882 0.0
H707 H 0.03113 0.6681 0.71815 0.0
H708 H 0.00487 0.75915 0.76129 0.0
H709 H 0.03495 0.78778 0.71916 0.0
C710 C 0.06408 0.76071 0.66721 0.0
C711 C 0.07813 0.74305 0.6416 0.0
C712 C 0.04935 0.74455 0.69344 0.0
C713 C 0.07763 0.70911 0.64304 0.0
C714 C 0.06316 0.69308 0.66883 0.0
C715 C 0.03236 0.69422 0.71878 0.0
C716 C 0.01553 0.71134 0.74289 0.0
C717 C 0.04869 0.71049 0.69395 0.0
C718 C 0.01773 0.74521 0.74326 0.0
C719 C 0.03459 0.76165 0.71885 0.0
H720 H 0.85436 0.59332 0.7126 0.0
H721 H 0.83625 0.55829 0.80936 0.0
H722 H 0.78882 0.52935 0.79008 0.0
H723 H 0.75522 0.51022 0.74507 0.0
H724 H 0.77554 0.54222 0.64795 0.0
H725 H 0.81877 0.57693 0.66821 0.0
C726 C 0.84005 0.57945 0.72956 0.0
C727 C 0.84924 0.57772 0.76234 0.0
C728 C 0.8129 0.56264 0.7183 0.0
C729 C 0.83009 0.55981 0.78392 0.0
C730 C 0.80281 0.54334 0.77297 0.0
C731 C 0.76846 0.5256 0.72852 0.0
C732 C 0.76208 0.524 0.69515 0.0
C733 C 0.79425 0.54422 0.74015 0.0
C734 C 0.77993 0.54334 0.67379 0.0
C735 C 0.80483 0.56288 0.68532 0.0
H736 H 0.66713 0.42032 0.28908 0.0
H737 H 0.6191 0.40437 0.19755 0.0
H738 H 0.66259 0.43134 0.16929 0.0
H739 H 0.71175 0.46325 0.17032 0.0
H740 H 0.76041 0.48101 0.26088 0.0
H741 H 0.71989 0.44876 0.28938 0.0
C742 C 0.66623 0.42267 0.26296 0.0
C743 C 0.63945 0.41058 0.24569 0.0
C744 C 0.69163 0.43833 0.2465 0.0
C745 C 0.63909 0.41351 0.21172 0.0
C746 C 0.66407 0.42893 0.19537 0.0
C747 C 0.71389 0.45964 0.19625 0.0
C748 C 0.73899 0.47479 0.2134 0.0
C749 C 0.69013 0.44188 0.21252 0.0
C750 C 0.74148 0.46952 0.24696 0.0
C751 C 0.71804 0.4514 0.26335 0.0
H752 H 0.33306 0.92128 0.20717 0.0
H753 H 0.38399 0.90938 0.29783 0.0
H754 H 0.34096 0.93623 0.32646 0.0
H755 H 0.29029 0.96458 0.32656 0.0
H756 H 0.23896 0.98073 0.23711 0.0
H757 H 0.28012 0.95 0.20765 0.0
C758 C 0.33476 0.92475 0.23313 0.0
C759 C 0.36197 0.91322 0.25008 0.0
C760 C 0.30964 0.94061 0.24991 0.0
C761 C 0.36353 0.9178 0.28386 0.0
C762 C 0.3388 0.93314 0.30048 0.0
C763 C 0.2877 0.96121 0.30065 0.0
C764 C 0.2615 0.97512 0.28419 0.0
C765 C 0.31187 0.94468 0.28382 0.0
C766 C 0.25877 0.9702 0.25056 0.0
C767 C 0.28251 0.9529 0.23361 0.0
H768 H 0.2451 0.01819 0.75179 0.0
H769 H 0.22388 0.04456 0.85046 0.0
H770 H 0.18127 0.08092 0.83192 0.0
H771 H 0.14589 0.09996 0.78829 0.0
H772 H 0.16513 0.0709 0.68974 0.0
H773 H 0.21242 0.04085 0.70762 0.0
C774 C 0.23183 0.0327 0.76912 0.0
C775 C 0.23774 0.02888 0.80242 0.0
C776 C 0.20641 0.05247 0.75836 0.0
C777 C 0.21985 0.04726 0.82469 0.0
C778 C 0.19529 0.0678 0.81411 0.0
C779 C 0.1605 0.08726 0.77063 0.0
C780 C 0.15151 0.08742 0.73774 0.0
C781 C 0.18758 0.06968 0.7811 0.0
C782 C 0.17108 0.07098 0.71527 0.0
C783 C 0.19828 0.05382 0.72545 0.0
H784 H 0.72022 0.84771 0.6049 0.0
H785 H 0.81196 0.83983 0.55603 0.0
H786 H 0.79426 0.79001 0.53004 0.0
H787 H 0.75092 0.75178 0.51701 0.0
H788 H 0.65821 0.76167 0.56307 0.0
H789 H 0.67851 0.80681 0.59536 0.0
C790 C 0.73641 0.83514 0.58859 0.0
C791 C 0.76723 0.84794 0.58206 0.0
C792 C 0.7261 0.80644 0.57371 0.0
C793 C 0.788 0.83085 0.56128 0.0
C794 C 0.77796 0.80221 0.54651 0.0
C795 C 0.7356 0.76296 0.53512 0.0
C796 C 0.70327 0.75307 0.53811 0.0
C797 C 0.74691 0.79003 0.55218 0.0
C798 C 0.68333 0.76851 0.56082 0.0
C799 C 0.69479 0.79465 0.57885 0.0
H800 H 0.75171 0.24462 0.01543 0.0
H801 H 0.8491 0.22039 0.04308 0.0
H802 H 0.82896 0.17779 0.07851 0.0
H803 H 0.78437 0.14321 0.096 0.0
H804 H 0.68708 0.1658 0.06607 0.0
H805 H 0.70655 0.21312 0.03713 0.0
C806 C 0.76845 0.23069 0.03 0.0
C807 C 0.80183 0.23562 0.02664 0.0
C808 C 0.75678 0.20537 0.04928 0.0
C809 C 0.82328 0.21702 0.04527 0.0
C810 C 0.8118 0.19248 0.0653 0.0
C811 C 0.76734 0.15852 0.0833 0.0
C812 C 0.73435 0.15051 0.08282 0.0
C813 C 0.7787 0.18564 0.06648 0.0
C814 C 0.71266 0.17105 0.06661 0.0
C815 C 0.72375 0.19823 0.05008 0.0
H816 H 0.24981 0.72938 0.50667 0.0
H817 H 0.16928 0.7456 0.44257 0.0
H818 H 0.18869 0.70318 0.40647 0.0
H819 H 0.22498 0.6577 0.39613 0.0
H820 H 0.30522 0.64014 0.46029 0.0
H821 H 0.28947 0.68661 0.49332 0.0
C822 C 0.23715 0.72434 0.48424 0.0
C823 C 0.20824 0.74084 0.47719 0.0
C824 C 0.24793 0.69906 0.46402 0.0
C825 C 0.19168 0.73343 0.44843 0.0
C826 C 0.20259 0.70894 0.42794 0.0
C827 C 0.23913 0.66403 0.41729 0.0
C828 C 0.26598 0.64503 0.42594 0.0
C829 C 0.23004 0.69087 0.43605 0.0
C830 C 0.28433 0.65412 0.45313 0.0
C831 C 0.27534 0.68076 0.47203 0.0
H832 H 0.32471 0.27962 0.96148 0.0
H833 H 0.2334 0.24783 4e-05 0.0
H834 H 0.20546 0.28928 0.96862 0.0
H835 H 0.20755 0.3379 0.93375 0.0
H836 H 0.29978 0.36917 0.89653 0.0
H837 H 0.32643 0.32488 0.92402 0.0
C838 C 0.29863 0.28134 0.96274 0.0
C839 C 0.28133 0.26063 0.98338 0.0
C840 C 0.28278 0.30563 0.94517 0.0
C841 C 0.24747 0.26328 0.98435 0.0
C842 C 0.23145 0.28724 0.96659 0.0
C843 C 0.23345 0.33498 0.93157 0.0
C844 C 0.25149 0.3573 0.91327 0.0
C845 C 0.24894 0.30915 0.94755 0.0
C846 C 0.28507 0.35271 0.91051 0.0
C847 C 0.30048 0.32726 0.92623 0.0
H848 H 0.53089 0.67704 0.78635 0.0
H849 H 0.49195 0.76731 0.75219 0.0
H850 H 0.52408 0.79655 0.79226 0.0
H851 H 0.56102 0.79614 0.83986 0.0
H852 H 0.59866 0.70455 0.8728 0.0
H853 H 0.56935 0.67675 0.83072 0.0
C854 C 0.5296 0.70315 0.78734 0.0
C855 C 0.50883 0.71977 0.76624 0.0
C856 C 0.54778 0.71981 0.81067 0.0
C857 C 0.50776 0.75371 0.76798 0.0
C858 C 0.52601 0.77052 0.7911 0.0
C859 C 0.56289 0.77015 0.83774 0.0
C860 C 0.5819 0.75274 0.86005 0.0
C861 C 0.54573 0.75378 0.81307 0.0
C862 C 0.58409 0.71894 0.85652 0.0
C863 C 0.56733 0.70277 0.83226 0.0
H864 H 0.04072 0.81549 0.23249 0.0
H865 H 0.98788 0.72785 0.25076 0.0
H866 H 0.0187 0.70023 0.20837 0.0
H867 H 0.05644 0.70313 0.16175 0.0
H868 H 0.10633 0.79273 0.14317 0.0
H869 H 0.08059 0.8173 0.18966 0.0
C870 C 0.03626 0.79016 0.22764 0.0
C871 C 0.01188 0.77387 0.24462 0.0
C872 C 0.05311 0.77489 0.20259 0.0
C873 C 0.00667 0.74096 0.2382 0.0
C874 C 0.02401 0.72526 0.21366 0.0
C875 C 0.06179 0.72795 0.168 0.0
C876 C 0.08293 0.7461 0.14846 0.0
C877 C 0.04657 0.74232 0.19493 0.0
C878 C 0.08977 0.7782 0.15722 0.0
C879 C 0.07519 0.79235 0.18401 0.0
H880 H 0.49129 0.25325 0.73823 0.0
H881 H 0.44247 0.16158 0.73616 0.0
H882 H 0.40538 0.18174 0.6948 0.0
H883 H 0.39187 0.22249 0.65445 0.0
H884 H 0.44291 0.31318 0.65326 0.0
H885 H 0.47415 0.29638 0.70064 0.0
C886 C 0.47174 0.23818 0.72953 0.0
C887 C 0.46922 0.20614 0.74047 0.0
C888 C 0.45155 0.24945 0.70455 0.0
C889 C 0.44449 0.18644 0.72835 0.0
C890 C 0.42358 0.19785 0.70445 0.0
C891 C 0.40968 0.23878 0.66456 0.0
C892 C 0.41537 0.26889 0.64982 0.0
C893 C 0.42775 0.22883 0.6915 0.0
C894 C 0.4382 0.28976 0.6638 0.0
C895 C 0.45607 0.28016 0.69095 0.0
H896 H 0.92061 0.20545 0.32622 0.0
H897 H 0.89407 0.29782 0.36683 0.0
H898 H 0.91789 0.32526 0.32095 0.0
H899 H 0.95134 0.32389 0.27265 0.0
H900 H 0.98036 0.23272 0.23187 0.0
H901 H 0.94944 0.20414 0.27343 0.0
C902 C 0.92 0.23155 0.32496 0.0
C903 C 0.90598 0.24941 0.3504 0.0
C904 C 0.93381 0.24752 0.29817 0.0
C905 C 0.90488 0.28327 0.34794 0.0
C906 C 0.91843 0.29913 0.32157 0.0
C907 C 0.95012 0.29775 0.27227 0.0
C908 C 0.96823 0.2805 0.24931 0.0
C909 C 0.93351 0.28158 0.29694 0.0
C910 C 0.96634 0.24664 0.24904 0.0
C911 C 0.94915 0.23027 0.27322 0.0
H912 H 0.14903 0.17146 0.34194 0.0
H913 H 0.09343 0.11143 0.27723 0.0
H914 H 0.06837 0.15909 0.25367 0.0
H915 H 0.06555 0.21674 0.24841 0.0
H916 H 0.12313 0.27876 0.30921 0.0
H917 H 0.1439 0.23111 0.33813 0.0
C918 C 0.13106 0.16897 0.32301 0.0
C919 C 0.12308 0.13816 0.31109 0.0
C920 C 0.11745 0.19659 0.30889 0.0
C921 C 0.10005 0.13498 0.28646 0.0
C922 C 0.08575 0.16215 0.27304 0.0
C923 C 0.08279 0.22002 0.26793 0.0
C924 C 0.09351 0.25109 0.2762 0.0
C925 C 0.09491 0.19292 0.28353 0.0
C926 C 0.11486 0.25498 0.30226 0.0
C927 C 0.12675 0.22779 0.31861 0.0
H928 H 0.37535 0.82856 0.83648 0.0
H929 H 0.32972 0.86106 0.74815 0.0
H930 H 0.33387 0.80712 0.72561 0.0
H931 H 0.35271 0.75213 0.72953 0.0
H932 H 0.4039 0.7201 0.81472 0.0
H933 H 0.39318 0.772 0.8409 0.0
C934 C 0.36656 0.82391 0.8122 0.0
C935 C 0.35274 0.84901 0.79386 0.0
C936 C 0.36911 0.79277 0.79923 0.0
C937 C 0.34114 0.84245 0.76257 0.0
C938 C 0.34305 0.81149 0.7498 0.0
C939 C 0.36121 0.75621 0.75405 0.0
C940 C 0.37956 0.73247 0.76993 0.0
C941 C 0.35716 0.78663 0.76783 0.0
C942 C 0.3897 0.73794 0.80193 0.0
C943 C 0.38411 0.76783 0.81665 0.0
H944 H 0.62023 0.32888 0.65163 0.0
H945 H 0.65445 0.36405 0.74411 0.0
H946 H 0.64481 0.31171 0.76819 0.0
H947 H 0.62495 0.25733 0.76416 0.0
H948 H 0.58507 0.222 0.67443 0.0
H949 H 0.60043 0.27258 0.64753 0.0
C950 C 0.62533 0.32513 0.6771 0.0
C951 C 0.63767 0.3506 0.69607 0.0
C952 C 0.61949 0.29482 0.69106 0.0
C953 C 0.64442 0.34521 0.72898 0.0
C954 C 0.63928 0.31514 0.74276 0.0
C955 C 0.6198 0.26048 0.73857 0.0
C956 C 0.60356 0.2362 0.72135 0.0
C957 C 0.62671 0.28996 0.7241 0.0
C958 C 0.59771 0.24033 0.68814 0.0
C959 C 0.60599 0.26941 0.67297 0.0
H960 H 0.8277 0.65536 0.22039 0.0
H961 H 0.90965 0.64446 0.15721 0.0
H962 H 0.92759 0.69927 0.17053 0.0
H963 H 0.92123 0.74893 0.2029 0.0
H964 H 0.83834 0.75936 0.26508 0.0
H965 H 0.81862 0.70646 0.2484 0.0
C966 C 0.84967 0.66495 0.20985 0.0
C967 C 0.86794 0.64589 0.18868 0.0
C968 C 0.85909 0.69658 0.21676 0.0
C969 C 0.89568 0.65874 0.17412 0.0
C970 C 0.90571 0.69006 0.18149 0.0
C971 C 0.89829 0.74003 0.21182 0.0
C972 C 0.8811 0.75788 0.23498 0.0
C973 C 0.88765 0.70916 0.2029 0.0
C974 C 0.85177 0.74595 0.24703 0.0
C975 C 0.84074 0.7156 0.23786 0.0
H976 H 0.29932 0.0737 0.25754 0.0
H977 H 0.22881 0.14947 0.26735 0.0
H978 H 0.24585 0.17277 0.21588 0.0
H979 H 0.27617 0.16785 0.16524 0.0
H980 H 0.34717 0.09262 0.15472 0.0
H981 H 0.33435 0.07245 0.209 0.0
C982 C 0.28869 0.09602 0.24894 0.0
C983 C 0.26314 0.11013 0.26623 0.0
C984 C 0.29787 0.10864 0.21868 0.0
C985 C 0.24882 0.13853 0.25452 0.0
C986 C 0.25822 0.15156 0.22489 0.0
C987 C 0.2887 0.14694 0.17483 0.0
C988 C 0.31192 0.13116 0.15583 0.0
C989 C 0.28177 0.13606 0.2062 0.0
C990 C 0.3288 0.10478 0.16882 0.0
C991 C 0.32162 0.0934 0.19988 0.0
H992 H 0.18845 0.92337 0.75716 0.0
H993 H 0.26124 0.85064 0.77149 0.0
H994 H 0.2451 0.82373 0.72142 0.0
H995 H 0.2142 0.82435 0.67053 0.0
H996 H 0.14013 0.89591 0.6565 0.0
H997 H 0.15286 0.92008 0.70911 0.0
C998 C 0.19971 0.90088 0.74991 0.0
C999 C 0.22543 0.88849 0.76818 0.0
C1000 C 0.19078 0.88598 0.7206 0.0
C1001 C 0.24078 0.86001 0.7581 0.0
C1002 C 0.23195 0.84496 0.72921 0.0
C1003 C 0.20096 0.84526 0.67907 0.0
C1004 C 0.17684 0.85886 0.65953 0.0
C1005 C 0.20776 0.85838 0.7097 0.0
C1006 C 0.15914 0.88538 0.67109 0.0
C1007 C 0.16628 0.89907 0.70119 0.0
H1008 H 0.72592 0.37532 0.7578 0.0
H1009 H 0.81745 0.40068 0.71532 0.0
H1010 H 0.84513 0.38367 0.76516 0.0
H1011 H 0.84219 0.36619 0.82266 0.0
H1012 H 0.74885 0.34524 0.8644 0.0
H1013 H 0.72298 0.35701 0.81315 0.0
C1014 C 0.75202 0.37693 0.75921 0.0
C1015 C 0.76959 0.38955 0.73301 0.0
C1016 C 0.76734 0.3687 0.78815 0.0
C1017 C 0.80338 0.39088 0.73507 0.0
C1018 C 0.81911 0.3816 0.76374 0.0
C1019 C 0.81618 0.3644 0.8206 0.0
C1020 C 0.79757 0.3552 0.84769 0.0
C1021 C 0.80118 0.37139 0.7908 0.0
C1022 C 0.76389 0.35265 0.84432 0.0
C1023 C 0.749 0.35913 0.81487 0.0
H1024 H 0.77577 0.63058 0.25689 0.0
H1025 H 0.6838 0.59874 0.22 0.0
H1026 H 0.65735 0.61813 0.26949 0.0
H1027 H 0.66197 0.63751 0.32575 0.0
H1028 H 0.75545 0.66516 0.36307 0.0
H1029 H 0.7799 0.65308 0.31094 0.0
C1030 C 0.74981 0.6283 0.25943 0.0
C1031 C 0.73176 0.61287 0.23512 0.0
C1032 C 0.73527 0.63786 0.28835 0.0
C1033 C 0.69815 0.61063 0.23838 0.0
C1034 C 0.68316 0.62125 0.26685 0.0
C1035 C 0.68771 0.64091 0.32254 0.0
C1036 C 0.70691 0.65172 0.34859 0.0
C1037 C 0.70174 0.63369 0.29249 0.0
C1038 C 0.74013 0.65639 0.34373 0.0
C1039 C 0.75414 0.64971 0.31384 0.0
H1040 H 0.2563 0.23931 0.14928 0.0
H1041 H 0.27847 0.31645 0.08306 0.0
H1042 H 0.22734 0.34305 0.09682 0.0
H1043 H 0.17261 0.33945 0.12141 0.0
H1044 H 0.14965 0.25721 0.18125 0.0
H1045 H 0.20425 0.23693 0.17527 0.0
C1046 C 0.2503 0.26233 0.1383 0.0
C1047 C 0.27092 0.27568 0.1149 0.0
C1048 C 0.22006 0.2759 0.14426 0.0
C1049 C 0.26309 0.30573 0.10129 0.0
C1050 C 0.23355 0.32058 0.10868 0.0
C1051 C 0.17966 0.3171 0.13306 0.0
C1052 C 0.15685 0.29952 0.15116 0.0
C1053 C 0.21117 0.30504 0.12894 0.0
C1054 C 0.16639 0.27078 0.16645 0.0
C1055 C 0.19775 0.25933 0.16341 0.0
H1056 H 0.74489 0.26465 0.86918 0.0
H1057 H 0.78073 0.17517 0.90824 0.0
H1058 H 0.7312 0.14767 0.89034 0.0
H1059 H 0.67505 0.1511 0.86869 0.0
H1060 H 0.63974 0.24331 0.83487 0.0
H1061 H 0.69139 0.26783 0.8466 0.0
C1062 C 0.74212 0.23897 0.8735 0.0
C1063 C 0.76626 0.22201 0.89025 0.0
C1064 C 0.71322 0.22404 0.86489 0.0
C1065 C 0.76256 0.18871 0.89518 0.0
C1066 C 0.73404 0.17316 0.8854 0.0
C1067 C 0.67868 0.17656 0.86401 0.0
C1068 C 0.65318 0.19535 0.8514 0.0
C1069 C 0.7087 0.19089 0.87121 0.0
C1070 C 0.65849 0.22827 0.84517 0.0
C1071 C 0.6882 0.24236 0.85156 0.0
H1072 H 0.77023 0.76636 0.44749 0.0
H1073 H 0.70524 0.80833 0.37776 0.0
H1074 H 0.75079 0.83635 0.35196 0.0
H1075 H 0.81005 0.84143 0.34474 0.0
H1076 H 0.87384 0.79321 0.41168 0.0
H1077 H 0.82773 0.77475 0.44321 0.0
C1078 C 0.76598 0.782 0.42684 0.0
C1079 C 0.7348 0.78491 0.41398 0.0
C1080 C 0.79212 0.79636 0.41148 0.0
C1081 C 0.72922 0.80576 0.38787 0.0
C1082 C 0.75525 0.82141 0.373 0.0
C1083 C 0.81367 0.82729 0.36652 0.0
C1084 C 0.84503 0.81824 0.37586 0.0
C1085 C 0.78696 0.81574 0.38383 0.0
C1086 C 0.84976 0.79992 0.40395 0.0
C1087 C 0.8235 0.7895 0.42197 0.0
H1088 H 0.31848 0.65213 0.64007 0.0
H1089 H 0.37142 0.73402 0.60342 0.0
H1090 H 0.32187 0.75684 0.58163 0.0
H1091 H 0.26363 0.75648 0.57783 0.0
H1092 H 0.20861 0.67698 0.61578 0.0
H1093 H 0.25905 0.64973 0.63188 0.0
C1094 C 0.31917 0.67468 0.62682 0.0
C1095 C 0.34852 0.69158 0.62363 0.0
C1096 C 0.29032 0.68811 0.61494 0.0
C1097 C 0.34911 0.72079 0.60652 0.0
C1098 C 0.32081 0.73385 0.59406 0.0
C1099 C 0.26267 0.73307 0.58956 0.0
C1100 C 0.23268 0.71895 0.5964 0.0
C1101 C 0.29132 0.7182 0.59899 0.0
C1102 C 0.23156 0.68831 0.61064 0.0
C1103 C 0.26033 0.67292 0.6199 0.0
H1104 H 0.82852 0.83348 0.71737 0.0
H1105 H 0.91127 0.8444 0.65528 0.0
H1106 H 0.92833 0.78911 0.66752 0.0
H1107 H 0.92171 0.73932 0.69955 0.0
H1108 H 0.8387 0.72887 0.76127 0.0
H1109 H 0.81878 0.78176 0.74446 0.0
C1110 C 0.85043 0.82375 0.7068 0.0
C1111 C 0.86923 0.84305 0.68631 0.0
C1112 C 0.85944 0.79178 0.71314 0.0
C1113 C 0.8969 0.83 0.67171 0.0
C1114 C 0.90644 0.79838 0.67844 0.0
C1115 C 0.89855 0.74811 0.70807 0.0
C1116 C 0.8813 0.73021 0.73108 0.0
C1117 C 0.88802 0.77911 0.69932 0.0
C1118 C 0.8519 0.74213 0.74299 0.0
C1119 C 0.84087 0.77257 0.73387 0.0
H1120 H 0.61176 0.16816 0.15569 0.0
H1121 H 0.66141 0.14082 0.2436 0.0
H1122 H 0.65037 0.19339 0.26681 0.0
H1123 H 0.62509 0.24562 0.26369 0.0
H1124 H 0.56995 0.27275 0.1794 0.0
H1125 H 0.58617 0.22237 0.15248 0.0
C1126 C 0.62001 0.17369 0.17997 0.0
C1127 C 0.63709 0.1503 0.19797 0.0
C1128 C 0.61323 0.20412 0.19353 0.0
C1129 C 0.64778 0.15799 0.22933 0.0
C1130 C 0.64178 0.18822 0.24257 0.0
C1131 C 0.61675 0.24078 0.23925 0.0
C1132 C 0.5961 0.26278 0.22367 0.0
C1133 C 0.6244 0.21126 0.225 0.0
C1134 C 0.58606 0.25634 0.19184 0.0
C1135 C 0.59491 0.2273 0.1767 0.0
H1136 H 0.43508 0.74509 0.30594 0.0
H1137 H 0.34449 0.77847 0.26752 0.0
H1138 H 0.31845 0.72811 0.28375 0.0
H1139 H 0.32394 0.67163 0.301 0.0
H1140 H 0.41468 0.63773 0.33877 0.0
H1141 H 0.43881 0.691 0.32995 0.0
C1142 C 0.40929 0.74183 0.30273 0.0
C1143 C 0.3914 0.76534 0.28629 0.0
C1144 C 0.39509 0.71223 0.31051 0.0
C1145 C 0.35831 0.76081 0.28102 0.0
C1146 C 0.34368 0.73178 0.28958 0.0
C1147 C 0.34904 0.67606 0.30704 0.0
C1148 C 0.36807 0.65099 0.31931 0.0
C1149 C 0.36227 0.70679 0.30279 0.0
C1150 C 0.40011 0.65681 0.3284 0.0
C1151 C 0.41369 0.68722 0.32372 0.0
H1152 H 0.07333 0.27797 0.74401 0.0
H1153 H 0.12453 0.2144 0.80893 0.0
H1154 H 0.14699 0.26167 0.83724 0.0
H1155 H 0.15427 0.32131 0.84072 0.0
H1156 H 0.10408 0.38241 0.77256 0.0
H1157 H 0.07907 0.33537 0.74802 0.0
C1158 C 0.08956 0.27409 0.76426 0.0
C1159 C 0.09772 0.24255 0.77395 0.0
C1160 C 0.10258 0.30097 0.77969 0.0
C1161 C 0.11804 0.23837 0.80084 0.0
C1162 C 0.13091 0.26539 0.81689 0.0
C1163 C 0.1376 0.32424 0.8207 0.0
C1164 C 0.13112 0.35532 0.80834 0.0
C1165 C 0.12368 0.29684 0.80616 0.0
C1166 C 0.10968 0.35881 0.7823 0.0
C1167 C 0.09533 0.33194 0.76829 0.0
H1168 H 0.66012 0.86403 0.8231 0.0
H1169 H 0.75153 0.83105 0.86118 0.0
H1170 H 0.77704 0.84092 0.80925 0.0
H1171 H 0.7748 0.86272 0.75504 0.0
H1172 H 0.68562 0.90076 0.7171 0.0
H1173 H 0.6574 0.88357 0.76642 0.0
C1174 C 0.68561 0.85904 0.81999 0.0
C1175 C 0.704 0.84742 0.84625 0.0
C1176 C 0.70038 0.86515 0.78998 0.0
C1177 C 0.73693 0.8407 0.8417 0.0
C1178 C 0.75152 0.84602 0.8119 0.0
C1179 C 0.74904 0.86689 0.75731 0.0
C1180 C 0.73237 0.88336 0.73272 0.0
C1181 C 0.73363 0.85873 0.78616 0.0
C1182 C 0.69895 0.88802 0.73568 0.0
C1183 C 0.68297 0.87865 0.76407 0.0
H1184 H 0.74545 0.06885 0.26985 0.0
H1185 H 0.80419 0.12715 0.2066 0.0
H1186 H 0.83231 0.14947 0.25427 0.0
H1187 H 0.83651 0.15501 0.31438 0.0
H1188 H 0.77324 0.09871 0.37516 0.0
H1189 H 0.74999 0.07317 0.32752 0.0
C1190 C 0.76428 0.08664 0.26617 0.0
C1191 C 0.77222 0.09691 0.23467 0.0
C1192 C 0.77924 0.0998 0.29327 0.0
C1193 C 0.79747 0.11905 0.23058 0.0
C1194 C 0.81334 0.13188 0.25782 0.0
C1195 C 0.81782 0.13693 0.31705 0.0
C1196 C 0.80644 0.12877 0.34821 0.0
C1197 C 0.8039 0.12286 0.28935 0.0
C1198 C 0.78212 0.10555 0.35147 0.0
C1199 C 0.76891 0.0909 0.32428 0.0
H1200 H 0.15394 0.6275 0.17551 0.0
H1201 H 0.24144 0.67556 0.14547 0.0
H1202 H 0.26393 0.66908 0.19926 0.0
H1203 H 0.261 0.64659 0.25308 0.0
H1204 H 0.17726 0.59258 0.28286 0.0
H1205 H 0.15035 0.60617 0.23169 0.0
C1206 C 0.17797 0.63641 0.18076 0.0
C1207 C 0.19615 0.65145 0.15617 0.0
C1208 C 0.19118 0.63215 0.21191 0.0
C1209 C 0.22712 0.6632 0.16353 0.0
C1210 C 0.23993 0.65986 0.19446 0.0
C1211 C 0.2366 0.63815 0.24871 0.0
C1212 C 0.22133 0.61828 0.27164 0.0
C1213 C 0.2224 0.64402 0.21861 0.0
C1214 C 0.18954 0.60806 0.26574 0.0
C1215 C 0.1744 0.61534 0.23621 0.0
H1216 H 0.22474 0.3839 0.73423 0.0
H1217 H 0.31631 0.41259 0.77501 0.0
H1218 H 0.34346 0.39557 0.72495 0.0
H1219 H 0.34022 0.37495 0.66851 0.0
H1220 H 0.24687 0.35076 0.62853 0.0
H1221 H 0.22128 0.36479 0.67942 0.0
C1222 C 0.25072 0.38648 0.73255 0.0
C1223 C 0.2684 0.3997 0.75852 0.0
C1224 C 0.26575 0.37808 0.70354 0.0
C1225 C 0.30207 0.40237 0.75557 0.0
C1226 C 0.31752 0.39294 0.72681 0.0
C1227 C 0.31425 0.37299 0.67086 0.0
C1228 C 0.29553 0.36197 0.64449 0.0
C1229 C 0.29946 0.3813 0.7004 0.0
C1230 C 0.26192 0.35947 0.6481 0.0
C1231 C 0.24723 0.36723 0.67734 0.0
H1232 H 0.82564 0.65075 0.89482 0.0
H1233 H 0.84243 0.72623 0.8249 0.0
H1234 H 0.78747 0.74541 0.83149 0.0
H1235 H 0.73701 0.7445 0.86036 0.0
H1236 H 0.72157 0.67626 0.93739 0.0
H1237 H 0.77258 0.64917 0.92365 0.0
C1238 C 0.81712 0.67142 0.88122 0.0
C1239 C 0.83821 0.68749 0.8599 0.0
C1240 C 0.78551 0.68312 0.88592 0.0
C1241 C 0.82693 0.71401 0.84207 0.0
C1242 C 0.79538 0.72476 0.8455 0.0
C1243 C 0.74444 0.72321 0.87374 0.0
C1244 C 0.72574 0.71252 0.89996 0.0
C1245 C 0.77476 0.70991 0.86773 0.0
C1246 C 0.7354 0.68476 0.91687 0.0
C1247 C 0.7649 0.66975 0.90944 0.0
H1248 H 0.23982 0.74126 0.13934 0.0
H1249 H 0.22378 0.82285 0.07696 0.0
H1250 H 0.27427 0.84748 0.09606 0.0
H1251 H 0.32685 0.84088 0.12404 0.0
H1252 H 0.34324 0.75556 0.18188 0.0
H1253 H 0.289 0.7369 0.17046 0.0
C1254 C 0.24703 0.76487 0.1306 0.0
C1255 C 0.22859 0.78024 0.10676 0.0
C1256 C 0.27663 0.7776 0.14007 0.0
C1257 C 0.23769 0.81083 0.09559 0.0
C1258 C 0.26677 0.82454 0.10608 0.0
C1259 C 0.31843 0.8183 0.1342 0.0
C1260 C 0.33934 0.79926 0.15308 0.0
C1261 C 0.28715 0.80734 0.12715 0.0
C1262 C 0.328 0.77026 0.1665 0.0
C1263 C 0.29685 0.75969 0.16031 0.0
H1264 H 0.25035 0.26309 0.63968 0.0
H1265 H 0.27839 0.17847 0.58586 0.0
H1266 H 0.22692 0.15265 0.59974 0.0
H1267 H 0.17114 0.1577 0.62096 0.0
H1268 H 0.14259 0.24626 0.66831 0.0
H1269 H 0.19665 0.26759 0.66174 0.0
C1270 C 0.24549 0.23871 0.63142 0.0
C1271 C 0.26793 0.22282 0.61149 0.0
C1272 C 0.21522 0.2253 0.63722 0.0
C1273 C 0.26158 0.19111 0.60142 0.0
C1274 C 0.2319 0.17666 0.6088 0.0
C1275 C 0.17674 0.18171 0.62968 0.0
C1276 C 0.15259 0.20051 0.64464 0.0
C1277 C 0.208 0.19416 0.62547 0.0
C1278 C 0.16037 0.23148 0.65609 0.0
C1279 C 0.19143 0.24359 0.65274 0.0
H1280 H 0.67366 0.3405 0.35893 0.0
H1281 H 0.6196 0.25191 0.36931 0.0
H1282 H 0.66735 0.22474 0.3894 0.0
H1283 H 0.72369 0.22524 0.40271 0.0
H1284 H 0.77976 0.31246 0.39409 0.0
H1285 H 0.73155 0.34125 0.3746 0.0
C1286 C 0.67229 0.31531 0.36578 0.0
C1287 C 0.64299 0.29828 0.36242 0.0
C1288 C 0.70007 0.29959 0.37737 0.0
C1289 C 0.6417 0.26566 0.37148 0.0
C1290 C 0.66904 0.25002 0.38294 0.0
C1291 C 0.72574 0.25053 0.39633 0.0
C1292 C 0.75549 0.26656 0.39926 0.0
C1293 C 0.69827 0.26664 0.38563 0.0
C1294 C 0.75721 0.29952 0.39174 0.0
C1295 C 0.72967 0.31591 0.38066 0.0
H1296 H 0.00788 0.2772 0.09302 0.0
H1297 H 0.01613 0.38037 0.08219 0.0
H1298 H 0.98273 0.37803 0.03333 0.0
H1299 H 0.94896 0.34692 0.99527 0.0
H1300 H 0.9411 0.24368 0.00685 0.0
H1301 H 0.97678 0.24597 0.05366 0.0
C1302 C 0.0025 0.29927 0.08002 0.0
C1303 C 0.01439 0.329 0.09157 0.0
C1304 C 0.98331 0.29774 0.05199 0.0
C1305 C 0.00737 0.35717 0.07399 0.0
C1306 C 0.98818 0.35584 0.04605 0.0
C1307 C 0.95527 0.32481 0.00776 0.0
C1308 C 0.94206 0.29514 0.99737 0.0
C1309 C 0.97572 0.32628 0.035 0.0
C1310 C 0.9507 0.26687 0.01409 0.0
C1311 C 0.97108 0.26815 0.04102 0.0
H1312 H 0.57586 0.72982 0.5321 0.0
H1313 H 0.53533 0.65441 0.47266 0.0
H1314 H 0.49763 0.64045 0.51589 0.0
H1315 H 0.47737 0.64868 0.57136 0.0
H1316 H 0.5198 0.72338 0.63065 0.0
H1317 H 0.55566 0.73825 0.58675 0.0
C1318 C 0.55848 0.71064 0.52835 0.0
C1319 C 0.55832 0.69332 0.49915 0.0
C1320 C 0.53745 0.70226 0.55348 0.0
C1321 C 0.53594 0.66818 0.49494 0.0
C1322 C 0.51446 0.66008 0.51969 0.0
C1323 C 0.49456 0.66809 0.57472 0.0
C1324 C 0.49577 0.68479 0.60434 0.0
C1325 C 0.51529 0.67669 0.54925 0.0
C1326 C 0.51816 0.71004 0.60817 0.0
C1327 C 0.53872 0.7187 0.58302 0.0
H1328 H 0.44406 0.1462 0.99546 0.0
H1329 H 0.42737 0.24723 0.97617 0.0
H1330 H 0.46324 0.24439 0.92948 0.0
H1331 H 0.49798 0.21323 0.89329 0.0
H1332 H 0.51551 0.11236 0.91226 0.0
H1333 H 0.48064 0.11528 0.96004 0.0
C1334 C 0.44831 0.16769 0.98118 0.0
C1335 C 0.43278 0.19692 0.98945 0.0
C1336 C 0.46903 0.16591 0.95423 0.0
C1337 C 0.43887 0.22444 0.97058 0.0
C1338 C 0.45936 0.22282 0.94375 0.0
C1339 C 0.49424 0.19176 0.90778 0.0
C1340 C 0.50927 0.1625 0.89891 0.0
C1341 C 0.47432 0.19365 0.93521 0.0
C1342 C 0.50432 0.13517 0.91839 0.0
C1343 C 0.48432 0.13683 0.94571 0.0
H1344 H 0.04592 0.84366 0.50062 0.0
H1345 H 0.06057 0.74276 0.47885 0.0
H1346 H 0.0268 0.74799 0.43081 0.0
H1347 H 0.99485 0.7812 0.39407 0.0
H1348 H 0.97936 0.88197 0.4153 0.0
H1349 H 0.01194 0.87669 0.46454 0.0
C1350 C 0.04155 0.82268 0.48558 0.0
C1351 C 0.05597 0.79281 0.4935 0.0
C1352 C 0.02222 0.82588 0.45774 0.0
C1353 C 0.04989 0.76601 0.47355 0.0
C1354 C 0.03065 0.769 0.44593 0.0
C1355 C -0.00137 0.80217 0.4093 0.0
C1356 C 0.98487 0.83209 0.4007 0.0
C1357 C 0.01707 0.79887 0.4376 0.0
C1358 C 0.9897 0.85871 0.42119 0.0
C1359 C 0.00832 0.85568 0.44937 0.0
H1360 H 0.10637 0.98327 0.27929 0.0
H1361 H 0.07954 0.0063 0.3777 0.0
H1362 H 0.02921 0.97678 0.3711 0.0
H1363 H 0.99331 0.94436 0.33808 0.0
H1364 H 0.01959 0.91999 0.23987 0.0
H1365 H 0.06953 0.95086 0.24563 0.0
C1366 C 0.08964 0.98163 0.29939 0.0
C1367 C 0.09684 0.99689 0.32901 0.0
C1368 C 0.06052 0.96482 0.29537 0.0
C1369 C 0.07467 0.99481 0.35465 0.0
C1370 C 0.04582 0.97802 0.35089 0.0
C1371 C 0.00971 0.9459 0.3177 0.0
C1372 C 0.00258 0.92979 0.28854 0.0
C1373 C 0.03851 0.96305 0.32137 0.0
C1374 C 0.02432 0.93221 0.26255 0.0
C1375 C 0.053 0.94968 0.2659 0.0
H1376 H 0.50382 0.04955 0.83999 0.0
H1377 H 0.48267 0.06469 0.7387 0.0
H1378 H 0.43404 0.03208 0.74372 0.0
H1379 H 0.39635 0.00115 0.77717 0.0
H1380 H 0.41747 0.98572 0.87833 0.0
H1381 H 0.46718 0.01684 0.87297 0.0
C1382 C 0.48886 0.04544 0.81885 0.0
C1383 C 0.49703 0.05971 0.789 0.0
C1384 C 0.46065 0.02696 0.82195 0.0
C1385 C 0.47711 0.0541 0.76199 0.0
C1386 C 0.44915 0.03555 0.76485 0.0
C1387 C 0.41171 0.0047 0.79812 0.0
C1388 C 0.40298 0.99132 0.82818 0.0
C1389 C 0.44043 0.0223 0.79481 0.0
C1390 C 0.42351 0.99578 0.85492 0.0
C1391 C 0.45199 0.01354 0.85187 0.0
H1392 H 0.60481 0.50718 0.71418 0.0
H1393 H 0.5812 0.48745 0.61425 0.0
H1394 H 0.53267 0.52047 0.61902 0.0
H1395 H 0.49754 0.55526 0.65104 0.0
H1396 H 0.52047 0.57508 0.7511 0.0
H1397 H 0.56858 0.54113 0.74682 0.0
C1398 C 0.58916 0.51021 0.69335 0.0
C1399 C 0.59682 0.49499 0.66379 0.0
C1400 C 0.56108 0.52896 0.69635 0.0
C1401 C 0.57597 0.49887 0.63725 0.0
C1402 C 0.54818 0.51772 0.63997 0.0
C1403 C 0.51291 0.55215 0.67206 0.0
C1404 C 0.50535 0.56789 0.70136 0.0
C1405 C 0.54056 0.53287 0.66937 0.0
C1406 C 0.52556 0.56323 0.7283 0.0
C1407 C 0.55319 0.54396 0.7258 0.0
H1408 H -0.00139 0.436 0.15462 0.0
H1409 H 0.98205 0.42667 0.25743 0.0
H1410 H 0.93414 0.46061 0.25299 0.0
H1411 H 0.89642 0.49177 0.21985 0.0
H1412 H 0.91277 0.50057 0.11695 0.0
H1413 H 0.9613 0.46762 0.12162 0.0
C1414 C 0.9848 0.44165 0.17618 0.0
C1415 C 0.99403 0.42885 0.20634 0.0
C1416 C 0.95705 0.46074 0.17342 0.0
C1417 C 0.97555 0.4362 0.23391 0.0
C1418 C 0.94807 0.45551 0.23139 0.0
C1419 C 0.91045 0.48637 0.19836 0.0
C1420 C 0.90085 0.49858 0.16808 0.0
C1421 C 0.93843 0.46761 0.20121 0.0
C1422 C 0.91955 0.49151 0.14058 0.0
C1423 C 0.94736 0.47273 0.14322 0.0
H1424 H 0.34674 0.06705 0.02377 0.0
H1425 H 0.27127 0.12535 0.98169 0.0
H1426 H 0.25588 0.08094 0.94629 0.0
H1427 H 0.26519 0.02612 0.92548 0.0
H1428 H 0.34105 0.96819 0.96721 0.0
H1429 H 0.35443 0.01154 0.00473 0.0
C1430 C 0.32701 0.0701 0.00679 0.0
C1431 C 0.31041 0.09962 0.00533 0.0
C1432 C 0.31806 0.04435 0.98655 0.0
C1433 C 0.28458 0.10293 0.9834 0.0
C1434 C 0.27566 0.0775 0.96312 0.0
C1435 C 0.2842 0.02278 0.94322 0.0
C1436 C 0.30207 0.99398 0.9435 0.0
C1437 C 0.29229 0.04812 0.96438 0.0
C1438 C 0.32696 0.99019 0.96638 0.0
C1439 C 0.33477 0.01502 0.98778 0.0
H1440 H 0.78031 0.38795 0.00828 0.0
H1441 H 0.87429 0.42021 0.97673 0.0
H1442 H 0.86766 0.46991 0.00748 0.0
H1443 H 0.83635 0.50323 0.04421 0.0
H1444 H 0.74291 0.47122 0.07739 0.0
H1445 H 0.74795 0.42253 0.04423 0.0
C1446 C 0.79944 0.40577 0.00818 0.0
C1447 C 0.8279 0.40016 0.99035 0.0
C1448 C 0.79545 0.43442 0.02585 0.0
C1449 C 0.85221 0.42376 0.99028 0.0
C1450 C 0.84841 0.45225 0.00779 0.0
C1451 C 0.81686 0.4858 0.04416 0.0
C1452 C 0.78934 0.49087 0.0635 0.0
C1453 C 0.82023 0.45771 0.02573 0.0
C1454 C 0.76432 0.46804 0.06272 0.0
C1455 C 0.76731 0.44007 0.04396 0.0
H1456 H 0.72207 0.5974 0.49669 0.0
H1457 H 0.62098 0.57976 0.47855 0.0
H1458 H 0.62429 0.52923 0.5086 0.0
H1459 H 0.65497 0.49169 0.54225 0.0
H1460 H 0.75595 0.50945 0.56105 0.0
H1461 H 0.75359 0.55808 0.52788 0.0
C1462 C 0.70072 0.58254 0.49927 0.0
C1463 C 0.67122 0.59261 0.48562 0.0
C1464 C 0.70278 0.55345 0.51651 0.0
C1465 C 0.64396 0.57273 0.48885 0.0
C1466 C 0.64583 0.5438 0.50604 0.0
C1467 C 0.67664 0.50592 0.53889 0.0
C1468 C 0.70556 0.49689 0.55441 0.0
C1469 C 0.67502 0.53412 0.52024 0.0
C1470 C 0.73335 0.51569 0.54946 0.0
C1471 C 0.73198 0.54366 0.53065 0.0
H1472 H 0.21645 0.88775 0.50027 0.0
H1473 H 0.11808 0.91458 0.52219 0.0
H1474 H 0.12342 0.96245 0.48856 0.0
H1475 H 0.15494 0.99576 0.45193 0.0
H1476 H 0.25309 0.96955 0.4287 0.0
H1477 H 0.24892 0.92255 0.46437 0.0
C1478 C 0.19614 0.90404 0.49775 0.0
C1479 C 0.16679 0.89728 0.51376 0.0
C1480 C 0.19934 0.93171 0.47828 0.0
C1481 C 0.14091 0.91894 0.51025 0.0
C1482 C 0.14393 0.94641 0.49099 0.0
C1483 C 0.17562 0.97996 0.45464 0.0
C1484 C 0.2043 0.98626 0.43739 0.0
C1485 C 0.17292 0.9529 0.47478 0.0
C1486 C 0.23075 0.96545 0.44164 0.0
C1487 C 0.22831 0.93845 0.46192 0.0
H1488 H 0.99259 0.71798 0.90215 0.0
H1489 H 0.98257 0.6157 0.91864 0.0
H1490 H 0.01592 0.6199 0.96721 0.0
H1491 H 0.04934 0.65229 0.00387 0.0
H1492 H 0.05886 0.75472 0.98723 0.0
H1493 H 0.02392 0.75069 0.94005 0.0
C1494 C 0.99776 0.69657 0.9163 0.0
C1495 C 0.98532 0.66655 0.90662 0.0
C1496 C 0.0167 0.69917 0.94429 0.0
C1497 C 0.99187 0.63912 0.92552 0.0
C1498 C 0.01094 0.64149 0.95331 0.0
C1499 C 0.04353 0.67383 0.99018 0.0
C1500 C 0.05692 0.70372 0.99912 0.0
C1501 C 0.0236 0.67137 0.96283 0.0
C1502 C 0.04905 0.73134 0.98097 0.0
C1503 C 0.02913 0.72908 0.95385 0.0
H1504 H 0.49629 0.28197 0.39664 0.0
H1505 H 0.51209 0.38326 0.41447 0.0
H1506 H 0.48115 0.37954 0.46482 0.0
H1507 H 0.44781 0.34793 0.50233 0.0
H1508 H 0.43311 0.24631 0.48464 0.0
H1509 H 0.46603 0.24971 0.43586 0.0
C1510 C 0.49289 0.30329 0.41148 0.0
C1511 C 0.50605 0.33298 0.4016 0.0
C1512 C 0.47553 0.30085 0.4405 0.0
C1513 C 0.50205 0.36019 0.42146 0.0
C1514 C 0.48439 0.35805 0.45023 0.0
C1515 C 0.45202 0.32641 0.48802 0.0
C1516 C 0.43774 0.29693 0.49715 0.0
C1517 C 0.47081 0.32855 0.45983 0.0
C1518 C 0.44377 0.26929 0.47836 0.0
C1519 C 0.46243 0.27125 0.45029 0.0
H1520 H 0.55548 0.76321 0.01847 0.0
H1521 H 0.55615 0.8636 0.99084 0.0
H1522 H 0.51798 0.87613 0.03387 0.0
H1523 H 0.48661 0.85915 0.08172 0.0
H1524 H 0.48686 0.75851 0.10877 0.0
H1525 H 0.52212 0.74586 0.06378 0.0
C1526 C 0.54713 0.78781 0.02162 0.0
C1527 C 0.55897 0.81233 0.00147 0.0
C1528 C 0.52532 0.795 0.04659 0.0
C1529 C 0.54764 0.84409 0.00599 0.0
C1530 C 0.52578 0.85138 0.03069 0.0
C1531 C 0.49415 0.83445 0.07758 0.0
C1532 C 0.48426 0.81003 0.09897 0.0
C1533 C 0.5148 0.82711 0.05151 0.0
C1534 C 0.4943 0.77805 0.09309 0.0
C1535 C 0.51451 0.77064 0.06724 0.0
H1536 H 0.94961 0.15371 0.49254 0.0
H1537 H 0.93514 0.2553 0.51087 0.0
H1538 H 0.9695 0.25177 0.5587 0.0
H1539 H 0.00109 0.21943 0.59688 0.0
H1540 H 0.01535 0.11782 0.57892 0.0
H1541 H 0.98338 0.12189 0.52934 0.0
C1542 C 0.95419 0.17525 0.50671 0.0
C1543 C 0.93958 0.20474 0.49802 0.0
C1544 C 0.97362 0.17298 0.53448 0.0
C1545 C 0.94597 0.23228 0.51683 0.0
C1546 C 0.96551 0.23026 0.54434 0.0
C1547 C 0.99721 0.19809 0.5822 0.0
C1548 C 0.0104 0.16826 0.59187 0.0
C1549 C 0.97896 0.20062 0.55369 0.0
C1550 C 0.00545 0.14104 0.57219 0.0
C1551 C 0.98717 0.14336 0.54381 0.0
H1552 H 0.90329 -0.00216 0.71961 0.0
H1553 H 0.91936 0.98774 0.61676 0.0
H1554 H 0.96781 0.02064 0.62089 0.0
H1555 H 0.00484 0.05315 0.65306 0.0
H1556 H 0.98893 0.06434 0.7558 0.0
H1557 H 0.94144 0.02967 0.75226 0.0
C1558 C 0.9173 0.00289 0.69805 0.0
C1559 C 0.90748 0.99035 0.66789 0.0
C1560 C 0.94533 0.02179 0.70056 0.0
C1561 C 0.9262 0.99701 0.6403 0.0
C1562 C 0.954 0.01581 0.64262 0.0
C1563 C 0.99129 0.04783 0.67486 0.0
C1564 C 0.00063 0.06144 0.70468 0.0
C1565 C 0.96375 0.02835 0.67259 0.0
C1566 C 0.98248 0.05421 0.73251 0.0
C1567 C 0.95517 0.0345 0.73049 0.0
H1568 H 0.60045 0.99514 0.21311 0.0
H1569 H 0.57696 0.01193 0.11267 0.0
H1570 H 0.53068 0.97551 0.11735 0.0
H1571 H 0.49794 0.93788 0.14992 0.0
H1572 H 0.52287 0.92199 0.25032 0.0
H1573 H 0.56769 0.95928 0.24548 0.0
C1574 C 0.58534 0.99091 0.19209 0.0
C1575 C 0.59235 0.00612 0.1625 0.0
C1576 C 0.55903 0.97011 0.19494 0.0
C1577 C 0.57215 0.00053 0.13574 0.0
C1578 C 0.54573 0.97968 0.1384 0.0
C1579 C 0.51306 0.94269 0.1708 0.0
C1580 C 0.50698 0.92697 0.20042 0.0
C1581 C 0.53906 0.9642 0.16789 0.0
C1582 C 0.52691 0.93355 0.22718 0.0
C1583 C 0.55263 0.9549 0.22448 0.0
H1584 H 0.46196 0.42174 0.26846 0.0
H1585 H 0.52582 0.46782 0.33674 0.0
H1586 H 0.48269 0.50431 0.35336 0.0
H1587 H 0.42604 0.52189 0.35014 0.0
H1588 H 0.36216 0.47541 0.28209 0.0
H1589 H 0.40577 0.44025 0.26422 0.0
C1590 C 0.4666 0.4402 0.28649 0.0
C1591 C 0.49711 0.44212 0.30118 0.0
C1592 C 0.44144 0.4607 0.29652 0.0
C1593 C 0.50254 0.46584 0.32497 0.0
C1594 C 0.47783 0.48661 0.33467 0.0
C1595 C 0.42162 0.50386 0.33164 0.0
C1596 C 0.39081 0.50122 0.31768 0.0
C1597 C 0.44699 0.48389 0.32106 0.0
C1598 C 0.38564 0.47801 0.29332 0.0
C1599 C 0.41061 0.45791 0.28294 0.0
H1600 H 0.10503 0.50774 0.78666 0.0
H1601 H 0.0817 0.48432 0.88571 0.0
H1602 H 0.0311 0.51446 0.88099 0.0
H1603 H 0.99428 0.54841 0.84909 0.0
H1604 H 0.0177 0.57098 0.74974 0.0
H1605 H 0.06736 0.53972 0.75424 0.0
C1606 C 0.08901 0.50931 0.80736 0.0
C1607 C 0.0974 0.49403 0.83666 0.0
C1608 C 0.05985 0.52629 0.80433 0.0
C1609 C 0.07597 0.49591 0.86294 0.0
C1610 C 0.04701 0.51312 0.86022 0.0
C1611 C 0.01003 0.54633 0.82825 0.0
C1612 C 0.00209 0.56224 0.79909 0.0
C1613 C 0.03876 0.52847 0.83104 0.0
C1614 C 0.02297 0.55906 0.77246 0.0
C1615 C 0.05153 0.5413 0.77505 0.0
H1616 H 0.65399 0.93027 0.96928 0.0
H1617 H 0.71947 0.86851 0.02216 0.0
H1618 H 0.73454 0.91285 0.057 0.0
H1619 H 0.72815 0.96872 0.0746 0.0
H1620 H 0.66154 0.0308 0.02419 0.0
H1621 H 0.64857 0.98734 0.98638 0.0
C1622 C 0.67148 0.92653 0.98844 0.0
C1623 C 0.6854 0.89586 0.99279 0.0
C1624 C 0.68024 0.9524 0.0089 0.0
C1625 C 0.70821 0.89168 0.01785 0.0
C1626 C 0.71704 0.91714 0.03797 0.0
C1627 C 0.71131 0.97294 0.05494 0.0
C1628 C 0.69603 0.003 0.05217 0.0
C1629 C 0.70321 0.94758 0.03384 0.0
C1630 C 0.67373 0.00784 0.02687 0.0
C1631 C 0.66613 0.98293 0.00531 0.0
H1632 H 0.15805 0.49653 0.95397 0.0
H1633 H 0.2573 0.52089 0.93364 0.0
H1634 H 0.25246 0.56891 0.96757 0.0
H1635 H 0.21932 0.60546 0.00052 0.0
H1636 H 0.11999 0.58118 0.02039 0.0
H1637 H 0.1257 0.53168 0.98883 0.0
C1638 C 0.17883 0.51208 0.95713 0.0
C1639 C 0.20802 0.50497 0.94103 0.0
C1640 C 0.17577 0.53991 0.97629 0.0
C1641 C 0.23457 0.52556 0.94567 0.0
C1642 C 0.23176 0.55319 0.96495 0.0
C1643 C 0.19884 0.58941 0.99797 0.0
C1644 C 0.16913 0.59731 0.01266 0.0
C1645 C 0.20232 0.56089 0.97989 0.0
C1646 C 0.14308 0.57588 0.00934 0.0
C1647 C 0.14634 0.54752 0.99129 0.0
H1648 H 0.32564 0.42817 0.52963 0.0
H1649 H 0.30573 0.35683 0.45631 0.0
H1650 H 0.28876 0.39899 0.41876 0.0
H1651 H 0.28104 0.45646 0.4061 0.0
H1652 H 0.30147 0.52795 0.47882 0.0
H1653 H 0.31578 0.48562 0.51762 0.0
C1654 C 0.31794 0.42199 0.50531 0.0
C1655 C 0.31731 0.38955 0.49558 0.0
C1656 C 0.30751 0.44634 0.48404 0.0
C1657 C 0.3066 0.38173 0.46424 0.0
C1658 C 0.29669 0.40577 0.44283 0.0
C1659 C 0.28765 0.46253 0.43079 0.0
C1660 C 0.28942 0.49497 0.44009 0.0
C1661 C 0.29689 0.43814 0.45248 0.0
C1662 C 0.29918 0.50292 0.47163 0.0
C1663 C 0.30781 0.47879 0.49358 0.0
H1664 H 0.78504 0.10367 0.50399 0.0
H1665 H 0.88203 0.07694 0.47681 0.0
H1666 H 0.87726 0.02735 0.50859 0.0
H1667 H 0.84618 0.9927 0.54524 0.0
H1668 H 0.74915 0.0198 0.57221 0.0
H1669 H 0.75331 0.06813 0.53877 0.0
C1670 C 0.8053 0.08713 0.50503 0.0
C1671 C 0.83406 0.09429 0.48824 0.0
C1672 C 0.80229 0.05866 0.52309 0.0
C1673 C 0.85971 0.07218 0.48955 0.0
C1674 C 0.85696 0.04381 0.5077 0.0
C1675 C 0.82574 0.00897 0.54369 0.0
C1676 C 0.79736 0.0025 0.56145 0.0
C1677 C 0.82841 0.03691 0.52468 0.0
C1678 C 0.77124 0.02398 0.55888 0.0
C1679 C 0.77367 0.05175 0.53987 0.0
loop_
_geom_bond_atom_site_label_1
_geom_bond_atom_site_label_2
_geom_bond_distance
_geom_bond_site_symmetry_2
_ccdc_geom_bond_type
Sc0 O3 2.025 . S
Sc0 O10 2.105 . S
Sc0 O13 2.105 . S
Sc0 O16 2.105 . S
Sc0 O19 2.105 . S
Sc1 O3 2.025 . S
Sc1 O11 2.105 . S
Sc1 O15 2.105 . S
Sc1 O17 2.105 . S
Sc1 O21 2.105 1_455 S
Sc2 O3 2.025 . S
Sc2 O12 2.105 1_455 S
Sc2 O14 2.105 . S
Sc2 O18 2.105 . S
Sc2 O20 2.106 . S
O3 Sc0 2.025 . S
O3 Sc1 2.025 . S
O3 Sc2 2.025 . S
C4 O10 1.268 1_655 S
C4 O20 1.268 1_655 S
C5 O11 1.258 1_655 S
C5 O19 1.253 1_655 S
C6 O12 1.268 . S
C6 O21 1.268 . S
C7 O13 1.268 . S
C7 O17 1.268 . S
C8 O14 1.268 . S
C8 O16 1.268 . S
C9 O15 1.268 . S
C9 O18 1.268 . S
O10 Sc0 2.105 . S
O10 C4 1.268 1_455 S
O11 Sc1 2.105 . S
O11 C5 1.258 1_455 S
O12 Sc2 2.105 1_655 S
O12 C6 1.268 . S
O13 Sc0 2.105 . S
O13 C7 1.268 . S
O14 Sc2 2.105 . S
O14 C8 1.268 . S
O15 Sc1 2.105 . S
O15 C9 1.268 . S
O16 Sc0 2.105 . S
O16 C8 1.268 . S
O17 Sc1 2.105 . S
O17 C7 1.268 . S
O18 Sc2 2.105 . S
O18 C9 1.268 . S
O19 Sc0 2.105 . S
O19 C5 1.253 1_455 S
O20 Sc2 2.106 . S
O20 C4 1.268 1_455 S
O21 Sc1 2.105 1_655 S
O21 C6 1.268 . S
Sc22 O25 2.025 . S
Sc22 O32 2.105 . S
Sc22 O35 2.105 . S
Sc22 O38 2.105 . S
Sc22 O41 2.105 . S
Sc23 O25 2.025 . S
Sc23 O33 2.105 . S
Sc23 O37 2.105 . S
Sc23 O39 2.105 . S
Sc23 O43 2.105 . S
Sc24 O25 2.025 . S
Sc24 O34 2.105 . S
Sc24 O36 2.105 . S
Sc24 O40 2.105 . S
Sc24 O42 2.105 . S
O25 Sc22 2.025 . S
O25 Sc23 2.025 . S
O25 Sc24 2.025 . S
C26 O32 1.268 . S
C26 O42 1.268 . S
C27 O33 1.268 . S
C27 O41 1.268 . S
C28 O34 1.268 . S
C28 O43 1.268 . S
C29 O35 1.268 . S
C29 O39 1.268 . S
C30 O36 1.268 . S
C30 O38 1.268 . S
C31 O37 1.268 . S
C31 O40 1.268 . S
O32 Sc22 2.105 . S
O32 C26 1.268 . S
O33 Sc23 2.105 . S
O33 C27 1.268 . S
O34 Sc24 2.105 . S
O34 C28 1.268 . S
O35 Sc22 2.105 . S
O35 C29 1.268 . S
O36 Sc24 2.105 . S
O36 C30 1.268 . S
O37 Sc23 2.105 . S
O37 C31 1.268 . S
O38 Sc22 2.105 . S
O38 C30 1.268 . S
O39 Sc23 2.105 . S
O39 C29 1.268 . S
O40 Sc24 2.105 . S
O40 C31 1.268 . S
O41 Sc22 2.105 . S
O41 C27 1.268 . S
O42 Sc24 2.105 . S
O42 C26 1.268 . S
O43 Sc23 2.105 . S
O43 C28 1.268 . S
Sc44 O47 2.025 . S
Sc44 O54 2.105 . S
Sc44 O57 2.105 . S
Sc44 O60 2.105 . S
Sc44 O63 2.105 . S
Sc45 O47 2.025 . S
Sc45 O55 2.105 . S
Sc45 O59 2.105 . S
Sc45 O61 2.105 . S
Sc45 O65 2.105 . S
Sc46 O47 2.025 . S
Sc46 O56 2.105 . S
Sc46 O58 2.105 . S
Sc46 O62 2.105 . S
Sc46 O64 2.105 . S
O47 Sc44 2.025 . S
O47 Sc45 2.025 . S
O47 Sc46 2.025 . S
C48 O54 1.268 . S
C48 O64 1.268 . S
C49 O55 1.268 . S
C49 O63 1.268 . S
C50 O56 1.268 . S
C50 O65 1.268 . S
C51 O57 1.268 . S
C51 O61 1.268 . S
C52 O58 1.268 . S
C52 O60 1.268 . S
C53 O59 1.268 . S
C53 O62 1.268 . S
O54 Sc44 2.105 . S
O54 C48 1.268 . S
O55 Sc45 2.105 . S
O55 C49 1.268 . S
O56 Sc46 2.105 . S
O56 C50 1.268 . S
O57 Sc44 2.105 . S
O57 C51 1.268 . S
O58 Sc46 2.105 . S
O58 C52 1.268 . S
O59 Sc45 2.105 . S
O59 C53 1.268 . S
O60 Sc44 2.105 . S
O60 C52 1.268 . S
O61 Sc45 2.105 . S
O61 C51 1.268 . S
O62 Sc46 2.105 . S
O62 C53 1.268 . S
O63 Sc44 2.105 . S
O63 C49 1.268 . S
O64 Sc46 2.105 . S
O64 C48 1.268 . S
O65 Sc45 2.105 . S
O65 C50 1.268 . S
Sc66 O69 2.025 . S
Sc66 O76 2.105 . S
Sc66 O79 2.105 1_655 S
Sc66 O82 2.106 . S
Sc66 O85 2.105 . S
Sc67 O69 2.025 . S
Sc67 O77 2.105 . S
Sc67 O81 2.105 . S
Sc67 O83 2.105 1_655 S
Sc67 O87 2.105 . S
Sc68 O69 2.025 . S
Sc68 O78 2.105 . S
Sc68 O80 2.105 . S
Sc68 O84 2.105 . S
Sc68 O86 2.105 . S
O69 Sc66 2.025 . S
O69 Sc67 2.025 . S
O69 Sc68 2.025 . S
C70 O76 1.268 . S
C70 O86 1.268 . S
C71 O77 1.268 . S
C71 O85 1.268 . S
C72 O78 1.268 . S
C72 O87 1.268 . S
C73 O79 1.268 . S
C73 O83 1.268 . S
C74 O80 1.268 1_455 S
C74 O82 1.268 1_455 S
C75 O81 1.258 1_455 S
C75 O84 1.253 1_455 S
O76 Sc66 2.105 . S
O76 C70 1.268 . S
O77 Sc67 2.105 . S
O77 C71 1.268 . S
O78 Sc68 2.105 . S
O78 C72 1.268 . S
O79 Sc66 2.105 1_455 S
O79 C73 1.268 . S
O80 Sc68 2.105 . S
O80 C74 1.268 1_655 S
O81 Sc67 2.105 . S
O81 C75 1.258 1_655 S
O82 Sc66 2.106 . S
O82 C74 1.268 1_655 S
O83 Sc67 2.105 1_455 S
O83 C73 1.268 . S
O84 Sc68 2.105 . S
O84 C75 1.253 1_655 S
O85 Sc66 2.105 . S
O85 C71 1.268 . S
O86 Sc68 2.105 . S
O86 C70 1.268 . S
O87 Sc67 2.105 . S
O87 C72 1.268 . S
Sc88 O91 2.025 . S
Sc88 O98 2.105 . S
Sc88 O101 2.105 . S
Sc88 O104 2.105 . S
Sc88 O107 2.105 . S
Sc89 O91 2.025 . S
Sc89 O99 2.105 . S
Sc89 O103 2.105 . S
Sc89 O105 2.105 . S
Sc89 O109 2.105 1_545 S
Sc90 O91 2.025 . S
Sc90 O100 2.105 1_545 S
Sc90 O102 2.105 . S
Sc90 O106 2.105 . S
Sc90 O108 2.106 . S
O91 Sc88 2.025 . S
O91 Sc89 2.025 . S
O91 Sc90 2.025 . S
C92 O98 1.268 1_565 S
C92 O108 1.268 1_565 S
C93 O99 1.258 1_565 S
C93 O107 1.253 1_565 S
C94 O100 1.268 . S
C94 O109 1.268 . S
C95 O101 1.268 . S
C95 O105 1.268 . S
C96 O102 1.268 . S
C96 O104 1.268 . S
C97 O103 1.268 . S
C97 O106 1.268 . S
O98 Sc88 2.105 . S
O98 C92 1.268 1_545 S
O99 Sc89 2.105 . S
O99 C93 1.258 1_545 S
O100 Sc90 2.105 1_565 S
O100 C94 1.268 . S
O101 Sc88 2.105 . S
O101 C95 1.268 . S
O102 Sc90 2.105 . S
O102 C96 1.268 . S
O103 Sc89 2.105 . S
O103 C97 1.268 . S
O104 Sc88 2.105 . S
O104 C96 1.268 . S
O105 Sc89 2.105 . S
O105 C95 1.268 . S
O106 Sc90 2.105 . S
O106 C97 1.268 . S
O107 Sc88 2.105 . S
O107 C93 1.253 1_545 S
O108 Sc90 2.106 . S
O108 C92 1.268 1_545 S
O109 Sc89 2.105 1_565 S
O109 C94 1.268 . S
Sc110 O113 2.025 . S
Sc110 O120 2.105 . S
Sc110 O123 2.105 1_565 S
Sc110 O126 2.106 . S
Sc110 O129 2.105 . S
Sc111 O113 2.025 . S
Sc111 O121 2.105 . S
Sc111 O125 2.105 . S
Sc111 O127 2.105 1_565 S
Sc111 O131 2.105 . S
Sc112 O113 2.025 . S
Sc112 O122 2.105 . S
Sc112 O124 2.105 . S
Sc112 O128 2.105 . S
Sc112 O130 2.105 . S
O113 Sc110 2.025 . S
O113 Sc111 2.025 . S
O113 Sc112 2.025 . S
C114 O120 1.268 . S
C114 O130 1.268 . S
C115 O121 1.268 . S
C115 O129 1.268 . S
C116 O122 1.268 . S
C116 O131 1.268 . S
C117 O123 1.268 . S
C117 O127 1.268 . S
C118 O124 1.268 1_545 S
C118 O126 1.268 1_545 S
C119 O125 1.258 1_545 S
C119 O128 1.253 1_545 S
O120 Sc110 2.105 . S
O120 C114 1.268 . S
O121 Sc111 2.105 . S
O121 C115 1.268 . S
O122 Sc112 2.105 . S
O122 C116 1.268 . S
O123 Sc110 2.105 1_545 S
O123 C117 1.268 . S
O124 Sc112 2.105 . S
O124 C118 1.268 1_565 S
O125 Sc111 2.105 . S
O125 C119 1.258 1_565 S
O126 Sc110 2.106 . S
O126 C118 1.268 1_565 S
O127 Sc111 2.105 1_545 S
O127 C117 1.268 . S
O128 Sc112 2.105 . S
O128 C119 1.253 1_565 S
O129 Sc110 2.105 . S
O129 C115 1.268 . S
O130 Sc112 2.105 . S
O130 C114 1.268 . S
O131 Sc111 2.105 . S
O131 C116 1.268 . S
Sc132 O135 2.025 . S
Sc132 O142 2.105 . S
Sc132 O145 2.105 . S
Sc132 O148 2.105 . S
Sc132 O151 2.105 . S
Sc133 O135 2.025 . S
Sc133 O143 2.105 . S
Sc133 O147 2.105 . S
Sc133 O149 2.105 . S
Sc133 O153 2.105 . S
Sc134 O135 2.025 . S
Sc134 O144 2.105 . S
Sc134 O146 2.105 . S
Sc134 O150 2.105 . S
Sc134 O152 2.105 . S
O135 Sc132 2.025 . S
O135 Sc133 2.025 . S
O135 Sc134 2.025 . S
C136 O142 1.268 . S
C136 O152 1.268 . S
C137 O143 1.268 . S
C137 O151 1.268 . S
C138 O144 1.268 . S
C138 O153 1.268 . S
C139 O145 1.268 . S
C139 O149 1.268 . S
C140 O146 1.268 . S
C140 O148 1.268 . S
C141 O147 1.268 . S
C141 O150 1.268 . S
O142 Sc132 2.105 . S
O142 C136 1.268 . S
O143 Sc133 2.105 . S
O143 C137 1.268 . S
O144 Sc134 2.105 . S
O144 C138 1.268 . S
O145 Sc132 2.105 . S
O145 C139 1.268 . S
O146 Sc134 2.105 . S
O146 C140 1.268 . S
O147 Sc133 2.105 . S
O147 C141 1.268 . S
O148 Sc132 2.105 . S
O148 C140 1.268 . S
O149 Sc133 2.105 . S
O149 C139 1.268 . S
O150 Sc134 2.105 . S
O150 C141 1.268 . S
O151 Sc132 2.105 . S
O151 C137 1.268 . S
O152 Sc134 2.105 . S
O152 C136 1.268 . S
O153 Sc133 2.105 . S
O153 C138 1.268 . S
Sc154 O157 2.025 . S
Sc154 O164 2.105 . S
Sc154 O167 2.105 . S
Sc154 O170 2.105 . S
Sc154 O173 2.105 . S
Sc155 O157 2.025 . S
Sc155 O165 2.105 . S
Sc155 O169 2.105 . S
Sc155 O171 2.105 . S
Sc155 O175 2.105 . S
Sc156 O157 2.025 . S
Sc156 O166 2.105 . S
Sc156 O168 2.105 . S
Sc156 O172 2.105 . S
Sc156 O174 2.105 . S
O157 Sc154 2.025 . S
O157 Sc155 2.025 . S
O157 Sc156 2.025 . S
C158 O164 1.268 . S
C158 O174 1.268 . S
C159 O165 1.268 . S
C159 O173 1.268 . S
C160 O166 1.268 . S
C160 O175 1.268 . S
C161 O167 1.268 . S
C161 O171 1.268 . S
C162 O168 1.268 . S
C162 O170 1.268 . S
C163 O169 1.268 . S
C163 O172 1.268 . S
O164 Sc154 2.105 . S
O164 C158 1.268 . S
O165 Sc155 2.105 . S
O165 C159 1.268 . S
O166 Sc156 2.105 . S
O166 C160 1.268 . S
O167 Sc154 2.105 . S
O167 C161 1.268 . S
O168 Sc156 2.105 . S
O168 C162 1.268 . S
O169 Sc155 2.105 . S
O169 C163 1.268 . S
O170 Sc154 2.105 . S
O170 C162 1.268 . S
O171 Sc155 2.105 . S
O171 C161 1.268 . S
O172 Sc156 2.105 . S
O172 C163 1.268 . S
O173 Sc154 2.105 . S
O173 C159 1.268 . S
O174 Sc156 2.105 . S
O174 C158 1.268 . S
O175 Sc155 2.105 . S
O175 C160 1.268 . S
Sc176 O179 2.025 . S
Sc176 O186 2.105 . S
Sc176 O189 2.105 . S
Sc176 O192 2.105 . S
Sc176 O195 2.105 . S
Sc177 O179 2.025 . S
Sc177 O187 2.105 . S
Sc177 O191 2.105 . S
Sc177 O193 2.105 . S
Sc177 O197 2.105 1_554 S
Sc178 O179 2.025 . S
Sc178 O188 2.105 1_554 S
Sc178 O190 2.105 . S
Sc178 O194 2.105 . S
Sc178 O196 2.106 . S
O179 Sc176 2.025 . S
O179 Sc177 2.025 . S
O179 Sc178 2.025 . S
C180 O186 1.268 1_556 S
C180 O196 1.268 1_556 S
C181 O187 1.258 1_556 S
C181 O195 1.253 1_556 S
C182 O188 1.268 . S
C182 O197 1.268 . S
C183 O189 1.268 . S
C183 O193 1.268 . S
C184 O190 1.268 . S
C184 O192 1.268 . S
C185 O191 1.268 . S
C185 O194 1.268 . S
O186 Sc176 2.105 . S
O186 C180 1.268 1_554 S
O187 Sc177 2.105 . S
O187 C181 1.258 1_554 S
O188 Sc178 2.105 1_556 S
O188 C182 1.268 . S
O189 Sc176 2.105 . S
O189 C183 1.268 . S
O190 Sc178 2.105 . S
O190 C184 1.268 . S
O191 Sc177 2.105 . S
O191 C185 1.268 . S
O192 Sc176 2.105 . S
O192 C184 1.268 . S
O193 Sc177 2.105 . S
O193 C183 1.268 . S
O194 Sc178 2.105 . S
O194 C185 1.268 . S
O195 Sc176 2.105 . S
O195 C181 1.253 1_554 S
O196 Sc178 2.106 . S
O196 C180 1.268 1_554 S
O197 Sc177 2.105 1_556 S
O197 C182 1.268 . S
Sc198 O201 2.025 . S
Sc198 O208 2.105 . S
Sc198 O211 2.105 1_556 S
Sc198 O214 2.106 . S
Sc198 O217 2.105 . S
Sc199 O201 2.025 . S
Sc199 O209 2.105 . S
Sc199 O213 2.105 . S
Sc199 O215 2.105 1_556 S
Sc199 O219 2.105 . S
Sc200 O201 2.025 . S
Sc200 O210 2.105 . S
Sc200 O212 2.105 . S
Sc200 O216 2.105 . S
Sc200 O218 2.105 . S
O201 Sc198 2.025 . S
O201 Sc199 2.025 . S
O201 Sc200 2.025 . S
C202 O208 1.268 . S
C202 O218 1.268 . S
C203 O209 1.268 . S
C203 O217 1.268 . S
C204 O210 1.268 . S
C204 O219 1.268 . S
C205 O211 1.268 . S
C205 O215 1.268 . S
C206 O212 1.268 1_554 S
C206 O214 1.268 1_554 S
C207 O213 1.258 1_554 S
C207 O216 1.253 1_554 S
O208 Sc198 2.105 . S
O208 C202 1.268 . S
O209 Sc199 2.105 . S
O209 C203 1.268 . S
O210 Sc200 2.105 . S
O210 C204 1.268 . S
O211 Sc198 2.105 1_554 S
O211 C205 1.268 . S
O212 Sc200 2.105 . S
O212 C206 1.268 1_556 S
O213 Sc199 2.105 . S
O213 C207 1.258 1_556 S
O214 Sc198 2.106 . S
O214 C206 1.268 1_556 S
O215 Sc199 2.105 1_554 S
O215 C205 1.268 . S
O216 Sc200 2.105 . S
O216 C207 1.253 1_556 S
O217 Sc198 2.105 . S
O217 C203 1.268 . S
O218 Sc200 2.105 . S
O218 C202 1.268 . S
O219 Sc199 2.105 . S
O219 C204 1.268 . S
Sc220 O223 2.025 . S
Sc220 O230 2.105 . S
Sc220 O233 2.105 . S
Sc220 O236 2.105 . S
Sc220 O239 2.105 . S
Sc221 O223 2.025 . S
Sc221 O231 2.105 . S
Sc221 O235 2.105 . S
Sc221 O237 2.105 . S
Sc221 O241 2.105 . S
Sc222 O223 2.025 . S
Sc222 O232 2.105 . S
Sc222 O234 2.105 . S
Sc222 O238 2.105 . S
Sc222 O240 2.105 . S
O223 Sc220 2.025 . S
O223 Sc221 2.025 . S
O223 Sc222 2.025 . S
C224 O230 1.268 . S
C224 O240 1.268 . S
C225 O231 1.268 . S
C225 O239 1.268 . S
C226 O232 1.268 . S
C226 O241 1.268 . S
C227 O233 1.268 . S
C227 O237 1.268 . S
C228 O234 1.268 . S
C228 O236 1.268 . S
C229 O235 1.268 . S
C229 O238 1.268 . S
O230 Sc220 2.105 . S
O230 C224 1.268 . S
O231 Sc221 2.105 . S
O231 C225 1.268 . S
O232 Sc222 2.105 . S
O232 C226 1.268 . S
O233 Sc220 2.105 . S
O233 C227 1.268 . S
O234 Sc222 2.105 . S
O234 C228 1.268 . S
O235 Sc221 2.105 . S
O235 C229 1.268 . S
O236 Sc220 2.105 . S
O236 C228 1.268 . S
O237 Sc221 2.105 . S
O237 C227 1.268 . S
O238 Sc222 2.105 . S
O238 C229 1.268 . S
O239 Sc220 2.105 . S
O239 C225 1.268 . S
O240 Sc222 2.105 . S
O240 C224 1.268 . S
O241 Sc221 2.105 . S
O241 C226 1.268 . S
Sc242 O245 2.025 . S
Sc242 O252 2.105 . S
Sc242 O255 2.105 . S
Sc242 O258 2.105 . S
Sc242 O261 2.105 . S
Sc243 O245 2.025 . S
Sc243 O253 2.105 . S
Sc243 O257 2.105 . S
Sc243 O259 2.105 . S
Sc243 O263 2.105 . S
Sc244 O245 2.025 . S
Sc244 O254 2.105 . S
Sc244 O256 2.105 . S
Sc244 O260 2.105 . S
Sc244 O262 2.105 . S
O245 Sc242 2.025 . S
O245 Sc243 2.025 . S
O245 Sc244 2.025 . S
C246 O252 1.268 . S
C246 O262 1.268 . S
C247 O253 1.268 . S
C247 O261 1.268 . S
C248 O254 1.268 . S
C248 O263 1.268 . S
C249 O255 1.268 . S
C249 O259 1.268 . S
C250 O256 1.268 . S
C250 O258 1.268 . S
C251 O257 1.268 . S
C251 O260 1.268 . S
O252 Sc242 2.105 . S
O252 C246 1.268 . S
O253 Sc243 2.105 . S
O253 C247 1.268 . S
O254 Sc244 2.105 . S
O254 C248 1.268 . S
O255 Sc242 2.105 . S
O255 C249 1.268 . S
O256 Sc244 2.105 . S
O256 C250 1.268 . S
O257 Sc243 2.105 . S
O257 C251 1.268 . S
O258 Sc242 2.105 . S
O258 C250 1.268 . S
O259 Sc243 2.105 . S
O259 C249 1.268 . S
O260 Sc244 2.105 . S
O260 C251 1.268 . S
O261 Sc242 2.105 . S
O261 C247 1.268 . S
O262 Sc244 2.105 . S
O262 C246 1.268 . S
O263 Sc243 2.105 . S
O263 C248 1.268 . S
Sc264 O267 2.025 . S
Sc264 O274 2.106 . S
Sc264 O277 2.105 . S
Sc264 O280 2.105 . S
Sc264 O283 2.105 1_655 S
Sc265 O267 2.025 . S
Sc265 O275 2.105 1_655 S
Sc265 O279 2.105 . S
Sc265 O281 2.105 . S
Sc265 O285 2.105 . S
Sc266 O267 2.025 . S
Sc266 O276 2.105 . S
Sc266 O278 2.105 . S
Sc266 O282 2.105 . S
Sc266 O284 2.105 . S
O267 Sc264 2.025 . S
O267 Sc265 2.025 . S
O267 Sc266 2.025 . S
C268 O274 1.268 1_455 S
C268 O284 1.268 1_455 S
C269 O275 1.268 . S
C269 O283 1.268 . S
C270 O276 1.253 1_455 S
C270 O285 1.258 1_455 S
C271 O277 1.268 . S
C271 O281 1.268 . S
C272 O278 1.268 . S
C272 O280 1.268 . S
C273 O279 1.268 . S
C273 O282 1.268 . S
O274 Sc264 2.106 . S
O274 C268 1.268 1_655 S
O275 Sc265 2.105 1_455 S
O275 C269 1.268 . S
O276 Sc266 2.105 . S
O276 C270 1.253 1_655 S
O277 Sc264 2.105 . S
O277 C271 1.268 . S
O278 Sc266 2.105 . S
O278 C272 1.268 . S
O279 Sc265 2.105 . S
O279 C273 1.268 . S
O280 Sc264 2.105 . S
O280 C272 1.268 . S
O281 Sc265 2.105 . S
O281 C271 1.268 . S
O282 Sc266 2.105 . S
O282 C273 1.268 . S
O283 Sc264 2.105 1_455 S
O283 C269 1.268 . S
O284 Sc266 2.105 . S
O284 C268 1.268 1_655 S
O285 Sc265 2.105 . S
O285 C270 1.258 1_655 S
Sc286 O289 2.025 . S
Sc286 O296 2.105 . S
Sc286 O299 2.105 . S
Sc286 O302 2.105 . S
Sc286 O305 2.105 . S
Sc287 O289 2.025 . S
Sc287 O297 2.105 . S
Sc287 O301 2.105 . S
Sc287 O303 2.105 . S
Sc287 O307 2.105 . S
Sc288 O289 2.025 . S
Sc288 O298 2.105 . S
Sc288 O300 2.105 . S
Sc288 O304 2.105 . S
Sc288 O306 2.105 . S
O289 Sc286 2.025 . S
O289 Sc287 2.025 . S
O289 Sc288 2.025 . S
C290 O296 1.268 . S
C290 O306 1.268 . S
C291 O297 1.268 . S
C291 O305 1.268 . S
C292 O298 1.268 . S
C292 O307 1.268 . S
C293 O299 1.268 . S
C293 O303 1.268 . S
C294 O300 1.268 . S
C294 O302 1.268 . S
C295 O301 1.268 . S
C295 O304 1.268 . S
O296 Sc286 2.105 . S
O296 C290 1.268 . S
O297 Sc287 2.105 . S
O297 C291 1.268 . S
O298 Sc288 2.105 . S
O298 C292 1.268 . S
O299 Sc286 2.105 . S
O299 C293 1.268 . S
O300 Sc288 2.105 . S
O300 C294 1.268 . S
O301 Sc287 2.105 . S
O301 C295 1.268 . S
O302 Sc286 2.105 . S
O302 C294 1.268 . S
O303 Sc287 2.105 . S
O303 C293 1.268 . S
O304 Sc288 2.105 . S
O304 C295 1.268 . S
O305 Sc286 2.105 . S
O305 C291 1.268 . S
O306 Sc288 2.105 . S
O306 C290 1.268 . S
O307 Sc287 2.105 . S
O307 C292 1.268 . S
Sc308 O311 2.025 . S
Sc308 O318 2.105 . S
Sc308 O321 2.105 . S
Sc308 O324 2.105 . S
Sc308 O327 2.105 . S
Sc309 O311 2.025 . S
Sc309 O319 2.105 . S
Sc309 O323 2.105 . S
Sc309 O325 2.105 . S
Sc309 O329 2.105 . S
Sc310 O311 2.025 . S
Sc310 O320 2.105 . S
Sc310 O322 2.105 . S
Sc310 O326 2.105 . S
Sc310 O328 2.105 . S
O311 Sc308 2.025 . S
O311 Sc309 2.025 . S
O311 Sc310 2.025 . S
C312 O318 1.268 . S
C312 O328 1.268 . S
C313 O319 1.268 . S
C313 O327 1.268 . S
C314 O320 1.268 . S
C314 O329 1.268 . S
C315 O321 1.268 . S
C315 O325 1.268 . S
C316 O322 1.268 . S
C316 O324 1.268 . S
C317 O323 1.268 . S
C317 O326 1.268 . S
O318 Sc308 2.105 . S
O318 C312 1.268 . S
O319 Sc309 2.105 . S
O319 C313 1.268 . S
O320 Sc310 2.105 . S
O320 C314 1.268 . S
O321 Sc308 2.105 . S
O321 C315 1.268 . S
O322 Sc310 2.105 . S
O322 C316 1.268 . S
O323 Sc309 2.105 . S
O323 C317 1.268 . S
O324 Sc308 2.105 . S
O324 C316 1.268 . S
O325 Sc309 2.105 . S
O325 C315 1.268 . S
O326 Sc310 2.105 . S
O326 C317 1.268 . S
O327 Sc308 2.105 . S
O327 C313 1.268 . S
O328 Sc310 2.105 . S
O328 C312 1.268 . S
O329 Sc309 2.105 . S
O329 C314 1.268 . S
Sc330 O333 2.025 . S
Sc330 O340 2.106 . S
Sc330 O343 2.105 . S
Sc330 O346 2.105 . S
Sc330 O349 2.105 1_455 S
Sc331 O333 2.025 . S
Sc331 O341 2.105 1_455 S
Sc331 O345 2.105 . S
Sc331 O347 2.105 . S
Sc331 O351 2.105 . S
Sc332 O333 2.025 . S
Sc332 O342 2.105 . S
Sc332 O344 2.105 . S
Sc332 O348 2.105 . S
Sc332 O350 2.105 . S
O333 Sc330 2.025 . S
O333 Sc331 2.025 . S
O333 Sc332 2.025 . S
C334 O340 1.268 1_655 S
C334 O350 1.268 1_655 S
C335 O341 1.268 . S
C335 O349 1.268 . S
C336 O342 1.253 1_655 S
C336 O351 1.258 1_655 S
C337 O343 1.268 . S
C337 O347 1.268 . S
C338 O344 1.268 . S
C338 O346 1.268 . S
C339 O345 1.268 . S
C339 O348 1.268 . S
O340 Sc330 2.106 . S
O340 C334 1.268 1_455 S
O341 Sc331 2.105 1_655 S
O341 C335 1.268 . S
O342 Sc332 2.105 . S
O342 C336 1.253 1_455 S
O343 Sc330 2.105 . S
O343 C337 1.268 . S
O344 Sc332 2.105 . S
O344 C338 1.268 . S
O345 Sc331 2.105 . S
O345 C339 1.268 . S
O346 Sc330 2.105 . S
O346 C338 1.268 . S
O347 Sc331 2.105 . S
O347 C337 1.268 . S
O348 Sc332 2.105 . S
O348 C339 1.268 . S
O349 Sc330 2.105 1_655 S
O349 C335 1.268 . S
O350 Sc332 2.105 . S
O350 C334 1.268 1_455 S
O351 Sc331 2.105 . S
O351 C336 1.258 1_455 S
Sc352 O355 2.025 . S
Sc352 O362 2.105 . S
Sc352 O365 2.105 . S
Sc352 O368 2.105 . S
Sc352 O371 2.105 . S
Sc353 O355 2.025 . S
Sc353 O363 2.105 . S
Sc353 O367 2.105 1_565 S
Sc353 O369 2.105 . S
Sc353 O373 2.105 . S
Sc354 O355 2.025 . S
Sc354 O364 2.105 . S
Sc354 O366 2.106 . S
Sc354 O370 2.105 1_565 S
Sc354 O372 2.105 . S
O355 Sc352 2.025 . S
O355 Sc353 2.025 . S
O355 Sc354 2.025 . S
C356 O362 1.268 . S
C356 O372 1.268 . S
C357 O363 1.268 . S
C357 O371 1.268 . S
C358 O364 1.268 . S
C358 O373 1.268 . S
C359 O365 1.253 1_545 S
C359 O369 1.258 1_545 S
C360 O366 1.268 1_545 S
C360 O368 1.268 1_545 S
C361 O367 1.268 . S
C361 O370 1.268 . S
O362 Sc352 2.105 . S
O362 C356 1.268 . S
O363 Sc353 2.105 . S
O363 C357 1.268 . S
O364 Sc354 2.105 . S
O364 C358 1.268 . S
O365 Sc352 2.105 . S
O365 C359 1.253 1_565 S
O366 Sc354 2.106 . S
O366 C360 1.268 1_565 S
O367 Sc353 2.105 1_545 S
O367 C361 1.268 . S
O368 Sc352 2.105 . S
O368 C360 1.268 1_565 S
O369 Sc353 2.105 . S
O369 C359 1.258 1_565 S
O370 Sc354 2.105 1_545 S
O370 C361 1.268 . S
O371 Sc352 2.105 . S
O371 C357 1.268 . S
O372 Sc354 2.105 . S
O372 C356 1.268 . S
O373 Sc353 2.105 . S
O373 C358 1.268 . S
Sc374 O377 2.025 . S
Sc374 O384 2.106 . S
Sc374 O387 2.105 . S
Sc374 O390 2.105 . S
Sc374 O393 2.105 1_545 S
Sc375 O377 2.025 . S
Sc375 O385 2.105 1_545 S
Sc375 O389 2.105 . S
Sc375 O391 2.105 . S
Sc375 O395 2.105 . S
Sc376 O377 2.025 . S
Sc376 O386 2.105 . S
Sc376 O388 2.105 . S
Sc376 O392 2.105 . S
Sc376 O394 2.105 . S
O377 Sc374 2.025 . S
O377 Sc375 2.025 . S
O377 Sc376 2.025 . S
C378 O384 1.268 1_565 S
C378 O394 1.268 1_565 S
C379 O385 1.268 . S
C379 O393 1.268 . S
C380 O386 1.253 1_565 S
C380 O395 1.258 1_565 S
C381 O387 1.268 . S
C381 O391 1.268 . S
C382 O388 1.268 . S
C382 O390 1.268 . S
C383 O389 1.268 . S
C383 O392 1.268 . S
O384 Sc374 2.106 . S
O384 C378 1.268 1_545 S
O385 Sc375 2.105 1_565 S
O385 C379 1.268 . S
O386 Sc376 2.105 . S
O386 C380 1.253 1_545 S
O387 Sc374 2.105 . S
O387 C381 1.268 . S
O388 Sc376 2.105 . S
O388 C382 1.268 . S
O389 Sc375 2.105 . S
O389 C383 1.268 . S
O390 Sc374 2.105 . S
O390 C382 1.268 . S
O391 Sc375 2.105 . S
O391 C381 1.268 . S
O392 Sc376 2.105 . S
O392 C383 1.268 . S
O393 Sc374 2.105 1_565 S
O393 C379 1.268 . S
O394 Sc376 2.105 . S
O394 C378 1.268 1_545 S
O395 Sc375 2.105 . S
O395 C380 1.258 1_545 S
Sc396 O399 2.025 . S
Sc396 O406 2.105 . S
Sc396 O409 2.105 . S
Sc396 O412 2.105 . S
Sc396 O415 2.105 . S
Sc397 O399 2.025 . S
Sc397 O407 2.105 . S
Sc397 O411 2.105 . S
Sc397 O413 2.105 . S
Sc397 O417 2.105 . S
Sc398 O399 2.025 . S
Sc398 O408 2.105 . S
Sc398 O410 2.105 . S
Sc398 O414 2.105 . S
Sc398 O416 2.105 . S
O399 Sc396 2.025 . S
O399 Sc397 2.025 . S
O399 Sc398 2.025 . S
C400 O406 1.268 . S
C400 O416 1.268 . S
C401 O407 1.268 . S
C401 O415 1.268 . S
C402 O408 1.268 . S
C402 O417 1.268 . S
C403 O409 1.268 . S
C403 O413 1.268 . S
C404 O410 1.268 . S
C404 O412 1.268 . S
C405 O411 1.268 . S
C405 O414 1.268 . S
O406 Sc396 2.105 . S
O406 C400 1.268 . S
O407 Sc397 2.105 . S
O407 C401 1.268 . S
O408 Sc398 2.105 . S
O408 C402 1.268 . S
O409 Sc396 2.105 . S
O409 C403 1.268 . S
O410 Sc398 2.105 . S
O410 C404 1.268 . S
O411 Sc397 2.105 . S
O411 C405 1.268 . S
O412 Sc396 2.105 . S
O412 C404 1.268 . S
O413 Sc397 2.105 . S
O413 C403 1.268 . S
O414 Sc398 2.105 . S
O414 C405 1.268 . S
O415 Sc396 2.105 . S
O415 C401 1.268 . S
O416 Sc398 2.105 . S
O416 C400 1.268 . S
O417 Sc397 2.105 . S
O417 C402 1.268 . S
Sc418 O421 2.025 . S
Sc418 O428 2.105 . S
Sc418 O431 2.105 . S
Sc418 O434 2.105 . S
Sc418 O437 2.105 . S
Sc419 O421 2.025 . S
Sc419 O429 2.105 . S
Sc419 O433 2.105 . S
Sc419 O435 2.105 . S
Sc419 O439 2.105 . S
Sc420 O421 2.025 . S
Sc420 O430 2.105 . S
Sc420 O432 2.105 . S
Sc420 O436 2.105 . S
Sc420 O438 2.105 . S
O421 Sc418 2.025 . S
O421 Sc419 2.025 . S
O421 Sc420 2.025 . S
C422 O428 1.268 . S
C422 O438 1.268 . S
C423 O429 1.268 . S
C423 O437 1.268 . S
C424 O430 1.268 . S
C424 O439 1.268 . S
C425 O431 1.268 . S
C425 O435 1.268 . S
C426 O432 1.268 . S
C426 O434 1.268 . S
C427 O433 1.268 . S
C427 O436 1.268 . S
O428 Sc418 2.105 . S
O428 C422 1.268 . S
O429 Sc419 2.105 . S
O429 C423 1.268 . S
O430 Sc420 2.105 . S
O430 C424 1.268 . S
O431 Sc418 2.105 . S
O431 C425 1.268 . S
O432 Sc420 2.105 . S
O432 C426 1.268 . S
O433 Sc419 2.105 . S
O433 C427 1.268 . S
O434 Sc418 2.105 . S
O434 C426 1.268 . S
O435 Sc419 2.105 . S
O435 C425 1.268 . S
O436 Sc420 2.105 . S
O436 C427 1.268 . S
O437 Sc418 2.105 . S
O437 C423 1.268 . S
O438 Sc420 2.105 . S
O438 C422 1.268 . S
O439 Sc419 2.105 . S
O439 C424 1.268 . S
Sc440 O443 2.025 . S
Sc440 O450 2.105 . S
Sc440 O453 2.105 . S
Sc440 O456 2.105 . S
Sc440 O459 2.105 . S
Sc441 O443 2.025 . S
Sc441 O451 2.105 . S
Sc441 O455 2.105 1_556 S
Sc441 O457 2.105 . S
Sc441 O461 2.105 . S
Sc442 O443 2.025 . S
Sc442 O452 2.105 . S
Sc442 O454 2.106 . S
Sc442 O458 2.105 1_556 S
Sc442 O460 2.105 . S
O443 Sc440 2.025 . S
O443 Sc441 2.025 . S
O443 Sc442 2.025 . S
C444 O450 1.268 . S
C444 O460 1.268 . S
C445 O451 1.268 . S
C445 O459 1.268 . S
C446 O452 1.268 . S
C446 O461 1.268 . S
C447 O453 1.253 1_554 S
C447 O457 1.258 1_554 S
C448 O454 1.268 1_554 S
C448 O456 1.268 1_554 S
C449 O455 1.268 . S
C449 O458 1.268 . S
O450 Sc440 2.105 . S
O450 C444 1.268 . S
O451 Sc441 2.105 . S
O451 C445 1.268 . S
O452 Sc442 2.105 . S
O452 C446 1.268 . S
O453 Sc440 2.105 . S
O453 C447 1.253 1_556 S
O454 Sc442 2.106 . S
O454 C448 1.268 1_556 S
O455 Sc441 2.105 1_554 S
O455 C449 1.268 . S
O456 Sc440 2.105 . S
O456 C448 1.268 1_556 S
O457 Sc441 2.105 . S
O457 C447 1.258 1_556 S
O458 Sc442 2.105 1_554 S
O458 C449 1.268 . S
O459 Sc440 2.105 . S
O459 C445 1.268 . S
O460 Sc442 2.105 . S
O460 C444 1.268 . S
O461 Sc441 2.105 . S
O461 C446 1.268 . S
Sc462 O465 2.025 . S
Sc462 O472 2.106 . S
Sc462 O475 2.105 . S
Sc462 O478 2.105 . S
Sc462 O481 2.105 1_554 S
Sc463 O465 2.025 . S
Sc463 O473 2.105 1_554 S
Sc463 O477 2.105 . S
Sc463 O479 2.105 . S
Sc463 O483 2.105 . S
Sc464 O465 2.025 . S
Sc464 O474 2.105 . S
Sc464 O476 2.105 . S
Sc464 O480 2.105 . S
Sc464 O482 2.105 . S
O465 Sc462 2.025 . S
O465 Sc463 2.025 . S
O465 Sc464 2.025 . S
C466 O472 1.268 1_556 S
C466 O482 1.268 1_556 S
C467 O473 1.268 . S
C467 O481 1.268 . S
C468 O474 1.253 1_556 S
C468 O483 1.258 1_556 S
C469 O475 1.268 . S
C469 O479 1.268 . S
C470 O476 1.268 . S
C470 O478 1.268 . S
C471 O477 1.268 . S
C471 O480 1.268 . S
O472 Sc462 2.106 . S
O472 C466 1.268 1_554 S
O473 Sc463 2.105 1_556 S
O473 C467 1.268 . S
O474 Sc464 2.105 . S
O474 C468 1.253 1_554 S
O475 Sc462 2.105 . S
O475 C469 1.268 . S
O476 Sc464 2.105 . S
O476 C470 1.268 . S
O477 Sc463 2.105 . S
O477 C471 1.268 . S
O478 Sc462 2.105 . S
O478 C470 1.268 . S
O479 Sc463 2.105 . S
O479 C469 1.268 . S
O480 Sc464 2.105 . S
O480 C471 1.268 . S
O481 Sc462 2.105 1_556 S
O481 C467 1.268 . S
O482 Sc464 2.105 . S
O482 C466 1.268 1_554 S
O483 Sc463 2.105 . S
O483 C468 1.258 1_554 S
Sc484 O487 2.025 . S
Sc484 O494 2.105 . S
Sc484 O497 2.105 . S
Sc484 O500 2.105 . S
Sc484 O503 2.105 . S
Sc485 O487 2.025 . S
Sc485 O495 2.105 . S
Sc485 O499 2.105 . S
Sc485 O501 2.105 . S
Sc485 O505 2.105 . S
Sc486 O487 2.025 . S
Sc486 O496 2.105 . S
Sc486 O498 2.105 . S
Sc486 O502 2.105 . S
Sc486 O504 2.105 . S
O487 Sc484 2.025 . S
O487 Sc485 2.025 . S
O487 Sc486 2.025 . S
C488 O494 1.268 . S
C488 O504 1.268 . S
C489 O495 1.268 . S
C489 O503 1.268 . S
C490 O496 1.268 . S
C490 O505 1.268 . S
C491 O497 1.268 . S
C491 O501 1.268 . S
C492 O498 1.268 . S
C492 O500 1.268 . S
C493 O499 1.268 . S
C493 O502 1.268 . S
O494 Sc484 2.105 . S
O494 C488 1.268 . S
O495 Sc485 2.105 . S
O495 C489 1.268 . S
O496 Sc486 2.105 . S
O496 C490 1.268 . S
O497 Sc484 2.105 . S
O497 C491 1.268 . S
O498 Sc486 2.105 . S
O498 C492 1.268 . S
O499 Sc485 2.105 . S
O499 C493 1.268 . S
O500 Sc484 2.105 . S
O500 C492 1.268 . S
O501 Sc485 2.105 . S
O501 C491 1.268 . S
O502 Sc486 2.105 . S
O502 C493 1.268 . S
O503 Sc484 2.105 . S
O503 C489 1.268 . S
O504 Sc486 2.105 . S
O504 C488 1.268 . S
O505 Sc485 2.105 . S
O505 C490 1.268 . S
Sc506 O509 2.025 . S
Sc506 O516 2.105 . S
Sc506 O519 2.105 . S
Sc506 O522 2.105 . S
Sc506 O525 2.105 . S
Sc507 O509 2.025 . S
Sc507 O517 2.105 . S
Sc507 O521 2.105 . S
Sc507 O523 2.105 . S
Sc507 O527 2.105 . S
Sc508 O509 2.025 . S
Sc508 O518 2.105 . S
Sc508 O520 2.105 . S
Sc508 O524 2.105 . S
Sc508 O526 2.105 . S
O509 Sc506 2.025 . S
O509 Sc507 2.025 . S
O509 Sc508 2.025 . S
C510 O516 1.268 . S
C510 O526 1.268 . S
C511 O517 1.268 . S
C511 O525 1.268 . S
C512 O518 1.268 . S
C512 O527 1.268 . S
C513 O519 1.268 . S
C513 O523 1.268 . S
C514 O520 1.268 . S
C514 O522 1.268 . S
C515 O521 1.268 . S
C515 O524 1.268 . S
O516 Sc506 2.105 . S
O516 C510 1.268 . S
O517 Sc507 2.105 . S
O517 C511 1.268 . S
O518 Sc508 2.105 . S
O518 C512 1.268 . S
O519 Sc506 2.105 . S
O519 C513 1.268 . S
O520 Sc508 2.105 . S
O520 C514 1.268 . S
O521 Sc507 2.105 . S
O521 C515 1.268 . S
O522 Sc506 2.105 . S
O522 C514 1.268 . S
O523 Sc507 2.105 . S
O523 C513 1.268 . S
O524 Sc508 2.105 . S
O524 C515 1.268 . S
O525 Sc506 2.105 . S
O525 C511 1.268 . S
O526 Sc508 2.105 . S
O526 C510 1.268 . S
O527 Sc507 2.105 . S
O527 C512 1.268 . S
H528 C534 0.930 . S
H529 C537 0.930 . S
H530 C538 0.930 . S
H531 C539 0.930 . S
H532 C542 0.930 . S
H533 C543 0.930 . S
C534 H528 0.930 . S
C534 C535 1.355 . S
C534 C536 1.415 . S
C535 C534 1.355 . S
C535 C537 1.419 . S
C536 C534 1.415 . S
C536 C541 1.425 . S
C536 C543 1.409 . S
C537 H529 0.930 . S
C537 C535 1.419 . S
C537 C538 1.362 . S
C538 H530 0.930 . S
C538 C537 1.362 . S
C538 C541 1.409 . S
C539 H531 0.930 . S
C539 C540 1.355 . S
C539 C541 1.415 . S
C540 C539 1.355 . S
C540 C542 1.419 . S
C541 C536 1.425 . S
C541 C538 1.409 . S
C541 C539 1.415 . S
C542 H532 0.930 . S
C542 C540 1.419 . S
C542 C543 1.362 . S
C543 H533 0.930 . S
C543 C536 1.409 . S
C543 C542 1.362 . S
H544 C550 0.930 . S
H545 C553 0.930 . S
H546 C554 0.930 . S
H547 C555 0.930 . S
H548 C558 0.930 . S
H549 C559 0.930 . S
C550 H544 0.930 . S
C550 C551 1.355 . S
C550 C552 1.415 . S
C551 C550 1.355 . S
C551 C553 1.419 . S
C552 C550 1.415 . S
C552 C557 1.425 . S
C552 C559 1.409 . S
C553 H545 0.930 . S
C553 C551 1.419 . S
C553 C554 1.362 . S
C554 H546 0.930 . S
C554 C553 1.362 . S
C554 C557 1.409 . S
C555 H547 0.930 . S
C555 C556 1.355 . S
C555 C557 1.415 . S
C556 C555 1.355 . S
C556 C558 1.419 . S
C557 C552 1.425 . S
C557 C554 1.409 . S
C557 C555 1.415 . S
C558 H548 0.930 . S
C558 C556 1.419 . S
C558 C559 1.362 . S
C559 H549 0.930 . S
C559 C552 1.409 . S
C559 C558 1.362 . S
H560 C566 0.930 . S
H561 C569 0.930 . S
H562 C570 0.930 . S
H563 C571 0.930 . S
H564 C574 0.930 . S
H565 C575 0.930 . S
C566 H560 0.930 . S
C566 C567 1.355 . S
C566 C568 1.415 . S
C567 C566 1.355 . S
C567 C569 1.419 . S
C568 C566 1.415 . S
C568 C573 1.425 . S
C568 C575 1.409 . S
C569 H561 0.930 . S
C569 C567 1.419 . S
C569 C570 1.362 . S
C570 H562 0.930 . S
C570 C569 1.362 . S
C570 C573 1.409 . S
C571 H563 0.930 . S
C571 C572 1.355 . S
C571 C573 1.415 . S
C572 C571 1.355 . S
C572 C574 1.419 . S
C573 C568 1.425 . S
C573 C570 1.409 . S
C573 C571 1.415 . S
C574 H564 0.930 . S
C574 C572 1.419 . S
C574 C575 1.362 . S
C575 H565 0.930 . S
C575 C568 1.409 . S
C575 C574 1.362 . S
H576 C582 0.930 . S
H577 C585 0.930 . S
H578 C586 0.930 . S
H579 C587 0.930 . S
H580 C590 0.930 . S
H581 C591 0.930 . S
C582 H576 0.930 . S
C582 C583 1.355 . S
C582 C584 1.415 . S
C583 C582 1.355 . S
C583 C585 1.419 . S
C584 C582 1.415 . S
C584 C589 1.425 . S
C584 C591 1.409 . S
C585 H577 0.930 . S
C585 C583 1.419 . S
C585 C586 1.362 . S
C586 H578 0.930 . S
C586 C585 1.362 . S
C586 C589 1.409 . S
C587 H579 0.930 . S
C587 C588 1.355 . S
C587 C589 1.415 . S
C588 C587 1.355 . S
C588 C590 1.419 . S
C589 C584 1.425 . S
C589 C586 1.409 . S
C589 C587 1.415 . S
C590 H580 0.930 . S
C590 C588 1.419 . S
C590 C591 1.362 . S
C591 H581 0.930 . S
C591 C584 1.409 . S
C591 C590 1.362 . S
H592 C598 0.930 . S
H593 C601 0.930 . S
H594 C602 0.930 . S
H595 C603 0.930 . S
H596 C606 0.930 . S
H597 C607 0.930 . S
C598 H592 0.930 . S
C598 C599 1.355 . S
C598 C600 1.415 . S
C599 C598 1.355 . S
C599 C601 1.419 . S
C600 C598 1.415 . S
C600 C605 1.425 . S
C600 C607 1.409 . S
C601 H593 0.930 . S
C601 C599 1.419 . S
C601 C602 1.362 . S
C602 H594 0.930 . S
C602 C601 1.362 . S
C602 C605 1.409 . S
C603 H595 0.930 . S
C603 C604 1.355 . S
C603 C605 1.415 . S
C604 C603 1.355 . S
C604 C606 1.419 . S
C605 C600 1.425 . S
C605 C602 1.409 . S
C605 C603 1.415 . S
C606 H596 0.930 . S
C606 C604 1.419 . S
C606 C607 1.362 . S
C607 H597 0.930 . S
C607 C600 1.409 . S
C607 C606 1.362 . S
H608 C614 0.930 . S
H609 C617 0.930 . S
H610 C618 0.930 . S
H611 C619 0.930 . S
H612 C622 0.930 . S
H613 C623 0.930 . S
C614 H608 0.930 . S
C614 C615 1.355 . S
C614 C616 1.415 . S
C615 C614 1.355 . S
C615 C617 1.419 . S
C616 C614 1.415 . S
C616 C621 1.425 . S
C616 C623 1.409 . S
C617 H609 0.930 . S
C617 C615 1.419 . S
C617 C618 1.362 . S
C618 H610 0.930 . S
C618 C617 1.362 . S
C618 C621 1.409 . S
C619 H611 0.930 . S
C619 C620 1.355 . S
C619 C621 1.415 . S
C620 C619 1.355 . S
C620 C622 1.419 . S
C621 C616 1.425 . S
C621 C618 1.409 . S
C621 C619 1.415 . S
C622 H612 0.930 . S
C622 C620 1.419 . S
C622 C623 1.362 . S
C623 H613 0.930 . S
C623 C616 1.409 . S
C623 C622 1.362 . S
H624 C630 0.930 . S
H625 C633 0.930 . S
H626 C634 0.930 . S
H627 C635 0.930 . S
H628 C638 0.930 . S
H629 C639 0.930 . S
C630 H624 0.930 . S
C630 C631 1.355 . S
C630 C632 1.415 . S
C631 C630 1.355 . S
C631 C633 1.419 . S
C632 C630 1.415 . S
C632 C637 1.425 . S
C632 C639 1.409 . S
C633 H625 0.930 . S
C633 C631 1.419 . S
C633 C634 1.362 . S
C634 H626 0.930 . S
C634 C633 1.362 . S
C634 C637 1.409 . S
C635 H627 0.930 . S
C635 C636 1.355 . S
C635 C637 1.415 . S
C636 C635 1.355 . S
C636 C638 1.419 . S
C637 C632 1.425 . S
C637 C634 1.409 . S
C637 C635 1.415 . S
C638 H628 0.930 . S
C638 C636 1.419 . S
C638 C639 1.362 . S
C639 H629 0.930 . S
C639 C632 1.409 . S
C639 C638 1.362 . S
H640 C646 0.930 . S
H641 C649 0.930 . S
H642 C650 0.930 . S
H643 C651 0.930 . S
H644 C654 0.930 . S
H645 C655 0.930 . S
C646 H640 0.930 . S
C646 C647 1.355 . S
C646 C648 1.415 . S
C647 C646 1.355 . S
C647 C649 1.419 . S
C648 C646 1.415 . S
C648 C653 1.425 . S
C648 C655 1.409 . S
C649 H641 0.930 . S
C649 C647 1.419 . S
C649 C650 1.362 . S
C650 H642 0.930 . S
C650 C649 1.362 . S
C650 C653 1.409 . S
C651 H643 0.930 . S
C651 C652 1.355 . S
C651 C653 1.415 . S
C652 C651 1.355 . S
C652 C654 1.419 . S
C653 C648 1.425 . S
C653 C650 1.409 . S
C653 C651 1.415 . S
C654 H644 0.930 . S
C654 C652 1.419 . S
C654 C655 1.362 . S
C655 H645 0.930 . S
C655 C648 1.409 . S
C655 C654 1.362 . S
H656 C662 0.930 . S
H657 C665 0.930 . S
H658 C666 0.930 . S
H659 C667 0.930 . S
H660 C670 0.930 . S
H661 C671 0.930 . S
C662 H656 0.930 . S
C662 C663 1.355 . S
C662 C664 1.415 . S
C663 C662 1.355 . S
C663 C665 1.419 . S
C664 C662 1.415 . S
C664 C669 1.425 . S
C664 C671 1.409 . S
C665 H657 0.930 . S
C665 C663 1.419 . S
C665 C666 1.362 . S
C666 H658 0.930 . S
C666 C665 1.362 . S
C666 C669 1.409 . S
C667 H659 0.930 . S
C667 C668 1.355 . S
C667 C669 1.415 . S
C668 C667 1.355 . S
C668 C670 1.419 . S
C669 C664 1.425 . S
C669 C666 1.409 . S
C669 C667 1.415 . S
C670 H660 0.930 . S
C670 C668 1.419 . S
C670 C671 1.362 . S
C671 H661 0.930 . S
C671 C664 1.409 . S
C671 C670 1.362 . S
H672 C678 0.930 . S
H673 C681 0.930 . S
H674 C682 0.930 . S
H675 C683 0.930 . S
H676 C686 0.930 . S
H677 C687 0.930 . S
C678 H672 0.930 . S
C678 C679 1.355 . S
C678 C680 1.415 . S
C679 C678 1.355 . S
C679 C681 1.419 . S
C680 C678 1.415 . S
C680 C685 1.425 . S
C680 C687 1.409 . S
C681 H673 0.930 . S
C681 C679 1.419 . S
C681 C682 1.362 . S
C682 H674 0.930 . S
C682 C681 1.362 . S
C682 C685 1.409 . S
C683 H675 0.930 . S
C683 C684 1.355 . S
C683 C685 1.415 . S
C684 C683 1.355 . S
C684 C686 1.419 . S
C685 C680 1.425 . S
C685 C682 1.409 . S
C685 C683 1.415 . S
C686 H676 0.930 . S
C686 C684 1.419 . S
C686 C687 1.362 . S
C687 H677 0.930 . S
C687 C680 1.409 . S
C687 C686 1.362 . S
H688 C694 0.930 . S
H689 C697 0.930 . S
H690 C698 0.930 . S
H691 C699 0.930 . S
H692 C702 0.930 . S
H693 C703 0.930 . S
C694 H688 0.930 . S
C694 C695 1.355 . S
C694 C696 1.415 . S
C695 C694 1.355 . S
C695 C697 1.419 . S
C696 C694 1.415 . S
C696 C701 1.425 . S
C696 C703 1.409 . S
C697 H689 0.930 . S
C697 C695 1.419 . S
C697 C698 1.362 . S
C698 H690 0.930 . S
C698 C697 1.362 . S
C698 C701 1.409 . S
C699 H691 0.930 . S
C699 C700 1.355 . S
C699 C701 1.415 . S
C700 C699 1.355 . S
C700 C702 1.419 . S
C701 C696 1.425 . S
C701 C698 1.409 . S
C701 C699 1.415 . S
C702 H692 0.930 . S
C702 C700 1.419 . S
C702 C703 1.362 . S
C703 H693 0.930 . S
C703 C696 1.409 . S
C703 C702 1.362 . S
H704 C710 0.930 . S
H705 C713 0.930 . S
H706 C714 0.930 . S
H707 C715 0.930 . S
H708 C718 0.930 . S
H709 C719 0.930 . S
C710 H704 0.930 . S
C710 C711 1.355 . S
C710 C712 1.415 . S
C711 C710 1.355 . S
C711 C713 1.419 . S
C712 C710 1.415 . S
C712 C717 1.425 . S
C712 C719 1.409 . S
C713 H705 0.930 . S
C713 C711 1.419 . S
C713 C714 1.362 . S
C714 H706 0.930 . S
C714 C713 1.362 . S
C714 C717 1.409 . S
C715 H707 0.930 . S
C715 C716 1.355 . S
C715 C717 1.415 . S
C716 C715 1.355 . S
C716 C718 1.419 . S
C717 C712 1.425 . S
C717 C714 1.409 . S
C717 C715 1.415 . S
C718 H708 0.930 . S
C718 C716 1.419 . S
C718 C719 1.362 . S
C719 H709 0.930 . S
C719 C712 1.409 . S
C719 C718 1.362 . S
H720 C726 0.930 . S
H721 C729 0.930 . S
H722 C730 0.930 . S
H723 C731 0.930 . S
H724 C734 0.930 . S
H725 C735 0.930 . S
C726 H720 0.930 . S
C726 C727 1.355 . S
C726 C728 1.415 . S
C727 C726 1.355 . S
C727 C729 1.419 . S
C728 C726 1.415 . S
C728 C733 1.425 . S
C728 C735 1.409 . S
C729 H721 0.930 . S
C729 C727 1.419 . S
C729 C730 1.362 . S
C730 H722 0.930 . S
C730 C729 1.362 . S
C730 C733 1.409 . S
C731 H723 0.930 . S
C731 C732 1.355 . S
C731 C733 1.415 . S
C732 C731 1.355 . S
C732 C734 1.419 . S
C733 C728 1.425 . S
C733 C730 1.409 . S
C733 C731 1.415 . S
C734 H724 0.930 . S
C734 C732 1.419 . S
C734 C735 1.362 . S
C735 H725 0.930 . S
C735 C728 1.409 . S
C735 C734 1.362 . S
H736 C742 0.930 . S
H737 C745 0.930 . S
H738 C746 0.930 . S
H739 C747 0.930 . S
H740 C750 0.930 . S
H741 C751 0.930 . S
C742 H736 0.930 . S
C742 C743 1.355 . S
C742 C744 1.415 . S
C743 C742 1.355 . S
C743 C745 1.419 . S
C744 C742 1.415 . S
C744 C749 1.425 . S
C744 C751 1.409 . S
C745 H737 0.930 . S
C745 C743 1.419 . S
C745 C746 1.362 . S
C746 H738 0.930 . S
C746 C745 1.362 . S
C746 C749 1.409 . S
C747 H739 0.930 . S
C747 C748 1.355 . S
C747 C749 1.415 . S
C748 C747 1.355 . S
C748 C750 1.419 . S
C749 C744 1.425 . S
C749 C746 1.409 . S
C749 C747 1.415 . S
C750 H740 0.930 . S
C750 C748 1.419 . S
C750 C751 1.362 . S
C751 H741 0.930 . S
C751 C744 1.409 . S
C751 C750 1.362 . S
H752 C758 0.930 . S
H753 C761 0.930 . S
H754 C762 0.930 . S
H755 C763 0.930 . S
H756 C766 0.930 . S
H757 C767 0.930 . S
C758 H752 0.930 . S
C758 C759 1.355 . S
C758 C760 1.415 . S
C759 C758 1.355 . S
C759 C761 1.419 . S
C760 C758 1.415 . S
C760 C765 1.425 . S
C760 C767 1.409 . S
C761 H753 0.930 . S
C761 C759 1.419 . S
C761 C762 1.362 . S
C762 H754 0.930 . S
C762 C761 1.362 . S
C762 C765 1.409 . S
C763 H755 0.930 . S
C763 C764 1.355 . S
C763 C765 1.415 . S
C764 C763 1.355 . S
C764 C766 1.419 . S
C765 C760 1.425 . S
C765 C762 1.409 . S
C765 C763 1.415 . S
C766 H756 0.930 . S
C766 C764 1.419 . S
C766 C767 1.362 . S
C767 H757 0.930 . S
C767 C760 1.409 . S
C767 C766 1.362 . S
H768 C774 0.930 . S
H769 C777 0.930 . S
H770 C778 0.930 . S
H771 C779 0.930 . S
H772 C782 0.930 . S
H773 C783 0.930 . S
C774 H768 0.930 . S
C774 C775 1.355 . S
C774 C776 1.415 . S
C775 C774 1.355 . S
C775 C777 1.419 . S
C776 C774 1.415 . S
C776 C781 1.425 . S
C776 C783 1.409 . S
C777 H769 0.930 . S
C777 C775 1.419 . S
C777 C778 1.362 . S
C778 H770 0.930 . S
C778 C777 1.362 . S
C778 C781 1.409 . S
C779 H771 0.930 . S
C779 C780 1.355 . S
C779 C781 1.415 . S
C780 C779 1.355 . S
C780 C782 1.419 . S
C781 C776 1.425 . S
C781 C778 1.409 . S
C781 C779 1.415 . S
C782 H772 0.930 . S
C782 C780 1.419 . S
C782 C783 1.362 . S
C783 H773 0.930 . S
C783 C776 1.409 . S
C783 C782 1.362 . S
H784 C790 0.930 . S
H785 C793 0.930 . S
H786 C794 0.930 . S
H787 C795 0.930 . S
H788 C798 0.930 . S
H789 C799 0.930 . S
C790 H784 0.930 . S
C790 C791 1.355 . S
C790 C792 1.415 . S
C791 C790 1.355 . S
C791 C793 1.419 . S
C792 C790 1.415 . S
C792 C797 1.425 . S
C792 C799 1.409 . S
C793 H785 0.930 . S
C793 C791 1.419 . S
C793 C794 1.362 . S
C794 H786 0.930 . S
C794 C793 1.362 . S
C794 C797 1.409 . S
C795 H787 0.930 . S
C795 C796 1.355 . S
C795 C797 1.415 . S
C796 C795 1.355 . S
C796 C798 1.419 . S
C797 C792 1.425 . S
C797 C794 1.409 . S
C797 C795 1.415 . S
C798 H788 0.930 . S
C798 C796 1.419 . S
C798 C799 1.362 . S
C799 H789 0.930 . S
C799 C792 1.409 . S
C799 C798 1.362 . S
H800 C806 0.930 . S
H801 C809 0.930 . S
H802 C810 0.930 . S
H803 C811 0.930 . S
H804 C814 0.930 . S
H805 C815 0.930 . S
C806 H800 0.930 . S
C806 C807 1.355 . S
C806 C808 1.415 . S
C807 C806 1.355 . S
C807 C809 1.419 . S
C808 C806 1.415 . S
C808 C813 1.425 . S
C808 C815 1.409 . S
C809 H801 0.930 . S
C809 C807 1.419 . S
C809 C810 1.362 . S
C810 H802 0.930 . S
C810 C809 1.362 . S
C810 C813 1.409 . S
C811 H803 0.930 . S
C811 C812 1.355 . S
C811 C813 1.415 . S
C812 C811 1.355 . S
C812 C814 1.419 . S
C813 C808 1.425 . S
C813 C810 1.409 . S
C813 C811 1.415 . S
C814 H804 0.930 . S
C814 C812 1.419 . S
C814 C815 1.362 . S
C815 H805 0.930 . S
C815 C808 1.409 . S
C815 C814 1.362 . S
H816 C822 0.930 . S
H817 C825 0.930 . S
H818 C826 0.930 . S
H819 C827 0.930 . S
H820 C830 0.930 . S
H821 C831 0.930 . S
C822 H816 0.930 . S
C822 C823 1.355 . S
C822 C824 1.415 . S
C823 C822 1.355 . S
C823 C825 1.419 . S
C824 C822 1.415 . S
C824 C829 1.425 . S
C824 C831 1.409 . S
C825 H817 0.930 . S
C825 C823 1.419 . S
C825 C826 1.362 . S
C826 H818 0.930 . S
C826 C825 1.362 . S
C826 C829 1.409 . S
C827 H819 0.930 . S
C827 C828 1.355 . S
C827 C829 1.415 . S
C828 C827 1.355 . S
C828 C830 1.419 . S
C829 C824 1.425 . S
C829 C826 1.409 . S
C829 C827 1.415 . S
C830 H820 0.930 . S
C830 C828 1.419 . S
C830 C831 1.362 . S
C831 H821 0.930 . S
C831 C824 1.409 . S
C831 C830 1.362 . S
H832 C838 0.930 . S
H833 C841 0.930 . S
H834 C842 0.930 . S
H835 C843 0.930 . S
H836 C846 0.930 . S
H837 C847 0.930 . S
C838 H832 0.930 . S
C838 C839 1.355 . S
C838 C840 1.415 . S
C839 C838 1.355 . S
C839 C841 1.419 . S
C840 C838 1.415 . S
C840 C845 1.425 . S
C840 C847 1.409 . S
C841 H833 0.930 . S
C841 C839 1.419 . S
C841 C842 1.362 . S
C842 H834 0.930 . S
C842 C841 1.362 . S
C842 C845 1.409 . S
C843 H835 0.930 . S
C843 C844 1.355 . S
C843 C845 1.415 . S
C844 C843 1.355 . S
C844 C846 1.419 . S
C845 C840 1.425 . S
C845 C842 1.409 . S
C845 C843 1.415 . S
C846 H836 0.930 . S
C846 C844 1.419 . S
C846 C847 1.362 . S
C847 H837 0.930 . S
C847 C840 1.409 . S
C847 C846 1.362 . S
H848 C854 0.930 . S
H849 C857 0.930 . S
H850 C858 0.930 . S
H851 C859 0.930 . S
H852 C862 0.930 . S
H853 C863 0.930 . S
C854 H848 0.930 . S
C854 C855 1.355 . S
C854 C856 1.415 . S
C855 C854 1.355 . S
C855 C857 1.419 . S
C856 C854 1.415 . S
C856 C861 1.425 . S
C856 C863 1.409 . S
C857 H849 0.930 . S
C857 C855 1.419 . S
C857 C858 1.362 . S
C858 H850 0.930 . S
C858 C857 1.362 . S
C858 C861 1.409 . S
C859 H851 0.930 . S
C859 C860 1.355 . S
C859 C861 1.415 . S
C860 C859 1.355 . S
C860 C862 1.419 . S
C861 C856 1.425 . S
C861 C858 1.409 . S
C861 C859 1.415 . S
C862 H852 0.930 . S
C862 C860 1.419 . S
C862 C863 1.362 . S
C863 H853 0.930 . S
C863 C856 1.409 . S
C863 C862 1.362 . S
H864 C870 0.930 . S
H865 C873 0.930 . S
H866 C874 0.930 . S
H867 C875 0.930 . S
H868 C878 0.930 . S
H869 C879 0.930 . S
C870 H864 0.930 . S
C870 C871 1.355 . S
C870 C872 1.415 . S
C871 C870 1.355 . S
C871 C873 1.419 . S
C872 C870 1.415 . S
C872 C877 1.425 . S
C872 C879 1.409 . S
C873 H865 0.930 . S
C873 C871 1.419 . S
C873 C874 1.362 . S
C874 H866 0.930 . S
C874 C873 1.362 . S
C874 C877 1.409 . S
C875 H867 0.930 . S
C875 C876 1.355 . S
C875 C877 1.415 . S
C876 C875 1.355 . S
C876 C878 1.419 . S
C877 C872 1.425 . S
C877 C874 1.409 . S
C877 C875 1.415 . S
C878 H868 0.930 . S
C878 C876 1.419 . S
C878 C879 1.362 . S
C879 H869 0.930 . S
C879 C872 1.409 . S
C879 C878 1.362 . S
H880 C886 0.930 . S
H881 C889 0.930 . S
H882 C890 0.930 . S
H883 C891 0.930 . S
H884 C894 0.930 . S
H885 C895 0.930 . S
C886 H880 0.930 . S
C886 C887 1.355 . S
C886 C888 1.415 . S
C887 C886 1.355 . S
C887 C889 1.419 . S
C888 C886 1.415 . S
C888 C893 1.425 . S
C888 C895 1.409 . S
C889 H881 0.930 . S
C889 C887 1.419 . S
C889 C890 1.362 . S
C890 H882 0.930 . S
C890 C889 1.362 . S
C890 C893 1.409 . S
C891 H883 0.930 . S
C891 C892 1.355 . S
C891 C893 1.415 . S
C892 C891 1.355 . S
C892 C894 1.419 . S
C893 C888 1.425 . S
C893 C890 1.409 . S
C893 C891 1.415 . S
C894 H884 0.930 . S
C894 C892 1.419 . S
C894 C895 1.362 . S
C895 H885 0.930 . S
C895 C888 1.409 . S
C895 C894 1.362 . S
H896 C902 0.930 . S
H897 C905 0.930 . S
H898 C906 0.930 . S
H899 C907 0.930 . S
H900 C910 0.930 . S
H901 C911 0.930 . S
C902 H896 0.930 . S
C902 C903 1.355 . S
C902 C904 1.415 . S
C903 C902 1.355 . S
C903 C905 1.419 . S
C904 C902 1.415 . S
C904 C909 1.425 . S
C904 C911 1.409 . S
C905 H897 0.930 . S
C905 C903 1.419 . S
C905 C906 1.362 . S
C906 H898 0.930 . S
C906 C905 1.362 . S
C906 C909 1.409 . S
C907 H899 0.930 . S
C907 C908 1.355 . S
C907 C909 1.415 . S
C908 C907 1.355 . S
C908 C910 1.419 . S
C909 C904 1.425 . S
C909 C906 1.409 . S
C909 C907 1.415 . S
C910 H900 0.930 . S
C910 C908 1.419 . S
C910 C911 1.362 . S
C911 H901 0.930 . S
C911 C904 1.409 . S
C911 C910 1.362 . S
H912 C918 0.930 . S
H913 C921 0.930 . S
H914 C922 0.930 . S
H915 C923 0.930 . S
H916 C926 0.930 . S
H917 C927 0.930 . S
C918 H912 0.930 . S
C918 C919 1.355 . S
C918 C920 1.415 . S
C919 C918 1.355 . S
C919 C921 1.419 . S
C920 C918 1.415 . S
C920 C925 1.425 . S
C920 C927 1.409 . S
C921 H913 0.930 . S
C921 C919 1.419 . S
C921 C922 1.362 . S
C922 H914 0.930 . S
C922 C921 1.362 . S
C922 C925 1.409 . S
C923 H915 0.930 . S
C923 C924 1.355 . S
C923 C925 1.415 . S
C924 C923 1.355 . S
C924 C926 1.419 . S
C925 C920 1.425 . S
C925 C922 1.409 . S
C925 C923 1.415 . S
C926 H916 0.930 . S
C926 C924 1.419 . S
C926 C927 1.362 . S
C927 H917 0.930 . S
C927 C920 1.409 . S
C927 C926 1.362 . S
H928 C934 0.930 . S
H929 C937 0.930 . S
H930 C938 0.930 . S
H931 C939 0.930 . S
H932 C942 0.930 . S
H933 C943 0.930 . S
C934 H928 0.930 . S
C934 C935 1.355 . S
C934 C936 1.415 . S
C935 C934 1.355 . S
C935 C937 1.419 . S
C936 C934 1.415 . S
C936 C941 1.425 . S
C936 C943 1.409 . S
C937 H929 0.930 . S
C937 C935 1.419 . S
C937 C938 1.362 . S
C938 H930 0.930 . S
C938 C937 1.362 . S
C938 C941 1.409 . S
C939 H931 0.930 . S
C939 C940 1.355 . S
C939 C941 1.415 . S
C940 C939 1.355 . S
C940 C942 1.419 . S
C941 C936 1.425 . S
C941 C938 1.409 . S
C941 C939 1.415 . S
C942 H932 0.930 . S
C942 C940 1.419 . S
C942 C943 1.362 . S
C943 H933 0.930 . S
C943 C936 1.409 . S
C943 C942 1.362 . S
H944 C950 0.930 . S
H945 C953 0.930 . S
H946 C954 0.930 . S
H947 C955 0.930 . S
H948 C958 0.930 . S
H949 C959 0.930 . S
C950 H944 0.930 . S
C950 C951 1.355 . S
C950 C952 1.415 . S
C951 C950 1.355 . S
C951 C953 1.419 . S
C952 C950 1.415 . S
C952 C957 1.425 . S
C952 C959 1.409 . S
C953 H945 0.930 . S
C953 C951 1.419 . S
C953 C954 1.362 . S
C954 H946 0.930 . S
C954 C953 1.362 . S
C954 C957 1.409 . S
C955 H947 0.930 . S
C955 C956 1.355 . S
C955 C957 1.415 . S
C956 C955 1.355 . S
C956 C958 1.419 . S
C957 C952 1.425 . S
C957 C954 1.409 . S
C957 C955 1.415 . S
C958 H948 0.930 . S
C958 C956 1.419 . S
C958 C959 1.362 . S
C959 H949 0.930 . S
C959 C952 1.409 . S
C959 C958 1.362 . S
H960 C966 0.930 . S
H961 C969 0.930 . S
H962 C970 0.930 . S
H963 C971 0.930 . S
H964 C974 0.930 . S
H965 C975 0.930 . S
C966 H960 0.930 . S
C966 C967 1.355 . S
C966 C968 1.415 . S
C967 C966 1.355 . S
C967 C969 1.419 . S
C968 C966 1.415 . S
C968 C973 1.425 . S
C968 C975 1.409 . S
C969 H961 0.930 . S
C969 C967 1.419 . S
C969 C970 1.362 . S
C970 H962 0.930 . S
C970 C969 1.362 . S
C970 C973 1.409 . S
C971 H963 0.930 . S
C971 C972 1.355 . S
C971 C973 1.415 . S
C972 C971 1.355 . S
C972 C974 1.419 . S
C973 C968 1.425 . S
C973 C970 1.409 . S
C973 C971 1.415 . S
C974 H964 0.930 . S
C974 C972 1.419 . S
C974 C975 1.362 . S
C975 H965 0.930 . S
C975 C968 1.409 . S
C975 C974 1.362 . S
H976 C982 0.930 . S
H977 C985 0.930 . S
H978 C986 0.930 . S
H979 C987 0.930 . S
H980 C990 0.930 . S
H981 C991 0.930 . S
C982 H976 0.930 . S
C982 C983 1.355 . S
C982 C984 1.415 . S
C983 C982 1.355 . S
C983 C985 1.419 . S
C984 C982 1.415 . S
C984 C989 1.425 . S
C984 C991 1.409 . S
C985 H977 0.930 . S
C985 C983 1.419 . S
C985 C986 1.362 . S
C986 H978 0.930 . S
C986 C985 1.362 . S
C986 C989 1.409 . S
C987 H979 0.930 . S
C987 C988 1.355 . S
C987 C989 1.415 . S
C988 C987 1.355 . S
C988 C990 1.419 . S
C989 C984 1.425 . S
C989 C986 1.409 . S
C989 C987 1.415 . S
C990 H980 0.930 . S
C990 C988 1.419 . S
C990 C991 1.362 . S
C991 H981 0.930 . S
C991 C984 1.409 . S
C991 C990 1.362 . S
H992 C998 0.930 . S
H993 C1001 0.930 . S
H994 C1002 0.930 . S
H995 C1003 0.930 . S
H996 C1006 0.930 . S
H997 C1007 0.930 . S
C998 H992 0.930 . S
C998 C999 1.355 . S
C998 C1000 1.415 . S
C999 C998 1.355 . S
C999 C1001 1.419 . S
C1000 C998 1.415 . S
C1000 C1005 1.425 . S
C1000 C1007 1.409 . S
C1001 H993 0.930 . S
C1001 C999 1.419 . S
C1001 C1002 1.362 . S
C1002 H994 0.930 . S
C1002 C1001 1.362 . S
C1002 C1005 1.409 . S
C1003 H995 0.930 . S
C1003 C1004 1.355 . S
C1003 C1005 1.415 . S
C1004 C1003 1.355 . S
C1004 C1006 1.419 . S
C1005 C1000 1.425 . S
C1005 C1002 1.409 . S
C1005 C1003 1.415 . S
C1006 H996 0.930 . S
C1006 C1004 1.419 . S
C1006 C1007 1.362 . S
C1007 H997 0.930 . S
C1007 C1000 1.409 . S
C1007 C1006 1.362 . S
H1008 C1014 0.930 . S
H1009 C1017 0.930 . S
H1010 C1018 0.930 . S
H1011 C1019 0.930 . S
H1012 C1022 0.930 . S
H1013 C1023 0.930 . S
C1014 H1008 0.930 . S
C1014 C1015 1.355 . S
C1014 C1016 1.415 . S
C1015 C1014 1.355 . S
C1015 C1017 1.419 . S
C1016 C1014 1.415 . S
C1016 C1021 1.425 . S
C1016 C1023 1.409 . S
C1017 H1009 0.930 . S
C1017 C1015 1.419 . S
C1017 C1018 1.362 . S
C1018 H1010 0.930 . S
C1018 C1017 1.362 . S
C1018 C1021 1.409 . S
C1019 H1011 0.930 . S
C1019 C1020 1.355 . S
C1019 C1021 1.415 . S
C1020 C1019 1.355 . S
C1020 C1022 1.419 . S
C1021 C1016 1.425 . S
C1021 C1018 1.409 . S
C1021 C1019 1.415 . S
C1022 H1012 0.930 . S
C1022 C1020 1.419 . S
C1022 C1023 1.362 . S
C1023 H1013 0.930 . S
C1023 C1016 1.409 . S
C1023 C1022 1.362 . S
H1024 C1030 0.930 . S
H1025 C1033 0.930 . S
H1026 C1034 0.930 . S
H1027 C1035 0.930 . S
H1028 C1038 0.930 . S
H1029 C1039 0.930 . S
C1030 H1024 0.930 . S
C1030 C1031 1.355 . S
C1030 C1032 1.415 . S
C1031 C1030 1.355 . S
C1031 C1033 1.419 . S
C1032 C1030 1.415 . S
C1032 C1037 1.425 . S
C1032 C1039 1.409 . S
C1033 H1025 0.930 . S
C1033 C1031 1.419 . S
C1033 C1034 1.362 . S
C1034 H1026 0.930 . S
C1034 C1033 1.362 . S
C1034 C1037 1.409 . S
C1035 H1027 0.930 . S
C1035 C1036 1.355 . S
C1035 C1037 1.415 . S
C1036 C1035 1.355 . S
C1036 C1038 1.419 . S
C1037 C1032 1.425 . S
C1037 C1034 1.409 . S
C1037 C1035 1.415 . S
C1038 H1028 0.930 . S
C1038 C1036 1.419 . S
C1038 C1039 1.362 . S
C1039 H1029 0.930 . S
C1039 C1032 1.409 . S
C1039 C1038 1.362 . S
H1040 C1046 0.930 . S
H1041 C1049 0.930 . S
H1042 C1050 0.930 . S
H1043 C1051 0.930 . S
H1044 C1054 0.930 . S
H1045 C1055 0.930 . S
C1046 H1040 0.930 . S
C1046 C1047 1.355 . S
C1046 C1048 1.415 . S
C1047 C1046 1.355 . S
C1047 C1049 1.419 . S
C1048 C1046 1.415 . S
C1048 C1053 1.425 . S
C1048 C1055 1.409 . S
C1049 H1041 0.930 . S
C1049 C1047 1.419 . S
C1049 C1050 1.362 . S
C1050 H1042 0.930 . S
C1050 C1049 1.362 . S
C1050 C1053 1.409 . S
C1051 H1043 0.930 . S
C1051 C1052 1.355 . S
C1051 C1053 1.415 . S
C1052 C1051 1.355 . S
C1052 C1054 1.419 . S
C1053 C1048 1.425 . S
C1053 C1050 1.409 . S
C1053 C1051 1.415 . S
C1054 H1044 0.930 . S
C1054 C1052 1.419 . S
C1054 C1055 1.362 . S
C1055 H1045 0.930 . S
C1055 C1048 1.409 . S
C1055 C1054 1.362 . S
H1056 C1062 0.930 . S
H1057 C1065 0.930 . S
H1058 C1066 0.930 . S
H1059 C1067 0.930 . S
H1060 C1070 0.930 . S
H1061 C1071 0.930 . S
C1062 H1056 0.930 . S
C1062 C1063 1.355 . S
C1062 C1064 1.415 . S
C1063 C1062 1.355 . S
C1063 C1065 1.419 . S
C1064 C1062 1.415 . S
C1064 C1069 1.425 . S
C1064 C1071 1.409 . S
C1065 H1057 0.930 . S
C1065 C1063 1.419 . S
C1065 C1066 1.362 . S
C1066 H1058 0.930 . S
C1066 C1065 1.362 . S
C1066 C1069 1.409 . S
C1067 H1059 0.930 . S
C1067 C1068 1.355 . S
C1067 C1069 1.415 . S
C1068 C1067 1.355 . S
C1068 C1070 1.419 . S
C1069 C1064 1.425 . S
C1069 C1066 1.409 . S
C1069 C1067 1.415 . S
C1070 H1060 0.930 . S
C1070 C1068 1.419 . S
C1070 C1071 1.362 . S
C1071 H1061 0.930 . S
C1071 C1064 1.409 . S
C1071 C1070 1.362 . S
H1072 C1078 0.930 . S
H1073 C1081 0.930 . S
H1074 C1082 0.930 . S
H1075 C1083 0.930 . S
H1076 C1086 0.930 . S
H1077 C1087 0.930 . S
C1078 H1072 0.930 . S
C1078 C1079 1.355 . S
C1078 C1080 1.415 . S
C1079 C1078 1.355 . S
C1079 C1081 1.419 . S
C1080 C1078 1.415 . S
C1080 C1085 1.425 . S
C1080 C1087 1.409 . S
C1081 H1073 0.930 . S
C1081 C1079 1.419 . S
C1081 C1082 1.362 . S
C1082 H1074 0.930 . S
C1082 C1081 1.362 . S
C1082 C1085 1.409 . S
C1083 H1075 0.930 . S
C1083 C1084 1.355 . S
C1083 C1085 1.415 . S
C1084 C1083 1.355 . S
C1084 C1086 1.419 . S
C1085 C1080 1.425 . S
C1085 C1082 1.409 . S
C1085 C1083 1.415 . S
C1086 H1076 0.930 . S
C1086 C1084 1.419 . S
C1086 C1087 1.362 . S
C1087 H1077 0.930 . S
C1087 C1080 1.409 . S
C1087 C1086 1.362 . S
H1088 C1094 0.930 . S
H1089 C1097 0.930 . S
H1090 C1098 0.930 . S
H1091 C1099 0.930 . S
H1092 C1102 0.930 . S
H1093 C1103 0.930 . S
C1094 H1088 0.930 . S
C1094 C1095 1.355 . S
C1094 C1096 1.415 . S
C1095 C1094 1.355 . S
C1095 C1097 1.419 . S
C1096 C1094 1.415 . S
C1096 C1101 1.425 . S
C1096 C1103 1.409 . S
C1097 H1089 0.930 . S
C1097 C1095 1.419 . S
C1097 C1098 1.362 . S
C1098 H1090 0.930 . S
C1098 C1097 1.362 . S
C1098 C1101 1.409 . S
C1099 H1091 0.930 . S
C1099 C1100 1.355 . S
C1099 C1101 1.415 . S
C1100 C1099 1.355 . S
C1100 C1102 1.419 . S
C1101 C1096 1.425 . S
C1101 C1098 1.409 . S
C1101 C1099 1.415 . S
C1102 H1092 0.930 . S
C1102 C1100 1.419 . S
C1102 C1103 1.362 . S
C1103 H1093 0.930 . S
C1103 C1096 1.409 . S
C1103 C1102 1.362 . S
H1104 C1110 0.930 . S
H1105 C1113 0.930 . S
H1106 C1114 0.930 . S
H1107 C1115 0.930 . S
H1108 C1118 0.930 . S
H1109 C1119 0.930 . S
C1110 H1104 0.930 . S
C1110 C1111 1.355 . S
C1110 C1112 1.415 . S
C1111 C1110 1.355 . S
C1111 C1113 1.419 . S
C1112 C1110 1.415 . S
C1112 C1117 1.425 . S
C1112 C1119 1.409 . S
C1113 H1105 0.930 . S
C1113 C1111 1.419 . S
C1113 C1114 1.362 . S
C1114 H1106 0.930 . S
C1114 C1113 1.362 . S
C1114 C1117 1.409 . S
C1115 H1107 0.930 . S
C1115 C1116 1.355 . S
C1115 C1117 1.415 . S
C1116 C1115 1.355 . S
C1116 C1118 1.419 . S
C1117 C1112 1.425 . S
C1117 C1114 1.409 . S
C1117 C1115 1.415 . S
C1118 H1108 0.930 . S
C1118 C1116 1.419 . S
C1118 C1119 1.362 . S
C1119 H1109 0.930 . S
C1119 C1112 1.409 . S
C1119 C1118 1.362 . S
H1120 C1126 0.930 . S
H1121 C1129 0.930 . S
H1122 C1130 0.930 . S
H1123 C1131 0.930 . S
H1124 C1134 0.930 . S
H1125 C1135 0.930 . S
C1126 H1120 0.930 . S
C1126 C1127 1.355 . S
C1126 C1128 1.415 . S
C1127 C1126 1.355 . S
C1127 C1129 1.419 . S
C1128 C1126 1.415 . S
C1128 C1133 1.425 . S
C1128 C1135 1.409 . S
C1129 H1121 0.930 . S
C1129 C1127 1.419 . S
C1129 C1130 1.362 . S
C1130 H1122 0.930 . S
C1130 C1129 1.362 . S
C1130 C1133 1.409 . S
C1131 H1123 0.930 . S
C1131 C1132 1.355 . S
C1131 C1133 1.415 . S
C1132 C1131 1.355 . S
C1132 C1134 1.419 . S
C1133 C1128 1.425 . S
C1133 C1130 1.409 . S
C1133 C1131 1.415 . S
C1134 H1124 0.930 . S
C1134 C1132 1.419 . S
C1134 C1135 1.362 . S
C1135 H1125 0.930 . S
C1135 C1128 1.409 . S
C1135 C1134 1.362 . S
H1136 C1142 0.930 . S
H1137 C1145 0.930 . S
H1138 C1146 0.930 . S
H1139 C1147 0.930 . S
H1140 C1150 0.930 . S
H1141 C1151 0.930 . S
C1142 H1136 0.930 . S
C1142 C1143 1.355 . S
C1142 C1144 1.415 . S
C1143 C1142 1.355 . S
C1143 C1145 1.419 . S
C1144 C1142 1.415 . S
C1144 C1149 1.425 . S
C1144 C1151 1.409 . S
C1145 H1137 0.930 . S
C1145 C1143 1.419 . S
C1145 C1146 1.362 . S
C1146 H1138 0.930 . S
C1146 C1145 1.362 . S
C1146 C1149 1.409 . S
C1147 H1139 0.930 . S
C1147 C1148 1.355 . S
C1147 C1149 1.415 . S
C1148 C1147 1.355 . S
C1148 C1150 1.419 . S
C1149 C1144 1.425 . S
C1149 C1146 1.409 . S
C1149 C1147 1.415 . S
C1150 H1140 0.930 . S
C1150 C1148 1.419 . S
C1150 C1151 1.362 . S
C1151 H1141 0.930 . S
C1151 C1144 1.409 . S
C1151 C1150 1.362 . S
H1152 C1158 0.930 . S
H1153 C1161 0.930 . S
H1154 C1162 0.930 . S
H1155 C1163 0.930 . S
H1156 C1166 0.930 . S
H1157 C1167 0.930 . S
C1158 H1152 0.930 . S
C1158 C1159 1.355 . S
C1158 C1160 1.415 . S
C1159 C1158 1.355 . S
C1159 C1161 1.419 . S
C1160 C1158 1.415 . S
C1160 C1165 1.425 . S
C1160 C1167 1.409 . S
C1161 H1153 0.930 . S
C1161 C1159 1.419 . S
C1161 C1162 1.362 . S
C1162 H1154 0.930 . S
C1162 C1161 1.362 . S
C1162 C1165 1.409 . S
C1163 H1155 0.930 . S
C1163 C1164 1.355 . S
C1163 C1165 1.415 . S
C1164 C1163 1.355 . S
C1164 C1166 1.419 . S
C1165 C1160 1.425 . S
C1165 C1162 1.409 . S
C1165 C1163 1.415 . S
C1166 H1156 0.930 . S
C1166 C1164 1.419 . S
C1166 C1167 1.362 . S
C1167 H1157 0.930 . S
C1167 C1160 1.409 . S
C1167 C1166 1.362 . S
H1168 C1174 0.930 . S
H1169 C1177 0.930 . S
H1170 C1178 0.930 . S
H1171 C1179 0.930 . S
H1172 C1182 0.930 . S
H1173 C1183 0.930 . S
C1174 H1168 0.930 . S
C1174 C1175 1.355 . S
C1174 C1176 1.415 . S
C1175 C1174 1.355 . S
C1175 C1177 1.419 . S
C1176 C1174 1.415 . S
C1176 C1181 1.425 . S
C1176 C1183 1.409 . S
C1177 H1169 0.930 . S
C1177 C1175 1.419 . S
C1177 C1178 1.362 . S
C1178 H1170 0.930 . S
C1178 C1177 1.362 . S
C1178 C1181 1.409 . S
C1179 H1171 0.930 . S
C1179 C1180 1.355 . S
C1179 C1181 1.415 . S
C1180 C1179 1.355 . S
C1180 C1182 1.419 . S
C1181 C1176 1.425 . S
C1181 C1178 1.409 . S
C1181 C1179 1.415 . S
C1182 H1172 0.930 . S
C1182 C1180 1.419 . S
C1182 C1183 1.362 . S
C1183 H1173 0.930 . S
C1183 C1176 1.409 . S
C1183 C1182 1.362 . S
H1184 C1190 0.930 . S
H1185 C1193 0.930 . S
H1186 C1194 0.930 . S
H1187 C1195 0.930 . S
H1188 C1198 0.930 . S
H1189 C1199 0.930 . S
C1190 H1184 0.930 . S
C1190 C1191 1.355 . S
C1190 C1192 1.415 . S
C1191 C1190 1.355 . S
C1191 C1193 1.419 . S
C1192 C1190 1.415 . S
C1192 C1197 1.425 . S
C1192 C1199 1.409 . S
C1193 H1185 0.930 . S
C1193 C1191 1.419 . S
C1193 C1194 1.362 . S
C1194 H1186 0.930 . S
C1194 C1193 1.362 . S
C1194 C1197 1.409 . S
C1195 H1187 0.930 . S
C1195 C1196 1.355 . S
C1195 C1197 1.415 . S
C1196 C1195 1.355 . S
C1196 C1198 1.419 . S
C1197 C1192 1.425 . S
C1197 C1194 1.409 . S
C1197 C1195 1.415 . S
C1198 H1188 0.930 . S
C1198 C1196 1.419 . S
C1198 C1199 1.362 . S
C1199 H1189 0.930 . S
C1199 C1192 1.409 . S
C1199 C1198 1.362 . S
H1200 C1206 0.930 . S
H1201 C1209 0.930 . S
H1202 C1210 0.930 . S
H1203 C1211 0.930 . S
H1204 C1214 0.930 . S
H1205 C1215 0.930 . S
C1206 H1200 0.930 . S
C1206 C1207 1.355 . S
C1206 C1208 1.415 . S
C1207 C1206 1.355 . S
C1207 C1209 1.419 . S
C1208 C1206 1.415 . S
C1208 C1213 1.425 . S
C1208 C1215 1.409 . S
C1209 H1201 0.930 . S
C1209 C1207 1.419 . S
C1209 C1210 1.362 . S
C1210 H1202 0.930 . S
C1210 C1209 1.362 . S
C1210 C1213 1.409 . S
C1211 H1203 0.930 . S
C1211 C1212 1.355 . S
C1211 C1213 1.415 . S
C1212 C1211 1.355 . S
C1212 C1214 1.419 . S
C1213 C1208 1.425 . S
C1213 C1210 1.409 . S
C1213 C1211 1.415 . S
C1214 H1204 0.930 . S
C1214 C1212 1.419 . S
C1214 C1215 1.362 . S
C1215 H1205 0.930 . S
C1215 C1208 1.409 . S
C1215 C1214 1.362 . S
H1216 C1222 0.930 . S
H1217 C1225 0.930 . S
H1218 C1226 0.930 . S
H1219 C1227 0.930 . S
H1220 C1230 0.930 . S
H1221 C1231 0.930 . S
C1222 H1216 0.930 . S
C1222 C1223 1.355 . S
C1222 C1224 1.415 . S
C1223 C1222 1.355 . S
C1223 C1225 1.419 . S
C1224 C1222 1.415 . S
C1224 C1229 1.425 . S
C1224 C1231 1.409 . S
C1225 H1217 0.930 . S
C1225 C1223 1.419 . S
C1225 C1226 1.362 . S
C1226 H1218 0.930 . S
C1226 C1225 1.362 . S
C1226 C1229 1.409 . S
C1227 H1219 0.930 . S
C1227 C1228 1.355 . S
C1227 C1229 1.415 . S
C1228 C1227 1.355 . S
C1228 C1230 1.419 . S
C1229 C1224 1.425 . S
C1229 C1226 1.409 . S
C1229 C1227 1.415 . S
C1230 H1220 0.930 . S
C1230 C1228 1.419 . S
C1230 C1231 1.362 . S
C1231 H1221 0.930 . S
C1231 C1224 1.409 . S
C1231 C1230 1.362 . S
H1232 C1238 0.930 . S
H1233 C1241 0.930 . S
H1234 C1242 0.930 . S
H1235 C1243 0.930 . S
H1236 C1246 0.930 . S
H1237 C1247 0.930 . S
C1238 H1232 0.930 . S
C1238 C1239 1.355 . S
C1238 C1240 1.415 . S
C1239 C1238 1.355 . S
C1239 C1241 1.419 . S
C1240 C1238 1.415 . S
C1240 C1245 1.425 . S
C1240 C1247 1.409 . S
C1241 H1233 0.930 . S
C1241 C1239 1.419 . S
C1241 C1242 1.362 . S
C1242 H1234 0.930 . S
C1242 C1241 1.362 . S
C1242 C1245 1.409 . S
C1243 H1235 0.930 . S
C1243 C1244 1.355 . S
C1243 C1245 1.415 . S
C1244 C1243 1.355 . S
C1244 C1246 1.419 . S
C1245 C1240 1.425 . S
C1245 C1242 1.409 . S
C1245 C1243 1.415 . S
C1246 H1236 0.930 . S
C1246 C1244 1.419 . S
C1246 C1247 1.362 . S
C1247 H1237 0.930 . S
C1247 C1240 1.409 . S
C1247 C1246 1.362 . S
H1248 C1254 0.930 . S
H1249 C1257 0.930 . S
H1250 C1258 0.930 . S
H1251 C1259 0.930 . S
H1252 C1262 0.930 . S
H1253 C1263 0.930 . S
C1254 H1248 0.930 . S
C1254 C1255 1.355 . S
C1254 C1256 1.415 . S
C1255 C1254 1.355 . S
C1255 C1257 1.419 . S
C1256 C1254 1.415 . S
C1256 C1261 1.425 . S
C1256 C1263 1.409 . S
C1257 H1249 0.930 . S
C1257 C1255 1.419 . S
C1257 C1258 1.362 . S
C1258 H1250 0.930 . S
C1258 C1257 1.362 . S
C1258 C1261 1.409 . S
C1259 H1251 0.930 . S
C1259 C1260 1.355 . S
C1259 C1261 1.415 . S
C1260 C1259 1.355 . S
C1260 C1262 1.419 . S
C1261 C1256 1.425 . S
C1261 C1258 1.409 . S
C1261 C1259 1.415 . S
C1262 H1252 0.930 . S
C1262 C1260 1.419 . S
C1262 C1263 1.362 . S
C1263 H1253 0.930 . S
C1263 C1256 1.409 . S
C1263 C1262 1.362 . S
H1264 C1270 0.930 . S
H1265 C1273 0.930 . S
H1266 C1274 0.930 . S
H1267 C1275 0.930 . S
H1268 C1278 0.930 . S
H1269 C1279 0.930 . S
C1270 H1264 0.930 . S
C1270 C1271 1.355 . S
C1270 C1272 1.415 . S
C1271 C1270 1.355 . S
C1271 C1273 1.419 . S
C1272 C1270 1.415 . S
C1272 C1277 1.425 . S
C1272 C1279 1.409 . S
C1273 H1265 0.930 . S
C1273 C1271 1.419 . S
C1273 C1274 1.362 . S
C1274 H1266 0.930 . S
C1274 C1273 1.362 . S
C1274 C1277 1.409 . S
C1275 H1267 0.930 . S
C1275 C1276 1.355 . S
C1275 C1277 1.415 . S
C1276 C1275 1.355 . S
C1276 C1278 1.419 . S
C1277 C1272 1.425 . S
C1277 C1274 1.409 . S
C1277 C1275 1.415 . S
C1278 H1268 0.930 . S
C1278 C1276 1.419 . S
C1278 C1279 1.362 . S
C1279 H1269 0.930 . S
C1279 C1272 1.409 . S
C1279 C1278 1.362 . S
H1280 C1286 0.930 . S
H1281 C1289 0.930 . S
H1282 C1290 0.930 . S
H1283 C1291 0.930 . S
H1284 C1294 0.930 . S
H1285 C1295 0.930 . S
C1286 H1280 0.930 . S
C1286 C1287 1.355 . S
C1286 C1288 1.415 . S
C1287 C1286 1.355 . S
C1287 C1289 1.419 . S
C1288 C1286 1.415 . S
C1288 C1293 1.425 . S
C1288 C1295 1.409 . S
C1289 H1281 0.930 . S
C1289 C1287 1.419 . S
C1289 C1290 1.362 . S
C1290 H1282 0.930 . S
C1290 C1289 1.362 . S
C1290 C1293 1.409 . S
C1291 H1283 0.930 . S
C1291 C1292 1.355 . S
C1291 C1293 1.415 . S
C1292 C1291 1.355 . S
C1292 C1294 1.419 . S
C1293 C1288 1.425 . S
C1293 C1290 1.409 . S
C1293 C1291 1.415 . S
C1294 H1284 0.930 . S
C1294 C1292 1.419 . S
C1294 C1295 1.362 . S
C1295 H1285 0.930 . S
C1295 C1288 1.409 . S
C1295 C1294 1.362 . S
H1296 C1302 0.930 . S
H1297 C1305 0.930 . S
H1298 C1306 0.930 . S
H1299 C1307 0.930 . S
H1300 C1310 0.930 1_556 S
H1301 C1311 0.930 . S
C1302 H1296 0.930 . S
C1302 C1303 1.355 . S
C1302 C1304 1.415 . S
C1303 C1302 1.355 . S
C1303 C1305 1.419 . S
C1304 C1302 1.415 . S
C1304 C1309 1.425 . S
C1304 C1311 1.409 . S
C1305 H1297 0.930 . S
C1305 C1303 1.419 . S
C1305 C1306 1.362 . S
C1306 H1298 0.930 . S
C1306 C1305 1.362 . S
C1306 C1309 1.409 . S
C1307 H1299 0.930 . S
C1307 C1308 1.355 . S
C1307 C1309 1.415 . S
C1308 C1307 1.355 . S
C1308 C1310 1.419 . S
C1309 C1304 1.425 . S
C1309 C1306 1.409 . S
C1309 C1307 1.415 . S
C1310 H1300 0.930 1_554 S
C1310 C1308 1.419 . S
C1310 C1311 1.362 . S
C1311 H1301 0.930 . S
C1311 C1304 1.409 . S
C1311 C1310 1.362 . S
H1312 C1318 0.930 . S
H1313 C1321 0.930 . S
H1314 C1322 0.930 . S
H1315 C1323 0.930 . S
H1316 C1326 0.930 . S
H1317 C1327 0.930 . S
C1318 H1312 0.930 . S
C1318 C1319 1.355 . S
C1318 C1320 1.415 . S
C1319 C1318 1.355 . S
C1319 C1321 1.419 . S
C1320 C1318 1.415 . S
C1320 C1325 1.425 . S
C1320 C1327 1.409 . S
C1321 H1313 0.930 . S
C1321 C1319 1.419 . S
C1321 C1322 1.362 . S
C1322 H1314 0.930 . S
C1322 C1321 1.362 . S
C1322 C1325 1.409 . S
C1323 H1315 0.930 . S
C1323 C1324 1.355 . S
C1323 C1325 1.415 . S
C1324 C1323 1.355 . S
C1324 C1326 1.419 . S
C1325 C1320 1.425 . S
C1325 C1322 1.409 . S
C1325 C1323 1.415 . S
C1326 H1316 0.930 . S
C1326 C1324 1.419 . S
C1326 C1327 1.362 . S
C1327 H1317 0.930 . S
C1327 C1320 1.409 . S
C1327 C1326 1.362 . S
H1328 C1334 0.930 . S
H1329 C1337 0.930 . S
H1330 C1338 0.930 . S
H1331 C1339 0.930 . S
H1332 C1342 0.930 . S
H1333 C1343 0.930 . S
C1334 H1328 0.930 . S
C1334 C1335 1.355 . S
C1334 C1336 1.415 . S
C1335 C1334 1.355 . S
C1335 C1337 1.419 . S
C1336 C1334 1.415 . S
C1336 C1341 1.425 . S
C1336 C1343 1.409 . S
C1337 H1329 0.930 . S
C1337 C1335 1.419 . S
C1337 C1338 1.362 . S
C1338 H1330 0.930 . S
C1338 C1337 1.362 . S
C1338 C1341 1.409 . S
C1339 H1331 0.930 . S
C1339 C1340 1.355 . S
C1339 C1341 1.415 . S
C1340 C1339 1.355 . S
C1340 C1342 1.419 . S
C1341 C1336 1.425 . S
C1341 C1338 1.409 . S
C1341 C1339 1.415 . S
C1342 H1332 0.930 . S
C1342 C1340 1.419 . S
C1342 C1343 1.362 . S
C1343 H1333 0.930 . S
C1343 C1336 1.409 . S
C1343 C1342 1.362 . S
H1344 C1350 0.930 . S
H1345 C1353 0.930 . S
H1346 C1354 0.930 . S
H1347 C1355 0.930 . S
H1348 C1358 0.930 1_655 S
H1349 C1359 0.930 . S
C1350 H1344 0.930 . S
C1350 C1351 1.355 . S
C1350 C1352 1.415 . S
C1351 C1350 1.355 . S
C1351 C1353 1.419 . S
C1352 C1350 1.415 . S
C1352 C1357 1.425 . S
C1352 C1359 1.409 . S
C1353 H1345 0.930 . S
C1353 C1351 1.419 . S
C1353 C1354 1.362 . S
C1354 H1346 0.930 . S
C1354 C1353 1.362 . S
C1354 C1357 1.409 . S
C1355 H1347 0.930 . S
C1355 C1356 1.355 . S
C1355 C1357 1.415 . S
C1356 C1355 1.355 . S
C1356 C1358 1.419 . S
C1357 C1352 1.425 . S
C1357 C1354 1.409 . S
C1357 C1355 1.415 . S
C1358 H1348 0.930 1_455 S
C1358 C1356 1.419 . S
C1358 C1359 1.362 . S
C1359 H1349 0.930 . S
C1359 C1352 1.409 . S
C1359 C1358 1.362 . S
H1360 C1366 0.930 . S
H1361 C1369 0.930 1_545 S
H1362 C1370 0.930 . S
H1363 C1371 0.930 . S
H1364 C1374 0.930 . S
H1365 C1375 0.930 . S
C1366 H1360 0.930 . S
C1366 C1367 1.355 . S
C1366 C1368 1.415 . S
C1367 C1366 1.355 . S
C1367 C1369 1.419 . S
C1368 C1366 1.415 . S
C1368 C1373 1.425 . S
C1368 C1375 1.409 . S
C1369 H1361 0.930 1_565 S
C1369 C1367 1.419 . S
C1369 C1370 1.362 . S
C1370 H1362 0.930 . S
C1370 C1369 1.362 . S
C1370 C1373 1.409 . S
C1371 H1363 0.930 . S
C1371 C1372 1.355 . S
C1371 C1373 1.415 . S
C1372 C1371 1.355 . S
C1372 C1374 1.419 . S
C1373 C1368 1.425 . S
C1373 C1370 1.409 . S
C1373 C1371 1.415 . S
C1374 H1364 0.930 . S
C1374 C1372 1.419 . S
C1374 C1375 1.362 . S
C1375 H1365 0.930 . S
C1375 C1368 1.409 . S
C1375 C1374 1.362 . S
H1376 C1382 0.930 . S
H1377 C1385 0.930 . S
H1378 C1386 0.930 . S
H1379 C1387 0.930 . S
H1380 C1390 0.930 . S
H1381 C1391 0.930 . S
C1382 H1376 0.930 . S
C1382 C1383 1.355 . S
C1382 C1384 1.415 . S
C1383 C1382 1.355 . S
C1383 C1385 1.419 . S
C1384 C1382 1.415 . S
C1384 C1389 1.425 . S
C1384 C1391 1.409 . S
C1385 H1377 0.930 . S
C1385 C1383 1.419 . S
C1385 C1386 1.362 . S
C1386 H1378 0.930 . S
C1386 C1385 1.362 . S
C1386 C1389 1.409 . S
C1387 H1379 0.930 . S
C1387 C1388 1.355 . S
C1387 C1389 1.415 . S
C1388 C1387 1.355 . S
C1388 C1390 1.419 . S
C1389 C1384 1.425 . S
C1389 C1386 1.409 . S
C1389 C1387 1.415 . S
C1390 H1380 0.930 . S
C1390 C1388 1.419 . S
C1390 C1391 1.362 . S
C1391 H1381 0.930 . S
C1391 C1384 1.409 . S
C1391 C1390 1.362 . S
H1392 C1398 0.930 . S
H1393 C1401 0.930 . S
H1394 C1402 0.930 . S
H1395 C1403 0.930 . S
H1396 C1406 0.930 . S
H1397 C1407 0.930 . S
C1398 H1392 0.930 . S
C1398 C1399 1.355 . S
C1398 C1400 1.415 . S
C1399 C1398 1.355 . S
C1399 C1401 1.419 . S
C1400 C1398 1.415 . S
C1400 C1405 1.425 . S
C1400 C1407 1.409 . S
C1401 H1393 0.930 . S
C1401 C1399 1.419 . S
C1401 C1402 1.362 . S
C1402 H1394 0.930 . S
C1402 C1401 1.362 . S
C1402 C1405 1.409 . S
C1403 H1395 0.930 . S
C1403 C1404 1.355 . S
C1403 C1405 1.415 . S
C1404 C1403 1.355 . S
C1404 C1406 1.419 . S
C1405 C1400 1.425 . S
C1405 C1402 1.409 . S
C1405 C1403 1.415 . S
C1406 H1396 0.930 . S
C1406 C1404 1.419 . S
C1406 C1407 1.362 . S
C1407 H1397 0.930 . S
C1407 C1400 1.409 . S
C1407 C1406 1.362 . S
H1408 C1414 0.930 . S
H1409 C1417 0.930 . S
H1410 C1418 0.930 . S
H1411 C1419 0.930 . S
H1412 C1422 0.930 . S
H1413 C1423 0.930 . S
C1414 H1408 0.930 . S
C1414 C1415 1.355 . S
C1414 C1416 1.415 . S
C1415 C1414 1.355 . S
C1415 C1417 1.419 . S
C1416 C1414 1.415 . S
C1416 C1421 1.425 . S
C1416 C1423 1.409 . S
C1417 H1409 0.930 . S
C1417 C1415 1.419 . S
C1417 C1418 1.362 . S
C1418 H1410 0.930 . S
C1418 C1417 1.362 . S
C1418 C1421 1.409 . S
C1419 H1411 0.930 . S
C1419 C1420 1.355 . S
C1419 C1421 1.415 . S
C1420 C1419 1.355 . S
C1420 C1422 1.419 . S
C1421 C1416 1.425 . S
C1421 C1418 1.409 . S
C1421 C1419 1.415 . S
C1422 H1412 0.930 . S
C1422 C1420 1.419 . S
C1422 C1423 1.362 . S
C1423 H1413 0.930 . S
C1423 C1416 1.409 . S
C1423 C1422 1.362 . S
H1424 C1430 0.930 . S
H1425 C1433 0.930 . S
H1426 C1434 0.930 . S
H1427 C1435 0.930 . S
H1428 C1438 0.930 . S
H1429 C1439 0.930 . S
C1430 H1424 0.930 . S
C1430 C1431 1.355 . S
C1430 C1432 1.415 . S
C1431 C1430 1.355 . S
C1431 C1433 1.419 . S
C1432 C1430 1.415 . S
C1432 C1437 1.425 . S
C1432 C1439 1.409 . S
C1433 H1425 0.930 . S
C1433 C1431 1.419 . S
C1433 C1434 1.362 . S
C1434 H1426 0.930 . S
C1434 C1433 1.362 . S
C1434 C1437 1.409 . S
C1435 H1427 0.930 . S
C1435 C1436 1.355 . S
C1435 C1437 1.415 . S
C1436 C1435 1.355 . S
C1436 C1438 1.419 . S
C1437 C1432 1.425 . S
C1437 C1434 1.409 . S
C1437 C1435 1.415 . S
C1438 H1428 0.930 . S
C1438 C1436 1.419 . S
C1438 C1439 1.362 . S
C1439 H1429 0.930 . S
C1439 C1432 1.409 . S
C1439 C1438 1.362 . S
H1440 C1446 0.930 . S
H1441 C1449 0.930 . S
H1442 C1450 0.930 . S
H1443 C1451 0.930 . S
H1444 C1454 0.930 . S
H1445 C1455 0.930 . S
C1446 H1440 0.930 . S
C1446 C1447 1.355 . S
C1446 C1448 1.415 . S
C1447 C1446 1.355 . S
C1447 C1449 1.419 . S
C1448 C1446 1.415 . S
C1448 C1453 1.425 . S
C1448 C1455 1.409 . S
C1449 H1441 0.930 . S
C1449 C1447 1.419 . S
C1449 C1450 1.362 . S
C1450 H1442 0.930 . S
C1450 C1449 1.362 . S
C1450 C1453 1.409 . S
C1451 H1443 0.930 . S
C1451 C1452 1.355 . S
C1451 C1453 1.415 . S
C1452 C1451 1.355 . S
C1452 C1454 1.419 . S
C1453 C1448 1.425 . S
C1453 C1450 1.409 . S
C1453 C1451 1.415 . S
C1454 H1444 0.930 . S
C1454 C1452 1.419 . S
C1454 C1455 1.362 . S
C1455 H1445 0.930 . S
C1455 C1448 1.409 . S
C1455 C1454 1.362 . S
H1456 C1462 0.930 . S
H1457 C1465 0.930 . S
H1458 C1466 0.930 . S
H1459 C1467 0.930 . S
H1460 C1470 0.930 . S
H1461 C1471 0.930 . S
C1462 H1456 0.930 . S
C1462 C1463 1.355 . S
C1462 C1464 1.415 . S
C1463 C1462 1.355 . S
C1463 C1465 1.419 . S
C1464 C1462 1.415 . S
C1464 C1469 1.425 . S
C1464 C1471 1.409 . S
C1465 H1457 0.930 . S
C1465 C1463 1.419 . S
C1465 C1466 1.362 . S
C1466 H1458 0.930 . S
C1466 C1465 1.362 . S
C1466 C1469 1.409 . S
C1467 H1459 0.930 . S
C1467 C1468 1.355 . S
C1467 C1469 1.415 . S
C1468 C1467 1.355 . S
C1468 C1470 1.419 . S
C1469 C1464 1.425 . S
C1469 C1466 1.409 . S
C1469 C1467 1.415 . S
C1470 H1460 0.930 . S
C1470 C1468 1.419 . S
C1470 C1471 1.362 . S
C1471 H1461 0.930 . S
C1471 C1464 1.409 . S
C1471 C1470 1.362 . S
H1472 C1478 0.930 . S
H1473 C1481 0.930 . S
H1474 C1482 0.930 . S
H1475 C1483 0.930 . S
H1476 C1486 0.930 . S
H1477 C1487 0.930 . S
C1478 H1472 0.930 . S
C1478 C1479 1.355 . S
C1478 C1480 1.415 . S
C1479 C1478 1.355 . S
C1479 C1481 1.419 . S
C1480 C1478 1.415 . S
C1480 C1485 1.425 . S
C1480 C1487 1.409 . S
C1481 H1473 0.930 . S
C1481 C1479 1.419 . S
C1481 C1482 1.362 . S
C1482 H1474 0.930 . S
C1482 C1481 1.362 . S
C1482 C1485 1.409 . S
C1483 H1475 0.930 . S
C1483 C1484 1.355 . S
C1483 C1485 1.415 . S
C1484 C1483 1.355 . S
C1484 C1486 1.419 . S
C1485 C1480 1.425 . S
C1485 C1482 1.409 . S
C1485 C1483 1.415 . S
C1486 H1476 0.930 . S
C1486 C1484 1.419 . S
C1486 C1487 1.362 . S
C1487 H1477 0.930 . S
C1487 C1480 1.409 . S
C1487 C1486 1.362 . S
H1488 C1494 0.930 . S
H1489 C1497 0.930 . S
H1490 C1498 0.930 . S
H1491 C1499 0.930 . S
H1492 C1502 0.930 . S
H1493 C1503 0.930 . S
C1494 H1488 0.930 . S
C1494 C1495 1.355 . S
C1494 C1496 1.415 . S
C1495 C1494 1.355 . S
C1495 C1497 1.419 . S
C1496 C1494 1.415 . S
C1496 C1501 1.425 . S
C1496 C1503 1.409 . S
C1497 H1489 0.930 . S
C1497 C1495 1.419 . S
C1497 C1498 1.362 . S
C1498 H1490 0.930 . S
C1498 C1497 1.362 . S
C1498 C1501 1.409 . S
C1499 H1491 0.930 . S
C1499 C1500 1.355 . S
C1499 C1501 1.415 . S
C1500 C1499 1.355 . S
C1500 C1502 1.419 . S
C1501 C1496 1.425 . S
C1501 C1498 1.409 . S
C1501 C1499 1.415 . S
C1502 H1492 0.930 . S
C1502 C1500 1.419 . S
C1502 C1503 1.362 . S
C1503 H1493 0.930 . S
C1503 C1496 1.409 . S
C1503 C1502 1.362 . S
H1504 C1510 0.930 . S
H1505 C1513 0.930 . S
H1506 C1514 0.930 . S
H1507 C1515 0.930 . S
H1508 C1518 0.930 . S
H1509 C1519 0.930 . S
C1510 H1504 0.930 . S
C1510 C1511 1.355 . S
C1510 C1512 1.415 . S
C1511 C1510 1.355 . S
C1511 C1513 1.419 . S
C1512 C1510 1.415 . S
C1512 C1517 1.425 . S
C1512 C1519 1.409 . S
C1513 H1505 0.930 . S
C1513 C1511 1.419 . S
C1513 C1514 1.362 . S
C1514 H1506 0.930 . S
C1514 C1513 1.362 . S
C1514 C1517 1.409 . S
C1515 H1507 0.930 . S
C1515 C1516 1.355 . S
C1515 C1517 1.415 . S
C1516 C1515 1.355 . S
C1516 C1518 1.419 . S
C1517 C1512 1.425 . S
C1517 C1514 1.409 . S
C1517 C1515 1.415 . S
C1518 H1508 0.930 . S
C1518 C1516 1.419 . S
C1518 C1519 1.362 . S
C1519 H1509 0.930 . S
C1519 C1512 1.409 . S
C1519 C1518 1.362 . S
H1520 C1526 0.930 . S
H1521 C1529 0.930 . S
H1522 C1530 0.930 . S
H1523 C1531 0.930 . S
H1524 C1534 0.930 . S
H1525 C1535 0.930 . S
C1526 H1520 0.930 . S
C1526 C1527 1.355 . S
C1526 C1528 1.415 . S
C1527 C1526 1.355 . S
C1527 C1529 1.419 . S
C1528 C1526 1.415 . S
C1528 C1533 1.425 . S
C1528 C1535 1.409 . S
C1529 H1521 0.930 . S
C1529 C1527 1.419 . S
C1529 C1530 1.362 . S
C1530 H1522 0.930 . S
C1530 C1529 1.362 . S
C1530 C1533 1.409 . S
C1531 H1523 0.930 . S
C1531 C1532 1.355 . S
C1531 C1533 1.415 . S
C1532 C1531 1.355 . S
C1532 C1534 1.419 . S
C1533 C1528 1.425 . S
C1533 C1530 1.409 . S
C1533 C1531 1.415 . S
C1534 H1524 0.930 . S
C1534 C1532 1.419 . S
C1534 C1535 1.362 . S
C1535 H1525 0.930 . S
C1535 C1528 1.409 . S
C1535 C1534 1.362 . S
H1536 C1542 0.930 . S
H1537 C1545 0.930 . S
H1538 C1546 0.930 . S
H1539 C1547 0.930 . S
H1540 C1550 0.930 1_455 S
H1541 C1551 0.930 . S
C1542 H1536 0.930 . S
C1542 C1543 1.355 . S
C1542 C1544 1.415 . S
C1543 C1542 1.355 . S
C1543 C1545 1.419 . S
C1544 C1542 1.415 . S
C1544 C1549 1.425 . S
C1544 C1551 1.409 . S
C1545 H1537 0.930 . S
C1545 C1543 1.419 . S
C1545 C1546 1.362 . S
C1546 H1538 0.930 . S
C1546 C1545 1.362 . S
C1546 C1549 1.409 . S
C1547 H1539 0.930 . S
C1547 C1548 1.355 . S
C1547 C1549 1.415 . S
C1548 C1547 1.355 . S
C1548 C1550 1.419 . S
C1549 C1544 1.425 . S
C1549 C1546 1.409 . S
C1549 C1547 1.415 . S
C1550 H1540 0.930 1_655 S
C1550 C1548 1.419 . S
C1550 C1551 1.362 . S
C1551 H1541 0.930 . S
C1551 C1544 1.409 . S
C1551 C1550 1.362 . S
H1552 C1558 0.930 . S
H1553 C1561 0.930 1_565 S
H1554 C1562 0.930 . S
H1555 C1563 0.930 . S
H1556 C1566 0.930 . S
H1557 C1567 0.930 . S
C1558 H1552 0.930 . S
C1558 C1559 1.355 . S
C1558 C1560 1.415 . S
C1559 C1558 1.355 . S
C1559 C1561 1.419 . S
C1560 C1558 1.415 . S
C1560 C1565 1.425 . S
C1560 C1567 1.409 . S
C1561 H1553 0.930 1_545 S
C1561 C1559 1.419 . S
C1561 C1562 1.362 . S
C1562 H1554 0.930 . S
C1562 C1561 1.362 . S
C1562 C1565 1.409 . S
C1563 H1555 0.930 . S
C1563 C1564 1.355 . S
C1563 C1565 1.415 . S
C1564 C1563 1.355 . S
C1564 C1566 1.419 . S
C1565 C1560 1.425 . S
C1565 C1562 1.409 . S
C1565 C1563 1.415 . S
C1566 H1556 0.930 . S
C1566 C1564 1.419 . S
C1566 C1567 1.362 . S
C1567 H1557 0.930 . S
C1567 C1560 1.409 . S
C1567 C1566 1.362 . S
H1568 C1574 0.930 . S
H1569 C1577 0.930 . S
H1570 C1578 0.930 . S
H1571 C1579 0.930 . S
H1572 C1582 0.930 . S
H1573 C1583 0.930 . S
C1574 H1568 0.930 . S
C1574 C1575 1.355 . S
C1574 C1576 1.415 . S
C1575 C1574 1.355 . S
C1575 C1577 1.419 . S
C1576 C1574 1.415 . S
C1576 C1581 1.425 . S
C1576 C1583 1.409 . S
C1577 H1569 0.930 . S
C1577 C1575 1.419 . S
C1577 C1578 1.362 . S
C1578 H1570 0.930 . S
C1578 C1577 1.362 . S
C1578 C1581 1.409 . S
C1579 H1571 0.930 . S
C1579 C1580 1.355 . S
C1579 C1581 1.415 . S
C1580 C1579 1.355 . S
C1580 C1582 1.419 . S
C1581 C1576 1.425 . S
C1581 C1578 1.409 . S
C1581 C1579 1.415 . S
C1582 H1572 0.930 . S
C1582 C1580 1.419 . S
C1582 C1583 1.362 . S
C1583 H1573 0.930 . S
C1583 C1576 1.409 . S
C1583 C1582 1.362 . S
H1584 C1590 0.930 . S
H1585 C1593 0.930 . S
H1586 C1594 0.930 . S
H1587 C1595 0.930 . S
H1588 C1598 0.930 . S
H1589 C1599 0.930 . S
C1590 H1584 0.930 . S
C1590 C1591 1.355 . S
C1590 C1592 1.415 . S
C1591 C1590 1.355 . S
C1591 C1593 1.419 . S
C1592 C1590 1.415 . S
C1592 C1597 1.425 . S
C1592 C1599 1.409 . S
C1593 H1585 0.930 . S
C1593 C1591 1.419 . S
C1593 C1594 1.362 . S
C1594 H1586 0.930 . S
C1594 C1593 1.362 . S
C1594 C1597 1.409 . S
C1595 H1587 0.930 . S
C1595 C1596 1.355 . S
C1595 C1597 1.415 . S
C1596 C1595 1.355 . S
C1596 C1598 1.419 . S
C1597 C1592 1.425 . S
C1597 C1594 1.409 . S
C1597 C1595 1.415 . S
C1598 H1588 0.930 . S
C1598 C1596 1.419 . S
C1598 C1599 1.362 . S
C1599 H1589 0.930 . S
C1599 C1592 1.409 . S
C1599 C1598 1.362 . S
H1600 C1606 0.930 . S
H1601 C1609 0.930 . S
H1602 C1610 0.930 . S
H1603 C1611 0.930 . S
H1604 C1614 0.930 . S
H1605 C1615 0.930 . S
C1606 H1600 0.930 . S
C1606 C1607 1.355 . S
C1606 C1608 1.415 . S
C1607 C1606 1.355 . S
C1607 C1609 1.419 . S
C1608 C1606 1.415 . S
C1608 C1613 1.425 . S
C1608 C1615 1.409 . S
C1609 H1601 0.930 . S
C1609 C1607 1.419 . S
C1609 C1610 1.362 . S
C1610 H1602 0.930 . S
C1610 C1609 1.362 . S
C1610 C1613 1.409 . S
C1611 H1603 0.930 . S
C1611 C1612 1.355 . S
C1611 C1613 1.415 . S
C1612 C1611 1.355 . S
C1612 C1614 1.419 . S
C1613 C1608 1.425 . S
C1613 C1610 1.409 . S
C1613 C1611 1.415 . S
C1614 H1604 0.930 . S
C1614 C1612 1.419 . S
C1614 C1615 1.362 . S
C1615 H1605 0.930 . S
C1615 C1608 1.409 . S
C1615 C1614 1.362 . S
H1616 C1622 0.930 . S
H1617 C1625 0.930 . S
H1618 C1626 0.930 . S
H1619 C1627 0.930 . S
H1620 C1630 0.930 1_545 S
H1621 C1631 0.930 . S
C1622 H1616 0.930 . S
C1622 C1623 1.355 . S
C1622 C1624 1.415 . S
C1623 C1622 1.355 . S
C1623 C1625 1.419 . S
C1624 C1622 1.415 . S
C1624 C1629 1.425 . S
C1624 C1631 1.409 . S
C1625 H1617 0.930 . S
C1625 C1623 1.419 . S
C1625 C1626 1.362 . S
C1626 H1618 0.930 . S
C1626 C1625 1.362 . S
C1626 C1629 1.409 . S
C1627 H1619 0.930 . S
C1627 C1628 1.355 . S
C1627 C1629 1.415 . S
C1628 C1627 1.355 . S
C1628 C1630 1.419 . S
C1629 C1624 1.425 . S
C1629 C1626 1.409 . S
C1629 C1627 1.415 . S
C1630 H1620 0.930 1_565 S
C1630 C1628 1.419 . S
C1630 C1631 1.362 . S
C1631 H1621 0.930 . S
C1631 C1624 1.409 . S
C1631 C1630 1.362 . S
H1632 C1638 0.930 . S
H1633 C1641 0.930 . S
H1634 C1642 0.930 . S
H1635 C1643 0.930 . S
H1636 C1646 0.930 1_554 S
H1637 C1647 0.930 . S
C1638 H1632 0.930 . S
C1638 C1639 1.355 . S
C1638 C1640 1.415 . S
C1639 C1638 1.355 . S
C1639 C1641 1.419 . S
C1640 C1638 1.415 . S
C1640 C1645 1.425 . S
C1640 C1647 1.409 . S
C1641 H1633 0.930 . S
C1641 C1639 1.419 . S
C1641 C1642 1.362 . S
C1642 H1634 0.930 . S
C1642 C1641 1.362 . S
C1642 C1645 1.409 . S
C1643 H1635 0.930 . S
C1643 C1644 1.355 . S
C1643 C1645 1.415 . S
C1644 C1643 1.355 . S
C1644 C1646 1.419 . S
C1645 C1640 1.425 . S
C1645 C1642 1.409 . S
C1645 C1643 1.415 . S
C1646 H1636 0.930 1_556 S
C1646 C1644 1.419 . S
C1646 C1647 1.362 . S
C1647 H1637 0.930 . S
C1647 C1640 1.409 . S
C1647 C1646 1.362 . S
H1648 C1654 0.930 . S
H1649 C1657 0.930 . S
H1650 C1658 0.930 . S
H1651 C1659 0.930 . S
H1652 C1662 0.930 . S
H1653 C1663 0.930 . S
C1654 H1648 0.930 . S
C1654 C1655 1.355 . S
C1654 C1656 1.415 . S
C1655 C1654 1.355 . S
C1655 C1657 1.419 . S
C1656 C1654 1.415 . S
C1656 C1661 1.425 . S
C1656 C1663 1.409 . S
C1657 H1649 0.930 . S
C1657 C1655 1.419 . S
C1657 C1658 1.362 . S
C1658 H1650 0.930 . S
C1658 C1657 1.362 . S
C1658 C1661 1.409 . S
C1659 H1651 0.930 . S
C1659 C1660 1.355 . S
C1659 C1661 1.415 . S
C1660 C1659 1.355 . S
C1660 C1662 1.419 . S
C1661 C1656 1.425 . S
C1661 C1658 1.409 . S
C1661 C1659 1.415 . S
C1662 H1652 0.930 . S
C1662 C1660 1.419 . S
C1662 C1663 1.362 . S
C1663 H1653 0.930 . S
C1663 C1656 1.409 . S
C1663 C1662 1.362 . S
H1664 C1670 0.930 . S
H1665 C1673 0.930 . S
H1666 C1674 0.930 . S
H1667 C1675 0.930 . S
H1668 C1678 0.930 . S
H1669 C1679 0.930 . S
C1670 H1664 0.930 . S
C1670 C1671 1.355 . S
C1670 C1672 1.415 . S
C1671 C1670 1.355 . S
C1671 C1673 1.419 . S
C1672 C1670 1.415 . S
C1672 C1677 1.425 . S
C1672 C1679 1.409 . S
C1673 H1665 0.930 . S
C1673 C1671 1.419 . S
C1673 C1674 1.362 . S
C1674 H1666 0.930 . S
C1674 C1673 1.362 . S
C1674 C1677 1.409 . S
C1675 H1667 0.930 . S
C1675 C1676 1.355 . S
C1675 C1677 1.415 . S
C1676 C1675 1.355 . S
C1676 C1678 1.419 . S
C1677 C1672 1.425 . S
C1677 C1674 1.409 . S
C1677 C1675 1.415 . S
C1678 H1668 0.930 . S
C1678 C1676 1.419 . S
C1678 C1679 1.362 . S
C1679 H1669 0.930 . S
C1679 C1672 1.409 . S
C1679 C1678 1.362 . S
C535 C7 1.769 . S
C540 C401 1.675 . S
C551 C427 1.733 . S
C556 C29 1.743 . S
C567 C50 1.750 . S
C572 C361 1.718 . S
C583 C72 1.773 . S
C588 C379 1.668 . S
C599 C489 1.683 . S
C604 C95 1.766 . S
C615 C116 1.765 . S
C620 C467 1.687 . S
C631 C515 1.729 . S
C636 C138 1.745 . S
C647 C161 1.758 . S
C652 C449 1.701 . S
C663 C183 1.767 . S
C668 C291 1.681 . S
C679 C204 1.770 . S
C684 C335 1.674 . S
C695 C313 1.681 . S
C700 C226 1.767 . S
C711 C249 1.769 . S
C716 C269 1.677 . S
C727 C273 1.750 . S
C732 C139 1.718 . S
C743 C295 1.743 . S
C748 C160 1.733 . S
C759 C317 1.745 . S
C764 C94 1.728 . S
C775 C117 1.733 . S
C780 C339 1.743 . S
C791 C357 1.773 . S
C796 C227 1.668 . S
C807 C205 1.723 . S
C812 C383 1.748 . S
C823 C248 1.703 . S
C828 C405 1.757 . S
C839 C182 1.722 . S
C844 C423 1.748 . S
C855 C28 1.667 . S
C860 C445 1.774 . S
C871 C73 1.678 . S
C876 C471 1.768 . S
C887 C51 1.732 . S
C892 C493 1.743 . S
C903 C511 1.743 . S
C908 C6 1.732 . S
C919 C96 1.288 . S
C924 C9 1.198 . S
C935 C114 1.294 . S
C940 C31 1.183 . S
C951 C136 1.286 . S
C956 C49 1.162 . S
C967 C162 1.311 . S
C972 C71 1.267 . S
C983 C97 1.253 . S
C988 C184 1.305 . S
C999 C115 1.170 . S
C1004 C250 1.282 . S
C1015 C137 1.159 . S
C1020 C202 1.285 . S
C1031 C163 1.267 . S
C1036 C224 1.314 . S
C1047 C185 1.153 . S
C1052 C8 1.281 . S
C1063 C203 1.258 . S
C1068 C48 1.313 . S
C1079 C225 1.183 . S
C1084 C70 1.285 . S
C1095 C30 1.308 . S
C1100 C251 1.260 . S
C1111 C356 1.302 . S
C1116 C271 1.243 . S
C1127 C382 1.281 . S
C1132 C293 1.154 . S
C1143 C315 1.161 . S
C1148 C404 1.281 . S
C1159 C337 1.165 . S
C1164 C422 1.281 . S
C1175 C444 1.314 . S
C1180 C358 1.268 . S
C1191 C381 1.243 . S
C1196 C510 1.302 . S
C1207 C470 1.314 . S
C1212 C403 1.265 . S
C1223 C424 1.269 . S
C1228 C492 1.312 . S
C1239 C272 1.284 . S
C1244 C446 1.156 . S
C1255 C469 1.181 . S
C1260 C316 1.293 . S
C1271 C491 1.154 . S
C1276 C338 1.282 . S
C1287 C294 1.307 . S
C1292 C512 1.257 . S
C1303 C4 1.345 . S
C1308 C207 1.367 . S
C1319 C229 1.326 . S
C1324 C26 1.339 . S
C1335 C181 1.377 . S
C1340 C52 1.306 . S
C1351 C247 1.336 . S
C1356 C74 1.294 . S
C1367 C92 1.295 . S
C1372 C75 1.362 . S
C1383 C53 1.347 . S
C1388 C118 1.334 . S
C1399 C140 1.345 . S
C1404 C27 1.331 . S
C1415 C5 1.371 . S
C1420 C158 1.341 . S
C1431 C180 1.329 . S
C1436 C119 1.350 . S
C1447 C206 1.327 . S
C1452 C159 1.348 . S
C1463 C228 1.343 . S
C1468 C141 1.343 . S
C1479 C246 1.316 . S
C1484 C93 1.378 . S
C1495 C268 1.339 . S
C1500 C468 1.373 . S
C1511 C290 1.308 . S
C1516 C490 1.347 . S
C1527 C447 1.352 . S
C1532 C312 1.337 . S
C1543 C513 1.333 . S
C1548 C334 1.294 . S
C1559 C360 1.307 . S
C1564 C336 1.377 . S
C1575 C378 1.344 . S
C1580 C314 1.330 . S
C1591 C292 1.324 . S
C1596 C400 1.306 . S
C1607 C426 1.333 . S
C1612 C270 1.376 . S
C1623 C448 1.335 . S
C1628 C380 1.351 . S
C1639 C425 1.327 . S
C1644 C466 1.299 . S
C1655 C488 1.341 . S
C1660 C402 1.327 . S
C1671 C514 1.294 . S
C1676 C359 1.368 . S
