# Generated by pormake.
# Topology sod, (4)-cn, num edge types: 1
# Building blocks:
#     Node 0, Type 0, BuildingBlock: GALJAG_clean_sbu_0, # of connection points: 4
#     Node 1, Type 0, BuildingBlock: GALJAG_clean_sbu_0, # of connection points: 4
#     Node 2, Type 0, BuildingBlock: GALJAG_clean_sbu_0, # of connection points: 4
#     Node 3, Type 0, BuildingBlock: GALJAG_clean_sbu_0, # of connection points: 4
#     Node 4, Type 0, BuildingBlock: GALJAG_clean_sbu_0, # of connection points: 4
#     Node 5, Type 0, BuildingBlock: GALJAG_clean_sbu_0, # of connection points: 4
#     Node 6, Type 0, BuildingBlock: GALJAG_clean_sbu_0, # of connection points: 4
#     Node 7, Type 0, BuildingBlock: GALJAG_clean_sbu_0, # of connection points: 4
#     Node 8, Type 0, BuildingBlock: GALJAG_clean_sbu_0, # of connection points: 4
#     Node 9, Type 0, BuildingBlock: GALJAG_clean_sbu_0, # of connection points: 4
#     Node 10, Type 0, BuildingBlock: GALJAG_clean_sbu_0, # of connection points: 4
#     Node 11, Type 0, BuildingBlock: GALJAG_clean_sbu_0, # of connection points: 4
#     Edge 12, Type (0, 0), BuildingBlock: AJUNOK_clean_linker_0, # of connection points: 2
#     Edge 13, Type (0, 0), BuildingBlock: AJUNOK_clean_linker_0, # of connection points: 2
#     Edge 14, Type (0, 0), BuildingBlock: AJUNOK_clean_linker_0, # of connection points: 2
#     Edge 15, Type (0, 0), BuildingBlock: AJUNOK_clean_linker_0, # of connection points: 2
#     Edge 16, Type (0, 0), BuildingBlock: AJUNOK_clean_linker_0, # of connection points: 2
#     Edge 17, Type (0, 0), BuildingBlock: AJUNOK_clean_linker_0, # of connection points: 2
#     Edge 18, Type (0, 0), BuildingBlock: AJUNOK_clean_linker_0, # of connection points: 2
#     Edge 19, Type (0, 0), BuildingBlock: AJUNOK_clean_linker_0, # of connection points: 2
#     Edge 20, Type (0, 0), BuildingBlock: AJUNOK_clean_linker_0, # of connection points: 2
#     Edge 21, Type (0, 0), BuildingBlock: AJUNOK_clean_linker_0, # of connection points: 2
#     Edge 22, Type (0, 0), BuildingBlock: AJUNOK_clean_linker_0, # of connection points: 2
#     Edge 23, Type (0, 0), BuildingBlock: AJUNOK_clean_linker_0, # of connection points: 2
#     Edge 24, Type (0, 0), BuildingBlock: AJUNOK_clean_linker_0, # of connection points: 2
#     Edge 25, Type (0, 0), BuildingBlock: AJUNOK_clean_linker_0, # of connection points: 2
#     Edge 26, Type (0, 0), BuildingBlock: AJUNOK_clean_linker_0, # of connection points: 2
#     Edge 27, Type (0, 0), BuildingBlock: AJUNOK_clean_linker_0, # of connection points: 2
#     Edge 28, Type (0, 0), BuildingBlock: AJUNOK_clean_linker_0, # of connection points: 2
#     Edge 29, Type (0, 0), BuildingBlock: AJUNOK_clean_linker_0, # of connection points: 2
#     Edge 30, Type (0, 0), BuildingBlock: AJUNOK_clean_linker_0, # of connection points: 2
#     Edge 31, Type (0, 0), BuildingBlock: AJUNOK_clean_linker_0, # of connection points: 2
#     Edge 32, Type (0, 0), BuildingBlock: AJUNOK_clean_linker_0, # of connection points: 2
#     Edge 33, Type (0, 0), BuildingBlock: AJUNOK_clean_linker_0, # of connection points: 2
#     Edge 34, Type (0, 0), BuildingBlock: AJUNOK_clean_linker_0, # of connection points: 2
#     Edge 35, Type (0, 0), BuildingBlock: AJUNOK_clean_linker_0, # of connection points: 2
# Relax obj value: 0.078
# Max RMSD: 0.153
# Mean RMSD: 0.153
data_MOF--net-sod--node1-GALJAG_clean_sbu_0--edge1-AJUNOK_clean_linker_0
_symmetry_space_group_name_H-M    P1
_symmetry_Int_Tables_number       1
_symmetry_cell_setting            triclinic
loop_
_symmetry_equiv_pos_as_xyz
'x, y, z'
_cell_length_a     31.756719
_cell_length_b     31.691152
_cell_length_c     31.721348
_cell_angle_alpha  89.943677
_cell_angle_beta   89.938464
_cell_angle_gamma 90.02417
loop_
_atom_site_label
_atom_site_type_symbol
_atom_site_fract_x
_atom_site_fract_y
_atom_site_fract_z
_atom_type_partial_charge
In0 In 1.00178 0.25392 0.50297 0.0
O1 O 0.94777 0.21703 0.53339 0.0
O2 O 0.95993 0.2069 0.46846 0.0
C3 C 1.00179 0.30984 0.56739 0.0
C4 C 0.0661 0.19816 0.50661 0.0
C5 C 1.00162 0.30876 0.43749 0.0
O6 O 0.96877 0.29979 0.54774 0.0
O7 O 0.03461 0.2915 0.55464 0.0
O8 O 0.03476 0.29875 0.45697 0.0
O9 O 0.96876 0.29092 0.45095 0.0
C10 C 0.93783 0.19758 0.50016 0.0
O11 O 0.05624 0.2174 0.4732 0.0
O12 O 0.04371 0.20738 0.53812 0.0
In13 In 0.7516 0.00379 0.50295 0.0
O14 O 0.71374 0.96863 0.55308 0.0
O15 O 0.70766 0.03515 0.55073 0.0
C16 C 0.80667 0.93876 0.50199 0.0
C17 C 0.69559 0.00705 0.43886 0.0
C18 C 0.80814 0.06758 0.50037 0.0
O19 O 0.79938 0.96025 0.53466 0.0
O20 O 0.78596 0.94997 0.47 0.0
O21 O 0.79727 0.04696 0.46819 0.0
O22 O 0.79017 0.05619 0.53402 0.0
C23 C 0.69655 1.00113 0.56815 0.0
O24 O 0.71302 0.03949 0.45382 0.0
O25 O 0.70659 0.97295 0.45615 0.0
In26 In 1.00159 0.7542 0.49985 0.0
O27 O 0.03633 0.71024 0.54488 0.0
O28 O 0.97027 0.71593 0.55242 0.0
C29 C 0.06485 0.81132 0.49723 0.0
C30 C 0.0028 0.69814 0.43559 0.0
C31 C 0.93605 0.80869 0.50049 0.0
O32 O 0.05398 0.7927 0.53069 0.0
O33 O 0.04395 0.80087 0.46511 0.0
O34 O 0.94721 0.78871 0.46801 0.0
O35 O 0.95772 0.80081 0.53286 0.0
C36 C 0.00394 0.69894 0.56493 0.0
O37 O 0.03508 0.71794 0.44754 0.0
O38 O 0.96978 0.70685 0.45592 0.0
In39 In 0.2518 0.00425 0.50327 0.0
O40 O 0.21284 0.9513 0.53276 0.0
O41 O 0.20684 0.96144 0.46697 0.0
C42 C 0.3082 0.00859 0.43943 0.0
C43 C 0.19615 0.06874 0.50698 0.0
C44 C 0.30712 0.99953 0.56791 0.0
O45 O 0.2906 0.97458 0.45031 0.0
O46 O 0.297 0.04036 0.46054 0.0
O47 O 0.29026 0.0337 0.55646 0.0
O48 O 0.29572 0.96772 0.54697 0.0
C49 C 0.19535 0.94045 0.49877 0.0
O50 O 0.20704 0.04779 0.53898 0.0
O51 O 0.21378 0.05745 0.47318 0.0
In52 In 0.50192 0.00915 0.25328 0.0
O53 O 0.54609 0.97673 0.29977 0.0
O54 O 0.55433 0.04237 0.28963 0.0
C55 C 0.50313 0.94314 0.19927 0.0
C56 C 0.43793 0.01116 0.30958 0.0
C57 C 0.50046 0.07263 0.1962 0.0
O58 O 0.53584 0.95738 0.21669 0.0
O59 O 0.46967 0.96206 0.20936 0.0
O60 O 0.46784 0.05919 0.21447 0.0
O61 O 0.53397 0.0542 0.20696 0.0
C62 C 0.56635 0.00971 0.30892 0.0
O63 O 0.4585 0.04354 0.29905 0.0
O64 O 0.44939 0.97773 0.29132 0.0
In65 In 0.00257 0.50271 0.2512 0.0
O66 O 0.96019 0.46778 0.20498 0.0
O67 O 0.94841 0.53292 0.21469 0.0
C68 C 1.00212 0.43769 0.3066 0.0
C69 C 0.06602 0.50632 0.1944 0.0
C70 C 0.00335 0.5676 0.30658 0.0
O71 O 0.96927 0.45143 0.28906 0.0
O72 O 0.03544 0.45661 0.29595 0.0
O73 O 0.03619 0.55379 0.28902 0.0
O74 O 0.96999 0.54877 0.29602 0.0
C75 C 0.93816 0.49953 0.19563 0.0
O76 O 0.04395 0.53789 0.20417 0.0
O77 O 0.05638 0.47285 0.21373 0.0
In78 In 0.5015 0.99904 0.75297 0.0
O79 O 0.54734 0.03186 0.70814 0.0
O80 O 0.55131 0.9653 0.71363 0.0
C81 C 0.50233 0.06489 0.80715 0.0
C82 C 0.43668 0.9969 0.69765 0.0
C83 C 0.50383 0.93614 0.81069 0.0
O84 O 0.53514 0.05067 0.78987 0.0
O85 O 0.4689 0.04608 0.79678 0.0
O86 O 0.46985 0.95001 0.79548 0.0
O87 O 0.53647 0.95379 0.79647 0.0
C88 C 0.56547 0.99838 0.69662 0.0
O89 O 0.45529 0.96412 0.7103 0.0
O90 O 0.45048 0.03074 0.71334 0.0
In91 In 1.00004 0.50535 0.75162 0.0
O92 O 0.04519 0.47303 0.79742 0.0
O93 O 0.05107 0.53917 0.7892 0.0
C94 C 1.00084 0.44036 0.6964 0.0
C95 C 0.93469 0.50451 0.80654 0.0
C96 C 0.00294 0.56949 0.69533 0.0
O97 O 0.03276 0.45134 0.7173 0.0
O98 O 0.96832 0.46205 0.7036 0.0
O99 O 0.9692 0.55792 0.71296 0.0
O100 O 0.03502 0.54887 0.70639 0.0
C101 C 0.0644 0.5064 0.80739 0.0
O102 O 0.95442 0.53775 0.79712 0.0
O103 O 0.94768 0.4719 0.7879 0.0
In104 In 0.25129 0.50479 0.99984 0.0
O105 O 0.21123 0.47344 0.05083 0.0
O106 O 0.20648 0.53983 0.04373 0.0
C107 C 0.30554 0.43898 1.00005 0.0
C108 C 0.19616 0.50565 0.93485 0.0
C109 C 0.30814 0.5683 0.00387 0.0
O110 O 0.29037 0.45467 0.03325 0.0
O111 O 0.29306 0.45633 0.9665 0.0
O112 O 0.29686 0.55173 0.96956 0.0
O113 O 0.2906 0.5529 0.03607 0.0
C114 C 0.19437 0.50729 0.0632 0.0
O115 O 0.21476 0.5383 0.9478 0.0
O116 O 0.20587 0.47234 0.95434 0.0
In117 In 0.50012 0.25414 0.99787 0.0
O118 O 0.53311 0.21165 0.04583 0.0
O119 O 0.46642 0.21476 0.04766 0.0
C120 C 0.56378 0.31091 0.99663 0.0
C121 C 0.50167 0.19733 0.93423 0.0
C122 C 0.43509 0.30917 0.9991 0.0
O123 O 0.55062 0.29406 0.0302 0.0
O124 O 0.54494 0.2989 0.96381 0.0
O125 O 0.45028 0.29479 0.96526 0.0
O126 O 0.45267 0.29567 0.03206 0.0
C127 C 0.49953 0.19935 0.06325 0.0
O128 O 0.46786 0.21021 0.95067 0.0
O129 O 0.5345 0.21336 0.94972 0.0
In130 In 0.75136 0.50321 0.00293 0.0
O131 O 0.70589 0.46064 0.96726 0.0
O132 O 0.71179 0.45103 0.03316 0.0
C133 C 0.80603 0.50339 0.93745 0.0
C134 C 0.69624 0.56808 0.00769 0.0
C135 C 0.80797 0.49989 0.06654 0.0
O136 O 0.78853 0.47034 0.95101 0.0
O137 O 0.79576 0.53658 0.95684 0.0
O138 O 0.79234 0.53403 0.05342 0.0
O139 O 0.7947 0.46743 0.04781 0.0
C140 C 0.69432 0.43996 0.99921 0.0
O141 O 0.70712 0.54661 0.03933 0.0
O142 O 0.71367 0.55717 0.97365 0.0
In143 In 0.50239 0.75393 0.00857 0.0
O144 O 0.45115 0.71553 0.0415 0.0
O145 O 0.45651 0.70967 0.97516 0.0
C146 C 0.50332 0.81066 0.07226 0.0
C147 C 0.56615 0.69743 0.01043 0.0
C148 C 0.50438 0.80902 0.9434 0.0
O149 O 0.46995 0.79995 0.05355 0.0
O150 O 0.53604 0.79248 0.05901 0.0
O151 O 0.53713 0.79584 0.96156 0.0
O152 O 0.4705 0.7941 0.95794 0.0
C153 C 0.43766 0.69835 0.00832 0.0
O154 O 0.55323 0.71417 0.97674 0.0
O155 O 0.54702 0.70943 0.04314 0.0
C156 C 0.03821 0.36217 0.39228 0.0
C157 C 1.00123 0.33996 0.40262 0.0
C158 C 0.03835 0.39319 0.36073 0.0
C159 C 1.0015 0.40326 0.33828 0.0
H160 H 0.06725 0.35602 0.40908 0.0
H161 H 0.06748 0.40984 0.35438 0.0
S162 S 0.89687 0.35253 0.35143 0.0
N163 N 0.92712 0.32895 0.38656 0.0
N164 N 0.92737 0.38719 0.32736 0.0
C165 C 0.96449 0.38064 0.34764 0.0
C166 C 0.96436 0.34903 0.37976 0.0
C167 C 0.64295 0.97158 0.39236 0.0
C168 C 0.66397 0.00868 0.40457 0.0
C169 C 0.61184 0.97223 0.3611 0.0
C170 C 0.60055 0.00999 0.34067 0.0
H171 H 0.65019 0.94175 0.40739 0.0
H172 H 0.59629 0.94286 0.35319 0.0
S173 S 0.64721 0.11569 0.35987 0.0
N174 N 0.67209 0.08416 0.39297 0.0
N175 N 0.61369 0.08537 0.33414 0.0
C176 C 0.6218 0.04726 0.35205 0.0
C177 C 0.65346 0.04661 0.38401 0.0
C178 C 0.96696 0.6123 0.36032 0.0
C179 C 0.0039 0.60219 0.338 0.0
C180 C 0.96684 0.64369 0.39141 0.0
C181 C 0.00364 0.66632 0.40137 0.0
H182 H 0.93792 0.59545 0.35419 0.0
H183 H 0.9377 0.64991 0.40806 0.0
S184 S 0.10827 0.65348 0.35061 0.0
N185 N 0.07801 0.61838 0.32699 0.0
N186 N 0.07778 0.67741 0.38531 0.0
C187 C 0.04065 0.65711 0.37873 0.0
C188 C 0.04078 0.62505 0.34709 0.0
C189 C 0.35156 0.97375 0.38358 0.0
C190 C 0.34022 0.01066 0.40544 0.0
C191 C 0.38278 0.97437 0.35231 0.0
C192 C 0.40392 0.01192 0.34163 0.0
H193 H 0.3365 0.94395 0.39089 0.0
H194 H 0.39063 0.94503 0.33669 0.0
S195 S 0.38531 0.11752 0.38874 0.0
N196 N 0.3521 0.08607 0.41362 0.0
N197 N 0.41072 0.08724 0.35492 0.0
C198 C 0.39251 0.04921 0.36283 0.0
C199 C 0.36069 0.04858 0.3947 0.0
C200 C 0.96705 0.62365 0.65057 0.0
C201 C 0.00446 0.60362 0.66336 0.0
C202 C 0.9673 0.65483 0.61919 0.0
C203 C 0.00498 0.66726 0.59935 0.0
H204 H 0.93716 0.61486 0.66454 0.0
H205 H 0.93759 0.66893 0.61012 0.0
S206 S 0.11184 0.62574 0.62242 0.0
N207 N 0.08047 0.59934 0.6545 0.0
N208 N 0.08094 0.65787 0.59561 0.0
C209 C 0.04274 0.64803 0.61233 0.0
C210 C 0.04248 0.61624 0.64429 0.0
C211 C 0.38321 0.03412 0.65339 0.0
C212 C 0.40241 0.99613 0.66594 0.0
C213 C 0.35201 0.03475 0.62219 0.0
C214 C 0.33878 0.99743 0.60218 0.0
H215 H 0.39262 0.0638 0.66744 0.0
H216 H 0.33857 0.0649 0.61335 0.0
S217 S 0.37808 0.88935 0.62445 0.0
N218 N 0.40513 0.91997 0.65663 0.0
N219 N 0.34657 0.92117 0.59796 0.0
C220 C 0.35721 0.95909 0.61488 0.0
C221 C 0.38897 0.95844 0.64675 0.0
C222 C 0.96549 0.36505 0.6104 0.0
C223 C 1.00207 0.34159 0.60166 0.0
C224 C 0.96528 0.39652 0.64142 0.0
C225 C 1.00163 0.40572 0.66503 0.0
H226 H 0.93684 0.35952 0.59273 0.0
H227 H 0.93646 0.41405 0.64656 0.0
S228 S 0.1051 0.35193 0.65593 0.0
N229 N 0.07528 0.32873 0.62021 0.0
N230 N 0.07488 0.38774 0.67853 0.0
C231 C 0.03823 0.38194 0.65721 0.0
C232 C 0.03846 0.34993 0.62554 0.0
C233 C 0.61325 0.03621 0.64655 0.0
C234 C 0.6 0.99811 0.66513 0.0
C235 C 0.64492 0.03689 0.61575 0.0
C236 C 0.66463 0.99951 0.60227 0.0
H237 H 0.59879 0.06582 0.65553 0.0
H238 H 0.65363 0.067 0.60208 0.0
S239 S 0.64252 0.89147 0.64199 0.0
N240 N 0.60985 0.92204 0.66854 0.0
N241 N 0.66932 0.92332 0.61069 0.0
C242 C 0.65218 0.96122 0.62105 0.0
C243 C 0.61989 0.96052 0.65244 0.0
C244 C 0.38749 0.36025 0.96243 0.0
C245 C 0.40045 0.34047 0.99996 0.0
C246 C 0.35627 0.39154 0.96267 0.0
C247 C 0.33674 0.4042 1.00044 0.0
H248 H 0.40208 0.35209 0.93265 0.0
H249 H 0.34792 0.40636 0.93306 0.0
S250 S 0.35709 0.35996 0.10693 0.0
N251 N 0.38976 0.33424 0.07568 0.0
N252 N 0.33113 0.39289 0.07613 0.0
C253 C 0.34861 0.38386 0.03806 0.0
C254 C 0.38044 0.35206 0.03782 0.0
C255 C 0.35958 0.61676 0.96885 0.0
C256 C 0.34 0.60244 0.00602 0.0
C257 C 0.39069 0.64811 0.96992 0.0
C258 C 0.40348 0.66647 0.00819 0.0
H259 H 0.35112 0.60339 0.9386 0.0
H260 H 0.40507 0.65771 0.94045 0.0
S261 S 0.36126 0.64102 0.11444 0.0
N262 N 0.33506 0.6097 0.08223 0.0
N263 N 0.39348 0.66861 0.08423 0.0
C264 C 0.38377 0.65289 0.04559 0.0
C265 C 0.35208 0.62089 0.04451 0.0
C266 C 0.61645 0.35593 0.03415 0.0
C267 C 0.59791 0.34284 0.99608 0.0
C268 C 0.64792 0.38696 0.03477 0.0
C269 C 0.66207 0.40618 0.99735 0.0
H270 H 0.60637 0.3424 0.06387 0.0
H271 H 0.66091 0.39622 0.06495 0.0
S272 S 0.62482 0.38217 0.88907 0.0
N273 N 0.59681 0.35079 0.91977 0.0
N274 N 0.65586 0.40907 0.92095 0.0
C275 C 0.64423 0.39299 0.95896 0.0
C276 C 0.61219 0.36135 0.95832 0.0
C277 C 0.65191 0.62306 0.97271 0.0
C278 C 0.66439 0.60221 0.00983 0.0
C279 C 0.6205 0.65409 0.97335 0.0
C280 C 0.60033 0.66559 0.01115 0.0
H281 H 0.66613 0.61504 0.94272 0.0
H282 H 0.61174 0.66889 0.94384 0.0
S283 S 0.6223 0.62149 0.11736 0.0
N284 N 0.65475 0.59598 0.0857 0.0
N285 N 0.5958 0.65432 0.08691 0.0
C286 C 0.61296 0.6455 0.04865 0.0
C287 C 0.64494 0.61383 0.04799 0.0
C288 C 0.46747 0.85478 0.89083 0.0
C289 C 0.50539 0.84028 0.9086 0.0
C290 C 0.46733 0.88538 0.85888 0.0
C291 C 0.50511 0.90271 0.8434 0.0
H292 H 0.43751 0.84272 0.90193 0.0
H293 H 0.43728 0.89577 0.84654 0.0
S294 S 0.6131 0.87464 0.8784 0.0
N295 N 0.58187 0.84497 0.90765 0.0
N296 N 0.58162 0.9024 0.84767 0.0
C297 C 0.54332 0.88808 0.86046 0.0
C298 C 0.54346 0.85691 0.89302 0.0
C299 C 0.14207 0.46947 0.89049 0.0
C300 C 0.16418 0.50651 0.90085 0.0
C301 C 0.11023 0.46969 0.85992 0.0
C302 C 0.0992 0.50697 0.8385 0.0
H303 H 0.14898 0.44006 0.90648 0.0
H304 H 0.09384 0.44042 0.85344 0.0
S305 S 0.14876 0.61215 0.85253 0.0
N306 N 0.17371 0.5813 0.8862 0.0
N307 N 0.11392 0.58171 0.8288 0.0
C308 C 0.12155 0.54411 0.84798 0.0
C309 C 0.15401 0.54389 0.87912 0.0
C310 C 0.46529 0.11329 0.85718 0.0
C311 C 0.503 0.09994 0.83808 0.0
C312 C 0.46512 0.14522 0.88774 0.0
C313 C 0.50267 0.16501 0.90049 0.0
H314 H 0.4356 0.09869 0.84884 0.0
H315 H 0.43531 0.15402 0.90185 0.0
S316 S 0.60978 0.14286 0.85899 0.0
N317 N 0.57884 0.10993 0.83324 0.0
N318 N 0.57853 0.16981 0.89066 0.0
C319 C 0.54055 0.15247 0.88115 0.0
C320 C 0.54072 0.11999 0.84996 0.0
C321 C 0.88993 0.5406 0.86051 0.0
C322 C 0.90028 0.50368 0.83817 0.0
C323 C 0.85897 0.54034 0.89206 0.0
C324 C 0.83714 0.50313 0.90256 0.0
H325 H 0.90627 0.56992 0.85404 0.0
H326 H 0.85258 0.56945 0.90874 0.0
S327 S 0.85075 0.39839 0.85195 0.0
N328 N 0.885 0.42918 0.82767 0.0
N329 N 0.82691 0.42867 0.88691 0.0
C330 C 0.84654 0.46616 0.87987 0.0
C331 C 0.87806 0.46644 0.84771 0.0
C332 C 0.53662 0.11712 0.14197 0.0
C333 C 0.49952 0.10632 0.16376 0.0
C334 C 0.53641 0.14763 0.10995 0.0
C335 C 0.49907 0.1685 0.09838 0.0
H336 H 0.56607 0.10153 0.1493 0.0
H337 H 0.56569 0.15444 0.09376 0.0
S338 S 0.39382 0.15356 0.14727 0.0
N339 N 0.42468 0.12023 0.17263 0.0
N340 N 0.42428 0.17747 0.11246 0.0
C341 C 0.46188 0.15862 0.12045 0.0
C342 C 0.46211 0.12758 0.15312 0.0
C343 C 0.88316 0.53566 0.15234 0.0
C344 C 0.90397 0.49821 0.16388 0.0
C345 C 0.8519 0.53576 0.12119 0.0
C346 C 0.84006 0.49838 0.10042 0.0
H347 H 0.8914 0.56535 0.1671 0.0
H348 H 0.83714 0.5655 0.11315 0.0
S349 S 0.88399 0.39155 0.11981 0.0
N350 N 0.90986 0.42249 0.15265 0.0
N351 N 0.85105 0.42265 0.09425 0.0
C352 C 0.86012 0.46055 0.1121 0.0
C353 C 0.89208 0.46047 0.14377 0.0
C354 C 0.46674 0.86433 0.11693 0.0
C355 C 0.50401 0.84293 0.10605 0.0
C356 C 0.4667 0.89623 0.14751 0.0
C357 C 0.50392 0.90802 0.16844 0.0
H358 H 0.43735 0.85681 0.10135 0.0
H359 H 0.43728 0.9121 0.15435 0.0
S360 S 0.60965 0.86043 0.15299 0.0
N361 N 0.57896 0.83484 0.11973 0.0
N362 N 0.57888 0.89475 0.17714 0.0
C363 C 0.5413 0.88636 0.15846 0.0
C364 C 0.54134 0.85384 0.1273 0.0
C365 C 0.15225 0.47117 0.11927 0.0
C366 C 0.16249 0.50841 0.09734 0.0
C367 C 0.12147 0.47096 0.15096 0.0
C368 C 0.09959 0.50796 0.16192 0.0
H369 H 0.16797 0.44178 0.11179 0.0
H370 H 0.11452 0.4414 0.16668 0.0
S371 S 0.11496 0.61405 0.11449 0.0
N372 N 0.14863 0.58349 0.08923 0.0
N373 N 0.09075 0.58309 0.14866 0.0
C374 C 0.10979 0.54555 0.14054 0.0
C375 C 0.14123 0.54578 0.10831 0.0
C376 C 0.86219 0.89537 0.53724 0.0
C377 C 0.838 0.90409 0.50113 0.0
C378 C 0.8933 0.86401 0.53689 0.0
C379 C 0.90148 0.84011 0.50043 0.0
H380 H 0.85751 0.91326 0.56594 0.0
H381 H 0.91145 0.85891 0.56534 0.0
S382 S 0.84554 0.84911 0.39808 0.0
N383 N 0.82334 0.88521 0.42827 0.0
N384 N 0.88177 0.82633 0.42762 0.0
C385 C 0.87696 0.84792 0.46432 0.0
C386 C 0.84525 0.87987 0.46467 0.0
C387 C 0.88255 0.15427 0.53619 0.0
C388 C 0.90382 0.16553 0.4989 0.0
C389 C 0.85138 0.12293 0.53626 0.0
C390 C 0.84016 0.10163 0.49902 0.0
H391 H 0.89033 0.16943 0.56577 0.0
H392 H 0.83624 0.11511 0.56588 0.0
S393 S 0.88533 0.12028 0.39257 0.0
N394 N 0.91069 0.15357 0.42344 0.0
N395 N 0.85215 0.09479 0.42354 0.0
C396 C 0.86071 0.11303 0.46134 0.0
C397 C 0.89251 0.14492 0.46129 0.0
C398 C 0.12118 0.85298 0.5332 0.0
C399 C 0.09883 0.8434 0.49615 0.0
C400 C 0.15264 0.884 0.53355 0.0
C401 C 0.16306 0.90671 0.49685 0.0
H402 H 0.11417 0.8366 0.56237 0.0
H403 H 0.16867 0.8904 0.56298 0.0
S404 S 0.11431 0.8934 0.39134 0.0
N405 N 0.08967 0.85887 0.42156 0.0
N406 N 0.14876 0.91714 0.42221 0.0
C407 C 0.14129 0.89717 0.45942 0.0
C408 C 0.10921 0.86555 0.45907 0.0
C409 C 0.12243 0.15593 0.47122 0.0
C410 C 0.10032 0.16639 0.50821 0.0
C411 C 0.15372 0.12477 0.47131 0.0
C412 C 0.16425 0.10285 0.50843 0.0
H413 H 0.1152 0.17156 0.44171 0.0
H414 H 0.16947 0.11757 0.44188 0.0
S415 S 0.11672 0.11923 0.61415 0.0
N416 N 0.09188 0.15299 0.58331 0.0
N417 N 0.15071 0.09451 0.5835 0.0
C418 C 0.14291 0.11347 0.54585 0.0
C419 C 0.11096 0.14519 0.54574 0.0
loop_
_geom_bond_atom_site_label_1
_geom_bond_atom_site_label_2
_geom_bond_distance
_geom_bond_site_symmetry_2
_ccdc_geom_bond_type
In0 O1 2.294 1_455 S
In0 O2 2.326 1_455 S
In0 O6 2.266 1_455 S
In0 O7 2.326 . S
In0 O8 2.266 . S
In0 O9 2.326 1_455 S
In0 O11 2.294 . S
In0 O12 2.326 . S
O1 In0 2.294 1_655 S
O1 C10 1.240 . S
O2 In0 2.326 1_655 S
O2 C10 1.252 . S
C3 O6 1.252 1_455 S
C3 O7 1.260 . S
C4 O11 1.240 . S
C4 O12 1.252 . S
C5 O8 1.252 1_655 S
C5 O9 1.260 . S
O6 In0 2.266 1_655 S
O6 C3 1.252 1_655 S
O7 In0 2.326 . S
O7 C3 1.260 . S
O8 In0 2.266 . S
O8 C5 1.252 1_455 S
O9 In0 2.326 1_655 S
O9 C5 1.260 . S
C10 O1 1.240 . S
C10 O2 1.252 . S
O11 In0 2.294 . S
O11 C4 1.240 . S
O12 In0 2.326 . S
O12 C4 1.252 . S
In13 O14 2.294 1_545 S
In13 O15 2.326 . S
In13 O19 2.266 1_545 S
In13 O20 2.326 1_545 S
In13 O21 2.266 . S
In13 O22 2.326 . S
In13 O24 2.294 . S
In13 O25 2.326 1_545 S
O14 In13 2.294 1_565 S
O14 C23 1.240 1_565 S
O15 In13 2.326 . S
O15 C23 1.252 . S
C16 O19 1.252 . S
C16 O20 1.260 . S
C17 O24 1.240 1_565 S
C17 O25 1.252 . S
C18 O21 1.252 . S
C18 O22 1.260 . S
O19 In13 2.266 1_565 S
O19 C16 1.252 . S
O20 In13 2.326 1_565 S
O20 C16 1.260 . S
O21 In13 2.266 . S
O21 C18 1.252 . S
O22 In13 2.326 . S
O22 C18 1.260 . S
C23 O14 1.240 1_545 S
C23 O15 1.252 . S
O24 In13 2.294 . S
O24 C17 1.240 1_545 S
O25 In13 2.326 1_565 S
O25 C17 1.252 . S
In26 O27 2.294 . S
In26 O28 2.326 1_455 S
In26 O32 2.266 . S
In26 O33 2.326 . S
In26 O34 2.266 1_455 S
In26 O35 2.326 1_455 S
In26 O37 2.294 1_455 S
In26 O38 2.326 . S
O27 In26 2.294 . S
O27 C36 1.240 1_455 S
O28 In26 2.326 1_655 S
O28 C36 1.252 . S
C29 O32 1.252 . S
C29 O33 1.260 . S
C30 O37 1.240 1_455 S
C30 O38 1.252 . S
C31 O34 1.252 . S
C31 O35 1.260 . S
O32 In26 2.266 . S
O32 C29 1.252 . S
O33 In26 2.326 . S
O33 C29 1.260 . S
O34 In26 2.266 1_655 S
O34 C31 1.252 . S
O35 In26 2.326 1_655 S
O35 C31 1.260 . S
C36 O27 1.240 1_655 S
C36 O28 1.252 . S
O37 In26 2.294 1_655 S
O37 C30 1.240 1_655 S
O38 In26 2.326 . S
O38 C30 1.252 . S
In39 O40 2.294 1_545 S
In39 O41 2.326 1_545 S
In39 O45 2.266 1_545 S
In39 O46 2.326 . S
In39 O47 2.266 . S
In39 O48 2.326 1_545 S
In39 O50 2.294 . S
In39 O51 2.326 . S
O40 In39 2.294 1_565 S
O40 C49 1.240 . S
O41 In39 2.326 1_565 S
O41 C49 1.252 . S
C42 O45 1.252 1_545 S
C42 O46 1.260 . S
C43 O50 1.240 . S
C43 O51 1.252 . S
C44 O47 1.252 1_565 S
C44 O48 1.260 . S
O45 In39 2.266 1_565 S
O45 C42 1.252 1_565 S
O46 In39 2.326 . S
O46 C42 1.260 . S
O47 In39 2.266 . S
O47 C44 1.252 1_545 S
O48 In39 2.326 1_565 S
O48 C44 1.260 . S
C49 O40 1.240 . S
C49 O41 1.252 . S
O50 In39 2.294 . S
O50 C43 1.240 . S
O51 In39 2.326 . S
O51 C43 1.252 . S
In52 O53 2.294 1_545 S
In52 O54 2.326 . S
In52 O58 2.266 1_545 S
In52 O59 2.326 1_545 S
In52 O60 2.266 . S
In52 O61 2.326 . S
In52 O63 2.294 . S
In52 O64 2.326 1_545 S
O53 In52 2.294 1_565 S
O53 C62 1.240 1_565 S
O54 In52 2.326 . S
O54 C62 1.252 . S
C55 O58 1.252 . S
C55 O59 1.260 . S
C56 O63 1.240 1_565 S
C56 O64 1.252 . S
C57 O60 1.252 . S
C57 O61 1.260 . S
O58 In52 2.266 1_565 S
O58 C55 1.252 . S
O59 In52 2.326 1_565 S
O59 C55 1.260 . S
O60 In52 2.266 . S
O60 C57 1.252 . S
O61 In52 2.326 . S
O61 C57 1.260 . S
C62 O53 1.240 1_545 S
C62 O54 1.252 . S
O63 In52 2.294 . S
O63 C56 1.240 1_545 S
O64 In52 2.326 1_565 S
O64 C56 1.252 . S
In65 O66 2.294 1_455 S
In65 O67 2.326 1_455 S
In65 O71 2.266 1_455 S
In65 O72 2.326 . S
In65 O73 2.266 . S
In65 O74 2.326 1_455 S
In65 O76 2.294 . S
In65 O77 2.326 . S
O66 In65 2.294 1_655 S
O66 C75 1.240 . S
O67 In65 2.326 1_655 S
O67 C75 1.252 . S
C68 O71 1.252 1_455 S
C68 O72 1.260 . S
C69 O76 1.240 . S
C69 O77 1.252 . S
C70 O73 1.252 1_655 S
C70 O74 1.260 . S
O71 In65 2.266 1_655 S
O71 C68 1.252 1_655 S
O72 In65 2.326 . S
O72 C68 1.260 . S
O73 In65 2.266 . S
O73 C70 1.252 1_455 S
O74 In65 2.326 1_655 S
O74 C70 1.260 . S
C75 O66 1.240 . S
C75 O67 1.252 . S
O76 In65 2.294 . S
O76 C69 1.240 . S
O77 In65 2.326 . S
O77 C69 1.252 . S
In78 O79 2.294 . S
In78 O80 2.326 1_545 S
In78 O84 2.266 . S
In78 O85 2.326 . S
In78 O86 2.266 1_545 S
In78 O87 2.326 1_545 S
In78 O89 2.294 1_545 S
In78 O90 2.326 . S
O79 In78 2.294 . S
O79 C88 1.240 1_545 S
O80 In78 2.326 1_565 S
O80 C88 1.252 . S
C81 O84 1.252 . S
C81 O85 1.260 . S
C82 O89 1.240 1_545 S
C82 O90 1.252 . S
C83 O86 1.252 . S
C83 O87 1.260 . S
O84 In78 2.266 . S
O84 C81 1.252 . S
O85 In78 2.326 . S
O85 C81 1.260 . S
O86 In78 2.266 1_565 S
O86 C83 1.252 . S
O87 In78 2.326 1_565 S
O87 C83 1.260 . S
C88 O79 1.240 1_565 S
C88 O80 1.252 . S
O89 In78 2.294 1_565 S
O89 C82 1.240 1_565 S
O90 In78 2.326 . S
O90 C82 1.252 . S
In91 O92 2.294 . S
In91 O93 2.326 . S
In91 O97 2.266 . S
In91 O98 2.326 1_455 S
In91 O99 2.266 1_455 S
In91 O100 2.326 . S
In91 O102 2.294 1_455 S
In91 O103 2.326 1_455 S
O92 In91 2.294 . S
O92 C101 1.240 . S
O93 In91 2.326 . S
O93 C101 1.252 . S
C94 O97 1.252 1_655 S
C94 O98 1.260 . S
C95 O102 1.240 . S
C95 O103 1.252 . S
C96 O99 1.252 1_455 S
C96 O100 1.260 . S
O97 In91 2.266 . S
O97 C94 1.252 1_455 S
O98 In91 2.326 1_655 S
O98 C94 1.260 . S
O99 In91 2.266 1_655 S
O99 C96 1.252 1_655 S
O100 In91 2.326 . S
O100 C96 1.260 . S
C101 O92 1.240 . S
C101 O93 1.252 . S
O102 In91 2.294 1_655 S
O102 C95 1.240 . S
O103 In91 2.326 1_655 S
O103 C95 1.252 . S
In104 O105 2.296 . S
In104 O106 2.327 . S
In104 O110 2.267 . S
In104 O111 2.324 1_554 S
In104 O112 2.265 1_554 S
In104 O113 2.327 . S
In104 O115 2.292 1_554 S
In104 O116 2.325 1_554 S
O105 In104 2.296 . S
O105 C114 1.240 . S
O106 In104 2.327 . S
O106 C114 1.252 . S
C107 O110 1.252 1_556 S
C107 O111 1.260 . S
C108 O115 1.240 . S
C108 O116 1.252 . S
C109 O112 1.252 1_554 S
C109 O113 1.260 . S
O110 In104 2.267 . S
O110 C107 1.252 1_554 S
O111 In104 2.324 1_556 S
O111 C107 1.260 . S
O112 In104 2.265 1_556 S
O112 C109 1.252 1_556 S
O113 In104 2.327 . S
O113 C109 1.260 . S
C114 O105 1.240 . S
C114 O106 1.252 . S
O115 In104 2.292 1_556 S
O115 C108 1.240 . S
O116 In104 2.325 1_556 S
O116 C108 1.252 . S
In117 O118 2.298 . S
In117 O119 2.328 . S
In117 O123 2.268 . S
In117 O124 2.322 1_554 S
In117 O125 2.265 1_554 S
In117 O126 2.329 . S
In117 O128 2.289 1_554 S
In117 O129 2.324 1_554 S
O118 In117 2.298 . S
O118 C127 1.240 . S
O119 In117 2.328 . S
O119 C127 1.252 . S
C120 O123 1.252 1_556 S
C120 O124 1.260 . S
C121 O128 1.240 . S
C121 O129 1.252 . S
C122 O125 1.252 1_554 S
C122 O126 1.260 . S
O123 In117 2.268 . S
O123 C120 1.252 1_554 S
O124 In117 2.322 1_556 S
O124 C120 1.260 . S
O125 In117 2.265 1_556 S
O125 C122 1.252 1_556 S
O126 In117 2.329 . S
O126 C122 1.260 . S
C127 O118 1.240 . S
C127 O119 1.252 . S
O128 In117 2.289 1_556 S
O128 C121 1.240 . S
O129 In117 2.324 1_556 S
O129 C121 1.252 . S
In130 O131 2.292 1_554 S
In130 O132 2.329 . S
In130 O136 2.262 1_554 S
In130 O137 2.323 1_554 S
In130 O138 2.271 . S
In130 O139 2.328 . S
In130 O141 2.295 . S
In130 O142 2.323 1_554 S
O131 In130 2.292 1_556 S
O131 C140 1.240 1_556 S
O132 In130 2.329 . S
O132 C140 1.252 . S
C133 O136 1.252 . S
C133 O137 1.260 . S
C134 O141 1.240 1_556 S
C134 O142 1.252 . S
C135 O138 1.252 . S
C135 O139 1.260 . S
O136 In130 2.262 1_556 S
O136 C133 1.252 . S
O137 In130 2.323 1_556 S
O137 C133 1.260 . S
O138 In130 2.271 . S
O138 C135 1.252 . S
O139 In130 2.328 . S
O139 C135 1.260 . S
C140 O131 1.240 1_554 S
C140 O132 1.252 . S
O141 In130 2.295 . S
O141 C134 1.240 1_554 S
O142 In130 2.323 1_556 S
O142 C134 1.252 . S
In143 O144 2.295 . S
In143 O145 2.325 1_554 S
In143 O149 2.269 . S
In143 O150 2.327 . S
In143 O151 2.264 1_554 S
In143 O152 2.324 1_554 S
In143 O154 2.293 1_554 S
In143 O155 2.328 . S
O144 In143 2.295 . S
O144 C153 1.240 1_554 S
O145 In143 2.325 1_556 S
O145 C153 1.252 . S
C146 O149 1.252 . S
C146 O150 1.260 . S
C147 O154 1.240 1_554 S
C147 O155 1.252 . S
C148 O151 1.252 . S
C148 O152 1.260 . S
O149 In143 2.269 . S
O149 C146 1.252 . S
O150 In143 2.327 . S
O150 C146 1.260 . S
O151 In143 2.264 1_556 S
O151 C148 1.252 . S
O152 In143 2.324 1_556 S
O152 C148 1.260 . S
C153 O144 1.240 1_556 S
C153 O145 1.252 . S
O154 In143 2.293 1_556 S
O154 C147 1.240 1_556 S
O155 In143 2.328 . S
O155 C147 1.252 . S
C156 C157 1.369 1_455 S
C156 C158 1.419 . S
C156 H160 0.930 . S
C157 C156 1.369 1_655 S
C157 C166 1.429 . S
C158 C156 1.419 . S
C158 C159 1.363 . S
C158 H161 0.929 . S
C159 C158 1.363 . S
C159 C165 1.428 1_455 S
H160 C156 0.930 . S
H161 C158 0.929 . S
S162 N163 1.613 . S
S162 N164 1.610 . S
N163 S162 1.613 . S
N163 C166 1.350 . S
N164 S162 1.610 . S
N164 C165 1.351 . S
C165 C159 1.428 1_655 S
C165 N164 1.351 . S
C165 C166 1.434 . S
C166 C157 1.429 . S
C166 N163 1.350 . S
C166 C165 1.434 . S
C167 C168 1.369 . S
C167 C169 1.419 . S
C167 H171 0.930 . S
C168 C167 1.369 . S
C168 C177 1.429 1_565 S
C169 C167 1.419 . S
C169 C170 1.363 1_565 S
C169 H172 0.929 . S
C170 C169 1.363 1_545 S
C170 C176 1.428 . S
H171 C167 0.930 . S
H172 C169 0.929 . S
S173 N174 1.613 . S
S173 N175 1.610 . S
N174 S173 1.613 . S
N174 C177 1.350 . S
N175 S173 1.610 . S
N175 C176 1.351 . S
C176 C170 1.428 . S
C176 N175 1.351 . S
C176 C177 1.434 . S
C177 C168 1.429 1_545 S
C177 N174 1.350 . S
C177 C176 1.434 . S
C178 C179 1.369 1_455 S
C178 C180 1.419 . S
C178 H182 0.930 . S
C179 C178 1.369 1_655 S
C179 C188 1.429 . S
C180 C178 1.419 . S
C180 C181 1.363 . S
C180 H183 0.929 . S
C181 C180 1.363 . S
C181 C187 1.428 . S
H182 C178 0.930 . S
H183 C180 0.929 . S
S184 N185 1.613 . S
S184 N186 1.610 1_655 S
N185 S184 1.613 . S
N185 C188 1.350 . S
N186 S184 1.610 1_455 S
N186 C187 1.351 . S
C187 C181 1.428 . S
C187 N186 1.351 . S
C187 C188 1.434 1_455 S
C188 C179 1.429 . S
C188 N185 1.350 . S
C188 C187 1.434 1_655 S
C189 C190 1.369 1_565 S
C189 C191 1.419 . S
C189 H193 0.930 . S
C190 C189 1.369 1_545 S
C190 C199 1.429 . S
C191 C189 1.419 . S
C191 C192 1.363 . S
C191 H194 0.929 . S
C192 C191 1.363 . S
C192 C198 1.428 1_565 S
H193 C189 0.930 . S
H194 C191 0.929 . S
S195 N196 1.613 . S
S195 N197 1.610 . S
N196 S195 1.613 . S
N196 C199 1.350 . S
N197 S195 1.610 . S
N197 C198 1.351 . S
C198 C192 1.428 1_545 S
C198 N197 1.351 . S
C198 C199 1.434 . S
C199 C190 1.429 . S
C199 N196 1.350 . S
C199 C198 1.434 . S
C200 C201 1.369 1_655 S
C200 C202 1.419 . S
C200 H204 0.930 . S
C201 C200 1.369 1_455 S
C201 C210 1.429 . S
C202 C200 1.419 . S
C202 C203 1.363 . S
C202 H205 0.929 . S
C203 C202 1.363 . S
C203 C209 1.428 1_655 S
H204 C200 0.930 . S
H205 C202 0.929 . S
S206 N207 1.613 . S
S206 N208 1.610 . S
N207 S206 1.613 . S
N207 C210 1.350 . S
N208 S206 1.610 . S
N208 C209 1.351 . S
C209 C203 1.428 1_455 S
C209 N208 1.351 . S
C209 C210 1.434 . S
C210 C201 1.429 . S
C210 N207 1.350 . S
C210 C209 1.434 . S
C211 C212 1.369 . S
C211 C213 1.419 . S
C211 H215 0.930 . S
C212 C211 1.369 . S
C212 C221 1.429 1_545 S
C213 C211 1.419 . S
C213 C214 1.363 1_545 S
C213 H216 0.929 . S
C214 C213 1.363 1_565 S
C214 C220 1.428 . S
H215 C211 0.930 . S
H216 C213 0.929 . S
S217 N218 1.613 . S
S217 N219 1.610 . S
N218 S217 1.613 . S
N218 C221 1.350 . S
N219 S217 1.610 . S
N219 C220 1.351 . S
C220 C214 1.428 . S
C220 N219 1.351 . S
C220 C221 1.434 . S
C221 C212 1.429 1_565 S
C221 N218 1.350 . S
C221 C220 1.434 . S
C222 C223 1.369 . S
C222 C224 1.419 1_455 S
C222 H226 0.930 . S
C223 C222 1.369 . S
C223 C232 1.429 . S
C224 C222 1.419 1_655 S
C224 C225 1.363 . S
C224 H227 0.929 . S
C225 C224 1.363 . S
C225 C231 1.428 . S
H226 C222 0.930 . S
H227 C224 0.929 . S
S228 N229 1.613 . S
S228 N230 1.610 1_455 S
N229 S228 1.613 . S
N229 C232 1.350 . S
N230 S228 1.610 1_655 S
N230 C231 1.351 . S
C231 C225 1.428 . S
C231 N230 1.351 . S
C231 C232 1.434 1_655 S
C232 C223 1.429 . S
C232 N229 1.350 . S
C232 C231 1.434 1_455 S
C233 C234 1.369 1_545 S
C233 C235 1.419 . S
C233 H237 0.930 . S
C234 C233 1.369 1_565 S
C234 C243 1.429 . S
C235 C233 1.419 . S
C235 C236 1.363 . S
C235 H238 0.929 . S
C236 C235 1.363 . S
C236 C242 1.428 1_545 S
H237 C233 0.930 . S
H238 C235 0.929 . S
S239 N240 1.613 . S
S239 N241 1.610 . S
N240 S239 1.613 . S
N240 C243 1.350 . S
N241 S239 1.610 . S
N241 C242 1.351 . S
C242 C236 1.428 1_565 S
C242 N241 1.351 . S
C242 C243 1.434 . S
C243 C234 1.429 . S
C243 N240 1.350 . S
C243 C242 1.434 . S
C244 C245 1.369 1_556 S
C244 C246 1.419 . S
C244 H248 0.930 . S
C245 C244 1.369 1_554 S
C245 C254 1.429 . S
C246 C244 1.419 . S
C246 C247 1.363 . S
C246 H249 0.929 . S
C247 C246 1.363 . S
C247 C253 1.428 1_556 S
H248 C244 0.930 . S
H249 C246 0.929 . S
S250 N251 1.613 . S
S250 N252 1.610 . S
N251 S250 1.613 . S
N251 C254 1.350 . S
N252 S250 1.610 . S
N252 C253 1.351 . S
C253 C247 1.428 1_554 S
C253 N252 1.351 . S
C253 C254 1.434 . S
C254 C245 1.429 . S
C254 N251 1.350 . S
C254 C253 1.434 . S
C255 C256 1.369 1_556 S
C255 C257 1.419 . S
C255 H259 0.930 . S
C256 C255 1.369 1_554 S
C256 C265 1.429 . S
C257 C255 1.419 . S
C257 C258 1.363 . S
C257 H260 0.929 . S
C258 C257 1.363 . S
C258 C264 1.428 1_556 S
H259 C255 0.930 . S
H260 C257 0.929 . S
S261 N262 1.613 . S
S261 N263 1.610 . S
N262 S261 1.613 . S
N262 C265 1.350 . S
N263 S261 1.610 . S
N263 C264 1.351 . S
C264 C258 1.428 1_554 S
C264 N263 1.351 . S
C264 C265 1.434 . S
C265 C256 1.429 . S
C265 N262 1.350 . S
C265 C264 1.434 . S
C266 C267 1.369 1_554 S
C266 C268 1.419 . S
C266 H270 0.930 . S
C267 C266 1.369 1_556 S
C267 C276 1.429 . S
C268 C266 1.419 . S
C268 C269 1.363 . S
C268 H271 0.929 . S
C269 C268 1.363 . S
C269 C275 1.428 1_554 S
H270 C266 0.930 . S
H271 C268 0.929 . S
S272 N273 1.613 . S
S272 N274 1.610 . S
N273 S272 1.613 . S
N273 C276 1.350 . S
N274 S272 1.610 . S
N274 C275 1.351 . S
C275 C269 1.428 1_556 S
C275 N274 1.351 . S
C275 C276 1.434 . S
C276 C267 1.429 . S
C276 N273 1.350 . S
C276 C275 1.434 . S
C277 C278 1.369 . S
C277 C279 1.419 . S
C277 H281 0.930 . S
C278 C277 1.369 . S
C278 C287 1.429 1_556 S
C279 C277 1.419 . S
C279 C280 1.363 1_556 S
C279 H282 0.929 . S
C280 C279 1.363 1_554 S
C280 C286 1.428 . S
H281 C277 0.930 . S
H282 C279 0.929 . S
S283 N284 1.613 . S
S283 N285 1.610 . S
N284 S283 1.613 . S
N284 C287 1.350 . S
N285 S283 1.610 . S
N285 C286 1.351 . S
C286 C280 1.428 . S
C286 N285 1.351 . S
C286 C287 1.434 . S
C287 C278 1.429 1_554 S
C287 N284 1.350 . S
C287 C286 1.434 . S
C288 C289 1.369 . S
C288 C290 1.419 . S
C288 H292 0.930 . S
C289 C288 1.369 . S
C289 C298 1.429 . S
C290 C288 1.419 . S
C290 C291 1.363 . S
C290 H293 0.929 . S
C291 C290 1.363 . S
C291 C297 1.428 . S
H292 C288 0.930 . S
H293 C290 0.929 . S
S294 N295 1.613 . S
S294 N296 1.610 . S
N295 S294 1.613 . S
N295 C298 1.350 . S
N296 S294 1.610 . S
N296 C297 1.351 . S
C297 C291 1.428 . S
C297 N296 1.351 . S
C297 C298 1.434 . S
C298 C289 1.429 . S
C298 N295 1.350 . S
C298 C297 1.434 . S
C299 C300 1.369 . S
C299 C301 1.419 . S
C299 H303 0.930 . S
C300 C299 1.369 . S
C300 C309 1.429 . S
C301 C299 1.419 . S
C301 C302 1.363 . S
C301 H304 0.929 . S
C302 C301 1.363 . S
C302 C308 1.428 . S
H303 C299 0.930 . S
H304 C301 0.929 . S
S305 N306 1.613 . S
S305 N307 1.610 . S
N306 S305 1.613 . S
N306 C309 1.350 . S
N307 S305 1.610 . S
N307 C308 1.351 . S
C308 C302 1.428 . S
C308 N307 1.351 . S
C308 C309 1.434 . S
C309 C300 1.429 . S
C309 N306 1.350 . S
C309 C308 1.434 . S
C310 C311 1.369 . S
C310 C312 1.419 . S
C310 H314 0.930 . S
C311 C310 1.369 . S
C311 C320 1.429 . S
C312 C310 1.419 . S
C312 C313 1.363 . S
C312 H315 0.929 . S
C313 C312 1.363 . S
C313 C319 1.428 . S
H314 C310 0.930 . S
H315 C312 0.929 . S
S316 N317 1.613 . S
S316 N318 1.610 . S
N317 S316 1.613 . S
N317 C320 1.350 . S
N318 S316 1.610 . S
N318 C319 1.351 . S
C319 C313 1.428 . S
C319 N318 1.351 . S
C319 C320 1.434 . S
C320 C311 1.429 . S
C320 N317 1.350 . S
C320 C319 1.434 . S
C321 C322 1.369 . S
C321 C323 1.419 . S
C321 H325 0.930 . S
C322 C321 1.369 . S
C322 C331 1.429 . S
C323 C321 1.419 . S
C323 C324 1.363 . S
C323 H326 0.929 . S
C324 C323 1.363 . S
C324 C330 1.428 . S
H325 C321 0.930 . S
H326 C323 0.929 . S
S327 N328 1.613 . S
S327 N329 1.610 . S
N328 S327 1.613 . S
N328 C331 1.350 . S
N329 S327 1.610 . S
N329 C330 1.351 . S
C330 C324 1.428 . S
C330 N329 1.351 . S
C330 C331 1.434 . S
C331 C322 1.429 . S
C331 N328 1.350 . S
C331 C330 1.434 . S
C332 C333 1.369 . S
C332 C334 1.419 . S
C332 H336 0.930 . S
C333 C332 1.369 . S
C333 C342 1.429 . S
C334 C332 1.419 . S
C334 C335 1.363 . S
C334 H337 0.929 . S
C335 C334 1.363 . S
C335 C341 1.428 . S
H336 C332 0.930 . S
H337 C334 0.929 . S
S338 N339 1.613 . S
S338 N340 1.610 . S
N339 S338 1.613 . S
N339 C342 1.350 . S
N340 S338 1.610 . S
N340 C341 1.351 . S
C341 C335 1.428 . S
C341 N340 1.351 . S
C341 C342 1.434 . S
C342 C333 1.429 . S
C342 N339 1.350 . S
C342 C341 1.434 . S
C343 C344 1.369 . S
C343 C345 1.419 . S
C343 H347 0.930 . S
C344 C343 1.369 . S
C344 C353 1.429 . S
C345 C343 1.419 . S
C345 C346 1.363 . S
C345 H348 0.929 . S
C346 C345 1.363 . S
C346 C352 1.428 . S
H347 C343 0.930 . S
H348 C345 0.929 . S
S349 N350 1.613 . S
S349 N351 1.610 . S
N350 S349 1.613 . S
N350 C353 1.350 . S
N351 S349 1.610 . S
N351 C352 1.351 . S
C352 C346 1.428 . S
C352 N351 1.351 . S
C352 C353 1.434 . S
C353 C344 1.429 . S
C353 N350 1.350 . S
C353 C352 1.434 . S
C354 C355 1.369 . S
C354 C356 1.419 . S
C354 H358 0.930 . S
C355 C354 1.369 . S
C355 C364 1.429 . S
C356 C354 1.419 . S
C356 C357 1.363 . S
C356 H359 0.929 . S
C357 C356 1.363 . S
C357 C363 1.428 . S
H358 C354 0.930 . S
H359 C356 0.929 . S
S360 N361 1.613 . S
S360 N362 1.610 . S
N361 S360 1.613 . S
N361 C364 1.350 . S
N362 S360 1.610 . S
N362 C363 1.351 . S
C363 C357 1.428 . S
C363 N362 1.351 . S
C363 C364 1.434 . S
C364 C355 1.429 . S
C364 N361 1.350 . S
C364 C363 1.434 . S
C365 C366 1.369 . S
C365 C367 1.419 . S
C365 H369 0.930 . S
C366 C365 1.369 . S
C366 C375 1.429 . S
C367 C365 1.419 . S
C367 C368 1.363 . S
C367 H370 0.929 . S
C368 C367 1.363 . S
C368 C374 1.428 . S
H369 C365 0.930 . S
H370 C367 0.929 . S
S371 N372 1.613 . S
S371 N373 1.610 . S
N372 S371 1.613 . S
N372 C375 1.350 . S
N373 S371 1.610 . S
N373 C374 1.351 . S
C374 C368 1.428 . S
C374 N373 1.351 . S
C374 C375 1.434 . S
C375 C366 1.429 . S
C375 N372 1.350 . S
C375 C374 1.434 . S
C376 C377 1.369 . S
C376 C378 1.419 . S
C376 H380 0.930 . S
C377 C376 1.369 . S
C377 C386 1.429 . S
C378 C376 1.419 . S
C378 C379 1.363 . S
C378 H381 0.929 . S
C379 C378 1.363 . S
C379 C385 1.428 . S
H380 C376 0.930 . S
H381 C378 0.929 . S
S382 N383 1.613 . S
S382 N384 1.610 . S
N383 S382 1.613 . S
N383 C386 1.350 . S
N384 S382 1.610 . S
N384 C385 1.351 . S
C385 C379 1.428 . S
C385 N384 1.351 . S
C385 C386 1.434 . S
C386 C377 1.429 . S
C386 N383 1.350 . S
C386 C385 1.434 . S
C387 C388 1.369 . S
C387 C389 1.419 . S
C387 H391 0.930 . S
C388 C387 1.369 . S
C388 C397 1.429 . S
C389 C387 1.419 . S
C389 C390 1.363 . S
C389 H392 0.929 . S
C390 C389 1.363 . S
C390 C396 1.428 . S
H391 C387 0.930 . S
H392 C389 0.929 . S
S393 N394 1.613 . S
S393 N395 1.610 . S
N394 S393 1.613 . S
N394 C397 1.350 . S
N395 S393 1.610 . S
N395 C396 1.351 . S
C396 C390 1.428 . S
C396 N395 1.351 . S
C396 C397 1.434 . S
C397 C388 1.429 . S
C397 N394 1.350 . S
C397 C396 1.434 . S
C398 C399 1.369 . S
C398 C400 1.419 . S
C398 H402 0.930 . S
C399 C398 1.369 . S
C399 C408 1.429 . S
C400 C398 1.419 . S
C400 C401 1.363 . S
C400 H403 0.929 . S
C401 C400 1.363 . S
C401 C407 1.428 . S
H402 C398 0.930 . S
H403 C400 0.929 . S
S404 N405 1.613 . S
S404 N406 1.610 . S
N405 S404 1.613 . S
N405 C408 1.350 . S
N406 S404 1.610 . S
N406 C407 1.351 . S
C407 C401 1.428 . S
C407 N406 1.351 . S
C407 C408 1.434 . S
C408 C399 1.429 . S
C408 N405 1.350 . S
C408 C407 1.434 . S
C409 C410 1.369 . S
C409 C411 1.419 . S
C409 H413 0.930 . S
C410 C409 1.369 . S
C410 C419 1.429 . S
C411 C409 1.419 . S
C411 C412 1.363 . S
C411 H414 0.929 . S
C412 C411 1.363 . S
C412 C418 1.428 . S
H413 C409 0.930 . S
H414 C411 0.929 . S
S415 N416 1.613 . S
S415 N417 1.610 . S
N416 S415 1.613 . S
N416 C419 1.350 . S
N417 S415 1.610 . S
N417 C418 1.351 . S
C418 C412 1.428 . S
C418 N417 1.351 . S
C418 C419 1.434 . S
C419 C410 1.429 . S
C419 N416 1.350 . S
C419 C418 1.434 . S
C157 C5 1.598 . S
C159 C68 1.597 . S
C168 C17 1.579 . S
C170 C62 1.584 . S
C179 C70 1.588 . S
C181 C30 1.584 . S
C190 C42 1.599 . S
C192 C56 1.589 . S
C201 C96 1.589 . S
C203 C36 1.583 . S
C212 C82 1.588 . S
C214 C44 1.599 . S
C223 C3 1.596 . S
C225 C94 1.598 . S
C234 C88 1.585 . S
C236 C23 1.580 . S
C245 C122 1.601 . S
C247 C107 1.601 . S
C256 C109 1.594 . S
C258 C153 1.585 . S
C267 C120 1.595 . S
C269 C140 1.584 . S
C278 C134 1.578 . S
C280 C147 1.578 . S
C289 C148 1.596 . S
C291 C83 1.598 . S
C300 C108 1.579 . S
C302 C101 1.584 . S
C311 C81 1.586 . S
C313 C121 1.585 . S
C322 C95 1.590 . S
C324 C133 1.597 . S
C333 C57 1.587 . S
C335 C127 1.584 . S
C344 C75 1.588 . S
C346 C135 1.599 . S
C355 C146 1.600 . S
C357 C55 1.595 . S
C366 C114 1.584 . S
C368 C69 1.580 . S
C377 C16 1.601 . S
C379 C31 1.601 . S
C388 C10 1.589 . S
C390 C18 1.591 . S
C399 C29 1.594 . S
C401 C49 1.586 . S
C410 C4 1.580 . S
C412 C43 1.576 . S
